# Generated by pormake.
# Topology sqc, (4,8)-cn, num edge types: 1
# Building blocks:
#     Node 0, Type 0, BuildingBlock: MUDLON_clean_linker_0, # of connection points: 4
#     Node 1, Type 0, BuildingBlock: MUDLON_clean_linker_0, # of connection points: 4
#     Node 2, Type 0, BuildingBlock: MUDLON_clean_linker_0, # of connection points: 4
#     Node 3, Type 0, BuildingBlock: MUDLON_clean_linker_0, # of connection points: 4
#     Node 4, Type 0, BuildingBlock: MUDLON_clean_linker_0, # of connection points: 4
#     Node 5, Type 0, BuildingBlock: MUDLON_clean_linker_0, # of connection points: 4
#     Node 6, Type 0, BuildingBlock: MUDLON_clean_linker_0, # of connection points: 4
#     Node 7, Type 0, BuildingBlock: MUDLON_clean_linker_0, # of connection points: 4
#     Node 8, Type 1, BuildingBlock: VETTIZ_charged_sbu_0, # of connection points: 8
#     Node 9, Type 1, BuildingBlock: VETTIZ_charged_sbu_0, # of connection points: 8
#     Node 10, Type 1, BuildingBlock: VETTIZ_charged_sbu_0, # of connection points: 8
#     Node 11, Type 1, BuildingBlock: VETTIZ_charged_sbu_0, # of connection points: 8
#     Edge 12, Type (0, 1), BuildingBlock: OJICUG_clean_linker_0, # of connection points: 2
#     Edge 13, Type (0, 1), BuildingBlock: OJICUG_clean_linker_0, # of connection points: 2
#     Edge 14, Type (0, 1), BuildingBlock: OJICUG_clean_linker_0, # of connection points: 2
#     Edge 15, Type (0, 1), BuildingBlock: OJICUG_clean_linker_0, # of connection points: 2
#     Edge 16, Type (0, 1), BuildingBlock: OJICUG_clean_linker_0, # of connection points: 2
#     Edge 17, Type (0, 1), BuildingBlock: OJICUG_clean_linker_0, # of connection points: 2
#     Edge 18, Type (0, 1), BuildingBlock: OJICUG_clean_linker_0, # of connection points: 2
#     Edge 19, Type (0, 1), BuildingBlock: OJICUG_clean_linker_0, # of connection points: 2
#     Edge 20, Type (0, 1), BuildingBlock: OJICUG_clean_linker_0, # of connection points: 2
#     Edge 21, Type (0, 1), BuildingBlock: OJICUG_clean_linker_0, # of connection points: 2
#     Edge 22, Type (0, 1), BuildingBlock: OJICUG_clean_linker_0, # of connection points: 2
#     Edge 23, Type (0, 1), BuildingBlock: OJICUG_clean_linker_0, # of connection points: 2
#     Edge 24, Type (0, 1), BuildingBlock: OJICUG_clean_linker_0, # of connection points: 2
#     Edge 25, Type (0, 1), BuildingBlock: OJICUG_clean_linker_0, # of connection points: 2
#     Edge 26, Type (0, 1), BuildingBlock: OJICUG_clean_linker_0, # of connection points: 2
#     Edge 27, Type (0, 1), BuildingBlock: OJICUG_clean_linker_0, # of connection points: 2
#     Edge 28, Type (0, 1), BuildingBlock: OJICUG_clean_linker_0, # of connection points: 2
#     Edge 29, Type (0, 1), BuildingBlock: OJICUG_clean_linker_0, # of connection points: 2
#     Edge 30, Type (0, 1), BuildingBlock: OJICUG_clean_linker_0, # of connection points: 2
#     Edge 31, Type (0, 1), BuildingBlock: OJICUG_clean_linker_0, # of connection points: 2
#     Edge 32, Type (0, 1), BuildingBlock: OJICUG_clean_linker_0, # of connection points: 2
#     Edge 33, Type (0, 1), BuildingBlock: OJICUG_clean_linker_0, # of connection points: 2
#     Edge 34, Type (0, 1), BuildingBlock: OJICUG_clean_linker_0, # of connection points: 2
#     Edge 35, Type (0, 1), BuildingBlock: OJICUG_clean_linker_0, # of connection points: 2
#     Edge 36, Type (0, 1), BuildingBlock: OJICUG_clean_linker_0, # of connection points: 2
#     Edge 37, Type (0, 1), BuildingBlock: OJICUG_clean_linker_0, # of connection points: 2
#     Edge 38, Type (0, 1), BuildingBlock: OJICUG_clean_linker_0, # of connection points: 2
#     Edge 39, Type (0, 1), BuildingBlock: OJICUG_clean_linker_0, # of connection points: 2
#     Edge 40, Type (0, 1), BuildingBlock: OJICUG_clean_linker_0, # of connection points: 2
#     Edge 41, Type (0, 1), BuildingBlock: OJICUG_clean_linker_0, # of connection points: 2
#     Edge 42, Type (0, 1), BuildingBlock: OJICUG_clean_linker_0, # of connection points: 2
#     Edge 43, Type (0, 1), BuildingBlock: OJICUG_clean_linker_0, # of connection points: 2
# Relax obj value: 0.166
# Max RMSD: 0.289
# Mean RMSD: 0.211
data_MOF--net-sqc--node1-VETTIZ_charged_sbu_0--node2-MUDLON_clean_linker_0--edge1-OJICUG_clean_linker_0
_symmetry_space_group_name_H-M    P1
_symmetry_Int_Tables_number       1
_symmetry_cell_setting            triclinic
loop_
_symmetry_equiv_pos_as_xyz
'x, y, z'
_cell_length_a     25.499479
_cell_length_b     25.495111
_cell_length_c     71.746508
_cell_angle_alpha  90.195977
_cell_angle_beta   89.866597
_cell_angle_gamma 89.998829
loop_
_atom_site_label
_atom_site_type_symbol
_atom_site_fract_x
_atom_site_fract_y
_atom_site_fract_z
_atom_type_partial_charge
H0 H 0.76391 1.00445 0.53709 0.0
N1 N 0.82755 0.06615 0.51561 0.0
H2 H 0.70024 0.03465 0.56027 0.0
H3 H 0.81082 0.16417 0.52689 0.0
H4 H 0.74749 0.19489 0.55025 0.0
H5 H 0.76496 0.10344 0.48948 0.0
H6 H 0.70926 0.05445 0.46828 0.0
H7 H 0.83083 0.95911 0.50996 0.0
H8 H 0.7787 0.90959 0.48767 0.0
H9 H 0.85696 0.99658 0.54292 0.0
H10 H 0.91634 0.10102 0.50076 0.0
H11 H 0.94624 0.97599 0.55246 0.0
H12 H 1.00623 0.07912 0.50973 0.0
H13 H 0.20075 0.97215 0.58909 0.0
H14 H 0.25457 0.02734 0.60966 0.0
H15 H 0.31272 0.11138 0.56173 0.0
H16 H 0.25837 0.05698 0.54136 0.0
H17 H 0.19174 1.00252 0.51495 0.0
H18 H 0.24749 0.97104 0.49002 0.0
H19 H 0.33092 0.87305 0.52915 0.0
H20 H 0.27157 0.90182 0.55388 0.0
H21 H 0.11409 0.91043 0.55172 0.0
H22 H 0.0238 0.93096 0.54285 0.0
H23 H 0.0683 0.09262 0.53408 0.0
N24 N 0.1966 0.97414 0.552 0.0
H25 H 0.15843 0.0713 0.54225 0.0
C26 C 0.79258 0.08224 0.5304 0.0
C27 C 0.761 0.04601 0.54003 0.0
C28 C 0.72443 0.06336 0.55323 0.0
C29 C 0.7185 0.11722 0.55701 0.0
C30 C 0.7504 0.15323 0.54743 0.0
C31 C 0.78707 0.13581 0.53428 0.0
C32 C 0.80232 0.03539 0.50125 0.0
C33 C 0.7686 0.06113 0.48892 0.0
C34 C 0.73694 0.03278 0.47667 0.0
C35 C 0.739 0.97757 0.47609 0.0
C36 C 0.77487 0.95186 0.48789 0.0
C37 C 0.80559 0.98033 0.50054 0.0
C38 C 0.87983 0.05097 0.52117 0.0
C39 C 0.88914 0.01505 0.53565 0.0
C40 C 0.94049 1.00291 0.54101 0.0
C41 C 0.98371 0.02607 0.53196 0.0
C42 C 0.97409 0.06129 0.51728 0.0
C43 C 0.92276 0.07355 0.51201 0.0
C44 C 0.22561 1.01006 0.56374 0.0
C45 C 0.22473 1.00283 0.58309 0.0
C46 C 0.25555 0.03421 0.59477 0.0
C47 C 0.28835 0.07313 0.58725 0.0
C48 C 0.28857 0.08101 0.56787 0.0
C49 C 0.25721 0.05015 0.55623 0.0
C50 C 0.22681 0.95394 0.53644 0.0
C51 C 0.22107 0.97338 0.51821 0.0
C52 C 0.2539 0.95585 0.50389 0.0
C53 C 0.29448 0.91978 0.50746 0.0
C54 C 0.29978 0.90012 0.52567 0.0
C55 C 0.26604 0.91671 0.53991 0.0
C56 C 0.14308 0.9891 0.54789 0.0
C57 C 0.10412 0.95034 0.54802 0.0
C58 C 0.05249 0.96226 0.543 0.0
C59 C 0.03854 0.01353 0.53773 0.0
C60 C 0.07761 0.05258 0.5378 0.0
C61 C 0.1293 0.04054 0.54274 0.0
H62 H 0.25277 0.60321 0.80918 0.0
N63 N 0.23827 0.60618 0.7712 0.0
H64 H 0.21508 0.53988 0.83053 0.0
H65 H 0.16604 0.53432 0.76378 0.0
H66 H 0.12982 0.46865 0.78497 0.0
H67 H 0.2482 0.59734 0.73461 0.0
H68 H 0.31042 0.54263 0.71746 0.0
H69 H 0.32299 0.55546 0.78626 0.0
H70 H 0.38543 0.49991 0.76918 0.0
H71 H 0.31537 0.65281 0.79201 0.0
H72 H 0.17887 0.68366 0.7586 0.0
H73 H 0.32747 0.74666 0.79705 0.0
H74 H 0.19233 0.77793 0.76245 0.0
H75 H 0.31489 0.99473 0.82545 0.0
H76 H 0.26354 0.04203 0.84921 0.0
H77 H 0.16084 0.10027 0.80629 0.0
H78 H 0.21065 0.05185 0.78282 0.0
H79 H 0.24402 1.00128 0.75619 0.0
H80 H 0.26902 0.0537 0.72889 0.0
H81 H 0.41164 0.10005 0.75679 0.0
H82 H 0.38595 0.04837 0.78405 0.0
H83 H 0.37014 0.91659 0.7865 0.0
H84 H 0.35528 0.82267 0.78245 0.0
H85 H 0.18783 0.85027 0.78211 0.0
N86 N 0.29921 0.99253 0.78878 0.0
H87 H 0.20363 0.94436 0.78494 0.0
C88 C 0.2117 0.57408 0.7848 0.0
C89 C 0.22516 0.57492 0.80377 0.0
C90 C 0.20412 0.53781 0.81598 0.0
C91 C 0.16995 0.49838 0.80947 0.0
C92 C 0.1556 0.49853 0.79056 0.0
C93 C 0.17616 0.53608 0.77842 0.0
C94 C 0.28067 0.58023 0.7616 0.0
C95 C 0.27886 0.57719 0.74217 0.0
C96 C 0.31455 0.54597 0.73244 0.0
C97 C 0.35282 0.51684 0.742 0.0
C98 C 0.35615 0.52162 0.76148 0.0
C99 C 0.32065 0.55352 0.77122 0.0
C100 C 0.24555 0.66122 0.77515 0.0
C101 C 0.28777 0.67985 0.78584 0.0
C102 C 0.29505 0.73382 0.78846 0.0
C103 C 0.26104 0.77049 0.78011 0.0
C104 C 0.21883 0.75135 0.76944 0.0
C105 C 0.21114 0.6974 0.7671 0.0
C106 C 0.26742 0.02021 0.80232 0.0
C107 C 0.2812 0.01761 0.82121 0.0
C108 C 0.25194 0.04453 0.83472 0.0
C109 C 0.20873 0.07527 0.8295 0.0
C110 C 0.19456 0.07755 0.81061 0.0
C111 C 0.22315 0.04979 0.79717 0.0
C112 C 0.31322 0.02124 0.77219 0.0
C113 C 0.28059 0.0228 0.7564 0.0
C114 C 0.29482 0.05283 0.74085 0.0
C115 C 0.34232 0.08087 0.7407 0.0
C116 C 0.37507 0.07846 0.75642 0.0
C117 C 0.36047 0.04916 0.772 0.0
C118 C 0.28824 0.93742 0.78622 0.0
C119 C 0.3303 0.90217 0.78546 0.0
C120 C 0.32156 0.84836 0.78335 0.0
C121 C 0.27022 0.82824 0.78217 0.0
C122 C 0.22796 0.86396 0.78276 0.0
C123 C 0.23686 0.91798 0.78456 0.0
H124 H 0.71457 0.08168 0.08335 0.0
N125 N 0.69978 0.07928 0.04678 0.0
H126 H 0.7672 0.0217 0.10218 0.0
H127 H 0.75107 0.99088 0.03421 0.0
H128 H 0.8023 0.93015 0.05289 0.0
H129 H 0.70922 0.0449 0.01077 0.0
H130 H 0.76595 0.08152 0.98686 0.0
H131 H 0.75842 0.16526 0.04926 0.0
H132 H 0.81429 0.20383 0.02503 0.0
H133 H 0.62017 0.14609 0.04876 0.0
H134 H 0.65702 0.98579 0.03458 0.0
H135 H 0.52821 0.13039 0.04094 0.0
H136 H 0.56542 0.96902 0.0277 0.0
H137 H 0.26723 0.0665 0.04116 0.0
H138 H 0.20857 0.03836 0.0664 0.0
H139 H 0.24275 0.87656 0.05321 0.0
H140 H 0.30237 0.90503 0.02835 0.0
H141 H 0.25643 0.96333 0.99271 0.0
H142 H 0.20189 1.01064 0.97076 0.0
H143 H 0.2748 0.15636 0.98795 0.0
H144 H 0.32576 0.10862 0.01105 0.0
H145 H 0.35991 0.07067 0.04413 0.0
H146 H 0.45144 0.08818 0.05121 0.0
H147 H 0.49846 0.98558 0.00604 0.0
N148 N 0.32234 1.0024 0.01752 0.0
H149 H 0.40627 0.96611 -0.00025 0.0
C150 C 0.72845 0.04092 0.05745 0.0
C151 C 0.73339 0.04845 0.07669 0.0
C152 C 0.76338 0.01403 0.08739 0.0
C153 C 0.78901 0.97101 0.07904 0.0
C154 C 0.78374 0.96324 0.05973 0.0
C155 C 0.7539 0.99784 0.04903 0.0
C156 C 0.72954 0.10254 0.03183 0.0
C157 C 0.73168 0.07974 0.014 0.0
C158 C 0.76403 0.10104 0.00027 0.0
C159 C 0.79461 0.14587 0.00397 0.0
C160 C 0.79176 0.16902 0.02176 0.0
C161 C 0.75957 0.1474 0.03554 0.0
C162 C 0.64566 0.06731 0.04254 0.0
C163 C 0.60828 0.10735 0.04419 0.0
C164 C 0.55566 0.09814 0.03981 0.0
C165 C 0.53902 0.04828 0.03375 0.0
C166 C 0.57667 1.00811 0.03206 0.0
C167 C 0.62939 0.01755 0.03625 0.0
C168 C 0.28988 0.98762 0.03312 0.0
C169 C 0.26284 0.02504 0.04395 0.0
C170 C 0.22909 1.00897 0.05825 0.0
C171 C 0.2209 0.95533 0.06163 0.0
C172 C 0.24789 0.91815 0.05074 0.0
C173 C 0.28223 0.93424 0.0367 0.0
C174 C 0.29546 0.03207 0.00338 0.0
C175 C 0.26082 1.00547 0.99158 0.0
C176 C 0.22997 0.0328 0.97887 0.0
C177 C 0.2338 0.08773 0.9773 0.0
C178 C 0.26985 0.1143 0.98886 0.0
C179 C 0.29977 0.08689 0.00197 0.0
C180 C 0.37609 0.01618 0.02154 0.0
C181 C 0.38969 0.05155 0.03582 0.0
C182 C 0.4424 0.06204 0.03974 0.0
C183 C 0.48273 0.03809 0.0293 0.0
C184 C 0.46875 1.00388 0.01468 0.0
C185 C 0.41606 0.99299 0.01093 0.0
H186 H 0.18916 0.54993 0.31677 0.0
N187 N 0.22502 0.48694 0.28993 0.0
H188 H 0.24027 0.59918 0.34003 0.0
H189 H 0.33272 0.4907 0.29276 0.0
H190 H 0.38324 0.53863 0.3159 0.0
H191 H 0.29207 0.52821 0.26387 0.0
H192 H 0.26769 0.57416 0.2355 0.0
H193 H 0.12902 0.50905 0.27809 0.0
H194 H 0.1039 0.55825 0.25033 0.0
H195 H 0.17189 0.40917 0.30586 0.0
H196 H 0.30167 0.43905 0.26882 0.0
H197 H 0.18573 0.31466 0.3022 0.0
H198 H 0.31807 0.3459 0.26608 0.0
H199 H 0.23821 0.05343 0.30115 0.0
H200 H 0.26874 0.98763 0.32289 0.0
H201 H 0.42843 0.01484 0.30483 0.0
H202 H 0.39648 0.07847 0.28202 0.0
H203 H 0.32721 0.03601 0.24755 0.0
H204 H 0.27316 0.97171 0.2311 0.0
H205 H 0.13495 0.03313 0.2584 0.0
H206 H 0.1896 0.0976 0.27488 0.0
H207 H 0.25547 0.1496 0.30558 0.0
H208 H 0.23875 0.24289 0.30952 0.0
H209 H 0.28757 0.26964 0.25256 0.0
N210 N 0.29707 0.10126 0.27421 0.0
H211 H 0.30748 0.17664 0.2492 0.0
C212 C 0.25665 0.51566 0.3032 0.0
C213 C 0.23156 0.54744 0.31653 0.0
C214 C 0.26072 0.57574 0.3297 0.0
C215 C 0.31569 0.57231 0.32988 0.0
C216 C 0.34085 0.54137 0.31628 0.0
C217 C 0.31178 0.51371 0.303 0.0
C218 C 0.21217 0.51467 0.27306 0.0
C219 C 0.25092 0.5337 0.26087 0.0
C220 C 0.2368 0.56069 0.24469 0.0
C221 C 0.18368 0.57023 0.24049 0.0
C222 C 0.14513 0.55091 0.25278 0.0
C223 C 0.15933 0.52323 0.26879 0.0
C224 C 0.23574 0.43153 0.28781 0.0
C225 C 0.20379 0.39536 0.29714 0.0
C226 C 0.21208 0.3413 0.29512 0.0
C227 C 0.2531 0.32211 0.2838 0.0
C228 C 0.28541 0.3587 0.27461 0.0
C229 C 0.27649 0.41257 0.2764 0.0
C230 C 0.31521 0.0711 0.28993 0.0
C231 C 0.27984 0.04576 0.30198 0.0
C232 C 0.29754 1.00795 0.31448 0.0
C233 C 0.35119 0.99527 0.31559 0.0
C234 C 0.38673 0.02248 0.30409 0.0
C235 C 0.36878 0.05973 0.29132 0.0
C236 C 0.26255 0.07157 0.26231 0.0
C237 C 0.28514 0.03628 0.24966 0.0
C238 C 0.25435 0.99915 0.24054 0.0
C239 C 0.20008 0.99676 0.24383 0.0
C240 C 0.17676 0.034 0.25573 0.0
C241 C 0.20784 0.07102 0.26502 0.0
C242 C 0.28376 0.15588 0.27708 0.0
C243 C 0.26302 0.17533 0.29395 0.0
C244 C 0.25289 0.22907 0.29614 0.0
C245 C 0.26225 0.26445 0.28144 0.0
C246 C 0.28124 0.24428 0.26442 0.0
C247 C 0.29219 0.1909 0.26237 0.0
H248 H 0.84577 0.99354 0.3207 0.0
N249 N 0.81411 0.06293 0.29538 0.0
H250 H 0.79149 0.94479 0.3431 0.0
H251 H 0.70721 0.06764 0.29876 0.0
H252 H 0.65308 0.0198 0.32112 0.0
H253 H 0.75185 0.9966 0.27452 0.0
H254 H 0.77867 0.94602 0.24744 0.0
H255 H 0.90476 0.06831 0.27711 0.0
H256 H 0.93074 0.02138 0.2489 0.0
H257 H 0.84412 0.13848 0.31872 0.0
H258 H 0.75771 0.11227 0.26802 0.0
H259 H 0.82769 0.23264 0.31639 0.0
H260 H 0.74416 0.20632 0.26476 0.0
H261 H 0.80557 0.48907 0.30971 0.0
H262 H 0.77218 0.55739 0.33004 0.0
H263 H 0.6231 0.55154 0.30127 0.0
H264 H 0.65984 0.48713 0.27958 0.0
H265 H 0.73454 0.47709 0.24418 0.0
H266 H 0.78686 0.53177 0.22328 0.0
H267 H 0.91149 0.53595 0.26394 0.0
H268 H 0.85915 0.48138 0.28467 0.0
H269 H 0.83882 0.40211 0.29686 0.0
H270 H 0.85132 0.30821 0.30081 0.0
H271 H 0.70036 0.2799 0.27523 0.0
N272 N 0.75717 0.44996 0.27878 0.0
H273 H 0.69045 0.37404 0.27012 0.0
C274 C 0.78084 0.03491 0.30831 0.0
C275 C 0.8037 0.99935 0.32078 0.0
C276 C 0.77269 0.97137 0.33345 0.0
C277 C 0.71812 0.97885 0.33397 0.0
C278 C 0.69515 0.01387 0.32125 0.0
C279 C 0.72606 0.04136 0.30847 0.0
C280 C 0.82701 0.03532 0.27829 0.0
C281 C 0.7912 1.00189 0.2692 0.0
C282 C 0.80648 0.97335 0.2534 0.0
C283 C 0.85736 0.97865 0.24591 0.0
C284 C 0.89188 0.01454 0.25448 0.0
C285 C 0.87701 0.04195 0.27055 0.0
C286 C 0.80295 0.11832 0.29348 0.0
C287 C 0.82202 0.15324 0.30698 0.0
C288 C 0.81293 0.2072 0.30549 0.0
C289 C 0.78497 0.22777 0.29026 0.0
C290 C 0.76524 0.19237 0.27684 0.0
C291 C 0.77354 0.13831 0.27854 0.0
C292 C 0.73532 0.48344 0.29297 0.0
C293 C 0.76596 0.50284 0.30765 0.0
C294 C 0.74626 0.54178 0.31948 0.0
C295 C 0.69455 0.56072 0.31745 0.0
C296 C 0.66343 0.53945 0.30309 0.0
C297 C 0.68389 0.50171 0.29089 0.0
C298 C 0.7926 0.47492 0.26593 0.0
C299 C 0.77361 0.48882 0.24836 0.0
C300 C 0.80358 0.52007 0.2365 0.0
C301 C 0.85329 0.53828 0.24203 0.0
C302 C 0.87314 0.52292 0.2594 0.0
C303 C 0.84318 0.49127 0.27123 0.0
C304 C 0.76407 0.39508 0.2828 0.0
C305 C 0.80871 0.37579 0.29191 0.0
C306 C 0.81542 0.3217 0.2944 0.0
C307 C 0.77709 0.28573 0.28822 0.0
C308 C 0.73153 0.30576 0.27975 0.0
C309 C 0.72541 0.35969 0.27698 0.0
H310 H 0.72664 0.97867 0.81108 0.0
N311 N 0.76783 0.95248 0.7772 0.0
H312 H 0.75845 0.04689 0.8317 0.0
H313 H 0.85993 1.00075 0.77507 0.0
H314 H 0.89648 0.06462 0.7969 0.0
H315 H 0.77884 0.96918 0.74102 0.0
H316 H 0.72304 0.02282 0.721 0.0
H317 H 0.67206 0.99481 0.78686 0.0
H318 H 0.61665 0.04882 0.76704 0.0
H319 H 0.68098 0.90426 0.79204 0.0
H320 H 0.8376 0.87701 0.77163 0.0
H321 H 0.66764 0.81009 0.79533 0.0
H322 H 0.82602 0.78269 0.77588 0.0
H323 H 0.67905 0.49694 0.81617 0.0
H324 H 0.73319 0.45047 0.83909 0.0
H325 H 0.87156 0.52443 0.81638 0.0
H326 H 0.81749 0.57029 0.79359 0.0
H327 H 0.78102 0.52133 0.76558 0.0
H328 H 0.76003 0.47026 0.73772 0.0
H329 H 0.59474 0.49023 0.74929 0.0
H330 H 0.61634 0.54266 0.77681 0.0
H331 H 0.67266 0.63843 0.81282 0.0
H332 H 0.6879 0.73309 0.8116 0.0
H333 H 0.78349 0.71122 0.76231 0.0
N334 N 0.71068 0.56459 0.79029 0.0
H335 H 0.77047 0.61713 0.76431 0.0
C336 C 0.7906 0.98527 0.79139 0.0
C337 C 0.76337 0.99774 0.80779 0.0
C338 C 0.78235 0.03657 0.81977 0.0
C339 C 0.83052 0.06207 0.81618 0.0
C340 C 0.8587 0.04746 0.80006 0.0
C341 C 0.83852 1.01003 0.78772 0.0
C342 C 0.7301 0.97802 0.7654 0.0
C343 C 0.74292 0.98554 0.74665 0.0
C344 C 0.71097 0.01613 0.73528 0.0
C345 C 0.66556 0.0401 0.74253 0.0
C346 C 0.65166 0.03117 0.76117 0.0
C347 C 0.68342 1.00004 0.77249 0.0
C348 C 0.76019 0.89768 0.78127 0.0
C349 C 0.7128 0.8781 0.78846 0.0
C350 C 0.7054 0.82394 0.79049 0.0
C351 C 0.7455 0.78825 0.78566 0.0
C352 C 0.79365 0.80851 0.77927 0.0
C353 C 0.80067 0.8625 0.77702 0.0
C354 C 0.74396 0.53759 0.80337 0.0
C355 C 0.72109 0.50296 0.81619 0.0
C356 C 0.75202 0.4763 0.82917 0.0
C357 C 0.80653 0.48417 0.82963 0.0
C358 C 0.82953 0.51823 0.81656 0.0
C359 C 0.79866 0.54447 0.80349 0.0
C360 C 0.70002 0.53601 0.77329 0.0
C361 C 0.74028 0.51514 0.76204 0.0
C362 C 0.72819 0.48557 0.74614 0.0
C363 C 0.67566 0.476 0.74118 0.0
C364 C 0.63563 0.49747 0.75242 0.0
C365 C 0.64779 0.5272 0.76823 0.0
C366 C 0.71963 0.62044 0.7886 0.0
C367 C 0.69688 0.65428 0.80177 0.0
C368 C 0.70544 0.70846 0.80096 0.0
C369 C 0.73687 0.73028 0.78681 0.0
C370 C 0.75975 0.69613 0.77361 0.0
C371 C 0.75169 0.64192 0.77458 0.0
H372 H 0.3178 0.53346 0.01166 0.0
N373 N 0.32877 0.48875 0.04606 0.0
H374 H 0.26203 0.50212 0.98649 0.0
H375 H 0.27591 0.39906 0.04474 0.0
H376 H 0.22171 0.36567 0.0192 0.0
H377 H 0.31117 0.47417 0.08219 0.0
H378 H 0.25316 0.52486 0.10276 0.0
H379 H 0.27512 0.57873 0.03689 0.0
H380 H 0.2175 0.62932 0.05726 0.0
H381 H 0.36988 0.5854 0.03699 0.0
H382 H 0.40989 0.42374 0.04698 0.0
H383 H 0.46153 0.60522 0.03051 0.0
H384 H 0.50167 0.44261 0.03973 0.0
H385 H 0.74392 0.61099 0.98463 0.0
H386 H 0.7973 0.5649 0.96147 0.0
H387 H 0.77772 0.42077 0.99233 0.0
H388 H 0.72194 0.46684 0.01476 0.0
H389 H 0.76214 0.5117 0.03991 0.0
H390 H 0.82393 0.54217 0.06335 0.0
H391 H 0.78766 0.70276 0.04923 0.0
H392 H 0.72636 0.67161 0.02536 0.0
H393 H 0.6192 0.61237 0.0005 0.0
H394 H 0.52764 0.59264 0.00785 0.0
H395 H 0.57878 0.48425 0.05032 0.0
N396 N 0.70475 0.57296 0.01603 0.0
H397 H 0.66982 0.50259 0.04226 0.0
C398 C 0.30076 0.46857 0.03015 0.0
C399 C 0.29719 0.49672 0.0134 0.0
C400 C 0.26545 0.47844 -0.00108 0.0
C401 C 0.23707 0.43135 0.00079 0.0
C402 C 0.24214 0.40254 0.01738 0.0
C403 C 0.27349 0.42117 0.03191 0.0
C404 C 0.29795 0.52249 0.05805 0.0
C405 C 0.29121 0.50832 0.07675 0.0
C406 C 0.25791 0.53719 0.08843 0.0
C407 C 0.23032 0.58084 0.08158 0.0
C408 C 0.2374 0.59533 0.06286 0.0
C409 C 0.27096 0.56664 0.05123 0.0
C410 C 0.38289 0.50292 0.04273 0.0
C411 C 0.39829 0.55408 0.03787 0.0
C412 C 0.45097 0.56527 0.03394 0.0
C413 C 0.48941 0.52556 0.03455 0.0
C414 C 0.47365 0.4745 0.03943 0.0
C415 C 0.42111 0.46349 0.04349 0.0
C416 C 0.72957 0.54267 0.00149 0.0
C417 C 0.75034 0.56922 0.98612 0.0
C418 C 0.78132 0.54285 0.97304 0.0
C419 C 0.79287 0.48922 0.9752 0.0
C420 C 0.76962 0.46197 0.99014 0.0
C421 C 0.738 0.48839 0.00311 0.0
C422 C 0.73908 0.58953 0.0309 0.0
C423 C 0.76705 0.55344 0.04185 0.0
C424 C 0.80259 0.57098 0.05531 0.0
C425 C 0.81102 0.62495 0.05816 0.0
C426 C 0.78286 0.66092 0.04721 0.0
C427 C 0.74732 0.64329 0.03374 0.0
C428 C 0.65145 0.55944 0.02084 0.0
C429 C 0.61046 0.58425 0.01135 0.0
C430 C 0.55812 0.57322 0.01572 0.0
C431 C 0.54543 0.5371 0.02983 0.0
C432 C 0.58678 0.51186 0.03925 0.0
C433 C 0.63919 0.52265 0.03474 0.0
H434 H 0.25403 0.55587 0.53941 0.0
N435 N 0.19363 0.49231 0.51748 0.0
H436 H 0.31785 0.52733 0.56277 0.0
H437 H 0.21273 0.3949 0.52846 0.0
H438 H 0.27641 0.36584 0.55176 0.0
H439 H 0.26009 0.45135 0.49307 0.0
H440 H 0.31595 0.49708 0.47105 0.0
H441 H 0.18687 0.59778 0.50843 0.0
H442 H 0.23912 0.64322 0.48538 0.0
H443 H 0.16226 0.57458 0.53969 0.0
H444 H 0.10658 0.4418 0.50823 0.0
H445 H 0.07253 0.59728 0.54815 0.0
H446 H 0.01676 0.46156 0.51769 0.0
H447 H 0.75658 0.61784 0.57984 0.0
H448 H 0.70346 0.56201 0.6004 0.0
H449 H 0.77667 0.42461 0.57654 0.0
H450 H 0.8285 0.48002 0.55587 0.0
H451 H 0.76307 0.52389 0.53114 0.0
H452 H 0.70464 0.55133 0.5063 0.0
H453 H 0.74804 0.71294 0.51596 0.0
H454 H 0.80636 0.68498 0.5413 0.0
H455 H 0.90942 0.60219 0.57361 0.0
H456 H 0.99964 0.57775 0.56598 0.0
H457 H 0.94697 0.51615 0.51298 0.0
N458 N 0.82327 0.58746 0.5533 0.0
H459 H 0.85768 0.53672 0.52124 0.0
C460 C 0.22815 0.47731 0.53241 0.0
C461 C 0.25808 0.51443 0.54228 0.0
C462 C 0.2948 0.49803 0.55551 0.0
C463 C 0.30255 0.44429 0.55898 0.0
C464 C 0.27209 0.40745 0.54918 0.0
C465 C 0.23525 0.4239 0.53607 0.0
C466 C 0.21923 0.52055 0.50256 0.0
C467 C 0.25498 0.49321 0.49129 0.0
C468 C 0.28673 0.51963 0.47853 0.0
C469 C 0.28269 0.57435 0.47631 0.0
C470 C 0.24467 0.60139 0.48694 0.0
C471 C 0.21391 0.57504 0.50011 0.0
C472 C 0.14106 0.507 0.52292 0.0
C473 C 0.13068 0.55015 0.53462 0.0
C474 C 0.07906 0.56269 0.53967 0.0
C475 C 0.03666 0.53157 0.53358 0.0
C476 C 0.04772 0.48754 0.52229 0.0
C477 C 0.09918 0.47581 0.51694 0.0
C478 C 0.79729 0.55349 0.56655 0.0
C479 C 0.76159 0.57569 0.57926 0.0
C480 C 0.73096 0.54386 0.59083 0.0
C481 C 0.73608 0.4891 0.59006 0.0
C482 C 0.77238 0.4668 0.57755 0.0
C483 C 0.80234 0.49854 0.5658 0.0
C484 C 0.78934 0.60256 0.53812 0.0
C485 C 0.76007 0.56526 0.52803 0.0
C486 C 0.72683 0.58098 0.51372 0.0
C487 C 0.7219 0.63428 0.50913 0.0
C488 C 0.75075 0.67163 0.51929 0.0
C489 C 0.7843 0.65578 0.53363 0.0
C490 C 0.87624 0.57228 0.54808 0.0
C491 C 0.91749 0.58315 0.56039 0.0
C492 C 0.96924 0.56951 0.55589 0.0
C493 C 0.98127 0.54513 0.53874 0.0
C494 C 0.93971 0.53399 0.52645 0.0
C495 C 0.88797 0.54662 0.53113 0.0
Fe496 Fe 0.02035 0.77393 0.17904 0.0
O497 O 0.06143 0.81055 0.15933 0.0
Fe498 Fe 0.89954 0.75287 0.15813 0.0
Fe499 Fe 0.13816 0.80805 0.15806 0.0
O500 O 0.97682 0.74827 0.15771 0.0
O501 O 0.97604 0.74942 0.15564 0.0
O502 O 0.06212 0.80962 0.15769 0.0
Fe503 Fe 0.01529 0.7906 0.1365 0.0
C504 C 0.10539 0.84627 0.19635 0.0
O505 O 0.06744 0.70872 0.17717 0.0
O506 O 0.14493 0.74827 0.17738 0.0
O507 O 0.96531 0.74917 0.11682 0.0
O508 O 0.90408 0.70526 0.13473 0.0
O509 O 0.90938 0.69442 0.17732 0.0
O510 O 0.97185 0.72947 0.19702 0.0
O511 O 0.14196 0.75326 0.13706 0.0
O512 O 0.0612 0.72772 0.12801 0.0
C513 C 0.93619 0.69475 0.19266 0.0
O514 O 0.95353 0.80757 0.11862 0.0
O515 O 0.89234 0.8175 0.14067 0.0
O516 O 0.07062 0.80927 0.19879 0.0
O517 O 0.13016 0.85622 0.1809 0.0
C518 C 0.11569 0.7095 0.18155 0.0
C519 C 0.11122 0.72271 0.12812 0.0
C520 C 0.10411 0.86444 0.12208 0.0
O521 O 0.13091 0.86464 0.13746 0.0
O522 O 0.06281 0.83576 0.11895 0.0
C523 C 0.9296 0.71214 0.11926 0.0
O524 O 0.89553 0.80386 0.18076 0.0
O525 O 0.9748 0.83927 0.18201 0.0
C526 C 0.9116 0.82991 0.12485 0.0
C527 C 0.92678 0.83929 0.18652 0.0
Fe528 Fe 0.51078 0.77466 0.43132 0.0
O529 O 0.54409 0.73366 0.41074 0.0
Fe530 Fe 0.48003 0.89256 0.40984 0.0
Fe531 Fe 0.54403 0.65692 0.40992 0.0
O532 O 0.47948 0.81569 0.41047 0.0
O533 O 0.47929 0.81547 0.40848 0.0
O534 O 0.5446 0.73389 0.40881 0.0
Fe535 Fe 0.51362 0.77493 0.38779 0.0
C536 C 0.58539 0.69103 0.44801 0.0
O537 O 0.44607 0.72707 0.43158 0.0
O538 O 0.48372 0.64844 0.42898 0.0
O539 O 0.47407 0.82529 0.36889 0.0
O540 O 0.42854 0.88246 0.38821 0.0
O541 O 0.42864 0.88389 0.4319 0.0
O542 O 0.47049 0.82292 0.45029 0.0
O543 O 0.49043 0.64856 0.38877 0.0
O544 O 0.44949 0.72525 0.38607 0.0
C545 C 0.43558 0.85935 0.44753 0.0
O546 O 0.57789 0.82456 0.38759 0.0
O547 O 0.53593 0.90087 0.3894 0.0
O548 O 0.5494 0.72659 0.4506 0.0
O549 O 0.59329 0.66617 0.43243 0.0
C550 C 0.44515 0.67759 0.43351 0.0
C551 C 0.4521 0.67602 0.38302 0.0
C552 C 0.59164 0.68923 0.37296 0.0
O553 O 0.59803 0.66715 0.38909 0.0
O554 O 0.55642 0.72525 0.36927 0.0
C555 C 0.43823 0.86118 0.37206 0.0
O556 O 0.53837 0.90082 0.42957 0.0
O557 O 0.57552 0.82207 0.43237 0.0
C558 C 0.57548 0.87371 0.38451 0.0
C559 C 0.57649 0.87155 0.43432 0.0
Fe560 Fe 0.5107 0.27766 0.6769 0.0
O561 O 0.55 0.24378 0.65607 0.0
Fe562 Fe 0.39434 0.31546 0.65678 0.0
Fe563 Fe 0.62685 0.24065 0.65617 0.0
O564 O 0.47125 0.31306 0.65658 0.0
O565 O 0.47127 0.31319 0.65472 0.0
O566 O 0.55021 0.24415 0.65422 0.0
Fe567 Fe 0.51133 0.28008 0.63371 0.0
C568 C 0.60947 0.33441 0.68244 0.0
O569 O 0.55618 0.23267 0.69565 0.0
O570 O 0.61175 0.18608 0.67626 0.0
O571 O 0.45972 0.2177 0.63214 0.0
O572 O 0.38243 0.25658 0.63765 0.0
O573 O 0.38531 0.26088 0.6782 0.0
O574 O 0.45946 0.21627 0.67688 0.0
O575 O 0.61751 0.19324 0.63301 0.0
O576 O 0.55989 0.23996 0.61454 0.0
C577 C 0.41231 0.22038 0.6822 0.0
O578 O 0.46329 0.32216 0.61515 0.0
O579 O 0.40326 0.36479 0.63413 0.0
O580 O 0.56212 0.33899 0.67747 0.0
O581 O 0.63604 0.29373 0.67816 0.0
C582 C 0.5866 0.19278 0.69182 0.0
C583 C 0.59576 0.2041 0.61711 0.0
C584 C 0.61345 0.34008 0.63229 0.0
O585 O 0.6393 0.30021 0.63765 0.0
O586 O 0.5635 0.34262 0.63351 0.0
C587 C 0.40974 0.21862 0.63135 0.0
O588 O 0.40903 0.36881 0.67755 0.0
O589 O 0.46519 0.32122 0.69626 0.0
C590 C 0.42616 0.3565 0.61817 0.0
C591 C 0.43447 0.36114 0.69296 0.0
Fe592 Fe 0.01405 0.28773 0.92765 0.0
O593 O 0.98012 0.24428 0.9079 0.0
Fe594 Fe 0.04776 0.40165 0.90462 0.0
Fe595 Fe 0.97986 0.16746 0.90834 0.0
O596 O 0.04623 0.32494 0.90605 0.0
O597 O 0.04586 0.32475 0.90407 0.0
O598 O 0.97958 0.24423 0.90604 0.0
Fe599 Fe 1.00932 0.28305 0.88426 0.0
C600 C 0.07781 0.19023 0.93187 0.0
O601 O 0.97386 0.24295 0.94777 0.0
O602 O 0.92978 0.1807 0.93037 0.0
O603 O 0.94592 0.33352 0.8842 0.0
O604 O 0.98886 0.40968 0.88527 0.0
O605 O 0.99302 0.41293 0.92562 0.0
O606 O 0.95044 0.33716 0.92768 0.0
O607 O 0.92626 0.17481 0.88737 0.0
O608 O 0.9656 0.23188 0.86664 0.0
C609 C 0.95284 0.38637 0.93038 0.0
O610 O 0.04708 0.33082 0.86426 0.0
O611 O 0.09615 0.3889 0.88198 0.0
O612 O 0.07789 0.23922 0.92886 0.0
O613 O 0.03898 0.16107 0.9278 0.0
C614 C 0.93697 0.2081 0.94543 0.0
C615 C 0.93167 0.19519 0.87093 0.0
C616 C 0.07186 0.18379 0.88093 0.0
O617 O 0.03487 0.15588 0.88756 0.0
O618 O 0.07278 0.23348 0.8826 0.0
C619 C 0.94883 0.38253 0.88082 0.0
O620 O 0.10172 0.39218 0.92575 0.0
O621 O 0.05595 0.33777 0.94558 0.0
C622 C 0.08378 0.36621 0.86633 0.0
C623 C 0.09414 0.37013 0.94184 0.0
C624 C 0.3543 0.85359 0.49186 0.0
C625 C 0.3318 0.90409 0.49236 0.0
H626 H 0.40568 0.80026 0.47759 0.0
C627 C 0.34557 0.93991 0.47829 0.0
H628 H 0.3444 0.82458 0.50227 0.0
C629 C 0.37928 0.92524 0.46384 0.0
C630 C 0.40127 0.87477 0.46328 0.0
H631 H 0.33071 0.97968 0.47842 0.0
H632 H 0.38854 0.9538 0.45318 0.0
C633 C 0.38917 0.83936 0.47761 0.0
C634 C 0.32297 0.14891 0.71627 0.0
C635 C 0.35803 0.11304 0.72437 0.0
H636 H 0.31247 0.21125 0.69659 0.0
C637 C 0.40946 0.11003 0.71743 0.0
H638 H 0.28312 0.15218 0.7214 0.0
C639 C 0.42612 0.14329 0.70318 0.0
C640 C 0.39192 0.18098 0.69561 0.0
H641 H 0.43718 0.08235 0.72324 0.0
H642 H 0.4665 0.1405 0.69856 0.0
C643 C 0.33984 0.1828 0.70211 0.0
C644 C 0.18024 0.16767 0.96886 0.0
C645 C 0.19826 0.11686 0.96438 0.0
H646 H 0.12876 0.23108 0.9618 0.0
C647 C 0.17926 0.09283 0.948 0.0
H648 H 0.19298 0.18748 0.98142 0.0
C649 C 0.14088 0.1172 0.93719 0.0
C650 C 0.12201 0.16698 0.94209 0.0
H651 H 0.19323 0.05466 0.9436 0.0
H652 H 0.12563 0.09696 0.92505 0.0
C653 C 0.14306 0.19271 0.95769 0.0
C654 C 0.12295 0.9679 0.22482 0.0
C655 C 0.16865 0.95521 0.23471 0.0
H656 H 0.06631 0.9419 0.20474 0.0
C657 C 0.18718 0.90323 0.23433 0.0
H658 H 0.10801 1.00768 0.22483 0.0
C659 C 0.16294 0.86565 0.22308 0.0
C660 C 0.1198 0.87953 0.21214 0.0
H661 H 0.22197 0.89231 0.24204 0.0
H662 H 0.18004 0.82685 0.22195 0.0
C663 C 0.09896 0.93033 0.21345 0.0
C664 C 0.37433 0.11589 0.59524 0.0
C665 C 0.32132 0.10638 0.59956 0.0
H666 H 0.44453 0.158 0.60224 0.0
C667 C 0.29931 0.13052 0.61535 0.0
H668 H 0.39239 0.09735 0.58323 0.0
C669 C 0.3289 0.16537 0.6261 0.0
C670 C 0.38141 0.17622 0.62147 0.0
H671 H 0.25856 0.12406 0.61898 0.0
H672 H 0.31026 0.18479 0.63783 0.0
C673 C 0.40428 0.15014 0.60621 0.0
C674 C 0.16687 0.15788 0.84135 0.0
C675 C 0.17772 0.10428 0.84368 0.0
H676 H 0.12591 0.2255 0.85162 0.0
C677 C 0.15689 0.07806 0.85921 0.0
H678 H 0.18278 0.17902 0.82955 0.0
C679 C 0.12379 0.10439 0.8717 0.0
C680 C 0.11181 0.15771 0.86912 0.0
H681 H 0.16461 0.03671 0.86129 0.0
H682 H 0.1068 0.08277 0.8832 0.0
C683 C 0.13469 0.18451 0.85406 0.0
C684 C 0.19089 0.95731 0.09488 0.0
C685 C 0.18525 0.93768 0.0767 0.0
H686 H 0.16921 0.94971 0.1236 0.0
C687 C 0.14785 0.89838 0.07325 0.0
H688 H 0.21949 0.98757 0.0979 0.0
C689 C 0.11847 0.87722 0.08788 0.0
C690 C 0.12661 0.89432 0.1063 0.0
H691 H 0.1424 0.88299 0.0593 0.0
H692 H 0.09166 0.84535 0.08488 0.0
C693 C 0.16215 0.93556 0.10958 0.0
C694 C 0.34552 0.95003 0.34651 0.0
C695 C 0.36993 0.95494 0.32903 0.0
H696 H 0.34644 0.9148 0.37336 0.0
C697 C 0.41316 0.92232 0.32491 0.0
H698 H 0.31254 0.97451 0.35037 0.0
C699 C 0.43345 0.88824 0.33841 0.0
C700 C 0.41069 0.88603 0.35623 0.0
H701 H 0.43219 0.92402 0.31142 0.0
H702 H 0.46853 0.86597 0.33522 0.0
C703 C 0.36528 0.91576 0.35981 0.0
C704 C 0.65063 0.18129 0.5687 0.0
C705 C 0.68085 0.13576 0.57146 0.0
H706 H 0.5988 0.23818 0.5809 0.0
C707 C 0.67714 0.10956 0.58859 0.0
H708 H 0.652 0.20187 0.55553 0.0
C709 C 0.64653 0.13009 0.60302 0.0
C710 C 0.61868 0.17724 0.60066 0.0
H711 H 0.69999 0.07456 0.59121 0.0
H712 H 0.64645 0.11008 0.61631 0.0
C713 C 0.61962 0.20171 0.58314 0.0
C714 C 0.64694 0.98001 0.35794 0.0
C715 C 0.68501 0.95161 0.34802 0.0
H716 H 0.58388 0.97817 0.37743 0.0
C717 C 0.68999 0.89742 0.35133 0.0
H718 H 0.64284 0.02193 0.35598 0.0
C719 C 0.6558 0.87186 0.36371 0.0
C720 C 0.61634 0.90019 0.3731 0.0
H721 H 0.71908 0.87454 0.34387 0.0
H722 H 0.65925 0.82982 0.36547 0.0
C723 C 0.61328 0.95477 0.37034 0.0
C724 C 0.80305 0.91958 0.1083 0.0
C725 C 0.82065 0.93426 0.09051 0.0
H726 H 0.81766 0.8757 0.13296 0.0
C727 C 0.86855 0.91375 0.08391 0.0
H728 H 0.76596 0.93378 0.1137 0.0
C729 C 0.89828 0.87969 0.09495 0.0
C730 C 0.88071 0.86552 0.11282 0.0
H731 H 0.8835 0.92467 0.07033 0.0
H732 H 0.93508 0.86478 0.08954 0.0
C733 C 0.83269 0.88586 0.11931 0.0
C734 C 0.83971 0.09801 0.84864 0.0
C735 C 0.85221 0.10159 0.82962 0.0
H736 H 0.85198 0.1261 0.87609 0.0
C737 C 0.88704 0.1417 0.82394 0.0
H738 H 0.81419 0.06761 0.85393 0.0
C739 C 0.91113 0.17476 0.83711 0.0
C740 C 0.90009 0.16902 0.85618 0.0
H741 H 0.8967 0.14705 0.80938 0.0
H742 H 0.93975 0.20323 0.83243 0.0
C743 C 0.86234 0.13166 0.86158 0.0
C744 C 0.68226 0.89807 0.46988 0.0
C745 C 0.70143 0.94738 0.46416 0.0
H746 H 0.62842 0.83508 0.46467 0.0
C747 C 0.68153 0.96909 0.44756 0.0
H748 H 0.69554 0.88011 0.48267 0.0
C749 C 0.64147 0.94401 0.4377 0.0
C750 C 0.62165 0.89575 0.4438 0.0
H751 H 0.69619 1.00597 0.44225 0.0
H752 H 0.6258 0.96246 0.42531 0.0
C753 C 0.64335 0.87225 0.45965 0.0
C754 C 0.83975 0.92743 0.21616 0.0
C755 C 0.8752 0.94532 0.22986 0.0
H756 H 0.82799 0.8796 0.19179 0.0
C757 C 0.92795 0.92929 0.2285 0.0
H758 H 0.79907 0.93952 0.21639 0.0
C759 C 0.94461 0.89641 0.21407 0.0
C760 C 0.90893 0.87753 0.20076 0.0
H761 H 0.95646 0.94067 0.2389 0.0
H762 H 0.98527 0.88412 0.21377 0.0
C763 C 0.85631 0.89339 0.20192 0.0
C764 C 0.81394 0.16699 0.97062 0.0
C765 C 0.8299 0.16735 0.98933 0.0
H766 H 0.83522 0.1798 0.94222 0.0
C767 C 0.8805 0.18589 0.99371 0.0
H768 H 0.77483 0.15448 0.96677 0.0
C769 C 0.91506 0.20146 0.97954 0.0
C770 C 0.89974 0.19805 0.9608 0.0
H771 H 0.89416 0.18645 0.00798 0.0
H772 H 0.95435 0.21388 0.98319 0.0
C773 C 0.84851 0.18178 0.95654 0.0
C774 C 0.62442 0.06302 0.7122 0.0
C775 C 0.63502 0.07652 0.73075 0.0
H776 H 0.59959 0.0894 0.68546 0.0
C777 C 0.62141 0.12695 0.73724 0.0
H778 H 0.63342 0.02415 0.70694 0.0
C779 C 0.60166 0.16457 0.72489 0.0
C780 C 0.59563 0.15205 0.70596 0.0
H781 H 0.62923 0.13832 0.75153 0.0
H782 H 0.59465 0.20414 0.72985 0.0
C783 C 0.60498 0.10037 0.69994 0.0
C784 C 0.87667 0.49063 0.95674 0.0
C785 C 0.83193 0.46308 0.96273 0.0
H786 H 0.94918 0.48851 0.94183 0.0
C787 C 0.82634 0.41022 0.95736 0.0
H788 H 0.88307 0.531 0.96088 0.0
C789 C 0.86498 0.38541 0.94656 0.0
C790 C 0.91003 0.41296 0.94083 0.0
H791 H 0.79217 0.3879 0.96153 0.0
H792 H 0.85978 0.34449 0.94289 0.0
C793 C 0.91499 0.46603 0.94588 0.0
C794 C 0.90541 0.62112 0.2372 0.0
C795 C 0.88266 0.57506 0.22991 0.0
H796 H 0.94076 0.69574 0.23106 0.0
C797 C 0.88404 0.56645 0.21061 0.0
H798 H 0.90482 0.62879 0.25206 0.0
C799 C 0.90412 0.60453 0.19874 0.0
C800 C 0.92351 0.65219 0.20584 0.0
H801 H 0.86798 0.53085 0.20462 0.0
H802 H 0.9029 0.59724 0.18386 0.0
C803 C 0.92589 0.65945 0.22523 0.0
C804 C 0.68787 0.62117 0.47684 0.0
C805 C 0.68748 0.65019 0.49349 0.0
H806 H 0.65624 0.61097 0.44962 0.0
C807 C 0.65352 0.69342 0.49512 0.0
H808 H 0.71416 0.58814 0.47505 0.0
C809 C 0.62001 0.70678 0.48044 0.0
C810 C 0.62014 0.67733 0.46381 0.0
H811 H 0.6522 0.71633 0.50786 0.0
H812 H 0.59415 0.74018 0.48212 0.0
C813 C 0.65472 0.63453 0.4622 0.0
C814 C 0.69153 0.39699 0.72062 0.0
C815 C 0.6623 0.44244 0.72478 0.0
H816 H 0.69825 0.32744 0.7039 0.0
C817 C 0.61848 0.45418 0.71368 0.0
H818 H 0.72523 0.38638 0.72895 0.0
C819 C 0.60279 0.42017 0.69944 0.0
C820 C 0.63068 0.37361 0.69579 0.0
H821 H 0.59568 0.48935 0.71617 0.0
H822 H 0.56791 0.42985 0.69157 0.0
C823 C 0.67599 0.36304 0.70626 0.0
C824 C 0.84758 0.619 0.09052 0.0
C825 C 0.84721 0.64369 0.07304 0.0
H826 H 0.87485 0.6206 0.11865 0.0
C827 C 0.87963 0.68774 0.0703 0.0
H828 H 0.82294 0.58525 0.0932 0.0
C829 C 0.90962 0.70814 0.08498 0.0
C830 C 0.90745 0.68509 0.10274 0.0
H831 H 0.88093 0.70718 0.05691 0.0
H832 H 0.93223 0.74351 0.08266 0.0
C833 C 0.87728 0.63943 0.10516 0.0
C834 C 0.68995 0.6011 0.3494 0.0
C835 C 0.67251 0.6002 0.33084 0.0
H836 H 0.68036 0.63175 0.37675 0.0
C837 C 0.63232 0.63542 0.32566 0.0
H838 H 0.72002 0.57458 0.35425 0.0
C839 C 0.60784 0.66766 0.33901 0.0
C840 C 0.62358 0.66579 0.35774 0.0
H841 H 0.61869 0.63721 0.31141 0.0
H842 H 0.57504 0.6919 0.33484 0.0
C843 C 0.6665 0.63387 0.3625 0.0
C844 C 0.64924 0.46014 0.60343 0.0
C845 C 0.70411 0.45478 0.60227 0.0
H846 H 0.57695 0.42792 0.6138 0.0
C847 C 0.7286 0.41456 0.61224 0.0
H848 H 0.62943 0.49093 0.59582 0.0
C849 C 0.69898 0.37914 0.62258 0.0
C850 C 0.64382 0.3825 0.62309 0.0
H851 H 0.77084 0.41004 0.61185 0.0
H852 H 0.71961 0.34814 0.62979 0.0
C853 C 0.61925 0.42412 0.6137 0.0
C854 C 0.8341 0.40435 0.84788 0.0
C855 C 0.83952 0.45813 0.84392 0.0
H856 H 0.86435 0.33787 0.8627 0.0
C857 C 0.87788 0.48714 0.85341 0.0
H858 H 0.80482 0.381 0.84076 0.0
C859 C 0.91146 0.46278 0.866 0.0
C860 C 0.90793 0.40853 0.86939 0.0
H861 H 0.88231 0.52882 0.85096 0.0
H862 H 0.94121 0.48652 0.87272 0.0
C863 C 0.86813 0.3797 0.86046 0.0
C864 C 0.14716 0.63159 0.08818 0.0
C865 C 0.19627 0.61266 0.09413 0.0
H866 H 0.08066 0.68055 0.0945 0.0
C867 C 0.21407 0.62636 0.11199 0.0
H868 H 0.13216 0.62119 0.07455 0.0
C869 C 0.18483 0.66009 0.12328 0.0
C870 C 0.13678 0.68071 0.1171 0.0
H871 H 0.25176 0.6128 0.11697 0.0
H872 H 0.20065 0.67127 0.13673 0.0
C873 C 0.11742 0.66504 0.09964 0.0
C874 C 0.09792 0.43861 0.82102 0.0
C875 C 0.14975 0.4574 0.82242 0.0
H876 H 0.03662 0.39337 0.83376 0.0
C877 C 0.18166 0.43836 0.83687 0.0
H878 H 0.07207 0.45249 0.81016 0.0
C879 C 0.16111 0.40502 0.85042 0.0
C880 C 0.10853 0.389 0.84965 0.0
H881 H 0.22221 0.45049 0.83807 0.0
H882 H 0.18575 0.39357 0.86201 0.0
C883 C 0.0776 0.40443 0.83447 0.0
C884 C 0.34279 0.45112 0.59073 0.0
C885 C 0.34075 0.42641 0.57323 0.0
H886 H 0.37221 0.44889 0.61858 0.0
C887 C 0.3729 0.38244 0.56993 0.0
H888 H 0.31847 0.48496 0.59373 0.0
C889 C 0.40405 0.3618 0.58418 0.0
C890 C 0.4032 0.38444 0.60206 0.0
H891 H 0.3728 0.36307 0.55647 0.0
H892 H 0.4263 0.32638 0.58147 0.0
C893 C 0.37352 0.43029 0.60499 0.0
C894 C 0.38626 0.57091 0.35391 0.0
C895 C 0.34715 0.599 0.34454 0.0
H896 H 0.44872 0.57257 0.37352 0.0
C897 C 0.33975 0.65235 0.34894 0.0
H898 H 0.39228 0.52958 0.35107 0.0
C899 C 0.37261 0.67757 0.36188 0.0
C900 C 0.41299 0.64964 0.37079 0.0
H901 H 0.3098 0.67494 0.34191 0.0
H902 H 0.36723 0.71908 0.36452 0.0
C903 C 0.41849 0.59572 0.36689 0.0
C904 C 0.15285 0.38961 0.98994 0.0
C905 C 0.2013 0.41329 0.98568 0.0
H906 H 0.08111 0.35726 0.97951 0.0
C907 C 0.21463 0.42097 0.96687 0.0
H908 H 0.14086 0.38372 0.00426 0.0
C909 C 0.17996 0.40667 0.95271 0.0
C910 C 0.13124 0.38375 0.95697 0.0
H911 H 0.252 0.438 0.96302 0.0
H912 H 0.19153 0.4135 0.93839 0.0
C913 C 0.11836 0.37472 0.97574 0.0
C914 C 0.40604 0.49259 0.71403 0.0
C915 C 0.3857 0.47875 0.73152 0.0
H916 H 0.43819 0.46557 0.68819 0.0
C917 C 0.39065 0.42646 0.73758 0.0
H918 H 0.40379 0.53269 0.70914 0.0
C919 C 0.41107 0.3879 0.72559 0.0
C920 C 0.42638 0.40135 0.70744 0.0
H921 H 0.37517 0.41464 0.75099 0.0
H922 H 0.41097 0.34727 0.72996 0.0
C923 C 0.42588 0.45425 0.70208 0.0
C924 C 0.33669 0.65443 0.46846 0.0
C925 C 0.3203 0.60311 0.46397 0.0
H926 H 0.38814 0.71832 0.46209 0.0
C927 C 0.34295 0.57844 0.44826 0.0
H928 H 0.32135 0.67477 0.48056 0.0
C929 C 0.38287 0.603 0.43813 0.0
C930 C 0.39988 0.65347 0.44304 0.0
H931 H 0.33056 0.53974 0.44389 0.0
H932 H 0.40067 0.58239 0.42649 0.0
C933 C 0.37544 0.6795 0.45796 0.0
C934 C 0.12165 0.59266 0.21421 0.0
C935 C 0.16859 0.60241 0.22396 0.0
H936 H 0.06817 0.61837 0.19311 0.0
C937 C 0.19989 0.64501 0.21835 0.0
H938 H 0.09696 0.55965 0.21781 0.0
C939 C 0.18397 0.67787 0.20389 0.0
C940 C 0.13591 0.66961 0.19476 0.0
H941 H 0.23581 0.65454 0.22562 0.0
H942 H 0.20843 0.71124 0.20048 0.0
C943 C 0.10536 0.62602 0.19987 0.0
loop_
_geom_bond_atom_site_label_1
_geom_bond_atom_site_label_2
_geom_bond_distance
_geom_bond_site_symmetry_2
_ccdc_geom_bond_type
H0 C27 0.929 1_565 S
N1 C26 1.445 . S
N1 C32 1.428 1_545 S
N1 C38 1.420 1_545 S
H2 C28 0.930 . S
H3 C31 0.931 . S
H4 C30 0.929 . S
H5 C33 0.930 . S
H6 C34 0.932 1_545 S
H7 C37 0.929 . S
H8 C36 0.931 . S
H9 C39 0.929 . S
H10 C43 0.932 . S
H11 C40 0.931 . S
H12 C42 0.929 . S
H13 C45 0.929 1_565 S
H14 C46 0.930 . S
H15 C48 0.929 . S
H16 C49 0.931 . S
H17 C51 0.930 . S
H18 C52 0.932 1_545 S
H19 C54 0.931 . S
H20 C55 0.929 . S
H21 C57 0.929 . S
H22 C58 0.931 . S
H23 C60 0.929 . S
N24 C44 1.445 . S
N24 C50 1.428 1_545 S
N24 C56 1.420 1_545 S
H25 C61 0.932 . S
C26 N1 1.445 . S
C26 C27 1.363 . S
C26 C31 1.370 . S
C27 H0 0.929 1_545 S
C27 C26 1.363 . S
C27 C28 1.385 . S
C28 H2 0.930 . S
C28 C27 1.385 . S
C28 C29 1.357 . S
C29 C28 1.357 . S
C29 C30 1.406 . S
C30 H4 0.929 . S
C30 C29 1.406 . S
C30 C31 1.391 . S
C31 H3 0.931 . S
C31 C26 1.370 . S
C31 C30 1.391 . S
C32 N1 1.428 1_565 S
C32 C33 1.358 1_565 S
C32 C37 1.371 . S
C33 H5 0.930 . S
C33 C32 1.358 1_545 S
C33 C34 1.405 1_545 S
C34 H6 0.932 1_565 S
C34 C33 1.405 1_565 S
C34 C35 1.383 . S
C35 C34 1.383 . S
C35 C36 1.393 . S
C36 H8 0.931 . S
C36 C35 1.393 . S
C36 C37 1.382 . S
C37 H7 0.929 . S
C37 C32 1.371 . S
C37 C36 1.382 . S
C38 N1 1.420 1_565 S
C38 C39 1.362 . S
C38 C43 1.388 . S
C39 H9 0.929 . S
C39 C38 1.362 . S
C39 C40 1.376 . S
C40 H11 0.931 . S
C40 C39 1.376 . S
C40 C41 1.396 . S
C41 C40 1.396 . S
C41 C42 1.348 . S
C41 C59 1.472 1_655 S
C42 H12 0.929 . S
C42 C41 1.348 . S
C42 C43 1.443 . S
C43 H10 0.932 . S
C43 C38 1.388 . S
C43 C42 1.443 . S
C44 N24 1.445 . S
C44 C45 1.363 . S
C44 C49 1.370 . S
C45 H13 0.929 1_545 S
C45 C44 1.363 . S
C45 C46 1.385 . S
C46 H14 0.930 . S
C46 C45 1.385 . S
C46 C47 1.357 . S
C47 C46 1.357 . S
C47 C48 1.406 . S
C48 H15 0.929 . S
C48 C47 1.406 . S
C48 C49 1.391 . S
C49 H16 0.931 . S
C49 C44 1.370 . S
C49 C48 1.391 . S
C50 N24 1.428 1_565 S
C50 C51 1.358 1_565 S
C50 C55 1.371 . S
C51 H17 0.930 . S
C51 C50 1.358 1_545 S
C51 C52 1.405 1_545 S
C52 H18 0.932 1_565 S
C52 C51 1.405 1_565 S
C52 C53 1.383 . S
C53 C52 1.383 . S
C53 C54 1.393 . S
C54 H19 0.931 . S
C54 C53 1.393 . S
C54 C55 1.382 . S
C55 H20 0.929 . S
C55 C50 1.371 . S
C55 C54 1.382 . S
C56 N24 1.420 1_565 S
C56 C57 1.362 . S
C56 C61 1.388 . S
C57 H21 0.929 . S
C57 C56 1.362 . S
C57 C58 1.376 . S
C58 H22 0.931 . S
C58 C57 1.376 . S
C58 C59 1.396 . S
C59 C41 1.472 1_455 S
C59 C58 1.396 . S
C59 C60 1.348 . S
C60 H23 0.929 . S
C60 C59 1.348 . S
C60 C61 1.443 . S
C61 H25 0.932 . S
C61 C56 1.388 . S
C61 C60 1.443 . S
H62 C89 0.929 . S
N63 C88 1.433 . S
N63 C94 1.435 . S
N63 C100 1.423 . S
H64 C90 0.930 . S
H65 C93 0.931 . S
H66 C92 0.929 . S
H67 C95 0.930 . S
H68 C96 0.932 . S
H69 C99 0.929 . S
H70 C98 0.931 . S
H71 C101 0.929 . S
H72 C105 0.932 . S
H73 C102 0.931 . S
H74 C104 0.929 . S
H75 C107 0.929 . S
H76 C108 0.930 . S
H77 C110 0.929 . S
H78 C111 0.931 . S
H79 C113 0.930 . S
H80 C114 0.932 . S
H81 C116 0.931 . S
H82 C117 0.929 . S
H83 C119 0.929 . S
H84 C120 0.931 . S
H85 C122 0.929 . S
N86 C106 1.433 . S
N86 C112 1.435 . S
N86 C118 1.423 . S
H87 C123 0.932 . S
C88 N63 1.433 . S
C88 C89 1.363 . S
C88 C93 1.370 . S
C89 H62 0.929 . S
C89 C88 1.363 . S
C89 C90 1.385 . S
C90 H64 0.930 . S
C90 C89 1.385 . S
C90 C91 1.357 . S
C91 C90 1.357 . S
C91 C92 1.406 . S
C92 H66 0.929 . S
C92 C91 1.406 . S
C92 C93 1.391 . S
C93 H65 0.931 . S
C93 C88 1.370 . S
C93 C92 1.391 . S
C94 N63 1.435 . S
C94 C95 1.358 . S
C94 C99 1.371 . S
C95 H67 0.930 . S
C95 C94 1.358 . S
C95 C96 1.405 . S
C96 H68 0.932 . S
C96 C95 1.405 . S
C96 C97 1.383 . S
C97 C96 1.383 . S
C97 C98 1.393 . S
C98 H70 0.931 . S
C98 C97 1.393 . S
C98 C99 1.382 . S
C99 H69 0.929 . S
C99 C94 1.371 . S
C99 C98 1.382 . S
C100 N63 1.423 . S
C100 C101 1.362 . S
C100 C105 1.388 . S
C101 H71 0.929 . S
C101 C100 1.362 . S
C101 C102 1.376 . S
C102 H73 0.931 . S
C102 C101 1.376 . S
C102 C103 1.396 . S
C103 C102 1.396 . S
C103 C104 1.348 . S
C103 C121 1.472 . S
C104 H74 0.929 . S
C104 C103 1.348 . S
C104 C105 1.443 . S
C105 H72 0.932 . S
C105 C100 1.388 . S
C105 C104 1.443 . S
C106 N86 1.433 . S
C106 C107 1.363 1_565 S
C106 C111 1.370 . S
C107 H75 0.929 . S
C107 C106 1.363 1_545 S
C107 C108 1.385 . S
C108 H76 0.930 . S
C108 C107 1.385 . S
C108 C109 1.357 . S
C109 C108 1.357 . S
C109 C110 1.406 1_545 S
C110 H77 0.929 . S
C110 C109 1.406 1_565 S
C110 C111 1.391 . S
C111 H78 0.931 . S
C111 C106 1.370 . S
C111 C110 1.391 . S
C112 N86 1.435 . S
C112 C113 1.358 1_565 S
C112 C117 1.371 . S
C113 H79 0.930 . S
C113 C112 1.358 1_545 S
C113 C114 1.405 . S
C114 H80 0.932 . S
C114 C113 1.405 . S
C114 C115 1.383 . S
C115 C114 1.383 . S
C115 C116 1.393 . S
C116 H81 0.931 . S
C116 C115 1.393 . S
C116 C117 1.382 1_545 S
C117 H82 0.929 . S
C117 C112 1.371 . S
C117 C116 1.382 1_565 S
C118 N86 1.423 . S
C118 C119 1.362 . S
C118 C123 1.388 . S
C119 H83 0.929 . S
C119 C118 1.362 . S
C119 C120 1.376 . S
C120 H84 0.931 . S
C120 C119 1.376 . S
C120 C121 1.396 . S
C121 C103 1.472 . S
C121 C120 1.396 . S
C121 C122 1.348 . S
C122 H85 0.929 . S
C122 C121 1.348 . S
C122 C123 1.443 . S
C123 H87 0.932 . S
C123 C118 1.388 . S
C123 C122 1.443 . S
H124 C151 0.929 . S
N125 C150 1.424 1_545 S
N125 C156 1.435 . S
N125 C162 1.423 . S
H126 C152 0.930 . S
H127 C155 0.931 . S
H128 C154 0.929 . S
H129 C157 0.930 1_565 S
H130 C158 0.932 . S
H131 C161 0.929 . S
H132 C160 0.931 . S
H133 C163 0.929 . S
H134 C167 0.932 . S
H135 C164 0.931 . S
H136 C166 0.929 . S
H137 C169 0.929 . S
H138 C170 0.930 . S
H139 C172 0.929 . S
H140 C173 0.931 . S
H141 C175 0.930 1_565 S
H142 C176 0.932 . S
H143 C178 0.931 . S
H144 C179 0.929 . S
H145 C181 0.929 . S
H146 C182 0.931 . S
H147 C184 0.929 . S
N148 C168 1.424 1_545 S
N148 C174 1.435 . S
N148 C180 1.423 . S
H149 C185 0.932 . S
C150 N125 1.424 1_565 S
C150 C151 1.361 1_565 S
C150 C155 1.381 . S
C151 H124 0.929 . S
C151 C150 1.361 1_545 S
C151 C152 1.385 1_545 S
C152 H126 0.930 . S
C152 C151 1.385 1_565 S
C152 C153 1.357 . S
C153 C152 1.357 . S
C153 C154 1.406 . S
C154 H128 0.929 . S
C154 C153 1.406 . S
C154 C155 1.391 . S
C155 H127 0.931 . S
C155 C150 1.381 . S
C155 C154 1.391 . S
C156 N125 1.435 . S
C156 C157 1.358 . S
C156 C161 1.371 . S
C157 H129 0.930 1_545 S
C157 C156 1.358 . S
C157 C158 1.405 . S
C158 H130 0.932 . S
C158 C157 1.405 . S
C158 C159 1.383 1_554 S
C159 C158 1.383 1_556 S
C159 C160 1.393 1_556 S
C160 H132 0.931 . S
C160 C159 1.393 1_554 S
C160 C161 1.382 . S
C161 H131 0.929 . S
C161 C156 1.371 . S
C161 C160 1.382 . S
C162 N125 1.423 . S
C162 C163 1.362 . S
C162 C167 1.388 . S
C163 H133 0.929 . S
C163 C162 1.362 . S
C163 C164 1.376 . S
C164 H135 0.931 . S
C164 C163 1.376 . S
C164 C165 1.396 . S
C165 C164 1.396 . S
C165 C166 1.348 . S
C165 C183 1.472 . S
C166 H136 0.929 . S
C166 C165 1.348 . S
C166 C167 1.443 . S
C167 H134 0.932 . S
C167 C162 1.388 . S
C167 C166 1.443 . S
C168 N148 1.424 1_565 S
C168 C169 1.361 1_565 S
C168 C173 1.381 . S
C169 H137 0.929 . S
C169 C168 1.361 1_545 S
C169 C170 1.385 1_545 S
C170 H138 0.930 . S
C170 C169 1.385 1_565 S
C170 C171 1.357 . S
C171 C170 1.357 . S
C171 C172 1.406 . S
C172 H139 0.929 . S
C172 C171 1.406 . S
C172 C173 1.391 . S
C173 H140 0.931 . S
C173 C168 1.381 . S
C173 C172 1.391 . S
C174 N148 1.435 . S
C174 C175 1.358 . S
C174 C179 1.371 . S
C175 H141 0.930 1_545 S
C175 C174 1.358 . S
C175 C176 1.405 . S
C176 H142 0.932 . S
C176 C175 1.405 . S
C176 C177 1.383 1_554 S
C177 C176 1.383 1_556 S
C177 C178 1.393 1_556 S
C178 H143 0.931 . S
C178 C177 1.393 1_554 S
C178 C179 1.382 . S
C179 H144 0.929 . S
C179 C174 1.371 . S
C179 C178 1.382 . S
C180 N148 1.423 . S
C180 C181 1.362 . S
C180 C185 1.388 . S
C181 H145 0.929 . S
C181 C180 1.362 . S
C181 C182 1.376 . S
C182 H146 0.931 . S
C182 C181 1.376 . S
C182 C183 1.396 . S
C183 C165 1.472 . S
C183 C182 1.396 . S
C183 C184 1.348 . S
C184 H147 0.929 . S
C184 C183 1.348 . S
C184 C185 1.443 . S
C185 H149 0.932 . S
C185 C180 1.388 . S
C185 C184 1.443 . S
H186 C213 0.929 . S
N187 C212 1.433 . S
N187 C218 1.435 . S
N187 C224 1.423 . S
H188 C214 0.930 . S
H189 C217 0.931 . S
H190 C216 0.929 . S
H191 C219 0.930 . S
H192 C220 0.932 . S
H193 C223 0.929 . S
H194 C222 0.931 . S
H195 C225 0.929 . S
H196 C229 0.932 . S
H197 C226 0.931 . S
H198 C228 0.929 . S
H199 C231 0.929 1_565 S
H200 C232 0.930 . S
H201 C234 0.929 . S
H202 C235 0.931 . S
H203 C237 0.930 . S
H204 C238 0.932 . S
H205 C240 0.931 . S
H206 C241 0.929 . S
H207 C243 0.929 . S
H208 C244 0.931 . S
H209 C246 0.929 . S
N210 C230 1.433 . S
N210 C236 1.435 . S
N210 C242 1.423 . S
H211 C247 0.932 . S
C212 N187 1.433 . S
C212 C213 1.363 . S
C212 C217 1.370 . S
C213 H186 0.929 . S
C213 C212 1.363 . S
C213 C214 1.385 . S
C214 H188 0.930 . S
C214 C213 1.385 . S
C214 C215 1.357 . S
C215 C214 1.357 . S
C215 C216 1.406 . S
C216 H190 0.929 . S
C216 C215 1.406 . S
C216 C217 1.391 . S
C217 H189 0.931 . S
C217 C212 1.370 . S
C217 C216 1.391 . S
C218 N187 1.435 . S
C218 C219 1.358 . S
C218 C223 1.371 . S
C219 H191 0.930 . S
C219 C218 1.358 . S
C219 C220 1.405 . S
C220 H192 0.932 . S
C220 C219 1.405 . S
C220 C221 1.383 . S
C221 C220 1.383 . S
C221 C222 1.393 . S
C222 H194 0.931 . S
C222 C221 1.393 . S
C222 C223 1.382 . S
C223 H193 0.929 . S
C223 C218 1.371 . S
C223 C222 1.382 . S
C224 N187 1.423 . S
C224 C225 1.362 . S
C224 C229 1.388 . S
C225 H195 0.929 . S
C225 C224 1.362 . S
C225 C226 1.376 . S
C226 H197 0.931 . S
C226 C225 1.376 . S
C226 C227 1.396 . S
C227 C226 1.396 . S
C227 C228 1.348 . S
C227 C245 1.472 . S
C228 H198 0.929 . S
C228 C227 1.348 . S
C228 C229 1.443 . S
C229 H196 0.932 . S
C229 C224 1.388 . S
C229 C228 1.443 . S
C230 N210 1.433 . S
C230 C231 1.363 . S
C230 C235 1.370 . S
C231 H199 0.929 1_545 S
C231 C230 1.363 . S
C231 C232 1.385 1_545 S
C232 H200 0.930 . S
C232 C231 1.385 1_565 S
C232 C233 1.357 1_565 S
C233 C232 1.357 1_545 S
C233 C234 1.406 . S
C234 H201 0.929 . S
C234 C233 1.406 . S
C234 C235 1.391 . S
C235 H202 0.931 . S
C235 C230 1.370 . S
C235 C234 1.391 . S
C236 N210 1.435 . S
C236 C237 1.358 . S
C236 C241 1.371 . S
C237 H203 0.930 . S
C237 C236 1.358 . S
C237 C238 1.405 1_545 S
C238 H204 0.932 . S
C238 C237 1.405 1_565 S
C238 C239 1.383 . S
C239 C238 1.383 . S
C239 C240 1.393 1_565 S
C240 H205 0.931 . S
C240 C239 1.393 1_545 S
C240 C241 1.382 . S
C241 H206 0.929 . S
C241 C236 1.371 . S
C241 C240 1.382 . S
C242 N210 1.423 . S
C242 C243 1.362 . S
C242 C247 1.388 . S
C243 H207 0.929 . S
C243 C242 1.362 . S
C243 C244 1.376 . S
C244 H208 0.931 . S
C244 C243 1.376 . S
C244 C245 1.396 . S
C245 C227 1.472 . S
C245 C244 1.396 . S
C245 C246 1.348 . S
C246 H209 0.929 . S
C246 C245 1.348 . S
C246 C247 1.443 . S
C247 H211 0.932 . S
C247 C242 1.388 . S
C247 C246 1.443 . S
H248 C275 0.929 1_565 S
N249 C274 1.433 . S
N249 C280 1.435 . S
N249 C286 1.423 . S
H250 C276 0.930 . S
H251 C279 0.931 . S
H252 C278 0.929 . S
H253 C281 0.930 . S
H254 C282 0.932 . S
H255 C285 0.929 . S
H256 C284 0.931 . S
H257 C287 0.929 . S
H258 C291 0.932 . S
H259 C288 0.931 . S
H260 C290 0.929 . S
H261 C293 0.929 . S
H262 C294 0.930 . S
H263 C296 0.929 . S
H264 C297 0.931 . S
H265 C299 0.930 . S
H266 C300 0.932 . S
H267 C302 0.931 . S
H268 C303 0.929 . S
H269 C305 0.929 . S
H270 C306 0.931 . S
H271 C308 0.929 . S
N272 C292 1.433 . S
N272 C298 1.435 . S
N272 C304 1.423 . S
H273 C309 0.932 . S
C274 N249 1.433 . S
C274 C275 1.363 . S
C274 C279 1.370 . S
C275 H248 0.929 1_545 S
C275 C274 1.363 . S
C275 C276 1.385 1_545 S
C276 H250 0.930 . S
C276 C275 1.385 1_565 S
C276 C277 1.357 1_565 S
C277 C276 1.357 1_545 S
C277 C278 1.406 . S
C278 H252 0.929 . S
C278 C277 1.406 . S
C278 C279 1.391 . S
C279 H251 0.931 . S
C279 C274 1.370 . S
C279 C278 1.391 . S
C280 N249 1.435 . S
C280 C281 1.358 . S
C280 C285 1.371 . S
C281 H253 0.930 . S
C281 C280 1.358 . S
C281 C282 1.405 1_545 S
C282 H254 0.932 . S
C282 C281 1.405 1_565 S
C282 C283 1.383 . S
C283 C282 1.383 . S
C283 C284 1.393 1_565 S
C284 H256 0.931 . S
C284 C283 1.393 1_545 S
C284 C285 1.382 . S
C285 H255 0.929 . S
C285 C280 1.371 . S
C285 C284 1.382 . S
C286 N249 1.423 . S
C286 C287 1.362 . S
C286 C291 1.388 . S
C287 H257 0.929 . S
C287 C286 1.362 . S
C287 C288 1.376 . S
C288 H259 0.931 . S
C288 C287 1.376 . S
C288 C289 1.396 . S
C289 C288 1.396 . S
C289 C290 1.348 . S
C289 C307 1.472 . S
C290 H260 0.929 . S
C290 C289 1.348 . S
C290 C291 1.443 . S
C291 H258 0.932 . S
C291 C286 1.388 . S
C291 C290 1.443 . S
C292 N272 1.433 . S
C292 C293 1.363 . S
C292 C297 1.370 . S
C293 H261 0.929 . S
C293 C292 1.363 . S
C293 C294 1.385 . S
C294 H262 0.930 . S
C294 C293 1.385 . S
C294 C295 1.357 . S
C295 C294 1.357 . S
C295 C296 1.406 . S
C296 H263 0.929 . S
C296 C295 1.406 . S
C296 C297 1.391 . S
C297 H264 0.931 . S
C297 C292 1.370 . S
C297 C296 1.391 . S
C298 N272 1.435 . S
C298 C299 1.358 . S
C298 C303 1.371 . S
C299 H265 0.930 . S
C299 C298 1.358 . S
C299 C300 1.405 . S
C300 H266 0.932 . S
C300 C299 1.405 . S
C300 C301 1.383 . S
C301 C300 1.383 . S
C301 C302 1.393 . S
C302 H267 0.931 . S
C302 C301 1.393 . S
C302 C303 1.382 . S
C303 H268 0.929 . S
C303 C298 1.371 . S
C303 C302 1.382 . S
C304 N272 1.423 . S
C304 C305 1.362 . S
C304 C309 1.388 . S
C305 H269 0.929 . S
C305 C304 1.362 . S
C305 C306 1.376 . S
C306 H270 0.931 . S
C306 C305 1.376 . S
C306 C307 1.396 . S
C307 C289 1.472 . S
C307 C306 1.396 . S
C307 C308 1.348 . S
C308 H271 0.929 . S
C308 C307 1.348 . S
C308 C309 1.443 . S
C309 H273 0.932 . S
C309 C304 1.388 . S
C309 C308 1.443 . S
H310 C337 0.929 . S
N311 C336 1.433 . S
N311 C342 1.435 . S
N311 C348 1.423 . S
H312 C338 0.930 . S
H313 C341 0.931 . S
H314 C340 0.929 . S
H315 C343 0.930 . S
H316 C344 0.932 . S
H317 C347 0.929 . S
H318 C346 0.931 . S
H319 C349 0.929 . S
H320 C353 0.932 . S
H321 C350 0.931 . S
H322 C352 0.929 . S
H323 C355 0.929 . S
H324 C356 0.930 . S
H325 C358 0.929 . S
H326 C359 0.931 . S
H327 C361 0.930 . S
H328 C362 0.932 . S
H329 C364 0.931 . S
H330 C365 0.929 . S
H331 C367 0.929 . S
H332 C368 0.931 . S
H333 C370 0.929 . S
N334 C354 1.433 . S
N334 C360 1.435 . S
N334 C366 1.423 . S
H335 C371 0.932 . S
C336 N311 1.433 . S
C336 C337 1.363 1_565 S
C336 C341 1.370 . S
C337 H310 0.929 . S
C337 C336 1.363 1_545 S
C337 C338 1.385 . S
C338 H312 0.930 . S
C338 C337 1.385 . S
C338 C339 1.357 . S
C339 C338 1.357 . S
C339 C340 1.406 1_545 S
C340 H314 0.929 . S
C340 C339 1.406 1_565 S
C340 C341 1.391 . S
C341 H313 0.931 . S
C341 C336 1.370 . S
C341 C340 1.391 . S
C342 N311 1.435 . S
C342 C343 1.358 1_565 S
C342 C347 1.371 . S
C343 H315 0.930 . S
C343 C342 1.358 1_545 S
C343 C344 1.405 . S
C344 H316 0.932 . S
C344 C343 1.405 . S
C344 C345 1.383 . S
C345 C344 1.383 . S
C345 C346 1.393 . S
C346 H318 0.931 . S
C346 C345 1.393 . S
C346 C347 1.382 1_545 S
C347 H317 0.929 . S
C347 C342 1.371 . S
C347 C346 1.382 1_565 S
C348 N311 1.423 . S
C348 C349 1.362 . S
C348 C353 1.388 . S
C349 H319 0.929 . S
C349 C348 1.362 . S
C349 C350 1.376 . S
C350 H321 0.931 . S
C350 C349 1.376 . S
C350 C351 1.396 . S
C351 C350 1.396 . S
C351 C352 1.348 . S
C351 C369 1.472 . S
C352 H322 0.929 . S
C352 C351 1.348 . S
C352 C353 1.443 . S
C353 H320 0.932 . S
C353 C348 1.388 . S
C353 C352 1.443 . S
C354 N334 1.433 . S
C354 C355 1.363 . S
C354 C359 1.370 . S
C355 H323 0.929 . S
C355 C354 1.363 . S
C355 C356 1.385 . S
C356 H324 0.930 . S
C356 C355 1.385 . S
C356 C357 1.357 . S
C357 C356 1.357 . S
C357 C358 1.406 . S
C358 H325 0.929 . S
C358 C357 1.406 . S
C358 C359 1.391 . S
C359 H326 0.931 . S
C359 C354 1.370 . S
C359 C358 1.391 . S
C360 N334 1.435 . S
C360 C361 1.358 . S
C360 C365 1.371 . S
C361 H327 0.930 . S
C361 C360 1.358 . S
C361 C362 1.405 . S
C362 H328 0.932 . S
C362 C361 1.405 . S
C362 C363 1.383 . S
C363 C362 1.383 . S
C363 C364 1.393 . S
C364 H329 0.931 . S
C364 C363 1.393 . S
C364 C365 1.382 . S
C365 H330 0.929 . S
C365 C360 1.371 . S
C365 C364 1.382 . S
C366 N334 1.423 . S
C366 C367 1.362 . S
C366 C371 1.388 . S
C367 H331 0.929 . S
C367 C366 1.362 . S
C367 C368 1.376 . S
C368 H332 0.931 . S
C368 C367 1.376 . S
C368 C369 1.396 . S
C369 C351 1.472 . S
C369 C368 1.396 . S
C369 C370 1.348 . S
C370 H333 0.929 . S
C370 C369 1.348 . S
C370 C371 1.443 . S
C371 H335 0.932 . S
C371 C366 1.388 . S
C371 C370 1.443 . S
H372 C399 0.929 . S
N373 C398 1.433 . S
N373 C404 1.435 . S
N373 C410 1.423 . S
H374 C400 0.930 . S
H375 C403 0.931 . S
H376 C402 0.929 . S
H377 C405 0.930 . S
H378 C406 0.932 . S
H379 C409 0.929 . S
H380 C408 0.931 . S
H381 C411 0.929 1_556 S
H382 C415 0.932 . S
H383 C412 0.931 1_556 S
H384 C414 0.929 . S
H385 C417 0.929 . S
H386 C418 0.930 . S
H387 C420 0.929 . S
H388 C421 0.931 . S
H389 C423 0.930 . S
H390 C424 0.932 . S
H391 C426 0.931 . S
H392 C427 0.929 . S
H393 C429 0.929 1_556 S
H394 C430 0.931 1_556 S
H395 C432 0.929 . S
N396 C416 1.433 . S
N396 C422 1.435 . S
N396 C428 1.423 . S
H397 C433 0.932 . S
C398 N373 1.433 . S
C398 C399 1.363 . S
C398 C403 1.370 . S
C399 H372 0.929 . S
C399 C398 1.363 . S
C399 C400 1.385 1_554 S
C400 H374 0.930 . S
C400 C399 1.385 1_556 S
C400 C401 1.357 . S
C401 C400 1.357 . S
C401 C402 1.406 . S
C402 H376 0.929 . S
C402 C401 1.406 . S
C402 C403 1.391 1_556 S
C403 H375 0.931 . S
C403 C398 1.370 . S
C403 C402 1.391 1_554 S
C404 N373 1.435 . S
C404 C405 1.358 . S
C404 C409 1.371 . S
C405 H377 0.930 . S
C405 C404 1.358 . S
C405 C406 1.405 . S
C406 H378 0.932 . S
C406 C405 1.405 . S
C406 C407 1.383 . S
C407 C406 1.383 . S
C407 C408 1.393 . S
C408 H380 0.931 . S
C408 C407 1.393 . S
C408 C409 1.382 . S
C409 H379 0.929 . S
C409 C404 1.371 . S
C409 C408 1.382 . S
C410 N373 1.423 . S
C410 C411 1.362 . S
C410 C415 1.388 . S
C411 H381 0.929 1_554 S
C411 C410 1.362 . S
C411 C412 1.376 . S
C412 H383 0.931 1_554 S
C412 C411 1.376 . S
C412 C413 1.396 . S
C413 C412 1.396 . S
C413 C414 1.348 . S
C413 C431 1.472 . S
C414 H384 0.929 . S
C414 C413 1.348 . S
C414 C415 1.443 . S
C415 H382 0.932 . S
C415 C410 1.388 . S
C415 C414 1.443 . S
C416 N396 1.433 . S
C416 C417 1.363 . S
C416 C421 1.370 . S
C417 H385 0.929 . S
C417 C416 1.363 . S
C417 C418 1.385 1_554 S
C418 H386 0.930 . S
C418 C417 1.385 1_556 S
C418 C419 1.357 . S
C419 C418 1.357 . S
C419 C420 1.406 . S
C420 H387 0.929 . S
C420 C419 1.406 . S
C420 C421 1.391 1_556 S
C421 H388 0.931 . S
C421 C416 1.370 . S
C421 C420 1.391 1_554 S
C422 N396 1.435 . S
C422 C423 1.358 . S
C422 C427 1.371 . S
C423 H389 0.930 . S
C423 C422 1.358 . S
C423 C424 1.405 . S
C424 H390 0.932 . S
C424 C423 1.405 . S
C424 C425 1.383 . S
C425 C424 1.383 . S
C425 C426 1.393 . S
C426 H391 0.931 . S
C426 C425 1.393 . S
C426 C427 1.382 . S
C427 H392 0.929 . S
C427 C422 1.371 . S
C427 C426 1.382 . S
C428 N396 1.423 . S
C428 C429 1.362 . S
C428 C433 1.388 . S
C429 H393 0.929 1_554 S
C429 C428 1.362 . S
C429 C430 1.376 . S
C430 H394 0.931 1_554 S
C430 C429 1.376 . S
C430 C431 1.396 . S
C431 C413 1.472 . S
C431 C430 1.396 . S
C431 C432 1.348 . S
C432 H395 0.929 . S
C432 C431 1.348 . S
C432 C433 1.443 . S
C433 H397 0.932 . S
C433 C428 1.388 . S
C433 C432 1.443 . S
H434 C461 0.929 . S
N435 C460 1.433 . S
N435 C466 1.435 . S
N435 C472 1.423 . S
H436 C462 0.930 . S
H437 C465 0.931 . S
H438 C464 0.929 . S
H439 C467 0.930 . S
H440 C468 0.932 . S
H441 C471 0.929 . S
H442 C470 0.931 . S
H443 C473 0.929 . S
H444 C477 0.932 . S
H445 C474 0.931 . S
H446 C476 0.929 . S
H447 C479 0.929 . S
H448 C480 0.930 . S
H449 C482 0.929 . S
H450 C483 0.931 . S
H451 C485 0.930 . S
H452 C486 0.932 . S
H453 C488 0.931 . S
H454 C489 0.929 . S
H455 C491 0.929 . S
H456 C492 0.931 . S
H457 C494 0.929 . S
N458 C478 1.433 . S
N458 C484 1.435 . S
N458 C490 1.423 . S
H459 C495 0.932 . S
C460 N435 1.433 . S
C460 C461 1.363 . S
C460 C465 1.370 . S
C461 H434 0.929 . S
C461 C460 1.363 . S
C461 C462 1.385 . S
C462 H436 0.930 . S
C462 C461 1.385 . S
C462 C463 1.357 . S
C463 C462 1.357 . S
C463 C464 1.406 . S
C464 H438 0.929 . S
C464 C463 1.406 . S
C464 C465 1.391 . S
C465 H437 0.931 . S
C465 C460 1.370 . S
C465 C464 1.391 . S
C466 N435 1.435 . S
C466 C467 1.358 . S
C466 C471 1.371 . S
C467 H439 0.930 . S
C467 C466 1.358 . S
C467 C468 1.405 . S
C468 H440 0.932 . S
C468 C467 1.405 . S
C468 C469 1.383 . S
C469 C468 1.383 . S
C469 C470 1.393 . S
C470 H442 0.931 . S
C470 C469 1.393 . S
C470 C471 1.382 . S
C471 H441 0.929 . S
C471 C466 1.371 . S
C471 C470 1.382 . S
C472 N435 1.423 . S
C472 C473 1.362 . S
C472 C477 1.388 . S
C473 H443 0.929 . S
C473 C472 1.362 . S
C473 C474 1.376 . S
C474 H445 0.931 . S
C474 C473 1.376 . S
C474 C475 1.396 . S
C475 C474 1.396 . S
C475 C476 1.348 . S
C475 C493 1.472 1_455 S
C476 H446 0.929 . S
C476 C475 1.348 . S
C476 C477 1.443 . S
C477 H444 0.932 . S
C477 C472 1.388 . S
C477 C476 1.443 . S
C478 N458 1.433 . S
C478 C479 1.363 . S
C478 C483 1.370 . S
C479 H447 0.929 . S
C479 C478 1.363 . S
C479 C480 1.385 . S
C480 H448 0.930 . S
C480 C479 1.385 . S
C480 C481 1.357 . S
C481 C480 1.357 . S
C481 C482 1.406 . S
C482 H449 0.929 . S
C482 C481 1.406 . S
C482 C483 1.391 . S
C483 H450 0.931 . S
C483 C478 1.370 . S
C483 C482 1.391 . S
C484 N458 1.435 . S
C484 C485 1.358 . S
C484 C489 1.371 . S
C485 H451 0.930 . S
C485 C484 1.358 . S
C485 C486 1.405 . S
C486 H452 0.932 . S
C486 C485 1.405 . S
C486 C487 1.383 . S
C487 C486 1.383 . S
C487 C488 1.393 . S
C488 H453 0.931 . S
C488 C487 1.393 . S
C488 C489 1.382 . S
C489 H454 0.929 . S
C489 C484 1.371 . S
C489 C488 1.382 . S
C490 N458 1.423 . S
C490 C491 1.362 . S
C490 C495 1.388 . S
C491 H455 0.929 . S
C491 C490 1.362 . S
C491 C492 1.376 . S
C492 H456 0.931 . S
C492 C491 1.376 . S
C492 C493 1.396 . S
C493 C475 1.472 1_655 S
C493 C492 1.396 . S
C493 C494 1.348 . S
C494 H457 0.929 . S
C494 C493 1.348 . S
C494 C495 1.443 . S
C495 H459 0.932 . S
C495 C490 1.388 . S
C495 C494 1.443 . S
Fe496 O497 1.886 . S
Fe496 O500 1.715 1_455 S
Fe496 O505 2.077 . S
Fe496 O510 1.935 1_455 S
Fe496 O516 2.077 . S
Fe496 O525 1.935 1_455 S
O497 Fe496 1.886 . S
O497 Fe499 1.715 . S
Fe498 O500 1.886 . S
Fe498 O501 1.715 . S
Fe498 O508 1.935 . S
Fe498 O509 2.077 . S
Fe498 O515 1.935 . S
Fe498 O524 2.077 . S
Fe499 O497 1.715 . S
Fe499 O502 1.886 . S
Fe499 O506 1.935 . S
Fe499 O511 2.077 . S
Fe499 O517 1.935 . S
Fe499 O521 2.077 . S
O500 Fe496 1.715 1_655 S
O500 Fe498 1.886 . S
O501 Fe498 1.715 . S
O501 Fe503 1.886 . S
O502 Fe499 1.886 . S
O502 Fe503 1.715 1_455 S
Fe503 O501 1.886 . S
Fe503 O502 1.715 1_655 S
Fe503 O507 2.077 . S
Fe503 O512 1.935 1_655 S
Fe503 O514 2.077 . S
Fe503 O522 1.935 1_655 S
C504 O516 1.381 . S
C504 O517 1.421 . S
O505 Fe496 2.077 . S
O505 C518 1.381 . S
O506 Fe499 1.935 . S
O506 C518 1.421 . S
O507 Fe503 2.077 . S
O507 C523 1.381 . S
O508 Fe498 1.935 . S
O508 C523 1.421 . S
O509 Fe498 2.077 . S
O509 C513 1.381 . S
O510 Fe496 1.935 1_655 S
O510 C513 1.421 . S
O511 Fe499 2.077 . S
O511 C519 1.381 . S
O512 Fe503 1.935 1_455 S
O512 C519 1.421 . S
C513 O509 1.381 . S
C513 O510 1.421 . S
O514 Fe503 2.077 . S
O514 C526 1.381 . S
O515 Fe498 1.935 . S
O515 C526 1.421 . S
O516 Fe496 2.077 . S
O516 C504 1.381 . S
O517 Fe499 1.935 . S
O517 C504 1.421 . S
C518 O505 1.381 . S
C518 O506 1.421 . S
C519 O511 1.381 . S
C519 O512 1.421 . S
C520 O521 1.381 . S
C520 O522 1.421 . S
O521 Fe499 2.077 . S
O521 C520 1.381 . S
O522 Fe503 1.935 1_455 S
O522 C520 1.421 . S
C523 O507 1.381 . S
C523 O508 1.421 . S
O524 Fe498 2.077 . S
O524 C527 1.381 . S
O525 Fe496 1.935 1_655 S
O525 C527 1.421 . S
C526 O514 1.381 . S
C526 O515 1.421 . S
C527 O524 1.381 . S
C527 O525 1.421 . S
Fe528 O529 1.886 . S
Fe528 O532 1.715 . S
Fe528 O537 2.077 . S
Fe528 O542 1.935 . S
Fe528 O548 2.077 . S
Fe528 O557 1.935 . S
O529 Fe528 1.886 . S
O529 Fe531 1.715 . S
Fe530 O532 1.886 . S
Fe530 O533 1.715 . S
Fe530 O540 1.935 . S
Fe530 O541 2.077 . S
Fe530 O547 1.935 . S
Fe530 O556 2.077 . S
Fe531 O529 1.715 . S
Fe531 O534 1.886 . S
Fe531 O538 1.935 . S
Fe531 O543 2.077 . S
Fe531 O549 1.935 . S
Fe531 O553 2.077 . S
O532 Fe528 1.715 . S
O532 Fe530 1.886 . S
O533 Fe530 1.715 . S
O533 Fe535 1.886 . S
O534 Fe531 1.886 . S
O534 Fe535 1.715 . S
Fe535 O533 1.886 . S
Fe535 O534 1.715 . S
Fe535 O539 2.077 . S
Fe535 O544 1.935 . S
Fe535 O546 2.077 . S
Fe535 O554 1.935 . S
C536 O548 1.381 . S
C536 O549 1.421 . S
O537 Fe528 2.077 . S
O537 C550 1.381 . S
O538 Fe531 1.935 . S
O538 C550 1.421 . S
O539 Fe535 2.077 . S
O539 C555 1.381 . S
O540 Fe530 1.935 . S
O540 C555 1.421 . S
O541 Fe530 2.077 . S
O541 C545 1.381 . S
O542 Fe528 1.935 . S
O542 C545 1.421 . S
O543 Fe531 2.077 . S
O543 C551 1.381 . S
O544 Fe535 1.935 . S
O544 C551 1.421 . S
C545 O541 1.381 . S
C545 O542 1.421 . S
O546 Fe535 2.077 . S
O546 C558 1.381 . S
O547 Fe530 1.935 . S
O547 C558 1.421 . S
O548 Fe528 2.077 . S
O548 C536 1.381 . S
O549 Fe531 1.935 . S
O549 C536 1.421 . S
C550 O537 1.381 . S
C550 O538 1.421 . S
C551 O543 1.381 . S
C551 O544 1.421 . S
C552 O553 1.381 . S
C552 O554 1.421 . S
O553 Fe531 2.077 . S
O553 C552 1.381 . S
O554 Fe535 1.935 . S
O554 C552 1.421 . S
C555 O539 1.381 . S
C555 O540 1.421 . S
O556 Fe530 2.077 . S
O556 C559 1.381 . S
O557 Fe528 1.935 . S
O557 C559 1.421 . S
C558 O546 1.381 . S
C558 O547 1.421 . S
C559 O556 1.381 . S
C559 O557 1.421 . S
Fe560 O561 1.886 . S
Fe560 O564 1.715 . S
Fe560 O569 2.077 . S
Fe560 O574 1.935 . S
Fe560 O580 2.077 . S
Fe560 O589 1.935 . S
O561 Fe560 1.886 . S
O561 Fe563 1.715 . S
Fe562 O564 1.886 . S
Fe562 O565 1.715 . S
Fe562 O572 1.935 . S
Fe562 O573 2.077 . S
Fe562 O579 1.935 . S
Fe562 O588 2.077 . S
Fe563 O561 1.715 . S
Fe563 O566 1.886 . S
Fe563 O570 1.935 . S
Fe563 O575 2.077 . S
Fe563 O581 1.935 . S
Fe563 O585 2.077 . S
O564 Fe560 1.715 . S
O564 Fe562 1.886 . S
O565 Fe562 1.715 . S
O565 Fe567 1.886 . S
O566 Fe563 1.886 . S
O566 Fe567 1.715 . S
Fe567 O565 1.886 . S
Fe567 O566 1.715 . S
Fe567 O571 2.077 . S
Fe567 O576 1.935 . S
Fe567 O578 2.077 . S
Fe567 O586 1.935 . S
C568 O580 1.381 . S
C568 O581 1.421 . S
O569 Fe560 2.077 . S
O569 C582 1.381 . S
O570 Fe563 1.935 . S
O570 C582 1.421 . S
O571 Fe567 2.077 . S
O571 C587 1.381 . S
O572 Fe562 1.935 . S
O572 C587 1.421 . S
O573 Fe562 2.077 . S
O573 C577 1.381 . S
O574 Fe560 1.935 . S
O574 C577 1.421 . S
O575 Fe563 2.077 . S
O575 C583 1.381 . S
O576 Fe567 1.935 . S
O576 C583 1.421 . S
C577 O573 1.381 . S
C577 O574 1.421 . S
O578 Fe567 2.077 . S
O578 C590 1.381 . S
O579 Fe562 1.935 . S
O579 C590 1.421 . S
O580 Fe560 2.077 . S
O580 C568 1.381 . S
O581 Fe563 1.935 . S
O581 C568 1.421 . S
C582 O569 1.381 . S
C582 O570 1.421 . S
C583 O575 1.381 . S
C583 O576 1.421 . S
C584 O585 1.381 . S
C584 O586 1.421 . S
O585 Fe563 2.077 . S
O585 C584 1.381 . S
O586 Fe567 1.935 . S
O586 C584 1.421 . S
C587 O571 1.381 . S
C587 O572 1.421 . S
O588 Fe562 2.077 . S
O588 C591 1.381 . S
O589 Fe560 1.935 . S
O589 C591 1.421 . S
C590 O578 1.381 . S
C590 O579 1.421 . S
C591 O588 1.381 . S
C591 O589 1.421 . S
Fe592 O593 1.886 . S
Fe592 O596 1.715 . S
Fe592 O601 2.077 1_455 S
Fe592 O606 1.935 1_455 S
Fe592 O612 2.077 . S
Fe592 O621 1.935 . S
O593 Fe592 1.886 . S
O593 Fe595 1.715 . S
Fe594 O596 1.886 . S
Fe594 O597 1.715 . S
Fe594 O604 1.935 1_455 S
Fe594 O605 2.077 1_455 S
Fe594 O611 1.935 . S
Fe594 O620 2.077 . S
Fe595 O593 1.715 . S
Fe595 O598 1.886 . S
Fe595 O602 1.935 1_455 S
Fe595 O607 2.077 1_455 S
Fe595 O613 1.935 . S
Fe595 O617 2.077 . S
O596 Fe592 1.715 . S
O596 Fe594 1.886 . S
O597 Fe594 1.715 . S
O597 Fe599 1.886 . S
O598 Fe595 1.886 . S
O598 Fe599 1.715 . S
Fe599 O597 1.886 . S
Fe599 O598 1.715 . S
Fe599 O603 2.077 1_455 S
Fe599 O608 1.935 1_455 S
Fe599 O610 2.077 . S
Fe599 O618 1.935 . S
C600 O612 1.381 . S
C600 O613 1.421 . S
O601 Fe592 2.077 1_655 S
O601 C614 1.381 . S
O602 Fe595 1.935 1_655 S
O602 C614 1.421 . S
O603 Fe599 2.077 1_655 S
O603 C619 1.381 . S
O604 Fe594 1.935 1_655 S
O604 C619 1.421 . S
O605 Fe594 2.077 1_655 S
O605 C609 1.381 . S
O606 Fe592 1.935 1_655 S
O606 C609 1.421 . S
O607 Fe595 2.077 1_655 S
O607 C615 1.381 . S
O608 Fe599 1.935 1_655 S
O608 C615 1.421 . S
C609 O605 1.381 . S
C609 O606 1.421 . S
O610 Fe599 2.077 . S
O610 C622 1.381 . S
O611 Fe594 1.935 . S
O611 C622 1.421 . S
O612 Fe592 2.077 . S
O612 C600 1.381 . S
O613 Fe595 1.935 . S
O613 C600 1.421 . S
C614 O601 1.381 . S
C614 O602 1.421 . S
C615 O607 1.381 . S
C615 O608 1.421 . S
C616 O617 1.381 . S
C616 O618 1.421 . S
O617 Fe595 2.077 . S
O617 C616 1.381 . S
O618 Fe599 1.935 . S
O618 C616 1.421 . S
C619 O603 1.381 . S
C619 O604 1.421 . S
O620 Fe594 2.077 . S
O620 C623 1.381 . S
O621 Fe592 1.935 . S
O621 C623 1.421 . S
C622 O610 1.381 . S
C622 O611 1.421 . S
C623 O620 1.381 . S
C623 O621 1.421 . S
C624 C625 1.387 . S
C624 H628 0.950 . S
C624 C633 1.390 . S
C625 C624 1.387 . S
C625 C627 1.387 . S
H626 C633 0.950 . S
C627 C625 1.387 . S
C627 C629 1.390 . S
C627 H631 0.950 . S
H628 C624 0.950 . S
C629 C627 1.390 . S
C629 C630 1.387 . S
C629 H632 0.950 . S
C630 C629 1.387 . S
C630 C633 1.387 . S
H631 C627 0.950 . S
H632 C629 0.950 . S
C633 C624 1.390 . S
C633 H626 0.950 . S
C633 C630 1.387 . S
C634 C635 1.387 . S
C634 H638 0.950 . S
C634 C643 1.390 . S
C635 C634 1.387 . S
C635 C637 1.387 . S
H636 C643 0.950 . S
C637 C635 1.387 . S
C637 C639 1.390 . S
C637 H641 0.950 . S
H638 C634 0.950 . S
C639 C637 1.390 . S
C639 C640 1.387 . S
C639 H642 0.950 . S
C640 C639 1.387 . S
C640 C643 1.387 . S
H641 C637 0.950 . S
H642 C639 0.950 . S
C643 C634 1.390 . S
C643 H636 0.950 . S
C643 C640 1.387 . S
C644 C645 1.387 . S
C644 H648 0.950 . S
C644 C653 1.390 . S
C645 C644 1.387 . S
C645 C647 1.387 . S
H646 C653 0.950 . S
C647 C645 1.387 . S
C647 C649 1.390 . S
C647 H651 0.950 . S
H648 C644 0.950 . S
C649 C647 1.390 . S
C649 C650 1.387 . S
C649 H652 0.950 . S
C650 C649 1.387 . S
C650 C653 1.387 . S
H651 C647 0.950 . S
H652 C649 0.950 . S
C653 C644 1.390 . S
C653 H646 0.950 . S
C653 C650 1.387 . S
C654 C655 1.387 . S
C654 H658 0.950 . S
C654 C663 1.390 . S
C655 C654 1.387 . S
C655 C657 1.387 . S
H656 C663 0.950 . S
C657 C655 1.387 . S
C657 C659 1.390 . S
C657 H661 0.950 . S
H658 C654 0.950 . S
C659 C657 1.390 . S
C659 C660 1.387 . S
C659 H662 0.950 . S
C660 C659 1.387 . S
C660 C663 1.387 . S
H661 C657 0.950 . S
H662 C659 0.950 . S
C663 C654 1.390 . S
C663 H656 0.950 . S
C663 C660 1.387 . S
C664 C665 1.387 . S
C664 H668 0.950 . S
C664 C673 1.390 . S
C665 C664 1.387 . S
C665 C667 1.387 . S
H666 C673 0.950 . S
C667 C665 1.387 . S
C667 C669 1.390 . S
C667 H671 0.950 . S
H668 C664 0.950 . S
C669 C667 1.390 . S
C669 C670 1.387 . S
C669 H672 0.950 . S
C670 C669 1.387 . S
C670 C673 1.387 . S
H671 C667 0.950 . S
H672 C669 0.950 . S
C673 C664 1.390 . S
C673 H666 0.950 . S
C673 C670 1.387 . S
C674 C675 1.387 . S
C674 H678 0.950 . S
C674 C683 1.390 . S
C675 C674 1.387 . S
C675 C677 1.387 . S
H676 C683 0.950 . S
C677 C675 1.387 . S
C677 C679 1.390 . S
C677 H681 0.950 . S
H678 C674 0.950 . S
C679 C677 1.390 . S
C679 C680 1.387 . S
C679 H682 0.950 . S
C680 C679 1.387 . S
C680 C683 1.387 . S
H681 C677 0.950 . S
H682 C679 0.950 . S
C683 C674 1.390 . S
C683 H676 0.950 . S
C683 C680 1.387 . S
C684 C685 1.387 . S
C684 H688 0.950 . S
C684 C693 1.390 . S
C685 C684 1.387 . S
C685 C687 1.387 . S
H686 C693 0.950 . S
C687 C685 1.387 . S
C687 C689 1.390 . S
C687 H691 0.950 . S
H688 C684 0.950 . S
C689 C687 1.390 . S
C689 C690 1.387 . S
C689 H692 0.950 . S
C690 C689 1.387 . S
C690 C693 1.387 . S
H691 C687 0.950 . S
H692 C689 0.950 . S
C693 C684 1.390 . S
C693 H686 0.950 . S
C693 C690 1.387 . S
C694 C695 1.387 . S
C694 H698 0.950 . S
C694 C703 1.390 . S
C695 C694 1.387 . S
C695 C697 1.387 . S
H696 C703 0.950 . S
C697 C695 1.387 . S
C697 C699 1.390 . S
C697 H701 0.950 . S
H698 C694 0.950 . S
C699 C697 1.390 . S
C699 C700 1.387 . S
C699 H702 0.950 . S
C700 C699 1.387 . S
C700 C703 1.387 . S
H701 C697 0.950 . S
H702 C699 0.950 . S
C703 C694 1.390 . S
C703 H696 0.950 . S
C703 C700 1.387 . S
C704 C705 1.387 . S
C704 H708 0.950 . S
C704 C713 1.390 . S
C705 C704 1.387 . S
C705 C707 1.387 . S
H706 C713 0.950 . S
C707 C705 1.387 . S
C707 C709 1.390 . S
C707 H711 0.950 . S
H708 C704 0.950 . S
C709 C707 1.390 . S
C709 C710 1.387 . S
C709 H712 0.950 . S
C710 C709 1.387 . S
C710 C713 1.387 . S
H711 C707 0.950 . S
H712 C709 0.950 . S
C713 C704 1.390 . S
C713 H706 0.950 . S
C713 C710 1.387 . S
C714 C715 1.387 . S
C714 H718 0.950 1_565 S
C714 C723 1.390 . S
C715 C714 1.387 . S
C715 C717 1.387 . S
H716 C723 0.950 . S
C717 C715 1.387 . S
C717 C719 1.390 . S
C717 H721 0.950 . S
H718 C714 0.950 1_545 S
C719 C717 1.390 . S
C719 C720 1.387 . S
C719 H722 0.950 . S
C720 C719 1.387 . S
C720 C723 1.387 . S
H721 C717 0.950 . S
H722 C719 0.950 . S
C723 C714 1.390 . S
C723 H716 0.950 . S
C723 C720 1.387 . S
C724 C725 1.387 . S
C724 H728 0.950 . S
C724 C733 1.390 . S
C725 C724 1.387 . S
C725 C727 1.387 . S
H726 C733 0.950 . S
C727 C725 1.387 . S
C727 C729 1.390 . S
C727 H731 0.950 . S
H728 C724 0.950 . S
C729 C727 1.390 . S
C729 C730 1.387 . S
C729 H732 0.950 . S
C730 C729 1.387 . S
C730 C733 1.387 . S
H731 C727 0.950 . S
H732 C729 0.950 . S
C733 C724 1.390 . S
C733 H726 0.950 . S
C733 C730 1.387 . S
C734 C735 1.387 . S
C734 H738 0.950 . S
C734 C743 1.390 . S
C735 C734 1.387 . S
C735 C737 1.387 . S
H736 C743 0.950 . S
C737 C735 1.387 . S
C737 C739 1.390 . S
C737 H741 0.950 . S
H738 C734 0.950 . S
C739 C737 1.390 . S
C739 C740 1.387 . S
C739 H742 0.950 . S
C740 C739 1.387 . S
C740 C743 1.387 . S
H741 C737 0.950 . S
H742 C739 0.950 . S
C743 C734 1.390 . S
C743 H736 0.950 . S
C743 C740 1.387 . S
C744 C745 1.387 . S
C744 H748 0.950 . S
C744 C753 1.390 . S
C745 C744 1.387 . S
C745 C747 1.387 . S
H746 C753 0.950 . S
C747 C745 1.387 . S
C747 C749 1.390 . S
C747 H751 0.950 . S
H748 C744 0.950 . S
C749 C747 1.390 . S
C749 C750 1.387 . S
C749 H752 0.950 . S
C750 C749 1.387 . S
C750 C753 1.387 . S
H751 C747 0.950 . S
H752 C749 0.950 . S
C753 C744 1.390 . S
C753 H746 0.950 . S
C753 C750 1.387 . S
C754 C755 1.387 . S
C754 H758 0.950 . S
C754 C763 1.390 . S
C755 C754 1.387 . S
C755 C757 1.387 . S
H756 C763 0.950 . S
C757 C755 1.387 . S
C757 C759 1.390 . S
C757 H761 0.950 . S
H758 C754 0.950 . S
C759 C757 1.390 . S
C759 C760 1.387 . S
C759 H762 0.950 . S
C760 C759 1.387 . S
C760 C763 1.387 . S
H761 C757 0.950 . S
H762 C759 0.950 . S
C763 C754 1.390 . S
C763 H756 0.950 . S
C763 C760 1.387 . S
C764 C765 1.387 . S
C764 H768 0.950 . S
C764 C773 1.390 . S
C765 C764 1.387 . S
C765 C767 1.387 . S
H766 C773 0.950 . S
C767 C765 1.387 . S
C767 C769 1.390 . S
C767 H771 0.950 . S
H768 C764 0.950 . S
C769 C767 1.390 . S
C769 C770 1.387 . S
C769 H772 0.950 . S
C770 C769 1.387 . S
C770 C773 1.387 . S
H771 C767 0.950 . S
H772 C769 0.950 . S
C773 C764 1.390 . S
C773 H766 0.950 . S
C773 C770 1.387 . S
C774 C775 1.387 . S
C774 H778 0.950 . S
C774 C783 1.390 . S
C775 C774 1.387 . S
C775 C777 1.387 . S
H776 C783 0.950 . S
C777 C775 1.387 . S
C777 C779 1.390 . S
C777 H781 0.950 . S
H778 C774 0.950 . S
C779 C777 1.390 . S
C779 C780 1.387 . S
C779 H782 0.950 . S
C780 C779 1.387 . S
C780 C783 1.387 . S
H781 C777 0.950 . S
H782 C779 0.950 . S
C783 C774 1.390 . S
C783 H776 0.950 . S
C783 C780 1.387 . S
C784 C785 1.387 . S
C784 H788 0.950 . S
C784 C793 1.390 . S
C785 C784 1.387 . S
C785 C787 1.387 . S
H786 C793 0.950 . S
C787 C785 1.387 . S
C787 C789 1.390 . S
C787 H791 0.950 . S
H788 C784 0.950 . S
C789 C787 1.390 . S
C789 C790 1.387 . S
C789 H792 0.950 . S
C790 C789 1.387 . S
C790 C793 1.387 . S
H791 C787 0.950 . S
H792 C789 0.950 . S
C793 C784 1.390 . S
C793 H786 0.950 . S
C793 C790 1.387 . S
C794 C795 1.387 . S
C794 H798 0.950 . S
C794 C803 1.390 . S
C795 C794 1.387 . S
C795 C797 1.387 . S
H796 C803 0.950 . S
C797 C795 1.387 . S
C797 C799 1.390 . S
C797 H801 0.950 . S
H798 C794 0.950 . S
C799 C797 1.390 . S
C799 C800 1.387 . S
C799 H802 0.950 . S
C800 C799 1.387 . S
C800 C803 1.387 . S
H801 C797 0.950 . S
H802 C799 0.950 . S
C803 C794 1.390 . S
C803 H796 0.950 . S
C803 C800 1.387 . S
C804 C805 1.387 . S
C804 H808 0.950 . S
C804 C813 1.390 . S
C805 C804 1.387 . S
C805 C807 1.387 . S
H806 C813 0.950 . S
C807 C805 1.387 . S
C807 C809 1.390 . S
C807 H811 0.950 . S
H808 C804 0.950 . S
C809 C807 1.390 . S
C809 C810 1.387 . S
C809 H812 0.950 . S
C810 C809 1.387 . S
C810 C813 1.387 . S
H811 C807 0.950 . S
H812 C809 0.950 . S
C813 C804 1.390 . S
C813 H806 0.950 . S
C813 C810 1.387 . S
C814 C815 1.387 . S
C814 H818 0.950 . S
C814 C823 1.390 . S
C815 C814 1.387 . S
C815 C817 1.387 . S
H816 C823 0.950 . S
C817 C815 1.387 . S
C817 C819 1.390 . S
C817 H821 0.950 . S
H818 C814 0.950 . S
C819 C817 1.390 . S
C819 C820 1.387 . S
C819 H822 0.950 . S
C820 C819 1.387 . S
C820 C823 1.387 . S
H821 C817 0.950 . S
H822 C819 0.950 . S
C823 C814 1.390 . S
C823 H816 0.950 . S
C823 C820 1.387 . S
C824 C825 1.387 . S
C824 H828 0.950 . S
C824 C833 1.390 . S
C825 C824 1.387 . S
C825 C827 1.387 . S
H826 C833 0.950 . S
C827 C825 1.387 . S
C827 C829 1.390 . S
C827 H831 0.950 . S
H828 C824 0.950 . S
C829 C827 1.390 . S
C829 C830 1.387 . S
C829 H832 0.950 . S
C830 C829 1.387 . S
C830 C833 1.387 . S
H831 C827 0.950 . S
H832 C829 0.950 . S
C833 C824 1.390 . S
C833 H826 0.950 . S
C833 C830 1.387 . S
C834 C835 1.387 . S
C834 H838 0.950 . S
C834 C843 1.390 . S
C835 C834 1.387 . S
C835 C837 1.387 . S
H836 C843 0.950 . S
C837 C835 1.387 . S
C837 C839 1.390 . S
C837 H841 0.950 . S
H838 C834 0.950 . S
C839 C837 1.390 . S
C839 C840 1.387 . S
C839 H842 0.950 . S
C840 C839 1.387 . S
C840 C843 1.387 . S
H841 C837 0.950 . S
H842 C839 0.950 . S
C843 C834 1.390 . S
C843 H836 0.950 . S
C843 C840 1.387 . S
C844 C845 1.387 . S
C844 H848 0.950 . S
C844 C853 1.390 . S
C845 C844 1.387 . S
C845 C847 1.387 . S
H846 C853 0.950 . S
C847 C845 1.387 . S
C847 C849 1.390 . S
C847 H851 0.950 . S
H848 C844 0.950 . S
C849 C847 1.390 . S
C849 C850 1.387 . S
C849 H852 0.950 . S
C850 C849 1.387 . S
C850 C853 1.387 . S
H851 C847 0.950 . S
H852 C849 0.950 . S
C853 C844 1.390 . S
C853 H846 0.950 . S
C853 C850 1.387 . S
C854 C855 1.387 . S
C854 H858 0.950 . S
C854 C863 1.390 . S
C855 C854 1.387 . S
C855 C857 1.387 . S
H856 C863 0.950 . S
C857 C855 1.387 . S
C857 C859 1.390 . S
C857 H861 0.950 . S
H858 C854 0.950 . S
C859 C857 1.390 . S
C859 C860 1.387 . S
C859 H862 0.950 . S
C860 C859 1.387 . S
C860 C863 1.387 . S
H861 C857 0.950 . S
H862 C859 0.950 . S
C863 C854 1.390 . S
C863 H856 0.950 . S
C863 C860 1.387 . S
C864 C865 1.387 . S
C864 H868 0.950 . S
C864 C873 1.390 . S
C865 C864 1.387 . S
C865 C867 1.387 . S
H866 C873 0.950 . S
C867 C865 1.387 . S
C867 C869 1.390 . S
C867 H871 0.950 . S
H868 C864 0.950 . S
C869 C867 1.390 . S
C869 C870 1.387 . S
C869 H872 0.950 . S
C870 C869 1.387 . S
C870 C873 1.387 . S
H871 C867 0.950 . S
H872 C869 0.950 . S
C873 C864 1.390 . S
C873 H866 0.950 . S
C873 C870 1.387 . S
C874 C875 1.387 . S
C874 H878 0.950 . S
C874 C883 1.390 . S
C875 C874 1.387 . S
C875 C877 1.387 . S
H876 C883 0.950 . S
C877 C875 1.387 . S
C877 C879 1.390 . S
C877 H881 0.950 . S
H878 C874 0.950 . S
C879 C877 1.390 . S
C879 C880 1.387 . S
C879 H882 0.950 . S
C880 C879 1.387 . S
C880 C883 1.387 . S
H881 C877 0.950 . S
H882 C879 0.950 . S
C883 C874 1.390 . S
C883 H876 0.950 . S
C883 C880 1.387 . S
C884 C885 1.387 . S
C884 H888 0.950 . S
C884 C893 1.390 . S
C885 C884 1.387 . S
C885 C887 1.387 . S
H886 C893 0.950 . S
C887 C885 1.387 . S
C887 C889 1.390 . S
C887 H891 0.950 . S
H888 C884 0.950 . S
C889 C887 1.390 . S
C889 C890 1.387 . S
C889 H892 0.950 . S
C890 C889 1.387 . S
C890 C893 1.387 . S
H891 C887 0.950 . S
H892 C889 0.950 . S
C893 C884 1.390 . S
C893 H886 0.950 . S
C893 C890 1.387 . S
C894 C895 1.387 . S
C894 H898 0.950 . S
C894 C903 1.390 . S
C895 C894 1.387 . S
C895 C897 1.387 . S
H896 C903 0.950 . S
C897 C895 1.387 . S
C897 C899 1.390 . S
C897 H901 0.950 . S
H898 C894 0.950 . S
C899 C897 1.390 . S
C899 C900 1.387 . S
C899 H902 0.950 . S
C900 C899 1.387 . S
C900 C903 1.387 . S
H901 C897 0.950 . S
H902 C899 0.950 . S
C903 C894 1.390 . S
C903 H896 0.950 . S
C903 C900 1.387 . S
C904 C905 1.387 . S
C904 H908 0.950 . S
C904 C913 1.390 . S
C905 C904 1.387 . S
C905 C907 1.387 . S
H906 C913 0.950 . S
C907 C905 1.387 . S
C907 C909 1.390 . S
C907 H911 0.950 . S
H908 C904 0.950 . S
C909 C907 1.390 . S
C909 C910 1.387 . S
C909 H912 0.950 . S
C910 C909 1.387 . S
C910 C913 1.387 . S
H911 C907 0.950 . S
H912 C909 0.950 . S
C913 C904 1.390 . S
C913 H906 0.950 . S
C913 C910 1.387 . S
C914 C915 1.387 . S
C914 H918 0.950 . S
C914 C923 1.390 . S
C915 C914 1.387 . S
C915 C917 1.387 . S
H916 C923 0.950 . S
C917 C915 1.387 . S
C917 C919 1.390 . S
C917 H921 0.950 . S
H918 C914 0.950 . S
C919 C917 1.390 . S
C919 C920 1.387 . S
C919 H922 0.950 . S
C920 C919 1.387 . S
C920 C923 1.387 . S
H921 C917 0.950 . S
H922 C919 0.950 . S
C923 C914 1.390 . S
C923 H916 0.950 . S
C923 C920 1.387 . S
C924 C925 1.387 . S
C924 H928 0.950 . S
C924 C933 1.390 . S
C925 C924 1.387 . S
C925 C927 1.387 . S
H926 C933 0.950 . S
C927 C925 1.387 . S
C927 C929 1.390 . S
C927 H931 0.950 . S
H928 C924 0.950 . S
C929 C927 1.390 . S
C929 C930 1.387 . S
C929 H932 0.950 . S
C930 C929 1.387 . S
C930 C933 1.387 . S
H931 C927 0.950 . S
H932 C929 0.950 . S
C933 C924 1.390 . S
C933 H926 0.950 . S
C933 C930 1.387 . S
C934 C935 1.387 . S
C934 H938 0.950 . S
C934 C943 1.390 . S
C935 C934 1.387 . S
C935 C937 1.387 . S
H936 C943 0.950 . S
C937 C935 1.387 . S
C937 C939 1.390 . S
C937 H941 0.950 . S
H938 C934 0.950 . S
C939 C937 1.390 . S
C939 C940 1.387 . S
C939 H942 0.950 . S
C940 C939 1.387 . S
C940 C943 1.387 . S
H941 C937 0.950 . S
H942 C939 0.950 . S
C943 C934 1.390 . S
C943 H936 0.950 . S
C943 C940 1.387 . S
C630 C545 1.474 . S
C625 C53 1.534 . S
C635 C115 1.545 . S
C640 C577 1.482 . S
C645 C177 1.562 . S
C650 C600 1.512 . S
C660 C504 1.507 . S
C655 C239 1.551 . S
C670 C587 1.531 . S
C665 C47 1.598 . S
C680 C616 1.531 . S
C675 C109 1.584 . S
C690 C520 1.538 . S
C685 C171 1.582 . S
C700 C555 1.525 . S
C695 C233 1.595 1_565 S
C705 C29 1.603 . S
C710 C583 1.551 . S
C715 C277 1.594 1_565 S
C720 C558 1.523 . S
C725 C153 1.582 . S
C730 C526 1.521 . S
C740 C615 1.530 . S
C735 C339 1.586 . S
C750 C559 1.472 . S
C745 C35 1.537 . S
C755 C283 1.552 . S
C760 C527 1.494 . S
C765 C159 1.561 . S
C770 C614 1.516 . S
C780 C582 1.498 . S
C775 C345 1.545 . S
C785 C419 1.575 . S
C790 C609 1.665 . S
C795 C301 1.556 . S
C800 C513 1.492 . S
C805 C487 1.536 . S
C810 C536 1.490 . S
C815 C363 1.545 . S
C820 C568 1.499 . S
C830 C523 1.481 . S
C825 C425 1.583 . S
C835 C295 1.594 . S
C840 C552 1.538 . S
C845 C481 1.601 . S
C850 C584 1.551 . S
C860 C619 1.517 . S
C855 C357 1.588 . S
C865 C407 1.582 . S
C870 C519 1.467 . S
C875 C91 1.587 . S
C880 C622 1.515 . S
C885 C463 1.600 . S
C890 C590 1.531 . S
C900 C551 1.537 . S
C895 C215 1.592 . S
C910 C623 1.662 . S
C905 C401 1.576 . S
C920 C591 1.483 . S
C915 C97 1.545 . S
C930 C550 1.488 . S
C925 C469 1.534 . S
C940 C518 1.506 . S
C935 C221 1.554 . S
