# Generated by pormake.
# Topology anh, (6,3)-cn, num edge types: 1
# Building blocks:
#     Node 0, Type 0, BuildingBlock: BETFEN_clean_sbu_0, # of connection points: 6
#     Node 1, Type 0, BuildingBlock: BETFEN_clean_sbu_0, # of connection points: 6
#     Node 2, Type 0, BuildingBlock: BETFEN_clean_sbu_0, # of connection points: 6
#     Node 3, Type 1, BuildingBlock: ESEHIV_clean_linker_0, # of connection points: 3
#     Node 4, Type 1, BuildingBlock: ESEHIV_clean_linker_0, # of connection points: 3
#     Node 5, Type 1, BuildingBlock: ESEHIV_clean_linker_0, # of connection points: 3
#     Node 6, Type 1, BuildingBlock: ESEHIV_clean_linker_0, # of connection points: 3
#     Node 7, Type 1, BuildingBlock: ESEHIV_clean_linker_0, # of connection points: 3
#     Node 8, Type 1, BuildingBlock: ESEHIV_clean_linker_0, # of connection points: 3
#     Edge 9, Type (0, 1), BuildingBlock: UVAHIK_clean_linker_0, # of connection points: 2
#     Edge 10, Type (0, 1), BuildingBlock: UVAHIK_clean_linker_0, # of connection points: 2
#     Edge 11, Type (0, 1), BuildingBlock: UVAHIK_clean_linker_0, # of connection points: 2
#     Edge 12, Type (0, 1), BuildingBlock: UVAHIK_clean_linker_0, # of connection points: 2
#     Edge 13, Type (0, 1), BuildingBlock: UVAHIK_clean_linker_0, # of connection points: 2
#     Edge 14, Type (0, 1), BuildingBlock: UVAHIK_clean_linker_0, # of connection points: 2
#     Edge 15, Type (0, 1), BuildingBlock: UVAHIK_clean_linker_0, # of connection points: 2
#     Edge 16, Type (0, 1), BuildingBlock: UVAHIK_clean_linker_0, # of connection points: 2
#     Edge 17, Type (0, 1), BuildingBlock: UVAHIK_clean_linker_0, # of connection points: 2
#     Edge 18, Type (0, 1), BuildingBlock: UVAHIK_clean_linker_0, # of connection points: 2
#     Edge 19, Type (0, 1), BuildingBlock: UVAHIK_clean_linker_0, # of connection points: 2
#     Edge 20, Type (0, 1), BuildingBlock: UVAHIK_clean_linker_0, # of connection points: 2
#     Edge 21, Type (0, 1), BuildingBlock: UVAHIK_clean_linker_0, # of connection points: 2
#     Edge 22, Type (0, 1), BuildingBlock: UVAHIK_clean_linker_0, # of connection points: 2
#     Edge 23, Type (0, 1), BuildingBlock: UVAHIK_clean_linker_0, # of connection points: 2
#     Edge 24, Type (0, 1), BuildingBlock: UVAHIK_clean_linker_0, # of connection points: 2
#     Edge 25, Type (0, 1), BuildingBlock: UVAHIK_clean_linker_0, # of connection points: 2
#     Edge 26, Type (0, 1), BuildingBlock: UVAHIK_clean_linker_0, # of connection points: 2
# Relax obj value: 0.183
# Max RMSD: 0.207
# Mean RMSD: 0.156
data_MOF--net-anh--node1-BETFEN_clean_sbu_0--node2-ESEHIV_clean_linker_0--edge1-UVAHIK_clean_linker_0
_symmetry_space_group_name_H-M    P1
_symmetry_Int_Tables_number       1
_symmetry_cell_setting            triclinic
loop_
_symmetry_equiv_pos_as_xyz
'x, y, z'
_cell_length_a     36.205625
_cell_length_b     37.038408
_cell_length_c     68.132236
_cell_angle_alpha  90.190684
_cell_angle_beta   92.611672
_cell_angle_gamma 105.74142
loop_
_atom_site_label
_atom_site_type_symbol
_atom_site_fract_x
_atom_site_fract_y
_atom_site_fract_z
_atom_type_partial_charge
Pr0 Pr 0.03528 0.53663 0.1486 0.0
Pr1 Pr 0.05879 0.61843 0.13814 0.0
C2 C 1.00427 0.46945 0.16473 0.0
C3 C 0.96656 0.44278 0.16794 0.0
C4 C 0.94155 0.4253 0.15219 0.0
C5 C 0.90657 0.39925 0.15576 0.0
C6 C 0.89584 0.39038 0.17511 0.0
C7 C 0.9208 0.40815 0.1908 0.0
C8 C 0.9558 0.43395 0.18724 0.0
C9 C 0.0431 0.54873 0.10847 0.0
C10 C 0.96744 0.58087 0.13902 0.0
C11 C 0.09253 0.68756 0.12509 0.0
C12 C 0.12791 0.71599 0.13163 0.0
C13 C 0.14554 0.71289 0.15007 0.0
C14 C 0.1793 0.7395 0.1564 0.0
C15 C 0.19643 0.76963 0.14434 0.0
C16 C 0.17867 0.7725 0.12579 0.0
C17 C 0.14466 0.74586 0.1195 0.0
C18 C 0.05313 0.60576 0.17841 0.0
C19 C 0.12664 0.57288 0.14461 0.0
O20 O 1.01272 0.5011 0.1747 0.0
O21 O 1.01611 0.47323 0.1468 0.0
O22 O 0.02717 0.56667 0.11961 0.0
O23 O 0.05416 0.52264 0.11778 0.0
O24 O 0.99349 0.60642 0.12998 0.0
O25 O 0.9772 0.55431 0.14925 0.0
O26 O 0.09736 0.65703 0.11721 0.0
O27 O 0.06493 0.68078 0.13743 0.0
O28 O 0.06832 0.58823 0.16676 0.0
O29 O 0.0418 0.63204 0.16956 0.0
O30 O 0.10153 0.54586 0.15332 0.0
O31 O 0.1161 0.60066 0.13604 0.0
H32 H 0.94901 0.43158 0.13713 0.0
H33 H 0.8878 0.38622 0.14338 0.0
H34 H 0.91364 0.40153 0.20587 0.0
H35 H 0.97468 0.44681 0.19963 0.0
H36 H 0.13306 0.68987 0.15961 0.0
H37 H 0.19169 0.73668 0.17089 0.0
H38 H 0.19128 0.79504 0.11603 0.0
H39 H 0.13154 0.74848 0.10515 0.0
Pr40 Pr 0.5801 0.07554 0.51106 0.0
Pr41 Pr 0.4939 0.05179 0.51612 0.0
C42 C 0.65207 0.10678 0.49972 0.0
C43 C 0.67792 0.14369 0.49472 0.0
C44 C 0.69928 0.16832 0.50946 0.0
C45 C 0.72493 0.20231 0.50452 0.0
C46 C 0.72986 0.2124 0.48474 0.0
C47 C 0.70836 0.18783 0.47003 0.0
C48 C 0.68282 0.15383 0.47496 0.0
C49 C 0.55897 0.06115 0.54959 0.0
C50 C 0.53395 0.14214 0.51709 0.0
C51 C 0.4216 1.0185 0.52613 0.0
C52 C 0.39277 0.98351 0.52009 0.0
C53 C 0.39422 0.96678 0.50174 0.0
C54 C 0.36729 0.93316 0.49614 0.0
C55 C 0.33859 0.91532 0.50888 0.0
C56 C 0.33746 0.93217 0.52733 0.0
C57 C 0.36433 0.96599 0.53286 0.0
C58 C 0.51383 0.06349 0.47716 0.0
C59 C 0.54126 0.98463 0.51266 0.0
O60 O 0.62307 0.09207 0.48737 0.0
O61 O 0.64357 0.10095 0.51811 0.0
O62 O 0.54379 0.07909 0.53745 0.0
O63 O 0.58753 0.05148 0.54232 0.0
O64 O 0.50556 0.11574 0.52419 0.0
O65 O 0.56285 0.13312 0.50891 0.0
O66 O 0.45191 1.01453 0.53613 0.0
O67 O 0.42989 1.04443 0.5128 0.0
O68 O 0.52995 0.04684 0.48959 0.0
O69 O 0.48519 0.07285 0.48444 0.0
O70 O 0.57221 1.01067 0.50772 0.0
O71 O 0.50978 0.99367 0.51739 0.0
H72 H 0.69647 0.16127 0.52484 0.0
H73 H 0.74082 0.22075 0.51621 0.0
H74 H 0.71193 0.19444 0.45464 0.0
H75 H 0.66724 0.13525 0.46324 0.0
H76 H 0.41619 0.97975 0.49171 0.0
H77 H 0.36875 0.9214 0.48172 0.0
H78 H 0.31618 0.91897 0.53763 0.0
H79 H 0.36308 0.97832 0.54718 0.0
Pr80 Pr 0.52696 0.54956 0.81452 0.0
Pr81 Pr 0.55151 0.6297 0.82957 0.0
C82 C 0.52145 0.48372 0.79652 0.0
C83 C 0.54161 0.45429 0.79975 0.0
C84 C 0.52759 0.42521 0.81292 0.0
C85 C 0.54733 0.39829 0.81669 0.0
C86 C 0.58135 0.3996 0.80726 0.0
C87 C 0.59538 0.42855 0.79403 0.0
C88 C 0.57572 0.45567 0.79032 0.0
C89 C 0.52487 0.55611 0.85511 0.0
C90 C 0.62131 0.59175 0.82463 0.0
C91 C 0.55604 0.69349 0.84961 0.0
C92 C 0.52666 0.70861 0.8581 0.0
C93 C 0.53038 0.74715 0.8574 0.0
C94 C 0.49976 0.76114 0.86221 0.0
C95 C 0.4648 0.73672 0.8677 0.0
C96 C 0.46197 0.69832 0.86948 0.0
C97 C 0.49273 0.68438 0.86477 0.0
C98 C 0.55397 0.62192 0.78894 0.0
C99 C 0.45846 0.58772 0.81998 0.0
O100 O 0.54167 0.51577 0.7898 0.0
O101 O 0.49843 0.48772 0.81013 0.0
O102 O 0.55134 0.57479 0.84487 0.0
O103 O 0.49927 0.53151 0.84457 0.0
O104 O 0.61223 0.62044 0.83261 0.0
O105 O 0.59488 0.56344 0.81613 0.0
O106 O 0.56193 0.66362 0.8579 0.0
O107 O 0.55473 0.69158 0.83041 0.0
O108 O 0.52713 0.60417 0.79925 0.0
O109 O 0.58029 0.64613 0.79944 0.0
O110 O 0.46868 0.56389 0.8084 0.0
O111 O 0.48425 0.61111 0.83164 0.0
H112 H 0.50127 0.42313 0.82033 0.0
H113 H 0.53528 0.37576 0.82658 0.0
H114 H 0.62147 0.4301 0.78649 0.0
H115 H 0.58729 0.47771 0.78008 0.0
H116 H 0.55623 0.76621 0.85218 0.0
H117 H 0.5027 0.79081 0.86039 0.0
H118 H 0.43549 0.67891 0.87375 0.0
H119 H 0.48929 0.65444 0.86546 0.0
H120 H 0.49947 1.01911 0.2631 0.0
H121 H 0.59714 0.11557 0.26786 0.0
H122 H 0.54744 0.07381 0.21076 0.0
C123 C 0.52089 1.04091 0.25612 0.0
C124 C 0.52058 1.04288 0.23552 0.0
C125 C 0.54837 0.0671 0.26781 0.0
C126 C 0.57584 0.09542 0.25878 0.0
C127 C 0.57563 0.09837 0.2382 0.0
C128 C 0.5479 0.07184 0.22663 0.0
H129 H 0.55196 0.63029 0.57383 0.0
H130 H 0.54232 0.51257 0.57839 0.0
H131 H 0.53861 0.56194 0.52128 0.0
C132 C 0.54921 0.60327 0.56684 0.0
C133 C 0.54575 0.60022 0.54627 0.0
C134 C 0.54775 0.57187 0.57852 0.0
C135 C 0.543 0.5368 0.56938 0.0
C136 C 0.53998 0.53259 0.54878 0.0
C137 C 0.54144 0.56469 0.53714 0.0
H138 H 0.9823 0.5737 0.89402 0.0
H139 H 0.10239 0.57851 0.89586 0.0
H140 H 0.04196 0.58318 0.84034 0.0
C141 C 1.00846 0.57515 0.88654 0.0
C142 C 1.00816 0.57782 0.86602 0.0
C143 C 0.04237 0.57563 0.89747 0.0
C144 C 0.0762 0.57875 0.88755 0.0
C145 C 0.07646 0.58132 0.86695 0.0
C146 C 0.0421 0.58063 0.85618 0.0
H147 H 0.99682 0.51681 0.38745 0.0
H148 H 0.09057 0.61658 0.39415 0.0
H149 H 0.03734 0.56182 0.44532 0.0
C150 C 1.01633 0.53779 0.3969 0.0
C151 C 1.01352 0.53573 0.41742 0.0
C152 C 0.04387 0.56697 0.38844 0.0
C153 C 0.0693 0.59395 0.40067 0.0
C154 C 0.06738 0.59213 0.42119 0.0
C155 C 0.03925 0.56307 0.42949 0.0
H156 H 0.51061 0.04712 0.74609 0.0
H157 H 0.41116 0.95504 0.75287 0.0
H158 H 0.45512 1.0332 0.80101 0.0
C159 C 0.48799 1.03189 0.75523 0.0
C160 C 0.48663 1.04374 0.77468 0.0
C161 C 0.46003 1.00087 0.74721 0.0
C162 C 0.43138 0.98006 0.75904 0.0
C163 C 0.43024 0.99052 0.77888 0.0
C164 C 0.45713 1.02337 0.78622 0.0
H165 H 0.47677 0.57362 0.06959 0.0
H166 H 0.59608 0.57703 0.06809 0.0
H167 H 0.54455 0.5784 0.12371 0.0
C168 C 0.50406 0.57494 0.07723 0.0
C169 C 0.50677 0.57615 0.09789 0.0
C170 C 0.53593 0.57459 0.06638 0.0
C171 C 0.57105 0.57637 0.07639 0.0
C172 C 0.57455 0.57793 0.097 0.0
C173 C 0.54203 0.57694 0.1078 0.0
C174 C 0.19418 0.6023 0.13539 0.0
C175 C 0.16756 0.57263 0.14418 0.0
C176 C 0.23258 0.60223 0.13438 0.0
C177 C 0.29607 0.53927 0.13524 0.0
H178 H 0.37574 0.63355 0.13925 0.0
C179 C 0.45655 0.55026 0.12229 0.0
C180 C 0.47256 0.57776 0.10865 0.0
C181 C 0.42129 0.54938 0.13033 0.0
C182 C 0.35384 0.60698 0.13812 0.0
H183 H 0.1608 0.5197 0.15904 0.0
H184 H 0.22823 0.51972 0.1574 0.0
H185 H 0.31003 0.63192 0.14654 0.0
H186 H 0.46545 0.62675 0.09335 0.0
H187 H 0.40456 0.6257 0.10754 0.0
H188 H 0.34007 0.51456 0.12651 0.0
C189 C 0.21912 0.5429 0.15111 0.0
C190 C 0.31612 0.60603 0.14222 0.0
C191 C 0.1805 0.54297 0.15214 0.0
C192 C 0.45368 0.60526 0.10385 0.0
C193 C 0.41891 0.60473 0.11205 0.0
C194 C 0.33395 0.54019 0.13125 0.0
C195 C 0.24564 0.57255 0.14218 0.0
C196 C 0.2865 0.57239 0.14029 0.0
C197 C 0.4019 0.5764 0.1251 0.0
C198 C 0.36305 0.57426 0.13213 0.0
H199 H 0.18539 0.62563 0.12906 0.0
H200 H 0.25188 0.62519 0.12705 0.0
H201 H 0.27401 0.51292 0.13347 0.0
H202 H 0.47048 0.52862 0.12611 0.0
H203 H 0.40896 0.52733 0.14042 0.0
C204 C 0.7944 0.25969 0.4891 0.0
C205 C 0.75793 0.24798 0.47937 0.0
C206 C 0.82141 0.29223 0.48341 0.0
C207 C 0.84579 0.35429 0.44094 0.0
H208 H 0.91196 0.42309 0.47902 0.0
C209 C 0.94595 0.49453 0.41751 0.0
C210 C 0.98348 0.50507 0.42605 0.0
C211 C 0.91807 0.46448 0.42487 0.0
C212 C 0.89394 0.40395 0.4682 0.0
H213 H 0.72081 0.26211 0.45652 0.0
H214 H 0.76783 0.31884 0.44662 0.0
H215 H 0.86376 0.36828 0.49034 0.0
H216 H 1.02098 0.49267 0.44924 0.0
H217 H 0.97223 0.43996 0.46209 0.0
H218 H 0.87598 0.38963 0.41881 0.0
C219 C 0.77583 0.30248 0.45841 0.0
C220 C 0.86632 0.37256 0.47468 0.0
C221 C 0.74886 0.26997 0.46408 0.0
C222 C 0.99223 0.48542 0.44245 0.0
C223 C 0.96429 0.45525 0.44981 0.0
C224 C 0.87335 0.38559 0.43447 0.0
C225 C 0.81258 0.3138 0.46785 0.0
C226 C 0.84186 0.34739 0.46112 0.0
C227 C 0.927 0.44414 0.44094 0.0
C228 C 0.89771 0.41088 0.448 0.0
H229 H 0.80249 0.24314 0.50077 0.0
H230 H 0.84959 0.29989 0.49084 0.0
H231 H 0.82798 0.3351 0.43008 0.0
H232 H 0.93809 0.50958 0.40511 0.0
H233 H 0.88943 0.45721 0.41795 0.0
C234 C 0.39598 0.73224 0.85843 0.0
C235 C 0.43039 0.75095 0.86878 0.0
C236 C 0.36758 0.75067 0.85437 0.0
C237 C 0.34788 0.84497 0.8595 0.0
H238 H 0.34389 0.83828 0.80265 0.0
C239 C 0.41606 0.96261 0.81212 0.0
C240 C 0.40376 0.96556 0.79243 0.0
C241 C 0.39469 0.93536 0.8242 0.0
C242 C 0.34328 0.8402 0.81849 0.0
H243 H 0.45955 0.80114 0.88553 0.0
H244 H 0.41115 0.83372 0.87802 0.0
H245 H 0.34976 0.78511 0.82163 0.0
H246 H 0.35693 0.94387 0.77076 0.0
H247 H 0.32079 0.89445 0.79169 0.0
H248 H 0.34589 0.90189 0.85605 0.0
C249 C 0.40548 0.80488 0.87301 0.0
C250 C 0.34668 0.80948 0.82951 0.0
C251 C 0.43368 0.78641 0.87714 0.0
C252 C 0.36798 0.94189 0.78563 0.0
C253 C 0.3469 0.91392 0.79768 0.0
C254 C 0.34478 0.87584 0.84845 0.0
C255 C 0.37334 0.78822 0.86043 0.0
C256 C 0.35252 0.81273 0.85009 0.0
C257 C 0.36077 0.90965 0.81689 0.0
C258 C 0.34584 0.87464 0.82787 0.0
H259 H 0.39247 0.70477 0.85187 0.0
H260 H 0.34279 0.73669 0.84502 0.0
H261 H 0.35092 0.84792 0.87536 0.0
H262 H 0.44364 0.97948 0.81798 0.0
H263 H 0.4067 0.93238 0.83877 0.0
C264 C 0.91603 0.60997 0.1267 0.0
C265 C 0.92654 0.58134 0.13714 0.0
C266 C 0.87753 0.61014 0.12441 0.0
C267 C 0.78108 0.57163 0.14412 0.0
H268 H 0.74672 0.5981 0.0928 0.0
C269 C 0.62022 0.55465 0.11926 0.0
C270 C 0.61305 0.58213 0.10663 0.0
C271 C 0.6581 0.55543 0.12517 0.0
C272 C 0.75587 0.59114 0.10732 0.0
H273 H 0.90462 0.53066 0.15368 0.0
H274 H 0.83724 0.53077 0.14949 0.0
H275 H 0.81309 0.59715 0.09856 0.0
H276 H 0.63913 0.63331 0.09147 0.0
H277 H 0.70481 0.63533 0.10212 0.0
H278 H 0.72337 0.56538 0.15275 0.0
C279 C 0.85893 0.55332 0.14323 0.0
C280 C 0.79403 0.59057 0.11062 0.0
C281 C 0.89757 0.55315 0.14553 0.0
C282 C 0.644 0.61162 0.10107 0.0
C283 C 0.68161 0.61255 0.10704 0.0
C284 C 0.74269 0.57219 0.14081 0.0
C285 C 0.84841 0.58163 0.13246 0.0
C286 C 0.8073 0.58117 0.12909 0.0
C287 C 0.6893 0.58378 0.11857 0.0
C288 C 0.72976 0.58236 0.1224 0.0
H289 H 0.93753 0.6323 0.12017 0.0
H290 H 0.87059 0.63277 0.11634 0.0
H291 H 0.7904 0.56446 0.15857 0.0
H292 H 0.59677 0.53151 0.12362 0.0
H293 H 0.66302 0.53283 0.13404 0.0
C294 C 0.32105 0.85213 0.49189 0.0
C295 C 0.31 0.8794 0.50284 0.0
C296 C 0.29403 0.81908 0.48551 0.0
C297 C 0.18931 0.77901 0.47578 0.0
H298 H 0.21774 0.68565 0.47181 0.0
C299 C 0.0813 0.64018 0.44858 0.0
C300 C 0.09461 0.62115 0.43375 0.0
C301 C 0.10677 0.66971 0.45923 0.0
C302 C 0.20942 0.71155 0.47281 0.0
H303 H 0.26165 0.89281 0.51587 0.0
H304 H 0.21481 0.83462 0.50534 0.0
H305 H 0.26357 0.74096 0.48655 0.0
H306 H 0.14506 0.61695 0.41898 0.0
H307 H 0.18954 0.66827 0.43764 0.0
H308 H 0.13512 0.7494 0.462 0.0
C309 C 0.2443 0.83913 0.50134 0.0
C310 C 0.23572 0.74331 0.48118 0.0
C311 C 0.27131 0.87234 0.50761 0.0
C312 C 0.13401 0.63133 0.43024 0.0
C313 C 0.15949 0.6605 0.44102 0.0
C314 C 0.1629 0.74713 0.46757 0.0
C315 C 0.25524 0.81221 0.49005 0.0
C316 C 0.22625 0.77765 0.48248 0.0
C317 C 0.14608 0.68038 0.45543 0.0
C318 C 0.17289 0.71322 0.46572 0.0
H319 H 0.35067 0.85627 0.48819 0.0
H320 H 0.30351 0.79929 0.47665 0.0
H321 H 0.18114 0.80502 0.47625 0.0
H322 H 0.05103 0.63302 0.4515 0.0
H323 H 0.09569 0.68439 0.47035 0.0
C324 C 0.6088 0.35079 0.79329 0.0
C325 C 0.59956 0.36855 0.80985 0.0
C326 C 0.61735 0.31642 0.79505 0.0
C327 C 0.5865 0.23499 0.82578 0.0
H328 H 0.63292 0.1916 0.78491 0.0
C329 C 0.52925 0.07982 0.80252 0.0
C330 C 0.5156 0.07773 0.78274 0.0
C331 C 0.55475 0.11276 0.81023 0.0
C332 C 0.62043 0.20329 0.7967 0.0
H333 H 0.59675 0.3669 0.84155 0.0
H334 H 0.61222 0.30688 0.84472 0.0
H335 H 0.65527 0.25893 0.79194 0.0
H336 H 0.51892 0.10869 0.75554 0.0
H337 H 0.56398 0.16526 0.76881 0.0
H338 H 0.55027 0.17967 0.82976 0.0
C339 C 0.61184 0.31898 0.83029 0.0
C340 C 0.63303 0.2418 0.80067 0.0
C341 C 0.60297 0.35329 0.82848 0.0
C342 C 0.5293 0.10881 0.7707 0.0
C343 C 0.55525 0.14132 0.77829 0.0
C344 C 0.57429 0.19645 0.82198 0.0
C345 C 0.61702 0.29916 0.81345 0.0
C346 C 0.61426 0.25843 0.81426 0.0
C347 C 0.56768 0.14387 0.79819 0.0
C348 C 0.5894 0.18077 0.80653 0.0
H349 H 0.60627 0.3618 0.77873 0.0
H350 H 0.62076 0.30199 0.7817 0.0
H351 H 0.57123 0.24663 0.83634 0.0
H352 H 0.51992 0.05619 0.81213 0.0
H353 H 0.56383 0.1142 0.82565 0.0
C354 C 0.50731 0.91559 0.51535 0.0
C355 C 0.54157 0.94417 0.51325 0.0
C356 C 0.50744 0.87774 0.51654 0.0
C357 C 0.56878 0.81167 0.50833 0.0
H358 H 0.49522 0.74625 0.54106 0.0
C359 C 0.57942 0.66357 0.53347 0.0
C360 C 0.54517 0.63495 0.5353 0.0
C361 C 0.57863 0.70012 0.52829 0.0
C362 C 0.51567 0.76387 0.53161 0.0
H363 H 0.60301 0.95465 0.51074 0.0
H364 H 0.60349 0.88908 0.51333 0.0
H365 H 0.49499 0.81149 0.53762 0.0
H366 H 0.48324 0.62234 0.53305 0.0
H367 H 0.48163 0.6858 0.52374 0.0
H368 H 0.59006 0.76391 0.50286 0.0
C369 C 0.57618 0.89567 0.51362 0.0
C370 C 0.51554 0.8016 0.52959 0.0
C371 C 0.57598 0.93357 0.51224 0.0
C372 C 0.51011 0.6435 0.53123 0.0
C373 C 0.50926 0.68011 0.52623 0.0
C374 C 0.56912 0.77394 0.51051 0.0
C375 C 0.54191 0.86699 0.51589 0.0
C376 C 0.54206 0.82631 0.51789 0.0
C377 C 0.54349 0.7093 0.52518 0.0
C378 C 0.54253 0.74938 0.52218 0.0
H379 H 0.48013 0.9224 0.51603 0.0
H380 H 0.48023 0.85687 0.51782 0.0
H381 H 0.58932 0.82921 0.49891 0.0
H382 H 0.60684 0.65815 0.53711 0.0
H383 H 0.6056 0.72169 0.52785 0.0
C384 C 0.67213 0.55746 0.82194 0.0
C385 C 0.66208 0.59087 0.82567 0.0
C386 C 0.71054 0.55647 0.82385 0.0
C387 C 0.80442 0.60932 0.84752 0.0
H388 H 0.84553 0.54588 0.81427 0.0
C389 C 0.9644 0.6147 0.8534 0.0
C390 C 0.97234 0.57987 0.85543 0.0
C391 C 0.92767 0.61657 0.84712 0.0
C392 C 0.83437 0.56365 0.82369 0.0
H393 H 0.68477 0.64977 0.83355 0.0
H394 H 0.75151 0.64838 0.83629 0.0
H395 H 0.77907 0.54832 0.8085 0.0
H396 H 0.94904 0.51981 0.85211 0.0
H397 H 0.88464 0.52294 0.8408 0.0
H398 H 0.85967 0.62479 0.86262 0.0
C399 C 0.72976 0.62256 0.8325 0.0
C400 C 0.79623 0.56495 0.82046 0.0
C401 C 0.6914 0.62344 0.83082 0.0
C402 C 0.94356 0.54697 0.8503 0.0
C403 C 0.90681 0.54882 0.84387 0.0
C404 C 0.84252 0.6083 0.8506 0.0
C405 C 0.73989 0.58896 0.82934 0.0
C406 C 0.78069 0.58777 0.83238 0.0
C407 C 0.89817 0.58361 0.84278 0.0
C408 C 0.85797 0.58543 0.83876 0.0
H409 H 0.65023 0.53181 0.81798 0.0
H410 H 0.71704 0.52997 0.82151 0.0
H411 H 0.79339 0.62651 0.85735 0.0
H412 H 0.98614 0.64035 0.85755 0.0
H413 H 0.92201 0.64379 0.84623 0.0
C414 C 0.23805 0.8363 0.14747 0.0
C415 C 0.23246 0.79791 0.15129 0.0
C416 C 0.27101 0.86292 0.15498 0.0
C417 C 0.34355 0.877 0.19559 0.0
H418 H 0.40211 0.9588 0.16481 0.0
C419 C 0.4839 0.97649 0.22758 0.0
C420 C 0.49104 1.01485 0.22354 0.0
C421 C 0.45414 0.95009 0.21745 0.0
C422 C 0.38583 0.93639 0.17368 0.0
H423 H 0.25827 0.75743 0.16523 0.0
H424 H 0.31519 0.80386 0.1786 0.0
H425 H 0.34642 0.91289 0.14952 0.0
H426 H 0.47322 0.05567 0.20547 0.0
H427 H 0.42051 1.00965 0.18801 0.0
H428 H 0.38193 0.90064 0.21987 0.0
C429 C 0.29382 0.81336 0.17 0.0
C430 C 0.35399 0.91006 0.16489 0.0
C431 C 0.26111 0.78678 0.16238 0.0
C432 C 0.46848 1.02622 0.20876 0.0
C433 C 0.43835 0.9998 0.19875 0.0
C434 C 0.37505 0.90343 0.20441 0.0
C435 C 0.29894 0.85175 0.16659 0.0
C436 C 0.33266 0.87998 0.17574 0.0
C437 C 0.43042 0.96142 0.20318 0.0
C438 C 0.39681 0.93339 0.19357 0.0
H439 H 0.21644 0.84597 0.13917 0.0
H440 H 0.27405 0.89235 0.15224 0.0
H441 H 0.32724 0.85452 0.20443 0.0
H442 H 0.50124 0.96692 0.23871 0.0
H443 H 0.44961 0.92075 0.22093 0.0
C444 C 0.50408 0.19299 0.52783 0.0
C445 C 0.53381 0.18261 0.51863 0.0
C446 C 0.50411 0.23086 0.52955 0.0
C447 C 0.5469 0.32675 0.50957 0.0
H448 H 0.51205 0.35967 0.55766 0.0
C449 C 0.56272 0.48555 0.52872 0.0
C450 C 0.53491 0.49398 0.54034 0.0
C451 C 0.56178 0.44795 0.52447 0.0
C452 C 0.52132 0.3511 0.54394 0.0
H453 H 0.58689 0.20474 0.50387 0.0
H454 H 0.58705 0.27055 0.50696 0.0
H455 H 0.51225 0.29456 0.55368 0.0
H456 H 0.48324 0.46947 0.55568 0.0
H457 H 0.48062 0.40463 0.54775 0.0
H458 H 0.55603 0.38355 0.49988 0.0
C459 C 0.5634 0.24934 0.51271 0.0
C460 C 0.52149 0.31343 0.54167 0.0
C461 C 0.56343 0.21142 0.51104 0.0
C462 C 0.50512 0.464 0.54669 0.0
C463 C 0.50399 0.42665 0.54235 0.0
C464 C 0.54663 0.36456 0.51182 0.0
C465 C 0.53383 0.25978 0.5221 0.0
C466 C 0.53411 0.30045 0.52442 0.0
C467 C 0.53293 0.41778 0.53169 0.0
C468 C 0.5336 0.37739 0.52902 0.0
H469 H 0.48064 0.17183 0.53379 0.0
H470 H 0.48045 0.23739 0.5366 0.0
H471 H 0.5565 0.31802 0.49597 0.0
H472 H 0.58638 0.50792 0.52386 0.0
H473 H 0.58474 0.4426 0.51629 0.0
C474 C 0.38826 0.56186 0.80975 0.0
C475 C 0.4176 0.58816 0.82052 0.0
C476 C 0.34971 0.56199 0.81107 0.0
C477 C 0.28862 0.62201 0.82723 0.0
H478 H 0.21164 0.52745 0.83341 0.0
C479 C 0.14686 0.61109 0.86443 0.0
C480 C 0.11306 0.58516 0.85708 0.0
C481 C 0.18218 0.61264 0.85655 0.0
C482 C 0.23263 0.55407 0.83136 0.0
H483 H 0.42925 0.63553 0.84085 0.0
H484 H 0.36271 0.63528 0.84345 0.0
H485 H 0.277 0.52753 0.82595 0.0
H486 H 0.08959 0.54114 0.83535 0.0
H487 H 0.15169 0.5437 0.82153 0.0
H488 H 0.24459 0.64854 0.83328 0.0
C489 C 0.36924 0.61493 0.8337 0.0
C490 C 0.27013 0.55413 0.82708 0.0
C491 C 0.40754 0.61481 0.83237 0.0
C492 C 0.11518 0.56151 0.84124 0.0
C493 C 0.15072 0.56277 0.83346 0.0
C494 C 0.25124 0.62193 0.83158 0.0
C495 C 0.33973 0.58849 0.82314 0.0
C496 C 0.29884 0.58814 0.82541 0.0
C497 C 0.18469 0.58811 0.84119 0.0
C498 C 0.223 0.588 0.83413 0.0
H499 H 0.39497 0.54097 0.80044 0.0
H500 H 0.32776 0.5414 0.80261 0.0
H501 H 0.30972 0.64872 0.82561 0.0
H502 H 0.14606 0.62984 0.87655 0.0
H503 H 0.20777 0.63222 0.863 0.0
C504 C 0.83626 0.36862 0.19407 0.0
C505 C 0.85921 0.36214 0.17909 0.0
C506 C 0.80324 0.34109 0.19882 0.0
C507 C 0.73363 0.25245 0.18109 0.0
H508 H 0.71783 0.23762 0.23672 0.0
C509 C 0.62428 0.12295 0.21281 0.0
C510 C 0.60428 0.12951 0.22907 0.0
C511 C 0.6534 0.15195 0.20534 0.0
C512 C 0.72148 0.24167 0.22111 0.0
H513 H 0.86503 0.32194 0.15705 0.0
H514 H 0.80746 0.27363 0.16547 0.0
H515 H 0.77197 0.28708 0.2262 0.0
H516 H 0.5975 0.17211 0.24943 0.0
H517 H 0.64806 0.22253 0.23644 0.0
H518 H 0.68316 0.20648 0.17613 0.0
C519 C 0.81473 0.30023 0.17338 0.0
C520 C 0.75255 0.2701 0.21507 0.0
C521 C 0.84775 0.32789 0.16856 0.0
C522 C 0.61298 0.16596 0.23718 0.0
C523 C 0.64196 0.19484 0.22974 0.0
C524 C 0.70247 0.22385 0.18717 0.0
C525 C 0.79243 0.30628 0.18879 0.0
C526 C 0.75898 0.27599 0.19499 0.0
C527 C 0.66305 0.18806 0.21398 0.0
C528 C 0.69598 0.21827 0.20726 0.0
H529 H 0.84394 0.39499 0.2022 0.0
H530 H 0.78626 0.34703 0.21047 0.0
H531 H 0.73756 0.25643 0.16551 0.0
H532 H 0.61835 0.09512 0.20631 0.0
H533 H 0.66927 0.14576 0.19326 0.0
C534 C 0.02977 0.58066 0.07767 0.0
C535 C 0.04409 0.55312 0.08697 0.0
C536 C 0.02993 0.58398 0.05721 0.0
C537 C 0.05375 0.59754 0.01481 0.0
H538 H 0.02438 0.50639 0.98291 0.0
C539 C 0.07263 0.59681 0.93096 0.0
C540 C 0.04252 0.57344 0.91925 0.0
C541 C 0.07261 0.59493 0.95145 0.0
C542 C 0.0324 0.53212 -0.0084 0.0
H543 H 0.07046 0.50798 0.08231 0.0
H544 H 0.07091 0.51386 0.04668 0.0
H545 H 0.02445 0.50232 0.01861 0.0
H546 H 0.98895 0.52958 0.91991 0.0
H547 H 0.98871 0.52658 0.95567 0.0
H548 H 0.06123 0.62733 0.98775 0.0
C549 C 0.05907 0.53255 0.0551 0.0
C550 C 0.03285 0.52978 0.01206 0.0
C551 C 0.05901 0.52931 0.07552 0.0
C552 C 1.01241 0.54816 0.92851 0.0
C553 C 1.01247 0.54618 0.94899 0.0
C554 C 0.05344 0.59988 -0.00568 0.0
C555 C 0.04431 0.55976 0.04569 0.0
C556 C 0.04359 0.56244 0.02392 0.0
C557 C 0.04257 0.56954 0.9607 0.0
C558 C 0.04277 0.56718 0.98248 0.0
H559 H 1.01815 0.59943 0.08617 0.0
H560 H 1.01809 0.60504 0.0504 0.0
H561 H 0.06244 0.62321 0.02353 0.0
H562 H 0.09604 0.61686 0.92427 0.0
H563 H 0.0964 0.61306 0.96004 0.0
C564 C 0.55322 0.0561 0.44882 0.0
C565 C 0.52125 0.06551 0.45602 0.0
C566 C 0.55953 0.05777 0.42867 0.0
C567 C 0.5285 0.0963 0.38199 0.0
H568 H 0.56826 1.02089 0.35744 0.0
C569 C 0.51335 0.0653 0.29871 0.0
C570 C 0.54741 0.06589 0.28951 0.0
C571 C 0.5127 0.06605 0.31918 0.0
C572 C 0.55741 1.04226 0.36417 0.0
H573 H 0.47064 0.08366 0.44787 0.0
H574 H 0.48056 0.08509 0.41289 0.0
H575 H 0.56256 1.02107 0.39304 0.0
H576 H 0.60722 0.06684 0.29434 0.0
H577 H 0.60579 0.06716 0.33034 0.0
H578 H 0.52188 0.11636 0.35294 0.0
C579 C 0.50164 0.07763 0.42267 0.0
C580 C 0.55432 1.04255 0.38457 0.0
C581 C 0.4957 0.07649 0.44276 0.0
C582 C 0.58065 0.06648 0.30113 0.0
C583 C 0.5798 0.06651 0.32165 0.0
C584 C 0.53097 0.09556 0.36161 0.0
C585 C 0.53368 0.06842 0.4153 0.0
C586 C 0.53939 0.06935 0.39374 0.0
C587 C 0.54592 0.06676 0.33083 0.0
C588 C 0.5451 0.06835 0.35251 0.0
H589 H 0.57336 0.04752 0.45875 0.0
H590 H 0.58478 0.05095 0.42362 0.0
H591 H 0.51788 0.11801 0.38849 0.0
H592 H 0.48744 0.0651 0.29005 0.0
H593 H 0.48616 0.06598 0.32594 0.0
C594 C 0.52627 0.58768 0.75767 0.0
C595 C 0.5546 0.61644 0.76748 0.0
C596 C 0.52682 0.58227 0.73737 0.0
C597 C 0.56283 0.63127 0.69227 0.0
H598 H 0.54278 0.53084 0.67015 0.0
C599 C 0.57784 0.60583 0.60972 0.0
C600 C 0.55039 0.57574 0.60032 0.0
C601 C 0.57957 0.61018 0.63016 0.0
C602 C 0.54798 0.55905 0.67604 0.0
H603 H 0.60584 0.66194 0.76382 0.0
H604 H 0.60672 0.65266 0.72829 0.0
H605 H 0.54327 0.53968 0.70566 0.0
H606 H 0.50314 0.52671 0.60502 0.0
H607 H 0.50574 0.53452 0.64066 0.0
H608 H 0.56693 0.65071 0.66272 0.0
C609 C 0.58395 0.63443 0.73628 0.0
C610 C 0.54834 0.56411 0.69641 0.0
C611 C 0.58355 0.63966 0.75661 0.0
C612 C 0.52494 0.54991 0.61185 0.0
C613 C 0.5265 0.55439 0.6323 0.0
C614 C 0.56225 0.62622 0.6719 0.0
C615 C 0.55558 0.60566 0.72642 0.0
C616 C 0.55573 0.60028 0.70477 0.0
C617 C 0.55373 0.5847 0.64173 0.0
C618 C 0.55479 0.59004 0.66349 0.0
H619 H 0.50363 0.56929 0.76568 0.0
H620 H 0.50435 0.56011 0.7302 0.0
H621 H 0.56807 0.65946 0.69822 0.0
H622 H 0.5982 0.6259 0.60125 0.0
H623 H 0.6014 0.63344 0.63691 0.0
C624 C 0.5092 0.05591 0.5744 0.0
C625 C 0.54401 0.04979 0.56903 0.0
C626 C 0.49438 1.04405 0.59258 0.0
C627 C 0.50469 0.98242 0.63456 0.0
H628 H 0.45708 0.04736 0.66299 0.0
C629 C 0.49433 0.98628 0.7186 0.0
C630 C 0.46077 0.99166 0.72617 0.0
C631 C 0.49831 0.98546 0.69835 0.0
C632 C 0.46966 1.02856 0.65509 0.0
H633 H 0.59086 1.02689 0.57839 0.0
H634 H 0.56598 1.00761 0.61046 0.0
H635 H 0.47724 0.06327 0.62982 0.0
H636 H 0.40434 0.99853 0.71876 0.0
H637 H 0.41144 0.99756 0.68314 0.0
H638 H 0.49882 0.9489 0.66043 0.0
C639 C 0.54936 1.02045 0.60047 0.0
C640 C 0.48124 1.03765 0.63604 0.0
C641 C 0.56389 1.03187 0.58218 0.0
C642 C 0.43033 0.99403 0.71319 0.0
C643 C 0.43452 0.99378 0.69289 0.0
C644 C 0.49354 0.97362 0.65372 0.0
C645 C 0.51435 1.0263 0.6059 0.0
C646 C 0.49945 1.01502 0.62562 0.0
C647 C 0.469 0.99058 0.68533 0.0
C648 C 0.47639 0.99689 0.66425 0.0
H649 H 0.49318 0.06953 0.56447 0.0
H650 H 0.46709 0.04856 0.59609 0.0
H651 H 0.51783 0.96387 0.62684 0.0
H652 H 0.5182 0.98455 0.7284 0.0
H653 H 0.52529 0.98325 0.69292 0.0
C654 C 0.4951 0.53555 0.88692 0.0
C655 C 0.52478 0.55922 0.87669 0.0
C656 C 0.49511 0.53787 0.90738 0.0
C657 C 0.517 0.5325 0.95065 0.0
H658 H 0.54195 0.62884 0.97787 0.0
C659 C 0.54927 0.54834 0.03435 0.0
C660 C 0.53286 0.57266 0.04459 0.0
C661 C 0.5471 0.54687 0.01384 0.0
C662 C 0.53468 0.60174 0.97046 0.0
H663 H 0.57752 0.60416 0.87972 0.0
H664 H 0.57749 0.60836 0.91556 0.0
H665 H 0.5401 0.62642 0.94196 0.0
H666 H 0.50145 0.61464 0.04136 0.0
H667 H 0.49751 0.61198 0.00542 0.0
H668 H 0.51149 0.50779 0.97909 0.0
C669 C 0.55411 0.58813 0.90774 0.0
C670 C 0.53399 0.60037 0.94993 0.0
C671 C 0.55423 0.58563 0.88726 0.0
C672 C 0.5141 0.59542 0.03386 0.0
C673 C 0.51217 0.59416 0.01331 0.0
C674 C 0.51796 0.53388 0.97116 0.0
C675 C 0.52468 0.56407 0.91803 0.0
C676 C 0.52516 0.56572 0.93981 0.0
C677 C 0.52866 0.56986 0.00309 0.0
C678 C 0.52688 0.5685 0.98129 0.0
H679 H 0.47191 0.51506 0.87913 0.0
H680 H 0.47179 0.51929 0.91488 0.0
H681 H 0.51044 0.50539 0.94328 0.0
H682 H 0.56364 0.53025 0.04223 0.0
H683 H 0.56038 0.52811 0.00638 0.0
C684 C 0.0428 0.62652 0.21209 0.0
C685 C 0.05278 0.60044 0.19985 0.0
C686 C 0.04292 0.62199 0.23242 0.0
C687 C 0.03302 0.55238 0.27077 0.0
H688 H 0.08688 0.63653 0.30446 0.0
C689 C 0.04672 0.53876 0.35522 0.0
C690 C 0.04559 0.56982 0.36681 0.0
C691 C 0.04868 0.54174 0.33481 0.0
C692 C 0.07117 0.61288 0.29533 0.0
H693 H 0.07037 0.549 0.19917 0.0
H694 H 0.06959 0.54054 0.23483 0.0
H695 H 0.0875 0.64304 0.26891 0.0
H696 H 0.04461 0.62798 0.36622 0.0
H697 H 0.04664 0.63299 0.33064 0.0
H698 H 1.01548 0.52251 0.29706 0.0
C699 C 0.06195 0.56458 0.22864 0.0
C700 C 0.07176 0.61661 0.27495 0.0
C701 C 0.06247 0.56946 0.20828 0.0
C702 C 0.046 0.60376 0.35762 0.0
C703 C 0.04738 0.60662 0.33722 0.0
C704 C 0.03191 0.54878 0.29118 0.0
C705 C 0.05244 0.59097 0.24089 0.0
C706 C 0.05259 0.58646 0.26248 0.0
C707 C 0.04898 0.57572 0.32552 0.0
C708 C 0.05084 0.57907 0.30375 0.0
H709 H 0.03518 0.65063 0.20596 0.0
H710 H 0.03516 0.64255 0.24155 0.0
H711 H 1.01774 0.52881 0.26144 0.0
H712 H 0.04675 0.51234 0.36199 0.0
H713 H 0.05049 0.51751 0.32637 0.0
loop_
_geom_bond_atom_site_label_1
_geom_bond_atom_site_label_2
_geom_bond_distance
_geom_bond_site_symmetry_2
_ccdc_geom_bond_type
Pr0 C2 2.880 . S
Pr0 O20 2.562 . S
Pr0 O21 2.490 . S
Pr0 O22 2.695 1_655 S
Pr0 O23 2.512 . S
Pr0 O25 2.437 . S
Pr0 O28 2.436 . S
Pr0 O30 2.438 1_655 S
Pr1 C11 2.880 . S
Pr1 O22 2.436 . S
Pr1 O24 2.438 1_455 S
Pr1 O26 2.562 . S
Pr1 O27 2.490 . S
Pr1 O28 2.695 1_455 S
Pr1 O29 2.512 . S
Pr1 O31 2.437 . S
C2 Pr0 2.880 . S
C2 C3 1.491 . S
C2 O20 1.254 . S
C2 O21 1.225 . S
C3 C2 1.491 . S
C3 C4 1.392 . S
C3 C8 1.356 . S
C4 C3 1.392 . S
C4 C5 1.368 . S
C4 H32 0.929 . S
C5 C4 1.368 . S
C5 C6 1.386 . S
C5 H33 0.929 . S
C6 C5 1.386 . S
C6 C7 1.373 . S
C7 C6 1.373 . S
C7 C8 1.409 . S
C7 H34 0.931 . S
C8 C3 1.356 . S
C8 C7 1.409 . S
C8 H35 0.930 . S
C9 O22 1.270 . S
C9 O23 1.248 1_455 S
C10 O24 1.267 . S
C10 O25 1.278 . S
C11 Pr1 2.880 . S
C11 C12 1.491 . S
C11 O26 1.254 . S
C11 O27 1.225 . S
C12 C11 1.491 . S
C12 C13 1.392 . S
C12 C17 1.356 . S
C13 C12 1.392 . S
C13 C14 1.368 . S
C13 H36 0.929 . S
C14 C13 1.368 . S
C14 C15 1.386 . S
C14 H37 0.929 . S
C15 C14 1.386 . S
C15 C16 1.373 . S
C16 C15 1.373 . S
C16 C17 1.409 . S
C16 H38 0.931 . S
C17 C12 1.356 . S
C17 C16 1.409 . S
C17 H39 0.930 . S
C18 O28 1.270 1_455 S
C18 O29 1.248 . S
C19 O30 1.267 . S
C19 O31 1.278 . S
O20 Pr0 2.562 . S
O20 C2 1.254 . S
O21 Pr0 2.490 . S
O21 C2 1.225 . S
O22 Pr0 2.695 1_455 S
O22 Pr1 2.436 . S
O22 C9 1.270 . S
O23 Pr0 2.512 . S
O23 C9 1.248 1_655 S
O24 Pr1 2.438 1_655 S
O24 C10 1.267 . S
O25 Pr0 2.437 . S
O25 C10 1.278 . S
O26 Pr1 2.562 . S
O26 C11 1.254 . S
O27 Pr1 2.490 . S
O27 C11 1.225 . S
O28 Pr0 2.436 . S
O28 Pr1 2.695 1_655 S
O28 C18 1.270 1_655 S
O29 Pr1 2.512 . S
O29 C18 1.248 . S
O30 Pr0 2.438 1_455 S
O30 C19 1.267 . S
O31 Pr1 2.437 . S
O31 C19 1.278 . S
H32 C4 0.929 . S
H33 C5 0.929 . S
H34 C7 0.931 . S
H35 C8 0.930 . S
H36 C13 0.929 . S
H37 C14 0.929 . S
H38 C16 0.931 . S
H39 C17 0.930 . S
Pr40 C42 2.880 . S
Pr40 O60 2.562 . S
Pr40 O61 2.490 . S
Pr40 O62 2.695 . S
Pr40 O63 2.512 . S
Pr40 O65 2.437 . S
Pr40 O68 2.436 . S
Pr40 O70 2.438 1_545 S
Pr41 C51 2.880 . S
Pr41 O62 2.436 1_565 S
Pr41 O64 2.438 1_565 S
Pr41 O66 2.562 . S
Pr41 O67 2.490 . S
Pr41 O68 2.695 1_565 S
Pr41 O69 2.512 . S
Pr41 O71 2.437 . S
C42 Pr40 2.880 . S
C42 C43 1.491 . S
C42 O60 1.254 . S
C42 O61 1.225 . S
C43 C42 1.491 . S
C43 C44 1.392 . S
C43 C48 1.356 . S
C44 C43 1.392 . S
C44 C45 1.368 . S
C44 H72 0.929 . S
C45 C44 1.368 . S
C45 C46 1.386 . S
C45 H73 0.929 . S
C46 C45 1.386 . S
C46 C47 1.373 . S
C47 C46 1.373 . S
C47 C48 1.409 . S
C47 H74 0.931 . S
C48 C43 1.356 . S
C48 C47 1.409 . S
C48 H75 0.930 . S
C49 O62 1.270 . S
C49 O63 1.248 . S
C50 O64 1.267 . S
C50 O65 1.278 . S
C51 Pr41 2.880 . S
C51 C52 1.491 . S
C51 O66 1.254 . S
C51 O67 1.225 . S
C52 C51 1.491 . S
C52 C53 1.392 . S
C52 C57 1.356 . S
C53 C52 1.392 . S
C53 C54 1.368 . S
C53 H76 0.929 . S
C54 C53 1.368 . S
C54 C55 1.386 . S
C54 H77 0.929 . S
C55 C54 1.386 . S
C55 C56 1.373 . S
C56 C55 1.373 . S
C56 C57 1.409 . S
C56 H78 0.931 . S
C57 C52 1.356 . S
C57 C56 1.409 . S
C57 H79 0.930 . S
C58 O68 1.270 . S
C58 O69 1.248 1_545 S
C59 O70 1.267 . S
C59 O71 1.278 . S
O60 Pr40 2.562 . S
O60 C42 1.254 . S
O61 Pr40 2.490 . S
O61 C42 1.225 . S
O62 Pr40 2.695 . S
O62 Pr41 2.436 1_545 S
O62 C49 1.270 . S
O63 Pr40 2.512 . S
O63 C49 1.248 . S
O64 Pr41 2.438 1_545 S
O64 C50 1.267 . S
O65 Pr40 2.437 . S
O65 C50 1.278 . S
O66 Pr41 2.562 . S
O66 C51 1.254 . S
O67 Pr41 2.490 . S
O67 C51 1.225 . S
O68 Pr40 2.436 . S
O68 Pr41 2.695 1_545 S
O68 C58 1.270 . S
O69 Pr41 2.512 . S
O69 C58 1.248 1_565 S
O70 Pr40 2.438 1_565 S
O70 C59 1.267 . S
O71 Pr41 2.437 . S
O71 C59 1.278 . S
H72 C44 0.929 . S
H73 C45 0.929 . S
H74 C47 0.931 . S
H75 C48 0.930 . S
H76 C53 0.929 . S
H77 C54 0.929 . S
H78 C56 0.931 . S
H79 C57 0.930 . S
Pr80 C82 2.880 . S
Pr80 O100 2.562 . S
Pr80 O101 2.490 . S
Pr80 O102 2.695 . S
Pr80 O103 2.512 . S
Pr80 O105 2.437 . S
Pr80 O108 2.436 . S
Pr80 O110 2.438 . S
Pr81 C91 2.880 . S
Pr81 O102 2.436 . S
Pr81 O104 2.438 . S
Pr81 O106 2.562 . S
Pr81 O107 2.490 . S
Pr81 O108 2.695 . S
Pr81 O109 2.512 . S
Pr81 O111 2.437 . S
C82 Pr80 2.880 . S
C82 C83 1.491 . S
C82 O100 1.254 . S
C82 O101 1.225 . S
C83 C82 1.491 . S
C83 C84 1.392 . S
C83 C88 1.356 . S
C84 C83 1.392 . S
C84 C85 1.368 . S
C84 H112 0.929 . S
C85 C84 1.368 . S
C85 C86 1.386 . S
C85 H113 0.929 . S
C86 C85 1.386 . S
C86 C87 1.373 . S
C87 C86 1.373 . S
C87 C88 1.409 . S
C87 H114 0.931 . S
C88 C83 1.356 . S
C88 C87 1.409 . S
C88 H115 0.930 . S
C89 O102 1.270 . S
C89 O103 1.248 . S
C90 O104 1.267 . S
C90 O105 1.278 . S
C91 Pr81 2.880 . S
C91 C92 1.491 . S
C91 O106 1.254 . S
C91 O107 1.225 . S
C92 C91 1.491 . S
C92 C93 1.392 . S
C92 C97 1.356 . S
C93 C92 1.392 . S
C93 C94 1.368 . S
C93 H116 0.929 . S
C94 C93 1.368 . S
C94 C95 1.386 . S
C94 H117 0.929 . S
C95 C94 1.386 . S
C95 C96 1.373 . S
C96 C95 1.373 . S
C96 C97 1.409 . S
C96 H118 0.931 . S
C97 C92 1.356 . S
C97 C96 1.409 . S
C97 H119 0.930 . S
C98 O108 1.270 . S
C98 O109 1.248 . S
C99 O110 1.267 . S
C99 O111 1.278 . S
O100 Pr80 2.562 . S
O100 C82 1.254 . S
O101 Pr80 2.490 . S
O101 C82 1.225 . S
O102 Pr80 2.695 . S
O102 Pr81 2.436 . S
O102 C89 1.270 . S
O103 Pr80 2.512 . S
O103 C89 1.248 . S
O104 Pr81 2.438 . S
O104 C90 1.267 . S
O105 Pr80 2.437 . S
O105 C90 1.278 . S
O106 Pr81 2.562 . S
O106 C91 1.254 . S
O107 Pr81 2.490 . S
O107 C91 1.225 . S
O108 Pr80 2.436 . S
O108 Pr81 2.695 . S
O108 C98 1.270 . S
O109 Pr81 2.512 . S
O109 C98 1.248 . S
O110 Pr80 2.438 . S
O110 C99 1.267 . S
O111 Pr81 2.437 . S
O111 C99 1.278 . S
H112 C84 0.929 . S
H113 C85 0.929 . S
H114 C87 0.931 . S
H115 C88 0.930 . S
H116 C93 0.929 . S
H117 C94 0.929 . S
H118 C96 0.931 . S
H119 C97 0.930 . S
H120 C123 0.931 1_565 S
H121 C126 0.928 . S
H122 C128 0.930 . S
C123 H120 0.931 1_545 S
C123 C124 1.413 . S
C123 C125 1.360 . S
C124 C123 1.413 . S
C124 C128 1.429 . S
C125 C123 1.360 . S
C125 C126 1.372 . S
C126 H121 0.928 . S
C126 C125 1.372 . S
C126 C127 1.404 . S
C127 C126 1.404 . S
C127 C128 1.391 . S
C128 H122 0.930 . S
C128 C124 1.429 . S
C128 C127 1.391 . S
H129 C132 0.931 . S
H130 C135 0.928 . S
H131 C137 0.930 . S
C132 H129 0.931 . S
C132 C133 1.413 . S
C132 C134 1.360 . S
C133 C132 1.413 . S
C133 C137 1.429 . S
C134 C132 1.360 . S
C134 C135 1.372 . S
C135 H130 0.928 . S
C135 C134 1.372 . S
C135 C136 1.404 . S
C136 C135 1.404 . S
C136 C137 1.391 . S
C137 H131 0.930 . S
C137 C133 1.429 . S
C137 C136 1.391 . S
H138 C141 0.931 . S
H139 C144 0.928 . S
H140 C146 0.930 . S
C141 H138 0.931 . S
C141 C142 1.413 . S
C141 C143 1.360 1_655 S
C142 C141 1.413 . S
C142 C146 1.429 1_655 S
C143 C141 1.360 1_455 S
C143 C144 1.372 . S
C144 H139 0.928 . S
C144 C143 1.372 . S
C144 C145 1.404 . S
C145 C144 1.404 . S
C145 C146 1.391 . S
C146 H140 0.930 . S
C146 C142 1.429 1_455 S
C146 C145 1.391 . S
H147 C150 0.931 . S
H148 C153 0.928 . S
H149 C155 0.930 . S
C150 H147 0.931 . S
C150 C151 1.413 . S
C150 C152 1.360 1_655 S
C151 C150 1.413 . S
C151 C155 1.429 1_655 S
C152 C150 1.360 1_455 S
C152 C153 1.372 . S
C153 H148 0.928 . S
C153 C152 1.372 . S
C153 C154 1.404 . S
C154 C153 1.404 . S
C154 C155 1.391 . S
C155 H149 0.930 . S
C155 C151 1.429 1_455 S
C155 C154 1.391 . S
H156 C159 0.931 . S
H157 C162 0.928 . S
H158 C164 0.930 . S
C159 H156 0.931 . S
C159 C160 1.413 . S
C159 C161 1.360 . S
C160 C159 1.413 . S
C160 C164 1.429 . S
C161 C159 1.360 . S
C161 C162 1.372 1_545 S
C162 H157 0.928 . S
C162 C161 1.372 1_565 S
C162 C163 1.404 . S
C163 C162 1.404 . S
C163 C164 1.391 1_565 S
C164 H158 0.930 . S
C164 C160 1.429 . S
C164 C163 1.391 1_545 S
H165 C168 0.931 . S
H166 C171 0.928 . S
H167 C173 0.930 . S
C168 H165 0.931 . S
C168 C169 1.413 . S
C168 C170 1.360 . S
C169 C168 1.413 . S
C169 C173 1.429 . S
C170 C168 1.360 . S
C170 C171 1.372 . S
C171 H166 0.928 . S
C171 C170 1.372 . S
C171 C172 1.404 . S
C172 C171 1.404 . S
C172 C173 1.391 . S
C173 H167 0.930 . S
C173 C169 1.429 . S
C173 C172 1.391 . S
C174 C175 1.349 . S
C174 C176 1.327 . S
C174 H199 0.950 . S
C175 C174 1.349 . S
C175 C191 1.349 . S
C176 C174 1.327 . S
C176 C195 1.429 . S
C176 H200 0.950 . S
C177 C194 1.574 . S
C177 C196 1.368 . S
C177 H201 0.949 . S
H178 C182 0.949 . S
C179 C180 1.349 . S
C179 C181 1.327 . S
C179 H202 0.950 . S
C180 C179 1.349 . S
C180 C192 1.349 . S
C181 C179 1.327 . S
C181 C197 1.429 . S
C181 H203 0.950 . S
C182 H178 0.949 . S
C182 C190 1.574 . S
C182 C198 1.368 . S
H183 C191 0.950 . S
H184 C189 0.950 . S
H185 C190 0.949 . S
H186 C192 0.950 . S
H187 C193 0.950 . S
H188 C194 0.949 . S
C189 H184 0.950 . S
C189 C191 1.327 . S
C189 C195 1.429 . S
C190 C182 1.574 . S
C190 H185 0.949 . S
C190 C196 1.368 . S
C191 C175 1.349 . S
C191 H183 0.950 . S
C191 C189 1.327 . S
C192 C180 1.349 . S
C192 H186 0.950 . S
C192 C193 1.327 . S
C193 H187 0.950 . S
C193 C192 1.327 . S
C193 C197 1.429 . S
C194 C177 1.574 . S
C194 H188 0.949 . S
C194 C198 1.368 . S
C195 C176 1.429 . S
C195 C189 1.429 . S
C195 C196 1.523 . S
C196 C177 1.368 . S
C196 C190 1.368 . S
C196 C195 1.523 . S
C197 C181 1.429 . S
C197 C193 1.429 . S
C197 C198 1.523 . S
C198 C182 1.368 . S
C198 C194 1.368 . S
C198 C197 1.523 . S
H199 C174 0.950 . S
H200 C176 0.950 . S
H201 C177 0.949 . S
H202 C179 0.950 . S
H203 C181 0.950 . S
C204 C205 1.349 . S
C204 C206 1.327 . S
C204 H229 0.950 . S
C205 C204 1.349 . S
C205 C221 1.349 . S
C206 C204 1.327 . S
C206 C225 1.429 . S
C206 H230 0.950 . S
C207 C224 1.574 . S
C207 C226 1.368 . S
C207 H231 0.949 . S
H208 C212 0.949 . S
C209 C210 1.349 . S
C209 C211 1.327 . S
C209 H232 0.950 . S
C210 C209 1.349 . S
C210 C222 1.349 . S
C211 C209 1.327 . S
C211 C227 1.429 . S
C211 H233 0.950 . S
C212 H208 0.949 . S
C212 C220 1.574 . S
C212 C228 1.368 . S
H213 C221 0.950 . S
H214 C219 0.950 . S
H215 C220 0.949 . S
H216 C222 0.950 . S
H217 C223 0.950 . S
H218 C224 0.949 . S
C219 H214 0.950 . S
C219 C221 1.327 . S
C219 C225 1.429 . S
C220 C212 1.574 . S
C220 H215 0.949 . S
C220 C226 1.368 . S
C221 C205 1.349 . S
C221 H213 0.950 . S
C221 C219 1.327 . S
C222 C210 1.349 . S
C222 H216 0.950 . S
C222 C223 1.327 . S
C223 H217 0.950 . S
C223 C222 1.327 . S
C223 C227 1.429 . S
C224 C207 1.574 . S
C224 H218 0.949 . S
C224 C228 1.368 . S
C225 C206 1.429 . S
C225 C219 1.429 . S
C225 C226 1.523 . S
C226 C207 1.368 . S
C226 C220 1.368 . S
C226 C225 1.523 . S
C227 C211 1.429 . S
C227 C223 1.429 . S
C227 C228 1.523 . S
C228 C212 1.368 . S
C228 C224 1.368 . S
C228 C227 1.523 . S
H229 C204 0.950 . S
H230 C206 0.950 . S
H231 C207 0.949 . S
H232 C209 0.950 . S
H233 C211 0.950 . S
C234 C235 1.349 . S
C234 C236 1.327 . S
C234 H259 0.950 . S
C235 C234 1.349 . S
C235 C251 1.349 . S
C236 C234 1.327 . S
C236 C255 1.429 . S
C236 H260 0.950 . S
C237 C254 1.574 . S
C237 C256 1.368 . S
C237 H261 0.949 . S
H238 C242 0.949 . S
C239 C240 1.349 . S
C239 C241 1.327 . S
C239 H262 0.950 . S
C240 C239 1.349 . S
C240 C252 1.349 . S
C241 C239 1.327 . S
C241 C257 1.429 . S
C241 H263 0.950 . S
C242 H238 0.949 . S
C242 C250 1.574 . S
C242 C258 1.368 . S
H243 C251 0.950 . S
H244 C249 0.950 . S
H245 C250 0.949 . S
H246 C252 0.950 . S
H247 C253 0.950 . S
H248 C254 0.949 . S
C249 H244 0.950 . S
C249 C251 1.327 . S
C249 C255 1.429 . S
C250 C242 1.574 . S
C250 H245 0.949 . S
C250 C256 1.368 . S
C251 C235 1.349 . S
C251 H243 0.950 . S
C251 C249 1.327 . S
C252 C240 1.349 . S
C252 H246 0.950 . S
C252 C253 1.327 . S
C253 H247 0.950 . S
C253 C252 1.327 . S
C253 C257 1.429 . S
C254 C237 1.574 . S
C254 H248 0.949 . S
C254 C258 1.368 . S
C255 C236 1.429 . S
C255 C249 1.429 . S
C255 C256 1.523 . S
C256 C237 1.368 . S
C256 C250 1.368 . S
C256 C255 1.523 . S
C257 C241 1.429 . S
C257 C253 1.429 . S
C257 C258 1.523 . S
C258 C242 1.368 . S
C258 C254 1.368 . S
C258 C257 1.523 . S
H259 C234 0.950 . S
H260 C236 0.950 . S
H261 C237 0.949 . S
H262 C239 0.950 . S
H263 C241 0.950 . S
C264 C265 1.349 . S
C264 C266 1.327 . S
C264 H289 0.950 . S
C265 C264 1.349 . S
C265 C281 1.349 . S
C266 C264 1.327 . S
C266 C285 1.429 . S
C266 H290 0.950 . S
C267 C284 1.574 . S
C267 C286 1.368 . S
C267 H291 0.949 . S
H268 C272 0.949 . S
C269 C270 1.349 . S
C269 C271 1.327 . S
C269 H292 0.950 . S
C270 C269 1.349 . S
C270 C282 1.349 . S
C271 C269 1.327 . S
C271 C287 1.429 . S
C271 H293 0.950 . S
C272 H268 0.949 . S
C272 C280 1.574 . S
C272 C288 1.368 . S
H273 C281 0.950 . S
H274 C279 0.950 . S
H275 C280 0.949 . S
H276 C282 0.950 . S
H277 C283 0.950 . S
H278 C284 0.949 . S
C279 H274 0.950 . S
C279 C281 1.327 . S
C279 C285 1.429 . S
C280 C272 1.574 . S
C280 H275 0.949 . S
C280 C286 1.368 . S
C281 C265 1.349 . S
C281 H273 0.950 . S
C281 C279 1.327 . S
C282 C270 1.349 . S
C282 H276 0.950 . S
C282 C283 1.327 . S
C283 H277 0.950 . S
C283 C282 1.327 . S
C283 C287 1.429 . S
C284 C267 1.574 . S
C284 H278 0.949 . S
C284 C288 1.368 . S
C285 C266 1.429 . S
C285 C279 1.429 . S
C285 C286 1.523 . S
C286 C267 1.368 . S
C286 C280 1.368 . S
C286 C285 1.523 . S
C287 C271 1.429 . S
C287 C283 1.429 . S
C287 C288 1.523 . S
C288 C272 1.368 . S
C288 C284 1.368 . S
C288 C287 1.523 . S
H289 C264 0.950 . S
H290 C266 0.950 . S
H291 C267 0.949 . S
H292 C269 0.950 . S
H293 C271 0.950 . S
C294 C295 1.349 . S
C294 C296 1.327 . S
C294 H319 0.950 . S
C295 C294 1.349 . S
C295 C311 1.349 . S
C296 C294 1.327 . S
C296 C315 1.429 . S
C296 H320 0.950 . S
C297 C314 1.574 . S
C297 C316 1.368 . S
C297 H321 0.949 . S
H298 C302 0.949 . S
C299 C300 1.349 . S
C299 C301 1.327 . S
C299 H322 0.950 . S
C300 C299 1.349 . S
C300 C312 1.349 . S
C301 C299 1.327 . S
C301 C317 1.429 . S
C301 H323 0.950 . S
C302 H298 0.949 . S
C302 C310 1.574 . S
C302 C318 1.368 . S
H303 C311 0.950 . S
H304 C309 0.950 . S
H305 C310 0.949 . S
H306 C312 0.950 . S
H307 C313 0.950 . S
H308 C314 0.949 . S
C309 H304 0.950 . S
C309 C311 1.327 . S
C309 C315 1.429 . S
C310 C302 1.574 . S
C310 H305 0.949 . S
C310 C316 1.368 . S
C311 C295 1.349 . S
C311 H303 0.950 . S
C311 C309 1.327 . S
C312 C300 1.349 . S
C312 H306 0.950 . S
C312 C313 1.327 . S
C313 H307 0.950 . S
C313 C312 1.327 . S
C313 C317 1.429 . S
C314 C297 1.574 . S
C314 H308 0.949 . S
C314 C318 1.368 . S
C315 C296 1.429 . S
C315 C309 1.429 . S
C315 C316 1.523 . S
C316 C297 1.368 . S
C316 C310 1.368 . S
C316 C315 1.523 . S
C317 C301 1.429 . S
C317 C313 1.429 . S
C317 C318 1.523 . S
C318 C302 1.368 . S
C318 C314 1.368 . S
C318 C317 1.523 . S
H319 C294 0.950 . S
H320 C296 0.950 . S
H321 C297 0.949 . S
H322 C299 0.950 . S
H323 C301 0.950 . S
C324 C325 1.349 . S
C324 C326 1.327 . S
C324 H349 0.950 . S
C325 C324 1.349 . S
C325 C341 1.349 . S
C326 C324 1.327 . S
C326 C345 1.429 . S
C326 H350 0.950 . S
C327 C344 1.574 . S
C327 C346 1.368 . S
C327 H351 0.949 . S
H328 C332 0.949 . S
C329 C330 1.349 . S
C329 C331 1.327 . S
C329 H352 0.950 . S
C330 C329 1.349 . S
C330 C342 1.349 . S
C331 C329 1.327 . S
C331 C347 1.429 . S
C331 H353 0.950 . S
C332 H328 0.949 . S
C332 C340 1.574 . S
C332 C348 1.368 . S
H333 C341 0.950 . S
H334 C339 0.950 . S
H335 C340 0.949 . S
H336 C342 0.950 . S
H337 C343 0.950 . S
H338 C344 0.949 . S
C339 H334 0.950 . S
C339 C341 1.327 . S
C339 C345 1.429 . S
C340 C332 1.574 . S
C340 H335 0.949 . S
C340 C346 1.368 . S
C341 C325 1.349 . S
C341 H333 0.950 . S
C341 C339 1.327 . S
C342 C330 1.349 . S
C342 H336 0.950 . S
C342 C343 1.327 . S
C343 H337 0.950 . S
C343 C342 1.327 . S
C343 C347 1.429 . S
C344 C327 1.574 . S
C344 H338 0.949 . S
C344 C348 1.368 . S
C345 C326 1.429 . S
C345 C339 1.429 . S
C345 C346 1.523 . S
C346 C327 1.368 . S
C346 C340 1.368 . S
C346 C345 1.523 . S
C347 C331 1.429 . S
C347 C343 1.429 . S
C347 C348 1.523 . S
C348 C332 1.368 . S
C348 C344 1.368 . S
C348 C347 1.523 . S
H349 C324 0.950 . S
H350 C326 0.950 . S
H351 C327 0.949 . S
H352 C329 0.950 . S
H353 C331 0.950 . S
C354 C355 1.349 . S
C354 C356 1.327 . S
C354 H379 0.950 . S
C355 C354 1.349 . S
C355 C371 1.349 . S
C356 C354 1.327 . S
C356 C375 1.429 . S
C356 H380 0.950 . S
C357 C374 1.574 . S
C357 C376 1.368 . S
C357 H381 0.949 . S
H358 C362 0.949 . S
C359 C360 1.349 . S
C359 C361 1.327 . S
C359 H382 0.950 . S
C360 C359 1.349 . S
C360 C372 1.349 . S
C361 C359 1.327 . S
C361 C377 1.429 . S
C361 H383 0.950 . S
C362 H358 0.949 . S
C362 C370 1.574 . S
C362 C378 1.368 . S
H363 C371 0.950 . S
H364 C369 0.950 . S
H365 C370 0.949 . S
H366 C372 0.950 . S
H367 C373 0.950 . S
H368 C374 0.949 . S
C369 H364 0.950 . S
C369 C371 1.327 . S
C369 C375 1.429 . S
C370 C362 1.574 . S
C370 H365 0.949 . S
C370 C376 1.368 . S
C371 C355 1.349 . S
C371 H363 0.950 . S
C371 C369 1.327 . S
C372 C360 1.349 . S
C372 H366 0.950 . S
C372 C373 1.327 . S
C373 H367 0.950 . S
C373 C372 1.327 . S
C373 C377 1.429 . S
C374 C357 1.574 . S
C374 H368 0.949 . S
C374 C378 1.368 . S
C375 C356 1.429 . S
C375 C369 1.429 . S
C375 C376 1.523 . S
C376 C357 1.368 . S
C376 C370 1.368 . S
C376 C375 1.523 . S
C377 C361 1.429 . S
C377 C373 1.429 . S
C377 C378 1.523 . S
C378 C362 1.368 . S
C378 C374 1.368 . S
C378 C377 1.523 . S
H379 C354 0.950 . S
H380 C356 0.950 . S
H381 C357 0.949 . S
H382 C359 0.950 . S
H383 C361 0.950 . S
C384 C385 1.349 . S
C384 C386 1.327 . S
C384 H409 0.950 . S
C385 C384 1.349 . S
C385 C401 1.349 . S
C386 C384 1.327 . S
C386 C405 1.429 . S
C386 H410 0.950 . S
C387 C404 1.574 . S
C387 C406 1.368 . S
C387 H411 0.949 . S
H388 C392 0.949 . S
C389 C390 1.349 . S
C389 C391 1.327 . S
C389 H412 0.950 . S
C390 C389 1.349 . S
C390 C402 1.349 . S
C391 C389 1.327 . S
C391 C407 1.429 . S
C391 H413 0.950 . S
C392 H388 0.949 . S
C392 C400 1.574 . S
C392 C408 1.368 . S
H393 C401 0.950 . S
H394 C399 0.950 . S
H395 C400 0.949 . S
H396 C402 0.950 . S
H397 C403 0.950 . S
H398 C404 0.949 . S
C399 H394 0.950 . S
C399 C401 1.327 . S
C399 C405 1.429 . S
C400 C392 1.574 . S
C400 H395 0.949 . S
C400 C406 1.368 . S
C401 C385 1.349 . S
C401 H393 0.950 . S
C401 C399 1.327 . S
C402 C390 1.349 . S
C402 H396 0.950 . S
C402 C403 1.327 . S
C403 H397 0.950 . S
C403 C402 1.327 . S
C403 C407 1.429 . S
C404 C387 1.574 . S
C404 H398 0.949 . S
C404 C408 1.368 . S
C405 C386 1.429 . S
C405 C399 1.429 . S
C405 C406 1.523 . S
C406 C387 1.368 . S
C406 C400 1.368 . S
C406 C405 1.523 . S
C407 C391 1.429 . S
C407 C403 1.429 . S
C407 C408 1.523 . S
C408 C392 1.368 . S
C408 C404 1.368 . S
C408 C407 1.523 . S
H409 C384 0.950 . S
H410 C386 0.950 . S
H411 C387 0.949 . S
H412 C389 0.950 . S
H413 C391 0.950 . S
C414 C415 1.349 . S
C414 C416 1.327 . S
C414 H439 0.950 . S
C415 C414 1.349 . S
C415 C431 1.349 . S
C416 C414 1.327 . S
C416 C435 1.429 . S
C416 H440 0.950 . S
C417 C434 1.574 . S
C417 C436 1.368 . S
C417 H441 0.949 . S
H418 C422 0.949 . S
C419 C420 1.349 . S
C419 C421 1.327 . S
C419 H442 0.950 . S
C420 C419 1.349 . S
C420 C432 1.349 . S
C421 C419 1.327 . S
C421 C437 1.429 . S
C421 H443 0.950 . S
C422 H418 0.949 . S
C422 C430 1.574 . S
C422 C438 1.368 . S
H423 C431 0.950 . S
H424 C429 0.950 . S
H425 C430 0.949 . S
H426 C432 0.950 . S
H427 C433 0.950 . S
H428 C434 0.949 . S
C429 H424 0.950 . S
C429 C431 1.327 . S
C429 C435 1.429 . S
C430 C422 1.574 . S
C430 H425 0.949 . S
C430 C436 1.368 . S
C431 C415 1.349 . S
C431 H423 0.950 . S
C431 C429 1.327 . S
C432 C420 1.349 . S
C432 H426 0.950 . S
C432 C433 1.327 . S
C433 H427 0.950 . S
C433 C432 1.327 . S
C433 C437 1.429 . S
C434 C417 1.574 . S
C434 H428 0.949 . S
C434 C438 1.368 . S
C435 C416 1.429 . S
C435 C429 1.429 . S
C435 C436 1.523 . S
C436 C417 1.368 . S
C436 C430 1.368 . S
C436 C435 1.523 . S
C437 C421 1.429 . S
C437 C433 1.429 . S
C437 C438 1.523 . S
C438 C422 1.368 . S
C438 C434 1.368 . S
C438 C437 1.523 . S
H439 C414 0.950 . S
H440 C416 0.950 . S
H441 C417 0.949 . S
H442 C419 0.950 . S
H443 C421 0.950 . S
C444 C445 1.349 . S
C444 C446 1.327 . S
C444 H469 0.950 . S
C445 C444 1.349 . S
C445 C461 1.349 . S
C446 C444 1.327 . S
C446 C465 1.429 . S
C446 H470 0.950 . S
C447 C464 1.574 . S
C447 C466 1.368 . S
C447 H471 0.949 . S
H448 C452 0.949 . S
C449 C450 1.349 . S
C449 C451 1.327 . S
C449 H472 0.950 . S
C450 C449 1.349 . S
C450 C462 1.349 . S
C451 C449 1.327 . S
C451 C467 1.429 . S
C451 H473 0.950 . S
C452 H448 0.949 . S
C452 C460 1.574 . S
C452 C468 1.368 . S
H453 C461 0.950 . S
H454 C459 0.950 . S
H455 C460 0.949 . S
H456 C462 0.950 . S
H457 C463 0.950 . S
H458 C464 0.949 . S
C459 H454 0.950 . S
C459 C461 1.327 . S
C459 C465 1.429 . S
C460 C452 1.574 . S
C460 H455 0.949 . S
C460 C466 1.368 . S
C461 C445 1.349 . S
C461 H453 0.950 . S
C461 C459 1.327 . S
C462 C450 1.349 . S
C462 H456 0.950 . S
C462 C463 1.327 . S
C463 H457 0.950 . S
C463 C462 1.327 . S
C463 C467 1.429 . S
C464 C447 1.574 . S
C464 H458 0.949 . S
C464 C468 1.368 . S
C465 C446 1.429 . S
C465 C459 1.429 . S
C465 C466 1.523 . S
C466 C447 1.368 . S
C466 C460 1.368 . S
C466 C465 1.523 . S
C467 C451 1.429 . S
C467 C463 1.429 . S
C467 C468 1.523 . S
C468 C452 1.368 . S
C468 C464 1.368 . S
C468 C467 1.523 . S
H469 C444 0.950 . S
H470 C446 0.950 . S
H471 C447 0.949 . S
H472 C449 0.950 . S
H473 C451 0.950 . S
C474 C475 1.349 . S
C474 C476 1.327 . S
C474 H499 0.950 . S
C475 C474 1.349 . S
C475 C491 1.349 . S
C476 C474 1.327 . S
C476 C495 1.429 . S
C476 H500 0.950 . S
C477 C494 1.574 . S
C477 C496 1.368 . S
C477 H501 0.949 . S
H478 C482 0.949 . S
C479 C480 1.349 . S
C479 C481 1.327 . S
C479 H502 0.950 . S
C480 C479 1.349 . S
C480 C492 1.349 . S
C481 C479 1.327 . S
C481 C497 1.429 . S
C481 H503 0.950 . S
C482 H478 0.949 . S
C482 C490 1.574 . S
C482 C498 1.368 . S
H483 C491 0.950 . S
H484 C489 0.950 . S
H485 C490 0.949 . S
H486 C492 0.950 . S
H487 C493 0.950 . S
H488 C494 0.949 . S
C489 H484 0.950 . S
C489 C491 1.327 . S
C489 C495 1.429 . S
C490 C482 1.574 . S
C490 H485 0.949 . S
C490 C496 1.368 . S
C491 C475 1.349 . S
C491 H483 0.950 . S
C491 C489 1.327 . S
C492 C480 1.349 . S
C492 H486 0.950 . S
C492 C493 1.327 . S
C493 H487 0.950 . S
C493 C492 1.327 . S
C493 C497 1.429 . S
C494 C477 1.574 . S
C494 H488 0.949 . S
C494 C498 1.368 . S
C495 C476 1.429 . S
C495 C489 1.429 . S
C495 C496 1.523 . S
C496 C477 1.368 . S
C496 C490 1.368 . S
C496 C495 1.523 . S
C497 C481 1.429 . S
C497 C493 1.429 . S
C497 C498 1.523 . S
C498 C482 1.368 . S
C498 C494 1.368 . S
C498 C497 1.523 . S
H499 C474 0.950 . S
H500 C476 0.950 . S
H501 C477 0.949 . S
H502 C479 0.950 . S
H503 C481 0.950 . S
C504 C505 1.349 . S
C504 C506 1.327 . S
C504 H529 0.950 . S
C505 C504 1.349 . S
C505 C521 1.349 . S
C506 C504 1.327 . S
C506 C525 1.429 . S
C506 H530 0.950 . S
C507 C524 1.574 . S
C507 C526 1.368 . S
C507 H531 0.949 . S
H508 C512 0.949 . S
C509 C510 1.349 . S
C509 C511 1.327 . S
C509 H532 0.950 . S
C510 C509 1.349 . S
C510 C522 1.349 . S
C511 C509 1.327 . S
C511 C527 1.429 . S
C511 H533 0.950 . S
C512 H508 0.949 . S
C512 C520 1.574 . S
C512 C528 1.368 . S
H513 C521 0.950 . S
H514 C519 0.950 . S
H515 C520 0.949 . S
H516 C522 0.950 . S
H517 C523 0.950 . S
H518 C524 0.949 . S
C519 H514 0.950 . S
C519 C521 1.327 . S
C519 C525 1.429 . S
C520 C512 1.574 . S
C520 H515 0.949 . S
C520 C526 1.368 . S
C521 C505 1.349 . S
C521 H513 0.950 . S
C521 C519 1.327 . S
C522 C510 1.349 . S
C522 H516 0.950 . S
C522 C523 1.327 . S
C523 H517 0.950 . S
C523 C522 1.327 . S
C523 C527 1.429 . S
C524 C507 1.574 . S
C524 H518 0.949 . S
C524 C528 1.368 . S
C525 C506 1.429 . S
C525 C519 1.429 . S
C525 C526 1.523 . S
C526 C507 1.368 . S
C526 C520 1.368 . S
C526 C525 1.523 . S
C527 C511 1.429 . S
C527 C523 1.429 . S
C527 C528 1.523 . S
C528 C512 1.368 . S
C528 C524 1.368 . S
C528 C527 1.523 . S
H529 C504 0.950 . S
H530 C506 0.950 . S
H531 C507 0.949 . S
H532 C509 0.950 . S
H533 C511 0.950 . S
C534 C535 1.349 1_655 S
C534 C536 1.327 . S
C534 H559 0.950 . S
C535 C534 1.349 1_455 S
C535 C551 1.349 . S
C536 C534 1.327 . S
C536 C555 1.429 1_655 S
C536 H560 0.950 . S
C537 C554 1.574 . S
C537 C556 1.368 . S
C537 H561 0.949 . S
H538 C542 0.949 1_556 S
C539 C540 1.349 . S
C539 C541 1.327 . S
C539 H562 0.950 . S
C540 C539 1.349 . S
C540 C552 1.349 1_455 S
C541 C539 1.327 . S
C541 C557 1.429 . S
C541 H563 0.950 . S
C542 H538 0.949 1_554 S
C542 C550 1.574 . S
C542 C558 1.368 1_654 S
H543 C551 0.950 . S
H544 C549 0.950 . S
H545 C550 0.949 . S
H546 C552 0.950 . S
H547 C553 0.950 . S
H548 C554 0.949 1_556 S
C549 H544 0.950 . S
C549 C551 1.327 . S
C549 C555 1.429 . S
C550 C542 1.574 . S
C550 H545 0.949 . S
C550 C556 1.368 1_655 S
C551 C535 1.349 . S
C551 H543 0.950 . S
C551 C549 1.327 . S
C552 C540 1.349 1_655 S
C552 H546 0.950 . S
C552 C553 1.327 . S
C553 H547 0.950 . S
C553 C552 1.327 . S
C553 C557 1.429 1_655 S
C554 C537 1.574 . S
C554 H548 0.949 1_554 S
C554 C558 1.368 1_554 S
C555 C536 1.429 1_455 S
C555 C549 1.429 . S
C555 C556 1.523 . S
C556 C537 1.368 . S
C556 C550 1.368 1_455 S
C556 C555 1.523 . S
C557 C541 1.429 . S
C557 C553 1.429 1_455 S
C557 C558 1.523 . S
C558 C542 1.368 1_456 S
C558 C554 1.368 1_556 S
C558 C557 1.523 . S
H559 C534 0.950 . S
H560 C536 0.950 . S
H561 C537 0.949 . S
H562 C539 0.950 . S
H563 C541 0.950 . S
C564 C565 1.349 . S
C564 C566 1.327 . S
C564 H589 0.950 . S
C565 C564 1.349 . S
C565 C581 1.349 1_545 S
C566 C564 1.327 . S
C566 C585 1.429 . S
C566 H590 0.950 . S
C567 C584 1.573 1_565 S
C567 C586 1.356 1_565 S
C567 H591 0.962 . S
H568 C572 0.949 . S
C569 C570 1.349 . S
C569 C571 1.327 . S
C569 H592 0.950 1_545 S
C570 C569 1.349 . S
C570 C582 1.349 . S
C571 C569 1.327 . S
C571 C587 1.429 . S
C571 H593 0.950 1_545 S
C572 H568 0.949 . S
C572 C580 1.574 . S
C572 C588 1.368 . S
H573 C581 0.950 . S
H574 C579 0.950 . S
H575 C580 0.949 . S
H576 C582 0.950 . S
H577 C583 0.950 . S
H578 C584 0.945 1_565 S
C579 H574 0.950 . S
C579 C581 1.327 . S
C579 C585 1.429 1_565 S
C580 C572 1.574 . S
C580 H575 0.949 . S
C580 C586 1.368 . S
C581 C565 1.349 1_565 S
C581 H573 0.950 . S
C581 C579 1.327 . S
C582 C570 1.349 . S
C582 H576 0.950 . S
C582 C583 1.327 . S
C583 H577 0.950 . S
C583 C582 1.327 . S
C583 C587 1.429 . S
C584 C567 1.573 1_545 S
C584 H578 0.945 1_545 S
C584 C588 1.373 . S
C585 C566 1.429 . S
C585 C579 1.429 1_545 S
C585 C586 1.523 . S
C586 C567 1.356 1_545 S
C586 C580 1.368 . S
C586 C585 1.523 . S
C587 C571 1.429 . S
C587 C583 1.429 . S
C587 C588 1.523 . S
C588 C572 1.368 . S
C588 C584 1.373 . S
C588 C587 1.523 . S
H589 C564 0.950 . S
H590 C566 0.950 . S
H591 C567 0.962 . S
H592 C569 0.950 1_565 S
H593 C571 0.950 1_565 S
C594 C595 1.349 . S
C594 C596 1.327 . S
C594 H619 0.950 . S
C595 C594 1.349 . S
C595 C611 1.349 . S
C596 C594 1.327 . S
C596 C615 1.429 . S
C596 H620 0.950 . S
C597 C614 1.574 . S
C597 C616 1.368 . S
C597 H621 0.949 . S
H598 C602 0.949 . S
C599 C600 1.349 . S
C599 C601 1.327 . S
C599 H622 0.950 . S
C600 C599 1.349 . S
C600 C612 1.349 . S
C601 C599 1.327 . S
C601 C617 1.429 . S
C601 H623 0.950 . S
C602 H598 0.949 . S
C602 C610 1.574 . S
C602 C618 1.368 . S
H603 C611 0.950 . S
H604 C609 0.950 . S
H605 C610 0.949 . S
H606 C612 0.950 . S
H607 C613 0.950 . S
H608 C614 0.949 . S
C609 H604 0.950 . S
C609 C611 1.327 . S
C609 C615 1.429 . S
C610 C602 1.574 . S
C610 H605 0.949 . S
C610 C616 1.368 . S
C611 C595 1.349 . S
C611 H603 0.950 . S
C611 C609 1.327 . S
C612 C600 1.349 . S
C612 H606 0.950 . S
C612 C613 1.327 . S
C613 H607 0.950 . S
C613 C612 1.327 . S
C613 C617 1.429 . S
C614 C597 1.574 . S
C614 H608 0.949 . S
C614 C618 1.368 . S
C615 C596 1.429 . S
C615 C609 1.429 . S
C615 C616 1.523 . S
C616 C597 1.368 . S
C616 C610 1.368 . S
C616 C615 1.523 . S
C617 C601 1.429 . S
C617 C613 1.429 . S
C617 C618 1.523 . S
C618 C602 1.368 . S
C618 C614 1.368 . S
C618 C617 1.523 . S
H619 C594 0.950 . S
H620 C596 0.950 . S
H621 C597 0.949 . S
H622 C599 0.950 . S
H623 C601 0.950 . S
C624 C625 1.349 . S
C624 C626 1.327 . S
C624 H649 0.950 . S
C625 C624 1.349 . S
C625 C641 1.349 1_545 S
C626 C624 1.327 . S
C626 C645 1.429 . S
C626 H650 0.950 . S
C627 C644 1.574 . S
C627 C646 1.368 1_565 S
C627 H651 0.949 . S
H628 C632 0.949 . S
C629 C630 1.349 1_565 S
C629 C631 1.327 . S
C629 H652 0.950 . S
C630 C629 1.349 1_545 S
C630 C642 1.349 . S
C631 C629 1.327 . S
C631 C647 1.429 1_565 S
C631 H653 0.950 . S
C632 H628 0.949 . S
C632 C640 1.574 . S
C632 C648 1.368 . S
H633 C641 0.950 . S
H634 C639 0.950 . S
H635 C640 0.949 . S
H636 C642 0.950 . S
H637 C643 0.950 . S
H638 C644 0.949 . S
C639 H634 0.950 . S
C639 C641 1.327 . S
C639 C645 1.429 1_565 S
C640 C632 1.574 . S
C640 H635 0.949 . S
C640 C646 1.368 . S
C641 C625 1.349 1_565 S
C641 H633 0.950 . S
C641 C639 1.327 . S
C642 C630 1.349 . S
C642 H636 0.950 . S
C642 C643 1.327 . S
C643 H637 0.950 . S
C643 C642 1.327 . S
C643 C647 1.429 . S
C644 C627 1.574 . S
C644 H638 0.949 . S
C644 C648 1.368 1_565 S
C645 C626 1.429 . S
C645 C639 1.429 1_545 S
C645 C646 1.523 . S
C646 C627 1.368 1_545 S
C646 C640 1.368 . S
C646 C645 1.523 . S
C647 C631 1.429 1_545 S
C647 C643 1.429 . S
C647 C648 1.523 . S
C648 C632 1.368 . S
C648 C644 1.368 1_545 S
C648 C647 1.523 . S
H649 C624 0.950 . S
H650 C626 0.950 . S
H651 C627 0.949 . S
H652 C629 0.950 . S
H653 C631 0.950 . S
C654 C655 1.349 . S
C654 C656 1.327 . S
C654 H679 0.950 . S
C655 C654 1.349 . S
C655 C671 1.349 . S
C656 C654 1.327 . S
C656 C675 1.429 . S
C656 H680 0.950 . S
C657 C674 1.574 . S
C657 C676 1.368 . S
C657 H681 0.949 . S
H658 C662 0.949 1_554 S
C659 C660 1.349 . S
C659 C661 1.327 . S
C659 H682 0.950 . S
C660 C659 1.349 . S
C660 C672 1.349 . S
C661 C659 1.327 . S
C661 C677 1.429 . S
C661 H683 0.950 . S
C662 H658 0.949 1_556 S
C662 C670 1.574 . S
C662 C678 1.368 1_556 S
H663 C671 0.950 . S
H664 C669 0.950 . S
H665 C670 0.949 . S
H666 C672 0.950 . S
H667 C673 0.950 . S
H668 C674 0.949 1_554 S
C669 H664 0.950 . S
C669 C671 1.327 . S
C669 C675 1.429 . S
C670 C662 1.574 . S
C670 H665 0.949 . S
C670 C676 1.368 . S
C671 C655 1.349 . S
C671 H663 0.950 . S
C671 C669 1.327 . S
C672 C660 1.349 . S
C672 H666 0.950 . S
C672 C673 1.327 . S
C673 H667 0.950 . S
C673 C672 1.327 . S
C673 C677 1.429 . S
C674 C657 1.574 . S
C674 H668 0.949 1_556 S
C674 C678 1.368 1_556 S
C675 C656 1.429 . S
C675 C669 1.429 . S
C675 C676 1.523 . S
C676 C657 1.368 . S
C676 C670 1.368 . S
C676 C675 1.523 . S
C677 C661 1.429 . S
C677 C673 1.429 . S
C677 C678 1.523 . S
C678 C662 1.368 1_554 S
C678 C674 1.368 1_554 S
C678 C677 1.523 . S
H679 C654 0.950 . S
H680 C656 0.950 . S
H681 C657 0.949 . S
H682 C659 0.950 . S
H683 C661 0.950 . S
C684 C685 1.349 1_655 S
C684 C686 1.327 . S
C684 H709 0.950 . S
C685 C684 1.349 1_455 S
C685 C701 1.349 . S
C686 C684 1.327 . S
C686 C705 1.429 1_655 S
C686 H710 0.950 . S
C687 C704 1.574 . S
C687 C706 1.368 . S
C687 H711 0.949 . S
H688 C692 0.949 . S
C689 C690 1.349 . S
C689 C691 1.327 . S
C689 H712 0.950 . S
C690 C689 1.349 . S
C690 C702 1.349 1_455 S
C691 C689 1.327 . S
C691 C707 1.429 . S
C691 H713 0.950 . S
C692 H688 0.949 . S
C692 C700 1.574 . S
C692 C708 1.368 1_655 S
H693 C701 0.950 . S
H694 C699 0.950 . S
H695 C700 0.949 . S
H696 C702 0.950 . S
H697 C703 0.950 . S
H698 C704 0.949 . S
C699 H694 0.950 . S
C699 C701 1.327 . S
C699 C705 1.429 . S
C700 C692 1.574 . S
C700 H695 0.949 . S
C700 C706 1.368 1_655 S
C701 C685 1.349 . S
C701 H693 0.950 . S
C701 C699 1.327 . S
C702 C690 1.349 1_655 S
C702 H696 0.950 . S
C702 C703 1.327 . S
C703 H697 0.950 . S
C703 C702 1.327 . S
C703 C707 1.429 1_655 S
C704 C687 1.574 . S
C704 H698 0.949 . S
C704 C708 1.368 . S
C705 C686 1.429 1_455 S
C705 C699 1.429 . S
C705 C706 1.523 . S
C706 C687 1.368 . S
C706 C700 1.368 1_455 S
C706 C705 1.523 . S
C707 C691 1.429 . S
C707 C703 1.429 1_455 S
C707 C708 1.523 . S
C708 C692 1.368 1_455 S
C708 C704 1.368 . S
C708 C707 1.523 . S
H709 C684 0.950 . S
H710 C686 0.950 . S
H711 C687 0.949 . S
H712 C689 0.950 . S
H713 C691 0.950 . S
C175 C19 1.769 . S
C180 C169 1.751 . S
C205 C46 1.197 . S
C210 C151 1.213 . S
C235 C95 0.431 . S
C240 C163 0.295 . S
C265 C10 1.788 . S
C270 C172 1.787 . S
C300 C154 1.259 . S
C295 C55 1.240 . S
C330 C160 0.437 . S
C325 C86 0.489 . S
C355 C59 2.946 . S
C360 C133 2.916 . S
C385 C90 1.823 . S
C390 C142 1.840 . S
C415 C15 1.252 . S
C420 C124 1.280 1_565 S
C450 C136 2.828 . S
C445 C50 2.820 . S
C480 C145 1.735 . S
C475 C99 1.751 . S
C505 C6 1.158 . S
C510 C127 1.171 . S
C540 C143 1.376 . S
C535 C9 1.326 . S
C565 C58 1.447 . S
C570 C125 1.507 . S
C595 C98 1.703 . S
C600 C134 1.774 . S
C630 C161 1.085 . S
C625 C49 1.062 . S
C660 C170 1.365 . S
C655 C89 1.321 . S
C685 C18 1.436 . S
C690 C152 1.485 . S
