# Generated by pormake.
# Topology pto, (3,4)-cn, num edge types: 1
# Building blocks:
#     Node 0, Type 0, BuildingBlock: VETTIZ_charged_linker_0, # of connection points: 3
#     Node 1, Type 0, BuildingBlock: VETTIZ_charged_linker_0, # of connection points: 3
#     Node 2, Type 0, BuildingBlock: VETTIZ_charged_linker_0, # of connection points: 3
#     Node 3, Type 0, BuildingBlock: VETTIZ_charged_linker_0, # of connection points: 3
#     Node 4, Type 0, BuildingBlock: VETTIZ_charged_linker_0, # of connection points: 3
#     Node 5, Type 0, BuildingBlock: VETTIZ_charged_linker_0, # of connection points: 3
#     Node 6, Type 0, BuildingBlock: VETTIZ_charged_linker_0, # of connection points: 3
#     Node 7, Type 0, BuildingBlock: VETTIZ_charged_linker_0, # of connection points: 3
#     Node 8, Type 1, BuildingBlock: KOZSID_clean_sbu_0, # of connection points: 4
#     Node 9, Type 1, BuildingBlock: KOZSID_clean_sbu_0, # of connection points: 4
#     Node 10, Type 1, BuildingBlock: KOZSID_clean_sbu_0, # of connection points: 4
#     Node 11, Type 1, BuildingBlock: KOZSID_clean_sbu_0, # of connection points: 4
#     Node 12, Type 1, BuildingBlock: KOZSID_clean_sbu_0, # of connection points: 4
#     Node 13, Type 1, BuildingBlock: KOZSID_clean_sbu_0, # of connection points: 4
#     Edge 14, Type (0, 1), BuildingBlock: EZIPEK_clean_linker_0, # of connection points: 2
#     Edge 15, Type (0, 1), BuildingBlock: EZIPEK_clean_linker_0, # of connection points: 2
#     Edge 16, Type (0, 1), BuildingBlock: EZIPEK_clean_linker_0, # of connection points: 2
#     Edge 17, Type (0, 1), BuildingBlock: EZIPEK_clean_linker_0, # of connection points: 2
#     Edge 18, Type (0, 1), BuildingBlock: EZIPEK_clean_linker_0, # of connection points: 2
#     Edge 19, Type (0, 1), BuildingBlock: EZIPEK_clean_linker_0, # of connection points: 2
#     Edge 20, Type (0, 1), BuildingBlock: EZIPEK_clean_linker_0, # of connection points: 2
#     Edge 21, Type (0, 1), BuildingBlock: EZIPEK_clean_linker_0, # of connection points: 2
#     Edge 22, Type (0, 1), BuildingBlock: EZIPEK_clean_linker_0, # of connection points: 2
#     Edge 23, Type (0, 1), BuildingBlock: EZIPEK_clean_linker_0, # of connection points: 2
#     Edge 24, Type (0, 1), BuildingBlock: EZIPEK_clean_linker_0, # of connection points: 2
#     Edge 25, Type (0, 1), BuildingBlock: EZIPEK_clean_linker_0, # of connection points: 2
#     Edge 26, Type (0, 1), BuildingBlock: EZIPEK_clean_linker_0, # of connection points: 2
#     Edge 27, Type (0, 1), BuildingBlock: EZIPEK_clean_linker_0, # of connection points: 2
#     Edge 28, Type (0, 1), BuildingBlock: EZIPEK_clean_linker_0, # of connection points: 2
#     Edge 29, Type (0, 1), BuildingBlock: EZIPEK_clean_linker_0, # of connection points: 2
#     Edge 30, Type (0, 1), BuildingBlock: EZIPEK_clean_linker_0, # of connection points: 2
#     Edge 31, Type (0, 1), BuildingBlock: EZIPEK_clean_linker_0, # of connection points: 2
#     Edge 32, Type (0, 1), BuildingBlock: EZIPEK_clean_linker_0, # of connection points: 2
#     Edge 33, Type (0, 1), BuildingBlock: EZIPEK_clean_linker_0, # of connection points: 2
#     Edge 34, Type (0, 1), BuildingBlock: EZIPEK_clean_linker_0, # of connection points: 2
#     Edge 35, Type (0, 1), BuildingBlock: EZIPEK_clean_linker_0, # of connection points: 2
#     Edge 36, Type (0, 1), BuildingBlock: EZIPEK_clean_linker_0, # of connection points: 2
#     Edge 37, Type (0, 1), BuildingBlock: EZIPEK_clean_linker_0, # of connection points: 2
# Relax obj value: 0.000
# Max RMSD: 0.027
# Mean RMSD: 0.012
data_MOF--net-pto--node1-KOZSID_clean_sbu_0--node2-VETTIZ_charged_linker_0--edge1-EZIPEK_clean_linker_0
_symmetry_space_group_name_H-M    P1
_symmetry_Int_Tables_number       1
_symmetry_cell_setting            triclinic
loop_
_symmetry_equiv_pos_as_xyz
'x, y, z'
_cell_length_a     36.997966
_cell_length_b     49.527096
_cell_length_c     43.411019
_cell_angle_alpha  87.211982
_cell_angle_beta   86.679115
_cell_angle_gamma 93.15605
loop_
_atom_site_label
_atom_site_type_symbol
_atom_site_fract_x
_atom_site_fract_y
_atom_site_fract_z
_atom_type_partial_charge
C0 C 0.24002 0.18513 0.38969 0.0
C1 C 0.26049 0.16205 0.38855 0.0
C2 C 0.28853 0.16104 0.36537 0.0
C3 C 0.27543 0.20558 0.34476 0.0
C4 C 0.24818 0.20673 0.36778 0.0
C5 C 0.23021 0.2333 0.36622 0.0
H6 H 0.21939 0.35632 0.29406 0.0
C7 C 0.27728 0.23129 0.3258 0.0
C8 C 0.25107 0.2478 0.33843 0.0
H9 H 0.15295 0.32183 0.37291 0.0
H10 H 0.18787 0.28263 0.37317 0.0
H11 H 0.21573 0.30487 0.25597 0.0
H12 H 0.29398 0.33719 0.31576 0.0
H13 H 0.31852 0.32523 0.28381 0.0
H14 H 0.28787 0.35187 0.27793 0.0
H15 H 0.24721 0.33266 0.24371 0.0
H16 H 0.25816 0.29797 0.23918 0.0
C17 C 0.18977 0.22741 0.36031 0.0
C18 C 0.23662 0.24775 0.39643 0.0
C19 C 0.36251 0.24348 0.22896 0.0
C20 C 0.36942 0.26505 0.20678 0.0
C21 C 0.35239 0.28944 0.21073 0.0
C22 C 0.32806 0.2922 0.23614 0.0
C23 C 0.32045 0.27026 0.25777 0.0
C24 C 0.338 0.24656 0.2543 0.0
C25 C 0.32709 0.22572 0.28008 0.0
C26 C 0.2992 0.24052 0.29894 0.0
C27 C 0.29538 0.26649 0.28561 0.0
C28 C 0.30979 0.20046 0.26572 0.0
C29 C 0.36099 0.2202 0.29829 0.0
C30 C 0.20949 0.33985 0.30991 0.0
C31 C 0.17791 0.34094 0.32974 0.0
C32 C 0.17297 0.32047 0.35402 0.0
C33 C 0.19411 0.29771 0.35476 0.0
C34 C 0.22185 0.29552 0.33174 0.0
C35 C 0.22963 0.31679 0.31033 0.0
C36 C 0.26007 0.31145 0.28742 0.0
C37 C 0.26919 0.28329 0.29848 0.0
C38 C 0.24703 0.27405 0.32467 0.0
C39 C 0.2449 0.3119 0.25478 0.0
C40 C 0.29183 0.33256 0.29108 0.0
H41 H 0.31767 0.18057 0.32634 0.0
H42 H 0.21848 0.1864 0.40747 0.0
H43 H 0.26401 0.24404 0.4045 0.0
H44 H 0.2361 0.26999 0.39347 0.0
H45 H 0.21632 0.24029 0.4152 0.0
H46 H 0.18681 0.21182 0.34287 0.0
H47 H 0.17416 0.21967 0.38186 0.0
H48 H 0.17679 0.24524 0.35079 0.0
H49 H 0.37561 0.22462 0.22641 0.0
H50 H 0.35768 0.30624 0.19385 0.0
H51 H 0.31576 0.31123 0.23773 0.0
H52 H 0.29115 0.20658 0.24775 0.0
H53 H 0.33092 0.18847 0.25457 0.0
H54 H 0.29306 0.18706 0.28261 0.0
H55 H 0.38062 0.23813 0.29681 0.0
H56 H 0.35432 0.21626 0.32333 0.0
H57 H 0.37543 0.20292 0.28913 0.0
H58 H 0.3046 0.14343 0.36427 0.0
C59 C 0.29606 0.18262 0.34346 0.0
C60 C 0.21539 0.68341 0.73423 0.0
C61 C 0.18159 0.68027 0.72096 0.0
C62 C 0.16454 0.70392 0.71144 0.0
C63 C 0.21499 0.73235 0.72679 0.0
C64 C 0.23018 0.70954 0.73875 0.0
C65 C 0.25961 0.71672 0.76004 0.0
H66 H 0.35658 0.81446 0.82913 0.0
C67 C 0.23668 0.7564 0.73544 0.0
C68 C 0.26193 0.74747 0.75601 0.0
H69 H 0.34857 0.72848 0.85192 0.0
H70 H 0.31133 0.72117 0.80851 0.0
H71 H 0.27265 0.8222 0.81362 0.0
H72 H 0.36875 0.80888 0.75752 0.0
H73 H 0.34032 0.82526 0.73248 0.0
H74 H 0.35635 0.84242 0.76531 0.0
H75 H 0.31191 0.84534 0.80782 0.0
H76 H 0.27663 0.84548 0.78116 0.0
C77 C 0.2464 0.70655 0.79347 0.0
C78 C 0.29511 0.70467 0.74815 0.0
C79 C 0.22636 0.8475 0.67764 0.0
C80 C 0.24702 0.87223 0.67771 0.0
C81 C 0.27417 0.87513 0.69891 0.0
C82 C 0.28098 0.8537 0.71963 0.0
C83 C 0.26067 0.82893 0.71902 0.0
C84 C 0.234 0.826 0.69817 0.0
C85 C 0.2158 0.79788 0.70061 0.0
C86 C 0.23764 0.78411 0.72494 0.0
C87 C 0.26315 0.80265 0.73615 0.0
C88 C 0.17555 0.79978 0.71201 0.0
C89 C 0.22065 0.78517 0.66892 0.0
C90 C 0.34651 0.79415 0.8247 0.0
C91 C 0.35474 0.77201 0.84397 0.0
C92 C 0.34196 0.74574 0.83745 0.0
C93 C 0.32016 0.74161 0.81253 0.0
C94 C 0.31072 0.76403 0.79424 0.0
C95 C 0.32445 0.78971 0.80002 0.0
C96 C 0.31233 0.81095 0.77747 0.0
C97 C 0.28641 0.79408 0.75919 0.0
C98 C 0.28592 0.76661 0.76892 0.0
C99 C 0.29241 0.8323 0.79583 0.0
C100 C 0.34603 0.82269 0.75719 0.0
H101 H 0.16748 0.74685 0.70532 0.0
H102 H 0.22905 0.66595 0.74253 0.0
H103 H 0.30039 0.7096 0.72296 0.0
H104 H 0.31902 0.71287 0.75951 0.0
H105 H 0.29339 0.68228 0.75191 0.0
H106 H 0.21661 0.7017 0.79582 0.0
H107 H 0.25969 0.6879 0.80074 0.0
H108 H 0.25115 0.72213 0.81048 0.0
H109 H 0.2052 0.84492 0.66163 0.0
H110 H 0.29022 0.89407 0.69932 0.0
H111 H 0.30187 0.85721 0.7353 0.0
H112 H 0.17093 0.81912 0.72324 0.0
H113 H 0.15732 0.79859 0.6926 0.0
H114 H 0.16665 0.78375 0.72997 0.0
H115 H 0.24984 0.7859 0.66099 0.0
H116 H 0.21049 0.7638 0.66954 0.0
H117 H 0.20594 0.79636 0.65121 0.0
H118 H 0.13798 0.70242 0.70217 0.0
C119 C 0.18148 0.72975 0.71344 0.0
C120 C 0.85955 0.70392 0.35052 0.0
C121 C 0.86226 0.68123 0.33249 0.0
C122 C 0.84467 0.6805 0.30463 0.0
C123 C 0.82228 0.72481 0.3128 0.0
C124 C 0.83981 0.72557 0.34006 0.0
C125 C 0.83572 0.75193 0.3554 0.0
H126 H 0.7676 0.8764 0.35462 0.0
C127 C 0.80427 0.75049 0.30842 0.0
C128 C 0.8122 0.76657 0.33321 0.0
H129 H 0.83573 0.84093 0.42115 0.0
H130 H 0.837 0.79987 0.39299 0.0
H131 H 0.71588 0.82546 0.35064 0.0
H132 H 0.80968 0.85445 0.29294 0.0
H133 H 0.77507 0.84484 0.26881 0.0
H134 H 0.76787 0.87125 0.29516 0.0
H135 H 0.71322 0.85137 0.32069 0.0
H136 H 0.70715 0.81586 0.3133 0.0
C137 C 0.81583 0.74574 0.38754 0.0
C138 C 0.8739 0.76633 0.3563 0.0
C139 C 0.72702 0.76517 0.2165 0.0
C140 C 0.70445 0.78587 0.20811 0.0
C141 C 0.70245 0.80865 0.22617 0.0
C142 C 0.72258 0.8108 0.25235 0.0
C143 C 0.74469 0.7898 0.2608 0.0
C144 C 0.74643 0.76737 0.24313 0.0
C145 C 0.76973 0.74642 0.25667 0.0
C146 C 0.78183 0.76006 0.28525 0.0
C147 C 0.7674 0.78556 0.28729 0.0
C148 C 0.74541 0.7203 0.26503 0.0
C149 C 0.80201 0.74281 0.23315 0.0
C150 C 0.78287 0.85974 0.36287 0.0
C151 C 0.80172 0.86164 0.38985 0.0
C152 C 0.82115 0.83968 0.40028 0.0
C153 C 0.8218 0.81596 0.38392 0.0
C154 C 0.80276 0.81424 0.35689 0.0
C155 C 0.78366 0.83591 0.34687 0.0
C156 C 0.76448 0.83037 0.31808 0.0
C157 C 0.77588 0.80206 0.31201 0.0
C158 C 0.79821 0.79266 0.33482 0.0
C159 C 0.72304 0.83093 0.32578 0.0
C160 C 0.77972 0.85133 0.29227 0.0
H161 H 0.81189 0.70034 0.27329 0.0
H162 H 0.87312 0.70495 0.37192 0.0
H163 H 0.89147 0.76202 0.33564 0.0
H164 H 0.8733 0.78861 0.3556 0.0
H165 H 0.88766 0.75939 0.37709 0.0
H166 H 0.79375 0.7297 0.38631 0.0
H167 H 0.83477 0.73846 0.40464 0.0
H168 H 0.80234 0.76331 0.39655 0.0
H169 H 0.72873 0.74738 0.20303 0.0
H170 H 0.68509 0.82472 0.22 0.0
H171 H 0.7199 0.82864 0.26514 0.0
H172 H 0.71779 0.7253 0.27366 0.0
H173 H 0.74237 0.70796 0.24455 0.0
H174 H 0.7555 0.7076 0.28392 0.0
H175 H 0.81089 0.76237 0.22056 0.0
H176 H 0.8264 0.73622 0.24424 0.0
H177 H 0.79443 0.72817 0.2157 0.0
H178 H 0.84662 0.66315 0.29048 0.0
C179 C 0.82462 0.70211 0.29473 0.0
C180 C 0.71806 0.28351 0.85523 0.0
C181 C 0.69494 0.26103 0.86538 0.0
C182 C 0.69471 0.23756 0.84838 0.0
C183 C 0.7403 0.25914 0.81137 0.0
C184 C 0.74047 0.28212 0.82825 0.0
C185 C 0.76674 0.30418 0.81417 0.0
H186 H 0.88872 0.35053 0.69865 0.0
C187 C 0.76658 0.26442 0.78441 0.0
C188 C 0.78217 0.29076 0.78596 0.0
H189 H 0.85289 0.39116 0.77973 0.0
H190 H 0.81417 0.35198 0.7974 0.0
H191 H 0.80973 0.32233 0.68483 0.0
H192 H 0.89789 0.2928 0.73523 0.0
H193 H 0.88092 0.26637 0.71362 0.0
H194 H 0.90064 0.29705 0.69385 0.0
H195 H 0.85239 0.31498 0.66615 0.0
H196 H 0.81669 0.28899 0.67458 0.0
C197 C 0.74483 0.32884 0.80514 0.0
C198 C 0.79596 0.31001 0.83757 0.0
C199 C 0.78394 0.19169 0.70713 0.0
C200 C 0.80569 0.19075 0.67969 0.0
C201 C 0.82863 0.21341 0.66942 0.0
C202 C 0.82986 0.23686 0.68632 0.0
C203 C 0.80786 0.23765 0.71378 0.0
C204 C 0.78545 0.21525 0.72375 0.0
C205 C 0.7638 0.21969 0.75325 0.0
C206 C 0.77696 0.24835 0.75951 0.0
C207 C 0.80274 0.25885 0.73631 0.0
C208 C 0.72304 0.21777 0.74662 0.0
C209 C 0.77464 0.19886 0.77838 0.0
C210 C 0.87246 0.35077 0.72019 0.0
C211 C 0.87362 0.37379 0.73794 0.0
C212 C 0.85227 0.37356 0.76585 0.0
C213 C 0.82984 0.35081 0.776 0.0
C214 C 0.82874 0.32791 0.7581 0.0
C215 C 0.85004 0.32801 0.73083 0.0
C216 C 0.84594 0.30147 0.71542 0.0
C217 C 0.81843 0.28563 0.73777 0.0
C218 C 0.80833 0.30136 0.76259 0.0
C219 C 0.83061 0.30703 0.68344 0.0
C220 C 0.88321 0.28866 0.71415 0.0
H221 H 0.71586 0.21804 0.80945 0.0
H222 H 0.71862 0.30175 0.86804 0.0
H223 H 0.8008 0.29144 0.85188 0.0
H224 H 0.8228 0.31636 0.82622 0.0
H225 H 0.78754 0.32566 0.85356 0.0
H226 H 0.71863 0.3221 0.79579 0.0
H227 H 0.73854 0.34089 0.82549 0.0
H228 H 0.75871 0.3423 0.78661 0.0
H229 H 0.76597 0.1745 0.71531 0.0
H230 H 0.84544 0.21293 0.64819 0.0
H231 H 0.84777 0.25352 0.67729 0.0
H232 H 0.71883 0.22619 0.72293 0.0
H233 H 0.71198 0.19641 0.7483 0.0
H234 H 0.70631 0.22979 0.76207 0.0
H235 H 0.80404 0.19525 0.77554 0.0
H236 H 0.77072 0.20588 0.80203 0.0
H237 H 0.75931 0.17908 0.77699 0.0
H238 H 0.67697 0.22009 0.85602 0.0
C239 C 0.71727 0.23648 0.82142 0.0
C240 C 0.80423 0.86072 0.68456 0.0
C241 C 0.78327 0.88353 0.68679 0.0
C242 C 0.75343 0.88256 0.70856 0.0
C243 C 0.76551 0.83661 0.72518 0.0
C244 C 0.79438 0.83734 0.70342 0.0
C245 C 0.81117 0.81034 0.70181 0.0
H246 H 0.81335 0.6791 0.75556 0.0
C247 C 0.76187 0.80923 0.74061 0.0
C248 C 0.78815 0.79352 0.72669 0.0
H249 H 0.88294 0.72004 0.68267 0.0
H250 H 0.85176 0.76143 0.68924 0.0
H251 H 0.81859 0.72569 0.80044 0.0
H252 H 0.73755 0.7054 0.73701 0.0
H253 H 0.71498 0.71308 0.77204 0.0
H254 H 0.74434 0.68523 0.77147 0.0
H255 H 0.7841 0.6992 0.80962 0.0
H256 H 0.77718 0.73391 0.81823 0.0
C257 C 0.85116 0.8141 0.71014 0.0
C258 C 0.80619 0.7998 0.66921 0.0
C259 C 0.67224 0.79015 0.83344 0.0
C260 C 0.66485 0.76735 0.85375 0.0
C261 C 0.68186 0.74325 0.848 0.0
C262 C 0.70671 0.74201 0.82256 0.0
C263 C 0.71484 0.76521 0.80285 0.0
C264 C 0.69742 0.78868 0.80826 0.0
C265 C 0.70991 0.81141 0.78517 0.0
C266 C 0.73845 0.79794 0.76559 0.0
C267 C 0.74106 0.77088 0.77597 0.0
C268 C 0.72669 0.8349 0.80297 0.0
C269 C 0.6772 0.81905 0.76639 0.0
C270 C 0.82145 0.69696 0.74085 0.0
C271 C 0.85028 0.69647 0.71845 0.0
C272 C 0.86059 0.72009 0.69993 0.0
C273 C 0.84252 0.74403 0.70386 0.0
C274 C 0.81392 0.74436 0.72666 0.0
C275 C 0.80389 0.72103 0.74466 0.0
C276 C 0.77397 0.72526 0.76854 0.0
C277 C 0.76694 0.75474 0.76144 0.0
C278 C 0.79042 0.76594 0.73694 0.0
C279 C 0.78886 0.72065 0.80097 0.0
C280 C 0.7409 0.70619 0.76227 0.0
H281 H 0.72165 0.85994 0.74401 0.0
H282 H 0.8269 0.86076 0.66761 0.0
H283 H 0.77988 0.80563 0.66045 0.0
H284 H 0.80514 0.7775 0.66894 0.0
H285 H 0.82811 0.80837 0.65239 0.0
H286 H 0.85359 0.82751 0.72983 0.0
H287 H 0.86842 0.82351 0.69026 0.0
H288 H 0.86261 0.79496 0.71777 0.0
H289 H 0.6595 0.80891 0.83766 0.0
H290 H 0.67642 0.72558 0.86363 0.0
H291 H 0.7191 0.72316 0.81957 0.0
H292 H 0.74443 0.82696 0.82074 0.0
H293 H 0.70521 0.846 0.81498 0.0
H294 H 0.74413 0.84954 0.78808 0.0
H295 H 0.65693 0.80166 0.76575 0.0
H296 H 0.68518 0.8245 0.74182 0.0
H297 H 0.66304 0.836 0.77661 0.0
H298 H 0.73671 0.89977 0.71034 0.0
C299 C 0.74464 0.85937 0.7279 0.0
C300 C 0.80835 0.1984 0.40223 0.0
C301 C 0.78665 0.17425 0.40154 0.0
C302 C 0.76053 0.17208 0.37932 0.0
C303 C 0.77883 0.21729 0.35814 0.0
C304 C 0.80369 0.21972 0.3806 0.0
C305 C 0.82345 0.2472 0.37871 0.0
H306 H 0.85384 0.37153 0.30603 0.0
C307 C 0.78136 0.24277 0.33869 0.0
C308 C 0.8072 0.26051 0.35083 0.0
H309 H 0.9008 0.341 0.38853 0.0
H310 H 0.8667 0.29801 0.38596 0.0
H311 H 0.77213 0.34707 0.32451 0.0
H312 H 0.86063 0.31817 0.26906 0.0
H313 H 0.82096 0.30918 0.25083 0.0
H314 H 0.83351 0.3445 0.255 0.0
H315 H 0.78755 0.3624 0.28741 0.0
H316 H 0.75424 0.33429 0.29115 0.0
C317 C 0.81367 0.26145 0.40885 0.0
C318 C 0.86444 0.24335 0.37267 0.0
C319 C 0.70725 0.25084 0.2437 0.0
C320 C 0.70544 0.2715 0.22061 0.0
C321 C 0.72669 0.29578 0.22204 0.0
C322 C 0.74955 0.29955 0.2463 0.0
C323 C 0.75126 0.27875 0.26933 0.0
C324 C 0.73043 0.25485 0.26774 0.0
C325 C 0.73625 0.23489 0.29401 0.0
C326 C 0.76403 0.25071 0.31156 0.0
C327 C 0.77258 0.27641 0.29705 0.0
C328 C 0.69978 0.22929 0.31329 0.0
C329 C 0.75198 0.20948 0.28012 0.0
C330 C 0.85658 0.35549 0.32348 0.0
C331 C 0.87977 0.35937 0.34753 0.0
C332 C 0.88294 0.33823 0.36989 0.0
C333 C 0.86311 0.31339 0.36833 0.0
C334 C 0.83981 0.30974 0.34417 0.0
C335 C 0.83687 0.33063 0.32229 0.0
C336 C 0.8108 0.32321 0.29835 0.0
C337 C 0.79812 0.29459 0.30967 0.0
C338 C 0.81529 0.28673 0.33644 0.0
C339 C 0.77954 0.34277 0.3001 0.0
C340 C 0.83226 0.32393 0.26653 0.0
H341 H 0.73648 0.19039 0.34105 0.0
H342 H 0.8284 0.20059 0.4193 0.0
H343 H 0.86885 0.22774 0.35547 0.0
H344 H 0.8797 0.26182 0.36278 0.0
H345 H 0.87681 0.23659 0.39424 0.0
H346 H 0.78568 0.25509 0.41817 0.0
H347 H 0.83248 0.25644 0.42705 0.0
H348 H 0.81355 0.28368 0.40526 0.0
H349 H 0.69107 0.232 0.24294 0.0
H350 H 0.72544 0.31185 0.20435 0.0
H351 H 0.765 0.31853 0.24615 0.0
H352 H 0.68333 0.24743 0.31283 0.0
H353 H 0.68332 0.21239 0.30415 0.0
H354 H 0.70346 0.22478 0.33806 0.0
H355 H 0.77238 0.2154 0.26079 0.0
H356 H 0.76652 0.19727 0.29675 0.0
H357 H 0.73028 0.19638 0.27083 0.0
H358 H 0.74349 0.15364 0.37859 0.0
C359 C 0.7566 0.1934 0.35756 0.0
C360 C 0.2615 0.19018 0.69966 0.0
C361 C 0.23861 0.18824 0.6751 0.0
C362 C 0.21602 0.20953 0.66859 0.0
C363 C 0.2394 0.23426 0.71094 0.0
C364 C 0.2614 0.2132 0.71722 0.0
C365 C 0.28393 0.2182 0.7443 0.0
H366 H 0.33282 0.29804 0.85899 0.0
C367 C 0.24598 0.2552 0.73366 0.0
C368 C 0.27206 0.24574 0.75326 0.0
H369 H 0.37165 0.2201 0.8378 0.0
H370 H 0.33304 0.21777 0.7947 0.0
H371 H 0.24855 0.28314 0.84818 0.0
H372 H 0.33598 0.32178 0.78965 0.0
H373 H 0.29699 0.33851 0.78093 0.0
H374 H 0.31281 0.3392 0.81948 0.0
H375 H 0.26688 0.31679 0.85348 0.0
H376 H 0.23089 0.31053 0.82799 0.0
C377 C 0.27288 0.19585 0.76988 0.0
C378 C 0.32445 0.21929 0.73276 0.0
C379 C 0.17891 0.34281 0.73063 0.0
C380 C 0.18041 0.3656 0.7488 0.0
C381 C 0.2039 0.36637 0.77309 0.0
C382 C 0.22563 0.34475 0.77944 0.0
C383 C 0.22397 0.32202 0.76126 0.0
C384 C 0.201 0.32128 0.73724 0.0
C385 C 0.20335 0.29545 0.72032 0.0
C386 C 0.23144 0.28089 0.73817 0.0
C387 C 0.24325 0.29662 0.76217 0.0
C388 C 0.1657 0.28002 0.72376 0.0
C389 C 0.21708 0.30297 0.68648 0.0
C390 C 0.33277 0.28053 0.84497 0.0
C391 C 0.35495 0.25915 0.85157 0.0
C392 C 0.35458 0.23669 0.83294 0.0
C393 C 0.33217 0.23543 0.80801 0.0
C394 C 0.30992 0.25692 0.8016 0.0
C395 C 0.31059 0.27901 0.81991 0.0
C396 C 0.2855 0.30006 0.80947 0.0
C397 C 0.26941 0.28689 0.78206 0.0
C398 C 0.28376 0.26164 0.77759 0.0
C399 C 0.25646 0.30309 0.83608 0.0
C400 C 0.30871 0.3264 0.79952 0.0
H401 H 0.19854 0.24809 0.68027 0.0
H402 H 0.27907 0.17403 0.70508 0.0
H403 H 0.32842 0.22884 0.70898 0.0
H404 H 0.34201 0.23185 0.74681 0.0
H405 H 0.33469 0.19864 0.73215 0.0
H406 H 0.24335 0.19008 0.77017 0.0
H407 H 0.28772 0.17729 0.76609 0.0
H408 H 0.27719 0.20247 0.79338 0.0
H409 H 0.16104 0.34188 0.71177 0.0
H410 H 0.20532 0.38379 0.78722 0.0
H411 H 0.24288 0.34661 0.79832 0.0
H412 H 0.15293 0.28173 0.74737 0.0
H413 H 0.14714 0.2884 0.70698 0.0
H414 H 0.16709 0.25808 0.7209 0.0
H415 H 0.23857 0.31967 0.68548 0.0
H416 H 0.22977 0.28616 0.67504 0.0
H417 H 0.1947 0.30988 0.67261 0.0
H418 H 0.1982 0.20829 0.64971 0.0
C419 C 0.21631 0.23254 0.68635 0.0
C420 C 0.17694 0.69434 0.33748 0.0
C421 C 0.17717 0.67203 0.31862 0.0
C422 C 0.19839 0.67384 0.29061 0.0
C423 C 0.21842 0.71997 0.29998 0.0
C424 C 0.1978 0.71812 0.32768 0.0
C425 C 0.2008 0.74403 0.3445 0.0
H426 H 0.27488 0.87241 0.35045 0.0
C427 C 0.23645 0.74741 0.29617 0.0
C428 C 0.22631 0.76172 0.32216 0.0
H429 H 0.19999 0.82885 0.41758 0.0
H430 H 0.19784 0.79011 0.38555 0.0
H431 H 0.23313 0.85525 0.29181 0.0
H432 H 0.32408 0.82131 0.33414 0.0
H433 H 0.33361 0.82421 0.29387 0.0
H434 H 0.32652 0.85424 0.31463 0.0
H435 H 0.27795 0.8712 0.28667 0.0
H436 H 0.26255 0.84527 0.26182 0.0
C437 C 0.16263 0.75529 0.34788 0.0
C438 C 0.21798 0.73779 0.37554 0.0
C439 C 0.32016 0.77204 0.20081 0.0
C440 C 0.34101 0.79566 0.19071 0.0
C441 C 0.33907 0.81887 0.20811 0.0
C442 C 0.31738 0.81832 0.23579 0.0
C443 C 0.29738 0.79429 0.24616 0.0
C444 C 0.29853 0.77184 0.22843 0.0
C445 C 0.27521 0.74821 0.24276 0.0
C446 C 0.26019 0.76 0.27218 0.0
C447 C 0.27347 0.78691 0.27424 0.0
C448 C 0.24503 0.74145 0.22053 0.0
C449 C 0.30009 0.72474 0.24969 0.0
C450 C 0.25813 0.85444 0.35813 0.0
C451 C 0.23771 0.85345 0.38653 0.0
C452 C 0.21598 0.82988 0.3958 0.0
C453 C 0.21482 0.80748 0.37718 0.0
C454 C 0.23551 0.80865 0.34886 0.0
C455 C 0.25648 0.83197 0.33966 0.0
C456 C 0.27597 0.82988 0.30854 0.0
C457 C 0.26375 0.80136 0.30073 0.0
C458 C 0.24017 0.78891 0.32451 0.0
C459 C 0.26206 0.85158 0.2859 0.0
C460 C 0.31727 0.8327 0.31272 0.0
H461 H 0.23447 0.69773 0.25952 0.0
H462 H 0.16074 0.6933 0.35915 0.0
H463 H 0.23982 0.7234 0.37251 0.0
H464 H 0.23123 0.75583 0.38497 0.0
H465 H 0.19741 0.72843 0.39309 0.0
H466 H 0.14739 0.75172 0.32695 0.0
H467 H 0.14649 0.74528 0.36806 0.0
H468 H 0.16351 0.77743 0.35004 0.0
H469 H 0.3214 0.75392 0.18785 0.0
H470 H 0.35517 0.8372 0.20065 0.0
H471 H 0.3175 0.83648 0.24829 0.0
H472 H 0.23715 0.76003 0.20773 0.0
H473 H 0.25422 0.72717 0.20315 0.0
H474 H 0.21955 0.73298 0.23271 0.0
H475 H 0.32689 0.73266 0.25686 0.0
H476 H 0.28925 0.71087 0.26914 0.0
H477 H 0.30509 0.71287 0.22896 0.0
H478 H 0.19877 0.65678 0.27591 0.0
C479 C 0.21898 0.69765 0.28118 0.0
C480 C 0.08288 0.55647 0.36934 0.0
C481 C 0.0956 0.56545 0.39672 0.0
C482 C 0.07822 0.54938 0.42003 0.0
C483 C 0.0558 0.53171 0.40563 0.0
N484 N 0.05834 0.53511 0.37446 0.0
Co485 Co 0.02745 0.51604 0.34476 0.0
N486 N 0.99939 0.49417 0.37919 0.0
C487 C 0.00488 0.4946 0.40969 0.0
C488 C 0.98342 0.47577 0.42756 0.0
C489 C 0.96357 0.46203 0.4072 0.0
C490 C 0.97407 0.47343 0.37801 0.0
N491 N 0.99553 0.49797 0.31507 0.0
C492 C 0.96948 0.47769 0.3202 0.0
C493 C 0.95394 0.47082 0.29312 0.0
C494 C 0.97136 0.48699 0.26989 0.0
C495 C 0.99631 0.50282 0.28409 0.0
N496 N 0.05648 0.53699 0.3102 0.0
C497 C 0.05318 0.53472 0.27955 0.0
C498 C 0.0769 0.55184 0.26144 0.0
C499 C 0.09614 0.56616 0.28174 0.0
C500 C 0.08282 0.557 0.31115 0.0
N501 N 0.06148 0.48641 0.34178 0.0
C502 C 0.1014 0.43969 0.33887 0.0
C503 C 0.0851 0.45003 0.31302 0.0
C504 C 0.06615 0.47348 0.31477 0.0
C505 C 0.09921 0.45392 0.36584 0.0
C506 C 0.07886 0.47696 0.36691 0.0
N507 N 0.99327 0.5455 0.34773 0.0
C508 C 0.96173 0.58128 0.32299 0.0
C509 C 0.94789 0.58906 0.35148 0.0
C510 C 0.95641 0.57457 0.37817 0.0
C511 C 0.97909 0.55294 0.37578 0.0
C512 C 0.98403 0.55954 0.32162 0.0
H513 H 0.98509 0.54275 0.39691 0.0
H514 H 0.99386 0.55475 0.29915 0.0
H515 H 0.05476 0.48028 0.29407 0.0
H516 H 0.077 0.48644 0.38843 0.0
C517 C 0.03105 0.51246 0.42068 0.0
C518 C 0.09392 0.56947 0.33912 0.0
C519 C 0.96064 0.46295 0.34976 0.0
C520 C 0.02425 0.5193 0.26867 0.0
H521 H 0.11492 0.58222 0.39958 0.0
H522 H 0.08084 0.5509 0.4446 0.0
H523 H 0.98294 0.47201 0.45236 0.0
H524 H 0.94419 0.44513 0.41305 0.0
H525 H 0.93317 0.45501 0.29033 0.0
H526 H 0.96762 0.48627 0.24539 0.0
H527 H 0.0787 0.55459 0.2365 0.0
H528 H 0.11662 0.58229 0.27563 0.0
H529 H 0.08672 0.43985 0.29148 0.0
H530 H 0.1121 0.44676 0.38624 0.0
H531 H 0.95553 0.59211 0.30182 0.0
H532 H 0.94601 0.58013 0.40068 0.0
C533 C 0.06901 0.57306 0.74253 0.0
C534 C 0.07041 0.58778 0.76903 0.0
C535 C 0.04217 0.57806 0.78879 0.0
C536 C 0.02459 0.55836 0.77335 0.0
N537 N 0.04029 0.55452 0.74516 0.0
Co538 Co 0.01785 0.53218 0.71342 0.0
N539 N 0.98259 0.51326 0.74466 0.0
C540 C 0.97415 0.52114 0.77324 0.0
C541 C 0.94956 0.50353 0.78986 0.0
C542 C 0.94198 0.48324 0.77044 0.0
C543 C 0.96239 0.48979 0.743 0.0
N544 N 0.99451 0.51057 0.68173 0.0
C545 C 0.97222 0.48788 0.68532 0.0
C546 C 0.96199 0.47917 0.65706 0.0
C547 C 0.97874 0.49706 0.63494 0.0
C548 C 0.9981 0.51563 0.65093 0.0
N549 N 0.05378 0.55047 0.6821 0.0
C550 C 0.05335 0.54888 0.65122 0.0
C551 C 0.0841 0.56046 0.63566 0.0
C552 C 0.10484 0.57059 0.65801 0.0
C553 C 0.08504 0.56529 0.68604 0.0
N554 N 0.05159 0.50356 0.72054 0.0
C555 C 0.09463 0.45946 0.73083 0.0
C556 C 0.08713 0.4681 0.70085 0.0
C557 C 0.06594 0.49027 0.69619 0.0
C558 C 0.08106 0.47382 0.75557 0.0
C559 C 0.05937 0.49565 0.74996 0.0
N560 N 0.98368 0.56063 0.70658 0.0
C561 C 0.97267 0.60813 0.70339 0.0
C562 C 0.93531 0.60218 0.70594 0.0
C563 C 0.92236 0.57502 0.70718 0.0
C564 C 0.94707 0.55451 0.70716 0.0
C565 C 0.99621 0.58716 0.70379 0.0
H566 H 0.93651 0.53374 0.70876 0.0
H567 H 0.02453 0.59257 0.70326 0.0
H568 H 0.06062 0.49622 0.67282 0.0
H569 H 0.04832 0.50577 0.76948 0.0
C570 C 0.99378 0.54274 0.78493 0.0
C571 C 0.09283 0.57947 0.71424 0.0
C572 C 0.95986 0.47447 0.71512 0.0
C573 C 0.02583 0.53369 0.63802 0.0
H574 H 0.0887 0.6047 0.77347 0.0
H575 H 0.0348 0.58504 0.81142 0.0
H576 H 0.93935 0.50475 0.8136 0.0
H577 H 0.92337 0.46579 0.77576 0.0
H578 H 0.94478 0.4615 0.65289 0.0
H579 H 0.9786 0.49568 0.61014 0.0
H580 H 0.09084 0.56122 0.61102 0.0
H581 H 0.13053 0.58211 0.65394 0.0
H582 H 0.0974 0.45762 0.68113 0.0
H583 H 0.08654 0.4678 0.77909 0.0
H584 H 0.98361 0.62893 0.70236 0.0
H585 H 0.89349 0.56973 0.70907 0.0
C586 C 0.27204 0.97906 0.58205 0.0
C587 C 0.30491 0.9712 0.5923 0.0
C588 C 0.33141 0.98645 0.57525 0.0
C589 C 0.31329 1.00272 0.5557 0.0
N590 N 0.27676 0.9991 0.5595 0.0
Co591 Co 0.2401 0.01793 0.5352 0.0
N592 N 0.27919 0.03905 0.50871 0.0
C593 C 0.31544 0.03781 0.51059 0.0
C594 C 0.33553 0.05505 0.48975 0.0
C595 C 0.31065 0.06838 0.47378 0.0
C596 C 0.2767 0.05848 0.48595 0.0
N597 N 0.20342 0.03657 0.51069 0.0
C598 C 0.20813 0.05639 0.48787 0.0
C599 C 0.17525 0.06433 0.47775 0.0
C600 C 0.14877 0.0491 0.49486 0.0
C601 C 0.1669 0.03283 0.51441 0.0
N602 N 0.20102 0.99692 0.56188 0.0
C603 C 0.16477 0.99858 0.56043 0.0
C604 C 0.14471 0.98092 0.58085 0.0
C605 C 0.16957 0.96691 0.59608 0.0
C606 C 0.2035 0.97693 0.58405 0.0
N607 N 0.23981 0.04775 0.56452 0.0
C608 C 0.23966 0.09269 0.60215 0.0
C609 C 0.2073 0.08078 0.59289 0.0
C610 C 0.20796 0.05841 0.57441 0.0
C611 C 0.27205 0.08139 0.59303 0.0
C612 C 0.27152 0.05911 0.57435 0.0
N613 N 0.24037 0.98822 0.5058 0.0
C614 C 0.2081 0.95415 0.47798 0.0
C615 C 0.24063 0.94489 0.4659 0.0
C616 C 0.27304 0.95779 0.47375 0.0
C617 C 0.27231 0.97918 0.49368 0.0
C618 C 0.20857 0.97576 0.49757 0.0
H619 H 0.29794 0.98794 0.49909 0.0
H620 H 0.18285 0.98189 0.50592 0.0
H621 H 0.18236 0.05034 0.56812 0.0
H622 H 0.29716 0.05168 0.56786 0.0
C623 C 0.3298 0.02077 0.53274 0.0
C624 C 0.23721 0.96611 0.59368 0.0
C625 C 0.24302 0.06893 0.47579 0.0
C626 C 0.15042 0.01526 0.5379 0.0
H627 H 0.30927 0.95568 0.6099 0.0
H628 H 0.36044 0.98538 0.57649 0.0
H629 H 0.36476 0.0579 0.48684 0.0
H630 H 0.31678 0.08394 0.45556 0.0
H631 H 0.17085 0.07987 0.46019 0.0
H632 H 0.11974 0.05027 0.49376 0.0
H633 H 0.11547 0.97796 0.58361 0.0
H634 H 0.16341 0.95075 0.61359 0.0
H635 H 0.18159 0.08887 0.59971 0.0
H636 H 0.29772 0.08999 0.59993 0.0
H637 H 0.18238 0.94469 0.47233 0.0
H638 H 0.29884 0.95119 0.46477 0.0
C639 C 0.46677 0.81607 0.07137 0.0
C640 C 0.46074 0.84235 0.07925 0.0
C641 C 0.48883 0.85853 0.06541 0.0
C642 C 0.5102 0.84135 0.04972 0.0
N643 N 0.49708 0.81535 0.05231 0.0
Co644 Co 0.5196 0.78422 0.03269 0.0
N645 N 0.55223 0.80877 0.00447 0.0
C646 C 0.55966 0.83538 0.00753 0.0
C647 C 0.58255 0.84716 0.98407 0.0
C648 C 0.59017 0.82666 0.96509 0.0
C649 C 0.57156 0.80342 0.97821 0.0
N650 N 0.54242 0.75324 0.01332 0.0
C651 C 0.56316 0.7526 0.98664 0.0
C652 C 0.5741 0.72669 0.98195 0.0
C653 C 0.5597 0.71057 0.00669 0.0
C654 C 0.54091 0.72751 0.02502 0.0
N655 N 0.48687 0.7596 0.06094 0.0
C656 C 0.49084 0.733 0.0669 0.0
C657 C 0.46538 0.72128 0.08841 0.0
C658 C 0.44432 0.74183 0.097 0.0
C659 C 0.45822 0.76506 0.08021 0.0
N660 N 0.48324 0.78402 1.00166 0.0
C661 C 0.43843 0.78321 0.95196 0.0
C662 C 0.4466 0.7591 0.96744 0.0
C663 C 0.46863 0.75996 0.99249 0.0
C664 C 0.45162 0.8078 0.96268 0.0
C665 C 0.47432 0.80776 0.98734 0.0
N666 N 0.55646 0.78426 0.06335 0.0
C667 C 0.572 0.78588 0.11629 0.0
C668 C 0.60855 0.78351 0.1075 0.0
C669 C 0.61867 0.78134 0.07622 0.0
C670 C 0.59222 0.78199 0.0545 0.0
C671 C 0.54649 0.78589 0.09392 0.0
H672 H 0.60065 0.78038 0.03061 0.0
H673 H 0.51864 0.78677 0.10138 0.0
H674 H 0.47469 0.74107 0.00384 0.0
H675 H 0.48545 0.82694 0.99417 0.0
C676 C 0.53994 0.84931 0.0294 0.0
C677 C 0.44629 0.79224 0.08619 0.0
C678 C 0.57501 0.77636 0.96644 0.0
C679 C 0.51705 0.71937 0.05028 0.0
H680 H 0.43907 0.84895 0.09441 0.0
H681 H 0.49287 0.88028 0.06633 0.0
H682 H 0.59144 0.86832 0.98046 0.0
H683 H 0.60756 0.8286 0.94409 0.0
H684 H 0.59087 0.72018 0.96276 0.0
H685 H 0.56164 0.68893 0.01028 0.0
H686 H 0.46243 0.70029 0.09683 0.0
H687 H 0.42203 0.7401 0.11439 0.0
H688 H 0.43636 0.73973 0.95996 0.0
H689 H 0.4455 0.82683 0.95133 0.0
H690 H 0.56317 0.78731 0.14036 0.0
H691 H 0.64676 0.77925 0.06867 0.0
C692 C 0.8368 0.98917 0.58503 0.0
C693 C 0.87064 0.98075 0.59213 0.0
C694 C 0.89484 0.99177 0.56934 0.0
C695 C 0.87455 0.00638 0.5498 0.0
N696 N 0.83907 0.00573 0.55903 0.0
Co697 Co 0.80055 0.02411 0.53696 0.0
N698 N 0.83718 0.04629 0.50952 0.0
C699 C 0.87267 0.04183 0.50534 0.0
C700 C 0.89136 0.06064 0.4853 0.0
C701 C 0.86607 0.07799 0.47608 0.0
C702 C 0.83325 0.06866 0.49101 0.0
N703 N 0.76228 0.04233 0.51474 0.0
C704 C 0.76477 0.0648 0.49542 0.0
C705 C 0.73128 0.07028 0.48451 0.0
C706 C 0.707 0.05046 0.49738 0.0
C707 C 0.72696 0.03405 0.51533 0.0
N708 N 0.76386 1.00186 0.56439 0.0
C709 C 0.72819 0.99848 0.55982 0.0
C710 C 0.70952 0.98129 0.58163 0.0
C711 C 0.73506 0.97279 0.60091 0.0
C712 C 0.76804 0.9853 0.58969 0.0
N713 N 0.8008 0.0526 0.56678 0.0
C714 C 0.80058 0.09597 0.6059 0.0
C715 C 0.76817 0.08186 0.59986 0.0
C716 C 0.76883 0.06048 0.57999 0.0
C717 C 0.83318 0.08746 0.59276 0.0
C718 C 0.83274 0.06558 0.57358 0.0
N719 N 0.80009 0.99579 0.50686 0.0
C720 C 0.79802 0.94851 0.49633 0.0
C721 C 0.80003 0.95495 0.46465 0.0
C722 C 0.80152 0.98218 0.45425 0.0
C723 C 0.80146 1.00231 0.47579 0.0
C724 C 0.79787 0.96918 0.5169 0.0
H725 H 0.8023 0.02307 0.46733 0.0
H726 H 0.79546 0.96357 0.54093 0.0
H727 H 0.74334 0.05067 0.57493 0.0
H728 H 0.85825 0.05953 0.56383 0.0
C729 C 0.88832 0.02273 0.52425 0.0
C730 C 0.80298 0.97775 0.60097 0.0
C731 C 0.79858 0.08028 0.48522 0.0
C732 C 0.71283 0.01329 0.53622 0.0
H733 H 0.87689 0.96714 0.61111 0.0
H734 H 0.92379 0.98947 0.56733 0.0
H735 H 0.92017 0.06216 0.47902 0.0
H736 H 0.87114 0.09538 0.46005 0.0
H737 H 0.72514 0.08675 0.46871 0.0
H738 H 0.67807 0.04871 0.4947 0.0
H739 H 0.68079 0.97557 0.58331 0.0
H740 H 0.73017 0.95823 0.62032 0.0
H741 H 0.74246 0.08782 0.60978 0.0
H742 H 0.8588 0.0978 0.59714 0.0
H743 H 0.79635 0.92759 0.50513 0.0
H744 H 0.80267 0.98778 0.42976 0.0
C745 C 0.47784 0.28695 0.08112 0.0
C746 C 0.46675 0.31172 0.09055 0.0
C747 C 0.48651 0.33118 0.07249 0.0
C748 C 0.50846 0.31724 0.05317 0.0
N749 N 0.50358 0.29 0.05748 0.0
Co750 Co 0.53125 0.26205 0.03568 0.0
N751 N 0.56202 0.29071 0.0105 0.0
C752 C 0.55992 0.31786 0.01139 0.0
C753 C 0.58369 0.33235 0.9906 0.0
C754 C 0.60179 0.31334 0.97519 0.0
C755 C 0.58794 0.28828 0.98757 0.0
N756 N 0.55934 0.2341 0.01433 0.0
C757 C 0.58604 0.2371 0.99147 0.0
C758 C 0.5981 0.21233 0.98297 0.0
C759 C 0.57807 0.19292 1.00088 0.0
C760 C 0.55506 0.20689 0.01923 0.0
N761 N 0.50008 0.23338 0.06047 0.0
C762 C 0.50124 0.20624 0.05873 0.0
C763 C 0.47683 0.19172 0.07894 0.0
C764 C 0.45921 0.21069 0.0948 0.0
C765 C 0.47404 0.23576 0.0833 0.0
N766 N 0.49604 0.26157 0.00266 0.0
C767 C 0.44868 0.26117 0.95413 0.0
C768 C 0.46049 0.23706 0.96681 0.0
C769 C 0.48397 0.23771 0.99093 0.0
C770 C 0.46038 0.28545 0.96624 0.0
C771 C 0.48383 0.28519 0.99035 0.0
N772 N 0.56639 0.26259 0.0687 0.0
C773 C 0.5985 0.23918 0.10806 0.0
C774 C 0.61285 0.26372 0.11781 0.0
C775 C 0.60427 0.28762 0.10239 0.0
C776 C 0.5812 0.28662 0.07806 0.0
C777 C 0.57557 0.23907 0.08354 0.0
H778 H 0.57545 0.30557 0.06743 0.0
H779 H 0.56531 0.21974 0.07723 0.0
H780 H 0.4922 0.21866 0.9995 0.0
H781 H 0.4919 0.30439 0.99844 0.0
C782 C 0.53478 0.32911 0.03156 0.0
C783 C 0.46381 0.26115 0.09593 0.0
C784 C 0.59963 0.26279 0.97615 0.0
C785 C 0.5275 0.19502 0.03965 0.0
H786 H 0.44682 0.31532 0.10892 0.0
H787 H 0.48554 0.3529 0.07372 0.0
H788 H 0.58705 0.35412 0.98678 0.0
H789 H 0.62252 0.31742 0.95666 0.0
H790 H 0.61873 0.20867 0.96518 0.0
H791 H 0.57944 0.17119 1.00003 0.0
H792 H 0.47307 0.16993 0.08239 0.0
H793 H 0.43843 0.20656 0.11328 0.0
H794 H 0.45185 0.21782 0.95797 0.0
H795 H 0.45163 0.30455 0.95695 0.0
H796 H 0.60471 0.22021 0.11951 0.0
H797 H 0.61506 0.30703 0.10934 0.0
C798 C 0.1609 0.38701 0.3064 0.0
C799 C 0.1525 0.36419 0.32708 0.0
C800 C 0.10466 0.38959 0.35226 0.0
C801 C 0.12018 0.4139 0.33685 0.0
N802 N 0.1664 0.43561 0.30081 0.0
N803 N 0.09879 0.34074 0.35121 0.0
C804 C 0.14947 0.41256 0.31455 0.0
C805 C 0.11933 0.36437 0.34534 0.0
N806 N 0.17257 0.3836 0.27656 0.0
N807 N 0.07576 0.39037 0.3732 0.0
H808 H 0.10579 0.32285 0.34121 0.0
H809 H 0.07274 0.33961 0.36183 0.0
H810 H 0.06243 0.40792 0.37741 0.0
H811 H 0.06637 0.37379 0.38772 0.0
H812 H 0.17619 0.39962 0.25995 0.0
H813 H 0.17268 0.36439 0.26763 0.0
H814 H 0.18942 0.43514 0.2858 0.0
H815 H 0.15957 0.45495 0.30666 0.0
C816 C 0.14473 0.64768 0.69041 0.0
C817 C 0.16319 0.65274 0.71748 0.0
C818 C 0.14584 0.60584 0.73552 0.0
C819 C 0.11962 0.60386 0.71299 0.0
N820 N 0.08949 0.62822 0.6726 0.0
N821 N 0.17183 0.63684 0.77028 0.0
C822 C 0.1177 0.62624 0.6913 0.0
C823 C 0.16168 0.63177 0.7413 0.0
N824 N 0.15327 0.66283 0.66361 0.0
N825 N 0.15442 0.58335 0.75231 0.0
H826 H 0.17855 0.65624 0.77715 0.0
H827 H 0.16858 0.62225 0.78854 0.0
H828 H 0.14339 0.56404 0.74843 0.0
H829 H 0.17497 0.58385 0.76779 0.0
H830 H 0.14167 0.65846 0.64294 0.0
H831 H 0.17493 0.67733 0.66132 0.0
H832 H 0.08633 0.64551 0.65852 0.0
H833 H 0.06758 0.61415 0.67332 0.0
C834 C 0.92227 0.66158 0.342 0.0
C835 C 0.88388 0.65819 0.34218 0.0
C836 C 0.88696 0.60922 0.35226 0.0
C837 C 0.92519 0.61281 0.35277 0.0
N838 N 0.97802 0.64262 0.35708 0.0
N839 N 0.82921 0.63019 0.35513 0.0
C840 C 0.94242 0.63913 0.35061 0.0
C841 C 0.86605 0.63239 0.34976 0.0
N842 N 0.93968 0.68574 0.33192 0.0
N843 N 0.87079 0.58369 0.35309 0.0
H844 H 0.8132 0.64686 0.35396 0.0
H845 H 0.81494 0.61239 0.36353 0.0
H846 H 0.88517 0.5663 0.356 0.0
H847 H 0.84359 0.57971 0.34906 0.0
H848 H 0.96773 0.68836 0.32807 0.0
H849 H 0.92609 0.70262 0.32479 0.0
H850 H 0.99128 0.66156 0.35864 0.0
H851 H 0.99318 0.62651 0.36404 0.0
C852 C 0.93469 0.39914 0.72863 0.0
C853 C 0.89638 0.39865 0.72747 0.0
C854 C 0.89969 0.44771 0.71555 0.0
C855 C 0.938 0.44808 0.71647 0.0
N856 N 0.99245 0.42368 0.71527 0.0
N857 N 0.84331 0.42081 0.71235 0.0
C858 C 0.95565 0.4236 0.7202 0.0
C859 C 0.87915 0.42248 0.71858 0.0
N860 N 0.95094 0.37671 0.73937 0.0
N861 N 0.8829 0.47153 0.71259 0.0
H862 H 0.82768 0.40255 0.71392 0.0
H863 H 0.82993 0.43691 0.70293 0.0
H864 H 0.89712 0.49028 0.70892 0.0
H865 H 0.85496 0.47291 0.7156 0.0
H866 H 0.97824 0.37685 0.74409 0.0
H867 H 0.93663 0.3584 0.74586 0.0
H868 H 0.00642 0.40604 0.714 0.0
H869 H 0.00863 0.44133 0.70957 0.0
C870 C 0.26078 0.14158 0.44291 0.0
C871 C 0.25302 0.13877 0.41152 0.0
C872 C 0.23913 0.09004 0.42202 0.0
C873 C 0.24454 0.09323 0.45373 0.0
N874 N 0.25311 0.12264 0.49561 0.0
N875 N 0.22717 0.11172 0.37268 0.0
C876 C 0.25298 0.11924 0.46457 0.0
C877 C 0.23989 0.11337 0.40151 0.0
N878 N 0.27727 0.16509 0.45178 0.0
N879 N 0.23433 0.06466 0.41133 0.0
H880 H 0.22669 0.1285 0.35724 0.0
H881 H 0.21396 0.09436 0.36517 0.0
H882 H 0.23313 0.04711 0.42574 0.0
H883 H 0.23433 0.06089 0.38794 0.0
H884 H 0.28722 0.16721 0.47355 0.0
H885 H 0.28396 0.18182 0.43661 0.0
H886 H 0.25523 0.14157 0.505 0.0
H887 H 0.24777 0.10667 0.51211 0.0
C888 C 0.3578 0.77586 0.90125 0.0
C889 C 0.37602 0.7763 0.87152 0.0
C890 C 0.43426 0.78585 0.89423 0.0
C891 C 0.41656 0.78246 0.92423 0.0
N892 N 0.36199 0.77282 0.95691 0.0
N893 N 0.43161 0.77864 0.83949 0.0
C894 C 0.37842 0.77708 0.9279 0.0
C895 C 0.41427 0.7806 0.86792 0.0
N896 N 0.32073 0.77511 0.90387 0.0
N897 N 0.47008 0.79444 0.89084 0.0
H898 H 0.41785 0.7752 0.81961 0.0
H899 H 0.45965 0.77835 0.83588 0.0
H900 H 0.48592 0.79793 0.90947 0.0
H901 H 0.48351 0.8002 0.8696 0.0
H902 H 0.30574 0.77765 0.92446 0.0
H903 H 0.30475 0.77406 0.88489 0.0
H904 H 0.33518 0.7655 0.96122 0.0
H905 H 0.37577 0.77525 0.97698 0.0
C906 C 0.76859 0.89218 0.4248 0.0
C907 C 0.80077 0.88656 0.40745 0.0
C908 C 0.83255 0.92639 0.42691 0.0
C909 C 0.79982 0.93283 0.44282 0.0
N910 N 0.73509 0.92537 0.45199 0.0
N911 N 0.86104 0.90093 0.3868 0.0
C912 C 0.7673 0.91678 0.4402 0.0
C913 C 0.83209 0.90448 0.40693 0.0
N914 N 0.73981 0.87349 0.42761 0.0
N915 N 0.86434 0.94048 0.43184 0.0
H916 H 0.86164 0.8851 0.3718 0.0
H917 H 0.8831 0.91493 0.38302 0.0
H918 H 0.86576 0.95685 0.44603 0.0
H919 H 0.88967 0.93471 0.42375 0.0
H920 H 0.71721 0.8751 0.4427 0.0
H921 H 0.73972 0.85515 0.41678 0.0
H922 H 0.70998 0.91602 0.4481 0.0
H923 H 0.73317 0.94338 0.46334 0.0
C924 C 0.68526 0.25954 0.92327 0.0
C925 C 0.6707 0.26204 0.89378 0.0
C926 C 0.60944 0.26351 0.91826 0.0
C927 C 0.62432 0.2629 0.94765 0.0
N928 N 0.67631 0.26421 0.97857 0.0
N929 N 0.62023 0.27088 0.86277 0.0
C930 C 0.66227 0.26209 0.95028 0.0
C931 C 0.6331 0.26526 0.89115 0.0
N932 N 0.72078 0.25376 0.92545 0.0
N933 N 0.57263 0.26175 0.91633 0.0
H934 H 0.63674 0.27227 0.84238 0.0
H935 H 0.59388 0.27636 0.8596 0.0
H936 H 0.55443 0.26115 0.93567 0.0
H937 H 0.56007 0.25886 0.8958 0.0
H938 H 0.73207 0.24875 0.94623 0.0
H939 H 0.73849 0.2519 0.90618 0.0
H940 H 0.70395 0.26676 0.98169 0.0
H941 H 0.66016 0.26545 0.99891 0.0
C942 C 0.22782 0.91956 0.66707 0.0
C943 C 0.24087 0.89532 0.65559 0.0
C944 C 0.24468 0.91615 0.60291 0.0
C945 C 0.23639 0.94133 0.615 0.0
N946 N 0.2244 0.96812 0.65894 0.0
N947 N 0.26666 0.87159 0.61304 0.0
C948 C 0.22904 0.94334 0.6472 0.0
C949 C 0.2504 0.89379 0.62356 0.0
N950 N 0.21339 0.91964 0.69677 0.0
N951 N 0.24674 0.91357 0.57165 0.0
H952 H 0.27181 0.85492 0.62737 0.0
H953 H 0.27788 0.87064 0.59058 0.0
H954 H 0.24301 0.92961 0.55587 0.0
H955 H 0.24894 0.89506 0.56151 0.0
H956 H 0.20019 0.9359 0.70556 0.0
H957 H 0.21149 0.90245 0.71179 0.0
H958 H 0.22304 0.97129 0.68251 0.0
H959 H 0.22468 0.98594 0.64508 0.0
C960 C 0.65356 0.76333 0.18086 0.0
C961 C 0.68211 0.7837 0.18086 0.0
C962 C 0.66252 0.80425 0.13256 0.0
C963 C 0.63572 0.78274 0.13141 0.0
N964 N 0.61194 0.73827 0.15028 0.0
N965 N 0.71919 0.81952 0.15304 0.0
C966 C 0.63322 0.76113 0.15427 0.0
C967 C 0.6883 0.80292 0.15552 0.0
N968 N 0.64456 0.74696 0.20674 0.0
N969 N 0.66235 0.82656 0.11278 0.0
H970 H 0.73903 0.81874 0.16914 0.0
H971 H 0.72681 0.83208 0.13353 0.0
H972 H 0.64353 0.82864 0.09597 0.0
H973 H 0.67881 0.84405 0.11487 0.0
H974 H 0.62152 0.73378 0.20901 0.0
H975 H 0.65805 0.7483 0.22709 0.0
H976 H 0.61186 0.72085 0.16475 0.0
H977 H 0.59721 0.73572 0.13075 0.0
C978 C 0.78399 0.1665 0.63415 0.0
C979 C 0.80368 0.16625 0.66121 0.0
C980 C 0.81662 0.11875 0.65439 0.0
C981 C 0.80046 0.11994 0.62549 0.0
N982 N 0.77282 0.14617 0.5858 0.0
N983 N 0.84276 0.14358 0.69533 0.0
C984 C 0.78512 0.14414 0.61485 0.0
C985 C 0.8211 0.14274 0.67088 0.0
N986 N 0.76332 0.18781 0.62735 0.0
N987 N 0.82644 0.09446 0.66662 0.0
H988 H 0.84639 0.1607 0.70815 0.0
H989 H 0.85939 0.12813 0.70137 0.0
H990 H 0.82295 0.07638 0.65549 0.0
H991 H 0.83486 0.09173 0.68897 0.0
H992 H 0.74509 0.18781 0.60995 0.0
H993 H 0.76199 0.20466 0.6408 0.0
H994 H 0.76552 0.16426 0.57532 0.0
H995 H 0.77249 0.13019 0.57111 0.0
C996 C 0.43187 0.26395 0.18082 0.0
C997 C 0.39368 0.26216 0.17879 0.0
C998 C 0.40133 0.26032 0.12241 0.0
C999 C 0.43943 0.26076 0.12464 0.0
N1000 N 0.49108 0.25819 0.15576 0.0
N1001 N 0.34171 0.25363 0.14889 0.0
C1002 C 0.45474 0.26109 0.15383 0.0
C1003 C 0.37829 0.25888 0.14989 0.0
N1004 N 0.44628 0.26947 0.20829 0.0
N1005 N 0.38727 0.26189 0.09397 0.0
H1006 H 0.32403 0.25236 0.16859 0.0
H1007 H 0.32917 0.24828 0.12904 0.0
H1008 H 0.4033 0.26214 0.07336 0.0
H1009 H 0.36009 0.26482 0.09067 0.0
H1010 H 0.47376 0.27412 0.21051 0.0
H1011 H 0.43041 0.2714 0.22863 0.0
H1012 H 0.5032 0.25504 0.17659 0.0
H1013 H 0.50881 0.25675 0.1364 0.0
C1014 C 0.86767 0.65593 0.68903 0.0
C1015 C 0.87075 0.67154 0.71546 0.0
C1016 C 0.90998 0.63836 0.73777 0.0
C1017 C 0.91053 0.62464 0.70981 0.0
N1018 N 0.89335 0.6219 0.65729 0.0
N1019 N 0.89938 0.68003 0.7629 0.0
C1020 C 0.89017 0.63376 0.68502 0.0
C1021 C 0.89306 0.66336 0.73934 0.0
N1022 N 0.84254 0.66185 0.66822 0.0
N1023 N 0.92504 0.62716 0.76307 0.0
H1024 H 0.88795 0.69871 0.76473 0.0
H1025 H 0.91853 0.67653 0.77908 0.0
H1026 H 0.93741 0.60873 0.76289 0.0
H1027 H 0.92222 0.63475 0.78499 0.0
H1028 H 0.83633 0.64956 0.65023 0.0
H1029 H 0.82559 0.67788 0.67045 0.0
H1030 H 0.8825 0.62958 0.6373 0.0
H1031 H 0.90913 0.6054 0.65366 0.0
C1032 C 0.93837 0.38779 0.34042 0.0
C1033 C 0.90073 0.38569 0.34924 0.0
C1034 C 0.90194 0.43441 0.35741 0.0
C1035 C 0.93998 0.4361 0.35065 0.0
N1036 N 0.99563 0.41411 0.34059 0.0
N1037 N 0.8476 0.40562 0.37094 0.0
C1038 C 0.95857 0.41266 0.34362 0.0
C1039 C 0.88275 0.40864 0.35911 0.0
N1040 N 0.95448 0.36631 0.32791 0.0
N1041 N 0.8841 0.45756 0.36143 0.0
H1042 H 0.83266 0.38706 0.37248 0.0
H1043 H 0.83415 0.42093 0.38154 0.0
H1044 H 0.89744 0.4767 0.36108 0.0
H1045 H 0.85596 0.45808 0.36291 0.0
H1046 H 0.98079 0.36746 0.31786 0.0
H1047 H 0.9406 0.34773 0.3253 0.0
H1048 H 0.01104 0.39727 0.33845 0.0
H1049 H 0.01125 0.43201 0.34275 0.0
C1050 C 0.12138 0.38828 0.75562 0.0
C1051 C 0.15761 0.38896 0.7428 0.0
C1052 C 0.15373 0.4366 0.72544 0.0
C1053 C 0.11657 0.43535 0.736 0.0
N1054 N 0.06347 0.40897 0.7576 0.0
N1055 N 0.2067 0.41202 0.71136 0.0
C1056 C 0.09996 0.41089 0.75018 0.0
C1057 C 0.17329 0.41263 0.72644 0.0
N1058 N 0.1078 0.3663 0.7738 0.0
N1059 N 0.17077 0.46098 0.71569 0.0
H1060 H 0.22191 0.39489 0.71183 0.0
H1061 H 0.21801 0.42761 0.69626 0.0
H1062 H 0.15759 0.47906 0.71523 0.0
H1063 H 0.19864 0.46377 0.71078 0.0
H1064 H 0.08327 0.36582 0.78689 0.0
H1065 H 0.12225 0.34906 0.77756 0.0
H1066 H 0.04896 0.39085 0.76439 0.0
H1067 H 0.04699 0.42519 0.75488 0.0
C1068 C 0.11745 0.64492 0.32173 0.0
C1069 C 0.15488 0.64663 0.32741 0.0
C1070 C 0.15266 0.5978 0.34061 0.0
C1071 C 0.11483 0.59633 0.33659 0.0
N1072 N 0.05983 0.61878 0.32825 0.0
N1073 N 0.20676 0.62626 0.3477 0.0
C1074 C 0.09679 0.62005 0.32871 0.0
C1075 C 0.17205 0.6235 0.33858 0.0
N1076 N 0.10202 0.66678 0.30855 0.0
N1077 N 0.17028 0.57452 0.34518 0.0
H1078 H 0.2217 0.64482 0.34645 0.0
H1079 H 0.2196 0.61077 0.35896 0.0
H1080 H 0.15691 0.55535 0.34702 0.0
H1081 H 0.19838 0.57396 0.34484 0.0
H1082 H 0.07611 0.66599 0.30036 0.0
H1083 H 0.11604 0.6855 0.30377 0.0
H1084 H 0.04473 0.63568 0.32506 0.0
H1085 H 0.04385 0.60095 0.33344 0.0
C1086 C 0.79857 0.93386 0.67656 0.0
C1087 C 0.79103 0.90781 0.66512 0.0
C1088 C 0.80272 0.92721 0.61241 0.0
C1089 C 0.80359 0.95371 0.62346 0.0
N1090 N 0.79994 0.98259 0.66644 0.0
N1091 N 0.77765 0.88135 0.62133 0.0
C1092 C 0.80083 0.95715 0.65572 0.0
C1093 C 0.79077 0.90492 0.63279 0.0
N1094 N 0.80487 0.93626 0.70703 0.0
N1095 N 0.81465 0.92303 0.58282 0.0
H1096 H 0.76673 0.86487 0.63536 0.0
H1097 H 0.77386 0.87937 0.59792 0.0
H1098 H 0.82783 0.93832 0.56846 0.0
H1099 H 0.81665 0.90378 0.57437 0.0
H1100 H 0.81371 0.9544 0.71606 0.0
H1101 H 0.80473 0.9196 0.7227 0.0
H1102 H 0.79387 0.98627 0.68954 0.0
H1103 H 0.80311 1.00004 0.65183 0.0
C1104 C 0.69501 0.25823 0.1666 0.0
C1105 C 0.68113 0.268 0.19485 0.0
C1106 C 0.62148 0.27192 0.17365 0.0
C1107 C 0.63625 0.26452 0.14454 0.0
N1108 N 0.68779 0.25374 0.11183 0.0
N1109 N 0.63266 0.28672 0.22491 0.0
C1110 C 0.67321 0.25839 0.14063 0.0
C1111 C 0.64471 0.27549 0.19832 0.0
N1112 N 0.72885 0.2484 0.16482 0.0
N1113 N 0.58502 0.27485 0.17788 0.0
H1114 H 0.64851 0.28883 0.24385 0.0
H1115 H 0.60789 0.29558 0.22758 0.0
H1116 H 0.56733 0.27288 0.16019 0.0
H1117 H 0.57178 0.27722 0.19932 0.0
H1118 H 0.73911 0.23827 0.14607 0.0
H1119 H 0.74582 0.24849 0.1832 0.0
H1120 H 0.7154 0.25215 0.10671 0.0
H1121 H 0.6726 0.25345 0.09233 0.0
C1122 C 0.25495 0.16566 0.62578 0.0
C1123 C 0.23845 0.16385 0.65622 0.0
C1124 C 0.22615 0.11489 0.6523 0.0
C1125 C 0.23959 0.11718 0.62091 0.0
N1126 N 0.26137 0.14547 0.57615 0.0
N1127 N 0.20313 0.13779 0.69688 0.0
C1128 C 0.25252 0.14279 0.6072 0.0
C1129 C 0.22258 0.13872 0.66905 0.0
N1130 N 0.27405 0.18895 0.61499 0.0
N1131 N 0.21798 0.08984 0.66642 0.0
H1132 H 0.19987 0.1548 0.7098 0.0
H1133 H 0.18764 0.12074 0.70591 0.0
H1134 H 0.22045 0.07194 0.65498 0.0
H1135 H 0.21184 0.08665 0.69008 0.0
H1136 H 0.29008 0.19053 0.59438 0.0
H1137 H 0.27646 0.20613 0.62787 0.0
H1138 H 0.26701 0.1641 0.56416 0.0
H1139 H 0.26013 0.12922 0.56181 0.0
C1140 C 0.405 0.79597 0.16845 0.0
C1141 C 0.36746 0.7954 0.16354 0.0
C1142 C 0.38121 0.79247 0.10773 0.0
C1143 C 0.41884 0.79549 0.11251 0.0
N1144 N 0.46576 0.80712 0.14699 0.0
N1145 N 0.31948 0.79704 0.12837 0.0
C1146 C 0.43052 0.79933 0.14273 0.0
C1147 C 0.35541 0.79474 0.13309 0.0
N1148 N 0.41639 0.79228 0.1977 0.0
N1149 N 0.37019 0.78706 0.07905 0.0
H1150 H 0.29996 0.79865 0.14641 0.0
H1151 H 0.30941 0.79947 0.10657 0.0
H1152 H 0.38825 0.78646 0.05975 0.0
H1153 H 0.34347 0.78156 0.07472 0.0
H1154 H 0.44328 0.78935 0.20227 0.0
H1155 H 0.39862 0.78937 0.21727 0.0
H1156 H 0.47483 0.81268 0.16818 0.0
H1157 H 0.48501 0.81144 0.12887 0.0
C1158 C 0.80371 0.12634 0.41154 0.0
C1159 C 0.79174 0.15076 0.42334 0.0
C1160 C 0.7902 0.1301 0.47599 0.0
C1161 C 0.79744 0.10482 0.46378 0.0
N1162 N 0.80534 0.07777 0.41936 0.0
N1163 N 0.76803 0.1747 0.46655 0.0
C1164 C 0.80255 0.1026 0.43135 0.0
C1165 C 0.7836 0.1524 0.45556 0.0
N1166 N 0.81742 0.12604 0.38163 0.0
N1167 N 0.79032 0.13293 0.50711 0.0
H1168 H 0.7621 0.19124 0.45231 0.0
H1169 H 0.75804 0.17577 0.48936 0.0
H1170 H 0.79508 0.11695 0.52262 0.0
H1171 H 0.78913 0.15159 0.5171 0.0
H1172 H 0.82993 0.10952 0.37271 0.0
H1173 H 0.81968 0.14321 0.3666 0.0
H1174 H 0.80498 0.07467 0.39581 0.0
H1175 H 0.80493 0.05991 0.43307 0.0
C1176 C 0.41582 0.26907 0.87263 0.0
C1177 C 0.37876 0.26021 0.87797 0.0
C1178 C 0.38681 0.25438 0.93361 0.0
C1179 C 0.42449 0.26104 0.92791 0.0
N1180 N 0.47609 0.27143 0.89197 0.0
N1181 N 0.32945 0.24131 0.91249 0.0
C1182 C 0.43934 0.26754 0.89738 0.0
C1183 C 0.36436 0.25201 0.90821 0.0
N1184 N 0.42828 0.27959 0.84401 0.0
N1185 N 0.37237 0.25109 0.96336 0.0
H1186 H 0.31197 0.23982 0.89456 0.0
H1187 H 0.31854 0.23211 0.93329 0.0
H1188 H 0.38804 0.25239 0.98251 0.0
H1189 H 0.34463 0.24916 0.96922 0.0
H1190 H 0.4539 0.28918 0.83938 0.0
H1191 H 0.41197 0.28062 0.82522 0.0
H1192 H 0.48903 0.27318 0.86996 0.0
H1193 H 0.49409 0.27092 0.90956 0.0
C1194 C 0.25558 0.875 0.4353 0.0
C1195 C 0.23902 0.87707 0.40663 0.0
C1196 C 0.22772 0.92463 0.4152 0.0
C1197 C 0.24064 0.92162 0.44528 0.0
N1198 N 0.26115 0.89249 0.48609 0.0
N1199 N 0.20376 0.90242 0.37155 0.0
C1200 C 0.25304 0.89638 0.45593 0.0
C1201 C 0.22357 0.90153 0.39717 0.0
N1202 N 0.27482 0.85298 0.44239 0.0
N1203 N 0.22051 0.94974 0.40344 0.0
H1204 H 0.19975 0.88589 0.35791 0.0
H1205 H 0.18859 0.91873 0.36541 0.0
H1206 H 0.22357 0.96719 0.4158 0.0
H1207 H 0.21475 0.95367 0.38051 0.0
H1208 H 0.29069 0.85167 0.4614 0.0
H1209 H 0.2777 0.83705 0.42775 0.0
H1210 H 0.26645 0.87367 0.49604 0.0
H1211 H 0.25942 0.90755 0.50198 0.0
C1212 C 0.65789 0.77688 0.90976 0.0
C1213 C 0.64158 0.76923 0.88249 0.0
C1214 C 0.5815 0.76616 0.91005 0.0
C1215 C 0.59807 0.7729 0.93756 0.0
N1216 N 0.6523 0.77848 0.96544 0.0
N1217 N 0.58919 0.75329 0.85677 0.0
C1218 C 0.63638 0.77645 0.93794 0.0
C1219 C 0.60369 0.76287 0.88267 0.0
N1220 N 0.69386 0.78517 0.90856 0.0
N1221 N 0.54452 0.76332 0.91013 0.0
H1222 H 0.60459 0.75142 0.83615 0.0
H1223 H 0.56252 0.74566 0.85598 0.0
H1224 H 0.52764 0.76475 0.93001 0.0
H1225 H 0.5303 0.76083 0.8904 0.0
H1226 H 0.70629 0.79414 0.92673 0.0
H1227 H 0.71089 0.78503 0.88857 0.0
H1228 H 0.68013 0.77807 0.96765 0.0
H1229 H 0.63749 0.77812 0.98659 0.0
loop_
_geom_bond_atom_site_label_1
_geom_bond_atom_site_label_2
_geom_bond_distance
_geom_bond_site_symmetry_2
_ccdc_geom_bond_type
C0 C1 1.391 . S
C0 C4 1.391 . S
C0 H42 0.948 . S
C1 C0 1.391 . S
C1 C2 1.391 . S
C2 C1 1.391 . S
C2 H58 0.947 . S
C2 C59 1.392 . S
C3 C4 1.391 . S
C3 C7 1.397 . S
C3 C59 1.419 . S
C4 C0 1.391 . S
C4 C3 1.391 . S
C4 C5 1.399 . S
C5 C4 1.399 . S
C5 C8 1.396 . S
C5 C17 1.453 . S
C5 C18 1.684 . S
H6 C30 0.948 . S
C7 C3 1.397 . S
C7 C8 1.394 . S
C7 C26 1.723 . S
C8 C5 1.396 . S
C8 C7 1.394 . S
C8 C38 1.723 . S
H9 C32 0.947 . S
H10 C33 0.948 . S
H11 C39 0.982 . S
H12 C40 0.979 . S
H13 C40 0.980 . S
H14 C40 0.983 . S
H15 C39 0.979 . S
H16 C39 0.977 . S
C17 C5 1.453 . S
C17 H46 0.982 . S
C17 H47 0.979 . S
C17 H48 0.977 . S
C18 C5 1.684 . S
C18 H43 0.979 . S
C18 H44 0.980 . S
C18 H45 0.983 . S
C19 C20 1.391 . S
C19 C24 1.391 . S
C19 H49 0.948 . S
C20 C19 1.391 . S
C20 C21 1.391 . S
C21 C20 1.391 . S
C21 C22 1.392 . S
C21 H50 0.947 . S
C22 C21 1.392 . S
C22 C23 1.419 . S
C22 H51 0.948 . S
C23 C22 1.419 . S
C23 C24 1.391 . S
C23 C27 1.397 . S
C24 C19 1.391 . S
C24 C23 1.391 . S
C24 C25 1.399 . S
C25 C24 1.399 . S
C25 C26 1.396 . S
C25 C28 1.453 . S
C25 C29 1.684 . S
C26 C7 1.723 . S
C26 C25 1.396 . S
C26 C27 1.394 . S
C27 C23 1.397 . S
C27 C26 1.394 . S
C27 C37 1.723 . S
C28 C25 1.453 . S
C28 H52 0.982 . S
C28 H53 0.979 . S
C28 H54 0.977 . S
C29 C25 1.684 . S
C29 H55 0.979 . S
C29 H56 0.980 . S
C29 H57 0.983 . S
C30 H6 0.948 . S
C30 C31 1.391 . S
C30 C35 1.391 . S
C31 C30 1.391 . S
C31 C32 1.391 . S
C32 H9 0.947 . S
C32 C31 1.391 . S
C32 C33 1.392 . S
C33 H10 0.948 . S
C33 C32 1.392 . S
C33 C34 1.419 . S
C34 C33 1.419 . S
C34 C35 1.391 . S
C34 C38 1.397 . S
C35 C30 1.391 . S
C35 C34 1.391 . S
C35 C36 1.399 . S
C36 C35 1.399 . S
C36 C37 1.396 . S
C36 C39 1.453 . S
C36 C40 1.684 . S
C37 C27 1.723 . S
C37 C36 1.396 . S
C37 C38 1.394 . S
C38 C8 1.723 . S
C38 C34 1.397 . S
C38 C37 1.394 . S
C39 H11 0.982 . S
C39 H15 0.979 . S
C39 H16 0.977 . S
C39 C36 1.453 . S
C40 H12 0.979 . S
C40 H13 0.980 . S
C40 H14 0.983 . S
C40 C36 1.684 . S
H41 C59 0.948 . S
H42 C0 0.948 . S
H43 C18 0.979 . S
H44 C18 0.980 . S
H45 C18 0.983 . S
H46 C17 0.982 . S
H47 C17 0.979 . S
H48 C17 0.977 . S
H49 C19 0.948 . S
H50 C21 0.947 . S
H51 C22 0.948 . S
H52 C28 0.982 . S
H53 C28 0.979 . S
H54 C28 0.977 . S
H55 C29 0.979 . S
H56 C29 0.980 . S
H57 C29 0.983 . S
H58 C2 0.947 . S
C59 C2 1.392 . S
C59 C3 1.419 . S
C59 H41 0.948 . S
C60 C61 1.391 . S
C60 C64 1.391 . S
C60 H102 0.948 . S
C61 C60 1.391 . S
C61 C62 1.391 . S
C62 C61 1.391 . S
C62 H118 0.947 . S
C62 C119 1.392 . S
C63 C64 1.391 . S
C63 C67 1.397 . S
C63 C119 1.419 . S
C64 C60 1.391 . S
C64 C63 1.391 . S
C64 C65 1.399 . S
C65 C64 1.399 . S
C65 C68 1.396 . S
C65 C77 1.453 . S
C65 C78 1.684 . S
H66 C90 0.948 . S
C67 C63 1.397 . S
C67 C68 1.394 . S
C67 C86 1.723 . S
C68 C65 1.396 . S
C68 C67 1.394 . S
C68 C98 1.723 . S
H69 C92 0.947 . S
H70 C93 0.948 . S
H71 C99 0.982 . S
H72 C100 0.979 . S
H73 C100 0.980 . S
H74 C100 0.983 . S
H75 C99 0.979 . S
H76 C99 0.977 . S
C77 C65 1.453 . S
C77 H106 0.982 . S
C77 H107 0.979 . S
C77 H108 0.977 . S
C78 C65 1.684 . S
C78 H103 0.979 . S
C78 H104 0.980 . S
C78 H105 0.983 . S
C79 C80 1.391 . S
C79 C84 1.391 . S
C79 H109 0.948 . S
C80 C79 1.391 . S
C80 C81 1.391 . S
C81 C80 1.391 . S
C81 C82 1.392 . S
C81 H110 0.947 . S
C82 C81 1.392 . S
C82 C83 1.419 . S
C82 H111 0.948 . S
C83 C82 1.419 . S
C83 C84 1.391 . S
C83 C87 1.397 . S
C84 C79 1.391 . S
C84 C83 1.391 . S
C84 C85 1.399 . S
C85 C84 1.399 . S
C85 C86 1.396 . S
C85 C88 1.453 . S
C85 C89 1.684 . S
C86 C67 1.723 . S
C86 C85 1.396 . S
C86 C87 1.394 . S
C87 C83 1.397 . S
C87 C86 1.394 . S
C87 C97 1.723 . S
C88 C85 1.453 . S
C88 H112 0.982 . S
C88 H113 0.979 . S
C88 H114 0.977 . S
C89 C85 1.684 . S
C89 H115 0.979 . S
C89 H116 0.980 . S
C89 H117 0.983 . S
C90 H66 0.948 . S
C90 C91 1.391 . S
C90 C95 1.391 . S
C91 C90 1.391 . S
C91 C92 1.391 . S
C92 H69 0.947 . S
C92 C91 1.391 . S
C92 C93 1.392 . S
C93 H70 0.948 . S
C93 C92 1.392 . S
C93 C94 1.419 . S
C94 C93 1.419 . S
C94 C95 1.391 . S
C94 C98 1.397 . S
C95 C90 1.391 . S
C95 C94 1.391 . S
C95 C96 1.399 . S
C96 C95 1.399 . S
C96 C97 1.396 . S
C96 C99 1.453 . S
C96 C100 1.684 . S
C97 C87 1.723 . S
C97 C96 1.396 . S
C97 C98 1.394 . S
C98 C68 1.723 . S
C98 C94 1.397 . S
C98 C97 1.394 . S
C99 H71 0.982 . S
C99 H75 0.979 . S
C99 H76 0.977 . S
C99 C96 1.453 . S
C100 H72 0.979 . S
C100 H73 0.980 . S
C100 H74 0.983 . S
C100 C96 1.684 . S
H101 C119 0.948 . S
H102 C60 0.948 . S
H103 C78 0.979 . S
H104 C78 0.980 . S
H105 C78 0.983 . S
H106 C77 0.982 . S
H107 C77 0.979 . S
H108 C77 0.977 . S
H109 C79 0.948 . S
H110 C81 0.947 . S
H111 C82 0.948 . S
H112 C88 0.982 . S
H113 C88 0.979 . S
H114 C88 0.977 . S
H115 C89 0.979 . S
H116 C89 0.980 . S
H117 C89 0.983 . S
H118 C62 0.947 . S
C119 C62 1.392 . S
C119 C63 1.419 . S
C119 H101 0.948 . S
C120 C121 1.391 . S
C120 C124 1.391 . S
C120 H162 0.948 . S
C121 C120 1.391 . S
C121 C122 1.391 . S
C122 C121 1.391 . S
C122 H178 0.947 . S
C122 C179 1.392 . S
C123 C124 1.391 . S
C123 C127 1.397 . S
C123 C179 1.419 . S
C124 C120 1.391 . S
C124 C123 1.391 . S
C124 C125 1.399 . S
C125 C124 1.399 . S
C125 C128 1.396 . S
C125 C137 1.453 . S
C125 C138 1.684 . S
H126 C150 0.948 . S
C127 C123 1.397 . S
C127 C128 1.394 . S
C127 C146 1.723 . S
C128 C125 1.396 . S
C128 C127 1.394 . S
C128 C158 1.723 . S
H129 C152 0.947 . S
H130 C153 0.948 . S
H131 C159 0.982 . S
H132 C160 0.979 . S
H133 C160 0.980 . S
H134 C160 0.983 . S
H135 C159 0.979 . S
H136 C159 0.977 . S
C137 C125 1.453 . S
C137 H166 0.982 . S
C137 H167 0.979 . S
C137 H168 0.977 . S
C138 C125 1.684 . S
C138 H163 0.979 . S
C138 H164 0.980 . S
C138 H165 0.983 . S
C139 C140 1.391 . S
C139 C144 1.391 . S
C139 H169 0.948 . S
C140 C139 1.391 . S
C140 C141 1.391 . S
C141 C140 1.391 . S
C141 C142 1.392 . S
C141 H170 0.947 . S
C142 C141 1.392 . S
C142 C143 1.419 . S
C142 H171 0.948 . S
C143 C142 1.419 . S
C143 C144 1.391 . S
C143 C147 1.397 . S
C144 C139 1.391 . S
C144 C143 1.391 . S
C144 C145 1.399 . S
C145 C144 1.399 . S
C145 C146 1.396 . S
C145 C148 1.453 . S
C145 C149 1.684 . S
C146 C127 1.723 . S
C146 C145 1.396 . S
C146 C147 1.394 . S
C147 C143 1.397 . S
C147 C146 1.394 . S
C147 C157 1.723 . S
C148 C145 1.453 . S
C148 H172 0.982 . S
C148 H173 0.979 . S
C148 H174 0.977 . S
C149 C145 1.684 . S
C149 H175 0.979 . S
C149 H176 0.980 . S
C149 H177 0.983 . S
C150 H126 0.948 . S
C150 C151 1.391 . S
C150 C155 1.391 . S
C151 C150 1.391 . S
C151 C152 1.391 . S
C152 H129 0.947 . S
C152 C151 1.391 . S
C152 C153 1.392 . S
C153 H130 0.948 . S
C153 C152 1.392 . S
C153 C154 1.419 . S
C154 C153 1.419 . S
C154 C155 1.391 . S
C154 C158 1.397 . S
C155 C150 1.391 . S
C155 C154 1.391 . S
C155 C156 1.399 . S
C156 C155 1.399 . S
C156 C157 1.396 . S
C156 C159 1.453 . S
C156 C160 1.684 . S
C157 C147 1.723 . S
C157 C156 1.396 . S
C157 C158 1.394 . S
C158 C128 1.723 . S
C158 C154 1.397 . S
C158 C157 1.394 . S
C159 H131 0.982 . S
C159 H135 0.979 . S
C159 H136 0.977 . S
C159 C156 1.453 . S
C160 H132 0.979 . S
C160 H133 0.980 . S
C160 H134 0.983 . S
C160 C156 1.684 . S
H161 C179 0.948 . S
H162 C120 0.948 . S
H163 C138 0.979 . S
H164 C138 0.980 . S
H165 C138 0.983 . S
H166 C137 0.982 . S
H167 C137 0.979 . S
H168 C137 0.977 . S
H169 C139 0.948 . S
H170 C141 0.947 . S
H171 C142 0.948 . S
H172 C148 0.982 . S
H173 C148 0.979 . S
H174 C148 0.977 . S
H175 C149 0.979 . S
H176 C149 0.980 . S
H177 C149 0.983 . S
H178 C122 0.947 . S
C179 C122 1.392 . S
C179 C123 1.419 . S
C179 H161 0.948 . S
C180 C181 1.391 . S
C180 C184 1.391 . S
C180 H222 0.948 . S
C181 C180 1.391 . S
C181 C182 1.391 . S
C182 C181 1.391 . S
C182 H238 0.947 . S
C182 C239 1.392 . S
C183 C184 1.391 . S
C183 C187 1.397 . S
C183 C239 1.419 . S
C184 C180 1.391 . S
C184 C183 1.391 . S
C184 C185 1.399 . S
C185 C184 1.399 . S
C185 C188 1.396 . S
C185 C197 1.453 . S
C185 C198 1.684 . S
H186 C210 0.948 . S
C187 C183 1.397 . S
C187 C188 1.394 . S
C187 C206 1.723 . S
C188 C185 1.396 . S
C188 C187 1.394 . S
C188 C218 1.723 . S
H189 C212 0.947 . S
H190 C213 0.948 . S
H191 C219 0.982 . S
H192 C220 0.979 . S
H193 C220 0.980 . S
H194 C220 0.983 . S
H195 C219 0.979 . S
H196 C219 0.977 . S
C197 C185 1.453 . S
C197 H226 0.982 . S
C197 H227 0.979 . S
C197 H228 0.977 . S
C198 C185 1.684 . S
C198 H223 0.979 . S
C198 H224 0.980 . S
C198 H225 0.983 . S
C199 C200 1.391 . S
C199 C204 1.391 . S
C199 H229 0.948 . S
C200 C199 1.391 . S
C200 C201 1.391 . S
C201 C200 1.391 . S
C201 C202 1.392 . S
C201 H230 0.947 . S
C202 C201 1.392 . S
C202 C203 1.419 . S
C202 H231 0.948 . S
C203 C202 1.419 . S
C203 C204 1.391 . S
C203 C207 1.397 . S
C204 C199 1.391 . S
C204 C203 1.391 . S
C204 C205 1.399 . S
C205 C204 1.399 . S
C205 C206 1.396 . S
C205 C208 1.453 . S
C205 C209 1.684 . S
C206 C187 1.723 . S
C206 C205 1.396 . S
C206 C207 1.394 . S
C207 C203 1.397 . S
C207 C206 1.394 . S
C207 C217 1.723 . S
C208 C205 1.453 . S
C208 H232 0.982 . S
C208 H233 0.979 . S
C208 H234 0.977 . S
C209 C205 1.684 . S
C209 H235 0.979 . S
C209 H236 0.980 . S
C209 H237 0.983 . S
C210 H186 0.948 . S
C210 C211 1.391 . S
C210 C215 1.391 . S
C211 C210 1.391 . S
C211 C212 1.391 . S
C212 H189 0.947 . S
C212 C211 1.391 . S
C212 C213 1.392 . S
C213 H190 0.948 . S
C213 C212 1.392 . S
C213 C214 1.419 . S
C214 C213 1.419 . S
C214 C215 1.391 . S
C214 C218 1.397 . S
C215 C210 1.391 . S
C215 C214 1.391 . S
C215 C216 1.399 . S
C216 C215 1.399 . S
C216 C217 1.396 . S
C216 C219 1.453 . S
C216 C220 1.684 . S
C217 C207 1.723 . S
C217 C216 1.396 . S
C217 C218 1.394 . S
C218 C188 1.723 . S
C218 C214 1.397 . S
C218 C217 1.394 . S
C219 H191 0.982 . S
C219 H195 0.979 . S
C219 H196 0.977 . S
C219 C216 1.453 . S
C220 H192 0.979 . S
C220 H193 0.980 . S
C220 H194 0.983 . S
C220 C216 1.684 . S
H221 C239 0.948 . S
H222 C180 0.948 . S
H223 C198 0.979 . S
H224 C198 0.980 . S
H225 C198 0.983 . S
H226 C197 0.982 . S
H227 C197 0.979 . S
H228 C197 0.977 . S
H229 C199 0.948 . S
H230 C201 0.947 . S
H231 C202 0.948 . S
H232 C208 0.982 . S
H233 C208 0.979 . S
H234 C208 0.977 . S
H235 C209 0.979 . S
H236 C209 0.980 . S
H237 C209 0.983 . S
H238 C182 0.947 . S
C239 C182 1.392 . S
C239 C183 1.419 . S
C239 H221 0.948 . S
C240 C241 1.391 . S
C240 C244 1.391 . S
C240 H282 0.948 . S
C241 C240 1.391 . S
C241 C242 1.391 . S
C242 C241 1.391 . S
C242 H298 0.947 . S
C242 C299 1.392 . S
C243 C244 1.391 . S
C243 C247 1.397 . S
C243 C299 1.419 . S
C244 C240 1.391 . S
C244 C243 1.391 . S
C244 C245 1.399 . S
C245 C244 1.399 . S
C245 C248 1.396 . S
C245 C257 1.453 . S
C245 C258 1.684 . S
H246 C270 0.948 . S
C247 C243 1.397 . S
C247 C248 1.394 . S
C247 C266 1.723 . S
C248 C245 1.396 . S
C248 C247 1.394 . S
C248 C278 1.723 . S
H249 C272 0.947 . S
H250 C273 0.948 . S
H251 C279 0.982 . S
H252 C280 0.979 . S
H253 C280 0.980 . S
H254 C280 0.983 . S
H255 C279 0.979 . S
H256 C279 0.977 . S
C257 C245 1.453 . S
C257 H286 0.982 . S
C257 H287 0.979 . S
C257 H288 0.977 . S
C258 C245 1.684 . S
C258 H283 0.979 . S
C258 H284 0.980 . S
C258 H285 0.983 . S
C259 C260 1.391 . S
C259 C264 1.391 . S
C259 H289 0.948 . S
C260 C259 1.391 . S
C260 C261 1.391 . S
C261 C260 1.391 . S
C261 C262 1.392 . S
C261 H290 0.947 . S
C262 C261 1.392 . S
C262 C263 1.419 . S
C262 H291 0.948 . S
C263 C262 1.419 . S
C263 C264 1.391 . S
C263 C267 1.397 . S
C264 C259 1.391 . S
C264 C263 1.391 . S
C264 C265 1.399 . S
C265 C264 1.399 . S
C265 C266 1.396 . S
C265 C268 1.453 . S
C265 C269 1.684 . S
C266 C247 1.723 . S
C266 C265 1.396 . S
C266 C267 1.394 . S
C267 C263 1.397 . S
C267 C266 1.394 . S
C267 C277 1.723 . S
C268 C265 1.453 . S
C268 H292 0.982 . S
C268 H293 0.979 . S
C268 H294 0.977 . S
C269 C265 1.684 . S
C269 H295 0.979 . S
C269 H296 0.980 . S
C269 H297 0.983 . S
C270 H246 0.948 . S
C270 C271 1.391 . S
C270 C275 1.391 . S
C271 C270 1.391 . S
C271 C272 1.391 . S
C272 H249 0.947 . S
C272 C271 1.391 . S
C272 C273 1.392 . S
C273 H250 0.948 . S
C273 C272 1.392 . S
C273 C274 1.419 . S
C274 C273 1.419 . S
C274 C275 1.391 . S
C274 C278 1.397 . S
C275 C270 1.391 . S
C275 C274 1.391 . S
C275 C276 1.399 . S
C276 C275 1.399 . S
C276 C277 1.396 . S
C276 C279 1.453 . S
C276 C280 1.684 . S
C277 C267 1.723 . S
C277 C276 1.396 . S
C277 C278 1.394 . S
C278 C248 1.723 . S
C278 C274 1.397 . S
C278 C277 1.394 . S
C279 H251 0.982 . S
C279 H255 0.979 . S
C279 H256 0.977 . S
C279 C276 1.453 . S
C280 H252 0.979 . S
C280 H253 0.980 . S
C280 H254 0.983 . S
C280 C276 1.684 . S
H281 C299 0.948 . S
H282 C240 0.948 . S
H283 C258 0.979 . S
H284 C258 0.980 . S
H285 C258 0.983 . S
H286 C257 0.982 . S
H287 C257 0.979 . S
H288 C257 0.977 . S
H289 C259 0.948 . S
H290 C261 0.947 . S
H291 C262 0.948 . S
H292 C268 0.982 . S
H293 C268 0.979 . S
H294 C268 0.977 . S
H295 C269 0.979 . S
H296 C269 0.980 . S
H297 C269 0.983 . S
H298 C242 0.947 . S
C299 C242 1.392 . S
C299 C243 1.419 . S
C299 H281 0.948 . S
C300 C301 1.391 . S
C300 C304 1.391 . S
C300 H342 0.948 . S
C301 C300 1.391 . S
C301 C302 1.391 . S
C302 C301 1.391 . S
C302 H358 0.947 . S
C302 C359 1.392 . S
C303 C304 1.391 . S
C303 C307 1.397 . S
C303 C359 1.419 . S
C304 C300 1.391 . S
C304 C303 1.391 . S
C304 C305 1.399 . S
C305 C304 1.399 . S
C305 C308 1.396 . S
C305 C317 1.453 . S
C305 C318 1.684 . S
H306 C330 0.948 . S
C307 C303 1.397 . S
C307 C308 1.394 . S
C307 C326 1.723 . S
C308 C305 1.396 . S
C308 C307 1.394 . S
C308 C338 1.723 . S
H309 C332 0.947 . S
H310 C333 0.948 . S
H311 C339 0.982 . S
H312 C340 0.979 . S
H313 C340 0.980 . S
H314 C340 0.983 . S
H315 C339 0.979 . S
H316 C339 0.977 . S
C317 C305 1.453 . S
C317 H346 0.982 . S
C317 H347 0.979 . S
C317 H348 0.977 . S
C318 C305 1.684 . S
C318 H343 0.979 . S
C318 H344 0.980 . S
C318 H345 0.983 . S
C319 C320 1.391 . S
C319 C324 1.391 . S
C319 H349 0.948 . S
C320 C319 1.391 . S
C320 C321 1.391 . S
C321 C320 1.391 . S
C321 C322 1.392 . S
C321 H350 0.947 . S
C322 C321 1.392 . S
C322 C323 1.419 . S
C322 H351 0.948 . S
C323 C322 1.419 . S
C323 C324 1.391 . S
C323 C327 1.397 . S
C324 C319 1.391 . S
C324 C323 1.391 . S
C324 C325 1.399 . S
C325 C324 1.399 . S
C325 C326 1.396 . S
C325 C328 1.453 . S
C325 C329 1.684 . S
C326 C307 1.723 . S
C326 C325 1.396 . S
C326 C327 1.394 . S
C327 C323 1.397 . S
C327 C326 1.394 . S
C327 C337 1.723 . S
C328 C325 1.453 . S
C328 H352 0.982 . S
C328 H353 0.979 . S
C328 H354 0.977 . S
C329 C325 1.684 . S
C329 H355 0.979 . S
C329 H356 0.980 . S
C329 H357 0.983 . S
C330 H306 0.948 . S
C330 C331 1.391 . S
C330 C335 1.391 . S
C331 C330 1.391 . S
C331 C332 1.391 . S
C332 H309 0.947 . S
C332 C331 1.391 . S
C332 C333 1.392 . S
C333 H310 0.948 . S
C333 C332 1.392 . S
C333 C334 1.419 . S
C334 C333 1.419 . S
C334 C335 1.391 . S
C334 C338 1.397 . S
C335 C330 1.391 . S
C335 C334 1.391 . S
C335 C336 1.399 . S
C336 C335 1.399 . S
C336 C337 1.396 . S
C336 C339 1.453 . S
C336 C340 1.684 . S
C337 C327 1.723 . S
C337 C336 1.396 . S
C337 C338 1.394 . S
C338 C308 1.723 . S
C338 C334 1.397 . S
C338 C337 1.394 . S
C339 H311 0.982 . S
C339 H315 0.979 . S
C339 H316 0.977 . S
C339 C336 1.453 . S
C340 H312 0.979 . S
C340 H313 0.980 . S
C340 H314 0.983 . S
C340 C336 1.684 . S
H341 C359 0.948 . S
H342 C300 0.948 . S
H343 C318 0.979 . S
H344 C318 0.980 . S
H345 C318 0.983 . S
H346 C317 0.982 . S
H347 C317 0.979 . S
H348 C317 0.977 . S
H349 C319 0.948 . S
H350 C321 0.947 . S
H351 C322 0.948 . S
H352 C328 0.982 . S
H353 C328 0.979 . S
H354 C328 0.977 . S
H355 C329 0.979 . S
H356 C329 0.980 . S
H357 C329 0.983 . S
H358 C302 0.947 . S
C359 C302 1.392 . S
C359 C303 1.419 . S
C359 H341 0.948 . S
C360 C361 1.391 . S
C360 C364 1.391 . S
C360 H402 0.948 . S
C361 C360 1.391 . S
C361 C362 1.391 . S
C362 C361 1.391 . S
C362 H418 0.947 . S
C362 C419 1.392 . S
C363 C364 1.391 . S
C363 C367 1.397 . S
C363 C419 1.419 . S
C364 C360 1.391 . S
C364 C363 1.391 . S
C364 C365 1.399 . S
C365 C364 1.399 . S
C365 C368 1.396 . S
C365 C377 1.453 . S
C365 C378 1.684 . S
H366 C390 0.948 . S
C367 C363 1.397 . S
C367 C368 1.394 . S
C367 C386 1.723 . S
C368 C365 1.396 . S
C368 C367 1.394 . S
C368 C398 1.723 . S
H369 C392 0.947 . S
H370 C393 0.948 . S
H371 C399 0.982 . S
H372 C400 0.979 . S
H373 C400 0.980 . S
H374 C400 0.983 . S
H375 C399 0.979 . S
H376 C399 0.977 . S
C377 C365 1.453 . S
C377 H406 0.982 . S
C377 H407 0.979 . S
C377 H408 0.977 . S
C378 C365 1.684 . S
C378 H403 0.979 . S
C378 H404 0.980 . S
C378 H405 0.983 . S
C379 C380 1.391 . S
C379 C384 1.391 . S
C379 H409 0.948 . S
C380 C379 1.391 . S
C380 C381 1.391 . S
C381 C380 1.391 . S
C381 C382 1.392 . S
C381 H410 0.947 . S
C382 C381 1.392 . S
C382 C383 1.419 . S
C382 H411 0.948 . S
C383 C382 1.419 . S
C383 C384 1.391 . S
C383 C387 1.397 . S
C384 C379 1.391 . S
C384 C383 1.391 . S
C384 C385 1.399 . S
C385 C384 1.399 . S
C385 C386 1.396 . S
C385 C388 1.453 . S
C385 C389 1.684 . S
C386 C367 1.723 . S
C386 C385 1.396 . S
C386 C387 1.394 . S
C387 C383 1.397 . S
C387 C386 1.394 . S
C387 C397 1.723 . S
C388 C385 1.453 . S
C388 H412 0.982 . S
C388 H413 0.979 . S
C388 H414 0.977 . S
C389 C385 1.684 . S
C389 H415 0.979 . S
C389 H416 0.980 . S
C389 H417 0.983 . S
C390 H366 0.948 . S
C390 C391 1.391 . S
C390 C395 1.391 . S
C391 C390 1.391 . S
C391 C392 1.391 . S
C392 H369 0.947 . S
C392 C391 1.391 . S
C392 C393 1.392 . S
C393 H370 0.948 . S
C393 C392 1.392 . S
C393 C394 1.419 . S
C394 C393 1.419 . S
C394 C395 1.391 . S
C394 C398 1.397 . S
C395 C390 1.391 . S
C395 C394 1.391 . S
C395 C396 1.399 . S
C396 C395 1.399 . S
C396 C397 1.396 . S
C396 C399 1.453 . S
C396 C400 1.684 . S
C397 C387 1.723 . S
C397 C396 1.396 . S
C397 C398 1.394 . S
C398 C368 1.723 . S
C398 C394 1.397 . S
C398 C397 1.394 . S
C399 H371 0.982 . S
C399 H375 0.979 . S
C399 H376 0.977 . S
C399 C396 1.453 . S
C400 H372 0.979 . S
C400 H373 0.980 . S
C400 H374 0.983 . S
C400 C396 1.684 . S
H401 C419 0.948 . S
H402 C360 0.948 . S
H403 C378 0.979 . S
H404 C378 0.980 . S
H405 C378 0.983 . S
H406 C377 0.982 . S
H407 C377 0.979 . S
H408 C377 0.977 . S
H409 C379 0.948 . S
H410 C381 0.947 . S
H411 C382 0.948 . S
H412 C388 0.982 . S
H413 C388 0.979 . S
H414 C388 0.977 . S
H415 C389 0.979 . S
H416 C389 0.980 . S
H417 C389 0.983 . S
H418 C362 0.947 . S
C419 C362 1.392 . S
C419 C363 1.419 . S
C419 H401 0.948 . S
C420 C421 1.391 . S
C420 C424 1.391 . S
C420 H462 0.948 . S
C421 C420 1.391 . S
C421 C422 1.391 . S
C422 C421 1.391 . S
C422 H478 0.947 . S
C422 C479 1.392 . S
C423 C424 1.391 . S
C423 C427 1.397 . S
C423 C479 1.419 . S
C424 C420 1.391 . S
C424 C423 1.391 . S
C424 C425 1.399 . S
C425 C424 1.399 . S
C425 C428 1.396 . S
C425 C437 1.453 . S
C425 C438 1.684 . S
H426 C450 0.948 . S
C427 C423 1.397 . S
C427 C428 1.394 . S
C427 C446 1.723 . S
C428 C425 1.396 . S
C428 C427 1.394 . S
C428 C458 1.723 . S
H429 C452 0.947 . S
H430 C453 0.948 . S
H431 C459 0.982 . S
H432 C460 0.979 . S
H433 C460 0.980 . S
H434 C460 0.983 . S
H435 C459 0.979 . S
H436 C459 0.977 . S
C437 C425 1.453 . S
C437 H466 0.982 . S
C437 H467 0.979 . S
C437 H468 0.977 . S
C438 C425 1.684 . S
C438 H463 0.979 . S
C438 H464 0.980 . S
C438 H465 0.983 . S
C439 C440 1.391 . S
C439 C444 1.391 . S
C439 H469 0.948 . S
C440 C439 1.391 . S
C440 C441 1.391 . S
C441 C440 1.391 . S
C441 C442 1.392 . S
C441 H470 0.947 . S
C442 C441 1.392 . S
C442 C443 1.419 . S
C442 H471 0.948 . S
C443 C442 1.419 . S
C443 C444 1.391 . S
C443 C447 1.397 . S
C444 C439 1.391 . S
C444 C443 1.391 . S
C444 C445 1.399 . S
C445 C444 1.399 . S
C445 C446 1.396 . S
C445 C448 1.453 . S
C445 C449 1.684 . S
C446 C427 1.723 . S
C446 C445 1.396 . S
C446 C447 1.394 . S
C447 C443 1.397 . S
C447 C446 1.394 . S
C447 C457 1.723 . S
C448 C445 1.453 . S
C448 H472 0.982 . S
C448 H473 0.979 . S
C448 H474 0.977 . S
C449 C445 1.684 . S
C449 H475 0.979 . S
C449 H476 0.980 . S
C449 H477 0.983 . S
C450 H426 0.948 . S
C450 C451 1.391 . S
C450 C455 1.391 . S
C451 C450 1.391 . S
C451 C452 1.391 . S
C452 H429 0.947 . S
C452 C451 1.391 . S
C452 C453 1.392 . S
C453 H430 0.948 . S
C453 C452 1.392 . S
C453 C454 1.419 . S
C454 C453 1.419 . S
C454 C455 1.391 . S
C454 C458 1.397 . S
C455 C450 1.391 . S
C455 C454 1.391 . S
C455 C456 1.399 . S
C456 C455 1.399 . S
C456 C457 1.396 . S
C456 C459 1.453 . S
C456 C460 1.684 . S
C457 C447 1.723 . S
C457 C456 1.396 . S
C457 C458 1.394 . S
C458 C428 1.723 . S
C458 C454 1.397 . S
C458 C457 1.394 . S
C459 H431 0.982 . S
C459 H435 0.979 . S
C459 H436 0.977 . S
C459 C456 1.453 . S
C460 H432 0.979 . S
C460 H433 0.980 . S
C460 H434 0.983 . S
C460 C456 1.684 . S
H461 C479 0.948 . S
H462 C420 0.948 . S
H463 C438 0.979 . S
H464 C438 0.980 . S
H465 C438 0.983 . S
H466 C437 0.982 . S
H467 C437 0.979 . S
H468 C437 0.977 . S
H469 C439 0.948 . S
H470 C441 0.947 . S
H471 C442 0.948 . S
H472 C448 0.982 . S
H473 C448 0.979 . S
H474 C448 0.977 . S
H475 C449 0.979 . S
H476 C449 0.980 . S
H477 C449 0.983 . S
H478 C422 0.947 . S
C479 C422 1.392 . S
C479 C423 1.419 . S
C479 H461 0.948 . S
C480 C481 1.443 . S
C480 N484 1.376 . S
C480 C518 1.389 . S
C481 C480 1.443 . S
C481 C482 1.340 . S
C481 H521 0.951 . S
C482 C481 1.340 . S
C482 C483 1.439 . S
C482 H522 0.950 . S
C483 C482 1.439 . S
C483 N484 1.374 . S
C483 C517 1.395 . S
N484 C480 1.376 . S
N484 C483 1.374 . S
N484 Co485 2.008 . S
Co485 N484 2.008 . S
Co485 N486 1.995 1_455 S
Co485 N491 2.008 . S
Co485 N496 1.995 . S
Co485 N501 2.282 . S
Co485 N507 2.282 1_455 S
N486 Co485 1.995 1_655 S
N486 C487 1.376 . S
N486 C490 1.383 . S
C487 N486 1.376 . S
C487 C488 1.446 . S
C487 C517 1.391 1_655 S
C488 C487 1.446 . S
C488 C489 1.339 . S
C488 H523 0.949 . S
C489 C488 1.339 . S
C489 C490 1.439 . S
C489 H524 0.950 . S
C490 N486 1.383 . S
C490 C489 1.439 . S
C490 C519 1.392 . S
N491 Co485 2.008 . S
N491 C492 1.376 1_455 S
N491 C495 1.374 . S
C492 N491 1.376 1_655 S
C492 C493 1.443 . S
C492 C519 1.389 . S
C493 C492 1.443 . S
C493 C494 1.340 . S
C493 H525 0.951 . S
C494 C493 1.340 . S
C494 C495 1.439 1_655 S
C494 H526 0.950 . S
C495 N491 1.374 . S
C495 C494 1.439 1_455 S
C495 C520 1.395 . S
N496 Co485 1.995 . S
N496 C497 1.376 . S
N496 C500 1.383 . S
C497 N496 1.376 . S
C497 C498 1.446 . S
C497 C520 1.391 . S
C498 C497 1.446 . S
C498 C499 1.339 . S
C498 H527 0.949 . S
C499 C498 1.339 . S
C499 C500 1.439 . S
C499 H528 0.950 . S
C500 N496 1.383 . S
C500 C499 1.439 . S
C500 C518 1.392 . S
N501 Co485 2.282 . S
N501 C504 1.332 . S
N501 C506 1.332 . S
C502 C503 1.386 . S
C502 C505 1.388 . S
C503 C502 1.386 . S
C503 C504 1.382 . S
C503 H529 0.950 . S
C504 N501 1.332 . S
C504 C503 1.382 . S
C504 H515 0.952 . S
C505 C502 1.388 . S
C505 C506 1.382 . S
C505 H530 0.950 . S
C506 N501 1.332 . S
C506 C505 1.382 . S
C506 H516 0.948 . S
N507 Co485 2.282 1_655 S
N507 C511 1.332 . S
N507 C512 1.332 . S
C508 C509 1.388 . S
C508 C512 1.382 . S
C508 H531 0.950 . S
C509 C508 1.388 . S
C509 C510 1.386 . S
C510 C509 1.386 . S
C510 C511 1.382 . S
C510 H532 0.950 . S
C511 N507 1.332 . S
C511 C510 1.382 . S
C511 H513 0.952 . S
C512 N507 1.332 . S
C512 C508 1.382 . S
C512 H514 0.948 . S
H513 C511 0.952 . S
H514 C512 0.948 . S
H515 C504 0.952 . S
H516 C506 0.948 . S
C517 C483 1.395 . S
C517 C487 1.391 1_455 S
C518 C480 1.389 . S
C518 C500 1.392 . S
C519 C490 1.392 . S
C519 C492 1.389 . S
C520 C495 1.395 . S
C520 C497 1.391 . S
H521 C481 0.951 . S
H522 C482 0.950 . S
H523 C488 0.949 . S
H524 C489 0.950 . S
H525 C493 0.951 . S
H526 C494 0.950 . S
H527 C498 0.949 . S
H528 C499 0.950 . S
H529 C503 0.950 . S
H530 C505 0.950 . S
H531 C508 0.950 . S
H532 C510 0.950 . S
C533 C534 1.443 . S
C533 N537 1.376 . S
C533 C571 1.389 . S
C534 C533 1.443 . S
C534 C535 1.340 . S
C534 H574 0.951 . S
C535 C534 1.340 . S
C535 C536 1.439 . S
C535 H575 0.950 . S
C536 C535 1.439 . S
C536 N537 1.374 . S
C536 C570 1.395 . S
N537 C533 1.376 . S
N537 C536 1.374 . S
N537 Co538 2.008 . S
Co538 N537 2.008 . S
Co538 N539 1.995 1_455 S
Co538 N544 2.008 1_455 S
Co538 N549 1.995 . S
Co538 N554 2.282 . S
Co538 N560 2.282 1_455 S
N539 Co538 1.995 1_655 S
N539 C540 1.376 . S
N539 C543 1.383 . S
C540 N539 1.376 . S
C540 C541 1.446 . S
C540 C570 1.391 1_655 S
C541 C540 1.446 . S
C541 C542 1.339 . S
C541 H576 0.949 . S
C542 C541 1.339 . S
C542 C543 1.439 . S
C542 H577 0.950 . S
C543 N539 1.383 . S
C543 C542 1.439 . S
C543 C572 1.392 . S
N544 Co538 2.008 1_655 S
N544 C545 1.376 . S
N544 C548 1.374 1_655 S
C545 N544 1.376 . S
C545 C546 1.443 . S
C545 C572 1.389 . S
C546 C545 1.443 . S
C546 C547 1.340 . S
C546 H578 0.951 . S
C547 C546 1.340 . S
C547 C548 1.439 1_655 S
C547 H579 0.950 . S
C548 N544 1.374 1_455 S
C548 C547 1.439 1_455 S
C548 C573 1.395 . S
N549 Co538 1.995 . S
N549 C550 1.376 . S
N549 C553 1.383 . S
C550 N549 1.376 . S
C550 C551 1.446 . S
C550 C573 1.391 . S
C551 C550 1.446 . S
C551 C552 1.339 . S
C551 H580 0.949 . S
C552 C551 1.339 . S
C552 C553 1.439 . S
C552 H581 0.950 . S
C553 N549 1.383 . S
C553 C552 1.439 . S
C553 C571 1.392 . S
N554 Co538 2.282 . S
N554 C557 1.332 . S
N554 C559 1.332 . S
C555 C556 1.386 . S
C555 C558 1.388 . S
C556 C555 1.386 . S
C556 C557 1.382 . S
C556 H582 0.950 . S
C557 N554 1.332 . S
C557 C556 1.382 . S
C557 H568 0.952 . S
C558 C555 1.388 . S
C558 C559 1.382 . S
C558 H583 0.950 . S
C559 N554 1.332 . S
C559 C558 1.382 . S
C559 H569 0.948 . S
N560 Co538 2.282 1_655 S
N560 C564 1.332 . S
N560 C565 1.332 . S
C561 C562 1.388 . S
C561 C565 1.382 . S
C561 H584 0.950 . S
C562 C561 1.388 . S
C562 C563 1.386 . S
C563 C562 1.386 . S
C563 C564 1.382 . S
C563 H585 0.950 . S
C564 N560 1.332 . S
C564 C563 1.382 . S
C564 H566 0.952 . S
C565 N560 1.332 . S
C565 C561 1.382 . S
C565 H567 0.948 . S
H566 C564 0.952 . S
H567 C565 0.948 . S
H568 C557 0.952 . S
H569 C559 0.948 . S
C570 C536 1.395 . S
C570 C540 1.391 1_455 S
C571 C533 1.389 . S
C571 C553 1.392 . S
C572 C543 1.392 . S
C572 C545 1.389 . S
C573 C548 1.395 . S
C573 C550 1.391 . S
H574 C534 0.951 . S
H575 C535 0.950 . S
H576 C541 0.949 . S
H577 C542 0.950 . S
H578 C546 0.951 . S
H579 C547 0.950 . S
H580 C551 0.949 . S
H581 C552 0.950 . S
H582 C556 0.950 . S
H583 C558 0.950 . S
H584 C561 0.950 . S
H585 C563 0.950 . S
C586 C587 1.443 . S
C586 N590 1.376 . S
C586 C624 1.389 . S
C587 C586 1.443 . S
C587 C588 1.340 . S
C587 H627 0.951 . S
C588 C587 1.340 . S
C588 C589 1.439 . S
C588 H628 0.950 . S
C589 C588 1.439 . S
C589 N590 1.374 . S
C589 C623 1.395 1_565 S
N590 C586 1.376 . S
N590 C589 1.374 . S
N590 Co591 2.008 1_565 S
Co591 N590 2.008 1_545 S
Co591 N592 1.995 . S
Co591 N597 2.008 . S
Co591 N602 1.995 1_545 S
Co591 N607 2.282 . S
Co591 N613 2.282 1_545 S
N592 Co591 1.995 . S
N592 C593 1.376 . S
N592 C596 1.383 . S
C593 N592 1.376 . S
C593 C594 1.446 . S
C593 C623 1.391 . S
C594 C593 1.446 . S
C594 C595 1.339 . S
C594 H629 0.949 . S
C595 C594 1.339 . S
C595 C596 1.439 . S
C595 H630 0.950 . S
C596 N592 1.383 . S
C596 C595 1.439 . S
C596 C625 1.392 . S
N597 Co591 2.008 . S
N597 C598 1.376 . S
N597 C601 1.374 . S
C598 N597 1.376 . S
C598 C599 1.443 . S
C598 C625 1.389 . S
C599 C598 1.443 . S
C599 C600 1.340 . S
C599 H631 0.951 . S
C600 C599 1.340 . S
C600 C601 1.439 . S
C600 H632 0.950 . S
C601 N597 1.374 . S
C601 C600 1.439 . S
C601 C626 1.395 . S
N602 Co591 1.995 1_565 S
N602 C603 1.376 . S
N602 C606 1.383 . S
C603 N602 1.376 . S
C603 C604 1.446 . S
C603 C626 1.391 1_565 S
C604 C603 1.446 . S
C604 C605 1.339 . S
C604 H633 0.949 . S
C605 C604 1.339 . S
C605 C606 1.439 . S
C605 H634 0.950 . S
C606 N602 1.383 . S
C606 C605 1.439 . S
C606 C624 1.392 . S
N607 Co591 2.282 . S
N607 C610 1.332 . S
N607 C612 1.332 . S
C608 C609 1.386 . S
C608 C611 1.388 . S
C609 C608 1.386 . S
C609 C610 1.382 . S
C609 H635 0.950 . S
C610 N607 1.332 . S
C610 C609 1.382 . S
C610 H621 0.952 . S
C611 C608 1.388 . S
C611 C612 1.382 . S
C611 H636 0.950 . S
C612 N607 1.332 . S
C612 C611 1.382 . S
C612 H622 0.948 . S
N613 Co591 2.282 1_565 S
N613 C617 1.332 . S
N613 C618 1.332 . S
C614 C615 1.388 . S
C614 C618 1.382 . S
C614 H637 0.950 . S
C615 C614 1.388 . S
C615 C616 1.386 . S
C616 C615 1.386 . S
C616 C617 1.382 . S
C616 H638 0.950 . S
C617 N613 1.332 . S
C617 C616 1.382 . S
C617 H619 0.952 . S
C618 N613 1.332 . S
C618 C614 1.382 . S
C618 H620 0.948 . S
H619 C617 0.952 . S
H620 C618 0.948 . S
H621 C610 0.952 . S
H622 C612 0.948 . S
C623 C589 1.395 1_545 S
C623 C593 1.391 . S
C624 C586 1.389 . S
C624 C606 1.392 . S
C625 C596 1.392 . S
C625 C598 1.389 . S
C626 C601 1.395 . S
C626 C603 1.391 1_545 S
H627 C587 0.951 . S
H628 C588 0.950 . S
H629 C594 0.949 . S
H630 C595 0.950 . S
H631 C599 0.951 . S
H632 C600 0.950 . S
H633 C604 0.949 . S
H634 C605 0.950 . S
H635 C609 0.950 . S
H636 C611 0.950 . S
H637 C614 0.950 . S
H638 C616 0.950 . S
C639 C640 1.443 . S
C639 N643 1.376 . S
C639 C677 1.389 . S
C640 C639 1.443 . S
C640 C641 1.340 . S
C640 H680 0.951 . S
C641 C640 1.340 . S
C641 C642 1.439 . S
C641 H681 0.950 . S
C642 C641 1.439 . S
C642 N643 1.374 . S
C642 C676 1.395 . S
N643 C639 1.376 . S
N643 C642 1.374 . S
N643 Co644 2.008 . S
Co644 N643 2.008 . S
Co644 N645 1.987 1_554 S
Co644 N650 2.008 1_554 S
Co644 N655 1.995 . S
Co644 N660 2.282 1_554 S
Co644 N666 2.282 . S
N645 Co644 1.987 1_556 S
N645 C646 1.373 1_556 S
N645 C649 1.397 . S
C646 N645 1.373 1_554 S
C646 C647 1.446 1_554 S
C646 C676 1.391 . S
C647 C646 1.446 1_556 S
C647 C648 1.339 . S
C647 H682 0.949 . S
C648 C647 1.339 . S
C648 C649 1.439 . S
C648 H683 0.950 . S
C649 N645 1.397 . S
C649 C648 1.439 . S
C649 C678 1.392 . S
N650 Co644 2.008 1_556 S
N650 C651 1.376 . S
N650 C654 1.374 . S
C651 N650 1.376 . S
C651 C652 1.443 . S
C651 C678 1.389 . S
C652 C651 1.443 . S
C652 C653 1.340 . S
C652 H684 0.951 . S
C653 C652 1.340 . S
C653 C654 1.451 . S
C653 H685 0.950 . S
C654 N650 1.374 . S
C654 C653 1.451 . S
C654 C679 1.386 1_556 S
N655 Co644 1.995 . S
N655 C656 1.376 . S
N655 C659 1.383 . S
C656 N655 1.376 . S
C656 C657 1.446 . S
C656 C679 1.391 . S
C657 C656 1.446 . S
C657 C658 1.339 . S
C657 H686 0.949 . S
C658 C657 1.339 . S
C658 C659 1.439 . S
C658 H687 0.950 . S
C659 N655 1.383 . S
C659 C658 1.439 . S
C659 C677 1.392 . S
N660 Co644 2.282 1_556 S
N660 C663 1.332 . S
N660 C665 1.332 . S
C661 C662 1.386 . S
C661 C664 1.388 . S
C662 C661 1.386 . S
C662 C663 1.382 . S
C662 H688 0.950 . S
C663 N660 1.332 . S
C663 C662 1.382 . S
C663 H674 0.952 . S
C664 C661 1.388 . S
C664 C665 1.382 . S
C664 H689 0.950 . S
C665 N660 1.332 . S
C665 C664 1.382 . S
C665 H675 0.948 . S
N666 Co644 2.282 . S
N666 C670 1.332 . S
N666 C671 1.332 . S
C667 C668 1.388 . S
C667 C671 1.382 . S
C667 H690 0.950 . S
C668 C667 1.388 . S
C668 C669 1.386 . S
C669 C668 1.386 . S
C669 C670 1.382 . S
C669 H691 0.950 . S
C670 N666 1.332 . S
C670 C669 1.382 . S
C670 H672 0.952 . S
C671 N666 1.332 . S
C671 C667 1.382 . S
C671 H673 0.948 . S
H672 C670 0.952 . S
H673 C671 0.948 . S
H674 C663 0.952 . S
H675 C665 0.948 . S
C676 C642 1.395 . S
C676 C646 1.391 . S
C677 C639 1.389 . S
C677 C659 1.392 . S
C678 C649 1.392 . S
C678 C651 1.389 . S
C679 C654 1.386 1_554 S
C679 C656 1.391 . S
H680 C640 0.951 . S
H681 C641 0.950 . S
H682 C647 0.949 . S
H683 C648 0.950 . S
H684 C652 0.951 . S
H685 C653 0.950 . S
H686 C657 0.949 . S
H687 C658 0.950 . S
H688 C662 0.950 . S
H689 C664 0.950 . S
H690 C667 0.950 . S
H691 C669 0.950 . S
C692 C693 1.443 . S
C692 N696 1.376 1_565 S
C692 C730 1.389 . S
C693 C692 1.443 . S
C693 C694 1.340 . S
C693 H733 0.951 . S
C694 C693 1.340 . S
C694 C695 1.439 1_565 S
C694 H734 0.950 . S
C695 C694 1.439 1_545 S
C695 N696 1.374 . S
C695 C729 1.395 . S
N696 C692 1.376 1_545 S
N696 C695 1.374 . S
N696 Co697 2.008 . S
Co697 N696 2.008 . S
Co697 N698 1.995 . S
Co697 N703 2.008 . S
Co697 N708 1.995 . S
Co697 N713 2.282 . S
Co697 N719 2.282 1_545 S
N698 Co697 1.995 . S
N698 C699 1.376 . S
N698 C702 1.383 . S
C699 N698 1.376 . S
C699 C700 1.446 . S
C699 C729 1.391 . S
C700 C699 1.446 . S
C700 C701 1.339 . S
C700 H735 0.949 . S
C701 C700 1.339 . S
C701 C702 1.439 . S
C701 H736 0.950 . S
C702 N698 1.383 . S
C702 C701 1.439 . S
C702 C731 1.392 . S
N703 Co697 2.008 . S
N703 C704 1.376 . S
N703 C707 1.374 . S
C704 N703 1.376 . S
C704 C705 1.443 . S
C704 C731 1.389 . S
C705 C704 1.443 . S
C705 C706 1.340 . S
C705 H737 0.951 . S
C706 C705 1.340 . S
C706 C707 1.439 . S
C706 H738 0.950 . S
C707 N703 1.374 . S
C707 C706 1.439 . S
C707 C732 1.395 . S
N708 Co697 1.995 . S
N708 C709 1.376 . S
N708 C712 1.383 1_545 S
C709 N708 1.376 . S
C709 C710 1.446 1_545 S
C709 C732 1.391 . S
C710 C709 1.446 1_565 S
C710 C711 1.339 . S
C710 H739 0.949 . S
C711 C710 1.339 . S
C711 C712 1.439 . S
C711 H740 0.950 . S
C712 N708 1.383 1_565 S
C712 C711 1.439 . S
C712 C730 1.392 . S
N713 Co697 2.282 . S
N713 C716 1.332 . S
N713 C718 1.332 . S
C714 C715 1.386 . S
C714 C717 1.388 . S
C715 C714 1.386 . S
C715 C716 1.382 . S
C715 H741 0.950 . S
C716 N713 1.332 . S
C716 C715 1.382 . S
C716 H727 0.952 . S
C717 C714 1.388 . S
C717 C718 1.382 . S
C717 H742 0.950 . S
C718 N713 1.332 . S
C718 C717 1.382 . S
C718 H728 0.948 . S
N719 Co697 2.282 1_565 S
N719 C723 1.332 . S
N719 C724 1.332 . S
C720 C721 1.388 . S
C720 C724 1.382 . S
C720 H743 0.950 . S
C721 C720 1.388 . S
C721 C722 1.386 . S
C722 C721 1.386 . S
C722 C723 1.382 . S
C722 H744 0.950 . S
C723 N719 1.332 . S
C723 C722 1.382 . S
C723 H725 0.952 . S
C724 N719 1.332 . S
C724 C720 1.382 . S
C724 H726 0.948 . S
H725 C723 0.952 . S
H726 C724 0.948 . S
H727 C716 0.952 . S
H728 C718 0.948 . S
C729 C695 1.395 . S
C729 C699 1.391 . S
C730 C692 1.389 . S
C730 C712 1.392 . S
C731 C702 1.392 . S
C731 C704 1.389 . S
C732 C707 1.395 . S
C732 C709 1.391 . S
H733 C693 0.951 . S
H734 C694 0.950 . S
H735 C700 0.949 . S
H736 C701 0.950 . S
H737 C705 0.951 . S
H738 C706 0.950 . S
H739 C710 0.949 . S
H740 C711 0.950 . S
H741 C715 0.950 . S
H742 C717 0.950 . S
H743 C720 0.950 . S
H744 C722 0.950 . S
C745 C746 1.443 . S
C745 N749 1.376 . S
C745 C783 1.389 . S
C746 C745 1.443 . S
C746 C747 1.340 . S
C746 H786 0.951 . S
C747 C746 1.340 . S
C747 C748 1.439 . S
C747 H787 0.950 . S
C748 C747 1.439 . S
C748 N749 1.374 . S
C748 C782 1.395 . S
N749 C745 1.376 . S
N749 C748 1.374 . S
N749 Co750 2.008 . S
Co750 N749 2.008 . S
Co750 N751 1.995 . S
Co750 N756 2.008 . S
Co750 N761 1.995 . S
Co750 N766 2.289 . S
Co750 N772 2.282 . S
N751 Co750 1.995 . S
N751 C752 1.376 . S
N751 C755 1.383 1_554 S
C752 N751 1.376 . S
C752 C753 1.446 1_554 S
C752 C782 1.391 . S
C753 C752 1.446 1_556 S
C753 C754 1.339 . S
C753 H788 0.949 . S
C754 C753 1.339 . S
C754 C755 1.439 . S
C754 H789 0.950 . S
C755 N751 1.383 1_556 S
C755 C754 1.439 . S
C755 C784 1.392 . S
N756 Co750 2.008 . S
N756 C757 1.376 1_554 S
N756 C760 1.374 . S
C757 N756 1.376 1_556 S
C757 C758 1.443 . S
C757 C784 1.389 . S
C758 C757 1.443 . S
C758 C759 1.340 . S
C758 H790 0.951 . S
C759 C758 1.340 . S
C759 C760 1.439 1_556 S
C759 H791 0.950 . S
C760 N756 1.374 . S
C760 C759 1.439 1_554 S
C760 C785 1.395 . S
N761 Co750 1.995 . S
N761 C762 1.376 . S
N761 C765 1.383 . S
C762 N761 1.376 . S
C762 C763 1.446 . S
C762 C785 1.391 . S
C763 C762 1.446 . S
C763 C764 1.339 . S
C763 H792 0.949 . S
C764 C763 1.339 . S
C764 C765 1.439 . S
C764 H793 0.950 . S
C765 N761 1.383 . S
C765 C764 1.439 . S
C765 C783 1.392 . S
N766 Co750 2.289 . S
N766 C769 1.329 1_554 S
N766 C771 1.327 1_554 S
C767 C768 1.386 . S
C767 C770 1.388 . S
C768 C767 1.386 . S
C768 C769 1.382 . S
C768 H794 0.950 . S
C769 N766 1.329 1_556 S
C769 C768 1.382 . S
C769 H780 0.952 1_556 S
C770 C767 1.388 . S
C770 C771 1.382 . S
C770 H795 0.950 . S
C771 N766 1.327 1_556 S
C771 C770 1.382 . S
C771 H781 0.948 . S
N772 Co750 2.282 . S
N772 C776 1.332 . S
N772 C777 1.332 . S
C773 C774 1.388 . S
C773 C777 1.382 . S
C773 H796 0.950 . S
C774 C773 1.388 . S
C774 C775 1.386 . S
C775 C774 1.386 . S
C775 C776 1.382 . S
C775 H797 0.950 . S
C776 N772 1.332 . S
C776 C775 1.382 . S
C776 H778 0.952 . S
C777 N772 1.332 . S
C777 C773 1.382 . S
C777 H779 0.948 . S
H778 C776 0.952 . S
H779 C777 0.948 . S
H780 C769 0.952 1_554 S
H781 C771 0.948 . S
C782 C748 1.395 . S
C782 C752 1.391 . S
C783 C745 1.389 . S
C783 C765 1.392 . S
C784 C755 1.392 . S
C784 C757 1.389 . S
C785 C760 1.395 . S
C785 C762 1.391 . S
H786 C746 0.951 . S
H787 C747 0.950 . S
H788 C753 0.949 . S
H789 C754 0.950 . S
H790 C758 0.951 . S
H791 C759 0.950 . S
H792 C763 0.949 . S
H793 C764 0.950 . S
H794 C768 0.950 . S
H795 C770 0.950 . S
H796 C773 0.950 . S
H797 C775 0.950 . S
C798 C799 1.363 . S
C798 C804 1.379 . S
C798 N806 1.356 . S
C799 C798 1.363 . S
C799 C805 1.363 . S
C800 C801 1.363 . S
C800 C805 1.379 . S
C800 N807 1.356 . S
C801 C800 1.363 . S
C801 C804 1.363 . S
N802 C804 1.356 . S
N802 H814 0.984 . S
N802 H815 0.985 . S
N803 C805 1.356 . S
N803 H808 0.984 . S
N803 H809 0.985 . S
C804 C798 1.379 . S
C804 C801 1.363 . S
C804 N802 1.356 . S
C805 C799 1.363 . S
C805 C800 1.379 . S
C805 N803 1.356 . S
N806 C798 1.356 . S
N806 H812 0.984 . S
N806 H813 0.984 . S
N807 C800 1.356 . S
N807 H810 0.984 . S
N807 H811 0.985 . S
H808 N803 0.984 . S
H809 N803 0.985 . S
H810 N807 0.984 . S
H811 N807 0.985 . S
H812 N806 0.984 . S
H813 N806 0.984 . S
H814 N802 0.984 . S
H815 N802 0.985 . S
C816 C817 1.363 . S
C816 C822 1.379 . S
C816 N824 1.356 . S
C817 C816 1.363 . S
C817 C823 1.363 . S
C818 C819 1.363 . S
C818 C823 1.379 . S
C818 N825 1.356 . S
C819 C818 1.363 . S
C819 C822 1.363 . S
N820 C822 1.356 . S
N820 H832 0.984 . S
N820 H833 0.985 . S
N821 C823 1.356 . S
N821 H826 0.984 . S
N821 H827 0.985 . S
C822 C816 1.379 . S
C822 C819 1.363 . S
C822 N820 1.356 . S
C823 C817 1.363 . S
C823 C818 1.379 . S
C823 N821 1.356 . S
N824 C816 1.356 . S
N824 H830 0.984 . S
N824 H831 0.984 . S
N825 C818 1.356 . S
N825 H828 0.984 . S
N825 H829 0.985 . S
H826 N821 0.984 . S
H827 N821 0.985 . S
H828 N825 0.984 . S
H829 N825 0.985 . S
H830 N824 0.984 . S
H831 N824 0.984 . S
H832 N820 0.984 . S
H833 N820 0.985 . S
C834 C835 1.363 . S
C834 C840 1.379 . S
C834 N842 1.356 . S
C835 C834 1.363 . S
C835 C841 1.363 . S
C836 C837 1.363 . S
C836 C841 1.379 . S
C836 N843 1.356 . S
C837 C836 1.363 . S
C837 C840 1.363 . S
N838 C840 1.356 . S
N838 H850 0.984 . S
N838 H851 0.985 . S
N839 C841 1.356 . S
N839 H844 0.984 . S
N839 H845 0.985 . S
C840 C834 1.379 . S
C840 C837 1.363 . S
C840 N838 1.356 . S
C841 C835 1.363 . S
C841 C836 1.379 . S
C841 N839 1.356 . S
N842 C834 1.356 . S
N842 H848 0.984 . S
N842 H849 0.984 . S
N843 C836 1.356 . S
N843 H846 0.984 . S
N843 H847 0.985 . S
H844 N839 0.984 . S
H845 N839 0.985 . S
H846 N843 0.984 . S
H847 N843 0.985 . S
H848 N842 0.984 . S
H849 N842 0.984 . S
H850 N838 0.984 . S
H851 N838 0.985 . S
C852 C853 1.363 . S
C852 C858 1.379 . S
C852 N860 1.356 . S
C853 C852 1.363 . S
C853 C859 1.363 . S
C854 C855 1.363 . S
C854 C859 1.379 . S
C854 N861 1.356 . S
C855 C854 1.363 . S
C855 C858 1.363 . S
N856 C858 1.356 . S
N856 H868 0.984 . S
N856 H869 0.985 . S
N857 C859 1.356 . S
N857 H862 0.984 . S
N857 H863 0.985 . S
C858 C852 1.379 . S
C858 C855 1.363 . S
C858 N856 1.356 . S
C859 C853 1.363 . S
C859 C854 1.379 . S
C859 N857 1.356 . S
N860 C852 1.356 . S
N860 H866 0.984 . S
N860 H867 0.984 . S
N861 C854 1.356 . S
N861 H864 0.984 . S
N861 H865 0.985 . S
H862 N857 0.984 . S
H863 N857 0.985 . S
H864 N861 0.984 . S
H865 N861 0.985 . S
H866 N860 0.984 . S
H867 N860 0.984 . S
H868 N856 0.984 . S
H869 N856 0.985 . S
C870 C871 1.363 . S
C870 C876 1.379 . S
C870 N878 1.356 . S
C871 C870 1.363 . S
C871 C877 1.363 . S
C872 C873 1.363 . S
C872 C877 1.379 . S
C872 N879 1.356 . S
C873 C872 1.363 . S
C873 C876 1.363 . S
N874 C876 1.356 . S
N874 H886 0.984 . S
N874 H887 0.985 . S
N875 C877 1.356 . S
N875 H880 0.984 . S
N875 H881 0.985 . S
C876 C870 1.379 . S
C876 C873 1.363 . S
C876 N874 1.356 . S
C877 C871 1.363 . S
C877 C872 1.379 . S
C877 N875 1.356 . S
N878 C870 1.356 . S
N878 H884 0.984 . S
N878 H885 0.984 . S
N879 C872 1.356 . S
N879 H882 0.984 . S
N879 H883 0.985 . S
H880 N875 0.984 . S
H881 N875 0.985 . S
H882 N879 0.984 . S
H883 N879 0.985 . S
H884 N878 0.984 . S
H885 N878 0.984 . S
H886 N874 0.984 . S
H887 N874 0.985 . S
C888 C889 1.363 . S
C888 C894 1.379 . S
C888 N896 1.356 . S
C889 C888 1.363 . S
C889 C895 1.363 . S
C890 C891 1.363 . S
C890 C895 1.379 . S
C890 N897 1.356 . S
C891 C890 1.363 . S
C891 C894 1.363 . S
N892 C894 1.356 . S
N892 H904 0.984 . S
N892 H905 0.985 . S
N893 C895 1.356 . S
N893 H898 0.984 . S
N893 H899 0.985 . S
C894 C888 1.379 . S
C894 C891 1.363 . S
C894 N892 1.356 . S
C895 C889 1.363 . S
C895 C890 1.379 . S
C895 N893 1.356 . S
N896 C888 1.356 . S
N896 H902 0.984 . S
N896 H903 0.984 . S
N897 C890 1.356 . S
N897 H900 0.984 . S
N897 H901 0.985 . S
H898 N893 0.984 . S
H899 N893 0.985 . S
H900 N897 0.984 . S
H901 N897 0.985 . S
H902 N896 0.984 . S
H903 N896 0.984 . S
H904 N892 0.984 . S
H905 N892 0.985 . S
C906 C907 1.363 . S
C906 C912 1.379 . S
C906 N914 1.356 . S
C907 C906 1.363 . S
C907 C913 1.363 . S
C908 C909 1.363 . S
C908 C913 1.379 . S
C908 N915 1.356 . S
C909 C908 1.363 . S
C909 C912 1.363 . S
N910 C912 1.356 . S
N910 H922 0.984 . S
N910 H923 0.985 . S
N911 C913 1.356 . S
N911 H916 0.984 . S
N911 H917 0.985 . S
C912 C906 1.379 . S
C912 C909 1.363 . S
C912 N910 1.356 . S
C913 C907 1.363 . S
C913 C908 1.379 . S
C913 N911 1.356 . S
N914 C906 1.356 . S
N914 H920 0.984 . S
N914 H921 0.984 . S
N915 C908 1.356 . S
N915 H918 0.984 . S
N915 H919 0.985 . S
H916 N911 0.984 . S
H917 N911 0.985 . S
H918 N915 0.984 . S
H919 N915 0.985 . S
H920 N914 0.984 . S
H921 N914 0.984 . S
H922 N910 0.984 . S
H923 N910 0.985 . S
C924 C925 1.363 . S
C924 C930 1.379 . S
C924 N932 1.356 . S
C925 C924 1.363 . S
C925 C931 1.363 . S
C926 C927 1.363 . S
C926 C931 1.379 . S
C926 N933 1.356 . S
C927 C926 1.363 . S
C927 C930 1.363 . S
N928 C930 1.356 . S
N928 H940 0.984 . S
N928 H941 0.985 . S
N929 C931 1.356 . S
N929 H934 0.984 . S
N929 H935 0.985 . S
C930 C924 1.379 . S
C930 C927 1.363 . S
C930 N928 1.356 . S
C931 C925 1.363 . S
C931 C926 1.379 . S
C931 N929 1.356 . S
N932 C924 1.356 . S
N932 H938 0.984 . S
N932 H939 0.984 . S
N933 C926 1.356 . S
N933 H936 0.984 . S
N933 H937 0.985 . S
H934 N929 0.984 . S
H935 N929 0.985 . S
H936 N933 0.984 . S
H937 N933 0.985 . S
H938 N932 0.984 . S
H939 N932 0.984 . S
H940 N928 0.984 . S
H941 N928 0.985 . S
C942 C943 1.363 . S
C942 C948 1.379 . S
C942 N950 1.356 . S
C943 C942 1.363 . S
C943 C949 1.363 . S
C944 C945 1.363 . S
C944 C949 1.379 . S
C944 N951 1.356 . S
C945 C944 1.363 . S
C945 C948 1.363 . S
N946 C948 1.356 . S
N946 H958 0.984 . S
N946 H959 0.985 . S
N947 C949 1.356 . S
N947 H952 0.984 . S
N947 H953 0.985 . S
C948 C942 1.379 . S
C948 C945 1.363 . S
C948 N946 1.356 . S
C949 C943 1.363 . S
C949 C944 1.379 . S
C949 N947 1.356 . S
N950 C942 1.356 . S
N950 H956 0.984 . S
N950 H957 0.984 . S
N951 C944 1.356 . S
N951 H954 0.984 . S
N951 H955 0.985 . S
H952 N947 0.984 . S
H953 N947 0.985 . S
H954 N951 0.984 . S
H955 N951 0.985 . S
H956 N950 0.984 . S
H957 N950 0.984 . S
H958 N946 0.984 . S
H959 N946 0.985 . S
C960 C961 1.363 . S
C960 C966 1.379 . S
C960 N968 1.356 . S
C961 C960 1.363 . S
C961 C967 1.363 . S
C962 C963 1.363 . S
C962 C967 1.379 . S
C962 N969 1.356 . S
C963 C962 1.363 . S
C963 C966 1.363 . S
N964 C966 1.356 . S
N964 H976 0.984 . S
N964 H977 0.985 . S
N965 C967 1.356 . S
N965 H970 0.984 . S
N965 H971 0.985 . S
C966 C960 1.379 . S
C966 C963 1.363 . S
C966 N964 1.356 . S
C967 C961 1.363 . S
C967 C962 1.379 . S
C967 N965 1.356 . S
N968 C960 1.356 . S
N968 H974 0.984 . S
N968 H975 0.984 . S
N969 C962 1.356 . S
N969 H972 0.984 . S
N969 H973 0.985 . S
H970 N965 0.984 . S
H971 N965 0.985 . S
H972 N969 0.984 . S
H973 N969 0.985 . S
H974 N968 0.984 . S
H975 N968 0.984 . S
H976 N964 0.984 . S
H977 N964 0.985 . S
C978 C979 1.363 . S
C978 C984 1.379 . S
C978 N986 1.356 . S
C979 C978 1.363 . S
C979 C985 1.363 . S
C980 C981 1.363 . S
C980 C985 1.379 . S
C980 N987 1.356 . S
C981 C980 1.363 . S
C981 C984 1.363 . S
N982 C984 1.356 . S
N982 H994 0.984 . S
N982 H995 0.985 . S
N983 C985 1.356 . S
N983 H988 0.984 . S
N983 H989 0.985 . S
C984 C978 1.379 . S
C984 C981 1.363 . S
C984 N982 1.356 . S
C985 C979 1.363 . S
C985 C980 1.379 . S
C985 N983 1.356 . S
N986 C978 1.356 . S
N986 H992 0.984 . S
N986 H993 0.984 . S
N987 C980 1.356 . S
N987 H990 0.984 . S
N987 H991 0.985 . S
H988 N983 0.984 . S
H989 N983 0.985 . S
H990 N987 0.984 . S
H991 N987 0.985 . S
H992 N986 0.984 . S
H993 N986 0.984 . S
H994 N982 0.984 . S
H995 N982 0.985 . S
C996 C997 1.363 . S
C996 C1002 1.379 . S
C996 N1004 1.356 . S
C997 C996 1.363 . S
C997 C1003 1.363 . S
C998 C999 1.363 . S
C998 C1003 1.379 . S
C998 N1005 1.356 . S
C999 C998 1.363 . S
C999 C1002 1.363 . S
N1000 C1002 1.356 . S
N1000 H1012 0.984 . S
N1000 H1013 0.985 . S
N1001 C1003 1.356 . S
N1001 H1006 0.984 . S
N1001 H1007 0.985 . S
C1002 C996 1.379 . S
C1002 C999 1.363 . S
C1002 N1000 1.356 . S
C1003 C997 1.363 . S
C1003 C998 1.379 . S
C1003 N1001 1.356 . S
N1004 C996 1.356 . S
N1004 H1010 0.984 . S
N1004 H1011 0.984 . S
N1005 C998 1.356 . S
N1005 H1008 0.984 . S
N1005 H1009 0.985 . S
H1006 N1001 0.984 . S
H1007 N1001 0.985 . S
H1008 N1005 0.984 . S
H1009 N1005 0.985 . S
H1010 N1004 0.984 . S
H1011 N1004 0.984 . S
H1012 N1000 0.984 . S
H1013 N1000 0.985 . S
C1014 C1015 1.363 . S
C1014 C1020 1.379 . S
C1014 N1022 1.356 . S
C1015 C1014 1.363 . S
C1015 C1021 1.363 . S
C1016 C1017 1.363 . S
C1016 C1021 1.379 . S
C1016 N1023 1.356 . S
C1017 C1016 1.363 . S
C1017 C1020 1.363 . S
N1018 C1020 1.356 . S
N1018 H1030 0.984 . S
N1018 H1031 0.985 . S
N1019 C1021 1.356 . S
N1019 H1024 0.984 . S
N1019 H1025 0.985 . S
C1020 C1014 1.379 . S
C1020 C1017 1.363 . S
C1020 N1018 1.356 . S
C1021 C1015 1.363 . S
C1021 C1016 1.379 . S
C1021 N1019 1.356 . S
N1022 C1014 1.356 . S
N1022 H1028 0.984 . S
N1022 H1029 0.984 . S
N1023 C1016 1.356 . S
N1023 H1026 0.984 . S
N1023 H1027 0.985 . S
H1024 N1019 0.984 . S
H1025 N1019 0.985 . S
H1026 N1023 0.984 . S
H1027 N1023 0.985 . S
H1028 N1022 0.984 . S
H1029 N1022 0.984 . S
H1030 N1018 0.984 . S
H1031 N1018 0.985 . S
C1032 C1033 1.363 . S
C1032 C1038 1.379 . S
C1032 N1040 1.356 . S
C1033 C1032 1.363 . S
C1033 C1039 1.363 . S
C1034 C1035 1.363 . S
C1034 C1039 1.379 . S
C1034 N1041 1.356 . S
C1035 C1034 1.363 . S
C1035 C1038 1.363 . S
N1036 C1038 1.356 . S
N1036 H1048 0.984 . S
N1036 H1049 0.985 . S
N1037 C1039 1.356 . S
N1037 H1042 0.984 . S
N1037 H1043 0.985 . S
C1038 C1032 1.379 . S
C1038 C1035 1.363 . S
C1038 N1036 1.356 . S
C1039 C1033 1.363 . S
C1039 C1034 1.379 . S
C1039 N1037 1.356 . S
N1040 C1032 1.356 . S
N1040 H1046 0.984 . S
N1040 H1047 0.984 . S
N1041 C1034 1.356 . S
N1041 H1044 0.984 . S
N1041 H1045 0.985 . S
H1042 N1037 0.984 . S
H1043 N1037 0.985 . S
H1044 N1041 0.984 . S
H1045 N1041 0.985 . S
H1046 N1040 0.984 . S
H1047 N1040 0.984 . S
H1048 N1036 0.984 . S
H1049 N1036 0.985 . S
C1050 C1051 1.363 . S
C1050 C1056 1.379 . S
C1050 N1058 1.356 . S
C1051 C1050 1.363 . S
C1051 C1057 1.363 . S
C1052 C1053 1.363 . S
C1052 C1057 1.379 . S
C1052 N1059 1.356 . S
C1053 C1052 1.363 . S
C1053 C1056 1.363 . S
N1054 C1056 1.356 . S
N1054 H1066 0.984 . S
N1054 H1067 0.985 . S
N1055 C1057 1.356 . S
N1055 H1060 0.984 . S
N1055 H1061 0.985 . S
C1056 C1050 1.379 . S
C1056 C1053 1.363 . S
C1056 N1054 1.356 . S
C1057 C1051 1.363 . S
C1057 C1052 1.379 . S
C1057 N1055 1.356 . S
N1058 C1050 1.356 . S
N1058 H1064 0.984 . S
N1058 H1065 0.984 . S
N1059 C1052 1.356 . S
N1059 H1062 0.984 . S
N1059 H1063 0.985 . S
H1060 N1055 0.984 . S
H1061 N1055 0.985 . S
H1062 N1059 0.984 . S
H1063 N1059 0.985 . S
H1064 N1058 0.984 . S
H1065 N1058 0.984 . S
H1066 N1054 0.984 . S
H1067 N1054 0.985 . S
C1068 C1069 1.363 . S
C1068 C1074 1.379 . S
C1068 N1076 1.356 . S
C1069 C1068 1.363 . S
C1069 C1075 1.363 . S
C1070 C1071 1.363 . S
C1070 C1075 1.379 . S
C1070 N1077 1.356 . S
C1071 C1070 1.363 . S
C1071 C1074 1.363 . S
N1072 C1074 1.356 . S
N1072 H1084 0.984 . S
N1072 H1085 0.985 . S
N1073 C1075 1.356 . S
N1073 H1078 0.984 . S
N1073 H1079 0.985 . S
C1074 C1068 1.379 . S
C1074 C1071 1.363 . S
C1074 N1072 1.356 . S
C1075 C1069 1.363 . S
C1075 C1070 1.379 . S
C1075 N1073 1.356 . S
N1076 C1068 1.356 . S
N1076 H1082 0.984 . S
N1076 H1083 0.984 . S
N1077 C1070 1.356 . S
N1077 H1080 0.984 . S
N1077 H1081 0.985 . S
H1078 N1073 0.984 . S
H1079 N1073 0.985 . S
H1080 N1077 0.984 . S
H1081 N1077 0.985 . S
H1082 N1076 0.984 . S
H1083 N1076 0.984 . S
H1084 N1072 0.984 . S
H1085 N1072 0.985 . S
C1086 C1087 1.363 . S
C1086 C1092 1.379 . S
C1086 N1094 1.356 . S
C1087 C1086 1.363 . S
C1087 C1093 1.363 . S
C1088 C1089 1.363 . S
C1088 C1093 1.379 . S
C1088 N1095 1.356 . S
C1089 C1088 1.363 . S
C1089 C1092 1.363 . S
N1090 C1092 1.356 . S
N1090 H1102 0.984 . S
N1090 H1103 0.985 . S
N1091 C1093 1.356 . S
N1091 H1096 0.984 . S
N1091 H1097 0.985 . S
C1092 C1086 1.379 . S
C1092 C1089 1.363 . S
C1092 N1090 1.356 . S
C1093 C1087 1.363 . S
C1093 C1088 1.379 . S
C1093 N1091 1.356 . S
N1094 C1086 1.356 . S
N1094 H1100 0.984 . S
N1094 H1101 0.984 . S
N1095 C1088 1.356 . S
N1095 H1098 0.984 . S
N1095 H1099 0.985 . S
H1096 N1091 0.984 . S
H1097 N1091 0.985 . S
H1098 N1095 0.984 . S
H1099 N1095 0.985 . S
H1100 N1094 0.984 . S
H1101 N1094 0.984 . S
H1102 N1090 0.984 . S
H1103 N1090 0.985 . S
C1104 C1105 1.363 . S
C1104 C1110 1.379 . S
C1104 N1112 1.356 . S
C1105 C1104 1.363 . S
C1105 C1111 1.363 . S
C1106 C1107 1.363 . S
C1106 C1111 1.379 . S
C1106 N1113 1.356 . S
C1107 C1106 1.363 . S
C1107 C1110 1.363 . S
N1108 C1110 1.356 . S
N1108 H1120 0.984 . S
N1108 H1121 0.985 . S
N1109 C1111 1.356 . S
N1109 H1114 0.984 . S
N1109 H1115 0.985 . S
C1110 C1104 1.379 . S
C1110 C1107 1.363 . S
C1110 N1108 1.356 . S
C1111 C1105 1.363 . S
C1111 C1106 1.379 . S
C1111 N1109 1.356 . S
N1112 C1104 1.356 . S
N1112 H1118 0.984 . S
N1112 H1119 0.984 . S
N1113 C1106 1.356 . S
N1113 H1116 0.984 . S
N1113 H1117 0.985 . S
H1114 N1109 0.984 . S
H1115 N1109 0.985 . S
H1116 N1113 0.984 . S
H1117 N1113 0.985 . S
H1118 N1112 0.984 . S
H1119 N1112 0.984 . S
H1120 N1108 0.984 . S
H1121 N1108 0.985 . S
C1122 C1123 1.363 . S
C1122 C1128 1.379 . S
C1122 N1130 1.356 . S
C1123 C1122 1.363 . S
C1123 C1129 1.363 . S
C1124 C1125 1.363 . S
C1124 C1129 1.379 . S
C1124 N1131 1.356 . S
C1125 C1124 1.363 . S
C1125 C1128 1.363 . S
N1126 C1128 1.356 . S
N1126 H1138 0.984 . S
N1126 H1139 0.985 . S
N1127 C1129 1.356 . S
N1127 H1132 0.984 . S
N1127 H1133 0.985 . S
C1128 C1122 1.379 . S
C1128 C1125 1.363 . S
C1128 N1126 1.356 . S
C1129 C1123 1.363 . S
C1129 C1124 1.379 . S
C1129 N1127 1.356 . S
N1130 C1122 1.356 . S
N1130 H1136 0.984 . S
N1130 H1137 0.984 . S
N1131 C1124 1.356 . S
N1131 H1134 0.984 . S
N1131 H1135 0.985 . S
H1132 N1127 0.984 . S
H1133 N1127 0.985 . S
H1134 N1131 0.984 . S
H1135 N1131 0.985 . S
H1136 N1130 0.984 . S
H1137 N1130 0.984 . S
H1138 N1126 0.984 . S
H1139 N1126 0.985 . S
C1140 C1141 1.363 . S
C1140 C1146 1.379 . S
C1140 N1148 1.356 . S
C1141 C1140 1.363 . S
C1141 C1147 1.363 . S
C1142 C1143 1.363 . S
C1142 C1147 1.379 . S
C1142 N1149 1.356 . S
C1143 C1142 1.363 . S
C1143 C1146 1.363 . S
N1144 C1146 1.356 . S
N1144 H1156 0.984 . S
N1144 H1157 0.985 . S
N1145 C1147 1.356 . S
N1145 H1150 0.984 . S
N1145 H1151 0.985 . S
C1146 C1140 1.379 . S
C1146 C1143 1.363 . S
C1146 N1144 1.356 . S
C1147 C1141 1.363 . S
C1147 C1142 1.379 . S
C1147 N1145 1.356 . S
N1148 C1140 1.356 . S
N1148 H1154 0.984 . S
N1148 H1155 0.984 . S
N1149 C1142 1.356 . S
N1149 H1152 0.984 . S
N1149 H1153 0.985 . S
H1150 N1145 0.984 . S
H1151 N1145 0.985 . S
H1152 N1149 0.984 . S
H1153 N1149 0.985 . S
H1154 N1148 0.984 . S
H1155 N1148 0.984 . S
H1156 N1144 0.984 . S
H1157 N1144 0.985 . S
C1158 C1159 1.363 . S
C1158 C1164 1.379 . S
C1158 N1166 1.356 . S
C1159 C1158 1.363 . S
C1159 C1165 1.363 . S
C1160 C1161 1.363 . S
C1160 C1165 1.379 . S
C1160 N1167 1.356 . S
C1161 C1160 1.363 . S
C1161 C1164 1.363 . S
N1162 C1164 1.356 . S
N1162 H1174 0.984 . S
N1162 H1175 0.985 . S
N1163 C1165 1.356 . S
N1163 H1168 0.984 . S
N1163 H1169 0.985 . S
C1164 C1158 1.379 . S
C1164 C1161 1.363 . S
C1164 N1162 1.356 . S
C1165 C1159 1.363 . S
C1165 C1160 1.379 . S
C1165 N1163 1.356 . S
N1166 C1158 1.356 . S
N1166 H1172 0.984 . S
N1166 H1173 0.984 . S
N1167 C1160 1.356 . S
N1167 H1170 0.984 . S
N1167 H1171 0.985 . S
H1168 N1163 0.984 . S
H1169 N1163 0.985 . S
H1170 N1167 0.984 . S
H1171 N1167 0.985 . S
H1172 N1166 0.984 . S
H1173 N1166 0.984 . S
H1174 N1162 0.984 . S
H1175 N1162 0.985 . S
C1176 C1177 1.363 . S
C1176 C1182 1.379 . S
C1176 N1184 1.356 . S
C1177 C1176 1.363 . S
C1177 C1183 1.363 . S
C1178 C1179 1.363 . S
C1178 C1183 1.379 . S
C1178 N1185 1.356 . S
C1179 C1178 1.363 . S
C1179 C1182 1.363 . S
N1180 C1182 1.356 . S
N1180 H1192 0.984 . S
N1180 H1193 0.985 . S
N1181 C1183 1.356 . S
N1181 H1186 0.984 . S
N1181 H1187 0.985 . S
C1182 C1176 1.379 . S
C1182 C1179 1.363 . S
C1182 N1180 1.356 . S
C1183 C1177 1.363 . S
C1183 C1178 1.379 . S
C1183 N1181 1.356 . S
N1184 C1176 1.356 . S
N1184 H1190 0.984 . S
N1184 H1191 0.984 . S
N1185 C1178 1.356 . S
N1185 H1188 0.984 . S
N1185 H1189 0.985 . S
H1186 N1181 0.984 . S
H1187 N1181 0.985 . S
H1188 N1185 0.984 . S
H1189 N1185 0.985 . S
H1190 N1184 0.984 . S
H1191 N1184 0.984 . S
H1192 N1180 0.984 . S
H1193 N1180 0.985 . S
C1194 C1195 1.363 . S
C1194 C1200 1.379 . S
C1194 N1202 1.356 . S
C1195 C1194 1.363 . S
C1195 C1201 1.363 . S
C1196 C1197 1.363 . S
C1196 C1201 1.379 . S
C1196 N1203 1.356 . S
C1197 C1196 1.363 . S
C1197 C1200 1.363 . S
N1198 C1200 1.356 . S
N1198 H1210 0.984 . S
N1198 H1211 0.985 . S
N1199 C1201 1.356 . S
N1199 H1204 0.984 . S
N1199 H1205 0.985 . S
C1200 C1194 1.379 . S
C1200 C1197 1.363 . S
C1200 N1198 1.356 . S
C1201 C1195 1.363 . S
C1201 C1196 1.379 . S
C1201 N1199 1.356 . S
N1202 C1194 1.356 . S
N1202 H1208 0.984 . S
N1202 H1209 0.984 . S
N1203 C1196 1.356 . S
N1203 H1206 0.984 . S
N1203 H1207 0.985 . S
H1204 N1199 0.984 . S
H1205 N1199 0.985 . S
H1206 N1203 0.984 . S
H1207 N1203 0.985 . S
H1208 N1202 0.984 . S
H1209 N1202 0.984 . S
H1210 N1198 0.984 . S
H1211 N1198 0.985 . S
C1212 C1213 1.363 . S
C1212 C1218 1.379 . S
C1212 N1220 1.356 . S
C1213 C1212 1.363 . S
C1213 C1219 1.363 . S
C1214 C1215 1.363 . S
C1214 C1219 1.379 . S
C1214 N1221 1.356 . S
C1215 C1214 1.363 . S
C1215 C1218 1.363 . S
N1216 C1218 1.356 . S
N1216 H1228 0.984 . S
N1216 H1229 0.985 . S
N1217 C1219 1.356 . S
N1217 H1222 0.984 . S
N1217 H1223 0.985 . S
C1218 C1212 1.379 . S
C1218 C1215 1.363 . S
C1218 N1216 1.356 . S
C1219 C1213 1.363 . S
C1219 C1214 1.379 . S
C1219 N1217 1.356 . S
N1220 C1212 1.356 . S
N1220 H1226 0.984 . S
N1220 H1227 0.984 . S
N1221 C1214 1.356 . S
N1221 H1224 0.984 . S
N1221 H1225 0.985 . S
H1222 N1217 0.984 . S
H1223 N1217 0.985 . S
H1224 N1221 0.984 . S
H1225 N1221 0.985 . S
H1226 N1220 0.984 . S
H1227 N1220 0.984 . S
H1228 N1216 0.984 . S
H1229 N1216 0.985 . S
C801 C502 1.551 . S
C799 C31 1.524 . S
C819 C571 1.542 . S
C817 C61 1.521 . S
C837 C509 1.547 . S
C835 C121 1.543 . S
C855 C572 1.544 . S
C853 C211 1.532 . S
C873 C625 1.563 . S
C871 C1 1.565 . S
C891 C661 1.526 . S
C889 C91 1.518 . S
C907 C151 1.516 . S
C909 C721 1.559 . S
C927 C784 1.526 . S
C925 C181 1.485 . S
C945 C624 1.550 . S
C943 C80 1.555 . S
C961 C140 1.486 . S
C963 C668 1.527 . S
C981 C714 1.559 . S
C979 C200 1.514 . S
C999 C783 1.533 . S
C997 C20 1.526 . S
C1015 C271 1.524 . S
C1017 C562 1.552 . S
C1035 C519 1.542 . S
C1033 C331 1.513 . S
C1051 C380 1.548 . S
C1053 C555 1.547 . S
C1069 C421 1.539 . S
C1071 C518 1.544 . S
C1089 C730 1.563 . S
C1087 C241 1.565 . S
C1107 C774 1.526 . S
C1105 C320 1.499 . S
C1125 C608 1.559 . S
C1123 C361 1.547 . S
C1141 C440 1.505 . S
C1143 C677 1.526 . S
C1161 C731 1.550 . S
C1159 C301 1.527 . S
C1179 C767 1.527 . S
C1177 C391 1.507 . S
C1197 C615 1.559 . S
C1195 C451 1.543 . S
C1213 C260 1.526 . S
C1215 C678 1.533 . S
