# Generated by pormake.
# Topology ant, (3,6)-cn, num edge types: 1
# Building blocks:
#     Node 0, Type 0, BuildingBlock: BETDAH_clean_linker_0, # of connection points: 3
#     Node 1, Type 0, BuildingBlock: BETDAH_clean_linker_0, # of connection points: 3
#     Node 2, Type 0, BuildingBlock: BETDAH_clean_linker_0, # of connection points: 3
#     Node 3, Type 0, BuildingBlock: BETDAH_clean_linker_0, # of connection points: 3
#     Node 4, Type 0, BuildingBlock: BETDAH_clean_linker_0, # of connection points: 3
#     Node 5, Type 0, BuildingBlock: BETDAH_clean_linker_0, # of connection points: 3
#     Node 6, Type 0, BuildingBlock: BETDAH_clean_linker_0, # of connection points: 3
#     Node 7, Type 0, BuildingBlock: BETDAH_clean_linker_0, # of connection points: 3
#     Node 8, Type 1, BuildingBlock: MIDCAF_clean_sbu_0, # of connection points: 6
#     Node 9, Type 1, BuildingBlock: MIDCAF_clean_sbu_0, # of connection points: 6
#     Node 10, Type 1, BuildingBlock: MIDCAF_clean_sbu_0, # of connection points: 6
#     Node 11, Type 1, BuildingBlock: MIDCAF_clean_sbu_0, # of connection points: 6
#     Edge 12, Type (0, 1), BuildingBlock: KIFKEQ_clean_linker_1, # of connection points: 2
#     Edge 13, Type (0, 1), BuildingBlock: KIFKEQ_clean_linker_1, # of connection points: 2
#     Edge 14, Type (0, 1), BuildingBlock: KIFKEQ_clean_linker_1, # of connection points: 2
#     Edge 15, Type (0, 1), BuildingBlock: KIFKEQ_clean_linker_1, # of connection points: 2
#     Edge 16, Type (0, 1), BuildingBlock: KIFKEQ_clean_linker_1, # of connection points: 2
#     Edge 17, Type (0, 1), BuildingBlock: KIFKEQ_clean_linker_1, # of connection points: 2
#     Edge 18, Type (0, 1), BuildingBlock: KIFKEQ_clean_linker_1, # of connection points: 2
#     Edge 19, Type (0, 1), BuildingBlock: KIFKEQ_clean_linker_1, # of connection points: 2
#     Edge 20, Type (0, 1), BuildingBlock: KIFKEQ_clean_linker_1, # of connection points: 2
#     Edge 21, Type (0, 1), BuildingBlock: KIFKEQ_clean_linker_1, # of connection points: 2
#     Edge 22, Type (0, 1), BuildingBlock: KIFKEQ_clean_linker_1, # of connection points: 2
#     Edge 23, Type (0, 1), BuildingBlock: KIFKEQ_clean_linker_1, # of connection points: 2
#     Edge 24, Type (0, 1), BuildingBlock: KIFKEQ_clean_linker_1, # of connection points: 2
#     Edge 25, Type (0, 1), BuildingBlock: KIFKEQ_clean_linker_1, # of connection points: 2
#     Edge 26, Type (0, 1), BuildingBlock: KIFKEQ_clean_linker_1, # of connection points: 2
#     Edge 27, Type (0, 1), BuildingBlock: KIFKEQ_clean_linker_1, # of connection points: 2
#     Edge 28, Type (0, 1), BuildingBlock: KIFKEQ_clean_linker_1, # of connection points: 2
#     Edge 29, Type (0, 1), BuildingBlock: KIFKEQ_clean_linker_1, # of connection points: 2
#     Edge 30, Type (0, 1), BuildingBlock: KIFKEQ_clean_linker_1, # of connection points: 2
#     Edge 31, Type (0, 1), BuildingBlock: KIFKEQ_clean_linker_1, # of connection points: 2
#     Edge 32, Type (0, 1), BuildingBlock: KIFKEQ_clean_linker_1, # of connection points: 2
#     Edge 33, Type (0, 1), BuildingBlock: KIFKEQ_clean_linker_1, # of connection points: 2
#     Edge 34, Type (0, 1), BuildingBlock: KIFKEQ_clean_linker_1, # of connection points: 2
#     Edge 35, Type (0, 1), BuildingBlock: KIFKEQ_clean_linker_1, # of connection points: 2
# Relax obj value: 0.057
# Max RMSD: 0.149
# Mean RMSD: 0.092
data_MOF--net-ant--node1-MIDCAF_clean_sbu_0--node2-BETDAH_clean_linker_0--edge1-KIFKEQ_clean_linker_1
_symmetry_space_group_name_H-M    P1
_symmetry_Int_Tables_number       1
_symmetry_cell_setting            triclinic
loop_
_symmetry_equiv_pos_as_xyz
'x, y, z'
_cell_length_a     29.578421
_cell_length_b     29.286461
_cell_length_c     71.295836
_cell_angle_alpha  94.03521
_cell_angle_beta   98.150984
_cell_angle_gamma 89.759268
loop_
_atom_site_label
_atom_site_type_symbol
_atom_site_fract_x
_atom_site_fract_y
_atom_site_fract_z
_atom_type_partial_charge
H0 H 0.15203 0.30986 0.03732 0.0
H1 H 0.20036 0.18339 0.06032 0.0
H2 H 0.19457 0.30493 0.09732 0.0
C3 C 0.16481 0.29046 0.04934 0.0
C4 C 0.17127 0.31267 0.06762 0.0
C5 C 0.17489 0.24356 0.04654 0.0
C6 C 0.19249 0.21937 0.06234 0.0
C7 C 0.19986 0.24158 0.08069 0.0
C8 C 0.18887 0.28793 0.08317 0.0
N9 N 0.21869 0.21866 0.09692 0.0
C10 C 0.22602 0.17171 0.09687 0.0
H11 H 0.19423 0.76928 0.30598 0.0
H12 H 0.05302 0.80478 0.30615 0.0
H13 H 0.1498 0.82761 0.35715 0.0
C14 C 0.16693 0.78239 0.31348 0.0
C15 C 0.17717 0.79736 0.3327 0.0
C16 C 0.12242 0.78512 0.30372 0.0
C17 C 0.08752 0.80281 0.31354 0.0
C18 C 0.09737 0.81803 0.33289 0.0
C19 C 0.14238 0.81617 0.34224 0.0
N20 N 0.06282 0.83508 0.34338 0.0
C21 C 0.0168 0.82381 0.33863 0.0
H22 H 0.70007 0.81732 0.54201 0.0
H23 H 0.73636 0.68709 0.56405 0.0
H24 H 0.73302 0.80654 0.60235 0.0
C25 C 0.70964 0.79698 0.55406 0.0
C26 C 0.71532 0.81819 0.57255 0.0
C27 C 0.71697 0.74968 0.55093 0.0
C28 C 0.73005 0.72332 0.5665 0.0
C29 C 0.73661 0.74423 0.58507 0.0
C30 C 0.72879 0.7912 0.58792 0.0
N31 N 0.75199 0.71963 0.60124 0.0
C32 C 0.75811 0.67252 0.60086 0.0
H33 H 0.68846 0.32714 0.80212 0.0
H34 H 0.54901 0.29182 0.80497 0.0
H35 H 0.64572 0.30726 0.85619 0.0
C36 C 0.66172 0.32083 0.81057 0.0
C37 C 0.67269 0.31942 0.83034 0.0
C38 C 0.61734 0.31091 0.80135 0.0
C39 C 0.58312 0.30003 0.8121 0.0
C40 C 0.59337 0.29914 0.83198 0.0
C41 C 0.63807 0.30854 0.84091 0.0
N42 N 0.5601 0.28772 0.84342 0.0
C43 C 0.51343 0.28449 0.83721 0.0
H44 H 0.04333 0.62038 0.94125 0.0
H45 H 0.08371 0.76061 0.93969 0.0
H46 H 0.03694 0.68036 0.88761 0.0
C47 C 0.04779 0.64962 0.93315 0.0
C48 C 0.03705 0.64552 0.91332 0.0
C49 C 0.06479 0.69073 0.94273 0.0
C50 C 0.07061 0.72876 0.93231 0.0
C51 C 0.06086 0.72489 0.91233 0.0
C52 C 0.04439 0.68319 0.90298 0.0
N53 N 0.06794 0.76164 0.90107 0.0
C54 C 0.07824 0.80654 0.908 0.0
H55 H 0.5726 0.82397 0.19959 0.0
H56 H 0.71463 0.79613 0.19669 0.0
H57 H 0.62101 0.80965 0.14547 0.0
C58 C 0.60068 0.81947 0.19139 0.0
C59 C 0.59168 0.81896 0.17151 0.0
C60 C 0.64485 0.81069 0.20061 0.0
C61 C 0.68057 0.80293 0.1897 0.0
C62 C 0.67195 0.80295 0.16977 0.0
C63 C 0.62755 0.81048 0.16085 0.0
N64 N 0.70659 0.79407 0.15815 0.0
C65 C 0.75306 0.79309 0.16476 0.0
H66 H 0.54339 0.11924 0.44172 0.0
H67 H 0.57501 0.26177 0.43966 0.0
H68 H 0.52228 0.18119 0.38832 0.0
C69 C 0.54478 0.14906 0.43361 0.0
C70 C 0.53034 0.14527 0.41398 0.0
C71 C 0.56117 0.19067 0.44294 0.0
C72 C 0.56272 0.22946 0.43245 0.0
C73 C 0.54882 0.22604 0.41265 0.0
C74 C 0.53292 0.18383 0.40355 0.0
N75 N 0.55014 0.26396 0.40133 0.0
C76 C 0.56725 0.30739 0.40774 0.0
H77 H 0.08288 0.30389 0.69708 0.0
H78 H 0.22264 0.26714 0.69329 0.0
H79 H 0.12953 0.288 0.64265 0.0
C80 C 0.11051 0.29779 0.68874 0.0
C81 C 0.10131 0.29868 0.66891 0.0
C82 C 0.15404 0.28579 0.6977 0.0
C83 C 0.189 0.27633 0.68656 0.0
C84 C 0.18011 0.27743 0.66668 0.0
C85 C 0.13625 0.28787 0.658 0.0
N86 N 0.21404 0.26676 0.65492 0.0
C87 C 0.26061 0.27019 0.66114 0.0
Zn88 Zn 0.21727 0.70164 0.14112 0.0
Zn89 Zn 0.0986 0.8001 0.10795 0.0
Zn90 Zn 0.1587 0.74813 0.12457 0.0
C91 C 0.10213 0.72271 0.08337 0.0
C92 C 0.17896 0.8482 0.11048 0.0
O93 O 0.13931 0.74076 0.15322 0.0
O94 O 0.20654 0.71981 0.16736 0.0
C95 C 0.17038 0.64068 0.11491 0.0
O96 O 0.13416 0.71217 0.09657 0.0
O97 O 0.07857 0.75817 0.0856 0.0
O98 O 0.13757 0.85118 0.1035 0.0
O99 O 0.19338 0.81283 0.11931 0.0
O100 O 0.19488 0.64079 0.13088 0.0
O101 O 0.15702 0.6791 0.10824 0.0
O102 O 0.22657 0.78373 0.12801 0.0
O103 O 0.27319 0.72536 0.13299 0.0
C104 C 0.26722 0.76692 0.12986 0.0
O105 O 0.10173 0.76046 0.14208 0.0
O106 O 0.05689 0.81063 0.1268 0.0
C107 C 0.16618 0.73265 0.16849 0.0
C108 C 0.06584 0.786 0.14061 0.0
Zn109 Zn 0.56758 0.67406 0.35346 0.0
Zn110 Zn 0.66208 0.79029 0.39625 0.0
Zn111 Zn 0.61254 0.73073 0.37443 0.0
C112 C 0.57602 0.82819 0.39057 0.0
C113 C 0.70466 0.78024 0.36453 0.0
O114 O 0.61667 0.66276 0.38735 0.0
O115 O 0.60066 0.61784 0.36113 0.0
C116 C 0.50476 0.72876 0.36819 0.0
O117 O 0.56845 0.79069 0.38 0.0
O118 O 0.61469 0.83603 0.4002 0.0
O119 O 0.7073 0.8051 0.37981 0.0
O120 O 0.67185 0.75071 0.36007 0.0
O121 O 0.50839 0.68692 0.36307 0.0
O122 O 0.54065 0.75452 0.37103 0.0
O123 O 0.63766 0.72987 0.34657 0.0
O124 O 0.57588 0.70006 0.3292 0.0
C125 C 0.61341 0.72101 0.33024 0.0
O126 O 0.63753 0.69685 0.4009 0.0
O127 O 0.68239 0.75072 0.41696 0.0
C128 C 0.61433 0.62236 0.37875 0.0
C129 C 0.66524 0.71109 0.41575 0.0
Zn130 Zn 0.60723 0.30283 0.60613 0.0
Zn131 Zn 0.72369 0.2093 0.64352 0.0
Zn132 Zn 0.66805 0.25319 0.62359 0.0
C133 C 0.77561 0.27152 0.63032 0.0
C134 C 0.68089 0.14594 0.61681 0.0
O135 O 0.60914 0.26668 0.63992 0.0
O136 O 0.56465 0.31683 0.62449 0.0
C137 C 0.688 0.35066 0.6075 0.0
O138 O 0.73537 0.28875 0.62688 0.0
O139 O 0.78044 0.23128 0.63546 0.0
O140 O 0.70038 0.14798 0.63378 0.0
O141 O 0.66997 0.18331 0.60877 0.0
O142 O 0.64656 0.35232 0.60036 0.0
O143 O 0.70267 0.31683 0.61727 0.0
O144 O 0.6449 0.21389 0.59626 0.0
O145 O 0.58758 0.25738 0.58489 0.0
C146 C 0.61194 0.22229 0.58311 0.0
O147 O 0.64622 0.25069 0.65211 0.0
O148 O 0.7114 0.23288 0.669 0.0
C149 C 0.57317 0.2921 0.6383 0.0
C150 C 0.6707 0.24627 0.66833 0.0
Zn151 Zn 0.04285 0.17306 0.84744 0.0
Zn152 Zn 0.1597 0.28254 0.89095 0.0
Zn153 Zn 0.10193 0.22725 0.86986 0.0
C154 C 0.15494 0.20501 0.91099 0.0
C155 C 0.07748 0.32807 0.88724 0.0
O156 O 0.12676 0.21725 0.84195 0.0
O157 O 0.073 0.1744 0.82444 0.0
C158 C 0.07442 0.12489 0.87917 0.0
O159 O 0.12404 0.19409 0.89673 0.0
O160 O 0.17831 0.24106 0.91125 0.0
O161 O 0.11711 0.33226 0.89643 0.0
O162 O 0.06616 0.29183 0.8763 0.0
O163 O 0.04852 0.12035 0.86347 0.0
O164 O 0.09702 0.16242 0.88408 0.0
O165 O 0.03459 0.26228 0.86552 0.0
O166 O 0.98844 0.21231 0.84754 0.0
C167 C 0.99482 0.25084 0.85659 0.0
O168 O 0.16205 0.23915 0.85484 0.0
O169 O 0.20305 0.29274 0.87308 0.0
C170 C 0.10944 0.19743 0.82583 0.0
C171 C 0.197 0.2663 0.8582 0.0
H172 H 0.20417 0.38558 0.05159 0.0
H173 H 0.11339 0.3503 0.09065 0.0
H174 H 0.19398 0.46701 0.0603 0.0
H175 H 0.10111 0.43124 0.09869 0.0
H176 H 0.15484 0.56387 0.13144 0.0
H177 H 0.14705 0.4865 0.11738 0.0
H178 H 0.14868 0.53601 0.06175 0.0
H179 H 0.15843 0.6146 0.07635 0.0
C180 C 0.18116 0.39542 0.0617 0.0
C181 C 0.16014 0.36183 0.07071 0.0
C182 C 0.17502 0.44205 0.06661 0.0
C183 C 0.14727 0.45593 0.08046 0.0
C184 C 0.12374 0.422 0.08838 0.0
C185 C 0.13055 0.37558 0.08373 0.0
C186 C 0.15287 0.5585 0.11615 0.0
C187 C 0.15733 0.59546 0.105 0.0
C188 C 0.14792 0.5139 0.108 0.0
C189 C 0.14707 0.5046 0.08835 0.0
C190 C 0.14953 0.54182 0.07697 0.0
C191 C 0.15447 0.58694 0.08524 0.0
H192 H 0.97974 0.75165 0.35202 0.0
H193 H 0.94678 0.86993 0.32014 0.0
H194 H 0.89863 0.73737 0.35241 0.0
H195 H 0.86512 0.85536 0.32001 0.0
H196 H 0.74446 0.85777 0.35621 0.0
H197 H 0.81748 0.86437 0.34465 0.0
H198 H 0.82353 0.71702 0.33596 0.0
H199 H 0.75055 0.71071 0.34814 0.0
C200 C 0.95482 0.77385 0.34467 0.0
C201 C 0.96898 0.81187 0.33612 0.0
C202 C 0.90834 0.76556 0.34475 0.0
C203 C 0.87519 0.79531 0.33629 0.0
C204 C 0.88971 0.83209 0.32684 0.0
C205 C 0.9363 0.84036 0.32682 0.0
C206 C 0.7608 0.82689 0.35128 0.0
C207 C 0.74185 0.78376 0.35294 0.0
C208 C 0.80262 0.83061 0.34456 0.0
C209 C 0.82671 0.7912 0.3395 0.0
C210 C 0.80615 0.74805 0.33996 0.0
C211 C 0.76413 0.74438 0.3467 0.0
H212 H 0.77808 0.61028 0.57344 0.0
H213 H 0.74827 0.62569 0.63098 0.0
H214 H 0.77838 0.5268 0.57474 0.0
H215 H 0.74751 0.54257 0.63233 0.0
H216 H 0.75546 0.39214 0.63346 0.0
H217 H 0.78732 0.46884 0.63186 0.0
H218 H 0.716 0.47414 0.57478 0.0
H219 H 0.68509 0.39824 0.57639 0.0
C220 C 0.77217 0.59561 0.58642 0.0
C221 C 0.76273 0.62378 0.60206 0.0
C222 C 0.77233 0.54798 0.5872 0.0
C223 C 0.76284 0.52793 0.60363 0.0
C224 C 0.75566 0.55672 0.61957 0.0
C225 C 0.75556 0.60425 0.61876 0.0
C226 C 0.74816 0.40919 0.62038 0.0
C227 C 0.71746 0.3897 0.60513 0.0
C228 C 0.76594 0.45322 0.61951 0.0
C229 C 0.75364 0.47794 0.60329 0.0
C230 C 0.72649 0.45621 0.58744 0.0
C231 C 0.70852 0.41271 0.58839 0.0
H232 H 0.73578 0.38158 0.82285 0.0
H233 H 0.71958 0.27045 0.85816 0.0
H234 H 0.8182 0.38086 0.83288 0.0
H235 H 0.8017 0.27044 0.86841 0.0
H236 H 0.95204 0.28066 0.88656 0.0
H237 H 0.87421 0.31171 0.88429 0.0
H238 H 0.8713 0.31876 0.82381 0.0
H239 H 0.94807 0.28721 0.82616 0.0
C240 C 0.74966 0.35755 0.83301 0.0
C241 C 0.7211 0.32546 0.8394 0.0
C242 C 0.79682 0.35737 0.83882 0.0
C243 C 0.81646 0.32537 0.8513 0.0
C244 C 0.78757 0.29587 0.85894 0.0
C245 C 0.7404 0.29583 0.85302 0.0
C246 C 0.93517 0.2906 0.87298 0.0
C247 C 0.95564 0.28179 0.85652 0.0
C248 C 0.89065 0.30796 0.87163 0.0
C249 C 0.86653 0.31736 0.85385 0.0
C250 C 0.88901 0.31233 0.83773 0.0
C251 C 0.93294 0.29425 0.83904 0.0
H252 H 0.06632 0.60044 0.88236 0.0
H253 H 0.97228 0.58882 0.92294 0.0
H254 H 0.0547 0.51952 0.8722 0.0
H255 H 0.96124 0.50769 0.91295 0.0
H256 H 0.0317 0.37092 0.85764 0.0
H257 H 0.00243 0.44954 0.85953 0.0
H258 H 0.0264 0.45181 0.92079 0.0
H259 H 0.05656 0.37449 0.9188 0.0
C260 C 0.04188 0.58105 0.88861 0.0
C261 C 0.02108 0.60062 0.90376 0.0
C262 C 0.03508 0.5347 0.88274 0.0
C263 C 0.00751 0.50724 0.89199 0.0
C264 C 0.98302 0.528 0.90574 0.0
C265 C 0.98961 0.57431 0.91152 0.0
C266 C 0.02885 0.38779 0.87144 0.0
C267 C 0.04649 0.36718 0.8881 0.0
C268 C 0.01242 0.43271 0.87252 0.0
C269 C 0.01246 0.45683 0.89029 0.0
C270 C 0.02554 0.43402 0.90689 0.0
C271 C 0.04291 0.3898 0.90579 0.0
H272 H 0.80797 0.86133 0.15912 0.0
H273 H 0.80789 0.72528 0.17851 0.0
H274 H 0.89045 0.85835 0.16003 0.0
H275 H 0.89129 0.72225 0.18011 0.0
H276 H 0.01411 0.71247 0.14443 0.0
H277 H 0.94107 0.71421 0.15656 0.0
H278 H 0.96515 0.85597 0.17675 0.0
H279 H 0.03729 0.85427 0.16371 0.0
C280 C 0.8261 0.8313 0.16415 0.0
C281 C 0.80215 0.79357 0.16873 0.0
C282 C 0.87345 0.82958 0.16483 0.0
C283 C 0.8978 0.78996 0.17014 0.0
C284 C 0.87366 0.75307 0.17575 0.0
C285 C 0.82608 0.75482 0.17497 0.0
C286 C 0.0044 0.74337 0.15212 0.0
C287 C 0.03109 0.78317 0.15327 0.0
C288 C 0.96254 0.74449 0.15911 0.0
C289 C 0.94668 0.78553 0.16735 0.0
C290 C 0.97577 0.82409 0.17009 0.0
C291 C 0.0173 0.82308 0.16286 0.0
H292 H 0.65155 0.33774 0.4048 0.0
H293 H 0.51871 0.38208 0.41655 0.0
H294 H 0.67451 0.41754 0.40331 0.0
H295 H 0.54107 0.46194 0.41484 0.0
H296 H 0.59379 0.6052 0.41396 0.0
H297 H 0.59079 0.5296 0.42667 0.0
H298 H 0.64906 0.46917 0.37856 0.0
H299 H 0.65196 0.54399 0.36609 0.0
C300 C 0.62777 0.36479 0.40757 0.0
C301 C 0.58352 0.35417 0.41081 0.0
C302 C 0.64073 0.41041 0.40663 0.0
C303 C 0.60952 0.4462 0.4088 0.0
C304 C 0.56615 0.43539 0.41331 0.0
C305 C 0.55322 0.3897 0.41422 0.0
C306 C 0.60742 0.5759 0.40653 0.0
C307 C 0.62302 0.58035 0.38903 0.0
C308 C 0.60525 0.53257 0.41368 0.0
C309 C 0.61937 0.4932 0.40357 0.0
C310 C 0.6383 0.4986 0.38685 0.0
C311 C 0.63982 0.54154 0.37963 0.0
H312 H 0.0518 0.24767 0.63987 0.0
H313 H 0.04493 0.36936 0.67709 0.0
H314 H 0.97208 0.25634 0.62699 0.0
H315 H 0.9652 0.37976 0.66358 0.0
H316 H 0.8146 0.32793 0.65936 0.0
H317 H 0.89561 0.34597 0.66603 0.0
H318 H 0.91242 0.29266 0.60927 0.0
H319 H 0.83142 0.27214 0.60329 0.0
C320 C 0.0334 0.27706 0.6449 0.0
C321 C 0.05435 0.30759 0.65958 0.0
C322 C 0.98762 0.28239 0.6374 0.0
C323 C 0.9617 0.31883 0.6442 0.0
C324 C 0.98362 0.35082 0.65821 0.0
C325 C 0.02932 0.34499 0.66593 0.0
C326 C 0.8354 0.32203 0.64807 0.0
C327 C 0.81711 0.29892 0.63082 0.0
C328 C 0.88204 0.33223 0.65187 0.0
C329 C 0.91117 0.31969 0.63837 0.0
C330 C 0.89142 0.3015 0.62024 0.0
C331 C 0.84488 0.29052 0.61662 0.0
H332 H 0.32286 0.2124 0.67806 0.0
H333 H 0.30715 0.34133 0.6523 0.0
H334 H 0.4062 0.21897 0.68016 0.0
H335 H 0.38948 0.34768 0.65369 0.0
H336 H 0.53536 0.36118 0.65806 0.0
H337 H 0.46329 0.35758 0.67094 0.0
H338 H 0.45754 0.21129 0.65722 0.0
H339 H 0.53054 0.21512 0.64529 0.0
C340 C 0.33752 0.24248 0.67318 0.0
C341 C 0.30929 0.27641 0.66502 0.0
C342 C 0.38504 0.24621 0.67427 0.0
C343 C 0.40475 0.2838 0.66706 0.0
C344 C 0.37591 0.31869 0.65975 0.0
C345 C 0.32866 0.31499 0.65877 0.0
C346 C 0.51939 0.32815 0.65857 0.0
C347 C 0.53821 0.28841 0.6508 0.0
C348 C 0.47795 0.32604 0.66574 0.0
C349 C 0.45396 0.28431 0.66471 0.0
C350 C 0.47501 0.24399 0.6584 0.0
C351 C 0.51683 0.24608 0.65151 0.0
H352 H 0.54707 0.76238 0.14312 0.0
H353 H 0.52899 0.88482 0.17849 0.0
H354 H 0.46708 0.76345 0.12977 0.0
H355 H 0.44877 0.8877 0.16443 0.0
H356 H 0.30112 0.82732 0.1586 0.0
H357 H 0.3809 0.8503 0.16625 0.0
H358 H 0.40584 0.79318 0.11101 0.0
H359 H 0.32649 0.76739 0.10421 0.0
C360 C 0.52608 0.79032 0.14764 0.0
C361 C 0.54413 0.82335 0.1619 0.0
C362 C 0.48007 0.79127 0.13986 0.0
C363 C 0.4509 0.82576 0.14592 0.0
C364 C 0.46972 0.86013 0.1596 0.0
C365 C 0.51572 0.85866 0.16763 0.0
C366 C 0.32342 0.82142 0.14786 0.0
C367 C 0.308 0.79577 0.13085 0.0
C368 C 0.36937 0.83447 0.15222 0.0
C369 C 0.40056 0.82253 0.13948 0.0
C370 C 0.3834 0.80156 0.12148 0.0
C371 C 0.33774 0.78754 0.11737 0.0
H372 H 0.45623 0.35042 0.84648 0.0
H373 H 0.46068 0.21363 0.82031 0.0
H374 H 0.37381 0.34405 0.84522 0.0
H375 H 0.37739 0.20713 0.81839 0.0
H376 H 0.22626 0.33471 0.83919 0.0
H377 H 0.29989 0.33852 0.82756 0.0
H378 H 0.32617 0.19829 0.84098 0.0
H379 H 0.25165 0.19438 0.85174 0.0
C380 C 0.4391 0.31941 0.83996 0.0
C381 C 0.46427 0.28254 0.8335 0.0
C382 C 0.39179 0.31574 0.83908 0.0
C383 C 0.36866 0.275 0.83167 0.0
C384 C 0.39404 0.23879 0.82436 0.0
C385 C 0.44157 0.24252 0.82533 0.0
C386 C 0.24714 0.30425 0.83886 0.0
C387 C 0.23343 0.26417 0.84616 0.0
C388 C 0.28953 0.3065 0.83244 0.0
C389 C 0.31956 0.26905 0.83371 0.0
C390 C 0.304 0.22774 0.83963 0.0
C391 C 0.26129 0.22537 0.84581 0.0
H392 H 0.22543 0.71889 0.33355 0.0
H393 H 0.23455 0.86127 0.35391 0.0
H394 H 0.30477 0.70805 0.34667 0.0
H395 H 0.31495 0.85042 0.36738 0.0
H396 H 0.46975 0.81196 0.35831 0.0
H397 H 0.38883 0.83322 0.35402 0.0
H398 H 0.35527 0.70688 0.37683 0.0
H399 H 0.43553 0.6856 0.38075 0.0
C400 C 0.24445 0.74777 0.34108 0.0
C401 C 0.22401 0.79091 0.34266 0.0
C402 C 0.28984 0.74154 0.34875 0.0
C403 C 0.31618 0.77834 0.35818 0.0
C404 C 0.29552 0.82147 0.36016 0.0
C405 C 0.24958 0.82761 0.35259 0.0
C406 C 0.44517 0.78965 0.363 0.0
C407 C 0.45872 0.74703 0.36969 0.0
C408 C 0.39884 0.80171 0.36051 0.0
C409 C 0.36556 0.77127 0.36474 0.0
C410 C 0.37993 0.73058 0.37304 0.0
C411 C 0.4259 0.71846 0.37535 0.0
H412 H 0.76507 0.87804 0.59861 0.0
H413 H 0.64915 0.87259 0.5541 0.0
H414 H 0.74916 0.95812 0.60649 0.0
H415 H 0.63456 0.95396 0.56169 0.0
H416 H 0.68165 0.11938 0.57883 0.0
H417 H 0.68604 0.04005 0.56512 0.0
H418 H 0.67006 0.98996 0.61927 0.0
H419 H 0.66487 0.06805 0.63273 0.0
C420 C 0.73622 0.89381 0.59046 0.0
C421 C 0.70788 0.86838 0.57596 0.0
C422 C 0.72741 0.93983 0.59488 0.0
C423 C 0.69049 0.96194 0.58476 0.0
C424 C 0.66335 0.93758 0.56963 0.0
C425 C 0.67183 0.89108 0.56531 0.0
C426 C 0.67743 0.09135 0.58753 0.0
C427 C 0.67331 0.09992 0.60687 0.0
C428 C 0.68022 0.04608 0.57975 0.0
C429 C 0.67912 0.00917 0.59129 0.0
C430 C 0.67162 0.01788 0.61017 0.0
C431 C 0.66861 0.06262 0.61784 0.0
H432 H 0.28563 0.12733 0.12148 0.0
H433 H 0.17772 0.10684 0.07426 0.0
H434 H 0.29009 0.0443 0.12436 0.0
H435 H 0.18103 0.02444 0.0772 0.0
H436 H 0.19981 0.87859 0.078 0.0
H437 H 0.22406 0.95618 0.07372 0.0
H438 H 0.24361 0.98555 0.13462 0.0
H439 H 0.22123 0.90694 0.13873 0.0
C440 C 0.26328 0.10481 0.1116 0.0
C441 C 0.23144 0.12289 0.09762 0.0
C442 C 0.26565 0.05742 0.11328 0.0
C443 C 0.23614 0.0275 0.10096 0.0
C444 C 0.20506 0.04614 0.08667 0.0
C445 C 0.20279 0.09336 0.08503 0.0
C446 C 0.21142 0.90111 0.09045 0.0
C447 C 0.20887 0.88706 0.10867 0.0
C448 C 0.2246 0.94576 0.08803 0.0
C449 C 0.23443 0.9776 0.10379 0.0
C450 C 0.23629 0.96203 0.12215 0.0
C451 C 0.2237 0.91694 0.12456 0.0
H452 H 0.56003 0.10019 0.38324 0.0
H453 H 0.46732 0.08775 0.4242 0.0
H454 H 0.55039 0.01881 0.37362 0.0
H455 H 0.45698 0.00643 0.41443 0.0
H456 H 0.54441 0.87104 0.42073 0.0
H457 H 0.51427 0.94829 0.42207 0.0
H458 H 0.50617 0.94926 0.36109 0.0
H459 H 0.5367 0.87129 0.35993 0.0
C460 C 0.53621 0.08038 0.38965 0.0
C461 C 0.51514 0.09994 0.4047 0.0
C462 C 0.53049 0.03372 0.3841 0.0
C463 C 0.50346 0.00591 0.39349 0.0
C464 C 0.47867 0.02673 0.40717 0.0
C465 C 0.48457 0.07323 0.41276 0.0
C466 C 0.53401 0.88697 0.40754 0.0
C467 C 0.54251 0.86535 0.39024 0.0
C468 C 0.51673 0.93134 0.40826 0.0
C469 C 0.50834 0.95527 0.39169 0.0
C470 C 0.51273 0.93187 0.37411 0.0
C471 C 0.5296 0.8871 0.3734 0.0
H472 H 0.14697 0.85552 0.89833 0.0
H473 H 0.02593 0.86651 0.92557 0.0
H474 H 0.15068 0.93891 0.89814 0.0
H475 H 0.02974 0.95013 0.92576 0.0
H476 H 0.00626 0.0687 0.88446 0.0
H477 H 0.01279 0.99502 0.89811 0.0
H478 H 0.15777 0.01742 0.91443 0.0
H479 H 0.15089 0.09215 0.90056 0.0
C480 C 0.12212 0.87607 0.90487 0.0
C481 C 0.08612 0.85509 0.91191 0.0
C482 C 0.12431 0.9238 0.90487 0.0
C483 C 0.09026 0.95123 0.91179 0.0
C484 C 0.0562 0.92996 0.92014 0.0
C485 C 0.05407 0.88222 0.92013 0.0
C486 C 0.03936 0.05846 0.89141 0.0
C487 C 0.07813 0.08584 0.89131 0.0
C488 C 0.0431 0.01629 0.89938 0.0
C489 C 0.08587 1.00009 0.90728 0.0
C490 C 0.12439 0.02885 0.90832 0.0
C491 C 0.12046 0.07168 0.90052 0.0
H492 H 0.23094 0.18142 0.03078 0.0
H493 H 0.10341 0.25294 0.01818 0.0
H494 H 0.22361 0.14979 0.99792 0.0
H495 H 0.09713 0.22309 0.98521 0.0
H496 H 0.08599 0.16783 0.92684 0.0
H497 H 0.0878 0.16009 0.9609 0.0
H498 H 0.23328 0.18599 0.96964 0.0
H499 H 0.23131 0.19292 0.93585 0.0
C500 C 0.20094 0.18982 0.0211 0.0
C501 C 0.16812 0.22036 0.02706 0.0
C502 C 0.19688 0.17185 0.00222 0.0
C503 C 0.15997 0.18408 0.98884 0.0
C504 C 0.12579 0.21243 0.99511 0.0
C505 C 0.1298 0.23029 0.01397 0.0
C506 C 0.11861 0.16954 0.93596 0.0
C507 C 0.15841 0.18173 0.92882 0.0
C508 C 0.11959 0.16578 0.95551 0.0
C509 C 0.16046 0.17375 0.9681 0.0
C510 C 0.20116 0.17971 0.96047 0.0
C511 C 0.20009 0.18372 0.94104 0.0
H512 H 0.07494 0.83069 0.27489 0.0
H513 H 0.15165 0.70734 0.28611 0.0
H514 H 0.07675 0.81478 0.24071 0.0
H515 H 0.15428 0.69234 0.25219 0.0
H516 H 0.22131 0.74709 0.20206 0.0
H517 H 0.20003 0.75491 0.23382 0.0
H518 H 0.05768 0.74154 0.21035 0.0
H519 H 0.07944 0.73073 0.17829 0.0
C520 C 0.0909 0.79954 0.27003 0.0
C521 C 0.11393 0.77069 0.28315 0.0
C522 C 0.09194 0.79053 0.25052 0.0
C523 C 0.11612 0.75269 0.244 0.0
C524 C 0.13576 0.72192 0.25697 0.0
C525 C 0.13441 0.73065 0.27634 0.0
C526 C 0.18541 0.74566 0.20356 0.0
C527 C 0.1518 0.73923 0.18755 0.0
C528 C 0.17331 0.75018 0.22176 0.0
C529 C 0.12731 0.74881 0.22443 0.0
C530 C 0.09338 0.74312 0.20855 0.0
C531 C 0.10569 0.7377 0.19023 0.0
H532 H 0.66653 0.67441 0.53535 0.0
H533 H 0.75851 0.77772 0.52225 0.0
H534 H 0.65618 0.644 0.50193 0.0
H535 H 0.74855 0.74772 0.48924 0.0
H536 H 0.74705 0.68655 0.43384 0.0
H537 H 0.76338 0.67981 0.46802 0.0
H538 H 0.61875 0.67712 0.47121 0.0
H539 H 0.60264 0.68272 0.43684 0.0
C540 C 0.68499 0.69008 0.52536 0.0
C541 C 0.71302 0.7286 0.53125 0.0
C542 C 0.67905 0.67277 0.50631 0.0
C543 C 0.7019 0.69312 0.493 0.0
C544 C 0.73113 0.73062 0.49918 0.0
C545 C 0.73645 0.74823 0.51803 0.0
C546 C 0.71885 0.68174 0.4417 0.0
C547 C 0.67366 0.68529 0.43282 0.0
C548 C 0.72814 0.67848 0.4613 0.0
C549 C 0.69235 0.6794 0.47235 0.0
C550 C 0.64705 0.67647 0.46308 0.0
C551 C 0.63777 0.67933 0.44337 0.0
H552 H 0.63715 0.37566 0.7782 0.0
H553 H 0.57984 0.24015 0.77723 0.0
H554 H 0.64001 0.36521 0.74414 0.0
H555 H 0.58355 0.22911 0.74313 0.0
H556 H 0.5874 0.22838 0.67906 0.0
H557 H 0.56197 0.25089 0.70975 0.0
H558 H 0.69284 0.31609 0.72885 0.0
H559 H 0.71697 0.295 0.69826 0.0
C560 C 0.62425 0.34402 0.77057 0.0
C561 C 0.60882 0.3085 0.78032 0.0
C562 C 0.62605 0.33791 0.75111 0.0
C563 C 0.61292 0.29597 0.74103 0.0
C564 C 0.59378 0.26186 0.75047 0.0
C565 C 0.59168 0.26813 0.76999 0.0
C566 C 0.60984 0.24877 0.68967 0.0
C567 C 0.65366 0.26073 0.68625 0.0
C568 C 0.59566 0.2611 0.70729 0.0
C569 C 0.62519 0.28577 0.72167 0.0
C570 C 0.66881 0.29805 0.71799 0.0
C571 C 0.68289 0.28553 0.70054 0.0
H572 H 0.03522 0.75363 0.96818 0.0
H573 H 0.11764 0.63225 0.96439 0.0
H574 H 0.04483 0.75148 0.00277 0.0
H575 H 0.12728 0.63003 0.99902 0.0
H576 H 0.16975 0.69117 0.0637 0.0
H577 H 0.16308 0.67927 0.02906 0.0
H578 H 0.01697 0.69574 0.02484 0.0
H579 H 0.0236 0.70706 0.05935 0.0
C580 C 0.05592 0.72695 0.97479 0.0
C581 C 0.07554 0.69306 0.96369 0.0
C582 C 0.06097 0.72533 0.99451 0.0
C583 C 0.08615 0.69007 0.00349 0.0
C584 C 0.10752 0.65737 0.99245 0.0
C585 C 0.10199 0.65867 0.9727 0.0
C586 C 0.13607 0.68996 0.0554 0.0
C587 C 0.09714 0.69972 0.06416 0.0
C588 C 0.1323 0.68374 0.03558 0.0
C589 C 0.08963 0.68778 0.02432 0.0
C590 C 0.05037 0.69347 0.03321 0.0
C591 C 0.05409 0.69932 0.05293 0.0
H592 H 0.69226 0.74376 0.21981 0.0
H593 H 0.61323 0.86586 0.22838 0.0
H594 H 0.69231 0.72793 0.25299 0.0
H595 H 0.61337 0.85009 0.26154 0.0
H596 H 0.55594 0.76067 0.30366 0.0
H597 H 0.57203 0.78888 0.27405 0.0
H598 H 0.71382 0.75179 0.28777 0.0
H599 H 0.6969 0.7223 0.3175 0.0
C600 C 0.67603 0.76792 0.22892 0.0
C601 C 0.65214 0.80571 0.22142 0.0
C602 C 0.6761 0.75885 0.24794 0.0
C603 C 0.65227 0.7874 0.2598 0.0
C604 C 0.63129 0.82699 0.25264 0.0
C605 C 0.63117 0.83601 0.23366 0.0
C606 C 0.59065 0.75884 0.30043 0.0
C607 C 0.6254 0.7398 0.31293 0.0
C608 C 0.59999 0.77547 0.28356 0.0
C609 C 0.64433 0.77311 0.27865 0.0
C610 C 0.67937 0.75429 0.29123 0.0
C611 C 0.66995 0.73795 0.30832 0.0
H612 H 0.61963 0.13412 0.46331 0.0
H613 H 0.53236 0.25113 0.46944 0.0
H614 H 0.63338 0.13067 0.49791 0.0
H615 H 0.54605 0.24773 0.50396 0.0
H616 H 0.53262 0.20062 0.56055 0.0
H617 H 0.52326 0.18888 0.52602 0.0
H618 H 0.66957 0.18048 0.528 0.0
H619 H 0.67894 0.19272 0.5627 0.0
C620 C 0.60386 0.15939 0.47212 0.0
C621 C 0.57483 0.19287 0.46378 0.0
C622 C 0.6117 0.15736 0.49185 0.0
C623 C 0.59008 0.18834 0.50354 0.0
C624 C 0.56242 0.22284 0.49522 0.0
C625 C 0.55506 0.22523 0.47552 0.0
C626 C 0.56267 0.19437 0.55366 0.0
C627 C 0.60648 0.19744 0.56425 0.0
C628 C 0.55736 0.18832 0.53391 0.0
C629 C 0.59575 0.18507 0.52438 0.0
C630 C 0.63943 0.18312 0.53504 0.0
C631 C 0.64477 0.18946 0.5549 0.0
H632 H 0.19872 0.21585 0.71607 0.0
H633 H 0.12489 0.34074 0.72612 0.0
H634 H 0.19706 0.19776 0.74896 0.0
H635 H 0.12276 0.3222 0.75882 0.0
H636 H 0.05508 0.22732 0.79613 0.0
H637 H 0.07587 0.25397 0.76701 0.0
H638 H 0.21765 0.22527 0.78603 0.0
H639 H 0.19621 0.19781 0.81556 0.0
C640 C 0.18336 0.24011 0.72543 0.0
C641 C 0.16119 0.27937 0.71841 0.0
C642 C 0.18247 0.22971 0.74425 0.0
C643 C 0.15927 0.25829 0.75629 0.0
C644 C 0.14037 0.2993 0.74971 0.0
C645 C 0.1414 0.30978 0.73099 0.0
C646 C 0.09072 0.2265 0.79411 0.0
C647 C 0.12422 0.21091 0.80812 0.0
C648 C 0.10267 0.24229 0.77754 0.0
C649 C 0.14842 0.24244 0.77442 0.0
C650 C 0.18215 0.22592 0.78823 0.0
C651 C 0.17009 0.21061 0.80511 0.0
loop_
_geom_bond_atom_site_label_1
_geom_bond_atom_site_label_2
_geom_bond_distance
_geom_bond_site_symmetry_2
_ccdc_geom_bond_type
H0 C3 0.929 . S
H1 C6 0.929 . S
H2 C8 0.930 . S
C3 H0 0.929 . S
C3 C4 1.398 . S
C3 C5 1.396 . S
C4 C3 1.398 . S
C4 C8 1.407 . S
C5 C3 1.396 . S
C5 C6 1.394 . S
C6 H1 0.929 . S
C6 C5 1.394 . S
C6 C7 1.382 . S
C7 C6 1.382 . S
C7 C8 1.392 . S
C7 N9 1.420 . S
C8 H2 0.930 . S
C8 C4 1.407 . S
C8 C7 1.392 . S
N9 C7 1.420 . S
N9 C10 1.244 . S
C10 N9 1.244 . S
H11 C14 0.929 . S
H12 C17 0.929 . S
H13 C19 0.930 . S
C14 H11 0.929 . S
C14 C15 1.398 . S
C14 C16 1.396 . S
C15 C14 1.398 . S
C15 C19 1.407 . S
C16 C14 1.396 . S
C16 C17 1.394 . S
C17 H12 0.929 . S
C17 C16 1.394 . S
C17 C18 1.382 . S
C18 C17 1.382 . S
C18 C19 1.392 . S
C18 N20 1.420 . S
C19 H13 0.930 . S
C19 C15 1.407 . S
C19 C18 1.392 . S
N20 C18 1.420 . S
N20 C21 1.244 . S
C21 N20 1.244 . S
H22 C25 0.929 . S
H23 C28 0.929 . S
H24 C30 0.930 . S
C25 H22 0.929 . S
C25 C26 1.398 . S
C25 C27 1.396 . S
C26 C25 1.398 . S
C26 C30 1.407 . S
C27 C25 1.396 . S
C27 C28 1.394 . S
C28 H23 0.929 . S
C28 C27 1.394 . S
C28 C29 1.382 . S
C29 C28 1.382 . S
C29 C30 1.392 . S
C29 N31 1.420 . S
C30 H24 0.930 . S
C30 C26 1.407 . S
C30 C29 1.392 . S
N31 C29 1.420 . S
N31 C32 1.244 . S
C32 N31 1.244 . S
H33 C36 0.929 . S
H34 C39 0.929 . S
H35 C41 0.930 . S
C36 H33 0.929 . S
C36 C37 1.398 . S
C36 C38 1.396 . S
C37 C36 1.398 . S
C37 C41 1.407 . S
C38 C36 1.396 . S
C38 C39 1.394 . S
C39 H34 0.929 . S
C39 C38 1.394 . S
C39 C40 1.382 . S
C40 C39 1.382 . S
C40 C41 1.392 . S
C40 N42 1.420 . S
C41 H35 0.930 . S
C41 C37 1.407 . S
C41 C40 1.392 . S
N42 C40 1.420 . S
N42 C43 1.244 . S
C43 N42 1.244 . S
H44 C47 0.929 . S
H45 C50 0.929 . S
H46 C52 0.930 . S
C47 H44 0.929 . S
C47 C48 1.398 . S
C47 C49 1.396 . S
C48 C47 1.398 . S
C48 C52 1.407 . S
C49 C47 1.396 . S
C49 C50 1.394 . S
C50 H45 0.929 . S
C50 C49 1.394 . S
C50 C51 1.382 . S
C51 C50 1.382 . S
C51 C52 1.392 . S
C51 N53 1.420 . S
C52 H46 0.930 . S
C52 C48 1.407 . S
C52 C51 1.392 . S
N53 C51 1.420 . S
N53 C54 1.244 . S
C54 N53 1.244 . S
H55 C58 0.929 . S
H56 C61 0.929 . S
H57 C63 0.930 . S
C58 H55 0.929 . S
C58 C59 1.398 . S
C58 C60 1.396 . S
C59 C58 1.398 . S
C59 C63 1.407 . S
C60 C58 1.396 . S
C60 C61 1.394 . S
C61 H56 0.929 . S
C61 C60 1.394 . S
C61 C62 1.382 . S
C62 C61 1.382 . S
C62 C63 1.392 . S
C62 N64 1.420 . S
C63 H57 0.930 . S
C63 C59 1.407 . S
C63 C62 1.392 . S
N64 C62 1.420 . S
N64 C65 1.244 . S
C65 N64 1.244 . S
H66 C69 0.929 . S
H67 C72 0.929 . S
H68 C74 0.930 . S
C69 H66 0.929 . S
C69 C70 1.398 . S
C69 C71 1.396 . S
C70 C69 1.398 . S
C70 C74 1.407 . S
C71 C69 1.396 . S
C71 C72 1.394 . S
C72 H67 0.929 . S
C72 C71 1.394 . S
C72 C73 1.382 . S
C73 C72 1.382 . S
C73 C74 1.392 . S
C73 N75 1.420 . S
C74 H68 0.930 . S
C74 C70 1.407 . S
C74 C73 1.392 . S
N75 C73 1.420 . S
N75 C76 1.244 . S
C76 N75 1.244 . S
H77 C80 0.929 . S
H78 C83 0.929 . S
H79 C85 0.930 . S
C80 H77 0.929 . S
C80 C81 1.398 . S
C80 C82 1.396 . S
C81 C80 1.398 . S
C81 C85 1.407 . S
C82 C80 1.396 . S
C82 C83 1.394 . S
C83 H78 0.929 . S
C83 C82 1.394 . S
C83 C84 1.382 . S
C84 C83 1.382 . S
C84 C85 1.392 . S
C84 N86 1.420 . S
C85 H79 0.930 . S
C85 C81 1.407 . S
C85 C84 1.392 . S
N86 C84 1.420 . S
N86 C87 1.244 . S
C87 N86 1.244 . S
Zn88 O94 1.920 . S
Zn88 O100 1.898 . S
Zn88 O103 1.905 . S
Zn89 O97 1.905 . S
Zn89 O98 1.898 . S
Zn89 O106 1.920 . S
Zn90 O93 2.080 . S
Zn90 O96 2.114 . S
Zn90 O99 2.120 . S
Zn90 O101 2.120 . S
Zn90 O102 2.114 . S
Zn90 O105 2.080 . S
C91 O96 1.166 . S
C91 O97 1.182 . S
C92 O98 1.167 . S
C92 O99 1.299 . S
O93 Zn90 2.080 . S
O93 C107 1.305 . S
O94 Zn88 1.920 . S
O94 C107 1.234 . S
C95 O100 1.167 . S
C95 O101 1.299 . S
O96 Zn90 2.114 . S
O96 C91 1.166 . S
O97 Zn89 1.905 . S
O97 C91 1.182 . S
O98 Zn89 1.898 . S
O98 C92 1.167 . S
O99 Zn90 2.120 . S
O99 C92 1.299 . S
O100 Zn88 1.898 . S
O100 C95 1.167 . S
O101 Zn90 2.120 . S
O101 C95 1.299 . S
O102 Zn90 2.114 . S
O102 C104 1.166 . S
O103 Zn88 1.905 . S
O103 C104 1.182 . S
C104 O102 1.166 . S
C104 O103 1.182 . S
O105 Zn90 2.080 . S
O105 C108 1.305 . S
O106 Zn89 1.920 . S
O106 C108 1.234 . S
C107 O93 1.305 . S
C107 O94 1.234 . S
C108 O105 1.305 . S
C108 O106 1.234 . S
Zn109 O115 1.920 . S
Zn109 O121 1.898 . S
Zn109 O124 1.905 . S
Zn110 O118 1.905 . S
Zn110 O119 1.898 . S
Zn110 O127 1.920 . S
Zn111 O114 2.080 . S
Zn111 O117 2.114 . S
Zn111 O120 2.120 . S
Zn111 O122 2.120 . S
Zn111 O123 2.114 . S
Zn111 O126 2.080 . S
C112 O117 1.166 . S
C112 O118 1.182 . S
C113 O119 1.167 . S
C113 O120 1.299 . S
O114 Zn111 2.080 . S
O114 C128 1.305 . S
O115 Zn109 1.920 . S
O115 C128 1.234 . S
C116 O121 1.167 . S
C116 O122 1.299 . S
O117 Zn111 2.114 . S
O117 C112 1.166 . S
O118 Zn110 1.905 . S
O118 C112 1.182 . S
O119 Zn110 1.898 . S
O119 C113 1.167 . S
O120 Zn111 2.120 . S
O120 C113 1.299 . S
O121 Zn109 1.898 . S
O121 C116 1.167 . S
O122 Zn111 2.120 . S
O122 C116 1.299 . S
O123 Zn111 2.114 . S
O123 C125 1.166 . S
O124 Zn109 1.905 . S
O124 C125 1.182 . S
C125 O123 1.166 . S
C125 O124 1.182 . S
O126 Zn111 2.080 . S
O126 C129 1.305 . S
O127 Zn110 1.920 . S
O127 C129 1.234 . S
C128 O114 1.305 . S
C128 O115 1.234 . S
C129 O126 1.305 . S
C129 O127 1.234 . S
Zn130 O136 1.920 . S
Zn130 O142 1.898 . S
Zn130 O145 1.905 . S
Zn131 O139 1.905 . S
Zn131 O140 1.898 . S
Zn131 O148 1.920 . S
Zn132 O135 2.080 . S
Zn132 O138 2.114 . S
Zn132 O141 2.120 . S
Zn132 O143 2.120 . S
Zn132 O144 2.114 . S
Zn132 O147 2.080 . S
C133 O138 1.166 . S
C133 O139 1.182 . S
C134 O140 1.167 . S
C134 O141 1.299 . S
O135 Zn132 2.080 . S
O135 C149 1.305 . S
O136 Zn130 1.920 . S
O136 C149 1.234 . S
C137 O142 1.167 . S
C137 O143 1.299 . S
O138 Zn132 2.114 . S
O138 C133 1.166 . S
O139 Zn131 1.905 . S
O139 C133 1.182 . S
O140 Zn131 1.898 . S
O140 C134 1.167 . S
O141 Zn132 2.120 . S
O141 C134 1.299 . S
O142 Zn130 1.898 . S
O142 C137 1.167 . S
O143 Zn132 2.120 . S
O143 C137 1.299 . S
O144 Zn132 2.114 . S
O144 C146 1.166 . S
O145 Zn130 1.905 . S
O145 C146 1.182 . S
C146 O144 1.166 . S
C146 O145 1.182 . S
O147 Zn132 2.080 . S
O147 C150 1.305 . S
O148 Zn131 1.920 . S
O148 C150 1.234 . S
C149 O135 1.305 . S
C149 O136 1.234 . S
C150 O147 1.305 . S
C150 O148 1.234 . S
Zn151 O157 1.920 . S
Zn151 O163 1.898 . S
Zn151 O166 1.905 1_455 S
Zn152 O160 1.905 . S
Zn152 O161 1.898 . S
Zn152 O169 1.920 . S
Zn153 O156 2.080 . S
Zn153 O159 2.114 . S
Zn153 O162 2.120 . S
Zn153 O164 2.120 . S
Zn153 O165 2.114 . S
Zn153 O168 2.080 . S
C154 O159 1.166 . S
C154 O160 1.182 . S
C155 O161 1.167 . S
C155 O162 1.299 . S
O156 Zn153 2.080 . S
O156 C170 1.305 . S
O157 Zn151 1.920 . S
O157 C170 1.234 . S
C158 O163 1.167 . S
C158 O164 1.299 . S
O159 Zn153 2.114 . S
O159 C154 1.166 . S
O160 Zn152 1.905 . S
O160 C154 1.182 . S
O161 Zn152 1.898 . S
O161 C155 1.167 . S
O162 Zn153 2.120 . S
O162 C155 1.299 . S
O163 Zn151 1.898 . S
O163 C158 1.167 . S
O164 Zn153 2.120 . S
O164 C158 1.299 . S
O165 Zn153 2.114 . S
O165 C167 1.166 . S
O166 Zn151 1.905 1_655 S
O166 C167 1.182 1_655 S
C167 O165 1.166 . S
C167 O166 1.182 1_455 S
O168 Zn153 2.080 . S
O168 C171 1.305 . S
O169 Zn152 1.920 . S
O169 C171 1.234 . S
C170 O156 1.305 . S
C170 O157 1.234 . S
C171 O168 1.305 . S
C171 O169 1.234 . S
H172 C180 0.950 . S
H173 C185 0.950 . S
H174 C182 0.950 . S
H175 C184 0.950 . S
H176 C186 0.950 . S
H177 C188 0.950 . S
H178 C190 0.950 . S
H179 C191 0.950 . S
C180 H172 0.950 . S
C180 C181 1.386 . S
C180 C182 1.391 . S
C181 C180 1.386 . S
C181 C185 1.393 . S
C182 H174 0.950 . S
C182 C180 1.391 . S
C182 C183 1.400 . S
C183 C182 1.400 . S
C183 C184 1.398 . S
C183 C189 1.491 . S
C184 H175 0.950 . S
C184 C183 1.398 . S
C184 C185 1.391 . S
C185 H173 0.950 . S
C185 C181 1.393 . S
C185 C184 1.391 . S
C186 H176 0.950 . S
C186 C187 1.386 . S
C186 C188 1.391 . S
C187 C186 1.386 . S
C187 C191 1.393 . S
C188 H177 0.950 . S
C188 C186 1.391 . S
C188 C189 1.400 . S
C189 C183 1.491 . S
C189 C188 1.400 . S
C189 C190 1.398 . S
C190 H178 0.950 . S
C190 C189 1.398 . S
C190 C191 1.391 . S
C191 H179 0.950 . S
C191 C187 1.393 . S
C191 C190 1.391 . S
H192 C200 0.950 . S
H193 C205 0.950 . S
H194 C202 0.950 . S
H195 C204 0.950 . S
H196 C206 0.950 . S
H197 C208 0.950 . S
H198 C210 0.950 . S
H199 C211 0.950 . S
C200 H192 0.950 . S
C200 C201 1.386 . S
C200 C202 1.391 . S
C201 C200 1.386 . S
C201 C205 1.393 . S
C202 H194 0.950 . S
C202 C200 1.391 . S
C202 C203 1.400 . S
C203 C202 1.400 . S
C203 C204 1.398 . S
C203 C209 1.491 . S
C204 H195 0.950 . S
C204 C203 1.398 . S
C204 C205 1.391 . S
C205 H193 0.950 . S
C205 C201 1.393 . S
C205 C204 1.391 . S
C206 H196 0.950 . S
C206 C207 1.386 . S
C206 C208 1.391 . S
C207 C206 1.386 . S
C207 C211 1.393 . S
C208 H197 0.950 . S
C208 C206 1.391 . S
C208 C209 1.400 . S
C209 C203 1.491 . S
C209 C208 1.400 . S
C209 C210 1.398 . S
C210 H198 0.950 . S
C210 C209 1.398 . S
C210 C211 1.391 . S
C211 H199 0.950 . S
C211 C207 1.393 . S
C211 C210 1.391 . S
H212 C220 0.950 . S
H213 C225 0.950 . S
H214 C222 0.950 . S
H215 C224 0.950 . S
H216 C226 0.950 . S
H217 C228 0.950 . S
H218 C230 0.950 . S
H219 C231 0.950 . S
C220 H212 0.950 . S
C220 C221 1.386 . S
C220 C222 1.391 . S
C221 C220 1.386 . S
C221 C225 1.393 . S
C222 H214 0.950 . S
C222 C220 1.391 . S
C222 C223 1.400 . S
C223 C222 1.400 . S
C223 C224 1.398 . S
C223 C229 1.491 . S
C224 H215 0.950 . S
C224 C223 1.398 . S
C224 C225 1.391 . S
C225 H213 0.950 . S
C225 C221 1.393 . S
C225 C224 1.391 . S
C226 H216 0.950 . S
C226 C227 1.386 . S
C226 C228 1.391 . S
C227 C226 1.386 . S
C227 C231 1.393 . S
C228 H217 0.950 . S
C228 C226 1.391 . S
C228 C229 1.400 . S
C229 C223 1.491 . S
C229 C228 1.400 . S
C229 C230 1.398 . S
C230 H218 0.950 . S
C230 C229 1.398 . S
C230 C231 1.391 . S
C231 H219 0.950 . S
C231 C227 1.393 . S
C231 C230 1.391 . S
H232 C240 0.950 . S
H233 C245 0.950 . S
H234 C242 0.950 . S
H235 C244 0.950 . S
H236 C246 0.950 . S
H237 C248 0.950 . S
H238 C250 0.950 . S
H239 C251 0.950 . S
C240 H232 0.950 . S
C240 C241 1.386 . S
C240 C242 1.391 . S
C241 C240 1.386 . S
C241 C245 1.393 . S
C242 H234 0.950 . S
C242 C240 1.391 . S
C242 C243 1.400 . S
C243 C242 1.400 . S
C243 C244 1.398 . S
C243 C249 1.491 . S
C244 H235 0.950 . S
C244 C243 1.398 . S
C244 C245 1.391 . S
C245 H233 0.950 . S
C245 C241 1.393 . S
C245 C244 1.391 . S
C246 H236 0.950 . S
C246 C247 1.386 . S
C246 C248 1.391 . S
C247 C246 1.386 . S
C247 C251 1.393 . S
C248 H237 0.950 . S
C248 C246 1.391 . S
C248 C249 1.400 . S
C249 C243 1.491 . S
C249 C248 1.400 . S
C249 C250 1.398 . S
C250 H238 0.950 . S
C250 C249 1.398 . S
C250 C251 1.391 . S
C251 H239 0.950 . S
C251 C247 1.393 . S
C251 C250 1.391 . S
H252 C260 0.950 . S
H253 C265 0.950 . S
H254 C262 0.950 . S
H255 C264 0.950 . S
H256 C266 0.950 . S
H257 C268 0.950 . S
H258 C270 0.950 . S
H259 C271 0.950 . S
C260 H252 0.950 . S
C260 C261 1.386 . S
C260 C262 1.391 . S
C261 C260 1.386 . S
C261 C265 1.393 . S
C262 H254 0.950 . S
C262 C260 1.391 . S
C262 C263 1.400 . S
C263 C262 1.400 . S
C263 C264 1.398 . S
C263 C269 1.491 . S
C264 H255 0.950 . S
C264 C263 1.398 . S
C264 C265 1.391 . S
C265 H253 0.950 . S
C265 C261 1.393 . S
C265 C264 1.391 . S
C266 H256 0.950 . S
C266 C267 1.386 . S
C266 C268 1.391 . S
C267 C266 1.386 . S
C267 C271 1.393 . S
C268 H257 0.950 . S
C268 C266 1.391 . S
C268 C269 1.400 . S
C269 C263 1.491 . S
C269 C268 1.400 . S
C269 C270 1.398 . S
C270 H258 0.950 . S
C270 C269 1.398 . S
C270 C271 1.391 . S
C271 H259 0.950 . S
C271 C267 1.393 . S
C271 C270 1.391 . S
H272 C280 0.950 . S
H273 C285 0.950 . S
H274 C282 0.950 . S
H275 C284 0.950 . S
H276 C286 0.950 1_455 S
H277 C288 0.950 . S
H278 C290 0.950 . S
H279 C291 0.950 1_455 S
C280 H272 0.950 . S
C280 C281 1.386 . S
C280 C282 1.391 . S
C281 C280 1.386 . S
C281 C285 1.393 . S
C282 H274 0.950 . S
C282 C280 1.391 . S
C282 C283 1.400 . S
C283 C282 1.400 . S
C283 C284 1.398 . S
C283 C289 1.491 . S
C284 H275 0.950 . S
C284 C283 1.398 . S
C284 C285 1.391 . S
C285 H273 0.950 . S
C285 C281 1.393 . S
C285 C284 1.391 . S
C286 H276 0.950 1_655 S
C286 C287 1.386 1_655 S
C286 C288 1.391 . S
C287 C286 1.386 1_455 S
C287 C291 1.393 1_455 S
C288 H277 0.950 . S
C288 C286 1.391 . S
C288 C289 1.400 . S
C289 C283 1.491 . S
C289 C288 1.400 . S
C289 C290 1.398 . S
C290 H278 0.950 . S
C290 C289 1.398 . S
C290 C291 1.391 . S
C291 H279 0.950 1_655 S
C291 C287 1.393 1_655 S
C291 C290 1.391 . S
H292 C300 0.950 . S
H293 C305 0.950 . S
H294 C302 0.950 . S
H295 C304 0.950 . S
H296 C306 0.950 . S
H297 C308 0.950 . S
H298 C310 0.950 . S
H299 C311 0.950 . S
C300 H292 0.950 . S
C300 C301 1.386 . S
C300 C302 1.391 . S
C301 C300 1.386 . S
C301 C305 1.393 . S
C302 H294 0.950 . S
C302 C300 1.391 . S
C302 C303 1.400 . S
C303 C302 1.400 . S
C303 C304 1.398 . S
C303 C309 1.491 . S
C304 H295 0.950 . S
C304 C303 1.398 . S
C304 C305 1.391 . S
C305 H293 0.950 . S
C305 C301 1.393 . S
C305 C304 1.391 . S
C306 H296 0.950 . S
C306 C307 1.386 . S
C306 C308 1.391 . S
C307 C306 1.386 . S
C307 C311 1.393 . S
C308 H297 0.950 . S
C308 C306 1.391 . S
C308 C309 1.400 . S
C309 C303 1.491 . S
C309 C308 1.400 . S
C309 C310 1.398 . S
C310 H298 0.950 . S
C310 C309 1.398 . S
C310 C311 1.391 . S
C311 H299 0.950 . S
C311 C307 1.393 . S
C311 C310 1.391 . S
H312 C320 0.950 . S
H313 C325 0.950 . S
H314 C322 0.950 . S
H315 C324 0.950 . S
H316 C326 0.950 . S
H317 C328 0.950 . S
H318 C330 0.950 . S
H319 C331 0.950 . S
C320 H312 0.950 . S
C320 C321 1.386 . S
C320 C322 1.391 1_455 S
C321 C320 1.386 . S
C321 C325 1.393 . S
C322 H314 0.950 . S
C322 C320 1.391 1_655 S
C322 C323 1.400 . S
C323 C322 1.400 . S
C323 C324 1.398 . S
C323 C329 1.491 . S
C324 H315 0.950 . S
C324 C323 1.398 . S
C324 C325 1.391 1_655 S
C325 H313 0.950 . S
C325 C321 1.393 . S
C325 C324 1.391 1_455 S
C326 H316 0.950 . S
C326 C327 1.386 . S
C326 C328 1.391 . S
C327 C326 1.386 . S
C327 C331 1.393 . S
C328 H317 0.950 . S
C328 C326 1.391 . S
C328 C329 1.400 . S
C329 C323 1.491 . S
C329 C328 1.400 . S
C329 C330 1.398 . S
C330 H318 0.950 . S
C330 C329 1.398 . S
C330 C331 1.391 . S
C331 H319 0.950 . S
C331 C327 1.393 . S
C331 C330 1.391 . S
H332 C340 0.950 . S
H333 C345 0.950 . S
H334 C342 0.950 . S
H335 C344 0.950 . S
H336 C346 0.950 . S
H337 C348 0.950 . S
H338 C350 0.950 . S
H339 C351 0.950 . S
C340 H332 0.950 . S
C340 C341 1.386 . S
C340 C342 1.391 . S
C341 C340 1.386 . S
C341 C345 1.393 . S
C342 H334 0.950 . S
C342 C340 1.391 . S
C342 C343 1.400 . S
C343 C342 1.400 . S
C343 C344 1.398 . S
C343 C349 1.491 . S
C344 H335 0.950 . S
C344 C343 1.398 . S
C344 C345 1.391 . S
C345 H333 0.950 . S
C345 C341 1.393 . S
C345 C344 1.391 . S
C346 H336 0.950 . S
C346 C347 1.386 . S
C346 C348 1.391 . S
C347 C346 1.386 . S
C347 C351 1.393 . S
C348 H337 0.950 . S
C348 C346 1.391 . S
C348 C349 1.400 . S
C349 C343 1.491 . S
C349 C348 1.400 . S
C349 C350 1.398 . S
C350 H338 0.950 . S
C350 C349 1.398 . S
C350 C351 1.391 . S
C351 H339 0.950 . S
C351 C347 1.393 . S
C351 C350 1.391 . S
H352 C360 0.950 . S
H353 C365 0.950 . S
H354 C362 0.950 . S
H355 C364 0.950 . S
H356 C366 0.950 . S
H357 C368 0.950 . S
H358 C370 0.950 . S
H359 C371 0.950 . S
C360 H352 0.950 . S
C360 C361 1.386 . S
C360 C362 1.391 . S
C361 C360 1.386 . S
C361 C365 1.393 . S
C362 H354 0.950 . S
C362 C360 1.391 . S
C362 C363 1.400 . S
C363 C362 1.400 . S
C363 C364 1.398 . S
C363 C369 1.491 . S
C364 H355 0.950 . S
C364 C363 1.398 . S
C364 C365 1.391 . S
C365 H353 0.950 . S
C365 C361 1.393 . S
C365 C364 1.391 . S
C366 H356 0.950 . S
C366 C367 1.386 . S
C366 C368 1.391 . S
C367 C366 1.386 . S
C367 C371 1.393 . S
C368 H357 0.950 . S
C368 C366 1.391 . S
C368 C369 1.400 . S
C369 C363 1.491 . S
C369 C368 1.400 . S
C369 C370 1.398 . S
C370 H358 0.950 . S
C370 C369 1.398 . S
C370 C371 1.391 . S
C371 H359 0.950 . S
C371 C367 1.393 . S
C371 C370 1.391 . S
H372 C380 0.950 . S
H373 C385 0.950 . S
H374 C382 0.950 . S
H375 C384 0.950 . S
H376 C386 0.950 . S
H377 C388 0.950 . S
H378 C390 0.950 . S
H379 C391 0.950 . S
C380 H372 0.950 . S
C380 C381 1.386 . S
C380 C382 1.391 . S
C381 C380 1.386 . S
C381 C385 1.393 . S
C382 H374 0.950 . S
C382 C380 1.391 . S
C382 C383 1.400 . S
C383 C382 1.400 . S
C383 C384 1.398 . S
C383 C389 1.491 . S
C384 H375 0.950 . S
C384 C383 1.398 . S
C384 C385 1.391 . S
C385 H373 0.950 . S
C385 C381 1.393 . S
C385 C384 1.391 . S
C386 H376 0.950 . S
C386 C387 1.386 . S
C386 C388 1.391 . S
C387 C386 1.386 . S
C387 C391 1.393 . S
C388 H377 0.950 . S
C388 C386 1.391 . S
C388 C389 1.400 . S
C389 C383 1.491 . S
C389 C388 1.400 . S
C389 C390 1.398 . S
C390 H378 0.950 . S
C390 C389 1.398 . S
C390 C391 1.391 . S
C391 H379 0.950 . S
C391 C387 1.393 . S
C391 C390 1.391 . S
H392 C400 0.950 . S
H393 C405 0.950 . S
H394 C402 0.950 . S
H395 C404 0.950 . S
H396 C406 0.950 . S
H397 C408 0.950 . S
H398 C410 0.950 . S
H399 C411 0.950 . S
C400 H392 0.950 . S
C400 C401 1.386 . S
C400 C402 1.391 . S
C401 C400 1.386 . S
C401 C405 1.393 . S
C402 H394 0.950 . S
C402 C400 1.391 . S
C402 C403 1.400 . S
C403 C402 1.400 . S
C403 C404 1.398 . S
C403 C409 1.491 . S
C404 H395 0.950 . S
C404 C403 1.398 . S
C404 C405 1.391 . S
C405 H393 0.950 . S
C405 C401 1.393 . S
C405 C404 1.391 . S
C406 H396 0.950 . S
C406 C407 1.386 . S
C406 C408 1.391 . S
C407 C406 1.386 . S
C407 C411 1.393 . S
C408 H397 0.950 . S
C408 C406 1.391 . S
C408 C409 1.400 . S
C409 C403 1.491 . S
C409 C408 1.400 . S
C409 C410 1.398 . S
C410 H398 0.950 . S
C410 C409 1.398 . S
C410 C411 1.391 . S
C411 H399 0.950 . S
C411 C407 1.393 . S
C411 C410 1.391 . S
H412 C420 0.950 . S
H413 C425 0.950 . S
H414 C422 0.950 . S
H415 C424 0.950 . S
H416 C426 0.950 . S
H417 C428 0.950 1_565 S
H418 C430 0.950 . S
H419 C431 0.950 . S
C420 H412 0.950 . S
C420 C421 1.386 . S
C420 C422 1.391 . S
C421 C420 1.386 . S
C421 C425 1.393 . S
C422 H414 0.950 . S
C422 C420 1.391 . S
C422 C423 1.400 . S
C423 C422 1.400 . S
C423 C424 1.398 . S
C423 C429 1.491 . S
C424 H415 0.950 . S
C424 C423 1.398 . S
C424 C425 1.391 . S
C425 H413 0.950 . S
C425 C421 1.393 . S
C425 C424 1.391 . S
C426 H416 0.950 . S
C426 C427 1.386 . S
C426 C428 1.391 . S
C427 C426 1.386 . S
C427 C431 1.393 . S
C428 H417 0.950 1_545 S
C428 C426 1.391 . S
C428 C429 1.400 1_545 S
C429 C423 1.491 . S
C429 C428 1.400 1_565 S
C429 C430 1.398 . S
C430 H418 0.950 . S
C430 C429 1.398 . S
C430 C431 1.391 1_565 S
C431 H419 0.950 . S
C431 C427 1.393 . S
C431 C430 1.391 1_545 S
H432 C440 0.950 . S
H433 C445 0.950 . S
H434 C442 0.950 . S
H435 C444 0.950 1_565 S
H436 C446 0.950 . S
H437 C448 0.950 . S
H438 C450 0.950 . S
H439 C451 0.950 . S
C440 H432 0.950 . S
C440 C441 1.386 . S
C440 C442 1.391 . S
C441 C440 1.386 . S
C441 C445 1.393 . S
C442 H434 0.950 . S
C442 C440 1.391 . S
C442 C443 1.400 . S
C443 C442 1.400 . S
C443 C444 1.398 . S
C443 C449 1.491 1_545 S
C444 H435 0.950 1_545 S
C444 C443 1.398 . S
C444 C445 1.391 . S
C445 H433 0.950 . S
C445 C441 1.393 . S
C445 C444 1.391 . S
C446 H436 0.950 . S
C446 C447 1.386 . S
C446 C448 1.391 . S
C447 C446 1.386 . S
C447 C451 1.393 . S
C448 H437 0.950 . S
C448 C446 1.391 . S
C448 C449 1.400 . S
C449 C443 1.491 1_565 S
C449 C448 1.400 . S
C449 C450 1.398 . S
C450 H438 0.950 . S
C450 C449 1.398 . S
C450 C451 1.391 . S
C451 H439 0.950 . S
C451 C447 1.393 . S
C451 C450 1.391 . S
H452 C460 0.950 . S
H453 C465 0.950 . S
H454 C462 0.950 . S
H455 C464 0.950 . S
H456 C466 0.950 . S
H457 C468 0.950 . S
H458 C470 0.950 1_545 S
H459 C471 0.950 . S
C460 H452 0.950 . S
C460 C461 1.386 . S
C460 C462 1.391 . S
C461 C460 1.386 . S
C461 C465 1.393 . S
C462 H454 0.950 . S
C462 C460 1.391 . S
C462 C463 1.400 . S
C463 C462 1.400 . S
C463 C464 1.398 . S
C463 C469 1.491 1_545 S
C464 H455 0.950 . S
C464 C463 1.398 . S
C464 C465 1.391 . S
C465 H453 0.950 . S
C465 C461 1.393 . S
C465 C464 1.391 . S
C466 H456 0.950 . S
C466 C467 1.386 . S
C466 C468 1.391 . S
C467 C466 1.386 . S
C467 C471 1.393 . S
C468 H457 0.950 . S
C468 C466 1.391 . S
C468 C469 1.400 . S
C469 C463 1.491 1_565 S
C469 C468 1.400 . S
C469 C470 1.398 . S
C470 H458 0.950 1_565 S
C470 C469 1.398 . S
C470 C471 1.391 . S
C471 H459 0.950 . S
C471 C467 1.393 . S
C471 C470 1.391 . S
H472 C480 0.950 . S
H473 C485 0.950 . S
H474 C482 0.950 . S
H475 C484 0.950 . S
H476 C486 0.950 . S
H477 C488 0.950 . S
H478 C490 0.950 . S
H479 C491 0.950 . S
C480 H472 0.950 . S
C480 C481 1.386 . S
C480 C482 1.391 . S
C481 C480 1.386 . S
C481 C485 1.393 . S
C482 H474 0.950 . S
C482 C480 1.391 . S
C482 C483 1.400 . S
C483 C482 1.400 . S
C483 C484 1.398 . S
C483 C489 1.491 1_565 S
C484 H475 0.950 . S
C484 C483 1.398 . S
C484 C485 1.391 . S
C485 H473 0.950 . S
C485 C481 1.393 . S
C485 C484 1.391 . S
C486 H476 0.950 . S
C486 C487 1.386 . S
C486 C488 1.391 . S
C487 C486 1.386 . S
C487 C491 1.393 . S
C488 H477 0.950 . S
C488 C486 1.391 . S
C488 C489 1.400 . S
C489 C483 1.491 1_545 S
C489 C488 1.400 . S
C489 C490 1.398 . S
C490 H478 0.950 . S
C490 C489 1.398 . S
C490 C491 1.391 . S
C491 H479 0.950 . S
C491 C487 1.393 . S
C491 C490 1.391 . S
H492 C500 0.950 . S
H493 C505 0.950 . S
H494 C502 0.950 1_556 S
H495 C504 0.950 1_556 S
H496 C506 0.950 . S
H497 C508 0.950 . S
H498 C510 0.950 . S
H499 C511 0.950 . S
C500 H492 0.950 . S
C500 C501 1.386 . S
C500 C502 1.391 . S
C501 C500 1.386 . S
C501 C505 1.393 . S
C502 H494 0.950 1_554 S
C502 C500 1.391 . S
C502 C503 1.400 1_554 S
C503 C502 1.400 1_556 S
C503 C504 1.398 1_556 S
C503 C509 1.491 . S
C504 H495 0.950 1_554 S
C504 C503 1.398 1_554 S
C504 C505 1.391 . S
C505 H493 0.950 . S
C505 C501 1.393 . S
C505 C504 1.391 . S
C506 H496 0.950 . S
C506 C507 1.386 . S
C506 C508 1.391 . S
C507 C506 1.386 . S
C507 C511 1.393 . S
C508 H497 0.950 . S
C508 C506 1.391 . S
C508 C509 1.400 . S
C509 C503 1.491 . S
C509 C508 1.400 . S
C509 C510 1.398 . S
C510 H498 0.950 . S
C510 C509 1.398 . S
C510 C511 1.391 . S
C511 H499 0.950 . S
C511 C507 1.393 . S
C511 C510 1.391 . S
H512 C520 0.950 . S
H513 C525 0.950 . S
H514 C522 0.950 . S
H515 C524 0.950 . S
H516 C526 0.950 . S
H517 C528 0.950 . S
H518 C530 0.950 . S
H519 C531 0.950 . S
C520 H512 0.950 . S
C520 C521 1.386 . S
C520 C522 1.391 . S
C521 C520 1.386 . S
C521 C525 1.393 . S
C522 H514 0.950 . S
C522 C520 1.391 . S
C522 C523 1.400 . S
C523 C522 1.400 . S
C523 C524 1.398 . S
C523 C529 1.491 . S
C524 H515 0.950 . S
C524 C523 1.398 . S
C524 C525 1.391 . S
C525 H513 0.950 . S
C525 C521 1.393 . S
C525 C524 1.391 . S
C526 H516 0.950 . S
C526 C527 1.386 . S
C526 C528 1.391 . S
C527 C526 1.386 . S
C527 C531 1.393 . S
C528 H517 0.950 . S
C528 C526 1.391 . S
C528 C529 1.400 . S
C529 C523 1.491 . S
C529 C528 1.400 . S
C529 C530 1.398 . S
C530 H518 0.950 . S
C530 C529 1.398 . S
C530 C531 1.391 . S
C531 H519 0.950 . S
C531 C527 1.393 . S
C531 C530 1.391 . S
H532 C540 0.950 . S
H533 C545 0.950 . S
H534 C542 0.950 . S
H535 C544 0.950 . S
H536 C546 0.950 . S
H537 C548 0.950 . S
H538 C550 0.950 . S
H539 C551 0.950 . S
C540 H532 0.950 . S
C540 C541 1.386 . S
C540 C542 1.391 . S
C541 C540 1.386 . S
C541 C545 1.393 . S
C542 H534 0.950 . S
C542 C540 1.391 . S
C542 C543 1.400 . S
C543 C542 1.400 . S
C543 C544 1.398 . S
C543 C549 1.491 . S
C544 H535 0.950 . S
C544 C543 1.398 . S
C544 C545 1.391 . S
C545 H533 0.950 . S
C545 C541 1.393 . S
C545 C544 1.391 . S
C546 H536 0.950 . S
C546 C547 1.386 . S
C546 C548 1.391 . S
C547 C546 1.386 . S
C547 C551 1.393 . S
C548 H537 0.950 . S
C548 C546 1.391 . S
C548 C549 1.400 . S
C549 C543 1.491 . S
C549 C548 1.400 . S
C549 C550 1.398 . S
C550 H538 0.950 . S
C550 C549 1.398 . S
C550 C551 1.391 . S
C551 H539 0.950 . S
C551 C547 1.393 . S
C551 C550 1.391 . S
H552 C560 0.950 . S
H553 C565 0.950 . S
H554 C562 0.950 . S
H555 C564 0.950 . S
H556 C566 0.950 . S
H557 C568 0.950 . S
H558 C570 0.950 . S
H559 C571 0.950 . S
C560 H552 0.950 . S
C560 C561 1.386 . S
C560 C562 1.391 . S
C561 C560 1.386 . S
C561 C565 1.393 . S
C562 H554 0.950 . S
C562 C560 1.391 . S
C562 C563 1.400 . S
C563 C562 1.400 . S
C563 C564 1.398 . S
C563 C569 1.491 . S
C564 H555 0.950 . S
C564 C563 1.398 . S
C564 C565 1.391 . S
C565 H553 0.950 . S
C565 C561 1.393 . S
C565 C564 1.391 . S
C566 H556 0.950 . S
C566 C567 1.386 . S
C566 C568 1.391 . S
C567 C566 1.386 . S
C567 C571 1.393 . S
C568 H557 0.950 . S
C568 C566 1.391 . S
C568 C569 1.400 . S
C569 C563 1.491 . S
C569 C568 1.400 . S
C569 C570 1.398 . S
C570 H558 0.950 . S
C570 C569 1.398 . S
C570 C571 1.391 . S
C571 H559 0.950 . S
C571 C567 1.393 . S
C571 C570 1.391 . S
H572 C580 0.950 . S
H573 C585 0.950 . S
H574 C582 0.950 . S
H575 C584 0.950 1_554 S
H576 C586 0.950 . S
H577 C588 0.950 . S
H578 C590 0.950 . S
H579 C591 0.950 . S
C580 H572 0.950 . S
C580 C581 1.386 . S
C580 C582 1.391 . S
C581 C580 1.386 . S
C581 C585 1.393 . S
C582 H574 0.950 . S
C582 C580 1.391 . S
C582 C583 1.400 1_556 S
C583 C582 1.400 1_554 S
C583 C584 1.398 1_554 S
C583 C589 1.491 . S
C584 H575 0.950 1_556 S
C584 C583 1.398 1_556 S
C584 C585 1.391 . S
C585 H573 0.950 . S
C585 C581 1.393 . S
C585 C584 1.391 . S
C586 H576 0.950 . S
C586 C587 1.386 . S
C586 C588 1.391 . S
C587 C586 1.386 . S
C587 C591 1.393 . S
C588 H577 0.950 . S
C588 C586 1.391 . S
C588 C589 1.400 . S
C589 C583 1.491 . S
C589 C588 1.400 . S
C589 C590 1.398 . S
C590 H578 0.950 . S
C590 C589 1.398 . S
C590 C591 1.391 . S
C591 H579 0.950 . S
C591 C587 1.393 . S
C591 C590 1.391 . S
H592 C600 0.950 . S
H593 C605 0.950 . S
H594 C602 0.950 . S
H595 C604 0.950 . S
H596 C606 0.950 . S
H597 C608 0.950 . S
H598 C610 0.950 . S
H599 C611 0.950 . S
C600 H592 0.950 . S
C600 C601 1.386 . S
C600 C602 1.391 . S
C601 C600 1.386 . S
C601 C605 1.393 . S
C602 H594 0.950 . S
C602 C600 1.391 . S
C602 C603 1.400 . S
C603 C602 1.400 . S
C603 C604 1.398 . S
C603 C609 1.491 . S
C604 H595 0.950 . S
C604 C603 1.398 . S
C604 C605 1.391 . S
C605 H593 0.950 . S
C605 C601 1.393 . S
C605 C604 1.391 . S
C606 H596 0.950 . S
C606 C607 1.386 . S
C606 C608 1.391 . S
C607 C606 1.386 . S
C607 C611 1.393 . S
C608 H597 0.950 . S
C608 C606 1.391 . S
C608 C609 1.400 . S
C609 C603 1.491 . S
C609 C608 1.400 . S
C609 C610 1.398 . S
C610 H598 0.950 . S
C610 C609 1.398 . S
C610 C611 1.391 . S
C611 H599 0.950 . S
C611 C607 1.393 . S
C611 C610 1.391 . S
H612 C620 0.950 . S
H613 C625 0.950 . S
H614 C622 0.950 . S
H615 C624 0.950 . S
H616 C626 0.950 . S
H617 C628 0.950 . S
H618 C630 0.950 . S
H619 C631 0.950 . S
C620 H612 0.950 . S
C620 C621 1.386 . S
C620 C622 1.391 . S
C621 C620 1.386 . S
C621 C625 1.393 . S
C622 H614 0.950 . S
C622 C620 1.391 . S
C622 C623 1.400 . S
C623 C622 1.400 . S
C623 C624 1.398 . S
C623 C629 1.491 . S
C624 H615 0.950 . S
C624 C623 1.398 . S
C624 C625 1.391 . S
C625 H613 0.950 . S
C625 C621 1.393 . S
C625 C624 1.391 . S
C626 H616 0.950 . S
C626 C627 1.386 . S
C626 C628 1.391 . S
C627 C626 1.386 . S
C627 C631 1.393 . S
C628 H617 0.950 . S
C628 C626 1.391 . S
C628 C629 1.400 . S
C629 C623 1.491 . S
C629 C628 1.400 . S
C629 C630 1.398 . S
C630 H618 0.950 . S
C630 C629 1.398 . S
C630 C631 1.391 . S
C631 H619 0.950 . S
C631 C627 1.393 . S
C631 C630 1.391 . S
H632 C640 0.950 . S
H633 C645 0.950 . S
H634 C642 0.950 . S
H635 C644 0.950 . S
H636 C646 0.950 . S
H637 C648 0.950 . S
H638 C650 0.950 . S
H639 C651 0.950 . S
C640 H632 0.950 . S
C640 C641 1.386 . S
C640 C642 1.391 . S
C641 C640 1.386 . S
C641 C645 1.393 . S
C642 H634 0.950 . S
C642 C640 1.391 . S
C642 C643 1.400 . S
C643 C642 1.400 . S
C643 C644 1.398 . S
C643 C649 1.491 . S
C644 H635 0.950 . S
C644 C643 1.398 . S
C644 C645 1.391 . S
C645 H633 0.950 . S
C645 C641 1.393 . S
C645 C644 1.391 . S
C646 H636 0.950 . S
C646 C647 1.386 . S
C646 C648 1.391 . S
C647 C646 1.386 . S
C647 C651 1.393 . S
C648 H637 0.950 . S
C648 C646 1.391 . S
C648 C649 1.400 . S
C649 C643 1.491 . S
C649 C648 1.400 . S
C649 C650 1.398 . S
C650 H638 0.950 . S
C650 C649 1.398 . S
C650 C651 1.391 . S
C651 H639 0.950 . S
C651 C647 1.393 . S
C651 C650 1.391 . S
C187 C95 1.414 . S
C181 C4 1.554 . S
C207 C113 1.385 . S
C201 C21 1.451 1_655 S
C221 C32 1.404 . S
C227 C137 1.268 . S
C247 C167 1.244 1_655 S
C241 C37 1.419 . S
C267 C155 1.220 . S
C261 C48 1.343 . S
C281 C65 1.452 . S
C287 C108 1.372 . S
C301 C76 1.608 . S
C307 C128 1.519 . S
C321 C81 1.407 . S
C327 C133 1.308 . S
C341 C87 1.459 . S
C347 C149 1.382 . S
C361 C59 1.410 . S
C367 C104 1.303 . S
C387 C171 1.390 . S
C381 C43 1.451 . S
C407 C116 1.267 . S
C401 C15 1.404 . S
C421 C26 1.553 . S
C427 C134 1.429 . S
C441 C10 1.397 . S
C447 C92 1.312 . S
C467 C112 1.254 . S
C461 C70 1.321 . S
C487 C158 1.512 . S
C481 C54 1.608 . S
C507 C154 1.376 . S
C501 C5 1.525 . S
C527 C107 1.458 . S
C521 C16 1.515 . S
C541 C27 1.498 . S
C547 C129 1.377 . S
C561 C38 1.525 . S
C567 C150 1.482 . S
C587 C91 1.328 . S
C581 C49 1.565 . S
C601 C60 1.515 . S
C607 C125 1.431 . S
C627 C146 1.380 . S
C621 C71 1.595 . S
C647 C170 1.403 . S
C641 C82 1.493 . S
