# Generated by pormake.
# Topology dag, (6,3)-cn, num edge types: 1
# Building blocks:
#     Node 0, Type 0, BuildingBlock: IZENUY_clean_sbu_0, # of connection points: 6
#     Node 1, Type 0, BuildingBlock: IZENUY_clean_sbu_0, # of connection points: 6
#     Node 2, Type 0, BuildingBlock: IZENUY_clean_sbu_0, # of connection points: 6
#     Node 3, Type 0, BuildingBlock: IZENUY_clean_sbu_0, # of connection points: 6
#     Node 4, Type 1, BuildingBlock: PAMTOO_clean_linker_0, # of connection points: 3
#     Node 5, Type 1, BuildingBlock: PAMTOO_clean_linker_0, # of connection points: 3
#     Node 6, Type 1, BuildingBlock: PAMTOO_clean_linker_0, # of connection points: 3
#     Node 7, Type 1, BuildingBlock: PAMTOO_clean_linker_0, # of connection points: 3
#     Node 8, Type 1, BuildingBlock: PAMTOO_clean_linker_0, # of connection points: 3
#     Node 9, Type 1, BuildingBlock: PAMTOO_clean_linker_0, # of connection points: 3
#     Node 10, Type 1, BuildingBlock: PAMTOO_clean_linker_0, # of connection points: 3
#     Node 11, Type 1, BuildingBlock: PAMTOO_clean_linker_0, # of connection points: 3
#     Edge 12, Type (0, 1), BuildingBlock: CIFDUS_clean_linker_0, # of connection points: 2
#     Edge 13, Type (0, 1), BuildingBlock: CIFDUS_clean_linker_0, # of connection points: 2
#     Edge 14, Type (0, 1), BuildingBlock: CIFDUS_clean_linker_0, # of connection points: 2
#     Edge 15, Type (0, 1), BuildingBlock: CIFDUS_clean_linker_0, # of connection points: 2
#     Edge 16, Type (0, 1), BuildingBlock: CIFDUS_clean_linker_0, # of connection points: 2
#     Edge 17, Type (0, 1), BuildingBlock: CIFDUS_clean_linker_0, # of connection points: 2
#     Edge 18, Type (0, 1), BuildingBlock: CIFDUS_clean_linker_0, # of connection points: 2
#     Edge 19, Type (0, 1), BuildingBlock: CIFDUS_clean_linker_0, # of connection points: 2
#     Edge 20, Type (0, 1), BuildingBlock: CIFDUS_clean_linker_0, # of connection points: 2
#     Edge 21, Type (0, 1), BuildingBlock: CIFDUS_clean_linker_0, # of connection points: 2
#     Edge 22, Type (0, 1), BuildingBlock: CIFDUS_clean_linker_0, # of connection points: 2
#     Edge 23, Type (0, 1), BuildingBlock: CIFDUS_clean_linker_0, # of connection points: 2
#     Edge 24, Type (0, 1), BuildingBlock: CIFDUS_clean_linker_0, # of connection points: 2
#     Edge 25, Type (0, 1), BuildingBlock: CIFDUS_clean_linker_0, # of connection points: 2
#     Edge 26, Type (0, 1), BuildingBlock: CIFDUS_clean_linker_0, # of connection points: 2
#     Edge 27, Type (0, 1), BuildingBlock: CIFDUS_clean_linker_0, # of connection points: 2
#     Edge 28, Type (0, 1), BuildingBlock: CIFDUS_clean_linker_0, # of connection points: 2
#     Edge 29, Type (0, 1), BuildingBlock: CIFDUS_clean_linker_0, # of connection points: 2
#     Edge 30, Type (0, 1), BuildingBlock: CIFDUS_clean_linker_0, # of connection points: 2
#     Edge 31, Type (0, 1), BuildingBlock: CIFDUS_clean_linker_0, # of connection points: 2
#     Edge 32, Type (0, 1), BuildingBlock: CIFDUS_clean_linker_0, # of connection points: 2
#     Edge 33, Type (0, 1), BuildingBlock: CIFDUS_clean_linker_0, # of connection points: 2
#     Edge 34, Type (0, 1), BuildingBlock: CIFDUS_clean_linker_0, # of connection points: 2
#     Edge 35, Type (0, 1), BuildingBlock: CIFDUS_clean_linker_0, # of connection points: 2
# Relax obj value: 0.093
# Max RMSD: 0.111
# Mean RMSD: 0.090
data_MOF--net-dag--node1-IZENUY_clean_sbu_0--node2-PAMTOO_clean_linker_0--edge1-CIFDUS_clean_linker_0
_symmetry_space_group_name_H-M    P1
_symmetry_Int_Tables_number       1
_symmetry_cell_setting            triclinic
loop_
_symmetry_equiv_pos_as_xyz
'x, y, z'
_cell_length_a     34.440387
_cell_length_b     35.467527
_cell_length_c     31.332414
_cell_angle_alpha  89.770062
_cell_angle_beta   94.079399
_cell_angle_gamma 90.025543
loop_
_atom_site_label
_atom_site_type_symbol
_atom_site_fract_x
_atom_site_fract_y
_atom_site_fract_z
_atom_type_partial_charge
Fe0 Fe 0.20266 0.84834 0.0195 0.0
Fe1 Fe 0.12044 0.88156 0.01527 0.0
O2 O 0.1513 0.84198 0.01504 0.0
Fe3 Fe 0.13066 0.79619 0.01053 0.0
O4 O 0.15455 0.78231 0.06137 0.0
O5 O 0.21271 0.80375 0.04918 0.0
O6 O 0.20141 0.87144 0.07118 0.0
C7 C 0.18057 0.89976 0.07765 0.0
C8 C 0.19569 0.79267 0.95922 0.0
O9 O 0.15327 0.90965 0.05089 0.0
C10 C 0.08254 0.83462 0.95281 0.0
O11 O 0.20162 0.89434 0.99075 0.0
O12 O 0.1402 0.9004 0.96792 0.0
O13 O 0.17023 0.77684 0.9806 0.0
O14 O 0.20749 0.82561 0.96832 0.0
C15 C 0.08157 0.8339 0.06576 0.0
O16 O 0.08177 0.86102 0.9797 0.0
O17 O 0.10515 0.80694 0.95916 0.0
C18 C 0.17535 0.9093 0.96558 0.0
O19 O 0.09885 0.86498 0.06271 0.0
O20 O 0.08728 0.8074 0.03983 0.0
C21 C 0.1908 0.78306 0.07039 0.0
Fe22 Fe 0.70356 0.651 0.51123 0.0
Fe23 Fe 0.64084 0.71319 0.49946 0.0
O24 O 0.65395 0.6651 0.5076 0.0
Fe25 Fe 0.61746 0.63084 0.51222 0.0
O26 O 0.64676 0.60063 0.54919 0.0
O27 O 0.70061 0.6323 0.56506 0.0
O28 O 0.72161 0.69506 0.5359 0.0
C29 C 0.70433 0.71951 0.55697 0.0
C30 C 0.66596 0.59272 0.46266 0.0
O31 O 0.66876 0.72673 0.54829 0.0
C32 C 0.58495 0.67873 0.44712 0.0
O33 O 0.70965 0.66857 0.45801 0.0
O34 O 0.68157 0.72367 0.46588 0.0
O35 O 0.63238 0.60602 0.46583 0.0
O36 O 0.69448 0.60421 0.48696 0.0
C37 C 0.58838 0.68713 0.55948 0.0
O38 O 0.61178 0.70295 0.45004 0.0
O39 O 0.58121 0.65463 0.47629 0.0
C40 C 0.70248 0.70174 0.44513 0.0
O41 O 0.59754 0.71086 0.53139 0.0
O42 O 0.60056 0.65369 0.55874 0.0
C43 C 0.67567 0.60831 0.57478 0.0
Fe44 Fe 0.86708 0.20948 0.06093 0.0
Fe45 Fe 0.88604 0.12789 0.03875 0.0
O46 O 0.85192 0.16471 0.04093 0.0
Fe47 Fe 0.80286 0.15644 0.02271 0.0
O48 O 0.80489 0.19296 0.98238 0.0
O49 O 0.83249 0.23605 0.02494 0.0
O50 O 0.9019 0.21475 0.02012 0.0
C51 C 0.92825 0.19115 0.01408 0.0
C52 C 0.79681 0.20233 0.09592 0.0
O53 O 0.92756 0.1585 0.03011 0.0
C54 C 0.81933 0.09057 0.06464 0.0
O55 O 0.90466 0.19027 0.10028 0.0
O56 O 0.89581 0.12892 0.0961 0.0
O57 O 0.78279 0.18894 0.0607 0.0
O58 O 0.83302 0.20762 0.10273 0.0
C59 C 0.84542 0.11765 0.96226 0.0
O60 O 0.8511 0.09 0.04682 0.0
O61 O 0.79787 0.11936 0.06236 0.0
C62 C 0.90887 0.15742 0.11631 0.0
O63 O 0.87797 0.12515 0.98123 0.0
O64 O 0.81431 0.12226 0.98101 0.0
C65 C 0.81467 0.22676 0.98972 0.0
Fe66 Fe 0.39007 0.37124 0.54283 0.0
Fe67 Fe 0.30481 0.35113 0.55454 0.0
O68 O 0.35396 0.33717 0.5506 0.0
Fe69 Fe 0.36765 0.28908 0.55452 0.0
O70 O 0.40019 0.29801 0.6018 0.0
O71 O 0.42955 0.34522 0.57213 0.0
O72 O 0.38124 0.39383 0.59269 0.0
C73 C 0.34887 0.40686 0.60206 0.0
C74 C 0.41299 0.31713 0.48922 0.0
O75 O 0.31733 0.39616 0.58214 0.0
C76 C 0.29976 0.28419 0.50414 0.0
O77 O 0.35788 0.40384 0.51216 0.0
O78 O 0.30223 0.37381 0.50202 0.0
O79 O 0.40761 0.29306 0.51828 0.0
O80 O 0.40066 0.35036 0.49241 0.0
C81 C 0.31149 0.29553 0.61594 0.0
O82 O 0.28446 0.30854 0.52751 0.0
O83 O 0.33585 0.27754 0.50811 0.0
C84 C 0.32599 0.39836 0.49073 0.0
O85 O 0.30331 0.32956 0.60732 0.0
O86 O 0.33049 0.27603 0.59089 0.0
C87 C 0.42811 0.32094 0.6016 0.0
H88 H 0.09259 0.06458 0.20861 0.0
H89 H 0.12866 0.15949 0.28676 0.0
H90 H 0.20427 0.06361 0.27951 0.0
H91 H 0.20513 0.09557 0.36666 0.0
C92 C 0.19427 0.12436 0.35815 0.0
O93 O 0.19528 0.12993 0.31464 0.0
H94 H 0.16381 0.12641 0.36775 0.0
C95 C 0.11375 0.07792 0.231 0.0
C96 C 0.14903 0.05946 0.24243 0.0
C97 C 0.10606 0.11401 0.24655 0.0
C98 C 0.13415 0.13173 0.27419 0.0
C99 C 0.16922 0.11329 0.28649 0.0
C100 C 0.17696 0.07749 0.27009 0.0
H101 H 0.41122 0.60462 0.66751 0.0
H102 H 0.3081 0.62719 0.73299 0.0
H103 H 0.39881 0.71073 0.73097 0.0
H104 H 0.36932 0.6986 0.81424 0.0
C105 C 0.33853 0.69087 0.80505 0.0
O106 O 0.33155 0.69371 0.76118 0.0
H107 H 0.33436 0.66115 0.81541 0.0
C108 C 0.39424 0.6234 0.68613 0.0
C109 C 0.40915 0.65906 0.69728 0.0
C110 C 0.3578 0.61165 0.69847 0.0
C111 C 0.33595 0.63615 0.72244 0.0
C112 C 0.35097 0.6717 0.73465 0.0
C113 C 0.38722 0.68343 0.72128 0.0
H114 H 0.8795 0.87937 0.1155 0.0
H115 H 0.78115 0.88131 0.19297 0.0
H116 H 0.86858 0.79502 0.21266 0.0
H117 H 0.78362 0.77101 0.21385 0.0
C118 C 0.77292 0.79609 0.23077 0.0
O119 O 0.80278 0.82165 0.23821 0.0
H120 H 0.74905 0.80909 0.20987 0.0
C121 C 0.86302 0.86704 0.14031 0.0
C122 C 0.87789 0.83527 0.16245 0.0
C123 C 0.82803 0.8838 0.15064 0.0
C124 C 0.80799 0.86852 0.18415 0.0
C125 C 0.8223 0.83619 0.20604 0.0
C126 C 0.85725 0.81951 0.19515 0.0
H127 H 0.60115 0.42863 0.69042 0.0
H128 H 0.64623 0.33695 0.76903 0.0
H129 H 0.7004 0.4462 0.77964 0.0
H130 H 0.75969 0.38463 0.79696 0.0
C131 C 0.73761 0.36174 0.79669 0.0
O132 O 0.70265 0.37646 0.80771 0.0
H133 H 0.73491 0.34978 0.76375 0.0
C134 C 0.62158 0.41828 0.71575 0.0
C135 C 0.65032 0.44242 0.73416 0.0
C136 C 0.61993 0.38037 0.72803 0.0
C137 C 0.6469 0.36638 0.75969 0.0
C138 C 0.67586 0.39025 0.77823 0.0
C139 C 0.67763 0.42816 0.76547 0.0
H140 H 0.56967 0.40955 0.36117 0.0
H141 H 0.59686 0.30058 0.31152 0.0
H142 H 0.67908 0.39177 0.30632 0.0
H143 H 0.66147 0.35024 0.22707 0.0
C144 C 0.66019 0.32102 0.24003 0.0
O145 O 0.66414 0.32167 0.28417 0.0
H146 H 0.6312 0.30909 0.22944 0.0
C147 C 0.58938 0.39118 0.34546 0.0
C148 C 0.62542 0.4052 0.33467 0.0
C149 C 0.57885 0.35358 0.33762 0.0
C150 C 0.60482 0.32961 0.31833 0.0
C151 C 0.64069 0.34365 0.30636 0.0
C152 C 0.65132 0.38118 0.31543 0.0
H153 H 0.09196 0.10568 0.8932 0.0
H154 H 0.11642 0.21414 0.83958 0.0
H155 H 0.19436 0.12109 0.82382 0.0
H156 H 0.23238 0.1983 0.83723 0.0
C157 C 0.20903 0.21543 0.82016 0.0
O158 O 0.17938 0.19216 0.80425 0.0
H159 H 0.19779 0.23557 0.8435 0.0
C160 C 0.11076 0.12379 0.87575 0.0
C161 C 0.14455 0.10884 0.85985 0.0
C162 C 0.10071 0.16171 0.86911 0.0
C163 C 0.1245 0.18501 0.84586 0.0
C164 C 0.15832 0.17039 0.82959 0.0
C165 C 0.16861 0.13242 0.83707 0.0
H166 H 0.41405 0.55545 0.34949 0.0
H167 H 0.38321 0.65317 0.27278 0.0
H168 H 0.29846 0.56595 0.28892 0.0
H169 H 0.28829 0.60017 0.20123 0.0
C170 C 0.30859 0.62417 0.20783 0.0
O171 O 0.31211 0.63082 0.25134 0.0
H172 H 0.33718 0.61594 0.19608 0.0
C173 C 0.3929 0.57092 0.32893 0.0
C174 C 0.35527 0.55617 0.32107 0.0
C175 C 0.40335 0.60582 0.31192 0.0
C176 C 0.37556 0.62631 0.2865 0.0
C177 C 0.33795 0.61172 0.27779 0.0
C178 C 0.32757 0.57698 0.29568 0.0
H179 H 0.90939 0.9513 0.83929 0.0
H180 H 0.89022 0.85114 0.76381 0.0
H181 H 0.79811 0.93206 0.77175 0.0
H182 H 0.77421 0.85383 0.77743 0.0
C183 C 0.79415 0.84055 0.75542 0.0
O184 O 0.81779 0.86763 0.73913 0.0
H185 H 0.81221 0.81932 0.77403 0.0
C186 C 0.89084 0.93458 0.81727 0.0
C187 C 0.85248 0.94641 0.80667 0.0
C188 C 0.90496 0.90043 0.80204 0.0
C189 C 0.88002 0.87773 0.77571 0.0
C190 C 0.84163 0.88936 0.7647 0.0
C191 C 0.8279 0.92356 0.78019 0.0
H192 H 0.13396 0.90831 0.14108 0.0
H193 H 0.24287 0.94581 0.09679 0.0
H194 H 0.24588 0.99696 0.14966 0.0
H195 H 0.21163 0.0364 0.20048 0.0
H196 H 0.10138 0.99865 0.24215 0.0
H197 H 0.10481 0.94185 0.19892 0.0
C198 C 0.15884 0.92708 0.14403 0.0
C199 C 0.18818 0.92352 0.11558 0.0
C200 C 0.15976 0.95659 0.17366 0.0
C201 C 0.22026 0.94795 0.11899 0.0
C202 C 0.22171 0.97734 0.14887 0.0
C203 C 0.18901 0.01516 0.20096 0.0
C204 C 0.15603 0.02185 0.22393 0.0
C205 C 0.19084 0.98277 0.17529 0.0
C206 C 0.12676 0.99426 0.22422 0.0
C207 C 0.12867 0.96184 0.19949 0.0
H208 H 0.57669 0.65268 0.63438 0.0
H209 H 0.52978 0.73959 0.54898 0.0
H210 H 0.47124 0.74287 0.58896 0.0
H211 H 0.42938 0.7137 0.64153 0.0
H212 H 0.47642 0.62484 0.72392 0.0
H213 H 0.539 0.62982 0.69223 0.0
C214 C 0.55397 0.67286 0.62496 0.0
C215 C 0.55731 0.69545 0.58842 0.0
C216 C 0.52023 0.67397 0.64746 0.0
C217 C 0.52791 0.72184 0.57698 0.0
C218 C 0.49428 0.72351 0.59965 0.0
C219 C 0.45381 0.69634 0.65326 0.0
C220 C 0.44854 0.66893 0.68489 0.0
C221 C 0.4895 0.69871 0.634 0.0
C222 C 0.48005 0.64614 0.69963 0.0
C223 C 0.51569 0.64884 0.68136 0.0
H224 H 0.8145 0.02268 0.02792 0.0
H225 H 0.79734 0.08031 0.14575 0.0
H226 H 0.79263 0.01954 0.18297 0.0
H227 H 0.80441 0.95053 0.18352 0.0
H228 H 0.82166 0.89409 0.06463 0.0
H229 H 0.81466 0.95376 0.02598 0.0
C230 C 0.80865 0.02177 0.06151 0.0
C231 C 0.8065 0.05551 0.08434 0.0
C232 C 0.80647 0.98698 0.08247 0.0
C233 C 0.79883 0.05443 0.1277 0.0
C234 C 0.79652 0.01975 0.14895 0.0
C235 C 0.80544 0.95122 0.14901 0.0
C236 C 0.81435 0.91816 0.12702 0.0
C237 C 0.80184 0.98586 0.12698 0.0
C238 C 0.81561 0.91937 0.08229 0.0
C239 C 0.81165 0.95344 0.06019 0.0
H240 H 0.50344 0.31713 0.58622 0.0
H241 H 0.42631 0.32149 0.68835 0.0
H242 H 0.48163 0.33473 0.73997 0.0
H243 H 0.55026 0.35585 0.75279 0.0
H244 H 0.62608 0.35233 0.64932 0.0
H245 H 0.57334 0.32712 0.60141 0.0
C246 C 0.49906 0.31989 0.62003 0.0
C247 C 0.4612 0.31864 0.63373 0.0
C248 C 0.53076 0.32788 0.64907 0.0
C249 C 0.45545 0.32214 0.67741 0.0
C250 C 0.48698 0.33005 0.70674 0.0
C251 C 0.55534 0.34819 0.72017 0.0
C252 C 0.5917 0.35569 0.7043 0.0
C253 C 0.52455 0.33448 0.69259 0.0
C254 C 0.59822 0.3464 0.66195 0.0
C255 C 0.56805 0.33233 0.63456 0.0
H256 H 0.61918 0.57245 0.39377 0.0
H257 H 0.72208 0.53788 0.47038 0.0
H258 H 0.72229 0.47782 0.43217 0.0
H259 H 0.68751 0.4319 0.38388 0.0
H260 H 0.58371 0.46691 0.30927 0.0
H261 H 0.58985 0.53027 0.33918 0.0
C262 C 0.64195 0.55199 0.40173 0.0
C263 C 0.67011 0.55928 0.43533 0.0
C264 C 0.64163 0.51754 0.38 0.0
C265 C 0.6999 0.53282 0.44478 0.0
C266 C 0.69995 0.49841 0.42305 0.0
C267 C 0.66703 0.45382 0.37333 0.0
C268 C 0.63507 0.44492 0.34476 0.0
C269 C 0.67021 0.48999 0.39154 0.0
C270 C 0.6084 0.47329 0.33146 0.0
C271 C 0.61177 0.50938 0.3487 0.0
H272 H 0.93282 0.17739 0.93086 0.0
H273 H 0.99726 0.22295 0.04152 0.0
H274 H 0.05701 0.22307 0.00318 0.0
H275 H 0.09225 0.20103 0.94174 0.0
H276 H 0.02789 0.15102 0.83349 0.0
H277 H 0.96664 0.1619 0.86672 0.0
C278 C 0.9598 0.18841 0.94589 0.0
C279 C 0.9609 0.20067 0.98844 0.0
C280 C 0.99403 0.18705 0.92416 0.0
C281 C 0.9959 0.21413 0.00838 0.0
C282 C 0.03002 0.21379 0.98662 0.0
C283 C 0.06461 0.19364 0.92511 0.0
C284 C 0.06418 0.17561 0.88525 0.0
C285 C 0.02969 0.19906 0.94502 0.0
C286 C 0.02854 0.16529 0.86405 0.0
C287 C 0.99366 0.17131 0.88313 0.0
H288 H 0.3663 0.4037 0.42139 0.0
H289 H 0.26693 0.4497 0.47878 0.0
H290 H 0.26335 0.50137 0.42607 0.0
H291 H 0.29557 0.53833 0.37082 0.0
H292 H 0.39561 0.49119 0.31511 0.0
H293 H 0.39154 0.43473 0.35923 0.0
C294 C 0.34315 0.42446 0.4214 0.0
C295 C 0.31686 0.4231 0.45355 0.0
C296 C 0.34176 0.45407 0.39156 0.0
C297 C 0.28714 0.45012 0.45382 0.0
C298 C 0.2854 0.47979 0.42398 0.0
C299 C 0.31565 0.51516 0.36753 0.0
C300 C 0.34621 0.5191 0.34025 0.0
C301 C 0.3135 0.48283 0.39366 0.0
C302 C 0.37219 0.48895 0.33632 0.0
C303 C 0.36995 0.45672 0.3616 0.0
H304 H 0.07006 0.89094 0.89672 0.0
H305 H 0.0292 0.78036 0.92873 0.0
H306 H 0.97163 0.78869 0.87863 0.0
H307 H 0.92852 0.83202 0.83478 0.0
H308 H 0.971 0.94234 0.80298 0.0
H309 H 0.03279 0.92935 0.84322 0.0
C310 C 0.04897 0.86834 0.89176 0.0
C311 C 0.05337 0.83528 0.91627 0.0
C312 C 0.01617 0.87348 0.86328 0.0
C313 C 0.02624 0.80598 0.90983 0.0
C314 C 0.99327 0.8109 0.8815 0.0
C315 C 0.95178 0.85268 0.83556 0.0
C316 C 0.94497 0.88838 0.81672 0.0
C317 C 0.98723 0.84514 0.85925 0.0
C318 C 0.97536 0.91494 0.81797 0.0
C319 C 0.01064 0.90758 0.84102 0.0
H320 H 0.79222 0.06518 0.93343 0.0
H321 H 0.89881 0.11966 0.90264 0.0
H322 H 0.90648 0.07447 0.84542 0.0
H323 H 0.88849 0.01416 0.81209 0.0
H324 H 0.78514 0.95625 0.84663 0.0
H325 H 0.76989 0.00851 0.89341 0.0
C326 C 0.81653 0.06773 0.91342 0.0
C327 C 0.84514 0.09546 0.92248 0.0
C328 C 0.82148 0.04078 0.88147 0.0
C329 C 0.87663 0.09832 0.89651 0.0
C330 C 0.88109 0.07244 0.86386 0.0
C331 C 0.86227 0.01333 0.82934 0.0
C332 C 0.8383 0.98123 0.8265 0.0
C333 C 0.85458 0.04269 0.8573 0.0
C334 C 0.80403 0.9807 0.84829 0.0
C335 C 0.79553 0.01041 0.87537 0.0
H336 H 0.41658 0.35102 0.41227 0.0
H337 H 0.47381 0.26732 0.49473 0.0
H338 H 0.52877 0.26607 0.44939 0.0
H339 H 0.56511 0.29719 0.39359 0.0
H340 H 0.50795 0.38234 0.31325 0.0
H341 H 0.44821 0.37421 0.34982 0.0
C342 C 0.44073 0.33193 0.41978 0.0
C343 C 0.44147 0.3098 0.45711 0.0
C344 C 0.4724 0.33184 0.39403 0.0
C345 C 0.47261 0.28473 0.46618 0.0
C346 C 0.50419 0.2842 0.44042 0.0
C347 C 0.53908 0.31289 0.38323 0.0
C348 C 0.54081 0.34049 0.35112 0.0
C349 C 0.50509 0.30877 0.40526 0.0
C350 C 0.50714 0.36104 0.33807 0.0
C351 C 0.47312 0.35659 0.35914 0.0
H352 H 0.13217 0.93637 0.89701 0.0
H353 H 0.23573 0.95972 0.97813 0.0
H354 H 0.23881 0.02323 0.9474 0.0
H355 H 0.20563 0.07529 0.90566 0.0
H356 H 0.10001 0.05148 0.82837 0.0
H357 H 0.10417 0.98507 0.84908 0.0
C358 C 0.15591 0.95507 0.90738 0.0
C359 C 0.18337 0.94349 0.94021 0.0
C360 C 0.15679 0.99173 0.89053 0.0
C361 C 0.21422 0.96788 0.95289 0.0
C362 C 0.21576 0.00436 0.9356 0.0
C363 C 0.18425 0.05521 0.89257 0.0
C364 C 0.15248 0.06805 0.86568 0.0
C365 C 0.1863 0.0171 0.90561 0.0
C366 C 0.12462 0.04206 0.84916 0.0
C367 C 0.12693 0.00418 0.86112 0.0
H368 H 0.57432 0.62585 0.38744 0.0
H369 H 0.52776 0.73073 0.42959 0.0
H370 H 0.4675 0.72008 0.38446 0.0
H371 H 0.42438 0.67492 0.34369 0.0
H372 H 0.47148 0.5689 0.30452 0.0
H373 H 0.53547 0.58603 0.33713 0.0
C374 C 0.55145 0.64692 0.38539 0.0
C375 C 0.55519 0.67901 0.41127 0.0
C376 C 0.51681 0.63999 0.36048 0.0
C377 C 0.52546 0.7061 0.40922 0.0
C378 C 0.49092 0.69974 0.38387 0.0
C379 C 0.44899 0.65618 0.3412 0.0
C380 C 0.4432 0.62045 0.32245 0.0
C381 C 0.48564 0.66594 0.36086 0.0
C382 C 0.47522 0.59629 0.31946 0.0
C383 C 0.51176 0.60604 0.33811 0.0
H384 H 0.29635 0.46481 0.60427 0.0
H385 H 0.40355 0.42202 0.66598 0.0
H386 H 0.41284 0.48045 0.70595 0.0
H387 H 0.39546 0.54642 0.71606 0.0
H388 H 0.29003 0.59129 0.6534 0.0
H389 H 0.2746 0.52933 0.62175 0.0
C390 C 0.3212 0.468 0.62724 0.0
C391 C 0.34949 0.4393 0.63171 0.0
C392 C 0.32687 0.5022 0.64962 0.0
C393 C 0.38163 0.44387 0.66151 0.0
C394 C 0.38702 0.4773 0.68437 0.0
C395 C 0.36873 0.54235 0.69609 0.0
C396 C 0.34408 0.57323 0.68662 0.0
C397 C 0.36062 0.50708 0.67752 0.0
C398 C 0.30936 0.56777 0.66111 0.0
C399 C 0.30075 0.53246 0.64279 0.0
H400 H 0.0202 0.78443 0.06384 0.0
H401 H 0.07157 0.87853 0.1343 0.0
H402 H 0.01495 0.88275 0.17606 0.0
H403 H 0.94709 0.86608 0.18528 0.0
H404 H 0.89333 0.7746 0.11327 0.0
H405 H 0.95456 0.76238 0.08 0.0
C406 C 0.01933 0.8053 0.08895 0.0
C407 C 0.04994 0.83149 0.09542 0.0
C408 C 0.98606 0.80813 0.11247 0.0
C409 C 0.0483 0.85835 0.12816 0.0
C410 C 0.01586 0.86082 0.15214 0.0
C411 C 0.94935 0.84269 0.16337 0.0
C412 C 0.91624 0.82099 0.15189 0.0
C413 C 0.98406 0.83677 0.14355 0.0
C414 C 0.91886 0.79119 0.12292 0.0
C415 C 0.95368 0.78455 0.1036 0.0
H416 H 0.62143 0.58949 0.62776 0.0
H417 H 0.74288 0.57456 0.6077 0.0
H418 H 0.74758 0.52438 0.66209 0.0
H419 H 0.71374 0.4781 0.70592 0.0
H420 H 0.59179 0.49349 0.72404 0.0
H421 H 0.59069 0.55071 0.68045 0.0
C422 C 0.64913 0.57578 0.63612 0.0
C423 C 0.68163 0.58508 0.61366 0.0
C424 C 0.65133 0.54691 0.66675 0.0
C425 C 0.71753 0.56769 0.62478 0.0
C426 C 0.72008 0.53886 0.65557 0.0
C427 C 0.68732 0.49471 0.70139 0.0
C428 C 0.65272 0.48141 0.7175 0.0
C429 C 0.68674 0.52723 0.67549 0.0
C430 C 0.61859 0.50301 0.71136 0.0
C431 C 0.61792 0.5356 0.68637 0.0
H432 H 0.97152 0.20045 0.14269 0.0
H433 H 0.91035 0.09829 0.17158 0.0
H434 H 0.96483 0.07839 0.22049 0.0
H435 H 0.03336 0.08521 0.24569 0.0
H436 H 0.09644 0.18523 0.21387 0.0
H437 H 0.03758 0.21122 0.17624 0.0
C438 C 0.96967 0.1744 0.16069 0.0
C439 C 0.93717 0.15065 0.15321 0.0
C440 C 0.0017 0.16252 0.18777 0.0
C441 C 0.93525 0.11685 0.17653 0.0
C442 C 0.96645 0.10538 0.20435 0.0
C443 C 0.03397 0.11298 0.23109 0.0
C444 C 0.06918 0.13306 0.23188 0.0
C445 C 1.00041 0.12719 0.2087 0.0
C446 C 0.0696 0.16926 0.21359 0.0
C447 C 0.03604 0.18398 0.19182 0.0
H448 H 0.26775 0.76612 0.08935 0.0
H449 H 0.15194 0.73738 0.12316 0.0
H450 H 0.17831 0.68748 0.17024 0.0
H451 H 0.23377 0.64891 0.19843 0.0
H452 H 0.34945 0.67692 0.16495 0.0
H453 H 0.32382 0.73021 0.1216 0.0
C454 C 0.24831 0.74922 0.10732 0.0
C455 C 0.20784 0.75538 0.1022 0.0
C456 C 0.26364 0.72017 0.13429 0.0
C457 C 0.18317 0.73317 0.126 0.0
C458 C 0.1982 0.70452 0.15302 0.0
C459 C 0.25326 0.66692 0.1818 0.0
C460 C 0.29322 0.65874 0.1841 0.0
C461 C 0.23827 0.69729 0.15681 0.0
C462 C 0.31845 0.68247 0.16305 0.0
C463 C 0.3038 0.71288 0.13829 0.0
H464 H 0.67746 0.773 0.60993 0.0
H465 H 0.78164 0.71292 0.58177 0.0
H466 H 0.81823 0.74505 0.64026 0.0
H467 H 0.82067 0.78944 0.7005 0.0
H468 H 0.71709 0.84976 0.7287 0.0
H469 H 0.68025 0.81842 0.66917 0.0
C470 C 0.70821 0.76706 0.61641 0.0
C471 C 0.72668 0.74055 0.59136 0.0
C472 C 0.72917 0.78554 0.6503 0.0
C473 C 0.76658 0.73319 0.6004 0.0
C474 C 0.7876 0.7515 0.63393 0.0
C475 C 0.78999 0.7955 0.69352 0.0
C476 C 0.77135 0.82125 0.71911 0.0
C477 C 0.76916 0.77752 0.65925 0.0
C478 C 0.73181 0.82956 0.70964 0.0
C479 C 0.71082 0.81174 0.67561 0.0
H480 H 0.80889 0.25682 0.1572 0.0
H481 H 0.72259 0.17909 0.10294 0.0
H482 H 0.67371 0.20649 0.14598 0.0
H483 H 0.65373 0.25622 0.19371 0.0
H484 H 0.73831 0.33602 0.24618 0.0
H485 H 0.78969 0.30402 0.20967 0.0
C486 C 0.77955 0.24553 0.15536 0.0
C487 C 0.76933 0.21621 0.12656 0.0
C488 C 0.75119 0.26198 0.17967 0.0
C489 C 0.73112 0.20195 0.12445 0.0
C490 C 0.7031 0.21759 0.14906 0.0
C491 C 0.68354 0.26623 0.1976 0.0
C492 C 0.69237 0.29841 0.22237 0.0
C493 C 0.71254 0.24819 0.17592 0.0
C494 C 0.73103 0.31121 0.22721 0.0
C495 C 0.76027 0.29303 0.20623 0.0
H496 H 0.25868 0.32241 0.67011 0.0
H497 H 0.33076 0.2259 0.64743 0.0
H498 H 0.30595 0.19325 0.70821 0.0
H499 H 0.26309 0.19119 0.76755 0.0
H500 H 0.19012 0.28649 0.79042 0.0
H501 H 0.21569 0.32035 0.73002 0.0
C502 C 0.26906 0.29431 0.67856 0.0
C503 C 0.29652 0.27674 0.65397 0.0
C504 C 0.25445 0.27536 0.71368 0.0
C505 C 0.30951 0.24019 0.66547 0.0
C506 C 0.29536 0.22138 0.70034 0.0
C507 C 0.25309 0.21949 0.75937 0.0
C508 C 0.22539 0.23666 0.7837 0.0
C509 C 0.26775 0.23859 0.72458 0.0
C510 C 0.21193 0.27301 0.77243 0.0
C511 C 0.22648 0.29229 0.7379 0.0
H512 H 0.69074 0.76912 0.40323 0.0
H513 H 0.75468 0.66457 0.39908 0.0
H514 H 0.78268 0.68488 0.33369 0.0
H515 H 0.78802 0.73147 0.27629 0.0
H516 H 0.72395 0.83557 0.27897 0.0
H517 H 0.69727 0.81653 0.34635 0.0
C518 C 0.71095 0.75086 0.38816 0.0
C519 C 0.72045 0.71533 0.40621 0.0
C520 C 0.72688 0.76259 0.35015 0.0
C521 C 0.74667 0.69204 0.38605 0.0
C522 C 0.76278 0.70359 0.34853 0.0
C523 C 0.76817 0.74988 0.2917 0.0
C524 C 0.75737 0.78454 0.27259 0.0
C525 C 0.75288 0.73863 0.33011 0.0
C526 C 0.73217 0.80852 0.29304 0.0
C527 C 0.71699 0.79765 0.33147 0.0
H528 H 0.77369 0.21795 0.91278 0.0
H529 H 0.8299 0.30229 0.9949 0.0
H530 H 0.8115 0.35113 0.94233 0.0
H531 H 0.7792 0.37012 0.87298 0.0
H532 H 0.72244 0.28624 0.79139 0.0
H533 H 0.74119 0.23692 0.84383 0.0
C534 C 0.78192 0.247 0.91927 0.0
C535 C 0.8031 0.25636 0.95784 0.0
C536 C 0.77125 0.27501 0.88891 0.0
C537 C 0.81352 0.29421 0.96557 0.0
C538 C 0.80305 0.32222 0.9355 0.0
C539 C 0.77132 0.34094 0.86672 0.0
C540 C 0.75034 0.33147 0.82822 0.0
C541 C 0.78197 0.31294 0.89707 0.0
C542 C 0.73931 0.29386 0.82059 0.0
C543 C 0.74989 0.26578 0.85057 0.0
H544 H 0.32245 0.22615 0.4552 0.0
H545 H 0.22045 0.28715 0.48851 0.0
H546 H 0.17899 0.2441 0.44493 0.0
H547 H 0.17153 0.18731 0.39984 0.0
H548 H 0.27343 0.12591 0.36814 0.0
H549 H 0.31527 0.17113 0.4085 0.0
C550 C 0.29117 0.23026 0.45286 0.0
C551 C 0.27464 0.25978 0.47544 0.0
C552 C 0.2675 0.20519 0.42818 0.0
C553 C 0.23401 0.26462 0.4717 0.0
C554 C 0.21025 0.23997 0.44681 0.0
C555 C 0.20291 0.18396 0.40186 0.0
C556 C 0.21955 0.15313 0.38178 0.0
C557 C 0.22664 0.20987 0.42538 0.0
C558 C 0.26018 0.14926 0.3839 0.0
C559 C 0.28399 0.17506 0.40689 0.0
H560 H 0.25486 0.81487 0.91083 0.0
H561 H 0.18094 0.71984 0.93496 0.0
H562 H 0.21652 0.68103 0.88698 0.0
H563 H 0.27153 0.67255 0.84194 0.0
H564 H 0.34614 0.76674 0.81842 0.0
H565 H 0.30717 0.8075 0.86181 0.0
C566 C 0.2463 0.78576 0.90539 0.0
C567 C 0.21543 0.77032 0.927 0.0
C568 C 0.26712 0.76336 0.87788 0.0
C569 C 0.20469 0.73255 0.91915 0.0
C570 C 0.22506 0.71023 0.89166 0.0
C571 C 0.27896 0.70209 0.84609 0.0
C572 C 0.31192 0.71661 0.8277 0.0
C573 C 0.25674 0.72511 0.87147 0.0
C574 C 0.32107 0.75499 0.83273 0.0
C575 C 0.29888 0.7782 0.8576 0.0
loop_
_geom_bond_atom_site_label_1
_geom_bond_atom_site_label_2
_geom_bond_distance
_geom_bond_site_symmetry_2
_ccdc_geom_bond_type
Fe0 O2 1.918 1_554 S
Fe0 O5 1.997 . S
Fe0 O6 2.002 . S
Fe0 O11 1.976 1_554 S
Fe0 O14 1.996 1_554 S
Fe1 O2 1.918 1_554 S
Fe1 O9 1.997 . S
Fe1 O12 1.996 1_554 S
Fe1 O16 1.976 1_554 S
Fe1 O19 2.002 . S
O2 Fe0 1.918 1_556 S
O2 Fe1 1.918 1_556 S
O2 Fe3 1.918 . S
Fe3 O2 1.918 . S
Fe3 O4 2.002 1_556 S
Fe3 O13 1.976 . S
Fe3 O17 1.996 . S
Fe3 O20 1.997 1_556 S
O4 Fe3 2.002 1_554 S
O4 C21 1.295 . S
O5 Fe0 1.997 . S
O5 C21 1.235 . S
O6 Fe0 2.002 . S
O6 C7 1.295 . S
C7 O6 1.295 . S
C7 O9 1.235 . S
C8 O13 1.287 . S
C8 O14 1.255 . S
O9 Fe1 1.997 . S
O9 C7 1.235 . S
C10 O16 1.287 . S
C10 O17 1.255 . S
O11 Fe0 1.976 1_556 S
O11 C18 1.287 . S
O12 Fe1 1.996 1_556 S
O12 C18 1.255 . S
O13 Fe3 1.976 . S
O13 C8 1.287 . S
O14 Fe0 1.996 1_556 S
O14 C8 1.255 . S
C15 O19 1.295 . S
C15 O20 1.235 . S
O16 Fe1 1.976 1_556 S
O16 C10 1.287 . S
O17 Fe3 1.996 . S
O17 C10 1.255 . S
C18 O11 1.287 . S
C18 O12 1.255 . S
O19 Fe1 2.002 . S
O19 C15 1.295 . S
O20 Fe3 1.997 1_554 S
O20 C15 1.235 . S
C21 O4 1.295 . S
C21 O5 1.235 . S
Fe22 O24 1.918 . S
Fe22 O27 1.997 . S
Fe22 O28 2.002 . S
Fe22 O33 1.976 . S
Fe22 O36 1.996 . S
Fe23 O24 1.918 . S
Fe23 O31 1.997 . S
Fe23 O34 1.996 . S
Fe23 O38 1.976 . S
Fe23 O41 2.002 . S
O24 Fe22 1.918 . S
O24 Fe23 1.918 . S
O24 Fe25 1.918 . S
Fe25 O24 1.918 . S
Fe25 O26 2.002 . S
Fe25 O35 1.976 . S
Fe25 O39 1.996 . S
Fe25 O42 1.997 . S
O26 Fe25 2.002 . S
O26 C43 1.295 . S
O27 Fe22 1.997 . S
O27 C43 1.235 . S
O28 Fe22 2.002 . S
O28 C29 1.295 . S
C29 O28 1.295 . S
C29 O31 1.235 . S
C30 O35 1.287 . S
C30 O36 1.255 . S
O31 Fe23 1.997 . S
O31 C29 1.235 . S
C32 O38 1.287 . S
C32 O39 1.255 . S
O33 Fe22 1.976 . S
O33 C40 1.287 . S
O34 Fe23 1.996 . S
O34 C40 1.255 . S
O35 Fe25 1.976 . S
O35 C30 1.287 . S
O36 Fe22 1.996 . S
O36 C30 1.255 . S
C37 O41 1.295 . S
C37 O42 1.235 . S
O38 Fe23 1.976 . S
O38 C32 1.287 . S
O39 Fe25 1.996 . S
O39 C32 1.255 . S
C40 O33 1.287 . S
C40 O34 1.255 . S
O41 Fe23 2.002 . S
O41 C37 1.295 . S
O42 Fe25 1.997 . S
O42 C37 1.235 . S
C43 O26 1.295 . S
C43 O27 1.235 . S
Fe44 O46 1.918 . S
Fe44 O49 1.997 . S
Fe44 O50 2.002 . S
Fe44 O55 1.976 . S
Fe44 O58 1.996 . S
Fe45 O46 1.918 . S
Fe45 O53 1.997 . S
Fe45 O56 1.996 . S
Fe45 O60 1.976 . S
Fe45 O63 2.002 1_554 S
O46 Fe44 1.918 . S
O46 Fe45 1.918 . S
O46 Fe47 1.918 . S
Fe47 O46 1.918 . S
Fe47 O48 2.002 . S
Fe47 O57 1.976 . S
Fe47 O61 1.996 . S
Fe47 O64 1.997 1_554 S
O48 Fe47 2.002 . S
O48 C65 1.295 1_554 S
O49 Fe44 1.997 . S
O49 C65 1.235 1_554 S
O50 Fe44 2.002 . S
O50 C51 1.294 . S
C51 O50 1.294 . S
C51 O53 1.235 . S
C52 O57 1.287 . S
C52 O58 1.255 . S
O53 Fe45 1.997 . S
O53 C51 1.235 . S
C54 O60 1.287 . S
C54 O61 1.255 . S
O55 Fe44 1.976 . S
O55 C62 1.287 . S
O56 Fe45 1.996 . S
O56 C62 1.255 . S
O57 Fe47 1.976 . S
O57 C52 1.287 . S
O58 Fe44 1.996 . S
O58 C52 1.255 . S
C59 O63 1.295 . S
C59 O64 1.235 . S
O60 Fe45 1.976 . S
O60 C54 1.287 . S
O61 Fe47 1.996 . S
O61 C54 1.255 . S
C62 O55 1.287 . S
C62 O56 1.255 . S
O63 Fe45 2.002 1_556 S
O63 C59 1.295 . S
O64 Fe47 1.997 1_556 S
O64 C59 1.235 . S
C65 O48 1.295 1_556 S
C65 O49 1.235 1_556 S
Fe66 O68 1.918 . S
Fe66 O71 1.997 . S
Fe66 O72 2.002 . S
Fe66 O77 1.976 . S
Fe66 O80 1.996 . S
Fe67 O68 1.918 . S
Fe67 O75 1.997 . S
Fe67 O78 1.996 . S
Fe67 O82 1.976 . S
Fe67 O85 2.002 . S
O68 Fe66 1.918 . S
O68 Fe67 1.918 . S
O68 Fe69 1.918 . S
Fe69 O68 1.918 . S
Fe69 O70 2.002 . S
Fe69 O79 1.976 . S
Fe69 O83 1.996 . S
Fe69 O86 1.997 . S
O70 Fe69 2.002 . S
O70 C87 1.295 . S
O71 Fe66 1.997 . S
O71 C87 1.235 . S
O72 Fe66 2.002 . S
O72 C73 1.295 . S
C73 O72 1.295 . S
C73 O75 1.235 . S
C74 O79 1.287 . S
C74 O80 1.255 . S
O75 Fe67 1.997 . S
O75 C73 1.235 . S
C76 O82 1.287 . S
C76 O83 1.255 . S
O77 Fe66 1.976 . S
O77 C84 1.287 . S
O78 Fe67 1.996 . S
O78 C84 1.255 . S
O79 Fe69 1.976 . S
O79 C74 1.287 . S
O80 Fe66 1.996 . S
O80 C74 1.255 . S
C81 O85 1.295 . S
C81 O86 1.235 . S
O82 Fe67 1.976 . S
O82 C76 1.287 . S
O83 Fe69 1.996 . S
O83 C76 1.255 . S
C84 O77 1.287 . S
C84 O78 1.255 . S
O85 Fe67 2.002 . S
O85 C81 1.295 . S
O86 Fe69 1.997 . S
O86 C81 1.235 . S
C87 O70 1.295 . S
C87 O71 1.235 . S
H88 C95 0.929 . S
H89 C98 0.930 . S
H90 C100 0.929 . S
H91 C92 0.969 . S
C92 H91 0.969 . S
C92 O93 1.550 . S
C92 H94 0.973 . S
O93 C92 1.550 . S
O93 C99 1.412 . S
H94 C92 0.973 . S
C95 H88 0.929 . S
C95 C96 1.400 . S
C95 C97 1.364 . S
C96 C95 1.400 . S
C96 C100 1.377 . S
C97 C95 1.364 . S
C97 C98 1.374 . S
C98 H89 0.930 . S
C98 C97 1.374 . S
C98 C99 1.383 . S
C99 O93 1.412 . S
C99 C98 1.383 . S
C99 C100 1.394 . S
C100 H90 0.929 . S
C100 C96 1.377 . S
C100 C99 1.394 . S
H101 C108 0.929 . S
H102 C111 0.930 . S
H103 C113 0.929 . S
H104 C105 0.969 . S
C105 H104 0.969 . S
C105 O106 1.550 . S
C105 H107 0.973 . S
O106 C105 1.550 . S
O106 C112 1.412 . S
H107 C105 0.973 . S
C108 H101 0.929 . S
C108 C109 1.400 . S
C108 C110 1.364 . S
C109 C108 1.400 . S
C109 C113 1.377 . S
C110 C108 1.364 . S
C110 C111 1.374 . S
C111 H102 0.930 . S
C111 C110 1.374 . S
C111 C112 1.383 . S
C112 O106 1.412 . S
C112 C111 1.383 . S
C112 C113 1.394 . S
C113 H103 0.929 . S
C113 C109 1.377 . S
C113 C112 1.394 . S
H114 C121 0.929 . S
H115 C124 0.930 . S
H116 C126 0.929 . S
H117 C118 0.969 . S
C118 H117 0.969 . S
C118 O119 1.550 . S
C118 H120 0.973 . S
O119 C118 1.550 . S
O119 C125 1.412 . S
H120 C118 0.973 . S
C121 H114 0.929 . S
C121 C122 1.400 . S
C121 C123 1.364 . S
C122 C121 1.400 . S
C122 C126 1.377 . S
C123 C121 1.364 . S
C123 C124 1.374 . S
C124 H115 0.930 . S
C124 C123 1.374 . S
C124 C125 1.383 . S
C125 O119 1.412 . S
C125 C124 1.383 . S
C125 C126 1.394 . S
C126 H116 0.929 . S
C126 C122 1.377 . S
C126 C125 1.394 . S
H127 C134 0.929 . S
H128 C137 0.930 . S
H129 C139 0.929 . S
H130 C131 0.969 . S
C131 H130 0.969 . S
C131 O132 1.550 . S
C131 H133 0.973 . S
O132 C131 1.550 . S
O132 C138 1.412 . S
H133 C131 0.973 . S
C134 H127 0.929 . S
C134 C135 1.400 . S
C134 C136 1.364 . S
C135 C134 1.400 . S
C135 C139 1.377 . S
C136 C134 1.364 . S
C136 C137 1.374 . S
C137 H128 0.930 . S
C137 C136 1.374 . S
C137 C138 1.383 . S
C138 O132 1.412 . S
C138 C137 1.383 . S
C138 C139 1.394 . S
C139 H129 0.929 . S
C139 C135 1.377 . S
C139 C138 1.394 . S
H140 C147 0.929 . S
H141 C150 0.930 . S
H142 C152 0.929 . S
H143 C144 0.969 . S
C144 H143 0.969 . S
C144 O145 1.550 . S
C144 H146 0.973 . S
O145 C144 1.550 . S
O145 C151 1.412 . S
H146 C144 0.973 . S
C147 H140 0.929 . S
C147 C148 1.400 . S
C147 C149 1.364 . S
C148 C147 1.400 . S
C148 C152 1.377 . S
C149 C147 1.364 . S
C149 C150 1.374 . S
C150 H141 0.930 . S
C150 C149 1.374 . S
C150 C151 1.383 . S
C151 O145 1.412 . S
C151 C150 1.383 . S
C151 C152 1.394 . S
C152 H142 0.929 . S
C152 C148 1.377 . S
C152 C151 1.394 . S
H153 C160 0.929 . S
H154 C163 0.930 . S
H155 C165 0.929 . S
H156 C157 0.969 . S
C157 H156 0.969 . S
C157 O158 1.550 . S
C157 H159 0.973 . S
O158 C157 1.550 . S
O158 C164 1.412 . S
H159 C157 0.973 . S
C160 H153 0.929 . S
C160 C161 1.400 . S
C160 C162 1.364 . S
C161 C160 1.400 . S
C161 C165 1.377 . S
C162 C160 1.364 . S
C162 C163 1.374 . S
C163 H154 0.930 . S
C163 C162 1.374 . S
C163 C164 1.383 . S
C164 O158 1.412 . S
C164 C163 1.383 . S
C164 C165 1.394 . S
C165 H155 0.929 . S
C165 C161 1.377 . S
C165 C164 1.394 . S
H166 C173 0.929 . S
H167 C176 0.930 . S
H168 C178 0.929 . S
H169 C170 0.969 . S
C170 H169 0.969 . S
C170 O171 1.550 . S
C170 H172 0.973 . S
O171 C170 1.550 . S
O171 C177 1.412 . S
H172 C170 0.973 . S
C173 H166 0.929 . S
C173 C174 1.400 . S
C173 C175 1.364 . S
C174 C173 1.400 . S
C174 C178 1.377 . S
C175 C173 1.364 . S
C175 C176 1.374 . S
C176 H167 0.930 . S
C176 C175 1.374 . S
C176 C177 1.383 . S
C177 O171 1.412 . S
C177 C176 1.383 . S
C177 C178 1.394 . S
C178 H168 0.929 . S
C178 C174 1.377 . S
C178 C177 1.394 . S
H179 C186 0.929 . S
H180 C189 0.930 . S
H181 C191 0.929 . S
H182 C183 0.969 . S
C183 H182 0.969 . S
C183 O184 1.550 . S
C183 H185 0.973 . S
O184 C183 1.550 . S
O184 C190 1.412 . S
H185 C183 0.973 . S
C186 H179 0.929 . S
C186 C187 1.400 . S
C186 C188 1.364 . S
C187 C186 1.400 . S
C187 C191 1.377 . S
C188 C186 1.364 . S
C188 C189 1.374 . S
C189 H180 0.930 . S
C189 C188 1.374 . S
C189 C190 1.383 . S
C190 O184 1.412 . S
C190 C189 1.383 . S
C190 C191 1.394 . S
C191 H181 0.929 . S
C191 C187 1.377 . S
C191 C190 1.394 . S
H192 C198 0.930 . S
H193 C201 0.930 . S
H194 C202 0.930 . S
H195 C203 0.930 . S
H196 C206 0.930 . S
H197 C207 0.930 . S
C198 H192 0.930 . S
C198 C199 1.355 . S
C198 C200 1.415 . S
C199 C198 1.355 . S
C199 C201 1.419 . S
C200 C198 1.415 . S
C200 C205 1.425 . S
C200 C207 1.409 . S
C201 H193 0.930 . S
C201 C199 1.419 . S
C201 C202 1.362 . S
C202 H194 0.930 . S
C202 C201 1.362 . S
C202 C205 1.409 . S
C203 H195 0.930 . S
C203 C204 1.355 . S
C203 C205 1.415 1_545 S
C204 C203 1.355 . S
C204 C206 1.419 . S
C205 C200 1.425 . S
C205 C202 1.409 . S
C205 C203 1.415 1_565 S
C206 H196 0.930 . S
C206 C204 1.419 . S
C206 C207 1.362 1_545 S
C207 H197 0.930 . S
C207 C200 1.409 . S
C207 C206 1.362 1_565 S
H208 C214 0.930 . S
H209 C217 0.930 . S
H210 C218 0.930 . S
H211 C219 0.930 . S
H212 C222 0.930 . S
H213 C223 0.930 . S
C214 H208 0.930 . S
C214 C215 1.355 . S
C214 C216 1.415 . S
C215 C214 1.355 . S
C215 C217 1.419 . S
C216 C214 1.415 . S
C216 C221 1.425 . S
C216 C223 1.409 . S
C217 H209 0.930 . S
C217 C215 1.419 . S
C217 C218 1.362 . S
C218 H210 0.930 . S
C218 C217 1.362 . S
C218 C221 1.409 . S
C219 H211 0.930 . S
C219 C220 1.355 . S
C219 C221 1.415 . S
C220 C219 1.355 . S
C220 C222 1.419 . S
C221 C216 1.425 . S
C221 C218 1.409 . S
C221 C219 1.415 . S
C222 H212 0.930 . S
C222 C220 1.419 . S
C222 C223 1.362 . S
C223 H213 0.930 . S
C223 C216 1.409 . S
C223 C222 1.362 . S
H224 C230 0.930 1_545 S
H225 C233 0.930 . S
H226 C234 0.930 . S
H227 C235 0.930 . S
H228 C238 0.930 . S
H229 C239 0.930 . S
C230 H224 0.930 1_565 S
C230 C231 1.355 1_565 S
C230 C232 1.415 . S
C231 C230 1.355 1_545 S
C231 C233 1.419 . S
C232 C230 1.415 . S
C232 C237 1.425 . S
C232 C239 1.409 . S
C233 H225 0.930 . S
C233 C231 1.419 . S
C233 C234 1.362 1_545 S
C234 H226 0.930 . S
C234 C233 1.362 1_565 S
C234 C237 1.409 . S
C235 H227 0.930 . S
C235 C236 1.355 . S
C235 C237 1.415 . S
C236 C235 1.355 . S
C236 C238 1.419 . S
C237 C232 1.425 . S
C237 C234 1.409 . S
C237 C235 1.415 . S
C238 H228 0.930 . S
C238 C236 1.419 . S
C238 C239 1.362 . S
C239 H229 0.930 . S
C239 C232 1.409 . S
C239 C238 1.362 . S
H240 C246 0.930 . S
H241 C249 0.930 . S
H242 C250 0.930 . S
H243 C251 0.930 . S
H244 C254 0.930 . S
H245 C255 0.930 . S
C246 H240 0.930 . S
C246 C247 1.355 . S
C246 C248 1.415 . S
C247 C246 1.355 . S
C247 C249 1.419 . S
C248 C246 1.415 . S
C248 C253 1.425 . S
C248 C255 1.409 . S
C249 H241 0.930 . S
C249 C247 1.419 . S
C249 C250 1.362 . S
C250 H242 0.930 . S
C250 C249 1.362 . S
C250 C253 1.409 . S
C251 H243 0.930 . S
C251 C252 1.355 . S
C251 C253 1.415 . S
C252 C251 1.355 . S
C252 C254 1.419 . S
C253 C248 1.425 . S
C253 C250 1.409 . S
C253 C251 1.415 . S
C254 H244 0.930 . S
C254 C252 1.419 . S
C254 C255 1.362 . S
C255 H245 0.930 . S
C255 C248 1.409 . S
C255 C254 1.362 . S
H256 C262 0.930 . S
H257 C265 0.930 . S
H258 C266 0.930 . S
H259 C267 0.930 . S
H260 C270 0.930 . S
H261 C271 0.930 . S
C262 H256 0.930 . S
C262 C263 1.355 . S
C262 C264 1.415 . S
C263 C262 1.355 . S
C263 C265 1.419 . S
C264 C262 1.415 . S
C264 C269 1.425 . S
C264 C271 1.409 . S
C265 H257 0.930 . S
C265 C263 1.419 . S
C265 C266 1.362 . S
C266 H258 0.930 . S
C266 C265 1.362 . S
C266 C269 1.409 . S
C267 H259 0.930 . S
C267 C268 1.355 . S
C267 C269 1.415 . S
C268 C267 1.355 . S
C268 C270 1.419 . S
C269 C264 1.425 . S
C269 C266 1.409 . S
C269 C267 1.415 . S
C270 H260 0.930 . S
C270 C268 1.419 . S
C270 C271 1.362 . S
C271 H261 0.930 . S
C271 C264 1.409 . S
C271 C270 1.362 . S
H272 C278 0.930 . S
H273 C281 0.930 . S
H274 C282 0.930 . S
H275 C283 0.930 . S
H276 C286 0.930 . S
H277 C287 0.930 . S
C278 H272 0.930 . S
C278 C279 1.355 1_455 S
C278 C280 1.415 . S
C279 C278 1.355 1_655 S
C279 C281 1.419 . S
C280 C278 1.415 . S
C280 C285 1.425 . S
C280 C287 1.409 . S
C281 H273 0.930 . S
C281 C279 1.419 . S
C281 C282 1.362 1_655 S
C282 H274 0.930 . S
C282 C281 1.362 1_455 S
C282 C285 1.409 . S
C283 H275 0.930 . S
C283 C284 1.355 . S
C283 C285 1.415 . S
C284 C283 1.355 . S
C284 C286 1.419 . S
C285 C280 1.425 . S
C285 C282 1.409 . S
C285 C283 1.415 . S
C286 H276 0.930 . S
C286 C284 1.419 . S
C286 C287 1.362 . S
C287 H277 0.930 . S
C287 C280 1.409 . S
C287 C286 1.362 . S
H288 C294 0.930 . S
H289 C297 0.930 . S
H290 C298 0.930 . S
H291 C299 0.930 . S
H292 C302 0.930 . S
H293 C303 0.930 . S
C294 H288 0.930 . S
C294 C295 1.355 . S
C294 C296 1.415 . S
C295 C294 1.355 . S
C295 C297 1.419 . S
C296 C294 1.415 . S
C296 C301 1.425 . S
C296 C303 1.409 . S
C297 H289 0.930 . S
C297 C295 1.419 . S
C297 C298 1.362 . S
C298 H290 0.930 . S
C298 C297 1.362 . S
C298 C301 1.409 . S
C299 H291 0.930 . S
C299 C300 1.355 . S
C299 C301 1.415 . S
C300 C299 1.355 . S
C300 C302 1.419 . S
C301 C296 1.425 . S
C301 C298 1.409 . S
C301 C299 1.415 . S
C302 H292 0.930 . S
C302 C300 1.419 . S
C302 C303 1.362 . S
C303 H293 0.930 . S
C303 C296 1.409 . S
C303 C302 1.362 . S
H304 C310 0.930 . S
H305 C313 0.930 . S
H306 C314 0.930 . S
H307 C315 0.930 . S
H308 C318 0.930 . S
H309 C319 0.930 1_455 S
C310 H304 0.930 . S
C310 C311 1.355 . S
C310 C312 1.415 1_455 S
C311 C310 1.355 . S
C311 C313 1.419 1_455 S
C312 C310 1.415 1_655 S
C312 C317 1.425 . S
C312 C319 1.409 . S
C313 H305 0.930 . S
C313 C311 1.419 1_655 S
C313 C314 1.362 . S
C314 H306 0.930 . S
C314 C313 1.362 . S
C314 C317 1.409 . S
C315 H307 0.930 . S
C315 C316 1.355 . S
C315 C317 1.415 . S
C316 C315 1.355 . S
C316 C318 1.419 . S
C317 C312 1.425 . S
C317 C314 1.409 . S
C317 C315 1.415 . S
C318 H308 0.930 . S
C318 C316 1.419 . S
C318 C319 1.362 . S
C319 H309 0.930 1_655 S
C319 C312 1.409 . S
C319 C318 1.362 . S
H320 C326 0.930 . S
H321 C329 0.930 . S
H322 C330 0.930 . S
H323 C331 0.930 . S
H324 C334 0.930 . S
H325 C335 0.930 . S
C326 H320 0.930 . S
C326 C327 1.355 . S
C326 C328 1.415 . S
C327 C326 1.355 . S
C327 C329 1.419 . S
C328 C326 1.415 . S
C328 C333 1.425 . S
C328 C335 1.409 1_545 S
C329 H321 0.930 . S
C329 C327 1.419 . S
C329 C330 1.362 . S
C330 H322 0.930 . S
C330 C329 1.362 . S
C330 C333 1.409 . S
C331 H323 0.930 . S
C331 C332 1.355 1_545 S
C331 C333 1.415 . S
C332 C331 1.355 1_565 S
C332 C334 1.419 . S
C333 C328 1.425 . S
C333 C330 1.409 . S
C333 C331 1.415 . S
C334 H324 0.930 . S
C334 C332 1.419 . S
C334 C335 1.362 . S
C335 H325 0.930 . S
C335 C328 1.409 1_565 S
C335 C334 1.362 . S
H336 C342 0.930 . S
H337 C345 0.930 . S
H338 C346 0.930 . S
H339 C347 0.930 . S
H340 C350 0.930 . S
H341 C351 0.930 . S
C342 H336 0.930 . S
C342 C343 1.355 . S
C342 C344 1.415 . S
C343 C342 1.355 . S
C343 C345 1.419 . S
C344 C342 1.415 . S
C344 C349 1.425 . S
C344 C351 1.409 . S
C345 H337 0.930 . S
C345 C343 1.419 . S
C345 C346 1.362 . S
C346 H338 0.930 . S
C346 C345 1.362 . S
C346 C349 1.409 . S
C347 H339 0.930 . S
C347 C348 1.355 . S
C347 C349 1.415 . S
C348 C347 1.355 . S
C348 C350 1.419 . S
C349 C344 1.425 . S
C349 C346 1.409 . S
C349 C347 1.415 . S
C350 H340 0.930 . S
C350 C348 1.419 . S
C350 C351 1.362 . S
C351 H341 0.930 . S
C351 C344 1.409 . S
C351 C350 1.362 . S
H352 C358 0.931 . S
H353 C361 0.930 . S
H354 C362 0.930 . S
H355 C363 0.930 . S
H356 C366 0.930 . S
H357 C367 0.930 . S
C358 H352 0.931 . S
C358 C359 1.355 1_545 S
C358 C360 1.415 . S
C359 C358 1.355 1_565 S
C359 C361 1.419 . S
C360 C358 1.415 . S
C360 C365 1.425 . S
C360 C367 1.409 . S
C361 H353 0.930 . S
C361 C359 1.419 . S
C361 C362 1.362 1_565 S
C362 H354 0.930 . S
C362 C361 1.362 1_545 S
C362 C365 1.409 . S
C363 H355 0.930 . S
C363 C364 1.355 . S
C363 C365 1.415 . S
C364 C363 1.355 . S
C364 C366 1.419 . S
C365 C360 1.425 . S
C365 C362 1.409 . S
C365 C363 1.415 . S
C366 H356 0.930 . S
C366 C364 1.419 . S
C366 C367 1.362 . S
C367 H357 0.930 . S
C367 C360 1.409 . S
C367 C366 1.362 . S
H368 C374 0.930 . S
H369 C377 0.930 . S
H370 C378 0.930 . S
H371 C379 0.930 . S
H372 C382 0.930 . S
H373 C383 0.930 . S
C374 H368 0.930 . S
C374 C375 1.355 . S
C374 C376 1.415 . S
C375 C374 1.355 . S
C375 C377 1.419 . S
C376 C374 1.415 . S
C376 C381 1.425 . S
C376 C383 1.409 . S
C377 H369 0.930 . S
C377 C375 1.419 . S
C377 C378 1.362 . S
C378 H370 0.930 . S
C378 C377 1.362 . S
C378 C381 1.409 . S
C379 H371 0.930 . S
C379 C380 1.355 . S
C379 C381 1.415 . S
C380 C379 1.355 . S
C380 C382 1.419 . S
C381 C376 1.425 . S
C381 C378 1.409 . S
C381 C379 1.415 . S
C382 H372 0.930 . S
C382 C380 1.419 . S
C382 C383 1.362 . S
C383 H373 0.930 . S
C383 C376 1.409 . S
C383 C382 1.362 . S
H384 C390 0.930 . S
H385 C393 0.930 . S
H386 C394 0.930 . S
H387 C395 0.930 . S
H388 C398 0.930 . S
H389 C399 0.930 . S
C390 H384 0.930 . S
C390 C391 1.355 . S
C390 C392 1.415 . S
C391 C390 1.355 . S
C391 C393 1.419 . S
C392 C390 1.415 . S
C392 C397 1.425 . S
C392 C399 1.409 . S
C393 H385 0.930 . S
C393 C391 1.419 . S
C393 C394 1.362 . S
C394 H386 0.930 . S
C394 C393 1.362 . S
C394 C397 1.409 . S
C395 H387 0.930 . S
C395 C396 1.355 . S
C395 C397 1.415 . S
C396 C395 1.355 . S
C396 C398 1.419 . S
C397 C392 1.425 . S
C397 C394 1.409 . S
C397 C395 1.415 . S
C398 H388 0.930 . S
C398 C396 1.419 . S
C398 C399 1.362 . S
C399 H389 0.930 . S
C399 C392 1.409 . S
C399 C398 1.362 . S
H400 C406 0.930 . S
H401 C409 0.930 . S
H402 C410 0.930 . S
H403 C411 0.930 . S
H404 C414 0.930 . S
H405 C415 0.930 . S
C406 H400 0.930 . S
C406 C407 1.355 1_655 S
C406 C408 1.415 . S
C407 C406 1.355 1_455 S
C407 C409 1.419 . S
C408 C406 1.415 . S
C408 C413 1.425 . S
C408 C415 1.409 . S
C409 H401 0.930 . S
C409 C407 1.419 . S
C409 C410 1.362 1_455 S
C410 H402 0.930 . S
C410 C409 1.362 1_655 S
C410 C413 1.409 . S
C411 H403 0.930 . S
C411 C412 1.355 . S
C411 C413 1.415 . S
C412 C411 1.355 . S
C412 C414 1.419 . S
C413 C408 1.425 . S
C413 C410 1.409 . S
C413 C411 1.415 . S
C414 H404 0.930 . S
C414 C412 1.419 . S
C414 C415 1.362 . S
C415 H405 0.930 . S
C415 C408 1.409 . S
C415 C414 1.362 . S
H416 C422 0.930 . S
H417 C425 0.930 . S
H418 C426 0.930 . S
H419 C427 0.930 . S
H420 C430 0.930 . S
H421 C431 0.930 . S
C422 H416 0.930 . S
C422 C423 1.355 . S
C422 C424 1.415 . S
C423 C422 1.355 . S
C423 C425 1.419 . S
C424 C422 1.415 . S
C424 C429 1.425 . S
C424 C431 1.409 . S
C425 H417 0.930 . S
C425 C423 1.419 . S
C425 C426 1.362 . S
C426 H418 0.930 . S
C426 C425 1.362 . S
C426 C429 1.409 . S
C427 H419 0.930 . S
C427 C428 1.355 . S
C427 C429 1.415 . S
C428 C427 1.355 . S
C428 C430 1.419 . S
C429 C424 1.425 . S
C429 C426 1.409 . S
C429 C427 1.415 . S
C430 H420 0.930 . S
C430 C428 1.419 . S
C430 C431 1.362 . S
C431 H421 0.930 . S
C431 C424 1.409 . S
C431 C430 1.362 . S
H432 C438 0.930 . S
H433 C441 0.930 . S
H434 C442 0.930 . S
H435 C443 0.930 . S
H436 C446 0.930 . S
H437 C447 0.930 . S
C438 H432 0.930 . S
C438 C439 1.355 1_455 S
C438 C440 1.415 . S
C439 C438 1.355 1_655 S
C439 C441 1.419 . S
C440 C438 1.415 . S
C440 C445 1.425 . S
C440 C447 1.409 . S
C441 H433 0.930 . S
C441 C439 1.419 . S
C441 C442 1.362 . S
C442 H434 0.930 . S
C442 C441 1.362 . S
C442 C445 1.409 1_655 S
C443 H435 0.930 . S
C443 C444 1.355 . S
C443 C445 1.415 . S
C444 C443 1.355 . S
C444 C446 1.419 . S
C445 C440 1.425 . S
C445 C442 1.409 1_455 S
C445 C443 1.415 . S
C446 H436 0.930 . S
C446 C444 1.419 . S
C446 C447 1.362 . S
C447 H437 0.930 . S
C447 C440 1.409 . S
C447 C446 1.362 . S
H448 C454 0.930 . S
H449 C457 0.930 . S
H450 C458 0.930 . S
H451 C459 0.930 . S
H452 C462 0.930 . S
H453 C463 0.930 . S
C454 H448 0.930 . S
C454 C455 1.355 . S
C454 C456 1.415 . S
C455 C454 1.355 . S
C455 C457 1.419 . S
C456 C454 1.415 . S
C456 C461 1.425 . S
C456 C463 1.409 . S
C457 H449 0.930 . S
C457 C455 1.419 . S
C457 C458 1.362 . S
C458 H450 0.930 . S
C458 C457 1.362 . S
C458 C461 1.409 . S
C459 H451 0.930 . S
C459 C460 1.355 . S
C459 C461 1.415 . S
C460 C459 1.355 . S
C460 C462 1.419 . S
C461 C456 1.425 . S
C461 C458 1.409 . S
C461 C459 1.415 . S
C462 H452 0.930 . S
C462 C460 1.419 . S
C462 C463 1.362 . S
C463 H453 0.930 . S
C463 C456 1.409 . S
C463 C462 1.362 . S
H464 C470 0.930 . S
H465 C473 0.930 . S
H466 C474 0.930 . S
H467 C475 0.930 . S
H468 C478 0.930 . S
H469 C479 0.930 . S
C470 H464 0.930 . S
C470 C471 1.355 . S
C470 C472 1.415 . S
C471 C470 1.355 . S
C471 C473 1.419 . S
C472 C470 1.415 . S
C472 C477 1.425 . S
C472 C479 1.409 . S
C473 H465 0.930 . S
C473 C471 1.419 . S
C473 C474 1.362 . S
C474 H466 0.930 . S
C474 C473 1.362 . S
C474 C477 1.409 . S
C475 H467 0.930 . S
C475 C476 1.355 . S
C475 C477 1.415 . S
C476 C475 1.355 . S
C476 C478 1.419 . S
C477 C472 1.425 . S
C477 C474 1.409 . S
C477 C475 1.415 . S
C478 H468 0.930 . S
C478 C476 1.419 . S
C478 C479 1.362 . S
C479 H469 0.930 . S
C479 C472 1.409 . S
C479 C478 1.362 . S
H480 C486 0.930 . S
H481 C489 0.930 . S
H482 C490 0.930 . S
H483 C491 0.930 . S
H484 C494 0.930 . S
H485 C495 0.930 . S
C486 H480 0.930 . S
C486 C487 1.355 . S
C486 C488 1.415 . S
C487 C486 1.355 . S
C487 C489 1.419 . S
C488 C486 1.415 . S
C488 C493 1.425 . S
C488 C495 1.409 . S
C489 H481 0.930 . S
C489 C487 1.419 . S
C489 C490 1.362 . S
C490 H482 0.930 . S
C490 C489 1.362 . S
C490 C493 1.409 . S
C491 H483 0.930 . S
C491 C492 1.355 . S
C491 C493 1.415 . S
C492 C491 1.355 . S
C492 C494 1.419 . S
C493 C488 1.425 . S
C493 C490 1.409 . S
C493 C491 1.415 . S
C494 H484 0.930 . S
C494 C492 1.419 . S
C494 C495 1.362 . S
C495 H485 0.930 . S
C495 C488 1.409 . S
C495 C494 1.362 . S
H496 C502 0.930 . S
H497 C505 0.930 . S
H498 C506 0.930 . S
H499 C507 0.930 . S
H500 C510 0.930 . S
H501 C511 0.930 . S
C502 H496 0.930 . S
C502 C503 1.355 . S
C502 C504 1.415 . S
C503 C502 1.355 . S
C503 C505 1.419 . S
C504 C502 1.415 . S
C504 C509 1.425 . S
C504 C511 1.409 . S
C505 H497 0.930 . S
C505 C503 1.419 . S
C505 C506 1.362 . S
C506 H498 0.930 . S
C506 C505 1.362 . S
C506 C509 1.409 . S
C507 H499 0.930 . S
C507 C508 1.355 . S
C507 C509 1.415 . S
C508 C507 1.355 . S
C508 C510 1.419 . S
C509 C504 1.425 . S
C509 C506 1.409 . S
C509 C507 1.415 . S
C510 H500 0.930 . S
C510 C508 1.419 . S
C510 C511 1.362 . S
C511 H501 0.930 . S
C511 C504 1.409 . S
C511 C510 1.362 . S
H512 C518 0.930 . S
H513 C521 0.930 . S
H514 C522 0.930 . S
H515 C523 0.930 . S
H516 C526 0.930 . S
H517 C527 0.930 . S
C518 H512 0.930 . S
C518 C519 1.355 . S
C518 C520 1.415 . S
C519 C518 1.355 . S
C519 C521 1.419 . S
C520 C518 1.415 . S
C520 C525 1.425 . S
C520 C527 1.409 . S
C521 H513 0.930 . S
C521 C519 1.419 . S
C521 C522 1.362 . S
C522 H514 0.930 . S
C522 C521 1.362 . S
C522 C525 1.409 . S
C523 H515 0.930 . S
C523 C524 1.355 . S
C523 C525 1.415 . S
C524 C523 1.355 . S
C524 C526 1.419 . S
C525 C520 1.425 . S
C525 C522 1.409 . S
C525 C523 1.415 . S
C526 H516 0.930 . S
C526 C524 1.419 . S
C526 C527 1.362 . S
C527 H517 0.930 . S
C527 C520 1.409 . S
C527 C526 1.362 . S
H528 C534 0.930 . S
H529 C537 0.939 . S
H530 C538 0.930 1_554 S
H531 C539 0.930 . S
H532 C542 0.930 . S
H533 C543 0.930 . S
C534 H528 0.930 . S
C534 C535 1.355 . S
C534 C536 1.415 . S
C535 C534 1.355 . S
C535 C537 1.413 1_556 S
C536 C534 1.415 . S
C536 C541 1.425 . S
C536 C543 1.409 . S
C537 H529 0.939 . S
C537 C535 1.413 1_554 S
C537 C538 1.360 1_554 S
C538 H530 0.930 1_556 S
C538 C537 1.360 1_556 S
C538 C541 1.409 . S
C539 H531 0.930 . S
C539 C540 1.355 . S
C539 C541 1.415 . S
C540 C539 1.355 . S
C540 C542 1.419 . S
C541 C536 1.425 . S
C541 C538 1.409 . S
C541 C539 1.415 . S
C542 H532 0.930 . S
C542 C540 1.419 . S
C542 C543 1.362 . S
C543 H533 0.930 . S
C543 C536 1.409 . S
C543 C542 1.362 . S
H544 C550 0.930 . S
H545 C553 0.930 . S
H546 C554 0.930 . S
H547 C555 0.930 . S
H548 C558 0.930 . S
H549 C559 0.930 . S
C550 H544 0.930 . S
C550 C551 1.355 . S
C550 C552 1.415 . S
C551 C550 1.355 . S
C551 C553 1.419 . S
C552 C550 1.415 . S
C552 C557 1.425 . S
C552 C559 1.409 . S
C553 H545 0.930 . S
C553 C551 1.419 . S
C553 C554 1.362 . S
C554 H546 0.930 . S
C554 C553 1.362 . S
C554 C557 1.409 . S
C555 H547 0.930 . S
C555 C556 1.355 . S
C555 C557 1.415 . S
C556 C555 1.355 . S
C556 C558 1.419 . S
C557 C552 1.425 . S
C557 C554 1.409 . S
C557 C555 1.415 . S
C558 H548 0.930 . S
C558 C556 1.419 . S
C558 C559 1.362 . S
C559 H549 0.930 . S
C559 C552 1.409 . S
C559 C558 1.362 . S
H560 C566 0.930 . S
H561 C569 0.930 . S
H562 C570 0.930 . S
H563 C571 0.930 . S
H564 C574 0.930 . S
H565 C575 0.930 . S
C566 H560 0.930 . S
C566 C567 1.355 . S
C566 C568 1.415 . S
C567 C566 1.355 . S
C567 C569 1.419 . S
C568 C566 1.415 . S
C568 C573 1.425 . S
C568 C575 1.409 . S
C569 H561 0.930 . S
C569 C567 1.419 . S
C569 C570 1.362 . S
C570 H562 0.930 . S
C570 C569 1.362 . S
C570 C573 1.409 . S
C571 H563 0.930 . S
C571 C572 1.355 . S
C571 C573 1.415 . S
C572 C571 1.355 . S
C572 C574 1.419 . S
C573 C568 1.425 . S
C573 C570 1.409 . S
C573 C571 1.415 . S
C574 H564 0.930 . S
C574 C572 1.419 . S
C574 C575 1.362 . S
C575 H565 0.930 . S
C575 C568 1.409 . S
C575 C574 1.362 . S
C199 C7 1.359 . S
C204 C96 1.304 . S
C215 C37 1.213 . S
C220 C109 1.232 . S
C231 C54 1.442 . S
C236 C123 1.405 . S
C252 C136 1.340 . S
C247 C87 1.428 . S
C268 C148 1.298 . S
C263 C30 1.274 . S
C279 C51 1.483 1_556 S
C284 C162 1.361 . S
C295 C84 1.289 . S
C300 C174 1.288 . S
C311 C10 1.374 . S
C316 C188 1.380 . S
C327 C59 1.348 . S
C332 C187 1.276 . S
C348 C149 1.356 . S
C343 C74 1.435 . S
C364 C161 1.275 . S
C359 C18 1.326 . S
C375 C32 1.402 . S
C380 C175 1.343 . S
C396 C110 1.444 . S
C391 C73 1.474 . S
C407 C15 1.275 . S
C412 C122 1.282 . S
C428 C135 1.299 . S
C423 C43 1.377 . S
C444 C97 1.338 . S
C439 C62 1.386 . S
C460 C170 1.288 . S
C455 C21 1.380 . S
C476 C183 1.254 . S
C471 C29 1.375 . S
C487 C52 1.440 . S
C492 C144 1.394 . S
C508 C157 1.456 . S
C503 C81 1.474 . S
C524 C118 1.323 . S
C519 C40 1.399 . S
C535 C65 1.424 . S
C540 C131 1.285 . S
C556 C92 1.384 . S
C551 C76 1.417 . S
C572 C105 1.309 . S
C567 C8 1.378 . S
