# Generated by pormake.
# Topology dag, (6,3)-cn, num edge types: 1
# Building blocks:
#     Node 0, Type 0, BuildingBlock: OJICUG_clean_sbu_0, # of connection points: 6
#     Node 1, Type 0, BuildingBlock: OJICUG_clean_sbu_0, # of connection points: 6
#     Node 2, Type 0, BuildingBlock: OJICUG_clean_sbu_0, # of connection points: 6
#     Node 3, Type 0, BuildingBlock: OJICUG_clean_sbu_0, # of connection points: 6
#     Node 4, Type 1, BuildingBlock: BELTOD_clean_linker_0, # of connection points: 3
#     Node 5, Type 1, BuildingBlock: BELTOD_clean_linker_0, # of connection points: 3
#     Node 6, Type 1, BuildingBlock: BELTOD_clean_linker_0, # of connection points: 3
#     Node 7, Type 1, BuildingBlock: BELTOD_clean_linker_0, # of connection points: 3
#     Node 8, Type 1, BuildingBlock: BELTOD_clean_linker_0, # of connection points: 3
#     Node 9, Type 1, BuildingBlock: BELTOD_clean_linker_0, # of connection points: 3
#     Node 10, Type 1, BuildingBlock: BELTOD_clean_linker_0, # of connection points: 3
#     Node 11, Type 1, BuildingBlock: BELTOD_clean_linker_0, # of connection points: 3
#     Edge 12, Type (0, 1), BuildingBlock: EYOCIG_clean_linker_4, # of connection points: 2
#     Edge 13, Type (0, 1), BuildingBlock: EYOCIG_clean_linker_4, # of connection points: 2
#     Edge 14, Type (0, 1), BuildingBlock: EYOCIG_clean_linker_4, # of connection points: 2
#     Edge 15, Type (0, 1), BuildingBlock: EYOCIG_clean_linker_4, # of connection points: 2
#     Edge 16, Type (0, 1), BuildingBlock: EYOCIG_clean_linker_4, # of connection points: 2
#     Edge 17, Type (0, 1), BuildingBlock: EYOCIG_clean_linker_4, # of connection points: 2
#     Edge 18, Type (0, 1), BuildingBlock: EYOCIG_clean_linker_4, # of connection points: 2
#     Edge 19, Type (0, 1), BuildingBlock: EYOCIG_clean_linker_4, # of connection points: 2
#     Edge 20, Type (0, 1), BuildingBlock: EYOCIG_clean_linker_4, # of connection points: 2
#     Edge 21, Type (0, 1), BuildingBlock: EYOCIG_clean_linker_4, # of connection points: 2
#     Edge 22, Type (0, 1), BuildingBlock: EYOCIG_clean_linker_4, # of connection points: 2
#     Edge 23, Type (0, 1), BuildingBlock: EYOCIG_clean_linker_4, # of connection points: 2
#     Edge 24, Type (0, 1), BuildingBlock: EYOCIG_clean_linker_4, # of connection points: 2
#     Edge 25, Type (0, 1), BuildingBlock: EYOCIG_clean_linker_4, # of connection points: 2
#     Edge 26, Type (0, 1), BuildingBlock: EYOCIG_clean_linker_4, # of connection points: 2
#     Edge 27, Type (0, 1), BuildingBlock: EYOCIG_clean_linker_4, # of connection points: 2
#     Edge 28, Type (0, 1), BuildingBlock: EYOCIG_clean_linker_4, # of connection points: 2
#     Edge 29, Type (0, 1), BuildingBlock: EYOCIG_clean_linker_4, # of connection points: 2
#     Edge 30, Type (0, 1), BuildingBlock: EYOCIG_clean_linker_4, # of connection points: 2
#     Edge 31, Type (0, 1), BuildingBlock: EYOCIG_clean_linker_4, # of connection points: 2
#     Edge 32, Type (0, 1), BuildingBlock: EYOCIG_clean_linker_4, # of connection points: 2
#     Edge 33, Type (0, 1), BuildingBlock: EYOCIG_clean_linker_4, # of connection points: 2
#     Edge 34, Type (0, 1), BuildingBlock: EYOCIG_clean_linker_4, # of connection points: 2
#     Edge 35, Type (0, 1), BuildingBlock: EYOCIG_clean_linker_4, # of connection points: 2
# Relax obj value: 0.237
# Max RMSD: 0.193
# Mean RMSD: 0.160
data_MOF--net-dag--node1-OJICUG_clean_sbu_0--node2-BELTOD_clean_linker_0--edge1-EYOCIG_clean_linker_4
_symmetry_space_group_name_H-M    P1
_symmetry_Int_Tables_number       1
_symmetry_cell_setting            triclinic
loop_
_symmetry_equiv_pos_as_xyz
'x, y, z'
_cell_length_a     33.171921
_cell_length_b     35.463531
_cell_length_c     34.432139
_cell_angle_alpha  94.912022
_cell_angle_beta   90.135269
_cell_angle_gamma 90.283104
loop_
_atom_site_label
_atom_site_type_symbol
_atom_site_fract_x
_atom_site_fract_y
_atom_site_fract_z
_atom_type_partial_charge
Sc0 Sc 0.10663 0.86425 0.03451 0.0
Sc1 Sc 0.12984 0.76696 0.03084 0.0
Sc2 Sc 0.19823 0.83508 0.07363 0.0
O3 O 0.14492 0.82214 0.04613 0.0
C4 C 0.19293 0.90013 0.01641 0.0
C5 C 0.10472 0.80822 0.95669 0.0
C6 C 0.22358 0.76667 0.0132 0.0
C7 C 0.0448 0.80028 0.05684 0.0
C8 C 0.13783 0.89232 0.11974 0.0
C9 C 0.16395 0.76584 0.11645 0.0
O10 O 0.15464 0.89939 0.01433 0.0
O11 O 0.11507 0.77882 0.97266 0.0
O12 O 0.23175 0.79634 0.03493 0.0
O13 O 0.05384 0.83464 0.05324 0.0
O14 O 0.17132 0.87535 0.116 0.0
O15 O 0.14237 0.75173 0.08841 0.0
O16 O 0.11084 0.89081 0.09335 0.0
O17 O 0.06879 0.77314 0.04938 0.0
O18 O 0.18714 0.79418 0.11471 0.0
O19 O 0.09951 0.84058 0.97495 0.0
O20 O 0.21332 0.8781 0.03582 0.0
O21 O 0.18871 0.75223 0.00963 0.0
Sc22 Sc 0.69996 0.65525 0.46943 0.0
Sc23 Sc 0.63143 0.72368 0.51025 0.0
Sc24 Sc 0.60833 0.62638 0.50888 0.0
O25 O 0.64673 0.66846 0.49665 0.0
C26 C 0.64065 0.59566 0.42515 0.0
C27 C 0.66519 0.72225 0.42421 0.0
C28 C 0.54679 0.68863 0.4836 0.0
C29 C 0.72566 0.72686 0.52529 0.0
C30 C 0.69503 0.59294 0.52979 0.0
C31 C 0.603 0.68472 0.58505 0.0
O32 O 0.67409 0.61285 0.42879 0.0
O33 O 0.64426 0.73725 0.45212 0.0
O34 O 0.55594 0.65446 0.48767 0.0
O35 O 0.73352 0.6965 0.50489 0.0
O36 O 0.65665 0.59312 0.5314 0.0
O37 O 0.61545 0.71353 0.56896 0.0
O38 O 0.71544 0.6145 0.50967 0.0
O39 O 0.69054 0.74008 0.53046 0.0
O40 O 0.59871 0.65191 0.56736 0.0
O41 O 0.68792 0.69387 0.42648 0.0
O42 O 0.6134 0.59794 0.45106 0.0
O43 O 0.57048 0.7162 0.4914 0.0
Sc44 Sc 0.86546 0.22765 0.01527 0.0
Sc45 Sc 0.79493 0.16125 0.97296 0.0
Sc46 Sc 0.88642 0.12999 0.01127 0.0
O47 O 0.84887 0.17296 0.00013 0.0
C48 C 0.94892 0.19203 0.98556 0.0
C49 C 0.82497 0.23293 0.93172 0.0
C50 C 0.85484 0.1057 0.92553 0.0
C51 C 0.77185 0.227 0.03683 0.0
C52 C 0.89516 0.1854 0.08867 0.0
C53 C 0.80007 0.09448 0.02811 0.0
O54 O 0.92561 0.22008 0.99228 0.0
O55 O 0.80292 0.20394 0.93346 0.0
O56 O 0.88068 0.10457 0.95262 0.0
O57 O 0.807 0.24136 0.04005 0.0
O58 O 0.89642 0.15266 0.07056 0.0
O59 O 0.78035 0.1164 0.00818 0.0
O60 O 0.88503 0.21513 0.07289 0.0
O61 O 0.76284 0.1983 0.01399 0.0
O62 O 0.83818 0.09566 0.03193 0.0
O63 O 0.84881 0.24543 0.95881 0.0
O64 O 0.93933 0.15838 0.99171 0.0
O65 O 0.82189 0.12352 0.9289 0.0
Sc66 Sc 0.38504 0.36588 0.54074 0.0
Sc67 Sc 0.29372 0.33436 0.5794 0.0
Sc68 Sc 0.36447 0.2679 0.53894 0.0
O69 O 0.34772 0.32272 0.55284 0.0
C70 C 0.39502 0.30819 0.46487 0.0
C71 C 0.29841 0.39861 0.52114 0.0
C72 C 0.2708 0.26589 0.51726 0.0
C73 C 0.35165 0.395 0.62476 0.0
C74 C 0.44748 0.30556 0.56926 0.0
C75 C 0.32443 0.26433 0.62268 0.0
O76 O 0.39646 0.34125 0.48231 0.0
O77 O 0.27876 0.37722 0.54188 0.0
O78 O 0.30621 0.25254 0.51395 0.0
O79 O 0.37803 0.39468 0.59806 0.0
O80 O 0.42454 0.27701 0.56221 0.0
O81 O 0.30285 0.29344 0.62065 0.0
O82 O 0.43766 0.33902 0.56277 0.0
O83 O 0.31958 0.37532 0.62216 0.0
O84 O 0.34762 0.25115 0.59559 0.0
O85 O 0.33656 0.39801 0.51767 0.0
O86 O 0.38418 0.27895 0.48115 0.0
O87 O 0.2617 0.29478 0.53972 0.0
P88 P 0.02477 0.09534 0.35813 0.0
H89 H 0.04593 0.01615 0.36899 0.0
H90 H 0.07623 0.9657 0.32471 0.0
H91 H 0.08744 0.04374 0.23587 0.0
H92 H 0.05748 0.09368 0.27956 0.0
H93 H 0.02438 0.1402 0.43357 0.0
H94 H 0.07544 0.18145 0.46774 0.0
H95 H 0.1577 0.15745 0.3721 0.0
H96 H 0.10715 0.11653 0.33812 0.0
H97 H 0.95103 0.07815 0.31444 0.0
H98 H 0.03449 0.17192 0.33157 0.0
O99 O 0.99463 0.07618 0.38991 0.0
H100 H 0.91859 0.10871 0.26132 0.0
H101 H 0.002 0.20231 0.27858 0.0
C102 C 0.04858 0.05839 0.3272 0.0
C103 C 0.05498 0.02234 0.34 0.0
C104 C 0.07238 0.99369 0.31491 0.0
C105 C 0.08371 0.00118 0.27707 0.0
C106 C 0.07864 0.0375 0.26494 0.0
C107 C 0.06129 0.06591 0.28982 0.0
C108 C 0.06238 0.12445 0.38384 0.0
C109 C 0.05351 0.14361 0.42013 0.0
C110 C 0.08242 0.16727 0.43944 0.0
C111 C 0.12019 0.17212 0.42234 0.0
C112 C 0.12868 0.15378 0.38572 0.0
C113 C 0.0999 0.13017 0.3665 0.0
C114 C 0.99499 0.12277 0.32714 0.0
C115 C 0.96153 0.1058 0.30767 0.0
C116 C 0.94313 0.12315 0.27733 0.0
C117 C 0.95809 0.1576 0.26614 0.0
C118 C 0.99001 0.17574 0.28701 0.0
C119 C 0.0085 0.15834 0.31732 0.0
P120 P 0.47142 0.60379 0.85536 0.0
H121 H 0.54714 0.64726 0.85522 0.0
H122 H 0.58206 0.6783 0.8033 0.0
H123 H 0.48397 0.64712 0.72434 0.0
H124 H 0.44934 0.61638 0.77563 0.0
H125 H 0.44093 0.60769 0.93492 0.0
H126 H 0.3875 0.64574 0.96812 0.0
H127 H 0.36974 0.70457 0.8649 0.0
H128 H 0.42288 0.66687 0.83178 0.0
H129 H 0.50104 0.5336 0.81641 0.0
H130 H 0.38556 0.58684 0.8381 0.0
O131 O 0.50539 0.58878 0.88629 0.0
H132 H 0.46863 0.48482 0.77183 0.0
H133 H 0.35339 0.53814 0.7936 0.0
C134 C 0.49632 0.62856 0.81882 0.0
C135 C 0.53319 0.64726 0.82675 0.0
C136 C 0.55288 0.66516 0.79737 0.0
C137 C 0.53548 0.66461 0.76019 0.0
C138 C 0.49781 0.64757 0.75293 0.0
C139 C 0.47828 0.62974 0.78209 0.0
C140 C 0.43632 0.63488 0.88118 0.0
C141 C 0.42605 0.62922 0.91969 0.0
C142 C 0.39559 0.65073 0.93851 0.0
C143 C 0.37504 0.67771 0.91873 0.0
C144 C 0.3856 0.68385 0.8805 0.0
C145 C 0.41606 0.66243 0.86173 0.0
C146 C 0.44578 0.56365 0.83086 0.0
C147 C 0.46864 0.53417 0.81252 0.0
C148 C 0.45022 0.50649 0.78703 0.0
C149 C 0.40877 0.50813 0.77955 0.0
C150 C 0.38546 0.53646 0.79925 0.0
C151 C 0.4039 0.56421 0.82471 0.0
P152 P 0.76798 0.86783 0.19714 0.0
H153 H 0.73322 0.94201 0.21528 0.0
H154 H 0.7193 0.99189 0.17248 0.0
H155 H 0.72857 0.91083 0.07213 0.0
H156 H 0.74287 0.86076 0.11507 0.0
H157 H 0.77677 0.83829 0.27149 0.0
H158 H 0.73419 0.79811 0.30807 0.0
H159 H 0.6478 0.78827 0.21369 0.0
H160 H 0.69097 0.82937 0.17655 0.0
H161 H 0.8413 0.89132 0.16241 0.0
H162 H 0.77507 0.7868 0.16816 0.0
O163 O 0.7934 0.89532 0.23067 0.0
H164 H 0.89552 0.85689 0.12755 0.0
H165 H 0.82995 0.75205 0.13288 0.0
C166 C 0.74064 0.89831 0.16801 0.0
C167 C 0.73059 0.93459 0.1842 0.0
C168 C 0.72234 0.96299 0.15984 0.0
C169 C 0.7238 0.9549 0.11939 0.0
C170 C 0.72759 0.9174 0.10343 0.0
C171 C 0.73604 0.88896 0.12787 0.0
C172 C 0.7362 0.83754 0.22206 0.0
C173 C 0.74864 0.82775 0.25861 0.0
C174 C 0.72453 0.80469 0.27931 0.0
C175 C 0.68801 0.79083 0.26346 0.0
C176 C 0.67595 0.7992 0.22619 0.0
C177 C 0.70029 0.82263 0.2053 0.0
C178 C 0.80474 0.84153 0.16839 0.0
C179 C 0.83838 0.86099 0.15596 0.0
C180 C 0.86919 0.84139 0.13609 0.0
C181 C 0.86661 0.80213 0.12817 0.0
C182 C 0.83231 0.78245 0.13913 0.0
C183 C 0.8012 0.80224 0.15922 0.0
P184 P 0.77714 0.31951 0.62983 0.0
H185 H 0.83488 0.36848 0.5922 0.0
H186 H 0.83026 0.43487 0.57645 0.0
H187 H 0.71846 0.44658 0.63992 0.0
H188 H 0.72311 0.38097 0.65579 0.0
H189 H 0.81326 0.25163 0.65738 0.0
H190 H 0.82882 0.23386 0.7233 0.0
H191 H 0.7948 0.34543 0.77133 0.0
H192 H 0.77955 0.36323 0.70592 0.0
H193 H 0.72346 0.31303 0.56278 0.0
H194 H 0.71532 0.29696 0.6854 0.0
O195 O 0.80423 0.29639 0.5947 0.0
H196 H 0.65026 0.30409 0.55641 0.0
H197 H 0.64227 0.28799 0.67886 0.0
C198 C 0.77876 0.36957 0.62428 0.0
C199 C 0.80979 0.38557 0.60328 0.0
C200 C 0.80728 0.42341 0.59448 0.0
C201 C 0.77376 0.44527 0.60678 0.0
C202 C 0.74445 0.43002 0.63011 0.0
C203 C 0.74701 0.39249 0.63894 0.0
C204 C 0.79586 0.30894 0.67669 0.0
C205 C 0.8101 0.27253 0.68201 0.0
C206 C 0.81877 0.26235 0.71952 0.0
C207 C 0.81284 0.28845 0.75191 0.0
C208 C 0.79969 0.32506 0.74652 0.0
C209 C 0.79115 0.33524 0.70913 0.0
C210 C 0.72505 0.30515 0.62435 0.0
C211 C 0.70616 0.30663 0.58806 0.0
C212 C 0.66445 0.30174 0.58448 0.0
C213 C 0.6411 0.29543 0.61717 0.0
C214 C 0.65994 0.29271 0.65328 0.0
C215 C 0.70172 0.2977 0.6569 0.0
P216 P 0.52295 0.38998 0.19197 0.0
H217 H 0.54493 0.4685 0.17857 0.0
H218 H 0.57707 0.51975 0.22102 0.0
H219 H 0.58805 0.44441 0.31235 0.0
H220 H 0.55617 0.39376 0.27056 0.0
H221 H 0.52268 0.34414 0.11716 0.0
H222 H 0.574 0.30313 0.084 0.0
H223 H 0.65586 0.32951 0.18012 0.0
H224 H 0.60516 0.3701 0.21308 0.0
H225 H 0.44999 0.40707 0.236 0.0
H226 H 0.53345 0.31405 0.21991 0.0
O227 O 0.49244 0.40804 0.1598 0.0
H228 H 0.4187 0.37735 0.29025 0.0
H229 H 0.50211 0.28449 0.27408 0.0
C230 C 0.54721 0.42767 0.22182 0.0
C231 C 0.55423 0.46313 0.20774 0.0
C232 C 0.57272 0.49218 0.23175 0.0
C233 C 0.58456 0.48562 0.26971 0.0
C234 C 0.57883 0.4499 0.28315 0.0
C235 C 0.56034 0.42111 0.25938 0.0
C236 C 0.56055 0.36102 0.16699 0.0
C237 C 0.55176 0.34125 0.13092 0.0
C238 C 0.58077 0.31772 0.11223 0.0
C239 C 0.61846 0.31368 0.12981 0.0
C240 C 0.62684 0.33256 0.16623 0.0
C241 C 0.59798 0.35601 0.18482 0.0
C242 C 0.49385 0.36278 0.22376 0.0
C243 C 0.46071 0.37973 0.24326 0.0
C244 C 0.44298 0.36286 0.27424 0.0
C245 C 0.45829 0.32892 0.28606 0.0
C246 C 0.48985 0.31068 0.26517 0.0
C247 C 0.50769 0.32762 0.2342 0.0
P248 P 0.27792 0.17709 0.92416 0.0
H249 H 0.33488 0.1267 0.96034 0.0
H250 H 0.32912 0.05986 0.97435 0.0
H251 H 0.2163 0.05065 0.91165 0.0
H252 H 0.22202 0.11677 0.89756 0.0
H253 H 0.31509 0.24489 0.89698 0.0
H254 H 0.33047 0.26299 0.83117 0.0
H255 H 0.29329 0.15216 0.78243 0.0
H256 H 0.27822 0.13402 0.84767 0.0
H257 H 0.22563 0.18356 0.99193 0.0
H258 H 0.21577 0.20117 0.86976 0.0
O259 O 0.30628 0.1993 0.9592 0.0
H260 H 0.15274 0.19322 -0.00069 0.0
H261 H 0.14305 0.21086 0.87729 0.0
C262 C 0.27832 0.12689 0.92881 0.0
C263 C 0.30928 0.11009 0.9491 0.0
C264 C 0.30613 0.072 0.95689 0.0
C265 C 0.27206 0.0507 0.94426 0.0
C266 C 0.24272 0.0668 0.9217 0.0
C267 C 0.24588 0.1046 0.9139 0.0
C268 C 0.29614 0.18792 0.87727 0.0
C269 C 0.31118 0.22422 0.8722 0.0
C270 C 0.31975 0.23459 0.83478 0.0
C271 C 0.31294 0.20876 0.80225 0.0
C272 C 0.29889 0.17229 0.80737 0.0
C273 C 0.29044 0.16193 0.84467 0.0
C274 C 0.22634 0.19214 0.93051 0.0
C275 C 0.20805 0.19047 0.96698 0.0
C276 C 0.16651 0.19578 0.97114 0.0
C277 C 0.14276 0.2027 0.93883 0.0
C278 C 0.16105 0.20567 0.90258 0.0
C279 C 0.20264 0.20027 0.89838 0.0
P280 P 0.2678 0.61918 0.34365 0.0
H281 H 0.23234 0.54455 0.32801 0.0
H282 H 0.21827 0.49612 0.37254 0.0
H283 H 0.22931 0.57992 0.4705 0.0
H284 H 0.24375 0.62855 0.42582 0.0
H285 H 0.27611 0.64776 0.2688 0.0
H286 H 0.23353 0.68735 0.23177 0.0
H287 H 0.14819 0.69842 0.32652 0.0
H288 H 0.19137 0.65793 0.36411 0.0
H289 H 0.34148 0.5958 0.37767 0.0
H290 H 0.27665 0.70043 0.37143 0.0
O291 O 0.2921 0.59091 0.31029 0.0
H292 H 0.39663 0.63031 0.41185 0.0
H293 H 0.33246 0.73526 0.40601 0.0
C294 C 0.2406 0.58955 0.37395 0.0
C295 C 0.2301 0.55288 0.35893 0.0
C296 C 0.22177 0.5253 0.38428 0.0
C297 C 0.2236 0.53458 0.42455 0.0
C298 C 0.22801 0.57243 0.43934 0.0
C299 C 0.23652 0.60005 0.41391 0.0
C300 C 0.23608 0.64917 0.31847 0.0
C301 C 0.24821 0.65844 0.28167 0.0
C302 C 0.22409 0.68115 0.2607 0.0
C303 C 0.18784 0.69518 0.27651 0.0
C304 C 0.1761 0.68732 0.31402 0.0
C305 C 0.20046 0.66426 0.33518 0.0
C306 C 0.30556 0.64565 0.37147 0.0
C307 C 0.3391 0.62618 0.38382 0.0
C308 C 0.37043 0.64582 0.4033 0.0
C309 C 0.36847 0.68513 0.41091 0.0
C310 C 0.33433 0.70483 0.39998 0.0
C311 C 0.3027 0.68499 0.38028 0.0
P312 P 0.89742 0.85864 0.75666 0.0
H313 H 0.83045 0.90869 0.77617 0.0
H314 H 0.82813 0.97666 0.79473 0.0
H315 H 0.95284 0.98747 0.76186 0.0
H316 H 0.95538 0.91896 0.74359 0.0
H317 H 0.85939 0.78841 0.72831 0.0
H318 H 0.83629 0.76432 0.66348 0.0
H319 H 0.89008 0.86058 0.61439 0.0
H320 H 0.91322 0.88501 0.67974 0.0
H321 H 0.93432 0.86654 0.83202 0.0
H322 H 0.96787 0.82329 0.71555 0.0
O323 O 0.86386 0.84196 0.78704 0.0
H324 H -0.00077 0.84682 0.85651 0.0
H325 H 0.03347 0.80332 0.74038 0.0
C326 C 0.89343 0.90896 0.75994 0.0
C327 C 0.85701 0.92574 0.772 0.0
C328 C 0.85557 0.96448 0.78217 0.0
C329 C 0.89037 0.98657 0.77971 0.0
C330 C 0.92569 0.97058 0.76361 0.0
C331 C 0.92723 0.9316 0.75369 0.0
C332 C 0.88659 0.83898 0.70861 0.0
C333 C 0.86666 0.80412 0.7036 0.0
C334 C 0.85385 0.79027 0.66672 0.0
C335 C 0.86143 0.81102 0.63475 0.0
C336 C 0.88416 0.84443 0.63911 0.0
C337 C 0.89689 0.85844 0.67623 0.0
C338 C 0.94623 0.84568 0.77233 0.0
C339 C 0.95576 0.8529 0.81176 0.0
C340 C 0.99272 0.84179 0.82561 0.0
C341 C 0.02061 0.82354 0.80013 0.0
C342 C 0.01196 0.81734 0.76028 0.0
C343 C 0.97463 0.82856 0.7463 0.0
C344 C 0.12187 0.93001 0.18743 0.0
C345 C 0.12939 0.91275 0.15662 0.0
C346 C 0.11066 0.95119 0.22229 0.0
C347 C 0.09836 0.97181 0.24929 0.0
C348 C 0.58334 0.69061 0.65929 0.0
C349 C 0.59272 0.68944 0.62549 0.0
C350 C 0.57051 0.6869 0.69769 0.0
C351 C 0.55722 0.67791 0.72804 0.0
C352 C 0.75884 0.04196 0.06049 0.0
C353 C 0.77785 0.06589 0.04577 0.0
C354 C 0.74062 0.01202 0.07821 0.0
C355 C 0.73296 0.98513 0.09583 0.0
C356 C 0.52108 0.29605 0.59622 0.0
C357 C 0.48733 0.29957 0.58392 0.0
C358 C 0.56199 0.29386 0.60733 0.0
C359 C 0.59777 0.29427 0.61373 0.0
C360 C 0.62497 0.55737 0.35776 0.0
C361 C 0.63228 0.57489 0.38849 0.0
C362 C 0.61345 0.53618 0.32301 0.0
C363 C 0.60032 0.51544 0.29643 0.0
C364 C 0.02278 0.2025 0.95984 0.0
C365 C 0.98887 0.19874 0.97156 0.0
C366 C 0.06377 0.20468 0.94911 0.0
C367 C 0.09951 0.20408 0.9427 0.0
C368 C 0.25728 0.44953 0.48665 0.0
C369 C 0.2761 0.42628 0.5024 0.0
C370 C 0.23952 0.47884 0.46776 0.0
C371 C 0.23229 0.50512 0.44915 0.0
C372 C 0.09362 0.80282 0.88093 0.0
C373 C 0.09888 0.80457 0.91552 0.0
C374 C 0.07933 0.80421 0.84279 0.0
C375 C 0.05661 0.81011 0.81694 0.0
C376 C 0.8738 0.07263 0.85711 0.0
C377 C 0.86458 0.08793 0.88817 0.0
C378 C 0.88458 0.04951 0.82388 0.0
C379 C 0.89167 0.02234 0.80196 0.0
C380 C 0.41756 0.30336 0.39113 0.0
C381 C 0.40695 0.30383 0.42465 0.0
C382 C 0.43147 0.30743 0.35297 0.0
C383 C 0.44484 0.31575 0.32229 0.0
C384 C 0.23289 0.95282 0.98237 0.0
C385 C 0.21442 0.92886 -0.00218 0.0
C386 C 0.25218 0.98427 0.96784 0.0
C387 C 0.26377 0.01441 0.95837 0.0
C388 C 0.47471 0.70472 0.45795 0.0
C389 C 0.50757 0.69709 0.46965 0.0
C390 C 0.43566 0.709 0.44324 0.0
C391 C 0.40287 0.70386 0.4289 0.0
C392 C 0.3668 0.43776 0.6897 0.0
C393 C 0.35915 0.418 0.66036 0.0
C394 C 0.37853 0.46152 0.72277 0.0
C395 C 0.39127 0.48319 0.74883 0.0
C396 C 0.97244 0.78306 0.08121 0.0
C397 C 0.00544 0.79112 0.07009 0.0
C398 C 0.93332 0.77843 0.09561 0.0
C399 C 0.90064 0.7834 0.10998 0.0
C400 C 0.73513 0.54181 0.56578 0.0
C401 C 0.71659 0.56506 0.54945 0.0
C402 C 0.7544 0.51091 0.58124 0.0
C403 C 0.76581 0.48109 0.59154 0.0
C404 C 0.91674 0.18752 0.16262 0.0
C405 C 0.90652 0.18869 0.1291 0.0
C406 C 0.93043 0.18134 0.20042 0.0
C407 C 0.94391 0.17162 0.23053 0.0
C408 C 0.15348 0.7428 0.18595 0.0
C409 C 0.15753 0.75261 0.15376 0.0
C410 C 0.15364 0.73071 0.22353 0.0
C411 C 0.16335 0.71627 0.25224 0.0
C412 C 0.78706 0.76566 0.55534 0.0
C413 C 0.7587 0.7482 0.54176 0.0
C414 C 0.81849 0.78517 0.57529 0.0
C415 C 0.84043 0.80029 0.59946 0.0
C416 C 0.71139 0.25775 0.0769 0.0
C417 C 0.73989 0.24461 0.05918 0.0
C418 C 0.67745 0.27472 0.09513 0.0
C419 C 0.6497 0.29214 0.10987 0.0
C420 C 0.32374 0.23718 0.6914 0.0
C421 C 0.32542 0.24813 0.65932 0.0
C422 C 0.32141 0.22762 0.7302 0.0
C423 C 0.31787 0.21996 0.76341 0.0
C424 C 0.6542 0.74359 0.35411 0.0
C425 C 0.65854 0.73454 0.38655 0.0
C426 C 0.65396 0.75514 0.31634 0.0
C427 C 0.66345 0.7696 0.28759 0.0
C428 C 0.82395 0.26042 0.86307 0.0
C429 C 0.82594 0.24945 0.89518 0.0
C430 C 0.82137 0.26987 0.82418 0.0
C431 C 0.81777 0.27745 0.7909 0.0
C432 C 0.211 0.23179 0.47749 0.0
C433 C 0.23883 0.24684 0.49532 0.0
C434 C 0.17814 0.21281 0.45841 0.0
C435 C 0.15109 0.19449 0.44275 0.0
C436 C 0.28248 0.73305 0.97321 0.0
C437 C 0.25551 0.74836 0.99145 0.0
C438 C 0.31454 0.7146 0.95321 0.0
C439 C 0.34207 0.69799 0.93711 0.0
loop_
_geom_bond_atom_site_label_1
_geom_bond_atom_site_label_2
_geom_bond_distance
_geom_bond_site_symmetry_2
_ccdc_geom_bond_type
Sc0 O3 2.025 . S
Sc0 O10 2.105 . S
Sc0 O13 2.105 . S
Sc0 O16 2.105 . S
Sc0 O19 2.105 1_554 S
Sc1 O3 2.025 . S
Sc1 O11 2.105 1_554 S
Sc1 O15 2.105 . S
Sc1 O17 2.105 . S
Sc1 O21 2.105 . S
Sc2 O3 2.025 . S
Sc2 O12 2.105 . S
Sc2 O14 2.105 . S
Sc2 O18 2.105 . S
Sc2 O20 2.105 . S
O3 Sc0 2.025 . S
O3 Sc1 2.025 . S
O3 Sc2 2.025 . S
C4 O10 1.268 . S
C4 O20 1.268 . S
C5 O11 1.268 . S
C5 O19 1.268 . S
C6 O12 1.268 . S
C6 O21 1.268 . S
C7 O13 1.268 . S
C7 O17 1.268 . S
C8 O14 1.268 . S
C8 O16 1.268 . S
C9 O15 1.268 . S
C9 O18 1.268 . S
O10 Sc0 2.105 . S
O10 C4 1.268 . S
O11 Sc1 2.105 1_556 S
O11 C5 1.268 . S
O12 Sc2 2.105 . S
O12 C6 1.268 . S
O13 Sc0 2.105 . S
O13 C7 1.268 . S
O14 Sc2 2.105 . S
O14 C8 1.268 . S
O15 Sc1 2.105 . S
O15 C9 1.268 . S
O16 Sc0 2.105 . S
O16 C8 1.268 . S
O17 Sc1 2.105 . S
O17 C7 1.268 . S
O18 Sc2 2.105 . S
O18 C9 1.268 . S
O19 Sc0 2.105 1_556 S
O19 C5 1.268 . S
O20 Sc2 2.105 . S
O20 C4 1.268 . S
O21 Sc1 2.105 . S
O21 C6 1.268 . S
Sc22 O25 2.025 . S
Sc22 O32 2.105 . S
Sc22 O35 2.105 . S
Sc22 O38 2.105 . S
Sc22 O41 2.105 . S
Sc23 O25 2.025 . S
Sc23 O33 2.105 . S
Sc23 O37 2.105 . S
Sc23 O39 2.105 . S
Sc23 O43 2.105 . S
Sc24 O25 2.025 . S
Sc24 O34 2.105 . S
Sc24 O36 2.105 . S
Sc24 O40 2.105 . S
Sc24 O42 2.105 . S
O25 Sc22 2.025 . S
O25 Sc23 2.025 . S
O25 Sc24 2.025 . S
C26 O32 1.268 . S
C26 O42 1.268 . S
C27 O33 1.268 . S
C27 O41 1.268 . S
C28 O34 1.268 . S
C28 O43 1.268 . S
C29 O35 1.268 . S
C29 O39 1.268 . S
C30 O36 1.268 . S
C30 O38 1.268 . S
C31 O37 1.268 . S
C31 O40 1.268 . S
O32 Sc22 2.105 . S
O32 C26 1.268 . S
O33 Sc23 2.105 . S
O33 C27 1.268 . S
O34 Sc24 2.105 . S
O34 C28 1.268 . S
O35 Sc22 2.105 . S
O35 C29 1.268 . S
O36 Sc24 2.105 . S
O36 C30 1.268 . S
O37 Sc23 2.105 . S
O37 C31 1.268 . S
O38 Sc22 2.105 . S
O38 C30 1.268 . S
O39 Sc23 2.105 . S
O39 C29 1.268 . S
O40 Sc24 2.105 . S
O40 C31 1.268 . S
O41 Sc22 2.105 . S
O41 C27 1.268 . S
O42 Sc24 2.105 . S
O42 C26 1.268 . S
O43 Sc23 2.105 . S
O43 C28 1.268 . S
Sc44 O47 2.025 . S
Sc44 O54 2.105 1_554 S
Sc44 O57 2.105 . S
Sc44 O60 2.105 . S
Sc44 O63 2.105 1_554 S
Sc45 O47 2.025 1_556 S
Sc45 O55 2.105 . S
Sc45 O59 2.105 1_556 S
Sc45 O61 2.105 1_556 S
Sc45 O65 2.105 . S
Sc46 O47 2.025 . S
Sc46 O56 2.105 1_554 S
Sc46 O58 2.105 . S
Sc46 O62 2.105 . S
Sc46 O64 2.105 1_554 S
O47 Sc44 2.025 . S
O47 Sc45 2.025 1_554 S
O47 Sc46 2.025 . S
C48 O54 1.268 . S
C48 O64 1.268 . S
C49 O55 1.268 . S
C49 O63 1.268 . S
C50 O56 1.268 . S
C50 O65 1.268 . S
C51 O57 1.268 . S
C51 O61 1.268 . S
C52 O58 1.268 . S
C52 O60 1.268 . S
C53 O59 1.268 . S
C53 O62 1.268 . S
O54 Sc44 2.105 1_556 S
O54 C48 1.268 . S
O55 Sc45 2.105 . S
O55 C49 1.268 . S
O56 Sc46 2.105 1_556 S
O56 C50 1.268 . S
O57 Sc44 2.105 . S
O57 C51 1.268 . S
O58 Sc46 2.105 . S
O58 C52 1.268 . S
O59 Sc45 2.105 1_554 S
O59 C53 1.268 . S
O60 Sc44 2.105 . S
O60 C52 1.268 . S
O61 Sc45 2.105 1_554 S
O61 C51 1.268 . S
O62 Sc46 2.105 . S
O62 C53 1.268 . S
O63 Sc44 2.105 1_556 S
O63 C49 1.268 . S
O64 Sc46 2.105 1_556 S
O64 C48 1.268 . S
O65 Sc45 2.105 . S
O65 C50 1.268 . S
Sc66 O69 2.025 . S
Sc66 O76 2.105 . S
Sc66 O79 2.105 . S
Sc66 O82 2.105 . S
Sc66 O85 2.105 . S
Sc67 O69 2.025 . S
Sc67 O77 2.105 . S
Sc67 O81 2.105 . S
Sc67 O83 2.105 . S
Sc67 O87 2.105 . S
Sc68 O69 2.025 . S
Sc68 O78 2.105 . S
Sc68 O80 2.105 . S
Sc68 O84 2.105 . S
Sc68 O86 2.105 . S
O69 Sc66 2.025 . S
O69 Sc67 2.025 . S
O69 Sc68 2.025 . S
C70 O76 1.268 . S
C70 O86 1.268 . S
C71 O77 1.268 . S
C71 O85 1.268 . S
C72 O78 1.268 . S
C72 O87 1.268 . S
C73 O79 1.268 . S
C73 O83 1.268 . S
C74 O80 1.268 . S
C74 O82 1.268 . S
C75 O81 1.268 . S
C75 O84 1.268 . S
O76 Sc66 2.105 . S
O76 C70 1.268 . S
O77 Sc67 2.105 . S
O77 C71 1.268 . S
O78 Sc68 2.105 . S
O78 C72 1.268 . S
O79 Sc66 2.105 . S
O79 C73 1.268 . S
O80 Sc68 2.105 . S
O80 C74 1.268 . S
O81 Sc67 2.105 . S
O81 C75 1.268 . S
O82 Sc66 2.105 . S
O82 C74 1.268 . S
O83 Sc67 2.105 . S
O83 C73 1.268 . S
O84 Sc68 2.105 . S
O84 C75 1.268 . S
O85 Sc66 2.105 . S
O85 C71 1.268 . S
O86 Sc68 2.105 . S
O86 C70 1.268 . S
O87 Sc67 2.105 . S
O87 C72 1.268 . S
P88 O99 1.484 1_455 S
P88 C102 1.812 . S
P88 C108 1.803 . S
P88 C114 1.819 . S
H89 C103 0.941 . S
H90 C104 0.939 . S
H91 C106 0.940 . S
H92 C107 0.940 . S
H93 C109 0.939 . S
H94 C110 0.942 . S
H95 C112 0.940 . S
H96 C113 0.939 . S
H97 C115 0.941 . S
H98 C119 0.939 . S
O99 P88 1.484 1_655 S
H100 C116 0.939 . S
H101 C118 0.940 1_455 S
C102 P88 1.812 . S
C102 C103 1.389 . S
C102 C107 1.391 . S
C103 H89 0.941 . S
C103 C102 1.389 . S
C103 C104 1.397 1_545 S
C104 H90 0.939 . S
C104 C103 1.397 1_565 S
C104 C105 1.378 1_565 S
C105 C104 1.378 1_545 S
C105 C106 1.378 . S
C106 H91 0.940 . S
C106 C105 1.378 . S
C106 C107 1.396 . S
C107 H92 0.940 . S
C107 C102 1.391 . S
C107 C106 1.396 . S
C108 P88 1.803 . S
C108 C109 1.378 . S
C108 C113 1.400 . S
C109 H93 0.939 . S
C109 C108 1.378 . S
C109 C110 1.361 . S
C110 H94 0.942 . S
C110 C109 1.361 . S
C110 C111 1.369 . S
C111 C110 1.369 . S
C111 C112 1.404 . S
C112 H95 0.940 . S
C112 C111 1.404 . S
C112 C113 1.389 . S
C113 H96 0.939 . S
C113 C108 1.400 . S
C113 C112 1.389 . S
C114 P88 1.819 . S
C114 C115 1.391 1_455 S
C114 C119 1.391 . S
C115 H97 0.941 . S
C115 C114 1.391 1_655 S
C115 C116 1.396 . S
C116 H100 0.939 . S
C116 C115 1.396 . S
C116 C117 1.397 . S
C117 C116 1.397 . S
C117 C118 1.385 . S
C118 H101 0.940 1_655 S
C118 C117 1.385 . S
C118 C119 1.388 1_655 S
C119 H98 0.939 . S
C119 C114 1.391 . S
C119 C118 1.388 1_455 S
P120 O131 1.490 . S
P120 C134 1.812 . S
P120 C140 1.803 . S
P120 C146 1.819 . S
H121 C135 0.941 . S
H122 C136 0.939 . S
H123 C138 0.940 . S
H124 C139 0.940 . S
H125 C141 0.939 . S
H126 C142 0.942 . S
H127 C144 0.940 . S
H128 C145 0.939 . S
H129 C147 0.941 . S
H130 C151 0.939 . S
O131 P120 1.490 . S
H132 C148 0.939 . S
H133 C150 0.940 . S
C134 P120 1.812 . S
C134 C135 1.389 . S
C134 C139 1.391 . S
C135 H121 0.941 . S
C135 C134 1.389 . S
C135 C136 1.397 . S
C136 H122 0.939 . S
C136 C135 1.397 . S
C136 C137 1.378 . S
C137 C136 1.378 . S
C137 C138 1.378 . S
C138 H123 0.940 . S
C138 C137 1.378 . S
C138 C139 1.396 . S
C139 H124 0.940 . S
C139 C134 1.391 . S
C139 C138 1.396 . S
C140 P120 1.803 . S
C140 C141 1.378 . S
C140 C145 1.400 . S
C141 H125 0.939 . S
C141 C140 1.378 . S
C141 C142 1.361 . S
C142 H126 0.942 . S
C142 C141 1.361 . S
C142 C143 1.369 . S
C143 C142 1.369 . S
C143 C144 1.404 . S
C144 H127 0.940 . S
C144 C143 1.404 . S
C144 C145 1.389 . S
C145 H128 0.939 . S
C145 C140 1.400 . S
C145 C144 1.389 . S
C146 P120 1.819 . S
C146 C147 1.391 . S
C146 C151 1.391 . S
C147 H129 0.941 . S
C147 C146 1.391 . S
C147 C148 1.396 . S
C148 H132 0.939 . S
C148 C147 1.396 . S
C148 C149 1.397 . S
C149 C148 1.397 . S
C149 C150 1.385 . S
C150 H133 0.940 . S
C150 C149 1.385 . S
C150 C151 1.388 . S
C151 H130 0.939 . S
C151 C146 1.391 . S
C151 C150 1.388 . S
P152 O163 1.490 . S
P152 C166 1.812 . S
P152 C172 1.803 . S
P152 C178 1.819 . S
H153 C167 0.941 . S
H154 C168 0.939 . S
H155 C170 0.940 . S
H156 C171 0.940 . S
H157 C173 0.939 . S
H158 C174 0.942 . S
H159 C176 0.940 . S
H160 C177 0.939 . S
H161 C179 0.941 . S
H162 C183 0.939 . S
O163 P152 1.490 . S
H164 C180 0.939 . S
H165 C182 0.940 . S
C166 P152 1.812 . S
C166 C167 1.389 . S
C166 C171 1.391 . S
C167 H153 0.941 . S
C167 C166 1.389 . S
C167 C168 1.397 . S
C168 H154 0.939 . S
C168 C167 1.397 . S
C168 C169 1.378 . S
C169 C168 1.378 . S
C169 C170 1.378 . S
C170 H155 0.940 . S
C170 C169 1.378 . S
C170 C171 1.396 . S
C171 H156 0.940 . S
C171 C166 1.391 . S
C171 C170 1.396 . S
C172 P152 1.803 . S
C172 C173 1.378 . S
C172 C177 1.400 . S
C173 H157 0.939 . S
C173 C172 1.378 . S
C173 C174 1.361 . S
C174 H158 0.942 . S
C174 C173 1.361 . S
C174 C175 1.369 . S
C175 C174 1.369 . S
C175 C176 1.404 . S
C176 H159 0.940 . S
C176 C175 1.404 . S
C176 C177 1.389 . S
C177 H160 0.939 . S
C177 C172 1.400 . S
C177 C176 1.389 . S
C178 P152 1.819 . S
C178 C179 1.391 . S
C178 C183 1.391 . S
C179 H161 0.941 . S
C179 C178 1.391 . S
C179 C180 1.396 . S
C180 H164 0.939 . S
C180 C179 1.396 . S
C180 C181 1.397 . S
C181 C180 1.397 . S
C181 C182 1.385 . S
C182 H165 0.940 . S
C182 C181 1.385 . S
C182 C183 1.388 . S
C183 H162 0.939 . S
C183 C178 1.391 . S
C183 C182 1.388 . S
P184 O195 1.490 . S
P184 C198 1.812 . S
P184 C204 1.803 . S
P184 C210 1.819 . S
H185 C199 0.941 . S
H186 C200 0.939 . S
H187 C202 0.940 . S
H188 C203 0.940 . S
H189 C205 0.939 . S
H190 C206 0.942 . S
H191 C208 0.940 . S
H192 C209 0.939 . S
H193 C211 0.941 . S
H194 C215 0.939 . S
O195 P184 1.490 . S
H196 C212 0.939 . S
H197 C214 0.940 . S
C198 P184 1.812 . S
C198 C199 1.389 . S
C198 C203 1.391 . S
C199 H185 0.941 . S
C199 C198 1.389 . S
C199 C200 1.397 . S
C200 H186 0.939 . S
C200 C199 1.397 . S
C200 C201 1.378 . S
C201 C200 1.378 . S
C201 C202 1.378 . S
C202 H187 0.940 . S
C202 C201 1.378 . S
C202 C203 1.396 . S
C203 H188 0.940 . S
C203 C198 1.391 . S
C203 C202 1.396 . S
C204 P184 1.803 . S
C204 C205 1.378 . S
C204 C209 1.400 . S
C205 H189 0.939 . S
C205 C204 1.378 . S
C205 C206 1.361 . S
C206 H190 0.942 . S
C206 C205 1.361 . S
C206 C207 1.369 . S
C207 C206 1.369 . S
C207 C208 1.404 . S
C208 H191 0.940 . S
C208 C207 1.404 . S
C208 C209 1.389 . S
C209 H192 0.939 . S
C209 C204 1.400 . S
C209 C208 1.389 . S
C210 P184 1.819 . S
C210 C211 1.391 . S
C210 C215 1.391 . S
C211 H193 0.941 . S
C211 C210 1.391 . S
C211 C212 1.396 . S
C212 H196 0.939 . S
C212 C211 1.396 . S
C212 C213 1.397 . S
C213 C212 1.397 . S
C213 C214 1.385 . S
C214 H197 0.940 . S
C214 C213 1.385 . S
C214 C215 1.388 . S
C215 H194 0.939 . S
C215 C210 1.391 . S
C215 C214 1.388 . S
P216 O227 1.490 . S
P216 C230 1.812 . S
P216 C236 1.803 . S
P216 C242 1.819 . S
H217 C231 0.941 . S
H218 C232 0.939 . S
H219 C234 0.940 . S
H220 C235 0.940 . S
H221 C237 0.939 . S
H222 C238 0.942 . S
H223 C240 0.940 . S
H224 C241 0.939 . S
H225 C243 0.941 . S
H226 C247 0.939 . S
O227 P216 1.490 . S
H228 C244 0.939 . S
H229 C246 0.940 . S
C230 P216 1.812 . S
C230 C231 1.389 . S
C230 C235 1.391 . S
C231 H217 0.941 . S
C231 C230 1.389 . S
C231 C232 1.397 . S
C232 H218 0.939 . S
C232 C231 1.397 . S
C232 C233 1.378 . S
C233 C232 1.378 . S
C233 C234 1.378 . S
C234 H219 0.940 . S
C234 C233 1.378 . S
C234 C235 1.396 . S
C235 H220 0.940 . S
C235 C230 1.391 . S
C235 C234 1.396 . S
C236 P216 1.803 . S
C236 C237 1.378 . S
C236 C241 1.400 . S
C237 H221 0.939 . S
C237 C236 1.378 . S
C237 C238 1.361 . S
C238 H222 0.942 . S
C238 C237 1.361 . S
C238 C239 1.369 . S
C239 C238 1.369 . S
C239 C240 1.404 . S
C240 H223 0.940 . S
C240 C239 1.404 . S
C240 C241 1.389 . S
C241 H224 0.939 . S
C241 C236 1.400 . S
C241 C240 1.389 . S
C242 P216 1.819 . S
C242 C243 1.391 . S
C242 C247 1.391 . S
C243 H225 0.941 . S
C243 C242 1.391 . S
C243 C244 1.396 . S
C244 H228 0.939 . S
C244 C243 1.396 . S
C244 C245 1.397 . S
C245 C244 1.397 . S
C245 C246 1.385 . S
C246 H229 0.940 . S
C246 C245 1.385 . S
C246 C247 1.388 . S
C247 H226 0.939 . S
C247 C242 1.391 . S
C247 C246 1.388 . S
P248 O259 1.490 . S
P248 C262 1.812 . S
P248 C268 1.803 . S
P248 C274 1.819 . S
H249 C263 0.941 . S
H250 C264 0.939 . S
H251 C266 0.940 . S
H252 C267 0.940 . S
H253 C269 0.939 . S
H254 C270 0.942 . S
H255 C272 0.940 . S
H256 C273 0.939 . S
H257 C275 0.941 . S
H258 C279 0.939 . S
O259 P248 1.490 . S
H260 C276 0.939 . S
H261 C278 0.940 . S
C262 P248 1.812 . S
C262 C263 1.389 . S
C262 C267 1.391 . S
C263 H249 0.941 . S
C263 C262 1.389 . S
C263 C264 1.397 . S
C264 H250 0.939 . S
C264 C263 1.397 . S
C264 C265 1.378 . S
C265 C264 1.378 . S
C265 C266 1.378 . S
C266 H251 0.940 . S
C266 C265 1.378 . S
C266 C267 1.396 . S
C267 H252 0.940 . S
C267 C262 1.391 . S
C267 C266 1.396 . S
C268 P248 1.803 . S
C268 C269 1.378 . S
C268 C273 1.400 . S
C269 H253 0.939 . S
C269 C268 1.378 . S
C269 C270 1.361 . S
C270 H254 0.942 . S
C270 C269 1.361 . S
C270 C271 1.369 . S
C271 C270 1.369 . S
C271 C272 1.404 . S
C272 H255 0.940 . S
C272 C271 1.404 . S
C272 C273 1.389 . S
C273 H256 0.939 . S
C273 C268 1.400 . S
C273 C272 1.389 . S
C274 P248 1.819 . S
C274 C275 1.391 . S
C274 C279 1.391 . S
C275 H257 0.941 . S
C275 C274 1.391 . S
C275 C276 1.396 . S
C276 H260 0.939 . S
C276 C275 1.396 . S
C276 C277 1.397 . S
C277 C276 1.397 . S
C277 C278 1.385 . S
C278 H261 0.940 . S
C278 C277 1.385 . S
C278 C279 1.388 . S
C279 H258 0.939 . S
C279 C274 1.391 . S
C279 C278 1.388 . S
P280 O291 1.490 . S
P280 C294 1.812 . S
P280 C300 1.803 . S
P280 C306 1.819 . S
H281 C295 0.941 . S
H282 C296 0.939 . S
H283 C298 0.940 . S
H284 C299 0.940 . S
H285 C301 0.939 . S
H286 C302 0.942 . S
H287 C304 0.940 . S
H288 C305 0.939 . S
H289 C307 0.941 . S
H290 C311 0.939 . S
O291 P280 1.490 . S
H292 C308 0.939 . S
H293 C310 0.940 . S
C294 P280 1.812 . S
C294 C295 1.389 . S
C294 C299 1.391 . S
C295 H281 0.941 . S
C295 C294 1.389 . S
C295 C296 1.397 . S
C296 H282 0.939 . S
C296 C295 1.397 . S
C296 C297 1.378 . S
C297 C296 1.378 . S
C297 C298 1.378 . S
C298 H283 0.940 . S
C298 C297 1.378 . S
C298 C299 1.396 . S
C299 H284 0.940 . S
C299 C294 1.391 . S
C299 C298 1.396 . S
C300 P280 1.803 . S
C300 C301 1.378 . S
C300 C305 1.400 . S
C301 H285 0.939 . S
C301 C300 1.378 . S
C301 C302 1.361 . S
C302 H286 0.942 . S
C302 C301 1.361 . S
C302 C303 1.369 . S
C303 C302 1.369 . S
C303 C304 1.404 . S
C304 H287 0.940 . S
C304 C303 1.404 . S
C304 C305 1.389 . S
C305 H288 0.939 . S
C305 C300 1.400 . S
C305 C304 1.389 . S
C306 P280 1.819 . S
C306 C307 1.391 . S
C306 C311 1.391 . S
C307 H289 0.941 . S
C307 C306 1.391 . S
C307 C308 1.396 . S
C308 H292 0.939 . S
C308 C307 1.396 . S
C308 C309 1.397 . S
C309 C308 1.397 . S
C309 C310 1.385 . S
C310 H293 0.940 . S
C310 C309 1.385 . S
C310 C311 1.388 . S
C311 H290 0.939 . S
C311 C306 1.391 . S
C311 C310 1.388 . S
P312 O323 1.490 . S
P312 C326 1.812 . S
P312 C332 1.803 . S
P312 C338 1.819 . S
H313 C327 0.941 . S
H314 C328 0.939 . S
H315 C330 0.940 . S
H316 C331 0.940 . S
H317 C333 0.939 . S
H318 C334 0.942 . S
H319 C336 0.940 . S
H320 C337 0.939 . S
H321 C339 0.941 . S
H322 C343 0.939 . S
O323 P312 1.490 . S
H324 C340 0.939 . S
H325 C342 0.940 . S
C326 P312 1.812 . S
C326 C327 1.389 . S
C326 C331 1.391 . S
C327 H313 0.941 . S
C327 C326 1.389 . S
C327 C328 1.397 . S
C328 H314 0.939 . S
C328 C327 1.397 . S
C328 C329 1.378 . S
C329 C328 1.378 . S
C329 C330 1.378 . S
C330 H315 0.940 . S
C330 C329 1.378 . S
C330 C331 1.396 . S
C331 H316 0.940 . S
C331 C326 1.391 . S
C331 C330 1.396 . S
C332 P312 1.803 . S
C332 C333 1.378 . S
C332 C337 1.400 . S
C333 H317 0.939 . S
C333 C332 1.378 . S
C333 C334 1.361 . S
C334 H318 0.942 . S
C334 C333 1.361 . S
C334 C335 1.369 . S
C335 C334 1.369 . S
C335 C336 1.404 . S
C336 H319 0.940 . S
C336 C335 1.404 . S
C336 C337 1.389 . S
C337 H320 0.939 . S
C337 C332 1.400 . S
C337 C336 1.389 . S
C338 P312 1.819 . S
C338 C339 1.391 . S
C338 C343 1.391 . S
C339 H321 0.941 . S
C339 C338 1.391 . S
C339 C340 1.396 1_655 S
C340 H324 0.939 . S
C340 C339 1.396 1_455 S
C340 C341 1.397 . S
C341 C340 1.397 . S
C341 C342 1.385 . S
C342 H325 0.940 . S
C342 C341 1.385 . S
C342 C343 1.388 1_455 S
C343 H322 0.939 . S
C343 C338 1.391 . S
C343 C342 1.388 1_655 S
C344 C345 1.170 . S
C344 C346 1.380 . S
C345 C344 1.170 . S
C346 C344 1.380 . S
C346 C347 1.170 . S
C347 C346 1.170 . S
C348 C349 1.170 . S
C348 C350 1.380 . S
C349 C348 1.170 . S
C350 C348 1.380 . S
C350 C351 1.170 . S
C351 C350 1.170 . S
C352 C353 1.170 . S
C352 C354 1.380 . S
C353 C352 1.170 . S
C354 C352 1.380 . S
C354 C355 1.170 1_545 S
C355 C354 1.170 1_565 S
C356 C357 1.170 . S
C356 C358 1.380 . S
C357 C356 1.170 . S
C358 C356 1.380 . S
C358 C359 1.170 . S
C359 C358 1.170 . S
C360 C361 1.170 . S
C360 C362 1.380 . S
C361 C360 1.170 . S
C362 C360 1.380 . S
C362 C363 1.170 . S
C363 C362 1.170 . S
C364 C365 1.170 1_455 S
C364 C366 1.380 . S
C365 C364 1.170 1_655 S
C366 C364 1.380 . S
C366 C367 1.170 . S
C367 C366 1.170 . S
C368 C369 1.170 . S
C368 C370 1.380 . S
C369 C368 1.170 . S
C370 C368 1.380 . S
C370 C371 1.170 . S
C371 C370 1.170 . S
C372 C373 1.170 . S
C372 C374 1.380 . S
C373 C372 1.170 . S
C374 C372 1.380 . S
C374 C375 1.170 . S
C375 C374 1.170 . S
C376 C377 1.170 . S
C376 C378 1.380 . S
C377 C376 1.170 . S
C378 C376 1.380 . S
C378 C379 1.170 . S
C379 C378 1.170 . S
C380 C381 1.170 . S
C380 C382 1.380 . S
C381 C380 1.170 . S
C382 C380 1.380 . S
C382 C383 1.170 . S
C383 C382 1.170 . S
C384 C385 1.170 . S
C384 C386 1.380 . S
C385 C384 1.170 . S
C386 C384 1.380 . S
C386 C387 1.170 1_565 S
C387 C386 1.170 1_545 S
C388 C389 1.170 . S
C388 C390 1.380 . S
C389 C388 1.170 . S
C390 C388 1.380 . S
C390 C391 1.170 . S
C391 C390 1.170 . S
C392 C393 1.170 . S
C392 C394 1.380 . S
C393 C392 1.170 . S
C394 C392 1.380 . S
C394 C395 1.170 . S
C395 C394 1.170 . S
C396 C397 1.170 1_655 S
C396 C398 1.380 . S
C397 C396 1.170 1_455 S
C398 C396 1.380 . S
C398 C399 1.170 . S
C399 C398 1.170 . S
C400 C401 1.170 . S
C400 C402 1.380 . S
C401 C400 1.170 . S
C402 C400 1.380 . S
C402 C403 1.170 . S
C403 C402 1.170 . S
C404 C405 1.170 . S
C404 C406 1.380 . S
C405 C404 1.170 . S
C406 C404 1.380 . S
C406 C407 1.170 . S
C407 C406 1.170 . S
C408 C409 1.170 . S
C408 C410 1.380 . S
C409 C408 1.170 . S
C410 C408 1.380 . S
C410 C411 1.170 . S
C411 C410 1.170 . S
C412 C413 1.170 . S
C412 C414 1.380 . S
C413 C412 1.170 . S
C414 C412 1.380 . S
C414 C415 1.170 . S
C415 C414 1.170 . S
C416 C417 1.170 . S
C416 C418 1.380 . S
C417 C416 1.170 . S
C418 C416 1.380 . S
C418 C419 1.170 . S
C419 C418 1.170 . S
C420 C421 1.170 . S
C420 C422 1.380 . S
C421 C420 1.170 . S
C422 C420 1.380 . S
C422 C423 1.170 . S
C423 C422 1.170 . S
C424 C425 1.170 . S
C424 C426 1.380 . S
C425 C424 1.170 . S
C426 C424 1.380 . S
C426 C427 1.170 . S
C427 C426 1.170 . S
C428 C429 1.170 . S
C428 C430 1.380 . S
C429 C428 1.170 . S
C430 C428 1.380 . S
C430 C431 1.170 . S
C431 C430 1.170 . S
C432 C433 1.170 . S
C432 C434 1.380 . S
C433 C432 1.170 . S
C434 C432 1.380 . S
C434 C435 1.170 . S
C435 C434 1.170 . S
C436 C437 1.170 . S
C436 C438 1.380 . S
C437 C436 1.170 . S
C438 C436 1.380 . S
C438 C439 1.170 . S
C439 C438 1.170 . S
C345 C8 1.609 . S
C347 C105 1.584 1_565 S
C349 C31 1.506 . S
C351 C137 1.454 . S
C353 C53 1.751 . S
C355 C169 1.537 . S
C359 C213 1.494 . S
C357 C74 1.471 . S
C363 C233 1.556 . S
C361 C26 1.568 . S
C365 C48 1.449 . S
C367 C277 1.511 . S
C369 C71 1.707 . S
C371 C297 1.579 . S
C373 C5 1.536 . S
C375 C341 1.320 . S
C377 C50 1.604 . S
C379 C329 1.411 1_545 S
C383 C245 1.531 . S
C381 C70 1.573 . S
C387 C265 1.712 . S
C385 C4 1.757 1_556 S
C389 C28 1.475 . S
C391 C309 1.389 . S
C395 C149 1.619 . S
C393 C73 1.628 . S
C397 C7 1.482 . S
C399 C181 1.377 . S
C403 C201 1.700 . S
C401 C30 1.737 . S
C407 C117 1.502 . S
C405 C52 1.538 . S
C411 C303 1.429 . S
C409 C9 1.600 . S
C415 C335 1.314 . S
C413 C29 1.425 . S
C417 C51 1.437 . S
C419 C239 1.457 . S
C423 C271 1.600 . S
C421 C75 1.627 . S
C427 C175 1.453 . S
C425 C27 1.611 . S
C429 C49 1.605 . S
C431 C207 1.575 . S
C435 C111 1.458 . S
C433 C72 1.419 . S
C439 C143 1.448 . S
C437 C6 1.397 1_556 S
