# Generated by pormake.
# Topology anh, (6,3)-cn, num edge types: 1
# Building blocks:
#     Node 0, Type 0, BuildingBlock: BETDAH_clean_sbu_0, # of connection points: 6
#     Node 1, Type 0, BuildingBlock: BETDAH_clean_sbu_0, # of connection points: 6
#     Node 2, Type 0, BuildingBlock: BETDAH_clean_sbu_0, # of connection points: 6
#     Node 3, Type 1, BuildingBlock: PAMTOO_clean_linker_0, # of connection points: 3
#     Node 4, Type 1, BuildingBlock: PAMTOO_clean_linker_0, # of connection points: 3
#     Node 5, Type 1, BuildingBlock: PAMTOO_clean_linker_0, # of connection points: 3
#     Node 6, Type 1, BuildingBlock: PAMTOO_clean_linker_0, # of connection points: 3
#     Node 7, Type 1, BuildingBlock: PAMTOO_clean_linker_0, # of connection points: 3
#     Node 8, Type 1, BuildingBlock: PAMTOO_clean_linker_0, # of connection points: 3
#     Edge 9, Type (0, 1), BuildingBlock: CIFDUS_clean_linker_0, # of connection points: 2
#     Edge 10, Type (0, 1), BuildingBlock: CIFDUS_clean_linker_0, # of connection points: 2
#     Edge 11, Type (0, 1), BuildingBlock: CIFDUS_clean_linker_0, # of connection points: 2
#     Edge 12, Type (0, 1), BuildingBlock: CIFDUS_clean_linker_0, # of connection points: 2
#     Edge 13, Type (0, 1), BuildingBlock: CIFDUS_clean_linker_0, # of connection points: 2
#     Edge 14, Type (0, 1), BuildingBlock: CIFDUS_clean_linker_0, # of connection points: 2
#     Edge 15, Type (0, 1), BuildingBlock: CIFDUS_clean_linker_0, # of connection points: 2
#     Edge 16, Type (0, 1), BuildingBlock: CIFDUS_clean_linker_0, # of connection points: 2
#     Edge 17, Type (0, 1), BuildingBlock: CIFDUS_clean_linker_0, # of connection points: 2
#     Edge 18, Type (0, 1), BuildingBlock: CIFDUS_clean_linker_0, # of connection points: 2
#     Edge 19, Type (0, 1), BuildingBlock: CIFDUS_clean_linker_0, # of connection points: 2
#     Edge 20, Type (0, 1), BuildingBlock: CIFDUS_clean_linker_0, # of connection points: 2
#     Edge 21, Type (0, 1), BuildingBlock: CIFDUS_clean_linker_0, # of connection points: 2
#     Edge 22, Type (0, 1), BuildingBlock: CIFDUS_clean_linker_0, # of connection points: 2
#     Edge 23, Type (0, 1), BuildingBlock: CIFDUS_clean_linker_0, # of connection points: 2
#     Edge 24, Type (0, 1), BuildingBlock: CIFDUS_clean_linker_0, # of connection points: 2
#     Edge 25, Type (0, 1), BuildingBlock: CIFDUS_clean_linker_0, # of connection points: 2
#     Edge 26, Type (0, 1), BuildingBlock: CIFDUS_clean_linker_0, # of connection points: 2
# Relax obj value: 0.188
# Max RMSD: 0.197
# Mean RMSD: 0.129
data_MOF--net-anh--node1-BETDAH_clean_sbu_0--node2-PAMTOO_clean_linker_0--edge1-CIFDUS_clean_linker_0
_symmetry_space_group_name_H-M    P1
_symmetry_Int_Tables_number       1
_symmetry_cell_setting            triclinic
loop_
_symmetry_equiv_pos_as_xyz
'x, y, z'
_cell_length_a     26.106199
_cell_length_b     33.655364
_cell_length_c     43.230853
_cell_angle_alpha  88.402864
_cell_angle_beta   92.091538
_cell_angle_gamma 131.07207
loop_
_atom_site_label
_atom_site_type_symbol
_atom_site_fract_x
_atom_site_fract_y
_atom_site_fract_z
_atom_type_partial_charge
Ho0 Ho 0.28373 0.59402 0.14447 0.0
Ho1 Ho 0.1897 0.60963 0.16935 0.0
C2 C 0.34359 0.71367 0.15454 0.0
C3 C 0.35872 0.58461 0.11441 0.0
C4 C 0.36153 0.54249 0.11413 0.0
C5 C 0.39404 0.5398 0.09027 0.0
C6 C 0.39428 0.49837 0.08953 0.0
C7 C 0.36217 0.45924 0.11273 0.0
C8 C 0.32965 0.46223 0.13657 0.0
C9 C 0.32908 0.50335 0.13718 0.0
C10 C 0.26867 0.58367 0.20639 0.0
C11 C 0.13244 0.49253 0.16245 0.0
C12 C 1.11569 0.6207 0.19862 0.0
C13 C 1.04118 0.58347 0.19945 0.0
C14 C 1.00588 0.59709 0.21211 0.0
C15 C 0.93456 0.56148 0.21067 0.0
C16 C 0.89795 0.51186 0.19661 0.0
C17 C 0.93413 0.49832 0.18475 0.0
C18 C 1.00474 0.53371 0.18611 0.0
C19 C 0.17042 0.58285 0.10874 0.0
O20 O 0.35385 0.68324 0.1431 0.0
O21 O 0.28537 0.69398 0.16688 0.0
O22 O 0.30241 0.5716 0.10286 0.0
O23 O 0.37845 0.61067 0.1404 0.0
O24 O 0.27483 0.55556 0.18987 0.0
O25 O 0.27391 0.61725 0.18957 0.0
O26 O 0.13351 0.52475 0.17975 0.0
O27 O 0.18139 0.51087 0.1427 0.0
O28 O 0.14109 0.64237 0.17151 0.0
O29 O 0.14364 0.60323 0.21182 0.0
O30 O 1.12228 0.56855 0.12672 0.0
O31 O 0.22648 0.61427 0.12298 0.0
H32 H 0.41886 0.56952 0.07218 0.0
H33 H 0.42003 0.49717 0.07098 0.0
H34 H 0.30359 0.43222 0.15447 0.0
H35 H 0.30277 0.50435 0.15551 0.0
H36 H 1.03333 0.63542 0.22249 0.0
H37 H 0.90816 0.57306 0.22001 0.0
H38 H 0.90812 0.46123 0.17302 0.0
H39 H 1.031 0.52265 0.1759 0.0
Ho40 Ho 0.76823 0.05173 0.46873 0.0
Ho41 Ho 0.67115 0.06903 0.4526 0.0
C42 C 0.60752 0.95081 0.45474 0.0
C43 C 0.83188 0.02393 0.49433 0.0
C44 C 0.82382 0.97677 0.49976 0.0
C45 C 0.75957 0.92641 0.50282 0.0
C46 C 0.75406 0.88289 0.50994 0.0
C47 C 0.81276 0.88917 0.51418 0.0
C48 C 0.87678 0.93951 0.51012 0.0
C49 C 0.88217 0.98283 0.50301 0.0
C50 C 0.75895 0.06542 0.40776 0.0
C51 C 0.83346 0.17029 0.45941 0.0
C52 C 0.61282 0.10451 0.43344 0.0
C53 C 0.62047 0.14895 0.44507 0.0
C54 C 0.60825 0.17602 0.42554 0.0
C55 C 0.61828 0.21955 0.43654 0.0
C56 C 0.64069 0.23671 0.46731 0.0
C57 C 0.65257 0.2091 0.48674 0.0
C58 C 0.64304 0.16601 0.47569 0.0
C59 C 0.68881 0.06153 0.51399 0.0
O60 O 0.66414 0.96876 0.47001 0.0
O61 O 0.60263 0.98362 0.44069 0.0
O62 O 0.84054 0.04039 0.46573 0.0
O63 O 0.79142 0.02652 0.50921 0.0
O64 O 0.81422 0.08204 0.4222 0.0
O65 O 0.70942 0.03894 0.42583 0.0
O66 O 0.7737 0.14993 0.44701 0.0
O67 O 0.8425 0.14011 0.47395 0.0
O68 O 0.58451 0.06437 0.45233 0.0
O69 O 0.66649 0.11737 0.42055 0.0
O70 O 0.63155 0.04316 0.50119 0.0
O71 O 0.73407 0.08547 0.49407 0.0
H72 H 0.71389 0.92097 0.50036 0.0
H73 H 0.70404 0.84472 0.51311 0.0
H74 H 0.92289 0.94553 0.51272 0.0
H75 H 0.93216 0.02136 0.50055 0.0
H76 H 0.59162 0.16383 0.40172 0.0
H77 H 0.60952 0.24023 0.42078 0.0
H78 H 0.66871 0.22043 0.51068 0.0
H79 H 0.65346 0.146 0.49112 0.0
Ho80 Ho 0.72921 0.60022 0.83765 0.0
Ho81 Ho 0.62579 0.48136 0.84011 0.0
C82 C 0.56756 0.53958 0.83688 0.0
C83 C 0.79779 0.69862 0.82419 0.0
C84 C 0.783 0.73181 0.81203 0.0
C85 C 0.76109 0.72779 0.78117 0.0
C86 C 0.74831 0.76004 0.77008 0.0
C87 C 0.7568 0.7969 0.78958 0.0
C88 C 0.77867 0.80077 0.82044 0.0
C89 C 0.79194 0.7688 0.83146 0.0
C90 C 0.69882 0.55685 0.89466 0.0
C91 C 0.79091 0.5444 0.84312 0.0
C92 C 0.5561 0.38255 0.8529 0.0
C93 C 0.56358 0.34404 0.84628 0.0
C94 C 0.51176 0.29092 0.854 0.0
C95 C 0.51648 0.25341 0.84615 0.0
C96 C 0.57326 0.26848 0.83044 0.0
C97 C 0.62582 0.32209 0.82331 0.0
C98 C 0.62087 0.35952 0.83106 0.0
C99 C 0.65351 0.52293 0.7828 0.0
O100 O 0.62853 0.57993 0.8264 0.0
O101 O 0.55613 0.49781 0.84902 0.0
O102 O 0.77647 0.67905 0.85198 0.0
O103 O 0.78896 0.66486 0.80514 0.0
O104 O 0.75974 0.59815 0.88687 0.0
O105 O 0.65764 0.54241 0.87251 0.0
O106 O 0.72724 0.49927 0.84613 0.0
O107 O 0.80464 0.58919 0.83693 0.0
O108 O 0.54361 0.3995 0.82876 0.0
O109 O 0.6016 0.42053 0.8719 0.0
O110 O 0.59379 0.48125 0.79128 0.0
O111 O 0.69672 0.53873 0.80436 0.0
H112 H 0.75404 0.69992 0.76549 0.0
H113 H 0.73261 0.7565 0.74606 0.0
H114 H 0.78482 0.82809 0.83626 0.0
H115 H 0.80905 0.77291 0.8553 0.0
H116 H 0.4672 0.27833 0.86575 0.0
H117 H 0.47558 0.21255 0.85231 0.0
H118 H 0.66985 0.33491 0.81095 0.0
H119 H 0.66113 0.40036 0.82466 0.0
H120 H 0.88687 0.20239 0.22929 0.0
H121 H 0.73059 0.03557 0.21438 0.0
H122 H 0.82336 0.14158 0.13648 0.0
H123 H 0.67697 0.03489 0.11702 0.0
C124 C 0.67076 0.02306 0.14177 0.0
O125 O 0.7329 0.04197 0.15399 0.0
H126 H 0.65308 0.04096 0.15373 0.0
C127 C 0.85447 0.1694 0.21356 0.0
C128 C 0.86026 0.17872 0.18148 0.0
C129 C 0.80832 0.11814 0.22572 0.0
C130 C 0.7662 0.07546 0.2054 0.0
C131 C 0.77182 0.08385 0.17328 0.0
C132 C 0.8193 0.1354 0.16131 0.0
H133 H 0.74473 0.64552 0.6048 0.0
H134 H 0.71109 0.50321 0.59383 0.0
H135 H 0.71881 0.5849 0.51363 0.0
H136 H 0.60956 0.46897 0.5112 0.0
C137 C 0.63333 0.45727 0.52621 0.0
O138 O 0.6995 0.50174 0.5334 0.0
H139 H 0.60368 0.43891 0.54773 0.0
C140 C 0.7371 0.61658 0.58987 0.0
C141 C 0.73414 0.62129 0.55756 0.0
C142 C 0.72916 0.57438 0.60321 0.0
C143 C 0.7184 0.53651 0.58391 0.0
C144 C 0.7136 0.53996 0.55171 0.0
C145 C 0.72186 0.58239 0.53858 0.0
H146 H 1.05401 0.52835 0.92609 0.0
H147 H 0.21256 0.52151 0.91985 0.0
H148 H 1.1024 0.50549 0.83784 0.0
H149 H 0.29077 0.58173 0.86653 0.0
C150 C 0.26513 0.54723 0.85094 0.0
O151 O 0.1996 0.50584 0.8608 0.0
H152 H 0.26133 0.55948 0.82744 0.0
C153 C 1.08519 0.5252 0.91243 0.0
C154 C 1.07273 0.518 0.88029 0.0
C155 C 0.13505 0.52627 0.92723 0.0
C156 C 0.17324 0.52014 0.90918 0.0
C157 C 0.16237 0.51303 0.87708 0.0
C158 C 1.1115 0.51153 0.86259 0.0
H159 H 0.14562 0.44072 0.38631 0.0
H160 H 0.32104 0.60522 0.39753 0.0
H161 H 0.21938 0.50682 0.47762 0.0
H162 H 0.29439 0.62594 0.49263 0.0
C163 C 0.31036 0.63608 0.46816 0.0
O164 O 0.32075 0.60333 0.45786 0.0
H165 H 0.26837 0.62973 0.4546 0.0
C166 C 0.18187 0.47425 0.40121 0.0
C167 C 0.17567 0.46763 0.43346 0.0
C168 C 0.23419 0.52347 0.38793 0.0
C169 C 0.28024 0.56691 0.40734 0.0
C170 C 0.27505 0.56101 0.43958 0.0
C171 C 0.22325 0.5112 0.45268 0.0
H172 H 0.71958 0.99193 0.69362 0.0
H173 H 0.68023 0.09517 0.71026 0.0
H174 H 0.73464 0.04361 0.78626 0.0
H175 H 0.64576 0.0605 0.80774 0.0
C176 C 0.64583 0.07957 0.78632 0.0
O177 O 0.70366 0.10125 0.77004 0.0
H178 H 0.59964 0.0488 0.77214 0.0
C179 C 0.71612 1.01436 0.70955 0.0
C180 C 0.72853 1.0135 0.74138 0.0
C181 C 0.6988 0.04374 0.69813 0.0
C182 C 0.69367 0.07238 0.71876 0.0
C183 C 0.70733 0.07269 0.75041 0.0
C184 C 0.72521 0.04367 0.76165 0.0
H185 H 0.62242 0.44004 0.06965 0.0
H186 H 0.45303 0.29511 0.02576 0.0
H187 H 0.49516 0.296 0.12259 0.0
H188 H 0.33293 0.1971 0.10568 0.0
C189 C 0.34719 0.21791 0.08301 0.0
O190 O 0.41216 0.23832 0.07614 0.0
H191 H 0.31082 0.18782 0.06539 0.0
C192 C 0.579 0.39824 0.07106 0.0
C193 C 0.56428 0.37167 0.09946 0.0
C194 C 0.5398 0.37131 0.04419 0.0
C195 C 0.48402 0.317 0.04613 0.0
C196 C 0.46773 0.29028 0.07442 0.0
C197 C 0.50808 0.31735 0.10094 0.0
H198 H 0.33555 0.39928 0.06337 0.0
H199 H 0.38791 0.42012 0.16088 0.0
H200 H 0.38454 0.34586 0.16057 0.0
H201 H 0.36802 0.2756 0.13244 0.0
H202 H 0.31725 0.25513 0.03497 0.0
H203 H 0.31882 0.32875 0.03523 0.0
C204 C 0.34671 0.38776 0.08447 0.0
C205 C 0.36187 0.41506 0.1121 0.0
C206 C 0.3444 0.3449 0.08414 0.0
C207 C 0.37541 0.39934 0.13938 0.0
C208 C 0.37366 0.35701 0.13921 0.0
C209 C 0.35616 0.28685 0.11146 0.0
C210 C 0.341 0.25955 0.0839 0.0
C211 C 0.35793 0.32939 0.11178 0.0
C212 C 0.3275 0.27507 0.05656 0.0
C213 C 0.32897 0.31731 0.05668 0.0
H214 H 0.96572 0.23222 0.48237 0.0
H215 H 0.82974 0.23904 0.42757 0.0
H216 H 0.92196 0.33166 0.417 0.0
H217 H 1.04247 0.40989 0.41999 0.0
H218 H 0.18089 0.40678 0.47473 0.0
H219 H 1.08687 0.31439 0.48901 0.0
C220 C 0.95624 0.25409 0.46832 0.0
C221 C 0.89061 0.22803 0.45557 0.0
C222 C 1.01007 0.30826 0.46227 0.0
C223 C 0.87943 0.25741 0.43761 0.0
C224 C 0.93229 0.31069 0.43147 0.0
C225 C 1.05182 0.38908 0.43535 0.0
C226 C 1.11835 0.41483 0.44616 0.0
C227 C 0.9979 0.33628 0.44321 0.0
C228 C 1.1299 0.38774 0.46626 0.0
C229 C 1.07624 0.33484 0.4742 0.0
H230 H 0.827 0.90047 0.80287 0.0
H231 H 0.65445 0.77007 0.74975 0.0
H232 H 0.63202 0.82587 0.72967 0.0
H233 H 0.66014 0.91127 0.72763 0.0
H234 H 0.82928 0.04067 0.78229 0.0
H235 H 0.85327 0.98528 0.80194 0.0
C236 C 0.78397 0.88397 0.78719 0.0
C237 C 0.74276 0.83105 0.77777 0.0
C238 C 0.77054 0.91606 0.7761 0.0
C239 C 0.68788 0.81082 0.75701 0.0
C240 C 0.67463 0.84262 0.74566 0.0
C241 C 0.70254 0.9274 0.74368 0.0
C242 C 0.74313 0.98001 0.75339 0.0
C243 C 0.71566 0.89527 0.755 0.0
C244 C 0.79714 1.00018 0.77462 0.0
C245 C 0.81098 0.9686 0.78575 0.0
H246 H 0.8237 0.53931 0.17869 0.0
H247 H 0.80427 0.40412 0.20074 0.0
H248 H 0.69128 0.34613 0.17632 0.0
H249 H 0.60971 0.33683 0.13993 0.0
H250 H 0.62736 0.47152 0.11916 0.0
H251 H 0.72884 0.52653 0.15251 0.0
C252 C 0.79389 0.49702 0.17922 0.0
C253 C 0.82334 0.47631 0.19065 0.0
C254 C 0.72911 0.46387 0.16489 0.0
C255 C 0.78362 0.42128 0.1912 0.0
C256 C 0.71895 0.38803 0.17726 0.0
C257 C 0.63418 0.37773 0.14353 0.0
C258 C 0.61231 0.40041 0.12623 0.0
C259 C 0.69281 0.40927 0.16259 0.0
C260 C 0.6446 0.45349 0.13138 0.0
C261 C 0.70258 0.485 0.1505 0.0
H262 H 0.59359 0.86985 0.48259 0.0
H263 H 0.48843 0.90137 0.42208 0.0
H264 H 0.38984 0.80759 0.4196 0.0
H265 H 0.33097 0.7165 0.43597 0.0
H266 H 0.43356 0.68382 0.49707 0.0
H267 H 0.53562 0.77777 0.4977 0.0
C268 C 0.54933 0.85625 0.46872 0.0
C269 C 0.54881 0.89305 0.45265 0.0
C270 C 0.49213 0.80185 0.46745 0.0
C271 C 0.49062 0.87434 0.43483 0.0
C272 C 0.43396 0.82052 0.43334 0.0
C273 C 0.37591 0.72993 0.4492 0.0
C274 C 0.37493 0.69332 0.46637 0.0
C275 C 0.43386 0.78395 0.44974 0.0
C276 C 0.43339 0.71132 0.48354 0.0
C277 C 0.49154 0.76501 0.48399 0.0
H278 H 0.68207 0.27356 0.83419 0.0
H279 H 0.4714 0.17283 0.80441 0.0
H280 H 0.47555 0.10626 0.78792 0.0
H281 H 0.53882 0.07643 0.78188 0.0
H282 H 0.74881 0.17602 0.8121 0.0
H283 H 0.7455 0.24353 0.8282 0.0
C284 C 0.63724 0.23719 0.82389 0.0
C285 C 0.57646 0.22817 0.82064 0.0
C286 C 0.63998 0.19901 0.81439 0.0
C287 C 0.51855 0.1805 0.8076 0.0
C288 C 0.52098 0.14252 0.79797 0.0
C289 C 0.58395 0.11313 0.79176 0.0
C290 C 0.64439 0.12184 0.7952 0.0
C291 C 0.58136 0.15133 0.80125 0.0
C292 C 0.70212 0.16899 0.80869 0.0
C293 C 0.70013 0.20742 0.81799 0.0
H294 H 0.72409 0.78753 0.49327 0.0
H295 H 0.89048 0.88997 0.55833 0.0
H296 H 0.88301 0.81703 0.57613 0.0
H297 H 0.82785 0.72394 0.57433 0.0
H298 H 0.65943 0.61992 0.51062 0.0
H299 H 0.66952 0.69368 0.49097 0.0
C300 C 0.75848 0.79376 0.51142 0.0
C301 C 0.8079 0.84424 0.52435 0.0
C302 C 0.75373 0.75142 0.52173 0.0
C303 C 0.85262 0.85179 0.54763 0.0
C304 C 0.84817 0.81001 0.55797 0.0
C305 C 0.79313 0.71733 0.55623 0.0
C306 C 0.74271 0.66644 0.54412 0.0
C307 C 0.79876 0.75967 0.54532 0.0
C308 C 0.69904 0.65878 0.5202 0.0
C309 C 0.70447 0.70087 0.50911 0.0
H310 H 0.8001 0.46743 0.83451 0.0
H311 H 0.91573 0.62735 0.86549 0.0
H312 H 1.01302 0.63431 0.87773 0.0
H313 H 1.0652 0.59461 0.88209 0.0
H314 H 0.95525 0.43709 0.84902 0.0
H315 H 0.85726 0.42986 0.83479 0.0
C316 C 0.84668 0.50381 0.84382 0.0
C317 C 0.84991 0.54676 0.84911 0.0
C318 C 0.90407 0.50818 0.85031 0.0
C319 C 0.91129 0.59369 0.86095 0.0
C320 C 0.96729 0.59777 0.86807 0.0
C321 C 1.0202 0.55901 0.87124 0.0
C322 C 1.01788 0.51657 0.86649 0.0
C323 C 0.9643 0.55531 0.86306 0.0
C324 C 0.95891 0.47063 0.85256 0.0
C325 C 0.90255 0.46634 0.84471 0.0
H326 H 0.4747 0.77292 0.13449 0.0
H327 H 0.33744 0.78665 0.17425 0.0
H328 H 0.4262 0.88195 0.17486 0.0
H329 H 0.54228 0.96222 0.16365 0.0
H330 H 0.68054 0.95079 0.12324 0.0
H331 H 0.59246 0.85426 0.1235 0.0
C332 C 0.46416 0.79672 0.14327 0.0
C333 C 0.39902 0.77212 0.15426 0.0
C334 C 0.51589 0.85217 0.14362 0.0
C335 C 0.38673 0.80397 0.1656 0.0
C336 C 0.43762 0.85876 0.16602 0.0
C337 C 0.55332 0.93855 0.15519 0.0
C338 C 0.61814 0.96353 0.14392 0.0
C339 C 0.5023 0.88331 0.1551 0.0
C340 C 0.6313 0.93237 0.1325 0.0
C341 C 0.58084 0.87723 0.13251 0.0
H342 H 0.56451 0.26469 0.45489 0.0
H343 H 0.74171 0.31327 0.50694 0.0
H344 H 0.75581 0.3857 0.52931 0.0
H345 H 0.71583 0.43389 0.5355 0.0
H346 H 0.54137 0.38742 0.48216 0.0
H347 H 0.52871 0.31601 0.45867 0.0
C348 C 0.60691 0.29156 0.47071 0.0
C349 C 0.65149 0.28294 0.47935 0.0
C350 C 0.61536 0.33371 0.48327 0.0
C351 C 0.7056 0.31802 0.5003 0.0
C352 C 0.71407 0.35979 0.513 0.0
C353 C 0.67587 0.40873 0.51829 0.0
C354 C 0.63059 0.41672 0.50997 0.0
C355 C 0.66894 0.36778 0.50486 0.0
C356 C 0.57772 0.38273 0.4884 0.0
C357 C 0.57028 0.34177 0.47508 0.0
H358 H 0.44552 0.48046 0.86794 0.0
H359 H 0.56679 0.60763 0.80198 0.0
H360 H 0.48346 0.61857 0.79958 0.0
H361 H 0.37797 0.59493 0.81715 0.0
H362 H 0.25741 0.47119 0.88466 0.0
H363 H 0.33757 0.45608 0.88542 0.0
C364 C 0.45341 0.51026 0.85285 0.0
C365 C 0.513 0.5431 0.83515 0.0
C366 C 0.40501 0.51703 0.85179 0.0
C367 C 0.52211 0.58179 0.816 0.0
C368 C 0.47421 0.58815 0.81454 0.0
C369 C 0.3686 0.56403 0.83168 0.0
C370 C 0.31036 0.53327 0.85009 0.0
C371 C 0.41573 0.55633 0.83244 0.0
C372 C 0.30051 0.49459 0.86957 0.0
C373 C 0.34679 0.48617 0.87015 0.0
H374 H 1.10942 0.40878 0.13449 0.0
H375 H 1.02385 0.44608 0.1991 0.0
H376 H 0.93037 0.3533 0.20815 0.0
H377 H 0.87495 0.26141 0.20045 0.0
H378 H 0.95743 0.22046 0.13722 0.0
H379 H 1.04856 0.31412 0.12446 0.0
C380 C 1.07017 0.39654 0.15043 0.0
C381 C 1.07464 0.43491 0.16625 0.0
C382 C 1.01554 0.34224 0.15577 0.0
C383 C 1.02275 0.41801 0.18668 0.0
C384 C 0.96878 0.36467 0.19193 0.0
C385 C 0.91268 0.27295 0.18372 0.0
C386 C 0.90981 0.23413 0.17003 0.0
C387 C 0.9651 0.32653 0.17698 0.0
C388 C 0.95836 0.2496 0.148 0.0
C389 C 1.01079 0.3032 0.14093 0.0
H390 H 0.185 0.52707 0.07223 0.0
H391 H 0.13755 0.62782 0.06991 0.0
H392 H 1.12494 0.62106 0.01334 0.0
H393 H 1.12799 0.58675 0.96479 0.0
H394 H 0.16693 0.48018 0.96749 0.0
H395 H 0.18442 0.49027 0.02344 0.0
C396 C 0.17254 0.54782 0.05918 0.0
C397 C 0.16294 0.57837 0.07485 0.0
C398 C 0.16431 0.54298 0.02677 0.0
C399 C 0.14529 0.60424 0.05806 0.0
C400 C 0.13819 0.6004 0.02581 0.0
C401 C 0.13938 0.56506 0.97753 0.0
C402 C 0.14621 0.53282 0.96158 0.0
C403 C 0.14743 0.56976 0.00992 0.0
C404 C 0.16254 0.50611 0.97877 0.0
C405 C 0.17197 0.51143 0.01093 0.0
H406 H 0.86243 0.11722 0.36861 0.0
H407 H 0.64519 0.02191 0.37092 0.0
H408 H 0.64024 0.02778 0.31425 0.0
H409 H 0.69919 0.06131 0.26392 0.0
H410 H 0.91688 0.15722 0.26341 0.0
H411 H 0.92017 0.14951 0.31951 0.0
C412 C 0.81388 0.09763 0.35675 0.0
C413 C 0.75426 0.06908 0.37381 0.0
C414 C 0.81162 0.10121 0.32446 0.0
C415 C 0.69179 0.04412 0.35818 0.0
C416 C 0.68901 0.04741 0.32582 0.0
C417 C 0.74707 0.08003 0.27619 0.0
C418 C 0.80778 0.10999 0.25963 0.0
C419 C 0.74871 0.07585 0.30868 0.0
C420 C 0.86965 0.13444 0.27572 0.0
C421 C 0.87158 0.13 0.30777 0.0
H422 H 0.74692 0.53746 0.74621 0.0
H423 H 0.59103 0.54774 0.74761 0.0
H424 H 0.60407 0.5683 0.6922 0.0
H425 H 0.65357 0.57667 0.6428 0.0
H426 H 0.80185 0.5583 0.63983 0.0
H427 H 0.79776 0.54686 0.69625 0.0
C428 C 0.71692 0.5452 0.73431 0.0
C429 C 0.6687 0.54184 0.75068 0.0
C430 C 0.72257 0.55458 0.70218 0.0
C431 C 0.62869 0.55055 0.73523 0.0
C432 C 0.63592 0.56202 0.70363 0.0
C433 C 0.6855 0.57072 0.6546 0.0
C434 C 0.72812 0.5685 0.63735 0.0
C435 C 0.68168 0.56308 0.68677 0.0
C436 C 0.76841 0.55987 0.65273 0.0
C437 C 0.76625 0.55356 0.68494 0.0
H438 H 0.60029 0.02814 0.55997 0.0
H439 H 0.80646 0.09775 0.54328 0.0
H440 H 0.82706 0.09669 0.59876 0.0
H441 H 0.78635 0.076 0.65221 0.0
H442 H 0.58363 1.01348 0.6694 0.0
H443 H 0.56166 1.01213 0.61363 0.0
C444 C 0.64965 0.043 0.56854 0.0
C445 C 0.70138 0.06198 0.54758 0.0
C446 C 0.66173 0.04376 0.60055 0.0
C447 C 0.76545 0.08195 0.55894 0.0
C448 C 0.77737 0.08163 0.59067 0.0
C449 C 0.73745 0.06211 0.6436 0.0
C450 C 0.68642 0.04453 0.66459 0.0
C451 C 0.72585 0.0625 0.61167 0.0
C452 C 0.6235 0.02721 0.65347 0.0
C453 C 0.61097 0.02634 0.62167 0.0
H454 H 0.57237 0.47802 0.91512 0.0
H455 H 0.78451 0.56962 0.93949 0.0
H456 H 0.75372 0.51866 0.98743 0.0
H457 H 0.66667 0.44788 0.0219 0.0
H458 H 0.45434 0.35957 -0.00097 0.0
H459 H 0.48509 0.40858 0.95043 0.0
C460 C 0.6118 0.48684 0.931 0.0
C461 C 0.68056 0.52743 0.92395 0.0
C462 C 0.59369 0.45769 0.95851 0.0
C463 C 0.73125 0.53866 0.94461 0.0
C464 C 0.71366 0.50945 0.9719 0.0
C465 C 0.627 0.43974 0.00654 0.0
C466 C 0.55824 0.40015 0.01424 0.0
C467 C 0.64505 0.46894 0.97907 0.0
C468 C 0.5076 0.38931 -0.00644 0.0
C469 C 0.52515 0.41762 0.96588 0.0
H470 H 0.25146 0.51036 0.2438 0.0
H471 H 0.27236 0.64849 0.24489 0.0
H472 H 0.26492 0.6429 0.3014 0.0
H473 H 0.25256 0.59843 0.35061 0.0
H474 H 0.23044 0.45971 0.34881 0.0
H475 H 0.23829 0.46579 0.29252 0.0
C476 C 0.25439 0.53922 0.25644 0.0
C477 C 0.2626 0.57982 0.24033 0.0
C478 C 0.24996 0.53567 0.2888 0.0
C479 C 0.26596 0.61683 0.25688 0.0
C480 C 0.26187 0.61371 0.28916 0.0
C481 C 0.24999 0.56985 0.33784 0.0
C482 C 0.24091 0.52868 0.35381 0.0
C483 C 0.25408 0.57337 0.30539 0.0
C484 C 0.23681 0.49148 0.337 0.0
C485 C 0.24148 0.495 0.30484 0.0
loop_
_geom_bond_atom_site_label_1
_geom_bond_atom_site_label_2
_geom_bond_distance
_geom_bond_site_symmetry_2
_ccdc_geom_bond_type
Ho0 C3 2.811 . S
Ho0 O20 2.322 . S
Ho0 O22 2.378 . S
Ho0 O23 2.524 . S
Ho0 O24 2.381 . S
Ho0 O25 2.669 1_455 S
Ho0 O27 2.346 1_455 S
Ho0 O31 2.305 . S
Ho1 C12 2.811 . S
Ho1 O21 2.346 1_655 S
Ho1 O25 2.305 . S
Ho1 O26 2.322 . S
Ho1 O28 2.378 . S
Ho1 O29 2.524 . S
Ho1 O30 2.381 . S
Ho1 O31 2.669 1_655 S
C2 O20 1.259 . S
C2 O21 1.268 . S
C3 Ho0 2.811 . S
C3 C4 1.488 . S
C3 O22 1.215 . S
C3 O23 1.289 . S
C4 C3 1.488 . S
C4 C5 1.348 . S
C4 C9 1.413 . S
C5 C4 1.348 . S
C5 C6 1.442 . S
C5 H32 0.930 . S
C6 C5 1.442 . S
C6 C7 1.381 . S
C6 H33 0.931 . S
C7 C6 1.381 . S
C7 C8 1.321 . S
C8 C7 1.321 . S
C8 C9 1.403 . S
C8 H34 0.934 . S
C9 C4 1.413 . S
C9 C8 1.403 . S
C9 H35 0.930 . S
C10 O24 1.275 . S
C10 O25 1.256 1_455 S
C11 O26 1.259 . S
C11 O27 1.268 . S
C12 Ho1 2.811 . S
C12 C13 1.488 . S
C12 O28 1.215 . S
C12 O29 1.289 . S
C13 C12 1.488 . S
C13 C14 1.348 . S
C13 C18 1.413 . S
C14 C13 1.348 . S
C14 C15 1.442 . S
C14 H36 0.930 . S
C15 C14 1.442 . S
C15 C16 1.381 . S
C15 H37 0.931 . S
C16 C15 1.381 . S
C16 C17 1.321 . S
C17 C16 1.321 . S
C17 C18 1.403 . S
C17 H38 0.934 . S
C18 C13 1.413 . S
C18 C17 1.403 . S
C18 H39 0.930 . S
C19 O30 1.275 1_455 S
C19 O31 1.256 . S
O20 Ho0 2.322 . S
O20 C2 1.259 . S
O21 Ho1 2.346 1_455 S
O21 C2 1.268 . S
O22 Ho0 2.378 . S
O22 C3 1.215 . S
O23 Ho0 2.524 . S
O23 C3 1.289 . S
O24 Ho0 2.381 . S
O24 C10 1.275 . S
O25 Ho0 2.669 1_655 S
O25 Ho1 2.305 . S
O25 C10 1.256 1_655 S
O26 Ho1 2.322 . S
O26 C11 1.259 . S
O27 Ho0 2.346 1_655 S
O27 C11 1.268 . S
O28 Ho1 2.378 . S
O28 C12 1.215 . S
O29 Ho1 2.524 . S
O29 C12 1.289 . S
O30 Ho1 2.381 . S
O30 C19 1.275 1_655 S
O31 Ho0 2.305 . S
O31 Ho1 2.669 1_455 S
O31 C19 1.256 . S
H32 C5 0.930 . S
H33 C6 0.931 . S
H34 C8 0.934 . S
H35 C9 0.930 . S
H36 C14 0.930 . S
H37 C15 0.931 . S
H38 C17 0.934 . S
H39 C18 0.930 . S
Ho40 C43 2.810 1_545 S
Ho40 O60 2.322 1_545 S
Ho40 O62 2.377 1_545 S
Ho40 O63 2.523 1_545 S
Ho40 O64 2.381 . S
Ho40 O65 2.670 . S
Ho40 O67 2.347 . S
Ho40 O71 2.305 . S
Ho41 C52 2.811 . S
Ho41 O61 2.346 1_545 S
Ho41 O65 2.305 . S
Ho41 O66 2.322 . S
Ho41 O68 2.378 . S
Ho41 O69 2.524 . S
Ho41 O70 2.381 . S
Ho41 O71 2.669 . S
C42 O60 1.259 . S
C42 O61 1.268 . S
C43 Ho40 2.810 1_565 S
C43 C44 1.488 . S
C43 O62 1.215 . S
C43 O63 1.289 . S
C44 C43 1.488 . S
C44 C45 1.348 . S
C44 C49 1.413 . S
C45 C44 1.348 . S
C45 C46 1.442 . S
C45 H72 0.930 . S
C46 C45 1.442 . S
C46 C47 1.381 . S
C46 H73 0.931 . S
C47 C46 1.381 . S
C47 C48 1.321 . S
C48 C47 1.321 . S
C48 C49 1.403 . S
C48 H74 0.934 . S
C49 C44 1.413 . S
C49 C48 1.403 . S
C49 H75 0.930 . S
C50 O64 1.275 . S
C50 O65 1.256 . S
C51 O66 1.259 . S
C51 O67 1.268 . S
C52 Ho41 2.811 . S
C52 C53 1.488 . S
C52 O68 1.215 . S
C52 O69 1.289 . S
C53 C52 1.488 . S
C53 C54 1.348 . S
C53 C58 1.413 . S
C54 C53 1.348 . S
C54 C55 1.442 . S
C54 H76 0.930 . S
C55 C54 1.442 . S
C55 C56 1.381 . S
C55 H77 0.931 . S
C56 C55 1.381 . S
C56 C57 1.321 . S
C57 C56 1.321 . S
C57 C58 1.403 . S
C57 H78 0.934 . S
C58 C53 1.413 . S
C58 C57 1.403 . S
C58 H79 0.930 . S
C59 O70 1.275 . S
C59 O71 1.256 . S
O60 Ho40 2.322 1_565 S
O60 C42 1.259 . S
O61 Ho41 2.346 1_565 S
O61 C42 1.268 . S
O62 Ho40 2.377 1_565 S
O62 C43 1.215 . S
O63 Ho40 2.523 1_565 S
O63 C43 1.289 . S
O64 Ho40 2.381 . S
O64 C50 1.275 . S
O65 Ho40 2.670 . S
O65 Ho41 2.305 . S
O65 C50 1.256 . S
O66 Ho41 2.322 . S
O66 C51 1.259 . S
O67 Ho40 2.347 . S
O67 C51 1.268 . S
O68 Ho41 2.378 . S
O68 C52 1.215 . S
O69 Ho41 2.524 . S
O69 C52 1.289 . S
O70 Ho41 2.381 . S
O70 C59 1.275 . S
O71 Ho40 2.305 . S
O71 Ho41 2.669 . S
O71 C59 1.256 . S
H72 C45 0.930 . S
H73 C46 0.931 . S
H74 C48 0.934 . S
H75 C49 0.930 . S
H76 C54 0.930 . S
H77 C55 0.931 . S
H78 C57 0.934 . S
H79 C58 0.930 . S
Ho80 C83 2.811 . S
Ho80 O100 2.322 . S
Ho80 O102 2.378 . S
Ho80 O103 2.524 . S
Ho80 O104 2.381 . S
Ho80 O105 2.669 . S
Ho80 O107 2.346 . S
Ho80 O111 2.305 . S
Ho81 C92 2.811 . S
Ho81 O101 2.346 . S
Ho81 O105 2.305 . S
Ho81 O106 2.322 . S
Ho81 O108 2.378 . S
Ho81 O109 2.524 . S
Ho81 O110 2.381 . S
Ho81 O111 2.669 . S
C82 O100 1.259 . S
C82 O101 1.268 . S
C83 Ho80 2.811 . S
C83 C84 1.488 . S
C83 O102 1.215 . S
C83 O103 1.289 . S
C84 C83 1.488 . S
C84 C85 1.348 . S
C84 C89 1.413 . S
C85 C84 1.348 . S
C85 C86 1.442 . S
C85 H112 0.930 . S
C86 C85 1.442 . S
C86 C87 1.381 . S
C86 H113 0.931 . S
C87 C86 1.381 . S
C87 C88 1.321 . S
C88 C87 1.321 . S
C88 C89 1.403 . S
C88 H114 0.934 . S
C89 C84 1.413 . S
C89 C88 1.403 . S
C89 H115 0.930 . S
C90 O104 1.275 . S
C90 O105 1.256 . S
C91 O106 1.259 . S
C91 O107 1.268 . S
C92 Ho81 2.811 . S
C92 C93 1.488 . S
C92 O108 1.215 . S
C92 O109 1.289 . S
C93 C92 1.488 . S
C93 C94 1.348 . S
C93 C98 1.413 . S
C94 C93 1.348 . S
C94 C95 1.442 . S
C94 H116 0.930 . S
C95 C94 1.442 . S
C95 C96 1.381 . S
C95 H117 0.931 . S
C96 C95 1.381 . S
C96 C97 1.321 . S
C97 C96 1.321 . S
C97 C98 1.403 . S
C97 H118 0.934 . S
C98 C93 1.413 . S
C98 C97 1.403 . S
C98 H119 0.930 . S
C99 O110 1.275 . S
C99 O111 1.256 . S
O100 Ho80 2.322 . S
O100 C82 1.259 . S
O101 Ho81 2.346 . S
O101 C82 1.268 . S
O102 Ho80 2.378 . S
O102 C83 1.215 . S
O103 Ho80 2.524 . S
O103 C83 1.289 . S
O104 Ho80 2.381 . S
O104 C90 1.275 . S
O105 Ho80 2.669 . S
O105 Ho81 2.305 . S
O105 C90 1.256 . S
O106 Ho81 2.322 . S
O106 C91 1.259 . S
O107 Ho80 2.346 . S
O107 C91 1.268 . S
O108 Ho81 2.378 . S
O108 C92 1.215 . S
O109 Ho81 2.524 . S
O109 C92 1.289 . S
O110 Ho81 2.381 . S
O110 C99 1.275 . S
O111 Ho80 2.305 . S
O111 Ho81 2.669 . S
O111 C99 1.256 . S
H112 C85 0.930 . S
H113 C86 0.931 . S
H114 C88 0.934 . S
H115 C89 0.930 . S
H116 C94 0.930 . S
H117 C95 0.931 . S
H118 C97 0.934 . S
H119 C98 0.930 . S
H120 C127 0.929 . S
H121 C130 0.930 . S
H122 C132 0.929 . S
H123 C124 0.969 . S
C124 H123 0.969 . S
C124 O125 1.550 . S
C124 H126 0.973 . S
O125 C124 1.550 . S
O125 C131 1.412 . S
H126 C124 0.973 . S
C127 H120 0.929 . S
C127 C128 1.400 . S
C127 C129 1.364 . S
C128 C127 1.400 . S
C128 C132 1.377 . S
C129 C127 1.364 . S
C129 C130 1.374 1_545 S
C130 H121 0.930 . S
C130 C129 1.374 1_565 S
C130 C131 1.383 . S
C131 O125 1.412 . S
C131 C130 1.383 . S
C131 C132 1.394 1_565 S
C132 H122 0.929 . S
C132 C128 1.377 . S
C132 C131 1.394 1_545 S
H133 C140 0.929 . S
H134 C143 0.930 . S
H135 C145 0.929 . S
H136 C137 0.969 . S
C137 H136 0.969 . S
C137 O138 1.550 . S
C137 H139 0.973 . S
O138 C137 1.550 . S
O138 C144 1.412 . S
H139 C137 0.973 . S
C140 H133 0.929 . S
C140 C141 1.400 . S
C140 C142 1.364 . S
C141 C140 1.400 . S
C141 C145 1.377 . S
C142 C140 1.364 . S
C142 C143 1.374 . S
C143 H134 0.930 . S
C143 C142 1.374 . S
C143 C144 1.383 . S
C144 O138 1.412 . S
C144 C143 1.383 . S
C144 C145 1.394 . S
C145 H135 0.929 . S
C145 C141 1.377 . S
C145 C144 1.394 . S
H146 C153 0.929 . S
H147 C156 0.930 . S
H148 C158 0.929 . S
H149 C150 0.969 . S
C150 H149 0.969 . S
C150 O151 1.550 . S
C150 H152 0.973 . S
O151 C150 1.550 . S
O151 C157 1.412 . S
H152 C150 0.973 . S
C153 H146 0.929 . S
C153 C154 1.400 . S
C153 C155 1.364 . S
C154 C153 1.400 . S
C154 C158 1.377 . S
C155 C153 1.364 . S
C155 C156 1.374 . S
C156 H147 0.930 . S
C156 C155 1.374 . S
C156 C157 1.383 . S
C157 O151 1.412 . S
C157 C156 1.383 . S
C157 C158 1.394 . S
C158 H148 0.929 . S
C158 C154 1.377 . S
C158 C157 1.394 . S
H159 C166 0.929 . S
H160 C169 0.930 . S
H161 C171 0.929 . S
H162 C163 0.969 . S
C163 H162 0.969 . S
C163 O164 1.550 . S
C163 H165 0.973 . S
O164 C163 1.550 . S
O164 C170 1.412 . S
H165 C163 0.973 . S
C166 H159 0.929 . S
C166 C167 1.400 . S
C166 C168 1.364 1_655 S
C167 C166 1.400 . S
C167 C171 1.377 1_655 S
C168 C166 1.364 1_455 S
C168 C169 1.374 . S
C169 H160 0.930 . S
C169 C168 1.374 . S
C169 C170 1.383 . S
C170 O164 1.412 . S
C170 C169 1.383 . S
C170 C171 1.394 . S
C171 H161 0.929 . S
C171 C167 1.377 1_455 S
C171 C170 1.394 . S
H172 C179 0.929 . S
H173 C182 0.930 . S
H174 C184 0.929 . S
H175 C176 0.969 . S
C176 H175 0.969 . S
C176 O177 1.550 . S
C176 H178 0.973 . S
O177 C176 1.550 . S
O177 C183 1.412 . S
H178 C176 0.973 . S
C179 H172 0.929 . S
C179 C180 1.400 . S
C179 C181 1.364 1_565 S
C180 C179 1.400 . S
C180 C184 1.377 1_565 S
C181 C179 1.364 1_545 S
C181 C182 1.374 . S
C182 H173 0.930 . S
C182 C181 1.374 . S
C182 C183 1.383 . S
C183 O177 1.412 . S
C183 C182 1.383 . S
C183 C184 1.394 . S
C184 H174 0.929 . S
C184 C180 1.377 1_545 S
C184 C183 1.394 . S
H185 C192 0.929 . S
H186 C195 0.930 . S
H187 C197 0.929 . S
H188 C189 0.969 . S
C189 H188 0.969 . S
C189 O190 1.550 . S
C189 H191 0.973 . S
O190 C189 1.550 . S
O190 C196 1.412 . S
H191 C189 0.973 . S
C192 H185 0.929 . S
C192 C193 1.400 . S
C192 C194 1.364 . S
C193 C192 1.400 . S
C193 C197 1.377 . S
C194 C192 1.364 . S
C194 C195 1.374 . S
C195 H186 0.930 . S
C195 C194 1.374 . S
C195 C196 1.383 . S
C196 O190 1.412 . S
C196 C195 1.383 . S
C196 C197 1.394 . S
C197 H187 0.929 . S
C197 C193 1.377 . S
C197 C196 1.394 . S
H198 C204 0.930 . S
H199 C207 0.930 . S
H200 C208 0.930 . S
H201 C209 0.930 . S
H202 C212 0.930 . S
H203 C213 0.930 . S
C204 H198 0.930 . S
C204 C205 1.355 . S
C204 C206 1.415 . S
C205 C204 1.355 . S
C205 C207 1.419 . S
C206 C204 1.415 . S
C206 C211 1.425 . S
C206 C213 1.409 . S
C207 H199 0.930 . S
C207 C205 1.419 . S
C207 C208 1.362 . S
C208 H200 0.930 . S
C208 C207 1.362 . S
C208 C211 1.409 . S
C209 H201 0.930 . S
C209 C210 1.355 . S
C209 C211 1.415 . S
C210 C209 1.355 . S
C210 C212 1.419 . S
C211 C206 1.425 . S
C211 C208 1.409 . S
C211 C209 1.415 . S
C212 H202 0.930 . S
C212 C210 1.419 . S
C212 C213 1.362 . S
C213 H203 0.930 . S
C213 C206 1.409 . S
C213 C212 1.362 . S
H214 C220 0.930 . S
H215 C223 0.930 . S
H216 C224 0.930 . S
H217 C225 0.930 . S
H218 C228 0.930 . S
H219 C229 0.930 . S
C220 H214 0.930 . S
C220 C221 1.355 . S
C220 C222 1.415 . S
C221 C220 1.355 . S
C221 C223 1.419 . S
C222 C220 1.415 . S
C222 C227 1.425 . S
C222 C229 1.409 . S
C223 H215 0.930 . S
C223 C221 1.419 . S
C223 C224 1.362 . S
C224 H216 0.930 . S
C224 C223 1.362 . S
C224 C227 1.409 . S
C225 H217 0.930 . S
C225 C226 1.355 . S
C225 C227 1.415 . S
C226 C225 1.355 . S
C226 C228 1.419 . S
C227 C222 1.425 . S
C227 C224 1.409 . S
C227 C225 1.415 . S
C228 H218 0.930 . S
C228 C226 1.419 . S
C228 C229 1.362 . S
C229 H219 0.930 . S
C229 C222 1.409 . S
C229 C228 1.362 . S
H230 C236 0.930 . S
H231 C239 0.930 . S
H232 C240 0.930 . S
H233 C241 0.930 . S
H234 C244 0.932 . S
H235 C245 0.930 . S
C236 H230 0.930 . S
C236 C237 1.355 . S
C236 C238 1.415 . S
C237 C236 1.355 . S
C237 C239 1.419 . S
C238 C236 1.415 . S
C238 C243 1.425 . S
C238 C245 1.409 . S
C239 H231 0.930 . S
C239 C237 1.419 . S
C239 C240 1.362 . S
C240 H232 0.930 . S
C240 C239 1.362 . S
C240 C243 1.409 . S
C241 H233 0.930 . S
C241 C242 1.355 . S
C241 C243 1.415 . S
C242 C241 1.355 . S
C242 C244 1.419 . S
C243 C238 1.425 . S
C243 C240 1.409 . S
C243 C241 1.415 . S
C244 H234 0.932 . S
C244 C242 1.419 . S
C244 C245 1.362 . S
C245 H235 0.930 . S
C245 C238 1.409 . S
C245 C244 1.362 . S
H246 C252 0.930 . S
H247 C255 0.930 . S
H248 C256 0.930 . S
H249 C257 0.930 . S
H250 C260 0.930 . S
H251 C261 0.930 . S
C252 H246 0.930 . S
C252 C253 1.355 . S
C252 C254 1.415 . S
C253 C252 1.355 . S
C253 C255 1.419 . S
C254 C252 1.415 . S
C254 C259 1.425 . S
C254 C261 1.409 . S
C255 H247 0.930 . S
C255 C253 1.419 . S
C255 C256 1.362 . S
C256 H248 0.930 . S
C256 C255 1.362 . S
C256 C259 1.409 . S
C257 H249 0.930 . S
C257 C258 1.355 . S
C257 C259 1.415 . S
C258 C257 1.355 . S
C258 C260 1.419 . S
C259 C254 1.425 . S
C259 C256 1.409 . S
C259 C257 1.415 . S
C260 H250 0.930 . S
C260 C258 1.419 . S
C260 C261 1.362 . S
C261 H251 0.930 . S
C261 C254 1.409 . S
C261 C260 1.362 . S
H262 C268 0.930 . S
H263 C271 0.930 . S
H264 C272 0.930 . S
H265 C273 0.930 . S
H266 C276 0.930 . S
H267 C277 0.930 . S
C268 H262 0.930 . S
C268 C269 1.355 . S
C268 C270 1.415 . S
C269 C268 1.355 . S
C269 C271 1.419 . S
C270 C268 1.415 . S
C270 C275 1.425 . S
C270 C277 1.409 . S
C271 H263 0.930 . S
C271 C269 1.419 . S
C271 C272 1.362 . S
C272 H264 0.930 . S
C272 C271 1.362 . S
C272 C275 1.409 . S
C273 H265 0.930 . S
C273 C274 1.355 . S
C273 C275 1.415 . S
C274 C273 1.355 . S
C274 C276 1.419 . S
C275 C270 1.425 . S
C275 C272 1.409 . S
C275 C273 1.415 . S
C276 H266 0.930 . S
C276 C274 1.419 . S
C276 C277 1.362 . S
C277 H267 0.930 . S
C277 C270 1.409 . S
C277 C276 1.362 . S
H278 C284 0.930 . S
H279 C287 0.930 . S
H280 C288 0.930 . S
H281 C289 0.930 . S
H282 C292 0.930 . S
H283 C293 0.930 . S
C284 H278 0.930 . S
C284 C285 1.355 . S
C284 C286 1.415 . S
C285 C284 1.355 . S
C285 C287 1.419 . S
C286 C284 1.415 . S
C286 C291 1.425 . S
C286 C293 1.409 . S
C287 H279 0.930 . S
C287 C285 1.419 . S
C287 C288 1.362 . S
C288 H280 0.930 . S
C288 C287 1.362 . S
C288 C291 1.409 . S
C289 H281 0.930 . S
C289 C290 1.355 . S
C289 C291 1.415 . S
C290 C289 1.355 . S
C290 C292 1.419 . S
C291 C286 1.425 . S
C291 C288 1.409 . S
C291 C289 1.415 . S
C292 H282 0.930 . S
C292 C290 1.419 . S
C292 C293 1.362 . S
C293 H283 0.930 . S
C293 C286 1.409 . S
C293 C292 1.362 . S
H294 C300 0.930 . S
H295 C303 0.930 . S
H296 C304 0.930 . S
H297 C305 0.930 . S
H298 C308 0.930 . S
H299 C309 0.930 . S
C300 H294 0.930 . S
C300 C301 1.355 . S
C300 C302 1.415 . S
C301 C300 1.355 . S
C301 C303 1.419 . S
C302 C300 1.415 . S
C302 C307 1.425 . S
C302 C309 1.409 . S
C303 H295 0.930 . S
C303 C301 1.419 . S
C303 C304 1.362 . S
C304 H296 0.930 . S
C304 C303 1.362 . S
C304 C307 1.409 . S
C305 H297 0.930 . S
C305 C306 1.355 . S
C305 C307 1.415 . S
C306 C305 1.355 . S
C306 C308 1.419 . S
C307 C302 1.425 . S
C307 C304 1.409 . S
C307 C305 1.415 . S
C308 H298 0.930 . S
C308 C306 1.419 . S
C308 C309 1.362 . S
C309 H299 0.930 . S
C309 C302 1.409 . S
C309 C308 1.362 . S
H310 C316 0.930 . S
H311 C319 0.930 . S
H312 C320 0.930 . S
H313 C321 0.930 . S
H314 C324 0.930 . S
H315 C325 0.930 . S
C316 H310 0.930 . S
C316 C317 1.355 . S
C316 C318 1.415 . S
C317 C316 1.355 . S
C317 C319 1.419 . S
C318 C316 1.415 . S
C318 C323 1.425 . S
C318 C325 1.409 . S
C319 H311 0.930 . S
C319 C317 1.419 . S
C319 C320 1.362 . S
C320 H312 0.930 . S
C320 C319 1.362 . S
C320 C323 1.409 . S
C321 H313 0.930 . S
C321 C322 1.355 . S
C321 C323 1.415 . S
C322 C321 1.355 . S
C322 C324 1.419 . S
C323 C318 1.425 . S
C323 C320 1.409 . S
C323 C321 1.415 . S
C324 H314 0.930 . S
C324 C322 1.419 . S
C324 C325 1.362 . S
C325 H315 0.930 . S
C325 C318 1.409 . S
C325 C324 1.362 . S
H326 C332 0.930 . S
H327 C335 0.930 . S
H328 C336 0.930 . S
H329 C337 0.930 . S
H330 C340 0.930 . S
H331 C341 0.930 . S
C332 H326 0.930 . S
C332 C333 1.355 . S
C332 C334 1.415 . S
C333 C332 1.355 . S
C333 C335 1.419 . S
C334 C332 1.415 . S
C334 C339 1.425 . S
C334 C341 1.409 . S
C335 H327 0.930 . S
C335 C333 1.419 . S
C335 C336 1.362 . S
C336 H328 0.930 . S
C336 C335 1.362 . S
C336 C339 1.409 . S
C337 H329 0.930 . S
C337 C338 1.355 . S
C337 C339 1.415 . S
C338 C337 1.355 . S
C338 C340 1.419 . S
C339 C334 1.425 . S
C339 C336 1.409 . S
C339 C337 1.415 . S
C340 H330 0.930 . S
C340 C338 1.419 . S
C340 C341 1.362 . S
C341 H331 0.930 . S
C341 C334 1.409 . S
C341 C340 1.362 . S
H342 C348 0.930 . S
H343 C351 0.930 . S
H344 C352 0.930 . S
H345 C353 0.930 . S
H346 C356 0.930 . S
H347 C357 0.930 . S
C348 H342 0.930 . S
C348 C349 1.355 . S
C348 C350 1.415 . S
C349 C348 1.355 . S
C349 C351 1.419 . S
C350 C348 1.415 . S
C350 C355 1.425 . S
C350 C357 1.409 . S
C351 H343 0.930 . S
C351 C349 1.419 . S
C351 C352 1.362 . S
C352 H344 0.930 . S
C352 C351 1.362 . S
C352 C355 1.409 . S
C353 H345 0.930 . S
C353 C354 1.355 . S
C353 C355 1.415 . S
C354 C353 1.355 . S
C354 C356 1.419 . S
C355 C350 1.425 . S
C355 C352 1.409 . S
C355 C353 1.415 . S
C356 H346 0.930 . S
C356 C354 1.419 . S
C356 C357 1.362 . S
C357 H347 0.930 . S
C357 C350 1.409 . S
C357 C356 1.362 . S
H358 C364 0.930 . S
H359 C367 0.930 . S
H360 C368 0.930 . S
H361 C369 0.930 . S
H362 C372 0.930 . S
H363 C373 0.930 . S
C364 H358 0.930 . S
C364 C365 1.355 . S
C364 C366 1.415 . S
C365 C364 1.355 . S
C365 C367 1.419 . S
C366 C364 1.415 . S
C366 C371 1.425 . S
C366 C373 1.409 . S
C367 H359 0.930 . S
C367 C365 1.419 . S
C367 C368 1.362 . S
C368 H360 0.930 . S
C368 C367 1.362 . S
C368 C371 1.409 . S
C369 H361 0.930 . S
C369 C370 1.355 . S
C369 C371 1.415 . S
C370 C369 1.355 . S
C370 C372 1.419 . S
C371 C366 1.425 . S
C371 C368 1.409 . S
C371 C369 1.415 . S
C372 H362 0.930 . S
C372 C370 1.419 . S
C372 C373 1.362 . S
C373 H363 0.930 . S
C373 C366 1.409 . S
C373 C372 1.362 . S
H374 C380 0.930 . S
H375 C383 0.930 . S
H376 C384 0.930 . S
H377 C385 0.930 . S
H378 C388 0.930 . S
H379 C389 0.930 . S
C380 H374 0.930 . S
C380 C381 1.355 . S
C380 C382 1.415 . S
C381 C380 1.355 . S
C381 C383 1.419 . S
C382 C380 1.415 . S
C382 C387 1.425 . S
C382 C389 1.409 . S
C383 H375 0.930 . S
C383 C381 1.419 . S
C383 C384 1.362 . S
C384 H376 0.930 . S
C384 C383 1.362 . S
C384 C387 1.409 . S
C385 H377 0.930 . S
C385 C386 1.355 . S
C385 C387 1.415 . S
C386 C385 1.355 . S
C386 C388 1.419 . S
C387 C382 1.425 . S
C387 C384 1.409 . S
C387 C385 1.415 . S
C388 H378 0.930 . S
C388 C386 1.419 . S
C388 C389 1.362 . S
C389 H379 0.930 . S
C389 C382 1.409 . S
C389 C388 1.362 . S
H390 C396 0.930 1_655 S
H391 C399 0.930 . S
H392 C400 0.930 . S
H393 C401 0.930 . S
H394 C404 0.930 . S
H395 C405 0.930 1_655 S
C396 H390 0.930 1_455 S
C396 C397 1.355 . S
C396 C398 1.415 . S
C397 C396 1.355 . S
C397 C399 1.419 . S
C398 C396 1.415 . S
C398 C403 1.425 . S
C398 C405 1.409 1_554 S
C399 H391 0.930 . S
C399 C397 1.419 . S
C399 C400 1.362 . S
C400 H392 0.930 . S
C400 C399 1.362 . S
C400 C403 1.409 . S
C401 H393 0.930 . S
C401 C402 1.355 . S
C401 C403 1.415 1_556 S
C402 C401 1.355 . S
C402 C404 1.419 . S
C403 C398 1.425 . S
C403 C400 1.409 . S
C403 C401 1.415 1_554 S
C404 H394 0.930 . S
C404 C402 1.419 . S
C404 C405 1.362 . S
C405 H395 0.930 1_455 S
C405 C398 1.409 1_556 S
C405 C404 1.362 . S
H406 C412 0.930 1_565 S
H407 C415 0.930 . S
H408 C416 0.930 . S
H409 C417 0.930 . S
H410 C420 0.930 . S
H411 C421 0.930 . S
C412 H406 0.930 1_545 S
C412 C413 1.355 . S
C412 C414 1.415 . S
C413 C412 1.355 . S
C413 C415 1.419 . S
C414 C412 1.415 . S
C414 C419 1.425 . S
C414 C421 1.409 1_545 S
C415 H407 0.930 . S
C415 C413 1.419 . S
C415 C416 1.362 . S
C416 H408 0.930 . S
C416 C415 1.362 . S
C416 C419 1.409 . S
C417 H409 0.930 . S
C417 C418 1.355 . S
C417 C419 1.415 . S
C418 C417 1.355 . S
C418 C420 1.419 1_545 S
C419 C414 1.425 . S
C419 C416 1.409 . S
C419 C417 1.415 . S
C420 H410 0.930 . S
C420 C418 1.419 1_565 S
C420 C421 1.362 . S
C421 H411 0.930 . S
C421 C414 1.409 1_565 S
C421 C420 1.362 . S
H422 C428 0.930 . S
H423 C431 0.930 . S
H424 C432 0.930 . S
H425 C433 0.930 . S
H426 C436 0.930 . S
H427 C437 0.930 . S
C428 H422 0.930 . S
C428 C429 1.355 . S
C428 C430 1.415 . S
C429 C428 1.355 . S
C429 C431 1.419 . S
C430 C428 1.415 . S
C430 C435 1.425 . S
C430 C437 1.409 . S
C431 H423 0.930 . S
C431 C429 1.419 . S
C431 C432 1.362 . S
C432 H424 0.930 . S
C432 C431 1.362 . S
C432 C435 1.409 . S
C433 H425 0.930 . S
C433 C434 1.355 . S
C433 C435 1.415 . S
C434 C433 1.355 . S
C434 C436 1.419 . S
C435 C430 1.425 . S
C435 C432 1.409 . S
C435 C433 1.415 . S
C436 H426 0.930 . S
C436 C434 1.419 . S
C436 C437 1.362 . S
C437 H427 0.930 . S
C437 C430 1.409 . S
C437 C436 1.362 . S
H438 C444 0.930 . S
H439 C447 0.930 . S
H440 C448 0.930 . S
H441 C449 0.930 . S
H442 C452 0.930 . S
H443 C453 0.930 . S
C444 H438 0.930 . S
C444 C445 1.355 . S
C444 C446 1.415 . S
C445 C444 1.355 . S
C445 C447 1.419 1_545 S
C446 C444 1.415 . S
C446 C451 1.425 . S
C446 C453 1.409 . S
C447 H439 0.930 . S
C447 C445 1.419 1_565 S
C447 C448 1.362 . S
C448 H440 0.930 . S
C448 C447 1.362 . S
C448 C451 1.409 1_565 S
C449 H441 0.930 . S
C449 C450 1.355 1_565 S
C449 C451 1.415 1_565 S
C450 C449 1.355 1_545 S
C450 C452 1.419 . S
C451 C446 1.425 . S
C451 C448 1.409 1_545 S
C451 C449 1.415 1_545 S
C452 H442 0.930 . S
C452 C450 1.419 . S
C452 C453 1.362 . S
C453 H443 0.930 . S
C453 C446 1.409 . S
C453 C452 1.362 . S
H454 C460 0.930 . S
H455 C463 0.930 . S
H456 C464 0.930 . S
H457 C465 0.930 . S
H458 C468 0.930 . S
H459 C469 0.930 . S
C460 H454 0.930 . S
C460 C461 1.355 . S
C460 C462 1.415 . S
C461 C460 1.355 . S
C461 C463 1.419 . S
C462 C460 1.415 . S
C462 C467 1.425 . S
C462 C469 1.409 . S
C463 H455 0.930 . S
C463 C461 1.419 . S
C463 C464 1.362 . S
C464 H456 0.930 . S
C464 C463 1.362 . S
C464 C467 1.409 . S
C465 H457 0.930 . S
C465 C466 1.355 . S
C465 C467 1.415 1_554 S
C466 C465 1.355 . S
C466 C468 1.419 . S
C467 C462 1.425 . S
C467 C464 1.409 . S
C467 C465 1.415 1_556 S
C468 H458 0.930 . S
C468 C466 1.419 . S
C468 C469 1.362 1_554 S
C469 H459 0.930 . S
C469 C462 1.409 . S
C469 C468 1.362 1_556 S
H470 C476 0.930 . S
H471 C479 0.930 . S
H472 C480 0.930 . S
H473 C481 0.930 . S
H474 C484 0.930 . S
H475 C485 0.930 . S
C476 H470 0.930 . S
C476 C477 1.355 . S
C476 C478 1.415 . S
C477 C476 1.355 . S
C477 C479 1.419 1_655 S
C478 C476 1.415 . S
C478 C483 1.425 1_655 S
C478 C485 1.409 . S
C479 H471 0.930 . S
C479 C477 1.419 1_455 S
C479 C480 1.362 . S
C480 H472 0.930 . S
C480 C479 1.362 . S
C480 C483 1.409 . S
C481 H473 0.930 . S
C481 C482 1.355 . S
C481 C483 1.415 . S
C482 C481 1.355 . S
C482 C484 1.419 1_455 S
C483 C478 1.425 1_455 S
C483 C480 1.409 . S
C483 C481 1.415 . S
C484 H474 0.930 . S
C484 C482 1.419 1_655 S
C484 C485 1.362 . S
C485 H475 0.930 . S
C485 C478 1.409 . S
C485 C484 1.362 . S
C205 C7 0.665 . S
C210 C189 0.737 . S
C221 C51 1.843 . S
C226 C167 1.802 . S
C237 C87 1.207 . S
C242 C180 1.239 . S
C253 C16 0.623 . S
C258 C193 0.452 . S
C274 C163 1.843 . S
C269 C42 2.024 . S
C290 C176 1.337 . S
C285 C96 1.325 . S
C301 C47 1.098 . S
C306 C141 1.127 . S
C317 C91 3.055 . S
C322 C154 3.019 1_655 S
C333 C2 2.012 . S
C338 C124 1.915 . S
C354 C137 1.350 . S
C349 C56 1.377 . S
C370 C150 2.877 . S
C365 C82 3.073 . S
C381 C11 1.864 . S
C386 C128 1.833 . S
C402 C155 1.752 . S
C397 C19 1.697 . S
C413 C50 1.476 . S
C418 C129 1.483 . S
C429 C99 1.516 . S
C434 C142 1.602 . S
C450 C181 1.547 . S
C445 C59 1.506 . S
C466 C194 1.319 . S
C461 C90 1.300 . S
C477 C10 1.439 1_655 S
C482 C168 1.458 . S
