# Generated by pormake.
# Topology ftw, (4,12)-cn, num edge types: 1
# Building blocks:
#     Node 0, Type 0, BuildingBlock: KUFVIS_clean_linker_0, # of connection points: 4
#     Node 1, Type 0, BuildingBlock: KUFVIS_clean_linker_0, # of connection points: 4
#     Node 2, Type 0, BuildingBlock: KUFVIS_clean_linker_0, # of connection points: 4
#     Node 3, Type 1, BuildingBlock: EZIPEK_clean_sbu_0, # of connection points: 12
#     Edge 4, Type (0, 1), BuildingBlock: UVAHIK_clean_linker_0, # of connection points: 2
#     Edge 5, Type (0, 1), BuildingBlock: UVAHIK_clean_linker_0, # of connection points: 2
#     Edge 6, Type (0, 1), BuildingBlock: UVAHIK_clean_linker_0, # of connection points: 2
#     Edge 7, Type (0, 1), BuildingBlock: UVAHIK_clean_linker_0, # of connection points: 2
#     Edge 8, Type (0, 1), BuildingBlock: UVAHIK_clean_linker_0, # of connection points: 2
#     Edge 9, Type (0, 1), BuildingBlock: UVAHIK_clean_linker_0, # of connection points: 2
#     Edge 10, Type (0, 1), BuildingBlock: UVAHIK_clean_linker_0, # of connection points: 2
#     Edge 11, Type (0, 1), BuildingBlock: UVAHIK_clean_linker_0, # of connection points: 2
#     Edge 12, Type (0, 1), BuildingBlock: UVAHIK_clean_linker_0, # of connection points: 2
#     Edge 13, Type (0, 1), BuildingBlock: UVAHIK_clean_linker_0, # of connection points: 2
#     Edge 14, Type (0, 1), BuildingBlock: UVAHIK_clean_linker_0, # of connection points: 2
#     Edge 15, Type (0, 1), BuildingBlock: UVAHIK_clean_linker_0, # of connection points: 2
# Relax obj value: 0.081
# Max RMSD: 0.235
# Mean RMSD: 0.179
data_MOF--net-ftw--node1-EZIPEK_clean_sbu_0--node2-KUFVIS_clean_linker_0--edge1-UVAHIK_clean_linker_0
_symmetry_space_group_name_H-M    P1
_symmetry_Int_Tables_number       1
_symmetry_cell_setting            triclinic
loop_
_symmetry_equiv_pos_as_xyz
'x, y, z'
_cell_length_a     29.843678
_cell_length_b     31.538963
_cell_length_c     30.135836
_cell_angle_alpha  89.927035
_cell_angle_beta   90.346353
_cell_angle_gamma 89.9802
loop_
_atom_site_label
_atom_site_type_symbol
_atom_site_fract_x
_atom_site_fract_y
_atom_site_fract_z
_atom_type_partial_charge
H0 H -0.01725 0.39149 0.51907 0.0
H1 H 0.00179 0.50876 0.58779 0.0
H2 H 0.96408 0.5082 0.44886 0.0
H3 H -0.00097 0.56958 0.44794 0.0
H4 H -0.01654 0.68687 0.51734 0.0
H5 H 0.96706 0.57029 0.58815 0.0
C6 C -0.0172 0.42583 0.51884 0.0
C7 C 0.97389 0.44742 0.47911 0.0
C8 C -0.00823 0.44777 0.5583 0.0
C9 C -0.00738 0.49232 0.55761 0.0
C10 C -0.0171 0.51522 0.51831 0.0
C11 C 0.97316 0.492 0.47925 0.0
C12 C -0.01699 0.56297 0.51807 0.0
C13 C -0.00868 0.58587 0.47852 0.0
C14 C -0.00889 0.63037 0.47817 0.0
C15 C -0.01666 0.65247 0.51755 0.0
C16 C 0.97541 0.63079 0.55722 0.0
C17 C 0.97487 0.58627 0.55737 0.0
H18 H 0.44741 1.01967 0.66037 0.0
H19 H 0.53448 0.95879 0.56743 0.0
H20 H 0.40263 1.00091 0.5269 0.0
H21 H 0.41055 0.9505 0.47679 0.0
H22 H 0.50625 0.93225 0.37272 0.0
H23 H 0.55055 0.97712 0.49917 0.0
C24 C 0.45422 1.00844 0.6271 0.0
C25 C 0.42071 1.01161 0.59466 0.0
C26 C 0.49579 0.99024 0.61732 0.0
C27 C 0.50275 0.97368 0.57468 0.0
C28 C 0.46974 0.97734 0.54114 0.0
C29 C 0.4285 0.99649 0.55179 0.0
C30 C 0.47949 0.96326 0.49483 0.0
C31 C 0.44486 0.95083 0.46555 0.0
C32 C 0.45396 0.94109 0.42094 0.0
C33 C 0.49865 0.94025 0.40681 0.0
C34 C 0.53336 0.95325 0.43504 0.0
C35 C 0.52357 0.9651 0.47861 0.0
H36 H 0.48215 0.68659 0.01765 0.0
H37 H 0.55187 0.56923 0.99903 0.0
H38 H 0.41273 0.56938 0.03822 0.0
H39 H 0.41392 0.50956 0.9952 0.0
H40 H 0.48242 0.39243 0.0202 0.0
H41 H 0.5508 0.50992 0.04304 0.0
C42 C 0.48219 0.65223 0.01793 0.0
C43 C 0.44273 0.63048 0.02834 0.0
C44 C 0.52171 0.63041 1.00788 0.0
C45 C 0.52156 0.58592 1.00807 0.0
C46 C 0.48231 0.56319 0.01868 0.0
C47 C 0.443 0.586 0.0289 0.0
C48 C 0.48235 0.51586 0.01907 0.0
C49 C 0.4437 0.49299 1.00641 0.0
C50 C 0.44351 0.44851 1.00698 0.0
C51 C 0.4824 0.4268 0.01988 0.0
C52 C 0.52127 0.4487 0.03239 0.0
C53 C 0.52103 0.49318 0.03214 0.0
C54 C 0.97549 0.14418 0.91203 0.0
C55 C -0.01149 0.14239 0.12647 0.0
C56 C 0.97555 0.93831 0.90977 0.0
C57 C -0.01111 0.93652 0.12447 0.0
C58 C 0.09027 0.93746 1.01223 0.0
C59 C 0.09022 0.1431 1.01107 0.0
C60 C 0.8737 0.93772 0.02098 0.0
C61 C 0.87438 0.1434 0.02904 0.0
C62 C 0.88266 0.03593 0.13304 0.0
C63 C 0.09776 0.03143 0.11783 0.0
C64 C 0.86558 0.03838 0.919 0.0
C65 C 0.08111 0.04599 0.90327 0.0
Eu66 Eu -0.01785 0.12041 0.01911 0.0
O67 O 0.02558 0.07806 0.05571 0.0
O68 O 0.93894 0.07873 0.98168 0.0
Eu69 Eu 0.06671 0.04027 1.01233 0.0
Eu70 Eu 0.89744 0.04056 0.02418 0.0
O71 O 0.01823 0.07774 0.97706 0.0
O72 O 0.94526 0.07773 0.06075 0.0
Eu73 Eu 0.97543 0.04099 0.93458 0.0
Eu74 Eu -0.01163 0.03967 0.10178 0.0
O75 O 0.01917 1.00259 0.97527 0.0
O76 O 0.02408 1.00274 0.05386 0.0
O77 O 0.94533 1.00228 0.05977 0.0
O78 O 0.93943 1.00326 0.98163 0.0
Eu79 Eu -0.01798 0.96007 0.01728 0.0
O80 O -0.02181 0.15664 0.95428 0.0
O81 O -0.01343 0.15555 0.08441 0.0
O82 O 0.9771 0.92509 0.95184 0.0
O83 O -0.01315 0.92395 0.08222 0.0
O84 O 0.10402 0.97772 1.01045 0.0
O85 O 0.10402 0.10281 1.01032 0.0
O86 O 0.85997 0.97802 0.02231 0.0
O87 O 0.86058 0.10313 0.03024 0.0
O88 O 0.92608 0.03736 0.14336 0.0
O89 O 0.05639 0.0339 0.13405 0.0
O90 O 0.90691 0.03719 0.90244 0.0
O91 O 0.03764 0.04523 0.89308 0.0
O92 O 0.91622 0.9247 0.02018 0.0
O93 O 0.04777 0.92454 1.01416 0.0
O94 O 0.91669 0.15619 0.02424 0.0
O95 O 0.04778 0.15598 1.01446 0.0
O96 O -0.01038 0.10194 0.13975 0.0
O97 O -0.01074 0.97673 0.13834 0.0
O98 O 0.97341 0.10401 0.89808 0.0
O99 O 0.9756 0.97878 0.89657 0.0
O100 O 0.09855 0.04331 0.94414 0.0
O101 O 0.10878 0.0347 0.07506 0.0
O102 O 0.85502 0.04161 0.96181 0.0
O103 O 0.8654 0.03681 0.09205 0.0
C104 C 0.9426 0.38459 0.43823 0.0
C105 C 0.96701 0.4227 0.43751 0.0
C106 C 0.94185 0.35783 0.40138 0.0
C107 C 0.00783 0.33352 0.3007 0.0
H108 H 0.90768 0.25878 0.27569 0.0
C109 C 0.00103 0.21737 0.15121 0.0
C110 C -0.01227 0.17565 0.16114 0.0
C111 C -0.00203 0.24935 0.18316 0.0
C112 C 0.93596 0.27934 0.28246 0.0
H113 H 0.00749 0.4638 0.39629 0.0
H114 H 0.00465 0.41793 0.33115 0.0
H115 H 0.90019 0.31365 0.33207 0.0
H116 H 0.96089 0.13481 0.2125 0.0
H117 H 0.95503 0.19088 0.26809 0.0
H118 H 0.04318 0.29932 0.25036 0.0
C119 C -0.01277 0.40804 0.36082 0.0
C120 C 0.93178 0.31077 0.31485 0.0
C121 C -0.01169 0.4347 0.39796 0.0
C122 C 0.97166 0.16655 0.20386 0.0
C123 C 0.96793 0.19869 0.23557 0.0
C124 C 0.01175 0.30244 0.26785 0.0
C125 C 0.96498 0.36868 0.36244 0.0
C126 C 0.96791 0.33787 0.32498 0.0
C127 C -0.01915 0.24044 0.22547 0.0
C128 C 0.9761 0.27462 0.25891 0.0
H129 H 0.92509 0.37471 0.46788 0.0
H130 H 0.92462 0.32776 0.40426 0.0
H131 H 0.03667 0.35318 0.30795 0.0
H132 H 0.0137 0.22541 0.11866 0.0
H133 H 0.00804 0.28128 0.17446 0.0
C134 C 0.60049 0.99885 0.42322 0.0
C135 C 0.57869 0.95984 0.41689 0.0
C136 C 0.63979 1.00799 0.4004 0.0
C137 C 0.69299 1.02908 0.31814 0.0
H138 H 0.789 0.94947 0.29467 0.0
C139 C 0.80522 0.03864 0.16425 0.0
C140 C 0.8513 0.03152 0.17037 0.0
C141 C 0.77557 0.03256 0.19928 0.0
C142 C 0.76267 0.9722 0.30134 0.0
H143 H 0.58214 0.89879 0.38423 0.0
H144 H 0.65088 0.91488 0.34393 0.0
H145 H 0.73274 0.93234 0.35057 0.0
H146 H 0.90247 1.01281 0.21822 0.0
H147 H 0.8505 1.00216 0.27915 0.0
H148 H 0.72225 0.0685 0.26828 0.0
C149 C 0.63769 0.93827 0.36668 0.0
C150 C 0.73043 0.96228 0.33304 0.0
C151 C 0.59825 0.92918 0.38939 0.0
C152 C 0.86717 1.01876 0.21238 0.0
C153 C 0.83748 1.01237 0.24725 0.0
C154 C 0.72499 0.03884 0.28627 0.0
C155 C 0.65798 0.97826 0.37094 0.0
C156 C 0.69498 0.9904 0.34125 0.0
C157 C 0.79142 1.01896 0.24092 0.0
C158 C 0.75969 1.0102 0.27712 0.0
H159 H 0.5859 1.02322 0.44392 0.0
H160 H 0.65507 0.0389 0.40452 0.0
H161 H 0.66569 0.05111 0.32345 0.0
H162 H 0.79196 0.04861 0.13236 0.0
H163 H 0.74008 0.03747 0.19349 0.0
C164 C 0.03149 0.6858 0.43483 0.0
C165 C -0.00196 0.65463 0.43673 0.0
C166 C 0.03415 0.71306 0.39839 0.0
C167 C -0.00981 0.73207 0.28354 0.0
H168 H 0.01995 0.84853 0.31221 0.0
C169 C 0.00528 0.86181 0.14825 0.0
C170 C -0.00906 0.903 0.15891 0.0
C171 C 0.00774 0.83033 0.18091 0.0
C172 C 0.01106 0.81629 0.30357 0.0
H173 H 0.94197 0.62647 0.40186 0.0
H174 H 0.94546 0.67492 0.33864 0.0
H175 H 0.02144 0.79524 0.37012 0.0
H176 H 0.96693 0.94314 0.2121 0.0
H177 H 0.96984 0.88813 0.26863 0.0
H178 H 0.97755 0.75379 0.21735 0.0
C179 C 0.97047 0.67783 0.36462 0.0
C180 C 0.01273 0.7854 0.33677 0.0
C181 C 0.96832 0.65006 0.40083 0.0
C182 C -0.02136 0.91188 0.20286 0.0
C183 C -0.01945 0.88029 0.23538 0.0
C184 C -0.01199 0.76314 0.25037 0.0
C185 C 0.00281 0.71036 0.36339 0.0
C186 C 0.00233 0.74282 0.3273 0.0
C187 C -0.00458 0.83913 0.22496 0.0
C188 C -0.00172 0.80573 0.25998 0.0
H189 H 0.05495 0.68968 0.4621 0.0
H190 H 0.06031 0.73684 0.39817 0.0
H191 H -0.01762 0.69962 0.27478 0.0
H192 H 0.01535 0.85398 0.11477 0.0
H193 H 0.02003 0.79928 0.1717 0.0
C194 C 0.3752 0.92031 0.39858 0.0
C195 C 0.41699 0.93809 0.38771 0.0
C196 C 0.33913 0.92303 0.36882 0.0
C197 C 0.30901 0.94289 0.25207 0.0
H198 H 0.20456 0.99993 0.29923 0.0
C199 C 0.17906 1.02313 0.13782 0.0
C200 C 0.13374 1.0206 0.14983 0.0
C201 C 0.21253 1.00927 0.16707 0.0
C202 C 0.23305 0.9833 0.28555 0.0
H203 H 0.45329 0.97209 0.3363 0.0
H204 H 0.39133 0.97503 0.2844 0.0
H205 H 0.26419 0.97724 0.34944 0.0
H206 H 0.08809 1.00118 0.20201 0.0
H207 H 0.1461 0.97644 0.25223 0.0
H208 H 0.27816 0.94893 0.18818 0.0
C209 C 0.38656 0.95888 0.31578 0.0
C210 C 0.26713 0.97025 0.31439 0.0
C211 C 0.42223 0.95689 0.34563 0.0
C212 C 0.12268 1.00428 0.19183 0.0
C213 C 0.15602 0.99004 0.22078 0.0
C214 C 0.27471 0.95549 0.22325 0.0
C215 C 0.34447 0.94288 0.32743 0.0
C216 C 0.30576 0.95069 0.29779 0.0
C217 C 0.20134 0.99215 0.20871 0.0
C218 C 0.23672 0.97661 0.23955 0.0
H219 H 0.37006 0.90511 0.43037 0.0
H220 H 0.30689 0.91028 0.37838 0.0
H221 H 0.33846 0.92763 0.23857 0.0
H222 H 0.18874 0.03552 0.10575 0.0
H223 H 0.24718 1.0121 0.15704 0.0
C224 C -0.00155 0.65132 0.63422 0.0
C225 C 0.96863 0.65553 0.59833 0.0
C226 C -0.00354 0.67952 0.67003 0.0
C227 C 0.95387 0.78735 0.69694 0.0
H228 H -0.01086 0.75639 0.8166 0.0
C229 C -0.01449 0.91445 0.83098 0.0
C230 C 0.97358 0.90515 0.87495 0.0
C231 C -0.01596 0.88298 0.79834 0.0
C232 C -0.02135 0.76559 0.78351 0.0
H233 H 0.91178 0.6905 0.57257 0.0
H234 H 0.90666 0.73838 0.63581 0.0
H235 H -0.01511 0.70203 0.75954 0.0
H236 H 0.94999 0.85549 0.91891 0.0
H237 H 0.94605 0.80112 0.86188 0.0
H238 H 0.94595 0.85052 0.72111 0.0
C239 C 0.93279 0.71455 0.63588 0.0
C240 C 0.97683 0.73439 0.75053 0.0
C241 C 0.9353 0.68686 0.59984 0.0
C242 C 0.95984 0.8637 0.88544 0.0
C243 C 0.95782 0.83237 0.8527 0.0
C244 C 0.95517 0.81839 0.72997 0.0
C245 C 0.96417 0.71215 0.67088 0.0
C246 C 0.9646 0.74486 0.7067 0.0
C247 C 0.96999 0.84151 0.80867 0.0
C248 C 0.96788 0.80806 0.77367 0.0
H249 H 0.02474 0.62763 0.63349 0.0
H250 H 0.02151 0.67681 0.696 0.0
H251 H 0.9451 0.797 0.66352 0.0
H252 H -0.00335 0.94594 0.82182 0.0
H253 H -0.00547 0.89114 0.76508 0.0
C254 C 0.37475 0.06995 0.62596 0.0
C255 C 0.37703 0.02939 0.60712 0.0
C256 C 0.3362 0.08283 0.6481 0.0
C257 C 0.27624 0.08063 0.72731 0.0
H258 H 0.15614 0.03758 0.70778 0.0
C259 C 0.15835 0.0439 0.8713 0.0
C260 C 0.11228 0.05129 0.8658 0.0
C261 C 0.18746 0.04894 0.83563 0.0
C262 C 0.18929 0.05048 0.71352 0.0
H263 H 0.34047 0.97172 0.59314 0.0
H264 H 0.27351 0.99336 0.63304 0.0
H265 H 0.20984 0.03653 0.64721 0.0
H266 H 0.06079 0.071 0.81874 0.0
H267 H 0.1117 0.08031 0.75692 0.0
H268 H 0.25582 0.09454 0.79352 0.0
C269 C 0.30077 1.01582 0.63009 0.0
C270 C 0.22017 0.04952 0.67891 0.0
C271 C 0.33912 1.00325 0.60733 0.0
C272 C 0.09604 0.06444 0.82405 0.0
C273 C 0.12519 0.06977 0.78851 0.0
C274 C 0.24532 0.0819 0.76172 0.0
C275 C 0.29975 0.05493 0.65256 0.0
C276 C 0.26442 0.06335 0.68584 0.0
C277 C 0.17118 0.06187 0.79383 0.0
C278 C 0.20199 0.06556 0.75566 0.0
H279 H 0.40374 0.09063 0.62578 0.0
H280 H 0.33603 0.11359 0.66403 0.0
H281 H 0.31012 0.09111 0.73417 0.0
H282 H 0.17192 0.03364 0.90296 0.0
H283 H 0.22264 0.04185 0.84063 0.0
C284 C 0.02295 0.38528 0.59999 0.0
C285 C -0.00135 0.42348 0.6002 0.0
C286 C 0.02378 0.359 0.63727 0.0
C287 C 0.95804 0.3361 0.7384 0.0
H288 H 0.05794 0.26112 0.76404 0.0
C289 C 0.96409 0.21962 0.88807 0.0
C290 C 0.97675 0.17783 0.87777 0.0
C291 C 0.96757 0.25184 0.85634 0.0
C292 C 0.02974 0.2818 0.75712 0.0
H293 H 0.95846 0.46523 0.64092 0.0
H294 H 0.96146 0.42019 0.70678 0.0
H295 H 0.06561 0.31566 0.70719 0.0
H296 H 0.00305 0.13712 0.8261 0.0
H297 H 0.00966 0.19356 0.77096 0.0
H298 H 0.92256 0.30229 0.78902 0.0
C299 C -0.02127 0.40987 0.6772 0.0
C300 C 0.03403 0.31302 0.72446 0.0
C301 C 0.97755 0.43605 0.63963 0.0
C302 C -0.00728 0.16891 0.835 0.0
C303 C -0.00311 0.20125 0.80355 0.0
C304 C 0.95402 0.30524 0.77153 0.0
C305 C 0.00086 0.37044 0.67612 0.0
C306 C -0.00205 0.34011 0.71404 0.0
C307 C -0.01547 0.24305 0.81396 0.0
C308 C -0.01044 0.27733 0.78064 0.0
H309 H 0.04031 0.37499 0.57043 0.0
H310 H 0.04091 0.32883 0.63481 0.0
H311 H 0.92924 0.3558 0.73094 0.0
H312 H 0.95156 0.22749 0.9207 0.0
H313 H 0.95792 0.28382 0.86523 0.0
C314 C 0.53737 1.02547 0.67976 0.0
C315 C 0.53246 0.9906 0.65098 0.0
C316 C 0.57256 1.02701 0.71028 0.0
C317 C 0.68635 0.99884 0.72534 0.0
H318 H 0.66637 1.01106 0.85171 0.0
C319 C 0.83339 1.00786 0.8497 0.0
C320 C 0.82821 0.03337 0.88743 0.0
C321 C 0.79714 1.00036 0.82135 0.0
C322 C 0.67261 1.00838 0.81648 0.0
H323 H 0.56066 0.92954 0.63274 0.0
H324 H 0.62373 0.93364 0.68476 0.0
H325 H 0.60262 1.00141 0.80169 0.0
H326 H 0.78176 0.07203 0.92468 0.0
H327 H 0.71902 0.06102 0.87396 0.0
H328 H 0.75585 1.00815 0.73917 0.0
C329 C 0.59962 0.95932 0.68364 0.0
C330 C 0.63611 1.00239 0.78804 0.0
C331 C 0.56375 0.95724 0.6537 0.0
C332 C 0.78648 0.05203 0.89588 0.0
C333 C 0.75046 0.04531 0.867 0.0
C334 C 0.72282 1.00575 0.75361 0.0
C335 C 0.60417 0.99424 0.71202 0.0
C336 C 0.64279 0.99769 0.74234 0.0
C337 C 0.75515 1.01895 0.82964 0.0
C338 C 0.71642 1.0108 0.79956 0.0
H339 H 0.51473 0.05225 0.67803 0.0
H340 H 0.57592 0.05447 0.73162 0.0
H341 H 0.69201 0.99579 0.69 0.0
H342 H 0.8651 0.99252 0.84284 0.0
H343 H 0.80193 0.97923 0.7935 0.0
C344 C 0.40598 0.38709 0.96979 0.0
C345 C 0.40264 0.42394 0.99573 0.0
C346 C 0.36968 0.35954 0.96571 0.0
C347 C 0.24831 0.3466 0.98136 0.0
H348 H 0.2809 0.2309 1.01113 0.0
C349 C 0.11615 0.21807 0.02096 0.0
C350 C 0.12483 0.17638 1.00699 0.0
C351 C 0.14881 0.24955 0.01673 0.0
C352 C 0.27117 0.26282 1.00198 0.0
H353 H 0.35772 0.46242 0.03508 0.0
H354 H 0.2938 0.41425 0.0275 0.0
H355 H 0.33886 0.28465 1.00567 0.0
H356 H 0.17413 0.13527 0.97653 0.0
H357 H 0.23055 0.19023 0.96816 0.0
H358 H 0.18053 0.32465 0.97732 0.0
C359 C 0.32467 0.40674 1.01049 0.0
C360 C 0.30445 0.29367 0.99894 0.0
C361 C 0.36118 0.43431 1.01476 0.0
C362 C 0.16662 0.16693 0.98825 0.0
C363 C 0.19905 0.19848 0.98355 0.0
C364 C 0.21492 0.31556 0.98394 0.0
C365 C 0.32916 0.36837 0.98724 0.0
C366 C 0.2934 0.33585 0.98868 0.0
C367 C 0.1907 0.24014 0.99802 0.0
C368 C 0.22597 0.27328 0.99441 0.0
H369 H 0.43727 0.37875 0.95397 0.0
H370 H 0.37374 0.33059 0.94683 0.0
H371 H 0.23895 0.37889 0.97322 0.0
H372 H 0.08433 0.22633 0.03575 0.0
H373 H 0.14144 0.28107 0.02888 0.0
C374 C 0.40334 0.69228 0.06244 0.0
C375 C 0.40129 0.65505 0.0369 0.0
C376 C 0.36698 0.71997 0.06372 0.0
C377 C 0.24697 0.73338 0.04271 0.0
H378 H 0.28105 0.84745 1.00845 0.0
C379 C 0.11549 0.86248 1.00122 0.0
C380 C 0.12517 0.90429 1.01415 0.0
C381 C 0.14806 0.8308 1.0049 0.0
C382 C 0.27089 0.81602 0.01879 0.0
H383 H 0.35832 0.616 0.99554 0.0
H384 H 0.29411 0.66435 0.99854 0.0
H385 H 0.33835 0.79327 0.01716 0.0
H386 H 0.17622 0.94554 0.04194 0.0
H387 H 0.23248 0.89028 0.04957 0.0
H388 H 0.17953 0.75629 0.04527 0.0
C389 C 0.32415 0.67207 0.01719 0.0
C390 C 0.30377 0.78494 0.02363 0.0
C391 C 0.3608 0.6444 0.01559 0.0
C392 C 0.16798 0.91377 0.03095 0.0
C393 C 0.2003 0.88202 0.03523 0.0
C394 C 0.21398 0.7647 0.03848 0.0
C395 C 0.32762 0.71081 0.03992 0.0
C396 C 0.29218 0.74339 0.0357 0.0
C397 C 0.19083 0.84011 0.02217 0.0
C398 C 0.22558 0.80647 0.02648 0.0
H399 H 0.43377 0.70084 0.08003 0.0
H400 H 0.37014 0.74929 0.08218 0.0
H401 H 0.23726 0.70154 0.05215 0.0
H402 H 0.08281 0.85426 0.98798 0.0
H403 H 0.13978 0.7991 0.99379 0.0
C404 C 0.55887 0.38784 0.0707 0.0
C405 C 0.56217 0.4243 0.04408 0.0
C406 C 0.59519 0.36034 0.07525 0.0
C407 C 0.71655 0.3471 0.05948 0.0
H408 H 0.68389 0.23107 0.0316 0.0
C409 C 0.8484 0.21844 0.01972 0.0
C410 C 0.83996 0.17676 0.03396 0.0
C411 C 0.8158 0.24993 0.02429 0.0
C412 C 0.69365 0.26309 0.04025 0.0
H413 H 0.60703 0.4622 1.00398 0.0
H414 H 0.67096 0.41412 1.01237 0.0
H415 H 0.62591 0.28487 0.03664 0.0
H416 H 0.79117 0.1357 0.06533 0.0
H417 H 0.73484 0.1907 0.07433 0.0
H418 H 0.78437 0.32521 0.06338 0.0
C419 C 0.64012 0.40687 0.02956 0.0
C420 C 0.66035 0.29396 0.04304 0.0
C421 C 0.6036 0.43439 0.02483 0.0
C422 C 0.79849 0.16736 0.05343 0.0
C423 C 0.76612 0.19893 0.05847 0.0
C424 C 0.74995 0.31604 0.05715 0.0
C425 C 0.63567 0.36884 0.05351 0.0
C426 C 0.67142 0.33627 0.05256 0.0
C427 C 0.7742 0.24055 0.04364 0.0
C428 C 0.73889 0.27365 0.04732 0.0
H429 H 0.5276 0.37973 0.08669 0.0
H430 H 0.59116 0.33166 0.09465 0.0
H431 H 0.72593 0.37948 0.06705 0.0
H432 H 0.87995 0.22667 1.00434 0.0
H433 H 0.82296 0.28141 1.01183 0.0
C434 C 0.56089 0.69185 0.97273 0.0
C435 C 0.56308 0.65495 0.99886 0.0
C436 C 0.59716 0.7196 0.97094 0.0
C437 C 0.71718 0.73343 0.99152 0.0
H438 H 0.68294 0.84785 0.02414 0.0
C439 C 0.84845 0.86275 0.03191 0.0
C440 C 0.83885 0.90453 0.01867 0.0
C441 C 0.81592 0.83108 0.02829 0.0
C442 C 0.69315 0.81632 1.01423 0.0
H443 H 0.60623 0.6165 0.04079 0.0
H444 H 0.67029 0.66491 0.0369 0.0
H445 H 0.62572 0.79354 0.01624 0.0
H446 H 0.78791 0.94573 0.99046 0.0
H447 H 0.73168 0.89044 0.98289 0.0
H448 H 0.78458 0.75635 0.98862 0.0
C449 C 0.6402 0.67235 0.01818 0.0
C450 C 0.66031 0.78517 1.00986 0.0
C451 C 0.60363 0.64464 0.02029 0.0
C452 C 0.79612 0.91398 1.0016 0.0
C453 C 0.76382 0.88221 0.99738 0.0
C454 C 0.75012 0.76482 0.99528 0.0
C455 C 0.63659 0.7108 0.99482 0.0
C456 C 0.67196 0.74348 0.99843 0.0
C457 C 0.77322 0.84035 1.01078 0.0
C458 C 0.73848 0.8067 1.00671 0.0
H459 H 0.53041 0.70015 0.95504 0.0
H460 H 0.59389 0.74868 0.95201 0.0
H461 H 0.72693 0.7015 0.98256 0.0
H462 H 0.88104 0.85454 0.04543 0.0
H463 H 0.82415 0.79943 0.03968 0.0
loop_
_geom_bond_atom_site_label_1
_geom_bond_atom_site_label_2
_geom_bond_distance
_geom_bond_site_symmetry_2
_ccdc_geom_bond_type
H0 C6 0.929 1_655 S
H1 C9 0.931 . S
H2 C11 0.929 1_655 S
H3 C13 0.930 . S
H4 C15 0.930 . S
H5 C17 0.931 1_655 S
C6 H0 0.929 1_455 S
C6 C7 1.379 1_455 S
C6 C8 1.394 . S
C7 C6 1.379 1_655 S
C7 C11 1.381 1_655 S
C8 C6 1.394 . S
C8 C9 1.400 . S
C9 H1 0.931 . S
C9 C8 1.400 . S
C9 C10 1.375 . S
C10 C9 1.375 . S
C10 C11 1.418 . S
C10 C12 1.501 . S
C11 H2 0.929 1_455 S
C11 C7 1.381 1_455 S
C11 C10 1.418 . S
C12 C10 1.501 . S
C12 C13 1.384 . S
C12 C17 1.408 . S
C13 H3 0.930 . S
C13 C12 1.384 . S
C13 C14 1.389 . S
C14 C13 1.389 . S
C14 C15 1.405 . S
C15 H4 0.930 . S
C15 C14 1.405 . S
C15 C16 1.366 . S
C16 C15 1.366 . S
C16 C17 1.401 . S
C17 H5 0.931 1_455 S
C17 C12 1.408 . S
C17 C16 1.401 . S
H18 C24 0.930 . S
H19 C27 0.931 . S
H20 C29 0.931 . S
H21 C31 0.930 . S
H22 C33 0.930 . S
H23 C35 0.931 . S
C24 H18 0.930 . S
C24 C25 1.380 . S
C24 C26 1.394 1_545 S
C25 C24 1.380 . S
C25 C29 1.382 . S
C26 C24 1.394 1_565 S
C26 C27 1.400 . S
C27 H19 0.931 . S
C27 C26 1.400 . S
C27 C28 1.375 . S
C28 C27 1.375 . S
C28 C29 1.415 1_565 S
C28 C30 1.501 . S
C29 H20 0.931 . S
C29 C25 1.382 . S
C29 C28 1.415 1_545 S
C30 C28 1.501 . S
C30 C31 1.384 . S
C30 C35 1.408 1_565 S
C31 H21 0.930 . S
C31 C30 1.384 . S
C31 C32 1.389 . S
C32 C31 1.389 . S
C32 C33 1.405 . S
C33 H22 0.930 . S
C33 C32 1.405 . S
C33 C34 1.364 1_565 S
C34 C33 1.364 1_545 S
C34 C35 1.400 . S
C35 H23 0.931 . S
C35 C30 1.408 1_545 S
C35 C34 1.400 . S
H36 C42 0.929 1_556 S
H37 C45 0.931 . S
H38 C47 0.929 1_556 S
H39 C49 0.930 . S
H40 C51 0.930 . S
H41 C53 0.928 1_556 S
C42 H36 0.929 1_554 S
C42 C43 1.379 1_554 S
C42 C44 1.394 . S
C43 C42 1.379 1_556 S
C43 C47 1.381 1_556 S
C44 C42 1.394 . S
C44 C45 1.400 . S
C45 H37 0.931 . S
C45 C44 1.400 . S
C45 C46 1.375 . S
C46 C45 1.375 . S
C46 C47 1.417 . S
C46 C48 1.501 . S
C47 H38 0.929 1_554 S
C47 C43 1.381 1_554 S
C47 C46 1.417 . S
C48 C46 1.501 . S
C48 C49 1.384 . S
C48 C53 1.411 . S
C49 H39 0.930 . S
C49 C48 1.384 . S
C49 C50 1.389 . S
C50 C49 1.389 . S
C50 C51 1.405 . S
C51 H40 0.930 . S
C51 C50 1.405 . S
C51 C52 1.366 . S
C52 C51 1.366 . S
C52 C53 1.400 . S
C53 H41 0.928 1_554 S
C53 C48 1.411 . S
C53 C52 1.400 . S
C54 O80 1.283 . S
C54 O98 1.283 . S
C55 O81 1.283 . S
C55 O96 1.283 . S
C56 O82 1.283 . S
C56 O99 1.283 . S
C57 O83 1.283 . S
C57 O97 1.283 . S
C58 O84 1.283 . S
C58 O93 1.283 . S
C59 O85 1.283 . S
C59 O95 1.283 . S
C60 O86 1.283 . S
C60 O92 1.283 . S
C61 O87 1.283 . S
C61 O94 1.283 . S
C62 O88 1.283 . S
C62 O103 1.283 . S
C63 O89 1.283 . S
C63 O101 1.283 . S
C64 O90 1.283 . S
C64 O102 1.283 . S
C65 O91 1.283 . S
C65 O100 1.283 . S
Eu66 O67 2.370 . S
Eu66 O68 2.370 1_454 S
Eu66 O71 2.370 1_554 S
Eu66 O72 2.370 1_455 S
Eu66 O80 2.363 1_554 S
Eu66 O81 2.363 . S
Eu66 O94 2.363 1_455 S
Eu66 O95 2.363 . S
O67 Eu66 2.370 . S
O67 Eu69 2.370 . S
O67 Eu74 2.370 . S
O68 Eu66 2.370 1_656 S
O68 Eu70 2.370 1_556 S
O68 Eu73 2.370 1_655 S
Eu69 O67 2.370 . S
Eu69 O71 2.370 1_554 S
Eu69 O75 2.370 1_544 S
Eu69 O76 2.370 1_545 S
Eu69 O84 2.364 1_545 S
Eu69 O85 2.362 . S
Eu69 O100 2.363 1_554 S
Eu69 O101 2.363 . S
Eu70 O68 2.370 1_554 S
Eu70 O72 2.370 . S
Eu70 O77 2.370 1_545 S
Eu70 O78 2.370 1_544 S
Eu70 O86 2.362 1_545 S
Eu70 O87 2.364 . S
Eu70 O102 2.363 1_554 S
Eu70 O103 2.363 . S
O71 Eu66 2.370 1_556 S
O71 Eu69 2.370 1_556 S
O71 Eu73 2.370 . S
O72 Eu66 2.370 1_655 S
O72 Eu70 2.370 . S
O72 Eu74 2.370 1_655 S
Eu73 O68 2.370 1_455 S
Eu73 O71 2.370 . S
Eu73 O75 2.370 1_545 S
Eu73 O78 2.370 1_445 S
Eu73 O90 2.363 1_455 S
Eu73 O91 2.363 . S
Eu73 O98 2.362 . S
Eu73 O99 2.364 1_545 S
Eu74 O67 2.370 . S
Eu74 O72 2.370 1_455 S
Eu74 O76 2.370 1_545 S
Eu74 O77 2.370 1_445 S
Eu74 O88 2.363 1_455 S
Eu74 O89 2.363 . S
Eu74 O96 2.364 . S
Eu74 O97 2.362 1_545 S
O75 Eu69 2.370 1_566 S
O75 Eu73 2.370 1_565 S
O75 Eu79 2.370 1_556 S
O76 Eu69 2.370 1_565 S
O76 Eu74 2.370 1_565 S
O76 Eu79 2.370 . S
O77 Eu70 2.370 1_565 S
O77 Eu74 2.370 1_665 S
O77 Eu79 2.370 1_655 S
O78 Eu70 2.370 1_566 S
O78 Eu73 2.370 1_665 S
O78 Eu79 2.370 1_656 S
Eu79 O75 2.370 1_554 S
Eu79 O76 2.370 . S
Eu79 O77 2.370 1_455 S
Eu79 O78 2.370 1_454 S
Eu79 O82 2.363 1_554 S
Eu79 O83 2.363 . S
Eu79 O92 2.363 1_455 S
Eu79 O93 2.363 . S
O80 C54 1.283 . S
O80 Eu66 2.363 1_556 S
O81 C55 1.283 . S
O81 Eu66 2.363 . S
O82 C56 1.283 . S
O82 Eu79 2.363 1_556 S
O83 C57 1.283 . S
O83 Eu79 2.363 . S
O84 C58 1.283 . S
O84 Eu69 2.364 1_565 S
O85 C59 1.283 . S
O85 Eu69 2.362 . S
O86 C60 1.283 . S
O86 Eu70 2.362 1_565 S
O87 C61 1.283 . S
O87 Eu70 2.364 . S
O88 C62 1.283 . S
O88 Eu74 2.363 1_655 S
O89 C63 1.283 . S
O89 Eu74 2.363 . S
O90 C64 1.283 . S
O90 Eu73 2.363 1_655 S
O91 C65 1.283 . S
O91 Eu73 2.363 . S
O92 C60 1.283 . S
O92 Eu79 2.363 1_655 S
O93 C58 1.283 . S
O93 Eu79 2.363 . S
O94 C61 1.283 . S
O94 Eu66 2.363 1_655 S
O95 C59 1.283 . S
O95 Eu66 2.363 . S
O96 C55 1.283 . S
O96 Eu74 2.364 . S
O97 C57 1.283 . S
O97 Eu74 2.362 1_565 S
O98 C54 1.283 . S
O98 Eu73 2.362 . S
O99 C56 1.283 . S
O99 Eu73 2.364 1_565 S
O100 C65 1.283 . S
O100 Eu69 2.363 1_556 S
O101 C63 1.283 . S
O101 Eu69 2.363 . S
O102 C64 1.283 . S
O102 Eu70 2.363 1_556 S
O103 C62 1.283 . S
O103 Eu70 2.363 . S
C104 C105 1.349 . S
C104 C106 1.327 . S
C104 H129 0.950 . S
C105 C104 1.349 . S
C105 C121 1.349 1_655 S
C106 C104 1.327 . S
C106 C125 1.429 . S
C106 H130 0.950 . S
C107 C124 1.574 . S
C107 C126 1.358 1_455 S
C107 H131 0.949 . S
H108 C112 0.949 . S
C109 C110 1.349 . S
C109 C111 1.327 . S
C109 H132 0.950 . S
C110 C109 1.349 . S
C110 C122 1.349 1_455 S
C111 C109 1.327 . S
C111 C127 1.429 . S
C111 H133 0.950 . S
C112 H108 0.949 . S
C112 C120 1.574 . S
C112 C128 1.360 1_655 S
H113 C121 0.950 . S
H114 C119 0.950 . S
H115 C120 0.949 . S
H116 C122 0.950 . S
H117 C123 0.950 . S
H118 C124 0.949 . S
C119 H114 0.950 . S
C119 C121 1.327 . S
C119 C125 1.429 1_455 S
C120 C112 1.574 . S
C120 H115 0.949 . S
C120 C126 1.378 . S
C121 C105 1.349 1_455 S
C121 H113 0.950 . S
C121 C119 1.327 . S
C122 C110 1.349 1_655 S
C122 H116 0.950 . S
C122 C123 1.327 . S
C123 H117 0.950 . S
C123 C122 1.327 . S
C123 C127 1.429 1_655 S
C124 C107 1.574 . S
C124 H118 0.949 . S
C124 C128 1.376 . S
C125 C106 1.429 . S
C125 C119 1.429 1_655 S
C125 C126 1.523 . S
C126 C107 1.358 1_655 S
C126 C120 1.378 . S
C126 C125 1.523 . S
C127 C111 1.429 . S
C127 C123 1.429 1_455 S
C127 C128 1.523 . S
C128 C112 1.360 1_455 S
C128 C124 1.376 . S
C128 C127 1.523 . S
H129 C104 0.950 . S
H130 C106 0.950 . S
H131 C107 0.949 . S
H132 C109 0.950 . S
H133 C111 0.950 . S
C134 C135 1.349 . S
C134 C136 1.327 . S
C134 H159 0.950 . S
C135 C134 1.349 . S
C135 C151 1.349 1_545 S
C136 C134 1.327 . S
C136 C155 1.429 . S
C136 H160 0.950 . S
C137 C154 1.574 . S
C137 C156 1.368 1_565 S
C137 H161 0.949 . S
H138 C142 0.949 . S
C139 C140 1.343 1_565 S
C139 C141 1.327 . S
C139 H162 0.950 . S
C140 C139 1.343 1_545 S
C140 C152 1.354 . S
C141 C139 1.327 . S
C141 C157 1.429 1_565 S
C141 H163 0.950 . S
C142 H138 0.949 . S
C142 C150 1.574 . S
C142 C158 1.368 . S
H143 C151 0.950 . S
H144 C149 0.950 . S
H145 C150 0.949 . S
H146 C152 0.950 . S
H147 C153 0.950 . S
H148 C154 0.949 . S
C149 H144 0.950 . S
C149 C151 1.327 . S
C149 C155 1.429 1_565 S
C150 C142 1.574 . S
C150 H145 0.949 . S
C150 C156 1.368 . S
C151 C135 1.349 1_565 S
C151 H143 0.950 . S
C151 C149 1.327 . S
C152 C140 1.354 . S
C152 H146 0.950 . S
C152 C153 1.327 . S
C153 H147 0.950 . S
C153 C152 1.327 . S
C153 C157 1.429 . S
C154 C137 1.574 . S
C154 H148 0.949 . S
C154 C158 1.368 1_565 S
C155 C136 1.429 . S
C155 C149 1.429 1_545 S
C155 C156 1.523 . S
C156 C137 1.368 1_545 S
C156 C150 1.368 . S
C156 C155 1.523 . S
C157 C141 1.429 1_545 S
C157 C153 1.429 . S
C157 C158 1.523 . S
C158 C142 1.368 . S
C158 C154 1.368 1_545 S
C158 C157 1.523 . S
H159 C134 0.950 . S
H160 C136 0.950 . S
H161 C137 0.949 . S
H162 C139 0.950 . S
H163 C141 0.950 . S
C164 C165 1.349 . S
C164 C166 1.327 . S
C164 H189 0.950 . S
C165 C164 1.349 . S
C165 C181 1.349 1_455 S
C166 C164 1.327 . S
C166 C185 1.429 . S
C166 H190 0.950 . S
C167 C184 1.574 . S
C167 C186 1.368 1_655 S
C167 H191 0.949 . S
H168 C172 0.949 . S
C169 C170 1.349 1_655 S
C169 C171 1.327 . S
C169 H192 0.950 . S
C170 C169 1.349 1_455 S
C170 C182 1.349 . S
C171 C169 1.327 . S
C171 C187 1.429 1_655 S
C171 H193 0.950 . S
C172 H168 0.949 . S
C172 C180 1.574 . S
C172 C188 1.368 . S
H173 C181 0.950 . S
H174 C179 0.950 . S
H175 C180 0.949 . S
H176 C182 0.950 . S
H177 C183 0.950 . S
H178 C184 0.949 . S
C179 H174 0.950 . S
C179 C181 1.327 . S
C179 C185 1.429 1_655 S
C180 C172 1.574 . S
C180 H175 0.949 . S
C180 C186 1.368 . S
C181 C165 1.349 1_655 S
C181 H173 0.950 . S
C181 C179 1.327 . S
C182 C170 1.349 . S
C182 H176 0.950 . S
C182 C183 1.327 . S
C183 H177 0.950 . S
C183 C182 1.327 . S
C183 C187 1.429 . S
C184 C167 1.574 . S
C184 H178 0.949 . S
C184 C188 1.368 1_655 S
C185 C166 1.429 . S
C185 C179 1.429 1_455 S
C185 C186 1.523 . S
C186 C167 1.368 1_455 S
C186 C180 1.368 . S
C186 C185 1.523 . S
C187 C171 1.429 1_455 S
C187 C183 1.429 . S
C187 C188 1.523 . S
C188 C172 1.368 . S
C188 C184 1.368 1_455 S
C188 C187 1.523 . S
H189 C164 0.950 . S
H190 C166 0.950 . S
H191 C167 0.949 . S
H192 C169 0.950 . S
H193 C171 0.950 . S
C194 C195 1.349 . S
C194 C196 1.327 . S
C194 H219 0.950 . S
C195 C194 1.349 . S
C195 C211 1.349 1_565 S
C196 C194 1.327 . S
C196 C215 1.429 . S
C196 H220 0.950 . S
C197 C214 1.574 . S
C197 C216 1.368 1_545 S
C197 H221 0.949 . S
H198 C202 0.949 . S
C199 C200 1.349 1_545 S
C199 C201 1.327 . S
C199 H222 0.950 . S
C200 C199 1.349 1_565 S
C200 C212 1.348 . S
C201 C199 1.327 . S
C201 C217 1.429 1_545 S
C201 H223 0.950 . S
C202 H198 0.949 . S
C202 C210 1.574 . S
C202 C218 1.368 . S
H203 C211 0.950 . S
H204 C209 0.950 . S
H205 C210 0.949 . S
H206 C212 0.950 . S
H207 C213 0.950 . S
H208 C214 0.949 . S
C209 H204 0.950 . S
C209 C211 1.327 . S
C209 C215 1.429 1_545 S
C210 C202 1.574 . S
C210 H205 0.949 . S
C210 C216 1.368 . S
C211 C195 1.349 1_545 S
C211 H203 0.950 . S
C211 C209 1.327 . S
C212 C200 1.348 . S
C212 H206 0.950 . S
C212 C213 1.327 . S
C213 H207 0.950 . S
C213 C212 1.327 . S
C213 C217 1.429 . S
C214 C197 1.574 . S
C214 H208 0.949 . S
C214 C218 1.368 1_545 S
C215 C196 1.429 . S
C215 C209 1.429 1_565 S
C215 C216 1.523 . S
C216 C197 1.368 1_565 S
C216 C210 1.368 . S
C216 C215 1.523 . S
C217 C201 1.429 1_565 S
C217 C213 1.429 . S
C217 C218 1.523 . S
C218 C202 1.368 . S
C218 C214 1.368 1_565 S
C218 C217 1.523 . S
H219 C194 0.950 . S
H220 C196 0.950 . S
H221 C197 0.949 . S
H222 C199 0.950 . S
H223 C201 0.950 . S
C224 C225 1.349 1_455 S
C224 C226 1.327 . S
C224 H249 0.950 . S
C225 C224 1.349 1_655 S
C225 C241 1.349 . S
C226 C224 1.327 . S
C226 C245 1.429 1_455 S
C226 H250 0.950 . S
C227 C244 1.574 . S
C227 C246 1.372 . S
C227 H251 0.949 . S
H228 C232 0.949 . S
C229 C230 1.349 1_655 S
C229 C231 1.327 . S
C229 H252 0.950 . S
C230 C229 1.349 1_455 S
C230 C242 1.349 . S
C231 C229 1.327 . S
C231 C247 1.429 1_655 S
C231 H253 0.950 . S
C232 H228 0.949 . S
C232 C240 1.574 . S
C232 C248 1.371 . S
H233 C241 0.950 . S
H234 C239 0.950 . S
H235 C240 0.949 . S
H236 C242 0.950 . S
H237 C243 0.950 . S
H238 C244 0.949 . S
C239 H234 0.950 . S
C239 C241 1.327 . S
C239 C245 1.429 . S
C240 C232 1.574 . S
C240 H235 0.949 . S
C240 C246 1.365 1_455 S
C241 C225 1.349 . S
C241 H233 0.950 . S
C241 C239 1.327 . S
C242 C230 1.349 . S
C242 H236 0.950 . S
C242 C243 1.327 . S
C243 H237 0.950 . S
C243 C242 1.327 . S
C243 C247 1.429 . S
C244 C227 1.574 . S
C244 H238 0.949 . S
C244 C248 1.365 1_655 S
C245 C226 1.429 1_655 S
C245 C239 1.429 . S
C245 C246 1.523 . S
C246 C227 1.372 . S
C246 C240 1.365 1_655 S
C246 C245 1.523 . S
C247 C231 1.429 1_455 S
C247 C243 1.429 . S
C247 C248 1.523 . S
C248 C232 1.371 . S
C248 C244 1.365 1_455 S
C248 C247 1.523 . S
H249 C224 0.950 . S
H250 C226 0.950 . S
H251 C227 0.949 . S
H252 C229 0.950 . S
H253 C231 0.950 . S
C254 C255 1.349 . S
C254 C256 1.327 . S
C254 H279 0.950 . S
C255 C254 1.349 . S
C255 C271 1.349 1_545 S
C256 C254 1.327 . S
C256 C275 1.429 . S
C256 H280 0.950 . S
C257 C274 1.574 . S
C257 C276 1.368 1_565 S
C257 H281 0.949 . S
H258 C262 0.949 . S
C259 C260 1.346 1_565 S
C259 C261 1.327 . S
C259 H282 0.950 . S
C260 C259 1.346 1_545 S
C260 C272 1.352 . S
C261 C259 1.327 . S
C261 C277 1.429 1_565 S
C261 H283 0.950 . S
C262 H258 0.949 . S
C262 C270 1.574 . S
C262 C278 1.368 . S
H263 C271 0.950 . S
H264 C269 0.950 . S
H265 C270 0.949 . S
H266 C272 0.950 . S
H267 C273 0.950 . S
H268 C274 0.949 . S
C269 H264 0.950 . S
C269 C271 1.327 . S
C269 C275 1.429 1_565 S
C270 C262 1.574 . S
C270 H265 0.949 . S
C270 C276 1.368 . S
C271 C255 1.349 1_565 S
C271 H263 0.950 . S
C271 C269 1.327 . S
C272 C260 1.352 . S
C272 H266 0.950 . S
C272 C273 1.327 . S
C273 H267 0.950 . S
C273 C272 1.327 . S
C273 C277 1.429 . S
C274 C257 1.574 . S
C274 H268 0.949 . S
C274 C278 1.368 1_565 S
C275 C256 1.429 . S
C275 C269 1.429 1_545 S
C275 C276 1.523 . S
C276 C257 1.368 1_545 S
C276 C270 1.368 . S
C276 C275 1.523 . S
C277 C261 1.429 1_545 S
C277 C273 1.429 . S
C277 C278 1.523 . S
C278 C262 1.368 . S
C278 C274 1.368 1_545 S
C278 C277 1.523 . S
H279 C254 0.950 . S
H280 C256 0.950 . S
H281 C257 0.949 . S
H282 C259 0.950 . S
H283 C261 0.950 . S
C284 C285 1.349 . S
C284 C286 1.327 . S
C284 H309 0.950 . S
C285 C284 1.349 . S
C285 C301 1.349 1_455 S
C286 C284 1.327 . S
C286 C305 1.429 . S
C286 H310 0.950 . S
C287 C304 1.574 . S
C287 C306 1.368 1_655 S
C287 H311 0.949 . S
H288 C292 0.949 . S
C289 C290 1.349 1_655 S
C289 C291 1.327 . S
C289 H312 0.950 . S
C290 C289 1.349 1_455 S
C290 C302 1.349 . S
C291 C289 1.327 . S
C291 C307 1.429 1_655 S
C291 H313 0.950 . S
C292 H288 0.949 . S
C292 C300 1.574 . S
C292 C308 1.368 . S
H293 C301 0.950 . S
H294 C299 0.950 . S
H295 C300 0.949 . S
H296 C302 0.950 . S
H297 C303 0.950 . S
H298 C304 0.949 . S
C299 H294 0.950 . S
C299 C301 1.327 . S
C299 C305 1.429 1_655 S
C300 C292 1.574 . S
C300 H295 0.949 . S
C300 C306 1.368 . S
C301 C285 1.349 1_655 S
C301 H293 0.950 . S
C301 C299 1.327 . S
C302 C290 1.349 . S
C302 H296 0.950 . S
C302 C303 1.327 . S
C303 H297 0.950 . S
C303 C302 1.327 . S
C303 C307 1.429 . S
C304 C287 1.574 . S
C304 H298 0.949 . S
C304 C308 1.368 1_655 S
C305 C286 1.429 . S
C305 C299 1.429 1_455 S
C305 C306 1.523 . S
C306 C287 1.368 1_455 S
C306 C300 1.368 . S
C306 C305 1.523 . S
C307 C291 1.429 1_455 S
C307 C303 1.429 . S
C307 C308 1.523 . S
C308 C292 1.368 . S
C308 C304 1.368 1_455 S
C308 C307 1.523 . S
H309 C284 0.950 . S
H310 C286 0.950 . S
H311 C287 0.949 . S
H312 C289 0.950 . S
H313 C291 0.950 . S
C314 C315 1.349 1_545 S
C314 C316 1.327 . S
C314 H339 0.950 . S
C315 C314 1.349 1_565 S
C315 C331 1.349 . S
C316 C314 1.327 . S
C316 C335 1.429 1_545 S
C316 H340 0.950 . S
C317 C334 1.574 . S
C317 C336 1.368 . S
C317 H341 0.949 . S
H318 C322 0.949 . S
C319 C320 1.348 . S
C319 C321 1.327 . S
C319 H342 0.950 . S
C320 C319 1.348 . S
C320 C332 1.350 1_565 S
C321 C319 1.327 . S
C321 C337 1.429 . S
C321 H343 0.950 . S
C322 H318 0.949 . S
C322 C330 1.574 . S
C322 C338 1.368 1_545 S
H323 C331 0.950 . S
H324 C329 0.950 . S
H325 C330 0.949 . S
H326 C332 0.950 . S
H327 C333 0.950 . S
H328 C334 0.949 . S
C329 H324 0.950 . S
C329 C331 1.327 . S
C329 C335 1.429 . S
C330 C322 1.574 . S
C330 H325 0.949 . S
C330 C336 1.368 1_545 S
C331 C315 1.349 . S
C331 H323 0.950 . S
C331 C329 1.327 . S
C332 C320 1.350 1_545 S
C332 H326 0.950 . S
C332 C333 1.327 . S
C333 H327 0.950 . S
C333 C332 1.327 . S
C333 C337 1.429 1_545 S
C334 C317 1.574 . S
C334 H328 0.949 . S
C334 C338 1.368 . S
C335 C316 1.429 1_565 S
C335 C329 1.429 . S
C335 C336 1.523 . S
C336 C317 1.368 . S
C336 C330 1.368 1_565 S
C336 C335 1.523 . S
C337 C321 1.429 . S
C337 C333 1.429 1_565 S
C337 C338 1.523 . S
C338 C322 1.368 1_565 S
C338 C334 1.368 . S
C338 C337 1.523 . S
H339 C314 0.950 . S
H340 C316 0.950 . S
H341 C317 0.949 . S
H342 C319 0.950 . S
H343 C321 0.950 . S
C344 C345 1.349 1_556 S
C344 C346 1.327 . S
C344 H369 0.950 . S
C345 C344 1.349 1_554 S
C345 C361 1.349 . S
C346 C344 1.327 . S
C346 C365 1.429 1_556 S
C346 H370 0.950 . S
C347 C364 1.574 . S
C347 C366 1.368 . S
C347 H371 0.949 . S
H348 C352 0.949 . S
C349 C350 1.349 . S
C349 C351 1.327 . S
C349 H372 0.950 . S
C350 C349 1.349 . S
C350 C362 1.349 1_554 S
C351 C349 1.327 . S
C351 C367 1.429 . S
C351 H373 0.950 . S
C352 H348 0.949 . S
C352 C360 1.574 . S
C352 C368 1.368 1_556 S
H353 C361 0.950 . S
H354 C359 0.950 . S
H355 C360 0.949 . S
H356 C362 0.950 . S
H357 C363 0.950 . S
H358 C364 0.949 . S
C359 H354 0.950 . S
C359 C361 1.327 . S
C359 C365 1.429 . S
C360 C352 1.574 . S
C360 H355 0.949 . S
C360 C366 1.368 1_556 S
C361 C345 1.349 . S
C361 H353 0.950 . S
C361 C359 1.327 . S
C362 C350 1.349 1_556 S
C362 H356 0.950 . S
C362 C363 1.327 . S
C363 H357 0.950 . S
C363 C362 1.327 . S
C363 C367 1.429 1_556 S
C364 C347 1.574 . S
C364 H358 0.949 . S
C364 C368 1.368 . S
C365 C346 1.429 1_554 S
C365 C359 1.429 . S
C365 C366 1.523 . S
C366 C347 1.368 . S
C366 C360 1.368 1_554 S
C366 C365 1.523 . S
C367 C351 1.429 . S
C367 C363 1.429 1_554 S
C367 C368 1.523 . S
C368 C352 1.368 1_554 S
C368 C364 1.368 . S
C368 C367 1.523 . S
H369 C344 0.950 . S
H370 C346 0.950 . S
H371 C347 0.949 . S
H372 C349 0.950 . S
H373 C351 0.950 . S
C374 C375 1.349 1_554 S
C374 C376 1.327 . S
C374 H399 0.950 . S
C375 C374 1.349 1_556 S
C375 C391 1.349 . S
C376 C374 1.327 . S
C376 C395 1.429 1_554 S
C376 H400 0.950 . S
C377 C394 1.574 . S
C377 C396 1.381 . S
C377 H401 0.949 . S
H378 C382 0.949 . S
C379 C380 1.349 1_556 S
C379 C381 1.327 . S
C379 H402 0.950 . S
C380 C379 1.349 1_554 S
C380 C392 1.349 . S
C381 C379 1.327 . S
C381 C397 1.429 1_556 S
C381 H403 0.950 . S
C382 H378 0.949 . S
C382 C390 1.574 . S
C382 C398 1.376 . S
H383 C391 0.950 . S
H384 C389 0.950 . S
H385 C390 0.949 . S
H386 C392 0.950 . S
H387 C393 0.950 . S
H388 C394 0.949 . S
C389 H384 0.950 . S
C389 C391 1.327 . S
C389 C395 1.429 . S
C390 C382 1.574 . S
C390 H385 0.949 . S
C390 C396 1.355 1_554 S
C391 C375 1.349 . S
C391 H383 0.950 . S
C391 C389 1.327 . S
C392 C380 1.349 . S
C392 H386 0.950 . S
C392 C393 1.327 . S
C393 H387 0.950 . S
C393 C392 1.327 . S
C393 C397 1.429 . S
C394 C377 1.574 . S
C394 H388 0.949 . S
C394 C398 1.360 1_556 S
C395 C376 1.429 1_556 S
C395 C389 1.429 . S
C395 C396 1.523 . S
C396 C377 1.381 . S
C396 C390 1.355 1_556 S
C396 C395 1.523 . S
C397 C381 1.429 1_554 S
C397 C393 1.429 . S
C397 C398 1.523 . S
C398 C382 1.376 . S
C398 C394 1.360 1_554 S
C398 C397 1.523 . S
H399 C374 0.950 . S
H400 C376 0.950 . S
H401 C377 0.949 . S
H402 C379 0.950 . S
H403 C381 0.950 . S
C404 C405 1.349 1_554 S
C404 C406 1.327 . S
C404 H429 0.950 . S
C405 C404 1.349 1_556 S
C405 C421 1.349 . S
C406 C404 1.327 . S
C406 C425 1.429 1_554 S
C406 H430 0.950 . S
C407 C424 1.574 . S
C407 C426 1.382 . S
C407 H431 0.949 . S
H408 C412 0.949 . S
C409 C410 1.349 1_556 S
C409 C411 1.327 . S
C409 H432 0.950 . S
C410 C409 1.349 1_554 S
C410 C422 1.349 . S
C411 C409 1.327 . S
C411 C427 1.429 1_556 S
C411 H433 0.950 . S
C412 H408 0.949 . S
C412 C420 1.574 . S
C412 C428 1.379 . S
H413 C421 0.950 . S
H414 C419 0.950 . S
H415 C420 0.949 . S
H416 C422 0.950 . S
H417 C423 0.950 . S
H418 C424 0.949 . S
C419 H414 0.950 . S
C419 C421 1.327 . S
C419 C425 1.429 . S
C420 C412 1.574 . S
C420 H415 0.949 . S
C420 C426 1.355 1_554 S
C421 C405 1.349 . S
C421 H413 0.950 . S
C421 C419 1.327 . S
C422 C410 1.349 . S
C422 H416 0.950 . S
C422 C423 1.327 . S
C423 H417 0.950 . S
C423 C422 1.327 . S
C423 C427 1.429 . S
C424 C407 1.574 . S
C424 H418 0.949 . S
C424 C428 1.358 1_556 S
C425 C406 1.429 1_556 S
C425 C419 1.429 . S
C425 C426 1.523 . S
C426 C407 1.382 . S
C426 C420 1.355 1_556 S
C426 C425 1.523 . S
C427 C411 1.429 1_554 S
C427 C423 1.429 . S
C427 C428 1.523 . S
C428 C412 1.379 . S
C428 C424 1.358 1_554 S
C428 C427 1.523 . S
H429 C404 0.950 . S
H430 C406 0.950 . S
H431 C407 0.949 . S
H432 C409 0.950 . S
H433 C411 0.950 . S
C434 C435 1.349 1_556 S
C434 C436 1.327 . S
C434 H459 0.950 . S
C435 C434 1.349 1_554 S
C435 C451 1.349 . S
C436 C434 1.327 . S
C436 C455 1.429 1_556 S
C436 H460 0.950 . S
C437 C454 1.574 . S
C437 C456 1.368 . S
C437 H461 0.949 . S
H438 C442 0.949 . S
C439 C440 1.349 . S
C439 C441 1.327 . S
C439 H462 0.950 . S
C440 C439 1.349 . S
C440 C452 1.349 1_554 S
C441 C439 1.327 . S
C441 C457 1.429 . S
C441 H463 0.950 . S
C442 H438 0.949 . S
C442 C450 1.574 . S
C442 C458 1.368 1_556 S
H443 C451 0.950 . S
H444 C449 0.950 . S
H445 C450 0.949 . S
H446 C452 0.950 . S
H447 C453 0.950 . S
H448 C454 0.949 . S
C449 H444 0.950 . S
C449 C451 1.327 . S
C449 C455 1.429 . S
C450 C442 1.574 . S
C450 H445 0.949 . S
C450 C456 1.368 1_556 S
C451 C435 1.349 . S
C451 H443 0.950 . S
C451 C449 1.327 . S
C452 C440 1.349 1_556 S
C452 H446 0.950 . S
C452 C453 1.327 . S
C453 H447 0.950 . S
C453 C452 1.327 . S
C453 C457 1.429 1_556 S
C454 C437 1.574 . S
C454 H448 0.949 . S
C454 C458 1.368 . S
C455 C436 1.429 1_554 S
C455 C449 1.429 . S
C455 C456 1.523 . S
C456 C437 1.368 . S
C456 C450 1.368 1_554 S
C456 C455 1.523 . S
C457 C441 1.429 . S
C457 C453 1.429 1_554 S
C457 C458 1.523 . S
C458 C442 1.368 1_554 S
C458 C454 1.368 . S
C458 C457 1.523 . S
H459 C434 0.950 . S
H460 C436 0.950 . S
H461 C437 0.949 . S
H462 C439 0.950 . S
H463 C441 0.950 . S
C110 C55 1.981 . S
C105 C7 1.962 . S
C140 C62 1.119 . S
C135 C34 1.107 . S
C170 C57 1.982 . S
C165 C14 1.967 . S
C200 C63 1.122 1_565 S
C195 C32 1.113 . S
C225 C16 1.957 1_655 S
C230 C56 1.980 . S
C260 C65 1.121 . S
C255 C25 1.110 . S
C285 C8 1.959 . S
C290 C54 1.973 . S
C315 C26 1.105 . S
C320 C64 1.114 1_565 S
C345 C50 1.524 . S
C350 C59 1.544 . S
C375 C43 1.521 . S
C380 C58 1.545 . S
C410 C61 1.541 . S
C405 C52 1.515 1_556 S
C440 C60 1.536 . S
C435 C44 1.518 . S
