# Generated by pormake.
# Topology tsx, (6,3)-cn, num edge types: 1
# Building blocks:
#     Node 0, Type 0, BuildingBlock: JUFBIX_clean_sbu_0, # of connection points: 6
#     Node 1, Type 0, BuildingBlock: JUFBIX_clean_sbu_0, # of connection points: 6
#     Node 2, Type 1, BuildingBlock: CUQRIR_clean_linker_1, # of connection points: 3
#     Node 3, Type 1, BuildingBlock: CUQRIR_clean_linker_1, # of connection points: 3
#     Node 4, Type 1, BuildingBlock: CUQRIR_clean_linker_1, # of connection points: 3
#     Node 5, Type 1, BuildingBlock: CUQRIR_clean_linker_1, # of connection points: 3
#     Edge 6, Type (0, 1), BuildingBlock: EZIPEK_clean_linker_0, # of connection points: 2
#     Edge 7, Type (0, 1), BuildingBlock: EZIPEK_clean_linker_0, # of connection points: 2
#     Edge 8, Type (0, 1), BuildingBlock: EZIPEK_clean_linker_0, # of connection points: 2
#     Edge 9, Type (0, 1), BuildingBlock: EZIPEK_clean_linker_0, # of connection points: 2
#     Edge 10, Type (0, 1), BuildingBlock: EZIPEK_clean_linker_0, # of connection points: 2
#     Edge 11, Type (0, 1), BuildingBlock: EZIPEK_clean_linker_0, # of connection points: 2
#     Edge 12, Type (0, 1), BuildingBlock: EZIPEK_clean_linker_0, # of connection points: 2
#     Edge 13, Type (0, 1), BuildingBlock: EZIPEK_clean_linker_0, # of connection points: 2
#     Edge 14, Type (0, 1), BuildingBlock: EZIPEK_clean_linker_0, # of connection points: 2
#     Edge 15, Type (0, 1), BuildingBlock: EZIPEK_clean_linker_0, # of connection points: 2
#     Edge 16, Type (0, 1), BuildingBlock: EZIPEK_clean_linker_0, # of connection points: 2
#     Edge 17, Type (0, 1), BuildingBlock: EZIPEK_clean_linker_0, # of connection points: 2
# Relax obj value: 0.137
# Max RMSD: 0.164
# Mean RMSD: 0.148
data_MOF--net-tsx--node1-JUFBIX_clean_sbu_0--node2-CUQRIR_clean_linker_1--edge1-EZIPEK_clean_linker_0
_symmetry_space_group_name_H-M    P1
_symmetry_Int_Tables_number       1
_symmetry_cell_setting            triclinic
loop_
_symmetry_equiv_pos_as_xyz
'x, y, z'
_cell_length_a     12.945606
_cell_length_b     15.584519
_cell_length_c     23.086464
_cell_angle_alpha  80.934947
_cell_angle_beta   89.244105
_cell_angle_gamma 103.39742
loop_
_atom_site_label
_atom_site_type_symbol
_atom_site_fract_x
_atom_site_fract_y
_atom_site_fract_z
_atom_type_partial_charge
Co0 Co 0.07191 0.96495 -0.01726 0.0
C1 C 1.03573 0.06609 0.88035 0.0
Co2 Co 0.95141 0.03702 -0.00506 0.0
C3 C 0.15777 0.83461 0.93599 0.0
C4 C 0.27621 0.91895 -0.0211 0.0
N5 N 0.17217 0.90239 -0.03261 0.0
N6 N 0.24789 0.80803 0.92808 0.0
C7 C 0.32254 0.86048 0.95533 0.0
H8 H 0.0827 0.80435 0.91963 0.0
H9 H 0.31651 0.96995 0.00274 0.0
C10 C 1.00676 0.94199 0.09793 0.0
N11 N 0.8489 0.10226 0.00407 0.0
C12 C 0.78939 0.13368 0.96155 0.0
C13 C 0.83063 0.1406 0.05045 0.0
N14 N 0.73707 0.19148 -0.021 0.0
C15 C 0.7625 0.1958 0.03505 0.0
C16 C 0.86292 0.8651 -0.01555 0.0
O17 O 0.07715 0.93149 0.06282 0.0
O18 O 0.93561 0.9817 0.07701 0.0
O19 O 0.84331 0.94196 -0.02392 0.0
O20 O 0.95985 0.86084 -0.01576 0.0
O21 O 0.9771 0.09433 0.91372 0.0
H22 H 0.87001 0.13379 0.09139 0.0
H23 H 0.78948 0.11908 0.9173 0.0
O24 O 0.06954 0.99854 0.90141 0.0
O25 O 0.18197 0.07073 -0.01317 0.0
O26 O 1.05567 0.12831 0.01617 0.0
C27 C 0.15381 0.13231 0.00886 0.0
H28 H 0.40375 0.85425 0.95984 0.0
H29 H 0.73955 0.24059 0.06145 0.0
Co30 Co 0.70609 0.58238 0.46815 0.0
C31 C 0.60204 0.63304 0.36819 0.0
Co32 Co 0.58291 0.65336 0.48238 0.0
C33 C 0.85008 0.45765 0.4474 0.0
C34 C 0.88034 0.58701 0.39471 0.0
N35 N 0.81791 0.53559 0.44094 0.0
N36 N 0.92699 0.45956 0.4058 0.0
C37 C 0.94319 0.54037 0.37231 0.0
H38 H 0.81428 0.39939 0.47949 0.0
H39 H 0.87639 0.65396 0.37535 0.0
C40 C 0.68539 0.59196 0.58152 0.0
N41 N 0.47849 0.71358 0.49538 0.0
C42 C 0.46132 0.7818 0.45567 0.0
C43 C 0.39663 0.69549 0.53565 0.0
N44 N 0.37211 0.8066 0.46869 0.0
C45 C 0.33095 0.75291 0.51933 0.0
C46 C 0.50183 0.46912 0.49536 0.0
O47 O 0.73247 0.55597 0.54675 0.0
O48 O 0.62212 0.64102 0.56231 0.0
O49 O 0.48571 0.54423 0.50179 0.0
O50 O 0.5955 0.46812 0.47641 0.0
O51 O 0.54181 0.65868 0.40178 0.0
H52 H 0.38276 0.64146 0.57265 0.0
H53 H 0.51152 0.81107 0.41636 0.0
O54 O 0.6808 0.60868 0.38959 0.0
O55 O 0.80629 0.69361 0.46464 0.0
O56 O 0.68276 0.76545 0.4663 0.0
C57 C 0.78108 0.7671 0.46497 0.0
H58 H 0.99662 0.56377 0.33362 0.0
H59 H 0.25704 0.75294 0.5417 0.0
C60 C 0.19038 0.14888 0.36565 0.0
N61 N 0.19271 0.07642 0.34008 0.0
N62 N 0.13105 0.20037 0.33519 0.0
C63 C 0.24633 0.16902 0.42046 0.0
C64 C 0.10269 0.15945 0.28851 0.0
N65 N 0.13628 0.08278 0.29224 0.0
C66 C 1.04112 0.19506 0.23919 0.0
H67 H 0.21978 0.1114 0.45647 0.0
H68 H 0.23469 0.2314 0.43323 0.0
H69 H 0.33315 0.17973 0.41346 0.0
H70 H 0.06091 0.17386 0.19753 0.0
H71 H 0.05889 0.26919 0.2331 0.0
H72 H 0.95465 0.16915 0.25002 0.0
C73 C 0.081 0.13534 0.54976 0.0
N74 N 0.14234 0.17443 0.58993 0.0
N75 N 1.03204 0.04949 0.57125 0.0
C76 C 1.04756 0.18648 0.4962 0.0
C77 C 0.06178 0.03848 0.62717 0.0
N78 N 0.12595 0.11495 0.63946 0.0
C79 C 1.01806 0.95617 0.67192 0.0
H80 H 1.04075 0.14545 0.46103 0.0
H81 H 0.10139 0.25337 0.4833 0.0
H82 H 0.96798 0.19785 0.50518 0.0
H83 H 0.07394 0.9499 0.70753 0.0
H84 H 1.00237 0.89509 0.65132 0.0
H85 H 0.94162 0.96167 0.69154 0.0
C86 C 0.43541 0.45866 0.87821 0.0
N87 N 0.52912 0.44901 0.8555 0.0
N88 N 0.42579 0.54457 0.86429 0.0
C89 C 0.34486 0.38197 0.90381 0.0
C90 C 0.51453 0.58525 0.82977 0.0
N91 N 0.57454 0.52692 0.82181 0.0
C92 C 0.54063 0.68214 0.80087 0.0
H93 H 0.30989 0.34545 0.86861 0.0
H94 H 0.27991 0.40633 0.92213 0.0
H95 H 0.37252 0.3347 0.93755 0.0
H96 H 0.50497 0.72357 0.82639 0.0
H97 H 0.51042 0.68726 0.75601 0.0
H98 H 0.62736 0.71066 0.79685 0.0
C99 C 0.51655 0.47169 0.06912 0.0
N100 N 0.55417 0.54521 0.09398 0.0
N101 N 0.43403 0.41487 0.10204 0.0
C102 C 0.56324 0.45323 0.01421 0.0
C103 C 0.42733 0.45316 0.14993 0.0
N104 N 0.49856 0.53309 0.14482 0.0
C105 C 0.35865 0.40832 0.20437 0.0
H106 H 0.58084 0.51553 -0.01821 0.0
H107 H 0.50941 0.39907 -0.00396 0.0
H108 H 0.6373 0.43098 0.02389 0.0
H109 H 0.41022 0.39008 0.23997 0.0
H110 H 0.3008 0.34675 0.19708 0.0
H111 H 0.31564 0.45548 0.21916 0.0
C112 C 0.3224 0.18836 0.06079 0.0
C113 C 0.23084 0.2046 0.03146 0.0
C114 C 0.25911 0.34798 0.06635 0.0
C115 C 0.36067 0.33942 0.08487 0.0
N116 N 0.49306 0.25345 0.09697 0.0
N117 N 0.12795 0.3119 -0.00439 0.0
C118 C 0.39408 0.2604 0.08055 0.0
C119 C 0.20333 0.28771 0.03146 0.0
N120 N 0.33618 0.10353 0.07495 0.0
N121 N 0.21513 0.41328 0.08166 0.0
H122 H 0.09414 0.27522 0.96367 0.0
H123 H 0.11112 0.37481 -0.00873 0.0
H124 H 0.25294 0.46048 0.10636 0.0
H125 H 0.13648 0.41545 0.07408 0.0
H126 H 0.39978 0.08821 0.09814 0.0
H127 H 0.27673 0.04731 0.07131 0.0
H128 H 0.52674 0.20193 0.08824 0.0
H129 H 0.54356 0.30243 0.11617 0.0
C130 C 0.26565 0.71589 0.85158 0.0
C131 C 0.25677 0.72507 0.91124 0.0
C132 C 0.32276 0.59227 0.9411 0.0
C133 C 0.3434 0.58725 0.88125 0.0
N134 N 0.2936 0.61996 0.78201 0.0
N135 N 0.23294 0.65414 0.01163 0.0
C136 C 0.29935 0.6405 0.83729 0.0
C137 C 0.26966 0.6563 0.95554 0.0
N138 N 0.24775 0.78134 0.80905 0.0
N139 N 0.36031 0.54069 -0.0156 0.0
H140 H 0.19418 0.70152 0.02264 0.0
H141 H 0.23079 0.6012 0.04565 0.0
H142 H 0.39341 0.48955 -0.02317 0.0
H143 H 0.35964 0.54973 0.02779 0.0
H144 H 0.2628 0.78302 0.76441 0.0
H145 H 0.22217 0.83625 0.81924 0.0
H146 H 0.25706 0.65279 0.74839 0.0
H147 H 0.31807 0.56442 0.77194 0.0
C148 C 0.798 0.69675 0.01001 0.0
C149 C 0.77734 0.78303 0.00835 0.0
C150 C 0.60227 0.70916 0.05648 0.0
C151 C 0.63115 0.6262 0.06737 0.0
N152 N 0.76726 0.5469 0.06732 0.0
N153 N 0.66779 0.86627 0.05374 0.0
C154 C 0.73352 0.62224 0.04816 0.0
C155 C 0.6817 0.78855 0.038 0.0
N156 N 0.87502 0.68504 -0.02678 0.0
N157 N 0.49888 0.71293 0.06236 0.0
H158 H 0.72718 0.92435 0.05151 0.0
H159 H 0.60085 0.86861 0.07855 0.0
H160 H 0.47341 0.77173 0.05028 0.0
H161 H 0.4383 0.65569 0.07257 0.0
H162 H 0.89567 0.6244 -0.02659 0.0
H163 H 0.90808 0.73348 0.93728 0.0
H164 H 0.84372 0.53955 0.05861 0.0
H165 H 0.84372 0.53955 0.05861 0.0
C166 C 0.58727 0.2258 0.92051 0.0
C167 C 0.68957 0.25373 0.94148 0.0
C168 C 0.68927 0.40922 0.90332 0.0
C169 C 0.58758 0.38215 0.87965 0.0
N170 N 0.46301 0.25946 0.84846 0.0
N171 N 0.85123 0.36777 0.93579 0.0
C172 C 0.54314 0.28877 0.88318 0.0
C173 C 0.74509 0.34408 0.92676 0.0
N174 N 0.531 0.13961 0.93728 0.0
N175 N 0.72894 0.49605 0.90915 0.0
H176 H 0.89381 0.32115 0.95289 0.0
H177 H 0.8987 0.43136 0.92047 0.0
H178 H 0.68451 0.54389 0.9025 0.0
H179 H 0.79902 0.51725 0.92964 0.0
H180 H 0.45137 0.11775 0.92823 0.0
H181 H 0.5621 0.09224 0.96406 0.0
H182 H 0.43743 0.19247 0.84432 0.0
H183 H 0.4323 0.30294 0.8187 0.0
C184 C 0.82556 0.92776 0.48005 0.0
C185 C 0.86092 0.84833 0.47774 0.0
C186 C 1.02156 0.91375 0.52658 0.0
C187 C 0.9741 0.98209 0.53943 0.0
N188 N 0.82051 0.04387 0.53769 0.0
N189 N 1.00088 0.76816 0.50029 0.0
C190 C 0.87313 0.98647 0.51859 0.0
C191 C 0.96156 0.84212 0.50102 0.0
N192 N 0.74814 0.9481 0.44458 0.0
N193 N 0.12585 0.91843 0.5374 0.0
H194 H 0.98104 0.72457 0.47036 0.0
H195 H 0.0588 0.75263 0.52832 0.0
H196 H 0.17199 0.96918 0.55649 0.0
H197 H 0.1688 0.87625 0.52318 0.0
H198 H 0.72121 1.00627 0.44368 0.0
H199 H 0.72098 0.91238 0.41095 0.0
H200 H 0.74248 0.04473 0.52759 0.0
H201 H 0.85144 0.08359 0.5687 0.0
C202 C 0.91747 0.30804 0.38207 0.0
C203 C 0.97889 0.39084 0.39352 0.0
C204 C 0.14184 0.35137 0.36013 0.0
C205 C 0.08092 0.26515 0.35547 0.0
N206 N 0.91431 0.15506 0.37395 0.0
N207 N 0.14973 0.49361 0.39261 0.0
C208 C 0.96953 0.242 0.36934 0.0
C209 C 0.09164 0.41281 0.38251 0.0
N210 N 0.80968 0.29441 0.37917 0.0
N211 N 0.24787 0.3729 0.34407 0.0
H212 H 0.11866 0.53386 0.41674 0.0
H213 H 0.22888 0.52064 0.37886 0.0
H214 H 0.28454 0.32844 0.32731 0.0
H215 H 0.29998 0.43393 0.3461 0.0
H216 H 0.76238 0.23906 0.36455 0.0
H217 H 0.7685 0.34273 0.38473 0.0
H218 H 0.83482 0.13298 0.3886 0.0
H219 H 0.95147 0.10334 0.37076 0.0
C220 C 0.42408 0.29787 0.53152 0.0
C221 C 0.41052 0.38699 0.51534 0.0
C222 C 0.229 0.33525 0.56352 0.0
C223 C 0.23796 0.24608 0.57333 0.0
N224 N 0.33924 0.14016 0.55633 0.0
N225 N 0.27906 0.47625 0.49879 0.0
C226 C 0.33417 0.22693 0.55427 0.0
C227 C 0.30692 0.40156 0.52667 0.0
N228 N 0.52179 0.27929 0.52765 0.0
N229 N 0.14318 0.35608 0.58766 0.0
H230 H 0.32365 0.51833 0.46307 0.0
H231 H 0.20473 0.48924 0.50499 0.0
H232 H 0.08438 0.30787 0.61361 0.0
H233 H 0.1366 0.4216 0.58708 0.0
H234 H 0.53651 0.21842 0.54685 0.0
H235 H 0.5904 0.32443 0.50913 0.0
H236 H 0.39958 0.12116 0.53486 0.0
H237 H 0.27981 0.08723 0.57724 0.0
C238 C 0.22769 0.84736 0.40795 0.0
C239 C 0.3281 0.87256 0.43242 0.0
C240 C 0.35065 1.02346 0.37659 0.0
C241 C 0.24183 1.00397 0.36369 0.0
N242 N 0.07538 0.89974 0.36784 0.0
N243 N 0.48103 0.98899 0.44476 0.0
C244 C 0.18005 0.91559 0.37932 0.0
C245 C 0.389 0.96179 0.41758 0.0
N246 N 0.1808 0.75891 0.41003 0.0
N247 N 0.41767 0.10027 0.34876 0.0
H248 H 0.50887 0.94668 0.47721 0.0
H249 H 0.52344 0.05557 0.43929 0.0
H250 H 0.39105 0.14686 0.31874 0.0
H251 H 0.49984 0.11395 0.35237 0.0
H252 H 0.11365 0.73614 0.38732 0.0
H253 H 0.21574 0.70828 0.42947 0.0
H254 H 1.02146 0.83789 0.37845 0.0
H255 H 1.02146 0.83789 0.37845 0.0
C256 C 0.13073 0.93276 0.1792 0.0
C257 C 1.02521 0.92926 0.16206 0.0
C258 C 0.98914 0.98216 0.25217 0.0
C259 C 0.10002 1.01556 0.25574 0.0
N260 N 0.27875 1.02157 0.22211 0.0
N261 N 0.84486 0.92118 0.19225 0.0
C262 C 0.17206 0.9887 0.22016 0.0
C263 C 0.95049 0.94301 0.20259 0.0
N264 N 0.19049 0.88365 0.15617 0.0
N265 N 0.92432 0.99044 0.29674 0.0
H266 H 0.81689 0.88482 0.15899 0.0
H267 H 0.78604 0.93868 0.21581 0.0
H268 H 0.84218 0.96519 0.30045 0.0
H269 H 0.84218 0.96519 0.30045 0.0
H270 H 0.26641 0.88104 0.16964 0.0
H271 H 0.15788 0.83683 0.12966 0.0
H272 H 0.33436 1.00724 0.19441 0.0
H273 H 0.3104 0.06933 0.24787 0.0
C274 C 1.00832 0.15168 0.78042 0.0
C275 C 0.07486 0.11315 0.81946 0.0
C276 C 0.20069 0.12361 0.73617 0.0
C277 C 0.1212 0.13815 0.69741 0.0
N278 N 0.94753 0.16722 0.68177 0.0
N279 N 0.24922 0.08565 0.83598 0.0
C280 C 1.02547 0.15473 0.71918 0.0
C281 C 0.1765 0.10764 0.79767 0.0
N282 N 0.93136 0.18762 0.80098 0.0
N283 N 0.29886 0.12436 0.71372 0.0
H284 H 0.24422 0.09144 0.88019 0.0
H285 H 0.31422 0.06231 0.82406 0.0
H286 H 0.31637 0.13538 0.66875 0.0
H287 H 0.3645 0.12144 0.73882 0.0
H288 H 0.88561 0.22181 0.77356 0.0
H289 H 0.92436 0.19602 0.84449 0.0
H290 H 0.87069 0.16678 0.69604 0.0
H291 H 0.95767 0.17275 0.63646 0.0
C292 C 0.60466 0.48556 0.66851 0.0
C293 C 0.68441 0.56136 0.64478 0.0
C294 C 0.71875 0.59544 0.74336 0.0
C295 C 0.62345 0.53085 0.76461 0.0
N296 N 0.46218 0.43475 0.74272 0.0
N297 N 0.82025 0.68998 0.65767 0.0
C298 C 0.56366 0.48002 0.72579 0.0
C299 C 0.74381 0.61625 0.68174 0.0
N300 N 0.56708 0.41981 0.63627 0.0
N301 N 0.7828 0.63857 0.7813 0.0
H302 H 0.8421 0.70404 0.61285 0.0
H303 H 0.8582 0.73871 0.68142 0.0
H304 H 0.76148 0.63115 0.82556 0.0
H305 H 0.85836 0.67905 0.76914 0.0
H306 H 0.51311 0.36017 0.65373 0.0
H307 H 0.60094 0.4201 0.59509 0.0
H308 H 0.40852 0.40293 0.71502 0.0
H309 H 0.40852 0.40293 0.71502 0.0
C310 C 0.60982 0.54204 0.28903 0.0
C311 C 0.57532 0.61392 0.30841 0.0
C312 C 0.48275 0.63145 0.21767 0.0
C313 C 0.53583 0.5728 0.19492 0.0
N314 N 0.66588 0.48358 0.20711 0.0
N315 N 0.49522 0.73993 0.28301 0.0
C316 C 0.60798 0.53493 0.22931 0.0
C317 C 0.51717 0.66337 0.27018 0.0
N318 N 0.63113 0.47341 0.32797 0.0
N319 N 0.39472 0.65088 0.1923 0.0
H320 H 0.52398 0.76799 0.3194 0.0
H321 H 0.45854 0.78023 0.2538 0.0
H322 H 0.35964 0.61933 0.15849 0.0
H323 H 0.34934 0.68852 0.2101 0.0
H324 H 0.64901 0.41706 0.31512 0.0
H325 H 0.61282 0.4645 0.37272 0.0
H326 H 0.72657 0.46169 0.2299 0.0
H327 H 0.65835 0.46779 0.16504 0.0
loop_
_geom_bond_atom_site_label_1
_geom_bond_atom_site_label_2
_geom_bond_distance
_geom_bond_site_symmetry_2
_ccdc_geom_bond_type
Co0 N5 2.057 1_554 S
Co0 O17 2.021 . S
Co0 O20 2.062 1_455 S
Co0 O24 2.117 1_564 S
Co0 O25 2.020 1_565 S
C1 O21 1.259 1_455 S
C1 O24 1.258 . S
Co2 N11 2.057 1_556 S
Co2 O18 2.117 1_556 S
Co2 O19 2.020 1_546 S
Co2 O21 2.021 . S
Co2 O26 2.062 1_655 S
C3 N5 1.316 1_554 S
C3 N6 1.347 . S
C3 H8 0.931 . S
C4 N5 1.375 . S
C4 C7 1.350 . S
C4 H9 0.930 . S
N5 Co0 2.057 1_556 S
N5 C3 1.316 1_556 S
N5 C4 1.375 . S
N6 C3 1.347 . S
N6 C7 1.373 1_554 S
C7 C4 1.350 . S
C7 N6 1.373 1_556 S
C7 H28 0.931 . S
H8 C3 0.931 . S
H9 C4 0.930 . S
C10 O17 1.259 1_545 S
C10 O18 1.258 1_455 S
N11 Co2 2.057 1_554 S
N11 C12 1.316 1_554 S
N11 C13 1.375 . S
C12 N11 1.316 1_556 S
C12 N14 1.347 1_556 S
C12 H23 0.931 . S
C13 N11 1.375 . S
C13 C15 1.350 . S
C13 H22 0.930 . S
N14 C12 1.347 1_554 S
N14 C15 1.373 . S
C15 C13 1.350 . S
C15 N14 1.373 . S
C15 H29 0.931 . S
C16 O19 1.256 . S
C16 O20 1.255 . S
O17 Co0 2.021 . S
O17 C10 1.259 1_565 S
O18 Co2 2.117 1_554 S
O18 C10 1.258 1_655 S
O19 Co2 2.020 1_564 S
O19 C16 1.256 . S
O20 Co0 2.062 1_655 S
O20 C16 1.255 . S
O21 C1 1.259 1_655 S
O21 Co2 2.021 . S
H22 C13 0.930 . S
H23 C12 0.931 . S
O24 Co0 2.117 1_546 S
O24 C1 1.258 . S
O25 Co0 2.020 1_545 S
O25 C27 1.256 1_554 S
O26 Co2 2.062 1_455 S
O26 C27 1.255 . S
C27 O25 1.256 1_556 S
C27 O26 1.255 . S
H28 C7 0.931 . S
H29 C15 0.931 . S
Co30 N35 2.057 . S
Co30 O47 2.021 . S
Co30 O50 2.062 . S
Co30 O54 2.117 . S
Co30 O55 2.020 . S
C31 O51 1.259 . S
C31 O54 1.258 . S
Co32 N41 2.057 . S
Co32 O48 2.117 . S
Co32 O49 2.020 . S
Co32 O51 2.021 . S
Co32 O56 2.062 . S
C33 N35 1.316 . S
C33 N36 1.347 . S
C33 H38 0.931 . S
C34 N35 1.375 . S
C34 C37 1.350 . S
C34 H39 0.930 . S
N35 Co30 2.057 . S
N35 C33 1.316 . S
N35 C34 1.375 . S
N36 C33 1.347 . S
N36 C37 1.373 . S
C37 C34 1.350 . S
C37 N36 1.373 . S
C37 H58 0.931 . S
H38 C33 0.931 . S
H39 C34 0.930 . S
C40 O47 1.259 . S
C40 O48 1.258 . S
N41 Co32 2.057 . S
N41 C42 1.316 . S
N41 C43 1.375 . S
C42 N41 1.316 . S
C42 N44 1.347 . S
C42 H53 0.931 . S
C43 N41 1.375 . S
C43 C45 1.350 . S
C43 H52 0.930 . S
N44 C42 1.347 . S
N44 C45 1.373 . S
C45 C43 1.350 . S
C45 N44 1.373 . S
C45 H59 0.931 . S
C46 O49 1.256 . S
C46 O50 1.255 . S
O47 Co30 2.021 . S
O47 C40 1.259 . S
O48 Co32 2.117 . S
O48 C40 1.258 . S
O49 Co32 2.020 . S
O49 C46 1.256 . S
O50 Co30 2.062 . S
O50 C46 1.255 . S
O51 C31 1.259 . S
O51 Co32 2.021 . S
H52 C43 0.930 . S
H53 C42 0.931 . S
O54 Co30 2.117 . S
O54 C31 1.258 . S
O55 Co30 2.020 . S
O55 C57 1.256 . S
O56 Co32 2.062 . S
O56 C57 1.255 . S
C57 O55 1.256 . S
C57 O56 1.255 . S
H58 C37 0.931 . S
H59 C45 0.931 . S
C60 N61 1.317 1_545 S
C60 N62 1.348 1_455 S
C60 C63 1.485 1_545 S
N61 C60 1.317 1_565 S
N61 N65 1.374 . S
N62 C60 1.348 1_655 S
N62 C64 1.346 . S
C63 C60 1.485 1_565 S
C63 H67 0.960 1_455 S
C63 H68 0.961 1_565 S
C63 H69 0.960 . S
C64 N62 1.346 . S
C64 N65 1.297 1_645 S
C64 C66 1.486 . S
N65 N61 1.374 . S
N65 C64 1.297 1_465 S
C66 C64 1.486 . S
C66 H70 0.960 . S
C66 H71 0.960 . S
C66 H72 0.959 . S
H67 C63 0.960 1_655 S
H68 C63 0.961 1_545 S
H69 C63 0.960 . S
H70 C66 0.960 . S
H71 C66 0.960 . S
H72 C66 0.959 . S
C73 N74 1.317 . S
C73 N75 1.348 1_445 S
C73 C76 1.485 . S
N74 C73 1.317 . S
N74 N78 1.370 . S
N75 C73 1.348 1_665 S
N75 C77 1.346 . S
C76 C73 1.485 . S
C76 H80 0.957 1_455 S
C76 H81 0.961 . S
C76 H82 0.960 . S
C77 N75 1.346 . S
C77 N78 1.307 1_665 S
C77 C79 1.486 . S
N78 N74 1.370 . S
N78 C77 1.307 1_445 S
C79 C77 1.486 . S
C79 H83 0.960 . S
C79 H84 0.960 . S
C79 H85 0.959 . S
H80 C76 0.957 1_655 S
H81 C76 0.961 . S
H82 C76 0.960 . S
H83 C79 0.960 . S
H84 C79 0.960 . S
H85 C79 0.959 . S
C86 N87 1.317 . S
C86 N88 1.348 . S
C86 C89 1.485 1_556 S
N87 C86 1.317 . S
N87 N91 1.370 . S
N88 C86 1.348 . S
N88 C90 1.346 . S
C89 C86 1.485 1_554 S
C89 H93 0.960 . S
C89 H94 0.961 . S
C89 H95 0.960 . S
C90 N88 1.346 . S
C90 N91 1.307 . S
C90 C92 1.486 . S
N91 N87 1.370 . S
N91 C90 1.307 . S
C92 C90 1.486 . S
C92 H96 0.960 . S
C92 H97 0.960 . S
C92 H98 0.959 . S
H93 C89 0.960 . S
H94 C89 0.961 . S
H95 C89 0.960 . S
H96 C92 0.960 . S
H97 C92 0.960 . S
H98 C92 0.959 . S
C99 N100 1.317 . S
C99 N101 1.348 . S
C99 C102 1.485 1_554 S
N100 C99 1.317 . S
N100 N104 1.370 . S
N101 C99 1.348 . S
N101 C103 1.346 . S
C102 C99 1.485 1_556 S
C102 H106 0.960 . S
C102 H107 0.961 . S
C102 H108 0.960 . S
C103 N101 1.346 . S
C103 N104 1.307 . S
C103 C105 1.486 . S
N104 N100 1.370 . S
N104 C103 1.307 . S
C105 C103 1.486 . S
C105 H109 0.960 . S
C105 H110 0.960 . S
C105 H111 0.959 . S
H106 C102 0.960 . S
H107 C102 0.961 . S
H108 C102 0.960 . S
H109 C105 0.960 . S
H110 C105 0.960 . S
H111 C105 0.959 . S
C112 C113 1.372 . S
C112 C118 1.379 . S
C112 N120 1.356 . S
C113 C112 1.372 . S
C113 C119 1.357 1_554 S
C114 C115 1.363 1_556 S
C114 C119 1.379 . S
C114 N121 1.356 . S
C115 C114 1.363 1_554 S
C115 C118 1.363 . S
N116 C118 1.356 . S
N116 H128 0.984 . S
N116 H129 0.985 . S
N117 C119 1.356 . S
N117 H122 0.984 . S
N117 H123 0.985 . S
C118 C112 1.379 . S
C118 C115 1.363 . S
C118 N116 1.356 . S
C119 C113 1.357 1_556 S
C119 C114 1.379 . S
C119 N117 1.356 . S
N120 C112 1.356 . S
N120 H126 0.984 . S
N120 H127 0.984 . S
N121 C114 1.356 . S
N121 H124 0.984 . S
N121 H125 0.985 . S
H122 N117 0.984 . S
H123 N117 0.985 . S
H124 N121 0.984 . S
H125 N121 0.985 . S
H126 N120 0.984 . S
H127 N120 0.984 . S
H128 N116 0.984 . S
H129 N116 0.985 . S
C130 C131 1.363 1_556 S
C130 C136 1.379 . S
C130 N138 1.356 . S
C131 C130 1.363 1_554 S
C131 C137 1.363 . S
C132 C133 1.363 1_554 S
C132 C137 1.379 . S
C132 N139 1.356 . S
C133 C132 1.363 1_556 S
C133 C136 1.363 . S
N134 C136 1.356 . S
N134 H146 0.984 . S
N134 H147 0.985 . S
N135 C137 1.356 . S
N135 H140 0.984 . S
N135 H141 0.985 . S
C136 C130 1.379 . S
C136 C133 1.363 . S
C136 N134 1.356 . S
C137 C131 1.363 . S
C137 C132 1.379 . S
C137 N135 1.356 . S
N138 C130 1.356 . S
N138 H144 0.984 . S
N138 H145 0.984 . S
N139 C132 1.356 . S
N139 H142 0.984 . S
N139 H143 0.985 . S
H140 N135 0.984 . S
H141 N135 0.985 . S
H142 N139 0.984 . S
H143 N139 0.985 . S
H144 N138 0.984 . S
H145 N138 0.984 . S
H146 N134 0.984 . S
H147 N134 0.985 . S
C148 C149 1.363 . S
C148 C154 1.379 . S
C148 N156 1.356 1_554 S
C149 C148 1.363 . S
C149 C155 1.363 . S
C150 C151 1.363 . S
C150 C155 1.379 . S
C150 N157 1.356 . S
C151 C150 1.363 . S
C151 C154 1.363 . S
N152 C154 1.358 . S
N152 H164 0.982 1_554 S
N152 H165 0.985 . S
N153 C155 1.356 . S
N153 H158 0.984 . S
N153 H159 0.985 . S
C154 C148 1.379 . S
C154 C151 1.363 . S
C154 N152 1.358 . S
C155 C149 1.363 . S
C155 C150 1.379 . S
C155 N153 1.356 . S
N156 C148 1.356 1_556 S
N156 H162 0.984 . S
N156 H163 0.984 . S
N157 C150 1.356 . S
N157 H160 0.984 . S
N157 H161 0.985 . S
H158 N153 0.984 . S
H159 N153 0.985 . S
H160 N157 0.984 . S
H161 N157 0.985 . S
H162 N156 0.984 . S
H163 N156 0.984 . S
H164 N152 0.982 1_556 S
H165 N152 0.985 . S
C166 C167 1.363 1_554 S
C166 C172 1.379 . S
C166 N174 1.356 . S
C167 C166 1.363 1_556 S
C167 C173 1.363 . S
C168 C169 1.363 . S
C168 C173 1.379 . S
C168 N175 1.356 . S
C169 C168 1.363 . S
C169 C172 1.363 1_556 S
N170 C172 1.356 . S
N170 H182 0.984 . S
N170 H183 0.985 . S
N171 C173 1.356 . S
N171 H176 0.984 . S
N171 H177 0.985 . S
C172 C166 1.379 . S
C172 C169 1.363 1_554 S
C172 N170 1.356 . S
C173 C167 1.363 . S
C173 C168 1.379 . S
C173 N171 1.356 . S
N174 C166 1.356 . S
N174 H180 0.984 . S
N174 H181 0.984 . S
N175 C168 1.356 . S
N175 H178 0.984 . S
N175 H179 0.985 . S
H176 N171 0.984 . S
H177 N171 0.985 . S
H178 N175 0.984 . S
H179 N175 0.985 . S
H180 N174 0.984 . S
H181 N174 0.984 . S
H182 N170 0.984 . S
H183 N170 0.985 . S
C184 C185 1.363 . S
C184 C190 1.379 . S
C184 N192 1.356 . S
C185 C184 1.363 . S
C185 C191 1.363 . S
C186 C187 1.363 . S
C186 C191 1.379 . S
C186 N193 1.356 . S
C187 C186 1.363 . S
C187 C190 1.363 . S
N188 C190 1.356 . S
N188 H200 0.984 . S
N188 H201 0.985 . S
N189 C191 1.356 . S
N189 H194 0.984 . S
N189 H195 0.985 . S
C190 C184 1.379 . S
C190 C187 1.363 . S
C190 N188 1.356 . S
C191 C185 1.363 . S
C191 C186 1.379 . S
C191 N189 1.356 . S
N192 C184 1.356 . S
N192 H198 0.984 . S
N192 H199 0.984 . S
N193 C186 1.356 . S
N193 H196 0.984 . S
N193 H197 0.985 . S
H194 N189 0.984 . S
H195 N189 0.985 . S
H196 N193 0.984 . S
H197 N193 0.985 . S
H198 N192 0.984 . S
H199 N192 0.984 . S
H200 N188 0.984 . S
H201 N188 0.985 . S
C202 C203 1.363 . S
C202 C208 1.379 . S
C202 N210 1.356 . S
C203 C202 1.363 . S
C203 C209 1.363 . S
C204 C205 1.363 . S
C204 C209 1.379 . S
C204 N211 1.356 . S
C205 C204 1.363 . S
C205 C208 1.363 . S
N206 C208 1.356 . S
N206 H218 0.984 . S
N206 H219 0.985 1_545 S
N207 C209 1.356 . S
N207 H212 0.984 . S
N207 H213 0.985 . S
C208 C202 1.379 . S
C208 C205 1.363 . S
C208 N206 1.356 . S
C209 C203 1.363 . S
C209 C204 1.379 . S
C209 N207 1.356 . S
N210 C202 1.356 . S
N210 H216 0.984 . S
N210 H217 0.984 . S
N211 C204 1.356 . S
N211 H214 0.984 . S
N211 H215 0.985 . S
H212 N207 0.984 . S
H213 N207 0.985 . S
H214 N211 0.984 . S
H215 N211 0.985 . S
H216 N210 0.984 . S
H217 N210 0.984 . S
H218 N206 0.984 . S
H219 N206 0.985 1_565 S
C220 C221 1.363 . S
C220 C226 1.379 . S
C220 N228 1.356 . S
C221 C220 1.363 . S
C221 C227 1.363 . S
C222 C223 1.363 . S
C222 C227 1.379 . S
C222 N229 1.356 . S
C223 C222 1.363 . S
C223 C226 1.363 . S
N224 C226 1.356 . S
N224 H236 0.984 . S
N224 H237 0.985 . S
N225 C227 1.356 . S
N225 H230 0.984 . S
N225 H231 0.985 . S
C226 C220 1.379 . S
C226 C223 1.363 . S
C226 N224 1.356 . S
C227 C221 1.363 . S
C227 C222 1.379 . S
C227 N225 1.356 . S
N228 C220 1.356 . S
N228 H234 0.984 . S
N228 H235 0.984 . S
N229 C222 1.356 . S
N229 H232 0.984 . S
N229 H233 0.985 . S
H230 N225 0.984 . S
H231 N225 0.985 . S
H232 N229 0.984 . S
H233 N229 0.985 . S
H234 N228 0.984 . S
H235 N228 0.984 . S
H236 N224 0.984 . S
H237 N224 0.985 . S
C238 C239 1.363 . S
C238 C244 1.379 . S
C238 N246 1.356 . S
C239 C238 1.363 . S
C239 C245 1.363 . S
C240 C241 1.363 . S
C240 C245 1.379 . S
C240 N247 1.356 1_565 S
C241 C240 1.363 . S
C241 C244 1.363 . S
N242 C244 1.356 1_655 S
N242 H254 0.984 . S
N242 H255 0.985 . S
N243 C245 1.356 . S
N243 H248 0.984 . S
N243 H249 0.985 . S
C244 C238 1.379 . S
C244 C241 1.363 . S
C244 N242 1.356 1_455 S
C245 C239 1.363 . S
C245 C240 1.379 . S
C245 N243 1.356 . S
N246 C238 1.356 . S
N246 H252 0.984 . S
N246 H253 0.984 . S
N247 C240 1.356 1_545 S
N247 H250 0.984 . S
N247 H251 0.985 . S
H248 N243 0.984 . S
H249 N243 0.985 . S
H250 N247 0.984 . S
H251 N247 0.985 . S
H252 N246 0.984 . S
H253 N246 0.984 . S
H254 N242 0.984 . S
H255 N242 0.985 . S
C256 C257 1.363 1_545 S
C256 C262 1.379 . S
C256 N264 1.356 . S
C257 C256 1.363 1_565 S
C257 C263 1.363 1_455 S
C258 C259 1.363 1_655 S
C258 C263 1.379 . S
C258 N265 1.356 . S
C259 C258 1.363 1_455 S
C259 C262 1.363 1_565 S
N260 C262 1.356 . S
N260 H272 0.984 . S
N260 H273 0.985 . S
N261 C263 1.356 . S
N261 H266 0.984 . S
N261 H267 0.985 . S
C262 C256 1.379 . S
C262 C259 1.363 1_545 S
C262 N260 1.356 . S
C263 C257 1.363 1_655 S
C263 C258 1.379 . S
C263 N261 1.356 . S
N264 C256 1.356 . S
N264 H270 0.984 . S
N264 H271 0.984 . S
N265 C258 1.356 . S
N265 H268 0.984 . S
N265 H269 0.985 . S
H266 N261 0.984 . S
H267 N261 0.985 . S
H268 N265 0.984 . S
H269 N265 0.985 . S
H270 N264 0.984 . S
H271 N264 0.984 . S
H272 N260 0.984 . S
H273 N260 0.985 . S
C274 C275 1.363 1_655 S
C274 C280 1.379 . S
C274 N282 1.356 . S
C275 C274 1.363 1_455 S
C275 C281 1.363 . S
C276 C277 1.363 . S
C276 C281 1.379 . S
C276 N283 1.356 1_545 S
C277 C276 1.363 . S
C277 C280 1.363 1_455 S
N278 C280 1.356 . S
N278 H290 0.984 . S
N278 H291 0.985 . S
N279 C281 1.356 1_565 S
N279 H284 0.984 . S
N279 H285 0.985 . S
C280 C274 1.379 . S
C280 C277 1.363 1_655 S
C280 N278 1.356 . S
C281 C275 1.363 . S
C281 C276 1.379 . S
C281 N279 1.356 1_545 S
N282 C274 1.356 . S
N282 H288 0.984 . S
N282 H289 0.984 . S
N283 C276 1.356 1_565 S
N283 H286 0.984 . S
N283 H287 0.985 . S
H284 N279 0.984 . S
H285 N279 0.985 . S
H286 N283 0.984 . S
H287 N283 0.985 . S
H288 N282 0.984 . S
H289 N282 0.984 . S
H290 N278 0.984 . S
H291 N278 0.985 . S
C292 C293 1.363 . S
C292 C298 1.379 . S
C292 N300 1.356 . S
C293 C292 1.363 . S
C293 C299 1.363 . S
C294 C295 1.363 . S
C294 C299 1.379 . S
C294 N301 1.356 . S
C295 C294 1.363 . S
C295 C298 1.363 . S
N296 C298 1.356 . S
N296 H308 0.984 . S
N296 H309 0.985 . S
N297 C299 1.356 . S
N297 H302 0.984 . S
N297 H303 0.985 . S
C298 C292 1.379 . S
C298 C295 1.363 . S
C298 N296 1.356 . S
C299 C293 1.363 . S
C299 C294 1.379 . S
C299 N297 1.356 . S
N300 C292 1.356 . S
N300 H306 0.984 . S
N300 H307 0.984 . S
N301 C294 1.356 . S
N301 H304 0.984 . S
N301 H305 0.985 . S
H302 N297 0.984 . S
H303 N297 0.985 . S
H304 N301 0.984 . S
H305 N301 0.985 . S
H306 N300 0.984 . S
H307 N300 0.984 . S
H308 N296 0.984 . S
H309 N296 0.985 . S
C310 C311 1.363 . S
C310 C316 1.379 . S
C310 N318 1.356 . S
C311 C310 1.363 . S
C311 C317 1.363 . S
C312 C313 1.363 . S
C312 C317 1.379 . S
C312 N319 1.356 . S
C313 C312 1.363 . S
C313 C316 1.363 . S
N314 C316 1.356 . S
N314 H326 0.984 . S
N314 H327 0.985 . S
N315 C317 1.356 . S
N315 H320 0.984 . S
N315 H321 0.985 . S
C316 C310 1.379 . S
C316 C313 1.363 . S
C316 N314 1.356 . S
C317 C311 1.363 . S
C317 C312 1.379 . S
C317 N315 1.356 . S
N318 C310 1.356 . S
N318 H324 0.984 . S
N318 H325 0.984 . S
N319 C312 1.356 . S
N319 H322 0.984 . S
N319 H323 0.985 . S
H320 N315 0.984 . S
H321 N315 0.985 . S
H322 N319 0.984 . S
H323 N319 0.985 . S
H324 N318 0.984 . S
H325 N318 0.984 . S
H326 N314 0.984 . S
H327 N314 0.985 . S
C115 N101 1.449 . S
C113 C27 1.462 1_554 S
C131 N6 1.394 . S
C133 N88 1.458 . S
C149 C16 1.496 . S
C151 N100 1.494 . S
C167 N14 1.439 1_556 S
C169 N87 1.466 . S
C185 C57 1.464 . S
C187 N75 1.449 . S
C203 N36 1.394 . S
C205 N62 1.459 . S
C223 N74 1.494 . S
C221 C46 1.496 . S
C241 N61 1.466 . S
C239 N44 1.438 . S
C257 C10 1.471 1_565 S
C259 N65 1.453 . S
C275 C1 1.559 . S
C277 N78 1.539 . S
C295 N91 1.450 . S
C293 C40 1.471 . S
C311 C31 1.559 . S
C313 N104 1.538 . S
