# Generated by pormake.
# Topology pyr, (3,6)-cn, num edge types: 1
# Building blocks:
#     Node 0, Type 0, BuildingBlock: QEWDON_clean_linker_0, # of connection points: 3
#     Node 1, Type 0, BuildingBlock: QEWDON_clean_linker_0, # of connection points: 3
#     Node 2, Type 0, BuildingBlock: QEWDON_clean_linker_0, # of connection points: 3
#     Node 3, Type 0, BuildingBlock: QEWDON_clean_linker_0, # of connection points: 3
#     Node 4, Type 0, BuildingBlock: QEWDON_clean_linker_0, # of connection points: 3
#     Node 5, Type 0, BuildingBlock: QEWDON_clean_linker_0, # of connection points: 3
#     Node 6, Type 0, BuildingBlock: QEWDON_clean_linker_0, # of connection points: 3
#     Node 7, Type 0, BuildingBlock: QEWDON_clean_linker_0, # of connection points: 3
#     Node 8, Type 1, BuildingBlock: FUNLAD_clean_sbu_0, # of connection points: 6
#     Node 9, Type 1, BuildingBlock: FUNLAD_clean_sbu_0, # of connection points: 6
#     Node 10, Type 1, BuildingBlock: FUNLAD_clean_sbu_0, # of connection points: 6
#     Node 11, Type 1, BuildingBlock: FUNLAD_clean_sbu_0, # of connection points: 6
#     Edge 12, Type (0, 1), BuildingBlock: TEMPAE_clean_linker_10, # of connection points: 2
#     Edge 13, Type (0, 1), BuildingBlock: TEMPAE_clean_linker_10, # of connection points: 2
#     Edge 14, Type (0, 1), BuildingBlock: TEMPAE_clean_linker_10, # of connection points: 2
#     Edge 15, Type (0, 1), BuildingBlock: TEMPAE_clean_linker_10, # of connection points: 2
#     Edge 16, Type (0, 1), BuildingBlock: TEMPAE_clean_linker_10, # of connection points: 2
#     Edge 17, Type (0, 1), BuildingBlock: TEMPAE_clean_linker_10, # of connection points: 2
#     Edge 18, Type (0, 1), BuildingBlock: TEMPAE_clean_linker_10, # of connection points: 2
#     Edge 19, Type (0, 1), BuildingBlock: TEMPAE_clean_linker_10, # of connection points: 2
#     Edge 20, Type (0, 1), BuildingBlock: TEMPAE_clean_linker_10, # of connection points: 2
#     Edge 21, Type (0, 1), BuildingBlock: TEMPAE_clean_linker_10, # of connection points: 2
#     Edge 22, Type (0, 1), BuildingBlock: TEMPAE_clean_linker_10, # of connection points: 2
#     Edge 23, Type (0, 1), BuildingBlock: TEMPAE_clean_linker_10, # of connection points: 2
#     Edge 24, Type (0, 1), BuildingBlock: TEMPAE_clean_linker_10, # of connection points: 2
#     Edge 25, Type (0, 1), BuildingBlock: TEMPAE_clean_linker_10, # of connection points: 2
#     Edge 26, Type (0, 1), BuildingBlock: TEMPAE_clean_linker_10, # of connection points: 2
#     Edge 27, Type (0, 1), BuildingBlock: TEMPAE_clean_linker_10, # of connection points: 2
#     Edge 28, Type (0, 1), BuildingBlock: TEMPAE_clean_linker_10, # of connection points: 2
#     Edge 29, Type (0, 1), BuildingBlock: TEMPAE_clean_linker_10, # of connection points: 2
#     Edge 30, Type (0, 1), BuildingBlock: TEMPAE_clean_linker_10, # of connection points: 2
#     Edge 31, Type (0, 1), BuildingBlock: TEMPAE_clean_linker_10, # of connection points: 2
#     Edge 32, Type (0, 1), BuildingBlock: TEMPAE_clean_linker_10, # of connection points: 2
#     Edge 33, Type (0, 1), BuildingBlock: TEMPAE_clean_linker_10, # of connection points: 2
#     Edge 34, Type (0, 1), BuildingBlock: TEMPAE_clean_linker_10, # of connection points: 2
#     Edge 35, Type (0, 1), BuildingBlock: TEMPAE_clean_linker_10, # of connection points: 2
# Relax obj value: 0.265
# Max RMSD: 0.293
# Mean RMSD: 0.188
data_MOF--net-pry--node1-FUNLAD_clean_sbu_0--node2-QEWDON_clean_linker_0--edge1-TEMPAE_clean_linker_10
_symmetry_space_group_name_H-M    P1
_symmetry_Int_Tables_number       1
_symmetry_cell_setting            triclinic
loop_
_symmetry_equiv_pos_as_xyz
'x, y, z'
_cell_length_a     35.260088
_cell_length_b     37.947632
_cell_length_c     40.951095
_cell_angle_alpha  89.82884
_cell_angle_beta   90.528785
_cell_angle_gamma 93.563928
loop_
_atom_site_label
_atom_site_type_symbol
_atom_site_fract_x
_atom_site_fract_y
_atom_site_fract_z
_atom_type_partial_charge
H0 H 0.22122 0.24925 0.19103 0.0
C1 C 0.20718 0.23562 0.2113 0.0
C2 C 0.22003 0.20273 0.22199 0.0
C3 C 0.17886 0.25259 0.22845 0.0
H4 H 0.21253 0.16126 0.25812 0.0
C5 C 0.20302 0.18647 0.25004 0.0
C6 C 0.17369 0.20211 0.26741 0.0
C7 C 0.16217 0.23516 0.25602 0.0
C8 C 0.173 0.29143 0.22327 0.0
H9 H 0.14147 0.24869 0.26987 0.0
C10 C 0.15944 0.30699 0.1937 0.0
C11 C 0.15521 0.34433 0.19178 0.0
C12 C 0.18203 0.31377 0.24992 0.0
H13 H 0.19271 0.30315 0.27257 0.0
C14 C 0.17799 0.34994 0.24796 0.0
H15 H 0.1523 0.29046 0.17277 0.0
C16 C 0.16481 0.36501 0.21938 0.0
H17 H 0.16186 0.39327 0.21888 0.0
H18 H 0.1852 0.3665 0.26887 0.0
H19 H 0.35609 0.94938 0.80421 0.0
C20 C 0.37214 0.92896 0.79356 0.0
C21 C 0.40633 0.91921 0.8087 0.0
C22 C 0.35686 0.9116 0.76563 0.0
H23 H 0.45144 0.88266 0.80522 0.0
C24 C 0.42585 0.89146 0.79383 0.0
C25 C 0.41083 0.87339 0.76547 0.0
C26 C 0.37662 0.88448 0.75173 0.0
C27 C 0.3157 0.91394 0.75731 0.0
H28 H 0.36397 0.87065 0.7308 0.0
C29 C 0.30146 0.93611 0.73247 0.0
C30 C 0.26156 0.936 0.72618 0.0
C31 C 0.29005 0.89175 0.77501 0.0
H32 H 0.30021 0.87451 0.79389 0.0
C33 C 0.25128 0.89102 0.76845 0.0
H34 H 0.32098 0.95342 0.7187 0.0
C35 C 0.2372 0.91267 0.74433 0.0
H36 H 0.20684 0.91087 0.73971 0.0
H37 H 0.23195 0.87341 0.78211 0.0
H38 H 0.66351 0.5781 0.02988 0.0
C39 C 0.65477 0.55131 0.03698 0.0
C40 C 0.68187 0.52579 0.04025 0.0
C41 C 0.61589 0.54157 0.03972 0.0
H42 H 0.69004 0.47114 0.05145 0.0
C43 C 0.66941 0.49083 0.04782 0.0
C44 C 0.63056 0.4805 0.04914 0.0
C45 C 0.60398 0.50622 0.0456 0.0
C46 C 0.58748 0.5663 0.02954 0.0
H47 H 0.57384 0.49852 0.04524 0.0
C48 C 0.56733 0.55945 1.00047 0.0
C49 C 0.54081 0.58262 0.98884 0.0
C50 C 0.58101 0.59665 0.04754 0.0
H51 H 0.59657 0.60237 0.07003 0.0
C52 C 0.55412 0.61967 0.03647 0.0
H53 H 0.57376 0.53662 0.98611 0.0
C54 C 0.53421 0.61287 1.00716 0.0
H55 H 0.51402 0.63132 0.9987 0.0
H56 H 0.54901 0.64306 0.05043 0.0
H57 H 0.88941 0.67641 0.43785 0.0
C58 C 0.88095 0.66306 0.46022 0.0
C59 C 0.89207 0.6788 0.49001 0.0
C60 C 0.85715 0.63192 0.45904 0.0
H61 H 0.88625 0.67598 0.54224 0.0
C62 C 0.87786 0.66392 0.51914 0.0
C63 C 0.85041 0.63553 0.51857 0.0
C64 C 0.84197 0.61846 0.4886 0.0
C65 C 0.84668 0.61507 0.42681 0.0
H66 H 0.82201 0.59573 0.48818 0.0
C67 C 0.8711 0.61982 0.39981 0.0
C68 C 0.86139 0.60541 0.36899 0.0
C69 C 0.81214 0.59483 0.42235 0.0
H70 H 0.79155 0.59139 0.44166 0.0
C71 C 0.80307 0.57904 0.39235 0.0
H72 H 0.89761 0.63533 0.40257 0.0
C73 C 0.82745 0.58407 0.36591 0.0
H74 H 0.81948 0.57126 0.34307 0.0
H75 H 0.77668 0.56315 0.38943 0.0
H76 H 0.86916 0.87925 0.89823 0.0
C77 C 0.88144 0.89274 0.87709 0.0
C78 C 0.91597 0.88201 0.86426 0.0
C79 C 0.86096 0.919 0.86204 0.0
H80 H 0.95627 0.89078 0.82481 0.0
C81 C 0.93045 0.89941 0.83547 0.0
C82 C 0.9102 0.92618 0.81931 0.0
C83 C 0.87579 0.93569 0.83369 0.0
C84 C 0.81966 0.92089 0.8697 0.0
H85 H 0.85921 0.95541 0.82217 0.0
C86 C 0.805 0.94202 0.89488 0.0
C87 C 0.76497 0.94155 0.90029 0.0
C88 C 0.79426 0.8993 0.8509 0.0
H89 H 0.80468 0.88284 0.83177 0.0
C90 C 0.75544 0.8981 0.85666 0.0
H91 H 0.82427 0.9589 0.90952 0.0
C92 C 0.74098 0.91875 0.88103 0.0
H93 H 0.71058 0.9166 0.88492 0.0
H94 H 0.73635 0.88092 0.84214 0.0
H95 H 0.69586 0.23183 0.44986 0.0
C96 C 0.68847 0.22393 0.4251 0.0
C97 C 0.71109 0.20001 0.4084 0.0
C98 C 0.65534 0.23649 0.4105 0.0
H99 H 0.71502 0.1687 0.3646 0.0
C100 C 0.69922 0.18838 0.37668 0.0
C101 C 0.66603 0.20017 0.36133 0.0
C102 C 0.64561 0.22522 0.37831 0.0
C103 C 0.62573 0.25459 0.43004 0.0
H104 H 0.62054 0.23517 0.36697 0.0
C105 C 0.63187 0.28669 0.44852 0.0
C106 C 0.60076 0.30171 0.46493 0.0
C107 C 0.5888 0.23826 0.42911 0.0
H108 H 0.58294 0.21364 0.41614 0.0
C109 C 0.5587 0.25309 0.44436 0.0
H110 H 0.66006 0.29964 0.45002 0.0
C111 C 0.56442 0.28439 0.46162 0.0
H112 H 0.53978 0.29518 0.47251 0.0
H113 H 0.53049 0.2402 0.44269 0.0
H114 H 0.45914 0.65384 0.18767 0.0
C115 C 0.43429 0.64746 0.17252 0.0
C116 C 0.41687 0.67472 0.15653 0.0
C117 C 0.41902 0.61241 0.17022 0.0
H118 H 0.37153 0.68837 0.12465 0.0
C119 C 0.38512 0.6669 0.13664 0.0
C120 C 0.37035 0.63198 0.13252 0.0
C121 C 0.38723 0.60468 0.14972 0.0
C122 C 0.43549 0.58494 0.19095 0.0
H123 H 0.37526 0.57778 0.1477 0.0
C124 C 0.4469 0.5934 0.2231 0.0
C125 C 0.46572 0.56949 0.24267 0.0
C126 C 0.44123 0.55107 0.17897 0.0
H127 H 0.43284 0.5438 0.15427 0.0
C128 C 0.4589 0.5266 0.19865 0.0
H129 H 0.44088 0.61886 0.23307 0.0
C130 C 0.47135 0.53574 0.23025 0.0
H131 H 0.48579 0.51665 0.24472 0.0
H132 H 0.46354 0.50063 0.18919 0.0
H133 H 0.14927 0.49932 0.61274 0.0
C134 C 0.14471 0.48949 0.58815 0.0
C135 C 0.17643 0.48687 0.56797 0.0
C136 C 0.10819 0.4766 0.57785 0.0
H137 H 0.19616 0.46594 0.52257 0.0
C138 C 0.17165 0.47003 0.53755 0.0
C139 C 0.13595 0.45522 0.52772 0.0
C140 C 0.10408 0.46179 0.54655 0.0
C141 C 0.07589 0.47322 0.60138 0.0
H142 H 0.07634 0.45155 0.53838 0.0
C143 C 0.07449 0.49609 0.62829 0.0
C144 C 0.04825 0.48917 0.65353 0.0
C145 C 0.04825 0.4447 0.59908 0.0
H146 H 0.04859 0.42543 0.57976 0.0
C147 C 0.02048 0.43928 0.62282 0.0
H148 H 0.09463 0.51871 0.63032 0.0
C149 C 0.02072 0.46097 0.65013 0.0
H150 H 1.00046 0.4545 0.66927 0.0
H151 H 0.99976 0.41709 0.6208 0.0
C152 C 0.05362 0.09684 0.47932 0.0
N153 N 0.03886 0.14926 0.56693 0.0
C154 C 0.07565 0.16013 0.56075 0.0
C155 C 0.08525 0.19521 0.55314 0.0
C156 C 0.05688 0.21933 0.55224 0.0
C157 C 0.02028 0.20868 0.563 0.0
C158 C 1.01175 0.17302 0.57032 0.0
Zn159 Zn 0.02436 0.09919 0.55105 0.0
C160 C 0.94803 0.09756 0.51378 0.0
N161 N 0.99979 0.99957 0.50768 0.0
C162 C 0.02864 0.98279 0.49392 0.0
C163 C 0.96442 0.98358 0.51064 0.0
C164 C 0.95734 0.94874 0.50053 0.0
C165 C 0.98712 0.93031 0.48779 0.0
C166 C 0.02298 0.94777 0.484 0.0
Zn167 Zn 1.01135 0.04797 0.52706 0.0
O168 O 0.05209 0.11597 0.50473 0.0
C169 C 0.08603 0.04954 0.56535 0.0
O170 O 0.03859 0.06548 0.48099 0.0
H171 H 0.94208 0.99743 0.5219 0.0
H172 H 0.09678 0.14117 0.55721 0.0
H173 H 0.05646 0.99619 0.49165 0.0
O174 O 0.07686 0.08086 0.57066 0.0
O175 O 0.06462 0.03007 0.54671 0.0
H176 H 0.98264 0.16394 0.57504 0.0
O177 O 0.9856 0.03012 0.57352 0.0
O178 O 0.99751 0.08114 0.59766 0.0
O179 O 0.95695 0.06608 0.50812 0.0
O180 O 0.97072 0.11698 0.53142 0.0
C181 C 0.98509 0.0487 0.5995 0.0
H182 H 0.11392 0.20282 0.5454 0.0
H183 H 0.99784 0.22692 0.56284 0.0
H184 H 0.92943 0.9358 0.50417 0.0
H185 H 0.0465 0.93419 0.47423 0.0
C186 C 0.58604 0.05027 0.05888 0.0
N187 N 0.5366 0.14874 0.05303 0.0
C188 C 0.57318 0.16181 0.05661 0.0
C189 C 0.58255 0.19759 0.05206 0.0
C190 C 0.55389 0.22042 0.04451 0.0
C191 C 0.51682 0.20591 0.0386 0.0
C192 C 0.50876 0.16967 0.04295 0.0
Zn193 Zn 0.5239 0.09998 0.07224 0.0
C194 C 0.48408 0.04762 1.02489 0.0
N195 N 0.50026 1.00102 0.11711 0.0
C196 C 0.52775 0.98439 0.13354 0.0
C197 C 0.46516 0.98512 0.1118 0.0
C198 C 0.4571 0.95044 0.12181 0.0
C199 C 0.48544 0.93209 0.13748 0.0
C200 C 0.52081 0.94964 0.14418 0.0
Zn201 Zn 0.51208 0.04883 0.09663 0.0
O202 O 0.57648 0.08155 0.05343 0.0
C203 C 0.55473 0.09928 0.14349 0.0
O204 O 0.56503 0.03055 0.07746 0.0
H205 H 0.44379 0.99896 0.09875 0.0
H206 H 0.59482 0.145 0.0652 0.0
H207 H 0.55547 0.99766 0.13733 0.0
O208 O 0.55233 0.11858 0.11807 0.0
O209 O 0.54042 0.06763 0.14185 0.0
H210 H 0.47983 0.15874 0.0404 0.0
O211 O 0.45808 0.06736 0.11521 0.0
O212 O 0.47072 0.11824 0.0914 0.0
O213 O 0.48537 0.02958 0.05116 0.0
O214 O 0.49622 0.08012 1.02611 0.0
C215 C 0.44879 0.09877 0.10941 0.0
H216 H 0.61168 0.20754 0.05607 0.0
H217 H 0.49386 0.22259 0.03277 0.0
H218 H 0.42934 0.93775 0.11658 0.0
H219 H 0.54336 0.93613 0.15606 0.0
C220 C 0.54149 0.52736 0.58599 0.0
N221 N 0.53353 0.56073 0.6849 0.0
C222 C 0.51166 0.53236 0.69586 0.0
C223 C 0.50948 0.52515 0.7293 0.0
C224 C 0.5307 0.54691 0.75127 0.0
C225 C 0.55498 0.57439 0.73911 0.0
C226 C 0.55566 0.58112 0.70571 0.0
Zn227 Zn 0.527 0.57947 0.63868 0.0
C228 C 0.59886 0.61279 0.61182 0.0
N229 N 0.51061 0.62278 0.54371 0.0
C230 C 0.48479 0.60292 0.52553 0.0
C231 C 0.53357 0.64863 0.52957 0.0
C232 C 0.53204 0.65409 0.49569 0.0
C233 C 0.50596 0.63336 0.47671 0.0
C234 C 0.48154 0.60823 0.49211 0.0
Zn235 Zn 0.51849 0.60532 0.59076 0.0
O236 O 0.54256 0.52979 0.61706 0.0
C237 C 0.44649 0.57104 0.616 0.0
O238 O 0.53088 0.55375 0.56962 0.0
H239 H 0.55439 0.66377 0.54419 0.0
H240 H 0.49424 0.51652 0.67892 0.0
H241 H 0.46805 0.58125 0.53636 0.0
O242 O 0.46777 0.56144 0.63916 0.0
O243 O 0.46091 0.5902 0.59345 0.0
H244 H 0.57206 0.60407 0.69673 0.0
O245 O 0.50636 0.65652 0.61281 0.0
O246 O 0.51229 0.62986 0.65988 0.0
O247 O 0.57639 0.62017 0.58876 0.0
O248 O 0.58564 0.59688 0.637 0.0
C249 C 0.50518 0.65773 0.64402 0.0
H250 H 0.49049 0.50369 0.738 0.0
H251 H 0.57133 0.59201 0.75545 0.0
H252 H 0.5516 0.67348 0.48437 0.0
H253 H 0.46176 0.59116 0.47807 0.0
C254 C 0.01785 0.67168 0.99226 0.0
N255 N 1.01586 0.63231 0.092 0.0
C256 C 0.02915 0.66151 0.10886 0.0
C257 C 0.02016 0.66511 0.14205 0.0
C258 C 0.99751 0.63829 0.1576 0.0
C259 C 0.98319 0.60946 0.13904 0.0
C260 C 0.99321 0.6067 0.10665 0.0
Zn261 Zn 0.03069 0.61856 0.04558 0.0
C262 C 0.96154 0.5822 1.01297 0.0
N263 N 0.05537 0.57734 0.95301 0.0
C264 C 0.07864 0.59896 0.93444 0.0
C265 C 0.03861 0.54688 0.94087 0.0
C266 C 0.04343 0.53806 0.90823 0.0
C267 C 0.06609 0.56064 0.88806 0.0
C268 C 0.08466 0.59093 0.90181 0.0
Zn269 Zn 0.04163 0.59386 0.99803 0.0
O270 O 1.01556 0.66932 1.02341 0.0
C271 C 0.11101 0.62823 0.03238 0.0
O272 O 0.02893 0.64508 0.97679 0.0
H273 H 0.02022 0.53015 0.95615 0.0
H274 H 0.04756 0.68137 0.09695 0.0
H275 H 0.09151 0.62314 0.94462 0.0
O276 O 0.08705 0.63779 0.05304 0.0
O277 O 0.0994 0.61094 1.00727 0.0
H278 H 0.98365 0.58307 0.09364 0.0
O279 O 0.05423 0.54267 1.01937 0.0
O280 O 0.04653 0.56773 0.06651 0.0
O281 O 0.9837 0.5761 0.98973 0.0
O282 O 0.97441 0.59873 0.03785 0.0
C283 C 0.05509 0.54065 0.05045 0.0
H284 H 0.03167 0.68788 0.15555 0.0
H285 H 0.96477 0.58861 0.14958 0.0
H286 H 0.02817 0.51464 0.89863 0.0
H287 H 0.10292 0.60873 0.88733 0.0
C288 C 0.11768 0.18853 0.30601 0.0
C289 C 0.1562 0.18514 0.29821 0.0
C290 C 0.10125 0.174 0.335 0.0
C291 C 0.1234 0.15516 0.35748 0.0
C292 C 0.16217 0.15134 0.34973 0.0
C293 C 0.17793 0.16618 0.32054 0.0
C294 C 0.0599 0.17897 0.34164 0.0
C295 C 0.18734 0.13183 0.3726 0.0
C296 C 0.08952 0.14581 0.4471 0.0
C297 C 0.07212 0.11136 0.44825 0.0
C298 C 0.10646 0.16006 0.4182 0.0
C299 C 0.10611 0.13981 0.38901 0.0
C300 C 0.08871 0.10497 0.39005 0.0
C301 C 0.07216 0.09127 0.41936 0.0
C302 C 0.12449 0.19716 0.41892 0.0
C303 C 0.08732 0.08206 0.35997 0.0
H304 H 0.09997 0.20243 0.28919 0.0
H305 H 0.20774 0.16352 0.31565 0.0
H306 H 0.0442 0.1529 0.34441 0.0
H307 H 0.05718 0.19341 0.36494 0.0
H308 H 0.0462 0.19386 0.32185 0.0
H309 H 0.21661 0.13042 0.3631 0.0
H310 H 0.18895 0.14515 0.3967 0.0
H311 H 0.17501 0.10458 0.37666 0.0
H312 H 0.08988 0.1619 0.46894 0.0
H313 H 0.05895 0.06472 0.41953 0.0
H314 H 0.10799 0.21442 0.40299 0.0
H315 H 0.15379 0.19769 0.4092 0.0
H316 H 0.12567 0.20837 0.44395 0.0
H317 H 0.07168 0.09501 0.3401 0.0
H318 H 0.07329 0.05551 0.36456 0.0
H319 H 0.11655 0.07881 0.35115 0.0
C320 C 0.39232 0.94807 0.86344 0.0
C321 C 0.41926 0.93692 0.84091 0.0
C322 C 0.40297 0.96652 0.89249 0.0
C323 C 0.44187 0.97383 0.90059 0.0
C324 C 0.46939 0.96186 0.8786 0.0
C325 C 0.4579 0.94384 0.84928 0.0
C326 C 0.37221 0.97834 0.91461 0.0
C327 C 0.51121 0.96823 0.88604 0.0
C328 C 0.46847 0.04816 0.96345 0.0
C329 C 0.47195 0.02947 0.993 0.0
C330 C 0.45902 0.03063 0.93348 0.0
C331 C 0.45333 0.99314 0.93233 0.0
C332 C 0.45708 0.97421 0.96206 0.0
C333 C 0.46599 0.99238 0.99166 0.0
C334 C 0.45492 0.05236 0.90291 0.0
C335 C 0.45186 0.93444 0.96264 0.0
H336 H 0.36237 0.94218 0.85861 0.0
H337 H 0.47936 0.93572 0.8326 0.0
H338 H 0.37442 0.96548 0.93886 0.0
H339 H 0.37589 1.00728 0.91855 0.0
H340 H 0.34325 0.97195 0.90452 0.0
H341 H 0.52924 0.95679 0.86719 0.0
H342 H 0.51867 0.99701 0.88766 0.0
H343 H 0.51802 0.95655 0.9101 0.0
H344 H 0.47313 0.07665 0.96369 0.0
H345 H 0.46887 0.9772 1.01391 0.0
H346 H 0.42583 0.04763 0.89262 0.0
H347 H 0.47507 0.04417 0.88415 0.0
H348 H 0.46027 0.08108 0.90749 0.0
H349 H 0.42256 0.92593 0.95471 0.0
H350 H 0.45698 0.9233 0.9873 0.0
H351 H 0.47161 0.92302 0.94521 0.0
C352 C 0.51271 0.54184 0.94603 0.0
C353 C 0.52379 0.57637 0.95597 0.0
C354 C 0.50688 0.53373 0.91294 0.0
C355 C 0.51161 0.56095 0.88943 0.0
C356 C 0.51856 0.59641 0.89966 0.0
C357 C 0.52476 0.60371 0.93289 0.0
C358 C 0.49928 0.49563 0.90307 0.0
C359 C 0.52294 0.62629 0.87528 0.0
C360 C 0.55615 0.54344 0.80795 0.0
C361 C 0.52482 0.54401 0.78681 0.0
C362 C 0.55178 0.5471 0.84168 0.0
C363 C 0.51525 0.55203 0.8544 0.0
C364 C 0.48321 0.55086 0.83329 0.0
C365 C 0.48838 0.54668 0.79962 0.0
C366 C 0.58659 0.54746 0.86351 0.0
C367 C 0.44391 0.5562 0.84593 0.0
H368 H 0.51112 0.52072 0.96395 0.0
H369 H 0.5333 0.63043 0.94039 0.0
H370 H 0.47731 0.49307 0.88352 0.0
H371 H 0.52572 0.4855 0.89322 0.0
H372 H 0.48993 0.47872 0.92406 0.0
H373 H 0.52252 0.65252 0.88721 0.0
H374 H 0.55039 0.62492 0.86244 0.0
H375 H 0.49997 0.62401 0.85658 0.0
H376 H 0.58426 0.54129 0.7979 0.0
H377 H 0.46423 0.54756 0.78312 0.0
H378 H 0.58182 0.52865 0.88407 0.0
H379 H 0.59217 0.57417 0.87414 0.0
H380 H 0.6123 0.54042 0.8501 0.0
H381 H 0.43801 0.53995 0.86808 0.0
H382 H 0.42154 0.54948 0.82731 0.0
H383 H 0.44207 0.58425 0.85296 0.0
C384 C 0.92539 0.62044 0.34327 0.0
C385 C 0.8858 0.61384 0.33995 0.0
C386 C 0.94811 0.62983 0.31628 0.0
C387 C 0.93134 0.63064 0.28483 0.0
C388 C 0.89161 0.62389 0.28113 0.0
C389 C 0.8693 0.61646 0.30874 0.0
C390 C 0.99018 0.63818 0.3214 0.0
C391 C 0.8727 0.62342 0.24785 0.0
C392 C 0.97632 0.66951 0.20781 0.0
C393 C 0.98833 0.63897 0.19291 0.0
C394 C 0.96034 0.66788 0.23918 0.0
C395 C 0.95541 0.63482 0.25532 0.0
C396 C 0.97007 0.60456 0.24134 0.0
C397 C 0.98722 0.60726 0.21074 0.0
C398 C 0.94681 0.70106 0.25418 0.0
C399 C 0.96486 0.56864 0.25731 0.0
H400 H 0.93901 0.61789 0.36688 0.0
H401 H 0.83879 0.61265 0.30567 0.0
H402 H 1.00613 0.61551 0.31342 0.0
H403 H 1.00013 0.66145 0.30661 0.0
H404 H 0.99732 0.64355 0.34747 0.0
H405 H 0.84153 0.61726 0.24915 0.0
H406 H 0.87784 0.6494 0.23569 0.0
H407 H 0.88516 0.60338 0.23219 0.0
H408 H 0.97746 0.69418 0.19434 0.0
H409 H 0.99777 0.58383 0.19983 0.0
H410 H 0.95412 0.70232 0.28059 0.0
H411 H 0.91545 0.70102 0.25188 0.0
H412 H 0.95936 0.72517 0.24196 0.0
H413 H 0.97607 0.56956 0.28268 0.0
H414 H 0.97928 0.54805 0.24376 0.0
H415 H 0.9341 0.56059 0.25858 0.0
C416 C 0.25353 0.18296 0.17078 0.0
C417 C 0.25276 0.18637 0.20499 0.0
C418 C 0.2841 0.16785 0.15468 0.0
C419 C 0.31575 0.15658 0.17286 0.0
C420 C 0.31525 0.16033 0.20739 0.0
C421 C 0.28383 0.1746 0.22291 0.0
C422 C 0.28238 0.16375 0.11806 0.0
C423 C 0.34839 0.14984 0.22805 0.0
C424 C 0.384 0.09091 0.13676 0.0
C425 C 0.41406 0.11328 0.12473 0.0
C426 C 0.35177 0.10451 0.1517 0.0
C427 C 0.34951 0.14153 0.15584 0.0
C428 C 0.37998 0.16417 0.14397 0.0
C429 C 0.4113 0.14993 0.12831 0.0
C430 C 0.31993 0.0791 0.16297 0.0
C431 C 0.3799 0.20363 0.14837 0.0
H432 H 0.22979 0.19166 0.15653 0.0
H433 H 0.28404 0.17737 0.24925 0.0
H434 H 0.30615 0.17977 0.10673 0.0
H435 H 0.28574 0.13579 0.11141 0.0
H436 H 0.2552 0.17206 0.10749 0.0
H437 H 0.34422 0.15492 0.25443 0.0
H438 H 0.3527 0.12138 0.22474 0.0
H439 H 0.37479 0.16473 0.22007 0.0
H440 H 0.38545 0.06261 0.1342 0.0
H441 H 0.43427 0.16768 0.11952 0.0
H442 H 0.29265 0.08621 0.15176 0.0
H443 H 0.31684 0.08095 0.18982 0.0
H444 H 0.32481 0.05132 0.1566 0.0
H445 H 0.35473 0.21384 0.13594 0.0
H446 H 0.40589 0.21773 0.13849 0.0
H447 H 0.37778 0.20998 0.1747 0.0
C448 C 0.20936 0.97457 0.70874 0.0
C449 C 0.24357 0.95924 0.7012 0.0
C450 C 0.18736 0.99061 0.68471 0.0
C451 C 0.20004 0.99262 0.65199 0.0
C452 C 0.23583 0.97942 0.64451 0.0
C453 C 0.25704 0.96272 0.66909 0.0
C454 C 0.14951 1.00396 0.69419 0.0
C455 C 0.25109 0.98176 0.61025 0.0
C456 C 0.12029 0.99824 0.58814 0.0
C457 C 0.11864 0.03485 0.58365 0.0
C458 C 0.14754 0.98414 0.60918 0.0
C459 C 0.17463 1.00699 0.62582 0.0
C460 C 0.17444 0.04385 0.61989 0.0
C461 C 0.1463 0.05731 0.59933 0.0
C462 C 0.14591 0.94478 0.61499 0.0
C463 C 0.20312 0.0693 0.6363 0.0
H464 H 0.19891 0.97285 0.73354 0.0
H465 H 0.28327 0.95104 0.6628 0.0
H466 H 0.14832 0.03219 0.68748 0.0
H467 H 0.12629 0.98912 0.68062 0.0
H468 H 0.14398 1.00109 0.72076 0.0
H469 H 0.28109 0.97451 0.60911 0.0
H470 H 0.23361 0.96368 0.5941 0.0
H471 H 0.24922 1.0089 0.60044 0.0
H472 H 0.09903 0.98055 0.57644 0.0
H473 H 0.14554 0.08561 0.59602 0.0
H474 H 0.13785 0.93909 0.64069 0.0
H475 H 0.17427 0.93444 0.61122 0.0
H476 H 0.12503 0.93032 0.59864 0.0
H477 H 0.19683 0.07077 0.66273 0.0
H478 H 0.20276 0.09631 0.62579 0.0
H479 H 0.23217 0.05994 0.63402 0.0
C480 C 0.74058 0.56713 0.04145 0.0
C481 C 0.72264 0.53446 0.0327 0.0
C482 C 0.77917 0.57499 0.03472 0.0
C483 C 0.80048 0.54927 1.01954 0.0
C484 C 0.78242 0.51659 1.01002 0.0
C485 C 0.74367 0.50982 1.01623 0.0
C486 C 0.79739 0.61044 0.04467 0.0
C487 C 0.80432 0.48824 0.99432 0.0
C488 C 0.89799 0.57669 0.98548 0.0
C489 C 0.92124 0.57003 1.01237 0.0
C490 C 0.85839 0.56992 0.98726 0.0
C491 C 0.84227 0.55533 1.01628 0.0
C492 C 0.8661 0.54701 0.04283 0.0
C493 C 0.90525 0.555 0.04071 0.0
C494 C 0.83373 0.57981 0.95878 0.0
C495 C 0.85021 0.53043 0.07381 0.0
H496 H 0.72471 0.58634 0.05418 0.0
H497 H 0.7299 0.48497 1.00826 0.0
H498 H 0.818 0.6069 0.06487 0.0
H499 H 0.81341 0.62276 1.02395 0.0
H500 H 0.77614 0.62883 0.05296 0.0
H501 H 0.7857 0.46482 0.98711 0.0
H502 H 0.81931 0.4988 0.97236 0.0
H503 H 0.82629 0.47956 1.01164 0.0
H504 H 0.91052 0.58881 0.96378 0.0
H505 H 0.92347 0.54986 0.06145 0.0
H506 H 0.81538 0.60104 0.96628 0.0
H507 H 0.81465 0.55691 0.95116 0.0
H508 H 0.85076 0.58923 0.93742 0.0
H509 H 0.83187 0.54898 0.08607 0.0
H510 H 0.87291 0.52345 0.09123 0.0
H511 H 0.83225 0.50618 0.06798 0.0
C512 C 0.81379 0.65722 0.56583 0.0
C513 C 0.82512 0.62862 0.54723 0.0
C514 C 0.78165 0.65381 0.58566 0.0
C515 C 0.75967 0.62143 0.58612 0.0
C516 C 0.7737 0.59134 0.57117 0.0
C517 C 0.8067 0.59519 0.55225 0.0
C518 C 0.7686 0.68613 0.60261 0.0
C519 C 0.75143 0.55609 0.57169 0.0
C520 C 0.66618 0.61046 0.63193 0.0
C521 C 0.64028 0.61874 0.60725 0.0
C522 C 0.70547 0.61214 0.62597 0.0
C523 C 0.7188 0.62147 0.59442 0.0
C524 C 0.69278 0.63076 0.56976 0.0
C525 C 0.65399 0.62965 0.57661 0.0
C526 C 0.73234 0.60285 0.65311 0.0
C527 C 0.7057 0.64095 0.5357 0.0
H528 H 0.82756 0.6833 0.56267 0.0
H529 H 0.81615 0.57253 0.5393 0.0
H530 H 0.7466 0.69811 0.58735 0.0
H531 H 0.75576 0.67911 0.62658 0.0
H532 H 0.79242 0.7063 0.60645 0.0
H533 H 0.76895 0.53429 0.56399 0.0
H534 H 0.74019 0.55016 0.59643 0.0
H535 H 0.72678 0.55697 0.55471 0.0
H536 H 0.65577 0.60201 0.6557 0.0
H537 H 0.63424 0.63611 0.55737 0.0
H538 H 0.75899 0.62 0.65251 0.0
H539 H 0.74001 0.57516 0.65009 0.0
H540 H 0.71913 0.6052 0.67747 0.0
H541 H 0.72561 0.66474 0.53671 0.0
H542 H 0.68163 0.64667 0.51922 0.0
H543 H 0.72114 0.61931 0.52482 0.0
C544 C 0.10225 0.36261 0.15396 0.0
C545 C 0.14108 0.364 0.16234 0.0
C546 C 0.08693 0.38848 0.13329 0.0
C547 C 0.11075 0.41693 0.12066 0.0
C548 C 0.15028 0.41728 0.12775 0.0
C549 C 0.16475 0.39114 0.14836 0.0
C550 C 0.04476 0.38649 0.12653 0.0
C551 C 0.17719 0.44661 0.1152 0.0
C552 C 0.07801 0.47796 0.05112 0.0
C553 C 0.06744 0.508 0.06812 0.0
C554 C 0.09122 0.44804 0.0677 0.0
C555 C 0.09433 0.4477 0.10236 0.0
C556 C 0.08321 0.47778 0.1196 0.0
C557 C 0.06999 0.5072 0.10247 0.0
C558 C 0.10245 0.4169 0.048 0.0
C559 C 0.08594 0.47923 0.15637 0.0
H560 H 0.08339 0.34255 0.16521 0.0
H561 H 0.1946 0.39312 0.15516 0.0
H562 H 0.03165 0.40819 0.13956 0.0
H563 H 0.03908 0.39001 0.10007 0.0
H564 H 0.03074 0.36096 0.13462 0.0
H565 H 0.20739 0.4416 0.12026 0.0
H566 H 0.17331 0.45003 0.0885 0.0
H567 H 0.17083 0.47185 0.12698 0.0
H568 H 0.07634 0.4779 1.02469 0.0
H569 H 0.06208 0.52996 0.11617 0.0
H570 H 0.08684 0.39239 0.05664 0.0
H571 H 0.13321 0.41332 0.05151 0.0
H572 H 0.09664 0.42019 1.02149 0.0
H573 H 0.06955 0.45624 0.16719 0.0
H574 H 0.0751 0.50381 0.1664 0.0
H575 H 0.11599 0.47767 0.16424 0.0
C576 C 0.63688 0.41825 0.03134 0.0
C577 C 0.61783 0.44247 0.05 0.0
C578 C 0.62469 0.38247 0.03058 0.0
C579 C 0.59224 0.37063 0.0485 0.0
C580 C 0.57255 0.39487 0.06713 0.0
C581 C 0.58572 0.43054 0.0678 0.0
C582 C 0.64665 0.35732 1.01067 0.0
C583 C 0.53768 0.3831 0.08636 0.0
C584 C 0.54652 0.28169 1.02288 0.0
C585 C 0.56229 0.25918 0.04581 0.0
C586 C 0.55502 0.31831 1.02406 0.0
C587 C 0.58002 0.33254 0.04859 0.0
C588 C 0.5953 0.31004 0.0722 0.0
C589 C 0.58602 0.27371 0.07067 0.0
C590 C 0.53795 0.34168 0.99867 0.0
C591 C 0.62222 0.32421 0.09865 0.0
H592 H 0.66109 0.42735 1.01678 0.0
H593 H 0.57095 0.44908 0.08235 0.0
H594 H 0.65721 0.33637 1.02671 0.0
H595 H 0.62775 0.34412 0.99201 0.0
H596 H 0.6713 0.37083 0.99812 0.0
H597 H 0.52478 0.40549 0.09858 0.0
H598 H 0.51607 0.36974 0.06999 0.0
H599 H 0.54516 0.36362 0.10524 0.0
H600 H 0.52817 0.27063 1.00364 0.0
H601 H 0.59742 0.25661 0.08907 0.0
H602 H 0.56077 0.35391 0.98309 0.0
H603 H 0.52381 0.36347 1.01065 0.0
H604 H 0.51689 0.32686 0.98275 0.0
H605 H 0.64835 0.33654 0.08743 0.0
H606 H 0.63053 0.30327 0.11583 0.0
H607 H 0.60897 0.34501 0.11277 0.0
C608 C 0.94279 0.72095 0.46699 0.0
C609 C 0.91424 0.71339 0.49013 0.0
C610 C 0.95985 0.75515 0.46379 0.0
C611 C 0.94868 0.78208 0.48476 0.0
C612 C 0.92154 0.77418 0.50936 0.0
C613 C 0.9043 0.74008 0.51147 0.0
C614 C 0.9884 0.76281 0.43705 0.0
C615 C 0.90938 0.80215 0.53259 0.0
C616 C 1.00467 0.86891 0.49815 0.0
C617 C 0.98153 0.89211 0.48185 0.0
C618 C 0.99574 0.83244 0.49765 0.0
C619 C 0.96326 0.81914 0.48006 0.0
C620 C 0.94159 0.84232 0.46147 0.0
C621 C 0.95076 0.87871 0.46291 0.0
C622 C 0.0192 0.80859 0.51809 0.0
C623 C 0.90724 0.82895 0.44181 0.0
H624 H 0.95103 0.70035 0.45072 0.0
H625 H 0.8818 0.73486 0.52899 0.0
H626 H 0.97616 0.78031 0.41849 0.0
H627 H 1.01442 0.77698 0.44699 0.0
H628 H 0.9965 0.73838 0.42472 0.0
H629 H 0.89058 0.79093 0.55214 0.0
H630 H 0.93462 0.81606 0.54418 0.0
H631 H 0.89388 0.82212 0.5189 0.0
H632 H 0.02832 0.87946 0.51299 0.0
H633 H 0.93315 0.89682 0.45014 0.0
H634 H 0.02546 0.78457 0.5043 0.0
H635 H 1.00284 0.79988 0.54001 0.0
H636 H 0.04644 0.82215 0.52631 0.0
H637 H 0.91392 0.80568 0.42707 0.0
H638 H 0.89689 0.84954 0.4252 0.0
H639 H 0.8839 0.82041 0.4586 0.0
C640 C 0.4043 0.81181 0.74083 0.0
C641 C 0.42806 0.84121 0.75076 0.0
C642 C 0.41831 0.78285 0.72402 0.0
C643 C 0.45753 0.78236 0.71666 0.0
C644 C 0.48201 0.81139 0.72745 0.0
C645 C 0.46714 0.84022 0.74432 0.0
C646 C 0.39076 0.75282 0.71369 0.0
C647 C 0.52399 0.81232 0.72058 0.0
C648 C 0.49472 0.69115 0.69669 0.0
C649 C 0.49483 0.69057 0.66225 0.0
C650 C 0.48382 0.72086 0.71448 0.0
C651 C 0.4724 0.75141 0.69785 0.0
C652 C 0.47302 0.75126 0.66308 0.0
C653 C 0.48416 0.72115 0.64585 0.0
C654 C 0.48383 0.71919 0.7513 0.0
C655 C 0.46113 0.78282 0.64395 0.0
H656 H 0.37421 0.81147 0.74608 0.0
H657 H 0.48599 0.86252 0.75158 0.0
H658 H 0.39103 0.74999 0.68673 0.0
H659 H 0.39956 0.72763 0.7243 0.0
H660 H 0.36121 0.7568 0.72139 0.0
H661 H 0.53961 0.83589 0.73135 0.0
H662 H 0.53625 0.78823 0.73049 0.0
H663 H 0.5286 0.81249 0.69381 0.0
H664 H 0.50288 0.66803 0.70999 0.0
H665 H 0.48398 0.72143 0.61939 0.0
H666 H 0.4544 0.72062 0.76033 0.0
H667 H 0.50091 0.74215 0.76156 0.0
H668 H 0.49544 0.69457 0.76079 0.0
H669 H 0.4308 0.78698 0.64867 0.0
H670 H 0.4649 0.77961 0.61725 0.0
H671 H 0.47791 0.80697 0.65206 0.0
C672 C 0.89545 0.95351 0.76349 0.0
C673 C 0.92267 0.94308 0.78662 0.0
C674 C 0.90568 0.97106 0.73391 0.0
C675 C 0.94447 0.97817 0.72581 0.0
C676 C 0.97228 0.96693 0.74842 0.0
C677 C 0.9612 0.94983 0.77826 0.0
C678 C 0.8746 0.98215 0.71121 0.0
C679 C 1.014 0.97308 0.74109 0.0
C680 C 0.96745 0.99426 0.63424 0.0
C681 C 0.9734 0.03131 0.63184 0.0
C682 C 0.95891 0.9769 0.66433 0.0
C683 C 0.9555 0.99661 0.69352 0.0
C684 C 0.9612 0.03405 0.69128 0.0
C685 C 0.97029 0.05076 0.66087 0.0
C686 C 0.95371 0.93713 0.66484 0.0
C687 C 0.95746 0.05664 0.72117 0.0
H688 H 0.86557 0.94771 0.76824 0.0
H689 H 0.98292 0.94229 0.79532 0.0
H690 H 0.8782 1.01095 0.70639 0.0
H691 H 0.87649 0.96854 0.6874 0.0
H692 H 0.84579 0.97606 0.7213 0.0
H693 H 0.03229 0.96217 0.76039 0.0
H694 H 0.02047 0.96074 0.71742 0.0
H695 H 0.02143 1.00181 0.73871 0.0
H696 H 0.97007 0.97848 0.61246 0.0
H697 H 0.97494 0.07924 0.65987 0.0
H698 H 0.92451 0.92883 0.67278 0.0
H699 H 0.97369 0.92622 0.68277 0.0
H700 H 0.95854 0.92533 0.64056 0.0
H701 H 0.92851 0.05217 0.73138 0.0
H702 H 0.96272 0.08523 0.71579 0.0
H703 H 0.97788 0.04901 0.74031 0.0
C704 C 0.67557 0.17421 0.3041 0.0
C705 C 0.65107 0.18506 0.32868 0.0
C706 C 0.66153 0.16003 0.27388 0.0
C707 C 0.62178 0.15659 0.26728 0.0
C708 C 0.59694 0.16744 0.29189 0.0
C709 C 0.61165 0.18104 0.32198 0.0
C710 C 0.68942 0.14867 0.24889 0.0
C711 C 0.55446 0.16466 0.28649 0.0
C712 C 0.58399 0.14992 0.1782 0.0
C713 C 0.57311 0.11374 0.17478 0.0
C714 C 0.60002 0.16401 0.2077 0.0
C715 C 0.60602 0.14161 0.23494 0.0
C716 C 0.59567 0.10498 0.23144 0.0
C717 C 0.5793 0.09166 0.20178 0.0
C718 C 0.60996 0.20318 0.20988 0.0
C719 C 0.60165 0.0797 0.25926 0.0
H720 H 0.70598 0.17714 0.30822 0.0
H721 H 0.59182 0.18805 0.34053 0.0
H722 H 0.68312 0.12048 0.24259 0.0
H723 H 0.6865 0.16418 0.2261 0.0
H724 H 0.71931 0.15218 0.25768 0.0
H725 H 0.5388 0.17507 0.30743 0.0
H726 H 0.54706 0.17949 0.26417 0.0
H727 H 0.54452 0.13667 0.28257 0.0
H728 H 0.57945 0.16753 0.15784 0.0
H729 H 0.57129 0.0637 0.19979 0.0
H730 H 0.64039 0.20808 0.21654 0.0
H731 H 0.59311 0.21478 0.22943 0.0
H732 H 0.60441 0.21709 0.18657 0.0
H733 H 0.63185 0.08179 0.26726 0.0
H734 H 0.59379 0.05186 0.25247 0.0
H735 H 0.58433 0.08676 0.28047 0.0
C736 C 0.47391 0.55736 0.30257 0.0
C737 C 0.47901 0.58038 0.27593 0.0
C738 C 0.48266 0.56885 0.33448 0.0
C739 C 0.49654 0.60424 0.33985 0.0
C740 C 0.50328 0.62713 0.31296 0.0
C741 C 0.49472 0.61484 0.28133 0.0
C742 C 0.47556 0.54351 0.36258 0.0
C743 C 0.51794 0.66503 0.31767 0.0
C744 C 0.47249 0.63838 0.4234 0.0
C745 C 0.50633 0.63414 0.4407 0.0
C746 C 0.46964 0.63067 0.39 0.0
C747 C 0.50125 0.61783 0.37375 0.0
C748 C 0.5362 0.61552 0.39071 0.0
C749 C 0.53838 0.62392 0.42408 0.0
C750 C 0.43209 0.63419 0.37263 0.0
C751 C 0.57045 0.60177 0.37429 0.0
H752 H 0.46166 0.53079 0.29865 0.0
H753 H 0.4996 0.63255 0.26077 0.0
H754 H 0.50121 0.54309 0.37844 0.0
H755 H 0.45213 0.55245 0.37779 0.0
H756 H 0.46778 0.51619 0.35415 0.0
H757 H 0.52442 0.6786 0.29412 0.0
H758 H 0.49636 0.67968 0.33062 0.0
H759 H 0.54401 0.66636 0.3331 0.0
H760 H 0.4477 0.64612 0.43644 0.0
H761 H 0.56435 0.62011 0.43768 0.0
H762 H 0.41929 0.60758 0.3664 0.0
H763 H 0.43637 0.649 0.34942 0.0
H764 H 0.41163 0.64789 0.38781 0.0
H765 H 0.5652 0.5731 0.36953 0.0
H766 H 0.59657 0.60572 0.38955 0.0
H767 H 0.57545 0.61495 0.35037 0.0
C768 C 0.08886 0.51593 0.69849 0.0
C769 C 0.05249 0.50824 0.68507 0.0
C770 C 0.09348 0.52864 0.73042 0.0
C771 C 0.06098 0.53298 0.74959 0.0
C772 C 0.02424 0.52709 0.73572 0.0
C773 C 0.02044 0.51515 0.70346 0.0
C774 C 0.13313 0.53541 0.74422 0.0
C775 C 0.9889 0.53129 0.75556 0.0
C776 C 0.06888 0.51919 0.84083 0.0
C777 C 0.06813 0.55382 0.8525 0.0
C778 C 0.06709 0.51214 0.8073 0.0
C779 C 0.06526 0.54049 0.78492 0.0
C780 C 0.06612 0.57561 0.79639 0.0
C781 C 0.06715 0.58185 0.83009 0.0
C782 C 0.0661 0.47426 0.79589 0.0
C783 C 0.06494 0.60648 0.77312 0.0
H784 H 0.11386 0.51028 0.68473 0.0
H785 H 0.99229 0.50997 0.69303 0.0
H786 H 0.13572 0.561 0.75733 0.0
H787 H 0.13912 0.51444 0.76213 0.0
H788 H 0.15508 0.53568 0.72491 0.0
H789 H 0.96255 0.52805 0.7405 0.0
H790 H 0.9873 0.51127 0.77539 0.0
H791 H 0.99002 0.55765 0.76726 0.0
H792 H 0.07038 0.49748 0.85795 0.0
H793 H 0.06599 0.60868 0.83885 0.0
H794 H 0.08987 0.4706 0.77893 0.0
H795 H 0.03926 0.46768 0.78224 0.0
H796 H 0.06813 0.45532 0.81648 0.0
H797 H 0.08718 0.60491 0.75427 0.0
H798 H 0.06918 0.63225 0.78586 0.0
H799 H 0.0371 0.6056 0.76023 0.0
C800 C 0.75908 0.96647 0.95787 0.0
C801 C 0.74635 0.96394 0.92528 0.0
C802 C 0.73724 0.9823 0.98217 0.0
C803 C 0.70148 0.99558 0.97393 0.0
C804 C 0.68951 0.99447 0.94081 0.0
C805 C 0.71214 0.97931 0.91711 0.0
C806 C 0.75181 0.9837 1.01689 0.0
C807 C 0.65176 1.00788 0.93047 0.0
C808 C 0.62061 0.99955 0.03587 0.0
C809 C 0.61881 0.03603 0.04093 0.0
C810 C 0.64818 0.986 1.01525 0.0
C811 C 0.6755 1.00927 0.99963 0.0
C812 C 0.67508 0.04598 1.00611 0.0
C813 C 0.6466 0.05889 1.02619 0.0
C814 C 0.6467 0.94681 1.00879 0.0
C815 C 0.70395 0.07188 0.99086 0.0
H816 H 0.78527 0.95475 0.9647 0.0
H817 H 0.7022 0.97833 0.89198 0.0
H818 H 0.74971 1.01057 0.02709 0.0
H819 H 0.73403 0.96519 0.03221 0.0
H820 H 0.78179 0.97644 1.01878 0.0
H821 H 0.6467 1.00563 0.90372 0.0
H822 H 0.62838 0.99266 0.94319 0.0
H823 H 0.65032 0.03595 0.93754 0.0
H824 H 0.59925 0.98155 0.0468 0.0
H825 H 0.64575 0.0871 0.0299 0.0
H826 H 0.67499 0.93639 1.01322 0.0
H827 H 0.63914 0.94177 0.98277 0.0
H828 H 0.62552 0.93193 1.0243 0.0
H829 H 0.70329 0.09864 1.00168 0.0
H830 H 0.69817 0.07392 0.96427 0.0
H831 H 0.73299 0.06256 0.99387 0.0
C832 C 0.74603 0.1753 0.45766 0.0
C833 C 0.74596 0.18546 0.42453 0.0
C834 C 0.778 0.16067 0.47261 0.0
C835 C 0.8115 0.15619 0.4544 0.0
C836 C 0.81174 0.16671 0.42106 0.0
C837 C 0.77923 0.18085 0.40663 0.0
C838 C 0.77573 0.14961 0.50798 0.0
C839 C 0.8466 0.16319 0.40051 0.0
C840 C 0.90685 0.14855 0.50055 0.0
C841 C 0.91253 0.11215 0.49922 0.0
C842 C 0.87452 0.16305 0.48618 0.0
C843 C 0.84625 0.14085 0.47018 0.0
C844 C 0.85157 0.10401 0.46909 0.0
C845 C 0.88449 0.09025 0.48328 0.0
C846 C 0.87088 0.20241 0.48781 0.0
C847 C 0.82237 0.07898 0.45284 0.0
H848 H 0.72064 0.17805 0.47189 0.0
H849 H 0.78008 0.18877 0.38119 0.0
H850 H 0.78071 0.12112 0.51027 0.0
H851 H 0.79831 0.16432 0.52237 0.0
H852 H 0.74776 0.15435 0.51885 0.0
H853 H 0.84269 0.17284 0.37513 0.0
H854 H 0.87127 0.17834 0.41175 0.0
H855 H 0.8537 0.13515 0.39958 0.0
H856 H 0.92811 0.16603 0.51251 0.0
H857 H 0.88818 0.06216 0.48196 0.0
H858 H 0.84424 0.20813 0.5004 0.0
H859 H 0.86918 0.21345 0.46275 0.0
H860 H 0.89518 0.21625 0.5009 0.0
H861 H 0.79417 0.0815 0.46411 0.0
H862 H 0.82984 0.05103 0.45476 0.0
H863 H 0.81959 0.08591 0.42663 0.0
C864 C 0.30489 0.60385 0.12306 0.0
C865 C 0.33577 0.62546 0.11187 0.0
C866 C 0.26971 0.60291 0.1066 0.0
C867 C 0.26532 0.62447 0.07866 0.0
C868 C 0.29701 0.64462 0.06615 0.0
C869 C 0.33195 0.64449 0.08267 0.0
C870 C 0.23672 0.58034 0.12014 0.0
C871 C 0.29348 0.66805 0.03653 0.0
C872 C 0.17651 0.60803 1.0265 0.0
C873 C 0.15201 0.63149 0.04041 0.0
C874 C 0.21376 0.60581 0.03829 0.0
C875 C 0.227 0.62809 0.06413 0.0
C876 C 0.20312 0.65325 0.07697 0.0
C877 C 0.16575 0.65441 0.06515 0.0
C878 C 0.23819 0.57836 1.02428 0.0
C879 C 0.21658 0.67808 0.10401 0.0
H880 H 0.30755 0.58917 0.14562 0.0
H881 H 0.356 0.66063 0.0735 0.0
H882 H 0.21553 0.59755 0.13046 0.0
H883 H 0.2223 0.56446 0.10042 0.0
H884 H 0.24578 0.5622 0.13966 0.0
H885 H 0.32149 0.67965 0.02829 0.0
H886 H 0.27965 0.65302 1.01602 0.0
H887 H 0.27521 0.6899 0.04243 0.0
H888 H 0.16595 0.58994 1.00759 0.0
H889 H 0.14693 0.67259 0.07595 0.0
H890 H 0.24309 0.558 0.04311 0.0
H891 H 0.26641 0.59047 1.01734 0.0
H892 H 0.22485 0.5651 1.00252 0.0
H893 H 0.222 0.66276 0.12652 0.0
H894 H 0.19551 0.69773 0.10963 0.0
H895 H 0.24377 0.6924 0.09719 0.0
C896 C 0.24559 0.47667 0.57506 0.0
C897 C 0.21512 0.49803 0.58027 0.0
C898 C 0.28259 0.48756 0.58501 0.0
C899 C 0.28926 0.52041 0.60098 0.0
C900 C 0.25838 0.54122 0.60793 0.0
C901 C 0.22167 0.52987 0.59733 0.0
C902 C 0.31478 0.46468 0.57699 0.0
C903 C 0.26435 0.57623 0.62522 0.0
C904 C 0.38748 0.53962 0.63876 0.0
C905 C 0.40575 0.55926 0.61376 0.0
C906 C 0.34909 0.52749 0.63548 0.0
C907 C 0.32892 0.53489 0.60641 0.0
C908 C 0.34715 0.5551 0.58139 0.0
C909 C 0.38515 0.56716 0.58545 0.0
C910 C 0.3303 0.50635 0.66281 0.0
C911 C 0.32683 0.56331 0.54986 0.0
H912 H 0.2406 0.45147 0.56287 0.0
H913 H 0.19825 0.54643 0.60156 0.0
H914 H 0.33353 0.47826 0.55864 0.0
H915 H 0.33237 0.46035 0.59906 0.0
H916 H 0.30446 0.43859 0.56702 0.0
H917 H 0.23708 0.58683 0.63269 0.0
H918 H 0.28257 0.5736 0.64721 0.0
H919 H 0.27923 0.5957 0.60876 0.0
H920 H 0.40319 0.53353 0.66073 0.0
H921 H 0.39894 0.5823 0.56593 0.0
H922 H 0.32258 0.47908 0.65435 0.0
H923 H 0.30358 0.51813 0.66994 0.0
H924 H 0.34902 0.50498 0.68468 0.0
H925 H 0.31777 0.53838 0.53711 0.0
H926 H 0.34495 0.57993 0.53307 0.0
H927 H 0.30083 0.57726 0.55505 0.0
C928 C 0.97321 0.85132 0.88807 0.0
C929 C 0.93418 0.8508 0.88033 0.0
C930 C 0.98894 0.82343 0.90611 0.0
C931 C 0.96545 0.79371 0.91667 0.0
C932 C 0.9263 0.7927 0.90806 0.0
C933 C 0.91138 0.82086 0.89026 0.0
C934 C 0.03075 0.82611 0.91444 0.0
C935 C 0.8998 0.76181 0.91794 0.0
C936 C 1.00723 0.70467 0.93898 0.0
C937 C 1.00637 0.70406 0.97343 0.0
C938 C 0.99498 0.73363 0.92051 0.0
C939 C 0.98137 0.76354 0.9364 0.0
C940 C 0.98107 0.76343 0.97118 0.0
C941 C 0.99336 0.73395 0.98912 0.0
C942 C 0.99584 0.7318 0.88372 0.0
C943 C 0.96708 0.79438 0.98957 0.0
H944 H 0.99133 0.87409 0.8809 0.0
H945 H 0.88135 0.81944 0.88416 0.0
H946 H 0.03465 0.82636 0.94136 0.0
H947 H 0.04446 0.80268 0.90508 0.0
H948 H 0.04552 0.85028 0.90411 0.0
H949 H 0.87024 0.76452 0.90909 0.0
H950 H 0.91006 0.73694 0.90811 0.0
H951 H 0.89946 0.75932 0.94494 0.0
H952 H 1.01704 0.68205 0.92618 0.0
H953 H 0.99236 0.73423 1.01555 0.0
H954 H 1.01213 0.75529 0.87373 0.0
H955 H 0.96649 0.73204 0.87375 0.0
H956 H 1.00877 0.70767 0.87488 0.0
H957 H 0.98276 0.81917 0.98169 0.0
H958 H 0.9705 0.79148 1.01642 0.0
H959 H 0.93658 0.79709 0.98388 0.0
C960 C 0.4689 0.72227 0.15473 0.0
C961 C 0.43096 0.71175 0.16117 0.0
C962 C 0.48123 0.7581 0.15511 0.0
C963 C 0.45494 0.78363 0.16238 0.0
C964 C 0.41728 0.7728 0.17118 0.0
C965 C 0.40567 0.73691 0.17027 0.0
C966 C 0.52157 0.76874 0.14549 0.0
C967 C 0.38857 0.79923 0.17947 0.0
C968 C 0.48744 0.8799 0.17486 0.0
C969 C 0.47891 0.89402 0.14421 0.0
C970 C 0.48036 0.84373 0.18121 0.0
C971 C 0.46488 0.82148 0.15612 0.0
C972 C 0.45716 0.83559 0.12491 0.0
C973 C 0.46417 0.87173 0.11939 0.0
C974 C 0.48857 0.82948 0.21481 0.0
C975 C 0.44097 0.81262 0.09742 0.0
H976 H 0.48838 0.70265 0.14776 0.0
H977 H 0.37647 0.72851 0.1758 0.0
H978 H 0.52157 0.78081 0.12077 0.0
H979 H 0.53443 0.78884 0.16256 0.0
H980 H 0.53969 0.74583 0.14506 0.0
H981 H 0.36224 0.78637 0.18996 0.0
H982 H 0.40083 0.81901 0.19713 0.0
H983 H 0.38077 0.81368 0.15703 0.0
H984 H 0.49884 0.89728 0.19401 0.0
H985 H 0.45828 0.88262 0.09549 0.0
H986 H 0.50709 0.80699 0.21309 0.0
H987 H 0.46165 0.81933 0.22628 0.0
H988 H 0.50256 0.8499 0.23103 0.0
H989 H 0.4594 0.79048 0.09306 0.0
H990 H 0.43814 0.82757 0.07425 0.0
H991 H 0.4125 0.80093 0.10422 0.0
C992 C 0.09921 0.41536 0.48853 0.0
C993 C 0.13308 0.42389 0.50588 0.0
C994 C 0.08611 0.37994 0.48451 0.0
C995 C 0.10785 0.35316 0.49767 0.0
C996 C 0.14563 0.3616 0.50811 0.0
C997 C 0.15801 0.39709 0.51192 0.0
C998 C 0.04692 0.37154 0.47052 0.0
C999 C 0.17074 0.3335 0.52035 0.0
C1000 C 0.06033 0.28506 0.55386 0.0
C1001 C 0.06498 0.25399 0.53666 0.0
C1002 C 0.07236 0.31784 0.54044 0.0
C1003 C 0.08873 0.31938 0.50882 0.0
C1004 C 0.0907 0.28813 0.49041 0.0
C1005 C 0.07921 0.25569 0.50476 0.0
C1006 C 0.06933 0.35065 0.56085 0.0
C1007 C 0.10644 0.28824 0.45627 0.0
H1008 H 0.08059 0.43608 0.48222 0.0
H1009 H 0.1849 0.40319 0.5243 0.0
H1010 H 0.04579 0.34636 0.45671 0.0
H1011 H 0.02622 0.36852 0.49074 0.0
H1012 H 0.03805 0.393 0.45417 0.0
H1013 H 0.20084 0.34367 0.52296 0.0
H1014 H 0.16061 0.32393 0.54459 0.0
H1015 H 0.16937 0.31063 0.5035 0.0
H1016 H 0.04901 0.28354 0.57839 0.0
H1017 H 0.08201 0.23148 0.4912 0.0
H1018 H 0.05312 0.37016 0.54727 0.0
H1019 H 0.09811 0.36305 0.56595 0.0
H1020 H 0.05502 0.34496 0.58451 0.0
H1021 H 0.10638 0.31455 0.4444 0.0
H1022 H 0.08973 0.26882 0.4408 0.0
H1023 H 0.13609 0.28 0.45722 0.0
C1024 C 0.62001 0.36742 0.47479 0.0
C1025 C 0.60314 0.33499 0.48575 0.0
C1026 C 0.6142 0.39965 0.49134 0.0
C1027 C 0.59006 0.39995 0.5191 0.0
C1028 C 0.57456 0.36706 0.53098 0.0
C1029 C 0.58197 0.33542 0.51483 0.0
C1030 C 0.6329 0.43356 0.47834 0.0
C1031 C 0.54808 0.3653 0.5598 0.0
C1032 C 0.5851 0.47684 0.58049 0.0
C1033 C 0.55412 0.49498 0.56875 0.0
C1034 C 0.59834 0.44733 0.56374 0.0
C1035 C 0.57931 0.4342 0.53508 0.0
C1036 C 0.54785 0.45242 0.52326 0.0
C1037 C 0.5363 0.48279 0.53969 0.0
C1038 C 0.63296 0.43028 0.57672 0.0
C1039 C 0.5256 0.43924 0.49363 0.0
H1040 H 0.63631 0.36791 0.45247 0.0
H1041 H 0.56921 0.31072 0.52415 0.0
H1042 H 0.61144 0.44876 0.46544 0.0
H1043 H 0.64488 0.45021 0.49865 0.0
H1044 H 0.65597 0.42862 0.46095 0.0
H1045 H 0.53819 0.33778 0.56611 0.0
H1046 H 0.56238 0.37757 0.58154 0.0
H1047 H 0.52285 0.38046 0.55426 0.0
H1048 H 0.59969 0.48627 0.60249 0.0
H1049 H 0.51248 0.49654 0.53021 0.0
H1050 H 0.65364 0.42727 0.55679 0.0
H1051 H 0.62475 0.40347 0.58608 0.0
H1052 H 0.64723 0.44583 0.59678 0.0
H1053 H 0.54451 0.43885 0.47218 0.0
H1054 H 0.5016 0.45585 0.48767 0.0
H1055 H 0.5141 0.41173 0.49789 0.0
loop_
_geom_bond_atom_site_label_1
_geom_bond_atom_site_label_2
_geom_bond_distance
_geom_bond_site_symmetry_2
_ccdc_geom_bond_type
H0 C1 0.949 . S
C1 H0 0.949 . S
C1 C2 1.395 . S
C1 C3 1.391 . S
C2 C1 1.395 . S
C2 C5 1.390 . S
C3 C1 1.391 . S
C3 C7 1.387 . S
C3 C8 1.491 . S
H4 C5 0.950 . S
C5 C2 1.390 . S
C5 H4 0.950 . S
C5 C6 1.378 . S
C6 C5 1.378 . S
C6 C7 1.409 . S
C7 C3 1.387 . S
C7 C6 1.409 . S
C7 H9 0.951 . S
C8 C3 1.491 . S
C8 C10 1.382 . S
C8 C12 1.404 . S
H9 C7 0.951 . S
C10 C8 1.382 . S
C10 C11 1.390 . S
C10 H15 0.949 . S
C11 C10 1.390 . S
C11 C16 1.399 . S
C12 C8 1.404 . S
C12 H13 0.950 . S
C12 C14 1.375 . S
H13 C12 0.950 . S
C14 C12 1.375 . S
C14 C16 1.382 . S
C14 H18 0.950 . S
H15 C10 0.949 . S
C16 C11 1.399 . S
C16 C14 1.382 . S
C16 H17 0.952 . S
H17 C16 0.952 . S
H18 C14 0.950 . S
H19 C20 0.949 . S
C20 H19 0.949 . S
C20 C21 1.395 . S
C20 C22 1.391 . S
C21 C20 1.395 . S
C21 C24 1.390 . S
C22 C20 1.391 . S
C22 C26 1.387 . S
C22 C27 1.491 . S
H23 C24 0.950 . S
C24 C21 1.390 . S
C24 H23 0.950 . S
C24 C25 1.378 . S
C25 C24 1.378 . S
C25 C26 1.409 . S
C26 C22 1.387 . S
C26 C25 1.409 . S
C26 H28 0.951 . S
C27 C22 1.491 . S
C27 C29 1.382 . S
C27 C31 1.404 . S
H28 C26 0.951 . S
C29 C27 1.382 . S
C29 C30 1.390 . S
C29 H34 0.949 . S
C30 C29 1.390 . S
C30 C35 1.399 . S
C31 C27 1.404 . S
C31 H32 0.950 . S
C31 C33 1.375 . S
H32 C31 0.950 . S
C33 C31 1.375 . S
C33 C35 1.382 . S
C33 H37 0.950 . S
H34 C29 0.949 . S
C35 C30 1.399 . S
C35 C33 1.382 . S
C35 H36 0.952 . S
H36 C35 0.952 . S
H37 C33 0.950 . S
H38 C39 0.949 . S
C39 H38 0.949 . S
C39 C40 1.395 . S
C39 C41 1.391 . S
C40 C39 1.395 . S
C40 C43 1.390 . S
C41 C39 1.391 . S
C41 C45 1.387 . S
C41 C46 1.491 . S
H42 C43 0.950 . S
C43 C40 1.390 . S
C43 H42 0.950 . S
C43 C44 1.378 . S
C44 C43 1.378 . S
C44 C45 1.409 . S
C45 C41 1.387 . S
C45 C44 1.409 . S
C45 H47 0.951 . S
C46 C41 1.491 . S
C46 C48 1.382 . S
C46 C50 1.404 . S
H47 C45 0.951 . S
C48 C46 1.382 . S
C48 C49 1.390 . S
C48 H53 0.949 . S
C49 C48 1.390 . S
C49 C54 1.399 . S
C50 C46 1.404 . S
C50 H51 0.950 . S
C50 C52 1.375 . S
H51 C50 0.950 . S
C52 C50 1.375 . S
C52 C54 1.382 . S
C52 H56 0.950 . S
H53 C48 0.949 . S
C54 C49 1.399 . S
C54 C52 1.382 . S
C54 H55 0.952 . S
H55 C54 0.952 . S
H56 C52 0.950 . S
H57 C58 0.949 . S
C58 H57 0.949 . S
C58 C59 1.395 . S
C58 C60 1.391 . S
C59 C58 1.395 . S
C59 C62 1.390 . S
C60 C58 1.391 . S
C60 C64 1.387 . S
C60 C65 1.491 . S
H61 C62 0.950 . S
C62 C59 1.390 . S
C62 H61 0.950 . S
C62 C63 1.378 . S
C63 C62 1.378 . S
C63 C64 1.409 . S
C64 C60 1.387 . S
C64 C63 1.409 . S
C64 H66 0.951 . S
C65 C60 1.491 . S
C65 C67 1.382 . S
C65 C69 1.404 . S
H66 C64 0.951 . S
C67 C65 1.382 . S
C67 C68 1.390 . S
C67 H72 0.949 . S
C68 C67 1.390 . S
C68 C73 1.399 . S
C69 C65 1.404 . S
C69 H70 0.950 . S
C69 C71 1.375 . S
H70 C69 0.950 . S
C71 C69 1.375 . S
C71 C73 1.382 . S
C71 H75 0.950 . S
H72 C67 0.949 . S
C73 C68 1.399 . S
C73 C71 1.382 . S
C73 H74 0.952 . S
H74 C73 0.952 . S
H75 C71 0.950 . S
H76 C77 0.949 . S
C77 H76 0.949 . S
C77 C78 1.395 . S
C77 C79 1.391 . S
C78 C77 1.395 . S
C78 C81 1.390 . S
C79 C77 1.391 . S
C79 C83 1.387 . S
C79 C84 1.491 . S
H80 C81 0.950 . S
C81 C78 1.390 . S
C81 H80 0.950 . S
C81 C82 1.378 . S
C82 C81 1.378 . S
C82 C83 1.409 . S
C83 C79 1.387 . S
C83 C82 1.409 . S
C83 H85 0.951 . S
C84 C79 1.491 . S
C84 C86 1.382 . S
C84 C88 1.404 . S
H85 C83 0.951 . S
C86 C84 1.382 . S
C86 C87 1.390 . S
C86 H91 0.949 . S
C87 C86 1.390 . S
C87 C92 1.399 . S
C88 C84 1.404 . S
C88 H89 0.950 . S
C88 C90 1.375 . S
H89 C88 0.950 . S
C90 C88 1.375 . S
C90 C92 1.382 . S
C90 H94 0.950 . S
H91 C86 0.949 . S
C92 C87 1.399 . S
C92 C90 1.382 . S
C92 H93 0.952 . S
H93 C92 0.952 . S
H94 C90 0.950 . S
H95 C96 0.949 . S
C96 H95 0.949 . S
C96 C97 1.395 . S
C96 C98 1.391 . S
C97 C96 1.395 . S
C97 C100 1.390 . S
C98 C96 1.391 . S
C98 C102 1.387 . S
C98 C103 1.491 . S
H99 C100 0.950 . S
C100 C97 1.390 . S
C100 H99 0.950 . S
C100 C101 1.378 . S
C101 C100 1.378 . S
C101 C102 1.409 . S
C102 C98 1.387 . S
C102 C101 1.409 . S
C102 H104 0.951 . S
C103 C98 1.491 . S
C103 C105 1.382 . S
C103 C107 1.404 . S
H104 C102 0.951 . S
C105 C103 1.382 . S
C105 C106 1.390 . S
C105 H110 0.949 . S
C106 C105 1.390 . S
C106 C111 1.399 . S
C107 C103 1.404 . S
C107 H108 0.950 . S
C107 C109 1.375 . S
H108 C107 0.950 . S
C109 C107 1.375 . S
C109 C111 1.382 . S
C109 H113 0.950 . S
H110 C105 0.949 . S
C111 C106 1.399 . S
C111 C109 1.382 . S
C111 H112 0.952 . S
H112 C111 0.952 . S
H113 C109 0.950 . S
H114 C115 0.949 . S
C115 H114 0.949 . S
C115 C116 1.395 . S
C115 C117 1.391 . S
C116 C115 1.395 . S
C116 C119 1.390 . S
C117 C115 1.391 . S
C117 C121 1.387 . S
C117 C122 1.491 . S
H118 C119 0.950 . S
C119 C116 1.390 . S
C119 H118 0.950 . S
C119 C120 1.378 . S
C120 C119 1.378 . S
C120 C121 1.409 . S
C121 C117 1.387 . S
C121 C120 1.409 . S
C121 H123 0.951 . S
C122 C117 1.491 . S
C122 C124 1.382 . S
C122 C126 1.404 . S
H123 C121 0.951 . S
C124 C122 1.382 . S
C124 C125 1.390 . S
C124 H129 0.949 . S
C125 C124 1.390 . S
C125 C130 1.399 . S
C126 C122 1.404 . S
C126 H127 0.950 . S
C126 C128 1.375 . S
H127 C126 0.950 . S
C128 C126 1.375 . S
C128 C130 1.382 . S
C128 H132 0.950 . S
H129 C124 0.949 . S
C130 C125 1.399 . S
C130 C128 1.382 . S
C130 H131 0.952 . S
H131 C130 0.952 . S
H132 C128 0.950 . S
H133 C134 0.949 . S
C134 H133 0.949 . S
C134 C135 1.395 . S
C134 C136 1.391 . S
C135 C134 1.395 . S
C135 C138 1.390 . S
C136 C134 1.391 . S
C136 C140 1.387 . S
C136 C141 1.491 . S
H137 C138 0.950 . S
C138 C135 1.390 . S
C138 H137 0.950 . S
C138 C139 1.378 . S
C139 C138 1.378 . S
C139 C140 1.409 . S
C140 C136 1.387 . S
C140 C139 1.409 . S
C140 H142 0.951 . S
C141 C136 1.491 . S
C141 C143 1.382 . S
C141 C145 1.404 . S
H142 C140 0.951 . S
C143 C141 1.382 . S
C143 C144 1.390 . S
C143 H148 0.949 . S
C144 C143 1.390 . S
C144 C149 1.399 . S
C145 C141 1.404 . S
C145 H146 0.950 . S
C145 C147 1.375 . S
H146 C145 0.950 . S
C147 C145 1.375 . S
C147 C149 1.382 . S
C147 H151 0.950 . S
H148 C143 0.949 . S
C149 C144 1.399 . S
C149 C147 1.382 . S
C149 H150 0.952 . S
H150 C149 0.952 . S
H151 C147 0.950 . S
C152 O168 1.251 . S
C152 O170 1.254 . S
N153 C154 1.333 . S
N153 C158 1.307 . S
N153 Zn159 2.020 . S
C154 N153 1.333 . S
C154 C155 1.379 . S
C154 H172 0.952 . S
C155 C154 1.379 . S
C155 C156 1.390 . S
C155 H182 0.949 . S
C156 C155 1.390 . S
C156 C157 1.357 . S
C157 C156 1.357 . S
C157 C158 1.370 . S
C157 H183 0.950 . S
C158 N153 1.307 . S
C158 C157 1.370 . S
C158 H176 0.948 1_455 S
Zn159 N153 2.020 . S
Zn159 O168 2.039 . S
Zn159 O174 2.034 . S
Zn159 O178 2.025 1_455 S
Zn159 O180 2.024 1_455 S
C160 O179 1.246 . S
C160 O180 1.249 . S
N161 C162 1.307 . S
N161 C163 1.333 . S
N161 Zn167 2.020 1_565 S
C162 N161 1.307 . S
C162 C166 1.370 . S
C162 H173 0.948 1_655 S
C163 N161 1.333 . S
C163 C164 1.379 . S
C163 H171 0.952 . S
C164 C163 1.379 . S
C164 C165 1.390 . S
C164 H184 0.949 . S
C165 C164 1.390 . S
C165 C166 1.357 . S
C166 C162 1.370 . S
C166 C165 1.357 . S
C166 H185 0.950 . S
Zn167 N161 2.020 1_545 S
Zn167 O170 2.025 1_655 S
Zn167 O175 2.024 1_655 S
Zn167 O177 2.039 . S
Zn167 O179 2.034 . S
O168 C152 1.251 . S
O168 Zn159 2.039 . S
C169 O174 1.246 . S
C169 O175 1.249 . S
O170 C152 1.254 . S
O170 Zn167 2.025 1_455 S
H171 C163 0.952 . S
H172 C154 0.952 . S
H173 C162 0.948 1_455 S
O174 Zn159 2.034 . S
O174 C169 1.246 . S
O175 Zn167 2.024 1_455 S
O175 C169 1.249 . S
H176 C158 0.948 1_655 S
O177 Zn167 2.039 . S
O177 C181 1.251 . S
O178 Zn159 2.025 1_655 S
O178 C181 1.254 . S
O179 C160 1.246 . S
O179 Zn167 2.034 . S
O180 Zn159 2.024 1_655 S
O180 C160 1.249 . S
C181 O177 1.251 . S
C181 O178 1.254 . S
H182 C155 0.949 . S
H183 C157 0.950 . S
H184 C164 0.949 . S
H185 C166 0.950 . S
C186 O202 1.251 . S
C186 O204 1.254 . S
N187 C188 1.333 . S
N187 C192 1.307 . S
N187 Zn193 2.020 . S
C188 N187 1.333 . S
C188 C189 1.379 . S
C188 H206 0.952 . S
C189 C188 1.379 . S
C189 C190 1.390 . S
C189 H216 0.949 . S
C190 C189 1.390 . S
C190 C191 1.357 . S
C191 C190 1.357 . S
C191 C192 1.370 . S
C191 H217 0.950 . S
C192 N187 1.307 . S
C192 C191 1.370 . S
C192 H210 0.948 . S
Zn193 N187 2.020 . S
Zn193 O202 2.039 . S
Zn193 O208 2.034 . S
Zn193 O212 2.025 . S
Zn193 O214 2.024 . S
C194 O213 1.244 1_556 S
C194 O214 1.249 1_556 S
N195 C196 1.307 . S
N195 C197 1.333 . S
N195 Zn201 2.020 1_565 S
C196 N195 1.307 . S
C196 C200 1.370 . S
C196 H207 0.948 . S
C197 N195 1.333 . S
C197 C198 1.379 . S
C197 H205 0.952 . S
C198 C197 1.379 . S
C198 C199 1.390 . S
C198 H218 0.949 . S
C199 C198 1.390 . S
C199 C200 1.357 . S
C200 C196 1.370 . S
C200 C199 1.357 . S
C200 H219 0.950 . S
Zn201 N195 2.020 1_545 S
Zn201 O204 2.025 . S
Zn201 O209 2.024 . S
Zn201 O211 2.039 . S
Zn201 O213 2.034 . S
O202 C186 1.251 . S
O202 Zn193 2.039 . S
C203 O208 1.246 . S
C203 O209 1.249 . S
O204 C186 1.254 . S
O204 Zn201 2.025 . S
H205 C197 0.952 . S
H206 C188 0.952 . S
H207 C196 0.948 . S
O208 Zn193 2.034 . S
O208 C203 1.246 . S
O209 Zn201 2.024 . S
O209 C203 1.249 . S
H210 C192 0.948 . S
O211 Zn201 2.039 . S
O211 C215 1.251 . S
O212 Zn193 2.025 . S
O212 C215 1.254 . S
O213 C194 1.244 1_554 S
O213 Zn201 2.034 . S
O214 Zn193 2.024 . S
O214 C194 1.249 1_554 S
C215 O211 1.251 . S
C215 O212 1.254 . S
H216 C189 0.949 . S
H217 C191 0.950 . S
H218 C198 0.949 . S
H219 C200 0.950 . S
C220 O236 1.251 . S
C220 O238 1.254 . S
N221 C222 1.333 . S
N221 C226 1.307 . S
N221 Zn227 2.020 . S
C222 N221 1.333 . S
C222 C223 1.379 . S
C222 H240 0.952 . S
C223 C222 1.379 . S
C223 C224 1.390 . S
C223 H250 0.949 . S
C224 C223 1.390 . S
C224 C225 1.357 . S
C225 C224 1.357 . S
C225 C226 1.370 . S
C225 H251 0.950 . S
C226 N221 1.307 . S
C226 C225 1.370 . S
C226 H244 0.948 . S
Zn227 N221 2.020 . S
Zn227 O236 2.039 . S
Zn227 O242 2.034 . S
Zn227 O246 2.025 . S
Zn227 O248 2.024 . S
C228 O247 1.246 . S
C228 O248 1.249 . S
N229 C230 1.307 . S
N229 C231 1.333 . S
N229 Zn235 2.020 . S
C230 N229 1.307 . S
C230 C234 1.370 . S
C230 H241 0.948 . S
C231 N229 1.333 . S
C231 C232 1.379 . S
C231 H239 0.952 . S
C232 C231 1.379 . S
C232 C233 1.390 . S
C232 H252 0.949 . S
C233 C232 1.390 . S
C233 C234 1.357 . S
C234 C230 1.370 . S
C234 C233 1.357 . S
C234 H253 0.950 . S
Zn235 N229 2.020 . S
Zn235 O238 2.025 . S
Zn235 O243 2.024 . S
Zn235 O245 2.039 . S
Zn235 O247 2.034 . S
O236 C220 1.251 . S
O236 Zn227 2.039 . S
C237 O242 1.246 . S
C237 O243 1.249 . S
O238 C220 1.254 . S
O238 Zn235 2.025 . S
H239 C231 0.952 . S
H240 C222 0.952 . S
H241 C230 0.948 . S
O242 Zn227 2.034 . S
O242 C237 1.246 . S
O243 Zn235 2.024 . S
O243 C237 1.249 . S
H244 C226 0.948 . S
O245 Zn235 2.039 . S
O245 C249 1.251 . S
O246 Zn227 2.025 . S
O246 C249 1.254 . S
O247 C228 1.246 . S
O247 Zn235 2.034 . S
O248 Zn227 2.024 . S
O248 C228 1.249 . S
C249 O245 1.251 . S
C249 O246 1.254 . S
H250 C223 0.949 . S
H251 C225 0.950 . S
H252 C232 0.949 . S
H253 C234 0.950 . S
C254 O270 1.249 . S
C254 O272 1.256 1_654 S
N255 C256 1.333 . S
N255 C260 1.307 . S
N255 Zn261 2.020 . S
C256 N255 1.333 . S
C256 C257 1.379 . S
C256 H274 0.952 . S
C257 C256 1.379 . S
C257 C258 1.390 . S
C257 H284 0.949 . S
C258 C257 1.390 . S
C258 C259 1.357 . S
C259 C258 1.357 . S
C259 C260 1.370 . S
C259 H285 0.950 . S
C260 N255 1.307 . S
C260 C259 1.370 . S
C260 H278 0.948 . S
Zn261 N255 2.020 . S
Zn261 O270 2.039 . S
Zn261 O276 2.034 1_655 S
Zn261 O280 2.025 1_655 S
Zn261 O282 2.024 . S
C262 O281 1.246 . S
C262 O282 1.249 1_556 S
N263 C264 1.307 . S
N263 C265 1.333 . S
N263 Zn269 2.020 . S
C264 N263 1.307 . S
C264 C268 1.370 . S
C264 H275 0.948 . S
C265 N263 1.333 . S
C265 C266 1.379 . S
C265 H273 0.952 . S
C266 C265 1.379 . S
C266 C267 1.390 . S
C266 H286 0.949 . S
C267 C266 1.390 . S
C267 C268 1.357 . S
C268 C264 1.370 . S
C268 C267 1.357 . S
C268 H287 0.950 . S
Zn269 N263 2.020 . S
Zn269 O272 2.025 . S
Zn269 O277 2.024 1_556 S
Zn269 O279 2.039 1_556 S
Zn269 O281 2.034 1_455 S
O270 C254 1.249 . S
O270 Zn261 2.039 . S
C271 O276 1.246 . S
C271 O277 1.249 . S
O272 C254 1.256 1_456 S
O272 Zn269 2.025 . S
H273 C265 0.952 . S
H274 C256 0.952 . S
H275 C264 0.948 . S
O276 Zn261 2.034 1_455 S
O276 C271 1.246 . S
O277 Zn269 2.024 1_554 S
O277 C271 1.249 . S
H278 C260 0.948 . S
O279 Zn269 2.039 1_554 S
O279 C283 1.251 . S
O280 Zn261 2.025 1_455 S
O280 C283 1.254 . S
O281 C262 1.246 . S
O281 Zn269 2.034 1_655 S
O282 Zn261 2.024 . S
O282 C262 1.249 1_554 S
C283 O279 1.251 . S
C283 O280 1.254 . S
H284 C257 0.949 . S
H285 C259 0.950 . S
H286 C266 0.949 . S
H287 C268 0.950 . S
C288 C289 1.391 . S
C288 C290 1.394 . S
C288 H304 0.931 . S
C289 C288 1.391 . S
C289 C293 1.376 . S
C290 C288 1.394 . S
C290 C291 1.369 . S
C290 C294 1.531 . S
C291 C290 1.369 . S
C291 C292 1.410 . S
C291 C299 1.503 . S
C292 C291 1.410 . S
C292 C293 1.392 . S
C292 C295 1.511 . S
C293 C289 1.376 . S
C293 C292 1.392 . S
C293 H305 0.929 . S
C294 C290 1.531 . S
C294 H306 0.960 . S
C294 H307 0.962 1_455 S
C294 H308 0.960 . S
C295 C292 1.511 . S
C295 H309 0.961 . S
C295 H310 0.961 . S
C295 H311 0.961 . S
C296 C297 1.370 . S
C296 C298 1.363 . S
C296 H312 0.931 . S
C297 C296 1.370 . S
C297 C301 1.408 . S
C298 C296 1.363 . S
C298 C299 1.370 . S
C298 C302 1.524 . S
C299 C291 1.503 . S
C299 C298 1.370 . S
C299 C300 1.403 . S
C300 C299 1.403 . S
C300 C301 1.404 . S
C300 C303 1.539 . S
C301 C297 1.408 . S
C301 C300 1.404 . S
C301 H313 0.930 . S
C302 C298 1.524 . S
C302 H314 0.956 . S
C302 H315 0.961 . S
C302 H316 0.961 . S
C303 C300 1.539 . S
C303 H317 0.958 . S
C303 H318 0.961 . S
C303 H319 0.960 . S
H304 C288 0.931 . S
H305 C293 0.929 . S
H306 C294 0.960 . S
H307 C294 0.962 1_655 S
H308 C294 0.960 . S
H309 C295 0.961 . S
H310 C295 0.961 . S
H311 C295 0.961 . S
H312 C296 0.931 . S
H313 C301 0.930 . S
H314 C302 0.956 . S
H315 C302 0.961 . S
H316 C302 0.961 . S
H317 C303 0.958 . S
H318 C303 0.961 . S
H319 C303 0.960 . S
C320 C321 1.391 . S
C320 C322 1.394 . S
C320 H336 0.931 . S
C321 C320 1.391 . S
C321 C325 1.376 . S
C322 C320 1.394 . S
C322 C323 1.369 . S
C322 C326 1.531 . S
C323 C322 1.369 . S
C323 C324 1.410 . S
C323 C331 1.503 . S
C324 C323 1.410 . S
C324 C325 1.392 . S
C324 C327 1.511 . S
C325 C321 1.376 . S
C325 C324 1.392 . S
C325 H337 0.929 . S
C326 C322 1.531 . S
C326 H338 0.960 . S
C326 H339 0.962 1_565 S
C326 H340 0.960 . S
C327 C324 1.511 . S
C327 H341 0.961 . S
C327 H342 0.961 . S
C327 H343 0.961 . S
C328 C329 1.370 . S
C328 C330 1.363 . S
C328 H344 0.931 . S
C329 C328 1.370 . S
C329 C333 1.408 1_545 S
C330 C328 1.363 . S
C330 C331 1.370 1_545 S
C330 C334 1.524 . S
C331 C323 1.503 . S
C331 C330 1.370 1_565 S
C331 C332 1.403 . S
C332 C331 1.403 . S
C332 C333 1.404 . S
C332 C335 1.539 . S
C333 C329 1.408 1_565 S
C333 C332 1.404 . S
C333 H345 0.930 . S
C334 C330 1.524 . S
C334 H346 0.956 . S
C334 H347 0.961 . S
C334 H348 0.961 . S
C335 C332 1.539 . S
C335 H349 0.958 . S
C335 H350 0.961 . S
C335 H351 0.960 . S
H336 C320 0.931 . S
H337 C325 0.929 . S
H338 C326 0.960 . S
H339 C326 0.962 1_545 S
H340 C326 0.960 . S
H341 C327 0.961 . S
H342 C327 0.961 . S
H343 C327 0.961 . S
H344 C328 0.931 . S
H345 C333 0.930 . S
H346 C334 0.956 . S
H347 C334 0.961 . S
H348 C334 0.961 . S
H349 C335 0.958 . S
H350 C335 0.961 . S
H351 C335 0.960 . S
C352 C353 1.391 . S
C352 C354 1.394 . S
C352 H368 0.931 . S
C353 C352 1.391 . S
C353 C357 1.376 . S
C354 C352 1.394 . S
C354 C355 1.369 . S
C354 C358 1.531 . S
C355 C354 1.369 . S
C355 C356 1.410 . S
C355 C363 1.503 . S
C356 C355 1.410 . S
C356 C357 1.392 . S
C356 C359 1.511 . S
C357 C353 1.376 . S
C357 C356 1.392 . S
C357 H369 0.929 . S
C358 C354 1.531 . S
C358 H370 0.960 . S
C358 H371 0.962 . S
C358 H372 0.960 . S
C359 C356 1.511 . S
C359 H373 0.961 . S
C359 H374 0.961 . S
C359 H375 0.961 . S
C360 C361 1.370 . S
C360 C362 1.363 . S
C360 H376 0.931 . S
C361 C360 1.370 . S
C361 C365 1.408 . S
C362 C360 1.363 . S
C362 C363 1.370 . S
C362 C366 1.524 . S
C363 C355 1.503 . S
C363 C362 1.370 . S
C363 C364 1.403 . S
C364 C363 1.403 . S
C364 C365 1.404 . S
C364 C367 1.539 . S
C365 C361 1.408 . S
C365 C364 1.404 . S
C365 H377 0.930 . S
C366 C362 1.524 . S
C366 H378 0.956 . S
C366 H379 0.961 . S
C366 H380 0.961 . S
C367 C364 1.539 . S
C367 H381 0.958 . S
C367 H382 0.961 . S
C367 H383 0.960 . S
H368 C352 0.931 . S
H369 C357 0.929 . S
H370 C358 0.960 . S
H371 C358 0.962 . S
H372 C358 0.960 . S
H373 C359 0.961 . S
H374 C359 0.961 . S
H375 C359 0.961 . S
H376 C360 0.931 . S
H377 C365 0.930 . S
H378 C366 0.956 . S
H379 C366 0.961 . S
H380 C366 0.961 . S
H381 C367 0.958 . S
H382 C367 0.961 . S
H383 C367 0.960 . S
C384 C385 1.391 . S
C384 C386 1.394 . S
C384 H400 0.931 . S
C385 C384 1.391 . S
C385 C389 1.376 . S
C386 C384 1.394 . S
C386 C387 1.369 . S
C386 C390 1.531 . S
C387 C386 1.369 . S
C387 C388 1.410 . S
C387 C395 1.503 . S
C388 C387 1.410 . S
C388 C389 1.392 . S
C388 C391 1.511 . S
C389 C385 1.376 . S
C389 C388 1.392 . S
C389 H401 0.929 . S
C390 C386 1.531 . S
C390 H402 0.960 . S
C390 H403 0.962 . S
C390 H404 0.960 . S
C391 C388 1.511 . S
C391 H405 0.961 . S
C391 H406 0.961 . S
C391 H407 0.961 . S
C392 C393 1.370 . S
C392 C394 1.363 . S
C392 H408 0.931 . S
C393 C392 1.370 . S
C393 C397 1.408 . S
C394 C392 1.363 . S
C394 C395 1.370 . S
C394 C398 1.524 . S
C395 C387 1.503 . S
C395 C394 1.370 . S
C395 C396 1.403 . S
C396 C395 1.403 . S
C396 C397 1.404 . S
C396 C399 1.539 . S
C397 C393 1.408 . S
C397 C396 1.404 . S
C397 H409 0.930 . S
C398 C394 1.524 . S
C398 H410 0.956 . S
C398 H411 0.961 . S
C398 H412 0.961 . S
C399 C396 1.539 . S
C399 H413 0.958 . S
C399 H414 0.961 . S
C399 H415 0.960 . S
H400 C384 0.931 . S
H401 C389 0.929 . S
H402 C390 0.960 . S
H403 C390 0.962 . S
H404 C390 0.960 . S
H405 C391 0.961 . S
H406 C391 0.961 . S
H407 C391 0.961 . S
H408 C392 0.931 . S
H409 C397 0.930 . S
H410 C398 0.956 . S
H411 C398 0.961 . S
H412 C398 0.961 . S
H413 C399 0.958 . S
H414 C399 0.961 . S
H415 C399 0.960 . S
C416 C417 1.391 . S
C416 C418 1.394 . S
C416 H432 0.931 . S
C417 C416 1.391 . S
C417 C421 1.376 . S
C418 C416 1.394 . S
C418 C419 1.369 . S
C418 C422 1.531 . S
C419 C418 1.369 . S
C419 C420 1.410 . S
C419 C427 1.503 . S
C420 C419 1.410 . S
C420 C421 1.392 . S
C420 C423 1.511 . S
C421 C417 1.376 . S
C421 C420 1.392 . S
C421 H433 0.929 . S
C422 C418 1.531 . S
C422 H434 0.960 . S
C422 H435 0.962 . S
C422 H436 0.960 . S
C423 C420 1.511 . S
C423 H437 0.961 . S
C423 H438 0.961 . S
C423 H439 0.961 . S
C424 C425 1.370 . S
C424 C426 1.363 . S
C424 H440 0.931 . S
C425 C424 1.370 . S
C425 C429 1.408 . S
C426 C424 1.363 . S
C426 C427 1.370 . S
C426 C430 1.524 . S
C427 C419 1.503 . S
C427 C426 1.370 . S
C427 C428 1.403 . S
C428 C427 1.403 . S
C428 C429 1.404 . S
C428 C431 1.539 . S
C429 C425 1.408 . S
C429 C428 1.404 . S
C429 H441 0.930 . S
C430 C426 1.524 . S
C430 H442 0.956 . S
C430 H443 0.961 . S
C430 H444 0.961 . S
C431 C428 1.539 . S
C431 H445 0.958 . S
C431 H446 0.961 . S
C431 H447 0.960 . S
H432 C416 0.931 . S
H433 C421 0.929 . S
H434 C422 0.960 . S
H435 C422 0.962 . S
H436 C422 0.960 . S
H437 C423 0.961 . S
H438 C423 0.961 . S
H439 C423 0.961 . S
H440 C424 0.931 . S
H441 C429 0.930 . S
H442 C430 0.956 . S
H443 C430 0.961 . S
H444 C430 0.961 . S
H445 C431 0.958 . S
H446 C431 0.961 . S
H447 C431 0.960 . S
C448 C449 1.391 . S
C448 C450 1.394 . S
C448 H464 0.931 . S
C449 C448 1.391 . S
C449 C453 1.376 1_565 S
C450 C448 1.394 . S
C450 C451 1.369 1_565 S
C450 C454 1.531 . S
C451 C450 1.369 1_545 S
C451 C452 1.410 . S
C451 C459 1.503 . S
C452 C451 1.410 . S
C452 C453 1.392 . S
C452 C455 1.511 . S
C453 C449 1.376 1_545 S
C453 C452 1.392 . S
C453 H465 0.929 . S
C454 C450 1.531 . S
C454 H466 0.960 . S
C454 H467 0.962 . S
C454 H468 0.960 . S
C455 C452 1.511 . S
C455 H469 0.961 . S
C455 H470 0.961 . S
C455 H471 0.961 . S
C456 C457 1.370 1_565 S
C456 C458 1.363 . S
C456 H472 0.931 . S
C457 C456 1.370 1_545 S
C457 C461 1.408 . S
C458 C456 1.363 . S
C458 C459 1.370 1_565 S
C458 C462 1.524 . S
C459 C451 1.503 . S
C459 C458 1.370 1_545 S
C459 C460 1.403 . S
C460 C459 1.403 . S
C460 C461 1.404 . S
C460 C463 1.539 . S
C461 C457 1.408 . S
C461 C460 1.404 . S
C461 H473 0.930 . S
C462 C458 1.524 . S
C462 H474 0.956 . S
C462 H475 0.961 . S
C462 H476 0.961 . S
C463 C460 1.539 . S
C463 H477 0.958 . S
C463 H478 0.961 . S
C463 H479 0.960 . S
H464 C448 0.931 . S
H465 C453 0.929 . S
H466 C454 0.960 . S
H467 C454 0.962 . S
H468 C454 0.960 . S
H469 C455 0.961 . S
H470 C455 0.961 . S
H471 C455 0.961 . S
H472 C456 0.931 . S
H473 C461 0.930 . S
H474 C462 0.956 . S
H475 C462 0.961 . S
H476 C462 0.961 . S
H477 C463 0.958 . S
H478 C463 0.961 . S
H479 C463 0.960 . S
C480 C481 1.391 . S
C480 C482 1.394 . S
C480 H496 0.931 . S
C481 C480 1.391 . S
C481 C485 1.376 . S
C482 C480 1.394 . S
C482 C483 1.369 . S
C482 C486 1.531 . S
C483 C482 1.369 . S
C483 C484 1.410 . S
C483 C491 1.503 . S
C484 C483 1.410 . S
C484 C485 1.392 . S
C484 C487 1.511 . S
C485 C481 1.376 . S
C485 C484 1.392 . S
C485 H497 0.929 . S
C486 C482 1.531 . S
C486 H498 0.968 . S
C486 H499 0.962 . S
C486 H500 0.960 . S
C487 C484 1.511 . S
C487 H501 0.961 . S
C487 H502 0.961 . S
C487 H503 0.961 1_556 S
C488 C489 1.370 . S
C488 C490 1.363 . S
C488 H504 0.931 . S
C489 C488 1.370 . S
C489 C493 1.408 1_556 S
C490 C488 1.363 . S
C490 C491 1.370 . S
C490 C494 1.524 . S
C491 C483 1.503 . S
C491 C490 1.370 . S
C491 C492 1.403 1_556 S
C492 C491 1.403 1_554 S
C492 C493 1.404 . S
C492 C495 1.539 . S
C493 C489 1.408 1_554 S
C493 C492 1.404 . S
C493 H505 0.930 . S
C494 C490 1.524 . S
C494 H506 0.956 . S
C494 H507 0.961 . S
C494 H508 0.961 . S
C495 C492 1.539 . S
C495 H509 0.958 . S
C495 H510 0.961 . S
C495 H511 0.960 . S
H496 C480 0.931 . S
H497 C485 0.929 . S
H498 C486 0.968 . S
H499 C486 0.962 . S
H500 C486 0.960 . S
H501 C487 0.961 . S
H502 C487 0.961 . S
H503 C487 0.961 1_554 S
H504 C488 0.931 . S
H505 C493 0.930 . S
H506 C494 0.956 . S
H507 C494 0.961 . S
H508 C494 0.961 . S
H509 C495 0.958 . S
H510 C495 0.961 . S
H511 C495 0.960 . S
C512 C513 1.391 . S
C512 C514 1.394 . S
C512 H528 0.931 . S
C513 C512 1.391 . S
C513 C517 1.376 . S
C514 C512 1.394 . S
C514 C515 1.369 . S
C514 C518 1.531 . S
C515 C514 1.369 . S
C515 C516 1.410 . S
C515 C523 1.503 . S
C516 C515 1.410 . S
C516 C517 1.392 . S
C516 C519 1.511 . S
C517 C513 1.376 . S
C517 C516 1.392 . S
C517 H529 0.929 . S
C518 C514 1.531 . S
C518 H530 0.960 . S
C518 H531 0.962 . S
C518 H532 0.960 . S
C519 C516 1.511 . S
C519 H533 0.961 . S
C519 H534 0.961 . S
C519 H535 0.961 . S
C520 C521 1.370 . S
C520 C522 1.363 . S
C520 H536 0.931 . S
C521 C520 1.370 . S
C521 C525 1.408 . S
C522 C520 1.363 . S
C522 C523 1.370 . S
C522 C526 1.524 . S
C523 C515 1.503 . S
C523 C522 1.370 . S
C523 C524 1.403 . S
C524 C523 1.403 . S
C524 C525 1.404 . S
C524 C527 1.539 . S
C525 C521 1.408 . S
C525 C524 1.404 . S
C525 H537 0.930 . S
C526 C522 1.524 . S
C526 H538 0.956 . S
C526 H539 0.961 . S
C526 H540 0.961 . S
C527 C524 1.539 . S
C527 H541 0.958 . S
C527 H542 0.961 . S
C527 H543 0.960 . S
H528 C512 0.931 . S
H529 C517 0.929 . S
H530 C518 0.960 . S
H531 C518 0.962 . S
H532 C518 0.960 . S
H533 C519 0.961 . S
H534 C519 0.961 . S
H535 C519 0.961 . S
H536 C520 0.931 . S
H537 C525 0.930 . S
H538 C526 0.956 . S
H539 C526 0.961 . S
H540 C526 0.961 . S
H541 C527 0.958 . S
H542 C527 0.961 . S
H543 C527 0.960 . S
C544 C545 1.391 . S
C544 C546 1.394 . S
C544 H560 0.931 . S
C545 C544 1.391 . S
C545 C549 1.376 . S
C546 C544 1.394 . S
C546 C547 1.369 . S
C546 C550 1.531 1_455 S
C547 C546 1.369 . S
C547 C548 1.410 . S
C547 C555 1.503 . S
C548 C547 1.410 . S
C548 C549 1.392 . S
C548 C551 1.511 . S
C549 C545 1.376 . S
C549 C548 1.392 . S
C549 H561 0.929 . S
C550 C546 1.531 1_655 S
C550 H562 0.960 . S
C550 H563 0.962 . S
C550 H564 0.960 . S
C551 C548 1.511 . S
C551 H565 0.961 . S
C551 H566 0.961 . S
C551 H567 0.961 . S
C552 C553 1.370 . S
C552 C554 1.363 . S
C552 H568 0.931 . S
C553 C552 1.370 . S
C553 C557 1.408 . S
C554 C552 1.363 . S
C554 C555 1.370 . S
C554 C558 1.524 . S
C555 C547 1.503 . S
C555 C554 1.370 . S
C555 C556 1.403 . S
C556 C555 1.403 . S
C556 C557 1.404 . S
C556 C559 1.539 . S
C557 C553 1.408 . S
C557 C556 1.404 . S
C557 H569 0.930 . S
C558 C554 1.524 . S
C558 H570 0.956 . S
C558 H571 0.961 . S
C558 H572 0.961 . S
C559 C556 1.539 . S
C559 H573 0.958 . S
C559 H574 0.961 . S
C559 H575 0.960 . S
H560 C544 0.931 . S
H561 C549 0.929 . S
H562 C550 0.960 . S
H563 C550 0.962 . S
H564 C550 0.960 . S
H565 C551 0.961 . S
H566 C551 0.961 . S
H567 C551 0.961 . S
H568 C552 0.931 . S
H569 C557 0.930 . S
H570 C558 0.956 . S
H571 C558 0.961 . S
H572 C558 0.961 . S
H573 C559 0.958 . S
H574 C559 0.961 . S
H575 C559 0.960 . S
C576 C577 1.391 1_554 S
C576 C578 1.394 . S
C576 H592 0.931 . S
C577 C576 1.391 1_556 S
C577 C581 1.376 . S
C578 C576 1.394 . S
C578 C579 1.360 1_554 S
C578 C582 1.531 . S
C579 C578 1.360 1_556 S
C579 C580 1.424 . S
C579 C587 1.501 1_556 S
C580 C579 1.424 . S
C580 C581 1.392 . S
C580 C583 1.511 . S
C581 C577 1.376 . S
C581 C580 1.392 . S
C581 H593 0.929 . S
C582 C578 1.531 . S
C582 H594 0.960 . S
C582 H595 0.962 . S
C582 H596 0.960 . S
C583 C580 1.511 . S
C583 H597 0.961 . S
C583 H598 0.961 . S
C583 H599 0.961 . S
C584 C585 1.370 1_556 S
C584 C586 1.363 . S
C584 H600 0.931 . S
C585 C584 1.370 1_554 S
C585 C589 1.408 . S
C586 C584 1.363 . S
C586 C587 1.370 1_556 S
C586 C590 1.524 . S
C587 C579 1.501 1_554 S
C587 C586 1.370 1_554 S
C587 C588 1.403 . S
C588 C587 1.403 . S
C588 C589 1.404 . S
C588 C591 1.539 . S
C589 C585 1.408 . S
C589 C588 1.404 . S
C589 H601 0.930 . S
C590 C586 1.524 . S
C590 H602 0.956 . S
C590 H603 0.961 . S
C590 H604 0.961 . S
C591 C588 1.539 . S
C591 H605 0.958 . S
C591 H606 0.961 . S
C591 H607 0.960 . S
H592 C576 0.931 . S
H593 C581 0.929 . S
H594 C582 0.960 . S
H595 C582 0.962 . S
H596 C582 0.960 . S
H597 C583 0.961 . S
H598 C583 0.961 . S
H599 C583 0.961 . S
H600 C584 0.931 . S
H601 C589 0.930 . S
H602 C590 0.956 . S
H603 C590 0.961 . S
H604 C590 0.961 . S
H605 C591 0.958 . S
H606 C591 0.961 . S
H607 C591 0.960 . S
C608 C609 1.391 . S
C608 C610 1.394 . S
C608 H624 0.931 . S
C609 C608 1.391 . S
C609 C613 1.376 . S
C610 C608 1.394 . S
C610 C611 1.369 . S
C610 C614 1.531 . S
C611 C610 1.369 . S
C611 C612 1.410 . S
C611 C619 1.503 . S
C612 C611 1.410 . S
C612 C613 1.392 . S
C612 C615 1.511 . S
C613 C609 1.376 . S
C613 C612 1.392 . S
C613 H625 0.929 . S
C614 C610 1.531 . S
C614 H626 0.960 . S
C614 H627 0.962 . S
C614 H628 0.960 . S
C615 C612 1.511 . S
C615 H629 0.961 . S
C615 H630 0.961 . S
C615 H631 0.961 . S
C616 C617 1.370 . S
C616 C618 1.363 . S
C616 H632 0.931 . S
C617 C616 1.370 . S
C617 C621 1.408 . S
C618 C616 1.363 . S
C618 C619 1.370 . S
C618 C622 1.524 . S
C619 C611 1.503 . S
C619 C618 1.370 . S
C619 C620 1.403 . S
C620 C619 1.403 . S
C620 C621 1.404 . S
C620 C623 1.539 . S
C621 C617 1.408 . S
C621 C620 1.404 . S
C621 H633 0.930 . S
C622 C618 1.524 . S
C622 H634 0.956 . S
C622 H635 0.961 . S
C622 H636 0.961 . S
C623 C620 1.539 . S
C623 H637 0.958 . S
C623 H638 0.961 . S
C623 H639 0.960 . S
H624 C608 0.931 . S
H625 C613 0.929 . S
H626 C614 0.960 . S
H627 C614 0.962 . S
H628 C614 0.960 . S
H629 C615 0.961 . S
H630 C615 0.961 . S
H631 C615 0.961 . S
H632 C616 0.931 . S
H633 C621 0.930 . S
H634 C622 0.956 . S
H635 C622 0.961 . S
H636 C622 0.961 . S
H637 C623 0.958 . S
H638 C623 0.961 . S
H639 C623 0.960 . S
C640 C641 1.391 . S
C640 C642 1.394 . S
C640 H656 0.931 . S
C641 C640 1.391 . S
C641 C645 1.376 . S
C642 C640 1.394 . S
C642 C643 1.369 . S
C642 C646 1.531 . S
C643 C642 1.369 . S
C643 C644 1.410 . S
C643 C651 1.503 . S
C644 C643 1.410 . S
C644 C645 1.392 . S
C644 C647 1.511 . S
C645 C641 1.376 . S
C645 C644 1.392 . S
C645 H657 0.929 . S
C646 C642 1.531 . S
C646 H658 0.960 . S
C646 H659 0.962 . S
C646 H660 0.960 . S
C647 C644 1.511 . S
C647 H661 0.961 . S
C647 H662 0.961 . S
C647 H663 0.961 . S
C648 C649 1.370 . S
C648 C650 1.363 . S
C648 H664 0.931 . S
C649 C648 1.370 . S
C649 C653 1.408 . S
C650 C648 1.363 . S
C650 C651 1.370 . S
C650 C654 1.524 . S
C651 C643 1.503 . S
C651 C650 1.370 . S
C651 C652 1.403 . S
C652 C651 1.403 . S
C652 C653 1.404 . S
C652 C655 1.539 . S
C653 C649 1.408 . S
C653 C652 1.404 . S
C653 H665 0.930 . S
C654 C650 1.524 . S
C654 H666 0.956 . S
C654 H667 0.961 . S
C654 H668 0.961 . S
C655 C652 1.539 . S
C655 H669 0.958 . S
C655 H670 0.961 . S
C655 H671 0.960 . S
H656 C640 0.931 . S
H657 C645 0.929 . S
H658 C646 0.960 . S
H659 C646 0.962 . S
H660 C646 0.960 . S
H661 C647 0.961 . S
H662 C647 0.961 . S
H663 C647 0.961 . S
H664 C648 0.931 . S
H665 C653 0.930 . S
H666 C654 0.956 . S
H667 C654 0.961 . S
H668 C654 0.961 . S
H669 C655 0.958 . S
H670 C655 0.961 . S
H671 C655 0.960 . S
C672 C673 1.391 . S
C672 C674 1.394 . S
C672 H688 0.931 . S
C673 C672 1.391 . S
C673 C677 1.376 . S
C674 C672 1.394 . S
C674 C675 1.369 . S
C674 C678 1.531 . S
C675 C674 1.369 . S
C675 C676 1.410 . S
C675 C683 1.503 . S
C676 C675 1.410 . S
C676 C677 1.392 . S
C676 C679 1.512 1_665 S
C677 C673 1.376 . S
C677 C676 1.392 . S
C677 H689 0.929 . S
C678 C674 1.531 . S
C678 H690 0.960 . S
C678 H691 0.962 . S
C678 H692 0.960 . S
C679 C676 1.512 1_445 S
C679 H693 0.962 1_545 S
C679 H694 0.962 1_545 S
C679 H695 0.959 . S
C680 C681 1.370 1_565 S
C680 C682 1.363 . S
C680 H696 0.931 . S
C681 C680 1.370 1_545 S
C681 C685 1.408 . S
C682 C680 1.363 . S
C682 C683 1.370 . S
C682 C686 1.524 . S
C683 C675 1.503 . S
C683 C682 1.370 . S
C683 C684 1.403 1_565 S
C684 C683 1.403 1_545 S
C684 C685 1.404 . S
C684 C687 1.539 . S
C685 C681 1.408 . S
C685 C684 1.404 . S
C685 H697 0.930 . S
C686 C682 1.524 . S
C686 H698 0.956 . S
C686 H699 0.961 . S
C686 H700 0.961 . S
C687 C684 1.539 . S
C687 H701 0.958 . S
C687 H702 0.961 . S
C687 H703 0.960 . S
H688 C672 0.931 . S
H689 C677 0.929 . S
H690 C678 0.960 . S
H691 C678 0.962 . S
H692 C678 0.960 . S
H693 C679 0.962 1_565 S
H694 C679 0.962 1_565 S
H695 C679 0.959 . S
H696 C680 0.931 . S
H697 C685 0.930 . S
H698 C686 0.956 . S
H699 C686 0.961 . S
H700 C686 0.961 . S
H701 C687 0.958 . S
H702 C687 0.961 . S
H703 C687 0.960 . S
C704 C705 1.391 . S
C704 C706 1.394 . S
C704 H720 0.931 . S
C705 C704 1.391 . S
C705 C709 1.376 . S
C706 C704 1.394 . S
C706 C707 1.369 . S
C706 C710 1.531 . S
C707 C706 1.369 . S
C707 C708 1.410 . S
C707 C715 1.503 . S
C708 C707 1.410 . S
C708 C709 1.392 . S
C708 C711 1.511 . S
C709 C705 1.376 . S
C709 C708 1.392 . S
C709 H721 0.929 . S
C710 C706 1.531 . S
C710 H722 0.960 . S
C710 H723 0.962 . S
C710 H724 0.960 . S
C711 C708 1.511 . S
C711 H725 0.961 . S
C711 H726 0.961 . S
C711 H727 0.961 . S
C712 C713 1.370 . S
C712 C714 1.363 . S
C712 H728 0.931 . S
C713 C712 1.370 . S
C713 C717 1.408 . S
C714 C712 1.363 . S
C714 C715 1.370 . S
C714 C718 1.524 . S
C715 C707 1.503 . S
C715 C714 1.370 . S
C715 C716 1.403 . S
C716 C715 1.403 . S
C716 C717 1.404 . S
C716 C719 1.539 . S
C717 C713 1.408 . S
C717 C716 1.404 . S
C717 H729 0.930 . S
C718 C714 1.524 . S
C718 H730 0.956 . S
C718 H731 0.961 . S
C718 H732 0.961 . S
C719 C716 1.539 . S
C719 H733 0.958 . S
C719 H734 0.961 . S
C719 H735 0.960 . S
H720 C704 0.931 . S
H721 C709 0.929 . S
H722 C710 0.960 . S
H723 C710 0.962 . S
H724 C710 0.960 . S
H725 C711 0.961 . S
H726 C711 0.961 . S
H727 C711 0.961 . S
H728 C712 0.931 . S
H729 C717 0.930 . S
H730 C718 0.956 . S
H731 C718 0.961 . S
H732 C718 0.961 . S
H733 C719 0.958 . S
H734 C719 0.961 . S
H735 C719 0.960 . S
C736 C737 1.391 . S
C736 C738 1.394 . S
C736 H752 0.931 . S
C737 C736 1.391 . S
C737 C741 1.376 . S
C738 C736 1.394 . S
C738 C739 1.369 . S
C738 C742 1.531 . S
C739 C738 1.369 . S
C739 C740 1.410 . S
C739 C747 1.503 . S
C740 C739 1.410 . S
C740 C741 1.392 . S
C740 C743 1.511 . S
C741 C737 1.376 . S
C741 C740 1.392 . S
C741 H753 0.929 . S
C742 C738 1.531 . S
C742 H754 0.960 . S
C742 H755 0.962 . S
C742 H756 0.960 . S
C743 C740 1.511 . S
C743 H757 0.961 . S
C743 H758 0.961 . S
C743 H759 0.961 . S
C744 C745 1.370 . S
C744 C746 1.363 . S
C744 H760 0.931 . S
C745 C744 1.370 . S
C745 C749 1.408 . S
C746 C744 1.363 . S
C746 C747 1.370 . S
C746 C750 1.524 . S
C747 C739 1.503 . S
C747 C746 1.370 . S
C747 C748 1.403 . S
C748 C747 1.403 . S
C748 C749 1.404 . S
C748 C751 1.539 . S
C749 C745 1.408 . S
C749 C748 1.404 . S
C749 H761 0.930 . S
C750 C746 1.524 . S
C750 H762 0.956 . S
C750 H763 0.961 . S
C750 H764 0.961 . S
C751 C748 1.539 . S
C751 H765 0.958 . S
C751 H766 0.961 . S
C751 H767 0.960 . S
H752 C736 0.931 . S
H753 C741 0.929 . S
H754 C742 0.960 . S
H755 C742 0.962 . S
H756 C742 0.960 . S
H757 C743 0.961 . S
H758 C743 0.961 . S
H759 C743 0.961 . S
H760 C744 0.931 . S
H761 C749 0.930 . S
H762 C750 0.956 . S
H763 C750 0.961 . S
H764 C750 0.961 . S
H765 C751 0.958 . S
H766 C751 0.961 . S
H767 C751 0.960 . S
C768 C769 1.391 . S
C768 C770 1.394 . S
C768 H784 0.931 . S
C769 C768 1.391 . S
C769 C773 1.376 . S
C770 C768 1.394 . S
C770 C771 1.369 . S
C770 C774 1.531 . S
C771 C770 1.369 . S
C771 C772 1.410 . S
C771 C779 1.503 . S
C772 C771 1.410 . S
C772 C773 1.392 . S
C772 C775 1.511 . S
C773 C769 1.376 . S
C773 C772 1.392 . S
C773 H785 0.929 . S
C774 C770 1.531 . S
C774 H786 0.960 . S
C774 H787 0.962 . S
C774 H788 0.960 . S
C775 C772 1.511 . S
C775 H789 0.961 . S
C775 H790 0.961 . S
C775 H791 0.961 . S
C776 C777 1.370 . S
C776 C778 1.363 . S
C776 H792 0.931 . S
C777 C776 1.370 . S
C777 C781 1.408 . S
C778 C776 1.363 . S
C778 C779 1.370 . S
C778 C782 1.524 . S
C779 C771 1.503 . S
C779 C778 1.370 . S
C779 C780 1.403 . S
C780 C779 1.403 . S
C780 C781 1.404 . S
C780 C783 1.539 . S
C781 C777 1.408 . S
C781 C780 1.404 . S
C781 H793 0.930 . S
C782 C778 1.524 . S
C782 H794 0.956 . S
C782 H795 0.961 . S
C782 H796 0.961 . S
C783 C780 1.539 . S
C783 H797 0.958 . S
C783 H798 0.961 1_455 S
C783 H799 0.960 . S
H784 C768 0.931 . S
H785 C773 0.929 . S
H786 C774 0.960 . S
H787 C774 0.962 . S
H788 C774 0.960 . S
H789 C775 0.961 . S
H790 C775 0.961 . S
H791 C775 0.961 . S
H792 C776 0.931 . S
H793 C781 0.930 . S
H794 C782 0.956 . S
H795 C782 0.961 . S
H796 C782 0.961 . S
H797 C783 0.958 . S
H798 C783 0.961 1_655 S
H799 C783 0.960 . S
C800 C801 1.391 . S
C800 C802 1.394 1_556 S
C800 H816 0.931 1_556 S
C801 C800 1.391 . S
C801 C805 1.376 . S
C802 C800 1.394 1_554 S
C802 C803 1.369 1_564 S
C802 C806 1.531 . S
C803 C802 1.369 1_546 S
C803 C804 1.410 . S
C803 C811 1.513 . S
C804 C803 1.410 . S
C804 C805 1.392 1_545 S
C804 C807 1.511 . S
C805 C801 1.376 . S
C805 C804 1.392 1_565 S
C805 H817 0.927 1_565 S
C806 C802 1.531 . S
C806 H818 0.960 1_565 S
C806 H819 0.962 . S
C806 H820 0.960 . S
C807 C804 1.511 . S
C807 H821 0.961 . S
C807 H822 0.961 . S
C807 H823 0.961 . S
C808 C809 1.370 1_565 S
C808 C810 1.369 . S
C808 H824 0.931 . S
C809 C808 1.370 1_545 S
C809 C813 1.408 . S
C810 C808 1.369 . S
C810 C811 1.369 1_564 S
C810 C814 1.519 1_554 S
C811 C803 1.513 . S
C811 C810 1.369 1_546 S
C811 C812 1.394 1_556 S
C812 C811 1.394 1_554 S
C812 C813 1.404 . S
C812 C815 1.539 . S
C813 C809 1.408 . S
C813 C812 1.404 . S
C813 H825 0.930 . S
C814 C810 1.519 1_556 S
C814 H826 0.958 1_556 S
C814 H827 0.961 . S
C814 H828 0.961 . S
C815 C812 1.539 . S
C815 H829 0.958 . S
C815 H830 0.961 . S
C815 H831 0.960 1_554 S
H816 C800 0.931 1_554 S
H817 C805 0.927 1_545 S
H818 C806 0.960 1_545 S
H819 C806 0.962 . S
H820 C806 0.960 . S
H821 C807 0.961 . S
H822 C807 0.961 . S
H823 C807 0.961 . S
H824 C808 0.931 . S
H825 C813 0.930 . S
H826 C814 0.958 1_554 S
H827 C814 0.961 . S
H828 C814 0.961 . S
H829 C815 0.958 . S
H830 C815 0.961 . S
H831 C815 0.960 1_556 S
C832 C833 1.391 . S
C832 C834 1.394 . S
C832 H848 0.931 . S
C833 C832 1.391 . S
C833 C837 1.376 . S
C834 C832 1.394 . S
C834 C835 1.369 . S
C834 C838 1.531 . S
C835 C834 1.369 . S
C835 C836 1.410 . S
C835 C843 1.503 . S
C836 C835 1.410 . S
C836 C837 1.392 . S
C836 C839 1.511 . S
C837 C833 1.376 . S
C837 C836 1.392 . S
C837 H849 0.929 . S
C838 C834 1.531 . S
C838 H850 0.960 . S
C838 H851 0.962 . S
C838 H852 0.960 . S
C839 C836 1.511 . S
C839 H853 0.961 . S
C839 H854 0.961 . S
C839 H855 0.961 . S
C840 C841 1.370 . S
C840 C842 1.363 . S
C840 H856 0.931 . S
C841 C840 1.370 . S
C841 C845 1.408 . S
C842 C840 1.363 . S
C842 C843 1.370 . S
C842 C846 1.524 . S
C843 C835 1.503 . S
C843 C842 1.370 . S
C843 C844 1.403 . S
C844 C843 1.403 . S
C844 C845 1.404 . S
C844 C847 1.539 . S
C845 C841 1.408 . S
C845 C844 1.404 . S
C845 H857 0.930 . S
C846 C842 1.524 . S
C846 H858 0.956 . S
C846 H859 0.961 . S
C846 H860 0.961 . S
C847 C844 1.539 . S
C847 H861 0.958 . S
C847 H862 0.961 . S
C847 H863 0.960 . S
H848 C832 0.931 . S
H849 C837 0.929 . S
H850 C838 0.960 . S
H851 C838 0.962 . S
H852 C838 0.960 . S
H853 C839 0.961 . S
H854 C839 0.961 . S
H855 C839 0.961 . S
H856 C840 0.931 . S
H857 C845 0.930 . S
H858 C846 0.956 . S
H859 C846 0.961 . S
H860 C846 0.961 . S
H861 C847 0.958 . S
H862 C847 0.961 . S
H863 C847 0.960 . S
C864 C865 1.391 . S
C864 C866 1.394 . S
C864 H880 0.931 . S
C865 C864 1.391 . S
C865 C869 1.376 . S
C866 C864 1.394 . S
C866 C867 1.369 . S
C866 C870 1.531 . S
C867 C866 1.369 . S
C867 C868 1.410 . S
C867 C875 1.503 . S
C868 C867 1.410 . S
C868 C869 1.392 . S
C868 C871 1.511 . S
C869 C865 1.376 . S
C869 C868 1.392 . S
C869 H881 0.929 . S
C870 C866 1.531 . S
C870 H882 0.960 . S
C870 H883 0.962 . S
C870 H884 0.960 . S
C871 C868 1.511 . S
C871 H885 0.961 . S
C871 H886 0.961 . S
C871 H887 0.961 . S
C872 C873 1.370 . S
C872 C874 1.363 . S
C872 H888 0.931 . S
C873 C872 1.370 . S
C873 C877 1.408 . S
C874 C872 1.363 . S
C874 C875 1.370 . S
C874 C878 1.524 . S
C875 C867 1.503 . S
C875 C874 1.370 . S
C875 C876 1.403 . S
C876 C875 1.403 . S
C876 C877 1.404 . S
C876 C879 1.539 . S
C877 C873 1.408 . S
C877 C876 1.404 . S
C877 H889 0.930 . S
C878 C874 1.524 . S
C878 H890 0.956 . S
C878 H891 0.961 . S
C878 H892 0.961 . S
C879 C876 1.539 . S
C879 H893 0.958 . S
C879 H894 0.961 . S
C879 H895 0.960 . S
H880 C864 0.931 . S
H881 C869 0.929 . S
H882 C870 0.960 . S
H883 C870 0.962 . S
H884 C870 0.960 . S
H885 C871 0.961 . S
H886 C871 0.961 . S
H887 C871 0.961 . S
H888 C872 0.931 . S
H889 C877 0.930 . S
H890 C878 0.956 . S
H891 C878 0.961 . S
H892 C878 0.961 . S
H893 C879 0.958 . S
H894 C879 0.961 . S
H895 C879 0.960 . S
C896 C897 1.391 . S
C896 C898 1.394 . S
C896 H912 0.931 . S
C897 C896 1.391 . S
C897 C901 1.376 . S
C898 C896 1.394 . S
C898 C899 1.369 . S
C898 C902 1.531 . S
C899 C898 1.369 . S
C899 C900 1.410 . S
C899 C907 1.503 . S
C900 C899 1.410 . S
C900 C901 1.392 . S
C900 C903 1.511 . S
C901 C897 1.376 . S
C901 C900 1.392 . S
C901 H913 0.929 . S
C902 C898 1.531 . S
C902 H914 0.960 . S
C902 H915 0.962 . S
C902 H916 0.960 . S
C903 C900 1.511 . S
C903 H917 0.961 . S
C903 H918 0.961 . S
C903 H919 0.961 . S
C904 C905 1.370 . S
C904 C906 1.363 . S
C904 H920 0.931 . S
C905 C904 1.370 . S
C905 C909 1.408 . S
C906 C904 1.363 . S
C906 C907 1.370 . S
C906 C910 1.524 . S
C907 C899 1.503 . S
C907 C906 1.370 . S
C907 C908 1.403 . S
C908 C907 1.403 . S
C908 C909 1.404 . S
C908 C911 1.539 . S
C909 C905 1.408 . S
C909 C908 1.404 . S
C909 H921 0.930 . S
C910 C906 1.524 . S
C910 H922 0.956 . S
C910 H923 0.961 . S
C910 H924 0.961 . S
C911 C908 1.539 . S
C911 H925 0.958 . S
C911 H926 0.961 . S
C911 H927 0.960 . S
H912 C896 0.931 . S
H913 C901 0.929 . S
H914 C902 0.960 . S
H915 C902 0.962 . S
H916 C902 0.960 . S
H917 C903 0.961 . S
H918 C903 0.961 . S
H919 C903 0.961 . S
H920 C904 0.931 . S
H921 C909 0.930 . S
H922 C910 0.956 . S
H923 C910 0.961 . S
H924 C910 0.961 . S
H925 C911 0.958 . S
H926 C911 0.961 . S
H927 C911 0.960 . S
C928 C929 1.391 . S
C928 C930 1.394 . S
C928 H944 0.931 . S
C929 C928 1.391 . S
C929 C933 1.376 . S
C930 C928 1.394 . S
C930 C931 1.369 . S
C930 C934 1.564 . S
C931 C930 1.369 . S
C931 C932 1.410 . S
C931 C939 1.503 . S
C932 C931 1.410 . S
C932 C933 1.392 . S
C932 C935 1.511 . S
C933 C929 1.376 . S
C933 C932 1.392 . S
C933 H945 0.929 . S
C934 C930 1.564 . S
C934 H946 0.950 1_556 S
C934 H947 0.957 1_556 S
C934 H948 0.944 1_556 S
C935 C932 1.511 . S
C935 H949 0.961 . S
C935 H950 0.961 . S
C935 H951 0.961 . S
C936 C937 1.374 . S
C936 C938 1.366 . S
C936 H952 0.923 1_655 S
C937 C936 1.374 . S
C937 C941 1.408 . S
C938 C936 1.366 . S
C938 C939 1.370 . S
C938 C942 1.524 1_655 S
C939 C931 1.503 . S
C939 C938 1.370 . S
C939 C940 1.403 . S
C940 C939 1.403 . S
C940 C941 1.404 . S
C940 C943 1.539 . S
C941 C937 1.408 . S
C941 C940 1.404 . S
C941 H953 0.930 . S
C942 C938 1.524 1_455 S
C942 H954 0.956 . S
C942 H955 0.961 . S
C942 H956 0.961 . S
C943 C940 1.539 . S
C943 H957 0.958 . S
C943 H958 0.961 . S
C943 H959 0.960 . S
H944 C928 0.931 . S
H945 C933 0.929 . S
H946 C934 0.950 1_554 S
H947 C934 0.957 1_554 S
H948 C934 0.944 1_554 S
H949 C935 0.961 . S
H950 C935 0.961 . S
H951 C935 0.961 . S
H952 C936 0.923 1_455 S
H953 C941 0.930 . S
H954 C942 0.956 . S
H955 C942 0.961 . S
H956 C942 0.961 . S
H957 C943 0.958 . S
H958 C943 0.961 . S
H959 C943 0.960 . S
C960 C961 1.391 . S
C960 C962 1.394 . S
C960 H976 0.931 . S
C961 C960 1.391 . S
C961 C965 1.376 . S
C962 C960 1.394 . S
C962 C963 1.369 . S
C962 C966 1.531 . S
C963 C962 1.369 . S
C963 C964 1.410 . S
C963 C971 1.503 . S
C964 C963 1.410 . S
C964 C965 1.392 . S
C964 C967 1.511 . S
C965 C961 1.376 . S
C965 C964 1.392 . S
C965 H977 0.929 . S
C966 C962 1.531 . S
C966 H978 0.960 . S
C966 H979 0.962 . S
C966 H980 0.960 . S
C967 C964 1.511 . S
C967 H981 0.961 . S
C967 H982 0.961 . S
C967 H983 0.961 . S
C968 C969 1.370 . S
C968 C970 1.363 . S
C968 H984 0.931 . S
C969 C968 1.370 . S
C969 C973 1.408 . S
C970 C968 1.363 . S
C970 C971 1.370 . S
C970 C974 1.524 . S
C971 C963 1.503 . S
C971 C970 1.370 . S
C971 C972 1.403 . S
C972 C971 1.403 . S
C972 C973 1.404 . S
C972 C975 1.539 . S
C973 C969 1.408 . S
C973 C972 1.404 . S
C973 H985 0.930 . S
C974 C970 1.524 . S
C974 H986 0.956 . S
C974 H987 0.961 . S
C974 H988 0.961 . S
C975 C972 1.539 . S
C975 H989 0.958 . S
C975 H990 0.961 . S
C975 H991 0.960 . S
H976 C960 0.931 . S
H977 C965 0.929 . S
H978 C966 0.960 . S
H979 C966 0.962 . S
H980 C966 0.960 . S
H981 C967 0.961 . S
H982 C967 0.961 . S
H983 C967 0.961 . S
H984 C968 0.931 . S
H985 C973 0.930 . S
H986 C974 0.956 . S
H987 C974 0.961 . S
H988 C974 0.961 . S
H989 C975 0.958 . S
H990 C975 0.961 . S
H991 C975 0.960 . S
C992 C993 1.391 . S
C992 C994 1.394 . S
C992 H1008 0.931 . S
C993 C992 1.391 . S
C993 C997 1.376 . S
C994 C992 1.394 . S
C994 C995 1.369 . S
C994 C998 1.531 . S
C995 C994 1.369 . S
C995 C996 1.410 . S
C995 C1003 1.503 . S
C996 C995 1.410 . S
C996 C997 1.392 . S
C996 C999 1.511 . S
C997 C993 1.376 . S
C997 C996 1.392 . S
C997 H1009 0.929 . S
C998 C994 1.531 . S
C998 H1010 0.960 . S
C998 H1011 0.962 . S
C998 H1012 0.960 . S
C999 C996 1.511 . S
C999 H1013 0.961 . S
C999 H1014 0.961 . S
C999 H1015 0.961 . S
C1000 C1001 1.370 . S
C1000 C1002 1.363 . S
C1000 H1016 0.931 . S
C1001 C1000 1.370 . S
C1001 C1005 1.408 . S
C1002 C1000 1.363 . S
C1002 C1003 1.370 . S
C1002 C1006 1.524 . S
C1003 C995 1.503 . S
C1003 C1002 1.370 . S
C1003 C1004 1.403 . S
C1004 C1003 1.403 . S
C1004 C1005 1.404 . S
C1004 C1007 1.539 . S
C1005 C1001 1.408 . S
C1005 C1004 1.404 . S
C1005 H1017 0.930 . S
C1006 C1002 1.524 . S
C1006 H1018 0.956 . S
C1006 H1019 0.961 . S
C1006 H1020 0.961 . S
C1007 C1004 1.539 . S
C1007 H1021 0.958 . S
C1007 H1022 0.961 . S
C1007 H1023 0.960 . S
H1008 C992 0.931 . S
H1009 C997 0.929 . S
H1010 C998 0.960 . S
H1011 C998 0.962 . S
H1012 C998 0.960 . S
H1013 C999 0.961 . S
H1014 C999 0.961 . S
H1015 C999 0.961 . S
H1016 C1000 0.931 . S
H1017 C1005 0.930 . S
H1018 C1006 0.956 . S
H1019 C1006 0.961 . S
H1020 C1006 0.961 . S
H1021 C1007 0.958 . S
H1022 C1007 0.961 . S
H1023 C1007 0.960 . S
C1024 C1025 1.391 . S
C1024 C1026 1.394 . S
C1024 H1040 0.931 . S
C1025 C1024 1.391 . S
C1025 C1029 1.376 . S
C1026 C1024 1.394 . S
C1026 C1027 1.369 . S
C1026 C1030 1.531 . S
C1027 C1026 1.369 . S
C1027 C1028 1.410 . S
C1027 C1035 1.503 . S
C1028 C1027 1.410 . S
C1028 C1029 1.392 . S
C1028 C1031 1.511 . S
C1029 C1025 1.376 . S
C1029 C1028 1.392 . S
C1029 H1041 0.929 . S
C1030 C1026 1.531 . S
C1030 H1042 0.960 . S
C1030 H1043 0.962 . S
C1030 H1044 0.960 . S
C1031 C1028 1.511 . S
C1031 H1045 0.961 . S
C1031 H1046 0.961 . S
C1031 H1047 0.961 . S
C1032 C1033 1.370 . S
C1032 C1034 1.363 . S
C1032 H1048 0.931 . S
C1033 C1032 1.370 . S
C1033 C1037 1.408 . S
C1034 C1032 1.363 . S
C1034 C1035 1.370 . S
C1034 C1038 1.524 . S
C1035 C1027 1.503 . S
C1035 C1034 1.370 . S
C1035 C1036 1.403 . S
C1036 C1035 1.403 . S
C1036 C1037 1.404 . S
C1036 C1039 1.539 . S
C1037 C1033 1.408 . S
C1037 C1036 1.404 . S
C1037 H1049 0.930 . S
C1038 C1034 1.524 . S
C1038 H1050 0.956 . S
C1038 H1051 0.961 . S
C1038 H1052 0.961 . S
C1039 C1036 1.539 . S
C1039 H1053 0.958 . S
C1039 H1054 0.961 . S
C1039 H1055 0.960 . S
H1040 C1024 0.931 . S
H1041 C1029 0.929 . S
H1042 C1030 0.960 . S
H1043 C1030 0.962 . S
H1044 C1030 0.960 . S
H1045 C1031 0.961 . S
H1046 C1031 0.961 . S
H1047 C1031 0.961 . S
H1048 C1032 0.931 . S
H1049 C1037 0.930 . S
H1050 C1038 0.956 . S
H1051 C1038 0.961 . S
H1052 C1038 0.961 . S
H1053 C1039 0.958 . S
H1054 C1039 0.961 . S
H1055 C1039 0.960 . S
C289 C6 2.616 . S
C297 C152 2.634 . S
C321 C21 2.855 . S
C329 C194 2.887 . S
C361 C224 0.504 . S
C353 C49 0.501 . S
C385 C68 0.852 . S
C393 C258 0.863 . S
C425 C215 2.545 . S
C417 C2 2.528 . S
C457 C169 1.641 . S
C449 C30 1.472 . S
C489 C262 1.020 . S
C481 C40 1.042 . S
C521 C228 1.052 . S
C513 C63 1.034 . S
C545 C11 1.956 . S
C553 C283 2.220 . S
C585 C190 1.263 . S
C577 C44 1.276 . S
C609 C59 0.820 . S
C617 C165 0.856 . S
C641 C25 2.464 . S
C649 C249 2.490 . S
C681 C181 2.818 . S
C673 C82 2.790 . S
C705 C101 2.575 . S
C713 C203 2.584 . S
C737 C125 0.802 . S
C745 C233 0.813 . S
C769 C144 0.759 . S
C777 C267 0.594 . S
C801 C87 1.500 . S
C809 C186 1.651 . S
C841 C160 2.511 . S
C833 C97 2.496 . S
C873 C271 0.978 . S
C865 C120 0.954 . S
C905 C237 1.136 . S
C897 C135 1.117 . S
C929 C78 2.582 . S
C937 C254 2.597 1_556 S
C969 C199 0.825 . S
C961 C116 0.824 . S
C1001 C156 1.256 . S
C993 C139 1.255 . S
C1025 C106 2.049 . S
C1033 C220 2.186 . S
