# Generated by pormake.
# Topology tsx, (6,3)-cn, num edge types: 1
# Building blocks:
#     Node 0, Type 0, BuildingBlock: JUFBIX_clean_sbu_0, # of connection points: 6
#     Node 1, Type 0, BuildingBlock: JUFBIX_clean_sbu_0, # of connection points: 6
#     Node 2, Type 1, BuildingBlock: ESEHIV_clean_linker_0, # of connection points: 3
#     Node 3, Type 1, BuildingBlock: ESEHIV_clean_linker_0, # of connection points: 3
#     Node 4, Type 1, BuildingBlock: ESEHIV_clean_linker_0, # of connection points: 3
#     Node 5, Type 1, BuildingBlock: ESEHIV_clean_linker_0, # of connection points: 3
#     Edge 6, Type (0, 1), BuildingBlock: XIVTED_clean_linker_0, # of connection points: 2
#     Edge 7, Type (0, 1), BuildingBlock: XIVTED_clean_linker_0, # of connection points: 2
#     Edge 8, Type (0, 1), BuildingBlock: XIVTED_clean_linker_0, # of connection points: 2
#     Edge 9, Type (0, 1), BuildingBlock: XIVTED_clean_linker_0, # of connection points: 2
#     Edge 10, Type (0, 1), BuildingBlock: XIVTED_clean_linker_0, # of connection points: 2
#     Edge 11, Type (0, 1), BuildingBlock: XIVTED_clean_linker_0, # of connection points: 2
#     Edge 12, Type (0, 1), BuildingBlock: XIVTED_clean_linker_0, # of connection points: 2
#     Edge 13, Type (0, 1), BuildingBlock: XIVTED_clean_linker_0, # of connection points: 2
#     Edge 14, Type (0, 1), BuildingBlock: XIVTED_clean_linker_0, # of connection points: 2
#     Edge 15, Type (0, 1), BuildingBlock: XIVTED_clean_linker_0, # of connection points: 2
#     Edge 16, Type (0, 1), BuildingBlock: XIVTED_clean_linker_0, # of connection points: 2
#     Edge 17, Type (0, 1), BuildingBlock: XIVTED_clean_linker_0, # of connection points: 2
# Relax obj value: 0.160
# Max RMSD: 0.169
# Mean RMSD: 0.137
data_MOF--net-tsx--node1-JUFBIX_clean_sbu_0--node2-ESEHIV_clean_linker_0--edge1-XIVTED_clean_linker_0
_symmetry_space_group_name_H-M    P1
_symmetry_Int_Tables_number       1
_symmetry_cell_setting            triclinic
loop_
_symmetry_equiv_pos_as_xyz
'x, y, z'
_cell_length_a     18.541492
_cell_length_b     22.366791
_cell_length_c     34.467078
_cell_angle_alpha  93.306069
_cell_angle_beta   87.980317
_cell_angle_gamma 99.396319
loop_
_atom_site_label
_atom_site_type_symbol
_atom_site_fract_x
_atom_site_fract_y
_atom_site_fract_z
_atom_type_partial_charge
Co0 Co 0.05331 0.97808 -0.00079 0.0
C1 C 1.00674 0.01679 0.9296 0.0
Co2 Co 0.96622 0.03497 0.00564 0.0
C3 C 0.13515 0.87769 -0.0005 0.0
C4 C 0.19739 0.9571 0.97581 0.0
N5 N 0.13095 0.93536 -0.00881 0.0
N6 N 0.2018 0.86325 -0.00963 0.0
C7 C 0.24109 0.91309 0.97554 0.0
H8 H 0.09051 0.84698 0.01219 0.0
H9 H 0.21312 0.00198 0.96507 0.0
C10 C 0.01316 0.99626 0.0752 0.0
N11 N 0.88803 0.07641 0.01513 0.0
C12 C 0.86998 0.12559 -0.00076 0.0
C13 C 0.83394 0.06001 0.0415 0.0
N14 N 0.80657 0.14022 0.01474 0.0
C15 C 0.78423 0.09899 0.04143 0.0
C16 C 0.91713 0.9093 -0.00284 0.0
O17 O 0.05565 0.96909 0.0535 0.0
O18 O 0.97173 0.02765 0.0599 0.0
O19 O 0.89908 0.96159 0.00203 0.0
O20 O 0.98455 0.90473 -0.00586 0.0
O21 O 0.96172 0.04163 0.95121 0.0
H22 H 0.8306 0.0217 0.05963 0.0
H23 H 0.902 0.14931 0.97631 0.0
O24 O 0.05083 0.98755 0.94492 0.0
O25 O 0.12032 0.05191 0.00472 0.0
O26 O 0.03419 0.10866 0.00921 0.0
C27 C 0.10177 0.10422 0.00825 0.0
H28 H 0.29678 0.91674 0.96423 0.0
H29 H 0.7356 0.09716 0.0599 0.0
Co30 Co 0.59082 0.49744 0.49851 0.0
C31 C 0.53228 0.52854 0.42982 0.0
Co32 Co 0.50401 0.55476 0.50654 0.0
C33 C 0.67382 0.3975 0.49948 0.0
C34 C 0.73016 0.47285 0.46905 0.0
N35 N 0.66721 0.45355 0.48872 0.0
N36 N 0.7387 0.38166 0.48765 0.0
C37 C 0.77422 0.42903 0.46855 0.0
H38 H 0.63216 0.36902 0.51588 0.0
H39 H 0.74313 0.51592 0.45558 0.0
C40 C 0.56302 0.52318 0.5751 0.0
N41 N 0.42756 0.59816 0.5178 0.0
C42 C 0.40279 0.64091 0.49806 0.0
C43 C 0.38376 0.59198 0.54998 0.0
N44 N 0.34633 0.66201 0.51717 0.0
C45 C 0.3344 0.6314 0.54981 0.0
C46 C 0.45428 0.42929 0.50393 0.0
O47 O 0.60144 0.4932 0.55271 0.0
O48 O 0.51928 0.55324 0.56052 0.0
O49 O 0.43647 0.48179 0.50834 0.0
O50 O 0.52129 0.42442 0.49834 0.0
O51 O 0.49078 0.55581 0.45228 0.0
H52 H 0.38677 0.56023 0.57214 0.0
H53 H 0.42578 0.65645 0.47041 0.0
O54 O 0.57939 0.50141 0.44432 0.0
O55 O 0.65898 0.57198 0.49914 0.0
O56 O 0.57143 0.62735 0.50476 0.0
C57 C 0.63913 0.62396 0.50167 0.0
H58 H 0.82744 0.4311 0.45426 0.0
H59 H 0.29154 0.63597 0.57141 0.0
H60 H 0.91392 0.04172 0.37386 0.0
H61 H 0.04572 0.90033 0.36579 0.0
H62 H 0.97966 0.971 0.47784 0.0
C63 C 0.9413 0.00962 0.38768 0.0
C64 C 0.94123 0.01004 0.42841 0.0
C65 C 0.97951 0.97061 0.36484 0.0
C66 C 0.01627 0.93066 0.38331 0.0
C67 C 0.01667 0.93005 0.42404 0.0
C68 C 0.97964 0.97064 0.44653 0.0
H69 H 0.94774 0.95592 0.63176 0.0
H70 H 0.10435 0.12052 0.63819 0.0
H71 H 0.04572 0.03236 0.52692 0.0
C72 C 0.98448 0.99133 0.61755 0.0
C73 C 0.99181 0.98887 0.57689 0.0
C74 C 0.02559 0.03828 0.63991 0.0
C75 C 0.07295 0.08366 0.62111 0.0
C76 C 0.08018 0.08186 0.5804 0.0
C77 C 0.04019 0.03387 0.55831 0.0
H78 H 0.41556 0.54466 0.86691 0.0
H79 H 0.57925 0.42899 0.86747 0.0
H80 H 0.4602 0.46702 0.97276 0.0
C81 C 0.44552 0.516 0.88223 0.0
C82 C 0.43261 0.51004 0.92232 0.0
C83 C 0.49818 0.48674 0.86208 0.0
C84 C 0.53767 0.45103 0.88257 0.0
C85 C 0.52454 0.44373 0.92249 0.0
C86 C 0.47107 0.47265 0.94211 0.0
H87 H 0.44295 0.42846 0.13434 0.0
H88 H 0.58582 0.6004 0.13437 0.0
H89 H 0.52003 0.5055 0.02612 0.0
C90 C 0.47531 0.46462 0.11863 0.0
C91 C 0.47589 0.46151 0.07789 0.0
C92 C 0.51443 0.51469 0.13924 0.0
C93 C 0.55447 0.56196 0.11864 0.0
C94 C 0.55725 0.55851 0.0778 0.0
C95 C 0.51782 0.50815 0.05751 0.0
H96 H 0.08629 0.22469 0.00892 0.0
H97 H 0.49102 0.34284 0.07713 0.0
H98 H 0.24827 0.10748 0.01587 0.0
H99 H 0.35617 0.46305 0.03445 0.0
H100 H 0.40289 0.25578 0.05368 0.0
H101 H 0.18297 0.31301 0.01798 0.0
C102 C 0.14209 0.21751 0.01218 0.0
C103 C 0.15905 0.15858 0.01198 0.0
C104 C 0.39288 0.3011 0.04887 0.0
C105 C 0.26958 0.25915 0.02239 0.0
C106 C 0.44325 0.35061 0.06215 0.0
C107 C 0.43048 0.40971 0.05754 0.0
C108 C 0.32836 0.31088 0.03177 0.0
C109 C 0.36777 0.41787 0.03826 0.0
C110 C 0.19725 0.2679 0.01713 0.0
C111 C 0.23243 0.15199 0.01605 0.0
N112 N 0.31826 0.36889 0.02654 0.0
N113 N 0.28471 0.20155 0.02146 0.0
H114 H 0.33341 0.84366 0.0126 0.0
H115 H 0.29308 0.52317 0.90558 0.0
H116 H 0.12488 0.75215 0.97218 0.0
H117 H 0.46478 0.58533 0.98656 0.0
H118 H 0.2263 0.60261 0.93252 0.0
H119 H 0.38013 0.74724 0.00651 0.0
C120 C 0.2973 0.80286 0.00296 0.0
C121 C 0.2256 0.8056 -0.00745 0.0
C122 C 0.27776 0.59801 0.94502 0.0
C123 C 0.27859 0.69552 0.98486 0.0
C124 C 0.31584 0.55281 0.92961 0.0
C125 C 0.38469 0.54824 0.94366 0.0
C126 C 0.30966 0.63969 0.97403 0.0
C127 C 0.41179 0.5874 0.97494 0.0
C128 C 0.32371 0.74787 -0.00034 0.0
C129 C 0.1805 0.75163 0.98051 0.0
N130 N 0.37491 0.63238 -0.01145 0.0
N131 N 0.2082 0.69886 0.97621 0.0
H132 H 0.77027 0.9068 0.00674 0.0
H133 H 0.6689 0.54826 0.02512 0.0
H134 H 0.93252 0.78843 -0.00815 0.0
H135 H 0.55013 0.67908 0.08354 0.0
H136 H 0.75412 0.63204 -0.00282 0.0
H137 H 0.67723 0.81915 0.01852 0.0
C138 C 0.78633 0.86227 0.00544 0.0
C139 C 0.85967 0.8551 -0.0012 0.0
C140 C 0.70887 0.64216 0.01576 0.0
C141 C 0.75282 0.75442 0.01233 0.0
C142 C 0.66023 0.5946 0.03147 0.0
C143 C 0.60314 0.60723 0.05682 0.0
C144 C 0.69912 0.70234 0.02501 0.0
C145 C 0.59401 0.66775 0.06437 0.0
C146 C 0.73305 0.81227 0.01229 0.0
C147 C 0.87677 0.79607 -0.00283 0.0
N148 N 0.6416 0.7131 0.04859 0.0
N149 N 0.82372 0.74787 0.00422 0.0
H150 H 0.86414 0.24568 0.98156 0.0
H151 H 0.47459 0.35485 0.9727 0.0
H152 H 0.66156 0.14479 0.02478 0.0
H153 H 0.67229 0.44667 0.91886 0.0
H154 H 0.54559 0.28471 -0.00012 0.0
H155 H 0.79743 0.32568 0.9643 0.0
C156 C 0.80577 0.24021 0.98737 0.0
C157 C 0.76859 0.18825 0.00462 0.0
C158 C 0.57355 0.32048 0.98235 0.0
C159 C 0.69199 0.27995 0.98543 0.0
C160 C 0.53312 0.36072 0.96714 0.0
C161 C 0.56758 0.40593 0.94314 0.0
C162 C 0.64889 0.32568 0.97346 0.0
C163 C 0.64348 0.41154 0.93661 0.0
C164 C 0.76775 0.2861 0.97777 0.0
C165 C 0.69293 0.18421 0.01204 0.0
N166 N 0.68152 0.37157 0.95141 0.0
N167 N 0.65721 0.22927 0.0023 0.0
H168 H 0.61533 0.74162 0.50297 0.0
H169 H 0.02771 0.879 0.55384 0.0
H170 H 0.78841 0.63389 0.50359 0.0
H171 H 0.85497 0.98589 0.55082 0.0
H172 H 0.94552 0.79107 0.52588 0.0
H173 H 0.70578 0.83334 0.51159 0.0
C174 C 0.67246 0.73724 0.50462 0.0
C175 C 0.69419 0.67989 0.50309 0.0
C176 C 0.92573 0.83389 0.53081 0.0
C177 C 0.7982 0.78494 0.51316 0.0
C178 C 0.97269 0.88392 0.54656 0.0
C179 C 0.94746 0.93909 0.5545 0.0
C180 C 0.85283 0.83916 0.52374 0.0
C181 C 0.8759 0.94371 0.54504 0.0
C182 C 0.72416 0.78971 0.50948 0.0
C183 C 0.76909 0.67712 0.50499 0.0
N184 N 0.83071 0.89413 0.53051 0.0
N185 N 0.81831 0.72887 0.51036 0.0
H186 H 0.87714 0.36476 0.49927 0.0
H187 H 0.79739 0.02104 0.42767 0.0
H188 H 0.6579 0.26894 0.48426 0.0
H189 H 1.00144 0.10196 0.47877 0.0
H190 H 0.74237 0.10811 0.45317 0.0
H191 H 0.92225 0.26769 0.4965 0.0
C192 C 0.83847 0.32309 0.49581 0.0
C193 C 0.76387 0.32475 0.49153 0.0
C194 C 0.7987 0.10634 0.45961 0.0
C195 C 0.81497 0.21349 0.48794 0.0
C196 C 0.82996 0.05663 0.44513 0.0
C197 C 0.90391 0.05471 0.45109 0.0
C198 C 0.84228 0.15512 0.47938 0.0
C199 C 0.9441 0.10183 0.47372 0.0
C200 C 0.86411 0.26769 0.49445 0.0
C201 C 0.71581 0.26953 0.48766 0.0
N202 N 0.91316 0.1508 0.48642 0.0
N203 N 0.74234 0.21613 0.48524 0.0
H204 H 0.46938 0.30844 0.49781 0.0
H205 H 0.07096 0.20159 0.58595 0.0
H206 H 0.30863 0.42711 0.51855 0.0
H207 H 0.20008 0.07382 0.53289 0.0
H208 H 0.15895 0.28484 0.56093 0.0
H209 H 0.37374 0.22123 0.50989 0.0
C210 C 0.41401 0.31613 0.50452 0.0
C211 C 0.39717 0.37523 0.50753 0.0
C212 C 0.16791 0.23866 0.55432 0.0
C213 C 0.28811 0.27608 0.52156 0.0
C214 C 0.11776 0.1913 0.56864 0.0
C215 C 0.12888 0.13122 0.56152 0.0
C216 C 0.23046 0.2259 0.53333 0.0
C217 C 0.18997 0.11983 0.53887 0.0
C218 C 0.3595 0.26638 0.51131 0.0
C219 C 0.32445 0.38251 0.51619 0.0
N220 N 0.23929 0.16693 0.52596 0.0
N221 N 0.27295 0.33368 0.52325 0.0
H222 H 0.29436 0.74963 0.56164 0.0
H223 H 0.02288 0.81161 0.40192 0.0
H224 H 0.29814 0.67015 0.44488 0.0
H225 H 0.10606 0.9527 0.48721 0.0
H226 H 0.10586 0.74808 0.42506 0.0
H227 H 0.21014 0.81561 0.54148 0.0
C228 C 0.27767 0.74651 0.53171 0.0
C229 C 0.30308 0.70475 0.50475 0.0
C230 C 0.10572 0.7929 0.43875 0.0
C231 C 0.20609 0.77844 0.4819 0.0
C232 C 0.05842 0.82921 0.42563 0.0
C233 C 0.05848 0.88812 0.44214 0.0
C234 C 0.15258 0.81499 0.46914 0.0
C235 C 0.10415 0.90766 0.47362 0.0
C236 C 0.2299 0.78401 0.52028 0.0
C237 C 0.28023 0.70224 0.46632 0.0
N238 N 0.14964 0.87116 0.4861 0.0
N239 N 0.23221 0.73811 0.45611 0.0
H240 H 0.1076 0.9499 0.12044 0.0
H241 H 0.87045 0.98497 0.31601 0.0
H242 H 0.91045 0.02995 0.12663 0.0
H243 H 0.09719 0.96157 0.31547 0.0
H244 H 0.87879 0.99025 0.24538 0.0
H245 H 0.09919 0.94192 0.19119 0.0
C246 C 0.06261 0.96572 0.13665 0.0
C247 C 1.00983 0.99083 0.11769 0.0
C248 C 0.92666 0.98391 0.26079 0.0
C249 C 0.99959 0.9814 0.19821 0.0
C250 C 0.92204 0.98117 0.30112 0.0
C251 C 0.98317 0.97281 0.32181 0.0
C252 C 0.99268 0.97779 0.2409 0.0
C253 C 0.04825 0.96703 0.30077 0.0
C254 C 0.05794 0.96129 0.17695 0.0
C255 C 0.95262 0.0106 0.14006 0.0
N256 N 0.05125 0.96952 0.26147 0.0
N257 N 0.9489 0.00527 0.1791 0.0
H258 H 0.11769 -0.0019 0.87884 0.0
H259 H 0.90253 0.02522 0.68704 0.0
H260 H 0.9021 0.04795 0.88364 0.0
H261 H 0.13798 0.05198 0.69015 0.0
H262 H 0.89688 0.02267 0.75827 0.0
H263 H 0.1219 0.00634 0.80848 0.0
C264 C 0.07112 0.01069 0.86506 0.0
C265 C 1.00936 0.02228 0.88708 0.0
C266 C 0.94969 0.02947 0.7433 0.0
C267 C 0.01376 0.03141 0.80652 0.0
C268 C 0.95293 0.03061 0.70279 0.0
C269 C 0.02084 0.03885 0.68287 0.0
C270 C 0.01479 0.03543 0.7638 0.0
C271 C 0.08459 0.046 0.7045 0.0
C272 C 0.07377 0.01568 0.82493 0.0
C273 C 0.95081 0.03877 0.8677 0.0
N274 N 0.08001 0.0436 0.7438 0.0
N275 N 0.95417 0.04239 0.82839 0.0
H276 H 0.61444 0.43966 0.61741 0.0
H277 H 0.50465 0.59041 0.8223 0.0
H278 H 0.51564 0.6019 0.6295 0.0
H279 H 0.52804 0.40152 0.8058 0.0
H280 H 0.52873 0.60206 0.75285 0.0
H281 H 0.60525 0.43254 0.68825 0.0
C282 C 0.59174 0.47414 0.635 0.0
C283 C 0.56533 0.5212 0.61766 0.0
C284 C 0.52869 0.55812 0.76452 0.0
C285 C 0.55476 0.51338 0.69822 0.0
C286 C 0.51436 0.55126 0.80411 0.0
C287 C 0.51362 0.49473 0.81996 0.0
C288 C 0.54308 0.50829 0.74059 0.0
C289 C 0.52871 0.44609 0.795 0.0
C290 C 0.5861 0.46985 0.67529 0.0
C291 C 0.53613 0.56459 0.6417 0.0
N292 N 0.54278 0.45398 0.75653 0.0
N293 N 0.53153 0.55959 0.68076 0.0
H294 H 0.4637 0.60131 0.38677 0.0
H295 H 0.53827 0.42513 0.18513 0.0
H296 H 0.58732 0.4532 0.37587 0.0
H297 H 0.49178 0.60826 0.19082 0.0
H298 H 0.53964 0.42836 0.2561 0.0
H299 H 0.45731 0.5986 0.31559 0.0
C300 C 0.48922 0.56816 0.36944 0.0
C301 C 0.52625 0.52751 0.38719 0.0
C302 C 0.52916 0.46787 0.24185 0.0
C303 C 0.51862 0.52391 0.30624 0.0
C304 C 0.52797 0.46592 0.20142 0.0
C305 C 0.51492 0.51652 0.18222 0.0
C306 C 0.51636 0.52057 0.26331 0.0
C307 C 0.50261 0.56849 0.20463 0.0
C308 C 0.48581 0.56683 0.32893 0.0
C309 C 0.55853 0.4856 0.36341 0.0
N310 N 0.50328 0.56913 0.24411 0.0
N311 N 0.55368 0.48472 0.32421 0.0
loop_
_geom_bond_atom_site_label_1
_geom_bond_atom_site_label_2
_geom_bond_distance
_geom_bond_site_symmetry_2
_ccdc_geom_bond_type
Co0 N5 2.057 . S
Co0 O17 2.021 . S
Co0 O20 2.062 1_455 S
Co0 O24 2.117 1_554 S
Co0 O25 2.020 1_565 S
C1 O21 1.259 1_455 S
C1 O24 1.258 1_545 S
Co2 N11 2.057 . S
Co2 O18 2.117 . S
Co2 O19 2.020 1_545 S
Co2 O21 2.021 1_554 S
Co2 O26 2.062 1_655 S
C3 N5 1.316 . S
C3 N6 1.347 . S
C3 H8 0.931 . S
C4 N5 1.375 1_556 S
C4 C7 1.350 . S
C4 H9 0.930 . S
N5 Co0 2.057 . S
N5 C3 1.316 . S
N5 C4 1.375 1_554 S
N6 C3 1.347 . S
N6 C7 1.373 1_554 S
C7 C4 1.350 . S
C7 N6 1.373 1_556 S
C7 H28 0.931 . S
H8 C3 0.931 . S
H9 C4 0.930 . S
C10 O17 1.259 1_545 S
C10 O18 1.258 1_455 S
N11 Co2 2.057 . S
N11 C12 1.316 . S
N11 C13 1.375 . S
C12 N11 1.316 . S
C12 N14 1.347 . S
C12 H23 0.931 1_554 S
C13 N11 1.375 . S
C13 C15 1.350 . S
C13 H22 0.930 . S
N14 C12 1.347 . S
N14 C15 1.373 . S
C15 C13 1.350 . S
C15 N14 1.373 . S
C15 H29 0.931 . S
C16 O19 1.256 . S
C16 O20 1.255 . S
O17 Co0 2.021 . S
O17 C10 1.259 1_565 S
O18 Co2 2.117 . S
O18 C10 1.258 1_655 S
O19 Co2 2.020 1_565 S
O19 C16 1.256 . S
O20 Co0 2.062 1_655 S
O20 C16 1.255 . S
O21 C1 1.259 1_655 S
O21 Co2 2.021 1_556 S
H22 C13 0.930 . S
H23 C12 0.931 1_556 S
O24 Co0 2.117 1_556 S
O24 C1 1.258 1_565 S
O25 Co0 2.020 1_545 S
O25 C27 1.256 . S
O26 Co2 2.062 1_455 S
O26 C27 1.255 . S
C27 O25 1.256 . S
C27 O26 1.255 . S
H28 C7 0.931 . S
H29 C15 0.931 . S
Co30 N35 2.057 . S
Co30 O47 2.021 . S
Co30 O50 2.062 . S
Co30 O54 2.117 . S
Co30 O55 2.020 . S
C31 O51 1.259 . S
C31 O54 1.258 . S
Co32 N41 2.057 . S
Co32 O48 2.117 . S
Co32 O49 2.020 . S
Co32 O51 2.021 . S
Co32 O56 2.062 . S
C33 N35 1.316 . S
C33 N36 1.347 . S
C33 H38 0.931 . S
C34 N35 1.375 . S
C34 C37 1.350 . S
C34 H39 0.930 . S
N35 Co30 2.057 . S
N35 C33 1.316 . S
N35 C34 1.375 . S
N36 C33 1.347 . S
N36 C37 1.373 . S
C37 C34 1.350 . S
C37 N36 1.373 . S
C37 H58 0.931 . S
H38 C33 0.931 . S
H39 C34 0.930 . S
C40 O47 1.259 . S
C40 O48 1.258 . S
N41 Co32 2.057 . S
N41 C42 1.316 . S
N41 C43 1.375 . S
C42 N41 1.316 . S
C42 N44 1.347 . S
C42 H53 0.931 . S
C43 N41 1.375 . S
C43 C45 1.350 . S
C43 H52 0.930 . S
N44 C42 1.347 . S
N44 C45 1.373 . S
C45 C43 1.350 . S
C45 N44 1.373 . S
C45 H59 0.931 . S
C46 O49 1.256 . S
C46 O50 1.255 . S
O47 Co30 2.021 . S
O47 C40 1.259 . S
O48 Co32 2.117 . S
O48 C40 1.258 . S
O49 Co32 2.020 . S
O49 C46 1.256 . S
O50 Co30 2.062 . S
O50 C46 1.255 . S
O51 C31 1.259 . S
O51 Co32 2.021 . S
H52 C43 0.930 . S
H53 C42 0.931 . S
O54 Co30 2.117 . S
O54 C31 1.258 . S
O55 Co30 2.020 . S
O55 C57 1.256 . S
O56 Co32 2.062 . S
O56 C57 1.255 . S
C57 O55 1.256 . S
C57 O56 1.255 . S
H58 C37 0.931 . S
H59 C45 0.931 . S
H60 C63 0.931 . S
H61 C66 0.928 . S
H62 C68 0.931 . S
C63 H60 0.931 . S
C63 C64 1.413 . S
C63 C65 1.359 . S
C64 C63 1.413 . S
C64 C68 1.421 1_655 S
C65 C63 1.359 . S
C65 C66 1.372 1_645 S
C66 H61 0.928 . S
C66 C65 1.372 1_465 S
C66 C67 1.404 . S
C67 C66 1.404 . S
C67 C68 1.399 1_565 S
C68 H62 0.931 . S
C68 C64 1.421 1_455 S
C68 C67 1.399 1_545 S
H69 C72 0.931 . S
H70 C75 0.928 . S
H71 C77 0.930 . S
C72 H69 0.931 . S
C72 C73 1.413 . S
C72 C74 1.360 1_665 S
C73 C72 1.413 . S
C73 C77 1.429 1_665 S
C74 C72 1.360 1_445 S
C74 C75 1.372 . S
C75 H70 0.928 . S
C75 C74 1.372 . S
C75 C76 1.404 . S
C76 C75 1.404 . S
C76 C77 1.391 . S
C77 H71 0.930 . S
C77 C73 1.429 1_445 S
C77 C76 1.391 . S
H78 C81 0.931 . S
H79 C84 0.928 . S
H80 C86 0.930 . S
C81 H78 0.931 . S
C81 C82 1.413 . S
C81 C83 1.360 . S
C82 C81 1.413 . S
C82 C86 1.429 . S
C83 C81 1.360 . S
C83 C84 1.372 . S
C84 H79 0.928 . S
C84 C83 1.372 . S
C84 C85 1.404 . S
C85 C84 1.404 . S
C85 C86 1.391 . S
C86 H80 0.930 . S
C86 C82 1.429 . S
C86 C85 1.391 . S
H87 C90 0.931 . S
H88 C93 0.928 . S
H89 C95 0.930 . S
C90 H87 0.931 . S
C90 C91 1.413 . S
C90 C92 1.360 . S
C91 C90 1.413 . S
C91 C95 1.429 . S
C92 C90 1.360 . S
C92 C93 1.372 . S
C93 H88 0.928 . S
C93 C92 1.372 . S
C93 C94 1.404 . S
C94 C93 1.404 . S
C94 C95 1.391 . S
C95 H89 0.930 . S
C95 C91 1.429 . S
C95 C94 1.391 . S
H96 C102 0.930 1_556 S
H97 C106 0.930 . S
H98 C111 0.929 . S
H99 C109 0.929 . S
H100 C104 0.929 . S
H101 C110 0.929 . S
C102 H96 0.930 1_554 S
C102 C103 1.367 . S
C102 C110 1.378 . S
C103 C102 1.367 . S
C103 C111 1.433 . S
C104 H100 0.929 . S
C104 C106 1.378 . S
C104 C108 1.350 . S
C105 C108 1.463 . S
C105 C110 1.350 . S
C105 N113 1.427 . S
C106 H97 0.930 . S
C106 C104 1.378 . S
C106 C107 1.367 . S
C107 C106 1.367 . S
C107 C109 1.433 . S
C108 C104 1.350 . S
C108 C105 1.463 . S
C108 N112 1.427 . S
C109 H99 0.929 . S
C109 C107 1.433 . S
C109 N112 1.384 . S
C110 H101 0.929 . S
C110 C102 1.378 . S
C110 C105 1.350 . S
C111 H98 0.929 . S
C111 C103 1.433 . S
C111 N113 1.384 . S
N112 C108 1.427 . S
N112 C109 1.384 . S
N113 C105 1.427 . S
N113 C111 1.384 . S
H114 C120 0.930 . S
H115 C124 0.930 . S
H116 C129 0.929 . S
H117 C127 0.929 . S
H118 C122 0.929 . S
H119 C128 0.929 . S
C120 H114 0.930 . S
C120 C121 1.367 . S
C120 C128 1.378 . S
C121 C120 1.367 . S
C121 C129 1.433 1_554 S
C122 H118 0.929 . S
C122 C124 1.378 . S
C122 C126 1.350 . S
C123 C126 1.463 . S
C123 C128 1.350 1_556 S
C123 N131 1.427 . S
C124 H115 0.930 . S
C124 C122 1.378 . S
C124 C125 1.367 . S
C125 C124 1.367 . S
C125 C127 1.433 . S
C126 C122 1.350 . S
C126 C123 1.463 . S
C126 N130 1.427 . S
C127 H117 0.929 . S
C127 C125 1.433 . S
C127 N130 1.384 . S
C128 H119 0.929 . S
C128 C120 1.378 . S
C128 C123 1.350 1_554 S
C129 H116 0.929 . S
C129 C121 1.433 1_556 S
C129 N131 1.384 . S
N130 C126 1.427 . S
N130 C127 1.384 . S
N131 C123 1.427 . S
N131 C129 1.384 . S
H132 C138 0.930 . S
H133 C142 0.930 . S
H134 C147 0.929 . S
H135 C145 0.929 . S
H136 C140 0.929 . S
H137 C146 0.929 . S
C138 H132 0.930 . S
C138 C139 1.367 . S
C138 C146 1.378 . S
C139 C138 1.367 . S
C139 C147 1.433 . S
C140 H136 0.929 . S
C140 C142 1.378 . S
C140 C144 1.350 . S
C141 C144 1.463 . S
C141 C146 1.350 . S
C141 N149 1.427 . S
C142 H133 0.930 . S
C142 C140 1.378 . S
C142 C143 1.367 . S
C143 C142 1.367 . S
C143 C145 1.433 . S
C144 C140 1.350 . S
C144 C141 1.463 . S
C144 N148 1.427 . S
C145 H135 0.929 . S
C145 C143 1.433 . S
C145 N148 1.384 . S
C146 H137 0.929 . S
C146 C138 1.378 . S
C146 C141 1.350 . S
C147 H134 0.929 . S
C147 C139 1.433 . S
C147 N149 1.384 . S
N148 C144 1.427 . S
N148 C145 1.384 . S
N149 C141 1.427 . S
N149 C147 1.384 . S
H150 C156 0.931 . S
H151 C160 0.930 . S
H152 C165 0.929 . S
H153 C163 0.929 . S
H154 C158 0.929 . S
H155 C164 0.929 . S
C156 H150 0.931 . S
C156 C157 1.370 . S
C156 C164 1.374 1_554 S
C157 C156 1.370 . S
C157 C165 1.433 . S
C158 H154 0.929 . S
C158 C160 1.378 . S
C158 C162 1.350 . S
C159 C162 1.463 . S
C159 C164 1.350 . S
C159 N167 1.427 . S
C160 H151 0.930 . S
C160 C158 1.378 . S
C160 C161 1.367 . S
C161 C160 1.367 . S
C161 C163 1.433 . S
C162 C158 1.350 . S
C162 C159 1.463 . S
C162 N166 1.427 . S
C163 H153 0.929 . S
C163 C161 1.433 . S
C163 N166 1.384 . S
C164 H155 0.929 . S
C164 C156 1.374 1_556 S
C164 C159 1.350 . S
C165 H152 0.929 . S
C165 C157 1.433 . S
C165 N167 1.384 1_554 S
N166 C162 1.427 . S
N166 C163 1.384 . S
N167 C159 1.427 . S
N167 C165 1.384 1_556 S
H168 C174 0.930 . S
H169 C178 0.930 . S
H170 C183 0.929 . S
H171 C181 0.929 . S
H172 C176 0.929 . S
H173 C182 0.929 . S
C174 H168 0.930 . S
C174 C175 1.367 . S
C174 C182 1.378 . S
C175 C174 1.367 . S
C175 C183 1.433 . S
C176 H172 0.929 . S
C176 C178 1.378 . S
C176 C180 1.350 . S
C177 C180 1.463 . S
C177 C182 1.350 . S
C177 N185 1.427 . S
C178 H169 0.930 . S
C178 C176 1.378 . S
C178 C179 1.367 . S
C179 C178 1.367 . S
C179 C181 1.433 . S
C180 C176 1.350 . S
C180 C177 1.463 . S
C180 N184 1.427 . S
C181 H171 0.929 . S
C181 C179 1.433 . S
C181 N184 1.384 . S
C182 H173 0.929 . S
C182 C174 1.378 . S
C182 C177 1.350 . S
C183 H170 0.929 . S
C183 C175 1.433 . S
C183 N185 1.384 . S
N184 C180 1.427 . S
N184 C181 1.384 . S
N185 C177 1.427 . S
N185 C183 1.384 . S
H186 C192 0.930 . S
H187 C196 0.930 . S
H188 C201 0.929 . S
H189 C199 0.929 . S
H190 C194 0.929 . S
H191 C200 0.929 . S
C192 H186 0.930 . S
C192 C193 1.367 . S
C192 C200 1.378 . S
C193 C192 1.367 . S
C193 C201 1.433 . S
C194 H190 0.929 . S
C194 C196 1.378 . S
C194 C198 1.350 . S
C195 C198 1.463 . S
C195 C200 1.350 . S
C195 N203 1.427 . S
C196 H187 0.930 . S
C196 C194 1.378 . S
C196 C197 1.367 . S
C197 C196 1.367 . S
C197 C199 1.433 . S
C198 C194 1.350 . S
C198 C195 1.463 . S
C198 N202 1.427 . S
C199 H189 0.929 . S
C199 C197 1.433 . S
C199 N202 1.384 . S
C200 H191 0.929 . S
C200 C192 1.378 . S
C200 C195 1.350 . S
C201 H188 0.929 . S
C201 C193 1.433 . S
C201 N203 1.384 . S
N202 C198 1.427 . S
N202 C199 1.384 . S
N203 C195 1.427 . S
N203 C201 1.384 . S
H204 C210 0.930 . S
H205 C214 0.930 . S
H206 C219 0.929 . S
H207 C217 0.929 . S
H208 C212 0.929 . S
H209 C218 0.929 . S
C210 H204 0.930 . S
C210 C211 1.367 . S
C210 C218 1.378 . S
C211 C210 1.367 . S
C211 C219 1.433 . S
C212 H208 0.929 . S
C212 C214 1.378 . S
C212 C216 1.350 . S
C213 C216 1.463 . S
C213 C218 1.350 . S
C213 N221 1.427 . S
C214 H205 0.930 . S
C214 C212 1.378 . S
C214 C215 1.367 . S
C215 C214 1.367 . S
C215 C217 1.433 . S
C216 C212 1.350 . S
C216 C213 1.463 . S
C216 N220 1.427 . S
C217 H207 0.929 . S
C217 C215 1.433 . S
C217 N220 1.384 . S
C218 H209 0.929 . S
C218 C210 1.378 . S
C218 C213 1.350 . S
C219 H206 0.929 . S
C219 C211 1.433 . S
C219 N221 1.384 . S
N220 C216 1.427 . S
N220 C217 1.384 . S
N221 C213 1.427 . S
N221 C219 1.384 . S
H222 C228 0.930 . S
H223 C232 0.930 . S
H224 C237 0.929 . S
H225 C235 0.929 . S
H226 C230 0.929 . S
H227 C236 0.929 . S
C228 H222 0.930 . S
C228 C229 1.367 . S
C228 C236 1.378 . S
C229 C228 1.367 . S
C229 C237 1.433 . S
C230 H226 0.929 . S
C230 C232 1.378 . S
C230 C234 1.350 . S
C231 C234 1.463 . S
C231 C236 1.350 . S
C231 N239 1.427 . S
C232 H223 0.930 . S
C232 C230 1.378 . S
C232 C233 1.367 . S
C233 C232 1.367 . S
C233 C235 1.433 . S
C234 C230 1.350 . S
C234 C231 1.463 . S
C234 N238 1.427 . S
C235 H225 0.929 . S
C235 C233 1.433 . S
C235 N238 1.384 . S
C236 H227 0.929 . S
C236 C228 1.378 . S
C236 C231 1.350 . S
C237 H224 0.929 . S
C237 C229 1.433 . S
C237 N239 1.384 . S
N238 C234 1.427 . S
N238 C235 1.384 . S
N239 C231 1.427 . S
N239 C237 1.384 . S
H240 C246 0.930 . S
H241 C250 0.930 . S
H242 C255 0.929 . S
H243 C253 0.929 . S
H244 C248 0.929 . S
H245 C254 0.925 1_565 S
C246 H240 0.930 . S
C246 C247 1.367 . S
C246 C254 1.378 . S
C247 C246 1.367 . S
C247 C255 1.433 1_455 S
C248 H244 0.929 . S
C248 C250 1.378 . S
C248 C252 1.340 1_655 S
C249 C252 1.463 . S
C249 C254 1.350 . S
C249 N257 1.427 1_455 S
C250 H241 0.930 . S
C250 C248 1.378 . S
C250 C251 1.370 . S
C251 C250 1.370 . S
C251 C253 1.429 1_645 S
C252 C248 1.340 1_455 S
C252 C249 1.463 . S
C252 N256 1.437 . S
C253 H243 0.929 . S
C253 C251 1.429 1_465 S
C253 N256 1.384 1_565 S
C254 H245 0.925 1_545 S
C254 C246 1.378 . S
C254 C249 1.350 . S
C255 H242 0.929 . S
C255 C247 1.433 1_655 S
C255 N257 1.384 . S
N256 C252 1.437 . S
N256 C253 1.384 1_545 S
N257 C249 1.427 1_655 S
N257 C255 1.384 . S
H258 C264 0.930 . S
H259 C268 0.930 . S
H260 C273 0.929 . S
H261 C271 0.929 . S
H262 C266 0.929 . S
H263 C272 0.929 . S
C264 H258 0.930 . S
C264 C265 1.367 . S
C264 C272 1.378 . S
C265 C264 1.367 . S
C265 C273 1.433 1_445 S
C266 H262 0.929 . S
C266 C268 1.378 . S
C266 C270 1.350 1_665 S
C267 C270 1.463 . S
C267 C272 1.350 . S
C267 N275 1.427 1_445 S
C268 H259 0.930 . S
C268 C266 1.378 . S
C268 C269 1.367 1_665 S
C269 C268 1.367 1_445 S
C269 C271 1.433 . S
C270 C266 1.350 1_445 S
C270 C267 1.463 . S
C270 N274 1.427 . S
C271 H261 0.929 . S
C271 C269 1.433 . S
C271 N274 1.384 . S
C272 H263 0.929 . S
C272 C264 1.378 . S
C272 C267 1.350 . S
C273 H260 0.929 . S
C273 C265 1.433 1_665 S
C273 N275 1.384 . S
N274 C270 1.427 . S
N274 C271 1.384 . S
N275 C267 1.427 1_665 S
N275 C273 1.384 . S
H276 C282 0.930 . S
H277 C286 0.930 . S
H278 C291 0.929 . S
H279 C289 0.929 . S
H280 C284 0.929 . S
H281 C290 0.929 . S
C282 H276 0.930 . S
C282 C283 1.367 . S
C282 C290 1.378 . S
C283 C282 1.367 . S
C283 C291 1.433 . S
C284 H280 0.929 . S
C284 C286 1.378 . S
C284 C288 1.350 . S
C285 C288 1.463 . S
C285 C290 1.350 . S
C285 N293 1.427 . S
C286 H277 0.930 . S
C286 C284 1.378 . S
C286 C287 1.367 . S
C287 C286 1.367 . S
C287 C289 1.433 . S
C288 C284 1.350 . S
C288 C285 1.463 . S
C288 N292 1.427 . S
C289 H279 0.929 . S
C289 C287 1.433 . S
C289 N292 1.384 . S
C290 H281 0.929 . S
C290 C282 1.378 . S
C290 C285 1.350 . S
C291 H278 0.929 . S
C291 C283 1.433 . S
C291 N293 1.384 . S
N292 C288 1.427 . S
N292 C289 1.384 . S
N293 C285 1.427 . S
N293 C291 1.384 . S
H294 C300 0.930 . S
H295 C304 0.930 . S
H296 C309 0.929 . S
H297 C307 0.929 . S
H298 C302 0.929 . S
H299 C308 0.929 . S
C300 H294 0.930 . S
C300 C301 1.367 . S
C300 C308 1.378 . S
C301 C300 1.367 . S
C301 C309 1.433 . S
C302 H298 0.929 . S
C302 C304 1.378 . S
C302 C306 1.350 . S
C303 C306 1.463 . S
C303 C308 1.350 . S
C303 N311 1.427 . S
C304 H295 0.930 . S
C304 C302 1.378 . S
C304 C305 1.367 . S
C305 C304 1.367 . S
C305 C307 1.433 . S
C306 C302 1.350 . S
C306 C303 1.463 . S
C306 N310 1.427 . S
C307 H297 0.929 . S
C307 C305 1.433 . S
C307 N310 1.384 . S
C308 H299 0.929 . S
C308 C300 1.378 . S
C308 C303 1.350 . S
C309 H296 0.929 . S
C309 C301 1.433 . S
C309 N311 1.384 . S
N310 C306 1.427 . S
N310 C307 1.384 . S
N311 C303 1.427 . S
N311 C309 1.384 . S
C107 C91 1.385 . S
C103 C27 1.397 . S
C121 N6 1.305 . S
C125 C82 1.366 . S
C139 C16 1.389 . S
C143 C94 1.384 . S
C157 N14 1.368 . S
C161 C85 1.364 . S
C175 C57 1.397 . S
C179 C73 1.385 . S
C193 N36 1.313 . S
C197 C64 1.365 . S
C215 C76 1.380 . S
C211 C46 1.392 . S
C233 C67 1.359 . S
C229 N44 1.363 . S
C247 C10 1.391 . S
C251 C65 1.396 . S
C265 C1 1.537 . S
C269 C74 1.541 . S
C287 C83 1.397 . S
C283 C40 1.392 . S
C301 C31 1.537 . S
C305 C92 1.541 . S
