# Generated by pormake.
# Topology ptr, (4,4)-cn, num edge types: 1
# Building blocks:
#     Node 0, Type 0, BuildingBlock: KUFVIS_clean_sbu_0, # of connection points: 4
#     Node 1, Type 0, BuildingBlock: KUFVIS_clean_sbu_0, # of connection points: 4
#     Node 2, Type 0, BuildingBlock: KUFVIS_clean_sbu_0, # of connection points: 4
#     Node 3, Type 0, BuildingBlock: KUFVIS_clean_sbu_0, # of connection points: 4
#     Node 4, Type 0, BuildingBlock: KUFVIS_clean_sbu_0, # of connection points: 4
#     Node 5, Type 0, BuildingBlock: KUFVIS_clean_sbu_0, # of connection points: 4
#     Node 6, Type 0, BuildingBlock: KUFVIS_clean_sbu_0, # of connection points: 4
#     Node 7, Type 0, BuildingBlock: KUFVIS_clean_sbu_0, # of connection points: 4
#     Node 8, Type 0, BuildingBlock: KUFVIS_clean_sbu_0, # of connection points: 4
#     Node 9, Type 0, BuildingBlock: KUFVIS_clean_sbu_0, # of connection points: 4
#     Node 10, Type 0, BuildingBlock: KUFVIS_clean_sbu_0, # of connection points: 4
#     Node 11, Type 0, BuildingBlock: KUFVIS_clean_sbu_0, # of connection points: 4
#     Node 12, Type 0, BuildingBlock: KUFVIS_clean_sbu_0, # of connection points: 4
#     Node 13, Type 0, BuildingBlock: KUFVIS_clean_sbu_0, # of connection points: 4
#     Node 14, Type 0, BuildingBlock: KUFVIS_clean_sbu_0, # of connection points: 4
#     Node 15, Type 0, BuildingBlock: KUFVIS_clean_sbu_0, # of connection points: 4
#     Node 16, Type 0, BuildingBlock: KUFVIS_clean_sbu_0, # of connection points: 4
#     Node 17, Type 0, BuildingBlock: KUFVIS_clean_sbu_0, # of connection points: 4
#     Node 18, Type 1, BuildingBlock: NAWXER_clean_linker_0, # of connection points: 4
#     Node 19, Type 1, BuildingBlock: NAWXER_clean_linker_0, # of connection points: 4
#     Node 20, Type 1, BuildingBlock: NAWXER_clean_linker_0, # of connection points: 4
#     Node 21, Type 1, BuildingBlock: NAWXER_clean_linker_0, # of connection points: 4
#     Node 22, Type 1, BuildingBlock: NAWXER_clean_linker_0, # of connection points: 4
#     Node 23, Type 1, BuildingBlock: NAWXER_clean_linker_0, # of connection points: 4
#     Node 24, Type 1, BuildingBlock: NAWXER_clean_linker_0, # of connection points: 4
#     Node 25, Type 1, BuildingBlock: NAWXER_clean_linker_0, # of connection points: 4
#     Node 26, Type 1, BuildingBlock: NAWXER_clean_linker_0, # of connection points: 4
#     Node 27, Type 1, BuildingBlock: NAWXER_clean_linker_0, # of connection points: 4
#     Node 28, Type 1, BuildingBlock: NAWXER_clean_linker_0, # of connection points: 4
#     Node 29, Type 1, BuildingBlock: NAWXER_clean_linker_0, # of connection points: 4
#     Node 30, Type 1, BuildingBlock: NAWXER_clean_linker_0, # of connection points: 4
#     Node 31, Type 1, BuildingBlock: NAWXER_clean_linker_0, # of connection points: 4
#     Node 32, Type 1, BuildingBlock: NAWXER_clean_linker_0, # of connection points: 4
#     Node 33, Type 1, BuildingBlock: NAWXER_clean_linker_0, # of connection points: 4
#     Node 34, Type 1, BuildingBlock: NAWXER_clean_linker_0, # of connection points: 4
#     Node 35, Type 1, BuildingBlock: NAWXER_clean_linker_0, # of connection points: 4
#     Edge 36, Type (0, 1), BuildingBlock: XIVTED_clean_linker_0, # of connection points: 2
#     Edge 37, Type (0, 1), BuildingBlock: XIVTED_clean_linker_0, # of connection points: 2
#     Edge 38, Type (0, 1), BuildingBlock: XIVTED_clean_linker_0, # of connection points: 2
#     Edge 39, Type (0, 1), BuildingBlock: XIVTED_clean_linker_0, # of connection points: 2
#     Edge 40, Type (0, 1), BuildingBlock: XIVTED_clean_linker_0, # of connection points: 2
#     Edge 41, Type (0, 1), BuildingBlock: XIVTED_clean_linker_0, # of connection points: 2
#     Edge 42, Type (0, 1), BuildingBlock: XIVTED_clean_linker_0, # of connection points: 2
#     Edge 43, Type (0, 1), BuildingBlock: XIVTED_clean_linker_0, # of connection points: 2
#     Edge 44, Type (0, 1), BuildingBlock: XIVTED_clean_linker_0, # of connection points: 2
#     Edge 45, Type (0, 1), BuildingBlock: XIVTED_clean_linker_0, # of connection points: 2
#     Edge 46, Type (0, 1), BuildingBlock: XIVTED_clean_linker_0, # of connection points: 2
#     Edge 47, Type (0, 1), BuildingBlock: XIVTED_clean_linker_0, # of connection points: 2
#     Edge 48, Type (0, 1), BuildingBlock: XIVTED_clean_linker_0, # of connection points: 2
#     Edge 49, Type (0, 1), BuildingBlock: XIVTED_clean_linker_0, # of connection points: 2
#     Edge 50, Type (0, 1), BuildingBlock: XIVTED_clean_linker_0, # of connection points: 2
#     Edge 51, Type (0, 1), BuildingBlock: XIVTED_clean_linker_0, # of connection points: 2
#     Edge 52, Type (0, 1), BuildingBlock: XIVTED_clean_linker_0, # of connection points: 2
#     Edge 53, Type (0, 1), BuildingBlock: XIVTED_clean_linker_0, # of connection points: 2
#     Edge 54, Type (0, 1), BuildingBlock: XIVTED_clean_linker_0, # of connection points: 2
#     Edge 55, Type (0, 1), BuildingBlock: XIVTED_clean_linker_0, # of connection points: 2
#     Edge 56, Type (0, 1), BuildingBlock: XIVTED_clean_linker_0, # of connection points: 2
#     Edge 57, Type (0, 1), BuildingBlock: XIVTED_clean_linker_0, # of connection points: 2
#     Edge 58, Type (0, 1), BuildingBlock: XIVTED_clean_linker_0, # of connection points: 2
#     Edge 59, Type (0, 1), BuildingBlock: XIVTED_clean_linker_0, # of connection points: 2
#     Edge 60, Type (0, 1), BuildingBlock: XIVTED_clean_linker_0, # of connection points: 2
#     Edge 61, Type (0, 1), BuildingBlock: XIVTED_clean_linker_0, # of connection points: 2
#     Edge 62, Type (0, 1), BuildingBlock: XIVTED_clean_linker_0, # of connection points: 2
#     Edge 63, Type (0, 1), BuildingBlock: XIVTED_clean_linker_0, # of connection points: 2
#     Edge 64, Type (0, 1), BuildingBlock: XIVTED_clean_linker_0, # of connection points: 2
#     Edge 65, Type (0, 1), BuildingBlock: XIVTED_clean_linker_0, # of connection points: 2
#     Edge 66, Type (0, 1), BuildingBlock: XIVTED_clean_linker_0, # of connection points: 2
#     Edge 67, Type (0, 1), BuildingBlock: XIVTED_clean_linker_0, # of connection points: 2
#     Edge 68, Type (0, 1), BuildingBlock: XIVTED_clean_linker_0, # of connection points: 2
#     Edge 69, Type (0, 1), BuildingBlock: XIVTED_clean_linker_0, # of connection points: 2
#     Edge 70, Type (0, 1), BuildingBlock: XIVTED_clean_linker_0, # of connection points: 2
#     Edge 71, Type (0, 1), BuildingBlock: XIVTED_clean_linker_0, # of connection points: 2
#     Edge 72, Type (0, 1), BuildingBlock: XIVTED_clean_linker_0, # of connection points: 2
#     Edge 73, Type (0, 1), BuildingBlock: XIVTED_clean_linker_0, # of connection points: 2
#     Edge 74, Type (0, 1), BuildingBlock: XIVTED_clean_linker_0, # of connection points: 2
#     Edge 75, Type (0, 1), BuildingBlock: XIVTED_clean_linker_0, # of connection points: 2
#     Edge 76, Type (0, 1), BuildingBlock: XIVTED_clean_linker_0, # of connection points: 2
#     Edge 77, Type (0, 1), BuildingBlock: XIVTED_clean_linker_0, # of connection points: 2
#     Edge 78, Type (0, 1), BuildingBlock: XIVTED_clean_linker_0, # of connection points: 2
#     Edge 79, Type (0, 1), BuildingBlock: XIVTED_clean_linker_0, # of connection points: 2
#     Edge 80, Type (0, 1), BuildingBlock: XIVTED_clean_linker_0, # of connection points: 2
#     Edge 81, Type (0, 1), BuildingBlock: XIVTED_clean_linker_0, # of connection points: 2
#     Edge 82, Type (0, 1), BuildingBlock: XIVTED_clean_linker_0, # of connection points: 2
#     Edge 83, Type (0, 1), BuildingBlock: XIVTED_clean_linker_0, # of connection points: 2
#     Edge 84, Type (0, 1), BuildingBlock: XIVTED_clean_linker_0, # of connection points: 2
#     Edge 85, Type (0, 1), BuildingBlock: XIVTED_clean_linker_0, # of connection points: 2
#     Edge 86, Type (0, 1), BuildingBlock: XIVTED_clean_linker_0, # of connection points: 2
#     Edge 87, Type (0, 1), BuildingBlock: XIVTED_clean_linker_0, # of connection points: 2
#     Edge 88, Type (0, 1), BuildingBlock: XIVTED_clean_linker_0, # of connection points: 2
#     Edge 89, Type (0, 1), BuildingBlock: XIVTED_clean_linker_0, # of connection points: 2
#     Edge 90, Type (0, 1), BuildingBlock: XIVTED_clean_linker_0, # of connection points: 2
#     Edge 91, Type (0, 1), BuildingBlock: XIVTED_clean_linker_0, # of connection points: 2
#     Edge 92, Type (0, 1), BuildingBlock: XIVTED_clean_linker_0, # of connection points: 2
#     Edge 93, Type (0, 1), BuildingBlock: XIVTED_clean_linker_0, # of connection points: 2
#     Edge 94, Type (0, 1), BuildingBlock: XIVTED_clean_linker_0, # of connection points: 2
#     Edge 95, Type (0, 1), BuildingBlock: XIVTED_clean_linker_0, # of connection points: 2
#     Edge 96, Type (0, 1), BuildingBlock: XIVTED_clean_linker_0, # of connection points: 2
#     Edge 97, Type (0, 1), BuildingBlock: XIVTED_clean_linker_0, # of connection points: 2
#     Edge 98, Type (0, 1), BuildingBlock: XIVTED_clean_linker_0, # of connection points: 2
#     Edge 99, Type (0, 1), BuildingBlock: XIVTED_clean_linker_0, # of connection points: 2
#     Edge 100, Type (0, 1), BuildingBlock: XIVTED_clean_linker_0, # of connection points: 2
#     Edge 101, Type (0, 1), BuildingBlock: XIVTED_clean_linker_0, # of connection points: 2
#     Edge 102, Type (0, 1), BuildingBlock: XIVTED_clean_linker_0, # of connection points: 2
#     Edge 103, Type (0, 1), BuildingBlock: XIVTED_clean_linker_0, # of connection points: 2
#     Edge 104, Type (0, 1), BuildingBlock: XIVTED_clean_linker_0, # of connection points: 2
#     Edge 105, Type (0, 1), BuildingBlock: XIVTED_clean_linker_0, # of connection points: 2
#     Edge 106, Type (0, 1), BuildingBlock: XIVTED_clean_linker_0, # of connection points: 2
#     Edge 107, Type (0, 1), BuildingBlock: XIVTED_clean_linker_0, # of connection points: 2
# Relax obj value: 0.038
# Max RMSD: 0.167
# Mean RMSD: 0.064
data_MOF--net-ptr--node1-KUFVIS_clean_sbu_0--node2-NAWXER_clean_linker_0--edge1-XIVTED_clean_linker_0
_symmetry_space_group_name_H-M    P1
_symmetry_Int_Tables_number       1
_symmetry_cell_setting            triclinic
loop_
_symmetry_equiv_pos_as_xyz
'x, y, z'
_cell_length_a     87.090856
_cell_length_b     86.639573
_cell_length_c     64.364899
_cell_angle_alpha  89.801912
_cell_angle_beta   90.529168
_cell_angle_gamma 119.45304
loop_
_atom_site_label
_atom_site_type_symbol
_atom_site_fract_x
_atom_site_fract_y
_atom_site_fract_z
_atom_type_partial_charge
Mn0 Mn 0.99805 0.34407 0.00173 0.0
Mn1 Mn 0.03538 0.38372 0.00412 0.0
C2 C 0.00163 0.36635 0.97938 0.0
C3 C 0.98281 0.31527 0.98889 0.0
C4 C 0.00561 0.37217 0.03496 0.0
O5 O 0.01464 0.33865 0.01849 0.0
O6 O 0.03931 0.36536 0.01793 0.0
C7 C 0.05757 0.37562 0.97666 0.0
N8 N 0.05024 0.38588 0.98137 0.0
C9 C 0.06414 0.40493 0.95213 0.0
C10 C 0.07195 0.39464 0.94704 0.0
C11 C 0.06861 0.3799 0.95933 0.0
C12 C 0.05331 0.40006 0.96962 0.0
H13 H 0.05501 0.36426 0.98607 0.0
C14 C 0.03079 0.34896 0.02307 0.0
O15 O 0.97815 0.31957 0.00609 0.0
O16 O 0.99651 0.32758 0.97954 0.0
N17 N 0.03368 0.40284 0.99147 0.0
C18 C 0.02438 0.4108 0.99786 0.0
C19 C 0.0258 0.42545 0.98683 0.0
C20 C 0.03692 0.4319 0.96952 0.0
C21 C 0.04655 0.42365 0.96344 0.0
C22 C 0.04465 0.40914 0.97508 0.0
H23 H 0.01585 0.40592 0.01118 0.0
O24 O 0.98602 0.35327 0.9832 0.0
O25 O 0.01481 0.36591 0.98854 0.0
O26 O 0.99516 0.35717 0.02671 0.0
O27 O 0.02086 0.38285 0.02781 0.0
C28 C 0.0577 0.42904 0.94604 0.0
C29 C 0.06644 0.41965 0.94035 0.0
H30 H 0.08041 0.39786 0.93363 0.0
H31 H 0.07452 0.37184 0.95544 0.0
H32 H 0.01832 0.43175 0.99163 0.0
H33 H 0.03786 0.44311 0.96095 0.0
H34 H 0.05944 0.44023 0.93676 0.0
H35 H 0.07476 0.42376 0.92675 0.0
Mn36 Mn 0.65029 0.65331 0.01292 0.0
Mn37 Mn 0.64719 0.61293 0.01103 0.0
C38 C 0.63319 0.6321 0.0369 0.0
C39 C 0.66484 0.6827 0.02391 0.0
C40 C 0.62798 0.62489 0.98114 0.0
O41 O 0.67062 0.65717 0.99428 0.0
O42 O 0.6691 0.63051 0.99694 0.0
C43 C 0.67765 0.61969 0.03786 0.0
N44 N 0.66007 0.61013 0.03352 0.0
C45 C 0.65524 0.59094 0.06277 0.0
C46 C 0.67331 0.60051 0.06748 0.0
C47 C 0.68455 0.61497 0.055 0.0
C48 C 0.64913 0.59621 0.04543 0.0
H49 H 0.68631 0.63082 0.02831 0.0
C50 C 0.67651 0.64658 0.99051 0.0
O51 O 0.65465 0.67775 0.0076 0.0
O52 O 0.66697 0.67066 0.03348 0.0
N53 N 0.62664 0.59459 0.02416 0.0
C54 C 0.60941 0.58749 0.01828 0.0
C55 C 0.59636 0.57328 0.02961 0.0
C56 C 0.60116 0.56641 0.04671 0.0
C57 C 0.619 0.57379 0.05231 0.0
C58 C 0.63143 0.58789 0.04038 0.0
H59 H 0.60564 0.5927 0.00513 0.0
O60 O 0.6308 0.64551 0.03328 0.0
O61 O 0.6458 0.63166 0.02666 0.0
O62 O 0.63252 0.63978 0.9897 0.0
O63 O 0.63323 0.61424 0.9874 0.0
C64 C 0.62489 0.56802 0.06956 0.0
C65 C 0.64299 0.5766 0.07481 0.0
H66 H 0.67868 0.59697 0.08075 0.0
H67 H 0.6985 0.62247 0.05861 0.0
H68 H 0.58262 0.56766 0.0252 0.0
H69 H 0.59104 0.55556 0.05553 0.0
H70 H 0.61558 0.55719 0.07912 0.0
H71 H 0.64733 0.57222 0.08831 0.0
Mn72 Mn 0.34213 0.99716 0.01676 0.0
Mn73 Mn 0.37989 0.03639 0.0179 0.0
C74 C 0.36419 0.00139 0.04011 0.0
C75 C 0.31308 0.98023 0.02785 0.0
C76 C 0.37113 0.00827 0.98464 0.0
O77 O 0.33613 0.0135 0.99994 0.0
O78 O 0.36065 0.0397 0.00574 0.0
C79 C 0.3697 0.0549 0.04875 0.0
N80 N 0.3809 0.0491 0.04254 0.0
C81 C 0.39911 0.06136 0.07301 0.0
C82 C 0.38785 0.06761 0.07966 0.0
C83 C 0.37306 0.06431 0.0675 0.0
C84 C 0.39509 0.05207 0.05419 0.0
H85 H 0.35828 0.05232 0.03949 0.0
C86 C 0.34499 0.03035 0.99844 0.0
O87 O 0.3184 0.97629 0.01089 0.0
O88 O 0.32451 0.99408 0.03802 0.0
N89 N 0.39974 0.03537 0.02936 0.0
C90 C 0.40907 0.02813 0.02096 0.0
C91 C 0.42419 0.03008 0.03132 0.0
C92 C 0.42967 0.03961 0.05005 0.0
C93 C 0.42006 0.04724 0.05818 0.0
C94 C 0.40518 0.04498 0.04708 0.0
H95 H 0.40499 0.02087 0.00651 0.0
O96 O 0.3518 0.98551 0.03555 0.0
O97 O 0.36297 0.0143 0.03138 0.0
O98 O 0.3568 0.9962 0.99254 0.0
O99 O 0.3801 0.02385 0.99236 0.0
C100 C 0.42452 0.05679 0.077 0.0
C101 C 0.41401 0.06379 0.08445 0.0
H102 H 0.39037 0.07483 0.09413 0.0
H103 H 0.36426 0.069 0.07259 0.0
H104 H 0.43158 0.02421 0.0249 0.0
H105 H 0.44125 0.04094 0.05809 0.0
H106 H 0.43587 0.05863 0.086 0.0
H107 H 0.41744 0.07092 0.09907 0.0
Mn108 Mn 0.00357 0.6585 0.00096 0.0
Mn109 Mn 0.04139 0.65658 0.00226 0.0
C110 C 0.00716 0.64004 0.97831 0.0
C111 C 0.98764 0.67186 0.98889 0.0
C112 C 0.01218 0.63803 0.03366 0.0
O113 O 0.02012 0.68037 0.01754 0.0
O114 O 0.04503 0.67854 0.01641 0.0
C115 C 0.06259 0.687 0.97465 0.0
N116 N 0.05576 0.6695 0.97931 0.0
C117 C 0.0695 0.66485 0.94954 0.0
C118 C 0.0768 0.68285 0.9445 0.0
C119 C 0.07329 0.69395 0.95708 0.0
C120 C 0.059 0.65869 0.96728 0.0
H121 H 0.05987 0.69555 0.98427 0.0
C122 C 0.03635 0.68624 0.02187 0.0
O123 O 0.98346 0.66284 0.00608 0.0
O124 O 0.00123 0.67337 0.97904 0.0
N125 N 0.04006 0.6361 0.98932 0.0
C126 C 0.03126 0.6189 0.99573 0.0
C127 C 0.03294 0.60596 0.98447 0.0
C128 C 0.04381 0.61087 0.96692 0.0
C129 C 0.05295 0.6287 0.96082 0.0
C130 C 0.05083 0.64102 0.97271 0.0
H131 H 0.02292 0.61507 0.00924 0.0
O132 O 0.99153 0.63744 0.98254 0.0
O133 O 0.02037 0.65365 0.9872 0.0
O134 O 0.00145 0.64258 0.02583 0.0
O135 O 0.02735 0.64268 0.0261 0.0
C136 C 0.06374 0.63466 0.94313 0.0
C137 C 0.07198 0.65272 0.93746 0.0
H138 H 0.08499 0.68825 0.93091 0.0
H139 H 0.0788 0.70784 0.95323 0.0
H140 H 0.02584 0.59223 0.98928 0.0
H141 H 0.04493 0.60082 0.95815 0.0
H142 H 0.06556 0.62543 0.93357 0.0
H143 H 0.08003 0.6571 0.92366 0.0
Mn144 Mn 0.34529 0.35077 0.01634 0.0
Mn145 Mn 0.38456 0.3517 0.01751 0.0
C146 C 0.36602 0.36739 0.04141 0.0
C147 C 0.31582 0.33742 0.02635 0.0
C148 C 0.37588 0.37325 0.98707 0.0
O149 O 0.34074 0.32995 0.9979 0.0
O150 O 0.36694 0.3309 0.0012 0.0
C151 C 0.37376 0.31917 0.04232 0.0
N152 N 0.38475 0.33683 0.0394 0.0
C153 C 0.40212 0.33848 0.06945 0.0
C154 C 0.39109 0.32027 0.07268 0.0
C155 C 0.3768 0.31059 0.0591 0.0
C156 C 0.39843 0.3463 0.05247 0.0
H157 H 0.36277 0.31168 0.03192 0.0
C158 C 0.35107 0.32381 0.99426 0.0
O159 O 0.32137 0.34756 0.01007 0.0
O160 O 0.32724 0.33467 0.03633 0.0
N161 N 0.40304 0.37081 0.03285 0.0
C162 C 0.41167 0.38847 0.02845 0.0
C163 C 0.42598 0.40012 0.04098 0.0
C164 C 0.4314 0.39349 0.05775 0.0
C165 C 0.4224 0.37525 0.0619 0.0
C166 C 0.40826 0.36427 0.04885 0.0
H167 H 0.40748 0.39366 0.0157 0.0
O168 O 0.35336 0.37058 0.03663 0.0
O169 O 0.36605 0.35422 0.0317 0.0
O170 O 0.36022 0.36817 0.99334 0.0
O171 O 0.38584 0.36773 0.99491 0.0
C172 C 0.42667 0.36758 0.07874 0.0
C173 C 0.41648 0.34923 0.08258 0.0
H174 H 0.39338 0.31361 0.08562 0.0
H175 H 0.36817 0.29655 0.06155 0.0
H176 H 0.43277 0.4142 0.03776 0.0
H177 H 0.44234 0.40254 0.06749 0.0
H178 H 0.43759 0.37572 0.08904 0.0
H179 H 0.41971 0.34354 0.09578 0.0
Mn180 Mn 0.65646 0.00218 0.00398 0.0
Mn181 Mn 0.61681 0.96505 0.00614 0.0
C182 C 0.63432 0.99888 0.9815 0.0
C183 C 0.68508 0.0169 0.99132 0.0
C184 C 0.62935 0.99503 0.03749 0.0
O185 O 0.66137 0.98523 0.02098 0.0
O186 O 0.63513 0.96023 0.01816 0.0
C187 C 0.62285 0.94243 0.97673 0.0
N188 N 0.61334 0.95029 0.98259 0.0
C189 C 0.59316 0.93717 0.95387 0.0
C190 C 0.60267 0.92884 0.94758 0.0
C191 C 0.6176 0.93152 0.95903 0.0
C192 C 0.59897 0.94783 0.97168 0.0
H193 H 0.63434 0.94448 0.98549 0.0
C194 C 0.65132 0.96868 0.02402 0.0
O195 O 0.68102 0.02188 0.00846 0.0
O196 O 0.67265 0.00313 0.98197 0.0
N197 N 0.59788 0.96779 0.99489 0.0
C198 C 0.59088 0.97771 0.00223 0.0
C199 C 0.57624 0.97706 0.99206 0.0
C200 C 0.56885 0.96611 0.97458 0.0
C201 C 0.57617 0.95588 0.96745 0.0
C202 C 0.59072 0.95702 0.97826 0.0
H203 H 0.59648 0.98613 0.01567 0.0
O204 O 0.64763 0.01447 0.98521 0.0
O205 O 0.63454 0.98561 0.99075 0.0
O206 O 0.64374 0.00574 0.02859 0.0
O207 O 0.61887 0.97939 0.03087 0.0
C208 C 0.56983 0.94488 0.94978 0.0
C209 C 0.57835 0.93558 0.94295 0.0
H210 H 0.59872 0.92048 0.93389 0.0
H211 H 0.62506 0.9252 0.95422 0.0
H212 H 0.57069 0.98502 0.99765 0.0
H213 H 0.55765 0.96576 0.96667 0.0
H214 H 0.55858 0.94372 0.94112 0.0
H215 H 0.57353 0.92741 0.92914 0.0
Mn216 Mn 0.66157 0.67961 0.33821 0.0
Mn217 Mn 0.69897 0.7192 0.3372 0.0
C218 C 0.66541 0.69974 0.3125 0.0
C219 C 0.64617 0.64986 0.3288 0.0
C220 C 0.6692 0.71028 0.36748 0.0
O221 O 0.6781 0.67573 0.35721 0.0
O222 O 0.70301 0.70192 0.35339 0.0
C223 C 0.72125 0.70935 0.31229 0.0
N224 N 0.71381 0.7198 0.31518 0.0
C225 C 0.72772 0.73681 0.28458 0.0
C226 C 0.73563 0.7263 0.28133 0.0
C227 C 0.73233 0.71248 0.29522 0.0
C228 C 0.71686 0.73311 0.3019 0.0
H229 H 0.71873 0.69871 0.32293 0.0
C230 C 0.69446 0.68615 0.3607 0.0
O231 O 0.64146 0.65571 0.3447 0.0
O232 O 0.66007 0.66117 0.31884 0.0
N233 N 0.69704 0.73718 0.32195 0.0
C234 C 0.68748 0.7453 0.32653 0.0
C235 C 0.68875 0.75902 0.3137 0.0
C236 C 0.69997 0.76437 0.29644 0.0
C237 C 0.70983 0.75595 0.29219 0.0
C238 C 0.70807 0.7424 0.30557 0.0
H239 H 0.67886 0.74127 0.33979 0.0
O240 O 0.64973 0.68717 0.31711 0.0
O241 O 0.67844 0.7001 0.32295 0.0
O242 O 0.65862 0.69479 0.36055 0.0
O243 O 0.68456 0.72014 0.36008 0.0
C244 C 0.72102 0.76018 0.27491 0.0
C245 C 0.72993 0.75059 0.27109 0.0
H246 H 0.74412 0.72862 0.26813 0.0
H247 H 0.73832 0.70426 0.29276 0.0
H248 H 0.68109 0.76544 0.31707 0.0
H249 H 0.7008 0.77484 0.28647 0.0
H250 H 0.72262 0.77058 0.26427 0.0
H251 H 0.73826 0.75377 0.25757 0.0
Mn252 Mn 0.31938 0.9854 0.35026 0.0
Mn253 Mn 0.31876 0.94617 0.34985 0.0
C254 C 0.30038 0.96295 0.37189 0.0
C255 C 0.33183 0.0142 0.36303 0.0
C256 C 0.30176 0.95771 0.31622 0.0
O257 O 0.34172 0.99081 0.33482 0.0
O258 O 0.34176 0.96499 0.33907 0.0
C259 C 0.34621 0.95383 0.38187 0.0
N260 N 0.32939 0.9436 0.37477 0.0
C261 C 0.32193 0.92435 0.40445 0.0
C262 C 0.33922 0.93459 0.412 0.0
C263 C 0.3514 0.94942 0.40068 0.0
C264 C 0.31754 0.92935 0.38558 0.0
H265 H 0.35557 0.9653 0.37325 0.0
C266 C 0.34887 0.9811 0.33287 0.0
O267 O 0.32354 0.00992 0.34527 0.0
O268 O 0.33325 0.0019 0.37293 0.0
N269 N 0.29736 0.92669 0.35994 0.0
C270 C 0.28107 0.91852 0.35083 0.0
C271 C 0.26729 0.90357 0.36035 0.0
C272 C 0.27043 0.8971 0.37902 0.0
C273 C 0.28737 0.90555 0.38792 0.0
C274 C 0.30063 0.92029 0.37762 0.0
H275 H 0.27858 0.9234 0.33647 0.0
O276 O 0.29771 0.97606 0.36754 0.0
O277 O 0.31434 0.9636 0.36388 0.0
O278 O 0.30458 0.97216 0.32476 0.0
O279 O 0.30714 0.94754 0.32391 0.0
C280 C 0.29154 0.90012 0.4068 0.0
C281 C 0.3088 0.90954 0.41508 0.0
H282 H 0.34325 0.93128 0.42655 0.0
H283 H 0.36474 0.95746 0.40646 0.0
H284 H 0.25426 0.8971 0.35337 0.0
H285 H 0.25972 0.88569 0.38644 0.0
H286 H 0.28153 0.88886 0.41519 0.0
H287 H 0.3118 0.90537 0.42973 0.0
Mn288 Mn 0.00872 0.32904 0.34636 0.0
Mn289 Mn 0.04642 0.36832 0.34784 0.0
C290 C 0.03027 0.33336 0.37048 0.0
C291 C 0.97947 0.31196 0.35664 0.0
C292 C 0.03816 0.34005 0.31493 0.0
O293 O 0.00303 0.3453 0.329 0.0
O294 O 0.02732 0.37165 0.33515 0.0
C295 C 0.03629 0.38745 0.37788 0.0
N296 N 0.04744 0.38147 0.37207 0.0
C297 C 0.06599 0.39477 0.40205 0.0
C298 C 0.0548 0.40122 0.40827 0.0
C299 C 0.03986 0.39749 0.39617 0.0
C300 C 0.06181 0.38491 0.38363 0.0
H301 H 0.02477 0.38456 0.36865 0.0
C302 C 0.01179 0.36216 0.32753 0.0
O303 O 0.9852 0.30812 0.33995 0.0
O304 O 0.9906 0.32587 0.36699 0.0
N305 N 0.06605 0.36721 0.35985 0.0
C306 C 0.07482 0.35901 0.35243 0.0
C307 C 0.08973 0.36084 0.36319 0.0
C308 C 0.09559 0.37122 0.3813 0.0
C309 C 0.08649 0.37971 0.38848 0.0
C310 C 0.07175 0.37746 0.37707 0.0
H311 H 0.07043 0.35107 0.33849 0.0
O312 O 0.018 0.31748 0.36569 0.0
O313 O 0.02927 0.34631 0.36145 0.0
O314 O 0.02381 0.32795 0.32271 0.0
O315 O 0.04691 0.35565 0.32258 0.0
C316 C 0.09119 0.38994 0.40681 0.0
C317 C 0.08093 0.39743 0.41361 0.0
H318 H 0.05746 0.40889 0.42242 0.0
H319 H 0.0311 0.40233 0.40094 0.0
H320 H 0.09668 0.35424 0.35754 0.0
H321 H 0.10699 0.37245 0.38966 0.0
H322 H 0.10248 0.39185 0.41599 0.0
H323 H 0.0845 0.40501 0.42791 0.0
Mn324 Mn 0.66826 0.98412 0.33836 0.0
Mn325 Mn 0.70792 0.98622 0.3419 0.0
C326 C 0.67433 0.96643 0.31719 0.0
C327 C 0.65091 0.99519 0.3243 0.0
C328 C 0.67844 0.96668 0.37302 0.0
O329 O 0.68308 0.00666 0.35494 0.0
O330 O 0.70976 0.00851 0.35295 0.0
C331 C 0.72716 0.01494 0.31147 0.0
N332 N 0.72165 0.99808 0.31807 0.0
C333 C 0.73569 0.9925 0.28928 0.0
C334 C 0.74169 0.00988 0.2823 0.0
C335 C 0.73736 0.02112 0.29342 0.0
C336 C 0.72562 0.98711 0.30741 0.0
H337 H 0.72374 0.02357 0.31986 0.0
C338 C 0.69969 0.01474 0.35814 0.0
O339 O 0.64676 0.98649 0.34172 0.0
O340 O 0.66531 0.9978 0.31547 0.0
N341 N 0.7083 0.96569 0.33162 0.0
C342 C 0.70109 0.94917 0.3401 0.0
C343 C 0.70397 0.93623 0.33067 0.0
C344 C 0.71435 0.94044 0.31275 0.0
C345 C 0.72189 0.95761 0.30452 0.0
C346 C 0.71872 0.97001 0.31472 0.0
H347 H 0.69313 0.94584 0.35389 0.0
O348 O 0.65816 0.96264 0.32028 0.0
O349 O 0.68649 0.98072 0.32613 0.0
O350 O 0.6668 0.96913 0.36371 0.0
O351 O 0.69433 0.97322 0.36669 0.0
C352 C 0.7322 0.96282 0.28642 0.0
C353 C 0.73905 0.98024 0.27877 0.0
H354 H 0.74949 0.01467 0.26834 0.0
H355 H 0.74183 0.0345 0.28804 0.0
H356 H 0.69814 0.92302 0.33715 0.0
H357 H 0.71638 0.93036 0.30539 0.0
H358 H 0.73477 0.95348 0.27812 0.0
H359 H 0.74678 0.98403 0.2647 0.0
Mn360 Mn 0.01355 0.68053 0.35055 0.0
Mn361 Mn 0.05375 0.68366 0.35141 0.0
C362 C 0.03467 0.6995 0.37385 0.0
C363 C 0.98444 0.66648 0.36197 0.0
C364 C 0.04212 0.70107 0.31847 0.0
O365 O 0.0097 0.65881 0.33422 0.0
O366 O 0.03637 0.66088 0.3382 0.0
C367 C 0.0466 0.65452 0.38069 0.0
N368 N 0.05621 0.67192 0.37533 0.0
C369 C 0.075 0.67831 0.4054 0.0
C370 C 0.06538 0.66042 0.41119 0.0
C371 C 0.05109 0.64849 0.39881 0.0
C372 C 0.06995 0.68353 0.38715 0.0
H373 H 0.03562 0.64532 0.3712 0.0
C374 C 0.02036 0.65286 0.33163 0.0
O375 O 0.98889 0.67535 0.34467 0.0
O376 O 0.99676 0.66536 0.37214 0.0
N377 N 0.07192 0.70497 0.36379 0.0
C378 C 0.07916 0.72194 0.3567 0.0
C379 C 0.09323 0.73563 0.36773 0.0
C380 C 0.09984 0.7317 0.38577 0.0
C381 C 0.09233 0.71411 0.39261 0.0
C382 C 0.07836 0.70102 0.38096 0.0
H383 H 0.07417 0.72503 0.34281 0.0
O384 O 0.02134 0.70158 0.36891 0.0
O385 O 0.03511 0.68613 0.36528 0.0
O386 O 0.02698 0.69667 0.32596 0.0
O387 O 0.0527 0.69644 0.32653 0.0
C388 C 0.09791 0.70909 0.41076 0.0
C389 C 0.08922 0.69122 0.41719 0.0
H390 H 0.06875 0.65574 0.42519 0.0
H391 H 0.04355 0.63469 0.40322 0.0
H392 H 0.09895 0.74918 0.36235 0.0
H393 H 0.1106 0.74231 0.39432 0.0
H394 H 0.10871 0.71892 0.42006 0.0
H395 H 0.09345 0.68757 0.43136 0.0
Mn396 Mn 0.32446 0.34114 0.33923 0.0
Mn397 Mn 0.28698 0.30176 0.33838 0.0
C398 C 0.30237 0.33675 0.31604 0.0
C399 C 0.3534 0.35809 0.32829 0.0
C400 C 0.29598 0.3298 0.37182 0.0
O401 O 0.3306 0.32494 0.35591 0.0
O402 O 0.30652 0.29846 0.34962 0.0
C403 C 0.29652 0.28331 0.3067 0.0
N404 N 0.28547 0.28911 0.31349 0.0
C405 C 0.26665 0.27694 0.28345 0.0
C406 C 0.27774 0.27068 0.27624 0.0
C407 C 0.29276 0.27393 0.28789 0.0
C408 C 0.27104 0.28615 0.30235 0.0
H409 H 0.30813 0.28588 0.31555 0.0
C410 C 0.32215 0.30807 0.35692 0.0
O411 O 0.34804 0.36201 0.34523 0.0
O412 O 0.34204 0.34428 0.31799 0.0
N413 N 0.26697 0.30289 0.32768 0.0
C414 C 0.258 0.31038 0.33641 0.0
C415 C 0.24279 0.30863 0.32648 0.0
C416 C 0.23688 0.29908 0.3078 0.0
C417 C 0.24618 0.29126 0.29927 0.0
C418 C 0.26114 0.2933 0.30996 0.0
H419 H 0.26242 0.31769 0.3508 0.0
O420 O 0.31469 0.35269 0.32054 0.0
O421 O 0.30368 0.32389 0.32477 0.0
O422 O 0.3099 0.34206 0.36346 0.0
O423 O 0.2872 0.31412 0.36433 0.0
C424 C 0.24135 0.28178 0.28039 0.0
C425 C 0.25161 0.27467 0.27246 0.0
H426 H 0.27493 0.26351 0.26168 0.0
H427 H 0.30144 0.26925 0.28235 0.0
H428 H 0.23568 0.31468 0.33318 0.0
H429 H 0.22526 0.29793 0.30007 0.0
H430 H 0.22991 0.2801 0.2717 0.0
H431 H 0.2479 0.26762 0.25779 0.0
Mn432 Mn 0.32835 0.0134 0.67229 0.0
Mn433 Mn 0.36343 0.05462 0.67521 0.0
C434 C 0.33103 0.03465 0.64869 0.0
C435 C 0.31556 0.98441 0.66 0.0
C436 C 0.33251 0.04066 0.70482 0.0
O437 O 0.34569 0.01024 0.69082 0.0
O438 O 0.36941 0.03756 0.68862 0.0
C439 C 0.38836 0.05025 0.6482 0.0
N440 N 0.37923 0.0588 0.65278 0.0
C441 C 0.39217 0.07885 0.62408 0.0
C442 C 0.4018 0.07032 0.61911 0.0
C443 C 0.39985 0.05593 0.6312 0.0
C444 C 0.381 0.07265 0.64126 0.0
H445 H 0.38688 0.03919 0.65745 0.0
C446 C 0.36187 0.02136 0.69458 0.0
O447 O 0.3097 0.98828 0.67654 0.0
O448 O 0.32917 0.99726 0.65112 0.0
N449 N 0.35942 0.07237 0.66257 0.0
C450 C 0.34825 0.0783 0.66853 0.0
C451 C 0.34803 0.09221 0.65751 0.0
C452 C 0.35938 0.09997 0.64061 0.0
C453 C 0.37087 0.09374 0.63488 0.0
C454 C 0.37055 0.07989 0.64649 0.0
H455 H 0.33951 0.0724 0.68151 0.0
O456 O 0.31578 0.02081 0.65195 0.0
O457 O 0.34426 0.03555 0.65922 0.0
O458 O 0.32293 0.02579 0.69588 0.0
O459 O 0.34798 0.05192 0.69883 0.0
C460 C 0.38232 0.10046 0.61782 0.0
C461 C 0.39294 0.093 0.6124 0.0
H462 H 0.4106 0.07459 0.60595 0.0
H463 H 0.40717 0.04924 0.62741 0.0
H464 H 0.33911 0.09692 0.662 0.0
H465 H 0.35906 0.11059 0.63204 0.0
H466 H 0.38283 0.11115 0.60853 0.0
H467 H 0.40147 0.09807 0.59903 0.0
Mn468 Mn 0.98362 0.31642 0.68001 0.0
Mn469 Mn 0.98367 0.27747 0.6773 0.0
C470 C 0.96537 0.29321 0.70131 0.0
C471 C 0.99486 0.34487 0.69369 0.0
C472 C 0.96511 0.28871 0.64569 0.0
O473 O 0.00629 0.3231 0.66447 0.0
O474 O 0.00532 0.29661 0.66432 0.0
C475 C 0.0137 0.28635 0.70586 0.0
N476 N 0.99649 0.27559 0.70049 0.0
C477 C 0.99215 0.2563 0.72948 0.0
C478 C 0.00987 0.26711 0.73526 0.0
C479 C 0.02067 0.28222 0.72343 0.0
C480 C 0.98596 0.26106 0.7118 0.0
H481 H 0.02203 0.29799 0.69681 0.0
C482 C 0.01266 0.31311 0.65974 0.0
O483 O 0.98667 0.3406 0.67588 0.0
O484 O 0.997 0.3328 0.70313 0.0
N485 N 0.96354 0.25763 0.68912 0.0
C486 C 0.94657 0.24907 0.68198 0.0
C487 C 0.93393 0.2339 0.69239 0.0
C488 C 0.93891 0.22758 0.70987 0.0
C489 C 0.95651 0.23645 0.71672 0.0
C490 C 0.96854 0.25144 0.70565 0.0
H491 H 0.94269 0.25385 0.66852 0.0
O492 O 0.96197 0.30592 0.69734 0.0
O493 O 0.97949 0.29451 0.69287 0.0
O494 O 0.96895 0.30353 0.65408 0.0
O495 O 0.96996 0.27809 0.65315 0.0
C496 C 0.96253 0.2312 0.73432 0.0
C497 C 0.98032 0.24115 0.74074 0.0
H498 H 0.01528 0.264 0.74884 0.0
H499 H 0.03433 0.29067 0.72785 0.0
H500 H 0.92038 0.22713 0.687 0.0
H501 H 0.9291 0.21597 0.71797 0.0
H502 H 0.95353 0.21967 0.74321 0.0
H503 H 0.98473 0.23713 0.75448 0.0
Mn504 Mn 0.67929 0.66108 0.67994 0.0
Mn505 Mn 0.71706 0.70026 0.67824 0.0
C506 C 0.70224 0.66623 0.70232 0.0
C507 C 0.65081 0.64449 0.69303 0.0
C508 C 0.70701 0.67084 0.64638 0.0
O509 O 0.6725 0.67679 0.66304 0.0
O510 O 0.69734 0.70313 0.66667 0.0
C511 C 0.70836 0.7204 0.7085 0.0
N512 N 0.71922 0.71424 0.70214 0.0
C513 C 0.73906 0.72835 0.73091 0.0
C514 C 0.72818 0.73502 0.73765 0.0
C515 C 0.71273 0.73097 0.72643 0.0
C516 C 0.73406 0.71796 0.71288 0.0
H517 H 0.69642 0.71723 0.69998 0.0
C518 C 0.68132 0.69356 0.66057 0.0
O519 O 0.6553 0.64 0.67583 0.0
O520 O 0.66269 0.65873 0.70217 0.0
N521 N 0.73724 0.69957 0.68911 0.0
C522 C 0.74572 0.69121 0.68127 0.0
C523 C 0.76111 0.69338 0.69113 0.0
C524 C 0.76772 0.70423 0.7088 0.0
C525 C 0.7589 0.71286 0.71644 0.0
C526 C 0.74368 0.71029 0.70589 0.0
H527 H 0.74074 0.68289 0.66766 0.0
O528 O 0.68981 0.65018 0.69859 0.0
O529 O 0.70065 0.6788 0.69323 0.0
O530 O 0.69289 0.65916 0.65507 0.0
O531 O 0.71628 0.68664 0.65332 0.0
C532 C 0.76441 0.72362 0.73434 0.0
C533 C 0.75447 0.73132 0.74161 0.0
H534 H 0.73146 0.7431 0.75154 0.0
H535 H 0.7042 0.73596 0.73162 0.0
H536 H 0.76783 0.68666 0.68514 0.0
H537 H 0.7795 0.70573 0.71648 0.0
H538 H 0.77611 0.72581 0.74284 0.0
H539 H 0.75867 0.73931 0.7556 0.0
Mn540 Mn 0.32986 0.31896 0.66807 0.0
Mn541 Mn 0.3657 0.31349 0.67036 0.0
C542 C 0.33382 0.30223 0.64315 0.0
C543 C 0.31613 0.33482 0.65689 0.0
C544 C 0.33359 0.29284 0.69724 0.0
O545 O 0.34598 0.33847 0.68783 0.0
O546 O 0.36913 0.33366 0.68833 0.0
C547 C 0.39074 0.34709 0.64977 0.0
N548 N 0.38272 0.32908 0.65085 0.0
C549 C 0.39927 0.32789 0.62176 0.0
C550 C 0.4078 0.34643 0.62043 0.0
C551 C 0.40347 0.35606 0.63445 0.0
C552 C 0.38673 0.31968 0.63738 0.0
H553 H 0.38746 0.35454 0.66051 0.0
C554 C 0.36135 0.34221 0.69407 0.0
O555 O 0.31031 0.32428 0.67281 0.0
O556 O 0.3302 0.33655 0.64804 0.0
N557 N 0.36469 0.29471 0.65375 0.0
C558 C 0.35444 0.27687 0.65623 0.0
C559 C 0.35679 0.26531 0.64309 0.0
C560 C 0.36975 0.2722 0.62765 0.0
C561 C 0.38022 0.2906 0.62546 0.0
C562 C 0.37734 0.30148 0.6391 0.0
H563 H 0.34435 0.27151 0.66791 0.0
O564 O 0.31827 0.30012 0.64667 0.0
O565 O 0.34677 0.3142 0.65423 0.0
O566 O 0.3249 0.30027 0.69072 0.0
O567 O 0.34879 0.29666 0.69049 0.0
C568 C 0.39305 0.29859 0.6099 0.0
C569 C 0.40253 0.31722 0.60802 0.0
H570 H 0.41759 0.3534 0.6086 0.0
H571 H 0.40994 0.37037 0.63346 0.0
H572 H 0.34857 0.25112 0.64478 0.0
H573 H 0.37139 0.26324 0.61738 0.0
H574 H 0.3955 0.29052 0.59907 0.0
H575 H 0.41218 0.32319 0.5958 0.0
Mn576 Mn 0.67711 0.01756 0.68115 0.0
Mn577 Mn 0.71594 0.01763 0.68022 0.0
C578 C 0.69931 0.03503 0.70439 0.0
C579 C 0.64823 0.00547 0.69297 0.0
C580 C 0.70565 0.03719 0.64871 0.0
O581 O 0.67131 0.99557 0.66395 0.0
O582 O 0.69722 0.9958 0.66682 0.0
C583 C 0.70711 0.9874 0.70842 0.0
N584 N 0.71771 0.00475 0.70339 0.0
C585 C 0.73694 0.0091 0.73252 0.0
C586 C 0.72628 0.99125 0.73797 0.0
C587 C 0.71127 0.98037 0.7259 0.0
C588 C 0.73213 0.01536 0.71494 0.0
H589 H 0.69559 0.97901 0.69914 0.0
C590 C 0.68116 0.98875 0.66061 0.0
O591 O 0.65324 0.0147 0.67597 0.0
O592 O 0.65983 0.00279 0.70268 0.0
N593 N 0.73538 0.03796 0.69266 0.0
C594 C 0.74377 0.05506 0.68588 0.0
C595 C 0.7588 0.06778 0.69658 0.0
C596 C 0.76519 0.06274 0.71395 0.0
C597 C 0.75648 0.04501 0.72044 0.0
C598 C 0.74159 0.03291 0.70914 0.0
H599 H 0.73899 0.05899 0.67246 0.0
O600 O 0.68669 0.03844 0.70023 0.0
O601 O 0.69844 0.0213 0.69512 0.0
O602 O 0.69092 0.03364 0.65675 0.0
O603 O 0.7156 0.03147 0.65604 0.0
C604 C 0.76182 0.03891 0.7379 0.0
C605 C 0.75201 0.02099 0.744 0.0
H606 H 0.72943 0.98579 0.75145 0.0
H607 H 0.70295 0.9666 0.73004 0.0
H608 H 0.76546 0.08143 0.69145 0.0
H609 H 0.77671 0.07261 0.72225 0.0
H610 H 0.77329 0.04795 0.74694 0.0
H611 H 0.75608 0.01653 0.75764 0.0
Mn612 Mn 0.98439 0.67145 0.6699 0.0
Mn613 Mn 0.94595 0.63284 0.6687 0.0
C614 C 0.96318 0.66727 0.64536 0.0
C615 C 0.01374 0.68829 0.66017 0.0
C616 C 0.95495 0.66167 0.701 0.0
O617 O 0.9895 0.6549 0.68755 0.0
O618 O 0.96452 0.62899 0.68185 0.0
C619 C 0.95542 0.61264 0.63943 0.0
N620 N 0.94461 0.61914 0.64486 0.0
C621 C 0.92597 0.60569 0.61498 0.0
C622 C 0.93678 0.59867 0.60919 0.0
C623 C 0.95161 0.60223 0.62142 0.0
C624 C 0.9304 0.61593 0.63311 0.0
H625 H 0.96687 0.61542 0.64873 0.0
C626 C 0.98019 0.63808 0.68925 0.0
O627 O 0.00783 0.69208 0.67672 0.0
O628 O 0.00272 0.67442 0.64963 0.0
N629 N 0.92682 0.63455 0.65614 0.0
C630 C 0.9185 0.64335 0.66306 0.0
C631 C 0.9038 0.64181 0.65206 0.0
C632 C 0.8977 0.63109 0.63423 0.0
C633 C 0.90636 0.622 0.62755 0.0
C634 C 0.9209 0.624 0.63917 0.0
H635 H 0.92307 0.65155 0.6768 0.0
O636 O 0.97552 0.68315 0.65009 0.0
O637 O 0.96381 0.65432 0.65483 0.0
O638 O 0.96953 0.67316 0.69316 0.0
O639 O 0.94567 0.64603 0.69362 0.0
C640 C 0.90137 0.61136 0.60955 0.0
C641 C 0.9112 0.60325 0.60323 0.0
H642 H 0.93394 0.59071 0.59526 0.0
H643 H 0.9601 0.59697 0.61697 0.0
H644 H 0.8972 0.64888 0.65731 0.0
H645 H 0.88645 0.63006 0.62569 0.0
H646 H 0.89019 0.60958 0.60024 0.0
H647 H 0.90744 0.59538 0.58915 0.0
C648 C 0.20995 0.32354 0.11863 0.0
C649 C 0.20745 0.30958 0.10546 0.0
C650 C 0.19669 0.32154 0.13221 0.0
C651 C 0.18063 0.30556 0.13284 0.0
C652 C 0.19145 0.2935 0.10627 0.0
C653 C 0.17804 0.29159 0.11967 0.0
C654 C 0.16619 0.30409 0.14605 0.0
C655 C 0.20481 0.30211 0.19319 0.0
C656 C 0.21265 0.31724 0.20603 0.0
C657 C 0.19081 0.29911 0.17985 0.0
C658 C 0.18444 0.31117 0.17927 0.0
C659 C 0.20674 0.32966 0.2045 0.0
C660 C 0.19268 0.32656 0.19144 0.0
C661 C 0.1683 0.30736 0.16762 0.0
C662 C 0.09787 0.29988 0.19277 0.0
C663 C 0.10437 0.31396 0.20712 0.0
C664 C 0.10947 0.29728 0.18023 0.0
C665 C 0.12778 0.30872 0.18181 0.0
C666 C 0.1227 0.3252 0.2088 0.0
C667 C 0.13424 0.32257 0.19637 0.0
C668 C 0.14045 0.30626 0.16891 0.0
C669 C 0.11369 0.32475 0.12426 0.0
C670 C 0.10051 0.31094 0.11232 0.0
C671 C 0.12583 0.32209 0.13568 0.0
C672 C 0.12522 0.30564 0.1353 0.0
C673 C 0.10004 0.29445 0.11181 0.0
C674 C 0.11244 0.29188 0.12309 0.0
C675 C 0.13849 0.30341 0.14723 0.0
H676 H 0.22219 0.33603 0.11843 0.0
H677 H 0.19884 0.33262 0.14192 0.0
H678 H 0.18917 0.28257 0.09619 0.0
H679 H 0.16565 0.27925 0.11975 0.0
H680 H 0.20898 0.29223 0.19407 0.0
H681 H 0.18448 0.28706 0.17069 0.0
H682 H 0.21278 0.3417 0.21369 0.0
H683 H 0.18803 0.33609 0.19108 0.0
H684 H 0.08382 0.29099 0.1911 0.0
H685 H 0.10415 0.28623 0.16948 0.0
H686 H 0.12817 0.33596 0.21997 0.0
H687 H 0.14829 0.33151 0.19803 0.0
H688 H 0.1149 0.33779 0.12455 0.0
H689 H 0.13589 0.333 0.14466 0.0
H690 H 0.09004 0.2835 0.10288 0.0
H691 H 0.11191 0.27913 0.12253 0.0
N692 N 0.15135 0.3023 0.1366 0.0
N693 N 0.15535 0.30824 0.17819 0.0
C694 C 0.68085 0.88873 0.1258 0.0
C695 C 0.69206 0.8985 0.1095 0.0
C696 C 0.68455 0.87764 0.13798 0.0
C697 C 0.69969 0.87624 0.13434 0.0
C698 C 0.70747 0.89749 0.10614 0.0
C699 C 0.71116 0.88628 0.11836 0.0
C700 C 0.70211 0.86262 0.14547 0.0
C701 C 0.70875 0.90222 0.1955 0.0
C702 C 0.69512 0.89534 0.21023 0.0
C703 C 0.71032 0.89099 0.18112 0.0
C704 C 0.69831 0.87273 0.18128 0.0
C705 C 0.68294 0.87709 0.20994 0.0
C706 C 0.68462 0.86592 0.19577 0.0
C707 C 0.7001 0.86028 0.16717 0.0
C708 C 0.69879 0.79056 0.18303 0.0
C709 C 0.68532 0.7843 0.19797 0.0
C710 C 0.70311 0.80597 0.17167 0.0
C711 C 0.69386 0.81524 0.17486 0.0
C712 C 0.67619 0.7937 0.20104 0.0
C713 C 0.68036 0.80888 0.18961 0.0
C714 C 0.69842 0.83207 0.16408 0.0
C715 C 0.68085 0.79175 0.11256 0.0
C716 C 0.69523 0.79352 0.101 0.0
C717 C 0.68288 0.80511 0.1262 0.0
C718 C 0.69929 0.82052 0.12839 0.0
C719 C 0.71169 0.80896 0.10324 0.0
C720 C 0.71364 0.82249 0.11667 0.0
C721 C 0.70118 0.8347 0.14249 0.0
H722 H 0.66893 0.88933 0.12882 0.0
H723 H 0.67514 0.86959 0.1497 0.0
H724 H 0.71624 0.90478 0.09354 0.0
H725 H 0.72274 0.88514 0.11506 0.0
H726 H 0.71845 0.91619 0.19541 0.0
H727 H 0.72113 0.89649 0.17022 0.0
H728 H 0.67201 0.87137 0.22065 0.0
H729 H 0.6751 0.85189 0.19608 0.0
H730 H 0.70608 0.78364 0.18023 0.0
H731 H 0.71391 0.81081 0.1608 0.0
H732 H 0.66609 0.78966 0.21275 0.0
H733 H 0.67307 0.8158 0.19249 0.0
H734 H 0.66807 0.77991 0.11122 0.0
H735 H 0.67163 0.80347 0.13499 0.0
H736 H 0.72293 0.81064 0.0944 0.0
H737 H 0.72635 0.83439 0.11809 0.0
N738 N 0.70283 0.84984 0.13396 0.0
N739 N 0.69822 0.84508 0.17552 0.0
C740 C 0.11324 0.79209 0.12646 0.0
C741 C 0.10015 0.79247 0.1138 0.0
C742 C 0.12456 0.80674 0.13842 0.0
C743 C 0.12325 0.82221 0.13788 0.0
C744 C 0.09881 0.80804 0.11343 0.0
C745 C 0.11043 0.82287 0.12521 0.0
C746 C 0.13624 0.83789 0.14954 0.0
C747 C 0.09669 0.80051 0.19557 0.0
C748 C 0.10382 0.79327 0.20973 0.0
C749 C 0.1078 0.81489 0.183 0.0
C750 C 0.12622 0.82229 0.18444 0.0
C751 C 0.12225 0.80093 0.21133 0.0
C752 C 0.13329 0.8153 0.19892 0.0
C753 C 0.13838 0.83741 0.17125 0.0
C754 C 0.20461 0.9069 0.19001 0.0
C755 C 0.21246 0.90007 0.20373 0.0
C756 C 0.18953 0.89542 0.1785 0.0
C757 C 0.18207 0.87697 0.18063 0.0
C758 C 0.20491 0.8816 0.20574 0.0
C759 C 0.18987 0.87021 0.19441 0.0
C760 C 0.16581 0.86437 0.16935 0.0
C761 C 0.20701 0.88827 0.11961 0.0
C762 C 0.2045 0.89974 0.10631 0.0
C763 C 0.19382 0.87729 0.13338 0.0
C764 C 0.17783 0.87751 0.13404 0.0
C765 C 0.18851 0.90004 0.10708 0.0
C766 C 0.17517 0.88882 0.12067 0.0
C767 C 0.16354 0.86498 0.14767 0.0
H768 H 0.11515 0.78066 0.12675 0.0
H769 H 0.13468 0.80614 0.14774 0.0
H770 H 0.08882 0.80881 0.10406 0.0
H771 H 0.10937 0.83481 0.12449 0.0
H772 H 0.08255 0.7949 0.19402 0.0
H773 H 0.102 0.82028 0.17227 0.0
H774 H 0.12817 0.79588 0.22235 0.0
H775 H 0.14744 0.82082 0.20044 0.0
H776 H 0.21013 0.92107 0.18818 0.0
H777 H 0.18356 0.90095 0.16823 0.0
H778 H 0.21041 0.87591 0.21647 0.0
H779 H 0.18431 0.85604 0.1964 0.0
H780 H 0.21925 0.88787 0.11944 0.0
H781 H 0.19601 0.86841 0.1433 0.0
H782 H 0.18622 0.9087 0.0969 0.0
H783 H 0.16282 0.88898 0.12079 0.0
N784 N 0.14883 0.8517 0.13857 0.0
N785 N 0.15312 0.85064 0.18026 0.0
C786 C 0.31313 0.11018 0.82789 0.0
C787 C 0.29894 0.09836 0.81521 0.0
C788 C 0.31155 0.12225 0.84072 0.0
C789 C 0.29582 0.12296 0.84112 0.0
C790 C 0.28307 0.09898 0.81587 0.0
C791 C 0.28161 0.11132 0.82853 0.0
C792 C 0.29489 0.13681 0.8535 0.0
C793 C 0.29333 0.097 0.90003 0.0
C794 C 0.3082 0.10367 0.91326 0.0
C795 C 0.29041 0.10845 0.88727 0.0
C796 C 0.30232 0.12676 0.88748 0.0
C797 C 0.32014 0.12201 0.9132 0.0
C798 C 0.31714 0.13341 0.9006 0.0
C799 C 0.29916 0.13926 0.87485 0.0
C800 C 0.29419 0.20403 0.89841 0.0
C801 C 0.3101 0.21299 0.90979 0.0
C802 C 0.29045 0.18903 0.88653 0.0
C803 C 0.30255 0.18276 0.88585 0.0
C804 C 0.3222 0.20669 0.90877 0.0
C805 C 0.31838 0.19168 0.89714 0.0
C806 C 0.29895 0.16671 0.87403 0.0
C807 C 0.30729 0.20794 0.82578 0.0
C808 C 0.29456 0.2025 0.80986 0.0
C809 C 0.30706 0.19567 0.84008 0.0
C810 C 0.2937 0.1778 0.83923 0.0
C811 C 0.28116 0.18471 0.809 0.0
C812 C 0.28069 0.1725 0.82361 0.0
C813 C 0.29444 0.16419 0.85265 0.0
H814 H 0.32574 0.11057 0.82747 0.0
H815 H 0.32286 0.13145 0.84989 0.0
H816 H 0.27177 0.09001 0.80656 0.0
H817 H 0.2694 0.11177 0.82851 0.0
H818 H 0.28374 0.083 0.89986 0.0
H819 H 0.27866 0.10304 0.8776 0.0
H820 H 0.33192 0.1276 0.92282 0.0
H821 H 0.32654 0.14747 0.901 0.0
H822 H 0.28449 0.20839 0.89899 0.0
H823 H 0.27804 0.18219 0.87813 0.0
H824 H 0.33477 0.21344 0.91683 0.0
H825 H 0.32796 0.18713 0.89675 0.0
H826 H 0.31802 0.22149 0.82642 0.0
H827 H 0.31785 0.20007 0.85111 0.0
H828 H 0.27129 0.18018 0.79674 0.0
H829 H 0.27043 0.15877 0.82235 0.0
N830 N 0.29255 0.14927 0.84326 0.0
N831 N 0.30112 0.15415 0.88421 0.0
C832 C 0.90671 0.19744 0.89464 0.0
C833 C 0.90176 0.2055 0.91017 0.0
C834 C 0.89391 0.18372 0.88248 0.0
C835 C 0.87593 0.17788 0.88557 0.0
C836 C 0.88372 0.19947 0.91329 0.0
C837 C 0.87097 0.18574 0.90121 0.0
C838 C 0.86212 0.16314 0.87326 0.0
C839 C 0.88801 0.20715 0.8261 0.0
C840 C 0.89759 0.20386 0.81101 0.0
C841 C 0.87708 0.19378 0.83981 0.0
C842 C 0.87544 0.17686 0.83852 0.0
C843 C 0.8963 0.18706 0.81009 0.0
C844 C 0.88511 0.17358 0.82358 0.0
C845 C 0.86238 0.16223 0.85138 0.0
C846 C 0.78907 0.11117 0.82863 0.0
C847 C 0.79098 0.10079 0.81328 0.0
C848 C 0.80319 0.12187 0.84173 0.0
C849 C 0.81951 0.12249 0.83956 0.0
C850 C 0.80718 0.10106 0.81147 0.0
C851 C 0.82143 0.11203 0.82435 0.0
C852 C 0.8349 0.1353 0.85186 0.0
C853 C 0.80069 0.09188 0.89587 0.0
C854 C 0.79322 0.09724 0.91163 0.0
C855 C 0.81413 0.10444 0.88345 0.0
C856 C 0.82034 0.1226 0.88651 0.0
C857 C 0.79965 0.11547 0.91479 0.0
C858 C 0.81315 0.128 0.90245 0.0
C859 C 0.83474 0.1361 0.87374 0.0
H860 H 0.92046 0.20156 0.89206 0.0
H861 H 0.89805 0.17753 0.87089 0.0
H862 H 0.87943 0.20555 0.92485 0.0
H863 H 0.85717 0.1814 0.9039 0.0
H864 H 0.88882 0.22001 0.82712 0.0
H865 H 0.86947 0.19649 0.85099 0.0
H866 H 0.90344 0.18417 0.79844 0.0
H867 H 0.88384 0.16054 0.8222 0.0
H868 H 0.7767 0.11116 0.83031 0.0
H869 H 0.80154 0.13011 0.85312 0.0
H870 H 0.80899 0.09327 0.7996 0.0
H871 H 0.83399 0.11251 0.8223 0.0
H872 H 0.79629 0.07797 0.89326 0.0
H873 H 0.81983 0.09996 0.87163 0.0
H874 H 0.79405 0.12009 0.92655 0.0
H875 H 0.8178 0.14195 0.90514 0.0
N876 N 0.8483 0.15004 0.88358 0.0
N877 N 0.84877 0.14833 0.8415 0.0
C878 C 0.79384 0.69955 0.89442 0.0
C879 C 0.78746 0.68584 0.90921 0.0
C880 C 0.80941 0.70417 0.88366 0.0
C881 C 0.81876 0.69504 0.88739 0.0
C882 C 0.79724 0.67722 0.91341 0.0
C883 C 0.81271 0.6818 0.90266 0.0
C884 C 0.83483 0.69897 0.87567 0.0
C885 C 0.79156 0.67779 0.8267 0.0
C886 C 0.79324 0.69087 0.81248 0.0
C887 C 0.80524 0.68111 0.84061 0.0
C888 C 0.82086 0.69752 0.84045 0.0
C889 C 0.80877 0.7074 0.81259 0.0
C890 C 0.82257 0.71061 0.82631 0.0
C891 C 0.83591 0.70045 0.85382 0.0
C892 C 0.89251 0.68447 0.83398 0.0
C893 C 0.8994 0.69468 0.81593 0.0
C894 C 0.88179 0.68765 0.84726 0.0
C895 C 0.87796 0.70132 0.843 0.0
C896 C 0.896 0.70871 0.812 0.0
C897 C 0.88528 0.71191 0.82534 0.0
C898 C 0.86439 0.70286 0.8551 0.0
C899 C 0.90873 0.71462 0.89943 0.0
C900 C 0.90436 0.70178 0.9151 0.0
C901 C 0.89555 0.71495 0.88719 0.0
C902 C 0.87775 0.70239 0.89031 0.0
C903 C 0.88647 0.68958 0.91854 0.0
C904 C 0.87332 0.68997 0.90637 0.0
C905 C 0.8636 0.702 0.87703 0.0
H906 H 0.78662 0.70646 0.89085 0.0
H907 H 0.81406 0.7148 0.87239 0.0
H908 H 0.79293 0.66689 0.92505 0.0
H909 H 0.81979 0.67469 0.906 0.0
H910 H 0.7797 0.66497 0.82694 0.0
H911 H 0.80381 0.67073 0.85118 0.0
H912 H 0.81045 0.71762 0.80164 0.0
H913 H 0.83463 0.72326 0.82581 0.0
H914 H 0.89499 0.67366 0.83754 0.0
H915 H 0.87586 0.67885 0.86033 0.0
H916 H 0.90091 0.71667 0.79809 0.0
H917 H 0.88225 0.72232 0.82154 0.0
H918 H 0.92234 0.72442 0.89662 0.0
H919 H 0.89926 0.72497 0.87524 0.0
H920 H 0.88261 0.67935 0.93024 0.0
H921 H 0.85968 0.68018 0.90912 0.0
N922 N 0.84877 0.69989 0.8864 0.0
N923 N 0.85061 0.70231 0.84439 0.0
C924 C 0.75976 0.6295 0.45389 0.0
C925 C 0.76617 0.64327 0.43918 0.0
C926 C 0.77139 0.62541 0.46455 0.0
C927 C 0.78961 0.63519 0.4608 0.0
C928 C 0.78426 0.65223 0.43462 0.0
C929 C 0.79583 0.64822 0.44529 0.0
C930 C 0.80255 0.6326 0.47318 0.0
C931 C 0.77679 0.65239 0.51826 0.0
C932 C 0.76836 0.64106 0.53514 0.0
C933 C 0.78761 0.64926 0.50508 0.0
C934 C 0.78994 0.63448 0.50812 0.0
C935 C 0.77068 0.62623 0.53812 0.0
C936 C 0.78144 0.62304 0.5248 0.0
C937 C 0.80248 0.63189 0.49516 0.0
C938 C 0.8755 0.65356 0.51761 0.0
C939 C 0.87379 0.64185 0.53369 0.0
C940 C 0.8613 0.64969 0.50434 0.0
C941 C 0.84512 0.63409 0.50701 0.0
C942 C 0.85775 0.62599 0.53599 0.0
C943 C 0.84343 0.62226 0.5229 0.0
C944 C 0.82958 0.63128 0.49472 0.0
C945 C 0.86489 0.62258 0.45184 0.0
C946 C 0.87235 0.63544 0.43609 0.0
C947 C 0.8509 0.62123 0.4637 0.0
C948 C 0.8441 0.63272 0.4601 0.0
C949 C 0.86522 0.64666 0.43226 0.0
C950 C 0.85119 0.64522 0.44405 0.0
C951 C 0.82957 0.63182 0.4728 0.0
H952 H 0.74588 0.6223 0.45767 0.0
H953 H 0.76621 0.61495 0.47605 0.0
H954 H 0.78954 0.66258 0.42297 0.0
H955 H 0.80978 0.65579 0.4419 0.0
H956 H 0.7752 0.66385 0.51535 0.0
H957 H 0.79446 0.65865 0.49277 0.0
H958 H 0.76466 0.6174 0.55115 0.0
H959 H 0.78332 0.61174 0.52768 0.0
H960 H 0.88775 0.66585 0.51553 0.0
H961 H 0.86277 0.6592 0.49246 0.0
H962 H 0.85609 0.61686 0.54843 0.0
H963 H 0.83096 0.61029 0.52536 0.0
H964 H 0.8698 0.61349 0.45495 0.0
H965 H 0.84537 0.61115 0.47564 0.0
H966 H 0.87075 0.65688 0.4205 0.0
H967 H 0.84614 0.65422 0.44095 0.0
N968 N 0.81611 0.63255 0.46293 0.0
N969 N 0.81598 0.63116 0.50504 0.0
C970 C 0.34752 0.2266 0.45447 0.0
C971 C 0.3596 0.23476 0.43836 0.0
C972 C 0.34833 0.21378 0.46682 0.0
C973 C 0.3617 0.2094 0.46383 0.0
C974 C 0.37256 0.22995 0.43478 0.0
C975 C 0.37364 0.21739 0.44751 0.0
C976 C 0.36245 0.19559 0.47667 0.0
C977 C 0.36672 0.23818 0.52062 0.0
C978 C 0.35327 0.23182 0.53557 0.0
C979 C 0.3696 0.22634 0.50871 0.0
C980 C 0.35884 0.20795 0.51128 0.0
C981 C 0.3431 0.21342 0.53863 0.0
C982 C 0.3458 0.20168 0.52661 0.0
C983 C 0.36081 0.19482 0.49854 0.0
C984 C 0.3626 0.12775 0.5218 0.0
C985 C 0.34959 0.12206 0.53726 0.0
C986 C 0.36609 0.1423 0.50918 0.0
C987 C 0.35635 0.15116 0.5115 0.0
C988 C 0.34026 0.13132 0.53981 0.0
C989 C 0.34354 0.14559 0.52707 0.0
C990 C 0.35949 0.16663 0.49862 0.0
C991 C 0.34371 0.12113 0.45506 0.0
C992 C 0.35621 0.12397 0.43974 0.0
C993 C 0.34514 0.13526 0.46685 0.0
C994 C 0.35943 0.15241 0.46404 0.0
C995 C 0.37002 0.14125 0.43618 0.0
C996 C 0.37162 0.15537 0.44827 0.0
C997 C 0.3612 0.1674 0.47676 0.0
H998 H 0.33713 0.2298 0.45713 0.0
H999 H 0.33837 0.20716 0.47857 0.0
H1000 H 0.38187 0.23597 0.42225 0.0
H1001 H 0.38381 0.21391 0.44461 0.0
H1002 H 0.37484 0.25226 0.5179 0.0
H1003 H 0.38009 0.23155 0.4974 0.0
H1004 H 0.33302 0.20801 0.55043 0.0
H1005 H 0.33747 0.18758 0.52915 0.0
H1006 H 0.37004 0.12093 0.51935 0.0
H1007 H 0.37639 0.14662 0.49769 0.0
H1008 H 0.33054 0.12775 0.55192 0.0
H1009 H 0.33597 0.1523 0.52939 0.0
H1010 H 0.33273 0.10798 0.45777 0.0
H1011 H 0.33508 0.13274 0.47821 0.0
H1012 H 0.37976 0.14375 0.42439 0.0
H1013 H 0.38253 0.16856 0.44553 0.0
N1014 N 0.3628 0.18195 0.46669 0.0
N1015 N 0.3594 0.18037 0.50849 0.0
C1016 C 0.77103 0.12299 0.45806 0.0
C1017 C 0.76305 0.12596 0.44064 0.0
C1018 C 0.78331 0.13721 0.46996 0.0
C1019 C 0.78733 0.15466 0.46523 0.0
C1020 C 0.76729 0.14336 0.43552 0.0
C1021 C 0.77927 0.1576 0.4478 0.0
C1022 C 0.80128 0.16992 0.47695 0.0
C1023 C 0.7609 0.13548 0.52451 0.0
C1024 C 0.76758 0.12778 0.53865 0.0
C1025 C 0.77236 0.14939 0.51158 0.0
C1026 C 0.79065 0.1558 0.51267 0.0
C1027 C 0.7859 0.13462 0.54006 0.0
C1028 C 0.79729 0.1485 0.52731 0.0
C1029 C 0.8032 0.17004 0.49883 0.0
C1030 C 0.86928 0.23921 0.51768 0.0
C1031 C 0.87712 0.23247 0.53153 0.0
C1032 C 0.85446 0.22765 0.50582 0.0
C1033 C 0.84723 0.20921 0.50783 0.0
C1034 C 0.86986 0.21403 0.53331 0.0
C1035 C 0.85505 0.20255 0.52169 0.0
C1036 C 0.83103 0.19653 0.49654 0.0
C1037 C 0.87265 0.22047 0.44729 0.0
C1038 C 0.87009 0.23187 0.43392 0.0
C1039 C 0.85935 0.20929 0.46084 0.0
C1040 C 0.84321 0.20922 0.46117 0.0
C1041 C 0.85393 0.23184 0.43432 0.0
C1042 C 0.8405 0.22041 0.44767 0.0
C1043 C 0.82892 0.19674 0.47482 0.0
H1044 H 0.76831 0.10971 0.46195 0.0
H1045 H 0.79005 0.13451 0.48246 0.0
H1046 H 0.76142 0.14593 0.42197 0.0
H1047 H 0.78244 0.17094 0.44351 0.0
H1048 H 0.74684 0.1305 0.52316 0.0
H1049 H 0.76696 0.15504 0.50065 0.0
H1050 H 0.79148 0.12921 0.55109 0.0
H1051 H 0.81134 0.1533 0.52859 0.0
H1052 H 0.8746 0.25338 0.51603 0.0
H1053 H 0.84846 0.23308 0.49546 0.0
H1054 H 0.8754 0.20841 0.54411 0.0
H1055 H 0.84964 0.18838 0.52359 0.0
H1056 H 0.88502 0.22032 0.44741 0.0
H1057 H 0.86159 0.20052 0.47089 0.0
H1058 H 0.85161 0.24044 0.42408 0.0
H1059 H 0.82805 0.22038 0.44756 0.0
N1060 N 0.81413 0.18345 0.46584 0.0
N1061 N 0.81808 0.18324 0.50764 0.0
C1062 C 0.96918 0.54016 0.1586 0.0
C1063 C 0.9829 0.54702 0.14403 0.0
C1064 C 0.96604 0.52546 0.17078 0.0
C1065 C 0.9765 0.51737 0.16843 0.0
C1066 C 0.99317 0.53874 0.14164 0.0
C1067 C 0.98994 0.52403 0.15359 0.0
C1068 C 0.97354 0.50174 0.18084 0.0
C1069 C 0.99478 0.54712 0.22595 0.0
C1070 C 0.98316 0.54537 0.24197 0.0
C1071 C 0.99109 0.53284 0.21295 0.0
C1072 C 0.97561 0.51653 0.21551 0.0
C1073 C 0.96759 0.52906 0.24445 0.0
C1074 C 0.96394 0.51471 0.23144 0.0
C1075 C 0.97245 0.50106 0.20273 0.0
C1076 C 0.98565 0.44119 0.22356 0.0
C1077 C 0.97481 0.43412 0.24096 0.0
C1078 C 0.98428 0.45361 0.21096 0.0
C1079 C 0.97153 0.45868 0.215 0.0
C1080 C 0.96236 0.43947 0.24539 0.0
C1081 C 0.9607 0.45161 0.23246 0.0
C1082 C 0.97064 0.47261 0.20239 0.0
C1083 C 0.9627 0.4293 0.15715 0.0
C1084 C 0.97694 0.43503 0.14342 0.0
C1085 C 0.9607 0.44165 0.16921 0.0
C1086 C 0.97286 0.45984 0.16755 0.0
C1087 C 0.98876 0.45326 0.14148 0.0
C1088 C 0.98666 0.46552 0.15329 0.0
C1089 C 0.97167 0.47331 0.18045 0.0
H1090 H 0.96105 0.54628 0.16072 0.0
H1091 H 0.9554 0.52036 0.18189 0.0
H1092 H 0.00363 0.54353 0.13029 0.0
H1093 H 0.99811 0.51795 0.1514 0.0
H1094 H 0.00682 0.55954 0.22354 0.0
H1095 H 0.00057 0.53445 0.20117 0.0
H1096 H 0.95849 0.52725 0.2568 0.0
H1097 H 0.95206 0.50215 0.2339 0.0
H1098 H 0.99565 0.43761 0.22015 0.0
H1099 H 0.99355 0.45955 0.1984 0.0
H1100 H 0.95396 0.43429 0.25885 0.0
H1101 H 0.95105 0.45559 0.2362 0.0
H1102 H 0.95338 0.41532 0.15886 0.0
H1103 H 0.94978 0.437 0.1799 0.0
H1104 H 0.99966 0.45807 0.13074 0.0
H1105 H 0.99613 0.47948 0.15163 0.0
N1106 N 0.97317 0.48788 0.17064 0.0
N1107 N 0.97089 0.48646 0.21264 0.0
C1108 C 0.46122 0.43209 0.16665 0.0
C1109 C 0.45519 0.43867 0.15033 0.0
C1110 C 0.47589 0.44358 0.17871 0.0
C1111 C 0.48456 0.46196 0.1751 0.0
C1112 C 0.46421 0.45703 0.1465 0.0
C1113 C 0.47857 0.46848 0.15878 0.0
C1114 C 0.50034 0.47464 0.18727 0.0
C1115 C 0.45862 0.44968 0.23643 0.0
C1116 C 0.46146 0.43862 0.25007 0.0
C1117 C 0.47174 0.4607 0.22264 0.0
C1118 C 0.48794 0.46089 0.22232 0.0
C1119 C 0.47763 0.43872 0.24962 0.0
C1120 C 0.49088 0.44997 0.23602 0.0
C1121 C 0.50225 0.4736 0.20897 0.0
C1122 C 0.55566 0.5451 0.23431 0.0
C1123 C 0.56649 0.54201 0.24803 0.0
C1124 C 0.54418 0.53182 0.22073 0.0
C1125 C 0.54329 0.5152 0.22072 0.0
C1126 C 0.56585 0.52549 0.24772 0.0
C1127 C 0.55414 0.51209 0.23434 0.0
C1128 C 0.52972 0.5006 0.20815 0.0
C1129 C 0.56973 0.53925 0.1631 0.0
C1130 C 0.5627 0.54517 0.14716 0.0
C1131 C 0.55859 0.52516 0.17599 0.0
C1132 C 0.54018 0.51697 0.1735 0.0
C1133 C 0.54428 0.53665 0.14451 0.0
C1134 C 0.53321 0.52284 0.15754 0.0
C1135 C 0.52783 0.50175 0.18647 0.0
H1136 H 0.45465 0.41807 0.17016 0.0
H1137 H 0.48054 0.43799 0.19063 0.0
H1138 H 0.46043 0.46266 0.13373 0.0
H1139 H 0.48508 0.48254 0.15539 0.0
H1140 H 0.44621 0.44974 0.23638 0.0
H1141 H 0.46936 0.46932 0.21247 0.0
H1142 H 0.48014 0.43038 0.26009 0.0
H1143 H 0.50341 0.45017 0.23617 0.0
H1144 H 0.556 0.55777 0.23418 0.0
H1145 H 0.53564 0.53435 0.21064 0.0
H1146 H 0.574 0.52278 0.25826 0.0
H1147 H 0.55341 0.49925 0.23475 0.0
H1148 H 0.58383 0.54548 0.16567 0.0
H1149 H 0.56443 0.52056 0.18765 0.0
H1150 H 0.53831 0.5404 0.13209 0.0
H1151 H 0.51909 0.51668 0.15505 0.0
N1152 N 0.51325 0.48867 0.177 0.0
N1153 N 0.51691 0.48652 0.21851 0.0
C1154 C 0.46259 0.02696 0.23241 0.0
C1155 C 0.45466 0.01249 0.24615 0.0
C1156 C 0.47607 0.02885 0.21916 0.0
C1157 C 0.48181 0.01629 0.21944 0.0
C1158 C 0.46037 -0.00014 0.2461 0.0
C1159 C 0.4739 0.00185 0.23305 0.0
C1160 C 0.49669 0.01843 0.20658 0.0
C1161 C 0.45212 0.00621 0.16203 0.0
C1162 C 0.45603 0.01814 0.14549 0.0
C1163 C 0.46557 0.00729 0.175 0.0
C1164 C 0.48313 0.0207 0.17213 0.0
C1165 C 0.47358 0.03139 0.1424 0.0
C1166 C 0.48699 0.03268 0.15563 0.0
C1167 C 0.49772 0.02131 0.18486 0.0
C1168 C 0.55461 0.00709 0.15889 0.0
C1169 C 0.56543 0.0217 0.14624 0.0
C1170 C 0.54199 0.00752 0.17171 0.0
C1171 C 0.53973 0.02245 0.17204 0.0
C1172 C 0.56324 0.03677 0.14689 0.0
C1173 C 0.55035 0.03703 0.15947 0.0
C1174 C 0.52566 0.02238 0.18471 0.0
C1175 C 0.56879 0.02983 0.22951 0.0
C1176 C 0.56384 0.01591 0.24385 0.0
C1177 C 0.5561 0.03092 0.21709 0.0
C1178 C 0.53823 0.01805 0.21868 0.0
C1179 C 0.54591 0.00311 0.24545 0.0
C1180 C 0.53324 0.00424 0.23308 0.0
C1181 C 0.5245 0.01934 0.20632 0.0
H1182 H 0.45867 0.03704 0.23219 0.0
H1183 H 0.48223 0.04028 0.20903 0.0
H1184 H 0.45433 0.98833 0.25608 0.0
H1185 H 0.47814 0.992 0.23349 0.0
H1186 H 0.43875 0.99564 0.16445 0.0
H1187 H 0.46222 0.99727 0.18685 0.0
H1188 H 0.47693 0.04074 0.12973 0.0
H1189 H 0.50044 0.04296 0.15284 0.0
H1190 H 0.55546 0.99505 0.1585 0.0
H1191 H 0.53366 0.99598 0.181 0.0
H1192 H 0.57145 0.04838 0.13768 0.0
H1193 H 0.54874 0.04866 0.1595 0.0
H1194 H 0.58244 0.04008 0.22814 0.0
H1195 H 0.56023 0.04202 0.20656 0.0
H1196 H 0.54165 0.99208 0.25609 0.0
H1197 H 0.51952 0.99421 0.23465 0.0
N1198 N 0.51006 0.01745 0.21638 0.0
N1199 N 0.51227 0.0233 0.17481 0.0
C1200 C 0.54367 0.99452 0.78686 0.0
C1201 C 0.54111 0.9805 0.77375 0.0
C1202 C 0.53024 0.99275 0.80006 0.0
C1203 C 0.51399 0.97698 0.80025 0.0
C1204 C 0.52483 0.9647 0.774 0.0
C1205 C 0.51128 0.96305 0.78696 0.0
C1206 C 0.49962 0.97539 0.81366 0.0
C1207 C 0.54022 0.97277 0.85572 0.0
C1208 C 0.54607 0.98486 0.87243 0.0
C1209 C 0.52572 0.97014 0.84354 0.0
C1210 C 0.51706 0.97989 0.84748 0.0
C1211 C 0.53714 0.99433 0.87645 0.0
C1212 C 0.52295 0.99196 0.86409 0.0
C1213 C 0.50129 0.9772 0.83551 0.0
C1214 C 0.43112 0.9704 0.86092 0.0
C1215 C 0.43772 0.98404 0.87585 0.0
C1216 C 0.44269 0.96782 0.84826 0.0
C1217 C 0.46103 0.97883 0.85038 0.0
C1218 C 0.45607 0.99474 0.87817 0.0
C1219 C 0.46757 0.9921 0.86566 0.0
C1220 C 0.47368 0.97676 0.83703 0.0
C1221 C 0.44623 0.99652 0.79474 0.0
C1222 C 0.43601 0.98471 0.7789 0.0
C1223 C 0.4577 0.99324 0.80674 0.0
C1224 C 0.45903 0.97795 0.80339 0.0
C1225 C 0.43722 0.9693 0.77563 0.0
C1226 C 0.44879 0.96603 0.78768 0.0
C1227 C 0.47221 0.97534 0.81517 0.0
H1228 H 0.55612 0.0068 0.78705 0.0
H1229 H 0.53249 0.00374 0.81001 0.0
H1230 H 0.5225 0.95376 0.76393 0.0
H1231 H 0.49875 0.95085 0.78676 0.0
H1232 H 0.54676 0.96526 0.85206 0.0
H1233 H 0.52114 0.96026 0.83135 0.0
H1234 H 0.5408 0.00335 0.88949 0.0
H1235 H 0.51645 0.99954 0.86768 0.0
H1236 H 0.41705 0.96193 0.8588 0.0
H1237 H 0.43732 0.95726 0.83686 0.0
H1238 H 0.46158 0.00512 0.8898 0.0
H1239 H 0.48164 0.00069 0.86772 0.0
H1240 H 0.44549 0.00843 0.79774 0.0
H1241 H 0.46583 0.0029 0.81837 0.0
H1242 H 0.42964 0.96008 0.76337 0.0
H1243 H 0.44986 0.95431 0.78465 0.0
N1244 N 0.48513 0.97451 0.80433 0.0
N1245 N 0.48819 0.9777 0.84624 0.0
C1246 C 0.0048 0.55588 0.78998 0.0
C1247 C 0.01584 0.56375 0.77289 0.0
C1248 C 0.00614 0.54302 0.80171 0.0
C1249 C 0.01902 0.53828 0.79706 0.0
C1250 C 0.0283 0.55859 0.76776 0.0
C1251 C 0.02992 0.54599 0.7798 0.0
C1252 C 0.02047 0.52456 0.80932 0.0
C1253 C 0.02877 0.56807 0.85448 0.0
C1254 C 0.01705 0.56214 0.87135 0.0
C1255 C 0.0302 0.5559 0.84147 0.0
C1256 C 0.01961 0.53758 0.84479 0.0
C1257 C 0.00706 0.54381 0.87503 0.0
C1258 C 0.00826 0.53174 0.86188 0.0
C1259 C 0.02038 0.52413 0.83129 0.0
C1260 C 0.02579 0.45864 0.85224 0.0
C1261 C 0.01418 0.45313 0.86922 0.0
C1262 C 0.02772 0.47264 0.83954 0.0
C1263 C 0.01774 0.48107 0.84327 0.0
C1264 C 0.00463 0.46198 0.87313 0.0
C1265 C 0.00631 0.47566 0.86028 0.0
C1266 C 0.01945 0.49611 0.83054 0.0
C1267 C 0.00247 0.45004 0.78758 0.0
C1268 C 0.01432 0.45298 0.77141 0.0
C1269 C 0.00392 0.4642 0.79936 0.0
C1270 C 0.01757 0.48153 0.79561 0.0
C1271 C 0.02744 0.47042 0.76696 0.0
C1272 C 0.02904 0.48458 0.77898 0.0
C1273 C 0.01962 0.49653 0.80857 0.0
H1274 H 0.99479 0.55934 0.7939 0.0
H1275 H 0.99699 0.53669 0.81431 0.0
H1276 H 0.03684 0.56439 0.75451 0.0
H1277 H 0.0397 0.54229 0.77567 0.0
H1278 H 0.03669 0.58207 0.85114 0.0
H1279 H 0.03952 0.56083 0.82882 0.0
H1280 H 0.99835 0.53868 0.88821 0.0
H1281 H 0.00014 0.51771 0.86505 0.0
H1282 H 0.03336 0.45214 0.84871 0.0
H1283 H 0.03706 0.4769 0.82692 0.0
H1284 H 0.996 0.4586 0.88638 0.0
H1285 H 0.99863 0.48208 0.86373 0.0
H1286 H 0.99199 0.43677 0.79103 0.0
H1287 H 0.99442 0.46156 0.81151 0.0
H1288 H 0.03671 0.47304 0.75454 0.0
H1289 H 0.03947 0.49788 0.77557 0.0
N1290 N 0.02031 0.51084 0.79885 0.0
N1291 N 0.01984 0.50991 0.84086 0.0
C1292 C 0.53221 0.56981 0.78373 0.0
C1293 C 0.54031 0.5634 0.77005 0.0
C1294 C 0.5182 0.55816 0.79623 0.0
C1295 C 0.51204 0.53984 0.7954 0.0
C1296 C 0.53388 0.54501 0.76901 0.0
C1297 C 0.51984 0.53337 0.78145 0.0
C1298 C 0.49723 0.52725 0.80853 0.0
C1299 C 0.54107 0.55648 0.85517 0.0
C1300 C 0.53856 0.56816 0.86805 0.0
C1301 C 0.52754 0.54451 0.84221 0.0
C1302 C 0.5111 0.54379 0.84195 0.0
C1303 C 0.52215 0.56769 0.86725 0.0
C1304 C 0.50848 0.55544 0.85453 0.0
C1305 C 0.4963 0.52974 0.83004 0.0
C1306 C 0.4402 0.45838 0.85896 0.0
C1307 C 0.43323 0.46376 0.87517 0.0
C1308 C 0.45173 0.47076 0.84468 0.0
C1309 C 0.45596 0.48865 0.84583 0.0
C1310 C 0.43758 0.48161 0.87657 0.0
C1311 C 0.44875 0.49392 0.86196 0.0
C1312 C 0.46928 0.50226 0.83187 0.0
C1313 C 0.42732 0.46116 0.79038 0.0
C1314 C 0.4337 0.45232 0.77782 0.0
C1315 C 0.43906 0.47684 0.80071 0.0
C1316 C 0.45735 0.4838 0.79877 0.0
C1317 C 0.452 0.45977 0.7753 0.0
C1318 C 0.46367 0.47534 0.78562 0.0
C1319 C 0.47021 0.4998 0.81026 0.0
H1320 H 0.53656 0.58385 0.78464 0.0
H1321 H 0.51208 0.56346 0.8064 0.0
H1322 H 0.53991 0.53959 0.75888 0.0
H1323 H 0.51527 0.51928 0.78045 0.0
H1324 H 0.55326 0.55601 0.85563 0.0
H1325 H 0.52969 0.53534 0.83296 0.0
H1326 H 0.51975 0.57663 0.8766 0.0
H1327 H 0.49583 0.55499 0.8546 0.0
H1328 H 0.43737 0.44475 0.85792 0.0
H1329 H 0.45776 0.46638 0.8332 0.0
H1330 H 0.4325 0.48607 0.88912 0.0
H1331 H 0.45205 0.50766 0.86349 0.0
H1332 H 0.41329 0.45577 0.79259 0.0
H1333 H 0.43388 0.48338 0.8104 0.0
H1334 H 0.45734 0.45356 0.76532 0.0
H1335 H 0.47772 0.48058 0.78367 0.0
N1336 N 0.48418 0.51236 0.79954 0.0
N1337 N 0.48236 0.51723 0.84083 0.0
C1338 C 0.64757 0.77394 0.50023 0.0
C1339 C 0.63658 0.7664 0.48277 0.0
C1340 C 0.64458 0.78457 0.514 0.0
C1341 C 0.63032 0.78763 0.51087 0.0
C1342 C 0.62202 0.76908 0.47993 0.0
C1343 C 0.61901 0.77971 0.49378 0.0
C1344 C 0.62861 0.80088 0.52362 0.0
C1345 C 0.62283 0.75758 0.56765 0.0
C1346 C 0.63655 0.76361 0.58251 0.0
C1347 C 0.62028 0.76968 0.55562 0.0
C1348 C 0.63145 0.788 0.55822 0.0
C1349 C 0.64757 0.78199 0.58507 0.0
C1350 C 0.64495 0.79399 0.57322 0.0
C1351 C 0.62954 0.80128 0.54556 0.0
C1352 C 0.62761 0.8692 0.56534 0.0
C1353 C 0.64059 0.87545 0.58109 0.0
C1354 C 0.6238 0.85389 0.55409 0.0
C1355 C 0.63306 0.84471 0.55826 0.0
C1356 C 0.64904 0.86562 0.58597 0.0
C1357 C 0.64532 0.85045 0.57471 0.0
C1358 C 0.63057 0.82937 0.54556 0.0
C1359 C 0.65314 0.87565 0.50154 0.0
C1360 C 0.64259 0.87392 0.48407 0.0
C1361 C 0.64883 0.86125 0.51466 0.0
C1362 C 0.63364 0.84486 0.51089 0.0
C1363 C 0.62731 0.85753 0.4804 0.0
C1364 C 0.62295 0.84311 0.49362 0.0
C1365 C 0.63002 0.82915 0.52359 0.0
H1366 H 0.65881 0.77203 0.50296 0.0
H1367 H 0.65389 0.79099 0.52661 0.0
H1368 H 0.61345 0.76367 0.46649 0.0
H1369 H 0.60811 0.78214 0.49085 0.0
H1370 H 0.61397 0.74353 0.56542 0.0
H1371 H 0.60959 0.76474 0.54436 0.0
H1372 H 0.65853 0.7872 0.59595 0.0
H1373 H 0.65381 0.80805 0.57544 0.0
H1374 H 0.62081 0.87643 0.56128 0.0
H1375 H 0.6139 0.84944 0.54188 0.0
H1376 H 0.65878 0.8698 0.59835 0.0
H1377 H 0.65248 0.84351 0.57847 0.0
H1378 H 0.66492 0.8881 0.50494 0.0
H1379 H 0.65765 0.86283 0.52745 0.0
H1380 H 0.61905 0.85564 0.46691 0.0
H1381 H 0.61138 0.8305 0.49017 0.0
N1382 N 0.6288 0.8148 0.51354 0.0
N1383 N 0.63043 0.81547 0.55558 0.0
C1384 C 0.12342 0.76761 0.50351 0.0
C1385 C 0.11768 0.77397 0.48667 0.0
C1386 C 0.13749 0.77931 0.51619 0.0
C1387 C 0.14577 0.7977 0.51275 0.0
C1388 C 0.12608 0.79239 0.4833 0.0
C1389 C 0.13981 0.80405 0.49622 0.0
C1390 C 0.16163 0.81047 0.52471 0.0
C1391 C 0.12025 0.78437 0.57369 0.0
C1392 C 0.12308 0.7727 0.58626 0.0
C1393 C 0.13349 0.79625 0.56057 0.0
C1394 C 0.14982 0.79674 0.55991 0.0
C1395 C 0.13946 0.77323 0.58563 0.0
C1396 C 0.15283 0.78536 0.57274 0.0
C1397 C 0.16392 0.80954 0.54636 0.0
C1398 C 0.22649 0.88077 0.56503 0.0
C1399 C 0.23453 0.87607 0.58096 0.0
C1400 C 0.21279 0.86773 0.55318 0.0
C1401 C 0.20721 0.8497 0.55654 0.0
C1402 C 0.22868 0.85806 0.58474 0.0
C1403 C 0.21516 0.84499 0.57259 0.0
C1404 C 0.19213 0.83572 0.54466 0.0
C1405 C 0.23185 0.86733 0.49433 0.0
C1406 C 0.22578 0.87594 0.48066 0.0
C1407 C 0.22036 0.8548 0.50858 0.0
C1408 C 0.20266 0.85073 0.50939 0.0
C1409 C 0.20813 0.87206 0.48195 0.0
C1410 C 0.19668 0.85949 0.49601 0.0
C1411 C 0.18981 0.83662 0.52302 0.0
H1412 H 0.11725 0.75357 0.5068 0.0
H1413 H 0.14215 0.77386 0.52825 0.0
H1414 H 0.12249 0.79791 0.47025 0.0
H1415 H 0.14605 0.81812 0.49298 0.0
H1416 H 0.1077 0.78414 0.57382 0.0
H1417 H 0.13103 0.80513 0.551 0.0
H1418 H 0.14197 0.76443 0.59528 0.0
H1419 H 0.16543 0.78569 0.57256 0.0
H1420 H 0.23045 0.89456 0.56215 0.0
H1421 H 0.20632 0.87181 0.54174 0.0
H1422 H 0.23463 0.85412 0.59701 0.0
H1423 H 0.21087 0.83118 0.57576 0.0
H1424 H 0.24531 0.86988 0.49362 0.0
H1425 H 0.22517 0.84798 0.51857 0.0
H1426 H 0.20308 0.87871 0.47205 0.0
H1427 H 0.18308 0.85658 0.49641 0.0
N1428 N 0.1747 0.82401 0.51402 0.0
N1429 N 0.1791 0.82211 0.55546 0.0
C1430 C 0.23767 0.37042 0.4951 0.0
C1431 C 0.23186 0.35601 0.48132 0.0
C1432 C 0.2255 0.37268 0.507 0.0
C1433 C 0.20737 0.36054 0.50523 0.0
C1434 C 0.21369 0.34414 0.4794 0.0
C1435 C 0.20161 0.34643 0.49114 0.0
C1436 C 0.19399 0.36225 0.51753 0.0
C1437 C 0.2267 0.35078 0.5623 0.0
C1438 C 0.23448 0.3631 0.5785 0.0
C1439 C 0.21368 0.35098 0.54971 0.0
C1440 C 0.20863 0.36394 0.55257 0.0
C1441 C 0.22895 0.3756 0.58197 0.0
C1442 C 0.21614 0.37604 0.56906 0.0
C1443 C 0.19464 0.36408 0.53941 0.0
C1444 C 0.1206 0.33886 0.56117 0.0
C1445 C 0.12059 0.35218 0.57366 0.0
C1446 C 0.13543 0.34217 0.54978 0.0
C1447 C 0.15069 0.3588 0.55074 0.0
C1448 C 0.13607 0.36881 0.57479 0.0
C1449 C 0.15107 0.37201 0.56359 0.0
C1450 C 0.16626 0.36204 0.53859 0.0
C1451 C 0.12621 0.36262 0.49417 0.0
C1452 C 0.12137 0.35066 0.4774 0.0
C1453 C 0.14062 0.36597 0.50695 0.0
C1454 C 0.15021 0.35706 0.50363 0.0
C1455 C 0.13134 0.34218 0.47384 0.0
C1456 C 0.14547 0.34527 0.48682 0.0
C1457 C 0.16566 0.3603 0.51674 0.0
H1458 H 0.25159 0.37981 0.49685 0.0
H1459 H 0.23022 0.38385 0.51753 0.0
H1460 H 0.20874 0.33313 0.4686 0.0
H1461 H 0.18769 0.33697 0.48938 0.0
H1462 H 0.23044 0.34073 0.55963 0.0
H1463 H 0.20744 0.34085 0.5379 0.0
H1464 H 0.2347 0.38516 0.59448 0.0
H1465 H 0.21217 0.38589 0.57187 0.0
H1466 H 0.1092 0.32573 0.56036 0.0
H1467 H 0.13505 0.33168 0.54027 0.0
H1468 H 0.13656 0.37943 0.58408 0.0
H1469 H 0.16282 0.3849 0.5646 0.0
H1470 H 0.11887 0.36939 0.49751 0.0
H1471 H 0.14433 0.37569 0.51923 0.0
H1472 H 0.12846 0.3333 0.46078 0.0
H1473 H 0.15273 0.33836 0.48365 0.0
N1474 N 0.17956 0.36045 0.50718 0.0
N1475 N 0.18076 0.36401 0.54907 0.0
H1476 H 0.97188 0.36153 0.04858 0.0
H1477 H 0.00756 0.43424 0.13935 0.0
H1478 H 0.02673 0.39622 0.06386 0.0
H1479 H 0.95311 0.40704 0.11948 0.0
H1480 H 0.0136 0.4161 0.11558 0.0
H1481 H 0.96366 0.37402 0.07794 0.0
C1482 C 0.98217 0.37158 0.05824 0.0
C1483 C 2e-05 0.37799 0.05362 0.0
C1484 C 0.00028 0.41396 0.11645 0.0
C1485 C 0.99075 0.3922 0.08711 0.0
C1486 C 0.99684 0.42433 0.13002 0.0
C1487 C 0.97989 0.42232 0.1311 0.0
C1488 C 0.9867 0.4015 0.10367 0.0
C1489 C 0.96639 0.40902 0.11902 0.0
C1490 C 0.97747 0.37873 0.07492 0.0
C1491 C 0.01281 0.39104 0.06662 0.0
N1492 N 0.97012 0.39924 0.10555 0.0
N1493 N 0.00792 0.39772 0.08265 0.0
H1494 H 0.6471 0.62284 0.06952 0.0
H1495 H 0.55664 0.57071 0.12971 0.0
H1496 H 0.59806 0.61555 0.04409 0.0
H1497 H 0.5954 0.5533 0.13202 0.0
H1498 H 0.57433 0.59268 0.1037 0.0
H1499 H 0.63078 0.60268 0.09821 0.0
C1500 C 0.63287 0.61674 0.06988 0.0
C1501 C 0.62371 0.62 0.05402 0.0
C1502 C 0.57895 0.58406 0.11002 0.0
C1503 C 0.60525 0.59797 0.08702 0.0
C1504 C 0.56883 0.57142 0.12479 0.0
C1505 C 0.57431 0.55981 0.1329 0.0
C1506 C 0.59489 0.58545 0.10359 0.0
C1507 C 0.59063 0.56196 0.12637 0.0
C1508 C 0.62363 0.60546 0.08626 0.0
C1509 C 0.60545 0.61282 0.05575 0.0
N1510 N 0.60035 0.57452 0.11206 0.0
N1511 N 0.59675 0.60202 0.07192 0.0
H1512 H 0.36904 0.01859 0.0768 0.0
H1513 H 0.42389 0.01461 0.15494 0.0
H1514 H 0.38753 0.98916 0.04102 0.0
H1515 H 0.45599 0.01689 0.10312 0.0
H1516 H 0.40028 0.01028 0.13054 0.0
H1517 H 0.39059 0.02282 0.10419 0.0
C1518 C 0.37771 0.01307 0.07479 0.0
C1519 C 0.37703 0.00402 0.05653 0.0
C1520 C 0.41258 0.01196 0.12452 0.0
C1521 C 0.40123 0.00833 0.08772 0.0
C1522 C 0.42597 0.01429 0.13841 0.0
C1523 C 0.44191 0.01622 0.13097 0.0
C1524 C 0.4151 0.01131 0.10309 0.0
C1525 C 0.44396 0.01567 0.10944 0.0
C1526 C 0.38981 0.01527 0.09047 0.0
C1527 C 0.38803 0.99657 0.05477 0.0
N1528 N 0.43063 0.01308 0.09625 0.0
N1529 N 0.39997 0.99919 0.07002 0.0
H1530 H 0.36126 0.97555 0.96742 0.0
H1531 H 0.44033 0.01584 0.88572 0.0
H1532 H 0.3978 0.03139 0.95967 0.0
H1533 H 0.40782 0.95967 0.89615 0.0
H1534 H 0.42233 0.02142 0.91002 0.0
H1535 H 0.37559 0.96916 0.93868 0.0
C1536 C 0.37215 0.98647 0.95957 0.0
C1537 C 0.3784 0.00404 0.96613 0.0
C1538 C 0.41903 0.00785 0.90697 0.0
C1539 C 0.39485 0.99679 0.9333 0.0
C1540 C 0.42936 0.00466 0.89313 0.0
C1541 C 0.42573 0.98728 0.88912 0.0
C1542 C 0.40493 0.99356 0.91701 0.0
C1543 C 0.41108 0.97328 0.8988 0.0
C1544 C 0.38035 0.9828 0.94321 0.0
C1545 C 0.39259 0.01763 0.95536 0.0
N1546 N 0.4013 0.97673 0.91247 0.0
N1547 N 0.40034 0.01371 0.9396 0.0
H1548 H 0.98345 0.384 0.97443 0.0
H1549 H 0.03951 0.44456 0.88172 0.0
H1550 H 0.0233 0.37561 0.94591 0.0
H1551 H 0.98431 0.42833 0.88892 0.0
H1552 H 0.03618 0.42216 0.90729 0.0
H1553 H 0.98603 0.4039 0.94584 0.0
C1554 C 0.99287 0.38655 0.9622 0.0
C1555 C 0.00376 0.37891 0.96284 0.0
C1556 C 0.02485 0.42357 0.90316 0.0
C1557 C 0.00656 0.40121 0.93011 0.0
C1558 C 0.02667 0.43624 0.88845 0.0
C1559 C 0.01223 0.43861 0.8833 0.0
C1560 C 0.00862 0.4135 0.91308 0.0
C1561 C 0.99598 0.42747 0.89281 0.0
C1562 C 0.99428 0.39777 0.94589 0.0
C1563 C 0.01533 0.38202 0.94635 0.0
N1564 N 0.99469 0.41561 0.90744 0.0
N1565 N 0.01665 0.39319 0.93072 0.0
H1566 H 0.60025 0.63084 0.97448 0.0
H1567 H 0.57468 0.58439 0.86354 0.0
H1568 H 0.62792 0.60621 0.94722 0.0
H1569 H 0.53479 0.57884 0.90713 0.0
H1570 H 0.59719 0.60018 0.89013 0.0
H1571 H 0.57884 0.61943 0.94553 0.0
C1572 C 0.60193 0.62324 0.96226 0.0
C1573 C 0.61576 0.61934 0.96321 0.0
C1574 C 0.58348 0.59561 0.89369 0.0
C1575 C 0.5917 0.60665 0.93017 0.0
C1576 C 0.57057 0.58647 0.8786 0.0
C1577 C 0.55263 0.57988 0.88308 0.0
C1578 C 0.57854 0.59859 0.91328 0.0
C1579 C 0.54836 0.5837 0.90275 0.0
C1580 C 0.58972 0.6167 0.94588 0.0
C1581 C 0.61734 0.60936 0.94711 0.0
N1582 N 0.56121 0.59276 0.91713 0.0
N1583 N 0.60548 0.60341 0.93117 0.0
H1584 H 0.02817 0.65197 0.9442 0.0
H1585 H 0.98709 0.55782 0.89032 0.0
H1586 H 0.98922 0.60435 0.97417 0.0
H1587 H 0.0426 0.59551 0.88423 0.0
H1588 H 0.98466 0.57728 0.9157 0.0
H1589 H 0.03063 0.63376 0.91651 0.0
C1590 C 0.02039 0.63766 0.94506 0.0
C1591 C 0.00916 0.62948 0.96189 0.0
C1592 C 0.99734 0.58126 0.90871 0.0
C1593 C 0.01111 0.60886 0.93002 0.0
C1594 C 0.99881 0.57013 0.89431 0.0
C1595 C 0.01518 0.57479 0.88533 0.0
C1596 C 0.01221 0.59741 0.91389 0.0
C1597 C 0.0297 0.59133 0.89061 0.0
C1598 C 0.02166 0.62736 0.92925 0.0
C1599 C 0.99845 0.61104 0.96173 0.0
N1600 N 0.02788 0.60206 0.90459 0.0
N1601 N -0.00026 0.60129 0.94607 0.0
H1602 H 0.41066 0.39555 0.97908 0.0
H1603 H 0.40214 0.43247 0.87131 0.0
H1604 H 0.35849 0.38173 0.9569 0.0
H1605 H 0.4412 0.46611 0.9163 0.0
H1606 H 0.38667 0.41056 0.89896 0.0
H1607 H 0.42328 0.41827 0.95235 0.0
C1608 C 0.40181 0.39727 0.96863 0.0
C1609 C 0.38343 0.38679 0.97044 0.0
C1610 C 0.39851 0.42285 0.90272 0.0
C1611 C 0.39797 0.41258 0.93939 0.0
C1612 C 0.40732 0.43526 0.88704 0.0
C1613 C 0.42287 0.45106 0.89167 0.0
C1614 C 0.40568 0.42611 0.92289 0.0
C1615 C 0.42917 0.45412 0.9122 0.0
C1616 C 0.40907 0.41029 0.95341 0.0
C1617 C 0.37272 0.38961 0.95619 0.0
N1618 N 0.4207 0.44162 0.92701 0.0
N1619 N 0.38016 0.40214 0.94106 0.0
H1620 H 0.6169 0.01734 0.97673 0.0
H1621 H 0.55541 0.95992 0.88448 0.0
H1622 H 0.62469 0.97695 0.94795 0.0
H1623 H 0.57081 0.01525 0.89204 0.0
H1624 H 0.5783 0.96383 0.90955 0.0
H1625 H 0.59675 0.01459 0.94829 0.0
C1626 C 0.61418 0.00778 0.96447 0.0
C1627 C 0.62171 0.99677 0.965 0.0
C1628 C 0.5766 0.97506 0.90564 0.0
C1629 C 0.59914 0.99377 0.93244 0.0
C1630 C 0.56364 0.97292 0.89117 0.0
C1631 C 0.5609 0.98722 0.88624 0.0
C1632 C 0.58657 0.99145 0.9156 0.0
C1633 C 0.57195 0.00367 0.89576 0.0
C1634 C 0.60282 0.00628 0.94825 0.0
C1635 C 0.61838 0.98502 0.94848 0.0
N1636 N 0.58409 0.00526 0.91019 0.0
N1637 N 0.60708 0.98361 0.93294 0.0
H1638 H 0.61322 0.97597 0.072 0.0
H1639 H 0.57567 0.03673 0.10738 0.0
H1640 H 0.63223 0.0275 0.04424 0.0
H1641 H 0.58466 0.00445 0.15187 0.0
H1642 H 0.59466 0.03273 0.0829 0.0
H1643 H 0.60063 0.9848 0.10039 0.0
C1644 C 0.61491 0.98923 0.07206 0.0
C1645 C 0.62377 0.00106 0.05585 0.0
C1646 C 0.59259 0.02672 0.09814 0.0
C1647 C 0.60906 0.01105 0.08788 0.0
C1648 C 0.5818 0.02904 0.11223 0.0
C1649 C 0.57828 0.02076 0.1318 0.0
C1650 C 0.59963 0.01574 0.10342 0.0
C1651 C 0.58646 0.01068 0.13683 0.0
C1652 C 0.60778 0.99426 0.08825 0.0
C1653 C 0.62559 0.01807 0.05658 0.0
N1654 N 0.59651 0.00822 0.12262 0.0
N1655 N 0.61799 0.02247 0.07216 0.0
H1656 H 0.9789 0.61698 0.04968 0.0
H1657 H 0.01489 0.5758 0.13631 0.0
H1658 H 0.03373 0.63284 0.06021 0.0
H1659 H 0.9595 0.55378 0.12225 0.0
H1660 H 0.02153 0.59968 0.11174 0.0
H1661 H 0.97108 0.59645 0.07919 0.0
C1662 C 0.98929 0.61629 0.05828 0.0
C1663 C 0.00698 0.62653 0.0523 0.0
C1664 C 0.00789 0.58972 0.11406 0.0
C1665 C 0.99816 0.6032 0.08599 0.0
C1666 C 0.00411 0.57606 0.12808 0.0
C1667 C 0.98665 0.56266 0.13108 0.0
C1668 C 0.99414 0.58999 0.10278 0.0
C1669 C 0.97315 0.56386 0.12035 0.0
C1670 C 0.98481 0.60455 0.07507 0.0
C1671 C 0.01989 0.62508 0.06402 0.0
N1672 N 0.97719 0.57719 0.10646 0.0
N1673 N 0.01522 0.61362 0.08019 0.0
H1674 H 0.38294 0.40284 0.04753 0.0
H1675 H 0.445 0.40439 0.138 0.0
H1676 H 0.37503 0.35412 0.07507 0.0
H1677 H 0.43038 0.4452 0.13166 0.0
H1678 H 0.42135 0.38597 0.11365 0.0
H1679 H 0.40285 0.41939 0.0763 0.0
C1680 C 0.38553 0.39568 0.05963 0.0
C1681 C 0.37811 0.37725 0.05856 0.0
C1682 C 0.42338 0.39896 0.11768 0.0
C1683 C 0.40049 0.39591 0.09154 0.0
C1684 C 0.43679 0.40948 0.13174 0.0
C1685 C 0.43999 0.4266 0.1368 0.0
C1686 C 0.41338 0.40575 0.10822 0.0
C1687 C 0.42892 0.4324 0.12782 0.0
C1688 C 0.39677 0.40507 0.07605 0.0
C1689 C 0.38129 0.36844 0.07492 0.0
N1690 N 0.41633 0.42212 0.11375 0.0
N1691 N 0.39253 0.37789 0.09064 0.0
H1692 H 0.63656 0.69611 0.38606 0.0
H1693 H 0.66923 0.77591 0.46772 0.0
H1694 H 0.68929 0.74098 0.38899 0.0
H1695 H 0.6145 0.73598 0.4609 0.0
H1696 H 0.67684 0.76147 0.44059 0.0
H1697 H 0.62821 0.70892 0.41484 0.0
C1698 C 0.64639 0.7086 0.39273 0.0
C1699 C 0.66366 0.71747 0.385 0.0
C1700 C 0.66315 0.75578 0.44502 0.0
C1701 C 0.65419 0.73211 0.41792 0.0
C1702 C 0.6588 0.76395 0.46069 0.0
C1703 C 0.6412 0.7571 0.46672 0.0
C1704 C 0.64982 0.74059 0.43516 0.0
C1705 C 0.62823 0.74178 0.45663 0.0
C1706 C 0.64159 0.7159 0.40913 0.0
C1707 C 0.6758 0.73363 0.39429 0.0
N1708 N 0.6328 0.73402 0.44134 0.0
N1709 N 0.67084 0.74037 0.4102 0.0
H1710 H 0.26486 0.94206 0.37159 0.0
H1711 H 0.26102 0.90085 0.48416 0.0
H1712 H 0.31131 0.95567 0.40847 0.0
H1713 H 0.21739 0.87984 0.4406 0.0
H1714 H 0.27957 0.9221 0.45773 0.0
H1715 H 0.2468 0.92077 0.3983 0.0
C1716 C 0.2712 0.94042 0.38533 0.0
C1717 C 0.28953 0.94996 0.38761 0.0
C1718 C 0.26592 0.91282 0.45402 0.0
C1719 C 0.26913 0.92615 0.41839 0.0
C1720 C 0.25535 0.90062 0.46905 0.0
C1721 C 0.23753 0.88862 0.46472 0.0
C1722 C 0.25859 0.91312 0.43458 0.0
C1723 C 0.2309 0.88908 0.44488 0.0
C1724 C 0.26095 0.92832 0.40054 0.0
C1725 C 0.2972 0.94796 0.40592 0.0
N1726 N 0.24139 0.90116 0.43063 0.0
N1727 N 0.28696 0.93618 0.42063 0.0
H1728 H 0.03748 0.35354 0.40539 0.0
H1729 H 0.09826 0.31956 0.45761 0.0
H1730 H 0.05011 0.3173 0.37433 0.0
H1731 H 0.10977 0.37382 0.46502 0.0
H1732 H 0.07529 0.31487 0.43241 0.0
H1733 H 0.05869 0.3573 0.43318 0.0
C1734 C 0.04495 0.3466 0.40434 0.0
C1735 C 0.04288 0.33585 0.38717 0.0
C1736 C 0.08284 0.32776 0.43968 0.0
C1737 C 0.06619 0.33928 0.41908 0.0
C1738 C 0.09607 0.33054 0.45397 0.0
C1739 C 0.1063 0.34724 0.46334 0.0
C1740 C 0.07945 0.34161 0.435 0.0
C1741 C 0.10223 0.36068 0.45843 0.0
C1742 C 0.05685 0.3486 0.4202 0.0
C1743 C 0.05188 0.32619 0.38705 0.0
N1744 N 0.08911 0.35756 0.4446 0.0
N1745 N 0.06327 0.32821 0.40272 0.0
H1746 H 0.06428 0.36336 0.28954 0.0
H1747 H 0.07494 0.28929 0.22792 0.0
H1748 H 0.02951 0.30731 0.29864 0.0
H1749 H 0.10627 0.34553 0.21695 0.0
H1750 H 0.05682 0.29511 0.25219 0.0
H1751 H 0.07852 0.35664 0.26147 0.0
C1752 C 0.05955 0.3496 0.28558 0.0
C1753 C 0.04572 0.33588 0.29663 0.0
C1754 C 0.06758 0.30615 0.24435 0.0
C1755 C 0.06217 0.32804 0.26435 0.0
C1756 C 0.07788 0.30284 0.23042 0.0
C1757 C 0.09228 0.31697 0.22056 0.0
C1758 C 0.07173 0.32371 0.24842 0.0
C1759 C 0.09555 0.33425 0.22451 0.0
C1760 C 0.0677 0.34576 0.26947 0.0
C1761 C 0.04012 0.31832 0.29057 0.0
N1762 N 0.08544 0.33712 0.23819 0.0
N1763 N 0.04848 0.31489 0.27496 0.0
H1764 H 0.68753 0.70533 0.28028 0.0
H1765 H 0.65305 0.75891 0.21227 0.0
H1766 H 0.64752 0.71685 0.30166 0.0
H1767 H 0.7083 0.77399 0.21419 0.0
H1768 H 0.64732 0.73643 0.23862 0.0
H1769 H 0.69168 0.72378 0.2494 0.0
C1770 C 0.67981 0.71196 0.27853 0.0
C1771 C 0.66788 0.7105 0.29389 0.0
C1772 C 0.66064 0.74458 0.23305 0.0
C1773 C 0.67176 0.73051 0.25844 0.0
C1774 C 0.66398 0.75747 0.2181 0.0
C1775 C 0.68128 0.76871 0.21128 0.0
C1776 C 0.67459 0.74258 0.24092 0.0
C1777 C 0.69476 0.76568 0.2189 0.0
C1778 C 0.68203 0.72225 0.2609 0.0
C1779 C 0.65729 0.71825 0.2904 0.0
N1780 N 0.69114 0.75294 0.23343 0.0
N1781 N 0.65957 0.72809 0.27307 0.0
H1782 H 0.29862 0.93214 0.28905 0.0
H1783 H 0.21857 0.92982 0.2255 0.0
H1784 H 0.2805 0.96979 0.29923 0.0
H1785 H 0.24177 0.89709 0.21155 0.0
H1786 H 0.2425 0.94646 0.25048 0.0
H1787 H 0.27916 0.92074 0.25893 0.0
C1788 C 0.29062 0.9381 0.28489 0.0
C1789 C 0.2911 0.95185 0.29685 0.0
C1790 C 0.24245 0.93577 0.24177 0.0
C1791 C 0.26859 0.93871 0.26228 0.0
C1792 C 0.22886 0.92634 0.22742 0.0
C1793 C 0.22805 0.91189 0.21665 0.0
C1794 C 0.25527 0.93066 0.24536 0.0
C1795 C 0.24167 0.90789 0.21985 0.0
C1796 C 0.27951 0.9316 0.26761 0.0
C1797 C 0.28053 0.95914 0.29051 0.0
N1798 N 0.25459 0.91709 0.23404 0.0
N1799 N 0.26955 0.95234 0.27378 0.0
H1800 H 0.66244 0.9311 0.31715 0.0
H1801 H 0.70109 0.92952 0.2058 0.0
H1802 H 0.69342 0.97868 0.28185 0.0
H1803 H 0.68567 0.88761 0.25101 0.0
H1804 H 0.69669 0.94743 0.23196 0.0
H1805 H 0.6682 0.91412 0.291 0.0
C1806 C 0.67056 0.93792 0.30389 0.0
C1807 C 0.67808 0.95628 0.30189 0.0
C1808 C 0.69432 0.93431 0.23609 0.0
C1809 C 0.68431 0.93708 0.27174 0.0
C1810 C 0.69692 0.92412 0.22122 0.0
C1811 C 0.69353 0.90691 0.22609 0.0
C1812 C 0.68813 0.92717 0.25586 0.0
C1813 C 0.68799 0.90058 0.24632 0.0
C1814 C 0.67386 0.92829 0.28902 0.0
C1815 C 0.68798 0.96456 0.28418 0.0
N1816 N 0.68535 0.91065 0.26037 0.0
N1817 N 0.69088 0.95489 0.26973 0.0
H1818 H 0.03018 0.72287 0.30228 0.0
H1819 H 0.10717 0.76413 0.21783 0.0
H1820 H 0.06855 0.70585 0.29239 0.0
H1821 H 0.07427 0.7871 0.23158 0.0
H1822 H 0.09012 0.74016 0.24201 0.0
H1823 H 0.04316 0.74397 0.27346 0.0
C1824 C 0.04116 0.72341 0.29392 0.0
C1825 C 0.04838 0.71268 0.29991 0.0
C1826 C 0.08652 0.75037 0.23973 0.0
C1827 C 0.06324 0.73671 0.26702 0.0
C1828 C 0.09631 0.76411 0.22595 0.0
C1829 C 0.09232 0.77779 0.22292 0.0
C1830 C 0.0726 0.75024 0.25071 0.0
C1831 C 0.07781 0.77682 0.23348 0.0
C1832 C 0.04861 0.73549 0.27754 0.0
C1833 C 0.06265 0.71397 0.28854 0.0
N1834 N 0.06856 0.76336 0.24709 0.0
N1835 N 0.06961 0.72578 0.27277 0.0
H1836 H 0.27981 0.34977 0.31498 0.0
H1837 H 0.23999 0.30988 0.20274 0.0
H1838 H 0.29681 0.31885 0.27968 0.0
H1839 H 0.21619 0.3301 0.24553 0.0
H1840 H 0.26235 0.31477 0.22923 0.0
H1841 H 0.2583 0.34531 0.28759 0.0
C1842 C 0.27888 0.34197 0.30142 0.0
C1843 C 0.28942 0.33402 0.29979 0.0
C1844 C 0.25224 0.31817 0.23272 0.0
C1845 C 0.26535 0.32921 0.26827 0.0
C1846 C 0.23942 0.3153 0.21767 0.0
C1847 C 0.22629 0.31979 0.22178 0.0
C1848 C 0.25195 0.32567 0.25193 0.0
C1849 C 0.22629 0.32687 0.24139 0.0
C1850 C 0.26666 0.33941 0.28583 0.0
C1851 C 0.28832 0.32456 0.28171 0.0
N1852 N 0.23894 0.32965 0.25565 0.0
N1853 N 0.27636 0.3223 0.26663 0.0
H1854 H 0.27099 0.30654 0.39847 0.0
H1855 H 0.26051 0.38074 0.45953 0.0
H1856 H 0.30499 0.36255 0.38809 0.0
H1857 H 0.23169 0.32492 0.47387 0.0
H1858 H 0.27856 0.37494 0.43514 0.0
H1859 H 0.25784 0.31345 0.42763 0.0
C1860 C 0.27579 0.32032 0.40238 0.0
C1861 C 0.28905 0.33398 0.39066 0.0
C1862 C 0.2684 0.364 0.44379 0.0
C1863 C 0.27388 0.34203 0.42412 0.0
C1864 C 0.25817 0.36732 0.45779 0.0
C1865 C 0.24441 0.35325 0.46852 0.0
C1866 C 0.26481 0.34649 0.44051 0.0
C1867 C 0.24189 0.33611 0.46558 0.0
C1868 C 0.26828 0.32427 0.41911 0.0
C1869 C 0.29479 0.35159 0.39665 0.0
N1870 N 0.25186 0.33321 0.45175 0.0
N1871 N 0.28704 0.35511 0.41284 0.0
H1872 H 0.64544 0.94753 0.39016 0.0
H1873 H 0.67591 0.89689 0.47051 0.0
H1874 H 0.69917 0.95829 0.39757 0.0
H1875 H 0.62182 0.88492 0.46339 0.0
H1876 H 0.68475 0.92077 0.44536 0.0
H1877 H 0.63668 0.92597 0.41842 0.0
C1878 C 0.65544 0.94551 0.39781 0.0
C1879 C 0.67309 0.95474 0.39133 0.0
C1880 C 0.67095 0.91299 0.44934 0.0
C1881 C 0.66307 0.92995 0.42366 0.0
C1882 C 0.66589 0.8994 0.46384 0.0
C1883 C 0.64807 0.88886 0.46916 0.0
C1884 C 0.65813 0.91613 0.43993 0.0
C1885 C 0.63567 0.89256 0.4596 0.0
C1886 C 0.6504 0.93314 0.41393 0.0
C1887 C 0.68541 0.9515 0.4019 0.0
N1888 N 0.64093 0.90586 0.44543 0.0
N1889 N 0.68015 0.93934 0.41742 0.0
H1890 H 0.05096 0.73519 0.37845 0.0
H1891 H 0.11 0.74031 0.47457 0.0
H1892 H 0.04365 0.68762 0.40861 0.0
H1893 H 0.09315 0.77918 0.46494 0.0
H1894 H 0.08841 0.72138 0.44858 0.0
H1895 H 0.06982 0.75272 0.40757 0.0
C1896 C 0.05352 0.72851 0.39116 0.0
C1897 C 0.04651 0.7101 0.39083 0.0
C1898 C 0.08951 0.73407 0.45223 0.0
C1899 C 0.06764 0.72986 0.42415 0.0
C1900 C 0.10172 0.74487 0.46725 0.0
C1901 C 0.10367 0.7616 0.47198 0.0
C1902 C 0.07949 0.74018 0.44144 0.0
C1903 C 0.09263 0.76672 0.4615 0.0
C1904 C 0.06414 0.73845 0.40776 0.0
C1905 C 0.0496 0.70191 0.40792 0.0
N1906 N 0.08123 0.75619 0.44653 0.0
N1907 N 0.06019 0.71187 0.42382 0.0
H1908 H 0.29885 0.03462 0.71026 0.0
H1909 H 0.31863 0.08166 0.82099 0.0
H1910 H 0.35012 0.05832 0.73969 0.0
H1911 H 0.28435 0.0871 0.77611 0.0
H1912 H 0.32524 0.06516 0.79529 0.0
H1913 H 0.2884 0.04605 0.73863 0.0
C1914 C 0.30778 0.04195 0.72288 0.0
C1915 C 0.32537 0.04562 0.72268 0.0
C1916 C 0.31614 0.06986 0.79123 0.0
C1917 C 0.31351 0.05839 0.75503 0.0
C1918 C 0.31243 0.07941 0.80582 0.0
C1919 C 0.30117 0.08621 0.80069 0.0
C1920 C 0.30828 0.0667 0.77148 0.0
C1921 C 0.29305 0.08214 0.78093 0.0
C1922 C 0.30186 0.04852 0.73891 0.0
C1923 C 0.33649 0.05532 0.73924 0.0
N1924 N 0.29682 0.07271 0.76701 0.0
N1925 N 0.33037 0.06132 0.7548 0.0
H1926 H 0.92978 0.27361 0.70478 0.0
H1927 H 0.932 0.21609 0.8002 0.0
H1928 H 0.97832 0.28463 0.73536 0.0
H1929 H 0.88697 0.22264 0.78656 0.0
H1930 H 0.94888 0.23862 0.77391 0.0
H1931 H 0.91324 0.25225 0.73226 0.0
C1932 C 0.9369 0.27138 0.71725 0.0
C1933 C 0.95535 0.28018 0.71746 0.0
C1934 C 0.93532 0.23513 0.77673 0.0
C1935 C 0.93672 0.2562 0.74896 0.0
C1936 C 0.9257 0.22228 0.79163 0.0
C1937 C 0.90814 0.21762 0.79554 0.0
C1938 C 0.92715 0.24301 0.76537 0.0
C1939 C 0.90055 0.22602 0.78411 0.0
C1940 C 0.92752 0.2593 0.73292 0.0
C1941 C 0.96407 0.27741 0.73424 0.0
N1942 N 0.91005 0.23821 0.7694 0.0
N1943 N 0.95467 0.26546 0.74924 0.0
H1944 H 0.72334 0.65145 0.70598 0.0
H1945 H 0.77782 0.71093 0.80272 0.0
H1946 H 0.70963 0.68712 0.73647 0.0
H1947 H 0.77683 0.66212 0.78692 0.0
H1948 H 0.75486 0.7044 0.77639 0.0
H1949 H 0.74504 0.65686 0.73364 0.0
C1950 C 0.72503 0.6605 0.71849 0.0
C1951 C 0.71538 0.66949 0.71864 0.0
C1952 C 0.75964 0.6951 0.77875 0.0
C1953 C 0.73972 0.67548 0.75033 0.0
C1954 C 0.77275 0.69886 0.79367 0.0
C1955 C 0.77914 0.687 0.79699 0.0
C1956 C 0.75316 0.67957 0.76679 0.0
C1957 C 0.77212 0.6715 0.78496 0.0
C1958 C 0.73731 0.66354 0.73426 0.0
C1959 C 0.71748 0.6806 0.73544 0.0
N1960 N 0.7596 0.66829 0.77026 0.0
N1961 N 0.72962 0.68349 0.75054 0.0
H1962 H 0.69569 0.63759 0.62964 0.0
H1963 H 0.776 0.67371 0.54983 0.0
H1964 H 0.73429 0.69279 0.62135 0.0
H1965 H 0.73741 0.61821 0.55507 0.0
H1966 H 0.75964 0.68067 0.57494 0.0
H1967 H 0.70945 0.62997 0.60132 0.0
C1968 C 0.70691 0.64812 0.62177 0.0
C1969 C 0.71387 0.66586 0.62804 0.0
C1970 C 0.75465 0.66695 0.57057 0.0
C1971 C 0.72973 0.65721 0.59574 0.0
C1972 C 0.76395 0.66296 0.55606 0.0
C1973 C 0.75807 0.64533 0.55017 0.0
C1974 C 0.73932 0.65324 0.57949 0.0
C1975 C 0.74256 0.63198 0.55928 0.0
C1976 C 0.71479 0.64375 0.60565 0.0
C1977 C 0.72848 0.67891 0.61725 0.0
N1978 N 0.73374 0.6362 0.57352 0.0
N1979 N 0.73592 0.67431 0.60178 0.0
H1980 H 0.35436 0.04339 0.61724 0.0
H1981 H 0.31772 0.09708 0.55301 0.0
H1982 H 0.31169 0.05058 0.63903 0.0
H1983 H 0.37301 0.11228 0.55337 0.0
H1984 H 0.31246 0.07448 0.57898 0.0
H1985 H 0.35833 0.06315 0.58784 0.0
C1986 C 0.34599 0.04934 0.61589 0.0
C1987 C 0.3333 0.04622 0.63096 0.0
C1988 C 0.3257 0.08273 0.57323 0.0
C1989 C 0.33713 0.0679 0.59717 0.0
C1990 C 0.32878 0.09572 0.55849 0.0
C1991 C 0.34593 0.10692 0.5512 0.0
C1992 C 0.33976 0.08061 0.58044 0.0
C1993 C 0.35957 0.10397 0.5584 0.0
C1994 C 0.34814 0.06042 0.5991 0.0
C1995 C 0.322 0.05323 0.62799 0.0
N1996 N 0.35619 0.09111 0.57268 0.0
N1997 N 0.32427 0.06392 0.61147 0.0
H1998 H 0.9625 0.26415 0.61754 0.0
H1999 H 0.88207 0.26137 0.55434 0.0
H2000 H 0.94319 0.30053 0.6298 0.0
H2001 H 0.90691 0.23039 0.53912 0.0
H2002 H 0.90551 0.27778 0.58006 0.0
H2003 H 0.94332 0.25329 0.58722 0.0
C2004 C 0.95424 0.26991 0.61382 0.0
C2005 C 0.95433 0.28316 0.6264 0.0
C2006 C 0.90593 0.26754 0.57089 0.0
C2007 C 0.93212 0.27063 0.59151 0.0
C2008 C 0.89263 0.25825 0.55614 0.0
C2009 C 0.89243 0.24433 0.5448 0.0
C2010 C 0.91906 0.26283 0.57428 0.0
C2011 C 0.90635 0.24077 0.54783 0.0
C2012 C 0.9433 0.26373 0.59639 0.0
C2013 C 0.9435 0.29026 0.62057 0.0
N2014 N 0.91897 0.24982 0.56238 0.0
N2015 N 0.93265 0.28376 0.60365 0.0
H2016 H 0.35809 0.31686 0.61234 0.0
H2017 H 0.3213 0.22714 0.54818 0.0
H2018 H 0.31411 0.26761 0.63257 0.0
H2019 H 0.37712 0.26451 0.55181 0.0
H2020 H 0.31587 0.24543 0.57246 0.0
H2021 H 0.36243 0.30112 0.58317 0.0
C2022 C 0.3495 0.3027 0.6107 0.0
C2023 C 0.33636 0.29323 0.62534 0.0
C2024 C 0.32928 0.24965 0.56777 0.0
C2025 C 0.34059 0.27551 0.59179 0.0
C2026 C 0.33244 0.23919 0.55403 0.0
C2027 C 0.34976 0.24405 0.54826 0.0
C2028 C 0.34346 0.26529 0.57553 0.0
C2029 C 0.36356 0.26021 0.55578 0.0
C2030 C 0.35186 0.29382 0.59403 0.0
C2031 C 0.32479 0.27518 0.62193 0.0
N2032 N 0.36012 0.27024 0.56915 0.0
N2033 N 0.32727 0.26683 0.60558 0.0
H2034 H 0.69474 0.06008 0.6334 0.0
H2035 H 0.76912 0.09759 0.54577 0.0
H2036 H 0.73126 0.04096 0.62187 0.0
H2037 H 0.73914 0.12329 0.56164 0.0
H2038 H 0.75193 0.07408 0.57039 0.0
H2039 H 0.70759 0.0808 0.60423 0.0
C2040 C 0.70531 0.0601 0.62464 0.0
C2041 C 0.71203 0.04886 0.63023 0.0
C2042 C 0.749 0.08479 0.56849 0.0
C2043 C 0.7267 0.07243 0.59692 0.0
C2044 C 0.75885 0.09824 0.55444 0.0
C2045 C 0.75575 0.11256 0.55192 0.0
C2046 C 0.73591 0.0856 0.58025 0.0
C2047 C 0.74198 0.1125 0.56318 0.0
C2048 C 0.71266 0.07196 0.60805 0.0
C2049 C 0.72576 0.04948 0.61834 0.0
N2050 N 0.73266 0.09931 0.57706 0.0
N2051 N 0.73263 0.06107 0.60236 0.0
H2052 H 0.95776 0.64668 0.61144 0.0
H2053 H 0.89163 0.67269 0.55539 0.0
H2054 H 0.9431 0.6829 0.63855 0.0
H2055 H 0.88876 0.62203 0.54641 0.0
H2056 H 0.91497 0.68027 0.58145 0.0
H2057 H 0.93714 0.64142 0.58253 0.0
C2058 C 0.95003 0.65338 0.61132 0.0
C2059 C 0.95134 0.66453 0.62772 0.0
C2060 C 0.90928 0.66754 0.57369 0.0
C2061 C 0.92842 0.65916 0.59464 0.0
C2062 C 0.89607 0.66325 0.55879 0.0
C2063 C 0.88833 0.64672 0.54881 0.0
C2064 C 0.91498 0.65533 0.57834 0.0
C2065 C 0.89437 0.63487 0.55388 0.0
C2066 C 0.93842 0.65048 0.59483 0.0
C2067 C 0.94193 0.67375 0.62641 0.0
N2068 N 0.90743 0.63943 0.56826 0.0
N2069 N 0.93067 0.67072 0.61023 0.0
H2070 H 0.96825 0.69452 0.7192 0.0
H2071 H 0.89103 0.66145 0.8029 0.0
H2072 H 0.92586 0.64049 0.72427 0.0
H2073 H 0.92895 0.71664 0.79337 0.0
H2074 H 0.90554 0.65341 0.77628 0.0
H2075 H 0.95578 0.7027 0.74826 0.0
C2076 C 0.95639 0.68434 0.72646 0.0
C2077 C 0.94808 0.66677 0.71918 0.0
C2078 C 0.91076 0.66729 0.78004 0.0
C2079 C 0.93376 0.6761 0.75247 0.0
C2080 C 0.90257 0.67189 0.79539 0.0
C2081 C 0.90881 0.68976 0.80045 0.0
C2082 C 0.92536 0.68062 0.76958 0.0
C2083 C 0.9236 0.70271 0.78984 0.0
C2084 C 0.94926 0.68905 0.74303 0.0
C2085 C 0.93272 0.6542 0.72924 0.0
N2086 N 0.93137 0.69789 0.77488 0.0
N2087 N 0.92607 0.65912 0.74531 0.0
H2088 H 0.33996 0.26538 0.70355 0.0
H2089 H 0.29812 0.23569 0.81289 0.0
H2090 H 0.30956 0.28837 0.72751 0.0
H2091 H 0.29628 0.19766 0.76848 0.0
H2092 H 0.30522 0.25727 0.78451 0.0
H2093 H 0.32751 0.24246 0.73007 0.0
C2094 C 0.33059 0.26558 0.71431 0.0
C2095 C 0.32569 0.27876 0.71317 0.0
C2096 C 0.30295 0.24409 0.78102 0.0
C2097 C 0.31175 0.25272 0.74395 0.0
C2098 C 0.29898 0.23185 0.79713 0.0
C2099 C 0.29659 0.21492 0.79291 0.0
C2100 C 0.30506 0.23946 0.7608 0.0
C2101 C 0.29789 0.21054 0.7723 0.0
C2102 C 0.32346 0.25244 0.72941 0.0
C2103 C 0.31358 0.27837 0.72775 0.0
N2104 N 0.30234 0.22284 0.75706 0.0
N2105 N 0.30718 0.26567 0.74279 0.0
H2106 H 0.7189 0.0707 0.70923 0.0
H2107 H 0.77623 0.06566 0.80318 0.0
H2108 H 0.70722 0.02129 0.73821 0.0
H2109 H 0.7729 0.1127 0.78962 0.0
H2110 H 0.7525 0.04921 0.77781 0.0
H2111 H 0.74033 0.08671 0.73707 0.0
C2112 C 0.72094 0.06328 0.72148 0.0
C2113 C 0.712 0.04474 0.72109 0.0
C2114 C 0.75695 0.06312 0.78042 0.0
C2115 C 0.73607 0.06276 0.75299 0.0
C2116 C 0.77048 0.07248 0.79482 0.0
C2117 C 0.77643 0.0905 0.79845 0.0
C2118 C 0.74969 0.07199 0.76924 0.0
C2119 C 0.76855 0.09877 0.78733 0.0
C2120 C 0.73307 0.07236 0.73735 0.0
C2121 C 0.71455 0.03562 0.73758 0.0
N2122 N 0.7557 0.08949 0.77306 0.0
N2123 N 0.72656 0.04472 0.75276 0.0
H2124 H 0.02619 0.31528 0.02335 0.0
H2125 H 0.08569 0.33127 0.12324 0.0
H2126 H 0.05626 0.3667 0.0521 0.0
H2127 H 0.08593 0.29785 0.07367 0.0
H2128 H 0.06791 0.33956 0.10141 0.0
H2129 H 0.04176 0.30414 0.04567 0.0
C2130 C 0.03603 0.32417 0.03436 0.0
C2131 C 0.04006 0.34194 0.03587 0.0
C2132 C 0.07181 0.33033 0.09542 0.0
C2133 C 0.05735 0.32925 0.06153 0.0
C2134 C 0.08204 0.32565 0.10779 0.0
C2135 C 0.08775 0.31415 0.10014 0.0
C2136 C 0.06684 0.32319 0.07542 0.0
C2137 C 0.08189 0.30675 0.08026 0.0
C2138 C 0.04487 0.31784 0.04698 0.0
C2139 C 0.05289 0.35296 0.05033 0.0
N2140 N 0.07177 0.31145 0.06852 0.0
N2141 N 0.06097 0.34639 0.06276 0.0
H2142 H 0.68979 0.69816 0.05458 0.0
H2143 H 0.6698 0.77704 0.0713 0.0
H2144 H 0.6569 0.70842 0.01264 0.0
H2145 H 0.7153 0.77727 0.09865 0.0
H2146 H 0.66465 0.75162 0.04991 0.0
H2147 H 0.69943 0.72692 0.0711 0.0
C2148 C 0.68476 0.70655 0.0487 0.0
C2149 C 0.67244 0.70085 0.03231 0.0
C2150 C 0.67588 0.75734 0.06041 0.0
C2151 C 0.6832 0.7336 0.0513 0.0
C2152 C 0.67876 0.77176 0.07268 0.0
C2153 C 0.69293 0.77914 0.08679 0.0
C2154 C 0.68707 0.75004 0.06254 0.0
C2155 C 0.70426 0.77195 0.08788 0.0
C2156 C 0.69028 0.72297 0.05811 0.0
C2157 C 0.66639 0.71227 0.02526 0.0
N2158 N 0.70095 0.75763 0.0761 0.0
N2159 N 0.67165 0.72801 0.03498 0.0
H2160 H 0.29596 0.98935 0.05629 0.0
H2161 H 0.22294 0.89048 0.07977 0.0
H2162 H 0.28969 0.94547 0.01868 0.0
H2163 H 0.21824 0.93537 0.09999 0.0
H2164 H 0.24779 0.91023 0.05784 0.0
H2165 H 0.26783 0.96983 0.07295 0.0
C2166 C 0.28856 0.97562 0.0514 0.0
C2167 C 0.29519 0.96898 0.03616 0.0
C2168 C 0.24121 0.91573 0.0669 0.0
C2169 C 0.26312 0.9465 0.05539 0.0
C2170 C 0.22711 0.9045 0.07949 0.0
C2171 C 0.21863 0.91135 0.09179 0.0
C2172 C 0.24706 0.934 0.06688 0.0
C2173 C 0.22441 0.92957 0.0907 0.0
C2174 C 0.27249 0.9645 0.06088 0.0
C2175 C 0.28503 0.95112 0.03035 0.0
N2176 N 0.23842 0.94031 0.07867 0.0
N2177 N 0.2696 0.94042 0.04019 0.0
H2178 H 0.31861 0.01732 0.96885 0.0
H2179 H 0.32132 0.11019 0.95309 0.0
H2180 H 0.35355 0.06498 0.0027 0.0
H2181 H 0.30203 0.06978 0.90551 0.0
H2182 H 0.32844 0.09149 0.97488 0.0
H2183 H 0.30762 0.03421 0.94895 0.0
C2184 C 0.32382 0.03126 0.97225 0.0
C2185 C 0.3371 0.03979 0.98735 0.0
C2186 C 0.3226 0.0867 0.95969 0.0
C2187 C 0.32455 0.05905 0.96482 0.0
C2188 C 0.31862 0.09741 0.94715 0.0
C2189 C 0.31133 0.09173 0.92722 0.0
C2190 C 0.31914 0.07004 0.95242 0.0
C2191 C 0.30759 0.07473 0.92075 0.0
C2192 C 0.31762 0.04088 0.96083 0.0
C2193 C 0.34344 0.05789 0.99107 0.0
N2194 N 0.31161 0.06451 0.93328 0.0
N2195 N 0.3371 0.06689 0.9799 0.0
H2196 H 0.95285 0.28671 0.00377 0.0
H2197 H 0.93348 0.23295 0.89744 0.0
H2198 H 0.98886 0.3036 0.95221 0.0
H2199 H 0.90085 0.21209 0.95175 0.0
H2200 H 0.9546 0.25827 0.91794 0.0
H2201 H 0.93423 0.25865 0.98575 0.0
C2202 C 0.95693 0.28444 0.98877 0.0
C2203 C 0.97234 0.29756 0.9794 0.0
C2204 C 0.94288 0.2481 0.92543 0.0
C2205 C 0.95107 0.26561 0.95864 0.0
C2206 C 0.93084 0.23356 0.91374 0.0
C2207 C 0.91527 0.2204 0.92281 0.0
C2208 C 0.93931 0.24958 0.94634 0.0
C2209 C 0.91248 0.22209 0.94396 0.0
C2210 C 0.94629 0.26844 0.97848 0.0
C2211 C 0.97703 0.29391 0.95997 0.0
N2212 N 0.92432 0.23647 0.95496 0.0
N2213 N 0.96636 0.27836 0.95016 0.0
H2214 H 0.69869 0.68044 0.9764 0.0
H2215 H 0.7617 0.65208 0.91783 0.0
H2216 H 0.69134 0.62735 0.97596 0.0
H2217 H 0.77457 0.70666 0.92513 0.0
H2218 H 0.73464 0.64282 0.93706 0.0
H2219 H 0.72539 0.69034 0.9557 0.0
C2220 C 0.70264 0.67086 0.97196 0.0
C2221 C 0.69271 0.65301 0.97799 0.0
C2222 C 0.74335 0.65684 0.93449 0.0
C2223 C 0.72318 0.66427 0.95427 0.0
C2224 C 0.75888 0.66215 0.92358 0.0
C2225 C 0.77055 0.6802 0.92007 0.0
C2226 C 0.73934 0.66964 0.94196 0.0
C2227 C 0.76592 0.6926 0.92741 0.0
C2228 C 0.71789 0.67654 0.96016 0.0
C2229 C 0.69852 0.64123 0.97177 0.0
N2230 N 0.75069 0.6871 0.9381 0.0
N2231 N 0.71332 0.64707 0.96027 0.0
H2232 H 0.95799 0.6705 0.00519 0.0
H2233 H 0.93604 0.70649 0.90118 0.0
H2234 H 0.99261 0.68972 0.95237 0.0
H2235 H 0.90451 0.69397 0.95655 0.0
H2236 H 0.95771 0.70197 0.92048 0.0
H2237 H 0.93892 0.68034 0.98849 0.0
C2238 C 0.96166 0.67693 0.99018 0.0
C2239 C 0.97683 0.67917 0.98008 0.0
C2240 C 0.94612 0.70034 0.92848 0.0
C2241 C 0.95505 0.69035 0.96084 0.0
C2242 C 0.93377 0.70304 0.91748 0.0
C2243 C 0.91833 0.7005 0.92718 0.0
C2244 C 0.943 0.69493 0.94934 0.0
C2245 C 0.91603 0.69574 0.94829 0.0
C2246 C 0.95078 0.68255 0.98065 0.0
C2247 C 0.98099 0.68763 0.96067 0.0
N2248 N 0.92815 0.69297 0.95861 0.0
N2249 N 0.97009 0.69277 0.95162 0.0
H2250 H 0.36406 0.30087 0.99336 0.0
H2251 H 0.30257 0.23996 0.90195 0.0
H2252 H 0.32283 0.30909 0.96709 0.0
H2253 H 0.32706 0.2221 0.94756 0.0
H2254 H 0.31145 0.26669 0.9229 0.0
H2255 H 0.3529 0.27357 0.97335 0.0
C2256 C 0.35268 0.29698 0.98333 0.0
C2257 C 0.34437 0.30731 0.98191 0.0
C2258 C 0.31478 0.25683 0.92828 0.0
C2259 C 0.33156 0.276 0.95885 0.0
C2260 C 0.30965 0.24153 0.9164 0.0
C2261 C 0.31426 0.22879 0.9228 0.0
C2262 C 0.32475 0.2595 0.94651 0.0
C2263 C 0.32362 0.23171 0.94162 0.0
C2264 C 0.34626 0.28131 0.972 0.0
C2265 C 0.3296 0.30148 0.96871 0.0
N2266 N 0.32868 0.24679 0.95265 0.0
N2267 N 0.32372 0.28625 0.95754 0.0
H2268 H 0.71376 0.04713 0.00604 0.0
H2269 H 0.7654 0.06545 0.89911 0.0
H2270 H 0.69625 0.01028 0.95469 0.0
H2271 H 0.78737 0.09866 0.95333 0.0
H2272 H 0.74055 0.04452 0.91987 0.0
H2273 H 0.74141 0.06565 0.98777 0.0
C2274 C 0.71581 0.04284 0.99105 0.0
C2275 C 0.70263 0.02722 0.9818 0.0
C2276 C 0.75087 0.05633 0.92728 0.0
C2277 C 0.7341 0.04839 0.96075 0.0
C2278 C 0.76514 0.06826 0.91544 0.0
C2279 C 0.7785 0.08393 0.92442 0.0
C2280 C 0.74982 0.06009 0.94826 0.0
C2281 C 0.77722 0.08694 0.94562 0.0
C2282 C 0.73158 0.05342 0.98061 0.0
C2283 C 0.706 0.02227 0.96236 0.0
N2284 N 0.76308 0.0752 0.95678 0.0
N2285 N 0.72132 0.0329 0.95241 0.0
H2286 H 0.68471 0.98093 0.0404 0.0
H2287 H 0.65991 0.88746 0.0917 0.0
H2288 H 0.63435 0.93327 0.03302 0.0
H2289 H 0.71237 0.93253 0.09496 0.0
H2290 H 0.65073 0.90442 0.06975 0.0
H2291 H 0.69554 0.96383 0.0599 0.0
C2292 C 0.67594 0.9669 0.04279 0.0
C2293 C 0.65852 0.95859 0.03515 0.0
C2294 C 0.66428 0.91066 0.07517 0.0
C2295 C 0.67086 0.939 0.05744 0.0
C2296 C 0.66949 0.90099 0.08781 0.0
C2297 C 0.68686 0.90869 0.09535 0.0
C2298 C 0.67647 0.92825 0.07003 0.0
C2299 C 0.69884 0.92614 0.08945 0.0
C2300 C 0.68216 0.95715 0.05391 0.0
C2301 C 0.64782 0.94034 0.03868 0.0
N2302 N 0.69339 0.93542 0.07724 0.0
N2303 N 0.65414 0.93123 0.04962 0.0
H2304 H 0.06265 0.69409 0.05001 0.0
H2305 H 0.08652 0.79197 0.07469 0.0
H2306 H 0.03065 0.71466 0.02352 0.0
H2307 H 0.08719 0.75715 0.12255 0.0
H2308 H 0.06981 0.76611 0.05224 0.0
H2309 H 0.07678 0.71997 0.07287 0.0
C2310 C 0.05872 0.70415 0.04888 0.0
C2311 C 0.04548 0.70228 0.03489 0.0
C2312 C 0.07359 0.76426 0.06773 0.0
C2313 C 0.06166 0.73187 0.06081 0.0
C2314 C 0.08303 0.77896 0.08065 0.0
C2315 C 0.08857 0.77687 0.10056 0.0
C2316 C 0.07003 0.74747 0.0746 0.0
C2317 C 0.08378 0.7596 0.10715 0.0
C2318 C 0.06667 0.7188 0.06202 0.0
C2319 C 0.04076 0.71562 0.03419 0.0
N2320 N 0.07504 0.74563 0.0941 0.0
N2321 N 0.04899 0.73001 0.04688 0.0
H2322 H 0.29866 0.31063 0.05419 0.0
H2323 H 0.22569 0.33708 0.07875 0.0
H2324 H 0.29218 0.34879 0.0174 0.0
H2325 H 0.22129 0.28762 0.09915 0.0
H2326 H 0.25035 0.34195 0.05656 0.0
H2327 H 0.27053 0.30201 0.07103 0.0
C2328 C 0.2912 0.31705 0.04948 0.0
C2329 C 0.29779 0.33051 0.03445 0.0
C2330 C 0.24389 0.32994 0.06572 0.0
C2331 C 0.26574 0.32092 0.05391 0.0
C2332 C 0.2299 0.32722 0.07847 0.0
C2333 C 0.22155 0.31199 0.09089 0.0
C2334 C 0.24978 0.3175 0.06564 0.0
C2335 C 0.22737 0.29952 0.08978 0.0
C2336 C 0.27513 0.3121 0.05908 0.0
C2337 C 0.28756 0.33834 0.0289 0.0
N2338 N 0.24128 0.30265 0.07758 0.0
N2339 N 0.27216 0.33361 0.03885 0.0
H2340 H 0.72786 0.7055 0.37645 0.0
H2341 H 0.73258 0.62246 0.42354 0.0
H2342 H 0.68364 0.65221 0.37443 0.0
H2343 H 0.77283 0.67703 0.43218 0.0
H2344 H 0.71414 0.63261 0.40568 0.0
H2345 H 0.7444 0.69484 0.39673 0.0
C2346 C 0.72158 0.69153 0.38029 0.0
C2347 C 0.70432 0.67974 0.37364 0.0
C2348 C 0.72699 0.64233 0.41156 0.0
C2349 C 0.72332 0.66739 0.39695 0.0
C2350 C 0.73748 0.63655 0.4218 0.0
C2351 C 0.75436 0.64891 0.4291 0.0
C2352 C 0.73347 0.66058 0.40865 0.0
C2353 C 0.76009 0.66701 0.42637 0.0
C2354 C 0.73105 0.68545 0.39195 0.0
C2355 C 0.69691 0.6618 0.37923 0.0
N2356 N 0.74971 0.67227 0.41629 0.0
N2357 N 0.7065 0.65614 0.39049 0.0
H2358 H 0.33196 0.04353 0.3463 0.0
H2359 H 0.35233 0.09301 0.45509 0.0
H2360 H 0.34608 0.0249 0.40164 0.0
H2361 H 0.35692 0.12045 0.39748 0.0
H2362 H 0.34859 0.06729 0.43548 0.0
H2363 H 0.33999 0.0715 0.36426 0.0
C2364 C 0.3369 0.04539 0.36212 0.0
C2365 C 0.33824 0.03184 0.37254 0.0
C2366 C 0.35054 0.07896 0.42708 0.0
C2367 C 0.3472 0.06355 0.39314 0.0
C2368 C 0.35257 0.09358 0.43827 0.0
C2369 C 0.35484 0.10877 0.42784 0.0
C2370 C 0.3505 0.07941 0.40526 0.0
C2371 C 0.35525 0.10895 0.40604 0.0
C2372 C 0.34149 0.06133 0.37233 0.0
C2373 C 0.34475 0.03494 0.39302 0.0
N2374 N 0.3529 0.09438 0.39542 0.0
N2375 N 0.3488 0.05037 0.4027 0.0
H2376 H 0.95643 0.27738 0.34642 0.0
H2377 H 0.88326 0.26745 0.42804 0.0
H2378 H 0.96169 0.32036 0.38504 0.0
H2379 H 0.8894 0.22342 0.40775 0.0
H2380 H 0.90839 0.28732 0.40643 0.0
H2381 H 0.92807 0.25775 0.36292 0.0
C2382 C 0.95149 0.28274 0.35814 0.0
C2383 C 0.96146 0.30047 0.3645 0.0
C2384 C 0.90414 0.27329 0.40661 0.0
C2385 C 0.92913 0.27818 0.38331 0.0
C2386 C 0.88978 0.26196 0.41883 0.0
C2387 C 0.88438 0.24383 0.41977 0.0
C2388 C 0.91297 0.26637 0.39504 0.0
C2389 C 0.89332 0.23738 0.40764 0.0
C2390 C 0.93539 0.27153 0.36761 0.0
C2391 C 0.95449 0.30673 0.3798 0.0
N2392 N 0.90719 0.24864 0.39578 0.0
N2393 N 0.93877 0.29559 0.38871 0.0
H2394 H 0.98752 0.34928 0.29576 0.0
H2395 H 0.98089 0.43747 0.28278 0.0
H2396 H 0.0181 0.39602 0.33316 0.0
H2397 H 0.97475 0.40348 0.23091 0.0
H2398 H 0.98793 0.41877 0.30523 0.0
H2399 H 0.97622 0.36567 0.27546 0.0
C2400 C 0.99169 0.3629 0.29985 0.0
C2401 C 0.00385 0.37135 0.31607 0.0
C2402 C 0.98488 0.41535 0.28897 0.0
C2403 C 0.99083 0.38998 0.29317 0.0
C2404 C 0.98076 0.4259 0.27623 0.0
C2405 C 0.97731 0.42198 0.25502 0.0
C2406 C 0.98521 0.40061 0.28048 0.0
C2407 C 0.97746 0.40696 0.2472 0.0
C2408 C 0.98531 0.37223 0.28822 0.0
C2409 C 0.00887 0.38906 0.32065 0.0
N2410 N 0.98133 0.39677 0.25994 0.0
N2411 N 0.0023 0.39777 0.30929 0.0
H2412 H 0.65585 0.63213 0.30167 0.0
H2413 H 0.55759 0.56085 0.27435 0.0
H2414 H 0.61174 0.62634 0.3376 0.0
H2415 H 0.60167 0.55471 0.25549 0.0
H2416 H 0.57725 0.5851 0.29741 0.0
H2417 H 0.6365 0.60381 0.28464 0.0
C2418 C 0.64213 0.62476 0.30618 0.0
C2419 C 0.63533 0.63162 0.32094 0.0
C2420 C 0.5826 0.57834 0.28841 0.0
C2421 C 0.6131 0.59943 0.30128 0.0
C2422 C 0.57143 0.56461 0.27515 0.0
C2423 C 0.5781 0.55593 0.26292 0.0
C2424 C 0.60064 0.58363 0.28915 0.0
C2425 C 0.59605 0.56111 0.2647 0.0
C2426 C 0.63111 0.6086 0.29648 0.0
C2427 C 0.6175 0.62152 0.32628 0.0
N2428 N 0.60678 0.57481 0.27738 0.0
N2429 N 0.60692 0.60604 0.3162 0.0
H2430 H 0.36284 0.00811 0.30442 0.0
H2431 H 0.44936 0.00035 0.2863 0.0
H2432 H 0.37365 0.97064 0.33659 0.0
H2433 H 0.4278 0.0201 0.23919 0.0
H2434 H 0.42479 0.99469 0.30882 0.0
H2435 H 0.38993 0.018 0.2844 0.0
C2436 C 0.37102 0.00214 0.30746 0.0
C2437 C 0.36594 0.98845 0.32209 0.0
C2438 C 0.4255 0.00033 0.29358 0.0
C2439 C 0.39685 0.99974 0.2994 0.0
C2440 C 0.43946 0.00347 0.28062 0.0
C2441 C 0.44053 0.01043 0.2606 0.0
C2442 C 0.41257 0.00436 0.28664 0.0
C2443 C 0.42758 0.01477 0.25448 0.0
C2444 C 0.38639 0.00771 0.29596 0.0
C2445 C 0.37698 0.98111 0.32533 0.0
N2446 N 0.41408 0.01159 0.26743 0.0
N2447 N 0.39191 0.98685 0.31408 0.0
H2448 H 0.65654 0.01325 0.28786 0.0
H2449 H 0.56138 0.00608 0.28486 0.0
H2450 H 0.61865 0.98981 0.33714 0.0
H2451 H 0.59699 0.02283 0.2329 0.0
H2452 H 0.5832 0.00279 0.30567 0.0
H2453 H 0.63608 0.02003 0.26924 0.0
C2454 C 0.64396 0.00965 0.29486 0.0
C2455 C 0.63924 0.00084 0.31403 0.0
C2456 C 0.58626 0.00725 0.28974 0.0
C2457 C 0.61566 0.00847 0.29268 0.0
C2458 C 0.57376 0.00904 0.27779 0.0
C2459 C 0.57728 0.01463 0.25701 0.0
C2460 C 0.60243 0.01112 0.28089 0.0
C2461 C 0.59373 0.01864 0.24888 0.0
C2462 C 0.63225 0.01349 0.28418 0.0
C2463 C 0.62279 0.99656 0.32237 0.0
N2464 N 0.60565 0.01674 0.2608 0.0
N2465 N 0.61153 0.00033 0.31158 0.0
H2466 H 0.039 0.6359 0.32271 0.0
H2467 H 0.96159 0.55765 0.25673 0.0
H2468 H 0.98772 0.63139 0.31384 0.0
H2469 H 0.01507 0.5672 0.26017 0.0
H2470 H 0.96989 0.58304 0.27988 0.0
H2471 H 0.0294 0.60917 0.30214 0.0
C2472 C 0.02568 0.62929 0.31651 0.0
C2473 C 0.01421 0.63606 0.31996 0.0
C2474 C 0.97979 0.57955 0.27557 0.0
C2475 C 0.00309 0.60525 0.29622 0.0
C2476 C 0.97504 0.56502 0.26245 0.0
C2477 C 0.98769 0.56039 0.25638 0.0
C2478 C 0.99727 0.58941 0.28279 0.0
C2479 C 0.00495 0.57047 0.26415 0.0
C2480 C 0.02021 0.61399 0.3047 0.0
C2481 C 0.99706 0.62674 0.31154 0.0
N2482 N 0.00922 0.58447 0.2769 0.0
N2483 N 0.99204 0.61185 0.30001 0.0
H2484 H 0.37069 0.34897 0.30014 0.0
H2485 H 0.44283 0.44779 0.27632 0.0
H2486 H 0.37665 0.39275 0.33775 0.0
H2487 H 0.44835 0.4032 0.25683 0.0
H2488 H 0.41822 0.42799 0.2985 0.0
H2489 H 0.39889 0.36856 0.28372 0.0
C2490 C 0.37804 0.36269 0.30508 0.0
C2491 C 0.37131 0.36931 0.3202 0.0
C2492 C 0.42494 0.42257 0.28955 0.0
C2493 C 0.40342 0.39183 0.30129 0.0
C2494 C 0.43888 0.43382 0.27683 0.0
C2495 C 0.44749 0.42704 0.26467 0.0
C2496 C 0.41939 0.40438 0.28982 0.0
C2497 C 0.44204 0.40892 0.26601 0.0
C2498 C 0.39415 0.37384 0.29575 0.0
C2499 C 0.3814 0.38714 0.32613 0.0
N2500 N 0.42816 0.39815 0.27816 0.0
N2501 N 0.39686 0.39788 0.31642 0.0
H2502 H 0.34692 0.32074 0.38807 0.0
H2503 H 0.35504 0.23311 0.39636 0.0
H2504 H 0.31668 0.27475 0.3494 0.0
H2505 H 0.35998 0.26518 0.44976 0.0
H2506 H 0.34849 0.25261 0.37471 0.0
H2507 H 0.35918 0.30444 0.40676 0.0
C2508 C 0.34304 0.30731 0.38336 0.0
C2509 C 0.33066 0.299 0.36731 0.0
C2510 C 0.35124 0.25547 0.39112 0.0
C2511 C 0.34477 0.28054 0.3883 0.0
C2512 C 0.35506 0.24446 0.40339 0.0
C2513 C 0.35793 0.24759 0.42478 0.0
C2514 C 0.35062 0.26982 0.40032 0.0
C2515 C 0.3577 0.26235 0.43329 0.0
C2516 C 0.34998 0.29805 0.39405 0.0
C2517 C 0.32603 0.28157 0.36184 0.0
N2518 N 0.35408 0.27296 0.42102 0.0
N2519 N 0.33312 0.27291 0.37231 0.0
H2520 H 0.73327 0.04209 0.35365 0.0
H2521 H 0.73307 0.09578 0.45141 0.0
H2522 H 0.68488 0.02706 0.38632 0.0
H2523 H 0.76707 0.12182 0.39951 0.0
H2524 H 0.71604 0.06936 0.42968 0.0
H2525 H 0.74717 0.07042 0.37217 0.0
C2526 C 0.72556 0.04478 0.36467 0.0
C2527 C 0.70791 0.0322 0.36851 0.0
C2528 C 0.72707 0.08096 0.42299 0.0
C2529 C 0.7238 0.06444 0.3899 0.0
C2530 C 0.73676 0.09596 0.43534 0.0
C2531 C 0.75139 0.1109 0.42713 0.0
C2532 C 0.7324 0.08081 0.40252 0.0
C2533 C 0.75576 0.11055 0.4063 0.0
C2534 C 0.73346 0.06097 0.37512 0.0
C2535 C 0.6985 0.03642 0.38288 0.0
N2536 N 0.74647 0.09561 0.39477 0.0
N2537 N 0.70665 0.05211 0.39331 0.0
H2538 H 0.9558 0.66779 0.34569 0.0
H2539 H 0.9006 0.63247 0.4503 0.0
H2540 H 0.97247 0.64874 0.39853 0.0
H2541 H 0.87965 0.64347 0.39462 0.0
H2542 H 0.92662 0.63756 0.43102 0.0
H2543 H 0.92744 0.65822 0.36266 0.0
C2544 C 0.95343 0.66143 0.36074 0.0
C2545 C 0.96656 0.65916 0.37076 0.0
C2546 C 0.91628 0.63875 0.42295 0.0
C2547 C 0.93426 0.64834 0.39033 0.0
C2548 C 0.90133 0.63573 0.43395 0.0
C2549 C 0.88786 0.63759 0.42414 0.0
C2550 C 0.91793 0.64381 0.40197 0.0
C2551 C 0.8898 0.6422 0.40297 0.0
C2552 C 0.93725 0.65599 0.37043 0.0
C2553 C 0.96278 0.65084 0.39026 0.0
N2554 N 0.90459 0.64525 0.39264 0.0
N2555 N 0.94706 0.64588 0.39945 0.0
H2556 H 0.39683 0.04082 0.70468 0.0
H2557 H 0.40198 0.96272 0.76548 0.0
H2558 H 0.35188 0.98835 0.71113 0.0
H2559 H 0.44468 0.01658 0.76138 0.0
H2560 H 0.38363 0.97094 0.74405 0.0
H2561 H 0.41469 0.0313 0.72407 0.0
C2562 C 0.39066 0.02727 0.71018 0.0
C2563 C 0.37274 0.01541 0.70631 0.0
C2564 C 0.39702 0.98092 0.74785 0.0
C2565 C 0.39332 0.00436 0.72866 0.0
C2566 C 0.40751 0.97622 0.75997 0.0
C2567 C 0.4248 0.98904 0.76536 0.0
C2568 C 0.40398 0.99851 0.74102 0.0
C2569 C 0.43131 0.00636 0.75792 0.0
C2570 C 0.40093 0.02182 0.72128 0.0
C2571 C 0.36562 0.99798 0.71379 0.0
N2572 N 0.4209 0.01057 0.74618 0.0
N2573 N 0.37593 0.99298 0.72466 0.0
H2574 H 0.99419 0.37385 0.67727 0.0
H2575 H 0.01119 0.42224 0.7868 0.0
H2576 H 0.00748 0.35508 0.7331 0.0
H2577 H 0.01471 0.44921 0.72911 0.0
H2578 H 0.00829 0.39681 0.76722 0.0
H2579 H 0.00053 0.40115 0.69564 0.0
C2580 C 0.99859 0.37554 0.69331 0.0
C2581 C 0.00024 0.36215 0.7037 0.0
C2582 C 0.0098 0.40832 0.75881 0.0
C2583 C 0.00726 0.39315 0.72482 0.0
C2584 C 0.01133 0.42277 0.76998 0.0
C2585 C 0.01311 0.43778 0.75954 0.0
C2586 C 0.00979 0.40874 0.737 0.0
C2587 C 0.01344 0.43789 0.73773 0.0
C2588 C 0.00221 0.39111 0.70377 0.0
C2589 C 0.006 0.36503 0.72448 0.0
N2590 N 0.01163 0.42351 0.72715 0.0
N2591 N 0.00913 0.38012 0.7344 0.0
H2592 H 0.63851 0.65155 0.72845 0.0
H2593 H 0.54808 0.5592 0.72976 0.0
H2594 H 0.6235 0.61234 0.67994 0.0
H2595 H 0.56766 0.59601 0.78116 0.0
H2596 H 0.57411 0.57936 0.70978 0.0
H2597 H 0.61094 0.63247 0.74612 0.0
C2598 C 0.62935 0.63895 0.72142 0.0
C2599 C 0.63338 0.63349 0.70272 0.0
C2600 C 0.57265 0.58303 0.7254 0.0
C2601 C 0.60169 0.61145 0.72304 0.0
C2602 C 0.55784 0.57149 0.73689 0.0
C2603 C 0.55565 0.57584 0.75727 0.0
C2604 C 0.58538 0.5991 0.73431 0.0
C2605 C 0.5686 0.59213 0.76547 0.0
C2606 C 0.6136 0.62802 0.73157 0.0
C2607 C 0.62094 0.61705 0.69434 0.0
N2608 N 0.58289 0.60311 0.754 0.0
N2609 N 0.60567 0.60655 0.70462 0.0
H2610 H 0.68901 0.7278 0.66588 0.0
H2611 H 0.63349 0.73162 0.57057 0.0
H2612 H 0.65424 0.68022 0.63183 0.0
H2613 H 0.64718 0.76684 0.62328 0.0
H2614 H 0.64217 0.71302 0.59071 0.0
H2615 H 0.67572 0.74327 0.64807 0.0
C2616 C 0.67854 0.72058 0.65467 0.0
C2617 C 0.67274 0.70269 0.65031 0.0
C2618 C 0.64309 0.72475 0.59785 0.0
C2619 C 0.65759 0.72043 0.62967 0.0
C2620 C 0.63807 0.73535 0.58642 0.0
C2621 C 0.63987 0.75104 0.59508 0.0
C2622 C 0.65017 0.73002 0.61792 0.0
C2623 C 0.64605 0.7552 0.61567 0.0
C2624 C 0.6709 0.72941 0.64459 0.0
C2625 C 0.65905 0.694 0.63569 0.0
N2626 N 0.65119 0.74491 0.62625 0.0
N2627 N 0.65206 0.70303 0.62566 0.0
H2628 H 0.32298 0.97395 0.62329 0.0
H2629 H 0.23679 0.87811 0.62341 0.0
H2630 H 0.28669 0.95446 0.67456 0.0
H2631 H 0.26387 0.90589 0.56798 0.0
H2632 H 0.25856 0.90304 0.64443 0.0
H2633 H 0.30508 0.94593 0.60515 0.0
C2634 C 0.31137 0.96369 0.63088 0.0
C2635 C 0.3062 0.96663 0.65038 0.0
C2636 C 0.25981 0.90356 0.62768 0.0
C2637 C 0.28563 0.93452 0.62962 0.0
C2638 C 0.24748 0.88934 0.61572 0.0
C2639 C 0.24851 0.89006 0.59397 0.0
C2640 C 0.27335 0.91845 0.61777 0.0
C2641 C 0.26252 0.90494 0.58472 0.0
C2642 C 0.30113 0.94772 0.62046 0.0
C2643 C 0.29107 0.9528 0.65947 0.0
N2644 N 0.27437 0.91856 0.59666 0.0
N2645 N 0.28122 0.93736 0.64894 0.0
H2646 H 0.04116 0.34688 0.6604 0.0
H2647 H 0.08594 0.3314 0.56194 0.0
H2648 H 0.02071 0.29601 0.63032 0.0
H2649 H 0.1183 0.36466 0.61236 0.0
H2650 H 0.05982 0.32304 0.5828 0.0
H2651 H 0.06786 0.35818 0.63889 0.0
C2652 C 0.04228 0.33815 0.64925 0.0
C2653 C 0.02883 0.32047 0.64719 0.0
C2654 C 0.07267 0.33224 0.5892 0.0
C2655 C 0.05881 0.33333 0.62246 0.0
C2656 C 0.08763 0.33694 0.57739 0.0
C2657 C 0.1045 0.34848 0.58551 0.0
C2658 C 0.07443 0.33937 0.60914 0.0
C2659 C 0.10564 0.35576 0.60537 0.0
C2660 C 0.05746 0.34457 0.6371 0.0
C2661 C 0.03086 0.30967 0.63255 0.0
N2662 N 0.09079 0.35105 0.61656 0.0
N2663 N 0.0455 0.31631 0.62063 0.0
H2664 H 0.32393 0.35474 0.62168 0.0
H2665 H 0.23555 0.36146 0.62096 0.0
H2666 H 0.28587 0.33363 0.67109 0.0
H2667 H 0.26436 0.36339 0.56599 0.0
H2668 H 0.25718 0.35774 0.64216 0.0
H2669 H 0.30559 0.36483 0.604 0.0
C2670 C 0.31183 0.35243 0.62897 0.0
C2671 C 0.30632 0.34313 0.64778 0.0
C2672 C 0.25881 0.35915 0.62548 0.0
C2673 C 0.28523 0.35464 0.62754 0.0
C2674 C 0.24658 0.36135 0.61344 0.0
C2675 C 0.24818 0.36259 0.59175 0.0
C2676 C 0.27284 0.35849 0.61572 0.0
C2677 C 0.26259 0.36229 0.58267 0.0
C2678 C 0.30133 0.35814 0.61881 0.0
C2679 C 0.29054 0.34062 0.65652 0.0
N2680 N 0.27436 0.36025 0.59469 0.0
N2681 N 0.28045 0.34623 0.64624 0.0
H2682 H 0.64722 0.96709 0.64579 0.0
H2683 H 0.67401 0.9011 0.59072 0.0
H2684 H 0.69908 0.97208 0.64799 0.0
H2685 H 0.61981 0.88896 0.59561 0.0
H2686 H 0.68323 0.9285 0.60961 0.0
H2687 H 0.63666 0.9396 0.62563 0.0
C2688 C 0.65637 0.96246 0.64208 0.0
C2689 C 0.67409 0.97198 0.64865 0.0
C2690 C 0.66929 0.91988 0.60664 0.0
C2691 C 0.66212 0.9407 0.62556 0.0
C2692 C 0.664 0.90414 0.59591 0.0
C2693 C 0.64608 0.89254 0.59186 0.0
C2694 C 0.65661 0.92424 0.6134 0.0
C2695 C 0.63377 0.89752 0.59842 0.0
C2696 C 0.65033 0.94678 0.63059 0.0
C2697 C 0.68532 0.9653 0.64337 0.0
N2698 N 0.63926 0.913 0.60898 0.0
N2699 N 0.67916 0.95017 0.63216 0.0
H2700 H 0.03681 0.72212 0.67267 0.0
H2701 H 0.11039 0.73698 0.58931 0.0
H2702 H 0.03161 0.68126 0.63033 0.0
H2703 H 0.1034 0.77938 0.61377 0.0
H2704 H 0.08525 0.71573 0.61 0.0
H2705 H 0.06519 0.74256 0.65697 0.0
C2706 C 0.04176 0.71737 0.66028 0.0
C2707 C 0.03179 0.70003 0.65265 0.0
C2708 C 0.08933 0.7297 0.61093 0.0
C2709 C 0.06418 0.72329 0.63471 0.0
C2710 C 0.10367 0.7418 0.59924 0.0
C2711 C 0.10883 0.75989 0.59978 0.0
C2712 C 0.08029 0.73581 0.62344 0.0
C2713 C 0.09967 0.7655 0.61277 0.0
C2714 C 0.05789 0.72906 0.65127 0.0
C2715 C 0.03882 0.69458 0.63655 0.0
N2716 N 0.08583 0.75349 0.6241 0.0
N2717 N 0.05457 0.7062 0.62805 0.0
H2718 H 0.97299 0.6042 0.68229 0.0
H2719 H 0.01592 0.59387 0.78543 0.0
H2720 H 0.0043 0.64965 0.7213 0.0
H2721 H 0.01039 0.56256 0.73106 0.0
H2722 H 0.00956 0.61359 0.76394 0.0
H2723 H 0.9842 0.58748 0.70165 0.0
C2724 C 0.98228 0.61068 0.69489 0.0
C2725 C 0.98771 0.62832 0.70024 0.0
C2726 C 0.00997 0.60253 0.75671 0.0
C2727 C 0.00036 0.60917 0.72261 0.0
C2728 C 0.0135 0.59128 0.76893 0.0
C2729 C 0.01363 0.57662 0.75992 0.0
C2730 C 0.00612 0.59878 0.7355 0.0
C2731 C 0.01049 0.57379 0.73851 0.0
C2732 C 0.98874 0.60116 0.70584 0.0
C2733 C -0.00016 0.63609 0.71666 0.0
N2734 N 0.00659 0.58463 0.72705 0.0
N2735 N 0.00559 0.62636 0.72751 0.0
H2736 H 0.39237 0.35209 0.71485 0.0
H2737 H 0.40211 0.44283 0.75808 0.0
H2738 H 0.35246 0.36735 0.70551 0.0
H2739 H 0.43747 0.42297 0.77397 0.0
H2740 H 0.38331 0.4152 0.73929 0.0
H2741 H 0.40883 0.37804 0.7368 0.0
C2742 C 0.38701 0.36086 0.71745 0.0
C2743 C 0.37101 0.35752 0.70821 0.0
C2744 C 0.39515 0.41688 0.74699 0.0
C2745 C 0.38992 0.38742 0.73338 0.0
C2746 C 0.40584 0.43261 0.75778 0.0
C2747 C 0.4215 0.43531 0.76741 0.0
C2748 C 0.40019 0.4038 0.7458 0.0
C2749 C 0.42574 0.42165 0.76639 0.0
C2750 C 0.39643 0.37568 0.73005 0.0
C2751 C 0.36474 0.36937 0.71229 0.0
N2752 N 0.41522 0.40656 0.75569 0.0
N2753 N 0.37427 0.38386 0.72447 0.0
H2754 H 0.62482 0.01688 0.68316 0.0
H2755 H 0.55423 0.95781 0.769 0.0
H2756 H 0.63177 0.98086 0.72349 0.0
H2757 H 0.56054 0.00766 0.74704 0.0
H2758 H 0.57902 0.96212 0.74717 0.0
H2759 H 0.59735 0.00944 0.70113 0.0
C2760 C 0.62044 0.00721 0.69558 0.0
C2761 C 0.63063 0.99954 0.70193 0.0
C2762 C 0.5749 0.97205 0.74707 0.0
C2763 C 0.59927 0.99099 0.72248 0.0
C2764 C 0.56074 0.96956 0.75942 0.0
C2765 C 0.55545 0.98245 0.75988 0.0
C2766 C 0.58359 0.98739 0.73484 0.0
C2767 C 0.56436 0.9975 0.74728 0.0
C2768 C 0.60484 0.00307 0.7059 0.0
C2769 C 0.62437 0.98716 0.71819 0.0
N2770 N 0.57798 0.99955 0.73524 0.0
N2771 N 0.60909 0.98327 0.72793 0.0
loop_
_geom_bond_atom_site_label_1
_geom_bond_atom_site_label_2
_geom_bond_distance
_geom_bond_site_symmetry_2
_ccdc_geom_bond_type
Mn0 O5 2.095 1_655 S
Mn0 O15 2.162 . S
Mn0 O16 2.297 1_554 S
Mn0 O24 2.385 1_554 S
Mn0 O25 2.209 1_654 S
Mn0 O26 2.094 . S
Mn1 O6 2.121 . S
Mn1 N8 2.257 1_554 S
Mn1 N17 2.282 . S
Mn1 O25 2.215 1_554 S
Mn1 O27 2.117 . S
C2 O24 1.234 1_455 S
C2 O25 1.283 . S
C3 O15 1.281 1_556 S
C3 O16 1.236 . S
C4 O26 1.262 . S
C4 O27 1.211 1_655 S
O5 Mn0 2.095 1_455 S
O5 C14 1.250 . S
O6 Mn1 2.121 . S
O6 C14 1.258 . S
C7 N8 1.326 . S
C7 C11 1.460 . S
C7 H13 0.929 . S
N8 Mn1 2.257 1_556 S
N8 C7 1.326 . S
N8 C12 1.362 . S
C9 C10 1.258 . S
C9 C12 1.431 . S
C9 C29 1.449 . S
C10 C9 1.258 . S
C10 C11 1.477 . S
C10 H30 0.931 . S
C11 C7 1.460 . S
C11 C10 1.477 . S
C11 H31 0.930 . S
C12 N8 1.362 . S
C12 C9 1.431 . S
C12 C22 1.476 . S
H13 C7 0.929 . S
C14 O5 1.250 . S
C14 O6 1.258 . S
O15 Mn0 2.162 . S
O15 C3 1.281 1_554 S
O16 Mn0 2.297 1_556 S
O16 C3 1.236 . S
N17 Mn1 2.282 . S
N17 C18 1.328 . S
N17 C22 1.318 1_554 S
C18 N17 1.328 . S
C18 C19 1.457 1_554 S
C18 H23 0.929 . S
C19 C18 1.457 1_556 S
C19 C20 1.291 . S
C19 H32 0.934 . S
C20 C19 1.291 . S
C20 C21 1.373 . S
C20 H33 0.929 . S
C21 C20 1.373 . S
C21 C22 1.396 . S
C21 C28 1.403 . S
C22 C12 1.476 . S
C22 N17 1.318 1_556 S
C22 C21 1.396 . S
H23 C18 0.929 . S
O24 Mn0 2.385 1_556 S
O24 C2 1.234 1_655 S
O25 Mn0 2.209 1_456 S
O25 Mn1 2.215 1_556 S
O25 C2 1.283 . S
O26 Mn0 2.094 . S
O26 C4 1.262 . S
O27 Mn1 2.117 . S
O27 C4 1.211 1_455 S
C28 C21 1.403 . S
C28 C29 1.399 . S
C28 H34 0.929 . S
C29 C9 1.449 . S
C29 C28 1.399 . S
C29 H35 0.930 . S
H30 C10 0.931 . S
H31 C11 0.930 . S
H32 C19 0.934 . S
H33 C20 0.929 . S
H34 C28 0.929 . S
H35 C29 0.930 . S
Mn36 O41 2.095 1_554 S
Mn36 O51 2.162 . S
Mn36 O52 2.297 . S
Mn36 O60 2.385 . S
Mn36 O61 2.209 . S
Mn36 O62 2.094 1_554 S
Mn37 O42 2.121 . S
Mn37 N44 2.257 1_556 S
Mn37 N53 2.282 1_556 S
Mn37 O61 2.215 1_556 S
Mn37 O63 2.117 . S
C38 O60 1.234 . S
C38 O61 1.283 . S
C39 O51 1.281 . S
C39 O52 1.236 . S
C40 O62 1.240 . S
C40 O63 1.264 . S
O41 Mn36 2.095 1_556 S
O41 C50 1.250 . S
O42 Mn37 2.121 . S
O42 C50 1.258 . S
C43 N44 1.326 . S
C43 C47 1.460 . S
C43 H49 0.929 . S
N44 Mn37 2.257 1_554 S
N44 C43 1.326 . S
N44 C48 1.362 . S
C45 C46 1.258 . S
C45 C48 1.431 . S
C45 C65 1.449 . S
C46 C45 1.258 . S
C46 C47 1.477 . S
C46 H66 0.931 . S
C47 C43 1.460 . S
C47 C46 1.477 . S
C47 H67 0.930 . S
C48 N44 1.362 . S
C48 C45 1.431 . S
C48 C58 1.476 . S
H49 C43 0.929 . S
C50 O41 1.250 . S
C50 O42 1.258 . S
O51 Mn36 2.162 . S
O51 C39 1.281 . S
O52 Mn36 2.297 . S
O52 C39 1.236 . S
N53 Mn37 2.282 1_554 S
N53 C54 1.328 . S
N53 C58 1.318 . S
C54 N53 1.328 . S
C54 C55 1.457 . S
C54 H59 0.929 1_554 S
C55 C54 1.457 . S
C55 C56 1.291 . S
C55 H68 0.931 . S
C56 C55 1.291 . S
C56 C57 1.373 . S
C56 H69 0.929 . S
C57 C56 1.373 . S
C57 C58 1.396 . S
C57 C64 1.403 . S
C58 C48 1.476 . S
C58 N53 1.318 . S
C58 C57 1.396 . S
H59 C54 0.929 1_556 S
O60 Mn36 2.385 . S
O60 C38 1.234 . S
O61 Mn36 2.209 . S
O61 Mn37 2.215 1_554 S
O61 C38 1.283 . S
O62 Mn36 2.094 1_556 S
O62 C40 1.240 . S
O63 Mn37 2.117 . S
O63 C40 1.264 . S
C64 C57 1.403 . S
C64 C65 1.399 . S
C64 H70 0.929 . S
C65 C45 1.449 . S
C65 C64 1.399 . S
C65 H71 0.930 . S
H66 C46 0.931 . S
H67 C47 0.930 . S
H68 C55 0.931 . S
H69 C56 0.929 . S
H70 C64 0.929 . S
H71 C65 0.930 . S
Mn72 O77 2.095 1_564 S
Mn72 O87 2.162 . S
Mn72 O88 2.297 . S
Mn72 O96 2.385 . S
Mn72 O97 2.209 1_565 S
Mn72 O98 2.094 1_554 S
Mn73 O78 2.121 1_554 S
Mn73 N80 2.257 . S
Mn73 N89 2.282 . S
Mn73 O97 2.215 . S
Mn73 O99 2.117 1_554 S
C74 O96 1.234 1_545 S
C74 O97 1.283 . S
C75 O87 1.281 . S
C75 O88 1.236 . S
C76 O98 1.240 . S
C76 O99 1.264 1_565 S
O77 Mn72 2.095 1_546 S
O77 C86 1.250 . S
O78 Mn73 2.121 1_556 S
O78 C86 1.258 . S
C79 N80 1.326 . S
C79 C83 1.460 . S
C79 H85 0.929 . S
N80 Mn73 2.257 . S
N80 C79 1.326 . S
N80 C84 1.362 . S
C81 C82 1.258 . S
C81 C84 1.431 . S
C81 C101 1.449 . S
C82 C81 1.258 . S
C82 C83 1.477 . S
C82 H102 0.931 . S
C83 C79 1.460 . S
C83 C82 1.477 . S
C83 H103 0.930 . S
C84 N80 1.362 . S
C84 C81 1.431 . S
C84 C94 1.476 . S
H85 C79 0.929 . S
C86 O77 1.250 . S
C86 O78 1.258 . S
O87 Mn72 2.162 . S
O87 C75 1.281 . S
O88 Mn72 2.297 . S
O88 C75 1.236 . S
N89 Mn73 2.282 . S
N89 C90 1.328 . S
N89 C94 1.318 . S
C90 N89 1.328 . S
C90 C91 1.457 . S
C90 H95 0.929 . S
C91 C90 1.457 . S
C91 C92 1.291 . S
C91 H104 0.931 . S
C92 C91 1.291 . S
C92 C93 1.373 . S
C92 H105 0.929 . S
C93 C92 1.373 . S
C93 C94 1.396 . S
C93 C100 1.403 . S
C94 C84 1.476 . S
C94 N89 1.318 . S
C94 C93 1.396 . S
H95 C90 0.929 . S
O96 Mn72 2.385 . S
O96 C74 1.234 1_565 S
O97 Mn72 2.209 1_545 S
O97 Mn73 2.215 . S
O97 C74 1.283 . S
O98 Mn72 2.094 1_556 S
O98 C76 1.240 . S
O99 Mn73 2.117 1_556 S
O99 C76 1.264 1_545 S
C100 C93 1.403 . S
C100 C101 1.399 . S
C100 H106 0.929 . S
C101 C81 1.449 . S
C101 C100 1.399 . S
C101 H107 0.930 . S
H102 C82 0.931 . S
H103 C83 0.930 . S
H104 C91 0.931 . S
H105 C92 0.929 . S
H106 C100 0.929 . S
H107 C101 0.930 . S
Mn108 O113 2.095 1_655 S
Mn108 O123 2.162 . S
Mn108 O124 2.297 1_554 S
Mn108 O132 2.385 1_554 S
Mn108 O133 2.209 1_654 S
Mn108 O134 2.094 . S
Mn109 O114 2.121 . S
Mn109 N116 2.257 1_554 S
Mn109 N125 2.282 . S
Mn109 O133 2.215 1_554 S
Mn109 O135 2.117 . S
C110 O132 1.234 1_455 S
C110 O133 1.283 . S
C111 O123 1.281 1_556 S
C111 O124 1.236 . S
C112 O134 1.240 . S
C112 O135 1.264 1_655 S
O113 Mn108 2.095 1_455 S
O113 C122 1.250 . S
O114 Mn109 2.121 . S
O114 C122 1.258 . S
C115 N116 1.326 . S
C115 C119 1.460 . S
C115 H121 0.929 . S
N116 Mn109 2.257 1_556 S
N116 C115 1.326 . S
N116 C120 1.362 . S
C117 C118 1.258 . S
C117 C120 1.431 . S
C117 C137 1.449 . S
C118 C117 1.258 . S
C118 C119 1.477 . S
C118 H138 0.931 . S
C119 C115 1.460 . S
C119 C118 1.477 . S
C119 H139 0.930 . S
C120 N116 1.362 . S
C120 C117 1.431 . S
C120 C130 1.476 . S
H121 C115 0.929 . S
C122 O113 1.250 . S
C122 O114 1.258 . S
O123 Mn108 2.162 . S
O123 C111 1.281 1_554 S
O124 Mn108 2.297 1_556 S
O124 C111 1.236 . S
N125 Mn109 2.282 . S
N125 C126 1.328 . S
N125 C130 1.318 1_554 S
C126 N125 1.328 . S
C126 C127 1.457 1_554 S
C126 H131 0.929 . S
C127 C126 1.457 1_556 S
C127 C128 1.291 . S
C127 H140 0.932 . S
C128 C127 1.291 . S
C128 C129 1.373 . S
C128 H141 0.929 . S
C129 C128 1.373 . S
C129 C130 1.396 . S
C129 C136 1.403 . S
C130 C120 1.476 . S
C130 N125 1.318 1_556 S
C130 C129 1.396 . S
H131 C126 0.929 . S
O132 Mn108 2.385 1_556 S
O132 C110 1.234 1_655 S
O133 Mn108 2.209 1_456 S
O133 Mn109 2.215 1_556 S
O133 C110 1.283 . S
O134 Mn108 2.094 . S
O134 C112 1.240 . S
O135 Mn109 2.117 . S
O135 C112 1.264 1_455 S
C136 C129 1.403 . S
C136 C137 1.399 . S
C136 H142 0.929 . S
C137 C117 1.449 . S
C137 C136 1.399 . S
C137 H143 0.930 . S
H138 C118 0.931 . S
H139 C119 0.930 . S
H140 C127 0.932 . S
H141 C128 0.929 . S
H142 C136 0.929 . S
H143 C137 0.930 . S
Mn144 O149 2.095 1_554 S
Mn144 O159 2.162 . S
Mn144 O160 2.297 . S
Mn144 O168 2.385 . S
Mn144 O169 2.209 . S
Mn144 O170 2.094 1_554 S
Mn145 O150 2.121 . S
Mn145 N152 2.257 1_556 S
Mn145 N161 2.282 1_556 S
Mn145 O169 2.215 1_556 S
Mn145 O171 2.117 . S
C146 O168 1.234 . S
C146 O169 1.283 . S
C147 O159 1.281 . S
C147 O160 1.236 . S
C148 O170 1.240 . S
C148 O171 1.264 . S
O149 Mn144 2.095 1_556 S
O149 C158 1.250 . S
O150 Mn145 2.121 . S
O150 C158 1.258 . S
C151 N152 1.326 . S
C151 C155 1.460 . S
C151 H157 0.929 . S
N152 Mn145 2.257 1_554 S
N152 C151 1.326 . S
N152 C156 1.362 . S
C153 C154 1.258 . S
C153 C156 1.431 . S
C153 C173 1.449 . S
C154 C153 1.258 . S
C154 C155 1.477 . S
C154 H174 0.931 . S
C155 C151 1.460 . S
C155 C154 1.477 . S
C155 H175 0.930 . S
C156 N152 1.362 . S
C156 C153 1.431 . S
C156 C166 1.476 . S
H157 C151 0.929 . S
C158 O149 1.250 . S
C158 O150 1.258 . S
O159 Mn144 2.162 . S
O159 C147 1.281 . S
O160 Mn144 2.297 . S
O160 C147 1.236 . S
N161 Mn145 2.282 1_554 S
N161 C162 1.328 . S
N161 C166 1.318 . S
C162 N161 1.328 . S
C162 C163 1.457 . S
C162 H167 0.926 . S
C163 C162 1.457 . S
C163 C164 1.291 . S
C163 H176 0.931 . S
C164 C163 1.291 . S
C164 C165 1.373 . S
C164 H177 0.929 . S
C165 C164 1.373 . S
C165 C166 1.396 . S
C165 C172 1.403 . S
C166 C156 1.476 . S
C166 N161 1.318 . S
C166 C165 1.396 . S
H167 C162 0.926 . S
O168 Mn144 2.385 . S
O168 C146 1.234 . S
O169 Mn144 2.209 . S
O169 Mn145 2.215 1_554 S
O169 C146 1.283 . S
O170 Mn144 2.094 1_556 S
O170 C148 1.240 . S
O171 Mn145 2.117 . S
O171 C148 1.264 . S
C172 C165 1.403 . S
C172 C173 1.399 . S
C172 H178 0.929 . S
C173 C153 1.449 . S
C173 C172 1.399 . S
C173 H179 0.930 . S
H174 C154 0.931 . S
H175 C155 0.930 . S
H176 C163 0.931 . S
H177 C164 0.929 . S
H178 C172 0.929 . S
H179 C173 0.930 . S
Mn180 O185 2.095 1_545 S
Mn180 O195 2.162 . S
Mn180 O196 2.297 1_554 S
Mn180 O204 2.385 1_554 S
Mn180 O205 2.209 1_544 S
Mn180 O206 2.094 . S
Mn181 O186 2.121 . S
Mn181 N188 2.257 1_554 S
Mn181 N197 2.282 . S
Mn181 O205 2.215 1_554 S
Mn181 O207 2.117 . S
C182 O204 1.234 1_565 S
C182 O205 1.283 . S
C183 O195 1.281 1_556 S
C183 O196 1.236 . S
C184 O206 1.240 . S
C184 O207 1.264 1_545 S
O185 Mn180 2.095 1_565 S
O185 C194 1.250 . S
O186 Mn181 2.121 . S
O186 C194 1.258 . S
C187 N188 1.326 . S
C187 C191 1.460 . S
C187 H193 0.929 . S
N188 Mn181 2.257 1_556 S
N188 C187 1.326 . S
N188 C192 1.362 . S
C189 C190 1.258 . S
C189 C192 1.431 . S
C189 C209 1.449 . S
C190 C189 1.258 . S
C190 C191 1.477 . S
C190 H210 0.931 . S
C191 C187 1.460 . S
C191 C190 1.477 . S
C191 H211 0.930 . S
C192 N188 1.362 . S
C192 C189 1.431 . S
C192 C202 1.476 . S
H193 C187 0.929 . S
C194 O185 1.250 . S
C194 O186 1.258 . S
O195 Mn180 2.162 . S
O195 C183 1.281 1_554 S
O196 Mn180 2.297 1_556 S
O196 C183 1.236 . S
N197 Mn181 2.282 . S
N197 C198 1.328 . S
N197 C202 1.318 1_554 S
C198 N197 1.328 . S
C198 C199 1.457 1_554 S
C198 H203 0.929 . S
C199 C198 1.457 1_556 S
C199 C200 1.291 . S
C199 H212 0.936 . S
C200 C199 1.291 . S
C200 C201 1.373 . S
C200 H213 0.929 . S
C201 C200 1.373 . S
C201 C202 1.396 . S
C201 C208 1.403 . S
C202 C192 1.476 . S
C202 N197 1.318 1_556 S
C202 C201 1.396 . S
H203 C198 0.929 . S
O204 Mn180 2.385 1_556 S
O204 C182 1.234 1_545 S
O205 Mn180 2.209 1_566 S
O205 Mn181 2.215 1_556 S
O205 C182 1.283 . S
O206 Mn180 2.094 . S
O206 C184 1.240 . S
O207 Mn181 2.117 . S
O207 C184 1.264 1_565 S
C208 C201 1.403 . S
C208 C209 1.399 . S
C208 H214 0.929 . S
C209 C189 1.449 . S
C209 C208 1.399 . S
C209 H215 0.930 . S
H210 C190 0.931 . S
H211 C191 0.930 . S
H212 C199 0.936 . S
H213 C200 0.929 . S
H214 C208 0.929 . S
H215 C209 0.930 . S
Mn216 O221 2.095 . S
Mn216 O231 2.162 . S
Mn216 O232 2.297 . S
Mn216 O240 2.385 . S
Mn216 O241 2.209 . S
Mn216 O242 2.094 . S
Mn217 O222 2.121 . S
Mn217 N224 2.257 . S
Mn217 N233 2.282 . S
Mn217 O241 2.215 . S
Mn217 O243 2.117 . S
C218 O240 1.234 . S
C218 O241 1.283 . S
C219 O231 1.281 . S
C219 O232 1.236 . S
C220 O242 1.240 . S
C220 O243 1.264 . S
O221 Mn216 2.095 . S
O221 C230 1.250 . S
O222 Mn217 2.121 . S
O222 C230 1.258 . S
C223 N224 1.326 . S
C223 C227 1.460 . S
C223 H229 0.929 . S
N224 Mn217 2.257 . S
N224 C223 1.326 . S
N224 C228 1.362 . S
C225 C226 1.258 . S
C225 C228 1.431 . S
C225 C245 1.449 . S
C226 C225 1.258 . S
C226 C227 1.477 . S
C226 H246 0.931 . S
C227 C223 1.460 . S
C227 C226 1.477 . S
C227 H247 0.930 . S
C228 N224 1.362 . S
C228 C225 1.431 . S
C228 C238 1.476 . S
H229 C223 0.929 . S
C230 O221 1.250 . S
C230 O222 1.258 . S
O231 Mn216 2.162 . S
O231 C219 1.281 . S
O232 Mn216 2.297 . S
O232 C219 1.236 . S
N233 Mn217 2.282 . S
N233 C234 1.328 . S
N233 C238 1.318 . S
C234 N233 1.328 . S
C234 C235 1.457 . S
C234 H239 0.929 . S
C235 C234 1.457 . S
C235 C236 1.291 . S
C235 H248 0.931 . S
C236 C235 1.291 . S
C236 C237 1.373 . S
C236 H249 0.929 . S
C237 C236 1.373 . S
C237 C238 1.396 . S
C237 C244 1.403 . S
C238 C228 1.476 . S
C238 N233 1.318 . S
C238 C237 1.396 . S
H239 C234 0.929 . S
O240 Mn216 2.385 . S
O240 C218 1.234 . S
O241 Mn216 2.209 . S
O241 Mn217 2.215 . S
O241 C218 1.283 . S
O242 Mn216 2.094 . S
O242 C220 1.240 . S
O243 Mn217 2.117 . S
O243 C220 1.264 . S
C244 C237 1.403 . S
C244 C245 1.399 . S
C244 H250 0.929 . S
C245 C225 1.449 . S
C245 C244 1.399 . S
C245 H251 0.930 . S
H246 C226 0.931 . S
H247 C227 0.930 . S
H248 C235 0.931 . S
H249 C236 0.929 . S
H250 C244 0.929 . S
H251 C245 0.930 . S
Mn252 O257 2.095 . S
Mn252 O267 2.162 1_565 S
Mn252 O268 2.297 1_565 S
Mn252 O276 2.385 . S
Mn252 O277 2.209 . S
Mn252 O278 2.094 . S
Mn253 O258 2.121 . S
Mn253 N260 2.257 . S
Mn253 N269 2.282 . S
Mn253 O277 2.215 . S
Mn253 O279 2.117 . S
C254 O276 1.234 . S
C254 O277 1.283 . S
C255 O267 1.281 . S
C255 O268 1.236 . S
C256 O278 1.240 . S
C256 O279 1.264 . S
O257 Mn252 2.095 . S
O257 C266 1.250 . S
O258 Mn253 2.121 . S
O258 C266 1.258 . S
C259 N260 1.326 . S
C259 C263 1.460 . S
C259 H265 0.929 . S
N260 Mn253 2.257 . S
N260 C259 1.326 . S
N260 C264 1.362 . S
C261 C262 1.258 . S
C261 C264 1.431 . S
C261 C281 1.449 . S
C262 C261 1.258 . S
C262 C263 1.477 . S
C262 H282 0.931 . S
C263 C259 1.460 . S
C263 C262 1.477 . S
C263 H283 0.930 . S
C264 N260 1.362 . S
C264 C261 1.431 . S
C264 C274 1.476 . S
H265 C259 0.929 . S
C266 O257 1.250 . S
C266 O258 1.258 . S
O267 Mn252 2.162 1_545 S
O267 C255 1.281 . S
O268 Mn252 2.297 1_545 S
O268 C255 1.236 . S
N269 Mn253 2.282 . S
N269 C270 1.328 . S
N269 C274 1.318 . S
C270 N269 1.328 . S
C270 C271 1.457 . S
C270 H275 0.929 . S
C271 C270 1.457 . S
C271 C272 1.291 . S
C271 H284 0.931 . S
C272 C271 1.291 . S
C272 C273 1.373 . S
C272 H285 0.929 . S
C273 C272 1.373 . S
C273 C274 1.396 . S
C273 C280 1.403 . S
C274 C264 1.476 . S
C274 N269 1.318 . S
C274 C273 1.396 . S
H275 C270 0.929 . S
O276 Mn252 2.385 . S
O276 C254 1.234 . S
O277 Mn252 2.209 . S
O277 Mn253 2.215 . S
O277 C254 1.283 . S
O278 Mn252 2.094 . S
O278 C256 1.240 . S
O279 Mn253 2.117 . S
O279 C256 1.264 . S
C280 C273 1.403 . S
C280 C281 1.399 . S
C280 H286 0.929 . S
C281 C261 1.449 . S
C281 C280 1.399 . S
C281 H287 0.930 . S
H282 C262 0.931 . S
H283 C263 0.930 . S
H284 C271 0.931 . S
H285 C272 0.929 . S
H286 C280 0.929 . S
H287 C281 0.930 . S
Mn288 O293 2.095 . S
Mn288 O303 2.162 1_455 S
Mn288 O304 2.297 1_455 S
Mn288 O312 2.385 . S
Mn288 O313 2.209 . S
Mn288 O314 2.094 . S
Mn289 O294 2.121 . S
Mn289 N296 2.257 . S
Mn289 N305 2.282 . S
Mn289 O313 2.215 . S
Mn289 O315 2.117 . S
C290 O312 1.234 . S
C290 O313 1.283 . S
C291 O303 1.281 . S
C291 O304 1.236 . S
C292 O314 1.240 . S
C292 O315 1.264 . S
O293 Mn288 2.095 . S
O293 C302 1.250 . S
O294 Mn289 2.121 . S
O294 C302 1.258 . S
C295 N296 1.326 . S
C295 C299 1.460 . S
C295 H301 0.929 . S
N296 Mn289 2.257 . S
N296 C295 1.326 . S
N296 C300 1.362 . S
C297 C298 1.258 . S
C297 C300 1.431 . S
C297 C317 1.449 . S
C298 C297 1.258 . S
C298 C299 1.477 . S
C298 H318 0.931 . S
C299 C295 1.460 . S
C299 C298 1.477 . S
C299 H319 0.930 . S
C300 N296 1.362 . S
C300 C297 1.431 . S
C300 C310 1.476 . S
H301 C295 0.929 . S
C302 O293 1.250 . S
C302 O294 1.258 . S
O303 Mn288 2.162 1_655 S
O303 C291 1.281 . S
O304 Mn288 2.297 1_655 S
O304 C291 1.236 . S
N305 Mn289 2.282 . S
N305 C306 1.328 . S
N305 C310 1.318 . S
C306 N305 1.328 . S
C306 C307 1.457 . S
C306 H311 0.929 . S
C307 C306 1.457 . S
C307 C308 1.291 . S
C307 H320 0.931 . S
C308 C307 1.291 . S
C308 C309 1.373 . S
C308 H321 0.929 . S
C309 C308 1.373 . S
C309 C310 1.396 . S
C309 C316 1.403 . S
C310 C300 1.476 . S
C310 N305 1.318 . S
C310 C309 1.396 . S
H311 C306 0.929 . S
O312 Mn288 2.385 . S
O312 C290 1.234 . S
O313 Mn288 2.209 . S
O313 Mn289 2.215 . S
O313 C290 1.283 . S
O314 Mn288 2.094 . S
O314 C292 1.240 . S
O315 Mn289 2.117 . S
O315 C292 1.264 . S
C316 C309 1.403 . S
C316 C317 1.399 . S
C316 H322 0.929 . S
C317 C297 1.449 . S
C317 C316 1.399 . S
C317 H323 0.930 . S
H318 C298 0.931 . S
H319 C299 0.930 . S
H320 C307 0.931 . S
H321 C308 0.929 . S
H322 C316 0.929 . S
H323 C317 0.930 . S
Mn324 O329 2.093 . S
Mn324 O339 2.162 . S
Mn324 O340 2.297 . S
Mn324 O348 2.385 . S
Mn324 O349 2.209 . S
Mn324 O350 2.094 . S
Mn325 O330 2.121 1_565 S
Mn325 N332 2.257 . S
Mn325 N341 2.282 . S
Mn325 O349 2.215 . S
Mn325 O351 2.117 . S
C326 O348 1.234 . S
C326 O349 1.283 . S
C327 O339 1.281 . S
C327 O340 1.236 . S
C328 O350 1.240 . S
C328 O351 1.264 . S
O329 Mn324 2.093 . S
O329 C338 1.251 1_565 S
O330 Mn325 2.121 1_545 S
O330 C338 1.258 . S
C331 N332 1.326 1_545 S
C331 C335 1.460 . S
C331 H337 0.929 . S
N332 Mn325 2.257 . S
N332 C331 1.326 1_565 S
N332 C336 1.362 . S
C333 C334 1.258 1_565 S
C333 C336 1.431 . S
C333 C353 1.449 . S
C334 C333 1.258 1_545 S
C334 C335 1.477 . S
C334 H354 0.931 . S
C335 C331 1.460 . S
C335 C334 1.477 . S
C335 H355 0.930 . S
C336 N332 1.362 . S
C336 C333 1.431 . S
C336 C346 1.476 . S
H337 C331 0.929 . S
C338 O329 1.251 1_545 S
C338 O330 1.258 . S
O339 Mn324 2.162 . S
O339 C327 1.281 . S
O340 Mn324 2.297 . S
O340 C327 1.236 . S
N341 Mn325 2.282 . S
N341 C342 1.328 . S
N341 C346 1.318 . S
C342 N341 1.328 . S
C342 C343 1.457 . S
C342 H347 0.929 . S
C343 C342 1.457 . S
C343 C344 1.291 . S
C343 H356 0.931 . S
C344 C343 1.291 . S
C344 C345 1.373 . S
C344 H357 0.929 . S
C345 C344 1.373 . S
C345 C346 1.396 . S
C345 C352 1.403 . S
C346 C336 1.476 . S
C346 N341 1.318 . S
C346 C345 1.396 . S
H347 C342 0.929 . S
O348 Mn324 2.385 . S
O348 C326 1.234 . S
O349 Mn324 2.209 . S
O349 Mn325 2.215 . S
O349 C326 1.283 . S
O350 Mn324 2.094 . S
O350 C328 1.240 . S
O351 Mn325 2.117 . S
O351 C328 1.264 . S
C352 C345 1.403 . S
C352 C353 1.399 . S
C352 H358 0.929 . S
C353 C333 1.449 . S
C353 C352 1.399 . S
C353 H359 0.930 . S
H354 C334 0.931 . S
H355 C335 0.930 . S
H356 C343 0.931 . S
H357 C344 0.929 . S
H358 C352 0.929 . S
H359 C353 0.930 . S
Mn360 O365 2.095 . S
Mn360 O375 2.162 1_455 S
Mn360 O376 2.297 1_455 S
Mn360 O384 2.385 . S
Mn360 O385 2.209 . S
Mn360 O386 2.094 . S
Mn361 O366 2.121 . S
Mn361 N368 2.257 . S
Mn361 N377 2.282 . S
Mn361 O385 2.215 . S
Mn361 O387 2.117 . S
C362 O384 1.234 . S
C362 O385 1.283 . S
C363 O375 1.281 . S
C363 O376 1.236 . S
C364 O386 1.240 . S
C364 O387 1.264 . S
O365 Mn360 2.095 . S
O365 C374 1.250 . S
O366 Mn361 2.121 . S
O366 C374 1.258 . S
C367 N368 1.326 . S
C367 C371 1.460 . S
C367 H373 0.929 . S
N368 Mn361 2.257 . S
N368 C367 1.326 . S
N368 C372 1.362 . S
C369 C370 1.258 . S
C369 C372 1.431 . S
C369 C389 1.449 . S
C370 C369 1.258 . S
C370 C371 1.477 . S
C370 H390 0.931 . S
C371 C367 1.460 . S
C371 C370 1.477 . S
C371 H391 0.930 . S
C372 N368 1.362 . S
C372 C369 1.431 . S
C372 C382 1.476 . S
H373 C367 0.929 . S
C374 O365 1.250 . S
C374 O366 1.258 . S
O375 Mn360 2.162 1_655 S
O375 C363 1.281 . S
O376 Mn360 2.297 1_655 S
O376 C363 1.236 . S
N377 Mn361 2.282 . S
N377 C378 1.328 . S
N377 C382 1.318 . S
C378 N377 1.328 . S
C378 C379 1.457 . S
C378 H383 0.929 . S
C379 C378 1.457 . S
C379 C380 1.291 . S
C379 H392 0.931 . S
C380 C379 1.291 . S
C380 C381 1.373 . S
C380 H393 0.929 . S
C381 C380 1.373 . S
C381 C382 1.396 . S
C381 C388 1.403 . S
C382 C372 1.476 . S
C382 N377 1.318 . S
C382 C381 1.396 . S
H383 C378 0.929 . S
O384 Mn360 2.385 . S
O384 C362 1.234 . S
O385 Mn360 2.209 . S
O385 Mn361 2.215 . S
O385 C362 1.283 . S
O386 Mn360 2.094 . S
O386 C364 1.240 . S
O387 Mn361 2.117 . S
O387 C364 1.264 . S
C388 C381 1.403 . S
C388 C389 1.399 . S
C388 H394 0.929 . S
C389 C369 1.449 . S
C389 C388 1.399 . S
C389 H395 0.930 . S
H390 C370 0.931 . S
H391 C371 0.930 . S
H392 C379 0.931 . S
H393 C380 0.929 . S
H394 C388 0.929 . S
H395 C389 0.930 . S
Mn396 O401 2.095 . S
Mn396 O411 2.162 . S
Mn396 O412 2.297 . S
Mn396 O420 2.385 . S
Mn396 O421 2.209 . S
Mn396 O422 2.094 . S
Mn397 O402 2.121 . S
Mn397 N404 2.257 . S
Mn397 N413 2.282 . S
Mn397 O421 2.215 . S
Mn397 O423 2.117 . S
C398 O420 1.234 . S
C398 O421 1.283 . S
C399 O411 1.281 . S
C399 O412 1.236 . S
C400 O422 1.240 . S
C400 O423 1.264 . S
O401 Mn396 2.095 . S
O401 C410 1.250 . S
O402 Mn397 2.121 . S
O402 C410 1.258 . S
C403 N404 1.326 . S
C403 C407 1.460 . S
C403 H409 0.929 . S
N404 Mn397 2.257 . S
N404 C403 1.326 . S
N404 C408 1.362 . S
C405 C406 1.258 . S
C405 C408 1.431 . S
C405 C425 1.449 . S
C406 C405 1.258 . S
C406 C407 1.477 . S
C406 H426 0.931 . S
C407 C403 1.460 . S
C407 C406 1.477 . S
C407 H427 0.930 . S
C408 N404 1.362 . S
C408 C405 1.431 . S
C408 C418 1.476 . S
H409 C403 0.929 . S
C410 O401 1.250 . S
C410 O402 1.258 . S
O411 Mn396 2.162 . S
O411 C399 1.281 . S
O412 Mn396 2.297 . S
O412 C399 1.236 . S
N413 Mn397 2.282 . S
N413 C414 1.328 . S
N413 C418 1.318 . S
C414 N413 1.328 . S
C414 C415 1.457 . S
C414 H419 0.929 . S
C415 C414 1.457 . S
C415 C416 1.291 . S
C415 H428 0.931 . S
C416 C415 1.291 . S
C416 C417 1.373 . S
C416 H429 0.929 . S
C417 C416 1.373 . S
C417 C418 1.396 . S
C417 C424 1.403 . S
C418 C408 1.476 . S
C418 N413 1.318 . S
C418 C417 1.396 . S
H419 C414 0.929 . S
O420 Mn396 2.385 . S
O420 C398 1.234 . S
O421 Mn396 2.209 . S
O421 Mn397 2.215 . S
O421 C398 1.283 . S
O422 Mn396 2.094 . S
O422 C400 1.240 . S
O423 Mn397 2.117 . S
O423 C400 1.264 . S
C424 C417 1.403 . S
C424 C425 1.399 . S
C424 H430 0.929 . S
C425 C405 1.449 . S
C425 C424 1.399 . S
C425 H431 0.930 . S
H426 C406 0.931 . S
H427 C407 0.930 . S
H428 C415 0.931 . S
H429 C416 0.929 . S
H430 C424 0.929 . S
H431 C425 0.930 . S
Mn432 O437 2.095 . S
Mn432 O447 2.162 1_545 S
Mn432 O448 2.297 1_545 S
Mn432 O456 2.385 . S
Mn432 O457 2.209 . S
Mn432 O458 2.094 . S
Mn433 O438 2.121 . S
Mn433 N440 2.257 . S
Mn433 N449 2.282 . S
Mn433 O457 2.215 . S
Mn433 O459 2.117 . S
C434 O456 1.234 . S
C434 O457 1.283 . S
C435 O447 1.281 . S
C435 O448 1.236 . S
C436 O458 1.240 . S
C436 O459 1.264 . S
O437 Mn432 2.095 . S
O437 C446 1.250 . S
O438 Mn433 2.121 . S
O438 C446 1.258 . S
C439 N440 1.326 . S
C439 C443 1.460 . S
C439 H445 0.929 . S
N440 Mn433 2.257 . S
N440 C439 1.326 . S
N440 C444 1.362 . S
C441 C442 1.258 . S
C441 C444 1.431 . S
C441 C461 1.449 . S
C442 C441 1.258 . S
C442 C443 1.477 . S
C442 H462 0.931 . S
C443 C439 1.460 . S
C443 C442 1.477 . S
C443 H463 0.930 . S
C444 N440 1.362 . S
C444 C441 1.431 . S
C444 C454 1.476 . S
H445 C439 0.929 . S
C446 O437 1.250 . S
C446 O438 1.258 . S
O447 Mn432 2.162 1_565 S
O447 C435 1.281 . S
O448 Mn432 2.297 1_565 S
O448 C435 1.236 . S
N449 Mn433 2.282 . S
N449 C450 1.328 . S
N449 C454 1.318 . S
C450 N449 1.328 . S
C450 C451 1.457 . S
C450 H455 0.929 . S
C451 C450 1.457 . S
C451 C452 1.291 . S
C451 H464 0.931 . S
C452 C451 1.291 . S
C452 C453 1.373 . S
C452 H465 0.929 . S
C453 C452 1.373 . S
C453 C454 1.396 . S
C453 C460 1.403 . S
C454 C444 1.476 . S
C454 N449 1.318 . S
C454 C453 1.396 . S
H455 C450 0.929 . S
O456 Mn432 2.385 . S
O456 C434 1.234 . S
O457 Mn432 2.209 . S
O457 Mn433 2.215 . S
O457 C434 1.283 . S
O458 Mn432 2.094 . S
O458 C436 1.240 . S
O459 Mn433 2.117 . S
O459 C436 1.264 . S
C460 C453 1.403 . S
C460 C461 1.399 . S
C460 H466 0.929 . S
C461 C441 1.449 . S
C461 C460 1.399 . S
C461 H467 0.930 . S
H462 C442 0.931 . S
H463 C443 0.930 . S
H464 C451 0.931 . S
H465 C452 0.929 . S
H466 C460 0.929 . S
H467 C461 0.930 . S
Mn468 O473 2.095 . S
Mn468 O483 2.162 . S
Mn468 O484 2.297 . S
Mn468 O492 2.385 . S
Mn468 O493 2.209 . S
Mn468 O494 2.094 . S
Mn469 O474 2.121 1_655 S
Mn469 N476 2.257 . S
Mn469 N485 2.282 . S
Mn469 O493 2.215 . S
Mn469 O495 2.117 . S
C470 O492 1.234 . S
C470 O493 1.283 . S
C471 O483 1.281 . S
C471 O484 1.236 . S
C472 O494 1.240 . S
C472 O495 1.264 . S
O473 Mn468 2.095 . S
O473 C482 1.250 1_655 S
O474 Mn469 2.121 1_455 S
O474 C482 1.258 . S
C475 N476 1.326 1_455 S
C475 C479 1.460 . S
C475 H481 0.929 . S
N476 Mn469 2.257 . S
N476 C475 1.326 1_655 S
N476 C480 1.362 . S
C477 C478 1.258 1_655 S
C477 C480 1.431 . S
C477 C497 1.449 . S
C478 C477 1.258 1_455 S
C478 C479 1.477 . S
C478 H498 0.931 . S
C479 C475 1.460 . S
C479 C478 1.477 . S
C479 H499 0.930 . S
C480 N476 1.362 . S
C480 C477 1.431 . S
C480 C490 1.476 . S
H481 C475 0.929 . S
C482 O473 1.250 1_455 S
C482 O474 1.258 . S
O483 Mn468 2.162 . S
O483 C471 1.281 . S
O484 Mn468 2.297 . S
O484 C471 1.236 . S
N485 Mn469 2.282 . S
N485 C486 1.328 . S
N485 C490 1.318 . S
C486 N485 1.328 . S
C486 C487 1.457 . S
C486 H491 0.929 . S
C487 C486 1.457 . S
C487 C488 1.291 . S
C487 H500 0.931 . S
C488 C487 1.291 . S
C488 C489 1.373 . S
C488 H501 0.929 . S
C489 C488 1.373 . S
C489 C490 1.396 . S
C489 C496 1.403 . S
C490 C480 1.476 . S
C490 N485 1.318 . S
C490 C489 1.396 . S
H491 C486 0.929 . S
O492 Mn468 2.385 . S
O492 C470 1.234 . S
O493 Mn468 2.209 . S
O493 Mn469 2.215 . S
O493 C470 1.283 . S
O494 Mn468 2.094 . S
O494 C472 1.240 . S
O495 Mn469 2.117 . S
O495 C472 1.264 . S
C496 C489 1.403 . S
C496 C497 1.399 . S
C496 H502 0.929 . S
C497 C477 1.449 . S
C497 C496 1.399 . S
C497 H503 0.930 . S
H498 C478 0.931 . S
H499 C479 0.930 . S
H500 C487 0.931 . S
H501 C488 0.929 . S
H502 C496 0.929 . S
H503 C497 0.930 . S
Mn504 O509 2.095 . S
Mn504 O519 2.162 . S
Mn504 O520 2.297 . S
Mn504 O528 2.385 . S
Mn504 O529 2.209 . S
Mn504 O530 2.094 . S
Mn505 O510 2.121 . S
Mn505 N512 2.257 . S
Mn505 N521 2.282 . S
Mn505 O529 2.215 . S
Mn505 O531 2.117 . S
C506 O528 1.234 . S
C506 O529 1.283 . S
C507 O519 1.281 . S
C507 O520 1.236 . S
C508 O530 1.240 . S
C508 O531 1.264 . S
O509 Mn504 2.095 . S
O509 C518 1.250 . S
O510 Mn505 2.121 . S
O510 C518 1.258 . S
C511 N512 1.326 . S
C511 C515 1.460 . S
C511 H517 0.929 . S
N512 Mn505 2.257 . S
N512 C511 1.326 . S
N512 C516 1.362 . S
C513 C514 1.258 . S
C513 C516 1.431 . S
C513 C533 1.449 . S
C514 C513 1.258 . S
C514 C515 1.477 . S
C514 H534 0.931 . S
C515 C511 1.460 . S
C515 C514 1.477 . S
C515 H535 0.930 . S
C516 N512 1.362 . S
C516 C513 1.431 . S
C516 C526 1.476 . S
H517 C511 0.929 . S
C518 O509 1.250 . S
C518 O510 1.258 . S
O519 Mn504 2.162 . S
O519 C507 1.281 . S
O520 Mn504 2.297 . S
O520 C507 1.236 . S
N521 Mn505 2.282 . S
N521 C522 1.328 . S
N521 C526 1.318 . S
C522 N521 1.328 . S
C522 C523 1.457 . S
C522 H527 0.929 . S
C523 C522 1.457 . S
C523 C524 1.291 . S
C523 H536 0.931 . S
C524 C523 1.291 . S
C524 C525 1.373 . S
C524 H537 0.929 . S
C525 C524 1.373 . S
C525 C526 1.396 . S
C525 C532 1.403 . S
C526 C516 1.476 . S
C526 N521 1.318 . S
C526 C525 1.396 . S
H527 C522 0.929 . S
O528 Mn504 2.385 . S
O528 C506 1.234 . S
O529 Mn504 2.209 . S
O529 Mn505 2.215 . S
O529 C506 1.283 . S
O530 Mn504 2.094 . S
O530 C508 1.240 . S
O531 Mn505 2.117 . S
O531 C508 1.264 . S
C532 C525 1.403 . S
C532 C533 1.399 . S
C532 H538 0.929 . S
C533 C513 1.449 . S
C533 C532 1.399 . S
C533 H539 0.930 . S
H534 C514 0.931 . S
H535 C515 0.930 . S
H536 C523 0.931 . S
H537 C524 0.929 . S
H538 C532 0.929 . S
H539 C533 0.930 . S
Mn540 O545 2.095 . S
Mn540 O555 2.162 . S
Mn540 O556 2.297 . S
Mn540 O564 2.385 . S
Mn540 O565 2.209 . S
Mn540 O566 2.094 . S
Mn541 O546 2.121 . S
Mn541 N548 2.257 . S
Mn541 N557 2.282 . S
Mn541 O565 2.215 . S
Mn541 O567 2.117 . S
C542 O564 1.234 . S
C542 O565 1.283 . S
C543 O555 1.281 . S
C543 O556 1.236 . S
C544 O566 1.240 . S
C544 O567 1.264 . S
O545 Mn540 2.095 . S
O545 C554 1.250 . S
O546 Mn541 2.121 . S
O546 C554 1.258 . S
C547 N548 1.326 . S
C547 C551 1.460 . S
C547 H553 0.929 . S
N548 Mn541 2.257 . S
N548 C547 1.326 . S
N548 C552 1.362 . S
C549 C550 1.258 . S
C549 C552 1.431 . S
C549 C569 1.449 . S
C550 C549 1.258 . S
C550 C551 1.477 . S
C550 H570 0.931 . S
C551 C547 1.460 . S
C551 C550 1.477 . S
C551 H571 0.930 . S
C552 N548 1.362 . S
C552 C549 1.431 . S
C552 C562 1.476 . S
H553 C547 0.929 . S
C554 O545 1.250 . S
C554 O546 1.258 . S
O555 Mn540 2.162 . S
O555 C543 1.281 . S
O556 Mn540 2.297 . S
O556 C543 1.236 . S
N557 Mn541 2.282 . S
N557 C558 1.328 . S
N557 C562 1.318 . S
C558 N557 1.328 . S
C558 C559 1.457 . S
C558 H563 0.929 . S
C559 C558 1.457 . S
C559 C560 1.291 . S
C559 H572 0.931 . S
C560 C559 1.291 . S
C560 C561 1.373 . S
C560 H573 0.929 . S
C561 C560 1.373 . S
C561 C562 1.396 . S
C561 C568 1.403 . S
C562 C552 1.476 . S
C562 N557 1.318 . S
C562 C561 1.396 . S
H563 C558 0.929 . S
O564 Mn540 2.385 . S
O564 C542 1.234 . S
O565 Mn540 2.209 . S
O565 Mn541 2.215 . S
O565 C542 1.283 . S
O566 Mn540 2.094 . S
O566 C544 1.240 . S
O567 Mn541 2.117 . S
O567 C544 1.264 . S
C568 C561 1.403 . S
C568 C569 1.399 . S
C568 H574 0.929 . S
C569 C549 1.449 . S
C569 C568 1.399 . S
C569 H575 0.930 . S
H570 C550 0.931 . S
H571 C551 0.930 . S
H572 C559 0.931 . S
H573 C560 0.929 . S
H574 C568 0.929 . S
H575 C569 0.930 . S
Mn576 O581 2.095 1_545 S
Mn576 O591 2.162 . S
Mn576 O592 2.297 . S
Mn576 O600 2.385 . S
Mn576 O601 2.209 . S
Mn576 O602 2.094 . S
Mn577 O582 2.121 1_545 S
Mn577 N584 2.257 . S
Mn577 N593 2.282 . S
Mn577 O601 2.215 . S
Mn577 O603 2.117 . S
C578 O600 1.234 . S
C578 O601 1.283 . S
C579 O591 1.281 . S
C579 O592 1.236 . S
C580 O602 1.240 . S
C580 O603 1.264 . S
O581 Mn576 2.095 1_565 S
O581 C590 1.250 . S
O582 Mn577 2.121 1_565 S
O582 C590 1.258 . S
C583 N584 1.326 1_565 S
C583 C587 1.460 . S
C583 H589 0.929 . S
N584 Mn577 2.257 . S
N584 C583 1.326 1_545 S
N584 C588 1.362 . S
C585 C586 1.258 1_545 S
C585 C588 1.431 . S
C585 C605 1.449 . S
C586 C585 1.258 1_565 S
C586 C587 1.477 . S
C586 H606 0.931 . S
C587 C583 1.460 . S
C587 C586 1.477 . S
C587 H607 0.930 . S
C588 N584 1.362 . S
C588 C585 1.431 . S
C588 C598 1.476 . S
H589 C583 0.929 . S
C590 O581 1.250 . S
C590 O582 1.258 . S
O591 Mn576 2.162 . S
O591 C579 1.281 . S
O592 Mn576 2.297 . S
O592 C579 1.236 . S
N593 Mn577 2.282 . S
N593 C594 1.328 . S
N593 C598 1.318 . S
C594 N593 1.328 . S
C594 C595 1.457 . S
C594 H599 0.929 . S
C595 C594 1.457 . S
C595 C596 1.291 . S
C595 H608 0.931 . S
C596 C595 1.291 . S
C596 C597 1.373 . S
C596 H609 0.929 . S
C597 C596 1.373 . S
C597 C598 1.396 . S
C597 C604 1.403 . S
C598 C588 1.476 . S
C598 N593 1.318 . S
C598 C597 1.396 . S
H599 C594 0.929 . S
O600 Mn576 2.385 . S
O600 C578 1.234 . S
O601 Mn576 2.209 . S
O601 Mn577 2.215 . S
O601 C578 1.283 . S
O602 Mn576 2.094 . S
O602 C580 1.240 . S
O603 Mn577 2.117 . S
O603 C580 1.264 . S
C604 C597 1.403 . S
C604 C605 1.399 . S
C604 H610 0.929 . S
C605 C585 1.449 . S
C605 C604 1.399 . S
C605 H611 0.930 . S
H606 C586 0.931 . S
H607 C587 0.930 . S
H608 C595 0.931 . S
H609 C596 0.929 . S
H610 C604 0.929 . S
H611 C605 0.930 . S
Mn612 O617 2.095 . S
Mn612 O627 2.162 1_655 S
Mn612 O628 2.297 1_655 S
Mn612 O636 2.385 . S
Mn612 O637 2.209 . S
Mn612 O638 2.094 . S
Mn613 O618 2.121 . S
Mn613 N620 2.257 . S
Mn613 N629 2.282 . S
Mn613 O637 2.215 . S
Mn613 O639 2.117 . S
C614 O636 1.234 . S
C614 O637 1.283 . S
C615 O627 1.281 . S
C615 O628 1.236 . S
C616 O638 1.240 . S
C616 O639 1.264 . S
O617 Mn612 2.095 . S
O617 C626 1.250 . S
O618 Mn613 2.121 . S
O618 C626 1.258 . S
C619 N620 1.326 . S
C619 C623 1.460 . S
C619 H625 0.929 . S
N620 Mn613 2.257 . S
N620 C619 1.326 . S
N620 C624 1.362 . S
C621 C622 1.258 . S
C621 C624 1.431 . S
C621 C641 1.449 . S
C622 C621 1.258 . S
C622 C623 1.477 . S
C622 H642 0.931 . S
C623 C619 1.460 . S
C623 C622 1.477 . S
C623 H643 0.930 . S
C624 N620 1.362 . S
C624 C621 1.431 . S
C624 C634 1.476 . S
H625 C619 0.929 . S
C626 O617 1.250 . S
C626 O618 1.258 . S
O627 Mn612 2.162 1_455 S
O627 C615 1.281 . S
O628 Mn612 2.297 1_455 S
O628 C615 1.236 . S
N629 Mn613 2.282 . S
N629 C630 1.328 . S
N629 C634 1.318 . S
C630 N629 1.328 . S
C630 C631 1.457 . S
C630 H635 0.929 . S
C631 C630 1.457 . S
C631 C632 1.291 . S
C631 H644 0.931 . S
C632 C631 1.291 . S
C632 C633 1.373 . S
C632 H645 0.929 . S
C633 C632 1.373 . S
C633 C634 1.396 . S
C633 C640 1.403 . S
C634 C624 1.476 . S
C634 N629 1.318 . S
C634 C633 1.396 . S
H635 C630 0.929 . S
O636 Mn612 2.385 . S
O636 C614 1.234 . S
O637 Mn612 2.209 . S
O637 Mn613 2.215 . S
O637 C614 1.283 . S
O638 Mn612 2.094 . S
O638 C616 1.240 . S
O639 Mn613 2.117 . S
O639 C616 1.264 . S
C640 C633 1.403 . S
C640 C641 1.399 . S
C640 H646 0.929 . S
C641 C621 1.449 . S
C641 C640 1.399 . S
C641 H647 0.930 . S
H642 C622 0.931 . S
H643 C623 0.930 . S
H644 C631 0.931 . S
H645 C632 0.929 . S
H646 C640 0.929 . S
H647 C641 0.930 . S
C648 C649 1.384 . S
C648 C650 1.384 . S
C648 H676 0.931 . S
C649 C648 1.384 . S
C649 C652 1.382 . S
C650 C648 1.384 . S
C650 C651 1.381 . S
C650 H677 0.930 . S
C651 C650 1.381 . S
C651 C653 1.381 . S
C651 C654 1.487 . S
C652 C649 1.382 . S
C652 C653 1.387 . S
C652 H678 0.930 . S
C653 C651 1.381 . S
C653 C652 1.387 . S
C653 H679 0.931 . S
C654 C651 1.487 . S
C654 C661 1.399 . S
C654 N692 1.343 . S
C655 C656 1.384 . S
C655 C657 1.384 . S
C655 H680 0.931 . S
C656 C655 1.384 . S
C656 C659 1.382 . S
C657 C655 1.384 . S
C657 C658 1.381 . S
C657 H681 0.930 . S
C658 C657 1.381 . S
C658 C660 1.381 . S
C658 C661 1.487 . S
C659 C656 1.382 . S
C659 C660 1.387 . S
C659 H682 0.930 . S
C660 C658 1.381 . S
C660 C659 1.387 . S
C660 H683 0.931 . S
C661 C654 1.399 . S
C661 C658 1.487 . S
C661 N693 1.343 . S
C662 C663 1.384 . S
C662 C664 1.384 . S
C662 H684 0.931 . S
C663 C662 1.384 . S
C663 C666 1.382 . S
C664 C662 1.384 . S
C664 C665 1.381 . S
C664 H685 0.930 . S
C665 C664 1.381 . S
C665 C667 1.381 . S
C665 C668 1.487 . S
C666 C663 1.382 . S
C666 C667 1.387 . S
C666 H686 0.930 . S
C667 C665 1.381 . S
C667 C666 1.387 . S
C667 H687 0.931 . S
C668 C665 1.487 . S
C668 C675 1.399 . S
C668 N693 1.343 . S
C669 C670 1.384 . S
C669 C671 1.384 . S
C669 H688 0.931 . S
C670 C669 1.384 . S
C670 C673 1.382 . S
C671 C669 1.384 . S
C671 C672 1.381 . S
C671 H689 0.930 . S
C672 C671 1.381 . S
C672 C674 1.381 . S
C672 C675 1.487 . S
C673 C670 1.382 . S
C673 C674 1.387 . S
C673 H690 0.930 . S
C674 C672 1.381 . S
C674 C673 1.387 . S
C674 H691 0.931 . S
C675 C668 1.399 . S
C675 C672 1.487 . S
C675 N692 1.343 . S
H676 C648 0.931 . S
H677 C650 0.930 . S
H678 C652 0.930 . S
H679 C653 0.931 . S
H680 C655 0.931 . S
H681 C657 0.930 . S
H682 C659 0.930 . S
H683 C660 0.931 . S
H684 C662 0.931 . S
H685 C664 0.930 . S
H686 C666 0.930 . S
H687 C667 0.931 . S
H688 C669 0.931 . S
H689 C671 0.930 . S
H690 C673 0.930 . S
H691 C674 0.931 . S
N692 C654 1.343 . S
N692 C675 1.343 . S
N693 C661 1.343 . S
N693 C668 1.343 . S
C694 C695 1.384 . S
C694 C696 1.384 . S
C694 H722 0.931 . S
C695 C694 1.384 . S
C695 C698 1.382 . S
C696 C694 1.384 . S
C696 C697 1.381 . S
C696 H723 0.930 . S
C697 C696 1.381 . S
C697 C699 1.381 . S
C697 C700 1.487 . S
C698 C695 1.382 . S
C698 C699 1.387 . S
C698 H724 0.930 . S
C699 C697 1.381 . S
C699 C698 1.387 . S
C699 H725 0.931 . S
C700 C697 1.487 . S
C700 C707 1.399 . S
C700 N738 1.343 . S
C701 C702 1.384 . S
C701 C703 1.384 . S
C701 H726 0.931 . S
C702 C701 1.384 . S
C702 C705 1.382 . S
C703 C701 1.384 . S
C703 C704 1.381 . S
C703 H727 0.930 . S
C704 C703 1.381 . S
C704 C706 1.381 . S
C704 C707 1.487 . S
C705 C702 1.382 . S
C705 C706 1.387 . S
C705 H728 0.930 . S
C706 C704 1.381 . S
C706 C705 1.387 . S
C706 H729 0.931 . S
C707 C700 1.399 . S
C707 C704 1.487 . S
C707 N739 1.343 . S
C708 C709 1.384 . S
C708 C710 1.384 . S
C708 H730 0.931 . S
C709 C708 1.384 . S
C709 C712 1.382 . S
C710 C708 1.384 . S
C710 C711 1.381 . S
C710 H731 0.930 . S
C711 C710 1.381 . S
C711 C713 1.381 . S
C711 C714 1.487 . S
C712 C709 1.382 . S
C712 C713 1.387 . S
C712 H732 0.930 . S
C713 C711 1.381 . S
C713 C712 1.387 . S
C713 H733 0.931 . S
C714 C711 1.487 . S
C714 C721 1.399 . S
C714 N739 1.343 . S
C715 C716 1.384 . S
C715 C717 1.384 . S
C715 H734 0.931 . S
C716 C715 1.384 . S
C716 C719 1.382 . S
C717 C715 1.384 . S
C717 C718 1.381 . S
C717 H735 0.930 . S
C718 C717 1.381 . S
C718 C720 1.381 . S
C718 C721 1.487 . S
C719 C716 1.382 . S
C719 C720 1.387 . S
C719 H736 0.930 . S
C720 C718 1.381 . S
C720 C719 1.387 . S
C720 H737 0.931 . S
C721 C714 1.399 . S
C721 C718 1.487 . S
C721 N738 1.343 . S
H722 C694 0.931 . S
H723 C696 0.930 . S
H724 C698 0.930 . S
H725 C699 0.931 . S
H726 C701 0.931 . S
H727 C703 0.930 . S
H728 C705 0.930 . S
H729 C706 0.931 . S
H730 C708 0.931 . S
H731 C710 0.930 . S
H732 C712 0.930 . S
H733 C713 0.931 . S
H734 C715 0.931 . S
H735 C717 0.930 . S
H736 C719 0.930 . S
H737 C720 0.931 . S
N738 C700 1.343 . S
N738 C721 1.343 . S
N739 C707 1.343 . S
N739 C714 1.343 . S
C740 C741 1.384 . S
C740 C742 1.384 . S
C740 H768 0.931 . S
C741 C740 1.384 . S
C741 C744 1.382 . S
C742 C740 1.384 . S
C742 C743 1.381 . S
C742 H769 0.930 . S
C743 C742 1.381 . S
C743 C745 1.381 . S
C743 C746 1.487 . S
C744 C741 1.382 . S
C744 C745 1.387 . S
C744 H770 0.930 . S
C745 C743 1.381 . S
C745 C744 1.387 . S
C745 H771 0.931 . S
C746 C743 1.487 . S
C746 C753 1.399 . S
C746 N784 1.343 . S
C747 C748 1.384 . S
C747 C749 1.384 . S
C747 H772 0.931 . S
C748 C747 1.384 . S
C748 C751 1.382 . S
C749 C747 1.384 . S
C749 C750 1.381 . S
C749 H773 0.930 . S
C750 C749 1.381 . S
C750 C752 1.381 . S
C750 C753 1.487 . S
C751 C748 1.382 . S
C751 C752 1.387 . S
C751 H774 0.930 . S
C752 C750 1.381 . S
C752 C751 1.387 . S
C752 H775 0.931 . S
C753 C746 1.399 . S
C753 C750 1.487 . S
C753 N785 1.343 . S
C754 C755 1.384 . S
C754 C756 1.384 . S
C754 H776 0.931 . S
C755 C754 1.384 . S
C755 C758 1.382 . S
C756 C754 1.384 . S
C756 C757 1.381 . S
C756 H777 0.930 . S
C757 C756 1.381 . S
C757 C759 1.381 . S
C757 C760 1.487 . S
C758 C755 1.382 . S
C758 C759 1.387 . S
C758 H778 0.930 . S
C759 C757 1.381 . S
C759 C758 1.387 . S
C759 H779 0.931 . S
C760 C757 1.487 . S
C760 C767 1.399 . S
C760 N785 1.343 . S
C761 C762 1.384 . S
C761 C763 1.384 . S
C761 H780 0.931 . S
C762 C761 1.384 . S
C762 C765 1.382 . S
C763 C761 1.384 . S
C763 C764 1.381 . S
C763 H781 0.930 . S
C764 C763 1.381 . S
C764 C766 1.381 . S
C764 C767 1.487 . S
C765 C762 1.382 . S
C765 C766 1.387 . S
C765 H782 0.930 . S
C766 C764 1.381 . S
C766 C765 1.387 . S
C766 H783 0.931 . S
C767 C760 1.399 . S
C767 C764 1.487 . S
C767 N784 1.343 . S
H768 C740 0.931 . S
H769 C742 0.930 . S
H770 C744 0.930 . S
H771 C745 0.931 . S
H772 C747 0.931 . S
H773 C749 0.930 . S
H774 C751 0.930 . S
H775 C752 0.931 . S
H776 C754 0.931 . S
H777 C756 0.930 . S
H778 C758 0.930 . S
H779 C759 0.931 . S
H780 C761 0.931 . S
H781 C763 0.930 . S
H782 C765 0.930 . S
H783 C766 0.931 . S
N784 C746 1.343 . S
N784 C767 1.343 . S
N785 C753 1.343 . S
N785 C760 1.343 . S
C786 C787 1.384 . S
C786 C788 1.384 . S
C786 H814 0.931 . S
C787 C786 1.384 . S
C787 C790 1.382 . S
C788 C786 1.384 . S
C788 C789 1.381 . S
C788 H815 0.930 . S
C789 C788 1.381 . S
C789 C791 1.381 . S
C789 C792 1.487 . S
C790 C787 1.382 . S
C790 C791 1.387 . S
C790 H816 0.930 . S
C791 C789 1.381 . S
C791 C790 1.387 . S
C791 H817 0.931 . S
C792 C789 1.487 . S
C792 C799 1.399 . S
C792 N830 1.343 . S
C793 C794 1.384 . S
C793 C795 1.384 . S
C793 H818 0.931 . S
C794 C793 1.384 . S
C794 C797 1.382 . S
C795 C793 1.384 . S
C795 C796 1.381 . S
C795 H819 0.930 . S
C796 C795 1.381 . S
C796 C798 1.381 . S
C796 C799 1.487 . S
C797 C794 1.382 . S
C797 C798 1.387 . S
C797 H820 0.930 . S
C798 C796 1.381 . S
C798 C797 1.387 . S
C798 H821 0.931 . S
C799 C792 1.399 . S
C799 C796 1.487 . S
C799 N831 1.343 . S
C800 C801 1.384 . S
C800 C802 1.384 . S
C800 H822 0.931 . S
C801 C800 1.384 . S
C801 C804 1.382 . S
C802 C800 1.384 . S
C802 C803 1.381 . S
C802 H823 0.930 . S
C803 C802 1.381 . S
C803 C805 1.381 . S
C803 C806 1.487 . S
C804 C801 1.382 . S
C804 C805 1.387 . S
C804 H824 0.930 . S
C805 C803 1.381 . S
C805 C804 1.387 . S
C805 H825 0.931 . S
C806 C803 1.487 . S
C806 C813 1.399 . S
C806 N831 1.343 . S
C807 C808 1.384 . S
C807 C809 1.384 . S
C807 H826 0.931 . S
C808 C807 1.384 . S
C808 C811 1.382 . S
C809 C807 1.384 . S
C809 C810 1.381 . S
C809 H827 0.930 . S
C810 C809 1.381 . S
C810 C812 1.381 . S
C810 C813 1.487 . S
C811 C808 1.382 . S
C811 C812 1.387 . S
C811 H828 0.930 . S
C812 C810 1.381 . S
C812 C811 1.387 . S
C812 H829 0.931 . S
C813 C806 1.399 . S
C813 C810 1.487 . S
C813 N830 1.343 . S
H814 C786 0.931 . S
H815 C788 0.930 . S
H816 C790 0.930 . S
H817 C791 0.931 . S
H818 C793 0.931 . S
H819 C795 0.930 . S
H820 C797 0.930 . S
H821 C798 0.931 . S
H822 C800 0.931 . S
H823 C802 0.930 . S
H824 C804 0.930 . S
H825 C805 0.931 . S
H826 C807 0.931 . S
H827 C809 0.930 . S
H828 C811 0.930 . S
H829 C812 0.931 . S
N830 C792 1.343 . S
N830 C813 1.343 . S
N831 C799 1.343 . S
N831 C806 1.343 . S
C832 C833 1.384 . S
C832 C834 1.384 . S
C832 H860 0.931 . S
C833 C832 1.384 . S
C833 C836 1.382 . S
C834 C832 1.384 . S
C834 C835 1.381 . S
C834 H861 0.930 . S
C835 C834 1.381 . S
C835 C837 1.381 . S
C835 C838 1.487 . S
C836 C833 1.382 . S
C836 C837 1.387 . S
C836 H862 0.930 . S
C837 C835 1.381 . S
C837 C836 1.387 . S
C837 H863 0.931 . S
C838 C835 1.487 . S
C838 C845 1.399 . S
C838 N876 1.343 . S
C839 C840 1.384 . S
C839 C841 1.384 . S
C839 H864 0.931 . S
C840 C839 1.384 . S
C840 C843 1.382 . S
C841 C839 1.384 . S
C841 C842 1.381 . S
C841 H865 0.930 . S
C842 C841 1.381 . S
C842 C844 1.381 . S
C842 C845 1.487 . S
C843 C840 1.382 . S
C843 C844 1.387 . S
C843 H866 0.930 . S
C844 C842 1.381 . S
C844 C843 1.387 . S
C844 H867 0.931 . S
C845 C838 1.399 . S
C845 C842 1.487 . S
C845 N877 1.343 . S
C846 C847 1.384 . S
C846 C848 1.384 . S
C846 H868 0.931 . S
C847 C846 1.384 . S
C847 C850 1.382 . S
C848 C846 1.384 . S
C848 C849 1.381 . S
C848 H869 0.930 . S
C849 C848 1.381 . S
C849 C851 1.381 . S
C849 C852 1.487 . S
C850 C847 1.382 . S
C850 C851 1.387 . S
C850 H870 0.930 . S
C851 C849 1.381 . S
C851 C850 1.387 . S
C851 H871 0.931 . S
C852 C849 1.487 . S
C852 C859 1.399 . S
C852 N877 1.343 . S
C853 C854 1.384 . S
C853 C855 1.384 . S
C853 H872 0.931 . S
C854 C853 1.384 . S
C854 C857 1.382 . S
C855 C853 1.384 . S
C855 C856 1.381 . S
C855 H873 0.930 . S
C856 C855 1.381 . S
C856 C858 1.381 . S
C856 C859 1.487 . S
C857 C854 1.382 . S
C857 C858 1.387 . S
C857 H874 0.930 . S
C858 C856 1.381 . S
C858 C857 1.387 . S
C858 H875 0.931 . S
C859 C852 1.399 . S
C859 C856 1.487 . S
C859 N876 1.343 . S
H860 C832 0.931 . S
H861 C834 0.930 . S
H862 C836 0.930 . S
H863 C837 0.931 . S
H864 C839 0.931 . S
H865 C841 0.930 . S
H866 C843 0.930 . S
H867 C844 0.931 . S
H868 C846 0.931 . S
H869 C848 0.930 . S
H870 C850 0.930 . S
H871 C851 0.931 . S
H872 C853 0.931 . S
H873 C855 0.930 . S
H874 C857 0.930 . S
H875 C858 0.931 . S
N876 C838 1.343 . S
N876 C859 1.343 . S
N877 C845 1.343 . S
N877 C852 1.343 . S
C878 C879 1.384 . S
C878 C880 1.384 . S
C878 H906 0.931 . S
C879 C878 1.384 . S
C879 C882 1.382 . S
C880 C878 1.384 . S
C880 C881 1.381 . S
C880 H907 0.930 . S
C881 C880 1.381 . S
C881 C883 1.381 . S
C881 C884 1.487 . S
C882 C879 1.382 . S
C882 C883 1.387 . S
C882 H908 0.930 . S
C883 C881 1.381 . S
C883 C882 1.387 . S
C883 H909 0.931 . S
C884 C881 1.487 . S
C884 C891 1.399 . S
C884 N922 1.343 . S
C885 C886 1.384 . S
C885 C887 1.384 . S
C885 H910 0.931 . S
C886 C885 1.384 . S
C886 C889 1.382 . S
C887 C885 1.384 . S
C887 C888 1.381 . S
C887 H911 0.930 . S
C888 C887 1.381 . S
C888 C890 1.381 . S
C888 C891 1.487 . S
C889 C886 1.382 . S
C889 C890 1.387 . S
C889 H912 0.930 . S
C890 C888 1.381 . S
C890 C889 1.387 . S
C890 H913 0.931 . S
C891 C884 1.399 . S
C891 C888 1.487 . S
C891 N923 1.343 . S
C892 C893 1.384 . S
C892 C894 1.384 . S
C892 H914 0.931 . S
C893 C892 1.384 . S
C893 C896 1.382 . S
C894 C892 1.384 . S
C894 C895 1.381 . S
C894 H915 0.930 . S
C895 C894 1.381 . S
C895 C897 1.381 . S
C895 C898 1.487 . S
C896 C893 1.382 . S
C896 C897 1.387 . S
C896 H916 0.930 . S
C897 C895 1.381 . S
C897 C896 1.387 . S
C897 H917 0.931 . S
C898 C895 1.487 . S
C898 C905 1.399 . S
C898 N923 1.343 . S
C899 C900 1.384 . S
C899 C901 1.384 . S
C899 H918 0.931 . S
C900 C899 1.384 . S
C900 C903 1.382 . S
C901 C899 1.384 . S
C901 C902 1.381 . S
C901 H919 0.930 . S
C902 C901 1.381 . S
C902 C904 1.381 . S
C902 C905 1.487 . S
C903 C900 1.382 . S
C903 C904 1.387 . S
C903 H920 0.930 . S
C904 C902 1.381 . S
C904 C903 1.387 . S
C904 H921 0.931 . S
C905 C898 1.399 . S
C905 C902 1.487 . S
C905 N922 1.343 . S
H906 C878 0.931 . S
H907 C880 0.930 . S
H908 C882 0.930 . S
H909 C883 0.931 . S
H910 C885 0.931 . S
H911 C887 0.930 . S
H912 C889 0.930 . S
H913 C890 0.931 . S
H914 C892 0.931 . S
H915 C894 0.930 . S
H916 C896 0.930 . S
H917 C897 0.931 . S
H918 C899 0.931 . S
H919 C901 0.930 . S
H920 C903 0.930 . S
H921 C904 0.931 . S
N922 C884 1.343 . S
N922 C905 1.343 . S
N923 C891 1.343 . S
N923 C898 1.343 . S
C924 C925 1.384 . S
C924 C926 1.384 . S
C924 H952 0.931 . S
C925 C924 1.384 . S
C925 C928 1.382 . S
C926 C924 1.384 . S
C926 C927 1.381 . S
C926 H953 0.930 . S
C927 C926 1.381 . S
C927 C929 1.381 . S
C927 C930 1.487 . S
C928 C925 1.382 . S
C928 C929 1.387 . S
C928 H954 0.930 . S
C929 C927 1.381 . S
C929 C928 1.387 . S
C929 H955 0.931 . S
C930 C927 1.487 . S
C930 C937 1.399 . S
C930 N968 1.343 . S
C931 C932 1.384 . S
C931 C933 1.384 . S
C931 H956 0.931 . S
C932 C931 1.384 . S
C932 C935 1.382 . S
C933 C931 1.384 . S
C933 C934 1.381 . S
C933 H957 0.930 . S
C934 C933 1.381 . S
C934 C936 1.381 . S
C934 C937 1.487 . S
C935 C932 1.382 . S
C935 C936 1.387 . S
C935 H958 0.930 . S
C936 C934 1.381 . S
C936 C935 1.387 . S
C936 H959 0.931 . S
C937 C930 1.399 . S
C937 C934 1.487 . S
C937 N969 1.343 . S
C938 C939 1.384 . S
C938 C940 1.384 . S
C938 H960 0.931 . S
C939 C938 1.384 . S
C939 C942 1.382 . S
C940 C938 1.384 . S
C940 C941 1.381 . S
C940 H961 0.930 . S
C941 C940 1.381 . S
C941 C943 1.381 . S
C941 C944 1.487 . S
C942 C939 1.382 . S
C942 C943 1.387 . S
C942 H962 0.930 . S
C943 C941 1.381 . S
C943 C942 1.387 . S
C943 H963 0.931 . S
C944 C941 1.487 . S
C944 C951 1.399 . S
C944 N969 1.343 . S
C945 C946 1.384 . S
C945 C947 1.384 . S
C945 H964 0.931 . S
C946 C945 1.384 . S
C946 C949 1.382 . S
C947 C945 1.384 . S
C947 C948 1.381 . S
C947 H965 0.930 . S
C948 C947 1.381 . S
C948 C950 1.381 . S
C948 C951 1.487 . S
C949 C946 1.382 . S
C949 C950 1.387 . S
C949 H966 0.930 . S
C950 C948 1.381 . S
C950 C949 1.387 . S
C950 H967 0.931 . S
C951 C944 1.399 . S
C951 C948 1.487 . S
C951 N968 1.343 . S
H952 C924 0.931 . S
H953 C926 0.930 . S
H954 C928 0.930 . S
H955 C929 0.931 . S
H956 C931 0.931 . S
H957 C933 0.930 . S
H958 C935 0.930 . S
H959 C936 0.931 . S
H960 C938 0.931 . S
H961 C940 0.930 . S
H962 C942 0.930 . S
H963 C943 0.931 . S
H964 C945 0.931 . S
H965 C947 0.930 . S
H966 C949 0.930 . S
H967 C950 0.931 . S
N968 C930 1.343 . S
N968 C951 1.343 . S
N969 C937 1.343 . S
N969 C944 1.343 . S
C970 C971 1.384 . S
C970 C972 1.384 . S
C970 H998 0.931 . S
C971 C970 1.384 . S
C971 C974 1.382 . S
C972 C970 1.384 . S
C972 C973 1.381 . S
C972 H999 0.930 . S
C973 C972 1.381 . S
C973 C975 1.381 . S
C973 C976 1.487 . S
C974 C971 1.382 . S
C974 C975 1.387 . S
C974 H1000 0.930 . S
C975 C973 1.381 . S
C975 C974 1.387 . S
C975 H1001 0.931 . S
C976 C973 1.487 . S
C976 C983 1.399 . S
C976 N1014 1.343 . S
C977 C978 1.384 . S
C977 C979 1.384 . S
C977 H1002 0.931 . S
C978 C977 1.384 . S
C978 C981 1.382 . S
C979 C977 1.384 . S
C979 C980 1.381 . S
C979 H1003 0.930 . S
C980 C979 1.381 . S
C980 C982 1.381 . S
C980 C983 1.487 . S
C981 C978 1.382 . S
C981 C982 1.387 . S
C981 H1004 0.930 . S
C982 C980 1.381 . S
C982 C981 1.387 . S
C982 H1005 0.931 . S
C983 C976 1.399 . S
C983 C980 1.487 . S
C983 N1015 1.343 . S
C984 C985 1.384 . S
C984 C986 1.384 . S
C984 H1006 0.931 . S
C985 C984 1.384 . S
C985 C988 1.382 . S
C986 C984 1.384 . S
C986 C987 1.381 . S
C986 H1007 0.930 . S
C987 C986 1.381 . S
C987 C989 1.381 . S
C987 C990 1.487 . S
C988 C985 1.382 . S
C988 C989 1.387 . S
C988 H1008 0.930 . S
C989 C987 1.381 . S
C989 C988 1.387 . S
C989 H1009 0.931 . S
C990 C987 1.487 . S
C990 C997 1.399 . S
C990 N1015 1.343 . S
C991 C992 1.384 . S
C991 C993 1.384 . S
C991 H1010 0.931 . S
C992 C991 1.384 . S
C992 C995 1.382 . S
C993 C991 1.384 . S
C993 C994 1.381 . S
C993 H1011 0.930 . S
C994 C993 1.381 . S
C994 C996 1.381 . S
C994 C997 1.487 . S
C995 C992 1.382 . S
C995 C996 1.387 . S
C995 H1012 0.930 . S
C996 C994 1.381 . S
C996 C995 1.387 . S
C996 H1013 0.931 . S
C997 C990 1.399 . S
C997 C994 1.487 . S
C997 N1014 1.343 . S
H998 C970 0.931 . S
H999 C972 0.930 . S
H1000 C974 0.930 . S
H1001 C975 0.931 . S
H1002 C977 0.931 . S
H1003 C979 0.930 . S
H1004 C981 0.930 . S
H1005 C982 0.931 . S
H1006 C984 0.931 . S
H1007 C986 0.930 . S
H1008 C988 0.930 . S
H1009 C989 0.931 . S
H1010 C991 0.931 . S
H1011 C993 0.930 . S
H1012 C995 0.930 . S
H1013 C996 0.931 . S
N1014 C976 1.343 . S
N1014 C997 1.343 . S
N1015 C983 1.343 . S
N1015 C990 1.343 . S
C1016 C1017 1.384 . S
C1016 C1018 1.384 . S
C1016 H1044 0.931 . S
C1017 C1016 1.384 . S
C1017 C1020 1.382 . S
C1018 C1016 1.384 . S
C1018 C1019 1.381 . S
C1018 H1045 0.930 . S
C1019 C1018 1.381 . S
C1019 C1021 1.381 . S
C1019 C1022 1.487 . S
C1020 C1017 1.382 . S
C1020 C1021 1.387 . S
C1020 H1046 0.930 . S
C1021 C1019 1.381 . S
C1021 C1020 1.387 . S
C1021 H1047 0.931 . S
C1022 C1019 1.487 . S
C1022 C1029 1.399 . S
C1022 N1060 1.343 . S
C1023 C1024 1.384 . S
C1023 C1025 1.384 . S
C1023 H1048 0.931 . S
C1024 C1023 1.384 . S
C1024 C1027 1.382 . S
C1025 C1023 1.384 . S
C1025 C1026 1.381 . S
C1025 H1049 0.930 . S
C1026 C1025 1.381 . S
C1026 C1028 1.381 . S
C1026 C1029 1.487 . S
C1027 C1024 1.382 . S
C1027 C1028 1.387 . S
C1027 H1050 0.930 . S
C1028 C1026 1.381 . S
C1028 C1027 1.387 . S
C1028 H1051 0.931 . S
C1029 C1022 1.399 . S
C1029 C1026 1.487 . S
C1029 N1061 1.343 . S
C1030 C1031 1.384 . S
C1030 C1032 1.384 . S
C1030 H1052 0.931 . S
C1031 C1030 1.384 . S
C1031 C1034 1.382 . S
C1032 C1030 1.384 . S
C1032 C1033 1.381 . S
C1032 H1053 0.930 . S
C1033 C1032 1.381 . S
C1033 C1035 1.381 . S
C1033 C1036 1.487 . S
C1034 C1031 1.382 . S
C1034 C1035 1.387 . S
C1034 H1054 0.930 . S
C1035 C1033 1.381 . S
C1035 C1034 1.387 . S
C1035 H1055 0.931 . S
C1036 C1033 1.487 . S
C1036 C1043 1.399 . S
C1036 N1061 1.343 . S
C1037 C1038 1.384 . S
C1037 C1039 1.384 . S
C1037 H1056 0.931 . S
C1038 C1037 1.384 . S
C1038 C1041 1.382 . S
C1039 C1037 1.384 . S
C1039 C1040 1.381 . S
C1039 H1057 0.930 . S
C1040 C1039 1.381 . S
C1040 C1042 1.381 . S
C1040 C1043 1.487 . S
C1041 C1038 1.382 . S
C1041 C1042 1.387 . S
C1041 H1058 0.930 . S
C1042 C1040 1.381 . S
C1042 C1041 1.387 . S
C1042 H1059 0.931 . S
C1043 C1036 1.399 . S
C1043 C1040 1.487 . S
C1043 N1060 1.343 . S
H1044 C1016 0.931 . S
H1045 C1018 0.930 . S
H1046 C1020 0.930 . S
H1047 C1021 0.931 . S
H1048 C1023 0.931 . S
H1049 C1025 0.930 . S
H1050 C1027 0.930 . S
H1051 C1028 0.931 . S
H1052 C1030 0.931 . S
H1053 C1032 0.930 . S
H1054 C1034 0.930 . S
H1055 C1035 0.931 . S
H1056 C1037 0.931 . S
H1057 C1039 0.930 . S
H1058 C1041 0.930 . S
H1059 C1042 0.931 . S
N1060 C1022 1.343 . S
N1060 C1043 1.343 . S
N1061 C1029 1.343 . S
N1061 C1036 1.343 . S
C1062 C1063 1.384 . S
C1062 C1064 1.384 . S
C1062 H1090 0.931 . S
C1063 C1062 1.384 . S
C1063 C1066 1.382 1_655 S
C1064 C1062 1.384 . S
C1064 C1065 1.387 1_655 S
C1064 H1091 0.930 . S
C1065 C1064 1.387 1_455 S
C1065 C1067 1.378 . S
C1065 C1068 1.475 . S
C1066 C1063 1.382 1_455 S
C1066 C1067 1.387 . S
C1066 H1092 0.930 . S
C1067 C1065 1.378 . S
C1067 C1066 1.387 . S
C1067 H1093 0.931 . S
C1068 C1065 1.475 . S
C1068 C1075 1.398 1_455 S
C1068 N1106 1.354 . S
C1069 C1070 1.384 . S
C1069 C1071 1.384 . S
C1069 H1094 0.931 . S
C1070 C1069 1.384 . S
C1070 C1073 1.382 1_455 S
C1071 C1069 1.384 . S
C1071 C1072 1.384 . S
C1071 H1095 0.930 . S
C1072 C1071 1.384 . S
C1072 C1074 1.375 1_455 S
C1072 C1075 1.493 1_455 S
C1073 C1070 1.382 1_655 S
C1073 C1074 1.387 . S
C1073 H1096 0.930 . S
C1074 C1072 1.375 1_655 S
C1074 C1073 1.387 . S
C1074 H1097 0.931 . S
C1075 C1068 1.398 1_655 S
C1075 C1072 1.493 1_655 S
C1075 N1107 1.367 . S
C1076 C1077 1.384 . S
C1076 C1078 1.384 . S
C1076 H1098 0.931 . S
C1077 C1076 1.384 . S
C1077 C1080 1.382 1_455 S
C1078 C1076 1.384 . S
C1078 C1079 1.387 . S
C1078 H1099 0.930 . S
C1079 C1078 1.387 . S
C1079 C1081 1.378 1_455 S
C1079 C1082 1.482 1_455 S
C1080 C1077 1.382 1_655 S
C1080 C1081 1.387 . S
C1080 H1100 0.930 . S
C1081 C1079 1.378 1_655 S
C1081 C1080 1.387 . S
C1081 H1101 0.931 . S
C1082 C1079 1.482 1_655 S
C1082 C1089 1.398 1_655 S
C1082 N1107 1.318 . S
C1083 C1084 1.384 . S
C1083 C1085 1.384 . S
C1083 H1102 0.931 . S
C1084 C1083 1.384 . S
C1084 C1087 1.382 1_655 S
C1085 C1083 1.384 . S
C1085 C1086 1.380 . S
C1085 H1103 0.930 . S
C1086 C1085 1.380 . S
C1086 C1088 1.385 1_655 S
C1086 C1089 1.493 1_655 S
C1087 C1084 1.382 1_455 S
C1087 C1088 1.387 . S
C1087 H1104 0.930 . S
C1088 C1086 1.385 1_455 S
C1088 C1087 1.387 . S
C1088 H1105 0.931 . S
C1089 C1082 1.398 1_455 S
C1089 C1086 1.493 1_455 S
C1089 N1106 1.335 . S
H1090 C1062 0.931 . S
H1091 C1064 0.930 . S
H1092 C1066 0.930 . S
H1093 C1067 0.931 . S
H1094 C1069 0.931 . S
H1095 C1071 0.930 . S
H1096 C1073 0.930 . S
H1097 C1074 0.931 . S
H1098 C1076 0.931 . S
H1099 C1078 0.930 . S
H1100 C1080 0.930 . S
H1101 C1081 0.931 . S
H1102 C1083 0.931 . S
H1103 C1085 0.930 . S
H1104 C1087 0.930 . S
H1105 C1088 0.931 . S
N1106 C1068 1.354 . S
N1106 C1089 1.335 . S
N1107 C1075 1.367 . S
N1107 C1082 1.318 . S
C1108 C1109 1.384 . S
C1108 C1110 1.384 . S
C1108 H1136 0.931 . S
C1109 C1108 1.384 . S
C1109 C1112 1.382 . S
C1110 C1108 1.384 . S
C1110 C1111 1.381 . S
C1110 H1137 0.930 . S
C1111 C1110 1.381 . S
C1111 C1113 1.381 . S
C1111 C1114 1.487 . S
C1112 C1109 1.382 . S
C1112 C1113 1.387 . S
C1112 H1138 0.930 . S
C1113 C1111 1.381 . S
C1113 C1112 1.387 . S
C1113 H1139 0.931 . S
C1114 C1111 1.487 . S
C1114 C1121 1.399 . S
C1114 N1152 1.343 . S
C1115 C1116 1.384 . S
C1115 C1117 1.384 . S
C1115 H1140 0.931 . S
C1116 C1115 1.384 . S
C1116 C1119 1.382 . S
C1117 C1115 1.384 . S
C1117 C1118 1.381 . S
C1117 H1141 0.930 . S
C1118 C1117 1.381 . S
C1118 C1120 1.381 . S
C1118 C1121 1.487 . S
C1119 C1116 1.382 . S
C1119 C1120 1.387 . S
C1119 H1142 0.930 . S
C1120 C1118 1.381 . S
C1120 C1119 1.387 . S
C1120 H1143 0.931 . S
C1121 C1114 1.399 . S
C1121 C1118 1.487 . S
C1121 N1153 1.343 . S
C1122 C1123 1.384 . S
C1122 C1124 1.384 . S
C1122 H1144 0.931 . S
C1123 C1122 1.384 . S
C1123 C1126 1.382 . S
C1124 C1122 1.384 . S
C1124 C1125 1.381 . S
C1124 H1145 0.930 . S
C1125 C1124 1.381 . S
C1125 C1127 1.381 . S
C1125 C1128 1.487 . S
C1126 C1123 1.382 . S
C1126 C1127 1.387 . S
C1126 H1146 0.930 . S
C1127 C1125 1.381 . S
C1127 C1126 1.387 . S
C1127 H1147 0.931 . S
C1128 C1125 1.487 . S
C1128 C1135 1.399 . S
C1128 N1153 1.343 . S
C1129 C1130 1.384 . S
C1129 C1131 1.384 . S
C1129 H1148 0.931 . S
C1130 C1129 1.384 . S
C1130 C1133 1.382 . S
C1131 C1129 1.384 . S
C1131 C1132 1.381 . S
C1131 H1149 0.930 . S
C1132 C1131 1.381 . S
C1132 C1134 1.381 . S
C1132 C1135 1.487 . S
C1133 C1130 1.382 . S
C1133 C1134 1.387 . S
C1133 H1150 0.930 . S
C1134 C1132 1.381 . S
C1134 C1133 1.387 . S
C1134 H1151 0.931 . S
C1135 C1128 1.399 . S
C1135 C1132 1.487 . S
C1135 N1152 1.343 . S
H1136 C1108 0.931 . S
H1137 C1110 0.930 . S
H1138 C1112 0.930 . S
H1139 C1113 0.931 . S
H1140 C1115 0.931 . S
H1141 C1117 0.930 . S
H1142 C1119 0.930 . S
H1143 C1120 0.931 . S
H1144 C1122 0.931 . S
H1145 C1124 0.930 . S
H1146 C1126 0.930 . S
H1147 C1127 0.931 . S
H1148 C1129 0.931 . S
H1149 C1131 0.930 . S
H1150 C1133 0.930 . S
H1151 C1134 0.931 . S
N1152 C1114 1.343 . S
N1152 C1135 1.343 . S
N1153 C1121 1.343 . S
N1153 C1128 1.343 . S
C1154 C1155 1.384 1_545 S
C1154 C1156 1.384 . S
C1154 H1182 0.931 . S
C1155 C1154 1.384 1_565 S
C1155 C1158 1.382 . S
C1156 C1154 1.384 . S
C1156 C1157 1.381 1_545 S
C1156 H1183 0.930 . S
C1157 C1156 1.381 1_565 S
C1157 C1159 1.381 . S
C1157 C1160 1.487 . S
C1158 C1155 1.382 . S
C1158 C1159 1.387 . S
C1158 H1184 0.930 . S
C1159 C1157 1.381 . S
C1159 C1158 1.387 . S
C1159 H1185 0.931 . S
C1160 C1157 1.487 . S
C1160 C1167 1.399 1_565 S
C1160 N1198 1.343 . S
C1161 C1162 1.384 1_565 S
C1161 C1163 1.384 . S
C1161 H1186 0.931 . S
C1162 C1161 1.384 1_545 S
C1162 C1165 1.382 . S
C1163 C1161 1.384 . S
C1163 C1164 1.381 1_565 S
C1163 H1187 0.930 . S
C1164 C1163 1.381 1_545 S
C1164 C1166 1.381 . S
C1164 C1167 1.487 . S
C1165 C1162 1.382 . S
C1165 C1166 1.387 . S
C1165 H1188 0.930 . S
C1166 C1164 1.381 . S
C1166 C1165 1.387 . S
C1166 H1189 0.931 . S
C1167 C1160 1.399 1_545 S
C1167 C1164 1.487 . S
C1167 N1199 1.343 . S
C1168 C1169 1.384 1_565 S
C1168 C1170 1.384 . S
C1168 H1190 0.931 . S
C1169 C1168 1.384 1_545 S
C1169 C1172 1.382 . S
C1170 C1168 1.384 . S
C1170 C1171 1.381 1_565 S
C1170 H1191 0.930 . S
C1171 C1170 1.381 1_545 S
C1171 C1173 1.381 . S
C1171 C1174 1.487 . S
C1172 C1169 1.382 . S
C1172 C1173 1.387 . S
C1172 H1192 0.930 . S
C1173 C1171 1.381 . S
C1173 C1172 1.387 . S
C1173 H1193 0.931 . S
C1174 C1171 1.487 . S
C1174 C1181 1.399 1_545 S
C1174 N1199 1.343 . S
C1175 C1176 1.384 1_545 S
C1175 C1177 1.384 . S
C1175 H1194 0.931 . S
C1176 C1175 1.384 1_565 S
C1176 C1179 1.382 . S
C1177 C1175 1.384 . S
C1177 C1178 1.381 1_545 S
C1177 H1195 0.930 . S
C1178 C1177 1.381 1_565 S
C1178 C1180 1.381 . S
C1178 C1181 1.487 . S
C1179 C1176 1.382 . S
C1179 C1180 1.387 . S
C1179 H1196 0.930 . S
C1180 C1178 1.381 . S
C1180 C1179 1.387 . S
C1180 H1197 0.931 . S
C1181 C1174 1.399 1_565 S
C1181 C1178 1.487 . S
C1181 N1198 1.343 . S
H1182 C1154 0.931 . S
H1183 C1156 0.930 . S
H1184 C1158 0.930 . S
H1185 C1159 0.931 . S
H1186 C1161 0.931 . S
H1187 C1163 0.930 . S
H1188 C1165 0.930 . S
H1189 C1166 0.931 . S
H1190 C1168 0.931 . S
H1191 C1170 0.930 . S
H1192 C1172 0.930 . S
H1193 C1173 0.931 . S
H1194 C1175 0.931 . S
H1195 C1177 0.930 . S
H1196 C1179 0.930 . S
H1197 C1180 0.931 . S
N1198 C1160 1.343 . S
N1198 C1181 1.343 . S
N1199 C1167 1.343 . S
N1199 C1174 1.343 . S
C1200 C1201 1.384 . S
C1200 C1202 1.384 . S
C1200 H1228 0.931 . S
C1201 C1200 1.384 . S
C1201 C1204 1.382 1_545 S
C1202 C1200 1.384 . S
C1202 C1203 1.385 . S
C1202 H1229 0.930 . S
C1203 C1202 1.385 . S
C1203 C1205 1.371 1_545 S
C1203 C1206 1.495 1_545 S
C1204 C1201 1.382 1_565 S
C1204 C1205 1.387 . S
C1204 H1230 0.930 . S
C1205 C1203 1.371 1_565 S
C1205 C1204 1.387 . S
C1205 H1231 0.931 . S
C1206 C1203 1.495 1_565 S
C1206 C1213 1.399 1_565 S
C1206 N1244 1.365 . S
C1207 C1208 1.384 . S
C1207 C1209 1.384 . S
C1207 H1232 0.931 . S
C1208 C1207 1.384 . S
C1208 C1211 1.382 1_565 S
C1209 C1207 1.384 . S
C1209 C1210 1.381 . S
C1209 H1233 0.930 . S
C1210 C1209 1.381 . S
C1210 C1212 1.382 1_565 S
C1210 C1213 1.479 1_565 S
C1211 C1208 1.382 1_545 S
C1211 C1212 1.387 . S
C1211 H1234 0.930 . S
C1212 C1210 1.382 1_545 S
C1212 C1211 1.387 . S
C1212 H1235 0.931 . S
C1213 C1206 1.399 1_545 S
C1213 C1210 1.479 1_545 S
C1213 N1245 1.320 . S
C1214 C1215 1.384 . S
C1214 C1216 1.384 . S
C1214 H1236 0.931 . S
C1215 C1214 1.384 . S
C1215 C1218 1.382 1_565 S
C1216 C1214 1.384 . S
C1216 C1217 1.382 . S
C1216 H1237 0.930 . S
C1217 C1216 1.382 . S
C1217 C1219 1.380 1_565 S
C1217 C1220 1.495 1_565 S
C1218 C1215 1.382 1_545 S
C1218 C1219 1.387 . S
C1218 H1238 0.930 . S
C1219 C1217 1.380 1_545 S
C1219 C1218 1.387 . S
C1219 H1239 0.931 . S
C1220 C1217 1.495 1_545 S
C1220 C1227 1.399 1_545 S
C1220 N1245 1.365 . S
C1221 C1222 1.384 . S
C1221 C1223 1.384 . S
C1221 H1240 0.931 . S
C1222 C1221 1.384 . S
C1222 C1225 1.382 1_545 S
C1223 C1221 1.384 . S
C1223 C1224 1.397 . S
C1223 H1241 0.930 . S
C1224 C1223 1.397 . S
C1224 C1226 1.373 1_545 S
C1224 C1227 1.479 1_545 S
C1225 C1222 1.382 1_565 S
C1225 C1226 1.387 . S
C1225 H1242 0.930 . S
C1226 C1224 1.373 1_565 S
C1226 C1225 1.387 . S
C1226 H1243 0.931 . S
C1227 C1220 1.399 1_565 S
C1227 C1224 1.479 1_565 S
C1227 N1244 1.320 . S
H1228 C1200 0.931 . S
H1229 C1202 0.930 . S
H1230 C1204 0.930 . S
H1231 C1205 0.931 . S
H1232 C1207 0.931 . S
H1233 C1209 0.930 . S
H1234 C1211 0.930 . S
H1235 C1212 0.931 . S
H1236 C1214 0.931 . S
H1237 C1216 0.930 . S
H1238 C1218 0.930 . S
H1239 C1219 0.931 . S
H1240 C1221 0.931 . S
H1241 C1223 0.930 . S
H1242 C1225 0.930 . S
H1243 C1226 0.931 . S
N1244 C1206 1.365 . S
N1244 C1227 1.320 . S
N1245 C1213 1.320 . S
N1245 C1220 1.365 . S
C1246 C1247 1.384 . S
C1246 C1248 1.384 . S
C1246 H1274 0.931 . S
C1247 C1246 1.384 . S
C1247 C1250 1.382 1_655 S
C1248 C1246 1.384 . S
C1248 C1249 1.409 . S
C1248 H1275 0.930 . S
C1249 C1248 1.409 . S
C1249 C1251 1.367 1_655 S
C1249 C1252 1.476 1_655 S
C1250 C1247 1.382 1_455 S
C1250 C1251 1.387 . S
C1250 H1276 0.930 . S
C1251 C1249 1.367 1_455 S
C1251 C1250 1.387 . S
C1251 H1277 0.931 . S
C1252 C1249 1.476 1_455 S
C1252 C1259 1.399 1_455 S
C1252 N1290 1.324 . S
C1253 C1254 1.384 . S
C1253 C1255 1.384 . S
C1253 H1278 0.931 . S
C1254 C1253 1.384 . S
C1254 C1257 1.382 1_455 S
C1255 C1253 1.384 . S
C1255 C1256 1.386 . S
C1255 H1279 0.930 . S
C1256 C1255 1.386 . S
C1256 C1258 1.370 1_455 S
C1256 C1259 1.499 1_455 S
C1257 C1254 1.382 1_655 S
C1257 C1258 1.387 . S
C1257 H1280 0.930 . S
C1258 C1256 1.370 1_655 S
C1258 C1257 1.387 . S
C1258 H1281 0.931 . S
C1259 C1252 1.399 1_655 S
C1259 C1256 1.499 1_655 S
C1259 N1291 1.363 . S
C1260 C1261 1.384 . S
C1260 C1262 1.384 . S
C1260 H1282 0.931 . S
C1261 C1260 1.384 . S
C1261 C1264 1.382 1_455 S
C1262 C1260 1.384 . S
C1262 C1263 1.392 . S
C1262 H1283 0.930 . S
C1263 C1262 1.392 . S
C1263 C1265 1.375 1_455 S
C1263 C1266 1.476 1_455 S
C1264 C1261 1.382 1_655 S
C1264 C1265 1.387 . S
C1264 H1284 0.930 . S
C1265 C1263 1.375 1_655 S
C1265 C1264 1.387 . S
C1265 H1285 0.931 . S
C1266 C1263 1.476 1_655 S
C1266 C1273 1.399 1_655 S
C1266 N1291 1.324 . S
C1267 C1268 1.384 . S
C1267 C1269 1.384 . S
C1267 H1286 0.931 . S
C1268 C1267 1.384 . S
C1268 C1271 1.382 1_655 S
C1269 C1267 1.384 . S
C1269 C1270 1.390 . S
C1269 H1287 0.930 . S
C1270 C1269 1.390 . S
C1270 C1272 1.360 1_655 S
C1270 C1273 1.499 1_655 S
C1271 C1268 1.382 1_455 S
C1271 C1272 1.387 . S
C1271 H1288 0.930 . S
C1272 C1270 1.360 1_455 S
C1272 C1271 1.387 . S
C1272 H1289 0.931 . S
C1273 C1266 1.399 1_455 S
C1273 C1270 1.499 1_455 S
C1273 N1290 1.363 . S
H1274 C1246 0.931 . S
H1275 C1248 0.930 . S
H1276 C1250 0.930 . S
H1277 C1251 0.931 . S
H1278 C1253 0.931 . S
H1279 C1255 0.930 . S
H1280 C1257 0.930 . S
H1281 C1258 0.931 . S
H1282 C1260 0.931 . S
H1283 C1262 0.930 . S
H1284 C1264 0.930 . S
H1285 C1265 0.931 . S
H1286 C1267 0.931 . S
H1287 C1269 0.930 . S
H1288 C1271 0.930 . S
H1289 C1272 0.931 . S
N1290 C1252 1.324 . S
N1290 C1273 1.363 . S
N1291 C1259 1.363 . S
N1291 C1266 1.324 . S
C1292 C1293 1.384 . S
C1292 C1294 1.384 . S
C1292 H1320 0.931 . S
C1293 C1292 1.384 . S
C1293 C1296 1.382 . S
C1294 C1292 1.384 . S
C1294 C1295 1.381 . S
C1294 H1321 0.930 . S
C1295 C1294 1.381 . S
C1295 C1297 1.381 . S
C1295 C1298 1.487 . S
C1296 C1293 1.382 . S
C1296 C1297 1.387 . S
C1296 H1322 0.930 . S
C1297 C1295 1.381 . S
C1297 C1296 1.387 . S
C1297 H1323 0.931 . S
C1298 C1295 1.487 . S
C1298 C1305 1.399 . S
C1298 N1336 1.343 . S
C1299 C1300 1.384 . S
C1299 C1301 1.384 . S
C1299 H1324 0.931 . S
C1300 C1299 1.384 . S
C1300 C1303 1.382 . S
C1301 C1299 1.384 . S
C1301 C1302 1.381 . S
C1301 H1325 0.930 . S
C1302 C1301 1.381 . S
C1302 C1304 1.381 . S
C1302 C1305 1.487 . S
C1303 C1300 1.382 . S
C1303 C1304 1.387 . S
C1303 H1326 0.930 . S
C1304 C1302 1.381 . S
C1304 C1303 1.387 . S
C1304 H1327 0.931 . S
C1305 C1298 1.399 . S
C1305 C1302 1.487 . S
C1305 N1337 1.343 . S
C1306 C1307 1.384 . S
C1306 C1308 1.384 . S
C1306 H1328 0.931 . S
C1307 C1306 1.384 . S
C1307 C1310 1.382 . S
C1308 C1306 1.384 . S
C1308 C1309 1.381 . S
C1308 H1329 0.930 . S
C1309 C1308 1.381 . S
C1309 C1311 1.381 . S
C1309 C1312 1.487 . S
C1310 C1307 1.382 . S
C1310 C1311 1.387 . S
C1310 H1330 0.930 . S
C1311 C1309 1.381 . S
C1311 C1310 1.387 . S
C1311 H1331 0.931 . S
C1312 C1309 1.487 . S
C1312 C1319 1.399 . S
C1312 N1337 1.343 . S
C1313 C1314 1.384 . S
C1313 C1315 1.384 . S
C1313 H1332 0.931 . S
C1314 C1313 1.384 . S
C1314 C1317 1.382 . S
C1315 C1313 1.384 . S
C1315 C1316 1.381 . S
C1315 H1333 0.930 . S
C1316 C1315 1.381 . S
C1316 C1318 1.381 . S
C1316 C1319 1.487 . S
C1317 C1314 1.382 . S
C1317 C1318 1.387 . S
C1317 H1334 0.930 . S
C1318 C1316 1.381 . S
C1318 C1317 1.387 . S
C1318 H1335 0.931 . S
C1319 C1312 1.399 . S
C1319 C1316 1.487 . S
C1319 N1336 1.343 . S
H1320 C1292 0.931 . S
H1321 C1294 0.930 . S
H1322 C1296 0.930 . S
H1323 C1297 0.931 . S
H1324 C1299 0.931 . S
H1325 C1301 0.930 . S
H1326 C1303 0.930 . S
H1327 C1304 0.931 . S
H1328 C1306 0.931 . S
H1329 C1308 0.930 . S
H1330 C1310 0.930 . S
H1331 C1311 0.931 . S
H1332 C1313 0.931 . S
H1333 C1315 0.930 . S
H1334 C1317 0.930 . S
H1335 C1318 0.931 . S
N1336 C1298 1.343 . S
N1336 C1319 1.343 . S
N1337 C1305 1.343 . S
N1337 C1312 1.343 . S
C1338 C1339 1.384 . S
C1338 C1340 1.384 . S
C1338 H1366 0.931 . S
C1339 C1338 1.384 . S
C1339 C1342 1.382 . S
C1340 C1338 1.384 . S
C1340 C1341 1.381 . S
C1340 H1367 0.930 . S
C1341 C1340 1.381 . S
C1341 C1343 1.381 . S
C1341 C1344 1.487 . S
C1342 C1339 1.382 . S
C1342 C1343 1.387 . S
C1342 H1368 0.930 . S
C1343 C1341 1.381 . S
C1343 C1342 1.387 . S
C1343 H1369 0.931 . S
C1344 C1341 1.487 . S
C1344 C1351 1.399 . S
C1344 N1382 1.343 . S
C1345 C1346 1.384 . S
C1345 C1347 1.384 . S
C1345 H1370 0.931 . S
C1346 C1345 1.384 . S
C1346 C1349 1.382 . S
C1347 C1345 1.384 . S
C1347 C1348 1.381 . S
C1347 H1371 0.930 . S
C1348 C1347 1.381 . S
C1348 C1350 1.381 . S
C1348 C1351 1.487 . S
C1349 C1346 1.382 . S
C1349 C1350 1.387 . S
C1349 H1372 0.930 . S
C1350 C1348 1.381 . S
C1350 C1349 1.387 . S
C1350 H1373 0.931 . S
C1351 C1344 1.399 . S
C1351 C1348 1.487 . S
C1351 N1383 1.343 . S
C1352 C1353 1.384 . S
C1352 C1354 1.384 . S
C1352 H1374 0.931 . S
C1353 C1352 1.384 . S
C1353 C1356 1.382 . S
C1354 C1352 1.384 . S
C1354 C1355 1.381 . S
C1354 H1375 0.930 . S
C1355 C1354 1.381 . S
C1355 C1357 1.381 . S
C1355 C1358 1.487 . S
C1356 C1353 1.382 . S
C1356 C1357 1.387 . S
C1356 H1376 0.930 . S
C1357 C1355 1.381 . S
C1357 C1356 1.387 . S
C1357 H1377 0.931 . S
C1358 C1355 1.487 . S
C1358 C1365 1.399 . S
C1358 N1383 1.343 . S
C1359 C1360 1.384 . S
C1359 C1361 1.384 . S
C1359 H1378 0.931 . S
C1360 C1359 1.384 . S
C1360 C1363 1.382 . S
C1361 C1359 1.384 . S
C1361 C1362 1.381 . S
C1361 H1379 0.930 . S
C1362 C1361 1.381 . S
C1362 C1364 1.381 . S
C1362 C1365 1.487 . S
C1363 C1360 1.382 . S
C1363 C1364 1.387 . S
C1363 H1380 0.930 . S
C1364 C1362 1.381 . S
C1364 C1363 1.387 . S
C1364 H1381 0.931 . S
C1365 C1358 1.399 . S
C1365 C1362 1.487 . S
C1365 N1382 1.343 . S
H1366 C1338 0.931 . S
H1367 C1340 0.930 . S
H1368 C1342 0.930 . S
H1369 C1343 0.931 . S
H1370 C1345 0.931 . S
H1371 C1347 0.930 . S
H1372 C1349 0.930 . S
H1373 C1350 0.931 . S
H1374 C1352 0.931 . S
H1375 C1354 0.930 . S
H1376 C1356 0.930 . S
H1377 C1357 0.931 . S
H1378 C1359 0.931 . S
H1379 C1361 0.930 . S
H1380 C1363 0.930 . S
H1381 C1364 0.931 . S
N1382 C1344 1.343 . S
N1382 C1365 1.343 . S
N1383 C1351 1.343 . S
N1383 C1358 1.343 . S
C1384 C1385 1.384 . S
C1384 C1386 1.384 . S
C1384 H1412 0.931 . S
C1385 C1384 1.384 . S
C1385 C1388 1.382 . S
C1386 C1384 1.384 . S
C1386 C1387 1.381 . S
C1386 H1413 0.930 . S
C1387 C1386 1.381 . S
C1387 C1389 1.381 . S
C1387 C1390 1.487 . S
C1388 C1385 1.382 . S
C1388 C1389 1.387 . S
C1388 H1414 0.930 . S
C1389 C1387 1.381 . S
C1389 C1388 1.387 . S
C1389 H1415 0.931 . S
C1390 C1387 1.487 . S
C1390 C1397 1.399 . S
C1390 N1428 1.343 . S
C1391 C1392 1.384 . S
C1391 C1393 1.384 . S
C1391 H1416 0.931 . S
C1392 C1391 1.384 . S
C1392 C1395 1.382 . S
C1393 C1391 1.384 . S
C1393 C1394 1.381 . S
C1393 H1417 0.930 . S
C1394 C1393 1.381 . S
C1394 C1396 1.381 . S
C1394 C1397 1.487 . S
C1395 C1392 1.382 . S
C1395 C1396 1.387 . S
C1395 H1418 0.930 . S
C1396 C1394 1.381 . S
C1396 C1395 1.387 . S
C1396 H1419 0.931 . S
C1397 C1390 1.399 . S
C1397 C1394 1.487 . S
C1397 N1429 1.343 . S
C1398 C1399 1.384 . S
C1398 C1400 1.384 . S
C1398 H1420 0.931 . S
C1399 C1398 1.384 . S
C1399 C1402 1.382 . S
C1400 C1398 1.384 . S
C1400 C1401 1.381 . S
C1400 H1421 0.930 . S
C1401 C1400 1.381 . S
C1401 C1403 1.381 . S
C1401 C1404 1.487 . S
C1402 C1399 1.382 . S
C1402 C1403 1.387 . S
C1402 H1422 0.930 . S
C1403 C1401 1.381 . S
C1403 C1402 1.387 . S
C1403 H1423 0.931 . S
C1404 C1401 1.487 . S
C1404 C1411 1.399 . S
C1404 N1429 1.343 . S
C1405 C1406 1.384 . S
C1405 C1407 1.384 . S
C1405 H1424 0.931 . S
C1406 C1405 1.384 . S
C1406 C1409 1.382 . S
C1407 C1405 1.384 . S
C1407 C1408 1.381 . S
C1407 H1425 0.930 . S
C1408 C1407 1.381 . S
C1408 C1410 1.381 . S
C1408 C1411 1.487 . S
C1409 C1406 1.382 . S
C1409 C1410 1.387 . S
C1409 H1426 0.930 . S
C1410 C1408 1.381 . S
C1410 C1409 1.387 . S
C1410 H1427 0.931 . S
C1411 C1404 1.399 . S
C1411 C1408 1.487 . S
C1411 N1428 1.343 . S
H1412 C1384 0.931 . S
H1413 C1386 0.930 . S
H1414 C1388 0.930 . S
H1415 C1389 0.931 . S
H1416 C1391 0.931 . S
H1417 C1393 0.930 . S
H1418 C1395 0.930 . S
H1419 C1396 0.931 . S
H1420 C1398 0.931 . S
H1421 C1400 0.930 . S
H1422 C1402 0.930 . S
H1423 C1403 0.931 . S
H1424 C1405 0.931 . S
H1425 C1407 0.930 . S
H1426 C1409 0.930 . S
H1427 C1410 0.931 . S
N1428 C1390 1.343 . S
N1428 C1411 1.343 . S
N1429 C1397 1.343 . S
N1429 C1404 1.343 . S
C1430 C1431 1.384 . S
C1430 C1432 1.384 . S
C1430 H1458 0.931 . S
C1431 C1430 1.384 . S
C1431 C1434 1.382 . S
C1432 C1430 1.384 . S
C1432 C1433 1.381 . S
C1432 H1459 0.930 . S
C1433 C1432 1.381 . S
C1433 C1435 1.381 . S
C1433 C1436 1.487 . S
C1434 C1431 1.382 . S
C1434 C1435 1.387 . S
C1434 H1460 0.930 . S
C1435 C1433 1.381 . S
C1435 C1434 1.387 . S
C1435 H1461 0.931 . S
C1436 C1433 1.487 . S
C1436 C1443 1.399 . S
C1436 N1474 1.343 . S
C1437 C1438 1.384 . S
C1437 C1439 1.384 . S
C1437 H1462 0.931 . S
C1438 C1437 1.384 . S
C1438 C1441 1.382 . S
C1439 C1437 1.384 . S
C1439 C1440 1.381 . S
C1439 H1463 0.930 . S
C1440 C1439 1.381 . S
C1440 C1442 1.381 . S
C1440 C1443 1.487 . S
C1441 C1438 1.382 . S
C1441 C1442 1.387 . S
C1441 H1464 0.930 . S
C1442 C1440 1.381 . S
C1442 C1441 1.387 . S
C1442 H1465 0.931 . S
C1443 C1436 1.399 . S
C1443 C1440 1.487 . S
C1443 N1475 1.343 . S
C1444 C1445 1.384 . S
C1444 C1446 1.384 . S
C1444 H1466 0.931 . S
C1445 C1444 1.384 . S
C1445 C1448 1.382 . S
C1446 C1444 1.384 . S
C1446 C1447 1.381 . S
C1446 H1467 0.930 . S
C1447 C1446 1.381 . S
C1447 C1449 1.381 . S
C1447 C1450 1.487 . S
C1448 C1445 1.382 . S
C1448 C1449 1.387 . S
C1448 H1468 0.930 . S
C1449 C1447 1.381 . S
C1449 C1448 1.387 . S
C1449 H1469 0.931 . S
C1450 C1447 1.487 . S
C1450 C1457 1.399 . S
C1450 N1475 1.343 . S
C1451 C1452 1.384 . S
C1451 C1453 1.384 . S
C1451 H1470 0.931 . S
C1452 C1451 1.384 . S
C1452 C1455 1.382 . S
C1453 C1451 1.384 . S
C1453 C1454 1.381 . S
C1453 H1471 0.930 . S
C1454 C1453 1.381 . S
C1454 C1456 1.381 . S
C1454 C1457 1.487 . S
C1455 C1452 1.382 . S
C1455 C1456 1.387 . S
C1455 H1472 0.930 . S
C1456 C1454 1.381 . S
C1456 C1455 1.387 . S
C1456 H1473 0.931 . S
C1457 C1450 1.399 . S
C1457 C1454 1.487 . S
C1457 N1474 1.343 . S
H1458 C1430 0.931 . S
H1459 C1432 0.930 . S
H1460 C1434 0.930 . S
H1461 C1435 0.931 . S
H1462 C1437 0.931 . S
H1463 C1439 0.930 . S
H1464 C1441 0.930 . S
H1465 C1442 0.931 . S
H1466 C1444 0.931 . S
H1467 C1446 0.930 . S
H1468 C1448 0.930 . S
H1469 C1449 0.931 . S
H1470 C1451 0.931 . S
H1471 C1453 0.930 . S
H1472 C1455 0.930 . S
H1473 C1456 0.931 . S
N1474 C1436 1.343 . S
N1474 C1457 1.343 . S
N1475 C1443 1.343 . S
N1475 C1450 1.343 . S
H1476 C1482 0.930 . S
H1477 C1486 0.937 . S
H1478 C1491 0.929 . S
H1479 C1489 0.929 . S
H1480 C1484 0.961 . S
H1481 C1490 0.929 . S
C1482 H1476 0.930 . S
C1482 C1483 1.367 . S
C1482 C1490 1.378 . S
C1483 C1482 1.367 . S
C1483 C1491 1.433 . S
C1484 H1480 0.961 . S
C1484 C1486 1.378 . S
C1484 C1488 1.350 . S
C1485 C1488 1.463 . S
C1485 C1490 1.350 . S
C1485 N1493 1.427 . S
C1486 H1477 0.937 . S
C1486 C1484 1.378 . S
C1486 C1487 1.367 . S
C1487 C1486 1.367 . S
C1487 C1489 1.433 . S
C1488 C1484 1.350 . S
C1488 C1485 1.463 . S
C1488 N1492 1.427 . S
C1489 H1479 0.929 . S
C1489 C1487 1.433 . S
C1489 N1492 1.384 . S
C1490 H1481 0.929 . S
C1490 C1482 1.378 . S
C1490 C1485 1.350 . S
C1491 H1478 0.929 . S
C1491 C1483 1.433 . S
C1491 N1493 1.384 . S
N1492 C1488 1.427 . S
N1492 C1489 1.384 . S
N1493 C1485 1.427 . S
N1493 C1491 1.384 . S
H1494 C1500 0.930 . S
H1495 C1504 0.930 . S
H1496 C1509 0.929 . S
H1497 C1507 0.929 . S
H1498 C1502 0.929 . S
H1499 C1508 0.929 . S
C1500 H1494 0.930 . S
C1500 C1501 1.367 . S
C1500 C1508 1.378 . S
C1501 C1500 1.367 . S
C1501 C1509 1.433 . S
C1502 H1498 0.929 . S
C1502 C1504 1.378 . S
C1502 C1506 1.350 . S
C1503 C1506 1.463 . S
C1503 C1508 1.350 . S
C1503 N1511 1.427 . S
C1504 H1495 0.930 . S
C1504 C1502 1.378 . S
C1504 C1505 1.367 . S
C1505 C1504 1.367 . S
C1505 C1507 1.433 . S
C1506 C1502 1.350 . S
C1506 C1503 1.463 . S
C1506 N1510 1.427 . S
C1507 H1497 0.929 . S
C1507 C1505 1.433 . S
C1507 N1510 1.384 . S
C1508 H1499 0.929 . S
C1508 C1500 1.378 . S
C1508 C1503 1.350 . S
C1509 H1496 0.929 . S
C1509 C1501 1.433 . S
C1509 N1511 1.384 . S
N1510 C1506 1.427 . S
N1510 C1507 1.384 . S
N1511 C1503 1.427 . S
N1511 C1509 1.384 . S
H1512 C1518 0.930 . S
H1513 C1522 0.930 . S
H1514 C1527 0.929 . S
H1515 C1525 0.929 . S
H1516 C1520 0.929 . S
H1517 C1526 0.929 . S
C1518 H1512 0.930 . S
C1518 C1519 1.367 . S
C1518 C1526 1.378 . S
C1519 C1518 1.367 . S
C1519 C1527 1.433 1_545 S
C1520 H1516 0.929 . S
C1520 C1522 1.378 . S
C1520 C1524 1.350 1_565 S
C1521 C1524 1.463 . S
C1521 C1526 1.350 . S
C1521 N1529 1.427 1_545 S
C1522 H1513 0.930 . S
C1522 C1520 1.378 . S
C1522 C1523 1.367 1_565 S
C1523 C1522 1.367 1_545 S
C1523 C1525 1.433 . S
C1524 C1520 1.350 1_545 S
C1524 C1521 1.463 . S
C1524 N1528 1.427 . S
C1525 H1515 0.929 . S
C1525 C1523 1.433 . S
C1525 N1528 1.384 . S
C1526 H1517 0.929 . S
C1526 C1518 1.378 . S
C1526 C1521 1.350 . S
C1527 H1514 0.929 . S
C1527 C1519 1.433 1_565 S
C1527 N1529 1.384 . S
N1528 C1524 1.427 . S
N1528 C1525 1.384 . S
N1529 C1521 1.427 1_565 S
N1529 C1527 1.384 . S
H1530 C1536 0.930 . S
H1531 C1540 0.930 . S
H1532 C1545 0.929 . S
H1533 C1543 0.982 1_545 S
H1534 C1538 0.929 . S
H1535 C1544 0.911 . S
C1536 H1530 0.930 . S
C1536 C1537 1.367 . S
C1536 C1544 1.378 . S
C1537 C1536 1.367 . S
C1537 C1545 1.433 . S
C1538 H1534 0.929 . S
C1538 C1540 1.378 . S
C1538 C1542 1.350 . S
C1539 C1542 1.463 . S
C1539 C1544 1.350 . S
C1539 N1547 1.427 . S
C1540 H1531 0.930 . S
C1540 C1538 1.378 . S
C1540 C1541 1.367 . S
C1541 C1540 1.367 . S
C1541 C1543 1.435 . S
C1542 C1538 1.350 . S
C1542 C1539 1.463 . S
C1542 N1546 1.427 . S
C1543 H1533 0.982 1_565 S
C1543 C1541 1.435 . S
C1543 N1546 1.359 . S
C1544 H1535 0.911 . S
C1544 C1536 1.378 . S
C1544 C1539 1.350 . S
C1545 H1532 0.929 . S
C1545 C1537 1.433 . S
C1545 N1547 1.384 . S
N1546 C1542 1.427 . S
N1546 C1543 1.359 . S
N1547 C1539 1.427 . S
N1547 C1545 1.384 . S
H1548 C1554 0.930 . S
H1549 C1558 0.930 . S
H1550 C1563 0.929 . S
H1551 C1561 0.929 . S
H1552 C1556 0.929 . S
H1553 C1562 0.929 . S
C1554 H1548 0.930 . S
C1554 C1555 1.367 1_655 S
C1554 C1562 1.378 . S
C1555 C1554 1.367 1_455 S
C1555 C1563 1.433 . S
C1556 H1552 0.929 . S
C1556 C1558 1.378 . S
C1556 C1560 1.350 . S
C1557 C1560 1.463 . S
C1557 C1562 1.350 1_455 S
C1557 N1565 1.427 . S
C1558 H1549 0.930 . S
C1558 C1556 1.378 . S
C1558 C1559 1.367 . S
C1559 C1558 1.367 . S
C1559 C1561 1.433 1_455 S
C1560 C1556 1.350 . S
C1560 C1557 1.463 . S
C1560 N1564 1.427 1_455 S
C1561 H1551 0.929 . S
C1561 C1559 1.433 1_655 S
C1561 N1564 1.384 . S
C1562 H1553 0.929 . S
C1562 C1554 1.378 . S
C1562 C1557 1.350 1_655 S
C1563 H1550 0.929 . S
C1563 C1555 1.433 . S
C1563 N1565 1.384 . S
N1564 C1560 1.427 1_655 S
N1564 C1561 1.384 . S
N1565 C1557 1.427 . S
N1565 C1563 1.384 . S
H1566 C1572 0.930 . S
H1567 C1576 0.930 . S
H1568 C1581 0.929 . S
H1569 C1579 0.929 . S
H1570 C1574 0.929 . S
H1571 C1580 0.929 . S
C1572 H1566 0.930 . S
C1572 C1573 1.367 . S
C1572 C1580 1.378 . S
C1573 C1572 1.367 . S
C1573 C1581 1.433 . S
C1574 H1570 0.929 . S
C1574 C1576 1.378 . S
C1574 C1578 1.350 . S
C1575 C1578 1.463 . S
C1575 C1580 1.350 . S
C1575 N1583 1.427 . S
C1576 H1567 0.930 . S
C1576 C1574 1.378 . S
C1576 C1577 1.367 . S
C1577 C1576 1.367 . S
C1577 C1579 1.433 . S
C1578 C1574 1.350 . S
C1578 C1575 1.463 . S
C1578 N1582 1.427 . S
C1579 H1569 0.929 . S
C1579 C1577 1.433 . S
C1579 N1582 1.384 . S
C1580 H1571 0.929 . S
C1580 C1572 1.378 . S
C1580 C1575 1.350 . S
C1581 H1568 0.929 . S
C1581 C1573 1.433 . S
C1581 N1583 1.384 . S
N1582 C1578 1.427 . S
N1582 C1579 1.384 . S
N1583 C1575 1.427 . S
N1583 C1581 1.384 . S
H1584 C1590 0.930 . S
H1585 C1594 0.930 . S
H1586 C1599 0.929 . S
H1587 C1597 0.929 . S
H1588 C1592 0.929 . S
H1589 C1598 0.929 . S
C1590 H1584 0.930 . S
C1590 C1591 1.367 . S
C1590 C1598 1.378 . S
C1591 C1590 1.367 . S
C1591 C1599 1.433 1_455 S
C1592 H1588 0.929 . S
C1592 C1594 1.378 . S
C1592 C1596 1.350 1_655 S
C1593 C1596 1.463 . S
C1593 C1598 1.350 . S
C1593 N1601 1.427 1_455 S
C1594 H1585 0.930 . S
C1594 C1592 1.378 . S
C1594 C1595 1.367 1_655 S
C1595 C1594 1.367 1_455 S
C1595 C1597 1.433 . S
C1596 C1592 1.350 1_455 S
C1596 C1593 1.463 . S
C1596 N1600 1.427 . S
C1597 H1587 0.929 . S
C1597 C1595 1.433 . S
C1597 N1600 1.384 . S
C1598 H1589 0.929 . S
C1598 C1590 1.378 . S
C1598 C1593 1.350 . S
C1599 H1586 0.929 . S
C1599 C1591 1.433 1_655 S
C1599 N1601 1.384 . S
N1600 C1596 1.427 . S
N1600 C1597 1.384 . S
N1601 C1593 1.427 1_655 S
N1601 C1599 1.384 . S
H1602 C1608 0.930 . S
H1603 C1612 0.930 . S
H1604 C1617 0.929 . S
H1605 C1615 0.929 . S
H1606 C1610 0.929 . S
H1607 C1616 0.929 . S
C1608 H1602 0.930 . S
C1608 C1609 1.367 . S
C1608 C1616 1.378 . S
C1609 C1608 1.367 . S
C1609 C1617 1.433 . S
C1610 H1606 0.929 . S
C1610 C1612 1.378 . S
C1610 C1614 1.350 . S
C1611 C1614 1.463 . S
C1611 C1616 1.350 . S
C1611 N1619 1.427 . S
C1612 H1603 0.930 . S
C1612 C1610 1.378 . S
C1612 C1613 1.367 . S
C1613 C1612 1.367 . S
C1613 C1615 1.433 . S
C1614 C1610 1.350 . S
C1614 C1611 1.463 . S
C1614 N1618 1.427 . S
C1615 H1605 0.929 . S
C1615 C1613 1.433 . S
C1615 N1618 1.384 . S
C1616 H1607 0.929 . S
C1616 C1608 1.378 . S
C1616 C1611 1.350 . S
C1617 H1604 0.929 . S
C1617 C1609 1.433 . S
C1617 N1619 1.384 . S
N1618 C1614 1.427 . S
N1618 C1615 1.384 . S
N1619 C1611 1.427 . S
N1619 C1617 1.384 . S
H1620 C1626 0.930 . S
H1621 C1630 0.930 . S
H1622 C1635 0.929 . S
H1623 C1633 0.929 . S
H1624 C1628 0.929 . S
H1625 C1634 0.929 . S
C1626 H1620 0.930 . S
C1626 C1627 1.367 1_545 S
C1626 C1634 1.378 . S
C1627 C1626 1.367 1_565 S
C1627 C1635 1.433 . S
C1628 H1624 0.929 . S
C1628 C1630 1.378 . S
C1628 C1632 1.350 . S
C1629 C1632 1.463 . S
C1629 C1634 1.350 1_565 S
C1629 N1637 1.427 . S
C1630 H1621 0.930 . S
C1630 C1628 1.378 . S
C1630 C1631 1.367 . S
C1631 C1630 1.367 . S
C1631 C1633 1.433 1_565 S
C1632 C1628 1.350 . S
C1632 C1629 1.463 . S
C1632 N1636 1.427 1_565 S
C1633 H1623 0.929 . S
C1633 C1631 1.433 1_545 S
C1633 N1636 1.384 . S
C1634 H1625 0.929 . S
C1634 C1626 1.378 . S
C1634 C1629 1.350 1_545 S
C1635 H1622 0.929 . S
C1635 C1627 1.433 . S
C1635 N1637 1.384 . S
N1636 C1632 1.427 1_545 S
N1636 C1633 1.384 . S
N1637 C1629 1.427 . S
N1637 C1635 1.384 . S
H1638 C1644 0.930 . S
H1639 C1648 0.930 . S
H1640 C1653 0.929 . S
H1641 C1651 0.929 . S
H1642 C1646 0.929 . S
H1643 C1652 0.929 . S
C1644 H1638 0.930 . S
C1644 C1645 1.367 . S
C1644 C1652 1.378 . S
C1645 C1644 1.367 . S
C1645 C1653 1.433 . S
C1646 H1642 0.929 . S
C1646 C1648 1.378 . S
C1646 C1650 1.350 . S
C1647 C1650 1.463 . S
C1647 C1652 1.350 . S
C1647 N1655 1.427 . S
C1648 H1639 0.930 . S
C1648 C1646 1.378 . S
C1648 C1649 1.367 . S
C1649 C1648 1.367 . S
C1649 C1651 1.433 . S
C1650 C1646 1.350 . S
C1650 C1647 1.463 . S
C1650 N1654 1.427 . S
C1651 H1641 0.929 . S
C1651 C1649 1.433 . S
C1651 N1654 1.384 . S
C1652 H1643 0.929 . S
C1652 C1644 1.378 . S
C1652 C1647 1.350 . S
C1653 H1640 0.929 . S
C1653 C1645 1.433 . S
C1653 N1655 1.384 . S
N1654 C1650 1.427 . S
N1654 C1651 1.384 . S
N1655 C1647 1.427 . S
N1655 C1653 1.384 . S
H1656 C1662 0.930 . S
H1657 C1666 0.930 . S
H1658 C1671 0.929 . S
H1659 C1669 0.929 . S
H1660 C1664 0.929 . S
H1661 C1670 0.929 . S
C1662 H1656 0.930 . S
C1662 C1663 1.367 . S
C1662 C1670 1.378 . S
C1663 C1662 1.367 . S
C1663 C1671 1.433 1_655 S
C1664 H1660 0.929 . S
C1664 C1666 1.378 . S
C1664 C1668 1.350 1_455 S
C1665 C1668 1.463 . S
C1665 C1670 1.350 . S
C1665 N1673 1.427 1_655 S
C1666 H1657 0.930 . S
C1666 C1664 1.378 . S
C1666 C1667 1.367 1_455 S
C1667 C1666 1.367 1_655 S
C1667 C1669 1.433 . S
C1668 C1664 1.350 1_655 S
C1668 C1665 1.463 . S
C1668 N1672 1.427 . S
C1669 H1659 0.929 . S
C1669 C1667 1.433 . S
C1669 N1672 1.384 . S
C1670 H1661 0.929 . S
C1670 C1662 1.378 . S
C1670 C1665 1.350 . S
C1671 H1658 0.929 . S
C1671 C1663 1.433 1_455 S
C1671 N1673 1.384 . S
N1672 C1668 1.427 . S
N1672 C1669 1.384 . S
N1673 C1665 1.427 1_455 S
N1673 C1671 1.384 . S
H1674 C1680 0.930 . S
H1675 C1684 0.930 . S
H1676 C1689 0.929 . S
H1677 C1687 0.929 . S
H1678 C1682 0.929 . S
H1679 C1688 0.929 . S
C1680 H1674 0.930 . S
C1680 C1681 1.367 . S
C1680 C1688 1.378 . S
C1681 C1680 1.367 . S
C1681 C1689 1.433 . S
C1682 H1678 0.929 . S
C1682 C1684 1.378 . S
C1682 C1686 1.350 . S
C1683 C1686 1.463 . S
C1683 C1688 1.350 . S
C1683 N1691 1.427 . S
C1684 H1675 0.930 . S
C1684 C1682 1.378 . S
C1684 C1685 1.367 . S
C1685 C1684 1.367 . S
C1685 C1687 1.433 . S
C1686 C1682 1.350 . S
C1686 C1683 1.463 . S
C1686 N1690 1.427 . S
C1687 H1677 0.929 . S
C1687 C1685 1.433 . S
C1687 N1690 1.384 . S
C1688 H1679 0.929 . S
C1688 C1680 1.378 . S
C1688 C1683 1.350 . S
C1689 H1676 0.929 . S
C1689 C1681 1.433 . S
C1689 N1691 1.384 . S
N1690 C1686 1.427 . S
N1690 C1687 1.384 . S
N1691 C1683 1.427 . S
N1691 C1689 1.384 . S
H1692 C1698 0.930 . S
H1693 C1702 0.930 . S
H1694 C1707 0.929 . S
H1695 C1705 0.929 . S
H1696 C1700 0.929 . S
H1697 C1706 0.929 . S
C1698 H1692 0.930 . S
C1698 C1699 1.367 . S
C1698 C1706 1.378 . S
C1699 C1698 1.367 . S
C1699 C1707 1.433 . S
C1700 H1696 0.929 . S
C1700 C1702 1.378 . S
C1700 C1704 1.350 . S
C1701 C1704 1.463 . S
C1701 C1706 1.350 . S
C1701 N1709 1.427 . S
C1702 H1693 0.930 . S
C1702 C1700 1.378 . S
C1702 C1703 1.367 . S
C1703 C1702 1.367 . S
C1703 C1705 1.433 . S
C1704 C1700 1.350 . S
C1704 C1701 1.463 . S
C1704 N1708 1.427 . S
C1705 H1695 0.929 . S
C1705 C1703 1.433 . S
C1705 N1708 1.384 . S
C1706 H1697 0.929 . S
C1706 C1698 1.378 . S
C1706 C1701 1.350 . S
C1707 H1694 0.929 . S
C1707 C1699 1.433 . S
C1707 N1709 1.384 . S
N1708 C1704 1.427 . S
N1708 C1705 1.384 . S
N1709 C1701 1.427 . S
N1709 C1707 1.384 . S
H1710 C1716 0.930 . S
H1711 C1720 0.930 . S
H1712 C1725 0.929 . S
H1713 C1723 0.929 . S
H1714 C1718 0.929 . S
H1715 C1724 0.929 . S
C1716 H1710 0.930 . S
C1716 C1717 1.367 . S
C1716 C1724 1.378 . S
C1717 C1716 1.367 . S
C1717 C1725 1.433 . S
C1718 H1714 0.929 . S
C1718 C1720 1.378 . S
C1718 C1722 1.350 . S
C1719 C1722 1.463 . S
C1719 C1724 1.350 . S
C1719 N1727 1.427 . S
C1720 H1711 0.930 . S
C1720 C1718 1.378 . S
C1720 C1721 1.367 . S
C1721 C1720 1.367 . S
C1721 C1723 1.433 . S
C1722 C1718 1.350 . S
C1722 C1719 1.463 . S
C1722 N1726 1.427 . S
C1723 H1713 0.929 . S
C1723 C1721 1.433 . S
C1723 N1726 1.384 . S
C1724 H1715 0.929 . S
C1724 C1716 1.378 . S
C1724 C1719 1.350 . S
C1725 H1712 0.929 . S
C1725 C1717 1.433 . S
C1725 N1727 1.384 . S
N1726 C1722 1.427 . S
N1726 C1723 1.384 . S
N1727 C1719 1.427 . S
N1727 C1725 1.384 . S
H1728 C1734 0.930 . S
H1729 C1738 0.930 . S
H1730 C1743 0.929 . S
H1731 C1741 0.929 . S
H1732 C1736 0.929 . S
H1733 C1742 0.929 . S
C1734 H1728 0.930 . S
C1734 C1735 1.367 . S
C1734 C1742 1.378 . S
C1735 C1734 1.367 . S
C1735 C1743 1.433 . S
C1736 H1732 0.929 . S
C1736 C1738 1.378 . S
C1736 C1740 1.350 . S
C1737 C1740 1.463 . S
C1737 C1742 1.350 . S
C1737 N1745 1.427 . S
C1738 H1729 0.930 . S
C1738 C1736 1.378 . S
C1738 C1739 1.367 . S
C1739 C1738 1.367 . S
C1739 C1741 1.433 . S
C1740 C1736 1.350 . S
C1740 C1737 1.463 . S
C1740 N1744 1.427 . S
C1741 H1731 0.929 . S
C1741 C1739 1.433 . S
C1741 N1744 1.384 . S
C1742 H1733 0.929 . S
C1742 C1734 1.378 . S
C1742 C1737 1.350 . S
C1743 H1730 0.929 . S
C1743 C1735 1.433 . S
C1743 N1745 1.384 . S
N1744 C1740 1.427 . S
N1744 C1741 1.384 . S
N1745 C1737 1.427 . S
N1745 C1743 1.384 . S
H1746 C1752 0.930 . S
H1747 C1756 0.930 . S
H1748 C1761 0.929 . S
H1749 C1759 0.929 . S
H1750 C1754 0.929 . S
H1751 C1760 0.929 . S
C1752 H1746 0.930 . S
C1752 C1753 1.367 . S
C1752 C1760 1.378 . S
C1753 C1752 1.367 . S
C1753 C1761 1.433 . S
C1754 H1750 0.929 . S
C1754 C1756 1.378 . S
C1754 C1758 1.350 . S
C1755 C1758 1.463 . S
C1755 C1760 1.350 . S
C1755 N1763 1.427 . S
C1756 H1747 0.930 . S
C1756 C1754 1.378 . S
C1756 C1757 1.367 . S
C1757 C1756 1.367 . S
C1757 C1759 1.433 . S
C1758 C1754 1.350 . S
C1758 C1755 1.463 . S
C1758 N1762 1.427 . S
C1759 H1749 0.929 . S
C1759 C1757 1.433 . S
C1759 N1762 1.384 . S
C1760 H1751 0.929 . S
C1760 C1752 1.378 . S
C1760 C1755 1.350 . S
C1761 H1748 0.929 . S
C1761 C1753 1.433 . S
C1761 N1763 1.384 . S
N1762 C1758 1.427 . S
N1762 C1759 1.384 . S
N1763 C1755 1.427 . S
N1763 C1761 1.384 . S
H1764 C1770 0.930 . S
H1765 C1774 0.930 . S
H1766 C1779 0.929 . S
H1767 C1777 0.929 . S
H1768 C1772 0.929 . S
H1769 C1778 0.929 . S
C1770 H1764 0.930 . S
C1770 C1771 1.367 . S
C1770 C1778 1.378 . S
C1771 C1770 1.367 . S
C1771 C1779 1.433 . S
C1772 H1768 0.929 . S
C1772 C1774 1.378 . S
C1772 C1776 1.350 . S
C1773 C1776 1.463 . S
C1773 C1778 1.350 . S
C1773 N1781 1.427 . S
C1774 H1765 0.930 . S
C1774 C1772 1.378 . S
C1774 C1775 1.367 . S
C1775 C1774 1.367 . S
C1775 C1777 1.433 . S
C1776 C1772 1.350 . S
C1776 C1773 1.463 . S
C1776 N1780 1.427 . S
C1777 H1767 0.929 . S
C1777 C1775 1.433 . S
C1777 N1780 1.384 . S
C1778 H1769 0.929 . S
C1778 C1770 1.378 . S
C1778 C1773 1.350 . S
C1779 H1766 0.929 . S
C1779 C1771 1.433 . S
C1779 N1781 1.384 . S
N1780 C1776 1.427 . S
N1780 C1777 1.384 . S
N1781 C1773 1.427 . S
N1781 C1779 1.384 . S
H1782 C1788 0.930 . S
H1783 C1792 0.930 . S
H1784 C1797 0.929 . S
H1785 C1795 0.929 . S
H1786 C1790 0.929 . S
H1787 C1796 0.929 . S
C1788 H1782 0.930 . S
C1788 C1789 1.367 . S
C1788 C1796 1.378 . S
C1789 C1788 1.367 . S
C1789 C1797 1.433 . S
C1790 H1786 0.929 . S
C1790 C1792 1.378 . S
C1790 C1794 1.350 . S
C1791 C1794 1.463 . S
C1791 C1796 1.350 . S
C1791 N1799 1.427 . S
C1792 H1783 0.930 . S
C1792 C1790 1.378 . S
C1792 C1793 1.367 . S
C1793 C1792 1.367 . S
C1793 C1795 1.433 . S
C1794 C1790 1.350 . S
C1794 C1791 1.463 . S
C1794 N1798 1.427 . S
C1795 H1785 0.929 . S
C1795 C1793 1.433 . S
C1795 N1798 1.384 . S
C1796 H1787 0.929 . S
C1796 C1788 1.378 . S
C1796 C1791 1.350 . S
C1797 H1784 0.929 . S
C1797 C1789 1.433 . S
C1797 N1799 1.384 . S
N1798 C1794 1.427 . S
N1798 C1795 1.384 . S
N1799 C1791 1.427 . S
N1799 C1797 1.384 . S
H1800 C1806 0.930 . S
H1801 C1810 0.930 . S
H1802 C1815 0.929 . S
H1803 C1813 0.929 . S
H1804 C1808 0.929 . S
H1805 C1814 0.929 . S
C1806 H1800 0.930 . S
C1806 C1807 1.367 . S
C1806 C1814 1.378 . S
C1807 C1806 1.367 . S
C1807 C1815 1.433 . S
C1808 H1804 0.929 . S
C1808 C1810 1.378 . S
C1808 C1812 1.350 . S
C1809 C1812 1.463 . S
C1809 C1814 1.350 . S
C1809 N1817 1.427 . S
C1810 H1801 0.930 . S
C1810 C1808 1.378 . S
C1810 C1811 1.367 . S
C1811 C1810 1.367 . S
C1811 C1813 1.433 . S
C1812 C1808 1.350 . S
C1812 C1809 1.463 . S
C1812 N1816 1.427 . S
C1813 H1803 0.929 . S
C1813 C1811 1.433 . S
C1813 N1816 1.384 . S
C1814 H1805 0.929 . S
C1814 C1806 1.378 . S
C1814 C1809 1.350 . S
C1815 H1802 0.929 . S
C1815 C1807 1.433 . S
C1815 N1817 1.384 . S
N1816 C1812 1.427 . S
N1816 C1813 1.384 . S
N1817 C1809 1.427 . S
N1817 C1815 1.384 . S
H1818 C1824 0.930 . S
H1819 C1828 0.930 . S
H1820 C1833 0.929 . S
H1821 C1831 0.929 . S
H1822 C1826 0.929 . S
H1823 C1832 0.929 . S
C1824 H1818 0.930 . S
C1824 C1825 1.367 . S
C1824 C1832 1.378 . S
C1825 C1824 1.367 . S
C1825 C1833 1.433 . S
C1826 H1822 0.929 . S
C1826 C1828 1.378 . S
C1826 C1830 1.350 . S
C1827 C1830 1.463 . S
C1827 C1832 1.350 . S
C1827 N1835 1.427 . S
C1828 H1819 0.930 . S
C1828 C1826 1.378 . S
C1828 C1829 1.367 . S
C1829 C1828 1.367 . S
C1829 C1831 1.433 . S
C1830 C1826 1.350 . S
C1830 C1827 1.463 . S
C1830 N1834 1.427 . S
C1831 H1821 0.929 . S
C1831 C1829 1.433 . S
C1831 N1834 1.384 . S
C1832 H1823 0.929 . S
C1832 C1824 1.378 . S
C1832 C1827 1.350 . S
C1833 H1820 0.929 . S
C1833 C1825 1.433 . S
C1833 N1835 1.384 . S
N1834 C1830 1.427 . S
N1834 C1831 1.384 . S
N1835 C1827 1.427 . S
N1835 C1833 1.384 . S
H1836 C1842 0.930 . S
H1837 C1846 0.930 . S
H1838 C1851 0.929 . S
H1839 C1849 0.929 . S
H1840 C1844 0.929 . S
H1841 C1850 0.929 . S
C1842 H1836 0.930 . S
C1842 C1843 1.367 . S
C1842 C1850 1.378 . S
C1843 C1842 1.367 . S
C1843 C1851 1.433 . S
C1844 H1840 0.929 . S
C1844 C1846 1.378 . S
C1844 C1848 1.350 . S
C1845 C1848 1.463 . S
C1845 C1850 1.350 . S
C1845 N1853 1.427 . S
C1846 H1837 0.930 . S
C1846 C1844 1.378 . S
C1846 C1847 1.367 . S
C1847 C1846 1.367 . S
C1847 C1849 1.433 . S
C1848 C1844 1.350 . S
C1848 C1845 1.463 . S
C1848 N1852 1.427 . S
C1849 H1839 0.929 . S
C1849 C1847 1.433 . S
C1849 N1852 1.384 . S
C1850 H1841 0.929 . S
C1850 C1842 1.378 . S
C1850 C1845 1.350 . S
C1851 H1838 0.929 . S
C1851 C1843 1.433 . S
C1851 N1853 1.384 . S
N1852 C1848 1.427 . S
N1852 C1849 1.384 . S
N1853 C1845 1.427 . S
N1853 C1851 1.384 . S
H1854 C1860 0.930 . S
H1855 C1864 0.930 . S
H1856 C1869 0.929 . S
H1857 C1867 0.929 . S
H1858 C1862 0.929 . S
H1859 C1868 0.929 . S
C1860 H1854 0.930 . S
C1860 C1861 1.367 . S
C1860 C1868 1.378 . S
C1861 C1860 1.367 . S
C1861 C1869 1.433 . S
C1862 H1858 0.929 . S
C1862 C1864 1.378 . S
C1862 C1866 1.350 . S
C1863 C1866 1.463 . S
C1863 C1868 1.350 . S
C1863 N1871 1.427 . S
C1864 H1855 0.930 . S
C1864 C1862 1.378 . S
C1864 C1865 1.367 . S
C1865 C1864 1.367 . S
C1865 C1867 1.433 . S
C1866 C1862 1.350 . S
C1866 C1863 1.463 . S
C1866 N1870 1.427 . S
C1867 H1857 0.929 . S
C1867 C1865 1.433 . S
C1867 N1870 1.384 . S
C1868 H1859 0.929 . S
C1868 C1860 1.378 . S
C1868 C1863 1.350 . S
C1869 H1856 0.929 . S
C1869 C1861 1.433 . S
C1869 N1871 1.384 . S
N1870 C1866 1.427 . S
N1870 C1867 1.384 . S
N1871 C1863 1.427 . S
N1871 C1869 1.384 . S
H1872 C1878 0.930 . S
H1873 C1882 0.930 . S
H1874 C1887 0.929 . S
H1875 C1885 0.929 . S
H1876 C1880 0.929 . S
H1877 C1886 0.929 . S
C1878 H1872 0.930 . S
C1878 C1879 1.367 . S
C1878 C1886 1.378 . S
C1879 C1878 1.367 . S
C1879 C1887 1.433 . S
C1880 H1876 0.929 . S
C1880 C1882 1.378 . S
C1880 C1884 1.350 . S
C1881 C1884 1.463 . S
C1881 C1886 1.350 . S
C1881 N1889 1.427 . S
C1882 H1873 0.930 . S
C1882 C1880 1.378 . S
C1882 C1883 1.367 . S
C1883 C1882 1.367 . S
C1883 C1885 1.433 . S
C1884 C1880 1.350 . S
C1884 C1881 1.463 . S
C1884 N1888 1.427 . S
C1885 H1875 0.929 . S
C1885 C1883 1.433 . S
C1885 N1888 1.384 . S
C1886 H1877 0.929 . S
C1886 C1878 1.378 . S
C1886 C1881 1.350 . S
C1887 H1874 0.929 . S
C1887 C1879 1.433 . S
C1887 N1889 1.384 . S
N1888 C1884 1.427 . S
N1888 C1885 1.384 . S
N1889 C1881 1.427 . S
N1889 C1887 1.384 . S
H1890 C1896 0.930 . S
H1891 C1900 0.930 . S
H1892 C1905 0.929 . S
H1893 C1903 0.929 . S
H1894 C1898 0.929 . S
H1895 C1904 0.929 . S
C1896 H1890 0.930 . S
C1896 C1897 1.367 . S
C1896 C1904 1.378 . S
C1897 C1896 1.367 . S
C1897 C1905 1.433 . S
C1898 H1894 0.929 . S
C1898 C1900 1.378 . S
C1898 C1902 1.350 . S
C1899 C1902 1.463 . S
C1899 C1904 1.350 . S
C1899 N1907 1.427 . S
C1900 H1891 0.930 . S
C1900 C1898 1.378 . S
C1900 C1901 1.367 . S
C1901 C1900 1.367 . S
C1901 C1903 1.433 . S
C1902 C1898 1.350 . S
C1902 C1899 1.463 . S
C1902 N1906 1.427 . S
C1903 H1893 0.929 . S
C1903 C1901 1.433 . S
C1903 N1906 1.384 . S
C1904 H1895 0.929 . S
C1904 C1896 1.378 . S
C1904 C1899 1.350 . S
C1905 H1892 0.929 . S
C1905 C1897 1.433 . S
C1905 N1907 1.384 . S
N1906 C1902 1.427 . S
N1906 C1903 1.384 . S
N1907 C1899 1.427 . S
N1907 C1905 1.384 . S
H1908 C1914 0.930 . S
H1909 C1918 0.930 . S
H1910 C1923 0.929 . S
H1911 C1921 0.929 . S
H1912 C1916 0.929 . S
H1913 C1922 0.929 . S
C1914 H1908 0.930 . S
C1914 C1915 1.367 . S
C1914 C1922 1.378 . S
C1915 C1914 1.367 . S
C1915 C1923 1.433 . S
C1916 H1912 0.929 . S
C1916 C1918 1.378 . S
C1916 C1920 1.350 . S
C1917 C1920 1.463 . S
C1917 C1922 1.350 . S
C1917 N1925 1.427 . S
C1918 H1909 0.930 . S
C1918 C1916 1.378 . S
C1918 C1919 1.367 . S
C1919 C1918 1.367 . S
C1919 C1921 1.433 . S
C1920 C1916 1.350 . S
C1920 C1917 1.463 . S
C1920 N1924 1.427 . S
C1921 H1911 0.929 . S
C1921 C1919 1.433 . S
C1921 N1924 1.384 . S
C1922 H1913 0.929 . S
C1922 C1914 1.378 . S
C1922 C1917 1.350 . S
C1923 H1910 0.929 . S
C1923 C1915 1.433 . S
C1923 N1925 1.384 . S
N1924 C1920 1.427 . S
N1924 C1921 1.384 . S
N1925 C1917 1.427 . S
N1925 C1923 1.384 . S
H1926 C1932 0.930 . S
H1927 C1936 0.930 . S
H1928 C1941 0.929 . S
H1929 C1939 0.929 . S
H1930 C1934 0.929 . S
H1931 C1940 0.929 . S
C1932 H1926 0.930 . S
C1932 C1933 1.367 . S
C1932 C1940 1.378 . S
C1933 C1932 1.367 . S
C1933 C1941 1.433 . S
C1934 H1930 0.929 . S
C1934 C1936 1.378 . S
C1934 C1938 1.350 . S
C1935 C1938 1.463 . S
C1935 C1940 1.350 . S
C1935 N1943 1.427 . S
C1936 H1927 0.930 . S
C1936 C1934 1.378 . S
C1936 C1937 1.367 . S
C1937 C1936 1.367 . S
C1937 C1939 1.433 . S
C1938 C1934 1.350 . S
C1938 C1935 1.463 . S
C1938 N1942 1.427 . S
C1939 H1929 0.929 . S
C1939 C1937 1.433 . S
C1939 N1942 1.384 . S
C1940 H1931 0.929 . S
C1940 C1932 1.378 . S
C1940 C1935 1.350 . S
C1941 H1928 0.929 . S
C1941 C1933 1.433 . S
C1941 N1943 1.384 . S
N1942 C1938 1.427 . S
N1942 C1939 1.384 . S
N1943 C1935 1.427 . S
N1943 C1941 1.384 . S
H1944 C1950 0.930 . S
H1945 C1954 0.930 . S
H1946 C1959 0.929 . S
H1947 C1957 0.929 . S
H1948 C1952 0.929 . S
H1949 C1958 0.929 . S
C1950 H1944 0.930 . S
C1950 C1951 1.367 . S
C1950 C1958 1.378 . S
C1951 C1950 1.367 . S
C1951 C1959 1.433 . S
C1952 H1948 0.929 . S
C1952 C1954 1.378 . S
C1952 C1956 1.350 . S
C1953 C1956 1.463 . S
C1953 C1958 1.350 . S
C1953 N1961 1.427 . S
C1954 H1945 0.930 . S
C1954 C1952 1.378 . S
C1954 C1955 1.367 . S
C1955 C1954 1.367 . S
C1955 C1957 1.433 . S
C1956 C1952 1.350 . S
C1956 C1953 1.463 . S
C1956 N1960 1.427 . S
C1957 H1947 0.929 . S
C1957 C1955 1.433 . S
C1957 N1960 1.384 . S
C1958 H1949 0.929 . S
C1958 C1950 1.378 . S
C1958 C1953 1.350 . S
C1959 H1946 0.929 . S
C1959 C1951 1.433 . S
C1959 N1961 1.384 . S
N1960 C1956 1.427 . S
N1960 C1957 1.384 . S
N1961 C1953 1.427 . S
N1961 C1959 1.384 . S
H1962 C1968 0.930 . S
H1963 C1972 0.930 . S
H1964 C1977 0.929 . S
H1965 C1975 0.929 . S
H1966 C1970 0.929 . S
H1967 C1976 0.929 . S
C1968 H1962 0.930 . S
C1968 C1969 1.367 . S
C1968 C1976 1.378 . S
C1969 C1968 1.367 . S
C1969 C1977 1.433 . S
C1970 H1966 0.929 . S
C1970 C1972 1.378 . S
C1970 C1974 1.350 . S
C1971 C1974 1.463 . S
C1971 C1976 1.350 . S
C1971 N1979 1.427 . S
C1972 H1963 0.930 . S
C1972 C1970 1.378 . S
C1972 C1973 1.367 . S
C1973 C1972 1.367 . S
C1973 C1975 1.433 . S
C1974 C1970 1.350 . S
C1974 C1971 1.463 . S
C1974 N1978 1.427 . S
C1975 H1965 0.929 . S
C1975 C1973 1.433 . S
C1975 N1978 1.384 . S
C1976 H1967 0.929 . S
C1976 C1968 1.378 . S
C1976 C1971 1.350 . S
C1977 H1964 0.929 . S
C1977 C1969 1.433 . S
C1977 N1979 1.384 . S
N1978 C1974 1.427 . S
N1978 C1975 1.384 . S
N1979 C1971 1.427 . S
N1979 C1977 1.384 . S
H1980 C1986 0.930 . S
H1981 C1990 0.930 . S
H1982 C1995 0.929 . S
H1983 C1993 0.929 . S
H1984 C1988 0.929 . S
H1985 C1994 0.929 . S
C1986 H1980 0.930 . S
C1986 C1987 1.367 . S
C1986 C1994 1.378 . S
C1987 C1986 1.367 . S
C1987 C1995 1.433 . S
C1988 H1984 0.929 . S
C1988 C1990 1.378 . S
C1988 C1992 1.350 . S
C1989 C1992 1.463 . S
C1989 C1994 1.350 . S
C1989 N1997 1.427 . S
C1990 H1981 0.930 . S
C1990 C1988 1.378 . S
C1990 C1991 1.367 . S
C1991 C1990 1.367 . S
C1991 C1993 1.433 . S
C1992 C1988 1.350 . S
C1992 C1989 1.463 . S
C1992 N1996 1.427 . S
C1993 H1983 0.929 . S
C1993 C1991 1.433 . S
C1993 N1996 1.384 . S
C1994 H1985 0.929 . S
C1994 C1986 1.378 . S
C1994 C1989 1.350 . S
C1995 H1982 0.929 . S
C1995 C1987 1.433 . S
C1995 N1997 1.384 . S
N1996 C1992 1.427 . S
N1996 C1993 1.384 . S
N1997 C1989 1.427 . S
N1997 C1995 1.384 . S
H1998 C2004 0.930 . S
H1999 C2008 0.930 . S
H2000 C2013 0.929 . S
H2001 C2011 0.929 . S
H2002 C2006 0.929 . S
H2003 C2012 0.929 . S
C2004 H1998 0.930 . S
C2004 C2005 1.367 . S
C2004 C2012 1.378 . S
C2005 C2004 1.367 . S
C2005 C2013 1.433 . S
C2006 H2002 0.929 . S
C2006 C2008 1.378 . S
C2006 C2010 1.350 . S
C2007 C2010 1.463 . S
C2007 C2012 1.350 . S
C2007 N2015 1.427 . S
C2008 H1999 0.930 . S
C2008 C2006 1.378 . S
C2008 C2009 1.367 . S
C2009 C2008 1.367 . S
C2009 C2011 1.433 . S
C2010 C2006 1.350 . S
C2010 C2007 1.463 . S
C2010 N2014 1.427 . S
C2011 H2001 0.929 . S
C2011 C2009 1.433 . S
C2011 N2014 1.384 . S
C2012 H2003 0.929 . S
C2012 C2004 1.378 . S
C2012 C2007 1.350 . S
C2013 H2000 0.929 . S
C2013 C2005 1.433 . S
C2013 N2015 1.384 . S
N2014 C2010 1.427 . S
N2014 C2011 1.384 . S
N2015 C2007 1.427 . S
N2015 C2013 1.384 . S
H2016 C2022 0.930 . S
H2017 C2026 0.930 . S
H2018 C2031 0.929 . S
H2019 C2029 0.929 . S
H2020 C2024 0.929 . S
H2021 C2030 0.929 . S
C2022 H2016 0.930 . S
C2022 C2023 1.367 . S
C2022 C2030 1.378 . S
C2023 C2022 1.367 . S
C2023 C2031 1.433 . S
C2024 H2020 0.929 . S
C2024 C2026 1.378 . S
C2024 C2028 1.350 . S
C2025 C2028 1.463 . S
C2025 C2030 1.350 . S
C2025 N2033 1.427 . S
C2026 H2017 0.930 . S
C2026 C2024 1.378 . S
C2026 C2027 1.367 . S
C2027 C2026 1.367 . S
C2027 C2029 1.433 . S
C2028 C2024 1.350 . S
C2028 C2025 1.463 . S
C2028 N2032 1.427 . S
C2029 H2019 0.929 . S
C2029 C2027 1.433 . S
C2029 N2032 1.384 . S
C2030 H2021 0.929 . S
C2030 C2022 1.378 . S
C2030 C2025 1.350 . S
C2031 H2018 0.929 . S
C2031 C2023 1.433 . S
C2031 N2033 1.384 . S
N2032 C2028 1.427 . S
N2032 C2029 1.384 . S
N2033 C2025 1.427 . S
N2033 C2031 1.384 . S
H2034 C2040 0.930 . S
H2035 C2044 0.930 . S
H2036 C2049 0.929 . S
H2037 C2047 0.929 . S
H2038 C2042 0.929 . S
H2039 C2048 0.929 . S
C2040 H2034 0.930 . S
C2040 C2041 1.367 . S
C2040 C2048 1.378 . S
C2041 C2040 1.367 . S
C2041 C2049 1.433 . S
C2042 H2038 0.929 . S
C2042 C2044 1.378 . S
C2042 C2046 1.350 . S
C2043 C2046 1.463 . S
C2043 C2048 1.350 . S
C2043 N2051 1.427 . S
C2044 H2035 0.930 . S
C2044 C2042 1.378 . S
C2044 C2045 1.367 . S
C2045 C2044 1.367 . S
C2045 C2047 1.433 . S
C2046 C2042 1.350 . S
C2046 C2043 1.463 . S
C2046 N2050 1.427 . S
C2047 H2037 0.929 . S
C2047 C2045 1.433 . S
C2047 N2050 1.384 . S
C2048 H2039 0.929 . S
C2048 C2040 1.378 . S
C2048 C2043 1.350 . S
C2049 H2036 0.929 . S
C2049 C2041 1.433 . S
C2049 N2051 1.384 . S
N2050 C2046 1.427 . S
N2050 C2047 1.384 . S
N2051 C2043 1.427 . S
N2051 C2049 1.384 . S
H2052 C2058 0.930 . S
H2053 C2062 0.930 . S
H2054 C2067 0.929 . S
H2055 C2065 0.929 . S
H2056 C2060 0.929 . S
H2057 C2066 0.929 . S
C2058 H2052 0.930 . S
C2058 C2059 1.367 . S
C2058 C2066 1.378 . S
C2059 C2058 1.367 . S
C2059 C2067 1.433 . S
C2060 H2056 0.929 . S
C2060 C2062 1.378 . S
C2060 C2064 1.350 . S
C2061 C2064 1.463 . S
C2061 C2066 1.350 . S
C2061 N2069 1.427 . S
C2062 H2053 0.930 . S
C2062 C2060 1.378 . S
C2062 C2063 1.367 . S
C2063 C2062 1.367 . S
C2063 C2065 1.433 . S
C2064 C2060 1.350 . S
C2064 C2061 1.463 . S
C2064 N2068 1.427 . S
C2065 H2055 0.929 . S
C2065 C2063 1.433 . S
C2065 N2068 1.384 . S
C2066 H2057 0.929 . S
C2066 C2058 1.378 . S
C2066 C2061 1.350 . S
C2067 H2054 0.929 . S
C2067 C2059 1.433 . S
C2067 N2069 1.384 . S
N2068 C2064 1.427 . S
N2068 C2065 1.384 . S
N2069 C2061 1.427 . S
N2069 C2067 1.384 . S
H2070 C2076 0.930 . S
H2071 C2080 0.930 . S
H2072 C2085 0.929 . S
H2073 C2083 0.929 . S
H2074 C2078 0.929 . S
H2075 C2084 0.929 . S
C2076 H2070 0.930 . S
C2076 C2077 1.367 . S
C2076 C2084 1.378 . S
C2077 C2076 1.367 . S
C2077 C2085 1.433 . S
C2078 H2074 0.929 . S
C2078 C2080 1.378 . S
C2078 C2082 1.350 . S
C2079 C2082 1.463 . S
C2079 C2084 1.350 . S
C2079 N2087 1.427 . S
C2080 H2071 0.930 . S
C2080 C2078 1.378 . S
C2080 C2081 1.367 . S
C2081 C2080 1.367 . S
C2081 C2083 1.433 . S
C2082 C2078 1.350 . S
C2082 C2079 1.463 . S
C2082 N2086 1.427 . S
C2083 H2073 0.929 . S
C2083 C2081 1.433 . S
C2083 N2086 1.384 . S
C2084 H2075 0.929 . S
C2084 C2076 1.378 . S
C2084 C2079 1.350 . S
C2085 H2072 0.929 . S
C2085 C2077 1.433 . S
C2085 N2087 1.384 . S
N2086 C2082 1.427 . S
N2086 C2083 1.384 . S
N2087 C2079 1.427 . S
N2087 C2085 1.384 . S
H2088 C2094 0.930 . S
H2089 C2098 0.930 . S
H2090 C2103 0.929 . S
H2091 C2101 0.929 . S
H2092 C2096 0.929 . S
H2093 C2102 0.929 . S
C2094 H2088 0.930 . S
C2094 C2095 1.367 . S
C2094 C2102 1.378 . S
C2095 C2094 1.367 . S
C2095 C2103 1.433 . S
C2096 H2092 0.929 . S
C2096 C2098 1.378 . S
C2096 C2100 1.350 . S
C2097 C2100 1.463 . S
C2097 C2102 1.350 . S
C2097 N2105 1.427 . S
C2098 H2089 0.930 . S
C2098 C2096 1.378 . S
C2098 C2099 1.367 . S
C2099 C2098 1.367 . S
C2099 C2101 1.433 . S
C2100 C2096 1.350 . S
C2100 C2097 1.463 . S
C2100 N2104 1.427 . S
C2101 H2091 0.929 . S
C2101 C2099 1.433 . S
C2101 N2104 1.384 . S
C2102 H2093 0.929 . S
C2102 C2094 1.378 . S
C2102 C2097 1.350 . S
C2103 H2090 0.929 . S
C2103 C2095 1.433 . S
C2103 N2105 1.384 . S
N2104 C2100 1.427 . S
N2104 C2101 1.384 . S
N2105 C2097 1.427 . S
N2105 C2103 1.384 . S
H2106 C2112 0.930 . S
H2107 C2116 0.930 . S
H2108 C2121 0.929 . S
H2109 C2119 0.929 . S
H2110 C2114 0.929 . S
H2111 C2120 0.929 . S
C2112 H2106 0.930 . S
C2112 C2113 1.367 . S
C2112 C2120 1.378 . S
C2113 C2112 1.367 . S
C2113 C2121 1.433 . S
C2114 H2110 0.929 . S
C2114 C2116 1.378 . S
C2114 C2118 1.350 . S
C2115 C2118 1.463 . S
C2115 C2120 1.350 . S
C2115 N2123 1.427 . S
C2116 H2107 0.930 . S
C2116 C2114 1.378 . S
C2116 C2117 1.367 . S
C2117 C2116 1.367 . S
C2117 C2119 1.433 . S
C2118 C2114 1.350 . S
C2118 C2115 1.463 . S
C2118 N2122 1.427 . S
C2119 H2109 0.929 . S
C2119 C2117 1.433 . S
C2119 N2122 1.384 . S
C2120 H2111 0.929 . S
C2120 C2112 1.378 . S
C2120 C2115 1.350 . S
C2121 H2108 0.929 . S
C2121 C2113 1.433 . S
C2121 N2123 1.384 . S
N2122 C2118 1.427 . S
N2122 C2119 1.384 . S
N2123 C2115 1.427 . S
N2123 C2121 1.384 . S
H2124 C2130 0.930 . S
H2125 C2134 0.930 . S
H2126 C2139 0.929 . S
H2127 C2137 0.929 . S
H2128 C2132 0.929 . S
H2129 C2138 0.929 . S
C2130 H2124 0.930 . S
C2130 C2131 1.367 . S
C2130 C2138 1.378 . S
C2131 C2130 1.367 . S
C2131 C2139 1.433 . S
C2132 H2128 0.929 . S
C2132 C2134 1.378 . S
C2132 C2136 1.350 . S
C2133 C2136 1.463 . S
C2133 C2138 1.350 . S
C2133 N2141 1.427 . S
C2134 H2125 0.930 . S
C2134 C2132 1.378 . S
C2134 C2135 1.367 . S
C2135 C2134 1.367 . S
C2135 C2137 1.433 . S
C2136 C2132 1.350 . S
C2136 C2133 1.463 . S
C2136 N2140 1.427 . S
C2137 H2127 0.929 . S
C2137 C2135 1.433 . S
C2137 N2140 1.384 . S
C2138 H2129 0.929 . S
C2138 C2130 1.378 . S
C2138 C2133 1.350 . S
C2139 H2126 0.929 . S
C2139 C2131 1.433 . S
C2139 N2141 1.384 . S
N2140 C2136 1.427 . S
N2140 C2137 1.384 . S
N2141 C2133 1.427 . S
N2141 C2139 1.384 . S
H2142 C2148 0.930 . S
H2143 C2152 0.930 . S
H2144 C2157 0.929 . S
H2145 C2155 0.929 . S
H2146 C2150 0.929 . S
H2147 C2156 0.929 . S
C2148 H2142 0.930 . S
C2148 C2149 1.367 . S
C2148 C2156 1.378 . S
C2149 C2148 1.367 . S
C2149 C2157 1.433 . S
C2150 H2146 0.929 . S
C2150 C2152 1.378 . S
C2150 C2154 1.350 . S
C2151 C2154 1.463 . S
C2151 C2156 1.350 . S
C2151 N2159 1.427 . S
C2152 H2143 0.930 . S
C2152 C2150 1.378 . S
C2152 C2153 1.367 . S
C2153 C2152 1.367 . S
C2153 C2155 1.433 . S
C2154 C2150 1.350 . S
C2154 C2151 1.463 . S
C2154 N2158 1.427 . S
C2155 H2145 0.929 . S
C2155 C2153 1.433 . S
C2155 N2158 1.384 . S
C2156 H2147 0.929 . S
C2156 C2148 1.378 . S
C2156 C2151 1.350 . S
C2157 H2144 0.929 . S
C2157 C2149 1.433 . S
C2157 N2159 1.384 . S
N2158 C2154 1.427 . S
N2158 C2155 1.384 . S
N2159 C2151 1.427 . S
N2159 C2157 1.384 . S
H2160 C2166 0.930 . S
H2161 C2170 0.930 . S
H2162 C2175 0.929 . S
H2163 C2173 0.929 . S
H2164 C2168 0.929 . S
H2165 C2174 0.929 . S
C2166 H2160 0.930 . S
C2166 C2167 1.367 . S
C2166 C2174 1.378 . S
C2167 C2166 1.367 . S
C2167 C2175 1.433 . S
C2168 H2164 0.929 . S
C2168 C2170 1.378 . S
C2168 C2172 1.350 . S
C2169 C2172 1.463 . S
C2169 C2174 1.350 . S
C2169 N2177 1.427 . S
C2170 H2161 0.930 . S
C2170 C2168 1.378 . S
C2170 C2171 1.367 . S
C2171 C2170 1.367 . S
C2171 C2173 1.433 . S
C2172 C2168 1.350 . S
C2172 C2169 1.463 . S
C2172 N2176 1.427 . S
C2173 H2163 0.929 . S
C2173 C2171 1.433 . S
C2173 N2176 1.384 . S
C2174 H2165 0.929 . S
C2174 C2166 1.378 . S
C2174 C2169 1.350 . S
C2175 H2162 0.929 . S
C2175 C2167 1.433 . S
C2175 N2177 1.384 . S
N2176 C2172 1.427 . S
N2176 C2173 1.384 . S
N2177 C2169 1.427 . S
N2177 C2175 1.384 . S
H2178 C2184 0.930 . S
H2179 C2188 0.930 . S
H2180 C2193 0.929 1_554 S
H2181 C2191 0.929 . S
H2182 C2186 0.929 . S
H2183 C2192 0.929 . S
C2184 H2178 0.930 . S
C2184 C2185 1.367 . S
C2184 C2192 1.378 . S
C2185 C2184 1.367 . S
C2185 C2193 1.433 . S
C2186 H2182 0.929 . S
C2186 C2188 1.378 . S
C2186 C2190 1.350 . S
C2187 C2190 1.463 . S
C2187 C2192 1.350 . S
C2187 N2195 1.427 . S
C2188 H2179 0.930 . S
C2188 C2186 1.378 . S
C2188 C2189 1.367 . S
C2189 C2188 1.367 . S
C2189 C2191 1.433 . S
C2190 C2186 1.350 . S
C2190 C2187 1.463 . S
C2190 N2194 1.427 . S
C2191 H2181 0.929 . S
C2191 C2189 1.433 . S
C2191 N2194 1.384 . S
C2192 H2183 0.929 . S
C2192 C2184 1.378 . S
C2192 C2187 1.350 . S
C2193 H2180 0.929 1_556 S
C2193 C2185 1.433 . S
C2193 N2195 1.384 . S
N2194 C2190 1.427 . S
N2194 C2191 1.384 . S
N2195 C2187 1.427 . S
N2195 C2193 1.384 . S
H2196 C2202 0.930 . S
H2197 C2206 0.930 . S
H2198 C2211 0.929 . S
H2199 C2209 0.929 . S
H2200 C2204 0.929 . S
H2201 C2210 0.929 . S
C2202 H2196 0.930 . S
C2202 C2203 1.367 . S
C2202 C2210 1.378 . S
C2203 C2202 1.367 . S
C2203 C2211 1.433 . S
C2204 H2200 0.929 . S
C2204 C2206 1.378 . S
C2204 C2208 1.350 . S
C2205 C2208 1.463 . S
C2205 C2210 1.350 . S
C2205 N2213 1.427 . S
C2206 H2197 0.930 . S
C2206 C2204 1.378 . S
C2206 C2207 1.367 . S
C2207 C2206 1.367 . S
C2207 C2209 1.433 . S
C2208 C2204 1.350 . S
C2208 C2205 1.463 . S
C2208 N2212 1.427 . S
C2209 H2199 0.929 . S
C2209 C2207 1.433 . S
C2209 N2212 1.384 . S
C2210 H2201 0.929 . S
C2210 C2202 1.378 . S
C2210 C2205 1.350 . S
C2211 H2198 0.929 . S
C2211 C2203 1.433 . S
C2211 N2213 1.384 . S
N2212 C2208 1.427 . S
N2212 C2209 1.384 . S
N2213 C2205 1.427 . S
N2213 C2211 1.384 . S
H2214 C2220 0.930 . S
H2215 C2224 0.930 . S
H2216 C2229 0.929 . S
H2217 C2227 0.929 . S
H2218 C2222 0.929 . S
H2219 C2228 0.929 . S
C2220 H2214 0.930 . S
C2220 C2221 1.367 . S
C2220 C2228 1.378 . S
C2221 C2220 1.367 . S
C2221 C2229 1.433 . S
C2222 H2218 0.929 . S
C2222 C2224 1.378 . S
C2222 C2226 1.350 . S
C2223 C2226 1.463 . S
C2223 C2228 1.350 . S
C2223 N2231 1.427 . S
C2224 H2215 0.930 . S
C2224 C2222 1.378 . S
C2224 C2225 1.367 . S
C2225 C2224 1.367 . S
C2225 C2227 1.433 . S
C2226 C2222 1.350 . S
C2226 C2223 1.463 . S
C2226 N2230 1.427 . S
C2227 H2217 0.929 . S
C2227 C2225 1.433 . S
C2227 N2230 1.384 . S
C2228 H2219 0.929 . S
C2228 C2220 1.378 . S
C2228 C2223 1.350 . S
C2229 H2216 0.929 . S
C2229 C2221 1.433 . S
C2229 N2231 1.384 . S
N2230 C2226 1.427 . S
N2230 C2227 1.384 . S
N2231 C2223 1.427 . S
N2231 C2229 1.384 . S
H2232 C2238 0.930 1_554 S
H2233 C2242 0.930 . S
H2234 C2247 0.929 . S
H2235 C2245 0.929 . S
H2236 C2240 0.929 . S
H2237 C2246 0.929 . S
C2238 H2232 0.930 1_556 S
C2238 C2239 1.367 . S
C2238 C2246 1.378 . S
C2239 C2238 1.367 . S
C2239 C2247 1.433 . S
C2240 H2236 0.929 . S
C2240 C2242 1.378 . S
C2240 C2244 1.350 . S
C2241 C2244 1.463 . S
C2241 C2246 1.350 . S
C2241 N2249 1.427 . S
C2242 H2233 0.930 . S
C2242 C2240 1.378 . S
C2242 C2243 1.367 . S
C2243 C2242 1.367 . S
C2243 C2245 1.433 . S
C2244 C2240 1.350 . S
C2244 C2241 1.463 . S
C2244 N2248 1.427 . S
C2245 H2235 0.929 . S
C2245 C2243 1.433 . S
C2245 N2248 1.384 . S
C2246 H2237 0.929 . S
C2246 C2238 1.378 . S
C2246 C2241 1.350 . S
C2247 H2234 0.929 . S
C2247 C2239 1.433 . S
C2247 N2249 1.384 . S
N2248 C2244 1.427 . S
N2248 C2245 1.384 . S
N2249 C2241 1.427 . S
N2249 C2247 1.384 . S
H2250 C2256 0.930 1_554 S
H2251 C2260 0.930 . S
H2252 C2265 0.929 . S
H2253 C2263 0.929 . S
H2254 C2258 0.929 . S
H2255 C2264 0.929 . S
C2256 H2250 0.930 1_556 S
C2256 C2257 1.367 . S
C2256 C2264 1.378 . S
C2257 C2256 1.367 . S
C2257 C2265 1.433 . S
C2258 H2254 0.929 . S
C2258 C2260 1.378 . S
C2258 C2262 1.350 . S
C2259 C2262 1.463 . S
C2259 C2264 1.350 . S
C2259 N2267 1.427 . S
C2260 H2251 0.930 . S
C2260 C2258 1.378 . S
C2260 C2261 1.367 . S
C2261 C2260 1.367 . S
C2261 C2263 1.433 . S
C2262 C2258 1.350 . S
C2262 C2259 1.463 . S
C2262 N2266 1.427 . S
C2263 H2253 0.929 . S
C2263 C2261 1.433 . S
C2263 N2266 1.384 . S
C2264 H2255 0.929 . S
C2264 C2256 1.378 . S
C2264 C2259 1.350 . S
C2265 H2252 0.929 . S
C2265 C2257 1.433 . S
C2265 N2267 1.384 . S
N2266 C2262 1.427 . S
N2266 C2263 1.384 . S
N2267 C2259 1.427 . S
N2267 C2265 1.384 . S
H2268 C2274 0.930 . S
H2269 C2278 0.930 . S
H2270 C2283 0.929 . S
H2271 C2281 0.929 . S
H2272 C2276 0.929 . S
H2273 C2282 0.929 . S
C2274 H2268 0.930 . S
C2274 C2275 1.367 . S
C2274 C2282 1.378 . S
C2275 C2274 1.367 . S
C2275 C2283 1.433 . S
C2276 H2272 0.929 . S
C2276 C2278 1.378 . S
C2276 C2280 1.350 . S
C2277 C2280 1.463 . S
C2277 C2282 1.350 . S
C2277 N2285 1.427 . S
C2278 H2269 0.930 . S
C2278 C2276 1.378 . S
C2278 C2279 1.367 . S
C2279 C2278 1.367 . S
C2279 C2281 1.433 . S
C2280 C2276 1.350 . S
C2280 C2277 1.463 . S
C2280 N2284 1.427 . S
C2281 H2271 0.929 . S
C2281 C2279 1.433 . S
C2281 N2284 1.384 . S
C2282 H2273 0.929 . S
C2282 C2274 1.378 . S
C2282 C2277 1.350 . S
C2283 H2270 0.929 . S
C2283 C2275 1.433 . S
C2283 N2285 1.384 . S
N2284 C2280 1.427 . S
N2284 C2281 1.384 . S
N2285 C2277 1.427 . S
N2285 C2283 1.384 . S
H2286 C2292 0.930 . S
H2287 C2296 0.930 . S
H2288 C2301 0.929 . S
H2289 C2299 0.929 . S
H2290 C2294 0.929 . S
H2291 C2300 0.929 . S
C2292 H2286 0.930 . S
C2292 C2293 1.367 . S
C2292 C2300 1.378 . S
C2293 C2292 1.367 . S
C2293 C2301 1.433 . S
C2294 H2290 0.929 . S
C2294 C2296 1.378 . S
C2294 C2298 1.350 . S
C2295 C2298 1.463 . S
C2295 C2300 1.350 . S
C2295 N2303 1.427 . S
C2296 H2287 0.930 . S
C2296 C2294 1.378 . S
C2296 C2297 1.367 . S
C2297 C2296 1.367 . S
C2297 C2299 1.433 . S
C2298 C2294 1.350 . S
C2298 C2295 1.463 . S
C2298 N2302 1.427 . S
C2299 H2289 0.929 . S
C2299 C2297 1.433 . S
C2299 N2302 1.384 . S
C2300 H2291 0.929 . S
C2300 C2292 1.378 . S
C2300 C2295 1.350 . S
C2301 H2288 0.929 . S
C2301 C2293 1.433 . S
C2301 N2303 1.384 . S
N2302 C2298 1.427 . S
N2302 C2299 1.384 . S
N2303 C2295 1.427 . S
N2303 C2301 1.384 . S
H2304 C2310 0.930 . S
H2305 C2314 0.930 . S
H2306 C2319 0.929 . S
H2307 C2317 0.929 . S
H2308 C2312 0.929 . S
H2309 C2318 0.929 . S
C2310 H2304 0.930 . S
C2310 C2311 1.367 . S
C2310 C2318 1.378 . S
C2311 C2310 1.367 . S
C2311 C2319 1.433 . S
C2312 H2308 0.929 . S
C2312 C2314 1.378 . S
C2312 C2316 1.350 . S
C2313 C2316 1.463 . S
C2313 C2318 1.350 . S
C2313 N2321 1.427 . S
C2314 H2305 0.930 . S
C2314 C2312 1.378 . S
C2314 C2315 1.367 . S
C2315 C2314 1.367 . S
C2315 C2317 1.433 . S
C2316 C2312 1.350 . S
C2316 C2313 1.463 . S
C2316 N2320 1.427 . S
C2317 H2307 0.929 . S
C2317 C2315 1.433 . S
C2317 N2320 1.384 . S
C2318 H2309 0.929 . S
C2318 C2310 1.378 . S
C2318 C2313 1.350 . S
C2319 H2306 0.929 . S
C2319 C2311 1.433 . S
C2319 N2321 1.384 . S
N2320 C2316 1.427 . S
N2320 C2317 1.384 . S
N2321 C2313 1.427 . S
N2321 C2319 1.384 . S
H2322 C2328 0.930 . S
H2323 C2332 0.930 . S
H2324 C2337 0.929 . S
H2325 C2335 0.929 . S
H2326 C2330 0.929 . S
H2327 C2336 0.929 . S
C2328 H2322 0.930 . S
C2328 C2329 1.367 . S
C2328 C2336 1.378 . S
C2329 C2328 1.367 . S
C2329 C2337 1.433 . S
C2330 H2326 0.929 . S
C2330 C2332 1.378 . S
C2330 C2334 1.350 . S
C2331 C2334 1.463 . S
C2331 C2336 1.350 . S
C2331 N2339 1.427 . S
C2332 H2323 0.930 . S
C2332 C2330 1.378 . S
C2332 C2333 1.367 . S
C2333 C2332 1.367 . S
C2333 C2335 1.433 . S
C2334 C2330 1.350 . S
C2334 C2331 1.463 . S
C2334 N2338 1.427 . S
C2335 H2325 0.929 . S
C2335 C2333 1.433 . S
C2335 N2338 1.384 . S
C2336 H2327 0.929 . S
C2336 C2328 1.378 . S
C2336 C2331 1.350 . S
C2337 H2324 0.929 . S
C2337 C2329 1.433 . S
C2337 N2339 1.384 . S
N2338 C2334 1.427 . S
N2338 C2335 1.384 . S
N2339 C2331 1.427 . S
N2339 C2337 1.384 . S
H2340 C2346 0.930 . S
H2341 C2350 0.930 . S
H2342 C2355 0.929 . S
H2343 C2353 0.929 . S
H2344 C2348 0.929 . S
H2345 C2354 0.929 . S
C2346 H2340 0.930 . S
C2346 C2347 1.367 . S
C2346 C2354 1.378 . S
C2347 C2346 1.367 . S
C2347 C2355 1.433 . S
C2348 H2344 0.929 . S
C2348 C2350 1.378 . S
C2348 C2352 1.350 . S
C2349 C2352 1.463 . S
C2349 C2354 1.350 . S
C2349 N2357 1.427 . S
C2350 H2341 0.930 . S
C2350 C2348 1.378 . S
C2350 C2351 1.367 . S
C2351 C2350 1.367 . S
C2351 C2353 1.433 . S
C2352 C2348 1.350 . S
C2352 C2349 1.463 . S
C2352 N2356 1.427 . S
C2353 H2343 0.929 . S
C2353 C2351 1.433 . S
C2353 N2356 1.384 . S
C2354 H2345 0.929 . S
C2354 C2346 1.378 . S
C2354 C2349 1.350 . S
C2355 H2342 0.929 . S
C2355 C2347 1.433 . S
C2355 N2357 1.384 . S
N2356 C2352 1.427 . S
N2356 C2353 1.384 . S
N2357 C2349 1.427 . S
N2357 C2355 1.384 . S
H2358 C2364 0.930 . S
H2359 C2368 0.930 . S
H2360 C2373 0.929 . S
H2361 C2371 0.929 . S
H2362 C2366 0.929 . S
H2363 C2372 0.929 . S
C2364 H2358 0.930 . S
C2364 C2365 1.367 . S
C2364 C2372 1.378 . S
C2365 C2364 1.367 . S
C2365 C2373 1.433 . S
C2366 H2362 0.929 . S
C2366 C2368 1.378 . S
C2366 C2370 1.350 . S
C2367 C2370 1.463 . S
C2367 C2372 1.350 . S
C2367 N2375 1.427 . S
C2368 H2359 0.930 . S
C2368 C2366 1.378 . S
C2368 C2369 1.367 . S
C2369 C2368 1.367 . S
C2369 C2371 1.433 . S
C2370 C2366 1.350 . S
C2370 C2367 1.463 . S
C2370 N2374 1.427 . S
C2371 H2361 0.929 . S
C2371 C2369 1.433 . S
C2371 N2374 1.384 . S
C2372 H2363 0.929 . S
C2372 C2364 1.378 . S
C2372 C2367 1.350 . S
C2373 H2360 0.929 . S
C2373 C2365 1.433 . S
C2373 N2375 1.384 . S
N2374 C2370 1.427 . S
N2374 C2371 1.384 . S
N2375 C2367 1.427 . S
N2375 C2373 1.384 . S
H2376 C2382 0.930 . S
H2377 C2386 0.930 . S
H2378 C2391 0.929 . S
H2379 C2389 0.929 . S
H2380 C2384 0.929 . S
H2381 C2390 0.929 . S
C2382 H2376 0.930 . S
C2382 C2383 1.367 . S
C2382 C2390 1.378 . S
C2383 C2382 1.367 . S
C2383 C2391 1.433 . S
C2384 H2380 0.929 . S
C2384 C2386 1.378 . S
C2384 C2388 1.350 . S
C2385 C2388 1.463 . S
C2385 C2390 1.350 . S
C2385 N2393 1.427 . S
C2386 H2377 0.930 . S
C2386 C2384 1.378 . S
C2386 C2387 1.367 . S
C2387 C2386 1.367 . S
C2387 C2389 1.433 . S
C2388 C2384 1.350 . S
C2388 C2385 1.463 . S
C2388 N2392 1.427 . S
C2389 H2379 0.929 . S
C2389 C2387 1.433 . S
C2389 N2392 1.384 . S
C2390 H2381 0.929 . S
C2390 C2382 1.378 . S
C2390 C2385 1.350 . S
C2391 H2378 0.929 . S
C2391 C2383 1.433 . S
C2391 N2393 1.384 . S
N2392 C2388 1.427 . S
N2392 C2389 1.384 . S
N2393 C2385 1.427 . S
N2393 C2391 1.384 . S
H2394 C2400 0.930 . S
H2395 C2404 0.930 . S
H2396 C2409 0.929 . S
H2397 C2407 0.929 . S
H2398 C2402 0.929 . S
H2399 C2408 0.929 . S
C2400 H2394 0.930 . S
C2400 C2401 1.367 1_655 S
C2400 C2408 1.378 . S
C2401 C2400 1.367 1_455 S
C2401 C2409 1.433 . S
C2402 H2398 0.929 . S
C2402 C2404 1.378 . S
C2402 C2406 1.350 . S
C2403 C2406 1.463 . S
C2403 C2408 1.350 1_455 S
C2403 N2411 1.427 . S
C2404 H2395 0.930 . S
C2404 C2402 1.378 . S
C2404 C2405 1.367 . S
C2405 C2404 1.367 . S
C2405 C2407 1.433 1_455 S
C2406 C2402 1.350 . S
C2406 C2403 1.463 . S
C2406 N2410 1.427 1_455 S
C2407 H2397 0.929 . S
C2407 C2405 1.433 1_655 S
C2407 N2410 1.384 . S
C2408 H2399 0.929 . S
C2408 C2400 1.378 . S
C2408 C2403 1.350 1_655 S
C2409 H2396 0.929 . S
C2409 C2401 1.433 . S
C2409 N2411 1.384 . S
N2410 C2406 1.427 1_655 S
N2410 C2407 1.384 . S
N2411 C2403 1.427 . S
N2411 C2409 1.384 . S
H2412 C2418 0.930 . S
H2413 C2422 0.930 . S
H2414 C2427 0.929 . S
H2415 C2425 0.929 . S
H2416 C2420 0.929 . S
H2417 C2426 0.929 . S
C2418 H2412 0.930 . S
C2418 C2419 1.367 . S
C2418 C2426 1.378 . S
C2419 C2418 1.367 . S
C2419 C2427 1.433 . S
C2420 H2416 0.929 . S
C2420 C2422 1.378 . S
C2420 C2424 1.350 . S
C2421 C2424 1.463 . S
C2421 C2426 1.350 . S
C2421 N2429 1.427 . S
C2422 H2413 0.930 . S
C2422 C2420 1.378 . S
C2422 C2423 1.367 . S
C2423 C2422 1.367 . S
C2423 C2425 1.433 . S
C2424 C2420 1.350 . S
C2424 C2421 1.463 . S
C2424 N2428 1.427 . S
C2425 H2415 0.929 . S
C2425 C2423 1.433 . S
C2425 N2428 1.384 . S
C2426 H2417 0.929 . S
C2426 C2418 1.378 . S
C2426 C2421 1.350 . S
C2427 H2414 0.929 . S
C2427 C2419 1.433 . S
C2427 N2429 1.384 . S
N2428 C2424 1.427 . S
N2428 C2425 1.384 . S
N2429 C2421 1.427 . S
N2429 C2427 1.384 . S
H2430 C2436 0.930 1_545 S
H2431 C2440 0.930 . S
H2432 C2445 0.929 . S
H2433 C2443 0.929 . S
H2434 C2438 0.929 . S
H2435 C2444 0.929 1_545 S
C2436 H2430 0.930 1_565 S
C2436 C2437 1.367 . S
C2436 C2444 1.378 . S
C2437 C2436 1.367 . S
C2437 C2445 1.433 . S
C2438 H2434 0.929 . S
C2438 C2440 1.378 . S
C2438 C2442 1.350 . S
C2439 C2442 1.463 . S
C2439 C2444 1.350 . S
C2439 N2447 1.427 . S
C2440 H2431 0.930 . S
C2440 C2438 1.378 . S
C2440 C2441 1.367 . S
C2441 C2440 1.367 . S
C2441 C2443 1.433 1_565 S
C2442 C2438 1.350 . S
C2442 C2439 1.463 . S
C2442 N2446 1.427 1_565 S
C2443 H2433 0.929 . S
C2443 C2441 1.433 1_545 S
C2443 N2446 1.384 . S
C2444 H2435 0.929 1_565 S
C2444 C2436 1.378 . S
C2444 C2439 1.350 . S
C2445 H2432 0.929 . S
C2445 C2437 1.433 . S
C2445 N2447 1.384 . S
N2446 C2442 1.427 1_545 S
N2446 C2443 1.384 . S
N2447 C2439 1.427 . S
N2447 C2445 1.384 . S
H2448 C2454 0.930 . S
H2449 C2458 0.930 . S
H2450 C2463 0.929 1_545 S
H2451 C2461 0.929 . S
H2452 C2456 0.929 . S
H2453 C2462 0.929 . S
C2454 H2448 0.930 . S
C2454 C2455 1.367 . S
C2454 C2462 1.378 . S
C2455 C2454 1.367 . S
C2455 C2463 1.433 . S
C2456 H2452 0.929 . S
C2456 C2458 1.378 . S
C2456 C2460 1.350 1_545 S
C2457 C2460 1.463 . S
C2457 C2462 1.350 . S
C2457 N2465 1.427 . S
C2458 H2449 0.930 . S
C2458 C2456 1.378 . S
C2458 C2459 1.367 1_545 S
C2459 C2458 1.367 1_565 S
C2459 C2461 1.433 . S
C2460 C2456 1.350 1_565 S
C2460 C2457 1.463 . S
C2460 N2464 1.427 . S
C2461 H2451 0.929 . S
C2461 C2459 1.433 . S
C2461 N2464 1.384 . S
C2462 H2453 0.929 . S
C2462 C2454 1.378 . S
C2462 C2457 1.350 . S
C2463 H2450 0.929 1_565 S
C2463 C2455 1.433 . S
C2463 N2465 1.384 . S
N2464 C2460 1.427 . S
N2464 C2461 1.384 . S
N2465 C2457 1.427 . S
N2465 C2463 1.384 . S
H2466 C2472 0.930 . S
H2467 C2476 0.930 . S
H2468 C2481 0.929 . S
H2469 C2479 0.929 . S
H2470 C2474 0.929 . S
H2471 C2480 0.929 . S
C2472 H2466 0.930 . S
C2472 C2473 1.367 . S
C2472 C2480 1.378 . S
C2473 C2472 1.367 . S
C2473 C2481 1.433 1_455 S
C2474 H2470 0.929 . S
C2474 C2476 1.378 . S
C2474 C2478 1.350 1_655 S
C2475 C2478 1.463 . S
C2475 C2480 1.350 . S
C2475 N2483 1.427 1_455 S
C2476 H2467 0.930 . S
C2476 C2474 1.378 . S
C2476 C2477 1.367 1_655 S
C2477 C2476 1.367 1_455 S
C2477 C2479 1.433 . S
C2478 C2474 1.350 1_455 S
C2478 C2475 1.463 . S
C2478 N2482 1.427 . S
C2479 H2469 0.929 . S
C2479 C2477 1.433 . S
C2479 N2482 1.384 . S
C2480 H2471 0.929 . S
C2480 C2472 1.378 . S
C2480 C2475 1.350 . S
C2481 H2468 0.929 . S
C2481 C2473 1.433 1_655 S
C2481 N2483 1.384 . S
N2482 C2478 1.427 . S
N2482 C2479 1.384 . S
N2483 C2475 1.427 1_655 S
N2483 C2481 1.384 . S
H2484 C2490 0.930 . S
H2485 C2494 0.930 . S
H2486 C2499 0.929 . S
H2487 C2497 0.929 . S
H2488 C2492 0.929 . S
H2489 C2498 0.929 . S
C2490 H2484 0.930 . S
C2490 C2491 1.367 . S
C2490 C2498 1.378 . S
C2491 C2490 1.367 . S
C2491 C2499 1.433 . S
C2492 H2488 0.929 . S
C2492 C2494 1.378 . S
C2492 C2496 1.350 . S
C2493 C2496 1.463 . S
C2493 C2498 1.350 . S
C2493 N2501 1.427 . S
C2494 H2485 0.930 . S
C2494 C2492 1.378 . S
C2494 C2495 1.367 . S
C2495 C2494 1.367 . S
C2495 C2497 1.433 . S
C2496 C2492 1.350 . S
C2496 C2493 1.463 . S
C2496 N2500 1.427 . S
C2497 H2487 0.929 . S
C2497 C2495 1.433 . S
C2497 N2500 1.384 . S
C2498 H2489 0.929 . S
C2498 C2490 1.378 . S
C2498 C2493 1.350 . S
C2499 H2486 0.929 . S
C2499 C2491 1.433 . S
C2499 N2501 1.384 . S
N2500 C2496 1.427 . S
N2500 C2497 1.384 . S
N2501 C2493 1.427 . S
N2501 C2499 1.384 . S
H2502 C2508 0.930 . S
H2503 C2512 0.930 . S
H2504 C2517 0.929 . S
H2505 C2515 0.929 . S
H2506 C2510 0.929 . S
H2507 C2516 0.929 . S
C2508 H2502 0.930 . S
C2508 C2509 1.367 . S
C2508 C2516 1.378 . S
C2509 C2508 1.367 . S
C2509 C2517 1.433 . S
C2510 H2506 0.929 . S
C2510 C2512 1.378 . S
C2510 C2514 1.350 . S
C2511 C2514 1.463 . S
C2511 C2516 1.350 . S
C2511 N2519 1.427 . S
C2512 H2503 0.930 . S
C2512 C2510 1.378 . S
C2512 C2513 1.367 . S
C2513 C2512 1.367 . S
C2513 C2515 1.433 . S
C2514 C2510 1.350 . S
C2514 C2511 1.463 . S
C2514 N2518 1.427 . S
C2515 H2505 0.929 . S
C2515 C2513 1.433 . S
C2515 N2518 1.384 . S
C2516 H2507 0.929 . S
C2516 C2508 1.378 . S
C2516 C2511 1.350 . S
C2517 H2504 0.929 . S
C2517 C2509 1.433 . S
C2517 N2519 1.384 . S
N2518 C2514 1.427 . S
N2518 C2515 1.384 . S
N2519 C2511 1.427 . S
N2519 C2517 1.384 . S
H2520 C2526 0.930 . S
H2521 C2530 0.930 . S
H2522 C2535 0.929 . S
H2523 C2533 0.929 . S
H2524 C2528 0.929 . S
H2525 C2534 0.929 . S
C2526 H2520 0.930 . S
C2526 C2527 1.367 . S
C2526 C2534 1.378 . S
C2527 C2526 1.367 . S
C2527 C2535 1.433 . S
C2528 H2524 0.929 . S
C2528 C2530 1.378 . S
C2528 C2532 1.350 . S
C2529 C2532 1.463 . S
C2529 C2534 1.350 . S
C2529 N2537 1.427 . S
C2530 H2521 0.930 . S
C2530 C2528 1.378 . S
C2530 C2531 1.367 . S
C2531 C2530 1.367 . S
C2531 C2533 1.433 . S
C2532 C2528 1.350 . S
C2532 C2529 1.463 . S
C2532 N2536 1.427 . S
C2533 H2523 0.929 . S
C2533 C2531 1.433 . S
C2533 N2536 1.384 . S
C2534 H2525 0.929 . S
C2534 C2526 1.378 . S
C2534 C2529 1.350 . S
C2535 H2522 0.929 . S
C2535 C2527 1.433 . S
C2535 N2537 1.384 . S
N2536 C2532 1.427 . S
N2536 C2533 1.384 . S
N2537 C2529 1.427 . S
N2537 C2535 1.384 . S
H2538 C2544 0.930 . S
H2539 C2548 0.930 . S
H2540 C2553 0.929 . S
H2541 C2551 0.929 . S
H2542 C2546 0.929 . S
H2543 C2552 0.929 . S
C2544 H2538 0.930 . S
C2544 C2545 1.367 . S
C2544 C2552 1.378 . S
C2545 C2544 1.367 . S
C2545 C2553 1.433 . S
C2546 H2542 0.929 . S
C2546 C2548 1.378 . S
C2546 C2550 1.350 . S
C2547 C2550 1.463 . S
C2547 C2552 1.350 . S
C2547 N2555 1.427 . S
C2548 H2539 0.930 . S
C2548 C2546 1.378 . S
C2548 C2549 1.367 . S
C2549 C2548 1.367 . S
C2549 C2551 1.433 . S
C2550 C2546 1.350 . S
C2550 C2547 1.463 . S
C2550 N2554 1.427 . S
C2551 H2541 0.929 . S
C2551 C2549 1.433 . S
C2551 N2554 1.384 . S
C2552 H2543 0.929 . S
C2552 C2544 1.378 . S
C2552 C2547 1.350 . S
C2553 H2540 0.929 . S
C2553 C2545 1.433 . S
C2553 N2555 1.384 . S
N2554 C2550 1.427 . S
N2554 C2551 1.384 . S
N2555 C2547 1.427 . S
N2555 C2553 1.384 . S
H2556 C2562 0.930 . S
H2557 C2566 0.930 . S
H2558 C2571 0.929 . S
H2559 C2569 0.929 . S
H2560 C2564 0.929 . S
H2561 C2570 0.929 . S
C2562 H2556 0.930 . S
C2562 C2563 1.367 . S
C2562 C2570 1.378 . S
C2563 C2562 1.367 . S
C2563 C2571 1.433 1_545 S
C2564 H2560 0.929 . S
C2564 C2566 1.378 . S
C2564 C2568 1.350 1_565 S
C2565 C2568 1.463 . S
C2565 C2570 1.350 . S
C2565 N2573 1.427 1_545 S
C2566 H2557 0.930 . S
C2566 C2564 1.378 . S
C2566 C2567 1.367 1_565 S
C2567 C2566 1.367 1_545 S
C2567 C2569 1.433 . S
C2568 C2564 1.350 1_545 S
C2568 C2565 1.463 . S
C2568 N2572 1.427 . S
C2569 H2559 0.929 . S
C2569 C2567 1.433 . S
C2569 N2572 1.384 . S
C2570 H2561 0.929 . S
C2570 C2562 1.378 . S
C2570 C2565 1.350 . S
C2571 H2558 0.929 . S
C2571 C2563 1.433 1_565 S
C2571 N2573 1.384 . S
N2572 C2568 1.427 . S
N2572 C2569 1.384 . S
N2573 C2565 1.427 1_565 S
N2573 C2571 1.384 . S
H2574 C2580 0.930 . S
H2575 C2584 0.927 1_455 S
H2576 C2589 0.929 . S
H2577 C2587 0.929 . S
H2578 C2582 0.889 1_455 S
H2579 C2588 0.929 . S
C2580 H2574 0.930 . S
C2580 C2581 1.367 . S
C2580 C2588 1.378 . S
C2581 C2580 1.367 . S
C2581 C2589 1.433 . S
C2582 H2578 0.889 1_655 S
C2582 C2584 1.373 . S
C2582 C2586 1.350 . S
C2583 C2586 1.463 . S
C2583 C2588 1.350 . S
C2583 N2591 1.427 . S
C2584 H2575 0.927 1_655 S
C2584 C2582 1.373 . S
C2584 C2585 1.376 . S
C2585 C2584 1.376 . S
C2585 C2587 1.433 . S
C2586 C2582 1.350 . S
C2586 C2583 1.463 . S
C2586 N2590 1.427 . S
C2587 H2577 0.929 . S
C2587 C2585 1.433 . S
C2587 N2590 1.384 . S
C2588 H2579 0.929 . S
C2588 C2580 1.378 . S
C2588 C2583 1.350 . S
C2589 H2576 0.929 . S
C2589 C2581 1.433 . S
C2589 N2591 1.384 . S
N2590 C2586 1.427 . S
N2590 C2587 1.384 . S
N2591 C2583 1.427 . S
N2591 C2589 1.384 . S
H2592 C2598 0.930 . S
H2593 C2602 0.930 . S
H2594 C2607 0.929 . S
H2595 C2605 0.929 . S
H2596 C2600 0.929 . S
H2597 C2606 0.929 . S
C2598 H2592 0.930 . S
C2598 C2599 1.367 . S
C2598 C2606 1.378 . S
C2599 C2598 1.367 . S
C2599 C2607 1.433 . S
C2600 H2596 0.929 . S
C2600 C2602 1.378 . S
C2600 C2604 1.350 . S
C2601 C2604 1.463 . S
C2601 C2606 1.350 . S
C2601 N2609 1.427 . S
C2602 H2593 0.930 . S
C2602 C2600 1.378 . S
C2602 C2603 1.367 . S
C2603 C2602 1.367 . S
C2603 C2605 1.433 . S
C2604 C2600 1.350 . S
C2604 C2601 1.463 . S
C2604 N2608 1.427 . S
C2605 H2595 0.929 . S
C2605 C2603 1.433 . S
C2605 N2608 1.384 . S
C2606 H2597 0.929 . S
C2606 C2598 1.378 . S
C2606 C2601 1.350 . S
C2607 H2594 0.929 . S
C2607 C2599 1.433 . S
C2607 N2609 1.384 . S
N2608 C2604 1.427 . S
N2608 C2605 1.384 . S
N2609 C2601 1.427 . S
N2609 C2607 1.384 . S
H2610 C2616 0.930 . S
H2611 C2620 0.930 . S
H2612 C2625 0.929 . S
H2613 C2623 0.929 . S
H2614 C2618 0.929 . S
H2615 C2624 0.929 . S
C2616 H2610 0.930 . S
C2616 C2617 1.367 . S
C2616 C2624 1.378 . S
C2617 C2616 1.367 . S
C2617 C2625 1.433 . S
C2618 H2614 0.929 . S
C2618 C2620 1.378 . S
C2618 C2622 1.350 . S
C2619 C2622 1.463 . S
C2619 C2624 1.350 . S
C2619 N2627 1.427 . S
C2620 H2611 0.930 . S
C2620 C2618 1.378 . S
C2620 C2621 1.367 . S
C2621 C2620 1.367 . S
C2621 C2623 1.433 . S
C2622 C2618 1.350 . S
C2622 C2619 1.463 . S
C2622 N2626 1.427 . S
C2623 H2613 0.929 . S
C2623 C2621 1.433 . S
C2623 N2626 1.384 . S
C2624 H2615 0.929 . S
C2624 C2616 1.378 . S
C2624 C2619 1.350 . S
C2625 H2612 0.929 . S
C2625 C2617 1.433 . S
C2625 N2627 1.384 . S
N2626 C2622 1.427 . S
N2626 C2623 1.384 . S
N2627 C2619 1.427 . S
N2627 C2625 1.384 . S
H2628 C2634 0.930 . S
H2629 C2638 0.930 . S
H2630 C2643 0.929 . S
H2631 C2641 0.929 . S
H2632 C2636 0.929 . S
H2633 C2642 0.929 . S
C2634 H2628 0.930 . S
C2634 C2635 1.367 . S
C2634 C2642 1.378 . S
C2635 C2634 1.367 . S
C2635 C2643 1.433 . S
C2636 H2632 0.929 . S
C2636 C2638 1.378 . S
C2636 C2640 1.350 . S
C2637 C2640 1.463 . S
C2637 C2642 1.350 . S
C2637 N2645 1.427 . S
C2638 H2629 0.930 . S
C2638 C2636 1.378 . S
C2638 C2639 1.367 . S
C2639 C2638 1.367 . S
C2639 C2641 1.433 . S
C2640 C2636 1.350 . S
C2640 C2637 1.463 . S
C2640 N2644 1.427 . S
C2641 H2631 0.929 . S
C2641 C2639 1.433 . S
C2641 N2644 1.384 . S
C2642 H2633 0.929 . S
C2642 C2634 1.378 . S
C2642 C2637 1.350 . S
C2643 H2630 0.929 . S
C2643 C2635 1.433 . S
C2643 N2645 1.384 . S
N2644 C2640 1.427 . S
N2644 C2641 1.384 . S
N2645 C2637 1.427 . S
N2645 C2643 1.384 . S
H2646 C2652 0.930 . S
H2647 C2656 0.930 . S
H2648 C2661 0.929 . S
H2649 C2659 0.929 . S
H2650 C2654 0.929 . S
H2651 C2660 0.929 . S
C2652 H2646 0.930 . S
C2652 C2653 1.367 . S
C2652 C2660 1.378 . S
C2653 C2652 1.367 . S
C2653 C2661 1.433 . S
C2654 H2650 0.929 . S
C2654 C2656 1.378 . S
C2654 C2658 1.350 . S
C2655 C2658 1.463 . S
C2655 C2660 1.350 . S
C2655 N2663 1.427 . S
C2656 H2647 0.930 . S
C2656 C2654 1.378 . S
C2656 C2657 1.367 . S
C2657 C2656 1.367 . S
C2657 C2659 1.433 . S
C2658 C2654 1.350 . S
C2658 C2655 1.463 . S
C2658 N2662 1.427 . S
C2659 H2649 0.929 . S
C2659 C2657 1.433 . S
C2659 N2662 1.384 . S
C2660 H2651 0.929 . S
C2660 C2652 1.378 . S
C2660 C2655 1.350 . S
C2661 H2648 0.929 . S
C2661 C2653 1.433 . S
C2661 N2663 1.384 . S
N2662 C2658 1.427 . S
N2662 C2659 1.384 . S
N2663 C2655 1.427 . S
N2663 C2661 1.384 . S
H2664 C2670 0.930 . S
H2665 C2674 0.930 . S
H2666 C2679 0.929 . S
H2667 C2677 0.929 . S
H2668 C2672 0.929 . S
H2669 C2678 0.929 . S
C2670 H2664 0.930 . S
C2670 C2671 1.367 . S
C2670 C2678 1.378 . S
C2671 C2670 1.367 . S
C2671 C2679 1.433 . S
C2672 H2668 0.929 . S
C2672 C2674 1.378 . S
C2672 C2676 1.350 . S
C2673 C2676 1.463 . S
C2673 C2678 1.350 . S
C2673 N2681 1.427 . S
C2674 H2665 0.930 . S
C2674 C2672 1.378 . S
C2674 C2675 1.367 . S
C2675 C2674 1.367 . S
C2675 C2677 1.433 . S
C2676 C2672 1.350 . S
C2676 C2673 1.463 . S
C2676 N2680 1.427 . S
C2677 H2667 0.929 . S
C2677 C2675 1.433 . S
C2677 N2680 1.384 . S
C2678 H2669 0.929 . S
C2678 C2670 1.378 . S
C2678 C2673 1.350 . S
C2679 H2666 0.929 . S
C2679 C2671 1.433 . S
C2679 N2681 1.384 . S
N2680 C2676 1.427 . S
N2680 C2677 1.384 . S
N2681 C2673 1.427 . S
N2681 C2679 1.384 . S
H2682 C2688 0.930 . S
H2683 C2692 0.930 . S
H2684 C2697 0.929 . S
H2685 C2695 0.929 . S
H2686 C2690 0.929 . S
H2687 C2696 0.929 . S
C2688 H2682 0.930 . S
C2688 C2689 1.367 . S
C2688 C2696 1.378 . S
C2689 C2688 1.367 . S
C2689 C2697 1.433 . S
C2690 H2686 0.929 . S
C2690 C2692 1.378 . S
C2690 C2694 1.350 . S
C2691 C2694 1.463 . S
C2691 C2696 1.350 . S
C2691 N2699 1.427 . S
C2692 H2683 0.930 . S
C2692 C2690 1.378 . S
C2692 C2693 1.367 . S
C2693 C2692 1.367 . S
C2693 C2695 1.433 . S
C2694 C2690 1.350 . S
C2694 C2691 1.463 . S
C2694 N2698 1.427 . S
C2695 H2685 0.929 . S
C2695 C2693 1.433 . S
C2695 N2698 1.384 . S
C2696 H2687 0.929 . S
C2696 C2688 1.378 . S
C2696 C2691 1.350 . S
C2697 H2684 0.929 . S
C2697 C2689 1.433 . S
C2697 N2699 1.384 . S
N2698 C2694 1.427 . S
N2698 C2695 1.384 . S
N2699 C2691 1.427 . S
N2699 C2697 1.384 . S
H2700 C2706 0.930 . S
H2701 C2710 0.930 . S
H2702 C2715 0.929 . S
H2703 C2713 0.929 . S
H2704 C2708 0.929 . S
H2705 C2714 0.929 . S
C2706 H2700 0.930 . S
C2706 C2707 1.367 . S
C2706 C2714 1.378 . S
C2707 C2706 1.367 . S
C2707 C2715 1.433 . S
C2708 H2704 0.929 . S
C2708 C2710 1.378 . S
C2708 C2712 1.350 . S
C2709 C2712 1.463 . S
C2709 C2714 1.350 . S
C2709 N2717 1.427 . S
C2710 H2701 0.930 . S
C2710 C2708 1.378 . S
C2710 C2711 1.367 . S
C2711 C2710 1.367 . S
C2711 C2713 1.433 . S
C2712 C2708 1.350 . S
C2712 C2709 1.463 . S
C2712 N2716 1.427 . S
C2713 H2703 0.929 . S
C2713 C2711 1.433 . S
C2713 N2716 1.384 . S
C2714 H2705 0.929 . S
C2714 C2706 1.378 . S
C2714 C2709 1.350 . S
C2715 H2702 0.929 . S
C2715 C2707 1.433 . S
C2715 N2717 1.384 . S
N2716 C2712 1.427 . S
N2716 C2713 1.384 . S
N2717 C2709 1.427 . S
N2717 C2715 1.384 . S
H2718 C2724 0.930 . S
H2719 C2728 0.930 . S
H2720 C2733 0.929 . S
H2721 C2731 0.891 1_455 S
H2722 C2726 0.929 . S
H2723 C2732 0.929 . S
C2724 H2718 0.930 . S
C2724 C2725 1.367 . S
C2724 C2732 1.378 . S
C2725 C2724 1.367 . S
C2725 C2733 1.433 . S
C2726 H2722 0.929 . S
C2726 C2728 1.378 . S
C2726 C2730 1.350 . S
C2727 C2730 1.463 . S
C2727 C2732 1.350 . S
C2727 N2735 1.427 . S
C2728 H2719 0.930 . S
C2728 C2726 1.378 . S
C2728 C2729 1.367 . S
C2729 C2728 1.367 . S
C2729 C2731 1.446 . S
C2730 C2726 1.350 . S
C2730 C2727 1.463 . S
C2730 N2734 1.427 . S
C2731 H2721 0.891 1_655 S
C2731 C2729 1.446 . S
C2731 N2734 1.415 . S
C2732 H2723 0.929 . S
C2732 C2724 1.378 . S
C2732 C2727 1.350 . S
C2733 H2720 0.929 . S
C2733 C2725 1.433 . S
C2733 N2735 1.384 . S
N2734 C2730 1.427 . S
N2734 C2731 1.415 . S
N2735 C2727 1.427 . S
N2735 C2733 1.384 . S
H2736 C2742 0.930 . S
H2737 C2746 0.930 . S
H2738 C2751 0.929 . S
H2739 C2749 0.929 . S
H2740 C2744 0.929 . S
H2741 C2750 0.929 . S
C2742 H2736 0.930 . S
C2742 C2743 1.367 . S
C2742 C2750 1.378 . S
C2743 C2742 1.367 . S
C2743 C2751 1.433 . S
C2744 H2740 0.929 . S
C2744 C2746 1.378 . S
C2744 C2748 1.350 . S
C2745 C2748 1.463 . S
C2745 C2750 1.350 . S
C2745 N2753 1.427 . S
C2746 H2737 0.930 . S
C2746 C2744 1.378 . S
C2746 C2747 1.367 . S
C2747 C2746 1.367 . S
C2747 C2749 1.433 . S
C2748 C2744 1.350 . S
C2748 C2745 1.463 . S
C2748 N2752 1.427 . S
C2749 H2739 0.929 . S
C2749 C2747 1.433 . S
C2749 N2752 1.384 . S
C2750 H2741 0.929 . S
C2750 C2742 1.378 . S
C2750 C2745 1.350 . S
C2751 H2738 0.929 . S
C2751 C2743 1.433 . S
C2751 N2753 1.384 . S
N2752 C2748 1.427 . S
N2752 C2749 1.384 . S
N2753 C2745 1.427 . S
N2753 C2751 1.384 . S
H2754 C2760 0.930 . S
H2755 C2764 0.930 . S
H2756 C2769 0.929 . S
H2757 C2767 0.929 . S
H2758 C2762 0.929 . S
H2759 C2768 0.929 . S
C2760 H2754 0.930 . S
C2760 C2761 1.367 . S
C2760 C2768 1.378 . S
C2761 C2760 1.367 . S
C2761 C2769 1.433 1_545 S
C2762 H2758 0.929 . S
C2762 C2764 1.378 . S
C2762 C2766 1.350 1_565 S
C2763 C2766 1.463 . S
C2763 C2768 1.350 . S
C2763 N2771 1.427 1_545 S
C2764 H2755 0.930 . S
C2764 C2762 1.378 . S
C2764 C2765 1.367 1_565 S
C2765 C2764 1.367 1_545 S
C2765 C2767 1.433 . S
C2766 C2762 1.350 1_545 S
C2766 C2763 1.463 . S
C2766 N2770 1.427 . S
C2767 H2757 0.929 . S
C2767 C2765 1.433 . S
C2767 N2770 1.384 . S
C2768 H2759 0.929 . S
C2768 C2760 1.378 . S
C2768 C2763 1.350 . S
C2769 H2756 0.929 . S
C2769 C2761 1.433 1_565 S
C2769 N2771 1.384 . S
N2770 C2766 1.427 . S
N2770 C2767 1.384 . S
N2771 C2763 1.427 1_565 S
N2771 C2769 1.384 . S
C1483 C4 1.444 . S
C1487 C1084 1.433 . S
C1501 C38 1.708 . S
C1505 C1130 1.687 . S
C1523 C1162 1.448 . S
C1519 C74 1.417 . S
C1537 C76 1.388 . S
C1541 C1215 1.421 . S
C1555 C2 1.499 . S
C1559 C1261 1.554 . S
C1573 C40 1.538 . S
C1577 C1300 1.538 . S
C1591 C110 1.474 . S
C1595 C1254 1.503 . S
C1613 C1307 1.543 . S
C1609 C148 1.545 . S
C1631 C1208 1.514 . S
C1627 C182 1.470 . S
C1645 C184 1.449 . S
C1649 C1169 1.476 . S
C1667 C1063 1.420 . S
C1663 C112 1.401 . S
C1681 C146 1.640 . S
C1685 C1109 1.634 . S
C1699 C220 1.655 . S
C1703 C1339 1.642 . S
C1717 C254 1.786 . S
C1721 C1406 1.763 . S
C1739 C1452 1.621 . S
C1735 C290 1.653 . S
C1753 C292 1.536 . S
C1757 C663 1.528 . S
C1771 C218 1.700 . S
C1775 C709 1.687 . S
C1789 C256 1.578 . S
C1793 C755 1.554 . S
C1807 C326 1.668 . S
C1811 C702 1.655 . S
C1825 C364 1.613 . S
C1829 C748 1.579 . S
C1847 C656 1.681 . S
C1843 C398 1.700 . S
C1865 C1431 1.666 . S
C1861 C400 1.678 . S
C1883 C1360 1.518 . S
C1879 C328 1.529 . S
C1901 C1385 1.705 . S
C1897 C362 1.726 . S
C1915 C436 1.558 . S
C1919 C787 1.554 . S
C1933 C470 1.756 . S
C1937 C840 1.753 . S
C1951 C506 1.652 . S
C1955 C886 1.650 . S
C1969 C508 1.633 . S
C1973 C932 1.623 . S
C1991 C985 1.672 . S
C1987 C434 1.691 . S
C2009 C1031 1.579 . S
C2005 C472 1.608 . S
C2027 C978 1.748 . S
C2023 C542 1.773 . S
C2045 C1024 1.603 . S
C2041 C580 1.632 . S
C2059 C614 1.684 . S
C2063 C939 1.670 . S
C2081 C893 1.572 . S
C2077 C616 1.577 . S
C2095 C544 1.542 . S
C2099 C808 1.543 . S
C2117 C847 1.681 . S
C2113 C578 1.681 . S
C2135 C670 1.647 . S
C2131 C14 1.647 . S
C2149 C39 1.562 . S
C2153 C716 1.542 . S
C2171 C762 1.563 . S
C2167 C75 1.583 . S
C2189 C794 1.490 . S
C2185 C86 1.480 . S
C2207 C833 1.604 . S
C2203 C3 1.634 . S
C2225 C879 1.535 . S
C2221 C50 1.552 . S
C2239 C111 1.611 . S
C2243 C900 1.584 . S
C2257 C158 1.499 . S
C2261 C801 1.479 . S
C2275 C183 1.707 . S
C2279 C854 1.672 . S
C2293 C194 1.626 . S
C2297 C695 1.639 . S
C2315 C741 1.551 . S
C2311 C122 1.539 . S
C2329 C147 1.476 . S
C2333 C649 1.459 . S
C2351 C925 1.587 . S
C2347 C230 1.589 . S
C2365 C255 1.687 . S
C2369 C992 1.666 . S
C2383 C291 1.615 . S
C2387 C1038 1.594 . S
C2405 C1077 1.319 . S
C2401 C302 1.261 . S
C2419 C219 1.588 . S
C2423 C1123 1.572 . S
C2437 C266 1.353 . S
C2441 C1155 1.420 . S
C2455 C327 1.332 . S
C2459 C1176 1.326 . S
C2473 C374 1.306 . S
C2477 C1070 1.366 . S
C2495 C1116 1.639 . S
C2491 C399 1.658 . S
C2509 C410 1.580 . S
C2513 C971 1.597 . S
C2527 C338 1.591 . S
C2531 C1017 1.600 . S
C2549 C946 1.573 . S
C2545 C363 1.605 . S
C2567 C1222 1.412 . S
C2563 C446 1.340 . S
C2581 C471 1.395 . S
C2585 C1268 1.395 . S
C2599 C507 1.536 . S
C2603 C1293 1.509 . S
C2621 C1346 1.453 . S
C2617 C518 1.456 . S
C2639 C1399 1.660 . S
C2635 C435 1.679 . S
C2653 C482 1.655 . S
C2657 C1445 1.668 . S
C2671 C543 1.544 . S
C2675 C1438 1.526 . S
C2689 C590 1.610 . S
C2693 C1353 1.602 . S
C2711 C1392 1.714 . S
C2707 C615 1.734 . S
C2729 C1247 1.415 . S
C2725 C626 1.353 . S
C2747 C1314 1.535 . S
C2743 C554 1.526 . S
C2761 C579 1.339 . S
C2765 C1201 1.342 . S
