# Generated by pormake.
# Topology pts, (4,4)-cn, num edge types: 1
# Building blocks:
#     Node 0, Type 0, BuildingBlock: GIZVER_clean_linker_0, # of connection points: 4
#     Node 1, Type 0, BuildingBlock: GIZVER_clean_linker_0, # of connection points: 4
#     Node 2, Type 1, BuildingBlock: QUQFOY_clean_sbu_1, # of connection points: 4
#     Node 3, Type 1, BuildingBlock: QUQFOY_clean_sbu_1, # of connection points: 4
#     Edge 4, Type (0, 1), BuildingBlock: TEMPAE_clean_linker_10, # of connection points: 2
#     Edge 5, Type (0, 1), BuildingBlock: TEMPAE_clean_linker_10, # of connection points: 2
#     Edge 6, Type (0, 1), BuildingBlock: TEMPAE_clean_linker_10, # of connection points: 2
#     Edge 7, Type (0, 1), BuildingBlock: TEMPAE_clean_linker_10, # of connection points: 2
#     Edge 8, Type (0, 1), BuildingBlock: TEMPAE_clean_linker_10, # of connection points: 2
#     Edge 9, Type (0, 1), BuildingBlock: TEMPAE_clean_linker_10, # of connection points: 2
#     Edge 10, Type (0, 1), BuildingBlock: TEMPAE_clean_linker_10, # of connection points: 2
#     Edge 11, Type (0, 1), BuildingBlock: TEMPAE_clean_linker_10, # of connection points: 2
# Relax obj value: 0.104
# Max RMSD: 0.276
# Mean RMSD: 0.184
data_MOF--net-pts--node1-QUQFOY_clean_sbu_1--node2-GIZVER_clean_linker_0--edge1-TEMPAE_clean_linker_10
_symmetry_space_group_name_H-M    P1
_symmetry_Int_Tables_number       1
_symmetry_cell_setting            triclinic
loop_
_symmetry_equiv_pos_as_xyz
'x, y, z'
_cell_length_a     24.813987
_cell_length_b     27.558204
_cell_length_c     37.371459
_cell_angle_alpha  90.420319
_cell_angle_beta   89.64049
_cell_angle_gamma 90.034804
loop_
_atom_site_label
_atom_site_type_symbol
_atom_site_fract_x
_atom_site_fract_y
_atom_site_fract_z
_atom_type_partial_charge
H0 H 0.55529 0.08 0.0454 0.0
H1 H 0.57307 0.10323 0.93215 0.0
H2 H 0.69649 0.02847 -0.01039 0.0
H3 H 0.50594 0.14631 0.01399 0.0
H4 H 0.50814 0.15015 0.96637 0.0
H5 H 0.44874 0.08687 0.04414 0.0
H6 H 0.3241 0.02044 0.98137 0.0
H7 H 0.45305 0.09653 0.92907 0.0
C8 C 0.57806 0.07481 0.02084 0.0
C9 C 0.62802 0.05085 0.02152 0.0
C10 C 0.55803 0.09368 -0.01134 0.0
C11 C 0.58777 0.08765 0.95679 0.0
C12 C 0.63792 0.06426 0.95713 0.0
C13 C 0.65717 0.04553 -0.0106 0.0
C14 C 0.50766 0.12412 -0.011 0.0
C15 C 0.45805 0.09275 -0.01324 0.0
C16 C 0.43231 0.07693 0.0183 0.0
C17 C 0.38326 0.05173 0.01648 0.0
C18 C 0.36181 0.04028 0.98291 0.0
C19 C 0.38563 0.05742 0.95139 0.0
C20 C 0.43475 0.08246 0.95328 0.0
H21 H 0.08461 0.57074 0.42688 0.0
H22 H 0.08669 0.56913 0.54217 0.0
H23 H 1.00579 0.68392 0.48698 0.0
H24 H 0.1493 0.51973 0.45924 0.0
H25 H 0.14975 0.51868 0.50703 0.0
H26 H 0.08628 0.46879 0.42508 0.0
H27 H 0.00735 0.3534 0.48152 0.0
H28 H 0.0869 0.46674 0.54043 0.0
C29 C 0.07208 0.58616 0.45237 0.0
C30 C 0.04192 0.62924 0.4532 0.0
C31 C 0.08762 0.56379 0.48441 0.0
C32 C 0.07323 0.58523 0.5174 0.0
C33 C 0.04299 0.62826 0.51841 0.0
C34 C 0.02675 0.64938 0.48627 0.0
C35 C 0.12278 0.5192 0.48336 0.0
C36 C 0.08883 0.47381 0.48285 0.0
C37 C 0.07355 0.45254 0.45008 0.0
C38 C 0.04352 0.40937 0.44957 0.0
C39 C 0.02812 0.38806 0.48194 0.0
C40 C 0.04402 0.4081 0.51475 0.0
C41 C 0.07393 0.45135 0.51513 0.0
O42 O 0.93156 0.97739 0.21236 0.0
Cd43 Cd 1.00458 0.96116 0.23559 0.0
Cd44 Cd 0.01001 0.06804 0.23729 0.0
O45 O 0.9413 0.0569 0.20763 0.0
O46 O 1.00161 0.88933 0.2406 0.0
O47 O 0.00777 0.93947 0.28682 0.0
C48 C 1.00503 0.89552 0.27469 0.0
C49 C 0.00924 0.13643 0.27472 0.0
C50 C 0.91463 0.01832 0.20185 0.0
C51 C 0.10278 0.01148 0.2043 0.0
O52 O 0.08385 0.05172 0.21532 0.0
O53 O 0.07616 0.97239 0.20806 0.0
O54 O 0.01246 0.14023 0.24049 0.0
O55 O 1.00605 0.09337 0.28799 0.0
O56 O 0.94252 0.05983 0.75518 0.0
Cd57 Cd 0.01415 0.06955 0.72766 0.0
Cd58 Cd 0.01174 0.96299 0.73703 0.0
O59 O 0.94103 0.98049 0.76316 0.0
O60 O 0.01507 0.14159 0.72361 0.0
O61 O 0.0136 0.0928 0.67655 0.0
C62 C 0.01447 0.13643 0.6894 0.0
C63 C 0.01079 0.89599 0.69859 0.0
C64 C 0.91971 0.02205 0.76737 0.0
C65 C 0.10848 0.01836 0.76384 0.0
O66 O 0.08416 0.97793 0.76125 0.0
O67 O 0.08732 0.05698 0.75199 0.0
O68 O 0.00997 0.89093 0.73283 0.0
O69 O 0.01161 0.93956 0.68601 0.0
C70 C 0.29487 0.05557 0.04791 0.0
C71 C 0.3497 0.04338 0.04884 0.0
C72 C 0.26089 0.04687 0.07706 0.0
C73 C 0.28229 0.0261 0.10841 0.0
C74 C 0.33791 0.01471 0.11005 0.0
C75 C 0.37117 0.02355 0.08011 0.0
C76 C 0.20189 0.05992 0.07415 0.0
C77 C 0.36202 0.99294 0.14322 0.0
C78 C 0.1882 0.05232 0.18559 0.0
C79 C 0.15494 0.01113 0.18484 0.0
C80 C 0.23349 0.05575 0.16317 0.0
C81 C 0.24544 0.01727 0.13915 0.0
C82 C 0.21468 0.974 0.14037 0.0
C83 C 0.16981 0.97136 0.16334 0.0
C84 C 0.26566 0.10228 0.16304 0.0
C85 C 0.22614 0.93215 0.11518 0.0
H86 H 0.27837 0.07221 0.02416 0.0
H87 H 0.41359 0.01428 0.08092 0.0
H88 H 0.17659 0.02732 0.07875 0.0
H89 H 0.191 0.08713 0.09498 0.0
H90 H 0.19166 0.07503 0.04756 0.0
H91 H 0.40626 0.98763 0.14063 0.0
H92 H 0.35383 0.01669 0.16673 0.0
H93 H 0.34292 0.95734 0.14872 0.0
H94 H 0.17763 0.08288 0.20267 0.0
H95 H 0.14464 0.9392 0.16286 0.0
H96 H 0.25473 0.12387 0.13921 0.0
H97 H 0.30947 0.0946 0.16132 0.0
H98 H 0.25767 0.12471 0.18732 0.0
H99 H 0.21252 0.94173 0.0879 0.0
H100 H 0.20491 0.89852 0.12349 0.0
H101 H 0.27 0.92469 0.1136 0.0
C102 C 0.98495 0.35885 0.55474 0.0
C103 C 0.03559 0.37923 0.54753 0.0
C104 C 0.97887 0.32257 0.58057 0.0
C105 C 0.0247 0.30601 0.59924 0.0
C106 C 0.07528 0.32865 0.59364 0.0
C107 C 0.08007 0.36525 0.5679 0.0
C108 C 0.92407 0.29997 0.58626 0.0
C109 C 0.12511 0.31193 0.61297 0.0
C110 C 0.00782 0.226 0.6808 0.0
C111 C 0.01546 0.1795 0.66602 0.0
C112 C 0.01 0.26752 0.65935 0.0
C113 C 0.02068 0.26245 0.62231 0.0
C114 C 0.02812 0.2156 0.60717 0.0
C115 C 0.02511 0.17462 0.6292 0.0
C116 C 1.00115 0.3168 0.67633 0.0
C117 C 0.03993 0.20879 0.56776 0.0
H118 H 0.95056 0.36978 0.53896 0.0
H119 H 0.11937 0.38054 0.56199 0.0
H120 H 0.92409 0.26244 0.57531 0.0
H121 H 0.91456 0.29762 0.61524 0.0
H122 H 0.89164 0.32077 0.57292 0.0
H123 H 0.16011 0.33623 0.60814 0.0
H124 H 0.11741 0.31013 0.64219 0.0
H125 H 0.13592 0.27481 0.60373 0.0
H126 H 1.00004 0.23004 0.70924 0.0
H127 H 0.03118 0.13883 0.61766 0.0
H128 H 0.96752 0.33572 0.66287 0.0
H129 H 0.03769 0.33953 0.67283 0.0
H130 H 0.99175 0.31441 0.70537 0.0
H131 H 0.00681 0.2244 0.5517 0.0
H132 H 0.04479 0.16997 0.5602 0.0
H133 H 0.0774 0.22848 0.56046 0.0
C134 C 0.68763 0.9956 0.05659 0.0
C135 C 0.65385 0.03643 0.05573 0.0
C136 C 0.72411 0.98892 0.08458 0.0
C137 C 0.72508 0.02269 0.11326 0.0
C138 C 0.68624 0.06027 0.11489 0.0
C139 C 0.65159 0.06722 0.0858 0.0
C140 C 0.76522 0.94869 0.08144 0.0
C141 C 0.68431 0.09567 0.14586 0.0
C142 C 0.82 0.99221 0.18941 0.0
C143 C 0.86481 0.0209 0.18075 0.0
C144 C 0.77294 0.99401 0.16871 0.0
C145 C 0.77193 0.0235 0.13785 0.0
C146 C 0.81727 0.0525 0.12913 0.0
C147 C 0.86274 0.05153 0.15111 0.0
C148 C 0.72461 0.96423 0.17969 0.0
C149 C 0.81851 0.08347 0.09592 0.0
H150 H 0.68827 0.97059 0.03407 0.0
H151 H 0.62557 0.09877 0.08569 0.0
H152 H 0.80535 0.96463 0.07546 0.0
H153 H 0.76865 0.92878 0.10697 0.0
H154 H 0.75519 0.92237 0.05982 0.0
H155 H 0.64528 0.11537 0.14711 0.0
H156 H 0.69059 0.07675 0.17161 0.0
H157 H 0.71704 0.12278 0.1428 0.0
H158 H 0.82158 0.96885 0.2126 0.0
H159 H 0.89761 0.07345 0.14435 0.0
H160 H 0.71839 0.93422 0.16023 0.0
H161 H 0.68766 0.98691 0.17959 0.0
H162 H 0.72943 0.94834 0.20672 0.0
H163 H 0.81157 0.06049 0.07187 0.0
H164 H 0.85749 0.1028 0.09252 0.0
H165 H 0.78576 0.11079 0.09713 0.0
C166 C 0.98329 0.67519 0.55999 0.0
C167 C 0.0342 0.65571 0.55213 0.0
C168 C 0.97673 0.71044 0.58691 0.0
C169 C 0.02234 0.7269 0.60606 0.0
C170 C 0.07318 0.70493 0.59986 0.0
C171 C 0.07845 0.66934 0.57301 0.0
C172 C 0.92167 0.73232 0.59316 0.0
C173 C 0.1228 0.72153 0.61967 0.0
C174 C 0.02173 0.858 0.63798 0.0
C175 C 0.01194 0.8529 0.67472 0.0
C176 C 0.0251 0.8172 0.61539 0.0
C177 C 0.01797 0.77022 0.62985 0.0
C178 C 0.00719 0.76487 0.66681 0.0
C179 C 1.00456 0.80627 0.68884 0.0
C180 C 0.03693 0.82436 0.57608 0.0
C181 C 0.99874 0.71542 0.68307 0.0
H182 H 0.94905 0.66449 0.54385 0.0
H183 H 0.11796 0.65472 0.56665 0.0
H184 H 0.91231 0.73425 0.6222 0.0
H185 H 0.92112 0.76995 0.58282 0.0
H186 H 0.88945 0.71127 0.57956 0.0
H187 H 0.15786 0.69735 0.61456 0.0
H188 H 0.13365 0.75876 0.61107 0.0
H189 H 0.11486 0.72302 0.6489 0.0
H190 H 0.02761 0.89388 0.62691 0.0
H191 H 0.99676 0.80204 0.71722 0.0
H192 H 1.00393 0.80867 0.55977 0.0
H193 H 0.07454 0.80498 0.56851 0.0
H194 H 0.04153 0.86326 0.56909 0.0
H195 H 0.9653 0.69631 0.66931 0.0
H196 H 0.98926 0.71756 0.71213 0.0
H197 H 0.03548 0.69301 0.67928 0.0
C198 C 0.37639 0.03693 0.88587 0.0
C199 C 0.35418 0.05488 0.91788 0.0
C200 C 0.34397 0.03072 0.85537 0.0
C201 C 0.28843 0.04265 0.85731 0.0
C202 C 0.26673 0.06282 0.88919 0.0
C203 C 0.29994 0.06902 0.91887 0.0
C204 C 0.36859 1.00992 0.8216 0.0
C205 C 0.20783 0.07633 0.89249 0.0
C206 C 0.1918 0.06366 0.78147 0.0
C207 C 0.16057 0.02122 0.78286 0.0
C208 C 0.23734 0.06935 0.80317 0.0
C209 C 0.25134 0.03206 0.82721 0.0
C210 C 0.22243 0.98774 0.82674 0.0
C211 C 0.17754 0.98275 0.80441 0.0
C212 C 0.26785 0.11673 0.80232 0.0
C213 C 0.23593 0.94714 0.85207 0.0
H214 H 0.41844 0.02631 0.88506 0.0
H215 H 0.28307 0.08414 0.94337 0.0
H216 H 0.35397 0.97225 0.81753 0.0
H217 H 0.3561 0.03124 0.79799 0.0
H218 H 0.41332 1.00925 0.82273 0.0
H219 H 0.19776 0.09247 0.91903 0.0
H220 H 0.19694 0.10275 0.8715 0.0
H221 H 0.18243 0.04361 0.88847 0.0
H222 H 0.17961 0.09323 0.76435 0.0
H223 H 0.15399 0.94964 0.8054 0.0
H224 H 0.31193 0.11032 0.80366 0.0
H225 H 0.25632 0.13909 0.82596 0.0
H226 H 0.25893 0.13779 0.77783 0.0
H227 H 0.27994 0.94019 0.85214 0.0
H228 H 0.21472 0.9129 0.84502 0.0
H229 H 0.22396 0.95784 0.87969 0.0
C230 C 0.98325 0.36304 0.40855 0.0
C231 C 0.03451 0.3817 0.4161 0.0
C232 C 0.97632 0.327 0.38229 0.0
C233 C 0.02193 0.30881 0.36363 0.0
C234 C 0.07322 0.32994 0.36947 0.0
C235 C 0.07884 0.36644 0.39556 0.0
C236 C 0.92081 0.30615 0.37632 0.0
C237 C 0.12286 0.31143 0.35022 0.0
C238 C 0.01852 0.17649 0.33466 0.0
C239 C 0.01038 0.18032 0.29774 0.0
C240 C 0.02223 0.21812 0.35637 0.0
C241 C 0.01695 0.26463 0.34082 0.0
C242 C 0.00763 0.26869 0.30369 0.0
C243 C 1.0048 0.22649 0.28254 0.0
C244 C 0.03261 0.21234 0.3959 0.0
C245 C 1.00099 0.31759 0.28628 0.0
H246 H 0.94902 0.37491 0.42453 0.0
H247 H 0.11858 0.38043 0.40175 0.0
H248 H 0.91226 0.30303 0.34729 0.0
H249 H 0.91876 0.26909 0.38765 0.0
H250 H 0.88886 0.3286 0.38919 0.0
H251 H 0.15848 0.33503 0.35491 0.0
H252 H 0.13239 0.27436 0.3597 0.0
H253 H 0.11566 0.30888 0.32101 0.0
H254 H 0.02304 0.14096 0.34652 0.0
H255 H 0.99819 0.22971 0.25401 0.0
H256 H 0.99956 0.22939 0.41166 0.0
H257 H 0.07052 0.23122 0.40325 0.0
H258 H 0.0359 0.17367 0.40378 0.0
H259 H 0.9678 0.338 0.29953 0.0
H260 H 0.99214 0.31444 0.25726 0.0
H261 H 0.03828 0.33932 0.28964 0.0
C262 C 0.65257 0.0469 0.89161 0.0
C263 C 0.67284 0.06214 0.92478 0.0
C264 C 0.68708 0.04101 0.86187 0.0
C265 C 0.74291 0.05042 0.86565 0.0
C266 C 0.76303 0.06754 0.89876 0.0
C267 C 0.72771 0.07354 0.92775 0.0
C268 C 0.66417 0.02336 0.82681 0.0
C269 C 0.82225 0.07817 0.90396 0.0
C270 C 0.85083 0.98862 0.80975 0.0
C271 C 0.8694 0.02712 0.78864 0.0
C272 C 0.80732 0.99487 0.83348 0.0
C273 C 0.78139 0.04055 0.83585 0.0
C274 C 0.79757 0.07853 0.81288 0.0
C275 C 0.84162 0.07147 0.7897 0.0
C276 C 0.79148 0.95354 0.85769 0.0
C277 C 0.77039 0.12752 0.81424 0.0
H278 H 0.61014 0.03815 0.88922 0.0
H279 H 0.7433 0.08654 0.95311 0.0
H280 H 0.67757 0.04716 0.80464 0.0
H281 H 0.67941 0.98634 0.82082 0.0
H282 H 0.61941 0.02226 0.82728 0.0
H283 H 0.83109 0.09219 0.93125 0.0
H284 H 0.8461 0.04462 0.8994 0.0
H285 H 0.8362 0.1053 0.88418 0.0
H286 H 0.87185 0.95415 0.809 0.0
H287 H 0.8552 0.10124 0.77312 0.0
H288 H 0.74723 0.94792 0.85725 0.0
H289 H 0.80273 0.96261 0.88565 0.0
H290 H 0.8116 0.91899 0.84995 0.0
H291 H 0.72592 0.12334 0.8145 0.0
H292 H 0.78213 0.15057 0.7912 0.0
H293 H 0.78176 0.14672 0.83928 0.0
C294 C 0.98123 0.67801 0.41442 0.0
C295 C 0.03209 0.65761 0.4204 0.0
C296 C 0.97398 0.71342 0.38813 0.0
C297 C 0.01883 0.72901 0.36764 0.0
C298 C 0.06954 0.70632 0.37206 0.0
C299 C 0.07551 0.67066 0.39835 0.0
C300 C 0.91909 0.73615 0.38382 0.0
C301 C 0.11834 0.722 0.35074 0.0
C302 C 0.99773 0.80627 0.28519 0.0
C303 C 0.00679 0.85319 0.29879 0.0
C304 C 1.00087 0.76549 0.30734 0.0
C305 C 0.01383 0.77176 0.34387 0.0
C306 C 0.02263 0.81904 0.35783 0.0
C307 C 0.01877 0.85923 0.33514 0.0
C308 C 0.99066 0.71571 0.29162 0.0
C309 C 0.03677 0.82713 0.39667 0.0
H310 H 0.94762 0.66774 0.43144 0.0
H311 H 0.11501 0.65535 0.40324 0.0
H312 H 0.92004 0.7741 0.39393 0.0
H313 H 0.90791 0.7374 0.35515 0.0
H314 H 0.8873 0.71612 0.3987 0.0
H315 H 0.1534 0.69767 0.35488 0.0
H316 H 0.10897 0.72278 0.32177 0.0
H317 H 0.12995 0.75937 0.35885 0.0
H318 H 0.98823 0.80132 0.25713 0.0
H319 H 0.02592 0.89534 0.34579 0.0
H320 H 0.95773 0.69747 0.30658 0.0
H321 H 0.02722 0.6929 0.29429 0.0
H322 H 0.97957 0.71716 0.2629 0.0
H323 H 1.00453 0.81226 0.41413 0.0
H324 H 0.0423 0.86616 0.40333 0.0
H325 H 0.07451 0.80752 0.40306 0.0
loop_
_geom_bond_atom_site_label_1
_geom_bond_atom_site_label_2
_geom_bond_distance
_geom_bond_site_symmetry_2
_ccdc_geom_bond_type
H0 C8 0.930 . S
H1 C11 0.930 . S
H2 C13 0.930 1_565 S
H3 C14 0.970 . S
H4 C14 0.970 1_556 S
H5 C16 0.930 . S
H6 C18 0.930 1_565 S
H7 C20 0.930 . S
C8 H0 0.930 . S
C8 C9 1.382 . S
C8 C10 1.426 . S
C9 C8 1.382 . S
C9 C13 1.389 . S
C10 C8 1.426 . S
C10 C11 1.375 1_554 S
C10 C14 1.532 . S
C11 H1 0.930 . S
C11 C10 1.375 1_556 S
C11 C12 1.416 . S
C12 C11 1.416 . S
C12 C13 1.371 1_556 S
C13 H2 0.930 1_545 S
C13 C9 1.389 . S
C13 C12 1.371 1_554 S
C14 H3 0.970 . S
C14 H4 0.970 1_554 S
C14 C10 1.532 . S
C14 C15 1.500 . S
C15 C14 1.500 . S
C15 C16 1.392 . S
C15 C20 1.394 1_554 S
C16 H5 0.930 . S
C16 C15 1.392 . S
C16 C17 1.407 . S
C17 C16 1.407 . S
C17 C18 1.386 . S
C18 H6 0.930 1_545 S
C18 C17 1.386 . S
C18 C19 1.372 1_554 S
C19 C18 1.372 1_556 S
C19 C20 1.387 . S
C20 H7 0.930 . S
C20 C15 1.394 1_556 S
C20 C19 1.387 . S
H21 C29 0.930 . S
H22 C32 0.930 . S
H23 C34 0.930 1_655 S
H24 C35 0.970 . S
H25 C35 0.970 . S
H26 C37 0.930 . S
H27 C39 0.929 1_655 S
H28 C41 0.930 . S
C29 H21 0.930 . S
C29 C30 1.382 . S
C29 C31 1.426 . S
C30 C29 1.382 . S
C30 C34 1.389 . S
C31 C29 1.426 . S
C31 C32 1.375 . S
C31 C35 1.532 . S
C32 H22 0.930 . S
C32 C31 1.375 . S
C32 C33 1.416 . S
C33 C32 1.416 . S
C33 C34 1.371 . S
C34 H23 0.930 1_455 S
C34 C30 1.389 . S
C34 C33 1.371 . S
C35 H24 0.970 . S
C35 H25 0.970 . S
C35 C31 1.532 . S
C35 C36 1.499 . S
C36 C35 1.499 . S
C36 C37 1.370 . S
C36 C41 1.415 . S
C37 H26 0.930 . S
C37 C36 1.370 . S
C37 C38 1.407 . S
C38 C37 1.407 . S
C38 C39 1.365 . S
C39 H27 0.929 1_455 S
C39 C38 1.365 . S
C39 C40 1.394 . S
C40 C39 1.394 . S
C40 C41 1.387 . S
C41 H28 0.930 . S
C41 C36 1.415 . S
C41 C40 1.387 . S
O42 Cd43 2.223 1_655 S
O42 C50 1.315 . S
Cd43 O42 2.223 1_455 S
Cd43 O46 2.297 1_455 S
Cd43 O47 2.439 1_455 S
Cd43 O53 2.240 1_565 S
Cd44 O45 2.240 . S
Cd44 O52 2.223 1_655 S
Cd44 O54 2.297 1_655 S
Cd44 O55 2.439 1_655 S
O45 Cd44 2.240 . S
O45 C50 1.279 1_545 S
O46 Cd43 2.297 1_655 S
O46 C48 1.247 . S
O47 Cd43 2.439 1_655 S
O47 C48 1.208 . S
C48 O46 1.247 . S
C48 O47 1.208 . S
C49 O54 1.247 . S
C49 O55 1.208 . S
C50 O42 1.315 . S
C50 O45 1.279 1_565 S
C51 O52 1.315 . S
C51 O53 1.279 . S
O52 Cd44 2.223 1_455 S
O52 C51 1.315 . S
O53 Cd43 2.240 1_545 S
O53 C51 1.279 . S
O54 Cd44 2.297 1_455 S
O54 C49 1.247 . S
O55 Cd44 2.439 1_455 S
O55 C49 1.208 . S
O56 Cd57 2.223 1_655 S
O56 C64 1.315 . S
Cd57 O56 2.223 1_455 S
Cd57 O60 2.297 1_455 S
Cd57 O61 2.439 1_455 S
Cd57 O67 2.240 . S
Cd58 O59 2.240 1_565 S
Cd58 O66 2.223 1_655 S
Cd58 O68 2.297 1_655 S
Cd58 O69 2.439 1_655 S
O59 Cd58 2.240 1_545 S
O59 C64 1.279 . S
O60 Cd57 2.297 1_655 S
O60 C62 1.247 . S
O61 Cd57 2.439 1_655 S
O61 C62 1.208 . S
C62 O60 1.247 . S
C62 O61 1.208 . S
C63 O68 1.247 . S
C63 O69 1.208 . S
C64 O56 1.315 . S
C64 O59 1.279 . S
C65 O66 1.315 . S
C65 O67 1.279 1_565 S
O66 Cd58 2.223 1_455 S
O66 C65 1.315 . S
O67 Cd57 2.240 . S
O67 C65 1.279 1_545 S
O68 Cd58 2.297 1_455 S
O68 C63 1.247 . S
O69 Cd58 2.439 1_455 S
O69 C63 1.208 . S
C70 C71 1.391 1_565 S
C70 C72 1.393 1_565 S
C70 H86 0.931 . S
C71 C70 1.391 1_545 S
C71 C75 1.376 . S
C72 C70 1.393 1_545 S
C72 C73 1.370 . S
C72 C76 1.529 1_545 S
C73 C72 1.370 . S
C73 C74 1.410 . S
C73 C81 1.503 . S
C74 C73 1.410 . S
C74 C75 1.392 . S
C74 C77 1.511 . S
C75 C71 1.376 . S
C75 C74 1.392 . S
C75 H87 0.929 . S
C76 C72 1.529 1_565 S
C76 H88 0.960 . S
C76 H89 0.962 1_565 S
C76 H90 0.960 . S
C77 C74 1.511 . S
C77 H91 0.961 . S
C77 H92 0.961 . S
C77 H93 0.961 . S
C78 C79 1.370 . S
C78 C80 1.363 . S
C78 H94 0.931 . S
C79 C78 1.370 . S
C79 C83 1.408 1_545 S
C80 C78 1.363 . S
C80 C81 1.370 . S
C80 C84 1.524 . S
C81 C73 1.503 . S
C81 C80 1.370 . S
C81 C82 1.403 1_545 S
C82 C81 1.403 1_565 S
C82 C83 1.404 . S
C82 C85 1.539 . S
C83 C79 1.408 1_565 S
C83 C82 1.404 . S
C83 H95 0.930 . S
C84 C80 1.524 . S
C84 H96 0.956 . S
C84 H97 0.961 . S
C84 H98 0.961 . S
C85 C82 1.539 . S
C85 H99 0.958 . S
C85 H100 0.961 . S
C85 H101 0.960 . S
H86 C70 0.931 . S
H87 C75 0.929 . S
H88 C76 0.960 . S
H89 C76 0.962 1_545 S
H90 C76 0.960 . S
H91 C77 0.961 . S
H92 C77 0.961 . S
H93 C77 0.961 . S
H94 C78 0.931 . S
H95 C83 0.930 . S
H96 C84 0.956 . S
H97 C84 0.961 . S
H98 C84 0.961 . S
H99 C85 0.958 . S
H100 C85 0.961 . S
H101 C85 0.960 . S
C102 C103 1.391 1_655 S
C102 C104 1.394 . S
C102 H118 0.931 . S
C103 C102 1.391 1_455 S
C103 C107 1.376 . S
C104 C102 1.394 . S
C104 C105 1.369 1_655 S
C104 C108 1.531 . S
C105 C104 1.369 1_455 S
C105 C106 1.410 . S
C105 C113 1.503 1_455 S
C106 C105 1.410 . S
C106 C107 1.392 . S
C106 C109 1.511 . S
C107 C103 1.376 . S
C107 C106 1.392 . S
C107 H119 0.929 . S
C108 C104 1.531 . S
C108 H120 0.960 . S
C108 H121 0.962 . S
C108 H122 0.960 . S
C109 C106 1.511 . S
C109 H123 0.961 . S
C109 H124 0.961 . S
C109 H125 0.961 . S
C110 C111 1.370 . S
C110 C112 1.363 . S
C110 H126 0.931 . S
C111 C110 1.370 . S
C111 C115 1.408 1_655 S
C112 C110 1.363 . S
C112 C113 1.370 . S
C112 C116 1.524 . S
C113 C105 1.503 1_655 S
C113 C112 1.370 . S
C113 C114 1.403 1_655 S
C114 C113 1.403 1_455 S
C114 C115 1.404 . S
C114 C117 1.539 . S
C115 C111 1.408 1_455 S
C115 C114 1.404 . S
C115 H127 0.930 . S
C116 C112 1.524 . S
C116 H128 0.956 . S
C116 H129 0.961 . S
C116 H130 0.961 . S
C117 C114 1.539 . S
C117 H131 0.958 . S
C117 H132 0.961 . S
C117 H133 0.960 . S
H118 C102 0.931 . S
H119 C107 0.929 . S
H120 C108 0.960 . S
H121 C108 0.962 . S
H122 C108 0.960 . S
H123 C109 0.961 . S
H124 C109 0.961 . S
H125 C109 0.961 . S
H126 C110 0.931 . S
H127 C115 0.930 . S
H128 C116 0.956 . S
H129 C116 0.961 . S
H130 C116 0.961 . S
H131 C117 0.958 . S
H132 C117 0.961 . S
H133 C117 0.960 . S
C134 C135 1.391 1_565 S
C134 C136 1.394 . S
C134 H150 0.931 . S
C135 C134 1.391 1_545 S
C135 C139 1.376 . S
C136 C134 1.394 . S
C136 C137 1.369 1_565 S
C136 C140 1.531 . S
C137 C136 1.369 1_545 S
C137 C138 1.410 . S
C137 C145 1.503 . S
C138 C137 1.410 . S
C138 C139 1.392 . S
C138 C141 1.511 . S
C139 C135 1.376 . S
C139 C138 1.392 . S
C139 H151 0.929 . S
C140 C136 1.531 . S
C140 H152 0.960 . S
C140 H153 0.962 . S
C140 H154 0.960 . S
C141 C138 1.511 . S
C141 H155 0.961 . S
C141 H156 0.961 . S
C141 H157 0.961 . S
C142 C143 1.370 . S
C142 C144 1.363 . S
C142 H158 0.931 . S
C143 C142 1.370 . S
C143 C147 1.408 1_565 S
C144 C142 1.363 . S
C144 C145 1.370 1_565 S
C144 C148 1.524 . S
C145 C137 1.503 . S
C145 C144 1.370 1_545 S
C145 C146 1.403 . S
C146 C145 1.403 . S
C146 C147 1.404 . S
C146 C149 1.539 . S
C147 C143 1.408 1_545 S
C147 C146 1.404 . S
C147 H159 0.930 . S
C148 C144 1.524 . S
C148 H160 0.956 . S
C148 H161 0.961 . S
C148 H162 0.961 . S
C149 C146 1.539 . S
C149 H163 0.958 . S
C149 H164 0.961 . S
C149 H165 0.960 . S
H150 C134 0.931 . S
H151 C139 0.929 . S
H152 C140 0.960 . S
H153 C140 0.962 . S
H154 C140 0.960 . S
H155 C141 0.961 . S
H156 C141 0.961 . S
H157 C141 0.961 . S
H158 C142 0.931 . S
H159 C147 0.930 . S
H160 C148 0.956 . S
H161 C148 0.961 . S
H162 C148 0.961 . S
H163 C149 0.958 . S
H164 C149 0.961 . S
H165 C149 0.960 . S
C166 C167 1.391 1_655 S
C166 C168 1.394 . S
C166 H182 0.931 . S
C167 C166 1.391 1_455 S
C167 C171 1.376 . S
C168 C166 1.394 . S
C168 C169 1.369 1_655 S
C168 C172 1.531 . S
C169 C168 1.369 1_455 S
C169 C170 1.410 . S
C169 C177 1.503 . S
C170 C169 1.410 . S
C170 C171 1.392 . S
C170 C173 1.511 . S
C171 C167 1.376 . S
C171 C170 1.392 . S
C171 H183 0.929 . S
C172 C168 1.531 . S
C172 H184 0.960 . S
C172 H185 0.962 . S
C172 H186 0.960 . S
C173 C170 1.511 . S
C173 H187 0.961 . S
C173 H188 0.961 . S
C173 H189 0.961 . S
C174 C175 1.370 . S
C174 C176 1.363 . S
C174 H190 0.931 . S
C175 C174 1.370 . S
C175 C179 1.408 . S
C176 C174 1.363 . S
C176 C177 1.370 . S
C176 C180 1.524 . S
C177 C169 1.503 . S
C177 C176 1.370 . S
C177 C178 1.403 . S
C178 C177 1.403 . S
C178 C179 1.404 . S
C178 C181 1.539 . S
C179 C175 1.408 . S
C179 C178 1.404 . S
C179 H191 0.930 . S
C180 C176 1.524 . S
C180 H192 0.956 1_455 S
C180 H193 0.961 . S
C180 H194 0.961 . S
C181 C178 1.539 . S
C181 H195 0.958 . S
C181 H196 0.961 . S
C181 H197 0.960 . S
H182 C166 0.931 . S
H183 C171 0.929 . S
H184 C172 0.960 . S
H185 C172 0.962 . S
H186 C172 0.960 . S
H187 C173 0.961 . S
H188 C173 0.961 . S
H189 C173 0.961 . S
H190 C174 0.931 . S
H191 C179 0.930 . S
H192 C180 0.956 1_655 S
H193 C180 0.961 . S
H194 C180 0.961 . S
H195 C181 0.958 . S
H196 C181 0.961 . S
H197 C181 0.960 . S
C198 C199 1.391 1_565 S
C198 C200 1.394 . S
C198 H214 0.931 . S
C199 C198 1.391 1_545 S
C199 C203 1.376 . S
C200 C198 1.394 . S
C200 C201 1.369 . S
C200 C204 1.531 . S
C201 C200 1.369 . S
C201 C202 1.410 1_565 S
C201 C209 1.503 . S
C202 C201 1.410 1_545 S
C202 C203 1.392 . S
C202 C205 1.511 . S
C203 C199 1.376 . S
C203 C202 1.392 . S
C203 H215 0.929 . S
C204 C200 1.531 . S
C204 H216 0.960 . S
C204 H217 0.962 . S
C204 H218 0.960 . S
C205 C202 1.511 . S
C205 H219 0.961 . S
C205 H220 0.961 . S
C205 H221 0.961 . S
C206 C207 1.370 1_545 S
C206 C208 1.363 . S
C206 H222 0.931 . S
C207 C206 1.370 1_565 S
C207 C211 1.408 . S
C208 C206 1.363 . S
C208 C209 1.370 1_545 S
C208 C212 1.524 . S
C209 C201 1.503 . S
C209 C208 1.370 1_565 S
C209 C210 1.403 . S
C210 C209 1.403 . S
C210 C211 1.404 . S
C210 C213 1.539 . S
C211 C207 1.408 . S
C211 C210 1.404 . S
C211 H223 0.930 . S
C212 C208 1.524 . S
C212 H224 0.956 . S
C212 H225 0.961 . S
C212 H226 0.961 . S
C213 C210 1.539 . S
C213 H227 0.958 . S
C213 H228 0.961 . S
C213 H229 0.960 . S
H214 C198 0.931 . S
H215 C203 0.929 . S
H216 C204 0.960 . S
H217 C204 0.962 . S
H218 C204 0.960 . S
H219 C205 0.961 . S
H220 C205 0.961 . S
H221 C205 0.961 . S
H222 C206 0.931 . S
H223 C211 0.930 . S
H224 C212 0.956 . S
H225 C212 0.961 . S
H226 C212 0.961 . S
H227 C213 0.958 . S
H228 C213 0.961 . S
H229 C213 0.960 . S
C230 C231 1.391 1_655 S
C230 C232 1.394 . S
C230 H246 0.931 . S
C231 C230 1.391 1_455 S
C231 C235 1.376 . S
C232 C230 1.394 . S
C232 C233 1.369 1_655 S
C232 C236 1.531 . S
C233 C232 1.369 1_455 S
C233 C234 1.410 . S
C233 C241 1.503 . S
C234 C233 1.410 . S
C234 C235 1.392 . S
C234 C237 1.511 . S
C235 C231 1.376 . S
C235 C234 1.392 . S
C235 H247 0.929 . S
C236 C232 1.531 . S
C236 H248 0.960 . S
C236 H249 0.962 . S
C236 H250 0.960 . S
C237 C234 1.511 . S
C237 H251 0.961 . S
C237 H252 0.961 . S
C237 H253 0.961 . S
C238 C239 1.370 . S
C238 C240 1.363 . S
C238 H254 0.930 1_455 S
C239 C238 1.370 . S
C239 C243 1.408 . S
C240 C238 1.363 . S
C240 C241 1.370 . S
C240 C244 1.524 1_455 S
C241 C233 1.503 . S
C241 C240 1.370 . S
C241 C242 1.403 . S
C242 C241 1.403 . S
C242 C243 1.404 . S
C242 C245 1.539 . S
C243 C239 1.408 . S
C243 C242 1.404 . S
C243 H255 0.930 . S
C244 C240 1.524 1_655 S
C244 H256 0.956 . S
C244 H257 0.961 1_655 S
C244 H258 0.961 . S
C245 C242 1.539 . S
C245 H259 0.958 . S
C245 H260 0.961 . S
C245 H261 0.960 . S
H246 C230 0.931 . S
H247 C235 0.929 . S
H248 C236 0.960 . S
H249 C236 0.962 . S
H250 C236 0.960 . S
H251 C237 0.961 . S
H252 C237 0.961 . S
H253 C237 0.961 . S
H254 C238 0.930 1_655 S
H255 C243 0.930 . S
H256 C244 0.956 . S
H257 C244 0.961 1_455 S
H258 C244 0.961 . S
H259 C245 0.958 . S
H260 C245 0.961 . S
H261 C245 0.960 . S
C262 C263 1.391 . S
C262 C264 1.394 . S
C262 H278 0.931 . S
C263 C262 1.391 . S
C263 C267 1.376 . S
C264 C262 1.394 . S
C264 C265 1.369 . S
C264 C268 1.531 . S
C265 C264 1.369 . S
C265 C266 1.410 . S
C265 C273 1.503 . S
C266 C265 1.410 . S
C266 C267 1.392 . S
C266 C269 1.511 1_545 S
C267 C263 1.376 . S
C267 C266 1.392 . S
C267 H279 0.929 1_545 S
C268 C264 1.531 . S
C268 H280 0.960 . S
C268 H281 0.962 . S
C268 H282 0.960 . S
C269 C266 1.511 1_565 S
C269 H283 0.960 . S
C269 H284 0.961 . S
C269 H285 0.961 1_565 S
C270 C271 1.360 1_565 S
C270 C272 1.364 . S
C270 H286 0.940 . S
C271 C270 1.360 1_545 S
C271 C275 1.408 . S
C272 C270 1.364 . S
C272 C273 1.370 1_565 S
C272 C276 1.524 . S
C273 C265 1.503 . S
C273 C272 1.370 1_545 S
C273 C274 1.403 . S
C274 C273 1.403 . S
C274 C275 1.404 . S
C274 C277 1.539 . S
C275 C271 1.408 . S
C275 C274 1.404 . S
C275 H287 0.930 . S
C276 C272 1.524 . S
C276 H288 0.956 . S
C276 H289 0.961 . S
C276 H290 0.961 . S
C277 C274 1.539 . S
C277 H291 0.958 . S
C277 H292 0.961 . S
C277 H293 0.960 . S
H278 C262 0.931 . S
H279 C267 0.929 1_565 S
H280 C268 0.960 . S
H281 C268 0.962 . S
H282 C268 0.960 . S
H283 C269 0.960 . S
H284 C269 0.961 . S
H285 C269 0.961 1_545 S
H286 C270 0.940 . S
H287 C275 0.930 . S
H288 C276 0.956 . S
H289 C276 0.961 . S
H290 C276 0.961 . S
H291 C277 0.958 . S
H292 C277 0.961 . S
H293 C277 0.960 . S
C294 C295 1.391 1_655 S
C294 C296 1.394 . S
C294 H310 0.931 . S
C295 C294 1.391 1_455 S
C295 C299 1.376 . S
C296 C294 1.394 . S
C296 C297 1.369 . S
C296 C300 1.531 . S
C297 C296 1.369 . S
C297 C298 1.410 1_655 S
C297 C305 1.503 . S
C298 C297 1.410 1_455 S
C298 C299 1.392 . S
C298 C301 1.511 . S
C299 C295 1.376 . S
C299 C298 1.392 . S
C299 H311 0.929 . S
C300 C296 1.531 . S
C300 H312 0.960 . S
C300 H313 0.962 . S
C300 H314 0.960 . S
C301 C298 1.511 . S
C301 H315 0.961 . S
C301 H316 0.961 . S
C301 H317 0.961 . S
C302 C303 1.370 . S
C302 C304 1.363 . S
C302 H318 0.931 1_655 S
C303 C302 1.370 . S
C303 C307 1.408 . S
C304 C302 1.363 . S
C304 C305 1.370 . S
C304 C308 1.524 1_655 S
C305 C297 1.503 . S
C305 C304 1.370 . S
C305 C306 1.403 . S
C306 C305 1.403 . S
C306 C307 1.404 . S
C306 C309 1.539 . S
C307 C303 1.408 . S
C307 C306 1.404 . S
C307 H319 0.930 . S
C308 C304 1.524 1_455 S
C308 H320 0.956 1_455 S
C308 H321 0.961 . S
C308 H322 0.961 . S
C309 C306 1.539 . S
C309 H323 0.958 . S
C309 H324 0.961 . S
C309 H325 0.960 . S
H310 C294 0.931 . S
H311 C299 0.929 . S
H312 C300 0.960 . S
H313 C300 0.962 . S
H314 C300 0.960 . S
H315 C301 0.961 . S
H316 C301 0.961 . S
H317 C301 0.961 . S
H318 C302 0.931 1_455 S
H319 C307 0.930 . S
H320 C308 0.956 1_655 S
H321 C308 0.961 . S
H322 C308 0.961 . S
H323 C309 0.958 . S
H324 C309 0.961 . S
H325 C309 0.960 . S
C79 C51 1.675 . S
C71 C17 1.606 . S
C111 C62 1.561 . S
C103 C40 1.552 . S
C143 C50 1.678 . S
C135 C9 1.586 . S
C175 C63 1.563 . S
C167 C33 1.548 . S
C207 C65 1.667 . S
C199 C19 1.606 . S
C239 C49 1.574 . S
C231 C38 1.555 . S
C271 C64 1.673 . S
C263 C12 1.526 . S
C295 C30 1.559 . S
C303 C48 1.584 . S
