# Generated by pormake.
# Topology zzz, (3,6)-cn, num edge types: 1
# Building blocks:
#     Node 0, Type 0, BuildingBlock: ESEHIV_clean_linker_0, # of connection points: 3
#     Node 1, Type 0, BuildingBlock: ESEHIV_clean_linker_0, # of connection points: 3
#     Node 2, Type 0, BuildingBlock: ESEHIV_clean_linker_0, # of connection points: 3
#     Node 3, Type 0, BuildingBlock: ESEHIV_clean_linker_0, # of connection points: 3
#     Node 4, Type 0, BuildingBlock: ESEHIV_clean_linker_0, # of connection points: 3
#     Node 5, Type 0, BuildingBlock: ESEHIV_clean_linker_0, # of connection points: 3
#     Node 6, Type 0, BuildingBlock: ESEHIV_clean_linker_0, # of connection points: 3
#     Node 7, Type 0, BuildingBlock: ESEHIV_clean_linker_0, # of connection points: 3
#     Node 8, Type 1, BuildingBlock: KUMJIN_clean_sbu_0, # of connection points: 6
#     Node 9, Type 1, BuildingBlock: KUMJIN_clean_sbu_0, # of connection points: 6
#     Node 10, Type 1, BuildingBlock: KUMJIN_clean_sbu_0, # of connection points: 6
#     Node 11, Type 1, BuildingBlock: KUMJIN_clean_sbu_0, # of connection points: 6
#     Edge 12, Type (0, 1), BuildingBlock: ZUJKAS_clean_linker_0, # of connection points: 2
#     Edge 13, Type (0, 1), BuildingBlock: ZUJKAS_clean_linker_0, # of connection points: 2
#     Edge 14, Type (0, 1), BuildingBlock: ZUJKAS_clean_linker_0, # of connection points: 2
#     Edge 15, Type (0, 1), BuildingBlock: ZUJKAS_clean_linker_0, # of connection points: 2
#     Edge 16, Type (0, 1), BuildingBlock: ZUJKAS_clean_linker_0, # of connection points: 2
#     Edge 17, Type (0, 1), BuildingBlock: ZUJKAS_clean_linker_0, # of connection points: 2
#     Edge 18, Type (0, 1), BuildingBlock: ZUJKAS_clean_linker_0, # of connection points: 2
#     Edge 19, Type (0, 1), BuildingBlock: ZUJKAS_clean_linker_0, # of connection points: 2
#     Edge 20, Type (0, 1), BuildingBlock: ZUJKAS_clean_linker_0, # of connection points: 2
#     Edge 21, Type (0, 1), BuildingBlock: ZUJKAS_clean_linker_0, # of connection points: 2
#     Edge 22, Type (0, 1), BuildingBlock: ZUJKAS_clean_linker_0, # of connection points: 2
#     Edge 23, Type (0, 1), BuildingBlock: ZUJKAS_clean_linker_0, # of connection points: 2
#     Edge 24, Type (0, 1), BuildingBlock: ZUJKAS_clean_linker_0, # of connection points: 2
#     Edge 25, Type (0, 1), BuildingBlock: ZUJKAS_clean_linker_0, # of connection points: 2
#     Edge 26, Type (0, 1), BuildingBlock: ZUJKAS_clean_linker_0, # of connection points: 2
#     Edge 27, Type (0, 1), BuildingBlock: ZUJKAS_clean_linker_0, # of connection points: 2
#     Edge 28, Type (0, 1), BuildingBlock: ZUJKAS_clean_linker_0, # of connection points: 2
#     Edge 29, Type (0, 1), BuildingBlock: ZUJKAS_clean_linker_0, # of connection points: 2
#     Edge 30, Type (0, 1), BuildingBlock: ZUJKAS_clean_linker_0, # of connection points: 2
#     Edge 31, Type (0, 1), BuildingBlock: ZUJKAS_clean_linker_0, # of connection points: 2
#     Edge 32, Type (0, 1), BuildingBlock: ZUJKAS_clean_linker_0, # of connection points: 2
#     Edge 33, Type (0, 1), BuildingBlock: ZUJKAS_clean_linker_0, # of connection points: 2
#     Edge 34, Type (0, 1), BuildingBlock: ZUJKAS_clean_linker_0, # of connection points: 2
#     Edge 35, Type (0, 1), BuildingBlock: ZUJKAS_clean_linker_0, # of connection points: 2
# Relax obj value: 0.296
# Max RMSD: 0.224
# Mean RMSD: 0.211
data_MOF--net-zzz--node1-KUMJIN_clean_sbu_0--node2-ESEHIV_clean_linker_0--edge1-ZUJKAS_clean_linker_0
_symmetry_space_group_name_H-M    P1
_symmetry_Int_Tables_number       1
_symmetry_cell_setting            triclinic
loop_
_symmetry_equiv_pos_as_xyz
'x, y, z'
_cell_length_a     57.481956
_cell_length_b     57.552147
_cell_length_c     19.998826
_cell_angle_alpha  91.023159
_cell_angle_beta   90.175613
_cell_angle_gamma 90.041162
loop_
_atom_site_label
_atom_site_type_symbol
_atom_site_fract_x
_atom_site_fract_y
_atom_site_fract_z
_atom_type_partial_charge
H0 H 0.78108 0.60066 0.23036 0.0
H1 H 0.71915 0.60214 0.11203 0.0
H2 H 0.72251 0.55852 0.28468 0.0
C3 C 0.76281 0.59628 0.22432 0.0
C4 C 0.75262 0.5807 0.26871 0.0
C5 C 0.75122 0.60278 0.16609 0.0
C6 C 0.72784 0.59704 0.15779 0.0
C7 C 0.71725 0.58075 0.19901 0.0
C8 C 0.72995 0.57201 0.2543 0.0
H9 H 0.93327 0.78192 0.26809 0.0
H10 H 0.94473 0.73276 0.10908 0.0
H11 H 0.98738 0.73044 0.28537 0.0
C12 C 0.94198 0.76637 0.24971 0.0
C13 C 0.96095 0.75765 0.28544 0.0
C14 C 0.93833 0.75962 0.18312 0.0
C15 C 0.94808 0.73872 0.15993 0.0
C16 C 0.96477 0.727 0.19789 0.0
C17 C 0.97249 0.73746 0.25939 0.0
H18 H 0.74559 0.93774 0.26383 0.0
H19 H 0.80452 0.93697 0.13489 0.0
H20 H 0.80157 0.98594 0.30004 0.0
C21 C 0.76338 0.94305 0.25421 0.0
C22 C 0.7732 0.96085 0.29391 0.0
C23 C 0.77366 0.93625 0.19395 0.0
C24 C 0.79662 0.94278 0.18153 0.0
C25 C 0.80686 0.96122 0.21777 0.0
C26 C 0.79483 0.97068 0.27413 0.0
H27 H 0.5972 0.74883 0.22858 0.0
H28 H 0.56027 0.80853 0.30465 0.0
H29 H 0.59904 0.81236 0.12083 0.0
C30 C 0.59341 0.76723 0.22598 0.0
C31 C 0.5998 0.77941 0.16884 0.0
C32 C 0.57986 0.77751 0.27673 0.0
C33 C 0.57194 0.80066 0.26841 0.0
C34 C 0.57945 0.8135 0.21239 0.0
C35 C 0.59403 0.80286 0.16492 0.0
H36 H 0.24822 0.43787 0.03857 0.0
H37 H 0.30987 0.4341 0.15886 0.0
H38 H 0.30849 0.47753 0.98553 0.0
C39 C 0.26655 0.44165 0.04594 0.0
C40 C 0.27746 0.4568 1.00183 0.0
C41 C 0.27774 0.43441 0.10431 0.0
C42 C 0.30124 0.43976 0.11363 0.0
C43 C 0.31257 0.45545 0.07197 0.0
C44 C 0.30043 0.46446 0.01616 0.0
H45 H 0.0922 0.24913 1.01385 0.0
H46 H 0.09365 0.3103 0.13914 0.0
H47 H 0.04311 0.30384 0.98031 0.0
C48 C 0.08663 0.26683 0.02431 0.0
C49 C 0.06837 0.27575 0.98618 0.0
C50 C 0.0944 0.2783 0.08257 0.0
C51 C 0.08718 0.30117 0.09489 0.0
C52 C 0.06844 0.3106 0.05956 0.0
C53 C 0.05852 0.29754 1.00544 0.0
H54 H 0.28497 0.09726 0.98244 0.0
H55 H 0.23409 0.08722 0.13413 0.0
H56 H 0.22929 0.04812 0.94954 0.0
C57 C 0.26834 0.08998 0.99703 0.0
C58 C 0.25814 0.07264 0.95667 0.0
C59 C 0.26145 0.09293 0.06344 0.0
C60 C 0.23982 0.0844 0.08298 0.0
C61 C 0.22724 0.06911 0.0411 0.0
C62 C 0.23718 0.06205 0.9788 0.0
H63 H 0.43308 0.28442 1.01256 0.0
H64 H 0.47439 0.22457 0.96157 0.0
H65 H 0.43179 0.22514 0.13826 0.0
C66 C 0.43716 0.26625 0.02034 0.0
C67 C 0.43126 0.25617 0.08106 0.0
C68 C 0.45231 0.25493 0.97567 0.0
C69 C 0.4609 0.23259 0.99179 0.0
C70 C 0.45272 0.2214 0.04983 0.0
C71 C 0.43663 0.23286 0.09111 0.0
Eu72 Eu 0.04272 1.00689 0.69011 0.0
C73 C 0.95372 0.99671 0.51149 0.0
C74 C 0.96909 0.97592 0.41495 0.0
C75 C 0.9277 0.97462 0.43796 0.0
C76 C 0.97249 0.99038 0.47207 0.0
C77 C 0.93105 0.98918 0.49415 0.0
C78 C 0.94668 0.96795 0.39856 0.0
C79 C 0.91621 0.01262 0.58566 0.0
N80 N 0.95737 1.01106 0.56497 0.0
C81 C 0.93889 0.01977 0.60042 0.0
C82 C 0.91227 0.9971 0.53258 0.0
Eu83 Eu 0.99574 0.02513 0.58223 0.0
N84 N 0.99394 0.9987 0.48844 0.0
C85 C 0.01261 0.99323 0.4486 0.0
C86 C 0.98822 0.97017 0.3751 0.0
C87 C 1.01006 0.97884 0.39213 0.0
H88 H 0.9417 0.03226 0.64074 0.0
H89 H 0.02504 0.97439 0.36186 0.0
H90 H 0.94381 0.95691 0.35486 0.0
H91 H 0.90177 0.01931 0.61476 0.0
H92 H 0.02992 0.9989 0.46067 0.0
H93 H 1.00909 0.05242 0.91464 0.0
H94 H 0.98628 0.95919 0.33088 0.0
H95 H 0.09787 1.00407 0.63638 0.0
H96 H 1.00647 0.02826 0.81477 0.0
H97 H 0.13586 0.02205 0.6602 0.0
H98 H 0.91043 0.9687 0.42394 0.0
H99 H 0.0457 0.07267 0.94323 0.0
H100 H 0.08721 0.08053 0.91687 0.0
H101 H 0.89463 0.99177 0.52067 0.0
H102 H 0.1214 0.07297 0.84662 0.0
N103 N 0.04181 0.03316 0.78449 0.0
C104 C 0.02299 0.03597 0.82588 0.0
C105 C 0.04481 0.06171 0.89869 0.0
C106 C 0.06411 0.05877 0.85716 0.0
C107 C 0.02421 0.05019 0.88303 0.0
C108 C 0.06211 0.04425 0.79959 0.0
H109 H 0.13961 0.05152 0.75091 0.0
N110 N 0.07935 0.02538 0.70633 0.0
C111 C 0.12063 0.02773 0.68768 0.0
C112 C 0.08133 0.04033 0.75927 0.0
C113 C 0.09893 0.01794 0.67343 0.0
C114 C 0.12267 0.04429 0.73892 0.0
C115 C 0.10306 0.05036 0.77656 0.0
O116 O 0.06891 0.97984 0.69834 0.0
O117 O 0.01389 0.99395 0.62272 0.0
O118 O 0.97751 1.0081 0.6699 0.0
O119 O 1.00807 0.99758 0.74036 0.0
O120 O 0.0462 0.97886 0.60966 0.0
O121 O 0.04527 0.98648 0.78079 0.0
O122 O 0.97248 0.05518 0.57635 0.0
O123 O 0.02462 0.0381 0.64982 0.0
O124 O 0.0606 0.02178 0.59837 0.0
O125 O 0.03002 0.03181 0.52788 0.0
O126 O 0.99147 0.05086 0.66816 0.0
O127 O 0.99751 0.04774 0.49583 0.0
C128 C 0.02477 0.97817 0.59074 0.0
C129 C 0.06261 0.94895 0.77105 0.0
C130 C 0.04434 0.91401 0.81179 0.0
C131 C 0.04278 0.93738 0.79396 0.0
C132 C 0.06555 0.90212 0.80511 0.0
C133 C 0.08367 0.93683 0.76399 0.0
C134 C 0.08508 0.91348 0.78069 0.0
C135 C 0.98549 0.99971 0.72687 0.0
C136 C 0.06246 0.97388 0.75781 0.0
C137 C 0.10487 0.06519 0.83271 0.0
C138 C 0.08543 0.06942 0.87282 0.0
C139 C 0.01311 0.05278 0.68422 0.0
C140 C 0.97276 0.08144 0.48311 0.0
C141 C 0.98881 0.09504 0.44905 0.0
C142 C 0.98171 0.11541 0.41746 0.0
C143 C 0.95812 0.12187 0.41969 0.0
C144 C 0.94932 0.0881 0.48558 0.0
C145 C 0.94203 0.1082 0.4535 0.0
C146 C 0.05254 0.02949 0.54072 0.0
C147 C 0.98095 0.0611 0.51896 0.0
H148 H 0.02644 0.94659 0.79989 0.0
H149 H 0.06695 0.88402 0.81864 0.0
H150 H 0.09915 0.94557 0.74643 0.0
H151 H 0.10139 0.90425 0.7755 0.0
H152 H 1.00704 0.09019 0.44957 0.0
H153 H 0.95212 0.13741 0.39525 0.0
H154 H 0.93671 0.07779 0.51225 0.0
H155 H 0.92392 0.11328 0.45521 0.0
Eu156 Eu 0.52367 0.03967 0.68547 0.0
C157 C 0.54383 0.9551 0.5041 0.0
C158 C 0.56134 0.97353 0.4085 0.0
C159 C 0.56977 0.93311 0.43045 0.0
C160 C 0.54659 0.97453 0.46501 0.0
C161 C 0.55522 0.9341 0.48659 0.0
C162 C 0.57286 0.95279 0.39162 0.0
C163 C 0.53558 0.91569 0.57777 0.0
N164 N 0.52944 0.95639 0.55774 0.0
C165 C 0.52446 0.93669 0.5926 0.0
C166 C 0.55119 0.91442 0.52483 0.0
Eu167 Eu 0.50822 0.99163 0.57334 0.0
N168 N 0.53505 0.99437 0.48207 0.0
C169 C 0.538 0.01386 0.44443 0.0
C170 C 0.56408 0.99337 0.37015 0.0
C171 C 0.55243 0.01363 0.38844 0.0
H172 H 0.51121 0.93683 0.63074 0.0
H173 H 0.55472 0.02925 0.35978 0.0
H174 H 0.5841 0.95175 0.34826 0.0
H175 H 0.53162 0.90036 0.60618 0.0
H176 H 0.53033 0.03018 0.45799 0.0
H177 H 0.47669 1.00317 0.89962 0.0
H178 H 0.57527 0.99327 0.32665 0.0
H179 H 0.52388 0.09455 0.63161 0.0
H180 H 0.50233 1.00204 0.80397 0.0
H181 H 0.50519 0.13199 0.65817 0.0
H182 H 0.57853 0.91712 0.41624 0.0
H183 H 0.45562 0.03917 0.92957 0.0
H184 H 0.44744 0.08078 0.907 0.0
H185 H 0.55951 0.898 0.51267 0.0
H186 H 0.45471 0.11552 0.84082 0.0
N187 N 0.49692 0.03739 0.77666 0.0
C188 C 0.49399 0.01818 0.81535 0.0
C189 C 0.46711 0.03889 0.88671 0.0
C190 C 0.47027 0.05862 0.84815 0.0
C191 C 0.47903 0.0186 0.87019 0.0
C192 C 0.4854 0.05738 0.79253 0.0
H193 H 0.47595 0.13469 0.74821 0.0
N194 N 0.50387 0.07546 0.70157 0.0
C195 C 0.50018 0.11659 0.68491 0.0
C196 C 0.48898 0.07687 0.75403 0.0
C197 C 0.51052 0.09524 0.66958 0.0
C198 C 0.48373 0.11803 0.73574 0.0
C199 C 0.47824 0.09819 0.77183 0.0
O200 O 0.55019 0.06664 0.69359 0.0
O201 O 0.53822 1.01109 0.61941 0.0
O202 O 0.5208 0.97532 0.6697 0.0
O203 O 0.53526 1.00603 0.7355 0.0
O204 O 0.55186 0.04413 0.6078 0.0
O205 O 0.54262 0.0451 0.77908 0.0
O206 O 0.4848 0.96241 0.55627 0.0
O207 O 0.49384 0.0199 0.64028 0.0
O208 O 0.50675 0.05643 0.59475 0.0
O209 O 0.49765 0.02536 0.52267 0.0
O210 O 0.47973 0.9871 0.6503 0.0
O211 O 0.48565 0.99029 0.48521 0.0
C212 C 0.55364 0.02263 0.58947 0.0
C213 C 0.57914 0.06474 0.77697 0.0
C214 C 0.61473 0.04906 0.82452 0.0
C215 C 0.59233 0.04567 0.79742 0.0
C216 C 0.62389 0.07177 0.82868 0.0
C217 C 0.58868 0.08713 0.78065 0.0
C218 C 0.61101 0.0906 0.80608 0.0
C219 C 0.53123 0.98355 0.72421 0.0
C220 C 0.55488 0.06228 0.75577 0.0
C221 C 0.46307 0.09932 0.82658 0.0
C222 C 0.45902 0.07957 0.86441 0.0
C223 C 0.47827 1.00848 0.66995 0.0
C224 C 0.45024 0.96895 0.49632 0.0
C225 C 0.43654 0.98757 0.47473 0.0
C226 C 0.41262 0.98445 0.46439 0.0
C227 C 0.40228 0.96288 0.47639 0.0
C228 C 0.43964 0.94743 0.50861 0.0
C229 C 0.41576 0.94448 0.49897 0.0
C230 C 0.49876 0.04795 0.53705 0.0
C231 C 0.47567 0.97093 0.50253 0.0
H232 H 0.58499 0.02837 0.79288 0.0
H233 H 0.64078 0.07518 0.85082 0.0
H234 H 0.57863 0.10202 0.765 0.0
H235 H 0.61815 0.10798 0.80969 0.0
H236 H 0.44442 1.00424 0.46425 0.0
H237 H 0.38383 0.96028 0.46776 0.0
H238 H 0.44992 0.93277 0.5248 0.0
H239 H 0.40777 0.9278 0.50805 0.0
Eu240 Eu 0.54191 0.50499 0.58034 0.0
C241 C 0.43922 0.51437 0.66504 0.0
C242 C 0.42308 0.53651 0.57415 0.0
C243 C 0.39765 0.51288 0.64184 0.0
C244 C 0.44232 0.52942 0.61284 0.0
C245 C 0.41675 0.50628 0.68102 0.0
C246 C 0.40081 0.52799 0.58859 0.0
C247 C 0.43316 0.48815 0.77825 0.0
N248 N 0.4579 0.50883 0.70302 0.0
C249 C 0.45498 0.49684 0.76089 0.0
C250 C 0.41398 0.49267 0.73769 0.0
Eu251 Eu 0.49372 0.52704 0.67763 0.0
N252 N 0.46393 0.53798 0.60174 0.0
C253 C 0.46736 0.55401 0.55306 0.0
C254 C 0.42667 0.5525 0.5234 0.0
C255 C 0.4489 0.56137 0.51305 0.0
H256 H 0.4697 0.49369 0.79331 0.0
H257 H 0.45189 0.57383 0.4741 0.0
H258 H 0.38583 0.53335 0.55969 0.0
H259 H 0.43113 0.47821 0.82329 0.0
H260 H 0.48436 0.56085 0.54323 0.0
H261 H 0.57819 0.45089 0.78402 0.0
H262 H 0.41236 0.55833 0.49257 0.0
H263 H 0.57057 0.54185 0.48175 0.0
H264 H 0.54767 0.46604 0.7156 0.0
H265 H 0.60951 0.55838 0.46975 0.0
H266 H 0.38027 0.50687 0.65337 0.0
H267 H 0.61817 0.46583 0.77506 0.0
H268 H 0.64615 0.49233 0.72148 0.0
H269 H 0.397 0.48621 0.75174 0.0
H270 H 0.65433 0.52256 0.64021 0.0
N271 N 0.56931 0.48929 0.65975 0.0
C272 C 0.56477 0.47249 0.70609 0.0
C273 C 0.60469 0.47254 0.7427 0.0
C274 C 0.60949 0.48986 0.69691 0.0
C275 C 0.58223 0.46395 0.74752 0.0
C276 C 0.59128 0.49827 0.65602 0.0
H277 H 0.64088 0.54739 0.54746 0.0
N278 N 0.57852 0.52358 0.57108 0.0
C279 C 0.60589 0.54681 0.51053 0.0
C280 C 0.59591 0.51582 0.61096 0.0
C281 C 0.58364 0.53765 0.51852 0.0
C282 C 0.62351 0.54052 0.55432 0.0
C283 C 0.61884 0.52446 0.60413 0.0
O284 O 0.5444 0.50745 0.47156 0.0
O285 O 0.50478 0.51731 0.57431 0.0
O286 O 0.4913 0.48721 0.67937 0.0
O287 O 0.52508 0.47322 0.62677 0.0
O288 O 0.51229 0.48515 0.53079 0.0
O289 O 0.56452 0.48159 0.52473 0.0
O290 O 0.48746 0.53502 0.78342 0.0
O291 O 0.53278 0.52453 0.67361 0.0
O292 O 0.53997 0.54451 0.5645 0.0
O293 O 0.51115 0.55898 0.63537 0.0
O294 O 0.51666 0.51261 0.75899 0.0
O295 O 0.48397 0.56233 0.70868 0.0
C296 C 0.49623 0.50032 0.54118 0.0
C297 C 0.55549 0.47334 0.41255 0.0
C298 C 0.53897 0.4374 0.36926 0.0
C299 C 0.54063 0.45427 0.42016 0.0
C300 C 0.55219 0.43961 0.31079 0.0
C301 C 0.56843 0.4756 0.35377 0.0
C302 C 0.56679 0.45873 0.30305 0.0
C303 C 0.50569 0.47007 0.66178 0.0
C304 C 0.55908 0.4902 0.46682 0.0
C305 C 0.63671 0.5161 0.64489 0.0
C306 C 0.63205 0.49882 0.69093 0.0
C307 C 0.53638 0.51716 0.73186 0.0
C308 C 0.47599 0.57294 0.82346 0.0
C309 C 0.49037 0.59202 0.83565 0.0
C310 C 0.48601 0.60687 0.89004 0.0
C311 C 0.46675 0.60304 0.93129 0.0
C312 C 0.45701 0.56868 0.86532 0.0
C313 C 0.45225 0.58392 0.91876 0.0
C314 C 0.52782 0.56199 0.59095 0.0
C315 C 0.48237 0.55645 0.77103 0.0
H316 H 0.53083 0.45219 0.46582 0.0
H317 H 0.55094 0.42672 0.27078 0.0
H318 H 0.58007 0.49022 0.34764 0.0
H319 H 0.57688 0.46044 0.25781 0.0
H320 H 0.5055 0.59483 0.8044 0.0
H321 H 0.46338 0.61439 0.97395 0.0
H322 H 0.44606 0.55356 0.85691 0.0
H323 H 0.43763 0.58065 0.95121 0.0
Eu324 Eu 0.02748 0.54111 0.58707 0.0
C325 C 0.0181 0.43886 0.64442 0.0
C326 C 0.99592 0.42554 0.54773 0.0
C327 C 0.0198 0.39823 0.6083 0.0
C328 C 1.00268 0.44348 0.59288 0.0
C329 C 0.02673 0.41609 0.65269 0.0
C330 C 1.00445 0.40295 0.55595 0.0
C331 C 0.04738 0.42967 0.75093 0.0
N332 N 0.02435 0.45641 0.6871 0.0
C333 C 0.03816 0.4518 0.74151 0.0
C334 C 0.04173 0.41174 0.70616 0.0
Eu335 Eu 1.00393 0.49223 0.67422 0.0
N336 N 0.9947 0.46552 0.5858 0.0
C337 C 0.98026 0.47072 0.53357 0.0
C338 C 0.98085 0.4308 0.49523 0.0
C339 C 0.97323 0.45355 0.48765 0.0
H340 H 0.04145 0.46505 0.77945 0.0
H341 H 0.96191 0.4579 0.44638 0.0
H342 H 0.99932 0.38899 0.52194 0.0
H343 H 0.05836 0.42634 0.79376 0.0
H344 H 0.97439 0.48815 0.52548 0.0
H345 H 0.0785 0.57644 0.8028 0.0
H346 H 0.9752 0.41746 0.45988 0.0
H347 H 0.9907 0.56996 0.48655 0.0
H348 H 0.06059 0.5461 0.73621 0.0
H349 H 0.97812 0.60975 0.46641 0.0
H350 H 0.02615 0.38067 0.61422 0.0
H351 H 0.07001 0.61751 0.78044 0.0
H352 H 0.04752 0.64663 0.71704 0.0
H353 H 0.0486 0.39449 0.71419 0.0
H354 H 0.0194 0.65559 0.62874 0.0
N355 N 0.04302 0.56862 0.66848 0.0
C356 C 0.05736 0.56349 0.72125 0.0
C357 C 0.06218 0.60402 0.74929 0.0
C358 C 0.04649 0.60943 0.69863 0.0
C359 C 0.06721 0.58092 0.76156 0.0
C360 C 0.03684 0.5912 0.65893 0.0
H361 H 0.9932 0.64207 0.53676 0.0
N362 N 1.01112 0.57865 0.57306 0.0
C363 C 0.98975 0.60624 0.5077 0.0
C364 C 0.02043 0.59629 0.61031 0.0
C365 C 0.99669 0.58353 0.52038 0.0
C366 C 0.99836 0.6244 0.5473 0.0
C367 C 0.01409 0.61964 0.59868 0.0
O368 O 0.02317 0.54202 0.47858 0.0
O369 O 0.01623 0.50359 0.57447 0.0
O370 O 0.0431 0.49459 0.69702 0.0
O371 O 0.05927 0.52517 0.63667 0.0
O372 O 0.04934 0.51189 0.54265 0.0
O373 O 0.05101 0.56173 0.52734 0.0
O374 O 0.99447 0.47029 0.75728 0.0
O375 O 1.00675 0.5313 0.67674 0.0
O376 O 0.98762 0.54108 0.57261 0.0
O377 O 0.97232 0.50944 0.6285 0.0
O378 O 0.01388 0.51445 0.76493 0.0
O379 O 0.96763 0.48878 0.70555 0.0
C380 C 0.03432 0.49537 0.54627 0.0
C381 C 0.05647 0.5504 0.41448 0.0
C382 C 0.09195 0.53409 0.36795 0.0
C383 C 0.07699 0.53751 0.42242 0.0
C384 C 0.0862 0.54345 0.30561 0.0
C385 C 0.05082 0.55945 0.35192 0.0
C386 C 0.06566 0.55598 0.29769 0.0
C387 C 0.06101 0.50729 0.67749 0.0
C388 C 0.0411 0.55564 0.4708 0.0
C389 C 0.02401 0.63763 0.63731 0.0
C390 C 0.04011 0.63253 0.68727 0.0
C391 C 1.01179 0.53454 0.73793 0.0
C392 C 0.96088 0.47884 0.81925 0.0
C393 C 0.94322 0.49541 0.82666 0.0
C394 C 0.93093 0.49734 0.88686 0.0
C395 C 0.93651 0.48272 0.94005 0.0
C396 C 0.96634 0.46434 0.87291 0.0
C397 C 0.95425 0.46637 0.93307 0.0
C398 C 0.96984 0.52789 0.59071 0.0
C399 C 0.97253 0.47511 0.75474 0.0
H400 H 0.08159 0.53064 0.47078 0.0
H401 H 0.09747 0.5408 0.26282 0.0
H402 H 0.03504 0.56945 0.34528 0.0
H403 H 0.06128 0.56306 0.24951 0.0
H404 H 0.93857 0.50641 0.78524 0.0
H405 H 0.92726 0.48407 0.98708 0.0
H406 H 0.97974 0.45119 0.86799 0.0
H407 H 0.9585 0.45512 0.97413 0.0
H408 H 0.22589 0.03632 0.13639 0.0
H409 H 0.19382 0.02913 0.21379 0.0
H410 H 0.14916 0.07308 0.09773 0.0
H411 H 0.18152 0.08061 0.02057 0.0
H412 H 0.17152 0.06934 0.28476 0.0
H413 H 0.10852 0.01345 0.14434 0.0
H414 H 0.13908 0.0143 0.12342 0.0
H415 H 0.12055 0.03813 0.10233 0.0
C416 C 0.20892 0.04356 0.12555 0.0
C417 C 0.20608 0.05848 0.0711 0.0
C418 C 0.19066 0.03971 0.17043 0.0
C419 C 0.16896 0.05047 0.16177 0.0
C420 C 0.1656 0.06431 0.10517 0.0
H421 H 0.04366 0.04745 0.41593 0.0
H422 H 0.07116 0.05414 0.32489 0.0
C423 C 0.18403 0.06838 0.0605 0.0
C424 C 0.15089 0.04903 0.21546 0.0
H425 H 0.09777 0.02574 0.25297 0.0
C426 C 0.15537 0.05982 0.27776 0.0
C427 C 0.12966 0.03691 0.20634 0.0
C428 C 0.12403 0.02488 0.14072 0.0
C429 C 0.13934 0.05884 0.33092 0.0
C430 C 0.11839 0.04598 0.32279 0.0
C431 C 0.11374 0.03552 0.25989 0.0
C432 C 0.10152 0.04261 0.37927 0.0
C433 C 0.14492 0.07211 0.39475 0.0
C434 C 0.10908 0.03374 0.44066 0.0
C435 C 0.09341 0.03014 0.49312 0.0
C436 C 0.06951 0.0349 0.48596 0.0
C437 C 0.06189 0.04367 0.42416 0.0
C438 C 0.07765 0.04743 0.37163 0.0
H439 H 0.15664 0.08704 0.38524 0.0
H440 H 0.12891 0.07877 0.41938 0.0
H441 H 0.15404 0.06044 0.42974 0.0
H442 H 0.12716 0.02912 0.44785 0.0
H443 H 0.10016 0.02312 0.53871 0.0
H444 H 0.48408 0.22145 0.14999 0.0
H445 H 0.49202 0.18952 0.22602 0.0
H446 H 0.45273 0.14291 0.09804 0.0
H447 H 0.44413 0.17522 0.02237 0.0
H448 H 0.44398 0.15675 0.26989 0.0
H449 H 0.52621 0.11745 0.17412 0.0
H450 H 0.52056 0.14815 0.16606 0.0
H451 H 0.50421 0.12758 0.11682 0.0
C452 C 0.47799 0.20416 0.13648 0.0
C453 C 0.46397 0.20069 0.07928 0.0
C454 C 0.48228 0.18601 0.18045 0.0
C455 C 0.47294 0.16386 0.1678 0.0
C456 C 0.46013 0.15989 0.10862 0.0
H457 H 0.48974 0.03834 0.40431 0.0
H458 H 0.48223 0.0658 0.31491 0.0
C459 C 0.45555 0.17823 0.06485 0.0
C460 C 0.47511 0.14561 0.21931 0.0
H461 H 0.51069 0.10215 0.27308 0.0
C462 C 0.45846 0.14468 0.27044 0.0
C463 C 0.49405 0.13001 0.22009 0.0
C464 C 0.51241 0.13065 0.16655 0.0
C465 C 0.4603 0.12857 0.32246 0.0
C466 C 0.47951 0.11316 0.32398 0.0
C467 C 0.49598 0.11392 0.27213 0.0
C468 C 0.48303 0.09637 0.37932 0.0
C469 C 0.44154 0.12807 0.37499 0.0
C470 C 0.48588 0.10428 0.44571 0.0
C471 C 0.49012 0.08857 0.49715 0.0
C472 C 0.49188 0.06454 0.48366 0.0
C473 C 0.48854 0.05666 0.41714 0.0
C474 C 0.48434 0.07239 0.36565 0.0
H475 H 0.42518 0.1362 0.35716 0.0
H476 H 0.4377 0.10998 0.38996 0.0
H477 H 0.44752 0.13796 0.41999 0.0
H478 H 0.48527 0.12269 0.45771 0.0
H479 H 0.49222 0.09541 0.54729 0.0
H480 H 0.32122 0.49853 0.12442 0.0
H481 H 0.35303 0.50896 0.20159 0.0
H482 H 0.38504 0.44235 0.16324 0.0
H483 H 0.35334 0.43203 0.08612 0.0
H484 H 0.36266 0.48484 0.31806 0.0
H485 H 0.44077 0.48607 0.15626 0.0
H486 H 0.4116 0.48714 0.12274 0.0
H487 H 0.42384 0.45993 0.14819 0.0
C488 C 0.33568 0.48664 0.12984 0.0
C489 C 0.33515 0.46475 0.0975 0.0
C490 C 0.35366 0.49242 0.17495 0.0
C491 C 0.37161 0.47653 0.18824 0.0
C492 C 0.37174 0.45514 0.15315 0.0
H493 H 0.45984 0.4702 0.54681 0.0
H494 H 0.4285 0.46495 0.46403 0.0
C495 C 0.35371 0.44932 0.10843 0.0
C496 C 0.38908 0.48149 0.2424 0.0
H497 H 0.44745 0.4863 0.27366 0.0
C498 C 0.3812 0.48532 0.30823 0.0
C499 C 0.4133 0.4821 0.22998 0.0
C500 C 0.42294 0.4788 0.1604 0.0
C501 C 0.39681 0.48955 0.36167 0.0
C502 C 0.42108 0.4898 0.3494 0.0
C503 C 0.42891 0.48613 0.28346 0.0
C504 C 0.43872 0.49409 0.40361 0.0
C505 C 0.38712 0.49422 0.43058 0.0
C506 C 0.45517 0.51204 0.39752 0.0
C507 C 0.47314 0.51489 0.44456 0.0
C508 C 0.47485 0.50018 0.4996 0.0
C509 C 0.45837 0.48233 0.50619 0.0
C510 C 0.44043 0.47936 0.45889 0.0
H511 H 0.3685 0.49933 0.42879 0.0
H512 H 0.38851 0.47824 0.46053 0.0
H513 H 0.39712 0.50821 0.45651 0.0
H514 H 0.45446 0.52353 0.35524 0.0
H515 H 0.48618 0.52816 0.43674 0.0
H516 H 0.07874 0.35644 0.03914 0.0
H517 H 0.07075 0.38901 0.11731 0.0
H518 H 0.02869 0.34392 0.23694 0.0
H519 H 0.03651 0.31152 0.15876 0.0
H520 H 1.01085 0.39367 0.21262 0.0
H521 H 0.10067 0.38737 0.31519 0.0
H522 H 0.09676 0.38566 0.22577 0.0
H523 H 0.08601 0.36276 0.27677 0.0
C524 C 0.06693 0.35379 0.08039 0.0
C525 C 0.05753 0.33159 0.09123 0.0
C526 C 0.06269 0.37231 0.12579 0.0
C527 C 0.04922 0.36895 0.18351 0.0
C528 C 0.03896 0.34708 0.1927 0.0
H529 H 0.05466 0.45248 0.55482 0.0
H530 H 0.05641 0.42171 0.46839 0.0
C531 C 0.04314 0.32863 0.14733 0.0
C532 C 0.04679 0.38773 0.23607 0.0
H533 H 0.07662 0.41637 0.36094 0.0
C534 C 0.02522 0.39872 0.24506 0.0
C535 C 0.06537 0.39402 0.27935 0.0
C536 C 0.08855 0.38186 0.27452 0.0
C537 C 0.02171 0.41584 0.29556 0.0
C538 C 0.04051 0.42274 0.3381 0.0
C539 C 0.06209 0.41147 0.32901 0.0
C540 C 0.0383 0.44127 0.39244 0.0
C541 C 0.99754 0.42569 0.30335 0.0
C542 C 0.02771 0.46287 0.38003 0.0
C543 C 0.02557 0.4799 0.43088 0.0
C544 C 0.03466 0.47622 0.49511 0.0
C545 C 0.04656 0.45537 0.50673 0.0
C546 C 0.04784 0.43789 0.45672 0.0
H547 H 0.98411 0.41312 0.28553 0.0
H548 H 0.99371 0.43046 0.35604 0.0
H549 H 0.99592 0.44144 0.27245 0.0
H550 H 0.02135 0.46684 0.3306 0.0
H551 H 0.01729 0.49627 0.41949 0.0
H552 H 0.85368 0.96083 0.25083 0.0
H553 H 0.88614 0.97013 0.17556 0.0
H554 H 0.83675 0.99177 0.02623 0.0
H555 H 0.80521 0.98535 0.10354 0.0
H556 H 0.89853 0.95158 0.06703 0.0
H557 H 0.87958 0.04153 0.99518 0.0
H558 H 0.86447 0.0281 0.06312 0.0
H559 H 0.85471 0.02379 0.97775 0.0
C560 C 0.84998 0.96887 0.20343 0.0
C561 C 0.82682 0.97284 0.18397 0.0
C562 C 0.86851 0.97377 0.1596 0.0
C563 C 0.86426 0.98222 0.09472 0.0
C564 C 0.84105 0.98642 0.07633 0.0
H565 H 0.93762 0.99698 0.71802 0.0
H566 H 0.90965 0.992 0.80811 0.0
C567 C 0.8228 0.98247 0.12078 0.0
C568 C 0.88355 0.98483 0.04426 0.0
H569 H 0.90321 0.01936 0.91823 0.0
C570 C 0.89971 0.96664 0.03543 0.0
C571 C 0.88539 1.00436 1.00195 0.0
C572 C 0.87023 0.0256 1.01058 0.0
C573 C 0.91684 0.96705 0.98492 0.0
C574 C 0.91808 0.98618 0.9414 0.0
C575 C 0.90222 1.00451 0.95075 0.0
C576 C 0.93551 0.98765 0.8857 0.0
C577 C 0.93294 0.94653 0.97729 0.0
C578 C 0.95959 0.9867 0.89827 0.0
C579 C 0.97574 0.98949 0.84633 0.0
C580 C 0.96831 0.99374 0.78038 0.0
C581 C 0.94418 0.99413 0.7678 0.0
C582 C 0.92806 0.99123 0.81962 0.0
H583 H 0.92599 0.93104 1.00286 0.0
H584 H 0.93583 0.94204 0.92372 0.0
H585 H 0.95 0.95086 1.00037 0.0
H586 H 0.96599 0.9845 0.94871 0.0
H587 H 0.9941 0.9891 0.85855 0.0
H588 H 0.60421 0.85336 0.2018 0.0
H589 H 0.5946 0.88534 0.12753 0.0
H590 H 0.52587 0.85692 0.09835 0.0
H591 H 0.53557 0.82475 0.17251 0.0
H592 H 0.58204 0.87389 0.99035 0.0
H593 H 0.51505 0.92877 0.11632 0.0
H594 H 0.53514 0.91088 0.1623 0.0
H595 H 0.51094 0.89779 0.11907 0.0
C596 C 0.58662 0.85466 0.18254 0.0
C597 C 0.57047 0.8368 0.19429 0.0
C598 C 0.58126 0.87274 0.13915 0.0
C599 C 0.55953 0.87358 0.1071 0.0
C600 C 0.54266 0.85686 0.12309 0.0
H601 H 0.51109 0.94135 0.74762 0.0
H602 H 0.51877 0.91488 0.83937 0.0
C603 C 0.54808 0.83862 0.16631 0.0
C604 C 0.55565 0.89013 0.05143 0.0
H605 H 0.52297 0.9366 1.00265 0.0
C606 C 0.56921 0.88768 0.99328 0.0
C607 C 0.53883 0.90805 0.05491 0.0
C608 C 0.52419 0.91177 0.11656 0.0
C609 C 0.56623 0.90248 0.93857 0.0
C610 C 0.54945 0.92038 0.94213 0.0
C611 C 0.53591 0.92291 1.00016 0.0
C612 C 0.54548 0.9363 0.88528 0.0
C613 C 0.58081 0.89886 0.87672 0.0
C614 C 0.5581 0.95711 0.88019 0.0
C615 C 0.55383 0.97231 0.82732 0.0
C616 C 0.53702 0.96688 0.77811 0.0
C617 C 0.52461 0.94586 0.78328 0.0
C618 C 0.52878 0.93078 0.83625 0.0
H619 H 0.59299 0.88399 0.88131 0.0
H620 H 0.5693 0.89564 0.83281 0.0
H621 H 0.59098 0.91484 0.86692 0.0
H622 H 0.57112 0.96168 0.91744 0.0
H623 H 0.56364 0.98835 0.8251 0.0
H624 H 0.67616 0.60307 0.18077 0.0
H625 H 0.6457 0.59187 0.10094 0.0
H626 H 0.67907 0.52555 0.06917 0.0
H627 H 0.70998 0.53708 0.1482 0.0
H628 H 0.66934 0.54612 0.95118 0.0
H629 H 0.5904 0.54971 0.10909 0.0
H630 H 0.60677 0.57624 0.11182 0.0
H631 H 0.61931 0.55009 0.1444 0.0
C632 C 0.67636 0.58565 0.1593 0.0
C633 C 0.69509 0.57065 0.1727 0.0
C634 C 0.65902 0.57932 0.11296 0.0
C635 C 0.6598 0.55772 0.07909 0.0
C636 C 0.67792 0.54225 0.09474 0.0
H637 H 0.54723 0.49708 0.84877 0.0
H638 H 0.57848 0.50698 0.92699 0.0
C639 C 0.69533 0.54863 0.14112 0.0
C640 C 0.64258 0.5519 0.02477 0.0
H641 H 0.58433 0.54709 0.99177 0.0
C642 C 0.65074 0.54622 0.9602 0.0
C643 C 0.61826 0.55208 0.03595 0.0
C644 C 0.60814 0.55715 0.10419 0.0
C645 C 0.63536 0.54059 0.90712 0.0
C646 C 0.61102 0.54091 0.91831 0.0
C647 C 0.60292 0.54684 0.98271 0.0
C648 C 0.59353 0.53374 0.86595 0.0
C649 C 0.64533 0.53349 0.84024 0.0
C650 C 0.59159 0.54511 0.80426 0.0
C651 C 0.57366 0.53923 0.75876 0.0
C652 C 0.5573 0.52194 0.77424 0.0
C653 C 0.55958 0.51041 0.83525 0.0
C654 C 0.57747 0.51611 0.88016 0.0
H655 H 0.6641 0.52908 0.84372 0.0
H656 H 0.6358 0.51823 0.81948 0.0
H657 H 0.64342 0.54801 0.80487 0.0
H658 H 0.60337 0.55909 0.79226 0.0
H659 H 0.57213 0.54871 0.71266 0.0
H660 H 0.99784 0.72611 0.10098 0.0
H661 H 1.00569 0.69438 0.02105 0.0
H662 H 0.96174 0.64895 0.13441 0.0
H663 H 0.95322 0.68114 0.21295 0.0
H664 H 0.02461 0.65419 0.01882 0.0
H665 H 0.93191 0.63908 0.95747 0.0
H666 H 0.94129 0.66304 1.0103 0.0
H667 H 0.93794 0.63441 0.04415 0.0
C668 C 0.99053 0.70911 0.1102 0.0
C669 C 0.97547 0.70605 0.16473 0.0
C670 C 0.99474 0.69096 0.06373 0.0
C671 C 0.98389 0.66913 0.06984 0.0
C672 C 0.96987 0.66565 0.12662 0.0
H673 H 0.0274 0.54231 0.86392 0.0
H674 H 0.02028 0.57531 0.93923 0.0
C675 C 0.96548 0.68393 0.17286 0.0
C676 C 0.98736 0.65035 0.01672 0.0
H677 H 0.95887 0.61135 0.91293 0.0
C678 C 1.01012 0.64497 0.99578 0.0
C679 C 0.96862 0.63838 0.9845 0.0
C680 C 0.94357 0.64418 0.99968 0.0
C681 C 0.01467 0.62788 0.94593 0.0
C682 C 0.99608 0.61511 0.91632 0.0
C683 C 0.97325 0.62084 0.93567 0.0
C684 C 1.00026 0.59501 0.86826 0.0
C685 C 0.03948 0.62396 0.92438 0.0
C686 C 0.99103 0.59448 0.80271 0.0
C687 C 0.99502 0.57527 0.75904 0.0
C688 C 1.00835 0.55617 0.77999 0.0
C689 C 0.01731 0.55678 0.8456 0.0
C690 C 0.01335 0.5758 0.88887 0.0
H691 H 0.0507 0.63916 0.93695 0.0
H692 H 0.04663 0.60865 0.95038 0.0
H693 H 0.04037 0.62052 0.86974 0.0
H694 H 0.98074 0.60893 0.78527 0.0
H695 H 0.98741 0.57522 0.70944 0.0
H696 H 0.0791 0.28199 0.2108 0.0
H697 H 0.0736 0.24951 0.28217 0.0
H698 H 0.11813 0.20741 0.15623 0.0
H699 H 0.12417 0.24054 0.08324 0.0
H700 H 0.07254 0.19354 0.15477 0.0
H701 H 0.09999 0.20657 0.41759 0.0
H702 H 0.08666 0.23222 0.38559 0.0
H703 H 0.11347 0.2218 0.34951 0.0
C704 C 0.08917 0.26649 0.19997 0.0
C705 C 0.10155 0.26374 0.13966 0.0
C706 C 0.08589 0.2477 0.24144 0.0
C707 C 0.09531 0.22598 0.2243 0.0
C708 C 0.11066 0.22408 0.17007 0.0
H709 H 0.01835 0.10137 0.33999 0.0
H710 H 0.04908 0.12561 0.29387 0.0
C711 C 0.11409 0.24303 0.12847 0.0
C712 C 0.08434 0.20514 0.25228 0.0
H713 H 0.0644 0.18408 0.39957 0.0
C714 C 0.07137 0.19088 0.20823 0.0
C715 C 0.0825 0.20208 0.32194 0.0
C716 C 0.0966 0.21639 0.37125 0.0
C717 C 0.05531 0.17478 0.23226 0.0
C718 C 0.05258 0.17269 0.30204 0.0
C719 C 0.06651 0.18593 0.34604 0.0
C720 C 0.03429 0.15796 0.33032 0.0
C721 C 0.04025 0.16134 0.18307 0.0
C722 C 0.01604 0.16823 0.36659 0.0
C723 C 0.99862 0.15446 0.39371 0.0
C724 C 0.99924 0.13019 0.38493 0.0
C725 C 0.0175 0.12002 0.34799 0.0
C726 C 0.03497 0.1338 0.32124 0.0
H727 H 0.04159 0.16814 0.13157 0.0
H728 H 0.04579 0.14287 0.18175 0.0
H729 H 0.02173 0.16192 0.19863 0.0
H730 H 0.01533 0.18692 0.374 0.0
H731 H 0.98502 0.16275 0.42286 0.0
H732 H 0.26057 0.11733 0.18408 0.0
H733 H 0.28839 0.11251 0.27709 0.0
H734 H 0.33004 0.06727 0.15178 0.0
H735 H 0.30312 0.07165 0.06118 0.0
H736 H 0.29796 0.06639 0.32611 0.0
H737 H 0.37922 0.10804 0.24138 0.0
H738 H 0.35071 0.11727 0.21383 0.0
H739 H 0.36457 0.09241 0.17531 0.0
C740 C 0.27615 0.10709 0.17612 0.0
C741 C 0.27991 0.09545 0.11467 0.0
C742 C 0.29191 0.10433 0.22901 0.0
C743 C 0.31153 0.09007 0.22036 0.0
C744 C 0.31556 0.07914 0.15858 0.0
H745 H 0.39955 0.98921 0.33599 0.0
H746 H 0.37508 0.01996 0.28957 0.0
C747 C 0.30006 0.08182 0.10643 0.0
C748 C 0.32639 0.08329 0.27663 0.0
H749 H 0.38375 0.07283 0.30662 0.0
C750 C 0.3167 0.06859 0.32431 0.0
C751 C 0.35078 0.08595 0.27292 0.0
C752 C 0.36192 0.10196 0.22339 0.0
C753 C 0.33096 0.05461 0.36384 0.0
C754 C 0.35532 0.05585 0.3558 0.0
C755 C 0.36501 0.07203 0.31244 0.0
C756 C 0.37071 0.03823 0.38431 0.0
C757 C 0.31999 0.03707 0.40922 0.0
C758 C 0.37635 0.03866 0.45254 0.0
C759 C 0.39038 0.02123 0.47884 0.0
C760 C 0.39864 1.00327 0.43702 0.0
C761 C 0.39319 1.003 0.36872 0.0
C762 C 0.37936 0.02047 0.34241 0.0
H763 H 0.30067 0.03779 0.40801 0.0
H764 H 0.32559 0.01926 0.3942 0.0
H765 H 0.32595 0.04026 0.4614 0.0
H766 H 0.36977 0.05233 0.48524 0.0
H767 H 0.39453 0.02156 0.53174 0.0
H768 H 0.45815 0.25477 0.19129 0.0
H769 H 0.466 0.28674 0.26773 0.0
H770 H 0.41083 0.32645 0.17872 0.0
H771 H 0.40243 0.2939 0.10087 0.0
H772 H 0.46803 0.33673 0.16996 0.0
H773 H 0.42645 0.32985 0.42026 0.0
H774 H 0.43388 0.3038 0.37339 0.0
H775 H 0.41111 0.3222 0.34377 0.0
C776 C 0.44656 0.26959 0.19033 0.0
C777 C 0.42944 0.27172 0.14029 0.0
C778 C 0.45124 0.28795 0.23407 0.0
C779 C 0.43882 0.30867 0.22894 0.0
C780 C 0.42031 0.31031 0.18347 0.0
H781 H 0.49211 0.43956 0.38275 0.0
H782 H 0.46479 0.40741 0.36212 0.0
C783 C 0.41554 0.29179 0.13931 0.0
C784 C 0.44901 0.32954 0.25984 0.0
H785 H 0.4575 0.35695 0.4104 0.0
C786 C 0.46539 0.34157 0.2221 0.0
C787 C 0.44574 0.33517 0.32796 0.0
C788 C 0.42831 0.32219 0.36919 0.0
C789 C 0.47927 0.35883 0.25156 0.0
C790 C 0.47658 0.36402 0.32049 0.0
C791 C 0.45952 0.35265 0.35774 0.0
C792 C 0.49171 0.38131 0.35329 0.0
C793 C 0.49718 0.37088 0.20918 0.0
C794 C 0.5156 0.37677 0.35861 0.0
C795 C 0.53113 0.39504 0.36885 0.0
C796 C 0.5228 0.41785 0.37521 0.0
C797 C 0.49876 0.422 0.3777 0.0
C798 C 0.48321 0.40373 0.36634 0.0
H799 H 0.49369 0.36837 0.15485 0.0
H800 H 0.49771 0.38981 0.22091 0.0
H801 H 0.51464 0.36359 0.21996 0.0
H802 H 0.52231 0.35945 0.3489 0.0
H803 H 0.54966 0.3916 0.36757 0.0
H804 H 0.23985 0.40512 0.11006 0.0
H805 H 0.20745 0.41132 0.18747 0.0
H806 H 0.24988 0.4582 0.30608 0.0
H807 H 0.28202 0.45211 0.23056 0.0
H808 H 0.21378 0.4387 0.37972 0.0
H809 H 0.18475 0.47679 0.13916 0.0
H810 H 0.18894 0.44589 0.1371 0.0
H811 H 0.21343 0.46492 0.15024 0.0
C812 C 0.24261 0.41578 0.15456 0.0
C813 C 0.26323 0.42868 0.16286 0.0
C814 C 0.2241 0.41933 0.19865 0.0
C815 C 0.22615 0.43586 0.25079 0.0
C816 C 0.24792 0.44554 0.26568 0.0
H817 H 0.1357 0.54746 0.33693 0.0
H818 H 0.16968 0.52227 0.32406 0.0
C819 C 0.26641 0.4419 0.22214 0.0
C820 C 0.20538 0.44752 0.27828 0.0
H821 H 0.16215 0.48465 0.23328 0.0
C822 C 0.20216 0.44843 0.34786 0.0
C823 C 0.19093 0.46093 0.23635 0.0
C824 C 0.19472 0.46234 0.16169 0.0
C825 C 0.18483 0.46254 0.37671 0.0
C826 C 0.17037 0.47566 0.3346 0.0
C827 C 0.17333 0.47441 0.26516 0.0
C828 C 0.15233 0.49157 0.36024 0.0
C829 C 0.18271 0.4642 0.45172 0.0
C830 C 0.13176 0.48276 0.38751 0.0
C831 C 0.11236 0.49718 0.39521 0.0
C832 C 0.1134 0.52038 0.37467 0.0
C833 C 0.13455 0.52955 0.35238 0.0
C834 C 0.15392 0.51525 0.3454 0.0
H835 H 0.19743 0.45556 0.47745 0.0
H836 H 0.18201 0.4827 0.4684 0.0
H837 H 0.16626 0.4558 0.4673 0.0
H838 H 0.13016 0.46444 0.39815 0.0
H839 H 0.09613 0.4898 0.41233 0.0
H840 H 0.91536 0.7554 0.06115 0.0
H841 H 0.91923 0.78278 0.96886 0.0
H842 H 0.95288 0.83203 0.10216 0.0
H843 H 0.95021 0.80537 0.192 0.0
H844 H 0.92119 0.85105 0.99596 0.0
H845 H 0.9913 0.78974 0.9147 0.0
H846 H 0.9627 0.77909 0.93462 0.0
H847 H 0.98139 0.7899 1.00011 0.0
C848 C 0.92291 0.77235 0.07115 0.0
C849 C 0.93256 0.7779 0.13427 0.0
C850 C 0.925 0.78794 0.01854 0.0
C851 C 0.93642 0.80922 0.02918 0.0
C852 C 0.94373 0.81576 0.0934 0.0
H853 H 0.04163 0.89356 0.93179 0.0
H854 H 1.01005 0.86909 0.97246 0.0
C855 C 0.94193 0.80032 0.14526 0.0
C856 C 0.94502 0.82319 0.97382 0.0
H857 H 0.99505 0.82873 0.88472 0.0
C858 C 0.93674 0.846 0.96877 0.0
C859 C 0.9657 0.8165 0.94058 0.0
C860 C 0.97593 0.79249 0.94744 0.0
C861 C 0.94971 0.86288 0.93572 0.0
C862 C 0.97115 0.85654 0.90677 0.0
C863 C 0.97843 0.83332 0.90686 0.0
C864 C 0.98809 0.874 0.8857 0.0
C865 C 0.94173 0.88778 0.93782 0.0
C866 C 0.98565 0.88531 0.82461 0.0
C867 C 1.0036 0.89944 0.80165 0.0
C868 C 0.02412 0.90197 0.83932 0.0
C869 C 0.026 0.89151 0.90182 0.0
C870 C 1.00804 0.87766 0.92497 0.0
H871 H 0.92431 0.88974 0.96117 0.0
H872 H 0.95448 0.89845 0.96677 0.0
H873 H 0.94098 0.89469 0.88641 0.0
H874 H 0.97036 0.88246 0.79376 0.0
H875 H 1.00195 0.90743 0.75322 0.0
H876 H 0.73779 0.90483 0.17314 0.0
H877 H 0.7052 0.91026 0.09415 0.0
H878 H 0.74024 0.96975 1.01339 0.0
H879 H 0.772 0.96447 0.08948 0.0
H880 H 0.68164 0.95612 0.09988 0.0
H881 H 0.71523 0.93636 0.84552 0.0
H882 H 0.72577 0.92187 0.91931 0.0
H883 H 0.73572 0.95063 0.90025 0.0
C884 C 0.73889 0.91828 0.13606 0.0
C885 C 0.75784 0.93373 0.13604 0.0
C886 C 0.7203 0.92146 0.09157 0.0
C887 C 0.72072 0.94005 0.04707 0.0
C888 C 0.74005 0.95471 0.0453 0.0
H889 H 0.66193 0.04242 0.82166 0.0
H890 H 0.68406 0.01189 0.87518 0.0
C891 C 0.75841 0.95151 0.08881 0.0
C892 C 0.70003 0.9472 1.0095 0.0
H893 H 0.68597 0.96623 0.85442 0.0
C894 C 0.68191 0.95762 0.04587 0.0
C895 C 0.70102 0.94956 0.93949 0.0
C896 C 0.72041 0.93885 0.89872 0.0
C897 C 0.66591 0.97229 1.01465 0.0
C898 C 0.66763 0.9756 0.94481 0.0
C899 C 0.68466 0.9636 0.90786 0.0
C900 C 0.65378 0.99336 0.91035 0.0
C901 C 0.64882 0.9857 0.05766 0.0
C902 C 0.62942 0.9929 0.91167 0.0
C903 C 0.61669 1.01083 0.88322 0.0
C904 C 0.62812 0.02922 0.85123 0.0
C905 C 0.65253 0.02892 0.84727 0.0
C906 C 0.66523 1.01129 0.87708 0.0
H907 H 0.65343 0.98515 0.11162 0.0
H908 H 0.64798 1.00418 0.04276 0.0
H909 H 0.63123 0.97801 0.05138 0.0
H910 H 0.62026 0.9789 0.93573 0.0
H911 H 0.59795 1.01054 0.88806 0.0
H912 H 0.62915 0.74171 0.15785 0.0
H913 H 0.62218 0.7102 0.07715 0.0
H914 H 0.5794 0.75548 0.95969 0.0
H915 H 0.58503 0.78646 0.04075 0.0
H916 H 0.56802 0.71085 0.08673 0.0
H917 H 0.60368 0.69923 0.82937 0.0
H918 H 0.62147 0.70952 0.89866 0.0
H919 H 0.59996 0.72824 0.8635 0.0
C920 C 0.6192 0.74532 0.11313 0.0
C921 C 0.60666 0.76617 0.10769 0.0
C922 C 0.61552 0.72736 0.06657 0.0
C923 C 0.59992 0.73054 1.01356 0.0
C924 C 0.59154 0.7528 1.00042 0.0
H925 H 0.48049 0.65335 0.87696 0.0
H926 H 0.50986 0.68362 0.90074 0.0
C927 C 0.5948 0.77059 0.04746 0.0
C928 C 0.58551 0.71084 0.99145 0.0
H929 H 0.57007 0.67719 0.85669 0.0
C930 C 0.56869 0.70319 0.03677 0.0
C931 C 0.58615 0.70162 0.92582 0.0
C932 C 0.60379 0.70993 0.87616 0.0
C933 C 0.55226 0.68651 0.01786 0.0
C934 C 0.55293 0.67717 0.95235 0.0
C935 C 0.56982 0.68458 0.90693 0.0
C936 C 0.53627 0.65924 0.93166 0.0
C937 C 0.53403 0.67911 0.06742 0.0
C938 C 0.54171 0.63589 0.94181 0.0
C939 C 0.5251 0.61882 0.9287 0.0
C940 C 0.5029 0.62508 0.90608 0.0
C941 C 0.4975 0.64843 0.89539 0.0
C942 C 0.51421 0.66553 0.90805 0.0
H943 H 0.53584 0.68832 0.11648 0.0
H944 H 0.51641 0.68262 0.04707 0.0
H945 H 0.53532 0.66012 0.07545 0.0
H946 H 0.55862 0.63096 0.96103 0.0
H947 H 0.52947 0.60076 0.9367 0.0
H948 H 0.78566 0.63504 0.14391 0.0
H949 H 0.81656 0.6305 0.06022 0.0
H950 H 0.781 0.57026 0.97795 0.0
H951 H 0.74988 0.57594 0.05578 0.0
H952 H 0.84283 0.59672 0.06853 0.0
H953 H 0.80876 0.58858 0.81277 0.0
H954 H 0.79152 0.6016 0.87879 0.0
H955 H 0.79109 0.57051 0.86349 0.0
C956 C 0.78391 0.62184 0.10493 0.0
C957 C 0.76531 0.60607 0.10567 0.0
C958 C 0.80156 0.61912 0.05748 0.0
C959 C 0.80106 0.6002 1.01182 0.0
C960 C 0.78152 0.58563 1.00989 0.0
H961 H 0.88718 0.49 0.93275 0.0
H962 H 0.85669 0.51916 0.95079 0.0
C963 C 0.76365 0.58882 0.05531 0.0
C964 C 0.82253 0.59219 0.97803 0.0
H965 H 0.8403 0.56039 0.84185 0.0
C966 C 0.84255 0.58971 0.01785 0.0
C967 C 0.82229 0.58274 0.91207 0.0
C968 C 0.80224 0.58628 0.86446 0.0
C969 C 0.86139 0.57638 0.99571 0.0
C970 C 0.86004 0.56519 0.93263 0.0
C971 C 0.84096 0.56893 0.89063 0.0
C972 C 0.87723 0.54762 0.91338 0.0
C973 C 0.882 0.57294 0.04147 0.0
C974 C 0.89851 0.55423 0.88583 0.0
C975 C 0.91591 0.5377 0.87579 0.0
C976 C 0.91215 0.51451 0.89381 0.0
C977 C 0.89051 0.50787 0.9195 0.0
C978 C 0.8731 0.52436 0.9291 0.0
H979 H 0.8805 0.58319 0.08886 0.0
H980 H 0.88364 0.55426 0.0537 0.0
H981 H 0.89822 0.57814 0.01569 0.0
H982 H 0.90187 0.57224 0.87419 0.0
H983 H 0.93254 0.54316 0.85607 0.0
H984 H 0.03102 0.24762 1.00395 0.0
H985 H 0.02333 0.21082 0.94443 0.0
H986 H 0.0763 0.22722 0.80057 0.0
H987 H 0.08454 0.26367 0.86188 0.0
H988 H 1.00979 0.19723 0.82244 0.0
H989 H 0.10015 0.16553 0.85669 0.0
H990 H 0.08982 0.19187 0.89684 0.0
H991 H 0.09769 0.19168 0.80981 0.0
C992 C 0.04032 0.24385 0.95798 0.0
C993 C 0.05789 0.259 0.93659 0.0
C994 C 0.03622 0.22252 0.92447 0.0
C995 C 0.04964 0.21564 0.86867 0.0
C996 C 0.06611 0.23154 0.84448 0.0
H997 H 0.05245 0.07866 0.6532 0.0
H998 H 0.06193 0.11827 0.69392 0.0
C999 C 0.07039 0.25277 0.87849 0.0
C1000 C 0.0464 0.19179 0.83727 0.0
H1001 H 0.0742 0.14041 0.79945 0.0
C1002 C 0.02394 0.18487 0.81745 0.0
C1003 C 0.06482 0.17549 0.8293 0.0
C1004 C 0.08945 0.18138 0.84972 0.0
C1005 C 0.0193 0.16251 0.79045 0.0
C1006 C 0.03745 0.14574 0.78545 0.0
C1007 C 0.0601 0.15285 0.80362 0.0
C1008 C 0.03306 0.1208 0.76328 0.0
C1009 C 0.99491 0.15757 0.76588 0.0
C1010 C 0.01439 0.10821 0.79008 0.0
C1011 C 1.0085 0.08608 0.76499 0.0
C1012 C 0.02197 0.07496 0.71542 0.0
C1013 C 0.04178 0.08662 0.69182 0.0
C1014 C 0.04717 0.10936 0.71515 0.0
H1015 H 0.98616 0.17374 0.74958 0.0
H1016 H 0.99476 0.14494 0.7233 0.0
H1017 H 0.98446 0.1505 0.80742 0.0
H1018 H 1.00388 0.11568 0.82974 0.0
H1019 H 0.99319 0.07759 0.78449 0.0
H1020 H 0.27819 0.0297 0.95056 0.0
H1021 H 0.31496 0.02018 0.89426 0.0
H1022 H 0.31267 0.08552 0.79271 0.0
H1023 H 0.27591 0.095 0.84869 0.0
H1024 H 0.33065 0.01771 0.75794 0.0
H1025 H 0.3744 0.08949 0.89902 0.0
H1026 H 0.34589 0.07893 0.92106 0.0
H1027 H 0.34934 0.09768 0.85095 0.0
C1028 C 0.28486 0.04148 0.91356 0.0
C1029 C 0.27373 0.06291 0.90321 0.0
C1030 C 0.3062 0.03625 0.88234 0.0
C1031 C 0.31705 0.05238 0.84042 0.0
C1032 C 0.30503 0.07294 0.82578 0.0
H1033 H 0.45726 0.05159 0.65445 0.0
H1034 H 0.41859 0.06373 0.69538 0.0
C1035 C 0.28367 0.07812 0.85664 0.0
C1036 C 0.34121 0.04807 0.81433 0.0
H1037 H 0.39748 0.0681 0.82219 0.0
C1038 C 0.34521 0.02877 0.77201 0.0
C1039 C 0.36037 0.06255 0.83205 0.0
C1040 C 0.35746 0.08324 0.87866 0.0
C1041 C 0.36757 0.0236 0.74687 0.0
C1042 C 0.38687 0.03766 0.76602 0.0
C1043 C 0.38284 0.05723 0.80746 0.0
C1044 C 0.41132 0.03153 0.74571 0.0
C1045 C 0.3702 1.00324 0.69891 0.0
C1046 C 0.42067 1.00982 0.76227 0.0
C1047 C 0.44264 1.00296 0.73917 0.0
C1048 C 0.45624 0.01773 0.69989 0.0
C1049 C 0.44737 0.03988 0.68524 0.0
C1050 C 0.4252 0.04679 0.70844 0.0
H1051 H 0.35351 0.99898 0.67335 0.0
H1052 H 0.38354 1.00677 0.66034 0.0
H1053 H 0.37568 0.98774 0.72711 0.0
H1054 H 0.41075 0.99791 0.79231 0.0
H1055 H 0.44894 0.98582 0.75151 0.0
H1056 H 0.49516 0.27483 0.97209 0.0
H1057 H 0.50583 0.3094 0.9088 0.0
H1058 H 0.44093 0.305 0.80086 0.0
H1059 H 0.43022 0.27052 0.86446 0.0
H1060 H 0.48027 0.31942 0.72051 0.0
H1061 H 0.47109 0.37095 0.95642 0.0
H1062 H 0.49103 0.34697 0.9605 0.0
H1063 H 0.46058 0.34149 0.94741 0.0
C1064 C 0.4837 0.28058 0.93259 0.0
C1065 C 0.46212 0.26959 0.92203 0.0
C1066 C 0.4896 0.30061 0.89727 0.0
C1067 C 0.47404 0.31008 0.85066 0.0
C1068 C 0.45324 0.2981 0.83648 0.0
H1069 H 0.46584 0.45394 0.72227 0.0
H1070 H 0.45832 0.41539 0.76605 0.0
C1071 C 0.44725 0.2782 0.87223 0.0
C1072 C 0.4785 0.33333 0.82091 0.0
H1073 H 0.48408 0.39113 0.86157 0.0
C1074 C 0.4812 0.33508 0.75136 0.0
C1075 C 0.47918 0.35392 0.86088 0.0
C1076 C 0.47512 0.35341 0.93538 0.0
C1077 C 0.48506 0.35671 0.72104 0.0
C1078 C 0.48646 0.37719 0.76127 0.0
C1079 C 0.48329 0.37547 0.83066 0.0
C1080 C 0.49092 0.40061 0.73245 0.0
C1081 C 0.48714 0.35753 0.64596 0.0
C1082 C 0.51174 0.40537 0.69868 0.0
C1083 C 0.51623 0.42765 0.6742 0.0
C1084 C 0.50006 0.44586 0.68321 0.0
C1085 C 0.479 0.44079 0.71571 0.0
C1086 C 0.47458 0.41857 0.74051 0.0
H1087 H 0.47999 0.3416 0.62131 0.0
H1088 H 0.47792 0.37289 0.62605 0.0
H1089 H 0.50578 0.35894 0.63229 0.0
H1090 H 0.52481 0.39197 0.69244 0.0
H1091 H 0.53264 0.43066 0.64936 0.0
H1092 H 0.25206 0.49644 1.00952 0.0
H1093 H 0.21708 0.50505 0.94429 0.0
H1094 H 0.23193 0.44686 0.8124 0.0
H1095 H 0.26636 0.43768 0.87988 0.0
H1096 H 0.20456 0.5159 0.82325 0.0
H1097 H 0.1689 0.42824 0.87069 0.0
H1098 H 0.19539 0.43853 0.90941 0.0
H1099 H 0.1956 0.42731 0.82472 0.0
C1100 C 0.24834 0.48606 0.96502 0.0
C1101 C 0.2623 0.46672 0.94895 0.0
C1102 C 0.22811 0.49078 0.92811 0.0
C1103 C 0.22124 0.47624 0.87421 0.0
C1104 C 0.23625 0.45798 0.85486 0.0
H1105 H 0.09716 0.48572 0.61368 0.0
H1106 H 0.13624 0.47748 0.65877 0.0
C1107 C 0.25632 0.45306 0.89243 0.0
C1108 C 0.19799 0.47967 0.84091 0.0
H1109 H 0.14654 0.45237 0.80058 0.0
C1110 C 0.19197 0.50192 0.81834 0.0
C1111 C 0.18117 0.4616 0.83471 0.0
C1112 C 0.18545 0.43766 0.86175 0.0
C1113 C 0.16998 0.50651 0.78993 0.0
C1114 C 0.15338 0.48846 0.78343 0.0
C1115 C 0.15934 0.46617 0.8051 0.0
C1116 C 0.12948 0.4927 0.75646 0.0
C1117 C 0.16445 0.53074 0.76728 0.0
C1118 C 0.11251 0.50356 0.79665 0.0
C1119 C 0.09009 0.50778 0.77144 0.0
C1120 C 0.08435 0.50174 0.705 0.0
C1121 C 0.10124 0.49073 0.66487 0.0
C1122 C 0.12353 0.48603 0.69059 0.0
H1123 H 0.18011 0.54206 0.76695 0.0
H1124 H 0.15671 0.53016 0.71631 0.0
H1125 H 0.15141 0.53866 0.80156 0.0
H1126 H 0.11662 0.50878 0.84763 0.0
H1127 H 0.07736 0.51612 0.80365 0.0
H1128 H 1.00358 0.77901 0.29083 0.0
H1129 H 0.01262 0.81569 0.34968 0.0
H1130 H 0.94644 0.81282 0.45 0.0
H1131 H 0.93817 0.77567 0.39457 0.0
H1132 H 0.99216 0.85503 0.33479 0.0
H1133 H 0.98174 0.83642 0.60361 0.0
H1134 H 0.98293 0.8135 0.54108 0.0
H1135 H 0.95625 0.82921 0.55594 0.0
C1136 C 0.99162 0.78545 0.32858 0.0
C1137 C 0.97039 0.77387 0.33893 0.0
C1138 C 0.99654 0.80684 0.3613 0.0
C1139 C 0.98038 0.81742 0.40535 0.0
C1140 C 0.95972 0.80515 0.41841 0.0
H1141 H 0.98007 0.95904 0.59856 0.0
H1142 H 0.96686 0.92125 0.55146 0.0
C1143 C 0.955 0.78364 0.38664 0.0
C1144 C 0.98425 0.84193 0.43238 0.0
H1145 H 0.98404 0.87628 0.5749 0.0
C1146 C 0.99053 0.85946 0.38749 0.0
C1147 C 0.98161 0.84839 0.50099 0.0
C1148 C 0.97546 0.83084 0.55323 0.0
C1149 C 0.99449 0.88269 0.40881 0.0
C1150 C 0.99258 0.88895 0.47752 0.0
C1151 C 0.98559 0.8717 0.52226 0.0
C1152 C 0.99968 0.91266 0.50416 0.0
C1153 C 1.00042 0.90045 0.35697 0.0
C1154 C 0.02245 0.92071 0.49374 0.0
C1155 C 0.0299 0.94219 0.52021 0.0
C1156 C 0.01492 0.95653 0.5582 0.0
C1157 C 0.992 0.94867 0.5687 0.0
C1158 C 0.98449 0.92695 0.5421 0.0
H1159 H 0.99376 0.89518 0.30674 0.0
H1160 H 0.99312 0.91774 0.37051 0.0
H1161 H 0.01961 0.90209 0.35346 0.0
H1162 H 0.03479 0.91006 0.46626 0.0
H1163 H 0.04771 0.94748 0.51157 0.0
H1164 H 0.75677 0.94096 0.40701 0.0
H1165 H 0.71983 0.95034 0.46205 0.0
H1166 H 0.71432 0.01241 0.34563 0.0
H1167 H 0.75109 1.00274 0.28965 0.0
H1168 H 0.69995 0.98463 0.53548 0.0
H1169 H 0.65564 0.97878 0.28979 0.0
H1170 H 0.68563 0.97049 0.30099 0.0
H1171 H 0.67794 1.0006 0.29187 0.0
C1172 C 0.7482 0.95717 0.39539 0.0
C1173 C 0.75718 0.97134 0.3448 0.0
C1174 C 0.72683 0.96235 0.42619 0.0
C1175 C 0.71373 0.98174 0.40678 0.0
C1176 C 0.72366 0.99701 0.36045 0.0
H1177 H 0.58244 0.04526 0.50609 0.0
H1178 H 0.62019 0.03292 0.46217 0.0
C1179 C 0.74506 0.99181 0.3296 0.0
C1180 C 0.68934 0.98525 0.43223 0.0
H1181 H 0.63291 0.99313 0.38105 0.0
C1182 C 0.6853 0.98635 0.50161 0.0
C1183 C 0.66993 0.987 0.38845 0.0
C1184 C 0.6724 0.9839 0.3137 0.0
C1185 C 0.66282 0.9902 0.52803 0.0
C1186 C 0.64364 0.99292 0.48413 0.0
C1187 C 0.64755 0.99122 0.41488 0.0
C1188 C 0.61981 0.99933 0.50879 0.0
C1189 C 0.65984 0.9921 0.60283 0.0
C1190 C 0.60652 0.98439 0.54876 0.0
C1191 C 0.58467 0.99144 0.57387 0.0
C1192 C 0.57562 0.0135 0.55902 0.0
C1193 C 0.58883 0.02814 0.51825 0.0
C1194 C 0.61045 0.02108 0.49295 0.0
H1195 H 0.67679 0.99329 0.62951 0.0
H1196 H 0.64924 1.0076 0.61639 0.0
H1197 H 0.6505 0.97652 0.62063 0.0
H1198 H 0.61312 0.96737 0.56104 0.0
H1199 H 0.57509 0.97985 0.60582 0.0
H1200 H 0.53598 0.76817 0.32597 0.0
H1201 H 0.5251 0.73522 0.3961 0.0
H1202 H 0.59756 0.71707 0.41614 0.0
H1203 H 0.60833 0.75059 0.35118 0.0
H1204 H 0.52896 0.69218 0.36841 0.0
H1205 H 0.58045 0.70399 0.59915 0.0
H1206 H 0.57757 0.72693 0.5395 0.0
H1207 H 0.59947 0.70468 0.52865 0.0
C1208 C 0.54957 0.75781 0.34824 0.0
C1209 C 0.57304 0.76218 0.33325 0.0
C1210 C 0.54336 0.73869 0.38757 0.0
C1211 C 0.56045 0.72348 0.41263 0.0
C1212 C 0.58391 0.72864 0.40001 0.0
H1213 H 0.56696 0.5798 0.53014 0.0
H1214 H 0.57333 0.61894 0.48932 0.0
C1215 C 0.59009 0.74788 0.36213 0.0
C1216 C 0.55392 0.70104 0.44543 0.0
H1217 H 0.56883 0.66443 0.57217 0.0
C1218 C 0.5374 0.68644 0.41375 0.0
C1219 C 0.56487 0.6931 0.50467 0.0
C1220 C 0.58137 0.70816 0.54519 0.0
C1221 C 0.5322 0.66416 0.43798 0.0
C1222 C 0.54387 0.65598 0.49528 0.0
C1223 C 0.56003 0.6706 0.52783 0.0
C1224 C 0.53987 0.6321 0.52112 0.0
C1225 C 0.51475 0.64912 0.40098 0.0
C1226 C 0.51904 0.62634 0.55342 0.0
C1227 C 0.51532 0.60375 0.57681 0.0
C1228 C 0.53229 0.58626 0.568 0.0
C1229 C 0.55325 0.59232 0.53648 0.0
C1230 C 0.55703 0.61492 0.51356 0.0
H1231 H 0.50912 0.65687 0.35311 0.0
H1232 H 0.52226 0.63166 0.39036 0.0
H1233 H 0.49918 0.64671 0.43278 0.0
H1234 H 0.50561 0.63933 0.56052 0.0
H1235 H 0.49896 0.59994 0.601 0.0
H1236 H 0.77209 0.53751 0.2758 0.0
H1237 H 0.80701 0.52713 0.33991 0.0
H1238 H 0.80568 0.59426 0.43894 0.0
H1239 H 0.7708 0.60448 0.37534 0.0
H1240 H 0.84884 0.54988 0.33068 0.0
H1241 H 0.82021 0.55281 0.59508 0.0
H1242 H 0.79983 0.55169 0.52619 0.0
H1243 H 0.81349 0.57871 0.5503 0.0
C1244 C 0.77859 0.54956 0.31368 0.0
C1245 C 0.76823 0.57154 0.32194 0.0
C1246 C 0.79881 0.54379 0.3496 0.0
C1247 C 0.80907 0.55979 0.39501 0.0
C1248 C 0.79801 0.58132 0.40562 0.0
H1249 H 0.953 0.56894 0.53901 0.0
H1250 H 0.91461 0.57644 0.49094 0.0
C1251 C 0.7779 0.58713 0.3695 0.0
C1252 C 0.83231 0.55486 0.42636 0.0
H1253 H 0.86119 0.55162 0.57631 0.0
C1254 C 0.85143 0.55013 0.38442 0.0
C1255 C 0.83596 0.55529 0.49659 0.0
C1256 C 0.81626 0.5597 0.54476 0.0
C1257 C 0.87388 0.54612 0.41053 0.0
C1258 C 0.8775 0.5467 0.48052 0.0
C1259 C 0.85845 0.55123 0.52262 0.0
C1260 C 0.90093 0.54225 0.51059 0.0
C1261 C 0.89371 0.54113 0.36322 0.0
C1262 C 0.90613 0.52061 0.53828 0.0
C1263 C 0.9283 0.51614 0.56496 0.0
C1264 C 0.9459 0.53325 0.56488 0.0
C1265 C 0.94038 0.55509 0.53837 0.0
C1266 C 0.91824 0.5595 0.51132 0.0
H1267 H 0.88783 0.53969 0.31034 0.0
H1268 H 0.90679 0.55529 0.36749 0.0
H1269 H 0.90247 0.5247 0.37706 0.0
H1270 H 0.8931 0.507 0.53839 0.0
H1271 H 0.93174 0.49907 0.58466 0.0
loop_
_geom_bond_atom_site_label_1
_geom_bond_atom_site_label_2
_geom_bond_distance
_geom_bond_site_symmetry_2
_ccdc_geom_bond_type
H0 C3 0.931 . S
H1 C6 0.928 . S
H2 C8 0.930 . S
C3 H0 0.931 . S
C3 C4 1.413 . S
C3 C5 1.360 . S
C4 C3 1.413 . S
C4 C8 1.429 . S
C5 C3 1.360 . S
C5 C6 1.372 . S
C6 H1 0.928 . S
C6 C5 1.372 . S
C6 C7 1.404 . S
C7 C6 1.404 . S
C7 C8 1.391 . S
C8 H2 0.930 . S
C8 C4 1.429 . S
C8 C7 1.391 . S
H9 C12 0.931 . S
H10 C15 0.928 . S
H11 C17 0.930 . S
C12 H9 0.931 . S
C12 C13 1.413 . S
C12 C14 1.360 . S
C13 C12 1.413 . S
C13 C17 1.429 . S
C14 C12 1.360 . S
C14 C15 1.372 . S
C15 H10 0.928 . S
C15 C14 1.372 . S
C15 C16 1.404 . S
C16 C15 1.404 . S
C16 C17 1.391 . S
C17 H11 0.930 . S
C17 C13 1.429 . S
C17 C16 1.391 . S
H18 C21 0.931 . S
H19 C24 0.928 . S
H20 C26 0.930 . S
C21 H18 0.931 . S
C21 C22 1.413 . S
C21 C23 1.360 . S
C22 C21 1.413 . S
C22 C26 1.429 . S
C23 C21 1.360 . S
C23 C24 1.372 . S
C24 H19 0.928 . S
C24 C23 1.372 . S
C24 C25 1.404 . S
C25 C24 1.404 . S
C25 C26 1.391 . S
C26 H20 0.930 . S
C26 C22 1.429 . S
C26 C25 1.391 . S
H27 C30 0.931 . S
H28 C33 0.928 . S
H29 C35 0.930 . S
C30 H27 0.931 . S
C30 C31 1.413 . S
C30 C32 1.360 . S
C31 C30 1.413 . S
C31 C35 1.429 . S
C32 C30 1.360 . S
C32 C33 1.372 . S
C33 H28 0.928 . S
C33 C32 1.372 . S
C33 C34 1.404 . S
C34 C33 1.404 . S
C34 C35 1.391 . S
C35 H29 0.930 . S
C35 C31 1.429 . S
C35 C34 1.391 . S
H36 C39 0.934 . S
H37 C42 0.928 . S
H38 C44 0.930 . S
C39 H36 0.934 . S
C39 C40 1.413 1_554 S
C39 C41 1.360 . S
C40 C39 1.413 1_556 S
C40 C44 1.429 . S
C41 C39 1.360 . S
C41 C42 1.372 . S
C42 H37 0.928 . S
C42 C41 1.372 . S
C42 C43 1.404 . S
C43 C42 1.404 . S
C43 C44 1.391 1_554 S
C44 H38 0.930 . S
C44 C40 1.429 . S
C44 C43 1.391 1_556 S
H45 C48 0.931 1_556 S
H46 C51 0.928 . S
H47 C53 0.930 . S
C48 H45 0.931 1_554 S
C48 C49 1.413 1_554 S
C48 C50 1.360 . S
C49 C48 1.413 1_556 S
C49 C53 1.429 . S
C50 C48 1.360 . S
C50 C51 1.372 . S
C51 H46 0.928 . S
C51 C50 1.372 . S
C51 C52 1.404 . S
C52 C51 1.404 . S
C52 C53 1.391 1_554 S
C53 H47 0.930 . S
C53 C49 1.429 . S
C53 C52 1.391 1_556 S
H54 C57 0.931 1_556 S
H55 C60 0.928 . S
H56 C62 0.930 . S
C57 H54 0.931 1_554 S
C57 C58 1.413 1_554 S
C57 C59 1.360 . S
C58 C57 1.413 1_556 S
C58 C62 1.429 . S
C59 C57 1.360 . S
C59 C60 1.372 . S
C60 H55 0.928 . S
C60 C59 1.372 . S
C60 C61 1.404 . S
C61 C60 1.404 . S
C61 C62 1.391 1_554 S
C62 H56 0.930 . S
C62 C58 1.429 . S
C62 C61 1.391 1_556 S
H63 C66 0.931 1_556 S
H64 C69 0.928 . S
H65 C71 0.930 . S
C66 H63 0.931 1_554 S
C66 C67 1.413 . S
C66 C68 1.360 1_554 S
C67 C66 1.413 . S
C67 C71 1.429 . S
C68 C66 1.360 1_556 S
C68 C69 1.372 . S
C69 H64 0.928 . S
C69 C68 1.372 . S
C69 C70 1.404 1_556 S
C70 C69 1.404 1_554 S
C70 C71 1.391 . S
C71 H65 0.930 . S
C71 C67 1.429 . S
C71 C70 1.391 . S
Eu72 N103 2.657 1_565 S
Eu72 N110 2.609 . S
Eu72 O116 2.558 . S
Eu72 O117 2.612 1_455 S
Eu72 O119 2.339 1_455 S
Eu72 O120 2.563 . S
Eu72 O121 2.419 . S
Eu72 O123 2.380 1_565 S
Eu72 O124 2.432 . S
Eu72 C136 2.848 . S
C73 C76 1.429 1_545 S
C73 C77 1.411 . S
C73 N80 1.377 . S
C74 C76 1.420 . S
C74 C78 1.423 . S
C74 C86 1.392 . S
C75 C77 1.420 1_565 S
C75 C78 1.351 . S
C75 H98 0.931 . S
C76 C73 1.429 1_565 S
C76 C74 1.420 . S
C76 N84 1.362 . S
C77 C73 1.411 . S
C77 C75 1.420 1_545 S
C77 C82 1.395 . S
C78 C74 1.423 . S
C78 C75 1.351 . S
C78 H90 0.930 . S
C79 C81 1.400 . S
C79 C82 1.386 . S
C79 H91 0.930 . S
N80 C73 1.377 . S
N80 C81 1.321 . S
N80 Eu83 2.609 . S
C81 C79 1.400 . S
C81 N80 1.321 . S
C81 H88 0.930 . S
C82 C77 1.395 . S
C82 C79 1.386 . S
C82 H101 0.930 . S
Eu83 N80 2.609 . S
Eu83 N84 2.658 1_545 S
Eu83 O117 2.380 1_545 S
Eu83 O118 2.432 . S
Eu83 O122 2.558 . S
Eu83 O123 2.612 1_655 S
Eu83 O125 2.339 1_655 S
Eu83 O126 2.563 1_655 S
Eu83 O127 2.419 . S
Eu83 C147 2.848 . S
N84 C76 1.362 . S
N84 Eu83 2.658 1_565 S
N84 C85 1.333 1_655 S
C85 N84 1.333 1_455 S
C85 C87 1.414 1_455 S
C85 H92 0.929 . S
C86 C74 1.392 . S
C86 C87 1.363 . S
C86 H94 0.930 . S
C87 C85 1.414 1_655 S
C87 C86 1.363 . S
C87 H89 0.935 1_655 S
H88 C81 0.930 . S
H89 C87 0.935 1_455 S
H90 C78 0.930 . S
H91 C79 0.930 . S
H92 C85 0.929 . S
H93 C107 0.930 1_655 S
H94 C86 0.930 . S
H95 C113 0.930 . S
H96 C104 0.929 1_655 S
H97 C111 0.930 . S
H98 C75 0.931 . S
H99 C105 0.930 . S
H100 C138 0.930 . S
H101 C82 0.930 . S
H102 C137 0.931 . S
N103 Eu72 2.657 1_545 S
N103 C104 1.334 . S
N103 C108 1.362 . S
C104 H96 0.929 1_455 S
C104 N103 1.334 . S
C104 C107 1.413 . S
C105 H99 0.930 . S
C105 C106 1.392 . S
C105 C107 1.367 . S
C106 C105 1.392 . S
C106 C108 1.420 . S
C106 C138 1.423 . S
C107 H93 0.930 1_455 S
C107 C104 1.413 . S
C107 C105 1.367 . S
C108 N103 1.362 . S
C108 C106 1.420 . S
C108 C112 1.429 . S
H109 C114 0.928 . S
N110 Eu72 2.609 . S
N110 C112 1.377 1_565 S
N110 C113 1.321 . S
C111 H97 0.930 . S
C111 C113 1.400 . S
C111 C114 1.406 . S
C112 C108 1.429 . S
C112 N110 1.377 1_545 S
C112 C115 1.411 . S
C113 H95 0.930 . S
C113 N110 1.321 . S
C113 C111 1.400 . S
C114 H109 0.928 . S
C114 C111 1.406 . S
C114 C115 1.378 1_565 S
C115 C112 1.411 . S
C115 C114 1.378 1_545 S
C115 C137 1.420 . S
O116 Eu72 2.558 . S
O116 C136 1.257 . S
O117 Eu72 2.612 1_655 S
O117 Eu83 2.380 1_565 S
O117 C128 1.276 . S
O118 Eu83 2.432 . S
O118 C135 1.264 . S
O119 Eu72 2.339 1_655 S
O119 C135 1.254 1_565 S
O120 Eu72 2.563 . S
O120 C128 1.235 1_455 S
O121 Eu72 2.419 . S
O121 C136 1.249 . S
O122 Eu83 2.558 . S
O122 C147 1.257 . S
O123 Eu72 2.380 1_545 S
O123 Eu83 2.612 1_455 S
O123 C139 1.276 . S
O124 Eu72 2.432 . S
O124 C146 1.264 1_565 S
O125 Eu83 2.339 1_455 S
O125 C146 1.254 . S
O126 Eu83 2.563 1_455 S
O126 C139 1.235 . S
O127 Eu83 2.419 . S
O127 C147 1.249 . S
C128 O117 1.276 . S
C128 O120 1.235 1_655 S
C129 C131 1.393 . S
C129 C133 1.395 . S
C129 C136 1.492 . S
C130 C131 1.392 . S
C130 C132 1.386 . S
C131 C129 1.393 . S
C131 C130 1.392 . S
C131 H148 0.925 1_455 S
C132 C130 1.386 . S
C132 C134 1.395 . S
C132 H149 0.930 . S
C133 C129 1.395 . S
C133 C134 1.379 . S
C133 H150 0.930 . S
C134 C132 1.395 . S
C134 C133 1.379 . S
C134 H151 0.930 . S
C135 O118 1.264 . S
C135 O119 1.254 1_545 S
C136 Eu72 2.848 . S
C136 O116 1.257 . S
C136 O121 1.249 . S
C136 C129 1.492 . S
C137 H102 0.931 . S
C137 C115 1.420 . S
C137 C138 1.351 . S
C138 H100 0.930 . S
C138 C106 1.423 . S
C138 C137 1.351 . S
C139 O123 1.276 . S
C139 O126 1.235 . S
C140 C141 1.393 . S
C140 C144 1.395 . S
C140 C147 1.492 . S
C141 C140 1.393 . S
C141 C142 1.392 . S
C141 H152 0.930 1_655 S
C142 C141 1.392 . S
C142 C143 1.386 . S
C143 C142 1.386 . S
C143 C145 1.395 . S
C143 H153 0.930 . S
C144 C140 1.395 . S
C144 C145 1.379 . S
C144 H154 0.930 . S
C145 C143 1.395 . S
C145 C144 1.379 . S
C145 H155 0.930 . S
C146 O124 1.264 1_545 S
C146 O125 1.254 . S
C147 Eu83 2.848 . S
C147 O122 1.257 . S
C147 O127 1.249 . S
C147 C140 1.492 . S
H148 C131 0.925 1_655 S
H149 C132 0.930 . S
H150 C133 0.930 . S
H151 C134 0.930 . S
H152 C141 0.930 1_455 S
H153 C143 0.930 . S
H154 C144 0.930 . S
H155 C145 0.930 . S
Eu156 N187 2.657 . S
Eu156 N194 2.609 . S
Eu156 O200 2.558 . S
Eu156 O201 2.612 1_545 S
Eu156 O203 2.339 1_545 S
Eu156 O204 2.563 . S
Eu156 O205 2.419 . S
Eu156 O207 2.380 . S
Eu156 O208 2.432 . S
Eu156 C220 2.848 . S
C157 C160 1.429 . S
C157 C161 1.411 . S
C157 N164 1.377 . S
C158 C160 1.420 . S
C158 C162 1.423 . S
C158 C170 1.392 . S
C159 C161 1.420 . S
C159 C162 1.351 . S
C159 H182 0.931 . S
C160 C157 1.429 . S
C160 C158 1.420 . S
C160 N168 1.362 . S
C161 C157 1.411 . S
C161 C159 1.420 . S
C161 C166 1.395 . S
C162 C158 1.423 . S
C162 C159 1.351 . S
C162 H174 0.930 . S
C163 C165 1.400 . S
C163 C166 1.386 . S
C163 H175 0.930 . S
N164 C157 1.377 . S
N164 C165 1.321 . S
N164 Eu167 2.609 . S
C165 C163 1.400 . S
C165 N164 1.321 . S
C165 H172 0.930 . S
C166 C161 1.395 . S
C166 C163 1.386 . S
C166 H185 0.930 . S
Eu167 N164 2.609 . S
Eu167 N168 2.657 . S
Eu167 O201 2.380 . S
Eu167 O202 2.432 . S
Eu167 O206 2.558 . S
Eu167 O207 2.612 1_565 S
Eu167 O209 2.339 1_565 S
Eu167 O210 2.563 1_565 S
Eu167 O211 2.419 . S
Eu167 C231 2.848 . S
N168 C160 1.362 . S
N168 Eu167 2.657 . S
N168 C169 1.334 1_565 S
C169 N168 1.334 1_545 S
C169 C171 1.413 . S
C169 H176 0.929 . S
C170 C158 1.392 . S
C170 C171 1.367 1_565 S
C170 H178 0.930 . S
C171 C169 1.413 . S
C171 C170 1.367 1_545 S
C171 H173 0.930 . S
H172 C165 0.930 . S
H173 C171 0.930 . S
H174 C162 0.930 . S
H175 C163 0.930 . S
H176 C169 0.929 . S
H177 C191 0.930 1_565 S
H178 C170 0.930 . S
H179 C197 0.930 . S
H180 C188 0.929 1_565 S
H181 C195 0.930 . S
H182 C159 0.931 . S
H183 C189 0.930 . S
H184 C222 0.930 . S
H185 C166 0.930 . S
H186 C221 0.931 . S
N187 Eu156 2.657 . S
N187 C188 1.334 . S
N187 C192 1.362 . S
C188 H180 0.929 1_545 S
C188 N187 1.334 . S
C188 C191 1.413 . S
C189 H183 0.930 . S
C189 C190 1.392 . S
C189 C191 1.367 . S
C190 C189 1.392 . S
C190 C192 1.420 . S
C190 C222 1.423 . S
C191 H177 0.930 1_545 S
C191 C188 1.413 . S
C191 C189 1.367 . S
C192 N187 1.362 . S
C192 C190 1.420 . S
C192 C196 1.429 . S
H193 C198 0.930 . S
N194 Eu156 2.609 . S
N194 C196 1.377 . S
N194 C197 1.321 . S
C195 H181 0.930 . S
C195 C197 1.400 . S
C195 C198 1.386 . S
C196 C192 1.429 . S
C196 N194 1.377 . S
C196 C199 1.411 . S
C197 H179 0.930 . S
C197 N194 1.321 . S
C197 C195 1.400 . S
C198 H193 0.930 . S
C198 C195 1.386 . S
C198 C199 1.395 . S
C199 C196 1.411 . S
C199 C198 1.395 . S
C199 C221 1.420 . S
O200 Eu156 2.558 . S
O200 C220 1.257 . S
O201 Eu156 2.612 1_565 S
O201 Eu167 2.380 . S
O201 C212 1.276 . S
O202 Eu167 2.432 . S
O202 C219 1.264 . S
O203 Eu156 2.339 1_565 S
O203 C219 1.254 . S
O204 Eu156 2.563 . S
O204 C212 1.235 1_545 S
O205 Eu156 2.419 . S
O205 C220 1.249 . S
O206 Eu167 2.558 . S
O206 C231 1.257 . S
O207 Eu156 2.380 . S
O207 Eu167 2.612 1_545 S
O207 C223 1.276 . S
O208 Eu156 2.432 . S
O208 C230 1.264 . S
O209 Eu167 2.339 1_545 S
O209 C230 1.254 . S
O210 Eu167 2.563 1_545 S
O210 C223 1.235 . S
O211 Eu167 2.419 . S
O211 C231 1.249 . S
C212 O201 1.276 . S
C212 O204 1.235 1_565 S
C213 C215 1.393 . S
C213 C217 1.395 . S
C213 C220 1.492 . S
C214 C215 1.392 . S
C214 C216 1.386 . S
C215 C213 1.393 . S
C215 C214 1.392 . S
C215 H232 0.930 . S
C216 C214 1.386 . S
C216 C218 1.395 . S
C216 H233 0.930 . S
C217 C213 1.395 . S
C217 C218 1.379 . S
C217 H234 0.930 . S
C218 C216 1.395 . S
C218 C217 1.379 . S
C218 H235 0.930 . S
C219 O202 1.264 . S
C219 O203 1.254 . S
C220 Eu156 2.848 . S
C220 O200 1.257 . S
C220 O205 1.249 . S
C220 C213 1.492 . S
C221 H186 0.931 . S
C221 C199 1.420 . S
C221 C222 1.351 . S
C222 H184 0.930 . S
C222 C190 1.423 . S
C222 C221 1.351 . S
C223 O207 1.276 . S
C223 O210 1.235 . S
C224 C225 1.393 . S
C224 C228 1.395 . S
C224 C231 1.492 . S
C225 C224 1.393 . S
C225 C226 1.392 . S
C225 H236 0.930 1_565 S
C226 C225 1.392 . S
C226 C227 1.386 . S
C227 C226 1.386 . S
C227 C229 1.395 . S
C227 H237 0.930 . S
C228 C224 1.395 . S
C228 C229 1.379 . S
C228 H238 0.930 . S
C229 C227 1.395 . S
C229 C228 1.379 . S
C229 H239 0.930 . S
C230 O208 1.264 . S
C230 O209 1.254 . S
C231 Eu167 2.848 . S
C231 O206 1.257 . S
C231 O211 1.249 . S
C231 C224 1.492 . S
H232 C215 0.930 . S
H233 C216 0.930 . S
H234 C217 0.930 . S
H235 C218 0.930 . S
H236 C225 0.930 1_545 S
H237 C227 0.930 . S
H238 C228 0.930 . S
H239 C229 0.930 . S
Eu240 N271 2.657 . S
Eu240 N278 2.609 . S
Eu240 O284 2.558 . S
Eu240 O285 2.612 . S
Eu240 O287 2.339 . S
Eu240 O288 2.563 . S
Eu240 O289 2.419 . S
Eu240 O291 2.380 . S
Eu240 O292 2.432 . S
Eu240 C304 2.848 . S
C241 C244 1.429 . S
C241 C245 1.411 . S
C241 N248 1.377 . S
C242 C244 1.420 . S
C242 C246 1.423 . S
C242 C254 1.392 . S
C243 C245 1.420 . S
C243 C246 1.351 . S
C243 H266 0.931 . S
C244 C241 1.429 . S
C244 C242 1.420 . S
C244 N252 1.362 . S
C245 C241 1.411 . S
C245 C243 1.420 . S
C245 C250 1.395 . S
C246 C242 1.423 . S
C246 C243 1.351 . S
C246 H258 0.930 . S
C247 C249 1.400 . S
C247 C250 1.386 . S
C247 H259 0.930 . S
N248 C241 1.377 . S
N248 C249 1.321 . S
N248 Eu251 2.609 . S
C249 C247 1.400 . S
C249 N248 1.321 . S
C249 H256 0.930 . S
C250 C245 1.395 . S
C250 C247 1.386 . S
C250 H269 0.930 . S
Eu251 N248 2.609 . S
Eu251 N252 2.657 . S
Eu251 O285 2.380 . S
Eu251 O286 2.432 . S
Eu251 O290 2.558 . S
Eu251 O291 2.612 . S
Eu251 O293 2.339 . S
Eu251 O294 2.563 . S
Eu251 O295 2.419 . S
Eu251 C315 2.848 . S
N252 C244 1.362 . S
N252 Eu251 2.657 . S
N252 C253 1.334 . S
C253 N252 1.334 . S
C253 C255 1.413 . S
C253 H260 0.929 . S
C254 C242 1.392 . S
C254 C255 1.367 . S
C254 H262 0.930 . S
C255 C253 1.413 . S
C255 C254 1.367 . S
C255 H257 0.930 . S
H256 C249 0.930 . S
H257 C255 0.930 . S
H258 C246 0.930 . S
H259 C247 0.930 . S
H260 C253 0.929 . S
H261 C275 0.930 . S
H262 C254 0.930 . S
H263 C281 0.930 . S
H264 C272 0.929 . S
H265 C279 0.930 . S
H266 C243 0.931 . S
H267 C273 0.930 . S
H268 C306 0.930 . S
H269 C250 0.930 . S
H270 C305 0.931 . S
N271 Eu240 2.657 . S
N271 C272 1.334 . S
N271 C276 1.362 . S
C272 H264 0.929 . S
C272 N271 1.334 . S
C272 C275 1.413 . S
C273 H267 0.930 . S
C273 C274 1.392 . S
C273 C275 1.367 . S
C274 C273 1.392 . S
C274 C276 1.420 . S
C274 C306 1.423 . S
C275 H261 0.930 . S
C275 C272 1.413 . S
C275 C273 1.367 . S
C276 N271 1.362 . S
C276 C274 1.420 . S
C276 C280 1.429 . S
H277 C282 0.930 . S
N278 Eu240 2.609 . S
N278 C280 1.377 . S
N278 C281 1.321 . S
C279 H265 0.930 . S
C279 C281 1.400 . S
C279 C282 1.386 . S
C280 C276 1.429 . S
C280 N278 1.377 . S
C280 C283 1.411 . S
C281 H263 0.930 . S
C281 N278 1.321 . S
C281 C279 1.400 . S
C282 H277 0.930 . S
C282 C279 1.386 . S
C282 C283 1.395 . S
C283 C280 1.411 . S
C283 C282 1.395 . S
C283 C305 1.420 . S
O284 Eu240 2.558 . S
O284 C304 1.257 . S
O285 Eu240 2.612 . S
O285 Eu251 2.380 . S
O285 C296 1.276 . S
O286 Eu251 2.432 . S
O286 C303 1.264 . S
O287 Eu240 2.339 . S
O287 C303 1.254 . S
O288 Eu240 2.563 . S
O288 C296 1.235 . S
O289 Eu240 2.419 . S
O289 C304 1.249 . S
O290 Eu251 2.558 . S
O290 C315 1.257 . S
O291 Eu240 2.380 . S
O291 Eu251 2.612 . S
O291 C307 1.276 . S
O292 Eu240 2.432 . S
O292 C314 1.264 . S
O293 Eu251 2.339 . S
O293 C314 1.254 . S
O294 Eu251 2.563 . S
O294 C307 1.235 . S
O295 Eu251 2.419 . S
O295 C315 1.249 . S
C296 O285 1.276 . S
C296 O288 1.235 . S
C297 C299 1.393 . S
C297 C301 1.395 . S
C297 C304 1.492 . S
C298 C299 1.392 . S
C298 C300 1.386 . S
C299 C297 1.393 . S
C299 C298 1.392 . S
C299 H316 0.930 . S
C300 C298 1.386 . S
C300 C302 1.395 . S
C300 H317 0.930 . S
C301 C297 1.395 . S
C301 C302 1.379 . S
C301 H318 0.930 . S
C302 C300 1.395 . S
C302 C301 1.379 . S
C302 H319 0.930 . S
C303 O286 1.264 . S
C303 O287 1.254 . S
C304 Eu240 2.848 . S
C304 O284 1.257 . S
C304 O289 1.249 . S
C304 C297 1.492 . S
C305 H270 0.931 . S
C305 C283 1.420 . S
C305 C306 1.351 . S
C306 H268 0.930 . S
C306 C274 1.423 . S
C306 C305 1.351 . S
C307 O291 1.276 . S
C307 O294 1.235 . S
C308 C309 1.393 . S
C308 C312 1.395 . S
C308 C315 1.492 . S
C309 C308 1.393 . S
C309 C310 1.392 . S
C309 H320 0.930 . S
C310 C309 1.392 . S
C310 C311 1.386 . S
C311 C310 1.386 . S
C311 C313 1.395 . S
C311 H321 0.930 . S
C312 C308 1.395 . S
C312 C313 1.379 . S
C312 H322 0.930 . S
C313 C311 1.395 . S
C313 C312 1.379 . S
C313 H323 0.930 . S
C314 O292 1.264 . S
C314 O293 1.254 . S
C315 Eu251 2.848 . S
C315 O290 1.257 . S
C315 O295 1.249 . S
C315 C308 1.492 . S
H316 C299 0.930 . S
H317 C300 0.930 . S
H318 C301 0.930 . S
H319 C302 0.930 . S
H320 C309 0.930 . S
H321 C311 0.930 . S
H322 C312 0.930 . S
H323 C313 0.930 . S
Eu324 N355 2.657 . S
Eu324 N362 2.609 . S
Eu324 O368 2.558 . S
Eu324 O369 2.612 . S
Eu324 O371 2.339 . S
Eu324 O372 2.563 . S
Eu324 O373 2.419 . S
Eu324 O375 2.384 . S
Eu324 O376 2.432 1_455 S
Eu324 C388 2.848 . S
C325 C328 1.429 . S
C325 C329 1.411 . S
C325 N332 1.377 . S
C326 C328 1.420 . S
C326 C330 1.423 . S
C326 C338 1.392 . S
C327 C329 1.420 . S
C327 C330 1.351 . S
C327 H350 0.931 . S
C328 C325 1.429 . S
C328 C326 1.420 . S
C328 N336 1.362 . S
C329 C325 1.411 . S
C329 C327 1.420 . S
C329 C334 1.395 . S
C330 C326 1.423 . S
C330 C327 1.351 . S
C330 H342 0.930 . S
C331 C333 1.400 . S
C331 C334 1.386 1_455 S
C331 H343 0.930 . S
N332 C325 1.377 . S
N332 C333 1.321 1_655 S
N332 Eu335 2.609 . S
C333 C331 1.400 . S
C333 N332 1.321 1_455 S
C333 H340 0.930 . S
C334 C329 1.395 . S
C334 C331 1.386 1_655 S
C334 H353 0.930 . S
Eu335 N332 2.609 . S
Eu335 N336 2.657 . S
Eu335 O369 2.380 1_655 S
Eu335 O370 2.432 1_655 S
Eu335 O374 2.558 . S
Eu335 O375 2.610 1_655 S
Eu335 O377 2.339 . S
Eu335 O378 2.563 . S
Eu335 O379 2.419 . S
Eu335 C399 2.848 . S
N336 C328 1.362 . S
N336 Eu335 2.657 . S
N336 C337 1.334 . S
C337 N336 1.334 . S
C337 C339 1.413 . S
C337 H344 0.929 . S
C338 C326 1.392 . S
C338 C339 1.367 . S
C338 H346 0.930 . S
C339 C337 1.413 . S
C339 C338 1.367 . S
C339 H341 0.930 . S
H340 C333 0.930 . S
H341 C339 0.930 . S
H342 C330 0.930 . S
H343 C331 0.930 . S
H344 C337 0.929 . S
H345 C359 0.930 . S
H346 C338 0.930 . S
H347 C365 0.930 1_655 S
H348 C356 0.929 . S
H349 C363 0.932 1_655 S
H350 C327 0.931 . S
H351 C357 0.930 . S
H352 C390 0.930 . S
H353 C334 0.930 . S
H354 C389 0.931 . S
N355 Eu324 2.657 . S
N355 C356 1.334 . S
N355 C360 1.362 . S
C356 H348 0.929 . S
C356 N355 1.334 . S
C356 C359 1.413 . S
C357 H351 0.930 . S
C357 C358 1.392 . S
C357 C359 1.367 . S
C358 C357 1.392 . S
C358 C360 1.420 . S
C358 C390 1.423 . S
C359 H345 0.930 . S
C359 C356 1.413 . S
C359 C357 1.367 . S
C360 N355 1.362 . S
C360 C358 1.420 . S
C360 C364 1.429 . S
H361 C366 0.930 . S
N362 Eu324 2.609 . S
N362 C364 1.377 . S
N362 C365 1.321 . S
C363 H349 0.932 1_455 S
C363 C365 1.399 . S
C363 C366 1.383 . S
C364 C360 1.429 . S
C364 N362 1.377 . S
C364 C367 1.411 . S
C365 H347 0.930 1_455 S
C365 N362 1.321 . S
C365 C363 1.399 . S
C366 H361 0.930 . S
C366 C363 1.383 . S
C366 C367 1.395 . S
C367 C364 1.411 . S
C367 C366 1.395 . S
C367 C389 1.420 . S
O368 Eu324 2.558 . S
O368 C388 1.257 . S
O369 Eu324 2.612 . S
O369 Eu335 2.380 1_455 S
O369 C380 1.276 . S
O370 Eu335 2.432 1_455 S
O370 C387 1.264 . S
O371 Eu324 2.339 . S
O371 C387 1.254 . S
O372 Eu324 2.563 . S
O372 C380 1.235 . S
O373 Eu324 2.419 . S
O373 C388 1.249 . S
O374 Eu335 2.558 . S
O374 C399 1.257 . S
O375 Eu324 2.384 . S
O375 Eu335 2.610 1_455 S
O375 C391 1.273 1_455 S
O376 Eu324 2.432 1_655 S
O376 C398 1.264 . S
O377 Eu335 2.339 . S
O377 C398 1.254 . S
O378 Eu335 2.563 . S
O378 C391 1.235 . S
O379 Eu335 2.419 . S
O379 C399 1.249 . S
C380 O369 1.276 . S
C380 O372 1.235 . S
C381 C383 1.393 . S
C381 C385 1.395 . S
C381 C388 1.492 . S
C382 C383 1.392 . S
C382 C384 1.386 . S
C383 C381 1.393 . S
C383 C382 1.392 . S
C383 H400 0.930 . S
C384 C382 1.386 . S
C384 C386 1.395 . S
C384 H401 0.930 . S
C385 C381 1.395 . S
C385 C386 1.379 . S
C385 H402 0.930 . S
C386 C384 1.395 . S
C386 C385 1.379 . S
C386 H403 0.930 . S
C387 O370 1.264 . S
C387 O371 1.254 . S
C388 Eu324 2.848 . S
C388 O368 1.257 . S
C388 O373 1.249 . S
C388 C381 1.492 . S
C389 H354 0.931 . S
C389 C367 1.420 . S
C389 C390 1.351 . S
C390 H352 0.930 . S
C390 C358 1.423 . S
C390 C389 1.351 . S
C391 O375 1.273 1_655 S
C391 O378 1.235 . S
C392 C393 1.393 . S
C392 C396 1.395 . S
C392 C399 1.492 . S
C393 C392 1.393 . S
C393 C394 1.392 . S
C393 H404 0.930 . S
C394 C393 1.392 . S
C394 C395 1.386 . S
C395 C394 1.386 . S
C395 C397 1.395 . S
C395 H405 0.930 . S
C396 C392 1.395 . S
C396 C397 1.379 . S
C396 H406 0.930 . S
C397 C395 1.395 . S
C397 C396 1.379 . S
C397 H407 0.930 . S
C398 O376 1.264 . S
C398 O377 1.254 . S
C399 Eu335 2.848 . S
C399 O374 1.257 . S
C399 O379 1.249 . S
C399 C392 1.492 . S
H400 C383 0.930 . S
H401 C384 0.930 . S
H402 C385 0.930 . S
H403 C386 0.930 . S
H404 C393 0.930 . S
H405 C395 0.930 . S
H406 C396 0.930 . S
H407 C397 0.930 . S
H408 C416 0.929 . S
H409 C418 0.930 . S
H410 C420 0.930 . S
H411 C423 0.929 . S
H412 C426 0.930 . S
H413 C428 0.960 . S
H414 C428 0.960 . S
H415 C428 0.960 . S
C416 H408 0.929 . S
C416 C417 1.377 . S
C416 C418 1.384 . S
C417 C416 1.377 . S
C417 C423 1.390 . S
C418 H409 0.930 . S
C418 C416 1.384 . S
C418 C419 1.372 . S
C419 C418 1.372 . S
C419 C420 1.400 . S
C419 C424 1.490 . S
C420 H410 0.930 . S
C420 C419 1.400 . S
C420 C423 1.386 . S
H421 C437 0.930 . S
H422 C438 0.931 . S
C423 H411 0.929 . S
C423 C417 1.390 . S
C423 C420 1.386 . S
C424 C419 1.490 . S
C424 C426 1.395 . S
C424 C427 1.403 . S
H425 C431 0.930 . S
C426 H412 0.930 . S
C426 C424 1.395 . S
C426 C429 1.403 . S
C427 C424 1.403 . S
C427 C428 1.524 . S
C427 C431 1.400 . S
C428 H413 0.960 . S
C428 H414 0.960 . S
C428 H415 0.960 . S
C428 C427 1.524 . S
C429 C426 1.403 . S
C429 C430 1.392 . S
C429 C433 1.495 . S
C430 C429 1.392 . S
C430 C431 1.385 . S
C430 C432 1.478 . S
C431 H425 0.930 . S
C431 C427 1.400 . S
C431 C430 1.385 . S
C432 C430 1.478 . S
C432 C434 1.381 . S
C432 C438 1.383 . S
C433 C429 1.495 . S
C433 H439 0.959 . S
C433 H440 0.961 . S
C433 H441 0.960 . S
C434 C432 1.381 . S
C434 C435 1.394 . S
C434 H442 0.930 . S
C435 C434 1.394 . S
C435 C436 1.383 . S
C435 H443 0.929 . S
C436 C435 1.383 . S
C436 C437 1.377 . S
C437 H421 0.930 . S
C437 C436 1.377 . S
C437 C438 1.379 . S
C438 H422 0.931 . S
C438 C432 1.383 . S
C438 C437 1.379 . S
H439 C433 0.959 . S
H440 C433 0.961 . S
H441 C433 0.960 . S
H442 C434 0.930 . S
H443 C435 0.929 . S
H444 C452 0.929 . S
H445 C454 0.930 . S
H446 C456 0.930 . S
H447 C459 0.929 . S
H448 C462 0.930 . S
H449 C464 0.960 . S
H450 C464 0.960 . S
H451 C464 0.960 . S
C452 H444 0.929 . S
C452 C453 1.377 . S
C452 C454 1.384 . S
C453 C452 1.377 . S
C453 C459 1.390 . S
C454 H445 0.930 . S
C454 C452 1.384 . S
C454 C455 1.372 . S
C455 C454 1.372 . S
C455 C456 1.400 . S
C455 C460 1.490 . S
C456 H446 0.930 . S
C456 C455 1.400 . S
C456 C459 1.386 . S
H457 C473 0.930 . S
H458 C474 0.931 . S
C459 H447 0.929 . S
C459 C453 1.390 . S
C459 C456 1.386 . S
C460 C455 1.490 . S
C460 C462 1.395 . S
C460 C463 1.403 . S
H461 C467 0.930 . S
C462 H448 0.930 . S
C462 C460 1.395 . S
C462 C465 1.403 . S
C463 C460 1.403 . S
C463 C464 1.524 . S
C463 C467 1.400 . S
C464 H449 0.960 . S
C464 H450 0.960 . S
C464 H451 0.960 . S
C464 C463 1.524 . S
C465 C462 1.403 . S
C465 C466 1.392 . S
C465 C469 1.495 . S
C466 C465 1.392 . S
C466 C467 1.385 . S
C466 C468 1.478 . S
C467 H461 0.930 . S
C467 C463 1.400 . S
C467 C466 1.385 . S
C468 C466 1.478 . S
C468 C470 1.381 . S
C468 C474 1.383 . S
C469 C465 1.495 . S
C469 H475 0.959 . S
C469 H476 0.961 . S
C469 H477 0.960 . S
C470 C468 1.381 . S
C470 C471 1.394 . S
C470 H478 0.930 . S
C471 C470 1.394 . S
C471 C472 1.383 . S
C471 H479 0.929 . S
C472 C471 1.383 . S
C472 C473 1.377 . S
C473 H457 0.930 . S
C473 C472 1.377 . S
C473 C474 1.379 . S
C474 H458 0.931 . S
C474 C468 1.383 . S
C474 C473 1.379 . S
H475 C469 0.959 . S
H476 C469 0.961 . S
H477 C469 0.960 . S
H478 C470 0.930 . S
H479 C471 0.929 . S
H480 C488 0.929 . S
H481 C490 0.930 . S
H482 C492 0.930 . S
H483 C495 0.929 . S
H484 C498 0.930 . S
H485 C500 0.960 . S
H486 C500 0.960 . S
H487 C500 0.960 . S
C488 H480 0.929 . S
C488 C489 1.377 . S
C488 C490 1.384 . S
C489 C488 1.377 . S
C489 C495 1.390 . S
C490 H481 0.930 . S
C490 C488 1.384 . S
C490 C491 1.372 . S
C491 C490 1.372 . S
C491 C492 1.400 . S
C491 C496 1.490 . S
C492 H482 0.930 . S
C492 C491 1.400 . S
C492 C495 1.386 . S
H493 C509 0.930 . S
H494 C510 0.931 . S
C495 H483 0.929 . S
C495 C489 1.390 . S
C495 C492 1.386 . S
C496 C491 1.490 . S
C496 C498 1.395 . S
C496 C499 1.403 . S
H497 C503 0.930 . S
C498 H484 0.930 . S
C498 C496 1.395 . S
C498 C501 1.403 . S
C499 C496 1.403 . S
C499 C500 1.524 . S
C499 C503 1.400 . S
C500 H485 0.960 . S
C500 H486 0.960 . S
C500 H487 0.960 . S
C500 C499 1.524 . S
C501 C498 1.403 . S
C501 C502 1.392 . S
C501 C505 1.495 . S
C502 C501 1.392 . S
C502 C503 1.385 . S
C502 C504 1.478 . S
C503 H497 0.930 . S
C503 C499 1.400 . S
C503 C502 1.385 . S
C504 C502 1.478 . S
C504 C506 1.381 . S
C504 C510 1.383 . S
C505 C501 1.495 . S
C505 H511 0.959 . S
C505 H512 0.961 . S
C505 H513 0.960 . S
C506 C504 1.381 . S
C506 C507 1.394 . S
C506 H514 0.930 . S
C507 C506 1.394 . S
C507 C508 1.383 . S
C507 H515 0.929 . S
C508 C507 1.383 . S
C508 C509 1.377 . S
C509 H493 0.930 . S
C509 C508 1.377 . S
C509 C510 1.379 . S
C510 H494 0.931 . S
C510 C504 1.383 . S
C510 C509 1.379 . S
H511 C505 0.959 . S
H512 C505 0.961 . S
H513 C505 0.960 . S
H514 C506 0.930 . S
H515 C507 0.929 . S
H516 C524 0.929 . S
H517 C526 0.930 . S
H518 C528 0.930 . S
H519 C531 0.929 . S
H520 C534 0.930 . S
H521 C536 0.960 . S
H522 C536 0.960 . S
H523 C536 0.960 . S
C524 H516 0.929 . S
C524 C525 1.377 . S
C524 C526 1.384 . S
C525 C524 1.377 . S
C525 C531 1.390 . S
C526 H517 0.930 . S
C526 C524 1.384 . S
C526 C527 1.372 . S
C527 C526 1.372 . S
C527 C528 1.400 . S
C527 C532 1.490 . S
C528 H518 0.930 . S
C528 C527 1.400 . S
C528 C531 1.386 . S
H529 C545 0.930 . S
H530 C546 0.931 . S
C531 H519 0.929 . S
C531 C525 1.390 . S
C531 C528 1.386 . S
C532 C527 1.490 . S
C532 C534 1.395 . S
C532 C535 1.403 . S
H533 C539 0.930 . S
C534 H520 0.930 . S
C534 C532 1.395 . S
C534 C537 1.403 . S
C535 C532 1.403 . S
C535 C536 1.524 . S
C535 C539 1.400 . S
C536 H521 0.960 . S
C536 H522 0.960 . S
C536 H523 0.960 . S
C536 C535 1.524 . S
C537 C534 1.403 . S
C537 C538 1.392 . S
C537 C541 1.495 1_455 S
C538 C537 1.392 . S
C538 C539 1.385 . S
C538 C540 1.478 . S
C539 H533 0.930 . S
C539 C535 1.400 . S
C539 C538 1.385 . S
C540 C538 1.478 . S
C540 C542 1.381 . S
C540 C546 1.383 . S
C541 C537 1.495 1_655 S
C541 H547 0.959 . S
C541 H548 0.961 . S
C541 H549 0.965 . S
C542 C540 1.381 . S
C542 C543 1.394 . S
C542 H550 0.930 . S
C543 C542 1.394 . S
C543 C544 1.383 . S
C543 H551 0.929 . S
C544 C543 1.383 . S
C544 C545 1.377 . S
C545 H529 0.930 . S
C545 C544 1.377 . S
C545 C546 1.379 . S
C546 H530 0.931 . S
C546 C540 1.383 . S
C546 C545 1.379 . S
H547 C541 0.959 . S
H548 C541 0.961 . S
H549 C541 0.965 . S
H550 C542 0.930 . S
H551 C543 0.929 . S
H552 C560 0.929 . S
H553 C562 0.930 . S
H554 C564 0.930 1_556 S
H555 C567 0.929 . S
H556 C570 0.930 1_554 S
H557 C572 0.960 1_545 S
H558 C572 0.956 1_544 S
H559 C572 0.960 . S
C560 H552 0.929 . S
C560 C561 1.377 . S
C560 C562 1.384 . S
C561 C560 1.377 . S
C561 C567 1.390 . S
C562 H553 0.930 . S
C562 C560 1.384 . S
C562 C563 1.372 . S
C563 C562 1.372 . S
C563 C564 1.400 . S
C563 C568 1.490 1_554 S
C564 H554 0.930 1_554 S
C564 C563 1.400 . S
C564 C567 1.386 . S
H565 C581 0.930 . S
H566 C582 0.931 . S
C567 H555 0.929 . S
C567 C561 1.390 . S
C567 C564 1.386 . S
C568 C563 1.490 1_556 S
C568 C570 1.395 . S
C568 C571 1.403 . S
H569 C575 0.930 . S
C570 H556 0.930 1_556 S
C570 C568 1.395 . S
C570 C573 1.403 . S
C571 C568 1.403 . S
C571 C572 1.524 . S
C571 C575 1.400 . S
C572 H557 0.960 1_565 S
C572 H558 0.956 1_566 S
C572 H559 0.960 . S
C572 C571 1.524 . S
C573 C570 1.403 . S
C573 C574 1.392 . S
C573 C577 1.495 . S
C574 C573 1.392 . S
C574 C575 1.385 . S
C574 C576 1.478 . S
C575 H569 0.930 . S
C575 C571 1.400 . S
C575 C574 1.385 . S
C576 C574 1.478 . S
C576 C578 1.381 . S
C576 C582 1.383 . S
C577 C573 1.495 . S
C577 H583 0.959 . S
C577 H584 0.961 . S
C577 H585 0.960 . S
C578 C576 1.381 . S
C578 C579 1.394 . S
C578 H586 0.930 . S
C579 C578 1.394 . S
C579 C580 1.383 . S
C579 H587 0.929 . S
C580 C579 1.383 . S
C580 C581 1.377 . S
C581 H565 0.930 . S
C581 C580 1.377 . S
C581 C582 1.379 . S
C582 H566 0.931 . S
C582 C576 1.383 . S
C582 C581 1.379 . S
H583 C577 0.959 . S
H584 C577 0.961 . S
H585 C577 0.960 . S
H586 C578 0.930 . S
H587 C579 0.929 . S
H588 C596 0.929 . S
H589 C598 0.930 . S
H590 C600 0.930 . S
H591 C603 0.929 . S
H592 C606 0.930 . S
H593 C608 0.960 . S
H594 C608 0.960 . S
H595 C608 0.960 . S
C596 H588 0.929 . S
C596 C597 1.377 . S
C596 C598 1.384 . S
C597 C596 1.377 . S
C597 C603 1.390 . S
C598 H589 0.930 . S
C598 C596 1.384 . S
C598 C599 1.372 . S
C599 C598 1.372 . S
C599 C600 1.400 . S
C599 C604 1.490 1_554 S
C600 H590 0.930 . S
C600 C599 1.400 . S
C600 C603 1.386 . S
H601 C617 0.930 . S
H602 C618 0.931 . S
C603 H591 0.929 . S
C603 C597 1.390 . S
C603 C600 1.386 . S
C604 C599 1.490 1_556 S
C604 C606 1.395 . S
C604 C607 1.403 . S
H605 C611 0.930 . S
C606 H592 0.930 . S
C606 C604 1.395 . S
C606 C609 1.403 . S
C607 C604 1.403 . S
C607 C608 1.524 1_556 S
C607 C611 1.400 . S
C608 H593 0.960 . S
C608 H594 0.960 . S
C608 H595 0.960 . S
C608 C607 1.524 1_554 S
C609 C606 1.403 . S
C609 C610 1.392 . S
C609 C613 1.495 . S
C610 C609 1.392 . S
C610 C611 1.385 . S
C610 C612 1.478 . S
C611 H605 0.930 . S
C611 C607 1.400 . S
C611 C610 1.385 . S
C612 C610 1.478 . S
C612 C614 1.381 . S
C612 C618 1.383 . S
C613 C609 1.495 . S
C613 H619 0.959 . S
C613 H620 0.961 . S
C613 H621 0.960 . S
C614 C612 1.381 . S
C614 C615 1.394 . S
C614 H622 0.930 . S
C615 C614 1.394 . S
C615 C616 1.383 . S
C615 H623 0.929 . S
C616 C615 1.383 . S
C616 C617 1.377 . S
C617 H601 0.930 . S
C617 C616 1.377 . S
C617 C618 1.379 . S
C618 H602 0.931 . S
C618 C612 1.383 . S
C618 C617 1.379 . S
H619 C613 0.959 . S
H620 C613 0.961 . S
H621 C613 0.960 . S
H622 C614 0.930 . S
H623 C615 0.929 . S
H624 C632 0.929 . S
H625 C634 0.930 1_556 S
H626 C636 0.930 . S
H627 C639 0.929 . S
H628 C642 0.930 . S
H629 C644 0.960 . S
H630 C644 0.960 . S
H631 C644 0.960 . S
C632 H624 0.929 . S
C632 C633 1.377 . S
C632 C634 1.384 . S
C633 C632 1.377 . S
C633 C639 1.390 . S
C634 H625 0.930 1_554 S
C634 C632 1.384 . S
C634 C635 1.372 . S
C635 C634 1.372 . S
C635 C636 1.400 . S
C635 C640 1.490 1_554 S
C636 H626 0.930 . S
C636 C635 1.400 . S
C636 C639 1.386 . S
H637 C653 0.930 . S
H638 C654 0.931 . S
C639 H627 0.929 . S
C639 C633 1.390 . S
C639 C636 1.386 . S
C640 C635 1.490 1_556 S
C640 C642 1.395 . S
C640 C643 1.403 . S
H641 C647 0.930 . S
C642 H628 0.930 . S
C642 C640 1.395 . S
C642 C645 1.403 . S
C643 C640 1.403 . S
C643 C644 1.524 1_556 S
C643 C647 1.400 . S
C644 H629 0.960 . S
C644 H630 0.960 . S
C644 H631 0.960 . S
C644 C643 1.524 1_554 S
C645 C642 1.403 . S
C645 C646 1.392 . S
C645 C649 1.495 . S
C646 C645 1.392 . S
C646 C647 1.385 . S
C646 C648 1.478 . S
C647 H641 0.930 . S
C647 C643 1.400 . S
C647 C646 1.385 . S
C648 C646 1.478 . S
C648 C650 1.381 . S
C648 C654 1.383 . S
C649 C645 1.495 . S
C649 H655 0.959 . S
C649 H656 0.961 . S
C649 H657 0.960 . S
C650 C648 1.381 . S
C650 C651 1.394 . S
C650 H658 0.930 . S
C651 C650 1.394 . S
C651 C652 1.383 . S
C651 H659 0.929 . S
C652 C651 1.383 . S
C652 C653 1.377 . S
C653 H637 0.930 . S
C653 C652 1.377 . S
C653 C654 1.379 . S
C654 H638 0.931 . S
C654 C648 1.383 . S
C654 C653 1.379 . S
H655 C649 0.959 . S
H656 C649 0.961 . S
H657 C649 0.960 . S
H658 C650 0.930 . S
H659 C651 0.929 . S
H660 C668 0.929 . S
H661 C670 0.930 . S
H662 C672 0.930 . S
H663 C675 0.929 . S
H664 C678 0.930 . S
H665 C680 0.960 . S
H666 C680 0.960 . S
H667 C680 0.960 1_554 S
C668 H660 0.929 . S
C668 C669 1.377 . S
C668 C670 1.384 . S
C669 C668 1.377 . S
C669 C675 1.390 . S
C670 H661 0.930 . S
C670 C668 1.384 . S
C670 C671 1.372 . S
C671 C670 1.372 . S
C671 C672 1.400 . S
C671 C676 1.490 1_554 S
C672 H662 0.930 . S
C672 C671 1.400 . S
C672 C675 1.386 . S
H673 C689 0.930 . S
H674 C690 0.931 . S
C675 H663 0.929 . S
C675 C669 1.390 . S
C675 C672 1.386 . S
C676 C671 1.490 1_556 S
C676 C678 1.395 . S
C676 C679 1.403 . S
H677 C683 0.930 . S
C678 H664 0.930 . S
C678 C676 1.395 . S
C678 C681 1.403 . S
C679 C676 1.403 . S
C679 C680 1.524 . S
C679 C683 1.400 . S
C680 H665 0.960 . S
C680 H666 0.960 . S
C680 H667 0.960 1_556 S
C680 C679 1.524 . S
C681 C678 1.403 . S
C681 C682 1.392 . S
C681 C685 1.495 1_655 S
C682 C681 1.392 . S
C682 C683 1.385 . S
C682 C684 1.478 . S
C683 H677 0.930 . S
C683 C679 1.400 . S
C683 C682 1.385 . S
C684 C682 1.478 . S
C684 C686 1.381 . S
C684 C690 1.383 . S
C685 C681 1.495 1_455 S
C685 H691 0.959 . S
C685 H692 0.961 . S
C685 H693 0.960 . S
C686 C684 1.381 . S
C686 C687 1.394 . S
C686 H694 0.930 . S
C687 C686 1.394 . S
C687 C688 1.383 . S
C687 H695 0.940 . S
C688 C687 1.383 . S
C688 C689 1.377 . S
C689 H673 0.930 . S
C689 C688 1.377 . S
C689 C690 1.379 . S
C690 H674 0.931 . S
C690 C684 1.383 . S
C690 C689 1.379 . S
H691 C685 0.959 . S
H692 C685 0.961 . S
H693 C685 0.960 . S
H694 C686 0.930 . S
H695 C687 0.940 . S
H696 C704 0.929 . S
H697 C706 0.930 . S
H698 C708 0.930 . S
H699 C711 0.929 . S
H700 C714 0.930 . S
H701 C716 0.960 . S
H702 C716 0.960 . S
H703 C716 0.960 . S
C704 H696 0.929 . S
C704 C705 1.377 . S
C704 C706 1.384 . S
C705 C704 1.377 . S
C705 C711 1.390 . S
C706 H697 0.930 . S
C706 C704 1.384 . S
C706 C707 1.372 . S
C707 C706 1.372 . S
C707 C708 1.400 . S
C707 C712 1.490 . S
C708 H698 0.930 . S
C708 C707 1.400 . S
C708 C711 1.386 . S
H709 C725 0.930 . S
H710 C726 0.931 . S
C711 H699 0.929 . S
C711 C705 1.390 . S
C711 C708 1.386 . S
C712 C707 1.490 . S
C712 C714 1.395 . S
C712 C715 1.403 . S
H713 C719 0.930 . S
C714 H700 0.930 . S
C714 C712 1.395 . S
C714 C717 1.403 . S
C715 C712 1.403 . S
C715 C716 1.524 . S
C715 C719 1.400 . S
C716 H701 0.960 . S
C716 H702 0.960 . S
C716 H703 0.960 . S
C716 C715 1.524 . S
C717 C714 1.403 . S
C717 C718 1.392 . S
C717 C721 1.495 . S
C718 C717 1.392 . S
C718 C719 1.385 . S
C718 C720 1.478 . S
C719 H713 0.930 . S
C719 C715 1.400 . S
C719 C718 1.385 . S
C720 C718 1.478 . S
C720 C722 1.381 1_455 S
C720 C726 1.383 . S
C721 C717 1.495 . S
C721 H727 0.962 . S
C721 H728 0.961 . S
C721 H729 0.960 1_455 S
C722 C720 1.381 1_655 S
C722 C723 1.394 . S
C722 H730 0.930 . S
C723 C722 1.394 . S
C723 C724 1.415 . S
C723 H731 0.929 . S
C724 C723 1.415 . S
C724 C725 1.327 1_655 S
C725 H709 0.930 . S
C725 C724 1.327 1_455 S
C725 C726 1.379 . S
C726 H710 0.931 . S
C726 C720 1.383 . S
C726 C725 1.379 . S
H727 C721 0.962 . S
H728 C721 0.961 . S
H729 C721 0.960 1_655 S
H730 C722 0.930 . S
H731 C723 0.929 . S
H732 C740 0.929 . S
H733 C742 0.930 . S
H734 C744 0.930 . S
H735 C747 0.929 . S
H736 C750 0.930 . S
H737 C752 0.960 . S
H738 C752 0.960 . S
H739 C752 0.960 . S
C740 H732 0.929 . S
C740 C741 1.377 . S
C740 C742 1.384 . S
C741 C740 1.377 . S
C741 C747 1.390 . S
C742 H733 0.930 . S
C742 C740 1.384 . S
C742 C743 1.372 . S
C743 C742 1.372 . S
C743 C744 1.400 . S
C743 C748 1.490 . S
C744 H734 0.930 . S
C744 C743 1.400 . S
C744 C747 1.386 . S
H745 C761 0.930 . S
H746 C762 0.933 . S
C747 H735 0.929 . S
C747 C741 1.390 . S
C747 C744 1.386 . S
C748 C743 1.490 . S
C748 C750 1.395 . S
C748 C751 1.403 . S
H749 C755 0.930 . S
C750 H736 0.930 . S
C750 C748 1.395 . S
C750 C753 1.403 . S
C751 C748 1.403 . S
C751 C752 1.524 . S
C751 C755 1.400 . S
C752 H737 0.960 . S
C752 H738 0.960 . S
C752 H739 0.960 . S
C752 C751 1.524 . S
C753 C750 1.403 . S
C753 C754 1.392 . S
C753 C757 1.495 . S
C754 C753 1.392 . S
C754 C755 1.385 . S
C754 C756 1.478 . S
C755 H749 0.930 . S
C755 C751 1.400 . S
C755 C754 1.385 . S
C756 C754 1.478 . S
C756 C758 1.381 . S
C756 C762 1.378 1_545 S
C757 C753 1.495 . S
C757 H763 0.959 . S
C757 H764 0.961 1_545 S
C757 H765 0.960 . S
C758 C756 1.381 . S
C758 C759 1.394 . S
C758 H766 0.930 . S
C759 C758 1.394 . S
C759 C760 1.383 1_545 S
C759 H767 0.929 . S
C760 C759 1.383 1_565 S
C760 C761 1.377 . S
C761 H745 0.930 . S
C761 C760 1.377 . S
C761 C762 1.382 . S
C762 H746 0.933 . S
C762 C756 1.378 1_565 S
C762 C761 1.382 . S
H763 C757 0.959 . S
H764 C757 0.961 1_565 S
H765 C757 0.960 . S
H766 C758 0.930 . S
H767 C759 0.929 . S
H768 C776 0.929 . S
H769 C778 0.930 . S
H770 C780 0.930 . S
H771 C783 0.929 . S
H772 C786 0.930 . S
H773 C788 0.960 . S
H774 C788 0.960 . S
H775 C788 0.960 . S
C776 H768 0.929 . S
C776 C777 1.377 . S
C776 C778 1.384 . S
C777 C776 1.377 . S
C777 C783 1.390 . S
C778 H769 0.930 . S
C778 C776 1.384 . S
C778 C779 1.372 . S
C779 C778 1.372 . S
C779 C780 1.400 . S
C779 C784 1.490 . S
C780 H770 0.930 . S
C780 C779 1.400 . S
C780 C783 1.386 . S
H781 C797 0.930 . S
H782 C798 0.931 . S
C783 H771 0.929 . S
C783 C777 1.390 . S
C783 C780 1.386 . S
C784 C779 1.490 . S
C784 C786 1.395 . S
C784 C787 1.403 . S
H785 C791 0.930 . S
C786 H772 0.930 . S
C786 C784 1.395 . S
C786 C789 1.403 . S
C787 C784 1.403 . S
C787 C788 1.524 . S
C787 C791 1.400 . S
C788 H773 0.960 . S
C788 H774 0.960 . S
C788 H775 0.960 . S
C788 C787 1.524 . S
C789 C786 1.403 . S
C789 C790 1.392 . S
C789 C793 1.495 . S
C790 C789 1.392 . S
C790 C791 1.385 . S
C790 C792 1.478 . S
C791 H785 0.930 . S
C791 C787 1.400 . S
C791 C790 1.385 . S
C792 C790 1.478 . S
C792 C794 1.381 . S
C792 C798 1.383 . S
C793 C789 1.495 . S
C793 H799 0.959 . S
C793 H800 0.961 . S
C793 H801 0.960 . S
C794 C792 1.381 . S
C794 C795 1.394 . S
C794 H802 0.930 . S
C795 C794 1.394 . S
C795 C796 1.383 . S
C795 H803 0.929 . S
C796 C795 1.383 . S
C796 C797 1.377 . S
C797 H781 0.930 . S
C797 C796 1.377 . S
C797 C798 1.379 . S
C798 H782 0.931 . S
C798 C792 1.383 . S
C798 C797 1.379 . S
H799 C793 0.959 . S
H800 C793 0.961 . S
H801 C793 0.960 . S
H802 C794 0.930 . S
H803 C795 0.929 . S
H804 C812 0.929 . S
H805 C814 0.930 . S
H806 C816 0.930 . S
H807 C819 0.929 . S
H808 C822 0.930 . S
H809 C824 0.960 . S
H810 C824 0.960 . S
H811 C824 0.960 . S
C812 H804 0.929 . S
C812 C813 1.377 . S
C812 C814 1.384 . S
C813 C812 1.377 . S
C813 C819 1.390 . S
C814 H805 0.930 . S
C814 C812 1.384 . S
C814 C815 1.372 . S
C815 C814 1.372 . S
C815 C816 1.400 . S
C815 C820 1.490 . S
C816 H806 0.930 . S
C816 C815 1.400 . S
C816 C819 1.386 . S
H817 C833 0.930 . S
H818 C834 0.931 . S
C819 H807 0.929 . S
C819 C813 1.390 . S
C819 C816 1.386 . S
C820 C815 1.490 . S
C820 C822 1.395 . S
C820 C823 1.403 . S
H821 C827 0.930 . S
C822 H808 0.930 . S
C822 C820 1.395 . S
C822 C825 1.403 . S
C823 C820 1.403 . S
C823 C824 1.524 . S
C823 C827 1.400 . S
C824 H809 0.960 . S
C824 H810 0.960 . S
C824 H811 0.960 . S
C824 C823 1.524 . S
C825 C822 1.403 . S
C825 C826 1.392 . S
C825 C829 1.495 . S
C826 C825 1.392 . S
C826 C827 1.385 . S
C826 C828 1.478 . S
C827 H821 0.930 . S
C827 C823 1.400 . S
C827 C826 1.385 . S
C828 C826 1.478 . S
C828 C830 1.381 . S
C828 C834 1.383 . S
C829 C825 1.495 . S
C829 H835 0.959 . S
C829 H836 0.961 . S
C829 H837 0.960 . S
C830 C828 1.381 . S
C830 C831 1.394 . S
C830 H838 0.930 . S
C831 C830 1.394 . S
C831 C832 1.383 . S
C831 H839 0.929 . S
C832 C831 1.383 . S
C832 C833 1.377 . S
C833 H817 0.930 . S
C833 C832 1.377 . S
C833 C834 1.379 . S
C834 H818 0.931 . S
C834 C828 1.383 . S
C834 C833 1.379 . S
H835 C829 0.959 . S
H836 C829 0.961 . S
H837 C829 0.960 . S
H838 C830 0.930 . S
H839 C831 0.929 . S
H840 C848 0.929 . S
H841 C850 0.930 . S
H842 C852 0.930 . S
H843 C855 0.929 . S
H844 C858 0.930 . S
H845 C860 0.960 1_456 S
H846 C860 0.960 1_556 S
H847 C860 0.964 . S
C848 H840 0.929 . S
C848 C849 1.377 . S
C848 C850 1.384 . S
C849 C848 1.377 . S
C849 C855 1.390 . S
C850 H841 0.930 . S
C850 C848 1.384 . S
C850 C851 1.372 . S
C851 C850 1.372 . S
C851 C852 1.400 . S
C851 C856 1.490 . S
C852 H842 0.930 . S
C852 C851 1.400 . S
C852 C855 1.386 . S
H853 C869 0.930 . S
H854 C870 0.931 . S
C855 H843 0.929 . S
C855 C849 1.390 . S
C855 C852 1.386 . S
C856 C851 1.490 . S
C856 C858 1.395 . S
C856 C859 1.403 . S
H857 C863 0.930 1_455 S
C858 H844 0.930 . S
C858 C856 1.395 . S
C858 C861 1.403 1_554 S
C859 C856 1.403 . S
C859 C860 1.524 . S
C859 C863 1.400 1_554 S
C860 H845 0.960 1_654 S
C860 H846 0.960 1_554 S
C860 H847 0.964 . S
C860 C859 1.524 . S
C861 C858 1.403 1_556 S
C861 C862 1.392 . S
C861 C865 1.495 . S
C862 C861 1.392 . S
C862 C863 1.385 . S
C862 C864 1.478 . S
C863 H857 0.930 1_655 S
C863 C859 1.400 1_556 S
C863 C862 1.385 . S
C864 C862 1.478 . S
C864 C866 1.381 . S
C864 C870 1.383 1_655 S
C865 C861 1.495 . S
C865 H871 0.959 . S
C865 H872 0.961 . S
C865 H873 0.960 . S
C866 C864 1.381 . S
C866 C867 1.394 . S
C866 H874 0.930 . S
C867 C866 1.394 . S
C867 C868 1.383 1_655 S
C867 H875 0.929 . S
C868 C867 1.383 1_455 S
C868 C869 1.377 . S
C869 H853 0.930 . S
C869 C868 1.377 . S
C869 C870 1.379 . S
C870 H854 0.931 . S
C870 C864 1.383 1_455 S
C870 C869 1.379 . S
H871 C865 0.959 . S
H872 C865 0.961 . S
H873 C865 0.960 . S
H874 C866 0.930 . S
H875 C867 0.929 . S
H876 C884 0.929 . S
H877 C886 0.930 . S
H878 C888 0.930 . S
H879 C891 0.929 . S
H880 C894 0.930 . S
H881 C896 0.960 . S
H882 C896 0.960 . S
H883 C896 0.960 . S
C884 H876 0.929 . S
C884 C885 1.377 . S
C884 C886 1.384 . S
C885 C884 1.377 . S
C885 C891 1.390 . S
C886 H877 0.930 . S
C886 C884 1.384 . S
C886 C887 1.372 . S
C887 C886 1.372 . S
C887 C888 1.400 . S
C887 C892 1.490 . S
C888 H878 0.930 . S
C888 C887 1.400 . S
C888 C891 1.386 . S
H889 C905 0.930 . S
H890 C906 0.931 . S
C891 H879 0.929 . S
C891 C885 1.390 . S
C891 C888 1.386 . S
C892 C887 1.490 . S
C892 C894 1.395 . S
C892 C895 1.403 1_554 S
H893 C899 0.930 . S
C894 H880 0.930 . S
C894 C892 1.395 . S
C894 C897 1.403 . S
C895 C892 1.403 1_556 S
C895 C896 1.524 . S
C895 C899 1.400 . S
C896 H881 0.960 . S
C896 H882 0.960 . S
C896 H883 0.960 . S
C896 C895 1.524 . S
C897 C894 1.403 . S
C897 C898 1.392 1_554 S
C897 C901 1.495 . S
C898 C897 1.392 1_556 S
C898 C899 1.385 . S
C898 C900 1.478 . S
C899 H893 0.930 . S
C899 C895 1.400 . S
C899 C898 1.385 . S
C900 C898 1.478 . S
C900 C902 1.381 . S
C900 C906 1.383 1_565 S
C901 C897 1.495 . S
C901 H907 0.959 . S
C901 H908 0.961 1_565 S
C901 H909 0.960 . S
C902 C900 1.381 . S
C902 C903 1.394 . S
C902 H910 0.930 . S
C903 C902 1.394 . S
C903 C904 1.383 1_565 S
C903 H911 0.929 . S
C904 C903 1.383 1_545 S
C904 C905 1.377 . S
C905 H889 0.930 . S
C905 C904 1.377 . S
C905 C906 1.379 . S
C906 H890 0.931 . S
C906 C900 1.383 1_545 S
C906 C905 1.379 . S
H907 C901 0.959 . S
H908 C901 0.961 1_545 S
H909 C901 0.960 . S
H910 C902 0.930 . S
H911 C903 0.929 . S
H912 C920 0.929 . S
H913 C922 0.930 . S
H914 C924 0.930 . S
H915 C927 0.929 . S
H916 C930 0.930 . S
H917 C932 0.960 . S
H918 C932 0.960 . S
H919 C932 0.960 . S
C920 H912 0.929 . S
C920 C921 1.377 . S
C920 C922 1.384 . S
C921 C920 1.377 . S
C921 C927 1.390 . S
C922 H913 0.930 . S
C922 C920 1.384 . S
C922 C923 1.372 . S
C923 C922 1.372 . S
C923 C924 1.400 . S
C923 C928 1.490 . S
C924 H914 0.930 . S
C924 C923 1.400 . S
C924 C927 1.386 . S
H925 C941 0.930 . S
H926 C942 0.931 . S
C927 H915 0.929 . S
C927 C921 1.390 . S
C927 C924 1.386 . S
C928 C923 1.490 . S
C928 C930 1.395 . S
C928 C931 1.403 1_554 S
H929 C935 0.930 . S
C930 H916 0.930 . S
C930 C928 1.395 . S
C930 C933 1.403 . S
C931 C928 1.403 1_556 S
C931 C932 1.524 . S
C931 C935 1.400 . S
C932 H917 0.960 . S
C932 H918 0.960 . S
C932 H919 0.960 . S
C932 C931 1.524 . S
C933 C930 1.403 . S
C933 C934 1.392 1_554 S
C933 C937 1.495 . S
C934 C933 1.392 1_556 S
C934 C935 1.385 . S
C934 C936 1.478 . S
C935 H929 0.930 . S
C935 C931 1.400 . S
C935 C934 1.385 . S
C936 C934 1.478 . S
C936 C938 1.381 . S
C936 C942 1.383 . S
C937 C933 1.495 . S
C937 H943 0.959 . S
C937 H944 0.961 . S
C937 H945 0.960 . S
C938 C936 1.381 . S
C938 C939 1.394 . S
C938 H946 0.930 . S
C939 C938 1.394 . S
C939 C940 1.383 . S
C939 H947 0.929 . S
C940 C939 1.383 . S
C940 C941 1.377 . S
C941 H925 0.930 . S
C941 C940 1.377 . S
C941 C942 1.379 . S
C942 H926 0.931 . S
C942 C936 1.383 . S
C942 C941 1.379 . S
H943 C937 0.959 . S
H944 C937 0.961 . S
H945 C937 0.960 . S
H946 C938 0.930 . S
H947 C939 0.929 . S
H948 C956 0.929 . S
H949 C958 0.930 . S
H950 C960 0.930 . S
H951 C963 0.929 . S
H952 C966 0.930 . S
H953 C968 0.960 . S
H954 C968 0.960 . S
H955 C968 0.960 . S
C956 H948 0.929 . S
C956 C957 1.377 . S
C956 C958 1.384 . S
C957 C956 1.377 . S
C957 C963 1.390 . S
C958 H949 0.930 . S
C958 C956 1.384 . S
C958 C959 1.372 . S
C959 C958 1.372 . S
C959 C960 1.400 . S
C959 C964 1.490 . S
C960 H950 0.930 . S
C960 C959 1.400 . S
C960 C963 1.386 . S
H961 C977 0.930 . S
H962 C978 0.931 . S
C963 H951 0.929 . S
C963 C957 1.390 . S
C963 C960 1.386 . S
C964 C959 1.490 . S
C964 C966 1.395 . S
C964 C967 1.403 1_554 S
H965 C971 0.930 . S
C966 H952 0.930 . S
C966 C964 1.395 . S
C966 C969 1.403 . S
C967 C964 1.403 1_556 S
C967 C968 1.524 . S
C967 C971 1.400 . S
C968 H953 0.960 . S
C968 H954 0.960 . S
C968 H955 0.960 . S
C968 C967 1.524 . S
C969 C966 1.403 . S
C969 C970 1.392 1_554 S
C969 C973 1.495 . S
C970 C969 1.392 1_556 S
C970 C971 1.385 . S
C970 C972 1.478 . S
C971 H965 0.930 . S
C971 C967 1.400 . S
C971 C970 1.385 . S
C972 C970 1.478 . S
C972 C974 1.381 . S
C972 C978 1.383 . S
C973 C969 1.495 . S
C973 H979 0.959 . S
C973 H980 0.961 . S
C973 H981 0.960 . S
C974 C972 1.381 . S
C974 C975 1.394 . S
C974 H982 0.930 . S
C975 C974 1.394 . S
C975 C976 1.383 . S
C975 H983 0.929 . S
C976 C975 1.383 . S
C976 C977 1.377 . S
C977 H961 0.930 . S
C977 C976 1.377 . S
C977 C978 1.379 . S
C978 H962 0.931 . S
C978 C972 1.383 . S
C978 C977 1.379 . S
H979 C973 0.959 . S
H980 C973 0.961 . S
H981 C973 0.960 . S
H982 C974 0.930 . S
H983 C975 0.929 . S
H984 C992 0.929 . S
H985 C994 0.930 . S
H986 C996 0.930 . S
H987 C999 0.929 . S
H988 C1002 0.930 . S
H989 C1004 0.960 . S
H990 C1004 0.960 . S
H991 C1004 0.960 . S
C992 H984 0.929 . S
C992 C993 1.377 . S
C992 C994 1.384 . S
C993 C992 1.377 . S
C993 C999 1.390 . S
C994 H985 0.930 . S
C994 C992 1.384 . S
C994 C995 1.372 . S
C995 C994 1.372 . S
C995 C996 1.400 . S
C995 C1000 1.490 . S
C996 H986 0.930 . S
C996 C995 1.400 . S
C996 C999 1.386 . S
H997 C1013 0.930 . S
H998 C1014 0.931 . S
C999 H987 0.929 . S
C999 C993 1.390 . S
C999 C996 1.386 . S
C1000 C995 1.490 . S
C1000 C1002 1.395 . S
C1000 C1003 1.403 . S
H1001 C1007 0.930 . S
C1002 H988 0.930 . S
C1002 C1000 1.395 . S
C1002 C1005 1.403 . S
C1003 C1000 1.403 . S
C1003 C1004 1.524 . S
C1003 C1007 1.400 . S
C1004 H989 0.960 . S
C1004 H990 0.960 . S
C1004 H991 0.960 . S
C1004 C1003 1.524 . S
C1005 C1002 1.403 . S
C1005 C1006 1.392 . S
C1005 C1009 1.495 1_455 S
C1006 C1005 1.392 . S
C1006 C1007 1.385 . S
C1006 C1008 1.478 . S
C1007 H1001 0.930 . S
C1007 C1003 1.400 . S
C1007 C1006 1.385 . S
C1008 C1006 1.478 . S
C1008 C1010 1.381 . S
C1008 C1014 1.383 . S
C1009 C1005 1.495 1_655 S
C1009 H1015 0.959 . S
C1009 H1016 0.961 . S
C1009 H1017 0.960 . S
C1010 C1008 1.381 . S
C1010 C1011 1.394 . S
C1010 H1018 0.930 . S
C1011 C1010 1.394 . S
C1011 C1012 1.383 . S
C1011 H1019 0.929 . S
C1012 C1011 1.383 . S
C1012 C1013 1.377 . S
C1013 H997 0.930 . S
C1013 C1012 1.377 . S
C1013 C1014 1.379 . S
C1014 H998 0.931 . S
C1014 C1008 1.383 . S
C1014 C1013 1.379 . S
H1015 C1009 0.959 . S
H1016 C1009 0.961 . S
H1017 C1009 0.960 . S
H1018 C1010 0.930 . S
H1019 C1011 0.929 . S
H1020 C1028 0.929 . S
H1021 C1030 0.930 . S
H1022 C1032 0.930 . S
H1023 C1035 0.929 . S
H1024 C1038 0.930 . S
H1025 C1040 0.960 . S
H1026 C1040 0.960 . S
H1027 C1040 0.960 . S
C1028 H1020 0.929 . S
C1028 C1029 1.377 . S
C1028 C1030 1.384 . S
C1029 C1028 1.377 . S
C1029 C1035 1.390 . S
C1030 H1021 0.930 . S
C1030 C1028 1.384 . S
C1030 C1031 1.372 . S
C1031 C1030 1.372 . S
C1031 C1032 1.400 . S
C1031 C1036 1.490 . S
C1032 H1022 0.930 . S
C1032 C1031 1.400 . S
C1032 C1035 1.386 . S
H1033 C1049 0.930 . S
H1034 C1050 0.931 . S
C1035 H1023 0.929 . S
C1035 C1029 1.390 . S
C1035 C1032 1.386 . S
C1036 C1031 1.490 . S
C1036 C1038 1.395 . S
C1036 C1039 1.403 . S
H1037 C1043 0.930 . S
C1038 H1024 0.930 . S
C1038 C1036 1.395 . S
C1038 C1041 1.403 . S
C1039 C1036 1.403 . S
C1039 C1040 1.524 . S
C1039 C1043 1.400 . S
C1040 H1025 0.960 . S
C1040 H1026 0.960 . S
C1040 H1027 0.960 . S
C1040 C1039 1.524 . S
C1041 C1038 1.403 . S
C1041 C1042 1.392 . S
C1041 C1045 1.495 . S
C1042 C1041 1.392 . S
C1042 C1043 1.385 . S
C1042 C1044 1.478 . S
C1043 H1037 0.930 . S
C1043 C1039 1.400 . S
C1043 C1042 1.385 . S
C1044 C1042 1.478 . S
C1044 C1046 1.381 . S
C1044 C1050 1.383 . S
C1045 C1041 1.495 . S
C1045 H1051 0.959 1_545 S
C1045 H1052 0.961 . S
C1045 H1053 0.960 1_545 S
C1046 C1044 1.381 . S
C1046 C1047 1.394 . S
C1046 H1054 0.930 . S
C1047 C1046 1.394 . S
C1047 C1048 1.383 . S
C1047 H1055 0.892 1_545 S
C1048 C1047 1.383 . S
C1048 C1049 1.377 . S
C1049 H1033 0.930 . S
C1049 C1048 1.377 . S
C1049 C1050 1.379 . S
C1050 H1034 0.931 . S
C1050 C1044 1.383 . S
C1050 C1049 1.379 . S
H1051 C1045 0.959 1_565 S
H1052 C1045 0.961 . S
H1053 C1045 0.960 1_565 S
H1054 C1046 0.930 . S
H1055 C1047 0.892 1_565 S
H1056 C1064 0.929 . S
H1057 C1066 0.930 . S
H1058 C1068 0.930 . S
H1059 C1071 0.929 . S
H1060 C1074 0.930 . S
H1061 C1076 0.960 . S
H1062 C1076 0.960 . S
H1063 C1076 0.960 . S
C1064 H1056 0.929 . S
C1064 C1065 1.377 . S
C1064 C1066 1.384 . S
C1065 C1064 1.377 . S
C1065 C1071 1.390 . S
C1066 H1057 0.930 . S
C1066 C1064 1.384 . S
C1066 C1067 1.372 . S
C1067 C1066 1.372 . S
C1067 C1068 1.400 . S
C1067 C1072 1.490 . S
C1068 H1058 0.930 . S
C1068 C1067 1.400 . S
C1068 C1071 1.386 . S
H1069 C1085 0.930 . S
H1070 C1086 0.931 . S
C1071 H1059 0.929 . S
C1071 C1065 1.390 . S
C1071 C1068 1.386 . S
C1072 C1067 1.490 . S
C1072 C1074 1.395 . S
C1072 C1075 1.403 . S
H1073 C1079 0.930 . S
C1074 H1060 0.930 . S
C1074 C1072 1.395 . S
C1074 C1077 1.403 . S
C1075 C1072 1.403 . S
C1075 C1076 1.524 . S
C1075 C1079 1.400 . S
C1076 H1061 0.960 . S
C1076 H1062 0.960 . S
C1076 H1063 0.960 . S
C1076 C1075 1.524 . S
C1077 C1074 1.403 . S
C1077 C1078 1.392 . S
C1077 C1081 1.495 . S
C1078 C1077 1.392 . S
C1078 C1079 1.385 . S
C1078 C1080 1.478 . S
C1079 H1073 0.930 . S
C1079 C1075 1.400 . S
C1079 C1078 1.385 . S
C1080 C1078 1.478 . S
C1080 C1082 1.381 . S
C1080 C1086 1.383 . S
C1081 C1077 1.495 . S
C1081 H1087 0.959 . S
C1081 H1088 0.961 . S
C1081 H1089 0.960 . S
C1082 C1080 1.381 . S
C1082 C1083 1.394 . S
C1082 H1090 0.930 . S
C1083 C1082 1.394 . S
C1083 C1084 1.383 . S
C1083 H1091 0.929 . S
C1084 C1083 1.383 . S
C1084 C1085 1.377 . S
C1085 H1069 0.930 . S
C1085 C1084 1.377 . S
C1085 C1086 1.379 . S
C1086 H1070 0.931 . S
C1086 C1080 1.383 . S
C1086 C1085 1.379 . S
H1087 C1081 0.959 . S
H1088 C1081 0.961 . S
H1089 C1081 0.960 . S
H1090 C1082 0.930 . S
H1091 C1083 0.929 . S
H1092 C1100 0.929 . S
H1093 C1102 0.930 . S
H1094 C1104 0.930 . S
H1095 C1107 0.929 . S
H1096 C1110 0.930 . S
H1097 C1112 0.960 . S
H1098 C1112 0.960 . S
H1099 C1112 0.960 . S
C1100 H1092 0.929 . S
C1100 C1101 1.377 . S
C1100 C1102 1.384 . S
C1101 C1100 1.377 . S
C1101 C1107 1.390 . S
C1102 H1093 0.930 . S
C1102 C1100 1.384 . S
C1102 C1103 1.372 . S
C1103 C1102 1.372 . S
C1103 C1104 1.400 . S
C1103 C1108 1.490 . S
C1104 H1094 0.930 . S
C1104 C1103 1.400 . S
C1104 C1107 1.386 . S
H1105 C1121 0.930 . S
H1106 C1122 0.931 . S
C1107 H1095 0.929 . S
C1107 C1101 1.390 . S
C1107 C1104 1.386 . S
C1108 C1103 1.490 . S
C1108 C1110 1.395 . S
C1108 C1111 1.403 . S
H1109 C1115 0.930 . S
C1110 H1096 0.930 . S
C1110 C1108 1.395 . S
C1110 C1113 1.403 . S
C1111 C1108 1.403 . S
C1111 C1112 1.524 . S
C1111 C1115 1.400 . S
C1112 H1097 0.960 . S
C1112 H1098 0.960 . S
C1112 H1099 0.960 . S
C1112 C1111 1.524 . S
C1113 C1110 1.403 . S
C1113 C1114 1.392 . S
C1113 C1117 1.495 . S
C1114 C1113 1.392 . S
C1114 C1115 1.385 . S
C1114 C1116 1.478 . S
C1115 H1109 0.930 . S
C1115 C1111 1.400 . S
C1115 C1114 1.385 . S
C1116 C1114 1.478 . S
C1116 C1118 1.381 . S
C1116 C1122 1.383 . S
C1117 C1113 1.495 . S
C1117 H1123 0.959 . S
C1117 H1124 0.961 . S
C1117 H1125 0.960 . S
C1118 C1116 1.381 . S
C1118 C1119 1.394 . S
C1118 H1126 0.930 . S
C1119 C1118 1.394 . S
C1119 C1120 1.383 . S
C1119 H1127 0.929 . S
C1120 C1119 1.383 . S
C1120 C1121 1.377 . S
C1121 H1105 0.930 . S
C1121 C1120 1.377 . S
C1121 C1122 1.379 . S
C1122 H1106 0.931 . S
C1122 C1116 1.383 . S
C1122 C1121 1.379 . S
H1123 C1117 0.959 . S
H1124 C1117 0.961 . S
H1125 C1117 0.960 . S
H1126 C1118 0.930 . S
H1127 C1119 0.929 . S
H1128 C1136 0.929 . S
H1129 C1138 0.930 . S
H1130 C1140 0.930 . S
H1131 C1143 0.929 . S
H1132 C1146 0.930 . S
H1133 C1148 0.960 . S
H1134 C1148 0.960 . S
H1135 C1148 0.960 . S
C1136 H1128 0.929 . S
C1136 C1137 1.377 . S
C1136 C1138 1.384 . S
C1137 C1136 1.377 . S
C1137 C1143 1.390 . S
C1138 H1129 0.930 . S
C1138 C1136 1.384 . S
C1138 C1139 1.372 . S
C1139 C1138 1.372 . S
C1139 C1140 1.400 . S
C1139 C1144 1.490 . S
C1140 H1130 0.930 . S
C1140 C1139 1.400 . S
C1140 C1143 1.386 . S
H1141 C1157 0.930 . S
H1142 C1158 0.931 . S
C1143 H1131 0.929 . S
C1143 C1137 1.390 . S
C1143 C1140 1.386 . S
C1144 C1139 1.490 . S
C1144 C1146 1.395 . S
C1144 C1147 1.403 . S
H1145 C1151 0.930 . S
C1146 H1132 0.930 . S
C1146 C1144 1.395 . S
C1146 C1149 1.403 . S
C1147 C1144 1.403 . S
C1147 C1148 1.524 . S
C1147 C1151 1.400 . S
C1148 H1133 0.960 . S
C1148 H1134 0.960 . S
C1148 H1135 0.960 . S
C1148 C1147 1.524 . S
C1149 C1146 1.403 . S
C1149 C1150 1.392 . S
C1149 C1153 1.495 . S
C1150 C1149 1.392 . S
C1150 C1151 1.385 . S
C1150 C1152 1.478 . S
C1151 H1145 0.930 . S
C1151 C1147 1.400 . S
C1151 C1150 1.385 . S
C1152 C1150 1.478 . S
C1152 C1154 1.381 . S
C1152 C1158 1.383 . S
C1153 C1149 1.495 . S
C1153 H1159 0.959 . S
C1153 H1160 0.961 . S
C1153 H1161 0.960 . S
C1154 C1152 1.381 . S
C1154 C1155 1.394 . S
C1154 H1162 0.930 1_655 S
C1155 C1154 1.394 . S
C1155 C1156 1.383 . S
C1155 H1163 0.929 1_655 S
C1156 C1155 1.383 . S
C1156 C1157 1.377 . S
C1157 H1141 0.930 . S
C1157 C1156 1.377 . S
C1157 C1158 1.379 . S
C1158 H1142 0.931 . S
C1158 C1152 1.383 . S
C1158 C1157 1.379 . S
H1159 C1153 0.959 . S
H1160 C1153 0.961 . S
H1161 C1153 0.960 . S
H1162 C1154 0.930 1_455 S
H1163 C1155 0.929 1_455 S
H1164 C1172 0.929 . S
H1165 C1174 0.930 . S
H1166 C1176 0.930 . S
H1167 C1179 0.929 . S
H1168 C1182 0.930 . S
H1169 C1184 0.960 . S
H1170 C1184 0.960 . S
H1171 C1184 0.960 . S
C1172 H1164 0.929 . S
C1172 C1173 1.377 . S
C1172 C1174 1.384 . S
C1173 C1172 1.377 . S
C1173 C1179 1.390 . S
C1174 H1165 0.930 . S
C1174 C1172 1.384 . S
C1174 C1175 1.372 . S
C1175 C1174 1.372 . S
C1175 C1176 1.400 . S
C1175 C1180 1.490 . S
C1176 H1166 0.930 . S
C1176 C1175 1.400 . S
C1176 C1179 1.386 . S
H1177 C1193 0.930 1_545 S
H1178 C1194 0.931 1_545 S
C1179 H1167 0.929 . S
C1179 C1173 1.390 . S
C1179 C1176 1.386 . S
C1180 C1175 1.490 . S
C1180 C1182 1.395 . S
C1180 C1183 1.403 . S
H1181 C1187 0.930 . S
C1182 H1168 0.930 . S
C1182 C1180 1.395 . S
C1182 C1185 1.403 . S
C1183 C1180 1.403 . S
C1183 C1184 1.524 . S
C1183 C1187 1.400 . S
C1184 H1169 0.960 . S
C1184 H1170 0.960 . S
C1184 H1171 0.960 . S
C1184 C1183 1.524 . S
C1185 C1182 1.403 . S
C1185 C1186 1.392 . S
C1185 C1189 1.495 . S
C1186 C1185 1.392 . S
C1186 C1187 1.385 . S
C1186 C1188 1.478 . S
C1187 H1181 0.930 . S
C1187 C1183 1.400 . S
C1187 C1186 1.385 . S
C1188 C1186 1.478 . S
C1188 C1190 1.381 . S
C1188 C1194 1.383 . S
C1189 C1185 1.495 . S
C1189 H1195 0.959 . S
C1189 H1196 0.961 . S
C1189 H1197 0.960 . S
C1190 C1188 1.381 . S
C1190 C1191 1.394 . S
C1190 H1198 0.930 . S
C1191 C1190 1.394 . S
C1191 C1192 1.383 . S
C1191 H1199 0.929 . S
C1192 C1191 1.383 . S
C1192 C1193 1.377 . S
C1193 H1177 0.930 1_565 S
C1193 C1192 1.377 . S
C1193 C1194 1.379 . S
C1194 H1178 0.931 1_565 S
C1194 C1188 1.383 . S
C1194 C1193 1.379 . S
H1195 C1189 0.959 . S
H1196 C1189 0.961 . S
H1197 C1189 0.960 . S
H1198 C1190 0.930 . S
H1199 C1191 0.929 . S
H1200 C1208 0.929 . S
H1201 C1210 0.930 . S
H1202 C1212 0.930 . S
H1203 C1215 0.929 . S
H1204 C1218 0.930 . S
H1205 C1220 0.960 . S
H1206 C1220 0.960 . S
H1207 C1220 0.960 . S
C1208 H1200 0.929 . S
C1208 C1209 1.377 . S
C1208 C1210 1.384 . S
C1209 C1208 1.377 . S
C1209 C1215 1.390 . S
C1210 H1201 0.930 . S
C1210 C1208 1.384 . S
C1210 C1211 1.372 . S
C1211 C1210 1.372 . S
C1211 C1212 1.400 . S
C1211 C1216 1.490 . S
C1212 H1202 0.930 . S
C1212 C1211 1.400 . S
C1212 C1215 1.386 . S
H1213 C1229 0.930 . S
H1214 C1230 0.931 . S
C1215 H1203 0.929 . S
C1215 C1209 1.390 . S
C1215 C1212 1.386 . S
C1216 C1211 1.490 . S
C1216 C1218 1.395 . S
C1216 C1219 1.403 . S
H1217 C1223 0.930 . S
C1218 H1204 0.930 . S
C1218 C1216 1.395 . S
C1218 C1221 1.403 . S
C1219 C1216 1.403 . S
C1219 C1220 1.524 . S
C1219 C1223 1.400 . S
C1220 H1205 0.960 . S
C1220 H1206 0.960 . S
C1220 H1207 0.960 . S
C1220 C1219 1.524 . S
C1221 C1218 1.403 . S
C1221 C1222 1.392 . S
C1221 C1225 1.495 . S
C1222 C1221 1.392 . S
C1222 C1223 1.385 . S
C1222 C1224 1.478 . S
C1223 H1217 0.930 . S
C1223 C1219 1.400 . S
C1223 C1222 1.385 . S
C1224 C1222 1.478 . S
C1224 C1226 1.381 . S
C1224 C1230 1.383 . S
C1225 C1221 1.495 . S
C1225 H1231 0.959 . S
C1225 H1232 0.961 . S
C1225 H1233 0.960 . S
C1226 C1224 1.381 . S
C1226 C1227 1.394 . S
C1226 H1234 0.930 . S
C1227 C1226 1.394 . S
C1227 C1228 1.383 . S
C1227 H1235 0.929 . S
C1228 C1227 1.383 . S
C1228 C1229 1.377 . S
C1229 H1213 0.930 . S
C1229 C1228 1.377 . S
C1229 C1230 1.379 . S
C1230 H1214 0.931 . S
C1230 C1224 1.383 . S
C1230 C1229 1.379 . S
H1231 C1225 0.959 . S
H1232 C1225 0.961 . S
H1233 C1225 0.960 . S
H1234 C1226 0.930 . S
H1235 C1227 0.929 . S
H1236 C1244 0.929 . S
H1237 C1246 0.930 . S
H1238 C1248 0.930 . S
H1239 C1251 0.929 . S
H1240 C1254 0.930 . S
H1241 C1256 0.960 . S
H1242 C1256 0.960 . S
H1243 C1256 0.960 . S
C1244 H1236 0.929 . S
C1244 C1245 1.377 . S
C1244 C1246 1.384 . S
C1245 C1244 1.377 . S
C1245 C1251 1.390 . S
C1246 H1237 0.930 . S
C1246 C1244 1.384 . S
C1246 C1247 1.372 . S
C1247 C1246 1.372 . S
C1247 C1248 1.400 . S
C1247 C1252 1.490 . S
C1248 H1238 0.930 . S
C1248 C1247 1.400 . S
C1248 C1251 1.386 . S
H1249 C1265 0.930 . S
H1250 C1266 0.931 . S
C1251 H1239 0.929 . S
C1251 C1245 1.390 . S
C1251 C1248 1.386 . S
C1252 C1247 1.490 . S
C1252 C1254 1.395 . S
C1252 C1255 1.403 . S
H1253 C1259 0.930 . S
C1254 H1240 0.930 . S
C1254 C1252 1.395 . S
C1254 C1257 1.403 . S
C1255 C1252 1.403 . S
C1255 C1256 1.524 . S
C1255 C1259 1.400 . S
C1256 H1241 0.960 . S
C1256 H1242 0.960 . S
C1256 H1243 0.960 . S
C1256 C1255 1.524 . S
C1257 C1254 1.403 . S
C1257 C1258 1.392 . S
C1257 C1261 1.495 . S
C1258 C1257 1.392 . S
C1258 C1259 1.385 . S
C1258 C1260 1.478 . S
C1259 H1253 0.930 . S
C1259 C1255 1.400 . S
C1259 C1258 1.385 . S
C1260 C1258 1.478 . S
C1260 C1262 1.381 . S
C1260 C1266 1.383 . S
C1261 C1257 1.495 . S
C1261 H1267 0.959 . S
C1261 H1268 0.961 . S
C1261 H1269 0.960 . S
C1262 C1260 1.381 . S
C1262 C1263 1.394 . S
C1262 H1270 0.930 . S
C1263 C1262 1.394 . S
C1263 C1264 1.383 . S
C1263 H1271 0.929 . S
C1264 C1263 1.383 . S
C1264 C1265 1.377 . S
C1265 H1249 0.930 . S
C1265 C1264 1.377 . S
C1265 C1266 1.379 . S
C1266 H1250 0.931 . S
C1266 C1260 1.383 . S
C1266 C1265 1.379 . S
H1267 C1261 0.959 . S
H1268 C1261 0.961 . S
H1269 C1261 0.960 . S
H1270 C1262 0.930 . S
H1271 C1263 0.929 . S
C417 C61 1.708 . S
C436 C146 1.772 . S
C472 C230 1.796 . S
C453 C70 1.749 . S
C508 C296 1.819 . S
C489 C43 1.856 . S
C544 C380 1.763 . S
C525 C52 1.840 . S
C580 C135 1.750 1_565 S
C561 C25 1.717 . S
C597 C34 1.755 . S
C616 C219 1.800 . S
C633 C7 1.863 . S
C652 C307 1.820 . S
C669 C16 1.836 . S
C688 C391 1.774 . S
C724 C142 0.448 . S
C705 C50 0.401 . S
C760 C226 0.409 . S
C741 C59 0.391 . S
C796 C298 0.395 . S
C777 C67 0.337 . S
C813 C41 0.382 . S
C832 C382 0.584 . S
C849 C14 0.394 . S
C868 C130 0.524 . S
C904 C214 0.405 . S
C885 C23 0.371 . S
C940 C310 0.396 . S
C921 C31 0.357 . S
C957 C5 0.370 . S
C976 C394 0.418 . S
C993 C49 1.892 . S
C1012 C139 1.940 . S
C1029 C58 1.853 . S
C1048 C223 1.895 . S
C1084 C303 1.877 . S
C1065 C68 1.744 . S
C1120 C387 1.884 . S
C1101 C40 1.765 . S
C1137 C13 1.904 . S
C1156 C128 1.967 . S
C1192 C212 1.903 . S
C1173 C22 1.860 . S
C1228 C314 1.850 . S
C1209 C32 1.749 . S
C1245 C4 1.777 . S
C1264 C398 1.886 . S
