# Generated by pormake.
# Topology pyr, (3,6)-cn, num edge types: 1
# Building blocks:
#     Node 0, Type 0, BuildingBlock: BELTOD_clean_linker_0, # of connection points: 3
#     Node 1, Type 0, BuildingBlock: BELTOD_clean_linker_0, # of connection points: 3
#     Node 2, Type 0, BuildingBlock: BELTOD_clean_linker_0, # of connection points: 3
#     Node 3, Type 0, BuildingBlock: BELTOD_clean_linker_0, # of connection points: 3
#     Node 4, Type 0, BuildingBlock: BELTOD_clean_linker_0, # of connection points: 3
#     Node 5, Type 0, BuildingBlock: BELTOD_clean_linker_0, # of connection points: 3
#     Node 6, Type 0, BuildingBlock: BELTOD_clean_linker_0, # of connection points: 3
#     Node 7, Type 0, BuildingBlock: BELTOD_clean_linker_0, # of connection points: 3
#     Node 8, Type 1, BuildingBlock: BETDEL_clean_sbu_0, # of connection points: 6
#     Node 9, Type 1, BuildingBlock: BETDEL_clean_sbu_0, # of connection points: 6
#     Node 10, Type 1, BuildingBlock: BETDEL_clean_sbu_0, # of connection points: 6
#     Node 11, Type 1, BuildingBlock: BETDEL_clean_sbu_0, # of connection points: 6
#     Edge 12, Type (0, 1), None
#     Edge 13, Type (0, 1), None
#     Edge 14, Type (0, 1), None
#     Edge 15, Type (0, 1), None
#     Edge 16, Type (0, 1), None
#     Edge 17, Type (0, 1), None
#     Edge 18, Type (0, 1), None
#     Edge 19, Type (0, 1), None
#     Edge 20, Type (0, 1), None
#     Edge 21, Type (0, 1), None
#     Edge 22, Type (0, 1), None
#     Edge 23, Type (0, 1), None
#     Edge 24, Type (0, 1), None
#     Edge 25, Type (0, 1), None
#     Edge 26, Type (0, 1), None
#     Edge 27, Type (0, 1), None
#     Edge 28, Type (0, 1), None
#     Edge 29, Type (0, 1), None
#     Edge 30, Type (0, 1), None
#     Edge 31, Type (0, 1), None
#     Edge 32, Type (0, 1), None
#     Edge 33, Type (0, 1), None
#     Edge 34, Type (0, 1), None
#     Edge 35, Type (0, 1), None
# Relax obj value: 0.053
# Max RMSD: 0.103
# Mean RMSD: 0.046
data_MOF--net-pyr--node1-BETDEL_clean_sbu_0--node2-BELTOD_clean_linker_0--edge1-none
_symmetry_space_group_name_H-M    P1
_symmetry_Int_Tables_number       1
_symmetry_cell_setting            triclinic
loop_
_symmetry_equiv_pos_as_xyz
'x, y, z'
_cell_length_a     21.222105
_cell_length_b     22.824809
_cell_length_c     20.754854
_cell_angle_alpha  91.594809
_cell_angle_beta   88.692528
_cell_angle_gamma 97.393524
loop_
_atom_site_label
_atom_site_type_symbol
_atom_site_fract_x
_atom_site_fract_y
_atom_site_fract_z
_atom_type_partial_charge
P0 P 0.29937 0.27401 0.23846 0.0
H1 H 0.4276 0.24248 0.24323 0.0
H2 H 0.47627 0.1619 0.19223 0.0
H3 H 0.30499 0.10888 0.08455 0.0
H4 H 0.25684 0.18966 0.13608 0.0
H5 H 0.19707 0.34071 0.27391 0.0
H6 H 0.10991 0.36599 0.2099 0.0
H7 H 0.21149 0.32511 0.03517 0.0
H8 H 0.29818 0.29787 0.09958 0.0
H9 H 0.3107 0.21193 0.35714 0.0
H10 H 0.17093 0.21865 0.21011 0.0
O11 O 0.34747 0.31726 0.28748 0.0
H12 H 0.24239 0.1298 0.40605 0.0
H13 H 0.10242 0.13904 0.25981 0.0
C14 C 0.33982 0.22342 0.19148 0.0
C15 C 0.40117 0.21435 0.20763 0.0
C16 C 0.42834 0.16753 0.17913 0.0
C17 C 0.39415 0.12879 0.13448 0.0
C18 C 0.33236 0.13776 0.11887 0.0
C19 C 0.30533 0.18464 0.14745 0.0
C20 C 0.25289 0.3159 0.19139 0.0
C21 C 0.20113 0.33817 0.22179 0.0
C22 C 0.15061 0.35069 0.1854 0.0
C23 C 0.15291 0.34377 0.1181 0.0
C24 C 0.20786 0.32785 0.0873 0.0
C25 C 0.25772 0.31357 0.12394 0.0
C26 C 0.24457 0.22349 0.28223 0.0
C27 C 0.26475 0.19705 0.33663 0.0
C28 C 0.22635 0.1496 0.36355 0.0
C29 C 0.16766 0.1284 0.33595 0.0
C30 C 0.14761 0.15476 0.28157 0.0
C31 C 0.18626 0.20143 0.2543 0.0
P32 P 0.34178 0.88415 0.59805 0.0
H33 H 0.42511 0.98678 0.64587 0.0
H34 H 0.443 0.02866 0.75405 0.0
H35 H 0.30669 0.89039 0.83225 0.0
H36 H 0.28926 0.84793 0.723 0.0
H37 H 0.46819 0.85175 0.59829 0.0
H38 H 0.51015 0.75739 0.60222 0.0
H39 H 0.3188 0.66593 0.60445 0.0
H40 H 0.27679 0.76143 0.60269 0.0
H41 H 0.25006 0.95602 0.65672 0.0
H42 H 0.2537 0.82515 0.50268 0.0
O43 O 0.38489 0.9258 0.54404 0.0
H44 H 0.14699 0.97637 0.62421 0.0
H45 H 0.14956 0.84712 0.46845 0.0
C46 C 0.35654 0.91414 0.67713 0.0
C47 C 0.39891 0.96557 0.68609 0.0
C48 C 0.40839 0.98976 0.74771 0.0
C49 C 0.37537 0.96287 0.80084 0.0
C50 C 0.33158 0.91225 0.79165 0.0
C51 C 0.32263 0.88759 0.72981 0.0
C52 C 0.36953 0.81322 0.59785 0.0
C53 C 0.43519 0.81138 0.59962 0.0
C54 C 0.4591 0.75752 0.60283 0.0
C55 C 0.41763 0.70447 0.60386 0.0
C56 C 0.35167 0.70637 0.60384 0.0
C57 C 0.32768 0.76067 0.60179 0.0
C58 C 0.25933 0.88765 0.58309 0.0
C59 C 0.22778 0.92957 0.61748 0.0
C60 C 0.16836 0.94154 0.59879 0.0
C61 C 0.14032 0.91334 0.54392 0.0
C62 C 0.1702 0.86918 0.51133 0.0
C63 C 0.2296 0.85659 0.53071 0.0
P64 P 0.68055 0.30271 0.80713 0.0
H65 H 0.79193 0.26209 0.86263 0.0
H66 H 0.88089 0.31211 0.92451 0.0
H67 H 0.7928 0.47273 0.92773 0.0
H68 H 0.70363 0.42207 0.86719 0.0
H69 H 0.699 0.18144 0.83281 0.0
H70 H 0.64177 0.10386 0.89838 0.0
H71 H 0.50536 0.22126 0.95519 0.0
H72 H 0.56461 0.30006 0.89135 0.0
H73 H 0.73167 0.40243 0.73035 0.0
H74 H 0.54446 0.31773 0.78088 0.0
O75 O 0.71786 0.26686 0.74974 0.0
H76 H 0.68552 0.46454 0.65465 0.0
H77 H 0.498 0.38196 0.70663 0.0
C78 C 0.74197 0.3388 0.85875 0.0
C79 C 0.79149 0.30793 0.8773 0.0
C80 C 0.84226 0.33649 0.91295 0.0
C81 C 0.84452 0.39663 0.93036 0.0
C82 C 0.7931 0.42655 0.91436 0.0
C83 C 0.74202 0.39771 0.87946 0.0
C84 C 0.63445 0.24598 0.85444 0.0
C85 C 0.65659 0.19071 0.85907 0.0
C86 C 0.62435 0.1464 0.89729 0.0
C87 C 0.56885 0.15626 0.93156 0.0
C88 C 0.54782 0.21226 0.92876 0.0
C89 C 0.58101 0.2571 0.89148 0.0
C90 C 0.64183 0.35612 0.76317 0.0
C91 C 0.68042 0.3987 0.72726 0.0
C92 C 0.65404 0.43448 0.68396 0.0
C93 C 0.58807 0.42944 0.67603 0.0
C94 C 0.54893 0.38816 0.71331 0.0
C95 C 0.57557 0.35135 0.75597 0.0
P96 P 0.81639 0.67924 0.29192 0.0
H97 H 0.85576 0.79947 0.24608 0.0
H98 H 0.90759 0.88991 0.29898 0.0
H99 H 0.93664 0.79071 0.46733 0.0
H100 H 0.888 0.69983 0.41296 0.0
H101 H 0.86809 0.68732 0.15944 0.0
H102 H 0.92588 0.62221 0.0902 0.0
H103 H 0.92555 0.50201 0.24697 0.0
H104 H 0.86839 0.56737 0.316 0.0
H105 H 0.77117 0.71587 0.42132 0.0
H106 H 0.73643 0.56338 0.29371 0.0
O107 O 0.76759 0.70571 0.24136 0.0
H108 H 0.69183 0.6712 0.49707 0.0
H109 H 0.65223 0.52027 0.36804 0.0
C110 C 0.86604 0.74296 0.32627 0.0
C111 C 0.87421 0.79686 0.29397 0.0
C112 C 0.90374 0.84868 0.32426 0.0
C113 C 0.9246 0.84773 0.38792 0.0
C114 C 0.91971 0.79309 0.41874 0.0
C115 C 0.89218 0.74101 0.38757 0.0
C116 C 0.86276 0.63193 0.2429 0.0
C117 C 0.88046 0.6469 0.179 0.0
C118 C 0.91339 0.60954 0.13916 0.0
C119 C 0.92958 0.55631 0.16244 0.0
C120 C 0.91322 0.5423 0.22704 0.0
C121 C 0.88053 0.57974 0.26684 0.0
C122 C 0.76344 0.64171 0.35285 0.0
C123 C 0.74866 0.67169 0.41034 0.0
C124 C 0.70206 0.64635 0.45369 0.0
C125 C 0.66623 0.59166 0.43931 0.0
C126 C 0.6798 0.56196 0.38123 0.0
C127 C 0.72819 0.58654 0.33875 0.0
P128 P 0.78097 0.84494 0.90192 0.0
H129 H 0.70125 0.80254 0.00895 0.0
H130 H 0.60271 0.83972 0.04166 0.0
H131 H 0.57742 0.89216 0.84696 0.0
H132 H 0.67558 0.85444 0.81384 0.0
H133 H 0.91257 0.84257 0.92911 0.0
H134 H 0.97525 0.76118 0.94251 0.0
H135 H 0.80415 0.63664 0.92837 0.0
H136 H 0.74202 0.71806 0.9134 0.0
H137 H 0.7725 0.9526 0.83541 0.0
H138 H 0.83877 0.78412 0.79334 0.0
O139 O 0.80375 0.90193 0.95181 0.0
H140 H 0.81803 0.98947 0.7331 0.0
H141 H 0.88661 0.82169 0.69221 0.0
C142 C 0.6969 0.82865 0.91005 0.0
C143 C 0.67232 0.81804 0.97225 0.0
C144 C 0.61602 0.83921 0.99091 0.0
C145 C 0.58474 0.87023 0.9469 0.0
C146 C 0.60176 0.86874 0.88149 0.0
C147 C 0.65835 0.84774 0.86287 0.0
C148 C 0.82283 0.78592 0.92225 0.0
C149 C 0.88861 0.79771 0.93009 0.0
C150 C 0.92433 0.75145 0.93685 0.0
C151 C 0.8942 0.69324 0.93625 0.0
C152 C 0.82812 0.68153 0.92912 0.0
C153 C 0.79257 0.72781 0.92133 0.0
C154 C 0.80433 0.86666 0.82248 0.0
C155 C 0.79652 0.92358 0.8039 0.0
C156 C 0.82238 0.94442 0.74568 0.0
C157 C 0.85689 0.90857 0.70628 0.0
C158 C 0.86094 0.85016 0.72279 0.0
C159 C 0.83392 0.82893 0.78057 0.0
P160 P 0.81548 0.24167 0.31207 0.0
H161 H 0.81871 0.35198 0.38551 0.0
H162 H 0.73576 0.40858 0.42661 0.0
H163 H 0.59171 0.27184 0.35709 0.0
H164 H 0.67511 0.21463 0.31691 0.0
H165 H 0.91383 0.16655 0.29353 0.0
H166 H 0.94958 0.09141 0.36019 0.0
H167 H 0.83517 0.14653 0.51976 0.0
H168 H 0.79577 0.21928 0.4512 0.0
H169 H 0.77355 0.26242 0.18365 0.0
H170 H 0.77616 0.11334 0.307 0.0
O171 O 0.87107 0.29072 0.27898 0.0
H172 H 0.70822 0.19887 0.10719 0.0
H173 H 0.71439 0.04987 0.22963 0.0
C174 C 0.75335 0.27971 0.3473 0.0
C175 C 0.76938 0.33399 0.3794 0.0
C176 C 0.72183 0.36628 0.40263 0.0
C177 C 0.65731 0.34482 0.39406 0.0
C178 C 0.64107 0.2896 0.3635 0.0
C179 C 0.68887 0.25698 0.34066 0.0
C180 C 0.85239 0.19845 0.36755 0.0
C181 C 0.89725 0.16318 0.34322 0.0
C182 C 0.91736 0.12002 0.38112 0.0
C183 C 0.895 0.11318 0.44484 0.0
C184 C 0.85283 0.15087 0.47051 0.0
C185 C 0.83081 0.19278 0.43167 0.0
C186 C 0.7811 0.19246 0.2501 0.0
C187 C 0.76237 0.21575 0.193 0.0
C188 C 0.7252 0.17957 0.14957 0.0
C189 C 0.70725 0.11973 0.16273 0.0
C190 C 0.72887 0.09572 0.2181 0.0
C191 C 0.76453 0.13216 0.26224 0.0
P192 P 0.37884 0.67376 0.15622 0.0
H193 H 0.31356 0.68366 0.03497 0.0
H194 H 0.20821 0.64343 0.99625 0.0
H195 H 0.16434 0.56162 0.17942 0.0
H196 H 0.26774 0.60577 0.21998 0.0
H197 H 0.48074 0.75351 0.21666 0.0
H198 H 0.52147 0.85698 0.1999 0.0
H199 H 0.36398 0.87414 0.07706 0.0
H200 H 0.32122 0.77175 0.09702 0.0
H201 H 0.42364 0.55947 0.17444 0.0
H202 H 0.37503 0.70284 0.29713 0.0
O203 O 0.42574 0.65168 0.09721 0.0
H204 H 0.45309 0.5076 0.26845 0.0
H205 H 0.40393 0.65087 0.39208 0.0
C206 C 0.29836 0.64898 0.13099 0.0
C207 C 0.28039 0.65914 0.06786 0.0
C208 C 0.22026 0.63601 0.04555 0.0
C209 C 0.17809 0.59999 0.08506 0.0
C210 C 0.19589 0.58984 0.14826 0.0
C211 C 0.25511 0.61492 0.1714 0.0
C212 C 0.39739 0.75399 0.15891 0.0
C213 C 0.45338 0.77989 0.18826 0.0
C214 C 0.47693 0.83922 0.1781 0.0
C215 C 0.44604 0.87383 0.13678 0.0
C216 C 0.38888 0.84871 0.10905 0.0
C217 C 0.36453 0.78962 0.12051 0.0
C218 C 0.39855 0.63597 0.22821 0.0
C219 C 0.41938 0.58 0.22172 0.0
C220 C 0.43598 0.55003 0.27581 0.0
C221 C 0.43136 0.57477 0.33832 0.0
C222 C 0.40825 0.63012 0.3449 0.0
C223 C 0.39196 0.66027 0.29051 0.0
P224 P 0.1984 0.31912 0.71083 0.0
H225 H 0.1687 0.19437 0.74571 0.0
H226 H 0.11223 0.10736 0.69121 0.0
H227 H 0.06159 0.21742 0.53989 0.0
H228 H 0.11626 0.30504 0.59609 0.0
H229 H 0.29015 0.42679 0.72162 0.0
H230 H 0.37632 0.47119 0.65039 0.0
H231 H 0.31614 0.34161 0.50167 0.0
H232 H 0.23293 0.29611 0.57319 0.0
H233 H 0.13988 0.30476 0.84016 0.0
H234 H 0.15591 0.43655 0.6941 0.0
O235 O 0.24636 0.2908 0.76082 0.0
H236 H 0.08509 0.36958 0.91278 0.0
H237 H 0.10177 0.5015 0.76645 0.0
C238 C 0.14829 0.25647 0.67435 0.0
C239 C 0.14486 0.20021 0.70123 0.0
C240 C 0.11239 0.15023 0.67002 0.0
C241 C 0.08321 0.15518 0.61065 0.0
C242 C 0.08436 0.2119 0.58511 0.0
C243 C 0.11546 0.26213 0.61731 0.0
C244 C 0.25277 0.35911 0.65267 0.0
C245 C 0.29441 0.4088 0.6731 0.0
C246 C 0.34401 0.43404 0.63238 0.0
C247 C 0.35308 0.41024 0.57001 0.0
C248 C 0.31033 0.36158 0.54904 0.0
C249 C 0.26167 0.33577 0.59013 0.0
C250 C 0.15288 0.36587 0.76162 0.0
C251 C 0.13164 0.34766 0.82361 0.0
C252 C 0.10068 0.38495 0.86549 0.0
C253 C 0.08999 0.44135 0.84621 0.0
C254 C 0.10972 0.45864 0.78335 0.0
C255 C 0.14065 0.4214 0.7416 0.0
Dy256 Dy 0.04141 0.02017 0.44643 0.0
C257 C 0.89215 0.93393 0.6509 0.0
C258 C 0.1252 0.0827 0.36761 0.0
Dy259 Dy 0.96235 0.98597 0.55345 0.0
O260 O 0.13935 0.05926 0.4203 0.0
O261 O 0.06514 0.06966 0.35563 0.0
O262 O 0.0858 0.93778 0.45131 0.0
O263 O 0.06377 0.98185 0.53775 0.0
C264 C 0.08799 0.938 0.51361 0.0
C265 C 0.91592 0.06695 0.48405 0.0
O266 O 0.03197 0.05271 0.60449 0.0
O267 O 0.05066 0.10239 0.51092 0.0
O268 O 0.88899 0.98671 0.63157 0.0
O269 O 0.93469 0.90939 0.6179 0.0
O270 O 0.91056 0.06516 0.54608 0.0
O271 O 0.94105 0.02345 0.46173 0.0
O272 O 0.98345 0.94687 0.39221 0.0
O273 O 0.93908 0.9068 0.48629 0.0
C274 C 0.05395 0.10152 0.57434 0.0
C275 C 0.94972 0.9031 0.42318 0.0
Dy276 Dy 0.55414 0.02455 0.07098 0.0
C277 C 0.3962 0.98231 0.86511 0.0
C278 C 0.65825 0.08521 0.12468 0.0
Dy279 Dy 0.45052 0.00646 0.98019 0.0
O280 O 0.64406 0.02816 0.12629 0.0
O281 O 0.61573 0.10871 0.09407 0.0
O282 O 0.52868 0.95824 0.14674 0.0
O283 O 0.46746 0.96023 0.06793 0.0
C284 C 0.47743 0.93344 0.11901 0.0
C285 C 0.52941 0.10725 0.96484 0.0
O286 O 0.39541 0.04845 0.05602 0.0
O287 O 0.4871 0.08415 0.11035 0.0
O288 O 0.45357 0.00683 0.87424 0.0
O289 O 0.36634 0.97028 0.91992 0.0
O290 O 0.46816 0.10415 0.96715 0.0
O291 O 0.54585 0.05668 0.97412 0.0
O292 O 0.59315 0.96188 0.00352 0.0
O293 O 0.49576 0.92434 0.96237 0.0
C294 C 0.42574 0.08312 0.10058 0.0
C295 C 0.55614 0.92068 0.9718 0.0
Dy296 Dy 0.52392 0.4503 0.46849 0.0
C297 C 0.44384 0.64802 0.59628 0.0
C298 C 0.60855 0.38078 0.4182 0.0
Dy299 Dy 0.49818 0.55466 0.54578 0.0
O300 O 0.5471 0.3696 0.41102 0.0
O301 O 0.62241 0.42933 0.45138 0.0
O302 O 0.42262 0.40755 0.47377 0.0
O303 O 0.45947 0.46137 0.55129 0.0
C304 C 0.40934 0.43264 0.52884 0.0
C305 C 0.61186 0.56875 0.48228 0.0
O306 O 0.52834 0.50294 0.62903 0.0
O307 O 0.57066 0.43457 0.56245 0.0
O308 O 0.50421 0.64352 0.5957 0.0
O309 O 0.41273 0.59982 0.57265 0.0
O310 O 0.60216 0.59075 0.53947 0.0
O311 O 0.55983 0.54322 0.46153 0.0
O312 O 0.4881 0.50026 0.38711 0.0
O313 O 0.44627 0.56857 0.45402 0.0
C314 C 0.56223 0.45815 0.62053 0.0
C315 C 0.45422 0.54513 0.39561 0.0
Dy316 Dy 0.02713 0.44185 0.04476 0.0
C317 C 0.93098 0.64466 0.94471 0.0
C318 C 0.10259 0.36312 0.08072 0.0
Dy319 Dy 0.99639 0.55471 0.96816 0.0
O320 O 0.04545 0.366 0.10395 0.0
O321 O 0.1158 0.39989 0.0344 0.0
O322 O 0.97842 0.46455 0.13988 0.0
O323 O 0.98347 0.52059 0.06368 0.0
C324 C 0.96402 0.51515 0.12138 0.0
C325 C 0.05766 0.48249 0.88947 0.0
O326 O 0.08101 0.59547 0.02442 0.0
O327 O 0.10975 0.50969 0.06839 0.0
O328 O 0.99275 0.64866 0.9422 0.0
O329 O 0.90557 0.59192 0.95914 0.0
O330 O 0.04082 0.53238 0.87126 0.0
O331 O 0.0413 0.47668 0.94823 0.0
O332 O 0.94387 0.40002 0.98789 0.0
O333 O 0.90992 0.48796 0.95463 0.0
C334 C 0.11953 0.56719 0.05828 0.0
C335 C 0.90194 0.42955 0.9602 0.0
loop_
_geom_bond_atom_site_label_1
_geom_bond_atom_site_label_2
_geom_bond_distance
_geom_bond_site_symmetry_2
_ccdc_geom_bond_type
P0 O11 1.490 . S
P0 C14 1.812 . S
P0 C20 1.803 . S
P0 C26 1.819 . S
H1 C15 0.941 . S
H2 C16 0.939 . S
H3 C18 0.940 . S
H4 C19 0.940 . S
H5 C21 0.939 . S
H6 C22 0.942 . S
H7 C24 0.940 . S
H8 C25 0.939 . S
H9 C27 0.941 . S
H10 C31 0.939 . S
O11 P0 1.490 . S
H12 C28 0.939 . S
H13 C30 0.940 . S
C14 P0 1.812 . S
C14 C15 1.389 . S
C14 C19 1.391 . S
C15 H1 0.941 . S
C15 C14 1.389 . S
C15 C16 1.397 . S
C16 H2 0.939 . S
C16 C15 1.397 . S
C16 C17 1.378 . S
C17 C16 1.378 . S
C17 C18 1.378 . S
C18 H3 0.940 . S
C18 C17 1.378 . S
C18 C19 1.396 . S
C19 H4 0.940 . S
C19 C14 1.391 . S
C19 C18 1.396 . S
C20 P0 1.803 . S
C20 C21 1.378 . S
C20 C25 1.400 . S
C21 H5 0.939 . S
C21 C20 1.378 . S
C21 C22 1.361 . S
C22 H6 0.942 . S
C22 C21 1.361 . S
C22 C23 1.369 . S
C23 C22 1.369 . S
C23 C24 1.404 . S
C24 H7 0.940 . S
C24 C23 1.404 . S
C24 C25 1.389 . S
C25 H8 0.939 . S
C25 C20 1.400 . S
C25 C24 1.389 . S
C26 P0 1.819 . S
C26 C27 1.391 . S
C26 C31 1.391 . S
C27 H9 0.941 . S
C27 C26 1.391 . S
C27 C28 1.396 . S
C28 H12 0.939 . S
C28 C27 1.396 . S
C28 C29 1.397 . S
C29 C28 1.397 . S
C29 C30 1.385 . S
C30 H13 0.940 . S
C30 C29 1.385 . S
C30 C31 1.388 . S
C31 H10 0.939 . S
C31 C26 1.391 . S
C31 C30 1.388 . S
P32 O43 1.490 . S
P32 C46 1.812 . S
P32 C52 1.803 . S
P32 C58 1.819 . S
H33 C47 0.941 . S
H34 C48 0.939 . S
H35 C50 0.940 . S
H36 C51 0.940 . S
H37 C53 0.939 . S
H38 C54 0.942 . S
H39 C56 0.940 . S
H40 C57 0.939 . S
H41 C59 0.941 1_545 S
H42 C63 0.939 . S
O43 P32 1.490 . S
H44 C60 0.939 1_545 S
H45 C62 0.940 . S
C46 P32 1.812 . S
C46 C47 1.389 . S
C46 C51 1.391 . S
C47 H33 0.941 . S
C47 C46 1.389 . S
C47 C48 1.397 . S
C48 H34 0.939 . S
C48 C47 1.397 . S
C48 C49 1.378 . S
C49 C48 1.378 . S
C49 C50 1.378 . S
C50 H35 0.940 . S
C50 C49 1.378 . S
C50 C51 1.396 . S
C51 H36 0.940 . S
C51 C46 1.391 . S
C51 C50 1.396 . S
C52 P32 1.803 . S
C52 C53 1.378 . S
C52 C57 1.400 . S
C53 H37 0.939 . S
C53 C52 1.378 . S
C53 C54 1.361 . S
C54 H38 0.942 . S
C54 C53 1.361 . S
C54 C55 1.369 . S
C55 C54 1.369 . S
C55 C56 1.404 . S
C56 H39 0.940 . S
C56 C55 1.404 . S
C56 C57 1.389 . S
C57 H40 0.939 . S
C57 C52 1.400 . S
C57 C56 1.389 . S
C58 P32 1.819 . S
C58 C59 1.391 . S
C58 C63 1.391 . S
C59 H41 0.941 1_565 S
C59 C58 1.391 . S
C59 C60 1.396 . S
C60 H44 0.939 1_565 S
C60 C59 1.396 . S
C60 C61 1.397 . S
C61 C60 1.397 . S
C61 C62 1.385 . S
C62 H45 0.940 . S
C62 C61 1.385 . S
C62 C63 1.388 . S
C63 H42 0.939 . S
C63 C58 1.391 . S
C63 C62 1.388 . S
P64 O75 1.490 . S
P64 C78 1.812 . S
P64 C84 1.803 . S
P64 C90 1.819 . S
H65 C79 0.941 . S
H66 C80 0.939 . S
H67 C82 0.940 . S
H68 C83 0.940 . S
H69 C85 0.939 . S
H70 C86 0.942 . S
H71 C88 0.940 . S
H72 C89 0.939 . S
H73 C91 0.941 . S
H74 C95 0.939 . S
O75 P64 1.490 . S
H76 C92 0.939 . S
H77 C94 0.940 . S
C78 P64 1.812 . S
C78 C79 1.389 . S
C78 C83 1.391 . S
C79 H65 0.941 . S
C79 C78 1.389 . S
C79 C80 1.397 . S
C80 H66 0.939 . S
C80 C79 1.397 . S
C80 C81 1.378 . S
C81 C80 1.378 . S
C81 C82 1.378 . S
C82 H67 0.940 . S
C82 C81 1.378 . S
C82 C83 1.396 . S
C83 H68 0.940 . S
C83 C78 1.391 . S
C83 C82 1.396 . S
C84 P64 1.803 . S
C84 C85 1.378 . S
C84 C89 1.400 . S
C85 H69 0.939 . S
C85 C84 1.378 . S
C85 C86 1.361 . S
C86 H70 0.942 . S
C86 C85 1.361 . S
C86 C87 1.369 . S
C87 C86 1.369 . S
C87 C88 1.404 . S
C88 H71 0.940 . S
C88 C87 1.404 . S
C88 C89 1.389 . S
C89 H72 0.939 . S
C89 C84 1.400 . S
C89 C88 1.389 . S
C90 P64 1.819 . S
C90 C91 1.391 . S
C90 C95 1.391 . S
C91 H73 0.941 . S
C91 C90 1.391 . S
C91 C92 1.396 . S
C92 H76 0.939 . S
C92 C91 1.396 . S
C92 C93 1.397 . S
C93 C92 1.397 . S
C93 C94 1.385 . S
C94 H77 0.940 . S
C94 C93 1.385 . S
C94 C95 1.388 . S
C95 H74 0.939 . S
C95 C90 1.391 . S
C95 C94 1.388 . S
P96 O107 1.490 . S
P96 C110 1.812 . S
P96 C116 1.803 . S
P96 C122 1.819 . S
H97 C111 0.941 . S
H98 C112 0.939 . S
H99 C114 0.940 . S
H100 C115 0.940 . S
H101 C117 0.939 . S
H102 C118 0.942 . S
H103 C120 0.940 . S
H104 C121 0.939 . S
H105 C123 0.941 . S
H106 C127 0.939 . S
O107 P96 1.490 . S
H108 C124 0.939 . S
H109 C126 0.940 . S
C110 P96 1.812 . S
C110 C111 1.389 . S
C110 C115 1.391 . S
C111 H97 0.941 . S
C111 C110 1.389 . S
C111 C112 1.397 . S
C112 H98 0.939 . S
C112 C111 1.397 . S
C112 C113 1.378 . S
C113 C112 1.378 . S
C113 C114 1.378 . S
C114 H99 0.940 . S
C114 C113 1.378 . S
C114 C115 1.396 . S
C115 H100 0.940 . S
C115 C110 1.391 . S
C115 C114 1.396 . S
C116 P96 1.803 . S
C116 C117 1.378 . S
C116 C121 1.400 . S
C117 H101 0.939 . S
C117 C116 1.378 . S
C117 C118 1.361 . S
C118 H102 0.942 . S
C118 C117 1.361 . S
C118 C119 1.369 . S
C119 C118 1.369 . S
C119 C120 1.404 . S
C120 H103 0.940 . S
C120 C119 1.404 . S
C120 C121 1.389 . S
C121 H104 0.939 . S
C121 C116 1.400 . S
C121 C120 1.389 . S
C122 P96 1.819 . S
C122 C123 1.391 . S
C122 C127 1.391 . S
C123 H105 0.941 . S
C123 C122 1.391 . S
C123 C124 1.396 . S
C124 H108 0.939 . S
C124 C123 1.396 . S
C124 C125 1.397 . S
C125 C124 1.397 . S
C125 C126 1.385 . S
C126 H109 0.940 . S
C126 C125 1.385 . S
C126 C127 1.388 . S
C127 H106 0.939 . S
C127 C122 1.391 . S
C127 C126 1.388 . S
P128 O139 1.490 . S
P128 C142 1.812 . S
P128 C148 1.803 . S
P128 C154 1.819 . S
H129 C143 0.941 . S
H130 C144 0.939 . S
H131 C146 0.940 . S
H132 C147 0.940 . S
H133 C149 0.939 . S
H134 C150 0.942 . S
H135 C152 0.940 . S
H136 C153 0.939 . S
H137 C155 0.941 . S
H138 C159 0.939 . S
O139 P128 1.490 . S
H140 C156 0.939 . S
H141 C158 0.940 . S
C142 P128 1.812 . S
C142 C143 1.389 . S
C142 C147 1.391 . S
C143 H129 0.941 . S
C143 C142 1.389 . S
C143 C144 1.397 . S
C144 H130 0.939 . S
C144 C143 1.397 . S
C144 C145 1.378 . S
C145 C144 1.378 . S
C145 C146 1.378 . S
C146 H131 0.940 . S
C146 C145 1.378 . S
C146 C147 1.396 . S
C147 H132 0.940 . S
C147 C142 1.391 . S
C147 C146 1.396 . S
C148 P128 1.803 . S
C148 C149 1.378 . S
C148 C153 1.400 . S
C149 H133 0.939 . S
C149 C148 1.378 . S
C149 C150 1.361 . S
C150 H134 0.942 . S
C150 C149 1.361 . S
C150 C151 1.369 . S
C151 C150 1.369 . S
C151 C152 1.404 . S
C152 H135 0.940 . S
C152 C151 1.404 . S
C152 C153 1.389 . S
C153 H136 0.939 . S
C153 C148 1.400 . S
C153 C152 1.389 . S
C154 P128 1.819 . S
C154 C155 1.391 . S
C154 C159 1.391 . S
C155 H137 0.941 . S
C155 C154 1.391 . S
C155 C156 1.396 . S
C156 H140 0.939 . S
C156 C155 1.396 . S
C156 C157 1.397 . S
C157 C156 1.397 . S
C157 C158 1.385 . S
C158 H141 0.940 . S
C158 C157 1.385 . S
C158 C159 1.388 . S
C159 H138 0.939 . S
C159 C154 1.391 . S
C159 C158 1.388 . S
P160 O171 1.490 . S
P160 C174 1.812 . S
P160 C180 1.803 . S
P160 C186 1.819 . S
H161 C175 0.941 . S
H162 C176 0.939 . S
H163 C178 0.940 . S
H164 C179 0.940 . S
H165 C181 0.939 . S
H166 C182 0.942 . S
H167 C184 0.940 . S
H168 C185 0.939 . S
H169 C187 0.941 . S
H170 C191 0.939 . S
O171 P160 1.490 . S
H172 C188 0.939 . S
H173 C190 0.940 . S
C174 P160 1.812 . S
C174 C175 1.389 . S
C174 C179 1.391 . S
C175 H161 0.941 . S
C175 C174 1.389 . S
C175 C176 1.397 . S
C176 H162 0.939 . S
C176 C175 1.397 . S
C176 C177 1.378 . S
C177 C176 1.378 . S
C177 C178 1.378 . S
C178 H163 0.940 . S
C178 C177 1.378 . S
C178 C179 1.396 . S
C179 H164 0.940 . S
C179 C174 1.391 . S
C179 C178 1.396 . S
C180 P160 1.803 . S
C180 C181 1.378 . S
C180 C185 1.400 . S
C181 H165 0.939 . S
C181 C180 1.378 . S
C181 C182 1.361 . S
C182 H166 0.942 . S
C182 C181 1.361 . S
C182 C183 1.369 . S
C183 C182 1.369 . S
C183 C184 1.404 . S
C184 H167 0.940 . S
C184 C183 1.404 . S
C184 C185 1.389 . S
C185 H168 0.939 . S
C185 C180 1.400 . S
C185 C184 1.389 . S
C186 P160 1.819 . S
C186 C187 1.391 . S
C186 C191 1.391 . S
C187 H169 0.941 . S
C187 C186 1.391 . S
C187 C188 1.396 . S
C188 H172 0.939 . S
C188 C187 1.396 . S
C188 C189 1.397 . S
C189 C188 1.397 . S
C189 C190 1.385 . S
C190 H173 0.940 . S
C190 C189 1.385 . S
C190 C191 1.388 . S
C191 H170 0.939 . S
C191 C186 1.391 . S
C191 C190 1.388 . S
P192 O203 1.490 . S
P192 C206 1.812 . S
P192 C212 1.803 . S
P192 C218 1.819 . S
H193 C207 0.941 . S
H194 C208 0.939 1_556 S
H195 C210 0.940 . S
H196 C211 0.940 . S
H197 C213 0.939 . S
H198 C214 0.942 . S
H199 C216 0.940 . S
H200 C217 0.939 . S
H201 C219 0.941 . S
H202 C223 0.939 . S
O203 P192 1.490 . S
H204 C220 0.939 . S
H205 C222 0.940 . S
C206 P192 1.812 . S
C206 C207 1.389 . S
C206 C211 1.391 . S
C207 H193 0.941 . S
C207 C206 1.389 . S
C207 C208 1.397 . S
C208 H194 0.939 1_554 S
C208 C207 1.397 . S
C208 C209 1.378 . S
C209 C208 1.378 . S
C209 C210 1.378 . S
C210 H195 0.940 . S
C210 C209 1.378 . S
C210 C211 1.396 . S
C211 H196 0.940 . S
C211 C206 1.391 . S
C211 C210 1.396 . S
C212 P192 1.803 . S
C212 C213 1.378 . S
C212 C217 1.400 . S
C213 H197 0.939 . S
C213 C212 1.378 . S
C213 C214 1.361 . S
C214 H198 0.942 . S
C214 C213 1.361 . S
C214 C215 1.369 . S
C215 C214 1.369 . S
C215 C216 1.404 . S
C216 H199 0.940 . S
C216 C215 1.404 . S
C216 C217 1.389 . S
C217 H200 0.939 . S
C217 C212 1.400 . S
C217 C216 1.389 . S
C218 P192 1.819 . S
C218 C219 1.391 . S
C218 C223 1.391 . S
C219 H201 0.941 . S
C219 C218 1.391 . S
C219 C220 1.396 . S
C220 H204 0.939 . S
C220 C219 1.396 . S
C220 C221 1.397 . S
C221 C220 1.397 . S
C221 C222 1.385 . S
C222 H205 0.940 . S
C222 C221 1.385 . S
C222 C223 1.388 . S
C223 H202 0.939 . S
C223 C218 1.391 . S
C223 C222 1.388 . S
P224 O235 1.490 . S
P224 C238 1.812 . S
P224 C244 1.803 . S
P224 C250 1.819 . S
H225 C239 0.941 . S
H226 C240 0.939 . S
H227 C242 0.940 . S
H228 C243 0.940 . S
H229 C245 0.939 . S
H230 C246 0.942 . S
H231 C248 0.940 . S
H232 C249 0.939 . S
H233 C251 0.941 . S
H234 C255 0.939 . S
O235 P224 1.490 . S
H236 C252 0.939 . S
H237 C254 0.940 . S
C238 P224 1.812 . S
C238 C239 1.389 . S
C238 C243 1.391 . S
C239 H225 0.941 . S
C239 C238 1.389 . S
C239 C240 1.397 . S
C240 H226 0.939 . S
C240 C239 1.397 . S
C240 C241 1.378 . S
C241 C240 1.378 . S
C241 C242 1.378 . S
C242 H227 0.940 . S
C242 C241 1.378 . S
C242 C243 1.396 . S
C243 H228 0.940 . S
C243 C238 1.391 . S
C243 C242 1.396 . S
C244 P224 1.803 . S
C244 C245 1.378 . S
C244 C249 1.400 . S
C245 H229 0.939 . S
C245 C244 1.378 . S
C245 C246 1.361 . S
C246 H230 0.942 . S
C246 C245 1.361 . S
C246 C247 1.369 . S
C247 C246 1.369 . S
C247 C248 1.404 . S
C248 H231 0.940 . S
C248 C247 1.404 . S
C248 C249 1.389 . S
C249 H232 0.939 . S
C249 C244 1.400 . S
C249 C248 1.389 . S
C250 P224 1.819 . S
C250 C251 1.391 . S
C250 C255 1.391 . S
C251 H233 0.941 . S
C251 C250 1.391 . S
C251 C252 1.396 . S
C252 H236 0.939 . S
C252 C251 1.396 . S
C252 C253 1.397 . S
C253 C252 1.397 . S
C253 C254 1.385 . S
C254 H237 0.940 . S
C254 C253 1.385 . S
C254 C255 1.388 . S
C255 H234 0.939 . S
C255 C250 1.391 . S
C255 C254 1.388 . S
Dy256 O260 2.398 . S
Dy256 O261 2.491 . S
Dy256 O262 2.403 1_545 S
Dy256 O263 2.664 1_545 S
Dy256 O267 2.326 . S
Dy256 O271 2.310 1_455 S
Dy256 O272 2.351 1_445 S
C257 O268 1.185 . S
C257 O269 1.355 . S
C258 O260 1.185 . S
C258 O261 1.355 . S
Dy259 O263 2.310 1_655 S
Dy259 O266 2.351 1_665 S
Dy259 O268 2.398 . S
Dy259 O269 2.491 . S
Dy259 O270 2.403 1_565 S
Dy259 O271 2.664 1_565 S
Dy259 O273 2.326 . S
O260 Dy256 2.398 . S
O260 C258 1.185 . S
O261 Dy256 2.491 . S
O261 C258 1.355 . S
O262 Dy256 2.403 1_565 S
O262 C264 1.254 . S
O263 Dy256 2.664 1_565 S
O263 Dy259 2.310 1_455 S
O263 C264 1.268 . S
C264 O262 1.254 . S
C264 O263 1.268 . S
C265 O270 1.254 . S
C265 O271 1.268 . S
O266 Dy259 2.351 1_445 S
O266 C274 1.249 . S
O267 Dy256 2.326 . S
O267 C274 1.267 . S
O268 C257 1.185 . S
O268 Dy259 2.398 . S
O269 C257 1.355 . S
O269 Dy259 2.491 . S
O270 Dy259 2.403 1_545 S
O270 C265 1.254 . S
O271 Dy256 2.310 1_655 S
O271 Dy259 2.664 1_545 S
O271 C265 1.268 . S
O272 Dy256 2.351 1_665 S
O272 C275 1.249 . S
O273 Dy259 2.326 . S
O273 C275 1.267 . S
C274 O266 1.249 . S
C274 O267 1.267 . S
C275 O272 1.249 . S
C275 O273 1.267 . S
Dy276 O280 2.398 . S
Dy276 O281 2.491 . S
Dy276 O282 2.403 1_545 S
Dy276 O283 2.664 1_545 S
Dy276 O287 2.326 . S
Dy276 O291 2.298 1_554 S
Dy276 O292 2.351 1_544 S
C277 O288 1.185 . S
C277 O289 1.355 . S
C278 O280 1.185 . S
C278 O281 1.355 . S
Dy279 O283 2.310 1_546 S
Dy279 O286 2.351 1_556 S
Dy279 O288 2.398 1_545 S
Dy279 O289 2.491 1_545 S
Dy279 O290 2.403 . S
Dy279 O291 2.671 . S
Dy279 O293 2.326 1_545 S
O280 Dy276 2.398 . S
O280 C278 1.185 . S
O281 Dy276 2.491 . S
O281 C278 1.355 . S
O282 Dy276 2.403 1_565 S
O282 C284 1.254 . S
O283 Dy276 2.664 1_565 S
O283 Dy279 2.310 1_564 S
O283 C284 1.268 . S
C284 O282 1.254 . S
C284 O283 1.268 . S
C285 O290 1.254 . S
C285 O291 1.281 . S
O286 Dy279 2.351 1_554 S
O286 C294 1.249 . S
O287 Dy276 2.326 . S
O287 C294 1.267 . S
O288 C277 1.185 . S
O288 Dy279 2.398 1_565 S
O289 C277 1.355 . S
O289 Dy279 2.491 1_565 S
O290 Dy279 2.403 . S
O290 C285 1.254 . S
O291 Dy276 2.298 1_556 S
O291 Dy279 2.671 . S
O291 C285 1.281 . S
O292 Dy276 2.351 1_566 S
O292 C295 1.249 . S
O293 Dy279 2.326 1_565 S
O293 C295 1.267 . S
C294 O286 1.249 . S
C294 O287 1.267 . S
C295 O292 1.249 . S
C295 O293 1.267 . S
Dy296 O300 2.398 . S
Dy296 O301 2.491 . S
Dy296 O302 2.403 . S
Dy296 O303 2.664 . S
Dy296 O307 2.326 . S
Dy296 O311 2.310 . S
Dy296 O312 2.351 . S
C297 O308 1.185 . S
C297 O309 1.355 . S
C298 O300 1.185 . S
C298 O301 1.355 . S
Dy299 O303 2.310 . S
Dy299 O306 2.351 . S
Dy299 O308 2.398 . S
Dy299 O309 2.491 . S
Dy299 O310 2.403 . S
Dy299 O311 2.664 . S
Dy299 O313 2.326 . S
O300 Dy296 2.398 . S
O300 C298 1.185 . S
O301 Dy296 2.491 . S
O301 C298 1.355 . S
O302 Dy296 2.403 . S
O302 C304 1.254 . S
O303 Dy296 2.664 . S
O303 Dy299 2.310 . S
O303 C304 1.268 . S
C304 O302 1.254 . S
C304 O303 1.268 . S
C305 O310 1.254 . S
C305 O311 1.268 . S
O306 Dy299 2.351 . S
O306 C314 1.249 . S
O307 Dy296 2.326 . S
O307 C314 1.267 . S
O308 C297 1.185 . S
O308 Dy299 2.398 . S
O309 C297 1.355 . S
O309 Dy299 2.491 . S
O310 Dy299 2.403 . S
O310 C305 1.254 . S
O311 Dy296 2.310 . S
O311 Dy299 2.664 . S
O311 C305 1.268 . S
O312 Dy296 2.351 . S
O312 C315 1.249 . S
O313 Dy299 2.326 . S
O313 C315 1.267 . S
C314 O306 1.249 . S
C314 O307 1.267 . S
C315 O312 1.249 . S
C315 O313 1.267 . S
Dy316 O320 2.398 . S
Dy316 O321 2.491 . S
Dy316 O322 2.403 1_455 S
Dy316 O323 2.664 1_455 S
Dy316 O327 2.326 . S
Dy316 O331 2.310 1_554 S
Dy316 O332 2.360 1_455 S
C317 O328 1.185 . S
C317 O329 1.355 . S
C318 O320 1.185 . S
C318 O321 1.355 . S
Dy319 O323 2.310 1_556 S
Dy319 O326 2.351 1_656 S
Dy319 O328 2.398 . S
Dy319 O329 2.491 . S
Dy319 O330 2.403 1_655 S
Dy319 O331 2.664 1_655 S
Dy319 O333 2.326 . S
O320 Dy316 2.398 . S
O320 C318 1.185 . S
O321 Dy316 2.491 . S
O321 C318 1.355 . S
O322 Dy316 2.403 1_655 S
O322 C324 1.254 . S
O323 Dy316 2.664 1_655 S
O323 Dy319 2.310 1_554 S
O323 C324 1.268 . S
C324 O322 1.254 . S
C324 O323 1.268 . S
C325 O330 1.254 . S
C325 O331 1.268 . S
O326 Dy319 2.351 1_454 S
O326 C334 1.249 . S
O327 Dy316 2.326 . S
O327 C334 1.267 . S
O328 C317 1.185 . S
O328 Dy319 2.398 . S
O329 C317 1.355 . S
O329 Dy319 2.491 . S
O330 Dy319 2.403 1_455 S
O330 C325 1.254 . S
O331 Dy316 2.310 1_556 S
O331 Dy319 2.664 1_455 S
O331 C325 1.268 . S
O332 Dy316 2.360 1_655 S
O332 C335 1.237 1_554 S
O333 Dy319 2.326 . S
O333 C335 1.267 . S
C334 O326 1.249 . S
C334 O327 1.267 . S
C335 O332 1.237 1_556 S
C335 O333 1.267 . S
C29 C258 2.174 . S
C49 C277 1.219 . S
C314 C93 2.081 . S
C119 C324 1.917 . S
C294 C17 2.699 . S
C264 C61 1.340 . S
C335 C81 1.630 . S
C305 C125 1.593 . S
C23 C318 2.305 . S
C285 C87 1.874 . S
C113 C275 1.962 . S
C55 C297 1.450 . S
C257 C157 1.656 . S
C189 C278 1.057 . S
C221 C315 2.067 . S
C253 C325 2.019 . S
C145 C295 2.376 . S
C265 C183 1.081 . S
C334 C209 1.634 . S
C304 C247 1.570 . S
C151 C317 1.920 . S
C284 C215 1.910 . S
C274 C241 1.942 . S
C177 C298 1.375 . S
