# Generated by pormake.
# Topology llk, (3,12)-cn, num edge types: 1
# Building blocks:
#     Node 0, Type 0, BuildingBlock: ESEHIV_clean_linker_0, # of connection points: 3
#     Node 1, Type 0, BuildingBlock: ESEHIV_clean_linker_0, # of connection points: 3
#     Node 2, Type 0, BuildingBlock: ESEHIV_clean_linker_0, # of connection points: 3
#     Node 3, Type 0, BuildingBlock: ESEHIV_clean_linker_0, # of connection points: 3
#     Node 4, Type 0, BuildingBlock: ESEHIV_clean_linker_0, # of connection points: 3
#     Node 5, Type 0, BuildingBlock: ESEHIV_clean_linker_0, # of connection points: 3
#     Node 6, Type 0, BuildingBlock: ESEHIV_clean_linker_0, # of connection points: 3
#     Node 7, Type 0, BuildingBlock: ESEHIV_clean_linker_0, # of connection points: 3
#     Node 8, Type 0, BuildingBlock: ESEHIV_clean_linker_0, # of connection points: 3
#     Node 9, Type 0, BuildingBlock: ESEHIV_clean_linker_0, # of connection points: 3
#     Node 10, Type 0, BuildingBlock: ESEHIV_clean_linker_0, # of connection points: 3
#     Node 11, Type 0, BuildingBlock: ESEHIV_clean_linker_0, # of connection points: 3
#     Node 12, Type 0, BuildingBlock: ESEHIV_clean_linker_0, # of connection points: 3
#     Node 13, Type 0, BuildingBlock: ESEHIV_clean_linker_0, # of connection points: 3
#     Node 14, Type 0, BuildingBlock: ESEHIV_clean_linker_0, # of connection points: 3
#     Node 15, Type 0, BuildingBlock: ESEHIV_clean_linker_0, # of connection points: 3
#     Node 16, Type 0, BuildingBlock: ESEHIV_clean_linker_0, # of connection points: 3
#     Node 17, Type 0, BuildingBlock: ESEHIV_clean_linker_0, # of connection points: 3
#     Node 18, Type 0, BuildingBlock: ESEHIV_clean_linker_0, # of connection points: 3
#     Node 19, Type 0, BuildingBlock: ESEHIV_clean_linker_0, # of connection points: 3
#     Node 20, Type 0, BuildingBlock: ESEHIV_clean_linker_0, # of connection points: 3
#     Node 21, Type 0, BuildingBlock: ESEHIV_clean_linker_0, # of connection points: 3
#     Node 22, Type 0, BuildingBlock: ESEHIV_clean_linker_0, # of connection points: 3
#     Node 23, Type 0, BuildingBlock: ESEHIV_clean_linker_0, # of connection points: 3
#     Node 24, Type 1, BuildingBlock: QEWDON_clean_sbu_0, # of connection points: 12
#     Node 25, Type 1, BuildingBlock: QEWDON_clean_sbu_0, # of connection points: 12
#     Node 26, Type 1, BuildingBlock: QEWDON_clean_sbu_0, # of connection points: 12
#     Node 27, Type 1, BuildingBlock: QEWDON_clean_sbu_0, # of connection points: 12
#     Node 28, Type 1, BuildingBlock: QEWDON_clean_sbu_0, # of connection points: 12
#     Node 29, Type 1, BuildingBlock: QEWDON_clean_sbu_0, # of connection points: 12
#     Edge 30, Type (0, 1), BuildingBlock: OJICUG_clean_linker_0, # of connection points: 2
#     Edge 31, Type (0, 1), BuildingBlock: OJICUG_clean_linker_0, # of connection points: 2
#     Edge 32, Type (0, 1), BuildingBlock: OJICUG_clean_linker_0, # of connection points: 2
#     Edge 33, Type (0, 1), BuildingBlock: OJICUG_clean_linker_0, # of connection points: 2
#     Edge 34, Type (0, 1), BuildingBlock: OJICUG_clean_linker_0, # of connection points: 2
#     Edge 35, Type (0, 1), BuildingBlock: OJICUG_clean_linker_0, # of connection points: 2
#     Edge 36, Type (0, 1), BuildingBlock: OJICUG_clean_linker_0, # of connection points: 2
#     Edge 37, Type (0, 1), BuildingBlock: OJICUG_clean_linker_0, # of connection points: 2
#     Edge 38, Type (0, 1), BuildingBlock: OJICUG_clean_linker_0, # of connection points: 2
#     Edge 39, Type (0, 1), BuildingBlock: OJICUG_clean_linker_0, # of connection points: 2
#     Edge 40, Type (0, 1), BuildingBlock: OJICUG_clean_linker_0, # of connection points: 2
#     Edge 41, Type (0, 1), BuildingBlock: OJICUG_clean_linker_0, # of connection points: 2
#     Edge 42, Type (0, 1), BuildingBlock: OJICUG_clean_linker_0, # of connection points: 2
#     Edge 43, Type (0, 1), BuildingBlock: OJICUG_clean_linker_0, # of connection points: 2
#     Edge 44, Type (0, 1), BuildingBlock: OJICUG_clean_linker_0, # of connection points: 2
#     Edge 45, Type (0, 1), BuildingBlock: OJICUG_clean_linker_0, # of connection points: 2
#     Edge 46, Type (0, 1), BuildingBlock: OJICUG_clean_linker_0, # of connection points: 2
#     Edge 47, Type (0, 1), BuildingBlock: OJICUG_clean_linker_0, # of connection points: 2
#     Edge 48, Type (0, 1), BuildingBlock: OJICUG_clean_linker_0, # of connection points: 2
#     Edge 49, Type (0, 1), BuildingBlock: OJICUG_clean_linker_0, # of connection points: 2
#     Edge 50, Type (0, 1), BuildingBlock: OJICUG_clean_linker_0, # of connection points: 2
#     Edge 51, Type (0, 1), BuildingBlock: OJICUG_clean_linker_0, # of connection points: 2
#     Edge 52, Type (0, 1), BuildingBlock: OJICUG_clean_linker_0, # of connection points: 2
#     Edge 53, Type (0, 1), BuildingBlock: OJICUG_clean_linker_0, # of connection points: 2
#     Edge 54, Type (0, 1), BuildingBlock: OJICUG_clean_linker_0, # of connection points: 2
#     Edge 55, Type (0, 1), BuildingBlock: OJICUG_clean_linker_0, # of connection points: 2
#     Edge 56, Type (0, 1), BuildingBlock: OJICUG_clean_linker_0, # of connection points: 2
#     Edge 57, Type (0, 1), BuildingBlock: OJICUG_clean_linker_0, # of connection points: 2
#     Edge 58, Type (0, 1), BuildingBlock: OJICUG_clean_linker_0, # of connection points: 2
#     Edge 59, Type (0, 1), BuildingBlock: OJICUG_clean_linker_0, # of connection points: 2
#     Edge 60, Type (0, 1), BuildingBlock: OJICUG_clean_linker_0, # of connection points: 2
#     Edge 61, Type (0, 1), BuildingBlock: OJICUG_clean_linker_0, # of connection points: 2
#     Edge 62, Type (0, 1), BuildingBlock: OJICUG_clean_linker_0, # of connection points: 2
#     Edge 63, Type (0, 1), BuildingBlock: OJICUG_clean_linker_0, # of connection points: 2
#     Edge 64, Type (0, 1), BuildingBlock: OJICUG_clean_linker_0, # of connection points: 2
#     Edge 65, Type (0, 1), BuildingBlock: OJICUG_clean_linker_0, # of connection points: 2
#     Edge 66, Type (0, 1), BuildingBlock: OJICUG_clean_linker_0, # of connection points: 2
#     Edge 67, Type (0, 1), BuildingBlock: OJICUG_clean_linker_0, # of connection points: 2
#     Edge 68, Type (0, 1), BuildingBlock: OJICUG_clean_linker_0, # of connection points: 2
#     Edge 69, Type (0, 1), BuildingBlock: OJICUG_clean_linker_0, # of connection points: 2
#     Edge 70, Type (0, 1), BuildingBlock: OJICUG_clean_linker_0, # of connection points: 2
#     Edge 71, Type (0, 1), BuildingBlock: OJICUG_clean_linker_0, # of connection points: 2
#     Edge 72, Type (0, 1), BuildingBlock: OJICUG_clean_linker_0, # of connection points: 2
#     Edge 73, Type (0, 1), BuildingBlock: OJICUG_clean_linker_0, # of connection points: 2
#     Edge 74, Type (0, 1), BuildingBlock: OJICUG_clean_linker_0, # of connection points: 2
#     Edge 75, Type (0, 1), BuildingBlock: OJICUG_clean_linker_0, # of connection points: 2
#     Edge 76, Type (0, 1), BuildingBlock: OJICUG_clean_linker_0, # of connection points: 2
#     Edge 77, Type (0, 1), BuildingBlock: OJICUG_clean_linker_0, # of connection points: 2
#     Edge 78, Type (0, 1), BuildingBlock: OJICUG_clean_linker_0, # of connection points: 2
#     Edge 79, Type (0, 1), BuildingBlock: OJICUG_clean_linker_0, # of connection points: 2
#     Edge 80, Type (0, 1), BuildingBlock: OJICUG_clean_linker_0, # of connection points: 2
#     Edge 81, Type (0, 1), BuildingBlock: OJICUG_clean_linker_0, # of connection points: 2
#     Edge 82, Type (0, 1), BuildingBlock: OJICUG_clean_linker_0, # of connection points: 2
#     Edge 83, Type (0, 1), BuildingBlock: OJICUG_clean_linker_0, # of connection points: 2
#     Edge 84, Type (0, 1), BuildingBlock: OJICUG_clean_linker_0, # of connection points: 2
#     Edge 85, Type (0, 1), BuildingBlock: OJICUG_clean_linker_0, # of connection points: 2
#     Edge 86, Type (0, 1), BuildingBlock: OJICUG_clean_linker_0, # of connection points: 2
#     Edge 87, Type (0, 1), BuildingBlock: OJICUG_clean_linker_0, # of connection points: 2
#     Edge 88, Type (0, 1), BuildingBlock: OJICUG_clean_linker_0, # of connection points: 2
#     Edge 89, Type (0, 1), BuildingBlock: OJICUG_clean_linker_0, # of connection points: 2
#     Edge 90, Type (0, 1), BuildingBlock: OJICUG_clean_linker_0, # of connection points: 2
#     Edge 91, Type (0, 1), BuildingBlock: OJICUG_clean_linker_0, # of connection points: 2
#     Edge 92, Type (0, 1), BuildingBlock: OJICUG_clean_linker_0, # of connection points: 2
#     Edge 93, Type (0, 1), BuildingBlock: OJICUG_clean_linker_0, # of connection points: 2
#     Edge 94, Type (0, 1), BuildingBlock: OJICUG_clean_linker_0, # of connection points: 2
#     Edge 95, Type (0, 1), BuildingBlock: OJICUG_clean_linker_0, # of connection points: 2
#     Edge 96, Type (0, 1), BuildingBlock: OJICUG_clean_linker_0, # of connection points: 2
#     Edge 97, Type (0, 1), BuildingBlock: OJICUG_clean_linker_0, # of connection points: 2
#     Edge 98, Type (0, 1), BuildingBlock: OJICUG_clean_linker_0, # of connection points: 2
#     Edge 99, Type (0, 1), BuildingBlock: OJICUG_clean_linker_0, # of connection points: 2
#     Edge 100, Type (0, 1), BuildingBlock: OJICUG_clean_linker_0, # of connection points: 2
#     Edge 101, Type (0, 1), BuildingBlock: OJICUG_clean_linker_0, # of connection points: 2
# Relax obj value: 0.133
# Max RMSD: 0.163
# Mean RMSD: 0.148
data_MOF--net-llk--node1-QEWDON_clean_sbu_0--node2-ESEHIV_clean_linker_0--edge1-OJICUG_clean_linker_0
_symmetry_space_group_name_H-M    P1
_symmetry_Int_Tables_number       1
_symmetry_cell_setting            triclinic
loop_
_symmetry_equiv_pos_as_xyz
'x, y, z'
_cell_length_a     33.386588
_cell_length_b     33.618219
_cell_length_c     33.483334
_cell_angle_alpha  90.32558
_cell_angle_beta   89.927055
_cell_angle_gamma 89.695966
loop_
_atom_site_label
_atom_site_type_symbol
_atom_site_fract_x
_atom_site_fract_y
_atom_site_fract_z
_atom_type_partial_charge
H0 H 0.04135 0.26433 0.34191 0.0
H1 H 0.03916 0.35907 0.25712 0.0
H2 H 0.02366 0.2381 0.21718 0.0
C3 C 0.04069 0.27416 0.31106 0.0
C4 C 0.03385 0.24645 0.28063 0.0
C5 C 0.0409 0.31472 0.30306 0.0
C6 C 0.03985 0.32744 0.26342 0.0
C7 C 0.03469 0.30003 0.23202 0.0
C8 C 0.03064 0.2592 0.24069 0.0
H9 H 0.67259 0.07182 0.19847 0.0
H10 H 0.73827 0.08522 0.30651 0.0
H11 H 0.80171 0.06817 0.19543 0.0
C12 C 0.70132 0.07572 0.21312 0.0
C13 C 0.73707 0.07318 0.19129 0.0
C14 C 0.70202 0.08016 0.25412 0.0
C15 C 0.73823 0.08345 0.2741 0.0
C16 C 0.77431 0.07916 0.25327 0.0
C17 C 0.77399 0.0733 0.21156 0.0
H18 H 0.03823 0.78256 0.33798 0.0
H19 H 0.03769 0.67952 0.26208 0.0
H20 H -0.00243 0.79193 0.21636 0.0
C21 C 0.03465 0.76935 0.30855 0.0
C22 C 0.0188 0.79237 0.27752 0.0
C23 C 0.04008 0.7284 0.30376 0.0
C24 C 0.03435 0.71142 0.26602 0.0
C25 C 0.01946 0.73396 0.23428 0.0
C26 C 0.01157 0.77482 0.2399 0.0
H27 H 0.21202 0.96719 0.31202 0.0
H28 H 0.3162 0.97676 0.23924 0.0
H29 H 0.1988 0.98559 0.18573 0.0
C30 C 0.22516 0.96842 0.28233 0.0
C31 C 0.20063 0.97496 0.24925 0.0
C32 C 0.26638 0.97005 0.27875 0.0
C33 C 0.28392 0.97385 0.24119 0.0
C34 C 0.25998 0.97765 0.20683 0.0
C35 C 0.21783 0.97959 0.21119 0.0
H36 H 0.96603 0.76206 0.66603 0.0
H37 H 0.95302 0.6806 0.76269 0.0
H38 H -0.01275 0.8008 0.78727 0.0
C39 C 0.9642 0.75679 0.69787 0.0
C40 C 0.97279 0.78782 0.72507 0.0
C41 C 0.95828 0.7179 0.71128 0.0
C42 C 0.95775 0.71072 0.75216 0.0
C43 C 0.97108 0.73956 0.77898 0.0
C44 C 0.97744 0.77856 0.76597 0.0
H45 H 0.29334 0.9821 0.69361 0.0
H46 H 0.35673 0.97074 0.80314 0.0
H47 H 0.22925 0.99321 0.80509 0.0
C48 C 0.29269 0.98016 0.72596 0.0
C49 C 0.25673 0.98619 0.74663 0.0
C50 C 0.32827 0.97448 0.74671 0.0
C51 C 0.32812 0.973 0.78787 0.0
C52 C 0.2927 0.97936 0.80951 0.0
C53 C 0.25653 0.98641 0.78882 0.0
H54 H -0.0143 0.35726 0.74436 0.0
H55 H 0.97695 0.26304 0.65856 0.0
H56 H -0.00135 0.23579 0.78241 0.0
C57 C 0.98407 0.32568 0.73768 0.0
C58 C -0.01007 0.29823 0.76848 0.0
C59 C 0.98045 0.3131 0.69808 0.0
C60 C 0.97899 0.27255 0.68953 0.0
C61 C -0.01438 0.24428 0.71941 0.0
C62 C -0.00838 0.25714 0.75932 0.0
H63 H 0.69577 0.04832 0.77452 0.0
H64 H 0.80667 0.05341 0.7117 0.0
H65 H 0.80692 0.04531 0.8404 0.0
C66 C 0.72821 0.05032 0.7754 0.0
C67 C 0.74834 0.04913 0.81206 0.0
C68 C 0.74936 0.05152 0.73967 0.0
C69 C 0.79071 0.05319 0.74 0.0
C70 C 0.81195 0.05117 0.77594 0.0
C71 C 0.79083 0.04837 0.81251 0.0
H72 H 0.2076 0.35861 0.01708 0.0
H73 H 0.30359 0.27452 0.01996 0.0
H74 H 0.18573 0.23595 0.98453 0.0
C75 C 0.21772 0.32796 0.01429 0.0
C76 C 0.191 0.29819 0.00225 0.0
C77 C 0.25785 0.31919 0.02058 0.0
C78 C 0.27187 0.28064 0.0157 0.0
C79 C 0.24663 0.25046 0.00239 0.0
C80 C 0.20558 0.25896 -0.00462 0.0
H81 H 0.28974 0.7832 0.01021 0.0
H82 H 0.20177 0.69366 0.02767 0.0
H83 H 0.16502 0.81688 0.01796 0.0
C84 C 0.25852 0.77538 0.01454 0.0
C85 C 0.22908 0.80515 0.01501 0.0
C86 C 0.2484 0.73563 0.01934 0.0
C87 C 0.20886 0.72506 0.02557 0.0
C88 C 0.17818 0.75373 0.02485 0.0
C89 C 0.1883 0.79438 0.01943 0.0
H90 H 0.72789 0.26077 0.9744 0.0
H91 H 0.82082 0.3451 -0.00502 0.0
H92 H 0.84994 0.21982 0.98849 0.0
C93 C 0.75956 0.26691 0.9783 0.0
C94 C 0.78719 0.23544 0.9799 0.0
C95 C 0.77177 0.30601 0.98417 0.0
C96 C 0.81186 0.3144 0.99033 0.0
C97 C 0.8405 0.28386 0.991 0.0
C98 C 0.82823 0.24378 0.98666 0.0
H99 H 0.70399 0.76602 0.96493 0.0
H100 H 0.79277 0.67639 0.97997 0.0
H101 H 0.8284 0.79974 0.97399 0.0
C102 C 0.73558 0.75809 0.96636 0.0
C103 C 0.76461 0.78779 0.96732 0.0
C104 C 0.74595 0.71869 0.97165 0.0
C105 C 0.78569 0.70755 0.97508 0.0
C106 C 0.81614 0.73604 0.97424 0.0
C107 C 0.80559 0.77704 0.97199 0.0
H108 H 0.53335 0.76967 0.82776 0.0
H109 H 0.53101 0.85516 0.73372 0.0
H110 H 0.52923 0.72978 0.70509 0.0
C111 C 0.53393 0.7762 0.79604 0.0
C112 C 0.53215 0.74497 0.76822 0.0
C113 C 0.53295 0.81567 0.7837 0.0
C114 C 0.53197 0.8243 0.74311 0.0
C115 C 0.5313 0.79379 0.71447 0.0
C116 C 0.53084 0.75362 0.72692 0.0
H117 H 0.22635 0.53935 0.71893 0.0
H118 H 0.30426 0.5358 0.81945 0.0
H119 H 0.35444 0.53768 0.70002 0.0
C120 C 0.25679 0.53885 0.73046 0.0
C121 C 0.28919 0.53933 0.7042 0.0
C122 C 0.26244 0.53754 0.77124 0.0
C123 C 0.30071 0.5368 0.78723 0.0
C124 C 0.33441 0.53687 0.76219 0.0
C125 C 0.32886 0.53785 0.71991 0.0
H126 H 0.44944 0.17322 0.73753 0.0
H127 H 0.45698 0.26026 0.83038 0.0
H128 H 0.47799 0.29485 0.70866 0.0
C129 C 0.45199 0.20426 0.74616 0.0
C130 C 0.46132 0.23291 0.71731 0.0
C131 C 0.45209 0.21358 0.78675 0.0
C132 C 0.45618 0.25311 0.79873 0.0
C133 C 0.46478 0.2829 0.77101 0.0
C134 C 0.46868 0.27265 0.73002 0.0
H135 H 0.69196 0.5093 0.85545 0.0
H136 H 0.79656 0.53134 0.78612 0.0
H137 H 0.68339 0.51289 0.72654 0.0
C138 C 0.70564 0.51282 0.82624 0.0
C139 C 0.68234 0.51045 0.79155 0.0
C140 C 0.74613 0.52081 0.82397 0.0
C141 C 0.7645 0.52608 0.78716 0.0
C142 C 0.74267 0.52304 0.75173 0.0
C143 C 0.70089 0.51517 0.75365 0.0
H144 H 0.48307 0.26218 0.17425 0.0
H145 H 0.48963 0.17712 0.26843 0.0
H146 H 0.48766 0.3026 0.29665 0.0
C147 C 0.48279 0.25573 0.20598 0.0
C148 C 0.48349 0.28723 0.23355 0.0
C149 C 0.48612 0.21632 0.21844 0.0
C150 C 0.48789 0.20793 0.25903 0.0
C151 C 0.48826 0.23845 0.28764 0.0
C152 C 0.48633 0.27864 0.27494 0.0
H153 H 0.72152 0.47836 0.18617 0.0
H154 H 0.79097 0.5124 0.28685 0.0
H155 H 0.66534 0.487 0.30275 0.0
C156 C 0.723 0.48323 0.2182 0.0
C157 C 0.68852 0.48002 0.24199 0.0
C158 C 0.75905 0.49564 0.23446 0.0
C159 C 0.76202 0.5039 0.27476 0.0
C160 C 0.72902 0.50061 0.29998 0.0
C161 C 0.69148 0.48889 0.2837 0.0
H162 H 0.54569 0.86546 0.2743 0.0
H163 H 0.55378 0.78561 0.17475 0.0
H164 H 0.53244 0.73961 0.29262 0.0
C165 C 0.54772 0.83519 0.26293 0.0
C166 C 0.5411 0.80343 0.28885 0.0
C167 C 0.55042 0.82902 0.22185 0.0
C168 C 0.55276 0.79021 0.20685 0.0
C169 C 0.5473 0.75741 0.23204 0.0
C170 C 0.54009 0.76418 0.27332 0.0
H171 H 0.20995 0.55902 0.22951 0.0
H172 H 0.30859 0.57698 0.15126 0.0
H173 H 0.32677 0.5816 0.27928 0.0
C174 C 0.24147 0.56594 0.22561 0.0
C175 C 0.2658 0.57173 0.25892 0.0
C176 C 0.25718 0.56778 0.18734 0.0
C177 C 0.29708 0.57685 0.18159 0.0
C178 C 0.32276 0.58235 0.21435 0.0
C179 C 0.3072 0.57899 0.25364 0.0
H180 H 0.7648 0.86196 0.47835 0.0
H181 H 0.8499 0.7664 0.4777 0.0
H182 H 0.72342 0.74064 0.47755 0.0
C183 C 0.77108 0.8303 0.47631 0.0
C184 C 0.73924 0.80331 0.47568 0.0
C185 C 0.81072 0.817 0.4778 0.0
C186 C 0.81898 0.77639 0.47588 0.0
C187 C 0.78808 0.74842 0.47542 0.0
C188 C 0.74766 0.76186 0.4761 0.0
H189 H 0.83121 0.27467 0.46184 0.0
H190 H 0.75991 0.17128 0.4834 0.0
H191 H 0.7099 0.28808 0.50318 0.0
C192 C 0.80253 0.26148 0.46912 0.0
C193 C 0.77079 0.2861 0.48117 0.0
C194 C 0.79945 0.22013 0.47152 0.0
C195 C 0.76254 0.20333 0.4819 0.0
C196 C 0.72963 0.22736 0.49269 0.0
C197 C 0.73413 0.26908 0.49281 0.0
H198 H 0.15901 0.7636 0.54007 0.0
H199 H 0.24431 0.85805 0.53486 0.0
H200 H 0.28457 0.73636 0.52568 0.0
C201 C 0.18994 0.77328 0.53874 0.0
C202 C 0.22044 0.74495 0.53401 0.0
C203 C 0.19808 0.81386 0.53754 0.0
C204 C 0.23784 0.82648 0.53604 0.0
C205 C 0.26949 0.79904 0.53304 0.0
C206 C 0.26071 0.75784 0.53038 0.0
H207 H 0.17136 0.27678 0.54027 0.0
H208 H 0.24495 0.17238 0.52929 0.0
H209 H 0.29447 0.28713 0.50305 0.0
C210 C 0.20054 0.26327 0.53524 0.0
C211 C 0.23265 0.28694 0.52292 0.0
C212 C 0.2046 0.22195 0.53697 0.0
C213 C 0.2418 0.20449 0.5285 0.0
C214 C 0.27444 0.22751 0.51648 0.0
C215 C 0.26989 0.26909 0.51364 0.0
Zn216 Zn 0.93509 0.98413 0.41763 0.0
Zn217 Zn 0.94799 0.07684 0.43503 0.0
O218 O 0.97681 0.02664 0.42299 0.0
H219 H -0.00226 0.02611 0.40308 0.0
C220 C 0.91967 0.93496 0.53512 0.0
O221 O 0.92776 0.96682 0.5142 0.0
Zn222 Zn 0.0837 0.06298 0.57961 0.0
Zn223 Zn 0.06444 0.97111 0.58518 0.0
O224 O 0.03865 0.02468 0.58768 0.0
H225 H 0.01874 0.02764 0.60844 0.0
Zn226 Zn 0.95562 0.98318 0.59728 0.0
O227 O 0.96016 0.02803 0.5583 0.0
Zn228 Zn 0.9546 0.07774 0.58883 0.0
H229 H 0.97338 0.02581 0.53277 0.0
Zn230 Zn 0.03803 0.97277 0.43185 0.0
O231 O 0.03767 0.0233 0.4652 0.0
H232 H 0.02756 0.02816 0.49177 0.0
Zn233 Zn 0.06476 0.05987 0.42804 0.0
C234 C 0.08454 0.93277 0.49094 0.0
O235 O 0.09006 0.96987 0.50201 0.0
O236 O 0.89132 0.00992 0.38539 0.0
O237 O 0.89879 0.07428 0.39946 0.0
O238 O 0.11617 0.97634 0.61689 0.0
O239 O 0.13175 0.04013 0.60945 0.0
O240 O 0.93766 0.00172 0.65385 0.0
O241 O 0.93134 0.06713 0.64473 0.0
C242 C 0.00568 0.11801 0.38451 0.0
O243 O 0.06141 0.97935 0.37483 0.0
O244 O 0.09986 0.03164 0.38738 0.0
O245 O 0.02889 0.92788 0.6097 0.0
C246 C 0.88186 0.04616 0.3801 0.0
O247 O 0.95312 0.93304 0.38817 0.0
C248 C 0.03344 0.11909 0.61566 0.0
O249 O 0.92916 0.93383 0.57189 0.0
C250 C 0.13849 0.00592 0.62459 0.0
O251 O 0.06166 0.92532 0.4616 0.0
C252 C 0.92134 0.11221 0.51514 0.0
O253 O 0.97752 0.12239 0.40986 0.0
O254 O 0.03347 0.09266 0.38928 0.0
C255 C 0.92855 0.03635 0.66699 0.0
O256 O 0.07062 0.11406 0.60984 0.0
O257 O 0.01021 0.09729 0.5953 0.0
C258 C 0.09826 0.10003 0.49888 0.0
O259 O 0.92296 0.11422 0.55328 0.0
O260 O 0.94031 0.08504 0.49605 0.0
C261 C 0.08867 0.00348 0.36424 0.0
O262 O 0.09412 0.10009 0.46107 0.0
O263 O 0.08716 0.07009 0.51905 0.0
C264 C 0.02842 0.9291 0.64765 0.0
O265 O 0.04868 0.95697 0.66628 0.0
C266 C 0.97004 0.93672 0.35432 0.0
O267 O 0.97782 0.97245 0.34075 0.0
Zn268 Zn 0.4192 0.07693 0.05199 0.0
Zn269 Zn 0.43966 0.09396 0.96004 0.0
O270 O 0.44963 0.05643 0.00493 0.0
H271 H 0.46966 0.03562 0.00541 0.0
C272 C 0.53844 0.11583 0.09124 0.0
O273 O 0.51782 0.11286 0.05804 0.0
Zn274 Zn 0.57267 0.94475 0.94825 0.0
Zn275 Zn 0.59865 0.96147 0.03893 0.0
O276 O 0.56775 0.98341 -0.00697 0.0
H277 H 0.54517 0.00121 -0.00407 0.0
Zn278 Zn 0.60042 0.08652 0.03858 0.0
O279 O 0.55976 0.08266 -0.00467 0.0
Zn280 Zn 0.58955 0.08618 0.94538 0.0
H281 H 0.53442 0.06928 -0.002 0.0
Zn282 Zn 0.41924 0.95533 0.05374 0.0
O283 O 0.4568 0.95188 0.00661 0.0
H284 H 0.48366 0.96225 0.00561 0.0
Zn285 Zn 0.42133 0.95145 0.96064 0.0
C286 C 0.48581 0.93432 0.10522 0.0
O287 O 0.50631 0.94641 0.07418 0.0
O288 O 0.37841 0.1187 0.03438 0.0
O289 O 0.40111 0.13994 0.97585 0.0
O290 O 0.63832 0.91924 0.01997 0.0
O291 O 0.61272 0.89958 0.96185 0.0
O292 O 0.65379 0.11088 0.01894 0.0
O293 O 0.64538 0.11218 0.95317 0.0
C294 C 0.39493 0.03037 0.92399 0.0
O295 O 0.36219 0.93329 0.04146 0.0
O296 O 0.36637 0.92703 0.97546 0.0
O297 O 0.62814 0.00293 0.07213 0.0
C298 C 0.37508 0.14102 0.00405 0.0
O299 O 0.39215 0.03549 0.08743 0.0
C300 C 0.6149 0.00682 0.90725 0.0
O301 O 0.57529 0.10598 0.09142 0.0
C302 C 0.63996 0.89765 0.98878 0.0
O303 O 0.44774 0.93662 0.1049 0.0
C304 C 0.5149 0.11796 0.91026 0.0
O305 O 0.40347 0.0669 0.92058 0.0
O306 O 0.41735 0.00895 0.9457 0.0
C307 C 0.66676 0.11908 0.98419 0.0
O308 O 0.60584 0.97026 0.90491 0.0
O309 O 0.59262 0.02931 0.92825 0.0
C310 C 0.48899 0.9189 0.91183 0.0
O311 O 0.55302 0.11527 0.90712 0.0
O312 O 0.49734 0.10421 0.94091 0.0
C313 C 0.34682 0.92296 0.00811 0.0
O314 O 0.45103 0.9218 0.91656 0.0
O315 O 0.51248 0.93436 0.93746 0.0
C316 C 0.66276 0.01096 0.05876 0.0
O317 O 0.67537 0.99424 0.02552 0.0
C318 C 0.35671 0.02774 0.07618 0.0
O319 O 0.34315 0.04345 0.04299 0.0
Zn320 Zn 0.9535 0.47851 0.93866 0.0
Zn321 Zn 0.94705 0.57506 0.95159 0.0
O322 O -0.01382 0.52978 0.94437 0.0
H323 H 0.97395 0.50397 0.94141 0.0
C324 C 0.94633 0.40351 0.02436 0.0
O325 O 0.95018 0.42988 -0.00405 0.0
Zn326 Zn 0.05749 0.58114 0.04483 0.0
Zn327 Zn 0.04959 0.49313 0.08374 0.0
O328 O 0.0274 0.52919 0.03986 0.0
H329 H 0.01886 0.51829 0.01456 0.0
Zn330 Zn 0.95584 0.47397 0.08095 0.0
O331 O 0.95189 0.52354 0.04617 0.0
Zn332 Zn 0.94669 0.56836 0.08755 0.0
H333 H 0.93902 0.52181 0.02038 0.0
Zn334 Zn 0.06614 0.48859 0.91719 0.0
O335 O 0.0623 0.53781 0.95305 0.0
H336 H 0.07826 0.53709 0.97708 0.0
Zn337 Zn 0.06157 0.58334 0.91269 0.0
C338 C 0.07416 0.41287 0.97035 0.0
O339 O 0.05393 0.43098 -0.00112 0.0
O340 O 0.89389 0.49071 0.93196 0.0
O341 O 0.89323 0.55691 0.93369 0.0
O342 O 0.10591 0.5105 0.09656 0.0
O343 O 0.11201 0.56904 0.06637 0.0
O344 O 0.91648 0.48353 0.126 0.0
O345 O 0.90686 0.54921 0.12673 0.0
C346 C -0.01014 0.62495 0.89549 0.0
O347 O 0.10428 0.50352 0.8722 0.0
O348 O 0.10332 0.5698 0.87297 0.0
O349 O 0.03985 0.43182 0.09347 0.0
C350 C 0.87549 0.5238 0.92891 0.0
O351 O 0.97141 0.42416 0.91147 0.0
C352 C 0.01045 0.61841 0.10996 0.0
O353 O 0.94871 0.41508 0.06043 0.0
C354 C 0.12666 0.54047 0.08657 0.0
O355 O 0.081 0.43111 0.93785 0.0
C356 C 0.92679 0.62313 0.02737 0.0
O357 O 0.9626 0.62241 0.92142 0.0
O358 O 0.00915 0.5937 0.88524 0.0
C359 C 0.89872 0.51446 0.13916 0.0
O360 O 0.03334 0.62228 0.08015 0.0
O361 O -0.00379 0.58432 0.11811 0.0
C362 C 0.07398 0.63854 0.97392 0.0
O363 O 0.92553 0.61982 0.06493 0.0
O364 O 0.941 0.59356 0.00797 0.0
C365 C 0.11716 0.53686 0.85992 0.0
O366 O 0.07606 0.63631 0.93631 0.0
O367 O 0.06393 0.60698 0.99196 0.0
C368 C 0.01672 0.42117 0.12164 0.0
O369 O -0.0034 0.44861 0.14138 0.0
C370 C -0.00158 0.41767 0.88539 0.0
O371 O 0.02027 0.44745 0.87285 0.0
Zn372 Zn 0.45099 0.46679 0.96956 0.0
Zn373 Zn 0.4572 0.46286 0.07018 0.0
O374 O 0.47347 0.49428 0.01982 0.0
H375 H 0.4711 0.52282 0.01817 0.0
C376 C 0.49804 0.39581 0.89206 0.0
O377 O 0.46774 0.40905 0.9134 0.0
Zn378 Zn 0.56473 0.57597 0.06849 0.0
Zn379 Zn 0.54577 0.56983 0.97176 0.0
O380 O 0.54065 0.54069 0.02511 0.0
H381 H 0.54471 0.51229 0.02439 0.0
Zn382 Zn 0.55505 0.42379 0.96094 0.0
O383 O 0.52708 0.42771 0.016 0.0
Zn384 Zn 0.57053 0.43117 0.05946 0.0
H385 H 0.50021 0.41802 0.02016 0.0
Zn386 Zn 0.45838 0.61038 0.96189 0.0
O387 O 0.49283 0.61339 0.01295 0.0
H388 H 0.51868 0.62606 0.01447 0.0
Zn389 Zn 0.45401 0.60938 0.05934 0.0
C390 C 0.51132 0.63486 0.89075 0.0
O391 O 0.54206 0.62938 0.91447 0.0
O392 O 0.40467 0.43271 0.98829 0.0
O393 O 0.40949 0.43073 0.05488 0.0
O394 O 0.59134 0.60857 0.97907 0.0
O395 O 0.60859 0.60714 0.04338 0.0
O396 O 0.61424 0.41141 0.96977 0.0
O397 O 0.62289 0.4127 0.03584 0.0
C398 C 0.44007 0.53686 0.11329 0.0
O399 O 0.4003 0.62604 0.97478 0.0
O400 O 0.39974 0.62654 0.04127 0.0
O401 O 0.54867 0.54574 0.91297 0.0
C402 C 0.39193 0.42166 0.02232 0.0
O403 O 0.4447 0.48793 0.90921 0.0
C404 C 0.58659 0.50599 0.11481 0.0
O405 O 0.5333 0.39832 0.90638 0.0
C406 C 0.61407 0.61887 0.00766 0.0
O407 O 0.47619 0.62907 0.90422 0.0
C408 C 0.52058 0.40277 0.11785 0.0
O409 O 0.44027 0.49919 0.11449 0.0
O410 O 0.45095 0.55351 0.08094 0.0
C411 C 0.63621 0.40696 0.0005 0.0
O412 O 0.58566 0.54363 0.11342 0.0
O413 O 0.57705 0.48666 0.08324 0.0
C414 C 0.50609 0.63989 0.11645 0.0
O415 O 0.55603 0.39723 0.10542 0.0
O416 O 0.498 0.42623 0.09797 0.0
C417 C 0.38233 0.63169 0.00791 0.0
O418 O 0.47076 0.64495 0.10389 0.0
O419 O 0.52862 0.61526 0.09794 0.0
C420 C 0.56642 0.51361 0.90299 0.0
O421 O 0.57951 0.49009 0.93131 0.0
C422 C 0.4327 0.52184 0.89703 0.0
O423 O 0.42583 0.54998 0.92353 0.0
Zn424 Zn 0.91835 0.47616 0.44982 0.0
Zn425 Zn 0.91953 0.56982 0.44108 0.0
O426 O 0.95357 0.52397 0.45493 0.0
H427 H 0.97735 0.52534 0.4713 0.0
C428 C 0.85146 0.42944 0.51932 0.0
O429 O 0.8419 0.46578 0.50871 0.0
Zn430 Zn 0.08801 0.57139 0.56345 0.0
Zn431 Zn 0.10168 0.47812 0.5585 0.0
O432 O 0.06183 0.5216 0.54843 0.0
H433 H 0.03752 0.51951 0.53294 0.0
Zn434 Zn 0.9088 0.47149 0.56927 0.0
O435 O 0.9182 0.52043 0.5361 0.0
Zn436 Zn 0.92408 0.56531 0.57581 0.0
H437 H 0.9035 0.52227 0.5114 0.0
Zn438 Zn 0.10605 0.48081 0.42848 0.0
O439 O 0.08836 0.52575 0.46476 0.0
H440 H 0.10389 0.52765 0.48894 0.0
Zn441 Zn 0.07914 0.57211 0.42793 0.0
C442 C 0.15778 0.43356 0.48122 0.0
O443 O 0.16384 0.46806 0.49869 0.0
O444 O 0.8619 0.48839 0.42714 0.0
O445 O 0.86571 0.55301 0.41341 0.0
O446 O 0.15613 0.49707 0.58172 0.0
O447 O 0.14445 0.56193 0.58954 0.0
O448 O 0.87432 0.4879 0.61616 0.0
O449 O 0.88975 0.55142 0.62624 0.0
C450 C -0.00437 0.60687 0.4087 0.0
O451 O 0.14318 0.50428 0.38729 0.0
O452 O 0.11661 0.56446 0.37916 0.0
O453 O 0.07396 0.42928 0.5821 0.0
C454 C 0.84628 0.52006 0.41309 0.0
O455 O 0.94847 0.42838 0.42577 0.0
C456 C 0.00743 0.59891 0.60006 0.0
O457 O 0.88061 0.42364 0.54298 0.0
C458 C 0.16776 0.53154 0.59273 0.0
O459 O 0.13294 0.431 0.4526 0.0
C460 C 0.88567 0.61618 0.51751 0.0
O461 O 0.95725 0.60723 0.4117 0.0
O462 O 0.01658 0.57817 0.42251 0.0
C463 C 0.86929 0.52039 0.63502 0.0
O464 O 0.04583 0.60028 0.5974 0.0
O465 O -0.01341 0.57517 0.57871 0.0
C466 C 0.11468 0.62174 0.48844 0.0
O467 O 0.89221 0.61268 0.55466 0.0
O468 O 0.90525 0.59328 0.4943 0.0
C469 C 0.14321 0.53812 0.37068 0.0
O470 O 0.10629 0.62082 0.45154 0.0
O471 O 0.09615 0.59759 0.51072 0.0
C472 C 0.03877 0.43427 0.59596 0.0
O473 O 0.02232 0.46981 0.59527 0.0
C474 C 0.98418 0.43266 0.41326 0.0
O475 O 0.00184 0.46725 0.41725 0.0
Zn476 Zn 0.4426 0.97553 0.44259 0.0
Zn477 Zn 0.41779 0.07172 0.44371 0.0
O478 O 0.46478 0.03231 0.43761 0.0
H479 H 0.48731 0.03574 0.41987 0.0
C480 C 0.40708 0.90043 0.51758 0.0
O481 O 0.43481 0.8958 0.49013 0.0
Zn482 Zn 0.58226 0.07971 0.56824 0.0
Zn483 Zn 0.58211 0.98218 0.57189 0.0
O484 O 0.54574 0.03092 0.57193 0.0
H485 H 0.51804 0.02924 0.5799 0.0
Zn486 Zn 0.4542 0.97365 0.55152 0.0
O487 O 0.45541 0.02986 0.52704 0.0
Zn488 Zn 0.45138 0.07087 0.57218 0.0
H489 H 0.45509 0.0024 0.53534 0.0
Zn490 Zn 0.57017 0.98981 0.43751 0.0
O491 O 0.5471 0.03626 0.47266 0.0
H492 H 0.53098 0.03207 0.49618 0.0
Zn493 Zn 0.54426 0.08709 0.43811 0.0
C494 C 0.61481 0.91974 0.48376 0.0
O495 O 0.61149 0.93942 0.51751 0.0
O496 O 0.38445 0.97923 0.42415 0.0
O497 O 0.37006 0.04409 0.42058 0.0
O498 O 0.63505 -0.00031 0.59647 0.0
O499 O 0.63531 0.06585 0.59214 0.0
O500 O 0.45948 0.97852 0.61225 0.0
O501 O 0.4386 0.04105 0.62181 0.0
C502 C 0.4637 0.13282 0.41363 0.0
O503 O 0.58754 0.01163 0.38331 0.0
O504 O 0.56688 0.0746 0.38602 0.0
O505 O 0.56536 0.92588 0.59387 0.0
C506 C 0.36111 0.00765 0.41441 0.0
O507 O 0.46862 0.92669 0.41106 0.0
C508 C 0.52196 0.12902 0.59779 0.0
O509 O 0.40903 0.92991 0.5417 0.0
C510 C 0.65149 0.0332 0.60292 0.0
O511 O 0.60046 0.93498 0.45198 0.0
C512 C 0.39909 0.1146 0.52486 0.0
O513 O 0.42708 0.12335 0.41516 0.0
O514 O 0.4884 0.10796 0.42841 0.0
C515 C 0.44606 0.00617 0.6348 0.0
O516 O 0.55984 0.12717 0.59736 0.0
O517 O 0.50348 0.09978 0.58206 0.0
C518 C 0.59383 0.12815 0.49149 0.0
O519 O 0.40948 0.11188 0.56104 0.0
O520 O 0.41233 0.0881 0.50093 0.0
C521 C 0.58359 0.0459 0.36777 0.0
O522 O 0.57964 0.13073 0.4567 0.0
O523 O 0.58304 0.0984 0.51211 0.0
C524 C 0.53568 0.90272 0.58888 0.0
O525 O 0.50582 0.91353 0.56582 0.0
C526 C 0.49654 0.90208 0.41945 0.0
O527 O 0.51669 0.90631 0.45285 0.0
C528 C 0.13796 0.20298 0.51101 0.0
C529 C 0.16902 0.1962 0.53841 0.0
H530 H 0.09063 0.17704 0.47697 0.0
C531 C 0.17037 0.16007 0.55928 0.0
H532 H 0.13625 0.23047 0.49434 0.0
C533 C 0.14436 0.12935 0.54906 0.0
C534 C 0.11682 0.13459 0.518 0.0
H535 H 0.19393 0.15434 0.58075 0.0
H536 H 0.14852 0.10051 0.56262 0.0
C537 C 0.11215 0.17225 0.5007 0.0
C538 C 0.86904 0.20815 0.49517 0.0
C539 C 0.83617 0.19524 0.47232 0.0
H540 H 0.92234 0.1914 0.52625 0.0
C541 C 0.83601 0.15604 0.45743 0.0
H542 H 0.86993 0.23787 0.50776 0.0
C543 C 0.86597 0.12923 0.46877 0.0
C544 C 0.89675 0.14158 0.4943 0.0
H545 H 0.81118 0.14534 0.43964 0.0
H546 H 0.86288 0.09818 0.46082 0.0
C547 C 0.89897 0.18149 0.50612 0.0
C548 C 0.86571 0.8377 0.52291 0.0
C549 C 0.84274 0.84495 0.48858 0.0
H550 H 0.90816 0.86069 0.56464 0.0
C551 C 0.84783 0.88051 0.46759 0.0
H552 H 0.8619 0.81058 0.5398 0.0
C553 C 0.87458 0.90911 0.48163 0.0
C554 C 0.89587 0.90277 0.51729 0.0
H555 H 0.83036 0.88655 0.44104 0.0
H556 H 0.87718 0.93684 0.46553 0.0
C557 C 0.89192 0.86645 0.53726 0.0
C558 C 0.1349 0.83348 0.5034 0.0
C559 C 0.16508 0.84257 0.53118 0.0
H560 H 0.08536 0.85468 0.46942 0.0
C561 C 0.16573 0.88047 0.54897 0.0
H562 H 0.13399 0.80479 0.48854 0.0
C563 C 0.1381 0.90945 0.53737 0.0
C564 C 0.10933 0.90085 0.50802 0.0
H565 H 0.18846 0.88812 0.57072 0.0
H566 H 0.14048 0.93901 0.55007 0.0
C567 C 0.10716 0.86224 0.49213 0.0
C568 C 0.52765 0.15977 0.19403 0.0
C569 C 0.49418 0.18471 0.18889 0.0
H570 H 0.56794 0.11812 0.16687 0.0
C571 C 0.47218 0.18266 0.1533 0.0
H572 H 0.54526 0.16098 0.22116 0.0
C573 C 0.48516 0.15804 0.12219 0.0
C574 C 0.5206 0.13565 0.1262 0.0
H575 H 0.44606 0.2014 0.14892 0.0
H576 H 0.46872 0.15839 0.09432 0.0
C577 C 0.54083 0.13551 0.16286 0.0
C578 C 0.8142 0.53728 0.20936 0.0
C579 C 0.79427 0.50069 0.20946 0.0
H580 H 0.86379 0.57027 0.18697 0.0
C581 C 0.80936 0.46838 0.18766 0.0
H582 H 0.80269 0.56242 0.22631 0.0
C583 C 0.84445 0.47254 0.16593 0.0
C584 C 0.86436 0.50927 0.1654 0.0
H585 H 0.7943 0.4399 0.18793 0.0
H586 H 0.8554 0.44727 0.14883 0.0
C587 C 0.84903 0.54165 0.1872 0.0
C588 C 0.55955 0.8685 0.15916 0.0
C589 C 0.53881 0.86159 0.19487 0.0
H590 H 0.55924 0.89815 0.10274 0.0
C591 C 0.50273 0.88206 0.20244 0.0
H592 H 0.58722 0.85276 0.15265 0.0
C593 C 0.48648 0.9073 0.17396 0.0
C594 C 0.50616 0.91286 0.1375 0.0
H595 H 0.48569 0.87666 0.22942 0.0
H596 H 0.45771 0.92122 0.17987 0.0
C597 C 0.54353 0.8944 0.13078 0.0
C598 C 0.21481 0.52002 0.15155 0.0
C599 C 0.2316 0.55799 0.15366 0.0
H600 H 0.16849 0.48422 0.12712 0.0
C601 C 0.21912 0.58791 0.12758 0.0
H602 H 0.22474 0.49661 0.17141 0.0
C603 C 0.18667 0.58113 0.10245 0.0
C604 C 0.16681 0.54437 0.10353 0.0
H605 H 0.23224 0.61729 0.129 0.0
H606 H 0.17531 0.60558 0.08475 0.0
C607 C 0.18269 0.51311 0.12634 0.0
C608 C 0.55171 0.8516 0.84643 0.0
C609 C 0.52627 0.84732 0.81335 0.0
H610 H 0.56009 0.87888 0.90381 0.0
C611 C 0.49107 0.87002 0.81104 0.0
H612 H 0.57897 0.83413 0.84861 0.0
C613 C 0.48005 0.89482 0.84253 0.0
C614 C 0.50435 0.89773 0.87659 0.0
H615 H 0.47085 0.86675 0.78594 0.0
H616 H 0.45173 0.91063 0.84082 0.0
C617 C 0.54101 0.87714 0.87777 0.0
C618 C 0.21096 0.57283 0.81029 0.0
C619 C 0.22721 0.53693 0.79652 0.0
H620 H 0.16229 0.60115 0.84046 0.0
C621 C 0.20647 0.50128 0.80137 0.0
H622 H 0.22649 0.60064 0.80554 0.0
C623 C 0.16965 0.50138 0.82072 0.0
C624 C 0.15321 0.53728 0.83506 0.0
H625 H 0.21853 0.47357 0.78968 0.0
H626 H 0.15433 0.47336 0.82473 0.0
C627 C 0.17406 0.57307 0.82946 0.0
C628 C 0.49141 0.15508 0.80818 0.0
C629 C 0.45994 0.18193 0.81606 0.0
H630 H 0.53334 0.11372 0.83229 0.0
C631 C 0.44254 0.18302 0.85429 0.0
H632 H 0.50598 0.15402 0.77926 0.0
C633 C 0.45851 0.15973 0.8849 0.0
C634 C 0.49226 0.13575 0.87751 0.0
H635 H 0.41836 0.20361 0.86101 0.0
H636 H 0.44651 0.1628 0.91479 0.0
C637 C 0.5075 0.13236 0.83868 0.0
C638 C 0.78331 0.48722 0.87764 0.0
C639 C 0.77039 0.52261 0.85993 0.0
H640 H 0.82721 0.45988 0.91489 0.0
C641 C 0.78654 0.55906 0.87177 0.0
H642 H 0.77085 0.45889 0.86851 0.0
C643 C 0.81839 0.55986 0.89836 0.0
C644 C 0.83482 0.52401 0.91248 0.0
H645 H 0.77653 0.58653 0.85813 0.0
H646 H 0.8323 0.58822 0.9048 0.0
C647 C 0.8155 0.48789 0.90396 0.0
C648 C 0.70882 0.67742 0.01905 0.0
C649 C 0.71448 0.69038 0.97982 0.0
H650 H 0.67171 0.64486 0.05898 0.0
C651 C 0.68744 0.68016 0.94979 0.0
H652 H 0.72928 0.68619 0.04258 0.0
C653 C 0.65465 0.65675 0.95895 0.0
C654 C 0.64849 0.64382 -0.00162 0.0
H655 H 0.69143 0.69077 0.91955 0.0
H656 H 0.63404 0.64915 0.93517 0.0
C657 C 0.67584 0.65429 0.02838 0.0
C658 C 0.30018 0.70158 0.97876 0.0
C659 C 0.27898 0.7047 0.01475 0.0
H660 H 0.34908 0.67443 0.94782 0.0
C661 C 0.28784 0.6791 0.0464 0.0
H662 H 0.29299 0.72077 0.95383 0.0
C663 C 0.32003 0.65275 0.0432 0.0
C664 C 0.34312 0.65147 0.00805 0.0
H665 H 0.27119 0.68092 0.07416 0.0
H666 H 0.32802 0.63484 0.06883 0.0
C667 C 0.33183 0.6748 0.97524 0.0
C668 C 0.29517 0.37453 0.9916 0.0
C669 C 0.28718 0.35073 0.02478 0.0
H670 H 0.33538 0.41541 0.96461 0.0
C671 C 0.31228 0.35186 0.0582 0.0
H672 H 0.27644 0.37305 0.96522 0.0
C673 C 0.34598 0.37599 0.058 0.0
C674 C 0.35515 0.39842 0.02397 0.0
H675 H 0.30668 0.33285 0.08361 0.0
H676 H 0.36565 0.3758 0.08371 0.0
C677 C 0.32912 0.39811 0.99108 0.0
C678 C 0.73266 0.35429 0.0244 0.0
C679 C 0.74192 0.33773 0.98702 0.0
H680 H 0.69164 0.3901 0.05808 0.0
C681 C 0.72016 0.34883 0.95323 0.0
H682 H 0.74949 0.34584 0.05071 0.0
C683 C 0.68757 0.3745 0.95715 0.0
C684 C 0.67591 0.38856 -0.00487 0.0
H685 H 0.72739 0.33636 0.92417 0.0
H686 H 0.67009 0.38118 0.93077 0.0
C687 C 0.69971 0.37955 0.0285 0.0
C688 C -0.0083 0.65384 0.69521 0.0
C689 C 0.96433 0.68374 0.68395 0.0
H690 H 0.02602 0.60319 0.67715 0.0
C691 C 0.9477 0.68279 0.64543 0.0
H692 H 0.00615 0.65423 0.72416 0.0
C693 C 0.95961 0.65322 0.61824 0.0
C694 C -0.01177 0.62472 0.62949 0.0
H695 H 0.92693 0.7057 0.63593 0.0
H696 H 0.94863 0.65423 0.58788 0.0
C697 C 0.00346 0.6247 0.66826 0.0
C698 C 0.38239 0.9481 0.70348 0.0
C699 C 0.3662 0.97924 0.7261 0.0
H700 H 0.42352 0.93197 0.65747 0.0
C701 C 0.38378 0.01696 0.72569 0.0
H702 H 0.36909 0.91878 0.70414 0.0
C703 C 0.41461 0.02479 0.69908 0.0
C704 C 0.42782 0.99484 0.67276 0.0
H705 H 0.37148 0.04108 0.74359 0.0
H706 H 0.42526 0.05506 0.69641 0.0
C707 C 0.41371 0.95572 0.67725 0.0
C708 C 0.97054 0.37955 0.6662 0.0
C709 C -0.01173 0.34163 0.66578 0.0
H710 H 0.97246 0.43889 0.64369 0.0
C711 C 0.01906 0.33315 0.63832 0.0
H712 H 0.94669 0.38666 0.68707 0.0
C713 C 0.03407 0.36289 0.61396 0.0
C714 C 0.01845 0.4016 0.61652 0.0
H715 H 0.03367 0.30429 0.6377 0.0
H716 H 0.0592 0.356 0.59457 0.0
C717 C -0.01462 0.40933 0.64149 0.0
C718 C 0.72723 0.07591 0.67341 0.0
C719 C 0.72866 0.0456 0.70184 0.0
H720 H 0.70167 0.09542 0.61829 0.0
C721 C 0.71041 0.00902 0.6942 0.0
H722 H 0.74196 0.10406 0.6789 0.0
C723 C 0.6886 0.00353 0.65937 0.0
C724 C 0.68407 0.03498 0.63219 0.0
H725 H 0.71212 0.98511 0.71574 0.0
H726 H 0.67294 0.97565 0.65533 0.0
C727 C 0.7047 0.07076 0.63877 0.0
C728 C 0.05127 0.37954 0.33908 0.0
C729 C 0.03163 0.34292 0.33569 0.0
H730 H 0.0521 0.4368 0.36741 0.0
C731 C -0.00092 0.33471 0.36095 0.0
H732 H 0.07641 0.38641 0.31988 0.0
C733 C -0.01494 0.36327 0.38766 0.0
C734 C 0.00325 0.40069 0.38973 0.0
H735 H 0.98289 0.30695 0.3585 0.0
H736 H 0.95886 0.35655 0.40548 0.0
C737 C 0.03737 0.40819 0.36625 0.0
C738 C 0.65247 0.03368 0.28078 0.0
C739 C 0.66586 0.0729 0.27684 0.0
H740 H 0.61471 0.99412 0.31313 0.0
C741 C 0.64778 0.1038 0.29824 0.0
H742 H 0.66671 0.00963 0.26429 0.0
C743 C 0.61767 0.0952 0.32536 0.0
C744 C 0.60639 0.05543 0.33196 0.0
H745 H 0.65826 0.1341 0.29535 0.0
H746 H 0.60563 0.11941 0.34328 0.0
C747 C 0.6229 0.02489 0.30847 0.0
C748 C 0.01056 0.70921 0.36875 0.0
C749 C 0.03945 0.70202 0.33891 0.0
H750 H 0.97402 0.6841 0.41445 0.0
C751 C 0.0593 0.66505 0.33779 0.0
H752 H -0.00576 0.73711 0.37027 0.0
C753 C 0.04677 0.63434 0.36261 0.0
C754 C 0.01506 0.64056 0.38936 0.0
H755 H 0.08172 0.65875 0.31517 0.0
H756 H 0.05908 0.60492 0.35811 0.0
C757 C -0.0016 0.67865 0.39368 0.0
C758 C 0.29665 0.01873 0.32425 0.0
C759 C 0.28919 0.97886 0.31479 0.0
H760 H 0.32349 0.05952 0.36486 0.0
C761 C 0.29944 0.94886 0.3417 0.0
H762 H 0.2875 0.04225 0.30415 0.0
C763 C 0.31982 0.95858 0.37674 0.0
C764 C 0.3296 0.99847 0.38524 0.0
H765 H 0.2925 0.91806 0.33516 0.0
H766 H 0.32962 0.93475 0.39612 0.0
C767 C 0.31637 0.02856 0.35939 0.0
C768 C -0.01466 0.20063 0.31078 0.0
C769 C 0.02359 0.20625 0.29415 0.0
H770 H 0.94979 0.16899 0.35339 0.0
C771 C 0.0547 0.18018 0.30441 0.0
H772 H 0.96131 0.2214 0.30431 0.0
C773 C 0.04829 0.15049 0.33265 0.0
C774 C 0.01076 0.14675 0.35164 0.0
H775 H 0.08475 0.18495 0.29321 0.0
H776 H 0.07352 0.13206 0.34128 0.0
C777 C 0.97902 0.17134 0.33954 0.0
C778 C 0.82245 0.03403 0.28501 0.0
C779 C 0.81004 0.07315 0.2778 0.0
H780 H 0.85345 0.9946 0.32392 0.0
C781 C 0.82251 0.10383 0.30345 0.0
H782 H 0.81203 0.00982 0.26627 0.0
C783 C 0.84563 0.09523 0.33704 0.0
C784 C 0.85612 0.0557 0.34568 0.0
H785 H 0.81216 0.13405 0.29885 0.0
H786 H 0.85436 0.11936 0.35671 0.0
C787 C 0.84513 0.02532 0.31873 0.0
C788 C 0.02171 0.8668 0.28116 0.0
C789 C 0.0016 0.83119 0.28904 0.0
H790 H 0.02669 0.92895 0.29545 0.0
C791 C 0.96912 0.83135 0.31571 0.0
H792 H 0.04731 0.86706 0.26126 0.0
C793 C 0.95851 0.86589 0.33632 0.0
C794 C 0.97969 0.90121 0.33007 0.0
H795 H 0.95353 0.80399 0.32248 0.0
H796 H 0.93429 0.86469 0.35785 0.0
C797 C 0.01035 0.90185 0.30117 0.0
C798 C 0.15167 0.02361 0.27279 0.0
C799 C 0.15879 0.98464 0.25899 0.0
H800 H 0.1252 0.05994 0.31864 0.0
C801 C 0.13523 0.95365 0.27396 0.0
H802 H 0.16979 0.04795 0.26194 0.0
C803 C 0.11032 0.96028 0.30694 0.0
C804 C 0.10836 0.99808 0.32498 0.0
H805 H 0.14061 0.92331 0.26417 0.0
H806 H 0.09574 0.93505 0.32054 0.0
C807 C 0.1272 0.0302 0.30611 0.0
C808 C 0.01417 0.85021 0.72559 0.0
C809 C 0.98265 0.82785 0.70919 0.0
H810 H 0.05289 0.90026 0.71905 0.0
C811 C 0.96338 0.84205 0.67461 0.0
H812 H 0.03019 0.84016 0.75176 0.0
C813 C 0.9775 0.87573 0.65507 0.0
C814 C 0.01022 0.89667 0.67047 0.0
H815 H 0.93831 0.82625 0.66171 0.0
H816 H 0.96338 0.88487 0.62749 0.0
C817 C 0.02747 0.88457 0.70664 0.0
C818 C 0.21792 0.03027 0.7017 0.0
C819 C 0.22103 0.99407 0.72226 0.0
H820 H 0.18996 0.06237 0.65407 0.0
C821 C 0.19684 0.96214 0.71087 0.0
H822 H 0.23731 0.0549 0.70939 0.0
C823 C 0.17073 0.96586 0.67858 0.0
C824 C 0.16831 0.00169 0.657 0.0
H825 H 0.19974 0.93364 0.72557 0.0
H826 H 0.15273 0.9404 0.67034 0.0
C827 C 0.19159 0.03417 0.66949 0.0
C828 C 0.96614 0.18394 0.68077 0.0
C829 C -0.00557 0.20346 0.705 0.0
H830 H 0.95626 0.14271 0.6327 0.0
C831 C 0.03458 0.19117 0.70316 0.0
H832 H 0.9351 0.19353 0.68103 0.0
C833 C 0.04683 0.1627 0.675 0.0
C834 C 0.01912 0.14573 0.64825 0.0
H835 H 0.05713 0.20636 0.7207 0.0
H836 H 0.07842 0.15549 0.67293 0.0
C837 C 0.97837 0.15534 0.65262 0.0
C838 C 0.87495 0.08184 0.75574 0.0
C839 C 0.8558 0.04807 0.77116 0.0
H840 H 0.91213 0.10481 0.70917 0.0
C841 C 0.87074 0.01036 0.76029 0.0
H842 H 0.86408 0.11129 0.76363 0.0
C843 C 0.8977 0.00646 0.7284 0.0
C844 C 0.91062 0.04033 0.70754 0.0
H845 H 0.85656 0.98379 0.77165 0.0
H846 H 0.90493 0.97685 0.7176 0.0
C847 C 0.90165 0.07807 0.72364 0.0
C848 C 0.26752 0.01595 0.14324 0.0
C849 C 0.28026 0.98489 0.16813 0.0
H850 H 0.28209 0.05351 0.09392 0.0
C851 C 0.31615 0.96457 0.15887 0.0
H852 H 0.24048 0.03265 0.1499 0.0
C853 C 0.34055 0.97741 0.12773 0.0
C854 C 0.32871 0.00978 0.1044 0.0
H855 H 0.32644 0.94007 0.17715 0.0
H856 H 0.36916 0.96288 0.12266 0.0
C857 C 0.29144 0.02804 0.11135 0.0
C858 C 0.05985 0.32915 0.1687 0.0
C859 C 0.02722 0.31693 0.19205 0.0
H860 H 0.08176 0.37165 0.12649 0.0
C861 C -0.01078 0.3333 0.18452 0.0
H862 H 0.08957 0.31751 0.17459 0.0
C863 C -0.01507 0.36504 0.15801 0.0
C864 C 0.01844 0.38038 0.13805 0.0
H865 H 0.96378 0.32479 0.20264 0.0
H866 H 0.95607 0.37975 0.15574 0.0
C867 C 0.05538 0.36038 0.14142 0.0
C868 C 0.7046 0.08785 0.12752 0.0
C869 C 0.73289 0.06495 0.1484 0.0
H870 H 0.65607 0.08616 0.08659 0.0
C871 C 0.74399 0.02738 0.1335 0.0
H872 H 0.69532 0.11673 0.1389 0.0
C873 C 0.72339 0.01115 0.101 0.0
C874 C 0.6909 0.03189 0.08444 0.0
H875 H 0.76507 0.00887 0.14962 0.0
H876 H 0.72997 0.98088 0.09169 0.0
C877 C 0.68213 0.07051 0.09736 0.0
C878 C 0.03225 0.71566 0.16329 0.0
C879 C 0.0086 0.71205 0.19757 0.0
H880 H 0.0513 0.68878 0.10852 0.0
C881 C 0.98136 0.68035 0.20026 0.0
H882 H 0.05382 0.7395 0.16087 0.0
C883 C 0.98046 0.65067 0.1709 0.0
C884 C 0.00662 0.65236 0.13817 0.0
H885 H 0.96296 0.67697 0.2267 0.0
H886 H 0.96071 0.62551 0.17481 0.0
C887 C 0.03111 0.68618 0.13369 0.0
C888 C 0.32237 0.96008 0.87344 0.0
C889 C 0.29847 0.98744 0.85238 0.0
H890 H 0.37588 0.95259 0.90724 0.0
C891 C 0.29952 0.02763 0.86366 0.0
H892 H 0.32205 0.92886 0.86517 0.0
C893 C 0.32977 0.04118 0.88903 0.0
C894 C 0.35899 0.01463 0.90363 0.0
H895 H 0.28122 0.04935 0.84821 0.0
H896 H 0.33207 0.07287 0.89458 0.0
C897 C 0.35375 0.97375 0.89729 0.0
C898 C 0.03324 0.33694 0.81421 0.0
C899 C -0.00227 0.3153 0.80857 0.0
H900 H 0.0613 0.3866 0.84305 0.0
C901 C 0.96525 0.32266 0.83426 0.0
H902 H 0.05845 0.33233 0.79426 0.0
C903 C 0.96673 0.35394 0.8621 0.0
C904 C 0.00057 0.37869 0.86431 0.0
H905 H 0.93725 0.30708 0.82989 0.0
H906 H 0.93995 0.361 0.87902 0.0
C907 C 0.0346 0.36847 0.84166 0.0
C908 C 0.71942 0.00486 0.86326 0.0
C909 C 0.72276 0.04327 0.84763 0.0
H910 H 0.6822 0.96323 0.89378 0.0
C911 C 0.69233 0.07133 0.85602 0.0
H912 H 0.74191 0.98246 0.85649 0.0
C913 C 0.65759 0.06016 0.87656 0.0
C914 C 0.65274 0.02074 0.88903 0.0
H915 H 0.69385 0.10092 0.84347 0.0
H916 H 0.63357 0.08162 0.88029 0.0
C917 C 0.6847 0.99367 0.88363 0.0
C918 C 0.95825 0.72205 0.84913 0.0
C919 C -0.01459 0.72457 0.81752 0.0
H920 H 0.9388 0.68849 0.89915 0.0
C921 C 0.01917 0.69925 0.81683 0.0
H922 H 0.9318 0.74086 0.84987 0.0
C923 C 0.02235 0.66789 0.84384 0.0
C924 C -0.00768 0.66224 0.87246 0.0
H925 H 0.04025 0.70055 0.79222 0.0
H926 H 0.0466 0.64658 0.84047 0.0
C927 C 0.96195 0.69135 0.87674 0.0
C928 C 0.12731 0.32937 0.02457 0.0
C929 C 0.14981 0.31206 -0.00667 0.0
H930 H 0.08566 0.37505 0.04192 0.0
C931 C 0.14066 0.32256 0.95388 0.0
H932 H 0.13438 0.32242 0.05534 0.0
C933 C 0.11333 0.35336 0.94615 0.0
C934 C 0.09454 0.37411 0.97776 0.0
H935 H 0.15804 0.31031 0.92934 0.0
H936 H 0.10932 0.36293 0.91557 0.0
C937 C 0.09986 0.36007 0.01688 0.0
C938 C 0.12597 0.7063 0.04761 0.0
C939 C 0.13689 0.73769 0.02199 0.0
H940 H 0.09942 0.64863 0.05167 0.0
C941 C 0.11697 0.74124 0.98537 0.0
H942 H 0.14081 0.70292 0.07617 0.0
C943 C 0.09261 0.71033 0.97161 0.0
C944 C 0.08785 0.67539 -0.00579 0.0
H945 H 0.12456 0.76499 0.96501 0.0
H946 H 0.08081 0.71215 0.94154 0.0
C947 C 0.10241 0.67488 0.03346 0.0
C948 C 0.2744 0.18836 0.02926 0.0
C949 C 0.26685 0.21181 -0.00441 0.0
H950 H 0.31486 0.14909 0.05894 0.0
C951 C 0.29303 0.20855 0.96268 0.0
H952 H 0.25553 0.19119 0.0555 0.0
C953 C 0.32809 0.18542 0.96498 0.0
C954 C 0.33757 0.16495 0.00025 0.0
H955 H 0.28854 0.2272 0.93677 0.0
H956 H 0.34846 0.18489 0.93978 0.0
C957 C 0.30928 0.16528 0.03161 0.0
C958 C 0.9 0.31874 0.96648 0.0
C959 C 0.88212 0.29707 -0.00253 0.0
H960 H 0.93368 0.37018 0.95082 0.0
C961 C 0.89417 0.30476 0.03693 0.0
H962 H 0.89067 0.31393 0.93584 0.0
C963 C 0.91869 0.33741 0.04563 0.0
C964 C 0.93136 0.36291 0.01494 0.0
H965 H 0.88035 0.28897 0.06143 0.0
H966 H 0.92433 0.3448 0.07665 0.0
C967 C 0.92407 0.3516 0.97516 0.0
C968 C 0.72418 0.84097 0.93674 0.0
C969 C 0.74777 0.82852 0.96929 0.0
H970 H 0.6704 0.87037 0.91753 0.0
C971 C 0.73854 0.84361 0.0074 0.0
H972 H 0.73017 0.82924 0.90711 0.0
C973 C 0.70372 0.86628 0.01358 0.0
C974 C 0.67735 0.87436 0.98176 0.0
H975 H 0.75554 0.83392 0.03316 0.0
H976 H 0.6964 0.87564 0.04374 0.0
C977 C 0.68904 0.86315 0.94296 0.0
C978 C 0.86914 0.68816 0.95483 0.0
C979 C 0.8572 0.7199 0.97989 0.0
H980 H 0.89661 0.63093 0.9514 0.0
C981 C 0.8754 0.72356 0.01744 0.0
H982 H 0.85493 0.68414 0.926 0.0
C983 C 0.90099 0.69344 0.03143 0.0
C984 C 0.90833 0.65883 0.0084 0.0
H985 H 0.86633 0.74719 0.0377 0.0
H986 H 0.91239 0.69578 0.06163 0.0
C987 C 0.89327 0.65737 0.96939 0.0
C988 C 0.26104 0.85735 0.97395 0.0
C989 C 0.24394 0.8464 0.01068 0.0
H990 H 0.30696 0.89021 0.94413 0.0
C991 C 0.2556 0.86706 0.04529 0.0
H992 H 0.25326 0.84128 0.94693 0.0
C993 C 0.28696 0.89464 0.04394 0.0
C994 C 0.30746 0.90198 0.00791 0.0
H995 H 0.24359 0.85865 0.07409 0.0
H996 H 0.29717 0.90773 0.07173 0.0
C997 C 0.29242 0.8849 0.97253 0.0
C998 C 0.75039 0.18295 0.94274 0.0
C999 C 0.76995 0.19495 0.97798 0.0
H1000 H 0.70244 0.14937 0.91682 0.0
C1001 C 0.76009 0.17606 0.01388 0.0
H1002 H 0.75689 0.19768 0.9148 0.0
C1003 C 0.72838 0.14896 0.01529 0.0
C1004 C 0.70577 0.14026 0.98077 0.0
H1005 H 0.77398 0.18539 0.0416 0.0
H1006 H 0.71977 0.13717 0.04407 0.0
C1007 C 0.7187 0.15576 0.94406 0.0
C1008 C 0.48962 0.69157 0.79557 0.0
C1009 C 0.52813 0.70467 0.78522 0.0
H1010 H 0.4539 0.65902 0.83723 0.0
C1011 C 0.56133 0.68808 0.80489 0.0
H1012 H 0.46349 0.7046 0.7815 0.0
C1013 C 0.55594 0.66256 0.83735 0.0
C1014 C 0.51719 0.6533 0.85086 0.0
H1015 H 0.59127 0.69831 0.79804 0.0
H1016 H 0.58211 0.65273 0.85373 0.0
C1017 C 0.48416 0.66602 0.82806 0.0
C1018 C 0.38484 0.56911 0.80588 0.0
C1019 C 0.37363 0.5355 0.78335 0.0
H1020 H 0.4121 0.59125 0.85945 0.0
C1021 C 0.38936 0.49827 0.79449 0.0
H1022 H 0.37241 0.59805 0.79872 0.0
C1023 C 0.41201 0.4942 0.82969 0.0
C1024 C 0.41892 0.52723 0.85483 0.0
H1025 H 0.38043 0.47168 0.77848 0.0
H1026 H 0.42089 0.46463 0.83895 0.0
C1027 C 0.40703 0.56505 0.84123 0.0
C1028 C 0.44354 0.34442 0.80663 0.0
C1029 C 0.47456 0.3224 0.78845 0.0
H1030 H 0.4265 0.38476 0.85348 0.0
C1031 C 0.5142 0.32985 0.80039 0.0
H1032 H 0.41265 0.3386 0.79874 0.0
C1033 C 0.52223 0.35578 0.83244 0.0
C1034 C 0.49072 0.37463 0.85338 0.0
H1035 H 0.5386 0.31256 0.78767 0.0
H1036 H 0.55289 0.35882 0.84251 0.0
C1037 C 0.45151 0.3703 0.83862 0.0
C1038 C 0.62688 0.47045 0.818 0.0
C1039 C 0.63883 0.50559 0.79875 0.0
H1040 H 0.59485 0.44556 0.86736 0.0
C1041 C 0.6165 0.54047 0.80596 0.0
H1042 H 0.64367 0.44315 0.81322 0.0
C1043 C 0.58847 0.54199 0.83723 0.0
C1044 C 0.58243 0.50857 0.86167 0.0
H1045 H 0.62515 0.56807 0.79187 0.0
H1046 H 0.57545 0.57053 0.84519 0.0
C1047 C 0.59943 0.47205 0.8497 0.0
C1048 C 0.45806 0.34222 0.19012 0.0
C1049 C 0.48787 0.32761 0.21614 0.0
H1050 H 0.44474 0.37802 0.13863 0.0
C1051 C 0.52642 0.34378 0.21372 0.0
H1052 H 0.42828 0.32959 0.19074 0.0
C1053 C 0.5361 0.37045 0.18323 0.0
C1054 C 0.50732 0.38204 0.15475 0.0
H1055 H 0.55019 0.33253 0.23263 0.0
H1056 H 0.56691 0.38007 0.18046 0.0
C1057 C 0.4676 0.36953 0.15992 0.0
C1058 C 0.64927 0.4467 0.18721 0.0
C1059 C 0.65017 0.47377 0.21982 0.0
H1060 H 0.62886 0.43592 0.12713 0.0
C1061 C 0.6208 0.50359 0.2215 0.0
H1062 H 0.67128 0.42296 0.18529 0.0
C1063 C 0.59613 0.51051 0.18844 0.0
C1064 C 0.60045 0.48795 0.15293 0.0
H1065 H 0.62037 0.52483 0.24596 0.0
H1066 H 0.5766 0.53636 0.1892 0.0
C1067 C 0.62502 0.45407 0.1537 0.0
C1068 C 0.50228 0.70227 0.21094 0.0
C1069 C 0.54097 0.71832 0.21202 0.0
H1070 H 0.46092 0.66504 0.17946 0.0
C1071 C 0.56994 0.70342 0.18505 0.0
H1072 H 0.47921 0.7136 0.23081 0.0
C1073 C 0.55956 0.67542 0.1556 0.0
C1074 C 0.51978 0.66257 0.15205 0.0
H1075 H 0.59985 0.71576 0.18485 0.0
H1076 H 0.58183 0.66629 0.1338 0.0
C1077 C 0.49171 0.67494 0.18107 0.0
C1078 C 0.38961 0.55108 0.21254 0.0
C1079 C 0.36593 0.58459 0.2045 0.0
H1080 H 0.43295 0.51 0.18946 0.0
C1081 C 0.37715 0.60946 0.17267 0.0
H1082 H 0.38202 0.53151 0.23698 0.0
C1083 C 0.40412 0.59569 0.1437 0.0
C1084 C 0.42286 0.5586 0.14808 0.0
H1085 H 0.35942 0.63569 0.16601 0.0
H1086 H 0.40616 0.61175 0.11605 0.0
C1087 C 0.41813 0.5383 0.18457 0.0
C1088 C 0.78924 0.55974 0.70681 0.0
C1089 C 0.76668 0.52525 0.71446 0.0
H1090 H 0.83968 0.58542 0.67665 0.0
C1091 C 0.77739 0.48984 0.69487 0.0
H1092 H 0.78233 0.5872 0.72252 0.0
C1093 C 0.81092 0.48846 0.66972 0.0
C1094 C 0.83473 0.52251 0.66335 0.0
H1095 H 0.76155 0.46254 0.70122 0.0
H1096 H 0.8186 0.46022 0.65588 0.0
C1097 C 0.82275 0.55847 0.68142 0.0
C1098 C 0.49557 0.82175 0.65591 0.0
C1099 C 0.53129 0.80672 0.67237 0.0
H1100 H 0.46883 0.86402 0.61598 0.0
C1101 C 0.56796 0.81834 0.6557 0.0
H1102 H 0.46698 0.81414 0.66908 0.0
C1103 C 0.56914 0.84769 0.62629 0.0
C1104 C 0.53363 0.86566 0.61264 0.0
H1105 H 0.59588 0.80799 0.66853 0.0
H1106 H 0.59803 0.85821 0.61619 0.0
C1107 C 0.4967 0.85077 0.62596 0.0
C1108 C 0.26558 0.50359 0.64441 0.0
C1109 C 0.27713 0.54006 0.66147 0.0
H1110 H 0.22172 0.47209 0.6102 0.0
C1111 C 0.25765 0.57485 0.64802 0.0
H1112 H 0.27929 0.47617 0.65457 0.0
C1113 C 0.22338 0.57254 0.62373 0.0
C1114 C 0.20838 0.5354 0.61146 0.0
H1115 H 0.26529 0.60339 0.66105 0.0
H1116 H 0.20705 0.59963 0.6171 0.0
C1117 C 0.23158 0.50124 0.61984 0.0
C1118 C 0.50929 0.22236 0.66072 0.0
C1119 C 0.47076 0.21721 0.67654 0.0
H1120 H 0.55541 0.19859 0.62297 0.0
C1121 C 0.4463 0.1873 0.65978 0.0
H1122 H 0.52902 0.24481 0.67295 0.0
C1123 C 0.46196 0.15961 0.6324 0.0
C1124 C 0.50197 0.1621 0.62003 0.0
H1125 H 0.41635 0.18262 0.67128 0.0
H1126 H 0.44377 0.13456 0.62371 0.0
C1127 C 0.52464 0.1952 0.63262 0.0
C1128 C 0.75265 0.54595 0.3531 0.0
C1129 C 0.73863 0.5077 0.34273 0.0
H1130 H 0.79872 0.58002 0.38201 0.0
C1131 C 0.7542 0.47509 0.36372 0.0
H1132 H 0.74163 0.57172 0.33713 0.0
C1133 C 0.78753 0.47968 0.38876 0.0
C1134 C 0.80582 0.51712 0.39392 0.0
H1135 H 0.74461 0.44523 0.35617 0.0
H1136 H 0.80096 0.45317 0.40119 0.0
C1137 C 0.78629 0.55058 0.37793 0.0
C1138 C 0.48771 0.82894 0.33326 0.0
C1139 C 0.52724 0.81483 0.3294 0.0
H1140 H 0.4473 0.8682 0.36407 0.0
C1141 C 0.55537 0.82554 0.3587 0.0
H1142 H 0.46576 0.82213 0.31043 0.0
C1143 C 0.54476 0.85195 0.3897 0.0
C1144 C 0.50622 0.86909 0.39113 0.0
H1145 H 0.58632 0.81614 0.35575 0.0
H1146 H 0.5675 0.86115 0.41077 0.0
C1147 C 0.47741 0.85604 0.36349 0.0
C1148 C 0.21823 0.59692 0.3096 0.0
C1149 C 0.24543 0.56705 0.29765 0.0
H1150 H 0.16389 0.61117 0.34089 0.0
C1151 C 0.24029 0.52835 0.31211 0.0
H1152 H 0.22083 0.6267 0.29771 0.0
C1153 C 0.20708 0.51909 0.33571 0.0
C1154 C 0.17817 0.54835 0.34533 0.0
H1155 H 0.25993 0.50451 0.30214 0.0
H1156 H 0.20337 0.48857 0.34516 0.0
C1157 C 0.18492 0.5877 0.33319 0.0
C1158 C 0.4532 0.22591 0.35161 0.0
C1159 C 0.48911 0.22539 0.32995 0.0
H1160 H 0.41715 0.1968 0.39538 0.0
C1161 C 0.52013 0.19962 0.34246 0.0
H1162 H 0.42864 0.24493 0.34237 0.0
C1163 C 0.51346 0.17145 0.37252 0.0
C1164 C 0.47557 0.16852 0.39041 0.0
H1165 H 0.54799 0.19823 0.32586 0.0
H1166 H 0.53664 0.14982 0.379 0.0
C1167 C 0.44646 0.1977 0.38147 0.0
C1168 C 0.68386 0.83476 0.51488 0.0
C1169 C 0.69834 0.82101 0.4778 0.0
H1170 H 0.64603 0.87646 0.54597 0.0
C1171 C 0.68086 0.83611 0.44284 0.0
H1172 H 0.69755 0.82449 0.5423 0.0
C1173 C 0.65172 0.86636 0.44479 0.0
C1174 C 0.63965 0.88257 0.48181 0.0
H1175 H 0.69224 0.82696 0.41388 0.0
H1176 H 0.6408 0.87891 0.41713 0.0
C1177 C 0.65479 0.8651 0.51689 0.0
C1178 C 0.65527 0.22079 0.48575 0.0
C1179 C 0.69108 0.20793 0.50341 0.0
H1180 H 0.59539 0.20557 0.46941 0.0
C1181 C 0.69074 0.17263 0.52604 0.0
H1182 H 0.65441 0.24782 0.46832 0.0
C1183 C 0.65682 0.14821 0.52662 0.0
C1184 C 0.62269 0.15882 0.50472 0.0
H1185 H 0.71768 0.1624 0.54086 0.0
H1186 H 0.65888 0.1194 0.54069 0.0
C1187 C 0.62144 0.19645 0.4864 0.0
C1188 C 0.79991 0.69085 0.51984 0.0
C1189 C 0.80089 0.70643 0.48111 0.0
H1190 H 0.82631 0.65072 0.5617 0.0
C1191 C 0.8264 0.68829 0.45266 0.0
H1192 H 0.78144 0.7048 0.54263 0.0
C1193 C 0.85261 0.65735 0.46359 0.0
C1194 C 0.85431 0.6445 0.5034 0.0
H1195 H 0.82849 0.7004 0.42281 0.0
H1196 H 0.87331 0.64543 0.44158 0.0
C1197 C 0.82641 0.66042 0.5309 0.0
C1198 C 0.33141 0.81837 0.49488 0.0
C1199 C 0.31053 0.81604 0.53129 0.0
H1200 H 0.37835 0.84706 0.46181 0.0
C1201 C 0.3237 0.83936 0.56365 0.0
H1202 H 0.32123 0.80163 0.46913 0.0
C1203 C 0.35536 0.86609 0.55925 0.0
C1204 C 0.37505 0.87007 0.52238 0.0
H1205 H 0.30771 0.8387 0.59183 0.0
H1206 H 0.36378 0.88439 0.58459 0.0
C1207 C 0.36365 0.84489 0.49057 0.0
C1208 C 0.21283 0.3562 0.54209 0.0
C1209 C 0.22325 0.32838 0.51231 0.0
H1210 H 0.18423 0.41219 0.55538 0.0
C1211 C 0.21469 0.33684 0.47228 0.0
H1212 H 0.21821 0.34963 0.57327 0.0
C1213 C 0.19392 0.37146 0.46229 0.0
C1214 C 0.18211 0.39863 0.4921 0.0
H1215 H 0.22153 0.31528 0.44904 0.0
H1216 H 0.18626 0.37654 0.43129 0.0
C1217 C 0.193 0.39156 0.53194 0.0
C1218 C 0.31302 0.1733 0.48189 0.0
C1219 C 0.31263 0.20649 0.50787 0.0
H1220 H 0.34155 0.11783 0.46629 0.0
C1221 C 0.34554 0.21295 0.53285 0.0
H1222 H 0.2878 0.16776 0.46233 0.0
C1223 C 0.37582 0.18424 0.53545 0.0
C1224 C 0.37391 0.14881 0.51281 0.0
H1225 H 0.34587 0.23807 0.55326 0.0
H1226 H 0.39924 0.18844 0.55743 0.0
C1227 C 0.34365 0.1447 0.48416 0.0
C1228 C 0.79462 0.35289 0.45954 0.0
C1229 C 0.78072 0.32788 0.49005 0.0
H1230 H 0.82835 0.40521 0.44521 0.0
C1231 C 0.78723 0.33861 0.53005 0.0
H1232 H 0.79094 0.34448 0.42849 0.0
C1233 C 0.80966 0.37228 0.53942 0.0
C1234 C 0.82508 0.39621 0.50895 0.0
H1235 H 0.77783 0.31917 0.55397 0.0
H1236 H 0.816 0.37897 0.57046 0.0
C1237 C 0.81626 0.38723 0.46901 0.0
C1238 C 0.20387 0.69132 0.48614 0.0
C1239 C 0.20653 0.70378 0.52606 0.0
H1240 H 0.17231 0.65641 0.44305 0.0
C1241 C 0.1825 0.68462 0.55476 0.0
H1242 H 0.2212 0.70609 0.46326 0.0
C1243 C 0.15378 0.6564 0.54318 0.0
C1244 C 0.14826 0.6472 0.50261 0.0
H1245 H 0.18332 0.6943 0.58566 0.0
H1246 H 0.13419 0.64392 0.5656 0.0
C1247 C 0.17497 0.66355 0.47453 0.0
loop_
_geom_bond_atom_site_label_1
_geom_bond_atom_site_label_2
_geom_bond_distance
_geom_bond_site_symmetry_2
_ccdc_geom_bond_type
H0 C3 0.931 . S
H1 C6 0.928 . S
H2 C8 0.930 . S
C3 H0 0.931 . S
C3 C4 1.413 . S
C3 C5 1.360 . S
C4 C3 1.413 . S
C4 C8 1.429 . S
C5 C3 1.360 . S
C5 C6 1.372 . S
C6 H1 0.928 . S
C6 C5 1.372 . S
C6 C7 1.404 . S
C7 C6 1.404 . S
C7 C8 1.391 . S
C8 H2 0.930 . S
C8 C4 1.429 . S
C8 C7 1.391 . S
H9 C12 0.931 . S
H10 C15 0.928 . S
H11 C17 0.930 . S
C12 H9 0.931 . S
C12 C13 1.413 . S
C12 C14 1.360 . S
C13 C12 1.413 . S
C13 C17 1.429 . S
C14 C12 1.360 . S
C14 C15 1.372 . S
C15 H10 0.928 . S
C15 C14 1.372 . S
C15 C16 1.404 . S
C16 C15 1.404 . S
C16 C17 1.391 . S
C17 H11 0.930 . S
C17 C13 1.429 . S
C17 C16 1.391 . S
H18 C21 0.931 . S
H19 C24 0.928 . S
H20 C26 0.930 . S
C21 H18 0.931 . S
C21 C22 1.413 . S
C21 C23 1.360 . S
C22 C21 1.413 . S
C22 C26 1.429 . S
C23 C21 1.360 . S
C23 C24 1.372 . S
C24 H19 0.928 . S
C24 C23 1.372 . S
C24 C25 1.404 . S
C25 C24 1.404 . S
C25 C26 1.391 . S
C26 H20 0.930 . S
C26 C22 1.429 . S
C26 C25 1.391 . S
H27 C30 0.931 . S
H28 C33 0.928 . S
H29 C35 0.930 . S
C30 H27 0.931 . S
C30 C31 1.413 . S
C30 C32 1.360 . S
C31 C30 1.413 . S
C31 C35 1.429 . S
C32 C30 1.360 . S
C32 C33 1.372 . S
C33 H28 0.928 . S
C33 C32 1.372 . S
C33 C34 1.404 . S
C34 C33 1.404 . S
C34 C35 1.391 . S
C35 H29 0.930 . S
C35 C31 1.429 . S
C35 C34 1.391 . S
H36 C39 0.931 . S
H37 C42 0.928 . S
H38 C44 0.931 . S
C39 H36 0.931 . S
C39 C40 1.413 . S
C39 C41 1.360 . S
C40 C39 1.413 . S
C40 C44 1.429 1_655 S
C41 C39 1.360 . S
C41 C42 1.372 . S
C42 H37 0.928 . S
C42 C41 1.372 . S
C42 C43 1.404 . S
C43 C42 1.404 . S
C43 C44 1.390 1_655 S
C44 H38 0.931 . S
C44 C40 1.429 1_455 S
C44 C43 1.390 1_455 S
H45 C48 0.931 . S
H46 C51 0.928 . S
H47 C53 0.930 . S
C48 H45 0.931 . S
C48 C49 1.413 . S
C48 C50 1.360 . S
C49 C48 1.413 . S
C49 C53 1.429 . S
C50 C48 1.360 . S
C50 C51 1.372 . S
C51 H46 0.928 . S
C51 C50 1.372 . S
C51 C52 1.404 . S
C52 C51 1.404 . S
C52 C53 1.391 . S
C53 H47 0.930 . S
C53 C49 1.429 . S
C53 C52 1.391 . S
H54 C57 0.931 . S
H55 C60 0.928 . S
H56 C62 0.930 . S
C57 H54 0.931 . S
C57 C58 1.413 . S
C57 C59 1.360 . S
C58 C57 1.413 . S
C58 C62 1.429 . S
C59 C57 1.360 . S
C59 C60 1.372 . S
C60 H55 0.928 . S
C60 C59 1.372 . S
C60 C61 1.404 . S
C61 C60 1.404 . S
C61 C62 1.391 . S
C62 H56 0.930 . S
C62 C58 1.429 . S
C62 C61 1.391 . S
H63 C66 0.931 . S
H64 C69 0.928 . S
H65 C71 0.930 . S
C66 H63 0.931 . S
C66 C67 1.413 . S
C66 C68 1.360 . S
C67 C66 1.413 . S
C67 C71 1.429 . S
C68 C66 1.360 . S
C68 C69 1.372 . S
C69 H64 0.928 . S
C69 C68 1.372 . S
C69 C70 1.404 . S
C70 C69 1.404 . S
C70 C71 1.391 . S
C71 H65 0.930 . S
C71 C67 1.429 . S
C71 C70 1.391 . S
H72 C75 0.931 . S
H73 C78 0.928 . S
H74 C80 0.930 . S
C75 H72 0.931 . S
C75 C76 1.413 . S
C75 C77 1.360 . S
C76 C75 1.413 . S
C76 C80 1.429 . S
C77 C75 1.360 . S
C77 C78 1.372 . S
C78 H73 0.928 . S
C78 C77 1.372 . S
C78 C79 1.404 . S
C79 C78 1.404 . S
C79 C80 1.391 . S
C80 H74 0.930 . S
C80 C76 1.429 . S
C80 C79 1.391 . S
H81 C84 0.931 . S
H82 C87 0.928 . S
H83 C89 0.930 . S
C84 H81 0.931 . S
C84 C85 1.413 . S
C84 C86 1.360 . S
C85 C84 1.413 . S
C85 C89 1.429 . S
C86 C84 1.360 . S
C86 C87 1.372 . S
C87 H82 0.928 . S
C87 C86 1.372 . S
C87 C88 1.404 . S
C88 C87 1.404 . S
C88 C89 1.391 . S
C89 H83 0.930 . S
C89 C85 1.429 . S
C89 C88 1.391 . S
H90 C93 0.931 . S
H91 C96 0.928 1_556 S
H92 C98 0.930 . S
C93 H90 0.931 . S
C93 C94 1.413 . S
C93 C95 1.360 . S
C94 C93 1.413 . S
C94 C98 1.429 . S
C95 C93 1.360 . S
C95 C96 1.372 . S
C96 H91 0.928 1_554 S
C96 C95 1.372 . S
C96 C97 1.404 . S
C97 C96 1.404 . S
C97 C98 1.391 . S
C98 H92 0.930 . S
C98 C94 1.429 . S
C98 C97 1.391 . S
H99 C102 0.931 . S
H100 C105 0.928 . S
H101 C107 0.930 . S
C102 H99 0.931 . S
C102 C103 1.413 . S
C102 C104 1.360 . S
C103 C102 1.413 . S
C103 C107 1.429 . S
C104 C102 1.360 . S
C104 C105 1.372 . S
C105 H100 0.928 . S
C105 C104 1.372 . S
C105 C106 1.404 . S
C106 C105 1.404 . S
C106 C107 1.391 . S
C107 H101 0.930 . S
C107 C103 1.429 . S
C107 C106 1.391 . S
H108 C111 0.931 . S
H109 C114 0.928 . S
H110 C116 0.930 . S
C111 H108 0.931 . S
C111 C112 1.413 . S
C111 C113 1.360 . S
C112 C111 1.413 . S
C112 C116 1.429 . S
C113 C111 1.360 . S
C113 C114 1.372 . S
C114 H109 0.928 . S
C114 C113 1.372 . S
C114 C115 1.404 . S
C115 C114 1.404 . S
C115 C116 1.391 . S
C116 H110 0.930 . S
C116 C112 1.429 . S
C116 C115 1.391 . S
H117 C120 0.931 . S
H118 C123 0.928 . S
H119 C125 0.930 . S
C120 H117 0.931 . S
C120 C121 1.413 . S
C120 C122 1.360 . S
C121 C120 1.413 . S
C121 C125 1.429 . S
C122 C120 1.360 . S
C122 C123 1.372 . S
C123 H118 0.928 . S
C123 C122 1.372 . S
C123 C124 1.404 . S
C124 C123 1.404 . S
C124 C125 1.391 . S
C125 H119 0.930 . S
C125 C121 1.429 . S
C125 C124 1.391 . S
H126 C129 0.931 . S
H127 C132 0.928 . S
H128 C134 0.930 . S
C129 H126 0.931 . S
C129 C130 1.413 . S
C129 C131 1.360 . S
C130 C129 1.413 . S
C130 C134 1.429 . S
C131 C129 1.360 . S
C131 C132 1.372 . S
C132 H127 0.928 . S
C132 C131 1.372 . S
C132 C133 1.404 . S
C133 C132 1.404 . S
C133 C134 1.391 . S
C134 H128 0.930 . S
C134 C130 1.429 . S
C134 C133 1.391 . S
H135 C138 0.931 . S
H136 C141 0.928 . S
H137 C143 0.930 . S
C138 H135 0.931 . S
C138 C139 1.413 . S
C138 C140 1.360 . S
C139 C138 1.413 . S
C139 C143 1.429 . S
C140 C138 1.360 . S
C140 C141 1.372 . S
C141 H136 0.928 . S
C141 C140 1.372 . S
C141 C142 1.404 . S
C142 C141 1.404 . S
C142 C143 1.391 . S
C143 H137 0.930 . S
C143 C139 1.429 . S
C143 C142 1.391 . S
H144 C147 0.931 . S
H145 C150 0.928 . S
H146 C152 0.930 . S
C147 H144 0.931 . S
C147 C148 1.413 . S
C147 C149 1.360 . S
C148 C147 1.413 . S
C148 C152 1.429 . S
C149 C147 1.360 . S
C149 C150 1.372 . S
C150 H145 0.928 . S
C150 C149 1.372 . S
C150 C151 1.404 . S
C151 C150 1.404 . S
C151 C152 1.391 . S
C152 H146 0.930 . S
C152 C148 1.429 . S
C152 C151 1.391 . S
H153 C156 0.931 . S
H154 C159 0.928 . S
H155 C161 0.930 . S
C156 H153 0.931 . S
C156 C157 1.413 . S
C156 C158 1.360 . S
C157 C156 1.413 . S
C157 C161 1.429 . S
C158 C156 1.360 . S
C158 C159 1.372 . S
C159 H154 0.928 . S
C159 C158 1.372 . S
C159 C160 1.404 . S
C160 C159 1.404 . S
C160 C161 1.391 . S
C161 H155 0.930 . S
C161 C157 1.429 . S
C161 C160 1.391 . S
H162 C165 0.931 . S
H163 C168 0.928 . S
H164 C170 0.930 . S
C165 H162 0.931 . S
C165 C166 1.413 . S
C165 C167 1.360 . S
C166 C165 1.413 . S
C166 C170 1.429 . S
C167 C165 1.360 . S
C167 C168 1.372 . S
C168 H163 0.928 . S
C168 C167 1.372 . S
C168 C169 1.404 . S
C169 C168 1.404 . S
C169 C170 1.391 . S
C170 H164 0.930 . S
C170 C166 1.429 . S
C170 C169 1.391 . S
H171 C174 0.931 . S
H172 C177 0.928 . S
H173 C179 0.930 . S
C174 H171 0.931 . S
C174 C175 1.413 . S
C174 C176 1.360 . S
C175 C174 1.413 . S
C175 C179 1.429 . S
C176 C174 1.360 . S
C176 C177 1.372 . S
C177 H172 0.928 . S
C177 C176 1.372 . S
C177 C178 1.404 . S
C178 C177 1.404 . S
C178 C179 1.391 . S
C179 H173 0.930 . S
C179 C175 1.429 . S
C179 C178 1.391 . S
H180 C183 0.931 . S
H181 C186 0.928 . S
H182 C188 0.930 . S
C183 H180 0.931 . S
C183 C184 1.413 . S
C183 C185 1.360 . S
C184 C183 1.413 . S
C184 C188 1.429 . S
C185 C183 1.360 . S
C185 C186 1.372 . S
C186 H181 0.928 . S
C186 C185 1.372 . S
C186 C187 1.404 . S
C187 C186 1.404 . S
C187 C188 1.391 . S
C188 H182 0.930 . S
C188 C184 1.429 . S
C188 C187 1.391 . S
H189 C192 0.931 . S
H190 C195 0.928 . S
H191 C197 0.930 . S
C192 H189 0.931 . S
C192 C193 1.413 . S
C192 C194 1.360 . S
C193 C192 1.413 . S
C193 C197 1.429 . S
C194 C192 1.360 . S
C194 C195 1.372 . S
C195 H190 0.928 . S
C195 C194 1.372 . S
C195 C196 1.404 . S
C196 C195 1.404 . S
C196 C197 1.391 . S
C197 H191 0.930 . S
C197 C193 1.429 . S
C197 C196 1.391 . S
H198 C201 0.931 . S
H199 C204 0.928 . S
H200 C206 0.930 . S
C201 H198 0.931 . S
C201 C202 1.413 . S
C201 C203 1.360 . S
C202 C201 1.413 . S
C202 C206 1.429 . S
C203 C201 1.360 . S
C203 C204 1.372 . S
C204 H199 0.928 . S
C204 C203 1.372 . S
C204 C205 1.404 . S
C205 C204 1.404 . S
C205 C206 1.391 . S
C206 H200 0.930 . S
C206 C202 1.429 . S
C206 C205 1.391 . S
H207 C210 0.931 . S
H208 C213 0.928 . S
H209 C215 0.930 . S
C210 H207 0.931 . S
C210 C211 1.413 . S
C210 C212 1.360 . S
C211 C210 1.413 . S
C211 C215 1.429 . S
C212 C210 1.360 . S
C212 C213 1.372 . S
C213 H208 0.928 . S
C213 C212 1.372 . S
C213 C214 1.404 . S
C214 C213 1.404 . S
C214 C215 1.391 . S
C215 H209 0.930 . S
C215 C211 1.429 . S
C215 C214 1.391 . S
Zn216 O218 1.933 1_565 S
Zn216 O236 1.985 . S
Zn216 O247 1.955 . S
Zn217 O218 1.911 . S
Zn217 O237 1.970 . S
Zn217 O253 1.945 . S
Zn217 O260 1.981 . S
O218 Zn216 1.933 1_545 S
O218 Zn217 1.911 . S
O218 H219 0.841 1_655 S
H219 O218 0.841 1_455 S
C220 O221 1.246 . S
C220 O249 1.276 . S
O221 C220 1.246 . S
Zn222 O224 1.911 . S
Zn222 O239 1.970 . S
Zn222 O256 1.945 . S
Zn222 O263 1.981 . S
Zn223 O224 1.933 1_565 S
Zn223 O238 1.985 . S
Zn223 O245 1.955 . S
O224 Zn222 1.911 . S
O224 Zn223 1.933 1_545 S
O224 H225 0.841 . S
H225 O224 0.841 . S
Zn226 O227 1.933 1_565 S
Zn226 O240 1.985 . S
Zn226 O249 1.955 . S
O227 Zn226 1.933 1_545 S
O227 Zn228 1.911 . S
O227 H229 0.841 . S
Zn228 O227 1.911 . S
Zn228 O241 1.970 . S
Zn228 O257 1.981 1_655 S
Zn228 O259 1.945 . S
H229 O227 0.841 . S
Zn230 O231 1.933 1_565 S
Zn230 O243 1.985 . S
Zn230 O251 1.955 . S
O231 Zn230 1.933 1_545 S
O231 H232 0.841 . S
O231 Zn233 1.911 . S
H232 O231 0.841 . S
Zn233 O231 1.911 . S
Zn233 O244 1.970 . S
Zn233 O254 1.981 . S
Zn233 O262 1.945 . S
C234 O235 1.246 . S
C234 O251 1.276 . S
O235 C234 1.246 . S
O236 Zn216 1.985 . S
O236 C246 1.245 1_565 S
O237 Zn217 1.970 . S
O237 C246 1.263 . S
O238 Zn223 1.985 . S
O238 C250 1.245 1_565 S
O239 Zn222 1.970 . S
O239 C250 1.263 . S
O240 Zn226 1.985 . S
O240 C255 1.245 1_565 S
O241 Zn228 1.970 . S
O241 C255 1.263 . S
C242 O253 1.262 1_455 S
C242 O254 1.245 . S
O243 Zn230 1.985 . S
O243 C261 1.245 1_565 S
O244 Zn233 1.970 . S
O244 C261 1.263 . S
O245 Zn223 1.955 . S
O245 C264 1.276 . S
C246 O236 1.245 1_545 S
C246 O237 1.263 . S
O247 Zn216 1.955 . S
O247 C266 1.276 1_655 S
C248 O256 1.262 . S
C248 O257 1.245 . S
O249 C220 1.276 . S
O249 Zn226 1.955 . S
C250 O238 1.245 1_545 S
C250 O239 1.263 . S
O251 Zn230 1.955 . S
O251 C234 1.276 . S
C252 O259 1.262 . S
C252 O260 1.245 . S
O253 Zn217 1.945 . S
O253 C242 1.262 1_655 S
O254 Zn233 1.981 . S
O254 C242 1.245 . S
C255 O240 1.245 1_545 S
C255 O241 1.263 . S
O256 Zn222 1.945 . S
O256 C248 1.262 . S
O257 Zn228 1.981 1_455 S
O257 C248 1.245 . S
C258 O262 1.262 . S
C258 O263 1.245 . S
O259 Zn228 1.945 . S
O259 C252 1.262 . S
O260 Zn217 1.981 . S
O260 C252 1.245 . S
C261 O243 1.245 1_545 S
C261 O244 1.263 . S
O262 Zn233 1.945 . S
O262 C258 1.262 . S
O263 Zn222 1.981 . S
O263 C258 1.245 . S
C264 O245 1.276 . S
C264 O265 1.246 1_455 S
O265 C264 1.246 1_655 S
C266 O247 1.276 1_455 S
C266 O267 1.246 . S
O267 C266 1.246 . S
Zn268 O270 1.933 . S
Zn268 O288 1.985 . S
Zn268 O299 1.955 . S
Zn269 O270 1.911 1_556 S
Zn269 O289 1.970 . S
Zn269 O305 1.945 . S
Zn269 O312 1.981 . S
O270 Zn268 1.933 . S
O270 Zn269 1.911 1_554 S
O270 H271 0.841 . S
H271 O270 0.841 . S
C272 O273 1.246 . S
C272 O301 1.276 . S
O273 C272 1.246 . S
Zn274 O276 1.911 1_556 S
Zn274 O291 1.970 . S
Zn274 O308 1.945 . S
Zn274 O315 1.981 . S
Zn275 O276 1.933 . S
Zn275 O290 1.985 . S
Zn275 O297 1.955 . S
O276 Zn274 1.911 1_554 S
O276 Zn275 1.933 . S
O276 H277 0.841 1_565 S
H277 O276 0.841 1_545 S
Zn278 O279 1.933 . S
Zn278 O292 1.985 . S
Zn278 O301 1.955 . S
O279 Zn278 1.933 . S
O279 Zn280 1.911 1_554 S
O279 H281 0.841 . S
Zn280 O279 1.911 1_556 S
Zn280 O293 1.970 . S
Zn280 O309 1.981 . S
Zn280 O311 1.945 . S
H281 O279 0.841 . S
Zn282 O283 1.933 . S
Zn282 O295 1.985 . S
Zn282 O303 1.955 . S
O283 Zn282 1.933 . S
O283 H284 0.841 . S
O283 Zn285 1.911 1_554 S
H284 O283 0.841 . S
Zn285 O283 1.911 1_556 S
Zn285 O296 1.970 . S
Zn285 O306 1.988 . S
Zn285 O314 1.945 . S
C286 O287 1.246 . S
C286 O303 1.276 . S
O287 C286 1.246 . S
O288 Zn268 1.985 . S
O288 C298 1.245 . S
O289 Zn269 1.970 . S
O289 C298 1.263 1_556 S
O290 Zn275 1.985 . S
O290 C302 1.245 . S
O291 Zn274 1.970 . S
O291 C302 1.263 1_556 S
O292 Zn278 1.985 . S
O292 C307 1.245 . S
O293 Zn280 1.970 . S
O293 C307 1.263 1_556 S
C294 O305 1.262 . S
C294 O306 1.240 1_545 S
O295 Zn282 1.985 . S
O295 C313 1.245 . S
O296 Zn285 1.970 . S
O296 C313 1.263 1_556 S
O297 Zn275 1.955 . S
O297 C316 1.276 1_565 S
C298 O288 1.245 . S
C298 O289 1.263 1_554 S
O299 Zn268 1.955 . S
O299 C318 1.276 . S
C300 O308 1.262 1_545 S
C300 O309 1.245 . S
O301 C272 1.276 . S
O301 Zn278 1.955 . S
C302 O290 1.245 . S
C302 O291 1.263 1_554 S
O303 Zn282 1.955 . S
O303 C286 1.276 . S
C304 O311 1.262 . S
C304 O312 1.245 . S
O305 Zn269 1.945 . S
O305 C294 1.262 . S
O306 Zn285 1.988 . S
O306 C294 1.240 1_565 S
C307 O292 1.245 . S
C307 O293 1.263 1_554 S
O308 Zn274 1.945 . S
O308 C300 1.262 1_565 S
O309 Zn280 1.981 . S
O309 C300 1.245 . S
C310 O314 1.262 . S
C310 O315 1.245 . S
O311 Zn280 1.945 . S
O311 C304 1.262 . S
O312 Zn269 1.981 . S
O312 C304 1.245 . S
C313 O295 1.245 . S
C313 O296 1.263 1_554 S
O314 Zn285 1.945 . S
O314 C310 1.262 . S
O315 Zn274 1.981 . S
O315 C310 1.245 . S
C316 O297 1.276 1_545 S
C316 O317 1.246 . S
O317 C316 1.246 . S
C318 O299 1.276 . S
C318 O319 1.246 1_545 S
O319 C318 1.246 1_565 S
Zn320 O322 1.933 . S
Zn320 O340 1.985 . S
Zn320 O351 1.955 . S
Zn321 O322 1.911 . S
Zn321 O341 1.970 . S
Zn321 O357 1.945 . S
Zn321 O364 1.981 . S
O322 Zn320 1.933 . S
O322 Zn321 1.911 . S
O322 H323 0.841 1_655 S
H323 O322 0.841 1_455 S
C324 O325 1.246 1_554 S
C324 O353 1.276 . S
O325 C324 1.246 1_556 S
Zn326 O328 1.911 . S
Zn326 O343 1.970 . S
Zn326 O360 1.945 . S
Zn326 O367 1.981 . S
Zn327 O328 1.933 . S
Zn327 O342 1.985 . S
Zn327 O349 1.955 . S
O328 Zn326 1.911 . S
O328 Zn327 1.933 . S
O328 H329 0.841 . S
H329 O328 0.841 . S
Zn330 O331 1.933 . S
Zn330 O344 1.985 . S
Zn330 O353 1.955 . S
O331 Zn330 1.933 . S
O331 Zn332 1.911 . S
O331 H333 0.841 . S
Zn332 O331 1.911 . S
Zn332 O345 1.970 . S
Zn332 O361 1.981 . S
Zn332 O363 1.945 . S
H333 O331 0.841 . S
Zn334 O335 1.933 . S
Zn334 O347 1.985 . S
Zn334 O355 1.955 . S
O335 Zn334 1.933 . S
O335 H336 0.822 1_556 S
O335 Zn337 1.911 . S
H336 O335 0.822 1_554 S
Zn337 O335 1.911 . S
Zn337 O348 1.970 . S
Zn337 O358 1.981 . S
Zn337 O366 1.945 . S
C338 O339 1.246 . S
C338 O355 1.276 1_554 S
O339 C338 1.246 . S
O340 Zn320 1.985 . S
O340 C350 1.245 . S
O341 Zn321 1.970 . S
O341 C350 1.263 . S
O342 Zn327 1.985 . S
O342 C354 1.245 . S
O343 Zn326 1.970 . S
O343 C354 1.263 . S
O344 Zn330 1.985 . S
O344 C359 1.245 . S
O345 Zn332 1.970 . S
O345 C359 1.263 . S
C346 O357 1.262 1_455 S
C346 O358 1.245 . S
O347 Zn334 1.985 . S
O347 C365 1.245 . S
O348 Zn337 1.970 . S
O348 C365 1.263 . S
O349 Zn327 1.955 . S
O349 C368 1.276 . S
C350 O340 1.245 . S
C350 O341 1.263 . S
O351 Zn320 1.955 . S
O351 C370 1.276 1_655 S
C352 O360 1.262 . S
C352 O361 1.245 1_455 S
O353 C324 1.276 . S
O353 Zn330 1.955 . S
C354 O342 1.245 . S
C354 O343 1.263 . S
O355 Zn334 1.955 . S
O355 C338 1.276 1_556 S
C356 O363 1.262 . S
C356 O364 1.245 1_554 S
O357 Zn321 1.945 . S
O357 C346 1.262 1_655 S
O358 Zn337 1.981 . S
O358 C346 1.245 . S
C359 O344 1.245 . S
C359 O345 1.263 . S
O360 Zn326 1.945 . S
O360 C352 1.262 . S
O361 Zn332 1.981 . S
O361 C352 1.245 1_655 S
C362 O366 1.262 1_554 S
C362 O367 1.245 . S
O363 Zn332 1.945 . S
O363 C356 1.262 . S
O364 Zn321 1.981 . S
O364 C356 1.245 1_556 S
C365 O347 1.245 . S
C365 O348 1.263 . S
O366 Zn337 1.945 . S
O366 C362 1.262 1_556 S
O367 Zn326 1.981 . S
O367 C362 1.245 . S
C368 O349 1.276 . S
C368 O369 1.246 . S
O369 C368 1.246 . S
C370 O351 1.276 1_455 S
C370 O371 1.246 . S
O371 C370 1.246 . S
Zn372 O374 1.933 1_556 S
Zn372 O392 1.985 . S
Zn372 O403 1.955 . S
Zn373 O374 1.911 . S
Zn373 O393 1.970 . S
Zn373 O409 1.945 . S
Zn373 O416 1.981 . S
O374 Zn372 1.933 1_554 S
O374 Zn373 1.911 . S
O374 H375 0.841 . S
H375 O374 0.841 . S
C376 O377 1.246 . S
C376 O405 1.276 . S
O377 C376 1.246 . S
Zn378 O380 1.911 . S
Zn378 O395 1.970 . S
Zn378 O412 1.945 . S
Zn378 O419 1.981 . S
Zn379 O380 1.933 1_556 S
Zn379 O394 1.985 . S
Zn379 O401 1.955 . S
O380 Zn378 1.911 . S
O380 Zn379 1.933 1_554 S
O380 H381 0.841 . S
H381 O380 0.841 . S
Zn382 O383 1.933 1_556 S
Zn382 O396 1.985 . S
Zn382 O405 1.955 . S
O383 Zn382 1.933 1_554 S
O383 Zn384 1.911 . S
O383 H385 0.841 . S
Zn384 O383 1.911 . S
Zn384 O397 1.970 . S
Zn384 O413 1.981 . S
Zn384 O415 1.945 . S
H385 O383 0.841 . S
Zn386 O387 1.933 1_556 S
Zn386 O399 1.985 . S
Zn386 O407 1.955 . S
O387 Zn386 1.933 1_554 S
O387 H388 0.841 . S
O387 Zn389 1.911 . S
H388 O387 0.841 . S
Zn389 O387 1.911 . S
Zn389 O400 1.970 . S
Zn389 O410 1.981 . S
Zn389 O418 1.945 . S
C390 O391 1.246 . S
C390 O407 1.276 . S
O391 C390 1.246 . S
O392 Zn372 1.985 . S
O392 C402 1.245 1_556 S
O393 Zn373 1.970 . S
O393 C402 1.263 . S
O394 Zn379 1.985 . S
O394 C406 1.245 1_556 S
O395 Zn378 1.970 . S
O395 C406 1.263 . S
O396 Zn382 1.985 . S
O396 C411 1.245 1_556 S
O397 Zn384 1.970 . S
O397 C411 1.263 . S
C398 O409 1.262 . S
C398 O410 1.245 . S
O399 Zn386 1.985 . S
O399 C417 1.245 1_556 S
O400 Zn389 1.970 . S
O400 C417 1.263 . S
O401 Zn379 1.955 . S
O401 C420 1.276 . S
C402 O392 1.245 1_554 S
C402 O393 1.263 . S
O403 Zn372 1.955 . S
O403 C422 1.276 . S
C404 O412 1.262 . S
C404 O413 1.245 . S
O405 C376 1.276 . S
O405 Zn382 1.955 . S
C406 O394 1.245 1_554 S
C406 O395 1.263 . S
O407 Zn386 1.955 . S
O407 C390 1.276 . S
C408 O415 1.262 . S
C408 O416 1.245 . S
O409 Zn373 1.945 . S
O409 C398 1.262 . S
O410 Zn389 1.981 . S
O410 C398 1.245 . S
C411 O396 1.245 1_554 S
C411 O397 1.263 . S
O412 Zn378 1.945 . S
O412 C404 1.262 . S
O413 Zn384 1.981 . S
O413 C404 1.245 . S
C414 O418 1.262 . S
C414 O419 1.245 . S
O415 Zn384 1.945 . S
O415 C408 1.262 . S
O416 Zn373 1.981 . S
O416 C408 1.245 . S
C417 O399 1.245 1_554 S
C417 O400 1.263 . S
O418 Zn389 1.945 . S
O418 C414 1.262 . S
O419 Zn378 1.981 . S
O419 C414 1.245 . S
C420 O401 1.276 . S
C420 O421 1.246 . S
O421 C420 1.246 . S
C422 O403 1.276 . S
C422 O423 1.246 . S
O423 C422 1.246 . S
Zn424 O426 1.933 . S
Zn424 O444 1.985 . S
Zn424 O455 1.955 . S
Zn425 O426 1.911 . S
Zn425 O445 1.970 . S
Zn425 O461 1.945 . S
Zn425 O468 1.981 . S
O426 Zn424 1.933 . S
O426 Zn425 1.911 . S
O426 H427 0.841 1_655 S
H427 O426 0.841 1_455 S
C428 O429 1.246 . S
C428 O457 1.276 . S
O429 C428 1.246 . S
Zn430 O432 1.911 . S
Zn430 O447 1.970 . S
Zn430 O464 1.945 . S
Zn430 O471 1.981 . S
Zn431 O432 1.933 . S
Zn431 O446 1.985 . S
Zn431 O453 1.955 . S
O432 Zn430 1.911 . S
O432 Zn431 1.933 . S
O432 H433 0.841 . S
H433 O432 0.841 . S
Zn434 O435 1.933 . S
Zn434 O448 1.985 . S
Zn434 O457 1.955 . S
O435 Zn434 1.933 . S
O435 Zn436 1.911 . S
O435 H437 0.841 . S
Zn436 O435 1.911 . S
Zn436 O449 1.970 . S
Zn436 O465 1.981 . S
Zn436 O467 1.945 . S
H437 O435 0.841 . S
Zn438 O439 1.933 . S
Zn438 O451 1.985 . S
Zn438 O459 1.955 . S
O439 Zn438 1.933 . S
O439 H440 0.841 . S
O439 Zn441 1.911 . S
H440 O439 0.841 . S
Zn441 O439 1.911 . S
Zn441 O452 1.970 . S
Zn441 O462 1.981 . S
Zn441 O470 1.945 . S
C442 O443 1.246 . S
C442 O459 1.276 . S
O443 C442 1.246 . S
O444 Zn424 1.985 . S
O444 C454 1.245 . S
O445 Zn425 1.970 . S
O445 C454 1.263 . S
O446 Zn431 1.985 . S
O446 C458 1.245 . S
O447 Zn430 1.970 . S
O447 C458 1.263 . S
O448 Zn434 1.985 . S
O448 C463 1.245 . S
O449 Zn436 1.970 . S
O449 C463 1.263 . S
C450 O461 1.262 1_455 S
C450 O462 1.245 . S
O451 Zn438 1.985 . S
O451 C469 1.245 . S
O452 Zn441 1.970 . S
O452 C469 1.263 . S
O453 Zn431 1.955 . S
O453 C472 1.276 . S
C454 O444 1.245 . S
C454 O445 1.263 . S
O455 Zn424 1.955 . S
O455 C474 1.276 1_655 S
C456 O464 1.262 . S
C456 O465 1.245 1_455 S
O457 C428 1.276 . S
O457 Zn434 1.955 . S
C458 O446 1.245 . S
C458 O447 1.263 . S
O459 Zn438 1.955 . S
O459 C442 1.276 . S
C460 O467 1.262 . S
C460 O468 1.245 . S
O461 Zn425 1.945 . S
O461 C450 1.262 1_655 S
O462 Zn441 1.981 . S
O462 C450 1.245 . S
C463 O448 1.245 . S
C463 O449 1.263 . S
O464 Zn430 1.945 . S
O464 C456 1.262 . S
O465 Zn436 1.981 . S
O465 C456 1.245 1_655 S
C466 O470 1.262 . S
C466 O471 1.245 . S
O467 Zn436 1.945 . S
O467 C460 1.262 . S
O468 Zn425 1.981 . S
O468 C460 1.245 . S
C469 O451 1.245 . S
C469 O452 1.263 . S
O470 Zn441 1.945 . S
O470 C466 1.262 . S
O471 Zn430 1.981 . S
O471 C466 1.245 . S
C472 O453 1.276 . S
C472 O473 1.234 1_455 S
O473 C472 1.234 1_655 S
C474 O455 1.276 1_455 S
C474 O475 1.246 . S
O475 C474 1.246 . S
Zn476 O478 1.933 1_565 S
Zn476 O496 1.985 . S
Zn476 O507 1.955 . S
Zn477 O478 1.911 . S
Zn477 O497 1.970 . S
Zn477 O513 1.945 . S
Zn477 O520 1.981 . S
O478 Zn476 1.933 1_545 S
O478 Zn477 1.911 . S
O478 H479 0.841 . S
H479 O478 0.841 . S
C480 O481 1.246 . S
C480 O509 1.276 . S
O481 C480 1.246 . S
Zn482 O484 1.911 . S
Zn482 O499 1.970 . S
Zn482 O516 1.945 . S
Zn482 O523 1.981 . S
Zn483 O484 1.933 1_565 S
Zn483 O498 1.985 . S
Zn483 O505 1.955 . S
O484 Zn482 1.911 . S
O484 Zn483 1.933 1_545 S
O484 H485 0.841 . S
H485 O484 0.841 . S
Zn486 O487 1.933 1_565 S
Zn486 O500 1.985 . S
Zn486 O509 1.955 . S
O487 Zn486 1.933 1_545 S
O487 Zn488 1.911 . S
O487 H489 0.841 . S
Zn488 O487 1.911 . S
Zn488 O501 1.970 . S
Zn488 O517 1.981 . S
Zn488 O519 1.945 . S
H489 O487 0.841 . S
Zn490 O491 1.933 1_565 S
Zn490 O503 1.985 . S
Zn490 O511 1.955 . S
O491 Zn490 1.933 1_545 S
O491 H492 0.841 . S
O491 Zn493 1.911 . S
H492 O491 0.841 . S
Zn493 O491 1.911 . S
Zn493 O504 1.970 . S
Zn493 O514 1.981 . S
Zn493 O522 1.945 . S
C494 O495 1.246 . S
C494 O511 1.276 . S
O495 C494 1.246 . S
O496 Zn476 1.985 . S
O496 C506 1.245 1_565 S
O497 Zn477 1.970 . S
O497 C506 1.263 . S
O498 Zn483 1.985 . S
O498 C510 1.245 1_565 S
O499 Zn482 1.970 . S
O499 C510 1.263 . S
O500 Zn486 1.985 . S
O500 C515 1.245 1_565 S
O501 Zn488 1.970 . S
O501 C515 1.263 . S
C502 O513 1.262 . S
C502 O514 1.245 . S
O503 Zn490 1.985 . S
O503 C521 1.245 1_565 S
O504 Zn493 1.970 . S
O504 C521 1.263 . S
O505 Zn483 1.955 . S
O505 C524 1.276 . S
C506 O496 1.245 1_545 S
C506 O497 1.263 . S
O507 Zn476 1.955 . S
O507 C526 1.276 . S
C508 O516 1.262 . S
C508 O517 1.245 . S
O509 C480 1.276 . S
O509 Zn486 1.955 . S
C510 O498 1.245 1_545 S
C510 O499 1.263 . S
O511 Zn490 1.955 . S
O511 C494 1.276 . S
C512 O519 1.262 . S
C512 O520 1.245 . S
O513 Zn477 1.945 . S
O513 C502 1.262 . S
O514 Zn493 1.981 . S
O514 C502 1.245 . S
C515 O500 1.245 1_545 S
C515 O501 1.263 . S
O516 Zn482 1.945 . S
O516 C508 1.262 . S
O517 Zn488 1.981 . S
O517 C508 1.245 . S
C518 O522 1.262 . S
C518 O523 1.245 . S
O519 Zn488 1.945 . S
O519 C512 1.262 . S
O520 Zn477 1.981 . S
O520 C512 1.245 . S
C521 O503 1.245 1_545 S
C521 O504 1.263 . S
O522 Zn493 1.945 . S
O522 C518 1.262 . S
O523 Zn482 1.981 . S
O523 C518 1.245 . S
C524 O505 1.276 . S
C524 O525 1.246 . S
O525 C524 1.246 . S
C526 O507 1.276 . S
C526 O527 1.246 . S
O527 C526 1.246 . S
C528 C529 1.387 . S
C528 H532 0.950 . S
C528 C537 1.390 . S
C529 C528 1.387 . S
C529 C531 1.387 . S
H530 C537 0.950 . S
C531 C529 1.387 . S
C531 C533 1.390 . S
C531 H535 0.950 . S
H532 C528 0.950 . S
C533 C531 1.390 . S
C533 C534 1.387 . S
C533 H536 0.950 . S
C534 C533 1.387 . S
C534 C537 1.387 . S
H535 C531 0.950 . S
H536 C533 0.950 . S
C537 C528 1.390 . S
C537 H530 0.950 . S
C537 C534 1.387 . S
C538 C539 1.387 . S
C538 H542 0.950 . S
C538 C547 1.390 . S
C539 C538 1.387 . S
C539 C541 1.387 . S
H540 C547 0.950 . S
C541 C539 1.387 . S
C541 C543 1.390 . S
C541 H545 0.950 . S
H542 C538 0.950 . S
C543 C541 1.390 . S
C543 C544 1.387 . S
C543 H546 0.950 . S
C544 C543 1.387 . S
C544 C547 1.387 . S
H545 C541 0.950 . S
H546 C543 0.950 . S
C547 C538 1.390 . S
C547 H540 0.950 . S
C547 C544 1.387 . S
C548 C549 1.387 . S
C548 H552 0.950 . S
C548 C557 1.390 . S
C549 C548 1.387 . S
C549 C551 1.387 . S
H550 C557 0.950 . S
C551 C549 1.387 . S
C551 C553 1.390 . S
C551 H555 0.950 . S
H552 C548 0.950 . S
C553 C551 1.390 . S
C553 C554 1.387 . S
C553 H556 0.950 . S
C554 C553 1.387 . S
C554 C557 1.387 . S
H555 C551 0.950 . S
H556 C553 0.950 . S
C557 C548 1.390 . S
C557 H550 0.950 . S
C557 C554 1.387 . S
C558 C559 1.387 . S
C558 H562 0.950 . S
C558 C567 1.390 . S
C559 C558 1.387 . S
C559 C561 1.387 . S
H560 C567 0.950 . S
C561 C559 1.387 . S
C561 C563 1.390 . S
C561 H565 0.950 . S
H562 C558 0.950 . S
C563 C561 1.390 . S
C563 C564 1.387 . S
C563 H566 0.950 . S
C564 C563 1.387 . S
C564 C567 1.387 . S
H565 C561 0.950 . S
H566 C563 0.950 . S
C567 C558 1.390 . S
C567 H560 0.950 . S
C567 C564 1.387 . S
C568 C569 1.387 . S
C568 H572 0.950 . S
C568 C577 1.390 . S
C569 C568 1.387 . S
C569 C571 1.387 . S
H570 C577 0.950 . S
C571 C569 1.387 . S
C571 C573 1.390 . S
C571 H575 0.950 . S
H572 C568 0.950 . S
C573 C571 1.390 . S
C573 C574 1.387 . S
C573 H576 0.950 . S
C574 C573 1.387 . S
C574 C577 1.387 . S
H575 C571 0.950 . S
H576 C573 0.950 . S
C577 C568 1.390 . S
C577 H570 0.950 . S
C577 C574 1.387 . S
C578 C579 1.387 . S
C578 H582 0.950 . S
C578 C587 1.390 . S
C579 C578 1.387 . S
C579 C581 1.387 . S
H580 C587 0.950 . S
C581 C579 1.387 . S
C581 C583 1.390 . S
C581 H585 0.950 . S
H582 C578 0.950 . S
C583 C581 1.390 . S
C583 C584 1.387 . S
C583 H586 0.950 . S
C584 C583 1.387 . S
C584 C587 1.387 . S
H585 C581 0.950 . S
H586 C583 0.950 . S
C587 C578 1.390 . S
C587 H580 0.950 . S
C587 C584 1.387 . S
C588 C589 1.387 . S
C588 H592 0.950 . S
C588 C597 1.390 . S
C589 C588 1.387 . S
C589 C591 1.387 . S
H590 C597 0.950 . S
C591 C589 1.387 . S
C591 C593 1.390 . S
C591 H595 0.950 . S
H592 C588 0.950 . S
C593 C591 1.390 . S
C593 C594 1.387 . S
C593 H596 0.950 . S
C594 C593 1.387 . S
C594 C597 1.387 . S
H595 C591 0.950 . S
H596 C593 0.950 . S
C597 C588 1.390 . S
C597 H590 0.950 . S
C597 C594 1.387 . S
C598 C599 1.387 . S
C598 H602 0.950 . S
C598 C607 1.390 . S
C599 C598 1.387 . S
C599 C601 1.387 . S
H600 C607 0.950 . S
C601 C599 1.387 . S
C601 C603 1.390 . S
C601 H605 0.950 . S
H602 C598 0.950 . S
C603 C601 1.390 . S
C603 C604 1.387 . S
C603 H606 0.950 . S
C604 C603 1.387 . S
C604 C607 1.387 . S
H605 C601 0.950 . S
H606 C603 0.950 . S
C607 C598 1.390 . S
C607 H600 0.950 . S
C607 C604 1.387 . S
C608 C609 1.387 . S
C608 H612 0.950 . S
C608 C617 1.390 . S
C609 C608 1.387 . S
C609 C611 1.387 . S
H610 C617 0.950 . S
C611 C609 1.387 . S
C611 C613 1.390 . S
C611 H615 0.950 . S
H612 C608 0.950 . S
C613 C611 1.390 . S
C613 C614 1.387 . S
C613 H616 0.950 . S
C614 C613 1.387 . S
C614 C617 1.387 . S
H615 C611 0.950 . S
H616 C613 0.950 . S
C617 C608 1.390 . S
C617 H610 0.950 . S
C617 C614 1.387 . S
C618 C619 1.387 . S
C618 H622 0.950 . S
C618 C627 1.390 . S
C619 C618 1.387 . S
C619 C621 1.387 . S
H620 C627 0.950 . S
C621 C619 1.387 . S
C621 C623 1.390 . S
C621 H625 0.950 . S
H622 C618 0.950 . S
C623 C621 1.390 . S
C623 C624 1.387 . S
C623 H626 0.950 . S
C624 C623 1.387 . S
C624 C627 1.387 . S
H625 C621 0.950 . S
H626 C623 0.950 . S
C627 C618 1.390 . S
C627 H620 0.950 . S
C627 C624 1.387 . S
C628 C629 1.387 . S
C628 H632 0.950 . S
C628 C637 1.390 . S
C629 C628 1.387 . S
C629 C631 1.387 . S
H630 C637 0.950 . S
C631 C629 1.387 . S
C631 C633 1.390 . S
C631 H635 0.950 . S
H632 C628 0.950 . S
C633 C631 1.390 . S
C633 C634 1.387 . S
C633 H636 0.950 . S
C634 C633 1.387 . S
C634 C637 1.387 . S
H635 C631 0.950 . S
H636 C633 0.950 . S
C637 C628 1.390 . S
C637 H630 0.950 . S
C637 C634 1.387 . S
C638 C639 1.387 . S
C638 H642 0.950 . S
C638 C647 1.390 . S
C639 C638 1.387 . S
C639 C641 1.387 . S
H640 C647 0.950 . S
C641 C639 1.387 . S
C641 C643 1.390 . S
C641 H645 0.950 . S
H642 C638 0.950 . S
C643 C641 1.390 . S
C643 C644 1.387 . S
C643 H646 0.950 . S
C644 C643 1.387 . S
C644 C647 1.387 . S
H645 C641 0.950 . S
H646 C643 0.950 . S
C647 C638 1.390 . S
C647 H640 0.950 . S
C647 C644 1.387 . S
C648 C649 1.387 . S
C648 H652 0.950 . S
C648 C657 1.390 . S
C649 C648 1.387 . S
C649 C651 1.387 1_554 S
H650 C657 0.950 . S
C651 C649 1.387 1_556 S
C651 C653 1.390 . S
C651 H655 0.950 . S
H652 C648 0.950 . S
C653 C651 1.390 . S
C653 C654 1.387 1_556 S
C653 H656 0.950 . S
C654 C653 1.387 1_554 S
C654 C657 1.387 . S
H655 C651 0.950 . S
H656 C653 0.950 . S
C657 C648 1.390 . S
C657 H650 0.950 . S
C657 C654 1.387 . S
C658 C659 1.387 1_556 S
C658 H662 0.950 . S
C658 C667 1.390 . S
C659 C658 1.387 1_554 S
C659 C661 1.387 . S
H660 C667 0.950 . S
C661 C659 1.387 . S
C661 C663 1.390 . S
C661 H665 0.950 . S
H662 C658 0.950 . S
C663 C661 1.390 . S
C663 C664 1.387 . S
C663 H666 0.950 . S
C664 C663 1.387 . S
C664 C667 1.387 1_554 S
H665 C661 0.950 . S
H666 C663 0.950 . S
C667 C658 1.390 . S
C667 H660 0.950 . S
C667 C664 1.387 1_556 S
C668 C669 1.387 1_556 S
C668 H672 0.950 . S
C668 C677 1.390 . S
C669 C668 1.387 1_554 S
C669 C671 1.387 . S
H670 C677 0.950 . S
C671 C669 1.387 . S
C671 C673 1.390 . S
C671 H675 0.950 . S
H672 C668 0.950 . S
C673 C671 1.390 . S
C673 C674 1.387 . S
C673 H676 0.950 . S
C674 C673 1.387 . S
C674 C677 1.387 1_554 S
H675 C671 0.950 . S
H676 C673 0.950 . S
C677 C668 1.390 . S
C677 H670 0.950 . S
C677 C674 1.387 1_556 S
C678 C679 1.387 . S
C678 H682 0.950 . S
C678 C687 1.390 . S
C679 C678 1.387 . S
C679 C681 1.387 1_554 S
H680 C687 0.950 . S
C681 C679 1.387 1_556 S
C681 C683 1.390 . S
C681 H685 0.950 . S
H682 C678 0.950 . S
C683 C681 1.390 . S
C683 C684 1.387 1_556 S
C683 H686 0.950 . S
C684 C683 1.387 1_554 S
C684 C687 1.387 . S
H685 C681 0.950 . S
H686 C683 0.950 . S
C687 C678 1.390 . S
C687 H680 0.950 . S
C687 C684 1.387 . S
C688 C689 1.387 . S
C688 H692 0.950 . S
C688 C697 1.390 . S
C689 C688 1.387 . S
C689 C691 1.387 1_455 S
H690 C697 0.950 . S
C691 C689 1.387 1_655 S
C691 C693 1.390 . S
C691 H695 0.950 . S
H692 C688 0.950 . S
C693 C691 1.390 . S
C693 C694 1.387 1_655 S
C693 H696 0.950 . S
C694 C693 1.387 1_455 S
C694 C697 1.387 . S
H695 C691 0.950 . S
H696 C693 0.950 . S
C697 C688 1.390 . S
C697 H690 0.950 . S
C697 C694 1.387 . S
C698 C699 1.387 1_565 S
C698 H702 0.950 . S
C698 C707 1.390 . S
C699 C698 1.387 1_545 S
C699 C701 1.387 . S
H700 C707 0.950 . S
C701 C699 1.387 . S
C701 C703 1.390 . S
C701 H705 0.950 . S
H702 C698 0.950 . S
C703 C701 1.390 . S
C703 C704 1.387 . S
C703 H706 0.950 . S
C704 C703 1.387 . S
C704 C707 1.387 1_545 S
H705 C701 0.950 . S
H706 C703 0.950 . S
C707 C698 1.390 . S
C707 H700 0.950 . S
C707 C704 1.387 1_565 S
C708 C709 1.387 1_655 S
C708 H712 0.950 . S
C708 C717 1.390 . S
C709 C708 1.387 1_455 S
C709 C711 1.387 . S
H710 C717 0.950 . S
C711 C709 1.387 . S
C711 C713 1.390 . S
C711 H715 0.950 . S
H712 C708 0.950 . S
C713 C711 1.390 . S
C713 C714 1.387 . S
C713 H716 0.950 . S
C714 C713 1.387 . S
C714 C717 1.387 1_455 S
H715 C711 0.950 . S
H716 C713 0.950 . S
C717 C708 1.390 . S
C717 H710 0.950 . S
C717 C714 1.387 1_655 S
C718 C719 1.387 . S
C718 H722 0.950 . S
C718 C727 1.390 . S
C719 C718 1.387 . S
C719 C721 1.387 . S
H720 C727 0.950 . S
C721 C719 1.387 . S
C721 C723 1.390 1_545 S
C721 H725 0.950 1_545 S
H722 C718 0.950 . S
C723 C721 1.390 1_565 S
C723 C724 1.387 1_565 S
C723 H726 0.950 . S
C724 C723 1.387 1_545 S
C724 C727 1.387 . S
H725 C721 0.950 1_565 S
H726 C723 0.950 . S
C727 C718 1.390 . S
C727 H720 0.950 . S
C727 C724 1.387 . S
C728 C729 1.387 . S
C728 H732 0.950 . S
C728 C737 1.390 . S
C729 C728 1.387 . S
C729 C731 1.387 . S
H730 C737 0.950 . S
C731 C729 1.387 . S
C731 C733 1.390 . S
C731 H735 0.950 1_455 S
H732 C728 0.950 . S
C733 C731 1.390 . S
C733 C734 1.387 . S
C733 H736 0.950 1_455 S
C734 C733 1.387 . S
C734 C737 1.387 . S
H735 C731 0.950 1_655 S
H736 C733 0.950 1_655 S
C737 C728 1.390 . S
C737 H730 0.950 . S
C737 C734 1.387 . S
C738 C739 1.387 . S
C738 H742 0.950 1_545 S
C738 C747 1.390 1_545 S
C739 C738 1.387 . S
C739 C741 1.387 . S
H740 C747 0.950 . S
C741 C739 1.387 . S
C741 C743 1.390 . S
C741 H745 0.950 . S
H742 C738 0.950 1_565 S
C743 C741 1.390 . S
C743 C744 1.387 . S
C743 H746 0.950 . S
C744 C743 1.387 . S
C744 C747 1.387 1_545 S
H745 C741 0.950 . S
H746 C743 0.950 . S
C747 C738 1.390 1_565 S
C747 H740 0.950 . S
C747 C744 1.387 1_565 S
C748 C749 1.387 1_655 S
C748 H752 0.950 . S
C748 C757 1.390 . S
C749 C748 1.387 1_455 S
C749 C751 1.387 . S
H750 C757 0.950 . S
C751 C749 1.387 . S
C751 C753 1.390 . S
C751 H755 0.950 . S
H752 C748 0.950 . S
C753 C751 1.390 . S
C753 C754 1.387 . S
C753 H756 0.950 . S
C754 C753 1.387 . S
C754 C757 1.387 1_455 S
H755 C751 0.950 . S
H756 C753 0.950 . S
C757 C748 1.390 . S
C757 H750 0.950 . S
C757 C754 1.387 1_655 S
C758 C759 1.387 . S
C758 H762 0.950 . S
C758 C767 1.390 . S
C759 C758 1.387 . S
C759 C761 1.387 1_545 S
H760 C767 0.950 . S
C761 C759 1.387 1_565 S
C761 C763 1.390 . S
C761 H765 0.950 . S
H762 C758 0.950 . S
C763 C761 1.390 . S
C763 C764 1.387 1_565 S
C763 H766 0.950 . S
C764 C763 1.387 1_545 S
C764 C767 1.387 . S
H765 C761 0.950 . S
H766 C763 0.950 . S
C767 C758 1.390 . S
C767 H760 0.950 . S
C767 C764 1.387 . S
C768 C769 1.387 . S
C768 H772 0.950 1_455 S
C768 C777 1.391 . S
C769 C768 1.387 . S
C769 C771 1.387 . S
H770 C777 0.938 1_655 S
C771 C769 1.387 . S
C771 C773 1.390 . S
C771 H775 0.950 . S
H772 C768 0.950 1_655 S
C773 C771 1.390 . S
C773 C774 1.387 . S
C773 H776 0.950 . S
C774 C773 1.387 . S
C774 C777 1.398 . S
H775 C771 0.950 . S
H776 C773 0.950 . S
C777 C768 1.391 . S
C777 H770 0.938 1_455 S
C777 C774 1.398 . S
C778 C779 1.387 . S
C778 H782 0.950 1_545 S
C778 C787 1.390 1_545 S
C779 C778 1.387 . S
C779 C781 1.387 . S
H780 C787 0.950 . S
C781 C779 1.387 . S
C781 C783 1.390 . S
C781 H785 0.950 . S
H782 C778 0.950 1_565 S
C783 C781 1.390 . S
C783 C784 1.387 . S
C783 H786 0.950 . S
C784 C783 1.387 . S
C784 C787 1.387 1_545 S
H785 C781 0.950 . S
H786 C783 0.950 . S
C787 C778 1.390 1_565 S
C787 H780 0.950 . S
C787 C784 1.387 1_565 S
C788 C789 1.387 . S
C788 H792 0.950 . S
C788 C797 1.390 . S
C789 C788 1.387 . S
C789 C791 1.387 1_455 S
H790 C797 0.950 . S
C791 C789 1.387 1_655 S
C791 C793 1.390 . S
C791 H795 0.950 . S
H792 C788 0.950 . S
C793 C791 1.390 . S
C793 C794 1.387 1_655 S
C793 H796 0.950 . S
C794 C793 1.387 1_455 S
C794 C797 1.387 . S
H795 C791 0.950 . S
H796 C793 0.950 . S
C797 C788 1.390 . S
C797 H790 0.950 . S
C797 C794 1.387 . S
C798 C799 1.387 . S
C798 H802 0.950 . S
C798 C807 1.390 . S
C799 C798 1.387 . S
C799 C801 1.387 1_545 S
H800 C807 0.950 . S
C801 C799 1.387 1_565 S
C801 C803 1.390 . S
C801 H805 0.950 . S
H802 C798 0.950 . S
C803 C801 1.390 . S
C803 C804 1.387 1_565 S
C803 H806 0.950 . S
C804 C803 1.387 1_545 S
C804 C807 1.387 . S
H805 C801 0.950 . S
H806 C803 0.950 . S
C807 C798 1.390 . S
C807 H800 0.950 . S
C807 C804 1.387 . S
C808 C809 1.408 . S
C808 H812 0.950 . S
C808 C817 1.390 . S
C809 C808 1.408 . S
C809 C811 1.368 1_455 S
H810 C817 0.950 . S
C811 C809 1.368 1_655 S
C811 C813 1.390 . S
C811 H815 0.950 . S
H812 C808 0.950 . S
C813 C811 1.390 . S
C813 C814 1.387 1_655 S
C813 H816 0.950 . S
C814 C813 1.387 1_455 S
C814 C817 1.387 . S
H815 C811 0.950 . S
H816 C813 0.950 . S
C817 C808 1.390 . S
C817 H810 0.950 . S
C817 C814 1.387 . S
C818 C819 1.387 . S
C818 H822 0.950 . S
C818 C827 1.390 . S
C819 C818 1.387 . S
C819 C821 1.387 1_545 S
H820 C827 0.950 . S
C821 C819 1.387 1_565 S
C821 C823 1.390 . S
C821 H825 0.950 . S
H822 C818 0.950 . S
C823 C821 1.390 . S
C823 C824 1.387 1_565 S
C823 H826 0.950 . S
C824 C823 1.387 1_545 S
C824 C827 1.387 . S
H825 C821 0.950 . S
H826 C823 0.950 . S
C827 C818 1.390 . S
C827 H820 0.950 . S
C827 C824 1.387 . S
C828 C829 1.387 1_655 S
C828 H832 0.950 . S
C828 C837 1.390 . S
C829 C828 1.387 1_455 S
C829 C831 1.387 . S
H830 C837 0.950 . S
C831 C829 1.387 . S
C831 C833 1.390 . S
C831 H835 0.950 . S
H832 C828 0.950 . S
C833 C831 1.390 . S
C833 C834 1.387 . S
C833 H836 0.950 . S
C834 C833 1.387 . S
C834 C837 1.387 1_455 S
H835 C831 0.950 . S
H836 C833 0.950 . S
C837 C828 1.390 . S
C837 H830 0.950 . S
C837 C834 1.387 1_655 S
C838 C839 1.387 . S
C838 H842 0.950 . S
C838 C847 1.390 . S
C839 C838 1.387 . S
C839 C841 1.362 1_545 S
H840 C847 0.950 . S
C841 C839 1.362 1_565 S
C841 C843 1.393 . S
C841 H845 0.973 . S
H842 C838 0.950 . S
C843 C841 1.393 . S
C843 C844 1.387 1_565 S
C843 H846 0.950 . S
C844 C843 1.387 1_545 S
C844 C847 1.387 . S
H845 C841 0.973 . S
H846 C843 0.950 . S
C847 C838 1.390 . S
C847 H840 0.950 . S
C847 C844 1.387 . S
C848 C849 1.387 . S
C848 H852 0.950 . S
C848 C857 1.390 . S
C849 C848 1.387 . S
C849 C851 1.387 1_545 S
H850 C857 0.950 . S
C851 C849 1.387 1_565 S
C851 C853 1.390 . S
C851 H855 0.950 . S
H852 C848 0.950 . S
C853 C851 1.390 . S
C853 C854 1.387 1_565 S
C853 H856 0.950 . S
C854 C853 1.387 1_545 S
C854 C857 1.387 . S
H855 C851 0.950 . S
H856 C853 0.950 . S
C857 C848 1.390 . S
C857 H850 0.950 . S
C857 C854 1.387 . S
C858 C859 1.387 . S
C858 H862 0.950 . S
C858 C867 1.390 . S
C859 C858 1.387 . S
C859 C861 1.387 1_455 S
H860 C867 0.950 . S
C861 C859 1.387 1_655 S
C861 C863 1.390 . S
C861 H865 0.950 . S
H862 C858 0.950 . S
C863 C861 1.390 . S
C863 C864 1.387 1_655 S
C863 H866 0.950 . S
C864 C863 1.387 1_455 S
C864 C867 1.387 . S
H865 C861 0.950 . S
H866 C863 0.950 . S
C867 C858 1.390 . S
C867 H860 0.950 . S
C867 C864 1.387 . S
C868 C869 1.387 . S
C868 H872 0.950 . S
C868 C877 1.390 . S
C869 C868 1.387 . S
C869 C871 1.387 . S
H870 C877 0.950 . S
C871 C869 1.387 . S
C871 C873 1.390 . S
C871 H875 0.950 1_545 S
H872 C868 0.950 . S
C873 C871 1.390 . S
C873 C874 1.387 . S
C873 H876 0.950 1_545 S
C874 C873 1.387 . S
C874 C877 1.387 . S
H875 C871 0.950 1_565 S
H876 C873 0.950 1_565 S
C877 C868 1.390 . S
C877 H870 0.950 . S
C877 C874 1.387 . S
C878 C879 1.387 . S
C878 H882 0.950 . S
C878 C887 1.390 . S
C879 C878 1.387 . S
C879 C881 1.387 1_455 S
H880 C887 0.950 . S
C881 C879 1.387 1_655 S
C881 C883 1.390 . S
C881 H885 0.950 . S
H882 C878 0.950 . S
C883 C881 1.390 . S
C883 C884 1.387 1_655 S
C883 H886 0.950 . S
C884 C883 1.387 1_455 S
C884 C887 1.387 . S
H885 C881 0.950 . S
H886 C883 0.950 . S
C887 C878 1.390 . S
C887 H880 0.950 . S
C887 C884 1.387 . S
C888 C889 1.387 1_565 S
C888 H892 0.950 . S
C888 C897 1.390 . S
C889 C888 1.387 1_545 S
C889 C891 1.387 . S
H890 C897 0.950 . S
C891 C889 1.387 . S
C891 C893 1.390 . S
C891 H895 0.950 . S
H892 C888 0.950 . S
C893 C891 1.390 . S
C893 C894 1.387 . S
C893 H896 0.950 . S
C894 C893 1.387 . S
C894 C897 1.387 1_545 S
H895 C891 0.950 . S
H896 C893 0.950 . S
C897 C888 1.390 . S
C897 H890 0.950 . S
C897 C894 1.387 1_565 S
C898 C899 1.387 . S
C898 H902 0.950 . S
C898 C907 1.390 . S
C899 C898 1.387 . S
C899 C901 1.387 1_455 S
H900 C907 0.950 . S
C901 C899 1.387 1_655 S
C901 C903 1.390 . S
C901 H905 0.950 . S
H902 C898 0.950 . S
C903 C901 1.390 . S
C903 C904 1.387 1_655 S
C903 H906 0.950 . S
C904 C903 1.387 1_455 S
C904 C907 1.387 . S
H905 C901 0.950 . S
H906 C903 0.950 . S
C907 C898 1.390 . S
C907 H900 0.950 . S
C907 C904 1.387 . S
C908 C909 1.387 . S
C908 H912 0.950 1_545 S
C908 C917 1.390 1_545 S
C909 C908 1.387 . S
C909 C911 1.387 . S
H910 C917 0.955 . S
C911 C909 1.387 . S
C911 C913 1.390 . S
C911 H915 0.950 . S
H912 C908 0.950 1_565 S
C913 C911 1.390 . S
C913 C914 1.387 . S
C913 H916 0.950 . S
C914 C913 1.387 . S
C914 C917 1.382 1_545 S
H915 C911 0.950 . S
H916 C913 0.950 . S
C917 C908 1.390 1_565 S
C917 H910 0.955 . S
C917 C914 1.382 1_565 S
C918 C919 1.387 1_655 S
C918 H922 0.950 . S
C918 C927 1.390 . S
C919 C918 1.387 1_455 S
C919 C921 1.387 . S
H920 C927 0.950 . S
C921 C919 1.387 . S
C921 C923 1.390 . S
C921 H925 0.950 . S
H922 C918 0.950 . S
C923 C921 1.390 . S
C923 C924 1.387 . S
C923 H926 0.950 . S
C924 C923 1.387 . S
C924 C927 1.387 1_455 S
H925 C921 0.950 . S
H926 C923 0.950 . S
C927 C918 1.390 . S
C927 H920 0.950 . S
C927 C924 1.387 1_655 S
C928 C929 1.387 . S
C928 H932 0.950 . S
C928 C937 1.390 . S
C929 C928 1.387 . S
C929 C931 1.387 1_554 S
H930 C937 0.950 . S
C931 C929 1.387 1_556 S
C931 C933 1.390 . S
C931 H935 0.950 . S
H932 C928 0.950 . S
C933 C931 1.390 . S
C933 C934 1.387 1_556 S
C933 H936 0.950 . S
C934 C933 1.387 1_554 S
C934 C937 1.387 . S
H935 C931 0.950 . S
H936 C933 0.950 . S
C937 C928 1.390 . S
C937 H930 0.950 . S
C937 C934 1.387 . S
C938 C939 1.387 . S
C938 H942 0.950 . S
C938 C947 1.390 . S
C939 C938 1.387 . S
C939 C941 1.387 1_554 S
H940 C947 0.950 . S
C941 C939 1.387 1_556 S
C941 C943 1.390 . S
C941 H945 0.950 . S
H942 C938 0.950 . S
C943 C941 1.390 . S
C943 C944 1.387 1_556 S
C943 H946 0.950 . S
C944 C943 1.387 1_554 S
C944 C947 1.387 . S
H945 C941 0.950 . S
H946 C943 0.950 . S
C947 C938 1.390 . S
C947 H940 0.950 . S
C947 C944 1.387 . S
C948 C949 1.387 . S
C948 H952 0.950 . S
C948 C957 1.390 . S
C949 C948 1.387 . S
C949 C951 1.387 1_554 S
H950 C957 0.950 . S
C951 C949 1.387 1_556 S
C951 C953 1.390 . S
C951 H955 0.950 . S
H952 C948 0.950 . S
C953 C951 1.390 . S
C953 C954 1.387 1_556 S
C953 H956 0.950 . S
C954 C953 1.387 1_554 S
C954 C957 1.387 . S
H955 C951 0.950 . S
H956 C953 0.950 . S
C957 C948 1.390 . S
C957 H950 0.950 . S
C957 C954 1.387 . S
C958 C959 1.387 1_556 S
C958 H962 0.950 . S
C958 C967 1.390 . S
C959 C958 1.387 1_554 S
C959 C961 1.387 . S
H960 C967 0.950 . S
C961 C959 1.387 . S
C961 C963 1.390 . S
C961 H965 0.950 . S
H962 C958 0.950 . S
C963 C961 1.390 . S
C963 C964 1.387 1_554 S
C963 H966 0.950 . S
C964 C963 1.387 1_556 S
C964 C967 1.387 . S
H965 C961 0.950 . S
H966 C963 0.950 . S
C967 C958 1.390 . S
C967 H960 0.950 . S
C967 C964 1.387 . S
C968 C969 1.387 1_556 S
C968 H972 0.950 . S
C968 C977 1.390 . S
C969 C968 1.387 1_554 S
C969 C971 1.387 . S
H970 C977 0.950 . S
C971 C969 1.387 . S
C971 C973 1.390 . S
C971 H975 0.950 . S
H972 C968 0.950 . S
C973 C971 1.390 . S
C973 C974 1.387 . S
C973 H976 0.950 . S
C974 C973 1.387 . S
C974 C977 1.387 1_554 S
H975 C971 0.950 . S
H976 C973 0.950 . S
C977 C968 1.390 . S
C977 H970 0.950 . S
C977 C974 1.387 1_556 S
C978 C979 1.387 1_556 S
C978 H982 0.950 . S
C978 C987 1.390 . S
C979 C978 1.387 1_554 S
C979 C981 1.387 . S
H980 C987 0.950 . S
C981 C979 1.387 . S
C981 C983 1.390 . S
C981 H985 0.950 . S
H982 C978 0.950 . S
C983 C981 1.390 . S
C983 C984 1.387 . S
C983 H986 0.950 . S
C984 C983 1.387 . S
C984 C987 1.387 1_554 S
H985 C981 0.950 . S
H986 C983 0.950 . S
C987 C978 1.390 . S
C987 H980 0.950 . S
C987 C984 1.387 1_556 S
C988 C989 1.387 1_556 S
C988 H992 0.950 . S
C988 C997 1.390 . S
C989 C988 1.387 1_554 S
C989 C991 1.387 . S
H990 C997 0.950 . S
C991 C989 1.387 . S
C991 C993 1.390 . S
C991 H995 0.950 . S
H992 C988 0.950 . S
C993 C991 1.390 . S
C993 C994 1.387 . S
C993 H996 0.950 . S
C994 C993 1.387 . S
C994 C997 1.387 1_554 S
H995 C991 0.950 . S
H996 C993 0.950 . S
C997 C988 1.390 . S
C997 H990 0.950 . S
C997 C994 1.387 1_556 S
C998 C999 1.387 1_556 S
C998 H1002 0.950 . S
C998 C1007 1.390 . S
C999 C998 1.387 1_554 S
C999 C1001 1.387 . S
H1000 C1007 0.950 . S
C1001 C999 1.387 . S
C1001 C1003 1.390 . S
C1001 H1005 0.950 . S
H1002 C998 0.950 . S
C1003 C1001 1.390 . S
C1003 C1004 1.387 . S
C1003 H1006 0.950 . S
C1004 C1003 1.387 . S
C1004 C1007 1.387 1_554 S
H1005 C1001 0.950 . S
H1006 C1003 0.950 . S
C1007 C998 1.390 . S
C1007 H1000 0.950 . S
C1007 C1004 1.387 1_556 S
C1008 C1009 1.387 . S
C1008 H1012 0.950 . S
C1008 C1017 1.390 . S
C1009 C1008 1.387 . S
C1009 C1011 1.387 . S
H1010 C1017 0.950 . S
C1011 C1009 1.387 . S
C1011 C1013 1.390 . S
C1011 H1015 0.950 . S
H1012 C1008 0.950 . S
C1013 C1011 1.390 . S
C1013 C1014 1.387 . S
C1013 H1016 0.950 . S
C1014 C1013 1.387 . S
C1014 C1017 1.387 . S
H1015 C1011 0.950 . S
H1016 C1013 0.950 . S
C1017 C1008 1.390 . S
C1017 H1010 0.950 . S
C1017 C1014 1.387 . S
C1018 C1019 1.387 . S
C1018 H1022 0.950 . S
C1018 C1027 1.390 . S
C1019 C1018 1.387 . S
C1019 C1021 1.387 . S
H1020 C1027 0.950 . S
C1021 C1019 1.387 . S
C1021 C1023 1.390 . S
C1021 H1025 0.950 . S
H1022 C1018 0.950 . S
C1023 C1021 1.390 . S
C1023 C1024 1.387 . S
C1023 H1026 0.950 . S
C1024 C1023 1.387 . S
C1024 C1027 1.387 . S
H1025 C1021 0.950 . S
H1026 C1023 0.950 . S
C1027 C1018 1.390 . S
C1027 H1020 0.950 . S
C1027 C1024 1.387 . S
C1028 C1029 1.387 . S
C1028 H1032 0.950 . S
C1028 C1037 1.390 . S
C1029 C1028 1.387 . S
C1029 C1031 1.387 . S
H1030 C1037 0.950 . S
C1031 C1029 1.387 . S
C1031 C1033 1.390 . S
C1031 H1035 0.950 . S
H1032 C1028 0.950 . S
C1033 C1031 1.390 . S
C1033 C1034 1.387 . S
C1033 H1036 0.950 . S
C1034 C1033 1.387 . S
C1034 C1037 1.387 . S
H1035 C1031 0.950 . S
H1036 C1033 0.950 . S
C1037 C1028 1.390 . S
C1037 H1030 0.950 . S
C1037 C1034 1.387 . S
C1038 C1039 1.387 . S
C1038 H1042 0.950 . S
C1038 C1047 1.390 . S
C1039 C1038 1.387 . S
C1039 C1041 1.387 . S
H1040 C1047 0.950 . S
C1041 C1039 1.387 . S
C1041 C1043 1.390 . S
C1041 H1045 0.950 . S
H1042 C1038 0.950 . S
C1043 C1041 1.390 . S
C1043 C1044 1.387 . S
C1043 H1046 0.950 . S
C1044 C1043 1.387 . S
C1044 C1047 1.387 . S
H1045 C1041 0.950 . S
H1046 C1043 0.950 . S
C1047 C1038 1.390 . S
C1047 H1040 0.950 . S
C1047 C1044 1.387 . S
C1048 C1049 1.387 . S
C1048 H1052 0.950 . S
C1048 C1057 1.390 . S
C1049 C1048 1.387 . S
C1049 C1051 1.387 . S
H1050 C1057 0.950 . S
C1051 C1049 1.387 . S
C1051 C1053 1.390 . S
C1051 H1055 0.950 . S
H1052 C1048 0.950 . S
C1053 C1051 1.390 . S
C1053 C1054 1.387 . S
C1053 H1056 0.950 . S
C1054 C1053 1.387 . S
C1054 C1057 1.387 . S
H1055 C1051 0.950 . S
H1056 C1053 0.950 . S
C1057 C1048 1.390 . S
C1057 H1050 0.950 . S
C1057 C1054 1.387 . S
C1058 C1059 1.387 . S
C1058 H1062 0.950 . S
C1058 C1067 1.390 . S
C1059 C1058 1.387 . S
C1059 C1061 1.387 . S
H1060 C1067 0.950 . S
C1061 C1059 1.387 . S
C1061 C1063 1.390 . S
C1061 H1065 0.950 . S
H1062 C1058 0.950 . S
C1063 C1061 1.390 . S
C1063 C1064 1.387 . S
C1063 H1066 0.950 . S
C1064 C1063 1.387 . S
C1064 C1067 1.387 . S
H1065 C1061 0.950 . S
H1066 C1063 0.950 . S
C1067 C1058 1.390 . S
C1067 H1060 0.950 . S
C1067 C1064 1.387 . S
C1068 C1069 1.387 . S
C1068 H1072 0.950 . S
C1068 C1077 1.390 . S
C1069 C1068 1.387 . S
C1069 C1071 1.387 . S
H1070 C1077 0.950 . S
C1071 C1069 1.387 . S
C1071 C1073 1.390 . S
C1071 H1075 0.950 . S
H1072 C1068 0.950 . S
C1073 C1071 1.390 . S
C1073 C1074 1.387 . S
C1073 H1076 0.950 . S
C1074 C1073 1.387 . S
C1074 C1077 1.387 . S
H1075 C1071 0.950 . S
H1076 C1073 0.950 . S
C1077 C1068 1.390 . S
C1077 H1070 0.950 . S
C1077 C1074 1.387 . S
C1078 C1079 1.387 . S
C1078 H1082 0.950 . S
C1078 C1087 1.390 . S
C1079 C1078 1.387 . S
C1079 C1081 1.387 . S
H1080 C1087 0.950 . S
C1081 C1079 1.387 . S
C1081 C1083 1.390 . S
C1081 H1085 0.950 . S
H1082 C1078 0.950 . S
C1083 C1081 1.390 . S
C1083 C1084 1.387 . S
C1083 H1086 0.950 . S
C1084 C1083 1.387 . S
C1084 C1087 1.387 . S
H1085 C1081 0.950 . S
H1086 C1083 0.950 . S
C1087 C1078 1.390 . S
C1087 H1080 0.950 . S
C1087 C1084 1.387 . S
C1088 C1089 1.387 . S
C1088 H1092 0.950 . S
C1088 C1097 1.390 . S
C1089 C1088 1.387 . S
C1089 C1091 1.387 . S
H1090 C1097 0.950 . S
C1091 C1089 1.387 . S
C1091 C1093 1.390 . S
C1091 H1095 0.950 . S
H1092 C1088 0.950 . S
C1093 C1091 1.390 . S
C1093 C1094 1.387 . S
C1093 H1096 0.950 . S
C1094 C1093 1.387 . S
C1094 C1097 1.387 . S
H1095 C1091 0.950 . S
H1096 C1093 0.950 . S
C1097 C1088 1.390 . S
C1097 H1090 0.950 . S
C1097 C1094 1.387 . S
C1098 C1099 1.387 . S
C1098 H1102 0.950 . S
C1098 C1107 1.390 . S
C1099 C1098 1.387 . S
C1099 C1101 1.387 . S
H1100 C1107 0.950 . S
C1101 C1099 1.387 . S
C1101 C1103 1.390 . S
C1101 H1105 0.950 . S
H1102 C1098 0.950 . S
C1103 C1101 1.390 . S
C1103 C1104 1.387 . S
C1103 H1106 0.950 . S
C1104 C1103 1.387 . S
C1104 C1107 1.387 . S
H1105 C1101 0.950 . S
H1106 C1103 0.950 . S
C1107 C1098 1.390 . S
C1107 H1100 0.950 . S
C1107 C1104 1.387 . S
C1108 C1109 1.387 . S
C1108 H1112 0.950 . S
C1108 C1117 1.390 . S
C1109 C1108 1.387 . S
C1109 C1111 1.387 . S
H1110 C1117 0.950 . S
C1111 C1109 1.387 . S
C1111 C1113 1.390 . S
C1111 H1115 0.950 . S
H1112 C1108 0.950 . S
C1113 C1111 1.390 . S
C1113 C1114 1.387 . S
C1113 H1116 0.950 . S
C1114 C1113 1.387 . S
C1114 C1117 1.387 . S
H1115 C1111 0.950 . S
H1116 C1113 0.950 . S
C1117 C1108 1.390 . S
C1117 H1110 0.950 . S
C1117 C1114 1.387 . S
C1118 C1119 1.387 . S
C1118 H1122 0.950 . S
C1118 C1127 1.390 . S
C1119 C1118 1.387 . S
C1119 C1121 1.387 . S
H1120 C1127 0.950 . S
C1121 C1119 1.387 . S
C1121 C1123 1.390 . S
C1121 H1125 0.950 . S
H1122 C1118 0.950 . S
C1123 C1121 1.390 . S
C1123 C1124 1.387 . S
C1123 H1126 0.950 . S
C1124 C1123 1.387 . S
C1124 C1127 1.387 . S
H1125 C1121 0.950 . S
H1126 C1123 0.950 . S
C1127 C1118 1.390 . S
C1127 H1120 0.950 . S
C1127 C1124 1.387 . S
C1128 C1129 1.387 . S
C1128 H1132 0.950 . S
C1128 C1137 1.390 . S
C1129 C1128 1.387 . S
C1129 C1131 1.387 . S
H1130 C1137 0.950 . S
C1131 C1129 1.387 . S
C1131 C1133 1.390 . S
C1131 H1135 0.950 . S
H1132 C1128 0.950 . S
C1133 C1131 1.390 . S
C1133 C1134 1.387 . S
C1133 H1136 0.950 . S
C1134 C1133 1.387 . S
C1134 C1137 1.387 . S
H1135 C1131 0.950 . S
H1136 C1133 0.950 . S
C1137 C1128 1.390 . S
C1137 H1130 0.950 . S
C1137 C1134 1.387 . S
C1138 C1139 1.387 . S
C1138 H1142 0.950 . S
C1138 C1147 1.390 . S
C1139 C1138 1.387 . S
C1139 C1141 1.387 . S
H1140 C1147 0.950 . S
C1141 C1139 1.387 . S
C1141 C1143 1.390 . S
C1141 H1145 0.950 . S
H1142 C1138 0.950 . S
C1143 C1141 1.390 . S
C1143 C1144 1.387 . S
C1143 H1146 0.950 . S
C1144 C1143 1.387 . S
C1144 C1147 1.387 . S
H1145 C1141 0.950 . S
H1146 C1143 0.950 . S
C1147 C1138 1.390 . S
C1147 H1140 0.950 . S
C1147 C1144 1.387 . S
C1148 C1149 1.387 . S
C1148 H1152 0.950 . S
C1148 C1157 1.390 . S
C1149 C1148 1.387 . S
C1149 C1151 1.387 . S
H1150 C1157 0.950 . S
C1151 C1149 1.387 . S
C1151 C1153 1.390 . S
C1151 H1155 0.950 . S
H1152 C1148 0.950 . S
C1153 C1151 1.390 . S
C1153 C1154 1.387 . S
C1153 H1156 0.950 . S
C1154 C1153 1.387 . S
C1154 C1157 1.387 . S
H1155 C1151 0.950 . S
H1156 C1153 0.950 . S
C1157 C1148 1.390 . S
C1157 H1150 0.950 . S
C1157 C1154 1.387 . S
C1158 C1159 1.387 . S
C1158 H1162 0.950 . S
C1158 C1167 1.390 . S
C1159 C1158 1.387 . S
C1159 C1161 1.387 . S
H1160 C1167 0.950 . S
C1161 C1159 1.387 . S
C1161 C1163 1.390 . S
C1161 H1165 0.950 . S
H1162 C1158 0.950 . S
C1163 C1161 1.390 . S
C1163 C1164 1.387 . S
C1163 H1166 0.950 . S
C1164 C1163 1.387 . S
C1164 C1167 1.387 . S
H1165 C1161 0.950 . S
H1166 C1163 0.950 . S
C1167 C1158 1.390 . S
C1167 H1160 0.950 . S
C1167 C1164 1.387 . S
C1168 C1169 1.387 . S
C1168 H1172 0.950 . S
C1168 C1177 1.390 . S
C1169 C1168 1.387 . S
C1169 C1171 1.387 . S
H1170 C1177 0.950 . S
C1171 C1169 1.387 . S
C1171 C1173 1.390 . S
C1171 H1175 0.950 . S
H1172 C1168 0.950 . S
C1173 C1171 1.390 . S
C1173 C1174 1.387 . S
C1173 H1176 0.950 . S
C1174 C1173 1.387 . S
C1174 C1177 1.387 . S
H1175 C1171 0.950 . S
H1176 C1173 0.950 . S
C1177 C1168 1.390 . S
C1177 H1170 0.950 . S
C1177 C1174 1.387 . S
C1178 C1179 1.387 . S
C1178 H1182 0.950 . S
C1178 C1187 1.390 . S
C1179 C1178 1.387 . S
C1179 C1181 1.387 . S
H1180 C1187 0.950 . S
C1181 C1179 1.387 . S
C1181 C1183 1.390 . S
C1181 H1185 0.950 . S
H1182 C1178 0.950 . S
C1183 C1181 1.390 . S
C1183 C1184 1.387 . S
C1183 H1186 0.950 . S
C1184 C1183 1.387 . S
C1184 C1187 1.387 . S
H1185 C1181 0.950 . S
H1186 C1183 0.950 . S
C1187 C1178 1.390 . S
C1187 H1180 0.950 . S
C1187 C1184 1.387 . S
C1188 C1189 1.387 . S
C1188 H1192 0.950 . S
C1188 C1197 1.390 . S
C1189 C1188 1.387 . S
C1189 C1191 1.387 . S
H1190 C1197 0.950 . S
C1191 C1189 1.387 . S
C1191 C1193 1.390 . S
C1191 H1195 0.950 . S
H1192 C1188 0.950 . S
C1193 C1191 1.390 . S
C1193 C1194 1.387 . S
C1193 H1196 0.950 . S
C1194 C1193 1.387 . S
C1194 C1197 1.387 . S
H1195 C1191 0.950 . S
H1196 C1193 0.950 . S
C1197 C1188 1.390 . S
C1197 H1190 0.950 . S
C1197 C1194 1.387 . S
C1198 C1199 1.387 . S
C1198 H1202 0.950 . S
C1198 C1207 1.390 . S
C1199 C1198 1.387 . S
C1199 C1201 1.387 . S
H1200 C1207 0.950 . S
C1201 C1199 1.387 . S
C1201 C1203 1.390 . S
C1201 H1205 0.950 . S
H1202 C1198 0.950 . S
C1203 C1201 1.390 . S
C1203 C1204 1.387 . S
C1203 H1206 0.950 . S
C1204 C1203 1.387 . S
C1204 C1207 1.387 . S
H1205 C1201 0.950 . S
H1206 C1203 0.950 . S
C1207 C1198 1.390 . S
C1207 H1200 0.950 . S
C1207 C1204 1.387 . S
C1208 C1209 1.387 . S
C1208 H1212 0.950 . S
C1208 C1217 1.390 . S
C1209 C1208 1.387 . S
C1209 C1211 1.387 . S
H1210 C1217 0.950 . S
C1211 C1209 1.387 . S
C1211 C1213 1.390 . S
C1211 H1215 0.950 . S
H1212 C1208 0.950 . S
C1213 C1211 1.390 . S
C1213 C1214 1.387 . S
C1213 H1216 0.950 . S
C1214 C1213 1.387 . S
C1214 C1217 1.387 . S
H1215 C1211 0.950 . S
H1216 C1213 0.950 . S
C1217 C1208 1.390 . S
C1217 H1210 0.950 . S
C1217 C1214 1.387 . S
C1218 C1219 1.387 . S
C1218 H1222 0.950 . S
C1218 C1227 1.390 . S
C1219 C1218 1.387 . S
C1219 C1221 1.387 . S
H1220 C1227 0.950 . S
C1221 C1219 1.387 . S
C1221 C1223 1.390 . S
C1221 H1225 0.950 . S
H1222 C1218 0.950 . S
C1223 C1221 1.390 . S
C1223 C1224 1.387 . S
C1223 H1226 0.950 . S
C1224 C1223 1.387 . S
C1224 C1227 1.387 . S
H1225 C1221 0.950 . S
H1226 C1223 0.950 . S
C1227 C1218 1.390 . S
C1227 H1220 0.950 . S
C1227 C1224 1.387 . S
C1228 C1229 1.387 . S
C1228 H1232 0.950 . S
C1228 C1237 1.390 . S
C1229 C1228 1.387 . S
C1229 C1231 1.387 . S
H1230 C1237 0.950 . S
C1231 C1229 1.387 . S
C1231 C1233 1.390 . S
C1231 H1235 0.950 . S
H1232 C1228 0.950 . S
C1233 C1231 1.390 . S
C1233 C1234 1.387 . S
C1233 H1236 0.950 . S
C1234 C1233 1.387 . S
C1234 C1237 1.387 . S
H1235 C1231 0.950 . S
H1236 C1233 0.950 . S
C1237 C1228 1.390 . S
C1237 H1230 0.950 . S
C1237 C1234 1.387 . S
C1238 C1239 1.387 . S
C1238 H1242 0.950 . S
C1238 C1247 1.390 . S
C1239 C1238 1.387 . S
C1239 C1241 1.387 . S
H1240 C1247 0.950 . S
C1241 C1239 1.387 . S
C1241 C1243 1.390 . S
C1241 H1245 0.950 . S
H1242 C1238 0.950 . S
C1243 C1241 1.390 . S
C1243 C1244 1.387 . S
C1243 H1246 0.950 . S
C1244 C1243 1.387 . S
C1244 C1247 1.387 . S
H1245 C1241 0.950 . S
H1246 C1243 0.950 . S
C1247 C1238 1.390 . S
C1247 H1240 0.950 . S
C1247 C1244 1.387 . S
C534 C258 1.186 . S
C529 C212 1.238 . S
C539 C194 1.262 . S
C544 C252 1.193 . S
C554 C220 1.281 . S
C549 C185 1.368 . S
C559 C203 1.392 . S
C564 C234 1.287 . S
C574 C272 1.526 . S
C569 C149 1.636 . S
C584 C359 1.181 . S
C579 C158 1.224 . S
C589 C167 1.657 . S
C594 C286 1.568 . S
C604 C354 0.953 . S
C599 C176 0.974 . S
C609 C113 1.658 . S
C614 C310 1.565 . S
C624 C365 1.220 . S
C619 C122 1.269 . S
C629 C131 1.616 . S
C634 C304 1.537 . S
C639 C140 1.004 . S
C644 C350 0.984 . S
C654 C406 0.985 . S
C649 C104 1.004 . S
C659 C86 1.242 . S
C664 C417 1.218 . S
C669 C77 1.055 . S
C674 C402 1.030 . S
C684 C411 1.263 . S
C679 C95 1.286 . S
C689 C41 1.314 1_455 S
C694 C456 1.253 . S
C699 C50 0.704 . S
C704 C515 0.707 . S
C709 C59 1.437 . S
C714 C472 1.324 . S
C719 C68 1.009 . S
C724 C510 0.977 . S
C734 C474 1.350 . S
C729 C5 1.451 . S
C744 C521 0.682 . S
C739 C14 0.678 . S
C749 C23 1.310 . S
C754 C450 1.234 . S
C764 C506 0.956 . S
C759 C32 0.989 . S
C774 C242 1.574 . S
C769 C4 1.597 . S
C779 C16 1.363 . S
C784 C246 1.405 . S
C789 C22 1.641 . S
C794 C266 1.588 . S
C799 C31 1.183 . S
C804 C261 1.225 . S
C809 C40 1.650 1_455 S
C814 C264 1.611 . S
C824 C250 1.392 . S
C819 C49 1.361 . S
C829 C61 1.581 . S
C834 C248 1.557 . S
C844 C255 1.206 . S
C839 C70 1.149 . S
C854 C318 1.555 . S
C849 C34 1.584 . S
C859 C7 1.811 . S
C864 C368 1.766 . S
C874 C316 1.354 . S
C869 C13 1.387 . S
C884 C352 1.700 . S
C879 C25 1.733 . S
C889 C52 1.324 . S
C894 C294 1.311 . S
C904 C370 1.747 . S
C899 C58 1.811 . S
C914 C300 1.520 . S
C909 C67 1.541 . S
C924 C346 1.714 . S
C919 C43 1.743 1_455 S
C934 C338 1.555 . S
C929 C76 1.533 . S
C939 C88 1.390 . S
C944 C362 1.457 . S
C954 C298 1.332 . S
C949 C79 1.283 . S
C964 C324 1.479 1_556 S
C959 C97 1.437 . S
C969 C103 1.267 . S
C974 C302 1.302 . S
C979 C106 1.465 . S
C984 C356 1.524 . S
C994 C313 1.493 . S
C989 C85 1.410 . S
C1004 C307 1.530 . S
C999 C94 1.441 . S
C1014 C390 1.824 . S
C1009 C112 1.829 . S
C1024 C422 1.577 . S
C1019 C124 1.526 . S
C1029 C133 1.801 . S
C1034 C376 1.814 . S
C1044 C420 1.353 . S
C1039 C139 1.358 . S
C1054 C408 1.800 . S
C1049 C148 1.788 . S
C1059 C157 1.484 . S
C1064 C404 1.544 . S
C1069 C169 1.806 . S
C1074 C414 1.852 . S
C1084 C398 1.316 . S
C1079 C178 1.292 . S
C1094 C463 1.483 . S
C1089 C142 1.430 . S
C1099 C115 1.624 . S
C1104 C524 1.636 . S
C1114 C458 1.308 . S
C1109 C121 1.237 . S
C1124 C508 1.636 . S
C1119 C130 1.584 . S
C1134 C454 1.263 . S
C1129 C160 1.189 . S
C1139 C166 1.577 . S
C1144 C526 1.600 . S
C1154 C469 1.452 . S
C1149 C175 1.415 . S
C1164 C502 1.545 . S
C1159 C151 1.527 . S
C1174 C494 1.681 . S
C1169 C184 1.711 . S
C1179 C196 1.758 . S
C1184 C518 1.706 . S
C1194 C460 1.509 . S
C1189 C187 1.523 . S
C1199 C205 1.819 . S
C1204 C480 1.749 . S
C1214 C442 1.546 . S
C1209 C211 1.586 . S
C1224 C512 1.630 . S
C1219 C214 1.623 . S
C1234 C428 1.525 . S
C1229 C193 1.577 . S
C1239 C202 1.528 . S
C1244 C466 1.492 . S
