# Generated by pormake.
# Topology pto, (3,4)-cn, num edge types: 1
# Building blocks:
#     Node 0, Type 0, BuildingBlock: BETDAH_clean_linker_0, # of connection points: 3
#     Node 1, Type 0, BuildingBlock: BETDAH_clean_linker_0, # of connection points: 3
#     Node 2, Type 0, BuildingBlock: BETDAH_clean_linker_0, # of connection points: 3
#     Node 3, Type 0, BuildingBlock: BETDAH_clean_linker_0, # of connection points: 3
#     Node 4, Type 0, BuildingBlock: BETDAH_clean_linker_0, # of connection points: 3
#     Node 5, Type 0, BuildingBlock: BETDAH_clean_linker_0, # of connection points: 3
#     Node 6, Type 0, BuildingBlock: BETDAH_clean_linker_0, # of connection points: 3
#     Node 7, Type 0, BuildingBlock: BETDAH_clean_linker_0, # of connection points: 3
#     Node 8, Type 1, BuildingBlock: NAWXER_clean_sbu_0, # of connection points: 4
#     Node 9, Type 1, BuildingBlock: NAWXER_clean_sbu_0, # of connection points: 4
#     Node 10, Type 1, BuildingBlock: NAWXER_clean_sbu_0, # of connection points: 4
#     Node 11, Type 1, BuildingBlock: NAWXER_clean_sbu_0, # of connection points: 4
#     Node 12, Type 1, BuildingBlock: NAWXER_clean_sbu_0, # of connection points: 4
#     Node 13, Type 1, BuildingBlock: NAWXER_clean_sbu_0, # of connection points: 4
#     Edge 14, Type (0, 1), BuildingBlock: OJICUG_clean_linker_0, # of connection points: 2
#     Edge 15, Type (0, 1), BuildingBlock: OJICUG_clean_linker_0, # of connection points: 2
#     Edge 16, Type (0, 1), BuildingBlock: OJICUG_clean_linker_0, # of connection points: 2
#     Edge 17, Type (0, 1), BuildingBlock: OJICUG_clean_linker_0, # of connection points: 2
#     Edge 18, Type (0, 1), BuildingBlock: OJICUG_clean_linker_0, # of connection points: 2
#     Edge 19, Type (0, 1), BuildingBlock: OJICUG_clean_linker_0, # of connection points: 2
#     Edge 20, Type (0, 1), BuildingBlock: OJICUG_clean_linker_0, # of connection points: 2
#     Edge 21, Type (0, 1), BuildingBlock: OJICUG_clean_linker_0, # of connection points: 2
#     Edge 22, Type (0, 1), BuildingBlock: OJICUG_clean_linker_0, # of connection points: 2
#     Edge 23, Type (0, 1), BuildingBlock: OJICUG_clean_linker_0, # of connection points: 2
#     Edge 24, Type (0, 1), BuildingBlock: OJICUG_clean_linker_0, # of connection points: 2
#     Edge 25, Type (0, 1), BuildingBlock: OJICUG_clean_linker_0, # of connection points: 2
#     Edge 26, Type (0, 1), BuildingBlock: OJICUG_clean_linker_0, # of connection points: 2
#     Edge 27, Type (0, 1), BuildingBlock: OJICUG_clean_linker_0, # of connection points: 2
#     Edge 28, Type (0, 1), BuildingBlock: OJICUG_clean_linker_0, # of connection points: 2
#     Edge 29, Type (0, 1), BuildingBlock: OJICUG_clean_linker_0, # of connection points: 2
#     Edge 30, Type (0, 1), BuildingBlock: OJICUG_clean_linker_0, # of connection points: 2
#     Edge 31, Type (0, 1), BuildingBlock: OJICUG_clean_linker_0, # of connection points: 2
#     Edge 32, Type (0, 1), BuildingBlock: OJICUG_clean_linker_0, # of connection points: 2
#     Edge 33, Type (0, 1), BuildingBlock: OJICUG_clean_linker_0, # of connection points: 2
#     Edge 34, Type (0, 1), BuildingBlock: OJICUG_clean_linker_0, # of connection points: 2
#     Edge 35, Type (0, 1), BuildingBlock: OJICUG_clean_linker_0, # of connection points: 2
#     Edge 36, Type (0, 1), BuildingBlock: OJICUG_clean_linker_0, # of connection points: 2
#     Edge 37, Type (0, 1), BuildingBlock: OJICUG_clean_linker_0, # of connection points: 2
# Relax obj value: 0.012
# Max RMSD: 0.135
# Mean RMSD: 0.056
data_MOF--net-pto--node1-NAWXER_clean_sbu_0--node2-BETDAH_clean_linker_0--edge1-OJICUG_clean_linker_0
_symmetry_space_group_name_H-M    P1
_symmetry_Int_Tables_number       1
_symmetry_cell_setting            triclinic
loop_
_symmetry_equiv_pos_as_xyz
'x, y, z'
_cell_length_a     30.439247
_cell_length_b     28.11673
_cell_length_c     27.338603
_cell_angle_alpha  110.12326
_cell_angle_beta   95.673767
_cell_angle_gamma 98.877394
loop_
_atom_site_label
_atom_site_type_symbol
_atom_site_fract_x
_atom_site_fract_y
_atom_site_fract_z
_atom_type_partial_charge
H0 H 0.41509 0.20636 0.42576 0.0
H1 H 0.31497 0.22463 0.31449 0.0
H2 H 0.27628 0.19394 0.44892 0.0
C3 C 0.38033 0.20692 0.41323 0.0
C4 C 0.34761 0.20082 0.44459 0.0
C5 C 0.36869 0.21517 0.36619 0.0
C6 C 0.32414 0.21842 0.35083 0.0
C7 C 0.29089 0.21057 0.38077 0.0
C8 C 0.3026 0.20105 0.42686 0.0
N9 N 0.24495 0.20876 0.36367 0.0
C10 C 0.23026 0.24665 0.34822 0.0
H11 H 0.29056 0.69346 0.88986 0.0
H12 H 0.37 0.7918 0.82644 0.0
H13 H 0.22688 0.7428 0.77336 0.0
C14 C 0.29277 0.71526 0.86397 0.0
C15 C 0.25338 0.71586 0.83299 0.0
C16 C 0.33507 0.74189 0.86152 0.0
C17 C 0.3376 0.77132 0.82897 0.0
C18 C 0.29849 0.77126 0.79686 0.0
C19 C 0.25683 0.74275 0.79832 0.0
N20 N 0.30038 0.79592 0.75955 0.0
C21 C 0.32416 0.84572 0.77002 0.0
H22 H 0.88974 0.67146 0.38058 0.0
H23 H 0.7591 0.66699 0.30075 0.0
H24 H 0.82723 0.54191 0.23923 0.0
C25 C 0.86193 0.65226 0.34825 0.0
C26 C 0.86391 0.60433 0.30964 0.0
C27 C 0.824 0.67514 0.34599 0.0
C28 C 0.78816 0.64968 0.30355 0.0
C29 C 0.78959 0.60176 0.26496 0.0
C30 C 0.82718 0.57943 0.26854 0.0
N31 N 0.75353 0.57422 0.22251 0.0
C32 C 0.71788 0.59501 0.20858 0.0
H33 H 0.83371 0.23857 0.78504 0.0
H34 H 0.7537 0.18003 0.88167 0.0
H35 H 0.83452 0.33277 0.94712 0.0
C36 C 0.82089 0.24458 0.82183 0.0
C37 C 0.83744 0.29137 0.86489 0.0
C38 C 0.7907 0.20389 0.82741 0.0
C39 C 0.77599 0.2112 0.87634 0.0
C40 C 0.79234 0.25771 0.91935 0.0
C41 C 0.82249 0.29721 0.91325 0.0
N42 N 0.78352 0.26422 0.97092 0.0
C43 C 0.74225 0.24749 0.98335 0.0
H44 H 0.80434 0.72819 0.97554 0.0
H45 H 0.89312 0.80608 0.90106 0.0
H46 H 0.78004 0.86871 0.95752 0.0
C47 C 0.81344 0.75971 0.96187 0.0
C48 C 0.78665 0.79749 0.96874 0.0
C49 C 0.8521 0.76249 0.9377 0.0
C50 C 0.86324 0.803 0.91918 0.0
C51 C 0.83749 0.84154 0.92708 0.0
C52 C 0.79989 0.839 0.95238 0.0
N53 N 0.84994 0.88473 0.91231 0.0
C54 C 0.86253 0.88077 0.86378 0.0
H55 H 0.83172 0.34511 0.39733 0.0
H56 H 0.88695 0.28164 0.5065 0.0
H57 H 0.74332 0.25888 0.46455 0.0
C58 C 0.82666 0.32398 0.42353 0.0
C59 C 0.78277 0.30302 0.42722 0.0
C60 C 0.86429 0.31672 0.45224 0.0
C61 C 0.85803 0.28779 0.48469 0.0
C62 C 0.81426 0.2667 0.48879 0.0
C63 C 0.77695 0.2752 0.46091 0.0
N64 N 0.80676 0.23731 0.52117 0.0
C65 C 0.83019 0.19881 0.52204 0.0
H66 H 0.377 0.30087 0.96257 0.0
H67 H 0.34319 0.41638 0.09522 0.0
H68 H 0.25926 0.36363 0.94258 0.0
C69 C 0.35518 0.3273 0.97898 0.0
C70 C 0.3174 0.32887 0.94617 0.0
C71 C 0.36469 0.35818 0.03276 0.0
C72 C 0.33647 0.39243 0.05358 0.0
C73 C 0.29858 0.39496 0.02154 0.0
C74 C 0.28869 0.36258 0.96763 0.0
N75 N 0.27108 0.42986 0.0457 0.0
C76 C 0.23433 0.44053 0.01986 0.0
H77 H 0.24631 0.78357 0.45186 0.0
H78 H 0.30577 0.85481 0.35179 0.0
H79 H 0.2548 0.69117 0.2916 0.0
C80 C 0.25538 0.77987 0.4136 0.0
C81 C 0.24747 0.73108 0.37297 0.0
C82 C 0.27476 0.82471 0.40588 0.0
C83 C 0.29067 0.82044 0.35831 0.0
C84 C 0.28447 0.77187 0.31772 0.0
C85 C 0.26184 0.72772 0.32461 0.0
N86 N 0.29519 0.76781 0.26738 0.0
C87 C 0.33918 0.77474 0.25725 0.0
C88 C 0.02855 0.42314 0.41933 0.0
C89 C 0.14229 0.55268 0.39595 0.0
O90 O 0.05462 0.46109 0.45608 0.0
Zn91 Zn 0.08715 0.48785 0.41029 0.0
O92 O 0.03239 0.41541 0.37107 0.0
Zn93 Zn 0.07148 0.44867 0.32592 0.0
O94 O 0.10311 0.39372 0.29216 0.0
O95 O 0.12533 0.43024 0.37835 0.0
O96 O 0.12295 0.51689 0.35221 0.0
O97 O 0.13153 0.55141 0.43933 0.0
O98 O 0.03458 0.51096 0.37212 0.0
O99 O 0.0242 0.46781 0.28626 0.0
C100 C 0.12841 0.39693 0.33363 0.0
C101 C 0.01341 0.50118 0.32582 0.0
C102 C 0.96744 0.46469 0.86267 0.0
C103 C 0.08688 0.59984 0.85563 0.0
O104 O 0.98414 0.49972 0.90792 0.0
Zn105 Zn 0.03166 0.57158 0.93999 0.0
O106 O 0.97985 0.46983 0.8214 0.0
Zn107 Zn 0.02406 0.53454 0.85735 0.0
O108 O 0.07351 0.51175 0.90418 0.0
O109 O 0.07281 0.55698 0.98796 0.0
O110 O 0.06269 0.56229 0.81677 0.0
O111 O 0.07815 0.60732 0.90236 0.0
O112 O 0.99613 0.62211 0.96994 0.0
O113 O 0.9826 0.59177 0.88305 0.0
C114 C 0.08853 0.52366 0.95343 0.0
C115 C 0.97515 0.62198 0.92743 0.0
C116 C 0.3567 0.03137 0.72942 0.0
C117 C 0.36818 0.14378 0.62581 0.0
O118 O 0.31897 0.04046 0.71362 0.0
Zn119 Zn 0.29339 0.08296 0.67036 0.0
O120 O 0.39294 0.05331 0.72 0.0
Zn121 Zn 0.36593 0.0918 0.68135 0.0
O122 O 0.34042 0.15013 0.73824 0.0
O123 O 0.26598 0.13214 0.72077 0.0
O124 O 0.40138 0.13096 0.64693 0.0
O125 O 0.32815 0.12913 0.63294 0.0
O126 O 0.25729 0.02712 0.60822 0.0
O127 O 0.33057 0.0306 0.61234 0.0
C128 C 0.30239 0.16159 0.74903 0.0
C129 C 0.29033 0.00987 0.58812 0.0
C130 C 0.58303 0.6735 0.1157 0.0
C131 C 0.48429 0.72051 0.99545 0.0
O132 O 0.55529 0.64353 0.07485 0.0
Zn133 Zn 0.53356 0.69655 0.05591 0.0
O134 O 0.58605 0.72262 0.13021 0.0
Zn135 Zn 0.55622 0.77599 0.10281 0.0
O136 O 0.52435 0.80898 0.16013 0.0
O137 O 0.49493 0.72638 0.11685 0.0
O138 O 0.50688 0.76049 0.03392 0.0
O139 O 0.49017 0.67593 0.99255 0.0
O140 O 0.59363 0.733 0.03745 0.0
O141 O 0.60975 0.81508 0.08981 0.0
C142 C 0.49446 0.76936 0.15363 0.0
C143 C 0.61957 0.77773 0.05337 0.0
C144 C 0.86827 0.92053 0.67422 0.0
C145 C 0.86397 0.02187 0.56042 0.0
O146 O 0.82903 0.91399 0.64809 0.0
Zn147 Zn 0.79792 0.93819 0.58932 0.0
O148 O 0.90183 0.94769 0.66539 0.0
Zn149 Zn 0.86898 0.96662 0.6125 0.0
O150 O 0.82716 0.01193 0.65984 0.0
O151 O 0.75537 0.97586 0.62765 0.0
O152 O 0.89892 0.01806 0.58734 0.0
O153 O 0.82587 0.99334 0.55731 0.0
O154 O 0.77635 0.87462 0.52882 0.0
O155 O 0.85051 0.89605 0.54419 0.0
C156 C 0.78531 0.01195 0.66161 0.0
C157 C 0.81406 0.86487 0.51656 0.0
C158 C 0.63636 0.31067 0.27944 0.0
C159 C 0.51494 0.32802 0.15864 0.0
O160 O 0.61399 0.26736 0.24594 0.0
Zn161 Zn 0.56023 0.23922 0.18098 0.0
O162 O 0.62707 0.35252 0.27719 0.0
Zn163 Zn 0.57731 0.32186 0.21788 0.0
O164 O 0.52668 0.2838 0.24867 0.0
O165 O 0.51624 0.19935 0.20577 0.0
O166 O 0.54293 0.36505 0.19427 0.0
O167 O 0.51873 0.28118 0.15045 0.0
O168 O 0.5884 0.20468 0.12129 0.0
O169 O 0.60942 0.28967 0.15136 0.0
C170 C 0.50631 0.23773 0.24082 0.0
C171 C 0.61104 0.24512 0.11803 0.0
C172 C 0.1783 0.27593 0.29423 0.0
C173 C 0.21013 0.28686 0.33942 0.0
H174 H 0.12754 0.30284 0.25629 0.0
C175 C 0.2181 0.33555 0.37974 0.0
H176 H 0.17146 0.23819 0.26291 0.0
C177 C 0.19299 0.37219 0.3763 0.0
C178 C 0.15938 0.36079 0.33236 0.0
H179 H 0.24235 0.3445 0.41507 0.0
H180 H 0.19884 0.40886 0.40908 0.0
C181 C 0.15324 0.31284 0.29052 0.0
C182 C 0.19771 0.69526 0.88786 0.0
C183 C 0.20896 0.68864 0.83768 0.0
H184 H 0.15041 0.67334 0.93273 0.0
C185 C 0.17827 0.65481 0.79278 0.0
H186 H 0.22038 0.72157 0.92315 0.0
C187 C 0.13792 0.62668 0.79818 0.0
C188 C 0.12729 0.63241 0.84859 0.0
H189 H 0.18614 0.64887 0.75359 0.0
H190 H 0.11553 0.59981 0.76298 0.0
C191 C 0.15738 0.66776 0.89326 0.0
C192 C 0.91921 0.55046 0.26744 0.0
C193 C 0.90328 0.57905 0.31318 0.0
H194 H 0.96628 0.50324 0.23518 0.0
C195 C 0.9244 0.58195 0.36246 0.0
H196 H 0.9042 0.54787 0.22879 0.0
C197 C 0.9602 0.55706 0.36603 0.0
C198 C 0.97584 0.52803 0.32043 0.0
H199 H 0.91267 0.6025 0.39846 0.0
H200 H 0.97517 0.56 0.40486 0.0
C201 C 0.95495 0.52503 0.27101 0.0
C202 C 0.87144 0.3466 0.81615 0.0
C203 C 0.87237 0.33324 0.8614 0.0
H204 H 0.90098 0.3987 0.78065 0.0
C205 C 0.90659 0.36154 0.90488 0.0
H206 H 0.84563 0.32569 0.78191 0.0
C207 C 0.93729 0.40359 0.90452 0.0
C208 C 0.93555 0.41809 0.86022 0.0
H209 H 0.90968 0.35145 0.93971 0.0
H210 H 0.96259 0.42482 0.93924 0.0
C211 C 0.90298 0.3885 0.81545 0.0
C212 C 0.39092 0.16246 0.50033 0.0
C213 C 0.35976 0.19342 0.49531 0.0
H214 H 0.41916 0.12348 0.54713 0.0
C215 C 0.33818 0.21518 0.53844 0.0
H216 H 0.40809 0.14492 0.46791 0.0
C217 C 0.34434 0.20256 0.58337 0.0
C218 C 0.37289 0.16873 0.58674 0.0
H219 H 0.31508 0.24047 0.53673 0.0
H220 H 0.32486 0.21711 0.61442 0.0
C221 C 0.39759 0.15043 0.54586 0.0
C222 C 0.38226 0.68763 0.88979 0.0
C223 C 0.37617 0.73681 0.8919 0.0
H224 H 0.42132 0.64386 0.92004 0.0
C225 C 0.40803 0.78057 0.92533 0.0
H226 H 0.35851 0.65317 0.86385 0.0
C227 C 0.44405 0.7753 0.95796 0.0
C228 C 0.44916 0.72611 0.95722 0.0
H229 H 0.40409 0.81891 0.92775 0.0
H230 H 0.46725 0.80985 0.98462 0.0
C231 C 0.4184 0.68231 0.92184 0.0
C232 C 0.85972 0.76419 0.41265 0.0
C233 C 0.82122 0.72469 0.3886 0.0
H234 H 0.88771 0.83906 0.47149 0.0
C235 C 0.78007 0.73253 0.40639 0.0
H236 H 0.89184 0.76014 0.39957 0.0
C237 C 0.77757 0.77826 0.44717 0.0
C238 C 0.81622 0.81726 0.47169 0.0
H239 H 0.74979 0.70283 0.38964 0.0
H240 H 0.74543 0.78258 0.46013 0.0
C241 C 0.85729 0.80972 0.45376 0.0
C242 C 0.6886 0.19743 0.019 0.0
C243 C 0.70353 0.24236 0.00887 0.0
H244 H 0.64664 0.16263 0.06143 0.0
C245 C 0.68523 0.28614 0.0309 0.0
H246 H 0.70296 0.1635 0.00279 0.0
C247 C 0.65388 0.28607 0.06479 0.0
C248 C 0.64007 0.24203 0.07712 0.0
H249 H 0.69675 0.32133 0.02391 0.0
H250 H 0.64143 0.32114 0.08256 0.0
C251 C 0.65664 0.19708 0.05262 0.0
C252 C 0.37791 0.91022 0.75077 0.0
C253 C 0.33958 0.89776 0.77205 0.0
H254 H 0.4144 0.9639 0.7217 0.0
C255 C 0.31136 0.93336 0.7868 0.0
H256 H 0.39977 0.88281 0.73851 0.0
C257 C 0.31934 0.97919 0.77683 0.0
C258 C 0.35587 0.9904 0.75211 0.0
H259 H 0.28138 0.92422 0.80283 0.0
H260 H 0.29534 1.00448 0.78568 0.0
C261 C 0.38628 0.95659 0.74128 0.0
C262 C 0.64701 0.58019 0.14901 0.0
C263 C 0.68137 0.61428 0.18928 0.0
H264 H 0.58839 0.57209 0.09429 0.0
C265 C 0.6816 0.66733 0.20804 0.0
H266 H 0.64651 0.53903 0.13403 0.0
C267 C 0.64843 0.68639 0.18555 0.0
C268 C 0.61467 0.65261 0.14371 0.0
H269 H 0.70806 0.69418 0.23904 0.0
H270 H 0.65013 0.72776 0.19986 0.0
C271 C 0.61384 0.59916 0.12637 0.0
C272 C 0.7692 0.14678 0.73122 0.0
C273 C 0.77947 0.15197 0.78437 0.0
H274 H 0.7615 0.09679 0.6499 0.0
C275 C 0.78399 0.1077 0.79589 0.0
H276 H 0.76543 0.18012 0.72113 0.0
C277 C 0.78161 0.06026 0.75521 0.0
C278 C 0.77376 0.0559 0.70232 0.0
H279 H 0.79259 0.11047 0.83631 0.0
H280 H 0.78875 0.02776 0.7651 0.0
C281 C 0.76633 0.09906 0.69051 0.0
C282 C 0.41257 0.26462 0.32071 0.0
C283 C 0.40321 0.22006 0.33299 0.0
H284 H 0.45309 0.3052 0.28233 0.0
C285 C 0.42728 0.18046 0.3139 0.0
H286 H 0.39442 0.29559 0.33512 0.0
C287 C 0.46027 0.18539 0.28279 0.0
C288 C 0.47037 0.23058 0.27155 0.0
H289 H 0.42032 0.14564 0.32284 0.0
H290 H 0.47849 0.15448 0.26853 0.0
C291 C 0.4462 0.27009 0.29076 0.0
C292 C 0.89605 0.71317 0.97854 0.0
C293 C 0.88206 0.72465 0.93405 0.0
H294 H 0.93665 0.67237 0.01152 0.0
C295 C 0.89826 0.70128 0.88691 0.0
H296 H 0.88453 0.73098 0.01556 0.0
C297 C 0.92787 0.66725 0.8844 0.0
C298 C 0.94255 0.65658 0.92925 0.0
H299 H 0.88792 0.70925 0.85193 0.0
H300 H 0.93985 0.65001 0.84757 0.0
C301 C 0.92617 0.67986 0.97629 0.0
C302 C 0.93999 0.37558 0.48949 0.0
C303 C 0.90987 0.33833 0.44624 0.0
H304 H 1.00179 0.43222 0.5151 0.0
C305 C 0.92161 0.32519 0.39571 0.0
H306 H 0.93138 0.38625 0.52883 0.0
C307 C 0.96166 0.35077 0.38788 0.0
C308 C 0.99064 0.39066 0.43037 0.0
H309 H 0.89897 0.29623 0.36191 0.0
H310 H 0.9688 0.3407 0.34793 0.0
C311 C 0.98012 0.40182 0.48159 0.0
C312 C 0.18105 0.44599 0.94823 0.0
C313 C 0.19631 0.45872 1.00206 0.0
H314 H 0.13455 0.45648 0.89035 0.0
C315 C 0.17548 0.49135 0.03966 0.0
H316 H 0.19695 0.42091 0.9187 0.0
C317 C 0.14006 0.51179 0.02379 0.0
C318 C 0.1248 0.49992 0.96987 0.0
H319 H 0.18699 0.50163 0.08147 0.0
H320 H 0.12499 0.53735 0.05388 0.0
C321 C 0.14543 0.46638 0.93219 0.0
C322 C 0.22958 0.63475 0.35383 0.0
C323 C 0.22243 0.68481 0.38088 0.0
H324 H 0.20943 0.55339 0.33727 0.0
C325 C 0.19034 0.69034 0.41537 0.0
H326 H 0.25437 0.62859 0.32772 0.0
C327 C 0.16655 0.64753 0.42282 0.0
C328 C 0.17281 0.59785 0.39446 0.0
H329 H 0.18221 0.72753 0.43565 0.0
H330 H 0.14143 0.65303 0.44864 0.0
C331 C 0.2044 0.59165 0.35986 0.0
C332 C 0.83502 0.85638 0.76946 0.0
C333 C 0.86937 0.88231 0.81285 0.0
H334 H 0.80824 0.84744 0.69081 0.0
C335 C 0.90668 0.9156 0.80814 0.0
H336 H 0.80582 0.8308 0.7726 0.0
C337 C 0.90831 0.92516 0.76121 0.0
C338 C 0.87227 0.90202 0.71879 0.0
H339 H 0.93333 0.93632 0.84158 0.0
H340 H 0.93625 0.9532 0.75949 0.0
C341 C 0.83643 0.8661 0.7228 0.0
C342 C 0.71008 0.26266 0.36451 0.0
C343 C 0.7435 0.30684 0.3928 0.0
H344 H 0.65047 0.22931 0.30673 0.0
C345 C 0.74046 0.35339 0.38524 0.0
H346 H 0.71172 0.22609 0.36889 0.0
C347 C 0.7051 0.35536 0.34943 0.0
C348 C 0.67249 0.31063 0.32001 0.0
H349 H 0.76563 0.38818 0.40675 0.0
H350 H 0.70392 0.3915 0.3439 0.0
C351 C 0.67517 0.26447 0.32847 0.0
C352 C 0.34417 0.28977 0.86101 0.0
C353 C 0.30861 0.29306 0.89026 0.0
H354 H 0.36995 0.24568 0.79373 0.0
C355 C 0.2682 0.25614 0.86912 0.0
H356 H 0.37553 0.31799 0.8762 0.0
C357 C 0.26487 0.21437 0.82141 0.0
C358 C 0.30207 0.20894 0.79466 0.0
H359 H 0.24042 0.25765 0.89114 0.0
H360 H 0.2343 0.18489 0.8072 0.0
C361 C 0.34104 0.24812 0.81398 0.0
C362 C 0.40977 0.821 0.2418 0.0
C363 C 0.38153 0.77478 0.23743 0.0
H364 H 0.4684 0.85581 0.2191 0.0
C365 C 0.39228 0.72746 0.20886 0.0
H366 H 0.40173 0.85796 0.26343 0.0
C367 C 0.42989 0.72607 0.18333 0.0
C368 C 0.45768 0.77209 0.18589 0.0
H369 H 0.37073 0.69137 0.2048 0.0
H370 H 0.43653 0.68871 0.16048 0.0
C371 C 0.4478 0.8197 0.21643 0.0
C372 C 0.82054 0.10469 0.49217 0.0
C373 C 0.84626 0.15355 0.52342 0.0
H374 H 0.80695 0.02384 0.4786 0.0
C375 C 0.88317 0.1577 0.56071 0.0
H376 H 0.79181 0.10085 0.46331 0.0
C377 C 0.89231 0.11346 0.56915 0.0
C378 C 0.86409 0.06487 0.54092 0.0
H379 H 0.90319 0.19531 0.58543 0.0
H380 H 0.91896 0.11797 0.60072 0.0
C381 C 0.82931 0.0607 0.50088 0.0
C382 C 0.40925 0.30197 0.06084 0.0
C383 C 0.40277 0.35191 0.06689 0.0
H384 H 0.44939 0.25553 0.08436 0.0
C385 C 0.43329 0.39475 0.10435 0.0
H386 H 0.38588 0.26813 0.03313 0.0
C387 C 0.47012 0.38753 0.13434 0.0
C388 C 0.47683 0.33736 0.12739 0.0
H389 H 0.42917 0.43371 0.10972 0.0
H390 H 0.49332 0.42111 0.16268 0.0
C391 C 0.44575 0.2948 0.09048 0.0
C392 C 0.23925 0.88592 0.47276 0.0
C393 C 0.27699 0.87552 0.44793 0.0
H394 H 0.21358 0.93697 0.53654 0.0
C395 C 0.31749 0.91202 0.46643 0.0
H396 H 0.20737 0.85856 0.45866 0.0
C397 C 0.32101 0.9566 0.51093 0.0
C398 C 0.28399 0.96575 0.53755 0.0
H399 H 0.34699 0.90496 0.44806 0.0
H400 H 0.35324 0.98328 0.52535 0.0
C401 C 0.24266 0.93079 0.5171 0.0
C402 C 0.73225 0.83653 0.02746 0.0
C403 C 0.7442 0.79294 0.99133 0.0
H404 H 0.68369 0.86622 0.07545 0.0
C405 C 0.71444 0.74492 0.97537 0.0
H406 H 0.75454 0.87408 0.04087 0.0
C407 C 0.67387 0.7405 0.99491 0.0
C408 C 0.66191 0.78393 0.03123 0.0
H409 H 0.72215 0.71073 0.94701 0.0
H410 H 0.65197 0.70271 0.98163 0.0
C411 C 0.69164 0.83206 0.04732 0.0
loop_
_geom_bond_atom_site_label_1
_geom_bond_atom_site_label_2
_geom_bond_distance
_geom_bond_site_symmetry_2
_ccdc_geom_bond_type
H0 C3 0.929 . S
H1 C6 0.929 . S
H2 C8 0.930 . S
C3 H0 0.929 . S
C3 C4 1.398 . S
C3 C5 1.396 . S
C4 C3 1.398 . S
C4 C8 1.407 . S
C5 C3 1.396 . S
C5 C6 1.394 . S
C6 H1 0.929 . S
C6 C5 1.394 . S
C6 C7 1.382 . S
C7 C6 1.382 . S
C7 C8 1.392 . S
C7 N9 1.420 . S
C8 H2 0.930 . S
C8 C4 1.407 . S
C8 C7 1.392 . S
N9 C7 1.420 . S
N9 C10 1.244 . S
C10 N9 1.244 . S
H11 C14 0.929 . S
H12 C17 0.929 . S
H13 C19 0.930 . S
C14 H11 0.929 . S
C14 C15 1.398 . S
C14 C16 1.396 . S
C15 C14 1.398 . S
C15 C19 1.407 . S
C16 C14 1.396 . S
C16 C17 1.394 . S
C17 H12 0.929 . S
C17 C16 1.394 . S
C17 C18 1.382 . S
C18 C17 1.382 . S
C18 C19 1.392 . S
C18 N20 1.420 . S
C19 H13 0.930 . S
C19 C15 1.407 . S
C19 C18 1.392 . S
N20 C18 1.420 . S
N20 C21 1.244 . S
C21 N20 1.244 . S
H22 C25 0.929 . S
H23 C28 0.929 . S
H24 C30 0.930 . S
C25 H22 0.929 . S
C25 C26 1.398 . S
C25 C27 1.396 . S
C26 C25 1.398 . S
C26 C30 1.407 . S
C27 C25 1.396 . S
C27 C28 1.394 . S
C28 H23 0.929 . S
C28 C27 1.394 . S
C28 C29 1.382 . S
C29 C28 1.382 . S
C29 C30 1.392 . S
C29 N31 1.420 . S
C30 H24 0.930 . S
C30 C26 1.407 . S
C30 C29 1.392 . S
N31 C29 1.420 . S
N31 C32 1.244 . S
C32 N31 1.244 . S
H33 C36 0.929 . S
H34 C39 0.929 . S
H35 C41 0.930 . S
C36 H33 0.929 . S
C36 C37 1.398 . S
C36 C38 1.396 . S
C37 C36 1.398 . S
C37 C41 1.407 1_556 S
C38 C36 1.396 . S
C38 C39 1.394 . S
C39 H34 0.929 . S
C39 C38 1.394 . S
C39 C40 1.382 1_556 S
C40 C39 1.382 1_554 S
C40 C41 1.392 . S
C40 N42 1.420 . S
C41 H35 0.930 . S
C41 C37 1.407 1_554 S
C41 C40 1.392 . S
N42 C40 1.420 . S
N42 C43 1.244 . S
C43 N42 1.244 . S
H44 C47 0.929 . S
H45 C50 0.929 . S
H46 C52 0.930 . S
C47 H44 0.929 . S
C47 C48 1.398 . S
C47 C49 1.396 . S
C48 C47 1.398 . S
C48 C52 1.407 . S
C49 C47 1.396 . S
C49 C50 1.394 . S
C50 H45 0.929 . S
C50 C49 1.394 . S
C50 C51 1.382 . S
C51 C50 1.382 . S
C51 C52 1.392 . S
C51 N53 1.420 . S
C52 H46 0.930 . S
C52 C48 1.407 . S
C52 C51 1.392 . S
N53 C51 1.420 . S
N53 C54 1.244 . S
C54 N53 1.244 . S
H55 C58 0.929 . S
H56 C61 0.929 . S
H57 C63 0.930 . S
C58 H55 0.929 . S
C58 C59 1.398 . S
C58 C60 1.396 . S
C59 C58 1.398 . S
C59 C63 1.407 . S
C60 C58 1.396 . S
C60 C61 1.394 . S
C61 H56 0.929 . S
C61 C60 1.394 . S
C61 C62 1.382 . S
C62 C61 1.382 . S
C62 C63 1.392 . S
C62 N64 1.420 . S
C63 H57 0.930 . S
C63 C59 1.407 . S
C63 C62 1.392 . S
N64 C62 1.420 . S
N64 C65 1.244 . S
C65 N64 1.244 . S
H66 C69 0.929 . S
H67 C72 0.929 1_554 S
H68 C74 0.930 . S
C69 H66 0.929 . S
C69 C70 1.398 . S
C69 C71 1.396 . S
C70 C69 1.398 . S
C70 C74 1.407 . S
C71 C69 1.396 . S
C71 C72 1.394 . S
C72 H67 0.929 1_556 S
C72 C71 1.394 . S
C72 C73 1.382 . S
C73 C72 1.382 . S
C73 C74 1.392 . S
C73 N75 1.420 . S
C74 H68 0.930 . S
C74 C70 1.407 . S
C74 C73 1.392 . S
N75 C73 1.420 . S
N75 C76 1.244 . S
C76 N75 1.244 . S
H77 C80 0.929 . S
H78 C83 0.929 . S
H79 C85 0.930 . S
C80 H77 0.929 . S
C80 C81 1.398 . S
C80 C82 1.396 . S
C81 C80 1.398 . S
C81 C85 1.407 . S
C82 C80 1.396 . S
C82 C83 1.394 . S
C83 H78 0.929 . S
C83 C82 1.394 . S
C83 C84 1.382 . S
C84 C83 1.382 . S
C84 C85 1.392 . S
C84 N86 1.420 . S
C85 H79 0.930 . S
C85 C81 1.407 . S
C85 C84 1.392 . S
N86 C84 1.420 . S
N86 C87 1.244 . S
C87 N86 1.244 . S
C88 O90 1.247 1_655 S
C88 O92 1.258 . S
C89 O96 1.247 . S
C89 O97 1.258 . S
O90 C88 1.247 1_455 S
O90 Zn91 2.028 . S
Zn91 O90 2.028 . S
Zn91 O95 2.035 . S
Zn91 O97 2.035 . S
Zn91 O98 2.028 . S
O92 C88 1.258 . S
O92 Zn93 2.035 1_655 S
Zn93 O92 2.035 1_455 S
Zn93 O94 2.028 . S
Zn93 O96 2.028 . S
Zn93 O99 2.035 1_455 S
O94 Zn93 2.028 . S
O94 C100 1.247 . S
O95 Zn91 2.035 . S
O95 C100 1.258 . S
O96 C89 1.247 . S
O96 Zn93 2.028 . S
O97 C89 1.258 . S
O97 Zn91 2.035 . S
O98 Zn91 2.028 . S
O98 C101 1.247 1_455 S
O99 Zn93 2.035 1_655 S
O99 C101 1.258 . S
C100 O94 1.247 . S
C100 O95 1.258 . S
C101 O98 1.247 1_655 S
C101 O99 1.258 . S
C102 O104 1.247 1_656 S
C102 O106 1.258 . S
C103 O110 1.247 . S
C103 O111 1.258 . S
O104 C102 1.247 1_454 S
O104 Zn105 2.028 . S
Zn105 O104 2.028 . S
Zn105 O109 2.035 . S
Zn105 O111 2.035 1_554 S
Zn105 O112 2.028 1_554 S
O106 C102 1.258 . S
O106 Zn107 2.035 1_655 S
Zn107 O106 2.035 1_455 S
Zn107 O108 2.028 . S
Zn107 O110 2.028 . S
Zn107 O113 2.035 1_455 S
O108 Zn107 2.028 . S
O108 C114 1.247 . S
O109 Zn105 2.035 . S
O109 C114 1.258 1_554 S
O110 C103 1.247 . S
O110 Zn107 2.028 . S
O111 C103 1.258 . S
O111 Zn105 2.035 1_556 S
O112 Zn105 2.028 1_556 S
O112 C115 1.247 1_455 S
O113 Zn107 2.035 1_655 S
O113 C115 1.258 . S
C114 O108 1.247 . S
C114 O109 1.258 1_556 S
C115 O112 1.247 1_655 S
C115 O113 1.258 . S
C116 O118 1.247 . S
C116 O120 1.258 . S
C117 O124 1.247 . S
C117 O125 1.258 . S
O118 C116 1.247 . S
O118 Zn119 2.028 1_565 S
Zn119 O118 2.028 1_545 S
Zn119 O123 2.035 . S
Zn119 O125 2.035 . S
Zn119 O126 2.028 1_545 S
O120 C116 1.258 . S
O120 Zn121 2.035 1_565 S
Zn121 O120 2.035 1_545 S
Zn121 O122 2.028 . S
Zn121 O124 2.028 . S
Zn121 O127 2.035 1_545 S
O122 Zn121 2.028 . S
O122 C128 1.247 . S
O123 Zn119 2.035 . S
O123 C128 1.258 . S
O124 C117 1.247 . S
O124 Zn121 2.028 . S
O125 C117 1.258 . S
O125 Zn119 2.035 . S
O126 Zn119 2.028 1_565 S
O126 C129 1.247 . S
O127 Zn121 2.035 1_565 S
O127 C129 1.258 . S
C128 O122 1.247 . S
C128 O123 1.258 . S
C129 O126 1.247 . S
C129 O127 1.258 . S
C130 O132 1.247 . S
C130 O134 1.258 . S
C131 O138 1.247 . S
C131 O139 1.258 . S
O132 C130 1.247 . S
O132 Zn133 2.028 1_554 S
Zn133 O132 2.028 1_556 S
Zn133 O137 2.035 1_556 S
Zn133 O139 2.035 . S
Zn133 O140 2.028 . S
O134 C130 1.258 . S
O134 Zn135 2.035 . S
Zn135 O134 2.035 . S
Zn135 O136 2.028 . S
Zn135 O138 2.028 1_554 S
Zn135 O141 2.035 1_554 S
O136 Zn135 2.028 . S
O136 C142 1.247 . S
O137 Zn133 2.035 1_554 S
O137 C142 1.258 . S
O138 C131 1.247 . S
O138 Zn135 2.028 1_556 S
O139 C131 1.258 . S
O139 Zn133 2.035 . S
O140 Zn133 2.028 . S
O140 C143 1.247 . S
O141 Zn135 2.035 1_556 S
O141 C143 1.258 . S
C142 O136 1.247 . S
C142 O137 1.258 . S
C143 O140 1.247 . S
C143 O141 1.258 . S
C144 O146 1.247 . S
C144 O148 1.258 . S
C145 O152 1.247 . S
C145 O153 1.258 . S
O146 C144 1.247 . S
O146 Zn147 2.028 1_565 S
Zn147 O146 2.028 1_545 S
Zn147 O151 2.035 . S
Zn147 O153 2.035 . S
Zn147 O154 2.028 1_545 S
O148 C144 1.258 . S
O148 Zn149 2.035 1_565 S
Zn149 O148 2.035 1_545 S
Zn149 O150 2.028 . S
Zn149 O152 2.028 . S
Zn149 O155 2.035 1_545 S
O150 Zn149 2.028 . S
O150 C156 1.247 . S
O151 Zn147 2.035 . S
O151 C156 1.258 . S
O152 C145 1.247 . S
O152 Zn149 2.028 . S
O153 C145 1.258 . S
O153 Zn147 2.035 . S
O154 Zn147 2.028 1_565 S
O154 C157 1.247 . S
O155 Zn149 2.035 1_565 S
O155 C157 1.258 . S
C156 O150 1.247 . S
C156 O151 1.258 . S
C157 O154 1.247 . S
C157 O155 1.258 . S
C158 O160 1.247 . S
C158 O162 1.258 . S
C159 O166 1.247 . S
C159 O167 1.258 . S
O160 C158 1.247 . S
O160 Zn161 2.028 . S
Zn161 O160 2.028 . S
Zn161 O165 2.035 . S
Zn161 O167 2.035 . S
Zn161 O168 2.028 . S
O162 C158 1.258 . S
O162 Zn163 2.035 . S
Zn163 O162 2.035 . S
Zn163 O164 2.028 . S
Zn163 O166 2.028 . S
Zn163 O169 2.035 . S
O164 Zn163 2.028 . S
O164 C170 1.247 . S
O165 Zn161 2.035 . S
O165 C170 1.258 . S
O166 C159 1.247 . S
O166 Zn163 2.028 . S
O167 C159 1.258 . S
O167 Zn161 2.035 . S
O168 Zn161 2.028 . S
O168 C171 1.247 . S
O169 Zn163 2.035 . S
O169 C171 1.258 . S
C170 O164 1.247 . S
C170 O165 1.258 . S
C171 O168 1.247 . S
C171 O169 1.258 . S
C172 C173 1.387 . S
C172 H176 0.950 . S
C172 C181 1.390 . S
C173 C172 1.387 . S
C173 C175 1.387 . S
H174 C181 0.950 . S
C175 C173 1.387 . S
C175 C177 1.390 . S
C175 H179 0.950 . S
H176 C172 0.950 . S
C177 C175 1.390 . S
C177 C178 1.387 . S
C177 H180 0.950 . S
C178 C177 1.387 . S
C178 C181 1.387 . S
H179 C175 0.950 . S
H180 C177 0.950 . S
C181 C172 1.390 . S
C181 H174 0.950 . S
C181 C178 1.387 . S
C182 C183 1.387 . S
C182 H186 0.950 . S
C182 C191 1.390 . S
C183 C182 1.387 . S
C183 C185 1.387 . S
H184 C191 0.950 . S
C185 C183 1.387 . S
C185 C187 1.390 . S
C185 H189 0.950 . S
H186 C182 0.950 . S
C187 C185 1.390 . S
C187 C188 1.387 . S
C187 H190 0.950 . S
C188 C187 1.387 . S
C188 C191 1.387 . S
H189 C185 0.950 . S
H190 C187 0.950 . S
C191 C182 1.390 . S
C191 H184 0.950 . S
C191 C188 1.387 . S
C192 C193 1.387 . S
C192 H196 0.950 . S
C192 C201 1.390 . S
C193 C192 1.387 . S
C193 C195 1.387 . S
H194 C201 0.950 . S
C195 C193 1.387 . S
C195 C197 1.390 . S
C195 H199 0.950 . S
H196 C192 0.950 . S
C197 C195 1.390 . S
C197 C198 1.387 . S
C197 H200 0.950 . S
C198 C197 1.387 . S
C198 C201 1.387 . S
H199 C195 0.950 . S
H200 C197 0.950 . S
C201 C192 1.390 . S
C201 H194 0.950 . S
C201 C198 1.387 . S
C202 C203 1.387 . S
C202 H206 0.950 . S
C202 C211 1.390 . S
C203 C202 1.387 . S
C203 C205 1.387 1_556 S
H204 C211 0.950 . S
C205 C203 1.387 1_554 S
C205 C207 1.390 . S
C205 H209 0.950 . S
H206 C202 0.950 . S
C207 C205 1.390 . S
C207 C208 1.387 1_554 S
C207 H210 0.950 . S
C208 C207 1.387 1_556 S
C208 C211 1.387 . S
H209 C205 0.950 . S
H210 C207 0.950 . S
C211 C202 1.390 . S
C211 H204 0.950 . S
C211 C208 1.387 . S
C212 C213 1.387 . S
C212 H216 0.950 . S
C212 C221 1.390 . S
C213 C212 1.387 . S
C213 C215 1.387 . S
H214 C221 0.950 . S
C215 C213 1.387 . S
C215 C217 1.390 . S
C215 H219 0.950 . S
H216 C212 0.950 . S
C217 C215 1.390 . S
C217 C218 1.387 . S
C217 H220 0.950 . S
C218 C217 1.387 . S
C218 C221 1.387 . S
H219 C215 0.950 . S
H220 C217 0.950 . S
C221 C212 1.390 . S
C221 H214 0.950 . S
C221 C218 1.387 . S
C222 C223 1.387 . S
C222 H226 0.950 . S
C222 C231 1.390 . S
C223 C222 1.387 . S
C223 C225 1.387 . S
H224 C231 0.950 . S
C225 C223 1.387 . S
C225 C227 1.390 . S
C225 H229 0.950 . S
H226 C222 0.950 . S
C227 C225 1.390 . S
C227 C228 1.387 . S
C227 H230 0.950 . S
C228 C227 1.387 . S
C228 C231 1.387 . S
H229 C225 0.950 . S
H230 C227 0.950 . S
C231 C222 1.390 . S
C231 H224 0.950 . S
C231 C228 1.387 . S
C232 C233 1.387 . S
C232 H236 0.950 . S
C232 C241 1.390 . S
C233 C232 1.387 . S
C233 C235 1.387 . S
H234 C241 0.950 . S
C235 C233 1.387 . S
C235 C237 1.390 . S
C235 H239 0.950 . S
H236 C232 0.950 . S
C237 C235 1.390 . S
C237 C238 1.387 . S
C237 H240 0.950 . S
C238 C237 1.387 . S
C238 C241 1.387 . S
H239 C235 0.950 . S
H240 C237 0.950 . S
C241 C232 1.390 . S
C241 H234 0.950 . S
C241 C238 1.387 . S
C242 C243 1.387 . S
C242 H246 0.950 . S
C242 C251 1.390 . S
C243 C242 1.387 . S
C243 C245 1.387 . S
H244 C251 0.950 . S
C245 C243 1.387 . S
C245 C247 1.390 . S
C245 H249 0.950 . S
H246 C242 0.950 . S
C247 C245 1.390 . S
C247 C248 1.387 . S
C247 H250 0.950 . S
C248 C247 1.387 . S
C248 C251 1.387 . S
H249 C245 0.950 . S
H250 C247 0.950 . S
C251 C242 1.390 . S
C251 H244 0.950 . S
C251 C248 1.387 . S
C252 C253 1.387 . S
C252 H256 0.950 . S
C252 C261 1.390 . S
C253 C252 1.387 . S
C253 C255 1.387 . S
H254 C261 0.950 . S
C255 C253 1.387 . S
C255 C257 1.390 . S
C255 H259 0.950 . S
H256 C252 0.950 . S
C257 C255 1.390 . S
C257 C258 1.387 . S
C257 H260 0.950 . S
C258 C257 1.387 . S
C258 C261 1.387 . S
H259 C255 0.950 . S
H260 C257 0.950 . S
C261 C252 1.390 . S
C261 H254 0.950 . S
C261 C258 1.387 . S
C262 C263 1.387 . S
C262 H266 0.950 . S
C262 C271 1.390 . S
C263 C262 1.387 . S
C263 C265 1.387 . S
H264 C271 0.950 . S
C265 C263 1.387 . S
C265 C267 1.390 . S
C265 H269 0.950 . S
H266 C262 0.950 . S
C267 C265 1.390 . S
C267 C268 1.387 . S
C267 H270 0.950 . S
C268 C267 1.387 . S
C268 C271 1.387 . S
H269 C265 0.950 . S
H270 C267 0.950 . S
C271 C262 1.390 . S
C271 H264 0.950 . S
C271 C268 1.387 . S
C272 C273 1.387 . S
C272 H276 0.950 . S
C272 C281 1.390 . S
C273 C272 1.387 . S
C273 C275 1.387 . S
H274 C281 0.950 . S
C275 C273 1.387 . S
C275 C277 1.390 . S
C275 H279 0.950 . S
H276 C272 0.950 . S
C277 C275 1.390 . S
C277 C278 1.387 . S
C277 H280 0.950 . S
C278 C277 1.387 . S
C278 C281 1.387 . S
H279 C275 0.950 . S
H280 C277 0.950 . S
C281 C272 1.390 . S
C281 H274 0.950 . S
C281 C278 1.387 . S
C282 C283 1.387 . S
C282 H286 0.950 . S
C282 C291 1.390 . S
C283 C282 1.387 . S
C283 C285 1.387 . S
H284 C291 0.950 . S
C285 C283 1.387 . S
C285 C287 1.390 . S
C285 H289 0.950 . S
H286 C282 0.950 . S
C287 C285 1.390 . S
C287 C288 1.387 . S
C287 H290 0.950 . S
C288 C287 1.387 . S
C288 C291 1.387 . S
H289 C285 0.950 . S
H290 C287 0.950 . S
C291 C282 1.390 . S
C291 H284 0.950 . S
C291 C288 1.387 . S
C292 C293 1.387 . S
C292 H296 0.950 . S
C292 C301 1.390 . S
C293 C292 1.387 . S
C293 C295 1.387 . S
H294 C301 0.950 . S
C295 C293 1.387 . S
C295 C297 1.390 . S
C295 H299 0.950 . S
H296 C292 0.950 . S
C297 C295 1.390 . S
C297 C298 1.387 . S
C297 H300 0.950 . S
C298 C297 1.387 . S
C298 C301 1.387 . S
H299 C295 0.950 . S
H300 C297 0.950 . S
C301 C292 1.390 . S
C301 H294 0.950 . S
C301 C298 1.387 . S
C302 C303 1.387 . S
C302 H306 0.950 . S
C302 C311 1.390 . S
C303 C302 1.387 . S
C303 C305 1.387 . S
H304 C311 0.950 . S
C305 C303 1.387 . S
C305 C307 1.390 . S
C305 H309 0.950 . S
H306 C302 0.950 . S
C307 C305 1.390 . S
C307 C308 1.387 . S
C307 H310 0.950 . S
C308 C307 1.387 . S
C308 C311 1.387 . S
H309 C305 0.950 . S
H310 C307 0.950 . S
C311 C302 1.390 . S
C311 H304 0.950 . S
C311 C308 1.387 . S
C312 C313 1.387 . S
C312 H316 0.950 . S
C312 C321 1.390 . S
C313 C312 1.387 . S
C313 C315 1.387 1_556 S
H314 C321 0.950 . S
C315 C313 1.387 1_554 S
C315 C317 1.390 . S
C315 H319 0.950 . S
H316 C312 0.950 . S
C317 C315 1.390 . S
C317 C318 1.387 1_554 S
C317 H320 0.950 . S
C318 C317 1.387 1_556 S
C318 C321 1.387 . S
H319 C315 0.950 . S
H320 C317 0.950 . S
C321 C312 1.390 . S
C321 H314 0.950 . S
C321 C318 1.387 . S
C322 C323 1.387 . S
C322 H326 0.950 . S
C322 C331 1.390 . S
C323 C322 1.387 . S
C323 C325 1.387 . S
H324 C331 0.950 . S
C325 C323 1.387 . S
C325 C327 1.390 . S
C325 H329 0.950 . S
H326 C322 0.950 . S
C327 C325 1.390 . S
C327 C328 1.387 . S
C327 H330 0.950 . S
C328 C327 1.387 . S
C328 C331 1.387 . S
H329 C325 0.950 . S
H330 C327 0.950 . S
C331 C322 1.390 . S
C331 H324 0.950 . S
C331 C328 1.387 . S
C332 C333 1.387 . S
C332 H336 0.950 . S
C332 C341 1.390 . S
C333 C332 1.387 . S
C333 C335 1.387 . S
H334 C341 0.950 . S
C335 C333 1.387 . S
C335 C337 1.390 . S
C335 H339 0.950 . S
H336 C332 0.950 . S
C337 C335 1.390 . S
C337 C338 1.387 . S
C337 H340 0.950 . S
C338 C337 1.387 . S
C338 C341 1.387 . S
H339 C335 0.950 . S
H340 C337 0.950 . S
C341 C332 1.390 . S
C341 H334 0.950 . S
C341 C338 1.387 . S
C342 C343 1.387 . S
C342 H346 0.950 . S
C342 C351 1.390 . S
C343 C342 1.387 . S
C343 C345 1.387 . S
H344 C351 0.950 . S
C345 C343 1.387 . S
C345 C347 1.390 . S
C345 H349 0.950 . S
H346 C342 0.950 . S
C347 C345 1.390 . S
C347 C348 1.387 . S
C347 H350 0.950 . S
C348 C347 1.387 . S
C348 C351 1.387 . S
H349 C345 0.950 . S
H350 C347 0.950 . S
C351 C342 1.390 . S
C351 H344 0.950 . S
C351 C348 1.387 . S
C352 C353 1.387 . S
C352 H356 0.950 . S
C352 C361 1.390 . S
C353 C352 1.387 . S
C353 C355 1.387 . S
H354 C361 0.950 . S
C355 C353 1.387 . S
C355 C357 1.390 . S
C355 H359 0.950 . S
H356 C352 0.950 . S
C357 C355 1.390 . S
C357 C358 1.387 . S
C357 H360 0.950 . S
C358 C357 1.387 . S
C358 C361 1.387 . S
H359 C355 0.950 . S
H360 C357 0.950 . S
C361 C352 1.390 . S
C361 H354 0.950 . S
C361 C358 1.387 . S
C362 C363 1.387 . S
C362 H366 0.950 . S
C362 C371 1.390 . S
C363 C362 1.387 . S
C363 C365 1.387 . S
H364 C371 0.950 . S
C365 C363 1.387 . S
C365 C367 1.390 . S
C365 H369 0.950 . S
H366 C362 0.950 . S
C367 C365 1.390 . S
C367 C368 1.387 . S
C367 H370 0.950 . S
C368 C367 1.387 . S
C368 C371 1.387 . S
H369 C365 0.950 . S
H370 C367 0.950 . S
C371 C362 1.390 . S
C371 H364 0.950 . S
C371 C368 1.387 . S
C372 C373 1.387 . S
C372 H376 0.950 . S
C372 C381 1.390 . S
C373 C372 1.387 . S
C373 C375 1.387 . S
H374 C381 0.950 . S
C375 C373 1.387 . S
C375 C377 1.390 . S
C375 H379 0.950 . S
H376 C372 0.950 . S
C377 C375 1.390 . S
C377 C378 1.387 . S
C377 H380 0.950 . S
C378 C377 1.387 . S
C378 C381 1.387 . S
H379 C375 0.950 . S
H380 C377 0.950 . S
C381 C372 1.390 . S
C381 H374 0.950 . S
C381 C378 1.387 . S
C382 C383 1.387 . S
C382 H386 0.950 1_554 S
C382 C391 1.390 . S
C383 C382 1.387 . S
C383 C385 1.387 . S
H384 C391 0.950 . S
C385 C383 1.387 . S
C385 C387 1.390 . S
C385 H389 0.950 . S
H386 C382 0.950 1_556 S
C387 C385 1.390 . S
C387 C388 1.387 . S
C387 H390 0.950 . S
C388 C387 1.387 . S
C388 C391 1.387 . S
H389 C385 0.950 . S
H390 C387 0.950 . S
C391 C382 1.390 . S
C391 H384 0.950 . S
C391 C388 1.387 . S
C392 C393 1.387 . S
C392 H396 0.950 . S
C392 C401 1.390 . S
C393 C392 1.387 . S
C393 C395 1.387 . S
H394 C401 0.950 . S
C395 C393 1.387 . S
C395 C397 1.390 . S
C395 H399 0.950 . S
H396 C392 0.950 . S
C397 C395 1.390 . S
C397 C398 1.387 . S
C397 H400 0.950 . S
C398 C397 1.387 . S
C398 C401 1.387 . S
H399 C395 0.950 . S
H400 C397 0.950 . S
C401 C392 1.390 . S
C401 H394 0.950 . S
C401 C398 1.387 . S
C402 C403 1.387 . S
C402 H406 0.950 . S
C402 C411 1.390 . S
C403 C402 1.387 . S
C403 C405 1.387 . S
H404 C411 0.950 . S
C405 C403 1.387 . S
C405 C407 1.390 . S
C405 H409 0.950 . S
H406 C402 0.950 . S
C407 C405 1.390 . S
C407 C408 1.387 . S
C407 H410 0.950 . S
C408 C407 1.387 . S
C408 C411 1.387 . S
H409 C405 0.950 . S
H410 C407 0.950 . S
C411 C402 1.390 . S
C411 H404 0.950 . S
C411 C408 1.387 . S
C178 C100 1.516 . S
C173 C10 1.514 . S
C188 C103 1.678 . S
C183 C15 1.686 . S
C198 C101 1.436 . S
C193 C26 1.439 . S
C208 C102 1.503 . S
C203 C37 1.533 . S
C218 C117 1.704 . S
C213 C4 1.710 . S
C228 C131 1.656 . S
C223 C16 1.649 . S
C233 C27 1.584 . S
C238 C157 1.587 . S
C248 C171 1.422 . S
C243 C43 1.419 . S
C258 C116 1.640 . S
C253 C21 1.626 . S
C263 C32 1.482 . S
C268 C130 1.452 . S
C278 C156 1.584 . S
C273 C38 1.567 . S
C288 C170 1.573 . S
C283 C5 1.571 . S
C293 C49 1.725 . S
C298 C115 1.718 . S
C308 C88 1.585 . S
C303 C60 1.583 . S
C313 C76 1.551 . S
C318 C114 1.540 . S
C323 C81 1.524 . S
C328 C89 1.544 . S
C338 C144 1.505 . S
C333 C54 1.499 . S
C348 C158 1.590 . S
C343 C59 1.593 . S
C358 C128 1.585 . S
C353 C70 1.595 . S
C363 C87 1.615 . S
C368 C142 1.595 . S
C378 C145 1.557 . S
C373 C65 1.542 . S
C388 C159 1.598 . S
C383 C71 1.578 1_554 S
C398 C129 1.595 . S
C393 C82 1.603 . S
C403 C48 1.693 . S
C408 C143 1.677 . S
