# Generated by pormake.
# Topology pyr, (3,6)-cn, num edge types: 1
# Building blocks:
#     Node 0, Type 0, BuildingBlock: QEWDON_clean_linker_0, # of connection points: 3
#     Node 1, Type 0, BuildingBlock: QEWDON_clean_linker_0, # of connection points: 3
#     Node 2, Type 0, BuildingBlock: QEWDON_clean_linker_0, # of connection points: 3
#     Node 3, Type 0, BuildingBlock: QEWDON_clean_linker_0, # of connection points: 3
#     Node 4, Type 0, BuildingBlock: QEWDON_clean_linker_0, # of connection points: 3
#     Node 5, Type 0, BuildingBlock: QEWDON_clean_linker_0, # of connection points: 3
#     Node 6, Type 0, BuildingBlock: QEWDON_clean_linker_0, # of connection points: 3
#     Node 7, Type 0, BuildingBlock: QEWDON_clean_linker_0, # of connection points: 3
#     Node 8, Type 1, BuildingBlock: GEDQOX_clean_sbu_0, # of connection points: 6
#     Node 9, Type 1, BuildingBlock: GEDQOX_clean_sbu_0, # of connection points: 6
#     Node 10, Type 1, BuildingBlock: GEDQOX_clean_sbu_0, # of connection points: 6
#     Node 11, Type 1, BuildingBlock: GEDQOX_clean_sbu_0, # of connection points: 6
#     Edge 12, Type (0, 1), BuildingBlock: CIFDUS_clean_linker_0, # of connection points: 2
#     Edge 13, Type (0, 1), BuildingBlock: CIFDUS_clean_linker_0, # of connection points: 2
#     Edge 14, Type (0, 1), BuildingBlock: CIFDUS_clean_linker_0, # of connection points: 2
#     Edge 15, Type (0, 1), BuildingBlock: CIFDUS_clean_linker_0, # of connection points: 2
#     Edge 16, Type (0, 1), BuildingBlock: CIFDUS_clean_linker_0, # of connection points: 2
#     Edge 17, Type (0, 1), BuildingBlock: CIFDUS_clean_linker_0, # of connection points: 2
#     Edge 18, Type (0, 1), BuildingBlock: CIFDUS_clean_linker_0, # of connection points: 2
#     Edge 19, Type (0, 1), BuildingBlock: CIFDUS_clean_linker_0, # of connection points: 2
#     Edge 20, Type (0, 1), BuildingBlock: CIFDUS_clean_linker_0, # of connection points: 2
#     Edge 21, Type (0, 1), BuildingBlock: CIFDUS_clean_linker_0, # of connection points: 2
#     Edge 22, Type (0, 1), BuildingBlock: CIFDUS_clean_linker_0, # of connection points: 2
#     Edge 23, Type (0, 1), BuildingBlock: CIFDUS_clean_linker_0, # of connection points: 2
#     Edge 24, Type (0, 1), BuildingBlock: CIFDUS_clean_linker_0, # of connection points: 2
#     Edge 25, Type (0, 1), BuildingBlock: CIFDUS_clean_linker_0, # of connection points: 2
#     Edge 26, Type (0, 1), BuildingBlock: CIFDUS_clean_linker_0, # of connection points: 2
#     Edge 27, Type (0, 1), BuildingBlock: CIFDUS_clean_linker_0, # of connection points: 2
#     Edge 28, Type (0, 1), BuildingBlock: CIFDUS_clean_linker_0, # of connection points: 2
#     Edge 29, Type (0, 1), BuildingBlock: CIFDUS_clean_linker_0, # of connection points: 2
#     Edge 30, Type (0, 1), BuildingBlock: CIFDUS_clean_linker_0, # of connection points: 2
#     Edge 31, Type (0, 1), BuildingBlock: CIFDUS_clean_linker_0, # of connection points: 2
#     Edge 32, Type (0, 1), BuildingBlock: CIFDUS_clean_linker_0, # of connection points: 2
#     Edge 33, Type (0, 1), BuildingBlock: CIFDUS_clean_linker_0, # of connection points: 2
#     Edge 34, Type (0, 1), BuildingBlock: CIFDUS_clean_linker_0, # of connection points: 2
#     Edge 35, Type (0, 1), BuildingBlock: CIFDUS_clean_linker_0, # of connection points: 2
# Relax obj value: 0.254
# Max RMSD: 0.288
# Mean RMSD: 0.205
data_MOF--net-pyr--node1-GEDQOX_clean_sbu_0--node2-QEWDON_clean_linker_0--edge1-CIFDUS_clean_linker_0
_symmetry_space_group_name_H-M    P1
_symmetry_Int_Tables_number       1
_symmetry_cell_setting            triclinic
loop_
_symmetry_equiv_pos_as_xyz
'x, y, z'
_cell_length_a     34.351383
_cell_length_b     34.448578
_cell_length_c     32.268533
_cell_angle_alpha  87.473467
_cell_angle_beta   87.897863
_cell_angle_gamma 90.858489
loop_
_atom_site_label
_atom_site_type_symbol
_atom_site_fract_x
_atom_site_fract_y
_atom_site_fract_z
_atom_type_partial_charge
H0 H 0.3092 0.22476 0.2091 0.0
C1 C 0.2905 0.21009 0.23284 0.0
C2 C 0.30067 0.17271 0.24792 0.0
C3 C 0.25867 0.23036 0.25056 0.0
H4 H 0.28368 0.12525 0.28986 0.0
C5 C 0.27673 0.15464 0.27999 0.0
C6 C 0.24518 0.17385 0.29978 0.0
C7 C 0.23636 0.21191 0.28401 0.0
C8 C 0.25575 0.27353 0.24035 0.0
H9 H 0.21395 0.22842 0.29934 0.0
C10 C 0.22216 0.29258 0.22457 0.0
C11 C 0.22349 0.3335 0.21418 0.0
C12 C 0.28929 0.29627 0.24622 0.0
H13 H 0.31513 0.2831 0.25857 0.0
C14 C 0.29034 0.33602 0.23647 0.0
H15 H 0.19588 0.27587 0.21982 0.0
C16 C 0.25799 0.35436 0.22052 0.0
H17 H 0.25988 0.38536 0.21313 0.0
H18 H 0.31657 0.35279 0.24123 0.0
H19 H 0.37793 0.85575 0.92592 0.0
C20 C 0.39361 0.83781 0.90437 0.0
C21 C 0.43424 0.84199 0.89882 0.0
C22 C 0.37263 0.81206 0.88093 0.0
H23 H 0.4854 0.82124 0.86644 0.0
C24 C 0.45397 0.81887 0.86995 0.0
C25 C 0.43324 0.79203 0.84667 0.0
C26 C 0.39241 0.78974 0.85197 0.0
C27 C 0.3297 0.80923 0.88588 0.0
H28 H 0.37564 0.77057 0.83343 0.0
C29 C 0.30655 0.81523 0.85128 0.0
C30 C 0.26565 0.81386 0.85572 0.0
C31 C 0.31174 0.80131 0.92516 0.0
H32 H 0.32911 0.79655 0.95222 0.0
C33 C 0.27117 0.79911 0.92969 0.0
H34 H 0.32049 0.82253 0.8212 0.0
C35 C 0.24819 0.80543 0.89527 0.0
H36 H 0.21678 0.8038 0.8996 0.0
H37 H 0.25748 0.79273 0.96002 0.0
H38 H 0.81723 0.52166 0.9863 0.0
C39 C 0.80336 0.49326 0.99109 0.0
C40 C 0.8252 0.4612 1.00454 0.0
C41 C 0.76424 0.48881 0.98154 0.0
H42 H 0.82374 0.39922 1.01855 0.0
C43 C 0.80718 0.42419 1.00842 0.0
C44 C 0.76791 0.4193 0.99858 0.0
C45 C 0.74668 0.45179 0.98536 0.0
C46 C 0.74226 0.52252 0.96546 0.0
H47 H 0.71622 0.44834 0.97836 0.0
C48 C 0.72083 0.51924 0.92961 0.0
C49 C 0.69979 0.55079 0.91352 0.0
C50 C 0.74316 0.55809 0.98507 0.0
H51 H 0.75954 0.56132 1.0128 0.0
C52 C 0.72243 0.58967 0.96925 0.0
H53 H 0.72138 0.49221 0.91365 0.0
C54 C 0.70078 0.58612 0.93374 0.0
H55 H 0.68449 0.61083 0.92245 0.0
H56 H 0.72299 0.61693 0.98468 0.0
H57 H 0.87651 0.97147 0.2982 0.0
C58 C 0.85727 0.95167 0.31655 0.0
C59 C 0.86225 0.94599 0.35945 0.0
C60 C 0.82955 0.92946 0.29668 0.0
H61 H 0.84223 0.91401 0.4153 0.0
C62 C 0.83828 0.91872 0.38231 0.0
C63 C 0.81028 0.89649 0.36284 0.0
C64 C 0.80596 0.90231 0.32 0.0
C65 C 0.8292 0.92974 0.25096 0.0
H66 H 0.78483 0.88504 0.30437 0.0
C67 C 0.83747 0.89526 0.2313 0.0
C68 C 0.83822 0.89375 0.18786 0.0
C69 C 0.82175 0.9635 0.22692 0.0
H70 H 0.8155 0.99049 0.24162 0.0
C71 C 0.82197 0.9623 0.18358 0.0
H72 H 0.84491 0.86981 0.25019 0.0
C73 C 0.83027 0.92768 0.16405 0.0
H74 H 0.83062 0.92749 0.13048 0.0
H75 H 0.81597 0.98833 0.16506 0.0
H76 H 0.90268 0.84431 0.95767 0.0
C77 C 0.91889 0.85966 0.93244 0.0
C78 C 0.95658 0.8471 0.92025 0.0
C79 C 0.90017 0.88989 0.91052 0.0
H80 H 1.00309 0.85545 0.87417 0.0
C81 C 0.97492 0.86561 0.88418 0.0
C82 C 0.95707 0.89631 0.86083 0.0
C83 C 0.91969 0.90814 0.87538 0.0
C84 C 0.85691 0.89472 0.91693 0.0
H85 H 0.90451 0.93092 0.85891 0.0
C86 C 0.8387 0.91756 0.94794 0.0
C87 C 0.79706 0.91902 0.95223 0.0
C88 C 0.8332 0.87428 0.89063 0.0
H89 H 0.84613 0.85671 0.86686 0.0
C90 C 0.79281 0.8758 0.89456 0.0
H91 H 0.85655 0.9336 0.96847 0.0
C92 C 0.77498 0.89777 0.92483 0.0
H93 H 0.74345 0.89866 0.92621 0.0
H94 H 0.7751 0.85985 0.87382 0.0
H95 H 0.71548 0.30246 0.41096 0.0
C96 C 0.70835 0.28826 0.38289 0.0
C97 C 0.73333 0.25966 0.36766 0.0
C98 C 0.67398 0.29796 0.36265 0.0
H99 H 0.74179 0.21748 0.32069 0.0
C100 C 0.72325 0.24022 0.33196 0.0
C101 C 0.68903 0.24928 0.31122 0.0
C102 C 0.66527 0.27881 0.32626 0.0
C103 C 0.64581 0.32614 0.38051 0.0
H104 H 0.63909 0.28603 0.31012 0.0
C105 C 0.65832 0.35862 0.40235 0.0
C106 C 0.63089 0.38441 0.41873 0.0
C107 C 0.60544 0.32002 0.37641 0.0
H108 H 0.59432 0.29477 0.3616 0.0
C109 C 0.57852 0.34592 0.39213 0.0
H110 H 0.68903 0.36416 0.40636 0.0
C111 C 0.5911 0.37798 0.41303 0.0
H112 H 0.56964 0.39746 0.42558 0.0
H113 H 0.54767 0.34082 0.38857 0.0
H114 H 0.42741 0.61044 0.28514 0.0
C115 C 0.40299 0.61087 0.26489 0.0
C116 C 0.40243 0.63884 0.23187 0.0
C117 C 0.3716 0.58479 0.2734 0.0
H118 H 0.37077 0.65821 0.17809 0.0
C119 C 0.37219 0.63698 0.20372 0.0
C120 C 0.34275 0.60834 0.20919 0.0
C121 C 0.34205 0.58304 0.24454 0.0
C122 C 0.36814 0.56241 0.31412 0.0
H123 H 0.31735 0.56339 0.25032 0.0
C124 C 0.3829 0.57839 0.35 0.0
C125 C 0.37995 0.55813 0.38877 0.0
C126 C 0.34931 0.52581 0.31797 0.0
H127 H 0.33808 0.51218 0.29118 0.0
C128 C 0.34505 0.50605 0.35663 0.0
H129 H 0.39733 0.60656 0.3478 0.0
C130 C 0.36021 0.52198 0.3918 0.0
H131 H 0.35671 0.50583 0.42129 0.0
H132 H 0.3303 0.47802 0.35928 0.0
H133 H 0.28309 0.23988 0.86015 0.0
C134 C 0.2645 0.22581 0.83866 0.0
C135 C 0.26688 0.23776 0.79673 0.0
C136 C 0.23648 0.19809 0.85366 0.0
H137 H 0.24521 0.22919 0.73626 0.0
C138 C 0.24254 0.2203 0.76889 0.0
C139 C 0.21539 0.19122 0.78281 0.0
C140 C 0.21242 0.18029 0.82549 0.0
C141 C 0.2294 0.19249 0.89914 0.0
H142 H 0.19025 0.15942 0.83701 0.0
C143 C 0.22747 0.22547 0.9229 0.0
C144 C 0.22174 0.22233 0.96599 0.0
C145 C 0.22452 0.15562 0.91917 0.0
H146 H 0.22572 0.12961 0.90153 0.0
C147 C 0.21875 0.15226 0.96252 0.0
H148 H 0.22995 0.2542 0.9077 0.0
C149 C 0.21747 0.18557 0.98604 0.0
H150 H 0.21275 0.18271 1.01941 0.0
H151 H 0.21526 0.1238 0.97789 0.0
Nd152 Nd 0.09084 1.01054 0.56159 0.0
Nd153 Nd 0.0417 0.07831 0.56957 0.0
C154 C 0.13032 0.94778 0.54492 0.0
C155 C 0.14397 0.91653 0.57321 0.0
C156 C 0.1197 0.90158 0.60633 0.0
C157 C 0.13495 0.87824 0.63804 0.0
C158 C 0.17487 0.86975 0.6376 0.0
C159 C 0.19859 0.8828 0.60313 0.0
C160 C 0.18324 0.90598 0.57122 0.0
C161 C 0.11204 0.05392 0.6264 0.0
C162 C 1.02963 1.00526 0.64029 0.0
C163 C 0.99377 0.13604 0.58532 0.0
C164 C 0.96515 0.15758 0.5607 0.0
C165 C 0.94374 0.18747 0.5782 0.0
C166 C 0.9135 0.20495 0.55653 0.0
C167 C 0.90398 0.19266 0.51698 0.0
C168 C 0.9264 0.1634 0.49918 0.0
C169 C 0.95664 0.14614 0.52078 0.0
C170 C 1.01975 0.03129 0.50725 0.0
C171 C 0.10922 0.08733 0.49713 0.0
O172 O 0.09261 0.95005 0.5408 0.0
O173 O 0.14699 0.98168 0.5491 0.0
O174 O 0.1128 0.01642 0.6264 0.0
O175 O 0.10253 0.06852 0.59156 0.0
O176 O 0.05084 0.98412 0.61515 0.0
O177 O 1.02532 0.04288 0.63157 0.0
O178 O 1.03058 0.14157 0.57457 0.0
O179 O 0.98501 0.09943 0.59333 0.0
O180 O 1.02164 0.06867 0.50398 0.0
O181 O 1.02917 0.01947 0.54293 0.0
O182 O 0.08618 0.1071 0.5219 0.0
O183 O 0.11277 0.04932 0.50369 0.0
H184 H 0.08932 0.90945 0.60889 0.0
H185 H 0.11574 0.8681 0.66376 0.0
H186 H 0.22953 0.87713 0.60196 0.0
H187 H 0.20254 0.91753 0.54621 0.0
H188 H 0.94978 0.19666 0.60903 0.0
H189 H 0.89727 0.22776 0.57098 0.0
H190 H 0.91968 0.15268 0.46918 0.0
H191 H 0.97253 0.12295 0.50677 0.0
Nd192 Nd 0.55309 0.02003 0.14281 0.0
Nd193 Nd 0.56128 0.07423 0.07531 0.0
C194 C 0.54831 0.96037 0.19717 0.0
C195 C 0.54031 0.91849 0.1967 0.0
C196 C 0.55305 0.89632 0.16346 0.0
C197 C 0.54187 0.85715 0.1623 0.0
C198 C 0.51746 0.83982 0.19412 0.0
C199 C 0.50508 0.86239 0.22732 0.0
C200 C 0.51661 0.90119 0.22867 0.0
C201 C 0.49964 0.07974 0.1515 0.0
C202 C 0.51473 0.99408 0.05758 0.0
C203 C 0.5588 0.13001 1.01653 0.0
C204 C 0.58534 0.16277 1.00476 0.0
C205 C 0.62414 0.16215 1.01692 0.0
C206 C 0.64854 0.19459 1.009 0.0
C207 C 0.63449 0.22843 0.98911 0.0
C208 C 0.5957 0.22863 0.97635 0.0
C209 C 0.57134 0.19603 0.98415 0.0
C210 C 0.62656 0.02716 0.07859 0.0
C211 C 0.60515 0.09395 0.15839 0.0
O212 O 0.58133 0.97344 0.18004 0.0
O213 O 0.5189 0.98236 0.18833 0.0
O214 O 0.52225 0.06706 0.18016 0.0
O215 O 0.50754 0.06271 0.11811 0.0
O216 O 0.52201 0.98379 0.09617 0.0
O217 O 0.52575 0.02854 1.04149 0.0
O218 O 0.54106 0.13197 1.05286 0.0
O219 O 0.57209 0.0954 1.00996 0.0
O220 O 0.62801 0.06467 0.07328 0.0
O221 O 0.59133 1.01595 0.08411 0.0
O222 O 0.58482 0.10979 0.12844 0.0
O223 O 0.60379 0.05611 0.16505 0.0
H224 H 0.57101 0.90939 0.13812 0.0
H225 H 0.55208 0.8406 0.13642 0.0
H226 H 0.48538 0.85052 0.25178 0.0
H227 H 0.50601 0.91808 0.25418 0.0
H228 H 0.63539 0.13681 1.03322 0.0
H229 H 0.67835 0.19323 1.01873 0.0
H230 H 0.58377 0.25438 0.9615 0.0
H231 H 0.54133 0.19714 0.97501 0.0
Nd232 Nd 0.52754 0.54847 0.64945 0.0
Nd233 Nd 0.58268 0.6173 0.62338 0.0
C234 C 0.46768 0.49968 0.6532 0.0
C235 C 0.43373 0.48222 0.67613 0.0
C236 C 0.40126 0.47202 0.65371 0.0
C237 C 0.37209 0.44772 0.67206 0.0
C238 C 0.37505 0.43318 0.71318 0.0
C239 C 0.40616 0.44594 0.73658 0.0
C240 C 0.43538 0.47028 0.71815 0.0
C241 C 0.58775 0.5563 0.70153 0.0
C242 C 0.51173 0.6334 0.68992 0.0
C243 C 0.63871 0.67038 0.61195 0.0
C244 C 0.66339 0.69255 0.58114 0.0
C245 C 0.69504 0.7138 0.59497 0.0
C246 C 0.71479 0.74094 0.56827 0.0
C247 C 0.70314 0.74722 0.52725 0.0
C248 C 0.67278 0.72422 0.51274 0.0
C249 C 0.65288 0.69711 0.53962 0.0
C250 C 0.52341 0.60237 0.57038 0.0
C251 C 0.6041 0.53032 0.59154 0.0
O252 O 0.46542 0.53531 0.63756 0.0
O253 O 0.50218 0.49077 0.6664 0.0
O254 O 0.57082 0.52328 0.69483 0.0
O255 O 0.56999 0.58415 0.68442 0.0
O256 O 0.4961 0.59956 0.68074 0.0
O257 O 0.54713 0.64385 0.67611 0.0
O258 O 0.6458 0.63346 0.61906 0.0
O259 O 0.60156 0.67818 0.61209 0.0
O260 O 0.53592 0.63745 0.57584 0.0
O261 O 0.54397 0.57873 0.58948 0.0
O262 O 0.61779 0.5657 0.59774 0.0
O263 O 0.56849 0.51903 0.60373 0.0
H264 H 0.39966 0.48084 0.62116 0.0
H265 H 0.34868 0.43821 0.65312 0.0
H266 H 0.40881 0.43569 0.76855 0.0
H267 H 0.46019 0.47802 0.73605 0.0
H268 H 0.70338 0.7107 0.627 0.0
H269 H 0.73851 0.75781 0.58003 0.0
H270 H 0.66316 0.72856 0.48131 0.0
H271 H 0.62825 0.68104 0.52858 0.0
Nd272 Nd 0.07052 0.59226 0.09544 0.0
Nd273 Nd 0.11453 0.57373 1.01687 0.0
C274 C 1.01986 0.60108 0.15714 0.0
C275 C 0.9908 0.6318 0.16196 0.0
C276 C 0.95107 0.62214 0.16753 0.0
C277 C 0.92316 0.65136 0.16779 0.0
C278 C 0.93458 0.69073 0.16245 0.0
C279 C 0.97447 0.70018 0.15735 0.0
C280 C 1.00218 0.67112 0.15684 0.0
C281 C 0.14585 0.62004 0.09072 0.0
C282 C 0.06655 0.65684 1.01763 0.0
C283 C 0.1648 0.56156 0.95605 0.0
C284 C 0.18629 0.52505 0.9518 0.0
C285 C 0.20705 0.50952 0.98541 0.0
C286 C 0.21352 0.46961 0.98947 0.0
C287 C 0.19885 0.44473 0.96033 0.0
C288 C 0.18293 0.46089 0.92406 0.0
C289 C 0.17691 0.5008 0.91971 0.0
C290 C 1.0399 0.54468 1.02416 0.0
C291 C 0.117 0.50736 0.09236 0.0
O292 O 1.01363 0.57725 0.12751 0.0
O293 O 0.05644 0.61202 0.15843 0.0
O294 O 0.11655 0.6399 0.10426 0.0
O295 O 0.13452 0.58706 0.08018 0.0
O296 O 0.04973 0.64392 1.05335 0.0
O297 O 0.09522 0.63708 1.00008 0.0
O298 O 0.1736 0.58267 0.98735 0.0
O299 O 0.12714 0.55781 0.95211 0.0
O300 O 0.06859 0.52506 1.00883 0.0
O301 O 0.05103 0.57807 1.03299 0.0
O302 O 0.1327 0.5206 0.05643 0.0
O303 O 0.09052 0.52814 0.11247 0.0
H304 H 0.94159 0.59199 0.17084 0.0
H305 H 0.89266 0.64308 0.17156 0.0
H306 H 0.98447 0.73016 0.15414 0.0
H307 H 1.03254 0.67962 0.15187 0.0
H308 H 0.21489 0.5274 1.01071 0.0
H309 H 0.22637 0.45795 1.01744 0.0
H310 H 0.17248 0.44232 0.90046 0.0
H311 H 0.16114 0.51202 0.8934 0.0
H312 H 0.17023 0.18689 0.33471 0.0
H313 H 0.2726 0.11817 0.35618 0.0
H314 H 0.2396 0.08453 0.41466 0.0
H315 H 0.18182 0.07354 0.46201 0.0
H316 H 0.08302 0.14785 0.44823 0.0
H317 H 0.11456 0.1802 0.38634 0.0
C318 C 0.1858 0.16488 0.35208 0.0
C319 C 0.22407 0.15478 0.33845 0.0
C320 C 0.16712 0.1463 0.38812 0.0
C321 C 0.24278 0.12597 0.36295 0.0
C322 C 0.224 0.10673 0.39753 0.0
C323 C 0.16715 0.09683 0.44551 0.0
C324 C 0.12976 0.10785 0.45999 0.0
C325 C 0.1861 0.11635 0.41041 0.0
C326 C 0.11172 0.13861 0.43819 0.0
C327 C 0.12981 0.15714 0.40253 0.0
H328 H 0.42574 0.85406 0.98124 0.0
H329 H 0.48924 0.89628 0.87024 0.0
H330 H 0.51835 0.9486 0.90863 0.0
H331 H 0.52468 0.98329 0.97412 0.0
H332 H 0.46233 0.93852 0.08497 0.0
H333 H 0.4333 0.88699 1.04622 0.0
C334 C 0.44598 0.87471 0.96542 0.0
C335 C 0.45514 0.87134 0.92287 0.0
C336 C 0.46241 0.90469 0.98763 0.0
C337 C 0.48192 0.89799 0.90304 0.0
C338 C 0.49828 0.92814 0.92492 0.0
C339 C 0.50436 0.9625 0.98955 0.0
C340 C 0.49528 0.96508 1.03228 0.0
C341 C 0.48844 0.93206 0.96719 0.0
C342 C 0.46962 0.93737 1.05209 0.0
C343 C 0.4531 0.90776 1.02999 0.0
H344 H 0.69172 0.60359 0.84874 0.0
H345 H 0.6563 0.48789 0.89352 0.0
H346 H 0.6215 0.47859 0.83035 0.0
H347 H 0.60007 0.5033 0.76324 0.0
H348 H 0.63014 0.62051 0.7199 0.0
H349 H 0.66809 0.62935 0.78185 0.0
C350 C 0.676 0.57653 0.84491 0.0
C351 C 0.67701 0.54638 0.87574 0.0
C352 C 0.65527 0.57158 0.80875 0.0
C353 C 0.65677 0.51132 0.86999 0.0
C354 C 0.63665 0.506 0.83395 0.0
C355 C 0.61517 0.5307 0.76717 0.0
C356 C 0.61262 0.56116 0.73713 0.0
C357 C 0.6358 0.53585 0.80315 0.0
C358 C 0.6319 0.59665 0.74276 0.0
C359 C 0.65342 0.60172 0.77815 0.0
H360 H 0.81722 0.81973 0.21252 0.0
H361 H 0.88739 0.88591 0.11999 0.0
H362 H 0.9191 0.8265 0.099 0.0
H363 H 0.93427 0.75815 0.11489 0.0
H364 H 0.86971 0.69437 0.21382 0.0
H365 H 0.82839 0.75027 0.2242 0.0
C366 C 0.83926 0.82113 0.18751 0.0
C367 C 0.85054 0.85734 0.16853 0.0
C368 C 0.85879 0.7873 0.17718 0.0
C369 C 0.87815 0.85849 0.13523 0.0
C370 C 0.89665 0.82457 0.12354 0.0
C371 C 0.91107 0.75641 0.13865 0.0
C372 C 0.90563 0.7223 0.16406 0.0
C373 C 0.88844 0.7892 0.14563 0.0
C374 C 0.8746 0.72014 0.19375 0.0
C375 C 0.85111 0.75224 0.19995 0.0
H376 H 0.33474 0.16496 0.16829 0.0
H377 H 0.35418 0.13943 0.29792 0.0
H378 H 0.41636 0.11034 0.27999 0.0
H379 H 0.46602 0.09136 0.22815 0.0
H380 H 0.447 0.11284 0.09802 0.0
H381 H 0.38489 0.14405 0.11531 0.0
C382 C 0.35256 0.15302 0.19262 0.0
C383 C 0.33895 0.15437 0.23467 0.0
C384 C 0.38883 0.13551 0.18195 0.0
C385 C 0.36296 0.13848 0.2654 0.0
C386 C 0.39893 0.12192 0.25515 0.0
C387 C 0.44846 0.10295 0.2034 0.0
C388 C 0.46175 0.09974 0.16165 0.0
C389 C 0.41225 0.12014 0.21362 0.0
C390 C 0.43793 0.11478 0.13035 0.0
C391 C 0.40222 0.13268 0.14033 0.0
H392 H 0.27567 0.79029 0.7765 0.0
H393 H 0.20158 0.85963 0.85372 0.0
H394 H 0.16509 0.8804 0.79346 0.0
H395 H 0.15782 0.88335 0.71839 0.0
H396 H 0.23206 0.81493 0.64033 0.0
H397 H 0.26543 0.78992 0.70137 0.0
C398 C 0.25149 0.8099 0.78011 0.0
C399 C 0.2415 0.82351 0.81954 0.0
C400 C 0.23095 0.82222 0.74518 0.0
C401 C 0.20967 0.84839 0.82384 0.0
C402 C 0.18896 0.86054 0.78933 0.0
C403 C 0.18068 0.86226 0.71469 0.0
C404 C 0.19242 0.85108 0.67475 0.0
C405 C 0.19976 0.84814 0.7498 0.0
C406 C 0.22272 0.82437 0.67064 0.0
C407 C 0.24174 0.80998 0.70553 0.0
H408 H 0.85868 0.52051 1.04328 0.0
H409 H 0.88619 0.41473 0.9825 0.0
H410 H 0.95581 0.42959 0.9863 0.0
H411 H 1.00866 0.47616 1.00078 0.0
H412 H 0.9791 0.58473 0.05496 0.0
H413 H 0.9106 0.56559 0.05926 0.0
C414 C 0.87988 0.50067 1.03081 0.0
C415 C 0.86723 0.46686 1.01215 0.0
C416 C 0.91956 0.51016 1.03149 0.0
C417 C 0.89511 0.4409 0.99723 0.0
C418 C 0.93493 0.44959 0.99898 0.0
C419 C 0.98715 0.4954 1.01373 0.0
C420 C 0.99887 0.53167 1.02769 0.0
C421 C 0.94746 0.48467 1.01504 0.0
C422 C 0.97083 0.5565 1.04431 0.0
C423 C 0.93161 0.54566 1.04668 0.0
H424 H 0.77783 0.89959 0.44076 0.0
H425 H 0.79248 0.82316 0.33905 0.0
H426 H 0.75906 0.77074 0.38015 0.0
H427 H 0.72873 0.74545 0.44647 0.0
H428 H 0.71704 0.82135 0.54889 0.0
H429 H 0.74719 0.87474 0.50641 0.0
C430 C 0.77392 0.87141 0.42762 0.0
C431 C 0.7877 0.86541 0.38689 0.0
C432 C 0.75563 0.8411 0.45175 0.0
C433 C 0.78167 0.82887 0.37011 0.0
C434 C 0.76289 0.7987 0.39373 0.0
C435 C 0.7326 0.77377 0.4593 0.0
C436 C 0.72104 0.77938 0.5008 0.0
C437 C 0.75014 0.80435 0.43475 0.0
C438 C 0.72636 0.81615 0.5172 0.0
C439 C 0.74335 0.84675 0.49288 0.0
H440 H 0.20913 0.35205 0.13297 0.0
H441 H 0.16759 0.3722 0.25737 0.0
H442 H 0.12883 0.42682 0.23156 0.0
H443 H 0.11262 0.47434 0.17377 0.0
H444 H 0.15401 0.45191 1.04946 0.0
H445 H 0.18629 0.39372 0.07469 0.0
C446 C 0.1903 0.36733 0.15424 0.0
C447 C 0.19053 0.35695 0.19709 0.0
C448 C 0.16866 0.39948 0.13914 0.0
C449 C 0.16709 0.37846 0.2242 0.0
C450 C 0.14535 0.41027 0.20941 0.0
C451 C 0.12816 0.45645 0.15211 0.0
C452 C 0.13147 0.46874 0.10958 0.0
C453 C 0.14673 0.42195 0.16699 0.0
C454 C 0.15175 0.44445 0.08238 0.0
C455 C 0.17014 0.41067 0.09679 0.0
H456 H 0.72337 0.38683 0.94141 0.0
H457 H 0.76927 0.36484 0.06267 0.0
H458 H 0.7331 0.30297 0.06981 0.0
H459 H 0.68535 0.25739 1.04327 0.0
H460 H 0.64016 0.27925 0.92146 0.0
H461 H 0.67858 0.33946 0.91323 0.0
C462 C 0.72544 0.36843 0.96939 0.0
C463 C 0.74865 0.38044 1.00162 0.0
C464 C 0.70442 0.33318 0.97334 0.0
C465 C 0.7517 0.35608 1.03738 0.0
C466 C 0.73086 0.32087 1.04156 0.0
C467 C 0.68437 0.27494 1.0146 0.0
C468 C 0.65968 0.26385 0.98313 0.0
C469 C 0.70675 0.30939 1.00994 0.0
C470 C 0.65837 0.28738 0.94648 0.0
C471 C 0.68051 0.3217 0.94163 0.0
H472 H 0.91133 0.91611 0.41648 0.0
H473 H 0.88397 0.02264 0.34905 0.0
H474 H 0.93318 0.05761 0.38641 0.0
H475 H 0.98055 0.05869 0.44135 0.0
H476 H 1.0052 0.95306 0.51172 0.0
H477 H 0.96018 0.9168 0.47007 0.0
C478 C 0.91591 0.94705 0.41014 0.0
C479 C 0.89363 0.96685 0.38038 0.0
C480 C 0.94365 0.96704 0.43227 0.0
C481 C 0.90077 1.0067 0.37169 0.0
C482 C 0.92875 0.02673 0.39319 0.0
C483 C 0.97636 0.02765 0.44733 0.0
C484 C 0.99595 1.00851 0.47966 0.0
C485 C 0.94991 1.00729 0.42393 0.0
C486 C 0.99031 0.96835 0.48705 0.0
C487 C 0.96453 0.9477 0.46335 0.0
H488 H 0.41444 0.71699 0.82923 0.0
H489 H 0.49775 0.80927 0.79561 0.0
H490 H 0.52898 0.76841 0.74465 0.0
H491 H 0.53187 0.70721 0.70845 0.0
H492 H 0.44636 0.61637 0.73925 0.0
H493 H 0.41589 0.65673 0.79142 0.0
C494 C 0.43907 0.72859 0.81043 0.0
C495 C 0.45345 0.76652 0.81647 0.0
C496 C 0.45627 0.70533 0.78026 0.0
C497 C 0.4862 0.7802 0.79236 0.0
C498 C 0.50389 0.75693 0.7628 0.0
C499 C 0.50648 0.69616 0.72644 0.0
C500 C 0.4915 0.65865 0.71984 0.0
C501 C 0.48905 0.71956 0.75634 0.0
C502 C 0.45846 0.64509 0.74343 0.0
C503 C 0.44113 0.66812 0.77345 0.0
H504 H 0.92433 0.93961 0.79484 0.0
H505 H 1.03574 0.89686 0.83394 0.0
H506 H 0.06619 0.92281 0.76967 0.0
H507 H 0.06278 0.95932 0.70141 0.0
H508 H 0.9541 1.01059 0.66802 0.0
H509 H 0.92202 0.98086 0.73097 0.0
C510 C 0.95541 0.93623 0.79056 0.0
C511 C 0.97666 0.91486 0.82083 0.0
C512 C 0.97381 0.95326 0.75375 0.0
C513 C 1.01716 0.91132 0.81207 0.0
C514 C 1.03519 0.92684 0.77493 0.0
C515 C 1.03204 0.96389 0.7079 0.0
C516 C 1.01082 0.9869 0.67943 0.0
C517 C 1.01392 0.94783 0.74536 0.0
C518 C 0.97118 0.99301 0.68902 0.0
C519 C 0.95278 0.97592 0.72517 0.0
H520 H 0.69213 0.17081 0.3039 0.0
H521 H 0.6566 0.27575 0.23886 0.0
H522 H 0.62904 0.23734 0.18481 0.0
H523 H 0.61151 0.17349 0.15805 0.0
H524 H 0.64799 0.069 0.22351 0.0
H525 H 0.67916 0.1077 0.2746 0.0
C526 C 0.6791 0.18542 0.2775 0.0
C527 C 0.6763 0.2262 0.27577 0.0
C528 C 0.66321 0.16315 0.24652 0.0
C529 C 0.65869 0.2444 0.24147 0.0
C530 C 0.64299 0.22244 0.21041 0.0
C531 C 0.62659 0.15919 0.18326 0.0
C532 C 0.62702 0.11828 0.18693 0.0
C533 C 0.64444 0.18171 0.21297 0.0
C534 C 0.64689 0.10036 0.21984 0.0
C535 C 0.66476 0.1225 0.24924 0.0
H536 H 0.41922 0.51668 0.44648 0.0
H537 H 0.38722 0.63407 0.41206 0.0
H538 H 0.42825 0.65884 0.46566 0.0
H539 H 0.47659 0.64699 0.52031 0.0
H540 H 0.50498 0.52847 0.55468 0.0
H541 H 0.46141 0.50457 0.50397 0.0
C542 C 0.42027 0.54764 0.45122 0.0
C543 C 0.40032 0.57334 0.42488 0.0
C544 C 0.4436 0.56165 0.48216 0.0
C545 C 0.40286 0.61351 0.43128 0.0
C546 C 0.42622 0.62775 0.46208 0.0
C547 C 0.47292 0.61602 0.51675 0.0
C548 C 0.49438 0.58967 0.54093 0.0
C549 C 0.44739 0.60212 0.48727 0.0
C550 C 0.48913 0.54952 0.53629 0.0
C551 C 0.46414 0.53567 0.50724 0.0
H552 H 0.15909 0.26651 0.97211 0.0
H553 H 0.2796 0.26079 1.00315 0.0
H554 H 0.28242 0.33153 1.00879 0.0
H555 H 0.25384 0.39534 0.9906 0.0
H556 H 0.13443 0.39967 0.9538 0.0
H557 H 0.12787 0.32941 0.96416 0.0
C558 C 0.18532 0.28073 0.98212 0.0
C559 C 0.21891 0.25885 0.98771 0.0
C560 C 0.18732 0.32133 0.98245 0.0
C561 C 0.25321 0.27726 0.99957 0.0
C562 C 0.255 0.31772 1.00189 0.0
C563 C 0.22632 0.38083 0.9854 0.0
C564 C 0.1951 0.40239 0.97006 0.0
C565 C 0.22284 0.34018 0.99101 0.0
C566 C 0.15935 0.38344 0.96407 0.0
C567 C 0.1554 0.34334 0.97045 0.0
H568 H 0.73331 0.89718 1.00189 0.0
H569 H 0.80926 0.99571 0.97113 0.0
H570 H 0.76483 0.03759 1.00964 0.0
H571 H 0.70041 0.04752 1.04625 0.0
H572 H 0.62466 0.94819 0.07491 0.0
H573 H 0.67247 0.90583 1.04299 0.0
C574 C 0.74053 0.92776 1.00396 0.0
C575 C 0.77485 0.94307 0.9831 0.0
C576 C 0.7143 0.95184 1.02542 0.0
C577 C 0.78355 0.98279 0.98689 0.0
C578 C 0.75775 1.0069 1.00861 0.0
C579 C 0.69455 0.01653 1.04598 0.0
C580 C 0.65845 1.00132 0.06294 0.0
C581 C 0.72243 0.99201 1.02711 0.0
C582 C 0.65177 0.96097 0.06215 0.0
C583 C 0.67923 0.93662 1.04377 0.0
H584 H 0.74189 0.24901 0.45118 0.0
H585 H 0.80577 0.24634 0.33371 0.0
H586 H 0.86436 0.22687 0.36941 0.0
H587 H 0.89726 0.20966 0.43388 0.0
H588 H 0.83281 0.21099 0.55121 0.0
H589 H 0.77521 0.23323 0.51576 0.0
C590 C 0.76875 0.24468 0.43339 0.0
C591 C 0.76931 0.24909 0.38976 0.0
C592 C 0.8024 0.23349 0.45413 0.0
C593 C 0.80431 0.24269 0.36725 0.0
C594 C 0.83791 0.23175 0.38766 0.0
C595 C 0.8706 0.21463 0.45175 0.0
C596 C 0.8696 0.20857 0.49528 0.0
C597 C 0.83723 0.22678 0.43108 0.0
C598 C 0.83482 0.2159 0.51782 0.0
C599 C 0.80165 0.22831 0.49751 0.0
H600 H 0.29608 0.66673 0.18312 0.0
H601 H 0.31811 0.54493 0.17003 0.0
H602 H 0.26173 0.53925 0.1264 0.0
H603 H 0.20296 0.56738 0.09796 0.0
H604 H 0.17728 0.68779 0.11599 0.0
H605 H 0.23888 0.696 0.15077 0.0
C606 C 0.2888 0.63918 0.17005 0.0
C607 C 0.31095 0.60625 0.17968 0.0
C608 C 0.25577 0.63596 0.14597 0.0
C609 C 0.30116 0.57054 0.16312 0.0
C610 C 0.26905 0.56732 0.1382 0.0
C611 C 0.21116 0.59561 0.10885 0.0
C612 C 0.18562 0.62693 0.10472 0.0
C613 C 0.24566 0.59962 0.13024 0.0
C614 C 0.19652 0.66328 0.11902 0.0
C615 C 0.23158 0.66789 0.13907 0.0
H616 H 0.24609 0.30393 0.75622 0.0
H617 H 0.34459 0.24588 0.80813 0.0
H618 H 0.38645 0.30245 0.78876 0.0
H619 H 0.39496 0.36756 0.7559 0.0
H620 H 0.29606 0.42669 0.70576 0.0
H621 H 0.25416 0.37042 0.72569 0.0
C622 C 0.27683 0.30368 0.76282 0.0
C623 C 0.29257 0.27088 0.78298 0.0
C624 C 0.30039 0.33645 0.75228 0.0
C625 C 0.33213 0.2709 0.79236 0.0
C626 C 0.35592 0.30319 0.78143 0.0
C627 C 0.36408 0.36851 0.7501 0.0
C628 C 0.3486 0.40129 0.72952 0.0
C629 C 0.34031 0.33612 0.76148 0.0
C630 C 0.30869 0.40168 0.72138 0.0
C631 C 0.28476 0.36954 0.7327 0.0
H632 H 1.00941 0.79165 0.89273 0.0
H633 H 0.94805 0.82627 1.00412 0.0
H634 H 0.97505 0.77163 1.04302 0.0
H635 H 1.01604 0.71275 1.04648 0.0
H636 H 0.08125 0.68139 0.93648 0.0
H637 H 0.05379 0.73595 0.89725 0.0
C638 C 1.0022 0.78801 0.92563 0.0
C639 C 0.97571 0.81378 0.94458 0.0
C640 C 1.01887 0.75664 0.94868 0.0
C641 C 0.96708 0.80705 0.98753 0.0
C642 C 0.98296 0.77569 1.01028 0.0
C643 C 1.02449 0.71788 1.01397 0.0
C644 C 0.05095 0.69237 0.99482 0.0
C645 C 1.00877 0.75003 0.99127 0.0
C646 C 0.06128 0.70014 0.95254 0.0
C647 C 0.04537 0.7315 0.92982 0.0
H648 H 0.43299 0.68053 0.163 0.0
H649 H 0.43498 0.67386 0.29719 0.0
H650 H 0.47643 0.73112 0.29595 0.0
H651 H 0.50652 0.78691 0.25837 0.0
H652 H 0.49589 0.80086 0.12569 0.0
H653 H 0.46397 0.73705 0.12489 0.0
C654 C 0.44226 0.69158 0.19204 0.0
C655 C 0.43072 0.67224 0.23003 0.0
C656 C 0.46457 0.72616 0.1915 0.0
C657 C 0.44395 0.68697 0.2672 0.0
C658 C 0.46739 0.72026 0.26671 0.0
C659 C 0.49708 0.77619 0.22921 0.0
C660 C 0.50307 0.79904 0.19232 0.0
C661 C 0.47701 0.74058 0.22921 0.0
C662 C 0.49187 0.78392 0.15464 0.0
C663 C 0.47321 0.74756 0.15419 0.0
H664 H 0.19552 0.1149 0.78116 0.0
H665 H 0.17949 0.22532 0.71614 0.0
H666 H 0.14494 0.19304 0.66214 0.0
H667 H 0.12235 0.13253 0.63132 0.0
H668 H 0.13735 0.02293 0.69849 0.0
H669 H 0.16843 0.05587 0.75388 0.0
C670 C 0.18383 0.13205 0.75564 0.0
C671 C 0.19057 0.17235 0.7525 0.0
C672 C 0.16389 0.11339 0.72484 0.0
C673 C 0.17549 0.19406 0.71889 0.0
C674 C 0.15555 0.17567 0.68805 0.0
C675 C 0.13226 0.11605 0.65823 0.0
C676 C 0.12815 0.0754 0.6605 0.0
C677 C 0.15019 0.13521 0.69029 0.0
C678 C 0.14065 0.05428 0.69572 0.0
C679 C 0.15841 0.07305 0.72752 0.0
H680 H 0.64692 0.38153 0.4998 0.0
H681 H 0.63636 0.46073 0.3941 0.0
H682 H 0.63553 0.51598 0.43945 0.0
H683 H 0.62504 0.53984 0.51006 0.0
H684 H 0.62856 0.45915 0.61553 0.0
H685 H 0.6458 0.40663 0.57003 0.0
C686 C 0.64602 0.41107 0.48677 0.0
C687 C 0.64221 0.41733 0.44384 0.0
C688 C 0.64381 0.44239 0.51325 0.0
C689 C 0.63991 0.45549 0.42709 0.0
C690 C 0.63904 0.48698 0.45307 0.0
C691 C 0.63128 0.51109 0.523 0.0
C692 C 0.62621 0.5033 0.56598 0.0
C693 C 0.63924 0.48062 0.49635 0.0
C694 C 0.63295 0.46575 0.58252 0.0
C695 C 0.64239 0.43568 0.55647 0.0
loop_
_geom_bond_atom_site_label_1
_geom_bond_atom_site_label_2
_geom_bond_distance
_geom_bond_site_symmetry_2
_ccdc_geom_bond_type
H0 C1 0.949 . S
C1 H0 0.949 . S
C1 C2 1.395 . S
C1 C3 1.391 . S
C2 C1 1.395 . S
C2 C5 1.390 . S
C3 C1 1.391 . S
C3 C7 1.387 . S
C3 C8 1.491 . S
H4 C5 0.950 . S
C5 C2 1.390 . S
C5 H4 0.950 . S
C5 C6 1.378 . S
C6 C5 1.378 . S
C6 C7 1.409 . S
C7 C3 1.387 . S
C7 C6 1.409 . S
C7 H9 0.951 . S
C8 C3 1.491 . S
C8 C10 1.382 . S
C8 C12 1.404 . S
H9 C7 0.951 . S
C10 C8 1.382 . S
C10 C11 1.390 . S
C10 H15 0.949 . S
C11 C10 1.390 . S
C11 C16 1.399 . S
C12 C8 1.404 . S
C12 H13 0.950 . S
C12 C14 1.375 . S
H13 C12 0.950 . S
C14 C12 1.375 . S
C14 C16 1.382 . S
C14 H18 0.950 . S
H15 C10 0.949 . S
C16 C11 1.399 . S
C16 C14 1.382 . S
C16 H17 0.952 . S
H17 C16 0.952 . S
H18 C14 0.950 . S
H19 C20 0.949 . S
C20 H19 0.949 . S
C20 C21 1.395 . S
C20 C22 1.391 . S
C21 C20 1.395 . S
C21 C24 1.390 . S
C22 C20 1.391 . S
C22 C26 1.387 . S
C22 C27 1.491 . S
H23 C24 0.950 . S
C24 C21 1.390 . S
C24 H23 0.950 . S
C24 C25 1.378 . S
C25 C24 1.378 . S
C25 C26 1.409 . S
C26 C22 1.387 . S
C26 C25 1.409 . S
C26 H28 0.951 . S
C27 C22 1.491 . S
C27 C29 1.382 . S
C27 C31 1.404 . S
H28 C26 0.951 . S
C29 C27 1.382 . S
C29 C30 1.390 . S
C29 H34 0.949 . S
C30 C29 1.390 . S
C30 C35 1.399 . S
C31 C27 1.404 . S
C31 H32 0.950 . S
C31 C33 1.375 . S
H32 C31 0.950 . S
C33 C31 1.375 . S
C33 C35 1.382 . S
C33 H37 0.950 . S
H34 C29 0.949 . S
C35 C30 1.399 . S
C35 C33 1.382 . S
C35 H36 0.952 . S
H36 C35 0.952 . S
H37 C33 0.950 . S
H38 C39 0.949 . S
C39 H38 0.949 . S
C39 C40 1.395 . S
C39 C41 1.391 . S
C40 C39 1.395 . S
C40 C43 1.390 . S
C41 C39 1.391 . S
C41 C45 1.387 . S
C41 C46 1.491 . S
H42 C43 0.950 . S
C43 C40 1.390 . S
C43 H42 0.950 . S
C43 C44 1.378 . S
C44 C43 1.378 . S
C44 C45 1.409 . S
C45 C41 1.387 . S
C45 C44 1.409 . S
C45 H47 0.951 . S
C46 C41 1.491 . S
C46 C48 1.382 . S
C46 C50 1.404 . S
H47 C45 0.951 . S
C48 C46 1.382 . S
C48 C49 1.390 . S
C48 H53 0.949 . S
C49 C48 1.390 . S
C49 C54 1.399 . S
C50 C46 1.404 . S
C50 H51 0.950 . S
C50 C52 1.375 . S
H51 C50 0.950 . S
C52 C50 1.375 . S
C52 C54 1.382 . S
C52 H56 0.950 . S
H53 C48 0.949 . S
C54 C49 1.399 . S
C54 C52 1.382 . S
C54 H55 0.952 . S
H55 C54 0.952 . S
H56 C52 0.950 . S
H57 C58 0.949 . S
C58 H57 0.949 . S
C58 C59 1.395 . S
C58 C60 1.391 . S
C59 C58 1.395 . S
C59 C62 1.390 . S
C60 C58 1.391 . S
C60 C64 1.387 . S
C60 C65 1.491 . S
H61 C62 0.950 . S
C62 C59 1.390 . S
C62 H61 0.950 . S
C62 C63 1.378 . S
C63 C62 1.378 . S
C63 C64 1.409 . S
C64 C60 1.387 . S
C64 C63 1.409 . S
C64 H66 0.951 . S
C65 C60 1.491 . S
C65 C67 1.382 . S
C65 C69 1.404 . S
H66 C64 0.951 . S
C67 C65 1.382 . S
C67 C68 1.390 . S
C67 H72 0.949 . S
C68 C67 1.390 . S
C68 C73 1.399 . S
C69 C65 1.404 . S
C69 H70 0.950 . S
C69 C71 1.375 . S
H70 C69 0.950 . S
C71 C69 1.375 . S
C71 C73 1.382 . S
C71 H75 0.950 . S
H72 C67 0.949 . S
C73 C68 1.399 . S
C73 C71 1.382 . S
C73 H74 0.952 . S
H74 C73 0.952 . S
H75 C71 0.950 . S
H76 C77 0.949 . S
C77 H76 0.949 . S
C77 C78 1.395 . S
C77 C79 1.391 . S
C78 C77 1.395 . S
C78 C81 1.390 . S
C79 C77 1.391 . S
C79 C83 1.387 . S
C79 C84 1.491 . S
H80 C81 0.950 . S
C81 C78 1.390 . S
C81 H80 0.950 . S
C81 C82 1.378 . S
C82 C81 1.378 . S
C82 C83 1.409 . S
C83 C79 1.387 . S
C83 C82 1.409 . S
C83 H85 0.951 . S
C84 C79 1.491 . S
C84 C86 1.382 . S
C84 C88 1.404 . S
H85 C83 0.951 . S
C86 C84 1.382 . S
C86 C87 1.390 . S
C86 H91 0.949 . S
C87 C86 1.390 . S
C87 C92 1.399 . S
C88 C84 1.404 . S
C88 H89 0.950 . S
C88 C90 1.375 . S
H89 C88 0.950 . S
C90 C88 1.375 . S
C90 C92 1.382 . S
C90 H94 0.950 . S
H91 C86 0.949 . S
C92 C87 1.399 . S
C92 C90 1.382 . S
C92 H93 0.952 . S
H93 C92 0.952 . S
H94 C90 0.950 . S
H95 C96 0.949 . S
C96 H95 0.949 . S
C96 C97 1.395 . S
C96 C98 1.391 . S
C97 C96 1.395 . S
C97 C100 1.390 . S
C98 C96 1.391 . S
C98 C102 1.387 . S
C98 C103 1.491 . S
H99 C100 0.950 . S
C100 C97 1.390 . S
C100 H99 0.950 . S
C100 C101 1.378 . S
C101 C100 1.378 . S
C101 C102 1.409 . S
C102 C98 1.387 . S
C102 C101 1.409 . S
C102 H104 0.951 . S
C103 C98 1.491 . S
C103 C105 1.382 . S
C103 C107 1.404 . S
H104 C102 0.951 . S
C105 C103 1.382 . S
C105 C106 1.390 . S
C105 H110 0.949 . S
C106 C105 1.390 . S
C106 C111 1.399 . S
C107 C103 1.404 . S
C107 H108 0.950 . S
C107 C109 1.375 . S
H108 C107 0.950 . S
C109 C107 1.375 . S
C109 C111 1.382 . S
C109 H113 0.950 . S
H110 C105 0.949 . S
C111 C106 1.399 . S
C111 C109 1.382 . S
C111 H112 0.952 . S
H112 C111 0.952 . S
H113 C109 0.950 . S
H114 C115 0.949 . S
C115 H114 0.949 . S
C115 C116 1.395 . S
C115 C117 1.391 . S
C116 C115 1.395 . S
C116 C119 1.390 . S
C117 C115 1.391 . S
C117 C121 1.387 . S
C117 C122 1.491 . S
H118 C119 0.950 . S
C119 C116 1.390 . S
C119 H118 0.950 . S
C119 C120 1.378 . S
C120 C119 1.378 . S
C120 C121 1.409 . S
C121 C117 1.387 . S
C121 C120 1.409 . S
C121 H123 0.951 . S
C122 C117 1.491 . S
C122 C124 1.382 . S
C122 C126 1.404 . S
H123 C121 0.951 . S
C124 C122 1.382 . S
C124 C125 1.390 . S
C124 H129 0.949 . S
C125 C124 1.390 . S
C125 C130 1.399 . S
C126 C122 1.404 . S
C126 H127 0.950 . S
C126 C128 1.375 . S
H127 C126 0.950 . S
C128 C126 1.375 . S
C128 C130 1.382 . S
C128 H132 0.950 . S
H129 C124 0.949 . S
C130 C125 1.399 . S
C130 C128 1.382 . S
C130 H131 0.952 . S
H131 C130 0.952 . S
H132 C128 0.950 . S
H133 C134 0.949 . S
C134 H133 0.949 . S
C134 C135 1.395 . S
C134 C136 1.391 . S
C135 C134 1.395 . S
C135 C138 1.390 . S
C136 C134 1.391 . S
C136 C140 1.387 . S
C136 C141 1.491 . S
H137 C138 0.950 . S
C138 C135 1.390 . S
C138 H137 0.950 . S
C138 C139 1.378 . S
C139 C138 1.378 . S
C139 C140 1.409 . S
C140 C136 1.387 . S
C140 C139 1.409 . S
C140 H142 0.951 . S
C141 C136 1.491 . S
C141 C143 1.382 . S
C141 C145 1.404 . S
H142 C140 0.951 . S
C143 C141 1.382 . S
C143 C144 1.390 . S
C143 H148 0.949 . S
C144 C143 1.390 . S
C144 C149 1.399 . S
C145 C141 1.404 . S
C145 H146 0.950 . S
C145 C147 1.375 . S
H146 C145 0.950 . S
C147 C145 1.375 . S
C147 C149 1.382 . S
C147 H151 0.950 . S
H148 C143 0.949 . S
C149 C144 1.399 . S
C149 C147 1.382 . S
C149 H150 0.952 . S
H150 C149 0.952 . S
H151 C147 0.950 . S
Nd152 C154 2.836 1_545 S
Nd152 O172 2.500 1_545 S
Nd152 O173 2.492 1_545 S
Nd152 O174 2.487 . S
Nd152 O175 2.682 . S
Nd152 O176 2.410 1_545 S
Nd152 O181 2.414 1_445 S
Nd152 O183 2.424 . S
Nd153 C163 2.836 . S
Nd153 O175 2.414 1_655 S
Nd153 O177 2.424 1_545 S
Nd153 O178 2.500 . S
Nd153 O179 2.492 . S
Nd153 O180 2.487 1_545 S
Nd153 O181 2.682 1_545 S
Nd153 O182 2.410 . S
C154 Nd152 2.836 1_565 S
C154 C155 1.498 . S
C154 O172 1.258 . S
C154 O173 1.239 . S
C155 C154 1.498 . S
C155 C156 1.366 . S
C155 C160 1.407 . S
C156 C155 1.366 . S
C156 C157 1.392 . S
C156 H184 0.930 . S
C157 C156 1.392 . S
C157 C158 1.398 . S
C157 H185 0.929 . S
C158 C157 1.398 . S
C158 C159 1.352 . S
C159 C158 1.352 . S
C159 C160 1.384 . S
C159 H186 0.930 . S
C160 C155 1.407 . S
C160 C159 1.384 . S
C160 H187 0.929 . S
C161 O174 1.241 . S
C161 O175 1.273 . S
C162 O176 1.251 1_655 S
C162 O177 1.268 . S
C163 Nd153 2.836 . S
C163 C164 1.498 . S
C163 O178 1.258 . S
C163 O179 1.239 . S
C164 C163 1.498 . S
C164 C165 1.366 . S
C164 C169 1.407 . S
C165 C164 1.366 . S
C165 C166 1.392 . S
C165 H188 0.930 . S
C166 C165 1.392 . S
C166 C167 1.398 . S
C166 H189 0.929 . S
C167 C166 1.398 . S
C167 C168 1.352 . S
C168 C167 1.352 . S
C168 C169 1.384 . S
C168 H190 0.930 . S
C169 C164 1.407 . S
C169 C168 1.384 . S
C169 H191 0.929 . S
C170 O180 1.241 . S
C170 O181 1.273 . S
C171 O182 1.251 1_455 S
C171 O183 1.268 . S
O172 Nd152 2.500 1_565 S
O172 C154 1.258 . S
O173 Nd152 2.492 1_565 S
O173 C154 1.239 . S
O174 Nd152 2.487 . S
O174 C161 1.241 . S
O175 Nd152 2.682 . S
O175 Nd153 2.414 1_455 S
O175 C161 1.273 . S
O176 Nd152 2.410 1_565 S
O176 C162 1.251 1_455 S
O177 Nd153 2.424 1_565 S
O177 C162 1.268 . S
O178 Nd153 2.500 . S
O178 C163 1.258 . S
O179 Nd153 2.492 . S
O179 C163 1.239 . S
O180 Nd153 2.487 1_565 S
O180 C170 1.241 . S
O181 Nd152 2.414 1_665 S
O181 Nd153 2.682 1_565 S
O181 C170 1.273 . S
O182 Nd153 2.410 . S
O182 C171 1.251 1_655 S
O183 Nd152 2.424 . S
O183 C171 1.268 . S
H184 C156 0.930 . S
H185 C157 0.929 . S
H186 C159 0.930 . S
H187 C160 0.929 . S
H188 C165 0.930 . S
H189 C166 0.929 . S
H190 C168 0.930 . S
H191 C169 0.929 . S
Nd192 C194 2.836 . S
Nd192 O212 2.500 . S
Nd192 O213 2.492 . S
Nd192 O214 2.487 1_565 S
Nd192 O215 2.682 1_565 S
Nd192 O216 2.410 . S
Nd192 O221 2.414 1_565 S
Nd192 O223 2.424 1_565 S
Nd193 C203 2.836 . S
Nd193 O215 2.414 . S
Nd193 O217 2.424 1_545 S
Nd193 O218 2.500 . S
Nd193 O219 2.492 . S
Nd193 O220 2.487 . S
Nd193 O221 2.682 . S
Nd193 O222 2.410 . S
C194 Nd192 2.836 . S
C194 C195 1.498 . S
C194 O212 1.258 . S
C194 O213 1.239 . S
C195 C194 1.498 . S
C195 C196 1.366 . S
C195 C200 1.407 . S
C196 C195 1.366 . S
C196 C197 1.392 . S
C196 H224 0.930 . S
C197 C196 1.392 . S
C197 C198 1.398 . S
C197 H225 0.929 . S
C198 C197 1.398 . S
C198 C199 1.352 . S
C199 C198 1.352 . S
C199 C200 1.384 . S
C199 H226 0.930 . S
C200 C195 1.407 . S
C200 C199 1.384 . S
C200 H227 0.929 . S
C201 O214 1.241 . S
C201 O215 1.273 . S
C202 O216 1.251 . S
C202 O217 1.268 . S
C203 Nd193 2.836 . S
C203 C204 1.498 . S
C203 O218 1.258 . S
C203 O219 1.239 . S
C204 C203 1.498 . S
C204 C205 1.366 . S
C204 C209 1.407 1_554 S
C205 C204 1.366 . S
C205 C206 1.392 . S
C205 H228 0.930 . S
C206 C205 1.392 . S
C206 C207 1.398 1_554 S
C206 H229 0.929 . S
C207 C206 1.398 1_556 S
C207 C208 1.352 . S
C208 C207 1.352 . S
C208 C209 1.384 . S
C208 H230 0.930 . S
C209 C204 1.407 1_556 S
C209 C208 1.384 . S
C209 H231 0.929 . S
C210 O220 1.241 . S
C210 O221 1.273 . S
C211 O222 1.251 . S
C211 O223 1.268 . S
O212 Nd192 2.500 . S
O212 C194 1.258 . S
O213 Nd192 2.492 . S
O213 C194 1.239 . S
O214 Nd192 2.487 1_545 S
O214 C201 1.241 . S
O215 Nd192 2.682 1_545 S
O215 Nd193 2.414 . S
O215 C201 1.273 . S
O216 Nd192 2.410 . S
O216 C202 1.251 . S
O217 Nd193 2.424 1_565 S
O217 C202 1.268 . S
O218 Nd193 2.500 . S
O218 C203 1.258 . S
O219 Nd193 2.492 . S
O219 C203 1.239 . S
O220 Nd193 2.487 . S
O220 C210 1.241 . S
O221 Nd192 2.414 1_545 S
O221 Nd193 2.682 . S
O221 C210 1.273 . S
O222 Nd193 2.410 . S
O222 C211 1.251 . S
O223 Nd192 2.424 1_545 S
O223 C211 1.268 . S
H224 C196 0.930 . S
H225 C197 0.929 . S
H226 C199 0.930 . S
H227 C200 0.929 . S
H228 C205 0.930 . S
H229 C206 0.929 . S
H230 C208 0.930 . S
H231 C209 0.929 . S
Nd232 C234 2.836 . S
Nd232 O252 2.500 . S
Nd232 O253 2.492 . S
Nd232 O254 2.487 . S
Nd232 O255 2.682 . S
Nd232 O256 2.410 . S
Nd232 O261 2.414 . S
Nd232 O263 2.424 . S
Nd233 C243 2.836 . S
Nd233 O255 2.414 . S
Nd233 O257 2.424 . S
Nd233 O258 2.500 . S
Nd233 O259 2.492 . S
Nd233 O260 2.487 . S
Nd233 O261 2.682 . S
Nd233 O262 2.410 . S
C234 Nd232 2.836 . S
C234 C235 1.498 . S
C234 O252 1.258 . S
C234 O253 1.239 . S
C235 C234 1.498 . S
C235 C236 1.366 . S
C235 C240 1.407 . S
C236 C235 1.366 . S
C236 C237 1.392 . S
C236 H264 0.930 . S
C237 C236 1.392 . S
C237 C238 1.398 . S
C237 H265 0.929 . S
C238 C237 1.398 . S
C238 C239 1.352 . S
C239 C238 1.352 . S
C239 C240 1.384 . S
C239 H266 0.930 . S
C240 C235 1.407 . S
C240 C239 1.384 . S
C240 H267 0.929 . S
C241 O254 1.241 . S
C241 O255 1.273 . S
C242 O256 1.251 . S
C242 O257 1.268 . S
C243 Nd233 2.836 . S
C243 C244 1.498 . S
C243 O258 1.258 . S
C243 O259 1.239 . S
C244 C243 1.498 . S
C244 C245 1.366 . S
C244 C249 1.407 . S
C245 C244 1.366 . S
C245 C246 1.392 . S
C245 H268 0.930 . S
C246 C245 1.392 . S
C246 C247 1.398 . S
C246 H269 0.929 . S
C247 C246 1.398 . S
C247 C248 1.352 . S
C248 C247 1.352 . S
C248 C249 1.384 . S
C248 H270 0.930 . S
C249 C244 1.407 . S
C249 C248 1.384 . S
C249 H271 0.929 . S
C250 O260 1.241 . S
C250 O261 1.273 . S
C251 O262 1.251 . S
C251 O263 1.268 . S
O252 Nd232 2.500 . S
O252 C234 1.258 . S
O253 Nd232 2.492 . S
O253 C234 1.239 . S
O254 Nd232 2.487 . S
O254 C241 1.241 . S
O255 Nd232 2.682 . S
O255 Nd233 2.414 . S
O255 C241 1.273 . S
O256 Nd232 2.410 . S
O256 C242 1.251 . S
O257 Nd233 2.424 . S
O257 C242 1.268 . S
O258 Nd233 2.500 . S
O258 C243 1.258 . S
O259 Nd233 2.492 . S
O259 C243 1.239 . S
O260 Nd233 2.487 . S
O260 C250 1.241 . S
O261 Nd232 2.414 . S
O261 Nd233 2.682 . S
O261 C250 1.273 . S
O262 Nd233 2.410 . S
O262 C251 1.251 . S
O263 Nd232 2.424 . S
O263 C251 1.268 . S
H264 C236 0.930 . S
H265 C237 0.929 . S
H266 C239 0.930 . S
H267 C240 0.929 . S
H268 C245 0.930 . S
H269 C246 0.929 . S
H270 C248 0.930 . S
H271 C249 0.929 . S
Nd272 C274 2.836 1_455 S
Nd272 O292 2.500 1_455 S
Nd272 O293 2.492 . S
Nd272 O294 2.487 . S
Nd272 O295 2.682 . S
Nd272 O296 2.410 . S
Nd272 O301 2.413 1_454 S
Nd272 O303 2.424 . S
Nd273 C283 2.836 . S
Nd273 O295 2.414 1_556 S
Nd273 O297 2.424 . S
Nd273 O298 2.500 . S
Nd273 O299 2.492 . S
Nd273 O300 2.487 1_455 S
Nd273 O301 2.682 1_455 S
Nd273 O302 2.410 . S
C274 Nd272 2.836 1_655 S
C274 C275 1.498 . S
C274 O292 1.258 . S
C274 O293 1.239 1_655 S
C275 C274 1.498 . S
C275 C276 1.366 . S
C275 C280 1.407 . S
C276 C275 1.366 . S
C276 C277 1.392 . S
C276 H304 0.930 . S
C277 C276 1.392 . S
C277 C278 1.398 . S
C277 H305 0.929 . S
C278 C277 1.398 . S
C278 C279 1.352 . S
C279 C278 1.352 . S
C279 C280 1.384 . S
C279 H306 0.930 . S
C280 C275 1.407 . S
C280 C279 1.384 . S
C280 H307 0.929 1_655 S
C281 O294 1.241 . S
C281 O295 1.273 . S
C282 O296 1.276 . S
C282 O297 1.246 1_554 S
C283 Nd273 2.836 . S
C283 C284 1.498 . S
C283 O298 1.258 . S
C283 O299 1.239 . S
C284 C283 1.498 . S
C284 C285 1.366 . S
C284 C289 1.407 . S
C285 C284 1.366 . S
C285 C286 1.392 . S
C285 H308 0.930 . S
C286 C285 1.392 . S
C286 C287 1.398 . S
C286 H309 0.929 . S
C287 C286 1.398 . S
C287 C288 1.352 . S
C288 C287 1.352 . S
C288 C289 1.384 . S
C288 H310 0.930 . S
C289 C284 1.407 . S
C289 C288 1.384 . S
C289 H311 0.929 . S
C290 O300 1.241 . S
C290 O301 1.273 . S
C291 O302 1.251 1_554 S
C291 O303 1.268 . S
O292 Nd272 2.500 1_655 S
O292 C274 1.258 . S
O293 Nd272 2.492 . S
O293 C274 1.239 1_455 S
O294 Nd272 2.487 . S
O294 C281 1.241 . S
O295 Nd272 2.682 . S
O295 Nd273 2.414 1_554 S
O295 C281 1.273 . S
O296 Nd272 2.410 . S
O296 C282 1.276 . S
O297 Nd273 2.424 . S
O297 C282 1.246 1_556 S
O298 Nd273 2.500 . S
O298 C283 1.258 . S
O299 Nd273 2.492 . S
O299 C283 1.239 . S
O300 Nd273 2.487 1_655 S
O300 C290 1.241 . S
O301 Nd272 2.413 1_656 S
O301 Nd273 2.682 1_655 S
O301 C290 1.273 . S
O302 Nd273 2.410 . S
O302 C291 1.251 1_556 S
O303 Nd272 2.424 . S
O303 C291 1.268 . S
H304 C276 0.930 . S
H305 C277 0.929 . S
H306 C279 0.930 . S
H307 C280 0.929 1_455 S
H308 C285 0.930 . S
H309 C286 0.929 . S
H310 C288 0.930 . S
H311 C289 0.929 . S
H312 C318 0.930 . S
H313 C321 0.930 . S
H314 C322 0.930 . S
H315 C323 0.930 . S
H316 C326 0.930 . S
H317 C327 0.930 . S
C318 H312 0.930 . S
C318 C319 1.355 . S
C318 C320 1.415 . S
C319 C318 1.355 . S
C319 C321 1.419 . S
C320 C318 1.415 . S
C320 C325 1.425 . S
C320 C327 1.409 . S
C321 H313 0.930 . S
C321 C319 1.419 . S
C321 C322 1.362 . S
C322 H314 0.930 . S
C322 C321 1.362 . S
C322 C325 1.409 . S
C323 H315 0.930 . S
C323 C324 1.355 . S
C323 C325 1.415 . S
C324 C323 1.355 . S
C324 C326 1.419 . S
C325 C320 1.425 . S
C325 C322 1.409 . S
C325 C323 1.415 . S
C326 H316 0.930 . S
C326 C324 1.419 . S
C326 C327 1.362 . S
C327 H317 0.930 . S
C327 C320 1.409 . S
C327 C326 1.362 . S
H328 C334 0.930 . S
H329 C337 0.930 . S
H330 C338 0.930 . S
H331 C339 0.930 . S
H332 C342 0.930 . S
H333 C343 0.930 . S
C334 H328 0.930 . S
C334 C335 1.355 . S
C334 C336 1.415 . S
C335 C334 1.355 . S
C335 C337 1.419 . S
C336 C334 1.415 . S
C336 C341 1.425 . S
C336 C343 1.409 . S
C337 H329 0.930 . S
C337 C335 1.419 . S
C337 C338 1.362 . S
C338 H330 0.930 . S
C338 C337 1.362 . S
C338 C341 1.409 . S
C339 H331 0.930 . S
C339 C340 1.355 . S
C339 C341 1.415 . S
C340 C339 1.355 . S
C340 C342 1.419 1_556 S
C341 C336 1.425 . S
C341 C338 1.409 . S
C341 C339 1.415 . S
C342 H332 0.930 . S
C342 C340 1.419 1_554 S
C342 C343 1.362 1_554 S
C343 H333 0.930 . S
C343 C336 1.409 . S
C343 C342 1.362 1_556 S
H344 C350 0.930 . S
H345 C353 0.930 . S
H346 C354 0.930 . S
H347 C355 0.930 . S
H348 C358 0.930 . S
H349 C359 0.930 . S
C350 H344 0.930 . S
C350 C351 1.355 . S
C350 C352 1.415 . S
C351 C350 1.355 . S
C351 C353 1.419 . S
C352 C350 1.415 . S
C352 C357 1.425 . S
C352 C359 1.409 . S
C353 H345 0.930 . S
C353 C351 1.419 . S
C353 C354 1.362 . S
C354 H346 0.930 . S
C354 C353 1.362 . S
C354 C357 1.409 . S
C355 H347 0.930 . S
C355 C356 1.355 . S
C355 C357 1.415 . S
C356 C355 1.355 . S
C356 C358 1.419 . S
C357 C352 1.425 . S
C357 C354 1.409 . S
C357 C355 1.415 . S
C358 H348 0.930 . S
C358 C356 1.419 . S
C358 C359 1.362 . S
C359 H349 0.930 . S
C359 C352 1.409 . S
C359 C358 1.362 . S
H360 C366 0.930 . S
H361 C369 0.930 . S
H362 C370 0.930 . S
H363 C371 0.930 . S
H364 C374 0.930 . S
H365 C375 0.930 . S
C366 H360 0.930 . S
C366 C367 1.355 . S
C366 C368 1.415 . S
C367 C366 1.355 . S
C367 C369 1.419 . S
C368 C366 1.415 . S
C368 C373 1.425 . S
C368 C375 1.409 . S
C369 H361 0.930 . S
C369 C367 1.419 . S
C369 C370 1.362 . S
C370 H362 0.930 . S
C370 C369 1.362 . S
C370 C373 1.409 . S
C371 H363 0.930 . S
C371 C372 1.355 . S
C371 C373 1.415 . S
C372 C371 1.355 . S
C372 C374 1.419 . S
C373 C368 1.425 . S
C373 C370 1.409 . S
C373 C371 1.415 . S
C374 H364 0.930 . S
C374 C372 1.419 . S
C374 C375 1.362 . S
C375 H365 0.930 . S
C375 C368 1.409 . S
C375 C374 1.362 . S
H376 C382 0.930 . S
H377 C385 0.930 . S
H378 C386 0.930 . S
H379 C387 0.930 . S
H380 C390 0.930 . S
H381 C391 0.930 . S
C382 H376 0.930 . S
C382 C383 1.355 . S
C382 C384 1.415 . S
C383 C382 1.355 . S
C383 C385 1.419 . S
C384 C382 1.415 . S
C384 C389 1.425 . S
C384 C391 1.409 . S
C385 H377 0.930 . S
C385 C383 1.419 . S
C385 C386 1.362 . S
C386 H378 0.930 . S
C386 C385 1.362 . S
C386 C389 1.409 . S
C387 H379 0.930 . S
C387 C388 1.355 . S
C387 C389 1.415 . S
C388 C387 1.355 . S
C388 C390 1.419 . S
C389 C384 1.425 . S
C389 C386 1.409 . S
C389 C387 1.415 . S
C390 H380 0.930 . S
C390 C388 1.419 . S
C390 C391 1.362 . S
C391 H381 0.930 . S
C391 C384 1.409 . S
C391 C390 1.362 . S
H392 C398 0.930 . S
H393 C401 0.930 . S
H394 C402 0.930 . S
H395 C403 0.930 . S
H396 C406 0.930 . S
H397 C407 0.930 . S
C398 H392 0.930 . S
C398 C399 1.355 . S
C398 C400 1.415 . S
C399 C398 1.355 . S
C399 C401 1.419 . S
C400 C398 1.415 . S
C400 C405 1.425 . S
C400 C407 1.409 . S
C401 H393 0.930 . S
C401 C399 1.419 . S
C401 C402 1.362 . S
C402 H394 0.930 . S
C402 C401 1.362 . S
C402 C405 1.409 . S
C403 H395 0.930 . S
C403 C404 1.355 . S
C403 C405 1.415 . S
C404 C403 1.355 . S
C404 C406 1.419 . S
C405 C400 1.425 . S
C405 C402 1.409 . S
C405 C403 1.415 . S
C406 H396 0.930 . S
C406 C404 1.419 . S
C406 C407 1.362 . S
C407 H397 0.930 . S
C407 C400 1.409 . S
C407 C406 1.362 . S
H408 C414 0.930 . S
H409 C417 0.930 . S
H410 C418 0.930 . S
H411 C419 0.930 . S
H412 C422 0.930 1_554 S
H413 C423 0.930 1_554 S
C414 H408 0.930 . S
C414 C415 1.355 . S
C414 C416 1.415 . S
C415 C414 1.355 . S
C415 C417 1.419 . S
C416 C414 1.415 . S
C416 C421 1.425 . S
C416 C423 1.409 . S
C417 H409 0.930 . S
C417 C415 1.419 . S
C417 C418 1.362 . S
C418 H410 0.930 . S
C418 C417 1.362 . S
C418 C421 1.409 . S
C419 H411 0.930 . S
C419 C420 1.355 . S
C419 C421 1.415 . S
C420 C419 1.355 . S
C420 C422 1.419 . S
C421 C416 1.425 . S
C421 C418 1.409 . S
C421 C419 1.415 . S
C422 H412 0.930 1_556 S
C422 C420 1.419 . S
C422 C423 1.362 . S
C423 H413 0.930 1_556 S
C423 C416 1.409 . S
C423 C422 1.362 . S
H424 C430 0.930 . S
H425 C433 0.930 . S
H426 C434 0.930 . S
H427 C435 0.930 . S
H428 C438 0.930 . S
H429 C439 0.930 . S
C430 H424 0.930 . S
C430 C431 1.355 . S
C430 C432 1.415 . S
C431 C430 1.355 . S
C431 C433 1.419 . S
C432 C430 1.415 . S
C432 C437 1.425 . S
C432 C439 1.409 . S
C433 H425 0.930 . S
C433 C431 1.419 . S
C433 C434 1.362 . S
C434 H426 0.930 . S
C434 C433 1.362 . S
C434 C437 1.409 . S
C435 H427 0.930 . S
C435 C436 1.355 . S
C435 C437 1.415 . S
C436 C435 1.355 . S
C436 C438 1.419 . S
C437 C432 1.425 . S
C437 C434 1.409 . S
C437 C435 1.415 . S
C438 H428 0.930 . S
C438 C436 1.419 . S
C438 C439 1.362 . S
C439 H429 0.930 . S
C439 C432 1.409 . S
C439 C438 1.362 . S
H440 C446 0.930 . S
H441 C449 0.930 . S
H442 C450 0.930 . S
H443 C451 0.930 . S
H444 C454 0.930 1_556 S
H445 C455 0.930 1_556 S
C446 H440 0.930 . S
C446 C447 1.355 . S
C446 C448 1.415 . S
C447 C446 1.355 . S
C447 C449 1.419 . S
C448 C446 1.415 . S
C448 C453 1.425 . S
C448 C455 1.409 . S
C449 H441 0.930 . S
C449 C447 1.419 . S
C449 C450 1.362 . S
C450 H442 0.930 . S
C450 C449 1.362 . S
C450 C453 1.409 . S
C451 H443 0.930 . S
C451 C452 1.355 . S
C451 C453 1.415 . S
C452 C451 1.355 . S
C452 C454 1.419 . S
C453 C448 1.425 . S
C453 C450 1.409 . S
C453 C451 1.415 . S
C454 H444 0.930 1_554 S
C454 C452 1.419 . S
C454 C455 1.362 . S
C455 H445 0.930 1_554 S
C455 C448 1.409 . S
C455 C454 1.362 . S
H456 C462 0.930 . S
H457 C465 0.930 . S
H458 C466 0.930 . S
H459 C467 0.930 . S
H460 C470 0.930 1_554 S
H461 C471 0.930 . S
C462 H456 0.930 . S
C462 C463 1.355 . S
C462 C464 1.415 . S
C463 C462 1.355 . S
C463 C465 1.419 . S
C464 C462 1.415 . S
C464 C469 1.425 . S
C464 C471 1.409 . S
C465 H457 0.930 . S
C465 C463 1.419 . S
C465 C466 1.362 . S
C466 H458 0.930 . S
C466 C465 1.362 . S
C466 C469 1.409 . S
C467 H459 0.930 . S
C467 C468 1.355 . S
C467 C469 1.415 . S
C468 C467 1.355 . S
C468 C470 1.419 . S
C469 C464 1.425 . S
C469 C466 1.409 . S
C469 C467 1.415 . S
C470 H460 0.930 1_556 S
C470 C468 1.419 . S
C470 C471 1.362 . S
C471 H461 0.930 . S
C471 C464 1.409 . S
C471 C470 1.362 . S
H472 C478 0.930 . S
H473 C481 0.930 . S
H474 C482 0.930 . S
H475 C483 0.930 . S
H476 C486 0.935 . S
H477 C487 0.930 . S
C478 H472 0.930 . S
C478 C479 1.355 . S
C478 C480 1.415 . S
C479 C478 1.355 . S
C479 C481 1.419 . S
C480 C478 1.415 . S
C480 C485 1.425 . S
C480 C487 1.409 . S
C481 H473 0.930 . S
C481 C479 1.419 . S
C481 C482 1.362 . S
C482 H474 0.930 . S
C482 C481 1.362 . S
C482 C485 1.409 . S
C483 H475 0.930 . S
C483 C484 1.355 . S
C483 C485 1.415 . S
C484 C483 1.355 . S
C484 C486 1.419 . S
C485 C480 1.425 . S
C485 C482 1.409 . S
C485 C483 1.415 . S
C486 H476 0.935 . S
C486 C484 1.419 . S
C486 C487 1.362 . S
C487 H477 0.930 . S
C487 C480 1.409 . S
C487 C486 1.362 . S
H488 C494 0.930 . S
H489 C497 0.930 . S
H490 C498 0.930 . S
H491 C499 0.930 . S
H492 C502 0.930 . S
H493 C503 0.930 . S
C494 H488 0.930 . S
C494 C495 1.355 . S
C494 C496 1.415 . S
C495 C494 1.355 . S
C495 C497 1.419 . S
C496 C494 1.415 . S
C496 C501 1.425 . S
C496 C503 1.409 . S
C497 H489 0.930 . S
C497 C495 1.419 . S
C497 C498 1.362 . S
C498 H490 0.930 . S
C498 C497 1.362 . S
C498 C501 1.409 . S
C499 H491 0.930 . S
C499 C500 1.355 . S
C499 C501 1.415 . S
C500 C499 1.355 . S
C500 C502 1.419 . S
C501 C496 1.425 . S
C501 C498 1.409 . S
C501 C499 1.415 . S
C502 H492 0.930 . S
C502 C500 1.419 . S
C502 C503 1.362 . S
C503 H493 0.930 . S
C503 C496 1.409 . S
C503 C502 1.362 . S
H504 C510 0.930 . S
H505 C513 0.930 . S
H506 C514 0.930 . S
H507 C515 0.930 . S
H508 C518 0.930 . S
H509 C519 0.930 . S
C510 H504 0.930 . S
C510 C511 1.355 . S
C510 C512 1.415 . S
C511 C510 1.355 . S
C511 C513 1.419 . S
C512 C510 1.415 . S
C512 C517 1.425 . S
C512 C519 1.409 . S
C513 H505 0.930 . S
C513 C511 1.419 . S
C513 C514 1.362 . S
C514 H506 0.930 . S
C514 C513 1.362 . S
C514 C517 1.409 . S
C515 H507 0.930 . S
C515 C516 1.355 . S
C515 C517 1.415 . S
C516 C515 1.355 . S
C516 C518 1.419 . S
C517 C512 1.425 . S
C517 C514 1.409 . S
C517 C515 1.415 . S
C518 H508 0.930 . S
C518 C516 1.419 . S
C518 C519 1.362 . S
C519 H509 0.930 . S
C519 C512 1.409 . S
C519 C518 1.362 . S
H520 C526 0.930 . S
H521 C529 0.930 . S
H522 C530 0.930 . S
H523 C531 0.930 . S
H524 C534 0.930 . S
H525 C535 0.930 . S
C526 H520 0.930 . S
C526 C527 1.355 . S
C526 C528 1.415 . S
C527 C526 1.355 . S
C527 C529 1.419 . S
C528 C526 1.415 . S
C528 C533 1.425 . S
C528 C535 1.409 . S
C529 H521 0.930 . S
C529 C527 1.419 . S
C529 C530 1.362 . S
C530 H522 0.930 . S
C530 C529 1.362 . S
C530 C533 1.409 . S
C531 H523 0.930 . S
C531 C532 1.355 . S
C531 C533 1.415 . S
C532 C531 1.355 . S
C532 C534 1.419 . S
C533 C528 1.425 . S
C533 C530 1.409 . S
C533 C531 1.415 . S
C534 H524 0.930 . S
C534 C532 1.419 . S
C534 C535 1.362 . S
C535 H525 0.930 . S
C535 C528 1.409 . S
C535 C534 1.362 . S
H536 C542 0.930 . S
H537 C545 0.930 . S
H538 C546 0.930 . S
H539 C547 0.930 . S
H540 C550 0.930 . S
H541 C551 0.930 . S
C542 H536 0.930 . S
C542 C543 1.355 . S
C542 C544 1.415 . S
C543 C542 1.355 . S
C543 C545 1.419 . S
C544 C542 1.415 . S
C544 C549 1.425 . S
C544 C551 1.409 . S
C545 H537 0.930 . S
C545 C543 1.419 . S
C545 C546 1.362 . S
C546 H538 0.930 . S
C546 C545 1.362 . S
C546 C549 1.409 . S
C547 H539 0.930 . S
C547 C548 1.355 . S
C547 C549 1.415 . S
C548 C547 1.355 . S
C548 C550 1.419 . S
C549 C544 1.425 . S
C549 C546 1.409 . S
C549 C547 1.415 . S
C550 H540 0.930 . S
C550 C548 1.419 . S
C550 C551 1.362 . S
C551 H541 0.930 . S
C551 C544 1.409 . S
C551 C550 1.362 . S
H552 C558 0.930 . S
H553 C561 0.930 . S
H554 C562 0.930 . S
H555 C563 0.930 . S
H556 C566 0.930 . S
H557 C567 0.930 . S
C558 H552 0.930 . S
C558 C559 1.355 . S
C558 C560 1.415 . S
C559 C558 1.355 . S
C559 C561 1.419 . S
C560 C558 1.415 . S
C560 C565 1.425 . S
C560 C567 1.409 . S
C561 H553 0.930 . S
C561 C559 1.419 . S
C561 C562 1.362 . S
C562 H554 0.930 . S
C562 C561 1.362 . S
C562 C565 1.409 . S
C563 H555 0.930 . S
C563 C564 1.355 . S
C563 C565 1.415 . S
C564 C563 1.355 . S
C564 C566 1.419 . S
C565 C560 1.425 . S
C565 C562 1.409 . S
C565 C563 1.415 . S
C566 H556 0.930 . S
C566 C564 1.419 . S
C566 C567 1.362 . S
C567 H557 0.930 . S
C567 C560 1.409 . S
C567 C566 1.362 . S
H568 C574 0.930 . S
H569 C577 0.930 . S
H570 C578 0.930 1_545 S
H571 C579 0.930 1_545 S
H572 C582 0.930 . S
H573 C583 0.930 . S
C574 H568 0.930 . S
C574 C575 1.355 . S
C574 C576 1.415 1_556 S
C575 C574 1.355 . S
C575 C577 1.419 . S
C576 C574 1.415 1_554 S
C576 C581 1.425 . S
C576 C583 1.409 . S
C577 H569 0.930 . S
C577 C575 1.419 . S
C577 C578 1.362 . S
C578 H570 0.930 1_565 S
C578 C577 1.362 . S
C578 C581 1.409 1_556 S
C579 H571 0.930 1_565 S
C579 C580 1.355 . S
C579 C581 1.415 . S
C580 C579 1.355 . S
C580 C582 1.419 . S
C581 C576 1.425 . S
C581 C578 1.409 1_554 S
C581 C579 1.415 . S
C582 H572 0.930 . S
C582 C580 1.419 . S
C582 C583 1.362 . S
C583 H573 0.930 . S
C583 C576 1.409 . S
C583 C582 1.362 . S
H584 C590 0.930 . S
H585 C593 0.930 . S
H586 C594 0.930 . S
H587 C595 0.930 . S
H588 C598 0.930 . S
H589 C599 0.930 . S
C590 H584 0.930 . S
C590 C591 1.355 . S
C590 C592 1.415 . S
C591 C590 1.355 . S
C591 C593 1.419 . S
C592 C590 1.415 . S
C592 C597 1.425 . S
C592 C599 1.409 . S
C593 H585 0.930 . S
C593 C591 1.419 . S
C593 C594 1.362 . S
C594 H586 0.930 . S
C594 C593 1.362 . S
C594 C597 1.409 . S
C595 H587 0.930 . S
C595 C596 1.355 . S
C595 C597 1.415 . S
C596 C595 1.355 . S
C596 C598 1.419 . S
C597 C592 1.425 . S
C597 C594 1.409 . S
C597 C595 1.415 . S
C598 H588 0.930 . S
C598 C596 1.419 . S
C598 C599 1.362 . S
C599 H589 0.930 . S
C599 C592 1.409 . S
C599 C598 1.362 . S
H600 C606 0.930 . S
H601 C609 0.930 . S
H602 C610 0.930 . S
H603 C611 0.930 . S
H604 C614 0.930 . S
H605 C615 0.930 . S
C606 H600 0.930 . S
C606 C607 1.355 . S
C606 C608 1.415 . S
C607 C606 1.355 . S
C607 C609 1.419 . S
C608 C606 1.415 . S
C608 C613 1.425 . S
C608 C615 1.409 . S
C609 H601 0.930 . S
C609 C607 1.419 . S
C609 C610 1.362 . S
C610 H602 0.930 . S
C610 C609 1.362 . S
C610 C613 1.409 . S
C611 H603 0.930 . S
C611 C612 1.355 . S
C611 C613 1.415 . S
C612 C611 1.355 . S
C612 C614 1.419 . S
C613 C608 1.425 . S
C613 C610 1.409 . S
C613 C611 1.415 . S
C614 H604 0.930 . S
C614 C612 1.419 . S
C614 C615 1.362 . S
C615 H605 0.930 . S
C615 C608 1.409 . S
C615 C614 1.362 . S
H616 C622 0.930 . S
H617 C625 0.930 . S
H618 C626 0.930 . S
H619 C627 0.930 . S
H620 C630 0.930 . S
H621 C631 0.930 . S
C622 H616 0.930 . S
C622 C623 1.355 . S
C622 C624 1.415 . S
C623 C622 1.355 . S
C623 C625 1.419 . S
C624 C622 1.415 . S
C624 C629 1.425 . S
C624 C631 1.409 . S
C625 H617 0.930 . S
C625 C623 1.419 . S
C625 C626 1.362 . S
C626 H618 0.930 . S
C626 C625 1.362 . S
C626 C629 1.409 . S
C627 H619 0.930 . S
C627 C628 1.355 . S
C627 C629 1.415 . S
C628 C627 1.355 . S
C628 C630 1.419 . S
C629 C624 1.425 . S
C629 C626 1.409 . S
C629 C627 1.415 . S
C630 H620 0.930 . S
C630 C628 1.419 . S
C630 C631 1.362 . S
C631 H621 0.930 . S
C631 C624 1.409 . S
C631 C630 1.362 . S
H632 C638 0.930 . S
H633 C641 0.930 . S
H634 C642 0.930 1_554 S
H635 C643 0.930 1_554 S
H636 C646 0.930 . S
H637 C647 0.930 1_455 S
C638 H632 0.930 . S
C638 C639 1.355 . S
C638 C640 1.415 . S
C639 C638 1.355 . S
C639 C641 1.419 . S
C640 C638 1.415 . S
C640 C645 1.425 . S
C640 C647 1.409 . S
C641 H633 0.930 . S
C641 C639 1.419 . S
C641 C642 1.362 . S
C642 H634 0.930 1_556 S
C642 C641 1.362 . S
C642 C645 1.409 . S
C643 H635 0.930 1_556 S
C643 C644 1.355 . S
C643 C645 1.415 . S
C644 C643 1.355 . S
C644 C646 1.419 1_655 S
C645 C640 1.425 . S
C645 C642 1.409 . S
C645 C643 1.415 . S
C646 H636 0.930 . S
C646 C644 1.419 1_455 S
C646 C647 1.362 1_455 S
C647 H637 0.930 1_655 S
C647 C640 1.409 . S
C647 C646 1.362 1_655 S
H648 C654 0.930 . S
H649 C657 0.930 . S
H650 C658 0.930 . S
H651 C659 0.930 . S
H652 C662 0.930 . S
H653 C663 0.930 . S
C654 H648 0.930 . S
C654 C655 1.355 . S
C654 C656 1.415 . S
C655 C654 1.355 . S
C655 C657 1.419 . S
C656 C654 1.415 . S
C656 C661 1.425 . S
C656 C663 1.409 . S
C657 H649 0.930 . S
C657 C655 1.419 . S
C657 C658 1.362 . S
C658 H650 0.930 . S
C658 C657 1.362 . S
C658 C661 1.409 . S
C659 H651 0.930 . S
C659 C660 1.355 . S
C659 C661 1.415 . S
C660 C659 1.355 . S
C660 C662 1.419 . S
C661 C656 1.425 . S
C661 C658 1.409 . S
C661 C659 1.415 . S
C662 H652 0.930 . S
C662 C660 1.419 . S
C662 C663 1.362 . S
C663 H653 0.930 . S
C663 C656 1.409 . S
C663 C662 1.362 . S
H664 C670 0.930 . S
H665 C673 0.930 . S
H666 C674 0.930 . S
H667 C675 0.930 . S
H668 C678 0.930 . S
H669 C679 0.930 . S
C670 H664 0.930 . S
C670 C671 1.355 . S
C670 C672 1.415 . S
C671 C670 1.355 . S
C671 C673 1.419 . S
C672 C670 1.415 . S
C672 C677 1.425 . S
C672 C679 1.409 . S
C673 H665 0.930 . S
C673 C671 1.419 . S
C673 C674 1.362 . S
C674 H666 0.930 . S
C674 C673 1.362 . S
C674 C677 1.409 . S
C675 H667 0.930 . S
C675 C676 1.355 . S
C675 C677 1.415 . S
C676 C675 1.355 . S
C676 C678 1.419 . S
C677 C672 1.425 . S
C677 C674 1.409 . S
C677 C675 1.415 . S
C678 H668 0.930 . S
C678 C676 1.419 . S
C678 C679 1.362 . S
C679 H669 0.930 . S
C679 C672 1.409 . S
C679 C678 1.362 . S
H680 C686 0.930 . S
H681 C689 0.930 . S
H682 C690 0.930 . S
H683 C691 0.930 . S
H684 C694 0.930 . S
H685 C695 0.930 . S
C686 H680 0.930 . S
C686 C687 1.355 . S
C686 C688 1.415 . S
C687 C686 1.355 . S
C687 C689 1.419 . S
C688 C686 1.415 . S
C688 C693 1.425 . S
C688 C695 1.409 . S
C689 H681 0.930 . S
C689 C687 1.419 . S
C689 C690 1.362 . S
C690 H682 0.930 . S
C690 C689 1.362 . S
C690 C693 1.409 . S
C691 H683 0.930 . S
C691 C692 1.355 . S
C691 C693 1.415 . S
C692 C691 1.355 . S
C692 C694 1.419 . S
C693 C688 1.425 . S
C693 C690 1.409 . S
C693 C691 1.415 . S
C694 H684 0.930 . S
C694 C692 1.419 . S
C694 C695 1.362 . S
C695 H685 0.930 . S
C695 C688 1.409 . S
C695 C694 1.362 . S
C319 C6 3.175 . S
C324 C171 3.132 . S
C335 C21 2.583 . S
C340 C202 2.645 1_556 S
C356 C241 0.787 . S
C351 C49 0.854 . S
C367 C68 0.653 . S
C372 C278 0.512 . S
C388 C201 3.526 . S
C383 C2 3.563 . S
C404 C158 1.137 . S
C399 C30 1.093 . S
C420 C290 1.154 . S
C415 C40 1.132 . S
C436 C247 1.027 . S
C431 C63 1.024 . S
C447 C11 2.205 . S
C452 C291 2.504 . S
C468 C207 1.535 . S
C463 C44 1.529 . S
C479 C59 0.696 . S
C484 C170 0.927 . S
C495 C25 2.550 . S
C500 C242 2.593 . S
C516 C162 3.166 . S
C511 C82 3.214 . S
C527 C101 2.238 . S
C532 C211 2.316 . S
C543 C125 1.250 . S
C548 C250 1.212 . S
C559 C144 0.511 . S
C564 C287 0.469 . S
C575 C87 2.480 . S
C580 C210 2.599 1_565 S
C596 C167 1.777 . S
C591 C97 1.742 . S
C612 C281 1.110 . S
C607 C120 1.252 . S
C628 C238 1.193 . S
C623 C135 1.211 . S
C639 C78 2.677 . S
C644 C282 2.668 1_656 S
C660 C198 1.352 . S
C655 C116 1.353 . S
C676 C161 0.648 . S
C671 C139 0.596 . S
C687 C106 2.031 . S
C692 C251 2.334 . S
