# Generated by pormake.
# Topology anh, (6,3)-cn, num edge types: 1
# Building blocks:
#     Node 0, Type 0, BuildingBlock: GEDQOX_clean_sbu_0, # of connection points: 6
#     Node 1, Type 0, BuildingBlock: GEDQOX_clean_sbu_0, # of connection points: 6
#     Node 2, Type 0, BuildingBlock: GEDQOX_clean_sbu_0, # of connection points: 6
#     Node 3, Type 1, BuildingBlock: ESEHIV_clean_linker_0, # of connection points: 3
#     Node 4, Type 1, BuildingBlock: ESEHIV_clean_linker_0, # of connection points: 3
#     Node 5, Type 1, BuildingBlock: ESEHIV_clean_linker_0, # of connection points: 3
#     Node 6, Type 1, BuildingBlock: ESEHIV_clean_linker_0, # of connection points: 3
#     Node 7, Type 1, BuildingBlock: ESEHIV_clean_linker_0, # of connection points: 3
#     Node 8, Type 1, BuildingBlock: ESEHIV_clean_linker_0, # of connection points: 3
#     Edge 9, Type (0, 1), BuildingBlock: ZUJKAS_clean_linker_0, # of connection points: 2
#     Edge 10, Type (0, 1), BuildingBlock: ZUJKAS_clean_linker_0, # of connection points: 2
#     Edge 11, Type (0, 1), BuildingBlock: ZUJKAS_clean_linker_0, # of connection points: 2
#     Edge 12, Type (0, 1), BuildingBlock: ZUJKAS_clean_linker_0, # of connection points: 2
#     Edge 13, Type (0, 1), BuildingBlock: ZUJKAS_clean_linker_0, # of connection points: 2
#     Edge 14, Type (0, 1), BuildingBlock: ZUJKAS_clean_linker_0, # of connection points: 2
#     Edge 15, Type (0, 1), BuildingBlock: ZUJKAS_clean_linker_0, # of connection points: 2
#     Edge 16, Type (0, 1), BuildingBlock: ZUJKAS_clean_linker_0, # of connection points: 2
#     Edge 17, Type (0, 1), BuildingBlock: ZUJKAS_clean_linker_0, # of connection points: 2
#     Edge 18, Type (0, 1), BuildingBlock: ZUJKAS_clean_linker_0, # of connection points: 2
#     Edge 19, Type (0, 1), BuildingBlock: ZUJKAS_clean_linker_0, # of connection points: 2
#     Edge 20, Type (0, 1), BuildingBlock: ZUJKAS_clean_linker_0, # of connection points: 2
#     Edge 21, Type (0, 1), BuildingBlock: ZUJKAS_clean_linker_0, # of connection points: 2
#     Edge 22, Type (0, 1), BuildingBlock: ZUJKAS_clean_linker_0, # of connection points: 2
#     Edge 23, Type (0, 1), BuildingBlock: ZUJKAS_clean_linker_0, # of connection points: 2
#     Edge 24, Type (0, 1), BuildingBlock: ZUJKAS_clean_linker_0, # of connection points: 2
#     Edge 25, Type (0, 1), BuildingBlock: ZUJKAS_clean_linker_0, # of connection points: 2
#     Edge 26, Type (0, 1), BuildingBlock: ZUJKAS_clean_linker_0, # of connection points: 2
# Relax obj value: 0.178
# Max RMSD: 0.209
# Mean RMSD: 0.156
data_MOF--net-anh--node1-GEDQOX_clean_sbu_0--node2-ESEHIV_clean_linker_0--edge1-ZUJKAS_clean_linker_0
_symmetry_space_group_name_H-M    P1
_symmetry_Int_Tables_number       1
_symmetry_cell_setting            triclinic
loop_
_symmetry_equiv_pos_as_xyz
'x, y, z'
_cell_length_a     38.690764
_cell_length_b     36.326214
_cell_length_c     67.742532
_cell_angle_alpha  93.355826
_cell_angle_beta   90.265064
_cell_angle_gamma 107.83935
loop_
_atom_site_label
_atom_site_type_symbol
_atom_site_fract_x
_atom_site_fract_y
_atom_site_fract_z
_atom_type_partial_charge
Nd0 Nd 0.06788 0.55186 0.14107 0.0
Nd1 Nd 0.03997 0.46067 0.14426 0.0
C2 C 0.09906 0.6219 0.12902 0.0
C3 C 0.13136 0.65396 0.13625 0.0
C4 C 0.15428 0.67732 0.12282 0.0
C5 C 0.186 0.70633 0.12954 0.0
C6 C 0.19541 0.7126 0.14985 0.0
C7 C 0.17222 0.68913 0.16323 0.0
C8 C 0.14069 0.6601 0.15651 0.0
C9 C 0.0661 0.53492 0.18048 0.0
C10 C 0.13023 0.5021 0.14346 0.0
C11 C 1.00649 0.3885 0.15318 0.0
C12 C 0.97049 0.36367 0.15951 0.0
C13 C 0.96162 0.36147 0.17962 0.0
C14 C 0.9285 0.33619 0.18546 0.0
C15 C 0.90344 0.31229 0.17135 0.0
C16 C 0.91225 0.31485 0.15124 0.0
C17 C 0.94533 0.34004 0.14542 0.0
C18 C 0.0594 0.48719 0.10776 0.0
C19 C 0.97692 0.50923 0.14047 0.0
O20 O 0.10566 0.59092 0.12121 0.0
O21 O 0.07088 0.61369 0.14055 0.0
O22 O 0.07632 0.56985 0.17464 0.0
O23 O 0.05773 0.51156 0.16557 0.0
O24 O 0.12231 0.53397 0.13871 0.0
O25 O 0.10338 0.47096 0.14845 0.0
O26 O 1.02646 0.41511 0.16598 0.0
O27 O 1.00846 0.40005 0.13514 0.0
O28 O 0.0662 0.45695 0.1141 0.0
O29 O 0.04175 0.50092 0.12017 0.0
O30 O 0.98443 0.47669 0.14445 0.0
O31 O 1.00426 0.54134 0.13729 0.0
H32 H 0.1478 0.67289 0.10711 0.0
H33 H 0.20305 0.724 0.11883 0.0
H34 H 0.17885 0.6926 0.17891 0.0
H35 H 0.12385 0.64213 0.16717 0.0
H36 H 0.98049 0.37885 0.19092 0.0
H37 H 0.92295 0.3347 0.20109 0.0
H38 H 0.89353 0.29738 0.13991 0.0
H39 H 0.95134 0.34068 0.12982 0.0
Nd40 Nd 0.5024 0.99604 0.52244 0.0
Nd41 Nd 0.5812 0.02104 0.51272 0.0
C42 C 0.43563 0.96217 0.53429 0.0
C43 C 0.4048 0.92828 0.5271 0.0
C44 C 0.3929 0.89587 0.53851 0.0
C45 C 0.3645 0.86324 0.53163 0.0
C46 C 0.34717 0.86244 0.51324 0.0
C47 C 0.35885 0.89508 0.50193 0.0
C48 C 0.38734 0.92757 0.50875 0.0
C49 C 0.5156 1.00072 0.48257 0.0
C50 C 0.54567 0.93025 0.51816 0.0
C51 C 0.64487 0.0521 0.49647 0.0
C52 C 0.67169 0.09019 0.49348 0.0
C53 C 0.68277 0.0996 0.47423 0.0
C54 C 0.70933 0.13456 0.47094 0.0
C55 C 0.7256 0.16085 0.48688 0.0
C56 C 0.7142 0.1516 0.50616 0.0
C57 C 0.68742 0.11667 0.50944 0.0
C58 C 0.56888 0.01376 0.55239 0.0
C59 C 0.54023 0.08777 0.52228 0.0
O60 O 0.46419 0.95486 0.54135 0.0
O61 O 0.44422 0.99221 0.5235 0.0
O62 O 0.49009 0.01119 0.49118 0.0
O63 O 0.53202 0.98663 0.49467 0.0
O64 O 0.51899 0.94074 0.52645 0.0
O65 O 0.57142 0.95526 0.50872 0.0
O66 O 0.61388 0.0437 0.48671 0.0
O67 O 0.64133 0.0401 0.5144 0.0
O68 O 0.59497 1.00479 0.54334 0.0
O69 O 0.55175 0.02857 0.54093 0.0
O70 O 0.56605 0.07834 0.51237 0.0
O71 O 0.51478 0.06098 0.53095 0.0
H72 H 0.40575 0.89569 0.55274 0.0
H73 H 0.35593 0.83873 0.54079 0.0
H74 H 0.34644 0.89525 0.48759 0.0
H75 H 0.39584 0.95194 0.4995 0.0
H76 H 0.6712 0.07958 0.4617 0.0
H77 H 0.71779 0.14053 0.45594 0.0
H78 H 0.72594 0.17142 0.51872 0.0
H79 H 0.67931 0.11029 0.52446 0.0
Nd80 Nd 0.4858 0.48707 0.83636 0.0
Nd81 Nd 0.56876 0.51514 0.85128 0.0
C82 C 0.42385 0.48409 0.81917 0.0
C83 C 0.41271 0.51607 0.81165 0.0
C84 C 0.39417 0.51172 0.79338 0.0
C85 C 0.38491 0.54294 0.78616 0.0
C86 C 0.39458 0.57902 0.797 0.0
C87 C 0.41375 0.58326 0.81507 0.0
C88 C 0.42262 0.55221 0.82231 0.0
C89 C 0.49908 0.48615 0.87623 0.0
C90 C 0.53187 0.58152 0.84249 0.0
C91 C 0.62697 0.52546 0.87358 0.0
C92 C 0.65849 0.51193 0.8704 0.0
C93 C 0.68828 0.5241 0.88358 0.0
C94 C 0.71971 0.5142 0.87933 0.0
C95 C 0.72168 0.4922 0.86179 0.0
C96 C 0.69113 0.47881 0.84903 0.0
C97 C 0.6597 0.48854 0.85334 0.0
C98 C 0.56486 0.50844 0.81042 0.0
C99 C 0.52578 0.42137 0.83847 0.0
O100 O 0.44984 0.47543 0.80955 0.0
O101 O 0.42826 0.48509 0.83841 0.0
O102 O 0.47311 0.45973 0.86651 0.0
O103 O 0.51563 0.51212 0.86508 0.0
O104 O 0.50487 0.55351 0.83365 0.0
O105 O 0.55786 0.57406 0.85279 0.0
O106 O 0.59635 0.49817 0.87622 0.0
O107 O 0.62378 0.55095 0.86132 0.0
O108 O 0.59548 0.51996 0.82036 0.0
O109 O 0.53941 0.50137 0.82242 0.0
O110 O 0.5524 0.44771 0.84872 0.0
O111 O 0.49843 0.43008 0.83019 0.0
H112 H 0.38668 0.48419 0.78482 0.0
H113 H 0.36981 0.53879 0.77227 0.0
H114 H 0.42076 0.61027 0.82408 0.0
H115 H 0.43709 0.55657 0.8364 0.0
H116 H 0.68768 0.54225 0.89676 0.0
H117 H 0.74306 0.5254 0.88928 0.0
H118 H 0.69191 0.46169 0.83549 0.0
H119 H 0.6367 0.47883 0.84306 0.0
H120 H 0.49693 0.96682 0.2666 0.0
H121 H 0.60022 0.05537 0.27075 0.0
H122 H 0.54726 0.01695 0.21381 0.0
C123 C 0.51925 0.987 0.25947 0.0
C124 C 0.51834 0.98882 0.23878 0.0
C125 C 0.54847 0.01108 0.27112 0.0
C126 C 0.57728 0.0373 0.26184 0.0
C127 C 0.57736 0.03959 0.24116 0.0
C128 C 0.54783 0.01493 0.2297 0.0
H129 H 0.55155 0.57714 0.59734 0.0
H130 H 0.54069 0.45603 0.59456 0.0
H131 H 0.54813 0.51479 0.54065 0.0
C132 C 0.54966 0.55067 0.58857 0.0
C133 C 0.55047 0.55078 0.56773 0.0
C134 C 0.54674 0.51687 0.59834 0.0
C135 C 0.54337 0.48232 0.58707 0.0
C136 C 0.54349 0.48098 0.56632 0.0
C137 C 0.54746 0.51549 0.55664 0.0
H138 H 0.06776 0.5858 0.913 0.0
H139 H 0.18268 0.64415 0.91088 0.0
H140 H 0.11628 0.62309 0.85791 0.0
C141 C 0.09163 0.59936 0.90467 0.0
C142 C 0.088 0.60186 0.88423 0.0
C143 C 0.12568 0.61361 0.91448 0.0
C144 C 0.15606 0.63353 0.90373 0.0
C145 C 0.15253 0.63739 0.88334 0.0
C146 C 0.11857 0.62129 0.87375 0.0
H147 H 0.9991 0.44965 0.3919 0.0
H148 H 0.09288 0.55077 0.39362 0.0
H149 H 0.04306 0.50792 0.44781 0.0
C150 C 1.01882 0.47318 0.40027 0.0
C151 C 1.01723 0.47591 0.42102 0.0
C152 C 0.04602 0.4999 0.3902 0.0
C153 C 0.07238 0.52935 0.40125 0.0
C154 C 0.07176 0.53237 0.42204 0.0
C155 C 0.04394 0.50559 0.43181 0.0
H156 H 0.53309 0.05506 0.7672 0.0
H157 H 0.53363 0.93705 0.76483 0.0
H158 H 0.5273 0.99663 0.82117 0.0
C159 C 0.5326 0.02938 0.77475 0.0
C160 C 0.53011 0.02995 0.79541 0.0
C161 C 0.53385 0.99608 0.76367 0.0
C162 C 0.53225 0.96265 0.77345 0.0
C163 C 0.52994 0.96218 0.79421 0.0
C164 C 0.52946 0.99644 0.80522 0.0
H165 H 0.49476 0.49837 0.09019 0.0
H166 H 0.60675 0.50375 0.0898 0.0
H167 H 0.55248 0.50319 0.14572 0.0
C168 C 0.51908 0.4994 0.09853 0.0
C169 C 0.51792 0.50015 0.1193 0.0
C170 C 0.55049 0.5005 0.08801 0.0
C171 C 0.5829 0.50325 0.09827 0.0
C172 C 0.58527 0.50423 0.11905 0.0
C173 C 0.55196 0.50268 0.12974 0.0
H174 H 0.19105 0.55376 0.12686 0.0
H175 H 0.25431 0.55307 0.12507 0.0
H176 H 0.22656 0.44856 0.15621 0.0
H177 H 0.16309 0.44892 0.15781 0.0
H178 H 0.28982 0.50475 0.10795 0.0
H179 H 0.31695 0.50861 0.18829 0.0
H180 H 0.27842 0.46898 0.17951 0.0
H181 H 0.27721 0.51792 0.17844 0.0
C182 C 0.19806 0.53049 0.13348 0.0
C183 C 0.17052 0.50152 0.14263 0.0
C184 C 0.23496 0.53007 0.13238 0.0
C185 C 0.24713 0.50113 0.14073 0.0
C186 C 0.2196 0.47208 0.14987 0.0
H187 H 0.49395 0.55049 0.14619 0.0
H188 H 0.43095 0.55123 0.15203 0.0
C189 C 0.1825 0.47214 0.15069 0.0
C190 C 0.28772 0.50111 0.1395 0.0
H191 H 0.36254 0.49816 0.16729 0.0
C192 C 0.30533 0.50327 0.12108 0.0
C193 C 0.30987 0.4997 0.15628 0.0
C194 C 0.29492 0.49904 0.17679 0.0
C195 C 0.3423 0.50305 0.11899 0.0
C196 C 0.36421 0.50085 0.13569 0.0
C197 C 0.34696 0.49964 0.15419 0.0
C198 C 0.40412 0.49895 0.13395 0.0
C199 C 0.35791 0.50578 0.09859 0.0
C200 C 0.41209 0.46879 0.12254 0.0
C201 C 0.44834 0.46783 0.11963 0.0
C202 C 0.47956 0.49701 0.12781 0.0
C203 C 0.47167 0.52663 0.1399 0.0
C204 C 0.435 0.52732 0.14305 0.0
H205 H 0.34194 0.5171 0.08817 0.0
H206 H 0.38652 0.52484 0.09902 0.0
H207 H 0.35748 0.47648 0.09272 0.0
H208 H 0.39 0.44581 0.11542 0.0
H209 H 0.45208 0.44453 0.11001 0.0
H210 H 0.78978 0.19266 0.50769 0.0
H211 H 0.83968 0.25043 0.50057 0.0
H212 H 0.77849 0.2681 0.4506 0.0
H213 H 0.7283 0.2109 0.45781 0.0
H214 H 0.87828 0.26119 0.46491 0.0
H215 H 0.81313 0.37595 0.48003 0.0
H216 H 0.79541 0.32807 0.48902 0.0
H217 H 0.78689 0.33626 0.4638 0.0
C218 C 0.78668 0.20926 0.49541 0.0
C219 C 0.75504 0.19719 0.48333 0.0
C220 C 0.81529 0.24213 0.4913 0.0
C221 C 0.81263 0.26382 0.4752 0.0
C222 C 0.78089 0.25218 0.46329 0.0
H223 H 0.94534 0.44797 0.41009 0.0
H224 H 0.89748 0.39765 0.42505 0.0
C225 C 0.75238 0.21924 0.46732 0.0
C226 C 0.84381 0.29719 0.47005 0.0
H227 H 0.86828 0.39374 0.46222 0.0
C228 C 0.87632 0.2903 0.46455 0.0
C229 C 0.84111 0.33509 0.46958 0.0
C230 C 0.80738 0.34449 0.47609 0.0
C231 C 0.90571 0.31995 0.45778 0.0
C232 C 0.90275 0.35772 0.4569 0.0
C233 C 0.87053 0.3648 0.4629 0.0
C234 C 0.93187 0.38966 0.44865 0.0
C235 C 0.93901 0.31012 0.4508 0.0
C236 C 0.96703 0.40257 0.45717 0.0
C237 C 0.99467 0.43114 0.44849 0.0
C238 C 0.98758 0.44748 0.43118 0.0
C239 C 0.95196 0.43545 0.42316 0.0
C240 C 0.92446 0.40689 0.4318 0.0
H241 H 0.93364 0.27837 0.44815 0.0
H242 H 0.94897 0.32426 0.43694 0.0
H243 H 0.96093 0.32077 0.46228 0.0
H244 H 0.9732 0.39025 0.47041 0.0
H245 H 1.02177 0.43966 0.45504 0.0
H246 H 0.57251 0.6481 0.86381 0.0
H247 H 0.5721 0.7149 0.86005 0.0
H248 H 0.49361 0.67449 0.81206 0.0
H249 H 0.49386 0.60824 0.81568 0.0
H250 H 0.58865 0.76051 0.82749 0.0
H251 H 0.4451 0.73809 0.8471 0.0
H252 H 0.46929 0.70466 0.85306 0.0
H253 H 0.45081 0.70328 0.82856 0.0
C254 C 0.55504 0.65343 0.85252 0.0
C255 C 0.53265 0.62249 0.84033 0.0
C256 C 0.55479 0.69167 0.8504 0.0
C257 C 0.53207 0.69978 0.8361 0.0
C258 C 0.51043 0.66902 0.82365 0.0
H259 H 0.488 0.88875 0.78254 0.0
H260 H 0.48964 0.82763 0.79503 0.0
C261 C 0.51065 0.63098 0.82575 0.0
C262 C 0.53165 0.74032 0.83358 0.0
H263 H 0.47464 0.79581 0.83107 0.0
C264 C 0.56385 0.76842 0.82856 0.0
C265 C 0.4993 0.7508 0.83499 0.0
C266 C 0.46422 0.72279 0.84141 0.0
C267 C 0.56422 0.80594 0.82398 0.0
C268 C 0.53161 0.81604 0.82478 0.0
C269 C 0.49966 0.78825 0.83041 0.0
C270 C 0.52943 0.85404 0.81834 0.0
C271 C 0.59921 0.83383 0.81739 0.0
C272 C 0.55042 0.88968 0.8276 0.0
C273 C 0.54958 0.925 0.8204 0.0
C274 C 0.52777 0.92538 0.80377 0.0
C275 C 0.5056 0.88963 0.79516 0.0
C276 C 0.50638 0.85454 0.80236 0.0
H277 H 0.61971 0.81901 0.81349 0.0
H278 H 0.5943 0.84892 0.80437 0.0
H279 H 0.61084 0.85604 0.82957 0.0
H280 H 0.56784 0.89021 0.84023 0.0
H281 H 0.56697 0.95191 0.82739 0.0
H282 H 0.91191 0.44966 0.14656 0.0
H283 H 0.84837 0.44943 0.14459 0.0
H284 H 0.88414 0.56893 0.13047 0.0
H285 H 0.94754 0.56898 0.13208 0.0
H286 H 0.80366 0.4807 0.16274 0.0
H287 H 0.80857 0.53665 0.08864 0.0
H288 H 0.84561 0.52268 0.09861 0.0
H289 H 0.84103 0.56968 0.1054 0.0
C290 C 0.90662 0.47607 0.14289 0.0
C291 C 0.93641 0.50927 0.13936 0.0
C292 C 0.86949 0.47595 0.1418 0.0
C293 C 0.85942 0.50886 0.13687 0.0
C294 C 0.8893 0.54223 0.13365 0.0
H295 H 0.64961 0.56494 0.11848 0.0
H296 H 0.71256 0.56536 0.12346 0.0
C297 C 0.92643 0.5424 0.13478 0.0
C298 C 0.81854 0.50832 0.13548 0.0
H299 H 0.75585 0.53406 0.10688 0.0
C300 C 0.79357 0.49232 0.15035 0.0
C301 C 0.80332 0.52314 0.11956 0.0
C302 C 0.82585 0.53864 0.10205 0.0
C303 C 0.75609 0.49174 0.15011 0.0
C304 C 0.74091 0.50669 0.13422 0.0
C305 C 0.76588 0.52252 0.11931 0.0
C306 C 0.70018 0.5068 0.13273 0.0
C307 C 0.73354 0.47619 0.1676 0.0
C308 C 0.66962 0.47422 0.13632 0.0
C309 C 0.63267 0.4743 0.13379 0.0
C310 C 0.62371 0.50699 0.12756 0.0
C311 C 0.65422 0.53948 0.12409 0.0
C312 C 0.69101 0.53946 0.12665 0.0
H313 H 0.75082 0.47806 0.181 0.0
H314 H 0.71384 0.49221 0.17107 0.0
H315 H 0.71832 0.44518 0.16421 0.0
H316 H 0.67406 0.4476 0.14028 0.0
H317 H 0.61098 0.44774 0.13572 0.0
H318 H 0.34376 0.78609 0.51451 0.0
H319 H 0.29625 0.72907 0.50042 0.0
H320 H 0.23589 0.80268 0.48076 0.0
H321 H 0.28326 0.85979 0.49475 0.0
H322 H 0.22249 0.70001 0.50743 0.0
H323 H 0.24568 0.74134 0.42991 0.0
H324 H 0.27704 0.76485 0.44993 0.0
H325 H 0.23631 0.77779 0.44615 0.0
C326 C 0.3202 0.79012 0.50736 0.0
C327 C 0.31747 0.82755 0.50561 0.0
C328 C 0.29313 0.75751 0.49925 0.0
C329 C 0.26283 0.76164 0.48922 0.0
C330 C 0.25946 0.79884 0.488 0.0
H331 H 0.0625 0.57927 0.45354 0.0
H332 H 0.10873 0.63364 0.47072 0.0
C333 C 0.28656 0.83146 0.49602 0.0
C334 C 0.23501 0.72712 0.47982 0.0
H335 H 0.19414 0.68769 0.4354 0.0
C336 C 0.21631 0.69724 0.49168 0.0
C337 C 0.22733 0.72328 0.45921 0.0
C338 C 0.24786 0.75331 0.4455 0.0
C339 C 0.18978 0.66391 0.48353 0.0
C340 C 0.18134 0.66066 0.46302 0.0
C341 C 0.20038 0.69033 0.45115 0.0
C342 C 0.15338 0.62648 0.4534 0.0
C343 C 0.17158 0.63216 0.49689 0.0
C344 C 0.16294 0.60462 0.43779 0.0
C345 C 0.13658 0.5737 0.4279 0.0
C346 C 0.09998 0.564 0.43335 0.0
C347 C 0.09051 0.58562 0.44917 0.0
C348 C 0.11693 0.61669 0.45902 0.0
H349 H 0.18767 0.6343 0.51078 0.0
H350 H 0.1446 0.63464 0.50095 0.0
H351 H 0.16745 0.60312 0.48933 0.0
H352 H 0.19087 0.61162 0.43318 0.0
H353 H 0.14486 0.55739 0.41594 0.0
H354 H 0.47552 0.35826 0.81975 0.0
H355 H 0.47716 0.29152 0.8159 0.0
H356 H 0.57975 0.32454 0.84785 0.0
H357 H 0.57816 0.39139 0.85203 0.0
H358 H 0.52737 0.26367 0.79706 0.0
H359 H 0.52287 0.22948 0.87598 0.0
H360 H 0.51247 0.27138 0.86777 0.0
H361 H 0.55889 0.27191 0.87029 0.0
C362 C 0.49839 0.35143 0.8261 0.0
C363 C 0.52663 0.38046 0.83629 0.0
C364 C 0.49927 0.31311 0.82387 0.0
C365 C 0.52827 0.30262 0.83184 0.0
C366 C 0.55661 0.33151 0.84195 0.0
H367 H 0.57953 0.08204 0.82071 0.0
H368 H 0.57968 0.14833 0.83103 0.0
C369 C 0.55576 0.36991 0.84421 0.0
C370 C 0.52939 0.26186 0.82872 0.0
H371 H 0.53189 0.18212 0.85267 0.0
C372 C 0.52826 0.24588 0.80925 0.0
C373 C 0.5309 0.23855 0.84459 0.0
C374 C 0.53105 0.25348 0.86585 0.0
C375 C 0.52862 0.20757 0.80519 0.0
C376 C 0.52936 0.18396 0.82103 0.0
C377 C 0.53117 0.20006 0.84053 0.0
C378 C 0.52735 0.14233 0.81741 0.0
C379 C 0.52872 0.19288 0.78389 0.0
C380 C 0.49723 0.1163 0.80718 0.0
C381 C 0.49714 0.07866 0.80136 0.0
C382 C 0.5269 0.06589 0.80589 0.0
C383 C 0.55603 0.09096 0.81729 0.0
C384 C 0.55621 0.12889 0.82305 0.0
H385 H 0.53833 0.21706 0.77395 0.0
H386 H 0.54626 0.17383 0.78206 0.0
H387 H 0.50064 0.17578 0.77908 0.0
H388 H 0.47432 0.1256 0.803 0.0
H389 H 0.47447 0.06001 0.79247 0.0
H390 H 0.58483 0.89045 0.4967 0.0
H391 H 0.58584 0.82395 0.50034 0.0
H392 H 0.51185 0.81327 0.54863 0.0
H393 H 0.50945 0.8786 0.54446 0.0
H394 H 0.608 0.79035 0.52786 0.0
H395 H 0.4613 0.71503 0.51863 0.0
H396 H 0.4808 0.76526 0.51357 0.0
H397 H 0.46924 0.75164 0.53846 0.0
C398 C 0.56849 0.87375 0.50796 0.0
C399 C 0.54674 0.88986 0.52012 0.0
C400 C 0.5691 0.83564 0.51005 0.0
C401 C 0.54819 0.81278 0.52446 0.0
C402 C 0.52717 0.82933 0.53689 0.0
H403 H 0.59245 0.62429 0.5802 0.0
H404 H 0.59221 0.68553 0.56776 0.0
C405 C 0.52608 0.86706 0.53459 0.0
C406 C 0.5495 0.77244 0.52715 0.0
H407 H 0.49619 0.68019 0.53478 0.0
C408 C 0.58346 0.76623 0.52911 0.0
C409 C 0.5177 0.74027 0.5283 0.0
C410 C 0.48027 0.74331 0.52439 0.0
C411 C 0.58648 0.72962 0.53304 0.0
C412 C 0.55468 0.6983 0.53588 0.0
C413 C 0.52072 0.70405 0.533 0.0
C414 C 0.55594 0.66013 0.54278 0.0
C415 C 0.62392 0.72504 0.53386 0.0
C416 C 0.53489 0.62467 0.53333 0.0
C417 C 0.53406 0.58909 0.54087 0.0
C418 C 0.55416 0.58805 0.55811 0.0
C419 C 0.57602 0.62361 0.56712 0.0
C420 C 0.57647 0.65897 0.55976 0.0
H421 H 0.64272 0.74524 0.52415 0.0
H422 H 0.63514 0.73223 0.5492 0.0
H423 H 0.62338 0.69501 0.52929 0.0
H424 H 0.51859 0.6245 0.52027 0.0
H425 H 0.51665 0.56251 0.53358 0.0
H426 H 0.76964 0.47064 0.88462 0.0
H427 H 0.83302 0.47736 0.87712 0.0
H428 H 0.81655 0.50998 0.81848 0.0
H429 H 0.75321 0.50363 0.82587 0.0
H430 H 0.87396 0.45177 0.83948 0.0
H431 H 0.88568 0.60785 0.85515 0.0
H432 H 0.8479 0.5701 0.86403 0.0
H433 H 0.85099 0.57815 0.83816 0.0
C434 C 0.7793 0.47822 0.86996 0.0
C435 C 0.75677 0.48717 0.85593 0.0
C436 C 0.8153 0.48166 0.86564 0.0
C437 C 0.8292 0.49424 0.8473 0.0
C438 C 0.80603 0.49996 0.83266 0.0
H439 H 0.05782 0.62748 0.85306 0.0
H440 H 0.9983 0.59726 0.83723 0.0
C441 C 0.76993 0.49634 0.83693 0.0
C442 C 0.8688 0.50872 0.84523 0.0
H443 H 0.9392 0.59125 0.85452 0.0
C444 C 0.88845 0.48233 0.84233 0.0
C445 C 0.88732 0.54864 0.84868 0.0
C446 C 0.86712 0.57805 0.85173 0.0
C447 C 0.92653 0.49481 0.8438 0.0
C448 C 0.94495 0.53436 0.84904 0.0
C449 C 0.92519 0.56094 0.85057 0.0
C450 C 0.98357 0.54831 0.85565 0.0
C451 C 0.94643 0.46538 0.8401 0.0
C452 C 0.99543 0.53054 0.87103 0.0
C453 C 1.02973 0.54727 0.8798 0.0
C454 C 0.05259 0.58279 0.8738 0.0
C455 C 0.0411 0.6 0.858 0.0
C456 C 1.007 0.5828 0.84895 0.0
H457 H 0.93195 0.4428 0.82858 0.0
H458 H 0.97466 0.47902 0.83534 0.0
H459 H 0.94729 0.45057 0.85389 0.0
H460 H 0.97758 0.5046 0.87693 0.0
H461 H 1.03799 0.53265 0.89159 0.0
H462 H 0.26314 0.73162 0.13354 0.0
H463 H 0.31936 0.77928 0.14665 0.0
H464 H 0.26096 0.81008 0.1957 0.0
H465 H 0.20481 0.76268 0.18273 0.0
H466 H 0.33851 0.85911 0.15521 0.0
H467 H 0.34297 0.78348 0.22342 0.0
H468 H 0.31321 0.7609 0.20261 0.0
H469 H 0.30103 0.79398 0.21998 0.0
C470 C 0.26218 0.74878 0.14702 0.0
C471 C 0.22942 0.74296 0.15717 0.0
C472 C 0.29441 0.77592 0.15455 0.0
C473 C 0.29461 0.79774 0.17239 0.0
C474 C 0.26175 0.79289 0.1822 0.0
H475 H 0.44655 0.97288 0.24768 0.0
H476 H 0.39404 0.92726 0.23023 0.0
C477 C 0.22961 0.76574 0.17474 0.0
C478 C 0.32907 0.82545 0.18088 0.0
H479 H 0.38352 0.84758 0.22253 0.0
C480 C 0.34855 0.85644 0.16986 0.0
C481 C 0.34235 0.82185 0.19996 0.0
C482 C 0.32404 0.78805 0.21212 0.0
C483 C 0.3801 0.88465 0.1777 0.0
C484 C 0.39277 0.88155 0.19698 0.0
C485 C 0.3737 0.85012 0.20781 0.0
C486 C 0.42496 0.91112 0.2066 0.0
C487 C 0.39898 0.91824 0.16557 0.0
C488 C 0.45998 0.91757 0.19907 0.0
C489 C 0.49029 0.94364 0.20913 0.0
C490 C 0.48617 0.96352 0.227 0.0
C491 C 0.45089 0.9576 0.23417 0.0
C492 C 0.42075 0.93163 0.22415 0.0
H493 H 0.3817 0.92083 0.15291 0.0
H494 H 0.4067 0.94588 0.17485 0.0
H495 H 0.4242 0.91392 0.1596 0.0
H496 H 0.46402 0.90164 0.18572 0.0
H497 H 0.51705 0.9472 0.20328 0.0
H498 H 0.49148 0.11812 0.54121 0.0
H499 H 0.49224 0.18576 0.54447 0.0
H500 H 0.59022 0.21913 0.51097 0.0
H501 H 0.58993 0.1515 0.50782 0.0
H502 H 0.59408 0.26757 0.54434 0.0
H503 H 0.46558 0.24953 0.50302 0.0
H504 H 0.4603 0.2175 0.52274 0.0
H505 H 0.4881 0.21268 0.50213 0.0
C506 C 0.51316 0.13973 0.53444 0.0
C507 C 0.54055 0.12909 0.52417 0.0
C508 C 0.5134 0.17851 0.5362 0.0
C509 C 0.54091 0.20769 0.52766 0.0
C510 C 0.56852 0.19724 0.51758 0.0
H511 H 0.58848 0.46333 0.53838 0.0
H512 H 0.58868 0.39818 0.52617 0.0
C513 C 0.56828 0.15844 0.51578 0.0
C514 C 0.54146 0.24915 0.52984 0.0
H515 H 0.49032 0.30929 0.52222 0.0
C516 C 0.57159 0.27678 0.53928 0.0
C517 C 0.51219 0.26139 0.52321 0.0
C518 C 0.47986 0.23382 0.51203 0.0
C519 C 0.57255 0.31569 0.54304 0.0
C520 C 0.54287 0.32773 0.53684 0.0
C521 C 0.51314 0.30028 0.52696 0.0
C522 C 0.54084 0.36769 0.54192 0.0
C523 C 0.60468 0.34316 0.55443 0.0
C524 C 0.51283 0.37253 0.55389 0.0
C525 C 0.51248 0.40957 0.56064 0.0
C526 C 0.54002 0.44289 0.55552 0.0
C527 C 0.5668 0.43828 0.54249 0.0
C528 C 0.5672 0.40101 0.53575 0.0
H529 H 0.62129 0.32757 0.56178 0.0
H530 H 0.62233 0.36285 0.5441 0.0
H531 H 0.59565 0.36116 0.56586 0.0
H532 H 0.49199 0.3475 0.55876 0.0
H533 H 0.49138 0.41214 0.57059 0.0
H534 H 0.32593 0.57263 0.78475 0.0
H535 H 0.29725 0.62292 0.78948 0.0
H536 H 0.40167 0.70771 0.80266 0.0
H537 H 0.43072 0.65689 0.7977 0.0
H538 H 0.36178 0.69551 0.83426 0.0
H539 H 0.27411 0.7184 0.77586 0.0
H540 H 0.26909 0.66769 0.77465 0.0
H541 H 0.31289 0.702 0.7703 0.0
C542 C 0.34311 0.60229 0.78747 0.0
C543 C 0.38039 0.61067 0.79152 0.0
C544 C 0.32664 0.63135 0.79008 0.0
C545 C 0.34723 0.6692 0.79669 0.0
C546 C 0.38522 0.67872 0.79767 0.0
H547 H 0.20404 0.70863 0.88951 0.0
H548 H 0.25572 0.73745 0.86828 0.0
C549 C 0.40174 0.6496 0.795 0.0
C550 C 0.32857 0.69306 0.80826 0.0
H551 H 0.24404 0.70312 0.80896 0.0
C552 C 0.33677 0.69909 0.82866 0.0
C553 C 0.29651 0.69888 0.80102 0.0
C554 C 0.28799 0.69678 0.77919 0.0
C555 C 0.31062 0.70302 0.84219 0.0
C556 C 0.27595 0.70177 0.83494 0.0
C557 C 0.27037 0.70305 0.8145 0.0
C558 C 0.24356 0.68776 0.8472 0.0
C559 C 0.3186 0.70306 0.86402 0.0
C560 C 0.21965 0.65062 0.84229 0.0
C561 C 0.19048 0.63441 0.85421 0.0
C562 C 0.18453 0.65494 0.87137 0.0
C563 C 0.20837 0.69219 0.87641 0.0
C564 C 0.23767 0.70868 0.86429 0.0
H565 H 0.3468 0.70294 0.8671 0.0
H566 H 0.31481 0.72923 0.8718 0.0
H567 H 0.29949 0.67721 0.8703 0.0
H568 H 0.22404 0.63368 0.82938 0.0
H569 H 0.17273 0.60549 0.85012 0.0
H570 H 0.86983 0.2381 0.15599 0.0
H571 H 0.81275 0.19251 0.16591 0.0
H572 H 0.80179 0.27624 0.21127 0.0
H573 H 0.85816 0.32261 0.20096 0.0
H574 H 0.79479 0.16036 0.20139 0.0
H575 H 0.70274 0.24522 0.18382 0.0
H576 H 0.74872 0.25721 0.17522 0.0
H577 H 0.73996 0.27136 0.20013 0.0
C578 C 0.85503 0.24716 0.16787 0.0
C579 C 0.86862 0.28431 0.17754 0.0
C580 C 0.82247 0.22087 0.17362 0.0
C581 C 0.80254 0.23107 0.18913 0.0
C582 C 0.81618 0.26792 0.19898 0.0
H583 H 0.61194 0.11502 0.25375 0.0
H584 H 0.66582 0.16007 0.24015 0.0
C585 C 0.84874 0.29427 0.19322 0.0
C586 C 0.76816 0.2027 0.19536 0.0
H587 H 0.67786 0.18996 0.20247 0.0
C588 C 0.76917 0.16672 0.20146 0.0
C589 C 0.73464 0.2109 0.19545 0.0
C590 C 0.73124 0.2481 0.18813 0.0
C591 C 0.73792 0.13926 0.20816 0.0
C592 C 0.70454 0.14769 0.20849 0.0
C593 C 0.70343 0.18349 0.20221 0.0
C594 C 0.67082 0.12038 0.21606 0.0
C595 C 0.74117 0.10194 0.21541 0.0
C596 C 0.6551 0.08326 0.2068 0.0
C597 C 0.62422 0.05728 0.2146 0.0
C598 C 0.60848 0.06793 0.23183 0.0
C599 C 0.6237 0.10559 0.24067 0.0
C600 C 0.65441 0.1315 0.23284 0.0
H601 H 0.7699 0.10359 0.21834 0.0
H602 H 0.72575 0.09447 0.22917 0.0
H603 H 0.72963 0.07808 0.20398 0.0
H604 H 0.66689 0.07424 0.19363 0.0
H605 H 0.61329 0.02853 0.20745 0.0
H606 H 0.12231 0.48635 0.09038 0.0
H607 H 0.14806 0.51762 0.06044 0.0
H608 H 0.05592 0.55999 0.05445 0.0
H609 H 1.03177 0.53123 0.08518 0.0
H610 H 0.12664 0.50336 0.02559 0.0
H611 H 0.13121 0.65472 0.04191 0.0
H612 H 0.12243 0.62037 0.06086 0.0
H613 H 0.0858 0.62452 0.0454 0.0
C614 C 0.10791 0.50282 0.08274 0.0
C615 C 0.07507 0.50639 0.08992 0.0
C616 C 0.12264 0.52077 0.06567 0.0
C617 C 0.10439 0.54191 0.05525 0.0
C618 C 0.07139 0.54525 0.06251 0.0
H619 H 0.09021 0.54715 0.93203 0.0
H620 H 0.09168 0.53366 0.96649 0.0
C621 C 0.05726 0.52831 0.07992 0.0
C622 C 0.11782 0.5571 0.03584 0.0
H623 H 0.12517 0.63277 0.00682 0.0
C624 C 0.12706 0.53204 0.02171 0.0
C625 C 0.11967 0.59492 0.03071 0.0
C626 C 0.11467 0.62523 0.04566 0.0
C627 C 0.13552 0.54265 0.00234 0.0
C628 C 0.13284 0.57854 0.99658 0.0
C629 C 0.12631 0.6048 0.01103 0.0
C630 C 0.13304 0.58752 0.97544 0.0
C631 C 0.14685 0.51492 0.98826 0.0
C632 C 0.15466 0.62318 0.96895 0.0
C633 C 0.15278 0.63181 0.94913 0.0
C634 C 0.12919 0.6049 0.93549 0.0
C635 C 0.10811 0.56907 0.9421 0.0
C636 C 0.10951 0.56084 0.96183 0.0
H637 H 0.16208 0.49873 0.99626 0.0
H638 H 0.12227 0.49329 0.98142 0.0
H639 H 0.16413 0.53016 0.97637 0.0
H640 H 0.17278 0.64443 0.97923 0.0
H641 H 0.1692 0.65978 0.94461 0.0
H642 H 0.48125 0.02987 0.45525 0.0
H643 H 0.48977 0.03003 0.41952 0.0
H644 H 0.5716 0.97286 0.42533 0.0
H645 H 0.56357 0.97322 0.4613 0.0
H646 H 0.59161 0.03295 0.40019 0.0
H647 H 0.45307 0.93635 0.38049 0.0
H648 H 0.45308 0.97804 0.39606 0.0
H649 H 0.47181 0.94262 0.40535 0.0
C650 C 0.50102 0.01726 0.44892 0.0
C651 C 0.52151 1.0012 0.46102 0.0
C652 C 0.50573 0.01719 0.42848 0.0
C653 C 0.53078 1.00073 0.41968 0.0
C654 C 0.5519 0.98543 0.43179 0.0
H655 H 0.53033 0.94627 0.29241 0.0
H656 H 0.52852 0.94306 0.3284 0.0
C657 C 0.54726 0.98559 0.4523 0.0
C658 C 0.53496 0.99985 0.39786 0.0
H659 H 0.48749 0.96943 0.35419 0.0
C660 C 0.56893 0.01884 0.39012 0.0
C661 C 0.5055 0.98092 0.38471 0.0
C662 C 0.4689 0.95799 0.39205 0.0
C663 C 0.57396 0.02036 0.36959 0.0
C664 C 0.54404 1.00301 0.35647 0.0
C665 C 0.51035 0.9831 0.36423 0.0
C666 C 0.54686 1.00522 0.33464 0.0
C667 C 0.61138 0.04016 0.36219 0.0
C668 C 0.55759 0.04121 0.32611 0.0
C669 C 0.55868 0.04312 0.30554 0.0
C670 C 0.54862 0.00905 0.29303 0.0
C671 C 0.5379 0.97305 0.30161 0.0
C672 C 0.537 0.97117 0.32218 0.0
H673 H 0.63281 0.04146 0.37342 0.0
H674 H 0.61684 0.02502 0.3484 0.0
H675 H 0.61339 0.07033 0.35897 0.0
H676 H 0.56439 0.0679 0.33536 0.0
H677 H 0.5665 0.0713 0.2994 0.0
H678 H 0.50272 0.4853 0.78744 0.0
H679 H 0.49729 0.48737 0.75149 0.0
H680 H 0.61387 0.53254 0.74833 0.0
H681 H 0.61923 0.53113 0.78429 0.0
H682 H 0.57701 0.57303 0.72665 0.0
H683 H 0.52212 0.41413 0.70932 0.0
H684 H 0.49721 0.43349 0.72727 0.0
H685 H 0.54297 0.43476 0.73299 0.0
C686 C 0.52707 0.49564 0.77908 0.0
C687 C 0.56129 0.50809 0.78866 0.0
C688 C 0.52402 0.49659 0.75852 0.0
C689 C 0.55522 0.50977 0.7472 0.0
C690 C 0.58944 0.52222 0.75677 0.0
H691 H 0.58363 0.48191 0.62168 0.0
H692 H 0.58442 0.48133 0.65772 0.0
C693 C 0.59246 0.52127 0.7773 0.0
C694 C 0.55236 0.51114 0.72541 0.0
H695 H 0.52543 0.45433 0.6827 0.0
C696 C 0.56566 0.54711 0.71702 0.0
C697 C 0.53784 0.47723 0.71289 0.0
C698 C 0.52448 0.43763 0.72099 0.0
C699 C 0.56483 0.5501 0.69645 0.0
C700 C 0.5499 0.51624 0.68395 0.0
C701 C 0.5366 0.48028 0.69233 0.0
C702 C 0.54929 0.51721 0.66207 0.0
C703 C 0.5808 0.58929 0.68822 0.0
C704 C 0.5291 0.53745 0.65252 0.0
C705 C 0.52844 0.5377 0.63185 0.0
C706 C 0.54779 0.51748 0.62035 0.0
C707 C 0.56799 0.49731 0.63004 0.0
C708 C 0.56861 0.49707 0.65065 0.0
H709 H 0.59825 0.61072 0.69934 0.0
H710 H 0.59718 0.58718 0.67502 0.0
H711 H 0.55847 0.60036 0.68361 0.0
H712 H 0.51348 0.55264 0.66103 0.0
H713 H 0.51222 0.55307 0.62486 0.0
H714 H 0.51201 0.02385 0.57353 0.0
H715 H 0.50322 0.01934 0.60926 0.0
H716 H 0.60511 0.99523 0.61539 0.0
H717 H 0.61323 0.99822 0.57972 0.0
H718 H 0.55514 0.94833 0.63625 0.0
H719 H 0.55153 0.09841 0.65263 0.0
H720 H 0.51731 0.07125 0.63489 0.0
H721 H 0.56455 0.08237 0.62892 0.0
C722 C 0.53253 0.01773 0.58256 0.0
C723 C 0.56342 0.01166 0.57391 0.0
C724 C 0.52762 0.0154 0.60299 0.0
C725 C 0.55386 0.0077 0.61513 0.0
C726 C 0.58454 1.00135 0.60639 0.0
H727 H 0.58076 0.05026 0.74224 0.0
H728 H 0.58479 0.0515 0.70623 0.0
C729 C 0.58921 1.00315 0.58599 0.0
C730 C 0.54934 1.00548 0.63688 0.0
H731 H 0.53755 0.05643 0.67897 0.0
C732 C 0.55134 0.972 0.64559 0.0
C733 C 0.54486 0.03657 0.64914 0.0
C734 C 0.5448 0.07433 0.64097 0.0
C735 C 0.54914 0.96876 0.66615 0.0
C736 C 0.54358 0.99937 0.67834 0.0
C737 C 0.54148 0.03281 0.66963 0.0
C738 C 0.54114 0.99796 0.70022 0.0
C739 C 0.55402 0.93308 0.67459 0.0
C740 C 0.51515 0.96758 0.7089 0.0
C741 C 0.51316 0.96657 0.7295 0.0
C742 C 0.53661 0.99636 0.74181 0.0
C743 C 0.56224 0.027 0.73311 0.0
C744 C 0.56455 0.02773 0.71254 0.0
H745 H 0.56851 0.91832 0.66426 0.0
H746 H 0.56946 0.94036 0.68889 0.0
H747 H 0.52696 0.91226 0.67716 0.0
H748 H 0.4961 0.94485 0.69975 0.0
H749 H 0.49276 0.94294 0.73581 0.0
H750 H 0.5527 0.53961 0.89826 0.0
H751 H 0.56567 0.54115 0.9338 0.0
H752 H 0.47617 0.43656 0.9383 0.0
H753 H 0.46373 0.43436 0.9027 0.0
H754 H 0.52373 0.54753 0.96471 0.0
H755 H 0.55556 0.40925 0.96701 0.0
H756 H 0.55248 0.4313 0.94415 0.0
H757 H 0.51197 0.40318 0.95574 0.0
C758 C 0.53602 0.51673 0.90681 0.0
C759 C 0.50732 0.48671 0.89767 0.0
C760 C 0.54342 0.51768 0.92713 0.0
C761 C 0.52232 0.48863 0.93876 0.0
C762 C 0.49347 0.45877 0.92963 0.0
H763 H 0.49866 0.45069 0.06333 0.0
H764 H 0.49409 0.44892 0.02722 0.0
C765 C 0.48619 0.45769 0.90928 0.0
C766 C 0.52949 0.49049 0.96052 0.0
H767 H 0.5455 0.43844 -0.00189 0.0
C768 C 0.52887 0.52382 0.97197 0.0
C769 C 0.53628 0.45962 0.97006 0.0
C770 C 0.5395 0.42399 0.95859 0.0
C771 C 0.53371 0.52662 0.99267 0.0
C772 C 0.5397 0.49542 0.00221 0.0
C773 C 0.54081 0.46231 0.99078 0.0
C774 C 0.54354 0.49607 0.02412 0.0
C775 C 0.53127 0.56246 0.00425 0.0
C776 C 0.57322 0.52275 0.03441 0.0
C777 C 0.57594 0.52382 0.0551 0.0
C778 C 0.54892 0.49831 0.06592 0.0
C779 C 0.51965 0.47111 0.05549 0.0
C780 C 0.51709 0.46991 0.03484 0.0
H781 H 0.5196 0.58046 0.99519 0.0
H782 H 0.51439 0.55455 0.01749 0.0
H783 H 0.5589 0.58033 0.00943 0.0
H784 H 0.59421 0.54287 0.02642 0.0
H785 H 0.59875 0.54516 0.06268 0.0
H786 H 1.03373 0.46472 0.19615 0.0
H787 H 1.02708 0.45182 0.23141 0.0
H788 H 0.08626 0.57146 0.2471 0.0
H789 H 0.09258 0.58444 0.21215 0.0
H790 H 0.07929 0.46213 0.26241 0.0
H791 H 0.9912 0.55515 0.27659 0.0
H792 H 1.00051 0.53956 0.25194 0.0
H793 H 1.03292 0.57999 0.26517 0.0
C794 C 0.04552 0.48806 0.20715 0.0
C795 C 0.06352 0.52556 0.20144 0.0
C796 C 0.04165 0.48073 0.22725 0.0
C797 C 0.0556 0.51088 0.24186 0.0
C798 C 0.07457 0.54799 0.2361 0.0
H799 H 0.10501 0.51244 0.36615 0.0
H800 H 0.10544 0.5114 0.33005 0.0
C801 C 0.07831 0.5553 0.21611 0.0
C802 C 0.05028 0.50416 0.26318 0.0
H803 H 1.01761 0.5373 0.30503 0.0
C804 C 0.06547 0.47821 0.27173 0.0
C805 C 1.03171 0.52467 0.27525 0.0
C806 C 1.01282 0.55111 0.26675 0.0
C807 C 0.06386 0.47343 0.2922 0.0
C808 C 0.0472 0.49576 0.30443 0.0
C809 C 1.03077 0.52052 0.29572 0.0
C810 C 0.04695 0.4946 0.32633 0.0
C811 C 0.07988 0.44442 0.30047 0.0
C812 C 1.01402 0.48652 0.33633 0.0
C813 C 1.01373 0.48792 0.35699 0.0
C814 C 0.0464 0.49746 0.36815 0.0
C815 C 0.07936 0.50531 0.35807 0.0
C816 C 0.07962 0.50413 0.33739 0.0
H817 H 0.08097 0.42169 0.28899 0.0
H818 H 0.10808 0.45956 0.30585 0.0
H819 H 0.06397 0.43021 0.31305 0.0
H820 H 0.98849 0.4795 0.32813 0.0
H821 H 0.98788 0.48235 0.36421 0.0
loop_
_geom_bond_atom_site_label_1
_geom_bond_atom_site_label_2
_geom_bond_distance
_geom_bond_site_symmetry_2
_ccdc_geom_bond_type
Nd0 C2 2.836 . S
Nd0 O20 2.500 . S
Nd0 O21 2.492 . S
Nd0 O22 2.487 . S
Nd0 O23 2.682 . S
Nd0 O24 2.410 . S
Nd0 O29 2.414 . S
Nd0 O31 2.424 1_455 S
Nd1 C11 2.862 . S
Nd1 O23 2.417 1_655 S
Nd1 O25 2.390 1_655 S
Nd1 O26 2.524 . S
Nd1 O27 2.514 . S
Nd1 O28 2.488 1_655 S
Nd1 O29 2.677 1_655 S
Nd1 O30 2.441 . S
C2 Nd0 2.836 . S
C2 C3 1.498 . S
C2 O20 1.258 . S
C2 O21 1.239 . S
C3 C2 1.498 . S
C3 C4 1.366 . S
C3 C8 1.407 . S
C4 C3 1.366 . S
C4 C5 1.392 . S
C4 H32 0.930 . S
C5 C4 1.392 . S
C5 C6 1.398 . S
C5 H33 0.929 . S
C6 C5 1.398 . S
C6 C7 1.352 . S
C7 C6 1.352 . S
C7 C8 1.384 . S
C7 H34 0.930 . S
C8 C3 1.407 . S
C8 C7 1.384 . S
C8 H35 0.929 . S
C9 O22 1.241 . S
C9 O23 1.273 . S
C10 O24 1.251 . S
C10 O25 1.268 . S
C11 Nd1 2.862 . S
C11 C12 1.498 . S
C11 O26 1.258 . S
C11 O27 1.239 . S
C12 C11 1.498 . S
C12 C13 1.366 . S
C12 C17 1.407 . S
C13 C12 1.366 . S
C13 C14 1.392 . S
C13 H36 0.930 . S
C14 C13 1.392 . S
C14 C15 1.398 . S
C14 H37 0.929 . S
C15 C14 1.398 . S
C15 C16 1.352 . S
C16 C15 1.352 . S
C16 C17 1.384 . S
C16 H38 0.930 . S
C17 C12 1.407 . S
C17 C16 1.384 . S
C17 H39 0.929 . S
C18 O28 1.241 . S
C18 O29 1.273 . S
C19 O30 1.251 . S
C19 O31 1.268 . S
O20 Nd0 2.500 . S
O20 C2 1.258 . S
O21 Nd0 2.492 . S
O21 C2 1.239 . S
O22 Nd0 2.487 . S
O22 C9 1.241 . S
O23 Nd0 2.682 . S
O23 Nd1 2.417 1_455 S
O23 C9 1.273 . S
O24 Nd0 2.410 . S
O24 C10 1.251 . S
O25 Nd1 2.390 1_455 S
O25 C10 1.268 . S
O26 Nd1 2.524 . S
O26 C11 1.258 . S
O27 Nd1 2.514 . S
O27 C11 1.239 . S
O28 Nd1 2.488 1_455 S
O28 C18 1.241 . S
O29 Nd0 2.414 . S
O29 Nd1 2.677 1_455 S
O29 C18 1.273 . S
O30 Nd1 2.441 . S
O30 C19 1.251 . S
O31 Nd0 2.424 1_655 S
O31 C19 1.268 . S
H32 C4 0.930 . S
H33 C5 0.929 . S
H34 C7 0.930 . S
H35 C8 0.929 . S
H36 C13 0.930 . S
H37 C14 0.929 . S
H38 C16 0.930 . S
H39 C17 0.929 . S
Nd40 C42 2.815 1_545 S
Nd40 O60 2.479 1_545 S
Nd40 O61 2.474 1_545 S
Nd40 O62 2.487 . S
Nd40 O63 2.684 . S
Nd40 O64 2.381 1_545 S
Nd40 O69 2.410 . S
Nd40 O71 2.454 . S
Nd41 C51 2.836 . S
Nd41 O63 2.414 . S
Nd41 O65 2.424 1_545 S
Nd41 O66 2.500 . S
Nd41 O67 2.492 . S
Nd41 O68 2.487 . S
Nd41 O69 2.682 . S
Nd41 O70 2.410 . S
C42 Nd40 2.815 1_565 S
C42 C43 1.498 . S
C42 O60 1.258 . S
C42 O61 1.239 . S
C43 C42 1.498 . S
C43 C44 1.366 . S
C43 C48 1.407 . S
C44 C43 1.366 . S
C44 C45 1.392 . S
C44 H72 0.930 . S
C45 C44 1.392 . S
C45 C46 1.398 . S
C45 H73 0.929 . S
C46 C45 1.398 . S
C46 C47 1.352 . S
C47 C46 1.352 . S
C47 C48 1.384 . S
C47 H74 0.930 . S
C48 C43 1.407 . S
C48 C47 1.384 . S
C48 H75 0.929 . S
C49 O62 1.242 . S
C49 O63 1.273 . S
C50 O64 1.251 . S
C50 O65 1.268 . S
C51 Nd41 2.836 . S
C51 C52 1.498 . S
C51 O66 1.258 . S
C51 O67 1.239 . S
C52 C51 1.498 . S
C52 C53 1.366 . S
C52 C57 1.407 . S
C53 C52 1.366 . S
C53 C54 1.392 . S
C53 H76 0.930 . S
C54 C53 1.392 . S
C54 C55 1.398 . S
C54 H77 0.929 . S
C55 C54 1.398 . S
C55 C56 1.352 . S
C56 C55 1.352 . S
C56 C57 1.384 . S
C56 H78 0.930 . S
C57 C52 1.407 . S
C57 C56 1.384 . S
C57 H79 0.929 . S
C58 O68 1.241 . S
C58 O69 1.273 . S
C59 O70 1.251 . S
C59 O71 1.268 . S
O60 Nd40 2.479 1_565 S
O60 C42 1.258 . S
O61 Nd40 2.474 1_565 S
O61 C42 1.239 . S
O62 Nd40 2.487 . S
O62 C49 1.242 . S
O63 Nd40 2.684 . S
O63 Nd41 2.414 . S
O63 C49 1.273 . S
O64 Nd40 2.381 1_565 S
O64 C50 1.251 . S
O65 Nd41 2.424 1_565 S
O65 C50 1.268 . S
O66 Nd41 2.500 . S
O66 C51 1.258 . S
O67 Nd41 2.492 . S
O67 C51 1.239 . S
O68 Nd41 2.487 . S
O68 C58 1.241 . S
O69 Nd40 2.410 . S
O69 Nd41 2.682 . S
O69 C58 1.273 . S
O70 Nd41 2.410 . S
O70 C59 1.251 . S
O71 Nd40 2.454 . S
O71 C59 1.268 . S
H72 C44 0.930 . S
H73 C45 0.929 . S
H74 C47 0.930 . S
H75 C48 0.929 . S
H76 C53 0.930 . S
H77 C54 0.929 . S
H78 C56 0.930 . S
H79 C57 0.929 . S
Nd80 C82 2.836 . S
Nd80 O100 2.500 . S
Nd80 O101 2.492 . S
Nd80 O102 2.487 . S
Nd80 O103 2.682 . S
Nd80 O104 2.410 . S
Nd80 O109 2.414 . S
Nd80 O111 2.424 . S
Nd81 C91 2.836 . S
Nd81 O103 2.414 . S
Nd81 O105 2.424 . S
Nd81 O106 2.500 . S
Nd81 O107 2.492 . S
Nd81 O108 2.487 . S
Nd81 O109 2.682 . S
Nd81 O110 2.410 . S
C82 Nd80 2.836 . S
C82 C83 1.498 . S
C82 O100 1.258 . S
C82 O101 1.239 . S
C83 C82 1.498 . S
C83 C84 1.366 . S
C83 C88 1.407 . S
C84 C83 1.366 . S
C84 C85 1.392 . S
C84 H112 0.930 . S
C85 C84 1.392 . S
C85 C86 1.398 . S
C85 H113 0.929 . S
C86 C85 1.398 . S
C86 C87 1.352 . S
C87 C86 1.352 . S
C87 C88 1.384 . S
C87 H114 0.930 . S
C88 C83 1.407 . S
C88 C87 1.384 . S
C88 H115 0.929 . S
C89 O102 1.241 . S
C89 O103 1.273 . S
C90 O104 1.251 . S
C90 O105 1.268 . S
C91 Nd81 2.836 . S
C91 C92 1.498 . S
C91 O106 1.258 . S
C91 O107 1.239 . S
C92 C91 1.498 . S
C92 C93 1.366 . S
C92 C97 1.407 . S
C93 C92 1.366 . S
C93 C94 1.392 . S
C93 H116 0.930 . S
C94 C93 1.392 . S
C94 C95 1.398 . S
C94 H117 0.929 . S
C95 C94 1.398 . S
C95 C96 1.352 . S
C96 C95 1.352 . S
C96 C97 1.384 . S
C96 H118 0.930 . S
C97 C92 1.407 . S
C97 C96 1.384 . S
C97 H119 0.929 . S
C98 O108 1.241 . S
C98 O109 1.273 . S
C99 O110 1.251 . S
C99 O111 1.268 . S
O100 Nd80 2.500 . S
O100 C82 1.258 . S
O101 Nd80 2.492 . S
O101 C82 1.239 . S
O102 Nd80 2.487 . S
O102 C89 1.241 . S
O103 Nd80 2.682 . S
O103 Nd81 2.414 . S
O103 C89 1.273 . S
O104 Nd80 2.410 . S
O104 C90 1.251 . S
O105 Nd81 2.424 . S
O105 C90 1.268 . S
O106 Nd81 2.500 . S
O106 C91 1.258 . S
O107 Nd81 2.492 . S
O107 C91 1.239 . S
O108 Nd81 2.487 . S
O108 C98 1.241 . S
O109 Nd80 2.414 . S
O109 Nd81 2.682 . S
O109 C98 1.273 . S
O110 Nd81 2.410 . S
O110 C99 1.251 . S
O111 Nd80 2.424 . S
O111 C99 1.268 . S
H112 C84 0.930 . S
H113 C85 0.929 . S
H114 C87 0.930 . S
H115 C88 0.929 . S
H116 C93 0.930 . S
H117 C94 0.929 . S
H118 C96 0.930 . S
H119 C97 0.929 . S
H120 C123 0.922 1_565 S
H121 C126 0.928 . S
H122 C128 0.930 . S
C123 H120 0.922 1_545 S
C123 C124 1.413 1_545 S
C123 C125 1.369 . S
C124 C123 1.413 1_565 S
C124 C128 1.429 1_565 S
C125 C123 1.369 . S
C125 C126 1.372 . S
C126 H121 0.928 . S
C126 C125 1.372 . S
C126 C127 1.404 . S
C127 C126 1.404 . S
C127 C128 1.391 . S
C128 H122 0.930 . S
C128 C124 1.429 1_545 S
C128 C127 1.391 . S
H129 C132 0.931 . S
H130 C135 0.928 . S
H131 C137 0.930 . S
C132 H129 0.931 . S
C132 C133 1.413 . S
C132 C134 1.360 . S
C133 C132 1.413 . S
C133 C137 1.429 . S
C134 C132 1.360 . S
C134 C135 1.372 . S
C135 H130 0.928 . S
C135 C134 1.372 . S
C135 C136 1.404 . S
C136 C135 1.404 . S
C136 C137 1.391 . S
C137 H131 0.930 . S
C137 C133 1.429 . S
C137 C136 1.391 . S
H138 C141 0.931 1_655 S
H139 C144 0.928 . S
H140 C146 0.930 . S
C141 H138 0.931 1_455 S
C141 C142 1.413 . S
C141 C143 1.360 . S
C142 C141 1.413 . S
C142 C146 1.429 . S
C143 C141 1.360 . S
C143 C144 1.372 . S
C144 H139 0.928 . S
C144 C143 1.372 . S
C144 C145 1.404 . S
C145 C144 1.404 . S
C145 C146 1.391 . S
C146 H140 0.930 . S
C146 C142 1.429 . S
C146 C145 1.391 . S
H147 C150 0.931 . S
H148 C153 0.928 . S
H149 C155 0.930 . S
C150 H147 0.931 . S
C150 C151 1.413 . S
C150 C152 1.353 1_655 S
C151 C150 1.413 . S
C151 C155 1.416 1_655 S
C152 C150 1.353 1_455 S
C152 C153 1.378 . S
C153 H148 0.928 . S
C153 C152 1.378 . S
C153 C154 1.404 . S
C154 C153 1.404 . S
C154 C155 1.406 . S
C155 H149 0.930 . S
C155 C151 1.416 1_455 S
C155 C154 1.406 . S
H156 C159 0.931 . S
H157 C162 0.928 . S
H158 C164 0.930 . S
C159 H156 0.931 . S
C159 C160 1.413 . S
C159 C161 1.360 . S
C160 C159 1.413 . S
C160 C164 1.429 . S
C161 C159 1.360 . S
C161 C162 1.372 1_545 S
C162 H157 0.928 . S
C162 C161 1.372 1_565 S
C162 C163 1.404 . S
C163 C162 1.404 . S
C163 C164 1.391 1_565 S
C164 H158 0.930 . S
C164 C160 1.429 . S
C164 C163 1.391 1_545 S
H165 C168 0.931 . S
H166 C171 0.928 . S
H167 C173 0.930 . S
C168 H165 0.931 . S
C168 C169 1.413 . S
C168 C170 1.360 . S
C169 C168 1.413 . S
C169 C173 1.429 . S
C170 C168 1.360 . S
C170 C171 1.372 . S
C171 H166 0.928 . S
C171 C170 1.372 . S
C171 C172 1.404 . S
C172 C171 1.404 . S
C172 C173 1.391 . S
C173 H167 0.930 . S
C173 C169 1.429 . S
C173 C172 1.391 . S
H174 C182 0.929 . S
H175 C184 0.930 . S
H176 C186 0.930 . S
H177 C189 0.929 . S
H178 C192 0.930 . S
H179 C194 0.960 . S
H180 C194 0.960 . S
H181 C194 0.960 . S
C182 H174 0.929 . S
C182 C183 1.377 . S
C182 C184 1.384 . S
C183 C182 1.377 . S
C183 C189 1.390 . S
C184 H175 0.930 . S
C184 C182 1.384 . S
C184 C185 1.372 . S
C185 C184 1.372 . S
C185 C186 1.400 . S
C185 C190 1.490 . S
C186 H176 0.930 . S
C186 C185 1.400 . S
C186 C189 1.386 . S
H187 C203 0.930 . S
H188 C204 0.931 . S
C189 H177 0.929 . S
C189 C183 1.390 . S
C189 C186 1.386 . S
C190 C185 1.490 . S
C190 C192 1.395 . S
C190 C193 1.403 . S
H191 C197 0.930 . S
C192 H178 0.930 . S
C192 C190 1.395 . S
C192 C195 1.403 . S
C193 C190 1.403 . S
C193 C194 1.524 . S
C193 C197 1.400 . S
C194 H179 0.960 . S
C194 H180 0.960 . S
C194 H181 0.960 . S
C194 C193 1.524 . S
C195 C192 1.403 . S
C195 C196 1.392 . S
C195 C199 1.495 . S
C196 C195 1.392 . S
C196 C197 1.385 . S
C196 C198 1.478 . S
C197 H191 0.930 . S
C197 C193 1.400 . S
C197 C196 1.385 . S
C198 C196 1.478 . S
C198 C200 1.381 . S
C198 C204 1.383 . S
C199 C195 1.495 . S
C199 H205 0.959 . S
C199 H206 0.961 . S
C199 H207 0.960 . S
C200 C198 1.381 . S
C200 C201 1.394 . S
C200 H208 0.930 . S
C201 C200 1.394 . S
C201 C202 1.383 . S
C201 H209 0.929 . S
C202 C201 1.383 . S
C202 C203 1.377 . S
C203 H187 0.930 . S
C203 C202 1.377 . S
C203 C204 1.379 . S
C204 H188 0.931 . S
C204 C198 1.383 . S
C204 C203 1.379 . S
H205 C199 0.959 . S
H206 C199 0.961 . S
H207 C199 0.960 . S
H208 C200 0.930 . S
H209 C201 0.929 . S
H210 C218 0.929 . S
H211 C220 0.930 . S
H212 C222 0.930 . S
H213 C225 0.929 . S
H214 C228 0.930 . S
H215 C230 0.960 . S
H216 C230 0.960 . S
H217 C230 0.960 . S
C218 H210 0.929 . S
C218 C219 1.377 . S
C218 C220 1.384 . S
C219 C218 1.377 . S
C219 C225 1.390 . S
C220 H211 0.930 . S
C220 C218 1.384 . S
C220 C221 1.372 . S
C221 C220 1.372 . S
C221 C222 1.400 . S
C221 C226 1.490 . S
C222 H212 0.930 . S
C222 C221 1.400 . S
C222 C225 1.386 . S
H223 C239 0.930 . S
H224 C240 0.931 . S
C225 H213 0.929 . S
C225 C219 1.390 . S
C225 C222 1.386 . S
C226 C221 1.490 . S
C226 C228 1.395 . S
C226 C229 1.403 . S
H227 C233 0.930 . S
C228 H214 0.930 . S
C228 C226 1.395 . S
C228 C231 1.403 . S
C229 C226 1.403 . S
C229 C230 1.524 . S
C229 C233 1.400 . S
C230 H215 0.960 . S
C230 H216 0.960 . S
C230 H217 0.960 . S
C230 C229 1.524 . S
C231 C228 1.403 . S
C231 C232 1.392 . S
C231 C235 1.495 . S
C232 C231 1.392 . S
C232 C233 1.385 . S
C232 C234 1.478 . S
C233 H227 0.930 . S
C233 C229 1.400 . S
C233 C232 1.385 . S
C234 C232 1.478 . S
C234 C236 1.381 . S
C234 C240 1.383 . S
C235 C231 1.495 . S
C235 H241 0.959 . S
C235 H242 0.961 . S
C235 H243 0.960 . S
C236 C234 1.381 . S
C236 C237 1.394 . S
C236 H244 0.930 . S
C237 C236 1.394 . S
C237 C238 1.383 . S
C237 H245 0.929 . S
C238 C237 1.383 . S
C238 C239 1.377 . S
C239 H223 0.930 . S
C239 C238 1.377 . S
C239 C240 1.379 . S
C240 H224 0.931 . S
C240 C234 1.383 . S
C240 C239 1.379 . S
H241 C235 0.959 . S
H242 C235 0.961 . S
H243 C235 0.960 . S
H244 C236 0.930 . S
H245 C237 0.929 . S
H246 C254 0.929 . S
H247 C256 0.930 . S
H248 C258 0.930 . S
H249 C261 0.929 . S
H250 C264 0.930 . S
H251 C266 0.960 . S
H252 C266 0.960 . S
H253 C266 0.960 . S
C254 H246 0.929 . S
C254 C255 1.377 . S
C254 C256 1.384 . S
C255 C254 1.377 . S
C255 C261 1.390 . S
C256 H247 0.930 . S
C256 C254 1.384 . S
C256 C257 1.372 . S
C257 C256 1.372 . S
C257 C258 1.400 . S
C257 C262 1.490 . S
C258 H248 0.930 . S
C258 C257 1.400 . S
C258 C261 1.386 . S
H259 C275 0.930 . S
H260 C276 0.931 . S
C261 H249 0.929 . S
C261 C255 1.390 . S
C261 C258 1.386 . S
C262 C257 1.490 . S
C262 C264 1.395 . S
C262 C265 1.403 . S
H263 C269 0.930 . S
C264 H250 0.930 . S
C264 C262 1.395 . S
C264 C267 1.403 . S
C265 C262 1.403 . S
C265 C266 1.524 . S
C265 C269 1.400 . S
C266 H251 0.960 . S
C266 H252 0.960 . S
C266 H253 0.960 . S
C266 C265 1.524 . S
C267 C264 1.403 . S
C267 C268 1.392 . S
C267 C271 1.495 . S
C268 C267 1.392 . S
C268 C269 1.385 . S
C268 C270 1.478 . S
C269 H263 0.930 . S
C269 C265 1.400 . S
C269 C268 1.385 . S
C270 C268 1.478 . S
C270 C272 1.381 . S
C270 C276 1.383 . S
C271 C267 1.495 . S
C271 H277 0.959 . S
C271 H278 0.961 . S
C271 H279 0.960 . S
C272 C270 1.381 . S
C272 C273 1.394 . S
C272 H280 0.930 . S
C273 C272 1.394 . S
C273 C274 1.383 . S
C273 H281 0.929 . S
C274 C273 1.383 . S
C274 C275 1.377 . S
C275 H259 0.930 . S
C275 C274 1.377 . S
C275 C276 1.379 . S
C276 H260 0.931 . S
C276 C270 1.383 . S
C276 C275 1.379 . S
H277 C271 0.959 . S
H278 C271 0.961 . S
H279 C271 0.960 . S
H280 C272 0.930 . S
H281 C273 0.929 . S
H282 C290 0.929 . S
H283 C292 0.930 . S
H284 C294 0.930 . S
H285 C297 0.929 . S
H286 C300 0.930 . S
H287 C302 0.960 . S
H288 C302 0.960 . S
H289 C302 0.960 . S
C290 H282 0.929 . S
C290 C291 1.377 . S
C290 C292 1.384 . S
C291 C290 1.377 . S
C291 C297 1.390 . S
C292 H283 0.930 . S
C292 C290 1.384 . S
C292 C293 1.372 . S
C293 C292 1.372 . S
C293 C294 1.400 . S
C293 C298 1.490 . S
C294 H284 0.930 . S
C294 C293 1.400 . S
C294 C297 1.386 . S
H295 C311 0.930 . S
H296 C312 0.931 . S
C297 H285 0.929 . S
C297 C291 1.390 . S
C297 C294 1.386 . S
C298 C293 1.490 . S
C298 C300 1.395 . S
C298 C301 1.403 . S
H299 C305 0.930 . S
C300 H286 0.930 . S
C300 C298 1.395 . S
C300 C303 1.403 . S
C301 C298 1.403 . S
C301 C302 1.524 . S
C301 C305 1.400 . S
C302 H287 0.960 . S
C302 H288 0.960 . S
C302 H289 0.960 . S
C302 C301 1.524 . S
C303 C300 1.403 . S
C303 C304 1.392 . S
C303 C307 1.495 . S
C304 C303 1.392 . S
C304 C305 1.385 . S
C304 C306 1.478 . S
C305 H299 0.930 . S
C305 C301 1.400 . S
C305 C304 1.385 . S
C306 C304 1.478 . S
C306 C308 1.381 . S
C306 C312 1.383 . S
C307 C303 1.495 . S
C307 H313 0.959 . S
C307 H314 0.961 . S
C307 H315 0.960 . S
C308 C306 1.381 . S
C308 C309 1.394 . S
C308 H316 0.930 . S
C309 C308 1.394 . S
C309 C310 1.383 . S
C309 H317 0.929 . S
C310 C309 1.383 . S
C310 C311 1.377 . S
C311 H295 0.930 . S
C311 C310 1.377 . S
C311 C312 1.379 . S
C312 H296 0.931 . S
C312 C306 1.383 . S
C312 C311 1.379 . S
H313 C307 0.959 . S
H314 C307 0.961 . S
H315 C307 0.960 . S
H316 C308 0.930 . S
H317 C309 0.929 . S
H318 C326 0.929 . S
H319 C328 0.930 . S
H320 C330 0.930 . S
H321 C333 0.929 . S
H322 C336 0.930 . S
H323 C338 0.960 . S
H324 C338 0.960 . S
H325 C338 0.960 . S
C326 H318 0.929 . S
C326 C327 1.377 . S
C326 C328 1.384 . S
C327 C326 1.377 . S
C327 C333 1.390 . S
C328 H319 0.930 . S
C328 C326 1.384 . S
C328 C329 1.372 . S
C329 C328 1.372 . S
C329 C330 1.400 . S
C329 C334 1.490 . S
C330 H320 0.930 . S
C330 C329 1.400 . S
C330 C333 1.386 . S
H331 C347 0.930 . S
H332 C348 0.931 . S
C333 H321 0.929 . S
C333 C327 1.390 . S
C333 C330 1.386 . S
C334 C329 1.490 . S
C334 C336 1.395 . S
C334 C337 1.403 . S
H335 C341 0.930 . S
C336 H322 0.930 . S
C336 C334 1.395 . S
C336 C339 1.403 . S
C337 C334 1.403 . S
C337 C338 1.524 . S
C337 C341 1.400 . S
C338 H323 0.960 . S
C338 H324 0.960 . S
C338 H325 0.960 . S
C338 C337 1.524 . S
C339 C336 1.403 . S
C339 C340 1.392 . S
C339 C343 1.495 . S
C340 C339 1.392 . S
C340 C341 1.385 . S
C340 C342 1.478 . S
C341 H335 0.930 . S
C341 C337 1.400 . S
C341 C340 1.385 . S
C342 C340 1.478 . S
C342 C344 1.381 . S
C342 C348 1.383 . S
C343 C339 1.495 . S
C343 H349 0.959 . S
C343 H350 0.961 . S
C343 H351 0.960 . S
C344 C342 1.381 . S
C344 C345 1.394 . S
C344 H352 0.930 . S
C345 C344 1.394 . S
C345 C346 1.383 . S
C345 H353 0.929 . S
C346 C345 1.383 . S
C346 C347 1.377 . S
C347 H331 0.930 . S
C347 C346 1.377 . S
C347 C348 1.379 . S
C348 H332 0.931 . S
C348 C342 1.383 . S
C348 C347 1.379 . S
H349 C343 0.959 . S
H350 C343 0.961 . S
H351 C343 0.960 . S
H352 C344 0.930 . S
H353 C345 0.929 . S
H354 C362 0.929 . S
H355 C364 0.930 . S
H356 C366 0.930 . S
H357 C369 0.929 . S
H358 C372 0.930 . S
H359 C374 0.960 . S
H360 C374 0.960 . S
H361 C374 0.960 . S
C362 H354 0.929 . S
C362 C363 1.377 . S
C362 C364 1.384 . S
C363 C362 1.377 . S
C363 C369 1.390 . S
C364 H355 0.930 . S
C364 C362 1.384 . S
C364 C365 1.372 . S
C365 C364 1.372 . S
C365 C366 1.400 . S
C365 C370 1.490 . S
C366 H356 0.930 . S
C366 C365 1.400 . S
C366 C369 1.386 . S
H367 C383 0.930 . S
H368 C384 0.931 . S
C369 H357 0.929 . S
C369 C363 1.390 . S
C369 C366 1.386 . S
C370 C365 1.490 . S
C370 C372 1.395 . S
C370 C373 1.403 . S
H371 C377 0.930 . S
C372 H358 0.930 . S
C372 C370 1.395 . S
C372 C375 1.403 . S
C373 C370 1.403 . S
C373 C374 1.524 . S
C373 C377 1.400 . S
C374 H359 0.960 . S
C374 H360 0.960 . S
C374 H361 0.960 . S
C374 C373 1.524 . S
C375 C372 1.403 . S
C375 C376 1.392 . S
C375 C379 1.495 . S
C376 C375 1.392 . S
C376 C377 1.385 . S
C376 C378 1.478 . S
C377 H371 0.930 . S
C377 C373 1.400 . S
C377 C376 1.385 . S
C378 C376 1.478 . S
C378 C380 1.381 . S
C378 C384 1.383 . S
C379 C375 1.495 . S
C379 H385 0.959 . S
C379 H386 0.961 . S
C379 H387 0.960 . S
C380 C378 1.381 . S
C380 C381 1.394 . S
C380 H388 0.930 . S
C381 C380 1.394 . S
C381 C382 1.383 . S
C381 H389 0.929 . S
C382 C381 1.383 . S
C382 C383 1.377 . S
C383 H367 0.930 . S
C383 C382 1.377 . S
C383 C384 1.379 . S
C384 H368 0.931 . S
C384 C378 1.383 . S
C384 C383 1.379 . S
H385 C379 0.959 . S
H386 C379 0.961 . S
H387 C379 0.960 . S
H388 C380 0.930 . S
H389 C381 0.929 . S
H390 C398 0.929 . S
H391 C400 0.930 . S
H392 C402 0.930 . S
H393 C405 0.929 . S
H394 C408 0.930 . S
H395 C410 0.960 . S
H396 C410 0.960 . S
H397 C410 0.960 . S
C398 H390 0.929 . S
C398 C399 1.377 . S
C398 C400 1.384 . S
C399 C398 1.377 . S
C399 C405 1.390 . S
C400 H391 0.930 . S
C400 C398 1.384 . S
C400 C401 1.372 . S
C401 C400 1.372 . S
C401 C402 1.400 . S
C401 C406 1.490 . S
C402 H392 0.930 . S
C402 C401 1.400 . S
C402 C405 1.386 . S
H403 C419 0.930 . S
H404 C420 0.931 . S
C405 H393 0.929 . S
C405 C399 1.390 . S
C405 C402 1.386 . S
C406 C401 1.490 . S
C406 C408 1.395 . S
C406 C409 1.403 . S
H407 C413 0.930 . S
C408 H394 0.930 . S
C408 C406 1.395 . S
C408 C411 1.403 . S
C409 C406 1.403 . S
C409 C410 1.524 . S
C409 C413 1.400 . S
C410 H395 0.960 . S
C410 H396 0.960 . S
C410 H397 0.960 . S
C410 C409 1.524 . S
C411 C408 1.403 . S
C411 C412 1.392 . S
C411 C415 1.495 . S
C412 C411 1.392 . S
C412 C413 1.385 . S
C412 C414 1.478 . S
C413 H407 0.930 . S
C413 C409 1.400 . S
C413 C412 1.385 . S
C414 C412 1.478 . S
C414 C416 1.381 . S
C414 C420 1.383 . S
C415 C411 1.495 . S
C415 H421 0.959 . S
C415 H422 0.961 . S
C415 H423 0.960 . S
C416 C414 1.381 . S
C416 C417 1.394 . S
C416 H424 0.930 . S
C417 C416 1.394 . S
C417 C418 1.383 . S
C417 H425 0.929 . S
C418 C417 1.383 . S
C418 C419 1.377 . S
C419 H403 0.930 . S
C419 C418 1.377 . S
C419 C420 1.379 . S
C420 H404 0.931 . S
C420 C414 1.383 . S
C420 C419 1.379 . S
H421 C415 0.959 . S
H422 C415 0.961 . S
H423 C415 0.960 . S
H424 C416 0.930 . S
H425 C417 0.929 . S
H426 C434 0.929 . S
H427 C436 0.930 . S
H428 C438 0.930 . S
H429 C441 0.929 . S
H430 C444 0.930 . S
H431 C446 0.960 . S
H432 C446 0.960 . S
H433 C446 0.960 . S
C434 H426 0.929 . S
C434 C435 1.377 . S
C434 C436 1.384 . S
C435 C434 1.377 . S
C435 C441 1.390 . S
C436 H427 0.930 . S
C436 C434 1.384 . S
C436 C437 1.372 . S
C437 C436 1.372 . S
C437 C438 1.400 . S
C437 C442 1.490 . S
C438 H428 0.930 . S
C438 C437 1.400 . S
C438 C441 1.386 . S
H439 C455 0.930 1_455 S
H440 C456 0.931 . S
C441 H429 0.929 . S
C441 C435 1.390 . S
C441 C438 1.386 . S
C442 C437 1.490 . S
C442 C444 1.395 . S
C442 C445 1.403 . S
H443 C449 0.930 . S
C444 H430 0.930 . S
C444 C442 1.395 . S
C444 C447 1.403 . S
C445 C442 1.403 . S
C445 C446 1.524 . S
C445 C449 1.400 . S
C446 H431 0.960 . S
C446 H432 0.960 . S
C446 H433 0.960 . S
C446 C445 1.524 . S
C447 C444 1.403 . S
C447 C448 1.392 . S
C447 C451 1.495 . S
C448 C447 1.392 . S
C448 C449 1.385 . S
C448 C450 1.478 . S
C449 H443 0.930 . S
C449 C445 1.400 . S
C449 C448 1.385 . S
C450 C448 1.478 . S
C450 C452 1.381 . S
C450 C456 1.383 . S
C451 C447 1.495 . S
C451 H457 0.959 . S
C451 H458 0.961 . S
C451 H459 0.960 . S
C452 C450 1.381 . S
C452 C453 1.394 . S
C452 H460 0.930 . S
C453 C452 1.394 . S
C453 C454 1.383 . S
C453 H461 0.929 . S
C454 C453 1.383 . S
C454 C455 1.377 . S
C455 H439 0.930 1_655 S
C455 C454 1.377 . S
C455 C456 1.379 . S
C456 H440 0.931 . S
C456 C450 1.383 . S
C456 C455 1.379 . S
H457 C451 0.959 . S
H458 C451 0.961 . S
H459 C451 0.960 . S
H460 C452 0.930 . S
H461 C453 0.929 . S
H462 C470 0.929 . S
H463 C472 0.930 . S
H464 C474 0.930 . S
H465 C477 0.929 . S
H466 C480 0.930 . S
H467 C482 0.960 . S
H468 C482 0.960 . S
H469 C482 0.960 . S
C470 H462 0.929 . S
C470 C471 1.377 . S
C470 C472 1.384 . S
C471 C470 1.377 . S
C471 C477 1.390 . S
C472 H463 0.930 . S
C472 C470 1.384 . S
C472 C473 1.372 . S
C473 C472 1.372 . S
C473 C474 1.400 . S
C473 C478 1.490 . S
C474 H464 0.930 . S
C474 C473 1.400 . S
C474 C477 1.386 . S
H475 C491 0.930 . S
H476 C492 0.931 . S
C477 H465 0.929 . S
C477 C471 1.390 . S
C477 C474 1.386 . S
C478 C473 1.490 . S
C478 C480 1.395 . S
C478 C481 1.403 . S
H479 C485 0.930 . S
C480 H466 0.930 . S
C480 C478 1.395 . S
C480 C483 1.403 . S
C481 C478 1.403 . S
C481 C482 1.524 . S
C481 C485 1.400 . S
C482 H467 0.960 . S
C482 H468 0.960 . S
C482 H469 0.960 . S
C482 C481 1.524 . S
C483 C480 1.403 . S
C483 C484 1.392 . S
C483 C487 1.495 . S
C484 C483 1.392 . S
C484 C485 1.385 . S
C484 C486 1.478 . S
C485 H479 0.930 . S
C485 C481 1.400 . S
C485 C484 1.385 . S
C486 C484 1.478 . S
C486 C488 1.381 . S
C486 C492 1.383 . S
C487 C483 1.495 . S
C487 H493 0.959 . S
C487 H494 0.961 . S
C487 H495 0.960 . S
C488 C486 1.381 . S
C488 C489 1.394 . S
C488 H496 0.930 . S
C489 C488 1.394 . S
C489 C490 1.383 . S
C489 H497 0.929 . S
C490 C489 1.383 . S
C490 C491 1.377 . S
C491 H475 0.930 . S
C491 C490 1.377 . S
C491 C492 1.379 . S
C492 H476 0.931 . S
C492 C486 1.383 . S
C492 C491 1.379 . S
H493 C487 0.959 . S
H494 C487 0.961 . S
H495 C487 0.960 . S
H496 C488 0.930 . S
H497 C489 0.929 . S
H498 C506 0.929 . S
H499 C508 0.930 . S
H500 C510 0.930 . S
H501 C513 0.929 . S
H502 C516 0.930 . S
H503 C518 0.960 . S
H504 C518 0.960 . S
H505 C518 0.960 . S
C506 H498 0.929 . S
C506 C507 1.377 . S
C506 C508 1.384 . S
C507 C506 1.377 . S
C507 C513 1.390 . S
C508 H499 0.930 . S
C508 C506 1.384 . S
C508 C509 1.372 . S
C509 C508 1.372 . S
C509 C510 1.400 . S
C509 C514 1.490 . S
C510 H500 0.930 . S
C510 C509 1.400 . S
C510 C513 1.386 . S
H511 C527 0.930 . S
H512 C528 0.931 . S
C513 H501 0.929 . S
C513 C507 1.390 . S
C513 C510 1.386 . S
C514 C509 1.490 . S
C514 C516 1.395 . S
C514 C517 1.403 . S
H515 C521 0.930 . S
C516 H502 0.930 . S
C516 C514 1.395 . S
C516 C519 1.403 . S
C517 C514 1.403 . S
C517 C518 1.524 . S
C517 C521 1.400 . S
C518 H503 0.960 . S
C518 H504 0.960 . S
C518 H505 0.960 . S
C518 C517 1.524 . S
C519 C516 1.403 . S
C519 C520 1.392 . S
C519 C523 1.495 . S
C520 C519 1.392 . S
C520 C521 1.385 . S
C520 C522 1.478 . S
C521 H515 0.930 . S
C521 C517 1.400 . S
C521 C520 1.385 . S
C522 C520 1.478 . S
C522 C524 1.381 . S
C522 C528 1.383 . S
C523 C519 1.495 . S
C523 H529 0.959 . S
C523 H530 0.961 . S
C523 H531 0.960 . S
C524 C522 1.381 . S
C524 C525 1.394 . S
C524 H532 0.930 . S
C525 C524 1.394 . S
C525 C526 1.383 . S
C525 H533 0.929 . S
C526 C525 1.383 . S
C526 C527 1.377 . S
C527 H511 0.930 . S
C527 C526 1.377 . S
C527 C528 1.379 . S
C528 H512 0.931 . S
C528 C522 1.383 . S
C528 C527 1.379 . S
H529 C523 0.959 . S
H530 C523 0.961 . S
H531 C523 0.960 . S
H532 C524 0.930 . S
H533 C525 0.929 . S
H534 C542 0.929 . S
H535 C544 0.930 . S
H536 C546 0.930 . S
H537 C549 0.929 . S
H538 C552 0.930 . S
H539 C554 0.960 . S
H540 C554 0.960 . S
H541 C554 0.960 . S
C542 H534 0.929 . S
C542 C543 1.377 . S
C542 C544 1.384 . S
C543 C542 1.377 . S
C543 C549 1.390 . S
C544 H535 0.930 . S
C544 C542 1.384 . S
C544 C545 1.372 . S
C545 C544 1.372 . S
C545 C546 1.400 . S
C545 C550 1.490 . S
C546 H536 0.930 . S
C546 C545 1.400 . S
C546 C549 1.386 . S
H547 C563 0.930 . S
H548 C564 0.931 . S
C549 H537 0.929 . S
C549 C543 1.390 . S
C549 C546 1.386 . S
C550 C545 1.490 . S
C550 C552 1.395 . S
C550 C553 1.403 . S
H551 C557 0.930 . S
C552 H538 0.930 . S
C552 C550 1.395 . S
C552 C555 1.403 . S
C553 C550 1.403 . S
C553 C554 1.524 . S
C553 C557 1.400 . S
C554 H539 0.960 . S
C554 H540 0.960 . S
C554 H541 0.960 . S
C554 C553 1.524 . S
C555 C552 1.403 . S
C555 C556 1.392 . S
C555 C559 1.495 . S
C556 C555 1.392 . S
C556 C557 1.385 . S
C556 C558 1.478 . S
C557 H551 0.930 . S
C557 C553 1.400 . S
C557 C556 1.385 . S
C558 C556 1.478 . S
C558 C560 1.381 . S
C558 C564 1.383 . S
C559 C555 1.495 . S
C559 H565 0.959 . S
C559 H566 0.961 . S
C559 H567 0.960 . S
C560 C558 1.381 . S
C560 C561 1.394 . S
C560 H568 0.930 . S
C561 C560 1.394 . S
C561 C562 1.383 . S
C561 H569 0.929 . S
C562 C561 1.383 . S
C562 C563 1.377 . S
C563 H547 0.930 . S
C563 C562 1.377 . S
C563 C564 1.379 . S
C564 H548 0.931 . S
C564 C558 1.383 . S
C564 C563 1.379 . S
H565 C559 0.959 . S
H566 C559 0.961 . S
H567 C559 0.960 . S
H568 C560 0.930 . S
H569 C561 0.929 . S
H570 C578 0.929 . S
H571 C580 0.930 . S
H572 C582 0.930 . S
H573 C585 0.929 . S
H574 C588 0.930 . S
H575 C590 0.960 . S
H576 C590 0.960 . S
H577 C590 0.960 . S
C578 H570 0.929 . S
C578 C579 1.377 . S
C578 C580 1.384 . S
C579 C578 1.377 . S
C579 C585 1.390 . S
C580 H571 0.930 . S
C580 C578 1.384 . S
C580 C581 1.372 . S
C581 C580 1.372 . S
C581 C582 1.400 . S
C581 C586 1.490 . S
C582 H572 0.930 . S
C582 C581 1.400 . S
C582 C585 1.386 . S
H583 C599 0.930 . S
H584 C600 0.931 . S
C585 H573 0.929 . S
C585 C579 1.390 . S
C585 C582 1.386 . S
C586 C581 1.490 . S
C586 C588 1.395 . S
C586 C589 1.403 . S
H587 C593 0.930 . S
C588 H574 0.930 . S
C588 C586 1.395 . S
C588 C591 1.403 . S
C589 C586 1.403 . S
C589 C590 1.524 . S
C589 C593 1.400 . S
C590 H575 0.960 . S
C590 H576 0.960 . S
C590 H577 0.960 . S
C590 C589 1.524 . S
C591 C588 1.403 . S
C591 C592 1.392 . S
C591 C595 1.495 . S
C592 C591 1.392 . S
C592 C593 1.385 . S
C592 C594 1.478 . S
C593 H587 0.930 . S
C593 C589 1.400 . S
C593 C592 1.385 . S
C594 C592 1.478 . S
C594 C596 1.381 . S
C594 C600 1.383 . S
C595 C591 1.495 . S
C595 H601 0.959 . S
C595 H602 0.961 . S
C595 H603 0.960 . S
C596 C594 1.381 . S
C596 C597 1.394 . S
C596 H604 0.930 . S
C597 C596 1.394 . S
C597 C598 1.383 . S
C597 H605 0.929 . S
C598 C597 1.383 . S
C598 C599 1.377 . S
C599 H583 0.930 . S
C599 C598 1.377 . S
C599 C600 1.379 . S
C600 H584 0.931 . S
C600 C594 1.383 . S
C600 C599 1.379 . S
H601 C595 0.959 . S
H602 C595 0.961 . S
H603 C595 0.960 . S
H604 C596 0.930 . S
H605 C597 0.929 . S
H606 C614 0.929 . S
H607 C616 0.930 . S
H608 C618 0.934 . S
H609 C621 0.929 . S
H610 C624 0.930 . S
H611 C626 0.960 . S
H612 C626 0.960 . S
H613 C626 0.960 . S
C614 H606 0.929 . S
C614 C615 1.377 . S
C614 C616 1.384 . S
C615 C614 1.377 . S
C615 C621 1.390 1_455 S
C616 H607 0.930 . S
C616 C614 1.384 . S
C616 C617 1.372 . S
C617 C616 1.372 . S
C617 C618 1.396 1_455 S
C617 C622 1.490 . S
C618 H608 0.934 . S
C618 C617 1.396 1_655 S
C618 C621 1.386 . S
H619 C635 0.930 1_655 S
H620 C636 0.931 1_655 S
C621 H609 0.929 . S
C621 C615 1.390 1_655 S
C621 C618 1.386 . S
C622 C617 1.490 . S
C622 C624 1.395 . S
C622 C625 1.403 . S
H623 C629 0.930 . S
C624 H610 0.930 . S
C624 C622 1.395 . S
C624 C627 1.403 . S
C625 C622 1.403 . S
C625 C626 1.524 . S
C625 C629 1.400 . S
C626 H611 0.960 . S
C626 H612 0.960 . S
C626 H613 0.960 . S
C626 C625 1.524 . S
C627 C624 1.403 . S
C627 C628 1.392 . S
C627 C631 1.493 . S
C628 C627 1.392 . S
C628 C629 1.385 . S
C628 C630 1.478 1_554 S
C629 H623 0.930 . S
C629 C625 1.400 . S
C629 C628 1.385 . S
C630 C628 1.478 1_556 S
C630 C632 1.381 . S
C630 C636 1.383 . S
C631 C627 1.493 . S
C631 H637 0.956 . S
C631 H638 0.964 1_554 S
C631 H639 0.962 1_554 S
C632 C630 1.381 . S
C632 C633 1.394 . S
C632 H640 0.930 . S
C633 C632 1.394 . S
C633 C634 1.383 . S
C633 H641 0.929 . S
C634 C633 1.383 . S
C634 C635 1.377 . S
C635 H619 0.930 1_455 S
C635 C634 1.377 . S
C635 C636 1.379 . S
C636 H620 0.931 1_455 S
C636 C630 1.383 . S
C636 C635 1.379 . S
H637 C631 0.956 . S
H638 C631 0.964 1_556 S
H639 C631 0.962 1_556 S
H640 C632 0.930 . S
H641 C633 0.929 . S
H642 C650 0.929 . S
H643 C652 0.930 . S
H644 C654 0.930 . S
H645 C657 0.929 . S
H646 C660 0.930 . S
H647 C662 0.960 . S
H648 C662 0.960 . S
H649 C662 0.960 . S
C650 H642 0.929 . S
C650 C651 1.377 . S
C650 C652 1.384 . S
C651 C650 1.377 . S
C651 C657 1.390 1_545 S
C652 H643 0.930 . S
C652 C650 1.384 . S
C652 C653 1.372 . S
C653 C652 1.372 . S
C653 C654 1.400 1_545 S
C653 C658 1.490 . S
C654 H644 0.930 . S
C654 C653 1.400 1_565 S
C654 C657 1.386 . S
H655 C671 0.930 . S
H656 C672 0.931 . S
C657 H645 0.929 . S
C657 C651 1.390 1_565 S
C657 C654 1.386 . S
C658 C653 1.490 . S
C658 C660 1.395 . S
C658 C661 1.403 . S
H659 C665 0.930 . S
C660 H646 0.930 . S
C660 C658 1.395 . S
C660 C663 1.403 . S
C661 C658 1.403 . S
C661 C662 1.524 . S
C661 C665 1.400 . S
C662 H647 0.960 . S
C662 H648 0.960 . S
C662 H649 0.960 . S
C662 C661 1.524 . S
C663 C660 1.403 . S
C663 C664 1.392 . S
C663 C667 1.495 . S
C664 C663 1.392 . S
C664 C665 1.385 . S
C664 C666 1.478 . S
C665 H659 0.930 . S
C665 C661 1.400 . S
C665 C664 1.385 . S
C666 C664 1.478 . S
C666 C668 1.381 . S
C666 C672 1.383 1_545 S
C667 C663 1.495 . S
C667 H673 0.959 . S
C667 H674 0.961 . S
C667 H675 0.960 . S
C668 C666 1.381 . S
C668 C669 1.394 . S
C668 H676 0.930 . S
C669 C668 1.394 . S
C669 C670 1.383 . S
C669 H677 0.929 . S
C670 C669 1.383 . S
C670 C671 1.377 1_545 S
C671 H655 0.930 . S
C671 C670 1.377 1_565 S
C671 C672 1.379 . S
C672 H656 0.931 . S
C672 C666 1.383 1_565 S
C672 C671 1.379 . S
H673 C667 0.959 . S
H674 C667 0.961 . S
H675 C667 0.960 . S
H676 C668 0.930 . S
H677 C669 0.929 . S
H678 C686 0.929 . S
H679 C688 0.930 . S
H680 C690 0.930 . S
H681 C693 0.929 . S
H682 C696 0.930 . S
H683 C698 0.960 . S
H684 C698 0.960 . S
H685 C698 0.960 . S
C686 H678 0.929 . S
C686 C687 1.377 . S
C686 C688 1.384 . S
C687 C686 1.377 . S
C687 C693 1.390 . S
C688 H679 0.930 . S
C688 C686 1.384 . S
C688 C689 1.372 . S
C689 C688 1.372 . S
C689 C690 1.400 . S
C689 C694 1.490 . S
C690 H680 0.930 . S
C690 C689 1.400 . S
C690 C693 1.386 . S
H691 C707 0.930 . S
H692 C708 0.931 . S
C693 H681 0.929 . S
C693 C687 1.390 . S
C693 C690 1.386 . S
C694 C689 1.490 . S
C694 C696 1.395 . S
C694 C697 1.403 . S
H695 C701 0.930 . S
C696 H682 0.930 . S
C696 C694 1.395 . S
C696 C699 1.403 . S
C697 C694 1.403 . S
C697 C698 1.524 . S
C697 C701 1.400 . S
C698 H683 0.960 . S
C698 H684 0.960 . S
C698 H685 0.960 . S
C698 C697 1.524 . S
C699 C696 1.403 . S
C699 C700 1.392 . S
C699 C703 1.495 . S
C700 C699 1.392 . S
C700 C701 1.385 . S
C700 C702 1.478 . S
C701 H695 0.930 . S
C701 C697 1.400 . S
C701 C700 1.385 . S
C702 C700 1.478 . S
C702 C704 1.381 . S
C702 C708 1.383 . S
C703 C699 1.495 . S
C703 H709 0.959 . S
C703 H710 0.961 . S
C703 H711 0.960 . S
C704 C702 1.381 . S
C704 C705 1.394 . S
C704 H712 0.930 . S
C705 C704 1.394 . S
C705 C706 1.383 . S
C705 H713 0.929 . S
C706 C705 1.383 . S
C706 C707 1.377 . S
C707 H691 0.930 . S
C707 C706 1.377 . S
C707 C708 1.379 . S
C708 H692 0.931 . S
C708 C702 1.383 . S
C708 C707 1.379 . S
H709 C703 0.959 . S
H710 C703 0.961 . S
H711 C703 0.960 . S
H712 C704 0.930 . S
H713 C705 0.929 . S
H714 C722 0.929 . S
H715 C724 0.930 . S
H716 C726 0.930 . S
H717 C729 0.929 . S
H718 C732 0.930 . S
H719 C734 0.960 . S
H720 C734 0.960 . S
H721 C734 0.960 . S
C722 H714 0.929 . S
C722 C723 1.377 1_565 S
C722 C724 1.384 . S
C723 C722 1.377 1_545 S
C723 C729 1.390 . S
C724 H715 0.930 . S
C724 C722 1.384 . S
C724 C725 1.372 1_565 S
C725 C724 1.372 1_545 S
C725 C726 1.400 . S
C725 C730 1.490 . S
C726 H716 0.930 . S
C726 C725 1.400 . S
C726 C729 1.386 . S
H727 C743 0.930 . S
H728 C744 0.931 . S
C729 H717 0.929 . S
C729 C723 1.390 . S
C729 C726 1.386 . S
C730 C725 1.490 . S
C730 C732 1.395 1_545 S
C730 C733 1.403 . S
H731 C737 0.930 . S
C732 H718 0.930 . S
C732 C730 1.395 1_565 S
C732 C735 1.403 . S
C733 C730 1.403 . S
C733 C734 1.524 . S
C733 C737 1.400 . S
C734 H719 0.960 . S
C734 H720 0.960 . S
C734 H721 0.960 . S
C734 C733 1.524 . S
C735 C732 1.403 . S
C735 C736 1.392 1_565 S
C735 C739 1.495 . S
C736 C735 1.392 1_545 S
C736 C737 1.385 . S
C736 C738 1.478 . S
C737 H731 0.930 . S
C737 C733 1.400 . S
C737 C736 1.385 . S
C738 C736 1.478 . S
C738 C740 1.381 1_545 S
C738 C744 1.383 . S
C739 C735 1.495 . S
C739 H745 0.959 . S
C739 H746 0.961 . S
C739 H747 0.960 . S
C740 C738 1.381 1_565 S
C740 C741 1.394 . S
C740 H748 0.930 . S
C741 C740 1.394 . S
C741 C742 1.383 1_565 S
C741 H749 0.929 . S
C742 C741 1.383 1_545 S
C742 C743 1.377 . S
C743 H727 0.930 . S
C743 C742 1.377 . S
C743 C744 1.379 . S
C744 H728 0.931 . S
C744 C738 1.383 . S
C744 C743 1.379 . S
H745 C739 0.959 . S
H746 C739 0.961 . S
H747 C739 0.960 . S
H748 C740 0.930 . S
H749 C741 0.929 . S
H750 C758 0.929 . S
H751 C760 0.930 . S
H752 C762 0.930 . S
H753 C765 0.929 . S
H754 C768 0.930 . S
H755 C770 0.960 . S
H756 C770 0.960 . S
H757 C770 0.960 . S
C758 H750 0.929 . S
C758 C759 1.377 . S
C758 C760 1.384 . S
C759 C758 1.377 . S
C759 C765 1.390 . S
C760 H751 0.930 . S
C760 C758 1.384 . S
C760 C761 1.372 . S
C761 C760 1.372 . S
C761 C762 1.400 . S
C761 C766 1.490 . S
C762 H752 0.930 . S
C762 C761 1.400 . S
C762 C765 1.386 . S
H763 C779 0.930 . S
H764 C780 0.931 . S
C765 H753 0.929 . S
C765 C759 1.390 . S
C765 C762 1.386 . S
C766 C761 1.490 . S
C766 C768 1.395 . S
C766 C769 1.403 . S
H767 C773 0.930 . S
C768 H754 0.930 . S
C768 C766 1.395 . S
C768 C771 1.403 . S
C769 C766 1.403 . S
C769 C770 1.524 . S
C769 C773 1.400 . S
C770 H755 0.960 . S
C770 H756 0.960 . S
C770 H757 0.960 . S
C770 C769 1.524 . S
C771 C768 1.403 . S
C771 C772 1.392 . S
C771 C775 1.469 1_556 S
C772 C771 1.392 . S
C772 C773 1.385 . S
C772 C774 1.478 1_556 S
C773 H767 0.930 . S
C773 C769 1.400 . S
C773 C772 1.385 . S
C774 C772 1.478 1_554 S
C774 C776 1.381 . S
C774 C780 1.383 . S
C775 C771 1.469 1_554 S
C775 H781 0.922 1_554 S
C775 H782 0.995 . S
C775 H783 0.993 . S
C776 C774 1.381 . S
C776 C777 1.394 . S
C776 H784 0.930 . S
C777 C776 1.394 . S
C777 C778 1.383 . S
C777 H785 0.929 . S
C778 C777 1.383 . S
C778 C779 1.377 . S
C779 H763 0.930 . S
C779 C778 1.377 . S
C779 C780 1.379 . S
C780 H764 0.931 . S
C780 C774 1.383 . S
C780 C779 1.379 . S
H781 C775 0.922 1_556 S
H782 C775 0.995 . S
H783 C775 0.993 . S
H784 C776 0.930 . S
H785 C777 0.929 . S
H786 C794 0.929 . S
H787 C796 0.930 . S
H788 C798 0.930 . S
H789 C801 0.929 . S
H790 C804 0.930 . S
H791 C806 0.960 . S
H792 C806 0.960 . S
H793 C806 0.960 1_455 S
C794 H786 0.929 . S
C794 C795 1.377 1_655 S
C794 C796 1.384 . S
C795 C794 1.377 1_455 S
C795 C801 1.390 . S
C796 H787 0.930 . S
C796 C794 1.384 . S
C796 C797 1.372 1_655 S
C797 C796 1.372 1_455 S
C797 C798 1.400 . S
C797 C802 1.490 . S
C798 H788 0.930 . S
C798 C797 1.400 . S
C798 C801 1.386 . S
H799 C815 0.930 . S
H800 C816 0.931 . S
C801 H789 0.929 . S
C801 C795 1.390 . S
C801 C798 1.386 . S
C802 C797 1.490 . S
C802 C804 1.395 . S
C802 C805 1.403 . S
H803 C809 0.920 1_655 S
C804 H790 0.930 . S
C804 C802 1.395 . S
C804 C807 1.403 . S
C805 C802 1.403 . S
C805 C806 1.524 1_455 S
C805 C809 1.400 . S
C806 H791 0.960 . S
C806 H792 0.960 . S
C806 H793 0.960 1_655 S
C806 C805 1.524 1_655 S
C807 C804 1.403 . S
C807 C808 1.392 . S
C807 C811 1.495 . S
C808 C807 1.392 . S
C808 C809 1.385 . S
C808 C810 1.478 . S
C809 H803 0.920 1_455 S
C809 C805 1.400 . S
C809 C808 1.385 . S
C810 C808 1.478 . S
C810 C812 1.381 1_455 S
C810 C816 1.383 . S
C811 C807 1.495 . S
C811 H817 0.959 . S
C811 H818 0.961 . S
C811 H819 0.960 1_455 S
C812 C810 1.381 1_655 S
C812 C813 1.394 . S
C812 H820 0.930 . S
C813 C812 1.394 . S
C813 C814 1.383 1_655 S
C813 H821 0.929 . S
C814 C813 1.383 1_455 S
C814 C815 1.377 . S
C815 H799 0.930 . S
C815 C814 1.377 . S
C815 C816 1.379 . S
C816 H800 0.931 . S
C816 C810 1.383 . S
C816 C815 1.379 . S
H817 C811 0.959 . S
H818 C811 0.961 . S
H819 C811 0.960 1_655 S
H820 C812 0.930 . S
H821 C813 0.929 . S
C183 C10 2.954 . S
C202 C169 2.915 . S
C219 C55 1.184 . S
C238 C151 1.194 . S
C255 C90 1.746 . S
C274 C163 1.729 . S
C291 C19 2.810 . S
C310 C172 2.820 . S
C346 C154 1.266 . S
C327 C46 1.230 . S
C382 C160 1.840 . S
C363 C99 1.841 . S
C399 C50 1.768 . S
C418 C133 1.749 . S
C435 C95 0.503 . S
C454 C142 0.439 1_655 S
C471 C6 1.272 . S
C490 C124 1.300 . S
C526 C136 1.788 . S
C507 C59 1.797 . S
C562 C145 0.289 . S
C543 C86 0.452 . S
C579 C15 1.210 . S
C598 C127 1.213 . S
C634 C143 1.098 . S
C615 C18 1.089 . S
C651 C49 1.443 . S
C670 C125 1.487 . S
C687 C98 1.335 . S
C706 C134 1.371 . S
C742 C161 1.377 . S
C723 C58 1.335 . S
C778 C170 1.772 . S
C759 C89 1.707 . S
C795 C9 1.452 . S
C814 C152 1.507 . S
