# Generated by pormake.
# Topology hwx, (6,3)-cn, num edge types: 1
# Building blocks:
#     Node 0, Type 0, BuildingBlock: OJICUG_clean_sbu_0, # of connection points: 6
#     Node 1, Type 0, BuildingBlock: OJICUG_clean_sbu_0, # of connection points: 6
#     Node 2, Type 0, BuildingBlock: OJICUG_clean_sbu_0, # of connection points: 6
#     Node 3, Type 0, BuildingBlock: OJICUG_clean_sbu_0, # of connection points: 6
#     Node 4, Type 1, BuildingBlock: BELTOD_clean_linker_0, # of connection points: 3
#     Node 5, Type 1, BuildingBlock: BELTOD_clean_linker_0, # of connection points: 3
#     Node 6, Type 1, BuildingBlock: BELTOD_clean_linker_0, # of connection points: 3
#     Node 7, Type 1, BuildingBlock: BELTOD_clean_linker_0, # of connection points: 3
#     Node 8, Type 1, BuildingBlock: BELTOD_clean_linker_0, # of connection points: 3
#     Node 9, Type 1, BuildingBlock: BELTOD_clean_linker_0, # of connection points: 3
#     Node 10, Type 1, BuildingBlock: BELTOD_clean_linker_0, # of connection points: 3
#     Node 11, Type 1, BuildingBlock: BELTOD_clean_linker_0, # of connection points: 3
#     Edge 12, Type (0, 1), BuildingBlock: AJUNOK_clean_linker_0, # of connection points: 2
#     Edge 13, Type (0, 1), BuildingBlock: AJUNOK_clean_linker_0, # of connection points: 2
#     Edge 14, Type (0, 1), BuildingBlock: AJUNOK_clean_linker_0, # of connection points: 2
#     Edge 15, Type (0, 1), BuildingBlock: AJUNOK_clean_linker_0, # of connection points: 2
#     Edge 16, Type (0, 1), BuildingBlock: AJUNOK_clean_linker_0, # of connection points: 2
#     Edge 17, Type (0, 1), BuildingBlock: AJUNOK_clean_linker_0, # of connection points: 2
#     Edge 18, Type (0, 1), BuildingBlock: AJUNOK_clean_linker_0, # of connection points: 2
#     Edge 19, Type (0, 1), BuildingBlock: AJUNOK_clean_linker_0, # of connection points: 2
#     Edge 20, Type (0, 1), BuildingBlock: AJUNOK_clean_linker_0, # of connection points: 2
#     Edge 21, Type (0, 1), BuildingBlock: AJUNOK_clean_linker_0, # of connection points: 2
#     Edge 22, Type (0, 1), BuildingBlock: AJUNOK_clean_linker_0, # of connection points: 2
#     Edge 23, Type (0, 1), BuildingBlock: AJUNOK_clean_linker_0, # of connection points: 2
#     Edge 24, Type (0, 1), BuildingBlock: AJUNOK_clean_linker_0, # of connection points: 2
#     Edge 25, Type (0, 1), BuildingBlock: AJUNOK_clean_linker_0, # of connection points: 2
#     Edge 26, Type (0, 1), BuildingBlock: AJUNOK_clean_linker_0, # of connection points: 2
#     Edge 27, Type (0, 1), BuildingBlock: AJUNOK_clean_linker_0, # of connection points: 2
#     Edge 28, Type (0, 1), BuildingBlock: AJUNOK_clean_linker_0, # of connection points: 2
#     Edge 29, Type (0, 1), BuildingBlock: AJUNOK_clean_linker_0, # of connection points: 2
#     Edge 30, Type (0, 1), BuildingBlock: AJUNOK_clean_linker_0, # of connection points: 2
#     Edge 31, Type (0, 1), BuildingBlock: AJUNOK_clean_linker_0, # of connection points: 2
#     Edge 32, Type (0, 1), BuildingBlock: AJUNOK_clean_linker_0, # of connection points: 2
#     Edge 33, Type (0, 1), BuildingBlock: AJUNOK_clean_linker_0, # of connection points: 2
#     Edge 34, Type (0, 1), BuildingBlock: AJUNOK_clean_linker_0, # of connection points: 2
#     Edge 35, Type (0, 1), BuildingBlock: AJUNOK_clean_linker_0, # of connection points: 2
# Relax obj value: 0.068
# Max RMSD: 0.096
# Mean RMSD: 0.087
data_MOF--net-hwx--node1-OJICUG_clean_sbu_0--node2-BELTOD_clean_linker_0--edge1-AJUNOK_clean_linker_0
_symmetry_space_group_name_H-M    P1
_symmetry_Int_Tables_number       1
_symmetry_cell_setting            triclinic
loop_
_symmetry_equiv_pos_as_xyz
'x, y, z'
_cell_length_a     43.9634
_cell_length_b     43.956431
_cell_length_c     19.538477
_cell_angle_alpha  89.409433
_cell_angle_beta   90.615398
_cell_angle_gamma 89.952667
loop_
_atom_site_label
_atom_site_type_symbol
_atom_site_fract_x
_atom_site_fract_y
_atom_site_fract_z
_atom_type_partial_charge
Sc0 Sc 0.21139 0.21772 0.08908 0.0
Sc1 Sc 0.16493 0.16461 0.00295 0.0
Sc2 Sc 0.21533 0.21194 0.91121 0.0
O3 O 0.19716 0.19805 0.00109 0.0
C4 C 0.20843 0.27492 0.98642 0.0
C5 C 0.14032 0.21154 0.11379 0.0
C6 C 0.14553 0.20145 0.86913 0.0
C7 C 0.20538 0.14777 0.13401 0.0
C8 C 0.27376 0.21446 0.01016 0.0
C9 C 0.21199 0.14051 0.89123 0.0
O10 O 0.21056 0.26278 0.04558 0.0
O11 O 0.13677 0.18842 0.07577 0.0
O12 O 0.17234 0.21098 0.8587 0.0
O13 O 0.21414 0.175 0.14275 0.0
O14 O 0.26079 0.21496 0.95182 0.0
O15 O 0.1892 0.1368 0.93018 0.0
O16 O 0.25894 0.21334 0.06562 0.0
O17 O 0.18835 0.13989 0.08418 0.0
O18 O 0.22483 0.16611 0.88245 0.0
O19 O 0.1657 0.22486 0.12151 0.0
O20 O 0.20803 0.25943 0.93178 0.0
O21 O 0.13826 0.18591 0.92176 0.0
Sc22 Sc 0.27725 0.71102 0.389 0.0
Sc23 Sc 0.33827 0.67717 0.48065 0.0
Sc24 Sc 0.27811 0.71196 0.56872 0.0
O25 O 0.29786 0.69993 0.47949 0.0
C26 C 0.26894 0.77147 0.47574 0.0
C27 C 0.34749 0.72275 0.35503 0.0
C28 C 0.34814 0.7236 0.60273 0.0
C29 C 0.30143 0.64429 0.35953 0.0
C30 C 0.21941 0.69489 0.48036 0.0
C31 C 0.30233 0.64496 0.60257 0.0
O32 O 0.27107 0.75758 0.41922 0.0
O33 O 0.35806 0.70685 0.40455 0.0
O34 O 0.32002 0.72815 0.61189 0.0
O35 O 0.28224 0.66564 0.35022 0.0
O36 O 0.23341 0.69812 0.53691 0.0
O37 O 0.32286 0.64528 0.55715 0.0
O38 O 0.23231 0.69889 0.42308 0.0
O39 O 0.32302 0.64588 0.40327 0.0
O40 O 0.28456 0.66729 0.61267 0.0
O41 O 0.31915 0.7252 0.34284 0.0
O42 O 0.27024 0.7578 0.53338 0.0
O43 O 0.35845 0.70557 0.55824 0.0
Sc44 Sc 0.76943 0.76611 0.91114 0.0
Sc45 Sc 0.81851 0.81151 0.0096 0.0
Sc46 Sc 0.76514 0.76406 0.09156 0.0
O47 O 0.78434 0.78058 0.00417 0.0
C48 C 0.70737 0.7719 0.99259 0.0
C49 C 0.78008 0.83664 0.88144 0.0
C50 C 0.77333 0.83457 0.12552 0.0
C51 C 0.84131 0.76857 0.89 0.0
C52 C 0.77077 0.7047 9e-05 0.0
C53 C 0.83519 0.76793 0.13593 0.0
O54 O 0.72244 0.77212 0.93751 0.0
O55 O 0.79904 0.84007 0.93028 0.0
O56 O 0.76 0.8091 0.13404 0.0
O57 O 0.81489 0.75909 0.8739 0.0
O58 O 0.7689 0.71754 0.05797 0.0
O59 O 0.84219 0.78696 0.08939 0.0
O60 O 0.77012 0.71931 0.94367 0.0
O61 O 0.846 0.78758 0.93748 0.0
O62 O 0.8083 0.75794 0.14316 0.0
O63 O 0.76767 0.81126 0.86841 0.0
O64 O 0.71954 0.76829 0.05135 0.0
O65 O 0.79464 0.83838 0.08283 0.0
Sc66 Sc 0.713 0.27404 0.59941 0.0
Sc67 Sc 0.67641 0.33555 0.51485 0.0
Sc68 Sc 0.70482 0.27453 0.42038 0.0
O69 O 0.69793 0.29464 0.5118 0.0
C70 C 0.76835 0.26529 0.49677 0.0
C71 C 0.727 0.34353 0.63213 0.0
C72 C 0.71663 0.34465 0.38339 0.0
C73 C 0.64776 0.29989 0.64148 0.0
C74 C 0.69183 0.21623 0.5149 0.0
C75 C 0.63854 0.30026 0.39826 0.0
O76 O 0.7571 0.26467 0.55655 0.0
O77 O 0.70686 0.35408 0.5912 0.0
O78 O 0.71613 0.31648 0.36991 0.0
O79 O 0.67063 0.28244 0.65083 0.0
O80 O 0.6949 0.22953 0.45744 0.0
O81 O 0.64305 0.32249 0.43843 0.0
O82 O 0.69618 0.22978 0.57126 0.0
O83 O 0.64594 0.31938 0.59291 0.0
O84 O 0.65801 0.27925 0.39026 0.0
O85 O 0.73222 0.31526 0.63896 0.0
O86 O 0.75239 0.26909 0.44273 0.0
O87 O 0.70528 0.35549 0.43754 0.0
P88 P 0.31483 0.48055 0.98515 0.0
H89 H 0.35866 0.51789 0.05826 0.0
H90 H 0.35342 0.55344 0.15291 0.0
H91 H 0.25945 0.52691 0.17516 0.0
H92 H 0.26466 0.49177 0.07955 0.0
H93 H 0.30611 0.43069 0.08049 0.0
H94 H 0.27315 0.386 0.07923 0.0
H95 H 0.23236 0.41724 0.88905 0.0
H96 H 0.26559 0.46192 0.89026 0.0
H97 H 0.28305 0.53915 0.97092 0.0
H98 H 0.33195 0.47742 0.84157 0.0
O99 O 0.34982 0.46607 0.97997 0.0
H100 H 0.27767 0.57496 0.87603 0.0
H101 H 0.32538 0.51287 0.74478 0.0
C102 C 0.31223 0.50188 0.06278 0.0
C103 C 0.33714 0.51922 0.08454 0.0
C104 C 0.33411 0.53951 0.13849 0.0
C105 C 0.30597 0.54303 0.1709 0.0
C106 C 0.28128 0.52486 0.15046 0.0
C107 C 0.28435 0.50455 0.09643 0.0
C108 C 0.28829 0.44955 0.98565 0.0
C109 C 0.28976 0.42815 0.03907 0.0
C110 C 0.27072 0.40282 0.0386 0.0
C111 C 0.24987 0.39848 0.98454 0.0
C112 C 0.24811 0.42022 0.93148 0.0
C113 C 0.26714 0.44569 0.93215 0.0
C114 C 0.30852 0.50589 0.91363 0.0
C115 C 0.29238 0.53309 0.92192 0.0
C116 C 0.28889 0.55344 0.86718 0.0
C117 C 0.30085 0.54661 0.80271 0.0
C118 C 0.31607 0.51879 0.794 0.0
C119 C 0.31984 0.49856 0.84911 0.0
P120 P -0.001 0.7624 0.51736 0.0
H121 H 0.99627 0.7948 0.64692 0.0
H122 H 0.96217 0.78948 0.74365 0.0
H123 H 0.92836 0.70494 0.66166 0.0
H124 H 0.96215 0.71087 0.56348 0.0
H125 H 0.05251 0.77736 0.43948 0.0
H126 H 0.10161 0.75263 0.42636 0.0
H127 H 0.07078 0.67659 0.54913 0.0
H128 H 0.02159 0.70209 0.5637 0.0
H129 H 0.93523 0.77792 0.50688 0.0
H130 H 0.00208 0.73457 0.3803 0.0
O131 O 0.00709 0.7995 0.51601 0.0
H132 H 0.89728 0.77287 0.41586 0.0
H133 H 0.9639 0.72954 0.28849 0.0
C134 C 0.98142 0.75342 0.59773 0.0
C135 C 0.98219 0.77466 0.65062 0.0
C136 C 0.96281 0.77146 0.70631 0.0
C137 C 0.94255 0.74678 0.71022 0.0
C138 C 0.94363 0.72425 0.65973 0.0
C139 C 0.96302 0.72753 0.60392 0.0
C140 C 0.03379 0.74195 0.50409 0.0
C141 C 0.05625 0.75536 0.46359 0.0
C142 C 0.08421 0.74102 0.4555 0.0
C143 C 0.09018 0.7128 0.48733 0.0
C144 C 0.06702 0.69861 0.52515 0.0
C145 C 0.03892 0.71312 0.53339 0.0
C146 C 0.97128 0.75613 0.45084 0.0
C147 C 0.94159 0.76679 0.45993 0.0
C148 C 0.91987 0.76375 0.40808 0.0
C149 C 0.92756 0.75026 0.34581 0.0
C150 C 0.9574 0.73971 0.33645 0.0
C151 C 0.97916 0.74257 0.38881 0.0
P152 P 0.82583 0.47432 0.01399 0.0
H153 H 0.8509 0.45725 0.88108 0.0
H154 H 0.82947 0.42885 0.78436 0.0
H155 H 0.74393 0.42155 0.88979 0.0
H156 H 0.76534 0.44978 0.98598 0.0
H157 H 0.86168 0.53039 0.0159 0.0
H158 H 0.84746 0.58422 0.01054 0.0
H159 H 0.75263 0.55932 0.00026 0.0
H160 H 0.76687 0.50536 0.00451 0.0
H161 H 0.83378 0.41258 0.06304 0.0
H162 H 0.78756 0.49337 0.1306 0.0
O163 O 0.86364 0.47095 0.01289 0.0
H164 H 0.80958 0.38309 0.15417 0.0
H165 H 0.76247 0.46369 0.22008 0.0
C166 C 0.80981 0.45526 0.94097 0.0
C167 C 0.82753 0.44958 0.88324 0.0
C168 C 0.81533 0.43333 0.82819 0.0
C169 C 0.78516 0.4228 0.83006 0.0
C170 C 0.76722 0.42949 0.88701 0.0
C171 C 0.77946 0.44554 0.94203 0.0
C172 C 0.81532 0.51387 0.01051 0.0
C173 C 0.83783 0.53641 0.01227 0.0
C174 C 0.82974 0.56712 0.00912 0.0
C175 C 0.799 0.57569 0.00477 0.0
C176 C 0.77646 0.55314 0.0037 0.0
C177 C 0.7846 0.5224 0.00583 0.0
C178 C 0.81214 0.45502 0.08924 0.0
C179 C 0.8187 0.42404 0.09792 0.0
C180 C 0.80468 0.40718 0.14954 0.0
C181 C 0.78359 0.42101 0.19292 0.0
C182 C 0.77847 0.45247 0.18693 0.0
C183 C 0.79268 0.46939 0.13536 0.0
P184 P 0.00255 0.29124 0.49399 0.0
H185 H 0.00362 0.3109 0.35115 0.0
H186 H 0.0301 0.29133 0.25094 0.0
H187 H 0.0631 0.2152 0.37202 0.0
H188 H 0.03595 0.2343 0.47114 0.0
H189 H 0.95045 0.33046 0.51908 0.0
H190 H 0.89556 0.32147 0.51587 0.0
H191 H 0.91124 0.2268 0.47182 0.0
H192 H 0.96648 0.23598 0.47333 0.0
H193 H 0.06086 0.30709 0.55271 0.0
H194 H 0.98895 0.24339 0.5973 0.0
O195 O 0.00808 0.32877 0.48926 0.0
H196 H 0.09222 0.28416 0.64335 0.0
H197 H 0.02061 0.22003 0.68771 0.0
C198 C 0.01864 0.27457 0.41894 0.0
C199 C 0.01631 0.28983 0.35582 0.0
C200 C 0.03146 0.27869 0.29876 0.0
C201 C 0.04918 0.25212 0.30423 0.0
C202 C 0.04969 0.23579 0.36643 0.0
C203 C 0.03442 0.24687 0.42332 0.0
C204 C 0.96243 0.28391 0.49588 0.0
C205 C 0.94219 0.30776 0.50866 0.0
C206 C 0.91091 0.30266 0.50682 0.0
C207 C 0.8995 0.27355 0.49314 0.0
C208 C 0.91973 0.24943 0.48233 0.0
C209 C 0.95111 0.25466 0.48315 0.0
C210 C 0.02251 0.27717 0.56863 0.0
C211 C 0.0516 0.28852 0.5828 0.0
C212 C 0.06958 0.27525 0.63412 0.0
C213 C 0.05891 0.25009 0.67163 0.0
C214 C 0.02928 0.23942 0.65937 0.0
C215 C 0.01122 0.25277 0.60773 0.0
P216 P 0.75693 0.99712 0.49392 0.0
H217 H 0.75281 0.00682 0.34625 0.0
H218 H 0.74983 0.97107 0.25109 0.0
H219 H 0.73638 0.89711 0.3948 0.0
H220 H 0.7377 0.93283 0.48877 0.0
H221 H 0.75815 0.04342 0.59683 0.0
H222 H 0.73283 0.09238 0.60612 0.0
H223 H 0.67755 0.07174 0.4284 0.0
H224 H 0.70363 0.02265 0.41862 0.0
H225 H 0.80715 0.96289 0.55459 0.0
H226 H 0.71345 0.98187 0.60163 0.0
O227 O 0.79132 0.01075 0.47539 0.0
H228 H 0.81041 0.92792 0.65234 0.0
H229 H 0.71674 0.94719 0.70063 0.0
C230 C 0.7459 0.97256 0.4247 0.0
C231 C 0.74822 0.98305 0.35701 0.0
C232 C 0.74686 0.96256 0.3028 0.0
C233 C 0.74382 0.93116 0.31573 0.0
C234 C 0.73889 0.92112 0.38318 0.0
C235 C 0.73984 0.94166 0.4372 0.0
C236 C 0.73282 0.02949 0.50707 0.0
C237 C 0.73999 0.04904 0.56094 0.0
C238 C 0.72524 0.07695 0.5666 0.0
C239 C 0.70289 0.08582 0.51845 0.0
C240 C 0.69464 0.06545 0.46633 0.0
C241 C 0.70955 0.03742 0.46064 0.0
C242 C 0.76024 0.97531 0.57179 0.0
C243 C 0.7875 0.96007 0.58698 0.0
C244 C 0.78933 0.94011 0.64276 0.0
C245 C 0.76379 0.93481 0.68375 0.0
C246 C 0.73665 0.95066 0.66935 0.0
C247 C 0.73484 0.97066 0.61337 0.0
P248 P 0.48019 0.32509 0.00757 0.0
H249 H 0.49477 0.35702 0.87981 0.0
H250 H 0.53334 0.34823 0.79317 0.0
H251 H 0.55922 0.26447 0.89603 0.0
H252 H 0.52188 0.27441 0.98483 0.0
H253 H 0.41992 0.33431 0.06205 0.0
H254 H 0.37446 0.3025 0.06635 0.0
H255 H 0.42274 0.2305 0.96485 0.0
H256 H 0.46784 0.2628 0.95863 0.0
H257 H 0.52521 0.36356 0.07273 0.0
H258 H 0.48284 0.27681 0.11314 0.0
O259 O 0.46893 0.36126 1e-05 0.0
H260 H 0.55868 0.35606 0.17225 0.0
H261 H 0.51578 0.26954 0.21367 0.0
C262 C 0.50561 0.31646 0.93892 0.0
C263 C 0.50867 0.33672 0.88364 0.0
C264 C 0.53063 0.33158 0.83389 0.0
C265 C 0.54971 0.3059 0.83833 0.0
C266 C 0.54551 0.28491 0.8922 0.0
C267 C 0.52391 0.29036 0.94251 0.0
C268 C 0.44699 0.30128 0.00844 0.0
C269 C 0.42064 0.3118 0.04007 0.0
C270 C 0.39481 0.29347 0.04322 0.0
C271 C 0.39501 0.26411 0.01542 0.0
C272 C 0.42176 0.25326 0.98544 0.0
C273 C 0.44759 0.27174 0.98195 0.0
C274 C 0.50133 0.32098 0.08618 0.0
C275 C 0.52268 0.34322 0.10392 0.0
C276 C 0.54173 0.33893 0.16076 0.0
C277 C 0.53988 0.31215 0.20039 0.0
C278 C 0.5179 0.29021 0.18347 0.0
C279 C 0.4989 0.2945 0.12639 0.0
P280 P 0.29631 0.00527 0.51192 0.0
H281 H 0.32071 0.01458 0.64993 0.0
H282 H 0.30029 0.04039 0.75012 0.0
H283 H 0.21546 0.05537 0.64141 0.0
H284 H 0.23572 0.02921 0.54215 0.0
H285 H 0.32774 0.95734 0.44027 0.0
H286 H 0.31788 0.90297 0.42745 0.0
H287 H 0.23674 0.9116 0.54853 0.0
H288 H 0.24706 0.96596 0.56235 0.0
H289 H 0.316 0.06121 0.44558 0.0
H290 H 0.24373 0.99585 0.42033 0.0
O291 O 0.33397 0.00991 0.51575 0.0
H292 H 0.29413 0.09237 0.35317 0.0
H293 H 0.22128 0.02736 0.32884 0.0
C294 C 0.27996 0.02063 0.58818 0.0
C295 C 0.29758 0.02306 0.64804 0.0
C296 C 0.2859 0.03771 0.70523 0.0
C297 C 0.25629 0.04981 0.70355 0.0
C298 C 0.23817 0.04585 0.64463 0.0
C299 C 0.24989 0.03125 0.5875 0.0
C300 C 0.28848 0.96545 0.50334 0.0
C301 C 0.30787 0.94751 0.46418 0.0
C302 C 0.30201 0.91657 0.45617 0.0
C303 C 0.27636 0.90321 0.48642 0.0
C304 C 0.2567 0.92138 0.52486 0.0
C305 C 0.26263 0.95237 0.53292 0.0
C306 C 0.28182 0.02599 0.43883 0.0
C307 C 0.29569 0.05333 0.4194 0.0
C308 C 0.28306 0.0712 0.36695 0.0
C309 C 0.25611 0.06218 0.33354 0.0
C310 C 0.2424 0.03455 0.35266 0.0
C311 C 0.25517 0.01659 0.40506 0.0
P312 P 0.47708 0.82899 0.98024 0.0
H313 H 0.43662 0.85406 0.08407 0.0
H314 H 0.40864 0.83025 0.17819 0.0
H315 H 0.44807 0.74328 0.12869 0.0
H316 H 0.47638 0.76732 0.03551 0.0
H317 H 0.52254 0.82385 0.87209 0.0
H318 H 0.57595 0.80854 0.87396 0.0
H319 H 0.57443 0.80514 0.09509 0.0
H320 H 0.52049 0.81815 0.09244 0.0
H321 H 0.42041 0.84498 0.91086 0.0
H322 H 0.48971 0.77614 0.89356 0.0
O323 O 0.47276 0.8667 0.97968 0.0
H324 H 0.39121 0.82097 0.81939 0.0
H325 H 0.4624 0.75393 0.79738 0.0
C326 C 0.45885 0.81247 0.05359 0.0
C327 C 0.43966 0.82999 0.09427 0.0
C328 C 0.42361 0.81636 0.1478 0.0
C329 C 0.42648 0.785 0.16124 0.0
C330 C 0.44599 0.76761 0.12064 0.0
C331 C 0.46201 0.78126 0.06718 0.0
C332 C 0.51715 0.82048 0.98189 0.0
C333 C 0.53355 0.81915 0.92089 0.0
C334 C 0.56419 0.81072 0.92209 0.0
C335 C 0.57924 0.80456 0.98462 0.0
C336 C 0.56319 0.80819 0.04592 0.0
C337 C 0.53238 0.81594 0.04451 0.0
C338 C 0.45791 0.81324 0.90694 0.0
C339 C 0.42992 0.8254 0.88549 0.0
C340 C 0.41338 0.81179 0.83257 0.0
C341 C 0.42486 0.78602 0.7992 0.0
C342 C 0.45292 0.77385 0.8214 0.0
C343 C 0.46891 0.78691 0.87575 0.0
C344 C 0.09258 0.20265 0.18008 0.0
C345 C 0.11442 0.22293 0.15401 0.0
C346 C 0.07066 0.21244 0.22676 0.0
C347 C 0.06954 0.24293 0.248 0.0
H348 H 0.09332 0.17877 0.16699 0.0
H349 H 0.05497 0.1959 0.24776 0.0
S350 S 0.1199 0.30555 0.18979 0.0
N351 N 0.13212 0.27533 0.14884 0.0
N352 N 0.0912 0.29359 0.23668 0.0
C353 C 0.09028 0.2637 0.21956 0.0
C354 C 0.11266 0.25373 0.17256 0.0
C355 C 0.32642 0.60037 0.66185 0.0
C356 C 0.30033 0.61811 0.64858 0.0
C357 C 0.32605 0.57662 0.7101 0.0
C358 C 0.29951 0.56953 0.74649 0.0
H359 H 0.34768 0.60557 0.63679 0.0
H360 H 0.34707 0.56451 0.72082 0.0
S361 S 0.22396 0.60617 0.72341 0.0
N362 N 0.24646 0.62516 0.67107 0.0
N363 N 0.24563 0.58002 0.76075 0.0
C364 C 0.27284 0.58605 0.73116 0.0
C365 C 0.27327 0.61044 0.68245 0.0
C366 C 0.88955 0.76779 0.17557 0.0
C367 C 0.85916 0.75884 0.18637 0.0
C368 C 0.912 0.7633 0.22601 0.0
C369 C 0.90493 0.74977 0.28924 0.0
H370 H 0.89597 0.77934 0.12866 0.0
H371 H 0.9347 0.77188 0.21672 0.0
S372 S 0.83026 0.71836 0.3405 0.0
N373 N 0.82413 0.73287 0.26329 0.0
N374 N 0.86656 0.7245 0.35776 0.0
C375 C 0.87525 0.73899 0.29936 0.0
C376 C 0.85233 0.74344 0.24797 0.0
C377 C 0.73024 0.39248 0.69608 0.0
C378 C 0.74382 0.36486 0.677 0.0
C379 C 0.74417 0.41151 0.74424 0.0
C380 C 0.77241 0.40391 0.77427 0.0
H381 H 0.70813 0.39894 0.67567 0.0
H382 H 0.73251 0.43213 0.75897 0.0
S383 S 0.81862 0.33542 0.73811 0.0
N384 N 0.78804 0.33178 0.68911 0.0
N385 N 0.81414 0.36765 0.77951 0.0
C386 C 0.78685 0.37704 0.75366 0.0
C387 C 0.77256 0.35748 0.70513 0.0
C388 C 0.59184 0.32649 0.35255 0.0
C389 C 0.61076 0.30057 0.35412 0.0
C390 C 0.56817 0.32951 0.30447 0.0
C391 C 0.56225 0.30666 0.25642 0.0
H392 H 0.59601 0.34525 0.3869 0.0
H393 H 0.55486 0.35028 0.30375 0.0
S394 S 0.60309 0.23319 0.24169 0.0
N395 N 0.62026 0.25054 0.30587 0.0
N396 N 0.576 0.25661 0.21508 0.0
C397 C 0.57986 0.27998 0.25936 0.0
C398 C 0.60403 0.27684 0.30829 0.0
C399 C 0.25341 0.11609 0.82495 0.0
C400 C 0.22375 0.11455 0.85138 0.0
C401 C 0.26418 0.09413 0.77998 0.0
C402 C 0.24572 0.06977 0.75922 0.0
H403 H 0.26826 0.13493 0.83755 0.0
H404 H 0.28668 0.09708 0.75883 0.0
S405 S 0.16758 0.05323 0.81862 0.0
N406 N 0.17691 0.08516 0.85741 0.0
N407 N 0.19737 0.04377 0.7726 0.0
C408 C 0.2166 0.06699 0.78768 0.0
C409 C 0.20561 0.08933 0.834 0.0
C410 C 0.35699 0.7603 0.26046 0.0
C411 C 0.36872 0.73918 0.30878 0.0
C412 C 0.37594 0.77543 0.21423 0.0
C413 C 0.40744 0.77008 0.21405 0.0
H414 H 0.33283 0.76512 0.25769 0.0
H415 H 0.36569 0.79093 0.17715 0.0
S416 S 0.45026 0.71873 0.3321 0.0
N417 N 0.41443 0.71479 0.35506 0.0
N418 N 0.44996 0.74354 0.26808 0.0
C419 C 0.41971 0.74965 0.2628 0.0
C420 C 0.40042 0.73421 0.31022 0.0
C421 C 0.79371 0.88775 0.83338 0.0
C422 C 0.77349 0.86292 0.83542 0.0
C423 C 0.78981 0.91145 0.78568 0.0
C424 C 0.76537 0.91142 0.73872 0.0
H425 H 0.81335 0.88845 0.86727 0.0
H426 H 0.80638 0.92967 0.78465 0.0
S427 S 0.7047 0.85312 0.7257 0.0
N428 N 0.72694 0.84087 0.78877 0.0
N429 N 0.71994 0.88532 0.69867 0.0
C430 C 0.74428 0.88746 0.74185 0.0
C431 C 0.74828 0.86323 0.79024 0.0
C432 C 0.8628 0.74907 0.78093 0.0
C433 C 0.86754 0.75871 0.84866 0.0
C434 C 0.88734 0.74353 0.73768 0.0
C435 C 0.91755 0.74718 0.76062 0.0
H436 H 0.83998 0.74724 0.75992 0.0
H437 H 0.88251 0.73796 0.68478 0.0
S438 S 0.94234 0.76648 0.93687 0.0
N439 N 0.90483 0.7679 0.93915 0.0
N440 N 0.95092 0.75709 0.85776 0.0
C441 C 0.92265 0.75467 0.82952 0.0
C442 C 0.89767 0.76051 0.87355 0.0
C443 C 0.7465 0.39183 0.35602 0.0
C444 C 0.73186 0.36515 0.3339 0.0
C445 C 0.76306 0.41006 0.31018 0.0
C446 C 0.76547 0.40219 0.24081 0.0
H447 H 0.74588 0.39822 0.40938 0.0
H448 H 0.77458 0.43006 0.32938 0.0
S449 S 0.72803 0.33697 0.15544 0.0
N450 N 0.71873 0.33333 0.23671 0.0
N451 N 0.74948 0.3677 0.15098 0.0
C452 C 0.74996 0.37627 0.21766 0.0
C453 C 0.73325 0.35774 0.26408 0.0
C454 C 0.09243 0.21773 0.83724 0.0
C455 C 0.12207 0.20978 0.81752 0.0
C456 C 0.07148 0.22984 0.78933 0.0
C457 C 0.0796 0.23423 0.72046 0.0
H458 H 0.08587 0.21592 0.89041 0.0
H459 H 0.04929 0.23692 0.80673 0.0
S460 S 0.15244 0.21208 0.64102 0.0
N461 N 0.15709 0.20374 0.72304 0.0
N462 N 0.11773 0.22616 0.63344 0.0
C463 C 0.10844 0.22453 0.69953 0.0
C464 C 0.12968 0.21238 0.74797 0.0
C465 C 0.32216 0.59407 0.32205 0.0
C466 C 0.2999 0.61705 0.31498 0.0
C467 C 0.32335 0.56968 0.27665 0.0
C468 C 0.3022 0.56709 0.22267 0.0
H469 H 0.33942 0.59522 0.3619 0.0
H470 H 0.3413 0.55296 0.28313 0.0
S471 S 0.23855 0.61998 0.18251 0.0
N472 N 0.2553 0.63464 0.25058 0.0
N473 N 0.25791 0.58887 0.16513 0.0
C474 C 0.27919 0.58916 0.21612 0.0
C475 C 0.27795 0.6141 0.26226 0.0
C476 C 0.38716 0.72338 0.69546 0.0
C477 C 0.36958 0.73971 0.64743 0.0
C478 C 0.40524 0.73856 0.74366 0.0
C479 C 0.40681 0.77063 0.74465 0.0
H480 H 0.38601 0.69876 0.69744 0.0
H481 H 0.41733 0.725 0.78172 0.0
S482 S 0.36714 0.82329 0.62324 0.0
N483 N 0.35555 0.78908 0.60054 0.0
N484 N 0.39093 0.81788 0.68827 0.0
C485 C 0.39015 0.78706 0.69446 0.0
C486 C 0.37121 0.77153 0.64653 0.0
C487 C 0.7382 0.85937 0.20913 0.0
C488 C 0.76466 0.86071 0.16914 0.0
C489 C 0.73083 0.88282 0.25432 0.0
C490 C 0.74958 0.90855 0.26128 0.0
H491 H 0.72324 0.83984 0.20644 0.0
H492 H 0.71056 0.88053 0.28501 0.0
S493 S 0.82158 0.92331 0.16915 0.0
N494 N 0.80952 0.89044 0.13936 0.0
N495 N 0.79588 0.93391 0.22497 0.0
C496 C 0.77575 0.91052 0.2207 0.0
C497 C 0.78322 0.88678 0.17454 0.0
C498 C 0.59287 0.306 0.6707 0.0
C499 C 0.62276 0.29876 0.69153 0.0
C500 C 0.56923 0.30736 0.71814 0.0
C501 C 0.57464 0.30192 0.78836 0.0
H502 H 0.58772 0.31083 0.61733 0.0
H503 H 0.54657 0.31302 0.69972 0.0
S504 S 0.64928 0.28361 0.86959 0.0
N505 N 0.65661 0.28645 0.7871 0.0
N506 N 0.61245 0.28999 0.87651 0.0
C507 C 0.60444 0.29451 0.80978 0.0
C508 C 0.62842 0.2927 0.76133 0.0
C509 C 0.2256 0.13419 0.24996 0.0
C510 C 0.21612 0.12466 0.18455 0.0
C511 C 0.23797 0.11369 0.29776 0.0
C512 C 0.24154 0.08277 0.28224 0.0
H513 H 0.22363 0.15783 0.26449 0.0
H514 H 0.24491 0.1222 0.34738 0.0
S515 S 0.2205 0.04591 0.11851 0.0
N516 N 0.2109 0.08196 0.10697 0.0
N517 N 0.23457 0.04337 0.1971 0.0
C518 C 0.23168 0.07266 0.21764 0.0
C519 C 0.21889 0.0936 0.16875 0.0
C520 C 0.2242 0.32157 0.92199 0.0
C521 C 0.2115 0.30841 0.98117 0.0
C522 C 0.23461 0.35167 0.92181 0.0
C523 C 0.23255 0.36968 0.98063 0.0
H524 H 0.22824 0.30794 0.8771 0.0
H525 H 0.24628 0.36015 0.87693 0.0
S526 S 0.195 0.3484 0.1431 0.0
N527 N 0.19295 0.31741 0.09622 0.0
N528 N 0.21243 0.37408 0.09537 0.0
C529 C 0.21724 0.35784 0.03766 0.0
C530 C 0.20668 0.32719 0.03801 0.0
C531 C 0.16872 0.69591 0.42074 0.0
C532 C 0.18578 0.6911 0.48136 0.0
C533 C 0.13721 0.70039 0.42247 0.0
C534 C 0.12146 0.7001 0.48474 0.0
H535 H 0.17993 0.69833 0.37189 0.0
H536 H 0.12534 0.70589 0.37505 0.0
S537 S 0.15431 0.6824 0.65629 0.0
N538 N 0.18361 0.68133 0.60426 0.0
N539 N 0.12449 0.69054 0.6074 0.0
C540 C 0.13764 0.69228 0.54483 0.0
C541 C 0.16977 0.68758 0.54315 0.0
C542 C 0.76553 0.65231 0.05058 0.0
C543 C 0.77643 0.67151 0.99822 0.0
C544 C 0.77224 0.62108 0.05146 0.0
C545 C 0.79059 0.60821 0.00087 0.0
H546 H 0.75183 0.66148 0.09125 0.0
H547 H 0.76367 0.60705 0.09287 0.0
S548 S 0.82476 0.64831 0.85283 0.0
N549 N 0.80627 0.67508 0.89405 0.0
N550 N 0.81907 0.61655 0.89668 0.0
C551 C 0.80141 0.627 0.94809 0.0
C552 C 0.79426 0.65861 0.94648 0.0
C553 C 0.81979 0.24917 0.53975 0.0
C554 C 0.8018 0.26462 0.49046 0.0
C555 C 0.85163 0.25101 0.53862 0.0
C556 C 0.86637 0.26883 0.48902 0.0
H557 H 0.80918 0.236 0.58011 0.0
H558 H 0.86476 0.23938 0.5782 0.0
S559 S 0.83011 0.31325 0.34817 0.0
N560 N 0.80141 0.29769 0.38955 0.0
N561 N 0.86118 0.30143 0.38861 0.0
C562 C 0.84883 0.28382 0.43871 0.0
C563 C 0.81653 0.28161 0.43907 0.0
C564 C 0.69159 0.16636 0.4545 0.0
C565 C 0.68724 0.18271 0.51535 0.0
C566 C 0.69417 0.13464 0.45523 0.0
C567 C 0.69225 0.11791 0.5167 0.0
H568 H 0.69509 0.17817 0.40629 0.0
H569 H 0.6999 0.12344 0.40794 0.0
S570 S 0.67385 0.14879 0.68728 0.0
N571 N 0.6761 0.17913 0.63702 0.0
N572 N 0.68051 0.11932 0.63787 0.0
C573 C 0.68484 0.13356 0.57669 0.0
C574 C 0.6824 0.16597 0.57614 0.0
C575 C 0.32021 0.23097 0.07473 0.0
C576 C 0.30701 0.22031 0.0135 0.0
C577 C 0.34946 0.24355 0.0757 0.0
C578 C 0.36673 0.24575 0.01572 0.0
H579 H 0.30726 0.23139 0.12155 0.0
H580 H 0.35813 0.25279 0.12326 0.0
S581 S 0.3447 0.21702 0.84439 0.0
N582 N 0.31518 0.20932 0.89308 0.0
N583 N 0.3699 0.23355 0.89495 0.0
C584 C 0.35488 0.23302 0.9554 0.0
C585 C 0.32509 0.22015 0.95432 0.0
C586 C 0.26461 0.82083 0.53772 0.0
C587 C 0.26728 0.80526 0.47532 0.0
C588 C 0.26649 0.85256 0.54042 0.0
C589 C 0.27117 0.87004 0.48092 0.0
H590 H 0.26191 0.80844 0.58547 0.0
H591 H 0.26541 0.8634 0.58989 0.0
S592 S 0.2766 0.84126 0.30375 0.0
N593 N 0.27273 0.81037 0.35161 0.0
N594 N 0.27597 0.87008 0.35721 0.0
C595 C 0.27255 0.85509 0.41783 0.0
C596 C 0.2706 0.82272 0.41488 0.0
C597 C 0.6635 0.80089 0.94324 0.0
C598 C 0.67447 0.77833 0.98864 0.0
C599 C 0.63273 0.80918 0.9422 0.0
C600 C 0.61167 0.79484 0.98574 0.0
H601 H 0.67899 0.81295 0.90978 0.0
H602 H 0.62554 0.82742 0.90799 0.0
S603 S 0.62861 0.73168 0.10811 0.0
N604 N 0.66193 0.74048 0.07515 0.0
N605 N 0.60376 0.75493 0.0711 0.0
C606 C 0.62227 0.77139 0.02956 0.0
C607 C 0.65373 0.7634 0.03149 0.0
loop_
_geom_bond_atom_site_label_1
_geom_bond_atom_site_label_2
_geom_bond_distance
_geom_bond_site_symmetry_2
_ccdc_geom_bond_type
Sc0 O3 2.025 . S
Sc0 O10 2.105 . S
Sc0 O13 2.105 . S
Sc0 O16 2.105 . S
Sc0 O19 2.105 . S
Sc1 O3 2.025 . S
Sc1 O11 2.105 . S
Sc1 O15 2.105 1_554 S
Sc1 O17 2.105 . S
Sc1 O21 2.105 1_554 S
Sc2 O3 2.025 1_556 S
Sc2 O12 2.105 . S
Sc2 O14 2.105 . S
Sc2 O18 2.105 . S
Sc2 O20 2.105 . S
O3 Sc0 2.025 . S
O3 Sc1 2.025 . S
O3 Sc2 2.025 1_554 S
C4 O10 1.268 . S
C4 O20 1.268 1_554 S
C5 O11 1.268 . S
C5 O19 1.268 . S
C6 O12 1.268 . S
C6 O21 1.268 . S
C7 O13 1.268 . S
C7 O17 1.268 . S
C8 O14 1.268 1_554 S
C8 O16 1.268 . S
C9 O15 1.268 . S
C9 O18 1.268 . S
O10 Sc0 2.105 . S
O10 C4 1.268 . S
O11 Sc1 2.105 . S
O11 C5 1.268 . S
O12 Sc2 2.105 . S
O12 C6 1.268 . S
O13 Sc0 2.105 . S
O13 C7 1.268 . S
O14 Sc2 2.105 . S
O14 C8 1.268 1_556 S
O15 Sc1 2.105 1_556 S
O15 C9 1.268 . S
O16 Sc0 2.105 . S
O16 C8 1.268 . S
O17 Sc1 2.105 . S
O17 C7 1.268 . S
O18 Sc2 2.105 . S
O18 C9 1.268 . S
O19 Sc0 2.105 . S
O19 C5 1.268 . S
O20 Sc2 2.105 . S
O20 C4 1.268 1_556 S
O21 Sc1 2.105 1_556 S
O21 C6 1.268 . S
Sc22 O25 2.025 . S
Sc22 O32 2.105 . S
Sc22 O35 2.105 . S
Sc22 O38 2.105 . S
Sc22 O41 2.105 . S
Sc23 O25 2.025 . S
Sc23 O33 2.105 . S
Sc23 O37 2.105 . S
Sc23 O39 2.105 . S
Sc23 O43 2.105 . S
Sc24 O25 2.025 . S
Sc24 O34 2.105 . S
Sc24 O36 2.105 . S
Sc24 O40 2.105 . S
Sc24 O42 2.105 . S
O25 Sc22 2.025 . S
O25 Sc23 2.025 . S
O25 Sc24 2.025 . S
C26 O32 1.268 . S
C26 O42 1.268 . S
C27 O33 1.268 . S
C27 O41 1.268 . S
C28 O34 1.268 . S
C28 O43 1.268 . S
C29 O35 1.268 . S
C29 O39 1.268 . S
C30 O36 1.268 . S
C30 O38 1.268 . S
C31 O37 1.268 . S
C31 O40 1.268 . S
O32 Sc22 2.105 . S
O32 C26 1.268 . S
O33 Sc23 2.105 . S
O33 C27 1.268 . S
O34 Sc24 2.105 . S
O34 C28 1.268 . S
O35 Sc22 2.105 . S
O35 C29 1.268 . S
O36 Sc24 2.105 . S
O36 C30 1.268 . S
O37 Sc23 2.105 . S
O37 C31 1.268 . S
O38 Sc22 2.105 . S
O38 C30 1.268 . S
O39 Sc23 2.105 . S
O39 C29 1.268 . S
O40 Sc24 2.105 . S
O40 C31 1.268 . S
O41 Sc22 2.105 . S
O41 C27 1.268 . S
O42 Sc24 2.105 . S
O42 C26 1.268 . S
O43 Sc23 2.105 . S
O43 C28 1.268 . S
Sc44 O47 2.025 1_556 S
Sc44 O54 2.105 . S
Sc44 O57 2.105 . S
Sc44 O60 2.105 . S
Sc44 O63 2.105 . S
Sc45 O47 2.025 . S
Sc45 O55 2.105 1_554 S
Sc45 O59 2.105 . S
Sc45 O61 2.105 1_554 S
Sc45 O65 2.105 . S
Sc46 O47 2.025 . S
Sc46 O56 2.105 . S
Sc46 O58 2.105 . S
Sc46 O62 2.105 . S
Sc46 O64 2.105 . S
O47 Sc44 2.025 1_554 S
O47 Sc45 2.025 . S
O47 Sc46 2.025 . S
C48 O54 1.268 1_554 S
C48 O64 1.268 . S
C49 O55 1.268 . S
C49 O63 1.268 . S
C50 O56 1.268 . S
C50 O65 1.268 . S
C51 O57 1.268 . S
C51 O61 1.268 . S
C52 O58 1.268 . S
C52 O60 1.268 1_554 S
C53 O59 1.268 . S
C53 O62 1.268 . S
O54 Sc44 2.105 . S
O54 C48 1.268 1_556 S
O55 Sc45 2.105 1_556 S
O55 C49 1.268 . S
O56 Sc46 2.105 . S
O56 C50 1.268 . S
O57 Sc44 2.105 . S
O57 C51 1.268 . S
O58 Sc46 2.105 . S
O58 C52 1.268 . S
O59 Sc45 2.105 . S
O59 C53 1.268 . S
O60 Sc44 2.105 . S
O60 C52 1.268 1_556 S
O61 Sc45 2.105 1_556 S
O61 C51 1.268 . S
O62 Sc46 2.105 . S
O62 C53 1.268 . S
O63 Sc44 2.105 . S
O63 C49 1.268 . S
O64 Sc46 2.105 . S
O64 C48 1.268 . S
O65 Sc45 2.105 . S
O65 C50 1.268 . S
Sc66 O69 2.025 . S
Sc66 O76 2.105 . S
Sc66 O79 2.105 . S
Sc66 O82 2.105 . S
Sc66 O85 2.105 . S
Sc67 O69 2.025 . S
Sc67 O77 2.105 . S
Sc67 O81 2.105 . S
Sc67 O83 2.105 . S
Sc67 O87 2.105 . S
Sc68 O69 2.025 . S
Sc68 O78 2.105 . S
Sc68 O80 2.105 . S
Sc68 O84 2.105 . S
Sc68 O86 2.105 . S
O69 Sc66 2.025 . S
O69 Sc67 2.025 . S
O69 Sc68 2.025 . S
C70 O76 1.268 . S
C70 O86 1.268 . S
C71 O77 1.268 . S
C71 O85 1.268 . S
C72 O78 1.268 . S
C72 O87 1.268 . S
C73 O79 1.268 . S
C73 O83 1.268 . S
C74 O80 1.268 . S
C74 O82 1.268 . S
C75 O81 1.268 . S
C75 O84 1.268 . S
O76 Sc66 2.105 . S
O76 C70 1.268 . S
O77 Sc67 2.105 . S
O77 C71 1.268 . S
O78 Sc68 2.105 . S
O78 C72 1.268 . S
O79 Sc66 2.105 . S
O79 C73 1.268 . S
O80 Sc68 2.105 . S
O80 C74 1.268 . S
O81 Sc67 2.105 . S
O81 C75 1.268 . S
O82 Sc66 2.105 . S
O82 C74 1.268 . S
O83 Sc67 2.105 . S
O83 C73 1.268 . S
O84 Sc68 2.105 . S
O84 C75 1.268 . S
O85 Sc66 2.105 . S
O85 C71 1.268 . S
O86 Sc68 2.105 . S
O86 C70 1.268 . S
O87 Sc67 2.105 . S
O87 C72 1.268 . S
P88 O99 1.490 . S
P88 C102 1.812 . S
P88 C108 1.803 . S
P88 C114 1.819 1_554 S
H89 C103 0.941 . S
H90 C104 0.939 . S
H91 C106 0.940 . S
H92 C107 0.940 . S
H93 C109 0.939 . S
H94 C110 0.942 . S
H95 C112 0.940 . S
H96 C113 0.939 . S
H97 C115 0.941 . S
H98 C119 0.939 . S
O99 P88 1.490 . S
H100 C116 0.939 . S
H101 C118 0.940 . S
C102 P88 1.812 . S
C102 C103 1.389 . S
C102 C107 1.391 . S
C103 H89 0.941 . S
C103 C102 1.389 . S
C103 C104 1.397 . S
C104 H90 0.939 . S
C104 C103 1.397 . S
C104 C105 1.378 . S
C105 C104 1.378 . S
C105 C106 1.378 . S
C106 H91 0.940 . S
C106 C105 1.378 . S
C106 C107 1.396 . S
C107 H92 0.940 . S
C107 C102 1.391 . S
C107 C106 1.396 . S
C108 P88 1.803 . S
C108 C109 1.378 1_554 S
C108 C113 1.400 . S
C109 H93 0.939 . S
C109 C108 1.378 1_556 S
C109 C110 1.361 . S
C110 H94 0.942 . S
C110 C109 1.361 . S
C110 C111 1.369 1_556 S
C111 C110 1.369 1_554 S
C111 C112 1.404 . S
C112 H95 0.940 . S
C112 C111 1.404 . S
C112 C113 1.389 . S
C113 H96 0.939 . S
C113 C108 1.400 . S
C113 C112 1.389 . S
C114 P88 1.819 1_556 S
C114 C115 1.391 . S
C114 C119 1.391 . S
C115 H97 0.941 . S
C115 C114 1.391 . S
C115 C116 1.396 . S
C116 H100 0.939 . S
C116 C115 1.396 . S
C116 C117 1.397 . S
C117 C116 1.397 . S
C117 C118 1.385 . S
C118 H101 0.940 . S
C118 C117 1.385 . S
C118 C119 1.388 . S
C119 H98 0.939 . S
C119 C114 1.391 . S
C119 C118 1.388 . S
P120 O131 1.490 . S
P120 C134 1.812 . S
P120 C140 1.803 1_655 S
P120 C146 1.819 . S
H121 C135 0.941 . S
H122 C136 0.939 . S
H123 C138 0.940 . S
H124 C139 0.940 . S
H125 C141 0.939 . S
H126 C142 0.942 . S
H127 C144 0.940 . S
H128 C145 0.939 . S
H129 C147 0.941 . S
H130 C151 0.939 . S
O131 P120 1.490 . S
H132 C148 0.939 . S
H133 C150 0.940 . S
C134 P120 1.812 . S
C134 C135 1.389 . S
C134 C139 1.391 . S
C135 H121 0.941 . S
C135 C134 1.389 . S
C135 C136 1.397 . S
C136 H122 0.939 . S
C136 C135 1.397 . S
C136 C137 1.378 . S
C137 C136 1.378 . S
C137 C138 1.378 . S
C138 H123 0.940 . S
C138 C137 1.378 . S
C138 C139 1.396 . S
C139 H124 0.940 . S
C139 C134 1.391 . S
C139 C138 1.396 . S
C140 P120 1.803 1_455 S
C140 C141 1.378 . S
C140 C145 1.400 . S
C141 H125 0.939 . S
C141 C140 1.378 . S
C141 C142 1.361 . S
C142 H126 0.942 . S
C142 C141 1.361 . S
C142 C143 1.369 . S
C143 C142 1.369 . S
C143 C144 1.404 . S
C144 H127 0.940 . S
C144 C143 1.404 . S
C144 C145 1.389 . S
C145 H128 0.939 . S
C145 C140 1.400 . S
C145 C144 1.389 . S
C146 P120 1.819 . S
C146 C147 1.391 . S
C146 C151 1.391 . S
C147 H129 0.941 . S
C147 C146 1.391 . S
C147 C148 1.396 . S
C148 H132 0.939 . S
C148 C147 1.396 . S
C148 C149 1.397 . S
C149 C148 1.397 . S
C149 C150 1.385 . S
C150 H133 0.940 . S
C150 C149 1.385 . S
C150 C151 1.388 . S
C151 H130 0.939 . S
C151 C146 1.391 . S
C151 C150 1.388 . S
P152 O163 1.490 . S
P152 C166 1.812 . S
P152 C172 1.803 . S
P152 C178 1.819 1_556 S
H153 C167 0.941 . S
H154 C168 0.939 . S
H155 C170 0.940 . S
H156 C171 0.940 . S
H157 C173 0.939 . S
H158 C174 0.942 . S
H159 C176 0.940 . S
H160 C177 0.939 . S
H161 C179 0.941 . S
H162 C183 0.939 . S
O163 P152 1.490 . S
H164 C180 0.939 . S
H165 C182 0.940 . S
C166 P152 1.812 . S
C166 C167 1.389 . S
C166 C171 1.391 . S
C167 H153 0.941 . S
C167 C166 1.389 . S
C167 C168 1.397 . S
C168 H154 0.939 . S
C168 C167 1.397 . S
C168 C169 1.378 . S
C169 C168 1.378 . S
C169 C170 1.378 . S
C170 H155 0.940 . S
C170 C169 1.378 . S
C170 C171 1.396 . S
C171 H156 0.940 . S
C171 C166 1.391 . S
C171 C170 1.396 . S
C172 P152 1.803 . S
C172 C173 1.378 1_556 S
C172 C177 1.400 . S
C173 H157 0.939 . S
C173 C172 1.378 1_554 S
C173 C174 1.361 . S
C174 H158 0.942 . S
C174 C173 1.361 . S
C174 C175 1.369 . S
C175 C174 1.369 . S
C175 C176 1.404 1_554 S
C176 H159 0.940 . S
C176 C175 1.404 1_556 S
C176 C177 1.389 . S
C177 H160 0.939 . S
C177 C172 1.400 . S
C177 C176 1.389 . S
C178 P152 1.819 1_554 S
C178 C179 1.391 . S
C178 C183 1.391 . S
C179 H161 0.941 . S
C179 C178 1.391 . S
C179 C180 1.396 . S
C180 H164 0.939 . S
C180 C179 1.396 . S
C180 C181 1.397 . S
C181 C180 1.397 . S
C181 C182 1.385 . S
C182 H165 0.940 . S
C182 C181 1.385 . S
C182 C183 1.388 . S
C183 H162 0.939 . S
C183 C178 1.391 . S
C183 C182 1.388 . S
P184 O195 1.490 . S
P184 C198 1.812 . S
P184 C204 1.803 1_455 S
P184 C210 1.819 . S
H185 C199 0.941 . S
H186 C200 0.939 . S
H187 C202 0.940 . S
H188 C203 0.940 . S
H189 C205 0.939 . S
H190 C206 0.942 . S
H191 C208 0.940 . S
H192 C209 0.939 . S
H193 C211 0.941 . S
H194 C215 0.939 . S
O195 P184 1.490 . S
H196 C212 0.939 . S
H197 C214 0.940 . S
C198 P184 1.812 . S
C198 C199 1.389 . S
C198 C203 1.391 . S
C199 H185 0.941 . S
C199 C198 1.389 . S
C199 C200 1.397 . S
C200 H186 0.939 . S
C200 C199 1.397 . S
C200 C201 1.378 . S
C201 C200 1.378 . S
C201 C202 1.378 . S
C202 H187 0.940 . S
C202 C201 1.378 . S
C202 C203 1.396 . S
C203 H188 0.940 . S
C203 C198 1.391 . S
C203 C202 1.396 . S
C204 P184 1.803 1_655 S
C204 C205 1.378 . S
C204 C209 1.400 . S
C205 H189 0.939 . S
C205 C204 1.378 . S
C205 C206 1.361 . S
C206 H190 0.942 . S
C206 C205 1.361 . S
C206 C207 1.369 . S
C207 C206 1.369 . S
C207 C208 1.404 . S
C208 H191 0.940 . S
C208 C207 1.404 . S
C208 C209 1.389 . S
C209 H192 0.939 . S
C209 C204 1.400 . S
C209 C208 1.389 . S
C210 P184 1.819 . S
C210 C211 1.391 . S
C210 C215 1.391 . S
C211 H193 0.941 . S
C211 C210 1.391 . S
C211 C212 1.396 . S
C212 H196 0.939 . S
C212 C211 1.396 . S
C212 C213 1.397 . S
C213 C212 1.397 . S
C213 C214 1.385 . S
C214 H197 0.940 . S
C214 C213 1.385 . S
C214 C215 1.388 . S
C215 H194 0.939 . S
C215 C210 1.391 . S
C215 C214 1.388 . S
P216 O227 1.490 . S
P216 C230 1.812 . S
P216 C236 1.803 1_565 S
P216 C242 1.819 . S
H217 C231 0.941 . S
H218 C232 0.939 . S
H219 C234 0.940 . S
H220 C235 0.940 . S
H221 C237 0.939 . S
H222 C238 0.942 . S
H223 C240 0.940 . S
H224 C241 0.939 . S
H225 C243 0.941 . S
H226 C247 0.939 . S
O227 P216 1.490 . S
H228 C244 0.939 . S
H229 C246 0.940 . S
C230 P216 1.812 . S
C230 C231 1.389 . S
C230 C235 1.391 . S
C231 H217 0.941 . S
C231 C230 1.389 . S
C231 C232 1.397 . S
C232 H218 0.939 . S
C232 C231 1.397 . S
C232 C233 1.378 . S
C233 C232 1.378 . S
C233 C234 1.378 . S
C234 H219 0.940 . S
C234 C233 1.378 . S
C234 C235 1.396 . S
C235 H220 0.940 . S
C235 C230 1.391 . S
C235 C234 1.396 . S
C236 P216 1.803 1_545 S
C236 C237 1.378 . S
C236 C241 1.400 . S
C237 H221 0.939 . S
C237 C236 1.378 . S
C237 C238 1.361 . S
C238 H222 0.942 . S
C238 C237 1.361 . S
C238 C239 1.369 . S
C239 C238 1.369 . S
C239 C240 1.404 . S
C240 H223 0.940 . S
C240 C239 1.404 . S
C240 C241 1.389 . S
C241 H224 0.939 . S
C241 C236 1.400 . S
C241 C240 1.389 . S
C242 P216 1.819 . S
C242 C243 1.391 . S
C242 C247 1.391 . S
C243 H225 0.941 . S
C243 C242 1.391 . S
C243 C244 1.396 . S
C244 H228 0.939 . S
C244 C243 1.396 . S
C244 C245 1.397 . S
C245 C244 1.397 . S
C245 C246 1.385 . S
C246 H229 0.940 . S
C246 C245 1.385 . S
C246 C247 1.388 . S
C247 H226 0.939 . S
C247 C242 1.391 . S
C247 C246 1.388 . S
P248 O259 1.490 . S
P248 C262 1.812 . S
P248 C268 1.803 . S
P248 C274 1.819 1_556 S
H249 C263 0.941 . S
H250 C264 0.939 . S
H251 C266 0.940 . S
H252 C267 0.940 . S
H253 C269 0.939 . S
H254 C270 0.942 . S
H255 C272 0.940 . S
H256 C273 0.939 . S
H257 C275 0.941 . S
H258 C279 0.939 . S
O259 P248 1.490 . S
H260 C276 0.939 . S
H261 C278 0.940 . S
C262 P248 1.812 . S
C262 C263 1.389 . S
C262 C267 1.391 . S
C263 H249 0.941 . S
C263 C262 1.389 . S
C263 C264 1.397 . S
C264 H250 0.939 . S
C264 C263 1.397 . S
C264 C265 1.378 . S
C265 C264 1.378 . S
C265 C266 1.378 . S
C266 H251 0.940 . S
C266 C265 1.378 . S
C266 C267 1.396 . S
C267 H252 0.940 . S
C267 C262 1.391 . S
C267 C266 1.396 . S
C268 P248 1.803 . S
C268 C269 1.378 1_556 S
C268 C273 1.400 . S
C269 H253 0.939 . S
C269 C268 1.378 1_554 S
C269 C270 1.361 . S
C270 H254 0.942 . S
C270 C269 1.361 . S
C270 C271 1.369 . S
C271 C270 1.369 . S
C271 C272 1.404 1_554 S
C272 H255 0.940 . S
C272 C271 1.404 1_556 S
C272 C273 1.389 . S
C273 H256 0.939 . S
C273 C268 1.400 . S
C273 C272 1.389 . S
C274 P248 1.819 1_554 S
C274 C275 1.391 . S
C274 C279 1.391 . S
C275 H257 0.941 . S
C275 C274 1.391 . S
C275 C276 1.396 . S
C276 H260 0.939 . S
C276 C275 1.396 . S
C276 C277 1.397 . S
C277 C276 1.397 . S
C277 C278 1.385 . S
C278 H261 0.940 . S
C278 C277 1.385 . S
C278 C279 1.388 . S
C279 H258 0.939 . S
C279 C274 1.391 . S
C279 C278 1.388 . S
P280 O291 1.490 . S
P280 C294 1.812 . S
P280 C300 1.803 1_545 S
P280 C306 1.819 . S
H281 C295 0.941 . S
H282 C296 0.939 . S
H283 C298 0.940 . S
H284 C299 0.940 . S
H285 C301 0.939 . S
H286 C302 0.942 . S
H287 C304 0.940 . S
H288 C305 0.939 . S
H289 C307 0.941 . S
H290 C311 0.939 . S
O291 P280 1.490 . S
H292 C308 0.939 . S
H293 C310 0.940 . S
C294 P280 1.812 . S
C294 C295 1.389 . S
C294 C299 1.391 . S
C295 H281 0.941 . S
C295 C294 1.389 . S
C295 C296 1.397 . S
C296 H282 0.939 . S
C296 C295 1.397 . S
C296 C297 1.378 . S
C297 C296 1.378 . S
C297 C298 1.378 . S
C298 H283 0.940 . S
C298 C297 1.378 . S
C298 C299 1.396 . S
C299 H284 0.940 . S
C299 C294 1.391 . S
C299 C298 1.396 . S
C300 P280 1.803 1_565 S
C300 C301 1.378 . S
C300 C305 1.400 . S
C301 H285 0.939 . S
C301 C300 1.378 . S
C301 C302 1.361 . S
C302 H286 0.942 . S
C302 C301 1.361 . S
C302 C303 1.369 . S
C303 C302 1.369 . S
C303 C304 1.404 . S
C304 H287 0.940 . S
C304 C303 1.404 . S
C304 C305 1.389 . S
C305 H288 0.939 . S
C305 C300 1.400 . S
C305 C304 1.389 . S
C306 P280 1.819 . S
C306 C307 1.391 . S
C306 C311 1.391 . S
C307 H289 0.941 . S
C307 C306 1.391 . S
C307 C308 1.396 . S
C308 H292 0.939 . S
C308 C307 1.396 . S
C308 C309 1.397 . S
C309 C308 1.397 . S
C309 C310 1.385 . S
C310 H293 0.940 . S
C310 C309 1.385 . S
C310 C311 1.388 . S
C311 H290 0.939 . S
C311 C306 1.391 . S
C311 C310 1.388 . S
P312 O323 1.490 . S
P312 C326 1.812 . S
P312 C332 1.803 . S
P312 C338 1.819 1_554 S
H313 C327 0.941 . S
H314 C328 0.939 . S
H315 C330 0.940 . S
H316 C331 0.940 . S
H317 C333 0.939 . S
H318 C334 0.942 . S
H319 C336 0.940 . S
H320 C337 0.939 . S
H321 C339 0.941 . S
H322 C343 0.939 . S
O323 P312 1.490 . S
H324 C340 0.939 . S
H325 C342 0.940 . S
C326 P312 1.812 . S
C326 C327 1.389 . S
C326 C331 1.391 . S
C327 H313 0.941 . S
C327 C326 1.389 . S
C327 C328 1.397 . S
C328 H314 0.939 . S
C328 C327 1.397 . S
C328 C329 1.378 . S
C329 C328 1.378 . S
C329 C330 1.378 . S
C330 H315 0.940 . S
C330 C329 1.378 . S
C330 C331 1.396 . S
C331 H316 0.940 . S
C331 C326 1.391 . S
C331 C330 1.396 . S
C332 P312 1.803 . S
C332 C333 1.378 1_554 S
C332 C337 1.400 . S
C333 H317 0.939 . S
C333 C332 1.378 1_556 S
C333 C334 1.361 . S
C334 H318 0.942 . S
C334 C333 1.361 . S
C334 C335 1.369 1_556 S
C335 C334 1.369 1_554 S
C335 C336 1.404 . S
C336 H319 0.940 . S
C336 C335 1.404 . S
C336 C337 1.389 . S
C337 H320 0.939 . S
C337 C332 1.400 . S
C337 C336 1.389 . S
C338 P312 1.819 1_556 S
C338 C339 1.391 . S
C338 C343 1.391 . S
C339 H321 0.941 . S
C339 C338 1.391 . S
C339 C340 1.396 . S
C340 H324 0.939 . S
C340 C339 1.396 . S
C340 C341 1.397 . S
C341 C340 1.397 . S
C341 C342 1.385 . S
C342 H325 0.940 . S
C342 C341 1.385 . S
C342 C343 1.388 . S
C343 H322 0.939 . S
C343 C338 1.391 . S
C343 C342 1.388 . S
C344 C345 1.369 . S
C344 C346 1.419 . S
C344 H348 0.930 . S
C345 C344 1.369 . S
C345 C354 1.429 . S
C346 C344 1.419 . S
C346 C347 1.363 . S
C346 H349 0.929 . S
C347 C346 1.363 . S
C347 C353 1.428 . S
H348 C344 0.930 . S
H349 C346 0.929 . S
S350 N351 1.613 . S
S350 N352 1.610 . S
N351 S350 1.613 . S
N351 C354 1.350 . S
N352 S350 1.610 . S
N352 C353 1.351 . S
C353 C347 1.428 . S
C353 N352 1.351 . S
C353 C354 1.434 . S
C354 C345 1.429 . S
C354 N351 1.350 . S
C354 C353 1.434 . S
C355 C356 1.369 . S
C355 C357 1.419 . S
C355 H359 0.930 . S
C356 C355 1.369 . S
C356 C365 1.429 . S
C357 C355 1.419 . S
C357 C358 1.363 . S
C357 H360 0.929 . S
C358 C357 1.363 . S
C358 C364 1.428 . S
H359 C355 0.930 . S
H360 C357 0.929 . S
S361 N362 1.613 . S
S361 N363 1.610 . S
N362 S361 1.613 . S
N362 C365 1.350 . S
N363 S361 1.610 . S
N363 C364 1.351 . S
C364 C358 1.428 . S
C364 N363 1.351 . S
C364 C365 1.434 . S
C365 C356 1.429 . S
C365 N362 1.350 . S
C365 C364 1.434 . S
C366 C367 1.369 . S
C366 C368 1.419 . S
C366 H370 0.930 . S
C367 C366 1.369 . S
C367 C376 1.429 . S
C368 C366 1.419 . S
C368 C369 1.363 . S
C368 H371 0.929 . S
C369 C368 1.363 . S
C369 C375 1.428 . S
H370 C366 0.930 . S
H371 C368 0.929 . S
S372 N373 1.613 . S
S372 N374 1.610 . S
N373 S372 1.613 . S
N373 C376 1.350 . S
N374 S372 1.610 . S
N374 C375 1.351 . S
C375 C369 1.428 . S
C375 N374 1.351 . S
C375 C376 1.434 . S
C376 C367 1.429 . S
C376 N373 1.350 . S
C376 C375 1.434 . S
C377 C378 1.369 . S
C377 C379 1.419 . S
C377 H381 0.930 . S
C378 C377 1.369 . S
C378 C387 1.429 . S
C379 C377 1.419 . S
C379 C380 1.363 . S
C379 H382 0.929 . S
C380 C379 1.363 . S
C380 C386 1.428 . S
H381 C377 0.930 . S
H382 C379 0.929 . S
S383 N384 1.613 . S
S383 N385 1.610 . S
N384 S383 1.613 . S
N384 C387 1.350 . S
N385 S383 1.610 . S
N385 C386 1.351 . S
C386 C380 1.428 . S
C386 N385 1.351 . S
C386 C387 1.434 . S
C387 C378 1.429 . S
C387 N384 1.350 . S
C387 C386 1.434 . S
C388 C389 1.369 . S
C388 C390 1.419 . S
C388 H392 0.930 . S
C389 C388 1.369 . S
C389 C398 1.429 . S
C390 C388 1.419 . S
C390 C391 1.363 . S
C390 H393 0.929 . S
C391 C390 1.363 . S
C391 C397 1.428 . S
H392 C388 0.930 . S
H393 C390 0.929 . S
S394 N395 1.613 . S
S394 N396 1.610 . S
N395 S394 1.613 . S
N395 C398 1.350 . S
N396 S394 1.610 . S
N396 C397 1.351 . S
C397 C391 1.428 . S
C397 N396 1.351 . S
C397 C398 1.434 . S
C398 C389 1.429 . S
C398 N395 1.350 . S
C398 C397 1.434 . S
C399 C400 1.369 . S
C399 C401 1.419 . S
C399 H403 0.930 . S
C400 C399 1.369 . S
C400 C409 1.429 . S
C401 C399 1.419 . S
C401 C402 1.363 . S
C401 H404 0.929 . S
C402 C401 1.363 . S
C402 C408 1.428 . S
H403 C399 0.930 . S
H404 C401 0.929 . S
S405 N406 1.613 . S
S405 N407 1.610 . S
N406 S405 1.613 . S
N406 C409 1.350 . S
N407 S405 1.610 . S
N407 C408 1.351 . S
C408 C402 1.428 . S
C408 N407 1.351 . S
C408 C409 1.434 . S
C409 C400 1.429 . S
C409 N406 1.350 . S
C409 C408 1.434 . S
C410 C411 1.369 . S
C410 C412 1.419 . S
C410 H414 0.930 . S
C411 C410 1.369 . S
C411 C420 1.429 . S
C412 C410 1.419 . S
C412 C413 1.363 . S
C412 H415 0.929 . S
C413 C412 1.363 . S
C413 C419 1.428 . S
H414 C410 0.930 . S
H415 C412 0.929 . S
S416 N417 1.613 . S
S416 N418 1.610 . S
N417 S416 1.613 . S
N417 C420 1.350 . S
N418 S416 1.610 . S
N418 C419 1.351 . S
C419 C413 1.428 . S
C419 N418 1.351 . S
C419 C420 1.434 . S
C420 C411 1.429 . S
C420 N417 1.350 . S
C420 C419 1.434 . S
C421 C422 1.369 . S
C421 C423 1.419 . S
C421 H425 0.930 . S
C422 C421 1.369 . S
C422 C431 1.429 . S
C423 C421 1.419 . S
C423 C424 1.363 . S
C423 H426 0.929 . S
C424 C423 1.363 . S
C424 C430 1.428 . S
H425 C421 0.930 . S
H426 C423 0.929 . S
S427 N428 1.613 . S
S427 N429 1.610 . S
N428 S427 1.613 . S
N428 C431 1.350 . S
N429 S427 1.610 . S
N429 C430 1.351 . S
C430 C424 1.428 . S
C430 N429 1.351 . S
C430 C431 1.434 . S
C431 C422 1.429 . S
C431 N428 1.350 . S
C431 C430 1.434 . S
C432 C433 1.369 . S
C432 C434 1.419 . S
C432 H436 0.930 . S
C433 C432 1.369 . S
C433 C442 1.429 . S
C434 C432 1.419 . S
C434 C435 1.363 . S
C434 H437 0.929 . S
C435 C434 1.363 . S
C435 C441 1.428 . S
H436 C432 0.930 . S
H437 C434 0.929 . S
S438 N439 1.613 . S
S438 N440 1.610 . S
N439 S438 1.613 . S
N439 C442 1.350 . S
N440 S438 1.610 . S
N440 C441 1.351 . S
C441 C435 1.428 . S
C441 N440 1.351 . S
C441 C442 1.434 . S
C442 C433 1.429 . S
C442 N439 1.350 . S
C442 C441 1.434 . S
C443 C444 1.369 . S
C443 C445 1.419 . S
C443 H447 0.930 . S
C444 C443 1.369 . S
C444 C453 1.429 . S
C445 C443 1.419 . S
C445 C446 1.363 . S
C445 H448 0.929 . S
C446 C445 1.363 . S
C446 C452 1.428 . S
H447 C443 0.930 . S
H448 C445 0.929 . S
S449 N450 1.613 . S
S449 N451 1.610 . S
N450 S449 1.613 . S
N450 C453 1.350 . S
N451 S449 1.610 . S
N451 C452 1.351 . S
C452 C446 1.428 . S
C452 N451 1.351 . S
C452 C453 1.434 . S
C453 C444 1.429 . S
C453 N450 1.350 . S
C453 C452 1.434 . S
C454 C455 1.369 . S
C454 C456 1.419 . S
C454 H458 0.930 . S
C455 C454 1.369 . S
C455 C464 1.429 . S
C456 C454 1.419 . S
C456 C457 1.363 . S
C456 H459 0.929 . S
C457 C456 1.363 . S
C457 C463 1.428 . S
H458 C454 0.930 . S
H459 C456 0.929 . S
S460 N461 1.613 . S
S460 N462 1.610 . S
N461 S460 1.613 . S
N461 C464 1.350 . S
N462 S460 1.610 . S
N462 C463 1.351 . S
C463 C457 1.428 . S
C463 N462 1.351 . S
C463 C464 1.434 . S
C464 C455 1.429 . S
C464 N461 1.350 . S
C464 C463 1.434 . S
C465 C466 1.369 . S
C465 C467 1.419 . S
C465 H469 0.930 . S
C466 C465 1.369 . S
C466 C475 1.429 . S
C467 C465 1.419 . S
C467 C468 1.363 . S
C467 H470 0.929 . S
C468 C467 1.363 . S
C468 C474 1.428 . S
H469 C465 0.930 . S
H470 C467 0.929 . S
S471 N472 1.613 . S
S471 N473 1.610 . S
N472 S471 1.613 . S
N472 C475 1.350 . S
N473 S471 1.610 . S
N473 C474 1.351 . S
C474 C468 1.428 . S
C474 N473 1.351 . S
C474 C475 1.434 . S
C475 C466 1.429 . S
C475 N472 1.350 . S
C475 C474 1.434 . S
C476 C477 1.369 . S
C476 C478 1.419 . S
C476 H480 0.930 . S
C477 C476 1.369 . S
C477 C486 1.429 . S
C478 C476 1.419 . S
C478 C479 1.363 . S
C478 H481 0.929 . S
C479 C478 1.363 . S
C479 C485 1.428 . S
H480 C476 0.930 . S
H481 C478 0.929 . S
S482 N483 1.613 . S
S482 N484 1.610 . S
N483 S482 1.613 . S
N483 C486 1.350 . S
N484 S482 1.610 . S
N484 C485 1.351 . S
C485 C479 1.428 . S
C485 N484 1.351 . S
C485 C486 1.434 . S
C486 C477 1.429 . S
C486 N483 1.350 . S
C486 C485 1.434 . S
C487 C488 1.369 . S
C487 C489 1.419 . S
C487 H491 0.930 . S
C488 C487 1.369 . S
C488 C497 1.429 . S
C489 C487 1.419 . S
C489 C490 1.363 . S
C489 H492 0.929 . S
C490 C489 1.363 . S
C490 C496 1.428 . S
H491 C487 0.930 . S
H492 C489 0.929 . S
S493 N494 1.613 . S
S493 N495 1.610 . S
N494 S493 1.613 . S
N494 C497 1.350 . S
N495 S493 1.610 . S
N495 C496 1.351 . S
C496 C490 1.428 . S
C496 N495 1.351 . S
C496 C497 1.434 . S
C497 C488 1.429 . S
C497 N494 1.350 . S
C497 C496 1.434 . S
C498 C499 1.369 . S
C498 C500 1.419 . S
C498 H502 0.930 . S
C499 C498 1.369 . S
C499 C508 1.429 . S
C500 C498 1.419 . S
C500 C501 1.363 . S
C500 H503 0.929 . S
C501 C500 1.363 . S
C501 C507 1.428 . S
H502 C498 0.930 . S
H503 C500 0.929 . S
S504 N505 1.613 . S
S504 N506 1.610 . S
N505 S504 1.613 . S
N505 C508 1.350 . S
N506 S504 1.610 . S
N506 C507 1.351 . S
C507 C501 1.428 . S
C507 N506 1.351 . S
C507 C508 1.434 . S
C508 C499 1.429 . S
C508 N505 1.350 . S
C508 C507 1.434 . S
C509 C510 1.369 . S
C509 C511 1.419 . S
C509 H513 0.930 . S
C510 C509 1.369 . S
C510 C519 1.429 . S
C511 C509 1.419 . S
C511 C512 1.363 . S
C511 H514 0.929 . S
C512 C511 1.363 . S
C512 C518 1.428 . S
H513 C509 0.930 . S
H514 C511 0.929 . S
S515 N516 1.613 . S
S515 N517 1.610 . S
N516 S515 1.613 . S
N516 C519 1.350 . S
N517 S515 1.610 . S
N517 C518 1.351 . S
C518 C512 1.428 . S
C518 N517 1.351 . S
C518 C519 1.434 . S
C519 C510 1.429 . S
C519 N516 1.350 . S
C519 C518 1.434 . S
C520 C521 1.364 1_556 S
C520 C522 1.419 . S
C520 H524 0.930 . S
C521 C520 1.364 1_554 S
C521 C530 1.434 . S
C522 C520 1.419 . S
C522 C523 1.363 . S
C522 H525 0.929 . S
C523 C522 1.363 . S
C523 C529 1.429 1_556 S
H524 C520 0.930 . S
H525 C522 0.929 . S
S526 N527 1.613 . S
S526 N528 1.610 . S
N527 S526 1.613 . S
N527 C530 1.350 . S
N528 S526 1.610 . S
N528 C529 1.351 . S
C529 C523 1.429 1_554 S
C529 N528 1.351 . S
C529 C530 1.434 . S
C530 C521 1.434 . S
C530 N527 1.350 . S
C530 C529 1.434 . S
C531 C532 1.369 . S
C531 C533 1.419 . S
C531 H535 0.930 . S
C532 C531 1.369 . S
C532 C541 1.429 . S
C533 C531 1.419 . S
C533 C534 1.363 . S
C533 H536 0.929 . S
C534 C533 1.363 . S
C534 C540 1.428 . S
H535 C531 0.930 . S
H536 C533 0.929 . S
S537 N538 1.613 . S
S537 N539 1.610 . S
N538 S537 1.613 . S
N538 C541 1.350 . S
N539 S537 1.610 . S
N539 C540 1.351 . S
C540 C534 1.428 . S
C540 N539 1.351 . S
C540 C541 1.434 . S
C541 C532 1.429 . S
C541 N538 1.350 . S
C541 C540 1.434 . S
C542 C543 1.369 . S
C542 C544 1.419 . S
C542 H546 0.930 . S
C543 C542 1.369 . S
C543 C552 1.429 1_554 S
C544 C542 1.419 . S
C544 C545 1.363 . S
C544 H547 0.929 . S
C545 C544 1.363 . S
C545 C551 1.428 1_554 S
H546 C542 0.930 . S
H547 C544 0.929 . S
S548 N549 1.613 . S
S548 N550 1.610 . S
N549 S548 1.613 . S
N549 C552 1.350 . S
N550 S548 1.610 . S
N550 C551 1.351 . S
C551 C545 1.428 1_556 S
C551 N550 1.351 . S
C551 C552 1.434 . S
C552 C543 1.429 1_556 S
C552 N549 1.350 . S
C552 C551 1.434 . S
C553 C554 1.369 . S
C553 C555 1.419 . S
C553 H557 0.930 . S
C554 C553 1.369 . S
C554 C563 1.429 . S
C555 C553 1.419 . S
C555 C556 1.363 . S
C555 H558 0.929 . S
C556 C555 1.363 . S
C556 C562 1.428 . S
H557 C553 0.930 . S
H558 C555 0.929 . S
S559 N560 1.613 . S
S559 N561 1.610 . S
N560 S559 1.613 . S
N560 C563 1.350 . S
N561 S559 1.610 . S
N561 C562 1.351 . S
C562 C556 1.428 . S
C562 N561 1.351 . S
C562 C563 1.434 . S
C563 C554 1.429 . S
C563 N560 1.350 . S
C563 C562 1.434 . S
C564 C565 1.369 . S
C564 C566 1.419 . S
C564 H568 0.930 . S
C565 C564 1.369 . S
C565 C574 1.429 . S
C566 C564 1.419 . S
C566 C567 1.363 . S
C566 H569 0.929 . S
C567 C566 1.363 . S
C567 C573 1.428 . S
H568 C564 0.930 . S
H569 C566 0.929 . S
S570 N571 1.613 . S
S570 N572 1.610 . S
N571 S570 1.613 . S
N571 C574 1.350 . S
N572 S570 1.610 . S
N572 C573 1.351 . S
C573 C567 1.428 . S
C573 N572 1.351 . S
C573 C574 1.434 . S
C574 C565 1.429 . S
C574 N571 1.350 . S
C574 C573 1.434 . S
C575 C576 1.369 . S
C575 C577 1.419 . S
C575 H579 0.930 . S
C576 C575 1.369 . S
C576 C585 1.429 1_554 S
C577 C575 1.419 . S
C577 C578 1.363 . S
C577 H580 0.929 . S
C578 C577 1.363 . S
C578 C584 1.428 1_554 S
H579 C575 0.930 . S
H580 C577 0.929 . S
S581 N582 1.613 . S
S581 N583 1.610 . S
N582 S581 1.613 . S
N582 C585 1.350 . S
N583 S581 1.610 . S
N583 C584 1.351 . S
C584 C578 1.428 1_556 S
C584 N583 1.351 . S
C584 C585 1.434 . S
C585 C576 1.429 1_556 S
C585 N582 1.350 . S
C585 C584 1.434 . S
C586 C587 1.369 . S
C586 C588 1.419 . S
C586 H590 0.930 . S
C587 C586 1.369 . S
C587 C596 1.429 . S
C588 C586 1.419 . S
C588 C589 1.363 . S
C588 H591 0.929 . S
C589 C588 1.363 . S
C589 C595 1.428 . S
H590 C586 0.930 . S
H591 C588 0.929 . S
S592 N593 1.613 . S
S592 N594 1.610 . S
N593 S592 1.613 . S
N593 C596 1.350 . S
N594 S592 1.610 . S
N594 C595 1.351 . S
C595 C589 1.428 . S
C595 N594 1.351 . S
C595 C596 1.434 . S
C596 C587 1.429 . S
C596 N593 1.350 . S
C596 C595 1.434 . S
C597 C598 1.368 1_556 S
C597 C599 1.419 . S
C597 H601 0.930 . S
C598 C597 1.368 1_554 S
C598 C607 1.430 . S
C599 C597 1.419 . S
C599 C600 1.364 . S
C599 H602 0.929 . S
C600 C599 1.364 . S
C600 C606 1.428 1_556 S
H601 C597 0.930 . S
H602 C599 0.929 . S
S603 N604 1.613 . S
S603 N605 1.610 . S
N604 S603 1.613 . S
N604 C607 1.350 . S
N605 S603 1.610 . S
N605 C606 1.351 . S
C606 C600 1.428 1_554 S
C606 N605 1.351 . S
C606 C607 1.434 . S
C607 C598 1.430 . S
C607 N604 1.350 . S
C607 C606 1.434 . S
C345 C5 1.496 . S
C347 C201 1.505 . S
C356 C31 1.510 . S
C358 C117 1.433 . S
C369 C149 1.423 . S
C367 C53 1.502 . S
C378 C71 1.490 . S
C380 C169 1.499 . S
C391 C277 1.428 . S
C389 C75 1.510 . S
C402 C297 1.508 . S
C400 C9 1.500 . S
C413 C329 1.500 . S
C411 C27 1.490 . S
C424 C245 1.429 . S
C422 C49 1.502 . S
C433 C51 1.498 . S
C435 C137 1.432 . S
C444 C72 1.509 . S
C446 C181 1.515 . S
C455 C6 1.502 . S
C457 C213 1.508 . S
C468 C105 1.433 . S
C466 C29 1.490 . S
C477 C28 1.514 . S
C479 C341 1.517 . S
C490 C233 1.431 . S
C488 C50 1.497 . S
C501 C265 1.433 . S
C499 C73 1.490 . S
C510 C7 1.506 . S
C512 C309 1.510 . S
C523 C111 1.448 1_556 S
C521 C4 1.520 . S
C534 C143 1.444 . S
C532 C30 1.519 . S
C543 C52 1.519 . S
C545 C175 1.519 . S
C554 C70 1.519 . S
C556 C207 1.519 . S
C567 C239 1.445 . S
C565 C74 1.519 . S
C576 C8 1.520 . S
C578 C271 1.448 . S
C587 C26 1.519 . S
C589 C303 1.519 . S
C598 C48 1.517 . S
C600 C335 1.520 1_556 S
