# Generated by pormake.
# Topology nom, (4,4)-cn, num edge types: 1
# Building blocks:
#     Node 0, Type 0, BuildingBlock: AZAVOO_clean_linker_0, # of connection points: 4
#     Node 1, Type 0, BuildingBlock: AZAVOO_clean_linker_0, # of connection points: 4
#     Node 2, Type 0, BuildingBlock: AZAVOO_clean_linker_0, # of connection points: 4
#     Node 3, Type 0, BuildingBlock: AZAVOO_clean_linker_0, # of connection points: 4
#     Node 4, Type 0, BuildingBlock: AZAVOO_clean_linker_0, # of connection points: 4
#     Node 5, Type 0, BuildingBlock: AZAVOO_clean_linker_0, # of connection points: 4
#     Node 6, Type 1, BuildingBlock: QUQFOY_clean_sbu_1, # of connection points: 4
#     Node 7, Type 1, BuildingBlock: QUQFOY_clean_sbu_1, # of connection points: 4
#     Node 8, Type 1, BuildingBlock: QUQFOY_clean_sbu_1, # of connection points: 4
#     Node 9, Type 1, BuildingBlock: QUQFOY_clean_sbu_1, # of connection points: 4
#     Node 10, Type 1, BuildingBlock: QUQFOY_clean_sbu_1, # of connection points: 4
#     Node 11, Type 1, BuildingBlock: QUQFOY_clean_sbu_1, # of connection points: 4
#     Edge 12, Type (0, 1), BuildingBlock: ZUJKAS_clean_linker_0, # of connection points: 2
#     Edge 13, Type (0, 1), BuildingBlock: ZUJKAS_clean_linker_0, # of connection points: 2
#     Edge 14, Type (0, 1), BuildingBlock: ZUJKAS_clean_linker_0, # of connection points: 2
#     Edge 15, Type (0, 1), BuildingBlock: ZUJKAS_clean_linker_0, # of connection points: 2
#     Edge 16, Type (0, 1), BuildingBlock: ZUJKAS_clean_linker_0, # of connection points: 2
#     Edge 17, Type (0, 1), BuildingBlock: ZUJKAS_clean_linker_0, # of connection points: 2
#     Edge 18, Type (0, 1), BuildingBlock: ZUJKAS_clean_linker_0, # of connection points: 2
#     Edge 19, Type (0, 1), BuildingBlock: ZUJKAS_clean_linker_0, # of connection points: 2
#     Edge 20, Type (0, 1), BuildingBlock: ZUJKAS_clean_linker_0, # of connection points: 2
#     Edge 21, Type (0, 1), BuildingBlock: ZUJKAS_clean_linker_0, # of connection points: 2
#     Edge 22, Type (0, 1), BuildingBlock: ZUJKAS_clean_linker_0, # of connection points: 2
#     Edge 23, Type (0, 1), BuildingBlock: ZUJKAS_clean_linker_0, # of connection points: 2
#     Edge 24, Type (0, 1), BuildingBlock: ZUJKAS_clean_linker_0, # of connection points: 2
#     Edge 25, Type (0, 1), BuildingBlock: ZUJKAS_clean_linker_0, # of connection points: 2
#     Edge 26, Type (0, 1), BuildingBlock: ZUJKAS_clean_linker_0, # of connection points: 2
#     Edge 27, Type (0, 1), BuildingBlock: ZUJKAS_clean_linker_0, # of connection points: 2
#     Edge 28, Type (0, 1), BuildingBlock: ZUJKAS_clean_linker_0, # of connection points: 2
#     Edge 29, Type (0, 1), BuildingBlock: ZUJKAS_clean_linker_0, # of connection points: 2
#     Edge 30, Type (0, 1), BuildingBlock: ZUJKAS_clean_linker_0, # of connection points: 2
#     Edge 31, Type (0, 1), BuildingBlock: ZUJKAS_clean_linker_0, # of connection points: 2
#     Edge 32, Type (0, 1), BuildingBlock: ZUJKAS_clean_linker_0, # of connection points: 2
#     Edge 33, Type (0, 1), BuildingBlock: ZUJKAS_clean_linker_0, # of connection points: 2
#     Edge 34, Type (0, 1), BuildingBlock: ZUJKAS_clean_linker_0, # of connection points: 2
#     Edge 35, Type (0, 1), BuildingBlock: ZUJKAS_clean_linker_0, # of connection points: 2
# Relax obj value: 0.171
# Max RMSD: 0.245
# Mean RMSD: 0.189
data_MOF--net-nom--node1-QUQFOY_clean_sbu_1--node2-AZAVOO_clean_linker_0--edge1-ZUJKAS_clean_linker_0
_symmetry_space_group_name_H-M    P1
_symmetry_Int_Tables_number       1
_symmetry_cell_setting            triclinic
loop_
_symmetry_equiv_pos_as_xyz
'x, y, z'
_cell_length_a     61.659724
_cell_length_b     63.471149
_cell_length_c     71.852613
_cell_angle_alpha  90.169104
_cell_angle_beta   89.808509
_cell_angle_gamma 120.88177
loop_
_atom_site_label
_atom_site_type_symbol
_atom_site_fract_x
_atom_site_fract_y
_atom_site_fract_z
_atom_type_partial_charge
H0 H 0.07146 0.50564 0.19695 0.0
H1 H 0.16634 0.61724 0.39373 0.0
H2 H 0.00543 0.46999 0.28567 0.0
H3 H 0.97389 0.45088 0.26099 0.0
H4 H 0.95389 0.50643 0.2681 0.0
H5 H 0.98576 0.52566 0.2927 0.0
H6 H 0.06451 0.49977 0.27818 0.0
H7 H 0.07059 0.49797 0.24467 0.0
H8 H 0.03927 0.5443 0.23501 0.0
H9 H 0.03361 0.5462 0.26856 0.0
H10 H 0.10292 0.52499 0.31055 0.0
H11 H 0.14687 0.54995 0.29982 0.0
H12 H 0.13018 0.60306 0.27717 0.0
H13 H 0.08657 0.57825 0.28816 0.0
H14 H 0.07957 0.51541 0.35055 0.0
H15 H 0.11249 0.53522 0.37423 0.0
H16 H 0.12668 0.60619 0.35625 0.0
H17 H 0.09348 0.58607 0.33276 0.0
H18 H 0.02578 0.49206 0.36098 0.0
H19 H 0.0372 0.50037 0.39392 0.0
H20 H 0.05635 0.57551 0.38615 0.0
H21 H 0.04441 0.56685 0.35348 0.0
H22 H 0.97694 0.46755 0.32632 0.0
H23 H 0.9339 0.45373 0.33726 0.0
H24 H 0.95539 0.52921 0.34722 0.0
H25 H 0.99791 0.54277 0.33582 0.0
O26 O 0.06901 0.5067 0.21016 0.0
O27 O 0.05261 0.53041 0.20594 0.0
O28 O 0.14565 0.57206 0.39283 0.0
O29 O 0.15389 0.60903 0.38405 0.0
C30 C 0.01983 0.5128 0.30356 0.0
C31 C 0.04463 0.52385 0.29613 0.0
C32 C 0.06573 0.53616 0.30799 0.0
C33 C 0.0621 0.537 0.32727 0.0
C34 C 0.03739 0.52681 0.33461 0.0
C35 C 0.01621 0.51493 0.32277 0.0
C36 C 0.99791 0.49923 0.29092 0.0
C37 C 0.99393 0.47779 0.28211 0.0
C38 C 0.97605 0.467 0.26798 0.0
C39 C 0.96165 0.47734 0.26254 0.0
C40 C 0.96465 0.49802 0.27211 0.0
C41 C 0.98277 0.50898 0.28615 0.0
C42 C 0.04855 0.52304 0.27578 0.0
C43 C 0.05908 0.5096 0.2688 0.0
C44 C 0.06247 0.50855 0.24965 0.0
C45 C 0.05537 0.52095 0.23715 0.0
C46 C 0.04491 0.5345 0.24424 0.0
C47 C 0.0416 0.53558 0.26339 0.0
C48 C 0.09166 0.54988 0.30015 0.0
C49 C 0.10879 0.54191 0.30312 0.0
C50 C 0.13378 0.5561 0.29692 0.0
C51 C 0.14197 0.57852 0.28777 0.0
C52 C 0.12449 0.58603 0.28439 0.0
C53 C 0.09957 0.57183 0.29053 0.0
C54 C 0.08419 0.54932 0.33997 0.0
C55 C 0.09003 0.53524 0.35162 0.0
C56 C 0.10877 0.5466 0.36517 0.0
C57 C 0.12211 0.57229 0.36722 0.0
C58 C 0.11672 0.58637 0.35509 0.0
C59 C 0.0979 0.57497 0.34158 0.0
C60 C 0.03446 0.52891 0.35488 0.0
C61 C 0.03119 0.50993 0.36666 0.0
C62 C 0.03808 0.51483 0.38538 0.0
C63 C 0.04824 0.53875 0.39251 0.0
C64 C 0.04853 0.55689 0.38114 0.0
C65 C 0.04163 0.55196 0.36246 0.0
C66 C 0.99053 0.50615 0.3303 0.0
C67 C 0.97229 0.48103 0.33093 0.0
C68 C 0.94779 0.47319 0.33726 0.0
C69 C 0.94118 0.49039 0.34302 0.0
C70 C 0.95972 0.51551 0.34262 0.0
C71 C 0.9841 0.52329 0.3363 0.0
C72 C 0.05887 0.5197 0.21681 0.0
C73 C 0.14127 0.58435 0.38213 0.0
H74 H 0.47992 0.08121 0.37195 0.0
H75 H 0.44158 0.1784 0.55611 0.0
H76 H 0.46787 0.03145 0.46629 0.0
H77 H 0.46655 0.00066 0.44508 0.0
H78 H 0.38498 0.95999 0.44805 0.0
H79 H 0.38651 0.99107 0.46941 0.0
H80 H 0.48163 0.08213 0.45334 0.0
H81 H 0.48857 0.08616 0.41967 0.0
H82 H 0.40802 0.04038 0.41088 0.0
H83 H 0.40133 0.03674 0.44459 0.0
H84 H 0.48834 0.11638 0.4878 0.0
H85 H 0.50749 0.15659 0.47307 0.0
H86 H 0.43865 0.13276 0.4421 0.0
H87 H 0.41921 0.09284 0.45771 0.0
H88 H 0.47638 0.10036 0.52631 0.0
H89 H 0.4836 0.13449 0.54646 0.0
H90 H 0.41747 0.13171 0.5234 0.0
H91 H 0.41021 0.09726 0.50356 0.0
H92 H 0.46102 0.04524 0.5321 0.0
H93 H 0.46974 0.0553 0.56493 0.0
H94 H 0.40597 0.06593 0.56854 0.0
H95 H 0.39752 0.05596 0.53539 0.0
H96 H 0.44852 0.00561 0.50477 0.0
H97 H 0.43111 0.96448 0.51806 0.0
H98 H 0.36039 0.96123 0.52852 0.0
H99 H 0.37779 0.0021 0.51488 0.0
O100 O 0.47673 0.07944 0.38522 0.0
O101 O 0.43519 0.05568 0.38145 0.0
O102 O 0.47282 0.16538 0.55985 0.0
O103 O 0.43929 0.16506 0.54819 0.0
C104 C 0.42862 0.03381 0.48043 0.0
C105 C 0.43674 0.05671 0.47183 0.0
C106 C 0.44129 0.07715 0.4827 0.0
C107 C 0.43743 0.07458 0.50214 0.0
C108 C 0.42897 0.05155 0.51072 0.0
C109 C 0.42421 0.03107 0.49982 0.0
C110 C 0.42729 0.01355 0.4692 0.0
C111 C 0.44973 0.01577 0.46248 0.0
C112 C 0.44893 0.99825 0.45034 0.0
C113 C 0.42565 0.9781 0.44476 0.0
C114 C 0.40317 0.97529 0.45219 0.0
C115 C 0.40399 0.99299 0.46432 0.0
C116 C 0.44097 0.05929 0.45138 0.0
C117 C 0.46551 0.07314 0.44411 0.0
C118 C 0.46942 0.07534 0.42488 0.0
C119 C 0.44885 0.06361 0.41257 0.0
C120 C 0.42428 0.04966 0.41995 0.0
C121 C 0.4204 0.04754 0.43919 0.0
C122 C 0.45233 0.10176 0.47395 0.0
C123 C 0.47728 0.11997 0.47803 0.0
C124 C 0.4883 0.14284 0.46938 0.0
C125 C 0.4747 0.1479 0.45626 0.0
C126 C 0.44959 0.1296 0.45227 0.0
C127 C 0.43849 0.10674 0.46108 0.0
C128 C 0.44265 0.09622 0.5136 0.0
C129 C 0.46346 0.10713 0.52566 0.0
C130 C 0.46756 0.12664 0.53713 0.0
C131 C 0.45105 0.13578 0.53659 0.0
C132 C 0.4305 0.12508 0.52421 0.0
C133 C 0.42635 0.10547 0.51281 0.0
C134 C 0.42881 0.0501 0.53133 0.0
C135 C 0.44827 0.04872 0.54014 0.0
C136 C 0.45325 0.05454 0.55896 0.0
C137 C 0.43879 0.06183 0.56932 0.0
C138 C 0.41772 0.06082 0.56086 0.0
C139 C 0.41271 0.05492 0.54199 0.0
C140 C 0.41432 0.00671 0.50871 0.0
C141 C 0.42927 0.99597 0.50994 0.0
C142 C 0.41936 0.97258 0.51766 0.0
C143 C 0.39432 0.95954 0.52426 0.0
C144 C 0.37961 0.97063 0.52331 0.0
C145 C 0.38955 0.99402 0.51564 0.0
C146 C 0.45307 0.06594 0.39215 0.0
C147 C 0.45514 0.1563 0.54892 0.0
H148 H 0.57543 0.55655 0.77795 0.0
H149 H 0.59989 0.48223 0.57852 0.0
H150 H 0.5623 0.60807 0.68992 0.0
H151 H 0.54414 0.62105 0.7145 0.0
H152 H 0.46936 0.56253 0.69927 0.0
H153 H 0.48782 0.54949 0.67479 0.0
H154 H 0.59083 0.57793 0.69825 0.0
H155 H 0.59202 0.57358 0.732 0.0
H156 H 0.51123 0.52301 0.73229 0.0
H157 H 0.51037 0.52729 0.69852 0.0
H158 H 0.61033 0.55841 0.66558 0.0
H159 H 0.62637 0.53201 0.67575 0.0
H160 H 0.55013 0.47461 0.68893 0.0
H161 H 0.53432 0.50087 0.67844 0.0
H162 H 0.60539 0.57534 0.62606 0.0
H163 H 0.62416 0.5602 0.6036 0.0
H164 H 0.56128 0.48628 0.61168 0.0
H165 H 0.5426 0.50176 0.63397 0.0
H166 H 0.5781 0.59956 0.61464 0.0
H167 H 0.58678 0.59721 0.58163 0.0
H168 H 0.52542 0.52167 0.58025 0.0
H169 H 0.51677 0.52439 0.61298 0.0
H170 H 0.54672 0.61703 0.65006 0.0
H171 H 0.52062 0.63309 0.63844 0.0
H172 H 0.46631 0.561 0.61752 0.0
H173 H 0.49234 0.54516 0.62925 0.0
O174 O 0.57455 0.55792 0.7646 0.0
O175 O 0.53296 0.53217 0.764 0.0
O176 O 0.62553 0.52682 0.58461 0.0
O177 O 0.59301 0.48866 0.5875 0.0
C178 C 0.5378 0.56784 0.66793 0.0
C179 C 0.54987 0.55592 0.67551 0.0
C180 C 0.56098 0.54635 0.66361 0.0
C181 C 0.56055 0.54921 0.64421 0.0
C182 C 0.5479 0.56052 0.63662 0.0
C183 C 0.53628 0.56966 0.64842 0.0
C184 C 0.52636 0.57785 0.68066 0.0
C185 C 0.54197 0.5984 0.69166 0.0
C186 C 0.53155 0.60582 0.70562 0.0
C187 C 0.50533 0.59272 0.70884 0.0
C188 C 0.48964 0.5728 0.69719 0.0
C189 C 0.50009 0.56546 0.68315 0.0
C190 C 0.55051 0.55304 0.69598 0.0
C191 C 0.57344 0.56588 0.70564 0.0
C192 C 0.57405 0.56339 0.72491 0.0
C193 C 0.55171 0.548 0.73486 0.0
C194 C 0.52877 0.53506 0.72507 0.0
C195 C 0.52821 0.53752 0.7058 0.0
C196 C 0.57119 0.5315 0.67128 0.0
C197 C 0.59719 0.54019 0.67081 0.0
C198 C 0.6063 0.52515 0.67667 0.0
C199 C 0.58948 0.50117 0.68299 0.0
C200 C 0.56351 0.49284 0.68386 0.0
C201 C 0.55446 0.50787 0.67805 0.0
C202 C 0.57269 0.53963 0.63162 0.0
C203 C 0.59579 0.55588 0.62302 0.0
C204 C 0.60644 0.54717 0.61019 0.0
C205 C 0.59419 0.52201 0.60582 0.0
C206 C 0.57119 0.50575 0.6147 0.0
C207 C 0.56053 0.51451 0.6275 0.0
C208 C 0.5469 0.56211 0.61614 0.0
C209 C 0.56578 0.58294 0.60692 0.0
C210 C 0.5709 0.58145 0.58816 0.0
C211 C 0.5571 0.55911 0.57845 0.0
C212 C 0.53632 0.53919 0.58726 0.0
C213 C 0.53127 0.5407 0.60598 0.0
C214 C 0.5215 0.57996 0.6404 0.0
C215 C 0.52926 0.60479 0.64286 0.0
C216 C 0.51431 0.6139 0.63628 0.0
C217 C 0.49145 0.59833 0.627 0.0
C218 C 0.48401 0.57356 0.62432 0.0
C219 C 0.49884 0.56446 0.63102 0.0
C220 C 0.5524 0.54548 0.75535 0.0
C221 C 0.60527 0.51274 0.59201 0.0
H222 H 0.03976 0.41907 0.94775 0.0
H223 H 0.178 0.48627 0.76199 0.0
H224 H 0.99646 0.43972 0.85599 0.0
H225 H 0.96016 0.42456 0.87677 0.0
H226 H 0.93303 0.35053 0.85754 0.0
H227 H 0.96993 0.36606 0.83676 0.0
H228 H 0.04869 0.45442 0.8714 0.0
H229 H 0.04818 0.44684 0.90481 0.0
H230 H 0.01398 0.36913 0.89387 0.0
H231 H 0.01487 0.37702 0.86046 0.0
H232 H 0.08954 0.48112 0.83994 0.0
H233 H 0.1297 0.49852 0.85648 0.0
H234 H 0.11527 0.42546 0.86713 0.0
H235 H 0.07506 0.4081 0.85022 0.0
H236 H 0.07888 0.48479 0.80106 0.0
H237 H 0.11818 0.50643 0.78319 0.0
H238 H 0.12656 0.443 0.78737 0.0
H239 H 0.08694 0.4214 0.80494 0.0
H240 H 0.02174 0.46413 0.79261 0.0
H241 H 0.03589 0.48683 0.76337 0.0
H242 H 0.0615 0.43851 0.74452 0.0
H243 H 0.04656 0.41542 0.77361 0.0
H244 H 0.97721 0.43532 0.81791 0.0
H245 H 0.93594 0.41918 0.80317 0.0
H246 H 0.9467 0.36587 0.77344 0.0
H247 H 0.98753 0.38159 0.78883 0.0
O248 O 0.03982 0.42166 0.93447 0.0
O249 O 0.02209 0.38187 0.92811 0.0
O250 O 0.15708 0.51017 0.76714 0.0
O251 O 0.16246 0.47818 0.76911 0.0
C252 C 0.00928 0.41355 0.83389 0.0
C253 C 0.03221 0.42088 0.84325 0.0
C254 C 0.05533 0.43324 0.83348 0.0
C255 C 0.05548 0.43791 0.81427 0.0
C256 C 0.03247 0.43024 0.8048 0.0
C257 C 0.00933 0.41787 0.81459 0.0
C258 C 0.98574 0.40398 0.84492 0.0
C259 C 0.98249 0.42027 0.85608 0.0
C260 C 0.96166 0.41157 0.86785 0.0
C261 C 0.94365 0.38634 0.86873 0.0
C262 C 0.94667 0.37005 0.8572 0.0
C263 C 0.96757 0.37885 0.84529 0.0
C264 C 0.03196 0.41628 0.86354 0.0
C265 C 0.04124 0.4358 0.87625 0.0
C266 C 0.04086 0.4314 0.89533 0.0
C267 C 0.03107 0.40738 0.90202 0.0
C268 C 0.02167 0.38785 0.88919 0.0
C269 C 0.02213 0.39229 0.87012 0.0
C270 C 0.07957 0.44338 0.84368 0.0
C271 C 0.09516 0.46887 0.84568 0.0
C272 C 0.11804 0.47876 0.85513 0.0
C273 C 0.12564 0.46333 0.86297 0.0
C274 C 0.10978 0.43774 0.86128 0.0
C275 C 0.08694 0.42783 0.8516 0.0
C276 C 0.07996 0.45145 0.80413 0.0
C277 C 0.08919 0.47558 0.79804 0.0
C278 C 0.11168 0.48792 0.78788 0.0
C279 C 0.12549 0.47641 0.7838 0.0
C280 C 0.11637 0.45237 0.79022 0.0
C281 C 0.09379 0.44001 0.8003 0.0
C282 C 0.03335 0.43828 0.78529 0.0
C283 C 0.02934 0.45775 0.78183 0.0
C284 C 0.03776 0.47091 0.76523 0.0
C285 C 0.05034 0.4648 0.75185 0.0
C286 C 0.05187 0.44366 0.75453 0.0
C287 C 0.04333 0.43042 0.77114 0.0
C288 C 0.98517 0.40938 0.80464 0.0
C289 C 0.97059 0.42012 0.80824 0.0
C290 C 0.94714 0.41103 0.79965 0.0
C291 C 0.93793 0.39113 0.78718 0.0
C292 C 0.95302 0.38093 0.7832 0.0
C293 C 0.97642 0.38998 0.79186 0.0
C294 C 0.03067 0.40277 0.92229 0.0
C295 C 0.14928 0.48935 0.77286 0.0
H296 H 0.40863 0.99229 0.87155 0.0
H297 H 0.43404 0.88457 0.05809 0.0
H298 H 0.44119 0.05075 0.96079 0.0
H299 H 0.45826 0.0852 0.93883 0.0
H300 H 0.53385 0.10105 0.95055 0.0
H301 H 0.51667 0.06621 0.97194 0.0
H302 H 0.40852 0.99266 0.95296 0.0
H303 H 0.40093 0.98947 0.91938 0.0
H304 H 0.48085 0.02021 0.90951 0.0
H305 H 0.48811 0.02302 0.94312 0.0
H306 H 0.39497 0.95203 0.98179 0.0
H307 H 0.37682 0.91054 0.96883 0.0
H308 H 0.45082 0.9294 0.94861 0.0
H309 H 0.46837 0.97075 0.96107 0.0
H310 H 0.40708 0.96514 0.02173 0.0
H311 H 0.39558 0.93012 0.0422 0.0
H312 H 0.46318 0.93058 0.02518 0.0
H313 H 0.4744 0.96559 0.0048 0.0
H314 H 0.43619 0.01216 0.03939 0.0
H315 H 0.44069 0.00105 0.0711 0.0
H316 H 0.51048 0.00515 0.05526 0.0
H317 H 0.50502 0.01495 0.02345 0.0
H318 H 0.45904 0.06881 0.0069 0.0
H319 H 0.4857 0.10993 0.02028 0.0
H320 H 0.54808 0.09719 0.0231 0.0
H321 H 0.52138 0.05636 0.00985 0.0
O322 O 0.41204 0.99363 0.88477 0.0
O323 O 0.45331 0.00964 0.88045 0.0
O324 O 0.40292 0.89805 0.05765 0.0
O325 O 0.43775 0.89794 0.04973 0.0
C326 C 0.46729 0.03348 0.9795 0.0
C327 C 0.45335 0.01016 0.97085 0.0
C328 C 0.44458 0.98862 0.98149 0.0
C329 C 0.44955 0.99031 0.00072 0.0
C330 C 0.46372 0.01353 0.00933 0.0
C331 C 0.47259 0.03514 0.99878 0.0
C332 C 0.4777 0.05606 0.96804 0.0
C333 C 0.46144 0.06186 0.95876 0.0
C334 C 0.47118 0.08145 0.94625 0.0
C335 C 0.49735 0.09576 0.94307 0.0
C336 C 0.51364 0.09052 0.95295 0.0
C337 C 0.50387 0.07069 0.9652 0.0
C338 C 0.44886 0.00819 0.95045 0.0
C339 C 0.42433 0.99863 0.94351 0.0
C340 C 0.42007 0.99687 0.92433 0.0
C341 C 0.4403 0.00464 0.91175 0.0
C342 C 0.46486 0.01411 0.9188 0.0
C343 C 0.46907 0.0158 0.93798 0.0
C344 C 0.43291 0.96432 0.97225 0.0
C345 C 0.40706 0.94719 0.97427 0.0
C346 C 0.39681 0.9235 0.96698 0.0
C347 C 0.41233 0.91659 0.95765 0.0
C348 C 0.43816 0.93415 0.95535 0.0
C349 C 0.4483 0.95778 0.96254 0.0
C350 C 0.44149 0.96777 0.0118 0.0
C351 C 0.4192 0.95744 0.02232 0.0
C352 C 0.41275 0.93752 0.03403 0.0
C353 C 0.42853 0.92761 0.03538 0.0
C354 C 0.45063 0.93778 0.0245 0.0
C355 C 0.45704 0.95769 0.01279 0.0
C356 C 0.47037 0.01453 0.02921 0.0
C357 C 0.45289 0.01151 0.043 0.0
C358 C 0.4555 0.00513 0.0611 0.0
C359 C 0.47576 0.00184 0.06565 0.0
C360 C 0.4944 0.00705 0.05213 0.0
C361 C 0.49158 0.0131 0.03402 0.0
C362 C 0.48817 0.05948 0.00773 0.0
C363 C 0.4784 0.07489 0.01062 0.0
C364 C 0.49367 0.09837 0.01814 0.0
C365 C 0.51895 0.10675 0.02289 0.0
C366 C 0.52855 0.09112 0.02001 0.0
C367 C 0.51332 0.06775 0.01247 0.0
C368 C 0.43572 0.00283 0.89138 0.0
C369 C 0.42219 0.90696 0.04825 0.0
H370 H 0.65521 0.62885 0.01983 0.0
H371 H 0.73097 0.58626 0.21175 0.0
H372 H 0.6065 0.63761 0.11417 0.0
H373 H 0.58604 0.65255 0.09344 0.0
H374 H 0.64757 0.72698 0.10182 0.0
H375 H 0.668 0.71172 0.12283 0.0
H376 H 0.63497 0.61271 0.09971 0.0
H377 H 0.63801 0.61222 0.06576 0.0
H378 H 0.69593 0.68918 0.06658 0.0
H379 H 0.69287 0.68933 0.10055 0.0
H380 H 0.64588 0.5889 0.13399 0.0
H381 H 0.65993 0.56253 0.12043 0.0
H382 H 0.72789 0.62668 0.10048 0.0
H383 H 0.71371 0.65305 0.11429 0.0
H384 H 0.63882 0.59723 0.17344 0.0
H385 H 0.65206 0.57536 0.19409 0.0
H386 H 0.73016 0.62703 0.18027 0.0
H387 H 0.71665 0.64905 0.15994 0.0
H388 H 0.61427 0.62856 0.18132 0.0
H389 H 0.6088 0.61424 0.2134 0.0
H390 H 0.68986 0.65575 0.22085 0.0
H391 H 0.69496 0.67119 0.18915 0.0
H392 H 0.59961 0.64985 0.15096 0.0
H393 H 0.57917 0.66996 0.16576 0.0
H394 H 0.65147 0.72648 0.18705 0.0
H395 H 0.67178 0.70619 0.17211 0.0
O396 O 0.65432 0.62945 0.03326 0.0
O397 O 0.6839 0.66905 0.03444 0.0
O398 O 0.68479 0.56871 0.21048 0.0
O399 O 0.72521 0.59441 0.20352 0.0
C400 C 0.6511 0.6638 0.1317 0.0
C401 C 0.66203 0.65133 0.12316 0.0
C402 C 0.67041 0.63855 0.13419 0.0
C403 C 0.66875 0.63903 0.15376 0.0
C404 C 0.6586 0.65225 0.16235 0.0
C405 C 0.64949 0.6644 0.1513 0.0
C406 C 0.63865 0.67361 0.11994 0.0
C407 C 0.61543 0.65716 0.11167 0.0
C408 C 0.60372 0.66574 0.09996 0.0
C409 C 0.61515 0.69094 0.09616 0.0
C410 C 0.6384 0.70747 0.10456 0.0
C411 C 0.65001 0.69885 0.11653 0.0
C412 C 0.66382 0.65101 0.10256 0.0
C413 C 0.6484 0.62939 0.09253 0.0
C414 C 0.65013 0.62919 0.07314 0.0
C415 C 0.66725 0.65065 0.06345 0.0
C416 C 0.68257 0.67232 0.0736 0.0
C417 C 0.68086 0.67247 0.09299 0.0
C418 C 0.67891 0.62286 0.12529 0.0
C419 C 0.66384 0.59726 0.12675 0.0
C420 C 0.6719 0.58225 0.11902 0.0
C421 C 0.69507 0.59257 0.1095 0.0
C422 C 0.70987 0.61824 0.10765 0.0
C423 C 0.70188 0.6333 0.11556 0.0
C424 C 0.6768 0.62485 0.16534 0.0
C425 C 0.65878 0.60381 0.17491 0.0
C426 C 0.66639 0.59132 0.18667 0.0
C427 C 0.69219 0.59951 0.18889 0.0
C428 C 0.71016 0.62029 0.17892 0.0
C429 C 0.70251 0.63285 0.16725 0.0
C430 C 0.65504 0.65065 0.18284 0.0
C431 C 0.63074 0.63559 0.19019 0.0
C432 C 0.62769 0.62709 0.20844 0.0
C433 C 0.64893 0.6332 0.2195 0.0
C434 C 0.67307 0.65063 0.21277 0.0
C435 C 0.67606 0.65947 0.19461 0.0
C436 C 0.63722 0.67676 0.16025 0.0
C437 C 0.61106 0.66673 0.15864 0.0
C438 C 0.59943 0.67822 0.16711 0.0
C439 C 0.61373 0.69987 0.17751 0.0
C440 C 0.63993 0.70972 0.17926 0.0
C441 C 0.65157 0.69826 0.17068 0.0
C442 C 0.66906 0.65037 0.04286 0.0
C443 C 0.7004 0.58654 0.20161 0.0
O444 O 0.61974 0.45464 0.41455 0.0
Cd445 Cd 0.62475 0.43892 0.39107 0.0
Cd446 Cd 0.67306 0.47075 0.39838 0.0
O447 O 0.65963 0.47628 0.4231 0.0
O448 O 0.59231 0.40726 0.38813 0.0
O449 O 0.62875 0.40962 0.39381 0.0
C450 C 0.60459 0.39626 0.39145 0.0
C451 C 0.70688 0.46406 0.39763 0.0
C452 C 0.63647 0.46886 0.4261 0.0
C453 C 0.65113 0.4792 0.36385 0.0
O454 O 0.66934 0.48788 0.37534 0.0
O455 O 0.63157 0.45827 0.36665 0.0
O456 O 0.71012 0.48537 0.40141 0.0
O457 O 0.68406 0.44612 0.39491 0.0
O458 O 0.2275 0.61731 0.60047 0.0
Cd459 Cd 0.24967 0.63241 0.57711 0.0
Cd460 Cd 0.23646 0.66613 0.58279 0.0
O461 O 0.22042 0.64719 0.60711 0.0
O462 O 0.26811 0.61437 0.57481 0.0
O463 O 0.2874 0.65427 0.58019 0.0
C464 C 0.28876 0.63476 0.5781 0.0
C465 C 0.26468 0.70838 0.58229 0.0
C466 C 0.21784 0.62649 0.61098 0.0
C467 C 0.21722 0.63595 0.54797 0.0
O468 O 0.21606 0.65122 0.55878 0.0
O469 O 0.23105 0.62716 0.55211 0.0
O470 O 0.24084 0.69935 0.58512 0.0
O471 O 0.27272 0.69325 0.58048 0.0
O472 O 0.61858 0.22871 0.76974 0.0
Cd473 Cd 0.63285 0.24045 0.74344 0.0
Cd474 Cd 0.60419 0.26102 0.74428 0.0
O475 O 0.59844 0.24901 0.77155 0.0
O476 O 0.66542 0.24114 0.74196 0.0
O477 O 0.66258 0.27449 0.74028 0.0
C478 C 0.67652 0.26472 0.74061 0.0
C479 C 0.61257 0.30074 0.7387 0.0
C480 C 0.60528 0.23516 0.77891 0.0
C481 C 0.59104 0.22089 0.71596 0.0
O482 O 0.58522 0.23551 0.72346 0.0
O483 O 0.61035 0.2204 0.72144 0.0
O484 O 0.59032 0.28319 0.74324 0.0
O485 O 0.6304 0.29581 0.73745 0.0
O486 O 0.46144 0.68801 0.93571 0.0
Cd487 Cd 0.43687 0.68239 0.91423 0.0
Cd488 Cd 0.4171 0.6351 0.92382 0.0
O489 O 0.44269 0.64961 0.94532 0.0
O490 O 0.44074 0.7149 0.90911 0.0
O491 O 0.40553 0.68334 0.92025 0.0
C492 C 0.41791 0.706 0.91502 0.0
C493 C 0.37418 0.6089 0.92894 0.0
C494 C 0.45988 0.67203 0.94713 0.0
C495 C 0.43833 0.64894 0.88537 0.0
O496 O 0.4296 0.63243 0.89783 0.0
O497 O 0.44184 0.6701 0.88888 0.0
O498 O 0.38988 0.60129 0.93055 0.0
O499 O 0.38316 0.63185 0.92528 0.0
O500 O 0.79886 0.35961 0.04306 0.0
Cd501 Cd 0.77962 0.36021 0.06649 0.0
Cd502 Cd 0.80086 0.40783 0.0576 0.0
O503 O 0.81034 0.39686 0.03345 0.0
O504 O 0.7537 0.32537 0.07141 0.0
O505 O 0.74419 0.3532 0.06298 0.0
C506 C 0.73676 0.3307 0.06715 0.0
C507 C 0.78196 0.43146 0.05614 0.0
C508 C 0.80895 0.3764 0.03083 0.0
C509 C 0.81624 0.39629 0.09388 0.0
O510 O 0.82128 0.41243 0.0815 0.0
O511 O 0.79891 0.37414 0.09115 0.0
O512 O 0.80564 0.44071 0.05251 0.0
O513 O 0.76868 0.40833 0.06003 0.0
O514 O 0.46932 0.86245 0.23703 0.0
Cd515 Cd 0.46839 0.84079 0.25871 0.0
Cd516 Cd 0.41792 0.81784 0.25424 0.0
O517 O 0.42826 0.8415 0.23194 0.0
O518 O 0.50081 0.84114 0.2584 0.0
O519 O 0.46366 0.80795 0.25245 0.0
C520 C 0.48794 0.81826 0.25371 0.0
C521 C 0.3842 0.77766 0.25042 0.0
C522 C 0.45026 0.85892 0.22771 0.0
C523 C 0.43963 0.84353 0.29092 0.0
O524 O 0.4204 0.83191 0.28051 0.0
O525 O 0.46132 0.84866 0.28516 0.0
O526 O 0.38089 0.7961 0.25082 0.0
O527 O 0.40702 0.78202 0.2517 0.0
H528 H 0.17121 0.6278 0.29323 0.0
H529 H 0.21532 0.65495 0.28431 0.0
H530 H 0.21811 0.59324 0.26201 0.0
H531 H 0.17359 0.56579 0.27075 0.0
H532 H 0.2588 0.64961 0.29544 0.0
H533 H 0.24232 0.64673 0.21896 0.0
H534 H 0.21725 0.63884 0.23558 0.0
H535 H 0.22868 0.61831 0.23172 0.0
C536 C 0.18111 0.62 0.28628 0.0
C537 C 0.16888 0.59471 0.28252 0.0
C538 C 0.20634 0.6355 0.28133 0.0
C539 C 0.21984 0.62608 0.27242 0.0
C540 C 0.20788 0.60082 0.26877 0.0
H541 H 0.38263 0.73441 0.2576 0.0
H542 H 0.34462 0.69354 0.26096 0.0
C543 C 0.18257 0.5852 0.27385 0.0
C544 C 0.24638 0.64313 0.26696 0.0
H545 H 0.28282 0.67562 0.22986 0.0
C546 C 0.26431 0.65497 0.28108 0.0
C547 C 0.25328 0.65003 0.24822 0.0
C548 C 0.23447 0.63797 0.23265 0.0
C549 C 0.2887 0.6745 0.27703 0.0
C550 C 0.29528 0.68218 0.25835 0.0
C551 C 0.27773 0.6695 0.24413 0.0
C552 C 0.31862 0.70556 0.25376 0.0
C553 C 0.30668 0.68784 0.29286 0.0
C554 C 0.31655 0.7255 0.24792 0.0
C555 C 0.33806 0.7487 0.24603 0.0
C556 C 0.36212 0.75241 0.24983 0.0
C557 C 0.36433 0.73211 0.25462 0.0
C558 C 0.34267 0.70881 0.25661 0.0
H559 H 0.29755 0.68131 0.30668 0.0
H560 H 0.32293 0.68494 0.29198 0.0
H561 H 0.31418 0.70788 0.29187 0.0
H562 H 0.29815 0.72334 0.24564 0.0
H563 H 0.33573 0.76391 0.24218 0.0
H564 H 0.52346 0.17551 0.4437 0.0
H565 H 0.54418 0.21667 0.43035 0.0
H566 H 0.47395 0.21601 0.43301 0.0
H567 H 0.45335 0.17534 0.44732 0.0
H568 H 0.53587 0.23493 0.39877 0.0
H569 H 0.52111 0.27844 0.46082 0.0
H570 H 0.51543 0.24759 0.4612 0.0
H571 H 0.49237 0.25364 0.45137 0.0
C572 C 0.51245 0.18421 0.44168 0.0
C573 C 0.4868 0.17223 0.44688 0.0
C574 C 0.52428 0.20766 0.43386 0.0
C575 C 0.51075 0.21962 0.43102 0.0
C576 C 0.48491 0.20736 0.43548 0.0
H577 H 0.55366 0.36442 0.39046 0.0
H578 H 0.53076 0.32076 0.39819 0.0
C579 C 0.47308 0.18396 0.44345 0.0
C580 C 0.52388 0.24506 0.4237 0.0
H581 H 0.53842 0.30342 0.43411 0.0
C582 C 0.53646 0.24992 0.4065 0.0
C583 C 0.52476 0.26463 0.43388 0.0
C584 C 0.51292 0.26093 0.45292 0.0
C585 C 0.54967 0.27378 0.39912 0.0
C586 C 0.55035 0.2932 0.40924 0.0
C587 C 0.53769 0.28838 0.42636 0.0
C588 C 0.56438 0.31886 0.40255 0.0
C589 C 0.5626 0.27808 0.38049 0.0
C590 C 0.5909 0.33213 0.40226 0.0
C591 C 0.60411 0.35718 0.39795 0.0
C592 C 0.59097 0.36929 0.39386 0.0
C593 C 0.56439 0.35566 0.39352 0.0
C594 C 0.55123 0.33072 0.39794 0.0
H595 H 0.55645 0.26063 0.3729 0.0
H596 H 0.55873 0.29015 0.37171 0.0
H597 H 0.58334 0.28748 0.38262 0.0
H598 H 0.60136 0.32332 0.40601 0.0
H599 H 0.62457 0.36717 0.39836 0.0
H600 H 0.47894 0.6281 0.64597 0.0
H601 H 0.44843 0.63996 0.6368 0.0
H602 H 0.43528 0.6006 0.5851 0.0
H603 H 0.46609 0.58904 0.59399 0.0
H604 H 0.43927 0.64863 0.5824 0.0
H605 H 0.37138 0.58706 0.63634 0.0
H606 H 0.40267 0.60907 0.64427 0.0
H607 H 0.3981 0.58478 0.62891 0.0
C608 C 0.46991 0.62236 0.6325 0.0
C609 C 0.47477 0.60746 0.62076 0.0
C610 C 0.45237 0.62901 0.62735 0.0
C611 C 0.43943 0.62092 0.61038 0.0
C612 C 0.44503 0.60696 0.59828 0.0
H613 H 0.2964 0.59631 0.57463 0.0
H614 H 0.3346 0.5955 0.58178 0.0
C615 C 0.46248 0.60023 0.60344 0.0
C616 C 0.41889 0.62558 0.60569 0.0
H617 H 0.35871 0.60934 0.61785 0.0
C618 C 0.42171 0.64024 0.59021 0.0
C619 C 0.39595 0.61436 0.61582 0.0
C620 C 0.39161 0.59777 0.63219 0.0
C621 C 0.40205 0.64385 0.58453 0.0
C622 C 0.3791 0.63252 0.59463 0.0
C623 C 0.37641 0.61809 0.6102 0.0
C624 C 0.35696 0.63407 0.58872 0.0
C625 C 0.40557 0.65907 0.56746 0.0
C626 C 0.357 0.65616 0.59003 0.0
C627 C 0.33508 0.65671 0.58596 0.0
C628 C 0.31281 0.63514 0.58056 0.0
C629 C 0.31318 0.61325 0.57875 0.0
C630 C 0.33499 0.61272 0.58286 0.0
H631 H 0.42296 0.66349 0.55961 0.0
H632 H 0.38903 0.64926 0.55807 0.0
H633 H 0.40698 0.67655 0.57172 0.0
H634 H 0.37371 0.67277 0.59474 0.0
H635 H 0.33537 0.67383 0.58755 0.0
H636 H 0.91505 0.41545 0.77388 0.0
H637 H 0.87188 0.39749 0.76205 0.0
H638 H 0.85979 0.32489 0.7698 0.0
H639 H 0.90266 0.34258 0.78192 0.0
H640 H 0.84236 0.33328 0.73446 0.0
H641 H 0.80832 0.36146 0.79617 0.0
H642 H 0.8361 0.38521 0.78469 0.0
H643 H 0.8373 0.36092 0.79644 0.0
C644 C 0.90317 0.39566 0.77315 0.0
C645 C 0.91229 0.38046 0.77894 0.0
C646 C 0.87856 0.38545 0.76633 0.0
C647 C 0.86263 0.35989 0.76523 0.0
C648 C 0.87184 0.34468 0.77052 0.0
H649 H 0.7103 0.24917 0.74207 0.0
H650 H 0.75604 0.27423 0.74549 0.0
C651 C 0.8964 0.35484 0.77737 0.0
C652 C 0.83607 0.3488 0.7591 0.0
H653 H 0.77874 0.3396 0.77265 0.0
C654 C 0.82845 0.33478 0.74271 0.0
C655 C 0.81806 0.35093 0.76987 0.0
C656 C 0.82517 0.36528 0.78785 0.0
C657 C 0.80313 0.32252 0.7369 0.0
C658 C 0.78493 0.32393 0.74803 0.0
C659 C 0.79273 0.33857 0.76412 0.0
C660 C 0.75747 0.30899 0.74407 0.0
C661 C 0.79614 0.30819 0.71893 0.0
C662 C 0.74295 0.32016 0.74231 0.0
C663 C 0.71666 0.30582 0.74052 0.0
C664 C 0.70444 0.28005 0.74058 0.0
C665 C 0.71911 0.26896 0.74188 0.0
C666 C 0.74533 0.28328 0.7437 0.0
H667 H 0.81257 0.3154 0.70931 0.0
H668 H 0.7899 0.28875 0.72198 0.0
H669 H 0.78048 0.3087 0.71178 0.0
H670 H 0.75193 0.33997 0.7427 0.0
H671 H 0.7059 0.31492 0.73958 0.0
H672 H 0.37759 0.874 0.97521 0.0
H673 H 0.3655 0.83203 0.96681 0.0
H674 H 0.41337 0.859 0.91824 0.0
H675 H 0.42427 0.90077 0.92584 0.0
H676 H 0.37056 0.81556 0.91124 0.0
H677 H 0.41482 0.80981 0.97697 0.0
H678 H 0.38894 0.81487 0.97993 0.0
H679 H 0.4177 0.83806 0.9691 0.0
C680 C 0.38502 0.87097 0.96246 0.0
C681 C 0.40229 0.89086 0.95137 0.0
C682 C 0.37833 0.84697 0.95782 0.0
C683 C 0.3891 0.84247 0.9422 0.0
C684 C 0.40503 0.86206 0.93048 0.0
H685 H 0.43418 0.74977 0.8979 0.0
H686 H 0.42018 0.77885 0.90373 0.0
C687 C 0.41147 0.88599 0.93496 0.0
C688 C 0.38561 0.81787 0.93869 0.0
H689 H 0.40018 0.77674 0.95632 0.0
C690 C 0.37669 0.80689 0.9212 0.0
C691 C 0.39365 0.80656 0.95171 0.0
C692 C 0.40451 0.81796 0.97042 0.0
C693 C 0.37658 0.78546 0.91611 0.0
C694 C 0.3856 0.77483 0.92884 0.0
C695 C 0.39313 0.78495 0.94667 0.0
C696 C 0.39079 0.75542 0.9232 0.0
C697 C 0.36758 0.77475 0.89697 0.0
C698 C 0.37874 0.73253 0.93213 0.0
C699 C 0.38663 0.71575 0.92873 0.0
C700 C 0.40704 0.72193 0.91668 0.0
C701 C 0.41845 0.74453 0.9073 0.0
C702 C 0.41035 0.76109 0.9105 0.0
H703 H 0.355 0.78067 0.89092 0.0
H704 H 0.38416 0.78116 0.88763 0.0
H705 H 0.35733 0.75438 0.89738 0.0
H706 H 0.3638 0.72799 0.94215 0.0
H707 H 0.37756 0.6985 0.93621 0.0
H708 H 0.69454 0.55422 0.12688 0.0
H709 H 0.70892 0.52745 0.11456 0.0
H710 H 0.73008 0.56777 0.06298 0.0
H711 H 0.71555 0.59465 0.07518 0.0
H712 H 0.69892 0.51134 0.06155 0.0
H713 H 0.78667 0.55229 0.10402 0.0
H714 H 0.75806 0.54505 0.11613 0.0
H715 H 0.77058 0.56863 0.09872 0.0
C716 C 0.7021 0.55729 0.11286 0.0
C717 C 0.70392 0.5765 0.10197 0.0
C718 C 0.7104 0.54208 0.10591 0.0
C719 C 0.7206 0.54576 0.08793 0.0
C720 C 0.72227 0.56474 0.07691 0.0
H721 H 0.80506 0.48003 0.04736 0.0
H722 H 0.78915 0.50773 0.05262 0.0
C723 C 0.71413 0.58012 0.08392 0.0
C724 C 0.72977 0.52985 0.08085 0.0
H725 H 0.77559 0.51577 0.0876 0.0
C726 C 0.71577 0.51236 0.06711 0.0
C727 C 0.75183 0.53145 0.08807 0.0
C728 C 0.76785 0.55046 0.10246 0.0
C729 C 0.723 0.4959 0.06071 0.0
C730 C 0.74463 0.49697 0.06839 0.0
C731 C 0.75894 0.51492 0.08179 0.0
C732 C 0.75275 0.47951 0.06304 0.0
C733 C 0.70753 0.47759 0.04577 0.0
C734 C 0.73737 0.45436 0.0669 0.0
C735 C 0.7464 0.43841 0.06389 0.0
C736 C 0.77104 0.44744 0.0571 0.0
C737 C 0.78602 0.47249 0.05264 0.0
C738 C 0.77697 0.48837 0.05563 0.0
H739 H 0.69574 0.48322 0.03804 0.0
H740 H 0.71987 0.47526 0.03572 0.0
H741 H 0.69471 0.45951 0.05231 0.0
H742 H 0.71877 0.44723 0.07295 0.0
H743 H 0.73445 0.41924 0.06754 0.0
H744 H 0.3475 0.91984 0.5174 0.0
H745 H 0.32924 0.87818 0.52959 0.0
H746 H 0.39804 0.89995 0.55961 0.0
H747 H 0.41633 0.94192 0.54777 0.0
H748 H 0.34869 0.84621 0.52514 0.0
H749 H 0.3413 0.86654 0.59949 0.0
H750 H 0.34545 0.88743 0.58093 0.0
H751 H 0.37173 0.88503 0.5887 0.0
C752 C 0.35866 0.91587 0.52678 0.0
C753 C 0.38332 0.93424 0.53171 0.0
C754 C 0.34825 0.89202 0.53363 0.0
C755 C 0.36219 0.88606 0.54564 0.0
C756 C 0.38686 0.90427 0.55055 0.0
H757 H 0.31446 0.73303 0.57156 0.0
H758 H 0.34076 0.77676 0.56395 0.0
C759 C 0.39734 0.92816 0.54364 0.0
C760 C 0.35091 0.86062 0.55266 0.0
H761 H 0.32865 0.82559 0.59194 0.0
C762 C 0.34447 0.84168 0.53976 0.0
C763 C 0.34528 0.85483 0.57173 0.0
C764 C 0.35108 0.87443 0.58606 0.0
C765 C 0.33227 0.81703 0.54536 0.0
C766 C 0.32662 0.81121 0.56443 0.0
C767 C 0.33327 0.83017 0.57737 0.0
C768 C 0.31202 0.78541 0.57089 0.0
C769 C 0.32467 0.79732 0.53076 0.0
C770 C 0.28755 0.77604 0.57798 0.0
C771 C 0.27253 0.75116 0.58237 0.0
C772 C 0.28177 0.73517 0.57985 0.0
C773 C 0.30676 0.74484 0.5736 0.0
C774 C 0.32176 0.76978 0.56916 0.0
H775 H 0.32615 0.80455 0.51645 0.0
H776 H 0.33725 0.78966 0.53168 0.0
H777 H 0.30496 0.78209 0.5331 0.0
H778 H 0.27971 0.78782 0.57948 0.0
H779 H 0.25342 0.74435 0.58723 0.0
H780 H 0.63087 0.51168 0.7041 0.0
H781 H 0.64478 0.48331 0.7135 0.0
H782 H 0.58245 0.42478 0.68341 0.0
H783 H 0.56885 0.45298 0.67365 0.0
H784 H 0.61714 0.44095 0.73438 0.0
H785 H 0.64207 0.41863 0.66614 0.0
H786 H 0.63863 0.44497 0.66963 0.0
H787 H 0.61124 0.41502 0.66593 0.0
C788 C 0.62041 0.49285 0.69925 0.0
C789 C 0.59872 0.48452 0.68819 0.0
C790 C 0.62832 0.47668 0.70467 0.0
C791 C 0.61488 0.45205 0.69891 0.0
C792 C 0.59342 0.44382 0.68769 0.0
H793 H 0.57966 0.31679 0.74362 0.0
H794 H 0.58554 0.35657 0.73532 0.0
C795 C 0.58547 0.45989 0.68234 0.0
C796 C 0.62186 0.43428 0.70565 0.0
H797 H 0.63183 0.38887 0.69064 0.0
C798 C 0.62087 0.42989 0.72485 0.0
C799 C 0.62717 0.42015 0.69325 0.0
C800 C 0.63012 0.4251 0.6726 0.0
C801 C 0.62323 0.41055 0.73186 0.0
C802 C 0.62631 0.39507 0.7193 0.0
C803 C 0.62916 0.40058 0.70023 0.0
C804 C 0.62389 0.3717 0.72542 0.0
C805 C 0.62169 0.40644 0.7526 0.0
C806 C 0.64341 0.36683 0.72234 0.0
C807 C 0.64008 0.34395 0.72705 0.0
C808 C 0.61704 0.32551 0.73467 0.0
C809 C 0.59766 0.33059 0.73783 0.0
C810 C 0.60105 0.35341 0.73322 0.0
H811 H 0.62763 0.42373 0.76036 0.0
H812 H 0.60183 0.39305 0.75652 0.0
H813 H 0.63368 0.39898 0.75702 0.0
H814 H 0.6611 0.38066 0.71616 0.0
H815 H 0.65532 0.34054 0.72439 0.0
H816 H 0.17105 0.5008 0.85103 0.0
H817 H 0.21141 0.52016 0.86748 0.0
H818 H 0.17636 0.46983 0.9132 0.0
H819 H 0.13563 0.45037 0.8968 0.0
H820 H 0.20719 0.52227 0.92288 0.0
H821 H 0.25685 0.49008 0.87694 0.0
H822 H 0.24093 0.50287 0.86465 0.0
H823 H 0.22281 0.47516 0.87789 0.0
C824 C 0.17193 0.49384 0.86458 0.0
C825 C 0.15023 0.47412 0.87267 0.0
C826 C 0.195 0.50478 0.87389 0.0
C827 C 0.19683 0.49625 0.89144 0.0
C828 C 0.17527 0.47654 0.89959 0.0
H829 H 0.34984 0.55945 0.93502 0.0
H830 H 0.30502 0.5296 0.93021 0.0
C831 C 0.15213 0.4654 0.8902 0.0
C832 C 0.22126 0.50869 0.90135 0.0
H833 H 0.28283 0.52464 0.8964 0.0
C834 C 0.2237 0.52249 0.91733 0.0
C835 C 0.24259 0.50865 0.89419 0.0
C836 C 0.24071 0.49321 0.87757 0.0
C837 C 0.24735 0.53746 0.92572 0.0
C838 C 0.269 0.53874 0.91775 0.0
C839 C 0.26624 0.52378 0.90243 0.0
C840 C 0.29494 0.55682 0.92397 0.0
C841 C 0.24902 0.55208 0.94279 0.0
C842 C 0.30402 0.58205 0.92246 0.0
C843 C 0.32962 0.59918 0.92521 0.0
C844 C 0.34663 0.59132 0.92935 0.0
C845 C 0.33724 0.5661 0.93181 0.0
C846 C 0.31163 0.549 0.92907 0.0
H847 H 0.23078 0.54337 0.95047 0.0
H848 H 0.26408 0.55405 0.95235 0.0
H849 H 0.25356 0.5707 0.9385 0.0
H850 H 0.29158 0.58848 0.91816 0.0
H851 H 0.33626 0.61846 0.92316 0.0
H852 H 0.55344 0.121 0.05101 0.0
H853 H 0.58425 0.16274 0.06071 0.0
H854 H 0.55304 0.19137 0.02149 0.0
H855 H 0.52266 0.14954 0.01117 0.0
H856 H 0.60357 0.21312 0.01814 0.0
H857 H 0.57998 0.21303 0.09235 0.0
H858 H 0.58386 0.18756 0.08695 0.0
H859 H 0.55862 0.18965 0.07628 0.0
C860 C 0.553 0.13616 0.04452 0.0
C861 C 0.53568 0.13195 0.03025 0.0
C862 C 0.5704 0.16002 0.05028 0.0
C863 C 0.57067 0.18019 0.04207 0.0
C864 C 0.55297 0.17605 0.02816 0.0
H865 H 0.69731 0.33342 0.05235 0.0
H866 H 0.65403 0.29926 0.04707 0.0
C867 C 0.53555 0.15214 0.02234 0.0
C868 C 0.59118 0.20547 0.04667 0.0
H869 H 0.62292 0.24316 0.08327 0.0
C870 C 0.60748 0.21998 0.03232 0.0
C871 C 0.59621 0.2144 0.06517 0.0
C872 C 0.57856 0.20042 0.08102 0.0
C873 C 0.62959 0.24241 0.03612 0.0
C874 C 0.63537 0.25061 0.05476 0.0
C875 C 0.61844 0.23675 0.06901 0.0
C876 C 0.66023 0.27196 0.05984 0.0
C877 C 0.64741 0.25645 0.02034 0.0
C878 C 0.67765 0.26798 0.0693 0.0
C879 C 0.70226 0.28733 0.07229 0.0
C880 C 0.70988 0.31109 0.06598 0.0
C881 C 0.69201 0.31531 0.05734 0.0
C882 C 0.66734 0.29583 0.05425 0.0
H883 H 0.64168 0.24597 0.00707 0.0
H884 H 0.64775 0.27392 0.01819 0.0
H885 H 0.66691 0.26108 0.02379 0.0
H886 H 0.67247 0.24967 0.07373 0.0
H887 H 0.71551 0.2835 0.0791 0.0
H888 H 0.57779 0.70781 0.16264 0.0
H889 H 0.55697 0.72755 0.17744 0.0
H890 H 0.60083 0.7396 0.22717 0.0
H891 H 0.62143 0.7194 0.21259 0.0
H892 H 0.54765 0.71983 0.23329 0.0
H893 H 0.59071 0.80217 0.18778 0.0
H894 H 0.57576 0.77334 0.17559 0.0
H895 H 0.60321 0.78201 0.18956 0.0
C896 C 0.58291 0.71452 0.17677 0.0
C897 C 0.6013 0.71209 0.18644 0.0
C898 C 0.57115 0.72598 0.18514 0.0
C899 C 0.57759 0.73526 0.2033 0.0
C900 C 0.59572 0.73266 0.21309 0.0
H901 H 0.5386 0.83551 0.25444 0.0
H902 H 0.56039 0.8146 0.24383 0.0
C903 C 0.60758 0.72128 0.2047 0.0
C904 C 0.56523 0.74754 0.2121 0.0
H905 H 0.55756 0.79686 0.20777 0.0
C906 C 0.54987 0.73673 0.22779 0.0
C907 C 0.56843 0.76971 0.20499 0.0
C908 C 0.58559 0.78267 0.18865 0.0
C909 C 0.53714 0.74726 0.23634 0.0
C910 C 0.5397 0.76901 0.22886 0.0
C911 C 0.5555 0.78008 0.2134 0.0
C912 C 0.52619 0.78069 0.23676 0.0
C913 C 0.52126 0.73519 0.2534 0.0
C914 C 0.4997 0.76847 0.23643 0.0
C915 C 0.48714 0.78038 0.2425 0.0
C916 C 0.5009 0.80476 0.24891 0.0
C917 C 0.52742 0.81672 0.24961 0.0
C918 C 0.53993 0.80482 0.24352 0.0
H919 H 0.52624 0.72245 0.26004 0.0
H920 H 0.52352 0.74915 0.26381 0.0
H921 H 0.50106 0.72444 0.24934 0.0
H922 H 0.48876 0.74998 0.23096 0.0
H923 H 0.46671 0.77069 0.24171 0.0
H924 H 0.91329 0.51119 0.33419 0.0
H925 H 0.87119 0.49965 0.34535 0.0
H926 H 0.8671 0.43949 0.37614 0.0
H927 H 0.90974 0.45142 0.36545 0.0
H928 H 0.82516 0.45548 0.34125 0.0
H929 H 0.85221 0.47747 0.41573 0.0
H930 H 0.87534 0.48758 0.39728 0.0
H931 H 0.85942 0.45621 0.40488 0.0
C932 C 0.90357 0.49563 0.34347 0.0
C933 C 0.91501 0.48241 0.34912 0.0
C934 C 0.87941 0.48893 0.34971 0.0
C935 C 0.86616 0.46891 0.36176 0.0
C936 C 0.87718 0.45523 0.36708 0.0
H937 H 0.70737 0.42291 0.38637 0.0
H938 H 0.74456 0.41983 0.37913 0.0
C939 C 0.90143 0.46193 0.36082 0.0
C940 C 0.84098 0.46287 0.3688 0.0
H941 H 0.8101 0.46421 0.40793 0.0
C942 C 0.8217 0.45705 0.35586 0.0
C943 C 0.83667 0.46513 0.38786 0.0
C944 C 0.85699 0.4721 0.40229 0.0
C945 C 0.79849 0.45424 0.36135 0.0
C946 C 0.79432 0.45694 0.38036 0.0
C947 C 0.8133 0.46196 0.3934 0.0
C948 C 0.77165 0.45744 0.38662 0.0
C949 C 0.77915 0.44972 0.34662 0.0
C950 C 0.77458 0.47925 0.39396 0.0
C951 C 0.75348 0.48102 0.3982 0.0
C952 C 0.72895 0.46096 0.39524 0.0
C953 C 0.72601 0.43872 0.38872 0.0
C954 C 0.74722 0.43697 0.38447 0.0
H955 H 0.78714 0.45258 0.33234 0.0
H956 H 0.76318 0.4305 0.34766 0.0
H957 H 0.77152 0.46206 0.34871 0.0
H958 H 0.79326 0.49524 0.39578 0.0
H959 H 0.75644 0.49838 0.40329 0.0
H960 H 0.08076 0.52515 0.40532 0.0
H961 H 0.10811 0.54084 0.43254 0.0
H962 H 0.07638 0.5856 0.44663 0.0
H963 H 0.04828 0.56937 0.41963 0.0
H964 H 0.14418 0.5897 0.43815 0.0
H965 H 0.07516 0.55412 0.49648 0.0
H966 H 0.06693 0.54208 0.47311 0.0
H967 H 0.06889 0.57054 0.47906 0.0
C968 C 0.07896 0.53771 0.41453 0.0
C969 C 0.06211 0.5458 0.41044 0.0
C970 C 0.09483 0.54687 0.42997 0.0
C971 C 0.09411 0.56419 0.44169 0.0
C972 C 0.07691 0.5719 0.43794 0.0
H973 H 0.18426 0.64963 0.5358 0.0
H974 H 0.15541 0.63309 0.50937 0.0
C975 C 0.061 0.56274 0.42246 0.0
C976 C 0.11257 0.57537 0.45705 0.0
H977 H 0.11773 0.58326 0.50417 0.0
C978 C 0.13842 0.5882 0.4526 0.0
C979 C 0.10496 0.57346 0.47586 0.0
C980 C 0.07749 0.55913 0.48149 0.0
C981 C 0.15691 0.59943 0.46646 0.0
C982 C 0.14931 0.59748 0.48526 0.0
C983 C 0.12346 0.58474 0.48971 0.0
C984 C 0.16785 0.60836 0.50059 0.0
C985 C 0.18439 0.61368 0.46084 0.0
C986 C 0.18448 0.59998 0.50434 0.0
C987 C 0.20105 0.6094 0.51944 0.0
C988 C 0.20117 0.6273 0.53111 0.0
C989 C 0.18472 0.6359 0.52709 0.0
C990 C 0.16816 0.62644 0.51202 0.0
H991 H 0.18677 0.61852 0.44583 0.0
H992 H 0.19492 0.63082 0.46913 0.0
H993 H 0.19299 0.60232 0.46347 0.0
H994 H 0.18423 0.58573 0.49584 0.0
H995 H 0.21336 0.60228 0.52218 0.0
H996 H 0.45943 0.04851 0.59742 0.0
H997 H 0.48234 0.07314 0.62465 0.0
H998 H 0.46236 0.12684 0.61005 0.0
H999 H 0.44018 0.10289 0.58253 0.0
H1000 H 0.52395 0.12627 0.61819 0.0
H1001 H 0.44959 0.1138 0.66867 0.0
H1002 H 0.44436 0.09084 0.65144 0.0
H1003 H 0.44506 0.11832 0.64457 0.0
C1004 C 0.45959 0.06537 0.60015 0.0
C1005 C 0.44802 0.07374 0.58775 0.0
C1006 C 0.47258 0.07934 0.61574 0.0
C1007 C 0.47389 0.10168 0.61933 0.0
C1008 C 0.46122 0.10944 0.60761 0.0
H1009 H 0.5533 0.22181 0.69678 0.0
H1010 H 0.5254 0.19268 0.67323 0.0
C1011 C 0.4484 0.09561 0.59195 0.0
C1012 C 0.49087 0.11827 0.63396 0.0
H1013 H 0.49175 0.14414 0.67582 0.0
C1014 C 0.517 0.13008 0.63088 0.0
C1015 C 0.48159 0.12335 0.65028 0.0
C1016 C 0.45362 0.11087 0.65411 0.0
C1017 C 0.53422 0.14731 0.6436 0.0
C1018 C 0.525 0.15226 0.6601 0.0
C1019 C 0.49879 0.14029 0.66319 0.0
C1020 C 0.54223 0.17002 0.67423 0.0
C1021 C 0.56203 0.16062 0.63888 0.0
C1022 C 0.56089 0.1669 0.68268 0.0
C1023 C 0.5771 0.18371 0.69595 0.0
C1024 C 0.57464 0.20371 0.70129 0.0
C1025 C 0.55573 0.20663 0.69296 0.0
C1026 C 0.53972 0.18996 0.67954 0.0
H1027 H 0.56521 0.16018 0.62369 0.0
H1028 H 0.57167 0.18008 0.64348 0.0
H1029 H 0.57095 0.15152 0.64604 0.0
H1030 H 0.56276 0.1513 0.67915 0.0
H1031 H 0.59124 0.18074 0.70227 0.0
H1032 H 0.51645 0.63799 0.72131 0.0
H1033 H 0.50284 0.64752 0.75066 0.0
H1034 H 0.45728 0.57025 0.76292 0.0
H1035 H 0.47101 0.56057 0.7338 0.0
H1036 H 0.45015 0.62855 0.76559 0.0
H1037 H 0.50952 0.60324 0.80704 0.0
H1038 H 0.51478 0.61039 0.78253 0.0
H1039 H 0.48902 0.58122 0.79001 0.0
C1040 C 0.50338 0.62305 0.73021 0.0
C1041 C 0.49484 0.59855 0.72531 0.0
C1042 C 0.49557 0.62851 0.74688 0.0
C1043 C 0.47931 0.60957 0.75894 0.0
C1044 C 0.46999 0.58508 0.75379 0.0
H1045 H 0.42858 0.60455 0.872 0.0
H1046 H 0.43759 0.59524 0.84092 0.0
C1047 C 0.47768 0.5796 0.7371 0.0
C1048 C 0.47306 0.61541 0.77736 0.0
H1049 H 0.48337 0.61366 0.82378 0.0
C1050 C 0.4574 0.62538 0.77835 0.0
C1051 C 0.48261 0.61117 0.79387 0.0
C1052 C 0.50008 0.60108 0.79344 0.0
C1053 C 0.45061 0.63084 0.79558 0.0
C1054 C 0.46027 0.62671 0.81213 0.0
C1055 C 0.47599 0.61678 0.81107 0.0
C1056 C 0.4543 0.63246 0.83075 0.0
C1057 C 0.43269 0.64039 0.79592 0.0
C1058 C 0.46098 0.65654 0.83539 0.0
C1059 C 0.45577 0.66192 0.85313 0.0
C1060 C 0.44404 0.64335 0.86662 0.0
C1061 C 0.43764 0.61929 0.86196 0.0
C1062 C 0.44274 0.61392 0.8442 0.0
H1063 H 0.42173 0.6361 0.78279 0.0
H1064 H 0.41924 0.63251 0.80776 0.0
H1065 H 0.44369 0.66065 0.79756 0.0
H1066 H 0.47048 0.67124 0.82536 0.0
H1067 H 0.46109 0.68067 0.8563 0.0
H1068 H 0.9265 0.3469 0.89205 0.0
H1069 H 0.89664 0.33599 0.91793 0.0
H1070 H 0.88534 0.3955 0.90315 0.0
H1071 H 0.91431 0.40586 0.87696 0.0
H1072 H 0.90466 0.36598 0.94691 0.0
H1073 H 0.81395 0.3422 0.91418 0.0
H1074 H 0.8397 0.3435 0.90113 0.0
H1075 H 0.83912 0.37111 0.90584 0.0
C1076 C 0.917 0.35712 0.89396 0.0
C1077 C 0.92281 0.3773 0.88252 0.0
C1078 C 0.90007 0.35097 0.90882 0.0
C1079 C 0.88854 0.36475 0.91237 0.0
C1080 C 0.89354 0.38424 0.90047 0.0
H1081 H 0.82733 0.40634 0.00043 0.0
H1082 H 0.84459 0.39967 0.97187 0.0
C1083 C 0.91036 0.39035 0.88563 0.0
C1084 C 0.87379 0.36089 0.92967 0.0
H1085 H 0.81949 0.35615 0.94623 0.0
C1086 C 0.88579 0.36326 0.94678 0.0
C1087 C 0.84919 0.35736 0.92949 0.0
C1088 C 0.83466 0.35314 0.91165 0.0
C1089 C 0.87447 0.36364 0.96365 0.0
C1090 C 0.85049 0.36145 0.96335 0.0
C1091 C 0.83798 0.358 0.94635 0.0
C1092 C 0.83902 0.36459 0.98042 0.0
C1093 C 0.88873 0.36766 0.9816 0.0
C1094 C 0.83 0.34692 0.99458 0.0
C1095 C 0.82006 0.35063 0.01096 0.0
C1096 C 0.81908 0.37214 0.01342 0.0
C1097 C 0.82791 0.38964 -0.00095 0.0
C1098 C 0.83769 0.38584 0.98269 0.0
H1099 H 0.90844 0.37207 0.97919 0.0
H1100 H 0.88921 0.38283 0.98969 0.0
H1101 H 0.87888 0.35078 0.9902 0.0
H1102 H 0.83075 0.33032 0.99299 0.0
H1103 H 0.81336 0.33675 0.02172 0.0
H1104 H 0.4885 0.96703 0.07125 0.0
H1105 H 0.48554 0.94538 0.09992 0.0
H1106 H 0.45841 0.98691 0.12905 0.0
H1107 H 0.46257 0.00974 0.10049 0.0
H1108 H 0.49242 0.98092 0.14981 0.0
H1109 H 0.41844 0.8919 0.12052 0.0
H1110 H 0.44675 0.90622 0.10675 0.0
H1111 H 0.42839 0.92079 0.10917 0.0
C1112 C 0.48249 0.97207 0.08382 0.0
C1113 C 0.47583 0.99022 0.08356 0.0
C1114 C 0.48043 0.95936 0.10015 0.0
C1115 C 0.47122 0.96416 0.11649 0.0
C1116 C 0.46535 0.98279 0.11651 0.0
H1117 H 0.41349 0.86195 0.209 0.0
H1118 H 0.41874 0.88889 0.18303 0.0
C1119 C 0.46759 0.9957 0.10017 0.0
C1120 C 0.46723 0.94928 0.13338 0.0
H1121 H 0.43686 0.89026 0.14917 0.0
C1122 C 0.48016 0.96111 0.14975 0.0
C1123 C 0.45087 0.92348 0.13332 0.0
C1124 C 0.43512 0.90986 0.11656 0.0
C1125 C 0.47766 0.94774 0.16596 0.0
C1126 C 0.46226 0.92182 0.16562 0.0
C1127 C 0.44889 0.91009 0.14936 0.0
C1128 C 0.45948 0.90639 0.18195 0.0
C1129 C 0.49123 0.96154 0.18336 0.0
C1130 C 0.48064 0.90716 0.18991 0.0
C1131 C 0.47772 0.8919 0.20489 0.0
C1132 C 0.45354 0.8753 0.21197 0.0
C1133 C 0.43238 0.87446 0.20386 0.0
C1134 C 0.43534 0.88987 0.18902 0.0
H1135 H 0.49574 0.98087 0.18294 0.0
H1136 H 0.47976 0.95261 0.19599 0.0
H1137 H 0.50931 0.96181 0.18454 0.0
H1138 H 0.49938 0.91928 0.18436 0.0
H1139 H 0.49438 0.89286 0.21074 0.0
H1140 H 0.61747 0.58398 0.22436 0.0
H1141 H 0.61678 0.55877 0.25001 0.0
H1142 H 0.67555 0.62325 0.27765 0.0
H1143 H 0.67544 0.64897 0.25239 0.0
H1144 H 0.65608 0.55372 0.25949 0.0
H1145 H 0.62701 0.58797 0.32013 0.0
H1146 H 0.62343 0.59503 0.29643 0.0
H1147 H 0.6537 0.61161 0.30769 0.0
C1148 C 0.62961 0.59302 0.23619 0.0
C1149 C 0.64633 0.61861 0.23637 0.0
C1150 C 0.6294 0.57848 0.25075 0.0
C1151 C 0.64596 0.58912 0.2658 0.0
C1152 C 0.66227 0.61469 0.26634 0.0
H1153 H 0.68677 0.52703 0.35676 0.0
H1154 H 0.68606 0.55346 0.3324 0.0
C1155 C 0.66235 0.62934 0.2518 0.0
C1156 C 0.64742 0.57312 0.28007 0.0
H1157 H 0.64201 0.56089 0.32664 0.0
C1158 C 0.65286 0.5552 0.27416 0.0
C1159 C 0.64329 0.57516 0.2992 0.0
C1160 C 0.6363 0.59332 0.30626 0.0
C1161 C 0.65441 0.53934 0.28689 0.0
C1162 C 0.65038 0.54146 0.30597 0.0
C1163 C 0.64513 0.55944 0.31195 0.0
C1164 C 0.65137 0.52502 0.31996 0.0
C1165 C 0.66065 0.5206 0.27994 0.0
C1166 C 0.63216 0.50026 0.32085 0.0
C1167 C 0.63241 0.48508 0.33478 0.0
C1168 C 0.65195 0.49446 0.34802 0.0
C1169 C 0.67149 0.51918 0.34676 0.0
C1170 C 0.6711 0.53435 0.33291 0.0
H1171 H 0.6674 0.52406 0.26529 0.0
H1172 H 0.67537 0.52061 0.28882 0.0
H1173 H 0.64349 0.50204 0.28073 0.0
H1174 H 0.61669 0.49284 0.311 0.0
H1175 H 0.61706 0.46616 0.33539 0.0
H1176 H 0.45217 0.98999 0.41235 0.0
H1177 H 0.45146 0.96222 0.38843 0.0
H1178 H 0.39682 0.89993 0.42041 0.0
H1179 H 0.3976 0.92774 0.44467 0.0
H1180 H 0.44177 0.89864 0.40482 0.0
H1181 H 0.38893 0.92011 0.35325 0.0
H1182 H 0.41528 0.94635 0.36401 0.0
H1183 H 0.38848 0.92559 0.3779 0.0
C1184 C 0.44016 0.97037 0.41439 0.0
C1185 C 0.425 0.96099 0.4304 0.0
C1186 C 0.43966 0.95458 0.40067 0.0
C1187 C 0.42399 0.92912 0.40266 0.0
C1188 C 0.40898 0.91958 0.41867 0.0
H1189 H 0.39562 0.8323 0.3084 0.0
H1190 H 0.39056 0.84975 0.33723 0.0
C1191 C 0.40934 0.93543 0.43241 0.0
C1192 C 0.42338 0.91271 0.38781 0.0
H1193 H 0.40868 0.8988 0.342 0.0
C1194 C 0.43429 0.89838 0.39113 0.0
C1195 C 0.4134 0.91234 0.37007 0.0
C1196 C 0.40065 0.92674 0.36605 0.0
C1197 C 0.43632 0.88431 0.37685 0.0
C1198 C 0.42741 0.88488 0.35886 0.0
C1199 C 0.41565 0.89851 0.35579 0.0
C1200 C 0.43062 0.8721 0.34276 0.0
C1201 C 0.44802 0.86904 0.38113 0.0
C1202 C 0.45486 0.87867 0.33643 0.0
C1203 C 0.45786 0.86869 0.31992 0.0
C1204 C 0.43665 0.85217 0.30938 0.0
C1205 C 0.41238 0.84507 0.31611 0.0
C1206 C 0.40942 0.85498 0.33261 0.0
H1207 H 0.44722 0.86509 0.39625 0.0
H1208 H 0.43838 0.85138 0.37339 0.0
H1209 H 0.46818 0.87928 0.37685 0.0
H1210 H 0.4715 0.89223 0.34386 0.0
H1211 H 0.4768 0.8746 0.3151 0.0
H1212 H 0.52988 0.53409 0.54757 0.0
H1213 H 0.54514 0.52111 0.52091 0.0
H1214 H 0.62103 0.56193 0.54251 0.0
H1215 H 0.60589 0.57425 0.56943 0.0
H1216 H 0.58242 0.5466 0.49342 0.0
H1217 H 0.60664 0.49143 0.53937 0.0
H1218 H 0.58813 0.50436 0.54731 0.0
H1219 H 0.62193 0.52336 0.54544 0.0
C1220 C 0.54986 0.54051 0.5465 0.0
C1221 C 0.56665 0.55514 0.56062 0.0
C1222 C 0.55854 0.53315 0.53128 0.0
C1223 C 0.5841 0.54019 0.52998 0.0
C1224 C 0.60115 0.55598 0.54344 0.0
H1225 H 0.66698 0.50058 0.45329 0.0
H1226 H 0.65469 0.5185 0.47845 0.0
C1227 C 0.59251 0.5633 0.55868 0.0
C1228 C 0.59268 0.53 0.51508 0.0
H1229 H 0.61806 0.49388 0.5076 0.0
C1230 C 0.59019 0.53506 0.49649 0.0
C1231 C 0.60274 0.51489 0.51919 0.0
C1232 C 0.60483 0.50796 0.53889 0.0
C1233 C 0.5978 0.52561 0.48184 0.0
C1234 C 0.60779 0.51047 0.48596 0.0
C1235 C 0.61044 0.50556 0.50454 0.0
C1236 C 0.61506 0.49909 0.47114 0.0
C1237 C 0.59538 0.53212 0.46208 0.0
C1238 C 0.59669 0.48177 0.45909 0.0
C1239 C 0.60358 0.47142 0.44479 0.0
C1240 C 0.629 0.47818 0.44231 0.0
C1241 C 0.64726 0.49501 0.45479 0.0
C1242 C 0.6403 0.50531 0.46913 0.0
H1243 H 0.59322 0.54844 0.46146 0.0
H1244 H 0.61212 0.53583 0.45367 0.0
H1245 H 0.57841 0.51643 0.45563 0.0
H1246 H 0.57703 0.47637 0.46068 0.0
H1247 H 0.58901 0.45844 0.4355 0.0
H1248 H 0.08036 0.51441 0.75446 0.0
H1249 H 0.10756 0.5431 0.73051 0.0
H1250 H 0.08193 0.48346 0.6913 0.0
H1251 H 0.05412 0.45452 0.71519 0.0
H1252 H 0.14667 0.54005 0.7121 0.0
H1253 H 0.076 0.5372 0.66268 0.0
H1254 H 0.06829 0.52698 0.68652 0.0
H1255 H 0.07122 0.50786 0.66946 0.0
C1256 C 0.07996 0.50744 0.7406 0.0
C1257 C 0.06483 0.48222 0.73664 0.0
C1258 C 0.0957 0.52385 0.727 0.0
C1259 C 0.09656 0.51543 0.70912 0.0
C1260 C 0.08122 0.49035 0.70496 0.0
H1261 H 0.21234 0.5841 0.6251 0.0
H1262 H 0.18359 0.55832 0.64969 0.0
C1263 C 0.06549 0.47384 0.71862 0.0
C1264 C 0.1147 0.53277 0.69527 0.0
H1265 H 0.11887 0.55886 0.65293 0.0
C1266 C 0.14062 0.54424 0.69918 0.0
C1267 C 0.10668 0.53832 0.67855 0.0
C1268 C 0.07904 0.52714 0.67403 0.0
C1269 C 0.1588 0.56085 0.68663 0.0
C1270 C 0.15081 0.56594 0.6697 0.0
C1271 C 0.12489 0.55481 0.66592 0.0
C1272 C 0.16911 0.5823 0.6555 0.0
C1273 C 0.18641 0.57296 0.69161 0.0
C1274 C 0.17044 0.60432 0.65063 0.0
C1275 C 0.18694 0.61919 0.63659 0.0
C1276 C 0.20214 0.6121 0.62704 0.0
C1277 C 0.20095 0.59015 0.63218 0.0
C1278 C 0.18459 0.5754 0.64627 0.0
H1279 H 0.18916 0.57159 0.70674 0.0
H1280 H 0.19494 0.56378 0.68393 0.0
H1281 H 0.19673 0.59264 0.68758 0.0
H1282 H 0.15855 0.60987 0.6576 0.0
H1283 H 0.18728 0.6359 0.63291 0.0
H1284 H 0.53704 0.14294 0.94571 0.0
H1285 H 0.55611 0.17315 0.92056 0.0
H1286 H 0.50076 0.12091 0.88219 0.0
H1287 H 0.48127 0.09113 0.90735 0.0
H1288 H 0.57846 0.17043 0.89063 0.0
H1289 H 0.49882 0.18051 0.86818 0.0
H1290 H 0.49807 0.16553 0.88967 0.0
H1291 H 0.4897 0.14879 0.868 0.0
C1292 C 0.52875 0.13816 0.93195 0.0
C1293 C 0.50758 0.11485 0.92846 0.0
C1294 C 0.53961 0.15538 0.91761 0.0
C1295 C 0.5296 0.14949 0.89953 0.0
C1296 C 0.50833 0.12622 0.89612 0.0
H1297 H 0.60594 0.19695 0.79558 0.0
H1298 H 0.5894 0.17939 0.82615 0.0
C1299 C 0.49726 0.10916 0.91048 0.0
C1300 C 0.54259 0.1667 0.88389 0.0
H1301 H 0.53172 0.19101 0.84525 0.0
C1302 C 0.56833 0.17529 0.88089 0.0
C1303 C 0.5296 0.17351 0.87135 0.0
C1304 C 0.5026 0.16681 0.8746 0.0
C1305 C 0.58105 0.18937 0.86519 0.0
C1306 C 0.56744 0.1943 0.85181 0.0
C1307 C 0.54208 0.18688 0.85533 0.0
C1308 C 0.57865 0.20589 0.83364 0.0
C1309 C 0.60891 0.19872 0.86313 0.0
C1310 C 0.57747 0.22622 0.82739 0.0
C1311 C 0.58645 0.236 0.8097 0.0
C1312 C 0.59687 0.22568 0.79797 0.0
C1313 C 0.5983 0.20552 0.80436 0.0
C1314 C 0.58902 0.19556 0.82192 0.0
H1315 H 0.61803 0.20134 0.87694 0.0
H1316 H 0.61143 0.18499 0.85536 0.0
H1317 H 0.61879 0.2164 0.85548 0.0
H1318 H 0.56939 0.23439 0.83614 0.0
H1319 H 0.58509 0.25154 0.80518 0.0
H1320 H 0.6374 0.72176 0.06666 0.0
H1321 H 0.61597 0.72939 0.04116 0.0
H1322 H 0.54449 0.68558 0.0692 0.0
H1323 H 0.5658 0.67833 0.09478 0.0
H1324 H 0.58073 0.6912 0.01998 0.0
H1325 H 0.53847 0.74249 0.04967 0.0
H1326 H 0.56395 0.74121 0.0609 0.0
H1327 H 0.5318 0.71643 0.06362 0.0
C1328 C 0.61724 0.71448 0.06764 0.0
C1329 C 0.6032 0.69936 0.08261 0.0
C1330 C 0.60503 0.71876 0.05306 0.0
C1331 C 0.57868 0.70824 0.05337 0.0
C1332 C 0.56488 0.6943 0.06883 0.0
H1333 H 0.46533 0.64229 0.97169 0.0
H1334 H 0.49657 0.65452 0.99646 0.0
C1335 C 0.57703 0.68995 0.08334 0.0
C1336 C 0.56507 0.70858 0.03656 0.0
H1337 H 0.51829 0.71834 0.02204 0.0
C1338 C 0.56747 0.69762 0.0203 0.0
C1339 C 0.5479 0.71709 0.03696 0.0
C1340 C 0.54555 0.73019 0.05368 0.0
C1341 C 0.55204 0.69358 0.00483 0.0
C1342 C 0.5336 0.70044 0.00575 0.0
C1343 C 0.53225 0.7128 0.02152 0.0
C1344 C 0.51453 0.69343 0.99094 0.0
C1345 C 0.55509 0.68137 0.98779 0.0
C1346 C 0.51403 0.71136 0.97994 0.0
C1347 C 0.4962 0.70445 0.96571 0.0
C1348 C 0.47843 0.67949 0.96243 0.0
C1349 C 0.47876 0.66165 0.97378 0.0
C1350 C 0.49665 0.66858 0.9879 0.0
H1351 H 0.57394 0.68308 0.98738 0.0
H1352 H 0.5405 0.66153 0.98801 0.0
H1353 H 0.55255 0.68942 0.97487 0.0
H1354 H 0.52762 0.73064 0.98219 0.0
H1355 H 0.49638 0.71865 0.95727 0.0
H1356 H 0.97309 0.46611 0.22877 0.0
H1357 H 0.9465 0.45136 0.20106 0.0
H1358 H 0.88605 0.45166 0.23126 0.0
H1359 H 0.91289 0.46697 0.25902 0.0
H1360 H 0.90211 0.41004 0.1949 0.0
H1361 H 0.8914 0.49102 0.18563 0.0
H1362 H 0.91382 0.49096 0.20165 0.0
H1363 H 0.88097 0.4765 0.20791 0.0
C1364 C 0.95406 0.46288 0.22954 0.0
C1365 C 0.94501 0.46764 0.24604 0.0
C1366 C 0.93893 0.45453 0.21369 0.0
C1367 C 0.91441 0.45072 0.214 0.0
C1368 C 0.90511 0.45503 0.23057 0.0
H1369 H 0.80497 0.36936 0.12591 0.0
H1370 H 0.82775 0.38187 0.15547 0.0
C1371 C 0.92039 0.46365 0.24642 0.0
C1372 C 0.89873 0.44209 0.19693 0.0
H1373 H 0.86754 0.45724 0.16552 0.0
C1374 C 0.89452 0.42034 0.18847 0.0
C1375 C 0.88914 0.45574 0.18845 0.0
C1376 C 0.89423 0.47997 0.19625 0.0
C1377 C 0.88112 0.4119 0.17171 0.0
C1378 C 0.87103 0.42524 0.16345 0.0
C1379 C 0.87513 0.44694 0.17196 0.0
C1380 C 0.85696 0.41756 0.14563 0.0
C1381 C 0.87864 0.38924 0.16273 0.0
C1382 C 0.86539 0.43371 0.13043 0.0
C1383 C 0.85221 0.42677 0.11362 0.0
C1384 C 0.83036 0.40347 0.11164 0.0
C1385 C 0.8219 0.38733 0.12691 0.0
C1386 C 0.83496 0.3944 0.14379 0.0
H1387 H 0.89316 0.38531 0.16794 0.0
H1388 H 0.85979 0.37319 0.16608 0.0
H1389 H 0.88043 0.39118 0.14736 0.0
H1390 H 0.88228 0.4517 0.13155 0.0
H1391 H 0.85922 0.43965 0.10215 0.0
loop_
_geom_bond_atom_site_label_1
_geom_bond_atom_site_label_2
_geom_bond_distance
_geom_bond_site_symmetry_2
_ccdc_geom_bond_type
H0 O26 0.856 . S
H1 O29 0.854 . S
H2 C37 0.978 . S
H3 C38 0.930 . S
H4 C40 0.930 . S
H5 C41 0.930 . S
H6 C43 0.931 . S
H7 C44 0.930 . S
H8 C46 0.930 . S
H9 C47 0.929 . S
H10 C49 0.930 . S
H11 C50 0.931 . S
H12 C52 0.930 . S
H13 C53 0.929 . S
H14 C55 0.931 . S
H15 C56 0.930 . S
H16 C58 0.930 . S
H17 C59 0.932 . S
H18 C61 0.930 . S
H19 C62 0.929 . S
H20 C64 0.931 . S
H21 C65 0.930 . S
H22 C67 0.929 . S
H23 C68 0.931 . S
H24 C70 0.930 . S
H25 C71 0.929 1_455 S
O26 H0 0.856 . S
O26 C72 1.300 . S
O27 C72 1.209 . S
O28 C73 1.199 . S
O29 H1 0.854 . S
O29 C73 1.297 . S
C30 C31 1.404 . S
C30 C35 1.397 . S
C30 C36 1.492 . S
C31 C30 1.404 . S
C31 C32 1.396 . S
C31 C42 1.492 . S
C32 C31 1.396 . S
C32 C33 1.397 . S
C32 C48 1.509 . S
C33 C32 1.397 . S
C33 C34 1.412 . S
C33 C54 1.485 . S
C34 C33 1.412 . S
C34 C35 1.388 . S
C34 C60 1.490 . S
C35 C30 1.397 . S
C35 C34 1.388 . S
C35 C66 1.519 1_455 S
C36 C30 1.492 . S
C36 C37 1.348 . S
C36 C41 1.390 1_455 S
C37 H2 0.978 . S
C37 C36 1.348 . S
C37 C38 1.343 1_455 S
C38 H3 0.930 . S
C38 C37 1.343 1_655 S
C38 C39 1.383 . S
C39 C38 1.383 . S
C39 C40 1.395 . S
C40 H4 0.930 . S
C40 C39 1.395 . S
C40 C41 1.362 . S
C41 H5 0.930 . S
C41 C36 1.390 1_655 S
C41 C40 1.362 . S
C42 C31 1.492 . S
C42 C43 1.377 . S
C42 C47 1.397 . S
C43 H6 0.931 . S
C43 C42 1.377 . S
C43 C44 1.376 . S
C44 H7 0.930 . S
C44 C43 1.376 . S
C44 C45 1.376 . S
C45 C44 1.376 . S
C45 C46 1.378 . S
C45 C72 1.486 . S
C46 H8 0.930 . S
C46 C45 1.378 . S
C46 C47 1.376 . S
C47 H9 0.929 . S
C47 C42 1.397 . S
C47 C46 1.376 . S
C48 C32 1.509 . S
C48 C49 1.391 . S
C48 C53 1.386 . S
C49 H10 0.930 . S
C49 C48 1.391 . S
C49 C50 1.375 . S
C50 H11 0.931 . S
C50 C49 1.375 . S
C50 C51 1.375 . S
C51 C50 1.375 . S
C51 C52 1.361 . S
C52 H12 0.930 . S
C52 C51 1.361 . S
C52 C53 1.399 . S
C53 H13 0.929 . S
C53 C48 1.386 . S
C53 C52 1.399 . S
C54 C33 1.485 . S
C54 C55 1.394 . S
C54 C59 1.360 . S
C55 H14 0.931 . S
C55 C54 1.394 . S
C55 C56 1.372 . S
C56 H15 0.930 . S
C56 C55 1.372 . S
C56 C57 1.397 . S
C57 C56 1.397 . S
C57 C58 1.390 . S
C57 C73 1.476 . S
C58 H16 0.930 . S
C58 C57 1.390 . S
C58 C59 1.366 . S
C59 H17 0.932 . S
C59 C54 1.360 . S
C59 C58 1.366 . S
C60 C34 1.490 . S
C60 C61 1.380 . S
C60 C65 1.386 . S
C61 H18 0.930 . S
C61 C60 1.380 . S
C61 C62 1.381 . S
C62 H19 0.929 . S
C62 C61 1.381 . S
C62 C63 1.371 . S
C63 C62 1.371 . S
C63 C64 1.380 . S
C64 H20 0.931 . S
C64 C63 1.380 . S
C64 C65 1.387 . S
C65 H21 0.930 . S
C65 C60 1.386 . S
C65 C64 1.387 . S
C66 C35 1.519 1_655 S
C66 C67 1.377 . S
C66 C71 1.361 . S
C67 H22 0.929 . S
C67 C66 1.377 . S
C67 C68 1.386 . S
C68 H23 0.931 . S
C68 C67 1.386 . S
C68 C69 1.363 . S
C69 C68 1.363 . S
C69 C70 1.385 . S
C70 H24 0.930 . S
C70 C69 1.385 . S
C70 C71 1.396 . S
C71 H25 0.929 1_655 S
C71 C66 1.361 . S
C71 C70 1.396 . S
C72 O26 1.300 . S
C72 O27 1.209 . S
C72 C45 1.486 . S
C73 O28 1.199 . S
C73 O29 1.297 . S
C73 C57 1.476 . S
H74 O100 0.856 . S
H75 O103 0.854 . S
H76 C111 0.930 . S
H77 C112 0.930 . S
H78 C114 0.930 . S
H79 C115 0.930 . S
H80 C117 0.931 . S
H81 C118 0.930 . S
H82 C120 0.930 . S
H83 C121 0.929 . S
H84 C123 0.930 . S
H85 C124 0.931 . S
H86 C126 0.930 . S
H87 C127 0.929 . S
H88 C129 0.931 . S
H89 C130 0.930 . S
H90 C132 0.930 . S
H91 C133 0.932 . S
H92 C135 0.930 . S
H93 C136 0.929 . S
H94 C138 0.931 . S
H95 C139 0.930 . S
H96 C141 0.929 . S
H97 C142 0.931 . S
H98 C144 0.930 . S
H99 C145 0.929 . S
O100 H74 0.856 . S
O100 C146 1.300 . S
O101 C146 1.209 . S
O102 C147 1.199 . S
O103 H75 0.854 . S
O103 C147 1.297 . S
C104 C105 1.404 . S
C104 C109 1.397 . S
C104 C110 1.492 . S
C105 C104 1.404 . S
C105 C106 1.396 . S
C105 C116 1.492 . S
C106 C105 1.396 . S
C106 C107 1.397 . S
C106 C122 1.509 . S
C107 C106 1.397 . S
C107 C108 1.412 . S
C107 C128 1.485 . S
C108 C107 1.412 . S
C108 C109 1.388 . S
C108 C134 1.490 . S
C109 C104 1.397 . S
C109 C108 1.388 . S
C109 C140 1.519 . S
C110 C104 1.492 . S
C110 C111 1.363 . S
C110 C115 1.390 . S
C111 H76 0.930 . S
C111 C110 1.363 . S
C111 C112 1.372 . S
C112 H77 0.930 . S
C112 C111 1.372 . S
C112 C113 1.383 1_545 S
C113 C112 1.383 1_565 S
C113 C114 1.395 . S
C114 H78 0.930 . S
C114 C113 1.395 . S
C114 C115 1.362 1_565 S
C115 H79 0.930 . S
C115 C110 1.390 . S
C115 C114 1.362 1_545 S
C116 C105 1.492 . S
C116 C117 1.377 . S
C116 C121 1.397 . S
C117 H80 0.931 . S
C117 C116 1.377 . S
C117 C118 1.376 . S
C118 H81 0.930 . S
C118 C117 1.376 . S
C118 C119 1.376 . S
C119 C118 1.376 . S
C119 C120 1.378 . S
C119 C146 1.486 . S
C120 H82 0.930 . S
C120 C119 1.378 . S
C120 C121 1.376 . S
C121 H83 0.929 . S
C121 C116 1.397 . S
C121 C120 1.376 . S
C122 C106 1.509 . S
C122 C123 1.391 . S
C122 C127 1.386 . S
C123 H84 0.930 . S
C123 C122 1.391 . S
C123 C124 1.375 . S
C124 H85 0.931 . S
C124 C123 1.375 . S
C124 C125 1.375 . S
C125 C124 1.375 . S
C125 C126 1.361 . S
C126 H86 0.930 . S
C126 C125 1.361 . S
C126 C127 1.399 . S
C127 H87 0.929 . S
C127 C122 1.386 . S
C127 C126 1.399 . S
C128 C107 1.485 . S
C128 C129 1.394 . S
C128 C133 1.360 . S
C129 H88 0.931 . S
C129 C128 1.394 . S
C129 C130 1.372 . S
C130 H89 0.930 . S
C130 C129 1.372 . S
C130 C131 1.397 . S
C131 C130 1.397 . S
C131 C132 1.390 . S
C131 C147 1.476 . S
C132 H90 0.930 . S
C132 C131 1.390 . S
C132 C133 1.366 . S
C133 H91 0.932 . S
C133 C128 1.360 . S
C133 C132 1.366 . S
C134 C108 1.490 . S
C134 C135 1.380 . S
C134 C139 1.386 . S
C135 H92 0.930 . S
C135 C134 1.380 . S
C135 C136 1.381 . S
C136 H93 0.929 . S
C136 C135 1.381 . S
C136 C137 1.371 . S
C137 C136 1.371 . S
C137 C138 1.380 . S
C138 H94 0.931 . S
C138 C137 1.380 . S
C138 C139 1.387 . S
C139 H95 0.930 . S
C139 C134 1.386 . S
C139 C138 1.387 . S
C140 C109 1.519 . S
C140 C141 1.377 . S
C140 C145 1.361 . S
C141 H96 0.929 . S
C141 C140 1.377 . S
C141 C142 1.386 1_545 S
C142 H97 0.931 . S
C142 C141 1.386 1_565 S
C142 C143 1.363 . S
C143 C142 1.363 . S
C143 C144 1.385 . S
C144 H98 0.930 . S
C144 C143 1.385 . S
C144 C145 1.396 1_565 S
C145 H99 0.929 . S
C145 C140 1.361 . S
C145 C144 1.396 1_545 S
C146 O100 1.300 . S
C146 O101 1.209 . S
C146 C119 1.486 . S
C147 O102 1.199 . S
C147 O103 1.297 . S
C147 C131 1.476 . S
H148 O174 0.856 . S
H149 O177 0.854 . S
H150 C185 0.930 . S
H151 C186 0.930 . S
H152 C188 0.930 . S
H153 C189 0.930 . S
H154 C191 0.931 . S
H155 C192 0.930 . S
H156 C194 0.930 . S
H157 C195 0.929 . S
H158 C197 0.930 . S
H159 C198 0.931 . S
H160 C200 0.930 . S
H161 C201 0.929 . S
H162 C203 0.931 . S
H163 C204 0.930 . S
H164 C206 0.930 . S
H165 C207 0.932 . S
H166 C209 0.930 . S
H167 C210 0.929 . S
H168 C212 0.931 . S
H169 C213 0.930 . S
H170 C215 0.929 . S
H171 C216 0.931 . S
H172 C218 0.930 . S
H173 C219 0.929 . S
O174 H148 0.856 . S
O174 C220 1.300 . S
O175 C220 1.209 . S
O176 C221 1.199 . S
O177 H149 0.854 . S
O177 C221 1.297 . S
C178 C179 1.404 . S
C178 C183 1.397 . S
C178 C184 1.492 . S
C179 C178 1.404 . S
C179 C180 1.396 . S
C179 C190 1.492 . S
C180 C179 1.396 . S
C180 C181 1.397 . S
C180 C196 1.509 . S
C181 C180 1.397 . S
C181 C182 1.412 . S
C181 C202 1.485 . S
C182 C181 1.412 . S
C182 C183 1.388 . S
C182 C208 1.490 . S
C183 C178 1.397 . S
C183 C182 1.388 . S
C183 C214 1.519 . S
C184 C178 1.492 . S
C184 C185 1.363 . S
C184 C189 1.390 . S
C185 H150 0.930 . S
C185 C184 1.363 . S
C185 C186 1.372 . S
C186 H151 0.930 . S
C186 C185 1.372 . S
C186 C187 1.383 . S
C187 C186 1.383 . S
C187 C188 1.395 . S
C188 H152 0.930 . S
C188 C187 1.395 . S
C188 C189 1.362 . S
C189 H153 0.930 . S
C189 C184 1.390 . S
C189 C188 1.362 . S
C190 C179 1.492 . S
C190 C191 1.377 . S
C190 C195 1.397 . S
C191 H154 0.931 . S
C191 C190 1.377 . S
C191 C192 1.376 . S
C192 H155 0.930 . S
C192 C191 1.376 . S
C192 C193 1.376 . S
C193 C192 1.376 . S
C193 C194 1.378 . S
C193 C220 1.486 . S
C194 H156 0.930 . S
C194 C193 1.378 . S
C194 C195 1.376 . S
C195 H157 0.929 . S
C195 C190 1.397 . S
C195 C194 1.376 . S
C196 C180 1.509 . S
C196 C197 1.391 . S
C196 C201 1.386 . S
C197 H158 0.930 . S
C197 C196 1.391 . S
C197 C198 1.375 . S
C198 H159 0.931 . S
C198 C197 1.375 . S
C198 C199 1.375 . S
C199 C198 1.375 . S
C199 C200 1.361 . S
C200 H160 0.930 . S
C200 C199 1.361 . S
C200 C201 1.399 . S
C201 H161 0.929 . S
C201 C196 1.386 . S
C201 C200 1.399 . S
C202 C181 1.485 . S
C202 C203 1.394 . S
C202 C207 1.360 . S
C203 H162 0.931 . S
C203 C202 1.394 . S
C203 C204 1.372 . S
C204 H163 0.930 . S
C204 C203 1.372 . S
C204 C205 1.397 . S
C205 C204 1.397 . S
C205 C206 1.390 . S
C205 C221 1.476 . S
C206 H164 0.930 . S
C206 C205 1.390 . S
C206 C207 1.366 . S
C207 H165 0.932 . S
C207 C202 1.360 . S
C207 C206 1.366 . S
C208 C182 1.490 . S
C208 C209 1.380 . S
C208 C213 1.386 . S
C209 H166 0.930 . S
C209 C208 1.380 . S
C209 C210 1.381 . S
C210 H167 0.929 . S
C210 C209 1.381 . S
C210 C211 1.371 . S
C211 C210 1.371 . S
C211 C212 1.380 . S
C212 H168 0.931 . S
C212 C211 1.380 . S
C212 C213 1.387 . S
C213 H169 0.930 . S
C213 C208 1.386 . S
C213 C212 1.387 . S
C214 C183 1.519 . S
C214 C215 1.377 . S
C214 C219 1.361 . S
C215 H170 0.929 . S
C215 C214 1.377 . S
C215 C216 1.386 . S
C216 H171 0.931 . S
C216 C215 1.386 . S
C216 C217 1.363 . S
C217 C216 1.363 . S
C217 C218 1.385 . S
C218 H172 0.930 . S
C218 C217 1.385 . S
C218 C219 1.396 . S
C219 H173 0.929 . S
C219 C214 1.361 . S
C219 C218 1.396 . S
C220 O174 1.300 . S
C220 O175 1.209 . S
C220 C193 1.486 . S
C221 O176 1.199 . S
C221 O177 1.297 . S
C221 C205 1.476 . S
H222 O248 0.856 . S
H223 O251 0.854 . S
H224 C259 0.930 1_455 S
H225 C260 0.930 . S
H226 C262 0.930 . S
H227 C263 0.930 . S
H228 C265 0.931 . S
H229 C266 0.930 . S
H230 C268 0.930 . S
H231 C269 0.929 . S
H232 C271 0.930 . S
H233 C272 0.931 . S
H234 C274 0.930 . S
H235 C275 0.929 . S
H236 C277 0.931 . S
H237 C278 0.930 . S
H238 C280 0.930 . S
H239 C281 0.932 . S
H240 C283 0.930 . S
H241 C284 0.929 . S
H242 C286 0.931 . S
H243 C287 0.930 . S
H244 C289 0.929 . S
H245 C290 0.931 . S
H246 C292 0.930 . S
H247 C293 0.929 . S
O248 H222 0.856 . S
O248 C294 1.300 . S
O249 C294 1.209 . S
O250 C295 1.199 . S
O251 H223 0.854 . S
O251 C295 1.297 . S
C252 C253 1.404 . S
C252 C257 1.397 . S
C252 C258 1.490 . S
C253 C252 1.404 . S
C253 C254 1.396 . S
C253 C264 1.492 . S
C254 C253 1.396 . S
C254 C255 1.397 . S
C254 C270 1.509 . S
C255 C254 1.397 . S
C255 C256 1.412 . S
C255 C276 1.485 . S
C256 C255 1.412 . S
C256 C257 1.388 . S
C256 C282 1.490 . S
C257 C252 1.397 . S
C257 C256 1.388 . S
C257 C288 1.519 1_455 S
C258 C252 1.490 . S
C258 C259 1.364 1_455 S
C258 C263 1.390 1_455 S
C259 H224 0.930 1_655 S
C259 C258 1.364 1_655 S
C259 C260 1.372 . S
C260 H225 0.930 . S
C260 C259 1.372 . S
C260 C261 1.383 . S
C261 C260 1.383 . S
C261 C262 1.395 . S
C262 H226 0.930 . S
C262 C261 1.395 . S
C262 C263 1.362 . S
C263 H227 0.930 . S
C263 C258 1.390 1_655 S
C263 C262 1.362 . S
C264 C253 1.492 . S
C264 C265 1.377 . S
C264 C269 1.397 . S
C265 H228 0.931 . S
C265 C264 1.377 . S
C265 C266 1.376 . S
C266 H229 0.930 . S
C266 C265 1.376 . S
C266 C267 1.376 . S
C267 C266 1.376 . S
C267 C268 1.378 . S
C267 C294 1.486 . S
C268 H230 0.930 . S
C268 C267 1.378 . S
C268 C269 1.376 . S
C269 H231 0.929 . S
C269 C264 1.397 . S
C269 C268 1.376 . S
C270 C254 1.509 . S
C270 C271 1.391 . S
C270 C275 1.386 . S
C271 H232 0.930 . S
C271 C270 1.391 . S
C271 C272 1.375 . S
C272 H233 0.931 . S
C272 C271 1.375 . S
C272 C273 1.375 . S
C273 C272 1.375 . S
C273 C274 1.361 . S
C274 H234 0.930 . S
C274 C273 1.361 . S
C274 C275 1.399 . S
C275 H235 0.929 . S
C275 C270 1.386 . S
C275 C274 1.399 . S
C276 C255 1.485 . S
C276 C277 1.394 . S
C276 C281 1.360 . S
C277 H236 0.931 . S
C277 C276 1.394 . S
C277 C278 1.372 . S
C278 H237 0.930 . S
C278 C277 1.372 . S
C278 C279 1.397 . S
C279 C278 1.397 . S
C279 C280 1.390 . S
C279 C295 1.476 . S
C280 H238 0.930 . S
C280 C279 1.390 . S
C280 C281 1.366 . S
C281 H239 0.932 . S
C281 C276 1.360 . S
C281 C280 1.366 . S
C282 C256 1.490 . S
C282 C283 1.380 . S
C282 C287 1.386 . S
C283 H240 0.930 . S
C283 C282 1.380 . S
C283 C284 1.381 . S
C284 H241 0.929 . S
C284 C283 1.381 . S
C284 C285 1.371 . S
C285 C284 1.371 . S
C285 C286 1.380 . S
C286 H242 0.931 . S
C286 C285 1.380 . S
C286 C287 1.387 . S
C287 H243 0.930 . S
C287 C282 1.386 . S
C287 C286 1.387 . S
C288 C257 1.519 1_655 S
C288 C289 1.377 . S
C288 C293 1.361 . S
C289 H244 0.929 . S
C289 C288 1.377 . S
C289 C290 1.386 . S
C290 H245 0.931 . S
C290 C289 1.386 . S
C290 C291 1.363 . S
C291 C290 1.363 . S
C291 C292 1.385 . S
C292 H246 0.930 . S
C292 C291 1.385 . S
C292 C293 1.396 . S
C293 H247 0.929 . S
C293 C288 1.361 . S
C293 C292 1.396 . S
C294 O248 1.300 . S
C294 O249 1.209 . S
C294 C267 1.486 . S
C295 O250 1.199 . S
C295 O251 1.297 . S
C295 C279 1.476 . S
H296 O322 0.856 . S
H297 O325 0.854 . S
H298 C333 0.930 . S
H299 C334 0.930 . S
H300 C336 0.930 . S
H301 C337 0.930 . S
H302 C339 0.931 . S
H303 C340 0.930 . S
H304 C342 0.930 1_545 S
H305 C343 0.933 . S
H306 C345 0.930 . S
H307 C346 0.931 . S
H308 C348 0.930 . S
H309 C349 0.929 . S
H310 C351 0.931 . S
H311 C352 0.930 . S
H312 C354 0.930 . S
H313 C355 0.932 . S
H314 C357 0.930 . S
H315 C358 0.929 . S
H316 C360 0.931 1_565 S
H317 C361 0.930 . S
H318 C363 0.929 1_556 S
H319 C364 0.931 . S
H320 C366 0.930 . S
H321 C367 0.929 . S
O322 H296 0.856 . S
O322 C368 1.300 . S
O323 C368 1.209 . S
O324 C369 1.199 . S
O325 H297 0.854 . S
O325 C369 1.297 . S
C326 C327 1.404 1_545 S
C326 C331 1.397 . S
C326 C332 1.492 . S
C327 C326 1.404 1_565 S
C327 C328 1.396 . S
C327 C338 1.492 . S
C328 C327 1.396 . S
C328 C329 1.425 . S
C328 C344 1.509 . S
C329 C328 1.425 . S
C329 C330 1.435 1_556 S
C329 C350 1.468 1_556 S
C330 C329 1.435 1_554 S
C330 C331 1.362 1_564 S
C330 C356 1.485 1_565 S
C331 C326 1.397 . S
C331 C330 1.362 1_546 S
C331 C362 1.519 1_556 S
C332 C326 1.492 . S
C332 C333 1.363 . S
C332 C337 1.390 . S
C333 H298 0.930 . S
C333 C332 1.363 . S
C333 C334 1.372 . S
C334 H299 0.930 . S
C334 C333 1.372 . S
C334 C335 1.383 . S
C335 C334 1.383 . S
C335 C336 1.395 . S
C336 H300 0.930 . S
C336 C335 1.395 . S
C336 C337 1.362 . S
C337 H301 0.930 . S
C337 C332 1.390 . S
C337 C336 1.362 . S
C338 C327 1.492 . S
C338 C339 1.377 . S
C338 C343 1.399 1_565 S
C339 H302 0.931 . S
C339 C338 1.377 . S
C339 C340 1.376 . S
C340 H303 0.930 . S
C340 C339 1.376 . S
C340 C341 1.376 . S
C341 C340 1.376 . S
C341 C342 1.378 . S
C341 C368 1.486 . S
C342 H304 0.930 1_565 S
C342 C341 1.378 . S
C342 C343 1.373 1_565 S
C343 H305 0.933 . S
C343 C338 1.399 1_545 S
C343 C342 1.373 1_545 S
C344 C328 1.509 . S
C344 C345 1.391 . S
C344 C349 1.386 . S
C345 H306 0.930 . S
C345 C344 1.391 . S
C345 C346 1.375 . S
C346 H307 0.931 . S
C346 C345 1.375 . S
C346 C347 1.375 . S
C347 C346 1.375 . S
C347 C348 1.361 . S
C348 H308 0.930 . S
C348 C347 1.361 . S
C348 C349 1.399 . S
C349 H309 0.929 . S
C349 C344 1.386 . S
C349 C348 1.399 . S
C350 C329 1.468 1_554 S
C350 C351 1.394 . S
C350 C355 1.360 . S
C351 H310 0.931 . S
C351 C350 1.394 . S
C351 C352 1.372 . S
C352 H311 0.930 . S
C352 C351 1.372 . S
C352 C353 1.397 . S
C353 C352 1.397 . S
C353 C354 1.390 . S
C353 C369 1.476 . S
C354 H312 0.930 . S
C354 C353 1.390 . S
C354 C355 1.366 . S
C355 H313 0.932 . S
C355 C350 1.360 . S
C355 C354 1.366 . S
C356 C330 1.485 1_545 S
C356 C357 1.380 . S
C356 C361 1.386 1_545 S
C357 H314 0.930 . S
C357 C356 1.380 . S
C357 C358 1.381 . S
C358 H315 0.929 . S
C358 C357 1.381 . S
C358 C359 1.371 . S
C359 C358 1.371 . S
C359 C360 1.380 . S
C360 H316 0.931 1_545 S
C360 C359 1.380 . S
C360 C361 1.387 1_545 S
C361 H317 0.930 . S
C361 C356 1.386 1_565 S
C361 C360 1.387 1_565 S
C362 C331 1.519 1_554 S
C362 C363 1.377 . S
C362 C367 1.361 . S
C363 H318 0.929 1_554 S
C363 C362 1.377 . S
C363 C364 1.386 . S
C364 H319 0.931 . S
C364 C363 1.386 . S
C364 C365 1.363 . S
C365 C364 1.363 . S
C365 C366 1.385 . S
C366 H320 0.930 . S
C366 C365 1.385 . S
C366 C367 1.396 . S
C367 H321 0.929 . S
C367 C362 1.361 . S
C367 C366 1.396 . S
C368 O322 1.300 . S
C368 O323 1.209 . S
C368 C341 1.486 . S
C369 O324 1.199 . S
C369 O325 1.297 . S
C369 C353 1.476 . S
H370 O396 0.856 . S
H371 O399 0.854 . S
H372 C407 0.930 . S
H373 C408 0.930 . S
H374 C410 0.930 . S
H375 C411 0.930 . S
H376 C413 0.931 . S
H377 C414 0.930 . S
H378 C416 0.930 . S
H379 C417 0.929 . S
H380 C419 0.930 . S
H381 C420 0.931 . S
H382 C422 0.930 . S
H383 C423 0.929 . S
H384 C425 0.931 . S
H385 C426 0.930 . S
H386 C428 0.930 . S
H387 C429 0.932 . S
H388 C431 0.930 . S
H389 C432 0.929 . S
H390 C434 0.931 . S
H391 C435 0.930 . S
H392 C437 0.929 . S
H393 C438 0.931 . S
H394 C440 0.930 . S
H395 C441 0.929 . S
O396 H370 0.856 . S
O396 C442 1.300 . S
O397 C442 1.209 . S
O398 C443 1.199 . S
O399 H371 0.854 . S
O399 C443 1.297 . S
C400 C401 1.404 . S
C400 C405 1.397 . S
C400 C406 1.492 . S
C401 C400 1.404 . S
C401 C402 1.396 . S
C401 C412 1.492 . S
C402 C401 1.396 . S
C402 C403 1.397 . S
C402 C418 1.509 . S
C403 C402 1.397 . S
C403 C404 1.412 . S
C403 C424 1.485 . S
C404 C403 1.412 . S
C404 C405 1.388 . S
C404 C430 1.490 . S
C405 C400 1.397 . S
C405 C404 1.388 . S
C405 C436 1.519 . S
C406 C400 1.492 . S
C406 C407 1.363 . S
C406 C411 1.390 . S
C407 H372 0.930 . S
C407 C406 1.363 . S
C407 C408 1.372 . S
C408 H373 0.930 . S
C408 C407 1.372 . S
C408 C409 1.383 . S
C409 C408 1.383 . S
C409 C410 1.395 . S
C410 H374 0.930 . S
C410 C409 1.395 . S
C410 C411 1.362 . S
C411 H375 0.930 . S
C411 C406 1.390 . S
C411 C410 1.362 . S
C412 C401 1.492 . S
C412 C413 1.377 . S
C412 C417 1.397 . S
C413 H376 0.931 . S
C413 C412 1.377 . S
C413 C414 1.376 . S
C414 H377 0.930 . S
C414 C413 1.376 . S
C414 C415 1.376 . S
C415 C414 1.376 . S
C415 C416 1.378 . S
C415 C442 1.486 . S
C416 H378 0.930 . S
C416 C415 1.378 . S
C416 C417 1.376 . S
C417 H379 0.929 . S
C417 C412 1.397 . S
C417 C416 1.376 . S
C418 C402 1.509 . S
C418 C419 1.391 . S
C418 C423 1.386 . S
C419 H380 0.930 . S
C419 C418 1.391 . S
C419 C420 1.375 . S
C420 H381 0.931 . S
C420 C419 1.375 . S
C420 C421 1.375 . S
C421 C420 1.375 . S
C421 C422 1.361 . S
C422 H382 0.930 . S
C422 C421 1.361 . S
C422 C423 1.399 . S
C423 H383 0.929 . S
C423 C418 1.386 . S
C423 C422 1.399 . S
C424 C403 1.485 . S
C424 C425 1.394 . S
C424 C429 1.360 . S
C425 H384 0.931 . S
C425 C424 1.394 . S
C425 C426 1.372 . S
C426 H385 0.930 . S
C426 C425 1.372 . S
C426 C427 1.397 . S
C427 C426 1.397 . S
C427 C428 1.390 . S
C427 C443 1.476 . S
C428 H386 0.930 . S
C428 C427 1.390 . S
C428 C429 1.366 . S
C429 H387 0.932 . S
C429 C424 1.360 . S
C429 C428 1.366 . S
C430 C404 1.490 . S
C430 C431 1.380 . S
C430 C435 1.386 . S
C431 H388 0.930 . S
C431 C430 1.380 . S
C431 C432 1.381 . S
C432 H389 0.929 . S
C432 C431 1.381 . S
C432 C433 1.371 . S
C433 C432 1.371 . S
C433 C434 1.380 . S
C434 H390 0.931 . S
C434 C433 1.380 . S
C434 C435 1.387 . S
C435 H391 0.930 . S
C435 C430 1.386 . S
C435 C434 1.387 . S
C436 C405 1.519 . S
C436 C437 1.377 . S
C436 C441 1.361 . S
C437 H392 0.929 . S
C437 C436 1.377 . S
C437 C438 1.386 . S
C438 H393 0.931 . S
C438 C437 1.386 . S
C438 C439 1.363 . S
C439 C438 1.363 . S
C439 C440 1.385 . S
C440 H394 0.930 . S
C440 C439 1.385 . S
C440 C441 1.396 . S
C441 H395 0.929 . S
C441 C436 1.361 . S
C441 C440 1.396 . S
C442 O396 1.300 . S
C442 O397 1.209 . S
C442 C415 1.486 . S
C443 O398 1.199 . S
C443 O399 1.297 . S
C443 C427 1.476 . S
O444 Cd445 2.223 . S
O444 C452 1.315 . S
Cd445 O444 2.223 . S
Cd445 O448 2.297 . S
Cd445 O449 2.439 . S
Cd445 O455 2.240 . S
Cd446 O447 2.240 . S
Cd446 O454 2.223 . S
Cd446 O456 2.297 . S
Cd446 O457 2.439 . S
O447 Cd446 2.240 . S
O447 C452 1.279 . S
O448 Cd445 2.297 . S
O448 C450 1.247 . S
O449 Cd445 2.439 . S
O449 C450 1.208 . S
C450 O448 1.247 . S
C450 O449 1.208 . S
C451 O456 1.247 . S
C451 O457 1.208 . S
C452 O444 1.315 . S
C452 O447 1.279 . S
C453 O454 1.315 . S
C453 O455 1.279 . S
O454 Cd446 2.223 . S
O454 C453 1.315 . S
O455 Cd445 2.240 . S
O455 C453 1.279 . S
O456 Cd446 2.297 . S
O456 C451 1.247 . S
O457 Cd446 2.439 . S
O457 C451 1.208 . S
O458 Cd459 2.223 . S
O458 C466 1.315 . S
Cd459 O458 2.223 . S
Cd459 O462 2.297 . S
Cd459 O463 2.439 . S
Cd459 O469 2.240 . S
Cd460 O461 2.240 . S
Cd460 O468 2.223 . S
Cd460 O470 2.297 . S
Cd460 O471 2.439 . S
O461 Cd460 2.240 . S
O461 C466 1.279 . S
O462 Cd459 2.297 . S
O462 C464 1.247 . S
O463 Cd459 2.439 . S
O463 C464 1.208 . S
C464 O462 1.247 . S
C464 O463 1.208 . S
C465 O470 1.247 . S
C465 O471 1.208 . S
C466 O458 1.315 . S
C466 O461 1.279 . S
C467 O468 1.315 . S
C467 O469 1.279 . S
O468 Cd460 2.223 . S
O468 C467 1.315 . S
O469 Cd459 2.240 . S
O469 C467 1.279 . S
O470 Cd460 2.297 . S
O470 C465 1.247 . S
O471 Cd460 2.439 . S
O471 C465 1.208 . S
O472 Cd473 2.223 . S
O472 C480 1.315 . S
Cd473 O472 2.223 . S
Cd473 O476 2.297 . S
Cd473 O477 2.439 . S
Cd473 O483 2.240 . S
Cd474 O475 2.240 . S
Cd474 O482 2.223 . S
Cd474 O484 2.297 . S
Cd474 O485 2.439 . S
O475 Cd474 2.240 . S
O475 C480 1.279 . S
O476 Cd473 2.297 . S
O476 C478 1.247 . S
O477 Cd473 2.439 . S
O477 C478 1.208 . S
C478 O476 1.247 . S
C478 O477 1.208 . S
C479 O484 1.247 . S
C479 O485 1.208 . S
C480 O472 1.315 . S
C480 O475 1.279 . S
C481 O482 1.315 . S
C481 O483 1.279 . S
O482 Cd474 2.223 . S
O482 C481 1.315 . S
O483 Cd473 2.240 . S
O483 C481 1.279 . S
O484 Cd474 2.297 . S
O484 C479 1.247 . S
O485 Cd474 2.439 . S
O485 C479 1.208 . S
O486 Cd487 2.223 . S
O486 C494 1.315 . S
Cd487 O486 2.223 . S
Cd487 O490 2.297 . S
Cd487 O491 2.439 . S
Cd487 O497 2.240 . S
Cd488 O489 2.240 . S
Cd488 O496 2.223 . S
Cd488 O498 2.297 . S
Cd488 O499 2.439 . S
O489 Cd488 2.240 . S
O489 C494 1.279 . S
O490 Cd487 2.297 . S
O490 C492 1.247 . S
O491 Cd487 2.439 . S
O491 C492 1.208 . S
C492 O490 1.247 . S
C492 O491 1.208 . S
C493 O498 1.247 . S
C493 O499 1.208 . S
C494 O486 1.315 . S
C494 O489 1.279 . S
C495 O496 1.315 . S
C495 O497 1.279 . S
O496 Cd488 2.223 . S
O496 C495 1.315 . S
O497 Cd487 2.240 . S
O497 C495 1.279 . S
O498 Cd488 2.297 . S
O498 C493 1.247 . S
O499 Cd488 2.439 . S
O499 C493 1.208 . S
O500 Cd501 2.223 . S
O500 C508 1.315 . S
Cd501 O500 2.223 . S
Cd501 O504 2.297 . S
Cd501 O505 2.439 . S
Cd501 O511 2.240 . S
Cd502 O503 2.240 . S
Cd502 O510 2.223 . S
Cd502 O512 2.297 . S
Cd502 O513 2.439 . S
O503 Cd502 2.240 . S
O503 C508 1.279 . S
O504 Cd501 2.297 . S
O504 C506 1.247 . S
O505 Cd501 2.439 . S
O505 C506 1.208 . S
C506 O504 1.247 . S
C506 O505 1.208 . S
C507 O512 1.247 . S
C507 O513 1.208 . S
C508 O500 1.315 . S
C508 O503 1.279 . S
C509 O510 1.315 . S
C509 O511 1.279 . S
O510 Cd502 2.223 . S
O510 C509 1.315 . S
O511 Cd501 2.240 . S
O511 C509 1.279 . S
O512 Cd502 2.297 . S
O512 C507 1.247 . S
O513 Cd502 2.439 . S
O513 C507 1.208 . S
O514 Cd515 2.223 . S
O514 C522 1.315 . S
Cd515 O514 2.223 . S
Cd515 O518 2.297 . S
Cd515 O519 2.439 . S
Cd515 O525 2.240 . S
Cd516 O517 2.240 . S
Cd516 O524 2.223 . S
Cd516 O526 2.297 . S
Cd516 O527 2.439 . S
O517 Cd516 2.240 . S
O517 C522 1.279 . S
O518 Cd515 2.297 . S
O518 C520 1.247 . S
O519 Cd515 2.439 . S
O519 C520 1.208 . S
C520 O518 1.247 . S
C520 O519 1.208 . S
C521 O526 1.247 . S
C521 O527 1.208 . S
C522 O514 1.315 . S
C522 O517 1.279 . S
C523 O524 1.315 . S
C523 O525 1.279 . S
O524 Cd516 2.223 . S
O524 C523 1.315 . S
O525 Cd515 2.240 . S
O525 C523 1.279 . S
O526 Cd516 2.297 . S
O526 C521 1.247 . S
O527 Cd516 2.439 . S
O527 C521 1.208 . S
H528 C536 0.929 . S
H529 C538 0.930 . S
H530 C540 0.930 . S
H531 C543 0.929 . S
H532 C546 0.930 . S
H533 C548 0.960 . S
H534 C548 0.960 . S
H535 C548 0.960 . S
C536 H528 0.929 . S
C536 C537 1.377 . S
C536 C538 1.384 . S
C537 C536 1.377 . S
C537 C543 1.390 . S
C538 H529 0.930 . S
C538 C536 1.384 . S
C538 C539 1.372 . S
C539 C538 1.372 . S
C539 C540 1.400 . S
C539 C544 1.490 . S
C540 H530 0.930 . S
C540 C539 1.400 . S
C540 C543 1.386 . S
H541 C557 0.930 . S
H542 C558 0.931 . S
C543 H531 0.929 . S
C543 C537 1.390 . S
C543 C540 1.386 . S
C544 C539 1.490 . S
C544 C546 1.395 . S
C544 C547 1.403 . S
H545 C551 0.930 . S
C546 H532 0.930 . S
C546 C544 1.395 . S
C546 C549 1.403 . S
C547 C544 1.403 . S
C547 C548 1.524 . S
C547 C551 1.400 . S
C548 H533 0.960 . S
C548 H534 0.960 . S
C548 H535 0.960 . S
C548 C547 1.524 . S
C549 C546 1.403 . S
C549 C550 1.392 . S
C549 C553 1.495 . S
C550 C549 1.392 . S
C550 C551 1.385 . S
C550 C552 1.478 . S
C551 H545 0.930 . S
C551 C547 1.400 . S
C551 C550 1.385 . S
C552 C550 1.478 . S
C552 C554 1.381 . S
C552 C558 1.383 . S
C553 C549 1.495 . S
C553 H559 0.959 . S
C553 H560 0.961 . S
C553 H561 0.960 . S
C554 C552 1.381 . S
C554 C555 1.394 . S
C554 H562 0.930 . S
C555 C554 1.394 . S
C555 C556 1.383 . S
C555 H563 0.929 . S
C556 C555 1.383 . S
C556 C557 1.377 . S
C557 H541 0.930 . S
C557 C556 1.377 . S
C557 C558 1.379 . S
C558 H542 0.931 . S
C558 C552 1.383 . S
C558 C557 1.379 . S
H559 C553 0.959 . S
H560 C553 0.961 . S
H561 C553 0.960 . S
H562 C554 0.930 . S
H563 C555 0.929 . S
H564 C572 0.929 . S
H565 C574 0.930 . S
H566 C576 0.930 . S
H567 C579 0.929 . S
H568 C582 0.930 . S
H569 C584 0.960 . S
H570 C584 0.960 . S
H571 C584 0.960 . S
C572 H564 0.929 . S
C572 C573 1.377 . S
C572 C574 1.384 . S
C573 C572 1.377 . S
C573 C579 1.390 . S
C574 H565 0.930 . S
C574 C572 1.384 . S
C574 C575 1.372 . S
C575 C574 1.372 . S
C575 C576 1.400 . S
C575 C580 1.490 . S
C576 H566 0.930 . S
C576 C575 1.400 . S
C576 C579 1.386 . S
H577 C593 0.930 . S
H578 C594 0.931 . S
C579 H567 0.929 . S
C579 C573 1.390 . S
C579 C576 1.386 . S
C580 C575 1.490 . S
C580 C582 1.395 . S
C580 C583 1.403 . S
H581 C587 0.930 . S
C582 H568 0.930 . S
C582 C580 1.395 . S
C582 C585 1.403 . S
C583 C580 1.403 . S
C583 C584 1.524 . S
C583 C587 1.400 . S
C584 H569 0.960 . S
C584 H570 0.960 . S
C584 H571 0.960 . S
C584 C583 1.524 . S
C585 C582 1.403 . S
C585 C586 1.392 . S
C585 C589 1.495 . S
C586 C585 1.392 . S
C586 C587 1.385 . S
C586 C588 1.478 . S
C587 H581 0.930 . S
C587 C583 1.400 . S
C587 C586 1.385 . S
C588 C586 1.478 . S
C588 C590 1.381 . S
C588 C594 1.383 . S
C589 C585 1.495 . S
C589 H595 0.959 . S
C589 H596 0.961 . S
C589 H597 0.960 . S
C590 C588 1.381 . S
C590 C591 1.394 . S
C590 H598 0.930 . S
C591 C590 1.394 . S
C591 C592 1.383 . S
C591 H599 0.929 . S
C592 C591 1.383 . S
C592 C593 1.377 . S
C593 H577 0.930 . S
C593 C592 1.377 . S
C593 C594 1.379 . S
C594 H578 0.931 . S
C594 C588 1.383 . S
C594 C593 1.379 . S
H595 C589 0.959 . S
H596 C589 0.961 . S
H597 C589 0.960 . S
H598 C590 0.930 . S
H599 C591 0.929 . S
H600 C608 0.929 . S
H601 C610 0.930 . S
H602 C612 0.930 . S
H603 C615 0.929 . S
H604 C618 0.930 . S
H605 C620 0.960 . S
H606 C620 0.960 . S
H607 C620 0.960 . S
C608 H600 0.929 . S
C608 C609 1.377 . S
C608 C610 1.384 . S
C609 C608 1.377 . S
C609 C615 1.390 . S
C610 H601 0.930 . S
C610 C608 1.384 . S
C610 C611 1.372 . S
C611 C610 1.372 . S
C611 C612 1.400 . S
C611 C616 1.490 . S
C612 H602 0.930 . S
C612 C611 1.400 . S
C612 C615 1.386 . S
H613 C629 0.930 . S
H614 C630 0.931 . S
C615 H603 0.929 . S
C615 C609 1.390 . S
C615 C612 1.386 . S
C616 C611 1.490 . S
C616 C618 1.395 . S
C616 C619 1.403 . S
H617 C623 0.930 . S
C618 H604 0.930 . S
C618 C616 1.395 . S
C618 C621 1.403 . S
C619 C616 1.403 . S
C619 C620 1.524 . S
C619 C623 1.400 . S
C620 H605 0.960 . S
C620 H606 0.960 . S
C620 H607 0.960 . S
C620 C619 1.524 . S
C621 C618 1.403 . S
C621 C622 1.392 . S
C621 C625 1.495 . S
C622 C621 1.392 . S
C622 C623 1.385 . S
C622 C624 1.478 . S
C623 H617 0.930 . S
C623 C619 1.400 . S
C623 C622 1.385 . S
C624 C622 1.478 . S
C624 C626 1.381 . S
C624 C630 1.383 . S
C625 C621 1.495 . S
C625 H631 0.959 . S
C625 H632 0.961 . S
C625 H633 0.960 . S
C626 C624 1.381 . S
C626 C627 1.394 . S
C626 H634 0.930 . S
C627 C626 1.394 . S
C627 C628 1.383 . S
C627 H635 0.929 . S
C628 C627 1.383 . S
C628 C629 1.377 . S
C629 H613 0.930 . S
C629 C628 1.377 . S
C629 C630 1.379 . S
C630 H614 0.931 . S
C630 C624 1.383 . S
C630 C629 1.379 . S
H631 C625 0.959 . S
H632 C625 0.961 . S
H633 C625 0.960 . S
H634 C626 0.930 . S
H635 C627 0.929 . S
H636 C644 0.929 . S
H637 C646 0.930 . S
H638 C648 0.930 . S
H639 C651 0.929 . S
H640 C654 0.930 . S
H641 C656 0.960 . S
H642 C656 0.960 . S
H643 C656 0.960 . S
C644 H636 0.929 . S
C644 C645 1.377 . S
C644 C646 1.384 . S
C645 C644 1.377 . S
C645 C651 1.390 . S
C646 H637 0.930 . S
C646 C644 1.384 . S
C646 C647 1.372 . S
C647 C646 1.372 . S
C647 C648 1.400 . S
C647 C652 1.490 . S
C648 H638 0.930 . S
C648 C647 1.400 . S
C648 C651 1.386 . S
H649 C665 0.930 . S
H650 C666 0.931 . S
C651 H639 0.929 . S
C651 C645 1.390 . S
C651 C648 1.386 . S
C652 C647 1.490 . S
C652 C654 1.395 . S
C652 C655 1.403 . S
H653 C659 0.930 . S
C654 H640 0.930 . S
C654 C652 1.395 . S
C654 C657 1.403 . S
C655 C652 1.403 . S
C655 C656 1.524 . S
C655 C659 1.400 . S
C656 H641 0.960 . S
C656 H642 0.960 . S
C656 H643 0.960 . S
C656 C655 1.524 . S
C657 C654 1.403 . S
C657 C658 1.392 . S
C657 C661 1.495 . S
C658 C657 1.392 . S
C658 C659 1.385 . S
C658 C660 1.478 . S
C659 H653 0.930 . S
C659 C655 1.400 . S
C659 C658 1.385 . S
C660 C658 1.478 . S
C660 C662 1.381 . S
C660 C666 1.383 . S
C661 C657 1.495 . S
C661 H667 0.959 . S
C661 H668 0.961 . S
C661 H669 0.960 . S
C662 C660 1.381 . S
C662 C663 1.394 . S
C662 H670 0.930 . S
C663 C662 1.394 . S
C663 C664 1.383 . S
C663 H671 0.929 . S
C664 C663 1.383 . S
C664 C665 1.377 . S
C665 H649 0.930 . S
C665 C664 1.377 . S
C665 C666 1.379 . S
C666 H650 0.931 . S
C666 C660 1.383 . S
C666 C665 1.379 . S
H667 C661 0.959 . S
H668 C661 0.961 . S
H669 C661 0.960 . S
H670 C662 0.930 . S
H671 C663 0.929 . S
H672 C680 0.929 . S
H673 C682 0.930 . S
H674 C684 0.930 . S
H675 C687 0.929 . S
H676 C690 0.930 . S
H677 C692 0.960 . S
H678 C692 0.960 . S
H679 C692 0.960 . S
C680 H672 0.929 . S
C680 C681 1.377 . S
C680 C682 1.384 . S
C681 C680 1.377 . S
C681 C687 1.390 . S
C682 H673 0.930 . S
C682 C680 1.384 . S
C682 C683 1.372 . S
C683 C682 1.372 . S
C683 C684 1.400 . S
C683 C688 1.490 . S
C684 H674 0.930 . S
C684 C683 1.400 . S
C684 C687 1.386 . S
H685 C701 0.930 . S
H686 C702 0.931 . S
C687 H675 0.929 . S
C687 C681 1.390 . S
C687 C684 1.386 . S
C688 C683 1.490 . S
C688 C690 1.395 . S
C688 C691 1.403 . S
H689 C695 0.930 . S
C690 H676 0.930 . S
C690 C688 1.395 . S
C690 C693 1.403 . S
C691 C688 1.403 . S
C691 C692 1.524 . S
C691 C695 1.400 . S
C692 H677 0.960 . S
C692 H678 0.960 . S
C692 H679 0.960 . S
C692 C691 1.524 . S
C693 C690 1.403 . S
C693 C694 1.392 . S
C693 C697 1.495 . S
C694 C693 1.392 . S
C694 C695 1.385 . S
C694 C696 1.478 . S
C695 H689 0.930 . S
C695 C691 1.400 . S
C695 C694 1.385 . S
C696 C694 1.478 . S
C696 C698 1.381 . S
C696 C702 1.383 . S
C697 C693 1.495 . S
C697 H703 0.959 . S
C697 H704 0.961 . S
C697 H705 0.960 . S
C698 C696 1.381 . S
C698 C699 1.394 . S
C698 H706 0.930 . S
C699 C698 1.394 . S
C699 C700 1.383 . S
C699 H707 0.929 . S
C700 C699 1.383 . S
C700 C701 1.377 . S
C701 H685 0.930 . S
C701 C700 1.377 . S
C701 C702 1.379 . S
C702 H686 0.931 . S
C702 C696 1.383 . S
C702 C701 1.379 . S
H703 C697 0.959 . S
H704 C697 0.961 . S
H705 C697 0.960 . S
H706 C698 0.930 . S
H707 C699 0.929 . S
H708 C716 0.929 . S
H709 C718 0.930 . S
H710 C720 0.930 . S
H711 C723 0.929 . S
H712 C726 0.930 . S
H713 C728 0.960 . S
H714 C728 0.960 . S
H715 C728 0.960 . S
C716 H708 0.929 . S
C716 C717 1.377 . S
C716 C718 1.384 . S
C717 C716 1.377 . S
C717 C723 1.390 . S
C718 H709 0.930 . S
C718 C716 1.384 . S
C718 C719 1.372 . S
C719 C718 1.372 . S
C719 C720 1.400 . S
C719 C724 1.490 . S
C720 H710 0.930 . S
C720 C719 1.400 . S
C720 C723 1.386 . S
H721 C737 0.930 . S
H722 C738 0.931 . S
C723 H711 0.929 . S
C723 C717 1.390 . S
C723 C720 1.386 . S
C724 C719 1.490 . S
C724 C726 1.395 . S
C724 C727 1.403 . S
H725 C731 0.930 . S
C726 H712 0.930 . S
C726 C724 1.395 . S
C726 C729 1.403 . S
C727 C724 1.403 . S
C727 C728 1.524 . S
C727 C731 1.400 . S
C728 H713 0.960 . S
C728 H714 0.960 . S
C728 H715 0.960 . S
C728 C727 1.524 . S
C729 C726 1.403 . S
C729 C730 1.392 . S
C729 C733 1.495 . S
C730 C729 1.392 . S
C730 C731 1.385 . S
C730 C732 1.478 . S
C731 H725 0.930 . S
C731 C727 1.400 . S
C731 C730 1.385 . S
C732 C730 1.478 . S
C732 C734 1.381 . S
C732 C738 1.383 . S
C733 C729 1.495 . S
C733 H739 0.959 . S
C733 H740 0.961 . S
C733 H741 0.960 . S
C734 C732 1.381 . S
C734 C735 1.394 . S
C734 H742 0.930 . S
C735 C734 1.394 . S
C735 C736 1.383 . S
C735 H743 0.929 . S
C736 C735 1.383 . S
C736 C737 1.377 . S
C737 H721 0.930 . S
C737 C736 1.377 . S
C737 C738 1.379 . S
C738 H722 0.931 . S
C738 C732 1.383 . S
C738 C737 1.379 . S
H739 C733 0.959 . S
H740 C733 0.961 . S
H741 C733 0.960 . S
H742 C734 0.930 . S
H743 C735 0.929 . S
H744 C752 0.929 . S
H745 C754 0.930 . S
H746 C756 0.930 . S
H747 C759 0.929 . S
H748 C762 0.930 . S
H749 C764 0.960 . S
H750 C764 0.960 . S
H751 C764 0.960 . S
C752 H744 0.929 . S
C752 C753 1.377 . S
C752 C754 1.384 . S
C753 C752 1.377 . S
C753 C759 1.390 . S
C754 H745 0.930 . S
C754 C752 1.384 . S
C754 C755 1.372 . S
C755 C754 1.372 . S
C755 C756 1.400 . S
C755 C760 1.490 . S
C756 H746 0.930 . S
C756 C755 1.400 . S
C756 C759 1.386 . S
H757 C773 0.930 . S
H758 C774 0.931 . S
C759 H747 0.929 . S
C759 C753 1.390 . S
C759 C756 1.386 . S
C760 C755 1.490 . S
C760 C762 1.395 . S
C760 C763 1.403 . S
H761 C767 0.930 . S
C762 H748 0.930 . S
C762 C760 1.395 . S
C762 C765 1.403 . S
C763 C760 1.403 . S
C763 C764 1.524 . S
C763 C767 1.400 . S
C764 H749 0.960 . S
C764 H750 0.960 . S
C764 H751 0.960 . S
C764 C763 1.524 . S
C765 C762 1.403 . S
C765 C766 1.392 . S
C765 C769 1.495 . S
C766 C765 1.392 . S
C766 C767 1.385 . S
C766 C768 1.478 . S
C767 H761 0.930 . S
C767 C763 1.400 . S
C767 C766 1.385 . S
C768 C766 1.478 . S
C768 C770 1.381 . S
C768 C774 1.383 . S
C769 C765 1.495 . S
C769 H775 0.959 . S
C769 H776 0.961 . S
C769 H777 0.960 . S
C770 C768 1.381 . S
C770 C771 1.394 . S
C770 H778 0.930 . S
C771 C770 1.394 . S
C771 C772 1.383 . S
C771 H779 0.929 . S
C772 C771 1.383 . S
C772 C773 1.377 . S
C773 H757 0.930 . S
C773 C772 1.377 . S
C773 C774 1.379 . S
C774 H758 0.931 . S
C774 C768 1.383 . S
C774 C773 1.379 . S
H775 C769 0.959 . S
H776 C769 0.961 . S
H777 C769 0.960 . S
H778 C770 0.930 . S
H779 C771 0.929 . S
H780 C788 0.929 . S
H781 C790 0.930 . S
H782 C792 0.930 . S
H783 C795 0.929 . S
H784 C798 0.930 . S
H785 C800 0.960 . S
H786 C800 0.960 . S
H787 C800 0.960 . S
C788 H780 0.929 . S
C788 C789 1.377 . S
C788 C790 1.384 . S
C789 C788 1.377 . S
C789 C795 1.390 . S
C790 H781 0.930 . S
C790 C788 1.384 . S
C790 C791 1.372 . S
C791 C790 1.372 . S
C791 C792 1.400 . S
C791 C796 1.490 . S
C792 H782 0.930 . S
C792 C791 1.400 . S
C792 C795 1.386 . S
H793 C809 0.930 . S
H794 C810 0.931 . S
C795 H783 0.929 . S
C795 C789 1.390 . S
C795 C792 1.386 . S
C796 C791 1.490 . S
C796 C798 1.395 . S
C796 C799 1.403 . S
H797 C803 0.930 . S
C798 H784 0.930 . S
C798 C796 1.395 . S
C798 C801 1.403 . S
C799 C796 1.403 . S
C799 C800 1.524 . S
C799 C803 1.400 . S
C800 H785 0.960 . S
C800 H786 0.960 . S
C800 H787 0.960 . S
C800 C799 1.524 . S
C801 C798 1.403 . S
C801 C802 1.392 . S
C801 C805 1.495 . S
C802 C801 1.392 . S
C802 C803 1.385 . S
C802 C804 1.478 . S
C803 H797 0.930 . S
C803 C799 1.400 . S
C803 C802 1.385 . S
C804 C802 1.478 . S
C804 C806 1.381 . S
C804 C810 1.383 . S
C805 C801 1.495 . S
C805 H811 0.959 . S
C805 H812 0.961 . S
C805 H813 0.960 . S
C806 C804 1.381 . S
C806 C807 1.394 . S
C806 H814 0.930 . S
C807 C806 1.394 . S
C807 C808 1.383 . S
C807 H815 0.929 . S
C808 C807 1.383 . S
C808 C809 1.377 . S
C809 H793 0.930 . S
C809 C808 1.377 . S
C809 C810 1.379 . S
C810 H794 0.931 . S
C810 C804 1.383 . S
C810 C809 1.379 . S
H811 C805 0.959 . S
H812 C805 0.961 . S
H813 C805 0.960 . S
H814 C806 0.930 . S
H815 C807 0.929 . S
H816 C824 0.929 . S
H817 C826 0.930 . S
H818 C828 0.930 . S
H819 C831 0.929 . S
H820 C834 0.930 . S
H821 C836 0.960 . S
H822 C836 0.960 . S
H823 C836 0.960 . S
C824 H816 0.929 . S
C824 C825 1.377 . S
C824 C826 1.384 . S
C825 C824 1.377 . S
C825 C831 1.390 . S
C826 H817 0.930 . S
C826 C824 1.384 . S
C826 C827 1.372 . S
C827 C826 1.372 . S
C827 C828 1.400 . S
C827 C832 1.490 . S
C828 H818 0.930 . S
C828 C827 1.400 . S
C828 C831 1.386 . S
H829 C845 0.930 . S
H830 C846 0.931 . S
C831 H819 0.929 . S
C831 C825 1.390 . S
C831 C828 1.386 . S
C832 C827 1.490 . S
C832 C834 1.395 . S
C832 C835 1.403 . S
H833 C839 0.930 . S
C834 H820 0.930 . S
C834 C832 1.395 . S
C834 C837 1.403 . S
C835 C832 1.403 . S
C835 C836 1.524 . S
C835 C839 1.400 . S
C836 H821 0.960 . S
C836 H822 0.960 . S
C836 H823 0.960 . S
C836 C835 1.524 . S
C837 C834 1.403 . S
C837 C838 1.392 . S
C837 C841 1.495 . S
C838 C837 1.392 . S
C838 C839 1.385 . S
C838 C840 1.478 . S
C839 H833 0.930 . S
C839 C835 1.400 . S
C839 C838 1.385 . S
C840 C838 1.478 . S
C840 C842 1.381 . S
C840 C846 1.383 . S
C841 C837 1.495 . S
C841 H847 0.959 . S
C841 H848 0.961 . S
C841 H849 0.960 . S
C842 C840 1.381 . S
C842 C843 1.394 . S
C842 H850 0.930 . S
C843 C842 1.394 . S
C843 C844 1.383 . S
C843 H851 0.929 . S
C844 C843 1.383 . S
C844 C845 1.377 . S
C845 H829 0.930 . S
C845 C844 1.377 . S
C845 C846 1.379 . S
C846 H830 0.931 . S
C846 C840 1.383 . S
C846 C845 1.379 . S
H847 C841 0.959 . S
H848 C841 0.961 . S
H849 C841 0.960 . S
H850 C842 0.930 . S
H851 C843 0.929 . S
H852 C860 0.929 . S
H853 C862 0.930 . S
H854 C864 0.930 . S
H855 C867 0.929 . S
H856 C870 0.930 . S
H857 C872 0.960 . S
H858 C872 0.960 . S
H859 C872 0.960 . S
C860 H852 0.929 . S
C860 C861 1.377 . S
C860 C862 1.384 . S
C861 C860 1.377 . S
C861 C867 1.390 . S
C862 H853 0.930 . S
C862 C860 1.384 . S
C862 C863 1.372 . S
C863 C862 1.372 . S
C863 C864 1.400 . S
C863 C868 1.490 . S
C864 H854 0.930 . S
C864 C863 1.400 . S
C864 C867 1.386 . S
H865 C881 0.930 . S
H866 C882 0.931 . S
C867 H855 0.929 . S
C867 C861 1.390 . S
C867 C864 1.386 . S
C868 C863 1.490 . S
C868 C870 1.395 . S
C868 C871 1.403 . S
H869 C875 0.930 . S
C870 H856 0.930 . S
C870 C868 1.395 . S
C870 C873 1.403 . S
C871 C868 1.403 . S
C871 C872 1.524 . S
C871 C875 1.400 . S
C872 H857 0.960 . S
C872 H858 0.960 . S
C872 H859 0.960 . S
C872 C871 1.524 . S
C873 C870 1.403 . S
C873 C874 1.392 . S
C873 C877 1.495 . S
C874 C873 1.392 . S
C874 C875 1.385 . S
C874 C876 1.478 . S
C875 H869 0.930 . S
C875 C871 1.400 . S
C875 C874 1.385 . S
C876 C874 1.478 . S
C876 C878 1.381 . S
C876 C882 1.383 . S
C877 C873 1.495 . S
C877 H883 0.959 . S
C877 H884 0.961 . S
C877 H885 0.960 . S
C878 C876 1.381 . S
C878 C879 1.394 . S
C878 H886 0.930 . S
C879 C878 1.394 . S
C879 C880 1.383 . S
C879 H887 0.929 . S
C880 C879 1.383 . S
C880 C881 1.377 . S
C881 H865 0.930 . S
C881 C880 1.377 . S
C881 C882 1.379 . S
C882 H866 0.931 . S
C882 C876 1.383 . S
C882 C881 1.379 . S
H883 C877 0.959 . S
H884 C877 0.961 . S
H885 C877 0.960 . S
H886 C878 0.930 . S
H887 C879 0.929 . S
H888 C896 0.929 . S
H889 C898 0.930 . S
H890 C900 0.930 . S
H891 C903 0.929 . S
H892 C906 0.930 . S
H893 C908 0.960 . S
H894 C908 0.960 . S
H895 C908 0.960 . S
C896 H888 0.929 . S
C896 C897 1.377 . S
C896 C898 1.384 . S
C897 C896 1.377 . S
C897 C903 1.390 . S
C898 H889 0.930 . S
C898 C896 1.384 . S
C898 C899 1.372 . S
C899 C898 1.372 . S
C899 C900 1.400 . S
C899 C904 1.490 . S
C900 H890 0.930 . S
C900 C899 1.400 . S
C900 C903 1.386 . S
H901 C917 0.930 . S
H902 C918 0.931 . S
C903 H891 0.929 . S
C903 C897 1.390 . S
C903 C900 1.386 . S
C904 C899 1.490 . S
C904 C906 1.395 . S
C904 C907 1.403 . S
H905 C911 0.930 . S
C906 H892 0.930 . S
C906 C904 1.395 . S
C906 C909 1.403 . S
C907 C904 1.403 . S
C907 C908 1.524 . S
C907 C911 1.400 . S
C908 H893 0.960 . S
C908 H894 0.960 . S
C908 H895 0.960 . S
C908 C907 1.524 . S
C909 C906 1.403 . S
C909 C910 1.392 . S
C909 C913 1.495 . S
C910 C909 1.392 . S
C910 C911 1.385 . S
C910 C912 1.478 . S
C911 H905 0.930 . S
C911 C907 1.400 . S
C911 C910 1.385 . S
C912 C910 1.478 . S
C912 C914 1.381 . S
C912 C918 1.383 . S
C913 C909 1.495 . S
C913 H919 0.959 . S
C913 H920 0.961 . S
C913 H921 0.960 . S
C914 C912 1.381 . S
C914 C915 1.394 . S
C914 H922 0.930 . S
C915 C914 1.394 . S
C915 C916 1.383 . S
C915 H923 0.929 . S
C916 C915 1.383 . S
C916 C917 1.377 . S
C917 H901 0.930 . S
C917 C916 1.377 . S
C917 C918 1.379 . S
C918 H902 0.931 . S
C918 C912 1.383 . S
C918 C917 1.379 . S
H919 C913 0.959 . S
H920 C913 0.961 . S
H921 C913 0.960 . S
H922 C914 0.930 . S
H923 C915 0.929 . S
H924 C932 0.929 . S
H925 C934 0.930 . S
H926 C936 0.930 . S
H927 C939 0.929 . S
H928 C942 0.930 . S
H929 C944 0.960 . S
H930 C944 0.960 . S
H931 C944 0.960 . S
C932 H924 0.929 . S
C932 C933 1.377 . S
C932 C934 1.384 . S
C933 C932 1.377 . S
C933 C939 1.390 . S
C934 H925 0.930 . S
C934 C932 1.384 . S
C934 C935 1.372 . S
C935 C934 1.372 . S
C935 C936 1.400 . S
C935 C940 1.490 . S
C936 H926 0.930 . S
C936 C935 1.400 . S
C936 C939 1.386 . S
H937 C953 0.930 . S
H938 C954 0.931 . S
C939 H927 0.929 . S
C939 C933 1.390 . S
C939 C936 1.386 . S
C940 C935 1.490 . S
C940 C942 1.395 . S
C940 C943 1.403 . S
H941 C947 0.930 . S
C942 H928 0.930 . S
C942 C940 1.395 . S
C942 C945 1.403 . S
C943 C940 1.403 . S
C943 C944 1.524 . S
C943 C947 1.400 . S
C944 H929 0.960 . S
C944 H930 0.960 . S
C944 H931 0.960 . S
C944 C943 1.524 . S
C945 C942 1.403 . S
C945 C946 1.392 . S
C945 C949 1.495 . S
C946 C945 1.392 . S
C946 C947 1.385 . S
C946 C948 1.478 . S
C947 H941 0.930 . S
C947 C943 1.400 . S
C947 C946 1.385 . S
C948 C946 1.478 . S
C948 C950 1.381 . S
C948 C954 1.383 . S
C949 C945 1.495 . S
C949 H955 0.959 . S
C949 H956 0.961 . S
C949 H957 0.960 . S
C950 C948 1.381 . S
C950 C951 1.394 . S
C950 H958 0.930 . S
C951 C950 1.394 . S
C951 C952 1.383 . S
C951 H959 0.929 . S
C952 C951 1.383 . S
C952 C953 1.377 . S
C953 H937 0.930 . S
C953 C952 1.377 . S
C953 C954 1.379 . S
C954 H938 0.931 . S
C954 C948 1.383 . S
C954 C953 1.379 . S
H955 C949 0.959 . S
H956 C949 0.961 . S
H957 C949 0.960 . S
H958 C950 0.930 . S
H959 C951 0.929 . S
H960 C968 0.929 . S
H961 C970 0.930 . S
H962 C972 0.930 . S
H963 C975 0.929 . S
H964 C978 0.930 . S
H965 C980 0.960 . S
H966 C980 0.960 . S
H967 C980 0.960 . S
C968 H960 0.929 . S
C968 C969 1.377 . S
C968 C970 1.384 . S
C969 C968 1.377 . S
C969 C975 1.390 . S
C970 H961 0.930 . S
C970 C968 1.384 . S
C970 C971 1.372 . S
C971 C970 1.372 . S
C971 C972 1.400 . S
C971 C976 1.490 . S
C972 H962 0.930 . S
C972 C971 1.400 . S
C972 C975 1.386 . S
H973 C989 0.930 . S
H974 C990 0.931 . S
C975 H963 0.929 . S
C975 C969 1.390 . S
C975 C972 1.386 . S
C976 C971 1.490 . S
C976 C978 1.395 . S
C976 C979 1.403 . S
H977 C983 0.930 . S
C978 H964 0.930 . S
C978 C976 1.395 . S
C978 C981 1.403 . S
C979 C976 1.403 . S
C979 C980 1.524 . S
C979 C983 1.400 . S
C980 H965 0.960 . S
C980 H966 0.960 . S
C980 H967 0.960 . S
C980 C979 1.524 . S
C981 C978 1.403 . S
C981 C982 1.392 . S
C981 C985 1.495 . S
C982 C981 1.392 . S
C982 C983 1.385 . S
C982 C984 1.478 . S
C983 H977 0.930 . S
C983 C979 1.400 . S
C983 C982 1.385 . S
C984 C982 1.478 . S
C984 C986 1.381 . S
C984 C990 1.383 . S
C985 C981 1.495 . S
C985 H991 0.959 . S
C985 H992 0.961 . S
C985 H993 0.960 . S
C986 C984 1.381 . S
C986 C987 1.394 . S
C986 H994 0.930 . S
C987 C986 1.394 . S
C987 C988 1.383 . S
C987 H995 0.929 . S
C988 C987 1.383 . S
C988 C989 1.377 . S
C989 H973 0.930 . S
C989 C988 1.377 . S
C989 C990 1.379 . S
C990 H974 0.931 . S
C990 C984 1.383 . S
C990 C989 1.379 . S
H991 C985 0.959 . S
H992 C985 0.961 . S
H993 C985 0.960 . S
H994 C986 0.930 . S
H995 C987 0.929 . S
H996 C1004 0.929 . S
H997 C1006 0.930 . S
H998 C1008 0.930 . S
H999 C1011 0.929 . S
H1000 C1014 0.930 . S
H1001 C1016 0.960 . S
H1002 C1016 0.960 . S
H1003 C1016 0.960 . S
C1004 H996 0.929 . S
C1004 C1005 1.377 . S
C1004 C1006 1.384 . S
C1005 C1004 1.377 . S
C1005 C1011 1.390 . S
C1006 H997 0.930 . S
C1006 C1004 1.384 . S
C1006 C1007 1.372 . S
C1007 C1006 1.372 . S
C1007 C1008 1.400 . S
C1007 C1012 1.490 . S
C1008 H998 0.930 . S
C1008 C1007 1.400 . S
C1008 C1011 1.386 . S
H1009 C1025 0.930 . S
H1010 C1026 0.931 . S
C1011 H999 0.929 . S
C1011 C1005 1.390 . S
C1011 C1008 1.386 . S
C1012 C1007 1.490 . S
C1012 C1014 1.395 . S
C1012 C1015 1.403 . S
H1013 C1019 0.930 . S
C1014 H1000 0.930 . S
C1014 C1012 1.395 . S
C1014 C1017 1.403 . S
C1015 C1012 1.403 . S
C1015 C1016 1.524 . S
C1015 C1019 1.400 . S
C1016 H1001 0.960 . S
C1016 H1002 0.960 . S
C1016 H1003 0.960 . S
C1016 C1015 1.524 . S
C1017 C1014 1.403 . S
C1017 C1018 1.392 . S
C1017 C1021 1.495 . S
C1018 C1017 1.392 . S
C1018 C1019 1.385 . S
C1018 C1020 1.478 . S
C1019 H1013 0.930 . S
C1019 C1015 1.400 . S
C1019 C1018 1.385 . S
C1020 C1018 1.478 . S
C1020 C1022 1.381 . S
C1020 C1026 1.383 . S
C1021 C1017 1.495 . S
C1021 H1027 0.959 . S
C1021 H1028 0.961 . S
C1021 H1029 0.960 . S
C1022 C1020 1.381 . S
C1022 C1023 1.394 . S
C1022 H1030 0.930 . S
C1023 C1022 1.394 . S
C1023 C1024 1.383 . S
C1023 H1031 0.929 . S
C1024 C1023 1.383 . S
C1024 C1025 1.377 . S
C1025 H1009 0.930 . S
C1025 C1024 1.377 . S
C1025 C1026 1.379 . S
C1026 H1010 0.931 . S
C1026 C1020 1.383 . S
C1026 C1025 1.379 . S
H1027 C1021 0.959 . S
H1028 C1021 0.961 . S
H1029 C1021 0.960 . S
H1030 C1022 0.930 . S
H1031 C1023 0.929 . S
H1032 C1040 0.929 . S
H1033 C1042 0.930 . S
H1034 C1044 0.930 . S
H1035 C1047 0.929 . S
H1036 C1050 0.930 . S
H1037 C1052 0.960 . S
H1038 C1052 0.960 . S
H1039 C1052 0.960 . S
C1040 H1032 0.929 . S
C1040 C1041 1.377 . S
C1040 C1042 1.384 . S
C1041 C1040 1.377 . S
C1041 C1047 1.390 . S
C1042 H1033 0.930 . S
C1042 C1040 1.384 . S
C1042 C1043 1.372 . S
C1043 C1042 1.372 . S
C1043 C1044 1.400 . S
C1043 C1048 1.490 . S
C1044 H1034 0.930 . S
C1044 C1043 1.400 . S
C1044 C1047 1.386 . S
H1045 C1061 0.930 . S
H1046 C1062 0.931 . S
C1047 H1035 0.929 . S
C1047 C1041 1.390 . S
C1047 C1044 1.386 . S
C1048 C1043 1.490 . S
C1048 C1050 1.395 . S
C1048 C1051 1.403 . S
H1049 C1055 0.930 . S
C1050 H1036 0.930 . S
C1050 C1048 1.395 . S
C1050 C1053 1.403 . S
C1051 C1048 1.403 . S
C1051 C1052 1.524 . S
C1051 C1055 1.400 . S
C1052 H1037 0.960 . S
C1052 H1038 0.960 . S
C1052 H1039 0.960 . S
C1052 C1051 1.524 . S
C1053 C1050 1.403 . S
C1053 C1054 1.392 . S
C1053 C1057 1.495 . S
C1054 C1053 1.392 . S
C1054 C1055 1.385 . S
C1054 C1056 1.478 . S
C1055 H1049 0.930 . S
C1055 C1051 1.400 . S
C1055 C1054 1.385 . S
C1056 C1054 1.478 . S
C1056 C1058 1.381 . S
C1056 C1062 1.383 . S
C1057 C1053 1.495 . S
C1057 H1063 0.959 . S
C1057 H1064 0.961 . S
C1057 H1065 0.960 . S
C1058 C1056 1.381 . S
C1058 C1059 1.394 . S
C1058 H1066 0.930 . S
C1059 C1058 1.394 . S
C1059 C1060 1.383 . S
C1059 H1067 0.929 . S
C1060 C1059 1.383 . S
C1060 C1061 1.377 . S
C1061 H1045 0.930 . S
C1061 C1060 1.377 . S
C1061 C1062 1.379 . S
C1062 H1046 0.931 . S
C1062 C1056 1.383 . S
C1062 C1061 1.379 . S
H1063 C1057 0.959 . S
H1064 C1057 0.961 . S
H1065 C1057 0.960 . S
H1066 C1058 0.930 . S
H1067 C1059 0.929 . S
H1068 C1076 0.929 . S
H1069 C1078 0.930 . S
H1070 C1080 0.930 . S
H1071 C1083 0.929 . S
H1072 C1086 0.930 . S
H1073 C1088 0.960 . S
H1074 C1088 0.960 . S
H1075 C1088 0.960 . S
C1076 H1068 0.929 . S
C1076 C1077 1.377 . S
C1076 C1078 1.384 . S
C1077 C1076 1.377 . S
C1077 C1083 1.390 . S
C1078 H1069 0.930 . S
C1078 C1076 1.384 . S
C1078 C1079 1.372 . S
C1079 C1078 1.372 . S
C1079 C1080 1.400 . S
C1079 C1084 1.490 . S
C1080 H1070 0.930 . S
C1080 C1079 1.400 . S
C1080 C1083 1.386 . S
H1081 C1097 0.930 . S
H1082 C1098 0.931 . S
C1083 H1071 0.929 . S
C1083 C1077 1.390 . S
C1083 C1080 1.386 . S
C1084 C1079 1.490 . S
C1084 C1086 1.395 . S
C1084 C1087 1.403 . S
H1085 C1091 0.930 . S
C1086 H1072 0.930 . S
C1086 C1084 1.395 . S
C1086 C1089 1.403 . S
C1087 C1084 1.403 . S
C1087 C1088 1.524 . S
C1087 C1091 1.400 . S
C1088 H1073 0.960 . S
C1088 H1074 0.960 . S
C1088 H1075 0.960 . S
C1088 C1087 1.524 . S
C1089 C1086 1.403 . S
C1089 C1090 1.392 . S
C1089 C1093 1.495 . S
C1090 C1089 1.392 . S
C1090 C1091 1.385 . S
C1090 C1092 1.478 . S
C1091 H1085 0.930 . S
C1091 C1087 1.400 . S
C1091 C1090 1.385 . S
C1092 C1090 1.478 . S
C1092 C1094 1.381 1_556 S
C1092 C1098 1.383 . S
C1093 C1089 1.495 . S
C1093 H1099 0.959 . S
C1093 H1100 0.961 1_556 S
C1093 H1101 0.960 1_556 S
C1094 C1092 1.381 1_554 S
C1094 C1095 1.394 . S
C1094 H1102 0.930 . S
C1095 C1094 1.394 . S
C1095 C1096 1.383 . S
C1095 H1103 0.929 . S
C1096 C1095 1.383 . S
C1096 C1097 1.377 . S
C1097 H1081 0.930 . S
C1097 C1096 1.377 . S
C1097 C1098 1.379 1_554 S
C1098 H1082 0.931 . S
C1098 C1092 1.383 . S
C1098 C1097 1.379 1_556 S
H1099 C1093 0.959 . S
H1100 C1093 0.961 1_554 S
H1101 C1093 0.960 1_554 S
H1102 C1094 0.930 . S
H1103 C1095 0.929 . S
H1104 C1112 0.929 . S
H1105 C1114 0.930 . S
H1106 C1116 0.930 . S
H1107 C1119 0.929 . S
H1108 C1122 0.930 . S
H1109 C1124 0.960 . S
H1110 C1124 0.960 . S
H1111 C1124 0.960 . S
C1112 H1104 0.929 . S
C1112 C1113 1.377 1_565 S
C1112 C1114 1.384 . S
C1113 C1112 1.377 1_545 S
C1113 C1119 1.390 . S
C1114 H1105 0.930 . S
C1114 C1112 1.384 . S
C1114 C1115 1.372 . S
C1115 C1114 1.372 . S
C1115 C1116 1.400 . S
C1115 C1120 1.490 . S
C1116 H1106 0.930 . S
C1116 C1115 1.400 . S
C1116 C1119 1.386 1_565 S
H1117 C1133 0.930 . S
H1118 C1134 0.931 . S
C1119 H1107 0.929 . S
C1119 C1113 1.390 . S
C1119 C1116 1.386 1_545 S
C1120 C1115 1.490 . S
C1120 C1122 1.395 . S
C1120 C1123 1.403 . S
H1121 C1127 0.930 . S
C1122 H1108 0.930 . S
C1122 C1120 1.395 . S
C1122 C1125 1.403 . S
C1123 C1120 1.403 . S
C1123 C1124 1.524 . S
C1123 C1127 1.400 . S
C1124 H1109 0.960 . S
C1124 H1110 0.960 . S
C1124 H1111 0.960 . S
C1124 C1123 1.524 . S
C1125 C1122 1.403 . S
C1125 C1126 1.392 . S
C1125 C1129 1.495 . S
C1126 C1125 1.392 . S
C1126 C1127 1.385 . S
C1126 C1128 1.478 . S
C1127 H1121 0.930 . S
C1127 C1123 1.400 . S
C1127 C1126 1.385 . S
C1128 C1126 1.478 . S
C1128 C1130 1.381 . S
C1128 C1134 1.383 . S
C1129 C1125 1.495 . S
C1129 H1135 0.959 . S
C1129 H1136 0.961 . S
C1129 H1137 0.960 . S
C1130 C1128 1.381 . S
C1130 C1131 1.394 . S
C1130 H1138 0.930 . S
C1131 C1130 1.394 . S
C1131 C1132 1.383 . S
C1131 H1139 0.929 . S
C1132 C1131 1.383 . S
C1132 C1133 1.377 . S
C1133 H1117 0.930 . S
C1133 C1132 1.377 . S
C1133 C1134 1.379 . S
C1134 H1118 0.931 . S
C1134 C1128 1.383 . S
C1134 C1133 1.379 . S
H1135 C1129 0.959 . S
H1136 C1129 0.961 . S
H1137 C1129 0.960 . S
H1138 C1130 0.930 . S
H1139 C1131 0.929 . S
H1140 C1148 0.929 . S
H1141 C1150 0.930 . S
H1142 C1152 0.930 . S
H1143 C1155 0.929 . S
H1144 C1158 0.930 . S
H1145 C1160 0.960 . S
H1146 C1160 0.960 . S
H1147 C1160 0.960 . S
C1148 H1140 0.929 . S
C1148 C1149 1.377 . S
C1148 C1150 1.384 . S
C1149 C1148 1.377 . S
C1149 C1155 1.390 . S
C1150 H1141 0.930 . S
C1150 C1148 1.384 . S
C1150 C1151 1.372 . S
C1151 C1150 1.372 . S
C1151 C1152 1.400 . S
C1151 C1156 1.490 . S
C1152 H1142 0.930 . S
C1152 C1151 1.400 . S
C1152 C1155 1.386 . S
H1153 C1169 0.930 . S
H1154 C1170 0.931 . S
C1155 H1143 0.929 . S
C1155 C1149 1.390 . S
C1155 C1152 1.386 . S
C1156 C1151 1.490 . S
C1156 C1158 1.395 . S
C1156 C1159 1.403 . S
H1157 C1163 0.930 . S
C1158 H1144 0.930 . S
C1158 C1156 1.395 . S
C1158 C1161 1.403 . S
C1159 C1156 1.403 . S
C1159 C1160 1.524 . S
C1159 C1163 1.400 . S
C1160 H1145 0.960 . S
C1160 H1146 0.960 . S
C1160 H1147 0.960 . S
C1160 C1159 1.524 . S
C1161 C1158 1.403 . S
C1161 C1162 1.392 . S
C1161 C1165 1.495 . S
C1162 C1161 1.392 . S
C1162 C1163 1.385 . S
C1162 C1164 1.478 . S
C1163 H1157 0.930 . S
C1163 C1159 1.400 . S
C1163 C1162 1.385 . S
C1164 C1162 1.478 . S
C1164 C1166 1.381 . S
C1164 C1170 1.383 . S
C1165 C1161 1.495 . S
C1165 H1171 0.959 . S
C1165 H1172 0.961 . S
C1165 H1173 0.960 . S
C1166 C1164 1.381 . S
C1166 C1167 1.394 . S
C1166 H1174 0.930 . S
C1167 C1166 1.394 . S
C1167 C1168 1.383 . S
C1167 H1175 0.929 . S
C1168 C1167 1.383 . S
C1168 C1169 1.377 . S
C1169 H1153 0.930 . S
C1169 C1168 1.377 . S
C1169 C1170 1.379 . S
C1170 H1154 0.931 . S
C1170 C1164 1.383 . S
C1170 C1169 1.379 . S
H1171 C1165 0.959 . S
H1172 C1165 0.961 . S
H1173 C1165 0.960 . S
H1174 C1166 0.930 . S
H1175 C1167 0.929 . S
H1176 C1184 0.929 . S
H1177 C1186 0.930 . S
H1178 C1188 0.930 . S
H1179 C1191 0.929 . S
H1180 C1194 0.930 . S
H1181 C1196 0.960 . S
H1182 C1196 0.960 . S
H1183 C1196 0.960 . S
C1184 H1176 0.929 . S
C1184 C1185 1.377 . S
C1184 C1186 1.384 . S
C1185 C1184 1.377 . S
C1185 C1191 1.390 . S
C1186 H1177 0.930 . S
C1186 C1184 1.384 . S
C1186 C1187 1.372 . S
C1187 C1186 1.372 . S
C1187 C1188 1.400 . S
C1187 C1192 1.490 . S
C1188 H1178 0.930 . S
C1188 C1187 1.400 . S
C1188 C1191 1.386 . S
H1189 C1205 0.930 . S
H1190 C1206 0.931 . S
C1191 H1179 0.929 . S
C1191 C1185 1.390 . S
C1191 C1188 1.386 . S
C1192 C1187 1.490 . S
C1192 C1194 1.395 . S
C1192 C1195 1.403 . S
H1193 C1199 0.930 . S
C1194 H1180 0.930 . S
C1194 C1192 1.395 . S
C1194 C1197 1.403 . S
C1195 C1192 1.403 . S
C1195 C1196 1.524 . S
C1195 C1199 1.400 . S
C1196 H1181 0.960 . S
C1196 H1182 0.960 . S
C1196 H1183 0.960 . S
C1196 C1195 1.524 . S
C1197 C1194 1.403 . S
C1197 C1198 1.392 . S
C1197 C1201 1.495 . S
C1198 C1197 1.392 . S
C1198 C1199 1.385 . S
C1198 C1200 1.478 . S
C1199 H1193 0.930 . S
C1199 C1195 1.400 . S
C1199 C1198 1.385 . S
C1200 C1198 1.478 . S
C1200 C1202 1.381 . S
C1200 C1206 1.383 . S
C1201 C1197 1.495 . S
C1201 H1207 0.959 . S
C1201 H1208 0.961 . S
C1201 H1209 0.960 . S
C1202 C1200 1.381 . S
C1202 C1203 1.394 . S
C1202 H1210 0.930 . S
C1203 C1202 1.394 . S
C1203 C1204 1.383 . S
C1203 H1211 0.929 . S
C1204 C1203 1.383 . S
C1204 C1205 1.377 . S
C1205 H1189 0.930 . S
C1205 C1204 1.377 . S
C1205 C1206 1.379 . S
C1206 H1190 0.931 . S
C1206 C1200 1.383 . S
C1206 C1205 1.379 . S
H1207 C1201 0.959 . S
H1208 C1201 0.961 . S
H1209 C1201 0.960 . S
H1210 C1202 0.930 . S
H1211 C1203 0.929 . S
H1212 C1220 0.929 . S
H1213 C1222 0.930 . S
H1214 C1224 0.930 . S
H1215 C1227 0.929 . S
H1216 C1230 0.930 . S
H1217 C1232 0.960 . S
H1218 C1232 0.960 . S
H1219 C1232 0.960 . S
C1220 H1212 0.929 . S
C1220 C1221 1.377 . S
C1220 C1222 1.384 . S
C1221 C1220 1.377 . S
C1221 C1227 1.390 . S
C1222 H1213 0.930 . S
C1222 C1220 1.384 . S
C1222 C1223 1.372 . S
C1223 C1222 1.372 . S
C1223 C1224 1.400 . S
C1223 C1228 1.490 . S
C1224 H1214 0.930 . S
C1224 C1223 1.400 . S
C1224 C1227 1.386 . S
H1225 C1241 0.930 . S
H1226 C1242 0.931 . S
C1227 H1215 0.929 . S
C1227 C1221 1.390 . S
C1227 C1224 1.386 . S
C1228 C1223 1.490 . S
C1228 C1230 1.395 . S
C1228 C1231 1.403 . S
H1229 C1235 0.930 . S
C1230 H1216 0.930 . S
C1230 C1228 1.395 . S
C1230 C1233 1.403 . S
C1231 C1228 1.403 . S
C1231 C1232 1.524 . S
C1231 C1235 1.400 . S
C1232 H1217 0.960 . S
C1232 H1218 0.960 . S
C1232 H1219 0.960 . S
C1232 C1231 1.524 . S
C1233 C1230 1.403 . S
C1233 C1234 1.392 . S
C1233 C1237 1.495 . S
C1234 C1233 1.392 . S
C1234 C1235 1.385 . S
C1234 C1236 1.478 . S
C1235 H1229 0.930 . S
C1235 C1231 1.400 . S
C1235 C1234 1.385 . S
C1236 C1234 1.478 . S
C1236 C1238 1.381 . S
C1236 C1242 1.383 . S
C1237 C1233 1.495 . S
C1237 H1243 0.959 . S
C1237 H1244 0.961 . S
C1237 H1245 0.960 . S
C1238 C1236 1.381 . S
C1238 C1239 1.394 . S
C1238 H1246 0.930 . S
C1239 C1238 1.394 . S
C1239 C1240 1.383 . S
C1239 H1247 0.929 . S
C1240 C1239 1.383 . S
C1240 C1241 1.377 . S
C1241 H1225 0.930 . S
C1241 C1240 1.377 . S
C1241 C1242 1.379 . S
C1242 H1226 0.931 . S
C1242 C1236 1.383 . S
C1242 C1241 1.379 . S
H1243 C1237 0.959 . S
H1244 C1237 0.961 . S
H1245 C1237 0.960 . S
H1246 C1238 0.930 . S
H1247 C1239 0.929 . S
H1248 C1256 0.929 . S
H1249 C1258 0.930 . S
H1250 C1260 0.930 . S
H1251 C1263 0.929 . S
H1252 C1266 0.930 . S
H1253 C1268 0.960 . S
H1254 C1268 0.960 . S
H1255 C1268 0.960 . S
C1256 H1248 0.929 . S
C1256 C1257 1.377 . S
C1256 C1258 1.384 . S
C1257 C1256 1.377 . S
C1257 C1263 1.390 . S
C1258 H1249 0.930 . S
C1258 C1256 1.384 . S
C1258 C1259 1.372 . S
C1259 C1258 1.372 . S
C1259 C1260 1.400 . S
C1259 C1264 1.490 . S
C1260 H1250 0.930 . S
C1260 C1259 1.400 . S
C1260 C1263 1.386 . S
H1261 C1277 0.930 . S
H1262 C1278 0.931 . S
C1263 H1251 0.929 . S
C1263 C1257 1.390 . S
C1263 C1260 1.386 . S
C1264 C1259 1.490 . S
C1264 C1266 1.395 . S
C1264 C1267 1.403 . S
H1265 C1271 0.930 . S
C1266 H1252 0.930 . S
C1266 C1264 1.395 . S
C1266 C1269 1.403 . S
C1267 C1264 1.403 . S
C1267 C1268 1.524 . S
C1267 C1271 1.400 . S
C1268 H1253 0.960 . S
C1268 H1254 0.960 . S
C1268 H1255 0.960 . S
C1268 C1267 1.524 . S
C1269 C1266 1.403 . S
C1269 C1270 1.392 . S
C1269 C1273 1.495 . S
C1270 C1269 1.392 . S
C1270 C1271 1.385 . S
C1270 C1272 1.478 . S
C1271 H1265 0.930 . S
C1271 C1267 1.400 . S
C1271 C1270 1.385 . S
C1272 C1270 1.478 . S
C1272 C1274 1.381 . S
C1272 C1278 1.383 . S
C1273 C1269 1.495 . S
C1273 H1279 0.959 . S
C1273 H1280 0.961 . S
C1273 H1281 0.960 . S
C1274 C1272 1.381 . S
C1274 C1275 1.394 . S
C1274 H1282 0.930 . S
C1275 C1274 1.394 . S
C1275 C1276 1.383 . S
C1275 H1283 0.929 . S
C1276 C1275 1.383 . S
C1276 C1277 1.377 . S
C1277 H1261 0.930 . S
C1277 C1276 1.377 . S
C1277 C1278 1.379 . S
C1278 H1262 0.931 . S
C1278 C1272 1.383 . S
C1278 C1277 1.379 . S
H1279 C1273 0.959 . S
H1280 C1273 0.961 . S
H1281 C1273 0.960 . S
H1282 C1274 0.930 . S
H1283 C1275 0.929 . S
H1284 C1292 0.929 . S
H1285 C1294 0.930 . S
H1286 C1296 0.930 . S
H1287 C1299 0.929 . S
H1288 C1302 0.930 . S
H1289 C1304 0.960 . S
H1290 C1304 0.960 . S
H1291 C1304 0.960 . S
C1292 H1284 0.929 . S
C1292 C1293 1.377 . S
C1292 C1294 1.384 . S
C1293 C1292 1.377 . S
C1293 C1299 1.390 . S
C1294 H1285 0.930 . S
C1294 C1292 1.384 . S
C1294 C1295 1.372 . S
C1295 C1294 1.372 . S
C1295 C1296 1.400 . S
C1295 C1300 1.490 . S
C1296 H1286 0.930 . S
C1296 C1295 1.400 . S
C1296 C1299 1.386 . S
H1297 C1313 0.930 . S
H1298 C1314 0.931 . S
C1299 H1287 0.929 . S
C1299 C1293 1.390 . S
C1299 C1296 1.386 . S
C1300 C1295 1.490 . S
C1300 C1302 1.395 . S
C1300 C1303 1.403 . S
H1301 C1307 0.930 . S
C1302 H1288 0.930 . S
C1302 C1300 1.395 . S
C1302 C1305 1.403 . S
C1303 C1300 1.403 . S
C1303 C1304 1.524 . S
C1303 C1307 1.400 . S
C1304 H1289 0.960 . S
C1304 H1290 0.960 . S
C1304 H1291 0.960 . S
C1304 C1303 1.524 . S
C1305 C1302 1.403 . S
C1305 C1306 1.392 . S
C1305 C1309 1.495 . S
C1306 C1305 1.392 . S
C1306 C1307 1.385 . S
C1306 C1308 1.478 . S
C1307 H1301 0.930 . S
C1307 C1303 1.400 . S
C1307 C1306 1.385 . S
C1308 C1306 1.478 . S
C1308 C1310 1.381 . S
C1308 C1314 1.383 . S
C1309 C1305 1.495 . S
C1309 H1315 0.959 . S
C1309 H1316 0.961 . S
C1309 H1317 0.960 . S
C1310 C1308 1.381 . S
C1310 C1311 1.394 . S
C1310 H1318 0.930 . S
C1311 C1310 1.394 . S
C1311 C1312 1.383 . S
C1311 H1319 0.929 . S
C1312 C1311 1.383 . S
C1312 C1313 1.377 . S
C1313 H1297 0.930 . S
C1313 C1312 1.377 . S
C1313 C1314 1.379 . S
C1314 H1298 0.931 . S
C1314 C1308 1.383 . S
C1314 C1313 1.379 . S
H1315 C1309 0.959 . S
H1316 C1309 0.961 . S
H1317 C1309 0.960 . S
H1318 C1310 0.930 . S
H1319 C1311 0.929 . S
H1320 C1328 0.929 . S
H1321 C1330 0.930 . S
H1322 C1332 0.930 . S
H1323 C1335 0.929 . S
H1324 C1338 0.930 . S
H1325 C1340 0.960 . S
H1326 C1340 0.960 . S
H1327 C1340 0.960 . S
C1328 H1320 0.929 . S
C1328 C1329 1.377 . S
C1328 C1330 1.384 . S
C1329 C1328 1.377 . S
C1329 C1335 1.390 . S
C1330 H1321 0.930 . S
C1330 C1328 1.384 . S
C1330 C1331 1.372 . S
C1331 C1330 1.372 . S
C1331 C1332 1.400 . S
C1331 C1336 1.490 . S
C1332 H1322 0.930 . S
C1332 C1331 1.400 . S
C1332 C1335 1.386 . S
H1333 C1349 0.930 . S
H1334 C1350 0.931 . S
C1335 H1323 0.929 . S
C1335 C1329 1.390 . S
C1335 C1332 1.386 . S
C1336 C1331 1.490 . S
C1336 C1338 1.395 . S
C1336 C1339 1.403 . S
H1337 C1343 0.930 . S
C1338 H1324 0.930 . S
C1338 C1336 1.395 . S
C1338 C1341 1.403 1_554 S
C1339 C1336 1.403 . S
C1339 C1340 1.524 . S
C1339 C1343 1.400 . S
C1340 H1325 0.960 . S
C1340 H1326 0.960 . S
C1340 H1327 0.960 . S
C1340 C1339 1.524 . S
C1341 C1338 1.403 1_556 S
C1341 C1342 1.392 . S
C1341 C1345 1.495 . S
C1342 C1341 1.392 . S
C1342 C1343 1.385 1_556 S
C1342 C1344 1.478 . S
C1343 H1337 0.930 . S
C1343 C1339 1.400 . S
C1343 C1342 1.385 1_554 S
C1344 C1342 1.478 . S
C1344 C1346 1.381 . S
C1344 C1350 1.383 . S
C1345 C1341 1.495 . S
C1345 H1351 0.959 . S
C1345 H1352 0.961 . S
C1345 H1353 0.960 . S
C1346 C1344 1.381 . S
C1346 C1347 1.394 . S
C1346 H1354 0.930 . S
C1347 C1346 1.394 . S
C1347 C1348 1.383 . S
C1347 H1355 0.929 . S
C1348 C1347 1.383 . S
C1348 C1349 1.377 . S
C1349 H1333 0.930 . S
C1349 C1348 1.377 . S
C1349 C1350 1.379 . S
C1350 H1334 0.931 . S
C1350 C1344 1.383 . S
C1350 C1349 1.379 . S
H1351 C1345 0.959 . S
H1352 C1345 0.961 . S
H1353 C1345 0.960 . S
H1354 C1346 0.930 . S
H1355 C1347 0.929 . S
H1356 C1364 0.929 . S
H1357 C1366 0.930 . S
H1358 C1368 0.930 . S
H1359 C1371 0.929 . S
H1360 C1374 0.930 . S
H1361 C1376 0.960 . S
H1362 C1376 0.960 . S
H1363 C1376 0.960 . S
C1364 H1356 0.929 . S
C1364 C1365 1.377 . S
C1364 C1366 1.384 . S
C1365 C1364 1.377 . S
C1365 C1371 1.390 . S
C1366 H1357 0.930 . S
C1366 C1364 1.384 . S
C1366 C1367 1.372 . S
C1367 C1366 1.372 . S
C1367 C1368 1.400 . S
C1367 C1372 1.490 . S
C1368 H1358 0.930 . S
C1368 C1367 1.400 . S
C1368 C1371 1.386 . S
H1369 C1385 0.930 . S
H1370 C1386 0.931 . S
C1371 H1359 0.929 . S
C1371 C1365 1.390 . S
C1371 C1368 1.386 . S
C1372 C1367 1.490 . S
C1372 C1374 1.395 . S
C1372 C1375 1.403 . S
H1373 C1379 0.930 . S
C1374 H1360 0.930 . S
C1374 C1372 1.395 . S
C1374 C1377 1.403 . S
C1375 C1372 1.403 . S
C1375 C1376 1.524 . S
C1375 C1379 1.400 . S
C1376 H1361 0.960 . S
C1376 H1362 0.960 . S
C1376 H1363 0.960 . S
C1376 C1375 1.524 . S
C1377 C1374 1.403 . S
C1377 C1378 1.392 . S
C1377 C1381 1.495 . S
C1378 C1377 1.392 . S
C1378 C1379 1.385 . S
C1378 C1380 1.478 . S
C1379 H1373 0.930 . S
C1379 C1375 1.400 . S
C1379 C1378 1.385 . S
C1380 C1378 1.478 . S
C1380 C1382 1.381 . S
C1380 C1386 1.383 . S
C1381 C1377 1.495 . S
C1381 H1387 0.959 . S
C1381 H1388 0.961 . S
C1381 H1389 0.960 . S
C1382 C1380 1.381 . S
C1382 C1383 1.394 . S
C1382 H1390 0.930 . S
C1383 C1382 1.394 . S
C1383 C1384 1.383 . S
C1383 H1391 0.929 . S
C1384 C1383 1.383 . S
C1384 C1385 1.377 . S
C1385 H1369 0.930 . S
C1385 C1384 1.377 . S
C1385 C1386 1.379 . S
C1386 H1370 0.931 . S
C1386 C1380 1.383 . S
C1386 C1385 1.379 . S
H1387 C1381 0.959 . S
H1388 C1381 0.961 . S
H1389 C1381 0.960 . S
H1390 C1382 0.930 . S
H1391 C1383 0.929 . S
C556 C521 1.381 . S
C537 C51 1.364 . S
C573 C125 1.385 . S
C592 C450 1.370 . S
C609 C217 2.766 . S
C628 C464 2.760 . S
C645 C291 1.534 . S
C664 C478 1.498 . S
C700 C492 0.812 . S
C681 C347 0.824 . S
C717 C421 1.029 . S
C736 C507 1.050 . S
C753 C143 2.288 . S
C772 C465 2.276 . S
C789 C199 1.540 . S
C808 C479 1.517 . S
C825 C273 0.543 . S
C844 C493 0.612 . S
C880 C506 1.703 . S
C861 C365 1.703 . S
C916 C520 1.799 . S
C897 C439 1.802 . S
C952 C451 2.659 . S
C933 C69 2.632 . S
C969 C63 1.391 . S
C988 C467 1.458 . S
C1005 C137 1.883 . S
C1024 C481 1.935 . S
C1060 C495 1.302 . S
C1041 C187 1.284 . S
C1077 C261 1.820 . S
C1096 C508 1.824 . S
C1132 C522 1.454 . S
C1113 C359 1.343 . S
C1168 C453 1.362 . S
C1149 C433 1.346 . S
C1204 C523 1.921 . S
C1185 C113 1.951 . S
C1221 C211 1.252 . S
C1240 C452 1.319 . S
C1276 C466 1.853 . S
C1257 C285 1.829 . S
C1293 C335 1.303 . S
C1312 C480 1.323 . S
C1329 C409 1.652 . S
C1348 C494 1.637 . S
C1365 C39 1.600 . S
C1384 C509 1.628 . S
