# Generated by pormake.
# Topology ctn, (3,4)-cn, num edge types: 1
# Building blocks:
#     Node 0, Type 0, BuildingBlock: BETDAH_clean_linker_0, # of connection points: 3
#     Node 1, Type 0, BuildingBlock: BETDAH_clean_linker_0, # of connection points: 3
#     Node 2, Type 0, BuildingBlock: BETDAH_clean_linker_0, # of connection points: 3
#     Node 3, Type 0, BuildingBlock: BETDAH_clean_linker_0, # of connection points: 3
#     Node 4, Type 0, BuildingBlock: BETDAH_clean_linker_0, # of connection points: 3
#     Node 5, Type 0, BuildingBlock: BETDAH_clean_linker_0, # of connection points: 3
#     Node 6, Type 0, BuildingBlock: BETDAH_clean_linker_0, # of connection points: 3
#     Node 7, Type 0, BuildingBlock: BETDAH_clean_linker_0, # of connection points: 3
#     Node 8, Type 0, BuildingBlock: BETDAH_clean_linker_0, # of connection points: 3
#     Node 9, Type 0, BuildingBlock: BETDAH_clean_linker_0, # of connection points: 3
#     Node 10, Type 0, BuildingBlock: BETDAH_clean_linker_0, # of connection points: 3
#     Node 11, Type 0, BuildingBlock: BETDAH_clean_linker_0, # of connection points: 3
#     Node 12, Type 0, BuildingBlock: BETDAH_clean_linker_0, # of connection points: 3
#     Node 13, Type 0, BuildingBlock: BETDAH_clean_linker_0, # of connection points: 3
#     Node 14, Type 0, BuildingBlock: BETDAH_clean_linker_0, # of connection points: 3
#     Node 15, Type 0, BuildingBlock: BETDAH_clean_linker_0, # of connection points: 3
#     Node 16, Type 1, BuildingBlock: AZAVOO_clean_sbu_0, # of connection points: 4
#     Node 17, Type 1, BuildingBlock: AZAVOO_clean_sbu_0, # of connection points: 4
#     Node 18, Type 1, BuildingBlock: AZAVOO_clean_sbu_0, # of connection points: 4
#     Node 19, Type 1, BuildingBlock: AZAVOO_clean_sbu_0, # of connection points: 4
#     Node 20, Type 1, BuildingBlock: AZAVOO_clean_sbu_0, # of connection points: 4
#     Node 21, Type 1, BuildingBlock: AZAVOO_clean_sbu_0, # of connection points: 4
#     Node 22, Type 1, BuildingBlock: AZAVOO_clean_sbu_0, # of connection points: 4
#     Node 23, Type 1, BuildingBlock: AZAVOO_clean_sbu_0, # of connection points: 4
#     Node 24, Type 1, BuildingBlock: AZAVOO_clean_sbu_0, # of connection points: 4
#     Node 25, Type 1, BuildingBlock: AZAVOO_clean_sbu_0, # of connection points: 4
#     Node 26, Type 1, BuildingBlock: AZAVOO_clean_sbu_0, # of connection points: 4
#     Node 27, Type 1, BuildingBlock: AZAVOO_clean_sbu_0, # of connection points: 4
#     Edge 28, Type (0, 1), BuildingBlock: AJUNOK_clean_linker_0, # of connection points: 2
#     Edge 29, Type (0, 1), BuildingBlock: AJUNOK_clean_linker_0, # of connection points: 2
#     Edge 30, Type (0, 1), BuildingBlock: AJUNOK_clean_linker_0, # of connection points: 2
#     Edge 31, Type (0, 1), BuildingBlock: AJUNOK_clean_linker_0, # of connection points: 2
#     Edge 32, Type (0, 1), BuildingBlock: AJUNOK_clean_linker_0, # of connection points: 2
#     Edge 33, Type (0, 1), BuildingBlock: AJUNOK_clean_linker_0, # of connection points: 2
#     Edge 34, Type (0, 1), BuildingBlock: AJUNOK_clean_linker_0, # of connection points: 2
#     Edge 35, Type (0, 1), BuildingBlock: AJUNOK_clean_linker_0, # of connection points: 2
#     Edge 36, Type (0, 1), BuildingBlock: AJUNOK_clean_linker_0, # of connection points: 2
#     Edge 37, Type (0, 1), BuildingBlock: AJUNOK_clean_linker_0, # of connection points: 2
#     Edge 38, Type (0, 1), BuildingBlock: AJUNOK_clean_linker_0, # of connection points: 2
#     Edge 39, Type (0, 1), BuildingBlock: AJUNOK_clean_linker_0, # of connection points: 2
#     Edge 40, Type (0, 1), BuildingBlock: AJUNOK_clean_linker_0, # of connection points: 2
#     Edge 41, Type (0, 1), BuildingBlock: AJUNOK_clean_linker_0, # of connection points: 2
#     Edge 42, Type (0, 1), BuildingBlock: AJUNOK_clean_linker_0, # of connection points: 2
#     Edge 43, Type (0, 1), BuildingBlock: AJUNOK_clean_linker_0, # of connection points: 2
#     Edge 44, Type (0, 1), BuildingBlock: AJUNOK_clean_linker_0, # of connection points: 2
#     Edge 45, Type (0, 1), BuildingBlock: AJUNOK_clean_linker_0, # of connection points: 2
#     Edge 46, Type (0, 1), BuildingBlock: AJUNOK_clean_linker_0, # of connection points: 2
#     Edge 47, Type (0, 1), BuildingBlock: AJUNOK_clean_linker_0, # of connection points: 2
#     Edge 48, Type (0, 1), BuildingBlock: AJUNOK_clean_linker_0, # of connection points: 2
#     Edge 49, Type (0, 1), BuildingBlock: AJUNOK_clean_linker_0, # of connection points: 2
#     Edge 50, Type (0, 1), BuildingBlock: AJUNOK_clean_linker_0, # of connection points: 2
#     Edge 51, Type (0, 1), BuildingBlock: AJUNOK_clean_linker_0, # of connection points: 2
#     Edge 52, Type (0, 1), BuildingBlock: AJUNOK_clean_linker_0, # of connection points: 2
#     Edge 53, Type (0, 1), BuildingBlock: AJUNOK_clean_linker_0, # of connection points: 2
#     Edge 54, Type (0, 1), BuildingBlock: AJUNOK_clean_linker_0, # of connection points: 2
#     Edge 55, Type (0, 1), BuildingBlock: AJUNOK_clean_linker_0, # of connection points: 2
#     Edge 56, Type (0, 1), BuildingBlock: AJUNOK_clean_linker_0, # of connection points: 2
#     Edge 57, Type (0, 1), BuildingBlock: AJUNOK_clean_linker_0, # of connection points: 2
#     Edge 58, Type (0, 1), BuildingBlock: AJUNOK_clean_linker_0, # of connection points: 2
#     Edge 59, Type (0, 1), BuildingBlock: AJUNOK_clean_linker_0, # of connection points: 2
#     Edge 60, Type (0, 1), BuildingBlock: AJUNOK_clean_linker_0, # of connection points: 2
#     Edge 61, Type (0, 1), BuildingBlock: AJUNOK_clean_linker_0, # of connection points: 2
#     Edge 62, Type (0, 1), BuildingBlock: AJUNOK_clean_linker_0, # of connection points: 2
#     Edge 63, Type (0, 1), BuildingBlock: AJUNOK_clean_linker_0, # of connection points: 2
#     Edge 64, Type (0, 1), BuildingBlock: AJUNOK_clean_linker_0, # of connection points: 2
#     Edge 65, Type (0, 1), BuildingBlock: AJUNOK_clean_linker_0, # of connection points: 2
#     Edge 66, Type (0, 1), BuildingBlock: AJUNOK_clean_linker_0, # of connection points: 2
#     Edge 67, Type (0, 1), BuildingBlock: AJUNOK_clean_linker_0, # of connection points: 2
#     Edge 68, Type (0, 1), BuildingBlock: AJUNOK_clean_linker_0, # of connection points: 2
#     Edge 69, Type (0, 1), BuildingBlock: AJUNOK_clean_linker_0, # of connection points: 2
#     Edge 70, Type (0, 1), BuildingBlock: AJUNOK_clean_linker_0, # of connection points: 2
#     Edge 71, Type (0, 1), BuildingBlock: AJUNOK_clean_linker_0, # of connection points: 2
#     Edge 72, Type (0, 1), BuildingBlock: AJUNOK_clean_linker_0, # of connection points: 2
#     Edge 73, Type (0, 1), BuildingBlock: AJUNOK_clean_linker_0, # of connection points: 2
#     Edge 74, Type (0, 1), BuildingBlock: AJUNOK_clean_linker_0, # of connection points: 2
#     Edge 75, Type (0, 1), BuildingBlock: AJUNOK_clean_linker_0, # of connection points: 2
# Relax obj value: 0.054
# Max RMSD: 0.178
# Mean RMSD: 0.102
data_MOF--net-ctn--node1-AZAVOO_clean_sbu_0--node2-BETDAH_clean_linker_0--edge1-AJUNOK_clean_linker_0
_symmetry_space_group_name_H-M    P1
_symmetry_Int_Tables_number       1
_symmetry_cell_setting            triclinic
loop_
_symmetry_equiv_pos_as_xyz
'x, y, z'
_cell_length_a     38.447494
_cell_length_b     39.189366
_cell_length_c     39.644504
_cell_angle_alpha  98.534526
_cell_angle_beta   93.052422
_cell_angle_gamma 98.044414
loop_
_atom_site_label
_atom_site_type_symbol
_atom_site_fract_x
_atom_site_fract_y
_atom_site_fract_z
_atom_type_partial_charge
H0 H 0.08494 0.9894 0.09265 0.0
H1 H 0.08083 0.99688 0.98545 0.0
H2 H 0.01234 0.04914 0.05 0.0
C3 C 0.07428 0.99996 0.07126 0.0
C4 C 0.04745 0.02093 0.0759 0.0
C5 C 0.08693 0.99153 0.03887 0.0
C6 C 0.07153 1.00315 0.01063 0.0
C7 C 0.04469 0.02373 0.01474 0.0
C8 C 0.03301 0.03297 0.04726 0.0
N9 N 0.02838 0.03359 0.98562 0.0
C10 C 0.03337 0.06786 0.97964 0.0
H11 H 0.35991 0.69463 0.2945 0.0
H12 H 0.41113 0.79521 0.27911 0.0
H13 H 0.31305 0.74932 0.22194 0.0
C14 C 0.36082 0.71714 0.28142 0.0
C15 C 0.33337 0.71878 0.25726 0.0
C16 C 0.38899 0.74442 0.28948 0.0
C17 C 0.38981 0.77362 0.27271 0.0
C18 C 0.36287 0.77554 0.2481 0.0
C19 C 0.33437 0.74805 0.24051 0.0
N20 N 0.36523 0.8058 0.23207 0.0
C21 C 0.3431 0.80953 0.20443 0.0
H22 H 0.07347 0.46115 0.06833 0.0
H23 H 0.01876 0.54019 0.11877 0.0
H24 H 0.9684 0.46972 0.03081 0.0
C25 C 0.05095 0.47503 0.06913 0.0
C26 C 0.02164 0.46278 0.04567 0.0
C27 C 0.05044 0.50319 0.09533 0.0
C28 C 0.01996 0.51905 0.09806 0.0
C29 C 0.99079 0.50776 0.07433 0.0
C30 C 0.9916 0.47957 0.0481 0.0
N31 N 0.95949 0.52224 0.07997 0.0
C32 C 0.94218 0.53759 0.05589 0.0
H33 H 0.82808 0.83675 0.18752 0.0
H34 H 0.72129 0.80629 0.21078 0.0
H35 H 0.77912 0.90464 0.25967 0.0
C36 C 0.80593 0.84181 0.20235 0.0
C37 C 0.80791 0.87323 0.22501 0.0
C38 C 0.77486 0.81765 0.19715 0.0
C39 C 0.74556 0.82461 0.21522 0.0
C40 C 0.74729 0.8561 0.23792 0.0
C41 C 0.77817 0.88037 0.24226 0.0
N42 N 0.71789 0.86483 0.25552 0.0
C43 C 0.69712 0.84139 0.2718 0.0
H44 H 0.10064 0.05275 0.44995 0.0
H45 H 0.10771 0.02504 0.55083 0.0
H46 H 0.01583 0.98423 0.48239 0.0
C47 C 0.08987 0.03785 0.46898 0.0
C48 C 0.05636 0.01784 0.46222 0.0
C49 C 0.10875 0.0404 0.50068 0.0
C50 C 0.09398 0.02215 0.52574 0.0
C51 C 0.06086 1.00116 0.51897 0.0
C52 C 0.04208 0.99906 0.48711 0.0
N53 N 0.04415 0.98727 0.54605 0.0
C54 C 0.04437 0.95308 0.55168 0.0
H55 H 0.30147 0.70482 0.84252 0.0
H56 H 0.20354 0.72507 0.79721 0.0
H57 H 0.26684 0.65869 0.73907 0.0
C58 C 0.28244 0.70149 0.82063 0.0
C59 C 0.28822 0.6805 0.79033 0.0
C60 C 0.25179 0.71716 0.82358 0.0
C61 C 0.22728 0.71317 0.79503 0.0
C62 C 0.23276 0.69192 0.76436 0.0
C63 C 0.2629 0.67532 0.76253 0.0
N64 N 0.208 0.6848 0.73533 0.0
C65 C 0.18186 0.70441 0.72783 0.0
H66 H 0.92084 0.53436 0.5325 0.0
H67 H 1.0039 0.55619 0.46604 0.0
H68 H 0.93748 0.4569 0.44873 0.0
C69 C 0.93523 0.5266 0.51058 0.0
C70 C 0.92621 0.49277 0.49205 0.0
C71 C 0.96316 0.55007 0.50132 0.0
C72 C 0.98171 0.53907 0.47284 0.0
C73 C 0.97195 0.50559 0.45357 0.0
C74 C 0.94449 0.48284 0.46346 0.0
N75 N 0.98903 0.49327 0.42428 0.0
C76 C 0.01718 0.51152 0.41073 0.0
H77 H 0.85736 0.7488 0.81817 0.0
H78 H 0.81139 0.78713 0.73215 0.0
H79 H 0.74958 0.76754 0.81575 0.0
C80 C 0.835 0.7566 0.80513 0.0
C81 C 0.80304 0.75648 0.82093 0.0
C82 C 0.83832 0.76702 0.77271 0.0
C83 C 0.8097 0.77937 0.75721 0.0
C84 C 0.77804 0.78005 0.77312 0.0
C85 C 0.77465 0.76803 0.8044 0.0
N86 N 0.74831 0.78966 0.75636 0.0
C87 C 0.74453 0.82435 0.75596 0.0
H88 H 0.35392 0.24528 0.30803 0.0
H89 H 0.2931 0.29661 0.24162 0.0
H90 H 0.25311 0.27258 0.33525 0.0
C91 C 0.3307 0.25688 0.3025 0.0
C92 C 0.30454 0.25836 0.3261 0.0
C93 C 0.32644 0.27005 0.27146 0.0
C94 C 0.29658 0.28601 0.26511 0.0
C95 C 0.27019 0.28662 0.28808 0.0
C96 C 0.27401 0.2723 0.31793 0.0
N97 N 0.23838 0.29929 0.28064 0.0
C98 C 0.23741 0.3326 0.273 0.0
H99 H 0.56652 0.94742 0.58066 0.0
H100 H 0.55055 0.05327 0.57665 0.0
H101 H 0.50788 0.9718 0.49408 0.0
C102 C 0.55447 0.9661 0.5681 0.0
C103 C 0.53626 0.95525 0.53584 0.0
C104 C 0.55976 1.00134 0.58303 0.0
C105 C 0.54574 0.02581 0.56584 0.0
C106 C 0.52622 0.01496 0.53418 0.0
C107 C 0.5218 0.97979 0.51913 0.0
N108 N 0.51462 0.03994 0.51564 0.0
C109 C 0.48121 0.04929 0.51812 0.0
H110 H 0.32514 0.32806 0.69134 0.0
H111 H 0.21476 0.29637 0.70066 0.0
H112 H 0.26554 0.39757 0.74976 0.0
C113 C 0.30079 0.33298 0.70242 0.0
C114 C 0.29949 0.3652 0.72271 0.0
C115 C 0.27056 0.30784 0.69451 0.0
C116 C 0.2385 0.31522 0.70716 0.0
C117 C 0.23685 0.34765 0.7271 0.0
C118 C 0.26717 0.37258 0.73448 0.0
N119 N 0.20448 0.35639 0.73833 0.0
C120 C 0.18642 0.33874 0.76145 0.0
H121 H 0.85119 0.1931 0.80137 0.0
H122 H 0.90126 0.29133 0.77897 0.0
H123 H 0.80316 0.24153 0.72405 0.0
C124 C 0.85184 0.21422 0.78643 0.0
C125 C 0.82414 0.21397 0.76186 0.0
C126 C 0.8797 0.24193 0.79276 0.0
C127 C 0.87977 0.26971 0.77423 0.0
C128 C 0.85268 0.26972 0.74917 0.0
C129 C 0.8245 0.24179 0.7431 0.0
N130 N 0.85494 0.29842 0.73095 0.0
C131 C 0.83293 0.30067 0.7027 0.0
H132 H 0.58388 0.48763 0.59309 0.0
H133 H 0.57455 0.49272 0.48519 0.0
H134 H 0.49876 0.5322 0.54998 0.0
C135 C 0.57014 0.49476 0.57121 0.0
C136 C 0.5398 0.51081 0.57571 0.0
C137 C 0.58271 0.48763 0.53856 0.0
C138 C 0.56499 0.49741 0.51044 0.0
C139 C 0.53492 0.51352 0.5147 0.0
C140 C 0.52236 0.52013 0.54715 0.0
N141 N 0.51672 0.52232 0.48609 0.0
C142 C 0.52568 0.55468 0.47616 0.0
H143 H 0.5887 0.55479 0.95289 0.0
H144 H 0.60099 0.53295 0.05543 0.0
H145 H 0.51267 0.4787 0.98794 0.0
C146 C 0.57976 0.53994 0.97264 0.0
C147 C 0.54838 0.51619 0.96649 0.0
C148 C 0.59907 0.54578 1.00438 0.0
C149 C 0.58688 0.52757 0.03036 0.0
C150 C 0.55639 0.50258 0.02432 0.0
C151 C 0.53713 0.49672 0.99218 0.0
N152 N 0.54303 0.4876 0.05235 0.0
C153 C 0.53777 0.45196 0.05372 0.0
H154 H 0.80121 0.20396 0.33618 0.0
H155 H 0.70266 0.22865 0.29583 0.0
H156 H 0.75425 0.15102 0.23856 0.0
C157 C 0.78 0.20009 0.31622 0.0
C158 C 0.78168 0.17621 0.28656 0.0
C159 C 0.75162 0.21926 0.32013 0.0
C160 C 0.72442 0.21387 0.29361 0.0
C161 C 0.72524 0.18882 0.26434 0.0
C162 C 0.75372 0.17015 0.26122 0.0
N163 N 0.69757 0.18046 0.23791 0.0
C164 C 0.67347 0.20185 0.22957 0.0
H165 H 0.42573 0.02514 0.03371 0.0
H166 H 0.48402 0.06537 0.9541 0.0
H167 H 0.42027 0.9646 0.93369 0.0
C168 C 0.43396 0.02232 0.00784 0.0
C169 C 0.42053 0.9919 0.98504 0.0
C170 C 0.45649 0.04965 0.99705 0.0
C171 C 0.46752 0.04462 0.96345 0.0
C172 C 0.45492 0.01357 0.94085 0.0
C173 C 0.43073 0.98799 0.95152 0.0
N174 N 0.46392 0.00814 0.90643 0.0
C175 C 0.49711 0.01842 0.89578 0.0
Mg176 Mg 0.23769 0.84371 0.02705 0.0
O177 O 0.28804 0.88068 0.0193 0.0
O178 O 0.33306 0.85052 0.02305 0.0
Mg179 Mg 0.31221 0.79511 0.03181 0.0
C180 C 0.32093 0.87849 0.01904 0.0
C181 C 0.20319 0.91052 0.03191 0.0
O182 O 0.2281 0.91864 0.05698 0.0
O183 O 0.2376 0.81541 0.97192 0.0
O184 O 0.28075 0.78367 0.97928 0.0
O185 O 0.24615 0.85864 0.08404 0.0
O186 O 0.26731 0.8149 0.05498 0.0
C187 C 0.25608 0.79207 0.9607 0.0
C188 C 0.26512 0.83389 0.08394 0.0
O189 O 0.20173 0.88166 0.012 0.0
Mg190 Mg 0.193 0.54796 0.28285 0.0
O191 O 0.16158 0.53866 0.23058 0.0
O192 O 0.19995 0.53423 0.19042 0.0
Mg193 Mg 0.25559 0.54132 0.21664 0.0
C194 C 0.16847 0.53422 0.19918 0.0
C195 C 0.13546 0.55599 0.33528 0.0
O196 O 0.15688 0.58534 0.34538 0.0
O197 O 0.20183 0.49103 0.27549 0.0
O198 O 0.24227 0.48922 0.23714 0.0
O199 O 0.20019 0.60563 0.28305 0.0
O200 O 0.23691 0.57104 0.26186 0.0
C201 C 0.22254 0.47451 0.25744 0.0
C202 C 0.22835 0.60189 0.26721 0.0
O203 O 0.14269 0.53521 0.30965 0.0
Mg204 Mg 0.8048 0.68343 0.02317 0.0
O205 O 0.74946 0.65068 0.01785 0.0
O206 O 0.71067 0.68837 0.02102 0.0
Mg207 Mg 0.74004 0.74398 0.02607 0.0
C208 C 0.71786 0.65731 0.01843 0.0
C209 C 0.86356 0.63796 0.00999 0.0
O210 O 0.88076 0.66979 0.01265 0.0
O211 O 0.79934 0.69371 0.96745 0.0
O212 O 0.76269 0.73325 0.97377 0.0
O213 O 0.80528 0.68942 0.08035 0.0
O214 O 0.78553 0.72635 0.05007 0.0
C215 C 0.78247 0.71575 0.95546 0.0
C216 C 0.79067 0.7171 0.07954 0.0
O217 O 0.83015 0.6341 0.00995 0.0
Mg218 Mg 0.96404 0.06273 0.26588 0.0
O219 O 0.9298 0.00925 0.25226 0.0
O220 O 0.96443 0.96869 0.23937 0.0
Mg221 Mg 0.02142 0.99618 0.24549 0.0
C222 C 0.93401 0.97753 0.24327 0.0
C223 C 0.9088 0.11146 0.26793 0.0
O224 O 0.93106 0.12172 0.24616 0.0
O225 O 0.98017 0.04898 0.31859 0.0
O226 O 0.01539 0.00934 0.3032 0.0
O227 O 0.96255 0.06806 0.21045 0.0
O228 O 1.00384 0.04525 0.23631 0.0
C229 C 1.00053 0.02751 0.3261 0.0
C230 C 0.99039 0.05304 0.20852 0.0
O231 O 0.91546 0.0869 0.28386 0.0
Mg232 Mg 0.31683 0.17812 0.5253 0.0
O233 O 0.26257 0.14239 0.51735 0.0
O234 O 0.22281 0.1793 0.52057 0.0
Mg235 Mg 0.24939 0.23609 0.52817 0.0
C236 C 0.23068 0.14843 0.51743 0.0
C237 C 0.35615 0.11453 0.53185 0.0
O238 O 0.34278 0.11891 0.56171 0.0
O239 O 0.31249 0.19057 0.47013 0.0
O240 O 0.27484 0.22913 0.4771 0.0
O241 O 0.31567 0.18189 0.5826 0.0
O242 O 0.29384 0.218 0.55274 0.0
C243 C 0.2957 0.21304 0.45888 0.0
C244 C 0.29878 0.20809 0.58186 0.0
O245 O 0.34786 0.13304 0.50973 0.0
Mg246 Mg 0.4592 0.55308 0.76687 0.0
O247 O 0.4226 0.5008 0.75305 0.0
O248 O 0.45613 0.45862 0.7433 0.0
Mg249 Mg 0.51383 0.48366 0.74896 0.0
C250 C 0.42604 0.46864 0.74572 0.0
C251 C 0.41364 0.61209 0.78197 0.0
O252 O 0.44276 0.62873 0.77267 0.0
O253 O 0.4731 0.53884 0.82 0.0
O254 O 0.50751 0.49812 0.80631 0.0
O255 O 0.45934 0.56007 0.71206 0.0
O256 O 0.49718 0.53232 0.73683 0.0
C257 C 0.49241 0.51689 0.82844 0.0
C258 C 0.48487 0.54183 0.70933 0.0
O259 O 0.41219 0.57986 0.78425 0.0
Mg260 Mg 0.73725 0.34443 0.52482 0.0
O261 O 0.78829 0.38298 0.52134 0.0
O262 O 0.83268 0.35215 0.5243 0.0
Mg263 Mg 0.81164 0.2958 0.52859 0.0
C264 C 0.82122 0.38077 0.5217 0.0
C265 C 0.70265 0.41169 0.53097 0.0
O266 O 0.72678 0.41955 0.55676 0.0
O267 O 0.73943 0.31927 0.46907 0.0
O268 O 0.78477 0.28971 0.47417 0.0
O269 O 0.74283 0.35584 0.58178 0.0
O270 O 0.76553 0.31373 0.55159 0.0
C271 C 0.76018 0.29893 0.45618 0.0
C272 C 0.76179 0.33101 0.5811 0.0
O273 O 0.70198 0.38323 0.51063 0.0
Mg274 Mg 0.68759 0.03655 0.78167 0.0
O275 O 0.65703 0.03035 0.72912 0.0
O276 O 0.69631 0.03279 0.68964 0.0
Mg277 Mg 0.75161 0.03869 0.71627 0.0
C278 C 0.66456 0.02992 0.69809 0.0
C279 C 0.62909 0.04158 0.83271 0.0
O280 O 0.65229 0.06895 0.84549 0.0
O281 O 0.69849 0.97967 0.77046 0.0
O282 O 0.73919 0.98466 0.73263 0.0
O283 O 0.69384 0.09506 0.78588 0.0
O284 O 0.73183 0.06286 0.76338 0.0
C285 C 0.72045 0.96646 0.75111 0.0
C286 C 0.72259 0.09321 0.77058 0.0
O287 O 0.63601 0.02183 0.80617 0.0
Mg288 Mg 0.07117 0.26723 0.92963 0.0
O289 O 0.0186 0.25452 0.89734 0.0
O290 O 0.97611 0.23842 0.93083 0.0
Mg291 Mg 1.00211 0.23952 0.98425 0.0
C292 C 0.98644 0.24465 0.90202 0.0
C293 C 0.11978 0.27967 0.87113 0.0
O294 O 0.13044 0.25194 0.88077 0.0
O295 O 0.05444 0.31812 0.9544 0.0
O296 O 0.01386 0.29947 0.98846 0.0
O297 O 0.07978 0.21204 0.91772 0.0
O298 O 0.05262 0.23253 0.96227 0.0
C299 C 0.03215 0.32414 0.97648 0.0
C300 C 0.0625 0.20611 0.9439 0.0
O301 O 0.09573 0.29302 0.88684 0.0
Mg302 Mg 0.57853 0.7534 0.4284 0.0
O303 O 0.5268 0.745 0.39522 0.0
O304 O 0.48273 0.72998 0.42698 0.0
Mg305 Mg 0.5066 0.72743 0.48057 0.0
C306 C 0.49402 0.737 0.3987 0.0
C307 C 0.62238 0.76377 0.36521 0.0
O308 O 0.62373 0.73057 0.36581 0.0
O309 O 0.564 0.80465 0.45457 0.0
O310 O 0.52204 0.78724 0.48789 0.0
O311 O 0.58395 0.69714 0.41514 0.0
O312 O 0.55697 0.71862 0.45938 0.0
C313 C 0.54197 0.81138 0.47672 0.0
C314 C 0.56571 0.69173 0.44086 0.0
O315 O 0.60579 0.78031 0.38758 0.0
Mg316 Mg 0.98995 0.74893 0.61858 0.0
O317 O 0.04221 0.74418 0.64878 0.0
O318 O 0.08071 0.73622 0.60905 0.0
Mg319 Mg 0.05384 0.73216 0.55525 0.0
C320 C 0.07321 0.74013 0.64026 0.0
C321 C 0.95599 0.74809 0.68766 0.0
O322 O 0.96729 0.71778 0.68232 0.0
O323 O 0.012 0.80372 0.60727 0.0
O324 O 0.04716 0.79028 0.56575 0.0
O325 O 0.97309 0.69125 0.61294 0.0
O326 O 1.00273 0.71658 0.57511 0.0
C327 C 0.0326 0.81269 0.58469 0.0
C328 C 0.98822 0.68821 0.58454 0.0
O329 O 0.9644 0.76973 0.66737 0.0
Mg330 Mg 0.4825 0.24597 0.11901 0.0
O331 O 0.53469 0.24208 0.14941 0.0
O332 O 0.57363 0.23506 0.11002 0.0
Mg333 Mg 0.547 0.23098 0.05606 0.0
C334 C 0.56585 0.23837 0.14117 0.0
C335 C 0.42335 0.25287 0.16325 0.0
O336 O 0.41184 0.23401 0.13353 0.0
O337 O 0.50339 0.30101 0.10803 0.0
O338 O 0.53819 0.28868 0.06598 0.0
O339 O 0.4658 0.18863 0.11362 0.0
O340 O 0.49629 0.21344 0.0759 0.0
C341 C 0.52303 0.31054 0.08499 0.0
C342 C 0.48144 0.18525 0.08551 0.0
O343 O 0.45597 0.26547 0.16758 0.0
C344 C 0.24404 0.77147 0.86353 0.0
C345 C 0.24533 0.73535 0.85771 0.0
C346 C 0.24538 0.78983 0.8971 0.0
C347 C 0.24841 0.77255 0.92559 0.0
H348 H 0.24401 0.78583 0.84221 0.0
H349 H 0.24611 0.81788 0.90079 0.0
S350 S 0.24703 0.67747 0.92354 0.0
N351 N 0.24521 0.68253 0.88292 0.0
N352 N 0.24842 0.71689 0.9456 0.0
C353 C 0.24731 0.73617 0.91984 0.0
C354 C 0.24555 0.7176 0.88598 0.0
C355 C 0.05661 0.50152 0.36494 0.0
C356 C 0.04628 0.52415 0.3921 0.0
C357 C 0.08509 0.51227 0.34645 0.0
C358 C 0.10442 0.54611 0.35456 0.0
H359 H 0.04269 0.47514 0.35804 0.0
H360 H 0.09223 0.49366 0.32592 0.0
S361 S 0.0864 0.61558 0.42327 0.0
N362 N 0.05627 0.58186 0.42603 0.0
N363 N 0.11005 0.60253 0.39155 0.0
C364 C 0.09383 0.56917 0.38164 0.0
C365 C 0.06467 0.55807 0.40038 0.0
C366 C 0.78255 0.76518 0.87995 0.0
C367 C 0.79893 0.74506 0.85495 0.0
C368 C 0.77703 0.755 0.91181 0.0
C369 C 0.78784 0.72425 0.92047 0.0
H370 H 0.77409 0.78932 0.87498 0.0
H371 H 0.76453 0.7719 0.92998 0.0
S372 S 0.83106 0.6615 0.86361 0.0
N373 N 0.82505 0.69222 0.84046 0.0
N374 N 0.8154 0.67337 0.90087 0.0
C375 C 0.80437 0.70378 0.89573 0.0
C376 C 0.80979 0.71412 0.86295 0.0
C377 C 0.03268 0.9901 0.40315 0.0
C378 C 0.03613 0.01867 0.42959 0.0
C379 C 0.01952 0.99279 0.37008 0.0
C380 C 1.00903 0.02405 0.36235 0.0
H381 H 0.04183 0.96613 0.40765 0.0
H382 H 0.0186 0.97048 0.35015 0.0
S383 S 0.01051 0.10547 0.4239 0.0
N384 N 0.02641 0.07843 0.44681 0.0
N385 N 1.00109 0.08344 0.38485 0.0
C386 C 0.01057 0.05216 0.38921 0.0
C387 C 0.02438 0.04951 0.42276 0.0
C388 C 0.25115 0.26974 0.63874 0.0
C389 C 0.27245 0.27614 0.66956 0.0
C390 C 0.25841 0.24579 0.61106 0.0
C391 C 0.28709 0.22729 0.61325 0.0
H392 H 0.23025 0.28506 0.63516 0.0
H393 H 0.24215 0.24283 0.58744 0.0
S394 S 0.34719 0.23063 0.69042 0.0
N395 N 0.32055 0.25906 0.70229 0.0
N396 N 0.3342 0.21393 0.65024 0.0
C397 C 0.30659 0.23118 0.64496 0.0
C398 C 0.29933 0.25572 0.67309 0.0
C399 C 0.51716 0.551 0.62194 0.0
C400 C 0.52618 0.51794 0.61012 0.0
C401 C 0.50376 0.55826 0.65403 0.0
C402 C 0.49915 0.53288 0.67569 0.0
H403 H 0.52072 0.57153 0.60636 0.0
H404 H 0.49735 0.58413 0.66212 0.0
S405 S 0.51486 0.44111 0.6552 0.0
N406 N 0.52701 0.45881 0.62158 0.0
N407 N 0.50192 0.47258 0.68185 0.0
C408 C 0.50745 0.49957 0.66399 0.0
C409 C 0.52097 0.49209 0.63123 0.0
C410 C 0.81392 0.2863 0.64125 0.0
C411 C 0.81311 0.30719 0.67303 0.0
C412 C 0.79718 0.29417 0.61164 0.0
C413 C 0.77926 0.32333 0.61287 0.0
H414 H 0.82792 0.26401 0.63918 0.0
H415 H 0.79839 0.27726 0.58766 0.0
S416 S 0.76991 0.3859 0.69088 0.0
N417 N 0.79326 0.35773 0.70467 0.0
N418 N 0.76173 0.37288 0.64929 0.0
C419 C 0.77816 0.34418 0.6449 0.0
C420 C 0.79517 0.33602 0.67494 0.0
C421 C 0.61618 0.03331 0.61292 0.0
C422 C 0.58363 0.0125 0.61444 0.0
C423 C 0.64189 0.03942 0.64043 0.0
C424 C 0.63576 0.02539 0.67068 0.0
H425 H 0.62241 0.04361 0.58971 0.0
H426 H 0.667 0.05479 0.63775 0.0
S427 S 0.55362 0.9709 0.68797 0.0
N428 N 0.54589 0.97895 0.64874 0.0
N429 N 0.5938 0.99109 0.70094 0.0
C430 C 0.60261 1.0058 0.67302 0.0
C431 C 0.57668 0.99912 0.64475 0.0
C432 C 0.916 0.2713 0.84596 0.0
C433 C 0.90799 0.24238 0.81973 0.0
C434 C 0.94144 0.27166 0.8727 0.0
C435 C 0.95987 0.24332 0.8738 0.0
H436 H 0.90203 0.29348 0.84613 0.0
H437 H 0.94676 0.29424 0.89265 0.0
S438 S 0.94994 0.16214 0.81094 0.0
N439 N 0.92123 0.18507 0.79621 0.0
N440 N 0.9694 0.18613 0.84653 0.0
C441 C 0.95265 0.21455 0.84764 0.0
C442 C 0.92653 0.21396 0.82057 0.0
C443 C 0.52293 0.89102 0.53592 0.0
C444 C 0.53519 0.91878 0.51884 0.0
C445 C 0.52468 0.85641 0.52178 0.0
C446 C 0.53932 0.84826 0.49027 0.0
H447 H 0.51224 0.89617 0.5606 0.0
H448 H 0.51519 0.83597 0.53612 0.0
S449 S 0.57467 0.91184 0.43524 0.0
N450 N 0.56198 0.93612 0.46868 0.0
N451 N 0.56544 0.87109 0.442 0.0
C452 C 0.55127 0.87588 0.47273 0.0
C453 C 0.54911 0.91111 0.48701 0.0
C454 C 0.18062 0.29543 0.80063 0.0
C455 C 0.16833 0.32323 0.78763 0.0
C456 C 0.16455 0.2814 0.82749 0.0
C457 C 0.13575 0.29487 0.84235 0.0
H458 H 0.20302 0.28471 0.79024 0.0
H459 H 0.17509 0.26005 0.83686 0.0
S460 S 0.09372 0.36764 0.81612 0.0
N461 N 0.12591 0.36365 0.79051 0.0
N462 N 0.09543 0.33755 0.84101 0.0
C463 C 0.12314 0.32264 0.82905 0.0
C464 C 0.13954 0.33677 0.80165 0.0
C465 C 0.52903 0.61846 0.48785 0.0
C466 C 0.53516 0.58851 0.46636 0.0
C467 C 0.53861 0.65169 0.47913 0.0
C468 C 0.55468 0.65605 0.44858 0.0
H469 H 0.51699 0.61622 0.51169 0.0
H470 H 0.53381 0.67411 0.49677 0.0
S471 S 0.57566 0.58477 0.38356 0.0
N472 N 0.55763 0.56447 0.41343 0.0
N473 N 0.57576 0.62683 0.39664 0.0
C474 C 0.56065 0.62592 0.42678 0.0
C475 C 0.55083 0.59213 0.43578 0.0
C476 C 0.88559 0.78971 0.73639 0.0
C477 C 0.87074 0.76325 0.75408 0.0
C478 C 0.91415 0.78531 0.71623 0.0
C479 C 0.9291 0.75424 0.71287 0.0
H480 H 0.87471 0.81387 0.73769 0.0
H481 H 0.92391 0.80612 0.70245 0.0
S482 S 0.90044 0.67713 0.75469 0.0
N483 N 0.87344 0.70495 0.76711 0.0
N484 N 0.92745 0.697 0.73032 0.0
C485 C 0.91524 0.72805 0.73145 0.0
C486 C 0.88603 0.73246 0.75173 0.0
C487 C 0.01644 0.90604 0.58091 0.0
C488 C 0.04275 0.91834 0.56056 0.0
C489 C 0.01405 0.87231 0.58961 0.0
C490 C 0.03784 0.84959 0.57812 0.0
H491 H 0.99732 0.92247 0.58991 0.0
H492 H 0.99283 0.86375 0.60473 0.0
S493 S 0.11311 0.87112 0.52585 0.0
N494 N 0.09398 0.90655 0.53046 0.0
N495 N 0.08993 0.84326 0.5465 0.0
C496 C 0.06489 0.86227 0.55834 0.0
C497 C 0.06722 0.89662 0.54963 0.0
C498 C 0.11927 0.71108 0.71624 0.0
C499 C 0.15505 0.71995 0.71095 0.0
C500 C 0.09266 0.71986 0.69467 0.0
C501 C 0.10109 0.73713 0.66674 0.0
H502 H 0.11175 0.69582 0.73606 0.0
H503 H 0.06539 0.71115 0.69862 0.0
S504 S 0.19124 0.76903 0.64458 0.0
N505 N 0.19767 0.74935 0.67795 0.0
N506 N 0.14809 0.7655 0.63723 0.0
C507 C 0.13694 0.7477 0.66255 0.0
C508 C 0.16383 0.73914 0.68469 0.0
C509 C 0.97349 0.5899 0.55795 0.0
C510 C 0.97307 0.58564 0.52199 0.0
C511 C 0.97983 0.62309 0.578 0.0
C512 C 0.98663 0.6535 0.56306 0.0
H513 H 0.96837 0.56738 0.57081 0.0
H514 H 0.97878 0.62492 0.60545 0.0
S515 S 0.98976 0.65712 0.47024 0.0
N516 N 0.98051 0.61511 0.47236 0.0
N517 N 0.99376 0.6773 0.51019 0.0
C518 C 0.98782 0.64971 0.5273 0.0
C519 C 0.98075 0.61587 0.50676 0.0
C520 C 0.83849 0.9345 0.22819 0.0
C521 C 0.84053 0.89918 0.22963 0.0
C522 C 0.86885 0.95951 0.23238 0.0
C523 C 0.90251 0.95019 0.23801 0.0
H524 H 0.81323 0.94286 0.22346 0.0
H525 H 0.86585 0.98635 0.23099 0.0
S526 S 0.92187 0.8613 0.24577 0.0
N527 N 0.87865 0.85629 0.23848 0.0
N528 N 0.93585 0.9031 0.2458 0.0
C529 C 0.90489 0.9149 0.23955 0.0
C530 C 0.8739 0.88947 0.23549 0.0
C531 C 0.82623 0.1402 0.3058 0.0
C532 C 0.81351 0.15894 0.2813 0.0
C533 C 0.85677 0.12447 0.30123 0.0
C534 C 0.87608 0.12752 0.27231 0.0
H535 H 0.81235 0.13752 0.32855 0.0
H536 H 0.86556 0.11027 0.32071 0.0
S537 S 0.85381 0.17445 0.20099 0.0
N538 N 0.82256 0.1799 0.22737 0.0
N539 N 0.87973 0.15078 0.21869 0.0
C540 C 0.86351 0.14633 0.24771 0.0
C541 C 0.83231 0.1619 0.25222 0.0
C542 C 0.36019 0.95728 0.98077 0.0
C543 C 0.39494 0.9644 0.99577 0.0
C544 C 0.33594 0.93024 0.98939 0.0
C545 C 0.34591 0.90887 0.01267 0.0
H546 H 0.3518 0.9726 0.96209 0.0
H547 H 0.30957 0.92532 0.97689 0.0
S548 S 0.43358 0.91792 0.05984 0.0
N549 N 0.43777 0.94914 0.0359 0.0
N550 N 0.39267 0.89769 0.05151 0.0
C551 C 0.38051 0.91617 0.02817 0.0
C552 C 0.40491 0.94412 0.01989 0.0
C553 C 0.25477 0.38606 0.24807 0.0
C554 C 0.23284 0.36759 0.26842 0.0
C555 C 0.25085 0.42041 0.24427 0.0
C556 C 0.22492 0.4375 0.26082 0.0
H557 H 0.2752 0.37402 0.23522 0.0
H558 H 0.26865 0.43375 0.22854 0.0
S559 S 0.1604 0.3988 0.31641 0.0
N560 N 0.18414 0.36765 0.30476 0.0
N561 N 0.17645 0.43207 0.29789 0.0
C562 C 0.20258 0.4187 0.281 0.0
C563 C 0.20665 0.38377 0.28473 0.0
C564 C 0.17048 0.06229 0.488 0.0
C565 C 0.14183 0.06553 0.50837 0.0
C566 C 0.2001 0.08848 0.49199 0.0
C567 C 0.20145 0.11916 0.51576 0.0
H568 H 0.16959 0.03972 0.46838 0.0
H569 H 0.2213 0.08539 0.47539 0.0
S570 S 0.1339 0.13944 0.57613 0.0
N571 N 0.11741 0.10092 0.55407 0.0
N572 N 0.17246 0.15039 0.56111 0.0
C573 C 0.17334 0.12218 0.53682 0.0
C574 C 0.14367 0.0953 0.53324 0.0
C575 C 0.80326 0.1503 0.74843 0.0
C576 C 0.79517 0.1842 0.75695 0.0
C577 C 0.77879 0.12108 0.75116 0.0
C578 C 0.74527 0.12456 0.7628 0.0
H579 H 0.8294 0.14642 0.74125 0.0
H580 H 0.7871 0.09569 0.7458 0.0
S581 S 0.7103 0.20801 0.7853 0.0
N582 N 0.75082 0.21993 0.77505 0.0
N583 N 0.70441 0.16492 0.78023 0.0
C584 C 0.73614 0.15838 0.76948 0.0
C585 C 0.76118 0.18823 0.7665 0.0
C586 C 0.43636 0.08052 0.49508 0.0
C587 C 0.44765 0.06177 0.52003 0.0
C588 C 0.40562 0.09594 0.49815 0.0
C589 C 0.38524 0.09333 0.52646 0.0
H590 H 0.45192 0.08416 0.47353 0.0
H591 H 0.39863 0.11116 0.47882 0.0
S592 S 0.40274 0.0439 0.59715 0.0
N593 N 0.43562 0.03917 0.57252 0.0
N594 N 0.37775 0.06791 0.57866 0.0
C595 C 0.3957 0.07312 0.55079 0.0
C596 C 0.427 0.05744 0.54752 0.0
C597 C 0.6447 0.48089 0.55603 0.0
C598 C 0.61409 0.46956 0.53398 0.0
C599 C 0.67379 0.46295 0.55372 0.0
C600 C 0.67344 0.43277 0.52935 0.0
H601 H 0.64605 0.50364 0.57555 0.0
H602 H 0.69637 0.47238 0.57188 0.0
S603 S 0.5998 0.39296 0.46478 0.0
N604 N 0.58531 0.42678 0.48644 0.0
N605 N 0.64002 0.39324 0.48171 0.0
C606 C 0.64335 0.42185 0.50633 0.0
C607 C 0.6137 0.44016 0.50875 0.0
C608 C 0.78271 0.2651 0.36709 0.0
C609 C 0.75109 0.24429 0.35237 0.0
C610 C 0.78493 0.28413 0.40014 0.0
C611 C 0.75539 0.28405 0.41947 0.0
H612 H 0.80642 0.26565 0.35346 0.0
H613 H 0.81025 0.29825 0.41106 0.0
S614 S 0.66574 0.23651 0.39239 0.0
N615 N 0.68907 0.22619 0.3596 0.0
N616 N 0.69307 0.26355 0.42115 0.0
C617 C 0.72304 0.26547 0.40442 0.0
C618 C 0.7209 0.2453 0.37096 0.0
C619 C 0.55701 0.05088 0.89452 0.0
C620 C 0.5301 0.02396 0.8801 0.0
C621 C 0.58899 0.05619 0.87909 0.0
C622 C 0.59514 0.03471 0.84873 0.0
H623 H 0.55332 0.06793 0.91778 0.0
H624 H 0.60899 0.07739 0.89109 0.0
S625 S 0.53198 0.96044 0.80136 0.0
N626 N 0.51098 0.97559 0.83431 0.0
N627 N 0.57082 0.98529 0.80514 0.0
C628 C 0.56811 0.00756 0.8343 0.0
C629 C 0.53564 1.00228 0.85005 0.0
C630 C 0.30183 0.26946 0.38919 0.0
C631 C 0.30822 0.24675 0.36003 0.0
C632 C 0.29872 0.25822 0.42086 0.0
C633 C 0.3022 0.22379 0.42506 0.0
H634 H 0.29802 0.29601 0.38726 0.0
H635 H 0.293 0.27675 0.44221 0.0
S636 S 0.32174 0.15456 0.35733 0.0
N637 N 0.31975 0.1886 0.33755 0.0
N638 N 0.31471 0.16752 0.39768 0.0
C639 C 0.31057 0.20119 0.39659 0.0
C640 C 0.31343 0.21267 0.36396 0.0
C641 C 0.51716 0.54416 0.92349 0.0
C642 C 0.52738 0.51373 0.93345 0.0
C643 C 0.50345 0.54445 0.89001 0.0
C644 C 0.50006 0.51443 0.86507 0.0
H645 H 0.52124 0.56836 0.9414 0.0
H646 H 0.49753 0.56887 0.88314 0.0
S647 S 0.51923 0.42711 0.87928 0.0
N648 N 0.53012 0.45215 0.91673 0.0
N649 N 0.50472 0.45251 0.85366 0.0
C650 C 0.50819 0.4833 0.87532 0.0
C651 C 0.52172 0.48297 0.90955 0.0
C652 C 0.75663 0.78917 0.13758 0.0
C653 C 0.77264 0.7874 0.16974 0.0
C654 C 0.76117 0.76522 0.10882 0.0
C655 C 0.78166 0.73841 0.1112 0.0
H656 H 0.74226 0.81049 0.13426 0.0
H657 H 0.74967 0.76884 0.08442 0.0
S658 S 0.82626 0.72103 0.19101 0.0
N659 N 0.80777 0.75597 0.20328 0.0
N660 N 0.81575 0.71013 0.14947 0.0
C661 C 0.79594 0.73515 0.14387 0.0
C662 C 0.79165 0.75992 0.17307 0.0
C663 C 0.99711 0.02817 0.11309 0.0
C664 C 0.03364 0.02925 0.11023 0.0
C665 C 0.98334 0.03581 0.14495 0.0
C666 C 1.00543 0.04412 0.17532 0.0
H667 H 0.97887 0.02104 0.09056 0.0
H668 H 0.9551 0.03479 0.14582 0.0
S669 S 0.10291 0.05284 0.18223 0.0
N670 N 0.09175 0.04169 0.14085 0.0
N671 N 0.06556 0.05421 0.20073 0.0
C672 C 0.04189 0.04523 0.17303 0.0
C673 C 0.05606 0.03824 0.14053 0.0
C674 C 0.31999 0.79212 0.14435 0.0
C675 C 0.32225 0.81537 0.17511 0.0
C676 C 0.30142 0.79837 0.11502 0.0
C677 C 0.28457 0.82816 0.11549 0.0
H678 H 0.33287 0.7691 0.14286 0.0
H679 H 0.30024 0.77959 0.09187 0.0
S680 S 0.28302 0.89675 0.19072 0.0
N681 N 0.30642 0.86888 0.20503 0.0
N682 N 0.2714 0.88096 0.15008 0.0
C683 C 0.28655 0.85144 0.1465 0.0
C684 C 0.30549 0.84496 0.1763 0.0
C685 C 0.0753 0.5165 0.15635 0.0
C686 C 0.08078 0.51385 0.12134 0.0
C687 C 0.10374 0.52357 0.18125 0.0
C688 C 0.13886 0.52829 0.17216 0.0
H689 H 0.04883 0.51205 0.16455 0.0
H690 H 0.09803 0.52466 0.20781 0.0
S691 S 0.16696 0.52694 0.08369 0.0
N692 N 0.12355 0.51869 0.07876 0.0
N693 N 0.17713 0.53177 0.12528 0.0
C694 C 0.14457 0.52669 0.13713 0.0
C695 C 0.11554 0.51951 0.11183 0.0
C696 C 0.40656 0.7341 0.34822 0.0
C697 C 0.41654 0.74268 0.31656 0.0
C698 C 0.43175 0.73177 0.37425 0.0
C699 C 0.46807 0.73791 0.36975 0.0
H700 H 0.37896 0.72951 0.3531 0.0
H701 H 0.42252 0.72545 0.39822 0.0
S702 S 0.50778 0.75973 0.29063 0.0
N703 N 0.4649 0.75615 0.28144 0.0
N704 N 0.51257 0.75213 0.33034 0.0
C705 C 0.47839 0.74618 0.33791 0.0
C706 C 0.45259 0.74856 0.3114 0.0
C707 C 0.9955 0.40092 0.02459 0.0
C708 C 0.0213 0.42946 0.02232 0.0
C709 C 0.99866 0.36723 0.00865 0.0
C710 C 0.02767 0.36074 0.98962 0.0
H711 H 0.97373 0.4043 0.04043 0.0
H712 H 0.97867 0.34595 0.01221 0.0
S713 S 0.10019 0.42781 0.97262 0.0
N714 N 0.07504 0.44995 0.99727 0.0
N715 N 0.0811 0.38671 0.96701 0.0
C716 C 0.05251 0.38956 0.98539 0.0
C717 C 0.04933 0.42386 1.00185 0.0
C718 C 0.65198 0.83472 0.31276 0.0
C719 C 0.67675 0.82023 0.29264 0.0
C720 C 0.63414 0.816 0.33575 0.0
C721 C 0.6405 0.78212 0.33938 0.0
H722 H 0.64686 0.86097 0.31124 0.0
H723 H 0.6155 0.82841 0.35104 0.0
S724 S 0.70307 0.73286 0.29141 0.0
N725 N 0.70681 0.77051 0.27693 0.0
N726 N 0.67332 0.73484 0.31994 0.0
C727 C 0.66492 0.76719 0.31865 0.0
C728 C 0.6831 0.78643 0.29533 0.0
C729 C 0.03278 0.13144 0.99221 0.0
C730 C 0.03988 0.1022 0.97021 0.0
C731 C 0.03965 0.16497 0.98325 0.0
C732 C 0.05392 0.17024 0.95205 0.0
H733 H 0.0221 0.12843 0.01653 0.0
H734 H 0.03421 0.1869 1.00118 0.0
S735 S 0.07606 0.10096 0.88548 0.0
N736 N 0.06106 0.07983 0.91606 0.0
N737 N 0.07407 0.14255 0.89891 0.0
C738 C 0.0607 0.14077 0.92977 0.0
C739 C 0.05364 0.10678 0.93896 0.0
C740 C 0.3878 0.27679 0.25081 0.0
C741 C 0.35139 0.26509 0.24427 0.0
C742 C 0.411 0.27328 0.22453 0.0
C743 C 0.39866 0.25763 0.19085 0.0
H744 H 0.39831 0.28918 0.27625 0.0
H745 H 0.43879 0.28273 0.23071 0.0
S746 S 0.30555 0.2211 0.16126 0.0
N747 N 0.30432 0.23605 0.20225 0.0
N748 N 0.3472 0.22968 0.15306 0.0
C749 C 0.36223 0.24549 0.18433 0.0
C750 C 0.33883 0.24913 0.21095 0.0
C751 C 0.55 0.39105 0.04299 0.0
C752 C 0.53309 0.41656 0.06122 0.0
C753 C 0.547 0.35715 0.05127 0.0
C754 C 0.527 0.34744 0.07822 0.0
H755 H 0.56578 0.39735 0.02228 0.0
H756 H 0.56041 0.33839 0.03619 0.0
S757 S 0.47832 0.40604 0.13414 0.0
N758 N 0.49631 0.4308 0.10752 0.0
N759 N 0.49039 0.36731 0.12329 0.0
C760 C 0.51017 0.3732 0.09675 0.0
C761 C 0.51329 0.40768 0.08819 0.0
C762 C 0.65558 0.23037 0.18179 0.0
C763 C 0.64745 0.21785 0.2122 0.0
C764 C 0.62923 0.23882 0.16 0.0
C765 C 0.59362 0.23499 0.16774 0.0
H766 H 0.68224 0.23197 0.17387 0.0
H767 H 0.63672 0.24712 0.13619 0.0
S768 S 0.55954 0.20554 0.24624 0.0
N769 N 0.60222 0.20383 0.25036 0.0
N770 N 0.55242 0.21995 0.20974 0.0
C771 C 0.58561 0.22435 0.19929 0.0
C772 C 0.61259 0.2156 0.22139 0.0
C773 C 0.43844 0.09694 0.03928 0.0
C774 C 0.46494 0.08424 0.01991 0.0
C775 C 0.44466 0.12918 0.06079 0.0
C776 C 0.47736 0.15079 0.06337 0.0
H777 H 0.41223 0.08216 0.03746 0.0
H778 H 0.42319 0.13767 0.07488 0.0
S779 S 0.5564 0.12993 0.01976 0.0
N780 N 0.52613 0.09561 0.00631 0.0
N781 N 0.53708 0.1572 0.04572 0.0
C782 C 0.50422 0.13885 0.04426 0.0
C783 C 0.49817 0.10542 0.02276 0.0
C784 C 0.33074 0.42623 0.72528 0.0
C785 C 0.33173 0.39154 0.73018 0.0
C786 C 0.36131 0.45105 0.73053 0.0
C787 C 0.39405 0.44202 0.7406 0.0
H788 H 0.3063 0.4341 0.71665 0.0
H789 H 0.35935 0.47735 0.72607 0.0
S790 S 0.41 0.35539 0.75995 0.0
N791 N 0.36753 0.35005 0.7481 0.0
N792 N 0.42512 0.39639 0.7573 0.0
C793 C 0.39523 0.40756 0.74623 0.0
C794 C 0.36406 0.38242 0.74119 0.0
C795 C 0.31773 0.62694 0.78034 0.0
C796 C 0.32043 0.66345 0.78833 0.0
C797 C 0.34793 0.61039 0.77947 0.0
C798 C 0.38198 0.62981 0.78595 0.0
H799 H 0.29205 0.61103 0.77506 0.0
H800 H 0.34457 0.58223 0.7729 0.0
S801 S 0.4031 0.72622 0.80827 0.0
N802 N 0.35966 0.71849 0.80322 0.0
N803 N 0.41635 0.68766 0.80107 0.0
C804 C 0.38492 0.66637 0.79403 0.0
C805 C 0.35419 0.68311 0.79537 0.0
C806 C 0.90829 0.43405 0.5079 0.0
C807 C 0.89919 0.46654 0.50305 0.0
C808 C 0.88309 0.40719 0.51493 0.0
C809 C 0.8474 0.41141 0.5172 0.0
H810 H 0.93519 0.42912 0.50567 0.0
H811 H 0.89177 0.38258 0.51778 0.0
S812 S 0.81034 0.49255 0.50828 0.0
N813 N 0.85256 0.50234 0.50238 0.0
N814 N 0.80476 0.45178 0.51556 0.0
C815 C 0.83811 0.44433 0.51351 0.0
C816 C 0.86407 0.47188 0.5065 0.0
C817 C 0.71565 0.87544 0.77598 0.0
C818 C 0.73875 0.85979 0.75448 0.0
C819 C 0.70935 0.90969 0.77437 0.0
C820 C 0.72597 0.92945 0.75114 0.0
H821 H 0.7024 0.86116 0.79421 0.0
H822 H 0.6916 0.92079 0.79172 0.0
S823 S 0.78825 0.89873 0.6886 0.0
N824 N 0.77775 0.86543 0.70906 0.0
N825 N 0.76626 0.92952 0.70549 0.0
C826 C 0.74895 0.91347 0.72921 0.0
C827 C 0.75526 0.8787 0.73103 0.0
C828 C 0.66031 0.56919 0.99224 0.0
C829 C 0.63048 0.57301 0.0107 0.0
C830 C 0.68907 0.59618 0.99562 0.0
C831 C 0.68843 0.62822 0.0168 0.0
H832 H 0.66119 0.54532 0.9748 0.0
H833 H 0.71142 0.59237 0.98071 0.0
S834 S 0.61671 0.6506 0.07126 0.0
N835 N 0.60241 0.61048 0.05168 0.0
N836 N 0.6559 0.66158 0.0575 0.0
C837 C 0.65887 0.63206 0.03573 0.0
C838 C 0.63002 0.60435 0.03281 0.0
C839 C 0.31004 0.65555 0.24283 0.0
C840 C 0.30339 0.68997 0.25153 0.0
C841 C 0.2846 0.62714 0.24576 0.0
C842 C 0.25156 0.63205 0.2578 0.0
H843 H 0.33589 0.65062 0.2356 0.0
H844 H 0.29184 0.60127 0.24049 0.0
S845 S 0.21979 0.71727 0.27973 0.0
N846 N 0.26055 0.72762 0.26939 0.0
N847 N 0.21234 0.67421 0.27486 0.0
C848 C 0.24366 0.66637 0.26409 0.0
C849 C 0.26967 0.69535 0.26093 0.0
C850 C 0.9398 0.59037 0.02976 0.0
C851 C 0.92277 0.55856 0.03699 0.0
C852 C 0.92043 0.6149 0.01852 0.0
C853 C 0.88328 0.60859 0.01445 0.0
H854 H 0.96812 0.59717 0.03457 0.0
H855 H 0.93471 0.63976 0.01481 0.0
S856 S 0.82695 0.52679 0.02651 0.0
N857 N 0.86747 0.52027 0.03663 0.0
N858 N 0.83072 0.56606 0.01539 0.0
C859 C 0.86624 0.57559 0.01939 0.0
C860 C 0.8861 0.55067 0.03082 0.0
C861 C 0.14732 0.98141 0.05733 0.0
C862 C 0.1168 0.97127 0.03497 0.0
C863 C 0.17558 0.96238 0.05511 0.0
C864 C 0.17448 0.93223 0.03055 0.0
H865 H 0.14934 1.00423 0.07687 0.0
H866 H 0.19817 0.97109 0.0734 0.0
S867 S 0.10057 0.89509 0.9654 0.0
N868 N 0.08715 0.92954 0.98709 0.0
N869 N 0.14032 0.89377 0.98264 0.0
C870 C 0.14436 0.92228 0.00742 0.0
C871 C 0.11555 0.94178 0.0097 0.0
loop_
_geom_bond_atom_site_label_1
_geom_bond_atom_site_label_2
_geom_bond_distance
_geom_bond_site_symmetry_2
_ccdc_geom_bond_type
H0 C3 0.929 . S
H1 C6 0.929 . S
H2 C8 0.930 . S
C3 H0 0.929 . S
C3 C4 1.398 . S
C3 C5 1.396 . S
C4 C3 1.398 . S
C4 C8 1.407 . S
C5 C3 1.396 . S
C5 C6 1.394 . S
C6 H1 0.929 . S
C6 C5 1.394 . S
C6 C7 1.382 . S
C7 C6 1.382 . S
C7 C8 1.392 . S
C7 N9 1.420 . S
C8 H2 0.930 . S
C8 C4 1.407 . S
C8 C7 1.392 . S
N9 C7 1.420 . S
N9 C10 1.244 1_554 S
C10 N9 1.244 1_556 S
H11 C14 0.929 . S
H12 C17 0.929 . S
H13 C19 0.930 . S
C14 H11 0.929 . S
C14 C15 1.398 . S
C14 C16 1.396 . S
C15 C14 1.398 . S
C15 C19 1.407 . S
C16 C14 1.396 . S
C16 C17 1.394 . S
C17 H12 0.929 . S
C17 C16 1.394 . S
C17 C18 1.382 . S
C18 C17 1.382 . S
C18 C19 1.392 . S
C18 N20 1.420 . S
C19 H13 0.930 . S
C19 C15 1.407 . S
C19 C18 1.392 . S
N20 C18 1.420 . S
N20 C21 1.244 . S
C21 N20 1.244 . S
H22 C25 0.929 . S
H23 C28 0.929 . S
H24 C30 0.930 1_556 S
C25 H22 0.929 . S
C25 C26 1.398 . S
C25 C27 1.396 . S
C26 C25 1.398 . S
C26 C30 1.407 1_455 S
C27 C25 1.396 . S
C27 C28 1.394 . S
C28 H23 0.929 . S
C28 C27 1.394 . S
C28 C29 1.382 1_455 S
C29 C28 1.382 1_655 S
C29 C30 1.392 . S
C29 N31 1.420 . S
C30 H24 0.930 1_554 S
C30 C26 1.407 1_655 S
C30 C29 1.392 . S
N31 C29 1.420 . S
N31 C32 1.244 . S
C32 N31 1.244 . S
H33 C36 0.929 . S
H34 C39 0.929 . S
H35 C41 0.930 . S
C36 H33 0.929 . S
C36 C37 1.398 . S
C36 C38 1.396 . S
C37 C36 1.398 . S
C37 C41 1.407 . S
C38 C36 1.396 . S
C38 C39 1.394 . S
C39 H34 0.929 . S
C39 C38 1.394 . S
C39 C40 1.382 . S
C40 C39 1.382 . S
C40 C41 1.392 . S
C40 N42 1.420 . S
C41 H35 0.930 . S
C41 C37 1.407 . S
C41 C40 1.392 . S
N42 C40 1.420 . S
N42 C43 1.244 . S
C43 N42 1.244 . S
H44 C47 0.929 . S
H45 C50 0.929 . S
H46 C52 0.930 . S
C47 H44 0.929 . S
C47 C48 1.398 1_545 S
C47 C49 1.396 . S
C48 C47 1.398 1_565 S
C48 C52 1.407 . S
C49 C47 1.396 . S
C49 C50 1.394 1_545 S
C50 H45 0.929 . S
C50 C49 1.394 1_565 S
C50 C51 1.382 . S
C51 C50 1.382 . S
C51 C52 1.392 . S
C51 N53 1.420 . S
C52 H46 0.930 . S
C52 C48 1.407 . S
C52 C51 1.392 . S
N53 C51 1.420 . S
N53 C54 1.244 . S
C54 N53 1.244 . S
H55 C58 0.929 . S
H56 C61 0.929 . S
H57 C63 0.930 . S
C58 H55 0.929 . S
C58 C59 1.398 . S
C58 C60 1.396 . S
C59 C58 1.398 . S
C59 C63 1.407 . S
C60 C58 1.396 . S
C60 C61 1.394 . S
C61 H56 0.929 . S
C61 C60 1.394 . S
C61 C62 1.382 . S
C62 C61 1.382 . S
C62 C63 1.392 . S
C62 N64 1.420 . S
C63 H57 0.930 . S
C63 C59 1.407 . S
C63 C62 1.392 . S
N64 C62 1.420 . S
N64 C65 1.244 . S
C65 N64 1.244 . S
H66 C69 0.929 . S
H67 C72 0.929 1_455 S
H68 C74 0.930 . S
C69 H66 0.929 . S
C69 C70 1.398 . S
C69 C71 1.396 . S
C70 C69 1.398 . S
C70 C74 1.407 . S
C71 C69 1.396 . S
C71 C72 1.394 . S
C72 H67 0.929 1_655 S
C72 C71 1.394 . S
C72 C73 1.382 . S
C73 C72 1.382 . S
C73 C74 1.392 . S
C73 N75 1.420 1_655 S
C74 H68 0.930 . S
C74 C70 1.407 . S
C74 C73 1.392 . S
N75 C73 1.420 1_455 S
N75 C76 1.244 . S
C76 N75 1.244 . S
H77 C80 0.929 . S
H78 C83 0.929 . S
H79 C85 0.930 . S
C80 H77 0.929 . S
C80 C81 1.398 . S
C80 C82 1.396 . S
C81 C80 1.398 . S
C81 C85 1.407 . S
C82 C80 1.396 . S
C82 C83 1.394 . S
C83 H78 0.929 . S
C83 C82 1.394 . S
C83 C84 1.382 . S
C84 C83 1.382 . S
C84 C85 1.392 . S
C84 N86 1.420 . S
C85 H79 0.930 . S
C85 C81 1.407 . S
C85 C84 1.392 . S
N86 C84 1.420 . S
N86 C87 1.244 . S
C87 N86 1.244 . S
H88 C91 0.929 . S
H89 C94 0.929 . S
H90 C96 0.930 . S
C91 H88 0.929 . S
C91 C92 1.398 . S
C91 C93 1.396 . S
C92 C91 1.398 . S
C92 C96 1.407 . S
C93 C91 1.396 . S
C93 C94 1.394 . S
C94 H89 0.929 . S
C94 C93 1.394 . S
C94 C95 1.382 . S
C95 C94 1.382 . S
C95 C96 1.392 . S
C95 N97 1.420 . S
C96 H90 0.930 . S
C96 C92 1.407 . S
C96 C95 1.392 . S
N97 C95 1.420 . S
N97 C98 1.244 . S
C98 N97 1.244 . S
H99 C102 0.929 . S
H100 C105 0.929 1_545 S
H101 C107 0.930 . S
C102 H99 0.929 . S
C102 C103 1.398 . S
C102 C104 1.396 . S
C103 C102 1.398 . S
C103 C107 1.407 . S
C104 C102 1.396 . S
C104 C105 1.394 . S
C105 H100 0.929 1_565 S
C105 C104 1.394 . S
C105 C106 1.382 . S
C106 C105 1.382 . S
C106 C107 1.392 . S
C106 N108 1.420 1_565 S
C107 H101 0.930 . S
C107 C103 1.407 . S
C107 C106 1.392 . S
N108 C106 1.420 1_545 S
N108 C109 1.244 . S
C109 N108 1.244 . S
H110 C113 0.929 . S
H111 C116 0.929 . S
H112 C118 0.930 . S
C113 H110 0.929 . S
C113 C114 1.398 . S
C113 C115 1.396 . S
C114 C113 1.398 . S
C114 C118 1.407 . S
C115 C113 1.396 . S
C115 C116 1.394 . S
C116 H111 0.929 . S
C116 C115 1.394 . S
C116 C117 1.382 . S
C117 C116 1.382 . S
C117 C118 1.392 . S
C117 N119 1.420 . S
C118 H112 0.930 . S
C118 C114 1.407 . S
C118 C117 1.392 . S
N119 C117 1.420 . S
N119 C120 1.244 . S
C120 N119 1.244 . S
H121 C124 0.929 . S
H122 C127 0.929 . S
H123 C129 0.930 . S
C124 H121 0.929 . S
C124 C125 1.398 . S
C124 C126 1.396 . S
C125 C124 1.398 . S
C125 C129 1.407 . S
C126 C124 1.396 . S
C126 C127 1.394 . S
C127 H122 0.929 . S
C127 C126 1.394 . S
C127 C128 1.382 . S
C128 C127 1.382 . S
C128 C129 1.392 . S
C128 N130 1.420 . S
C129 H123 0.930 . S
C129 C125 1.407 . S
C129 C128 1.392 . S
N130 C128 1.420 . S
N130 C131 1.244 . S
C131 N130 1.244 . S
H132 C135 0.929 . S
H133 C138 0.929 . S
H134 C140 0.930 . S
C135 H132 0.929 . S
C135 C136 1.398 . S
C135 C137 1.396 . S
C136 C135 1.398 . S
C136 C140 1.407 . S
C137 C135 1.396 . S
C137 C138 1.394 . S
C138 H133 0.929 . S
C138 C137 1.394 . S
C138 C139 1.382 . S
C139 C138 1.382 . S
C139 C140 1.392 . S
C139 N141 1.420 . S
C140 H134 0.930 . S
C140 C136 1.407 . S
C140 C139 1.392 . S
N141 C139 1.420 . S
N141 C142 1.244 . S
C142 N141 1.244 . S
H143 C146 0.929 . S
H144 C149 0.929 . S
H145 C151 0.930 . S
C146 H143 0.929 . S
C146 C147 1.398 . S
C146 C148 1.396 . S
C147 C146 1.398 . S
C147 C151 1.407 . S
C148 C146 1.396 . S
C148 C149 1.394 1_556 S
C149 H144 0.929 . S
C149 C148 1.394 1_554 S
C149 C150 1.382 1_554 S
C150 C149 1.382 1_556 S
C150 C151 1.392 . S
C150 N152 1.420 1_556 S
C151 H145 0.930 . S
C151 C147 1.407 . S
C151 C150 1.392 . S
N152 C150 1.420 1_554 S
N152 C153 1.244 . S
C153 N152 1.244 . S
H154 C157 0.929 . S
H155 C160 0.929 . S
H156 C162 0.930 . S
C157 H154 0.929 . S
C157 C158 1.398 . S
C157 C159 1.396 . S
C158 C157 1.398 . S
C158 C162 1.407 . S
C159 C157 1.396 . S
C159 C160 1.394 . S
C160 H155 0.929 . S
C160 C159 1.394 . S
C160 C161 1.382 . S
C161 C160 1.382 . S
C161 C162 1.392 . S
C161 N163 1.420 . S
C162 H156 0.930 . S
C162 C158 1.407 . S
C162 C161 1.392 . S
N163 C161 1.420 . S
N163 C164 1.244 . S
C164 N163 1.244 . S
H165 C168 0.929 . S
H166 C171 0.929 . S
H167 C173 0.930 . S
C168 H165 0.929 . S
C168 C169 1.398 1_554 S
C168 C170 1.396 . S
C169 C168 1.398 1_556 S
C169 C173 1.407 1_545 S
C170 C168 1.396 . S
C170 C171 1.394 1_554 S
C171 H166 0.929 . S
C171 C170 1.394 1_556 S
C171 C172 1.382 . S
C172 C171 1.382 . S
C172 C173 1.392 1_545 S
C172 N174 1.420 . S
C173 H167 0.930 . S
C173 C169 1.407 1_565 S
C173 C172 1.392 1_565 S
N174 C172 1.420 . S
N174 C175 1.244 . S
C175 N174 1.244 . S
Mg176 O177 2.028 . S
Mg176 O183 1.986 1_554 S
Mg176 O185 2.114 . S
Mg176 O186 2.251 . S
Mg176 O189 2.010 . S
O177 Mg176 2.028 . S
O177 C180 1.250 . S
O178 Mg179 2.028 . S
O178 C180 1.248 . S
Mg179 O178 2.028 . S
Mg179 O184 2.032 1_554 S
Mg179 O186 2.079 . S
C180 O177 1.250 . S
C180 O178 1.248 . S
C181 O182 1.264 . S
C181 O189 1.249 . S
O182 C181 1.264 . S
O183 Mg176 1.986 1_556 S
O183 C187 1.246 . S
O184 Mg179 2.032 1_556 S
O184 C187 1.259 . S
O185 Mg176 2.114 . S
O185 C188 1.252 . S
O186 Mg176 2.251 . S
O186 Mg179 2.079 . S
O186 C188 1.273 . S
C187 O183 1.246 . S
C187 O184 1.259 . S
C188 O185 1.252 . S
C188 O186 1.273 . S
O189 Mg176 2.010 . S
O189 C181 1.249 . S
Mg190 O191 2.028 . S
Mg190 O197 1.986 . S
Mg190 O199 2.114 . S
Mg190 O200 2.251 . S
Mg190 O203 2.010 . S
O191 Mg190 2.028 . S
O191 C194 1.250 . S
O192 Mg193 2.028 . S
O192 C194 1.248 . S
Mg193 O192 2.028 . S
Mg193 O198 2.032 . S
Mg193 O200 2.079 . S
C194 O191 1.250 . S
C194 O192 1.248 . S
C195 O196 1.264 . S
C195 O203 1.249 . S
O196 C195 1.264 . S
O197 Mg190 1.986 . S
O197 C201 1.246 . S
O198 Mg193 2.032 . S
O198 C201 1.259 . S
O199 Mg190 2.114 . S
O199 C202 1.252 . S
O200 Mg190 2.251 . S
O200 Mg193 2.079 . S
O200 C202 1.273 . S
C201 O197 1.246 . S
C201 O198 1.259 . S
C202 O199 1.252 . S
C202 O200 1.273 . S
O203 Mg190 2.010 . S
O203 C195 1.249 . S
Mg204 O205 2.028 1_554 S
Mg204 O211 1.986 1_554 S
Mg204 O213 2.114 . S
Mg204 O214 2.251 . S
Mg204 O217 2.010 . S
O205 Mg204 2.028 1_556 S
O205 C208 1.250 . S
O206 Mg207 2.028 . S
O206 C208 1.248 . S
Mg207 O206 2.028 . S
Mg207 O212 2.032 . S
Mg207 O214 2.079 1_556 S
C208 O205 1.250 . S
C208 O206 1.248 . S
C209 O210 1.264 . S
C209 O217 1.249 . S
O210 C209 1.264 . S
O211 Mg204 1.986 1_556 S
O211 C215 1.246 . S
O212 Mg207 2.032 . S
O212 C215 1.259 . S
O213 Mg204 2.114 . S
O213 C216 1.252 . S
O214 Mg204 2.251 . S
O214 Mg207 2.079 1_554 S
O214 C216 1.273 . S
C215 O211 1.246 . S
C215 O212 1.259 . S
C216 O213 1.252 . S
C216 O214 1.273 . S
O217 Mg204 2.010 . S
O217 C209 1.249 . S
Mg218 O219 2.028 . S
Mg218 O225 1.986 . S
Mg218 O227 2.114 . S
Mg218 O228 2.251 . S
Mg218 O231 2.010 . S
O219 Mg218 2.028 . S
O219 C222 1.250 1_545 S
O220 Mg221 2.028 . S
O220 C222 1.248 . S
Mg221 O220 2.028 . S
Mg221 O226 2.032 . S
Mg221 O228 2.079 1_565 S
C222 O219 1.250 1_565 S
C222 O220 1.248 . S
C223 O224 1.264 . S
C223 O231 1.249 . S
O224 C223 1.264 . S
O225 Mg218 1.986 . S
O225 C229 1.246 . S
O226 Mg221 2.032 . S
O226 C229 1.259 1_565 S
O227 Mg218 2.114 . S
O227 C230 1.252 . S
O228 Mg218 2.251 . S
O228 Mg221 2.079 1_545 S
O228 C230 1.273 . S
C229 O225 1.246 . S
C229 O226 1.259 1_545 S
C230 O227 1.252 . S
C230 O228 1.273 . S
O231 Mg218 2.010 . S
O231 C223 1.249 . S
Mg232 O233 2.028 . S
Mg232 O239 1.986 . S
Mg232 O241 2.114 . S
Mg232 O242 2.251 . S
Mg232 O245 2.010 . S
O233 Mg232 2.028 . S
O233 C236 1.250 . S
O234 Mg235 2.028 . S
O234 C236 1.248 . S
Mg235 O234 2.028 . S
Mg235 O240 2.032 . S
Mg235 O242 2.079 . S
C236 O233 1.250 . S
C236 O234 1.248 . S
C237 O238 1.264 . S
C237 O245 1.249 . S
O238 C237 1.264 . S
O239 Mg232 1.986 . S
O239 C243 1.246 . S
O240 Mg235 2.032 . S
O240 C243 1.259 . S
O241 Mg232 2.114 . S
O241 C244 1.252 . S
O242 Mg232 2.251 . S
O242 Mg235 2.079 . S
O242 C244 1.273 . S
C243 O239 1.246 . S
C243 O240 1.259 . S
C244 O241 1.252 . S
C244 O242 1.273 . S
O245 Mg232 2.010 . S
O245 C237 1.249 . S
Mg246 O247 2.028 . S
Mg246 O253 1.986 . S
Mg246 O255 2.114 . S
Mg246 O256 2.251 . S
Mg246 O259 2.010 . S
O247 Mg246 2.028 . S
O247 C250 1.250 . S
O248 Mg249 2.028 . S
O248 C250 1.248 . S
Mg249 O248 2.028 . S
Mg249 O254 2.032 . S
Mg249 O256 2.079 . S
C250 O247 1.250 . S
C250 O248 1.248 . S
C251 O252 1.264 . S
C251 O259 1.249 . S
O252 C251 1.264 . S
O253 Mg246 1.986 . S
O253 C257 1.246 . S
O254 Mg249 2.032 . S
O254 C257 1.259 . S
O255 Mg246 2.114 . S
O255 C258 1.252 . S
O256 Mg246 2.251 . S
O256 Mg249 2.079 . S
O256 C258 1.273 . S
C257 O253 1.246 . S
C257 O254 1.259 . S
C258 O255 1.252 . S
C258 O256 1.273 . S
O259 Mg246 2.010 . S
O259 C251 1.249 . S
Mg260 O261 2.028 . S
Mg260 O267 1.986 . S
Mg260 O269 2.114 . S
Mg260 O270 2.251 . S
Mg260 O273 2.010 . S
O261 Mg260 2.028 . S
O261 C264 1.250 . S
O262 Mg263 2.028 . S
O262 C264 1.248 . S
Mg263 O262 2.028 . S
Mg263 O268 2.032 . S
Mg263 O270 2.079 . S
C264 O261 1.250 . S
C264 O262 1.248 . S
C265 O266 1.264 . S
C265 O273 1.249 . S
O266 C265 1.264 . S
O267 Mg260 1.986 . S
O267 C271 1.246 . S
O268 Mg263 2.032 . S
O268 C271 1.259 . S
O269 Mg260 2.114 . S
O269 C272 1.252 . S
O270 Mg260 2.251 . S
O270 Mg263 2.079 . S
O270 C272 1.273 . S
C271 O267 1.246 . S
C271 O268 1.259 . S
C272 O269 1.252 . S
C272 O270 1.273 . S
O273 Mg260 2.010 . S
O273 C265 1.249 . S
Mg274 O275 2.028 1_545 S
Mg274 O281 1.986 1_545 S
Mg274 O283 2.114 . S
Mg274 O284 2.251 . S
Mg274 O287 2.010 . S
O275 Mg274 2.028 1_565 S
O275 C278 1.250 . S
O276 Mg277 2.028 . S
O276 C278 1.248 . S
Mg277 O276 2.028 . S
Mg277 O282 2.032 . S
Mg277 O284 2.079 1_565 S
C278 O275 1.250 . S
C278 O276 1.248 . S
C279 O280 1.264 . S
C279 O287 1.249 . S
O280 C279 1.264 . S
O281 Mg274 1.986 1_565 S
O281 C285 1.246 . S
O282 Mg277 2.032 . S
O282 C285 1.259 . S
O283 Mg274 2.114 . S
O283 C286 1.252 . S
O284 Mg274 2.251 . S
O284 Mg277 2.079 1_545 S
O284 C286 1.273 . S
C285 O281 1.246 . S
C285 O282 1.259 . S
C286 O283 1.252 . S
C286 O284 1.273 . S
O287 Mg274 2.010 . S
O287 C279 1.249 . S
Mg288 O289 2.028 . S
Mg288 O295 1.986 . S
Mg288 O297 2.114 . S
Mg288 O298 2.251 . S
Mg288 O301 2.010 . S
O289 Mg288 2.028 . S
O289 C292 1.250 1_455 S
O290 Mg291 2.028 . S
O290 C292 1.248 . S
Mg291 O290 2.028 . S
Mg291 O296 2.032 . S
Mg291 O298 2.079 1_655 S
C292 O289 1.250 1_655 S
C292 O290 1.248 . S
C293 O294 1.264 . S
C293 O301 1.249 . S
O294 C293 1.264 . S
O295 Mg288 1.986 . S
O295 C299 1.246 . S
O296 Mg291 2.032 . S
O296 C299 1.259 1_655 S
O297 Mg288 2.114 . S
O297 C300 1.252 . S
O298 Mg288 2.251 . S
O298 Mg291 2.079 1_455 S
O298 C300 1.273 . S
C299 O295 1.246 . S
C299 O296 1.259 1_455 S
C300 O297 1.252 . S
C300 O298 1.273 . S
O301 Mg288 2.010 . S
O301 C293 1.249 . S
Mg302 O303 2.028 . S
Mg302 O309 1.986 . S
Mg302 O311 2.114 . S
Mg302 O312 2.251 . S
Mg302 O315 2.010 . S
O303 Mg302 2.028 . S
O303 C306 1.250 . S
O304 Mg305 2.028 . S
O304 C306 1.248 . S
Mg305 O304 2.028 . S
Mg305 O310 2.032 . S
Mg305 O312 2.079 . S
C306 O303 1.250 . S
C306 O304 1.248 . S
C307 O308 1.264 . S
C307 O315 1.249 . S
O308 C307 1.264 . S
O309 Mg302 1.986 . S
O309 C313 1.246 . S
O310 Mg305 2.032 . S
O310 C313 1.259 . S
O311 Mg302 2.114 . S
O311 C314 1.252 . S
O312 Mg302 2.251 . S
O312 Mg305 2.079 . S
O312 C314 1.273 . S
C313 O309 1.246 . S
C313 O310 1.259 . S
C314 O311 1.252 . S
C314 O312 1.273 . S
O315 Mg302 2.010 . S
O315 C307 1.249 . S
Mg316 O317 2.028 1_655 S
Mg316 O323 1.986 1_655 S
Mg316 O325 2.114 . S
Mg316 O326 2.251 1_655 S
Mg316 O329 2.010 . S
O317 Mg316 2.028 1_455 S
O317 C320 1.250 . S
O318 Mg319 2.028 . S
O318 C320 1.248 . S
Mg319 O318 2.028 . S
Mg319 O324 2.032 . S
Mg319 O326 2.079 . S
C320 O317 1.250 . S
C320 O318 1.248 . S
C321 O322 1.264 . S
C321 O329 1.249 . S
O322 C321 1.264 . S
O323 Mg316 1.986 1_455 S
O323 C327 1.246 . S
O324 Mg319 2.032 . S
O324 C327 1.259 . S
O325 Mg316 2.114 . S
O325 C328 1.252 . S
O326 Mg316 2.251 1_455 S
O326 Mg319 2.079 . S
O326 C328 1.273 1_455 S
C327 O323 1.246 . S
C327 O324 1.259 . S
C328 O325 1.252 . S
C328 O326 1.273 1_655 S
O329 Mg316 2.010 . S
O329 C321 1.249 . S
Mg330 O331 2.028 . S
Mg330 O337 1.986 . S
Mg330 O339 2.114 . S
Mg330 O340 2.251 . S
Mg330 O343 2.010 . S
O331 Mg330 2.028 . S
O331 C334 1.250 . S
O332 Mg333 2.028 . S
O332 C334 1.248 . S
Mg333 O332 2.028 . S
Mg333 O338 2.032 . S
Mg333 O340 2.079 . S
C334 O331 1.250 . S
C334 O332 1.248 . S
C335 O336 1.264 . S
C335 O343 1.249 . S
O336 C335 1.264 . S
O337 Mg330 1.986 . S
O337 C341 1.246 . S
O338 Mg333 2.032 . S
O338 C341 1.259 . S
O339 Mg330 2.114 . S
O339 C342 1.252 . S
O340 Mg330 2.251 . S
O340 Mg333 2.079 . S
O340 C342 1.273 . S
C341 O337 1.246 . S
C341 O338 1.259 . S
C342 O339 1.252 . S
C342 O340 1.273 . S
O343 Mg330 2.010 . S
O343 C335 1.249 . S
C344 C345 1.369 . S
C344 C346 1.419 . S
C344 H348 0.930 . S
C345 C344 1.369 . S
C345 C354 1.429 . S
C346 C344 1.419 . S
C346 C347 1.363 . S
C346 H349 0.929 . S
C347 C346 1.363 . S
C347 C353 1.428 . S
H348 C344 0.930 . S
H349 C346 0.929 . S
S350 N351 1.613 . S
S350 N352 1.610 . S
N351 S350 1.613 . S
N351 C354 1.350 . S
N352 S350 1.610 . S
N352 C353 1.351 . S
C353 C347 1.428 . S
C353 N352 1.351 . S
C353 C354 1.434 . S
C354 C345 1.429 . S
C354 N351 1.350 . S
C354 C353 1.434 . S
C355 C356 1.369 . S
C355 C357 1.419 . S
C355 H359 0.930 . S
C356 C355 1.369 . S
C356 C365 1.429 . S
C357 C355 1.419 . S
C357 C358 1.363 . S
C357 H360 0.929 . S
C358 C357 1.363 . S
C358 C364 1.428 . S
H359 C355 0.930 . S
H360 C357 0.929 . S
S361 N362 1.613 . S
S361 N363 1.610 . S
N362 S361 1.613 . S
N362 C365 1.350 . S
N363 S361 1.610 . S
N363 C364 1.351 . S
C364 C358 1.428 . S
C364 N363 1.351 . S
C364 C365 1.434 . S
C365 C356 1.429 . S
C365 N362 1.350 . S
C365 C364 1.434 . S
C366 C367 1.369 . S
C366 C368 1.419 . S
C366 H370 0.930 . S
C367 C366 1.369 . S
C367 C376 1.429 . S
C368 C366 1.419 . S
C368 C369 1.363 . S
C368 H371 0.929 . S
C369 C368 1.363 . S
C369 C375 1.428 . S
H370 C366 0.930 . S
H371 C368 0.929 . S
S372 N373 1.613 . S
S372 N374 1.610 . S
N373 S372 1.613 . S
N373 C376 1.350 . S
N374 S372 1.610 . S
N374 C375 1.351 . S
C375 C369 1.428 . S
C375 N374 1.351 . S
C375 C376 1.434 . S
C376 C367 1.429 . S
C376 N373 1.350 . S
C376 C375 1.434 . S
C377 C378 1.394 1_565 S
C377 C379 1.405 1_455 S
C377 H381 0.920 1_455 S
C378 C377 1.394 1_545 S
C378 C387 1.429 . S
C379 C377 1.405 1_655 S
C379 C380 1.363 1_565 S
C379 H382 0.929 . S
C380 C379 1.363 1_545 S
C380 C386 1.428 1_655 S
H381 C377 0.920 1_655 S
H382 C379 0.929 . S
S383 N384 1.613 . S
S383 N385 1.610 . S
N384 S383 1.613 . S
N384 C387 1.350 . S
N385 S383 1.610 . S
N385 C386 1.351 . S
C386 C380 1.428 1_455 S
C386 N385 1.351 . S
C386 C387 1.434 . S
C387 C378 1.429 . S
C387 N384 1.350 . S
C387 C386 1.434 . S
C388 C389 1.369 . S
C388 C390 1.419 . S
C388 H392 0.930 . S
C389 C388 1.369 . S
C389 C398 1.429 . S
C390 C388 1.419 . S
C390 C391 1.363 . S
C390 H393 0.929 . S
C391 C390 1.363 . S
C391 C397 1.428 . S
H392 C388 0.930 . S
H393 C390 0.929 . S
S394 N395 1.613 . S
S394 N396 1.610 . S
N395 S394 1.613 . S
N395 C398 1.350 . S
N396 S394 1.610 . S
N396 C397 1.351 . S
C397 C391 1.428 . S
C397 N396 1.351 . S
C397 C398 1.434 . S
C398 C389 1.429 . S
C398 N395 1.350 . S
C398 C397 1.434 . S
C399 C400 1.369 . S
C399 C401 1.419 . S
C399 H403 0.930 . S
C400 C399 1.369 . S
C400 C409 1.429 . S
C401 C399 1.419 . S
C401 C402 1.363 . S
C401 H404 0.929 . S
C402 C401 1.363 . S
C402 C408 1.428 . S
H403 C399 0.930 . S
H404 C401 0.929 . S
S405 N406 1.613 . S
S405 N407 1.610 . S
N406 S405 1.613 . S
N406 C409 1.350 . S
N407 S405 1.610 . S
N407 C408 1.351 . S
C408 C402 1.428 . S
C408 N407 1.351 . S
C408 C409 1.434 . S
C409 C400 1.429 . S
C409 N406 1.350 . S
C409 C408 1.434 . S
C410 C411 1.369 . S
C410 C412 1.419 . S
C410 H414 0.930 . S
C411 C410 1.369 . S
C411 C420 1.429 . S
C412 C410 1.419 . S
C412 C413 1.363 . S
C412 H415 0.929 . S
C413 C412 1.363 . S
C413 C419 1.428 . S
H414 C410 0.930 . S
H415 C412 0.929 . S
S416 N417 1.613 . S
S416 N418 1.610 . S
N417 S416 1.613 . S
N417 C420 1.350 . S
N418 S416 1.610 . S
N418 C419 1.351 . S
C419 C413 1.428 . S
C419 N418 1.351 . S
C419 C420 1.434 . S
C420 C411 1.429 . S
C420 N417 1.350 . S
C420 C419 1.434 . S
C421 C422 1.369 1_545 S
C421 C423 1.419 . S
C421 H425 0.930 . S
C422 C421 1.369 1_565 S
C422 C431 1.429 . S
C423 C421 1.419 . S
C423 C424 1.363 1_545 S
C423 H426 0.929 . S
C424 C423 1.363 1_565 S
C424 C430 1.428 . S
H425 C421 0.930 . S
H426 C423 0.929 . S
S427 N428 1.613 . S
S427 N429 1.610 . S
N428 S427 1.613 . S
N428 C431 1.350 . S
N429 S427 1.610 . S
N429 C430 1.351 . S
C430 C424 1.428 . S
C430 N429 1.351 . S
C430 C431 1.434 . S
C431 C422 1.429 . S
C431 N428 1.350 . S
C431 C430 1.434 . S
C432 C433 1.369 . S
C432 C434 1.419 . S
C432 H436 0.930 . S
C433 C432 1.369 . S
C433 C442 1.429 . S
C434 C432 1.419 . S
C434 C435 1.363 . S
C434 H437 0.929 . S
C435 C434 1.363 . S
C435 C441 1.428 . S
H436 C432 0.930 . S
H437 C434 0.929 . S
S438 N439 1.613 . S
S438 N440 1.610 . S
N439 S438 1.613 . S
N439 C442 1.350 . S
N440 S438 1.610 . S
N440 C441 1.351 . S
C441 C435 1.428 . S
C441 N440 1.351 . S
C441 C442 1.434 . S
C442 C433 1.429 . S
C442 N439 1.350 . S
C442 C441 1.434 . S
C443 C444 1.369 . S
C443 C445 1.419 . S
C443 H447 0.930 . S
C444 C443 1.369 . S
C444 C453 1.429 . S
C445 C443 1.419 . S
C445 C446 1.363 . S
C445 H448 0.929 . S
C446 C445 1.363 . S
C446 C452 1.428 . S
H447 C443 0.930 . S
H448 C445 0.929 . S
S449 N450 1.613 . S
S449 N451 1.610 . S
N450 S449 1.613 . S
N450 C453 1.350 . S
N451 S449 1.610 . S
N451 C452 1.351 . S
C452 C446 1.428 . S
C452 N451 1.351 . S
C452 C453 1.434 . S
C453 C444 1.429 . S
C453 N450 1.350 . S
C453 C452 1.434 . S
C454 C455 1.369 . S
C454 C456 1.419 . S
C454 H458 0.930 . S
C455 C454 1.369 . S
C455 C464 1.429 . S
C456 C454 1.419 . S
C456 C457 1.363 . S
C456 H459 0.929 . S
C457 C456 1.363 . S
C457 C463 1.428 . S
H458 C454 0.930 . S
H459 C456 0.929 . S
S460 N461 1.613 . S
S460 N462 1.610 . S
N461 S460 1.613 . S
N461 C464 1.350 . S
N462 S460 1.610 . S
N462 C463 1.351 . S
C463 C457 1.428 . S
C463 N462 1.351 . S
C463 C464 1.434 . S
C464 C455 1.429 . S
C464 N461 1.350 . S
C464 C463 1.434 . S
C465 C466 1.369 . S
C465 C467 1.419 . S
C465 H469 0.930 . S
C466 C465 1.369 . S
C466 C475 1.429 . S
C467 C465 1.419 . S
C467 C468 1.363 . S
C467 H470 0.929 . S
C468 C467 1.363 . S
C468 C474 1.428 . S
H469 C465 0.930 . S
H470 C467 0.929 . S
S471 N472 1.613 . S
S471 N473 1.610 . S
N472 S471 1.613 . S
N472 C475 1.350 . S
N473 S471 1.610 . S
N473 C474 1.351 . S
C474 C468 1.428 . S
C474 N473 1.351 . S
C474 C475 1.434 . S
C475 C466 1.429 . S
C475 N472 1.350 . S
C475 C474 1.434 . S
C476 C477 1.369 . S
C476 C478 1.419 . S
C476 H480 0.930 . S
C477 C476 1.369 . S
C477 C486 1.429 . S
C478 C476 1.419 . S
C478 C479 1.363 . S
C478 H481 0.929 . S
C479 C478 1.363 . S
C479 C485 1.428 . S
H480 C476 0.930 . S
H481 C478 0.929 . S
S482 N483 1.613 . S
S482 N484 1.610 . S
N483 S482 1.613 . S
N483 C486 1.350 . S
N484 S482 1.610 . S
N484 C485 1.351 . S
C485 C479 1.428 . S
C485 N484 1.351 . S
C485 C486 1.434 . S
C486 C477 1.429 . S
C486 N483 1.350 . S
C486 C485 1.434 . S
C487 C488 1.369 . S
C487 C489 1.419 . S
C487 H491 0.930 . S
C488 C487 1.369 . S
C488 C497 1.429 . S
C489 C487 1.419 . S
C489 C490 1.363 . S
C489 H492 0.929 . S
C490 C489 1.363 . S
C490 C496 1.428 . S
H491 C487 0.930 . S
H492 C489 0.929 . S
S493 N494 1.613 . S
S493 N495 1.610 . S
N494 S493 1.613 . S
N494 C497 1.350 . S
N495 S493 1.610 . S
N495 C496 1.351 . S
C496 C490 1.428 . S
C496 N495 1.351 . S
C496 C497 1.434 . S
C497 C488 1.429 . S
C497 N494 1.350 . S
C497 C496 1.434 . S
C498 C499 1.369 . S
C498 C500 1.419 . S
C498 H502 0.930 . S
C499 C498 1.369 . S
C499 C508 1.429 . S
C500 C498 1.419 . S
C500 C501 1.363 . S
C500 H503 0.929 . S
C501 C500 1.363 . S
C501 C507 1.428 . S
H502 C498 0.930 . S
H503 C500 0.929 . S
S504 N505 1.613 . S
S504 N506 1.610 . S
N505 S504 1.613 . S
N505 C508 1.350 . S
N506 S504 1.610 . S
N506 C507 1.351 . S
C507 C501 1.428 . S
C507 N506 1.351 . S
C507 C508 1.434 . S
C508 C499 1.429 . S
C508 N505 1.350 . S
C508 C507 1.434 . S
C509 C510 1.369 . S
C509 C511 1.419 . S
C509 H513 0.930 . S
C510 C509 1.369 . S
C510 C519 1.429 . S
C511 C509 1.419 . S
C511 C512 1.363 . S
C511 H514 0.929 . S
C512 C511 1.363 . S
C512 C518 1.428 . S
H513 C509 0.930 . S
H514 C511 0.929 . S
S515 N516 1.613 1_455 S
S515 N517 1.610 . S
N516 S515 1.613 1_655 S
N516 C519 1.350 . S
N517 S515 1.610 . S
N517 C518 1.351 1_455 S
C518 C512 1.428 . S
C518 N517 1.351 1_655 S
C518 C519 1.434 . S
C519 C510 1.429 . S
C519 N516 1.350 . S
C519 C518 1.434 . S
C520 C521 1.369 . S
C520 C522 1.419 . S
C520 H524 0.930 . S
C521 C520 1.369 . S
C521 C530 1.429 . S
C522 C520 1.419 . S
C522 C523 1.363 . S
C522 H525 0.929 . S
C523 C522 1.363 . S
C523 C529 1.428 . S
H524 C520 0.930 . S
H525 C522 0.929 . S
S526 N527 1.613 . S
S526 N528 1.610 . S
N527 S526 1.613 . S
N527 C530 1.350 . S
N528 S526 1.610 . S
N528 C529 1.351 . S
C529 C523 1.428 . S
C529 N528 1.351 . S
C529 C530 1.434 . S
C530 C521 1.429 . S
C530 N527 1.350 . S
C530 C529 1.434 . S
C531 C532 1.369 . S
C531 C533 1.419 . S
C531 H535 0.930 . S
C532 C531 1.369 . S
C532 C541 1.429 . S
C533 C531 1.419 . S
C533 C534 1.363 . S
C533 H536 0.929 . S
C534 C533 1.363 . S
C534 C540 1.428 . S
H535 C531 0.930 . S
H536 C533 0.929 . S
S537 N538 1.613 . S
S537 N539 1.610 . S
N538 S537 1.613 . S
N538 C541 1.350 . S
N539 S537 1.610 . S
N539 C540 1.351 . S
C540 C534 1.428 . S
C540 N539 1.351 . S
C540 C541 1.434 . S
C541 C532 1.429 . S
C541 N538 1.350 . S
C541 C540 1.434 . S
C542 C543 1.383 . S
C542 C544 1.419 . S
C542 H546 0.930 . S
C543 C542 1.383 . S
C543 C552 1.400 1_556 S
C544 C542 1.419 . S
C544 C545 1.363 1_556 S
C544 H547 0.929 . S
C545 C544 1.363 1_554 S
C545 C551 1.428 . S
H546 C542 0.930 . S
H547 C544 0.929 . S
S548 N549 1.613 . S
S548 N550 1.610 . S
N549 S548 1.613 . S
N549 C552 1.350 . S
N550 S548 1.610 . S
N550 C551 1.351 . S
C551 C545 1.428 . S
C551 N550 1.351 . S
C551 C552 1.434 . S
C552 C543 1.400 1_554 S
C552 N549 1.350 . S
C552 C551 1.434 . S
C553 C554 1.369 . S
C553 C555 1.419 . S
C553 H557 0.930 . S
C554 C553 1.369 . S
C554 C563 1.429 . S
C555 C553 1.419 . S
C555 C556 1.363 . S
C555 H558 0.929 . S
C556 C555 1.363 . S
C556 C562 1.428 . S
H557 C553 0.930 . S
H558 C555 0.929 . S
S559 N560 1.613 . S
S559 N561 1.610 . S
N560 S559 1.613 . S
N560 C563 1.350 . S
N561 S559 1.610 . S
N561 C562 1.351 . S
C562 C556 1.428 . S
C562 N561 1.351 . S
C562 C563 1.434 . S
C563 C554 1.429 . S
C563 N560 1.350 . S
C563 C562 1.434 . S
C564 C565 1.369 . S
C564 C566 1.419 . S
C564 H568 0.930 . S
C565 C564 1.369 . S
C565 C574 1.429 . S
C566 C564 1.419 . S
C566 C567 1.363 . S
C566 H569 0.929 . S
C567 C566 1.363 . S
C567 C573 1.428 . S
H568 C564 0.930 . S
H569 C566 0.929 . S
S570 N571 1.613 . S
S570 N572 1.610 . S
N571 S570 1.613 . S
N571 C574 1.350 . S
N572 S570 1.610 . S
N572 C573 1.351 . S
C573 C567 1.428 . S
C573 N572 1.351 . S
C573 C574 1.434 . S
C574 C565 1.429 . S
C574 N571 1.350 . S
C574 C573 1.434 . S
C575 C576 1.369 . S
C575 C577 1.419 . S
C575 H579 0.930 . S
C576 C575 1.369 . S
C576 C585 1.429 . S
C577 C575 1.419 . S
C577 C578 1.363 . S
C577 H580 0.929 . S
C578 C577 1.363 . S
C578 C584 1.428 . S
H579 C575 0.930 . S
H580 C577 0.929 . S
S581 N582 1.613 . S
S581 N583 1.610 . S
N582 S581 1.613 . S
N582 C585 1.350 . S
N583 S581 1.610 . S
N583 C584 1.351 . S
C584 C578 1.428 . S
C584 N583 1.351 . S
C584 C585 1.434 . S
C585 C576 1.429 . S
C585 N582 1.350 . S
C585 C584 1.434 . S
C586 C587 1.369 . S
C586 C588 1.419 . S
C586 H590 0.930 . S
C587 C586 1.369 . S
C587 C596 1.429 . S
C588 C586 1.419 . S
C588 C589 1.363 . S
C588 H591 0.929 . S
C589 C588 1.363 . S
C589 C595 1.428 . S
H590 C586 0.930 . S
H591 C588 0.929 . S
S592 N593 1.613 . S
S592 N594 1.610 . S
N593 S592 1.613 . S
N593 C596 1.350 . S
N594 S592 1.610 . S
N594 C595 1.351 . S
C595 C589 1.428 . S
C595 N594 1.351 . S
C595 C596 1.434 . S
C596 C587 1.429 . S
C596 N593 1.350 . S
C596 C595 1.434 . S
C597 C598 1.369 . S
C597 C599 1.419 . S
C597 H601 0.930 . S
C598 C597 1.369 . S
C598 C607 1.429 . S
C599 C597 1.419 . S
C599 C600 1.363 . S
C599 H602 0.929 . S
C600 C599 1.363 . S
C600 C606 1.428 . S
H601 C597 0.930 . S
H602 C599 0.929 . S
S603 N604 1.613 . S
S603 N605 1.610 . S
N604 S603 1.613 . S
N604 C607 1.350 . S
N605 S603 1.610 . S
N605 C606 1.351 . S
C606 C600 1.428 . S
C606 N605 1.351 . S
C606 C607 1.434 . S
C607 C598 1.429 . S
C607 N604 1.350 . S
C607 C606 1.434 . S
C608 C609 1.369 . S
C608 C610 1.419 . S
C608 H612 0.930 . S
C609 C608 1.369 . S
C609 C618 1.429 . S
C610 C608 1.419 . S
C610 C611 1.363 . S
C610 H613 0.929 . S
C611 C610 1.363 . S
C611 C617 1.428 . S
H612 C608 0.930 . S
H613 C610 0.929 . S
S614 N615 1.613 . S
S614 N616 1.610 . S
N615 S614 1.613 . S
N615 C618 1.350 . S
N616 S614 1.610 . S
N616 C617 1.351 . S
C617 C611 1.428 . S
C617 N616 1.351 . S
C617 C618 1.434 . S
C618 C609 1.429 . S
C618 N615 1.350 . S
C618 C617 1.434 . S
C619 C620 1.369 . S
C619 C621 1.419 . S
C619 H623 0.930 . S
C620 C619 1.369 . S
C620 C629 1.429 1_545 S
C621 C619 1.419 . S
C621 C622 1.363 . S
C621 H624 0.929 . S
C622 C621 1.363 . S
C622 C628 1.428 1_545 S
H623 C619 0.930 . S
H624 C621 0.929 . S
S625 N626 1.613 . S
S625 N627 1.610 . S
N626 S625 1.613 . S
N626 C629 1.350 . S
N627 S625 1.610 . S
N627 C628 1.351 . S
C628 C622 1.428 1_565 S
C628 N627 1.351 . S
C628 C629 1.434 . S
C629 C620 1.429 1_565 S
C629 N626 1.350 . S
C629 C628 1.434 . S
C630 C631 1.369 . S
C630 C632 1.419 . S
C630 H634 0.930 . S
C631 C630 1.369 . S
C631 C640 1.429 . S
C632 C630 1.419 . S
C632 C633 1.363 . S
C632 H635 0.929 . S
C633 C632 1.363 . S
C633 C639 1.428 . S
H634 C630 0.930 . S
H635 C632 0.929 . S
S636 N637 1.613 . S
S636 N638 1.610 . S
N637 S636 1.613 . S
N637 C640 1.350 . S
N638 S636 1.610 . S
N638 C639 1.351 . S
C639 C633 1.428 . S
C639 N638 1.351 . S
C639 C640 1.434 . S
C640 C631 1.429 . S
C640 N637 1.350 . S
C640 C639 1.434 . S
C641 C642 1.369 . S
C641 C643 1.419 . S
C641 H645 0.930 . S
C642 C641 1.369 . S
C642 C651 1.429 . S
C643 C641 1.419 . S
C643 C644 1.363 . S
C643 H646 0.929 . S
C644 C643 1.363 . S
C644 C650 1.428 . S
H645 C641 0.930 . S
H646 C643 0.929 . S
S647 N648 1.613 . S
S647 N649 1.610 . S
N648 S647 1.613 . S
N648 C651 1.350 . S
N649 S647 1.610 . S
N649 C650 1.351 . S
C650 C644 1.428 . S
C650 N649 1.351 . S
C650 C651 1.434 . S
C651 C642 1.429 . S
C651 N648 1.350 . S
C651 C650 1.434 . S
C652 C653 1.369 . S
C652 C654 1.419 . S
C652 H656 0.930 . S
C653 C652 1.369 . S
C653 C662 1.429 . S
C654 C652 1.419 . S
C654 C655 1.363 . S
C654 H657 0.929 . S
C655 C654 1.363 . S
C655 C661 1.428 . S
H656 C652 0.930 . S
H657 C654 0.929 . S
S658 N659 1.613 . S
S658 N660 1.610 . S
N659 S658 1.613 . S
N659 C662 1.350 . S
N660 S658 1.610 . S
N660 C661 1.351 . S
C661 C655 1.428 . S
C661 N660 1.351 . S
C661 C662 1.434 . S
C662 C653 1.429 . S
C662 N659 1.350 . S
C662 C661 1.434 . S
C663 C664 1.369 1_655 S
C663 C665 1.419 . S
C663 H667 0.930 . S
C664 C663 1.369 1_455 S
C664 C673 1.429 . S
C665 C663 1.419 . S
C665 C666 1.363 . S
C665 H668 0.929 . S
C666 C665 1.363 . S
C666 C672 1.428 1_655 S
H667 C663 0.930 . S
H668 C665 0.929 . S
S669 N670 1.613 . S
S669 N671 1.610 . S
N670 S669 1.613 . S
N670 C673 1.350 . S
N671 S669 1.610 . S
N671 C672 1.351 . S
C672 C666 1.428 1_455 S
C672 N671 1.351 . S
C672 C673 1.434 . S
C673 C664 1.429 . S
C673 N670 1.350 . S
C673 C672 1.434 . S
C674 C675 1.369 . S
C674 C676 1.419 . S
C674 H678 0.930 . S
C675 C674 1.369 . S
C675 C684 1.429 . S
C676 C674 1.419 . S
C676 C677 1.363 . S
C676 H679 0.929 . S
C677 C676 1.363 . S
C677 C683 1.428 . S
H678 C674 0.930 . S
H679 C676 0.929 . S
S680 N681 1.613 . S
S680 N682 1.610 . S
N681 S680 1.613 . S
N681 C684 1.350 . S
N682 S680 1.610 . S
N682 C683 1.351 . S
C683 C677 1.428 . S
C683 N682 1.351 . S
C683 C684 1.434 . S
C684 C675 1.429 . S
C684 N681 1.350 . S
C684 C683 1.434 . S
C685 C686 1.369 . S
C685 C687 1.419 . S
C685 H689 0.930 . S
C686 C685 1.369 . S
C686 C695 1.429 . S
C687 C685 1.419 . S
C687 C688 1.363 . S
C687 H690 0.929 . S
C688 C687 1.363 . S
C688 C694 1.428 . S
H689 C685 0.930 . S
H690 C687 0.929 . S
S691 N692 1.613 . S
S691 N693 1.610 . S
N692 S691 1.613 . S
N692 C695 1.350 . S
N693 S691 1.610 . S
N693 C694 1.351 . S
C694 C688 1.428 . S
C694 N693 1.351 . S
C694 C695 1.434 . S
C695 C686 1.429 . S
C695 N692 1.350 . S
C695 C694 1.434 . S
C696 C697 1.369 . S
C696 C698 1.419 . S
C696 H700 0.930 . S
C697 C696 1.369 . S
C697 C706 1.429 . S
C698 C696 1.419 . S
C698 C699 1.363 . S
C698 H701 0.929 . S
C699 C698 1.363 . S
C699 C705 1.428 . S
H700 C696 0.930 . S
H701 C698 0.929 . S
S702 N703 1.613 . S
S702 N704 1.610 . S
N703 S702 1.613 . S
N703 C706 1.350 . S
N704 S702 1.610 . S
N704 C705 1.351 . S
C705 C699 1.428 . S
C705 N704 1.351 . S
C705 C706 1.434 . S
C706 C697 1.429 . S
C706 N703 1.350 . S
C706 C705 1.434 . S
C707 C708 1.369 1_655 S
C707 C709 1.419 . S
C707 H711 0.930 . S
C708 C707 1.369 1_455 S
C708 C717 1.429 . S
C709 C707 1.419 . S
C709 C710 1.363 1_655 S
C709 H712 0.929 . S
C710 C709 1.363 1_455 S
C710 C716 1.428 . S
H711 C707 0.930 . S
H712 C709 0.929 . S
S713 N714 1.613 1_556 S
S713 N715 1.610 . S
N714 S713 1.613 1_554 S
N714 C717 1.350 1_554 S
N715 S713 1.610 . S
N715 C716 1.351 . S
C716 C710 1.428 . S
C716 N715 1.351 . S
C716 C717 1.434 . S
C717 C708 1.429 . S
C717 N714 1.350 1_556 S
C717 C716 1.434 . S
C718 C719 1.369 . S
C718 C720 1.419 . S
C718 H722 0.930 . S
C719 C718 1.369 . S
C719 C728 1.429 . S
C720 C718 1.419 . S
C720 C721 1.363 . S
C720 H723 0.929 . S
C721 C720 1.363 . S
C721 C727 1.428 . S
H722 C718 0.930 . S
H723 C720 0.929 . S
S724 N725 1.613 . S
S724 N726 1.610 . S
N725 S724 1.613 . S
N725 C728 1.350 . S
N726 S724 1.610 . S
N726 C727 1.351 . S
C727 C721 1.428 . S
C727 N726 1.351 . S
C727 C728 1.434 . S
C728 C719 1.429 . S
C728 N725 1.350 . S
C728 C727 1.434 . S
C729 C730 1.369 . S
C729 C731 1.419 . S
C729 H733 0.930 1_556 S
C730 C729 1.369 . S
C730 C739 1.429 . S
C731 C729 1.419 . S
C731 C732 1.363 . S
C731 H734 0.929 . S
C732 C731 1.363 . S
C732 C738 1.428 . S
H733 C729 0.930 1_554 S
H734 C731 0.929 . S
S735 N736 1.613 . S
S735 N737 1.610 . S
N736 S735 1.613 . S
N736 C739 1.350 . S
N737 S735 1.610 . S
N737 C738 1.351 . S
C738 C732 1.428 . S
C738 N737 1.351 . S
C738 C739 1.434 . S
C739 C730 1.429 . S
C739 N736 1.350 . S
C739 C738 1.434 . S
C740 C741 1.369 . S
C740 C742 1.419 . S
C740 H744 0.930 . S
C741 C740 1.369 . S
C741 C750 1.429 . S
C742 C740 1.419 . S
C742 C743 1.363 . S
C742 H745 0.929 . S
C743 C742 1.363 . S
C743 C749 1.428 . S
H744 C740 0.930 . S
H745 C742 0.929 . S
S746 N747 1.613 . S
S746 N748 1.610 . S
N747 S746 1.613 . S
N747 C750 1.350 . S
N748 S746 1.610 . S
N748 C749 1.351 . S
C749 C743 1.428 . S
C749 N748 1.351 . S
C749 C750 1.434 . S
C750 C741 1.429 . S
C750 N747 1.350 . S
C750 C749 1.434 . S
C751 C752 1.369 . S
C751 C753 1.419 . S
C751 H755 0.930 . S
C752 C751 1.369 . S
C752 C761 1.429 . S
C753 C751 1.419 . S
C753 C754 1.363 . S
C753 H756 0.929 . S
C754 C753 1.363 . S
C754 C760 1.428 . S
H755 C751 0.930 . S
H756 C753 0.929 . S
S757 N758 1.613 . S
S757 N759 1.610 . S
N758 S757 1.613 . S
N758 C761 1.350 . S
N759 S757 1.610 . S
N759 C760 1.351 . S
C760 C754 1.428 . S
C760 N759 1.351 . S
C760 C761 1.434 . S
C761 C752 1.429 . S
C761 N758 1.350 . S
C761 C760 1.434 . S
C762 C763 1.369 . S
C762 C764 1.419 . S
C762 H766 0.930 . S
C763 C762 1.369 . S
C763 C772 1.429 . S
C764 C762 1.419 . S
C764 C765 1.363 . S
C764 H767 0.929 . S
C765 C764 1.363 . S
C765 C771 1.428 . S
H766 C762 0.930 . S
H767 C764 0.929 . S
S768 N769 1.613 . S
S768 N770 1.610 . S
N769 S768 1.613 . S
N769 C772 1.350 . S
N770 S768 1.610 . S
N770 C771 1.351 . S
C771 C765 1.428 . S
C771 N770 1.351 . S
C771 C772 1.434 . S
C772 C763 1.429 . S
C772 N769 1.350 . S
C772 C771 1.434 . S
C773 C774 1.369 . S
C773 C775 1.419 . S
C773 H777 0.930 . S
C774 C773 1.369 . S
C774 C783 1.429 . S
C775 C773 1.419 . S
C775 C776 1.363 . S
C775 H778 0.929 . S
C776 C775 1.363 . S
C776 C782 1.428 . S
H777 C773 0.930 . S
H778 C775 0.929 . S
S779 N780 1.613 . S
S779 N781 1.610 . S
N780 S779 1.613 . S
N780 C783 1.350 . S
N781 S779 1.610 . S
N781 C782 1.351 . S
C782 C776 1.428 . S
C782 N781 1.351 . S
C782 C783 1.434 . S
C783 C774 1.429 . S
C783 N780 1.350 . S
C783 C782 1.434 . S
C784 C785 1.369 . S
C784 C786 1.419 . S
C784 H788 0.930 . S
C785 C784 1.369 . S
C785 C794 1.429 . S
C786 C784 1.419 . S
C786 C787 1.363 . S
C786 H789 0.929 . S
C787 C786 1.363 . S
C787 C793 1.428 . S
H788 C784 0.930 . S
H789 C786 0.929 . S
S790 N791 1.613 . S
S790 N792 1.610 . S
N791 S790 1.613 . S
N791 C794 1.350 . S
N792 S790 1.610 . S
N792 C793 1.351 . S
C793 C787 1.428 . S
C793 N792 1.351 . S
C793 C794 1.434 . S
C794 C785 1.429 . S
C794 N791 1.350 . S
C794 C793 1.434 . S
C795 C796 1.369 . S
C795 C797 1.419 . S
C795 H799 0.930 . S
C796 C795 1.369 . S
C796 C805 1.429 . S
C797 C795 1.419 . S
C797 C798 1.363 . S
C797 H800 0.929 . S
C798 C797 1.363 . S
C798 C804 1.428 . S
H799 C795 0.930 . S
H800 C797 0.929 . S
S801 N802 1.613 . S
S801 N803 1.610 . S
N802 S801 1.613 . S
N802 C805 1.350 . S
N803 S801 1.610 . S
N803 C804 1.351 . S
C804 C798 1.428 . S
C804 N803 1.351 . S
C804 C805 1.434 . S
C805 C796 1.429 . S
C805 N802 1.350 . S
C805 C804 1.434 . S
C806 C807 1.369 . S
C806 C808 1.419 . S
C806 H810 0.930 . S
C807 C806 1.369 . S
C807 C816 1.429 . S
C808 C806 1.419 . S
C808 C809 1.363 . S
C808 H811 0.929 . S
C809 C808 1.363 . S
C809 C815 1.428 . S
H810 C806 0.930 . S
H811 C808 0.929 . S
S812 N813 1.613 . S
S812 N814 1.610 . S
N813 S812 1.613 . S
N813 C816 1.350 . S
N814 S812 1.610 . S
N814 C815 1.351 . S
C815 C809 1.428 . S
C815 N814 1.351 . S
C815 C816 1.434 . S
C816 C807 1.429 . S
C816 N813 1.350 . S
C816 C815 1.434 . S
C817 C818 1.369 . S
C817 C819 1.419 . S
C817 H821 0.930 . S
C818 C817 1.369 . S
C818 C827 1.429 . S
C819 C817 1.419 . S
C819 C820 1.363 . S
C819 H822 0.929 . S
C820 C819 1.363 . S
C820 C826 1.428 . S
H821 C817 0.930 . S
H822 C819 0.929 . S
S823 N824 1.613 . S
S823 N825 1.610 . S
N824 S823 1.613 . S
N824 C827 1.350 . S
N825 S823 1.610 . S
N825 C826 1.351 . S
C826 C820 1.428 . S
C826 N825 1.351 . S
C826 C827 1.434 . S
C827 C818 1.429 . S
C827 N824 1.350 . S
C827 C826 1.434 . S
C828 C829 1.369 . S
C828 C830 1.419 . S
C828 H832 0.930 . S
C829 C828 1.369 . S
C829 C838 1.429 1_556 S
C830 C828 1.419 . S
C830 C831 1.363 . S
C830 H833 0.929 . S
C831 C830 1.363 . S
C831 C837 1.428 1_556 S
H832 C828 0.930 . S
H833 C830 0.929 . S
S834 N835 1.613 . S
S834 N836 1.610 . S
N835 S834 1.613 . S
N835 C838 1.350 . S
N836 S834 1.610 . S
N836 C837 1.351 . S
C837 C831 1.428 1_554 S
C837 N836 1.351 . S
C837 C838 1.434 . S
C838 C829 1.429 1_554 S
C838 N835 1.350 . S
C838 C837 1.434 . S
C839 C840 1.369 . S
C839 C841 1.419 . S
C839 H843 0.930 . S
C840 C839 1.369 . S
C840 C849 1.429 . S
C841 C839 1.419 . S
C841 C842 1.363 . S
C841 H844 0.929 . S
C842 C841 1.363 . S
C842 C848 1.428 . S
H843 C839 0.930 . S
H844 C841 0.929 . S
S845 N846 1.613 . S
S845 N847 1.610 . S
N846 S845 1.613 . S
N846 C849 1.350 . S
N847 S845 1.610 . S
N847 C848 1.351 . S
C848 C842 1.428 . S
C848 N847 1.351 . S
C848 C849 1.434 . S
C849 C840 1.429 . S
C849 N846 1.350 . S
C849 C848 1.434 . S
C850 C851 1.369 . S
C850 C852 1.419 . S
C850 H854 0.930 . S
C851 C850 1.369 . S
C851 C860 1.429 . S
C852 C850 1.419 . S
C852 C853 1.363 . S
C852 H855 0.929 1_554 S
C853 C852 1.363 . S
C853 C859 1.428 . S
H854 C850 0.930 . S
H855 C852 0.929 1_556 S
S856 N857 1.613 . S
S856 N858 1.610 . S
N857 S856 1.613 . S
N857 C860 1.350 . S
N858 S856 1.610 . S
N858 C859 1.351 . S
C859 C853 1.428 . S
C859 N858 1.351 . S
C859 C860 1.434 . S
C860 C851 1.429 . S
C860 N857 1.350 . S
C860 C859 1.434 . S
C861 C862 1.369 . S
C861 C863 1.419 . S
C861 H865 0.930 . S
C862 C861 1.369 . S
C862 C871 1.429 . S
C863 C861 1.419 . S
C863 C864 1.363 . S
C863 H866 0.929 . S
C864 C863 1.363 . S
C864 C870 1.428 . S
H865 C861 0.930 . S
H866 C863 0.929 . S
S867 N868 1.613 . S
S867 N869 1.610 . S
N868 S867 1.613 . S
N868 C871 1.350 1_556 S
N869 S867 1.610 . S
N869 C870 1.351 1_556 S
C870 C864 1.428 . S
C870 N869 1.351 1_554 S
C870 C871 1.434 . S
C871 C862 1.429 . S
C871 N868 1.350 1_554 S
C871 C870 1.434 . S
C347 C187 1.519 . S
C345 C60 1.567 . S
C358 C195 1.154 . S
C356 C76 1.383 . S
C367 C81 1.626 . S
C369 C215 1.607 . S
C380 C229 1.542 . S
C378 C48 1.577 1_545 S
C391 C244 1.525 . S
C389 C115 1.519 . S
C402 C258 1.612 . S
C400 C136 1.614 . S
C411 C131 1.447 . S
C413 C272 1.443 . S
C424 C278 1.484 . S
C422 C104 1.514 . S
C433 C126 1.537 . S
C435 C292 1.510 . S
C446 C313 1.456 . S
C444 C103 1.468 . S
C455 C120 1.412 . S
C457 C293 1.203 . S
C468 C314 1.462 . S
C466 C142 1.467 . S
C477 C82 1.503 . S
C479 C321 1.228 . S
C488 C54 1.717 . S
C490 C327 1.696 . S
C499 C65 1.425 . S
C501 C320 1.386 . S
C510 C71 1.306 . S
C512 C328 1.310 . S
C521 C37 1.572 . S
C523 C222 1.538 . S
C532 C158 1.842 . S
C534 C223 1.644 . S
C545 C180 1.390 . S
C543 C169 1.449 1_565 S
C556 C201 1.326 . S
C554 C98 1.318 . S
C565 C49 1.668 . S
C567 C236 1.647 . S
C578 C286 1.478 . S
C576 C125 1.477 . S
C589 C237 1.207 . S
C587 C109 1.384 . S
C600 C265 1.439 . S
C598 C137 1.753 . S
C611 C271 1.522 . S
C609 C159 1.567 . S
C620 C175 1.387 . S
C622 C279 1.153 . S
C631 C92 1.627 . S
C633 C243 1.606 . S
C644 C257 1.536 . S
C642 C147 1.579 . S
C653 C38 1.521 . S
C655 C216 1.523 . S
C666 C230 1.613 . S
C664 C4 1.614 . S
C677 C188 1.443 . S
C675 C21 1.447 . S
C688 C194 1.482 . S
C686 C27 1.514 . S
C697 C16 1.539 . S
C699 C306 1.515 . S
C708 C26 1.468 1_556 S
C710 C299 1.456 . S
C719 C43 1.412 . S
C721 C307 1.193 . S
C730 C10 1.468 . S
C732 C300 1.463 . S
C743 C335 1.221 . S
C741 C93 1.505 . S
C754 C341 1.699 . S
C752 C153 1.718 . S
C765 C334 1.385 . S
C763 C164 1.429 . S
C774 C170 1.305 . S
C776 C342 1.310 . S
C785 C114 1.573 . S
C787 C250 1.535 . S
C798 C251 1.640 . S
C796 C59 1.842 . S
C809 C264 1.394 . S
C807 C70 1.437 . S
C820 C285 1.325 . S
C818 C87 1.312 . S
C829 C148 1.669 . S
C831 C208 1.648 . S
C842 C202 1.478 . S
C840 C15 1.477 . S
C851 C32 1.384 . S
C853 C209 1.210 . S
C864 C181 1.440 . S
C862 C5 1.753 1_565 S
