# Generated by pormake.
# Topology rtl, (3,6)-cn, num edge types: 1
# Building blocks:
#     Node 0, Type 0, BuildingBlock: BETDIP_clean_linker_0, # of connection points: 3
#     Node 1, Type 0, BuildingBlock: BETDIP_clean_linker_0, # of connection points: 3
#     Node 2, Type 0, BuildingBlock: BETDIP_clean_linker_0, # of connection points: 3
#     Node 3, Type 0, BuildingBlock: BETDIP_clean_linker_0, # of connection points: 3
#     Node 4, Type 1, BuildingBlock: KUMJIN_clean_sbu_1, # of connection points: 6
#     Node 5, Type 1, BuildingBlock: KUMJIN_clean_sbu_1, # of connection points: 6
#     Edge 6, Type (0, 1), BuildingBlock: XUDNAN_clean_linker_2, # of connection points: 2
#     Edge 7, Type (0, 1), BuildingBlock: XUDNAN_clean_linker_2, # of connection points: 2
#     Edge 8, Type (0, 1), BuildingBlock: XUDNAN_clean_linker_2, # of connection points: 2
#     Edge 9, Type (0, 1), BuildingBlock: XUDNAN_clean_linker_2, # of connection points: 2
#     Edge 10, Type (0, 1), BuildingBlock: XUDNAN_clean_linker_2, # of connection points: 2
#     Edge 11, Type (0, 1), BuildingBlock: XUDNAN_clean_linker_2, # of connection points: 2
#     Edge 12, Type (0, 1), BuildingBlock: XUDNAN_clean_linker_2, # of connection points: 2
#     Edge 13, Type (0, 1), BuildingBlock: XUDNAN_clean_linker_2, # of connection points: 2
#     Edge 14, Type (0, 1), BuildingBlock: XUDNAN_clean_linker_2, # of connection points: 2
#     Edge 15, Type (0, 1), BuildingBlock: XUDNAN_clean_linker_2, # of connection points: 2
#     Edge 16, Type (0, 1), BuildingBlock: XUDNAN_clean_linker_2, # of connection points: 2
#     Edge 17, Type (0, 1), BuildingBlock: XUDNAN_clean_linker_2, # of connection points: 2
# Relax obj value: 0.052
# Max RMSD: 0.220
# Mean RMSD: 0.160
data_MOF--net-rtl--node1-KUMJIN_clean_sbu_1--node2-BETDIP_clean_linker_0--edge1-XUDNAN_clean_linker_2
_symmetry_space_group_name_H-M    P1
_symmetry_Int_Tables_number       1
_symmetry_cell_setting            triclinic
loop_
_symmetry_equiv_pos_as_xyz
'x, y, z'
_cell_length_a     35.535836
_cell_length_b     35.6925
_cell_length_c     27.0136
_cell_angle_alpha  78.412131
_cell_angle_beta   100.16664
_cell_angle_gamma 91.172816
loop_
_atom_site_label
_atom_site_type_symbol
_atom_site_fract_x
_atom_site_fract_y
_atom_site_fract_z
_atom_type_partial_charge
H0 H 0.23274 0.82864 0.93637 0.0
H1 H 0.25102 0.8226 0.09947 0.0
H2 H 0.15999 0.89297 1.00098 0.0
H3 H 0.30689 0.79853 0.09921 0.0
C4 C 0.30441 0.78408 0.06711 0.0
C5 C 0.22552 0.83791 0.96943 0.0
C6 C 0.19463 0.86331 0.96307 0.0
C7 C 0.24673 0.82363 0.01809 0.0
C8 C 0.23609 0.83441 0.06125 0.0
C9 C 0.205 0.8597 0.05554 0.0
C10 C 0.18489 0.87462 0.00599 0.0
N11 N 0.27673 0.79665 0.02225 0.0
H12 H 0.70518 0.72471 0.74171 0.0
H13 H 0.71075 0.72409 0.585 0.0
H14 H 0.62499 0.65837 0.65755 0.0
H15 H 0.72264 0.79182 0.58977 0.0
C16 C 0.74601 0.78411 0.62203 0.0
C17 C 0.69388 0.71505 0.70654 0.0
C18 C 0.66351 0.68908 0.70521 0.0
C19 C 0.70982 0.72886 0.66258 0.0
C20 C 0.69639 0.71525 0.61746 0.0
C21 C 0.66598 0.68932 0.61488 0.0
C22 C 0.64944 0.67696 0.65904 0.0
N23 N 0.74038 0.75528 0.66482 0.0
H24 H 0.78431 0.20045 0.97954 0.0
H25 H 0.78861 0.19282 0.14188 0.0
H26 H 0.85905 0.11829 0.08941 0.0
H27 H 0.73061 0.22006 0.11663 0.0
C28 C 0.73171 0.23948 0.08045 0.0
C29 C 0.79582 0.18758 0.01908 0.0
C30 C 0.82308 0.15784 0.02997 0.0
C31 C 0.78249 0.20009 0.05901 0.0
C32 C 0.79759 0.18309 0.1103 0.0
C33 C 0.82548 0.15392 0.12129 0.0
C34 C 0.83803 0.14135 0.08102 0.0
N35 N 0.7547 0.23025 0.0463 0.0
H36 H 0.31741 0.29244 0.36822 0.0
H37 H 0.31734 0.28133 0.52907 0.0
H38 H 0.37893 0.37292 0.44972 0.0
H39 H 0.31756 0.21714 0.5199 0.0
C40 C 0.29159 0.22044 0.49115 0.0
C41 C 0.32674 0.3023 0.40377 0.0
C42 C 0.35149 0.33366 0.40472 0.0
C43 C 0.31472 0.28305 0.44883 0.0
C44 C 0.32657 0.29648 0.49459 0.0
C45 C 0.34896 0.32952 0.49596 0.0
C46 C 0.36206 0.34729 0.4506 0.0
N47 N 0.28964 0.25115 0.44784 0.0
Eu48 Eu 0.03807 0.97525 0.50457 0.0
C49 C 0.9636 0.1223 0.49225 0.0
N50 N 0.99397 0.10716 0.52839 0.0
C51 C 0.02888 0.16482 0.50787 0.0
C52 C 0.96572 0.15842 0.46013 0.0
C53 C 0.02506 0.12917 0.53927 0.0
C54 C 0.99946 0.17909 0.46724 0.0
C55 C 0.89625 0.11922 0.4562 0.0
C56 C 0.92922 0.10312 0.49028 0.0
C57 C 0.89891 0.15393 0.42178 0.0
C58 C 0.93361 0.17347 0.42368 0.0
Eu59 Eu 0.98578 0.04429 0.57471 0.0
N60 N 0.92772 0.06918 0.52313 0.0
C61 C 0.86147 0.10031 0.45858 0.0
C62 C 0.89369 0.05157 0.52771 0.0
C63 C 0.86007 0.06667 0.49512 0.0
H64 H 0.04706 0.11947 0.57224 0.0
H65 H 0.83323 0.0522 0.49785 0.0
H66 H 1.00399 0.88751 0.53509 0.0
H67 H 0.18812 0.01921 0.53084 0.0
H68 H 0.8929 0.02529 0.55557 0.0
H69 H 0.83546 0.11179 0.43309 0.0
H70 H 0.12085 0.02223 0.48752 0.0
H71 H 0.05426 0.18148 0.51552 0.0
H72 H 0.87407 0.16644 0.39458 0.0
H73 H 0.93492 0.20086 0.39809 0.0
H74 H 0.02492 0.82526 0.59139 0.0
H75 H 1.00229 0.20691 0.44335 0.0
H76 H 0.21155 0.96437 0.60082 0.0
N77 N 0.05654 0.91471 0.55568 0.0
C78 C 0.09324 0.91049 0.58089 0.0
C79 C 0.04432 0.84907 0.58915 0.0
C80 C 0.10646 0.87554 0.61348 0.0
C81 C 0.03246 0.88439 0.5576 0.0
C82 C 0.08131 0.84477 0.61785 0.0
N83 N 0.10475 0.97302 0.53775 0.0
C84 C 0.13004 0.99953 0.52018 0.0
C85 C 0.15654 0.93683 0.5967 0.0
C86 C 0.11785 0.94085 0.57256 0.0
C87 C 0.18163 0.96629 0.58312 0.0
C88 C 0.1685 0.99733 0.54374 0.0
H89 H 0.09039 0.81744 0.64244 0.0
H90 H 0.15488 0.84588 0.66579 0.0
H91 H 0.19882 0.89954 0.65106 0.0
O92 O 0.07066 0.95544 0.45313 0.0
O93 O 0.03344 0.95806 0.58883 0.0
O94 O 0.04032 0.01357 0.61942 0.0
O95 O 0.00913 0.95098 0.44019 0.0
O96 O 0.05635 0.03779 0.49559 0.0
O97 O 0.04935 0.05161 0.5732 0.0
O98 O 0.9636 0.02613 0.64633 0.0
O99 O 0.95883 0.0281 0.49974 0.0
O100 O 0.00893 0.02999 0.45772 0.0
O101 O 0.97293 0.0859 0.61854 0.0
O102 O 0.96131 0.98428 0.58283 0.0
O103 O 0.9785 0.95469 0.51944 0.0
C104 C 0.04598 0.97656 0.62567 0.0
C105 C 0.04009 0.95881 0.36761 0.0
C106 C 0.06604 0.95149 0.2919 0.0
C107 C 0.03875 0.9785 0.26151 0.0
C108 C 0.0135 0.98601 0.33664 0.0
C109 C 0.01293 0.99567 0.28385 0.0
C110 C 0.06654 0.94208 0.34523 0.0
C111 C 0.06687 0.0562 0.53332 0.0
C112 C 0.04051 0.94664 0.42308 0.0
C113 C 0.14435 0.87227 0.63991 0.0
C114 C 0.16932 0.9029 0.63165 0.0
C115 C 0.97269 0.03598 0.45717 0.0
C116 C 0.97735 0.06564 0.70749 0.0
C117 C 0.96418 0.07992 0.78718 0.0
C118 C 1.00365 0.08212 0.80469 0.0
C119 C 0.01674 0.06726 0.72559 0.0
C120 C 0.95124 0.07145 0.73857 0.0
C121 C 0.02977 0.07546 0.77415 0.0
C122 C 0.9579 0.95725 0.55524 0.0
C123 C 0.96266 0.06055 0.65516 0.0
H124 H 0.03662 0.98583 0.22023 0.0
H125 H 0.99297 0.99943 0.35306 0.0
H126 H 0.99199 0.01605 0.2599 0.0
H127 H 0.08746 0.92167 0.36964 0.0
H128 H 0.01422 0.08857 0.84214 0.0
H129 H 0.03724 0.06283 0.70192 0.0
H130 H 0.92078 0.07043 0.72436 0.0
H131 H 0.06014 0.07702 0.78797 0.0
Eu132 Eu 0.47176 0.49527 0.99407 0.0
C133 C 0.6301 0.54094 0.07633 0.0
N134 N 0.61158 0.50979 0.0977 0.0
C135 C 0.66663 0.47029 0.10359 0.0
C136 C 0.66692 0.53742 0.06486 0.0
C137 C 0.63054 0.47551 0.11526 0.0
C138 C 0.68452 0.50121 0.07706 0.0
C139 C 0.63379 0.61012 0.0535 0.0
C140 C 0.61382 0.57688 0.07058 0.0
C141 C 0.6693 0.60662 0.03874 0.0
C142 C 0.68578 0.57033 0.04424 0.0
Eu143 Eu 0.54907 0.52135 0.11136 0.0
N144 N 0.57916 0.57939 0.0843 0.0
C145 C 0.61799 0.6458 0.05343 0.0
C146 C 0.5647 0.61381 0.08755 0.0
C147 C 0.58368 0.64761 0.07154 0.0
H148 H 0.61794 0.45209 0.13847 0.0
H149 H 0.57172 0.67498 0.07278 0.0
H150 H 0.39151 0.5445 0.98562 0.0
H151 H 0.49571 0.33994 0.02936 0.0
H152 H 0.53799 0.615 0.10121 0.0
H153 H 0.63253 0.67202 0.04075 0.0
H154 H 0.50988 0.40724 0.99802 0.0
H155 H 0.68088 0.44261 0.11585 0.0
H156 H 0.68481 0.63181 0.02465 0.0
H157 H 0.71384 0.56812 0.03451 0.0
H158 H 0.32588 0.53229 1.00305 0.0
H159 H 0.71275 0.49726 0.06878 0.0
H160 H 0.43437 0.32285 0.05876 0.0
N161 N 0.40863 0.486 0.00795 0.0
C162 C 0.3981 0.44928 0.02312 0.0
C163 C 0.34597 0.50873 0.00914 0.0
C164 C 0.36103 0.44097 0.03366 0.0
C165 C 0.38316 0.51559 0.99961 0.0
C166 C 0.33493 0.47128 0.02666 0.0
N167 N 0.45987 0.42893 0.01655 0.0
C168 C 0.4843 0.40063 0.014 0.0
C169 C 0.41454 0.38164 0.04454 0.0
C170 C 0.42469 0.42002 0.0286 0.0
C171 C 0.44104 0.35268 0.0466 0.0
C172 C 0.47578 0.3622 0.0303 0.0
H173 H 0.30617 0.46607 0.03435 0.0
H174 H 0.3231 0.39596 0.05994 0.0
H175 H 0.36988 0.34402 0.06938 0.0
O176 O 0.45465 0.47112 0.92496 0.0
O177 O 0.45679 0.48723 0.07431 0.0
O178 O 0.51247 0.46916 0.13167 0.0
O179 O 0.44932 0.5328 0.92037 0.0
O180 O 0.53192 0.47044 0.00968 0.0
O181 O 0.55093 0.46058 0.09736 0.0
O182 O 0.5347 0.54262 0.17662 0.0
O183 O 0.53839 0.56031 0.03179 0.0
O184 O 0.5297 0.51729 0.97969 0.0
O185 O 0.59025 0.51705 0.1825 0.0
O186 O 0.49073 0.54903 0.09693 0.0
O187 O 0.46206 0.5548 0.01106 0.0
C188 C 0.47491 0.46883 0.11923 0.0
C189 C 0.43083 0.50987 0.84002 0.0
C190 C 0.41388 0.48402 0.76156 0.0
C191 C 0.41113 0.5215 0.73252 0.0
C192 C 0.42726 0.54702 0.80994 0.0
C193 C 0.41748 0.5527 0.75662 0.0
C194 C 0.42354 0.47829 0.81556 0.0
C195 C 0.55246 0.45194 0.05265 0.0
C196 C 0.44566 0.50454 0.89585 0.0
C197 C 0.35131 0.40288 0.05108 0.0
C198 C 0.37801 0.37332 0.05663 0.0
C199 C 0.54172 0.55051 0.98852 0.0
C200 C 0.57068 0.52161 0.26053 0.0
C201 C 0.58635 0.53904 0.34504 0.0
C202 C 0.58591 0.49976 0.36761 0.0
C203 C 0.56982 0.48297 0.28378 0.0
C204 C 0.57765 0.54942 0.29098 0.0
C205 C 0.57706 0.47221 0.33722 0.0
C206 C 0.4664 0.56559 0.056 0.0
C207 C 0.56809 0.534 0.2049 0.0
H208 H 0.40335 0.52668 0.69106 0.0
H209 H 0.43291 0.57177 0.82751 0.0
H210 H 0.41506 0.58146 0.73382 0.0
H211 H 0.42619 0.44941 0.83816 0.0
H212 H 0.59328 0.48979 0.40866 0.0
H213 H 0.56437 0.46123 0.26069 0.0
H214 H 0.57686 0.57915 0.2718 0.0
H215 H 0.57688 0.44226 0.35522 0.0
H216 H 0.22394 0.20412 0.42734 0.0
H217 H 0.2855 0.18105 0.58431 0.0
H218 H 0.2345 0.13834 0.61102 0.0
H219 H 0.1271 0.20111 0.45863 0.0
H220 H 0.10661 0.17668 0.40822 0.0
H221 H 0.14679 0.2076 0.40041 0.0
H222 H 0.1846 0.15182 0.3827 0.0
H223 H 0.14448 0.12085 0.39057 0.0
H224 H 0.19082 0.1073 0.42892 0.0
H225 H 0.17816 0.09884 0.6225 0.0
H226 H 0.11936 0.06106 0.61718 0.0
H227 H 0.09339 0.10436 0.45272 0.0
C228 C 0.22635 0.19027 0.4673 0.0
C229 C 0.25872 0.19609 0.50395 0.0
C230 C 0.26106 0.17706 0.55569 0.0
C231 C 0.23217 0.15276 0.57131 0.0
C232 C 0.20094 0.14722 0.53469 0.0
C233 C 0.19767 0.1651 0.48367 0.0
C234 C 0.16134 0.15238 0.45244 0.0
C235 C 0.13384 0.18649 0.4285 0.0
C236 C 0.1709 0.13187 0.41121 0.0
C237 C 0.14517 0.1247 0.49397 0.0
C238 C 0.16847 0.1227 0.54112 0.0
C239 C 0.15967 0.10004 0.5858 0.0
C240 C 0.12613 0.07878 0.58243 0.0
C241 C 0.1019 0.07967 0.53463 0.0
C242 C 0.11163 0.1029 0.4897 0.0
H243 H 0.31966 0.74625 0.99181 0.0
H244 H 0.34606 0.74636 0.15496 0.0
H245 H 0.38818 0.69 0.16823 0.0
H246 H 0.31994 0.64324 1.00195 0.0
H247 H 0.34323 0.64432 0.94758 0.0
H248 H 0.31394 0.68435 0.94994 0.0
H249 H 0.37075 0.72983 0.93773 0.0
H250 H 0.40014 0.68995 0.93515 0.0
H251 H 0.41566 0.71973 0.98124 0.0
H252 H 0.42572 0.63488 0.16547 0.0
H253 H 0.46184 0.58366 0.1476 0.0
H254 H 0.41555 0.61761 0.98447 0.0
C255 C 0.33423 0.73419 0.03026 0.0
C256 C 0.32951 0.75042 0.07264 0.0
C257 C 0.34932 0.73428 0.1222 0.0
C258 C 0.37319 0.70225 0.13009 0.0
C259 C 0.37728 0.68688 0.08787 0.0
C260 C 0.3588 0.70225 0.03882 0.0
C261 C 0.36981 0.68036 1.00036 0.0
C262 C 0.33462 0.66197 0.97337 0.0
C263 C 0.39031 0.70653 0.96131 0.0
C264 C 0.39707 0.65017 0.03583 0.0
C265 C 0.4005 0.65477 0.08602 0.0
C266 C 0.42352 0.63102 0.12634 0.0
C267 C 0.44409 0.60187 0.11542 0.0
C268 C 0.44206 0.59641 0.06431 0.0
C269 C 0.41783 0.62088 0.02387 0.0
H270 H 0.75753 0.85143 0.55884 0.0
H271 H 0.8162 0.76453 0.68277 0.0
H272 H 0.87702 0.79886 0.67725 0.0
H273 H 0.83169 0.86868 0.48418 0.0
H274 H 0.8237 0.9197 0.46624 0.0
H275 H 0.78473 0.88856 0.48001 0.0
H276 H 0.77227 0.92574 0.54877 0.0
H277 H 0.81102 0.95719 0.5349 0.0
H278 H 0.81084 0.9317 0.59961 0.0
H279 H 0.93174 0.84162 0.65637 0.0
H280 H 0.97559 0.8924 0.62608 0.0
H281 H 0.88141 0.95291 0.51767 0.0
C282 C 0.78322 0.83978 0.58492 0.0
C283 C 0.78226 0.80534 0.62118 0.0
C284 C 0.81628 0.79096 0.65488 0.0
C285 C 0.85096 0.81019 0.65186 0.0
C286 C 0.851 0.84396 0.61536 0.0
C287 C 0.81792 0.85894 0.58294 0.0
C288 C 0.82558 0.89622 0.54802 0.0
C289 C 0.81585 0.89307 0.49125 0.0
C290 C 0.80363 0.92969 0.55846 0.0
C291 C 0.86829 0.89949 0.5651 0.0
C292 C 0.88238 0.86897 0.60394 0.0
C293 C 0.92099 0.8656 0.62602 0.0
C294 C 0.94572 0.89437 0.60846 0.0
C295 C 0.93183 0.92595 0.56922 0.0
C296 C 0.89266 0.92861 0.54724 0.0
H297 H 0.68455 0.26289 0.13771 0.0
H298 H 0.7242 0.29515 0.99221 0.0
H299 H 0.68306 0.35319 0.97029 0.0
H300 H 0.58716 0.29451 0.0922 0.0
H301 H 0.5827 0.31202 0.14903 0.0
H302 H 0.61543 0.27318 0.15326 0.0
H303 H 0.67097 0.31152 0.19452 0.0
H304 H 0.63833 0.35048 0.19027 0.0
H305 H 0.68059 0.35892 0.16152 0.0
H306 H 0.63629 0.40643 0.9631 0.0
H307 H 0.58887 0.4529 0.97217 0.0
H308 H 0.58023 0.38719 0.12331 0.0
C309 C 0.68451 0.28222 0.10124 0.0
C310 C 0.70736 0.27448 0.06656 0.0
C311 C 0.70678 0.30041 0.01928 0.0
C312 C 0.68353 0.33347 0.00651 0.0
C313 C 0.66119 0.34017 0.04151 0.0
C314 C 0.6616 0.3154 0.088 0.0
C315 C 0.63507 0.32943 0.11888 0.0
C316 C 0.6032 0.30056 0.12892 0.0
C317 C 0.65759 0.3381 0.16929 0.0
C318 C 0.6193 0.36577 0.08224 0.0
C319 C 0.63477 0.37136 0.03784 0.0
C320 C 0.62414 0.40245 0.99778 0.0
C321 C 0.59704 0.42857 1.00323 0.0
C322 C 0.58101 0.42365 0.04852 0.0
C323 C 0.59233 0.39179 0.08852 0.0
H324 H 0.17912 0.92839 0.06945 0.0
H325 H 0.19833 0.80913 0.14434 0.0
H326 H 0.17016 0.82107 0.21694 0.0
H327 H 0.19681 0.96818 0.18734 0.0
H328 H 0.15954 0.00403 0.16285 0.0
H329 H 0.18501 0.98715 0.11931 0.0
H330 H 0.12079 0.96917 0.068 0.0
H331 H 0.09519 0.98586 0.11141 0.0
H332 H 0.08884 0.93764 0.10098 0.0
H333 H 0.13356 0.84412 0.27661 0.0
H334 H 0.09275 0.87691 0.31987 0.0
H335 H 0.09931 0.98191 0.20801 0.0
C336 C 0.1778 0.90487 0.10139 0.0
C337 C 0.19125 0.86788 0.10129 0.0
C338 C 0.18897 0.8379 0.1439 0.0
C339 C 0.1728 0.84433 0.18524 0.0
C340 C 0.15921 0.88095 0.18364 0.0
C341 C 0.16181 0.91081 0.14302 0.0
C342 C 0.14324 0.94695 0.14945 0.0
C343 C 0.17293 0.97844 0.15509 0.0
C344 C 0.11005 0.96069 0.10481 0.0
C345 C 0.12883 0.93243 0.19923 0.0
C346 C 0.13854 0.89438 0.21851 0.0
C347 C 0.12637 0.87413 0.26241 0.0
C348 C 0.10333 0.89318 0.28695 0.0
C349 C 0.09275 0.93223 0.26772 0.0
C350 C 0.1064 0.95204 0.22366 0.0
H351 H 0.6422 0.61556 0.74229 0.0
H352 H 0.64474 0.73049 0.77287 0.0
H353 H 0.61364 0.70753 0.84808 0.0
H354 H 0.55017 0.59074 0.77634 0.0
H355 H 0.5636 0.5418 0.8055 0.0
H356 H 0.58651 0.56704 0.75442 0.0
H357 H 0.65286 0.5523 0.81272 0.0
H358 H 0.63013 0.52688 0.86386 0.0
H359 H 0.66173 0.56571 0.8746 0.0
H360 H 0.57904 0.67283 0.91706 0.0
H361 H 0.54788 0.62793 0.97877 0.0
H362 H 0.57087 0.53472 0.90679 0.0
C363 C 0.63611 0.63594 0.76471 0.0
C364 C 0.6459 0.67492 0.75157 0.0
C365 C 0.63788 0.70049 0.7824 0.0
C366 C 0.61999 0.68775 0.825 0.0
C367 C 0.61044 0.64928 0.83655 0.0
C368 C 0.61847 0.62366 0.80757 0.0
C369 C 0.60548 0.58375 0.82853 0.0
C370 C 0.57461 0.57003 0.78883 0.0
C371 C 0.63959 0.5555 0.84597 0.0
C372 C 0.58894 0.59091 0.8739 0.0
C373 C 0.5918 0.62899 0.87751 0.0
C374 C 0.57733 0.64284 0.91514 0.0
C375 C 0.56005 0.61702 0.95046 0.0
C376 C 0.55816 0.57761 0.94892 0.0
C377 C 0.57233 0.5646 0.90949 0.0
H378 H 0.89963 0.15168 0.17106 0.0
H379 H 0.78556 0.11413 0.19106 0.0
H380 H 0.81143 0.07862 0.27879 0.0
H381 H 0.94893 0.06813 0.2351 0.0
H382 H 0.99001 0.08927 0.26816 0.0
H383 H 0.96411 0.11498 0.20786 0.0
H384 H 0.95088 0.17247 0.24656 0.0
H385 H 0.97872 0.14924 0.30694 0.0
H386 H 0.93038 0.16493 0.30419 0.0
H387 H 0.84997 0.04437 0.36115 0.0
H388 H 0.89768 0.01841 0.43764 0.0
H389 H 0.9869 0.0811 0.36708 0.0
C390 C 0.88021 0.13624 0.19432 0.0
C391 C 0.84071 0.13539 0.17481 0.0
C392 C 0.81589 0.11509 0.20584 0.0
C393 C 0.83034 0.09484 0.25544 0.0
C394 C 0.86954 0.09582 0.27346 0.0
C395 C 0.89405 0.11659 0.24435 0.0
C396 C 0.9349 0.11321 0.27324 0.0
C397 C 0.96109 0.09532 0.24441 0.0
C398 C 0.94958 0.15229 0.28332 0.0
C399 C 0.92969 0.08646 0.32263 0.0
C400 C 0.89172 0.07682 0.32179 0.0
C401 C 0.87968 0.05209 0.3625 0.0
C402 C 0.907 0.03759 0.40581 0.0
C403 C 0.94581 0.04826 0.40849 0.0
C404 C 0.95741 0.07248 0.36596 0.0
H405 H 0.40892 0.3762 0.52877 0.0
H406 H 0.30474 0.32346 0.57207 0.0
H407 H 0.31656 0.34916 0.65029 0.0
H408 H 0.46503 0.37076 0.65672 0.0
H409 H 0.48401 0.41808 0.64152 0.0
H410 H 0.47154 0.39059 0.592 0.0
H411 H 0.42673 0.44551 0.53698 0.0
H412 H 0.43937 0.47331 0.586 0.0
H413 H 0.38986 0.46361 0.56439 0.0
H414 H 0.33765 0.38215 0.7236 0.0
H415 H 0.36083 0.4288 0.77823 0.0
H416 H 0.44564 0.46746 0.68272 0.0
C417 C 0.38841 0.36979 0.55434 0.0
C418 C 0.35654 0.3461 0.54391 0.0
C419 C 0.33064 0.33937 0.57931 0.0
C420 C 0.33681 0.35432 0.62416 0.0
C421 C 0.36844 0.3771 0.63314 0.0
C422 C 0.39336 0.3856 0.5987 0.0
C423 C 0.42247 0.41464 0.61459 0.0
C424 C 0.46318 0.39748 0.62694 0.0
C425 C 0.41941 0.45144 0.57302 0.0
C426 C 0.4095 0.42147 0.66274 0.0
C427 C 0.37893 0.39869 0.6735 0.0
C428 C 0.36161 0.40016 0.71561 0.0
C429 C 0.37506 0.42653 0.74661 0.0
C430 C 0.40494 0.45162 0.73466 0.0
C431 C 0.4228 0.44847 0.69274 0.0
H432 H 0.63293 0.6194 0.60454 0.0
H433 H 0.66684 0.72583 0.51433 0.0
H434 H 0.64992 0.69942 0.43628 0.0
H435 H 0.66227 0.55528 0.53752 0.0
H436 H 0.62109 0.52506 0.53985 0.0
H437 H 0.63586 0.55198 0.5894 0.0
H438 H 0.56858 0.58367 0.57159 0.0
H439 H 0.55333 0.55643 0.52241 0.0
H440 H 0.54858 0.60783 0.50733 0.0
H441 H 0.63606 0.65855 0.36953 0.0
H442 H 0.61838 0.61034 0.31723 0.0
H443 H 0.58117 0.53576 0.4477 0.0
C444 C 0.63608 0.63783 0.56855 0.0
C445 C 0.65224 0.67467 0.56662 0.0
C446 C 0.65607 0.69702 0.51794 0.0
C447 C 0.64605 0.68246 0.47297 0.0
C448 C 0.63097 0.64592 0.4767 0.0
C449 C 0.625 0.62433 0.52301 0.0
C450 C 0.60726 0.5863 0.51623 0.0
C451 C 0.63318 0.55268 0.54761 0.0
C452 C 0.56705 0.5834 0.53021 0.0
C453 C 0.60548 0.58937 0.45911 0.0
C454 C 0.61958 0.62383 0.43716 0.0
C455 C 0.62379 0.63192 0.38591 0.0
C456 C 0.6131 0.60416 0.35621 0.0
C457 C 0.59725 0.56878 0.37718 0.0
C458 C 0.59326 0.56188 0.4296 0.0
H459 H 0.87281 0.18994 0.96803 0.0
H460 H 0.80251 0.09073 1.0015 0.0
H461 H 0.82779 0.06159 0.93788 0.0
H462 H 0.86732 0.19097 0.82961 0.0
H463 H 0.91645 0.20492 0.83065 0.0
H464 H 0.88946 0.21971 0.87417 0.0
H465 H 0.9412 0.18918 0.95124 0.0
H466 H 0.96823 0.17417 0.90806 0.0
H467 H 0.95415 0.13943 0.95955 0.0
H468 H 0.86283 0.04227 0.87377 0.0
H469 H 0.90786 0.03239 0.81709 0.0
H470 H 0.95806 0.1426 0.8292 0.0
C471 C 0.86222 0.16251 0.96084 0.0
C472 C 0.83534 0.14266 0.9885 0.0
C473 C 0.82272 0.10637 0.97974 0.0
C474 C 0.83689 0.08971 0.94382 0.0
C475 C 0.86381 0.10974 0.91742 0.0
C476 C 0.87644 0.1453 0.92556 0.0
C477 C 0.90761 0.15947 0.89506 0.0
C478 C 0.89441 0.19593 0.85499 0.0
C479 C 0.945 0.16592 0.93062 0.0
C480 C 0.91129 0.1259 0.86967 0.0
C481 C 0.88523 0.09786 0.88223 0.0
C482 C 0.8833 0.06405 0.86357 0.0
C483 C 0.9089 0.05867 0.83151 0.0
C484 C 0.93643 0.08661 0.81937 0.0
C485 C 0.93744 0.1207 0.83845 0.0
H486 H 0.42475 0.3425 0.38303 0.0
H487 H 0.30595 0.37183 0.31889 0.0
H488 H 0.32531 0.40977 0.24047 0.0
H489 H 0.46604 0.43164 0.33254 0.0
H490 H 0.50709 0.41052 0.31728 0.0
H491 H 0.48447 0.38572 0.36891 0.0
H492 H 0.4754 0.32648 0.32644 0.0
H493 H 0.49824 0.3511 0.27489 0.0
H494 H 0.45111 0.33195 0.26085 0.0
H495 H 0.35709 0.44805 0.17278 0.0
H496 H 0.39852 0.47908 0.11381 0.0
H497 H 0.49764 0.42055 0.21496 0.0
C498 C 0.40295 0.35685 0.35222 0.0
C499 C 0.36378 0.35441 0.35684 0.0
C500 C 0.33597 0.37328 0.31586 0.0
C501 C 0.34674 0.39498 0.27137 0.0
C502 C 0.38548 0.39705 0.26798 0.0
C503 C 0.41322 0.37806 0.30679 0.0
C504 C 0.45271 0.38425 0.29204 0.0
C505 C 0.47912 0.40423 0.32996 0.0
C506 C 0.4704 0.34618 0.28834 0.0
C507 C 0.44278 0.41033 0.23939 0.0
C508 C 0.4038 0.41742 0.22679 0.0
C509 C 0.38751 0.4419 0.18163 0.0
C510 C 0.41141 0.45911 0.1479 0.0
C511 C 0.45129 0.45114 0.15818 0.0
C512 C 0.46722 0.42673 0.20522 0.0
H513 H 0.17698 0.93571 0.9058 0.0
H514 H 0.15659 0.81535 0.9069 0.0
H515 H 0.11429 0.83206 0.82248 0.0
H516 H 0.08186 0.97154 0.84159 0.0
H517 H 0.09908 0.01346 0.80332 0.0
H518 H 0.12625 0.9926 0.86529 0.0
H519 H 0.18554 0.98679 0.82323 0.0
H520 H 0.15839 0.00762 0.76126 0.0
H521 H 0.18161 0.96164 0.77099 0.0
H522 H 0.07369 0.86087 0.7406 0.0
H523 H 0.0406 0.90015 0.6603 0.0
H524 H 0.09049 1.0025 0.70644 0.0
C525 C 0.16337 0.91307 0.8881 0.0
C526 C 0.16983 0.87426 0.91242 0.0
C527 C 0.15201 0.84518 0.88841 0.0
C528 C 0.12787 0.8544 0.84076 0.0
C529 C 0.12216 0.89283 0.81753 0.0
C530 C 0.13958 0.92179 0.83989 0.0
C531 C 0.12983 0.96061 0.80499 0.0
C532 C 0.10795 0.98604 0.83035 0.0
C533 C 0.166 0.98032 0.78918 0.0
C534 C 0.10421 0.94878 0.75973 0.0
C535 C 0.09995 0.90956 0.76835 0.0
C536 C 0.07717 0.89157 0.73309 0.0
C537 C 0.05867 0.91417 0.68731 0.0
C538 C 0.06373 0.95424 0.67633 0.0
C539 C 0.08634 0.97187 0.71352 0.0
loop_
_geom_bond_atom_site_label_1
_geom_bond_atom_site_label_2
_geom_bond_distance
_geom_bond_site_symmetry_2
_ccdc_geom_bond_type
H0 C5 0.930 . S
H1 C8 0.930 . S
H2 C10 0.930 . S
H3 C4 1.016 . S
C4 H3 1.016 . S
C4 N11 1.286 . S
C5 H0 0.930 . S
C5 C6 1.397 . S
C5 C7 1.361 1_556 S
C6 C5 1.397 . S
C6 C10 1.390 1_556 S
C7 C5 1.361 1_554 S
C7 C8 1.393 . S
C7 N11 1.413 . S
C8 H1 0.930 . S
C8 C7 1.393 . S
C8 C9 1.399 . S
C9 C8 1.399 . S
C9 C10 1.381 . S
C10 H2 0.930 . S
C10 C6 1.390 1_554 S
C10 C9 1.381 . S
N11 C4 1.286 . S
N11 C7 1.413 . S
H12 C17 0.930 . S
H13 C20 0.930 . S
H14 C22 0.930 . S
H15 C16 1.016 . S
C16 H15 1.016 . S
C16 N23 1.286 . S
C17 H12 0.930 . S
C17 C18 1.397 . S
C17 C19 1.361 . S
C18 C17 1.397 . S
C18 C22 1.390 . S
C19 C17 1.361 . S
C19 C20 1.393 . S
C19 N23 1.413 . S
C20 H13 0.930 . S
C20 C19 1.393 . S
C20 C21 1.399 . S
C21 C20 1.399 . S
C21 C22 1.381 . S
C22 H14 0.930 . S
C22 C18 1.390 . S
C22 C21 1.381 . S
N23 C16 1.286 . S
N23 C19 1.413 . S
H24 C29 0.930 1_556 S
H25 C32 0.930 . S
H26 C34 0.930 . S
H27 C28 1.016 . S
C28 H27 1.016 . S
C28 N35 1.286 . S
C29 H24 0.930 1_554 S
C29 C30 1.397 . S
C29 C31 1.361 . S
C30 C29 1.397 . S
C30 C34 1.390 . S
C31 C29 1.361 . S
C31 C32 1.393 . S
C31 N35 1.413 . S
C32 H25 0.930 . S
C32 C31 1.393 . S
C32 C33 1.399 . S
C33 C32 1.399 . S
C33 C34 1.381 . S
C34 H26 0.930 . S
C34 C30 1.390 . S
C34 C33 1.381 . S
N35 C28 1.286 . S
N35 C31 1.413 . S
H36 C41 0.930 . S
H37 C44 0.930 . S
H38 C46 0.930 . S
H39 C40 1.016 . S
C40 H39 1.016 . S
C40 N47 1.286 . S
C41 H36 0.930 . S
C41 C42 1.397 . S
C41 C43 1.361 . S
C42 C41 1.397 . S
C42 C46 1.390 . S
C43 C41 1.361 . S
C43 C44 1.393 . S
C43 N47 1.413 . S
C44 H37 0.930 . S
C44 C43 1.393 . S
C44 C45 1.399 . S
C45 C44 1.399 . S
C45 C46 1.381 . S
C46 H38 0.930 . S
C46 C42 1.390 . S
C46 C45 1.381 . S
N47 C40 1.286 . S
N47 C43 1.413 . S
Eu48 N77 2.600 . S
Eu48 N83 2.562 . S
Eu48 O92 2.462 . S
Eu48 O93 2.373 . S
Eu48 O95 2.432 . S
Eu48 O96 2.291 1_565 S
Eu48 O100 2.335 1_465 S
Eu48 O103 2.372 1_455 S
Eu48 C112 2.787 . S
C49 N50 1.365 . S
C49 C52 1.405 . S
C49 C56 1.448 . S
N50 C49 1.365 . S
N50 C53 1.319 1_655 S
N50 Eu59 2.600 . S
C51 C53 1.397 . S
C51 C54 1.367 1_455 S
C51 H71 0.931 . S
C52 C49 1.405 . S
C52 C54 1.403 . S
C52 C58 1.439 . S
C53 N50 1.319 1_455 S
C53 C51 1.397 . S
C53 H64 0.930 . S
C54 C51 1.367 1_655 S
C54 C52 1.403 . S
C54 H75 0.929 . S
C55 C56 1.430 . S
C55 C57 1.387 . S
C55 C61 1.404 . S
C56 C49 1.448 . S
C56 C55 1.430 . S
C56 N60 1.351 . S
C57 C55 1.387 . S
C57 C58 1.374 . S
C57 H72 0.931 . S
C58 C52 1.439 . S
C58 C57 1.374 . S
C58 H73 0.931 . S
Eu59 N50 2.600 . S
Eu59 N60 2.562 . S
Eu59 O94 2.335 1_655 S
Eu59 O97 2.372 1_655 S
Eu59 O98 2.462 . S
Eu59 O99 2.373 . S
Eu59 O101 2.432 . S
Eu59 O102 2.291 1_545 S
Eu59 C123 2.787 . S
N60 C56 1.351 . S
N60 Eu59 2.562 . S
N60 C62 1.325 . S
C61 C55 1.404 . S
C61 C63 1.366 . S
C61 H69 0.930 . S
C62 N60 1.325 . S
C62 C63 1.416 . S
C62 H68 0.929 . S
C63 C61 1.366 . S
C63 C62 1.416 . S
C63 H65 0.930 . S
H64 C53 0.930 . S
H65 C63 0.930 . S
H66 C81 0.930 1_655 S
H67 C88 0.930 . S
H68 C62 0.929 . S
H69 C61 0.930 . S
H70 C84 0.929 . S
H71 C51 0.931 . S
H72 C57 0.931 . S
H73 C58 0.931 . S
H74 C79 0.931 1_655 S
H75 C54 0.929 . S
H76 C87 0.930 . S
N77 Eu48 2.600 . S
N77 C78 1.365 . S
N77 C81 1.319 . S
C78 N77 1.365 . S
C78 C80 1.405 . S
C78 C86 1.448 . S
C79 H74 0.931 1_455 S
C79 C81 1.397 . S
C79 C82 1.367 . S
C80 C78 1.405 . S
C80 C82 1.403 . S
C80 C113 1.439 . S
C81 H66 0.930 1_455 S
C81 N77 1.319 . S
C81 C79 1.397 . S
C82 C79 1.367 . S
C82 C80 1.403 . S
C82 H89 0.929 . S
N83 Eu48 2.562 . S
N83 C84 1.325 . S
N83 C86 1.351 . S
C84 H70 0.929 . S
C84 N83 1.325 . S
C84 C88 1.416 . S
C85 C86 1.430 . S
C85 C87 1.404 . S
C85 C114 1.387 . S
C86 C78 1.448 . S
C86 N83 1.351 . S
C86 C85 1.430 . S
C87 H76 0.930 . S
C87 C85 1.404 . S
C87 C88 1.366 . S
C88 H67 0.930 . S
C88 C84 1.416 . S
C88 C87 1.366 . S
H89 C82 0.929 . S
H90 C113 0.931 . S
H91 C114 0.931 . S
O92 Eu48 2.462 . S
O92 C112 1.252 . S
O93 Eu48 2.373 . S
O93 C104 1.249 . S
O94 Eu59 2.335 1_455 S
O94 C104 1.264 1_545 S
O95 Eu48 2.432 . S
O95 C112 1.268 . S
O96 Eu48 2.291 1_545 S
O96 C111 1.255 . S
O97 Eu59 2.372 1_455 S
O97 C111 1.257 . S
O98 Eu59 2.462 . S
O98 C123 1.252 . S
O99 Eu59 2.373 . S
O99 C115 1.249 . S
O100 Eu48 2.335 1_645 S
O100 C115 1.264 . S
O101 Eu59 2.432 . S
O101 C123 1.268 . S
O102 Eu59 2.291 1_565 S
O102 C122 1.255 . S
O103 Eu48 2.372 1_655 S
O103 C122 1.257 . S
C104 O93 1.249 . S
C104 O94 1.264 1_565 S
C105 C108 1.382 . S
C105 C110 1.390 . S
C105 C112 1.506 . S
C106 C107 1.398 . S
C106 C110 1.392 . S
C107 C106 1.398 . S
C107 C109 1.372 . S
C107 H124 0.931 . S
C108 C105 1.382 . S
C108 C109 1.390 . S
C108 H125 0.931 . S
C109 C107 1.372 . S
C109 C108 1.390 . S
C109 H126 0.929 . S
C110 C105 1.390 . S
C110 C106 1.392 . S
C110 H127 0.930 . S
C111 O96 1.255 . S
C111 O97 1.257 . S
C112 Eu48 2.787 . S
C112 O92 1.252 . S
C112 O95 1.268 . S
C112 C105 1.506 . S
C113 C80 1.439 . S
C113 H90 0.931 . S
C113 C114 1.374 . S
C114 C85 1.387 . S
C114 H91 0.931 . S
C114 C113 1.374 . S
C115 O99 1.249 . S
C115 O100 1.264 . S
C116 C119 1.382 . S
C116 C120 1.390 . S
C116 C123 1.506 . S
C117 C118 1.398 . S
C117 C120 1.392 . S
C118 C117 1.398 . S
C118 C121 1.372 . S
C118 H128 0.931 . S
C119 C116 1.382 . S
C119 C121 1.390 . S
C119 H129 0.931 . S
C120 C116 1.390 . S
C120 C117 1.392 . S
C120 H130 0.930 . S
C121 C118 1.372 . S
C121 C119 1.390 . S
C121 H131 0.929 . S
C122 O102 1.255 . S
C122 O103 1.257 . S
C123 Eu59 2.787 . S
C123 O98 1.252 . S
C123 O101 1.268 . S
C123 C116 1.506 . S
H124 C107 0.931 . S
H125 C108 0.931 . S
H126 C109 0.929 . S
H127 C110 0.930 . S
H128 C118 0.931 . S
H129 C119 0.931 . S
H130 C120 0.930 . S
H131 C121 0.929 . S
Eu132 N161 2.599 1_556 S
Eu132 N167 2.561 1_556 S
Eu132 O176 2.466 . S
Eu132 O177 2.368 1_556 S
Eu132 O179 2.436 . S
Eu132 O180 2.290 1_556 S
Eu132 O184 2.337 . S
Eu132 O187 2.370 1_556 S
Eu132 C196 2.791 . S
C133 N134 1.365 . S
C133 C136 1.405 . S
C133 C140 1.448 . S
N134 C133 1.365 . S
N134 C137 1.319 . S
N134 Eu143 2.600 . S
C135 C137 1.397 . S
C135 C138 1.367 . S
C135 H155 0.931 . S
C136 C133 1.405 . S
C136 C138 1.403 . S
C136 C142 1.439 . S
C137 N134 1.319 . S
C137 C135 1.397 . S
C137 H148 0.930 . S
C138 C135 1.367 . S
C138 C136 1.403 . S
C138 H159 0.929 . S
C139 C140 1.430 . S
C139 C141 1.387 . S
C139 C145 1.404 . S
C140 C133 1.448 . S
C140 C139 1.430 . S
C140 N144 1.351 . S
C141 C139 1.387 . S
C141 C142 1.374 . S
C141 H156 0.931 . S
C142 C136 1.439 . S
C142 C141 1.374 . S
C142 H157 0.931 . S
Eu143 N134 2.600 . S
Eu143 N144 2.562 . S
Eu143 O178 2.335 . S
Eu143 O181 2.372 . S
Eu143 O182 2.462 . S
Eu143 O183 2.373 . S
Eu143 O185 2.432 . S
Eu143 O186 2.291 . S
Eu143 C207 2.787 . S
N144 C140 1.351 . S
N144 Eu143 2.562 . S
N144 C146 1.325 . S
C145 C139 1.404 . S
C145 C147 1.366 . S
C145 H153 0.930 . S
C146 N144 1.325 . S
C146 C147 1.416 . S
C146 H152 0.929 . S
C147 C145 1.366 . S
C147 C146 1.416 . S
C147 H149 0.930 . S
H148 C137 0.930 . S
H149 C147 0.930 . S
H150 C165 0.930 . S
H151 C172 0.930 . S
H152 C146 0.929 . S
H153 C145 0.930 . S
H154 C168 0.929 . S
H155 C135 0.931 . S
H156 C141 0.931 . S
H157 C142 0.931 . S
H158 C163 0.931 . S
H159 C138 0.929 . S
H160 C171 0.930 . S
N161 Eu132 2.599 1_554 S
N161 C162 1.365 . S
N161 C165 1.319 1_554 S
C162 N161 1.365 . S
C162 C164 1.405 . S
C162 C170 1.448 . S
C163 H158 0.931 . S
C163 C165 1.397 . S
C163 C166 1.367 1_556 S
C164 C162 1.405 . S
C164 C166 1.403 . S
C164 C197 1.439 . S
C165 H150 0.930 . S
C165 N161 1.319 1_556 S
C165 C163 1.397 . S
C166 C163 1.367 1_554 S
C166 C164 1.403 . S
C166 H173 0.929 . S
N167 Eu132 2.561 1_554 S
N167 C168 1.325 . S
N167 C170 1.351 . S
C168 H154 0.929 . S
C168 N167 1.325 . S
C168 C172 1.416 . S
C169 C170 1.430 . S
C169 C171 1.404 . S
C169 C198 1.387 . S
C170 C162 1.448 . S
C170 N167 1.351 . S
C170 C169 1.430 . S
C171 H160 0.930 . S
C171 C169 1.404 . S
C171 C172 1.366 . S
C172 H151 0.930 . S
C172 C168 1.416 . S
C172 C171 1.366 . S
H173 C166 0.929 . S
H174 C197 0.931 . S
H175 C198 0.931 . S
O176 Eu132 2.466 . S
O176 C196 1.252 . S
O177 Eu132 2.368 1_554 S
O177 C188 1.249 . S
O178 Eu143 2.335 . S
O178 C188 1.264 . S
O179 Eu132 2.436 . S
O179 C196 1.268 . S
O180 Eu132 2.290 1_554 S
O180 C195 1.255 . S
O181 Eu143 2.372 . S
O181 C195 1.257 . S
O182 Eu143 2.462 . S
O182 C207 1.252 . S
O183 Eu143 2.373 . S
O183 C199 1.249 1_554 S
O184 Eu132 2.337 . S
O184 C199 1.264 . S
O185 Eu143 2.432 . S
O185 C207 1.268 . S
O186 Eu143 2.291 . S
O186 C206 1.255 . S
O187 Eu132 2.370 1_554 S
O187 C206 1.257 . S
C188 O177 1.249 . S
C188 O178 1.264 . S
C189 C192 1.382 . S
C189 C194 1.390 . S
C189 C196 1.506 . S
C190 C191 1.398 . S
C190 C194 1.392 . S
C191 C190 1.398 . S
C191 C193 1.372 . S
C191 H208 0.931 . S
C192 C189 1.382 . S
C192 C193 1.390 . S
C192 H209 0.931 . S
C193 C191 1.372 . S
C193 C192 1.390 . S
C193 H210 0.929 . S
C194 C189 1.390 . S
C194 C190 1.392 . S
C194 H211 0.930 . S
C195 O180 1.255 . S
C195 O181 1.257 . S
C196 Eu132 2.791 . S
C196 O176 1.252 . S
C196 O179 1.268 . S
C196 C189 1.506 . S
C197 C164 1.439 . S
C197 H174 0.931 . S
C197 C198 1.374 . S
C198 C169 1.387 . S
C198 H175 0.931 . S
C198 C197 1.374 . S
C199 O183 1.249 1_556 S
C199 O184 1.264 . S
C200 C203 1.382 . S
C200 C204 1.390 . S
C200 C207 1.506 . S
C201 C202 1.398 . S
C201 C204 1.392 . S
C202 C201 1.398 . S
C202 C205 1.372 . S
C202 H212 0.931 . S
C203 C200 1.382 . S
C203 C205 1.390 . S
C203 H213 0.931 . S
C204 C200 1.390 . S
C204 C201 1.392 . S
C204 H214 0.930 . S
C205 C202 1.372 . S
C205 C203 1.390 . S
C205 H215 0.929 . S
C206 O186 1.255 . S
C206 O187 1.257 . S
C207 Eu143 2.787 . S
C207 O182 1.252 . S
C207 O185 1.268 . S
C207 C200 1.506 . S
H208 C191 0.931 . S
H209 C192 0.931 . S
H210 C193 0.929 . S
H211 C194 0.930 . S
H212 C202 0.931 . S
H213 C203 0.931 . S
H214 C204 0.930 . S
H215 C205 0.929 . S
H216 C228 0.930 . S
H217 C230 0.930 . S
H218 C231 0.930 . S
H219 C235 0.959 . S
H220 C235 0.959 . S
H221 C235 0.961 . S
H222 C236 0.960 . S
H223 C236 0.961 . S
H224 C236 0.959 . S
H225 C239 0.929 . S
H226 C240 0.931 . S
H227 C242 0.930 . S
C228 H216 0.930 . S
C228 C229 1.399 . S
C228 C233 1.399 . S
C229 C228 1.399 . S
C229 C230 1.376 . S
C230 H217 0.930 . S
C230 C229 1.376 . S
C230 C231 1.388 . S
C231 H218 0.930 . S
C231 C230 1.388 . S
C231 C232 1.390 . S
C232 C231 1.390 . S
C232 C233 1.394 . S
C232 C238 1.465 . S
C233 C228 1.399 . S
C233 C232 1.394 . S
C233 C234 1.516 . S
C234 C233 1.516 . S
C234 C235 1.502 . S
C234 C236 1.561 . S
C234 C237 1.526 . S
C235 H219 0.959 . S
C235 H220 0.959 . S
C235 H221 0.961 . S
C235 C234 1.502 . S
C236 H222 0.960 . S
C236 H223 0.961 . S
C236 H224 0.959 . S
C236 C234 1.561 . S
C237 C234 1.526 . S
C237 C238 1.396 . S
C237 C242 1.390 . S
C238 C232 1.465 . S
C238 C237 1.396 . S
C238 C239 1.399 . S
C239 H225 0.929 . S
C239 C238 1.399 . S
C239 C240 1.385 . S
C240 H226 0.931 . S
C240 C239 1.385 . S
C240 C241 1.389 . S
C241 C240 1.389 . S
C241 C242 1.387 . S
C242 H227 0.930 . S
C242 C237 1.390 . S
C242 C241 1.387 . S
H243 C255 0.930 1_556 S
H244 C257 0.930 . S
H245 C258 0.930 . S
H246 C262 0.959 . S
H247 C262 0.959 . S
H248 C262 0.961 . S
H249 C263 0.960 . S
H250 C263 0.961 . S
H251 C263 0.959 . S
H252 C266 0.929 . S
H253 C267 0.931 . S
H254 C269 0.930 1_556 S
C255 H243 0.930 1_554 S
C255 C256 1.399 . S
C255 C260 1.399 . S
C256 C255 1.399 . S
C256 C257 1.376 . S
C257 H244 0.930 . S
C257 C256 1.376 . S
C257 C258 1.388 . S
C258 H245 0.930 . S
C258 C257 1.388 . S
C258 C259 1.390 . S
C259 C258 1.390 . S
C259 C260 1.394 . S
C259 C265 1.465 . S
C260 C255 1.399 . S
C260 C259 1.394 . S
C260 C261 1.516 1_554 S
C261 C260 1.516 1_556 S
C261 C262 1.502 . S
C261 C263 1.561 . S
C261 C264 1.526 1_556 S
C262 H246 0.959 . S
C262 H247 0.959 . S
C262 H248 0.961 . S
C262 C261 1.502 . S
C263 H249 0.960 . S
C263 H250 0.961 . S
C263 H251 0.959 . S
C263 C261 1.561 . S
C264 C261 1.526 1_554 S
C264 C265 1.396 . S
C264 C269 1.390 . S
C265 C259 1.465 . S
C265 C264 1.396 . S
C265 C266 1.399 . S
C266 H252 0.929 . S
C266 C265 1.399 . S
C266 C267 1.385 . S
C267 H253 0.931 . S
C267 C266 1.385 . S
C267 C268 1.389 . S
C268 C267 1.389 . S
C268 C269 1.387 . S
C269 H254 0.930 1_554 S
C269 C264 1.390 . S
C269 C268 1.387 . S
H270 C282 0.930 . S
H271 C284 0.930 . S
H272 C285 0.930 . S
H273 C289 0.959 . S
H274 C289 0.959 . S
H275 C289 0.961 . S
H276 C290 0.960 . S
H277 C290 0.961 . S
H278 C290 0.959 . S
H279 C293 0.929 . S
H280 C294 0.931 . S
H281 C296 0.930 . S
C282 H270 0.930 . S
C282 C283 1.399 . S
C282 C287 1.399 . S
C283 C282 1.399 . S
C283 C284 1.376 . S
C284 H271 0.930 . S
C284 C283 1.376 . S
C284 C285 1.388 . S
C285 H272 0.930 . S
C285 C284 1.388 . S
C285 C286 1.390 . S
C286 C285 1.390 . S
C286 C287 1.394 . S
C286 C292 1.465 . S
C287 C282 1.399 . S
C287 C286 1.394 . S
C287 C288 1.516 . S
C288 C287 1.516 . S
C288 C289 1.502 . S
C288 C290 1.561 . S
C288 C291 1.526 . S
C289 H273 0.959 . S
C289 H274 0.959 . S
C289 H275 0.961 . S
C289 C288 1.502 . S
C290 H276 0.960 . S
C290 H277 0.961 . S
C290 H278 0.959 . S
C290 C288 1.561 . S
C291 C288 1.526 . S
C291 C292 1.396 . S
C291 C296 1.390 . S
C292 C286 1.465 . S
C292 C291 1.396 . S
C292 C293 1.399 . S
C293 H279 0.929 . S
C293 C292 1.399 . S
C293 C294 1.385 . S
C294 H280 0.931 . S
C294 C293 1.385 . S
C294 C295 1.389 . S
C295 C294 1.389 . S
C295 C296 1.387 . S
C296 H281 0.930 . S
C296 C291 1.390 . S
C296 C295 1.387 . S
H297 C309 0.930 . S
H298 C311 0.930 . S
H299 C312 0.930 1_556 S
H300 C316 0.959 . S
H301 C316 0.959 . S
H302 C316 0.961 . S
H303 C317 0.960 . S
H304 C317 0.961 . S
H305 C317 0.959 . S
H306 C320 0.929 1_556 S
H307 C321 0.931 1_556 S
H308 C323 0.930 . S
C309 H297 0.930 . S
C309 C310 1.399 . S
C309 C314 1.399 . S
C310 C309 1.399 . S
C310 C311 1.376 . S
C311 H298 0.930 . S
C311 C310 1.376 . S
C311 C312 1.388 . S
C312 H299 0.930 1_554 S
C312 C311 1.388 . S
C312 C313 1.390 . S
C313 C312 1.390 . S
C313 C314 1.394 . S
C313 C319 1.465 . S
C314 C309 1.399 . S
C314 C313 1.394 . S
C314 C315 1.516 . S
C315 C314 1.516 . S
C315 C316 1.502 . S
C315 C317 1.561 . S
C315 C318 1.526 . S
C316 H300 0.959 . S
C316 H301 0.959 . S
C316 H302 0.961 . S
C316 C315 1.502 . S
C317 H303 0.960 . S
C317 H304 0.961 . S
C317 H305 0.959 . S
C317 C315 1.561 . S
C318 C315 1.526 . S
C318 C319 1.396 . S
C318 C323 1.390 . S
C319 C313 1.465 . S
C319 C318 1.396 . S
C319 C320 1.399 . S
C320 H306 0.929 1_554 S
C320 C319 1.399 . S
C320 C321 1.385 . S
C321 H307 0.931 1_554 S
C321 C320 1.385 . S
C321 C322 1.389 . S
C322 C321 1.389 . S
C322 C323 1.387 . S
C323 H308 0.930 . S
C323 C318 1.390 . S
C323 C322 1.387 . S
H324 C336 0.930 . S
H325 C338 0.930 . S
H326 C339 0.930 . S
H327 C343 0.959 . S
H328 C343 0.950 1_545 S
H329 C343 0.961 . S
H330 C344 0.960 . S
H331 C344 0.961 1_545 S
H332 C344 0.959 . S
H333 C347 0.929 . S
H334 C348 0.931 . S
H335 C350 0.930 . S
C336 H324 0.930 . S
C336 C337 1.399 . S
C336 C341 1.399 . S
C337 C336 1.399 . S
C337 C338 1.376 . S
C338 H325 0.930 . S
C338 C337 1.376 . S
C338 C339 1.388 . S
C339 H326 0.930 . S
C339 C338 1.388 . S
C339 C340 1.390 . S
C340 C339 1.390 . S
C340 C341 1.394 . S
C340 C346 1.465 . S
C341 C336 1.399 . S
C341 C340 1.394 . S
C341 C342 1.516 . S
C342 C341 1.516 . S
C342 C343 1.502 . S
C342 C344 1.561 . S
C342 C345 1.526 . S
C343 H327 0.959 . S
C343 H328 0.950 1_565 S
C343 H329 0.961 . S
C343 C342 1.502 . S
C344 H330 0.960 . S
C344 H331 0.961 1_565 S
C344 H332 0.959 . S
C344 C342 1.561 . S
C345 C342 1.526 . S
C345 C346 1.396 . S
C345 C350 1.390 . S
C346 C340 1.465 . S
C346 C345 1.396 . S
C346 C347 1.399 . S
C347 H333 0.929 . S
C347 C346 1.399 . S
C347 C348 1.385 . S
C348 H334 0.931 . S
C348 C347 1.385 . S
C348 C349 1.389 . S
C349 C348 1.389 . S
C349 C350 1.387 . S
C350 H335 0.930 . S
C350 C345 1.390 . S
C350 C349 1.387 . S
H351 C363 0.930 . S
H352 C365 0.930 . S
H353 C366 0.930 . S
H354 C370 0.959 . S
H355 C370 0.959 . S
H356 C370 0.961 . S
H357 C371 0.960 . S
H358 C371 0.961 . S
H359 C371 0.959 . S
H360 C374 0.929 . S
H361 C375 0.931 . S
H362 C377 0.930 . S
C363 H351 0.930 . S
C363 C364 1.399 . S
C363 C368 1.399 . S
C364 C363 1.399 . S
C364 C365 1.376 . S
C365 H352 0.930 . S
C365 C364 1.376 . S
C365 C366 1.388 . S
C366 H353 0.930 . S
C366 C365 1.388 . S
C366 C367 1.390 . S
C367 C366 1.390 . S
C367 C368 1.394 . S
C367 C373 1.465 . S
C368 C363 1.399 . S
C368 C367 1.394 . S
C368 C369 1.516 . S
C369 C368 1.516 . S
C369 C370 1.502 . S
C369 C371 1.561 . S
C369 C372 1.526 . S
C370 H354 0.959 . S
C370 H355 0.959 . S
C370 H356 0.961 . S
C370 C369 1.502 . S
C371 H357 0.960 . S
C371 H358 0.961 . S
C371 H359 0.959 . S
C371 C369 1.561 . S
C372 C369 1.526 . S
C372 C373 1.396 . S
C372 C377 1.390 . S
C373 C367 1.465 . S
C373 C372 1.396 . S
C373 C374 1.399 . S
C374 H360 0.929 . S
C374 C373 1.399 . S
C374 C375 1.385 . S
C375 H361 0.931 . S
C375 C374 1.385 . S
C375 C376 1.389 . S
C376 C375 1.389 . S
C376 C377 1.387 . S
C377 H362 0.930 . S
C377 C372 1.390 . S
C377 C376 1.387 . S
H378 C390 0.930 . S
H379 C392 0.930 . S
H380 C393 0.930 . S
H381 C397 0.959 . S
H382 C397 0.959 . S
H383 C397 0.961 . S
H384 C398 0.960 . S
H385 C398 0.961 . S
H386 C398 0.959 . S
H387 C401 0.929 . S
H388 C402 0.931 . S
H389 C404 0.930 . S
C390 H378 0.930 . S
C390 C391 1.399 . S
C390 C395 1.399 . S
C391 C390 1.399 . S
C391 C392 1.376 . S
C392 H379 0.930 . S
C392 C391 1.376 . S
C392 C393 1.388 . S
C393 H380 0.930 . S
C393 C392 1.388 . S
C393 C394 1.390 . S
C394 C393 1.390 . S
C394 C395 1.394 . S
C394 C400 1.465 . S
C395 C390 1.399 . S
C395 C394 1.394 . S
C395 C396 1.516 . S
C396 C395 1.516 . S
C396 C397 1.502 . S
C396 C398 1.561 . S
C396 C399 1.526 . S
C397 H381 0.959 . S
C397 H382 0.959 . S
C397 H383 0.961 . S
C397 C396 1.502 . S
C398 H384 0.960 . S
C398 H385 0.961 . S
C398 H386 0.959 . S
C398 C396 1.561 . S
C399 C396 1.526 . S
C399 C400 1.396 . S
C399 C404 1.390 . S
C400 C394 1.465 . S
C400 C399 1.396 . S
C400 C401 1.399 . S
C401 H387 0.929 . S
C401 C400 1.399 . S
C401 C402 1.385 . S
C402 H388 0.931 . S
C402 C401 1.385 . S
C402 C403 1.389 . S
C403 C402 1.389 . S
C403 C404 1.387 . S
C404 H389 0.930 . S
C404 C399 1.390 . S
C404 C403 1.387 . S
H405 C417 0.930 . S
H406 C419 0.930 . S
H407 C420 0.930 . S
H408 C424 0.959 . S
H409 C424 0.959 . S
H410 C424 0.961 . S
H411 C425 0.960 . S
H412 C425 0.961 . S
H413 C425 0.959 . S
H414 C428 0.929 . S
H415 C429 0.931 . S
H416 C431 0.930 . S
C417 H405 0.930 . S
C417 C418 1.399 . S
C417 C422 1.399 . S
C418 C417 1.399 . S
C418 C419 1.376 . S
C419 H406 0.930 . S
C419 C418 1.376 . S
C419 C420 1.388 . S
C420 H407 0.930 . S
C420 C419 1.388 . S
C420 C421 1.390 . S
C421 C420 1.390 . S
C421 C422 1.394 . S
C421 C427 1.465 . S
C422 C417 1.399 . S
C422 C421 1.394 . S
C422 C423 1.516 . S
C423 C422 1.516 . S
C423 C424 1.502 . S
C423 C425 1.561 . S
C423 C426 1.526 . S
C424 H408 0.959 . S
C424 H409 0.959 . S
C424 H410 0.961 . S
C424 C423 1.502 . S
C425 H411 0.960 . S
C425 H412 0.961 . S
C425 H413 0.959 . S
C425 C423 1.561 . S
C426 C423 1.526 . S
C426 C427 1.396 . S
C426 C431 1.390 . S
C427 C421 1.465 . S
C427 C426 1.396 . S
C427 C428 1.399 . S
C428 H414 0.929 . S
C428 C427 1.399 . S
C428 C429 1.385 . S
C429 H415 0.931 . S
C429 C428 1.385 . S
C429 C430 1.389 . S
C430 C429 1.389 . S
C430 C431 1.387 . S
C431 H416 0.930 . S
C431 C426 1.390 . S
C431 C430 1.387 . S
H432 C444 0.930 . S
H433 C446 0.930 . S
H434 C447 0.930 . S
H435 C451 0.959 . S
H436 C451 0.959 . S
H437 C451 0.961 . S
H438 C452 0.960 . S
H439 C452 0.961 . S
H440 C452 0.959 . S
H441 C455 0.929 . S
H442 C456 0.931 . S
H443 C458 0.930 . S
C444 H432 0.930 . S
C444 C445 1.399 . S
C444 C449 1.399 . S
C445 C444 1.399 . S
C445 C446 1.376 . S
C446 H433 0.930 . S
C446 C445 1.376 . S
C446 C447 1.388 . S
C447 H434 0.930 . S
C447 C446 1.388 . S
C447 C448 1.390 . S
C448 C447 1.390 . S
C448 C449 1.394 . S
C448 C454 1.465 . S
C449 C444 1.399 . S
C449 C448 1.394 . S
C449 C450 1.516 . S
C450 C449 1.516 . S
C450 C451 1.502 . S
C450 C452 1.561 . S
C450 C453 1.526 . S
C451 H435 0.959 . S
C451 H436 0.959 . S
C451 H437 0.961 . S
C451 C450 1.502 . S
C452 H438 0.960 . S
C452 H439 0.961 . S
C452 H440 0.959 . S
C452 C450 1.561 . S
C453 C450 1.526 . S
C453 C454 1.396 . S
C453 C458 1.390 . S
C454 C448 1.465 . S
C454 C453 1.396 . S
C454 C455 1.399 . S
C455 H441 0.929 . S
C455 C454 1.399 . S
C455 C456 1.385 . S
C456 H442 0.931 . S
C456 C455 1.385 . S
C456 C457 1.389 . S
C457 C456 1.389 . S
C457 C458 1.387 . S
C458 H443 0.930 . S
C458 C453 1.390 . S
C458 C457 1.387 . S
H459 C471 0.930 . S
H460 C473 0.930 1_554 S
H461 C474 0.930 . S
H462 C478 0.959 . S
H463 C478 0.959 . S
H464 C478 0.961 . S
H465 C479 0.960 . S
H466 C479 0.961 . S
H467 C479 0.959 . S
H468 C482 0.929 . S
H469 C483 0.946 . S
H470 C485 0.930 . S
C471 H459 0.930 . S
C471 C472 1.399 . S
C471 C476 1.399 . S
C472 C471 1.399 . S
C472 C473 1.376 . S
C473 H460 0.930 1_556 S
C473 C472 1.376 . S
C473 C474 1.388 . S
C474 H461 0.930 . S
C474 C473 1.388 . S
C474 C475 1.390 . S
C475 C474 1.390 . S
C475 C476 1.394 . S
C475 C481 1.465 . S
C476 C471 1.399 . S
C476 C475 1.394 . S
C476 C477 1.516 . S
C477 C476 1.516 . S
C477 C478 1.502 . S
C477 C479 1.561 . S
C477 C480 1.526 . S
C478 H462 0.959 . S
C478 H463 0.959 . S
C478 H464 0.961 . S
C478 C477 1.502 . S
C479 H465 0.960 . S
C479 H466 0.961 . S
C479 H467 0.959 . S
C479 C477 1.561 . S
C480 C477 1.526 . S
C480 C481 1.396 . S
C480 C485 1.390 . S
C481 C475 1.465 . S
C481 C480 1.396 . S
C481 C482 1.399 . S
C482 H468 0.929 . S
C482 C481 1.399 . S
C482 C483 1.385 . S
C483 H469 0.946 . S
C483 C482 1.385 . S
C483 C484 1.389 . S
C484 C483 1.389 . S
C484 C485 1.387 . S
C485 H470 0.930 . S
C485 C480 1.390 . S
C485 C484 1.387 . S
H486 C498 0.930 . S
H487 C500 0.930 . S
H488 C501 0.930 . S
H489 C505 0.959 . S
H490 C505 0.959 . S
H491 C505 0.961 . S
H492 C506 0.960 . S
H493 C506 0.961 . S
H494 C506 0.959 . S
H495 C509 0.929 . S
H496 C510 0.931 . S
H497 C512 0.930 . S
C498 H486 0.930 . S
C498 C499 1.399 . S
C498 C503 1.399 . S
C499 C498 1.399 . S
C499 C500 1.376 . S
C500 H487 0.930 . S
C500 C499 1.376 . S
C500 C501 1.388 . S
C501 H488 0.930 . S
C501 C500 1.388 . S
C501 C502 1.390 . S
C502 C501 1.390 . S
C502 C503 1.394 . S
C502 C508 1.465 . S
C503 C498 1.399 . S
C503 C502 1.394 . S
C503 C504 1.516 . S
C504 C503 1.516 . S
C504 C505 1.502 . S
C504 C506 1.561 . S
C504 C507 1.526 . S
C505 H489 0.959 . S
C505 H490 0.959 . S
C505 H491 0.961 . S
C505 C504 1.502 . S
C506 H492 0.960 . S
C506 H493 0.961 . S
C506 H494 0.959 . S
C506 C504 1.561 . S
C507 C504 1.526 . S
C507 C508 1.396 . S
C507 C512 1.390 . S
C508 C502 1.465 . S
C508 C507 1.396 . S
C508 C509 1.399 . S
C509 H495 0.929 . S
C509 C508 1.399 . S
C509 C510 1.385 . S
C510 H496 0.931 . S
C510 C509 1.385 . S
C510 C511 1.389 . S
C511 C510 1.389 . S
C511 C512 1.387 . S
C512 H497 0.930 . S
C512 C507 1.390 . S
C512 C511 1.387 . S
H513 C525 0.930 . S
H514 C527 0.930 . S
H515 C528 0.930 . S
H516 C532 0.959 . S
H517 C532 0.959 . S
H518 C532 0.961 . S
H519 C533 0.960 . S
H520 C533 0.961 . S
H521 C533 0.959 . S
H522 C536 0.929 . S
H523 C537 0.931 . S
H524 C539 0.930 . S
C525 H513 0.930 . S
C525 C526 1.399 . S
C525 C530 1.399 . S
C526 C525 1.399 . S
C526 C527 1.376 . S
C527 H514 0.930 . S
C527 C526 1.376 . S
C527 C528 1.388 . S
C528 H515 0.930 . S
C528 C527 1.388 . S
C528 C529 1.390 . S
C529 C528 1.390 . S
C529 C530 1.394 . S
C529 C535 1.465 . S
C530 C525 1.399 . S
C530 C529 1.394 . S
C530 C531 1.516 . S
C531 C530 1.516 . S
C531 C532 1.502 . S
C531 C533 1.561 1_565 S
C531 C534 1.526 . S
C532 H516 0.959 . S
C532 H517 0.959 . S
C532 H518 0.961 . S
C532 C531 1.502 . S
C533 H519 0.960 . S
C533 H520 0.961 . S
C533 H521 0.959 . S
C533 C531 1.561 1_545 S
C534 C531 1.526 . S
C534 C535 1.396 . S
C534 C539 1.390 . S
C535 C529 1.465 . S
C535 C534 1.396 . S
C535 C536 1.399 . S
C536 H522 0.929 . S
C536 C535 1.399 . S
C536 C537 1.385 . S
C537 H523 0.931 . S
C537 C536 1.385 . S
C537 C538 1.389 . S
C538 C537 1.389 . S
C538 C539 1.387 . S
C539 H524 0.930 . S
C539 C534 1.390 . S
C539 C538 1.387 . S
C241 C111 1.641 . S
C229 C40 1.658 . S
C256 C4 1.659 . S
C268 C206 1.660 . S
C283 C16 1.648 . S
C295 C122 1.662 . S
C310 C28 1.618 . S
C322 C195 1.633 . S
C349 C106 1.369 . S
C337 C9 1.590 . S
C376 C199 1.697 . S
C364 C18 1.708 . S
C391 C33 1.638 . S
C403 C115 1.642 . S
C418 C45 1.601 . S
C430 C190 1.399 . S
C457 C201 1.398 . S
C445 C21 1.571 . S
C484 C117 1.444 . S
C472 C30 1.559 1_556 S
C511 C188 1.624 . S
C499 C42 1.610 . S
C526 C6 1.569 . S
C538 C104 1.584 . S
