# Generated by pormake.
# Topology anh, (6,3)-cn, num edge types: 1
# Building blocks:
#     Node 0, Type 0, BuildingBlock: INOVEN_clean_sbu_0, # of connection points: 6
#     Node 1, Type 0, BuildingBlock: INOVEN_clean_sbu_0, # of connection points: 6
#     Node 2, Type 0, BuildingBlock: INOVEN_clean_sbu_0, # of connection points: 6
#     Node 3, Type 1, BuildingBlock: CUQRIR_clean_linker_1, # of connection points: 3
#     Node 4, Type 1, BuildingBlock: CUQRIR_clean_linker_1, # of connection points: 3
#     Node 5, Type 1, BuildingBlock: CUQRIR_clean_linker_1, # of connection points: 3
#     Node 6, Type 1, BuildingBlock: CUQRIR_clean_linker_1, # of connection points: 3
#     Node 7, Type 1, BuildingBlock: CUQRIR_clean_linker_1, # of connection points: 3
#     Node 8, Type 1, BuildingBlock: CUQRIR_clean_linker_1, # of connection points: 3
#     Edge 9, Type (0, 1), BuildingBlock: AJUNOK_clean_linker_0, # of connection points: 2
#     Edge 10, Type (0, 1), BuildingBlock: AJUNOK_clean_linker_0, # of connection points: 2
#     Edge 11, Type (0, 1), BuildingBlock: AJUNOK_clean_linker_0, # of connection points: 2
#     Edge 12, Type (0, 1), BuildingBlock: AJUNOK_clean_linker_0, # of connection points: 2
#     Edge 13, Type (0, 1), BuildingBlock: AJUNOK_clean_linker_0, # of connection points: 2
#     Edge 14, Type (0, 1), BuildingBlock: AJUNOK_clean_linker_0, # of connection points: 2
#     Edge 15, Type (0, 1), BuildingBlock: AJUNOK_clean_linker_0, # of connection points: 2
#     Edge 16, Type (0, 1), BuildingBlock: AJUNOK_clean_linker_0, # of connection points: 2
#     Edge 17, Type (0, 1), BuildingBlock: AJUNOK_clean_linker_0, # of connection points: 2
#     Edge 18, Type (0, 1), BuildingBlock: AJUNOK_clean_linker_0, # of connection points: 2
#     Edge 19, Type (0, 1), BuildingBlock: AJUNOK_clean_linker_0, # of connection points: 2
#     Edge 20, Type (0, 1), BuildingBlock: AJUNOK_clean_linker_0, # of connection points: 2
#     Edge 21, Type (0, 1), BuildingBlock: AJUNOK_clean_linker_0, # of connection points: 2
#     Edge 22, Type (0, 1), BuildingBlock: AJUNOK_clean_linker_0, # of connection points: 2
#     Edge 23, Type (0, 1), BuildingBlock: AJUNOK_clean_linker_0, # of connection points: 2
#     Edge 24, Type (0, 1), BuildingBlock: AJUNOK_clean_linker_0, # of connection points: 2
#     Edge 25, Type (0, 1), BuildingBlock: AJUNOK_clean_linker_0, # of connection points: 2
#     Edge 26, Type (0, 1), BuildingBlock: AJUNOK_clean_linker_0, # of connection points: 2
# Relax obj value: 0.273
# Max RMSD: 0.229
# Mean RMSD: 0.177
data_MOF--net-anh--node1-INOVEN_clean_sbu_0--node2-CUQRIR_clean_linker_1--edge1-AJUNOK_clean_linker_0
_symmetry_space_group_name_H-M    P1
_symmetry_Int_Tables_number       1
_symmetry_cell_setting            triclinic
loop_
_symmetry_equiv_pos_as_xyz
'x, y, z'
_cell_length_a     20.96646
_cell_length_b     26.483344
_cell_length_c     33.634697
_cell_angle_alpha  87.48941
_cell_angle_beta   90.755372
_cell_angle_gamma 133.0696
loop_
_atom_site_label
_atom_site_type_symbol
_atom_site_fract_x
_atom_site_fract_y
_atom_site_fract_z
_atom_type_partial_charge
Gd0 Gd 0.22656 0.48947 0.16493 0.0
Gd1 Gd 1.12677 0.513 0.15239 0.0
C2 C 0.31636 0.64927 0.16596 0.0
C3 C 0.35369 0.49648 0.17528 0.0
C4 C 0.41963 0.52913 0.20666 0.0
C5 C 0.40007 0.49641 0.24462 0.0
C6 C 0.50478 0.59235 0.19842 0.0
C7 C 0.55485 0.56976 0.25599 0.0
C8 C 0.57189 0.61402 0.22376 0.0
C9 C 0.46768 0.51902 0.27008 0.0
C10 C 0.16048 0.48381 0.23618 0.0
C11 C 1.03481 0.35297 0.15848 0.0
C12 C 0.99532 0.50019 0.1419 0.0
C13 C 0.92112 0.45262 0.11578 0.0
C14 C 0.9331 0.45509 0.0744 0.0
C15 C 0.83698 0.4026 0.13246 0.0
C16 C 0.77617 0.37505 0.0662 0.0
C17 C 0.76511 0.3628 0.10795 0.0
C18 C 0.86087 0.41567 0.04978 0.0
C19 C 0.20016 0.52513 0.08178 0.0
O20 O 0.32788 0.60833 0.15563 0.0
O21 O 0.23582 0.62004 0.17399 0.0
O22 O 0.2737 0.4421 0.18635 0.0
O23 O 0.35872 0.5378 0.14981 0.0
O24 O 0.16263 0.43915 0.22513 0.0
O25 O 0.19138 0.52931 0.20865 0.0
O26 O 1.02705 0.39645 0.16739 0.0
O27 O 1.11292 0.37976 0.1476 0.0
O28 O 1.07093 0.55015 0.12446 0.0
O29 O 1.00004 0.47095 0.17247 0.0
O30 O 0.20218 0.57075 0.09552 0.0
O31 O 0.16365 0.47542 0.10744 0.0
H32 H 0.3337 0.45045 0.2535 0.0
H33 H 0.52112 0.6217 0.17066 0.0
H34 H 0.63781 0.65865 0.21358 0.0
H35 H 0.45136 0.48927 0.29759 0.0
H36 H 0.99788 0.49043 0.06076 0.0
H37 H 0.82636 0.39723 0.16441 0.0
H38 H 0.70132 0.33006 0.1223 0.0
H39 H 0.87173 0.42417 0.01783 0.0
Gd40 Gd 0.82249 0.09015 0.4698 0.0
Gd41 Gd 0.70387 0.11129 0.45292 0.0
C42 C 0.61399 0.9555 0.45862 0.0
C43 C 0.89496 0.04952 0.50174 0.0
C44 C 0.86421 0.9846 0.52032 0.0
C45 C 0.91972 0.97259 0.52081 0.0
C46 C 0.77937 0.93374 0.53681 0.0
C47 C 0.80569 0.85899 0.55355 0.0
C48 C 0.75026 0.87134 0.55318 0.0
C49 C 0.89075 0.91032 0.53721 0.0
C50 C 0.80926 0.10827 0.39118 0.0
C51 C 0.9159 0.24818 0.45738 0.0
C52 C 0.62585 0.15128 0.42954 0.0
C53 C 0.63463 0.20904 0.44059 0.0
C54 C 0.56117 0.19494 0.4551 0.0
C55 C 0.71685 0.27697 0.44105 0.0
C56 C 0.65285 0.31465 0.47299 0.0
C57 C 0.72585 0.32928 0.45706 0.0
C58 C 0.57019 0.24717 0.47132 0.0
C59 C 0.71593 0.09147 0.53138 0.0
O60 O 0.6861 0.98027 0.47716 0.0
O61 O 0.61154 0.99875 0.43945 0.0
O62 O 0.88299 0.04943 0.4635 0.0
O63 O 0.87676 0.08015 0.52126 0.0
O64 O 0.88126 0.13215 0.40761 0.0
O65 O 0.74741 0.07291 0.41657 0.0
O66 O 0.83738 0.22222 0.44716 0.0
O67 O 0.92687 0.20681 0.47061 0.0
O68 O 0.59473 0.10373 0.45782 0.0
O69 O 0.69115 0.16702 0.40965 0.0
O70 O 0.64434 0.0658 0.51418 0.0
O71 O 0.77881 0.12902 0.50657 0.0
H72 H 0.98514 1.01102 0.50797 0.0
H73 H 0.73541 0.942 0.53676 0.0
H74 H 0.68428 0.83256 0.56534 0.0
H75 H 0.93412 0.90154 0.53603 0.0
H76 H 0.49728 0.14279 0.45544 0.0
H77 H 0.77465 0.2893 0.43026 0.0
H78 H 0.79028 0.38087 0.45787 0.0
H79 H 0.51301 0.23395 0.48415 0.0
Gd80 Gd 0.70436 0.63963 0.8488 0.0
Gd81 Gd 0.5742 0.49086 0.86003 0.0
C82 C 0.48879 0.56002 0.86141 0.0
C83 C 0.79203 0.76206 0.81594 0.0
C84 C 0.77959 0.80878 0.80223 0.0
C85 C 0.78997 0.85389 0.82831 0.0
C86 C 0.762 0.8114 0.76202 0.0
C87 C 0.76653 0.9036 0.77421 0.0
C88 C 0.75492 0.85796 0.74823 0.0
C89 C 0.78315 0.90058 0.81447 0.0
C90 C 0.67468 0.59786 0.92549 0.0
C91 C 0.78907 0.56871 0.85847 0.0
C92 C 0.49466 0.36392 0.8767 0.0
C93 C 0.51781 0.32807 0.85923 0.0
C94 C 0.56411 0.35386 0.82266 0.0
C95 C 0.50152 0.27286 0.87971 0.0
C96 C 0.57843 0.27025 0.8272 0.0
C97 C 0.53124 0.24382 0.86367 0.0
C98 C 0.59348 0.32498 0.8067 0.0
C99 C 0.61194 0.53749 0.78292 0.0
O100 O 0.5711 0.61682 0.8487 0.0
O101 O 0.4756 0.50383 0.87177 0.0
O102 O 0.79095 0.75061 0.85432 0.0
O103 O 0.75244 0.70658 0.79584 0.0
O104 O 0.75162 0.65122 0.91072 0.0
O105 O 0.61646 0.57149 0.89971 0.0
O106 O 0.70415 0.51165 0.86541 0.0
O107 O 0.80685 0.62731 0.84924 0.0
O108 O 0.46411 0.38187 0.85164 0.0
O109 O 0.55382 0.41379 0.89977 0.0
O110 O 0.53355 0.48695 0.79674 0.0
O111 O 0.66558 0.559 0.8102 0.0
H112 H 0.80413 0.85362 0.85937 0.0
H113 H 0.75476 0.77801 0.74099 0.0
H114 H 0.74214 0.85929 0.71707 0.0
H115 H 0.79075 0.93434 0.83531 0.0
H116 H 0.57865 0.39718 0.80655 0.0
H117 H 0.46717 0.25302 0.90825 0.0
H118 H 0.51881 0.20162 0.88007 0.0
H119 H 0.62784 0.34545 0.77816 0.0
C120 C 0.68193 1.00157 0.16958 0.0
N121 N 0.73739 0.05594 0.19373 0.0
N122 N 0.61823 0.94154 0.1913 0.0
C123 C 0.68667 1.00735 0.12497 0.0
C124 C 0.63728 0.9614 0.22931 0.0
N125 N 0.70808 1.03021 0.23085 0.0
C126 C 0.5889 0.9124 0.26528 0.0
H127 H 0.71938 0.06045 0.11386 0.0
H128 H 0.62026 0.96936 0.11262 0.0
H129 H 0.7249 0.99544 0.11441 0.0
H130 H 0.63422 0.92888 0.29004 0.0
H131 H 0.55541 0.85875 0.2582 0.0
H132 H 0.53896 0.9126 0.27545 0.0
C133 C 0.70327 0.56828 0.55321 0.0
N134 N 0.70308 0.59743 0.58525 0.0
N135 N 0.68827 0.51123 0.56463 0.0
C136 C 0.72469 0.59845 0.51121 0.0
C137 C 0.67994 0.50716 0.60476 0.0
N138 N 0.68966 0.55987 0.61731 0.0
C139 C 0.65805 0.44984 0.63149 0.0
H140 H 0.6654 0.58352 0.49792 0.0
H141 H 0.7471 0.57925 0.49266 0.0
H142 H 0.77606 0.65581 0.51094 0.0
H143 H 0.62268 0.40181 0.61518 0.0
H144 H 0.61771 0.43883 0.65759 0.0
H145 H 0.71964 0.46623 0.64259 0.0
C146 C 0.14158 0.56561 0.85806 0.0
N147 N 0.18707 0.55415 0.88187 0.0
N148 N 1.07505 0.55589 0.87854 0.0
C149 C 0.1601 0.58392 0.81448 0.0
C150 C 1.08441 0.53918 0.91572 0.0
N151 N 0.14818 0.53722 0.91759 0.0
C152 C 1.03429 0.52914 0.9519 0.0
H153 H 0.22421 0.63777 0.81009 0.0
H154 H 1.10869 0.57974 0.80023 0.0
H155 H 0.16476 0.54944 0.80029 0.0
H156 H 0.98008 0.47292 0.95898 0.0
H157 H 1.0067 0.55263 0.94704 0.0
H158 H 1.07688 0.5524 0.97814 0.0
C159 C 0.26734 0.59973 0.45638 0.0
N160 N 0.21224 0.54728 0.43111 0.0
N161 N 0.32715 0.66177 0.43575 0.0
C162 C 0.26003 0.59163 0.50092 0.0
C163 C 0.30648 0.64522 0.39733 0.0
N164 N 0.23631 0.57663 0.3945 0.0
C165 C 0.35892 0.6961 0.36244 0.0
H166 H 0.27733 0.63751 0.51368 0.0
H167 H 0.30705 0.58819 0.51208 0.0
H168 H 0.19318 0.54405 0.51105 0.0
H169 H 0.42854 0.73778 0.37019 0.0
H170 H 0.33338 0.7205 0.35445 0.0
H171 H 0.35467 0.67019 0.33611 0.0
C172 C 0.7046 0.11193 0.76312 0.0
N173 N 0.72219 0.09051 0.73294 0.0
N174 N 0.69057 0.15211 0.74882 0.0
C175 C 0.70081 0.09345 0.80651 0.0
C176 C 0.69958 0.15396 0.70887 0.0
N177 N 0.71886 0.11655 0.69919 0.0
C178 C 0.68604 0.18967 0.67901 0.0
H179 H 0.65681 0.09425 0.82372 0.0
H180 H 0.76725 0.13211 0.8187 0.0
H181 H 0.67863 0.04163 0.81051 0.0
H182 H 0.74631 0.22778 0.66038 0.0
H183 H 0.66943 0.2164 0.69344 0.0
H184 H 0.63276 0.1511 0.65889 0.0
C185 C 0.64415 0.45868 0.13656 0.0
N186 N 0.62925 0.45707 0.09702 0.0
N187 N 0.65156 0.50789 0.15336 0.0
C188 C 0.6671 0.42146 0.15716 0.0
C189 C 0.6412 0.53644 0.1226 0.0
N190 N 0.62878 0.50615 0.08847 0.0
C191 C 0.64037 0.59232 0.126 0.0
H192 H 0.60857 0.36516 0.15973 0.0
H193 H 0.69285 0.44054 0.18726 0.0
H194 H 0.71754 0.42951 0.13922 0.0
H195 H 0.60446 0.5826 0.15344 0.0
H196 H 0.60914 0.59465 0.10002 0.0
H197 H 0.70843 0.643 0.12781 0.0
C198 C 0.69728 0.60587 0.24189 0.0
C199 C 0.61346 0.55592 0.26009 0.0
C200 C 0.71602 0.58932 0.2075 0.0
C201 C 0.65665 0.52108 0.19482 0.0
H202 H 0.73767 0.66008 0.24752 0.0
H203 H 0.77123 0.63069 0.18856 0.0
S204 S 0.47151 0.36641 0.25481 0.0
N205 N 0.50422 0.43274 0.27971 0.0
N206 N 0.53678 0.40018 0.21514 0.0
C207 C 0.59054 0.46866 0.22167 0.0
C208 C 0.57242 0.48647 0.25622 0.0
C209 C 0.98406 0.36814 0.43228 0.0
C210 C 0.99294 0.3256 0.45289 0.0
C211 C 1.05495 0.44023 0.42628 0.0
C212 C 0.1385 0.47374 0.44063 0.0
H213 H 0.92206 0.34556 0.41983 0.0
H214 H 1.04458 0.47009 0.40983 0.0
S215 S 0.19946 0.38836 0.49611 0.0
N216 N 1.09436 0.32435 0.48784 0.0
N217 N 0.22675 0.45904 0.47591 0.0
C218 C 0.14879 0.43254 0.46147 0.0
C219 C 1.07655 0.35893 0.46766 0.0
C220 C 0.68776 0.93176 0.7381 0.0
C221 C 0.7609 0.95412 0.75948 0.0
C222 C 0.6776 0.97772 0.72719 0.0
C223 C 0.74062 0.04736 0.73696 0.0
H224 H 0.63633 0.87782 0.73132 0.0
H225 H 0.61837 0.95816 0.7128 0.0
S226 S 0.94805 0.13367 0.78817 0.0
N227 N 0.9007 0.05215 0.78676 0.0
N228 N 0.88092 0.13794 0.76607 0.0
C229 C 0.81577 0.07107 0.75635 0.0
C230 C 0.82608 1.02456 0.76768 0.0
C231 C 0.74497 0.43643 0.0286 0.0
C232 C 0.71117 0.37168 0.04427 0.0
C233 C 0.71215 0.46379 0.04286 0.0
C234 C 0.63854 0.42349 0.06848 0.0
H235 H 0.80825 0.47247 0.01356 0.0
H236 H 0.75151 0.51875 0.03826 0.0
S237 S 0.49265 0.23573 0.09166 0.0
N238 N 0.57788 0.25754 0.06823 0.0
N239 N 0.5111 0.30716 0.09259 0.0
C240 C 0.58892 0.35224 0.07249 0.0
C241 C 0.62459 0.32548 0.05908 0.0
C242 C 0.54411 0.83043 0.46739 0.0
C243 C 0.53638 0.87859 0.45772 0.0
C244 C 0.47352 0.75849 0.46301 0.0
C245 C 0.39206 0.73176 0.44942 0.0
H246 H 0.60616 0.84857 0.47684 0.0
H247 H 0.48385 0.72395 0.46841 0.0
S248 S 0.33333 0.83295 0.424 0.0
N249 N 0.43667 0.8918 0.43666 0.0
N250 N 0.30593 0.75787 0.42896 0.0
C251 C 0.38218 0.77858 0.44171 0.0
C252 C 0.4536 0.85146 0.44573 0.0
C253 C 0.55334 0.1683 0.80608 0.0
C254 C 0.61059 0.2403 0.80981 0.0
C255 C 0.58032 0.13952 0.78665 0.0
C256 C 0.66541 0.18173 0.77069 0.0
H257 H 0.4865 0.13424 0.81712 0.0
H258 H 0.53417 0.08415 0.78334 0.0
S259 S 0.84259 0.37171 0.77528 0.0
N260 N 0.7582 0.35242 0.79775 0.0
N261 N 0.80795 0.29749 0.76141 0.0
C262 C 0.72393 0.25313 0.77516 0.0
C263 C 0.69676 0.28265 0.79471 0.0
C264 C 0.69424 0.72963 0.55352 0.0
C265 C 0.77307 0.79079 0.56795 0.0
C266 C 0.66856 0.66547 0.56161 0.0
C267 C 0.72044 0.66022 0.58453 0.0
H268 H 0.65452 0.73179 0.53404 0.0
H269 H 0.60985 0.61997 0.54836 0.0
S270 S 0.92678 0.80279 0.6331 0.0
N271 N 0.89809 0.84064 0.60966 0.0
N272 N 0.85023 0.71985 0.62387 0.0
C273 C 0.79632 0.71993 0.60112 0.0
C274 C 0.82266 0.78534 0.59298 0.0
C275 C 0.9557 0.62275 0.8528 0.0
C276 C 0.86376 0.56527 0.86105 0.0
C277 C 1.02275 0.61938 0.85608 0.0
C278 C 1.005 0.55784 0.86757 0.0
H279 H 0.97723 0.67228 0.84411 0.0
H280 H 1.09016 0.66674 0.85054 0.0
S281 S 0.77795 0.39092 0.89347 0.0
N282 N 0.76314 0.44351 0.88192 0.0
N283 N 0.88357 0.43735 0.88748 0.0
C284 C 0.91356 0.50015 0.87553 0.0
C285 C 0.84578 0.50364 0.87236 0.0
C286 C 0.47913 0.75739 0.15935 0.0
C287 C 0.39304 0.72629 0.16919 0.0
C288 C 0.55233 0.82877 0.16409 0.0
C289 C 0.54285 0.87237 0.17877 0.0
H290 H 0.49052 0.72605 0.14872 0.0
H291 H 0.61714 0.84945 0.1578 0.0
S292 S 0.33372 0.81952 0.20766 0.0
N293 N 0.30437 0.7474 0.1933 0.0
N294 N 0.44103 0.88003 0.20197 0.0
C295 C 0.45754 0.84269 0.18762 0.0
C296 C 0.38314 0.77033 0.18288 0.0
C297 C 0.72871 0.40586 0.5232 0.0
C298 C 0.66408 0.36816 0.49423 0.0
C299 C 0.73705 0.45328 0.54574 0.0
C300 C 0.68135 0.46476 0.54 0.0
H301 H 0.7717 0.39734 0.52924 0.0
H302 H 0.78675 0.48078 0.56811 0.0
S303 S 0.50408 0.38189 0.4673 0.0
N304 N 0.54577 0.34793 0.46011 0.0
N305 N 0.5606 0.43608 0.50338 0.0
C306 C 0.61759 0.42854 0.51086 0.0
C307 C 0.60905 0.38036 0.48779 0.0
C308 C 0.4166 0.61507 0.85338 0.0
C309 C 0.41018 0.55865 0.86503 0.0
C310 C 0.34524 0.61324 0.85716 0.0
C311 C 0.25961 0.55467 0.87307 0.0
H312 H 0.47857 0.66241 0.84123 0.0
H313 H 0.35863 0.65952 0.84824 0.0
S314 S 0.20106 0.39099 0.90759 0.0
N315 N 0.30415 0.44087 0.89308 0.0
N316 N 0.17581 0.43748 0.89961 0.0
C317 C 0.25225 0.49806 0.88444 0.0
C318 C 0.32442 0.4999 0.88055 0.0
C319 C 0.88135 0.25073 0.18496 0.0
C320 C 0.95782 0.27572 0.16489 0.0
C321 C 0.80985 0.17938 0.19378 0.0
C322 C 0.81022 0.12905 0.18244 0.0
H323 H 0.877 0.28673 0.19476 0.0
H324 H 0.75361 0.16331 0.20978 0.0
S325 S 0.99215 0.1647 0.12932 0.0
N326 N 1.02785 0.24228 0.134 0.0
N327 N 0.8934 0.10898 0.15015 0.0
C328 C 0.88512 0.15267 0.16192 0.0
C329 C 0.95866 0.22553 0.15331 0.0
C330 C 1.12932 0.46196 0.01883 0.0
C331 C 0.20165 0.52099 0.03791 0.0
C332 C 1.11639 0.46551 0.97791 0.0
C333 C 0.17575 0.52781 0.95464 0.0
H334 H 1.07847 0.41473 0.0362 0.0
H335 H 1.05618 0.42088 0.96498 0.0
S336 S 0.38043 0.69399 0.98933 0.0
N337 N 0.33739 0.64144 0.02952 0.0
N338 N 0.31303 0.6473 0.95289 0.0
C339 C 0.25185 0.58501 0.97262 0.0
C340 C 0.2647 0.58179 0.0142 0.0
C341 C 0.71541 0.08095 0.33375 0.0
C342 C 0.79443 0.10333 0.3477 0.0
C343 C 0.69149 0.06369 0.29408 0.0
C344 C 0.74498 0.06714 0.26702 0.0
H345 H 0.66969 0.07356 0.35408 0.0
H346 H 0.62796 0.04293 0.28506 0.0
S347 S 0.96263 0.12996 0.28697 0.0
N348 N 0.93061 0.13527 0.32994 0.0
N349 N 0.88333 0.10003 0.25565 0.0
C350 C 0.82677 0.09412 0.27964 0.0
C351 C 0.85202 0.1128 0.32 0.0
C352 C 0.7178 0.57943 0.72716 0.0
C353 C 0.63594 0.55321 0.74007 0.0
C354 C 0.73743 0.5857 0.68652 0.0
C355 C 0.67704 0.56806 0.65756 0.0
H356 H 0.76515 0.59158 0.74859 0.0
H357 H 0.79856 0.60159 0.6776 0.0
S358 S 0.458 0.5039 0.6753 0.0
N359 N 0.4966 0.51394 0.72037 0.0
N360 N 0.5353 0.52773 0.6439 0.0
C361 C 0.59751 0.54594 0.66984 0.0
C362 C 0.57652 0.53807 0.71118 0.0
C363 C 0.64631 0.04342 0.59883 0.0
C364 C 0.72302 0.09176 0.5753 0.0
C365 C 0.64687 0.04838 0.64017 0.0
C366 C 0.72406 0.1016 0.65945 0.0
H367 H 0.58443 1.00322 0.585 0.0
H368 H 0.58572 1.01302 0.65696 0.0
S369 S 0.94346 0.23774 0.61265 0.0
N370 N 0.87973 0.19167 0.5751 0.0
N371 N 0.87968 0.201 0.65301 0.0
C372 C 0.80197 0.14782 0.63687 0.0
C373 C 0.8018 0.14277 0.59469 0.0
C374 C 0.72221 0.61937 -0.00441 0.0
C375 C 0.65693 0.57577 0.96792 0.0
C376 C 0.71016 0.59779 0.03567 0.0
C377 C 0.63344 0.53142 0.04902 0.0
H378 H 0.78374 0.66998 0.98615 0.0
H379 H 0.7629 0.63153 0.056 0.0
S380 S 0.44034 0.39968 0.9897 0.0
N381 N 0.50968 0.46533 0.95755 0.0
N382 N 0.48977 0.4238 0.03289 0.0
C383 C 0.56664 0.48824 0.02221 0.0
C384 C 0.57771 0.51072 0.98156 0.0
C385 C 0.18357 0.47099 0.30766 0.0
C386 C 0.16242 0.49722 0.27853 0.0
C387 C 0.20191 0.49348 0.34671 0.0
C388 C 0.19828 0.54189 0.35785 0.0
H389 H 0.19149 0.43631 0.29971 0.0
H390 H 0.22417 0.47629 0.36761 0.0
S391 S 1.13142 0.61672 0.29499 0.0
N392 N 1.12946 0.56809 0.26485 0.0
N393 N 0.16049 0.60795 0.33874 0.0
C394 C 0.16974 0.5636 0.33007 0.0
C395 C 0.15277 0.54192 0.29021 0.0
loop_
_geom_bond_atom_site_label_1
_geom_bond_atom_site_label_2
_geom_bond_distance
_geom_bond_site_symmetry_2
_ccdc_geom_bond_type
Gd0 C3 2.818 . S
Gd0 O20 2.377 . S
Gd0 O22 2.448 . S
Gd0 O23 2.506 . S
Gd0 O24 2.435 . S
Gd0 O25 2.717 1_455 S
Gd0 O27 2.395 1_455 S
Gd0 O31 2.327 . S
Gd1 C12 2.818 . S
Gd1 O21 2.395 1_655 S
Gd1 O25 2.327 . S
Gd1 O26 2.377 . S
Gd1 O28 2.448 . S
Gd1 O29 2.506 . S
Gd1 O30 2.435 . S
Gd1 O31 2.717 1_655 S
C2 O20 1.240 . S
C2 O21 1.240 . S
C3 Gd0 2.818 . S
C3 C4 1.510 . S
C3 O22 1.249 . S
C3 O23 1.252 . S
C4 C3 1.510 . S
C4 C5 1.404 . S
C4 C6 1.352 . S
C5 C4 1.404 . S
C5 C9 1.389 . S
C5 H32 0.930 . S
C6 C4 1.352 . S
C6 C8 1.374 . S
C6 H33 0.931 . S
C7 C8 1.359 . S
C7 C9 1.364 . S
C8 C6 1.374 . S
C8 C7 1.359 . S
C8 H34 0.931 . S
C9 C5 1.389 . S
C9 C7 1.364 . S
C9 H35 0.931 . S
C10 O24 1.256 . S
C10 O25 1.257 1_455 S
C11 O26 1.240 . S
C11 O27 1.240 . S
C12 Gd1 2.818 . S
C12 C13 1.510 . S
C12 O28 1.249 . S
C12 O29 1.252 . S
C13 C12 1.510 . S
C13 C14 1.404 . S
C13 C15 1.352 . S
C14 C13 1.404 . S
C14 C18 1.389 . S
C14 H36 0.930 . S
C15 C13 1.352 . S
C15 C17 1.374 . S
C15 H37 0.931 . S
C16 C17 1.359 . S
C16 C18 1.364 . S
C17 C15 1.374 . S
C17 C16 1.359 . S
C17 H38 0.931 . S
C18 C14 1.389 . S
C18 C16 1.364 . S
C18 H39 0.931 . S
C19 O30 1.256 1_455 S
C19 O31 1.257 . S
O20 Gd0 2.377 . S
O20 C2 1.240 . S
O21 Gd1 2.395 1_455 S
O21 C2 1.240 . S
O22 Gd0 2.448 . S
O22 C3 1.249 . S
O23 Gd0 2.506 . S
O23 C3 1.252 . S
O24 Gd0 2.435 . S
O24 C10 1.256 . S
O25 Gd0 2.717 1_655 S
O25 Gd1 2.327 . S
O25 C10 1.257 1_655 S
O26 Gd1 2.377 . S
O26 C11 1.240 . S
O27 Gd0 2.395 1_655 S
O27 C11 1.240 . S
O28 Gd1 2.448 . S
O28 C12 1.249 . S
O29 Gd1 2.506 . S
O29 C12 1.252 . S
O30 Gd1 2.435 . S
O30 C19 1.256 1_655 S
O31 Gd0 2.327 . S
O31 Gd1 2.717 1_455 S
O31 C19 1.257 . S
H32 C5 0.930 . S
H33 C6 0.931 . S
H34 C8 0.931 . S
H35 C9 0.931 . S
H36 C14 0.930 . S
H37 C15 0.931 . S
H38 C17 0.931 . S
H39 C18 0.931 . S
Gd40 C43 2.818 1_545 S
Gd40 O60 2.377 1_545 S
Gd40 O62 2.448 1_545 S
Gd40 O63 2.506 1_545 S
Gd40 O64 2.435 . S
Gd40 O65 2.717 . S
Gd40 O67 2.395 . S
Gd40 O71 2.327 . S
Gd41 C52 2.818 . S
Gd41 O61 2.395 1_545 S
Gd41 O65 2.327 . S
Gd41 O66 2.377 . S
Gd41 O68 2.448 . S
Gd41 O69 2.506 . S
Gd41 O70 2.435 . S
Gd41 O71 2.717 . S
C42 O60 1.240 . S
C42 O61 1.240 . S
C43 Gd40 2.818 1_565 S
C43 C44 1.510 . S
C43 O62 1.249 . S
C43 O63 1.252 . S
C44 C43 1.510 . S
C44 C45 1.404 . S
C44 C46 1.352 . S
C45 C44 1.404 . S
C45 C49 1.389 . S
C45 H72 0.930 . S
C46 C44 1.352 . S
C46 C48 1.374 . S
C46 H73 0.931 . S
C47 C48 1.359 . S
C47 C49 1.364 . S
C48 C46 1.374 . S
C48 C47 1.359 . S
C48 H74 0.931 . S
C49 C45 1.389 . S
C49 C47 1.364 . S
C49 H75 0.931 . S
C50 O64 1.256 . S
C50 O65 1.257 . S
C51 O66 1.240 . S
C51 O67 1.240 . S
C52 Gd41 2.818 . S
C52 C53 1.510 . S
C52 O68 1.249 . S
C52 O69 1.252 . S
C53 C52 1.510 . S
C53 C54 1.404 . S
C53 C55 1.352 . S
C54 C53 1.404 . S
C54 C58 1.389 . S
C54 H76 0.930 . S
C55 C53 1.352 . S
C55 C57 1.374 . S
C55 H77 0.931 . S
C56 C57 1.359 . S
C56 C58 1.364 . S
C57 C55 1.374 . S
C57 C56 1.359 . S
C57 H78 0.931 . S
C58 C54 1.389 . S
C58 C56 1.364 . S
C58 H79 0.931 . S
C59 O70 1.256 . S
C59 O71 1.257 . S
O60 Gd40 2.377 1_565 S
O60 C42 1.240 . S
O61 Gd41 2.395 1_565 S
O61 C42 1.240 . S
O62 Gd40 2.448 1_565 S
O62 C43 1.249 . S
O63 Gd40 2.506 1_565 S
O63 C43 1.252 . S
O64 Gd40 2.435 . S
O64 C50 1.256 . S
O65 Gd40 2.717 . S
O65 Gd41 2.327 . S
O65 C50 1.257 . S
O66 Gd41 2.377 . S
O66 C51 1.240 . S
O67 Gd40 2.395 . S
O67 C51 1.240 . S
O68 Gd41 2.448 . S
O68 C52 1.249 . S
O69 Gd41 2.506 . S
O69 C52 1.252 . S
O70 Gd41 2.435 . S
O70 C59 1.256 . S
O71 Gd40 2.327 . S
O71 Gd41 2.717 . S
O71 C59 1.257 . S
H72 C45 0.930 . S
H73 C46 0.931 . S
H74 C48 0.931 . S
H75 C49 0.931 . S
H76 C54 0.930 . S
H77 C55 0.931 . S
H78 C57 0.931 . S
H79 C58 0.931 . S
Gd80 C83 2.818 . S
Gd80 O100 2.377 . S
Gd80 O102 2.448 . S
Gd80 O103 2.506 . S
Gd80 O104 2.435 . S
Gd80 O105 2.717 . S
Gd80 O107 2.395 . S
Gd80 O111 2.327 . S
Gd81 C92 2.818 . S
Gd81 O101 2.395 . S
Gd81 O105 2.327 . S
Gd81 O106 2.377 . S
Gd81 O108 2.448 . S
Gd81 O109 2.506 . S
Gd81 O110 2.435 . S
Gd81 O111 2.717 . S
C82 O100 1.240 . S
C82 O101 1.240 . S
C83 Gd80 2.818 . S
C83 C84 1.510 . S
C83 O102 1.249 . S
C83 O103 1.252 . S
C84 C83 1.510 . S
C84 C85 1.404 . S
C84 C86 1.352 . S
C85 C84 1.404 . S
C85 C89 1.389 . S
C85 H112 0.930 . S
C86 C84 1.352 . S
C86 C88 1.374 . S
C86 H113 0.931 . S
C87 C88 1.359 . S
C87 C89 1.364 . S
C88 C86 1.374 . S
C88 C87 1.359 . S
C88 H114 0.931 . S
C89 C85 1.389 . S
C89 C87 1.364 . S
C89 H115 0.931 . S
C90 O104 1.256 . S
C90 O105 1.257 . S
C91 O106 1.240 . S
C91 O107 1.240 . S
C92 Gd81 2.818 . S
C92 C93 1.510 . S
C92 O108 1.249 . S
C92 O109 1.252 . S
C93 C92 1.510 . S
C93 C94 1.404 . S
C93 C95 1.352 . S
C94 C93 1.404 . S
C94 C98 1.389 . S
C94 H116 0.930 . S
C95 C93 1.352 . S
C95 C97 1.374 . S
C95 H117 0.931 . S
C96 C97 1.359 . S
C96 C98 1.364 . S
C97 C95 1.374 . S
C97 C96 1.359 . S
C97 H118 0.931 . S
C98 C94 1.389 . S
C98 C96 1.364 . S
C98 H119 0.931 . S
C99 O110 1.256 . S
C99 O111 1.257 . S
O100 Gd80 2.377 . S
O100 C82 1.240 . S
O101 Gd81 2.395 . S
O101 C82 1.240 . S
O102 Gd80 2.448 . S
O102 C83 1.249 . S
O103 Gd80 2.506 . S
O103 C83 1.252 . S
O104 Gd80 2.435 . S
O104 C90 1.256 . S
O105 Gd80 2.717 . S
O105 Gd81 2.327 . S
O105 C90 1.257 . S
O106 Gd81 2.377 . S
O106 C91 1.240 . S
O107 Gd80 2.395 . S
O107 C91 1.240 . S
O108 Gd81 2.448 . S
O108 C92 1.249 . S
O109 Gd81 2.506 . S
O109 C92 1.252 . S
O110 Gd81 2.435 . S
O110 C99 1.256 . S
O111 Gd80 2.327 . S
O111 Gd81 2.717 . S
O111 C99 1.257 . S
H112 C85 0.930 . S
H113 C86 0.931 . S
H114 C88 0.931 . S
H115 C89 0.931 . S
H116 C94 0.930 . S
H117 C95 0.931 . S
H118 C97 0.931 . S
H119 C98 0.931 . S
C120 N121 1.317 1_565 S
C120 N122 1.348 . S
C120 C123 1.485 1_565 S
N121 C120 1.317 1_545 S
N121 N125 1.370 . S
N122 C120 1.348 . S
N122 C124 1.346 . S
C123 C120 1.485 1_545 S
C123 H127 0.960 . S
C123 H128 0.961 1_545 S
C123 H129 0.960 . S
C124 N122 1.346 . S
C124 N125 1.307 1_565 S
C124 C126 1.486 . S
N125 N121 1.370 . S
N125 C124 1.307 1_545 S
C126 C124 1.486 . S
C126 H130 0.960 . S
C126 H131 0.960 . S
C126 H132 0.959 . S
H127 C123 0.960 . S
H128 C123 0.961 1_565 S
H129 C123 0.960 . S
H130 C126 0.960 . S
H131 C126 0.960 . S
H132 C126 0.959 . S
C133 N134 1.317 . S
C133 N135 1.348 . S
C133 C136 1.485 . S
N134 C133 1.317 . S
N134 N138 1.370 . S
N135 C133 1.348 . S
N135 C137 1.346 . S
C136 C133 1.485 . S
C136 H140 0.960 . S
C136 H141 0.961 . S
C136 H142 0.960 . S
C137 N135 1.346 . S
C137 N138 1.307 . S
C137 C139 1.486 . S
N138 N134 1.370 . S
N138 C137 1.307 . S
C139 C137 1.486 . S
C139 H143 0.960 . S
C139 H144 0.960 . S
C139 H145 0.959 . S
H140 C136 0.960 . S
H141 C136 0.961 . S
H142 C136 0.960 . S
H143 C139 0.960 . S
H144 C139 0.960 . S
H145 C139 0.959 . S
C146 N147 1.317 . S
C146 N148 1.348 . S
C146 C149 1.485 . S
N147 C146 1.317 . S
N147 N151 1.370 . S
N148 C146 1.348 . S
N148 C150 1.346 . S
C149 C146 1.485 . S
C149 H153 0.960 . S
C149 H154 0.961 . S
C149 H155 0.960 . S
C150 N148 1.346 . S
C150 N151 1.307 . S
C150 C152 1.486 1_455 S
N151 N147 1.370 . S
N151 C150 1.307 . S
C152 C150 1.486 1_655 S
C152 H156 0.960 . S
C152 H157 0.960 . S
C152 H158 0.960 . S
H153 C149 0.960 . S
H154 C149 0.961 . S
H155 C149 0.960 . S
H156 C152 0.960 . S
H157 C152 0.960 . S
H158 C152 0.960 . S
C159 N160 1.317 . S
C159 N161 1.348 . S
C159 C162 1.485 . S
N160 C159 1.317 . S
N160 N164 1.370 . S
N161 C159 1.348 . S
N161 C163 1.346 . S
C162 C159 1.485 . S
C162 H166 0.960 . S
C162 H167 0.961 . S
C162 H168 0.960 . S
C163 N161 1.346 . S
C163 N164 1.307 . S
C163 C165 1.486 . S
N164 N160 1.370 . S
N164 C163 1.307 . S
C165 C163 1.486 . S
C165 H169 0.960 . S
C165 H170 0.960 . S
C165 H171 0.959 . S
H166 C162 0.960 . S
H167 C162 0.961 . S
H168 C162 0.960 . S
H169 C165 0.960 . S
H170 C165 0.960 . S
H171 C165 0.959 . S
C172 N173 1.317 . S
C172 N174 1.348 . S
C172 C175 1.485 . S
N173 C172 1.317 . S
N173 N177 1.370 . S
N174 C172 1.348 . S
N174 C176 1.346 . S
C175 C172 1.485 . S
C175 H179 0.960 . S
C175 H180 0.961 . S
C175 H181 0.960 . S
C176 N174 1.346 . S
C176 N177 1.307 . S
C176 C178 1.486 . S
N177 N173 1.370 . S
N177 C176 1.307 . S
C178 C176 1.486 . S
C178 H182 0.960 . S
C178 H183 0.960 . S
C178 H184 0.959 . S
H179 C175 0.960 . S
H180 C175 0.961 . S
H181 C175 0.960 . S
H182 C178 0.960 . S
H183 C178 0.960 . S
H184 C178 0.959 . S
C185 N186 1.317 . S
C185 N187 1.348 . S
C185 C188 1.485 . S
N186 C185 1.317 . S
N186 N190 1.370 . S
N187 C185 1.348 . S
N187 C189 1.346 . S
C188 C185 1.485 . S
C188 H192 0.960 . S
C188 H193 0.961 . S
C188 H194 0.960 . S
C189 N187 1.346 . S
C189 N190 1.307 . S
C189 C191 1.486 . S
N190 N186 1.370 . S
N190 C189 1.307 . S
C191 C189 1.486 . S
C191 H195 0.960 . S
C191 H196 0.960 . S
C191 H197 0.959 . S
H192 C188 0.960 . S
H193 C188 0.961 . S
H194 C188 0.960 . S
H195 C191 0.960 . S
H196 C191 0.960 . S
H197 C191 0.959 . S
C198 C199 1.369 . S
C198 C200 1.419 . S
C198 H202 0.930 . S
C199 C198 1.369 . S
C199 C208 1.429 . S
C200 C198 1.419 . S
C200 C201 1.363 . S
C200 H203 0.929 . S
C201 C200 1.363 . S
C201 C207 1.428 . S
H202 C198 0.930 . S
H203 C200 0.929 . S
S204 N205 1.613 . S
S204 N206 1.610 . S
N205 S204 1.613 . S
N205 C208 1.350 . S
N206 S204 1.610 . S
N206 C207 1.351 . S
C207 C201 1.428 . S
C207 N206 1.351 . S
C207 C208 1.434 . S
C208 C199 1.429 . S
C208 N205 1.350 . S
C208 C207 1.434 . S
C209 C210 1.369 . S
C209 C211 1.419 . S
C209 H213 0.930 . S
C210 C209 1.369 . S
C210 C219 1.429 . S
C211 C209 1.419 . S
C211 C212 1.363 . S
C211 H214 0.929 . S
C212 C211 1.363 . S
C212 C218 1.428 . S
H213 C209 0.930 . S
H214 C211 0.929 . S
S215 N216 1.613 . S
S215 N217 1.610 . S
N216 S215 1.613 . S
N216 C219 1.350 . S
N217 S215 1.610 . S
N217 C218 1.351 . S
C218 C212 1.428 . S
C218 N217 1.351 . S
C218 C219 1.434 . S
C219 C210 1.429 . S
C219 N216 1.350 . S
C219 C218 1.434 . S
C220 C221 1.369 . S
C220 C222 1.419 . S
C220 H224 0.930 . S
C221 C220 1.369 . S
C221 C230 1.446 . S
C222 C220 1.419 . S
C222 C223 1.363 . S
C222 H225 0.929 . S
C223 C222 1.363 . S
C223 C229 1.428 1_565 S
H224 C220 0.930 . S
H225 C222 0.929 . S
S226 N227 1.613 . S
S226 N228 1.610 . S
N227 S226 1.613 . S
N227 C230 1.349 1_545 S
N228 S226 1.610 . S
N228 C229 1.351 . S
C229 C223 1.428 1_545 S
C229 N228 1.351 . S
C229 C230 1.416 1_545 S
C230 C221 1.446 . S
C230 N227 1.349 1_565 S
C230 C229 1.416 1_565 S
C231 C232 1.369 . S
C231 C233 1.419 . S
C231 H235 0.930 . S
C232 C231 1.369 . S
C232 C241 1.429 . S
C233 C231 1.419 . S
C233 C234 1.363 . S
C233 H236 0.929 . S
C234 C233 1.363 . S
C234 C240 1.428 . S
H235 C231 0.930 . S
H236 C233 0.929 . S
S237 N238 1.613 . S
S237 N239 1.610 . S
N238 S237 1.613 . S
N238 C241 1.350 . S
N239 S237 1.610 . S
N239 C240 1.351 . S
C240 C234 1.428 . S
C240 N239 1.351 . S
C240 C241 1.434 . S
C241 C232 1.429 . S
C241 N238 1.350 . S
C241 C240 1.434 . S
C242 C243 1.369 . S
C242 C244 1.419 . S
C242 H246 0.930 . S
C243 C242 1.369 . S
C243 C252 1.429 . S
C244 C242 1.419 . S
C244 C245 1.363 . S
C244 H247 0.929 . S
C245 C244 1.363 . S
C245 C251 1.428 . S
H246 C242 0.930 . S
H247 C244 0.929 . S
S248 N249 1.613 . S
S248 N250 1.610 . S
N249 S248 1.613 . S
N249 C252 1.350 . S
N250 S248 1.610 . S
N250 C251 1.351 . S
C251 C245 1.428 . S
C251 N250 1.351 . S
C251 C252 1.434 . S
C252 C243 1.429 . S
C252 N249 1.350 . S
C252 C251 1.434 . S
C253 C254 1.369 . S
C253 C255 1.419 . S
C253 H257 0.930 . S
C254 C253 1.369 . S
C254 C263 1.429 . S
C255 C253 1.419 . S
C255 C256 1.363 . S
C255 H258 0.929 . S
C256 C255 1.363 . S
C256 C262 1.428 . S
H257 C253 0.930 . S
H258 C255 0.929 . S
S259 N260 1.613 . S
S259 N261 1.610 . S
N260 S259 1.613 . S
N260 C263 1.350 . S
N261 S259 1.610 . S
N261 C262 1.351 . S
C262 C256 1.428 . S
C262 N261 1.351 . S
C262 C263 1.434 . S
C263 C254 1.429 . S
C263 N260 1.350 . S
C263 C262 1.434 . S
C264 C265 1.369 . S
C264 C266 1.419 . S
C264 H268 0.930 . S
C265 C264 1.369 . S
C265 C274 1.429 . S
C266 C264 1.419 . S
C266 C267 1.363 . S
C266 H269 0.929 . S
C267 C266 1.363 . S
C267 C273 1.428 . S
H268 C264 0.930 . S
H269 C266 0.929 . S
S270 N271 1.613 . S
S270 N272 1.610 . S
N271 S270 1.613 . S
N271 C274 1.350 . S
N272 S270 1.610 . S
N272 C273 1.351 . S
C273 C267 1.428 . S
C273 N272 1.351 . S
C273 C274 1.434 . S
C274 C265 1.429 . S
C274 N271 1.350 . S
C274 C273 1.434 . S
C275 C276 1.369 . S
C275 C277 1.419 . S
C275 H279 0.930 . S
C276 C275 1.369 . S
C276 C285 1.429 . S
C277 C275 1.419 . S
C277 C278 1.363 . S
C277 H280 0.929 . S
C278 C277 1.363 . S
C278 C284 1.428 . S
H279 C275 0.930 . S
H280 C277 0.929 . S
S281 N282 1.613 . S
S281 N283 1.610 . S
N282 S281 1.613 . S
N282 C285 1.350 . S
N283 S281 1.610 . S
N283 C284 1.351 . S
C284 C278 1.428 . S
C284 N283 1.351 . S
C284 C285 1.434 . S
C285 C276 1.429 . S
C285 N282 1.350 . S
C285 C284 1.434 . S
C286 C287 1.369 . S
C286 C288 1.419 . S
C286 H290 0.930 . S
C287 C286 1.369 . S
C287 C296 1.429 . S
C288 C286 1.419 . S
C288 C289 1.363 . S
C288 H291 0.929 . S
C289 C288 1.363 . S
C289 C295 1.428 . S
H290 C286 0.930 . S
H291 C288 0.929 . S
S292 N293 1.613 . S
S292 N294 1.610 . S
N293 S292 1.613 . S
N293 C296 1.350 . S
N294 S292 1.610 . S
N294 C295 1.351 . S
C295 C289 1.428 . S
C295 N294 1.351 . S
C295 C296 1.434 . S
C296 C287 1.429 . S
C296 N293 1.350 . S
C296 C295 1.434 . S
C297 C298 1.369 . S
C297 C299 1.419 . S
C297 H301 0.930 . S
C298 C297 1.369 . S
C298 C307 1.429 . S
C299 C297 1.419 . S
C299 C300 1.363 . S
C299 H302 0.929 . S
C300 C299 1.363 . S
C300 C306 1.428 . S
H301 C297 0.930 . S
H302 C299 0.929 . S
S303 N304 1.613 . S
S303 N305 1.610 . S
N304 S303 1.613 . S
N304 C307 1.350 . S
N305 S303 1.610 . S
N305 C306 1.351 . S
C306 C300 1.428 . S
C306 N305 1.351 . S
C306 C307 1.434 . S
C307 C298 1.429 . S
C307 N304 1.350 . S
C307 C306 1.434 . S
C308 C309 1.369 . S
C308 C310 1.419 . S
C308 H312 0.930 . S
C309 C308 1.369 . S
C309 C318 1.429 . S
C310 C308 1.419 . S
C310 C311 1.363 . S
C310 H313 0.929 . S
C311 C310 1.363 . S
C311 C317 1.428 . S
H312 C308 0.930 . S
H313 C310 0.929 . S
S314 N315 1.613 . S
S314 N316 1.610 . S
N315 S314 1.613 . S
N315 C318 1.350 . S
N316 S314 1.610 . S
N316 C317 1.351 . S
C317 C311 1.428 . S
C317 N316 1.351 . S
C317 C318 1.434 . S
C318 C309 1.429 . S
C318 N315 1.350 . S
C318 C317 1.434 . S
C319 C320 1.369 . S
C319 C321 1.419 . S
C319 H323 0.930 . S
C320 C319 1.369 . S
C320 C329 1.429 . S
C321 C319 1.419 . S
C321 C322 1.363 . S
C321 H324 0.929 . S
C322 C321 1.363 . S
C322 C328 1.428 . S
H323 C319 0.930 . S
H324 C321 0.929 . S
S325 N326 1.613 . S
S325 N327 1.610 . S
N326 S325 1.613 . S
N326 C329 1.350 . S
N327 S325 1.610 . S
N327 C328 1.351 . S
C328 C322 1.428 . S
C328 N327 1.351 . S
C328 C329 1.434 . S
C329 C320 1.429 . S
C329 N326 1.350 . S
C329 C328 1.434 . S
C330 C331 1.369 1_655 S
C330 C332 1.419 1_654 S
C330 H334 0.930 . S
C331 C330 1.369 1_455 S
C331 C340 1.429 . S
C332 C330 1.419 1_456 S
C332 C333 1.363 . S
C332 H335 0.929 1_455 S
C333 C332 1.363 . S
C333 C339 1.428 . S
H334 C330 0.930 . S
H335 C332 0.929 1_655 S
S336 N337 1.613 . S
S336 N338 1.610 1_554 S
N337 S336 1.613 . S
N337 C340 1.350 . S
N338 S336 1.610 1_556 S
N338 C339 1.351 . S
C339 C333 1.428 . S
C339 N338 1.351 . S
C339 C340 1.434 1_556 S
C340 C331 1.429 . S
C340 N337 1.350 . S
C340 C339 1.434 1_554 S
C341 C342 1.369 . S
C341 C343 1.419 . S
C341 H345 0.930 . S
C342 C341 1.369 . S
C342 C351 1.429 . S
C343 C341 1.419 . S
C343 C344 1.363 . S
C343 H346 0.929 . S
C344 C343 1.363 . S
C344 C350 1.428 . S
H345 C341 0.930 . S
H346 C343 0.929 . S
S347 N348 1.613 . S
S347 N349 1.610 . S
N348 S347 1.613 . S
N348 C351 1.350 1_565 S
N349 S347 1.610 . S
N349 C350 1.351 1_565 S
C350 C344 1.428 . S
C350 N349 1.351 1_545 S
C350 C351 1.434 . S
C351 C342 1.429 . S
C351 N348 1.350 1_545 S
C351 C350 1.434 . S
C352 C353 1.369 . S
C352 C354 1.419 . S
C352 H356 0.930 . S
C353 C352 1.369 . S
C353 C362 1.429 . S
C354 C352 1.419 . S
C354 C355 1.363 . S
C354 H357 0.929 . S
C355 C354 1.363 . S
C355 C361 1.428 . S
H356 C352 0.930 . S
H357 C354 0.929 . S
S358 N359 1.613 . S
S358 N360 1.610 . S
N359 S358 1.613 . S
N359 C362 1.350 . S
N360 S358 1.610 . S
N360 C361 1.351 . S
C361 C355 1.428 . S
C361 N360 1.351 . S
C361 C362 1.434 . S
C362 C353 1.429 . S
C362 N359 1.350 . S
C362 C361 1.434 . S
C363 C364 1.369 . S
C363 C365 1.419 . S
C363 H367 0.930 . S
C364 C363 1.369 . S
C364 C373 1.429 . S
C365 C363 1.419 . S
C365 C366 1.363 . S
C365 H368 0.929 . S
C366 C365 1.363 . S
C366 C372 1.428 . S
H367 C363 0.930 . S
H368 C365 0.929 . S
S369 N370 1.613 1_565 S
S369 N371 1.610 1_565 S
N370 S369 1.613 1_545 S
N370 C373 1.350 . S
N371 S369 1.610 1_545 S
N371 C372 1.351 . S
C372 C366 1.428 . S
C372 N371 1.351 . S
C372 C373 1.434 . S
C373 C364 1.429 . S
C373 N370 1.350 . S
C373 C372 1.434 . S
C374 C375 1.369 . S
C374 C376 1.419 1_556 S
C374 H378 0.930 . S
C375 C374 1.369 . S
C375 C384 1.429 . S
C376 C374 1.419 1_554 S
C376 C377 1.363 . S
C376 H379 0.929 . S
C377 C376 1.363 . S
C377 C383 1.428 . S
H378 C374 0.930 . S
H379 C376 0.929 . S
S380 N381 1.613 . S
S380 N382 1.610 1_556 S
N381 S380 1.613 . S
N381 C384 1.350 . S
N382 S380 1.610 1_554 S
N382 C383 1.351 . S
C383 C377 1.428 . S
C383 N382 1.351 . S
C383 C384 1.434 1_554 S
C384 C375 1.429 . S
C384 N381 1.350 . S
C384 C383 1.434 1_556 S
C385 C386 1.369 1_455 S
C385 C387 1.419 . S
C385 H389 0.930 . S
C386 C385 1.369 1_655 S
C386 C395 1.429 . S
C387 C385 1.419 . S
C387 C388 1.363 . S
C387 H390 0.929 . S
C388 C387 1.363 . S
C388 C394 1.428 1_455 S
H389 C385 0.930 . S
H390 C387 0.929 . S
S391 N392 1.613 . S
S391 N393 1.610 . S
N392 S391 1.613 . S
N392 C395 1.350 . S
N393 S391 1.610 . S
N393 C394 1.351 . S
C394 C388 1.428 1_655 S
C394 N393 1.351 . S
C394 C395 1.434 . S
C395 C386 1.429 . S
C395 N392 1.350 . S
C395 C394 1.434 . S
C199 C7 0.801 . S
C201 N187 0.859 . S
C210 C51 1.859 . S
C212 N160 1.853 1_655 S
C221 C87 1.373 . S
C223 N173 1.373 1_565 S
C232 C16 1.040 . S
C234 N186 1.128 . S
C245 N161 1.996 . S
C243 C42 2.013 . S
C256 N174 1.500 . S
C254 C96 1.443 . S
C265 C47 1.159 . S
C267 N134 1.171 . S
C276 C91 2.944 . S
C278 N148 2.891 1_655 S
C287 C2 2.043 . S
C289 N122 2.049 . S
C300 N135 1.578 . S
C298 C56 1.502 . S
C311 N147 3.266 . S
C309 C82 3.237 . S
C320 C11 1.863 . S
C322 N121 1.888 . S
C333 N151 1.766 . S
C331 C19 1.775 . S
C342 C50 1.443 . S
C344 N125 1.453 . S
C353 C99 1.482 . S
C355 N138 1.592 . S
C366 N177 1.528 . S
C364 C59 1.459 . S
C377 N190 1.191 . S
C375 C90 1.217 . S
C386 C10 1.400 1_655 S
C388 N164 1.427 . S
