# Generated by pormake.
# Topology rtl, (3,6)-cn, num edge types: 1
# Building blocks:
#     Node 0, Type 0, BuildingBlock: KAKCAD_clean_linker_0, # of connection points: 3
#     Node 1, Type 0, BuildingBlock: KAKCAD_clean_linker_0, # of connection points: 3
#     Node 2, Type 0, BuildingBlock: KAKCAD_clean_linker_0, # of connection points: 3
#     Node 3, Type 0, BuildingBlock: KAKCAD_clean_linker_0, # of connection points: 3
#     Node 4, Type 1, BuildingBlock: FUNLAD_clean_sbu_0, # of connection points: 6
#     Node 5, Type 1, BuildingBlock: FUNLAD_clean_sbu_0, # of connection points: 6
#     Edge 6, Type (0, 1), BuildingBlock: FUNLAD_clean_linker_0, # of connection points: 2
#     Edge 7, Type (0, 1), BuildingBlock: FUNLAD_clean_linker_0, # of connection points: 2
#     Edge 8, Type (0, 1), BuildingBlock: FUNLAD_clean_linker_0, # of connection points: 2
#     Edge 9, Type (0, 1), BuildingBlock: FUNLAD_clean_linker_0, # of connection points: 2
#     Edge 10, Type (0, 1), BuildingBlock: FUNLAD_clean_linker_0, # of connection points: 2
#     Edge 11, Type (0, 1), BuildingBlock: FUNLAD_clean_linker_0, # of connection points: 2
#     Edge 12, Type (0, 1), BuildingBlock: FUNLAD_clean_linker_0, # of connection points: 2
#     Edge 13, Type (0, 1), BuildingBlock: FUNLAD_clean_linker_0, # of connection points: 2
#     Edge 14, Type (0, 1), BuildingBlock: FUNLAD_clean_linker_0, # of connection points: 2
#     Edge 15, Type (0, 1), BuildingBlock: FUNLAD_clean_linker_0, # of connection points: 2
#     Edge 16, Type (0, 1), BuildingBlock: FUNLAD_clean_linker_0, # of connection points: 2
#     Edge 17, Type (0, 1), BuildingBlock: FUNLAD_clean_linker_0, # of connection points: 2
# Relax obj value: 0.027
# Max RMSD: 0.087
# Mean RMSD: 0.074
data_MOF--net-rtl--node1-FUNLAD_clean_sbu_0--node2-KAKCAD_clean_linker_0--edge1-FUNLAD_clean_linker_0
_symmetry_space_group_name_H-M    P1
_symmetry_Int_Tables_number       1
_symmetry_cell_setting            triclinic
loop_
_symmetry_equiv_pos_as_xyz
'x, y, z'
_cell_length_a     54.930928
_cell_length_b     45.089243
_cell_length_c     32.213851
_cell_angle_alpha  89.804639
_cell_angle_beta   90.895083
_cell_angle_gamma 90.504666
loop_
_atom_site_label
_atom_site_type_symbol
_atom_site_fract_x
_atom_site_fract_y
_atom_site_fract_z
_atom_type_partial_charge
C0 C 0.08407 0.7737 0.87173 0.0
C1 C 0.08214 0.80477 0.8698 0.0
C2 C 0.09162 0.75971 0.90855 0.0
C3 C 0.09714 0.77653 0.94419 0.0
C4 C 0.09532 0.80757 0.94208 0.0
C5 C 0.0879 0.8215 0.90539 0.0
C6 C 0.10476 0.76206 0.98369 0.0
C7 C 0.12249 0.73979 0.9842 0.0
C8 C 0.13124 0.72797 0.02204 0.0
C9 C 0.12155 0.73822 0.0595 0.0
C10 C 0.10396 0.76059 0.0594 0.0
C11 C 0.09547 0.77207 0.02141 0.0
C12 C 0.09592 0.77391 0.09881 0.0
C13 C 0.08863 0.75611 0.13238 0.0
C14 C 0.09588 0.8049 0.1031 0.0
C15 C 0.08879 0.81788 0.14015 0.0
C16 C 0.08142 0.80019 0.17372 0.0
C17 C 0.15206 0.70712 0.02251 0.0
C18 C 0.15356 0.68434 0.99296 0.0
C19 C 0.17131 0.71095 0.05131 0.0
C20 C 0.19181 0.69294 0.05001 0.0
C21 C 0.19364 0.67071 0.01978 0.0
C22 C 0.17412 0.66628 0.99166 0.0
C23 C 0.08124 0.76916 0.16945 0.0
H24 H 0.07991 0.76025 0.84471 0.0
H25 H 0.09281 0.73575 0.90933 0.0
H26 H 0.09979 0.82117 0.96883 0.0
H27 H 0.08632 0.84543 0.9051 0.0
H28 H 0.13046 0.73292 0.95525 0.0
H29 H 0.08171 0.78917 0.02128 0.0
H30 H 0.12834 0.7296 0.08887 0.0
H31 H 0.08846 0.73216 0.12978 0.0
H32 H 0.10167 0.81915 0.0779 0.0
H33 H 0.08888 0.84184 0.14242 0.0
H34 H 0.13894 0.68069 0.97055 0.0
H35 H 0.17093 0.7285 0.07416 0.0
H36 H 0.07573 0.75504 0.19496 0.0
H37 H 0.17504 0.64945 0.96784 0.0
H38 H 0.20638 0.69666 0.07249 0.0
C39 C 0.59139 0.73459 0.65587 0.0
C40 C 0.5919 0.70366 0.66123 0.0
C41 C 0.59742 0.74728 0.61762 0.0
C42 C 0.60353 0.72916 0.58403 0.0
C43 C 0.60382 0.69825 0.58942 0.0
C44 C 0.59819 0.68565 0.62767 0.0
C45 C 0.61004 0.74211 0.5434 0.0
C46 C 0.6282 0.76407 0.54081 0.0
C47 C 0.63637 0.77396 0.50196 0.0
C48 C 0.62564 0.76215 0.46563 0.0
C49 C 0.6074 0.7402 0.46776 0.0
C50 C 0.59955 0.73057 0.50685 0.0
C51 C 0.59787 0.72576 0.42935 0.0
C52 C 0.59334 0.74237 0.39304 0.0
C53 C 0.59406 0.69489 0.42841 0.0
C54 C 0.58599 0.68094 0.39211 0.0
C55 C 0.58169 0.69748 0.35576 0.0
C56 C 0.65751 0.79461 0.49932 0.0
C57 C 0.66005 0.81873 0.52664 0.0
C58 C 0.67589 0.78949 0.47038 0.0
C59 C 0.69642 0.80786 0.46901 0.0
C60 C 0.69914 0.83171 0.49666 0.0
C61 C 0.68068 0.83708 0.52536 0.0
C62 C 0.58541 0.72834 0.35655 0.0
H63 H 0.58666 0.74892 0.68139 0.0
H64 H 0.59707 0.77118 0.61412 0.0
H65 H 0.60871 0.68381 0.56411 0.0
H66 H 0.5985 0.66172 0.63092 0.0
H67 H 0.63696 0.7721 0.56904 0.0
H68 H 0.5854 0.71375 0.50898 0.0
H69 H 0.6321 0.76936 0.4356 0.0
H70 H 0.59584 0.76622 0.39285 0.0
H71 H 0.5979 0.68131 0.45549 0.0
H72 H 0.58368 0.65706 0.39222 0.0
H73 H 0.64609 0.82341 0.54901 0.0
H74 H 0.67481 0.77073 0.44952 0.0
H75 H 0.58202 0.74164 0.32904 0.0
H76 H 0.68218 0.8555 0.54678 0.0
H77 H 0.71053 0.80282 0.44706 0.0
C78 C 0.89308 0.21066 0.15695 0.0
C79 C 0.91813 0.20581 0.1631 0.0
C80 C 0.88437 0.22373 0.12037 0.0
C81 C 0.90049 0.2326 0.0891 0.0
C82 C 0.92562 0.22866 0.0958 0.0
C83 C 0.93434 0.21536 0.13232 0.0
C84 C 0.89093 0.24452 0.04895 0.0
C85 C 0.87048 0.263 0.04791 0.0
C86 C 0.85991 0.27203 0.00999 0.0
C87 C 0.87055 0.26321 0.97267 0.0
C88 C 0.89113 0.24489 0.97301 0.0
C89 C 0.90118 0.23571 0.0113 0.0
C90 C 0.90109 0.23332 0.93365 0.0
C91 C 0.88535 0.22305 0.90191 0.0
C92 C 0.92636 0.23082 0.92851 0.0
C93 C 0.93566 0.21748 0.89306 0.0
C94 C 0.91988 0.20633 0.86196 0.0
C95 C 0.83677 0.2888 0.00949 0.0
C96 C 0.81776 0.28015 0.03572 0.0
C97 C 0.83315 0.31281 0.98219 0.0
C98 C 0.81093 0.32776 0.98109 0.0
C99 C 0.79183 0.31879 0.00698 0.0
C100 C 0.79556 0.29494 0.03446 0.0
C101 C 0.89464 0.20974 0.86647 0.0
H102 H 0.8801 0.20406 0.18027 0.0
H103 H 0.86488 0.22606 0.11618 0.0
H104 H 0.93857 0.23556 0.07261 0.0
H105 H 0.95373 0.21179 0.13586 0.0
H106 H 0.86257 0.27023 0.07673 0.0
H107 H 0.91626 0.22038 0.01171 0.0
H108 H 0.86236 0.26989 0.94332 0.0
H109 H 0.86579 0.22435 0.90502 0.0
H110 H 0.93897 0.23879 0.95222 0.0
H111 H 0.95518 0.21503 0.89073 0.0
H112 H 0.81986 0.26151 0.05674 0.0
H113 H 0.84752 0.32006 0.96176 0.0
H114 H 0.882 0.20175 0.84282 0.0
H115 H 0.7813 0.28772 0.05514 0.0
H116 H 0.80852 0.34597 0.95943 0.0
C117 C 0.39343 0.29648 0.35731 0.0
C118 C 0.4177 0.30436 0.34913 0.0
C119 C 0.38769 0.28012 0.39273 0.0
C120 C 0.40608 0.2711 0.42074 0.0
C121 C 0.43043 0.27823 0.41196 0.0
C122 C 0.43618 0.29469 0.37654 0.0
C123 C 0.39962 0.25594 0.46014 0.0
C124 C 0.38067 0.23486 0.46092 0.0
C125 C 0.37245 0.22311 0.49867 0.0
C126 C 0.38404 0.23182 0.53589 0.0
C127 C 0.40311 0.2528 0.53576 0.0
C128 C 0.41088 0.26456 0.49769 0.0
C129 C 0.41314 0.26498 0.57532 0.0
C130 C 0.39743 0.27234 0.60766 0.0
C131 C 0.43812 0.27146 0.57988 0.0
C132 C 0.44704 0.28603 0.6153 0.0
C133 C 0.43113 0.29447 0.64682 0.0
C134 C 0.35017 0.20429 0.49958 0.0
C135 C 0.32964 0.21226 0.47562 0.0
C136 C 0.34866 0.17946 0.52597 0.0
C137 C 0.32688 0.16331 0.52889 0.0
C138 C 0.30619 0.17186 0.50573 0.0
C139 C 0.30793 0.19624 0.47866 0.0
C140 C 0.40633 0.28685 0.64301 0.0
H141 H 0.3788 0.30324 0.33653 0.0
H142 H 0.36871 0.27536 0.39878 0.0
H143 H 0.44503 0.27139 0.43276 0.0
H144 H 0.45505 0.30058 0.37132 0.0
H145 H 0.37193 0.22799 0.43209 0.0
H146 H 0.42466 0.28191 0.49753 0.0
H147 H 0.37751 0.22322 0.56517 0.0
H148 H 0.37805 0.26799 0.605 0.0
H149 H 0.45071 0.26582 0.55565 0.0
H150 H 0.46622 0.29172 0.6172 0.0
H151 H 0.3301 0.2315 0.4554 0.0
H152 H 0.36423 0.17272 0.54464 0.0
H153 H 0.39367 0.29268 0.66705 0.0
H154 H 0.29237 0.20313 0.46004 0.0
H155 H 0.32604 0.14467 0.55015 0.0
C156 C 0.0175 0.96605 0.45587 0.0
N157 N 0.05222 0.03758 0.51538 0.0
C158 C 0.07262 0.02067 0.51619 0.0
C159 C 0.09562 0.03399 0.51561 0.0
C160 C 0.09768 0.06503 0.51405 0.0
C161 C 0.07632 0.08195 0.51335 0.0
C162 C 0.05366 0.0677 0.51408 0.0
Zn163 Zn 0.01902 0.01705 0.51561 0.0
C164 C 0.98477 0.0422 0.45347 0.0
N165 N 0.95046 0.97225 0.51564 0.0
C166 C 0.94839 0.94216 0.51622 0.0
C167 C 0.93044 0.98978 0.51562 0.0
C168 C 0.90719 0.9772 0.51634 0.0
C169 C 0.90443 0.94622 0.51693 0.0
C170 C 0.92542 0.92861 0.51686 0.0
Zn171 Zn 0.98381 0.99245 0.51538 0.0
O172 O 0.0308 0.98713 0.4697 0.0
C173 C 0.01813 0.9669 0.57692 0.0
O174 O 0.99612 0.96262 0.46975 0.0
H175 H 0.93248 0.01365 0.51527 0.0
H176 H 0.07105 0.99675 0.51705 0.0
H177 H 0.96457 0.92866 0.51618 0.0
O178 O 0.03142 0.98775 0.5629 0.0
O179 O 0.99659 0.96357 0.56264 0.0
H180 H 0.03721 0.0807 0.51357 0.0
O181 O 0.97199 0.02258 0.56116 0.0
O182 O 0.00677 0.04679 0.56144 0.0
O183 O 0.97153 0.02142 0.46776 0.0
O184 O 0.00617 0.04595 0.46818 0.0
C185 C 0.98533 0.04356 0.57511 0.0
H186 H 0.11161 0.02011 0.51568 0.0
H187 H 0.0771 0.10596 0.51265 0.0
H188 H 0.89156 0.99165 0.51703 0.0
H189 H 0.92412 0.90463 0.51686 0.0
C190 C 0.48325 0.46657 0.93493 0.0
N191 N 0.54967 0.47877 -0.00106 0.0
C192 C 0.55244 0.44882 -0.00158 0.0
C193 C 0.57567 0.43651 -0.00131 0.0
C194 C 0.59628 0.45518 -0.00065 0.0
C195 C 0.59288 0.48601 -0.00019 0.0
C196 C 0.56931 0.49739 -0.00031 0.0
Zn197 Zn 0.51534 0.49592 0.99814 0.0
C198 C 0.51093 0.54671 0.93981 0.0
N199 N 0.44362 0.53175 0.99623 0.0
C200 C 0.4237 0.5136 0.99441 0.0
C201 C 0.44132 0.56175 0.99716 0.0
C202 C 0.41833 0.57462 0.99605 0.0
C203 C 0.39742 0.5565 0.99396 0.0
C204 C 0.40031 0.52557 0.99332 0.0
Zn205 Zn 0.47786 0.51433 0.99724 0.0
O206 O 0.5048 0.46632 0.94988 0.0
C207 C 0.48259 0.46353 0.05575 0.0
O208 O 0.46801 0.48491 0.94895 0.0
H209 H 0.45737 0.57578 -0.00121 0.0
H210 H 0.5366 0.43441 0.99763 0.0
H211 H 0.42596 0.48981 0.99362 0.0
O212 O 0.5043 0.46441 0.04275 0.0
O213 O 0.46722 0.48215 0.04181 0.0
H214 H 0.56669 0.52113 0.00022 0.0
O215 O 0.48813 0.54333 0.04571 0.0
O216 O 0.52526 0.52579 0.04646 0.0
O217 O 0.48918 0.54633 0.9527 0.0
O218 O 0.5259 0.52763 0.95362 0.0
C219 C 0.50963 0.54354 0.06076 0.0
H220 H 0.57746 0.41262 0.99781 0.0
H221 H 0.60827 0.50119 0.00078 0.0
H222 H 0.41696 0.59855 0.99731 0.0
H223 H 0.38469 0.5108 0.99138 0.0
C224 C 0.26103 0.17249 0.51404 0.0
C225 C 0.28257 0.15619 0.5106 0.0
C226 C 0.2386 0.15806 0.51764 0.0
C227 C 0.23716 0.12689 0.51741 0.0
C228 C 0.25877 0.11058 0.51518 0.0
C229 C 0.28127 0.12506 0.51173 0.0
C230 C 0.21351 0.11079 0.52024 0.0
C231 C 0.1922 0.12274 0.50767 0.0
C232 C 0.16832 0.10712 0.50982 0.0
C233 C 0.14897 0.11748 0.4849 0.0
C234 C 0.12607 0.10387 0.48628 0.0
C235 C 0.12197 0.07962 0.51282 0.0
H236 H 0.17826 0.07497 0.55758 0.0
C237 C 0.14123 0.06939 0.53811 0.0
C238 C 0.16414 0.08305 0.5368 0.0
H239 H 0.13848 0.05111 0.55948 0.0
H240 H 0.26154 0.19652 0.51442 0.0
H241 H 0.22255 0.1715 0.52115 0.0
H242 H 0.25821 0.08655 0.51544 0.0
H243 H 0.29759 0.11192 0.50915 0.0
H244 H 0.21401 0.08796 0.53096 0.0
H245 H 0.19221 0.14456 0.49332 0.0
H246 H 0.1516 0.1361 0.46403 0.0
H247 H 0.11167 0.11211 0.46612 0.0
C248 C 0.23913 0.66716 0.02109 0.0
C249 C 0.21629 0.65314 0.01666 0.0
C250 C 0.26055 0.65097 0.01803 0.0
C251 C 0.25968 0.62031 0.01005 0.0
C252 C 0.23687 0.60618 0.00619 0.0
C253 C 0.21538 0.62244 0.00917 0.0
C254 C 0.28222 0.60246 0.00711 0.0
C255 C 0.30355 0.61414 0.99454 0.0
C256 C 0.32677 0.59751 0.99302 0.0
C257 C 0.34575 0.60919 0.96911 0.0
C258 C 0.36846 0.59556 0.96878 0.0
C259 C 0.37282 0.56996 0.99265 0.0
H260 H 0.31712 0.5623 0.03629 0.0
C261 C 0.35376 0.55794 0.01618 0.0
C262 C 0.33099 0.57161 0.01652 0.0
H263 H 0.35665 0.53849 0.0354 0.0
H264 H 0.24049 0.69081 0.0266 0.0
H265 H 0.27771 0.66256 0.02259 0.0
H266 H 0.23567 0.58253 0.00059 0.0
H267 H 0.19806 0.61093 0.00613 0.0
H268 H 0.28083 0.57895 0.01411 0.0
H269 H 0.30408 0.637 0.98381 0.0
H270 H 0.34308 0.62913 0.95079 0.0
H271 H 0.38264 0.60515 0.94986 0.0
C272 C 0.73359 0.85775 0.53378 0.0
C273 C 0.72167 0.85008 0.49638 0.0
C274 C 0.75579 0.87311 0.5334 0.0
C275 C 0.76656 0.88101 0.49551 0.0
C276 C 0.75413 0.87439 0.45826 0.0
C277 C 0.73199 0.85895 0.45863 0.0
C278 C 0.7906 0.8962 0.49357 0.0
C279 C 0.80798 0.89335 0.52327 0.0
C280 C 0.83256 0.90721 0.52057 0.0
C281 C 0.85172 0.89524 0.54442 0.0
C282 C 0.87509 0.90766 0.54298 0.0
C283 C 0.87976 0.93252 0.51782 0.0
H284 H 0.82286 0.94278 0.47771 0.0
C285 C 0.86055 0.94464 0.49415 0.0
C286 C 0.83719 0.93227 0.49565 0.0
H287 H 0.86356 0.9637 0.47427 0.0
H288 H 0.72609 0.8512 0.56336 0.0
H289 H 0.76439 0.87872 0.56282 0.0
H290 H 0.76183 0.88061 0.42867 0.0
H291 H 0.72301 0.8538 0.42933 0.0
H292 H 0.79458 0.90831 0.46527 0.0
H293 H 0.8047 0.87888 0.54965 0.0
H294 H 0.84863 0.87614 0.56422 0.0
H295 H 0.88938 0.89809 0.56214 0.0
C296 C 0.76654 0.36496 0.00382 0.0
C297 C 0.76792 0.33387 0.00519 0.0
C298 C 0.74394 0.37905 0.00374 0.0
C299 C 0.72219 0.36223 0.00453 0.0
C300 C 0.72369 0.33117 0.00555 0.0
C301 C 0.74624 0.31715 0.00582 0.0
C302 C 0.69763 0.37586 0.006 0.0
C303 C 0.6929 0.40443 0.99665 0.0
C304 C 0.66806 0.41725 -0.00163 0.0
C305 C 0.66267 0.44241 0.97425 0.0
C306 C 0.63945 0.45487 0.9747 0.0
C307 C 0.62113 0.44248 -0.00049 0.0
H308 H 0.65349 0.38674 0.04446 0.0
C309 C 0.62666 0.41772 0.02438 0.0
C310 C 0.64987 0.40533 0.02405 0.0
H311 H 0.61311 0.40811 0.04459 0.0
H312 H 0.78297 0.37843 0.00392 0.0
H313 H 0.74378 0.40301 0.00406 0.0
H314 H 0.70732 0.3176 0.00626 0.0
H315 H 0.74668 0.29313 0.00639 0.0
H316 H 0.68262 0.36114 0.01378 0.0
H317 H 0.70733 0.41876 0.98534 0.0
H318 H 0.67637 0.45224 0.95451 0.0
H319 H 0.63573 0.47387 0.95503 0.0
C320 C 0.0881 0.83763 0.22983 0.0
C321 C 0.07398 0.81444 0.21284 0.0
C322 C 0.08033 0.85283 0.26478 0.0
C323 C 0.05798 0.84547 0.28323 0.0
C324 C 0.04443 0.82137 0.26735 0.0
C325 C 0.05234 0.80598 0.23245 0.0
C326 C 0.04826 0.86251 0.31873 0.0
C327 C 0.05454 0.89098 0.32633 0.0
C328 C 0.04477 0.90886 0.36083 0.0
C329 C 0.05838 0.93348 0.37468 0.0
C330 C 0.04964 0.95177 0.40584 0.0
C331 C 0.02686 0.94607 0.42359 0.0
H332 H 0.01061 0.88476 0.36809 0.0
C333 C 0.01314 0.92146 0.40976 0.0
C334 C 0.02198 0.90301 0.37867 0.0
H335 H 0.99546 0.91657 0.42269 0.0
H336 H 0.10518 0.8441 0.21592 0.0
H337 H 0.09198 0.87024 0.2771 0.0
H338 H 0.02734 0.81494 0.28126 0.0
H339 H 0.04111 0.78814 0.22 0.0
H340 H 0.03503 0.85141 0.33822 0.0
H341 H 0.06757 0.9021 0.30654 0.0
H342 H 0.07591 0.93864 0.3613 0.0
H343 H 0.06068 0.97057 0.41567 0.0
C344 C 0.56413 0.697 0.7216 0.0
C345 C 0.58578 0.68982 0.70147 0.0
C346 C 0.55729 0.68168 0.75747 0.0
C347 C 0.57215 0.65908 0.77389 0.0
C348 C 0.59437 0.65308 0.75489 0.0
C349 C 0.60102 0.66808 0.71881 0.0
C350 C 0.56498 0.64073 0.81004 0.0
C351 C 0.54166 0.63359 0.81818 0.0
C352 C 0.53451 0.61178 0.85062 0.0
C353 C 0.51061 0.61211 0.86547 0.0
C354 C 0.50289 0.5911 0.89459 0.0
C355 C 0.51892 0.56915 0.90922 0.0
H356 H 0.56873 0.58772 0.85349 0.0
C357 C 0.54278 0.56872 0.89423 0.0
C358 C 0.55047 0.58964 0.86515 0.0
H359 H 0.55554 0.55196 0.9046 0.0
H360 H 0.55212 0.71376 0.70884 0.0
H361 H 0.54038 0.68748 0.77207 0.0
H362 H 0.60625 0.636 0.76718 0.0
H363 H 0.61797 0.66243 0.70414 0.0
H364 H 0.57963 0.63118 0.82851 0.0
H365 H 0.5271 0.6433 0.7996 0.0
H366 H 0.49784 0.62865 0.85447 0.0
H367 H 0.48436 0.59201 0.90548 0.0
C368 C 0.91392 0.16544 0.21637 0.0
C369 C 0.92714 0.18972 0.20062 0.0
C370 C 0.92246 0.14975 0.25096 0.0
C371 C 0.94471 0.15762 0.27041 0.0
C372 C 0.9577 0.18222 0.25518 0.0
C373 C 0.94907 0.19806 0.22062 0.0
C374 C 0.95473 0.14111 0.3069 0.0
C375 C 0.94826 0.11296 0.31615 0.0
C376 C 0.95791 0.09617 0.3525 0.0
C377 C 0.94404 0.07235 0.36774 0.0
C378 C 0.9526 0.05519 0.40091 0.0
C379 C 0.97545 0.06123 0.41936 0.0
H380 H 0.99233 0.12001 0.35953 0.0
C381 C 0.98942 0.08507 0.40417 0.0
C382 C 0.98077 0.10238 0.37105 0.0
H383 H 0.00717 0.09018 0.41756 0.0
H384 H 0.89705 0.15821 0.20161 0.0
H385 H 0.91131 0.1317 0.26234 0.0
H386 H 0.97472 0.18908 0.26983 0.0
H387 H 0.95952 0.21694 0.20975 0.0
H388 H 0.96809 0.15258 0.3263 0.0
H389 H 0.93502 0.10139 0.29669 0.0
H390 H 0.92645 0.06695 0.3539 0.0
H391 H 0.94139 0.03694 0.41173 0.0
C392 C 0.42621 0.33697 0.69558 0.0
C393 C 0.43997 0.31277 0.68227 0.0
C394 C 0.43458 0.35492 0.72805 0.0
C395 C 0.45689 0.34894 0.74833 0.0
C396 C 0.4708 0.32497 0.73472 0.0
C397 C 0.46242 0.30698 0.70211 0.0
C398 C 0.46658 0.36806 0.78236 0.0
C399 C 0.45206 0.38391 0.80717 0.0
C400 C 0.46097 0.40471 0.83987 0.0
C401 C 0.44458 0.42555 0.85527 0.0
C402 C 0.45186 0.44571 0.88587 0.0
C403 C 0.47575 0.44543 0.90205 0.0
H404 H 0.49799 0.38813 0.84629 0.0
C405 C 0.49218 0.42445 0.887 0.0
C406 C 0.48488 0.40423 0.85631 0.0
H407 H 0.51066 0.42347 0.89914 0.0
H408 H 0.40919 0.34256 0.68015 0.0
H409 H 0.42377 0.37389 0.73625 0.0
H410 H 0.48817 0.32006 0.74949 0.0
H411 H 0.47342 0.28847 0.69259 0.0
H412 H 0.48618 0.36891 0.78665 0.0
H413 H 0.43246 0.38219 0.80293 0.0
H414 H 0.42603 0.42638 0.8434 0.0
H415 H 0.4387 0.46149 0.89689 0.0
C416 C 0.55577 0.66008 0.31809 0.0
C417 C 0.57385 0.68228 0.31706 0.0
C418 C 0.54928 0.64451 0.28218 0.0
C419 C 0.56072 0.65088 0.24436 0.0
C420 C 0.57873 0.67313 0.2433 0.0
C421 C 0.58511 0.68887 0.27923 0.0
C422 C 0.55524 0.63354 0.20623 0.0
C423 C 0.53344 0.62056 0.19885 0.0
C424 C 0.52813 0.6018 0.16204 0.0
C425 C 0.50397 0.59906 0.1478 0.0
C426 C 0.49804 0.58051 0.11448 0.0
C427 C 0.51616 0.56391 0.09509 0.0
H428 H 0.56506 0.58624 0.1534 0.0
C429 C 0.54038 0.56658 0.10935 0.0
C430 C 0.54633 0.58535 0.1425 0.0
H431 H 0.55473 0.55399 0.09517 0.0
H432 H 0.54675 0.65459 0.34682 0.0
H433 H 0.53581 0.62695 0.28454 0.0
H434 H 0.58799 0.67824 0.21466 0.0
H435 H 0.59933 0.70561 0.27766 0.0
H436 H 0.56939 0.63218 0.18317 0.0
H437 H 0.51855 0.62448 0.21989 0.0
H438 H 0.48959 0.61127 0.16255 0.0
H439 H 0.47918 0.57887 0.10435 0.0
C440 C 0.91798 0.16378 0.81211 0.0
C441 C 0.92961 0.18988 0.82599 0.0
C442 C 0.92745 0.14753 0.77937 0.0
C443 C 0.94876 0.15713 0.75945 0.0
C444 C 0.96048 0.18311 0.77348 0.0
C445 C 0.95097 0.1994 0.80627 0.0
C446 C 0.95988 0.13978 0.72553 0.0
C447 C 0.94687 0.1215 0.70045 0.0
C448 C 0.95751 0.10232 0.66797 0.0
C449 C 0.94309 0.07908 0.65182 0.0
C450 C 0.95213 0.06008 0.62175 0.0
C451 C 0.97585 0.06392 0.60685 0.0
H452 H 0.99279 0.12446 0.66321 0.0
C453 C 0.99025 0.08739 0.62247 0.0
C454 C 0.98119 0.10646 0.65263 0.0
H455 H 0.00854 0.09111 0.61134 0.0
H456 H 0.90187 0.15538 0.82732 0.0
H457 H 0.91837 0.12702 0.77076 0.0
H458 H 0.97702 0.19088 0.75896 0.0
H459 H 0.96031 0.21949 0.81608 0.0
H460 H 0.97935 0.14235 0.7216 0.0
H461 H 0.92731 0.1198 0.70432 0.0
H462 H 0.92475 0.0754 0.66278 0.0
H463 H 0.94048 0.04231 0.61026 0.0
C464 C 0.44425 0.31831 0.28915 0.0
C465 C 0.42355 0.32356 0.31302 0.0
C466 C 0.45004 0.33696 0.25591 0.0
C467 C 0.43511 0.36125 0.24564 0.0
C468 C 0.41446 0.36644 0.26962 0.0
C469 C 0.40872 0.34784 0.30283 0.0
C470 C 0.4407 0.38243 0.21148 0.0
C471 C 0.4566 0.37712 0.18101 0.0
C472 C 0.4625 0.39925 0.14836 0.0
C473 C 0.48556 0.39855 0.13033 0.0
C474 C 0.49206 0.41938 0.10021 0.0
C475 C 0.47546 0.44117 0.08706 0.0
H476 H 0.42741 0.42126 0.14665 0.0
C477 C 0.45212 0.44141 0.10427 0.0
C478 C 0.44567 0.42065 0.13457 0.0
H479 H 0.43883 0.45771 0.09447 0.0
H480 H 0.45601 0.29972 0.29611 0.0
H481 H 0.46647 0.3324 0.23917 0.0
H482 H 0.40274 0.3851 0.26279 0.0
H483 H 0.39288 0.35288 0.32105 0.0
H484 H 0.43132 0.40352 0.21192 0.0
H485 H 0.46644 0.3564 0.18034 0.0
H486 H 0.49877 0.38212 0.14007 0.0
H487 H 0.51013 0.41842 0.08734 0.0
C488 C 0.08512 0.8464 0.81836 0.0
C489 C 0.07381 0.81993 0.83121 0.0
C490 C 0.07627 0.86199 0.78389 0.0
C491 C 0.05595 0.8513 0.76113 0.0
C492 C 0.04485 0.82463 0.77366 0.0
C493 C 0.05375 0.80899 0.80818 0.0
C494 C 0.04494 0.86836 0.72607 0.0
C495 C 0.05756 0.8882 0.7033 0.0
C496 C 0.04672 0.90753 0.67039 0.0
C497 C 0.0608 0.93135 0.65555 0.0
C498 C 0.05151 0.95062 0.62535 0.0
C499 C 0.02785 0.94651 0.60909 0.0
H500 H 0.01168 0.88485 0.66323 0.0
C501 C 0.01378 0.92252 0.62346 0.0
C502 C 0.02309 0.90317 0.65367 0.0
H503 H 0.99556 0.91857 0.61124 0.0
H504 H 0.1007 0.85532 0.83533 0.0
H505 H 0.08497 0.88287 0.77624 0.0
H506 H 0.02904 0.81602 0.75698 0.0
H507 H 0.04445 0.78884 0.81761 0.0
H508 H 0.02578 0.86439 0.71963 0.0
H509 H 0.0769 0.89115 0.70955 0.0
H510 H 0.07907 0.93527 0.66761 0.0
H511 H 0.06291 0.96879 0.61484 0.0
loop_
_geom_bond_atom_site_label_1
_geom_bond_atom_site_label_2
_geom_bond_distance
_geom_bond_site_symmetry_2
_ccdc_geom_bond_type
C0 C1 1.386 . S
C0 C2 1.397 . S
C0 H24 0.931 . S
C1 C0 1.386 . S
C1 C5 1.397 . S
C2 C0 1.397 . S
C2 C3 1.384 . S
C2 H25 0.930 . S
C3 C2 1.384 . S
C3 C4 1.377 . S
C3 C6 1.481 . S
C4 C3 1.377 . S
C4 C5 1.389 . S
C4 H26 0.929 . S
C5 C1 1.397 . S
C5 C4 1.389 . S
C5 H27 0.931 . S
C6 C3 1.481 . S
C6 C7 1.387 . S
C6 C11 1.390 1_556 S
C7 C6 1.387 . S
C7 C8 1.401 1_556 S
C7 H28 0.930 . S
C8 C7 1.401 1_554 S
C8 C9 1.376 . S
C8 C17 1.511 . S
C9 C8 1.376 . S
C9 C10 1.392 . S
C9 H30 0.931 . S
C10 C9 1.392 . S
C10 C11 1.361 . S
C10 C12 1.500 . S
C11 C6 1.390 1_554 S
C11 C10 1.361 . S
C11 H29 0.931 . S
C12 C10 1.500 . S
C12 C13 1.371 . S
C12 C14 1.365 . S
C13 C12 1.371 . S
C13 C23 1.386 . S
C13 H31 0.931 . S
C14 C12 1.365 . S
C14 C15 1.409 . S
C14 H32 0.929 . S
C15 C14 1.409 . S
C15 C16 1.380 . S
C15 H33 0.930 . S
C16 C15 1.380 . S
C16 C23 1.357 . S
C17 C8 1.511 . S
C17 C18 1.341 1_554 S
C17 C19 1.371 . S
C18 C17 1.341 1_556 S
C18 C22 1.394 . S
C18 H34 0.930 . S
C19 C17 1.371 . S
C19 C20 1.392 . S
C19 H35 0.931 . S
C20 C19 1.392 . S
C20 C21 1.331 . S
C20 H38 0.932 . S
C21 C20 1.331 . S
C21 C22 1.336 1_554 S
C22 C18 1.394 . S
C22 C21 1.336 1_556 S
C22 H37 0.929 . S
C23 C13 1.386 . S
C23 C16 1.357 . S
C23 H36 0.928 . S
H24 C0 0.931 . S
H25 C2 0.930 . S
H26 C4 0.929 . S
H27 C5 0.931 . S
H28 C7 0.930 . S
H29 C11 0.931 . S
H30 C9 0.931 . S
H31 C13 0.931 . S
H32 C14 0.929 . S
H33 C15 0.930 . S
H34 C18 0.930 . S
H35 C19 0.931 . S
H36 C23 0.928 . S
H37 C22 0.929 . S
H38 C20 0.932 . S
C39 C40 1.386 . S
C39 C41 1.397 . S
C39 H63 0.931 . S
C40 C39 1.386 . S
C40 C44 1.397 . S
C41 C39 1.397 . S
C41 C42 1.384 . S
C41 H64 0.930 . S
C42 C41 1.384 . S
C42 C43 1.377 . S
C42 C45 1.481 . S
C43 C42 1.377 . S
C43 C44 1.389 . S
C43 H65 0.929 . S
C44 C40 1.397 . S
C44 C43 1.389 . S
C44 H66 0.931 . S
C45 C42 1.481 . S
C45 C46 1.387 . S
C45 C50 1.390 . S
C46 C45 1.387 . S
C46 C47 1.401 . S
C46 H67 0.930 . S
C47 C46 1.401 . S
C47 C48 1.376 . S
C47 C56 1.511 . S
C48 C47 1.376 . S
C48 C49 1.392 . S
C48 H69 0.931 . S
C49 C48 1.392 . S
C49 C50 1.361 . S
C49 C51 1.500 . S
C50 C45 1.390 . S
C50 C49 1.361 . S
C50 H68 0.931 . S
C51 C49 1.500 . S
C51 C52 1.371 . S
C51 C53 1.365 . S
C52 C51 1.371 . S
C52 C62 1.386 . S
C52 H70 0.931 . S
C53 C51 1.365 . S
C53 C54 1.409 . S
C53 H71 0.929 . S
C54 C53 1.409 . S
C54 C55 1.380 . S
C54 H72 0.930 . S
C55 C54 1.380 . S
C55 C62 1.357 . S
C56 C47 1.511 . S
C56 C57 1.341 . S
C56 C58 1.371 . S
C57 C56 1.341 . S
C57 C61 1.394 . S
C57 H73 0.930 . S
C58 C56 1.371 . S
C58 C59 1.392 . S
C58 H74 0.931 . S
C59 C58 1.392 . S
C59 C60 1.331 . S
C59 H77 0.932 . S
C60 C59 1.331 . S
C60 C61 1.336 . S
C61 C57 1.394 . S
C61 C60 1.336 . S
C61 H76 0.929 . S
C62 C52 1.386 . S
C62 C55 1.357 . S
C62 H75 0.928 . S
H63 C39 0.931 . S
H64 C41 0.930 . S
H65 C43 0.929 . S
H66 C44 0.931 . S
H67 C46 0.930 . S
H68 C50 0.931 . S
H69 C48 0.931 . S
H70 C52 0.931 . S
H71 C53 0.929 . S
H72 C54 0.930 . S
H73 C57 0.930 . S
H74 C58 0.931 . S
H75 C62 0.928 . S
H76 C61 0.929 . S
H77 C59 0.932 . S
C78 C79 1.386 . S
C78 C80 1.397 . S
C78 H102 0.931 . S
C79 C78 1.386 . S
C79 C83 1.397 . S
C80 C78 1.397 . S
C80 C81 1.384 . S
C80 H103 0.930 . S
C81 C80 1.384 . S
C81 C82 1.377 . S
C81 C84 1.481 . S
C82 C81 1.377 . S
C82 C83 1.389 . S
C82 H104 0.929 . S
C83 C79 1.397 . S
C83 C82 1.389 . S
C83 H105 0.931 . S
C84 C81 1.481 . S
C84 C85 1.387 . S
C84 C89 1.390 . S
C85 C84 1.387 . S
C85 C86 1.401 . S
C85 H106 0.930 . S
C86 C85 1.401 . S
C86 C87 1.376 1_554 S
C86 C95 1.511 . S
C87 C86 1.376 1_556 S
C87 C88 1.392 . S
C87 H108 0.931 . S
C88 C87 1.392 . S
C88 C89 1.361 1_556 S
C88 C90 1.500 . S
C89 C84 1.390 . S
C89 C88 1.361 1_554 S
C89 H107 0.931 . S
C90 C88 1.500 . S
C90 C91 1.371 . S
C90 C92 1.365 . S
C91 C90 1.371 . S
C91 C101 1.386 . S
C91 H109 0.931 . S
C92 C90 1.365 . S
C92 C93 1.409 . S
C92 H110 0.929 . S
C93 C92 1.409 . S
C93 C94 1.380 . S
C93 H111 0.930 . S
C94 C93 1.380 . S
C94 C101 1.357 . S
C95 C86 1.511 . S
C95 C96 1.341 . S
C95 C97 1.371 1_554 S
C96 C95 1.341 . S
C96 C100 1.394 . S
C96 H112 0.930 . S
C97 C95 1.371 1_556 S
C97 C98 1.392 . S
C97 H113 0.931 . S
C98 C97 1.392 . S
C98 C99 1.331 1_556 S
C98 H116 0.932 . S
C99 C98 1.331 1_554 S
C99 C100 1.336 . S
C100 C96 1.394 . S
C100 C99 1.336 . S
C100 H115 0.929 . S
C101 C91 1.386 . S
C101 C94 1.357 . S
C101 H114 0.928 . S
H102 C78 0.931 . S
H103 C80 0.930 . S
H104 C82 0.929 . S
H105 C83 0.931 . S
H106 C85 0.930 . S
H107 C89 0.931 . S
H108 C87 0.931 . S
H109 C91 0.931 . S
H110 C92 0.929 . S
H111 C93 0.930 . S
H112 C96 0.930 . S
H113 C97 0.931 . S
H114 C101 0.928 . S
H115 C100 0.929 . S
H116 C98 0.932 . S
C117 C118 1.386 . S
C117 C119 1.397 . S
C117 H141 0.931 . S
C118 C117 1.386 . S
C118 C122 1.397 . S
C119 C117 1.397 . S
C119 C120 1.384 . S
C119 H142 0.930 . S
C120 C119 1.384 . S
C120 C121 1.377 . S
C120 C123 1.481 . S
C121 C120 1.377 . S
C121 C122 1.389 . S
C121 H143 0.929 . S
C122 C118 1.397 . S
C122 C121 1.389 . S
C122 H144 0.931 . S
C123 C120 1.481 . S
C123 C124 1.387 . S
C123 C128 1.390 . S
C124 C123 1.387 . S
C124 C125 1.401 . S
C124 H145 0.930 . S
C125 C124 1.401 . S
C125 C126 1.376 . S
C125 C134 1.511 . S
C126 C125 1.376 . S
C126 C127 1.392 . S
C126 H147 0.931 . S
C127 C126 1.392 . S
C127 C128 1.361 . S
C127 C129 1.500 . S
C128 C123 1.390 . S
C128 C127 1.361 . S
C128 H146 0.931 . S
C129 C127 1.500 . S
C129 C130 1.371 . S
C129 C131 1.365 . S
C130 C129 1.371 . S
C130 C140 1.386 . S
C130 H148 0.931 . S
C131 C129 1.365 . S
C131 C132 1.409 . S
C131 H149 0.929 . S
C132 C131 1.409 . S
C132 C133 1.380 . S
C132 H150 0.930 . S
C133 C132 1.380 . S
C133 C140 1.357 . S
C134 C125 1.511 . S
C134 C135 1.341 . S
C134 C136 1.371 . S
C135 C134 1.341 . S
C135 C139 1.394 . S
C135 H151 0.930 . S
C136 C134 1.371 . S
C136 C137 1.392 . S
C136 H152 0.931 . S
C137 C136 1.392 . S
C137 C138 1.331 . S
C137 H155 0.932 . S
C138 C137 1.331 . S
C138 C139 1.336 . S
C139 C135 1.394 . S
C139 C138 1.336 . S
C139 H154 0.929 . S
C140 C130 1.386 . S
C140 C133 1.357 . S
C140 H153 0.928 . S
H141 C117 0.931 . S
H142 C119 0.930 . S
H143 C121 0.929 . S
H144 C122 0.931 . S
H145 C124 0.930 . S
H146 C128 0.931 . S
H147 C126 0.931 . S
H148 C130 0.931 . S
H149 C131 0.929 . S
H150 C132 0.930 . S
H151 C135 0.930 . S
H152 C136 0.931 . S
H153 C140 0.928 . S
H154 C139 0.929 . S
H155 C137 0.932 . S
C156 O172 1.251 . S
C156 O174 1.254 1_455 S
N157 C158 1.333 . S
N157 C162 1.307 . S
N157 Zn163 2.020 . S
C158 N157 1.333 . S
C158 C159 1.379 . S
C158 H176 0.952 . S
C159 C158 1.379 . S
C159 C160 1.390 . S
C159 H186 0.949 . S
C160 C159 1.390 . S
C160 C161 1.357 . S
C161 C160 1.357 . S
C161 C162 1.370 . S
C161 H187 0.950 . S
C162 N157 1.307 . S
C162 C161 1.370 . S
C162 H180 0.948 . S
Zn163 N157 2.020 . S
Zn163 O172 2.039 1_545 S
Zn163 O178 2.034 1_545 S
Zn163 O182 2.025 . S
Zn163 O184 2.024 . S
C164 O183 1.246 . S
C164 O184 1.249 1_655 S
N165 C166 1.307 . S
N165 C167 1.333 . S
N165 Zn171 2.020 . S
C166 N165 1.307 . S
C166 C170 1.370 . S
C166 H177 0.948 . S
C167 N165 1.333 . S
C167 C168 1.379 . S
C167 H175 0.952 1_565 S
C168 C167 1.379 . S
C168 C169 1.390 . S
C168 H188 0.949 . S
C169 C168 1.390 . S
C169 C170 1.357 . S
C170 C166 1.370 . S
C170 C169 1.357 . S
C170 H189 0.950 . S
Zn171 N165 2.020 . S
Zn171 O174 2.025 . S
Zn171 O179 2.024 . S
Zn171 O181 2.039 1_565 S
Zn171 O183 2.034 1_565 S
O172 C156 1.251 . S
O172 Zn163 2.039 1_565 S
C173 O178 1.246 . S
C173 O179 1.249 1_455 S
O174 C156 1.254 1_655 S
O174 Zn171 2.025 . S
H175 C167 0.952 1_545 S
H176 C158 0.952 . S
H177 C166 0.948 . S
O178 Zn163 2.034 1_565 S
O178 C173 1.246 . S
O179 Zn171 2.024 . S
O179 C173 1.249 1_655 S
H180 C162 0.948 . S
O181 Zn171 2.039 1_545 S
O181 C185 1.251 . S
O182 Zn163 2.025 . S
O182 C185 1.254 1_455 S
O183 C164 1.246 . S
O183 Zn171 2.034 1_545 S
O184 Zn163 2.024 . S
O184 C164 1.249 1_455 S
C185 O181 1.251 . S
C185 O182 1.254 1_655 S
H186 C159 0.949 . S
H187 C161 0.950 . S
H188 C168 0.949 . S
H189 C170 0.950 . S
C190 O206 1.251 . S
C190 O208 1.254 . S
N191 C192 1.334 . S
N191 C196 1.307 . S
N191 Zn197 2.020 . S
C192 N191 1.334 . S
C192 C193 1.379 1_554 S
C192 H210 0.951 1_554 S
C193 C192 1.379 1_556 S
C193 C194 1.383 1_556 S
C193 H220 0.958 . S
C194 C193 1.383 1_554 S
C194 C195 1.357 . S
C195 C194 1.357 . S
C195 C196 1.370 . S
C195 H221 0.950 . S
C196 N191 1.307 . S
C196 C195 1.370 . S
C196 H214 0.948 . S
Zn197 N191 2.020 . S
Zn197 O206 2.039 1_554 S
Zn197 O212 2.034 . S
Zn197 O216 2.025 . S
Zn197 O218 2.024 1_554 S
C198 O217 1.246 . S
C198 O218 1.249 . S
N199 C200 1.307 . S
N199 C201 1.333 . S
N199 Zn205 2.020 . S
C200 N199 1.307 . S
C200 C204 1.370 . S
C200 H211 0.948 1_554 S
C201 N199 1.333 . S
C201 C202 1.379 . S
C201 H209 0.952 . S
C202 C201 1.379 . S
C202 C203 1.390 . S
C202 H222 0.949 . S
C203 C202 1.390 . S
C203 C204 1.357 . S
C204 C200 1.370 . S
C204 C203 1.357 . S
C204 H223 0.950 1_554 S
Zn205 N199 2.020 . S
Zn205 O208 2.025 1_554 S
Zn205 O213 2.024 . S
Zn205 O215 2.039 . S
Zn205 O217 2.034 1_554 S
O206 C190 1.251 . S
O206 Zn197 2.039 1_556 S
C207 O212 1.246 . S
C207 O213 1.249 . S
O208 C190 1.254 . S
O208 Zn205 2.025 1_556 S
H209 C201 0.952 . S
H210 C192 0.951 1_556 S
H211 C200 0.948 1_556 S
O212 Zn197 2.034 . S
O212 C207 1.246 . S
O213 Zn205 2.024 . S
O213 C207 1.249 . S
H214 C196 0.948 . S
O215 Zn205 2.039 . S
O215 C219 1.251 . S
O216 Zn197 2.025 . S
O216 C219 1.254 . S
O217 C198 1.246 . S
O217 Zn205 2.034 1_556 S
O218 Zn197 2.024 1_556 S
O218 C198 1.249 . S
C219 O215 1.251 . S
C219 O216 1.254 . S
H220 C193 0.958 . S
H221 C195 0.950 . S
H222 C202 0.949 . S
H223 C204 0.950 1_556 S
C224 C225 1.386 . S
C224 C226 1.383 . S
C224 H240 0.951 . S
C225 C224 1.386 . S
C225 C229 1.383 . S
C226 C224 1.383 . S
C226 C227 1.402 . S
C226 H241 0.951 . S
C227 C226 1.402 . S
C227 C228 1.375 . S
C227 C230 1.481 . S
C228 C227 1.375 . S
C228 C229 1.367 . S
C228 H242 0.951 . S
C229 C225 1.383 . S
C229 C228 1.367 . S
C229 H243 0.950 . S
C230 C227 1.481 . S
C230 C231 1.297 . S
C230 H244 0.950 . S
C231 C230 1.297 . S
C231 C232 1.479 . S
C231 H245 0.950 . S
C232 C231 1.479 . S
C232 C233 1.375 . S
C232 C238 1.404 . S
C233 C232 1.375 . S
C233 C234 1.369 . S
C233 H246 0.950 . S
C234 C233 1.369 . S
C234 C235 1.392 . S
C234 H247 0.951 . S
C235 C234 1.392 . S
C235 C237 1.384 . S
H236 C238 0.949 . S
C237 C235 1.384 . S
C237 C238 1.385 . S
C237 H239 0.950 . S
C238 C232 1.404 . S
C238 H236 0.949 . S
C238 C237 1.385 . S
H239 C237 0.950 . S
H240 C224 0.951 . S
H241 C226 0.951 . S
H242 C228 0.951 . S
H243 C229 0.950 . S
H244 C230 0.950 . S
H245 C231 0.950 . S
H246 C233 0.950 . S
H247 C234 0.951 . S
C248 C249 1.386 . S
C248 C250 1.383 . S
C248 H264 0.951 . S
C249 C248 1.386 . S
C249 C253 1.383 . S
C250 C248 1.383 . S
C250 C251 1.402 . S
C250 H265 0.951 . S
C251 C250 1.402 . S
C251 C252 1.375 . S
C251 C254 1.481 . S
C252 C251 1.375 . S
C252 C253 1.367 . S
C252 H266 0.951 . S
C253 C249 1.383 . S
C253 C252 1.367 . S
C253 H267 0.950 . S
C254 C251 1.481 . S
C254 C255 1.297 . S
C254 H268 0.950 . S
C255 C254 1.297 . S
C255 C256 1.479 . S
C255 H269 0.950 . S
C256 C255 1.479 . S
C256 C257 1.375 . S
C256 C262 1.404 . S
C257 C256 1.375 . S
C257 C258 1.369 . S
C257 H270 0.950 . S
C258 C257 1.369 . S
C258 C259 1.392 . S
C258 H271 0.951 . S
C259 C258 1.392 . S
C259 C261 1.384 . S
H260 C262 0.949 . S
C261 C259 1.384 . S
C261 C262 1.385 . S
C261 H263 0.950 . S
C262 C256 1.404 . S
C262 H260 0.949 . S
C262 C261 1.385 . S
H263 C261 0.950 . S
H264 C248 0.951 . S
H265 C250 0.951 . S
H266 C252 0.951 . S
H267 C253 0.950 . S
H268 C254 0.950 . S
H269 C255 0.950 . S
H270 C257 0.950 . S
H271 C258 0.951 . S
C272 C273 1.386 . S
C272 C274 1.383 . S
C272 H288 0.951 . S
C273 C272 1.386 . S
C273 C277 1.383 . S
C274 C272 1.383 . S
C274 C275 1.402 . S
C274 H289 0.951 . S
C275 C274 1.402 . S
C275 C276 1.375 . S
C275 C278 1.481 . S
C276 C275 1.375 . S
C276 C277 1.367 . S
C276 H290 0.951 . S
C277 C273 1.383 . S
C277 C276 1.367 . S
C277 H291 0.950 . S
C278 C275 1.481 . S
C278 C279 1.297 . S
C278 H292 0.950 . S
C279 C278 1.297 . S
C279 C280 1.479 . S
C279 H293 0.950 . S
C280 C279 1.479 . S
C280 C281 1.375 . S
C280 C286 1.404 . S
C281 C280 1.375 . S
C281 C282 1.369 . S
C281 H294 0.950 . S
C282 C281 1.369 . S
C282 C283 1.392 . S
C282 H295 0.951 . S
C283 C282 1.392 . S
C283 C285 1.384 . S
H284 C286 0.949 . S
C285 C283 1.384 . S
C285 C286 1.385 . S
C285 H287 0.950 . S
C286 C280 1.404 . S
C286 H284 0.949 . S
C286 C285 1.385 . S
H287 C285 0.950 . S
H288 C272 0.951 . S
H289 C274 0.951 . S
H290 C276 0.951 . S
H291 C277 0.950 . S
H292 C278 0.950 . S
H293 C279 0.950 . S
H294 C281 0.950 . S
H295 C282 0.951 . S
C296 C297 1.386 1_556 S
C296 C298 1.383 . S
C296 H312 0.951 . S
C297 C296 1.386 1_554 S
C297 C301 1.383 . S
C298 C296 1.383 . S
C298 C299 1.402 1_556 S
C298 H313 0.951 . S
C299 C298 1.402 1_554 S
C299 C300 1.375 . S
C299 C302 1.481 . S
C300 C299 1.375 . S
C300 C301 1.367 . S
C300 H314 0.951 . S
C301 C297 1.383 . S
C301 C300 1.367 . S
C301 H315 0.950 . S
C302 C299 1.481 . S
C302 C303 1.297 1_554 S
C302 H316 0.950 . S
C303 C302 1.297 1_556 S
C303 C304 1.479 . S
C303 H317 0.950 . S
C304 C303 1.479 . S
C304 C305 1.375 . S
C304 C310 1.404 1_556 S
C305 C304 1.375 . S
C305 C306 1.369 . S
C305 H318 0.950 . S
C306 C305 1.369 . S
C306 C307 1.392 1_556 S
C306 H319 0.951 . S
C307 C306 1.392 1_554 S
C307 C309 1.384 . S
H308 C310 0.949 . S
C309 C307 1.384 . S
C309 C310 1.385 . S
C309 H311 0.950 . S
C310 C304 1.404 1_554 S
C310 H308 0.949 . S
C310 C309 1.385 . S
H311 C309 0.950 . S
H312 C296 0.951 . S
H313 C298 0.951 . S
H314 C300 0.951 . S
H315 C301 0.950 . S
H316 C302 0.950 . S
H317 C303 0.950 . S
H318 C305 0.950 . S
H319 C306 0.951 . S
C320 C321 1.386 . S
C320 C322 1.383 . S
C320 H336 0.951 . S
C321 C320 1.386 . S
C321 C325 1.383 . S
C322 C320 1.383 . S
C322 C323 1.402 . S
C322 H337 0.951 . S
C323 C322 1.402 . S
C323 C324 1.375 . S
C323 C326 1.481 . S
C324 C323 1.375 . S
C324 C325 1.367 . S
C324 H338 0.951 . S
C325 C321 1.383 . S
C325 C324 1.367 . S
C325 H339 0.950 . S
C326 C323 1.481 . S
C326 C327 1.297 . S
C326 H340 0.950 . S
C327 C326 1.297 . S
C327 C328 1.479 . S
C327 H341 0.950 . S
C328 C327 1.479 . S
C328 C329 1.375 . S
C328 C334 1.404 . S
C329 C328 1.375 . S
C329 C330 1.369 . S
C329 H342 0.950 . S
C330 C329 1.369 . S
C330 C331 1.392 . S
C330 H343 0.951 . S
C331 C330 1.392 . S
C331 C333 1.384 . S
H332 C334 0.949 . S
C333 C331 1.384 . S
C333 C334 1.385 . S
C333 H335 0.950 . S
C334 C328 1.404 . S
C334 H332 0.949 . S
C334 C333 1.385 . S
H335 C333 0.950 . S
H336 C320 0.951 . S
H337 C322 0.951 . S
H338 C324 0.951 . S
H339 C325 0.950 . S
H340 C326 0.950 . S
H341 C327 0.950 . S
H342 C329 0.950 . S
H343 C330 0.951 . S
C344 C345 1.386 . S
C344 C346 1.383 . S
C344 H360 0.951 . S
C345 C344 1.386 . S
C345 C349 1.383 . S
C346 C344 1.383 . S
C346 C347 1.402 . S
C346 H361 0.951 . S
C347 C346 1.402 . S
C347 C348 1.375 . S
C347 C350 1.481 . S
C348 C347 1.375 . S
C348 C349 1.367 . S
C348 H362 0.951 . S
C349 C345 1.383 . S
C349 C348 1.367 . S
C349 H363 0.950 . S
C350 C347 1.481 . S
C350 C351 1.297 . S
C350 H364 0.950 . S
C351 C350 1.297 . S
C351 C352 1.479 . S
C351 H365 0.950 . S
C352 C351 1.479 . S
C352 C353 1.375 . S
C352 C358 1.404 . S
C353 C352 1.375 . S
C353 C354 1.369 . S
C353 H366 0.950 . S
C354 C353 1.369 . S
C354 C355 1.392 . S
C354 H367 0.951 . S
C355 C354 1.392 . S
C355 C357 1.384 . S
H356 C358 0.949 . S
C357 C355 1.384 . S
C357 C358 1.385 . S
C357 H359 0.950 . S
C358 C352 1.404 . S
C358 H356 0.949 . S
C358 C357 1.385 . S
H359 C357 0.950 . S
H360 C344 0.951 . S
H361 C346 0.951 . S
H362 C348 0.951 . S
H363 C349 0.950 . S
H364 C350 0.950 . S
H365 C351 0.950 . S
H366 C353 0.950 . S
H367 C354 0.951 . S
C368 C369 1.386 . S
C368 C370 1.383 . S
C368 H384 0.951 . S
C369 C368 1.386 . S
C369 C373 1.383 . S
C370 C368 1.383 . S
C370 C371 1.402 . S
C370 H385 0.951 . S
C371 C370 1.402 . S
C371 C372 1.375 . S
C371 C374 1.481 . S
C372 C371 1.375 . S
C372 C373 1.367 . S
C372 H386 0.951 . S
C373 C369 1.383 . S
C373 C372 1.367 . S
C373 H387 0.950 . S
C374 C371 1.481 . S
C374 C375 1.297 . S
C374 H388 0.950 . S
C375 C374 1.297 . S
C375 C376 1.479 . S
C375 H389 0.950 . S
C376 C375 1.479 . S
C376 C377 1.375 . S
C376 C382 1.404 . S
C377 C376 1.375 . S
C377 C378 1.369 . S
C377 H390 0.950 . S
C378 C377 1.369 . S
C378 C379 1.392 . S
C378 H391 0.951 . S
C379 C378 1.392 . S
C379 C381 1.384 . S
H380 C382 0.949 . S
C381 C379 1.384 . S
C381 C382 1.385 . S
C381 H383 0.950 . S
C382 C376 1.404 . S
C382 H380 0.949 . S
C382 C381 1.385 . S
H383 C381 0.950 . S
H384 C368 0.951 . S
H385 C370 0.951 . S
H386 C372 0.951 . S
H387 C373 0.950 . S
H388 C374 0.950 . S
H389 C375 0.950 . S
H390 C377 0.950 . S
H391 C378 0.951 . S
C392 C393 1.386 . S
C392 C394 1.383 . S
C392 H408 0.951 . S
C393 C392 1.386 . S
C393 C397 1.383 . S
C394 C392 1.383 . S
C394 C395 1.402 . S
C394 H409 0.951 . S
C395 C394 1.402 . S
C395 C396 1.375 . S
C395 C398 1.481 . S
C396 C395 1.375 . S
C396 C397 1.367 . S
C396 H410 0.951 . S
C397 C393 1.383 . S
C397 C396 1.367 . S
C397 H411 0.950 . S
C398 C395 1.481 . S
C398 C399 1.297 . S
C398 H412 0.950 . S
C399 C398 1.297 . S
C399 C400 1.479 . S
C399 H413 0.950 . S
C400 C399 1.479 . S
C400 C401 1.375 . S
C400 C406 1.404 . S
C401 C400 1.375 . S
C401 C402 1.369 . S
C401 H414 0.950 . S
C402 C401 1.369 . S
C402 C403 1.392 . S
C402 H415 0.951 . S
C403 C402 1.392 . S
C403 C405 1.384 . S
H404 C406 0.949 . S
C405 C403 1.384 . S
C405 C406 1.385 . S
C405 H407 0.950 . S
C406 C400 1.404 . S
C406 H404 0.949 . S
C406 C405 1.385 . S
H407 C405 0.950 . S
H408 C392 0.951 . S
H409 C394 0.951 . S
H410 C396 0.951 . S
H411 C397 0.950 . S
H412 C398 0.950 . S
H413 C399 0.950 . S
H414 C401 0.950 . S
H415 C402 0.951 . S
C416 C417 1.386 . S
C416 C418 1.383 . S
C416 H432 0.951 . S
C417 C416 1.386 . S
C417 C421 1.383 . S
C418 C416 1.383 . S
C418 C419 1.402 . S
C418 H433 0.951 . S
C419 C418 1.402 . S
C419 C420 1.375 . S
C419 C422 1.481 . S
C420 C419 1.375 . S
C420 C421 1.367 . S
C420 H434 0.951 . S
C421 C417 1.383 . S
C421 C420 1.367 . S
C421 H435 0.950 . S
C422 C419 1.481 . S
C422 C423 1.297 . S
C422 H436 0.950 . S
C423 C422 1.297 . S
C423 C424 1.479 . S
C423 H437 0.950 . S
C424 C423 1.479 . S
C424 C425 1.375 . S
C424 C430 1.404 . S
C425 C424 1.375 . S
C425 C426 1.369 . S
C425 H438 0.950 . S
C426 C425 1.369 . S
C426 C427 1.392 . S
C426 H439 0.951 . S
C427 C426 1.392 . S
C427 C429 1.384 . S
H428 C430 0.949 . S
C429 C427 1.384 . S
C429 C430 1.385 . S
C429 H431 0.950 . S
C430 C424 1.404 . S
C430 H428 0.949 . S
C430 C429 1.385 . S
H431 C429 0.950 . S
H432 C416 0.951 . S
H433 C418 0.951 . S
H434 C420 0.951 . S
H435 C421 0.950 . S
H436 C422 0.950 . S
H437 C423 0.950 . S
H438 C425 0.950 . S
H439 C426 0.951 . S
C440 C441 1.386 . S
C440 C442 1.383 . S
C440 H456 0.951 . S
C441 C440 1.386 . S
C441 C445 1.383 . S
C442 C440 1.383 . S
C442 C443 1.402 . S
C442 H457 0.951 . S
C443 C442 1.402 . S
C443 C444 1.375 . S
C443 C446 1.481 . S
C444 C443 1.375 . S
C444 C445 1.367 . S
C444 H458 0.951 . S
C445 C441 1.383 . S
C445 C444 1.367 . S
C445 H459 0.950 . S
C446 C443 1.481 . S
C446 C447 1.297 . S
C446 H460 0.950 . S
C447 C446 1.297 . S
C447 C448 1.479 . S
C447 H461 0.950 . S
C448 C447 1.479 . S
C448 C449 1.375 . S
C448 C454 1.404 . S
C449 C448 1.375 . S
C449 C450 1.369 . S
C449 H462 0.950 . S
C450 C449 1.369 . S
C450 C451 1.392 . S
C450 H463 0.951 . S
C451 C450 1.392 . S
C451 C453 1.384 . S
H452 C454 0.949 . S
C453 C451 1.384 . S
C453 C454 1.385 . S
C453 H455 0.950 . S
C454 C448 1.404 . S
C454 H452 0.949 . S
C454 C453 1.385 . S
H455 C453 0.950 . S
H456 C440 0.951 . S
H457 C442 0.951 . S
H458 C444 0.951 . S
H459 C445 0.950 . S
H460 C446 0.950 . S
H461 C447 0.950 . S
H462 C449 0.950 . S
H463 C450 0.951 . S
C464 C465 1.386 . S
C464 C466 1.383 . S
C464 H480 0.951 . S
C465 C464 1.386 . S
C465 C469 1.383 . S
C466 C464 1.383 . S
C466 C467 1.402 . S
C466 H481 0.951 . S
C467 C466 1.402 . S
C467 C468 1.375 . S
C467 C470 1.481 . S
C468 C467 1.375 . S
C468 C469 1.367 . S
C468 H482 0.951 . S
C469 C465 1.383 . S
C469 C468 1.367 . S
C469 H483 0.950 . S
C470 C467 1.481 . S
C470 C471 1.297 . S
C470 H484 0.950 . S
C471 C470 1.297 . S
C471 C472 1.479 . S
C471 H485 0.950 . S
C472 C471 1.479 . S
C472 C473 1.375 . S
C472 C478 1.404 . S
C473 C472 1.375 . S
C473 C474 1.369 . S
C473 H486 0.950 . S
C474 C473 1.369 . S
C474 C475 1.392 . S
C474 H487 0.951 . S
C475 C474 1.392 . S
C475 C477 1.384 . S
H476 C478 0.949 . S
C477 C475 1.384 . S
C477 C478 1.385 . S
C477 H479 0.950 . S
C478 C472 1.404 . S
C478 H476 0.949 . S
C478 C477 1.385 . S
H479 C477 0.950 . S
H480 C464 0.951 . S
H481 C466 0.951 . S
H482 C468 0.951 . S
H483 C469 0.950 . S
H484 C470 0.950 . S
H485 C471 0.950 . S
H486 C473 0.950 . S
H487 C474 0.951 . S
C488 C489 1.386 . S
C488 C490 1.383 . S
C488 H504 0.951 . S
C489 C488 1.386 . S
C489 C493 1.383 . S
C490 C488 1.383 . S
C490 C491 1.402 . S
C490 H505 0.951 . S
C491 C490 1.402 . S
C491 C492 1.375 . S
C491 C494 1.481 . S
C492 C491 1.375 . S
C492 C493 1.367 . S
C492 H506 0.951 . S
C493 C489 1.383 . S
C493 C492 1.367 . S
C493 H507 0.950 . S
C494 C491 1.481 . S
C494 C495 1.297 . S
C494 H508 0.950 . S
C495 C494 1.297 . S
C495 C496 1.479 . S
C495 H509 0.950 . S
C496 C495 1.479 . S
C496 C497 1.375 . S
C496 C502 1.404 . S
C497 C496 1.375 . S
C497 C498 1.369 . S
C497 H510 0.950 . S
C498 C497 1.369 . S
C498 C499 1.392 . S
C498 H511 0.951 . S
C499 C498 1.392 . S
C499 C501 1.384 . S
H500 C502 0.949 . S
C501 C499 1.384 . S
C501 C502 1.385 . S
C501 H503 0.950 1_455 S
C502 C496 1.404 . S
C502 H500 0.949 . S
C502 C501 1.385 . S
H503 C501 0.950 1_655 S
H504 C488 0.951 . S
H505 C490 0.951 . S
H506 C492 0.951 . S
H507 C493 0.950 . S
H508 C494 0.950 . S
H509 C495 0.950 . S
H510 C497 0.950 . S
H511 C498 0.951 . S
C235 C160 1.641 . S
C225 C138 1.626 . S
C249 C21 1.564 . S
C259 C203 1.565 . S
C273 C60 1.623 . S
C283 C169 1.632 . S
C297 C99 1.529 . S
C307 C194 1.567 . S
C331 C156 1.603 . S
C321 C16 1.609 . S
C355 C198 1.714 . S
C345 C40 1.661 . S
C369 C79 1.604 . S
C379 C164 1.595 . S
C393 C133 1.688 . S
C403 C190 1.700 . S
C427 C219 1.688 . S
C417 C55 1.680 . S
C451 C185 1.615 . S
C441 C94 1.609 . S
C475 C207 1.697 . S
C465 C118 1.657 . S
C489 C1 1.608 . S
C499 C173 1.588 . S
