# Generated by pormake.
# Topology ptr, (4,4)-cn, num edge types: 1
# Building blocks:
#     Node 0, Type 0, BuildingBlock: CEKHIL_clean_sbu_0, # of connection points: 4
#     Node 1, Type 0, BuildingBlock: CEKHIL_clean_sbu_0, # of connection points: 4
#     Node 2, Type 0, BuildingBlock: CEKHIL_clean_sbu_0, # of connection points: 4
#     Node 3, Type 0, BuildingBlock: CEKHIL_clean_sbu_0, # of connection points: 4
#     Node 4, Type 0, BuildingBlock: CEKHIL_clean_sbu_0, # of connection points: 4
#     Node 5, Type 0, BuildingBlock: CEKHIL_clean_sbu_0, # of connection points: 4
#     Node 6, Type 0, BuildingBlock: CEKHIL_clean_sbu_0, # of connection points: 4
#     Node 7, Type 0, BuildingBlock: CEKHIL_clean_sbu_0, # of connection points: 4
#     Node 8, Type 0, BuildingBlock: CEKHIL_clean_sbu_0, # of connection points: 4
#     Node 9, Type 0, BuildingBlock: CEKHIL_clean_sbu_0, # of connection points: 4
#     Node 10, Type 0, BuildingBlock: CEKHIL_clean_sbu_0, # of connection points: 4
#     Node 11, Type 0, BuildingBlock: CEKHIL_clean_sbu_0, # of connection points: 4
#     Node 12, Type 0, BuildingBlock: CEKHIL_clean_sbu_0, # of connection points: 4
#     Node 13, Type 0, BuildingBlock: CEKHIL_clean_sbu_0, # of connection points: 4
#     Node 14, Type 0, BuildingBlock: CEKHIL_clean_sbu_0, # of connection points: 4
#     Node 15, Type 0, BuildingBlock: CEKHIL_clean_sbu_0, # of connection points: 4
#     Node 16, Type 0, BuildingBlock: CEKHIL_clean_sbu_0, # of connection points: 4
#     Node 17, Type 0, BuildingBlock: CEKHIL_clean_sbu_0, # of connection points: 4
#     Node 18, Type 1, BuildingBlock: KUFVIS_clean_linker_0, # of connection points: 4
#     Node 19, Type 1, BuildingBlock: KUFVIS_clean_linker_0, # of connection points: 4
#     Node 20, Type 1, BuildingBlock: KUFVIS_clean_linker_0, # of connection points: 4
#     Node 21, Type 1, BuildingBlock: KUFVIS_clean_linker_0, # of connection points: 4
#     Node 22, Type 1, BuildingBlock: KUFVIS_clean_linker_0, # of connection points: 4
#     Node 23, Type 1, BuildingBlock: KUFVIS_clean_linker_0, # of connection points: 4
#     Node 24, Type 1, BuildingBlock: KUFVIS_clean_linker_0, # of connection points: 4
#     Node 25, Type 1, BuildingBlock: KUFVIS_clean_linker_0, # of connection points: 4
#     Node 26, Type 1, BuildingBlock: KUFVIS_clean_linker_0, # of connection points: 4
#     Node 27, Type 1, BuildingBlock: KUFVIS_clean_linker_0, # of connection points: 4
#     Node 28, Type 1, BuildingBlock: KUFVIS_clean_linker_0, # of connection points: 4
#     Node 29, Type 1, BuildingBlock: KUFVIS_clean_linker_0, # of connection points: 4
#     Node 30, Type 1, BuildingBlock: KUFVIS_clean_linker_0, # of connection points: 4
#     Node 31, Type 1, BuildingBlock: KUFVIS_clean_linker_0, # of connection points: 4
#     Node 32, Type 1, BuildingBlock: KUFVIS_clean_linker_0, # of connection points: 4
#     Node 33, Type 1, BuildingBlock: KUFVIS_clean_linker_0, # of connection points: 4
#     Node 34, Type 1, BuildingBlock: KUFVIS_clean_linker_0, # of connection points: 4
#     Node 35, Type 1, BuildingBlock: KUFVIS_clean_linker_0, # of connection points: 4
#     Edge 36, Type (0, 1), None
#     Edge 37, Type (0, 1), None
#     Edge 38, Type (0, 1), None
#     Edge 39, Type (0, 1), None
#     Edge 40, Type (0, 1), None
#     Edge 41, Type (0, 1), None
#     Edge 42, Type (0, 1), None
#     Edge 43, Type (0, 1), None
#     Edge 44, Type (0, 1), None
#     Edge 45, Type (0, 1), None
#     Edge 46, Type (0, 1), None
#     Edge 47, Type (0, 1), None
#     Edge 48, Type (0, 1), None
#     Edge 49, Type (0, 1), None
#     Edge 50, Type (0, 1), None
#     Edge 51, Type (0, 1), None
#     Edge 52, Type (0, 1), None
#     Edge 53, Type (0, 1), None
#     Edge 54, Type (0, 1), None
#     Edge 55, Type (0, 1), None
#     Edge 56, Type (0, 1), None
#     Edge 57, Type (0, 1), None
#     Edge 58, Type (0, 1), None
#     Edge 59, Type (0, 1), None
#     Edge 60, Type (0, 1), None
#     Edge 61, Type (0, 1), None
#     Edge 62, Type (0, 1), None
#     Edge 63, Type (0, 1), None
#     Edge 64, Type (0, 1), None
#     Edge 65, Type (0, 1), None
#     Edge 66, Type (0, 1), None
#     Edge 67, Type (0, 1), None
#     Edge 68, Type (0, 1), None
#     Edge 69, Type (0, 1), None
#     Edge 70, Type (0, 1), None
#     Edge 71, Type (0, 1), None
#     Edge 72, Type (0, 1), None
#     Edge 73, Type (0, 1), None
#     Edge 74, Type (0, 1), None
#     Edge 75, Type (0, 1), None
#     Edge 76, Type (0, 1), None
#     Edge 77, Type (0, 1), None
#     Edge 78, Type (0, 1), None
#     Edge 79, Type (0, 1), None
#     Edge 80, Type (0, 1), None
#     Edge 81, Type (0, 1), None
#     Edge 82, Type (0, 1), None
#     Edge 83, Type (0, 1), None
#     Edge 84, Type (0, 1), None
#     Edge 85, Type (0, 1), None
#     Edge 86, Type (0, 1), None
#     Edge 87, Type (0, 1), None
#     Edge 88, Type (0, 1), None
#     Edge 89, Type (0, 1), None
#     Edge 90, Type (0, 1), None
#     Edge 91, Type (0, 1), None
#     Edge 92, Type (0, 1), None
#     Edge 93, Type (0, 1), None
#     Edge 94, Type (0, 1), None
#     Edge 95, Type (0, 1), None
#     Edge 96, Type (0, 1), None
#     Edge 97, Type (0, 1), None
#     Edge 98, Type (0, 1), None
#     Edge 99, Type (0, 1), None
#     Edge 100, Type (0, 1), None
#     Edge 101, Type (0, 1), None
#     Edge 102, Type (0, 1), None
#     Edge 103, Type (0, 1), None
#     Edge 104, Type (0, 1), None
#     Edge 105, Type (0, 1), None
#     Edge 106, Type (0, 1), None
#     Edge 107, Type (0, 1), None
# Relax obj value: 0.046
# Max RMSD: 0.111
# Mean RMSD: 0.082
data_MOF--net-ptr--node1-CEKHIL_clean_sbu_0--node2-KUFVIS_clean_linker_0--edge1-none
_symmetry_space_group_name_H-M    P1
_symmetry_Int_Tables_number       1
_symmetry_cell_setting            triclinic
loop_
_symmetry_equiv_pos_as_xyz
'x, y, z'
_cell_length_a     35.162664
_cell_length_b     34.286758
_cell_length_c     23.864163
_cell_angle_alpha  90.311393
_cell_angle_beta   89.926638
_cell_angle_gamma 122.19732
loop_
_atom_site_label
_atom_site_type_symbol
_atom_site_fract_x
_atom_site_fract_y
_atom_site_fract_z
_atom_type_partial_charge
Co0 Co 0.04466 0.36514 -0.01606 0.0
O1 O 0.0505 0.3292 0.03972 0.0
O2 O 0.10828 0.39234 0.00384 0.0
C3 C 0.996 0.30524 0.9294 0.0
O4 O 0.04922 0.40978 0.92306 0.0
Co5 Co 0.95145 0.35378 0.97021 0.0
O6 O 0.98096 0.40014 0.91061 0.0
C7 C 1.00927 0.40996 0.06256 0.0
C8 C 0.09345 0.35861 0.03948 0.0
C9 C 1.02258 0.42005 0.89928 0.0
O10 O 1.03982 0.40357 0.04399 0.0
O11 O 0.96984 0.3907 0.04158 0.0
O12 O 1.03899 0.32237 0.9264 0.0
O13 O 0.98343 0.32153 0.96947 0.0
Co14 Co 0.72033 0.71194 -0.01614 0.0
O15 O 0.76403 0.7477 0.92747 0.0
O16 O 0.75847 0.68771 0.96981 0.0
C17 C 0.7289 0.77144 0.03537 0.0
O18 O 0.67958 0.66751 0.04531 0.0
Co19 Co 0.63438 0.71516 -0.00716 0.0
O20 O 0.61592 0.66824 0.05154 0.0
C21 C 0.63765 0.65593 0.90736 0.0
C22 C 0.77836 0.71999 0.93243 0.0
C23 C 0.64015 0.65271 0.06595 0.0
O24 O 0.6774 0.66915 0.92444 0.0
O25 O 0.61467 0.6717 0.92717 0.0
O26 O 0.75658 0.75747 0.0401 0.0
O27 O 0.70008 0.75278 -0.00538 0.0
Co28 Co 0.38015 1.02906 -0.01633 0.0
O29 O 0.34366 0.03323 0.92799 0.0
O30 O 0.40541 0.09357 0.96293 0.0
C31 C 0.32449 0.98041 0.04136 0.0
O32 O 0.42498 0.03684 0.04419 0.0
Co33 Co 0.37307 0.93586 -0.00057 0.0
O34 O 0.41643 0.96783 0.06096 0.0
C35 C 0.42415 0.9932 0.90471 0.0
C36 C 0.37197 0.07748 0.92783 0.0
C37 C 0.43509 1.01075 0.0706 0.0
O38 O 0.41709 1.02396 0.92321 0.0
O39 O 0.40743 0.95355 0.92699 0.0
O40 O 0.33989 1.02429 0.04131 0.0
O41 O 0.33886 0.96591 0.00108 0.0
Co42 Co 0.04378 0.7016 -0.01125 0.0
O43 O 1.03792 0.73753 0.93297 0.0
O44 O 0.98015 0.67436 0.96883 0.0
C45 C 0.0924 0.76152 0.0433 0.0
O46 O 1.03924 0.65698 0.04963 0.0
Co47 Co 0.13702 0.71304 0.00251 0.0
O48 O 0.10753 0.66668 0.06212 0.0
C49 C 0.07924 0.65685 0.91015 0.0
C50 C 0.99497 0.70809 0.9332 0.0
C51 C 0.0659 0.64674 0.07343 0.0
O52 O 0.04867 0.6632 0.92871 0.0
O53 O 0.11867 0.67614 0.93113 0.0
O54 O 0.0494 0.74435 0.04629 0.0
O55 O 0.105 0.74524 0.00324 0.0
Co56 Co 0.36817 0.35487 -0.01118 0.0
O57 O 0.32447 0.31908 0.04521 0.0
O58 O 0.32997 0.37903 0.00285 0.0
C59 C 0.35967 0.2954 0.93732 0.0
O60 O 0.4089 0.39932 0.92736 0.0
Co61 Co 0.45418 0.35177 -0.02014 0.0
O62 O 0.47261 0.39868 0.92115 0.0
C63 C 0.45082 0.41096 0.06532 0.0
C64 C 0.3101 0.34676 0.04024 0.0
C65 C 0.44833 0.41417 0.90674 0.0
O66 O 0.41106 0.3977 0.04823 0.0
O67 O 0.47385 0.39523 0.04552 0.0
O68 O 0.33196 0.30932 0.93257 0.0
O69 O 0.38848 0.31409 -0.02193 0.0
Co70 Co 0.70825 0.03763 -0.01104 0.0
O71 O 0.74482 0.03359 0.04465 0.0
O72 O 0.68316 0.97314 0.00969 0.0
C73 C 0.76387 0.08639 0.93129 0.0
O74 O 0.66337 1.0297 0.92843 0.0
Co75 Co 0.71504 0.13068 0.97319 0.0
O76 O 0.67167 0.0986 0.9117 0.0
C77 C 0.66406 0.07326 0.06792 0.0
C78 C 0.71659 0.98933 0.04481 0.0
C79 C 0.65314 0.0557 0.90206 0.0
O80 O 0.67122 0.04258 0.04941 0.0
O81 O 0.68068 0.1129 0.04564 0.0
O82 O 0.74858 0.04254 0.93133 0.0
O83 O 0.74941 0.1008 0.97156 0.0
Co84 Co 0.71124 0.69853 0.31727 0.0
O85 O 0.71705 0.66257 0.37305 0.0
O86 O 0.77485 0.72572 0.3372 0.0
C87 C 0.6626 0.63863 0.26271 0.0
O88 O 0.71583 0.74317 0.25639 0.0
Co89 Co 0.61803 0.68717 0.30348 0.0
O90 O 0.64757 0.73354 0.2439 0.0
C91 C 0.67582 0.74332 0.39586 0.0
C92 C 0.76 0.69198 0.37283 0.0
C93 C 0.6892 0.75345 0.23259 0.0
O94 O 0.70637 0.73695 0.3773 0.0
O95 O 0.63639 0.72405 0.37487 0.0
O96 O 0.7056 0.65577 0.25973 0.0
O97 O 0.65001 0.65492 0.30276 0.0
Co98 Co 0.38696 0.04511 0.31721 0.0
O99 O 0.43068 0.08084 0.26082 0.0
O100 O 0.42505 1.02082 0.30318 0.0
C101 C 0.39558 0.10464 0.3687 0.0
O102 O 0.34617 1.0007 0.37866 0.0
Co103 Co 0.30106 0.04841 0.32615 0.0
O104 O 0.28254 1.00149 0.38486 0.0
C105 C 0.30428 0.98915 0.24068 0.0
C106 C 0.44498 0.05309 0.26581 0.0
C107 C 0.30675 0.98593 0.39928 0.0
O108 O 0.34402 1.00233 0.25779 0.0
O109 O 0.28133 1.00495 0.26048 0.0
O110 O 0.42322 0.09063 0.37346 0.0
O111 O 0.36676 0.08599 0.32795 0.0
Co112 Co 0.04698 0.36257 0.31701 0.0
O113 O 1.01045 0.36669 0.26133 0.0
O114 O 0.07216 0.42707 0.29628 0.0
C115 C 0.99133 0.31387 0.37468 0.0
O116 O 0.09183 0.37041 0.37754 0.0
Co117 Co 1.04001 0.26943 0.33278 0.0
O118 O 0.08338 0.30145 0.39429 0.0
C119 C 0.09106 0.3268 0.23806 0.0
C120 C 1.03873 0.41094 0.26118 0.0
C121 C 0.10199 0.34436 0.40393 0.0
O122 O 0.08395 0.35754 0.25656 0.0
O123 O 0.07438 0.28716 0.26034 0.0
O124 O 1.00668 0.35774 0.37465 0.0
O125 O 1.00574 0.29941 0.33441 0.0
Co126 Co 0.71059 0.03504 0.32203 0.0
O127 O 0.70469 0.07094 0.26624 0.0
O128 O 0.64696 1.00775 0.30214 0.0
C129 C 0.7592 0.09498 0.37658 0.0
O130 O 0.70609 0.99044 0.38292 0.0
Co131 Co 0.80386 0.04654 0.33579 0.0
O132 O 0.77439 1.00017 0.3954 0.0
C133 C 0.7461 0.99034 0.24343 0.0
C134 C 0.66175 0.04147 0.26649 0.0
C135 C 0.73276 0.98022 0.40672 0.0
O136 O 0.71551 0.99665 0.262 0.0
O137 O 0.78553 1.00967 0.2644 0.0
O138 O 0.71619 0.07779 0.37957 0.0
O139 O 0.77181 0.07872 0.33652 0.0
Co140 Co 1.03466 0.68817 0.32215 0.0
O141 O 0.99096 0.65238 0.37854 0.0
O142 O 0.99647 0.71235 0.33619 0.0
C143 C 1.02615 0.62869 0.27065 0.0
O144 O 0.07541 0.73262 0.2607 0.0
Co145 Co 0.12066 0.68503 0.3132 0.0
O146 O 0.1391 0.73195 0.2545 0.0
C147 C 0.11732 0.74423 0.39867 0.0
C148 C 0.9766 0.68007 0.37357 0.0
C149 C 0.11484 0.74745 0.24008 0.0
O150 O 0.07756 0.73099 0.38157 0.0
O151 O 0.14033 0.72849 0.37887 0.0
O152 O 0.99845 0.64262 0.2659 0.0
O153 O 0.05496 0.64737 0.3114 0.0
Co154 Co 0.37502 0.37093 0.32234 0.0
O155 O 0.41158 0.36686 0.37801 0.0
O156 O 0.34989 0.30644 0.34308 0.0
C157 C 0.43063 0.41965 0.26464 0.0
O158 O 0.33015 0.36304 0.26183 0.0
Co159 Co 0.3819 0.46403 0.30658 0.0
O160 O 0.33853 0.43198 0.24507 0.0
C161 C 0.33089 0.40663 0.4013 0.0
C162 C 0.38334 0.3226 0.37817 0.0
C163 C 0.31996 0.38907 0.23543 0.0
O164 O 0.33804 0.37593 0.3828 0.0
O165 O 0.34752 0.44627 0.37901 0.0
O166 O 0.41532 0.37579 0.26469 0.0
O167 O 0.41621 0.43409 0.30493 0.0
Co168 Co 0.37785 1.03171 0.6506 0.0
O169 O 0.38362 0.99573 0.70638 0.0
O170 O 0.44146 0.05885 0.67052 0.0
C171 C 0.32916 0.97183 0.59605 0.0
O172 O 0.38248 0.07637 0.58972 0.0
Co173 Co 0.28469 1.02046 0.63685 0.0
O174 O 0.31425 0.06682 0.57725 0.0
C175 C 0.34251 0.07656 0.72922 0.0
C176 C 0.42658 1.02511 0.70615 0.0
C177 C 0.35587 0.08668 0.56593 0.0
O178 O 0.37304 0.07017 0.71064 0.0
O179 O 0.30308 0.05732 0.70825 0.0
O180 O 0.37215 0.98893 0.59306 0.0
O181 O 0.31661 0.98815 0.63611 0.0
Co182 Co 0.05377 0.37858 0.65055 0.0
O183 O 0.09749 0.41435 0.59418 0.0
O184 O 0.09193 0.35435 0.63651 0.0
C185 C 0.06232 0.43807 0.70206 0.0
O186 O 1.013 0.33413 0.71199 0.0
Co187 Co 0.96782 0.38179 0.65948 0.0
O188 O 0.94935 0.33489 0.7182 0.0
C189 C 0.97112 0.32257 0.574 0.0
C190 C 0.11183 0.38664 0.59915 0.0
C191 C 0.97357 0.31935 0.73262 0.0
O192 O 1.01086 0.33578 0.59111 0.0
O193 O 0.94813 0.33834 0.5938 0.0
O194 O 0.09 0.4241 0.70681 0.0
O195 O 1.03352 0.41941 0.6613 0.0
Co196 Co 0.71348 0.69589 0.65033 0.0
O197 O 0.67696 0.70002 0.59465 0.0
O198 O 0.73869 0.76039 0.62958 0.0
C199 C 0.65785 0.64722 0.70803 0.0
O200 O 0.75834 0.70373 0.71084 0.0
Co201 Co 0.70648 0.60273 0.66611 0.0
O202 O 0.74987 0.63475 0.72761 0.0
C203 C 0.75754 0.6601 0.57139 0.0
C204 C 0.70525 0.74427 0.59448 0.0
C205 C 0.76849 0.67767 0.73724 0.0
O206 O 0.75044 0.69083 0.58987 0.0
O207 O 0.74086 0.62046 0.59368 0.0
O208 O 0.67321 0.69109 0.70797 0.0
O209 O 0.67224 0.63274 0.66775 0.0
Co210 Co 0.37729 0.36826 0.6554 0.0
O211 O 0.37142 0.40419 0.59962 0.0
O212 O 0.31366 0.34101 0.63547 0.0
C213 C 0.42588 0.42819 0.70996 0.0
O214 O 0.37275 0.32365 0.71629 0.0
Co215 Co 0.47054 0.37974 0.66919 0.0
O216 O 0.44105 0.33338 0.7288 0.0
C217 C 0.4128 0.32356 0.5768 0.0
C218 C 0.32847 0.37474 0.59985 0.0
C219 C 0.39942 0.31342 0.7401 0.0
O220 O 0.3822 0.32988 0.59536 0.0
O221 O 0.45222 0.34288 0.59779 0.0
O222 O 0.38288 0.411 0.71294 0.0
O223 O 0.4385 0.41192 0.66991 0.0
Co224 Co 0.70143 1.02162 0.65543 0.0
O225 O 0.65773 0.9858 0.7118 0.0
O226 O 0.6632 0.04576 0.66947 0.0
C227 C 0.69297 0.96217 0.60392 0.0
O228 O 0.74218 0.0661 0.594 0.0
Co229 Co 0.78746 1.01855 0.64651 0.0
O230 O 0.80588 0.06544 0.58779 0.0
C231 C 0.78407 0.07771 0.73198 0.0
C232 C 0.64333 1.01346 0.70684 0.0
C233 C 0.78161 0.08094 0.57337 0.0
O234 O 0.74431 0.06444 0.71487 0.0
O235 O 0.8071 0.062 0.71218 0.0
O236 O 0.66525 0.97608 0.59916 0.0
O237 O 0.72177 0.98086 0.64468 0.0
Co238 Co 1.04152 0.70421 0.65569 0.0
O239 O 0.07806 0.70012 0.71136 0.0
O240 O 1.01636 0.63971 0.67642 0.0
C241 C 0.09714 0.75293 0.598 0.0
O242 O 0.99665 0.69633 0.59517 0.0
Co243 Co 0.04842 0.79733 0.63991 0.0
O244 O 1.00504 0.76528 0.57842 0.0
C245 C 0.99739 0.73993 0.73463 0.0
C246 C 0.04981 0.65586 0.71152 0.0
C247 C 0.98646 0.72237 0.56878 0.0
O248 O 1.00453 0.70922 0.71614 0.0
O249 O 1.01405 0.77957 0.71234 0.0
O250 O 0.08181 0.70906 0.59804 0.0
O251 O 0.08272 0.76737 0.63828 0.0
H252 H 0.33651 0.35781 0.14382 0.0
H253 H 0.22906 0.344 0.04204 0.0
H254 H 0.24236 0.38516 0.21645 0.0
H255 H 0.16841 0.33053 0.21687 0.0
H256 H 0.06625 0.34415 0.14293 0.0
H257 H 0.18031 0.3726 0.04296 0.0
C258 C 0.30605 0.35824 0.13984 0.0
C259 C 0.29088 0.37093 0.18583 0.0
C260 C 0.28571 0.35124 0.08743 0.0
C261 C 0.2459 0.35172 0.08222 0.0
C262 C 0.22747 0.36046 0.1301 0.0
C263 C 0.25261 0.37341 0.1806 0.0
C264 C 0.18178 0.35445 0.13026 0.0
C265 C 0.15631 0.33944 0.18042 0.0
C266 C 0.11551 0.33689 0.1849 0.0
C267 C 0.09818 0.34655 0.13868 0.0
C268 C 0.12 0.3575 0.08685 0.0
C269 C 0.16273 0.36281 0.08262 0.0
H270 H 0.73384 1.01836 0.14801 0.0
H271 H 0.70121 0.90001 0.04734 0.0
H272 H 0.73921 0.9091 0.22257 0.0
H273 H 0.69109 0.83305 0.2196 0.0
H274 H 0.71816 0.73986 0.13712 0.0
H275 H 0.72743 0.85104 0.04373 0.0
C276 C 0.72983 0.98481 0.14363 0.0
C277 C 0.73663 0.96539 0.19021 0.0
C278 C 0.71845 0.96242 0.09178 0.0
C279 C 0.71124 0.91777 0.08732 0.0
C280 C 0.71804 0.89705 0.13482 0.0
C281 C 0.73203 0.92244 0.18579 0.0
C282 C 0.71251 0.85026 0.1326 0.0
C283 C 0.70169 0.82352 0.18209 0.0
C284 C 0.70486 0.78441 0.18398 0.0
C285 C 0.71611 0.77019 0.13573 0.0
C286 C 0.72122 0.7921 0.0847 0.0
C287 C 0.72023 0.83265 0.08289 0.0
H288 H 0.34372 1.01185 0.14364 0.0
H289 H 0.25091 0.89033 0.05021 0.0
H290 H 0.22764 0.90481 0.22596 0.0
H291 H 0.19524 0.82768 0.2255 0.0
H292 H 0.06965 0.73381 0.14647 0.0
H293 H 0.17545 0.84194 0.04942 0.0
C294 C 0.31374 0.97752 0.14208 0.0
C295 C 0.2881 0.96006 0.19012 0.0
C296 C 0.30004 0.9535 0.09136 0.0
C297 C 0.2609 0.90887 0.08965 0.0
C298 C 0.23412 0.88971 0.13864 0.0
C299 C 0.24797 0.91679 0.18842 0.0
C300 C 0.19054 0.84334 0.13836 0.0
C301 C 0.17417 0.81753 0.18851 0.0
C302 C 0.13037 0.77835 0.19148 0.0
C303 C 0.10331 0.76397 0.14418 0.0
C304 C 0.1206 0.78464 0.09255 0.0
C305 C 0.16385 0.8248 0.08937 0.0
H306 H 0.35481 0.04853 0.8246 0.0
H307 H 0.38741 0.16683 0.92535 0.0
H308 H 0.34945 0.15782 0.75012 0.0
H309 H 0.39759 0.23386 0.75311 0.0
H310 H 0.37045 0.327 0.83558 0.0
H311 H 0.36119 0.21582 0.92896 0.0
C312 C 0.35884 0.08208 0.829 0.0
C313 C 0.35203 0.10152 0.78244 0.0
C314 C 0.37019 0.10444 0.88087 0.0
C315 C 0.3774 0.1491 0.88536 0.0
C316 C 0.37062 0.16984 0.83787 0.0
C317 C 0.35663 0.14447 0.78689 0.0
C318 C 0.37615 0.21663 0.8401 0.0
C319 C 0.38698 0.24338 0.79061 0.0
C320 C 0.38378 0.28247 0.78873 0.0
C321 C 0.37251 0.29668 0.83697 0.0
C322 C 0.3674 0.27476 0.888 0.0
C323 C 0.3684 0.23422 0.8898 0.0
H324 H 0.74457 0.05503 0.82899 0.0
H325 H 0.83745 0.17648 0.92249 0.0
H326 H 0.8607 0.16203 0.74673 0.0
H327 H 0.89313 0.23917 0.7472 0.0
H328 H 1.01875 0.33294 0.82623 0.0
H329 H 0.91291 0.22485 0.92328 0.0
C330 C 0.77455 0.08935 0.83056 0.0
C331 C 0.80021 0.10681 0.78253 0.0
C332 C 0.78828 0.11334 0.8813 0.0
C333 C 0.82744 0.15796 0.88303 0.0
C334 C 0.85422 0.17713 0.83405 0.0
C335 C 0.84036 0.15006 0.78426 0.0
C336 C 0.89782 0.22348 0.83434 0.0
C337 C 0.9142 0.2493 0.78419 0.0
C338 C 0.95802 0.28845 0.78122 0.0
C339 C 0.98508 0.30281 0.82852 0.0
C340 C 0.96778 0.28214 0.88015 0.0
C341 C 0.92451 0.242 0.88334 0.0
H342 H 0.75192 0.7089 0.82887 0.0
H343 H 0.85939 0.72273 0.93062 0.0
H344 H 0.84608 0.68156 0.75622 0.0
H345 H 0.92004 0.7362 0.75581 0.0
H346 H 1.02218 0.72255 0.82975 0.0
H347 H 0.90812 0.6941 0.92971 0.0
C348 C 0.78238 0.70847 0.83283 0.0
C349 C 0.79756 0.69579 0.78684 0.0
C350 C 0.80274 0.71548 0.88524 0.0
C351 C 0.84254 0.715 0.89045 0.0
C352 C 0.86097 0.70625 0.84257 0.0
C353 C 0.83583 0.6933 0.79207 0.0
C354 C 0.90665 0.71226 0.84241 0.0
C355 C 0.93213 0.72728 0.79225 0.0
C356 C 0.97293 0.72983 0.78778 0.0
C357 C 0.99025 0.72015 0.834 0.0
C358 C 0.96842 0.7092 0.88582 0.0
C359 C 0.9257 0.70389 0.89005 0.0
H360 H 1.00303 0.69114 0.47715 0.0
H361 H 0.89556 0.6773 0.37539 0.0
H362 H 0.90885 0.71844 0.54981 0.0
H363 H 0.83489 0.66379 0.55021 0.0
H364 H 0.73277 0.67749 0.47627 0.0
H365 H 0.84684 0.70595 0.37633 0.0
C366 C 0.97256 0.69156 0.47318 0.0
C367 C 0.95738 0.70423 0.51918 0.0
C368 C 0.95221 0.68456 0.42078 0.0
C369 C 0.9124 0.68503 0.41557 0.0
C370 C 0.89397 0.69376 0.46345 0.0
C371 C 0.9191 0.7067 0.51396 0.0
C372 C 0.84828 0.68775 0.46361 0.0
C373 C 0.8228 0.67272 0.51377 0.0
C374 C 0.782 0.67018 0.51824 0.0
C375 C 0.7647 0.67987 0.47202 0.0
C376 C 0.78653 0.69084 0.42021 0.0
C377 C 0.82925 0.69615 0.41599 0.0
H378 H 0.40055 0.3516 0.48139 0.0
H379 H 0.36797 0.23329 0.38067 0.0
H380 H 0.40593 0.24234 0.55591 0.0
H381 H 0.3578 0.1663 0.55292 0.0
H382 H 0.38482 0.07307 0.47046 0.0
H383 H 0.39416 0.18428 0.37706 0.0
C384 C 0.39654 0.31805 0.477 0.0
C385 C 0.40334 0.29862 0.52357 0.0
C386 C 0.38518 0.29568 0.42514 0.0
C387 C 0.37799 0.25103 0.42065 0.0
C388 C 0.38478 0.2303 0.46816 0.0
C389 C 0.39875 0.25568 0.51914 0.0
C390 C 0.37924 0.18351 0.46593 0.0
C391 C 0.3684 0.15676 0.51542 0.0
C392 C 0.37155 0.11765 0.51731 0.0
C393 C 0.38279 0.1034 0.46907 0.0
C394 C 0.38791 0.12532 0.41803 0.0
C395 C 0.38695 0.16588 0.41622 0.0
H396 H 1.0106 0.34525 0.47698 0.0
H397 H 0.91772 0.2238 0.38349 0.0
H398 H 0.89446 0.23826 0.55925 0.0
H399 H 0.86203 0.16114 0.55879 0.0
H400 H 0.73642 0.06733 0.47977 0.0
H401 H 0.84227 0.17539 0.3827 0.0
C402 C 0.98061 0.31093 0.47541 0.0
C403 C 0.95495 0.29348 0.52344 0.0
C404 C 0.96689 0.28694 0.42467 0.0
C405 C 0.92773 0.24232 0.42295 0.0
C406 C 0.90094 0.22316 0.47193 0.0
C407 C 0.9148 0.25023 0.52172 0.0
C408 C 0.85734 0.1768 0.47165 0.0
C409 C 0.84096 0.151 0.5218 0.0
C410 C 0.79714 0.11184 0.52477 0.0
C411 C 0.77009 0.09747 0.47747 0.0
C412 C 0.7874 0.11812 0.42583 0.0
C413 C 0.83066 0.15826 0.42264 0.0
H414 H 1.02165 0.382 0.15795 0.0
H415 H 0.05403 0.50023 0.25868 0.0
H416 H 1.01608 0.49116 0.08344 0.0
H417 H 0.06413 0.56722 0.08643 0.0
H418 H 1.03689 0.66028 0.1689 0.0
H419 H 1.02774 0.54915 0.26228 0.0
C420 C 1.02562 0.41553 0.16233 0.0
C421 C 1.01878 0.43493 0.11577 0.0
C422 C 1.03692 0.43788 0.2142 0.0
C423 C 0.04405 0.4825 0.21869 0.0
C424 C 1.03724 0.50321 0.17119 0.0
C425 C 1.0233 0.47784 0.1202 0.0
C426 C 1.0427 0.54997 0.17342 0.0
C427 C 0.0535 0.57671 0.12393 0.0
C428 C 0.05026 0.61578 0.12205 0.0
C429 C 1.03897 0.62998 0.17028 0.0
C430 C 1.03388 0.60806 0.22132 0.0
C431 C 1.03493 0.56755 0.22312 0.0
H432 H 0.41137 0.38823 0.16235 0.0
H433 H 0.50413 0.50976 0.2558 0.0
H434 H 0.52741 0.49533 0.08005 0.0
H435 H 0.55976 0.57247 0.08051 0.0
H436 H 0.68534 0.66635 0.15955 0.0
H437 H 0.57957 0.55819 0.25659 0.0
C438 C 0.44133 0.42257 0.16391 0.0
C439 C 0.46697 0.44006 0.11588 0.0
C440 C 0.45504 0.44658 0.21464 0.0
C441 C 0.49415 0.49123 0.21635 0.0
C442 C 0.52092 0.51042 0.16737 0.0
C443 C 0.50708 0.48334 0.11758 0.0
C444 C 0.56448 0.5568 0.16765 0.0
C445 C 0.58083 0.58262 0.1175 0.0
C446 C 0.62463 0.62181 0.11454 0.0
C447 C 0.65169 0.63619 0.16184 0.0
C448 C 0.6344 0.61551 0.21347 0.0
C449 C 0.59116 0.57534 0.21665 0.0
H450 H 0.41849 0.04191 0.16226 0.0
H451 H 0.52603 0.05588 0.26397 0.0
H452 H 0.5127 1.01466 0.08958 0.0
H453 H 0.58663 0.06937 0.08913 0.0
H454 H 0.68895 0.05598 0.16303 0.0
H455 H 0.57483 1.02732 0.26303 0.0
C456 C 0.44896 0.0415 0.16622 0.0
C457 C 0.46415 1.02884 0.12022 0.0
C458 C 0.46933 0.04854 0.21861 0.0
C459 C 0.50916 0.04811 0.22381 0.0
C460 C 0.52759 0.03937 0.17593 0.0
C461 C 0.50244 1.02639 0.12543 0.0
C462 C 0.57331 0.04545 0.17574 0.0
C463 C 0.59876 0.06049 0.12557 0.0
C464 C 0.6396 0.06314 0.12108 0.0
C465 C 0.65698 0.05352 0.1673 0.0
C466 C 0.63516 0.04254 0.21912 0.0
C467 C 0.59241 0.03713 0.22336 0.0
H468 H 0.66976 1.02453 0.81041 0.0
H469 H 0.56223 1.01058 0.70867 0.0
H470 H 0.57546 0.05165 0.88311 0.0
H471 H 0.50152 0.99695 0.8835 0.0
H472 H 0.39931 1.01051 0.80959 0.0
H473 H 0.51344 0.03914 0.70964 0.0
C474 C 0.63927 1.02492 0.80645 0.0
C475 C 0.62406 0.03754 0.85245 0.0
C476 C 0.61892 1.01791 0.75404 0.0
C477 C 0.57907 1.01831 0.74884 0.0
C478 C 0.56061 1.02699 0.79674 0.0
C479 C 0.58574 0.03995 0.84724 0.0
C480 C 0.5149 1.02092 0.79691 0.0
C481 C 0.48942 1.00586 0.84707 0.0
C482 C 0.4486 1.00327 0.85154 0.0
C483 C 0.43126 1.01293 0.80533 0.0
C484 C 0.4531 1.02394 0.75352 0.0
C485 C 0.49584 1.0293 0.74929 0.0
H486 H 0.06691 0.68483 0.81474 0.0
H487 H 1.03452 0.56658 0.71402 0.0
H488 H 0.07245 0.57565 0.88927 0.0
H489 H 1.0244 0.49959 0.88628 0.0
H490 H 0.05157 0.40649 0.80381 0.0
H491 H 0.06078 0.51764 0.71042 0.0
C492 C 0.06294 0.65129 0.81036 0.0
C493 C 0.06976 0.63189 0.85693 0.0
C494 C 0.05163 0.62894 0.75849 0.0
C495 C 0.04449 0.58431 0.75401 0.0
C496 C 0.0513 0.5636 0.80151 0.0
C497 C 0.06524 0.58897 0.8525 0.0
C498 C 0.04583 0.51684 0.79929 0.0
C499 C 1.03502 0.49009 0.84877 0.0
C500 C 1.03823 0.45101 0.85066 0.0
C501 C 0.04951 0.4368 0.80242 0.0
C502 C 0.05461 0.45872 0.75139 0.0
C503 C 0.05358 0.49924 0.74958 0.0
H504 H 0.67708 0.67866 0.81031 0.0
H505 H 0.58433 0.55712 0.71687 0.0
H506 H 0.56105 0.57156 0.89263 0.0
H507 H 0.5287 0.49444 0.89217 0.0
H508 H 0.40314 0.40049 0.81313 0.0
H509 H 0.50889 0.50867 0.71608 0.0
C510 C 0.64712 0.64432 0.80875 0.0
C511 C 0.62148 0.62684 0.85679 0.0
C512 C 0.63342 0.62031 0.75803 0.0
C513 C 0.59431 0.57566 0.75632 0.0
C514 C 0.56754 0.55648 0.80531 0.0
C515 C 0.58137 0.58356 0.85509 0.0
C516 C 0.52398 0.51009 0.80503 0.0
C517 C 0.50763 0.48427 0.85518 0.0
C518 C 0.46384 0.44506 0.85814 0.0
C519 C 0.43679 0.43066 0.81083 0.0
C520 C 0.45408 0.45134 0.75921 0.0
C521 C 0.49731 0.49152 0.75603 0.0
H522 H 0.68805 0.71527 0.49127 0.0
H523 H 0.72069 0.83361 0.59197 0.0
H524 H 0.68276 0.82459 0.41672 0.0
H525 H 0.7309 0.90063 0.41972 0.0
H526 H 0.70384 0.99383 0.5022 0.0
H527 H 0.69445 0.88258 0.59556 0.0
C528 C 0.69208 0.74883 0.49565 0.0
C529 C 0.6853 0.76827 0.44908 0.0
C530 C 0.70344 0.7712 0.54751 0.0
C531 C 0.71067 0.81587 0.55198 0.0
C532 C 0.7039 0.8366 0.50448 0.0
C533 C 0.68992 0.81123 0.4535 0.0
C534 C 0.70945 0.8834 0.5067 0.0
C535 C 0.72029 0.91016 0.45722 0.0
C536 C 0.71713 0.94927 0.45534 0.0
C537 C 0.70588 0.9635 0.50358 0.0
C538 C 0.70072 0.94155 0.5546 0.0
C539 C 0.70169 0.901 0.5564 0.0
H540 H 0.07787 0.72151 0.4957 0.0
H541 H 0.17066 0.84303 0.58916 0.0
H542 H 0.19392 0.82859 0.41339 0.0
H543 H 0.22631 0.90573 0.41386 0.0
H544 H 0.35191 0.99955 0.4929 0.0
H545 H 0.2461 0.89143 0.58993 0.0
C546 C 0.10783 0.75585 0.49727 0.0
C547 C 0.13347 0.77333 0.44922 0.0
C548 C 0.12154 0.77985 0.548 0.0
C549 C 0.16066 0.8245 0.5497 0.0
C550 C 0.18743 0.84368 0.50072 0.0
C551 C 0.17359 0.8166 0.45093 0.0
C552 C 0.23101 0.89005 0.501 0.0
C553 C 0.24738 0.91587 0.45085 0.0
C554 C 0.29119 0.95504 0.44788 0.0
C555 C 0.31824 0.96941 0.49519 0.0
C556 C 0.30094 0.94873 0.54681 0.0
C557 C 0.25769 0.90859 0.54999 0.0
H558 H 0.08541 0.37557 0.49557 0.0
H559 H 0.19287 0.38939 0.59733 0.0
H560 H 0.17959 0.34827 0.42291 0.0
H561 H 0.25355 0.40293 0.42252 0.0
H562 H 0.35566 0.38919 0.49639 0.0
H563 H 0.24162 0.36076 0.59639 0.0
C564 C 0.11587 0.37514 0.49954 0.0
C565 C 0.13106 0.36248 0.45354 0.0
C566 C 0.13622 0.38213 0.55195 0.0
C567 C 0.17603 0.38166 0.55716 0.0
C568 C 0.19446 0.37294 0.50927 0.0
C569 C 0.16933 0.36 0.45876 0.0
C570 C 0.24016 0.37895 0.5091 0.0
C571 C 0.26563 0.39398 0.45895 0.0
C572 C 0.30642 0.39652 0.45445 0.0
C573 C 0.32373 0.38681 0.50066 0.0
C574 C 0.30191 0.37585 0.55248 0.0
C575 C 0.2592 0.37056 0.55672 0.0
loop_
_geom_bond_atom_site_label_1
_geom_bond_atom_site_label_2
_geom_bond_distance
_geom_bond_site_symmetry_2
_ccdc_geom_bond_type
Co0 O1 2.216 . S
Co0 O2 2.091 . S
Co0 O4 2.004 1_554 S
Co0 O10 2.021 . S
Co0 O12 2.137 1_454 S
Co0 O13 2.244 1_455 S
O1 Co0 2.216 . S
O1 C8 1.247 . S
O2 Co0 2.091 . S
O2 C8 1.261 . S
C3 O12 1.247 . S
C3 O13 1.272 1_556 S
O4 Co0 2.004 1_556 S
O4 C9 1.259 1_455 S
Co5 O6 2.061 1_554 S
Co5 O11 2.052 . S
Co5 O13 2.135 . S
O6 Co5 2.061 1_556 S
O6 C9 1.235 . S
C7 O10 1.238 1_655 S
C7 O11 1.241 . S
C8 O1 1.247 . S
C8 O2 1.261 . S
C9 O4 1.259 1_655 S
C9 O6 1.235 . S
O10 Co0 2.021 . S
O10 C7 1.238 1_455 S
O11 Co5 2.052 . S
O11 C7 1.241 . S
O12 Co0 2.137 1_656 S
O12 C3 1.247 . S
O13 Co0 2.244 1_655 S
O13 C3 1.272 1_554 S
O13 Co5 2.135 . S
Co14 O15 2.216 1_554 S
Co14 O16 2.091 . S
Co14 O18 2.004 . S
Co14 O24 2.021 1_554 S
Co14 O26 2.137 . S
Co14 O27 2.244 . S
O15 Co14 2.216 1_556 S
O15 C22 1.247 . S
O16 Co14 2.091 . S
O16 C22 1.261 1_554 S
C17 O26 1.247 . S
C17 O27 1.272 . S
O18 Co14 2.004 . S
O18 C23 1.259 . S
Co19 O20 2.061 . S
Co19 O25 2.052 1_554 S
Co19 O27 2.135 . S
O20 Co19 2.061 . S
O20 C23 1.235 . S
C21 O24 1.238 . S
C21 O25 1.241 . S
C22 O15 1.247 . S
C22 O16 1.261 1_556 S
C23 O18 1.259 . S
C23 O20 1.235 . S
O24 Co14 2.021 1_556 S
O24 C21 1.238 . S
O25 Co19 2.052 1_556 S
O25 C21 1.241 . S
O26 Co14 2.137 . S
O26 C17 1.247 . S
O27 Co14 2.244 . S
O27 C17 1.272 . S
O27 Co19 2.135 . S
Co28 O29 2.216 1_554 S
Co28 O30 2.091 . S
Co28 O32 2.004 . S
Co28 O38 2.021 1_554 S
Co28 O40 2.137 1_545 S
Co28 O41 2.244 1_545 S
O29 Co28 2.216 1_556 S
O29 C36 1.247 . S
O30 Co28 2.091 . S
O30 C36 1.261 1_554 S
C31 O40 1.247 . S
C31 O41 1.272 . S
O32 Co28 2.004 . S
O32 C37 1.259 1_545 S
Co33 O34 2.061 . S
Co33 O39 2.052 1_554 S
Co33 O41 2.135 . S
O34 Co33 2.061 . S
O34 C37 1.235 . S
C35 O38 1.238 1_565 S
C35 O39 1.241 . S
C36 O29 1.247 . S
C36 O30 1.261 1_556 S
C37 O32 1.259 1_565 S
C37 O34 1.235 . S
O38 Co28 2.021 1_556 S
O38 C35 1.238 1_545 S
O39 Co33 2.052 1_556 S
O39 C35 1.241 . S
O40 Co28 2.137 1_565 S
O40 C31 1.247 . S
O41 Co28 2.244 1_565 S
O41 C31 1.272 . S
O41 Co33 2.135 . S
Co42 O43 2.216 1_554 S
Co42 O44 2.091 . S
Co42 O46 2.004 . S
Co42 O52 2.021 1_554 S
Co42 O54 2.137 1_655 S
Co42 O55 2.244 1_655 S
O43 Co42 2.216 1_556 S
O43 C50 1.247 . S
O44 Co42 2.091 . S
O44 C50 1.261 1_554 S
C45 O54 1.247 . S
C45 O55 1.272 . S
O46 Co42 2.004 . S
O46 C51 1.259 1_655 S
Co47 O48 2.061 . S
Co47 O53 2.052 1_554 S
Co47 O55 2.135 . S
O48 Co47 2.061 . S
O48 C51 1.235 . S
C49 O52 1.238 1_455 S
C49 O53 1.241 . S
C50 O43 1.247 . S
C50 O44 1.261 1_556 S
C51 O46 1.259 1_455 S
C51 O48 1.235 . S
O52 Co42 2.021 1_556 S
O52 C49 1.238 1_655 S
O53 Co47 2.052 1_556 S
O53 C49 1.241 . S
O54 Co42 2.137 1_455 S
O54 C45 1.247 . S
O55 Co42 2.244 1_455 S
O55 C45 1.272 . S
O55 Co47 2.135 . S
Co56 O57 2.216 . S
Co56 O58 2.091 . S
Co56 O60 2.004 1_554 S
Co56 O66 2.021 . S
Co56 O68 2.137 1_554 S
Co56 O69 2.244 1_554 S
O57 Co56 2.216 . S
O57 C64 1.247 . S
O58 Co56 2.091 . S
O58 C64 1.261 . S
C59 O68 1.247 . S
C59 O69 1.272 . S
O60 Co56 2.004 1_556 S
O60 C65 1.259 . S
Co61 O62 2.061 . S
Co61 O67 2.052 1_556 S
Co61 O69 2.135 . S
O62 Co61 2.061 . S
O62 C65 1.235 . S
C63 O66 1.238 . S
C63 O67 1.241 . S
C64 O57 1.247 . S
C64 O58 1.261 . S
C65 O60 1.259 . S
C65 O62 1.235 . S
O66 Co56 2.021 . S
O66 C63 1.238 . S
O67 Co61 2.052 1_554 S
O67 C63 1.241 . S
O68 Co56 2.137 1_556 S
O68 C59 1.247 . S
O69 Co56 2.244 1_556 S
O69 C59 1.272 . S
O69 Co61 2.135 . S
Co70 O71 2.216 . S
Co70 O72 2.091 . S
Co70 O74 2.004 1_554 S
Co70 O80 2.021 . S
Co70 O82 2.137 1_564 S
Co70 O83 2.244 1_565 S
O71 Co70 2.216 . S
O71 C78 1.247 . S
O72 Co70 2.091 . S
O72 C78 1.261 . S
C73 O82 1.247 . S
C73 O83 1.272 1_556 S
O74 Co70 2.004 1_556 S
O74 C79 1.259 1_565 S
Co75 O76 2.061 1_554 S
Co75 O81 2.052 . S
Co75 O83 2.135 . S
O76 Co75 2.061 1_556 S
O76 C79 1.235 . S
C77 O80 1.238 1_545 S
C77 O81 1.241 . S
C78 O71 1.247 . S
C78 O72 1.261 . S
C79 O74 1.259 1_545 S
C79 O76 1.235 . S
O80 Co70 2.021 . S
O80 C77 1.238 1_565 S
O81 Co75 2.052 . S
O81 C77 1.241 . S
O82 Co70 2.137 1_546 S
O82 C73 1.247 . S
O83 Co70 2.244 1_545 S
O83 C73 1.272 1_554 S
O83 Co75 2.135 . S
Co84 O85 2.216 . S
Co84 O86 2.091 . S
Co84 O88 2.004 . S
Co84 O94 2.021 . S
Co84 O96 2.137 . S
Co84 O97 2.244 . S
O85 Co84 2.216 . S
O85 C92 1.247 . S
O86 Co84 2.091 . S
O86 C92 1.261 . S
C87 O96 1.247 . S
C87 O97 1.272 . S
O88 Co84 2.004 . S
O88 C93 1.259 . S
Co89 O90 2.061 . S
Co89 O95 2.052 . S
Co89 O97 2.135 . S
O90 Co89 2.061 . S
O90 C93 1.235 . S
C91 O94 1.238 . S
C91 O95 1.241 . S
C92 O85 1.247 . S
C92 O86 1.261 . S
C93 O88 1.259 . S
C93 O90 1.235 . S
O94 Co84 2.021 . S
O94 C91 1.238 . S
O95 Co89 2.052 . S
O95 C91 1.241 . S
O96 Co84 2.137 . S
O96 C87 1.247 . S
O97 Co84 2.244 . S
O97 C87 1.272 . S
O97 Co89 2.135 . S
Co98 O99 2.216 1_565 S
Co98 O100 2.091 . S
Co98 O102 2.004 . S
Co98 O108 2.021 . S
Co98 O110 2.137 1_565 S
Co98 O111 2.244 1_565 S
O99 Co98 2.216 1_545 S
O99 C106 1.261 . S
O100 Co98 2.091 . S
O100 C106 1.252 1_565 S
C101 O110 1.247 . S
C101 O111 1.272 . S
O102 Co98 2.004 . S
O102 C107 1.259 . S
Co103 O104 2.061 . S
Co103 O109 2.052 . S
Co103 O111 2.135 1_565 S
O104 Co103 2.061 . S
O104 C107 1.235 . S
C105 O108 1.238 . S
C105 O109 1.241 . S
C106 O99 1.261 . S
C106 O100 1.252 1_545 S
C107 O102 1.259 . S
C107 O104 1.235 . S
O108 Co98 2.021 . S
O108 C105 1.238 . S
O109 Co103 2.052 . S
O109 C105 1.241 . S
O110 Co98 2.137 1_545 S
O110 C101 1.247 . S
O111 Co98 2.244 1_545 S
O111 C101 1.272 . S
O111 Co103 2.135 1_545 S
Co112 O113 2.216 1_455 S
Co112 O114 2.091 . S
Co112 O116 2.004 . S
Co112 O122 2.021 . S
Co112 O124 2.137 1_455 S
Co112 O125 2.244 1_455 S
O113 Co112 2.216 1_655 S
O113 C120 1.247 1_655 S
O114 Co112 2.091 . S
O114 C120 1.261 . S
C115 O124 1.247 . S
C115 O125 1.272 . S
O116 Co112 2.004 . S
O116 C121 1.259 . S
Co117 O118 2.061 . S
Co117 O123 2.052 . S
Co117 O125 2.135 1_455 S
O118 Co117 2.061 . S
O118 C121 1.235 . S
C119 O122 1.238 . S
C119 O123 1.241 . S
C120 O113 1.247 1_455 S
C120 O114 1.261 . S
C121 O116 1.259 . S
C121 O118 1.235 . S
O122 Co112 2.021 . S
O122 C119 1.238 . S
O123 Co117 2.052 . S
O123 C119 1.241 . S
O124 Co112 2.137 1_655 S
O124 C115 1.247 . S
O125 Co112 2.244 1_655 S
O125 C115 1.272 . S
O125 Co117 2.135 1_655 S
Co126 O127 2.216 1_565 S
Co126 O128 2.091 . S
Co126 O130 2.004 . S
Co126 O136 2.021 . S
Co126 O138 2.137 1_565 S
Co126 O139 2.244 1_565 S
O127 Co126 2.216 1_545 S
O127 C134 1.246 . S
O128 Co126 2.091 . S
O128 C134 1.253 1_565 S
C129 O138 1.247 . S
C129 O139 1.272 . S
O130 Co126 2.004 . S
O130 C135 1.259 . S
Co131 O132 2.061 . S
Co131 O137 2.052 . S
Co131 O139 2.135 1_565 S
O132 Co131 2.061 . S
O132 C135 1.235 . S
C133 O136 1.238 . S
C133 O137 1.241 . S
C134 O127 1.246 . S
C134 O128 1.253 1_545 S
C135 O130 1.259 . S
C135 O132 1.235 . S
O136 Co126 2.021 . S
O136 C133 1.238 . S
O137 Co131 2.052 . S
O137 C133 1.241 . S
O138 Co126 2.137 1_545 S
O138 C129 1.247 . S
O139 Co126 2.244 1_545 S
O139 C129 1.272 . S
O139 Co131 2.135 1_545 S
Co140 O141 2.216 1_455 S
Co140 O142 2.091 1_455 S
Co140 O144 2.004 . S
Co140 O150 2.021 . S
Co140 O152 2.137 1_455 S
Co140 O153 2.244 . S
O141 Co140 2.216 1_655 S
O141 C148 1.247 . S
O142 Co140 2.091 1_655 S
O142 C148 1.261 . S
C143 O152 1.222 1_455 S
C143 O153 1.286 . S
O144 Co140 2.004 . S
O144 C149 1.259 . S
Co145 O146 2.061 . S
Co145 O151 2.052 . S
Co145 O153 2.135 . S
O146 Co145 2.061 . S
O146 C149 1.235 . S
C147 O150 1.238 . S
C147 O151 1.241 . S
C148 O141 1.247 . S
C148 O142 1.261 . S
C149 O144 1.259 . S
C149 O146 1.235 . S
O150 Co140 2.021 . S
O150 C147 1.238 . S
O151 Co145 2.052 . S
O151 C147 1.241 . S
O152 Co140 2.137 1_655 S
O152 C143 1.222 1_655 S
O153 Co140 2.244 . S
O153 C143 1.286 . S
O153 Co145 2.135 . S
Co154 O155 2.216 . S
Co154 O156 2.091 . S
Co154 O158 2.004 . S
Co154 O164 2.021 . S
Co154 O166 2.137 . S
Co154 O167 2.244 . S
O155 Co154 2.216 . S
O155 C162 1.247 . S
O156 Co154 2.091 . S
O156 C162 1.261 . S
C157 O166 1.247 . S
C157 O167 1.272 . S
O158 Co154 2.004 . S
O158 C163 1.259 . S
Co159 O160 2.061 . S
Co159 O165 2.052 . S
Co159 O167 2.135 . S
O160 Co159 2.061 . S
O160 C163 1.235 . S
C161 O164 1.238 . S
C161 O165 1.241 . S
C162 O155 1.247 . S
C162 O156 1.261 . S
C163 O158 1.259 . S
C163 O160 1.235 . S
O164 Co154 2.021 . S
O164 C161 1.238 . S
O165 Co159 2.052 . S
O165 C161 1.241 . S
O166 Co154 2.137 . S
O166 C157 1.247 . S
O167 Co154 2.244 . S
O167 C157 1.272 . S
O167 Co159 2.135 . S
Co168 O169 2.216 1_545 S
Co168 O170 2.091 . S
Co168 O172 2.004 . S
Co168 O178 2.021 . S
Co168 O180 2.137 1_545 S
Co168 O181 2.244 1_545 S
O169 Co168 2.216 1_565 S
O169 C176 1.247 1_565 S
O170 Co168 2.091 . S
O170 C176 1.266 . S
C171 O180 1.247 . S
C171 O181 1.272 . S
O172 Co168 2.004 . S
O172 C177 1.259 . S
Co173 O174 2.061 . S
Co173 O179 2.052 . S
Co173 O181 2.135 1_545 S
O174 Co173 2.061 . S
O174 C177 1.235 . S
C175 O178 1.238 . S
C175 O179 1.241 . S
C176 O169 1.247 1_545 S
C176 O170 1.266 . S
C177 O172 1.259 . S
C177 O174 1.235 . S
O178 Co168 2.021 . S
O178 C175 1.238 . S
O179 Co173 2.052 . S
O179 C175 1.241 . S
O180 Co168 2.137 1_565 S
O180 C171 1.247 . S
O181 Co168 2.244 1_565 S
O181 C171 1.272 . S
O181 Co173 2.135 1_565 S
Co182 O183 2.208 1_655 S
Co182 O184 2.073 1_655 S
Co182 O186 2.007 . S
Co182 O192 2.026 . S
Co182 O194 2.138 1_655 S
Co182 O195 2.260 . S
O183 Co182 2.208 1_455 S
O183 C190 1.247 . S
O184 Co182 2.073 1_455 S
O184 C190 1.261 . S
C185 O194 1.264 . S
C185 O195 1.262 1_455 S
O186 Co182 2.007 . S
O186 C191 1.259 . S
Co187 O188 2.061 . S
Co187 O193 2.052 . S
Co187 O195 2.135 . S
O188 Co187 2.061 . S
O188 C191 1.235 . S
C189 O192 1.238 . S
C189 O193 1.241 . S
C190 O183 1.247 . S
C190 O184 1.261 . S
C191 O186 1.259 . S
C191 O188 1.235 . S
O192 Co182 2.026 . S
O192 C189 1.238 . S
O193 Co187 2.052 . S
O193 C189 1.241 . S
O194 Co182 2.138 1_455 S
O194 C185 1.264 . S
O195 Co182 2.260 . S
O195 C185 1.262 1_655 S
O195 Co187 2.135 . S
Co196 O197 2.216 . S
Co196 O198 2.091 . S
Co196 O200 2.004 . S
Co196 O206 2.021 . S
Co196 O208 2.137 . S
Co196 O209 2.244 . S
O197 Co196 2.216 . S
O197 C204 1.247 . S
O198 Co196 2.091 . S
O198 C204 1.261 . S
C199 O208 1.247 . S
C199 O209 1.272 . S
O200 Co196 2.004 . S
O200 C205 1.259 . S
Co201 O202 2.061 . S
Co201 O207 2.052 . S
Co201 O209 2.135 . S
O202 Co201 2.061 . S
O202 C205 1.235 . S
C203 O206 1.238 . S
C203 O207 1.241 . S
C204 O197 1.247 . S
C204 O198 1.261 . S
C205 O200 1.259 . S
C205 O202 1.235 . S
O206 Co196 2.021 . S
O206 C203 1.238 . S
O207 Co201 2.052 . S
O207 C203 1.241 . S
O208 Co196 2.137 . S
O208 C199 1.247 . S
O209 Co196 2.244 . S
O209 C199 1.272 . S
O209 Co201 2.135 . S
Co210 O211 2.216 . S
Co210 O212 2.091 . S
Co210 O214 2.004 . S
Co210 O220 2.021 . S
Co210 O222 2.137 . S
Co210 O223 2.244 . S
O211 Co210 2.216 . S
O211 C218 1.247 . S
O212 Co210 2.091 . S
O212 C218 1.261 . S
C213 O222 1.247 . S
C213 O223 1.272 . S
O214 Co210 2.004 . S
O214 C219 1.259 . S
Co215 O216 2.061 . S
Co215 O221 2.052 . S
Co215 O223 2.135 . S
O216 Co215 2.061 . S
O216 C219 1.235 . S
C217 O220 1.238 . S
C217 O221 1.241 . S
C218 O211 1.247 . S
C218 O212 1.261 . S
C219 O214 1.259 . S
C219 O216 1.235 . S
O220 Co210 2.021 . S
O220 C217 1.238 . S
O221 Co215 2.052 . S
O221 C217 1.241 . S
O222 Co210 2.137 . S
O222 C213 1.247 . S
O223 Co210 2.244 . S
O223 C213 1.272 . S
O223 Co215 2.135 . S
Co224 O225 2.216 1_545 S
Co224 O226 2.091 . S
Co224 O228 2.004 . S
Co224 O234 2.021 . S
Co224 O236 2.137 1_545 S
Co224 O237 2.244 1_545 S
O225 Co224 2.216 1_565 S
O225 C232 1.240 1_565 S
O226 Co224 2.091 . S
O226 C232 1.266 . S
C227 O236 1.247 . S
C227 O237 1.272 . S
O228 Co224 2.004 . S
O228 C233 1.259 . S
Co229 O230 2.061 . S
Co229 O235 2.052 . S
Co229 O237 2.135 1_545 S
O230 Co229 2.061 . S
O230 C233 1.235 . S
C231 O234 1.238 . S
C231 O235 1.241 . S
C232 O225 1.240 1_545 S
C232 O226 1.266 . S
C233 O228 1.259 . S
C233 O230 1.235 . S
O234 Co224 2.021 . S
O234 C231 1.238 . S
O235 Co229 2.052 . S
O235 C231 1.241 . S
O236 Co224 2.137 1_565 S
O236 C227 1.247 . S
O237 Co224 2.244 1_565 S
O237 C227 1.272 . S
O237 Co229 2.135 1_565 S
Co238 O239 2.216 1_655 S
Co238 O240 2.091 . S
Co238 O242 2.004 . S
Co238 O248 2.021 . S
Co238 O250 2.137 1_655 S
Co238 O251 2.244 1_655 S
O239 Co238 2.216 1_455 S
O239 C246 1.247 1_455 S
O240 Co238 2.091 . S
O240 C246 1.261 . S
C241 O250 1.247 . S
C241 O251 1.272 . S
O242 Co238 2.004 . S
O242 C247 1.259 . S
Co243 O244 2.061 . S
Co243 O249 2.052 . S
Co243 O251 2.135 1_655 S
O244 Co243 2.061 . S
O244 C247 1.235 . S
C245 O248 1.238 . S
C245 O249 1.241 . S
C246 O239 1.247 1_655 S
C246 O240 1.261 . S
C247 O242 1.259 . S
C247 O244 1.235 . S
O248 Co238 2.021 . S
O248 C245 1.238 . S
O249 Co243 2.052 . S
O249 C245 1.241 . S
O250 Co238 2.137 1_455 S
O250 C241 1.247 . S
O251 Co238 2.244 1_455 S
O251 C241 1.272 . S
O251 Co243 2.135 1_455 S
H252 C258 0.930 . S
H253 C261 0.931 . S
H254 C263 0.931 . S
H255 C265 0.930 . S
H256 C267 0.930 . S
H257 C269 0.931 . S
C258 H252 0.930 . S
C258 C259 1.380 . S
C258 C260 1.394 . S
C259 C258 1.380 . S
C259 C263 1.382 . S
C260 C258 1.394 . S
C260 C261 1.400 . S
C261 H253 0.931 . S
C261 C260 1.400 . S
C261 C262 1.375 . S
C262 C261 1.375 . S
C262 C263 1.415 . S
C262 C264 1.501 . S
C263 H254 0.931 . S
C263 C259 1.382 . S
C263 C262 1.415 . S
C264 C262 1.501 . S
C264 C265 1.384 . S
C264 C269 1.408 . S
C265 H255 0.930 . S
C265 C264 1.384 . S
C265 C266 1.389 . S
C266 C265 1.389 . S
C266 C267 1.405 . S
C267 H256 0.930 . S
C267 C266 1.405 . S
C267 C268 1.364 . S
C268 C267 1.364 . S
C268 C269 1.400 . S
C269 H257 0.931 . S
C269 C264 1.408 . S
C269 C268 1.400 . S
H270 C276 0.930 . S
H271 C279 0.931 . S
H272 C281 0.931 . S
H273 C283 0.930 . S
H274 C285 0.930 . S
H275 C287 0.931 . S
C276 H270 0.930 . S
C276 C277 1.380 . S
C276 C278 1.394 . S
C277 C276 1.380 . S
C277 C281 1.382 . S
C278 C276 1.394 . S
C278 C279 1.400 . S
C279 H271 0.931 . S
C279 C278 1.400 . S
C279 C280 1.375 . S
C280 C279 1.375 . S
C280 C281 1.415 . S
C280 C282 1.501 . S
C281 H272 0.931 . S
C281 C277 1.382 . S
C281 C280 1.415 . S
C282 C280 1.501 . S
C282 C283 1.384 . S
C282 C287 1.408 . S
C283 H273 0.930 . S
C283 C282 1.384 . S
C283 C284 1.389 . S
C284 C283 1.389 . S
C284 C285 1.405 . S
C285 H274 0.930 . S
C285 C284 1.405 . S
C285 C286 1.364 . S
C286 C285 1.364 . S
C286 C287 1.400 . S
C287 H275 0.931 . S
C287 C282 1.408 . S
C287 C286 1.400 . S
H288 C294 0.930 . S
H289 C297 0.931 . S
H290 C299 0.931 . S
H291 C301 0.930 . S
H292 C303 0.930 . S
H293 C305 0.931 . S
C294 H288 0.930 . S
C294 C295 1.380 . S
C294 C296 1.394 . S
C295 C294 1.380 . S
C295 C299 1.382 . S
C296 C294 1.394 . S
C296 C297 1.400 . S
C297 H289 0.931 . S
C297 C296 1.400 . S
C297 C298 1.375 . S
C298 C297 1.375 . S
C298 C299 1.415 . S
C298 C300 1.501 . S
C299 H290 0.931 . S
C299 C295 1.382 . S
C299 C298 1.415 . S
C300 C298 1.501 . S
C300 C301 1.384 . S
C300 C305 1.408 . S
C301 H291 0.930 . S
C301 C300 1.384 . S
C301 C302 1.389 . S
C302 C301 1.389 . S
C302 C303 1.405 . S
C303 H292 0.930 . S
C303 C302 1.405 . S
C303 C304 1.364 . S
C304 C303 1.364 . S
C304 C305 1.400 . S
C305 H293 0.931 . S
C305 C300 1.408 . S
C305 C304 1.400 . S
H306 C312 0.930 . S
H307 C315 0.931 . S
H308 C317 0.931 . S
H309 C319 0.930 . S
H310 C321 0.930 . S
H311 C323 0.931 . S
C312 H306 0.930 . S
C312 C313 1.380 . S
C312 C314 1.394 . S
C313 C312 1.380 . S
C313 C317 1.382 . S
C314 C312 1.394 . S
C314 C315 1.400 . S
C315 H307 0.931 . S
C315 C314 1.400 . S
C315 C316 1.375 . S
C316 C315 1.375 . S
C316 C317 1.415 . S
C316 C318 1.501 . S
C317 H308 0.931 . S
C317 C313 1.382 . S
C317 C316 1.415 . S
C318 C316 1.501 . S
C318 C319 1.384 . S
C318 C323 1.408 . S
C319 H309 0.930 . S
C319 C318 1.384 . S
C319 C320 1.389 . S
C320 C319 1.389 . S
C320 C321 1.405 . S
C321 H310 0.930 . S
C321 C320 1.405 . S
C321 C322 1.364 . S
C322 C321 1.364 . S
C322 C323 1.400 . S
C323 H311 0.931 . S
C323 C318 1.408 . S
C323 C322 1.400 . S
H324 C330 0.930 . S
H325 C333 0.931 . S
H326 C335 0.931 . S
H327 C337 0.930 . S
H328 C339 0.930 . S
H329 C341 0.931 . S
C330 H324 0.930 . S
C330 C331 1.380 . S
C330 C332 1.394 . S
C331 C330 1.380 . S
C331 C335 1.382 . S
C332 C330 1.394 . S
C332 C333 1.400 . S
C333 H325 0.931 . S
C333 C332 1.400 . S
C333 C334 1.375 . S
C334 C333 1.375 . S
C334 C335 1.415 . S
C334 C336 1.501 . S
C335 H326 0.931 . S
C335 C331 1.382 . S
C335 C334 1.415 . S
C336 C334 1.501 . S
C336 C337 1.384 . S
C336 C341 1.408 . S
C337 H327 0.930 . S
C337 C336 1.384 . S
C337 C338 1.389 . S
C338 C337 1.389 . S
C338 C339 1.405 . S
C339 H328 0.930 . S
C339 C338 1.405 . S
C339 C340 1.364 . S
C340 C339 1.364 . S
C340 C341 1.400 . S
C341 H329 0.931 . S
C341 C336 1.408 . S
C341 C340 1.400 . S
H342 C348 0.930 . S
H343 C351 0.931 . S
H344 C353 0.931 . S
H345 C355 0.930 . S
H346 C357 0.930 . S
H347 C359 0.931 . S
C348 H342 0.930 . S
C348 C349 1.380 . S
C348 C350 1.394 . S
C349 C348 1.380 . S
C349 C353 1.382 . S
C350 C348 1.394 . S
C350 C351 1.400 . S
C351 H343 0.931 . S
C351 C350 1.400 . S
C351 C352 1.375 . S
C352 C351 1.375 . S
C352 C353 1.415 . S
C352 C354 1.501 . S
C353 H344 0.931 . S
C353 C349 1.382 . S
C353 C352 1.415 . S
C354 C352 1.501 . S
C354 C355 1.384 . S
C354 C359 1.408 . S
C355 H345 0.930 . S
C355 C354 1.384 . S
C355 C356 1.389 . S
C356 C355 1.389 . S
C356 C357 1.405 . S
C357 H346 0.930 . S
C357 C356 1.405 . S
C357 C358 1.364 . S
C358 C357 1.364 . S
C358 C359 1.400 . S
C359 H347 0.931 . S
C359 C354 1.408 . S
C359 C358 1.400 . S
H360 C366 0.930 . S
H361 C369 0.931 . S
H362 C371 0.931 . S
H363 C373 0.930 . S
H364 C375 0.930 . S
H365 C377 0.931 . S
C366 H360 0.930 . S
C366 C367 1.380 . S
C366 C368 1.394 . S
C367 C366 1.380 . S
C367 C371 1.382 . S
C368 C366 1.394 . S
C368 C369 1.400 . S
C369 H361 0.931 . S
C369 C368 1.400 . S
C369 C370 1.375 . S
C370 C369 1.375 . S
C370 C371 1.415 . S
C370 C372 1.501 . S
C371 H362 0.931 . S
C371 C367 1.382 . S
C371 C370 1.415 . S
C372 C370 1.501 . S
C372 C373 1.384 . S
C372 C377 1.408 . S
C373 H363 0.930 . S
C373 C372 1.384 . S
C373 C374 1.389 . S
C374 C373 1.389 . S
C374 C375 1.405 . S
C375 H364 0.930 . S
C375 C374 1.405 . S
C375 C376 1.364 . S
C376 C375 1.364 . S
C376 C377 1.400 . S
C377 H365 0.931 . S
C377 C372 1.408 . S
C377 C376 1.400 . S
H378 C384 0.930 . S
H379 C387 0.931 . S
H380 C389 0.931 . S
H381 C391 0.930 . S
H382 C393 0.930 . S
H383 C395 0.931 . S
C384 H378 0.930 . S
C384 C385 1.380 . S
C384 C386 1.394 . S
C385 C384 1.380 . S
C385 C389 1.382 . S
C386 C384 1.394 . S
C386 C387 1.400 . S
C387 H379 0.931 . S
C387 C386 1.400 . S
C387 C388 1.375 . S
C388 C387 1.375 . S
C388 C389 1.415 . S
C388 C390 1.501 . S
C389 H380 0.931 . S
C389 C385 1.382 . S
C389 C388 1.415 . S
C390 C388 1.501 . S
C390 C391 1.384 . S
C390 C395 1.408 . S
C391 H381 0.930 . S
C391 C390 1.384 . S
C391 C392 1.389 . S
C392 C391 1.389 . S
C392 C393 1.405 . S
C393 H382 0.930 . S
C393 C392 1.405 . S
C393 C394 1.364 . S
C394 C393 1.364 . S
C394 C395 1.400 . S
C395 H383 0.931 . S
C395 C390 1.408 . S
C395 C394 1.400 . S
H396 C402 0.930 . S
H397 C405 0.931 . S
H398 C407 0.931 . S
H399 C409 0.930 . S
H400 C411 0.930 . S
H401 C413 0.931 . S
C402 H396 0.930 . S
C402 C403 1.380 . S
C402 C404 1.394 . S
C403 C402 1.380 . S
C403 C407 1.382 . S
C404 C402 1.394 . S
C404 C405 1.400 . S
C405 H397 0.931 . S
C405 C404 1.400 . S
C405 C406 1.375 . S
C406 C405 1.375 . S
C406 C407 1.415 . S
C406 C408 1.501 . S
C407 H398 0.931 . S
C407 C403 1.382 . S
C407 C406 1.415 . S
C408 C406 1.501 . S
C408 C409 1.384 . S
C408 C413 1.408 . S
C409 H399 0.930 . S
C409 C408 1.384 . S
C409 C410 1.389 . S
C410 C409 1.389 . S
C410 C411 1.405 . S
C411 H400 0.930 . S
C411 C410 1.405 . S
C411 C412 1.364 . S
C412 C411 1.364 . S
C412 C413 1.400 . S
C413 H401 0.931 . S
C413 C408 1.408 . S
C413 C412 1.400 . S
H414 C420 0.917 . S
H415 C423 0.931 . S
H416 C425 0.931 . S
H417 C427 0.930 . S
H418 C429 0.930 . S
H419 C431 0.933 1_655 S
C420 H414 0.917 . S
C420 C421 1.391 . S
C420 C422 1.397 1_655 S
C421 C420 1.391 . S
C421 C425 1.382 . S
C422 C420 1.397 1_455 S
C422 C423 1.400 . S
C423 H415 0.931 . S
C423 C422 1.400 . S
C423 C424 1.375 . S
C424 C423 1.375 . S
C424 C425 1.415 1_455 S
C424 C426 1.501 . S
C425 H416 0.931 . S
C425 C421 1.382 . S
C425 C424 1.415 1_655 S
C426 C424 1.501 . S
C426 C427 1.384 . S
C426 C431 1.408 . S
C427 H417 0.930 . S
C427 C426 1.384 . S
C427 C428 1.389 . S
C428 C427 1.389 . S
C428 C429 1.405 . S
C429 H418 0.930 . S
C429 C428 1.405 . S
C429 C430 1.360 . S
C430 C429 1.360 . S
C430 C431 1.412 . S
C431 H419 0.933 1_455 S
C431 C426 1.408 . S
C431 C430 1.412 . S
H432 C438 0.930 . S
H433 C441 0.931 . S
H434 C443 0.931 . S
H435 C445 0.930 . S
H436 C447 0.930 . S
H437 C449 0.931 . S
C438 H432 0.930 . S
C438 C439 1.380 . S
C438 C440 1.394 . S
C439 C438 1.380 . S
C439 C443 1.382 . S
C440 C438 1.394 . S
C440 C441 1.400 . S
C441 H433 0.931 . S
C441 C440 1.400 . S
C441 C442 1.375 . S
C442 C441 1.375 . S
C442 C443 1.415 . S
C442 C444 1.501 . S
C443 H434 0.931 . S
C443 C439 1.382 . S
C443 C442 1.415 . S
C444 C442 1.501 . S
C444 C445 1.384 . S
C444 C449 1.408 . S
C445 H435 0.930 . S
C445 C444 1.384 . S
C445 C446 1.389 . S
C446 C445 1.389 . S
C446 C447 1.405 . S
C447 H436 0.930 . S
C447 C446 1.405 . S
C447 C448 1.364 . S
C448 C447 1.364 . S
C448 C449 1.400 . S
C449 H437 0.931 . S
C449 C444 1.408 . S
C449 C448 1.400 . S
H450 C456 0.930 . S
H451 C459 0.931 . S
H452 C461 0.931 . S
H453 C463 0.930 . S
H454 C465 0.930 . S
H455 C467 0.928 1_545 S
C456 H450 0.930 . S
C456 C457 1.380 . S
C456 C458 1.394 1_545 S
C457 C456 1.380 . S
C457 C461 1.382 . S
C458 C456 1.394 1_565 S
C458 C459 1.400 . S
C459 H451 0.931 . S
C459 C458 1.400 . S
C459 C460 1.375 . S
C460 C459 1.375 . S
C460 C461 1.415 1_565 S
C460 C462 1.501 . S
C461 H452 0.931 . S
C461 C457 1.382 . S
C461 C460 1.415 1_545 S
C462 C460 1.501 . S
C462 C463 1.384 . S
C462 C467 1.408 . S
C463 H453 0.930 . S
C463 C462 1.384 . S
C463 C464 1.389 . S
C464 C463 1.389 . S
C464 C465 1.405 . S
C465 H454 0.930 . S
C465 C464 1.405 . S
C465 C466 1.373 . S
C466 C465 1.373 . S
C466 C467 1.385 . S
C467 H455 0.928 1_565 S
C467 C462 1.408 . S
C467 C466 1.385 . S
H468 C474 0.930 . S
H469 C477 0.931 . S
H470 C479 0.924 1_545 S
H471 C481 0.930 . S
H472 C483 0.930 . S
H473 C485 0.931 . S
C474 H468 0.930 . S
C474 C475 1.380 . S
C474 C476 1.394 1_545 S
C475 C474 1.380 . S
C475 C479 1.389 1_545 S
C476 C474 1.394 1_565 S
C476 C477 1.400 . S
C477 H469 0.931 . S
C477 C476 1.400 . S
C477 C478 1.375 . S
C478 C477 1.375 . S
C478 C479 1.411 . S
C478 C480 1.501 . S
C479 H470 0.924 1_565 S
C479 C475 1.389 1_565 S
C479 C478 1.411 . S
C480 C478 1.501 . S
C480 C481 1.384 . S
C480 C485 1.408 1_565 S
C481 H471 0.930 . S
C481 C480 1.384 . S
C481 C482 1.389 . S
C482 C481 1.389 . S
C482 C483 1.405 . S
C483 H472 0.930 . S
C483 C482 1.405 . S
C483 C484 1.364 1_565 S
C484 C483 1.364 1_545 S
C484 C485 1.400 . S
C485 H473 0.931 . S
C485 C480 1.408 1_545 S
C485 C484 1.400 . S
H486 C492 0.930 . S
H487 C495 0.931 . S
H488 C497 0.937 . S
H489 C499 0.930 . S
H490 C501 0.930 . S
H491 C503 0.931 . S
C492 H486 0.930 . S
C492 C493 1.389 . S
C492 C494 1.394 1_655 S
C493 C492 1.389 . S
C493 C497 1.354 1_655 S
C494 C492 1.394 1_455 S
C494 C495 1.400 . S
C495 H487 0.931 . S
C495 C494 1.400 . S
C495 C496 1.375 . S
C496 C495 1.375 . S
C496 C497 1.422 . S
C496 C498 1.501 . S
C497 H488 0.937 . S
C497 C493 1.354 1_455 S
C497 C496 1.422 . S
C498 C496 1.501 . S
C498 C499 1.384 . S
C498 C503 1.408 1_455 S
C499 H489 0.930 . S
C499 C498 1.384 . S
C499 C500 1.389 . S
C500 C499 1.389 . S
C500 C501 1.405 . S
C501 H490 0.930 . S
C501 C500 1.405 . S
C501 C502 1.364 1_455 S
C502 C501 1.364 1_655 S
C502 C503 1.400 . S
C503 H491 0.931 . S
C503 C498 1.408 1_655 S
C503 C502 1.400 . S
H504 C510 0.930 . S
H505 C513 0.931 . S
H506 C515 0.931 . S
H507 C517 0.930 . S
H508 C519 0.930 . S
H509 C521 0.931 . S
C510 H504 0.930 . S
C510 C511 1.380 . S
C510 C512 1.394 . S
C511 C510 1.380 . S
C511 C515 1.382 . S
C512 C510 1.394 . S
C512 C513 1.400 . S
C513 H505 0.931 . S
C513 C512 1.400 . S
C513 C514 1.375 . S
C514 C513 1.375 . S
C514 C515 1.415 . S
C514 C516 1.501 . S
C515 H506 0.931 . S
C515 C511 1.382 . S
C515 C514 1.415 . S
C516 C514 1.501 . S
C516 C517 1.384 . S
C516 C521 1.408 . S
C517 H507 0.930 . S
C517 C516 1.384 . S
C517 C518 1.389 . S
C518 C517 1.389 . S
C518 C519 1.405 . S
C519 H508 0.930 . S
C519 C518 1.405 . S
C519 C520 1.364 . S
C520 C519 1.364 . S
C520 C521 1.400 . S
C521 H509 0.931 . S
C521 C516 1.408 . S
C521 C520 1.400 . S
H522 C528 0.930 . S
H523 C531 0.931 . S
H524 C533 0.931 . S
H525 C535 0.930 . S
H526 C537 0.930 . S
H527 C539 0.931 . S
C528 H522 0.930 . S
C528 C529 1.380 . S
C528 C530 1.394 . S
C529 C528 1.380 . S
C529 C533 1.382 . S
C530 C528 1.394 . S
C530 C531 1.400 . S
C531 H523 0.931 . S
C531 C530 1.400 . S
C531 C532 1.375 . S
C532 C531 1.375 . S
C532 C533 1.415 . S
C532 C534 1.501 . S
C533 H524 0.931 . S
C533 C529 1.382 . S
C533 C532 1.415 . S
C534 C532 1.501 . S
C534 C535 1.384 . S
C534 C539 1.408 . S
C535 H525 0.930 . S
C535 C534 1.384 . S
C535 C536 1.389 . S
C536 C535 1.389 . S
C536 C537 1.405 . S
C537 H526 0.930 . S
C537 C536 1.405 . S
C537 C538 1.364 . S
C538 C537 1.364 . S
C538 C539 1.400 . S
C539 H527 0.931 . S
C539 C534 1.408 . S
C539 C538 1.400 . S
H540 C546 0.930 . S
H541 C549 0.931 . S
H542 C551 0.931 . S
H543 C553 0.930 . S
H544 C555 0.930 . S
H545 C557 0.931 . S
C546 H540 0.930 . S
C546 C547 1.380 . S
C546 C548 1.394 . S
C547 C546 1.380 . S
C547 C551 1.382 . S
C548 C546 1.394 . S
C548 C549 1.400 . S
C549 H541 0.931 . S
C549 C548 1.400 . S
C549 C550 1.375 . S
C550 C549 1.375 . S
C550 C551 1.415 . S
C550 C552 1.501 . S
C551 H542 0.931 . S
C551 C547 1.382 . S
C551 C550 1.415 . S
C552 C550 1.501 . S
C552 C553 1.384 . S
C552 C557 1.408 . S
C553 H543 0.930 . S
C553 C552 1.384 . S
C553 C554 1.389 . S
C554 C553 1.389 . S
C554 C555 1.405 . S
C555 H544 0.930 . S
C555 C554 1.405 . S
C555 C556 1.364 . S
C556 C555 1.364 . S
C556 C557 1.400 . S
C557 H545 0.931 . S
C557 C552 1.408 . S
C557 C556 1.400 . S
H558 C564 0.930 . S
H559 C567 0.931 . S
H560 C569 0.931 . S
H561 C571 0.930 . S
H562 C573 0.930 . S
H563 C575 0.931 . S
C564 H558 0.930 . S
C564 C565 1.380 . S
C564 C566 1.394 . S
C565 C564 1.380 . S
C565 C569 1.382 . S
C566 C564 1.394 . S
C566 C567 1.400 . S
C567 H559 0.931 . S
C567 C566 1.400 . S
C567 C568 1.375 . S
C568 C567 1.375 . S
C568 C569 1.415 . S
C568 C570 1.501 . S
C569 H560 0.931 . S
C569 C565 1.382 . S
C569 C568 1.415 . S
C570 C568 1.501 . S
C570 C571 1.384 . S
C570 C575 1.408 . S
C571 H561 0.930 . S
C571 C570 1.384 . S
C571 C572 1.389 . S
C572 C571 1.389 . S
C572 C573 1.405 . S
C573 H562 0.930 . S
C573 C572 1.405 . S
C573 C574 1.364 . S
C574 C573 1.364 . S
C574 C575 1.400 . S
C575 H563 0.931 . S
C575 C570 1.408 . S
C575 C574 1.400 . S
C7 C421 1.598 . S
C23 C446 1.756 . S
C457 C37 1.550 1_545 S
C35 C482 1.597 . S
C9 C500 1.619 1_655 S
C21 C511 1.679 . S
C49 C493 1.628 1_455 S
C518 C65 1.609 . S
C475 C79 1.523 . S
C77 C464 1.646 1_545 S
C428 C51 1.559 . S
C63 C439 1.648 . S
C91 C529 1.702 . S
C107 C554 1.844 . S
C565 C121 1.809 . S
C119 C266 1.732 . S
C93 C284 1.849 . S
C105 C295 1.739 . S
C133 C277 1.626 . S
C149 C302 1.657 . S
C259 C163 1.664 . S
C572 C161 1.677 . S
C536 C135 1.691 . S
C547 C147 1.712 . S
C175 C313 1.664 . S
C191 C338 1.809 . S
C205 C349 1.780 . S
C203 C374 1.767 . S
C392 C177 1.876 . S
C403 C189 1.752 . S
C385 C217 1.662 . S
C410 C233 1.681 . S
C247 C367 1.687 . S
C356 C245 1.645 . S
C219 C320 1.676 . S
C331 C231 1.707 . S
C268 C8 1.464 . S
C17 C286 1.351 . S
C296 C31 1.437 . S
C314 C36 1.479 . S
C340 C3 1.413 . S
C350 C22 1.374 . S
C50 C358 1.514 . S
C59 C322 1.387 . S
C73 C332 1.521 . S
C78 C278 1.578 . S
C304 C45 1.444 . S
C64 C260 1.476 . S
C376 C92 1.432 . S
C101 C394 1.431 . S
C115 C404 1.453 . S
C422 C120 1.410 . S
C87 C448 1.391 . S
C106 C458 1.392 1_545 S
C134 C466 1.403 1_545 S
C143 C430 1.357 . S
C440 C157 1.480 . S
C162 C386 1.516 . S
C129 C412 1.462 . S
C368 C148 1.519 . S
C484 C176 1.397 . S
C185 C502 1.362 1_455 S
C199 C512 1.417 . S
C530 C204 1.421 . S
C556 C171 1.441 . S
C190 C566 1.434 . S
C218 C574 1.480 . S
C227 C538 1.456 . S
C548 C241 1.510 . S
C494 C246 1.396 1_455 S
C520 C213 1.422 . S
C232 C476 1.369 1_545 S
