# Generated by pormake.
# Topology tsx, (6,3)-cn, num edge types: 1
# Building blocks:
#     Node 0, Type 0, BuildingBlock: MIDCAF_clean_sbu_0, # of connection points: 6
#     Node 1, Type 0, BuildingBlock: MIDCAF_clean_sbu_0, # of connection points: 6
#     Node 2, Type 1, BuildingBlock: MIDCAF_clean_linker_0, # of connection points: 3
#     Node 3, Type 1, BuildingBlock: MIDCAF_clean_linker_0, # of connection points: 3
#     Node 4, Type 1, BuildingBlock: MIDCAF_clean_linker_0, # of connection points: 3
#     Node 5, Type 1, BuildingBlock: MIDCAF_clean_linker_0, # of connection points: 3
#     Edge 6, Type (0, 1), BuildingBlock: XIVTED_clean_linker_0, # of connection points: 2
#     Edge 7, Type (0, 1), BuildingBlock: XIVTED_clean_linker_0, # of connection points: 2
#     Edge 8, Type (0, 1), BuildingBlock: XIVTED_clean_linker_0, # of connection points: 2
#     Edge 9, Type (0, 1), BuildingBlock: XIVTED_clean_linker_0, # of connection points: 2
#     Edge 10, Type (0, 1), BuildingBlock: XIVTED_clean_linker_0, # of connection points: 2
#     Edge 11, Type (0, 1), BuildingBlock: XIVTED_clean_linker_0, # of connection points: 2
#     Edge 12, Type (0, 1), BuildingBlock: XIVTED_clean_linker_0, # of connection points: 2
#     Edge 13, Type (0, 1), BuildingBlock: XIVTED_clean_linker_0, # of connection points: 2
#     Edge 14, Type (0, 1), BuildingBlock: XIVTED_clean_linker_0, # of connection points: 2
#     Edge 15, Type (0, 1), BuildingBlock: XIVTED_clean_linker_0, # of connection points: 2
#     Edge 16, Type (0, 1), BuildingBlock: XIVTED_clean_linker_0, # of connection points: 2
#     Edge 17, Type (0, 1), BuildingBlock: XIVTED_clean_linker_0, # of connection points: 2
# Relax obj value: 0.119
# Max RMSD: 0.182
# Mean RMSD: 0.113
data_MOF--net-tsx--node1-MIDCAF_clean_sbu_0--node2-MIDCAF_clean_linker_0--edge1-XIVTED_clean_linker_0
_symmetry_space_group_name_H-M    P1
_symmetry_Int_Tables_number       1
_symmetry_cell_setting            triclinic
loop_
_symmetry_equiv_pos_as_xyz
'x, y, z'
_cell_length_a     23.666497
_cell_length_b     24.648141
_cell_length_c     46.991347
_cell_angle_alpha  91.1098
_cell_angle_beta   95.232663
_cell_angle_gamma 90.221829
loop_
_atom_site_label
_atom_site_type_symbol
_atom_site_fract_x
_atom_site_fract_y
_atom_site_fract_z
_atom_type_partial_charge
Zn0 Zn 0.94016 0.06772 0.97119 0.0
Zn1 Zn 0.11315 0.04527 0.04913 0.0
Zn2 Zn 0.02693 0.05649 0.01033 0.0
C3 C 0.08608 0.15487 0.0492 0.0
C4 C 0.15102 0.00843 -0.00131 0.0
O5 O 0.95361 0.00864 0.02245 0.0
O6 O 0.88177 0.02999 0.99125 0.0
C7 C 0.9726 0.17164 0.98985 0.0
O8 O 0.05206 0.13848 0.02774 0.0
O9 O 0.11573 0.12117 0.06382 0.0
O10 O 0.17101 0.02163 0.02368 0.0
O11 O 0.09831 0.01686 0.99057 0.0
O12 O 0.94079 0.14808 0.97037 0.0
O13 O 0.00608 0.144 0.00714 0.0
O14 O 0.05277 0.02265 0.96963 0.0
O15 O 0.97375 0.02589 0.94061 0.0
C16 C 0.0251 0.01241 0.94521 0.0
O17 O 0.99829 0.00625 0.04466 0.0
O18 O 0.07749 0.9896 0.0718 0.0
C19 C 0.90097 0.00389 0.01285 0.0
C20 C 0.02472 0.98284 0.0662 0.0
Zn21 Zn 0.6926 0.48133 0.54995 0.0
Zn22 Zn 0.55724 0.4171 0.4837 0.0
Zn23 Zn 0.60556 0.46348 0.51953 0.0
C24 C 0.61976 0.49075 0.45843 0.0
C25 C 0.50199 0.51707 0.48992 0.0
O26 O 0.57213 0.45458 0.56028 0.0
O27 O 0.65545 0.46103 0.58529 0.0
C28 C 0.71499 0.39564 0.51259 0.0
O29 O 0.60662 0.51412 0.48167 0.0
O30 O 0.61466 0.43954 0.45589 0.0
O31 O 0.48852 0.46774 0.48507 0.0
O32 O 0.55454 0.52832 0.49781 0.0
O33 O 0.7413 0.42585 0.5315 0.0
O34 O 0.66257 0.40393 0.50551 0.0
O35 O 0.61424 0.54981 0.51004 0.0
O36 O 0.69291 0.56033 0.53906 0.0
C37 C 0.65438 0.58026 0.52196 0.0
O38 O 0.53803 0.41713 0.53643 0.0
O39 O 0.55225 0.34952 0.50676 0.0
C40 C 0.60233 0.4535 0.58429 0.0
C41 C 0.52949 0.36732 0.5285 0.0
C42 C 0.89141 0.05767 0.40512 0.0
C43 C 0.9117 0.07427 0.43294 0.0
C44 C 0.95937 0.04805 0.44639 0.0
C45 C 0.98622 0.00628 0.43218 0.0
H46 H 0.12231 0.89268 0.4392 0.0
H47 H 0.19981 0.83631 0.4604 0.0
H48 H 0.20047 0.74582 0.38091 0.0
H49 H 0.12409 0.80117 0.35975 0.0
H50 H 0.05862 0.84681 0.30429 0.0
H51 H 0.03224 0.8407 0.25329 0.0
H52 H 0.87379 0.92123 0.2651 0.0
H53 H 0.90143 0.92932 0.31622 0.0
H54 H 0.90108 0.00517 0.36946 0.0
H55 H 0.8555 0.07758 0.39389 0.0
H56 H 0.97577 0.05966 0.46793 0.0
H57 H 0.023 0.98709 0.44302 0.0
N58 N 0.04064 0.92035 0.40036 0.0
N59 N 0.04753 0.87216 0.35722 0.0
N60 N 0.97597 0.93631 0.36052 0.0
C61 C 0.06711 0.88234 0.38492 0.0
C62 C 1.00196 0.89881 0.34489 0.0
C63 C 0.99486 0.94753 0.38818 0.0
C64 C 0.11629 0.85119 0.39784 0.0
C65 C 0.13926 0.86098 0.4262 0.0
C66 C 0.1838 0.829 0.43831 0.0
C67 C 0.20562 0.78642 0.42235 0.0
C68 C 0.18389 0.77788 0.39383 0.0
C69 C 0.14001 0.80984 0.38171 0.0
C70 C 0.98257 0.88926 0.31433 0.0
C71 C 0.01781 0.86263 0.29611 0.0
C72 C 1.00232 0.85868 0.26677 0.0
C73 C 0.95085 0.88069 0.25489 0.0
C74 C 0.9142 0.90473 0.27337 0.0
C75 C 0.93002 0.90924 0.30272 0.0
C76 C 0.96602 0.99012 0.40419 0.0
C77 C 0.91805 0.01621 0.39099 0.0
C78 C 0.86325 0.90737 0.59411 0.0
C79 C 0.85979 0.90621 0.5641 0.0
C80 C 0.90215 0.93294 0.5504 0.0
C81 C 0.9477 0.95895 0.56647 0.0
H82 H 0.10174 0.05699 0.56317 0.0
H83 H 0.17339 0.11759 0.54613 0.0
H84 H 0.2288 0.16378 0.63339 0.0
H85 H 0.15778 0.10452 0.65027 0.0
H86 H 0.15735 -0.00159 0.69266 0.0
H87 H 0.1742 0.97943 0.74329 0.0
H88 H 1.00155 0.92143 0.74325 0.0
H89 H 0.98534 0.93864 0.69238 0.0
H90 H 0.9103 0.93166 0.63317 0.0
H91 H 0.83201 0.88653 0.60544 0.0
H92 H 0.90056 0.93302 0.5273 0.0
H93 H 0.98026 0.97818 0.55533 0.0
N94 N 0.0388 0.01589 0.60267 0.0
N95 N 0.09398 0.02089 0.64676 0.0
N96 N 0.0126 0.96644 0.64178 0.0
C97 C 0.08454 0.03637 0.61921 0.0
C98 C 0.05859 0.98591 0.65821 0.0
C99 C 1.00238 0.981 0.61399 0.0
C100 C 0.12434 0.07551 0.60806 0.0
C101 C 0.12885 0.0806 0.57862 0.0
C102 C 0.17003 0.11501 0.5689 0.0
C103 C 0.20676 0.14541 0.58845 0.0
C104 C 0.20082 0.14147 0.61776 0.0
C105 C 0.1603 0.10695 0.62743 0.0
C106 C 0.06975 0.97056 0.68851 0.0
C107 C 0.12308 0.98116 0.70339 0.0
C108 C 0.13275 0.9704 0.73248 0.0
C109 C 0.08921 0.94925 0.74749 0.0
C110 C 0.03644 0.93695 0.73236 0.0
C111 C 0.02692 0.94722 0.70317 0.0
C112 C 0.9521 0.9581 0.59652 0.0
C113 C 0.90873 0.93282 0.61008 0.0
C114 C 0.43846 0.7394 0.90155 0.0
C115 C 0.42243 0.74293 0.9295 0.0
C116 C 0.44396 0.70525 0.94974 0.0
C117 C 0.48026 0.66391 0.94191 0.0
H118 H 0.63332 0.55771 0.96863 0.0
H119 H 0.71921 0.51956 0.9941 0.0
H120 H 0.76883 0.45444 0.91417 0.0
H121 H 0.68466 0.49173 0.88912 0.0
H122 H 0.55094 0.44093 0.85055 0.0
H123 H 0.53567 0.40406 0.80204 0.0
H124 H 0.47834 0.56128 0.77228 0.0
H125 H 0.49055 0.59698 0.8211 0.0
H126 H 0.48368 0.69454 0.87157 0.0
H127 H 0.42218 0.76795 0.88561 0.0
H128 H 0.43213 0.70747 0.97146 0.0
H129 H 0.49543 0.63455 0.95764 0.0
N130 N 0.5705 0.59093 0.92059 0.0
N131 N 0.58295 0.52551 0.88475 0.0
N132 N 0.51055 0.58932 0.87773 0.0
C133 C 0.59975 0.548 0.91078 0.0
C134 C 0.53834 0.54563 0.86822 0.0
C135 C 0.52589 0.61177 0.90394 0.0
C136 C 0.65185 0.52741 0.92688 0.0
C137 C 0.66296 0.53558 0.9566 0.0
C138 C 0.71198 0.51377 0.97115 0.0
C139 C 0.75113 0.4846 0.95608 0.0
C140 C 0.74025 0.47762 0.92637 0.0
C141 C 0.69137 0.4985 0.91203 0.0
C142 C 0.52275 0.52199 0.83948 0.0
C143 C 0.53422 0.46729 0.83365 0.0
C144 C 0.52565 0.44627 0.8058 0.0
C145 C 0.50681 0.47985 0.78301 0.0
C146 C 0.49235 0.53391 0.78919 0.0
C147 C 0.49978 0.55461 0.8172 0.0
C148 C 0.49407 0.65894 0.91356 0.0
C149 C 0.47341 0.6974 0.89356 0.0
C150 C 0.2883 0.52511 0.12667 0.0
C151 C 0.28632 0.49817 0.09991 0.0
C152 C 0.33024 0.50785 0.08232 0.0
C153 C 0.37642 0.54116 0.09193 0.0
H154 H 0.49796 0.67928 0.07135 0.0
H155 H 0.56378 0.73283 0.04566 0.0
H156 H 0.69618 0.70705 0.11358 0.0
H157 H 0.63159 0.65333 0.13863 0.0
H158 H 0.59754 0.6472 0.19933 0.0
H159 H 0.62687 0.64393 0.25013 0.0
H160 H 0.46001 0.58728 0.26598 0.0
H161 H 0.43 0.59055 0.21484 0.0
H162 H 0.33578 0.57616 0.15756 0.0
H163 H 0.25461 0.51989 0.14051 0.0
H164 H 0.33059 0.48751 0.06171 0.0
H165 H 0.41065 0.54591 0.07835 0.0
N166 N 0.4692 0.61483 0.11393 0.0
N167 N 0.53117 0.63906 0.15395 0.0
N168 N 0.44556 0.59545 0.16028 0.0
C169 C 0.51879 0.63783 0.12524 0.0
C170 C 0.49507 0.61824 0.17166 0.0
C171 C 0.43236 0.59344 0.13145 0.0
C172 C 0.55936 0.66279 0.10718 0.0
C173 C 0.54149 0.68417 0.08038 0.0
C174 C 0.57902 0.71512 0.06582 0.0
C175 C 0.63508 0.72459 0.0777 0.0
C176 C 0.65356 0.70026 0.10364 0.0
C177 C 0.61621 0.66983 0.11818 0.0
C178 C 0.51136 0.61876 0.20288 0.0
C179 C 0.5667 0.63439 0.21353 0.0
C180 C 0.58374 0.63242 0.24267 0.0
C181 C 0.54581 0.61524 0.26194 0.0
C182 C 0.48998 0.60115 0.25156 0.0
C183 C 0.47295 0.60264 0.22227 0.0
C184 C 0.38003 0.56493 0.11947 0.0
C185 C 0.33478 0.55765 0.13642 0.0
H186 H 0.10156 0.20079 0.10204 0.0
H187 H 0.23278 0.4728 0.04639 0.0
H188 H 0.09207 0.24012 0.01277 0.0
H189 H 0.23904 0.42646 0.13479 0.0
H190 H 0.16885 0.3959 0.03355 0.0
H191 H 0.13652 0.29202 0.11438 0.0
C192 C 0.10584 0.22922 0.08505 0.0
C193 C 0.09435 0.21299 0.05638 0.0
C194 C 0.18361 0.40323 0.05579 0.0
C195 C 0.13618 0.31723 0.07022 0.0
C196 C 0.22044 0.44691 0.06314 0.0
C197 C 0.2419 0.45619 0.09174 0.0
C198 C 0.16824 0.36848 0.07718 0.0
C199 C 0.22339 0.42172 0.11252 0.0
C200 C 0.12605 0.2813 0.09207 0.0
C201 C 0.10032 0.25132 0.03516 0.0
N202 N 0.18822 0.37936 0.10479 0.0
N203 N 0.12194 0.30153 0.04247 0.0
H204 H 0.26168 0.02784 0.99104 0.0
H205 H 0.31997 0.72587 0.94976 0.0
H206 H 0.12359 0.91682 0.96706 0.0
H207 H 0.43027 0.85301 0.92531 0.0
H208 H 0.24975 0.79457 0.96054 0.0
H209 H 0.32687 0.96494 0.96985 0.0
C210 C 0.245 0.99073 0.98069 0.0
C211 C 0.18737 0.97738 0.9806 0.0
C212 C 0.2892 0.80734 0.95266 0.0
C213 C 0.26159 0.90473 0.95747 0.0
C214 C 0.32936 0.76835 0.94685 0.0
C215 C 0.38086 0.78415 0.93692 0.0
C216 C 0.30132 0.86246 0.94911 0.0
C217 C 0.39098 0.8395 0.93306 0.0
C218 C 0.28211 0.95491 0.9687 0.0
C219 C 0.16772 0.92868 0.96725 0.0
N220 N 0.3518 0.87689 0.93954 0.0
N221 N 0.20504 0.89345 0.9567 0.0
H222 H 0.92961 0.90705 0.03747 0.0
H223 H 0.60738 0.82289 0.05431 0.0
H224 H 0.78632 0.00952 0.01395 0.0
H225 H 0.74946 0.71589 0.07271 0.0
H226 H 0.67229 0.89162 0.03925 0.0
H227 H 0.86481 0.83787 0.05251 0.0
C228 C 0.88462 0.9155 0.03615 0.0
C229 C 0.86333 0.96447 0.02504 0.0
C230 C 0.68927 0.85299 0.04643 0.0
C231 C 0.78872 0.88474 0.04098 0.0
C232 C 0.6521 0.81345 0.05472 0.0
C233 C 0.67298 0.76355 0.06488 0.0
C234 C 0.74783 0.8427 0.04837 0.0
C235 C 0.73158 0.75407 0.06541 0.0
C236 C 0.84754 0.87567 0.04428 0.0
C237 C 0.80445 0.97241 0.02261 0.0
N238 N 0.76697 0.79338 0.05744 0.0
N239 N 0.7692 0.93295 0.03049 0.0
H240 H 0.9407 0.22643 0.03659 0.0
H241 H 0.85966 0.48261 0.94056 0.0
H242 H 0.9863 0.24896 0.95094 0.0
H243 H 0.75659 0.42374 0.00464 0.0
H244 H 0.93353 0.41812 0.95652 0.0
H245 H 0.90105 0.31871 0.03639 0.0
C246 C 0.9444 0.25172 0.01824 0.0
C247 C 0.9663 0.23048 0.99366 0.0
C248 C 0.89532 0.42027 0.96754 0.0
C249 C 0.92145 0.33495 0.99326 0.0
C250 C 0.85313 0.45695 0.95845 0.0
C251 C 0.80127 0.45744 0.97078 0.0
C252 C 0.8857 0.38383 0.98917 0.0
C253 C 0.79568 0.4243 0.99434 0.0
C254 C 0.92145 0.30399 0.01805 0.0
C255 C 0.96953 0.26414 0.97023 0.0
N256 N 0.83695 0.38792 0.00242 0.0
N257 N 0.94681 0.31459 0.97049 0.0
H258 H 0.71722 0.62191 0.48231 0.0
H259 H 0.74706 0.89711 0.57318 0.0
H260 H 0.60923 0.66733 0.5476 0.0
H261 H 0.87029 0.83816 0.51796 0.0
H262 H 0.68039 0.82731 0.55323 0.0
H263 H 0.75557 0.71454 0.48367 0.0
C264 C 0.69989 0.65223 0.49604 0.0
C265 C 0.65999 0.63751 0.51477 0.0
C266 C 0.72162 0.83029 0.54508 0.0
C267 C 0.70502 0.74251 0.51739 0.0
C268 C 0.75981 0.87003 0.55653 0.0
C269 C 0.81493 0.87273 0.54774 0.0
C270 C 0.73863 0.79274 0.52473 0.0
C271 C 0.82847 0.8375 0.52555 0.0
C272 C 0.72221 0.70486 0.49708 0.0
C273 C 0.63966 0.67757 0.53266 0.0
N274 N 0.791 0.79836 0.51519 0.0
N275 N 0.66314 0.72811 0.53392 0.0
H276 H 0.66894 0.31623 0.47594 0.0
H277 H 0.96143 0.15812 0.46574 0.0
H278 H 0.82744 0.3687 0.52108 0.0
H279 H 0.79789 0.0946 0.4324 0.0
H280 H 0.91413 0.2366 0.48546 0.0
H281 H 0.71684 0.2369 0.45785 0.0
C282 C 0.71389 0.31126 0.48193 0.0
C283 C 0.74419 0.34918 0.50009 0.0
C284 C 0.88863 0.20534 0.47392 0.0
C285 C 0.79929 0.25819 0.47956 0.0
C286 C 0.91558 0.16032 0.46284 0.0
C287 C 0.88365 0.11984 0.44719 0.0
C288 C 0.82936 0.21001 0.46923 0.0
C289 C 0.82436 0.12527 0.44383 0.0
C290 C 0.74118 0.26578 0.47171 0.0
C291 C 0.80237 0.34049 0.50717 0.0
N292 N 0.79922 0.16959 0.4546 0.0
N293 N 0.82803 0.29591 0.49689 0.0
H294 H 0.45768 0.39647 0.56886 0.0
H295 H 0.27914 0.11961 0.54808 0.0
H296 H 0.50402 0.2607 0.51661 0.0
H297 H 0.24105 0.24735 0.60734 0.0
H298 H 0.36056 0.1723 0.53548 0.0
H299 H 0.37906 0.34264 0.58403 0.0
C300 C 0.45198 0.35509 0.56097 0.0
C301 C 0.48746 0.33316 0.54139 0.0
C302 C 0.33439 0.18889 0.55123 0.0
C303 C 0.39685 0.27177 0.5581 0.0
C304 C 0.28751 0.15905 0.55819 0.0
C305 C 0.25326 0.17907 0.5788 0.0
C306 C 0.34706 0.2393 0.56489 0.0
C307 C 0.26671 0.2301 0.59155 0.0
C308 C 0.40678 0.32451 0.56944 0.0
C309 C 0.47764 0.27943 0.53163 0.0
N310 N 0.31254 0.25844 0.5844 0.0
N311 N 0.43306 0.2508 0.5399 0.0
H312 H 0.51611 0.6286 0.49158 0.0
H313 H 0.20092 0.67659 0.42038 0.0
H314 H 0.39034 0.50259 0.47245 0.0
H315 H 0.30731 0.80968 0.45388 0.0
H316 H 0.27287 0.61308 0.43884 0.0
H317 H 0.4434 0.69673 0.47763 0.0
C318 C 0.47332 0.61529 0.4846 0.0
C319 C 0.45941 0.55976 0.48297 0.0
C320 C 0.28071 0.6561 0.44237 0.0
C321 C 0.37656 0.63706 0.46704 0.0
C322 C 0.23964 0.69239 0.4317 0.0
C323 C 0.24843 0.74841 0.43541 0.0
C324 C 0.33154 0.6757 0.45677 0.0
C325 C 0.29901 0.76669 0.45063 0.0
C326 C 0.43192 0.65413 0.4767 0.0
C327 C 0.40332 0.54479 0.47386 0.0
N328 N 0.33907 0.73037 0.46058 0.0
N329 N 0.36428 0.58307 0.46615 0.0
H330 H 0.05618 0.88838 0.09155 0.0
H331 H 0.8995 0.96297 0.22362 0.0
H332 H 0.92493 0.00939 0.08765 0.0
H333 H 0.97517 0.8053 0.2137 0.0
H334 H 0.89758 0.97495 0.1723 0.0
H335 H 0.01824 0.85056 0.13357 0.0
C336 C 0.01842 0.90607 0.09922 0.0
C337 C 0.99389 0.95227 0.08648 0.0
C338 C 0.91346 0.9372 0.18125 0.0
C339 C 0.95133 0.91054 0.13498 0.0
C340 C 0.91439 0.93014 0.21067 0.0
C341 C 0.93882 0.88349 0.22328 0.0
C342 C 0.9381 0.89789 0.16435 0.0
C343 C 0.95779 0.84277 0.20515 0.0
C344 C 0.9967 0.88451 0.12317 0.0
C345 C 0.94505 0.97378 0.09706 0.0
N346 N 0.95821 0.85143 0.1767 0.0
N347 N 0.92612 0.95356 0.12121 0.0
H348 H 0.128 0.03674 0.92622 0.0
H349 H 0.04796 0.86989 0.78058 0.0
H350 H 0.98263 0.93104 0.91022 0.0
H351 H 0.14813 0.01724 0.78676 0.0
H352 H 0.04784 0.87143 0.8326 0.0
H353 H 0.15987 0.00806 0.87985 0.0
C354 C 0.10386 0.00628 0.91332 0.0
C355 C 0.0524 0.98657 0.92164 0.0
C356 C 0.07067 0.90284 0.82252 0.0
C357 C 0.08802 0.95402 0.86907 0.0
C358 C 0.07043 0.90225 0.79282 0.0
C359 C 0.09699 0.94416 0.77911 0.0
C360 C 0.0978 0.94551 0.83868 0.0
C361 C 0.12698 0.98405 0.79626 0.0
C362 C 0.12175 0.99024 0.88688 0.0
C363 C 0.02225 0.94752 0.90424 0.0
N364 N 0.1259 0.98416 0.82511 0.0
N365 N 0.04019 0.93289 0.87862 0.0
H366 H 0.49568 0.4802 0.59875 0.0
H367 H 0.58421 0.41142 0.76172 0.0
H368 H 0.65167 0.40376 0.63085 0.0
H369 H 0.43546 0.50529 0.73514 0.0
H370 H 0.59645 0.39087 0.71215 0.0
H371 H 0.46152 0.47378 0.64653 0.0
C372 C 0.52216 0.46114 0.6157 0.0
C373 C 0.5768 0.44316 0.6111 0.0
C374 C 0.5607 0.41553 0.71707 0.0
C375 C 0.53845 0.43578 0.66536 0.0
C376 C 0.5532 0.42687 0.74557 0.0
C377 C 0.50896 0.46075 0.75286 0.0
C378 C 0.52437 0.4388 0.69544 0.0
C379 C 0.47103 0.48013 0.73059 0.0
C380 C 0.50284 0.45771 0.64291 0.0
C381 C 0.60963 0.41896 0.63366 0.0
N382 N 0.48007 0.46955 0.70283 0.0
N383 N 0.59012 0.41636 0.65981 0.0
H384 H 0.67779 0.46153 0.41328 0.0
H385 H 0.49334 0.64805 0.309 0.0
H386 H 0.57583 0.59022 0.44478 0.0
H387 H 0.64319 0.56732 0.28421 0.0
H388 H 0.52389 0.62975 0.35917 0.0
H389 H 0.66958 0.5029 0.36628 0.0
C390 C 0.65476 0.49924 0.4104 0.0
C391 C 0.62698 0.52227 0.43274 0.0
C392 C 0.55051 0.61686 0.34276 0.0
C393 C 0.6159 0.56887 0.37896 0.0
C394 C 0.53285 0.62687 0.31418 0.0
C395 C 0.56561 0.60882 0.29249 0.0
C396 C 0.60067 0.5877 0.34956 0.0
C397 C 0.61678 0.58209 0.3003 0.0
C398 C 0.64997 0.5228 0.3836 0.0
C399 C 0.59777 0.57117 0.42802 0.0
N400 N 0.63233 0.57165 0.32817 0.0
N401 N 0.59181 0.59225 0.4014 0.0
loop_
_geom_bond_atom_site_label_1
_geom_bond_atom_site_label_2
_geom_bond_distance
_geom_bond_site_symmetry_2
_ccdc_geom_bond_type
Zn0 O6 1.915 1_546 S
Zn0 O12 1.898 . S
Zn0 O15 1.905 1_545 S
Zn1 O9 1.905 . S
Zn1 O10 1.898 1_545 S
Zn1 O18 1.920 1_545 S
Zn2 O5 2.080 1_445 S
Zn2 O8 2.114 . S
Zn2 O11 2.120 1_545 S
Zn2 O13 2.120 1_455 S
Zn2 O14 2.114 1_554 S
Zn2 O17 2.080 . S
C3 O8 1.166 . S
C3 O9 1.182 . S
C4 O10 1.167 . S
C4 O11 1.299 . S
O5 Zn2 2.080 1_665 S
O5 C19 1.305 . S
O6 Zn0 1.915 1_564 S
O6 C19 1.238 . S
C7 O12 1.184 . S
C7 O13 1.285 1_556 S
O8 Zn2 2.114 . S
O8 C3 1.166 . S
O9 Zn1 1.905 . S
O9 C3 1.182 . S
O10 Zn1 1.898 1_565 S
O10 C4 1.167 . S
O11 Zn2 2.120 1_565 S
O11 C4 1.299 . S
O12 Zn0 1.898 . S
O12 C7 1.184 . S
O13 Zn2 2.120 1_655 S
O13 C7 1.285 1_554 S
O14 Zn2 2.114 1_556 S
O14 C16 1.166 1_545 S
O15 Zn0 1.905 1_565 S
O15 C16 1.182 1_655 S
C16 O14 1.166 1_565 S
C16 O15 1.182 1_455 S
O17 Zn2 2.080 . S
O17 C20 1.305 1_545 S
O18 Zn1 1.920 1_565 S
O18 C20 1.234 . S
C19 O5 1.305 . S
C19 O6 1.238 . S
C20 O17 1.305 1_565 S
C20 O18 1.234 . S
Zn21 O27 1.920 . S
Zn21 O33 1.898 . S
Zn21 O36 1.905 . S
Zn22 O30 1.905 . S
Zn22 O31 1.898 . S
Zn22 O39 1.920 . S
Zn23 O26 2.080 . S
Zn23 O29 2.114 . S
Zn23 O32 2.120 . S
Zn23 O34 2.120 . S
Zn23 O35 2.114 . S
Zn23 O38 2.080 . S
C24 O29 1.166 . S
C24 O30 1.182 . S
C25 O31 1.167 . S
C25 O32 1.299 . S
O26 Zn23 2.080 . S
O26 C40 1.305 . S
O27 Zn21 1.920 . S
O27 C40 1.234 . S
C28 O33 1.167 . S
C28 O34 1.299 . S
O29 Zn23 2.114 . S
O29 C24 1.166 . S
O30 Zn22 1.905 . S
O30 C24 1.182 . S
O31 Zn22 1.898 . S
O31 C25 1.167 . S
O32 Zn23 2.120 . S
O32 C25 1.299 . S
O33 Zn21 1.898 . S
O33 C28 1.167 . S
O34 Zn23 2.120 . S
O34 C28 1.299 . S
O35 Zn23 2.114 . S
O35 C37 1.166 . S
O36 Zn21 1.905 . S
O36 C37 1.182 . S
C37 O35 1.166 . S
C37 O36 1.182 . S
O38 Zn23 2.080 . S
O38 C41 1.305 . S
O39 Zn22 1.920 . S
O39 C41 1.234 . S
C40 O26 1.305 . S
C40 O27 1.234 . S
C41 O38 1.305 . S
C41 O39 1.234 . S
C42 C43 1.384 . S
C42 H55 0.947 . S
C42 C77 1.382 . S
C43 C42 1.384 . S
C43 C44 1.378 . S
C44 C43 1.378 . S
C44 C45 1.378 1_655 S
C44 H56 0.952 . S
C45 C44 1.378 1_455 S
C45 H57 0.950 . S
C45 C76 1.383 . S
H46 C65 0.947 . S
H47 C66 0.946 . S
H48 C68 0.953 . S
H49 C69 0.945 . S
H50 C71 0.952 1_565 S
H51 C72 0.944 1_565 S
H52 C74 0.950 . S
H53 C75 0.948 . S
H54 C77 0.951 . S
H55 C42 0.947 . S
H56 C44 0.952 . S
H57 C45 0.950 . S
N58 C61 1.382 . S
N58 C63 1.363 . S
N59 C61 1.371 . S
N59 C62 1.372 . S
N60 C62 1.361 . S
N60 C63 1.377 . S
C61 N58 1.382 . S
C61 N59 1.371 . S
C61 C64 1.480 1_545 S
C62 N59 1.372 . S
C62 N60 1.361 . S
C62 C70 1.457 . S
C63 N58 1.363 . S
C63 N60 1.377 . S
C63 C76 1.479 . S
C64 C61 1.480 1_565 S
C64 C65 1.383 . S
C64 C69 1.385 . S
C65 H46 0.947 . S
C65 C64 1.383 . S
C65 C66 1.388 . S
C66 H47 0.946 . S
C66 C65 1.388 . S
C66 C67 1.384 . S
C67 C66 1.384 . S
C67 C68 1.377 . S
C68 H48 0.953 . S
C68 C67 1.377 . S
C68 C69 1.369 . S
C69 H49 0.945 . S
C69 C64 1.385 . S
C69 C68 1.369 . S
C70 C62 1.457 . S
C70 C71 1.372 . S
C70 C75 1.364 . S
C71 H50 0.952 1_545 S
C71 C70 1.372 . S
C71 C72 1.389 . S
C72 H51 0.944 1_545 S
C72 C71 1.389 . S
C72 C73 1.391 . S
C73 C72 1.391 . S
C73 C74 1.372 . S
C74 H52 0.950 . S
C74 C73 1.372 . S
C74 C75 1.379 . S
C75 H53 0.948 . S
C75 C70 1.364 . S
C75 C74 1.379 . S
C76 C45 1.383 . S
C76 C63 1.479 . S
C76 C77 1.398 1_455 S
C77 C42 1.382 . S
C77 H54 0.951 . S
C77 C76 1.398 1_655 S
C78 C79 1.384 . S
C78 H91 0.947 . S
C78 C113 1.382 . S
C79 C78 1.384 . S
C79 C80 1.378 . S
C80 C79 1.378 . S
C80 C81 1.378 . S
C80 H92 0.952 . S
C81 C80 1.378 . S
C81 H93 0.950 . S
C81 C112 1.383 . S
H82 C101 0.947 . S
H83 C102 0.946 . S
H84 C104 0.953 . S
H85 C105 0.945 . S
H86 C107 0.952 . S
H87 C108 0.949 . S
H88 C110 0.950 . S
H89 C111 0.948 . S
H90 C113 0.951 . S
H91 C78 0.947 . S
H92 C80 0.952 . S
H93 C81 0.950 . S
N94 C97 1.382 . S
N94 C99 1.363 1_445 S
N95 C97 1.371 . S
N95 C98 1.372 . S
N96 C98 1.361 1_665 S
N96 C99 1.377 . S
C97 N94 1.382 . S
C97 N95 1.371 . S
C97 C100 1.480 . S
C98 N95 1.372 . S
C98 N96 1.361 1_445 S
C98 C106 1.457 . S
C99 N94 1.363 1_665 S
C99 N96 1.377 . S
C99 C112 1.479 . S
C100 C97 1.480 . S
C100 C101 1.383 . S
C100 C105 1.385 . S
C101 H82 0.947 . S
C101 C100 1.383 . S
C101 C102 1.388 . S
C102 H83 0.946 . S
C102 C101 1.388 . S
C102 C103 1.384 . S
C103 C102 1.384 . S
C103 C104 1.377 . S
C104 H84 0.953 . S
C104 C103 1.377 . S
C104 C105 1.369 . S
C105 H85 0.945 . S
C105 C100 1.385 . S
C105 C104 1.369 . S
C106 C98 1.457 . S
C106 C107 1.372 . S
C106 C111 1.364 1_445 S
C107 H86 0.952 . S
C107 C106 1.372 . S
C107 C108 1.389 . S
C108 H87 0.949 . S
C108 C107 1.389 . S
C108 C109 1.387 . S
C109 C108 1.387 . S
C109 C110 1.372 1_445 S
C110 H88 0.950 . S
C110 C109 1.372 1_665 S
C110 C111 1.379 . S
C111 H89 0.948 . S
C111 C106 1.364 1_665 S
C111 C110 1.379 . S
C112 C81 1.383 . S
C112 C99 1.479 . S
C112 C113 1.398 . S
C113 C78 1.382 . S
C113 H90 0.951 . S
C113 C112 1.398 . S
C114 C115 1.384 . S
C114 H127 0.947 . S
C114 C149 1.382 . S
C115 C114 1.384 . S
C115 C116 1.378 . S
C116 C115 1.378 . S
C116 C117 1.378 . S
C116 H128 0.952 . S
C117 C116 1.378 . S
C117 H129 0.950 . S
C117 C148 1.383 . S
H118 C137 0.947 . S
H119 C138 0.946 . S
H120 C140 0.953 . S
H121 C141 0.945 . S
H122 C143 0.952 . S
H123 C144 0.949 . S
H124 C146 0.950 . S
H125 C147 0.948 . S
H126 C149 0.951 . S
H127 C114 0.947 . S
H128 C116 0.952 . S
H129 C117 0.950 . S
N130 C133 1.382 . S
N130 C135 1.363 . S
N131 C133 1.371 . S
N131 C134 1.372 . S
N132 C134 1.361 . S
N132 C135 1.377 . S
C133 N130 1.382 . S
C133 N131 1.371 . S
C133 C136 1.480 . S
C134 N131 1.372 . S
C134 N132 1.361 . S
C134 C142 1.457 . S
C135 N130 1.363 . S
C135 N132 1.377 . S
C135 C148 1.479 . S
C136 C133 1.480 . S
C136 C137 1.383 . S
C136 C141 1.385 . S
C137 H118 0.947 . S
C137 C136 1.383 . S
C137 C138 1.388 . S
C138 H119 0.946 . S
C138 C137 1.388 . S
C138 C139 1.384 . S
C139 C138 1.384 . S
C139 C140 1.377 . S
C140 H120 0.953 . S
C140 C139 1.377 . S
C140 C141 1.369 . S
C141 H121 0.945 . S
C141 C136 1.385 . S
C141 C140 1.369 . S
C142 C134 1.457 . S
C142 C143 1.372 . S
C142 C147 1.364 . S
C143 H122 0.952 . S
C143 C142 1.372 . S
C143 C144 1.389 . S
C144 H123 0.949 . S
C144 C143 1.389 . S
C144 C145 1.387 . S
C145 C144 1.387 . S
C145 C146 1.372 . S
C146 H124 0.950 . S
C146 C145 1.372 . S
C146 C147 1.379 . S
C147 H125 0.948 . S
C147 C142 1.364 . S
C147 C146 1.379 . S
C148 C117 1.383 . S
C148 C135 1.479 . S
C148 C149 1.398 . S
C149 C114 1.382 . S
C149 H126 0.951 . S
C149 C148 1.398 . S
C150 C151 1.384 . S
C150 H163 0.947 . S
C150 C185 1.382 . S
C151 C150 1.384 . S
C151 C152 1.378 . S
C152 C151 1.378 . S
C152 C153 1.378 . S
C152 H164 0.952 . S
C153 C152 1.378 . S
C153 H165 0.950 . S
C153 C184 1.383 . S
H154 C173 0.947 . S
H155 C174 0.946 . S
H156 C176 0.953 . S
H157 C177 0.945 . S
H158 C179 0.952 . S
H159 C180 0.949 . S
H160 C182 0.950 . S
H161 C183 0.948 . S
H162 C185 0.951 . S
H163 C150 0.947 . S
H164 C152 0.952 . S
H165 C153 0.950 . S
N166 C169 1.382 . S
N166 C171 1.363 . S
N167 C169 1.371 . S
N167 C170 1.372 . S
N168 C170 1.361 . S
N168 C171 1.377 . S
C169 N166 1.382 . S
C169 N167 1.371 . S
C169 C172 1.480 . S
C170 N167 1.372 . S
C170 N168 1.361 . S
C170 C178 1.457 . S
C171 N166 1.363 . S
C171 N168 1.377 . S
C171 C184 1.479 . S
C172 C169 1.480 . S
C172 C173 1.383 . S
C172 C177 1.385 . S
C173 H154 0.947 . S
C173 C172 1.383 . S
C173 C174 1.388 . S
C174 H155 0.946 . S
C174 C173 1.388 . S
C174 C175 1.384 . S
C175 C174 1.384 . S
C175 C176 1.377 . S
C176 H156 0.953 . S
C176 C175 1.377 . S
C176 C177 1.369 . S
C177 H157 0.945 . S
C177 C172 1.385 . S
C177 C176 1.369 . S
C178 C170 1.457 . S
C178 C179 1.372 . S
C178 C183 1.364 . S
C179 H158 0.952 . S
C179 C178 1.372 . S
C179 C180 1.389 . S
C180 H159 0.949 . S
C180 C179 1.389 . S
C180 C181 1.387 . S
C181 C180 1.387 . S
C181 C182 1.372 . S
C182 H160 0.950 . S
C182 C181 1.372 . S
C182 C183 1.379 . S
C183 H161 0.948 . S
C183 C178 1.364 . S
C183 C182 1.379 . S
C184 C153 1.383 . S
C184 C171 1.479 . S
C184 C185 1.398 . S
C185 C150 1.382 . S
C185 H162 0.951 . S
C185 C184 1.398 . S
H186 C192 0.930 . S
H187 C196 0.930 . S
H188 C201 0.929 1_556 S
H189 C199 0.929 . S
H190 C194 0.929 . S
H191 C200 0.929 . S
C192 H186 0.930 . S
C192 C193 1.367 . S
C192 C200 1.378 . S
C193 C192 1.367 . S
C193 C201 1.433 . S
C194 H190 0.929 . S
C194 C196 1.378 . S
C194 C198 1.350 . S
C195 C198 1.463 . S
C195 C200 1.350 . S
C195 N203 1.427 . S
C196 H187 0.930 . S
C196 C194 1.378 . S
C196 C197 1.367 . S
C197 C196 1.367 . S
C197 C199 1.433 . S
C198 C194 1.350 . S
C198 C195 1.463 . S
C198 N202 1.427 . S
C199 H189 0.929 . S
C199 C197 1.433 . S
C199 N202 1.384 . S
C200 H191 0.929 . S
C200 C192 1.378 . S
C200 C195 1.350 . S
C201 H188 0.929 1_554 S
C201 C193 1.433 . S
C201 N203 1.384 . S
N202 C198 1.427 . S
N202 C199 1.384 . S
N203 C195 1.427 . S
N203 C201 1.384 . S
H204 C210 0.930 . S
H205 C214 0.930 1_554 S
H206 C219 0.929 . S
H207 C217 0.929 . S
H208 C212 0.929 . S
H209 C218 0.929 . S
C210 H204 0.930 . S
C210 C211 1.367 . S
C210 C218 1.378 . S
C211 C210 1.367 . S
C211 C219 1.433 1_556 S
C212 H208 0.929 . S
C212 C214 1.378 1_554 S
C212 C216 1.350 1_554 S
C213 C216 1.463 . S
C213 C218 1.350 . S
C213 N221 1.427 1_556 S
C214 H205 0.930 1_556 S
C214 C212 1.378 1_556 S
C214 C215 1.368 . S
C215 C214 1.368 . S
C215 C217 1.433 . S
C216 C212 1.350 1_556 S
C216 C213 1.463 . S
C216 N220 1.427 . S
C217 H207 0.929 . S
C217 C215 1.433 . S
C217 N220 1.384 . S
C218 H209 0.929 . S
C218 C210 1.378 . S
C218 C213 1.350 . S
C219 H206 0.929 . S
C219 C211 1.433 1_554 S
C219 N221 1.384 . S
N220 C216 1.427 . S
N220 C217 1.384 . S
N221 C213 1.427 1_554 S
N221 C219 1.384 . S
H222 C228 0.930 . S
H223 C232 0.930 . S
H224 C237 0.929 . S
H225 C235 0.929 . S
H226 C230 0.929 . S
H227 C236 0.929 . S
C228 H222 0.930 . S
C228 C229 1.367 . S
C228 C236 1.378 . S
C229 C228 1.367 . S
C229 C237 1.433 . S
C230 H226 0.929 . S
C230 C232 1.378 . S
C230 C234 1.350 . S
C231 C234 1.463 . S
C231 C236 1.350 . S
C231 N239 1.427 . S
C232 H223 0.930 . S
C232 C230 1.378 . S
C232 C233 1.367 . S
C233 C232 1.367 . S
C233 C235 1.433 . S
C234 C230 1.350 . S
C234 C231 1.463 . S
C234 N238 1.427 . S
C235 H225 0.929 . S
C235 C233 1.433 . S
C235 N238 1.384 . S
C236 H227 0.929 . S
C236 C228 1.378 . S
C236 C231 1.350 . S
C237 H224 0.929 . S
C237 C229 1.433 . S
C237 N239 1.384 . S
N238 C234 1.427 . S
N238 C235 1.384 . S
N239 C231 1.427 . S
N239 C237 1.384 . S
H240 C246 0.930 . S
H241 C250 0.930 1_554 S
H242 C255 0.929 . S
H243 C253 0.929 . S
H244 C248 0.929 . S
H245 C254 0.929 . S
C246 H240 0.930 . S
C246 C247 1.367 1_556 S
C246 C254 1.378 . S
C247 C246 1.367 1_554 S
C247 C255 1.433 . S
C248 H244 0.929 . S
C248 C250 1.378 1_554 S
C248 C252 1.350 1_554 S
C249 C252 1.463 . S
C249 C254 1.350 . S
C249 N257 1.427 1_556 S
C250 H241 0.930 1_556 S
C250 C248 1.378 1_556 S
C250 C251 1.367 . S
C251 C250 1.367 . S
C251 C253 1.433 . S
C252 C248 1.350 1_556 S
C252 C249 1.463 . S
C252 N256 1.427 . S
C253 H243 0.929 . S
C253 C251 1.433 . S
C253 N256 1.384 . S
C254 H245 0.929 . S
C254 C246 1.378 . S
C254 C249 1.350 . S
C255 H242 0.929 . S
C255 C247 1.433 . S
C255 N257 1.384 . S
N256 C252 1.427 . S
N256 C253 1.384 . S
N257 C249 1.427 1_554 S
N257 C255 1.384 . S
H258 C264 0.930 . S
H259 C268 0.930 . S
H260 C273 0.929 . S
H261 C271 0.929 . S
H262 C266 0.929 . S
H263 C272 0.929 . S
C264 H258 0.930 . S
C264 C265 1.367 . S
C264 C272 1.378 . S
C265 C264 1.367 . S
C265 C273 1.433 . S
C266 H262 0.929 . S
C266 C268 1.378 . S
C266 C270 1.350 . S
C267 C270 1.463 . S
C267 C272 1.350 . S
C267 N275 1.427 . S
C268 H259 0.930 . S
C268 C266 1.378 . S
C268 C269 1.367 . S
C269 C268 1.367 . S
C269 C271 1.433 . S
C270 C266 1.350 . S
C270 C267 1.463 . S
C270 N274 1.427 . S
C271 H261 0.929 . S
C271 C269 1.433 . S
C271 N274 1.384 . S
C272 H263 0.929 . S
C272 C264 1.378 . S
C272 C267 1.350 . S
C273 H260 0.929 . S
C273 C265 1.433 . S
C273 N275 1.384 . S
N274 C270 1.427 . S
N274 C271 1.384 . S
N275 C267 1.427 . S
N275 C273 1.384 . S
H276 C282 0.930 . S
H277 C286 0.930 . S
H278 C291 0.929 . S
H279 C289 0.929 . S
H280 C284 0.929 . S
H281 C290 0.929 . S
C282 H276 0.930 . S
C282 C283 1.367 . S
C282 C290 1.378 . S
C283 C282 1.367 . S
C283 C291 1.433 . S
C284 H280 0.929 . S
C284 C286 1.378 . S
C284 C288 1.350 . S
C285 C288 1.463 . S
C285 C290 1.350 . S
C285 N293 1.427 . S
C286 H277 0.930 . S
C286 C284 1.378 . S
C286 C287 1.367 . S
C287 C286 1.367 . S
C287 C289 1.433 . S
C288 C284 1.350 . S
C288 C285 1.463 . S
C288 N292 1.427 . S
C289 H279 0.929 . S
C289 C287 1.433 . S
C289 N292 1.384 . S
C290 H281 0.929 . S
C290 C282 1.378 . S
C290 C285 1.350 . S
C291 H278 0.929 . S
C291 C283 1.433 . S
C291 N293 1.384 . S
N292 C288 1.427 . S
N292 C289 1.384 . S
N293 C285 1.427 . S
N293 C291 1.384 . S
H294 C300 0.930 . S
H295 C304 0.930 . S
H296 C309 0.929 . S
H297 C307 0.929 . S
H298 C302 0.929 . S
H299 C308 0.929 . S
C300 H294 0.930 . S
C300 C301 1.367 . S
C300 C308 1.378 . S
C301 C300 1.367 . S
C301 C309 1.433 . S
C302 H298 0.929 . S
C302 C304 1.378 . S
C302 C306 1.350 . S
C303 C306 1.463 . S
C303 C308 1.350 . S
C303 N311 1.427 . S
C304 H295 0.930 . S
C304 C302 1.378 . S
C304 C305 1.367 . S
C305 C304 1.367 . S
C305 C307 1.433 . S
C306 C302 1.350 . S
C306 C303 1.463 . S
C306 N310 1.427 . S
C307 H297 0.929 . S
C307 C305 1.433 . S
C307 N310 1.384 . S
C308 H299 0.929 . S
C308 C300 1.378 . S
C308 C303 1.350 . S
C309 H296 0.929 . S
C309 C301 1.433 . S
C309 N311 1.384 . S
N310 C306 1.427 . S
N310 C307 1.384 . S
N311 C303 1.427 . S
N311 C309 1.384 . S
H312 C318 0.930 . S
H313 C322 0.930 . S
H314 C327 0.929 . S
H315 C325 0.929 . S
H316 C320 0.929 . S
H317 C326 0.929 . S
C318 H312 0.930 . S
C318 C319 1.367 . S
C318 C326 1.378 . S
C319 C318 1.367 . S
C319 C327 1.433 . S
C320 H316 0.929 . S
C320 C322 1.378 . S
C320 C324 1.350 . S
C321 C324 1.463 . S
C321 C326 1.350 . S
C321 N329 1.427 . S
C322 H313 0.930 . S
C322 C320 1.378 . S
C322 C323 1.367 . S
C323 C322 1.367 . S
C323 C325 1.433 . S
C324 C320 1.350 . S
C324 C321 1.463 . S
C324 N328 1.427 . S
C325 H315 0.929 . S
C325 C323 1.433 . S
C325 N328 1.384 . S
C326 H317 0.929 . S
C326 C318 1.378 . S
C326 C321 1.350 . S
C327 H314 0.929 . S
C327 C319 1.433 . S
C327 N329 1.384 . S
N328 C324 1.427 . S
N328 C325 1.384 . S
N329 C321 1.427 . S
N329 C327 1.384 . S
H330 C336 0.930 . S
H331 C340 0.930 . S
H332 C345 0.929 1_655 S
H333 C343 0.929 . S
H334 C338 0.929 . S
H335 C344 0.929 . S
C336 H330 0.930 . S
C336 C337 1.367 . S
C336 C344 1.378 . S
C337 C336 1.367 . S
C337 C345 1.433 1_565 S
C338 H334 0.929 . S
C338 C340 1.378 . S
C338 C342 1.350 . S
C339 C342 1.463 . S
C339 C344 1.350 1_545 S
C339 N347 1.427 . S
C340 H331 0.930 . S
C340 C338 1.378 . S
C340 C341 1.367 . S
C341 C340 1.367 . S
C341 C343 1.433 1_545 S
C342 C338 1.350 . S
C342 C339 1.463 . S
C342 N346 1.427 1_545 S
C343 H333 0.929 . S
C343 C341 1.433 1_565 S
C343 N346 1.384 . S
C344 H335 0.929 . S
C344 C336 1.378 . S
C344 C339 1.350 1_565 S
C345 H332 0.929 1_455 S
C345 C337 1.433 1_545 S
C345 N347 1.384 . S
N346 C342 1.427 1_565 S
N346 C343 1.384 . S
N347 C339 1.427 . S
N347 C345 1.384 . S
H348 C354 0.930 . S
H349 C358 0.930 . S
H350 C363 0.929 . S
H351 C361 0.929 . S
H352 C356 0.929 . S
H353 C362 0.929 . S
C354 H348 0.930 . S
C354 C355 1.367 1_545 S
C354 C362 1.378 . S
C355 C354 1.367 1_565 S
C355 C363 1.433 1_455 S
C356 H352 0.929 . S
C356 C358 1.378 . S
C356 C360 1.350 1_665 S
C357 C360 1.463 . S
C357 C362 1.350 . S
C357 N365 1.427 1_445 S
C358 H349 0.930 . S
C358 C356 1.378 . S
C358 C359 1.367 1_665 S
C359 C358 1.367 1_445 S
C359 C361 1.433 . S
C360 C356 1.350 1_445 S
C360 C357 1.463 . S
C360 N364 1.427 . S
C361 H351 0.929 . S
C361 C359 1.433 . S
C361 N364 1.384 . S
C362 H353 0.929 . S
C362 C354 1.378 . S
C362 C357 1.350 . S
C363 H350 0.929 . S
C363 C355 1.433 1_655 S
C363 N365 1.384 . S
N364 C360 1.427 . S
N364 C361 1.384 . S
N365 C357 1.427 1_665 S
N365 C363 1.384 . S
H366 C372 0.930 . S
H367 C376 0.930 . S
H368 C381 0.929 . S
H369 C379 0.929 . S
H370 C374 0.929 . S
H371 C380 0.929 . S
C372 H366 0.930 . S
C372 C373 1.367 . S
C372 C380 1.378 . S
C373 C372 1.367 . S
C373 C381 1.433 . S
C374 H370 0.929 . S
C374 C376 1.378 . S
C374 C378 1.350 . S
C375 C378 1.463 . S
C375 C380 1.350 . S
C375 N383 1.427 . S
C376 H367 0.930 . S
C376 C374 1.378 . S
C376 C377 1.367 . S
C377 C376 1.367 . S
C377 C379 1.433 . S
C378 C374 1.350 . S
C378 C375 1.463 . S
C378 N382 1.427 . S
C379 H369 0.929 . S
C379 C377 1.433 . S
C379 N382 1.384 . S
C380 H371 0.929 . S
C380 C372 1.378 . S
C380 C375 1.350 . S
C381 H368 0.929 . S
C381 C373 1.433 . S
C381 N383 1.384 . S
N382 C378 1.427 . S
N382 C379 1.384 . S
N383 C375 1.427 . S
N383 C381 1.384 . S
H384 C390 0.930 . S
H385 C394 0.930 . S
H386 C399 0.929 . S
H387 C397 0.929 . S
H388 C392 0.929 . S
H389 C398 0.929 . S
C390 H384 0.930 . S
C390 C391 1.367 . S
C390 C398 1.378 . S
C391 C390 1.367 . S
C391 C399 1.433 . S
C392 H388 0.929 . S
C392 C394 1.378 . S
C392 C396 1.350 . S
C393 C396 1.463 . S
C393 C398 1.350 . S
C393 N401 1.427 . S
C394 H385 0.930 . S
C394 C392 1.378 . S
C394 C395 1.367 . S
C395 C394 1.367 . S
C395 C397 1.433 . S
C396 C392 1.350 . S
C396 C393 1.463 . S
C396 N400 1.427 . S
C397 H387 0.929 . S
C397 C395 1.433 . S
C397 N400 1.384 . S
C398 H389 0.929 . S
C398 C390 1.378 . S
C398 C393 1.350 . S
C399 H386 0.929 . S
C399 C391 1.433 . S
C399 N401 1.384 . S
N400 C396 1.427 . S
N400 C397 1.384 . S
N401 C393 1.427 . S
N401 C399 1.384 . S
C197 C151 1.242 . S
C193 C3 1.119 . S
C211 C4 1.508 1_556 S
C215 C115 1.619 . S
C229 C19 1.531 . S
C233 C175 1.611 . S
C247 C7 1.110 1_554 S
C251 C139 1.235 . S
C265 C37 1.132 . S
C269 C79 1.233 . S
C283 C28 1.496 . S
C287 C43 1.613 . S
C305 C103 1.613 . S
C301 C41 1.533 . S
C323 C67 1.224 . S
C319 C25 1.137 . S
C337 C20 1.294 . S
C341 C73 1.466 . S
C355 C16 1.346 . S
C359 C109 1.491 . S
C377 C145 1.465 . S
C373 C40 1.304 . S
C391 C24 1.355 . S
C395 C181 1.495 . S
