# Generated by pormake.
# Topology pyr, (3,6)-cn, num edge types: 1
# Building blocks:
#     Node 0, Type 0, BuildingBlock: CUQRIR_clean_linker_1, # of connection points: 3
#     Node 1, Type 0, BuildingBlock: CUQRIR_clean_linker_1, # of connection points: 3
#     Node 2, Type 0, BuildingBlock: CUQRIR_clean_linker_1, # of connection points: 3
#     Node 3, Type 0, BuildingBlock: CUQRIR_clean_linker_1, # of connection points: 3
#     Node 4, Type 0, BuildingBlock: CUQRIR_clean_linker_1, # of connection points: 3
#     Node 5, Type 0, BuildingBlock: CUQRIR_clean_linker_1, # of connection points: 3
#     Node 6, Type 0, BuildingBlock: CUQRIR_clean_linker_1, # of connection points: 3
#     Node 7, Type 0, BuildingBlock: CUQRIR_clean_linker_1, # of connection points: 3
#     Node 8, Type 1, BuildingBlock: MIFKUJ_clean_sbu_0, # of connection points: 6
#     Node 9, Type 1, BuildingBlock: MIFKUJ_clean_sbu_0, # of connection points: 6
#     Node 10, Type 1, BuildingBlock: MIFKUJ_clean_sbu_0, # of connection points: 6
#     Node 11, Type 1, BuildingBlock: MIFKUJ_clean_sbu_0, # of connection points: 6
#     Edge 12, Type (0, 1), BuildingBlock: AJUNOK_clean_linker_0, # of connection points: 2
#     Edge 13, Type (0, 1), BuildingBlock: AJUNOK_clean_linker_0, # of connection points: 2
#     Edge 14, Type (0, 1), BuildingBlock: AJUNOK_clean_linker_0, # of connection points: 2
#     Edge 15, Type (0, 1), BuildingBlock: AJUNOK_clean_linker_0, # of connection points: 2
#     Edge 16, Type (0, 1), BuildingBlock: AJUNOK_clean_linker_0, # of connection points: 2
#     Edge 17, Type (0, 1), BuildingBlock: AJUNOK_clean_linker_0, # of connection points: 2
#     Edge 18, Type (0, 1), BuildingBlock: AJUNOK_clean_linker_0, # of connection points: 2
#     Edge 19, Type (0, 1), BuildingBlock: AJUNOK_clean_linker_0, # of connection points: 2
#     Edge 20, Type (0, 1), BuildingBlock: AJUNOK_clean_linker_0, # of connection points: 2
#     Edge 21, Type (0, 1), BuildingBlock: AJUNOK_clean_linker_0, # of connection points: 2
#     Edge 22, Type (0, 1), BuildingBlock: AJUNOK_clean_linker_0, # of connection points: 2
#     Edge 23, Type (0, 1), BuildingBlock: AJUNOK_clean_linker_0, # of connection points: 2
#     Edge 24, Type (0, 1), BuildingBlock: AJUNOK_clean_linker_0, # of connection points: 2
#     Edge 25, Type (0, 1), BuildingBlock: AJUNOK_clean_linker_0, # of connection points: 2
#     Edge 26, Type (0, 1), BuildingBlock: AJUNOK_clean_linker_0, # of connection points: 2
#     Edge 27, Type (0, 1), BuildingBlock: AJUNOK_clean_linker_0, # of connection points: 2
#     Edge 28, Type (0, 1), BuildingBlock: AJUNOK_clean_linker_0, # of connection points: 2
#     Edge 29, Type (0, 1), BuildingBlock: AJUNOK_clean_linker_0, # of connection points: 2
#     Edge 30, Type (0, 1), BuildingBlock: AJUNOK_clean_linker_0, # of connection points: 2
#     Edge 31, Type (0, 1), BuildingBlock: AJUNOK_clean_linker_0, # of connection points: 2
#     Edge 32, Type (0, 1), BuildingBlock: AJUNOK_clean_linker_0, # of connection points: 2
#     Edge 33, Type (0, 1), BuildingBlock: AJUNOK_clean_linker_0, # of connection points: 2
#     Edge 34, Type (0, 1), BuildingBlock: AJUNOK_clean_linker_0, # of connection points: 2
#     Edge 35, Type (0, 1), BuildingBlock: AJUNOK_clean_linker_0, # of connection points: 2
# Relax obj value: 0.106
# Max RMSD: 0.229
# Mean RMSD: 0.152
data_MOF--net-pyr--node1-MIFKUJ_clean_sbu_0--node2-CUQRIR_clean_linker_1--edge1-AJUNOK_clean_linker_0
_symmetry_space_group_name_H-M    P1
_symmetry_Int_Tables_number       1
_symmetry_cell_setting            triclinic
loop_
_symmetry_equiv_pos_as_xyz
'x, y, z'
_cell_length_a     26.690672
_cell_length_b     24.14874
_cell_length_c     24.449249
_cell_angle_alpha  82.05784
_cell_angle_beta   89.371951
_cell_angle_gamma 101.22893
loop_
_atom_site_label
_atom_site_type_symbol
_atom_site_fract_x
_atom_site_fract_y
_atom_site_fract_z
_atom_type_partial_charge
C0 C 0.18288 0.19331 0.21974 0.0
N1 N 0.21562 0.15967 0.2389 0.0
N2 N 0.20194 0.22733 0.17263 0.0
C3 C 0.1317 0.19234 0.24701 0.0
C4 C 0.24757 0.21263 0.16344 0.0
N5 N 0.25592 0.17115 0.20379 0.0
C6 C 0.28581 0.24176 0.11783 0.0
H7 H 0.10488 0.20705 0.21655 0.0
H8 H 0.13712 0.221 0.27915 0.0
H9 H 0.11438 0.14881 0.26751 0.0
H10 H 0.27961 0.2852 0.10236 0.0
H11 H 0.28172 0.2162 0.08318 0.0
H12 H 0.32533 0.24454 0.13242 0.0
C13 C 0.32231 0.82938 0.68007 0.0
N14 N 0.318 0.86504 0.71715 0.0
N15 N 0.36218 0.80319 0.69138 0.0
C16 C 0.2872 0.81978 0.63309 0.0
C17 C 0.38215 0.82439 0.73661 0.0
N18 N 0.3552 0.86192 0.7523 0.0
C19 C 0.42923 0.81058 0.76422 0.0
H20 H 0.24845 0.82638 0.64363 0.0
H21 H 0.28439 0.77608 0.62251 0.0
H22 H 0.30273 0.85089 0.59625 0.0
H23 H 0.45188 0.79036 0.73736 0.0
H24 H 0.41752 0.78109 0.80317 0.0
H25 H 0.45374 0.84982 0.77517 0.0
C26 C 0.60416 0.32425 0.83478 0.0
N27 N 0.63486 0.31746 0.87788 0.0
N28 N 0.61666 0.37782 0.80725 0.0
C29 C 0.56128 0.27903 0.82009 0.0
C30 C 0.65605 0.40352 0.835 0.0
N31 N 0.66669 0.36705 0.87862 0.0
C32 C 0.687 0.46243 0.8164 0.0
H33 H 0.57676 0.25321 0.79233 0.0
H34 H 0.53139 0.2985 0.79813 0.0
H35 H 0.54388 0.25015 0.85761 0.0
H36 H 0.67301 0.49309 0.83966 0.0
H37 H 0.68317 0.47591 0.77165 0.0
H38 H 0.728 0.46421 0.82484 0.0
C39 C 0.84911 0.62614 0.27239 0.0
N40 N 0.896 0.65915 0.25956 0.0
N41 N 0.82184 0.65073 0.30539 0.0
C42 C 0.82968 0.57016 0.25192 0.0
C43 C 0.85327 0.70009 0.312 0.0
N44 N 0.89827 0.70584 0.28357 0.0
C45 C 0.84044 0.74259 0.34696 0.0
H46 H 0.79762 0.54372 0.2788 0.0
H47 H 0.86071 0.54584 0.25001 0.0
H48 H 0.81595 0.57878 0.20951 0.0
H49 H 0.86854 0.74803 0.37989 0.0
H50 H 0.80133 0.72954 0.36604 0.0
H51 H 0.84328 0.78464 0.32105 0.0
C52 C 0.80215 0.83934 0.83004 0.0
N53 N 0.84125 0.83172 0.79813 0.0
N54 N 0.78114 0.88268 0.80555 0.0
C55 C 0.78246 0.80226 0.88352 0.0
C56 C 0.80876 0.90086 0.7573 0.0
N57 N 0.84489 0.86924 0.75252 0.0
C58 C 0.80335 0.95225 0.71713 0.0
H59 H 0.79 0.75857 0.8843 0.0
H60 H 0.7408 0.79972 0.88987 0.0
H61 H 0.80232 0.82107 0.91824 0.0
H62 H 0.78483 0.98184 0.73742 0.0
H63 H 0.77947 0.9381 0.68288 0.0
H64 H 0.84129 0.97519 0.69904 0.0
C65 C 0.76661 0.21879 0.39842 0.0
N66 N 0.77545 0.18282 0.36296 0.0
N67 N 0.72918 0.24662 0.37998 0.0
C68 C 0.79302 0.2251 0.4518 0.0
C69 C 0.71661 0.22739 0.33167 0.0
N70 N 0.74431 0.18847 0.32135 0.0
C71 C 0.67511 0.24433 0.29551 0.0
H72 H 0.77466 0.1896 0.48384 0.0
H73 H 0.79011 0.26588 0.46631 0.0
H74 H 0.83388 0.22265 0.44691 0.0
H75 H 0.68738 0.24955 0.25131 0.0
H76 H 0.6653 0.28478 0.30456 0.0
H77 H 0.64044 0.20997 0.3023 0.0
C78 C 0.36448 0.61385 0.21968 0.0
N79 N 0.40958 0.6469 0.23011 0.0
N80 N 0.34013 0.64189 0.18 0.0
C81 C 0.34313 0.55504 0.24987 0.0
C82 C 0.37109 0.69339 0.1672 0.0
N83 N 0.41304 0.69687 0.19805 0.0
C84 C 0.3598 0.74121 0.12579 0.0
H85 H 0.30132 0.54259 0.24561 0.0
H86 H 0.35155 0.55271 0.29439 0.0
H87 H 0.36146 0.52363 0.23229 0.0
H88 H 0.35691 0.77819 0.14715 0.0
H89 H 0.32376 0.72848 0.10457 0.0
H90 H 0.39183 0.7553 0.09453 0.0
C91 C 0.09712 0.35678 0.72606 0.0
N92 N 0.13246 0.34837 0.68937 0.0
N93 N 0.11234 0.40728 0.74492 0.0
C94 C 0.04706 0.31682 0.74265 0.0
C95 C 0.15829 0.42929 0.71887 0.0
N96 N 0.17047 0.39374 0.68489 0.0
C97 C 0.19308 0.48327 0.7299 0.0
H98 H 0.03295 0.29262 0.70863 0.0
H99 H 0.01796 0.34072 0.75425 0.0
H100 H 0.05256 0.28615 0.77919 0.0
H101 H 0.18231 0.49638 0.76942 0.0
H102 H 0.19045 0.51792 0.69582 0.0
H103 H 0.23338 0.47768 0.73098 0.0
Zn104 Zn 0.10122 0.03129 0.5651 0.0
Zn105 Zn 0.99785 0.97591 0.44417 0.0
C106 C 0.1295 0.14943 0.58194 0.0
O107 O 0.16634 0.14968 0.54593 0.0
C108 C 0.01073 0.88153 0.38402 0.0
O109 O 0.05305 0.88261 0.41111 0.0
O110 O 0.15802 1.00108 0.60546 0.0
O111 O 0.03498 0.97414 0.58434 0.0
O112 O 0.98071 0.93935 0.52336 0.0
C113 C 0.15833 0.98346 0.65693 0.0
O114 O 0.1177 0.98148 0.68849 0.0
O115 O 0.09651 0.10386 0.59608 0.0
C116 C 0.93643 0.05152 0.38161 0.0
O117 O 0.96069 0.04228 0.33776 0.0
O118 O 0.94735 0.0294 0.42918 0.0
O119 O 0.07039 0.0168 0.42435 0.0
O120 O 0.12654 0.04898 0.48492 0.0
O121 O 0.98173 0.91591 0.39246 0.0
C122 C 0.9941 0.94144 0.57298 0.0
C123 C 0.1147 0.04185 0.43575 0.0
Zn124 Zn 0.54684 0.97598 0.98886 0.0
Zn125 Zn 0.52283 0.04498 0.13257 0.0
C126 C 0.44422 0.93888 0.94415 0.0
O127 O 0.42948 0.91432 0.99462 0.0
C128 C 0.61971 0.06359 0.17866 0.0
O129 O 0.63167 0.0524 0.12965 0.0
O130 O 0.60701 0.95393 0.95248 0.0
O131 O 0.56839 0.05874 0.99424 0.0
O132 O 0.55579 0.10121 0.0663 0.0
C133 C 0.61234 0.95945 0.90009 0.0
O134 O 0.57858 0.98062 0.86941 0.0
O135 O 0.48978 0.96675 0.93495 0.0
C136 C 0.44295 0.08435 0.19414 0.0
O137 O 0.47769 0.09127 0.23154 0.0
O138 O 0.45366 0.06475 0.15058 0.0
O139 O 0.51437 0.95939 0.13362 0.0
O140 O 0.52805 0.92058 0.05896 0.0
O141 O 0.57308 0.06206 0.19166 0.0
C142 C 0.57303 0.10331 0.01723 0.0
C143 C 0.51667 0.91594 0.11026 0.0
Zn144 Zn 0.55334 0.47469 0.47615 0.0
Zn145 Zn 0.46026 0.53878 0.55122 0.0
C146 C 0.62321 0.54535 0.40027 0.0
O147 O 0.59351 0.51464 0.36855 0.0
C148 C 0.37569 0.4468 0.5927 0.0
O149 O 0.41062 0.42965 0.62453 0.0
O150 O 0.57714 0.40756 0.45006 0.0
O151 O 0.55411 0.45699 0.55853 0.0
O152 O 0.50531 0.50158 0.60287 0.0
C153 C 0.62239 0.40405 0.46433 0.0
O154 O 0.64699 0.44141 0.49384 0.0
O155 O 0.61169 0.53908 0.45156 0.0
C156 C 0.42783 0.64331 0.56627 0.0
O157 O 0.41741 0.6457 0.51373 0.0
O158 O 0.4482 0.60326 0.58928 0.0
O159 O 0.48393 0.57236 0.4723 0.0
O160 O 0.49196 0.49595 0.43527 0.0
O161 O 0.38923 0.48932 0.555 0.0
C162 C 0.53776 0.46969 0.60307 0.0
C163 C 0.48573 0.54746 0.42993 0.0
Zn164 Zn 0.94204 0.55228 0.96448 0.0
Zn165 Zn 0.06357 0.50114 0.04981 0.0
C166 C 0.86171 0.45026 0.96047 0.0
O167 O 0.90003 0.42418 0.95551 0.0
C168 C 0.14166 0.55299 0.10639 0.0
O169 O 0.10724 0.5255 0.14449 0.0
O170 O 0.93612 0.62815 0.92309 0.0
O171 O 0.95847 0.5683 0.04208 0.0
O172 O 0.01759 0.53754 0.09418 0.0
C173 C 0.92538 0.63578 0.87248 0.0
O174 O 0.91909 0.59229 0.84462 0.0
O175 O 0.87117 0.5029 0.96591 0.0
C176 C 0.10755 0.40495 0.06261 0.0
O177 O 0.12681 0.4315 0.01422 0.0
O178 O 0.07494 0.42537 0.0879 0.0
O179 O 0.05087 0.49275 0.97005 0.0
O180 O 0.98933 0.51937 0.91881 0.0
O181 O 0.13227 0.55025 0.05584 0.0
C182 C 0.98151 0.56491 0.08731 0.0
C183 C 0.02873 0.49724 0.92441 0.0
C184 C 0.17948 0.0676 0.2932 0.0
C185 C 0.20834 0.12309 0.29097 0.0
C186 C 0.15153 0.03978 0.34157 0.0
C187 C 0.15227 0.06637 0.38945 0.0
H188 H 0.17429 0.04826 0.25572 0.0
H189 H 0.12688 0.99863 0.34047 0.0
S190 S 0.2254 0.21001 0.40523 0.0
N191 N 0.23813 0.20237 0.3408 0.0
N192 N 0.1879 0.14953 0.43242 0.0
C193 C 0.18476 0.11974 0.38896 0.0
C194 C 0.21238 0.1482 0.33954 0.0
C195 C 0.40432 0.93957 0.79573 0.0
C196 C 0.36507 0.89119 0.79945 0.0
C197 C 0.42727 0.95735 0.84337 0.0
C198 C 0.41175 0.92712 0.89638 0.0
H199 H 0.42008 0.96078 0.75554 0.0
H200 H 0.45948 0.99293 0.83822 0.0
S201 S 0.30564 0.80125 0.92716 0.0
N202 N 0.30823 0.81647 0.85908 0.0
N203 N 0.35032 0.84974 0.94923 0.0
C204 C 0.36934 0.88148 0.90052 0.0
C205 C 0.34629 0.86351 0.85183 0.0
C206 C 0.60153 0.37768 0.70828 0.0
C207 C 0.59593 0.4006 0.75711 0.0
C208 C 0.5827 0.40042 0.65865 0.0
C209 C 0.55708 0.44651 0.65637 0.0
H210 H 0.62116 0.3424 0.70855 0.0
H211 H 0.58812 0.38148 0.6219 0.0
S212 S 0.53249 0.5205 0.77459 0.0
N213 N 0.56332 0.47074 0.80133 0.0
N214 N 0.52722 0.51381 0.70845 0.0
C215 C 0.55098 0.46932 0.70556 0.0
C216 C 0.57065 0.44631 0.75583 0.0
C217 C 0.92085 0.66541 0.16213 0.0
C218 C 0.93045 0.64944 0.21784 0.0
C219 C 0.93859 0.63893 0.12018 0.0
C220 C 0.96689 0.59541 0.13232 0.0
H221 H 0.89592 0.69539 0.15154 0.0
H222 H 0.92847 0.6514 0.07811 0.0
S223 S 1.00519 0.54127 0.27214 0.0
N224 N 0.9717 0.58974 0.28299 0.0
N225 N 0.00673 0.54088 0.20464 0.0
C226 C 0.97956 0.58181 0.18776 0.0
C227 C 0.961 0.60861 0.23035 0.0
C228 C 0.30941 0.11288 0.16435 0.0
C229 C 0.29948 0.14369 0.20659 0.0
C230 C 0.35511 0.09251 0.16153 0.0
C231 C 0.39295 0.10239 0.20082 0.0
H232 H 0.28204 0.10587 0.13241 0.0
H233 H 0.36121 0.06992 0.1275 0.0
S234 S 0.38476 0.18149 0.31975 0.0
N235 N 0.33069 0.1836 0.28812 0.0
N236 N 0.4161 0.14471 0.28427 0.0
C237 C 0.38264 0.13214 0.24416 0.0
C238 C 0.33608 0.15296 0.24668 0.0
C239 C 0.23637 0.88948 0.7418 0.0
C240 C 0.28402 0.90456 0.71323 0.0
C241 C 0.19643 0.91778 0.72566 0.0
C242 C 0.2029 0.96117 0.67975 0.0
H243 H 0.22899 0.85308 0.7741 0.0
H244 H 0.15941 0.90297 0.74689 0.0
S245 S 0.32319 0.02021 0.59626 0.0
N246 N 0.3374 0.96853 0.64131 0.0
N247 N 0.26282 0.02174 0.61022 0.0
C248 C 0.25172 0.979 0.65355 0.0
C249 C 0.2922 0.95067 0.67053 0.0
C250 C 0.75185 0.351 0.905 0.0
C251 C 0.71041 0.37751 0.91231 0.0
C252 C 0.80019 0.37243 0.92423 0.0
C253 C 0.80866 0.42146 0.95092 0.0
H254 H 0.74771 0.31627 0.88067 0.0
H255 H 0.83174 0.35266 0.91478 0.0
S256 S 0.70935 0.49975 0.98794 0.0
N257 N 0.67859 0.44978 0.95394 0.0
N258 N 0.76913 0.49077 0.99001 0.0
C259 C 0.76614 0.44515 0.96244 0.0
C260 C 0.71706 0.42295 0.94317 0.0
C261 C 0.72944 0.61989 0.29695 0.0
C262 C 0.77194 0.62802 0.33015 0.0
C263 C 0.68081 0.59518 0.32043 0.0
C264 C 0.67333 0.57823 0.37788 0.0
H265 H 0.73419 0.63195 0.25259 0.0
H266 H 0.64905 0.58836 0.2933 0.0
S267 S 0.77376 0.59065 0.48186 0.0
N268 N 0.80459 0.61742 0.42222 0.0
N269 N 0.71308 0.57187 0.46723 0.0
C270 C 0.71574 0.58751 0.41153 0.0
C271 C 0.76519 0.61208 0.38738 0.0
C272 C 0.16566 0.31362 0.17259 0.0
C273 C 0.18013 0.27246 0.14358 0.0
C274 C 0.14038 0.35512 0.14657 0.0
C275 C 0.12982 0.35769 0.09023 0.0
H276 H 0.17384 0.31344 0.21589 0.0
H277 H 0.13026 0.38629 0.17036 0.0
S278 S 0.15926 0.25936 0.9961 0.0
N279 N 0.18073 0.23564 0.05623 0.0
N280 N 0.13563 0.31568 0.00613 0.0
C281 C 0.14472 0.3173 0.06052 0.0
C282 C 0.16941 0.27422 0.08744 0.0
C283 C 0.60826 0.26359 0.96974 0.0
C284 C 0.63108 0.26665 0.91718 0.0
C285 C 0.59168 0.21076 1.0032 0.0
C286 C 0.59712 0.15926 0.98485 0.0
H287 H 0.60035 0.30191 0.98342 0.0
H288 H 0.57219 0.21019 0.04243 0.0
S289 S 0.66151 0.14685 0.85265 0.0
N290 N 0.66323 0.21586 0.85033 0.0
N291 N 0.63283 0.11643 0.91251 0.0
C292 C 0.62334 0.16273 0.93363 0.0
C293 C 0.64012 0.21648 0.89997 0.0
C294 C 0.94051 0.80605 0.27285 0.0
C295 C 0.94245 0.74863 0.29072 0.0
C296 C 0.96523 0.84966 0.30137 0.0
C297 C 0.99422 0.8375 0.34763 0.0
H298 H 0.91451 0.81629 0.24105 0.0
H299 H 0.95907 0.89261 0.28918 0.0
S300 S 0.01841 0.69512 0.40467 0.0
N301 N 0.98003 0.68286 0.35329 0.0
N302 N 0.02923 0.76479 0.405 0.0
C303 C 1.00165 0.78124 0.36148 0.0
C304 C 0.97541 0.73681 0.33315 0.0
C305 C 0.39286 0.77818 0.60445 0.0
C306 C 0.37982 0.76333 0.6611 0.0
C307 C 0.40864 0.73916 0.57395 0.0
C308 C 0.41262 0.68438 0.59944 0.0
H309 H 0.39071 0.82023 0.58374 0.0
H310 H 0.41807 0.75209 0.53025 0.0
S311 S 0.38024 0.62449 0.74661 0.0
N312 N 0.36948 0.69006 0.74106 0.0
N313 N 0.40078 0.61693 0.68462 0.0
C314 C 0.39982 0.66926 0.6563 0.0
C315 C 0.383 0.70872 0.68695 0.0
C316 C 0.93457 0.89825 0.71846 0.0
C317 C 0.88313 0.87765 0.70869 0.0
C318 C 0.97103 0.91543 0.67451 0.0
C319 C 0.95724 0.91235 0.61922 0.0
H320 H 0.94604 0.90377 0.76003 0.0
H321 H 0.00981 0.93359 0.68387 0.0
S322 S 0.82743 0.8531 0.57429 0.0
N323 N 0.82054 0.84918 0.64199 0.0
N324 N 0.88838 0.88072 0.55885 0.0
C325 C 0.90612 0.88773 0.60985 0.0
C326 C 0.86921 0.87071 0.65472 0.0
C327 C 0.68825 0.09961 0.30726 0.0
C328 C 0.72677 0.1464 0.28615 0.0
C329 C 0.65496 0.07065 0.27197 0.0
C330 C 0.66028 0.08662 0.21444 0.0
H331 H 0.68068 0.08932 0.35148 0.0
H332 H 0.62339 0.03752 0.28987 0.0
S333 S 0.75792 0.20315 0.13876 0.0
N334 N 0.76987 0.20558 0.20461 0.0
N335 N 0.70955 0.14902 0.13772 0.0
C336 C 0.70152 0.12999 0.19268 0.0
C337 C 0.73441 0.16036 0.22875 0.0
C338 C 0.44283 0.65702 0.32213 0.0
C339 C 0.44254 0.6321 0.27365 0.0
C340 C 0.45922 0.63069 0.37177 0.0
C341 C 0.47497 0.57772 0.37504 0.0
H342 H 0.42669 0.69478 0.32258 0.0
H343 H 0.45686 0.65071 0.40841 0.0
S344 S 0.48755 0.49973 0.25642 0.0
N345 N 0.46539 0.55632 0.22945 0.0
N346 N 0.49381 0.50485 0.32276 0.0
C347 C 0.47806 0.55463 0.32552 0.0
C348 C 0.46259 0.5824 0.27487 0.0
C349 C 0.08922 0.40216 0.84342 0.0
C350 C 0.08897 0.42872 0.78868 0.0
C351 C 0.06961 0.42469 0.88707 0.0
C352 C 0.04855 0.47417 0.87729 0.0
H353 H 0.1055 0.36434 0.85241 0.0
H354 H 0.07048 0.40284 0.9287 0.0
S355 S 0.03854 0.55845 0.7404 0.0
N356 N 0.06619 0.50618 0.72643 0.0
N357 N 0.0282 0.54833 0.80816 0.0
C358 C 0.04731 0.50036 0.82234 0.0
C359 C 0.06796 0.47775 0.77809 0.0
C360 C 0.74219 0.92172 0.87972 0.0
C361 C 0.73966 0.90449 0.82708 0.0
C362 C 0.7009 0.93963 0.90298 0.0
C363 C 0.65582 0.94158 0.87405 0.0
H364 H 0.77631 0.92088 0.90313 0.0
H365 H 0.70442 0.95222 0.94383 0.0
S366 S 0.62989 0.8987 0.73539 0.0
N367 N 0.68841 0.88847 0.74744 0.0
N368 N 0.61107 0.92373 0.79003 0.0
C369 C 0.65315 0.92496 0.82099 0.0
C370 C 0.69502 0.90605 0.79775 0.0
C371 C 0.81697 0.10839 0.41306 0.0
C372 C 0.81437 0.14852 0.36624 0.0
C373 C 0.85669 0.0775 0.41788 0.0
C374 C 0.89502 0.08517 0.37575 0.0
H375 H 0.78814 0.101 0.44614 0.0
H376 H 0.85707 0.04702 0.45473 0.0
S377 S 0.90633 0.18765 0.24611 0.0
N378 N 0.8544 0.19632 0.2785 0.0
N379 N 0.92794 0.13727 0.28615 0.0
C380 C 0.89246 0.1251 0.32862 0.0
C381 C 0.85241 0.15693 0.3242 0.0
C382 C 0.28447 0.60704 0.10766 0.0
C383 C 0.29025 0.62358 0.16034 0.0
C384 C 0.2358 0.58641 0.08913 0.0
C385 C 0.19183 0.58147 0.12318 0.0
H386 H 0.31788 0.60906 0.08137 0.0
H387 H 0.23278 0.57231 0.0489 0.0
S388 S 0.18782 0.62547 0.26253 0.0
N389 N 0.24923 0.63855 0.24431 0.0
N390 N 0.15741 0.59923 0.21043 0.0
C391 C 0.19744 0.6002 0.1752 0.0
C392 C 0.24684 0.62148 0.19358 0.0
C393 C 0.23523 0.44814 0.61509 0.0
C394 C 0.2189 0.40062 0.65559 0.0
C395 C 0.28507 0.46047 0.59179 0.0
C396 C 0.32069 0.42612 0.60895 0.0
H397 H 0.20962 0.47694 0.60282 0.0
H398 H 0.29646 0.499 0.56246 0.0
S399 S 0.29457 0.29382 0.71089 0.0
N400 N 0.24032 0.31711 0.70955 0.0
N401 N 0.33419 0.33964 0.66601 0.0
C402 C 0.30369 0.37666 0.64747 0.0
C403 C 0.25277 0.36409 0.67081 0.0
C404 C 0.86505 0.7424 0.78026 0.0
C405 C 0.87135 0.78869 0.81008 0.0
C406 C 0.88543 0.6941 0.79888 0.0
C407 C 0.91252 0.69075 0.84806 0.0
H408 H 0.84171 0.74231 0.74431 0.0
H409 H 0.87743 0.65807 0.77623 0.0
S410 S 0.94562 0.80598 0.9354 0.0
N411 N 0.91089 0.83196 0.88649 0.0
N412 N 0.94967 0.74176 0.92203 0.0
C413 C 0.92217 0.73906 0.87567 0.0
C414 C 0.90141 0.78793 0.85654 0.0
C415 C 0.44663 0.79403 0.21532 0.0
C416 C 0.45405 0.74574 0.19265 0.0
C417 C 0.47034 0.8492 0.19101 0.0
C418 C 0.50182 0.85787 0.14266 0.0
H419 H 0.41803 0.7893 0.24829 0.0
H420 H 0.4604 0.8852 0.20752 0.0
S421 S 0.54043 0.74391 0.07404 0.0
N422 N 0.50029 0.70916 0.12484 0.0
N423 N 0.54537 0.81234 0.07871 0.0
C424 C 0.51374 0.80938 0.12341 0.0
C425 C 0.48993 0.75343 0.14872 0.0
C426 C 0.1205 0.24386 0.69183 0.0
C427 C 0.1306 0.29904 0.66152 0.0
C428 C 0.11878 0.19544 0.66556 0.0
C429 C 0.12859 0.20069 0.60829 0.0
H430 H 0.11461 0.23821 0.73627 0.0
H431 H 0.11119 0.15375 0.69046 0.0
S432 S 0.15461 0.33519 0.51 0.0
N433 N 0.14727 0.3557 0.57081 0.0
N434 N 0.14763 0.26503 0.52186 0.0
C435 C 0.13891 0.25553 0.57755 0.0
C436 C 0.13911 0.30464 0.60407 0.0
C437 C 0.72888 0.33771 0.41434 0.0
C438 C 0.7034 0.28281 0.40732 0.0
C439 C 0.70231 0.37628 0.43376 0.0
C440 C 0.64914 0.36159 0.44546 0.0
H441 H 0.76921 0.35132 0.40315 0.0
H442 H 0.7233 0.41857 0.43796 0.0
S443 S 0.56584 0.22138 0.43691 0.0
N444 N 0.62322 0.21408 0.41684 0.0
N445 N 0.57264 0.28735 0.45104 0.0
C446 C 0.62348 0.30639 0.43946 0.0
C447 C 0.65081 0.26676 0.42103 0.0
loop_
_geom_bond_atom_site_label_1
_geom_bond_atom_site_label_2
_geom_bond_distance
_geom_bond_site_symmetry_2
_ccdc_geom_bond_type
C0 N1 1.317 . S
C0 N2 1.348 . S
C0 C3 1.485 . S
N1 C0 1.317 . S
N1 N5 1.370 . S
N2 C0 1.348 . S
N2 C4 1.346 . S
C3 C0 1.485 . S
C3 H7 0.960 . S
C3 H8 0.961 . S
C3 H9 0.960 . S
C4 N2 1.346 . S
C4 N5 1.307 . S
C4 C6 1.486 . S
N5 N1 1.370 . S
N5 C4 1.307 . S
C6 C4 1.486 . S
C6 H10 0.960 . S
C6 H11 0.960 . S
C6 H12 0.959 . S
H7 C3 0.960 . S
H8 C3 0.961 . S
H9 C3 0.960 . S
H10 C6 0.960 . S
H11 C6 0.960 . S
H12 C6 0.959 . S
C13 N14 1.317 . S
C13 N15 1.348 . S
C13 C16 1.485 . S
N14 C13 1.317 . S
N14 N18 1.370 . S
N15 C13 1.348 . S
N15 C17 1.346 . S
C16 C13 1.485 . S
C16 H20 0.960 . S
C16 H21 0.961 . S
C16 H22 0.960 . S
C17 N15 1.346 . S
C17 N18 1.307 . S
C17 C19 1.486 . S
N18 N14 1.370 . S
N18 C17 1.307 . S
C19 C17 1.486 . S
C19 H23 0.960 . S
C19 H24 0.960 . S
C19 H25 0.959 . S
H20 C16 0.960 . S
H21 C16 0.961 . S
H22 C16 0.960 . S
H23 C19 0.960 . S
H24 C19 0.960 . S
H25 C19 0.959 . S
C26 N27 1.317 . S
C26 N28 1.348 . S
C26 C29 1.485 . S
N27 C26 1.317 . S
N27 N31 1.370 . S
N28 C26 1.348 . S
N28 C30 1.346 . S
C29 C26 1.485 . S
C29 H33 0.960 . S
C29 H34 0.961 . S
C29 H35 0.960 . S
C30 N28 1.346 . S
C30 N31 1.307 . S
C30 C32 1.486 . S
N31 N27 1.370 . S
N31 C30 1.307 . S
C32 C30 1.486 . S
C32 H36 0.960 . S
C32 H37 0.960 . S
C32 H38 0.959 . S
H33 C29 0.960 . S
H34 C29 0.961 . S
H35 C29 0.960 . S
H36 C32 0.960 . S
H37 C32 0.960 . S
H38 C32 0.959 . S
C39 N40 1.317 . S
C39 N41 1.348 . S
C39 C42 1.485 . S
N40 C39 1.317 . S
N40 N44 1.370 . S
N41 C39 1.348 . S
N41 C43 1.346 . S
C42 C39 1.485 . S
C42 H46 0.960 . S
C42 H47 0.961 . S
C42 H48 0.960 . S
C43 N41 1.346 . S
C43 N44 1.307 . S
C43 C45 1.486 . S
N44 N40 1.370 . S
N44 C43 1.307 . S
C45 C43 1.486 . S
C45 H49 0.960 . S
C45 H50 0.960 . S
C45 H51 0.959 . S
H46 C42 0.960 . S
H47 C42 0.961 . S
H48 C42 0.960 . S
H49 C45 0.960 . S
H50 C45 0.960 . S
H51 C45 0.959 . S
C52 N53 1.317 . S
C52 N54 1.348 . S
C52 C55 1.485 . S
N53 C52 1.317 . S
N53 N57 1.370 . S
N54 C52 1.348 . S
N54 C56 1.346 . S
C55 C52 1.485 . S
C55 H59 0.960 . S
C55 H60 0.961 . S
C55 H61 0.960 . S
C56 N54 1.346 . S
C56 N57 1.307 . S
C56 C58 1.486 . S
N57 N53 1.370 . S
N57 C56 1.307 . S
C58 C56 1.486 . S
C58 H62 0.960 . S
C58 H63 0.960 . S
C58 H64 0.959 . S
H59 C55 0.960 . S
H60 C55 0.961 . S
H61 C55 0.960 . S
H62 C58 0.960 . S
H63 C58 0.960 . S
H64 C58 0.959 . S
C65 N66 1.317 . S
C65 N67 1.348 . S
C65 C68 1.485 . S
N66 C65 1.317 . S
N66 N70 1.370 . S
N67 C65 1.348 . S
N67 C69 1.346 . S
C68 C65 1.485 . S
C68 H72 0.960 . S
C68 H73 0.961 . S
C68 H74 0.960 . S
C69 N67 1.346 . S
C69 N70 1.307 . S
C69 C71 1.486 . S
N70 N66 1.370 . S
N70 C69 1.307 . S
C71 C69 1.486 . S
C71 H75 0.960 . S
C71 H76 0.960 . S
C71 H77 0.959 . S
H72 C68 0.960 . S
H73 C68 0.961 . S
H74 C68 0.960 . S
H75 C71 0.960 . S
H76 C71 0.960 . S
H77 C71 0.959 . S
C78 N79 1.317 . S
C78 N80 1.348 . S
C78 C81 1.485 . S
N79 C78 1.317 . S
N79 N83 1.370 . S
N80 C78 1.348 . S
N80 C82 1.346 . S
C81 C78 1.485 . S
C81 H85 0.960 . S
C81 H86 0.961 . S
C81 H87 0.960 . S
C82 N80 1.346 . S
C82 N83 1.307 . S
C82 C84 1.486 . S
N83 N79 1.370 . S
N83 C82 1.307 . S
C84 C82 1.486 . S
C84 H88 0.960 . S
C84 H89 0.960 . S
C84 H90 0.959 . S
H85 C81 0.960 . S
H86 C81 0.961 . S
H87 C81 0.960 . S
H88 C84 0.960 . S
H89 C84 0.960 . S
H90 C84 0.959 . S
C91 N92 1.317 . S
C91 N93 1.348 . S
C91 C94 1.485 . S
N92 C91 1.317 . S
N92 N96 1.370 . S
N93 C91 1.348 . S
N93 C95 1.346 . S
C94 C91 1.485 . S
C94 H98 0.960 . S
C94 H99 0.961 . S
C94 H100 0.960 . S
C95 N93 1.346 . S
C95 N96 1.307 . S
C95 C97 1.486 . S
N96 N92 1.370 . S
N96 C95 1.307 . S
C97 C95 1.486 . S
C97 H101 0.960 . S
C97 H102 0.960 . S
C97 H103 0.959 . S
H98 C94 0.960 . S
H99 C94 0.961 . S
H100 C94 0.960 . S
H101 C97 0.960 . S
H102 C97 0.960 . S
H103 C97 0.959 . S
Zn104 O110 1.969 1_545 S
Zn104 O111 1.965 1_545 S
Zn104 O115 2.024 . S
Zn104 O120 1.969 . S
Zn105 O112 1.969 . S
Zn105 O118 1.969 1_565 S
Zn105 O119 1.965 1_665 S
Zn105 O121 2.024 . S
C106 O107 1.229 . S
C106 O115 1.058 . S
O107 C106 1.229 . S
C108 O109 1.229 . S
C108 O121 1.058 . S
O109 C108 1.229 . S
O110 Zn104 1.969 1_565 S
O110 C113 1.267 . S
O111 Zn104 1.965 1_565 S
O111 C122 1.260 . S
O112 Zn105 1.969 . S
O112 C122 1.258 1_655 S
C113 O110 1.267 . S
C113 O114 1.228 . S
O114 C113 1.228 . S
O115 Zn104 2.024 . S
O115 C106 1.058 . S
C116 O117 1.228 . S
C116 O118 1.267 . S
O117 C116 1.228 . S
O118 Zn105 1.969 1_545 S
O118 C116 1.267 . S
O119 Zn105 1.965 1_445 S
O119 C123 1.260 . S
O120 Zn104 1.969 . S
O120 C123 1.258 . S
O121 Zn105 2.024 . S
O121 C108 1.058 . S
C122 O111 1.260 . S
C122 O112 1.258 1_455 S
C123 O119 1.260 . S
C123 O120 1.258 . S
Zn124 O130 1.969 . S
Zn124 O131 1.965 1_565 S
Zn124 O135 2.024 . S
Zn124 O140 1.969 1_556 S
Zn125 O132 1.969 . S
Zn125 O138 1.969 . S
Zn125 O139 1.965 1_545 S
Zn125 O141 2.024 . S
C126 O127 1.229 . S
C126 O135 1.058 . S
O127 C126 1.229 . S
C128 O129 1.229 . S
C128 O141 1.058 . S
O129 C128 1.229 . S
O130 Zn124 1.969 . S
O130 C133 1.267 . S
O131 Zn124 1.965 1_545 S
O131 C142 1.260 . S
O132 Zn125 1.969 . S
O132 C142 1.258 1_554 S
C133 O130 1.267 . S
C133 O134 1.228 . S
O134 C133 1.228 . S
O135 Zn124 2.024 . S
O135 C126 1.058 . S
C136 O137 1.228 . S
C136 O138 1.267 . S
O137 C136 1.228 . S
O138 Zn125 1.969 . S
O138 C136 1.267 . S
O139 Zn125 1.965 1_565 S
O139 C143 1.260 . S
O140 Zn124 1.969 1_554 S
O140 C143 1.258 . S
O141 Zn125 2.024 . S
O141 C128 1.058 . S
C142 O131 1.260 . S
C142 O132 1.258 1_556 S
C143 O139 1.260 . S
C143 O140 1.258 . S
Zn144 O150 1.969 . S
Zn144 O151 1.965 . S
Zn144 O155 2.024 . S
Zn144 O160 1.969 . S
Zn145 O152 1.969 . S
Zn145 O158 1.969 . S
Zn145 O159 1.965 . S
Zn145 O161 2.024 . S
C146 O147 1.229 . S
C146 O155 1.058 . S
O147 C146 1.229 . S
C148 O149 1.229 . S
C148 O161 1.058 . S
O149 C148 1.229 . S
O150 Zn144 1.969 . S
O150 C153 1.267 . S
O151 Zn144 1.965 . S
O151 C162 1.260 . S
O152 Zn145 1.969 . S
O152 C162 1.258 . S
C153 O150 1.267 . S
C153 O154 1.228 . S
O154 C153 1.228 . S
O155 Zn144 2.024 . S
O155 C146 1.058 . S
C156 O157 1.228 . S
C156 O158 1.267 . S
O157 C156 1.228 . S
O158 Zn145 1.969 . S
O158 C156 1.267 . S
O159 Zn145 1.965 . S
O159 C163 1.260 . S
O160 Zn144 1.969 . S
O160 C163 1.258 . S
O161 Zn145 2.024 . S
O161 C148 1.058 . S
C162 O151 1.260 . S
C162 O152 1.258 . S
C163 O159 1.260 . S
C163 O160 1.258 . S
Zn164 O170 1.969 . S
Zn164 O171 1.965 1_556 S
Zn164 O175 2.024 . S
Zn164 O180 1.969 1_655 S
Zn165 O172 1.969 . S
Zn165 O178 1.969 . S
Zn165 O179 1.965 1_554 S
Zn165 O181 2.024 . S
C166 O167 1.229 . S
C166 O175 1.058 . S
O167 C166 1.229 . S
C168 O169 1.229 . S
C168 O181 1.058 . S
O169 C168 1.229 . S
O170 Zn164 1.969 . S
O170 C173 1.267 . S
O171 Zn164 1.965 1_554 S
O171 C182 1.260 . S
O172 Zn165 1.969 . S
O172 C182 1.258 1_455 S
C173 O170 1.267 . S
C173 O174 1.228 . S
O174 C173 1.228 . S
O175 Zn164 2.024 . S
O175 C166 1.058 . S
C176 O177 1.228 . S
C176 O178 1.267 . S
O177 C176 1.228 . S
O178 Zn165 1.969 . S
O178 C176 1.267 . S
O179 Zn165 1.965 1_556 S
O179 C183 1.260 . S
O180 Zn164 1.969 1_455 S
O180 C183 1.258 . S
O181 Zn165 2.024 . S
O181 C168 1.058 . S
C182 O171 1.260 . S
C182 O172 1.258 1_655 S
C183 O179 1.260 . S
C183 O180 1.258 . S
C184 C185 1.369 . S
C184 C186 1.419 . S
C184 H188 0.930 . S
C185 C184 1.369 . S
C185 C194 1.429 . S
C186 C184 1.419 . S
C186 C187 1.363 . S
C186 H189 0.929 . S
C187 C186 1.363 . S
C187 C193 1.428 . S
H188 C184 0.930 . S
H189 C186 0.929 . S
S190 N191 1.613 . S
S190 N192 1.610 . S
N191 S190 1.613 . S
N191 C194 1.350 . S
N192 S190 1.610 . S
N192 C193 1.351 . S
C193 C187 1.428 . S
C193 N192 1.351 . S
C193 C194 1.434 . S
C194 C185 1.429 . S
C194 N191 1.350 . S
C194 C193 1.434 . S
C195 C196 1.369 . S
C195 C197 1.419 . S
C195 H199 0.930 . S
C196 C195 1.369 . S
C196 C205 1.429 . S
C197 C195 1.419 . S
C197 C198 1.363 . S
C197 H200 0.929 . S
C198 C197 1.363 . S
C198 C204 1.428 . S
H199 C195 0.930 . S
H200 C197 0.929 . S
S201 N202 1.613 . S
S201 N203 1.610 . S
N202 S201 1.613 . S
N202 C205 1.350 . S
N203 S201 1.610 . S
N203 C204 1.351 . S
C204 C198 1.428 . S
C204 N203 1.351 . S
C204 C205 1.434 . S
C205 C196 1.429 . S
C205 N202 1.350 . S
C205 C204 1.434 . S
C206 C207 1.369 . S
C206 C208 1.419 . S
C206 H210 0.930 . S
C207 C206 1.369 . S
C207 C216 1.429 . S
C208 C206 1.419 . S
C208 C209 1.363 . S
C208 H211 0.929 . S
C209 C208 1.363 . S
C209 C215 1.428 . S
H210 C206 0.930 . S
H211 C208 0.929 . S
S212 N213 1.613 . S
S212 N214 1.610 . S
N213 S212 1.613 . S
N213 C216 1.350 . S
N214 S212 1.610 . S
N214 C215 1.351 . S
C215 C209 1.428 . S
C215 N214 1.351 . S
C215 C216 1.434 . S
C216 C207 1.429 . S
C216 N213 1.350 . S
C216 C215 1.434 . S
C217 C218 1.369 . S
C217 C219 1.419 . S
C217 H221 0.930 . S
C218 C217 1.369 . S
C218 C227 1.429 . S
C219 C217 1.419 . S
C219 C220 1.363 . S
C219 H222 0.929 . S
C220 C219 1.363 . S
C220 C226 1.428 . S
H221 C217 0.930 . S
H222 C219 0.929 . S
S223 N224 1.613 . S
S223 N225 1.610 . S
N224 S223 1.613 . S
N224 C227 1.350 . S
N225 S223 1.610 . S
N225 C226 1.351 . S
C226 C220 1.428 . S
C226 N225 1.351 . S
C226 C227 1.434 . S
C227 C218 1.429 . S
C227 N224 1.350 . S
C227 C226 1.434 . S
C228 C229 1.369 . S
C228 C230 1.419 . S
C228 H232 0.930 . S
C229 C228 1.369 . S
C229 C238 1.429 . S
C230 C228 1.419 . S
C230 C231 1.363 . S
C230 H233 0.929 . S
C231 C230 1.363 . S
C231 C237 1.428 . S
H232 C228 0.930 . S
H233 C230 0.929 . S
S234 N235 1.613 . S
S234 N236 1.610 . S
N235 S234 1.613 . S
N235 C238 1.350 . S
N236 S234 1.610 . S
N236 C237 1.351 . S
C237 C231 1.428 . S
C237 N236 1.351 . S
C237 C238 1.434 . S
C238 C229 1.429 . S
C238 N235 1.350 . S
C238 C237 1.434 . S
C239 C240 1.369 . S
C239 C241 1.419 . S
C239 H243 0.930 . S
C240 C239 1.369 . S
C240 C249 1.429 . S
C241 C239 1.419 . S
C241 C242 1.363 . S
C241 H244 0.929 . S
C242 C241 1.363 . S
C242 C248 1.428 . S
H243 C239 0.930 . S
H244 C241 0.929 . S
S245 N246 1.613 1_545 S
S245 N247 1.610 . S
N246 S245 1.613 1_565 S
N246 C249 1.350 . S
N247 S245 1.610 . S
N247 C248 1.351 1_545 S
C248 C242 1.428 . S
C248 N247 1.351 1_565 S
C248 C249 1.434 . S
C249 C240 1.429 . S
C249 N246 1.350 . S
C249 C248 1.434 . S
C250 C251 1.369 . S
C250 C252 1.419 . S
C250 H254 0.930 . S
C251 C250 1.369 . S
C251 C260 1.429 . S
C252 C250 1.419 . S
C252 C253 1.363 . S
C252 H255 0.929 . S
C253 C252 1.363 . S
C253 C259 1.428 . S
H254 C250 0.930 . S
H255 C252 0.929 . S
S256 N257 1.613 . S
S256 N258 1.610 . S
N257 S256 1.613 . S
N257 C260 1.350 . S
N258 S256 1.610 . S
N258 C259 1.351 . S
C259 C253 1.428 . S
C259 N258 1.351 . S
C259 C260 1.434 . S
C260 C251 1.429 . S
C260 N257 1.350 . S
C260 C259 1.434 . S
C261 C262 1.369 . S
C261 C263 1.419 . S
C261 H265 0.930 . S
C262 C261 1.369 . S
C262 C271 1.429 . S
C263 C261 1.419 . S
C263 C264 1.363 . S
C263 H266 0.929 . S
C264 C263 1.363 . S
C264 C270 1.428 . S
H265 C261 0.930 . S
H266 C263 0.929 . S
S267 N268 1.613 . S
S267 N269 1.610 . S
N268 S267 1.613 . S
N268 C271 1.350 . S
N269 S267 1.610 . S
N269 C270 1.351 . S
C270 C264 1.428 . S
C270 N269 1.351 . S
C270 C271 1.434 . S
C271 C262 1.429 . S
C271 N268 1.350 . S
C271 C270 1.434 . S
C272 C273 1.369 . S
C272 C274 1.419 . S
C272 H276 0.930 . S
C273 C272 1.369 . S
C273 C282 1.429 . S
C274 C272 1.419 . S
C274 C275 1.363 . S
C274 H277 0.929 . S
C275 C274 1.363 . S
C275 C281 1.428 . S
H276 C272 0.930 . S
H277 C274 0.929 . S
S278 N279 1.613 . S
S278 N280 1.610 . S
N279 S278 1.613 . S
N279 C282 1.350 . S
N280 S278 1.610 . S
N280 C281 1.351 . S
C281 C275 1.428 . S
C281 N280 1.351 . S
C281 C282 1.434 . S
C282 C273 1.429 . S
C282 N279 1.350 . S
C282 C281 1.434 . S
C283 C284 1.369 . S
C283 C285 1.419 . S
C283 H287 0.930 . S
C284 C283 1.369 . S
C284 C293 1.429 . S
C285 C283 1.419 . S
C285 C286 1.363 . S
C285 H288 0.929 . S
C286 C285 1.363 . S
C286 C292 1.428 . S
H287 C283 0.930 . S
H288 C285 0.929 . S
S289 N290 1.613 . S
S289 N291 1.610 . S
N290 S289 1.613 . S
N290 C293 1.350 . S
N291 S289 1.610 . S
N291 C292 1.351 . S
C292 C286 1.428 . S
C292 N291 1.351 . S
C292 C293 1.434 . S
C293 C284 1.429 . S
C293 N290 1.350 . S
C293 C292 1.434 . S
C294 C295 1.369 . S
C294 C296 1.419 . S
C294 H298 0.930 . S
C295 C294 1.369 . S
C295 C304 1.429 . S
C296 C294 1.419 . S
C296 C297 1.363 . S
C296 H299 0.929 . S
C297 C296 1.363 . S
C297 C303 1.428 . S
H298 C294 0.930 . S
H299 C296 0.929 . S
S300 N301 1.613 . S
S300 N302 1.610 . S
N301 S300 1.613 . S
N301 C304 1.350 . S
N302 S300 1.610 . S
N302 C303 1.351 . S
C303 C297 1.428 . S
C303 N302 1.351 . S
C303 C304 1.434 . S
C304 C295 1.429 . S
C304 N301 1.350 . S
C304 C303 1.434 . S
C305 C306 1.369 . S
C305 C307 1.419 . S
C305 H309 0.930 . S
C306 C305 1.369 . S
C306 C315 1.429 . S
C307 C305 1.419 . S
C307 C308 1.363 . S
C307 H310 0.929 . S
C308 C307 1.363 . S
C308 C314 1.428 . S
H309 C305 0.930 . S
H310 C307 0.929 . S
S311 N312 1.613 . S
S311 N313 1.610 . S
N312 S311 1.613 . S
N312 C315 1.350 . S
N313 S311 1.610 . S
N313 C314 1.351 . S
C314 C308 1.428 . S
C314 N313 1.351 . S
C314 C315 1.434 . S
C315 C306 1.429 . S
C315 N312 1.350 . S
C315 C314 1.434 . S
C316 C317 1.369 . S
C316 C318 1.419 . S
C316 H320 0.930 . S
C317 C316 1.369 . S
C317 C326 1.429 . S
C318 C316 1.419 . S
C318 C319 1.363 . S
C318 H321 0.929 . S
C319 C318 1.363 . S
C319 C325 1.428 . S
H320 C316 0.930 . S
H321 C318 0.929 . S
S322 N323 1.613 . S
S322 N324 1.610 . S
N323 S322 1.613 . S
N323 C326 1.350 . S
N324 S322 1.610 . S
N324 C325 1.351 . S
C325 C319 1.428 . S
C325 N324 1.351 . S
C325 C326 1.434 . S
C326 C317 1.429 . S
C326 N323 1.350 . S
C326 C325 1.434 . S
C327 C328 1.369 . S
C327 C329 1.419 . S
C327 H331 0.930 . S
C328 C327 1.369 . S
C328 C337 1.429 . S
C329 C327 1.419 . S
C329 C330 1.363 . S
C329 H332 0.929 . S
C330 C329 1.363 . S
C330 C336 1.428 . S
H331 C327 0.930 . S
H332 C329 0.929 . S
S333 N334 1.613 . S
S333 N335 1.610 . S
N334 S333 1.613 . S
N334 C337 1.350 . S
N335 S333 1.610 . S
N335 C336 1.351 . S
C336 C330 1.428 . S
C336 N335 1.351 . S
C336 C337 1.434 . S
C337 C328 1.429 . S
C337 N334 1.350 . S
C337 C336 1.434 . S
C338 C339 1.369 . S
C338 C340 1.419 . S
C338 H342 0.930 . S
C339 C338 1.369 . S
C339 C348 1.429 . S
C340 C338 1.419 . S
C340 C341 1.363 . S
C340 H343 0.929 . S
C341 C340 1.363 . S
C341 C347 1.428 . S
H342 C338 0.930 . S
H343 C340 0.929 . S
S344 N345 1.613 . S
S344 N346 1.610 . S
N345 S344 1.613 . S
N345 C348 1.350 . S
N346 S344 1.610 . S
N346 C347 1.351 . S
C347 C341 1.428 . S
C347 N346 1.351 . S
C347 C348 1.434 . S
C348 C339 1.429 . S
C348 N345 1.350 . S
C348 C347 1.434 . S
C349 C350 1.369 . S
C349 C351 1.419 . S
C349 H353 0.930 . S
C350 C349 1.369 . S
C350 C359 1.429 . S
C351 C349 1.419 . S
C351 C352 1.363 . S
C351 H354 0.929 . S
C352 C351 1.363 . S
C352 C358 1.428 . S
H353 C349 0.930 . S
H354 C351 0.929 . S
S355 N356 1.613 . S
S355 N357 1.610 . S
N356 S355 1.613 . S
N356 C359 1.350 . S
N357 S355 1.610 . S
N357 C358 1.351 . S
C358 C352 1.428 . S
C358 N357 1.351 . S
C358 C359 1.434 . S
C359 C350 1.429 . S
C359 N356 1.350 . S
C359 C358 1.434 . S
C360 C361 1.369 . S
C360 C362 1.419 . S
C360 H364 0.930 . S
C361 C360 1.369 . S
C361 C370 1.429 . S
C362 C360 1.419 . S
C362 C363 1.363 . S
C362 H365 0.929 . S
C363 C362 1.363 . S
C363 C369 1.428 . S
H364 C360 0.930 . S
H365 C362 0.929 . S
S366 N367 1.613 . S
S366 N368 1.610 . S
N367 S366 1.613 . S
N367 C370 1.350 . S
N368 S366 1.610 . S
N368 C369 1.351 . S
C369 C363 1.428 . S
C369 N368 1.351 . S
C369 C370 1.434 . S
C370 C361 1.429 . S
C370 N367 1.350 . S
C370 C369 1.434 . S
C371 C372 1.369 . S
C371 C373 1.419 . S
C371 H375 0.930 . S
C372 C371 1.369 . S
C372 C381 1.429 . S
C373 C371 1.419 . S
C373 C374 1.363 . S
C373 H376 0.929 . S
C374 C373 1.363 . S
C374 C380 1.428 . S
H375 C371 0.930 . S
H376 C373 0.929 . S
S377 N378 1.613 . S
S377 N379 1.610 . S
N378 S377 1.613 . S
N378 C381 1.350 . S
N379 S377 1.610 . S
N379 C380 1.351 . S
C380 C374 1.428 . S
C380 N379 1.351 . S
C380 C381 1.434 . S
C381 C372 1.429 . S
C381 N378 1.350 . S
C381 C380 1.434 . S
C382 C383 1.369 . S
C382 C384 1.419 . S
C382 H386 0.930 . S
C383 C382 1.369 . S
C383 C392 1.429 . S
C384 C382 1.419 . S
C384 C385 1.363 . S
C384 H387 0.929 . S
C385 C384 1.363 . S
C385 C391 1.428 . S
H386 C382 0.930 . S
H387 C384 0.929 . S
S388 N389 1.613 . S
S388 N390 1.610 . S
N389 S388 1.613 . S
N389 C392 1.350 . S
N390 S388 1.610 . S
N390 C391 1.351 . S
C391 C385 1.428 . S
C391 N390 1.351 . S
C391 C392 1.434 . S
C392 C383 1.429 . S
C392 N389 1.350 . S
C392 C391 1.434 . S
C393 C394 1.369 . S
C393 C395 1.419 . S
C393 H397 0.930 . S
C394 C393 1.369 . S
C394 C403 1.429 . S
C395 C393 1.419 . S
C395 C396 1.363 . S
C395 H398 0.929 . S
C396 C395 1.363 . S
C396 C402 1.428 . S
H397 C393 0.930 . S
H398 C395 0.929 . S
S399 N400 1.613 . S
S399 N401 1.610 . S
N400 S399 1.613 . S
N400 C403 1.350 . S
N401 S399 1.610 . S
N401 C402 1.351 . S
C402 C396 1.428 . S
C402 N401 1.351 . S
C402 C403 1.434 . S
C403 C394 1.429 . S
C403 N400 1.350 . S
C403 C402 1.434 . S
C404 C405 1.369 . S
C404 C406 1.419 . S
C404 H408 0.930 . S
C405 C404 1.369 . S
C405 C414 1.429 . S
C406 C404 1.419 . S
C406 C407 1.363 . S
C406 H409 0.929 . S
C407 C406 1.363 . S
C407 C413 1.428 . S
H408 C404 0.930 . S
H409 C406 0.929 . S
S410 N411 1.613 1_455 S
S410 N412 1.610 1_455 S
N411 S410 1.613 1_655 S
N411 C414 1.350 . S
N412 S410 1.610 1_655 S
N412 C413 1.351 . S
C413 C407 1.428 . S
C413 N412 1.351 . S
C413 C414 1.434 . S
C414 C405 1.429 . S
C414 N411 1.350 . S
C414 C413 1.434 . S
C415 C416 1.369 . S
C415 C417 1.419 . S
C415 H419 0.930 . S
C416 C415 1.369 . S
C416 C425 1.429 . S
C417 C415 1.419 . S
C417 C418 1.363 . S
C417 H420 0.929 . S
C418 C417 1.363 . S
C418 C424 1.428 . S
H419 C415 0.930 . S
H420 C417 0.929 . S
S421 N422 1.613 . S
S421 N423 1.610 . S
N422 S421 1.613 . S
N422 C425 1.350 . S
N423 S421 1.610 . S
N423 C424 1.351 . S
C424 C418 1.428 . S
C424 N423 1.351 . S
C424 C425 1.434 . S
C425 C416 1.429 . S
C425 N422 1.350 . S
C425 C424 1.434 . S
C426 C427 1.369 . S
C426 C428 1.419 . S
C426 H430 0.930 . S
C427 C426 1.369 . S
C427 C436 1.429 . S
C428 C426 1.419 . S
C428 C429 1.363 . S
C428 H431 0.929 . S
C429 C428 1.363 . S
C429 C435 1.428 . S
H430 C426 0.930 . S
H431 C428 0.929 . S
S432 N433 1.613 . S
S432 N434 1.610 . S
N433 S432 1.613 . S
N433 C436 1.350 . S
N434 S432 1.610 . S
N434 C435 1.351 . S
C435 C429 1.428 . S
C435 N434 1.351 . S
C435 C436 1.434 . S
C436 C427 1.429 . S
C436 N433 1.350 . S
C436 C435 1.434 . S
C437 C438 1.369 . S
C437 C439 1.419 . S
C437 H441 0.930 . S
C438 C437 1.369 . S
C438 C447 1.429 . S
C439 C437 1.419 . S
C439 C440 1.363 . S
C439 H442 0.929 . S
C440 C439 1.363 . S
C440 C446 1.428 . S
H441 C437 0.930 . S
H442 C439 0.929 . S
S443 N444 1.613 . S
S443 N445 1.610 . S
N444 S443 1.613 . S
N444 C447 1.350 . S
N445 S443 1.610 . S
N445 C446 1.351 . S
C446 C440 1.428 . S
C446 N445 1.351 . S
C446 C447 1.434 . S
C447 C438 1.429 . S
C447 N444 1.350 . S
C447 C446 1.434 . S
C185 N1 1.403 . S
C187 C123 1.411 . S
C196 N18 1.452 . S
C198 C126 1.447 . S
C209 C162 1.484 . S
C207 N28 1.501 . S
C218 N40 1.815 . S
C220 C182 1.835 . S
C231 C136 1.847 . S
C229 N5 1.850 . S
C242 C113 1.524 . S
C240 N14 1.517 . S
C253 C166 1.595 . S
C251 N31 1.673 . S
C264 C146 1.177 . S
C262 N41 1.243 . S
C273 N2 1.337 . S
C275 C176 1.247 . S
C286 C142 1.742 . S
C284 N27 1.743 . S
C295 N44 1.682 . S
C297 C108 1.703 . S
C306 N15 1.228 . S
C308 C156 1.207 . S
C319 C122 1.695 1_655 S
C317 N57 1.721 . S
C328 N70 1.178 . S
C330 C128 1.201 . S
C339 N79 1.697 . S
C341 C163 1.685 . S
C350 N93 1.682 . S
C352 C183 1.653 . S
C361 N54 1.550 . S
C363 C133 1.502 . S
C374 C116 1.849 . S
C372 N66 1.848 . S
C385 C168 1.235 . S
C383 N80 1.374 . S
C396 C148 1.348 . S
C394 N96 1.456 . S
C405 N53 1.345 . S
C407 C173 1.319 . S
C418 C143 1.626 . S
C416 N83 1.613 . S
C429 C106 1.774 . S
C427 N92 1.799 . S
C438 N67 1.299 . S
C440 C153 1.220 . S
