# Generated by pormake.
# Topology anh, (6,3)-cn, num edge types: 1
# Building blocks:
#     Node 0, Type 0, BuildingBlock: PAMTUU_clean_sbu_0, # of connection points: 6
#     Node 1, Type 0, BuildingBlock: PAMTUU_clean_sbu_0, # of connection points: 6
#     Node 2, Type 0, BuildingBlock: PAMTUU_clean_sbu_0, # of connection points: 6
#     Node 3, Type 1, BuildingBlock: BETDAH_clean_linker_0, # of connection points: 3
#     Node 4, Type 1, BuildingBlock: BETDAH_clean_linker_0, # of connection points: 3
#     Node 5, Type 1, BuildingBlock: BETDAH_clean_linker_0, # of connection points: 3
#     Node 6, Type 1, BuildingBlock: BETDAH_clean_linker_0, # of connection points: 3
#     Node 7, Type 1, BuildingBlock: BETDAH_clean_linker_0, # of connection points: 3
#     Node 8, Type 1, BuildingBlock: BETDAH_clean_linker_0, # of connection points: 3
#     Edge 9, Type (0, 1), BuildingBlock: ZUJKAS_clean_linker_0, # of connection points: 2
#     Edge 10, Type (0, 1), BuildingBlock: ZUJKAS_clean_linker_0, # of connection points: 2
#     Edge 11, Type (0, 1), BuildingBlock: ZUJKAS_clean_linker_0, # of connection points: 2
#     Edge 12, Type (0, 1), BuildingBlock: ZUJKAS_clean_linker_0, # of connection points: 2
#     Edge 13, Type (0, 1), BuildingBlock: ZUJKAS_clean_linker_0, # of connection points: 2
#     Edge 14, Type (0, 1), BuildingBlock: ZUJKAS_clean_linker_0, # of connection points: 2
#     Edge 15, Type (0, 1), BuildingBlock: ZUJKAS_clean_linker_0, # of connection points: 2
#     Edge 16, Type (0, 1), BuildingBlock: ZUJKAS_clean_linker_0, # of connection points: 2
#     Edge 17, Type (0, 1), BuildingBlock: ZUJKAS_clean_linker_0, # of connection points: 2
#     Edge 18, Type (0, 1), BuildingBlock: ZUJKAS_clean_linker_0, # of connection points: 2
#     Edge 19, Type (0, 1), BuildingBlock: ZUJKAS_clean_linker_0, # of connection points: 2
#     Edge 20, Type (0, 1), BuildingBlock: ZUJKAS_clean_linker_0, # of connection points: 2
#     Edge 21, Type (0, 1), BuildingBlock: ZUJKAS_clean_linker_0, # of connection points: 2
#     Edge 22, Type (0, 1), BuildingBlock: ZUJKAS_clean_linker_0, # of connection points: 2
#     Edge 23, Type (0, 1), BuildingBlock: ZUJKAS_clean_linker_0, # of connection points: 2
#     Edge 24, Type (0, 1), BuildingBlock: ZUJKAS_clean_linker_0, # of connection points: 2
#     Edge 25, Type (0, 1), BuildingBlock: ZUJKAS_clean_linker_0, # of connection points: 2
#     Edge 26, Type (0, 1), BuildingBlock: ZUJKAS_clean_linker_0, # of connection points: 2
# Relax obj value: 0.171
# Max RMSD: 0.139
# Mean RMSD: 0.096
data_MOF--net-anh--node1-PAMTUU_clean_sbu_0--node2-BETDAH_clean_linker_0--edge1-ZUJKAS_clean_linker_0
_symmetry_space_group_name_H-M    P1
_symmetry_Int_Tables_number       1
_symmetry_cell_setting            triclinic
loop_
_symmetry_equiv_pos_as_xyz
'x, y, z'
_cell_length_a     38.941257
_cell_length_b     38.814443
_cell_length_c     64.459099
_cell_angle_alpha  93.231142
_cell_angle_beta   94.180219
_cell_angle_gamma 119.8501
loop_
_atom_site_label
_atom_site_type_symbol
_atom_site_fract_x
_atom_site_fract_y
_atom_site_fract_z
_atom_type_partial_charge
Tb0 Tb 0.14503 0.68395 0.15394 0.0
Tb1 Tb 0.19147 0.63351 0.1501 0.0
C2 C 0.15789 0.65396 0.1108 0.0
C3 C 1.06778 0.70796 0.16509 0.0
C4 C 0.98835 0.67345 0.17426 0.0
C5 C 1.0015 0.69861 0.15818 0.0
C6 C 1.04088 0.71578 0.15371 0.0
C7 C 1.05547 0.68457 0.18185 0.0
C8 C 1.0162 0.66778 0.18651 0.0
C9 C 0.10651 0.71986 0.1576 0.0
O10 O 1.09679 0.62182 0.14899 0.0
O11 O 0.13196 0.5906 0.15768 0.0
O12 O 0.20741 0.66351 0.18142 0.0
O13 O 0.14893 0.6625 0.18411 0.0
O14 O 0.23074 0.62015 0.13542 0.0
O15 O 0.19941 0.58774 0.16055 0.0
O16 O 0.23765 0.69525 0.14735 0.0
O17 O 0.20781 0.72981 0.1594 0.0
O18 O 0.16058 0.6847 0.12203 0.0
O19 O 0.15921 0.62516 0.11977 0.0
C20 C 1.09797 0.59006 0.15407 0.0
O21 O 0.13519 0.72487 0.17146 0.0
O22 O 0.10463 0.69943 0.14038 0.0
C23 C 0.18113 0.66378 0.19285 0.0
C24 C 0.26282 0.59504 0.15756 0.0
C25 C 0.32438 0.58273 0.17409 0.0
C26 C 0.30141 0.59018 0.18751 0.0
C27 C 0.27096 0.59647 0.17933 0.0
C28 C 0.28726 0.59 0.1443 0.0
C29 C 0.31783 0.58404 0.15247 0.0
C30 C 0.22648 0.59376 0.14821 0.0
C31 C 0.23928 0.72891 0.15391 0.0
H32 H 0.98091 0.70318 0.14814 0.0
H33 H 1.04976 0.73342 0.1406 0.0
H34 H 1.07568 0.67786 0.19079 0.0
H35 H 1.0073 0.6491 0.1992 0.0
H36 H 0.306 0.58962 0.20424 0.0
H37 H 0.25271 0.6006 0.18997 0.0
H38 H 0.28141 0.58861 0.12749 0.0
H39 H 0.33458 0.57782 0.14166 0.0
Tb40 Tb 0.56679 0.11914 0.47896 0.0
Tb41 Tb 0.66202 0.15893 0.49161 0.0
C42 C 0.62741 0.15164 0.44517 0.0
C43 C 0.45979 1.05857 0.48214 0.0
C44 C 0.39767 0.99599 0.49978 0.0
C45 C 0.38919 1.0157 0.48426 0.0
C46 C 0.42011 1.04675 0.47546 0.0
C47 C 0.46848 1.04061 0.49839 0.0
C48 C 0.43772 1.00957 0.50712 0.0
C49 C 0.49225 0.08855 0.4718 0.0
O50 O 0.57582 0.06888 0.48485 0.0
O51 O 0.64136 0.09745 0.47883 0.0
O52 O 0.63256 0.12254 0.51583 0.0
O53 O 0.57774 0.12915 0.51309 0.0
O54 O 0.72053 0.17738 0.48519 0.0
O55 O 0.70711 0.18271 0.51679 0.0
O56 O 0.64718 0.20517 0.4999 0.0
O57 O 0.59263 0.18263 0.4758 0.0
O58 O 0.59214 0.12402 0.44944 0.0
O59 O 0.65656 0.17405 0.46005 0.0
C60 C 0.60711 1.06568 0.48126 0.0
O61 O 0.5155 0.12231 0.48326 0.0
O62 O 0.51256 0.07571 0.46203 0.0
C63 C 0.60269 0.12195 0.52406 0.0
C64 C 0.77063 0.22999 0.50952 0.0
C65 C 0.84174 0.30371 0.519 0.0
C66 C 0.83073 0.27418 0.5328 0.0
C67 C 0.79555 0.23761 0.52805 0.0
C68 C 0.78038 0.26002 0.49613 0.0
C69 C 0.8158 0.29665 0.50083 0.0
C70 C 0.73494 0.19038 0.50477 0.0
C71 C 0.62125 0.21136 0.48895 0.0
H72 H 0.35867 1.00617 0.47841 0.0
H73 H 0.41303 1.0607 0.46305 0.0
H74 H 0.4991 1.04963 0.50379 0.0
H75 H 0.44544 0.99472 0.51875 0.0
H76 H 0.84985 0.27896 0.54703 0.0
H77 H 0.78813 0.2149 0.5387 0.0
H78 H 0.7612 0.25486 0.48187 0.0
H79 H 0.82369 0.31869 0.48977 0.0
Tb80 Tb 0.57805 0.55465 0.80799 0.0
Tb81 Tb 0.63193 0.64883 0.82633 0.0
C82 C 0.609 0.62114 0.77817 0.0
C83 C 0.53867 0.44695 0.80387 0.0
C84 C 0.54196 0.38269 0.81995 0.0
C85 C 0.50854 0.37591 0.80652 0.0
C86 C 0.50689 0.40789 0.79858 0.0
C87 C 0.57197 0.45392 0.8173 0.0
C88 C 0.57365 0.42206 0.82526 0.0
C89 C 0.53573 0.48073 0.79695 0.0
O90 O 0.63928 0.56804 0.80545 0.0
O91 O 0.67359 0.62697 0.82707 0.0
O92 O 0.60305 0.61483 0.85187 0.0
O93 O 0.60215 0.55821 0.8398 0.0
O94 O 0.65101 0.70951 0.82477 0.0
O95 O 0.6766 0.6905 0.84933 0.0
O96 O 0.57218 0.64031 0.82109 0.0
O97 O 0.53551 0.57164 0.8179 0.0
O98 O 0.5778 0.58842 0.78247 0.0
O99 O 0.63791 0.64484 0.79292 0.0
C100 C 0.67242 0.59668 0.81621 0.0
O101 O 0.52798 0.49972 0.81145 0.0
O102 O 0.56428 0.50523 0.78668 0.0
C103 C 0.60117 0.58094 0.85521 0.0
C104 C 0.67252 0.74769 0.8578 0.0
C105 C 0.66989 0.80461 0.88562 0.0
C106 C 0.70664 0.80918 0.88105 0.0
C107 C 0.70788 0.78097 0.86725 0.0
C108 C 0.63575 0.74151 0.86319 0.0
C109 C 0.63444 0.76987 0.877 0.0
C110 C 0.67494 0.72036 0.84215 0.0
C111 C 0.53798 0.60675 0.82026 0.0
H112 H 0.4836 0.34593 0.80227 0.0
H113 H 0.4807 0.40219 0.78851 0.0
H114 H 0.59658 0.48406 0.82173 0.0
H115 H 0.6001 0.42821 0.83524 0.0
H116 H 0.73449 0.83584 0.88705 0.0
H117 H 0.7365 0.7859 0.86338 0.0
H118 H 0.60813 0.7155 0.85625 0.0
H119 H 0.60572 0.76544 0.88029 0.0
H120 H 0.59428 0.10433 0.22725 0.0
H121 H 0.70616 0.20679 0.21829 0.0
H122 H 0.63244 0.12065 0.16585 0.0
C123 C 0.61567 0.12195 0.21686 0.0
C124 C 0.60855 0.10817 0.19552 0.0
C125 C 0.65069 0.15722 0.22524 0.0
C126 C 0.6792 0.17954 0.21191 0.0
C127 C 0.67255 0.16662 0.19035 0.0
C128 C 0.63746 0.13066 0.1824 0.0
N129 N 0.70015 0.18856 0.17612 0.0
C130 C 0.73466 0.22616 0.18055 0.0
H131 H 0.62456 0.57502 0.56226 0.0
H132 H 0.62 0.67995 0.54842 0.0
H133 H 0.62554 0.60422 0.49884 0.0
C134 C 0.62413 0.59448 0.55094 0.0
C135 C 0.6256 0.58528 0.52975 0.0
C136 C 0.62201 0.62836 0.55782 0.0
C137 C 0.62159 0.65382 0.54319 0.0
C138 C 0.62251 0.64501 0.52179 0.0
C139 C 0.62441 0.6107 0.51526 0.0
N140 N 0.62179 0.66971 0.50635 0.0
C141 C 0.61786 0.70353 0.50951 0.0
H142 H 1.04088 0.61678 0.88741 0.0
H143 H 0.14546 0.60988 0.87711 0.0
H144 H 1.06482 0.60028 0.82476 0.0
C145 C 1.0596 0.61333 0.87683 0.0
C146 C 1.04831 0.60827 0.85518 0.0
C147 C 1.09424 0.61353 0.88503 0.0
C148 C 0.11882 0.60995 0.87106 0.0
C149 C 0.10842 0.60539 0.84927 0.0
C150 C 1.07289 0.60401 0.84152 0.0
N151 N 0.13256 0.60182 0.83462 0.0
C152 C 0.16935 0.60418 0.83941 0.0
H153 H 0.2679 0.66659 0.41924 0.0
H154 H 0.2296 0.54387 0.39885 0.0
H155 H 0.25645 0.58534 0.46435 0.0
C156 C 0.2615 0.63712 0.42275 0.0
C157 C 0.26419 0.62972 0.44369 0.0
C158 C 0.2489 0.60642 0.40636 0.0
C159 C 0.24064 0.56832 0.41116 0.0
C160 C 0.24284 0.56055 0.43201 0.0
C161 C 0.25497 0.59142 0.4482 0.0
N162 N 0.22812 0.52071 0.43664 0.0
C163 C 0.20242 0.50664 0.45187 0.0
H164 H 0.64824 0.15522 0.7533 0.0
H165 H 0.71665 0.09915 0.73927 0.0
H166 H 0.71208 0.13386 0.80315 0.0
C167 C 0.66779 0.1442 0.75843 0.0
C168 C 0.67903 0.14681 0.77988 0.0
C169 C 0.68093 0.12688 0.7436 0.0
C170 C 0.70578 0.11217 0.7505 0.0
C171 C 0.71671 0.11406 0.77191 0.0
C172 C 0.70308 0.13131 0.78657 0.0
N173 N 0.74141 0.09848 0.77837 0.0
C174 C 0.74301 0.08781 0.79845 0.0
H175 H 0.62121 0.47118 0.06509 0.0
H176 H 0.4981 0.37941 0.04975 0.0
H177 H 0.5556 0.39993 0.11226 0.0
C178 C 0.59393 0.4471 0.06961 0.0
C179 C 0.59277 0.43751 0.09033 0.0
C180 C 0.55999 0.42649 0.05481 0.0
C181 C 0.52471 0.39537 0.06087 0.0
C182 C 0.52304 0.38601 0.08157 0.0
C183 C 0.55715 0.40695 0.09619 0.0
N184 N 0.4861 0.35796 0.08801 0.0
C185 C 0.47401 0.36795 0.10598 0.0
H186 H 0.30949 0.52714 0.20151 0.0
H187 H 0.34439 0.49004 0.20657 0.0
H188 H 0.43261 0.56601 0.16814 0.0
H189 H 0.39862 0.60392 0.1636 0.0
H190 H 0.3455 0.44928 0.17247 0.0
H191 H 0.50039 0.54325 0.20875 0.0
H192 H 0.4629 0.55708 0.21184 0.0
H193 H 0.48975 0.5687 0.18919 0.0
C194 C 0.33738 0.53717 0.19498 0.0
C195 C 0.35107 0.56811 0.1819 0.0
C196 C 0.35724 0.51581 0.19785 0.0
C197 C 0.39118 0.52524 0.1878 0.0
C198 C 0.40696 0.55858 0.17641 0.0
H199 H 0.49454 0.44432 0.11062 0.0
H200 H 0.47631 0.47768 0.13726 0.0
C201 C 0.38718 0.57994 0.17356 0.0
C202 C 0.40461 0.49582 0.18501 0.0
H203 H 0.48892 0.49099 0.1809 0.0
C204 C 0.37669 0.45778 0.17499 0.0
C205 C 0.4452 0.50684 0.18839 0.0
C206 C 0.47613 0.5461 0.20035 0.0
C207 C 0.3888 0.43237 0.16607 0.0
C208 C 0.42993 0.44514 0.16765 0.0
C209 C 0.45742 0.4814 0.17956 0.0
C210 C 0.44525 0.42548 0.15379 0.0
C211 C 0.35785 0.39393 0.15332 0.0
C212 C 0.43457 0.38523 0.15449 0.0
C213 C 0.44456 0.366 0.13902 0.0
C214 C 0.46563 0.38709 0.12298 0.0
C215 C 0.47799 0.42763 0.12289 0.0
C216 C 0.46787 0.4467 0.13816 0.0
H217 H 0.3279 0.39103 0.15156 0.0
H218 H 0.36666 0.39209 0.13747 0.0
H219 H 0.35542 0.36817 0.1611 0.0
H220 H 0.4176 0.36851 0.1666 0.0
H221 H 0.43516 0.33467 0.13934 0.0
H222 H 0.91141 0.30654 0.53106 0.0
H223 H 0.97836 0.36151 0.5299 0.0
H224 H 0.93126 0.43699 0.5125 0.0
H225 H 0.86337 0.38132 0.51345 0.0
H226 H 0.97412 0.43194 0.48459 0.0
H227 H 1.06249 0.46455 0.56097 0.0
H228 H 1.03568 0.41163 0.55399 0.0
H229 H 1.00863 0.43758 0.55805 0.0
C230 C 0.91521 0.33522 0.52779 0.0
C231 C 0.8821 0.33954 0.52221 0.0
C232 C 0.9537 0.36686 0.52729 0.0
C233 C 0.95998 0.40365 0.52143 0.0
C234 C 0.92708 0.40893 0.51722 0.0
H235 H 0.1752 0.55492 0.4631 0.0
H236 H 0.12037 0.53984 0.48412 0.0
C237 C 0.88838 0.37708 0.5176 0.0
C238 C 0.99952 0.43266 0.51557 0.0
H239 H 1.09889 0.4709 0.53011 0.0
C240 C 1.00147 0.44168 0.49476 0.0
C241 C 1.03522 0.44541 0.52883 0.0
C242 C 1.0353 0.43959 0.55176 0.0
C243 C 1.03778 0.45963 0.4863 0.0
C244 C 1.07302 0.46907 0.49909 0.0
C245 C 1.07162 0.463 0.52031 0.0
C246 C 0.11052 0.48144 0.48995 0.0
C247 C 1.03784 0.46569 0.46336 0.0
C248 C 0.1238 0.45404 0.48695 0.0
C249 C 0.15525 0.46273 0.47507 0.0
C250 C 0.17356 0.4989 0.46624 0.0
C251 C 0.16153 0.527 0.47004 0.0
C252 C 0.13029 0.51843 0.48195 0.0
H253 H 1.00722 0.45212 0.45508 0.0
H254 H 1.05373 0.49816 0.46169 0.0
H255 H 1.0538 0.45254 0.45555 0.0
H256 H 0.10857 0.42521 0.49293 0.0
H257 H 0.16418 0.44072 0.47215 0.0
H258 H 0.71846 0.85613 0.91987 0.0
H259 H 0.73292 0.92484 0.92732 0.0
H260 H 0.63511 0.90035 0.88131 0.0
H261 H 0.62054 0.83254 0.8741 0.0
H262 H 0.76021 0.96617 0.89711 0.0
H263 H 0.63858 0.98976 0.91527 0.0
H264 H 0.63906 0.94506 0.92136 0.0
H265 H 0.61641 0.94698 0.89625 0.0
C266 C 0.69899 0.86506 0.91207 0.0
C267 C 0.66906 0.83927 0.89598 0.0
C268 C 0.70711 0.90428 0.91645 0.0
C269 C 0.68544 0.91816 0.90478 0.0
C270 C 0.65199 0.8906 0.8909 0.0
H271 H 0.68518 1.01804 0.80776 0.0
H272 H 0.67768 0.99199 0.84183 0.0
C273 C 0.64376 0.85148 0.88661 0.0
C274 C 0.70369 0.96121 0.90186 0.0
H275 H 0.6723 1.02258 0.88339 0.0
C276 C 0.74178 0.97969 0.89507 0.0
C277 C 0.68043 0.97972 0.89962 0.0
C278 C 0.64154 0.96435 0.90879 0.0
C279 C 0.75382 1.01142 0.88271 0.0
C280 C 0.7272 1.02514 0.87734 0.0
C281 C 0.69223 1.01126 0.88709 0.0
C282 C 0.7298 1.04454 0.85798 0.0
C283 C 0.79246 1.0263 0.87323 0.0
C284 C 0.76142 0.08287 0.85584 0.0
C285 C 0.76593 0.09753 0.83624 0.0
C286 C 0.73884 0.0739 0.81879 0.0
C287 C 0.70657 1.03638 0.82109 0.0
C288 C 0.70207 1.02178 0.84054 0.0
H289 H 0.80935 1.01179 0.87875 0.0
H290 H 0.78638 1.02054 0.85591 0.0
H291 H 0.81158 1.05903 0.87738 0.0
H292 H 0.78298 0.10093 0.86914 0.0
H293 H 0.79072 0.1269 0.83466 0.0
H294 H 0.93201 0.69629 0.1696 0.0
H295 H 0.85992 0.65239 0.16468 0.0
H296 H 0.87411 0.55285 0.17953 0.0
H297 H 0.94616 0.59578 0.18298 0.0
H298 H 0.83366 0.53744 0.14298 0.0
H299 H 0.76818 0.59667 0.19768 0.0
H300 H 0.802 0.63521 0.18326 0.0
H301 H 0.82049 0.61206 0.20084 0.0
C302 C 0.91982 0.66517 0.17211 0.0
C303 C 0.94504 0.64954 0.17635 0.0
C304 C 0.87846 0.6402 0.16966 0.0
C305 C 0.8615 0.59932 0.17189 0.0
C306 C 0.88653 0.58434 0.17782 0.0
H307 H 0.62269 0.40732 0.11915 0.0
H308 H 0.68494 0.44396 0.1428 0.0
C309 C 0.92787 0.60912 0.17995 0.0
C310 C 0.81885 0.57136 0.16446 0.0
H311 H 0.72511 0.55684 0.16601 0.0
C312 C 0.80982 0.54109 0.1484 0.0
C313 C 0.78776 0.57626 0.17142 0.0
C314 C 0.7951 0.60658 0.18941 0.0
C315 C 0.77102 0.51703 0.13838 0.0
C316 C 0.74033 0.52318 0.14468 0.0
C317 C 0.74886 0.55236 0.16123 0.0
C318 C 0.70012 0.50173 0.13294 0.0
C319 C 0.76352 0.48659 0.12036 0.0
C320 C 0.68768 0.5224 0.12012 0.0
C321 C 0.65225 0.50165 0.10665 0.0
C322 C 0.62864 0.45987 0.10584 0.0
C323 C 0.64026 0.4395 0.11946 0.0
C324 C 0.67578 0.46031 0.13292 0.0
H325 H 0.79164 0.48982 0.11544 0.0
H326 H 0.74561 0.4561 0.12511 0.0
H327 H 0.74631 0.48936 0.10669 0.0
H328 H 0.70616 0.55441 0.11997 0.0
H329 H 0.64363 0.51821 0.09663 0.0
H330 H 0.33501 0.93575 0.47447 0.0
H331 H 0.29551 0.86715 0.48158 0.0
H332 H 0.34914 0.89932 0.54581 0.0
H333 H 0.3892 0.96896 0.53872 0.0
H334 H 0.36447 0.84799 0.52765 0.0
H335 H 0.20429 0.78689 0.50821 0.0
H336 H 0.22814 0.81669 0.48786 0.0
H337 H 0.23821 0.83998 0.51438 0.0
C338 C 0.33711 0.92886 0.4904 0.0
C339 C 0.36579 0.95778 0.50593 0.0
C340 C 0.31415 0.88934 0.49452 0.0
C341 C 0.31911 0.87789 0.51429 0.0
C342 C 0.34474 0.90745 0.53045 0.0
H343 H 0.22452 0.62405 0.47782 0.0
H344 H 0.23588 0.67863 0.50364 0.0
C345 C 0.36783 0.94716 0.52632 0.0
C346 C 0.30538 0.83517 0.51605 0.0
H347 H 0.23091 0.7441 0.49369 0.0
C348 C 0.33471 0.82498 0.52105 0.0
C349 C 0.26641 0.80467 0.50806 0.0
C350 C 0.23249 0.81276 0.50459 0.0
C351 C 0.32775 0.78655 0.51522 0.0
C352 C 0.29088 0.75807 0.50388 0.0
C353 C 0.25967 0.76639 0.50183 0.0
C354 C 0.28693 0.72376 0.49055 0.0
C355 C 0.36101 0.77778 0.51972 0.0
C356 C 0.31194 0.73113 0.47471 0.0
C357 C 0.30545 0.70024 0.45997 0.0
C358 C 0.27373 0.66138 0.46073 0.0
C359 C 0.24946 0.65369 0.47701 0.0
C360 C 0.25582 0.68477 0.49172 0.0
H361 H 0.37959 0.79469 0.53465 0.0
H362 H 0.34932 0.74539 0.52064 0.0
H363 H 0.38063 0.78744 0.50705 0.0
H364 H 0.33552 0.76119 0.47319 0.0
H365 H 0.32463 0.70692 0.44764 0.0
H366 H 0.52224 0.3129 0.79721 0.0
H367 H 0.53802 0.26252 0.80708 0.0
H368 H 0.58589 0.32546 0.86894 0.0
H369 H 0.57015 0.37652 0.85902 0.0
H370 H 0.63903 0.31525 0.8517 0.0
H371 H 0.50169 0.16952 0.84039 0.0
H372 H 0.50196 0.19492 0.81803 0.0
H373 H 0.50078 0.21563 0.8436 0.0
C374 C 0.53477 0.31534 0.81316 0.0
C375 C 0.54523 0.34882 0.82728 0.0
C376 C 0.54354 0.28625 0.81887 0.0
C377 C 0.56254 0.28975 0.8389 0.0
C378 C 0.57091 0.32197 0.85347 0.0
H379 H 0.64482 0.11989 0.81565 0.0
H380 H 0.61996 0.15234 0.83933 0.0
C381 C 0.56223 0.35125 0.84772 0.0
C382 C 0.5802 0.26426 0.8427 0.0
H383 H 0.56133 0.17057 0.82712 0.0
C384 C 0.62183 0.28329 0.84717 0.0
C385 C 0.558 0.22237 0.83751 0.0
C386 C 0.51307 0.19952 0.83488 0.0
C387 C 0.64203 0.26258 0.84342 0.0
C388 C 0.62002 0.2223 0.83464 0.0
C389 C 0.57828 0.20184 0.8333 0.0
C390 C 0.63893 0.20433 0.82246 0.0
C391 C 0.68694 0.28489 0.84713 0.0
C392 C 0.65746 0.22276 0.80516 0.0
C393 C 0.67116 0.20432 0.79166 0.0
C394 C 0.6665 0.16698 0.79513 0.0
C395 C 0.64887 0.14884 0.81275 0.0
C396 C 0.63476 0.16726 0.82624 0.0
H397 H 0.69787 0.30796 0.86078 0.0
H398 H 0.69857 0.26437 0.84986 0.0
H399 H 0.69916 0.30047 0.83322 0.0
H400 H 0.66004 0.25087 0.80164 0.0
H401 H 0.68493 0.21903 0.77829 0.0
H402 H 0.54554 0.99501 0.4915 0.0
H403 H 0.54513 0.93257 0.49616 0.0
H404 H 0.6649 0.98514 0.47951 0.0
H405 H 0.66546 1.0474 0.47462 0.0
H406 H 0.59435 0.91895 0.5237 0.0
H407 H 0.60845 0.8797 0.442 0.0
H408 H 0.64652 0.92907 0.45274 0.0
H409 H 0.59539 0.91709 0.44892 0.0
C410 C 0.57164 0.9932 0.48853 0.0
C411 C 0.60543 1.02644 0.48251 0.0
C412 C 0.57143 0.95742 0.49133 0.0
C413 C 0.60481 0.95372 0.48798 0.0
C414 C 0.63844 0.98674 0.48182 0.0
H415 H 0.56477 0.71049 0.48357 0.0
H416 H 0.56041 0.7707 0.47926 0.0
C417 C 0.63874 1.02253 0.47909 0.0
C418 C 0.60496 0.9159 0.49152 0.0
H419 H 0.6171 0.84218 0.46767 0.0
C420 C 0.59919 0.90211 0.51141 0.0
C421 C 0.61086 0.89347 0.4755 0.0
C422 C 0.61528 0.90529 0.45353 0.0
C423 C 0.59989 0.8672 0.51578 0.0
C424 C 0.607 0.84546 0.49993 0.0
C425 C 0.61204 0.85886 0.47995 0.0
C426 C 0.60854 0.80835 0.50353 0.0
C427 C 0.59227 0.85352 0.53727 0.0
C428 C 0.63697 0.80904 0.51866 0.0
C429 C 0.63936 0.77447 0.52117 0.0
C430 C 0.61339 0.73857 0.50859 0.0
C431 C 0.58483 0.7377 0.49363 0.0
C432 C 0.58247 0.77218 0.49109 0.0
H433 H 0.57715 0.86695 0.54572 0.0
H434 H 0.57367 0.82048 0.53633 0.0
H435 H 0.62115 0.86281 0.54662 0.0
H436 H 0.65801 0.83659 0.52819 0.0
H437 H 0.66205 0.77604 0.5326 0.0
H438 H 0.74479 0.64976 0.83797 0.0
H439 H 0.8058 0.64668 0.841 0.0
H440 H 0.74765 0.5366 0.80008 0.0
H441 H 0.6857 0.53935 0.79688 0.0
H442 H 0.81464 0.58371 0.85649 0.0
H443 H 0.85439 0.60698 0.77523 0.0
H444 H 0.81995 0.62002 0.78554 0.0
H445 H 0.80451 0.56863 0.77832 0.0
C446 C 0.74469 0.62487 0.82943 0.0
C447 C 0.70997 0.59478 0.81713 0.0
C448 C 0.77984 0.6232 0.83122 0.0
C449 C 0.78163 0.59165 0.82066 0.0
C450 C 0.74726 0.56161 0.80817 0.0
H451 H 0.98902 0.55527 0.82456 0.0
H452 H 0.92364 0.54894 0.81504 0.0
C453 C 0.71177 0.56314 0.80642 0.0
C454 C 0.81917 0.58991 0.82369 0.0
H455 H 0.89822 0.59943 0.79925 0.0
C456 C 0.83277 0.58692 0.84393 0.0
C457 C 0.8428 0.5938 0.80731 0.0
C458 C 0.83002 0.5978 0.78536 0.0
C459 C 0.86937 0.58824 0.8483 0.0
C460 C 0.89386 0.59379 0.83212 0.0
C461 C 0.87972 0.59549 0.8117 0.0
C462 C 0.93472 0.59934 0.83642 0.0
C463 C 0.8813 0.58343 0.87027 0.0
C464 C 0.96341 0.63063 0.851 0.0
C465 C 1.00063 0.63426 0.85645 0.0
C466 C 1.01044 0.60693 0.84733 0.0
C467 C 0.98253 0.57687 0.83187 0.0
C468 C 0.94505 0.57312 0.82647 0.0
H469 H 0.85493 0.56745 0.87888 0.0
H470 H 0.89766 0.56679 0.87024 0.0
H471 H 0.90108 0.6134 0.87896 0.0
H472 H 0.95678 0.65199 0.85847 0.0
H473 H 1.02164 0.65828 0.86809 0.0
H474 H 0.31186 0.74253 0.1427 0.0
H475 H 0.37583 0.80574 0.14756 0.0
H476 H 0.31912 0.86563 0.1747 0.0
H477 H 0.25541 0.80307 0.16996 0.0
H478 H 0.39713 0.88352 0.13275 0.0
H479 H 0.41324 0.89049 0.21935 0.0
H480 H 0.37944 0.84501 0.20275 0.0
H481 H 0.36612 0.8826 0.20782 0.0
C482 C 0.31292 0.76915 0.14966 0.0
C483 C 0.27824 0.76739 0.15601 0.0
C484 C 0.34958 0.80533 0.15239 0.0
C485 C 0.3525 0.84044 0.16175 0.0
C486 C 0.31785 0.8389 0.16773 0.0
H487 H 0.53267 0.08474 0.20407 0.0
H488 H 0.47218 1.02007 0.19433 0.0
C489 C 0.28127 0.80295 0.16491 0.0
C490 C 0.39161 0.87871 0.16556 0.0
H491 H 0.45798 0.94879 0.20462 0.0
C492 C 0.41067 0.89769 0.14845 0.0
C493 C 0.40935 0.89727 0.18604 0.0
C494 C 0.39127 0.87773 0.20509 0.0
C495 C 0.44607 0.93533 0.15127 0.0
C496 C 0.46349 0.95422 0.17179 0.0
C497 C 0.44475 0.93467 0.18886 0.0
C498 C 0.50032 0.99469 0.17612 0.0
C499 C 0.46357 0.95514 0.13219 0.0
C500 C 0.53665 1.00263 0.16897 0.0
C501 C 0.57149 1.03999 0.17445 0.0
C502 C 0.57095 0.07004 0.18748 0.0
C503 C 0.53436 1.06223 0.1942 0.0
C504 C 0.49964 1.02515 0.18861 0.0
H505 H 0.44132 0.94229 0.11805 0.0
H506 H 0.4751 0.98779 0.13459 0.0
H507 H 0.48874 0.9505 0.12916 0.0
H508 H 0.53842 0.97955 0.1597 0.0
H509 H 0.59919 1.04475 0.16922 0.0
H510 H 0.67178 0.27678 0.5171 0.0
H511 H 0.67314 0.34052 0.52237 0.0
H512 H 0.57822 0.30024 0.47199 0.0
H513 H 0.57604 0.23631 0.46695 0.0
H514 H 0.68759 0.39903 0.49715 0.0
H515 H 0.5332 0.33506 0.51755 0.0
H516 H 0.5578 0.3062 0.51601 0.0
H517 H 0.53583 0.31422 0.49258 0.0
C518 C 0.65112 0.28141 0.50714 0.0
C519 C 0.62355 0.25104 0.49171 0.0
C520 C 0.65196 0.31799 0.51017 0.0
C521 C 0.62521 0.32516 0.4979 0.0
C522 C 0.59844 0.29528 0.4821 0.0
H523 H 0.5842 0.52854 0.49593 0.0
H524 H 0.58541 0.46676 0.487 0.0
C525 C 0.59744 0.25868 0.47913 0.0
C526 C 0.62556 0.36388 0.50148 0.0
H527 H 0.56688 0.4038 0.51234 0.0
C528 C 0.66118 0.39999 0.50054 0.0
C529 C 0.59117 0.36548 0.50589 0.0
C530 C 0.55244 0.32822 0.50828 0.0
C531 C 0.66323 0.43728 0.50361 0.0
C532 C 0.62887 0.43882 0.50803 0.0
C533 C 0.59319 0.40276 0.50883 0.0
C534 C 0.62966 0.47749 0.51271 0.0
C535 C 0.70211 0.47475 0.50177 0.0
C536 C 0.65409 0.50428 0.53011 0.0
C537 C 0.65343 0.53953 0.53524 0.0
C538 C 0.62823 0.54903 0.52314 0.0
C539 C 0.60426 0.52249 0.50548 0.0
C540 C 0.60474 0.48699 0.50043 0.0
H541 H 0.7219 0.46831 0.49276 0.0
H542 H 0.69693 0.49692 0.49408 0.0
H543 H 0.71792 0.48842 0.51766 0.0
H544 H 0.67313 0.49753 0.54006 0.0
H545 H 0.67256 0.55931 0.54885 0.0
H546 H 0.46152 0.54386 0.81933 0.0
H547 H 0.40091 0.54613 0.82395 0.0
H548 H 0.46902 0.67483 0.83206 0.0
H549 H 0.52986 0.67292 0.82723 0.0
H550 H 0.38206 0.5781 0.85775 0.0
H551 H 0.37893 0.65346 0.78757 0.0
H552 H 0.41053 0.63209 0.79137 0.0
H553 H 0.42459 0.67984 0.80487 0.0
C554 C 0.46376 0.57278 0.82198 0.0
C555 C 0.50083 0.60825 0.82275 0.0
C556 C 0.42892 0.57396 0.82466 0.0
C557 C 0.43007 0.61062 0.82807 0.0
C558 C 0.46704 0.64612 0.82901 0.0
H559 H 0.24276 0.67029 0.84365 0.0
H560 H 0.30696 0.67274 0.84249 0.0
C561 C 0.50197 0.64499 0.82633 0.0
C562 C 0.39267 0.61142 0.83103 0.0
H563 H 0.331 0.64341 0.81067 0.0
C564 C 0.3709 0.59235 0.84742 0.0
C565 C 0.37799 0.63011 0.81764 0.0
C566 C 0.39895 0.64975 0.79925 0.0
C567 C 0.33527 0.59173 0.85089 0.0
C568 C 0.32032 0.61 0.83736 0.0
C569 C 0.34232 0.62943 0.8211 0.0
C570 C 0.28155 0.60855 0.83945 0.0
C571 C 0.31439 0.57211 0.8693 0.0
C572 C 0.24569 0.57174 0.83818 0.0
C573 C 0.20911 0.5704 0.83897 0.0
C574 C 0.2076 0.60579 0.84096 0.0
C575 C 0.24327 0.6426 0.8424 0.0
C576 C 0.2799 0.64397 0.84162 0.0
H577 H 0.33515 0.57053 0.88147 0.0
H578 H 0.30083 0.58843 0.87653 0.0
H579 H 0.29029 0.5411 0.8639 0.0
H580 H 0.24582 0.54394 0.83597 0.0
H581 H 0.18188 0.54164 0.83745 0.0
H582 H 1.02193 0.57861 0.15204 0.0
H583 H 0.96039 0.51856 0.15806 0.0
H584 H 1.02564 0.45701 0.16828 0.0
H585 H 1.0873 0.51695 0.16262 0.0
H586 H 0.92063 0.44273 0.13768 0.0
H587 H 0.96781 0.43646 0.21986 0.0
H588 H 0.99499 0.47976 0.20616 0.0
H589 H 1.00156 0.43725 0.20212 0.0
C590 C 1.0233 0.55233 0.15555 0.0
C591 C 1.05991 0.55294 0.15688 0.0
C592 C 0.98794 0.5179 0.15902 0.0
C593 C 0.98821 0.48322 0.16405 0.0
C594 C 1.02456 0.48352 0.16498 0.0
H595 H 0.81057 0.24077 0.18514 0.0
H596 H 0.87152 0.30398 0.18163 0.0
C597 C 1.05991 0.5179 0.16155 0.0
C598 C 0.95048 0.44655 0.16788 0.0
H599 H 0.90827 0.37928 0.20352 0.0
C600 C 0.91787 0.42908 0.15215 0.0
C601 C 0.94658 0.42846 0.18675 0.0
C602 C 0.97943 0.44662 0.20478 0.0
C603 C 0.88221 0.3937 0.1545 0.0
C604 C 0.87845 0.3754 0.1733 0.0
C605 C 0.91094 0.39305 0.18909 0.0
C606 C 0.84144 0.33757 0.17668 0.0
C607 C 0.84931 0.37557 0.1365 0.0
C608 C 0.80412 0.33534 0.1757 0.0
C609 C 0.76932 0.29921 0.17779 0.0
C610 C 0.77113 0.26468 0.18112 0.0
C611 C 0.80843 0.26709 0.18278 0.0
C612 C 0.84325 0.30319 0.1807 0.0
H613 H 0.86055 0.38686 0.12151 0.0
H614 H 0.8348 0.34249 0.13464 0.0
H615 H 0.82637 0.38359 0.1396 0.0
H616 H 0.80181 0.36146 0.17309 0.0
H617 H 0.74086 0.29806 0.17632 0.0
H618 H 0.13098 0.69204 0.08536 0.0
H619 H 0.12242 0.6854 0.04698 0.0
H620 H 0.17014 0.60612 0.04577 0.0
H621 H 0.17701 0.6112 0.0839 0.0
H622 H 0.17175 0.70287 0.01818 0.0
H623 H 1.06914 0.53927 0.00827 0.0
H624 H 1.08345 0.5684 0.03339 0.0
H625 H 0.11575 0.55271 0.02292 0.0
C626 C 0.13948 0.6731 0.07687 0.0
C627 C 0.15409 0.65168 0.08765 0.0
C628 C 0.13464 0.66935 0.05494 0.0
C629 C 0.14469 0.64444 0.04339 0.0
C630 C 0.16081 0.62438 0.05422 0.0
H631 H 0.16798 0.6543 0.90866 0.0
H632 H 0.18241 0.6614 0.94676 0.0
C633 C 0.16495 0.62752 0.07607 0.0
C634 C 0.13841 0.63945 0.02008 0.0
H635 H 1.09533 0.56913 0.97766 0.0
C636 C 0.15487 0.67363 0.00931 0.0
C637 C 0.11594 0.60132 0.00845 0.0
C638 C 1.09471 0.5634 0.01885 0.0
C639 C 0.14962 0.67077 0.98733 0.0
C640 C 0.12843 0.63256 0.97569 0.0
C641 C 0.112 0.59843 0.98649 0.0
C642 C 0.12059 0.62709 0.9524 0.0
C643 C 0.16573 0.70882 0.97689 0.0
C644 C 1.08129 0.60372 0.94271 0.0
C645 C 1.07309 0.59852 0.92096 0.0
C646 C 0.1039 0.61705 0.90821 0.0
C647 C 0.14345 0.63959 0.9179 0.0
C648 C 0.15171 0.64426 0.93976 0.0
H649 H 0.17071 0.73445 0.98785 0.0
H650 H 0.19483 0.71613 0.97155 0.0
H651 H 0.14512 0.70555 0.9631 0.0
H652 H 1.05672 0.58971 0.95203 0.0
H653 H 1.04237 0.57993 0.91415 0.0
H654 H 0.57849 0.10502 0.41006 0.0
H655 H 0.59077 0.11368 0.37354 0.0
H656 H 0.70432 0.21973 0.39313 0.0
H657 H 0.69244 0.21134 0.42982 0.0
H658 H 0.65399 0.22628 0.35913 0.0
H659 H 0.67438 0.09553 0.34469 0.0
H660 H 0.63037 0.08541 0.35657 0.0
H661 H 0.67868 0.11836 0.37068 0.0
C662 C 0.6061 0.13024 0.40668 0.0
C663 C 0.63453 0.1574 0.42295 0.0
C664 C 0.61314 0.13502 0.38576 0.0
C665 C 0.64865 0.16708 0.38064 0.0
C666 C 0.67681 0.19466 0.39677 0.0
H667 H 0.71583 0.17594 0.25292 0.0
H668 H 0.72107 0.18463 0.29134 0.0
C669 C 0.66996 0.18975 0.41773 0.0
C670 C 0.65601 0.1718 0.35841 0.0
H671 H 0.66663 0.12534 0.31479 0.0
C672 C 0.65715 0.20445 0.34946 0.0
C673 C 0.66067 0.1436 0.3459 0.0
C674 C 0.66134 0.10889 0.35493 0.0
C675 C 0.66114 0.20869 0.32809 0.0
C676 C 0.66386 0.17942 0.31536 0.0
C677 C 0.66441 0.14771 0.32453 0.0
C678 C 0.66324 0.17941 0.29227 0.0
C679 C 0.66205 0.24426 0.31926 0.0
C680 C 0.6293 0.17417 0.28008 0.0
C681 C 0.62625 0.16912 0.25826 0.0
C682 C 0.65709 0.16921 0.24814 0.0
C683 C 0.69183 0.17618 0.26031 0.0
C684 C 0.69473 0.1809 0.28222 0.0
H685 H 0.67101 0.26918 0.33169 0.0
H686 H 0.68293 0.25519 0.30718 0.0
H687 H 0.6318 0.23536 0.3118 0.0
H688 H 0.60438 0.17228 0.28746 0.0
H689 H 0.59913 0.1638 0.24927 0.0
H690 H 0.66827 0.68594 0.76203 0.0
H691 H 0.67287 0.69878 0.72518 0.0
H692 H 0.56164 0.58894 0.70744 0.0
H693 H 0.55639 0.57631 0.74393 0.0
H694 H 0.67712 0.65451 0.69214 0.0
H695 H 0.54196 0.66591 0.67645 0.0
H696 H 0.56317 0.66789 0.70265 0.0
H697 H 0.53079 0.62051 0.68739 0.0
C698 C 0.6446 0.66476 0.7503 0.0
C699 C 0.61185 0.63022 0.75603 0.0
C700 C 0.64727 0.67212 0.72923 0.0
C701 C 0.61718 0.64526 0.71354 0.0
C702 C 0.58467 0.61073 0.71926 0.0
H703 H 0.57297 0.57622 0.58327 0.0
H704 H 0.57424 0.58682 0.62116 0.0
C705 C 0.5819 0.60343 0.74021 0.0
C706 C 0.62037 0.65172 0.69103 0.0
H707 H 0.56715 0.6508 0.64619 0.0
C708 C 0.65348 0.65455 0.68216 0.0
C709 C 0.58962 0.65197 0.67798 0.0
C710 C 0.55461 0.65184 0.68666 0.0
C711 C 0.65547 0.65521 0.66047 0.0
C712 C 0.62366 0.65321 0.64735 0.0
C713 C 0.59141 0.65213 0.65628 0.0
C714 C 0.62169 0.6485 0.6242 0.0
C715 C 0.69058 0.65601 0.65154 0.0
C716 C 0.64735 0.68001 0.61328 0.0
C717 C 0.64651 0.67409 0.59152 0.0
C718 C 0.62024 0.63645 0.58044 0.0
C719 C 0.59381 0.60542 0.59141 0.0
C720 C 0.59441 0.61145 0.61304 0.0
H721 H 0.71087 0.6535 0.6636 0.0
H722 H 0.68006 0.63119 0.63886 0.0
H723 H 0.7078 0.68447 0.6446 0.0
H724 H 0.66841 0.70894 0.62162 0.0
H725 H 0.66732 0.69847 0.58349 0.0
H726 H 0.63457 0.08547 0.5463 0.0
H727 H 0.63833 0.08182 0.58389 0.0
H728 H 0.56685 0.13743 0.58976 0.0
H729 H 0.56271 0.14111 0.55174 0.0
H730 H 0.67336 0.15638 0.61134 0.0
H731 H 0.52198 1.04157 0.62792 0.0
H732 H 0.53909 1.04167 0.60258 0.0
H733 H 0.52588 0.07805 0.61068 0.0
C734 C 0.61905 0.09639 0.55548 0.0
C735 C 0.5988 0.11412 0.54614 0.0
C736 C 0.62114 0.09412 0.57695 0.0
C737 C 0.60296 0.10941 0.58953 0.0
C738 C 0.58075 0.12514 0.58021 0.0
H739 H 0.67872 0.18482 0.72243 0.0
H740 H 0.657 0.18046 0.68533 0.0
C741 C 0.57848 0.12729 0.55855 0.0
C742 C 0.61161 0.11293 0.61248 0.0
H743 H 0.57158 0.07455 0.65685 0.0
C744 C 0.65109 0.1387 0.62134 0.0
C745 C 0.58246 0.08955 0.62531 0.0
C746 C 0.53993 1.06091 0.61626 0.0
C747 C 0.6624 0.14144 0.64275 0.0
C748 C 0.63331 0.11812 0.65565 0.0
C749 C 0.59369 0.09246 0.64684 0.0
C750 C 0.64399 0.11973 0.67828 0.0
C751 C 0.7056 0.1685 0.65135 0.0
C752 C 0.64332 0.08678 0.68655 0.0
C753 C 0.65567 0.08913 0.70776 0.0
C754 C 0.66856 0.1244 0.72101 0.0
C755 C 0.66868 0.15715 0.71264 0.0
C756 C 0.65644 0.15479 0.69147 0.0
H757 H 0.72542 0.1781 0.63874 0.0
H758 H 0.70902 0.19563 0.66017 0.0
H759 H 0.71563 0.15331 0.66229 0.0
H760 H 0.6338 1.05948 0.67654 0.0
H761 H 0.65475 1.06326 0.71383 0.0
H762 H 0.59916 0.5137 0.867 0.0
H763 H 0.58944 0.48902 0.90122 0.0
H764 H 0.5826 0.59102 0.92545 0.0
H765 H 0.59293 0.61651 0.8911 0.0
H766 H 0.63084 0.57344 0.95181 0.0
H767 H 0.48419 0.43783 0.92674 0.0
H768 H 0.52212 0.44248 0.91097 0.0
H769 H 0.50648 0.47898 0.91103 0.0
C770 C 0.5956 0.53104 0.87956 0.0
C771 C 0.59658 0.56703 0.87628 0.0
C772 C 0.58977 0.51666 0.89909 0.0
C773 C 0.58445 0.53773 0.91572 0.0
C774 C 0.58629 0.57414 0.91271 0.0
H775 H 0.50445 0.43791 0.03273 0.0
H776 H 0.50939 0.46573 -0.00082 0.0
C777 C 0.59221 0.58867 0.89311 0.0
C778 C 0.57775 0.52184 0.93631 0.0
H779 H 0.51714 0.43947 0.95988 0.0
C780 C 0.6058 0.54432 0.95365 0.0
C781 C 0.54475 0.48408 0.93871 0.0
C782 C 0.51244 0.45959 0.92092 0.0
C783 C 0.6025 0.5294 0.97319 0.0
C784 C 0.57067 0.49072 0.97529 0.0
C785 C 0.54183 0.46887 0.95815 0.0
C786 C 0.56696 0.4723 -0.00487 0.0
C787 C 0.63303 0.55525 0.99142 0.0
C788 C 0.59711 0.46564 0.00361 0.0
C789 C 0.59428 0.44961 0.02269 0.0
C790 C 0.56108 0.43962 0.03356 0.0
C791 C 0.53021 0.44493 0.02463 0.0
C792 C 0.53311 0.46108 0.00555 0.0
H793 H 0.64836 0.58735 0.98882 0.0
H794 H 0.61906 0.55164 0.00616 0.0
H795 H 0.65596 0.5463 0.99339 0.0
H796 H 0.62297 0.4731 -0.00448 0.0
H797 H 0.61824 0.44529 0.02903 0.0
H798 H 0.24783 0.67468 0.2159 0.0
H799 H 0.25609 0.66664 0.25283 0.0
H800 H 0.13618 0.64106 0.25845 0.0
H801 H 0.12742 0.64897 0.22125 0.0
H802 H 0.24611 0.70761 0.28911 0.0
H803 H 0.14247 0.54294 0.27872 0.0
H804 H 0.16349 0.5711 0.25705 0.0
H805 H 0.12394 0.57351 0.26842 0.0
C806 C 0.2232 0.66758 0.22496 0.0
C807 C 0.18685 0.66222 0.21561 0.0
C808 C 0.22805 0.66307 0.24607 0.0
C809 C 0.19661 0.65283 0.25822 0.0
C810 C 0.16061 0.64852 0.24918 0.0
H811 H 0.2135 0.64817 0.39311 0.0
H812 H 0.20053 0.66 0.35736 0.0
C813 C 0.15575 0.65327 0.228 0.0
C814 C 0.20171 0.64591 0.28024 0.0
H815 H 0.17354 0.57242 0.31284 0.0
C816 C 0.23007 0.67816 0.29439 0.0
C817 C 0.18105 0.6073 0.28687 0.0
C818 C 0.15118 0.57154 0.27201 0.0
C819 C 0.23843 0.67277 0.31509 0.0
C820 C 0.2177 0.63418 0.32174 0.0
C821 C 0.18926 0.60194 0.30761 0.0
C822 C 0.22546 0.62674 0.34332 0.0
C823 C 0.26998 0.70814 0.32959 0.0
C824 C 0.24326 0.6036 0.34715 0.0
C825 C 0.25114 0.59707 0.36762 0.0
C826 C 0.24111 0.61344 0.38455 0.0
C827 C 0.22262 0.63603 0.38051 0.0
C828 C 0.21493 0.64265 0.36009 0.0
H829 H 0.28853 0.73395 0.32098 0.0
H830 H 0.2554 0.71768 0.34091 0.0
H831 H 0.28978 0.69996 0.33863 0.0
H832 H 0.25147 0.591 0.33432 0.0
H833 H 0.26548 0.57964 0.37022 0.0
loop_
_geom_bond_atom_site_label_1
_geom_bond_atom_site_label_2
_geom_bond_distance
_geom_bond_site_symmetry_2
_ccdc_geom_bond_type
Tb0 C9 2.764 1_455 S
Tb0 O10 2.325 1_455 S
Tb0 O13 2.303 . S
Tb0 O17 2.322 . S
Tb0 O18 2.349 . S
Tb0 O21 2.415 1_455 S
Tb0 O22 2.399 1_455 S
Tb1 O11 2.322 . S
Tb1 O12 2.349 . S
Tb1 O14 2.415 . S
Tb1 O15 2.399 . S
Tb1 O16 2.325 . S
Tb1 O19 2.303 . S
Tb1 C30 2.764 . S
C2 O18 1.261 . S
C2 O19 1.257 . S
C3 C6 1.358 . S
C3 C7 1.332 . S
C3 C9 1.504 . S
C4 C5 1.373 . S
C4 C8 1.308 . S
C5 C4 1.373 . S
C5 C6 1.429 . S
C5 H32 0.932 . S
C6 C3 1.358 . S
C6 C5 1.429 . S
C6 H33 0.930 . S
C7 C3 1.332 . S
C7 C8 1.394 . S
C7 H34 0.932 . S
C8 C4 1.308 . S
C8 C7 1.394 . S
C8 H35 0.929 . S
C9 Tb0 2.764 1_655 S
C9 C3 1.504 . S
C9 O21 1.239 . S
C9 O22 1.263 . S
O10 Tb0 2.325 1_655 S
O10 C20 1.236 . S
O11 Tb1 2.322 . S
O11 C20 1.257 1_455 S
O12 Tb1 2.349 . S
O12 C23 1.261 . S
O13 Tb0 2.303 . S
O13 C23 1.257 . S
O14 Tb1 2.415 . S
O14 C30 1.239 . S
O15 Tb1 2.399 . S
O15 C30 1.263 . S
O16 Tb1 2.325 . S
O16 C31 1.236 . S
O17 Tb0 2.322 . S
O17 C31 1.257 . S
O18 Tb0 2.349 . S
O18 C2 1.261 . S
O19 Tb1 2.303 . S
O19 C2 1.257 . S
C20 O10 1.236 . S
C20 O11 1.257 1_655 S
O21 Tb0 2.415 1_655 S
O21 C9 1.239 . S
O22 Tb0 2.399 1_655 S
O22 C9 1.263 . S
C23 O12 1.261 . S
C23 O13 1.257 . S
C24 C27 1.358 . S
C24 C28 1.332 . S
C24 C30 1.504 . S
C25 C26 1.373 . S
C25 C29 1.308 . S
C26 C25 1.373 . S
C26 C27 1.429 . S
C26 H36 0.932 . S
C27 C24 1.358 . S
C27 C26 1.429 . S
C27 H37 0.930 . S
C28 C24 1.332 . S
C28 C29 1.394 . S
C28 H38 0.932 . S
C29 C25 1.308 . S
C29 C28 1.394 . S
C29 H39 0.929 . S
C30 Tb1 2.764 . S
C30 O14 1.239 . S
C30 O15 1.263 . S
C30 C24 1.504 . S
C31 O16 1.236 . S
C31 O17 1.257 . S
H32 C5 0.932 . S
H33 C6 0.930 . S
H34 C7 0.932 . S
H35 C8 0.929 . S
H36 C26 0.932 . S
H37 C27 0.930 . S
H38 C28 0.932 . S
H39 C29 0.929 . S
Tb40 C49 2.764 1_545 S
Tb40 O50 2.325 1_545 S
Tb40 O53 2.303 . S
Tb40 O57 2.322 . S
Tb40 O58 2.349 . S
Tb40 O61 2.415 1_545 S
Tb40 O62 2.399 1_545 S
Tb41 O51 2.322 . S
Tb41 O52 2.349 . S
Tb41 O54 2.415 . S
Tb41 O55 2.399 . S
Tb41 O56 2.325 . S
Tb41 O59 2.303 . S
Tb41 C70 2.764 . S
C42 O58 1.261 . S
C42 O59 1.257 . S
C43 C46 1.358 . S
C43 C47 1.332 . S
C43 C49 1.504 . S
C44 C45 1.373 . S
C44 C48 1.308 . S
C45 C44 1.373 . S
C45 C46 1.429 . S
C45 H72 0.932 . S
C46 C43 1.358 . S
C46 C45 1.429 . S
C46 H73 0.930 . S
C47 C43 1.332 . S
C47 C48 1.394 . S
C47 H74 0.932 . S
C48 C44 1.308 . S
C48 C47 1.394 . S
C48 H75 0.929 . S
C49 Tb40 2.764 1_565 S
C49 C43 1.504 . S
C49 O61 1.239 . S
C49 O62 1.263 . S
O50 Tb40 2.325 1_565 S
O50 C60 1.236 . S
O51 Tb41 2.322 . S
O51 C60 1.257 1_545 S
O52 Tb41 2.349 . S
O52 C63 1.261 . S
O53 Tb40 2.303 . S
O53 C63 1.257 . S
O54 Tb41 2.415 . S
O54 C70 1.239 . S
O55 Tb41 2.399 . S
O55 C70 1.263 . S
O56 Tb41 2.325 . S
O56 C71 1.236 . S
O57 Tb40 2.322 . S
O57 C71 1.257 . S
O58 Tb40 2.349 . S
O58 C42 1.261 . S
O59 Tb41 2.303 . S
O59 C42 1.257 . S
C60 O50 1.236 . S
C60 O51 1.257 1_565 S
O61 Tb40 2.415 1_565 S
O61 C49 1.239 . S
O62 Tb40 2.399 1_565 S
O62 C49 1.263 . S
C63 O52 1.261 . S
C63 O53 1.257 . S
C64 C67 1.358 . S
C64 C68 1.332 . S
C64 C70 1.504 . S
C65 C66 1.373 . S
C65 C69 1.308 . S
C66 C65 1.373 . S
C66 C67 1.429 . S
C66 H76 0.932 . S
C67 C64 1.358 . S
C67 C66 1.429 . S
C67 H77 0.930 . S
C68 C64 1.332 . S
C68 C69 1.394 . S
C68 H78 0.932 . S
C69 C65 1.308 . S
C69 C68 1.394 . S
C69 H79 0.929 . S
C70 Tb41 2.764 . S
C70 O54 1.239 . S
C70 O55 1.263 . S
C70 C64 1.504 . S
C71 O56 1.236 . S
C71 O57 1.257 . S
H72 C45 0.932 . S
H73 C46 0.930 . S
H74 C47 0.932 . S
H75 C48 0.929 . S
H76 C66 0.932 . S
H77 C67 0.930 . S
H78 C68 0.932 . S
H79 C69 0.929 . S
Tb80 C89 2.764 . S
Tb80 O90 2.325 . S
Tb80 O93 2.303 . S
Tb80 O97 2.322 . S
Tb80 O98 2.349 . S
Tb80 O101 2.415 . S
Tb80 O102 2.399 . S
Tb81 O91 2.322 . S
Tb81 O92 2.349 . S
Tb81 O94 2.415 . S
Tb81 O95 2.399 . S
Tb81 O96 2.325 . S
Tb81 O99 2.303 . S
Tb81 C110 2.764 . S
C82 O98 1.261 . S
C82 O99 1.257 . S
C83 C86 1.358 . S
C83 C87 1.332 . S
C83 C89 1.504 . S
C84 C85 1.373 . S
C84 C88 1.308 . S
C85 C84 1.373 . S
C85 C86 1.429 . S
C85 H112 0.932 . S
C86 C83 1.358 . S
C86 C85 1.429 . S
C86 H113 0.930 . S
C87 C83 1.332 . S
C87 C88 1.394 . S
C87 H114 0.932 . S
C88 C84 1.308 . S
C88 C87 1.394 . S
C88 H115 0.929 . S
C89 Tb80 2.764 . S
C89 C83 1.504 . S
C89 O101 1.239 . S
C89 O102 1.263 . S
O90 Tb80 2.325 . S
O90 C100 1.236 . S
O91 Tb81 2.322 . S
O91 C100 1.257 . S
O92 Tb81 2.349 . S
O92 C103 1.261 . S
O93 Tb80 2.303 . S
O93 C103 1.257 . S
O94 Tb81 2.415 . S
O94 C110 1.239 . S
O95 Tb81 2.399 . S
O95 C110 1.263 . S
O96 Tb81 2.325 . S
O96 C111 1.236 . S
O97 Tb80 2.322 . S
O97 C111 1.257 . S
O98 Tb80 2.349 . S
O98 C82 1.261 . S
O99 Tb81 2.303 . S
O99 C82 1.257 . S
C100 O90 1.236 . S
C100 O91 1.257 . S
O101 Tb80 2.415 . S
O101 C89 1.239 . S
O102 Tb80 2.399 . S
O102 C89 1.263 . S
C103 O92 1.261 . S
C103 O93 1.257 . S
C104 C107 1.358 . S
C104 C108 1.332 . S
C104 C110 1.504 . S
C105 C106 1.373 . S
C105 C109 1.308 . S
C106 C105 1.373 . S
C106 C107 1.429 . S
C106 H116 0.932 . S
C107 C104 1.358 . S
C107 C106 1.429 . S
C107 H117 0.930 . S
C108 C104 1.332 . S
C108 C109 1.394 . S
C108 H118 0.932 . S
C109 C105 1.308 . S
C109 C108 1.394 . S
C109 H119 0.929 . S
C110 Tb81 2.764 . S
C110 O94 1.239 . S
C110 O95 1.263 . S
C110 C104 1.504 . S
C111 O96 1.236 . S
C111 O97 1.257 . S
H112 C85 0.932 . S
H113 C86 0.930 . S
H114 C87 0.932 . S
H115 C88 0.929 . S
H116 C106 0.932 . S
H117 C107 0.930 . S
H118 C108 0.932 . S
H119 C109 0.929 . S
H120 C123 0.929 . S
H121 C126 0.929 . S
H122 C128 0.930 . S
C123 H120 0.929 . S
C123 C124 1.398 . S
C123 C125 1.396 . S
C124 C123 1.398 . S
C124 C128 1.407 . S
C125 C123 1.396 . S
C125 C126 1.394 . S
C126 H121 0.929 . S
C126 C125 1.394 . S
C126 C127 1.382 . S
C127 C126 1.382 . S
C127 C128 1.392 . S
C127 N129 1.420 . S
C128 H122 0.930 . S
C128 C124 1.407 . S
C128 C127 1.392 . S
N129 C127 1.420 . S
N129 C130 1.244 . S
C130 N129 1.244 . S
H131 C134 0.929 . S
H132 C137 0.929 . S
H133 C139 0.930 . S
C134 H131 0.929 . S
C134 C135 1.398 . S
C134 C136 1.396 . S
C135 C134 1.398 . S
C135 C139 1.407 . S
C136 C134 1.396 . S
C136 C137 1.394 . S
C137 H132 0.929 . S
C137 C136 1.394 . S
C137 C138 1.382 . S
C138 C137 1.382 . S
C138 C139 1.392 . S
C138 N140 1.420 . S
C139 H133 0.930 . S
C139 C135 1.407 . S
C139 C138 1.392 . S
N140 C138 1.420 . S
N140 C141 1.244 . S
C141 N140 1.244 . S
H142 C145 0.929 . S
H143 C148 0.929 . S
H144 C150 0.930 . S
C145 H142 0.929 . S
C145 C146 1.398 . S
C145 C147 1.396 . S
C146 C145 1.398 . S
C146 C150 1.407 . S
C147 C145 1.396 . S
C147 C148 1.394 . S
C148 H143 0.929 . S
C148 C147 1.394 . S
C148 C149 1.382 . S
C149 C148 1.382 . S
C149 C150 1.392 . S
C149 N151 1.420 . S
C150 H144 0.930 . S
C150 C146 1.407 . S
C150 C149 1.392 . S
N151 C149 1.420 . S
N151 C152 1.244 . S
C152 N151 1.244 . S
H153 C156 0.929 . S
H154 C159 0.929 . S
H155 C161 0.930 . S
C156 H153 0.929 . S
C156 C157 1.398 . S
C156 C158 1.396 . S
C157 C156 1.398 . S
C157 C161 1.407 . S
C158 C156 1.396 . S
C158 C159 1.394 1_455 S
C159 H154 0.929 . S
C159 C158 1.394 1_655 S
C159 C160 1.382 . S
C160 C159 1.382 . S
C160 C161 1.392 1_655 S
C160 N162 1.420 . S
C161 H155 0.930 . S
C161 C157 1.407 . S
C161 C160 1.392 1_455 S
N162 C160 1.420 . S
N162 C163 1.244 . S
C163 N162 1.244 . S
H164 C167 0.929 . S
H165 C170 0.929 1_565 S
H166 C172 0.930 . S
C167 H164 0.929 . S
C167 C168 1.398 . S
C167 C169 1.396 . S
C168 C167 1.398 . S
C168 C172 1.407 . S
C169 C167 1.396 . S
C169 C170 1.394 . S
C170 H165 0.929 1_545 S
C170 C169 1.394 . S
C170 C171 1.382 . S
C171 C170 1.382 . S
C171 C172 1.392 . S
C171 N173 1.420 1_545 S
C172 H166 0.930 . S
C172 C168 1.407 . S
C172 C171 1.392 . S
N173 C171 1.420 1_565 S
N173 C174 1.244 . S
C174 N173 1.244 . S
H175 C178 0.929 . S
H176 C181 0.929 . S
H177 C183 0.930 . S
C178 H175 0.929 . S
C178 C179 1.398 . S
C178 C180 1.396 . S
C179 C178 1.398 . S
C179 C183 1.407 . S
C180 C178 1.396 . S
C180 C181 1.394 . S
C181 H176 0.929 . S
C181 C180 1.394 . S
C181 C182 1.382 . S
C182 C181 1.382 . S
C182 C183 1.392 . S
C182 N184 1.420 . S
C183 H177 0.930 . S
C183 C179 1.407 . S
C183 C182 1.392 . S
N184 C182 1.420 . S
N184 C185 1.244 . S
C185 N184 1.244 . S
H186 C194 0.929 . S
H187 C196 0.930 . S
H188 C198 0.930 . S
H189 C201 0.929 . S
H190 C204 0.930 . S
H191 C206 0.960 . S
H192 C206 0.960 . S
H193 C206 0.960 . S
C194 H186 0.929 . S
C194 C195 1.377 . S
C194 C196 1.384 . S
C195 C194 1.377 . S
C195 C201 1.390 . S
C196 H187 0.930 . S
C196 C194 1.384 . S
C196 C197 1.372 . S
C197 C196 1.372 . S
C197 C198 1.400 . S
C197 C202 1.490 . S
C198 H188 0.930 . S
C198 C197 1.400 . S
C198 C201 1.386 . S
H199 C215 0.930 . S
H200 C216 0.931 . S
C201 H189 0.929 . S
C201 C195 1.390 . S
C201 C198 1.386 . S
C202 C197 1.490 . S
C202 C204 1.395 . S
C202 C205 1.403 . S
H203 C209 0.930 . S
C204 H190 0.930 . S
C204 C202 1.395 . S
C204 C207 1.403 . S
C205 C202 1.403 . S
C205 C206 1.524 . S
C205 C209 1.400 . S
C206 H191 0.960 . S
C206 H192 0.960 . S
C206 H193 0.960 . S
C206 C205 1.524 . S
C207 C204 1.403 . S
C207 C208 1.392 . S
C207 C211 1.495 . S
C208 C207 1.392 . S
C208 C209 1.385 . S
C208 C210 1.478 . S
C209 H203 0.930 . S
C209 C205 1.400 . S
C209 C208 1.385 . S
C210 C208 1.478 . S
C210 C212 1.381 . S
C210 C216 1.383 . S
C211 C207 1.495 . S
C211 H217 0.959 . S
C211 H218 0.961 . S
C211 H219 0.960 . S
C212 C210 1.381 . S
C212 C213 1.394 . S
C212 H220 0.930 . S
C213 C212 1.394 . S
C213 C214 1.383 . S
C213 H221 0.929 . S
C214 C213 1.383 . S
C214 C215 1.377 . S
C215 H199 0.930 . S
C215 C214 1.377 . S
C215 C216 1.379 . S
C216 H200 0.931 . S
C216 C210 1.383 . S
C216 C215 1.379 . S
H217 C211 0.959 . S
H218 C211 0.961 . S
H219 C211 0.960 . S
H220 C212 0.930 . S
H221 C213 0.929 . S
H222 C230 0.929 . S
H223 C232 0.930 . S
H224 C234 0.930 . S
H225 C237 0.929 . S
H226 C240 0.930 . S
H227 C242 0.960 . S
H228 C242 0.960 . S
H229 C242 0.960 . S
C230 H222 0.929 . S
C230 C231 1.377 . S
C230 C232 1.384 . S
C231 C230 1.377 . S
C231 C237 1.390 . S
C232 H223 0.930 . S
C232 C230 1.384 . S
C232 C233 1.372 . S
C233 C232 1.372 . S
C233 C234 1.400 . S
C233 C238 1.490 . S
C234 H224 0.930 . S
C234 C233 1.400 . S
C234 C237 1.386 . S
H235 C251 0.930 . S
H236 C252 0.931 . S
C237 H225 0.929 . S
C237 C231 1.390 . S
C237 C234 1.386 . S
C238 C233 1.490 . S
C238 C240 1.395 . S
C238 C241 1.403 . S
H239 C245 0.930 . S
C240 H226 0.930 . S
C240 C238 1.395 . S
C240 C243 1.403 . S
C241 C238 1.403 . S
C241 C242 1.524 . S
C241 C245 1.400 . S
C242 H227 0.960 . S
C242 H228 0.960 . S
C242 H229 0.960 . S
C242 C241 1.524 . S
C243 C240 1.403 . S
C243 C244 1.392 . S
C243 C247 1.495 . S
C244 C243 1.392 . S
C244 C245 1.385 . S
C244 C246 1.478 . S
C245 H239 0.930 . S
C245 C241 1.400 . S
C245 C244 1.385 . S
C246 C244 1.478 . S
C246 C248 1.381 . S
C246 C252 1.383 . S
C247 C243 1.495 . S
C247 H253 0.959 . S
C247 H254 0.961 . S
C247 H255 0.960 . S
C248 C246 1.381 . S
C248 C249 1.394 . S
C248 H256 0.930 . S
C249 C248 1.394 . S
C249 C250 1.383 . S
C249 H257 0.929 . S
C250 C249 1.383 . S
C250 C251 1.377 . S
C251 H235 0.930 . S
C251 C250 1.377 . S
C251 C252 1.379 . S
C252 H236 0.931 . S
C252 C246 1.383 . S
C252 C251 1.379 . S
H253 C247 0.959 . S
H254 C247 0.961 . S
H255 C247 0.960 . S
H256 C248 0.930 . S
H257 C249 0.929 . S
H258 C266 0.929 . S
H259 C268 0.930 . S
H260 C270 0.930 . S
H261 C273 0.929 . S
H262 C276 0.930 . S
H263 C278 0.960 . S
H264 C278 0.960 . S
H265 C278 0.960 . S
C266 H258 0.929 . S
C266 C267 1.377 . S
C266 C268 1.384 . S
C267 C266 1.377 . S
C267 C273 1.390 . S
C268 H259 0.930 . S
C268 C266 1.384 . S
C268 C269 1.372 . S
C269 C268 1.372 . S
C269 C270 1.400 . S
C269 C274 1.490 . S
C270 H260 0.930 . S
C270 C269 1.400 . S
C270 C273 1.386 . S
H271 C287 0.930 . S
H272 C288 0.931 . S
C273 H261 0.929 . S
C273 C267 1.390 . S
C273 C270 1.386 . S
C274 C269 1.490 . S
C274 C276 1.395 . S
C274 C277 1.403 . S
H275 C281 0.930 . S
C276 H262 0.930 . S
C276 C274 1.395 . S
C276 C279 1.403 . S
C277 C274 1.403 . S
C277 C278 1.524 . S
C277 C281 1.400 . S
C278 H263 0.960 . S
C278 H264 0.960 . S
C278 H265 0.960 . S
C278 C277 1.524 . S
C279 C276 1.403 . S
C279 C280 1.392 . S
C279 C283 1.495 . S
C280 C279 1.392 . S
C280 C281 1.385 . S
C280 C282 1.478 . S
C281 H275 0.930 . S
C281 C277 1.400 . S
C281 C280 1.385 . S
C282 C280 1.478 . S
C282 C284 1.381 . S
C282 C288 1.383 . S
C283 C279 1.495 . S
C283 H289 0.959 . S
C283 H290 0.961 . S
C283 H291 0.960 . S
C284 C282 1.381 . S
C284 C285 1.394 . S
C284 H292 0.930 . S
C285 C284 1.394 . S
C285 C286 1.383 . S
C285 H293 0.929 . S
C286 C285 1.383 . S
C286 C287 1.377 . S
C287 H271 0.930 . S
C287 C286 1.377 . S
C287 C288 1.379 . S
C288 H272 0.931 . S
C288 C282 1.383 . S
C288 C287 1.379 . S
H289 C283 0.959 . S
H290 C283 0.961 . S
H291 C283 0.960 . S
H292 C284 0.930 . S
H293 C285 0.929 . S
H294 C302 0.929 . S
H295 C304 0.930 . S
H296 C306 0.930 . S
H297 C309 0.929 . S
H298 C312 0.930 . S
H299 C314 0.960 . S
H300 C314 0.960 . S
H301 C314 0.960 . S
C302 H294 0.929 . S
C302 C303 1.377 . S
C302 C304 1.384 . S
C303 C302 1.377 . S
C303 C309 1.390 . S
C304 H295 0.930 . S
C304 C302 1.384 . S
C304 C305 1.372 . S
C305 C304 1.372 . S
C305 C306 1.400 . S
C305 C310 1.490 . S
C306 H296 0.930 . S
C306 C305 1.400 . S
C306 C309 1.386 . S
H307 C323 0.930 . S
H308 C324 0.931 . S
C309 H297 0.929 . S
C309 C303 1.390 . S
C309 C306 1.386 . S
C310 C305 1.490 . S
C310 C312 1.395 . S
C310 C313 1.403 . S
H311 C317 0.930 . S
C312 H298 0.930 . S
C312 C310 1.395 . S
C312 C315 1.403 . S
C313 C310 1.403 . S
C313 C314 1.524 . S
C313 C317 1.400 . S
C314 H299 0.960 . S
C314 H300 0.960 . S
C314 H301 0.960 . S
C314 C313 1.524 . S
C315 C312 1.403 . S
C315 C316 1.392 . S
C315 C319 1.495 . S
C316 C315 1.392 . S
C316 C317 1.385 . S
C316 C318 1.478 . S
C317 H311 0.930 . S
C317 C313 1.400 . S
C317 C316 1.385 . S
C318 C316 1.478 . S
C318 C320 1.381 . S
C318 C324 1.383 . S
C319 C315 1.495 . S
C319 H325 0.959 . S
C319 H326 0.961 . S
C319 H327 0.960 . S
C320 C318 1.381 . S
C320 C321 1.394 . S
C320 H328 0.930 . S
C321 C320 1.394 . S
C321 C322 1.383 . S
C321 H329 0.929 . S
C322 C321 1.383 . S
C322 C323 1.377 . S
C323 H307 0.930 . S
C323 C322 1.377 . S
C323 C324 1.379 . S
C324 H308 0.931 . S
C324 C318 1.383 . S
C324 C323 1.379 . S
H325 C319 0.959 . S
H326 C319 0.961 . S
H327 C319 0.960 . S
H328 C320 0.930 . S
H329 C321 0.929 . S
H330 C338 0.929 . S
H331 C340 0.930 . S
H332 C342 0.930 . S
H333 C345 0.929 . S
H334 C348 0.930 . S
H335 C350 0.960 . S
H336 C350 0.960 . S
H337 C350 0.960 . S
C338 H330 0.929 . S
C338 C339 1.377 . S
C338 C340 1.384 . S
C339 C338 1.377 . S
C339 C345 1.390 . S
C340 H331 0.930 . S
C340 C338 1.384 . S
C340 C341 1.372 . S
C341 C340 1.372 . S
C341 C342 1.400 . S
C341 C346 1.490 . S
C342 H332 0.930 . S
C342 C341 1.400 . S
C342 C345 1.386 . S
H343 C359 0.930 . S
H344 C360 0.931 . S
C345 H333 0.929 . S
C345 C339 1.390 . S
C345 C342 1.386 . S
C346 C341 1.490 . S
C346 C348 1.395 . S
C346 C349 1.403 . S
H347 C353 0.930 . S
C348 H334 0.930 . S
C348 C346 1.395 . S
C348 C351 1.403 . S
C349 C346 1.403 . S
C349 C350 1.524 . S
C349 C353 1.400 . S
C350 H335 0.960 . S
C350 H336 0.960 . S
C350 H337 0.960 . S
C350 C349 1.524 . S
C351 C348 1.403 . S
C351 C352 1.392 . S
C351 C355 1.495 . S
C352 C351 1.392 . S
C352 C353 1.385 . S
C352 C354 1.478 . S
C353 H347 0.930 . S
C353 C349 1.400 . S
C353 C352 1.385 . S
C354 C352 1.478 . S
C354 C356 1.381 . S
C354 C360 1.383 . S
C355 C351 1.495 . S
C355 H361 0.959 . S
C355 H362 0.961 . S
C355 H363 0.960 . S
C356 C354 1.381 . S
C356 C357 1.394 . S
C356 H364 0.930 . S
C357 C356 1.394 . S
C357 C358 1.383 . S
C357 H365 0.929 . S
C358 C357 1.383 . S
C358 C359 1.377 . S
C359 H343 0.930 . S
C359 C358 1.377 . S
C359 C360 1.379 . S
C360 H344 0.931 . S
C360 C354 1.383 . S
C360 C359 1.379 . S
H361 C355 0.959 . S
H362 C355 0.961 . S
H363 C355 0.960 . S
H364 C356 0.930 . S
H365 C357 0.929 . S
H366 C374 0.929 . S
H367 C376 0.930 . S
H368 C378 0.930 . S
H369 C381 0.929 . S
H370 C384 0.930 . S
H371 C386 0.960 . S
H372 C386 0.960 . S
H373 C386 0.960 . S
C374 H366 0.929 . S
C374 C375 1.377 . S
C374 C376 1.384 . S
C375 C374 1.377 . S
C375 C381 1.390 . S
C376 H367 0.930 . S
C376 C374 1.384 . S
C376 C377 1.372 . S
C377 C376 1.372 . S
C377 C378 1.400 . S
C377 C382 1.490 . S
C378 H368 0.930 . S
C378 C377 1.400 . S
C378 C381 1.386 . S
H379 C395 0.930 . S
H380 C396 0.931 . S
C381 H369 0.929 . S
C381 C375 1.390 . S
C381 C378 1.386 . S
C382 C377 1.490 . S
C382 C384 1.395 . S
C382 C385 1.403 . S
H383 C389 0.930 . S
C384 H370 0.930 . S
C384 C382 1.395 . S
C384 C387 1.403 . S
C385 C382 1.403 . S
C385 C386 1.524 . S
C385 C389 1.400 . S
C386 H371 0.960 . S
C386 H372 0.960 . S
C386 H373 0.960 . S
C386 C385 1.524 . S
C387 C384 1.403 . S
C387 C388 1.392 . S
C387 C391 1.495 . S
C388 C387 1.392 . S
C388 C389 1.385 . S
C388 C390 1.478 . S
C389 H383 0.930 . S
C389 C385 1.400 . S
C389 C388 1.385 . S
C390 C388 1.478 . S
C390 C392 1.381 . S
C390 C396 1.383 . S
C391 C387 1.495 . S
C391 H397 0.959 . S
C391 H398 0.961 . S
C391 H399 0.960 . S
C392 C390 1.381 . S
C392 C393 1.394 . S
C392 H400 0.930 . S
C393 C392 1.394 . S
C393 C394 1.383 . S
C393 H401 0.929 . S
C394 C393 1.383 . S
C394 C395 1.377 . S
C395 H379 0.930 . S
C395 C394 1.377 . S
C395 C396 1.379 . S
C396 H380 0.931 . S
C396 C390 1.383 . S
C396 C395 1.379 . S
H397 C391 0.959 . S
H398 C391 0.961 . S
H399 C391 0.960 . S
H400 C392 0.930 . S
H401 C393 0.929 . S
H402 C410 0.929 . S
H403 C412 0.930 . S
H404 C414 0.930 . S
H405 C417 0.929 . S
H406 C420 0.930 . S
H407 C422 0.960 . S
H408 C422 0.960 . S
H409 C422 0.960 . S
C410 H402 0.929 . S
C410 C411 1.377 . S
C410 C412 1.384 . S
C411 C410 1.377 . S
C411 C417 1.390 . S
C412 H403 0.930 . S
C412 C410 1.384 . S
C412 C413 1.372 . S
C413 C412 1.372 . S
C413 C414 1.400 . S
C413 C418 1.490 . S
C414 H404 0.930 . S
C414 C413 1.400 . S
C414 C417 1.386 . S
H415 C431 0.930 . S
H416 C432 0.931 . S
C417 H405 0.929 . S
C417 C411 1.390 . S
C417 C414 1.386 . S
C418 C413 1.490 . S
C418 C420 1.395 . S
C418 C421 1.403 . S
H419 C425 0.930 . S
C420 H406 0.930 . S
C420 C418 1.395 . S
C420 C423 1.403 . S
C421 C418 1.403 . S
C421 C422 1.524 . S
C421 C425 1.400 . S
C422 H407 0.960 . S
C422 H408 0.960 . S
C422 H409 0.960 . S
C422 C421 1.524 . S
C423 C420 1.403 . S
C423 C424 1.392 . S
C423 C427 1.495 . S
C424 C423 1.392 . S
C424 C425 1.385 . S
C424 C426 1.478 . S
C425 H419 0.930 . S
C425 C421 1.400 . S
C425 C424 1.385 . S
C426 C424 1.478 . S
C426 C428 1.381 . S
C426 C432 1.383 . S
C427 C423 1.495 . S
C427 H433 0.959 . S
C427 H434 0.961 . S
C427 H435 0.960 . S
C428 C426 1.381 . S
C428 C429 1.394 . S
C428 H436 0.930 . S
C429 C428 1.394 . S
C429 C430 1.383 . S
C429 H437 0.929 . S
C430 C429 1.383 . S
C430 C431 1.377 . S
C431 H415 0.930 . S
C431 C430 1.377 . S
C431 C432 1.379 . S
C432 H416 0.931 . S
C432 C426 1.383 . S
C432 C431 1.379 . S
H433 C427 0.959 . S
H434 C427 0.961 . S
H435 C427 0.960 . S
H436 C428 0.930 . S
H437 C429 0.929 . S
H438 C446 0.929 . S
H439 C448 0.930 . S
H440 C450 0.930 . S
H441 C453 0.929 . S
H442 C456 0.930 . S
H443 C458 0.960 . S
H444 C458 0.960 . S
H445 C458 0.960 . S
C446 H438 0.929 . S
C446 C447 1.377 . S
C446 C448 1.384 . S
C447 C446 1.377 . S
C447 C453 1.390 . S
C448 H439 0.930 . S
C448 C446 1.384 . S
C448 C449 1.372 . S
C449 C448 1.372 . S
C449 C450 1.400 . S
C449 C454 1.490 . S
C450 H440 0.930 . S
C450 C449 1.400 . S
C450 C453 1.386 . S
H451 C467 0.930 . S
H452 C468 0.931 . S
C453 H441 0.929 . S
C453 C447 1.390 . S
C453 C450 1.386 . S
C454 C449 1.490 . S
C454 C456 1.395 . S
C454 C457 1.403 . S
H455 C461 0.930 . S
C456 H442 0.930 . S
C456 C454 1.395 . S
C456 C459 1.403 . S
C457 C454 1.403 . S
C457 C458 1.524 . S
C457 C461 1.400 . S
C458 H443 0.960 . S
C458 H444 0.960 . S
C458 H445 0.960 . S
C458 C457 1.524 . S
C459 C456 1.403 . S
C459 C460 1.392 . S
C459 C463 1.495 . S
C460 C459 1.392 . S
C460 C461 1.385 . S
C460 C462 1.478 . S
C461 H455 0.930 . S
C461 C457 1.400 . S
C461 C460 1.385 . S
C462 C460 1.478 . S
C462 C464 1.381 . S
C462 C468 1.383 . S
C463 C459 1.495 . S
C463 H469 0.959 . S
C463 H470 0.961 . S
C463 H471 0.960 . S
C464 C462 1.381 . S
C464 C465 1.394 . S
C464 H472 0.930 . S
C465 C464 1.394 . S
C465 C466 1.383 . S
C465 H473 0.929 . S
C466 C465 1.383 . S
C466 C467 1.377 . S
C467 H451 0.930 . S
C467 C466 1.377 . S
C467 C468 1.379 . S
C468 H452 0.931 . S
C468 C462 1.383 . S
C468 C467 1.379 . S
H469 C463 0.959 . S
H470 C463 0.961 . S
H471 C463 0.960 . S
H472 C464 0.930 . S
H473 C465 0.929 . S
H474 C482 0.929 . S
H475 C484 0.930 . S
H476 C486 0.930 . S
H477 C489 0.929 . S
H478 C492 0.930 . S
H479 C494 0.960 . S
H480 C494 0.960 . S
H481 C494 0.960 . S
C482 H474 0.929 . S
C482 C483 1.377 . S
C482 C484 1.384 . S
C483 C482 1.377 . S
C483 C489 1.390 . S
C484 H475 0.930 . S
C484 C482 1.384 . S
C484 C485 1.372 . S
C485 C484 1.372 . S
C485 C486 1.400 . S
C485 C490 1.490 . S
C486 H476 0.930 . S
C486 C485 1.400 . S
C486 C489 1.386 . S
H487 C503 0.930 . S
H488 C504 0.931 . S
C489 H477 0.929 . S
C489 C483 1.390 . S
C489 C486 1.386 . S
C490 C485 1.490 . S
C490 C492 1.395 . S
C490 C493 1.403 . S
H491 C497 0.930 . S
C492 H478 0.930 . S
C492 C490 1.395 . S
C492 C495 1.403 . S
C493 C490 1.403 . S
C493 C494 1.524 . S
C493 C497 1.400 . S
C494 H479 0.960 . S
C494 H480 0.960 . S
C494 H481 0.960 . S
C494 C493 1.524 . S
C495 C492 1.403 . S
C495 C496 1.392 . S
C495 C499 1.495 . S
C496 C495 1.392 . S
C496 C497 1.385 . S
C496 C498 1.478 . S
C497 H491 0.930 . S
C497 C493 1.400 . S
C497 C496 1.385 . S
C498 C496 1.478 . S
C498 C500 1.381 . S
C498 C504 1.383 . S
C499 C495 1.495 . S
C499 H505 0.959 . S
C499 H506 0.961 . S
C499 H507 0.960 . S
C500 C498 1.381 . S
C500 C501 1.394 . S
C500 H508 0.930 . S
C501 C500 1.394 . S
C501 C502 1.383 . S
C501 H509 0.929 . S
C502 C501 1.383 . S
C502 C503 1.377 . S
C503 H487 0.930 . S
C503 C502 1.377 . S
C503 C504 1.379 . S
C504 H488 0.931 . S
C504 C498 1.383 . S
C504 C503 1.379 . S
H505 C499 0.959 . S
H506 C499 0.961 . S
H507 C499 0.960 . S
H508 C500 0.930 . S
H509 C501 0.929 . S
H510 C518 0.929 . S
H511 C520 0.930 . S
H512 C522 0.930 . S
H513 C525 0.929 . S
H514 C528 0.930 . S
H515 C530 0.960 . S
H516 C530 0.960 . S
H517 C530 0.960 . S
C518 H510 0.929 . S
C518 C519 1.377 . S
C518 C520 1.384 . S
C519 C518 1.377 . S
C519 C525 1.390 . S
C520 H511 0.930 . S
C520 C518 1.384 . S
C520 C521 1.372 . S
C521 C520 1.372 . S
C521 C522 1.400 . S
C521 C526 1.490 . S
C522 H512 0.930 . S
C522 C521 1.400 . S
C522 C525 1.386 . S
H523 C539 0.930 . S
H524 C540 0.931 . S
C525 H513 0.929 . S
C525 C519 1.390 . S
C525 C522 1.386 . S
C526 C521 1.490 . S
C526 C528 1.395 . S
C526 C529 1.403 . S
H527 C533 0.930 . S
C528 H514 0.930 . S
C528 C526 1.395 . S
C528 C531 1.403 . S
C529 C526 1.403 . S
C529 C530 1.524 . S
C529 C533 1.400 . S
C530 H515 0.960 . S
C530 H516 0.960 . S
C530 H517 0.960 . S
C530 C529 1.524 . S
C531 C528 1.403 . S
C531 C532 1.392 . S
C531 C535 1.495 . S
C532 C531 1.392 . S
C532 C533 1.385 . S
C532 C534 1.478 . S
C533 H527 0.930 . S
C533 C529 1.400 . S
C533 C532 1.385 . S
C534 C532 1.478 . S
C534 C536 1.381 . S
C534 C540 1.383 . S
C535 C531 1.495 . S
C535 H541 0.959 . S
C535 H542 0.961 . S
C535 H543 0.960 . S
C536 C534 1.381 . S
C536 C537 1.394 . S
C536 H544 0.930 . S
C537 C536 1.394 . S
C537 C538 1.383 . S
C537 H545 0.929 . S
C538 C537 1.383 . S
C538 C539 1.377 . S
C539 H523 0.930 . S
C539 C538 1.377 . S
C539 C540 1.379 . S
C540 H524 0.931 . S
C540 C534 1.383 . S
C540 C539 1.379 . S
H541 C535 0.959 . S
H542 C535 0.961 . S
H543 C535 0.960 . S
H544 C536 0.930 . S
H545 C537 0.929 . S
H546 C554 0.929 . S
H547 C556 0.930 . S
H548 C558 0.930 . S
H549 C561 0.929 . S
H550 C564 0.930 . S
H551 C566 0.960 . S
H552 C566 0.960 . S
H553 C566 0.960 . S
C554 H546 0.929 . S
C554 C555 1.377 . S
C554 C556 1.384 . S
C555 C554 1.377 . S
C555 C561 1.390 . S
C556 H547 0.930 . S
C556 C554 1.384 . S
C556 C557 1.372 . S
C557 C556 1.372 . S
C557 C558 1.400 . S
C557 C562 1.490 . S
C558 H548 0.930 . S
C558 C557 1.400 . S
C558 C561 1.386 . S
H559 C575 0.930 . S
H560 C576 0.931 . S
C561 H549 0.929 . S
C561 C555 1.390 . S
C561 C558 1.386 . S
C562 C557 1.490 . S
C562 C564 1.395 . S
C562 C565 1.403 . S
H563 C569 0.930 . S
C564 H550 0.930 . S
C564 C562 1.395 . S
C564 C567 1.403 . S
C565 C562 1.403 . S
C565 C566 1.524 . S
C565 C569 1.400 . S
C566 H551 0.960 . S
C566 H552 0.960 . S
C566 H553 0.960 . S
C566 C565 1.524 . S
C567 C564 1.403 . S
C567 C568 1.392 . S
C567 C571 1.495 . S
C568 C567 1.392 . S
C568 C569 1.385 . S
C568 C570 1.478 . S
C569 H563 0.930 . S
C569 C565 1.400 . S
C569 C568 1.385 . S
C570 C568 1.478 . S
C570 C572 1.381 . S
C570 C576 1.383 . S
C571 C567 1.495 . S
C571 H577 0.959 . S
C571 H578 0.961 . S
C571 H579 0.960 . S
C572 C570 1.381 . S
C572 C573 1.394 . S
C572 H580 0.930 . S
C573 C572 1.394 . S
C573 C574 1.383 . S
C573 H581 0.929 . S
C574 C573 1.383 . S
C574 C575 1.377 . S
C575 H559 0.930 . S
C575 C574 1.377 . S
C575 C576 1.379 . S
C576 H560 0.931 . S
C576 C570 1.383 . S
C576 C575 1.379 . S
H577 C571 0.959 . S
H578 C571 0.961 . S
H579 C571 0.960 . S
H580 C572 0.930 . S
H581 C573 0.929 . S
H582 C590 0.929 . S
H583 C592 0.930 . S
H584 C594 0.930 . S
H585 C597 0.929 . S
H586 C600 0.930 . S
H587 C602 0.960 . S
H588 C602 0.960 . S
H589 C602 0.960 . S
C590 H582 0.929 . S
C590 C591 1.377 . S
C590 C592 1.384 . S
C591 C590 1.377 . S
C591 C597 1.390 . S
C592 H583 0.930 . S
C592 C590 1.384 . S
C592 C593 1.372 . S
C593 C592 1.372 . S
C593 C594 1.400 . S
C593 C598 1.490 . S
C594 H584 0.930 . S
C594 C593 1.400 . S
C594 C597 1.386 . S
H595 C611 0.930 . S
H596 C612 0.931 . S
C597 H585 0.929 . S
C597 C591 1.390 . S
C597 C594 1.386 . S
C598 C593 1.490 . S
C598 C600 1.395 . S
C598 C601 1.403 . S
H599 C605 0.930 . S
C600 H586 0.930 . S
C600 C598 1.395 . S
C600 C603 1.403 . S
C601 C598 1.403 . S
C601 C602 1.524 . S
C601 C605 1.400 . S
C602 H587 0.960 . S
C602 H588 0.960 . S
C602 H589 0.960 . S
C602 C601 1.524 . S
C603 C600 1.403 . S
C603 C604 1.392 . S
C603 C607 1.495 . S
C604 C603 1.392 . S
C604 C605 1.385 . S
C604 C606 1.478 . S
C605 H599 0.930 . S
C605 C601 1.400 . S
C605 C604 1.385 . S
C606 C604 1.478 . S
C606 C608 1.381 . S
C606 C612 1.383 . S
C607 C603 1.495 . S
C607 H613 0.959 . S
C607 H614 0.961 . S
C607 H615 0.960 . S
C608 C606 1.381 . S
C608 C609 1.394 . S
C608 H616 0.930 . S
C609 C608 1.394 . S
C609 C610 1.383 . S
C609 H617 0.929 . S
C610 C609 1.383 . S
C610 C611 1.377 . S
C611 H595 0.930 . S
C611 C610 1.377 . S
C611 C612 1.379 . S
C612 H596 0.931 . S
C612 C606 1.383 . S
C612 C611 1.379 . S
H613 C607 0.959 . S
H614 C607 0.961 . S
H615 C607 0.960 . S
H616 C608 0.930 . S
H617 C609 0.929 . S
H618 C626 0.929 1_655 S
H619 C628 0.930 1_655 S
H620 C630 0.930 . S
H621 C633 0.929 . S
H622 C636 0.930 . S
H623 C638 0.960 . S
H624 C638 0.960 . S
H625 C638 0.960 . S
C626 H618 0.929 1_455 S
C626 C627 1.377 . S
C626 C628 1.384 . S
C627 C626 1.377 . S
C627 C633 1.390 . S
C628 H619 0.930 1_455 S
C628 C626 1.384 . S
C628 C629 1.372 . S
C629 C628 1.372 . S
C629 C630 1.400 . S
C629 C634 1.490 . S
C630 H620 0.930 . S
C630 C629 1.400 . S
C630 C633 1.386 . S
H631 C647 0.930 . S
H632 C648 0.931 . S
C633 H621 0.929 . S
C633 C627 1.390 . S
C633 C630 1.386 . S
C634 C629 1.490 . S
C634 C636 1.395 . S
C634 C637 1.403 . S
H635 C641 0.924 1_556 S
C636 H622 0.930 . S
C636 C634 1.395 . S
C636 C639 1.403 . S
C637 C634 1.403 . S
C637 C638 1.524 . S
C637 C641 1.400 . S
C638 H623 0.960 . S
C638 H624 0.960 . S
C638 H625 0.960 . S
C638 C637 1.524 . S
C639 C636 1.403 . S
C639 C640 1.392 1_554 S
C639 C643 1.495 1_554 S
C640 C639 1.392 1_556 S
C640 C641 1.385 1_556 S
C640 C642 1.478 . S
C641 H635 0.924 1_554 S
C641 C637 1.400 . S
C641 C640 1.385 1_554 S
C642 C640 1.478 . S
C642 C644 1.381 . S
C642 C648 1.383 . S
C643 C639 1.495 1_556 S
C643 H649 0.959 1_556 S
C643 H650 0.961 . S
C643 H651 0.960 1_455 S
C644 C642 1.381 . S
C644 C645 1.394 . S
C644 H652 0.930 . S
C645 C644 1.394 . S
C645 C646 1.383 . S
C645 H653 0.929 . S
C646 C645 1.383 . S
C646 C647 1.377 . S
C647 H631 0.930 . S
C647 C646 1.377 . S
C647 C648 1.379 . S
C648 H632 0.931 . S
C648 C642 1.383 . S
C648 C647 1.379 . S
H649 C643 0.959 1_554 S
H650 C643 0.961 . S
H651 C643 0.960 1_655 S
H652 C644 0.930 . S
H653 C645 0.929 . S
H654 C662 0.929 . S
H655 C664 0.930 . S
H656 C666 0.930 . S
H657 C669 0.929 . S
H658 C672 0.930 . S
H659 C674 0.960 . S
H660 C674 0.960 . S
H661 C674 0.960 . S
C662 H654 0.929 . S
C662 C663 1.377 . S
C662 C664 1.384 . S
C663 C662 1.377 . S
C663 C669 1.390 . S
C664 H655 0.930 . S
C664 C662 1.384 . S
C664 C665 1.372 . S
C665 C664 1.372 . S
C665 C666 1.400 . S
C665 C670 1.490 . S
C666 H656 0.930 . S
C666 C665 1.400 . S
C666 C669 1.386 . S
H667 C683 0.930 . S
H668 C684 0.931 . S
C669 H657 0.929 . S
C669 C663 1.390 . S
C669 C666 1.386 . S
C670 C665 1.490 . S
C670 C672 1.395 . S
C670 C673 1.403 . S
H671 C677 0.930 . S
C672 H658 0.930 . S
C672 C670 1.395 . S
C672 C675 1.403 . S
C673 C670 1.403 . S
C673 C674 1.524 1_545 S
C673 C677 1.400 . S
C674 H659 0.960 . S
C674 H660 0.960 . S
C674 H661 0.960 . S
C674 C673 1.524 1_565 S
C675 C672 1.403 . S
C675 C676 1.392 . S
C675 C679 1.495 . S
C676 C675 1.392 . S
C676 C677 1.385 . S
C676 C678 1.478 . S
C677 H671 0.930 . S
C677 C673 1.400 . S
C677 C676 1.385 . S
C678 C676 1.478 . S
C678 C680 1.381 . S
C678 C684 1.383 . S
C679 C675 1.495 . S
C679 H685 0.959 . S
C679 H686 0.961 . S
C679 H687 0.960 . S
C680 C678 1.381 . S
C680 C681 1.394 . S
C680 H688 0.930 . S
C681 C680 1.394 . S
C681 C682 1.383 . S
C681 H689 0.929 . S
C682 C681 1.383 . S
C682 C683 1.377 . S
C683 H667 0.930 . S
C683 C682 1.377 . S
C683 C684 1.379 . S
C684 H668 0.931 . S
C684 C678 1.383 . S
C684 C683 1.379 . S
H685 C679 0.959 . S
H686 C679 0.961 . S
H687 C679 0.960 . S
H688 C680 0.930 . S
H689 C681 0.929 . S
H690 C698 0.929 . S
H691 C700 0.930 . S
H692 C702 0.930 . S
H693 C705 0.929 . S
H694 C708 0.930 . S
H695 C710 0.960 . S
H696 C710 0.960 . S
H697 C710 0.960 . S
C698 H690 0.929 . S
C698 C699 1.377 . S
C698 C700 1.384 . S
C699 C698 1.377 . S
C699 C705 1.390 . S
C700 H691 0.930 . S
C700 C698 1.384 . S
C700 C701 1.372 . S
C701 C700 1.372 . S
C701 C702 1.400 . S
C701 C706 1.490 . S
C702 H692 0.930 . S
C702 C701 1.400 . S
C702 C705 1.386 . S
H703 C719 0.930 . S
H704 C720 0.931 . S
C705 H693 0.929 . S
C705 C699 1.390 . S
C705 C702 1.386 . S
C706 C701 1.490 . S
C706 C708 1.395 . S
C706 C709 1.403 . S
H707 C713 0.930 . S
C708 H694 0.930 . S
C708 C706 1.395 . S
C708 C711 1.403 . S
C709 C706 1.403 . S
C709 C710 1.524 . S
C709 C713 1.400 . S
C710 H695 0.960 . S
C710 H696 0.960 . S
C710 H697 0.960 . S
C710 C709 1.524 . S
C711 C708 1.403 . S
C711 C712 1.392 . S
C711 C715 1.495 . S
C712 C711 1.392 . S
C712 C713 1.385 . S
C712 C714 1.478 . S
C713 H707 0.930 . S
C713 C709 1.400 . S
C713 C712 1.385 . S
C714 C712 1.478 . S
C714 C716 1.381 . S
C714 C720 1.383 . S
C715 C711 1.495 . S
C715 H721 0.959 . S
C715 H722 0.961 . S
C715 H723 0.960 . S
C716 C714 1.381 . S
C716 C717 1.394 . S
C716 H724 0.930 . S
C717 C716 1.394 . S
C717 C718 1.383 . S
C717 H725 0.929 . S
C718 C717 1.383 . S
C718 C719 1.377 . S
C719 H703 0.930 . S
C719 C718 1.377 . S
C719 C720 1.379 . S
C720 H704 0.931 . S
C720 C714 1.383 . S
C720 C719 1.379 . S
H721 C715 0.959 . S
H722 C715 0.961 . S
H723 C715 0.960 . S
H724 C716 0.930 . S
H725 C717 0.929 . S
H726 C734 0.929 . S
H727 C736 0.930 . S
H728 C738 0.930 . S
H729 C741 0.929 . S
H730 C744 0.930 . S
H731 C746 0.960 . S
H732 C746 0.960 1_565 S
H733 C746 0.960 . S
C734 H726 0.929 . S
C734 C735 1.377 . S
C734 C736 1.384 . S
C735 C734 1.377 . S
C735 C741 1.390 . S
C736 H727 0.930 . S
C736 C734 1.384 . S
C736 C737 1.372 . S
C737 C736 1.372 . S
C737 C738 1.400 . S
C737 C742 1.490 . S
C738 H728 0.930 . S
C738 C737 1.400 . S
C738 C741 1.386 . S
H739 C755 0.930 . S
H740 C756 0.931 . S
C741 H729 0.929 . S
C741 C735 1.390 . S
C741 C738 1.386 . S
C742 C737 1.490 . S
C742 C744 1.395 . S
C742 C745 1.403 . S
H743 C749 0.930 . S
C744 H730 0.930 . S
C744 C742 1.395 . S
C744 C747 1.403 . S
C745 C742 1.403 . S
C745 C746 1.524 . S
C745 C749 1.400 . S
C746 H731 0.960 . S
C746 H732 0.960 1_545 S
C746 H733 0.960 . S
C746 C745 1.524 . S
C747 C744 1.403 . S
C747 C748 1.392 . S
C747 C751 1.495 . S
C748 C747 1.392 . S
C748 C749 1.385 . S
C748 C750 1.478 . S
C749 H743 0.930 . S
C749 C745 1.400 . S
C749 C748 1.385 . S
C750 C748 1.478 . S
C750 C752 1.381 . S
C750 C756 1.383 . S
C751 C747 1.495 . S
C751 H757 0.959 . S
C751 H758 0.961 . S
C751 H759 0.960 . S
C752 C750 1.381 . S
C752 C753 1.394 . S
C752 H760 0.930 1_545 S
C753 C752 1.394 . S
C753 C754 1.383 . S
C753 H761 0.929 1_545 S
C754 C753 1.383 . S
C754 C755 1.377 . S
C755 H739 0.930 . S
C755 C754 1.377 . S
C755 C756 1.379 . S
C756 H740 0.931 . S
C756 C750 1.383 . S
C756 C755 1.379 . S
H757 C751 0.959 . S
H758 C751 0.961 . S
H759 C751 0.960 . S
H760 C752 0.930 1_565 S
H761 C753 0.929 1_565 S
H762 C770 0.929 . S
H763 C772 0.930 . S
H764 C774 0.930 . S
H765 C777 0.929 . S
H766 C780 0.930 . S
H767 C782 0.960 . S
H768 C782 0.960 . S
H769 C782 0.960 . S
C770 H762 0.929 . S
C770 C771 1.377 . S
C770 C772 1.384 . S
C771 C770 1.377 . S
C771 C777 1.390 . S
C772 H763 0.930 . S
C772 C770 1.384 . S
C772 C773 1.372 . S
C773 C772 1.372 . S
C773 C774 1.400 . S
C773 C778 1.490 . S
C774 H764 0.930 . S
C774 C773 1.400 . S
C774 C777 1.386 . S
H775 C791 0.930 . S
H776 C792 0.931 . S
C777 H765 0.929 . S
C777 C771 1.390 . S
C777 C774 1.386 . S
C778 C773 1.490 . S
C778 C780 1.395 . S
C778 C781 1.403 . S
H779 C785 0.930 . S
C780 H766 0.930 . S
C780 C778 1.395 . S
C780 C783 1.403 . S
C781 C778 1.403 . S
C781 C782 1.524 . S
C781 C785 1.400 . S
C782 H767 0.960 . S
C782 H768 0.960 . S
C782 H769 0.960 . S
C782 C781 1.524 . S
C783 C780 1.403 . S
C783 C784 1.392 1_556 S
C783 C787 1.495 1_556 S
C784 C783 1.392 1_554 S
C784 C785 1.385 1_554 S
C784 C786 1.478 . S
C785 H779 0.930 . S
C785 C781 1.400 . S
C785 C784 1.385 1_556 S
C786 C784 1.478 . S
C786 C788 1.381 . S
C786 C792 1.383 . S
C787 C783 1.495 1_554 S
C787 H793 0.959 . S
C787 H794 0.961 . S
C787 H795 0.960 . S
C788 C786 1.381 . S
C788 C789 1.394 . S
C788 H796 0.930 . S
C789 C788 1.394 . S
C789 C790 1.383 . S
C789 H797 0.929 . S
C790 C789 1.383 . S
C790 C791 1.377 . S
C791 H775 0.930 . S
C791 C790 1.377 . S
C791 C792 1.379 . S
C792 H776 0.931 . S
C792 C786 1.383 . S
C792 C791 1.379 . S
H793 C787 0.959 . S
H794 C787 0.961 . S
H795 C787 0.960 . S
H796 C788 0.930 . S
H797 C789 0.929 . S
H798 C806 0.929 . S
H799 C808 0.930 . S
H800 C810 0.930 1_655 S
H801 C813 0.929 1_655 S
H802 C816 0.930 . S
H803 C818 0.960 . S
H804 C818 0.985 . S
H805 C818 0.960 . S
C806 H798 0.929 . S
C806 C807 1.377 . S
C806 C808 1.384 . S
C807 C806 1.377 . S
C807 C813 1.390 . S
C808 H799 0.930 . S
C808 C806 1.384 . S
C808 C809 1.372 . S
C809 C808 1.372 . S
C809 C810 1.400 . S
C809 C814 1.490 . S
C810 H800 0.930 1_455 S
C810 C809 1.400 . S
C810 C813 1.386 . S
H811 C827 0.930 . S
H812 C828 0.931 . S
C813 H801 0.929 1_455 S
C813 C807 1.390 . S
C813 C810 1.386 . S
C814 C809 1.490 . S
C814 C816 1.395 . S
C814 C817 1.403 . S
H815 C821 0.930 1_655 S
C816 H802 0.930 . S
C816 C814 1.395 . S
C816 C819 1.403 . S
C817 C814 1.403 . S
C817 C818 1.524 1_455 S
C817 C821 1.400 . S
C818 H803 0.960 . S
C818 H804 0.985 . S
C818 H805 0.960 . S
C818 C817 1.524 1_655 S
C819 C816 1.403 . S
C819 C820 1.392 . S
C819 C823 1.495 . S
C820 C819 1.392 . S
C820 C821 1.385 . S
C820 C822 1.478 . S
C821 H815 0.930 1_455 S
C821 C817 1.400 . S
C821 C820 1.385 . S
C822 C820 1.478 . S
C822 C824 1.381 . S
C822 C828 1.383 1_455 S
C823 C819 1.495 . S
C823 H829 0.959 . S
C823 H830 0.961 . S
C823 H831 0.960 . S
C824 C822 1.381 . S
C824 C825 1.394 . S
C824 H832 0.930 . S
C825 C824 1.394 . S
C825 C826 1.383 . S
C825 H833 0.929 . S
C826 C825 1.383 . S
C826 C827 1.377 1_455 S
C827 H811 0.930 . S
C827 C826 1.377 1_655 S
C827 C828 1.379 . S
C828 H812 0.931 . S
C828 C822 1.383 1_655 S
C828 C827 1.379 . S
H829 C823 0.959 . S
H830 C823 0.961 . S
H831 C823 0.960 . S
H832 C824 0.930 . S
H833 C825 0.929 . S
C195 C25 0.414 . S
C214 C185 0.474 . S
C231 C65 0.257 . S
C250 C163 0.189 . S
C267 C105 0.289 . S
C286 C174 0.239 . S
C303 C4 0.299 . S
C322 C179 0.161 . S
C358 C157 0.232 . S
C339 C44 0.140 . S
C394 C168 0.216 . S
C375 C84 0.139 . S
C411 C60 2.985 . S
C430 C141 2.918 . S
C447 C100 2.977 . S
C466 C146 2.915 1_655 S
C483 C31 2.937 . S
C502 C124 2.896 1_565 S
C538 C135 2.895 . S
C519 C71 2.931 . S
C574 C152 2.871 . S
C555 C111 2.929 . S
C591 C20 2.983 . S
C610 C130 2.931 . S
C646 C147 1.719 . S
C627 C2 1.699 . S
C663 C42 1.728 . S
C682 C125 1.749 . S
C699 C82 1.724 . S
C718 C136 1.730 . S
C754 C169 1.225 . S
C735 C63 1.211 . S
C790 C180 1.269 . S
C771 C103 1.266 . S
C807 C23 1.183 . S
C826 C158 1.190 . S
