# Generated by pormake.
# Topology dag, (6,3)-cn, num edge types: 1
# Building blocks:
#     Node 0, Type 0, BuildingBlock: IZENUY_clean_sbu_0, # of connection points: 6
#     Node 1, Type 0, BuildingBlock: IZENUY_clean_sbu_0, # of connection points: 6
#     Node 2, Type 0, BuildingBlock: IZENUY_clean_sbu_0, # of connection points: 6
#     Node 3, Type 0, BuildingBlock: IZENUY_clean_sbu_0, # of connection points: 6
#     Node 4, Type 1, BuildingBlock: BELTOD_clean_linker_0, # of connection points: 3
#     Node 5, Type 1, BuildingBlock: BELTOD_clean_linker_0, # of connection points: 3
#     Node 6, Type 1, BuildingBlock: BELTOD_clean_linker_0, # of connection points: 3
#     Node 7, Type 1, BuildingBlock: BELTOD_clean_linker_0, # of connection points: 3
#     Node 8, Type 1, BuildingBlock: BELTOD_clean_linker_0, # of connection points: 3
#     Node 9, Type 1, BuildingBlock: BELTOD_clean_linker_0, # of connection points: 3
#     Node 10, Type 1, BuildingBlock: BELTOD_clean_linker_0, # of connection points: 3
#     Node 11, Type 1, BuildingBlock: BELTOD_clean_linker_0, # of connection points: 3
#     Edge 12, Type (0, 1), BuildingBlock: AJUNOK_clean_linker_0, # of connection points: 2
#     Edge 13, Type (0, 1), BuildingBlock: AJUNOK_clean_linker_0, # of connection points: 2
#     Edge 14, Type (0, 1), BuildingBlock: AJUNOK_clean_linker_0, # of connection points: 2
#     Edge 15, Type (0, 1), BuildingBlock: AJUNOK_clean_linker_0, # of connection points: 2
#     Edge 16, Type (0, 1), BuildingBlock: AJUNOK_clean_linker_0, # of connection points: 2
#     Edge 17, Type (0, 1), BuildingBlock: AJUNOK_clean_linker_0, # of connection points: 2
#     Edge 18, Type (0, 1), BuildingBlock: AJUNOK_clean_linker_0, # of connection points: 2
#     Edge 19, Type (0, 1), BuildingBlock: AJUNOK_clean_linker_0, # of connection points: 2
#     Edge 20, Type (0, 1), BuildingBlock: AJUNOK_clean_linker_0, # of connection points: 2
#     Edge 21, Type (0, 1), BuildingBlock: AJUNOK_clean_linker_0, # of connection points: 2
#     Edge 22, Type (0, 1), BuildingBlock: AJUNOK_clean_linker_0, # of connection points: 2
#     Edge 23, Type (0, 1), BuildingBlock: AJUNOK_clean_linker_0, # of connection points: 2
#     Edge 24, Type (0, 1), BuildingBlock: AJUNOK_clean_linker_0, # of connection points: 2
#     Edge 25, Type (0, 1), BuildingBlock: AJUNOK_clean_linker_0, # of connection points: 2
#     Edge 26, Type (0, 1), BuildingBlock: AJUNOK_clean_linker_0, # of connection points: 2
#     Edge 27, Type (0, 1), BuildingBlock: AJUNOK_clean_linker_0, # of connection points: 2
#     Edge 28, Type (0, 1), BuildingBlock: AJUNOK_clean_linker_0, # of connection points: 2
#     Edge 29, Type (0, 1), BuildingBlock: AJUNOK_clean_linker_0, # of connection points: 2
#     Edge 30, Type (0, 1), BuildingBlock: AJUNOK_clean_linker_0, # of connection points: 2
#     Edge 31, Type (0, 1), BuildingBlock: AJUNOK_clean_linker_0, # of connection points: 2
#     Edge 32, Type (0, 1), BuildingBlock: AJUNOK_clean_linker_0, # of connection points: 2
#     Edge 33, Type (0, 1), BuildingBlock: AJUNOK_clean_linker_0, # of connection points: 2
#     Edge 34, Type (0, 1), BuildingBlock: AJUNOK_clean_linker_0, # of connection points: 2
#     Edge 35, Type (0, 1), BuildingBlock: AJUNOK_clean_linker_0, # of connection points: 2
# Relax obj value: 0.238
# Max RMSD: 0.188
# Mean RMSD: 0.156
data_MOF--net-dag--node1-IZENUY_clean_sbu_0--node2-BELTOD_clean_linker_0--edge1-AJUNOK_clean_linker_0
_symmetry_space_group_name_H-M    P1
_symmetry_Int_Tables_number       1
_symmetry_cell_setting            triclinic
loop_
_symmetry_equiv_pos_as_xyz
'x, y, z'
_cell_length_a     32.995466
_cell_length_b     35.1587
_cell_length_c     29.487202
_cell_angle_alpha  94.922975
_cell_angle_beta   90.312576
_cell_angle_gamma 90.271327
loop_
_atom_site_label
_atom_site_type_symbol
_atom_site_fract_x
_atom_site_fract_y
_atom_site_fract_z
_atom_type_partial_charge
Fe0 Fe 0.19465 0.87611 0.08151 0.0
Fe1 Fe 0.11349 0.89897 0.04004 0.0
O2 O 0.14761 0.8634 0.05486 0.0
Fe3 Fe 0.13399 0.81474 0.04373 0.0
O4 O 0.16203 0.79848 0.09161 0.0
O5 O 0.18235 0.85069 0.13101 0.0
O6 O 0.17551 0.91944 0.11373 0.0
C7 C 0.13967 0.92962 0.12396 0.0
C8 C 0.2133 0.813 0.01811 0.0
O9 O 0.11024 0.91885 0.09854 0.0
C10 C 0.10364 0.84774 0.96632 0.0
O11 O 0.21054 0.90272 0.03446 0.0
O12 O 0.15296 0.93289 0.02717 0.0
O13 O 0.17692 0.80615 0.00625 0.0
O14 O 0.22167 0.83489 0.05352 0.0
C15 C 0.06339 0.8455 0.07771 0.0
O16 O 0.11412 0.88128 0.98028 0.0
O17 O 0.10319 0.82182 0.99349 0.0
C18 C 0.19021 0.92876 0.01832 0.0
O19 O 0.06785 0.8714 0.05088 0.0
O20 O 0.09066 0.82091 0.08138 0.0
C21 C 0.17166 0.81613 0.12916 0.0
Fe22 Fe 0.68988 0.61603 0.46278 0.0
Fe23 Fe 0.62022 0.67069 0.49131 0.0
O24 O 0.64099 0.62419 0.486 0.0
Fe25 Fe 0.61301 0.5851 0.50347 0.0
O26 O 0.65143 0.57567 0.545 0.0
O27 O 0.7014 0.5755 0.49644 0.0
O28 O 0.71287 0.64684 0.50793 0.0
C29 C 0.70276 0.68106 0.51839 0.0
C30 C 0.64747 0.5562 0.42131 0.0
O31 O 0.6692 0.69415 0.50539 0.0
C32 C 0.55428 0.62274 0.46 0.0
O33 O 0.68788 0.65484 0.42534 0.0
O34 O 0.62566 0.67615 0.43109 0.0
O35 O 0.63444 0.55034 0.46038 0.0
O36 O 0.66886 0.58524 0.41595 0.0
C37 C 0.59303 0.64453 0.57037 0.0
O38 O 0.56784 0.65448 0.4779 0.0
O39 O 0.57341 0.59221 0.46313 0.0
C40 C 0.65843 0.67249 0.40959 0.0
O41 O 0.61304 0.66957 0.55212 0.0
O42 O 0.58573 0.61251 0.54905 0.0
C43 C 0.6872 0.56661 0.53403 0.0
Fe44 Fe 0.87296 0.20854 0.02308 0.0
Fe45 Fe 0.89868 0.12522 0.02161 0.0
O46 O 0.86123 0.1594 0.01267 0.0
Fe47 Fe 0.81221 0.14473 0.99366 0.0
O48 O 0.80516 0.1856 0.95925 0.0
O49 O 0.86386 0.21587 0.964 0.0
O50 O 0.92705 0.20328 0.0088 0.0
C51 C 0.9457 0.17759 0.98449 0.0
C52 C 0.79179 0.20439 0.05329 0.0
O53 O 0.93185 0.14397 0.98002 0.0
C54 C 0.83213 0.09298 0.05853 0.0
O55 O 0.88294 0.2033 0.08304 0.0
O56 O 0.92323 0.15404 0.06878 0.0
O57 O 0.78891 0.16904 0.04327 0.0
O58 O 0.82104 0.22319 0.03868 0.0
C59 C 0.85803 0.09343 0.94215 0.0
O60 O 0.86807 0.10481 0.06391 0.0
O61 O 0.81116 0.10136 0.02466 0.0
C62 C 0.90967 0.18087 0.0958 0.0
O63 O 0.8806 0.09008 0.9764 0.0
O64 O 0.83172 0.11921 0.94271 0.0
C65 C 0.8313 0.20721 0.94289 0.0
Fe66 Fe 0.39393 0.39055 0.55002 0.0
Fe67 Fe 0.31254 0.36915 0.58974 0.0
O68 O 0.35907 0.35518 0.56384 0.0
Fe69 Fe 0.37069 0.30623 0.55185 0.0
O70 O 0.41645 0.31019 0.58628 0.0
O71 O 0.43916 0.36208 0.55843 0.0
O72 O 0.39873 0.40847 0.60926 0.0
C73 C 0.36928 0.42043 0.63336 0.0
C74 C 0.39816 0.34059 0.4738 0.0
O75 O 0.33314 0.41286 0.62079 0.0
C76 C 0.29033 0.30538 0.52911 0.0
O77 O 0.35512 0.42586 0.53885 0.0
O78 O 0.29762 0.39456 0.54129 0.0
O79 O 0.39865 0.31325 0.49925 0.0
O80 O 0.39112 0.37427 0.49017 0.0
C81 C 0.33409 0.30993 0.63901 0.0
O82 O 0.28344 0.32795 0.564 0.0
O83 O 0.32609 0.29849 0.51643 0.0
C84 C 0.3182 0.42157 0.52753 0.0
O85 O 0.32487 0.34472 0.63935 0.0
O86 O 0.3446 0.29098 0.60243 0.0
C87 C 0.44459 0.33374 0.58129 0.0
P88 P 0.05811 0.13164 0.38503 0.0
H89 H 0.04051 0.0496 0.37075 0.0
H90 H 0.06259 0.00027 0.31242 0.0
H91 H 0.141 0.08237 0.25555 0.0
H92 H 0.11918 0.13135 0.31411 0.0
H93 H 0.05833 0.21104 0.42414 0.0
H94 H 0.1124 0.25333 0.45646 0.0
H95 H 0.19741 0.16031 0.43869 0.0
H96 H 0.14359 0.11844 0.40595 0.0
H97 H 0.97501 0.11795 0.35433 0.0
H98 H 0.07143 0.19733 0.33196 0.0
O99 O 0.03093 0.11379 0.42586 0.0
H100 H 0.93767 0.13966 0.28954 0.0
H101 H 0.03339 0.22042 0.2688 0.0
C102 C 0.07907 0.09382 0.34747 0.0
C103 C 0.06324 0.0567 0.34647 0.0
C104 C 0.07563 0.02865 0.31297 0.0
C105 C 0.10391 0.03739 0.27985 0.0
C106 C 0.12 0.07455 0.28131 0.0
C107 C 0.10751 0.10255 0.31471 0.0
C108 C 0.09733 0.16208 0.41099 0.0
C109 C 0.0887 0.19988 0.42689 0.0
C110 C 0.1195 0.22393 0.44549 0.0
C111 C 0.15927 0.21032 0.44892 0.0
C112 C 0.16732 0.17188 0.43501 0.0
C113 C 0.13653 0.14791 0.41642 0.0
C114 C 0.02563 0.1565 0.34856 0.0
C115 C 0.98727 0.14128 0.33687 0.0
C116 C 0.96595 0.15372 0.29987 0.0
C117 C 0.9829 0.18141 0.2739 0.0
C118 C 0.01989 0.19868 0.28793 0.0
C119 C 0.04142 0.18584 0.32446 0.0
P120 P 0.4442 0.64359 0.8702 0.0
H121 H 0.53089 0.65518 0.85424 0.0
H122 H 0.56731 0.66407 0.78387 0.0
H123 H 0.45374 0.683 0.71627 0.0
H124 H 0.41742 0.67365 0.78652 0.0
H125 H 0.37611 0.62944 0.92927 0.0
H126 H 0.32176 0.67028 0.96201 0.0
H127 H 0.3699 0.76505 0.89508 0.0
H128 H 0.4242 0.72439 0.86279 0.0
H129 H 0.48908 0.57827 0.83237 0.0
H130 H 0.36355 0.61117 0.84282 0.0
O131 O 0.47559 0.63577 0.91292 0.0
H132 H 0.47061 0.52397 0.77981 0.0
H133 H 0.3442 0.55443 0.7942 0.0
C134 C 0.47149 0.66429 0.82572 0.0
C135 C 0.51395 0.66294 0.8249 0.0
C136 C 0.53478 0.66805 0.78467 0.0
C137 C 0.51326 0.67422 0.74476 0.0
C138 C 0.47097 0.67837 0.74668 0.0
C139 C 0.45025 0.67332 0.78684 0.0
C140 C 0.40348 0.67351 0.8925 0.0
C141 C 0.37466 0.6589 0.92124 0.0
C142 C 0.3437 0.68219 0.9399 0.0
C143 C 0.34168 0.72075 0.93097 0.0
C144 C 0.37092 0.73547 0.90268 0.0
C145 C 0.40173 0.71209 0.88383 0.0
C146 C 0.42774 0.59842 0.84253 0.0
C147 C 0.45727 0.57275 0.82511 0.0
C148 C 0.44654 0.54132 0.79523 0.0
C149 C 0.40571 0.53411 0.78319 0.0
C150 C 0.37595 0.55907 0.80249 0.0
C151 C 0.38693 0.59131 0.83114 0.0
P152 P 0.80233 0.88362 0.26836 0.0
H153 H 0.77216 0.96149 0.28787 0.0
H154 H 0.76785 0.01396 0.23888 0.0
H155 H 0.78758 0.93473 0.12102 0.0
H156 H 0.78999 0.88211 0.16995 0.0
H157 H 0.82118 0.8102 0.29896 0.0
H158 H 0.77973 0.75675 0.31797 0.0
H159 H 0.67262 0.81332 0.27304 0.0
H160 H 0.71491 0.86763 0.25418 0.0
H161 H 0.88235 0.91857 0.27611 0.0
H162 H 0.82667 0.82006 0.20321 0.0
O163 O 0.81067 0.90458 0.32054 0.0
H164 H 0.94512 0.90596 0.23366 0.0
H165 H 0.88945 0.80728 0.16093 0.0
C166 C 0.78236 0.91806 0.23259 0.0
C167 C 0.77399 0.95514 0.25136 0.0
C168 C 0.77192 0.98518 0.22337 0.0
C169 C 0.77893 0.97856 0.17639 0.0
C170 C 0.78245 0.94074 0.15717 0.0
C171 C 0.78392 0.91062 0.18515 0.0
C172 C 0.77123 0.84236 0.27413 0.0
C173 C 0.78896 0.81068 0.29177 0.0
C174 C 0.76519 0.77995 0.30233 0.0
C175 C 0.72299 0.78036 0.29587 0.0
C176 C 0.70516 0.81204 0.27765 0.0
C177 C 0.72922 0.84295 0.26683 0.0
C178 C 0.85028 0.86967 0.24371 0.0
C179 C 0.88403 0.89359 0.252 0.0
C180 C 0.91972 0.88651 0.22761 0.0
C181 C 0.92209 0.85544 0.19447 0.0
C182 C 0.8886 0.8309 0.18703 0.0
C183 C 0.8528 0.83818 0.21123 0.0
P184 P 0.75157 0.30623 0.63211 0.0
H185 H 0.77623 0.34633 0.55429 0.0
H186 H 0.77022 0.41303 0.53891 0.0
H187 H 0.73688 0.44255 0.67892 0.0
H188 H 0.74183 0.37536 0.69378 0.0
H189 H 0.73315 0.23869 0.67756 0.0
H190 H 0.75389 0.21683 0.75052 0.0
H191 H 0.82897 0.31746 0.77654 0.0
H192 H 0.80935 0.33841 0.70246 0.0
H193 H 0.69565 0.28015 0.55817 0.0
H194 H 0.68846 0.32324 0.69933 0.0
O195 O 0.77306 0.27915 0.5897 0.0
H196 H 0.62155 0.28284 0.55187 0.0
H197 H 0.61457 0.32627 0.69299 0.0
C198 C 0.76032 0.35594 0.6254 0.0
C199 C 0.76923 0.3673 0.58218 0.0
C200 C 0.76593 0.40558 0.57345 0.0
C201 C 0.75346 0.43316 0.60785 0.0
C202 C 0.74672 0.42196 0.65182 0.0
C203 C 0.74986 0.3836 0.66043 0.0
C204 C 0.76898 0.29055 0.68518 0.0
C205 C 0.75421 0.25598 0.6989 0.0
C206 C 0.76593 0.24361 0.74063 0.0
C207 C 0.79286 0.26554 0.7693 0.0
C208 C 0.80847 0.29979 0.75493 0.0
C209 C 0.79691 0.31201 0.71286 0.0
C210 C 0.69741 0.30102 0.62935 0.0
C211 C 0.67811 0.28927 0.58804 0.0
C212 C 0.63589 0.29082 0.58447 0.0
C213 C 0.61264 0.30485 0.62195 0.0
C214 C 0.63197 0.31546 0.66364 0.0
C215 C 0.67408 0.31359 0.66728 0.0
P216 P 0.53764 0.35543 0.17256 0.0
H217 H 0.52447 0.43852 0.18731 0.0
H218 H 0.5536 0.48724 0.24312 0.0
H219 H 0.62954 0.40149 0.29617 0.0
H220 H 0.60023 0.35324 0.24131 0.0
H221 H 0.54819 0.27223 0.14975 0.0
H222 H 0.60686 0.2349 0.12097 0.0
H223 H 0.67608 0.33936 0.11724 0.0
H224 H 0.61709 0.37599 0.14205 0.0
H225 H 0.45174 0.36613 0.18987 0.0
H226 H 0.54921 0.29971 0.23989 0.0
O227 O 0.51253 0.37384 0.13039 0.0
H228 H 0.41189 0.35549 0.25716 0.0
H229 H 0.50979 0.28962 0.30772 0.0
C230 C 0.56067 0.3925 0.20985 0.0
C231 C 0.54782 0.43046 0.21053 0.0
C232 C 0.56458 0.4582 0.24216 0.0
C233 C 0.59406 0.44802 0.27348 0.0
C234 C 0.60693 0.41001 0.2723 0.0
C235 C 0.59024 0.3825 0.24092 0.0
C236 C 0.57871 0.32674 0.14919 0.0
C237 C 0.57602 0.28688 0.14244 0.0
C238 C 0.60973 0.26563 0.12657 0.0
C239 C 0.64656 0.28408 0.1178 0.0
C240 C 0.64834 0.32412 0.12349 0.0
C241 C 0.6146 0.34516 0.13814 0.0
C242 C 0.50324 0.33325 0.20945 0.0
C243 C 0.46385 0.34772 0.21421 0.0
C244 C 0.44123 0.34198 0.25295 0.0
C245 C 0.45782 0.32192 0.28778 0.0
C246 C 0.49594 0.30469 0.28116 0.0
C247 C 0.51851 0.3104 0.24226 0.0
P248 P 0.25663 0.19322 0.9391 0.0
H249 H 0.27591 0.15015 0.01613 0.0
H250 H 0.26967 0.08223 0.02617 0.0
H251 H 0.25009 0.0585 0.88158 0.0
H252 H 0.25524 0.12678 0.8719 0.0
H253 H 0.22859 0.25581 0.88938 0.0
H254 H 0.25041 0.28114 0.81903 0.0
H255 H 0.34573 0.19722 0.80541 0.0
H256 H 0.32324 0.17144 0.87598 0.0
H257 H 0.20168 0.22065 0.01256 0.0
H258 H 0.19235 0.172 0.87357 0.0
O259 O 0.2784 0.21928 0.98262 0.0
H260 H 0.12768 0.22018 0.01857 0.0
H261 H 0.11832 0.17173 0.87928 0.0
C262 C 0.26658 0.14347 0.94321 0.0
C263 C 0.27185 0.13025 0.98632 0.0
C264 C 0.26829 0.09137 0.99203 0.0
C265 C 0.25891 0.06519 0.95472 0.0
C266 C 0.25685 0.07817 0.91099 0.0
C267 C 0.2602 0.11713 0.90536 0.0
C268 C 0.27346 0.21098 0.88702 0.0
C269 C 0.25388 0.24251 0.87106 0.0
C270 C 0.26656 0.25716 0.83105 0.0
C271 C 0.29943 0.24082 0.80653 0.0
C272 C 0.31975 0.20977 0.82317 0.0
C273 C 0.30698 0.19511 0.86342 0.0
C274 C 0.20237 0.19703 0.94237 0.0
C275 C 0.1837 0.21061 0.98308 0.0
C276 C 0.14144 0.21045 0.98641 0.0
C277 C 0.11732 0.19642 0.94914 0.0
C278 C 0.13621 0.18286 0.9084 0.0
C279 C 0.17841 0.18315 0.90509 0.0
P280 P 0.28033 0.59653 0.28594 0.0
H281 H 0.2642 0.5151 0.28495 0.0
H282 H 0.26093 0.47514 0.34833 0.0
H283 H 0.246 0.57551 0.44156 0.0
H284 H 0.24959 0.61563 0.37781 0.0
H285 H 0.31079 0.66216 0.24517 0.0
H286 H 0.27931 0.72029 0.22354 0.0
H287 H 0.16724 0.6881 0.28551 0.0
H288 H 0.19902 0.62881 0.30613 0.0
H289 H 0.35726 0.5564 0.2728 0.0
H290 H 0.3118 0.65566 0.35234 0.0
O291 O 0.28352 0.5713 0.23552 0.0
H292 H 0.42251 0.5641 0.31267 0.0
H293 H 0.37664 0.66307 0.39272 0.0
C294 C 0.25708 0.56835 0.32665 0.0
C295 C 0.25806 0.52849 0.31864 0.0
C296 C 0.25628 0.50559 0.35496 0.0
C297 C 0.25401 0.52238 0.39979 0.0
C298 C 0.2482 0.56199 0.40724 0.0
C299 C 0.24988 0.58489 0.37081 0.0
C300 C 0.25725 0.6414 0.27735 0.0
C301 C 0.27966 0.66791 0.25494 0.0
C302 C 0.26173 0.70134 0.24296 0.0
C303 C 0.2208 0.70874 0.25277 0.0
C304 C 0.19877 0.6829 0.27719 0.0
C305 C 0.21685 0.64915 0.28907 0.0
C306 C 0.33013 0.60592 0.30898 0.0
C307 C 0.36161 0.58027 0.29814 0.0
C308 C 0.39862 0.58445 0.32121 0.0
C309 C 0.4043 0.614 0.35596 0.0
C310 C 0.37306 0.64026 0.36584 0.0
C311 C 0.33611 0.63606 0.34273 0.0
P312 P 0.84931 0.82807 0.78146 0.0
H313 H 0.79762 0.87327 0.84524 0.0
H314 H 0.79849 0.94097 0.87148 0.0
H315 H 0.88668 0.96202 0.76893 0.0
H316 H 0.88476 0.89419 0.74148 0.0
H317 H 0.8638 0.75417 0.73439 0.0
H318 H 0.83457 0.72265 0.66499 0.0
H319 H 0.78138 0.82943 0.63339 0.0
H320 H 0.80912 0.86036 0.7043 0.0
H321 H 0.88385 0.7978 0.86181 0.0
H322 H 0.92771 0.84107 0.73846 0.0
O323 O 0.81809 0.80531 0.81449 0.0
H324 H 0.95285 0.79805 0.89187 0.0
H325 H 0.99699 0.84332 0.7699 0.0
C326 C 0.8416 0.87859 0.79184 0.0
C327 C 0.81623 0.89248 0.82736 0.0
C328 C 0.81668 0.93117 0.84233 0.0
C329 C 0.84298 0.95634 0.82243 0.0
C330 C 0.86641 0.94292 0.78491 0.0
C331 C 0.86541 0.90424 0.76942 0.0
C332 C 0.83897 0.80958 0.72415 0.0
C333 C 0.84702 0.77108 0.71171 0.0
C334 C 0.83046 0.75314 0.67182 0.0
C335 C 0.80588 0.77364 0.64349 0.0
C336 C 0.80013 0.81293 0.65465 0.0
C337 C 0.81626 0.83072 0.69497 0.0
C338 C 0.90067 0.81944 0.79793 0.0
C339 C 0.90838 0.8065 0.8407 0.0
C340 C 0.94778 0.8067 0.85791 0.0
C341 C 0.9799 0.82064 0.833 0.0
C342 C 0.97253 0.83233 0.78945 0.0
C343 C 0.93308 0.83117 0.7717 0.0
C344 C 0.09173 0.96388 0.1787 0.0
C345 C 0.13195 0.95638 0.16483 0.0
C346 C 0.0831 0.98942 0.21646 0.0
C347 C 0.11427 0.00869 0.24185 0.0
H348 H 0.0665 0.95006 0.16016 0.0
H349 H 0.05167 0.99476 0.22521 0.0
S350 S 0.22465 0.99806 0.2219 0.0
N351 N 0.20339 0.96959 0.18098 0.0
N352 N 0.18689 0.01751 0.25204 0.0
C353 C 0.15459 0.0011 0.22906 0.0
C354 C 0.16349 0.97493 0.19065 0.0
C355 C 0.5381 0.63393 0.6254 0.0
C356 C 0.57339 0.6539 0.61488 0.0
C357 C 0.51851 0.64165 0.66699 0.0
C358 C 0.53357 0.66938 0.70003 0.0
H359 H 0.52528 0.61213 0.60123 0.0
H360 H 0.49177 0.62507 0.67376 0.0
S361 S 0.62493 0.72972 0.68972 0.0
N362 N 0.62256 0.70292 0.64091 0.0
N363 N 0.5857 0.71707 0.71976 0.0
C364 C 0.56878 0.68967 0.69019 0.0
C365 C 0.58861 0.68211 0.6474 0.0
C366 C 0.78489 0.04019 0.07664 0.0
C367 C 0.81595 0.06635 0.09039 0.0
C368 C 0.77187 0.01262 0.1052 0.0
C369 C 0.78897 0.01068 0.14876 0.0
H370 H 0.77151 0.04012 0.043 0.0
H371 H 0.74881 0.99222 0.0928 0.0
S372 S 0.86951 0.07419 0.20195 0.0
N373 N 0.86183 0.08989 0.15149 0.0
N374 N 0.83791 0.03794 0.20463 0.0
C375 C 0.81903 0.03756 0.16347 0.0
C376 C 0.83238 0.06541 0.13443 0.0
C377 C 0.50174 0.28869 0.59096 0.0
C378 C 0.48596 0.32587 0.59682 0.0
C379 C 0.54274 0.28181 0.60002 0.0
C380 C 0.56883 0.31173 0.61623 0.0
H381 H 0.48277 0.26512 0.57743 0.0
H382 H 0.55428 0.25305 0.59369 0.0
S383 S 0.54139 0.4136 0.64025 0.0
N384 N 0.49891 0.39252 0.62165 0.0
N385 N 0.57568 0.37948 0.63952 0.0
C386 C 0.55294 0.3487 0.62398 0.0
C387 C 0.51153 0.35579 0.61404 0.0
C388 C 0.6211 0.49264 0.39082 0.0
C389 C 0.63723 0.52846 0.38238 0.0
C390 C 0.60756 0.46688 0.35527 0.0
C391 C 0.60937 0.47596 0.30986 0.0
H392 H 0.61838 0.48447 0.42528 0.0
H393 H 0.59482 0.43987 0.36349 0.0
S394 S 0.64976 0.56532 0.26895 0.0
N395 N 0.65484 0.57139 0.32485 0.0
N396 N 0.62941 0.52249 0.25783 0.0
C397 C 0.62582 0.51135 0.30063 0.0
C398 C 0.63988 0.53765 0.33693 0.0
C399 C 0.01133 0.15429 0.95012 0.0
C400 C 0.98801 0.18469 0.97011 0.0
C401 C 0.05283 0.15872 0.94207 0.0
C402 C 0.07269 0.19368 0.95373 0.0
H403 H 0.99786 0.12636 0.94199 0.0
H404 H 0.06981 0.13413 0.92823 0.0
S405 S 0.02504 0.2836 0.00118 0.0
N406 N 0.98758 0.25218 0.99728 0.0
N407 N 0.06559 0.26018 0.98205 0.0
C408 C 0.04955 0.22482 0.97152 0.0
C409 C 0.00723 0.22044 0.9796 0.0
C410 C 0.2637 0.43982 0.47398 0.0
C411 C 0.29898 0.44965 0.49955 0.0
C412 C 0.24782 0.4643 0.44321 0.0
C413 C 0.26622 0.49974 0.43765 0.0
H414 H 0.24925 0.41232 0.47624 0.0
H415 H 0.22173 0.455 0.42264 0.0
S416 S 0.35776 0.53998 0.4981 0.0
N417 N 0.35057 0.4983 0.51869 0.0
N418 N 0.32084 0.54392 0.46087 0.0
C419 C 0.30046 0.51059 0.46433 0.0
C420 C 0.31681 0.48565 0.49527 0.0
C421 C 0.06272 0.87111 0.90263 0.0
C422 C 0.0813 0.84064 0.92269 0.0
C423 C 0.03221 0.86428 0.86959 0.0
C424 C 0.01957 0.82686 0.85561 0.0
H425 H 0.06926 0.9004 0.91509 0.0
H426 H 0.01612 0.8884 0.8578 0.0
S427 S 0.06466 0.7374 0.88963 0.0
N428 N 0.08977 0.77165 0.91982 0.0
N429 N 0.03178 0.7592 0.85847 0.0
C430 C 0.04073 0.79629 0.87168 0.0
C431 C 0.07191 0.8031 0.90497 0.0
C432 C 0.82015 0.05295 0.88236 0.0
C433 C 0.85695 0.06239 0.90512 0.0
C434 C 0.81633 0.01952 0.85321 0.0
C435 C 0.8494 0.99495 0.84508 0.0
H436 H 0.7934 0.07021 0.88919 0.0
H437 H 0.78694 0.01198 0.83843 0.0
S438 S 0.95342 0.00897 0.89188 0.0
N439 N 0.92793 0.0462 0.91438 0.0
N440 N 0.92078 0.98353 0.85905 0.0
C441 C 0.88702 0.00536 0.86505 0.0
C442 C 0.89079 0.03907 0.89524 0.0
C443 C 0.41457 0.36543 0.39898 0.0
C444 C 0.41042 0.33404 0.42526 0.0
C445 C 0.42847 0.36084 0.35413 0.0
C446 C 0.43879 0.32467 0.33346 0.0
H447 H 0.40795 0.3941 0.41337 0.0
H448 H 0.43253 0.38612 0.33602 0.0
S449 S 0.42961 0.23261 0.38515 0.0
N450 N 0.41503 0.26488 0.42571 0.0
N451 N 0.44132 0.25655 0.34118 0.0
C452 C 0.43352 0.29282 0.35851 0.0
C453 C 0.41921 0.29741 0.40435 0.0
C454 C 0.25038 0.97062 0.00718 0.0
C455 C 0.21075 0.95882 0.99475 0.0
C456 C 0.26702 0.00402 0.99185 0.0
C457 C 0.24485 0.02627 0.96303 0.0
H458 H 0.26766 0.95537 0.0311 0.0
H459 H 0.29674 0.01338 0.00414 0.0
S460 S 0.1416 0.00503 0.91668 0.0
N461 N 0.15132 0.96985 0.94868 0.0
N462 N 0.18233 0.03257 0.92024 0.0
C463 C 0.20629 0.01326 0.94799 0.0
C464 C 0.18932 0.97953 0.96377 0.0
C465 C 0.49966 0.65289 0.41622 0.0
C466 C 0.51479 0.62076 0.43597 0.0
C467 C 0.46375 0.65062 0.39046 0.0
C468 C 0.44184 0.61617 0.38363 0.0
H469 H 0.51616 0.6797 0.41973 0.0
H470 H 0.45343 0.67577 0.37508 0.0
S471 S 0.46571 0.52516 0.43256 0.0
N472 N 0.50319 0.55422 0.44982 0.0
N473 N 0.43566 0.55031 0.40182 0.0
C474 C 0.45583 0.58426 0.40445 0.0
C475 C 0.49232 0.58647 0.43053 0.0
C476 C 0.35629 0.48249 0.67805 0.0
C477 C 0.37711 0.4477 0.67317 0.0
C478 C 0.36523 0.50985 0.71416 0.0
C479 C 0.39464 0.50306 0.74743 0.0
H480 H 0.33399 0.48917 0.65285 0.0
H481 H 0.34977 0.53699 0.71508 0.0
S482 S 0.45362 0.41363 0.75235 0.0
N483 N 0.42636 0.40648 0.70524 0.0
N484 N 0.44156 0.45669 0.77491 0.0
C485 C 0.41427 0.46736 0.74379 0.0
C486 C 0.40588 0.43999 0.70626 0.0
C487 C 0.00366 0.87954 0.11216 0.0
C488 C 0.0264 0.8457 0.10593 0.0
C489 C 0.97022 0.88228 0.14103 0.0
C490 C 0.95786 0.85122 0.16456 0.0
H491 H 0.01218 0.90458 0.09535 0.0
H492 H 0.95374 0.90895 0.14481 0.0
S493 S 0.00603 0.75598 0.1598 0.0
N494 N 0.03365 0.78018 0.12548 0.0
N495 N 0.97022 0.78544 0.17971 0.0
C496 C 0.9797 0.817 0.15831 0.0
C497 C 0.01416 0.81424 0.1291 0.0
C498 C 0.68646 0.51777 0.5909 0.0
C499 C 0.70819 0.53755 0.55921 0.0
C500 C 0.70254 0.4854 0.6087 0.0
C501 C 0.74112 0.47163 0.59587 0.0
H502 H 0.65578 0.5259 0.60016 0.0
H503 H 0.68348 0.46975 0.63052 0.0
S504 S 0.81365 0.51723 0.52138 0.0
N505 N 0.77271 0.54402 0.52083 0.0
N506 N 0.803 0.48324 0.55485 0.0
C507 C 0.76453 0.49285 0.56725 0.0
C508 C 0.74811 0.52583 0.54891 0.0
C509 C 0.90566 0.19443 0.18032 0.0
C510 C 0.9291 0.18766 0.14084 0.0
C511 C 0.92345 0.19403 0.22369 0.0
C512 C 0.96527 0.18751 0.22875 0.0
H513 H 0.87315 0.19795 0.17765 0.0
H514 H 0.90425 0.1977 0.25341 0.0
S515 S 0.03994 0.17109 0.13541 0.0
N516 N 0.99631 0.17669 0.10926 0.0
N517 N 0.02967 0.17562 0.19032 0.0
C518 C 0.98917 0.18254 0.18934 0.0
C519 C 0.97108 0.1827 0.14548 0.0
C520 C 0.2083 0.80243 0.20047 0.0
C521 C 0.1771 0.79353 0.16867 0.0
C522 C 0.22002 0.77607 0.23113 0.0
C523 C 0.2007 0.74022 0.2311 0.0
H524 H 0.22577 0.8285 0.19944 0.0
H525 H 0.24609 0.78273 0.25292 0.0
S526 S 0.11243 0.70654 0.15993 0.0
N527 N 0.12316 0.74912 0.14353 0.0
N528 N 0.14561 0.69943 0.20036 0.0
C529 C 0.16688 0.73276 0.20253 0.0
C530 C 0.15501 0.75949 0.17143 0.0
C531 C 0.71473 0.73723 0.57416 0.0
C532 C 0.7306 0.70659 0.54614 0.0
C533 C 0.73973 0.75984 0.60404 0.0
C534 C 0.78163 0.75295 0.60667 0.0
H535 H 0.68247 0.74285 0.57447 0.0
H536 H 0.72572 0.78178 0.62671 0.0
S537 S 0.83896 0.67956 0.53587 0.0
N538 N 0.79127 0.67253 0.51988 0.0
N539 N 0.8385 0.71582 0.57536 0.0
C540 C 0.79822 0.72369 0.57706 0.0
C541 C 0.77266 0.70033 0.54697 0.0
C542 C 0.74336 0.25818 0.05359 0.0
C543 C 0.75595 0.22472 0.07218 0.0
C544 C 0.70753 0.27643 0.06784 0.0
C545 C 0.68325 0.26246 0.10198 0.0
H546 H 0.76069 0.26975 0.02681 0.0
H547 H 0.69864 0.3016 0.05157 0.0
S548 S 0.70467 0.17669 0.16323 0.0
N549 N 0.74219 0.17832 0.12659 0.0
N550 N 0.67568 0.21378 0.15539 0.0
C551 C 0.69592 0.22919 0.12132 0.0
C552 C 0.7321 0.21011 0.106 0.0
C553 C 0.32551 0.31313 0.7232 0.0
C554 C 0.3287 0.29075 0.68143 0.0
C555 C 0.31742 0.29653 0.76361 0.0
C556 C 0.3122 0.25688 0.764 0.0
H557 H 0.32878 0.3439 0.72474 0.0
H558 H 0.31464 0.31499 0.7948 0.0
S559 S 0.31854 0.18524 0.66445 0.0
N560 N 0.32719 0.22649 0.64331 0.0
N561 N 0.31156 0.1954 0.71956 0.0
C562 C 0.31652 0.23393 0.7229 0.0
C563 C 0.32486 0.25084 0.68156 0.0
C564 C 0.65145 0.73395 0.374 0.0
C565 C 0.66626 0.69639 0.37184 0.0
C566 C 0.6673 0.7605 0.34586 0.0
C567 C 0.6981 0.75014 0.31443 0.0
H568 H 0.63011 0.74383 0.40016 0.0
H569 H 0.65781 0.78997 0.35151 0.0
S570 S 0.73951 0.65293 0.28809 0.0
N571 N 0.70821 0.64855 0.33086 0.0
N572 N 0.73701 0.6981 0.27688 0.0
C573 C 0.70955 0.71157 0.3084 0.0
C574 C 0.69389 0.68476 0.33745 0.0
C575 C 0.78211 0.22598 0.88428 0.0
C576 C 0.8224 0.22411 0.89971 0.0
C577 C 0.77292 0.24012 0.84253 0.0
C578 C 0.80365 0.25269 0.8144 0.0
H579 H 0.75738 0.2164 0.90455 0.0
H580 H 0.74143 0.24111 0.83212 0.0
S581 S 0.91414 0.25262 0.83828 0.0
N582 N 0.89342 0.23573 0.88333 0.0
N583 N 0.87604 0.26171 0.80438 0.0
C584 C 0.84405 0.25126 0.82947 0.0
C585 C 0.85345 0.23708 0.8722 0.0
C586 C 0.21872 0.2812 0.52815 0.0
C587 C 0.25654 0.28299 0.50645 0.0
C588 C 0.18721 0.25813 0.50899 0.0
C589 C 0.1923 0.23598 0.46743 0.0
H590 H 0.21362 0.29701 0.56077 0.0
H591 H 0.15899 0.2569 0.52742 0.0
S592 S 0.28353 0.23361 0.39428 0.0
N593 N 0.29604 0.26264 0.4392 0.0
N594 N 0.23667 0.21954 0.40329 0.0
C595 C 0.22936 0.23846 0.44457 0.0
C596 C 0.26147 0.26192 0.46402 0.0
C597 C 0.23757 0.75675 0.96768 0.0
C598 C 0.24634 0.79114 0.99411 0.0
C599 C 0.26854 0.73427 0.94721 0.0
C600 C 0.30939 0.74558 0.95179 0.0
H601 H 0.20661 0.74658 0.96357 0.0
H602 H 0.26048 0.7078 0.92764 0.0
S603 S 0.34864 0.83359 0.01583 0.0
N604 N 0.29905 0.83583 0.02256 0.0
N605 N 0.35709 0.7935 0.98399 0.0
C606 C 0.31859 0.7802 0.97723 0.0
C607 C 0.28713 0.80296 0.99842 0.0
loop_
_geom_bond_atom_site_label_1
_geom_bond_atom_site_label_2
_geom_bond_distance
_geom_bond_site_symmetry_2
_ccdc_geom_bond_type
Fe0 O2 1.918 . S
Fe0 O5 1.997 . S
Fe0 O6 2.002 . S
Fe0 O11 1.976 . S
Fe0 O14 1.996 . S
Fe1 O2 1.918 . S
Fe1 O9 1.997 . S
Fe1 O12 1.996 . S
Fe1 O16 1.976 1_554 S
Fe1 O19 2.002 . S
O2 Fe0 1.918 . S
O2 Fe1 1.918 . S
O2 Fe3 1.918 . S
Fe3 O2 1.918 . S
Fe3 O4 2.002 . S
Fe3 O13 1.976 . S
Fe3 O17 1.996 1_554 S
Fe3 O20 1.997 . S
O4 Fe3 2.002 . S
O4 C21 1.295 . S
O5 Fe0 1.997 . S
O5 C21 1.235 . S
O6 Fe0 2.002 . S
O6 C7 1.295 . S
C7 O6 1.295 . S
C7 O9 1.235 . S
C8 O13 1.287 . S
C8 O14 1.255 . S
O9 Fe1 1.997 . S
O9 C7 1.235 . S
C10 O16 1.287 . S
C10 O17 1.255 . S
O11 Fe0 1.976 . S
O11 C18 1.287 . S
O12 Fe1 1.996 . S
O12 C18 1.255 . S
O13 Fe3 1.976 . S
O13 C8 1.287 . S
O14 Fe0 1.996 . S
O14 C8 1.255 . S
C15 O19 1.295 . S
C15 O20 1.235 . S
O16 Fe1 1.976 1_556 S
O16 C10 1.287 . S
O17 Fe3 1.996 1_556 S
O17 C10 1.255 . S
C18 O11 1.287 . S
C18 O12 1.255 . S
O19 Fe1 2.002 . S
O19 C15 1.295 . S
O20 Fe3 1.997 . S
O20 C15 1.235 . S
C21 O4 1.295 . S
C21 O5 1.235 . S
Fe22 O24 1.918 . S
Fe22 O27 1.997 . S
Fe22 O28 2.002 . S
Fe22 O33 1.976 . S
Fe22 O36 1.996 . S
Fe23 O24 1.918 . S
Fe23 O31 1.997 . S
Fe23 O34 1.996 . S
Fe23 O38 1.976 . S
Fe23 O41 2.002 . S
O24 Fe22 1.918 . S
O24 Fe23 1.918 . S
O24 Fe25 1.918 . S
Fe25 O24 1.918 . S
Fe25 O26 2.002 . S
Fe25 O35 1.976 . S
Fe25 O39 1.996 . S
Fe25 O42 1.997 . S
O26 Fe25 2.002 . S
O26 C43 1.295 . S
O27 Fe22 1.997 . S
O27 C43 1.235 . S
O28 Fe22 2.002 . S
O28 C29 1.295 . S
C29 O28 1.295 . S
C29 O31 1.235 . S
C30 O35 1.287 . S
C30 O36 1.255 . S
O31 Fe23 1.997 . S
O31 C29 1.235 . S
C32 O38 1.287 . S
C32 O39 1.255 . S
O33 Fe22 1.976 . S
O33 C40 1.287 . S
O34 Fe23 1.996 . S
O34 C40 1.255 . S
O35 Fe25 1.976 . S
O35 C30 1.287 . S
O36 Fe22 1.996 . S
O36 C30 1.255 . S
C37 O41 1.295 . S
C37 O42 1.235 . S
O38 Fe23 1.976 . S
O38 C32 1.287 . S
O39 Fe25 1.996 . S
O39 C32 1.255 . S
C40 O33 1.287 . S
C40 O34 1.255 . S
O41 Fe23 2.002 . S
O41 C37 1.295 . S
O42 Fe25 1.997 . S
O42 C37 1.235 . S
C43 O26 1.295 . S
C43 O27 1.235 . S
Fe44 O46 1.918 . S
Fe44 O49 1.997 1_554 S
Fe44 O50 2.002 1_554 S
Fe44 O55 1.976 . S
Fe44 O58 1.996 . S
Fe45 O46 1.918 . S
Fe45 O53 1.997 1_554 S
Fe45 O56 1.996 . S
Fe45 O60 1.976 . S
Fe45 O63 2.002 1_554 S
O46 Fe44 1.918 . S
O46 Fe45 1.918 . S
O46 Fe47 1.918 1_554 S
Fe47 O46 1.918 1_556 S
Fe47 O48 2.002 . S
Fe47 O57 1.976 1_556 S
Fe47 O61 1.996 1_556 S
Fe47 O64 1.997 . S
O48 Fe47 2.002 . S
O48 C65 1.295 . S
O49 Fe44 1.997 1_556 S
O49 C65 1.235 . S
O50 Fe44 2.002 1_556 S
O50 C51 1.295 . S
C51 O50 1.295 . S
C51 O53 1.235 . S
C52 O57 1.287 . S
C52 O58 1.255 . S
O53 Fe45 1.997 1_556 S
O53 C51 1.235 . S
C54 O60 1.287 . S
C54 O61 1.255 . S
O55 Fe44 1.976 . S
O55 C62 1.287 . S
O56 Fe45 1.996 . S
O56 C62 1.255 . S
O57 Fe47 1.976 1_554 S
O57 C52 1.287 . S
O58 Fe44 1.996 . S
O58 C52 1.255 . S
C59 O63 1.295 . S
C59 O64 1.235 . S
O60 Fe45 1.976 . S
O60 C54 1.287 . S
O61 Fe47 1.996 1_554 S
O61 C54 1.255 . S
C62 O55 1.287 . S
C62 O56 1.255 . S
O63 Fe45 2.002 1_556 S
O63 C59 1.295 . S
O64 Fe47 1.997 . S
O64 C59 1.235 . S
C65 O48 1.295 . S
C65 O49 1.235 . S
Fe66 O68 1.918 . S
Fe66 O71 1.997 . S
Fe66 O72 2.002 . S
Fe66 O77 1.976 . S
Fe66 O80 1.996 . S
Fe67 O68 1.918 . S
Fe67 O75 1.997 . S
Fe67 O78 1.996 . S
Fe67 O82 1.976 . S
Fe67 O85 2.002 . S
O68 Fe66 1.918 . S
O68 Fe67 1.918 . S
O68 Fe69 1.918 . S
Fe69 O68 1.918 . S
Fe69 O70 2.002 . S
Fe69 O79 1.976 . S
Fe69 O83 1.996 . S
Fe69 O86 1.997 . S
O70 Fe69 2.002 . S
O70 C87 1.295 . S
O71 Fe66 1.997 . S
O71 C87 1.235 . S
O72 Fe66 2.002 . S
O72 C73 1.295 . S
C73 O72 1.295 . S
C73 O75 1.235 . S
C74 O79 1.287 . S
C74 O80 1.255 . S
O75 Fe67 1.997 . S
O75 C73 1.235 . S
C76 O82 1.287 . S
C76 O83 1.255 . S
O77 Fe66 1.976 . S
O77 C84 1.287 . S
O78 Fe67 1.996 . S
O78 C84 1.255 . S
O79 Fe69 1.976 . S
O79 C74 1.287 . S
O80 Fe66 1.996 . S
O80 C74 1.255 . S
C81 O85 1.295 . S
C81 O86 1.235 . S
O82 Fe67 1.976 . S
O82 C76 1.287 . S
O83 Fe69 1.996 . S
O83 C76 1.255 . S
C84 O77 1.287 . S
C84 O78 1.255 . S
O85 Fe67 2.002 . S
O85 C81 1.295 . S
O86 Fe69 1.997 . S
O86 C81 1.235 . S
C87 O70 1.295 . S
C87 O71 1.235 . S
P88 O99 1.490 . S
P88 C102 1.812 . S
P88 C108 1.803 . S
P88 C114 1.819 . S
H89 C103 0.941 . S
H90 C104 0.939 1_565 S
H91 C106 0.940 . S
H92 C107 0.940 . S
H93 C109 0.939 . S
H94 C110 0.942 . S
H95 C112 0.940 . S
H96 C113 0.939 . S
H97 C115 0.941 . S
H98 C119 0.939 . S
O99 P88 1.490 . S
H100 C116 0.939 . S
H101 C118 0.940 . S
C102 P88 1.812 . S
C102 C103 1.389 . S
C102 C107 1.391 . S
C103 H89 0.941 . S
C103 C102 1.389 . S
C103 C104 1.397 . S
C104 H90 0.939 1_545 S
C104 C103 1.397 . S
C104 C105 1.378 . S
C105 C104 1.378 . S
C105 C106 1.378 . S
C106 H91 0.940 . S
C106 C105 1.378 . S
C106 C107 1.396 . S
C107 H92 0.940 . S
C107 C102 1.391 . S
C107 C106 1.396 . S
C108 P88 1.803 . S
C108 C109 1.378 . S
C108 C113 1.400 . S
C109 H93 0.939 . S
C109 C108 1.378 . S
C109 C110 1.361 . S
C110 H94 0.942 . S
C110 C109 1.361 . S
C110 C111 1.369 . S
C111 C110 1.369 . S
C111 C112 1.404 . S
C112 H95 0.940 . S
C112 C111 1.404 . S
C112 C113 1.389 . S
C113 H96 0.939 . S
C113 C108 1.400 . S
C113 C112 1.389 . S
C114 P88 1.819 . S
C114 C115 1.391 1_455 S
C114 C119 1.391 . S
C115 H97 0.941 . S
C115 C114 1.391 1_655 S
C115 C116 1.396 . S
C116 H100 0.939 . S
C116 C115 1.396 . S
C116 C117 1.397 . S
C117 C116 1.397 . S
C117 C118 1.385 1_655 S
C118 H101 0.940 . S
C118 C117 1.385 1_455 S
C118 C119 1.388 . S
C119 H98 0.939 . S
C119 C114 1.391 . S
C119 C118 1.388 . S
P120 O131 1.490 . S
P120 C134 1.812 . S
P120 C140 1.803 . S
P120 C146 1.819 . S
H121 C135 0.941 . S
H122 C136 0.939 . S
H123 C138 0.940 . S
H124 C139 0.940 . S
H125 C141 0.939 . S
H126 C142 0.942 1_554 S
H127 C144 0.940 . S
H128 C145 0.939 . S
H129 C147 0.941 . S
H130 C151 0.939 . S
O131 P120 1.490 . S
H132 C148 0.939 . S
H133 C150 0.940 . S
C134 P120 1.812 . S
C134 C135 1.389 . S
C134 C139 1.391 . S
C135 H121 0.941 . S
C135 C134 1.389 . S
C135 C136 1.397 . S
C136 H122 0.939 . S
C136 C135 1.397 . S
C136 C137 1.378 . S
C137 C136 1.378 . S
C137 C138 1.378 . S
C138 H123 0.940 . S
C138 C137 1.378 . S
C138 C139 1.396 . S
C139 H124 0.940 . S
C139 C134 1.391 . S
C139 C138 1.396 . S
C140 P120 1.803 . S
C140 C141 1.378 . S
C140 C145 1.400 . S
C141 H125 0.939 . S
C141 C140 1.378 . S
C141 C142 1.361 . S
C142 H126 0.942 1_556 S
C142 C141 1.361 . S
C142 C143 1.369 . S
C143 C142 1.369 . S
C143 C144 1.404 . S
C144 H127 0.940 . S
C144 C143 1.404 . S
C144 C145 1.389 . S
C145 H128 0.939 . S
C145 C140 1.400 . S
C145 C144 1.389 . S
C146 P120 1.819 . S
C146 C147 1.391 . S
C146 C151 1.391 . S
C147 H129 0.941 . S
C147 C146 1.391 . S
C147 C148 1.396 . S
C148 H132 0.939 . S
C148 C147 1.396 . S
C148 C149 1.397 . S
C149 C148 1.397 . S
C149 C150 1.385 . S
C150 H133 0.940 . S
C150 C149 1.385 . S
C150 C151 1.388 . S
C151 H130 0.939 . S
C151 C146 1.391 . S
C151 C150 1.388 . S
P152 O163 1.490 . S
P152 C166 1.812 . S
P152 C172 1.803 . S
P152 C178 1.819 . S
H153 C167 0.941 . S
H154 C168 0.939 . S
H155 C170 0.940 . S
H156 C171 0.940 . S
H157 C173 0.939 . S
H158 C174 0.942 . S
H159 C176 0.940 . S
H160 C177 0.939 . S
H161 C179 0.941 . S
H162 C183 0.939 . S
O163 P152 1.490 . S
H164 C180 0.939 . S
H165 C182 0.940 . S
C166 P152 1.812 . S
C166 C167 1.389 . S
C166 C171 1.391 . S
C167 H153 0.941 . S
C167 C166 1.389 . S
C167 C168 1.397 . S
C168 H154 0.939 . S
C168 C167 1.397 . S
C168 C169 1.378 . S
C169 C168 1.378 . S
C169 C170 1.378 . S
C170 H155 0.940 . S
C170 C169 1.378 . S
C170 C171 1.396 . S
C171 H156 0.940 . S
C171 C166 1.391 . S
C171 C170 1.396 . S
C172 P152 1.803 . S
C172 C173 1.378 . S
C172 C177 1.400 . S
C173 H157 0.939 . S
C173 C172 1.378 . S
C173 C174 1.361 . S
C174 H158 0.942 . S
C174 C173 1.361 . S
C174 C175 1.369 . S
C175 C174 1.369 . S
C175 C176 1.404 . S
C176 H159 0.940 . S
C176 C175 1.404 . S
C176 C177 1.389 . S
C177 H160 0.939 . S
C177 C172 1.400 . S
C177 C176 1.389 . S
C178 P152 1.819 . S
C178 C179 1.391 . S
C178 C183 1.391 . S
C179 H161 0.941 . S
C179 C178 1.391 . S
C179 C180 1.396 . S
C180 H164 0.939 . S
C180 C179 1.396 . S
C180 C181 1.397 . S
C181 C180 1.397 . S
C181 C182 1.385 . S
C182 H165 0.940 . S
C182 C181 1.385 . S
C182 C183 1.388 . S
C183 H162 0.939 . S
C183 C178 1.391 . S
C183 C182 1.388 . S
P184 O195 1.490 . S
P184 C198 1.812 . S
P184 C204 1.803 . S
P184 C210 1.819 . S
H185 C199 0.941 . S
H186 C200 0.939 . S
H187 C202 0.940 . S
H188 C203 0.940 . S
H189 C205 0.939 . S
H190 C206 0.942 . S
H191 C208 0.940 . S
H192 C209 0.939 . S
H193 C211 0.941 . S
H194 C215 0.939 . S
O195 P184 1.490 . S
H196 C212 0.939 . S
H197 C214 0.940 . S
C198 P184 1.812 . S
C198 C199 1.389 . S
C198 C203 1.391 . S
C199 H185 0.941 . S
C199 C198 1.389 . S
C199 C200 1.397 . S
C200 H186 0.939 . S
C200 C199 1.397 . S
C200 C201 1.378 . S
C201 C200 1.378 . S
C201 C202 1.378 . S
C202 H187 0.940 . S
C202 C201 1.378 . S
C202 C203 1.396 . S
C203 H188 0.940 . S
C203 C198 1.391 . S
C203 C202 1.396 . S
C204 P184 1.803 . S
C204 C205 1.378 . S
C204 C209 1.400 . S
C205 H189 0.939 . S
C205 C204 1.378 . S
C205 C206 1.361 . S
C206 H190 0.942 . S
C206 C205 1.361 . S
C206 C207 1.369 . S
C207 C206 1.369 . S
C207 C208 1.404 . S
C208 H191 0.940 . S
C208 C207 1.404 . S
C208 C209 1.389 . S
C209 H192 0.939 . S
C209 C204 1.400 . S
C209 C208 1.389 . S
C210 P184 1.819 . S
C210 C211 1.391 . S
C210 C215 1.391 . S
C211 H193 0.941 . S
C211 C210 1.391 . S
C211 C212 1.396 . S
C212 H196 0.939 . S
C212 C211 1.396 . S
C212 C213 1.397 . S
C213 C212 1.397 . S
C213 C214 1.385 . S
C214 H197 0.940 . S
C214 C213 1.385 . S
C214 C215 1.388 . S
C215 H194 0.939 . S
C215 C210 1.391 . S
C215 C214 1.388 . S
P216 O227 1.490 . S
P216 C230 1.812 . S
P216 C236 1.803 . S
P216 C242 1.819 . S
H217 C231 0.941 . S
H218 C232 0.939 . S
H219 C234 0.940 . S
H220 C235 0.940 . S
H221 C237 0.939 . S
H222 C238 0.942 . S
H223 C240 0.940 . S
H224 C241 0.939 . S
H225 C243 0.941 . S
H226 C247 0.939 . S
O227 P216 1.490 . S
H228 C244 0.939 . S
H229 C246 0.940 . S
C230 P216 1.812 . S
C230 C231 1.389 . S
C230 C235 1.391 . S
C231 H217 0.941 . S
C231 C230 1.389 . S
C231 C232 1.397 . S
C232 H218 0.939 . S
C232 C231 1.397 . S
C232 C233 1.378 . S
C233 C232 1.378 . S
C233 C234 1.378 . S
C234 H219 0.940 . S
C234 C233 1.378 . S
C234 C235 1.396 . S
C235 H220 0.940 . S
C235 C230 1.391 . S
C235 C234 1.396 . S
C236 P216 1.803 . S
C236 C237 1.378 . S
C236 C241 1.400 . S
C237 H221 0.939 . S
C237 C236 1.378 . S
C237 C238 1.361 . S
C238 H222 0.942 . S
C238 C237 1.361 . S
C238 C239 1.369 . S
C239 C238 1.369 . S
C239 C240 1.404 . S
C240 H223 0.940 . S
C240 C239 1.404 . S
C240 C241 1.389 . S
C241 H224 0.939 . S
C241 C236 1.400 . S
C241 C240 1.389 . S
C242 P216 1.819 . S
C242 C243 1.391 . S
C242 C247 1.391 . S
C243 H225 0.941 . S
C243 C242 1.391 . S
C243 C244 1.396 . S
C244 H228 0.939 . S
C244 C243 1.396 . S
C244 C245 1.397 . S
C245 C244 1.397 . S
C245 C246 1.385 . S
C246 H229 0.940 . S
C246 C245 1.385 . S
C246 C247 1.388 . S
C247 H226 0.939 . S
C247 C242 1.391 . S
C247 C246 1.388 . S
P248 O259 1.490 1_556 S
P248 C262 1.812 . S
P248 C268 1.803 . S
P248 C274 1.819 . S
H249 C263 0.941 1_554 S
H250 C264 0.939 1_554 S
H251 C266 0.940 . S
H252 C267 0.940 . S
H253 C269 0.939 . S
H254 C270 0.942 . S
H255 C272 0.940 . S
H256 C273 0.939 . S
H257 C275 0.941 . S
H258 C279 0.939 . S
O259 P248 1.490 1_554 S
H260 C276 0.939 . S
H261 C278 0.940 . S
C262 P248 1.812 . S
C262 C263 1.389 . S
C262 C267 1.391 . S
C263 H249 0.941 1_556 S
C263 C262 1.389 . S
C263 C264 1.397 . S
C264 H250 0.939 1_556 S
C264 C263 1.397 . S
C264 C265 1.378 . S
C265 C264 1.378 . S
C265 C266 1.378 . S
C266 H251 0.940 . S
C266 C265 1.378 . S
C266 C267 1.396 . S
C267 H252 0.940 . S
C267 C262 1.391 . S
C267 C266 1.396 . S
C268 P248 1.803 . S
C268 C269 1.378 . S
C268 C273 1.400 . S
C269 H253 0.939 . S
C269 C268 1.378 . S
C269 C270 1.361 . S
C270 H254 0.942 . S
C270 C269 1.361 . S
C270 C271 1.369 . S
C271 C270 1.369 . S
C271 C272 1.404 . S
C272 H255 0.940 . S
C272 C271 1.404 . S
C272 C273 1.389 . S
C273 H256 0.939 . S
C273 C268 1.400 . S
C273 C272 1.389 . S
C274 P248 1.819 . S
C274 C275 1.391 1_556 S
C274 C279 1.391 . S
C275 H257 0.941 . S
C275 C274 1.391 1_554 S
C275 C276 1.396 . S
C276 H260 0.939 . S
C276 C275 1.396 . S
C276 C277 1.397 1_554 S
C277 C276 1.397 1_556 S
C277 C278 1.385 . S
C278 H261 0.940 . S
C278 C277 1.385 . S
C278 C279 1.388 . S
C279 H258 0.939 . S
C279 C274 1.391 . S
C279 C278 1.388 . S
P280 O291 1.490 . S
P280 C294 1.812 . S
P280 C300 1.803 . S
P280 C306 1.819 . S
H281 C295 0.941 . S
H282 C296 0.939 . S
H283 C298 0.940 . S
H284 C299 0.940 . S
H285 C301 0.939 . S
H286 C302 0.942 . S
H287 C304 0.940 . S
H288 C305 0.939 . S
H289 C307 0.941 . S
H290 C311 0.939 . S
O291 P280 1.490 . S
H292 C308 0.939 . S
H293 C310 0.940 . S
C294 P280 1.812 . S
C294 C295 1.389 . S
C294 C299 1.391 . S
C295 H281 0.941 . S
C295 C294 1.389 . S
C295 C296 1.397 . S
C296 H282 0.939 . S
C296 C295 1.397 . S
C296 C297 1.378 . S
C297 C296 1.378 . S
C297 C298 1.378 . S
C298 H283 0.940 . S
C298 C297 1.378 . S
C298 C299 1.396 . S
C299 H284 0.940 . S
C299 C294 1.391 . S
C299 C298 1.396 . S
C300 P280 1.803 . S
C300 C301 1.378 . S
C300 C305 1.400 . S
C301 H285 0.939 . S
C301 C300 1.378 . S
C301 C302 1.361 . S
C302 H286 0.942 . S
C302 C301 1.361 . S
C302 C303 1.369 . S
C303 C302 1.369 . S
C303 C304 1.404 . S
C304 H287 0.940 . S
C304 C303 1.404 . S
C304 C305 1.389 . S
C305 H288 0.939 . S
C305 C300 1.400 . S
C305 C304 1.389 . S
C306 P280 1.819 . S
C306 C307 1.391 . S
C306 C311 1.391 . S
C307 H289 0.941 . S
C307 C306 1.391 . S
C307 C308 1.396 . S
C308 H292 0.939 . S
C308 C307 1.396 . S
C308 C309 1.397 . S
C309 C308 1.397 . S
C309 C310 1.385 . S
C310 H293 0.940 . S
C310 C309 1.385 . S
C310 C311 1.388 . S
C311 H290 0.939 . S
C311 C306 1.391 . S
C311 C310 1.388 . S
P312 O323 1.490 . S
P312 C326 1.812 . S
P312 C332 1.803 . S
P312 C338 1.819 . S
H313 C327 0.941 . S
H314 C328 0.939 . S
H315 C330 0.940 . S
H316 C331 0.940 . S
H317 C333 0.939 . S
H318 C334 0.942 . S
H319 C336 0.940 . S
H320 C337 0.939 . S
H321 C339 0.941 . S
H322 C343 0.939 . S
O323 P312 1.490 . S
H324 C340 0.939 1_455 S
H325 C342 0.940 . S
C326 P312 1.812 . S
C326 C327 1.389 . S
C326 C331 1.391 . S
C327 H313 0.941 . S
C327 C326 1.389 . S
C327 C328 1.397 . S
C328 H314 0.939 . S
C328 C327 1.397 . S
C328 C329 1.378 . S
C329 C328 1.378 . S
C329 C330 1.378 . S
C330 H315 0.940 . S
C330 C329 1.378 . S
C330 C331 1.396 . S
C331 H316 0.940 . S
C331 C326 1.391 . S
C331 C330 1.396 . S
C332 P312 1.803 . S
C332 C333 1.378 . S
C332 C337 1.400 . S
C333 H317 0.939 . S
C333 C332 1.378 . S
C333 C334 1.361 . S
C334 H318 0.942 . S
C334 C333 1.361 . S
C334 C335 1.369 . S
C335 C334 1.369 . S
C335 C336 1.404 . S
C336 H319 0.940 . S
C336 C335 1.404 . S
C336 C337 1.389 . S
C337 H320 0.939 . S
C337 C332 1.400 . S
C337 C336 1.389 . S
C338 P312 1.819 . S
C338 C339 1.391 . S
C338 C343 1.391 . S
C339 H321 0.941 . S
C339 C338 1.391 . S
C339 C340 1.396 . S
C340 H324 0.939 1_655 S
C340 C339 1.396 . S
C340 C341 1.397 1_655 S
C341 C340 1.397 1_455 S
C341 C342 1.385 . S
C342 H325 0.940 . S
C342 C341 1.385 . S
C342 C343 1.388 1_455 S
C343 H322 0.939 . S
C343 C338 1.391 . S
C343 C342 1.388 1_655 S
C344 C345 1.369 . S
C344 C346 1.419 . S
C344 H348 0.930 . S
C345 C344 1.369 . S
C345 C354 1.429 . S
C346 C344 1.419 . S
C346 C347 1.363 . S
C346 H349 0.929 . S
C347 C346 1.363 . S
C347 C353 1.428 . S
H348 C344 0.930 . S
H349 C346 0.929 . S
S350 N351 1.613 1_545 S
S350 N352 1.610 . S
N351 S350 1.613 1_565 S
N351 C354 1.350 . S
N352 S350 1.610 . S
N352 C353 1.351 1_545 S
C353 C347 1.428 . S
C353 N352 1.351 1_565 S
C353 C354 1.434 . S
C354 C345 1.429 . S
C354 N351 1.350 . S
C354 C353 1.434 . S
C355 C356 1.369 . S
C355 C357 1.419 . S
C355 H359 0.930 . S
C356 C355 1.369 . S
C356 C365 1.429 . S
C357 C355 1.419 . S
C357 C358 1.363 . S
C357 H360 0.929 . S
C358 C357 1.363 . S
C358 C364 1.428 . S
H359 C355 0.930 . S
H360 C357 0.929 . S
S361 N362 1.613 . S
S361 N363 1.610 . S
N362 S361 1.613 . S
N362 C365 1.350 . S
N363 S361 1.610 . S
N363 C364 1.351 . S
C364 C358 1.428 . S
C364 N363 1.351 . S
C364 C365 1.434 . S
C365 C356 1.429 . S
C365 N362 1.350 . S
C365 C364 1.434 . S
C366 C367 1.369 . S
C366 C368 1.419 . S
C366 H370 0.930 . S
C367 C366 1.369 . S
C367 C376 1.429 . S
C368 C366 1.419 . S
C368 C369 1.363 1_545 S
C368 H371 0.929 . S
C369 C368 1.363 1_565 S
C369 C375 1.428 . S
H370 C366 0.930 . S
H371 C368 0.929 . S
S372 N373 1.613 1_565 S
S372 N374 1.610 . S
N373 S372 1.613 1_545 S
N373 C376 1.350 . S
N374 S372 1.610 . S
N374 C375 1.351 . S
C375 C369 1.428 . S
C375 N374 1.351 . S
C375 C376 1.434 1_565 S
C376 C367 1.429 . S
C376 N373 1.350 . S
C376 C375 1.434 1_545 S
C377 C378 1.369 . S
C377 C379 1.419 . S
C377 H381 0.930 . S
C378 C377 1.369 . S
C378 C387 1.429 . S
C379 C377 1.419 . S
C379 C380 1.363 . S
C379 H382 0.929 . S
C380 C379 1.363 . S
C380 C386 1.428 . S
H381 C377 0.930 . S
H382 C379 0.929 . S
S383 N384 1.613 . S
S383 N385 1.610 . S
N384 S383 1.613 . S
N384 C387 1.350 . S
N385 S383 1.610 . S
N385 C386 1.351 . S
C386 C380 1.428 . S
C386 N385 1.351 . S
C386 C387 1.434 . S
C387 C378 1.429 . S
C387 N384 1.350 . S
C387 C386 1.434 . S
C388 C389 1.369 . S
C388 C390 1.419 . S
C388 H392 0.930 . S
C389 C388 1.369 . S
C389 C398 1.429 . S
C390 C388 1.419 . S
C390 C391 1.363 . S
C390 H393 0.929 . S
C391 C390 1.363 . S
C391 C397 1.428 . S
H392 C388 0.930 . S
H393 C390 0.929 . S
S394 N395 1.613 . S
S394 N396 1.610 . S
N395 S394 1.613 . S
N395 C398 1.350 . S
N396 S394 1.610 . S
N396 C397 1.351 . S
C397 C391 1.428 . S
C397 N396 1.351 . S
C397 C398 1.434 . S
C398 C389 1.429 . S
C398 N395 1.350 . S
C398 C397 1.434 . S
C399 C400 1.369 1_455 S
C399 C401 1.419 . S
C399 H403 0.930 1_556 S
C400 C399 1.369 1_655 S
C400 C409 1.429 1_655 S
C401 C399 1.419 . S
C401 C402 1.363 . S
C401 H404 0.929 1_556 S
C402 C401 1.363 . S
C402 C408 1.428 . S
H403 C399 0.930 1_554 S
H404 C401 0.929 1_554 S
S405 N406 1.613 1_455 S
S405 N407 1.610 . S
N406 S405 1.613 1_655 S
N406 C409 1.350 1_655 S
N407 S405 1.610 . S
N407 C408 1.351 . S
C408 C402 1.428 . S
C408 N407 1.351 . S
C408 C409 1.434 . S
C409 C400 1.429 1_455 S
C409 N406 1.350 1_455 S
C409 C408 1.434 . S
C410 C411 1.369 . S
C410 C412 1.419 . S
C410 H414 0.930 . S
C411 C410 1.369 . S
C411 C420 1.429 . S
C412 C410 1.419 . S
C412 C413 1.363 . S
C412 H415 0.929 . S
C413 C412 1.363 . S
C413 C419 1.428 . S
H414 C410 0.930 . S
H415 C412 0.929 . S
S416 N417 1.613 . S
S416 N418 1.610 . S
N417 S416 1.613 . S
N417 C420 1.350 . S
N418 S416 1.610 . S
N418 C419 1.351 . S
C419 C413 1.428 . S
C419 N418 1.351 . S
C419 C420 1.434 . S
C420 C411 1.429 . S
C420 N417 1.350 . S
C420 C419 1.434 . S
C421 C422 1.369 . S
C421 C423 1.419 . S
C421 H425 0.930 . S
C422 C421 1.369 . S
C422 C431 1.429 . S
C423 C421 1.419 . S
C423 C424 1.363 . S
C423 H426 0.929 . S
C424 C423 1.363 . S
C424 C430 1.428 . S
H425 C421 0.930 . S
H426 C423 0.929 . S
S427 N428 1.613 1_655 S
S427 N429 1.609 1_655 S
N428 S427 1.613 1_455 S
N428 C431 1.350 . S
N429 S427 1.609 1_455 S
N429 C430 1.357 . S
C430 C424 1.428 . S
C430 N429 1.357 . S
C430 C431 1.434 . S
C431 C422 1.429 . S
C431 N428 1.350 . S
C431 C430 1.434 . S
C432 C433 1.369 . S
C432 C434 1.419 . S
C432 H436 0.930 . S
C433 C432 1.369 . S
C433 C442 1.429 . S
C434 C432 1.419 . S
C434 C435 1.363 . S
C434 H437 0.929 . S
C435 C434 1.363 . S
C435 C441 1.428 . S
H436 C432 0.930 . S
H437 C434 0.929 . S
S438 N439 1.613 1_565 S
S438 N440 1.610 . S
N439 S438 1.613 1_545 S
N439 C442 1.350 . S
N440 S438 1.610 . S
N440 C441 1.351 1_565 S
C441 C435 1.428 . S
C441 N440 1.351 1_545 S
C441 C442 1.434 . S
C442 C433 1.429 . S
C442 N439 1.350 . S
C442 C441 1.434 . S
C443 C444 1.369 . S
C443 C445 1.419 . S
C443 H447 0.930 . S
C444 C443 1.369 . S
C444 C453 1.429 . S
C445 C443 1.419 . S
C445 C446 1.363 . S
C445 H448 0.929 . S
C446 C445 1.363 . S
C446 C452 1.428 . S
H447 C443 0.930 . S
H448 C445 0.929 . S
S449 N450 1.613 . S
S449 N451 1.610 . S
N450 S449 1.613 . S
N450 C453 1.350 . S
N451 S449 1.610 . S
N451 C452 1.351 . S
C452 C446 1.428 . S
C452 N451 1.351 . S
C452 C453 1.434 . S
C453 C444 1.429 . S
C453 N450 1.350 . S
C453 C452 1.434 . S
C454 C455 1.370 . S
C454 C456 1.419 1_554 S
C454 H458 0.930 . S
C455 C454 1.370 . S
C455 C464 1.426 1_554 S
C456 C454 1.419 1_556 S
C456 C457 1.363 1_565 S
C456 H459 0.929 . S
C457 C456 1.363 1_545 S
C457 C463 1.428 . S
H458 C454 0.930 . S
H459 C456 0.929 . S
S460 N461 1.613 1_545 S
S460 N462 1.610 . S
N461 S460 1.613 1_565 S
N461 C464 1.350 . S
N462 S460 1.610 . S
N462 C463 1.351 . S
C463 C457 1.428 . S
C463 N462 1.351 . S
C463 C464 1.434 1_545 S
C464 C455 1.426 1_556 S
C464 N461 1.350 . S
C464 C463 1.434 1_565 S
C465 C466 1.369 . S
C465 C467 1.419 . S
C465 H469 0.930 . S
C466 C465 1.369 . S
C466 C475 1.429 . S
C467 C465 1.419 . S
C467 C468 1.363 . S
C467 H470 0.929 . S
C468 C467 1.363 . S
C468 C474 1.428 . S
H469 C465 0.930 . S
H470 C467 0.929 . S
S471 N472 1.613 . S
S471 N473 1.610 . S
N472 S471 1.613 . S
N472 C475 1.350 . S
N473 S471 1.610 . S
N473 C474 1.351 . S
C474 C468 1.428 . S
C474 N473 1.351 . S
C474 C475 1.434 . S
C475 C466 1.429 . S
C475 N472 1.350 . S
C475 C474 1.434 . S
C476 C477 1.369 . S
C476 C478 1.419 . S
C476 H480 0.930 . S
C477 C476 1.369 . S
C477 C486 1.429 . S
C478 C476 1.419 . S
C478 C479 1.363 . S
C478 H481 0.929 . S
C479 C478 1.363 . S
C479 C485 1.428 . S
H480 C476 0.930 . S
H481 C478 0.929 . S
S482 N483 1.613 . S
S482 N484 1.610 . S
N483 S482 1.613 . S
N483 C486 1.350 . S
N484 S482 1.610 . S
N484 C485 1.351 . S
C485 C479 1.428 . S
C485 N484 1.351 . S
C485 C486 1.434 . S
C486 C477 1.429 . S
C486 N483 1.350 . S
C486 C485 1.434 . S
C487 C488 1.369 1_655 S
C487 C489 1.419 . S
C487 H491 0.930 1_655 S
C488 C487 1.369 1_455 S
C488 C497 1.429 1_455 S
C489 C487 1.419 . S
C489 C490 1.363 . S
C489 H492 0.929 . S
C490 C489 1.363 . S
C490 C496 1.428 . S
H491 C487 0.930 1_455 S
H492 C489 0.929 . S
S493 N494 1.613 1_655 S
S493 N495 1.610 . S
N494 S493 1.613 1_455 S
N494 C497 1.350 1_455 S
N495 S493 1.610 . S
N495 C496 1.351 . S
C496 C490 1.428 . S
C496 N495 1.351 . S
C496 C497 1.434 . S
C497 C488 1.429 1_655 S
C497 N494 1.350 1_655 S
C497 C496 1.434 . S
C498 C499 1.369 . S
C498 C500 1.419 . S
C498 H502 0.930 . S
C499 C498 1.369 . S
C499 C508 1.429 . S
C500 C498 1.419 . S
C500 C501 1.363 . S
C500 H503 0.929 . S
C501 C500 1.363 . S
C501 C507 1.428 . S
H502 C498 0.930 . S
H503 C500 0.929 . S
S504 N505 1.613 . S
S504 N506 1.610 . S
N505 S504 1.613 . S
N505 C508 1.350 . S
N506 S504 1.610 . S
N506 C507 1.351 . S
C507 C501 1.428 . S
C507 N506 1.351 . S
C507 C508 1.434 . S
C508 C499 1.429 . S
C508 N505 1.350 . S
C508 C507 1.434 . S
C509 C510 1.369 . S
C509 C511 1.419 . S
C509 H513 0.930 . S
C510 C509 1.369 . S
C510 C519 1.429 . S
C511 C509 1.419 . S
C511 C512 1.363 . S
C511 H514 0.929 . S
C512 C511 1.363 . S
C512 C518 1.428 . S
H513 C509 0.930 . S
H514 C511 0.929 . S
S515 N516 1.613 1_455 S
S515 N517 1.610 . S
N516 S515 1.613 1_655 S
N516 C519 1.350 . S
N517 S515 1.610 . S
N517 C518 1.351 1_455 S
C518 C512 1.428 . S
C518 N517 1.351 1_655 S
C518 C519 1.434 . S
C519 C510 1.429 . S
C519 N516 1.350 . S
C519 C518 1.434 . S
C520 C521 1.369 . S
C520 C522 1.419 . S
C520 H524 0.930 . S
C521 C520 1.369 . S
C521 C530 1.429 . S
C522 C520 1.419 . S
C522 C523 1.363 . S
C522 H525 0.929 . S
C523 C522 1.363 . S
C523 C529 1.428 . S
H524 C520 0.930 . S
H525 C522 0.929 . S
S526 N527 1.613 . S
S526 N528 1.610 . S
N527 S526 1.613 . S
N527 C530 1.350 . S
N528 S526 1.610 . S
N528 C529 1.351 . S
C529 C523 1.428 . S
C529 N528 1.351 . S
C529 C530 1.434 . S
C530 C521 1.429 . S
C530 N527 1.350 . S
C530 C529 1.434 . S
C531 C532 1.369 . S
C531 C533 1.419 . S
C531 H535 0.930 . S
C532 C531 1.369 . S
C532 C541 1.429 . S
C533 C531 1.419 . S
C533 C534 1.363 . S
C533 H536 0.929 . S
C534 C533 1.363 . S
C534 C540 1.428 . S
H535 C531 0.930 . S
H536 C533 0.929 . S
S537 N538 1.613 . S
S537 N539 1.610 . S
N538 S537 1.613 . S
N538 C541 1.350 . S
N539 S537 1.610 . S
N539 C540 1.351 . S
C540 C534 1.428 . S
C540 N539 1.351 . S
C540 C541 1.434 . S
C541 C532 1.429 . S
C541 N538 1.350 . S
C541 C540 1.434 . S
C542 C543 1.369 . S
C542 C544 1.419 . S
C542 H546 0.930 . S
C543 C542 1.369 . S
C543 C552 1.429 . S
C544 C542 1.419 . S
C544 C545 1.363 . S
C544 H547 0.929 . S
C545 C544 1.363 . S
C545 C551 1.428 . S
H546 C542 0.930 . S
H547 C544 0.929 . S
S548 N549 1.613 . S
S548 N550 1.610 . S
N549 S548 1.613 . S
N549 C552 1.350 . S
N550 S548 1.610 . S
N550 C551 1.351 . S
C551 C545 1.428 . S
C551 N550 1.351 . S
C551 C552 1.434 . S
C552 C543 1.429 . S
C552 N549 1.350 . S
C552 C551 1.434 . S
C553 C554 1.369 . S
C553 C555 1.419 . S
C553 H557 0.930 . S
C554 C553 1.369 . S
C554 C563 1.429 . S
C555 C553 1.419 . S
C555 C556 1.363 . S
C555 H558 0.929 . S
C556 C555 1.363 . S
C556 C562 1.428 . S
H557 C553 0.930 . S
H558 C555 0.929 . S
S559 N560 1.613 . S
S559 N561 1.610 . S
N560 S559 1.613 . S
N560 C563 1.350 . S
N561 S559 1.610 . S
N561 C562 1.351 . S
C562 C556 1.428 . S
C562 N561 1.351 . S
C562 C563 1.434 . S
C563 C554 1.429 . S
C563 N560 1.350 . S
C563 C562 1.434 . S
C564 C565 1.369 . S
C564 C566 1.419 . S
C564 H568 0.930 . S
C565 C564 1.369 . S
C565 C574 1.429 . S
C566 C564 1.419 . S
C566 C567 1.363 . S
C566 H569 0.929 . S
C567 C566 1.363 . S
C567 C573 1.428 . S
H568 C564 0.930 . S
H569 C566 0.929 . S
S570 N571 1.613 . S
S570 N572 1.610 . S
N571 S570 1.613 . S
N571 C574 1.350 . S
N572 S570 1.610 . S
N572 C573 1.351 . S
C573 C567 1.428 . S
C573 N572 1.351 . S
C573 C574 1.434 . S
C574 C565 1.429 . S
C574 N571 1.350 . S
C574 C573 1.434 . S
C575 C576 1.369 . S
C575 C577 1.419 . S
C575 H579 0.930 . S
C576 C575 1.369 . S
C576 C585 1.429 . S
C577 C575 1.419 . S
C577 C578 1.363 . S
C577 H580 0.929 . S
C578 C577 1.363 . S
C578 C584 1.428 . S
H579 C575 0.930 . S
H580 C577 0.929 . S
S581 N582 1.613 . S
S581 N583 1.610 . S
N582 S581 1.613 . S
N582 C585 1.350 . S
N583 S581 1.610 . S
N583 C584 1.351 . S
C584 C578 1.428 . S
C584 N583 1.351 . S
C584 C585 1.434 . S
C585 C576 1.429 . S
C585 N582 1.350 . S
C585 C584 1.434 . S
C586 C587 1.369 . S
C586 C588 1.419 . S
C586 H590 0.930 . S
C587 C586 1.369 . S
C587 C596 1.429 . S
C588 C586 1.419 . S
C588 C589 1.363 . S
C588 H591 0.929 . S
C589 C588 1.363 . S
C589 C595 1.428 . S
H590 C586 0.930 . S
H591 C588 0.929 . S
S592 N593 1.613 . S
S592 N594 1.610 . S
N593 S592 1.613 . S
N593 C596 1.350 . S
N594 S592 1.610 . S
N594 C595 1.351 . S
C595 C589 1.428 . S
C595 N594 1.351 . S
C595 C596 1.434 . S
C596 C587 1.429 . S
C596 N593 1.350 . S
C596 C595 1.434 . S
C597 C598 1.369 . S
C597 C599 1.419 . S
C597 H601 0.930 . S
C598 C597 1.369 . S
C598 C607 1.429 . S
C599 C597 1.419 . S
C599 C600 1.363 . S
C599 H602 0.929 . S
C600 C599 1.363 . S
C600 C606 1.428 . S
H601 C597 0.930 . S
H602 C599 0.929 . S
S603 N604 1.613 1_556 S
S603 N605 1.610 . S
N604 S603 1.613 1_554 S
N604 C607 1.350 1_554 S
N605 S603 1.610 . S
N605 C606 1.351 . S
C606 C600 1.428 . S
C606 N605 1.351 . S
C606 C607 1.434 . S
C607 C598 1.429 . S
C607 N604 1.350 1_556 S
C607 C606 1.434 . S
C345 C7 1.625 . S
C347 C105 1.597 1_565 S
C356 C37 1.552 . S
C358 C137 1.499 . S
C367 C54 1.719 . S
C369 C169 1.503 . S
C380 C213 1.552 . S
C378 C87 1.523 . S
C391 C233 1.522 . S
C389 C30 1.536 . S
C400 C51 1.558 . S
C402 C277 1.588 . S
C411 C84 1.744 . S
C413 C297 1.531 . S
C422 C10 1.538 . S
C424 C341 1.318 . S
C433 C59 1.621 . S
C435 C329 1.452 1_545 S
C446 C245 1.521 . S
C444 C74 1.572 . S
C457 C265 1.696 . S
C455 C18 1.773 . S
C466 C32 1.531 . S
C468 C309 1.390 . S
C479 C149 1.629 . S
C477 C73 1.647 . S
C488 C15 1.538 . S
C490 C181 1.406 . S
C501 C201 1.704 . S
C499 C43 1.756 . S
C512 C117 1.503 . S
C510 C62 1.547 . S
C523 C303 1.441 . S
C521 C21 1.643 . S
C534 C335 1.305 . S
C532 C29 1.432 . S
C543 C52 1.416 . S
C545 C239 1.413 . S
C556 C271 1.635 . S
C554 C81 1.646 . S
C567 C175 1.428 . S
C565 C40 1.608 . S
C576 C65 1.614 . S
C578 C207 1.605 . S
C589 C111 1.434 . S
C587 C76 1.435 . S
C600 C143 1.447 . S
C598 C8 1.436 1_556 S
