# Generated by pormake.
# Topology ctn, (3,4)-cn, num edge types: 1
# Building blocks:
#     Node 0, Type 0, BuildingBlock: PAMTOO_clean_linker_0, # of connection points: 3
#     Node 1, Type 0, BuildingBlock: PAMTOO_clean_linker_0, # of connection points: 3
#     Node 2, Type 0, BuildingBlock: PAMTOO_clean_linker_0, # of connection points: 3
#     Node 3, Type 0, BuildingBlock: PAMTOO_clean_linker_0, # of connection points: 3
#     Node 4, Type 0, BuildingBlock: PAMTOO_clean_linker_0, # of connection points: 3
#     Node 5, Type 0, BuildingBlock: PAMTOO_clean_linker_0, # of connection points: 3
#     Node 6, Type 0, BuildingBlock: PAMTOO_clean_linker_0, # of connection points: 3
#     Node 7, Type 0, BuildingBlock: PAMTOO_clean_linker_0, # of connection points: 3
#     Node 8, Type 0, BuildingBlock: PAMTOO_clean_linker_0, # of connection points: 3
#     Node 9, Type 0, BuildingBlock: PAMTOO_clean_linker_0, # of connection points: 3
#     Node 10, Type 0, BuildingBlock: PAMTOO_clean_linker_0, # of connection points: 3
#     Node 11, Type 0, BuildingBlock: PAMTOO_clean_linker_0, # of connection points: 3
#     Node 12, Type 0, BuildingBlock: PAMTOO_clean_linker_0, # of connection points: 3
#     Node 13, Type 0, BuildingBlock: PAMTOO_clean_linker_0, # of connection points: 3
#     Node 14, Type 0, BuildingBlock: PAMTOO_clean_linker_0, # of connection points: 3
#     Node 15, Type 0, BuildingBlock: PAMTOO_clean_linker_0, # of connection points: 3
#     Node 16, Type 1, BuildingBlock: NAHDIM_clean_sbu_0, # of connection points: 4
#     Node 17, Type 1, BuildingBlock: NAHDIM_clean_sbu_0, # of connection points: 4
#     Node 18, Type 1, BuildingBlock: NAHDIM_clean_sbu_0, # of connection points: 4
#     Node 19, Type 1, BuildingBlock: NAHDIM_clean_sbu_0, # of connection points: 4
#     Node 20, Type 1, BuildingBlock: NAHDIM_clean_sbu_0, # of connection points: 4
#     Node 21, Type 1, BuildingBlock: NAHDIM_clean_sbu_0, # of connection points: 4
#     Node 22, Type 1, BuildingBlock: NAHDIM_clean_sbu_0, # of connection points: 4
#     Node 23, Type 1, BuildingBlock: NAHDIM_clean_sbu_0, # of connection points: 4
#     Node 24, Type 1, BuildingBlock: NAHDIM_clean_sbu_0, # of connection points: 4
#     Node 25, Type 1, BuildingBlock: NAHDIM_clean_sbu_0, # of connection points: 4
#     Node 26, Type 1, BuildingBlock: NAHDIM_clean_sbu_0, # of connection points: 4
#     Node 27, Type 1, BuildingBlock: NAHDIM_clean_sbu_0, # of connection points: 4
#     Edge 28, Type (0, 1), BuildingBlock: OJICUG_clean_linker_0, # of connection points: 2
#     Edge 29, Type (0, 1), BuildingBlock: OJICUG_clean_linker_0, # of connection points: 2
#     Edge 30, Type (0, 1), BuildingBlock: OJICUG_clean_linker_0, # of connection points: 2
#     Edge 31, Type (0, 1), BuildingBlock: OJICUG_clean_linker_0, # of connection points: 2
#     Edge 32, Type (0, 1), BuildingBlock: OJICUG_clean_linker_0, # of connection points: 2
#     Edge 33, Type (0, 1), BuildingBlock: OJICUG_clean_linker_0, # of connection points: 2
#     Edge 34, Type (0, 1), BuildingBlock: OJICUG_clean_linker_0, # of connection points: 2
#     Edge 35, Type (0, 1), BuildingBlock: OJICUG_clean_linker_0, # of connection points: 2
#     Edge 36, Type (0, 1), BuildingBlock: OJICUG_clean_linker_0, # of connection points: 2
#     Edge 37, Type (0, 1), BuildingBlock: OJICUG_clean_linker_0, # of connection points: 2
#     Edge 38, Type (0, 1), BuildingBlock: OJICUG_clean_linker_0, # of connection points: 2
#     Edge 39, Type (0, 1), BuildingBlock: OJICUG_clean_linker_0, # of connection points: 2
#     Edge 40, Type (0, 1), BuildingBlock: OJICUG_clean_linker_0, # of connection points: 2
#     Edge 41, Type (0, 1), BuildingBlock: OJICUG_clean_linker_0, # of connection points: 2
#     Edge 42, Type (0, 1), BuildingBlock: OJICUG_clean_linker_0, # of connection points: 2
#     Edge 43, Type (0, 1), BuildingBlock: OJICUG_clean_linker_0, # of connection points: 2
#     Edge 44, Type (0, 1), BuildingBlock: OJICUG_clean_linker_0, # of connection points: 2
#     Edge 45, Type (0, 1), BuildingBlock: OJICUG_clean_linker_0, # of connection points: 2
#     Edge 46, Type (0, 1), BuildingBlock: OJICUG_clean_linker_0, # of connection points: 2
#     Edge 47, Type (0, 1), BuildingBlock: OJICUG_clean_linker_0, # of connection points: 2
#     Edge 48, Type (0, 1), BuildingBlock: OJICUG_clean_linker_0, # of connection points: 2
#     Edge 49, Type (0, 1), BuildingBlock: OJICUG_clean_linker_0, # of connection points: 2
#     Edge 50, Type (0, 1), BuildingBlock: OJICUG_clean_linker_0, # of connection points: 2
#     Edge 51, Type (0, 1), BuildingBlock: OJICUG_clean_linker_0, # of connection points: 2
#     Edge 52, Type (0, 1), BuildingBlock: OJICUG_clean_linker_0, # of connection points: 2
#     Edge 53, Type (0, 1), BuildingBlock: OJICUG_clean_linker_0, # of connection points: 2
#     Edge 54, Type (0, 1), BuildingBlock: OJICUG_clean_linker_0, # of connection points: 2
#     Edge 55, Type (0, 1), BuildingBlock: OJICUG_clean_linker_0, # of connection points: 2
#     Edge 56, Type (0, 1), BuildingBlock: OJICUG_clean_linker_0, # of connection points: 2
#     Edge 57, Type (0, 1), BuildingBlock: OJICUG_clean_linker_0, # of connection points: 2
#     Edge 58, Type (0, 1), BuildingBlock: OJICUG_clean_linker_0, # of connection points: 2
#     Edge 59, Type (0, 1), BuildingBlock: OJICUG_clean_linker_0, # of connection points: 2
#     Edge 60, Type (0, 1), BuildingBlock: OJICUG_clean_linker_0, # of connection points: 2
#     Edge 61, Type (0, 1), BuildingBlock: OJICUG_clean_linker_0, # of connection points: 2
#     Edge 62, Type (0, 1), BuildingBlock: OJICUG_clean_linker_0, # of connection points: 2
#     Edge 63, Type (0, 1), BuildingBlock: OJICUG_clean_linker_0, # of connection points: 2
#     Edge 64, Type (0, 1), BuildingBlock: OJICUG_clean_linker_0, # of connection points: 2
#     Edge 65, Type (0, 1), BuildingBlock: OJICUG_clean_linker_0, # of connection points: 2
#     Edge 66, Type (0, 1), BuildingBlock: OJICUG_clean_linker_0, # of connection points: 2
#     Edge 67, Type (0, 1), BuildingBlock: OJICUG_clean_linker_0, # of connection points: 2
#     Edge 68, Type (0, 1), BuildingBlock: OJICUG_clean_linker_0, # of connection points: 2
#     Edge 69, Type (0, 1), BuildingBlock: OJICUG_clean_linker_0, # of connection points: 2
#     Edge 70, Type (0, 1), BuildingBlock: OJICUG_clean_linker_0, # of connection points: 2
#     Edge 71, Type (0, 1), BuildingBlock: OJICUG_clean_linker_0, # of connection points: 2
#     Edge 72, Type (0, 1), BuildingBlock: OJICUG_clean_linker_0, # of connection points: 2
#     Edge 73, Type (0, 1), BuildingBlock: OJICUG_clean_linker_0, # of connection points: 2
#     Edge 74, Type (0, 1), BuildingBlock: OJICUG_clean_linker_0, # of connection points: 2
#     Edge 75, Type (0, 1), BuildingBlock: OJICUG_clean_linker_0, # of connection points: 2
# Relax obj value: 0.067
# Max RMSD: 0.180
# Mean RMSD: 0.111
data_MOF--net-ctn--node1-NAHDIM_clean_sbu_0--node2-PAMTOO_clean_linker_0--edge1-OJICUG_clean_linker_0
_symmetry_space_group_name_H-M    P1
_symmetry_Int_Tables_number       1
_symmetry_cell_setting            triclinic
loop_
_symmetry_equiv_pos_as_xyz
'x, y, z'
_cell_length_a     38.501484
_cell_length_b     39.128396
_cell_length_c     39.3418
_cell_angle_alpha  85.974411
_cell_angle_beta   92.579688
_cell_angle_gamma 100.60428
loop_
_atom_site_label
_atom_site_type_symbol
_atom_site_fract_x
_atom_site_fract_y
_atom_site_fract_z
_atom_type_partial_charge
H0 H 0.9958 0.10073 0.07659 0.0
H1 H 0.04819 0.0126 0.09627 0.0
H2 H 0.07667 0.0841 0.01063 0.0
H3 H 0.06431 0.01101 0.9966 0.0
C4 C 0.07642 1.0003 0.02031 0.0
O5 O 0.08686 0.02621 0.04259 0.0
H6 H 0.05612 0.97947 0.03221 0.0
C7 C 0.01563 0.086 0.07037 0.0
C8 C 0.03594 0.09663 0.04139 0.0
C9 C 0.01977 0.05578 0.09062 0.0
C10 C 0.04428 0.0359 0.08115 0.0
C11 C 0.06419 0.046 0.0521 0.0
C12 C 0.06044 0.07644 0.03265 0.0
H13 H 0.31157 0.68103 0.2927 0.0
H14 H 0.24651 0.70106 0.20426 0.0
H15 H 0.34007 0.7744 0.22721 0.0
H16 H 0.28044 0.80714 0.20292 0.0
C17 C 0.26546 0.78588 0.18784 0.0
O18 O 0.28554 0.76045 0.18546 0.0
H19 H 0.2406 0.77486 0.20122 0.0
C20 C 0.3068 0.69718 0.27006 0.0
C21 C 0.32977 0.72903 0.26271 0.0
C22 C 0.27651 0.68704 0.24925 0.0
C23 C 0.26975 0.7085 0.22056 0.0
C24 C 0.29266 0.73981 0.21282 0.0
C25 C 0.32259 0.75 0.23368 0.0
H26 H 0.98359 0.53358 0.10338 0.0
H27 H 0.95386 0.48174 0.01051 0.0
H28 H 0.03494 0.45046 0.07673 0.0
H29 H 0.04772 0.46092 0.0021 0.0
C30 C 0.02144 0.44689 0.99309 0.0
O31 O 0.99876 0.43936 0.01986 0.0
H32 H 0.01065 0.46426 0.97335 0.0
C33 C 0.9867 0.51404 0.08616 0.0
C34 C 0.01166 0.49221 0.09438 0.0
C35 C 0.96587 0.51099 0.05574 0.0
C36 C 0.96996 0.48525 0.03374 0.0
C37 C 0.99479 0.46365 0.04146 0.0
C38 C 0.01549 0.46711 0.07158 0.0
H39 H 0.70078 0.86057 0.25778 0.0
H40 H 0.66988 0.75516 0.22817 0.0
H41 H 0.76548 0.81817 0.19098 0.0
H42 H 0.70634 0.77803 0.14335 0.0
C43 C 0.70969 0.75271 0.15676 0.0
O44 O 0.72391 0.75752 0.18926 0.0
H45 H 0.68299 0.73612 0.15837 0.0
C46 C 0.70572 0.83918 0.24371 0.0
C47 C 0.73629 0.84325 0.22452 0.0
C48 C 0.68165 0.80754 0.2452 0.0
C49 C 0.68825 0.77975 0.22728 0.0
C50 C 0.71815 0.78393 0.20733 0.0
C51 C 0.7421 0.81554 0.20599 0.0
H52 H 0.11307 0.95394 0.54149 0.0
H53 H 0.0205 0.941 0.47443 0.0
H54 H 0.10403 0.02809 0.45669 0.0
H55 H 0.03578 0.04609 0.44641 0.0
C56 C 0.01987 0.02077 0.43917 0.0
O57 O 0.04185 0.99717 0.43585 0.0
H58 H 1.00083 0.01114 0.4597 0.0
C59 C 0.0985 0.96261 0.51935 0.0
C60 C 0.11309 0.99314 0.50008 0.0
C61 C 0.06501 0.94351 0.51053 0.0
C62 C 0.04622 0.95529 0.48196 0.0
C63 C 0.06047 0.98563 0.46275 0.0
C64 C 0.0938 0.0043 0.47158 0.0
H65 H 0.16673 0.77776 0.81408 0.0
H66 H 0.19104 0.69208 0.76202 0.0
H67 H 0.26106 0.73597 0.84142 0.0
H68 H 0.29588 0.72189 0.78252 0.0
C69 C 0.27783 0.69799 0.77452 0.0
O70 O 0.25004 0.68937 0.79629 0.0
H71 H 0.26749 0.70338 0.74818 0.0
C72 C 0.18382 0.75924 0.81062 0.0
C73 C 0.21515 0.76026 0.83077 0.0
C74 C 0.17458 0.73451 0.78587 0.0
C75 C 0.19715 0.71087 0.78137 0.0
C76 C 0.22829 0.71181 0.80119 0.0
C77 C 0.23705 0.73609 0.82596 0.0
H78 H 0.92859 0.56833 0.54362 0.0
H79 H 0.95635 0.50538 0.46713 0.0
H80 H 0.03033 0.59433 0.49729 0.0
H81 H 0.02761 0.58517 0.42415 0.0
C82 C 0.01937 0.55637 0.42448 0.0
O83 O 0.01886 0.54245 0.45768 0.0
H84 H 0.99237 0.55057 0.41243 0.0
C85 C 0.94737 0.56304 0.52589 0.0
C86 C 0.98074 0.58493 0.52352 0.0
C87 C 0.93796 0.53441 0.50546 0.0
C88 C 0.96261 0.52756 0.48274 0.0
C89 C 0.9957 0.54914 0.48 0.0
C90 C 0.00475 0.57764 0.50027 0.0
H91 H 0.75134 0.80989 0.87832 0.0
H92 H 0.82973 0.76112 0.8354 0.0
H93 H 0.79248 0.84562 0.77942 0.0
H94 H 0.80873 0.79385 0.73378 0.0
C95 C 0.82479 0.7803 0.75261 0.0
O96 O 0.83523 0.80105 0.7795 0.0
H97 H 0.80797 0.75525 0.76157 0.0
C98 C 0.76868 0.80796 0.85787 0.0
C99 C 0.76879 0.83069 0.82844 0.0
C100 C 0.79061 0.78263 0.86089 0.0
C101 C 0.813 0.78064 0.8341 0.0
C102 C 0.81342 0.80321 0.80491 0.0
C103 C 0.79149 0.82811 0.8021 0.0
H104 H 0.25156 0.31299 0.37804 0.0
H105 H 0.32885 0.26225 0.33593 0.0
H106 H 0.29254 0.34661 0.27868 0.0
H107 H 0.30838 0.29309 0.23399 0.0
C108 C 0.32461 0.28008 0.25313 0.0
O109 O 0.33485 0.30148 0.27957 0.0
H110 H 0.30804 0.25509 0.26255 0.0
C111 C 0.26866 0.31041 0.3576 0.0
C112 C 0.26902 0.33279 0.32791 0.0
C113 C 0.29013 0.28471 0.36097 0.0
C114 C 0.31236 0.28199 0.33428 0.0
C115 C 0.31297 0.30415 0.30476 0.0
C116 C 0.29139 0.32938 0.30156 0.0
H117 H 0.48684 0.04196 0.60427 0.0
H118 H 0.45799 0.99487 0.50872 0.0
H119 H 0.53663 0.95886 0.57473 0.0
H120 H 0.55364 0.96277 0.50463 0.0
C121 C 0.52681 0.95856 0.49221 0.0
O122 O 0.50155 0.95116 0.5168 0.0
H123 H 0.52336 0.98285 0.47695 0.0
C124 C 0.48987 0.02313 0.58623 0.0
C125 C 0.51417 1.00048 0.59375 0.0
C126 C 0.46952 0.0217 0.55547 0.0
C127 C 0.47367 0.99704 0.5323 0.0
C128 C 0.49774 0.97456 0.53943 0.0
C129 C 0.51775 0.97618 0.57001 0.0
H130 H 0.21002 0.36369 0.76808 0.0
H131 H 0.17538 0.25897 0.73722 0.0
H132 H 0.26881 0.32169 0.69563 0.0
H133 H 0.20748 0.28219 0.65087 0.0
C134 C 0.21132 0.25674 0.66364 0.0
O135 O 0.22699 0.26115 0.69565 0.0
H136 H 0.18471 0.24013 0.66615 0.0
C137 C 0.21347 0.34239 0.75312 0.0
C138 C 0.24238 0.34661 0.73168 0.0
C139 C 0.189 0.31093 0.75538 0.0
C140 C 0.19401 0.28339 0.73611 0.0
C141 C 0.22259 0.28751 0.71448 0.0
C142 C 0.24663 0.319 0.71224 0.0
H143 H 0.82643 0.1622 0.77634 0.0
H144 H 0.77105 0.18141 0.68123 0.0
H145 H 0.85485 0.25948 0.71681 0.0
H146 H 0.79494 0.28682 0.69042 0.0
C147 C 0.78436 0.26792 0.67099 0.0
O148 O 0.80652 0.24418 0.66921 0.0
H149 H 0.75772 0.25393 0.67868 0.0
C150 C 0.82274 0.17899 0.75388 0.0
C151 C 0.84395 0.21235 0.7499 0.0
C152 C 0.79656 0.16731 0.72904 0.0
C153 C 0.79161 0.18947 0.70027 0.0
C154 C 0.81237 0.22263 0.69629 0.0
C155 C 0.83869 0.23384 0.7207 0.0
H156 H 0.4844 0.5968 0.55809 0.0
H157 H 0.53976 0.51081 0.57844 0.0
H158 H 0.55961 0.577 0.48755 0.0
H159 H 0.55268 0.5034 0.47797 0.0
C160 C 0.565 0.49472 0.50245 0.0
O161 O 0.57507 0.52256 0.52253 0.0
H162 H 0.54507 0.47454 0.51569 0.0
C163 C 0.50329 0.58144 0.5509 0.0
C164 C 0.52138 0.59076 0.52043 0.0
C165 C 0.50961 0.55264 0.57225 0.0
C166 C 0.53402 0.53286 0.56237 0.0
C167 C 0.55174 0.54171 0.53185 0.0
C168 C 0.54567 0.57064 0.51114 0.0
H169 H 0.61224 0.4517 0.04015 0.0
H170 H 0.52132 0.435 0.97123 0.0
H171 H 0.60359 0.52315 0.95298 0.0
H172 H 0.53262 0.53895 0.93724 0.0
C173 C 0.51823 0.51202 0.93352 0.0
O174 O 0.5424 0.49029 0.9315 0.0
H175 H 0.50098 0.50343 0.95564 0.0
C176 C 0.59794 0.45948 0.01744 0.0
C177 C 0.61244 0.48962 0.99755 0.0
C178 C 0.56493 0.43956 0.00843 0.0
C179 C 0.5466 0.45003 0.97898 0.0
C180 C 0.56067 0.48006 0.95924 0.0
C181 C 0.59346 0.49966 0.96836 0.0
H182 H 0.66784 0.27676 0.31238 0.0
H183 H 0.69353 0.19138 0.26091 0.0
H184 H 0.76277 0.23633 0.34041 0.0
H185 H 0.79728 0.22305 0.28015 0.0
C186 C 0.78009 0.19817 0.27338 0.0
O187 O 0.7526 0.18955 0.29546 0.0
H188 H 0.76946 0.20196 0.24687 0.0
C189 C 0.68524 0.2585 0.30909 0.0
C190 C 0.71647 0.25996 0.32944 0.0
C191 C 0.67642 0.23366 0.28442 0.0
C192 C 0.69934 0.21029 0.28017 0.0
C193 C 0.73046 0.2117 0.30012 0.0
C194 C 0.73881 0.23614 0.32482 0.0
H195 H 0.43211 0.07104 0.03902 0.0
H196 H 0.46013 0.01034 0.96076 0.0
H197 H 0.53315 0.09971 0.99175 0.0
H198 H 0.52978 0.09161 0.91825 0.0
C199 C 0.52235 0.06274 0.91828 0.0
O200 O 0.52225 0.04847 0.95133 0.0
H201 H 0.49542 0.05643 0.90619 0.0
C202 C 0.45081 0.06651 0.02084 0.0
C203 C 0.48381 0.08898 0.01841 0.0
C204 C 0.44169 0.03819 1.00001 0.0
C205 C 0.46621 0.03229 0.97671 0.0
C206 C 0.49902 0.05443 0.97396 0.0
C207 C 0.5078 0.08261 0.99468 0.0
C208 C 0.19873 0.94322 0.98762 0.0
O209 O 0.21804 0.95624 0.96147 0.0
O210 O 0.23348 0.86386 0.95596 0.0
Zn211 Zn 0.24719 0.89441 0.99527 0.0
O212 O 0.29072 0.93066 0.986 0.0
C213 C 0.23371 0.84559 0.05358 0.0
O214 O 0.20087 0.84233 0.04177 0.0
O215 O 0.20651 0.91717 0.00539 0.0
C216 C 0.30622 0.94555 0.01167 0.0
O217 O 0.29231 0.93767 0.04175 0.0
C218 C 0.25625 0.85757 0.93601 0.0
O219 O 0.28965 0.87163 0.94097 0.0
O220 O 0.25797 0.86548 0.03717 0.0
C221 C 0.18655 0.44329 0.3128 0.0
O222 O 0.19109 0.46707 0.3353 0.0
O223 O 0.10947 0.49358 0.31507 0.0
Zn224 Zn 0.14212 0.48862 0.27725 0.0
O225 O 0.17967 0.53247 0.27194 0.0
C226 C 0.09884 0.50758 0.21878 0.0
O227 O 0.10442 0.53761 0.23283 0.0
O228 O 0.16649 0.44674 0.28664 0.0
C229 C 0.17336 0.56235 0.27758 0.0
O230 O 0.14195 0.56505 0.28758 0.0
C231 C 0.12007 0.50832 0.34246 0.0
O232 O 0.15407 0.51924 0.34795 0.0
O233 O 0.11231 0.48259 0.23302 0.0
C234 C 0.86217 0.59916 0.01894 0.0
O235 O 0.85287 0.60413 0.98668 0.0
O236 O 0.81195 0.6694 0.98794 0.0
Zn237 Zn 0.80333 0.63353 0.02781 0.0
O238 O 0.76282 0.59627 0.01405 0.0
C239 C 0.79523 0.68862 0.07153 0.0
O240 O 0.81825 0.70822 0.05144 0.0
O241 O 0.84551 0.61072 0.0415 0.0
C242 C 0.7432 0.57889 0.03673 0.0
O243 O 0.75081 0.58455 0.06897 0.0
C244 C 0.78479 0.68142 0.97665 0.0
O245 O 0.75448 0.66987 0.99129 0.0
O246 O 0.78672 0.65625 0.06708 0.0
C247 C 0.86218 0.08736 0.28369 0.0
O248 O 0.88549 0.0854 0.30884 0.0
O249 O 0.91391 0.02181 0.3049 0.0
Zn250 Zn 0.88626 0.02651 0.26072 0.0
O251 O 0.8521 0.98165 0.25533 0.0
C252 C 0.93244 0.01439 0.20786 0.0
O253 O 0.92444 0.98162 0.21925 0.0
O254 O 0.8583 0.06519 0.26108 0.0
C255 C 0.8381 0.97166 0.227 0.0
O256 O 0.84638 0.99109 0.1989 0.0
C257 C 0.94506 0.03866 0.30971 0.0
O258 O 0.95983 0.06031 0.28522 0.0
O259 O 0.9193 0.03727 0.22169 0.0
C260 C 0.364 0.10834 0.52155 0.0
O261 O 0.35606 0.11555 0.48932 0.0
O262 O 0.31083 0.17434 0.49062 0.0
Zn263 Zn 0.30254 0.13872 0.5307 0.0
O264 O 0.26261 0.10081 0.517 0.0
C265 C 0.29389 0.19363 0.57439 0.0
O266 O 0.31661 0.21341 0.55413 0.0
O267 O 0.34538 0.11691 0.54432 0.0
C268 C 0.24355 0.08263 0.53963 0.0
O269 O 0.25129 0.08792 0.57193 0.0
C270 C 0.28365 0.18595 0.47875 0.0
O271 O 0.2532 0.17436 0.49311 0.0
O272 O 0.28559 0.16124 0.56994 0.0
C273 C 0.35767 0.58554 0.77977 0.0
O274 O 0.3698 0.57346 0.80906 0.0
O275 O 0.42411 0.53455 0.79405 0.0
Zn276 Zn 0.3918 0.53396 0.75232 0.0
O277 O 0.35769 0.48837 0.75187 0.0
C278 C 0.43319 0.51831 0.69713 0.0
O279 O 0.42646 0.48623 0.71071 0.0
O280 O 0.36389 0.57256 0.75246 0.0
C281 C 0.34149 0.47706 0.72492 0.0
O282 O 0.34711 0.49553 0.69584 0.0
C283 C 0.42817 0.50665 0.81108 0.0
O284 O 0.41114 0.47661 0.80106 0.0
O285 O 0.42114 0.54209 0.71063 0.0
C286 C 0.68941 0.43698 0.4785 0.0
O287 O 0.70495 0.44284 0.44906 0.0
O288 O 0.73015 0.36443 0.45342 0.0
Zn289 Zn 0.74159 0.39329 0.49413 0.0
O290 O 0.78664 0.42852 0.48849 0.0
C291 C 0.77512 0.35059 0.54383 0.0
O292 O 0.80275 0.36046 0.52472 0.0
O293 O 0.70101 0.41715 0.50149 0.0
C294 C 0.80097 0.44386 0.51439 0.0
O295 O 0.78546 0.43701 0.5438 0.0
C296 C 0.75389 0.35753 0.43496 0.0
O297 O 0.78721 0.37039 0.44199 0.0
O298 O 0.7465 0.36123 0.53543 0.0
C299 C 0.68348 0.93888 0.81256 0.0
O300 O 0.68522 0.96142 0.83608 0.0
O301 O 0.61161 0.99301 0.81299 0.0
Zn302 Zn 0.64307 0.98594 0.77519 0.0
O303 O 0.68145 0.0284 0.76999 0.0
C304 C 0.60221 0.00842 0.71788 0.0
O305 O 0.61132 0.0382 0.7323 0.0
O306 O 0.66606 0.94349 0.78488 0.0
C307 C 0.69951 0.03581 0.74337 0.0
O308 O 0.69335 0.01495 0.71816 0.0
C309 C 0.62245 0.01494 0.83527 0.0
O310 O 0.65547 0.03126 0.83513 0.0
O311 O 0.61299 0.98164 0.73155 0.0
C312 C 0.01752 0.2197 0.95685 0.0
O313 O 0.00791 0.2464 0.96986 0.0
O314 O 0.97568 0.24392 0.86018 0.0
Zn315 Zn 0.01785 0.26026 0.89082 0.0
O316 O 0.01228 0.30372 0.91349 0.0
C317 C 0.06858 0.29595 0.8419 0.0
O318 O 0.04795 0.31934 0.83974 0.0
O319 O 0.02288 0.22077 0.92513 0.0
C320 C 0.03721 0.31995 0.93172 0.0
O321 O 0.06695 0.30798 0.93596 0.0
C322 C 0.95546 0.2639 0.84708 0.0
O323 O 0.96171 0.29689 0.85396 0.0
O324 O 0.06109 0.26924 0.86233 0.0
C325 C 0.49778 0.71099 0.43435 0.0
O326 O 0.46568 0.71729 0.42794 0.0
O327 O 0.47271 0.75735 0.35981 0.0
Zn328 Zn 0.51751 0.77146 0.38806 0.0
O329 O 0.51604 0.81304 0.41577 0.0
C330 C 0.55912 0.79483 0.32767 0.0
O331 O 0.53098 0.80697 0.31596 0.0
O332 O 0.52377 0.73098 0.42044 0.0
C333 C 0.52399 0.8446 0.40426 0.0
O334 O 0.53326 0.85139 0.37244 0.0
C335 C 0.45142 0.77758 0.35008 0.0
O336 O 0.45816 0.81001 0.35873 0.0
O337 O 0.55923 0.77987 0.35741 0.0
C338 C 0.00503 0.82218 0.5959 0.0
O339 O 0.97108 0.81548 0.6019 0.0
O340 O 0.96362 0.77139 0.6658 0.0
Zn341 Zn 0.007 0.76233 0.64346 0.0
O342 O 0.9947 0.7188 0.61736 0.0
C343 C 0.0517 0.73107 0.69485 0.0
O344 O 0.03126 0.70135 0.68825 0.0
O345 O 0.02505 0.80281 0.61057 0.0
C346 C 0.0185 0.70458 0.6058 0.0
O347 O 0.05191 0.71804 0.61168 0.0
C348 C 0.94993 0.75206 0.69084 0.0
O349 O 0.96429 0.7254 0.70244 0.0
O350 O 0.04585 0.75906 0.67913 0.0
C351 C 0.50489 0.32006 0.09593 0.0
O352 O 0.47068 0.31236 0.10051 0.0
O353 O 0.4633 0.26994 0.1666 0.0
Zn354 Zn 0.50689 0.26112 0.14447 0.0
O355 O 0.49513 0.2182 0.11758 0.0
C356 C 0.55241 0.22945 0.19475 0.0
O357 O 0.53253 0.19963 0.18753 0.0
O358 O 0.52507 0.30173 0.11197 0.0
C359 C 0.51935 0.2055 0.10482 0.0
O360 O 0.55255 0.21992 0.11036 0.0
C361 C 0.45043 0.25171 0.19263 0.0
O362 O 0.46582 0.2262 0.20555 0.0
O363 O 0.54576 0.25756 0.17994 0.0
C364 C 0.19991 0.79408 0.87829 0.0
C365 C 0.22524 0.78641 0.85677 0.0
H366 H 0.1898 0.82248 0.92022 0.0
C367 C 0.2606 0.80322 0.86086 0.0
H368 H 0.17252 0.78134 0.87601 0.0
C369 C 0.27057 0.82662 0.88629 0.0
C370 C 0.24539 0.8338 0.90823 0.0
H371 H 0.28066 0.79831 0.84433 0.0
H372 H 0.29809 0.83886 0.88888 0.0
C373 C 0.20988 0.81751 0.90375 0.0
C374 C 0.03339 0.51947 0.37844 0.0
C375 C 0.04519 0.54166 0.40477 0.0
H376 H 0.0478 0.49132 0.33813 0.0
C377 C 0.08158 0.55072 0.41208 0.0
H378 H 0.0054 0.51188 0.37252 0.0
C379 C 0.10589 0.53883 0.39261 0.0
C380 C 0.09423 0.51768 0.36535 0.0
H381 H 0.09119 0.56761 0.43246 0.0
H382 H 0.13384 0.54701 0.39837 0.0
C383 C 0.05768 0.50766 0.35884 0.0
C384 C 0.82056 0.74725 0.9053 0.0
C385 C 0.78948 0.75759 0.89136 0.0
H386 H 0.84358 0.71515 0.94307 0.0
C387 C 0.7571 0.74297 0.90614 0.0
H388 H 0.84604 0.75832 0.89488 0.0
C389 C 0.75577 0.71849 0.9339 0.0
C390 C 0.78674 0.70785 0.94755 0.0
H391 H 0.73258 0.74983 0.89579 0.0
H392 H 0.73027 0.70761 0.94439 0.0
C393 C 0.8192 0.72261 0.93303 0.0
C394 C 0.01603 0.04946 0.38009 0.0
C395 C 1.00026 0.02584 0.40588 0.0
H396 H 0.01087 0.07224 0.32945 0.0
C397 C 0.96668 0.00591 0.39969 0.0
H398 H 0.0422 0.06465 0.38421 0.0
C399 C 0.94871 0.01014 0.36848 0.0
C400 C 0.9642 0.03415 0.34271 0.0
H401 H 0.95431 0.9871 0.41906 0.0
H402 H 0.92273 0.99452 0.36454 0.0
C403 C 0.99812 0.05368 0.34881 0.0
C404 C 0.26181 0.26079 0.62402 0.0
C405 C 0.23409 0.24013 0.64213 0.0
H406 H 0.30256 0.26232 0.58837 0.0
C407 C 0.22805 0.20386 0.64007 0.0
H408 H 0.26731 0.28879 0.62579 0.0
C409 C 0.24822 0.18862 0.61885 0.0
C410 C 0.275 0.20939 0.59945 0.0
H411 H 0.2072 0.18739 0.65432 0.0
H412 H 0.24226 0.16064 0.61708 0.0
C413 C 0.282 0.24559 0.60276 0.0
C414 C 0.4788 0.50859 0.61589 0.0
C415 C 0.49091 0.54358 0.60483 0.0
H416 H 0.45116 0.47312 0.6538 0.0
C417 C 0.48468 0.56998 0.62497 0.0
H418 H 0.48278 0.4876 0.60082 0.0
C419 C 0.46614 0.56169 0.65499 0.0
C420 C 0.45372 0.52677 0.66583 0.0
H421 H 0.49429 0.59717 0.61768 0.0
H422 H 0.46163 0.58272 0.66975 0.0
C423 C 0.46053 0.50028 0.64617 0.0
C424 C 0.74908 0.29454 0.62421 0.0
C425 C 0.78186 0.28777 0.63712 0.0
H426 H 0.72118 0.31947 0.58448 0.0
C427 C 0.81251 0.30172 0.61916 0.0
H428 H 0.72515 0.28455 0.6379 0.0
C429 C 0.8103 0.3216 0.58846 0.0
C430 C 0.77746 0.32842 0.57553 0.0
H431 H 0.83819 0.29743 0.62901 0.0
H432 H 0.83438 0.33212 0.57522 0.0
C433 C 0.74687 0.31462 0.5937 0.0
C434 C 0.54394 0.97199 0.6436 0.0
C435 C 0.53624 0.00245 0.62599 0.0
H436 H 0.5708 0.94992 0.68618 0.0
C437 C 0.55038 0.03482 0.6391 0.0
H438 H 0.53311 0.94656 0.63461 0.0
C439 C 0.57165 0.03668 0.66893 0.0
C440 C 0.57956 0.00625 0.68631 0.0
H441 H 0.54557 0.05886 0.626 0.0
H442 H 0.5822 0.06207 0.67817 0.0
C443 C 0.56545 0.97388 0.67329 0.0
C444 C 0.8936 0.20294 0.79111 0.0
C445 C 0.8715 0.225 0.77605 0.0
H446 H 0.93744 0.19787 0.82528 0.0
C447 C 0.87651 0.25964 0.78546 0.0
H448 H 0.89065 0.17623 0.78419 0.0
C449 C 0.90347 0.27215 0.80882 0.0
C450 C 0.92599 0.25028 0.82339 0.0
H451 H 0.85954 0.27716 0.77476 0.0
H452 H 0.90677 0.29905 0.81525 0.0
C453 C 0.92055 0.21543 0.81452 0.0
C454 C 0.51895 0.89412 0.483 0.0
C455 C 0.52387 0.92875 0.46931 0.0
H456 H 0.51458 0.84031 0.47317 0.0
C457 C 0.52887 0.93547 0.43416 0.0
H458 H 0.51584 0.88828 0.51013 0.0
C459 C 0.52854 0.90813 0.41303 0.0
C460 C 0.52337 0.87343 0.42662 0.0
H461 H 0.53339 0.96198 0.42306 0.0
H462 H 0.53258 0.91426 0.38606 0.0
C463 C 0.51836 0.86671 0.46183 0.0
C464 C 0.1385 0.33397 0.77806 0.0
C465 C 0.15818 0.30709 0.77763 0.0
H466 H 0.09478 0.35154 0.79856 0.0
C467 C 0.14829 0.27663 0.79866 0.0
H468 H 0.14526 0.35761 0.76185 0.0
C469 C 0.11941 0.27316 0.81974 0.0
C470 C 0.09962 0.29999 0.82007 0.0
H471 H 0.16315 0.25563 0.79914 0.0
H472 H 0.11251 0.24934 0.83566 0.0
C473 C 0.10949 0.33043 0.79898 0.0
C474 C 0.54377 0.64474 0.48395 0.0
C475 C 0.51519 0.62166 0.49853 0.0
H476 H 0.56075 0.69106 0.45248 0.0
C477 C 0.48078 0.62839 0.49211 0.0
H478 H 0.57063 0.64054 0.4888 0.0
C479 C 0.47509 0.65751 0.47143 0.0
C480 C 0.50369 0.6805 0.45676 0.0
H481 H 0.45818 0.61087 0.50269 0.0
H482 H 0.44825 0.66184 0.4668 0.0
C483 C 0.53809 0.67382 0.46331 0.0
C484 C 0.87189 0.79415 0.70858 0.0
C485 C 0.85696 0.77285 0.73633 0.0
H486 H 0.91285 0.80417 0.67222 0.0
C487 C 0.87322 0.74529 0.74964 0.0
H488 H 0.86009 0.81592 0.69828 0.0
C489 C 0.90341 0.73852 0.73486 0.0
C490 C 0.91811 0.75943 0.70666 0.0
H491 H 0.86245 0.72894 0.77143 0.0
H492 H 0.9152 0.71691 0.74557 0.0
C493 C 0.9021 0.78743 0.69378 0.0
C494 C 0.01333 0.90547 0.53915 0.0
C495 C 0.0494 0.9118 0.53158 0.0
H496 H 0.97104 0.87228 0.5653 0.0
C497 C 0.07053 0.88793 0.54475 0.0
H498 H 0.99639 0.92355 0.5298 0.0
C499 C 0.05606 0.8587 0.56537 0.0
C500 C 0.02008 0.85258 0.57321 0.0
H501 H 0.09827 0.89173 0.539 0.0
H502 H 0.07314 0.84094 0.57523 0.0
C503 C 0.99883 0.87616 0.55967 0.0
C504 C 0.1329 0.76482 0.74931 0.0
C505 C 0.14198 0.73376 0.76403 0.0
H506 H 0.09741 0.78835 0.71588 0.0
C507 C 0.1204 0.70186 0.75673 0.0
H508 H 0.14919 0.78978 0.75415 0.0
C509 C 0.09076 0.70099 0.73472 0.0
C510 C 0.08212 0.732 0.71941 0.0
H511 H 0.12648 0.67751 0.76801 0.0
H512 H 0.07492 0.67595 0.72939 0.0
C513 C 0.10334 0.76395 0.7272 0.0
C514 C 0.96492 0.63531 0.55231 0.0
C515 C 0.99034 0.61543 0.54501 0.0
H516 H 0.95376 0.67876 0.57731 0.0
C517 C 0.02505 0.62506 0.55831 0.0
H518 H 0.9381 0.62919 0.54204 0.0
C519 C 0.03417 0.65394 0.57805 0.0
C520 C 0.00871 0.67368 0.58533 0.0
H521 H 0.04522 0.61008 0.55378 0.0
H522 H 0.06115 0.66064 0.58782 0.0
C523 C 0.97394 0.66393 0.57239 0.0
C524 C 0.77658 0.89276 0.19435 0.0
C525 C 0.76253 0.87606 0.22481 0.0
H526 H 0.81133 0.9364 0.17107 0.0
C527 C 0.77373 0.89083 0.25585 0.0
H528 H 0.76824 0.88196 0.17007 0.0
C529 C 0.79846 0.9217 0.25649 0.0
C530 C 0.81229 0.93869 0.22604 0.0
H531 H 0.76362 0.87826 0.27974 0.0
H532 H 0.80652 0.93236 0.28088 0.0
C533 C 0.80108 0.92395 0.19494 0.0
C534 C 0.79626 0.14418 0.25179 0.0
C535 C 0.80154 0.16967 0.27579 0.0
H536 H 0.81145 0.09827 0.23533 0.0
C537 C 0.82611 0.1675 0.30294 0.0
H538 H 0.777 0.14506 0.23096 0.0
C539 C 0.84576 0.14069 0.30562 0.0
C540 C 0.841 0.11544 0.28127 0.0
H541 H 0.83012 0.18664 0.32201 0.0
H542 H 0.86471 0.13983 0.32671 0.0
C543 C 0.81592 0.1174 0.2544 0.0
C544 C 0.38763 0.00218 0.97349 0.0
C545 C 0.4067 0.01474 0.0028 0.0
H546 H 0.34089 0.97062 0.95321 0.0
C547 C 0.39208 0.00471 0.03487 0.0
H548 H 0.39789 0.00978 0.94835 0.0
C549 C 0.35927 0.98267 0.0376 0.0
C550 C 0.34036 0.96991 0.00835 0.0
H551 H 0.40625 0.01341 0.05801 0.0
H552 H 0.349 0.97527 0.06277 0.0
C553 C 0.35485 0.97994 0.97624 0.0
C554 C 0.24464 0.38118 0.35157 0.0
C555 C 0.24653 0.36005 0.32452 0.0
H556 H 0.22438 0.42401 0.36906 0.0
C557 C 0.22748 0.36571 0.29393 0.0
H558 H 0.25923 0.37766 0.37536 0.0
C559 C 0.20734 0.39219 0.29033 0.0
C560 C 0.2061 0.41384 0.31713 0.0
H561 H 0.22812 0.34961 0.27275 0.0
H562 H 0.19325 0.39606 0.26632 0.0
C563 C 0.22479 0.40787 0.34787 0.0
C564 C 0.15624 0.01976 0.54492 0.0
C565 C 0.14769 0.01419 0.51038 0.0
H566 H 0.19319 0.04553 0.58124 0.0
C567 C 0.17186 0.03 0.48568 0.0
H568 H 0.13804 0.00838 0.56458 0.0
C569 C 0.20336 0.05162 0.49521 0.0
C570 C 0.21147 0.05781 0.52968 0.0
H571 H 0.16636 0.02582 0.4589 0.0
H572 H 0.22113 0.06382 0.47549 0.0
C573 C 0.1878 0.04125 0.55447 0.0
C574 C 0.75787 0.12117 0.76475 0.0
C575 C 0.77352 0.13256 0.73341 0.0
H576 H 0.7221 0.08176 0.79246 0.0
C577 C 0.76576 0.1112 0.70577 0.0
H578 H 0.76309 0.13721 0.7864 0.0
C579 C 0.74231 0.07942 0.70919 0.0
C580 C 0.72591 0.06845 0.74027 0.0
H581 H 0.77773 0.11916 0.6814 0.0
H582 H 0.73658 0.0638 0.68728 0.0
C583 C 0.73422 0.0895 0.76812 0.0
C584 C 0.43974 0.05987 0.51392 0.0
C585 C 0.44384 0.04566 0.54741 0.0
H586 H 0.41165 0.09078 0.4796 0.0
C587 C 0.42256 0.0538 0.57275 0.0
H588 H 0.45612 0.05479 0.49387 0.0
C589 C 0.39725 0.07489 0.56461 0.0
C590 C 0.39253 0.0882 0.5309 0.0
H591 H 0.42471 0.04308 0.59873 0.0
H592 H 0.38082 0.08003 0.58459 0.0
C593 C 0.41436 0.08075 0.50576 0.0
C594 C 0.61494 0.48835 0.46531 0.0
C595 C 0.59692 0.47951 0.49583 0.0
H596 H 0.6583 0.48166 0.43575 0.0
C597 C 0.61001 0.45756 0.52097 0.0
H598 H 0.60561 0.50577 0.44583 0.0
C599 C 0.64019 0.44395 0.51541 0.0
C600 C 0.65797 0.45219 0.4846 0.0
H601 H 0.5968 0.45094 0.54493 0.0
H602 H 0.64947 0.42685 0.53523 0.0
C603 C 0.64511 0.47465 0.45965 0.0
C604 C 0.761 0.30304 0.36053 0.0
C605 C 0.72579 0.28611 0.35555 0.0
H606 H 0.79748 0.33891 0.38933 0.0
C607 C 0.69974 0.29381 0.3762 0.0
H608 H 0.78163 0.29816 0.34469 0.0
C609 C 0.70878 0.31744 0.40158 0.0
C610 C 0.7441 0.33383 0.40697 0.0
H611 H 0.67244 0.28096 0.37331 0.0
H612 H 0.68811 0.32238 0.41734 0.0
C613 C 0.77006 0.32658 0.38599 0.0
C614 C 0.53715 0.02121 0.87707 0.0
C615 C 0.54848 0.04881 0.89826 0.0
H616 H 0.55166 0.98875 0.84049 0.0
C617 C 0.58458 0.06327 0.90068 0.0
H618 H 0.50948 0.00927 0.87528 0.0
C619 C 0.60878 0.05149 0.88099 0.0
C620 C 0.59734 0.02487 0.8586 0.0
H621 H 0.59391 0.0842 0.91732 0.0
H622 H 0.63634 0.06383 0.88279 0.0
C623 C 0.56133 0.00944 0.8573 0.0
C624 C 0.25638 0.24619 0.40682 0.0
C625 C 0.28882 0.26022 0.39187 0.0
H626 H 0.22934 0.21189 0.44572 0.0
C627 C 0.31979 0.24994 0.40615 0.0
H628 H 0.23194 0.25304 0.39623 0.0
C629 C 0.31827 0.22596 0.43443 0.0
C630 C 0.28575 0.21178 0.44914 0.0
H631 H 0.3453 0.26057 0.39558 0.0
H632 H 0.34256 0.21853 0.44472 0.0
C633 C 0.25488 0.22234 0.43511 0.0
C634 C 0.47497 0.47905 0.89233 0.0
C635 C 0.49528 0.51082 0.90157 0.0
H636 H 0.43799 0.45274 0.85633 0.0
C637 C 0.49347 0.54124 0.88096 0.0
H638 H 0.47589 0.45533 0.90802 0.0
C639 C 0.47169 0.5399 0.85152 0.0
C640 C 0.45142 0.50807 0.8421 0.0
H641 H 0.50882 0.56607 0.88767 0.0
H642 H 0.47079 0.56382 0.83614 0.0
C643 C 0.45335 0.47764 0.86279 0.0
C644 C 0.76175 0.75634 0.11916 0.0
C645 C 0.73348 0.73585 0.13667 0.0
H646 H 0.80358 0.75748 0.08481 0.0
C647 C 0.7277 0.69953 0.13519 0.0
H648 H 0.76704 0.78438 0.12052 0.0
C649 C 0.74861 0.68404 0.11496 0.0
C650 C 0.77587 0.70462 0.096 0.0
H651 H 0.70644 0.6832 0.14903 0.0
H652 H 0.74279 0.65601 0.11351 0.0
C653 C 0.78267 0.74089 0.09888 0.0
C654 C 0.99042 0.06998 0.14227 0.0
C655 C 0.99817 0.0449 0.12128 0.0
H656 H 0.96368 0.08003 0.18594 0.0
C657 C 0.98477 0.0095 0.1296 0.0
H658 H 1.00085 0.09741 0.13706 0.0
C659 C 0.96388 0.99948 0.15804 0.0
C660 C 0.95566 0.02467 0.17856 0.0
H661 H 0.98978 0.9895 0.11376 0.0
H662 H 0.95362 0.97206 0.16353 0.0
C663 C 0.96927 0.06 0.17045 0.0
C664 C 0.22321 0.79199 0.13772 0.0
C665 C 0.25722 0.80046 0.15271 0.0
H666 H 0.18902 0.79966 0.09451 0.0
C667 C 0.28386 0.82232 0.1343 0.0
H668 H 0.20238 0.77474 0.15132 0.0
C669 C 0.2764 0.83636 0.10176 0.0
C670 C 0.24209 0.82876 0.08702 0.0
H671 H 0.31037 0.82879 0.1453 0.0
H672 H 0.2974 0.85364 0.08842 0.0
C673 C 0.21564 0.80616 0.10521 0.0
C674 C 0.0469 0.52904 0.13846 0.0
C675 C 0.03409 0.49594 0.12635 0.0
H676 H 0.07719 0.55858 0.17686 0.0
C677 C 0.04315 0.46653 0.14493 0.0
H678 H 0.0412 0.55237 0.12458 0.0
C679 C 0.06448 0.47018 0.17473 0.0
C680 C 0.07692 0.50329 0.18686 0.0
H681 H 0.0334 0.44056 0.13673 0.0
H682 H 0.0708 0.44703 0.18849 0.0
C683 C 0.06784 0.53264 0.16838 0.0
C684 C 0.38244 0.71805 0.2991 0.0
C685 C 0.36055 0.7411 0.28574 0.0
H686 H 0.42837 0.71147 0.32977 0.0
C687 C 0.36839 0.77605 0.29433 0.0
H688 H 0.37721 0.69104 0.29277 0.0
C689 C 0.39766 0.78779 0.31545 0.0
C690 C 0.41985 0.76488 0.32843 0.0
H691 H 0.3517 0.79434 0.28488 0.0
H692 H 0.40298 0.8149 0.32142 0.0
C693 C 0.41183 0.72982 0.32015 0.0
C694 C 0.99837 0.39684 0.95627 0.0
C695 C 0.02534 0.41371 0.97767 0.0
H696 H 0.98094 0.35405 0.92482 0.0
C697 C 0.05574 0.39905 0.98472 0.0
H698 H 0.97454 0.40753 0.9508 0.0
C699 C 0.05954 0.36856 0.96986 0.0
C700 C 0.03285 0.35192 0.94791 0.0
H701 H 0.07671 0.41137 1.0015 0.0
H702 H 0.08346 0.3581 0.97556 0.0
C703 C 1.00208 0.36627 0.94148 0.0
C704 C 0.62611 0.82697 0.25974 0.0
C705 C 0.64979 0.8037 0.26571 0.0
H706 H 0.57843 0.84206 0.27442 0.0
C707 C 0.64341 0.77738 0.29195 0.0
H708 H 0.63056 0.84744 0.23956 0.0
C709 C 0.6141 0.77473 0.31233 0.0
C710 C 0.59024 0.79789 0.30629 0.0
H711 H 0.66148 0.75929 0.29709 0.0
H712 H 0.60993 0.75434 0.33261 0.0
C713 C 0.59634 0.82384 0.2796 0.0
C714 C 0.02555 0.15846 0.03473 0.0
C715 C 0.03105 0.12829 0.01987 0.0
H716 H 0.01695 0.21102 0.02653 0.0
C717 C 0.03178 0.12851 0.98417 0.0
H718 H 0.02527 0.15933 0.06217 0.0
C719 C 0.02746 0.1582 0.96384 0.0
C720 C 0.022 0.18835 0.97867 0.0
H721 H 0.03528 0.10555 0.97182 0.0
H722 H 0.02814 0.15737 0.93641 0.0
C723 C 0.02097 0.18815 0.01433 0.0
C724 C 0.37396 0.24597 0.25157 0.0
C725 C 0.35694 0.27256 0.23715 0.0
H726 H 0.41671 0.21832 0.2487 0.0
C727 C 0.37124 0.29288 0.20856 0.0
H728 H 0.36367 0.23039 0.274 0.0
C729 C 0.4016 0.28611 0.19407 0.0
C730 C 0.41841 0.25908 0.2081 0.0
H731 H 0.35885 0.31391 0.19738 0.0
H732 H 0.41187 0.30209 0.17186 0.0
C733 C 0.40432 0.23917 0.23711 0.0
C734 C 0.5707 0.38536 0.04479 0.0
C735 C 0.54934 0.40837 0.03013 0.0
H736 H 0.57347 0.33949 0.07693 0.0
C737 C 0.51305 0.40168 0.03683 0.0
H738 H 0.59863 0.38944 0.03973 0.0
C739 C 0.49853 0.37282 0.05791 0.0
C740 C 0.52 0.3501 0.07288 0.0
H741 H 0.49594 0.41913 0.02633 0.0
H742 H 0.47056 0.36861 0.0628 0.0
C743 C 0.55622 0.35661 0.06598 0.0
C744 C 0.62253 0.20053 0.25514 0.0
C745 C 0.6438 0.23256 0.26254 0.0
H746 H 0.57689 0.17438 0.22815 0.0
C747 C 0.63416 0.26353 0.24822 0.0
H748 H 0.62903 0.17624 0.26611 0.0
C749 C 0.60426 0.26248 0.22659 0.0
C750 C 0.58324 0.23044 0.2188 0.0
H751 H 0.65021 0.2886 0.2531 0.0
H752 H 0.59788 0.28685 0.21565 0.0
C753 C 0.59254 0.19948 0.23354 0.0
C754 C 0.52771 0.12882 0.05388 0.0
C755 C 0.49303 0.11896 0.04059 0.0
H756 H 0.5632 0.16379 0.08453 0.0
C757 C 0.46712 0.13785 0.04887 0.0
H758 H 0.54825 0.11459 0.04857 0.0
C759 C 0.47557 0.1656 0.07007 0.0
C760 C 0.51025 0.1755 0.08313 0.0
H761 H 0.4403 0.13157 0.03861 0.0
H762 H 0.45499 0.17964 0.07578 0.0
C763 C 0.53625 0.15689 0.07474 0.0
C764 C 0.28182 0.39545 0.75978 0.0
C765 C 0.26812 0.3798 0.7298 0.0
H766 H 0.31593 0.43827 0.78176 0.0
C767 C 0.27897 0.39615 0.69812 0.0
H768 H 0.27417 0.38321 0.78455 0.0
C769 C 0.30275 0.42783 0.69647 0.0
C770 C 0.31643 0.44351 0.72648 0.0
H771 H 0.26861 0.38472 0.67461 0.0
H772 H 0.31045 0.43996 0.67168 0.0
C773 C 0.30586 0.42688 0.75816 0.0
C774 C 0.30211 0.65182 0.74621 0.0
C775 C 0.29826 0.66869 0.77575 0.0
H776 H 0.32396 0.6123 0.72428 0.0
C777 C 0.314 0.65814 0.80664 0.0
H778 H 0.29025 0.65956 0.72207 0.0
C779 C 0.33316 0.63098 0.80803 0.0
C780 C 0.33714 0.61408 0.77846 0.0
H781 H 0.31141 0.67096 0.82969 0.0
H782 H 0.34499 0.62341 0.83223 0.0
C783 C 0.32143 0.6248 0.74752 0.0
C784 C 0.8841 0.49901 0.47811 0.0
C785 C 0.90248 0.51171 0.5077 0.0
H786 H 0.83771 0.46777 0.45695 0.0
C787 C 0.88678 0.50238 0.5394 0.0
H788 H 0.89512 0.50613 0.45321 0.0
C789 C 0.85364 0.48074 0.54148 0.0
C790 C 0.8355 0.46775 0.51194 0.0
H791 H 0.90036 0.51126 0.56275 0.0
H792 H 0.84249 0.4738 0.56636 0.0
C793 C 0.85105 0.4772 0.48022 0.0
C794 C 0.72693 0.86287 0.79414 0.0
C795 C 0.74542 0.8572 0.82506 0.0
H796 H 0.69264 0.89271 0.76603 0.0
C797 C 0.74213 0.87765 0.85231 0.0
H798 H 0.72854 0.84725 0.7728 0.0
C799 C 0.72154 0.90376 0.84845 0.0
C800 C 0.70357 0.90985 0.81731 0.0
H801 H 0.75624 0.8741 0.87637 0.0
H802 H 0.72011 0.91946 0.86976 0.0
C803 C 0.70616 0.8888 0.79034 0.0
C804 C 0.65498 0.51757 0.04217 0.0
C805 C 0.6468 0.51115 0.00775 0.0
H806 H 0.69181 0.54378 0.07831 0.0
C807 C 0.67132 0.52616 0.98306 0.0
H808 H 0.63649 0.50683 0.0618 0.0
C809 C 0.70293 0.54766 0.9925 0.0
C810 C 0.71079 0.55451 0.02687 0.0
H811 H 0.66609 0.52132 0.95638 0.0
H812 H 0.72105 0.55915 0.97281 0.0
C813 C 0.68664 0.53892 0.05163 0.0
C814 C 0.26138 0.62252 0.26288 0.0
C815 C 0.25076 0.65503 0.25807 0.0
H816 H 0.24499 0.56732 0.27236 0.0
C817 C 0.21494 0.65689 0.26063 0.0
H818 H 0.2889 0.62051 0.26091 0.0
C819 C 0.19003 0.62679 0.26756 0.0
C820 C 0.20034 0.59408 0.27154 0.0
H821 H 0.20619 0.68174 0.25722 0.0
H822 H 0.16256 0.62913 0.26914 0.0
C823 C 0.23628 0.59219 0.26923 0.0
C824 C 0.91981 0.5449 0.07177 0.0
C825 C 0.94012 0.53472 0.0467 0.0
H826 H 0.87952 0.57331 0.08282 0.0
C827 C 0.93541 0.54718 0.01267 0.0
H828 H 0.92236 0.53554 0.09817 0.0
C829 C 0.91055 0.5685 0.00384 0.0
C830 C 0.88992 0.57822 0.02881 0.0
H831 H 0.95104 0.54055 0.99274 0.0
H832 H 0.90743 0.57724 0.97732 0.0
C833 C 0.8951 0.56648 0.06295 0.0
C834 C 0.12892 1.00034 0.98424 0.0
C835 C 0.10797 0.98546 0.01165 0.0
H836 H 0.17401 0.99852 0.95492 0.0
C837 C 0.11759 0.95745 0.03176 0.0
H838 H 0.12225 0.0224 0.96879 0.0
C839 C 0.14715 0.94382 0.02399 0.0
C840 C 0.16783 0.95818 0.9961 0.0
H841 H 0.10212 0.94602 0.0534 0.0
H842 H 0.1537 0.92198 0.03982 0.0
C843 C 0.15851 0.98672 0.97641 0.0
loop_
_geom_bond_atom_site_label_1
_geom_bond_atom_site_label_2
_geom_bond_distance
_geom_bond_site_symmetry_2
_ccdc_geom_bond_type
H0 C7 0.929 . S
H1 C10 0.930 . S
H2 C12 0.929 1_556 S
H3 C4 0.969 . S
C4 H3 0.969 . S
C4 O5 1.550 1_565 S
C4 H6 0.973 . S
O5 C4 1.550 1_545 S
O5 C11 1.412 . S
H6 C4 0.973 . S
C7 H0 0.929 . S
C7 C8 1.400 1_655 S
C7 C9 1.357 1_655 S
C8 C7 1.400 1_455 S
C8 C12 1.377 . S
C9 C7 1.357 1_455 S
C9 C10 1.393 . S
C10 H1 0.930 . S
C10 C9 1.393 . S
C10 C11 1.383 . S
C11 O5 1.412 . S
C11 C10 1.383 . S
C11 C12 1.394 . S
C12 H2 0.929 1_554 S
C12 C8 1.377 . S
C12 C11 1.394 . S
H13 C20 0.929 . S
H14 C23 0.930 . S
H15 C25 0.929 . S
H16 C17 0.969 . S
C17 H16 0.969 . S
C17 O18 1.550 . S
C17 H19 0.973 . S
O18 C17 1.550 . S
O18 C24 1.412 . S
H19 C17 0.973 . S
C20 H13 0.929 . S
C20 C21 1.400 . S
C20 C22 1.364 . S
C21 C20 1.400 . S
C21 C25 1.377 . S
C22 C20 1.364 . S
C22 C23 1.374 . S
C23 H14 0.930 . S
C23 C22 1.374 . S
C23 C24 1.383 . S
C24 O18 1.412 . S
C24 C23 1.383 . S
C24 C25 1.394 . S
C25 H15 0.929 . S
C25 C21 1.377 . S
C25 C24 1.394 . S
H26 C33 0.929 . S
H27 C36 0.930 . S
H28 C38 0.929 . S
H29 C30 0.969 1_556 S
C30 H29 0.969 1_554 S
C30 O31 1.550 . S
C30 H32 0.973 1_554 S
O31 C30 1.550 . S
O31 C37 1.412 . S
H32 C30 0.973 1_556 S
C33 H26 0.929 . S
C33 C34 1.420 . S
C33 C35 1.364 . S
C34 C33 1.420 . S
C34 C38 1.369 1_655 S
C35 C33 1.364 . S
C35 C36 1.374 . S
C36 H27 0.930 . S
C36 C35 1.374 . S
C36 C37 1.383 . S
C37 O31 1.412 . S
C37 C36 1.383 . S
C37 C38 1.394 1_655 S
C38 H28 0.929 . S
C38 C34 1.369 1_455 S
C38 C37 1.394 1_455 S
H39 C46 0.929 . S
H40 C49 0.930 . S
H41 C51 0.929 . S
H42 C43 0.969 . S
C43 H42 0.969 . S
C43 O44 1.550 . S
C43 H45 0.973 . S
O44 C43 1.550 . S
O44 C50 1.412 . S
H45 C43 0.973 . S
C46 H39 0.929 . S
C46 C47 1.400 . S
C46 C48 1.364 . S
C47 C46 1.400 . S
C47 C51 1.377 . S
C48 C46 1.364 . S
C48 C49 1.374 . S
C49 H40 0.930 . S
C49 C48 1.374 . S
C49 C50 1.383 . S
C50 O44 1.412 . S
C50 C49 1.383 . S
C50 C51 1.394 . S
C51 H41 0.929 . S
C51 C47 1.377 . S
C51 C50 1.394 . S
H52 C59 0.929 . S
H53 C62 0.930 . S
H54 C64 0.929 . S
H55 C56 0.969 . S
C56 H55 0.969 . S
C56 O57 1.550 1_655 S
C56 H58 0.973 . S
O57 C56 1.550 1_455 S
O57 C63 1.412 . S
H58 C56 0.973 . S
C59 H52 0.929 . S
C59 C60 1.400 1_565 S
C59 C61 1.364 . S
C60 C59 1.400 1_545 S
C60 C64 1.377 . S
C61 C59 1.364 . S
C61 C62 1.374 . S
C62 H53 0.930 . S
C62 C61 1.374 . S
C62 C63 1.383 . S
C63 O57 1.412 . S
C63 C62 1.383 . S
C63 C64 1.394 1_565 S
C64 H54 0.929 . S
C64 C60 1.377 . S
C64 C63 1.394 1_545 S
H65 C72 0.929 . S
H66 C75 0.930 . S
H67 C77 0.929 . S
H68 C69 0.969 . S
C69 H68 0.969 . S
C69 O70 1.550 . S
C69 H71 0.973 . S
O70 C69 1.550 . S
O70 C76 1.412 . S
H71 C69 0.973 . S
C72 H65 0.929 . S
C72 C73 1.400 . S
C72 C74 1.364 . S
C73 C72 1.400 . S
C73 C77 1.377 . S
C74 C72 1.364 . S
C74 C75 1.374 . S
C75 H66 0.930 . S
C75 C74 1.374 . S
C75 C76 1.383 . S
C76 O70 1.412 . S
C76 C75 1.383 . S
C76 C77 1.394 . S
C77 H67 0.929 . S
C77 C73 1.377 . S
C77 C76 1.394 . S
H78 C85 0.929 . S
H79 C88 0.930 . S
H80 C90 0.929 . S
H81 C82 0.969 . S
C82 H81 0.969 . S
C82 O83 1.550 . S
C82 H84 0.973 . S
O83 C82 1.550 . S
O83 C89 1.381 1_455 S
H84 C82 0.973 . S
C85 H78 0.929 . S
C85 C86 1.400 . S
C85 C87 1.364 . S
C86 C85 1.400 . S
C86 C90 1.377 1_655 S
C87 C85 1.364 . S
C87 C88 1.374 . S
C88 H79 0.930 . S
C88 C87 1.374 . S
C88 C89 1.407 . S
C89 O83 1.381 1_655 S
C89 C88 1.407 . S
C89 C90 1.396 1_655 S
C90 H80 0.929 . S
C90 C86 1.377 1_455 S
C90 C89 1.396 1_455 S
H91 C98 0.929 . S
H92 C101 0.930 . S
H93 C103 0.929 . S
H94 C95 0.969 . S
C95 H94 0.969 . S
C95 O96 1.550 . S
C95 H97 0.973 . S
O96 C95 1.550 . S
O96 C102 1.412 . S
H97 C95 0.973 . S
C98 H91 0.929 . S
C98 C99 1.400 . S
C98 C100 1.364 . S
C99 C98 1.400 . S
C99 C103 1.377 . S
C100 C98 1.364 . S
C100 C101 1.374 . S
C101 H92 0.930 . S
C101 C100 1.374 . S
C101 C102 1.383 . S
C102 O96 1.412 . S
C102 C101 1.383 . S
C102 C103 1.394 . S
C103 H93 0.929 . S
C103 C99 1.377 . S
C103 C102 1.394 . S
H104 C111 0.929 . S
H105 C114 0.930 . S
H106 C116 0.929 . S
H107 C108 0.969 . S
C108 H107 0.969 . S
C108 O109 1.550 . S
C108 H110 0.973 . S
O109 C108 1.550 . S
O109 C115 1.412 . S
H110 C108 0.973 . S
C111 H104 0.929 . S
C111 C112 1.400 . S
C111 C113 1.364 . S
C112 C111 1.400 . S
C112 C116 1.377 . S
C113 C111 1.364 . S
C113 C114 1.374 . S
C114 H105 0.930 . S
C114 C113 1.374 . S
C114 C115 1.383 . S
C115 O109 1.412 . S
C115 C114 1.383 . S
C115 C116 1.394 . S
C116 H106 0.929 . S
C116 C112 1.377 . S
C116 C115 1.394 . S
H117 C124 0.929 1_545 S
H118 C127 0.930 . S
H119 C129 0.929 . S
H120 C121 0.969 . S
C121 H120 0.969 . S
C121 O122 1.550 . S
C121 H123 0.973 . S
O122 C121 1.550 . S
O122 C128 1.412 . S
H123 C121 0.973 . S
C124 H117 0.929 1_565 S
C124 C125 1.400 . S
C124 C126 1.364 . S
C125 C124 1.400 . S
C125 C129 1.377 . S
C126 C124 1.364 . S
C126 C127 1.374 . S
C127 H118 0.930 . S
C127 C126 1.374 . S
C127 C128 1.383 . S
C128 O122 1.412 . S
C128 C127 1.383 . S
C128 C129 1.394 . S
C129 H119 0.929 . S
C129 C125 1.377 . S
C129 C128 1.394 . S
H130 C137 0.929 . S
H131 C140 0.930 . S
H132 C142 0.929 . S
H133 C134 0.969 . S
C134 H133 0.969 . S
C134 O135 1.550 . S
C134 H136 0.973 . S
O135 C134 1.550 . S
O135 C141 1.412 . S
H136 C134 0.973 . S
C137 H130 0.929 . S
C137 C138 1.400 . S
C137 C139 1.364 . S
C138 C137 1.400 . S
C138 C142 1.377 . S
C139 C137 1.364 . S
C139 C140 1.374 . S
C140 H131 0.930 . S
C140 C139 1.374 . S
C140 C141 1.383 . S
C141 O135 1.412 . S
C141 C140 1.383 . S
C141 C142 1.394 . S
C142 H132 0.929 . S
C142 C138 1.377 . S
C142 C141 1.394 . S
H143 C150 0.929 . S
H144 C153 0.930 . S
H145 C155 0.929 . S
H146 C147 0.969 . S
C147 H146 0.969 . S
C147 O148 1.550 . S
C147 H149 0.973 . S
O148 C147 1.550 . S
O148 C154 1.412 . S
H149 C147 0.973 . S
C150 H143 0.929 . S
C150 C151 1.400 . S
C150 C152 1.364 . S
C151 C150 1.400 . S
C151 C155 1.377 . S
C152 C150 1.364 . S
C152 C153 1.374 . S
C153 H144 0.930 . S
C153 C152 1.374 . S
C153 C154 1.383 . S
C154 O148 1.412 . S
C154 C153 1.383 . S
C154 C155 1.394 . S
C155 H145 0.929 . S
C155 C151 1.377 . S
C155 C154 1.394 . S
H156 C163 0.929 . S
H157 C166 0.930 . S
H158 C168 0.929 . S
H159 C160 0.969 . S
C160 H159 0.969 . S
C160 O161 1.550 . S
C160 H162 0.973 . S
O161 C160 1.550 . S
O161 C167 1.412 . S
H162 C160 0.973 . S
C163 H156 0.929 . S
C163 C164 1.400 . S
C163 C165 1.364 . S
C164 C163 1.400 . S
C164 C168 1.377 . S
C165 C163 1.364 . S
C165 C166 1.374 . S
C166 H157 0.930 . S
C166 C165 1.374 . S
C166 C167 1.383 . S
C167 O161 1.412 . S
C167 C166 1.383 . S
C167 C168 1.394 . S
C168 H158 0.929 . S
C168 C164 1.377 . S
C168 C167 1.394 . S
H169 C176 0.929 1_554 S
H170 C179 0.930 . S
H171 C181 0.929 . S
H172 C173 0.969 . S
C173 H172 0.969 . S
C173 O174 1.550 . S
C173 H175 0.973 . S
O174 C173 1.550 . S
O174 C180 1.412 . S
H175 C173 0.973 . S
C176 H169 0.929 1_556 S
C176 C177 1.400 . S
C176 C178 1.364 . S
C177 C176 1.400 . S
C177 C181 1.377 . S
C178 C176 1.364 . S
C178 C179 1.374 . S
C179 H170 0.930 . S
C179 C178 1.374 . S
C179 C180 1.383 . S
C180 O174 1.412 . S
C180 C179 1.383 . S
C180 C181 1.394 . S
C181 H171 0.929 . S
C181 C177 1.377 . S
C181 C180 1.394 . S
H182 C189 0.929 . S
H183 C192 0.930 . S
H184 C194 0.929 . S
H185 C186 0.969 . S
C186 H185 0.969 . S
C186 O187 1.550 . S
C186 H188 0.973 . S
O187 C186 1.550 . S
O187 C193 1.412 . S
H188 C186 0.973 . S
C189 H182 0.929 . S
C189 C190 1.400 . S
C189 C191 1.364 . S
C190 C189 1.400 . S
C190 C194 1.377 . S
C191 C189 1.364 . S
C191 C192 1.374 . S
C192 H183 0.930 . S
C192 C191 1.374 . S
C192 C193 1.383 . S
C193 O187 1.412 . S
C193 C192 1.383 . S
C193 C194 1.394 . S
C194 H184 0.929 . S
C194 C190 1.377 . S
C194 C193 1.394 . S
H195 C202 0.929 . S
H196 C205 0.930 . S
H197 C207 0.929 . S
H198 C199 0.969 . S
C199 H198 0.969 . S
C199 O200 1.550 . S
C199 H201 0.973 . S
O200 C199 1.550 . S
O200 C206 1.412 . S
H201 C199 0.973 . S
C202 H195 0.929 . S
C202 C203 1.400 . S
C202 C204 1.364 1_554 S
C203 C202 1.400 . S
C203 C207 1.377 1_554 S
C204 C202 1.364 1_556 S
C204 C205 1.374 . S
C205 H196 0.930 . S
C205 C204 1.374 . S
C205 C206 1.383 . S
C206 O200 1.412 . S
C206 C205 1.383 . S
C206 C207 1.394 . S
C207 H197 0.929 . S
C207 C203 1.377 1_556 S
C207 C206 1.394 . S
C208 O209 1.190 . S
C208 O215 1.165 1_556 S
O209 C208 1.190 . S
O210 Zn211 1.899 1_556 S
O210 C218 1.284 . S
Zn211 O210 1.899 1_554 S
Zn211 O212 2.032 1_554 S
Zn211 O215 2.086 . S
Zn211 O220 1.977 . S
O212 Zn211 2.032 1_556 S
O212 C216 1.282 . S
C213 O214 1.203 . S
C213 O220 1.267 . S
O214 C213 1.203 . S
O215 C208 1.165 1_554 S
O215 Zn211 2.086 . S
C216 O212 1.282 . S
C216 O217 1.203 1_556 S
O217 C216 1.203 1_554 S
C218 O210 1.284 . S
C218 O219 1.273 . S
O219 C218 1.273 . S
O220 Zn211 1.977 . S
O220 C213 1.267 . S
C221 O222 1.160 . S
C221 O228 1.185 . S
O222 C221 1.160 . S
O223 Zn224 1.899 . S
O223 C231 1.284 . S
Zn224 O223 1.899 . S
Zn224 O225 2.032 . S
Zn224 O228 2.086 . S
Zn224 O233 1.977 . S
O225 Zn224 2.032 . S
O225 C229 1.278 . S
C226 O227 1.203 . S
C226 O233 1.267 . S
O227 C226 1.203 . S
O228 C221 1.185 . S
O228 Zn224 2.086 . S
C229 O225 1.278 . S
C229 O230 1.211 . S
O230 C229 1.211 . S
C231 O223 1.284 . S
C231 O232 1.273 . S
O232 C231 1.273 . S
O233 Zn224 1.977 . S
O233 C226 1.267 . S
C234 O235 1.160 . S
C234 O241 1.185 . S
O235 C234 1.160 . S
O236 Zn237 1.899 . S
O236 C244 1.284 1_554 S
Zn237 O236 1.899 . S
Zn237 O238 2.032 . S
Zn237 O241 2.086 . S
Zn237 O246 1.977 . S
O238 Zn237 2.032 . S
O238 C242 1.278 . S
C239 O240 1.203 . S
C239 O246 1.267 . S
O240 C239 1.203 . S
O241 C234 1.185 . S
O241 Zn237 2.086 . S
C242 O238 1.278 . S
C242 O243 1.211 . S
O243 C242 1.211 . S
C244 O236 1.284 1_556 S
C244 O245 1.273 . S
O245 C244 1.273 . S
O246 Zn237 1.977 . S
O246 C239 1.267 . S
C247 O248 1.160 . S
C247 O254 1.185 . S
O248 C247 1.160 . S
O249 Zn250 1.899 . S
O249 C257 1.284 . S
Zn250 O249 1.899 . S
Zn250 O251 2.032 . S
Zn250 O254 2.086 . S
Zn250 O259 1.977 . S
O251 Zn250 2.032 . S
O251 C255 1.278 1_545 S
C252 O253 1.203 . S
C252 O259 1.267 . S
O253 C252 1.203 . S
O254 C247 1.185 . S
O254 Zn250 2.086 . S
C255 O251 1.278 1_565 S
C255 O256 1.211 . S
O256 C255 1.211 . S
C257 O249 1.284 . S
C257 O258 1.273 1_545 S
O258 C257 1.273 1_565 S
O259 Zn250 1.977 . S
O259 C252 1.267 . S
C260 O261 1.160 . S
C260 O267 1.185 . S
O261 C260 1.160 . S
O262 Zn263 1.899 . S
O262 C270 1.284 . S
Zn263 O262 1.899 . S
Zn263 O264 2.032 . S
Zn263 O267 2.086 . S
Zn263 O272 1.977 . S
O264 Zn263 2.032 . S
O264 C268 1.278 . S
C265 O266 1.203 . S
C265 O272 1.267 . S
O266 C265 1.203 . S
O267 C260 1.185 . S
O267 Zn263 2.086 . S
C268 O264 1.278 . S
C268 O269 1.211 . S
O269 C268 1.211 . S
C270 O262 1.284 . S
C270 O271 1.273 . S
O271 C270 1.273 . S
O272 Zn263 1.977 . S
O272 C265 1.267 . S
C273 O274 1.160 . S
C273 O280 1.185 . S
O274 C273 1.160 . S
O275 Zn276 1.899 . S
O275 C283 1.284 . S
Zn276 O275 1.899 . S
Zn276 O277 2.032 . S
Zn276 O280 2.086 . S
Zn276 O285 1.977 . S
O277 Zn276 2.032 . S
O277 C281 1.278 . S
C278 O279 1.203 . S
C278 O285 1.267 . S
O279 C278 1.203 . S
O280 C273 1.185 . S
O280 Zn276 2.086 . S
C281 O277 1.278 . S
C281 O282 1.211 . S
O282 C281 1.211 . S
C283 O275 1.284 . S
C283 O284 1.273 . S
O284 C283 1.273 . S
O285 Zn276 1.977 . S
O285 C278 1.267 . S
C286 O287 1.160 . S
C286 O293 1.185 . S
O287 C286 1.160 . S
O288 Zn289 1.899 . S
O288 C296 1.284 . S
Zn289 O288 1.899 . S
Zn289 O290 2.032 . S
Zn289 O293 2.086 . S
Zn289 O298 1.977 . S
O290 Zn289 2.032 . S
O290 C294 1.278 . S
C291 O292 1.203 . S
C291 O298 1.267 . S
O292 C291 1.203 . S
O293 C286 1.185 . S
O293 Zn289 2.086 . S
C294 O290 1.278 . S
C294 O295 1.211 . S
O295 C294 1.211 . S
C296 O288 1.284 . S
C296 O297 1.273 . S
O297 C296 1.273 . S
O298 Zn289 1.977 . S
O298 C291 1.267 . S
C299 O300 1.160 . S
C299 O306 1.185 . S
O300 C299 1.160 . S
O301 Zn302 1.899 . S
O301 C309 1.284 1_565 S
Zn302 O301 1.899 . S
Zn302 O303 2.032 1_565 S
Zn302 O306 2.086 . S
Zn302 O311 1.977 . S
O303 Zn302 2.032 1_545 S
O303 C307 1.278 . S
C304 O305 1.203 1_565 S
C304 O311 1.267 . S
O305 C304 1.203 1_545 S
O306 C299 1.185 . S
O306 Zn302 2.086 . S
C307 O303 1.278 . S
C307 O308 1.211 . S
O308 C307 1.211 . S
C309 O301 1.284 1_545 S
C309 O310 1.273 . S
O310 C309 1.273 . S
O311 Zn302 1.977 . S
O311 C304 1.267 . S
C312 O313 1.160 . S
C312 O319 1.185 1_655 S
O313 C312 1.160 . S
O314 Zn315 1.899 1_655 S
O314 C322 1.284 . S
Zn315 O314 1.899 1_455 S
Zn315 O316 2.032 1_455 S
Zn315 O319 2.086 . S
Zn315 O324 1.977 . S
O316 Zn315 2.032 1_655 S
O316 C320 1.278 1_655 S
C317 O318 1.203 . S
C317 O324 1.267 . S
O318 C317 1.203 . S
O319 C312 1.185 1_455 S
O319 Zn315 2.086 . S
C320 O316 1.278 1_455 S
C320 O321 1.211 . S
O321 C320 1.211 . S
C322 O314 1.284 . S
C322 O323 1.273 . S
O323 C322 1.273 . S
O324 Zn315 1.977 . S
O324 C317 1.267 . S
C325 O326 1.160 . S
C325 O332 1.185 . S
O326 C325 1.160 . S
O327 Zn328 1.899 . S
O327 C335 1.284 . S
Zn328 O327 1.899 . S
Zn328 O329 2.032 . S
Zn328 O332 2.086 . S
Zn328 O337 1.977 . S
O329 Zn328 2.032 . S
O329 C333 1.278 . S
C330 O331 1.203 . S
C330 O337 1.267 . S
O331 C330 1.203 . S
O332 C325 1.185 . S
O332 Zn328 2.086 . S
C333 O329 1.278 . S
C333 O334 1.211 . S
O334 C333 1.211 . S
C335 O327 1.284 . S
C335 O336 1.273 . S
O336 C335 1.273 . S
O337 Zn328 1.977 . S
O337 C330 1.267 . S
C338 O339 1.160 1_455 S
C338 O345 1.185 . S
O339 C338 1.160 1_655 S
O340 Zn341 1.899 1_655 S
O340 C348 1.284 . S
Zn341 O340 1.899 1_455 S
Zn341 O342 2.032 . S
Zn341 O345 2.086 . S
Zn341 O350 1.977 . S
O342 Zn341 2.032 . S
O342 C346 1.278 . S
C343 O344 1.203 . S
C343 O350 1.267 . S
O344 C343 1.203 . S
O345 C338 1.185 . S
O345 Zn341 2.086 . S
C346 O342 1.278 . S
C346 O347 1.211 . S
O347 C346 1.211 . S
C348 O340 1.284 . S
C348 O349 1.273 . S
O349 C348 1.273 . S
O350 Zn341 1.977 . S
O350 C343 1.267 . S
C351 O352 1.160 . S
C351 O358 1.185 . S
O352 C351 1.160 . S
O353 Zn354 1.899 . S
O353 C361 1.284 . S
Zn354 O353 1.899 . S
Zn354 O355 2.032 . S
Zn354 O358 2.086 . S
Zn354 O363 1.977 . S
O355 Zn354 2.032 . S
O355 C359 1.278 . S
C356 O357 1.203 . S
C356 O363 1.267 . S
O357 C356 1.203 . S
O358 C351 1.185 . S
O358 Zn354 2.086 . S
C359 O355 1.278 . S
C359 O360 1.211 . S
O360 C359 1.211 . S
C361 O353 1.284 . S
C361 O362 1.273 . S
O362 C361 1.273 . S
O363 Zn354 1.977 . S
O363 C356 1.267 . S
C364 C365 1.387 . S
C364 H368 0.950 . S
C364 C373 1.390 . S
C365 C364 1.387 . S
C365 C367 1.387 . S
H366 C373 0.950 . S
C367 C365 1.387 . S
C367 C369 1.390 . S
C367 H371 0.950 . S
H368 C364 0.950 . S
C369 C367 1.390 . S
C369 C370 1.387 . S
C369 H372 0.950 . S
C370 C369 1.387 . S
C370 C373 1.387 . S
H371 C367 0.950 . S
H372 C369 0.950 . S
C373 C364 1.390 . S
C373 H366 0.950 . S
C373 C370 1.387 . S
C374 C375 1.387 . S
C374 H378 0.950 . S
C374 C383 1.390 . S
C375 C374 1.387 . S
C375 C377 1.387 . S
H376 C383 0.950 . S
C377 C375 1.387 . S
C377 C379 1.390 . S
C377 H381 0.950 . S
H378 C374 0.950 . S
C379 C377 1.390 . S
C379 C380 1.387 . S
C379 H382 0.950 . S
C380 C379 1.387 . S
C380 C383 1.387 . S
H381 C377 0.950 . S
H382 C379 0.950 . S
C383 C374 1.390 . S
C383 H376 0.950 . S
C383 C380 1.387 . S
C384 C385 1.387 . S
C384 H388 0.950 . S
C384 C393 1.390 . S
C385 C384 1.387 . S
C385 C387 1.387 . S
H386 C393 0.950 . S
C387 C385 1.387 . S
C387 C389 1.390 . S
C387 H391 0.950 . S
H388 C384 0.950 . S
C389 C387 1.390 . S
C389 C390 1.387 . S
C389 H392 0.950 . S
C390 C389 1.387 . S
C390 C393 1.387 . S
H391 C387 0.950 . S
H392 C389 0.950 . S
C393 C384 1.390 . S
C393 H386 0.950 . S
C393 C390 1.387 . S
C394 C395 1.387 . S
C394 H398 0.957 1_655 S
C394 C403 1.384 1_565 S
C395 C394 1.387 . S
C395 C397 1.393 . S
H396 C403 0.950 . S
C397 C395 1.393 . S
C397 C399 1.385 1_565 S
C397 H401 0.950 . S
H398 C394 0.957 1_455 S
C399 C397 1.385 1_545 S
C399 C400 1.387 . S
C399 H402 0.950 . S
C400 C399 1.387 . S
C400 C403 1.387 . S
H401 C397 0.950 . S
H402 C399 0.950 . S
C403 C394 1.384 1_545 S
C403 H396 0.950 . S
C403 C400 1.387 . S
C404 C405 1.387 . S
C404 H408 0.950 . S
C404 C413 1.390 . S
C405 C404 1.387 . S
C405 C407 1.387 . S
H406 C413 0.950 . S
C407 C405 1.387 . S
C407 C409 1.390 . S
C407 H411 0.950 . S
H408 C404 0.950 . S
C409 C407 1.390 . S
C409 C410 1.387 . S
C409 H412 0.950 . S
C410 C409 1.387 . S
C410 C413 1.387 . S
H411 C407 0.950 . S
H412 C409 0.950 . S
C413 C404 1.390 . S
C413 H406 0.950 . S
C413 C410 1.387 . S
C414 C415 1.387 . S
C414 H418 0.950 . S
C414 C423 1.390 . S
C415 C414 1.387 . S
C415 C417 1.387 . S
H416 C423 0.950 . S
C417 C415 1.387 . S
C417 C419 1.390 . S
C417 H421 0.950 . S
H418 C414 0.950 . S
C419 C417 1.390 . S
C419 C420 1.387 . S
C419 H422 0.950 . S
C420 C419 1.387 . S
C420 C423 1.387 . S
H421 C417 0.950 . S
H422 C419 0.950 . S
C423 C414 1.390 . S
C423 H416 0.950 . S
C423 C420 1.387 . S
C424 C425 1.387 . S
C424 H428 0.950 . S
C424 C433 1.390 . S
C425 C424 1.387 . S
C425 C427 1.387 . S
H426 C433 0.950 . S
C427 C425 1.387 . S
C427 C429 1.390 . S
C427 H431 0.950 . S
H428 C424 0.950 . S
C429 C427 1.390 . S
C429 C430 1.387 . S
C429 H432 0.950 . S
C430 C429 1.387 . S
C430 C433 1.387 . S
H431 C427 0.950 . S
H432 C429 0.950 . S
C433 C424 1.390 . S
C433 H426 0.950 . S
C433 C430 1.387 . S
C434 C435 1.387 . S
C434 H438 0.950 . S
C434 C443 1.390 . S
C435 C434 1.387 . S
C435 C437 1.387 1_565 S
H436 C443 0.950 . S
C437 C435 1.387 1_545 S
C437 C439 1.390 . S
C437 H441 0.950 . S
H438 C434 0.950 . S
C439 C437 1.390 . S
C439 C440 1.387 1_545 S
C439 H442 0.950 . S
C440 C439 1.387 1_565 S
C440 C443 1.387 . S
H441 C437 0.950 . S
H442 C439 0.950 . S
C443 C434 1.390 . S
C443 H436 0.950 . S
C443 C440 1.387 . S
C444 C445 1.387 . S
C444 H448 0.950 . S
C444 C453 1.390 . S
C445 C444 1.387 . S
C445 C447 1.387 . S
H446 C453 0.950 . S
C447 C445 1.387 . S
C447 C449 1.390 . S
C447 H451 0.950 . S
H448 C444 0.950 . S
C449 C447 1.390 . S
C449 C450 1.387 . S
C449 H452 0.950 . S
C450 C449 1.387 . S
C450 C453 1.387 . S
H451 C447 0.950 . S
H452 C449 0.950 . S
C453 C444 1.390 . S
C453 H446 0.950 . S
C453 C450 1.387 . S
C454 C455 1.387 . S
C454 H458 0.950 . S
C454 C463 1.390 . S
C455 C454 1.387 . S
C455 C457 1.387 . S
H456 C463 0.950 . S
C457 C455 1.387 . S
C457 C459 1.390 . S
C457 H461 0.950 . S
H458 C454 0.950 . S
C459 C457 1.390 . S
C459 C460 1.387 . S
C459 H462 0.950 . S
C460 C459 1.387 . S
C460 C463 1.387 . S
H461 C457 0.950 . S
H462 C459 0.950 . S
C463 C454 1.390 . S
C463 H456 0.950 . S
C463 C460 1.387 . S
C464 C465 1.387 . S
C464 H468 0.950 . S
C464 C473 1.390 . S
C465 C464 1.387 . S
C465 C467 1.387 . S
H466 C473 0.950 . S
C467 C465 1.387 . S
C467 C469 1.390 . S
C467 H471 0.950 . S
H468 C464 0.950 . S
C469 C467 1.390 . S
C469 C470 1.387 . S
C469 H472 0.950 . S
C470 C469 1.387 . S
C470 C473 1.387 . S
H471 C467 0.950 . S
H472 C469 0.950 . S
C473 C464 1.390 . S
C473 H466 0.950 . S
C473 C470 1.387 . S
C474 C475 1.387 . S
C474 H478 0.950 . S
C474 C483 1.390 . S
C475 C474 1.387 . S
C475 C477 1.387 . S
H476 C483 0.950 . S
C477 C475 1.387 . S
C477 C479 1.390 . S
C477 H481 0.950 . S
H478 C474 0.950 . S
C479 C477 1.390 . S
C479 C480 1.387 . S
C479 H482 0.950 . S
C480 C479 1.387 . S
C480 C483 1.387 . S
H481 C477 0.950 . S
H482 C479 0.950 . S
C483 C474 1.390 . S
C483 H476 0.950 . S
C483 C480 1.387 . S
C484 C485 1.387 . S
C484 H488 0.950 . S
C484 C493 1.390 . S
C485 C484 1.387 . S
C485 C487 1.387 . S
H486 C493 0.950 . S
C487 C485 1.387 . S
C487 C489 1.390 . S
C487 H491 0.950 . S
H488 C484 0.950 . S
C489 C487 1.390 . S
C489 C490 1.387 . S
C489 H492 0.950 . S
C490 C489 1.387 . S
C490 C493 1.387 . S
H491 C487 0.950 . S
H492 C489 0.950 . S
C493 C484 1.390 . S
C493 H486 0.950 . S
C493 C490 1.387 . S
C494 C495 1.387 . S
C494 H498 0.950 . S
C494 C503 1.390 . S
C495 C494 1.387 . S
C495 C497 1.387 . S
H496 C503 0.950 . S
C497 C495 1.387 . S
C497 C499 1.390 . S
C497 H501 0.950 . S
H498 C494 0.950 . S
C499 C497 1.390 . S
C499 C500 1.387 . S
C499 H502 0.950 . S
C500 C499 1.387 . S
C500 C503 1.387 . S
H501 C497 0.950 . S
H502 C499 0.950 . S
C503 C494 1.390 . S
C503 H496 0.950 . S
C503 C500 1.387 . S
C504 C505 1.387 . S
C504 H508 0.950 . S
C504 C513 1.390 . S
C505 C504 1.387 . S
C505 C507 1.387 . S
H506 C513 0.950 . S
C507 C505 1.387 . S
C507 C509 1.390 . S
C507 H511 0.950 . S
H508 C504 0.950 . S
C509 C507 1.390 . S
C509 C510 1.387 . S
C509 H512 0.950 . S
C510 C509 1.387 . S
C510 C513 1.387 . S
H511 C507 0.950 . S
H512 C509 0.950 . S
C513 C504 1.390 . S
C513 H506 0.950 . S
C513 C510 1.387 . S
C514 C515 1.387 . S
C514 H518 0.950 . S
C514 C523 1.390 . S
C515 C514 1.387 . S
C515 C517 1.387 1_655 S
H516 C523 0.950 . S
C517 C515 1.387 1_455 S
C517 C519 1.390 . S
C517 H521 0.950 . S
H518 C514 0.950 . S
C519 C517 1.390 . S
C519 C520 1.387 1_455 S
C519 H522 0.950 . S
C520 C519 1.387 1_655 S
C520 C523 1.387 . S
H521 C517 0.950 . S
H522 C519 0.950 . S
C523 C514 1.390 . S
C523 H516 0.950 . S
C523 C520 1.387 . S
C524 C525 1.387 . S
C524 H528 0.950 . S
C524 C533 1.390 . S
C525 C524 1.387 . S
C525 C527 1.387 . S
H526 C533 0.950 . S
C527 C525 1.387 . S
C527 C529 1.390 . S
C527 H531 0.950 . S
H528 C524 0.950 . S
C529 C527 1.390 . S
C529 C530 1.387 . S
C529 H532 0.950 . S
C530 C529 1.387 . S
C530 C533 1.387 . S
H531 C527 0.950 . S
H532 C529 0.950 . S
C533 C524 1.390 . S
C533 H526 0.950 . S
C533 C530 1.387 . S
C534 C535 1.387 . S
C534 H538 0.950 . S
C534 C543 1.390 . S
C535 C534 1.387 . S
C535 C537 1.387 . S
H536 C543 0.950 . S
C537 C535 1.387 . S
C537 C539 1.390 . S
C537 H541 0.950 . S
H538 C534 0.950 . S
C539 C537 1.390 . S
C539 C540 1.387 . S
C539 H542 0.950 . S
C540 C539 1.387 . S
C540 C543 1.387 . S
H541 C537 0.950 . S
H542 C539 0.950 . S
C543 C534 1.390 . S
C543 H536 0.950 . S
C543 C540 1.387 . S
C544 C545 1.387 . S
C544 H548 0.950 . S
C544 C553 1.390 1_545 S
C545 C544 1.387 . S
C545 C547 1.387 1_546 S
H546 C553 0.950 . S
C547 C545 1.387 1_564 S
C547 C549 1.390 . S
C547 H551 0.950 . S
H548 C544 0.950 . S
C549 C547 1.390 . S
C549 C550 1.387 1_554 S
C549 H552 0.950 . S
C550 C549 1.387 1_556 S
C550 C553 1.387 . S
H551 C547 0.950 . S
H552 C549 0.950 . S
C553 C544 1.390 1_565 S
C553 H546 0.950 . S
C553 C550 1.387 . S
C554 C555 1.387 . S
C554 H558 0.950 . S
C554 C563 1.390 . S
C555 C554 1.387 . S
C555 C557 1.387 . S
H556 C563 0.950 . S
C557 C555 1.387 . S
C557 C559 1.390 . S
C557 H561 0.950 . S
H558 C554 0.950 . S
C559 C557 1.390 . S
C559 C560 1.387 . S
C559 H562 0.950 . S
C560 C559 1.387 . S
C560 C563 1.387 . S
H561 C557 0.950 . S
H562 C559 0.950 . S
C563 C554 1.390 . S
C563 H556 0.950 . S
C563 C560 1.387 . S
C564 C565 1.387 . S
C564 H568 0.950 . S
C564 C573 1.390 . S
C565 C564 1.387 . S
C565 C567 1.387 . S
H566 C573 0.950 . S
C567 C565 1.387 . S
C567 C569 1.390 . S
C567 H571 0.950 . S
H568 C564 0.950 . S
C569 C567 1.390 . S
C569 C570 1.387 . S
C569 H572 0.950 . S
C570 C569 1.387 . S
C570 C573 1.387 . S
H571 C567 0.950 . S
H572 C569 0.950 . S
C573 C564 1.390 . S
C573 H566 0.950 . S
C573 C570 1.387 . S
C574 C575 1.387 . S
C574 H578 0.950 . S
C574 C583 1.390 . S
C575 C574 1.387 . S
C575 C577 1.387 . S
H576 C583 0.950 . S
C577 C575 1.387 . S
C577 C579 1.390 . S
C577 H581 0.950 . S
H578 C574 0.950 . S
C579 C577 1.390 . S
C579 C580 1.387 . S
C579 H582 0.950 . S
C580 C579 1.387 . S
C580 C583 1.387 . S
H581 C577 0.950 . S
H582 C579 0.950 . S
C583 C574 1.390 . S
C583 H576 0.950 . S
C583 C580 1.387 . S
C584 C585 1.387 . S
C584 H588 0.950 . S
C584 C593 1.390 . S
C585 C584 1.387 . S
C585 C587 1.387 . S
H586 C593 0.950 . S
C587 C585 1.387 . S
C587 C589 1.390 . S
C587 H591 0.950 . S
H588 C584 0.950 . S
C589 C587 1.390 . S
C589 C590 1.387 . S
C589 H592 0.950 . S
C590 C589 1.387 . S
C590 C593 1.387 . S
H591 C587 0.950 . S
H592 C589 0.950 . S
C593 C584 1.390 . S
C593 H586 0.950 . S
C593 C590 1.387 . S
C594 C595 1.387 . S
C594 H598 0.950 . S
C594 C603 1.390 . S
C595 C594 1.387 . S
C595 C597 1.387 . S
H596 C603 0.950 . S
C597 C595 1.387 . S
C597 C599 1.390 . S
C597 H601 0.950 . S
H598 C594 0.950 . S
C599 C597 1.390 . S
C599 C600 1.387 . S
C599 H602 0.950 . S
C600 C599 1.387 . S
C600 C603 1.387 . S
H601 C597 0.950 . S
H602 C599 0.950 . S
C603 C594 1.390 . S
C603 H596 0.950 . S
C603 C600 1.387 . S
C604 C605 1.387 . S
C604 H608 0.950 . S
C604 C613 1.390 . S
C605 C604 1.387 . S
C605 C607 1.387 . S
H606 C613 0.950 . S
C607 C605 1.387 . S
C607 C609 1.390 . S
C607 H611 0.950 . S
H608 C604 0.950 . S
C609 C607 1.390 . S
C609 C610 1.387 . S
C609 H612 0.950 . S
C610 C609 1.387 . S
C610 C613 1.387 . S
H611 C607 0.950 . S
H612 C609 0.950 . S
C613 C604 1.390 . S
C613 H606 0.950 . S
C613 C610 1.387 . S
C614 C615 1.387 . S
C614 H618 0.950 1_545 S
C614 C623 1.390 1_545 S
C615 C614 1.387 . S
C615 C617 1.387 . S
H616 C623 0.950 . S
C617 C615 1.387 . S
C617 C619 1.390 . S
C617 H621 0.950 . S
H618 C614 0.950 1_565 S
C619 C617 1.390 . S
C619 C620 1.387 . S
C619 H622 0.950 . S
C620 C619 1.387 . S
C620 C623 1.387 1_545 S
H621 C617 0.950 . S
H622 C619 0.950 . S
C623 C614 1.390 1_565 S
C623 H616 0.950 . S
C623 C620 1.387 1_565 S
C624 C625 1.387 . S
C624 H628 0.950 . S
C624 C633 1.390 . S
C625 C624 1.387 . S
C625 C627 1.387 . S
H626 C633 0.950 . S
C627 C625 1.387 . S
C627 C629 1.390 . S
C627 H631 0.950 . S
H628 C624 0.950 . S
C629 C627 1.390 . S
C629 C630 1.387 . S
C629 H632 0.950 . S
C630 C629 1.387 . S
C630 C633 1.387 . S
H631 C627 0.950 . S
H632 C629 0.950 . S
C633 C624 1.390 . S
C633 H626 0.950 . S
C633 C630 1.387 . S
C634 C635 1.387 . S
C634 H638 0.950 . S
C634 C643 1.390 . S
C635 C634 1.387 . S
C635 C637 1.387 . S
H636 C643 0.950 . S
C637 C635 1.387 . S
C637 C639 1.390 . S
C637 H641 0.950 . S
H638 C634 0.950 . S
C639 C637 1.390 . S
C639 C640 1.387 . S
C639 H642 0.950 . S
C640 C639 1.387 . S
C640 C643 1.387 . S
H641 C637 0.950 . S
H642 C639 0.950 . S
C643 C634 1.390 . S
C643 H636 0.950 . S
C643 C640 1.387 . S
C644 C645 1.387 . S
C644 H648 0.950 . S
C644 C653 1.390 . S
C645 C644 1.387 . S
C645 C647 1.387 . S
H646 C653 0.950 . S
C647 C645 1.387 . S
C647 C649 1.390 . S
C647 H651 0.950 . S
H648 C644 0.950 . S
C649 C647 1.390 . S
C649 C650 1.387 . S
C649 H652 0.950 . S
C650 C649 1.387 . S
C650 C653 1.387 . S
H651 C647 0.950 . S
H652 C649 0.950 . S
C653 C644 1.390 . S
C653 H646 0.950 . S
C653 C650 1.387 . S
C654 C655 1.387 . S
C654 H658 0.950 . S
C654 C663 1.390 . S
C655 C654 1.387 . S
C655 C657 1.387 . S
H656 C663 0.950 . S
C657 C655 1.387 . S
C657 C659 1.390 . S
C657 H661 0.950 1_545 S
H658 C654 0.950 . S
C659 C657 1.390 . S
C659 C660 1.387 . S
C659 H662 0.950 1_545 S
C660 C659 1.387 . S
C660 C663 1.387 . S
H661 C657 0.950 1_565 S
H662 C659 0.950 1_565 S
C663 C654 1.390 . S
C663 H656 0.950 . S
C663 C660 1.387 . S
C664 C665 1.387 . S
C664 H668 0.950 . S
C664 C673 1.390 . S
C665 C664 1.387 . S
C665 C667 1.387 . S
H666 C673 0.950 . S
C667 C665 1.387 . S
C667 C669 1.390 . S
C667 H671 0.950 . S
H668 C664 0.950 . S
C669 C667 1.390 . S
C669 C670 1.387 . S
C669 H672 0.950 . S
C670 C669 1.387 . S
C670 C673 1.387 . S
H671 C667 0.950 . S
H672 C669 0.950 . S
C673 C664 1.390 . S
C673 H666 0.950 . S
C673 C670 1.387 . S
C674 C675 1.387 . S
C674 H678 0.950 . S
C674 C683 1.390 . S
C675 C674 1.387 . S
C675 C677 1.387 . S
H676 C683 0.950 . S
C677 C675 1.387 . S
C677 C679 1.390 . S
C677 H681 0.950 . S
H678 C674 0.950 . S
C679 C677 1.390 . S
C679 C680 1.387 . S
C679 H682 0.950 . S
C680 C679 1.387 . S
C680 C683 1.387 . S
H681 C677 0.950 . S
H682 C679 0.950 . S
C683 C674 1.390 . S
C683 H676 0.950 . S
C683 C680 1.387 . S
C684 C685 1.387 . S
C684 H688 0.950 . S
C684 C693 1.390 . S
C685 C684 1.387 . S
C685 C687 1.387 . S
H686 C693 0.950 . S
C687 C685 1.387 . S
C687 C689 1.390 . S
C687 H691 0.950 . S
H688 C684 0.950 . S
C689 C687 1.390 . S
C689 C690 1.387 . S
C689 H692 0.950 . S
C690 C689 1.387 . S
C690 C693 1.387 . S
H691 C687 0.950 . S
H692 C689 0.950 . S
C693 C684 1.390 . S
C693 H686 0.950 . S
C693 C690 1.387 . S
C694 C695 1.387 . S
C694 H698 0.950 . S
C694 C703 1.390 . S
C695 C694 1.387 . S
C695 C697 1.387 1_655 S
H696 C703 0.950 . S
C697 C695 1.387 1_455 S
C697 C699 1.390 . S
C697 H701 0.950 . S
H698 C694 0.950 . S
C699 C697 1.390 . S
C699 C700 1.387 1_455 S
C699 H702 0.950 . S
C700 C699 1.387 1_655 S
C700 C703 1.387 . S
H701 C697 0.950 . S
H702 C699 0.950 . S
C703 C694 1.390 . S
C703 H696 0.950 . S
C703 C700 1.387 . S
C704 C705 1.387 . S
C704 H708 0.950 . S
C704 C713 1.390 . S
C705 C704 1.387 . S
C705 C707 1.387 . S
H706 C713 0.950 . S
C707 C705 1.387 . S
C707 C709 1.390 . S
C707 H711 0.950 . S
H708 C704 0.950 . S
C709 C707 1.390 . S
C709 C710 1.387 . S
C709 H712 0.950 . S
C710 C709 1.387 . S
C710 C713 1.387 . S
H711 C707 0.950 . S
H712 C709 0.950 . S
C713 C704 1.390 . S
C713 H706 0.950 . S
C713 C710 1.387 . S
C714 C715 1.387 1_654 S
C714 H718 0.950 . S
C714 C723 1.390 1_554 S
C715 C714 1.387 1_456 S
C715 C717 1.387 . S
H716 C723 0.950 . S
C717 C715 1.387 . S
C717 C719 1.390 . S
C717 H721 0.950 . S
H718 C714 0.950 . S
C719 C717 1.390 . S
C719 C720 1.387 . S
C719 H722 0.950 . S
C720 C719 1.387 . S
C720 C723 1.387 1_455 S
H721 C717 0.950 . S
H722 C719 0.950 . S
C723 C714 1.390 1_556 S
C723 H716 0.950 . S
C723 C720 1.387 1_655 S
C724 C725 1.387 . S
C724 H728 0.950 . S
C724 C733 1.390 . S
C725 C724 1.387 . S
C725 C727 1.387 . S
H726 C733 0.950 . S
C727 C725 1.387 . S
C727 C729 1.390 . S
C727 H731 0.950 . S
H728 C724 0.950 . S
C729 C727 1.390 . S
C729 C730 1.387 . S
C729 H732 0.950 . S
C730 C729 1.387 . S
C730 C733 1.387 . S
H731 C727 0.950 . S
H732 C729 0.950 . S
C733 C724 1.390 . S
C733 H726 0.950 . S
C733 C730 1.387 . S
C734 C735 1.387 . S
C734 H738 0.950 . S
C734 C743 1.390 . S
C735 C734 1.387 . S
C735 C737 1.387 . S
H736 C743 0.950 . S
C737 C735 1.387 . S
C737 C739 1.390 . S
C737 H741 0.950 . S
H738 C734 0.950 . S
C739 C737 1.390 . S
C739 C740 1.387 . S
C739 H742 0.950 . S
C740 C739 1.387 . S
C740 C743 1.387 . S
H741 C737 0.950 . S
H742 C739 0.950 . S
C743 C734 1.390 . S
C743 H736 0.950 . S
C743 C740 1.387 . S
C744 C745 1.387 . S
C744 H748 0.950 . S
C744 C753 1.390 . S
C745 C744 1.387 . S
C745 C747 1.387 . S
H746 C753 0.950 . S
C747 C745 1.387 . S
C747 C749 1.390 . S
C747 H751 0.950 . S
H748 C744 0.950 . S
C749 C747 1.390 . S
C749 C750 1.387 . S
C749 H752 0.950 . S
C750 C749 1.387 . S
C750 C753 1.387 . S
H751 C747 0.950 . S
H752 C749 0.950 . S
C753 C744 1.390 . S
C753 H746 0.950 . S
C753 C750 1.387 . S
C754 C755 1.387 . S
C754 H758 0.950 . S
C754 C763 1.390 . S
C755 C754 1.387 . S
C755 C757 1.387 . S
H756 C763 0.950 . S
C757 C755 1.387 . S
C757 C759 1.390 . S
C757 H761 0.950 . S
H758 C754 0.950 . S
C759 C757 1.390 . S
C759 C760 1.387 . S
C759 H762 0.950 . S
C760 C759 1.387 . S
C760 C763 1.387 . S
H761 C757 0.950 . S
H762 C759 0.950 . S
C763 C754 1.390 . S
C763 H756 0.950 . S
C763 C760 1.387 . S
C764 C765 1.387 . S
C764 H768 0.950 . S
C764 C773 1.390 . S
C765 C764 1.387 . S
C765 C767 1.387 . S
H766 C773 0.950 . S
C767 C765 1.387 . S
C767 C769 1.390 . S
C767 H771 0.950 . S
H768 C764 0.950 . S
C769 C767 1.390 . S
C769 C770 1.387 . S
C769 H772 0.950 . S
C770 C769 1.387 . S
C770 C773 1.387 . S
H771 C767 0.950 . S
H772 C769 0.950 . S
C773 C764 1.390 . S
C773 H766 0.950 . S
C773 C770 1.387 . S
C774 C775 1.387 . S
C774 H778 0.950 . S
C774 C783 1.390 . S
C775 C774 1.387 . S
C775 C777 1.387 . S
H776 C783 0.950 . S
C777 C775 1.387 . S
C777 C779 1.390 . S
C777 H781 0.950 . S
H778 C774 0.950 . S
C779 C777 1.390 . S
C779 C780 1.387 . S
C779 H782 0.950 . S
C780 C779 1.387 . S
C780 C783 1.387 . S
H781 C777 0.950 . S
H782 C779 0.950 . S
C783 C774 1.390 . S
C783 H776 0.950 . S
C783 C780 1.387 . S
C784 C785 1.387 . S
C784 H788 0.950 . S
C784 C793 1.390 . S
C785 C784 1.387 . S
C785 C787 1.387 . S
H786 C793 0.950 . S
C787 C785 1.387 . S
C787 C789 1.390 . S
C787 H791 0.950 . S
H788 C784 0.950 . S
C789 C787 1.390 . S
C789 C790 1.387 . S
C789 H792 0.950 . S
C790 C789 1.387 . S
C790 C793 1.387 . S
H791 C787 0.950 . S
H792 C789 0.950 . S
C793 C784 1.390 . S
C793 H786 0.950 . S
C793 C790 1.387 . S
C794 C795 1.387 . S
C794 H798 0.950 . S
C794 C803 1.390 . S
C795 C794 1.387 . S
C795 C797 1.387 . S
H796 C803 0.950 . S
C797 C795 1.387 . S
C797 C799 1.390 . S
C797 H801 0.950 . S
H798 C794 0.950 . S
C799 C797 1.390 . S
C799 C800 1.387 . S
C799 H802 0.950 . S
C800 C799 1.387 . S
C800 C803 1.387 . S
H801 C797 0.950 . S
H802 C799 0.950 . S
C803 C794 1.390 . S
C803 H796 0.950 . S
C803 C800 1.387 . S
C804 C805 1.387 1_554 S
C804 H808 0.950 . S
C804 C813 1.390 . S
C805 C804 1.387 1_556 S
C805 C807 1.387 . S
H806 C813 0.950 . S
C807 C805 1.387 . S
C807 C809 1.390 . S
C807 H811 0.950 . S
H808 C804 0.950 . S
C809 C807 1.390 . S
C809 C810 1.387 1_556 S
C809 H812 0.950 . S
C810 C809 1.387 1_554 S
C810 C813 1.387 . S
H811 C807 0.950 . S
H812 C809 0.950 . S
C813 C804 1.390 . S
C813 H806 0.950 . S
C813 C810 1.387 . S
C814 C815 1.387 . S
C814 H818 0.950 . S
C814 C823 1.390 . S
C815 C814 1.387 . S
C815 C817 1.387 . S
H816 C823 0.950 . S
C817 C815 1.387 . S
C817 C819 1.390 . S
C817 H821 0.950 . S
H818 C814 0.950 . S
C819 C817 1.390 . S
C819 C820 1.387 . S
C819 H822 0.950 . S
C820 C819 1.387 . S
C820 C823 1.387 . S
H821 C817 0.950 . S
H822 C819 0.950 . S
C823 C814 1.390 . S
C823 H816 0.950 . S
C823 C820 1.387 . S
C824 C825 1.387 . S
C824 H828 0.950 . S
C824 C833 1.390 . S
C825 C824 1.387 . S
C825 C827 1.387 . S
H826 C833 0.950 . S
C827 C825 1.387 . S
C827 C829 1.390 . S
C827 H831 0.950 . S
H828 C824 0.950 . S
C829 C827 1.390 . S
C829 C830 1.387 . S
C829 H832 0.950 . S
C830 C829 1.387 . S
C830 C833 1.387 . S
H831 C827 0.950 . S
H832 C829 0.950 . S
C833 C824 1.390 . S
C833 H826 0.950 . S
C833 C830 1.387 . S
C834 C835 1.387 1_556 S
C834 H838 0.950 . S
C834 C843 1.390 . S
C835 C834 1.387 1_554 S
C835 C837 1.387 . S
H836 C843 0.950 . S
C837 C835 1.387 . S
C837 C839 1.390 . S
C837 H841 0.950 . S
H838 C834 0.950 . S
C839 C837 1.390 . S
C839 C840 1.387 . S
C839 H842 0.950 . S
C840 C839 1.387 . S
C840 C843 1.387 1_554 S
H841 C837 0.950 . S
H842 C839 0.950 . S
C843 C834 1.390 . S
C843 H836 0.950 . S
C843 C840 1.387 1_556 S
C370 C218 1.621 . S
C365 C73 1.642 . S
C380 C231 1.393 . S
C375 C82 1.356 . S
C385 C100 1.770 . S
C390 C244 1.732 . S
C400 C257 1.378 . S
C395 C56 1.364 . S
C410 C265 1.385 . S
C405 C134 1.435 . S
C420 C278 1.569 . S
C415 C165 1.591 . S
C425 C147 1.260 . S
C430 C291 1.278 . S
C440 C304 1.735 . S
C435 C125 1.770 . S
C445 C151 1.376 . S
C450 C322 1.382 . S
C460 C333 1.492 . S
C455 C121 1.466 . S
C465 C139 1.681 . S
C470 C317 1.663 . S
C480 C325 1.331 . S
C475 C164 1.355 . S
C485 C95 1.363 . S
C490 C348 1.431 . S
C495 C61 1.490 . S
C500 C338 1.478 . S
C505 C74 1.482 . S
C510 C343 1.456 . S
C515 C86 1.745 . S
C520 C346 1.709 1_655 S
C525 C47 1.398 . S
C530 C255 1.384 . S
C535 C186 1.278 . S
C540 C247 1.300 . S
C550 C216 1.525 . S
C545 C204 1.583 . S
C560 C221 1.796 . S
C555 C112 1.812 . S
C565 C60 1.436 . S
C570 C268 1.413 . S
C580 C307 1.431 . S
C575 C152 1.461 . S
C590 C260 1.759 . S
C585 C126 1.800 1_545 S
C600 C286 1.323 . S
C595 C160 1.335 . S
C610 C296 1.620 . S
C605 C190 1.642 . S
C615 C199 1.356 . S
C620 C309 1.393 . S
C625 C113 1.771 . S
C630 C270 1.732 . S
C640 C283 1.379 . S
C635 C173 1.365 . S
C645 C43 1.435 . S
C650 C239 1.385 . S
C660 C252 1.571 . S
C655 C9 1.579 1_655 S
C670 C213 1.278 . S
C665 C17 1.261 . S
C680 C226 1.734 . S
C675 C34 1.757 1_455 S
C685 C21 1.376 . S
C690 C335 1.379 . S
C695 C30 1.467 1_556 S
C700 C320 1.491 1_655 S
C705 C48 1.680 . S
C710 C330 1.666 . S
C715 C8 1.356 1_556 S
C720 C312 1.332 1_455 S
C730 C361 1.431 . S
C725 C108 1.365 . S
C740 C351 1.478 . S
C735 C178 1.491 1_554 S
C750 C356 1.453 . S
C745 C191 1.482 . S
C755 C203 1.746 . S
C760 C359 1.710 . S
C765 C138 1.399 . S
C770 C281 1.382 . S
C780 C273 1.299 . S
C775 C69 1.277 . S
C790 C294 1.521 . S
C785 C87 1.582 . S
C800 C299 1.794 . S
C795 C99 1.811 . S
C805 C177 1.436 . S
C810 C242 1.413 . S
C820 C229 1.432 . S
C815 C22 1.461 . S
C825 C35 1.801 . S
C830 C234 1.758 . S
C840 C208 1.311 1_554 S
C835 C4 1.334 . S
