# Generated by pormake.
# Topology ssc, (4,4)-cn, num edge types: 1
# Building blocks:
#     Node 0, Type 0, BuildingBlock: ESEHIV_clean_sbu_0, # of connection points: 4
#     Node 1, Type 0, BuildingBlock: ESEHIV_clean_sbu_0, # of connection points: 4
#     Node 2, Type 0, BuildingBlock: ESEHIV_clean_sbu_0, # of connection points: 4
#     Node 3, Type 0, BuildingBlock: ESEHIV_clean_sbu_0, # of connection points: 4
#     Node 4, Type 0, BuildingBlock: ESEHIV_clean_sbu_0, # of connection points: 4
#     Node 5, Type 0, BuildingBlock: ESEHIV_clean_sbu_0, # of connection points: 4
#     Node 6, Type 0, BuildingBlock: ESEHIV_clean_sbu_0, # of connection points: 4
#     Node 7, Type 0, BuildingBlock: ESEHIV_clean_sbu_0, # of connection points: 4
#     Node 8, Type 0, BuildingBlock: ESEHIV_clean_sbu_0, # of connection points: 4
#     Node 9, Type 0, BuildingBlock: ESEHIV_clean_sbu_0, # of connection points: 4
#     Node 10, Type 0, BuildingBlock: ESEHIV_clean_sbu_0, # of connection points: 4
#     Node 11, Type 0, BuildingBlock: ESEHIV_clean_sbu_0, # of connection points: 4
#     Node 12, Type 1, BuildingBlock: KUFVIS_clean_linker_0, # of connection points: 4
#     Node 13, Type 1, BuildingBlock: KUFVIS_clean_linker_0, # of connection points: 4
#     Node 14, Type 1, BuildingBlock: KUFVIS_clean_linker_0, # of connection points: 4
#     Node 15, Type 1, BuildingBlock: KUFVIS_clean_linker_0, # of connection points: 4
#     Node 16, Type 1, BuildingBlock: KUFVIS_clean_linker_0, # of connection points: 4
#     Node 17, Type 1, BuildingBlock: KUFVIS_clean_linker_0, # of connection points: 4
#     Node 18, Type 1, BuildingBlock: KUFVIS_clean_linker_0, # of connection points: 4
#     Node 19, Type 1, BuildingBlock: KUFVIS_clean_linker_0, # of connection points: 4
#     Node 20, Type 1, BuildingBlock: KUFVIS_clean_linker_0, # of connection points: 4
#     Node 21, Type 1, BuildingBlock: KUFVIS_clean_linker_0, # of connection points: 4
#     Node 22, Type 1, BuildingBlock: KUFVIS_clean_linker_0, # of connection points: 4
#     Node 23, Type 1, BuildingBlock: KUFVIS_clean_linker_0, # of connection points: 4
#     Edge 24, Type (0, 1), BuildingBlock: XIVTED_clean_linker_0, # of connection points: 2
#     Edge 25, Type (0, 1), BuildingBlock: XIVTED_clean_linker_0, # of connection points: 2
#     Edge 26, Type (0, 1), BuildingBlock: XIVTED_clean_linker_0, # of connection points: 2
#     Edge 27, Type (0, 1), BuildingBlock: XIVTED_clean_linker_0, # of connection points: 2
#     Edge 28, Type (0, 1), BuildingBlock: XIVTED_clean_linker_0, # of connection points: 2
#     Edge 29, Type (0, 1), BuildingBlock: XIVTED_clean_linker_0, # of connection points: 2
#     Edge 30, Type (0, 1), BuildingBlock: XIVTED_clean_linker_0, # of connection points: 2
#     Edge 31, Type (0, 1), BuildingBlock: XIVTED_clean_linker_0, # of connection points: 2
#     Edge 32, Type (0, 1), BuildingBlock: XIVTED_clean_linker_0, # of connection points: 2
#     Edge 33, Type (0, 1), BuildingBlock: XIVTED_clean_linker_0, # of connection points: 2
#     Edge 34, Type (0, 1), BuildingBlock: XIVTED_clean_linker_0, # of connection points: 2
#     Edge 35, Type (0, 1), BuildingBlock: XIVTED_clean_linker_0, # of connection points: 2
#     Edge 36, Type (0, 1), BuildingBlock: XIVTED_clean_linker_0, # of connection points: 2
#     Edge 37, Type (0, 1), BuildingBlock: XIVTED_clean_linker_0, # of connection points: 2
#     Edge 38, Type (0, 1), BuildingBlock: XIVTED_clean_linker_0, # of connection points: 2
#     Edge 39, Type (0, 1), BuildingBlock: XIVTED_clean_linker_0, # of connection points: 2
#     Edge 40, Type (0, 1), BuildingBlock: XIVTED_clean_linker_0, # of connection points: 2
#     Edge 41, Type (0, 1), BuildingBlock: XIVTED_clean_linker_0, # of connection points: 2
#     Edge 42, Type (0, 1), BuildingBlock: XIVTED_clean_linker_0, # of connection points: 2
#     Edge 43, Type (0, 1), BuildingBlock: XIVTED_clean_linker_0, # of connection points: 2
#     Edge 44, Type (0, 1), BuildingBlock: XIVTED_clean_linker_0, # of connection points: 2
#     Edge 45, Type (0, 1), BuildingBlock: XIVTED_clean_linker_0, # of connection points: 2
#     Edge 46, Type (0, 1), BuildingBlock: XIVTED_clean_linker_0, # of connection points: 2
#     Edge 47, Type (0, 1), BuildingBlock: XIVTED_clean_linker_0, # of connection points: 2
#     Edge 48, Type (0, 1), BuildingBlock: XIVTED_clean_linker_0, # of connection points: 2
#     Edge 49, Type (0, 1), BuildingBlock: XIVTED_clean_linker_0, # of connection points: 2
#     Edge 50, Type (0, 1), BuildingBlock: XIVTED_clean_linker_0, # of connection points: 2
#     Edge 51, Type (0, 1), BuildingBlock: XIVTED_clean_linker_0, # of connection points: 2
#     Edge 52, Type (0, 1), BuildingBlock: XIVTED_clean_linker_0, # of connection points: 2
#     Edge 53, Type (0, 1), BuildingBlock: XIVTED_clean_linker_0, # of connection points: 2
#     Edge 54, Type (0, 1), BuildingBlock: XIVTED_clean_linker_0, # of connection points: 2
#     Edge 55, Type (0, 1), BuildingBlock: XIVTED_clean_linker_0, # of connection points: 2
#     Edge 56, Type (0, 1), BuildingBlock: XIVTED_clean_linker_0, # of connection points: 2
#     Edge 57, Type (0, 1), BuildingBlock: XIVTED_clean_linker_0, # of connection points: 2
#     Edge 58, Type (0, 1), BuildingBlock: XIVTED_clean_linker_0, # of connection points: 2
#     Edge 59, Type (0, 1), BuildingBlock: XIVTED_clean_linker_0, # of connection points: 2
#     Edge 60, Type (0, 1), BuildingBlock: XIVTED_clean_linker_0, # of connection points: 2
#     Edge 61, Type (0, 1), BuildingBlock: XIVTED_clean_linker_0, # of connection points: 2
#     Edge 62, Type (0, 1), BuildingBlock: XIVTED_clean_linker_0, # of connection points: 2
#     Edge 63, Type (0, 1), BuildingBlock: XIVTED_clean_linker_0, # of connection points: 2
#     Edge 64, Type (0, 1), BuildingBlock: XIVTED_clean_linker_0, # of connection points: 2
#     Edge 65, Type (0, 1), BuildingBlock: XIVTED_clean_linker_0, # of connection points: 2
#     Edge 66, Type (0, 1), BuildingBlock: XIVTED_clean_linker_0, # of connection points: 2
#     Edge 67, Type (0, 1), BuildingBlock: XIVTED_clean_linker_0, # of connection points: 2
#     Edge 68, Type (0, 1), BuildingBlock: XIVTED_clean_linker_0, # of connection points: 2
#     Edge 69, Type (0, 1), BuildingBlock: XIVTED_clean_linker_0, # of connection points: 2
#     Edge 70, Type (0, 1), BuildingBlock: XIVTED_clean_linker_0, # of connection points: 2
#     Edge 71, Type (0, 1), BuildingBlock: XIVTED_clean_linker_0, # of connection points: 2
# Relax obj value: 0.051
# Max RMSD: 0.294
# Mean RMSD: 0.193
data_MOF--net-ssc--node1-ESEHIV_clean_sbu_0--node2-KUFVIS_clean_linker_0--edge1-XIVTED_clean_linker_0
_symmetry_space_group_name_H-M    P1
_symmetry_Int_Tables_number       1
_symmetry_cell_setting            triclinic
loop_
_symmetry_equiv_pos_as_xyz
'x, y, z'
_cell_length_a     33.156839
_cell_length_b     33.066287
_cell_length_c     33.120145
_cell_angle_alpha  89.725236
_cell_angle_beta   93.055429
_cell_angle_gamma 96.79895
loop_
_atom_site_label
_atom_site_type_symbol
_atom_site_fract_x
_atom_site_fract_y
_atom_site_fract_z
_atom_type_partial_charge
Cu0 Cu 0.0317 0.28539 0.14045 0.0
N1 N 0.97796 0.27273 0.15521 0.0
N2 N 0.92182 0.25814 0.18967 0.0
C3 C 0.9626 0.26871 0.19214 0.0
C4 C 0.91129 0.25595 0.14974 0.0
C5 C 0.94586 0.26505 0.12869 0.0
O6 O 0.07133 0.28189 0.18555 0.0
C7 C 0.03178 0.21091 0.09861 0.0
O8 O 0.01556 0.19504 0.13126 0.0
H9 H 0.98101 0.27239 0.22015 0.0
H10 H 0.94766 0.26563 0.09617 0.0
N11 N 0.03756 0.3389 0.12144 0.0
N12 N 0.04719 0.39342 0.08134 0.0
C13 C 0.04246 0.35227 0.08327 0.0
C14 C 0.0389 0.37259 0.14428 0.0
C15 C 0.04496 0.40623 0.1197 0.0
C16 C 0.07076 0.25341 0.2116 0.0
O17 O 0.04118 0.22324 0.20947 0.0
H18 H 0.04372 0.33228 0.05769 0.0
H19 H 0.03612 0.3726 0.17668 0.0
O20 O 0.04165 0.24925 0.09691 0.0
H21 H 0.88077 0.24819 0.1366 0.0
H22 H 0.04759 0.43766 0.1293 0.0
Cu23 Cu 0.02446 0.77576 0.39463 0.0
N24 N 0.02325 0.82618 0.41941 0.0
N25 N 0.01791 0.87418 0.46557 0.0
C26 C 0.0148 0.83375 0.4578 0.0
C27 C 0.02886 0.89257 0.43067 0.0
C28 C 0.0322 0.86291 0.40235 0.0
O29 O 0.01627 0.73327 0.43551 0.0
C30 C 0.97774 0.74165 0.32472 0.0
O31 O 1.00306 0.71394 0.32584 0.0
H32 H 1.00617 0.81005 0.47941 0.0
H33 H 0.04095 0.86771 0.37153 0.0
N34 N 0.07607 0.77638 0.37409 0.0
N35 N 0.12725 0.77747 0.33242 0.0
C36 C 0.0865 0.77583 0.3353 0.0
C37 C 0.11134 0.779 0.39645 0.0
C38 C 0.14289 0.77954 0.37095 0.0
C39 C 0.02684 0.69773 0.43167 0.0
O40 O 0.04294 0.68826 0.39811 0.0
H41 H 0.06458 0.77349 0.3098 0.0
H42 H 0.11383 0.78041 0.42912 0.0
O43 O 0.98176 0.76958 0.35149 0.0
H44 H 0.03481 0.92509 0.42611 0.0
H45 H 0.17485 0.78132 0.38019 0.0
Cu46 Cu 0.5013 0.76575 0.64908 0.0
N47 N 0.50738 0.81904 0.62953 0.0
N48 N 0.5161 0.87324 0.5889 0.0
C49 C 0.51372 0.83218 0.59151 0.0
C50 C 0.51083 0.88617 0.62663 0.0
C51 C 0.50539 0.85273 0.65154 0.0
O52 O 0.51413 0.7285 0.60806 0.0
C53 C 0.57618 0.7649 0.69245 0.0
O54 O 0.59035 0.77105 0.65635 0.0
H55 H 0.51721 0.81214 0.56651 0.0
H56 H 0.5002 0.85286 0.6835 0.0
N57 N 0.44729 0.75269 0.66219 0.0
N58 N 0.3913 0.73817 0.69668 0.0
C59 C 0.43202 0.74873 0.69909 0.0
C60 C 0.41523 0.74472 0.63564 0.0
C61 C 0.38066 0.73557 0.6568 0.0
C62 C 0.5056 0.69012 0.61146 0.0
O63 O 0.48746 0.67519 0.64352 0.0
H64 H 0.45054 0.75237 0.72705 0.0
H65 H 0.41704 0.74513 0.60312 0.0
O66 O 0.53792 0.76169 0.6962 0.0
H67 H 0.51047 0.91753 0.63548 0.0
H68 H 0.35012 0.7275 0.64386 0.0
Cu69 Cu 0.54717 0.27707 0.89574 0.0
N70 N 0.54615 0.3296 0.91554 0.0
N71 N 0.53878 0.38295 0.95424 0.0
C72 C 0.54032 0.34235 0.95314 0.0
C73 C 0.5444 0.39624 0.91617 0.0
C74 C 0.54909 0.36329 0.89244 0.0
O75 O 0.54544 0.23623 0.93834 0.0
C76 C 0.46796 0.27785 0.85844 0.0
O77 O 0.461 0.29793 0.89098 0.0
H78 H 0.53582 0.32224 0.97878 0.0
H79 H 0.55341 0.36359 0.86029 0.0
N80 N 0.59606 0.27704 0.87057 0.0
N81 N 0.64132 0.27632 0.82306 0.0
C82 C 0.60154 0.27511 0.83069 0.0
C83 C 0.63351 0.27992 0.88882 0.0
C84 C 0.66149 0.2793 0.85958 0.0
C85 C 0.51794 0.23047 0.96381 0.0
O86 O 0.48786 0.25304 0.96223 0.0
H87 H 0.57678 0.2721 0.80785 0.0
H88 H 0.63994 0.28233 0.92114 0.0
O89 O 0.50251 0.26518 0.85547 0.0
H90 H 0.54461 0.42747 0.90616 0.0
H91 H 0.69407 0.28108 0.86473 0.0
Cu92 Cu 0.13949 0.02076 0.29972 0.0
N93 N 0.11377 0.02345 0.34811 0.0
N94 N 0.06582 0.01906 0.39342 0.0
C95 C 0.07378 0.01549 0.35403 0.0
C96 C 0.1024 0.02959 0.41285 0.0
C97 C 0.13186 0.03215 0.38483 0.0
O98 O 0.09897 0.01889 0.25499 0.0
C99 C 0.2017 0.07679 0.26613 0.0
O100 O 0.20429 0.04826 0.2393 0.0
H101 H 0.05103 0.0079 0.32976 0.0
H102 H 0.16425 0.03973 0.39071 0.0
N103 N 0.16394 0.97266 0.30126 0.0
N104 N 0.20863 0.92699 0.30414 0.0
C105 C 0.20357 0.967 0.30213 0.0
C106 C 0.1434 0.93516 0.30316 0.0
C107 C 0.17078 0.90693 0.30475 0.0
C108 C 0.1053 1.00528 0.2203 0.0
O109 O 0.13986 0.99098 0.21461 0.0
H110 H 0.22805 0.99162 0.30064 0.0
H111 H 0.11065 0.92888 0.3034 0.0
O112 O 0.17753 0.06989 0.29464 0.0
H113 H 0.10763 0.03488 0.44502 0.0
H114 H 0.16337 0.87421 0.30634 0.0
Cu115 Cu 0.28898 0.94123 0.49253 0.0
N116 N 0.33489 0.92816 0.46745 0.0
N117 N 0.36864 0.89245 0.42597 0.0
C118 C 0.3321 0.90287 0.43544 0.0
C119 C 0.39561 0.9125 0.45316 0.0
C120 C 0.37467 0.93431 0.47886 0.0
O121 O 0.2738 0.89603 0.52884 0.0
C122 C 0.24268 0.97394 0.42657 0.0
O123 O 0.21078 0.97242 0.40115 0.0
H124 H 0.30332 0.89124 0.42046 0.0
H125 H 0.3873 0.95136 0.50527 0.0
N126 N 0.29451 0.99136 0.51971 0.0
N127 N 0.2743 0.05032 0.53912 0.0
C128 C 0.26263 0.01154 0.52696 0.0
C129 C 0.32777 0.01782 0.52864 0.0
C130 C 0.31541 0.05417 0.54068 0.0
C131 C 0.28466 0.8952 0.56632 0.0
O132 O 0.30481 0.92775 0.58353 0.0
H133 H 0.23146 0.99899 0.51974 0.0
H134 H 0.35865 0.01213 0.52422 0.0
O135 O 0.24671 0.94354 0.44977 0.0
H136 H 0.42782 0.90967 0.45604 0.0
H137 H 0.33528 0.08176 0.54818 0.0
Cu138 Cu 0.39529 0.03401 0.78768 0.0
N139 N 0.42486 0.03107 0.83695 0.0
N140 N 0.47526 0.02739 0.88399 0.0
C141 C 0.46483 0.02837 0.84396 0.0
C142 C 0.44045 0.02986 0.90272 0.0
C143 C 0.40953 0.03226 0.87365 0.0
O144 O 0.42922 0.03097 0.74187 0.0
C145 C 0.32113 0.99003 0.75827 0.0
O146 O 0.32328 0.01739 0.72931 0.0
H147 H 0.48563 0.02643 0.82017 0.0
H148 H 0.37797 0.03472 0.87882 0.0
N149 N 0.37614 0.0847 0.78574 0.0
N150 N 0.33686 0.13495 0.78932 0.0
C151 C 0.33953 0.09477 0.79508 0.0
C152 C 0.39738 0.11943 0.77387 0.0
C153 C 0.3733 0.15036 0.7759 0.0
C154 C 0.45161 1.00315 0.7356 0.0
O155 O 0.45243 0.97272 0.76115 0.0
H156 H 0.31542 0.07298 0.80558 0.0
H157 H 0.42807 0.12184 0.76378 0.0
O158 O 0.3497 0.99134 0.78562 0.0
H159 H 0.43744 0.03005 0.9351 0.0
H160 H 0.38161 0.18147 0.76665 0.0
Cu161 Cu 0.2841 0.18535 0.02788 0.0
N162 N 0.284 0.20619 0.97534 0.0
N163 N 0.28563 0.24962 0.92326 0.0
C164 C 0.28905 0.24559 0.96393 0.0
C165 C 0.27828 0.21122 0.90871 0.0
C166 C 0.27745 0.18456 0.94086 0.0
O167 O 0.27595 0.2284 0.06526 0.0
C168 C 0.20419 0.14473 0.0225 0.0
O169 O 0.19474 0.18083 0.01159 0.0
H170 H 0.29379 0.27077 0.98509 0.0
H171 H 0.27184 0.1517 0.93931 0.0
N172 N 0.33458 0.16738 0.04056 0.0
N173 N 0.38447 0.12806 0.0526 0.0
C174 C 0.34528 0.12929 0.03926 0.0
C175 C 0.36796 0.191 0.05488 0.0
C176 C 0.39857 0.16693 0.06253 0.0
C177 C 0.28216 0.22476 0.10329 0.0
O178 O 0.29286 0.19034 0.11788 0.0
H179 H 0.32438 0.10296 0.02993 0.0
H180 H 0.36958 0.22343 0.06015 0.0
O181 O 0.24124 0.1403 0.0313 0.0
H182 H 0.27351 0.20293 0.87713 0.0
H183 H 0.42867 0.1774 0.07498 0.0
Cu184 Cu 0.75246 0.42642 0.01398 0.0
N185 N 0.7578 0.40048 0.96469 0.0
N186 N 0.76507 0.35386 0.91757 0.0
C187 C 0.76402 0.36161 0.9576 0.0
C188 C 0.7589 0.3892 0.89897 0.0
C189 C 0.75438 0.41774 0.92802 0.0
O190 O 0.75241 0.3881 0.05897 0.0
C191 C 0.83038 0.4742 0.00969 0.0
O192 O 0.84148 0.44285 0.99073 0.0
H193 H 0.76798 0.33962 0.98131 0.0
H194 H 0.74861 0.44892 0.92283 0.0
N195 N 0.70301 0.44845 0.01056 0.0
N196 N 0.65719 0.49268 0.01389 0.0
C197 C 0.69624 0.48603 0.02203 0.0
C198 C 0.66719 0.43086 0.99431 0.0
C199 C 0.63885 0.45802 0.99642 0.0
C200 C 0.78163 0.36743 0.06831 0.0
O201 O 0.81426 0.37195 0.04715 0.0
H202 H 0.71942 0.50788 0.03639 0.0
H203 H 0.66221 0.40058 0.98138 0.0
O204 O 0.79471 0.47204 0.02257 0.0
H205 H 0.75712 0.39405 0.86666 0.0
H206 H 0.60746 0.45303 0.98516 0.0
Cu207 Cu 0.89325 0.53649 0.30545 0.0
N208 N 0.92264 0.53823 0.35522 0.0
N209 N 0.97161 0.53436 0.4036 0.0
C210 C 0.96167 0.53209 0.3635 0.0
C211 C 0.93773 0.54265 0.42111 0.0
C212 C 0.90764 0.54515 0.39118 0.0
O213 O 0.92874 0.53245 0.26091 0.0
C214 C 0.8199 0.48657 0.28039 0.0
O215 O 0.81803 0.51266 0.25049 0.0
H216 H 0.982 0.52484 0.34082 0.0
H217 H 0.87672 0.55106 0.39532 0.0
N218 N 0.871 0.58555 0.30001 0.0
N219 N 0.82815 0.63302 0.30037 0.0
C220 C 0.83348 0.59374 0.3084 0.0
C221 C 0.89026 0.62069 0.28663 0.0
C222 C 0.86397 0.64989 0.28669 0.0
C223 C 0.95054 0.5038 0.25603 0.0
O224 O 0.94907 0.47341 0.2818 0.0
H225 H 0.81066 0.57114 0.31987 0.0
H226 H 0.92112 0.62457 0.27695 0.0
O227 O 0.85009 0.4911 0.30605 0.0
H228 H 0.93492 0.54642 0.45321 0.0
H229 H 0.87044 0.68076 0.27609 0.0
Cu230 Cu 0.76517 0.6636 0.53517 0.0
N231 N 0.75874 0.68493 0.48329 0.0
N232 N 0.75733 0.72895 0.43192 0.0
C233 C 0.76363 0.7244 0.47229 0.0
C234 C 0.74824 0.69079 0.41711 0.0
C235 C 0.74929 0.66374 0.44885 0.0
O236 O 0.75678 0.70433 0.57486 0.0
C237 C 0.68796 0.61822 0.5349 0.0
O238 O 0.67584 0.65344 0.52456 0.0
H239 H 0.77101 0.74922 0.4936 0.0
H240 H 0.74365 0.63089 0.44701 0.0
N241 N 0.81814 0.64984 0.54169 0.0
N242 N 0.87168 0.6144 0.54322 0.0
C243 C 0.83068 0.61273 0.53871 0.0
C244 C 0.85218 0.6759 0.54809 0.0
C245 C 0.88523 0.65418 0.54919 0.0
C246 C 0.76104 0.69797 0.6127 0.0
O247 O 0.77138 0.66275 0.62545 0.0
H248 H 0.81005 0.58512 0.53368 0.0
H249 H 0.85286 0.70852 0.55126 0.0
O250 O 0.72583 0.6159 0.54121 0.0
H251 H 0.74162 0.68291 0.38559 0.0
H252 H 0.91679 0.66685 0.55347 0.0
Cu253 Cu 0.6458 0.50799 0.79062 0.0
N254 N 0.62146 0.5131 0.83978 0.0
N255 N 0.57531 0.5184 0.8859 0.0
C256 C 0.58165 0.51335 0.84628 0.0
C257 C 0.61262 0.52124 0.90485 0.0
C258 C 0.6409 0.51786 0.87641 0.0
O259 O 0.60505 0.50809 0.74643 0.0
C260 C 0.67857 0.58994 0.78191 0.0
O261 O 0.64051 0.59663 0.78451 0.0
H262 H 0.558 0.51068 0.82231 0.0
H263 H 0.67346 0.51897 0.88197 0.0
N264 N 0.66929 0.45922 0.79073 0.0
N265 N 0.71384 0.41404 0.7847 0.0
C266 C 0.70775 0.45376 0.78272 0.0
C267 C 0.65057 0.42182 0.79835 0.0
C268 C 0.67792 0.3939 0.79455 0.0
C269 C 0.613 0.50178 0.70997 0.0
O270 O 0.64981 0.49446 0.70184 0.0
H271 H 0.73048 0.47829 0.77467 0.0
H272 H 0.61913 0.41535 0.80594 0.0
O273 O 0.68742 0.55355 0.78397 0.0
H274 H 0.6191 0.52526 0.93699 0.0
H275 H 0.67192 0.36136 0.79895 0.0
H276 H 0.93532 0.3835 0.64449 0.0
H277 H 0.99654 0.29083 0.7041 0.0
H278 H 0.04839 0.35491 0.60114 0.0
H279 H 0.05913 0.27867 0.59188 0.0
H280 H 0.15493 0.23375 0.66495 0.0
H281 H 0.07223 0.30387 0.72059 0.0
C282 C 0.96042 0.36511 0.64628 0.0
C283 C 0.99121 0.37207 0.61902 0.0
C284 C 0.96221 0.3363 0.67702 0.0
C285 C 0.99519 0.31319 0.68019 0.0
C286 C 0.0263 0.31901 0.65228 0.0
C287 C 0.0242 0.34902 0.62191 0.0
C288 C 0.06163 0.29492 0.65567 0.0
C289 C 0.07512 0.27644 0.62105 0.0
C290 C 0.10903 0.25452 0.62451 0.0
C291 C 0.12914 0.25121 0.66218 0.0
C292 C 0.11591 0.2684 0.69671 0.0
C293 C 0.08215 0.29028 0.69368 0.0
H294 H 0.88653 0.71559 0.90241 0.0
H295 H 0.99978 0.77582 0.9529 0.0
H296 H 0.94573 0.81943 0.84173 0.0
H297 H 0.03441 0.81259 0.84259 0.0
H298 H 0.0972 0.92446 0.89095 0.0
H299 H 0.99368 0.86583 0.94993 0.0
C300 C 0.91128 0.74019 0.90148 0.0
C301 C 0.91217 0.76748 0.86912 0.0
C302 C 0.94277 0.74261 0.93143 0.0
C303 C 0.9752 0.77387 0.92981 0.0
C304 C 0.97611 0.80218 0.89775 0.0
C305 C 0.94482 0.79837 0.86695 0.0
C306 C 0.00988 0.83555 0.89619 0.0
C307 C 0.03737 0.83667 0.86502 0.0
C308 C 0.06895 0.86877 0.86326 0.0
C309 C 0.07263 0.89974 0.89225 0.0
C310 C 0.04583 0.89887 0.92349 0.0
C311 C 0.01454 0.86657 0.92574 0.0
H312 H 0.44125 0.90345 0.18167 0.0
H313 H 0.47962 0.79137 0.22663 0.0
H314 H 0.53203 0.84839 0.12055 0.0
H315 H 0.51759 0.76448 0.11057 0.0
H316 H 0.60532 0.6963 0.1711 0.0
H317 H 0.5623 0.79514 0.23311 0.0
C318 C 0.46046 0.8792 0.17961 0.0
C319 C 0.4868 0.87962 0.14803 0.0
C320 C 0.45755 0.84759 0.20785 0.0
C321 C 0.48193 0.81597 0.2048 0.0
C322 C 0.50931 0.81613 0.17354 0.0
C323 C 0.51123 0.84793 0.14475 0.0
C324 C 0.53645 0.78356 0.17207 0.0
C325 C 0.53678 0.75919 0.13713 0.0
C326 C 0.56158 0.7275 0.13706 0.0
C327 C 0.58588 0.72051 0.1715 0.0
C328 C 0.58641 0.74463 0.20605 0.0
C329 C 0.56176 0.77627 0.20637 0.0
H330 H 0.36206 0.22162 0.36762 0.0
H331 H 0.47031 0.25303 0.44308 0.0
H332 H 0.45015 0.31911 0.33199 0.0
H333 H 0.53184 0.29962 0.34497 0.0
H334 H 0.60303 0.38773 0.42249 0.0
H335 H 0.48117 0.34321 0.45191 0.0
C336 C 0.39019 0.24143 0.37422 0.0
C337 C 0.40276 0.27164 0.34649 0.0
C338 C 0.41424 0.23401 0.40859 0.0
C339 C 0.45133 0.25865 0.41646 0.0
C340 C 0.46412 0.29022 0.38929 0.0
C341 C 0.44008 0.29591 0.35365 0.0
C342 C 0.50253 0.31717 0.39816 0.0
C343 C 0.53495 0.31832 0.372 0.0
C344 C 0.57164 0.34317 0.38135 0.0
C345 C 0.57522 0.36743 0.4161 0.0
C346 C 0.5428 0.36808 0.44133 0.0
C347 C 0.50646 0.34266 0.43254 0.0
H348 H 0.65951 0.95967 0.37695 0.0
H349 H 0.7099 0.01396 0.26987 0.0
H350 H 0.60317 0.05588 0.31757 0.0
H351 H 0.59743 0.04305 0.23107 0.0
H352 H 0.65366 0.14781 0.16953 0.0
H353 H 0.71444 0.10311 0.27537 0.0
C354 C 0.65919 0.98227 0.35306 0.0
C355 C 0.62843 1.00769 0.3509 0.0
C356 C 0.68837 0.98406 0.32402 0.0
C357 C 0.68753 0.01275 0.29267 0.0
C358 C 0.6571 0.03928 0.2904 0.0
C359 C 0.62712 0.03619 0.31941 0.0
C360 C 0.65609 0.06943 0.25716 0.0
C361 C 0.62257 0.06693 0.22872 0.0
C362 C 0.6221 0.09502 0.19684 0.0
C363 C 0.65443 0.12582 0.19397 0.0
C364 C 0.68751 0.12921 0.22207 0.0
C365 C 0.68871 0.10071 0.25358 0.0
H366 H 0.17098 0.37114 0.44221 0.0
H367 H 0.24494 0.42194 0.54431 0.0
H368 H 0.27524 0.31433 0.48486 0.0
H369 H 0.27333 0.31675 0.58209 0.0
H370 H 0.39597 0.36503 0.61795 0.0
H371 H 0.33379 0.41885 0.51809 0.0
C372 C 0.19661 0.36983 0.46382 0.0
C373 C 0.2218 0.33911 0.46034 0.0
C374 C 0.20468 0.39965 0.49388 0.0
C375 C 0.23827 0.39858 0.52128 0.0
C376 C 0.26362 0.36751 0.51839 0.0
C377 C 0.25531 0.33777 0.48779 0.0
C378 C 0.29984 0.36709 0.54619 0.0
C379 C 0.30009 0.33815 0.57759 0.0
C380 C 0.33492 0.33747 0.60345 0.0
C381 C 0.36931 0.36516 0.59744 0.0
C382 C 0.36916 0.39456 0.567 0.0
C383 C 0.33421 0.39585 0.5415 0.0
H384 H 0.90319 0.13719 0.87051 0.0
H385 H 0.83402 0.06837 0.77517 0.0
H386 H 0.94678 0.03011 0.8246 0.0
H387 H 0.94086 0.03145 0.73717 0.0
H388 H 0.87936 0.91556 0.69807 0.0
H389 H 0.83023 0.9813 0.79181 0.0
C390 C 0.89973 0.11177 0.84948 0.0
C391 C 0.92898 0.08457 0.85042 0.0
C392 C 0.86548 0.10615 0.82277 0.0
C393 C 0.86051 0.07284 0.79599 0.0
C394 C 0.89022 0.04551 0.79609 0.0
C395 C 0.92427 0.0514 0.8237 0.0
C396 C 0.88599 0.01052 0.76778 0.0
C397 C 0.91584 1.00742 0.73943 0.0
C398 C 0.91344 0.97307 0.71428 0.0
C399 C 0.88138 0.94204 0.71768 0.0
C400 C 0.8513 0.94481 0.7452 0.0
C401 C 0.85332 0.97924 0.77018 0.0
H402 H 0.32095 0.59422 0.9151 0.0
H403 H 0.29452 0.5632 0.03788 0.0
H404 H 0.23022 0.65197 0.97318 0.0
H405 H 0.26405 0.67204 0.05973 0.0
H406 H 0.16593 0.62796 0.13394 0.0
H407 H 0.19642 0.55349 0.03677 0.0
C408 C 0.30274 0.59689 0.94106 0.0
C409 C 0.27421 0.62478 0.93976 0.0
C410 C 0.31088 0.57511 0.97624 0.0
C411 C 0.28828 0.57977 0.01039 0.0
C412 C 0.25814 0.60671 0.00907 0.0
C413 C 0.25205 0.63 0.97393 0.0
C414 C 0.23377 0.61176 0.04462 0.0
C415 C 0.24034 0.64822 0.06736 0.0
C416 C 0.21585 0.65386 0.09971 0.0
C417 C 0.185 0.62335 0.10908 0.0
C418 C 0.17773 0.5873 0.08678 0.0
C419 C 0.20231 0.58119 0.05455 0.0
H420 H 0.68526 0.87817 0.91688 0.0
H421 H 0.75406 0.92648 0.02297 0.0
H422 H 0.77998 0.81372 0.96984 0.0
H423 H 0.78189 0.80982 0.05569 0.0
H424 H 0.89685 0.86441 0.10784 0.0
H425 H 0.83592 0.92681 0.01326 0.0
C426 C 0.70924 0.8759 0.94014 0.0
C427 C 0.73146 0.84257 0.94009 0.0
C428 C 0.71702 0.90609 0.96982 0.0
C429 C 0.74782 0.90301 0.99999 0.0
C430 C 0.77088 0.86974 1.00016 0.0
C431 C 0.76229 0.83926 0.9702 0.0
C432 C 0.80525 0.86806 0.03031 0.0
C433 C 0.80663 0.83441 0.05661 0.0
C434 C 0.83977 0.83324 0.08469 0.0
C435 C 0.87149 0.8651 0.08578 0.0
C436 C 0.87024 0.89877 0.06036 0.0
C437 C 0.83693 0.90055 0.03287 0.0
H438 H 0.46669 0.65555 0.36257 0.0
H439 H 0.40497 0.62121 0.24837 0.0
H440 H 0.45717 0.53109 0.32302 0.0
H441 H 0.46926 0.56648 0.21322 0.0
H442 H 0.39526 0.46091 0.16468 0.0
H443 H 0.36985 0.50839 0.28007 0.0
C444 C 0.45721 0.6326 0.33956 0.0
C445 C 0.46498 0.5924 0.34656 0.0
C446 C 0.43518 0.64327 0.30475 0.0
C447 C 0.42177 0.6132 0.27564 0.0
C448 C 0.43024 0.57272 0.28183 0.0
C449 C 0.45107 0.56224 0.31784 0.0
C450 C 0.41968 0.54197 0.2496 0.0
C451 C 0.44344 0.54333 0.2155 0.0
C452 C 0.43449 0.51403 0.18495 0.0
C453 C 0.40158 0.48397 0.18816 0.0
C454 C 0.3782 0.48152 0.22217 0.0
C455 C 0.38747 0.51038 0.25335 0.0
H456 H 0.82373 0.10281 0.39968 0.0
H457 H 0.77514 0.06691 0.51395 0.0
H458 H 0.73493 0.16997 0.44935 0.0
H459 H 0.75493 0.18259 0.53569 0.0
H460 H 0.64958 0.14127 0.60133 0.0
H461 H 0.68536 0.0662 0.50725 0.0
C462 C 0.80258 0.10635 0.42298 0.0
C463 C 0.77892 0.1386 0.42019 0.0
C464 C 0.80192 0.08074 0.45676 0.0
C465 C 0.77552 0.08636 0.4875 0.0
C466 C 0.75052 0.11801 0.48458 0.0
C467 C 0.75306 0.14475 0.45122 0.0
C468 C 0.72288 0.12409 0.51708 0.0
C469 C 0.72927 0.15992 0.54066 0.0
C470 C 0.70271 0.16607 0.57101 0.0
C471 C 0.6698 0.1367 0.57743 0.0
C472 C 0.6634 0.10073 0.5549 0.0
C473 C 0.69019 0.09409 0.52482 0.0
H474 H 0.18995 0.48318 0.86809 0.0
H475 H 0.22608 0.52394 0.75058 0.0
H476 H 0.12144 0.56635 0.8019 0.0
H477 H 0.11111 0.54161 0.71535 0.0
H478 H 0.155 0.64291 0.64159 0.0
H479 H 0.22394 0.61566 0.74976 0.0
C480 C 0.18615 0.50236 0.84178 0.0
C481 C 0.15338 0.52531 0.83901 0.0
C482 C 0.21208 0.50106 0.81003 0.0
C483 C 0.20622 0.52493 0.77542 0.0
C484 C 0.17402 0.54943 0.77265 0.0
C485 C 0.14698 0.54867 0.80423 0.0
C486 C 0.16841 0.5754 0.7366 0.0
C487 C 0.1339 0.56702 0.70972 0.0
C488 C 0.12938 0.59133 0.67524 0.0
C489 C 0.15887 0.62399 0.66809 0.0
C490 C 0.19286 0.6332 0.69461 0.0
C491 C 0.19771 0.60881 0.72901 0.0
H492 H 0.09301 0.46664 0.07967 0.0
H493 H 0.07952 0.47996 0.83843 0.0
H494 H 0.02124 0.37754 1.00308 0.0
H495 H 0.16575 0.55598 0.91516 0.0
H496 H 0.04615 0.45213 0.89866 0.0
H497 H 0.10953 0.50808 0.02025 0.0
C498 C 0.08012 0.45619 0.05041 0.0
C499 C 0.05568 0.41863 0.0464 0.0
C500 C 0.07166 0.47573 0.9023 0.0
C501 C 0.07466 0.46583 0.97792 0.0
C502 C 0.09021 0.49208 0.86793 0.0
C503 C 0.12499 0.5206 0.872 0.0
C504 C 0.08825 0.48793 0.9409 0.0
C505 C 0.1386 0.53444 0.91087 0.0
C506 C 0.0897 0.47976 0.01643 0.0
C507 C 0.04058 0.40607 0.00749 0.0
N508 N 0.12051 0.51762 0.94386 0.0
N509 N 0.05042 0.42954 0.97473 0.0
H510 H 0.97476 0.70175 0.25209 0.0
H511 H 0.80238 0.82771 0.15569 0.0
H512 H 0.91182 0.78462 0.31864 0.0
H513 H 0.88565 0.77031 0.0859 0.0
H514 H 0.82761 0.79429 0.21666 0.0
H515 H 0.92941 0.71068 0.19277 0.0
C516 C 0.95108 0.72142 0.25442 0.0
C517 C 0.94752 0.743 0.29023 0.0
C518 C 0.83951 0.78797 0.18782 0.0
C519 C 0.89532 0.7531 0.22247 0.0
C520 C 0.8246 0.80647 0.15296 0.0
C521 C 0.8418 0.80138 0.11584 0.0
C522 C 0.87202 0.76454 0.18541 0.0
C523 C 0.87138 0.77456 0.11399 0.0
C524 C 0.92522 0.7265 0.22051 0.0
C525 C 0.91608 0.76787 0.2915 0.0
N526 N 0.88606 0.75763 0.14842 0.0
N527 N 0.89141 0.77247 0.25804 0.0
H528 H 0.55709 0.70655 0.55044 0.0
H529 H 0.4327 0.54691 0.40844 0.0
H530 H 0.46981 0.61222 0.59558 0.0
H531 H 0.54153 0.62054 0.37451 0.0
H532 H 0.45443 0.55815 0.47978 0.0
H533 H 0.56017 0.66656 0.48941 0.0
C534 C 0.53892 0.67713 0.54768 0.0
C535 C 0.51241 0.66315 0.57764 0.0
C536 C 0.47434 0.57067 0.4568 0.0
C537 C 0.51546 0.61713 0.50751 0.0
C538 C 0.46212 0.5638 0.41608 0.0
C539 C 0.48514 0.58338 0.38584 0.0
C540 C 0.50931 0.59787 0.46689 0.0
C541 C 0.5228 0.60532 0.39715 0.0
C542 C 0.54084 0.65411 0.51288 0.0
C543 C 0.4902 0.62442 0.57287 0.0
N544 N 0.53322 0.61291 0.4368 0.0
N545 N 0.4915 0.60313 0.53799 0.0
H546 H 0.6109 0.3001 0.75031 0.0
H547 H 0.76147 0.18029 0.63138 0.0
H548 H 0.71104 0.24514 0.80713 0.0
H549 H 0.6563 0.22788 0.57652 0.0
H550 H 0.7548 0.21994 0.69256 0.0
H551 H 0.63671 0.28809 0.68426 0.0
C552 C 0.63836 0.28556 0.74888 0.0
C553 C 0.65837 0.27288 0.78427 0.0
C554 C 0.73391 0.22274 0.6667 0.0
C555 C 0.68838 0.25925 0.70871 0.0
C556 C 0.73814 0.20062 0.63161 0.0
C557 C 0.70936 0.20097 0.5991 0.0
C558 C 0.70038 0.24484 0.66918 0.0
C559 C 0.67912 0.22702 0.60105 0.0
C560 C 0.65333 0.27904 0.71118 0.0
C561 C 0.69458 0.25532 0.78068 0.0
N562 N 0.67491 0.24731 0.63583 0.0
N563 N 0.70809 0.24847 0.74356 0.0
H564 H 0.05316 0.62215 0.43601 0.0
H565 H 0.05853 0.62469 0.67546 0.0
H566 H 0.99887 0.70826 0.50714 0.0
H567 H 0.12427 0.54767 0.60548 0.0
H568 H 0.01862 0.64011 0.6142 0.0
H569 H 0.06259 0.58138 0.49675 0.0
C570 C 0.04258 0.63219 0.46423 0.0
C571 C 0.02614 0.66932 0.46659 0.0
C572 C 0.04076 0.61869 0.61236 0.0
C573 C 0.03679 0.62252 0.53636 0.0
C574 C 0.06304 0.60936 0.6475 0.0
C575 C 0.09452 0.58479 0.64541 0.0
C576 C 0.05058 0.6038 0.57487 0.0
C577 C 0.09998 0.56652 0.60829 0.0
C578 C 0.0479 0.60877 0.49893 0.0
C579 C 0.01246 0.68033 0.50397 0.0
N580 N 0.07889 0.57709 0.57427 0.0
N581 N 0.01868 0.65741 0.53745 0.0
H582 H 0.65925 0.78318 0.69683 0.0
H583 H 0.67147 0.77945 0.93804 0.0
H584 H 0.55792 0.74513 0.77035 0.0
H585 H 0.76492 0.84113 0.86699 0.0
H586 H 0.63731 0.7489 0.87622 0.0
H587 H 0.70443 0.7887 0.75796 0.0
C588 C 0.64653 0.77556 0.72573 0.0
C589 C 0.60454 0.76439 0.72854 0.0
C590 C 0.66588 0.7682 0.87418 0.0
C591 C 0.65625 0.77033 0.79849 0.0
C592 C 0.68569 0.78503 0.90951 0.0
C593 C 0.72109 0.81246 0.90742 0.0
C594 C 0.68135 0.77948 0.83655 0.0
C595 C 0.73786 0.81971 0.86972 0.0
C596 C 0.67239 0.7787 0.76058 0.0
C597 C 0.58994 0.75449 0.76679 0.0
N598 N 0.71744 0.8039 0.83558 0.0
N599 N 0.61569 0.758 0.80025 0.0
H600 H 0.56182 0.37431 0.03329 0.0
H601 H 0.42074 0.53537 0.10653 0.0
H602 H 0.49301 0.445 0.95172 0.0
H603 H 0.50522 0.48073 0.18681 0.0
H604 H 0.45155 0.50773 0.04867 0.0
H605 H 0.54379 0.41499 0.09 0.0
C606 C 0.54294 0.39847 0.02742 0.0
C607 C 0.52905 0.40668 0.98787 0.0
C608 C 0.4641 0.5026 0.07885 0.0
C609 C 0.50832 0.45327 0.05216 0.0
C610 C 0.44689 0.51887 0.11174 0.0
C611 C 0.46096 0.51064 0.15118 0.0
C612 C 0.49481 0.47708 0.08569 0.0
C613 C 0.49408 0.48816 0.15667 0.0
C614 C 0.53288 0.42185 0.05963 0.0
C615 C 0.50498 0.43846 0.98167 0.0
N616 N 0.50949 0.4715 0.12427 0.0
N617 N 0.49513 0.46042 0.01345 0.0
H618 H 0.9302 0.28759 0.26668 0.0
H619 H 0.75361 0.1248 0.34173 0.0
H620 H 0.85302 0.20501 0.18753 0.0
H621 H 0.82212 0.21385 0.42067 0.0
H622 H 0.78291 0.16064 0.28339 0.0
H623 H 0.88639 0.26673 0.32231 0.0
C624 C 0.90395 0.26524 0.26096 0.0
C625 C 0.89531 0.24798 0.22236 0.0
C626 C 0.79075 0.17315 0.3133 0.0
C627 C 0.84487 0.22407 0.28575 0.0
C628 C 0.77363 0.15292 0.34651 0.0
C629 C 0.78514 0.16682 0.3858 0.0
C630 C 0.8203 0.20704 0.31955 0.0
C631 C 0.81208 0.20266 0.39069 0.0
C632 C 0.87874 0.25357 0.29262 0.0
C633 C 0.86055 0.21953 0.21656 0.0
N634 N 0.82932 0.22121 0.35797 0.0
N635 N 0.8369 0.20824 0.2479 0.0
H636 H 0.99594 0.97572 0.36326 0.0
H637 H 0.86209 0.07997 0.51595 0.0
H638 H 0.04515 0.05294 0.46307 0.0
H639 H 0.81483 0.0203 0.4051 0.0
H640 H 0.92677 0.05245 0.50838 0.0
H641 H 0.92809 0.97602 0.38835 0.0
C642 C 0.99258 0.9927 0.39047 0.0
C643 C 0.02635 0.01515 0.41046 0.0
C644 C 0.90187 0.0444 0.48631 0.0
C645 C 0.9486 0.0152 0.43972 0.0
C646 C 0.86479 0.05961 0.49096 0.0
C647 C 0.83336 0.05257 0.46091 0.0
C648 C 0.90735 0.02225 0.45127 0.0
C649 C 0.8385 0.02648 0.4288 0.0
C650 C 0.95382 0.99255 0.405 0.0
C651 C 0.02015 0.03539 0.44644 0.0
N652 N 0.8751 0.01291 0.42438 0.0
N653 N 0.98199 0.03541 0.45957 0.0
H654 H 0.2848 0.88476 0.6489 0.0
H655 H 0.24078 0.64201 0.63079 0.0
H656 H 0.26862 0.8178 0.53654 0.0
H657 H 0.20737 0.70651 0.73421 0.0
H658 H 0.27051 0.70655 0.60252 0.0
H659 H 0.27269 0.82005 0.68588 0.0
C660 C 0.27883 0.85651 0.63202 0.0
C661 C 0.27725 0.85674 0.5895 0.0
C662 C 0.25745 0.70659 0.6318 0.0
C663 C 0.26444 0.78286 0.63159 0.0
C664 C 0.24102 0.66974 0.64816 0.0
C665 C 0.2218 0.66906 0.68488 0.0
C666 C 0.25449 0.74317 0.65217 0.0
C667 C 0.22225 0.70585 0.70595 0.0
C668 C 0.27201 0.81969 0.65315 0.0
C669 C 0.26959 0.81922 0.56924 0.0
N670 N 0.23791 0.74163 0.68907 0.0
N671 N 0.26359 0.78392 0.59043 0.0
H672 H 0.5492 0.04647 0.85255 0.0
H673 H 0.66059 0.92201 0.02275 0.0
H674 H 0.49168 0.99578 0.95839 0.0
H675 H 0.71328 0.96375 0.91172 0.0
H676 H 0.60447 0.96298 0.0079 0.0
H677 H 0.61438 0.02941 0.88109 0.0
C678 C 0.55022 0.03188 0.88184 0.0
C679 C 0.5146 0.02177 0.9026 0.0
C680 C 0.62885 0.96405 0.98729 0.0
C681 C 0.58944 1.0024 0.93576 0.0
C682 C 0.66106 0.94108 0.99605 0.0
C683 C 0.69136 0.93968 0.96837 0.0
C684 C 0.62704 0.98538 0.95049 0.0
C685 C 0.69037 0.9642 0.93378 0.0
C686 C 0.58757 0.02241 0.8983 0.0
C687 C 0.51817 1.004 0.9411 0.0
N688 N 0.6584 0.98558 0.92551 0.0
N689 N 0.55478 0.99437 0.95616 0.0
H690 H 0.25076 0.29642 0.0867 0.0
H691 H 0.38192 0.4118 0.26545 0.0
H692 H 0.31447 0.2348 0.18074 0.0
H693 H 0.30574 0.46998 0.17944 0.0
H694 H 0.34613 0.34543 0.24479 0.0
H695 H 0.25991 0.35822 0.12786 0.0
C696 C 0.26624 0.29575 0.11629 0.0
C697 C 0.2824 0.26056 0.13011 0.0
C698 C 0.33616 0.37274 0.2314 0.0
C699 C 0.29346 0.33148 0.1774 0.0
C700 C 0.3562 0.41067 0.2437 0.0
C701 C 0.34656 0.44627 0.22418 0.0
C702 C 0.30683 0.3706 0.19893 0.0
C703 C 0.3138 0.44315 0.19537 0.0
C704 C 0.27136 0.33105 0.13991 0.0
C705 C 0.30176 0.26134 0.1689 0.0
N706 N 0.29571 0.40595 0.18296 0.0
N707 N 0.30741 0.29641 0.19089 0.0
H708 H 0.10893 0.97825 0.14263 0.0
H709 H 0.86969 0.9689 0.10226 0.0
H710 H 0.02841 0.02775 0.22255 0.0
H711 H 0.94669 0.90183 0.03411 0.0
H712 H 0.93032 0.00883 0.13331 0.0
H713 H 0.05301 0.96735 0.0913 0.0
C714 C 0.0796 0.98718 0.1493 0.0
C715 C 0.0731 1.00302 0.18736 0.0
C716 C 0.934 0.9863 0.11058 0.0
C717 C 0.00896 0.99063 0.12866 0.0
C718 C 0.89941 0.96398 0.09249 0.0
C719 C 0.90349 0.93228 0.06569 0.0
C720 C 0.97273 0.97635 0.10203 0.0
C721 C 0.94252 0.92625 0.05458 0.0
C722 C 0.04772 0.98106 0.11989 0.0
C723 C 0.03464 0.01476 0.19393 0.0
N724 N 0.97575 0.94758 0.07337 0.0
N725 N 1.00389 1.00778 0.1651 0.0
H726 H 0.31381 0.83229 0.39203 0.0
H727 H 0.48569 0.71466 0.30461 0.0
H728 H 0.44057 0.88133 0.39362 0.0
H729 H 0.35904 0.66675 0.30299 0.0
H730 H 0.46789 0.78135 0.32428 0.0
H731 H 0.32811 0.77715 0.349 0.0
C732 C 0.34464 0.83197 0.3831 0.0
C733 C 0.37613 0.86162 0.39726 0.0
C734 C 0.44383 0.75656 0.3188 0.0
C735 C 0.3928 0.79744 0.34785 0.0
C736 C 0.45395 0.71865 0.3071 0.0
C737 C 0.42375 0.68523 0.30238 0.0
C738 C 0.40331 0.76082 0.32658 0.0
C739 C 0.38316 0.69182 0.30621 0.0
C740 C 0.3528 0.80009 0.35851 0.0
C741 C 0.41543 0.85888 0.38433 0.0
N742 N 0.37418 0.72865 0.31889 0.0
N743 N 0.42269 0.82718 0.36072 0.0
H744 H 0.51924 0.96456 0.7248 0.0
H745 H 0.58343 0.1034 0.53508 0.0
H746 H 0.44644 0.05125 0.66857 0.0
H747 H 0.66565 0.03374 0.6026 0.0
H748 H 0.52721 0.07087 0.57325 0.0
H749 H 0.56781 0.97774 0.67163 0.0
C750 C 0.51317 0.98595 0.70101 0.0
C751 C 0.47897 1.00723 0.70144 0.0
C752 C 0.55732 0.06186 0.57911 0.0
C753 C 0.5342 0.02211 0.64032 0.0
C754 C 0.58922 0.0799 0.55682 0.0
C755 C 0.62897 0.07078 0.56549 0.0
C756 C 0.5654 0.03495 0.6107 0.0
C757 C 0.63523 0.04102 0.59468 0.0
C758 C 0.54097 0.99352 0.67073 0.0
C759 C 0.47264 0.03452 0.66975 0.0
N760 N 0.60389 0.02461 0.61677 0.0
N761 N 0.50004 0.04129 0.64066 0.0
H762 H 0.32762 0.32342 0.94223 0.0
H763 H 0.21159 0.43352 0.76332 0.0
H764 H 0.24394 0.26148 0.85255 0.0
H765 H 0.27506 0.49677 0.86558 0.0
H766 H 0.2401 0.37128 0.78481 0.0
H767 H 0.32314 0.3875 0.90553 0.0
C768 C 0.30862 0.32321 0.91461 0.0
C769 C 0.28607 0.28697 0.90041 0.0
C770 C 0.24878 0.39906 0.80194 0.0
C771 C 0.28109 0.36005 0.85802 0.0
C772 C 0.23304 0.43473 0.78926 0.0
C773 C 0.24102 0.47019 0.81277 0.0
C774 C 0.27249 0.39896 0.83847 0.0
C775 C 0.26831 0.46995 0.84666 0.0
C776 C 0.30629 0.35972 0.89351 0.0
C777 C 0.26243 0.28842 0.86411 0.0
N778 N 0.28249 0.43471 0.85894 0.0
N779 N 0.26026 0.32431 0.84441 0.0
H780 H 0.3692 0.05532 0.01286 0.0
H781 H 0.53158 0.95371 0.15522 0.0
H782 H 0.44953 0.11944 0.10427 0.0
H783 H 0.43888 0.8847 0.07945 0.0
H784 H 0.51328 0.01659 0.12351 0.0
H785 H 0.40382 0.99463 0.02544 0.0
C786 C 0.39413 0.05679 0.03545 0.0
C787 C 0.4061 0.09266 0.05775 0.0
C788 C 0.49766 0.98767 0.11291 0.0
C789 C 0.4463 0.02333 0.07193 0.0
C790 C 0.50858 0.95177 0.13058 0.0
C791 C 0.48706 0.91409 0.11944 0.0
C792 C 0.46452 0.98582 0.08436 0.0
C793 C 0.45659 0.9132 0.08831 0.0
C794 C 0.41411 0.02218 0.0424 0.0
C795 C 0.4393 0.09283 0.08603 0.0
N796 N 0.44577 0.94859 0.07226 0.0
N797 N 0.45793 0.05872 0.09249 0.0
H798 H 0.90618 0.49258 0.97986 0.0
H799 H 0.8934 0.72994 0.99427 0.0
H800 H 0.81517 0.546 0.04344 0.0
H801 H 0.98669 0.67828 0.93319 0.0
H802 H 0.8741 0.66393 0.02585 0.0
H803 H 0.94447 0.56015 0.97447 0.0
C804 C 0.8945 0.51838 0.9932 0.0
C805 C 0.85697 0.51363 0.01147 0.0
C806 C 0.89959 0.66715 0.00648 0.0
C807 C 0.90064 0.59121 1.00525 0.0
C808 C 0.91091 0.70499 0.98893 0.0
C809 C 0.94181 0.70942 0.96143 0.0
C810 C 0.91871 0.63331 0.99565 0.0
C811 C 0.963 0.67605 0.95465 0.0
C812 C 0.91644 0.55701 0.99015 0.0
C813 C 0.84363 0.54819 0.02856 0.0
N814 N 0.95052 0.63912 0.97096 0.0
N815 N 0.86512 0.5855 0.02453 0.0
H816 H 0.75061 0.59585 0.30657 0.0
H817 H 0.65424 0.79324 0.234 0.0
H818 H 0.82011 0.71436 0.29761 0.0
H819 H 0.58512 0.67649 0.25212 0.0
H820 H 0.71291 0.76897 0.2707 0.0
H821 H 0.68839 0.62787 0.29951 0.0
C822 C 0.75308 0.6286 0.30364 0.0
C823 C 0.79111 0.65209 0.30165 0.0
C824 C 0.68457 0.749 0.26772 0.0
C825 C 0.71928 0.68911 0.29279 0.0
C826 C 0.65097 0.76309 0.24726 0.0
C827 C 0.61507 0.73668 0.24 0.0
C828 C 0.68211 0.70816 0.28051 0.0
C829 C 0.61244 0.69766 0.25713 0.0
C830 C 0.71728 0.64695 0.29946 0.0
C831 C 0.79174 0.69461 0.29796 0.0
N832 N 0.64576 0.68429 0.2759 0.0
N833 N 0.75644 0.71161 0.29297 0.0
H834 H 0.69913 0.54356 0.56696 0.0
H835 H 0.50356 0.43558 0.44642 0.0
H836 H 0.6092 0.60811 0.50399 0.0
H837 H 0.59517 0.37214 0.50755 0.0
H838 H 0.53116 0.49798 0.48288 0.0
H839 H 0.65259 0.48066 0.55998 0.0
C840 C 0.6694 0.54459 0.55204 0.0
C841 C 0.65829 0.58103 0.53543 0.0
C842 C 0.5445 0.47014 0.4893 0.0
C843 C 0.60486 0.50898 0.52699 0.0
C844 C 0.52833 0.4344 0.46892 0.0
C845 C 0.54739 0.39893 0.4739 0.0
C846 C 0.58011 0.4702 0.51441 0.0
C847 C 0.57978 0.39903 0.5029 0.0
C848 C 0.64272 0.50867 0.54818 0.0
C849 C 0.61909 0.58067 0.51702 0.0
N850 N 0.59567 0.43433 0.52144 0.0
N851 N 0.59406 0.5451 0.51267 0.0
H852 H 0.28404 0.9598 0.33163 0.0
H853 H 0.39029 0.79294 0.21672 0.0
H854 H 0.21906 0.85306 0.27359 0.0
H855 H 0.45374 0.90446 0.26608 0.0
H856 H 0.32963 0.80621 0.25145 0.0
H857 H 0.34814 0.93243 0.32129 0.0
C858 C 0.28326 0.9306 0.3168 0.0
C859 C 0.24619 0.9092 0.30258 0.0
C860 C 0.35709 0.82736 0.25542 0.0
C861 C 0.31936 0.87763 0.2906 0.0
C862 C 0.39181 0.81946 0.23607 0.0
C863 C 0.42674 0.84784 0.23844 0.0
C864 C 0.35755 0.86389 0.27718 0.0
C865 C 0.42718 0.88198 0.26348 0.0
C866 C 0.31982 0.91485 0.31109 0.0
C867 C 0.24688 0.87079 0.28479 0.0
N868 N 0.3929 0.8894 0.28139 0.0
N869 N 0.28289 0.85655 0.27875 0.0
H870 H 0.29456 0.13266 0.53372 0.0
H871 H 0.07526 0.18155 0.59384 0.0
H872 H 0.19352 0.04103 0.55339 0.0
H873 H 0.17821 0.27281 0.58422 0.0
H874 H 0.11391 0.13149 0.56413 0.0
H875 H 0.24964 0.1853 0.54074 0.0
C876 C 0.26307 0.12345 0.53977 0.0
C877 C 0.24815 0.08204 0.54345 0.0
C878 C 0.12771 0.16274 0.56734 0.0
C879 C 0.19606 0.14259 0.55072 0.0
C880 C 0.10529 0.1915 0.58352 0.0
C881 C 0.12345 0.2314 0.59109 0.0
C882 C 0.16872 0.17395 0.55909 0.0
C883 C 0.16298 0.24243 0.57838 0.0
C884 C 0.23724 0.15364 0.54329 0.0
C885 C 0.20658 0.07234 0.55017 0.0
N886 N 0.18457 0.21372 0.56371 0.0
N887 N 0.18217 0.10229 0.55383 0.0
H888 H 0.81581 0.42417 0.33532 0.0
H889 H 0.57497 0.37494 0.30509 0.0
H890 H 0.74454 0.47684 0.24043 0.0
H891 H 0.64786 0.32375 0.39922 0.0
H892 H 0.6374 0.40162 0.27234 0.0
H893 H 0.756 0.37762 0.35108 0.0
C894 C 0.78768 0.42571 0.3175 0.0
C895 C 0.78514 0.45494 0.28688 0.0
C896 C 0.63974 0.38362 0.29958 0.0
C897 C 0.71612 0.40171 0.30503 0.0
C898 C 0.60408 0.36797 0.31794 0.0
C899 C 0.60642 0.3471 0.35477 0.0
C900 C 0.67786 0.37854 0.31849 0.0
C901 C 0.64487 0.33961 0.37073 0.0
C902 C 0.75346 0.39902 0.32649 0.0
C903 C 0.74788 0.45508 0.26455 0.0
N904 N 0.67905 0.35581 0.35286 0.0
N905 N 0.71473 0.42931 0.27442 0.0
H906 H 0.67357 0.671 0.79544 0.0
H907 H 0.91432 0.72572 0.7993 0.0
H908 H 0.75799 0.58782 0.76402 0.0
H909 H 0.83534 0.78852 0.86937 0.0
H910 H 0.85444 0.68899 0.7635 0.0
H911 H 0.73024 0.72578 0.80124 0.0
C912 C 0.70383 0.66435 0.78913 0.0
C913 C 0.71123 0.6245 0.78013 0.0
C914 C 0.85023 0.71182 0.78574 0.0
C915 C 0.77571 0.6873 0.78625 0.0
C916 C 0.88435 0.73321 0.80566 0.0
C917 C 0.87954 0.76012 0.83711 0.0
C918 C 0.81124 0.71732 0.79771 0.0
C919 C 0.84014 0.76812 0.84505 0.0
C920 C 0.73602 0.69569 0.7924 0.0
C921 C 0.75103 0.61789 0.77185 0.0
N922 N 0.80738 0.74621 0.82601 0.0
N923 N 0.78184 0.64887 0.77551 0.0
H924 H 0.55692 0.94898 0.58797 0.0
H925 H 0.55816 0.95639 0.34695 0.0
H926 H 0.49506 0.8549 0.50997 0.0
H927 H 0.63244 0.04131 0.42589 0.0
H928 H 0.5225 0.92765 0.40546 0.0
H929 H 0.57407 0.99034 0.52856 0.0
C930 C 0.54636 0.93736 0.55834 0.0
C931 C 0.52464 0.89841 0.55395 0.0
C932 C 0.5458 0.95332 0.40991 0.0
C933 C 0.54425 0.9456 0.4856 0.0
C934 C 0.56563 0.97014 0.37645 0.0
C935 C 0.59771 1.00163 0.38169 0.0
C936 C 0.55859 0.96784 0.44889 0.0
C937 C 0.60731 0.01753 0.42062 0.0
C938 C 0.55625 0.96092 0.52441 0.0
C939 C 0.51236 0.8845 0.5147 0.0
N940 N 0.58821 1.00012 0.45283 0.0
N941 N 0.52247 0.90799 0.48204 0.0
H942 H 0.39435 0.30842 0.85116 0.0
H943 H 0.3756 0.27136 0.61346 0.0
H944 H 0.47314 0.24028 0.78569 0.0
H945 H 0.30102 0.34653 0.67528 0.0
H946 H 0.39952 0.24557 0.67868 0.0
H947 H 0.35008 0.31071 0.7899 0.0
C948 C 0.40213 0.2935 0.82408 0.0
C949 C 0.43794 0.27465 0.82344 0.0
C950 C 0.37707 0.26686 0.6781 0.0
C951 C 0.38728 0.27712 0.7532 0.0
C952 C 0.36299 0.28105 0.64083 0.0
C953 C 0.33626 0.31085 0.63922 0.0
C954 C 0.36498 0.28334 0.71396 0.0
C955 C 0.3214 0.32323 0.67544 0.0
C956 C 0.37684 0.2949 0.78907 0.0
C957 C 0.44616 0.25555 0.78754 0.0
N958 N 0.33661 0.31006 0.71148 0.0
N959 N 0.42133 0.2577 0.75382 0.0
H960 H 0.06165 0.23362 0.02517 0.0
H961 H 0.94066 0.03888 0.91765 0.0
H962 H 1.00483 0.1297 0.08892 0.0
H963 H 0.99067 0.14637 0.85535 0.0
H964 H 0.98027 0.06313 0.97928 0.0
H965 H 0.0523 0.19419 0.96255 0.0
C966 C 0.04771 0.20233 0.02614 0.0
C967 C 0.03299 0.18533 0.06218 0.0
C968 C 0.98356 0.08088 0.95184 0.0
C969 C 0.02185 0.14008 0.99043 0.0
C970 C 0.96135 0.06676 0.9166 0.0
C971 C 0.9625 0.09083 0.88168 0.0
C972 C 0.00689 0.1193 0.95191 0.0
C973 C 0.98914 0.12703 0.88184 0.0
C974 C 0.0424 0.17978 0.99033 0.0
C975 C 0.01588 0.14437 0.06169 0.0
N976 N 0.0098 0.14052 0.91662 0.0
N977 N 0.01011 0.12338 0.02625 0.0
H978 H 0.10373 0.79661 0.25533 0.0
H979 H 0.26822 0.67219 0.16479 0.0
H980 H 0.2012 0.75044 0.32629 0.0
H981 H 0.17001 0.71644 0.09403 0.0
H982 H 0.2551 0.7161 0.22085 0.0
H983 H 0.13671 0.78151 0.19386 0.0
C984 C 0.13214 0.7835 0.25808 0.0
C985 C 0.14905 0.77386 0.29618 0.0
C986 C 0.23721 0.71729 0.19264 0.0
C987 C 0.18732 0.75674 0.22572 0.0
C988 C 0.24519 0.69271 0.16044 0.0
C989 C 0.22033 0.69105 0.1248 0.0
C990 C 0.20363 0.73967 0.18926 0.0
C991 C 0.19008 0.71729 0.12098 0.0
C992 C 0.15118 0.77518 0.22291 0.0
C993 C 0.18671 0.75813 0.29774 0.0
N994 N 0.182 0.73989 0.15311 0.0
N995 N 0.20418 0.74948 0.26307 0.0
H996 H 0.48704 0.23122 0.0386 0.0
H997 H 0.61718 0.05877 0.12317 0.0
H998 H 0.55824 0.16275 0.96483 0.0
H999 H 0.555 0.13441 0.19824 0.0
H1000 H 0.5812 0.08374 0.06331 0.0
H1001 H 0.50035 0.1866 0.09566 0.0
C1002 C 0.50478 0.20626 0.03417 0.0
C1003 C 0.52188 0.2009 0.99705 0.0
C1004 C 0.57442 0.09401 0.09293 0.0
C1005 C 0.53618 0.14889 0.06195 0.0
C1006 C 0.59439 0.07914 0.12711 0.0
C1007 C 0.58873 0.09443 0.16554 0.0
C1008 C 0.54924 0.12487 0.09736 0.0
C1009 C 0.55976 0.12161 0.16908 0.0
C1010 C 0.51225 0.1807 0.06673 0.0
C1011 C 0.54482 0.16819 0.9931 0.0
N1012 N 0.54169 0.13664 0.13534 0.0
N1013 N 0.5514 0.1435 0.02518 0.0
H1014 H 0.14307 0.30296 0.21888 0.0
H1015 H 0.16676 0.27136 0.4544 0.0
H1016 H 0.06916 0.20959 0.28216 0.0
H1017 H 0.25486 0.34609 0.38716 0.0
H1018 H 0.13714 0.23998 0.39104 0.0
H1019 H 0.18997 0.31209 0.27839 0.0
C1020 C 0.13686 0.28413 0.2452 0.0
C1021 C 0.10169 0.256 0.24578 0.0
C1022 C 0.1637 0.26235 0.3901 0.0
C1023 C 0.15519 0.26653 0.31431 0.0
C1024 C 0.18079 0.27991 0.42631 0.0
C1025 C 0.21334 0.31099 0.42574 0.0
C1026 C 0.17868 0.27687 0.35313 0.0
C1027 C 0.22997 0.32186 0.38866 0.0
C1028 C 0.1638 0.28921 0.27916 0.0
C1029 C 0.09562 0.23198 0.28051 0.0
N1030 N 0.21197 0.30539 0.35371 0.0
N1031 N 0.12169 0.23828 0.31361 0.0
H1032 H 0.99356 0.94895 0.47506 0.0
H1033 H 0.96539 0.91581 0.71143 0.0
H1034 H 0.02539 0.84405 0.54177 0.0
H1035 H 0.92548 0.01756 0.6453 0.0
H1036 H 0.99879 0.8959 0.65181 0.0
H1037 H 0.97817 0.98026 0.53835 0.0
C1038 C 0.99777 0.93271 0.50305 0.0
C1039 C 0.01048 0.89366 0.50295 0.0
C1040 C 0.98347 0.92307 0.65041 0.0
C1041 C 0.9928 0.92921 0.57572 0.0
C1042 C 0.96483 0.93466 0.68459 0.0
C1043 C 0.94295 0.96845 0.68318 0.0
C1044 C 0.97967 0.94508 0.61428 0.0
C1045 C 0.94248 0.99156 0.6476 0.0
C1046 C 0.98886 0.95054 0.53921 0.0
C1047 C 0.01497 0.87383 0.5402 0.0
N1048 N 0.96004 0.97911 0.61428 0.0
N1049 N 1.00599 0.89172 0.57496 0.0
H1050 H 0.32495 0.68194 0.69682 0.0
H1051 H 0.30203 0.70507 0.93417 0.0
H1052 H 0.39821 0.77156 0.77185 0.0
H1053 H 0.247 0.60232 0.8632 0.0
H1054 H 0.3233 0.73986 0.87188 0.0
H1055 H 0.28448 0.66148 0.75453 0.0
C1056 C 0.33201 0.69785 0.72526 0.0
C1057 C 0.3652 0.72829 0.72964 0.0
C1058 C 0.30557 0.71019 0.8698 0.0
C1059 C 0.31852 0.70527 0.79582 0.0
C1060 C 0.29286 0.69067 0.90528 0.0
C1061 C 0.27263 0.65098 0.90362 0.0
C1062 C 0.29802 0.68969 0.83258 0.0
C1063 C 0.26234 0.63308 0.86558 0.0
C1064 C 0.30888 0.68611 0.75823 0.0
C1065 C 0.37326 0.74752 0.76739 0.0
N1066 N 0.27566 0.65232 0.83158 0.0
N1067 N 0.35019 0.7356 0.79908 0.0
H1068 H 0.56329 0.5573 0.95558 0.0
H1069 H 0.32117 0.50972 0.92997 0.0
H1070 H 0.49958 0.48614 0.85813 0.0
H1071 H 0.38288 0.59154 0.02011 0.0
H1072 H 0.38676 0.48999 0.91198 0.0
H1073 H 0.49848 0.56159 0.98631 0.0
C1074 C 0.53577 0.54212 0.94089 0.0
C1075 C 0.53708 0.52113 0.90426 0.0
C1076 C 0.38603 0.51157 0.93635 0.0
C1077 C 0.46241 0.52643 0.93907 0.0
C1078 C 0.34852 0.5223 0.94704 0.0
C1079 C 0.34667 0.55214 0.97667 0.0
C1080 C 0.42206 0.53119 0.95509 0.0
C1081 C 0.38301 0.5681 0.99742 0.0
C1082 C 0.49869 0.54484 0.95833 0.0
C1083 C 0.50013 0.50305 0.88606 0.0
N1084 N 0.41932 0.55799 0.98574 0.0
N1085 N 0.4644 0.50618 0.90358 0.0
H1086 H 0.72806 0.3608 0.12883 0.0
H1087 H 0.7524 0.13265 0.17505 0.0
H1088 H 0.82565 0.30289 0.08159 0.0
H1089 H 0.69027 0.20522 0.25329 0.0
H1090 H 0.78461 0.19508 0.14447 0.0
H1091 H 0.71721 0.30549 0.17777 0.0
C1092 C 0.74743 0.33661 0.12896 0.0
C1093 C 0.77745 0.33624 0.10069 0.0
C1094 C 0.76514 0.1975 0.16936 0.0
C1095 C 0.76494 0.27251 0.1565 0.0
C1096 C 0.74723 0.16186 0.18718 0.0
C1097 C 0.71913 0.16395 0.21701 0.0
C1098 C 0.75436 0.2354 0.18115 0.0
C1099 C 0.71229 0.20247 0.23076 0.0
C1100 C 0.74141 0.30514 0.15711 0.0
C1101 C 0.80195 0.3043 0.10262 0.0
N1102 N 0.7291 0.2367 0.21216 0.0
N1103 N 0.79469 0.27335 0.12952 0.0
H1104 H 0.04749 0.55038 0.37668 0.0
H1105 H 0.14015 0.40571 0.54034 0.0
H1106 H 0.98108 0.49743 0.47601 0.0
H1107 H 0.20767 0.4655 0.44501 0.0
H1108 H 0.08558 0.44858 0.52538 0.0
H1109 H 0.10979 0.52842 0.40784 0.0
C1110 C 0.04616 0.53434 0.40524 0.0
C1111 C 0.0091 0.52536 0.42367 0.0
C1112 C 0.11278 0.45313 0.50839 0.0
C1113 C 0.08012 0.49985 0.45956 0.0
C1114 C 0.14401 0.42897 0.51726 0.0
C1115 C 0.17831 0.43252 0.494 0.0
C1116 C 0.1158 0.48034 0.47558 0.0
C1117 C 0.1817 0.46227 0.46376 0.0
C1118 C 0.08172 0.522 0.4232 0.0
C1119 C 0.0091 0.50515 0.46104 0.0
N1120 N 0.15056 0.48464 0.45501 0.0
N1121 N 0.04393 0.49253 0.47749 0.0
H1122 H 0.72859 0.76938 0.59888 0.0
H1123 H 0.85075 0.87393 0.78711 0.0
H1124 H 0.78735 0.70277 0.69277 0.0
H1125 H 0.78013 0.93729 0.70032 0.0
H1126 H 0.81382 0.8092 0.76348 0.0
H1127 H 0.73381 0.82825 0.64377 0.0
C1128 C 0.74223 0.76699 0.62913 0.0
C1129 C 0.75849 0.73144 0.6417 0.0
C1130 C 0.80521 0.83726 0.75057 0.0
C1131 C 0.76503 0.79903 0.69327 0.0
C1132 C 0.82592 0.87426 0.76451 0.0
C1133 C 0.81828 0.91082 0.74561 0.0
C1134 C 0.77745 0.83701 0.71693 0.0
C1135 C 0.78661 0.90967 0.71577 0.0
C1136 C 0.74506 0.80061 0.65487 0.0
C1137 C 0.77502 0.72981 0.68155 0.0
N1138 N 0.76802 0.87327 0.70163 0.0
N1139 N 0.77863 0.76342 0.70562 0.0
H1140 H 0.53917 0.53056 0.71186 0.0
H1141 H 0.44322 0.38483 0.53946 0.0
H1142 H 0.61202 0.46779 0.63442 0.0
H1143 H 0.37727 0.47174 0.59603 0.0
H1144 H 0.50722 0.42365 0.56376 0.0
H1145 H 0.48197 0.51829 0.66227 0.0
C1146 C 0.54325 0.51453 0.6842 0.0
C1147 C 0.58013 0.49936 0.67771 0.0
C1148 C 0.47888 0.43522 0.56965 0.0
C1149 C 0.51453 0.48476 0.62084 0.0
C1150 C 0.44238 0.41324 0.5554 0.0
C1151 C 0.40514 0.42528 0.56582 0.0
C1152 C 0.47792 0.46879 0.59532 0.0
C1153 C 0.40548 0.46174 0.58723 0.0
C1154 C 0.51062 0.50773 0.65571 0.0
C1155 C 0.58392 0.47948 0.64096 0.0
N1156 N 0.44132 0.48171 0.60217 0.0
N1157 N 0.55125 0.47198 0.61429 0.0
H1158 H 0.79429 0.34427 0.84341 0.0
H1159 H 0.80544 0.10601 0.87519 0.0
H1160 H 0.75197 0.27693 0.94792 0.0
H1161 H 0.86166 0.17539 0.7786 0.0
H1162 H 0.77292 0.16543 0.89418 0.0
H1163 H 0.80791 0.28071 0.81255 0.0
C1164 C 0.78741 0.31615 0.85974 0.0
C1165 C 0.77217 0.31623 0.89856 0.0
C1166 C 0.79151 0.16747 0.86817 0.0
C1167 C 0.78802 0.24303 0.86332 0.0
C1168 C 0.80953 0.13336 0.85699 0.0
C1169 C 0.83565 0.13578 0.82494 0.0
C1170 C 0.8002 0.20443 0.84748 0.0
C1171 C 0.8411 0.17223 0.80305 0.0
C1172 C 0.79537 0.27981 0.84211 0.0
C1173 C 0.76446 0.27865 0.91838 0.0
N1174 N 0.82395 0.20533 0.81502 0.0
N1175 N 0.77257 0.24369 0.90061 0.0
H1176 H 0.95101 0.55203 0.18863 0.0
H1177 H 0.17726 0.52468 0.14049 0.0
H1178 H 0.01728 0.46275 0.24952 0.0
H1179 H 0.09878 0.58848 0.06192 0.0
H1180 H 0.11794 0.49596 0.17693 0.0
H1181 H 1.00317 0.56162 0.13896 0.0
C1182 C 0.9764 0.53419 0.19138 0.0
C1183 C 0.97993 0.50682 0.22355 0.0
C1184 C 0.11345 0.51528 0.15098 0.0
C1185 C 0.04022 0.51801 0.16689 0.0
C1186 C 0.14722 0.5311 0.12982 0.0
C1187 C 0.14265 0.55831 0.09778 0.0
C1188 C 0.07504 0.52747 0.14041 0.0
C1189 C 0.10334 0.56699 0.08603 0.0
C1190 C 1.00615 0.53957 0.16289 0.0
C1191 C 0.01336 0.48429 0.22532 0.0
N1192 N 0.07115 0.55215 0.1077 0.0
N1193 N 0.04253 0.49085 0.1978 0.0
H1194 H 0.80098 0.80179 0.45137 0.0
H1195 H 0.68657 0.91766 0.27575 0.0
H1196 H 0.71514 0.74259 0.36172 0.0
H1197 H 0.75009 0.97721 0.37994 0.0
H1198 H 0.71358 0.85418 0.29582 0.0
H1199 H 0.79722 0.86652 0.41603 0.0
C1200 C 0.78154 0.80231 0.42411 0.0
C1201 C 0.7581 0.76666 0.40965 0.0
C1202 C 0.72268 0.88145 0.31363 0.0
C1203 C 0.75406 0.8406 0.3687 0.0
C1204 C 0.70781 0.91778 0.30178 0.0
C1205 C 0.71647 0.95259 0.32612 0.0
C1206 C 0.74615 0.88009 0.35016 0.0
C1207 C 0.74319 0.95101 0.36021 0.0
C1208 C 0.77965 0.83922 0.40377 0.0
C1209 C 0.7341 0.76909 0.37367 0.0
N1210 N 0.75659 0.91517 0.37161 0.0
N1211 N 0.73241 0.80543 0.35467 0.0
H1212 H 0.85169 0.54047 0.50711 0.0
H1213 H 0.03657 0.4464 0.62084 0.0
H1214 H 0.94713 0.61106 0.5789 0.0
H1215 H 0.93697 0.37578 0.55527 0.0
H1216 H 0.01358 0.50879 0.59207 0.0
H1217 H 0.89004 0.48195 0.51279 0.0
C1218 C 0.8807 0.54376 0.52406 0.0
C1219 C 0.89573 0.58069 0.5432 0.0
C1220 C 0.99742 0.4796 0.583 0.0
C1221 C 0.94022 0.51366 0.54948 0.0
C1222 C 0.01096 0.44399 0.59891 0.0
C1223 C 0.98856 0.40608 0.5903 0.0
C1224 C 0.96106 0.47701 0.55872 0.0
C1225 C 0.95507 0.40453 0.56244 0.0
C1226 C 0.90279 0.51035 0.52704 0.0
C1227 C 0.93422 0.58332 0.56368 0.0
N1228 N 0.94188 0.43952 0.54823 0.0
N1229 N 0.95487 0.55015 0.56669 0.0
H1230 H 0.22368 0.04983 0.44179 0.0
H1231 H 0.44579 0.16174 0.41078 0.0
H1232 H 0.3248 0.98534 0.4164 0.0
H1233 H 0.3483 0.22185 0.45437 0.0
H1234 H 0.40549 0.09575 0.42099 0.0
H1235 H 0.27023 0.11288 0.4493 0.0
C1236 C 0.25584 0.04895 0.43812 0.0
C1237 C 0.27078 0.01207 0.43017 0.0
C1238 C 0.39335 0.12329 0.42952 0.0
C1239 C 0.32442 0.08398 0.43891 0.0
C1240 C 0.41675 0.16092 0.42449 0.0
C1241 C 0.40043 0.19721 0.43202 0.0
C1242 C 0.3532 0.12216 0.44163 0.0
C1243 C 0.36209 0.1945 0.44859 0.0
C1244 C 0.2825 0.08482 0.44286 0.0
C1245 C 0.31253 0.01262 0.42503 0.0
N1246 N 0.33943 0.15772 0.452 0.0
N1247 N 0.33795 0.04798 0.42953 0.0
H1248 H 0.25701 0.10303 0.79038 0.0
H1249 H 0.18362 0.31272 0.72962 0.0
H1250 H 0.33584 0.21653 0.79674 0.0
H1251 H 0.10163 0.2037 0.7464 0.0
H1252 H 0.23733 0.2818 0.7674 0.0
H1253 H 0.1983 0.14108 0.78646 0.0
C1254 C 0.26216 0.13593 0.79146 0.0
C1255 C 0.30175 0.15658 0.79263 0.0
C1256 C 0.20719 0.2651 0.76434 0.0
C1257 C 0.23433 0.2005 0.78737 0.0
C1258 C 0.17632 0.28314 0.74338 0.0
C1259 C 0.13825 0.26069 0.73506 0.0
C1260 C 0.19991 0.22416 0.77644 0.0
C1261 C 0.13059 0.22202 0.75253 0.0
C1262 C 0.22847 0.15773 0.78913 0.0
C1263 C 0.30611 0.19933 0.79406 0.0
N1264 N 0.16148 0.20448 0.77146 0.0
N1265 N 0.27296 0.21984 0.79054 0.0
H1266 H 0.21117 0.06735 0.04973 0.0
H1267 H 0.01868 0.97303 0.91774 0.0
H1268 H 0.1255 0.14016 0.99103 0.0
H1269 H 0.09185 0.9013 0.9939 0.0
H1270 H 0.05027 0.03457 0.95297 0.0
H1271 H 0.16213 1.00682 0.03843 0.0
C1272 C 0.18187 0.07069 0.03483 0.0
C1273 C 0.17279 0.10881 0.0206 0.0
C1274 C 0.05832 1.00531 0.96315 0.0
C1275 C 0.11649 0.03943 0.00722 0.0
C1276 C 0.04005 0.97018 0.94322 0.0
C1277 C 0.05253 0.93224 0.95333 0.0
C1278 C 0.08974 1.00243 0.99287 0.0
C1279 C 0.08118 0.93009 0.98568 0.0
C1280 C 0.15376 0.03609 0.02851 0.0
C1281 C 0.13407 0.11134 1.00203 0.0
N1282 N 0.09939 0.96481 1.00387 0.0
N1283 N 0.10764 0.07704 0.99526 0.0
H1284 H 0.71908 0.34066 0.75068 0.0
H1285 H 0.96183 0.37944 0.7463 0.0
H1286 H 0.79201 0.44753 0.79923 0.0
H1287 H 0.88788 0.29114 0.67071 0.0
H1288 H 0.90092 0.3935 0.78008 0.0
H1289 H 0.78126 0.31247 0.73384 0.0
C1290 C 0.74822 0.3579 0.75828 0.0
C1291 C 0.75036 0.39654 0.77619 0.0
C1292 C 0.8981 0.37024 0.75686 0.0
C1293 C 0.82172 0.36462 0.75706 0.0
C1294 C 0.93294 0.36176 0.73809 0.0
C1295 C 0.92982 0.33364 0.70623 0.0
C1296 C 0.85983 0.35068 0.74339 0.0
C1297 C 0.89153 0.31249 0.69569 0.0
C1298 C 0.78368 0.34194 0.74848 0.0
C1299 C 0.78895 0.41794 0.78487 0.0
N1300 N 0.85791 0.32174 0.71392 0.0
N1301 N 0.82306 0.40173 0.77519 0.0
H1302 H 0.57934 0.49642 0.03208 0.0
H1303 H 0.61814 0.73488 0.0806 0.0
H1304 H 0.69255 0.57122 0.01606 0.0
H1305 H 0.51376 0.65676 0.11833 0.0
H1306 H 0.63815 0.67839 0.04166 0.0
H1307 H 0.5486 0.55695 0.05101 0.0
C1308 C 0.59753 0.52567 0.03227 0.0
C1309 C 0.63856 0.52864 0.02306 0.0
C1310 C 0.61023 0.67383 0.05748 0.0
C1311 C 0.60372 0.59841 0.04399 0.0
C1312 C 0.59844 0.70628 0.07907 0.0
C1313 C 0.56394 0.70053 0.10207 0.0
C1314 C 0.58757 0.63521 0.05934 0.0
C1315 C 0.54014 0.66253 0.10031 0.0
C1316 C 0.58007 0.56024 0.04304 0.0
C1317 C 0.66099 0.5674 0.02364 0.0
N1318 N 0.5527 0.63109 0.07982 0.0
N1319 N 0.64332 0.60072 0.03401 0.0
H1320 H 0.24754 0.99033 0.71635 0.0
H1321 H 0.13524 0.82781 0.86464 0.0
H1322 H 0.30888 0.92477 0.80933 0.0
H1323 H 0.07525 0.91669 0.79646 0.0
H1324 H 0.19737 0.84811 0.82884 0.0
H1325 H 0.18345 0.94939 0.7306 0.0
C1326 C 0.24771 0.96689 0.7393 0.0
C1327 C 0.28355 0.96149 0.76221 0.0
C1328 C 0.17027 0.86237 0.82084 0.0
C1329 C 0.21028 0.91449 0.77852 0.0
C1330 C 0.13476 0.85041 0.84087 0.0
C1331 C 0.10024 0.87045 0.83309 0.0
C1332 C 0.17116 0.89474 0.7931 0.0
C1333 C 0.10127 0.90031 0.80287 0.0
C1334 C 0.21107 0.94359 0.74744 0.0
C1335 C 0.28189 0.93045 0.79137 0.0
N1336 N 0.13637 0.91195 0.78429 0.0
N1337 N 0.24581 0.90842 0.79897 0.0
H1338 H 0.19223 0.14806 0.30435 0.0
H1339 H 0.41497 0.23774 0.27463 0.0
H1340 H 0.26825 0.09679 0.22113 0.0
H1341 H 0.3302 0.30212 0.33504 0.0
H1342 H 0.35822 0.19651 0.23938 0.0
H1343 H 0.23753 0.21184 0.30413 0.0
C1344 C 0.21837 0.15028 0.28585 0.0
C1345 C 0.22703 0.11667 0.26353 0.0
C1346 C 0.35183 0.22074 0.25908 0.0
C1347 C 0.27926 0.18976 0.26315 0.0
C1348 C 0.3844 0.24507 0.27846 0.0
C1349 C 0.37712 0.2723 0.30879 0.0
C1350 C 0.31201 0.22418 0.27014 0.0
C1351 C 0.33695 0.28068 0.31245 0.0
C1352 C 0.24407 0.1869 0.2854 0.0
C1353 C 0.26079 0.12168 0.23936 0.0
N1354 N 0.30571 0.25546 0.29479 0.0
N1355 N 0.28612 0.15722 0.24044 0.0
loop_
_geom_bond_atom_site_label_1
_geom_bond_atom_site_label_2
_geom_bond_distance
_geom_bond_site_symmetry_2
_ccdc_geom_bond_type
Cu0 N1 1.999 1_455 S
Cu0 O6 1.974 . S
Cu0 N11 1.985 . S
Cu0 O20 1.959 1_455 S
N1 Cu0 1.999 1_655 S
N1 C3 1.263 . S
N1 C5 1.389 . S
N2 C3 1.358 . S
N2 C4 1.400 . S
C3 N1 1.263 . S
C3 N2 1.358 . S
C3 H9 0.930 1_655 S
C4 N2 1.400 . S
C4 C5 1.351 . S
C4 H21 0.930 . S
C5 N1 1.389 . S
C5 C4 1.351 . S
C5 H10 0.930 . S
O6 Cu0 1.974 . S
O6 C16 1.282 . S
C7 O8 1.261 1_655 S
C7 O20 1.251 . S
O8 C7 1.261 1_455 S
H9 C3 0.930 1_455 S
H10 C5 0.930 . S
N11 Cu0 1.985 . S
N11 C13 1.335 . S
N11 C14 1.390 . S
N12 C13 1.345 . S
N12 C15 1.336 . S
C13 N11 1.335 . S
C13 N12 1.345 . S
C13 H18 0.930 . S
C14 N11 1.390 . S
C14 C15 1.346 . S
C14 H19 0.930 . S
C15 N12 1.336 . S
C15 C14 1.346 . S
C15 H22 0.929 . S
C16 O6 1.282 . S
C16 O17 1.216 . S
O17 C16 1.216 . S
H18 C13 0.930 . S
H19 C14 0.930 . S
O20 Cu0 1.959 1_655 S
O20 C7 1.251 . S
H21 C4 0.930 . S
H22 C15 0.929 . S
Cu23 N24 1.999 . S
Cu23 O29 1.974 . S
Cu23 N34 1.985 . S
Cu23 O43 1.959 . S
N24 Cu23 1.999 . S
N24 C26 1.263 1_455 S
N24 C28 1.389 1_455 S
N25 C26 1.358 . S
N25 C27 1.400 . S
C26 N24 1.263 1_655 S
C26 N25 1.358 . S
C26 H32 0.930 . S
C27 N25 1.400 . S
C27 C28 1.351 . S
C27 H44 0.930 . S
C28 N24 1.389 1_655 S
C28 C27 1.351 . S
C28 H33 0.932 . S
O29 Cu23 1.974 . S
O29 C39 1.282 . S
C30 O31 1.261 . S
C30 O43 1.251 1_655 S
O31 C30 1.261 . S
H32 C26 0.930 . S
H33 C28 0.932 . S
N34 Cu23 1.985 . S
N34 C36 1.335 . S
N34 C37 1.390 . S
N35 C36 1.345 . S
N35 C38 1.336 . S
C36 N34 1.335 . S
C36 N35 1.345 . S
C36 H41 0.930 . S
C37 N34 1.390 . S
C37 C38 1.346 . S
C37 H42 0.930 . S
C38 N35 1.336 . S
C38 C37 1.346 . S
C38 H45 0.929 . S
C39 O29 1.282 . S
C39 O40 1.216 . S
O40 C39 1.216 . S
H41 C36 0.930 . S
H42 C37 0.930 . S
O43 Cu23 1.959 . S
O43 C30 1.251 1_455 S
H44 C27 0.930 . S
H45 C38 0.929 . S
Cu46 N47 1.999 . S
Cu46 O52 1.974 . S
Cu46 N57 1.985 . S
Cu46 O66 1.959 . S
N47 Cu46 1.999 . S
N47 C49 1.263 . S
N47 C51 1.389 . S
N48 C49 1.358 . S
N48 C50 1.400 . S
C49 N47 1.263 . S
C49 N48 1.358 . S
C49 H55 0.930 . S
C50 N48 1.400 . S
C50 C51 1.351 . S
C50 H67 0.930 . S
C51 N47 1.389 . S
C51 C50 1.351 . S
C51 H56 0.930 . S
O52 Cu46 1.974 . S
O52 C62 1.282 . S
C53 O54 1.261 . S
C53 O66 1.251 . S
O54 C53 1.261 . S
H55 C49 0.930 . S
H56 C51 0.930 . S
N57 Cu46 1.985 . S
N57 C59 1.335 . S
N57 C60 1.390 . S
N58 C59 1.345 . S
N58 C61 1.336 . S
C59 N57 1.335 . S
C59 N58 1.345 . S
C59 H64 0.930 . S
C60 N57 1.390 . S
C60 C61 1.346 . S
C60 H65 0.930 . S
C61 N58 1.336 . S
C61 C60 1.346 . S
C61 H68 0.929 . S
C62 O52 1.282 . S
C62 O63 1.216 . S
O63 C62 1.216 . S
H64 C59 0.930 . S
H65 C60 0.930 . S
O66 Cu46 1.959 . S
O66 C53 1.251 . S
H67 C50 0.930 . S
H68 C61 0.929 . S
Cu69 N70 1.999 . S
Cu69 O75 1.974 . S
Cu69 N80 1.985 . S
Cu69 O89 1.959 . S
N70 Cu69 1.999 . S
N70 C72 1.263 . S
N70 C74 1.389 . S
N71 C72 1.358 . S
N71 C73 1.400 . S
C72 N70 1.263 . S
C72 N71 1.358 . S
C72 H78 0.930 . S
C73 N71 1.400 . S
C73 C74 1.351 . S
C73 H90 0.930 . S
C74 N70 1.389 . S
C74 C73 1.351 . S
C74 H79 0.930 . S
O75 Cu69 1.974 . S
O75 C85 1.282 . S
C76 O77 1.261 . S
C76 O89 1.251 . S
O77 C76 1.261 . S
H78 C72 0.930 . S
H79 C74 0.930 . S
N80 Cu69 1.985 . S
N80 C82 1.335 . S
N80 C83 1.390 . S
N81 C82 1.345 . S
N81 C84 1.336 . S
C82 N80 1.335 . S
C82 N81 1.345 . S
C82 H87 0.930 . S
C83 N80 1.390 . S
C83 C84 1.346 . S
C83 H88 0.930 . S
C84 N81 1.336 . S
C84 C83 1.346 . S
C84 H91 0.929 . S
C85 O75 1.282 . S
C85 O86 1.216 . S
O86 C85 1.216 . S
H87 C82 0.930 . S
H88 C83 0.930 . S
O89 Cu69 1.959 . S
O89 C76 1.251 . S
H90 C73 0.930 . S
H91 C84 0.929 . S
Cu92 N93 1.999 1_565 S
Cu92 O98 1.974 . S
Cu92 N103 1.985 . S
Cu92 O112 1.959 1_565 S
N93 Cu92 1.999 1_545 S
N93 C95 1.263 . S
N93 C97 1.389 . S
N94 C95 1.358 . S
N94 C96 1.400 . S
C95 N93 1.263 . S
C95 N94 1.358 . S
C95 H101 0.930 . S
C96 N94 1.400 . S
C96 C97 1.351 . S
C96 H113 0.930 . S
C97 N93 1.389 . S
C97 C96 1.351 . S
C97 H102 0.930 . S
O98 Cu92 1.974 . S
O98 C108 1.282 . S
C99 O100 1.261 . S
C99 O112 1.251 . S
O100 C99 1.261 . S
H101 C95 0.930 . S
H102 C97 0.930 . S
N103 Cu92 1.985 . S
N103 C105 1.335 . S
N103 C106 1.390 . S
N104 C105 1.345 . S
N104 C107 1.336 . S
C105 N103 1.335 . S
C105 N104 1.345 . S
C105 H110 0.930 . S
C106 N103 1.390 . S
C106 C107 1.346 . S
C106 H111 0.930 . S
C107 N104 1.336 . S
C107 C106 1.346 . S
C107 H114 0.929 . S
C108 O98 1.282 . S
C108 O109 1.216 . S
O109 C108 1.216 . S
H110 C105 0.930 . S
H111 C106 0.930 . S
O112 Cu92 1.959 1_545 S
O112 C99 1.251 . S
H113 C96 0.930 . S
H114 C107 0.929 . S
Cu115 N116 1.999 . S
Cu115 O121 1.974 . S
Cu115 N126 1.985 . S
Cu115 O135 1.959 . S
N116 Cu115 1.999 . S
N116 C118 1.263 . S
N116 C120 1.389 . S
N117 C118 1.358 . S
N117 C119 1.400 . S
C118 N116 1.263 . S
C118 N117 1.358 . S
C118 H124 0.930 . S
C119 N117 1.400 . S
C119 C120 1.351 . S
C119 H136 0.930 . S
C120 N116 1.389 . S
C120 C119 1.351 . S
C120 H125 0.930 . S
O121 Cu115 1.974 . S
O121 C131 1.282 . S
C122 O123 1.261 . S
C122 O135 1.251 . S
O123 C122 1.261 . S
H124 C118 0.930 . S
H125 C120 0.930 . S
N126 Cu115 1.985 . S
N126 C128 1.335 . S
N126 C129 1.390 . S
N127 C128 1.345 1_545 S
N127 C130 1.336 1_545 S
C128 N126 1.335 . S
C128 N127 1.345 1_565 S
C128 H133 0.930 1_565 S
C129 N126 1.390 . S
C129 C130 1.346 . S
C129 H134 0.930 . S
C130 N127 1.336 1_565 S
C130 C129 1.346 . S
C130 H137 0.929 . S
C131 O121 1.282 . S
C131 O132 1.216 . S
O132 C131 1.216 . S
H133 C128 0.930 1_545 S
H134 C129 0.930 . S
O135 Cu115 1.959 . S
O135 C122 1.251 . S
H136 C119 0.930 . S
H137 C130 0.929 . S
Cu138 N139 1.999 . S
Cu138 O144 1.974 . S
Cu138 N149 1.985 . S
Cu138 O158 1.959 . S
N139 Cu138 1.999 . S
N139 C141 1.263 1_545 S
N139 C143 1.389 1_545 S
N140 C141 1.358 . S
N140 C142 1.400 . S
C141 N139 1.263 1_565 S
C141 N140 1.358 . S
C141 H147 0.930 . S
C142 N140 1.400 . S
C142 C143 1.351 . S
C142 H159 0.930 . S
C143 N139 1.389 1_565 S
C143 C142 1.351 . S
C143 H148 0.921 1_565 S
O144 Cu138 1.974 . S
O144 C154 1.282 . S
C145 O146 1.261 . S
C145 O158 1.251 1_565 S
O146 C145 1.261 . S
H147 C141 0.930 . S
H148 C143 0.921 1_545 S
N149 Cu138 1.985 . S
N149 C151 1.335 . S
N149 C152 1.390 . S
N150 C151 1.345 . S
N150 C153 1.336 . S
C151 N149 1.335 . S
C151 N150 1.345 . S
C151 H156 0.930 . S
C152 N149 1.390 . S
C152 C153 1.346 . S
C152 H157 0.930 . S
C153 N150 1.336 . S
C153 C152 1.346 . S
C153 H160 0.929 . S
C154 O144 1.282 . S
C154 O155 1.216 . S
O155 C154 1.216 . S
H156 C151 0.930 . S
H157 C152 0.930 . S
O158 Cu138 1.959 . S
O158 C145 1.251 1_545 S
H159 C142 0.930 . S
H160 C153 0.929 . S
Cu161 N162 1.999 . S
Cu161 O167 1.974 1_556 S
Cu161 N172 1.985 1_556 S
Cu161 O181 1.959 . S
N162 Cu161 1.999 . S
N162 C164 1.263 . S
N162 C166 1.389 . S
N163 C164 1.358 . S
N163 C165 1.400 . S
C164 N162 1.263 . S
C164 N163 1.358 . S
C164 H170 0.930 . S
C165 N163 1.400 . S
C165 C166 1.351 . S
C165 H182 0.930 . S
C166 N162 1.389 . S
C166 C165 1.351 . S
C166 H171 0.930 . S
O167 Cu161 1.974 1_554 S
O167 C177 1.282 . S
C168 O169 1.261 1_556 S
C168 O181 1.251 . S
O169 C168 1.261 1_554 S
H170 C164 0.930 . S
H171 C166 0.930 . S
N172 Cu161 1.985 1_554 S
N172 C174 1.335 . S
N172 C175 1.390 . S
N173 C174 1.345 . S
N173 C176 1.336 . S
C174 N172 1.335 . S
C174 N173 1.345 . S
C174 H179 0.938 . S
C175 N172 1.390 . S
C175 C176 1.346 . S
C175 H180 0.930 . S
C176 N173 1.336 . S
C176 C175 1.346 . S
C176 H183 0.929 . S
C177 O167 1.282 . S
C177 O178 1.216 . S
O178 C177 1.216 . S
H179 C174 0.938 . S
H180 C175 0.930 . S
O181 Cu161 1.959 . S
O181 C168 1.251 . S
H182 C165 0.930 . S
H183 C176 0.929 . S
Cu184 N185 1.999 . S
Cu184 O190 1.974 1_556 S
Cu184 N195 1.985 1_556 S
Cu184 O204 1.959 . S
N185 Cu184 1.999 . S
N185 C187 1.263 . S
N185 C189 1.389 . S
N186 C187 1.358 . S
N186 C188 1.400 . S
C187 N185 1.263 . S
C187 N186 1.358 . S
C187 H193 0.930 . S
C188 N186 1.400 . S
C188 C189 1.351 . S
C188 H205 0.930 . S
C189 N185 1.389 . S
C189 C188 1.351 . S
C189 H194 0.930 . S
O190 Cu184 1.974 1_554 S
O190 C200 1.282 . S
C191 O192 1.261 1_556 S
C191 O204 1.251 . S
O192 C191 1.261 1_554 S
H193 C187 0.930 . S
H194 C189 0.930 . S
N195 Cu184 1.985 1_554 S
N195 C197 1.335 . S
N195 C198 1.390 . S
N196 C197 1.345 . S
N196 C199 1.336 . S
C197 N195 1.335 . S
C197 N196 1.345 . S
C197 H202 0.913 1_554 S
C198 N195 1.390 . S
C198 C199 1.346 . S
C198 H203 0.930 . S
C199 N196 1.336 . S
C199 C198 1.346 . S
C199 H206 0.929 . S
C200 O190 1.282 . S
C200 O201 1.216 . S
O201 C200 1.216 . S
H202 C197 0.913 1_556 S
H203 C198 0.930 . S
O204 Cu184 1.959 . S
O204 C191 1.251 . S
H205 C188 0.930 . S
H206 C199 0.929 . S
Cu207 N208 1.999 . S
Cu207 O213 1.974 . S
Cu207 N218 1.985 . S
Cu207 O227 1.959 . S
N208 Cu207 1.999 . S
N208 C210 1.263 . S
N208 C212 1.389 . S
N209 C210 1.358 . S
N209 C211 1.400 . S
C210 N208 1.263 . S
C210 N209 1.358 . S
C210 H216 0.930 . S
C211 N209 1.400 . S
C211 C212 1.351 . S
C211 H228 0.930 . S
C212 N208 1.389 . S
C212 C211 1.351 . S
C212 H217 0.930 . S
O213 Cu207 1.974 . S
O213 C223 1.282 . S
C214 O215 1.261 . S
C214 O227 1.251 . S
O215 C214 1.261 . S
H216 C210 0.930 . S
H217 C212 0.930 . S
N218 Cu207 1.985 . S
N218 C220 1.335 . S
N218 C221 1.390 . S
N219 C220 1.345 . S
N219 C222 1.336 . S
C220 N218 1.335 . S
C220 N219 1.345 . S
C220 H225 0.930 . S
C221 N218 1.390 . S
C221 C222 1.346 . S
C221 H226 0.930 . S
C222 N219 1.336 . S
C222 C221 1.346 . S
C222 H229 0.929 . S
C223 O213 1.282 . S
C223 O224 1.216 . S
O224 C223 1.216 . S
H225 C220 0.930 . S
H226 C221 0.930 . S
O227 Cu207 1.959 . S
O227 C214 1.251 . S
H228 C211 0.930 . S
H229 C222 0.929 . S
Cu230 N231 1.999 . S
Cu230 O236 1.974 . S
Cu230 N241 1.985 . S
Cu230 O250 1.959 . S
N231 Cu230 1.999 . S
N231 C233 1.263 . S
N231 C235 1.389 . S
N232 C233 1.358 . S
N232 C234 1.400 . S
C233 N231 1.263 . S
C233 N232 1.358 . S
C233 H239 0.930 . S
C234 N232 1.400 . S
C234 C235 1.351 . S
C234 H251 0.930 . S
C235 N231 1.389 . S
C235 C234 1.351 . S
C235 H240 0.930 . S
O236 Cu230 1.974 . S
O236 C246 1.282 . S
C237 O238 1.261 . S
C237 O250 1.251 . S
O238 C237 1.261 . S
H239 C233 0.930 . S
H240 C235 0.930 . S
N241 Cu230 1.985 . S
N241 C243 1.335 . S
N241 C244 1.390 . S
N242 C243 1.345 . S
N242 C245 1.336 . S
C243 N241 1.335 . S
C243 N242 1.345 . S
C243 H248 0.930 . S
C244 N241 1.390 . S
C244 C245 1.346 . S
C244 H249 0.930 . S
C245 N242 1.336 . S
C245 C244 1.346 . S
C245 H252 0.929 . S
C246 O236 1.282 . S
C246 O247 1.216 . S
O247 C246 1.216 . S
H248 C243 0.930 . S
H249 C244 0.930 . S
O250 Cu230 1.959 . S
O250 C237 1.251 . S
H251 C234 0.930 . S
H252 C245 0.929 . S
Cu253 N254 1.999 . S
Cu253 O259 1.974 . S
Cu253 N264 1.985 . S
Cu253 O273 1.959 . S
N254 Cu253 1.999 . S
N254 C256 1.263 . S
N254 C258 1.389 . S
N255 C256 1.358 . S
N255 C257 1.400 . S
C256 N254 1.263 . S
C256 N255 1.358 . S
C256 H262 0.930 . S
C257 N255 1.400 . S
C257 C258 1.351 . S
C257 H274 0.930 . S
C258 N254 1.389 . S
C258 C257 1.351 . S
C258 H263 0.930 . S
O259 Cu253 1.974 . S
O259 C269 1.282 . S
C260 O261 1.261 . S
C260 O273 1.251 . S
O261 C260 1.261 . S
H262 C256 0.930 . S
H263 C258 0.930 . S
N264 Cu253 1.985 . S
N264 C266 1.335 . S
N264 C267 1.390 . S
N265 C266 1.345 . S
N265 C268 1.336 . S
C266 N264 1.335 . S
C266 N265 1.345 . S
C266 H271 0.930 . S
C267 N264 1.390 . S
C267 C268 1.346 . S
C267 H272 0.930 . S
C268 N265 1.336 . S
C268 C267 1.346 . S
C268 H275 0.929 . S
C269 O259 1.282 . S
C269 O270 1.216 . S
O270 C269 1.216 . S
H271 C266 0.930 . S
H272 C267 0.930 . S
O273 Cu253 1.959 . S
O273 C260 1.251 . S
H274 C257 0.930 . S
H275 C268 0.929 . S
H276 C282 0.930 . S
H277 C285 0.927 1_455 S
H278 C287 0.931 . S
H279 C289 0.930 . S
H280 C291 0.930 . S
H281 C293 0.931 . S
C282 H276 0.930 . S
C282 C283 1.380 . S
C282 C284 1.394 . S
C283 C282 1.380 . S
C283 C287 1.382 1_655 S
C284 C282 1.394 . S
C284 C285 1.400 . S
C285 H277 0.927 1_655 S
C285 C284 1.400 . S
C285 C286 1.375 1_655 S
C286 C285 1.375 1_455 S
C286 C287 1.415 . S
C286 C288 1.501 . S
C287 H278 0.931 . S
C287 C283 1.382 1_455 S
C287 C286 1.415 . S
C288 C286 1.501 . S
C288 C289 1.384 . S
C288 C293 1.408 . S
C289 H279 0.930 . S
C289 C288 1.384 . S
C289 C290 1.389 . S
C290 C289 1.389 . S
C290 C291 1.405 . S
C291 H280 0.930 . S
C291 C290 1.405 . S
C291 C292 1.364 . S
C292 C291 1.364 . S
C292 C293 1.400 . S
C293 H281 0.931 . S
C293 C288 1.408 . S
C293 C292 1.400 . S
H294 C300 0.930 . S
H295 C303 0.931 . S
H296 C305 0.931 . S
H297 C307 0.930 . S
H298 C309 0.930 . S
H299 C311 0.931 . S
C300 H294 0.930 . S
C300 C301 1.380 . S
C300 C302 1.394 . S
C301 C300 1.380 . S
C301 C305 1.382 . S
C302 C300 1.394 . S
C302 C303 1.400 . S
C303 H295 0.931 . S
C303 C302 1.400 . S
C303 C304 1.375 . S
C304 C303 1.375 . S
C304 C305 1.415 . S
C304 C306 1.501 1_655 S
C305 H296 0.931 . S
C305 C301 1.382 . S
C305 C304 1.415 . S
C306 C304 1.501 1_455 S
C306 C307 1.384 . S
C306 C311 1.408 . S
C307 H297 0.930 . S
C307 C306 1.384 . S
C307 C308 1.389 . S
C308 C307 1.389 . S
C308 C309 1.405 . S
C309 H298 0.930 . S
C309 C308 1.405 . S
C309 C310 1.364 . S
C310 C309 1.364 . S
C310 C311 1.400 . S
C311 H299 0.931 . S
C311 C306 1.408 . S
C311 C310 1.400 . S
H312 C318 0.930 . S
H313 C321 0.931 . S
H314 C323 0.931 . S
H315 C325 0.930 . S
H316 C327 0.930 . S
H317 C329 0.931 . S
C318 H312 0.930 . S
C318 C319 1.380 . S
C318 C320 1.394 . S
C319 C318 1.380 . S
C319 C323 1.382 . S
C320 C318 1.394 . S
C320 C321 1.400 . S
C321 H313 0.931 . S
C321 C320 1.400 . S
C321 C322 1.375 . S
C322 C321 1.375 . S
C322 C323 1.415 . S
C322 C324 1.501 . S
C323 H314 0.931 . S
C323 C319 1.382 . S
C323 C322 1.415 . S
C324 C322 1.501 . S
C324 C325 1.384 . S
C324 C329 1.408 . S
C325 H315 0.930 . S
C325 C324 1.384 . S
C325 C326 1.389 . S
C326 C325 1.389 . S
C326 C327 1.405 . S
C327 H316 0.930 . S
C327 C326 1.405 . S
C327 C328 1.364 . S
C328 C327 1.364 . S
C328 C329 1.400 . S
C329 H317 0.931 . S
C329 C324 1.408 . S
C329 C328 1.400 . S
H330 C336 0.930 . S
H331 C339 0.931 . S
H332 C341 0.931 . S
H333 C343 0.930 . S
H334 C345 0.930 . S
H335 C347 0.931 . S
C336 H330 0.930 . S
C336 C337 1.380 . S
C336 C338 1.394 . S
C337 C336 1.380 . S
C337 C341 1.382 . S
C338 C336 1.394 . S
C338 C339 1.400 . S
C339 H331 0.931 . S
C339 C338 1.400 . S
C339 C340 1.375 . S
C340 C339 1.375 . S
C340 C341 1.415 . S
C340 C342 1.501 . S
C341 H332 0.931 . S
C341 C337 1.382 . S
C341 C340 1.415 . S
C342 C340 1.501 . S
C342 C343 1.384 . S
C342 C347 1.408 . S
C343 H333 0.930 . S
C343 C342 1.384 . S
C343 C344 1.389 . S
C344 C343 1.389 . S
C344 C345 1.405 . S
C345 H334 0.930 . S
C345 C344 1.405 . S
C345 C346 1.364 . S
C346 C345 1.364 . S
C346 C347 1.400 . S
C347 H335 0.931 . S
C347 C342 1.408 . S
C347 C346 1.400 . S
H348 C354 0.930 . S
H349 C357 0.931 . S
H350 C359 0.931 . S
H351 C361 0.930 . S
H352 C363 0.930 . S
H353 C365 0.931 . S
C354 H348 0.930 . S
C354 C355 1.380 1_565 S
C354 C356 1.394 1_565 S
C355 C354 1.380 1_545 S
C355 C359 1.382 . S
C356 C354 1.394 1_545 S
C356 C357 1.400 . S
C357 H349 0.931 . S
C357 C356 1.400 . S
C357 C358 1.375 . S
C358 C357 1.375 . S
C358 C359 1.415 . S
C358 C360 1.501 . S
C359 H350 0.931 . S
C359 C355 1.382 . S
C359 C358 1.415 . S
C360 C358 1.501 . S
C360 C361 1.384 . S
C360 C365 1.408 . S
C361 H351 0.930 . S
C361 C360 1.384 . S
C361 C362 1.389 . S
C362 C361 1.389 . S
C362 C363 1.405 . S
C363 H352 0.930 . S
C363 C362 1.405 . S
C363 C364 1.364 . S
C364 C363 1.364 . S
C364 C365 1.400 . S
C365 H353 0.931 . S
C365 C360 1.408 . S
C365 C364 1.400 . S
H366 C372 0.930 . S
H367 C375 0.931 . S
H368 C377 0.931 . S
H369 C379 0.930 . S
H370 C381 0.930 . S
H371 C383 0.931 . S
C372 H366 0.930 . S
C372 C373 1.380 . S
C372 C374 1.394 . S
C373 C372 1.380 . S
C373 C377 1.382 . S
C374 C372 1.394 . S
C374 C375 1.400 . S
C375 H367 0.931 . S
C375 C374 1.400 . S
C375 C376 1.375 . S
C376 C375 1.375 . S
C376 C377 1.415 . S
C376 C378 1.501 . S
C377 H368 0.931 . S
C377 C373 1.382 . S
C377 C376 1.415 . S
C378 C376 1.501 . S
C378 C379 1.384 . S
C378 C383 1.408 . S
C379 H369 0.930 . S
C379 C378 1.384 . S
C379 C380 1.389 . S
C380 C379 1.389 . S
C380 C381 1.405 . S
C381 H370 0.930 . S
C381 C380 1.405 . S
C381 C382 1.364 . S
C382 C381 1.364 . S
C382 C383 1.400 . S
C383 H371 0.931 . S
C383 C378 1.408 . S
C383 C382 1.400 . S
H384 C390 0.930 . S
H385 C393 0.931 . S
H386 C395 0.931 . S
H387 C397 0.930 . S
H388 C399 0.930 . S
H389 C401 0.931 1_545 S
C390 H384 0.930 . S
C390 C391 1.380 . S
C390 C392 1.394 . S
C391 C390 1.380 . S
C391 C395 1.382 . S
C392 C390 1.394 . S
C392 C393 1.400 . S
C393 H385 0.931 . S
C393 C392 1.400 . S
C393 C394 1.375 . S
C394 C393 1.375 . S
C394 C395 1.415 . S
C394 C396 1.501 . S
C395 H386 0.931 . S
C395 C391 1.382 . S
C395 C394 1.415 . S
C396 C394 1.501 . S
C396 C397 1.384 . S
C396 C401 1.408 1_545 S
C397 H387 0.930 . S
C397 C396 1.384 . S
C397 C398 1.389 1_545 S
C398 C397 1.389 1_565 S
C398 C399 1.405 . S
C399 H388 0.930 . S
C399 C398 1.405 . S
C399 C400 1.364 . S
C400 C399 1.364 . S
C400 C401 1.399 . S
C401 H389 0.931 1_565 S
C401 C396 1.408 1_565 S
C401 C400 1.399 . S
H402 C408 0.930 . S
H403 C411 0.931 1_554 S
H404 C413 0.931 . S
H405 C415 0.930 . S
H406 C417 0.930 . S
H407 C419 0.931 . S
C408 H402 0.930 . S
C408 C409 1.380 . S
C408 C410 1.394 . S
C409 C408 1.380 . S
C409 C413 1.382 . S
C410 C408 1.394 . S
C410 C411 1.400 . S
C411 H403 0.931 1_556 S
C411 C410 1.400 . S
C411 C412 1.375 1_556 S
C412 C411 1.375 1_554 S
C412 C413 1.415 1_554 S
C412 C414 1.501 . S
C413 H404 0.931 . S
C413 C409 1.382 . S
C413 C412 1.415 1_556 S
C414 C412 1.501 . S
C414 C415 1.384 . S
C414 C419 1.408 . S
C415 H405 0.930 . S
C415 C414 1.384 . S
C415 C416 1.389 . S
C416 C415 1.389 . S
C416 C417 1.405 . S
C417 H406 0.930 . S
C417 C416 1.405 . S
C417 C418 1.364 . S
C418 C417 1.364 . S
C418 C419 1.400 . S
C419 H407 0.931 . S
C419 C414 1.408 . S
C419 C418 1.400 . S
H420 C426 0.930 . S
H421 C429 0.931 1_554 S
H422 C431 0.931 . S
H423 C433 0.930 . S
H424 C435 0.930 . S
H425 C437 0.931 . S
C426 H420 0.930 . S
C426 C427 1.380 . S
C426 C428 1.394 . S
C427 C426 1.380 . S
C427 C431 1.382 . S
C428 C426 1.394 . S
C428 C429 1.400 . S
C429 H421 0.931 1_556 S
C429 C428 1.400 . S
C429 C430 1.375 1_556 S
C430 C429 1.375 1_554 S
C430 C431 1.415 1_554 S
C430 C432 1.501 . S
C431 H422 0.931 . S
C431 C427 1.382 . S
C431 C430 1.415 1_556 S
C432 C430 1.501 . S
C432 C433 1.384 . S
C432 C437 1.408 . S
C433 H423 0.930 . S
C433 C432 1.384 . S
C433 C434 1.389 . S
C434 C433 1.389 . S
C434 C435 1.405 . S
C435 H424 0.930 . S
C435 C434 1.405 . S
C435 C436 1.364 . S
C436 C435 1.364 . S
C436 C437 1.400 . S
C437 H425 0.931 . S
C437 C432 1.408 . S
C437 C436 1.400 . S
H438 C444 0.930 . S
H439 C447 0.931 . S
H440 C449 0.931 . S
H441 C451 0.930 . S
H442 C453 0.930 . S
H443 C455 0.931 . S
C444 H438 0.930 . S
C444 C445 1.380 . S
C444 C446 1.394 . S
C445 C444 1.380 . S
C445 C449 1.382 . S
C446 C444 1.394 . S
C446 C447 1.400 . S
C447 H439 0.931 . S
C447 C446 1.400 . S
C447 C448 1.375 . S
C448 C447 1.375 . S
C448 C449 1.415 . S
C448 C450 1.501 . S
C449 H440 0.931 . S
C449 C445 1.382 . S
C449 C448 1.415 . S
C450 C448 1.501 . S
C450 C451 1.384 . S
C450 C455 1.408 . S
C451 H441 0.930 . S
C451 C450 1.384 . S
C451 C452 1.389 . S
C452 C451 1.389 . S
C452 C453 1.405 . S
C453 H442 0.930 . S
C453 C452 1.405 . S
C453 C454 1.364 . S
C454 C453 1.364 . S
C454 C455 1.400 . S
C455 H443 0.931 . S
C455 C450 1.408 . S
C455 C454 1.400 . S
H456 C462 0.930 . S
H457 C465 0.931 . S
H458 C467 0.931 . S
H459 C469 0.930 . S
H460 C471 0.930 . S
H461 C473 0.931 . S
C462 H456 0.930 . S
C462 C463 1.380 . S
C462 C464 1.394 . S
C463 C462 1.380 . S
C463 C467 1.382 . S
C464 C462 1.394 . S
C464 C465 1.400 . S
C465 H457 0.931 . S
C465 C464 1.400 . S
C465 C466 1.375 . S
C466 C465 1.375 . S
C466 C467 1.415 . S
C466 C468 1.501 . S
C467 H458 0.931 . S
C467 C463 1.382 . S
C467 C466 1.415 . S
C468 C466 1.501 . S
C468 C469 1.384 . S
C468 C473 1.408 . S
C469 H459 0.930 . S
C469 C468 1.384 . S
C469 C470 1.389 . S
C470 C469 1.389 . S
C470 C471 1.405 . S
C471 H460 0.930 . S
C471 C470 1.405 . S
C471 C472 1.364 . S
C472 C471 1.364 . S
C472 C473 1.400 . S
C473 H461 0.931 . S
C473 C468 1.408 . S
C473 C472 1.400 . S
H474 C480 0.930 . S
H475 C483 0.931 . S
H476 C485 0.931 . S
H477 C487 0.930 . S
H478 C489 0.930 . S
H479 C491 0.931 . S
C480 H474 0.930 . S
C480 C481 1.380 . S
C480 C482 1.394 . S
C481 C480 1.380 . S
C481 C485 1.382 . S
C482 C480 1.394 . S
C482 C483 1.400 . S
C483 H475 0.931 . S
C483 C482 1.400 . S
C483 C484 1.375 . S
C484 C483 1.375 . S
C484 C485 1.415 . S
C484 C486 1.501 . S
C485 H476 0.931 . S
C485 C481 1.382 . S
C485 C484 1.415 . S
C486 C484 1.501 . S
C486 C487 1.384 . S
C486 C491 1.408 . S
C487 H477 0.930 . S
C487 C486 1.384 . S
C487 C488 1.389 . S
C488 C487 1.389 . S
C488 C489 1.405 . S
C489 H478 0.930 . S
C489 C488 1.405 . S
C489 C490 1.364 . S
C490 C489 1.364 . S
C490 C491 1.400 . S
C491 H479 0.931 . S
C491 C486 1.408 . S
C491 C490 1.400 . S
H492 C498 0.930 . S
H493 C502 0.930 . S
H494 C507 0.929 . S
H495 C505 0.929 . S
H496 C500 0.929 . S
H497 C506 0.929 . S
C498 H492 0.930 . S
C498 C499 1.367 . S
C498 C506 1.378 1_554 S
C499 C498 1.367 . S
C499 C507 1.433 1_554 S
C500 H496 0.929 . S
C500 C502 1.378 . S
C500 C504 1.350 . S
C501 C504 1.463 . S
C501 C506 1.350 . S
C501 N509 1.427 . S
C502 H493 0.930 . S
C502 C500 1.378 . S
C502 C503 1.367 . S
C503 C502 1.367 . S
C503 C505 1.433 . S
C504 C500 1.350 . S
C504 C501 1.463 . S
C504 N508 1.427 . S
C505 H495 0.929 . S
C505 C503 1.433 . S
C505 N508 1.384 . S
C506 H497 0.929 . S
C506 C498 1.378 1_556 S
C506 C501 1.350 . S
C507 H494 0.929 . S
C507 C499 1.433 1_556 S
C507 N509 1.384 . S
N508 C504 1.427 . S
N508 C505 1.384 . S
N509 C501 1.427 . S
N509 C507 1.384 . S
H510 C516 0.930 . S
H511 C520 0.930 . S
H512 C525 0.929 . S
H513 C523 0.929 . S
H514 C518 0.929 . S
H515 C524 0.929 . S
C516 H510 0.930 . S
C516 C517 1.367 . S
C516 C524 1.378 . S
C517 C516 1.367 . S
C517 C525 1.433 . S
C518 H514 0.929 . S
C518 C520 1.378 . S
C518 C522 1.350 . S
C519 C522 1.463 . S
C519 C524 1.350 . S
C519 N527 1.427 . S
C520 H511 0.930 . S
C520 C518 1.378 . S
C520 C521 1.367 . S
C521 C520 1.367 . S
C521 C523 1.433 . S
C522 C518 1.350 . S
C522 C519 1.463 . S
C522 N526 1.427 . S
C523 H513 0.929 . S
C523 C521 1.433 . S
C523 N526 1.384 . S
C524 H515 0.929 . S
C524 C516 1.378 . S
C524 C519 1.350 . S
C525 H512 0.929 . S
C525 C517 1.433 . S
C525 N527 1.384 . S
N526 C522 1.427 . S
N526 C523 1.384 . S
N527 C519 1.427 . S
N527 C525 1.384 . S
H528 C534 0.930 . S
H529 C538 0.930 . S
H530 C543 0.929 . S
H531 C541 0.929 . S
H532 C536 0.929 . S
H533 C542 0.929 . S
C534 H528 0.930 . S
C534 C535 1.367 . S
C534 C542 1.378 . S
C535 C534 1.367 . S
C535 C543 1.433 . S
C536 H532 0.929 . S
C536 C538 1.378 . S
C536 C540 1.350 . S
C537 C540 1.463 . S
C537 C542 1.350 . S
C537 N545 1.427 . S
C538 H529 0.930 . S
C538 C536 1.378 . S
C538 C539 1.367 . S
C539 C538 1.367 . S
C539 C541 1.433 . S
C540 C536 1.350 . S
C540 C537 1.463 . S
C540 N544 1.427 . S
C541 H531 0.929 . S
C541 C539 1.433 . S
C541 N544 1.384 . S
C542 H533 0.929 . S
C542 C534 1.378 . S
C542 C537 1.350 . S
C543 H530 0.929 . S
C543 C535 1.433 . S
C543 N545 1.384 . S
N544 C540 1.427 . S
N544 C541 1.384 . S
N545 C537 1.427 . S
N545 C543 1.384 . S
H546 C552 0.930 . S
H547 C556 0.930 . S
H548 C561 0.929 . S
H549 C559 0.929 . S
H550 C554 0.929 . S
H551 C560 0.929 . S
C552 H546 0.930 . S
C552 C553 1.367 . S
C552 C560 1.378 . S
C553 C552 1.367 . S
C553 C561 1.433 . S
C554 H550 0.929 . S
C554 C556 1.378 . S
C554 C558 1.350 . S
C555 C558 1.463 . S
C555 C560 1.350 . S
C555 N563 1.427 . S
C556 H547 0.930 . S
C556 C554 1.378 . S
C556 C557 1.367 . S
C557 C556 1.367 . S
C557 C559 1.433 . S
C558 C554 1.350 . S
C558 C555 1.463 . S
C558 N562 1.427 . S
C559 H549 0.929 . S
C559 C557 1.433 . S
C559 N562 1.384 . S
C560 H551 0.929 . S
C560 C552 1.378 . S
C560 C555 1.350 . S
C561 H548 0.929 . S
C561 C553 1.433 . S
C561 N563 1.384 . S
N562 C558 1.427 . S
N562 C559 1.384 . S
N563 C555 1.427 . S
N563 C561 1.384 . S
H564 C570 0.930 1_655 S
H565 C574 0.930 . S
H566 C579 0.929 . S
H567 C577 0.929 . S
H568 C572 0.929 . S
H569 C578 0.929 . S
C570 H564 0.930 1_455 S
C570 C571 1.367 . S
C570 C578 1.378 . S
C571 C570 1.367 . S
C571 C579 1.433 . S
C572 H568 0.929 . S
C572 C574 1.378 . S
C572 C576 1.350 . S
C573 C576 1.463 . S
C573 C578 1.350 . S
C573 N581 1.427 . S
C574 H565 0.930 . S
C574 C572 1.378 . S
C574 C575 1.367 . S
C575 C574 1.367 . S
C575 C577 1.433 . S
C576 C572 1.350 . S
C576 C573 1.463 . S
C576 N580 1.427 . S
C577 H567 0.929 . S
C577 C575 1.433 . S
C577 N580 1.384 . S
C578 H569 0.929 . S
C578 C570 1.378 . S
C578 C573 1.350 . S
C579 H566 0.929 . S
C579 C571 1.433 . S
C579 N581 1.384 . S
N580 C576 1.427 . S
N580 C577 1.384 . S
N581 C573 1.427 . S
N581 C579 1.384 . S
H582 C588 0.930 . S
H583 C592 0.930 . S
H584 C597 0.929 . S
H585 C595 0.929 . S
H586 C590 0.929 . S
H587 C596 0.929 . S
C588 H582 0.930 . S
C588 C589 1.367 . S
C588 C596 1.378 . S
C589 C588 1.367 . S
C589 C597 1.433 . S
C590 H586 0.929 . S
C590 C592 1.378 . S
C590 C594 1.350 . S
C591 C594 1.463 . S
C591 C596 1.350 . S
C591 N599 1.427 . S
C592 H583 0.930 . S
C592 C590 1.378 . S
C592 C593 1.367 . S
C593 C592 1.367 . S
C593 C595 1.433 . S
C594 C590 1.350 . S
C594 C591 1.463 . S
C594 N598 1.427 . S
C595 H585 0.929 . S
C595 C593 1.433 . S
C595 N598 1.384 . S
C596 H587 0.929 . S
C596 C588 1.378 . S
C596 C591 1.350 . S
C597 H584 0.929 . S
C597 C589 1.433 . S
C597 N599 1.384 . S
N598 C594 1.427 . S
N598 C595 1.384 . S
N599 C591 1.427 . S
N599 C597 1.384 . S
H600 C606 0.930 . S
H601 C610 0.930 . S
H602 C615 0.929 1_556 S
H603 C613 0.929 . S
H604 C608 0.929 . S
H605 C614 0.929 . S
C606 H600 0.930 . S
C606 C607 1.367 . S
C606 C614 1.378 . S
C607 C606 1.367 . S
C607 C615 1.433 . S
C608 H604 0.929 . S
C608 C610 1.378 . S
C608 C612 1.350 . S
C609 C612 1.463 . S
C609 C614 1.350 . S
C609 N617 1.427 . S
C610 H601 0.930 . S
C610 C608 1.378 . S
C610 C611 1.367 . S
C611 C610 1.367 . S
C611 C613 1.433 . S
C612 C608 1.350 . S
C612 C609 1.463 . S
C612 N616 1.427 . S
C613 H603 0.929 . S
C613 C611 1.433 . S
C613 N616 1.384 . S
C614 H605 0.929 . S
C614 C606 1.378 . S
C614 C609 1.350 . S
C615 H602 0.929 1_554 S
C615 C607 1.433 . S
C615 N617 1.384 . S
N616 C612 1.427 . S
N616 C613 1.384 . S
N617 C609 1.427 . S
N617 C615 1.384 . S
H618 C624 0.930 . S
H619 C628 0.930 . S
H620 C633 0.929 . S
H621 C631 0.929 . S
H622 C626 0.929 . S
H623 C632 0.929 . S
C624 H618 0.930 . S
C624 C625 1.367 . S
C624 C632 1.378 . S
C625 C624 1.367 . S
C625 C633 1.433 . S
C626 H622 0.929 . S
C626 C628 1.378 . S
C626 C630 1.350 . S
C627 C630 1.463 . S
C627 C632 1.350 . S
C627 N635 1.427 . S
C628 H619 0.930 . S
C628 C626 1.378 . S
C628 C629 1.367 . S
C629 C628 1.367 . S
C629 C631 1.433 . S
C630 C626 1.350 . S
C630 C627 1.463 . S
C630 N634 1.427 . S
C631 H621 0.929 . S
C631 C629 1.433 . S
C631 N634 1.384 . S
C632 H623 0.929 . S
C632 C624 1.378 . S
C632 C627 1.350 . S
C633 H620 0.929 . S
C633 C625 1.433 . S
C633 N635 1.384 . S
N634 C630 1.427 . S
N634 C631 1.384 . S
N635 C627 1.427 . S
N635 C633 1.384 . S
H636 C642 0.930 1_455 S
H637 C646 0.930 . S
H638 C651 0.929 1_465 S
H639 C649 0.929 . S
H640 C644 0.929 1_565 S
H641 C650 0.929 . S
C642 H636 0.930 1_655 S
C642 C643 1.367 1_655 S
C642 C650 1.378 . S
C643 C642 1.367 1_455 S
C643 C651 1.433 1_455 S
C644 H640 0.929 1_545 S
C644 C646 1.378 . S
C644 C648 1.350 . S
C645 C648 1.463 . S
C645 C650 1.350 . S
C645 N653 1.427 . S
C646 H637 0.930 . S
C646 C644 1.378 . S
C646 C647 1.367 . S
C647 C646 1.367 . S
C647 C649 1.433 . S
C648 C644 1.350 . S
C648 C645 1.463 . S
C648 N652 1.427 . S
C649 H639 0.929 . S
C649 C647 1.433 . S
C649 N652 1.384 . S
C650 H641 0.929 . S
C650 C642 1.378 . S
C650 C645 1.350 . S
C651 H638 0.929 1_645 S
C651 C643 1.433 1_655 S
C651 N653 1.384 . S
N652 C648 1.427 . S
N652 C649 1.384 . S
N653 C645 1.427 . S
N653 C651 1.384 . S
H654 C660 0.930 . S
H655 C664 0.930 . S
H656 C669 0.929 . S
H657 C667 0.929 . S
H658 C662 0.929 . S
H659 C668 0.929 . S
C660 H654 0.930 . S
C660 C661 1.367 . S
C660 C668 1.378 . S
C661 C660 1.367 . S
C661 C669 1.433 . S
C662 H658 0.929 . S
C662 C664 1.378 . S
C662 C666 1.350 . S
C663 C666 1.463 . S
C663 C668 1.350 . S
C663 N671 1.427 . S
C664 H655 0.930 . S
C664 C662 1.378 . S
C664 C665 1.367 . S
C665 C664 1.367 . S
C665 C667 1.433 . S
C666 C662 1.350 . S
C666 C663 1.463 . S
C666 N670 1.427 . S
C667 H657 0.929 . S
C667 C665 1.433 . S
C667 N670 1.384 . S
C668 H659 0.929 . S
C668 C660 1.378 . S
C668 C663 1.350 . S
C669 H656 0.929 . S
C669 C661 1.433 . S
C669 N671 1.384 . S
N670 C666 1.427 . S
N670 C667 1.384 . S
N671 C663 1.427 . S
N671 C669 1.384 . S
H672 C678 0.930 . S
H673 C682 0.930 . S
H674 C687 0.929 1_545 S
H675 C685 0.929 . S
H676 C680 0.929 . S
H677 C686 0.929 . S
C678 H672 0.930 . S
C678 C679 1.367 . S
C678 C686 1.378 . S
C679 C678 1.367 . S
C679 C687 1.433 . S
C680 H676 0.929 . S
C680 C682 1.378 . S
C680 C684 1.350 . S
C681 C684 1.463 . S
C681 C686 1.350 . S
C681 N689 1.427 . S
C682 H673 0.930 . S
C682 C680 1.378 . S
C682 C683 1.367 . S
C683 C682 1.367 . S
C683 C685 1.433 . S
C684 C680 1.350 . S
C684 C681 1.463 . S
C684 N688 1.427 . S
C685 H675 0.929 . S
C685 C683 1.433 . S
C685 N688 1.384 . S
C686 H677 0.929 . S
C686 C678 1.378 . S
C686 C681 1.350 . S
C687 H674 0.929 1_565 S
C687 C679 1.433 . S
C687 N689 1.384 . S
N688 C684 1.427 . S
N688 C685 1.384 . S
N689 C681 1.427 . S
N689 C687 1.384 . S
H690 C696 0.930 . S
H691 C700 0.930 . S
H692 C705 0.929 . S
H693 C703 0.929 . S
H694 C698 0.929 . S
H695 C704 0.929 . S
C696 H690 0.930 . S
C696 C697 1.367 . S
C696 C704 1.378 . S
C697 C696 1.367 . S
C697 C705 1.433 . S
C698 H694 0.929 . S
C698 C700 1.378 . S
C698 C702 1.350 . S
C699 C702 1.463 . S
C699 C704 1.350 . S
C699 N707 1.427 . S
C700 H691 0.930 . S
C700 C698 1.378 . S
C700 C701 1.367 . S
C701 C700 1.367 . S
C701 C703 1.433 . S
C702 C698 1.350 . S
C702 C699 1.463 . S
C702 N706 1.427 . S
C703 H693 0.929 . S
C703 C701 1.433 . S
C703 N706 1.384 . S
C704 H695 0.929 . S
C704 C696 1.378 . S
C704 C699 1.350 . S
C705 H692 0.929 . S
C705 C697 1.433 . S
C705 N707 1.384 . S
N706 C702 1.427 . S
N706 C703 1.384 . S
N707 C699 1.427 . S
N707 C705 1.384 . S
H708 C714 0.930 . S
H709 C718 0.930 . S
H710 C723 0.929 . S
H711 C721 0.929 . S
H712 C716 0.929 . S
H713 C722 0.929 . S
C714 H708 0.930 . S
C714 C715 1.367 . S
C714 C722 1.378 . S
C715 C714 1.367 . S
C715 C723 1.433 . S
C716 H712 0.929 . S
C716 C718 1.378 . S
C716 C720 1.350 . S
C717 C720 1.463 . S
C717 C722 1.350 1_655 S
C717 N725 1.427 . S
C718 H709 0.930 . S
C718 C716 1.378 . S
C718 C719 1.367 . S
C719 C718 1.367 . S
C719 C721 1.433 . S
C720 C716 1.350 . S
C720 C717 1.463 . S
C720 N724 1.427 . S
C721 H711 0.929 . S
C721 C719 1.433 . S
C721 N724 1.384 . S
C722 H713 0.929 . S
C722 C714 1.378 . S
C722 C717 1.350 1_455 S
C723 H710 0.929 . S
C723 C715 1.433 . S
C723 N725 1.384 1_455 S
N724 C720 1.427 . S
N724 C721 1.384 . S
N725 C717 1.427 . S
N725 C723 1.384 1_655 S
H726 C732 0.930 . S
H727 C736 0.930 . S
H728 C741 0.929 . S
H729 C739 0.929 . S
H730 C734 0.929 . S
H731 C740 0.929 . S
C732 H726 0.930 . S
C732 C733 1.367 . S
C732 C740 1.378 . S
C733 C732 1.367 . S
C733 C741 1.433 . S
C734 H730 0.929 . S
C734 C736 1.378 . S
C734 C738 1.350 . S
C735 C738 1.463 . S
C735 C740 1.350 . S
C735 N743 1.427 . S
C736 H727 0.930 . S
C736 C734 1.378 . S
C736 C737 1.367 . S
C737 C736 1.367 . S
C737 C739 1.433 . S
C738 C734 1.350 . S
C738 C735 1.463 . S
C738 N742 1.427 . S
C739 H729 0.929 . S
C739 C737 1.433 . S
C739 N742 1.384 . S
C740 H731 0.929 . S
C740 C732 1.378 . S
C740 C735 1.350 . S
C741 H728 0.929 . S
C741 C733 1.433 . S
C741 N743 1.384 . S
N742 C738 1.427 . S
N742 C739 1.384 . S
N743 C735 1.427 . S
N743 C741 1.384 . S
H744 C750 0.930 1_565 S
H745 C754 0.930 . S
H746 C759 0.929 . S
H747 C757 0.929 1_565 S
H748 C752 0.929 . S
H749 C758 0.929 1_565 S
C750 H744 0.930 1_545 S
C750 C751 1.367 . S
C750 C758 1.378 . S
C751 C750 1.367 . S
C751 C759 1.433 . S
C752 H748 0.929 . S
C752 C754 1.378 . S
C752 C756 1.350 . S
C753 C756 1.463 . S
C753 C758 1.350 . S
C753 N761 1.427 . S
C754 H745 0.930 . S
C754 C752 1.378 . S
C754 C755 1.367 . S
C755 C754 1.367 . S
C755 C757 1.433 . S
C756 C752 1.350 . S
C756 C753 1.463 . S
C756 N760 1.427 . S
C757 H747 0.929 1_545 S
C757 C755 1.433 . S
C757 N760 1.384 . S
C758 H749 0.929 1_545 S
C758 C750 1.378 . S
C758 C753 1.350 . S
C759 H746 0.929 . S
C759 C751 1.433 . S
C759 N761 1.384 . S
N760 C756 1.427 . S
N760 C757 1.384 . S
N761 C753 1.427 . S
N761 C759 1.384 . S
H762 C768 0.930 . S
H763 C772 0.930 . S
H764 C777 0.929 . S
H765 C775 0.929 . S
H766 C770 0.929 . S
H767 C776 0.929 . S
C768 H762 0.930 . S
C768 C769 1.367 . S
C768 C776 1.378 . S
C769 C768 1.367 . S
C769 C777 1.433 . S
C770 H766 0.929 . S
C770 C772 1.378 . S
C770 C774 1.350 . S
C771 C774 1.463 . S
C771 C776 1.350 . S
C771 N779 1.427 . S
C772 H763 0.930 . S
C772 C770 1.378 . S
C772 C773 1.367 . S
C773 C772 1.367 . S
C773 C775 1.433 . S
C774 C770 1.350 . S
C774 C771 1.463 . S
C774 N778 1.427 . S
C775 H765 0.929 . S
C775 C773 1.433 . S
C775 N778 1.384 . S
C776 H767 0.929 . S
C776 C768 1.378 . S
C776 C771 1.350 . S
C777 H764 0.929 . S
C777 C769 1.433 . S
C777 N779 1.384 . S
N778 C774 1.427 . S
N778 C775 1.384 . S
N779 C771 1.427 . S
N779 C777 1.384 . S
H780 C786 0.930 . S
H781 C790 0.930 . S
H782 C795 0.929 . S
H783 C793 0.929 . S
H784 C788 0.929 . S
H785 C794 0.929 . S
C786 H780 0.930 . S
C786 C787 1.367 . S
C786 C794 1.378 1_545 S
C787 C786 1.367 . S
C787 C795 1.433 . S
C788 H784 0.929 . S
C788 C790 1.378 . S
C788 C792 1.350 . S
C789 C792 1.463 . S
C789 C794 1.350 . S
C789 N797 1.427 1_565 S
C790 H781 0.930 . S
C790 C788 1.378 . S
C790 C791 1.367 . S
C791 C790 1.367 . S
C791 C793 1.433 . S
C792 C788 1.350 . S
C792 C789 1.463 . S
C792 N796 1.427 . S
C793 H783 0.929 . S
C793 C791 1.433 . S
C793 N796 1.384 . S
C794 H785 0.929 . S
C794 C786 1.378 1_565 S
C794 C789 1.350 . S
C795 H782 0.929 . S
C795 C787 1.433 . S
C795 N797 1.384 . S
N796 C792 1.427 . S
N796 C793 1.384 . S
N797 C789 1.427 1_545 S
N797 C795 1.384 . S
H798 C804 0.930 1_554 S
H799 C808 0.930 . S
H800 C813 0.929 . S
H801 C811 0.929 . S
H802 C806 0.929 . S
H803 C812 0.929 1_554 S
C804 H798 0.930 1_556 S
C804 C805 1.367 . S
C804 C812 1.378 . S
C805 C804 1.367 . S
C805 C813 1.433 . S
C806 H802 0.929 . S
C806 C808 1.378 . S
C806 C810 1.350 . S
C807 C810 1.463 . S
C807 C812 1.350 . S
C807 N815 1.427 . S
C808 H799 0.930 . S
C808 C806 1.378 . S
C808 C809 1.367 . S
C809 C808 1.367 . S
C809 C811 1.433 . S
C810 C806 1.350 . S
C810 C807 1.463 . S
C810 N814 1.427 . S
C811 H801 0.929 . S
C811 C809 1.433 . S
C811 N814 1.384 . S
C812 H803 0.929 1_556 S
C812 C804 1.378 . S
C812 C807 1.350 . S
C813 H800 0.929 . S
C813 C805 1.433 . S
C813 N815 1.384 . S
N814 C810 1.427 . S
N814 C811 1.384 . S
N815 C807 1.427 . S
N815 C813 1.384 . S
H816 C822 0.930 . S
H817 C826 0.930 . S
H818 C831 0.929 . S
H819 C829 0.929 . S
H820 C824 0.929 . S
H821 C830 0.929 . S
C822 H816 0.930 . S
C822 C823 1.367 . S
C822 C830 1.378 . S
C823 C822 1.367 . S
C823 C831 1.433 . S
C824 H820 0.929 . S
C824 C826 1.378 . S
C824 C828 1.350 . S
C825 C828 1.463 . S
C825 C830 1.350 . S
C825 N833 1.427 . S
C826 H817 0.930 . S
C826 C824 1.378 . S
C826 C827 1.367 . S
C827 C826 1.367 . S
C827 C829 1.433 . S
C828 C824 1.350 . S
C828 C825 1.463 . S
C828 N832 1.427 . S
C829 H819 0.929 . S
C829 C827 1.433 . S
C829 N832 1.384 . S
C830 H821 0.929 . S
C830 C822 1.378 . S
C830 C825 1.350 . S
C831 H818 0.929 . S
C831 C823 1.433 . S
C831 N833 1.384 . S
N832 C828 1.427 . S
N832 C829 1.384 . S
N833 C825 1.427 . S
N833 C831 1.384 . S
H834 C840 0.930 . S
H835 C844 0.930 . S
H836 C849 0.929 . S
H837 C847 0.929 . S
H838 C842 0.929 . S
H839 C848 0.929 . S
C840 H834 0.930 . S
C840 C841 1.367 . S
C840 C848 1.378 . S
C841 C840 1.367 . S
C841 C849 1.433 . S
C842 H838 0.929 . S
C842 C844 1.378 . S
C842 C846 1.350 . S
C843 C846 1.463 . S
C843 C848 1.350 . S
C843 N851 1.427 . S
C844 H835 0.930 . S
C844 C842 1.378 . S
C844 C845 1.367 . S
C845 C844 1.367 . S
C845 C847 1.433 . S
C846 C842 1.350 . S
C846 C843 1.463 . S
C846 N850 1.427 . S
C847 H837 0.929 . S
C847 C845 1.433 . S
C847 N850 1.384 . S
C848 H839 0.929 . S
C848 C840 1.378 . S
C848 C843 1.350 . S
C849 H836 0.929 . S
C849 C841 1.433 . S
C849 N851 1.384 . S
N850 C846 1.427 . S
N850 C847 1.384 . S
N851 C843 1.427 . S
N851 C849 1.384 . S
H852 C858 0.930 . S
H853 C862 0.930 . S
H854 C867 0.929 . S
H855 C865 0.929 . S
H856 C860 0.929 . S
H857 C866 0.929 . S
C858 H852 0.930 . S
C858 C859 1.367 . S
C858 C866 1.378 . S
C859 C858 1.367 . S
C859 C867 1.433 . S
C860 H856 0.929 . S
C860 C862 1.378 . S
C860 C864 1.350 . S
C861 C864 1.463 . S
C861 C866 1.350 . S
C861 N869 1.427 . S
C862 H853 0.930 . S
C862 C860 1.378 . S
C862 C863 1.367 . S
C863 C862 1.367 . S
C863 C865 1.433 . S
C864 C860 1.350 . S
C864 C861 1.463 . S
C864 N868 1.427 . S
C865 H855 0.929 . S
C865 C863 1.433 . S
C865 N868 1.384 . S
C866 H857 0.929 . S
C866 C858 1.378 . S
C866 C861 1.350 . S
C867 H854 0.929 . S
C867 C859 1.433 . S
C867 N869 1.384 . S
N868 C864 1.427 . S
N868 C865 1.384 . S
N869 C861 1.427 . S
N869 C867 1.384 . S
H870 C876 0.930 . S
H871 C880 0.930 . S
H872 C885 0.929 . S
H873 C883 0.929 . S
H874 C878 0.929 . S
H875 C884 0.929 . S
C876 H870 0.930 . S
C876 C877 1.367 . S
C876 C884 1.378 . S
C877 C876 1.367 . S
C877 C885 1.433 . S
C878 H874 0.929 . S
C878 C880 1.378 . S
C878 C882 1.350 . S
C879 C882 1.463 . S
C879 C884 1.350 . S
C879 N887 1.427 . S
C880 H871 0.930 . S
C880 C878 1.378 . S
C880 C881 1.367 . S
C881 C880 1.367 . S
C881 C883 1.433 . S
C882 C878 1.350 . S
C882 C879 1.463 . S
C882 N886 1.427 . S
C883 H873 0.929 . S
C883 C881 1.433 . S
C883 N886 1.384 . S
C884 H875 0.929 . S
C884 C876 1.378 . S
C884 C879 1.350 . S
C885 H872 0.929 . S
C885 C877 1.433 . S
C885 N887 1.384 . S
N886 C882 1.427 . S
N886 C883 1.384 . S
N887 C879 1.427 . S
N887 C885 1.384 . S
H888 C894 0.930 . S
H889 C898 0.930 . S
H890 C903 0.929 . S
H891 C901 0.929 . S
H892 C896 0.929 . S
H893 C902 0.929 . S
C894 H888 0.930 . S
C894 C895 1.367 . S
C894 C902 1.378 . S
C895 C894 1.367 . S
C895 C903 1.433 . S
C896 H892 0.929 . S
C896 C898 1.378 . S
C896 C900 1.350 . S
C897 C900 1.463 . S
C897 C902 1.350 . S
C897 N905 1.427 . S
C898 H889 0.930 . S
C898 C896 1.378 . S
C898 C899 1.367 . S
C899 C898 1.367 . S
C899 C901 1.433 . S
C900 C896 1.350 . S
C900 C897 1.463 . S
C900 N904 1.427 . S
C901 H891 0.929 . S
C901 C899 1.433 . S
C901 N904 1.384 . S
C902 H893 0.929 . S
C902 C894 1.378 . S
C902 C897 1.350 . S
C903 H890 0.929 . S
C903 C895 1.433 . S
C903 N905 1.384 . S
N904 C900 1.427 . S
N904 C901 1.384 . S
N905 C897 1.427 . S
N905 C903 1.384 . S
H906 C912 0.930 . S
H907 C916 0.930 . S
H908 C921 0.929 . S
H909 C919 0.929 . S
H910 C914 0.929 . S
H911 C920 0.929 . S
C912 H906 0.930 . S
C912 C913 1.367 . S
C912 C920 1.378 . S
C913 C912 1.367 . S
C913 C921 1.433 . S
C914 H910 0.929 . S
C914 C916 1.378 . S
C914 C918 1.350 . S
C915 C918 1.463 . S
C915 C920 1.350 . S
C915 N923 1.427 . S
C916 H907 0.930 . S
C916 C914 1.378 . S
C916 C917 1.367 . S
C917 C916 1.367 . S
C917 C919 1.433 . S
C918 C914 1.350 . S
C918 C915 1.463 . S
C918 N922 1.427 . S
C919 H909 0.929 . S
C919 C917 1.433 . S
C919 N922 1.384 . S
C920 H911 0.929 . S
C920 C912 1.378 . S
C920 C915 1.350 . S
C921 H908 0.929 . S
C921 C913 1.433 . S
C921 N923 1.384 . S
N922 C918 1.427 . S
N922 C919 1.384 . S
N923 C915 1.427 . S
N923 C921 1.384 . S
H924 C930 0.930 . S
H925 C934 0.930 . S
H926 C939 0.929 . S
H927 C937 0.929 . S
H928 C932 0.929 . S
H929 C938 0.929 . S
C930 H924 0.930 . S
C930 C931 1.367 . S
C930 C938 1.378 . S
C931 C930 1.367 . S
C931 C939 1.433 . S
C932 H928 0.929 . S
C932 C934 1.378 . S
C932 C936 1.350 . S
C933 C936 1.463 . S
C933 C938 1.350 . S
C933 N941 1.427 . S
C934 H925 0.930 . S
C934 C932 1.378 . S
C934 C935 1.367 . S
C935 C934 1.367 . S
C935 C937 1.433 . S
C936 C932 1.350 . S
C936 C933 1.463 . S
C936 N940 1.427 . S
C937 H927 0.929 . S
C937 C935 1.433 . S
C937 N940 1.384 . S
C938 H929 0.929 . S
C938 C930 1.378 . S
C938 C933 1.350 . S
C939 H926 0.929 . S
C939 C931 1.433 . S
C939 N941 1.384 . S
N940 C936 1.427 . S
N940 C937 1.384 . S
N941 C933 1.427 . S
N941 C939 1.384 . S
H942 C948 0.930 . S
H943 C952 0.930 . S
H944 C957 0.929 . S
H945 C955 0.929 . S
H946 C950 0.929 . S
H947 C956 0.929 . S
C948 H942 0.930 . S
C948 C949 1.367 . S
C948 C956 1.378 . S
C949 C948 1.367 . S
C949 C957 1.433 . S
C950 H946 0.929 . S
C950 C952 1.378 . S
C950 C954 1.350 . S
C951 C954 1.463 . S
C951 C956 1.350 . S
C951 N959 1.427 . S
C952 H943 0.930 . S
C952 C950 1.378 . S
C952 C953 1.367 . S
C953 C952 1.367 . S
C953 C955 1.433 . S
C954 C950 1.350 . S
C954 C951 1.463 . S
C954 N958 1.427 . S
C955 H945 0.929 . S
C955 C953 1.433 . S
C955 N958 1.384 . S
C956 H947 0.929 . S
C956 C948 1.378 . S
C956 C951 1.350 . S
C957 H944 0.929 . S
C957 C949 1.433 . S
C957 N959 1.384 . S
N958 C954 1.427 . S
N958 C955 1.384 . S
N959 C951 1.427 . S
N959 C957 1.384 . S
H960 C966 0.930 1_455 S
H961 C970 0.930 . S
H962 C975 0.929 . S
H963 C973 0.929 . S
H964 C968 0.929 . S
H965 C974 0.929 1_455 S
C966 H960 0.930 1_655 S
C966 C967 1.367 . S
C966 C974 1.378 1_554 S
C967 C966 1.367 . S
C967 C975 1.433 . S
C968 H964 0.929 . S
C968 C970 1.378 . S
C968 C972 1.350 . S
C969 C972 1.463 . S
C969 C974 1.350 . S
C969 N977 1.427 1_556 S
C970 H961 0.930 . S
C970 C968 1.378 . S
C970 C971 1.367 . S
C971 C970 1.367 . S
C971 C973 1.433 . S
C972 C968 1.350 . S
C972 C969 1.463 . S
C972 N976 1.427 . S
C973 H963 0.929 . S
C973 C971 1.433 . S
C973 N976 1.384 . S
C974 H965 0.929 1_655 S
C974 C966 1.378 1_556 S
C974 C969 1.350 . S
C975 H962 0.929 . S
C975 C967 1.433 . S
C975 N977 1.384 . S
N976 C972 1.427 . S
N976 C973 1.384 . S
N977 C969 1.427 1_554 S
N977 C975 1.384 . S
H978 C984 0.930 . S
H979 C988 0.930 . S
H980 C993 0.929 . S
H981 C991 0.929 . S
H982 C986 0.929 . S
H983 C992 0.929 . S
C984 H978 0.930 . S
C984 C985 1.367 . S
C984 C992 1.378 . S
C985 C984 1.367 . S
C985 C993 1.433 . S
C986 H982 0.929 . S
C986 C988 1.378 . S
C986 C990 1.350 . S
C987 C990 1.463 . S
C987 C992 1.350 . S
C987 N995 1.427 . S
C988 H979 0.930 . S
C988 C986 1.378 . S
C988 C989 1.367 . S
C989 C988 1.367 . S
C989 C991 1.433 . S
C990 C986 1.350 . S
C990 C987 1.463 . S
C990 N994 1.427 . S
C991 H981 0.929 . S
C991 C989 1.433 . S
C991 N994 1.384 . S
C992 H983 0.929 . S
C992 C984 1.378 . S
C992 C987 1.350 . S
C993 H980 0.929 . S
C993 C985 1.433 . S
C993 N995 1.384 . S
N994 C990 1.427 . S
N994 C991 1.384 . S
N995 C987 1.427 . S
N995 C993 1.384 . S
H996 C1002 0.930 . S
H997 C1006 0.930 . S
H998 C1011 0.929 1_556 S
H999 C1009 0.929 . S
H1000 C1004 0.929 . S
H1001 C1010 0.929 . S
C1002 H996 0.930 . S
C1002 C1003 1.367 1_554 S
C1002 C1010 1.378 . S
C1003 C1002 1.367 1_556 S
C1003 C1011 1.433 1_556 S
C1004 H1000 0.929 . S
C1004 C1006 1.378 . S
C1004 C1008 1.350 . S
C1005 C1008 1.463 . S
C1005 C1010 1.350 . S
C1005 N1013 1.427 . S
C1006 H997 0.930 . S
C1006 C1004 1.378 . S
C1006 C1007 1.367 . S
C1007 C1006 1.367 . S
C1007 C1009 1.433 . S
C1008 C1004 1.350 . S
C1008 C1005 1.463 . S
C1008 N1012 1.427 . S
C1009 H999 0.929 . S
C1009 C1007 1.433 . S
C1009 N1012 1.384 . S
C1010 H1001 0.929 . S
C1010 C1002 1.378 . S
C1010 C1005 1.350 . S
C1011 H998 0.929 1_554 S
C1011 C1003 1.433 1_554 S
C1011 N1013 1.384 . S
N1012 C1008 1.427 . S
N1012 C1009 1.384 . S
N1013 C1005 1.427 . S
N1013 C1011 1.384 . S
H1014 C1020 0.930 . S
H1015 C1024 0.930 . S
H1016 C1029 0.929 . S
H1017 C1027 0.929 . S
H1018 C1022 0.929 . S
H1019 C1028 0.929 . S
C1020 H1014 0.930 . S
C1020 C1021 1.367 . S
C1020 C1028 1.378 . S
C1021 C1020 1.367 . S
C1021 C1029 1.433 . S
C1022 H1018 0.929 . S
C1022 C1024 1.378 . S
C1022 C1026 1.350 . S
C1023 C1026 1.463 . S
C1023 C1028 1.350 . S
C1023 N1031 1.427 . S
C1024 H1015 0.930 . S
C1024 C1022 1.378 . S
C1024 C1025 1.367 . S
C1025 C1024 1.367 . S
C1025 C1027 1.433 . S
C1026 C1022 1.350 . S
C1026 C1023 1.463 . S
C1026 N1030 1.427 . S
C1027 H1017 0.929 . S
C1027 C1025 1.433 . S
C1027 N1030 1.384 . S
C1028 H1019 0.929 . S
C1028 C1020 1.378 . S
C1028 C1023 1.350 . S
C1029 H1016 0.929 . S
C1029 C1021 1.433 . S
C1029 N1031 1.384 . S
N1030 C1026 1.427 . S
N1030 C1027 1.384 . S
N1031 C1023 1.427 . S
N1031 C1029 1.384 . S
H1032 C1038 0.930 1_455 S
H1033 C1042 0.930 . S
H1034 C1047 0.929 . S
H1035 C1045 0.929 1_455 S
H1036 C1040 0.929 . S
H1037 C1046 0.929 1_455 S
C1038 H1032 0.930 1_655 S
C1038 C1039 1.367 . S
C1038 C1046 1.378 . S
C1039 C1038 1.367 . S
C1039 C1047 1.433 . S
C1040 H1036 0.929 . S
C1040 C1042 1.378 . S
C1040 C1044 1.350 . S
C1041 C1044 1.463 . S
C1041 C1046 1.350 . S
C1041 N1049 1.427 . S
C1042 H1033 0.930 . S
C1042 C1040 1.378 . S
C1042 C1043 1.367 . S
C1043 C1042 1.367 . S
C1043 C1045 1.433 . S
C1044 C1040 1.350 . S
C1044 C1041 1.463 . S
C1044 N1048 1.427 . S
C1045 H1035 0.929 1_655 S
C1045 C1043 1.433 . S
C1045 N1048 1.384 . S
C1046 H1037 0.929 1_655 S
C1046 C1038 1.378 . S
C1046 C1041 1.350 . S
C1047 H1034 0.929 . S
C1047 C1039 1.433 . S
C1047 N1049 1.384 . S
N1048 C1044 1.427 . S
N1048 C1045 1.384 . S
N1049 C1041 1.427 . S
N1049 C1047 1.384 . S
H1050 C1056 0.930 . S
H1051 C1060 0.930 . S
H1052 C1065 0.929 . S
H1053 C1063 0.929 . S
H1054 C1058 0.929 . S
H1055 C1064 0.929 . S
C1056 H1050 0.930 . S
C1056 C1057 1.367 . S
C1056 C1064 1.378 . S
C1057 C1056 1.367 . S
C1057 C1065 1.433 . S
C1058 H1054 0.929 . S
C1058 C1060 1.378 . S
C1058 C1062 1.350 . S
C1059 C1062 1.463 . S
C1059 C1064 1.350 . S
C1059 N1067 1.427 . S
C1060 H1051 0.930 . S
C1060 C1058 1.378 . S
C1060 C1061 1.367 . S
C1061 C1060 1.367 . S
C1061 C1063 1.433 . S
C1062 C1058 1.350 . S
C1062 C1059 1.463 . S
C1062 N1066 1.427 . S
C1063 H1053 0.929 . S
C1063 C1061 1.433 . S
C1063 N1066 1.384 . S
C1064 H1055 0.929 . S
C1064 C1056 1.378 . S
C1064 C1059 1.350 . S
C1065 H1052 0.929 . S
C1065 C1057 1.433 . S
C1065 N1067 1.384 . S
N1066 C1062 1.427 . S
N1066 C1063 1.384 . S
N1067 C1059 1.427 . S
N1067 C1065 1.384 . S
H1068 C1074 0.930 . S
H1069 C1078 0.930 . S
H1070 C1083 0.929 . S
H1071 C1081 0.929 . S
H1072 C1076 0.929 . S
H1073 C1082 0.929 . S
C1074 H1068 0.930 . S
C1074 C1075 1.367 . S
C1074 C1082 1.378 . S
C1075 C1074 1.367 . S
C1075 C1083 1.433 . S
C1076 H1072 0.929 . S
C1076 C1078 1.378 . S
C1076 C1080 1.350 . S
C1077 C1080 1.463 . S
C1077 C1082 1.350 . S
C1077 N1085 1.427 . S
C1078 H1069 0.930 . S
C1078 C1076 1.378 . S
C1078 C1079 1.367 . S
C1079 C1078 1.367 . S
C1079 C1081 1.433 . S
C1080 C1076 1.350 . S
C1080 C1077 1.463 . S
C1080 N1084 1.427 . S
C1081 H1071 0.929 . S
C1081 C1079 1.433 . S
C1081 N1084 1.384 . S
C1082 H1073 0.929 . S
C1082 C1074 1.378 . S
C1082 C1077 1.350 . S
C1083 H1070 0.929 . S
C1083 C1075 1.433 . S
C1083 N1085 1.384 . S
N1084 C1080 1.427 . S
N1084 C1081 1.384 . S
N1085 C1077 1.427 . S
N1085 C1083 1.384 . S
H1086 C1092 0.930 . S
H1087 C1096 0.930 . S
H1088 C1101 0.929 . S
H1089 C1099 0.929 . S
H1090 C1094 0.929 . S
H1091 C1100 0.929 . S
C1092 H1086 0.930 . S
C1092 C1093 1.367 . S
C1092 C1100 1.378 . S
C1093 C1092 1.367 . S
C1093 C1101 1.433 . S
C1094 H1090 0.929 . S
C1094 C1096 1.378 . S
C1094 C1098 1.350 . S
C1095 C1098 1.463 . S
C1095 C1100 1.350 . S
C1095 N1103 1.427 . S
C1096 H1087 0.930 . S
C1096 C1094 1.378 . S
C1096 C1097 1.367 . S
C1097 C1096 1.367 . S
C1097 C1099 1.433 . S
C1098 C1094 1.350 . S
C1098 C1095 1.463 . S
C1098 N1102 1.427 . S
C1099 H1089 0.929 . S
C1099 C1097 1.433 . S
C1099 N1102 1.384 . S
C1100 H1091 0.929 . S
C1100 C1092 1.378 . S
C1100 C1095 1.350 . S
C1101 H1088 0.929 . S
C1101 C1093 1.433 . S
C1101 N1103 1.384 . S
N1102 C1098 1.427 . S
N1102 C1099 1.384 . S
N1103 C1095 1.427 . S
N1103 C1101 1.384 . S
H1104 C1110 0.930 . S
H1105 C1114 0.930 . S
H1106 C1119 0.929 . S
H1107 C1117 0.929 . S
H1108 C1112 0.929 . S
H1109 C1118 0.929 . S
C1110 H1104 0.930 . S
C1110 C1111 1.367 . S
C1110 C1118 1.378 . S
C1111 C1110 1.367 . S
C1111 C1119 1.433 . S
C1112 H1108 0.929 . S
C1112 C1114 1.378 . S
C1112 C1116 1.350 . S
C1113 C1116 1.463 . S
C1113 C1118 1.350 . S
C1113 N1121 1.427 . S
C1114 H1105 0.930 . S
C1114 C1112 1.378 . S
C1114 C1115 1.367 . S
C1115 C1114 1.367 . S
C1115 C1117 1.433 . S
C1116 C1112 1.350 . S
C1116 C1113 1.463 . S
C1116 N1120 1.427 . S
C1117 H1107 0.929 . S
C1117 C1115 1.433 . S
C1117 N1120 1.384 . S
C1118 H1109 0.929 . S
C1118 C1110 1.378 . S
C1118 C1113 1.350 . S
C1119 H1106 0.929 . S
C1119 C1111 1.433 . S
C1119 N1121 1.384 . S
N1120 C1116 1.427 . S
N1120 C1117 1.384 . S
N1121 C1113 1.427 . S
N1121 C1119 1.384 . S
H1122 C1128 0.930 . S
H1123 C1132 0.930 . S
H1124 C1137 0.929 . S
H1125 C1135 0.929 . S
H1126 C1130 0.929 . S
H1127 C1136 0.929 . S
C1128 H1122 0.930 . S
C1128 C1129 1.367 . S
C1128 C1136 1.378 . S
C1129 C1128 1.367 . S
C1129 C1137 1.433 . S
C1130 H1126 0.929 . S
C1130 C1132 1.378 . S
C1130 C1134 1.350 . S
C1131 C1134 1.463 . S
C1131 C1136 1.350 . S
C1131 N1139 1.427 . S
C1132 H1123 0.930 . S
C1132 C1130 1.378 . S
C1132 C1133 1.367 . S
C1133 C1132 1.367 . S
C1133 C1135 1.433 . S
C1134 C1130 1.350 . S
C1134 C1131 1.463 . S
C1134 N1138 1.427 . S
C1135 H1125 0.929 . S
C1135 C1133 1.433 . S
C1135 N1138 1.384 . S
C1136 H1127 0.929 . S
C1136 C1128 1.378 . S
C1136 C1131 1.350 . S
C1137 H1124 0.929 . S
C1137 C1129 1.433 . S
C1137 N1139 1.384 . S
N1138 C1134 1.427 . S
N1138 C1135 1.384 . S
N1139 C1131 1.427 . S
N1139 C1137 1.384 . S
H1140 C1146 0.930 . S
H1141 C1150 0.930 . S
H1142 C1155 0.929 . S
H1143 C1153 0.929 . S
H1144 C1148 0.929 . S
H1145 C1154 0.929 . S
C1146 H1140 0.930 . S
C1146 C1147 1.367 . S
C1146 C1154 1.378 . S
C1147 C1146 1.367 . S
C1147 C1155 1.433 . S
C1148 H1144 0.929 . S
C1148 C1150 1.378 . S
C1148 C1152 1.350 . S
C1149 C1152 1.463 . S
C1149 C1154 1.350 . S
C1149 N1157 1.427 . S
C1150 H1141 0.930 . S
C1150 C1148 1.378 . S
C1150 C1151 1.367 . S
C1151 C1150 1.367 . S
C1151 C1153 1.433 . S
C1152 C1148 1.350 . S
C1152 C1149 1.463 . S
C1152 N1156 1.427 . S
C1153 H1143 0.929 . S
C1153 C1151 1.433 . S
C1153 N1156 1.384 . S
C1154 H1145 0.929 . S
C1154 C1146 1.378 . S
C1154 C1149 1.350 . S
C1155 H1142 0.929 . S
C1155 C1147 1.433 . S
C1155 N1157 1.384 . S
N1156 C1152 1.427 . S
N1156 C1153 1.384 . S
N1157 C1149 1.427 . S
N1157 C1155 1.384 . S
H1158 C1164 0.930 . S
H1159 C1168 0.930 . S
H1160 C1173 0.929 . S
H1161 C1171 0.929 . S
H1162 C1166 0.929 . S
H1163 C1172 0.929 . S
C1164 H1158 0.930 . S
C1164 C1165 1.367 . S
C1164 C1172 1.378 . S
C1165 C1164 1.367 . S
C1165 C1173 1.433 . S
C1166 H1162 0.929 . S
C1166 C1168 1.378 . S
C1166 C1170 1.350 . S
C1167 C1170 1.463 . S
C1167 C1172 1.350 . S
C1167 N1175 1.427 . S
C1168 H1159 0.930 . S
C1168 C1166 1.378 . S
C1168 C1169 1.367 . S
C1169 C1168 1.367 . S
C1169 C1171 1.433 . S
C1170 C1166 1.350 . S
C1170 C1167 1.463 . S
C1170 N1174 1.427 . S
C1171 H1161 0.929 . S
C1171 C1169 1.433 . S
C1171 N1174 1.384 . S
C1172 H1163 0.929 . S
C1172 C1164 1.378 . S
C1172 C1167 1.350 . S
C1173 H1160 0.929 . S
C1173 C1165 1.433 . S
C1173 N1175 1.384 . S
N1174 C1170 1.427 . S
N1174 C1171 1.384 . S
N1175 C1167 1.427 . S
N1175 C1173 1.384 . S
H1176 C1182 0.930 1_655 S
H1177 C1186 0.930 . S
H1178 C1191 0.929 1_655 S
H1179 C1189 0.929 . S
H1180 C1184 0.929 . S
H1181 C1190 0.929 . S
C1182 H1176 0.930 1_455 S
C1182 C1183 1.367 1_455 S
C1182 C1190 1.378 . S
C1183 C1182 1.367 1_655 S
C1183 C1191 1.433 1_655 S
C1184 H1180 0.929 . S
C1184 C1186 1.378 . S
C1184 C1188 1.350 . S
C1185 C1188 1.463 . S
C1185 C1190 1.350 . S
C1185 N1193 1.427 . S
C1186 H1177 0.930 . S
C1186 C1184 1.378 . S
C1186 C1187 1.367 . S
C1187 C1186 1.367 . S
C1187 C1189 1.433 . S
C1188 C1184 1.350 . S
C1188 C1185 1.463 . S
C1188 N1192 1.427 . S
C1189 H1179 0.929 . S
C1189 C1187 1.433 . S
C1189 N1192 1.384 . S
C1190 H1181 0.929 . S
C1190 C1182 1.378 . S
C1190 C1185 1.350 . S
C1191 H1178 0.929 1_455 S
C1191 C1183 1.433 1_455 S
C1191 N1193 1.384 . S
N1192 C1188 1.427 . S
N1192 C1189 1.384 . S
N1193 C1185 1.427 . S
N1193 C1191 1.384 . S
H1194 C1200 0.930 . S
H1195 C1204 0.930 . S
H1196 C1209 0.929 . S
H1197 C1207 0.929 . S
H1198 C1202 0.929 . S
H1199 C1208 0.929 . S
C1200 H1194 0.930 . S
C1200 C1201 1.367 . S
C1200 C1208 1.378 . S
C1201 C1200 1.367 . S
C1201 C1209 1.433 . S
C1202 H1198 0.929 . S
C1202 C1204 1.378 . S
C1202 C1206 1.350 . S
C1203 C1206 1.463 . S
C1203 C1208 1.350 . S
C1203 N1211 1.427 . S
C1204 H1195 0.930 . S
C1204 C1202 1.378 . S
C1204 C1205 1.367 . S
C1205 C1204 1.367 . S
C1205 C1207 1.433 . S
C1206 C1202 1.350 . S
C1206 C1203 1.463 . S
C1206 N1210 1.427 . S
C1207 H1197 0.929 . S
C1207 C1205 1.433 . S
C1207 N1210 1.384 . S
C1208 H1199 0.929 . S
C1208 C1200 1.378 . S
C1208 C1203 1.350 . S
C1209 H1196 0.929 . S
C1209 C1201 1.433 . S
C1209 N1211 1.384 . S
N1210 C1206 1.427 . S
N1210 C1207 1.384 . S
N1211 C1203 1.427 . S
N1211 C1209 1.384 . S
H1212 C1218 0.930 . S
H1213 C1222 0.930 1_455 S
H1214 C1227 0.929 . S
H1215 C1225 0.929 . S
H1216 C1220 0.929 . S
H1217 C1226 0.929 . S
C1218 H1212 0.930 . S
C1218 C1219 1.367 . S
C1218 C1226 1.378 . S
C1219 C1218 1.367 . S
C1219 C1227 1.433 . S
C1220 H1216 0.929 . S
C1220 C1222 1.378 . S
C1220 C1224 1.350 . S
C1221 C1224 1.463 . S
C1221 C1226 1.350 . S
C1221 N1229 1.427 . S
C1222 H1213 0.930 1_655 S
C1222 C1220 1.378 . S
C1222 C1223 1.367 . S
C1223 C1222 1.367 . S
C1223 C1225 1.433 . S
C1224 C1220 1.350 . S
C1224 C1221 1.463 . S
C1224 N1228 1.427 . S
C1225 H1215 0.929 . S
C1225 C1223 1.433 . S
C1225 N1228 1.384 . S
C1226 H1217 0.929 . S
C1226 C1218 1.378 . S
C1226 C1221 1.350 . S
C1227 H1214 0.929 . S
C1227 C1219 1.433 . S
C1227 N1229 1.384 . S
N1228 C1224 1.427 . S
N1228 C1225 1.384 . S
N1229 C1221 1.427 . S
N1229 C1227 1.384 . S
H1230 C1236 0.930 . S
H1231 C1240 0.930 . S
H1232 C1245 0.929 . S
H1233 C1243 0.929 . S
H1234 C1238 0.929 . S
H1235 C1244 0.929 . S
C1236 H1230 0.930 . S
C1236 C1237 1.367 . S
C1236 C1244 1.378 . S
C1237 C1236 1.367 . S
C1237 C1245 1.433 . S
C1238 H1234 0.929 . S
C1238 C1240 1.378 . S
C1238 C1242 1.350 . S
C1239 C1242 1.463 . S
C1239 C1244 1.350 . S
C1239 N1247 1.427 . S
C1240 H1231 0.930 . S
C1240 C1238 1.378 . S
C1240 C1241 1.367 . S
C1241 C1240 1.367 . S
C1241 C1243 1.433 . S
C1242 C1238 1.350 . S
C1242 C1239 1.463 . S
C1242 N1246 1.427 . S
C1243 H1233 0.929 . S
C1243 C1241 1.433 . S
C1243 N1246 1.384 . S
C1244 H1235 0.929 . S
C1244 C1236 1.378 . S
C1244 C1239 1.350 . S
C1245 H1232 0.929 . S
C1245 C1237 1.433 . S
C1245 N1247 1.384 . S
N1246 C1242 1.427 . S
N1246 C1243 1.384 . S
N1247 C1239 1.427 . S
N1247 C1245 1.384 . S
H1248 C1254 0.930 . S
H1249 C1258 0.930 . S
H1250 C1263 0.929 . S
H1251 C1261 0.929 . S
H1252 C1256 0.929 . S
H1253 C1262 0.929 . S
C1254 H1248 0.930 . S
C1254 C1255 1.367 . S
C1254 C1262 1.378 . S
C1255 C1254 1.367 . S
C1255 C1263 1.433 . S
C1256 H1252 0.929 . S
C1256 C1258 1.378 . S
C1256 C1260 1.350 . S
C1257 C1260 1.463 . S
C1257 C1262 1.350 . S
C1257 N1265 1.427 . S
C1258 H1249 0.930 . S
C1258 C1256 1.378 . S
C1258 C1259 1.367 . S
C1259 C1258 1.367 . S
C1259 C1261 1.433 . S
C1260 C1256 1.350 . S
C1260 C1257 1.463 . S
C1260 N1264 1.427 . S
C1261 H1251 0.929 . S
C1261 C1259 1.433 . S
C1261 N1264 1.384 . S
C1262 H1253 0.929 . S
C1262 C1254 1.378 . S
C1262 C1257 1.350 . S
C1263 H1250 0.929 . S
C1263 C1255 1.433 . S
C1263 N1265 1.384 . S
N1264 C1260 1.427 . S
N1264 C1261 1.384 . S
N1265 C1257 1.427 . S
N1265 C1263 1.384 . S
H1266 C1272 0.930 . S
H1267 C1276 0.930 . S
H1268 C1281 0.929 . S
H1269 C1279 0.929 . S
H1270 C1274 0.929 . S
H1271 C1280 0.929 1_565 S
C1272 H1266 0.930 . S
C1272 C1273 1.367 . S
C1272 C1280 1.378 . S
C1273 C1272 1.367 . S
C1273 C1281 1.433 . S
C1274 H1270 0.929 . S
C1274 C1276 1.378 . S
C1274 C1278 1.350 . S
C1275 C1278 1.463 1_545 S
C1275 C1280 1.350 . S
C1275 N1283 1.427 . S
C1276 H1267 0.930 . S
C1276 C1274 1.378 . S
C1276 C1277 1.367 . S
C1277 C1276 1.367 . S
C1277 C1279 1.433 . S
C1278 C1274 1.350 . S
C1278 C1275 1.463 1_565 S
C1278 N1282 1.427 . S
C1279 H1269 0.929 . S
C1279 C1277 1.433 . S
C1279 N1282 1.384 . S
C1280 H1271 0.929 1_545 S
C1280 C1272 1.378 . S
C1280 C1275 1.350 . S
C1281 H1268 0.929 . S
C1281 C1273 1.433 . S
C1281 N1283 1.384 . S
N1282 C1278 1.427 . S
N1282 C1279 1.384 . S
N1283 C1275 1.427 . S
N1283 C1281 1.384 . S
H1284 C1290 0.930 . S
H1285 C1294 0.930 . S
H1286 C1299 0.929 . S
H1287 C1297 0.929 . S
H1288 C1292 0.929 . S
H1289 C1298 0.929 . S
C1290 H1284 0.930 . S
C1290 C1291 1.367 . S
C1290 C1298 1.378 . S
C1291 C1290 1.367 . S
C1291 C1299 1.433 . S
C1292 H1288 0.929 . S
C1292 C1294 1.378 . S
C1292 C1296 1.350 . S
C1293 C1296 1.463 . S
C1293 C1298 1.350 . S
C1293 N1301 1.427 . S
C1294 H1285 0.930 . S
C1294 C1292 1.378 . S
C1294 C1295 1.367 . S
C1295 C1294 1.367 . S
C1295 C1297 1.433 . S
C1296 C1292 1.350 . S
C1296 C1293 1.463 . S
C1296 N1300 1.427 . S
C1297 H1287 0.929 . S
C1297 C1295 1.433 . S
C1297 N1300 1.384 . S
C1298 H1289 0.929 . S
C1298 C1290 1.378 . S
C1298 C1293 1.350 . S
C1299 H1286 0.929 . S
C1299 C1291 1.433 . S
C1299 N1301 1.384 . S
N1300 C1296 1.427 . S
N1300 C1297 1.384 . S
N1301 C1293 1.427 . S
N1301 C1299 1.384 . S
H1302 C1308 0.930 . S
H1303 C1312 0.930 . S
H1304 C1317 0.929 . S
H1305 C1315 0.929 . S
H1306 C1310 0.929 . S
H1307 C1316 0.929 . S
C1308 H1302 0.930 . S
C1308 C1309 1.367 . S
C1308 C1316 1.378 . S
C1309 C1308 1.367 . S
C1309 C1317 1.433 . S
C1310 H1306 0.929 . S
C1310 C1312 1.378 . S
C1310 C1314 1.350 . S
C1311 C1314 1.463 . S
C1311 C1316 1.350 . S
C1311 N1319 1.427 . S
C1312 H1303 0.930 . S
C1312 C1310 1.378 . S
C1312 C1313 1.367 . S
C1313 C1312 1.367 . S
C1313 C1315 1.433 . S
C1314 C1310 1.350 . S
C1314 C1311 1.463 . S
C1314 N1318 1.427 . S
C1315 H1305 0.929 . S
C1315 C1313 1.433 . S
C1315 N1318 1.384 . S
C1316 H1307 0.929 . S
C1316 C1308 1.378 . S
C1316 C1311 1.350 . S
C1317 H1304 0.929 . S
C1317 C1309 1.433 . S
C1317 N1319 1.384 . S
N1318 C1314 1.427 . S
N1318 C1315 1.384 . S
N1319 C1311 1.427 . S
N1319 C1317 1.384 . S
H1320 C1326 0.930 . S
H1321 C1330 0.930 . S
H1322 C1335 0.929 . S
H1323 C1333 0.929 . S
H1324 C1328 0.929 . S
H1325 C1334 0.929 . S
C1326 H1320 0.930 . S
C1326 C1327 1.367 . S
C1326 C1334 1.378 . S
C1327 C1326 1.367 . S
C1327 C1335 1.433 . S
C1328 H1324 0.929 . S
C1328 C1330 1.378 . S
C1328 C1332 1.350 . S
C1329 C1332 1.463 . S
C1329 C1334 1.350 . S
C1329 N1337 1.427 . S
C1330 H1321 0.930 . S
C1330 C1328 1.378 . S
C1330 C1331 1.367 . S
C1331 C1330 1.367 . S
C1331 C1333 1.433 . S
C1332 C1328 1.350 . S
C1332 C1329 1.463 . S
C1332 N1336 1.427 . S
C1333 H1323 0.929 . S
C1333 C1331 1.433 . S
C1333 N1336 1.384 . S
C1334 H1325 0.929 . S
C1334 C1326 1.378 . S
C1334 C1329 1.350 . S
C1335 H1322 0.929 . S
C1335 C1327 1.433 . S
C1335 N1337 1.384 . S
N1336 C1332 1.427 . S
N1336 C1333 1.384 . S
N1337 C1329 1.427 . S
N1337 C1335 1.384 . S
H1338 C1344 0.930 . S
H1339 C1348 0.930 . S
H1340 C1353 0.929 . S
H1341 C1351 0.929 . S
H1342 C1346 0.929 . S
H1343 C1352 0.929 . S
C1344 H1338 0.930 . S
C1344 C1345 1.367 . S
C1344 C1352 1.378 . S
C1345 C1344 1.367 . S
C1345 C1353 1.433 . S
C1346 H1342 0.929 . S
C1346 C1348 1.378 . S
C1346 C1350 1.350 . S
C1347 C1350 1.463 . S
C1347 C1352 1.350 . S
C1347 N1355 1.427 . S
C1348 H1339 0.930 . S
C1348 C1346 1.378 . S
C1348 C1349 1.367 . S
C1349 C1348 1.367 . S
C1349 C1351 1.433 . S
C1350 C1346 1.350 . S
C1350 C1347 1.463 . S
C1350 N1354 1.427 . S
C1351 H1341 0.929 . S
C1351 C1349 1.433 . S
C1351 N1354 1.384 . S
C1352 H1343 0.929 . S
C1352 C1344 1.378 . S
C1352 C1347 1.350 . S
C1353 H1340 0.929 . S
C1353 C1345 1.433 . S
C1353 N1355 1.384 . S
N1354 C1350 1.427 . S
N1354 C1351 1.384 . S
N1355 C1347 1.427 . S
N1355 C1353 1.384 . S
C503 C481 1.246 . S
C499 N12 1.396 . S
C517 C30 1.435 . S
C521 C434 1.233 . S
C535 C62 1.332 . S
C539 C445 1.237 . S
C557 C470 1.237 . S
C553 N81 1.353 . S
C571 C39 1.327 . S
C575 C488 1.195 . S
C593 C427 1.258 . S
C589 C53 1.422 . S
C611 C452 1.201 . S
C607 N71 1.334 1_554 S
C629 C463 1.261 . S
C625 N2 1.306 . S
C643 N94 1.390 . S
C647 C464 1.273 . S
C665 C490 1.262 . S
C661 C131 1.365 . S
C683 C428 1.264 . S
C679 N140 1.324 . S
C701 C454 1.211 . S
C697 C177 1.332 . S
C715 C108 1.320 . S
C719 C436 1.238 . S
C733 N117 1.336 . S
C737 C446 1.251 . S
C751 C154 1.358 . S
C755 C472 1.213 . S
C773 C482 1.226 . S
C769 N163 1.333 . S
C791 C319 1.244 . S
C787 N173 1.368 . S
C809 C302 1.212 . S
C805 C191 1.379 . S
C827 C328 1.215 . S
C823 N219 1.369 . S
C845 C346 1.314 . S
C841 C237 1.429 . S
C859 N104 1.356 . S
C863 C320 1.226 . S
C877 N127 1.340 . S
C881 C290 1.170 . S
C895 C214 1.402 . S
C899 C344 1.273 . S
C913 C260 1.429 . S
C917 C301 1.259 . S
C935 C355 1.254 1_565 S
C931 N48 1.337 . S
C953 C380 1.212 . S
C949 C76 1.411 . S
C967 C7 1.366 . S
C971 C391 1.241 . S
C985 N35 1.331 . S
C989 C416 1.201 . S
C1007 C362 1.218 . S
C1003 C85 1.358 . S
C1025 C373 1.274 . S
C1021 C16 1.395 . S
C1039 N25 1.352 . S
C1043 C398 1.224 . S
C1061 C409 1.226 . S
C1057 N58 1.342 . S
C1075 N255 1.381 . S
C1079 C410 1.274 . S
C1093 C200 1.356 . S
C1097 C364 1.253 . S
C1115 C374 1.243 . S
C1111 N209 1.305 1_455 S
C1129 C246 1.318 . S
C1133 C400 1.197 . S
C1151 C382 1.249 . S
C1147 C269 1.340 . S
C1165 N186 1.339 . S
C1169 C392 1.266 . S
C1187 C418 1.250 . S
C1183 C223 1.377 . S
C1205 C356 1.245 1_565 S
C1201 N232 1.343 . S
C1223 C283 1.248 . S
C1219 N242 1.371 . S
C1241 C338 1.209 . S
C1237 C122 1.385 1_545 S
C1255 N150 1.369 . S
C1259 C292 1.231 . S
C1277 C310 1.320 . S
C1273 C168 1.434 . S
C1295 C284 1.233 . S
C1291 N265 1.348 . S
C1309 N196 1.341 . S
C1313 C326 1.176 . S
C1327 C145 1.390 . S
C1331 C308 1.244 . S
C1345 C99 1.433 . S
C1349 C337 1.280 . S
