# Generated by pormake.
# Topology zzz, (3,6)-cn, num edge types: 1
# Building blocks:
#     Node 0, Type 0, BuildingBlock: CUQRIR_clean_linker_1, # of connection points: 3
#     Node 1, Type 0, BuildingBlock: CUQRIR_clean_linker_1, # of connection points: 3
#     Node 2, Type 0, BuildingBlock: CUQRIR_clean_linker_1, # of connection points: 3
#     Node 3, Type 0, BuildingBlock: CUQRIR_clean_linker_1, # of connection points: 3
#     Node 4, Type 0, BuildingBlock: CUQRIR_clean_linker_1, # of connection points: 3
#     Node 5, Type 0, BuildingBlock: CUQRIR_clean_linker_1, # of connection points: 3
#     Node 6, Type 0, BuildingBlock: CUQRIR_clean_linker_1, # of connection points: 3
#     Node 7, Type 0, BuildingBlock: CUQRIR_clean_linker_1, # of connection points: 3
#     Node 8, Type 1, BuildingBlock: CUKXOW_clean_sbu_0, # of connection points: 6
#     Node 9, Type 1, BuildingBlock: CUKXOW_clean_sbu_0, # of connection points: 6
#     Node 10, Type 1, BuildingBlock: CUKXOW_clean_sbu_0, # of connection points: 6
#     Node 11, Type 1, BuildingBlock: CUKXOW_clean_sbu_0, # of connection points: 6
#     Edge 12, Type (0, 1), BuildingBlock: MIFKUJ_clean_linker_0, # of connection points: 2
#     Edge 13, Type (0, 1), BuildingBlock: MIFKUJ_clean_linker_0, # of connection points: 2
#     Edge 14, Type (0, 1), BuildingBlock: MIFKUJ_clean_linker_0, # of connection points: 2
#     Edge 15, Type (0, 1), BuildingBlock: MIFKUJ_clean_linker_0, # of connection points: 2
#     Edge 16, Type (0, 1), BuildingBlock: MIFKUJ_clean_linker_0, # of connection points: 2
#     Edge 17, Type (0, 1), BuildingBlock: MIFKUJ_clean_linker_0, # of connection points: 2
#     Edge 18, Type (0, 1), BuildingBlock: MIFKUJ_clean_linker_0, # of connection points: 2
#     Edge 19, Type (0, 1), BuildingBlock: MIFKUJ_clean_linker_0, # of connection points: 2
#     Edge 20, Type (0, 1), BuildingBlock: MIFKUJ_clean_linker_0, # of connection points: 2
#     Edge 21, Type (0, 1), BuildingBlock: MIFKUJ_clean_linker_0, # of connection points: 2
#     Edge 22, Type (0, 1), BuildingBlock: MIFKUJ_clean_linker_0, # of connection points: 2
#     Edge 23, Type (0, 1), BuildingBlock: MIFKUJ_clean_linker_0, # of connection points: 2
#     Edge 24, Type (0, 1), BuildingBlock: MIFKUJ_clean_linker_0, # of connection points: 2
#     Edge 25, Type (0, 1), BuildingBlock: MIFKUJ_clean_linker_0, # of connection points: 2
#     Edge 26, Type (0, 1), BuildingBlock: MIFKUJ_clean_linker_0, # of connection points: 2
#     Edge 27, Type (0, 1), BuildingBlock: MIFKUJ_clean_linker_0, # of connection points: 2
#     Edge 28, Type (0, 1), BuildingBlock: MIFKUJ_clean_linker_0, # of connection points: 2
#     Edge 29, Type (0, 1), BuildingBlock: MIFKUJ_clean_linker_0, # of connection points: 2
#     Edge 30, Type (0, 1), BuildingBlock: MIFKUJ_clean_linker_0, # of connection points: 2
#     Edge 31, Type (0, 1), BuildingBlock: MIFKUJ_clean_linker_0, # of connection points: 2
#     Edge 32, Type (0, 1), BuildingBlock: MIFKUJ_clean_linker_0, # of connection points: 2
#     Edge 33, Type (0, 1), BuildingBlock: MIFKUJ_clean_linker_0, # of connection points: 2
#     Edge 34, Type (0, 1), BuildingBlock: MIFKUJ_clean_linker_0, # of connection points: 2
#     Edge 35, Type (0, 1), BuildingBlock: MIFKUJ_clean_linker_0, # of connection points: 2
# Relax obj value: 0.069
# Max RMSD: 0.108
# Mean RMSD: 0.085
data_MOF--net-zzz--node1-CUKXOW_clean_sbu_0--node2-CUQRIR_clean_linker_1--edge1-MIFKUJ_clean_linker_0
_symmetry_space_group_name_H-M    P1
_symmetry_Int_Tables_number       1
_symmetry_cell_setting            triclinic
loop_
_symmetry_equiv_pos_as_xyz
'x, y, z'
_cell_length_a     62.718729
_cell_length_b     64.85617
_cell_length_c     18.499479
_cell_angle_alpha  92.995049
_cell_angle_beta   86.92237
_cell_angle_gamma 93.596683
loop_
_atom_site_label
_atom_site_type_symbol
_atom_site_fract_x
_atom_site_fract_y
_atom_site_fract_z
_atom_type_partial_charge
C0 C 0.74916 0.53768 0.14461 0.0
N1 N 0.77055 0.53567 0.13914 0.0
N2 N 0.74167 0.54048 0.07865 0.0
C3 C 0.73548 0.53541 0.21327 0.0
C4 C 0.75925 0.53994 0.03291 0.0
N5 N 0.77678 0.53685 0.06955 0.0
C6 C 0.75902 0.54145 0.95195 0.0
H7 H 0.73666 0.51964 0.2327 0.0
H8 H 0.71849 0.53809 0.20523 0.0
H9 H 0.74146 0.54659 0.25599 0.0
H10 H 0.74804 0.55316 0.93782 0.0
H11 H 0.75321 0.52629 0.92744 0.0
H12 H 0.77517 0.54573 0.92795 0.0
C13 C 0.9499 0.75887 0.06407 0.0
N14 N 0.95112 0.77966 0.05928 0.0
N15 N 0.95189 0.74935 0.99727 0.0
C16 C 0.94663 0.74786 0.13362 0.0
C17 C 0.95457 0.76514 0.95186 0.0
N18 N 0.9539 0.78352 0.98951 0.0
C19 C 0.96008 0.76256 0.87178 0.0
H20 H 0.96243 0.7459 0.15578 0.0
H21 H 0.93854 0.73232 0.12409 0.0
H22 H 0.93704 0.75703 0.17432 0.0
H23 H 0.94555 0.75665 0.84381 0.0
H24 H 0.97234 0.751 0.86148 0.0
H25 H 0.966 0.77734 0.84817 0.0
C26 C 0.74776 0.96691 0.12526 0.0
N27 N 0.72684 0.96996 0.11715 0.0
N28 N 0.75906 0.96822 0.06102 0.0
C29 C 0.75704 0.9616 0.19469 0.0
C30 C 0.74438 0.97236 0.0136 0.0
N31 N 0.72477 0.97324 0.04746 0.0
C32 C 0.74967 0.97781 0.93624 0.0
H33 H 0.76266 0.97607 0.22424 0.0
H34 H 0.77093 0.95193 0.18336 0.0
H35 H 0.74483 0.95326 0.2298 0.0
H36 H 0.74902 0.96343 0.90102 0.0
H37 H 0.76602 0.98531 0.93015 0.0
H38 H 0.7381 0.98838 0.91752 0.0
C39 C 0.57105 0.75455 0.13107 0.0
N40 N 0.56945 0.73362 0.12373 0.0
N41 N 0.57258 0.76293 0.06514 0.0
C42 C 0.57163 0.76683 0.20212 0.0
C43 C 0.57168 0.74632 0.01756 0.0
N44 N 0.57007 0.7286 0.05313 0.0
C45 C 0.56954 0.74751 0.93714 0.0
H46 H 0.55506 0.77001 0.22157 0.0
H47 H 0.58084 0.78186 0.19557 0.0
H48 H 0.57887 0.75805 0.24348 0.0
H49 H 0.58542 0.75198 0.91136 0.0
H50 H 0.55844 0.75954 0.92632 0.0
H51 H 0.56368 0.73253 0.91154 0.0
C52 C 0.26453 0.4827 0.18352 0.0
N53 N 0.24316 0.48461 0.18589 0.0
N54 N 0.27107 0.47953 0.25043 0.0
C55 C 0.27903 0.48505 0.11675 0.0
C56 C 0.25294 0.47976 0.2936 0.0
N57 N 0.23595 0.48293 0.25434 0.0
C58 C 0.25206 0.47775 0.37447 0.0
H59 H 0.2738 0.47359 0.0737 0.0
H60 H 0.29593 0.48281 0.1275 0.0
H61 H 0.27775 0.50067 0.0962 0.0
H62 H 0.25593 0.49316 0.40108 0.0
H63 H 0.26394 0.4671 0.39028 0.0
H64 H 0.23592 0.47199 0.39471 0.0
C65 C 0.04613 0.25445 0.25284 0.0
N66 N 0.04619 0.23371 0.25899 0.0
N67 N 0.04132 0.26401 0.31789 0.0
C68 C 0.04939 0.26522 0.18271 0.0
C69 C 0.03855 0.24848 0.36399 0.0
N70 N 0.04144 0.23006 0.32847 0.0
C71 C 0.0332 0.25134 0.44404 0.0
H72 H 0.06681 0.26798 0.17032 0.0
H73 H 0.04195 0.28033 0.18638 0.0
H74 H 0.04261 0.25543 0.13752 0.0
H75 H 0.01558 0.24967 0.45364 0.0
H76 H 0.03892 0.26694 0.46506 0.0
H77 H 0.04038 0.23943 0.47439 0.0
C78 C 0.26749 0.05744 0.22499 0.0
N79 N 0.28884 0.05661 0.23036 0.0
N80 N 0.25739 0.0576 0.29167 0.0
C81 C 0.25652 0.05802 0.15503 0.0
C82 C 0.2734 0.05659 0.33754 0.0
N83 N 0.29249 0.05613 0.30024 0.0
C84 C 0.27003 0.05341 0.41754 0.0
H85 H 0.2671 0.06605 0.11398 0.0
H86 H 0.24132 0.06591 0.16364 0.0
H87 H 0.25278 0.04195 0.13392 0.0
H88 H 0.25637 0.04202 0.4276 0.0
H89 H 0.26602 0.06828 0.44579 0.0
H90 H 0.28446 0.04804 0.44114 0.0
C91 C 0.45089 0.2564 0.21212 0.0
N92 N 0.45188 0.27734 0.2165 0.0
N93 N 0.44851 0.24886 0.27921 0.0
C94 C 0.45444 0.24338 0.14336 0.0
C95 C 0.44814 0.26597 0.32435 0.0
N96 N 0.45035 0.28331 0.28637 0.0
C97 C 0.44479 0.26561 0.40542 0.0
H98 H 0.43867 0.23741 0.12402 0.0
H99 H 0.46376 0.22991 0.15336 0.0
H100 H 0.46292 0.25246 0.10025 0.0
H101 H 0.46053 0.26574 0.43009 0.0
H102 H 0.4353 0.25136 0.42097 0.0
H103 H 0.43648 0.27938 0.42735 0.0
Tb104 Tb 0.00264 0.98949 0.6175 0.0
C105 C 0.04919 0.01005 0.61176 0.0
Tb106 Tb 0.01314 0.02477 0.73024 0.0
O107 O 0.00563 0.01208 0.53317 0.0
O108 O 0.99472 0.02061 0.63811 0.0
O109 O 0.0367 0.99391 0.5894 0.0
C110 C 0.02459 0.06227 0.78682 0.0
O111 O 0.04297 0.02374 0.66345 0.0
C112 C 0.0168 0.98763 0.77477 0.0
C113 C 0.96808 0.00234 0.74039 0.0
O114 O 0.02585 0.05673 0.71852 0.0
O115 O 0.01662 0.04679 0.82333 0.0
O116 O 0.01369 0.00362 0.81845 0.0
O117 O 0.02051 0.99361 0.71143 0.0
O118 O 0.97869 0.0206 0.74962 0.0
O119 O 0.97587 0.9871 0.6981 0.0
C120 C 0.99025 0.95473 0.5436 0.0
O121 O 0.98144 0.97227 0.54241 0.0
O122 O 0.00608 0.95676 0.58628 0.0
C123 C 0.99965 0.02724 0.57652 0.0
Tb124 Tb 0.503 0.02455 0.63196 0.0
C125 C 0.53729 0.9951 0.5664 0.0
Tb126 Tb 0.50532 0.98262 0.7007 0.0
O127 O 0.53447 0.03438 0.67055 0.0
O128 O 0.51428 0.0138 0.7291 0.0
O129 O 0.52622 0.01132 0.55494 0.0
C130 C 0.51773 0.95003 0.76658 0.0
O131 O 0.53244 0.98252 0.62032 0.0
C132 C 0.47685 0.98341 0.60217 0.0
C133 C 0.47167 0.01257 0.76458 0.0
O134 O 0.53037 0.96343 0.73336 0.0
O135 O 0.49814 0.95507 0.76348 0.0
O136 O 0.47549 0.97039 0.65325 0.0
O137 O 0.49472 0.99321 0.60377 0.0
O138 O 0.48531 0.99901 0.78223 0.0
O139 O 0.47425 0.02246 0.70351 0.0
C140 C 0.49133 0.05771 0.56761 0.0
O141 O 0.50164 0.05814 0.62672 0.0
O142 O 0.48773 0.03866 0.54463 0.0
C143 C 0.53278 0.02259 0.72542 0.0
Tb144 Tb 0.51056 0.5244 0.61976 0.0
C145 C 0.46388 0.50402 0.62596 0.0
Tb146 Tb 0.49915 0.48859 0.72427 0.0
O147 O 0.50566 0.50379 0.52426 0.0
O148 O 0.51439 0.49222 0.62033 0.0
O149 O 0.47602 0.52107 0.61269 0.0
C150 C 0.48902 0.45241 0.78357 0.0
O151 O 0.47036 0.48878 0.66309 0.0
C152 C 0.50112 0.52596 0.78638 0.0
C153 C 0.54577 0.50884 0.71926 0.0
O154 O 0.48058 0.46974 0.80317 0.0
O155 O 0.50309 0.45547 0.73069 0.0
O156 O 0.50343 0.50936 0.82076 0.0
O157 O 0.49539 0.52074 0.72337 0.0
O158 O 0.5336 0.49182 0.73277 0.0
O159 O 0.53917 0.52419 0.68269 0.0
C160 C 0.52084 0.55981 0.55531 0.0
O161 O 0.53215 0.54364 0.55056 0.0
O162 O 0.50367 0.55603 0.59595 0.0
C163 C 0.50816 0.48712 0.55787 0.0
Tb164 Tb 0.98676 0.50784 0.61415 0.0
C165 C 0.01066 0.46767 0.61792 0.0
Tb166 Tb 0.02603 0.50794 0.70793 0.0
O167 O 0.00632 0.50683 0.51279 0.0
O168 O 0.01909 0.51951 0.60745 0.0
O169 O 0.99132 0.47494 0.61848 0.0
C170 C 0.06354 0.50494 0.7672 0.0
O171 O 0.02734 0.47901 0.64244 0.0
C172 C 0.98846 0.5033 0.7763 0.0
C173 C 0.00257 0.54909 0.70353 0.0
O174 O 0.04558 0.4955 0.78783 0.0
O175 O 0.06047 0.51598 0.71259 0.0
O176 O 0.00529 0.51196 0.80569 0.0
O177 O 0.99364 0.49611 0.7138 0.0
O178 O 0.02054 0.54076 0.71883 0.0
O179 O 0.98729 0.53888 0.66646 0.0
C180 C 0.94755 0.50907 0.56482 0.0
O181 O 0.95392 0.51803 0.62488 0.0
O182 O 0.9632 0.49945 0.53292 0.0
C183 C 0.02375 0.51361 0.54293 0.0
H184 H 0.23003 0.02725 0.24094 0.0
H185 H 0.19312 0.01946 0.28683 0.0
H186 H 0.19759 0.07352 0.43272 0.0
H187 H 0.23443 0.08135 0.38597 0.0
H188 H 0.18475 0.0388 0.5025 0.0
H189 H 0.16551 0.07204 0.29161 0.0
H190 H 0.16557 0.07819 0.16121 0.0
H191 H 0.13969 0.01615 0.11846 0.0
H192 H 0.13974 0.00953 0.24859 0.0
H193 H 0.07853 0.04183 0.641 0.0
H194 H 0.11317 0.04913 0.57936 0.0
H195 H 0.10372 0.99422 0.44021 0.0
H196 H 0.06861 0.98682 0.50131 0.0
H197 H 0.11906 0.02755 0.36416 0.0
H198 H 0.13763 0.99449 0.57507 0.0
H199 H 0.13741 0.98833 0.70551 0.0
H200 H 0.16482 0.04982 0.74789 0.0
H201 H 0.16494 0.05646 0.61776 0.0
C202 C 0.22281 0.03777 0.28111 0.0
C203 C 0.23486 0.05493 0.30993 0.0
C204 C 0.20182 0.03329 0.30753 0.0
C205 C 0.19262 0.04593 0.36318 0.0
C206 C 0.20441 0.06355 0.3899 0.0
C207 C 0.22535 0.06804 0.36328 0.0
C208 C 0.17146 0.03986 0.39787 0.0
C209 C 0.17032 0.03663 0.47242 0.0
C210 C 0.15282 0.0363 0.35807 0.0
C211 C 0.15285 0.04022 0.27977 0.0
C212 C 0.16002 0.05964 0.25433 0.0
C213 C 0.15999 0.06323 0.18048 0.0
C214 C 0.1527 0.04755 0.13155 0.0
C215 C 0.14537 0.02827 0.15641 0.0
C216 C 0.14538 0.02459 0.23022 0.0
C217 C 0.08379 0.03113 0.59775 0.0
C218 C 0.0708 0.01361 0.57656 0.0
C219 C 0.10366 0.03536 0.56255 0.0
C220 C 0.11113 0.0221 0.50575 0.0
C221 C 0.09825 0.00462 0.4841 0.0
C222 C 0.07826 0.00036 0.51935 0.0
C223 C 0.13234 0.02679 0.46894 0.0
C224 C 0.13351 0.02967 0.3941 0.0
C225 C 0.15108 0.02999 0.50838 0.0
C226 C 0.15113 0.02602 0.58669 0.0
C227 C 0.14346 0.00675 0.61226 0.0
C228 C 0.14338 0.00317 0.68613 0.0
C229 C 0.15105 0.01869 0.73497 0.0
C230 C 0.15887 0.03782 0.71 0.0
C231 C 0.15897 0.04149 0.63617 0.0
H232 H 0.15097 0.01588 0.79215 0.0
H233 H 0.15268 0.05036 0.07439 0.0
H234 H 0.4786 0.23652 0.36195 0.0
H235 H 0.48323 0.2014 0.39766 0.0
H236 H 0.4293 0.17884 0.27449 0.0
H237 H 0.4244 0.21445 0.24013 0.0
H238 H 0.42821 0.16183 0.40715 0.0
H239 H 0.47826 0.16927 0.20895 0.0
H240 H 0.507 0.1861 0.13266 0.0
H241 H 0.55031 0.18471 0.30413 0.0
H242 H 0.52172 0.16817 0.382 0.0
H243 H 0.46282 0.05869 0.46185 0.0
H244 H 0.45273 0.08919 0.4011 0.0
H245 H 0.49583 0.128 0.53067 0.0
H246 H 0.50559 0.09771 0.59255 0.0
H247 H 0.49981 0.13312 0.37435 0.0
H248 H 0.44668 0.13019 0.57604 0.0
H249 H 0.41714 0.1137 0.65006 0.0
H250 H 0.37924 0.10509 0.46311 0.0
H251 H 0.40867 0.12141 0.38779 0.0
C252 C 0.46765 0.22406 0.34319 0.0
C253 C 0.45106 0.22804 0.299 0.0
C254 C 0.4704 0.204 0.36288 0.0
C255 C 0.45677 0.18745 0.33802 0.0
C256 C 0.44003 0.19139 0.29405 0.0
C257 C 0.43728 0.21159 0.27426 0.0
C258 C 0.46017 0.1662 0.35926 0.0
C259 C 0.44372 0.15532 0.39851 0.0
C260 C 0.48042 0.15773 0.34822 0.0
C261 C 0.49778 0.16757 0.30152 0.0
C262 C 0.49386 0.17268 0.23063 0.0
C263 C 0.51014 0.18216 0.18706 0.0
C264 C 0.53046 0.1865 0.21356 0.0
C265 C 0.53455 0.18133 0.28368 0.0
C266 C 0.51832 0.17188 0.32754 0.0
C267 C 0.47006 0.07376 0.47739 0.0
C268 C 0.48499 0.07594 0.53168 0.0
C269 C 0.46426 0.09112 0.44285 0.0
C270 C 0.47357 0.11078 0.46149 0.0
C271 C 0.48852 0.11292 0.51556 0.0
C272 C 0.49403 0.09566 0.55092 0.0
C273 C 0.46812 0.12922 0.42416 0.0
C274 C 0.4842 0.13949 0.38166 0.0
C275 C 0.44748 0.13693 0.43134 0.0
C276 C 0.42995 0.12681 0.47618 0.0
C277 C 0.43214 0.12458 0.55056 0.0
C278 C 0.4154 0.11534 0.59279 0.0
C279 C 0.39634 0.10837 0.56129 0.0
C280 C 0.39402 0.11052 0.48741 0.0
C281 C 0.41071 0.11979 0.44496 0.0
H282 H 0.38333 0.10142 0.59424 0.0
H283 H 0.54304 0.19383 0.17974 0.0
H284 H 0.28958 0.44777 0.30397 0.0
H285 H 0.32411 0.44945 0.36178 0.0
H286 H 0.33495 0.51329 0.30739 0.0
H287 H 0.30031 0.51151 0.25029 0.0
H288 H 0.3723 0.49044 0.29186 0.0
H289 H 0.31385 0.50369 0.46648 0.0
H290 H 0.27886 0.49508 0.52832 0.0
H291 H 0.30265 0.4397 0.60289 0.0
H292 H 0.3377 0.44782 0.54035 0.0
H293 H 0.44439 0.53134 0.54726 0.0
H294 H 0.41227 0.52467 0.47889 0.0
H295 H 0.40447 0.46288 0.55591 0.0
H296 H 0.43656 0.46938 0.62486 0.0
H297 H 0.36629 0.48177 0.55747 0.0
H298 H 0.42522 0.46897 0.39125 0.0
H299 H 0.46022 0.47654 0.32805 0.0
H300 H 0.4361 0.52946 0.23701 0.0
H301 H 0.401 0.52237 0.30043 0.0
C302 C 0.29963 0.46197 0.30354 0.0
C303 C 0.29251 0.47956 0.27366 0.0
C304 C 0.31923 0.46295 0.33635 0.0
C305 C 0.33191 0.48157 0.33946 0.0
C306 C 0.32538 0.49879 0.30544 0.0
C307 C 0.30571 0.49781 0.27301 0.0
C308 C 0.35095 0.48368 0.38372 0.0
C309 C 0.37101 0.4887 0.34997 0.0
C310 C 0.34924 0.48092 0.45926 0.0
C311 C 0.32832 0.47625 0.49812 0.0
C312 C 0.31157 0.48961 0.49564 0.0
C313 C 0.29174 0.48483 0.53085 0.0
C314 C 0.28851 0.46683 0.56934 0.0
C315 C 0.30515 0.45362 0.57294 0.0
C316 C 0.32501 0.45831 0.53764 0.0
C317 C 0.43575 0.5164 0.55046 0.0
C318 C 0.44309 0.5009 0.59158 0.0
C319 C 0.41745 0.51259 0.511 0.0
C320 C 0.4062 0.49319 0.51159 0.0
C321 C 0.41297 0.47794 0.55469 0.0
C322 C 0.4313 0.48172 0.59418 0.0
C323 C 0.38766 0.48878 0.46579 0.0
C324 C 0.36766 0.48334 0.49927 0.0
C325 C 0.38948 0.49102 0.38994 0.0
C326 C 0.41051 0.49523 0.3511 0.0
C327 C 0.42741 0.48231 0.35818 0.0
C328 C 0.44727 0.4865 0.32227 0.0
C329 C 0.4504 0.5035 0.27873 0.0
C330 C 0.43365 0.51631 0.27082 0.0
C331 C 0.41376 0.51219 0.30665 0.0
H332 H 0.46579 0.50673 0.25099 0.0
H333 H 0.27314 0.46314 0.59652 0.0
H334 H 0.0708 0.29573 0.30586 0.0
H335 H 0.06625 0.33198 0.34744 0.0
H336 H 0.00012 0.3163 0.40927 0.0
H337 H 0.0048 0.2802 0.3677 0.0
H338 H 0.00638 0.35427 0.34256 0.0
H339 H 0.03528 0.31775 0.53278 0.0
H340 H 0.06159 0.29662 0.58377 0.0
H341 H 0.11133 0.34359 0.5407 0.0
H342 H 0.08535 0.36486 0.48819 0.0
H343 H 0.98083 0.43567 0.59528 0.0
H344 H 0.98681 0.40169 0.53632 0.0
H345 H 0.05412 0.41913 0.50534 0.0
H346 H 0.04824 0.45293 0.56488 0.0
H347 H 0.04881 0.38107 0.54991 0.0
H348 H 0.02032 0.4186 0.3655 0.0
H349 H 0.99457 0.43994 0.31241 0.0
H350 H 0.94502 0.39187 0.34107 0.0
H351 H 0.9704 0.37035 0.39536 0.0
C352 C 0.05529 0.30028 0.32728 0.0
C353 C 0.03815 0.28547 0.3343 0.0
C354 C 0.05269 0.32082 0.35112 0.0
C355 C 0.03289 0.32671 0.38195 0.0
C356 C 0.0155 0.31204 0.38562 0.0
C357 C 0.01816 0.29153 0.36231 0.0
C358 C 0.03055 0.34775 0.415 0.0
C359 C 0.01552 0.36013 0.3882 0.0
C360 C 0.04285 0.35546 0.47351 0.0
C361 C 0.05842 0.34279 0.5058 0.0
C362 C 0.05186 0.3235 0.53362 0.0
C363 C 0.06671 0.31151 0.56287 0.0
C364 C 0.08813 0.31873 0.56531 0.0
C365 C 0.09474 0.338 0.53865 0.0
C366 C 0.07996 0.35003 0.50914 0.0
C367 C 0.9969 0.43219 0.57616 0.0
C368 C 0.01412 0.44683 0.58536 0.0
C369 C 0.00029 0.41284 0.54217 0.0
C370 C 0.02088 0.40796 0.51565 0.0
C371 C 0.03811 0.42252 0.52553 0.0
C372 C 0.03476 0.44178 0.55995 0.0
C373 C 0.02449 0.38766 0.47784 0.0
C374 C 0.03976 0.37537 0.50384 0.0
C375 C 0.0125 0.38011 0.41828 0.0
C376 C 0.99723 0.39294 0.38509 0.0
C377 C 0.00389 0.41263 0.36095 0.0
C378 C 0.98937 0.42476 0.33058 0.0
C379 C 0.96817 0.41728 0.32352 0.0
C380 C 0.96145 0.39765 0.34664 0.0
C381 C 0.9759 0.38547 0.37716 0.0
H382 H 0.95694 0.42669 0.3 0.0
H383 H 0.09961 0.30943 0.588 0.0
H384 H 0.78968 0.99204 0.12696 0.0
H385 H 0.82774 0.99546 0.08816 0.0
H386 H 0.81734 0.94742 0.92131 0.0
H387 H 0.77937 0.94378 0.96139 0.0
H388 H 0.85735 0.94625 0.98143 0.0
H389 H 0.81376 0.99574 0.88165 0.0
H390 H 0.7882 0.02325 0.89028 0.0
H391 H 0.83176 0.06239 0.01516 0.0
H392 H 0.85745 0.03495 0.0083 0.0
H393 H 0.93827 0.97067 0.71521 0.0
H394 H 0.90441 0.96347 0.78276 0.0
H395 H 0.91705 0.01745 0.92394 0.0
H396 H 0.95074 0.02514 0.855 0.0
H397 H 0.87728 0.01557 0.88778 0.0
H398 H 0.92241 0.96727 0.9801 0.0
H399 H 0.9483 0.94004 0.96994 0.0
H400 H 0.90299 0.89905 0.85941 0.0
H401 H 0.87684 0.92609 0.86861 0.0
C402 C 0.79576 0.98181 0.08362 0.0
C403 C 0.78179 0.96773 0.04672 0.0
C404 C 0.81739 0.98382 0.06121 0.0
C405 C 0.82528 0.97187 0.00125 0.0
C406 C 0.81159 0.95678 0.96766 0.0
C407 C 0.78997 0.95477 0.99016 0.0
C408 C 0.84692 0.97677 0.96806 0.0
C409 C 0.86174 0.96136 0.96071 0.0
C410 C 0.8527 0.9966 0.94204 0.0
C411 C 0.83742 0.01322 0.94511 0.0
C412 C 0.81783 0.01016 0.91135 0.0
C413 C 0.80332 0.02574 0.9159 0.0
C414 C 0.80833 0.04453 0.95339 0.0
C415 C 0.82789 0.04781 0.98624 0.0
C416 C 0.84243 0.03225 0.98204 0.0
C417 C 0.93386 0.98104 0.76057 0.0
C418 C 0.94721 0.99848 0.77979 0.0
C419 C 0.91455 0.97681 0.79954 0.0
C420 C 0.90838 0.98966 0.85945 0.0
C421 C 0.92154 0.00725 0.87815 0.0
C422 C 0.94076 0.01165 0.83861 0.0
C423 C 0.88787 0.98508 0.90104 0.0
C424 C 0.87314 0.00054 0.90954 0.0
C425 C 0.88227 0.96532 0.92826 0.0
C426 C 0.8977 0.94877 0.92467 0.0
C427 C 0.91798 0.95247 0.95347 0.0
C428 C 0.93271 0.93706 0.94788 0.0
C429 C 0.92733 0.91785 0.9138 0.0
C430 C 0.90714 0.91394 0.88577 0.0
C431 C 0.89233 0.92928 0.89137 0.0
H432 H 0.9388 0.90598 0.9092 0.0
H433 H 0.79708 0.05658 0.95686 0.0
H434 H 0.54207 0.78798 0.11727 0.0
H435 H 0.53503 0.82164 0.07263 0.0
H436 H 0.59058 0.81846 0.92517 0.0
H437 H 0.5982 0.78525 0.973 0.0
H438 H 0.58615 0.85726 0.97101 0.0
H439 H 0.54097 0.80258 0.87084 0.0
H440 H 0.51528 0.77223 0.87267 0.0
H441 H 0.46841 0.8087 0.98773 0.0
H442 H 0.49399 0.83921 0.98775 0.0
H443 H 0.55329 0.92924 0.72994 0.0
H444 H 0.56366 0.89735 0.77972 0.0
H445 H 0.50798 0.89745 0.92762 0.0
H446 H 0.49675 0.92847 0.8736 0.0
H447 H 0.51356 0.85989 0.87855 0.0
H448 H 0.56233 0.91521 0.97619 0.0
H449 H 0.58723 0.94504 0.95052 0.0
H450 H 0.62831 0.90567 0.82075 0.0
H451 H 0.60337 0.87555 0.84489 0.0
C452 C 0.55316 0.79486 0.07729 0.0
C453 C 0.57063 0.78411 0.0483 0.0
C454 C 0.549 0.81393 0.05103 0.0
C455 C 0.56199 0.82233 0.99425 0.0
C456 C 0.58026 0.81223 0.9686 0.0
C457 C 0.58455 0.79327 0.99557 0.0
C458 C 0.55559 0.84073 0.95799 0.0
C459 C 0.57031 0.85779 0.95059 0.0
C460 C 0.535 0.8414 0.93052 0.0
C461 C 0.51947 0.82314 0.92993 0.0
C462 C 0.52524 0.8041 0.89698 0.0
C463 C 0.51069 0.78687 0.89766 0.0
C464 C 0.49024 0.78853 0.93043 0.0
C465 C 0.48427 0.80744 0.96246 0.0
C466 C 0.49879 0.82471 0.96214 0.0
C467 C 0.54332 0.92242 0.77314 0.0
C468 C 0.52437 0.93133 0.79865 0.0
C469 C 0.54929 0.90426 0.80188 0.0
C470 C 0.53694 0.89524 0.85901 0.0
C471 C 0.51786 0.90413 0.88393 0.0
C472 C 0.51151 0.9219 0.85345 0.0
C473 C 0.54387 0.87668 0.89339 0.0
C474 C 0.5293 0.85947 0.89989 0.0
C475 C 0.56472 0.87573 0.91868 0.0
C476 C 0.58093 0.89321 0.91191 0.0
C477 C 0.57677 0.9129 0.94274 0.0
C478 C 0.59084 0.92988 0.928 0.0
C479 C 0.60927 0.92731 0.88332 0.0
C480 C 0.61397 0.90764 0.85496 0.0
C481 C 0.59989 0.8906 0.86928 0.0
H482 H 0.61993 0.94054 0.87064 0.0
H483 H 0.47899 0.77517 0.93088 0.0
H484 H 0.72128 0.5698 0.01716 0.0
H485 H 0.68689 0.56498 0.95971 0.0
H486 H 0.67848 0.50321 0.03769 0.0
H487 H 0.7135 0.50784 0.09135 0.0
H488 H 0.67167 0.50122 0.90346 0.0
H489 H 0.64684 0.54455 0.10075 0.0
H490 H 0.64447 0.57465 0.18716 0.0
H491 H 0.63625 0.61392 0.01222 0.0
H492 H 0.63899 0.58414 0.92451 0.0
H493 H 0.56401 0.48258 0.80572 0.0
H494 H 0.59747 0.48849 0.86684 0.0
H495 H 0.60929 0.54694 0.76639 0.0
H496 H 0.57554 0.5414 0.70609 0.0
H497 H 0.61498 0.55109 0.90767 0.0
H498 H 0.63865 0.5051 0.7138 0.0
H499 H 0.63753 0.4734 0.63411 0.0
H500 H 0.64342 0.43659 0.81748 0.0
H501 H 0.64429 0.46805 0.89845 0.0
C502 C 0.71182 0.55537 0.02263 0.0
C503 C 0.71987 0.53913 0.05787 0.0
C504 C 0.69213 0.55263 0.99041 0.0
C505 C 0.67998 0.53372 0.99441 0.0
C506 C 0.68757 0.5179 0.03349 0.0
C507 C 0.7074 0.52057 0.0647 0.0
C508 C 0.66047 0.52976 0.95236 0.0
C509 C 0.65897 0.51189 0.90603 0.0
C510 C 0.64419 0.54396 0.95357 0.0
C511 C 0.64345 0.56212 0.00586 0.0
C512 C 0.64486 0.55965 0.08052 0.0
C513 C 0.64337 0.57666 0.12979 0.0
C514 C 0.64029 0.5962 0.10517 0.0
C515 C 0.63871 0.59879 0.0312 0.0
C516 C 0.64025 0.58185 0.98168 0.0
C517 C 0.57381 0.49659 0.79575 0.0
C518 C 0.56706 0.51149 0.75077 0.0
C519 C 0.59302 0.4999 0.83057 0.0
C520 C 0.60602 0.51804 0.82055 0.0
C521 C 0.59955 0.53277 0.77461 0.0
C522 C 0.58026 0.52955 0.74005 0.0
C523 C 0.62564 0.52218 0.86168 0.0
C524 C 0.62736 0.54021 0.90677 0.0
C525 C 0.64175 0.50786 0.86097 0.0
C526 C 0.64136 0.48893 0.81227 0.0
C527 C 0.63955 0.49023 0.73722 0.0
C528 C 0.63899 0.47231 0.6918 0.0
C529 C 0.64035 0.45299 0.72073 0.0
C530 C 0.64235 0.45156 0.79514 0.0
C531 C 0.64291 0.46943 0.84081 0.0
H532 H 0.6399 0.43913 0.68549 0.0
H533 H 0.63907 0.60933 0.14344 0.0
H534 H 0.9301 0.72482 0.90144 0.0
H535 H 0.93835 0.68972 0.85769 0.0
H536 H 0.9887 0.69053 0.00822 0.0
H537 H 0.98089 0.72594 0.04967 0.0
H538 H 0.00273 0.67819 0.87622 0.0
H539 H 0.94154 0.66017 0.03268 0.0
H540 H 0.90428 0.66209 0.08116 0.0
H541 H 0.88141 0.6427 0.87225 0.0
H542 H 0.91854 0.64083 0.82235 0.0
H543 H 0.02425 0.57221 0.80717 0.0
H544 H 0.01533 0.60577 0.86275 0.0
H545 H 0.96312 0.60752 0.72092 0.0
H546 H 0.97158 0.57377 0.66636 0.0
H547 H 0.95024 0.61801 0.85457 0.0
H548 H 0.01062 0.63756 0.69626 0.0
H549 H 0.04764 0.63632 0.6448 0.0
H550 H 0.07171 0.65345 0.85387 0.0
H551 H 0.03481 0.65453 0.90679 0.0
C552 C 0.94275 0.71732 0.92543 0.0
C553 C 0.95482 0.72788 0.9789 0.0
C554 C 0.94737 0.69727 0.90094 0.0
C555 C 0.96404 0.68741 0.93015 0.0
C556 C 0.97573 0.69781 0.98511 0.0
C557 C 0.97115 0.71789 0.00929 0.0
C558 C 0.9702 0.66687 0.89993 0.0
C559 C 0.99134 0.66492 0.87266 0.0
C560 C 0.95519 0.64973 0.89344 0.0
C561 C 0.93284 0.65055 0.92363 0.0
C562 C 0.92857 0.65644 0.99697 0.0
C563 C 0.90747 0.6575 0.02473 0.0
C564 C 0.89049 0.65263 0.97973 0.0
C565 C 0.89458 0.64654 0.90699 0.0
C566 C 0.91565 0.64542 0.879 0.0
C567 C 0.01105 0.57985 0.7871 0.0
C568 C 0.99868 0.57033 0.73212 0.0
C569 C 0.00596 0.59906 0.81898 0.0
C570 C 0.98863 0.60924 0.79569 0.0
C571 C 0.97651 0.59992 0.73995 0.0
C572 C 0.98145 0.58065 0.70855 0.0
C573 C 0.98274 0.62937 0.83049 0.0
C574 C 0.96166 0.63124 0.85857 0.0
C575 C 0.99776 0.64649 0.8374 0.0
C576 C 0.01996 0.64592 0.80561 0.0
C577 C 0.02381 0.64091 0.73137 0.0
C578 C 0.04477 0.64026 0.70192 0.0
C579 C 0.06202 0.64475 0.74608 0.0
C580 C 0.05834 0.64995 0.81975 0.0
C581 C 0.0374 0.6506 0.84949 0.0
H582 H 0.07823 0.64423 0.72318 0.0
H583 H 0.87417 0.65346 0.00131 0.0
H584 H 0.07287 0.2081 0.37341 0.0
H585 H 0.06831 0.17651 0.44325 0.0
H586 H 0.99981 0.17806 0.43442 0.0
H587 H 0.00458 0.20978 0.36705 0.0
H588 H 0.01096 0.16337 0.55949 0.0
H589 H 0.03065 0.16274 0.31133 0.0
H590 H 0.05405 0.1715 0.19402 0.0
H591 H 0.10172 0.10621 0.27056 0.0
H592 H 0.07382 0.1091 0.38632 0.0
H593 H 0.97231 0.05813 0.58583 0.0
H594 H 0.98051 0.09431 0.5574 0.0
H595 H 0.04714 0.08165 0.51767 0.0
H596 H 0.03822 0.04517 0.5366 0.0
H597 H 0.03773 0.10224 0.42032 0.0
H598 H 0.02166 0.11304 0.67989 0.0
H599 H 0.9989 0.11047 0.79299 0.0
H600 H 0.94977 0.14126 0.69668 0.0
H601 H 0.97221 0.144 0.58348 0.0
C602 C 0.05695 0.20136 0.3858 0.0
C603 C 0.03905 0.2104 0.3614 0.0
C604 C 0.05433 0.18367 0.42684 0.0
C605 C 0.03375 0.1745 0.44218 0.0
C606 C 0.01585 0.18462 0.42263 0.0
C607 C 0.01853 0.20233 0.38234 0.0
C608 C 0.03052 0.15303 0.46753 0.0
C609 C 0.01729 0.15002 0.5301 0.0
C610 C 0.03851 0.1354 0.42782 0.0
C611 C 0.05163 0.13655 0.35839 0.0
C612 C 0.04512 0.15476 0.3021 0.0
C613 C 0.05908 0.15916 0.22382 0.0
C614 C 0.08962 0.13374 0.20066 0.0
C615 C 0.08987 0.11765 0.27155 0.0
C616 C 0.07183 0.11958 0.34394 0.0
C617 C 0.98864 0.06324 0.57071 0.0
C618 C 0.00466 0.04908 0.56297 0.0
C619 C 0.99344 0.08399 0.55576 0.0
C620 C 0.0146 0.09105 0.5369 0.0
C621 C 0.03067 0.07676 0.53176 0.0
C622 C 0.02564 0.0559 0.54286 0.0
C623 C 0.01996 0.11273 0.51618 0.0
C624 C 0.03285 0.11569 0.45274 0.0
C625 C 0.01209 0.13023 0.55552 0.0
C626 C 0.99855 0.12852 0.62333 0.0
C627 C 0.00596 0.11909 0.68302 0.0
C628 C 0.99314 0.11763 0.74697 0.0
C629 C 0.97288 0.12553 0.75179 0.0
C630 C 0.96543 0.13505 0.69279 0.0
C631 C 0.97822 0.13661 0.62882 0.0
H632 H 0.96301 0.12441 0.80141 0.0
H633 H 0.10155 0.13175 0.15588 0.0
H634 H 0.30751 0.01859 0.28072 0.0
H635 H 0.3404 0.00687 0.3267 0.0
H636 H 0.35428 0.06797 0.42372 0.0
H637 H 0.32082 0.07934 0.37889 0.0
H638 H 0.38079 0.01723 0.30426 0.0
H639 H 0.38078 0.0623 0.5832 0.0
H640 H 0.35525 0.07803 0.67278 0.0
H641 H 0.30469 0.03606 0.59677 0.0
H642 H 0.32998 0.01985 0.50782 0.0
H643 H 0.47816 0.0041 0.47738 0.0
H644 H 0.44781 0.01751 0.42032 0.0
H645 H 0.40438 0.98705 0.57565 0.0
H646 H 0.43473 0.97496 0.63541 0.0
H647 H 0.3936 0.02407 0.56682 0.0
H648 H 0.41223 0.96994 0.39218 0.0
H649 H 0.4351 0.9506 0.30351 0.0
H650 H 0.44406 0.00374 0.17374 0.0
H651 H 0.42158 0.02354 0.26235 0.0
C652 C 0.31769 0.02936 0.312 0.0
C653 C 0.31189 0.04968 0.32718 0.0
C654 C 0.33645 0.02279 0.3378 0.0
C655 C 0.34972 0.0365 0.37908 0.0
C656 C 0.34411 0.05705 0.39289 0.0
C657 C 0.32515 0.06355 0.36753 0.0
C658 C 0.36903 0.02889 0.4091 0.0
C659 C 0.38368 0.0188 0.36165 0.0
C660 C 0.3726 0.0307 0.4841 0.0
C661 C 0.35722 0.04015 0.53791 0.0
C662 C 0.36421 0.05645 0.58563 0.0
C663 C 0.34979 0.06542 0.63638 0.0
C664 C 0.32834 0.05813 0.64016 0.0
C665 C 0.32129 0.04177 0.59353 0.0
C666 C 0.33566 0.03269 0.54291 0.0
C667 C 0.4621 0.00052 0.49951 0.0
C668 C 0.45872 0.98904 0.56171 0.0
C669 C 0.44477 0.0079 0.46633 0.0
C670 C 0.42377 0.00331 0.4937 0.0
C671 C 0.42043 0.99096 0.55393 0.0
C672 C 0.43775 0.9839 0.58767 0.0
C673 C 0.40525 0.01206 0.4622 0.0
C674 C 0.39083 0.02257 0.50933 0.0
C675 C 0.4016 0.01011 0.3872 0.0
C676 C 0.41548 0.99833 0.33456 0.0
C677 C 0.4193 0.9776 0.34525 0.0
C678 C 0.43217 0.96654 0.29492 0.0
C679 C 0.44116 0.97599 0.23331 0.0
C680 C 0.43722 0.99649 0.22175 0.0
C681 C 0.42442 0.00764 0.27202 0.0
H682 H 0.45104 0.96738 0.19427 0.0
H683 H 0.31719 0.06511 0.67941 0.0
H684 H 0.4296 0.31629 0.24972 0.0
H685 H 0.43579 0.35244 0.29554 0.0
H686 H 0.48321 0.33364 0.43465 0.0
H687 H 0.47791 0.29788 0.38641 0.0
H688 H 0.44979 0.36038 0.50242 0.0
H689 H 0.50577 0.35894 0.30515 0.0
H690 H 0.52099 0.35477 0.17978 0.0
H691 H 0.47327 0.39219 0.10543 0.0
H692 H 0.45807 0.39694 0.23089 0.0
H693 H 0.51758 0.44927 0.60166 0.0
H694 H 0.50141 0.41538 0.56171 0.0
H695 H 0.46283 0.44514 0.41657 0.0
H696 H 0.47825 0.47893 0.45848 0.0
H697 H 0.48583 0.41413 0.34977 0.0
H698 H 0.44048 0.42563 0.55545 0.0
H699 H 0.42807 0.43298 0.68196 0.0
H700 H 0.45225 0.37632 0.74339 0.0
H701 H 0.46627 0.36929 0.61838 0.0
C702 C 0.44137 0.31998 0.28987 0.0
C703 C 0.45309 0.30434 0.31541 0.0
C704 C 0.44484 0.34051 0.31592 0.0
C705 C 0.45984 0.34557 0.36857 0.0
C706 C 0.47142 0.32995 0.39449 0.0
C707 C 0.46825 0.30956 0.36751 0.0
C708 C 0.46359 0.36715 0.39683 0.0
C709 C 0.45785 0.3722 0.46969 0.0
C710 C 0.47318 0.38261 0.35279 0.0
C711 C 0.48071 0.3781 0.27692 0.0
C712 C 0.49839 0.36605 0.26186 0.0
C713 C 0.50715 0.3638 0.19106 0.0
C714 C 0.49816 0.37331 0.13486 0.0
C715 C 0.48025 0.38492 0.14914 0.0
C716 C 0.47163 0.38748 0.2201 0.0
C717 C 0.50522 0.44853 0.56288 0.0
C718 C 0.49894 0.46663 0.53395 0.0
C719 C 0.49608 0.42923 0.5398 0.0
C720 C 0.48079 0.42782 0.4867 0.0
C721 C 0.47455 0.44593 0.45775 0.0
C722 C 0.48348 0.46517 0.48138 0.0
C723 C 0.47276 0.40739 0.45666 0.0
C724 C 0.47755 0.40254 0.38306 0.0
C725 C 0.46213 0.39225 0.50039 0.0
C726 C 0.45479 0.39705 0.57704 0.0
C727 C 0.44376 0.41498 0.59607 0.0
C728 C 0.43643 0.41912 0.66775 0.0
C729 C 0.43954 0.40523 0.72084 0.0
C730 C 0.45006 0.3872 0.70238 0.0
C731 C 0.45787 0.38321 0.63116 0.0
H732 H 0.43374 0.40838 0.77623 0.0
H733 H 0.50513 0.37169 0.08034 0.0
H734 H 0.20063 0.46187 0.20593 0.0
H735 H 0.16339 0.46626 0.24982 0.0
H736 H 0.18518 0.51311 0.40764 0.0
H737 H 0.22223 0.50943 0.36137 0.0
H738 H 0.15591 0.47899 0.46142 0.0
H739 H 0.16176 0.53169 0.28048 0.0
H740 H 0.16795 0.54542 0.15871 0.0
H741 H 0.12308 0.49897 0.07293 0.0
H742 H 0.11644 0.48511 0.19445 0.0
H743 H 0.06218 0.53025 0.58839 0.0
H744 H 0.09797 0.52184 0.53945 0.0
H745 H 0.06939 0.4813 0.37437 0.0
H746 H 0.03377 0.48886 0.42518 0.0
H747 H 0.10125 0.50868 0.32025 0.0
H748 H 0.08908 0.46132 0.50398 0.0
H749 H 0.08117 0.44722 0.62418 0.0
H750 H 0.13836 0.47847 0.70201 0.0
H751 H 0.14593 0.49398 0.58422 0.0
C752 C 0.19734 0.47321 0.24947 0.0
C753 C 0.21417 0.48518 0.28096 0.0
C754 C 0.17618 0.47569 0.27447 0.0
C755 C 0.17165 0.48997 0.33197 0.0
C756 C 0.18844 0.50194 0.36343 0.0
C757 C 0.20952 0.49973 0.33752 0.0
C758 C 0.14946 0.49205 0.36107 0.0
C759 C 0.14394 0.48575 0.43133 0.0
C760 C 0.13378 0.49993 0.31996 0.0
C761 C 0.13875 0.50729 0.24624 0.0
C762 C 0.15341 0.52427 0.23545 0.0
C763 C 0.15687 0.53215 0.16664 0.0
C764 C 0.14592 0.52305 0.10818 0.0
C765 C 0.13155 0.50598 0.11827 0.0
C766 C 0.12786 0.49817 0.18713 0.0
C767 C 0.06362 0.51918 0.54287 0.0
C768 C 0.04532 0.50985 0.51161 0.0
C769 C 0.08399 0.51451 0.51461 0.0
C770 C 0.08626 0.50077 0.45382 0.0
C771 C 0.06795 0.49187 0.42147 0.0
C772 C 0.04765 0.49628 0.45038 0.0
C773 C 0.10773 0.49629 0.42214 0.0
C774 C 0.11309 0.50193 0.35094 0.0
C775 C 0.12315 0.4875 0.46236 0.0
C776 C 0.11786 0.47923 0.53515 0.0
C777 C 0.09965 0.46577 0.54723 0.0
C778 C 0.09519 0.45753 0.61512 0.0
C779 C 0.10901 0.46227 0.67106 0.0
C780 C 0.12741 0.47515 0.65914 0.0
C781 C 0.13172 0.4838 0.59193 0.0
H782 H 0.10552 0.45584 0.72343 0.0
H783 H 0.14846 0.52931 0.05521 0.0
H784 H 0.92945 0.81152 0.93836 0.0
H785 H 0.9417 0.8458 0.89577 0.0
H786 H 0.00682 0.83314 0.93488 0.0
H787 H 0.99417 0.79943 0.98053 0.0
H788 H 0.00105 0.86938 0.98214 0.0
H789 H 0.98713 0.83282 0.75919 0.0
H790 H 0.96737 0.81163 0.66731 0.0
H791 H 0.92074 0.85736 0.66741 0.0
H792 H 0.94009 0.87873 0.75997 0.0
H793 H 0.02759 0.95266 0.69675 0.0
H794 H 0.01808 0.91672 0.72707 0.0
H795 H 0.9881 0.93826 0.9301 0.0
H796 H 0.99684 0.97409 0.89869 0.0
H797 H 0.97899 0.89672 0.75391 0.0
H798 H 0.00081 0.90289 0.06073 0.0
H799 H 0.02817 0.92071 0.13659 0.0
H800 H 0.06903 0.9318 0.94759 0.0
H801 H 0.04259 0.91311 0.8708 0.0
C802 C 0.94632 0.81628 0.93756 0.0
C803 C 0.96099 0.80324 0.96254 0.0
C804 C 0.95336 0.83567 0.91282 0.0
C805 C 0.97524 0.842 0.91126 0.0
C806 C 0.98987 0.82868 0.93568 0.0
C807 C 0.98276 0.80949 0.96144 0.0
C808 C 0.98287 0.86279 0.88715 0.0
C809 C 0.99618 0.87533 0.93227 0.0
C810 C 0.97706 0.87039 0.82097 0.0
C811 C 0.96496 0.85728 0.76707 0.0
C812 C 0.97253 0.83826 0.74023 0.0
C813 C 0.96144 0.82624 0.68787 0.0
C814 C 0.94279 0.83313 0.66163 0.0
C815 C 0.93518 0.85203 0.68782 0.0
C816 C 0.94621 0.86411 0.7402 0.0
C817 C 0.01865 0.94965 0.74713 0.0
C818 C 0.01258 0.96604 0.79471 0.0
C819 C 0.01335 0.92919 0.76461 0.0
C820 C 0.00235 0.92489 0.83072 0.0
C821 C 0.99665 0.94128 0.87894 0.0
C822 C 0.00172 0.9617 0.86106 0.0
C823 C 0.99676 0.90326 0.84964 0.0
C824 C 0.98376 0.89068 0.80383 0.0
C825 C 0.00361 0.89529 0.91362 0.0
C826 C 0.01944 0.90693 0.95966 0.0
C827 C 0.01562 0.90912 0.03523 0.0
C828 C 0.03098 0.91934 0.07847 0.0
C829 C 0.05013 0.92766 0.04688 0.0
C830 C 0.0541 0.92553 0.97197 0.0
C831 C 0.03894 0.91508 0.92854 0.0
H832 H 0.06196 0.93559 0.08054 0.0
H833 H 0.93428 0.82384 0.62088 0.0
H834 H 0.69758 0.00279 0.09116 0.0
H835 H 0.66362 0.0088 0.03765 0.0
H836 H 0.67505 0.96087 0.87315 0.0
H837 H 0.70833 0.95376 0.92913 0.0
H838 H 0.66342 0.00754 0.83959 0.0
H839 H 0.64592 0.94626 0.97313 0.0
H840 H 0.64092 0.92494 0.07907 0.0
H841 H 0.59496 0.96574 0.17548 0.0
H842 H 0.60024 0.98786 0.07099 0.0
H843 H 0.56952 0.01054 0.65834 0.0
H844 H 0.60065 0.99892 0.71257 0.0
H845 H 0.57069 0.01028 0.92571 0.0
H846 H 0.53802 0.01896 0.86959 0.0
H847 H 0.59235 0.98157 0.93866 0.0
H848 H 0.61253 0.04536 0.82664 0.0
H849 H 0.61621 0.06934 0.72688 0.0
H850 H 0.6559 0.02752 0.60231 0.0
H851 H 0.6524 0.00328 0.7012 0.0
C852 C 0.69262 0.99332 0.04439 0.0
C853 C 0.70531 0.9776 0.01469 0.0
C854 C 0.67332 0.99679 0.01409 0.0
C855 C 0.66674 0.98503 0.95279 0.0
C856 C 0.67981 0.96992 0.92114 0.0
C857 C 0.69879 0.96598 0.95269 0.0
C858 C 0.64659 0.98914 0.92009 0.0
C859 C 0.64784 0.00166 0.86049 0.0
C860 C 0.62637 0.98211 0.94993 0.0
C861 C 0.62397 0.96918 0.01449 0.0
C862 C 0.63527 0.95118 0.01766 0.0
C863 C 0.63219 0.93877 0.07728 0.0
C864 C 0.6177 0.94403 0.13416 0.0
C865 C 0.60623 0.9617 0.13143 0.0
C866 C 0.60929 0.97421 0.07197 0.0
C867 C 0.56939 0.01006 0.71662 0.0
C868 C 0.55141 0.01552 0.75984 0.0
C869 C 0.58745 0.0038 0.748 0.0
C870 C 0.58867 0.00448 0.82376 0.0
C871 C 0.57042 0.00969 0.86716 0.0
C872 C 0.55178 0.01478 0.8353 0.0
C873 C 0.60894 0.99997 0.85727 0.0
C874 C 0.60784 0.98749 0.91747 0.0
C875 C 0.62936 0.00756 0.82966 0.0
C876 C 0.63204 0.02243 0.77106 0.0
C877 C 0.62202 0.04128 0.77793 0.0
C878 C 0.62408 0.05492 0.72155 0.0
C879 C 0.63624 0.04994 0.65824 0.0
C880 C 0.64649 0.03137 0.65137 0.0
C881 C 0.64452 0.0177 0.70763 0.0
H882 H 0.63776 0.06049 0.61456 0.0
H883 H 0.61533 0.93439 0.18028 0.0
H884 H 0.5963 0.70193 0.98403 0.0
H885 H 0.58602 0.66695 0.93376 0.0
H886 H 0.52018 0.67614 0.00117 0.0
H887 H 0.53072 0.71047 0.05339 0.0
H888 H 0.56824 0.63323 0.99522 0.0
H889 H 0.48705 0.65229 0.88419 0.0
H890 H 0.47103 0.68192 0.83419 0.0
H891 H 0.53344 0.70692 0.76599 0.0
H892 H 0.5498 0.67717 0.81371 0.0
H893 H 0.50032 0.54132 0.92669 0.0
H894 H 0.51295 0.57619 0.97121 0.0
H895 H 0.5305 0.59215 0.75154 0.0
H896 H 0.51873 0.55749 0.70889 0.0
H897 H 0.50938 0.62243 0.826 0.0
H898 H 0.56322 0.57602 0.86055 0.0
H899 H 0.57709 0.54558 0.91077 0.0
H900 H 0.57495 0.57538 0.12331 0.0
H901 H 0.55872 0.60512 0.07609 0.0
C902 C 0.57971 0.69619 0.98795 0.0
C903 C 0.56418 0.70847 0.0222 0.0
C904 C 0.57386 0.67633 0.95982 0.0
C905 C 0.55235 0.66884 0.96431 0.0
C906 C 0.53688 0.68141 0.9979 0.0
C907 C 0.54279 0.70101 0.02716 0.0
C908 C 0.54586 0.64796 0.93377 0.0
C909 C 0.55541 0.63075 0.95813 0.0
C910 C 0.52939 0.64493 0.88436 0.0
C911 C 0.51966 0.66254 0.85306 0.0
C912 C 0.49734 0.664 0.85789 0.0
C913 C 0.48821 0.68082 0.82995 0.0
C914 C 0.50122 0.69629 0.79699 0.0
C915 C 0.52339 0.69492 0.79155 0.0
C916 C 0.5326 0.67807 0.81896 0.0
C917 C 0.50669 0.55243 0.88815 0.0
C918 C 0.50778 0.54704 0.81353 0.0
C919 C 0.51387 0.57226 0.91354 0.0
C920 C 0.52249 0.58679 0.8645 0.0
C921 C 0.52352 0.58134 0.7902 0.0
C922 C 0.51642 0.56163 0.76535 0.0
C923 C 0.53114 0.60752 0.88962 0.0
C924 C 0.52215 0.62476 0.86344 0.0
C925 C 0.54834 0.61044 0.93663 0.0
C926 C 0.55897 0.59274 0.96476 0.0
C927 C 0.56508 0.57598 0.91835 0.0
C928 C 0.5734 0.55877 0.94637 0.0
C929 C 0.57708 0.55858 0.02006 0.0
C930 C 0.57204 0.57549 0.0662 0.0
C931 C 0.5629 0.59241 0.03895 0.0
H932 H 0.58388 0.54535 0.04134 0.0
H933 H 0.49412 0.70934 0.77565 0.0
H934 H 0.81394 0.55606 0.11032 0.0
H935 H 0.85 0.54891 0.06158 0.0
H936 H 0.82305 0.50334 0.90855 0.0
H937 H 0.78727 0.50902 0.96235 0.0
H938 H 0.85635 0.48942 0.95456 0.0
H939 H 0.84255 0.55541 0.86281 0.0
H940 H 0.83213 0.59154 0.87441 0.0
H941 H 0.88436 0.60772 0.0115 0.0
H942 H 0.89501 0.5717 0.00095 0.0
H943 H 0.95143 0.48571 0.72283 0.0
H944 H 0.9148 0.4909 0.77083 0.0
H945 H 0.93959 0.53053 0.94546 0.0
H946 H 0.97604 0.52572 0.89703 0.0
H947 H 0.90725 0.54743 0.88392 0.0
H948 H 0.92077 0.48131 0.97498 0.0
H949 H 0.93084 0.44508 0.96423 0.0
H950 H 0.87878 0.42917 0.82625 0.0
H951 H 0.86856 0.46538 0.83548 0.0
C952 C 0.81585 0.54446 0.0666 0.0
C953 C 0.79793 0.53334 0.039 0.0
C954 C 0.83636 0.54056 0.0382 0.0
C955 C 0.83924 0.52606 0.97985 0.0
C956 C 0.82128 0.51476 0.95299 0.0
C957 C 0.80085 0.5182 0.98293 0.0
C958 C 0.86094 0.52251 0.94722 0.0
C959 C 0.86733 0.50211 0.93805 0.0
C960 C 0.8755 0.53904 0.92687 0.0
C961 C 0.86949 0.56084 0.93143 0.0
C962 C 0.85179 0.56669 0.89546 0.0
C963 C 0.84585 0.58715 0.90184 0.0
C964 C 0.85755 0.60192 0.94375 0.0
C965 C 0.87531 0.59629 0.97897 0.0
C966 C 0.88134 0.57587 0.97267 0.0
C967 C 0.94898 0.49548 0.7715 0.0
C968 C 0.96646 0.50536 0.80625 0.0
C969 C 0.92812 0.49837 0.79899 0.0
C970 C 0.92452 0.51101 0.86195 0.0
C971 C 0.94203 0.52075 0.89678 0.0
C972 C 0.96282 0.5179 0.86931 0.0
C973 C 0.90255 0.51442 0.89142 0.0
C974 C 0.89615 0.53478 0.89996 0.0
C975 C 0.88796 0.49786 0.91069 0.0
C976 C 0.89403 0.47608 0.90536 0.0
C977 C 0.91157 0.47011 0.94191 0.0
C978 C 0.91729 0.44958 0.93618 0.0
C979 C 0.90549 0.43484 0.89443 0.0
C980 C 0.88792 0.4406 0.85849 0.0
C981 C 0.88214 0.46112 0.86401 0.0
H982 H 0.90994 0.41895 0.89006 0.0
H983 H 0.85284 0.61772 0.94891 0.0
H984 H 0.01645 0.20612 0.20501 0.0
H985 H 0.0211 0.18202 0.09831 0.0
H986 H 0.08643 0.20587 0.06633 0.0
H987 H 0.08184 0.22948 0.17385 0.0
H988 H 0.04205 0.19157 0.94353 0.0
H989 H 0.09998 0.17772 0.11515 0.0
H990 H 0.10726 0.1807 0.25734 0.0
H991 H 0.04563 0.1133 0.25135 0.0
H992 H 0.04611 0.12114 0.10741 0.0
H993 H 0.05174 0.0916 0.72465 0.0
H994 H 0.06413 0.12529 0.77956 0.0
H995 H 0.0255 0.11239 0.97385 0.0
H996 H 0.01362 0.07867 0.92016 0.0
H997 H 0.07045 0.12417 0.99073 0.0
H998 H 0.00361 0.16598 0.90207 0.0
H999 H 0.98347 0.17495 0.79822 0.0
H1000 H 0.04016 0.17108 0.65847 0.0
H1001 H 0.06064 0.16237 0.76184 0.0
C1002 C 0.03188 0.20576 0.17595 0.0
C1003 C 0.04918 0.21865 0.19973 0.0
C1004 C 0.03444 0.19236 0.11434 0.0
C1005 C 0.05462 0.19114 0.07738 0.0
C1006 C 0.07125 0.20546 0.09713 0.0
C1007 C 0.06866 0.21886 0.15846 0.0
C1008 C 0.05803 0.17466 0.01943 0.0
C1009 C 0.04877 0.177 0.95327 0.0
C1010 C 0.06681 0.15543 0.03203 0.0
C1011 C 0.07297 0.14999 0.10456 0.0
C1012 C 0.0907 0.16691 0.14839 0.0
C1013 C 0.09567 0.16893 0.23805 0.0
C1014 C 0.08289 0.15262 0.29828 0.0
C1015 C 0.05649 0.12588 0.23165 0.0
C1016 C 0.05709 0.13029 0.14108 0.0
C1017 C 0.04584 0.09611 0.77892 0.0
C1018 C 0.03169 0.08268 0.81831 0.0
C1019 C 0.05276 0.1154 0.80984 0.0
C1020 C 0.04544 0.12147 0.88022 0.0
C1021 C 0.03121 0.10803 0.91918 0.0
C1022 C 0.02451 0.08876 0.88873 0.0
C1023 C 0.05352 0.14094 0.91733 0.0
C1024 C 0.06497 0.13918 0.97941 0.0
C1025 C 0.04606 0.16028 0.90266 0.0
C1026 C 0.03351 0.1632 0.83914 0.0
C1027 C 0.01167 0.16681 0.84892 0.0
C1028 C 0.00025 0.17201 0.79038 0.0
C1029 C 0.01054 0.17366 0.72191 0.0
C1030 C 0.0322 0.16977 0.71154 0.0
C1031 C 0.0437 0.16462 0.77002 0.0
H1032 H 0.00169 0.17798 0.67703 0.0
H1033 H 0.08705 0.15483 0.35492 0.0
H1034 H 0.325 0.08038 0.21204 0.0
H1035 H 0.35562 0.07313 0.12851 0.0
H1036 H 0.3201 0.01959 0.03829 0.0
H1037 H 0.28969 0.02669 0.12342 0.0
H1038 H 0.3595 0.0103 0.07165 0.0
H1039 H 0.3297 0.06266 0.94111 0.0
H1040 H 0.31563 0.09668 0.92476 0.0
H1041 H 0.37578 0.12684 0.98127 0.0
H1042 H 0.39013 0.093 0.99885 0.0
H1043 H 0.43451 0.02699 0.7259 0.0
H1044 H 0.40286 0.0341 0.80268 0.0
H1045 H 0.43415 0.01547 0.98895 0.0
H1046 H 0.46579 0.00747 0.91108 0.0
H1047 H 0.39611 0.06057 0.9064 0.0
H1048 H 0.3964 0.99779 0.11658 0.0
H1049 H 0.4084 0.96258 0.12639 0.0
H1050 H 0.40407 0.95102 0.89684 0.0
H1051 H 0.39159 0.98598 0.88582 0.0
C1052 C 0.3237 0.06735 0.17314 0.0
C1053 C 0.30503 0.05427 0.17294 0.0
C1054 C 0.34112 0.06319 0.12563 0.0
C1055 C 0.3401 0.04588 0.07685 0.0
C1056 C 0.3212 0.03306 0.07537 0.0
C1057 C 0.30376 0.03725 0.12304 0.0
C1058 C 0.35912 0.04065 0.02991 0.0
C1059 C 0.3675 0.02125 0.03528 0.0
C1060 C 0.3695 0.05493 0.98247 0.0
C1061 C 0.36092 0.0753 0.97193 0.0
C1062 C 0.33987 0.07656 0.95061 0.0
C1063 C 0.33186 0.09581 0.941 0.0
C1064 C 0.34478 0.11391 0.95214 0.0
C1065 C 0.36578 0.11281 0.97273 0.0
C1066 C 0.37387 0.09359 0.98245 0.0
C1067 C 0.4347 0.02439 0.78325 0.0
C1068 C 0.45267 0.01674 0.81259 0.0
C1069 C 0.41656 0.02849 0.82716 0.0
C1070 C 0.41598 0.02526 0.90167 0.0
C1071 C 0.43401 0.01775 0.93141 0.0
C1072 C 0.45212 0.01327 0.88701 0.0
C1073 C 0.39653 0.03009 0.94748 0.0
C1074 C 0.38815 0.04954 0.94252 0.0
C1075 C 0.38595 0.0157 0.99434 0.0
C1076 C 0.39331 0.99459 0.00029 0.0
C1077 C 0.39795 0.98771 0.06823 0.0
C1078 C 0.40485 0.96781 0.074 0.0
C1079 C 0.40713 0.95463 0.01223 0.0
C1080 C 0.40239 0.96128 0.94459 0.0
C1081 C 0.3954 0.98114 0.93854 0.0
H1082 H 0.4125 0.93924 0.01682 0.0
H1083 H 0.33855 0.1288 0.94467 0.0
H1084 H 0.48684 0.30294 0.19915 0.0
H1085 H 0.49312 0.3292 0.10922 0.0
H1086 H 0.43416 0.30826 0.01128 0.0
H1087 H 0.42786 0.28205 0.10275 0.0
H1088 H 0.49912 0.33356 0.97725 0.0
H1089 H 0.41059 0.34826 0.94514 0.0
H1090 H 0.37552 0.34405 0.01157 0.0
H1091 H 0.40639 0.3479 0.21368 0.0
H1092 H 0.4417 0.35224 0.14853 0.0
H1093 H 0.50006 0.41421 0.73278 0.0
H1094 H 0.49319 0.3815 0.7923 0.0
H1095 H 0.46177 0.4137 0.97447 0.0
H1096 H 0.46756 0.44614 0.91289 0.0
H1097 H 0.44081 0.38073 0.95569 0.0
H1098 H 0.51618 0.39608 0.96951 0.0
H1099 H 0.55323 0.40432 0.92363 0.0
H1100 H 0.55225 0.34728 0.79471 0.0
H1101 H 0.51509 0.33881 0.83929 0.0
C1102 C 0.47535 0.30399 0.15806 0.0
C1103 C 0.45672 0.29093 0.15813 0.0
C1104 C 0.47887 0.319 0.10679 0.0
C1105 C 0.46372 0.32136 0.05502 0.0
C1106 C 0.44577 0.30724 0.05202 0.0
C1107 C 0.44224 0.2922 0.10361 0.0
C1108 C 0.46631 0.33934 0.00773 0.0
C1109 C 0.4863 0.34379 0.97216 0.0
C1110 C 0.44979 0.35301 0.00194 0.0
C1111 C 0.42876 0.35033 0.04188 0.0
C1112 C 0.40989 0.34821 0.00378 0.0
C1113 C 0.39 0.34579 0.0412 0.0
C1114 C 0.38878 0.34562 0.11679 0.0
C1115 C 0.40744 0.34794 0.15515 0.0
C1116 C 0.42738 0.35035 0.11802 0.0
C1117 C 0.49165 0.41422 0.78548 0.0
C1118 C 0.48439 0.43263 0.81852 0.0
C1119 C 0.48788 0.39555 0.81986 0.0
C1120 C 0.47726 0.39504 0.88873 0.0
C1121 C 0.46987 0.41353 0.92124 0.0
C1122 C 0.47324 0.43211 0.88621 0.0
C1123 C 0.47387 0.3754 0.92739 0.0
C1124 C 0.45362 0.37046 0.96032 0.0
C1125 C 0.49049 0.36188 0.93403 0.0
C1126 C 0.5128 0.36693 0.90706 0.0
C1127 C 0.52383 0.38537 0.93099 0.0
C1128 C 0.54484 0.39007 0.9053 0.0
C1129 C 0.55506 0.37637 0.85611 0.0
C1130 C 0.5443 0.3579 0.83269 0.0
C1131 C 0.52327 0.35313 0.85819 0.0
H1132 H 0.57133 0.38003 0.83627 0.0
H1133 H 0.37336 0.34376 0.14568 0.0
H1134 H 0.23574 0.46009 0.06727 0.0
H1135 H 0.20947 0.4649 0.97684 0.0
H1136 H 0.1947 0.5232 0.08545 0.0
H1137 H 0.2212 0.51841 0.17458 0.0
H1138 H 0.16927 0.46491 0.00142 0.0
H1139 H 0.17182 0.55422 0.97814 0.0
H1140 H 0.19865 0.58366 0.97496 0.0
H1141 H 0.24698 0.54295 0.89553 0.0
H1142 H 0.22039 0.5133 0.89737 0.0
H1143 H 0.06926 0.49028 0.89887 0.0
H1144 H 0.10275 0.48843 0.95838 0.0
H1145 H 0.1374 0.51445 0.77311 0.0
H1146 H 0.10356 0.51753 0.71553 0.0
H1147 H 0.15601 0.52879 0.8792 0.0
H1148 H 0.13484 0.45796 0.81488 0.0
H1149 H 0.11055 0.42651 0.80799 0.0
H1150 H 0.10442 0.42695 0.04034 0.0
H1151 H 0.12855 0.45844 0.04845 0.0
C1152 C 0.22727 0.47418 0.07002 0.0
C1153 C 0.23038 0.48895 0.12704 0.0
C1154 C 0.21216 0.47686 0.01903 0.0
C1155 C 0.19995 0.49439 0.02441 0.0
C1156 C 0.20389 0.50961 0.07972 0.0
C1157 C 0.21899 0.50691 0.13059 0.0
C1158 C 0.18163 0.49567 0.97745 0.0
C1159 C 0.16652 0.47881 0.97399 0.0
C1160 C 0.17809 0.51367 0.94081 0.0
C1161 C 0.19412 0.5315 0.93843 0.0
C1162 C 0.18814 0.55155 0.95965 0.0
C1163 C 0.20332 0.56828 0.95818 0.0
C1164 C 0.22452 0.56517 0.93523 0.0
C1165 C 0.23057 0.54533 0.91352 0.0
C1166 C 0.21546 0.52855 0.91487 0.0
C1167 C 0.08406 0.49557 0.87087 0.0
C1168 C 0.08392 0.50379 0.8023 0.0
C1169 C 0.10328 0.49432 0.90462 0.0
C1170 C 0.12287 0.50053 0.86933 0.0
C1171 C 0.12261 0.50933 0.80148 0.0
C1172 C 0.10329 0.51102 0.76836 0.0
C1173 C 0.1435 0.49805 0.90361 0.0
C1174 C 0.15896 0.51472 0.9052 0.0
C1175 C 0.14776 0.47959 0.93667 0.0
C1176 C 0.13327 0.46067 0.93211 0.0
C1177 C 0.12814 0.45142 0.86436 0.0
C1178 C 0.11446 0.43358 0.86029 0.0
C1179 C 0.10587 0.4248 0.92368 0.0
C1180 C 0.11104 0.43379 0.99128 0.0
C1181 C 0.12476 0.4516 0.99564 0.0
H1182 H 0.09526 0.411 0.9204 0.0
H1183 H 0.23624 0.57814 0.93418 0.0
H1184 H 0.97849 0.78309 0.16758 0.0
H1185 H 0.982 0.81169 0.25946 0.0
H1186 H 0.92937 0.84025 0.17159 0.0
H1187 H 0.92572 0.81144 0.08085 0.0
H1188 H 0.96369 0.86685 0.18467 0.0
H1189 H 0.92381 0.81873 0.33276 0.0
H1190 H 0.9147 0.78622 0.39369 0.0
H1191 H 0.97251 0.79444 0.50883 0.0
H1192 H 0.98226 0.82675 0.44726 0.0
H1193 H 0.95738 0.94905 0.45291 0.0
H1194 H 0.9479 0.9181 0.37699 0.0
H1195 H 0.99943 0.88696 0.46102 0.0
H1196 H 0.00868 0.91774 0.53806 0.0
H1197 H 0.96412 0.86163 0.45107 0.0
H1198 H 0.00327 0.91079 0.30128 0.0
H1199 H 0.01044 0.94407 0.24367 0.0
H1200 H 0.95266 0.93388 0.12926 0.0
H1201 H 0.9445 0.90104 0.18918 0.0
C1202 C 0.9674 0.79526 0.16939 0.0
C1203 C 0.95181 0.79519 0.11771 0.0
C1204 C 0.96942 0.81158 0.22154 0.0
C1205 C 0.95589 0.82807 0.22254 0.0
C1206 C 0.93999 0.82771 0.17176 0.0
C1207 C 0.93793 0.81135 0.12001 0.0
C1208 C 0.95926 0.8464 0.27292 0.0
C1209 C 0.96343 0.86578 0.24306 0.0
C1210 C 0.95944 0.84485 0.34892 0.0
C1211 C 0.95392 0.82506 0.38447 0.0
C1212 C 0.93477 0.81346 0.37017 0.0
C1213 C 0.92945 0.79508 0.40501 0.0
C1214 C 0.94306 0.78822 0.45487 0.0
C1215 C 0.96202 0.79972 0.46997 0.0
C1216 C 0.96746 0.81807 0.43504 0.0
C1217 C 0.96658 0.93554 0.45541 0.0
C1218 C 0.98387 0.93578 0.50072 0.0
C1219 C 0.9612 0.91791 0.41192 0.0
C1220 C 0.97317 0.90033 0.41247 0.0
C1221 C 0.99003 0.90037 0.45952 0.0
C1222 C 0.99535 0.91797 0.50325 0.0
C1223 C 0.96855 0.88208 0.3628 0.0
C1224 C 0.96426 0.8627 0.3927 0.0
C1225 C 0.96815 0.88366 0.28674 0.0
C1226 C 0.97308 0.90354 0.25086 0.0
C1227 C 0.99186 0.91578 0.26494 0.0
C1228 C 0.99607 0.93463 0.232 0.0
C1229 C 0.98199 0.94111 0.183 0.0
C1230 C 0.96353 0.92887 0.1674 0.0
C1231 C 0.95903 0.9102 0.20126 0.0
H1232 H 0.98542 0.95559 0.15691 0.0
H1233 H 0.93888 0.77403 0.48197 0.0
H1234 H 0.68769 0.94993 0.11607 0.0
H1235 H 0.65731 0.95593 0.20236 0.0
H1236 H 0.69781 0.99689 0.33363 0.0
H1237 H 0.72776 0.99234 0.2444 0.0
H1238 H 0.66456 0.96012 0.39934 0.0
H1239 H 0.67626 0.02297 0.27866 0.0
H1240 H 0.68157 0.0476 0.18179 0.0
H1241 H 0.62054 0.0272 0.10075 0.0
H1242 H 0.61512 0.00211 0.19648 0.0
H1243 H 0.56415 0.02516 0.51098 0.0
H1244 H 0.59908 0.02149 0.44952 0.0
H1245 H 0.59022 0.95504 0.45845 0.0
H1246 H 0.55584 0.9589 0.52563 0.0
H1247 H 0.61099 0.00781 0.33157 0.0
H1248 H 0.63604 0.93166 0.44828 0.0
H1249 H 0.6325 0.91384 0.56331 0.0
H1250 H 0.62429 0.97174 0.68138 0.0
H1251 H 0.62774 0.98999 0.56704 0.0
C1252 C 0.69005 0.96024 0.16326 0.0
C1253 C 0.70998 0.97086 0.17327 0.0
C1254 C 0.67275 0.96363 0.21231 0.0
C1255 C 0.67529 0.97716 0.27323 0.0
C1256 C 0.69553 0.9866 0.28628 0.0
C1257 C 0.71266 0.98379 0.23589 0.0
C1258 C 0.65656 0.98168 0.322 0.0
C1259 C 0.6528 0.97057 0.38493 0.0
C1260 C 0.64171 0.99588 0.3041 0.0
C1261 C 0.64572 0.00985 0.24292 0.0
C1262 C 0.66433 0.02311 0.23867 0.0
C1263 C 0.66722 0.03744 0.18458 0.0
C1264 C 0.65142 0.03897 0.13508 0.0
C1265 C 0.63279 0.026 0.13908 0.0
C1266 C 0.6299 0.0116 0.1929 0.0
C1267 C 0.56961 0.00975 0.4994 0.0
C1268 C 0.55724 0.99228 0.52226 0.0
C1269 C 0.58966 0.00765 0.46452 0.0
C1270 C 0.59756 0.98799 0.44974 0.0
C1271 C 0.58489 0.97044 0.47092 0.0
C1272 C 0.56508 0.9726 0.50825 0.0
C1273 C 0.61853 0.986 0.40901 0.0
C1274 C 0.6227 0.99743 0.34686 0.0
C1275 C 0.6342 0.97293 0.42981 0.0
C1276 C 0.63199 0.96215 0.49893 0.0
C1277 C 0.6335 0.94061 0.49877 0.0
C1278 C 0.63145 0.93044 0.56383 0.0
C1279 C 0.62805 0.94167 0.62953 0.0
C1280 C 0.62673 0.9631 0.63033 0.0
C1281 C 0.62868 0.97335 0.5654 0.0
H1282 H 0.6265 0.93378 0.67986 0.0
H1283 H 0.65363 0.05015 0.09348 0.0
H1284 H 0.59011 0.69905 0.13792 0.0
H1285 H 0.57957 0.67109 0.21915 0.0
H1286 H 0.52967 0.70727 0.31924 0.0
H1287 H 0.53912 0.73462 0.23394 0.0
H1288 H 0.56227 0.6845 0.41347 0.0
H1289 H 0.50869 0.6777 0.24048 0.0
H1290 H 0.49057 0.67354 0.12544 0.0
H1291 H 0.52171 0.61735 0.0718 0.0
H1292 H 0.54092 0.62168 0.18512 0.0
H1293 H 0.50432 0.59725 0.58706 0.0
H1294 H 0.51292 0.62947 0.52453 0.0
H1295 H 0.55818 0.59829 0.38047 0.0
H1296 H 0.55007 0.56623 0.44385 0.0
H1297 H 0.5246 0.62043 0.31497 0.0
H1298 H 0.57756 0.6285 0.49659 0.0
H1299 H 0.5893 0.63106 0.6219 0.0
H1300 H 0.55343 0.68488 0.66719 0.0
H1301 H 0.54082 0.68221 0.54299 0.0
C1302 C 0.57687 0.70097 0.17716 0.0
C1303 C 0.5654 0.71893 0.17958 0.0
C1304 C 0.5709 0.68507 0.22349 0.0
C1305 C 0.55371 0.68709 0.27442 0.0
C1306 C 0.54293 0.70546 0.27992 0.0
C1307 C 0.54851 0.72115 0.23197 0.0
C1308 C 0.5471 0.66974 0.32099 0.0
C1309 C 0.55375 0.67058 0.39239 0.0
C1310 C 0.53611 0.6516 0.29298 0.0
C1311 C 0.52668 0.6503 0.22076 0.0
C1312 C 0.51231 0.66484 0.20316 0.0
C1313 C 0.50168 0.66234 0.13848 0.0
C1314 C 0.50508 0.64521 0.09122 0.0
C1315 C 0.51932 0.63071 0.1081 0.0
C1316 C 0.53016 0.63324 0.17235 0.0
C1317 C 0.51621 0.59737 0.54237 0.0
C1318 C 0.52649 0.57932 0.51983 0.0
C1319 C 0.52116 0.61575 0.50706 0.0
C1320 C 0.5362 0.61618 0.44818 0.0
C1321 C 0.54657 0.5982 0.42602 0.0
C1322 C 0.54195 0.57996 0.46216 0.0
C1323 C 0.54021 0.63499 0.4065 0.0
C1324 C 0.53308 0.63438 0.33596 0.0
C1325 C 0.55037 0.65339 0.43581 0.0
C1326 C 0.55796 0.65495 0.51066 0.0
C1327 C 0.57187 0.64068 0.53358 0.0
C1328 C 0.5787 0.64216 0.60449 0.0
C1329 C 0.57196 0.65802 0.65277 0.0
C1330 C 0.55845 0.67247 0.63008 0.0
C1331 C 0.55145 0.67097 0.55943 0.0
H1332 H 0.57729 0.65917 0.70761 0.0
H1333 H 0.4967 0.6432 0.04144 0.0
H1334 H 0.7787 0.56006 0.25788 0.0
H1335 H 0.80525 0.55505 0.34712 0.0
H1336 H 0.82094 0.49769 0.23339 0.0
H1337 H 0.79347 0.50225 0.14711 0.0
H1338 H 0.82235 0.49333 0.37164 0.0
H1339 H 0.85085 0.54534 0.20851 0.0
H1340 H 0.85181 0.5783 0.1467 0.0
H1341 H 0.85067 0.61214 0.35227 0.0
H1342 H 0.8496 0.57947 0.41541 0.0
H1343 H 0.93137 0.48677 0.45001 0.0
H1344 H 0.89751 0.49083 0.39393 0.0
H1345 H 0.88267 0.53939 0.55356 0.0
H1346 H 0.9165 0.53513 0.61081 0.0
H1347 H 0.87885 0.54951 0.4061 0.0
H1348 H 0.85492 0.49643 0.56674 0.0
H1349 H 0.85645 0.46315 0.62429 0.0
H1350 H 0.85084 0.43062 0.41736 0.0
H1351 H 0.84961 0.46373 0.35835 0.0
C1352 C 0.78743 0.54613 0.25362 0.0
C1353 C 0.78415 0.5315 0.19621 0.0
C1354 C 0.8028 0.54341 0.30374 0.0
C1355 C 0.81546 0.5262 0.29615 0.0
C1356 C 0.81147 0.51113 0.24038 0.0
C1357 C 0.79587 0.51372 0.19104 0.0
C1358 C 0.83342 0.52422 0.34417 0.0
C1359 C 0.83476 0.50558 0.37871 0.0
C1360 C 0.84945 0.54034 0.3548 0.0
C1361 C 0.8499 0.55996 0.31671 0.0
C1362 C 0.85063 0.55981 0.24053 0.0
C1363 C 0.85124 0.57841 0.20526 0.0
C1364 C 0.8512 0.59724 0.24552 0.0
C1365 C 0.85065 0.59753 0.32116 0.0
C1366 C 0.85008 0.57899 0.35672 0.0
C1367 C 0.92077 0.49815 0.47361 0.0
C1368 C 0.92649 0.51066 0.53458 0.0
C1369 C 0.90144 0.50042 0.44167 0.0
C1370 C 0.88758 0.51536 0.46979 0.0
C1371 C 0.89316 0.52775 0.53121 0.0
C1372 C 0.9124 0.52527 0.56388 0.0
C1373 C 0.86784 0.51859 0.43241 0.0
C1374 C 0.86624 0.53741 0.39972 0.0
C1375 C 0.85176 0.50256 0.42267 0.0
C1376 C 0.85233 0.48259 0.45804 0.0
C1377 C 0.85418 0.48219 0.5334 0.0
C1378 C 0.85496 0.46335 0.56631 0.0
C1379 C 0.85378 0.44478 0.52449 0.0
C1380 C 0.85176 0.44501 0.44968 0.0
C1381 C 0.85099 0.46381 0.41648 0.0
H1382 H 0.85439 0.43021 0.55006 0.0
H1383 H 0.85167 0.61161 0.21807 0.0
loop_
_geom_bond_atom_site_label_1
_geom_bond_atom_site_label_2
_geom_bond_distance
_geom_bond_site_symmetry_2
_ccdc_geom_bond_type
C0 N1 1.317 . S
C0 N2 1.348 . S
C0 C3 1.485 . S
N1 C0 1.317 . S
N1 N5 1.370 . S
N2 C0 1.348 . S
N2 C4 1.346 1_554 S
C3 C0 1.485 . S
C3 H7 0.960 . S
C3 H8 0.961 . S
C3 H9 0.960 . S
C4 N2 1.346 1_556 S
C4 N5 1.307 1_556 S
C4 C6 1.486 . S
N5 N1 1.370 . S
N5 C4 1.307 1_554 S
C6 C4 1.486 . S
C6 H10 0.960 . S
C6 H11 0.960 . S
C6 H12 0.959 . S
H7 C3 0.960 . S
H8 C3 0.961 . S
H9 C3 0.960 . S
H10 C6 0.960 . S
H11 C6 0.960 . S
H12 C6 0.959 . S
C13 N14 1.317 . S
C13 N15 1.348 1_554 S
C13 C16 1.485 . S
N14 C13 1.317 . S
N14 N18 1.370 1_554 S
N15 C13 1.348 1_556 S
N15 C17 1.346 . S
C16 C13 1.485 . S
C16 H20 0.960 . S
C16 H21 0.961 . S
C16 H22 0.960 . S
C17 N15 1.346 . S
C17 N18 1.307 . S
C17 C19 1.486 . S
N18 N14 1.370 1_556 S
N18 C17 1.307 . S
C19 C17 1.486 . S
C19 H23 0.960 . S
C19 H24 0.960 . S
C19 H25 0.959 . S
H20 C16 0.960 . S
H21 C16 0.961 . S
H22 C16 0.960 . S
H23 C19 0.960 . S
H24 C19 0.960 . S
H25 C19 0.959 . S
C26 N27 1.317 . S
C26 N28 1.348 . S
C26 C29 1.485 . S
N27 C26 1.317 . S
N27 N31 1.370 . S
N28 C26 1.348 . S
N28 C30 1.346 1_554 S
C29 C26 1.485 . S
C29 H33 0.960 . S
C29 H34 0.961 . S
C29 H35 0.960 . S
C30 N28 1.346 1_556 S
C30 N31 1.307 1_556 S
C30 C32 1.486 . S
N31 N27 1.370 . S
N31 C30 1.307 1_554 S
C32 C30 1.486 . S
C32 H36 0.960 . S
C32 H37 0.960 . S
C32 H38 0.959 . S
H33 C29 0.960 . S
H34 C29 0.961 . S
H35 C29 0.960 . S
H36 C32 0.960 . S
H37 C32 0.960 . S
H38 C32 0.959 . S
C39 N40 1.317 . S
C39 N41 1.348 . S
C39 C42 1.485 . S
N40 C39 1.317 . S
N40 N44 1.370 . S
N41 C39 1.348 . S
N41 C43 1.346 . S
C42 C39 1.485 . S
C42 H46 0.960 . S
C42 H47 0.961 . S
C42 H48 0.960 . S
C43 N41 1.346 . S
C43 N44 1.307 . S
C43 C45 1.486 1_554 S
N44 N40 1.370 . S
N44 C43 1.307 . S
C45 C43 1.486 1_556 S
C45 H49 0.960 . S
C45 H50 0.960 . S
C45 H51 0.959 . S
H46 C42 0.960 . S
H47 C42 0.961 . S
H48 C42 0.960 . S
H49 C45 0.960 . S
H50 C45 0.960 . S
H51 C45 0.959 . S
C52 N53 1.317 . S
C52 N54 1.348 . S
C52 C55 1.485 . S
N53 C52 1.317 . S
N53 N57 1.370 . S
N54 C52 1.348 . S
N54 C56 1.346 . S
C55 C52 1.485 . S
C55 H59 0.960 . S
C55 H60 0.961 . S
C55 H61 0.960 . S
C56 N54 1.346 . S
C56 N57 1.307 . S
C56 C58 1.486 . S
N57 N53 1.370 . S
N57 C56 1.307 . S
C58 C56 1.486 . S
C58 H62 0.960 . S
C58 H63 0.960 . S
C58 H64 0.959 . S
H59 C55 0.960 . S
H60 C55 0.961 . S
H61 C55 0.960 . S
H62 C58 0.960 . S
H63 C58 0.960 . S
H64 C58 0.959 . S
C65 N66 1.317 . S
C65 N67 1.348 . S
C65 C68 1.485 . S
N66 C65 1.317 . S
N66 N70 1.370 . S
N67 C65 1.348 . S
N67 C69 1.346 . S
C68 C65 1.485 . S
C68 H72 0.960 . S
C68 H73 0.961 . S
C68 H74 0.960 . S
C69 N67 1.346 . S
C69 N70 1.307 . S
C69 C71 1.486 . S
N70 N66 1.370 . S
N70 C69 1.307 . S
C71 C69 1.486 . S
C71 H75 0.960 . S
C71 H76 0.960 . S
C71 H77 0.959 . S
H72 C68 0.960 . S
H73 C68 0.961 . S
H74 C68 0.960 . S
H75 C71 0.960 . S
H76 C71 0.960 . S
H77 C71 0.959 . S
C78 N79 1.317 . S
C78 N80 1.348 . S
C78 C81 1.485 . S
N79 C78 1.317 . S
N79 N83 1.370 . S
N80 C78 1.348 . S
N80 C82 1.346 . S
C81 C78 1.485 . S
C81 H85 0.960 . S
C81 H86 0.961 . S
C81 H87 0.960 . S
C82 N80 1.346 . S
C82 N83 1.307 . S
C82 C84 1.486 . S
N83 N79 1.370 . S
N83 C82 1.307 . S
C84 C82 1.486 . S
C84 H88 0.960 . S
C84 H89 0.960 . S
C84 H90 0.959 . S
H85 C81 0.960 . S
H86 C81 0.961 . S
H87 C81 0.960 . S
H88 C84 0.960 . S
H89 C84 0.960 . S
H90 C84 0.959 . S
C91 N92 1.317 . S
C91 N93 1.348 . S
C91 C94 1.485 . S
N92 C91 1.317 . S
N92 N96 1.370 . S
N93 C91 1.348 . S
N93 C95 1.346 . S
C94 C91 1.485 . S
C94 H98 0.960 . S
C94 H99 0.961 . S
C94 H100 0.960 . S
C95 N93 1.346 . S
C95 N96 1.307 . S
C95 C97 1.486 . S
N96 N92 1.370 . S
N96 C95 1.307 . S
C97 C95 1.486 . S
C97 H101 0.960 . S
C97 H102 0.960 . S
C97 H103 0.959 . S
H98 C94 0.960 . S
H99 C94 0.961 . S
H100 C94 0.960 . S
H101 C97 0.960 . S
H102 C97 0.960 . S
H103 C97 0.959 . S
Tb104 O107 2.440 1_565 S
Tb104 O108 2.586 1_665 S
Tb104 O109 2.373 1_665 S
Tb104 O117 2.349 1_655 S
Tb104 O119 2.351 1_565 S
Tb104 O121 2.438 . S
Tb104 O122 2.524 1_655 S
C105 O109 1.251 . S
C105 O111 1.263 . S
Tb106 O108 2.343 . S
Tb106 O111 2.353 . S
Tb106 O114 2.427 . S
Tb106 O115 2.513 . S
Tb106 O116 2.453 1_545 S
Tb106 O117 2.596 1_545 S
Tb106 O118 2.374 1_455 S
O107 Tb104 2.440 1_545 S
O107 C123 1.245 1_655 S
O108 Tb104 2.586 1_445 S
O108 Tb106 2.343 . S
O108 C123 1.259 . S
O109 Tb104 2.373 1_445 S
O109 C105 1.251 . S
C110 O114 1.275 . S
C110 O115 1.246 . S
O111 C105 1.263 . S
O111 Tb106 2.353 . S
C112 O116 1.245 . S
C112 O117 1.259 . S
C113 O118 1.250 . S
C113 O119 1.263 . S
O114 Tb106 2.427 . S
O114 C110 1.275 . S
O115 Tb106 2.513 . S
O115 C110 1.246 . S
O116 Tb106 2.453 1_565 S
O116 C112 1.245 . S
O117 Tb104 2.349 1_455 S
O117 Tb106 2.596 1_565 S
O117 C112 1.259 . S
O118 Tb106 2.374 1_655 S
O118 C113 1.250 . S
O119 Tb104 2.351 1_545 S
O119 C113 1.263 . S
C120 O121 1.275 . S
C120 O122 1.246 1_655 S
O121 Tb104 2.438 . S
O121 C120 1.275 . S
O122 Tb104 2.524 1_455 S
O122 C120 1.246 1_455 S
C123 O107 1.245 1_455 S
C123 O108 1.259 . S
Tb124 O127 2.453 . S
Tb124 O128 2.599 . S
Tb124 O129 2.374 . S
Tb124 O137 2.343 . S
Tb124 O139 2.353 . S
Tb124 O141 2.427 . S
Tb124 O142 2.513 . S
C125 O129 1.291 . S
C125 O131 1.232 1_545 S
Tb126 O128 2.341 1_565 S
Tb126 O131 2.353 . S
Tb126 O134 2.427 . S
Tb126 O135 2.513 . S
Tb126 O136 2.453 . S
Tb126 O137 2.596 1_565 S
Tb126 O138 2.374 . S
O127 Tb124 2.453 . S
O127 C143 1.245 . S
O128 Tb124 2.599 . S
O128 Tb126 2.341 1_545 S
O128 C143 1.260 . S
O129 Tb124 2.374 . S
O129 C125 1.291 . S
C130 O134 1.275 . S
C130 O135 1.246 . S
O131 C125 1.232 1_565 S
O131 Tb126 2.353 . S
C132 O136 1.245 1_545 S
C132 O137 1.259 . S
C133 O138 1.250 1_545 S
C133 O139 1.263 . S
O134 Tb126 2.427 . S
O134 C130 1.275 . S
O135 Tb126 2.513 . S
O135 C130 1.246 . S
O136 Tb126 2.453 . S
O136 C132 1.245 1_565 S
O137 Tb124 2.343 . S
O137 Tb126 2.596 1_545 S
O137 C132 1.259 . S
O138 Tb126 2.374 . S
O138 C133 1.250 1_565 S
O139 Tb124 2.353 . S
O139 C133 1.263 . S
C140 O141 1.275 . S
C140 O142 1.246 . S
O141 Tb124 2.427 . S
O141 C140 1.275 . S
O142 Tb124 2.513 . S
O142 C140 1.246 . S
C143 O127 1.245 . S
C143 O128 1.260 . S
Tb144 O147 2.453 . S
Tb144 O148 2.596 . S
Tb144 O149 2.374 . S
Tb144 O157 2.343 . S
Tb144 O159 2.353 . S
Tb144 O161 2.427 . S
Tb144 O162 2.513 . S
C145 O149 1.251 . S
C145 O151 1.263 . S
Tb146 O148 2.343 . S
Tb146 O151 2.353 . S
Tb146 O154 2.427 . S
Tb146 O155 2.513 . S
Tb146 O156 2.453 . S
Tb146 O157 2.596 . S
Tb146 O158 2.374 . S
O147 Tb144 2.453 . S
O147 C163 1.245 . S
O148 Tb144 2.596 . S
O148 Tb146 2.343 . S
O148 C163 1.259 . S
O149 Tb144 2.374 . S
O149 C145 1.251 . S
C150 O154 1.275 . S
C150 O155 1.246 . S
O151 C145 1.263 . S
O151 Tb146 2.353 . S
C152 O156 1.245 . S
C152 O157 1.259 . S
C153 O158 1.250 . S
C153 O159 1.263 . S
O154 Tb146 2.427 . S
O154 C150 1.275 . S
O155 Tb146 2.513 . S
O155 C150 1.246 . S
O156 Tb146 2.453 . S
O156 C152 1.245 . S
O157 Tb144 2.343 . S
O157 Tb146 2.596 . S
O157 C152 1.259 . S
O158 Tb146 2.374 . S
O158 C153 1.250 . S
O159 Tb144 2.353 . S
O159 C153 1.263 . S
C160 O161 1.275 . S
C160 O162 1.246 . S
O161 Tb144 2.427 . S
O161 C160 1.275 . S
O162 Tb144 2.513 . S
O162 C160 1.246 . S
C163 O147 1.245 . S
C163 O148 1.259 . S
Tb164 O167 2.430 1_655 S
Tb164 O168 2.577 1_655 S
Tb164 O169 2.371 1_655 S
Tb164 O177 2.352 . S
Tb164 O179 2.351 1_655 S
Tb164 O181 2.447 . S
Tb164 O182 2.533 . S
C165 O169 1.251 . S
C165 O171 1.263 . S
Tb166 O168 2.343 . S
Tb166 O171 2.353 . S
Tb166 O174 2.427 . S
Tb166 O175 2.513 . S
Tb166 O176 2.453 1_455 S
Tb166 O177 2.596 1_455 S
Tb166 O178 2.374 . S
O167 Tb164 2.430 1_455 S
O167 C183 1.245 . S
O168 Tb164 2.577 1_455 S
O168 Tb166 2.343 . S
O168 C183 1.259 . S
O169 Tb164 2.371 1_455 S
O169 C165 1.251 . S
C170 O174 1.275 . S
C170 O175 1.246 . S
O171 C165 1.263 . S
O171 Tb166 2.353 . S
C172 O176 1.245 . S
C172 O177 1.259 . S
C173 O178 1.250 . S
C173 O179 1.263 . S
O174 Tb166 2.427 . S
O174 C170 1.275 . S
O175 Tb166 2.513 . S
O175 C170 1.246 . S
O176 Tb166 2.453 1_655 S
O176 C172 1.245 . S
O177 Tb164 2.352 . S
O177 Tb166 2.596 1_655 S
O177 C172 1.259 . S
O178 Tb166 2.374 . S
O178 C173 1.250 . S
O179 Tb164 2.351 1_455 S
O179 C173 1.263 . S
C180 O181 1.275 . S
C180 O182 1.246 . S
O181 Tb164 2.447 . S
O181 C180 1.275 . S
O182 Tb164 2.533 . S
O182 C180 1.246 . S
C183 O167 1.245 . S
C183 O168 1.259 . S
H184 C202 0.951 . S
H185 C204 0.951 . S
H186 C206 0.950 . S
H187 C207 0.950 . S
H188 C209 0.950 . S
H189 C212 0.950 . S
H190 C213 0.950 . S
H191 C215 0.950 . S
H192 C216 0.950 . S
H193 C217 0.951 . S
H194 C219 0.951 . S
H195 C221 0.970 . S
H196 C222 0.950 1_565 S
H197 C224 0.950 . S
H198 C227 0.950 1_565 S
H199 C228 0.950 1_565 S
H200 C230 0.950 . S
H201 C231 0.950 . S
C202 H184 0.951 . S
C202 C203 1.366 . S
C202 C204 1.388 . S
C203 C202 1.366 . S
C203 C207 1.385 . S
C204 H185 0.951 . S
C204 C202 1.388 . S
C204 C205 1.366 . S
C205 C204 1.366 . S
C205 C206 1.414 . S
C205 C208 1.499 . S
C206 H186 0.950 . S
C206 C205 1.414 . S
C206 C207 1.374 . S
C207 H187 0.950 . S
C207 C203 1.385 . S
C207 C206 1.374 . S
C208 C205 1.499 . S
C208 C209 1.373 . S
C208 C210 1.389 . S
C209 H188 0.950 . S
C209 C208 1.373 . S
C209 C225 1.377 . S
C210 C208 1.389 . S
C210 C211 1.524 . S
C210 C224 1.377 . S
C211 C210 1.524 . S
C211 C212 1.397 . S
C211 C216 1.363 . S
C212 H189 0.950 . S
C212 C211 1.397 . S
C212 C213 1.334 . S
C213 H190 0.950 . S
C213 C212 1.334 . S
C213 C214 1.287 . S
C214 C213 1.287 . S
C214 C215 1.524 . S
C214 H233 0.913 . S
C215 H191 0.950 . S
C215 C214 1.524 . S
C215 C216 1.415 . S
C216 H192 0.950 . S
C216 C211 1.363 . S
C216 C215 1.415 . S
C217 H193 0.951 . S
C217 C218 1.366 . S
C217 C219 1.388 . S
C218 C217 1.366 . S
C218 C222 1.385 . S
C219 H194 0.951 . S
C219 C217 1.388 . S
C219 C220 1.366 . S
C220 C219 1.366 . S
C220 C221 1.414 . S
C220 C223 1.499 . S
C221 H195 0.970 . S
C221 C220 1.414 . S
C221 C222 1.374 . S
C222 H196 0.950 1_545 S
C222 C218 1.385 . S
C222 C221 1.374 . S
C223 C220 1.499 . S
C223 C224 1.373 . S
C223 C225 1.389 . S
C224 H197 0.950 . S
C224 C210 1.377 . S
C224 C223 1.373 . S
C225 C209 1.377 . S
C225 C223 1.389 . S
C225 C226 1.524 . S
C226 C225 1.524 . S
C226 C227 1.397 . S
C226 C231 1.363 . S
C227 H198 0.950 1_545 S
C227 C226 1.397 . S
C227 C228 1.334 . S
C228 H199 0.950 1_545 S
C228 C227 1.334 . S
C228 C229 1.287 . S
C229 C228 1.287 . S
C229 C230 1.524 . S
C229 H232 0.999 . S
C230 H200 0.950 . S
C230 C229 1.524 . S
C230 C231 1.415 . S
C231 H201 0.950 . S
C231 C226 1.363 . S
C231 C230 1.415 . S
H232 C229 0.999 . S
H233 C214 0.913 . S
H234 C252 0.951 . S
H235 C254 0.951 . S
H236 C256 0.950 . S
H237 C257 0.950 . S
H238 C259 0.950 . S
H239 C262 0.950 . S
H240 C263 0.950 . S
H241 C265 0.950 . S
H242 C266 0.950 . S
H243 C267 0.951 . S
H244 C269 0.951 . S
H245 C271 0.950 . S
H246 C272 0.950 . S
H247 C274 0.950 . S
H248 C277 0.950 . S
H249 C278 0.950 . S
H250 C280 0.950 . S
H251 C281 0.950 . S
C252 H234 0.951 . S
C252 C253 1.366 . S
C252 C254 1.388 . S
C253 C252 1.366 . S
C253 C257 1.385 . S
C254 H235 0.951 . S
C254 C252 1.388 . S
C254 C255 1.366 . S
C255 C254 1.366 . S
C255 C256 1.414 . S
C255 C258 1.499 . S
C256 H236 0.950 . S
C256 C255 1.414 . S
C256 C257 1.374 . S
C257 H237 0.950 . S
C257 C253 1.385 . S
C257 C256 1.374 . S
C258 C255 1.499 . S
C258 C259 1.373 . S
C258 C260 1.389 . S
C259 H238 0.950 . S
C259 C258 1.373 . S
C259 C275 1.377 . S
C260 C258 1.389 . S
C260 C261 1.524 . S
C260 C274 1.377 . S
C261 C260 1.524 . S
C261 C262 1.397 . S
C261 C266 1.363 . S
C262 H239 0.950 . S
C262 C261 1.397 . S
C262 C263 1.334 . S
C263 H240 0.950 . S
C263 C262 1.334 . S
C263 C264 1.287 . S
C264 C263 1.287 . S
C264 C265 1.524 . S
C264 H283 0.913 . S
C265 H241 0.950 . S
C265 C264 1.524 . S
C265 C266 1.415 . S
C266 H242 0.950 . S
C266 C261 1.363 . S
C266 C265 1.415 . S
C267 H243 0.951 . S
C267 C268 1.366 . S
C267 C269 1.388 . S
C268 C267 1.366 . S
C268 C272 1.385 . S
C269 H244 0.951 . S
C269 C267 1.388 . S
C269 C270 1.366 . S
C270 C269 1.366 . S
C270 C271 1.414 . S
C270 C273 1.499 . S
C271 H245 0.950 . S
C271 C270 1.414 . S
C271 C272 1.374 . S
C272 H246 0.950 . S
C272 C268 1.385 . S
C272 C271 1.374 . S
C273 C270 1.499 . S
C273 C274 1.373 . S
C273 C275 1.389 . S
C274 H247 0.950 . S
C274 C260 1.377 . S
C274 C273 1.373 . S
C275 C259 1.377 . S
C275 C273 1.389 . S
C275 C276 1.524 . S
C276 C275 1.524 . S
C276 C277 1.397 . S
C276 C281 1.363 . S
C277 H248 0.950 . S
C277 C276 1.397 . S
C277 C278 1.334 . S
C278 H249 0.950 . S
C278 C277 1.334 . S
C278 C279 1.287 . S
C279 C278 1.287 . S
C279 C280 1.524 . S
C279 H282 0.999 . S
C280 H250 0.950 . S
C280 C279 1.524 . S
C280 C281 1.415 . S
C281 H251 0.950 . S
C281 C276 1.363 . S
C281 C280 1.415 . S
H282 C279 0.999 . S
H283 C264 0.913 . S
H284 C302 0.951 . S
H285 C304 0.951 . S
H286 C306 0.950 . S
H287 C307 0.950 . S
H288 C309 0.950 . S
H289 C312 0.950 . S
H290 C313 0.950 . S
H291 C315 0.950 . S
H292 C316 0.950 . S
H293 C317 0.951 . S
H294 C319 0.951 . S
H295 C321 0.950 . S
H296 C322 0.950 . S
H297 C324 0.950 . S
H298 C327 0.950 . S
H299 C328 0.950 . S
H300 C330 0.950 . S
H301 C331 0.950 . S
C302 H284 0.951 . S
C302 C303 1.366 . S
C302 C304 1.388 . S
C303 C302 1.366 . S
C303 C307 1.385 . S
C304 H285 0.951 . S
C304 C302 1.388 . S
C304 C305 1.366 . S
C305 C304 1.366 . S
C305 C306 1.414 . S
C305 C308 1.499 . S
C306 H286 0.950 . S
C306 C305 1.414 . S
C306 C307 1.374 . S
C307 H287 0.950 . S
C307 C303 1.385 . S
C307 C306 1.374 . S
C308 C305 1.499 . S
C308 C309 1.373 . S
C308 C310 1.389 . S
C309 H288 0.950 . S
C309 C308 1.373 . S
C309 C325 1.377 . S
C310 C308 1.389 . S
C310 C311 1.524 . S
C310 C324 1.377 . S
C311 C310 1.524 . S
C311 C312 1.397 . S
C311 C316 1.363 . S
C312 H289 0.950 . S
C312 C311 1.397 . S
C312 C313 1.334 . S
C313 H290 0.950 . S
C313 C312 1.334 . S
C313 C314 1.287 . S
C314 C313 1.287 . S
C314 C315 1.524 . S
C314 H333 0.913 . S
C315 H291 0.950 . S
C315 C314 1.524 . S
C315 C316 1.415 . S
C316 H292 0.950 . S
C316 C311 1.363 . S
C316 C315 1.415 . S
C317 H293 0.951 . S
C317 C318 1.366 . S
C317 C319 1.388 . S
C318 C317 1.366 . S
C318 C322 1.385 . S
C319 H294 0.951 . S
C319 C317 1.388 . S
C319 C320 1.366 . S
C320 C319 1.366 . S
C320 C321 1.414 . S
C320 C323 1.499 . S
C321 H295 0.950 . S
C321 C320 1.414 . S
C321 C322 1.374 . S
C322 H296 0.950 . S
C322 C318 1.385 . S
C322 C321 1.374 . S
C323 C320 1.499 . S
C323 C324 1.373 . S
C323 C325 1.389 . S
C324 H297 0.950 . S
C324 C310 1.377 . S
C324 C323 1.373 . S
C325 C309 1.377 . S
C325 C323 1.389 . S
C325 C326 1.524 . S
C326 C325 1.524 . S
C326 C327 1.397 . S
C326 C331 1.363 . S
C327 H298 0.950 . S
C327 C326 1.397 . S
C327 C328 1.334 . S
C328 H299 0.950 . S
C328 C327 1.334 . S
C328 C329 1.287 . S
C329 C328 1.287 . S
C329 C330 1.524 . S
C329 H332 0.999 . S
C330 H300 0.950 . S
C330 C329 1.524 . S
C330 C331 1.415 . S
C331 H301 0.950 . S
C331 C326 1.363 . S
C331 C330 1.415 . S
H332 C329 0.999 . S
H333 C314 0.913 . S
H334 C352 0.951 . S
H335 C354 0.951 . S
H336 C356 0.950 . S
H337 C357 0.950 . S
H338 C359 0.950 . S
H339 C362 0.950 . S
H340 C363 0.950 . S
H341 C365 0.950 . S
H342 C366 0.950 . S
H343 C367 0.928 1_655 S
H344 C369 0.951 1_655 S
H345 C371 0.950 . S
H346 C372 0.950 . S
H347 C374 0.950 . S
H348 C377 0.950 1_455 S
H349 C378 0.950 . S
H350 C380 0.950 . S
H351 C381 0.950 . S
C352 H334 0.951 . S
C352 C353 1.366 . S
C352 C354 1.388 . S
C353 C352 1.366 . S
C353 C357 1.385 . S
C354 H335 0.951 . S
C354 C352 1.388 . S
C354 C355 1.366 . S
C355 C354 1.366 . S
C355 C356 1.414 . S
C355 C358 1.499 . S
C356 H336 0.950 . S
C356 C355 1.414 . S
C356 C357 1.374 . S
C357 H337 0.950 . S
C357 C353 1.385 . S
C357 C356 1.374 . S
C358 C355 1.499 . S
C358 C359 1.373 . S
C358 C360 1.389 . S
C359 H338 0.950 . S
C359 C358 1.373 . S
C359 C375 1.377 . S
C360 C358 1.389 . S
C360 C361 1.524 . S
C360 C374 1.377 . S
C361 C360 1.524 . S
C361 C362 1.397 . S
C361 C366 1.363 . S
C362 H339 0.950 . S
C362 C361 1.397 . S
C362 C363 1.334 . S
C363 H340 0.950 . S
C363 C362 1.334 . S
C363 C364 1.287 . S
C364 C363 1.287 . S
C364 C365 1.524 . S
C364 H383 0.913 . S
C365 H341 0.950 . S
C365 C364 1.524 . S
C365 C366 1.415 . S
C366 H342 0.950 . S
C366 C361 1.363 . S
C366 C365 1.415 . S
C367 H343 0.928 1_455 S
C367 C368 1.383 . S
C367 C369 1.394 . S
C368 C367 1.383 . S
C368 C372 1.385 . S
C369 H344 0.951 1_455 S
C369 C367 1.394 . S
C369 C370 1.366 . S
C370 C369 1.366 . S
C370 C371 1.414 . S
C370 C373 1.499 . S
C371 H345 0.950 . S
C371 C370 1.414 . S
C371 C372 1.374 . S
C372 H346 0.950 . S
C372 C368 1.385 . S
C372 C371 1.374 . S
C373 C370 1.499 . S
C373 C374 1.373 . S
C373 C375 1.389 . S
C374 H347 0.950 . S
C374 C360 1.377 . S
C374 C373 1.373 . S
C375 C359 1.377 . S
C375 C373 1.389 . S
C375 C376 1.524 1_455 S
C376 C375 1.524 1_655 S
C376 C377 1.397 . S
C376 C381 1.363 . S
C377 H348 0.950 1_655 S
C377 C376 1.397 . S
C377 C378 1.334 . S
C378 H349 0.950 . S
C378 C377 1.334 . S
C378 C379 1.287 . S
C379 C378 1.287 . S
C379 C380 1.524 . S
C379 H382 0.999 . S
C380 H350 0.950 . S
C380 C379 1.524 . S
C380 C381 1.415 . S
C381 H351 0.950 . S
C381 C376 1.363 . S
C381 C380 1.415 . S
H382 C379 0.999 . S
H383 C364 0.913 . S
H384 C402 0.951 . S
H385 C404 0.951 . S
H386 C406 0.950 . S
H387 C407 0.950 . S
H388 C409 0.950 . S
H389 C412 0.950 . S
H390 C413 0.950 . S
H391 C415 0.950 . S
H392 C416 0.950 . S
H393 C417 0.951 . S
H394 C419 0.951 . S
H395 C421 0.950 . S
H396 C422 0.950 . S
H397 C424 0.950 1_545 S
H398 C427 0.950 . S
H399 C428 0.950 . S
H400 C430 0.950 . S
H401 C431 0.950 . S
C402 H384 0.951 . S
C402 C403 1.366 1_554 S
C402 C404 1.388 . S
C403 C402 1.366 1_556 S
C403 C407 1.385 . S
C404 H385 0.951 . S
C404 C402 1.388 . S
C404 C405 1.366 1_554 S
C405 C404 1.366 1_556 S
C405 C406 1.414 . S
C405 C408 1.499 . S
C406 H386 0.950 . S
C406 C405 1.414 . S
C406 C407 1.374 . S
C407 H387 0.950 . S
C407 C403 1.385 . S
C407 C406 1.374 . S
C408 C405 1.499 . S
C408 C409 1.373 . S
C408 C410 1.389 . S
C409 H388 0.950 . S
C409 C408 1.373 . S
C409 C425 1.377 . S
C410 C408 1.389 . S
C410 C411 1.524 1_565 S
C410 C424 1.377 . S
C411 C410 1.524 1_545 S
C411 C412 1.397 . S
C411 C416 1.363 1_556 S
C412 H389 0.950 . S
C412 C411 1.397 . S
C412 C413 1.334 1_556 S
C413 H390 0.950 . S
C413 C412 1.334 1_554 S
C413 C414 1.287 . S
C414 C413 1.287 . S
C414 C415 1.524 . S
C414 H433 0.913 . S
C415 H391 0.950 . S
C415 C414 1.524 . S
C415 C416 1.415 . S
C416 H392 0.950 . S
C416 C411 1.363 1_554 S
C416 C415 1.415 . S
C417 H393 0.951 . S
C417 C418 1.366 . S
C417 C419 1.388 . S
C418 C417 1.366 . S
C418 C422 1.385 . S
C419 H394 0.951 . S
C419 C417 1.388 . S
C419 C420 1.366 . S
C420 C419 1.366 . S
C420 C421 1.414 . S
C420 C423 1.499 . S
C421 H395 0.950 . S
C421 C420 1.414 . S
C421 C422 1.374 . S
C422 H396 0.950 . S
C422 C418 1.385 . S
C422 C421 1.374 . S
C423 C420 1.499 . S
C423 C424 1.373 . S
C423 C425 1.389 . S
C424 H397 0.950 1_565 S
C424 C410 1.377 . S
C424 C423 1.373 . S
C425 C409 1.377 . S
C425 C423 1.389 . S
C425 C426 1.524 . S
C426 C425 1.524 . S
C426 C427 1.397 . S
C426 C431 1.363 . S
C427 H398 0.950 . S
C427 C426 1.397 . S
C427 C428 1.334 . S
C428 H399 0.950 . S
C428 C427 1.334 . S
C428 C429 1.287 . S
C429 C428 1.287 . S
C429 C430 1.524 . S
C429 H432 0.999 . S
C430 H400 0.950 . S
C430 C429 1.524 . S
C430 C431 1.415 . S
C431 H401 0.950 . S
C431 C426 1.363 . S
C431 C430 1.415 . S
H432 C429 0.999 . S
H433 C414 0.913 . S
H434 C452 0.951 . S
H435 C454 0.951 . S
H436 C456 0.950 . S
H437 C457 0.950 . S
H438 C459 0.950 . S
H439 C462 0.950 . S
H440 C463 0.950 . S
H441 C465 0.950 . S
H442 C466 0.950 . S
H443 C467 0.951 . S
H444 C469 0.951 . S
H445 C471 0.950 . S
H446 C472 0.950 . S
H447 C474 0.950 . S
H448 C477 0.950 . S
H449 C478 0.950 . S
H450 C480 0.950 . S
H451 C481 0.950 . S
C452 H434 0.951 . S
C452 C453 1.366 . S
C452 C454 1.388 . S
C453 C452 1.366 . S
C453 C457 1.385 1_554 S
C454 H435 0.951 . S
C454 C452 1.388 . S
C454 C455 1.366 1_554 S
C455 C454 1.366 1_556 S
C455 C456 1.414 . S
C455 C458 1.499 . S
C456 H436 0.950 . S
C456 C455 1.414 . S
C456 C457 1.374 . S
C457 H437 0.950 . S
C457 C453 1.385 1_556 S
C457 C456 1.374 . S
C458 C455 1.499 . S
C458 C459 1.373 . S
C458 C460 1.389 . S
C459 H438 0.950 . S
C459 C458 1.373 . S
C459 C475 1.377 . S
C460 C458 1.389 . S
C460 C461 1.524 . S
C460 C474 1.377 . S
C461 C460 1.524 . S
C461 C462 1.397 . S
C461 C466 1.363 . S
C462 H439 0.950 . S
C462 C461 1.397 . S
C462 C463 1.334 . S
C463 H440 0.950 . S
C463 C462 1.334 . S
C463 C464 1.287 . S
C464 C463 1.287 . S
C464 C465 1.524 . S
C464 H483 0.913 . S
C465 H441 0.950 . S
C465 C464 1.524 . S
C465 C466 1.415 . S
C466 H442 0.950 . S
C466 C461 1.363 . S
C466 C465 1.415 . S
C467 H443 0.951 . S
C467 C468 1.366 . S
C467 C469 1.388 . S
C468 C467 1.366 . S
C468 C472 1.385 . S
C469 H444 0.951 . S
C469 C467 1.388 . S
C469 C470 1.366 . S
C470 C469 1.366 . S
C470 C471 1.414 . S
C470 C473 1.499 . S
C471 H445 0.950 . S
C471 C470 1.414 . S
C471 C472 1.374 . S
C472 H446 0.950 . S
C472 C468 1.385 . S
C472 C471 1.374 . S
C473 C470 1.499 . S
C473 C474 1.373 . S
C473 C475 1.389 . S
C474 H447 0.950 . S
C474 C460 1.377 . S
C474 C473 1.373 . S
C475 C459 1.377 . S
C475 C473 1.389 . S
C475 C476 1.524 . S
C476 C475 1.524 . S
C476 C477 1.397 . S
C476 C481 1.363 . S
C477 H448 0.950 . S
C477 C476 1.397 . S
C477 C478 1.334 . S
C478 H449 0.950 . S
C478 C477 1.334 . S
C478 C479 1.287 . S
C479 C478 1.287 . S
C479 C480 1.524 . S
C479 H482 0.999 . S
C480 H450 0.950 . S
C480 C479 1.524 . S
C480 C481 1.415 . S
C481 H451 0.950 . S
C481 C476 1.363 . S
C481 C480 1.415 . S
H482 C479 0.999 . S
H483 C464 0.913 . S
H484 C502 0.951 . S
H485 C504 0.951 . S
H486 C506 0.950 . S
H487 C507 0.950 . S
H488 C509 0.950 . S
H489 C512 0.950 . S
H490 C513 0.950 1_554 S
H491 C515 0.950 . S
H492 C516 0.950 . S
H493 C517 0.951 . S
H494 C519 0.951 . S
H495 C521 0.950 . S
H496 C522 0.950 . S
H497 C524 0.950 . S
H498 C527 0.950 . S
H499 C528 0.950 . S
H500 C530 0.950 . S
H501 C531 0.950 . S
C502 H484 0.951 . S
C502 C503 1.366 1_556 S
C502 C504 1.388 . S
C503 C502 1.366 1_554 S
C503 C507 1.385 . S
C504 H485 0.951 . S
C504 C502 1.388 . S
C504 C505 1.366 . S
C505 C504 1.366 . S
C505 C506 1.414 1_556 S
C505 C508 1.499 . S
C506 H486 0.950 . S
C506 C505 1.414 1_554 S
C506 C507 1.374 . S
C507 H487 0.950 . S
C507 C503 1.385 . S
C507 C506 1.374 . S
C508 C505 1.499 . S
C508 C509 1.373 . S
C508 C510 1.389 . S
C509 H488 0.950 . S
C509 C508 1.373 . S
C509 C525 1.377 . S
C510 C508 1.389 . S
C510 C511 1.524 . S
C510 C524 1.377 . S
C511 C510 1.524 . S
C511 C512 1.397 . S
C511 C516 1.363 . S
C512 H489 0.950 . S
C512 C511 1.397 . S
C512 C513 1.334 . S
C513 H490 0.950 1_556 S
C513 C512 1.334 . S
C513 C514 1.287 . S
C514 C513 1.287 . S
C514 C515 1.524 . S
C514 H533 0.913 . S
C515 H491 0.950 . S
C515 C514 1.524 . S
C515 C516 1.415 . S
C516 H492 0.950 . S
C516 C511 1.363 . S
C516 C515 1.415 . S
C517 H493 0.951 . S
C517 C518 1.366 . S
C517 C519 1.388 . S
C518 C517 1.366 . S
C518 C522 1.385 . S
C519 H494 0.951 . S
C519 C517 1.388 . S
C519 C520 1.366 . S
C520 C519 1.366 . S
C520 C521 1.414 . S
C520 C523 1.499 . S
C521 H495 0.950 . S
C521 C520 1.414 . S
C521 C522 1.374 . S
C522 H496 0.950 . S
C522 C518 1.385 . S
C522 C521 1.374 . S
C523 C520 1.499 . S
C523 C524 1.373 . S
C523 C525 1.389 . S
C524 H497 0.950 . S
C524 C510 1.377 . S
C524 C523 1.373 . S
C525 C509 1.377 . S
C525 C523 1.389 . S
C525 C526 1.524 . S
C526 C525 1.524 . S
C526 C527 1.397 . S
C526 C531 1.363 . S
C527 H498 0.950 . S
C527 C526 1.397 . S
C527 C528 1.334 . S
C528 H499 0.950 . S
C528 C527 1.334 . S
C528 C529 1.287 . S
C529 C528 1.287 . S
C529 C530 1.524 . S
C529 H532 0.999 . S
C530 H500 0.950 . S
C530 C529 1.524 . S
C530 C531 1.415 . S
C531 H501 0.950 . S
C531 C526 1.363 . S
C531 C530 1.415 . S
H532 C529 0.999 . S
H533 C514 0.913 . S
H534 C552 0.951 . S
H535 C554 0.951 . S
H536 C556 0.950 1_554 S
H537 C557 0.954 . S
H538 C559 0.950 1_455 S
H539 C562 0.950 . S
H540 C563 0.950 . S
H541 C565 0.950 . S
H542 C566 0.950 . S
H543 C567 0.951 . S
H544 C569 0.967 . S
H545 C571 0.950 . S
H546 C572 0.950 . S
H547 C574 0.950 . S
H548 C577 0.950 . S
H549 C578 0.950 . S
H550 C580 0.950 . S
H551 C581 0.950 . S
C552 H534 0.951 . S
C552 C553 1.366 . S
C552 C554 1.388 . S
C553 C552 1.366 . S
C553 C557 1.382 1_556 S
C554 H535 0.951 . S
C554 C552 1.388 . S
C554 C555 1.366 . S
C555 C554 1.366 . S
C555 C556 1.414 . S
C555 C558 1.499 . S
C556 H536 0.950 1_556 S
C556 C555 1.414 . S
C556 C557 1.373 1_556 S
C557 H537 0.954 . S
C557 C553 1.382 1_554 S
C557 C556 1.373 1_554 S
C558 C555 1.499 . S
C558 C559 1.373 . S
C558 C560 1.389 . S
C559 H538 0.950 1_655 S
C559 C558 1.373 . S
C559 C575 1.372 1_655 S
C560 C558 1.389 . S
C560 C561 1.524 . S
C560 C574 1.377 . S
C561 C560 1.524 . S
C561 C562 1.397 . S
C561 C566 1.363 . S
C562 H539 0.950 . S
C562 C561 1.397 . S
C562 C563 1.334 . S
C563 H540 0.950 . S
C563 C562 1.334 . S
C563 C564 1.287 . S
C564 C563 1.287 . S
C564 C565 1.524 . S
C564 H583 0.913 . S
C565 H541 0.950 . S
C565 C564 1.524 . S
C565 C566 1.415 . S
C566 H542 0.950 . S
C566 C561 1.363 . S
C566 C565 1.415 . S
C567 H543 0.951 . S
C567 C568 1.366 1_455 S
C567 C569 1.398 . S
C568 C567 1.366 1_655 S
C568 C572 1.385 . S
C569 H544 0.967 . S
C569 C567 1.398 . S
C569 C570 1.342 1_455 S
C570 C569 1.342 1_655 S
C570 C571 1.414 . S
C570 C573 1.499 . S
C571 H545 0.950 . S
C571 C570 1.414 . S
C571 C572 1.374 . S
C572 H546 0.950 . S
C572 C568 1.385 . S
C572 C571 1.374 . S
C573 C570 1.499 . S
C573 C574 1.373 . S
C573 C575 1.378 1_655 S
C574 H547 0.950 . S
C574 C560 1.377 . S
C574 C573 1.373 . S
C575 C559 1.372 1_455 S
C575 C573 1.378 1_455 S
C575 C576 1.541 . S
C576 C575 1.541 . S
C576 C577 1.397 . S
C576 C581 1.363 . S
C577 H548 0.950 . S
C577 C576 1.397 . S
C577 C578 1.334 . S
C578 H549 0.950 . S
C578 C577 1.334 . S
C578 C579 1.287 . S
C579 C578 1.287 . S
C579 C580 1.524 . S
C579 H582 0.999 . S
C580 H550 0.950 . S
C580 C579 1.524 . S
C580 C581 1.415 . S
C581 H551 0.950 . S
C581 C576 1.363 . S
C581 C580 1.415 . S
H582 C579 0.999 . S
H583 C564 0.913 . S
H584 C602 0.951 . S
H585 C604 0.951 . S
H586 C606 0.950 . S
H587 C607 0.950 . S
H588 C609 0.950 . S
H589 C612 0.950 . S
H590 C613 0.950 . S
H591 C615 0.950 . S
H592 C616 0.950 . S
H593 C617 0.951 . S
H594 C619 0.951 1_655 S
H595 C621 0.950 . S
H596 C622 0.950 . S
H597 C624 0.950 . S
H598 C627 0.950 . S
H599 C628 0.950 . S
H600 C630 0.950 . S
H601 C631 0.950 . S
C602 H584 0.951 . S
C602 C603 1.366 . S
C602 C604 1.388 . S
C603 C602 1.366 . S
C603 C607 1.385 . S
C604 H585 0.951 . S
C604 C602 1.388 . S
C604 C605 1.366 . S
C605 C604 1.366 . S
C605 C606 1.414 . S
C605 C608 1.499 . S
C606 H586 0.950 . S
C606 C605 1.414 . S
C606 C607 1.374 . S
C607 H587 0.950 . S
C607 C603 1.385 . S
C607 C606 1.374 . S
C608 C605 1.499 . S
C608 C609 1.373 . S
C608 C610 1.389 . S
C609 H588 0.950 . S
C609 C608 1.373 . S
C609 C625 1.377 . S
C610 C608 1.389 . S
C610 C611 1.524 . S
C610 C624 1.377 . S
C611 C610 1.524 . S
C611 C612 1.397 . S
C611 C616 1.363 . S
C612 H589 0.950 . S
C612 C611 1.397 . S
C612 C613 1.334 . S
C613 H590 0.950 . S
C613 C612 1.334 . S
C613 C614 1.287 . S
C614 C613 1.287 . S
C614 C615 1.524 . S
C614 H633 0.913 . S
C615 H591 0.950 . S
C615 C614 1.524 . S
C615 C616 1.415 . S
C616 H592 0.950 . S
C616 C611 1.363 . S
C616 C615 1.415 . S
C617 H593 0.951 . S
C617 C618 1.366 1_655 S
C617 C619 1.388 1_655 S
C618 C617 1.366 1_455 S
C618 C622 1.385 . S
C619 H594 0.951 1_455 S
C619 C617 1.388 1_455 S
C619 C620 1.366 . S
C620 C619 1.366 . S
C620 C621 1.414 . S
C620 C623 1.499 . S
C621 H595 0.950 . S
C621 C620 1.414 . S
C621 C622 1.374 . S
C622 H596 0.950 . S
C622 C618 1.385 . S
C622 C621 1.374 . S
C623 C620 1.499 . S
C623 C624 1.373 . S
C623 C625 1.389 . S
C624 H597 0.950 . S
C624 C610 1.377 . S
C624 C623 1.373 . S
C625 C609 1.377 . S
C625 C623 1.389 . S
C625 C626 1.524 . S
C626 C625 1.524 . S
C626 C627 1.397 . S
C626 C631 1.363 1_455 S
C627 H598 0.950 . S
C627 C626 1.397 . S
C627 C628 1.334 . S
C628 H599 0.950 . S
C628 C627 1.334 . S
C628 C629 1.287 . S
C629 C628 1.287 . S
C629 C630 1.524 1_455 S
C629 H632 0.999 1_455 S
C630 H600 0.950 . S
C630 C629 1.524 1_655 S
C630 C631 1.415 . S
C631 H601 0.950 . S
C631 C626 1.363 1_655 S
C631 C630 1.415 . S
H632 C629 0.999 1_655 S
H633 C614 0.913 . S
H634 C652 0.951 . S
H635 C654 0.951 . S
H636 C656 0.950 . S
H637 C657 0.950 . S
H638 C659 0.950 . S
H639 C662 0.950 . S
H640 C663 0.950 . S
H641 C665 0.950 . S
H642 C666 0.950 . S
H643 C667 0.951 . S
H644 C669 0.951 . S
H645 C671 0.950 . S
H646 C672 0.950 . S
H647 C674 0.950 . S
H648 C677 0.950 . S
H649 C678 0.950 . S
H650 C680 0.950 . S
H651 C681 0.950 . S
C652 H634 0.951 . S
C652 C653 1.366 . S
C652 C654 1.388 . S
C653 C652 1.366 . S
C653 C657 1.385 . S
C654 H635 0.951 . S
C654 C652 1.388 . S
C654 C655 1.366 . S
C655 C654 1.366 . S
C655 C656 1.414 . S
C655 C658 1.499 . S
C656 H636 0.950 . S
C656 C655 1.414 . S
C656 C657 1.374 . S
C657 H637 0.950 . S
C657 C653 1.385 . S
C657 C656 1.374 . S
C658 C655 1.499 . S
C658 C659 1.373 . S
C658 C660 1.389 . S
C659 H638 0.950 . S
C659 C658 1.373 . S
C659 C675 1.377 . S
C660 C658 1.389 . S
C660 C661 1.524 . S
C660 C674 1.377 . S
C661 C660 1.524 . S
C661 C662 1.397 . S
C661 C666 1.363 . S
C662 H639 0.950 . S
C662 C661 1.397 . S
C662 C663 1.334 . S
C663 H640 0.950 . S
C663 C662 1.334 . S
C663 C664 1.287 . S
C664 C663 1.287 . S
C664 C665 1.524 . S
C664 H683 0.913 . S
C665 H641 0.950 . S
C665 C664 1.524 . S
C665 C666 1.415 . S
C666 H642 0.950 . S
C666 C661 1.363 . S
C666 C665 1.415 . S
C667 H643 0.951 . S
C667 C668 1.366 . S
C667 C669 1.388 . S
C668 C667 1.366 . S
C668 C672 1.385 . S
C669 H644 0.951 . S
C669 C667 1.388 . S
C669 C670 1.366 . S
C670 C669 1.366 . S
C670 C671 1.414 . S
C670 C673 1.499 . S
C671 H645 0.950 . S
C671 C670 1.414 . S
C671 C672 1.374 . S
C672 H646 0.950 . S
C672 C668 1.385 . S
C672 C671 1.374 . S
C673 C670 1.499 . S
C673 C674 1.373 . S
C673 C675 1.389 . S
C674 H647 0.950 . S
C674 C660 1.377 . S
C674 C673 1.373 . S
C675 C659 1.377 . S
C675 C673 1.389 . S
C675 C676 1.524 . S
C676 C675 1.524 . S
C676 C677 1.397 1_545 S
C676 C681 1.363 . S
C677 H648 0.950 . S
C677 C676 1.397 1_565 S
C677 C678 1.334 . S
C678 H649 0.950 . S
C678 C677 1.334 . S
C678 C679 1.287 . S
C679 C678 1.287 . S
C679 C680 1.524 1_565 S
C679 H682 0.999 . S
C680 H650 0.950 . S
C680 C679 1.524 1_545 S
C680 C681 1.415 . S
C681 H651 0.950 . S
C681 C676 1.363 . S
C681 C680 1.415 . S
H682 C679 0.999 . S
H683 C664 0.913 . S
H684 C702 0.951 . S
H685 C704 0.951 . S
H686 C706 0.950 . S
H687 C707 0.950 . S
H688 C709 0.950 . S
H689 C712 0.950 . S
H690 C713 0.950 . S
H691 C715 0.950 . S
H692 C716 0.950 . S
H693 C717 0.951 . S
H694 C719 0.951 . S
H695 C721 0.950 . S
H696 C722 0.950 . S
H697 C724 0.950 . S
H698 C727 0.950 . S
H699 C728 0.950 . S
H700 C730 0.950 . S
H701 C731 0.950 . S
C702 H684 0.951 . S
C702 C703 1.366 . S
C702 C704 1.388 . S
C703 C702 1.366 . S
C703 C707 1.385 . S
C704 H685 0.951 . S
C704 C702 1.388 . S
C704 C705 1.366 . S
C705 C704 1.366 . S
C705 C706 1.414 . S
C705 C708 1.499 . S
C706 H686 0.950 . S
C706 C705 1.414 . S
C706 C707 1.374 . S
C707 H687 0.950 . S
C707 C703 1.385 . S
C707 C706 1.374 . S
C708 C705 1.499 . S
C708 C709 1.373 . S
C708 C710 1.389 . S
C709 H688 0.950 . S
C709 C708 1.373 . S
C709 C725 1.377 . S
C710 C708 1.389 . S
C710 C711 1.524 . S
C710 C724 1.377 . S
C711 C710 1.524 . S
C711 C712 1.397 . S
C711 C716 1.363 . S
C712 H689 0.950 . S
C712 C711 1.397 . S
C712 C713 1.334 . S
C713 H690 0.950 . S
C713 C712 1.334 . S
C713 C714 1.287 . S
C714 C713 1.287 . S
C714 C715 1.524 . S
C714 H733 0.913 . S
C715 H691 0.950 . S
C715 C714 1.524 . S
C715 C716 1.415 . S
C716 H692 0.950 . S
C716 C711 1.363 . S
C716 C715 1.415 . S
C717 H693 0.951 . S
C717 C718 1.366 . S
C717 C719 1.388 . S
C718 C717 1.366 . S
C718 C722 1.385 . S
C719 H694 0.951 . S
C719 C717 1.388 . S
C719 C720 1.366 . S
C720 C719 1.366 . S
C720 C721 1.414 . S
C720 C723 1.499 . S
C721 H695 0.950 . S
C721 C720 1.414 . S
C721 C722 1.374 . S
C722 H696 0.950 . S
C722 C718 1.385 . S
C722 C721 1.374 . S
C723 C720 1.499 . S
C723 C724 1.373 . S
C723 C725 1.389 . S
C724 H697 0.950 . S
C724 C710 1.377 . S
C724 C723 1.373 . S
C725 C709 1.377 . S
C725 C723 1.389 . S
C725 C726 1.524 . S
C726 C725 1.524 . S
C726 C727 1.397 . S
C726 C731 1.363 . S
C727 H698 0.950 . S
C727 C726 1.397 . S
C727 C728 1.334 . S
C728 H699 0.950 . S
C728 C727 1.334 . S
C728 C729 1.287 . S
C729 C728 1.287 . S
C729 C730 1.524 . S
C729 H732 0.999 . S
C730 H700 0.950 . S
C730 C729 1.524 . S
C730 C731 1.415 . S
C731 H701 0.950 . S
C731 C726 1.363 . S
C731 C730 1.415 . S
H732 C729 0.999 . S
H733 C714 0.913 . S
H734 C752 0.951 . S
H735 C754 0.951 . S
H736 C756 0.950 . S
H737 C757 0.950 . S
H738 C759 0.950 . S
H739 C762 0.950 . S
H740 C763 0.950 . S
H741 C765 0.950 . S
H742 C766 0.950 . S
H743 C767 0.951 . S
H744 C769 0.951 . S
H745 C771 0.950 . S
H746 C772 0.950 . S
H747 C774 0.950 . S
H748 C777 0.950 . S
H749 C778 0.950 . S
H750 C780 0.950 . S
H751 C781 0.950 . S
C752 H734 0.951 . S
C752 C753 1.366 . S
C752 C754 1.388 . S
C753 C752 1.366 . S
C753 C757 1.385 . S
C754 H735 0.951 . S
C754 C752 1.388 . S
C754 C755 1.366 . S
C755 C754 1.366 . S
C755 C756 1.414 . S
C755 C758 1.499 . S
C756 H736 0.950 . S
C756 C755 1.414 . S
C756 C757 1.374 . S
C757 H737 0.950 . S
C757 C753 1.385 . S
C757 C756 1.374 . S
C758 C755 1.499 . S
C758 C759 1.373 . S
C758 C760 1.389 . S
C759 H738 0.950 . S
C759 C758 1.373 . S
C759 C775 1.377 . S
C760 C758 1.389 . S
C760 C761 1.524 . S
C760 C774 1.377 . S
C761 C760 1.524 . S
C761 C762 1.397 . S
C761 C766 1.363 . S
C762 H739 0.950 . S
C762 C761 1.397 . S
C762 C763 1.334 . S
C763 H740 0.950 . S
C763 C762 1.334 . S
C763 C764 1.287 . S
C764 C763 1.287 . S
C764 C765 1.524 . S
C764 H783 0.913 . S
C765 H741 0.950 . S
C765 C764 1.524 . S
C765 C766 1.415 . S
C766 H742 0.950 . S
C766 C761 1.363 . S
C766 C765 1.415 . S
C767 H743 0.951 . S
C767 C768 1.366 . S
C767 C769 1.388 . S
C768 C767 1.366 . S
C768 C772 1.385 . S
C769 H744 0.951 . S
C769 C767 1.388 . S
C769 C770 1.366 . S
C770 C769 1.366 . S
C770 C771 1.414 . S
C770 C773 1.499 . S
C771 H745 0.950 . S
C771 C770 1.414 . S
C771 C772 1.374 . S
C772 H746 0.950 . S
C772 C768 1.385 . S
C772 C771 1.374 . S
C773 C770 1.499 . S
C773 C774 1.373 . S
C773 C775 1.389 . S
C774 H747 0.950 . S
C774 C760 1.377 . S
C774 C773 1.373 . S
C775 C759 1.377 . S
C775 C773 1.389 . S
C775 C776 1.524 . S
C776 C775 1.524 . S
C776 C777 1.397 . S
C776 C781 1.363 . S
C777 H748 0.950 . S
C777 C776 1.397 . S
C777 C778 1.334 . S
C778 H749 0.950 . S
C778 C777 1.334 . S
C778 C779 1.287 . S
C779 C778 1.287 . S
C779 C780 1.524 . S
C779 H782 0.999 . S
C780 H750 0.950 . S
C780 C779 1.524 . S
C780 C781 1.415 . S
C781 H751 0.950 . S
C781 C776 1.363 . S
C781 C780 1.415 . S
H782 C779 0.999 . S
H783 C764 0.913 . S
H784 C802 0.951 . S
H785 C804 0.951 . S
H786 C806 0.931 1_455 S
H787 C807 0.950 . S
H788 C809 0.950 1_455 S
H789 C812 0.950 . S
H790 C813 0.950 . S
H791 C815 0.950 . S
H792 C816 0.950 . S
H793 C817 0.951 . S
H794 C819 0.951 . S
H795 C821 0.950 . S
H796 C822 0.950 . S
H797 C824 0.950 . S
H798 C827 0.950 1_655 S
H799 C828 0.950 . S
H800 C830 0.950 . S
H801 C831 0.950 . S
C802 H784 0.951 . S
C802 C803 1.366 . S
C802 C804 1.388 . S
C803 C802 1.366 . S
C803 C807 1.385 . S
C804 H785 0.951 . S
C804 C802 1.388 . S
C804 C805 1.366 . S
C805 C804 1.366 . S
C805 C806 1.414 . S
C805 C808 1.499 . S
C806 H786 0.931 1_655 S
C806 C805 1.414 . S
C806 C807 1.374 . S
C807 H787 0.950 . S
C807 C803 1.385 . S
C807 C806 1.374 . S
C808 C805 1.499 . S
C808 C809 1.373 . S
C808 C810 1.389 . S
C809 H788 0.950 1_655 S
C809 C808 1.373 . S
C809 C825 1.377 . S
C810 C808 1.389 . S
C810 C811 1.524 . S
C810 C824 1.377 . S
C811 C810 1.524 . S
C811 C812 1.397 . S
C811 C816 1.363 . S
C812 H789 0.950 . S
C812 C811 1.397 . S
C812 C813 1.334 . S
C813 H790 0.950 . S
C813 C812 1.334 . S
C813 C814 1.287 . S
C814 C813 1.287 . S
C814 C815 1.524 . S
C814 H833 0.913 . S
C815 H791 0.950 . S
C815 C814 1.524 . S
C815 C816 1.415 . S
C816 H792 0.950 . S
C816 C811 1.363 . S
C816 C815 1.415 . S
C817 H793 0.951 . S
C817 C818 1.353 1_455 S
C817 C819 1.388 . S
C818 C817 1.353 1_655 S
C818 C822 1.400 . S
C819 H794 0.951 . S
C819 C817 1.388 . S
C819 C820 1.366 1_455 S
C820 C819 1.366 1_655 S
C820 C821 1.414 . S
C820 C823 1.499 . S
C821 H795 0.950 . S
C821 C820 1.414 . S
C821 C822 1.374 . S
C822 H796 0.950 . S
C822 C818 1.400 . S
C822 C821 1.374 . S
C823 C820 1.499 . S
C823 C824 1.373 . S
C823 C825 1.389 . S
C824 H797 0.950 . S
C824 C810 1.377 . S
C824 C823 1.373 . S
C825 C809 1.377 . S
C825 C823 1.389 . S
C825 C826 1.524 1_655 S
C826 C825 1.524 1_455 S
C826 C827 1.397 . S
C826 C831 1.363 . S
C827 H798 0.950 1_455 S
C827 C826 1.397 . S
C827 C828 1.334 . S
C828 H799 0.950 . S
C828 C827 1.334 . S
C828 C829 1.287 . S
C829 C828 1.287 . S
C829 C830 1.524 . S
C829 H832 1.003 . S
C830 H800 0.950 . S
C830 C829 1.524 . S
C830 C831 1.415 . S
C831 H801 0.950 . S
C831 C826 1.363 . S
C831 C830 1.415 . S
H832 C829 1.003 . S
H833 C814 0.913 . S
H834 C852 0.951 . S
H835 C854 0.951 . S
H836 C856 0.950 . S
H837 C857 0.950 . S
H838 C859 0.950 . S
H839 C862 0.950 1_556 S
H840 C863 0.950 . S
H841 C865 0.950 . S
H842 C866 0.950 . S
H843 C867 0.951 . S
H844 C869 0.951 . S
H845 C871 0.950 . S
H846 C872 0.950 . S
H847 C874 0.950 . S
H848 C877 0.950 . S
H849 C878 0.950 . S
H850 C880 0.950 1_565 S
H851 C881 0.950 . S
C852 H834 0.951 . S
C852 C853 1.366 1_554 S
C852 C854 1.388 . S
C853 C852 1.366 1_556 S
C853 C857 1.385 . S
C854 H835 0.951 . S
C854 C852 1.388 . S
C854 C855 1.366 1_554 S
C855 C854 1.366 1_556 S
C855 C856 1.414 . S
C855 C858 1.499 . S
C856 H836 0.950 . S
C856 C855 1.414 . S
C856 C857 1.374 . S
C857 H837 0.950 . S
C857 C853 1.385 . S
C857 C856 1.374 . S
C858 C855 1.499 . S
C858 C859 1.373 . S
C858 C860 1.389 . S
C859 H838 0.950 . S
C859 C858 1.373 . S
C859 C875 1.377 . S
C860 C858 1.389 . S
C860 C861 1.524 1_556 S
C860 C874 1.377 . S
C861 C860 1.524 1_554 S
C861 C862 1.397 . S
C861 C866 1.363 . S
C862 H839 0.950 1_554 S
C862 C861 1.397 . S
C862 C863 1.334 . S
C863 H840 0.950 . S
C863 C862 1.334 . S
C863 C864 1.287 . S
C864 C863 1.287 . S
C864 C865 1.524 . S
C864 H883 0.913 . S
C865 H841 0.950 . S
C865 C864 1.524 . S
C865 C866 1.415 . S
C866 H842 0.950 . S
C866 C861 1.363 . S
C866 C865 1.415 . S
C867 H843 0.951 . S
C867 C868 1.361 1_565 S
C867 C869 1.388 . S
C868 C867 1.361 1_545 S
C868 C872 1.387 . S
C869 H844 0.951 . S
C869 C867 1.388 . S
C869 C870 1.366 . S
C870 C869 1.366 . S
C870 C871 1.414 1_565 S
C870 C873 1.499 . S
C871 H845 0.950 . S
C871 C870 1.414 1_545 S
C871 C872 1.374 . S
C872 H846 0.950 . S
C872 C868 1.387 . S
C872 C871 1.374 . S
C873 C870 1.499 . S
C873 C874 1.373 . S
C873 C875 1.389 . S
C874 H847 0.950 . S
C874 C860 1.377 . S
C874 C873 1.373 . S
C875 C859 1.377 . S
C875 C873 1.389 . S
C875 C876 1.520 1_565 S
C876 C875 1.520 1_545 S
C876 C877 1.405 . S
C876 C881 1.359 1_545 S
C877 H848 0.950 . S
C877 C876 1.405 . S
C877 C878 1.334 . S
C878 H849 0.950 . S
C878 C877 1.334 . S
C878 C879 1.287 . S
C879 C878 1.287 . S
C879 C880 1.524 . S
C879 H882 0.999 . S
C880 H850 0.950 1_545 S
C880 C879 1.524 . S
C880 C881 1.415 1_545 S
C881 H851 0.950 . S
C881 C876 1.359 1_565 S
C881 C880 1.415 1_565 S
H882 C879 0.999 . S
H883 C864 0.913 . S
H884 C902 0.951 . S
H885 C904 0.951 . S
H886 C906 0.950 . S
H887 C907 0.950 . S
H888 C909 0.950 . S
H889 C912 0.950 . S
H890 C913 0.950 . S
H891 C915 0.950 . S
H892 C916 0.950 . S
H893 C917 0.951 . S
H894 C919 0.951 . S
H895 C921 0.950 . S
H896 C922 0.950 . S
H897 C924 0.950 . S
H898 C927 0.950 . S
H899 C928 0.950 . S
H900 C930 0.950 . S
H901 C931 0.950 . S
C902 H884 0.951 . S
C902 C903 1.366 1_556 S
C902 C904 1.388 . S
C903 C902 1.366 1_554 S
C903 C907 1.385 . S
C904 H885 0.951 . S
C904 C902 1.388 . S
C904 C905 1.366 . S
C905 C904 1.366 . S
C905 C906 1.414 1_556 S
C905 C908 1.499 . S
C906 H886 0.950 . S
C906 C905 1.414 1_554 S
C906 C907 1.374 . S
C907 H887 0.950 . S
C907 C903 1.385 . S
C907 C906 1.374 . S
C908 C905 1.499 . S
C908 C909 1.373 . S
C908 C910 1.389 . S
C909 H888 0.950 . S
C909 C908 1.373 . S
C909 C925 1.377 . S
C910 C908 1.389 . S
C910 C911 1.524 . S
C910 C924 1.377 . S
C911 C910 1.524 . S
C911 C912 1.397 . S
C911 C916 1.363 . S
C912 H889 0.950 . S
C912 C911 1.397 . S
C912 C913 1.334 . S
C913 H890 0.950 . S
C913 C912 1.334 . S
C913 C914 1.287 . S
C914 C913 1.287 . S
C914 C915 1.524 . S
C914 H933 0.913 . S
C915 H891 0.950 . S
C915 C914 1.524 . S
C915 C916 1.415 . S
C916 H892 0.950 . S
C916 C911 1.363 . S
C916 C915 1.415 . S
C917 H893 0.951 . S
C917 C918 1.366 . S
C917 C919 1.388 . S
C918 C917 1.366 . S
C918 C922 1.385 . S
C919 H894 0.951 . S
C919 C917 1.388 . S
C919 C920 1.366 . S
C920 C919 1.366 . S
C920 C921 1.414 . S
C920 C923 1.499 . S
C921 H895 0.950 . S
C921 C920 1.414 . S
C921 C922 1.374 . S
C922 H896 0.950 . S
C922 C918 1.385 . S
C922 C921 1.374 . S
C923 C920 1.499 . S
C923 C924 1.373 . S
C923 C925 1.389 . S
C924 H897 0.950 . S
C924 C910 1.377 . S
C924 C923 1.373 . S
C925 C909 1.377 . S
C925 C923 1.389 . S
C925 C926 1.524 . S
C926 C925 1.524 . S
C926 C927 1.397 . S
C926 C931 1.363 1_556 S
C927 H898 0.950 . S
C927 C926 1.397 . S
C927 C928 1.334 . S
C928 H899 0.950 . S
C928 C927 1.334 . S
C928 C929 1.287 1_556 S
C929 C928 1.287 1_554 S
C929 C930 1.524 . S
C929 H932 0.999 . S
C930 H900 0.950 . S
C930 C929 1.524 . S
C930 C931 1.415 . S
C931 H901 0.950 . S
C931 C926 1.363 1_554 S
C931 C930 1.415 . S
H932 C929 0.999 . S
H933 C914 0.913 . S
H934 C952 0.951 . S
H935 C954 0.951 . S
H936 C956 0.950 . S
H937 C957 0.950 . S
H938 C959 0.950 . S
H939 C962 0.950 . S
H940 C963 0.950 . S
H941 C965 0.950 . S
H942 C966 0.950 . S
H943 C967 0.951 . S
H944 C969 0.951 . S
H945 C971 0.950 . S
H946 C972 0.950 . S
H947 C974 0.950 . S
H948 C977 0.950 . S
H949 C978 0.950 . S
H950 C980 0.950 . S
H951 C981 0.950 . S
C952 H934 0.951 . S
C952 C953 1.366 1_554 S
C952 C954 1.388 1_554 S
C953 C952 1.366 1_556 S
C953 C957 1.385 . S
C954 H935 0.951 . S
C954 C952 1.388 1_556 S
C954 C955 1.366 . S
C955 C954 1.366 . S
C955 C956 1.414 . S
C955 C958 1.499 . S
C956 H936 0.950 . S
C956 C955 1.414 . S
C956 C957 1.374 . S
C957 H937 0.950 . S
C957 C953 1.385 . S
C957 C956 1.374 . S
C958 C955 1.499 . S
C958 C959 1.373 . S
C958 C960 1.389 . S
C959 H938 0.950 . S
C959 C958 1.373 . S
C959 C975 1.377 . S
C960 C958 1.389 . S
C960 C961 1.524 . S
C960 C974 1.377 . S
C961 C960 1.524 . S
C961 C962 1.397 . S
C961 C966 1.363 . S
C962 H939 0.950 . S
C962 C961 1.397 . S
C962 C963 1.334 . S
C963 H940 0.950 . S
C963 C962 1.334 . S
C963 C964 1.287 . S
C964 C963 1.287 . S
C964 C965 1.524 . S
C964 H983 0.913 . S
C965 H941 0.950 . S
C965 C964 1.524 . S
C965 C966 1.415 . S
C966 H942 0.950 . S
C966 C961 1.363 . S
C966 C965 1.415 . S
C967 H943 0.951 . S
C967 C968 1.366 . S
C967 C969 1.388 . S
C968 C967 1.366 . S
C968 C972 1.385 . S
C969 H944 0.951 . S
C969 C967 1.388 . S
C969 C970 1.366 . S
C970 C969 1.366 . S
C970 C971 1.414 . S
C970 C973 1.499 . S
C971 H945 0.950 . S
C971 C970 1.414 . S
C971 C972 1.374 . S
C972 H946 0.950 . S
C972 C968 1.385 . S
C972 C971 1.374 . S
C973 C970 1.499 . S
C973 C974 1.373 . S
C973 C975 1.389 . S
C974 H947 0.950 . S
C974 C960 1.377 . S
C974 C973 1.373 . S
C975 C959 1.377 . S
C975 C973 1.389 . S
C975 C976 1.524 . S
C976 C975 1.524 . S
C976 C977 1.397 . S
C976 C981 1.363 . S
C977 H948 0.950 . S
C977 C976 1.397 . S
C977 C978 1.334 . S
C978 H949 0.950 . S
C978 C977 1.334 . S
C978 C979 1.287 . S
C979 C978 1.287 . S
C979 C980 1.524 . S
C979 H982 0.999 . S
C980 H950 0.950 . S
C980 C979 1.524 . S
C980 C981 1.415 . S
C981 H951 0.950 . S
C981 C976 1.363 . S
C981 C980 1.415 . S
H982 C979 0.999 . S
H983 C964 0.913 . S
H984 C1002 0.951 . S
H985 C1004 0.951 . S
H986 C1006 0.950 . S
H987 C1007 0.950 . S
H988 C1009 0.950 . S
H989 C1012 0.950 . S
H990 C1013 0.950 . S
H991 C1015 0.950 . S
H992 C1016 0.950 . S
H993 C1017 0.951 . S
H994 C1019 0.951 . S
H995 C1021 0.950 1_554 S
H996 C1022 0.950 . S
H997 C1024 0.950 . S
H998 C1027 0.950 1_655 S
H999 C1028 0.950 . S
H1000 C1030 0.950 . S
H1001 C1031 0.950 . S
C1002 H984 0.951 . S
C1002 C1003 1.366 . S
C1002 C1004 1.388 . S
C1003 C1002 1.366 . S
C1003 C1007 1.385 . S
C1004 H985 0.951 . S
C1004 C1002 1.388 . S
C1004 C1005 1.366 . S
C1005 C1004 1.366 . S
C1005 C1006 1.414 . S
C1005 C1008 1.499 . S
C1006 H986 0.950 . S
C1006 C1005 1.414 . S
C1006 C1007 1.374 . S
C1007 H987 0.950 . S
C1007 C1003 1.385 . S
C1007 C1006 1.374 . S
C1008 C1005 1.499 . S
C1008 C1009 1.373 . S
C1008 C1010 1.389 . S
C1009 H988 0.950 . S
C1009 C1008 1.373 . S
C1009 C1025 1.377 1_554 S
C1010 C1008 1.389 . S
C1010 C1011 1.524 . S
C1010 C1024 1.377 . S
C1011 C1010 1.524 . S
C1011 C1012 1.397 . S
C1011 C1016 1.363 . S
C1012 H989 0.950 . S
C1012 C1011 1.397 . S
C1012 C1013 1.334 . S
C1013 H990 0.950 . S
C1013 C1012 1.334 . S
C1013 C1014 1.287 . S
C1014 C1013 1.287 . S
C1014 C1015 1.524 . S
C1014 H1033 0.913 . S
C1015 H991 0.950 . S
C1015 C1014 1.524 . S
C1015 C1016 1.415 . S
C1016 H992 0.950 . S
C1016 C1011 1.363 . S
C1016 C1015 1.415 . S
C1017 H993 0.951 . S
C1017 C1018 1.366 . S
C1017 C1019 1.388 . S
C1018 C1017 1.366 . S
C1018 C1022 1.385 . S
C1019 H994 0.951 . S
C1019 C1017 1.388 . S
C1019 C1020 1.366 . S
C1020 C1019 1.366 . S
C1020 C1021 1.414 . S
C1020 C1023 1.499 . S
C1021 H995 0.950 1_556 S
C1021 C1020 1.414 . S
C1021 C1022 1.374 . S
C1022 H996 0.950 . S
C1022 C1018 1.385 . S
C1022 C1021 1.374 . S
C1023 C1020 1.499 . S
C1023 C1024 1.373 1_556 S
C1023 C1025 1.389 . S
C1024 H997 0.950 . S
C1024 C1010 1.377 . S
C1024 C1023 1.373 1_554 S
C1025 C1009 1.377 1_556 S
C1025 C1023 1.389 . S
C1025 C1026 1.524 . S
C1026 C1025 1.524 . S
C1026 C1027 1.397 . S
C1026 C1031 1.363 . S
C1027 H998 0.950 1_455 S
C1027 C1026 1.397 . S
C1027 C1028 1.334 1_455 S
C1028 H999 0.950 . S
C1028 C1027 1.334 1_655 S
C1028 C1029 1.287 1_655 S
C1029 C1028 1.287 1_455 S
C1029 C1030 1.524 . S
C1029 H1032 1.008 . S
C1030 H1000 0.950 . S
C1030 C1029 1.524 . S
C1030 C1031 1.415 . S
C1031 H1001 0.950 . S
C1031 C1026 1.363 . S
C1031 C1030 1.415 . S
H1032 C1029 1.008 . S
H1033 C1014 0.913 . S
H1034 C1052 0.951 . S
H1035 C1054 0.951 . S
H1036 C1056 0.950 . S
H1037 C1057 0.950 . S
H1038 C1059 0.950 . S
H1039 C1062 0.950 . S
H1040 C1063 0.950 . S
H1041 C1065 0.950 . S
H1042 C1066 0.950 . S
H1043 C1067 0.951 . S
H1044 C1069 0.951 . S
H1045 C1071 0.950 . S
H1046 C1072 0.950 . S
H1047 C1074 0.950 1_556 S
H1048 C1077 0.950 . S
H1049 C1078 0.950 . S
H1050 C1080 0.950 . S
H1051 C1081 0.950 . S
C1052 H1034 0.951 . S
C1052 C1053 1.366 . S
C1052 C1054 1.388 . S
C1053 C1052 1.366 . S
C1053 C1057 1.385 . S
C1054 H1035 0.951 . S
C1054 C1052 1.388 . S
C1054 C1055 1.366 . S
C1055 C1054 1.366 . S
C1055 C1056 1.414 . S
C1055 C1058 1.499 . S
C1056 H1036 0.950 . S
C1056 C1055 1.414 . S
C1056 C1057 1.374 . S
C1057 H1037 0.950 . S
C1057 C1053 1.385 . S
C1057 C1056 1.374 . S
C1058 C1055 1.499 . S
C1058 C1059 1.373 . S
C1058 C1060 1.389 . S
C1059 H1038 0.950 . S
C1059 C1058 1.373 . S
C1059 C1075 1.377 1_554 S
C1060 C1058 1.389 . S
C1060 C1061 1.524 . S
C1060 C1074 1.377 . S
C1061 C1060 1.524 . S
C1061 C1062 1.397 . S
C1061 C1066 1.363 . S
C1062 H1039 0.950 . S
C1062 C1061 1.397 . S
C1062 C1063 1.334 . S
C1063 H1040 0.950 . S
C1063 C1062 1.334 . S
C1063 C1064 1.287 . S
C1064 C1063 1.287 . S
C1064 C1065 1.524 . S
C1064 H1083 0.913 . S
C1065 H1041 0.950 . S
C1065 C1064 1.524 . S
C1065 C1066 1.415 . S
C1066 H1042 0.950 . S
C1066 C1061 1.363 . S
C1066 C1065 1.415 . S
C1067 H1043 0.951 . S
C1067 C1068 1.366 . S
C1067 C1069 1.388 . S
C1068 C1067 1.366 . S
C1068 C1072 1.385 . S
C1069 H1044 0.951 . S
C1069 C1067 1.388 . S
C1069 C1070 1.366 . S
C1070 C1069 1.366 . S
C1070 C1071 1.414 . S
C1070 C1073 1.499 . S
C1071 H1045 0.950 . S
C1071 C1070 1.414 . S
C1071 C1072 1.374 . S
C1072 H1046 0.950 . S
C1072 C1068 1.385 . S
C1072 C1071 1.374 . S
C1073 C1070 1.499 . S
C1073 C1074 1.373 1_556 S
C1073 C1075 1.389 . S
C1074 H1047 0.950 1_554 S
C1074 C1060 1.377 . S
C1074 C1073 1.373 1_554 S
C1075 C1059 1.377 1_556 S
C1075 C1073 1.389 . S
C1075 C1076 1.524 1_545 S
C1076 C1075 1.524 1_565 S
C1076 C1077 1.397 . S
C1076 C1081 1.363 . S
C1077 H1048 0.950 . S
C1077 C1076 1.397 . S
C1077 C1078 1.334 . S
C1078 H1049 0.950 . S
C1078 C1077 1.334 . S
C1078 C1079 1.287 . S
C1079 C1078 1.287 . S
C1079 C1080 1.524 . S
C1079 H1082 0.999 . S
C1080 H1050 0.950 . S
C1080 C1079 1.524 . S
C1080 C1081 1.415 . S
C1081 H1051 0.950 . S
C1081 C1076 1.363 . S
C1081 C1080 1.415 . S
H1082 C1079 0.999 . S
H1083 C1064 0.913 . S
H1084 C1102 0.951 . S
H1085 C1104 0.951 . S
H1086 C1106 0.950 . S
H1087 C1107 0.950 . S
H1088 C1109 0.950 . S
H1089 C1112 0.950 . S
H1090 C1113 0.950 . S
H1091 C1115 0.950 . S
H1092 C1116 0.950 . S
H1093 C1117 0.951 . S
H1094 C1119 0.951 . S
H1095 C1121 0.950 . S
H1096 C1122 0.950 . S
H1097 C1124 0.950 . S
H1098 C1127 0.950 . S
H1099 C1128 0.950 . S
H1100 C1130 0.950 . S
H1101 C1131 0.950 . S
C1102 H1084 0.951 . S
C1102 C1103 1.366 . S
C1102 C1104 1.388 . S
C1103 C1102 1.366 . S
C1103 C1107 1.385 . S
C1104 H1085 0.951 . S
C1104 C1102 1.388 . S
C1104 C1105 1.366 . S
C1105 C1104 1.366 . S
C1105 C1106 1.414 . S
C1105 C1108 1.499 . S
C1106 H1086 0.950 . S
C1106 C1105 1.414 . S
C1106 C1107 1.374 . S
C1107 H1087 0.950 . S
C1107 C1103 1.385 . S
C1107 C1106 1.374 . S
C1108 C1105 1.499 . S
C1108 C1109 1.373 1_554 S
C1108 C1110 1.389 . S
C1109 H1088 0.950 . S
C1109 C1108 1.373 1_556 S
C1109 C1125 1.377 . S
C1110 C1108 1.389 . S
C1110 C1111 1.524 . S
C1110 C1124 1.377 . S
C1111 C1110 1.524 . S
C1111 C1112 1.397 . S
C1111 C1116 1.363 . S
C1112 H1089 0.950 . S
C1112 C1111 1.397 . S
C1112 C1113 1.334 . S
C1113 H1090 0.950 . S
C1113 C1112 1.334 . S
C1113 C1114 1.287 . S
C1114 C1113 1.287 . S
C1114 C1115 1.524 . S
C1114 H1133 0.913 . S
C1115 H1091 0.950 . S
C1115 C1114 1.524 . S
C1115 C1116 1.415 . S
C1116 H1092 0.950 . S
C1116 C1111 1.363 . S
C1116 C1115 1.415 . S
C1117 H1093 0.951 . S
C1117 C1118 1.366 . S
C1117 C1119 1.388 . S
C1118 C1117 1.366 . S
C1118 C1122 1.385 . S
C1119 H1094 0.951 . S
C1119 C1117 1.388 . S
C1119 C1120 1.366 . S
C1120 C1119 1.366 . S
C1120 C1121 1.414 . S
C1120 C1123 1.499 . S
C1121 H1095 0.950 . S
C1121 C1120 1.414 . S
C1121 C1122 1.374 . S
C1122 H1096 0.950 . S
C1122 C1118 1.385 . S
C1122 C1121 1.374 . S
C1123 C1120 1.499 . S
C1123 C1124 1.373 1_556 S
C1123 C1125 1.389 . S
C1124 H1097 0.950 . S
C1124 C1110 1.377 . S
C1124 C1123 1.373 1_554 S
C1125 C1109 1.377 . S
C1125 C1123 1.389 . S
C1125 C1126 1.524 . S
C1126 C1125 1.524 . S
C1126 C1127 1.397 . S
C1126 C1131 1.363 . S
C1127 H1098 0.950 . S
C1127 C1126 1.397 . S
C1127 C1128 1.334 . S
C1128 H1099 0.950 . S
C1128 C1127 1.334 . S
C1128 C1129 1.287 . S
C1129 C1128 1.287 . S
C1129 C1130 1.524 . S
C1129 H1132 0.999 . S
C1130 H1100 0.950 . S
C1130 C1129 1.524 . S
C1130 C1131 1.415 . S
C1131 H1101 0.950 . S
C1131 C1126 1.363 . S
C1131 C1130 1.415 . S
H1132 C1129 0.999 . S
H1133 C1114 0.913 . S
H1134 C1152 0.951 . S
H1135 C1154 0.951 . S
H1136 C1156 0.950 . S
H1137 C1157 0.950 . S
H1138 C1159 0.950 . S
H1139 C1162 0.950 . S
H1140 C1163 0.950 . S
H1141 C1165 0.950 . S
H1142 C1166 0.950 . S
H1143 C1167 0.951 . S
H1144 C1169 0.936 1_554 S
H1145 C1171 0.950 . S
H1146 C1172 0.950 . S
H1147 C1174 0.950 . S
H1148 C1177 0.950 . S
H1149 C1178 0.950 . S
H1150 C1180 0.950 . S
H1151 C1181 0.950 . S
C1152 H1134 0.951 . S
C1152 C1153 1.366 . S
C1152 C1154 1.388 . S
C1153 C1152 1.366 . S
C1153 C1157 1.385 . S
C1154 H1135 0.951 . S
C1154 C1152 1.388 . S
C1154 C1155 1.366 . S
C1155 C1154 1.366 . S
C1155 C1156 1.414 . S
C1155 C1158 1.499 . S
C1156 H1136 0.950 . S
C1156 C1155 1.414 . S
C1156 C1157 1.374 . S
C1157 H1137 0.950 . S
C1157 C1153 1.385 . S
C1157 C1156 1.374 . S
C1158 C1155 1.499 . S
C1158 C1159 1.373 . S
C1158 C1160 1.389 . S
C1159 H1138 0.950 . S
C1159 C1158 1.373 . S
C1159 C1175 1.377 . S
C1160 C1158 1.389 . S
C1160 C1161 1.525 . S
C1160 C1174 1.377 1_554 S
C1161 C1160 1.525 . S
C1161 C1162 1.402 . S
C1161 C1166 1.357 1_554 S
C1162 H1139 0.950 . S
C1162 C1161 1.402 . S
C1162 C1163 1.334 . S
C1163 H1140 0.950 . S
C1163 C1162 1.334 . S
C1163 C1164 1.287 . S
C1164 C1163 1.287 . S
C1164 C1165 1.524 1_554 S
C1164 H1183 0.913 . S
C1165 H1141 0.950 . S
C1165 C1164 1.524 1_556 S
C1165 C1166 1.415 . S
C1166 H1142 0.950 . S
C1166 C1161 1.357 1_556 S
C1166 C1165 1.415 . S
C1167 H1143 0.951 . S
C1167 C1168 1.366 . S
C1167 C1169 1.388 . S
C1168 C1167 1.366 . S
C1168 C1172 1.385 . S
C1169 H1144 0.936 1_556 S
C1169 C1167 1.388 . S
C1169 C1170 1.366 . S
C1170 C1169 1.366 . S
C1170 C1171 1.414 . S
C1170 C1173 1.499 . S
C1171 H1145 0.950 . S
C1171 C1170 1.414 . S
C1171 C1172 1.374 . S
C1172 H1146 0.950 . S
C1172 C1168 1.385 . S
C1172 C1171 1.374 . S
C1173 C1170 1.499 . S
C1173 C1174 1.373 . S
C1173 C1175 1.389 1_556 S
C1174 H1147 0.950 . S
C1174 C1160 1.377 1_556 S
C1174 C1173 1.373 . S
C1175 C1159 1.377 . S
C1175 C1173 1.389 1_554 S
C1175 C1176 1.524 . S
C1176 C1175 1.524 . S
C1176 C1177 1.397 1_554 S
C1176 C1181 1.363 . S
C1177 H1148 0.950 . S
C1177 C1176 1.397 1_556 S
C1177 C1178 1.334 . S
C1178 H1149 0.950 . S
C1178 C1177 1.334 . S
C1178 C1179 1.287 1_556 S
C1179 C1178 1.287 1_554 S
C1179 C1180 1.524 . S
C1179 H1182 0.999 . S
C1180 H1150 0.950 . S
C1180 C1179 1.524 . S
C1180 C1181 1.415 . S
C1181 H1151 0.950 . S
C1181 C1176 1.363 . S
C1181 C1180 1.415 . S
H1182 C1179 0.999 . S
H1183 C1164 0.913 . S
H1184 C1202 0.951 . S
H1185 C1204 0.951 . S
H1186 C1206 0.950 . S
H1187 C1207 0.950 . S
H1188 C1209 0.950 . S
H1189 C1212 0.950 . S
H1190 C1213 0.950 . S
H1191 C1215 0.950 . S
H1192 C1216 0.950 . S
H1193 C1217 0.951 . S
H1194 C1219 0.951 . S
H1195 C1221 0.950 . S
H1196 C1222 0.950 1_455 S
H1197 C1224 0.950 . S
H1198 C1227 0.950 . S
H1199 C1228 0.950 . S
H1200 C1230 0.950 1_655 S
H1201 C1231 0.950 . S
C1202 H1184 0.951 . S
C1202 C1203 1.366 . S
C1202 C1204 1.388 . S
C1203 C1202 1.366 . S
C1203 C1207 1.385 . S
C1204 H1185 0.951 . S
C1204 C1202 1.388 . S
C1204 C1205 1.366 . S
C1205 C1204 1.366 . S
C1205 C1206 1.414 . S
C1205 C1208 1.499 . S
C1206 H1186 0.950 . S
C1206 C1205 1.414 . S
C1206 C1207 1.374 . S
C1207 H1187 0.950 . S
C1207 C1203 1.385 . S
C1207 C1206 1.374 . S
C1208 C1205 1.499 . S
C1208 C1209 1.373 . S
C1208 C1210 1.389 . S
C1209 H1188 0.950 . S
C1209 C1208 1.373 . S
C1209 C1225 1.377 . S
C1210 C1208 1.389 . S
C1210 C1211 1.524 . S
C1210 C1224 1.377 . S
C1211 C1210 1.524 . S
C1211 C1212 1.397 . S
C1211 C1216 1.363 . S
C1212 H1189 0.950 . S
C1212 C1211 1.397 . S
C1212 C1213 1.334 . S
C1213 H1190 0.950 . S
C1213 C1212 1.334 . S
C1213 C1214 1.287 . S
C1214 C1213 1.287 . S
C1214 C1215 1.524 . S
C1214 H1233 0.913 . S
C1215 H1191 0.950 . S
C1215 C1214 1.524 . S
C1215 C1216 1.415 . S
C1216 H1192 0.950 . S
C1216 C1211 1.363 . S
C1216 C1215 1.415 . S
C1217 H1193 0.951 . S
C1217 C1218 1.366 . S
C1217 C1219 1.388 . S
C1218 C1217 1.366 . S
C1218 C1222 1.385 . S
C1219 H1194 0.951 . S
C1219 C1217 1.388 . S
C1219 C1220 1.366 . S
C1220 C1219 1.366 . S
C1220 C1221 1.414 . S
C1220 C1223 1.499 . S
C1221 H1195 0.950 . S
C1221 C1220 1.414 . S
C1221 C1222 1.374 . S
C1222 H1196 0.950 1_655 S
C1222 C1218 1.385 . S
C1222 C1221 1.374 . S
C1223 C1220 1.499 . S
C1223 C1224 1.373 . S
C1223 C1225 1.389 . S
C1224 H1197 0.950 . S
C1224 C1210 1.377 . S
C1224 C1223 1.373 . S
C1225 C1209 1.377 . S
C1225 C1223 1.389 . S
C1225 C1226 1.524 . S
C1226 C1225 1.524 . S
C1226 C1227 1.397 1_655 S
C1226 C1231 1.363 . S
C1227 H1198 0.950 . S
C1227 C1226 1.397 1_455 S
C1227 C1228 1.334 . S
C1228 H1199 0.950 . S
C1228 C1227 1.334 . S
C1228 C1229 1.287 . S
C1229 C1228 1.287 . S
C1229 C1230 1.524 . S
C1229 H1232 0.999 . S
C1230 H1200 0.950 1_455 S
C1230 C1229 1.524 . S
C1230 C1231 1.415 1_455 S
C1231 H1201 0.950 . S
C1231 C1226 1.363 . S
C1231 C1230 1.415 1_655 S
H1232 C1229 0.999 . S
H1233 C1214 0.913 . S
H1234 C1252 0.951 . S
H1235 C1254 0.951 . S
H1236 C1256 0.950 . S
H1237 C1257 0.950 . S
H1238 C1259 0.950 . S
H1239 C1262 0.968 . S
H1240 C1263 0.950 . S
H1241 C1265 0.950 . S
H1242 C1266 0.950 . S
H1243 C1267 0.951 . S
H1244 C1269 0.951 . S
H1245 C1271 0.950 . S
H1246 C1272 0.950 . S
H1247 C1274 0.950 . S
H1248 C1277 0.950 . S
H1249 C1278 0.950 . S
H1250 C1280 0.950 . S
H1251 C1281 0.950 . S
C1252 H1234 0.951 . S
C1252 C1253 1.366 . S
C1252 C1254 1.388 . S
C1253 C1252 1.366 . S
C1253 C1257 1.385 . S
C1254 H1235 0.951 . S
C1254 C1252 1.388 . S
C1254 C1255 1.366 . S
C1255 C1254 1.366 . S
C1255 C1256 1.414 . S
C1255 C1258 1.499 . S
C1256 H1236 0.950 . S
C1256 C1255 1.414 . S
C1256 C1257 1.374 . S
C1257 H1237 0.950 . S
C1257 C1253 1.385 . S
C1257 C1256 1.374 . S
C1258 C1255 1.499 . S
C1258 C1259 1.373 . S
C1258 C1260 1.389 . S
C1259 H1238 0.950 . S
C1259 C1258 1.373 . S
C1259 C1275 1.377 . S
C1260 C1258 1.389 . S
C1260 C1261 1.524 . S
C1260 C1274 1.377 . S
C1261 C1260 1.524 . S
C1261 C1262 1.368 1_565 S
C1261 C1266 1.363 . S
C1262 H1239 0.968 . S
C1262 C1261 1.368 1_545 S
C1262 C1263 1.347 . S
C1263 H1240 0.950 . S
C1263 C1262 1.347 . S
C1263 C1264 1.287 1_545 S
C1264 C1263 1.287 1_565 S
C1264 C1265 1.524 . S
C1264 H1283 0.915 1_554 S
C1265 H1241 0.950 . S
C1265 C1264 1.524 . S
C1265 C1266 1.415 . S
C1266 H1242 0.950 . S
C1266 C1261 1.363 . S
C1266 C1265 1.415 . S
C1267 H1243 0.951 . S
C1267 C1268 1.366 1_545 S
C1267 C1269 1.388 . S
C1268 C1267 1.366 1_565 S
C1268 C1272 1.385 . S
C1269 H1244 0.951 . S
C1269 C1267 1.388 . S
C1269 C1270 1.366 1_545 S
C1270 C1269 1.366 1_565 S
C1270 C1271 1.414 . S
C1270 C1273 1.499 . S
C1271 H1245 0.950 . S
C1271 C1270 1.414 . S
C1271 C1272 1.374 . S
C1272 H1246 0.950 . S
C1272 C1268 1.385 . S
C1272 C1271 1.374 . S
C1273 C1270 1.499 . S
C1273 C1274 1.373 . S
C1273 C1275 1.389 . S
C1274 H1247 0.950 . S
C1274 C1260 1.377 . S
C1274 C1273 1.373 . S
C1275 C1259 1.377 . S
C1275 C1273 1.389 . S
C1275 C1276 1.524 . S
C1276 C1275 1.524 . S
C1276 C1277 1.397 . S
C1276 C1281 1.363 . S
C1277 H1248 0.950 . S
C1277 C1276 1.397 . S
C1277 C1278 1.334 . S
C1278 H1249 0.950 . S
C1278 C1277 1.334 . S
C1278 C1279 1.287 . S
C1279 C1278 1.287 . S
C1279 C1280 1.524 . S
C1279 H1282 0.999 . S
C1280 H1250 0.950 . S
C1280 C1279 1.524 . S
C1280 C1281 1.415 . S
C1281 H1251 0.950 . S
C1281 C1276 1.363 . S
C1281 C1280 1.415 . S
H1282 C1279 0.999 . S
H1283 C1264 0.915 1_556 S
H1284 C1302 0.951 . S
H1285 C1304 0.951 . S
H1286 C1306 0.950 . S
H1287 C1307 0.950 . S
H1288 C1309 0.950 . S
H1289 C1312 0.950 . S
H1290 C1313 0.950 . S
H1291 C1315 0.950 . S
H1292 C1316 0.950 . S
H1293 C1317 0.951 . S
H1294 C1319 0.951 . S
H1295 C1321 0.950 . S
H1296 C1322 0.950 . S
H1297 C1324 0.950 . S
H1298 C1327 0.950 . S
H1299 C1328 0.950 . S
H1300 C1330 0.950 . S
H1301 C1331 0.950 . S
C1302 H1284 0.951 . S
C1302 C1303 1.366 . S
C1302 C1304 1.388 . S
C1303 C1302 1.366 . S
C1303 C1307 1.385 . S
C1304 H1285 0.951 . S
C1304 C1302 1.388 . S
C1304 C1305 1.366 . S
C1305 C1304 1.366 . S
C1305 C1306 1.414 . S
C1305 C1308 1.499 . S
C1306 H1286 0.950 . S
C1306 C1305 1.414 . S
C1306 C1307 1.374 . S
C1307 H1287 0.950 . S
C1307 C1303 1.385 . S
C1307 C1306 1.374 . S
C1308 C1305 1.499 . S
C1308 C1309 1.373 . S
C1308 C1310 1.389 . S
C1309 H1288 0.950 . S
C1309 C1308 1.373 . S
C1309 C1325 1.377 . S
C1310 C1308 1.389 . S
C1310 C1311 1.524 . S
C1310 C1324 1.377 . S
C1311 C1310 1.524 . S
C1311 C1312 1.397 . S
C1311 C1316 1.363 . S
C1312 H1289 0.950 . S
C1312 C1311 1.397 . S
C1312 C1313 1.334 . S
C1313 H1290 0.950 . S
C1313 C1312 1.334 . S
C1313 C1314 1.287 . S
C1314 C1313 1.287 . S
C1314 C1315 1.524 . S
C1314 H1333 0.913 . S
C1315 H1291 0.950 . S
C1315 C1314 1.524 . S
C1315 C1316 1.415 . S
C1316 H1292 0.950 . S
C1316 C1311 1.363 . S
C1316 C1315 1.415 . S
C1317 H1293 0.951 . S
C1317 C1318 1.366 . S
C1317 C1319 1.388 . S
C1318 C1317 1.366 . S
C1318 C1322 1.385 . S
C1319 H1294 0.951 . S
C1319 C1317 1.388 . S
C1319 C1320 1.366 . S
C1320 C1319 1.366 . S
C1320 C1321 1.414 . S
C1320 C1323 1.499 . S
C1321 H1295 0.950 . S
C1321 C1320 1.414 . S
C1321 C1322 1.374 . S
C1322 H1296 0.950 . S
C1322 C1318 1.385 . S
C1322 C1321 1.374 . S
C1323 C1320 1.499 . S
C1323 C1324 1.373 . S
C1323 C1325 1.389 . S
C1324 H1297 0.950 . S
C1324 C1310 1.377 . S
C1324 C1323 1.373 . S
C1325 C1309 1.377 . S
C1325 C1323 1.389 . S
C1325 C1326 1.524 . S
C1326 C1325 1.524 . S
C1326 C1327 1.397 . S
C1326 C1331 1.363 . S
C1327 H1298 0.950 . S
C1327 C1326 1.397 . S
C1327 C1328 1.334 . S
C1328 H1299 0.950 . S
C1328 C1327 1.334 . S
C1328 C1329 1.287 . S
C1329 C1328 1.287 . S
C1329 C1330 1.524 . S
C1329 H1332 0.999 . S
C1330 H1300 0.950 . S
C1330 C1329 1.524 . S
C1330 C1331 1.415 . S
C1331 H1301 0.950 . S
C1331 C1326 1.363 . S
C1331 C1330 1.415 . S
H1332 C1329 0.999 . S
H1333 C1314 0.913 . S
H1334 C1352 0.951 . S
H1335 C1354 0.951 . S
H1336 C1356 0.950 . S
H1337 C1357 0.950 . S
H1338 C1359 0.950 . S
H1339 C1362 0.950 . S
H1340 C1363 0.950 . S
H1341 C1365 0.950 . S
H1342 C1366 0.950 . S
H1343 C1367 0.951 . S
H1344 C1369 0.951 . S
H1345 C1371 0.950 . S
H1346 C1372 0.950 . S
H1347 C1374 0.950 . S
H1348 C1377 0.950 . S
H1349 C1378 0.950 . S
H1350 C1380 0.950 . S
H1351 C1381 0.950 . S
C1352 H1334 0.951 . S
C1352 C1353 1.366 . S
C1352 C1354 1.388 . S
C1353 C1352 1.366 . S
C1353 C1357 1.385 . S
C1354 H1335 0.951 . S
C1354 C1352 1.388 . S
C1354 C1355 1.366 . S
C1355 C1354 1.366 . S
C1355 C1356 1.414 . S
C1355 C1358 1.499 . S
C1356 H1336 0.950 . S
C1356 C1355 1.414 . S
C1356 C1357 1.374 . S
C1357 H1337 0.950 . S
C1357 C1353 1.385 . S
C1357 C1356 1.374 . S
C1358 C1355 1.499 . S
C1358 C1359 1.373 . S
C1358 C1360 1.389 . S
C1359 H1338 0.950 . S
C1359 C1358 1.373 . S
C1359 C1375 1.377 . S
C1360 C1358 1.389 . S
C1360 C1361 1.524 . S
C1360 C1374 1.377 . S
C1361 C1360 1.524 . S
C1361 C1362 1.397 . S
C1361 C1366 1.363 . S
C1362 H1339 0.950 . S
C1362 C1361 1.397 . S
C1362 C1363 1.334 . S
C1363 H1340 0.950 . S
C1363 C1362 1.334 . S
C1363 C1364 1.287 . S
C1364 C1363 1.287 . S
C1364 C1365 1.524 . S
C1364 H1383 0.913 . S
C1365 H1341 0.950 . S
C1365 C1364 1.524 . S
C1365 C1366 1.415 . S
C1366 H1342 0.950 . S
C1366 C1361 1.363 . S
C1366 C1365 1.415 . S
C1367 H1343 0.951 . S
C1367 C1368 1.366 . S
C1367 C1369 1.388 . S
C1368 C1367 1.366 . S
C1368 C1372 1.385 . S
C1369 H1344 0.951 . S
C1369 C1367 1.388 . S
C1369 C1370 1.366 . S
C1370 C1369 1.366 . S
C1370 C1371 1.414 . S
C1370 C1373 1.499 . S
C1371 H1345 0.950 . S
C1371 C1370 1.414 . S
C1371 C1372 1.374 . S
C1372 H1346 0.950 . S
C1372 C1368 1.385 . S
C1372 C1371 1.374 . S
C1373 C1370 1.499 . S
C1373 C1374 1.373 . S
C1373 C1375 1.389 . S
C1374 H1347 0.950 . S
C1374 C1360 1.377 . S
C1374 C1373 1.373 . S
C1375 C1359 1.377 . S
C1375 C1373 1.389 . S
C1375 C1376 1.524 . S
C1376 C1375 1.524 . S
C1376 C1377 1.397 . S
C1376 C1381 1.363 . S
C1377 H1348 0.950 . S
C1377 C1376 1.397 . S
C1377 C1378 1.334 . S
C1378 H1349 0.950 . S
C1378 C1377 1.334 . S
C1378 C1379 1.287 . S
C1379 C1378 1.287 . S
C1379 C1380 1.524 . S
C1379 H1382 0.999 . S
C1380 H1350 0.950 . S
C1380 C1379 1.524 . S
C1380 C1381 1.415 . S
C1381 H1351 0.950 . S
C1381 C1376 1.363 . S
C1381 C1380 1.415 . S
H1382 C1379 0.999 . S
H1383 C1364 0.913 . S
C203 N80 1.605 . S
C218 C105 1.616 . S
C268 C140 1.598 . S
C253 N93 1.583 . S
C318 C145 1.314 . S
C303 N54 1.310 . S
C368 C165 1.408 . S
C353 N67 1.400 . S
C418 C113 1.616 1_565 S
C403 N28 1.614 1_556 S
C453 N41 1.595 . S
C468 C130 1.598 . S
C503 N2 1.313 . S
C518 C153 1.314 . S
C553 N15 1.407 . S
C568 C173 1.408 1_655 S
C618 C123 1.048 . S
C603 N70 1.075 . S
C668 C132 0.764 . S
C653 N83 0.764 . S
C718 C163 1.133 . S
C703 N96 1.152 . S
C753 N57 0.827 . S
C768 C183 0.816 . S
C803 N18 1.076 . S
C818 C112 1.045 1_655 S
C868 C143 0.770 . S
C853 N31 0.764 1_556 S
C918 C152 1.134 . S
C903 N44 1.155 . S
C953 N5 0.827 1_556 S
C968 C172 0.818 . S
C1003 N66 1.468 . S
C1018 C110 1.454 . S
C1053 N79 1.426 . S
C1068 C133 1.444 . S
C1118 C150 1.552 . S
C1103 N92 1.551 . S
C1168 C170 1.586 . S
C1153 N53 1.602 . S
C1203 N14 1.479 . S
C1218 C120 1.455 . S
C1268 C125 1.434 1_565 S
C1253 N27 1.440 . S
C1318 C160 1.552 . S
C1303 N40 1.569 . S
C1353 N1 1.607 . S
C1368 C180 1.585 . S
