# Generated by pormake.
# Topology eea, (3,6)-cn, num edge types: 1
# Building blocks:
#     Node 0, Type 0, BuildingBlock: VETTIZ_charged_linker_0, # of connection points: 3
#     Node 1, Type 0, BuildingBlock: VETTIZ_charged_linker_0, # of connection points: 3
#     Node 2, Type 0, BuildingBlock: VETTIZ_charged_linker_0, # of connection points: 3
#     Node 3, Type 0, BuildingBlock: VETTIZ_charged_linker_0, # of connection points: 3
#     Node 4, Type 0, BuildingBlock: VETTIZ_charged_linker_0, # of connection points: 3
#     Node 5, Type 0, BuildingBlock: VETTIZ_charged_linker_0, # of connection points: 3
#     Node 6, Type 0, BuildingBlock: VETTIZ_charged_linker_0, # of connection points: 3
#     Node 7, Type 0, BuildingBlock: VETTIZ_charged_linker_0, # of connection points: 3
#     Node 8, Type 0, BuildingBlock: VETTIZ_charged_linker_0, # of connection points: 3
#     Node 9, Type 0, BuildingBlock: VETTIZ_charged_linker_0, # of connection points: 3
#     Node 10, Type 0, BuildingBlock: VETTIZ_charged_linker_0, # of connection points: 3
#     Node 11, Type 0, BuildingBlock: VETTIZ_charged_linker_0, # of connection points: 3
#     Node 12, Type 0, BuildingBlock: VETTIZ_charged_linker_0, # of connection points: 3
#     Node 13, Type 0, BuildingBlock: VETTIZ_charged_linker_0, # of connection points: 3
#     Node 14, Type 0, BuildingBlock: VETTIZ_charged_linker_0, # of connection points: 3
#     Node 15, Type 0, BuildingBlock: VETTIZ_charged_linker_0, # of connection points: 3
#     Node 16, Type 0, BuildingBlock: VETTIZ_charged_linker_0, # of connection points: 3
#     Node 17, Type 0, BuildingBlock: VETTIZ_charged_linker_0, # of connection points: 3
#     Node 18, Type 1, BuildingBlock: NUHQIS_clean_sbu_0, # of connection points: 6
#     Node 19, Type 1, BuildingBlock: NUHQIS_clean_sbu_0, # of connection points: 6
#     Node 20, Type 1, BuildingBlock: NUHQIS_clean_sbu_0, # of connection points: 6
#     Node 21, Type 1, BuildingBlock: NUHQIS_clean_sbu_0, # of connection points: 6
#     Node 22, Type 1, BuildingBlock: NUHQIS_clean_sbu_0, # of connection points: 6
#     Node 23, Type 1, BuildingBlock: NUHQIS_clean_sbu_0, # of connection points: 6
#     Node 24, Type 1, BuildingBlock: NUHQIS_clean_sbu_0, # of connection points: 6
#     Node 25, Type 1, BuildingBlock: NUHQIS_clean_sbu_0, # of connection points: 6
#     Node 26, Type 1, BuildingBlock: NUHQIS_clean_sbu_0, # of connection points: 6
#     Edge 27, Type (0, 1), BuildingBlock: ZUJKAS_clean_linker_0, # of connection points: 2
#     Edge 28, Type (0, 1), BuildingBlock: ZUJKAS_clean_linker_0, # of connection points: 2
#     Edge 29, Type (0, 1), BuildingBlock: ZUJKAS_clean_linker_0, # of connection points: 2
#     Edge 30, Type (0, 1), BuildingBlock: ZUJKAS_clean_linker_0, # of connection points: 2
#     Edge 31, Type (0, 1), BuildingBlock: ZUJKAS_clean_linker_0, # of connection points: 2
#     Edge 32, Type (0, 1), BuildingBlock: ZUJKAS_clean_linker_0, # of connection points: 2
#     Edge 33, Type (0, 1), BuildingBlock: ZUJKAS_clean_linker_0, # of connection points: 2
#     Edge 34, Type (0, 1), BuildingBlock: ZUJKAS_clean_linker_0, # of connection points: 2
#     Edge 35, Type (0, 1), BuildingBlock: ZUJKAS_clean_linker_0, # of connection points: 2
#     Edge 36, Type (0, 1), BuildingBlock: ZUJKAS_clean_linker_0, # of connection points: 2
#     Edge 37, Type (0, 1), BuildingBlock: ZUJKAS_clean_linker_0, # of connection points: 2
#     Edge 38, Type (0, 1), BuildingBlock: ZUJKAS_clean_linker_0, # of connection points: 2
#     Edge 39, Type (0, 1), BuildingBlock: ZUJKAS_clean_linker_0, # of connection points: 2
#     Edge 40, Type (0, 1), BuildingBlock: ZUJKAS_clean_linker_0, # of connection points: 2
#     Edge 41, Type (0, 1), BuildingBlock: ZUJKAS_clean_linker_0, # of connection points: 2
#     Edge 42, Type (0, 1), BuildingBlock: ZUJKAS_clean_linker_0, # of connection points: 2
#     Edge 43, Type (0, 1), BuildingBlock: ZUJKAS_clean_linker_0, # of connection points: 2
#     Edge 44, Type (0, 1), BuildingBlock: ZUJKAS_clean_linker_0, # of connection points: 2
#     Edge 45, Type (0, 1), BuildingBlock: ZUJKAS_clean_linker_0, # of connection points: 2
#     Edge 46, Type (0, 1), BuildingBlock: ZUJKAS_clean_linker_0, # of connection points: 2
#     Edge 47, Type (0, 1), BuildingBlock: ZUJKAS_clean_linker_0, # of connection points: 2
#     Edge 48, Type (0, 1), BuildingBlock: ZUJKAS_clean_linker_0, # of connection points: 2
#     Edge 49, Type (0, 1), BuildingBlock: ZUJKAS_clean_linker_0, # of connection points: 2
#     Edge 50, Type (0, 1), BuildingBlock: ZUJKAS_clean_linker_0, # of connection points: 2
#     Edge 51, Type (0, 1), BuildingBlock: ZUJKAS_clean_linker_0, # of connection points: 2
#     Edge 52, Type (0, 1), BuildingBlock: ZUJKAS_clean_linker_0, # of connection points: 2
#     Edge 53, Type (0, 1), BuildingBlock: ZUJKAS_clean_linker_0, # of connection points: 2
#     Edge 54, Type (0, 1), BuildingBlock: ZUJKAS_clean_linker_0, # of connection points: 2
#     Edge 55, Type (0, 1), BuildingBlock: ZUJKAS_clean_linker_0, # of connection points: 2
#     Edge 56, Type (0, 1), BuildingBlock: ZUJKAS_clean_linker_0, # of connection points: 2
#     Edge 57, Type (0, 1), BuildingBlock: ZUJKAS_clean_linker_0, # of connection points: 2
#     Edge 58, Type (0, 1), BuildingBlock: ZUJKAS_clean_linker_0, # of connection points: 2
#     Edge 59, Type (0, 1), BuildingBlock: ZUJKAS_clean_linker_0, # of connection points: 2
#     Edge 60, Type (0, 1), BuildingBlock: ZUJKAS_clean_linker_0, # of connection points: 2
#     Edge 61, Type (0, 1), BuildingBlock: ZUJKAS_clean_linker_0, # of connection points: 2
#     Edge 62, Type (0, 1), BuildingBlock: ZUJKAS_clean_linker_0, # of connection points: 2
#     Edge 63, Type (0, 1), BuildingBlock: ZUJKAS_clean_linker_0, # of connection points: 2
#     Edge 64, Type (0, 1), BuildingBlock: ZUJKAS_clean_linker_0, # of connection points: 2
#     Edge 65, Type (0, 1), BuildingBlock: ZUJKAS_clean_linker_0, # of connection points: 2
#     Edge 66, Type (0, 1), BuildingBlock: ZUJKAS_clean_linker_0, # of connection points: 2
#     Edge 67, Type (0, 1), BuildingBlock: ZUJKAS_clean_linker_0, # of connection points: 2
#     Edge 68, Type (0, 1), BuildingBlock: ZUJKAS_clean_linker_0, # of connection points: 2
#     Edge 69, Type (0, 1), BuildingBlock: ZUJKAS_clean_linker_0, # of connection points: 2
#     Edge 70, Type (0, 1), BuildingBlock: ZUJKAS_clean_linker_0, # of connection points: 2
#     Edge 71, Type (0, 1), BuildingBlock: ZUJKAS_clean_linker_0, # of connection points: 2
#     Edge 72, Type (0, 1), BuildingBlock: ZUJKAS_clean_linker_0, # of connection points: 2
#     Edge 73, Type (0, 1), BuildingBlock: ZUJKAS_clean_linker_0, # of connection points: 2
#     Edge 74, Type (0, 1), BuildingBlock: ZUJKAS_clean_linker_0, # of connection points: 2
#     Edge 75, Type (0, 1), BuildingBlock: ZUJKAS_clean_linker_0, # of connection points: 2
#     Edge 76, Type (0, 1), BuildingBlock: ZUJKAS_clean_linker_0, # of connection points: 2
#     Edge 77, Type (0, 1), BuildingBlock: ZUJKAS_clean_linker_0, # of connection points: 2
#     Edge 78, Type (0, 1), BuildingBlock: ZUJKAS_clean_linker_0, # of connection points: 2
#     Edge 79, Type (0, 1), BuildingBlock: ZUJKAS_clean_linker_0, # of connection points: 2
#     Edge 80, Type (0, 1), BuildingBlock: ZUJKAS_clean_linker_0, # of connection points: 2
# Relax obj value: 0.035
# Max RMSD: 0.135
# Mean RMSD: 0.067
data_MOF--net-eea--node1-NUHQIS_clean_sbu_0--node2-VETTIZ_charged_linker_0--edge1-ZUJKAS_clean_linker_0
_symmetry_space_group_name_H-M    P1
_symmetry_Int_Tables_number       1
_symmetry_cell_setting            triclinic
loop_
_symmetry_equiv_pos_as_xyz
'x, y, z'
_cell_length_a     77.504799
_cell_length_b     77.463587
_cell_length_c     107.72965
_cell_angle_alpha  93.385472
_cell_angle_beta   93.650393
_cell_angle_gamma 119.88323
loop_
_atom_site_label
_atom_site_type_symbol
_atom_site_fract_x
_atom_site_fract_y
_atom_site_fract_z
_atom_type_partial_charge
C0 C 0.2774 0.19819 0.39766 0.0
C1 C 0.28074 0.21594 0.40431 0.0
C2 C 0.29048 0.22128 0.4166 0.0
C3 C 0.29214 0.19081 0.41565 0.0
C4 C 0.28322 0.18595 0.40347 0.0
C5 C 0.27997 0.1662 0.39785 0.0
H6 H 0.28206 0.08134 0.4054 0.0
C7 C 0.2953 0.17435 0.41912 0.0
C8 C 0.2884 0.15999 0.40867 0.0
H9 H 0.2591 0.09637 0.37266 0.0
H10 H 0.27054 0.12935 0.38285 0.0
H11 H 0.32267 0.1234 0.41169 0.0
H12 H 0.26465 0.09958 0.42489 0.0
H13 H 0.28268 0.11128 0.43792 0.0
H14 H 0.28139 0.09048 0.42869 0.0
H15 H 0.31479 0.10586 0.42318 0.0
H16 H 0.32689 0.13252 0.42756 0.0
C17 C 0.2924 0.17003 0.38656 0.0
C18 C 0.25713 0.15187 0.39456 0.0
C19 C 0.31978 0.17406 0.46396 0.0
C20 C 0.32326 0.16032 0.47005 0.0
C21 C 0.32153 0.14359 0.46287 0.0
C22 C 0.31561 0.14014 0.44999 0.0
C23 C 0.31128 0.1535 0.44417 0.0
C24 C 0.31391 0.1704 0.45107 0.0
C25 C 0.30913 0.1832 0.4432 0.0
C26 C 0.30269 0.17087 0.43053 0.0
C27 C 0.30375 0.15338 0.43122 0.0
C28 C 0.32853 0.20366 0.44308 0.0
C29 C 0.29168 0.18458 0.4485 0.0
C30 C 0.27946 0.09172 0.40042 0.0
C31 C 0.26948 0.08613 0.38824 0.0
C32 C 0.26685 0.10029 0.38201 0.0
C33 C 0.27334 0.1194 0.388 0.0
C34 C 0.28242 0.12439 0.40039 0.0
C35 C 0.28564 0.11076 0.40632 0.0
C36 C 0.29509 0.11843 0.41957 0.0
C37 C 0.2968 0.13886 0.42067 0.0
C38 C 0.28928 0.14222 0.40944 0.0
C39 C 0.3159 0.12006 0.42068 0.0
C40 C 0.28037 0.10425 0.42831 0.0
H41 H 0.30335 0.2136 0.43169 0.0
H42 H 0.26974 0.19349 0.38827 0.0
H43 H 0.24855 0.15472 0.4015 0.0
H44 H 0.25253 0.13595 0.39486 0.0
H45 H 0.25197 0.15393 0.3852 0.0
H46 H 0.30679 0.18449 0.3884 0.0
H47 H 0.28415 0.17075 0.37798 0.0
H48 H 0.29678 0.15865 0.38466 0.0
H49 H 0.32095 0.18706 0.46916 0.0
H50 H 0.32462 0.13304 0.46724 0.0
H51 H 0.31431 0.12701 0.44511 0.0
H52 H 0.34204 0.20206 0.44404 0.0
H53 H 0.33015 0.21452 0.45091 0.0
H54 H 0.32927 0.21022 0.43415 0.0
H55 H 0.28025 0.16978 0.45114 0.0
H56 H 0.28351 0.18874 0.44169 0.0
H57 H 0.29714 0.1955 0.45699 0.0
H58 H 0.29353 0.23503 0.42186 0.0
C59 C 0.29624 0.20884 0.42228 0.0
C60 C 0.93919 0.18699 0.40219 0.0
C61 C 0.95536 0.20464 0.40846 0.0
C62 C 0.95388 0.21084 0.42073 0.0
C63 C 0.92057 0.18189 0.42024 0.0
C64 C 0.92209 0.17594 0.4082 0.0
C65 C 0.90392 0.15664 0.40283 0.0
H66 H 0.81468 0.07686 0.41054 0.0
C67 C 0.9009 0.16674 0.4238 0.0
C68 C 0.89113 0.15195 0.41359 0.0
H69 H 0.84716 0.08834 0.37795 0.0
H70 H 0.87272 0.12039 0.38817 0.0
H71 H 0.85209 0.09297 0.4307 0.0
H72 H 0.82078 0.12083 0.41524 0.0
H73 H 0.82825 0.13082 0.43096 0.0
H74 H 0.81133 0.10426 0.42717 0.0
H75 H 0.8275 0.08691 0.43425 0.0
H76 H 0.84965 0.10702 0.44316 0.0
C77 C 0.91046 0.14095 0.40014 0.0
C78 C 0.89424 0.1608 0.3912 0.0
C79 C 0.88035 0.17341 0.46709 0.0
C80 C 0.86293 0.16141 0.4728 0.0
C81 C 0.8473 0.14387 0.46593 0.0
C82 C 0.8489 0.13832 0.45367 0.0
C83 C 0.86636 0.15033 0.44812 0.0
C84 C 0.88169 0.16763 0.45475 0.0
C85 C 0.899 0.17856 0.44716 0.0
C86 C 0.89146 0.16491 0.43494 0.0
C87 C 0.87238 0.14836 0.43564 0.0
C88 C 0.91765 0.1793 0.45387 0.0
C89 C 0.90153 0.19937 0.44544 0.0
C90 C 0.82713 0.0864 0.40552 0.0
C91 C 0.82895 0.07995 0.39344 0.0
C92 C 0.84555 0.09279 0.38733 0.0
C93 C 0.86037 0.11144 0.39328 0.0
C94 C 0.85865 0.11738 0.4055 0.0
C95 C 0.84208 0.10508 0.41133 0.0
C96 C 0.84273 0.11388 0.42429 0.0
C97 C 0.86264 0.13334 0.42536 0.0
C98 C 0.87191 0.13523 0.41437 0.0
C99 C 0.84287 0.0995 0.43367 0.0
C100 C 0.82483 0.11757 0.42456 0.0
H101 H 0.93632 0.20508 0.43597 0.0
H102 H 0.93993 0.18158 0.39285 0.0
H103 H 0.89608 0.17601 0.3925 0.0
H104 H 0.87789 0.15052 0.38948 0.0
H105 H 0.90125 0.15996 0.38268 0.0
H106 H 0.92265 0.14325 0.40727 0.0
H107 H 0.91613 0.14207 0.39084 0.0
H108 H 0.8984 0.12542 0.40066 0.0
H109 H 0.89257 0.18705 0.47207 0.0
H110 H 0.83388 0.13417 0.47014 0.0
H111 H 0.8365 0.12474 0.44903 0.0
H112 H 0.91345 0.16503 0.45796 0.0
H113 H 0.92487 0.19162 0.46161 0.0
H114 H 0.92888 0.18101 0.44751 0.0
H115 H 0.88669 0.19834 0.44395 0.0
H116 H 0.90903 0.20571 0.43711 0.0
H117 H 0.90999 0.21014 0.45383 0.0
H118 H 0.96607 0.22449 0.42574 0.0
C119 C 0.93657 0.1996 0.42664 0.0
C120 C 0.94418 0.77538 0.41136 0.0
C121 C 0.95939 0.77207 0.41634 0.0
C122 C 0.95742 0.76389 0.42789 0.0
C123 C 0.9257 0.76271 0.42928 0.0
C124 C 0.92759 0.77062 0.41794 0.0
C125 C 0.91031 0.77349 0.41395 0.0
H126 H 0.82256 0.76681 0.42583 0.0
C127 C 0.90678 0.75969 0.43373 0.0
C128 C 0.89771 0.76599 0.42474 0.0
H129 H 0.85538 0.78924 0.39393 0.0
H130 H 0.88057 0.78209 0.40214 0.0
H131 H 0.82827 0.72903 0.4269 0.0
H132 H 0.86057 0.78843 0.4461 0.0
H133 H 0.85928 0.77218 0.45714 0.0
H134 H 0.83646 0.7698 0.44988 0.0
H135 H 0.81876 0.73693 0.43943 0.0
H136 H 0.83472 0.72649 0.44232 0.0
C137 C 0.89945 0.76009 0.40152 0.0
C138 C 0.91855 0.79614 0.41316 0.0
C139 C 0.88628 0.73253 0.4757 0.0
C140 C 0.86973 0.72875 0.48222 0.0
C141 C 0.85476 0.73193 0.47658 0.0
C142 C 0.85634 0.73908 0.46484 0.0
C143 C 0.87309 0.74319 0.45856 0.0
C144 C 0.88766 0.73978 0.46392 0.0
C145 C 0.90436 0.74504 0.45576 0.0
C146 C 0.89743 0.75228 0.44471 0.0
C147 C 0.87911 0.75116 0.44646 0.0
C148 C 0.90484 0.72573 0.45191 0.0
C149 C 0.92402 0.76202 0.46305 0.0
C150 C 0.83524 0.77035 0.42065 0.0
C151 C 0.83692 0.77865 0.40921 0.0
C152 C 0.85355 0.78264 0.40269 0.0
C153 C 0.86826 0.77859 0.40752 0.0
C154 C 0.86643 0.77046 0.41902 0.0
C155 C 0.85008 0.76644 0.42535 0.0
C156 C 0.85059 0.75791 0.43745 0.0
C157 C 0.86998 0.75753 0.43739 0.0
C158 C 0.87921 0.76489 0.42658 0.0
C159 C 0.83211 0.73653 0.43662 0.0
C160 C 0.85164 0.77265 0.44827 0.0
H161 H 0.9401 0.75301 0.44308 0.0
H162 H 0.94528 0.78189 0.40262 0.0
H163 H 0.93119 0.80532 0.42054 0.0
H164 H 0.90741 0.80072 0.4148 0.0
H165 H 0.92415 0.80056 0.40396 0.0
H166 H 0.89929 0.74564 0.40147 0.0
H167 H 0.90706 0.76754 0.39339 0.0
H168 H 0.88354 0.75583 0.40004 0.0
H169 H 0.89807 0.73031 0.47977 0.0
H170 H 0.84166 0.72875 0.48124 0.0
H171 H 0.84444 0.74121 0.46115 0.0
H172 H 0.8894 0.71259 0.45014 0.0
H173 H 0.91309 0.72255 0.45939 0.0
H174 H 0.91152 0.72629 0.44308 0.0
H175 H 0.92121 0.77284 0.46853 0.0
H176 H 0.93533 0.77108 0.45689 0.0
H177 H 0.93063 0.75594 0.46972 0.0
H178 H 0.96876 0.76094 0.43189 0.0
C179 C 0.94069 0.75919 0.43436 0.0
C180 C 0.15827 0.22841 0.6037 0.0
C181 C 0.17575 0.23156 0.59857 0.0
C182 C 0.18001 0.24012 0.58716 0.0
C183 C 0.14954 0.24182 0.58608 0.0
C184 C 0.14542 0.23358 0.59731 0.0
C185 C 0.12601 0.23083 0.60131 0.0
H186 H 0.04206 0.23613 0.58892 0.0
C187 C 0.133 0.24509 0.58172 0.0
C188 C 0.11913 0.23865 0.59059 0.0
H189 H 0.05987 0.21638 0.62157 0.0
H190 H 0.09045 0.22338 0.61322 0.0
H191 H 0.086 0.27533 0.5881 0.0
H192 H 0.05726 0.21605 0.56841 0.0
H193 H 0.06912 0.23354 0.55769 0.0
H194 H 0.04926 0.23369 0.56544 0.0
H195 H 0.06582 0.26696 0.5759 0.0
H196 H 0.09146 0.27771 0.5725 0.0
C197 C 0.13073 0.24402 0.61384 0.0
C198 C 0.11167 0.20816 0.60192 0.0
C199 C 0.13476 0.27455 0.54062 0.0
C200 C 0.12164 0.27911 0.53388 0.0
C201 C 0.10371 0.27513 0.53881 0.0
C202 C 0.09902 0.26686 0.55024 0.0
C203 C 0.11236 0.26245 0.55685 0.0
C204 C 0.12987 0.26632 0.55199 0.0
C205 C 0.14224 0.26057 0.56017 0.0
C206 C 0.12939 0.25278 0.57083 0.0
C207 C 0.11187 0.25387 0.56886 0.0
C208 C 0.16255 0.27975 0.56459 0.0
C209 C 0.14393 0.24385 0.55267 0.0
C210 C 0.05259 0.23345 0.59433 0.0
C211 C 0.04824 0.22539 0.6059 0.0
C212 C 0.06246 0.22208 0.61253 0.0
C213 C 0.08037 0.22631 0.6077 0.0
C214 C 0.08433 0.23406 0.59609 0.0
C215 C 0.07066 0.23772 0.58966 0.0
C216 C 0.07773 0.24648 0.5776 0.0
C217 C 0.09772 0.24723 0.5778 0.0
C218 C 0.10143 0.23981 0.58864 0.0
C219 C 0.0803 0.26769 0.57843 0.0
C220 C 0.06257 0.23184 0.56665 0.0
H221 H 0.17119 0.2517 0.57228 0.0
H222 H 0.15443 0.2217 0.61239 0.0
H223 H 0.11326 0.19915 0.59412 0.0
H224 H 0.09573 0.20384 0.60084 0.0
H225 H 0.115 0.20335 0.61084 0.0
H226 H 0.14558 0.25794 0.61432 0.0
H227 H 0.13107 0.23593 0.62194 0.0
H228 H 0.12004 0.24935 0.61503 0.0
H229 H 0.14849 0.27706 0.53704 0.0
H230 H 0.0934 0.27864 0.5339 0.0
H231 H 0.08519 0.26423 0.55348 0.0
H232 H 0.16051 0.29289 0.56638 0.0
H233 H 0.17317 0.28323 0.55741 0.0
H234 H 0.16964 0.27881 0.57355 0.0
H235 H 0.13013 0.23412 0.5462 0.0
H236 H 0.14541 0.23349 0.55868 0.0
H237 H 0.15672 0.25028 0.54695 0.0
H238 H 0.1935 0.243 0.58308 0.0
C239 C 0.16706 0.24527 0.58092 0.0
C240 C 0.73481 0.81822 0.62117 0.0
C241 C 0.73231 0.80016 0.61555 0.0
C242 C 0.72115 0.79223 0.60371 0.0
C243 C 0.71647 0.82083 0.60295 0.0
C244 C 0.72679 0.82824 0.61474 0.0
C245 C 0.72877 0.84798 0.61917 0.0
H246 H 0.71652 0.92592 0.60668 0.0
C247 C 0.71115 0.83542 0.59852 0.0
C248 C 0.71816 0.8513 0.60803 0.0
H249 H 0.74457 0.91874 0.64046 0.0
H250 H 0.73588 0.88557 0.63203 0.0
H251 H 0.73516 0.90837 0.58813 0.0
H252 H 0.67809 0.88079 0.60285 0.0
H253 H 0.67379 0.87138 0.58703 0.0
H254 H 0.68399 0.89786 0.59113 0.0
H255 H 0.71565 0.9133 0.58311 0.0
H256 H 0.71714 0.89261 0.57581 0.0
C257 C 0.75137 0.86391 0.62127 0.0
C258 C 0.71756 0.84521 0.63097 0.0
C259 C 0.67946 0.8251 0.55397 0.0
C260 C 0.67431 0.83685 0.54686 0.0
C261 C 0.67639 0.85465 0.55274 0.0
C262 C 0.68399 0.86092 0.56535 0.0
C263 C 0.68975 0.84939 0.57218 0.0
C264 C 0.68716 0.83165 0.56653 0.0
C265 C 0.69429 0.82144 0.5752 0.0
C266 C 0.70181 0.8361 0.58694 0.0
C267 C 0.6992 0.85248 0.58509 0.0
C268 C 0.71147 0.82005 0.56947 0.0
C269 C 0.67609 0.80098 0.57724 0.0
C270 C 0.72083 0.91722 0.61226 0.0
C271 C 0.73135 0.92506 0.62424 0.0
C272 C 0.7363 0.91304 0.63126 0.0
C273 C 0.7314 0.89382 0.6263 0.0
C274 C 0.72154 0.88652 0.61414 0.0
C275 C 0.71615 0.89805 0.60741 0.0
C276 C 0.70594 0.88796 0.59459 0.0
C277 C 0.7062 0.86851 0.59471 0.0
C278 C 0.71546 0.86782 0.60615 0.0
C279 C 0.71895 0.90118 0.58482 0.0
C280 C 0.68435 0.88437 0.59372 0.0
H281 H 0.70504 0.7957 0.58838 0.0
H282 H 0.7434 0.8248 0.63022 0.0
H283 H 0.70422 0.82992 0.63039 0.0
H284 H 0.71152 0.85541 0.63205 0.0
H285 H 0.72738 0.8473 0.63957 0.0
H286 H 0.75961 0.86121 0.61402 0.0
H287 H 0.75816 0.86346 0.63055 0.0
H288 H 0.75443 0.87928 0.62044 0.0
H289 H 0.67779 0.8112 0.54981 0.0
H290 H 0.67276 0.86412 0.54749 0.0
H291 H 0.68549 0.87475 0.5692 0.0
H292 H 0.72107 0.83381 0.565 0.0
H293 H 0.70546 0.8071 0.56218 0.0
H294 H 0.7218 0.81894 0.57647 0.0
H295 H 0.66212 0.80177 0.57693 0.0
H296 H 0.67751 0.79623 0.58654 0.0
H297 H 0.67369 0.7891 0.56988 0.0
H298 H 0.71867 0.77814 0.59927 0.0
C299 C 0.71319 0.80242 0.59741 0.0
C300 C 0.06737 0.81983 0.61006 0.0
C301 C 0.05068 0.80209 0.60424 0.0
C302 C 0.05137 0.79512 0.59198 0.0
C303 C 0.08454 0.82382 0.59142 0.0
C304 C 0.08395 0.83041 0.60351 0.0
C305 C 0.10238 0.84998 0.60823 0.0
H306 H 0.1906 0.92869 0.59736 0.0
C307 C 0.10368 0.83877 0.58715 0.0
C308 C 0.11416 0.85412 0.59699 0.0
H309 H 0.16033 0.91983 0.63081 0.0
H310 H 0.13435 0.88725 0.62163 0.0
H311 H 0.18271 0.88347 0.59259 0.0
H312 H 0.15215 0.91298 0.57852 0.0
H313 H 0.15166 0.89731 0.5659 0.0
H314 H 0.1754 0.91728 0.57337 0.0
H315 H 0.19238 0.90117 0.58126 0.0
H316 H 0.17527 0.87488 0.57664 0.0
C317 C 0.11311 0.84649 0.61961 0.0
C318 C 0.09595 0.86571 0.61108 0.0
C319 C 0.11971 0.82997 0.54285 0.0
C320 C 0.13587 0.84208 0.53622 0.0
C321 C 0.15196 0.86 0.54241 0.0
C322 C 0.15186 0.86597 0.55491 0.0
C323 C 0.13544 0.854 0.56134 0.0
C324 C 0.11977 0.83626 0.55536 0.0
C325 C 0.10346 0.8257 0.56369 0.0
C326 C 0.11201 0.84002 0.57562 0.0
C327 C 0.13072 0.85657 0.57414 0.0
C328 C 0.10156 0.80521 0.56561 0.0
C329 C 0.08408 0.82434 0.55764 0.0
C330 C 0.17835 0.91977 0.60271 0.0
C331 C 0.17756 0.92696 0.61484 0.0
C332 C 0.16149 0.91464 0.62152 0.0
C333 C 0.14628 0.89575 0.61611 0.0
C334 C 0.14699 0.88906 0.60384 0.0
C335 C 0.16296 0.90091 0.59742 0.0
C336 C 0.1611 0.89148 0.58443 0.0
C337 C 0.14125 0.8721 0.58407 0.0
C338 C 0.13306 0.8708 0.59545 0.0
C339 C 0.1788 0.88761 0.58355 0.0
C340 C 0.16016 0.90542 0.57498 0.0
H341 H 0.06773 0.79988 0.57622 0.0
H342 H 0.06755 0.82549 0.61953 0.0
H343 H 0.08293 0.86281 0.60447 0.0
H344 H 0.10766 0.88111 0.60986 0.0
H345 H 0.09151 0.86535 0.6207 0.0
H346 H 0.11179 0.83151 0.61827 0.0
H347 H 0.10648 0.84719 0.62834 0.0
H348 H 0.12938 0.85722 0.621 0.0
H349 H 0.10707 0.81618 0.53832 0.0
H350 H 0.16471 0.86942 0.53757 0.0
H351 H 0.16453 0.87981 0.55903 0.0
H352 H 0.11658 0.80657 0.56668 0.0
H353 H 0.09264 0.794 0.55748 0.0
H354 H 0.09484 0.79923 0.57422 0.0
H355 H 0.08759 0.83796 0.55295 0.0
H356 H 0.07385 0.82359 0.56453 0.0
H357 H 0.07593 0.8112 0.55048 0.0
H358 H 0.03869 0.78161 0.58721 0.0
C359 C 0.06821 0.80585 0.58556 0.0
C360 C 0.94341 0.52986 0.73053 0.0
C361 C 0.94587 0.54719 0.73727 0.0
C362 C 0.95507 0.55238 0.7497 0.0
C363 C 0.9578 0.52252 0.7487 0.0
C364 C 0.9495 0.51784 0.73639 0.0
C365 C 0.94724 0.49855 0.73067 0.0
H366 H 0.95113 0.41462 0.73827 0.0
C367 C 0.96135 0.50631 0.7522 0.0
C368 C 0.95539 0.49233 0.74163 0.0
H369 H 0.9314 0.4307 0.70469 0.0
H370 H 0.94048 0.46284 0.71534 0.0
H371 H 0.99116 0.45739 0.74575 0.0
H372 H 0.93168 0.43118 0.75694 0.0
H373 H 0.94857 0.443 0.77048 0.0
H374 H 0.94879 0.42283 0.76145 0.0
H375 H 0.98264 0.43913 0.75679 0.0
H376 H 0.99386 0.46556 0.76168 0.0
C377 C 0.96045 0.50326 0.71974 0.0
C378 C 0.92464 0.48372 0.72684 0.0
C379 C 0.98392 0.50549 0.79739 0.0
C380 C 0.98737 0.49182 0.80357 0.0
C381 C 0.98604 0.47523 0.79646 0.0
C382 C 0.98067 0.47193 0.78351 0.0
C383 C 0.97651 0.4853 0.77757 0.0
C384 C 0.97858 0.50197 0.78444 0.0
C385 C 0.97383 0.5147 0.77648 0.0
C386 C 0.96822 0.50269 0.76375 0.0
C387 C 0.96962 0.48539 0.76449 0.0
C388 C 0.99306 0.53542 0.77674 0.0
C389 C 0.95584 0.51546 0.7814 0.0
C390 C 0.9491 0.42519 0.73313 0.0
C391 C 0.94044 0.42007 0.72063 0.0
C392 C 0.93779 0.43418 0.71437 0.0
C393 C 0.94311 0.45285 0.72057 0.0
C394 C 0.95102 0.45743 0.73321 0.0
C395 C 0.95422 0.44384 0.73921 0.0
C396 C 0.96255 0.45112 0.75267 0.0
C397 C 0.96366 0.47127 0.7538 0.0
C398 C 0.95675 0.47481 0.74241 0.0
C399 C 0.98359 0.45333 0.75443 0.0
C400 C 0.94728 0.43631 0.7609 0.0
H401 H 0.96774 0.5448 0.76494 0.0
H402 H 0.93624 0.52531 0.72101 0.0
H403 H 0.91545 0.48538 0.73382 0.0
H404 H 0.92062 0.46788 0.72647 0.0
H405 H 0.9197 0.48648 0.71763 0.0
H406 H 0.97425 0.51821 0.72176 0.0
H407 H 0.9523 0.50338 0.71091 0.0
H408 H 0.96594 0.49268 0.71819 0.0
H409 H 0.98472 0.51835 0.80255 0.0
H410 H 0.98907 0.46471 0.80092 0.0
H411 H 0.97968 0.45891 0.77868 0.0
H412 H 0.00674 0.53415 0.77792 0.0
H413 H 0.99411 0.54597 0.7846 0.0
H414 H 0.99406 0.54222 0.76788 0.0
H415 H 0.94455 0.50052 0.78394 0.0
H416 H 0.94765 0.51933 0.77441 0.0
H417 H 0.96073 0.52631 0.78989 0.0
H418 H 0.95749 0.56584 0.75503 0.0
C419 C 0.96108 0.54018 0.75542 0.0
C420 C 0.60464 0.51957 0.73548 0.0
C421 C 0.6211 0.53754 0.74121 0.0
C422 C 0.62032 0.54454 0.75345 0.0
C423 C 0.58739 0.51558 0.75408 0.0
C424 C 0.58807 0.50891 0.74203 0.0
C425 C 0.56967 0.48931 0.73732 0.0
H426 H 0.48273 0.40945 0.74876 0.0
C427 C 0.56827 0.50061 0.75837 0.0
C428 C 0.55784 0.48521 0.74854 0.0
H429 H 0.51091 0.41973 0.7145 0.0
H430 H 0.53699 0.45248 0.72366 0.0
H431 H 0.52319 0.4282 0.76781 0.0
H432 H 0.48746 0.452 0.7531 0.0
H433 H 0.4972 0.46431 0.76823 0.0
H434 H 0.48083 0.43745 0.76616 0.0
H435 H 0.49845 0.42069 0.77182 0.0
H436 H 0.52021 0.44187 0.78028 0.0
C437 C 0.57617 0.47362 0.73459 0.0
C438 C 0.55895 0.49265 0.72585 0.0
C439 C 0.55205 0.50943 0.80265 0.0
C440 C 0.53561 0.49752 0.80917 0.0
C441 C 0.51952 0.47967 0.80288 0.0
C442 C 0.51992 0.47351 0.79049 0.0
C443 C 0.53657 0.48529 0.7842 0.0
C444 C 0.55219 0.50303 0.7902 0.0
C445 C 0.56848 0.51365 0.78186 0.0
C446 C 0.55998 0.49933 0.76992 0.0
C447 C 0.54136 0.48269 0.77143 0.0
C448 C 0.58789 0.51509 0.78791 0.0
C449 C 0.57029 0.53412 0.77994 0.0
C450 C 0.4946 0.41877 0.74328 0.0
C451 C 0.49496 0.41199 0.73096 0.0
C452 C 0.51034 0.42469 0.724 0.0
C453 C 0.52552 0.44364 0.72937 0.0
C454 C 0.52527 0.45 0.74182 0.0
C455 C 0.50976 0.43779 0.74846 0.0
C456 C 0.51152 0.4473 0.76141 0.0
C457 C 0.53096 0.46703 0.76156 0.0
C458 C 0.53904 0.46843 0.75013 0.0
C459 C 0.51332 0.43387 0.77091 0.0
C460 C 0.49331 0.45036 0.76239 0.0
H461 H 0.60392 0.53976 0.76918 0.0
H462 H 0.6048 0.51359 0.72617 0.0
H463 H 0.56129 0.50808 0.7267 0.0
H464 H 0.54252 0.48274 0.72497 0.0
H465 H 0.56471 0.49057 0.71704 0.0
H466 H 0.58814 0.47574 0.74184 0.0
H467 H 0.58214 0.47502 0.72537 0.0
H468 H 0.56402 0.45807 0.73484 0.0
H469 H 0.56468 0.5232 0.80718 0.0
H470 H 0.50645 0.47044 0.80753 0.0
H471 H 0.50724 0.45973 0.78633 0.0
H472 H 0.58445 0.50125 0.79232 0.0
H473 H 0.59571 0.52793 0.7953 0.0
H474 H 0.59838 0.51643 0.78107 0.0
H475 H 0.55529 0.53281 0.77915 0.0
H476 H 0.57657 0.53989 0.77118 0.0
H477 H 0.57957 0.54546 0.78794 0.0
H478 H 0.63267 0.55848 0.75803 0.0
C479 C 0.60357 0.53369 0.75989 0.0
C480 C 0.61117 0.10993 0.74504 0.0
C481 C 0.62628 0.10637 0.74988 0.0
C482 C 0.62418 0.09781 0.7613 0.0
C483 C 0.59248 0.09666 0.7628 0.0
C484 C 0.59454 0.10501 0.75161 0.0
C485 C 0.57738 0.10813 0.74776 0.0
H486 H 0.4893 0.10074 0.75958 0.0
C487 C 0.57353 0.09353 0.76727 0.0
C488 C 0.56465 0.10027 0.75847 0.0
H489 H 0.52282 0.12457 0.72813 0.0
H490 H 0.548 0.11739 0.73629 0.0
H491 H 0.49549 0.06293 0.76016 0.0
H492 H 0.5268 0.12179 0.78016 0.0
H493 H 0.52588 0.10527 0.7909 0.0
H494 H 0.50285 0.10268 0.78384 0.0
H495 H 0.48528 0.07048 0.77243 0.0
H496 H 0.50112 0.06003 0.77567 0.0
C497 C 0.56658 0.09516 0.73519 0.0
C498 C 0.58575 0.13087 0.7473 0.0
C499 C 0.55172 0.06334 0.80829 0.0
C500 C 0.53489 0.05888 0.8147 0.0
C501 C 0.52043 0.06309 0.80944 0.0
C502 C 0.52252 0.07141 0.79806 0.0
C503 C 0.53932 0.07573 0.79178 0.0
C504 C 0.5536 0.07171 0.79688 0.0
C505 C 0.5705 0.07747 0.78882 0.0
C506 C 0.56396 0.08558 0.77809 0.0
C507 C 0.54566 0.08449 0.77991 0.0
C508 C 0.57088 0.05829 0.7844 0.0
C509 C 0.59008 0.09393 0.79648 0.0
C510 C 0.50214 0.10458 0.75449 0.0
C511 C 0.50398 0.11323 0.74317 0.0
C512 C 0.52083 0.11766 0.73678 0.0
C513 C 0.53554 0.11359 0.74158 0.0
C514 C 0.53349 0.105 0.75292 0.0
C515 C 0.51698 0.10064 0.75916 0.0
C516 C 0.51728 0.09161 0.77109 0.0
C517 C 0.53672 0.09131 0.77102 0.0
C518 C 0.54615 0.09915 0.76035 0.0
C519 C 0.49881 0.07019 0.76992 0.0
C520 C 0.5181 0.10589 0.78213 0.0
H521 H 0.60668 0.08642 0.77636 0.0
H522 H 0.61239 0.11675 0.7364 0.0
H523 H 0.59843 0.13977 0.75471 0.0
H524 H 0.57469 0.13548 0.74915 0.0
H525 H 0.59135 0.1356 0.73815 0.0
H526 H 0.56631 0.08064 0.73491 0.0
H527 H 0.5743 0.10289 0.72716 0.0
H528 H 0.5507 0.09101 0.7337 0.0
H529 H 0.56308 0.0602 0.812 0.0
H530 H 0.50754 0.06025 0.81423 0.0
H531 H 0.51096 0.07425 0.79465 0.0
H532 H 0.55539 0.04535 0.78219 0.0
H533 H 0.57865 0.05438 0.79176 0.0
H534 H 0.57799 0.05952 0.77569 0.0
H535 H 0.58722 0.10432 0.8024 0.0
H536 H 0.60149 0.10358 0.79056 0.0
H537 H 0.59657 0.08729 0.80278 0.0
H538 H 0.63544 0.09468 0.76519 0.0
C539 C 0.6074 0.09292 0.76775 0.0
C540 C 0.82331 0.56152 0.93842 0.0
C541 C 0.84085 0.56428 0.93357 0.0
C542 C 0.8456 0.57271 0.92214 0.0
C543 C 0.81552 0.57511 0.92055 0.0
C544 C 0.81093 0.567 0.93178 0.0
C545 C 0.79161 0.56476 0.93554 0.0
H546 H 0.71025 0.57435 0.92281 0.0
C547 C 0.79942 0.5789 0.91596 0.0
C548 C 0.78537 0.57288 0.92471 0.0
H549 H 0.7249 0.55087 0.95473 0.0
H550 H 0.75565 0.55738 0.9468 0.0
H551 H 0.75475 0.61183 0.92209 0.0
H552 H 0.72412 0.55265 0.90221 0.0
H553 H 0.73678 0.56996 0.89155 0.0
H554 H 0.71734 0.57117 0.8992 0.0
H555 H 0.73501 0.60437 0.90971 0.0
H556 H 0.76066 0.61414 0.90658 0.0
C557 C 0.79634 0.57805 0.94803 0.0
C558 C 0.77675 0.54218 0.93611 0.0
C559 C 0.80236 0.60759 0.87442 0.0
C560 C 0.78972 0.61267 0.8676 0.0
C561 C 0.77235 0.61011 0.87268 0.0
C562 C 0.76754 0.60239 0.88424 0.0
C563 C 0.78022 0.59718 0.89086 0.0
C564 C 0.79737 0.59995 0.88594 0.0
C565 C 0.80924 0.59383 0.89429 0.0
C566 C 0.79635 0.58678 0.90499 0.0
C567 C 0.77932 0.5887 0.90294 0.0
C568 C 0.82993 0.61262 0.89857 0.0
C569 C 0.81017 0.57648 0.88702 0.0
C570 C 0.72002 0.5705 0.92805 0.0
C571 C 0.71507 0.56213 0.93946 0.0
C572 C 0.72842 0.55761 0.94603 0.0
C573 C 0.74626 0.56127 0.94136 0.0
C574 C 0.75094 0.56951 0.92993 0.0
C575 C 0.73797 0.57406 0.92349 0.0
C576 C 0.74551 0.58278 0.9115 0.0
C577 C 0.76504 0.58255 0.91179 0.0
C578 C 0.76809 0.57473 0.92262 0.0
C579 C 0.74909 0.60437 0.91238 0.0
C580 C 0.73017 0.56857 0.90047 0.0
H581 H 0.83757 0.58446 0.907 0.0
H582 H 0.81907 0.55489 0.9471 0.0
H583 H 0.7789 0.53286 0.9288 0.0
H584 H 0.76094 0.5381 0.9342 0.0
H585 H 0.77894 0.53743 0.94533 0.0
H586 H 0.81104 0.59211 0.94836 0.0
H587 H 0.79706 0.57015 0.95615 0.0
H588 H 0.78546 0.58309 0.94932 0.0
H589 H 0.81598 0.60966 0.87091 0.0
H590 H 0.76227 0.61375 0.8676 0.0
H591 H 0.75405 0.60067 0.88755 0.0
H592 H 0.82863 0.62627 0.89983 0.0
H593 H 0.84064 0.61514 0.89155 0.0
H594 H 0.83655 0.61185 0.90776 0.0
H595 H 0.7959 0.56649 0.88102 0.0
H596 H 0.8121 0.56656 0.8932 0.0
H597 H 0.8224 0.5823 0.88085 0.0
H598 H 0.85915 0.57528 0.91827 0.0
C599 C 0.83308 0.57814 0.91563 0.0
C600 C 0.39511 0.14246 0.9533 0.0
C601 C 0.39297 0.12495 0.94703 0.0
C602 C 0.38299 0.11847 0.93481 0.0
C603 C 0.37902 0.14758 0.93495 0.0
C604 C 0.38806 0.15348 0.94711 0.0
C605 C 0.39013 0.17298 0.95222 0.0
H606 H 0.38577 0.25572 0.94166 0.0
C607 C 0.37483 0.16314 0.93092 0.0
C608 C 0.38116 0.17798 0.94103 0.0
H609 H 0.40551 0.2418 0.97617 0.0
H610 H 0.39607 0.20902 0.96651 0.0
H611 H 0.40404 0.23722 0.9235 0.0
H612 H 0.34511 0.21227 0.93551 0.0
H613 H 0.34197 0.20335 0.91969 0.0
H614 H 0.3534 0.22993 0.9241 0.0
H615 H 0.38678 0.24518 0.91856 0.0
H616 H 0.38664 0.2242 0.91031 0.0
C617 C 0.41274 0.1883 0.95549 0.0
C618 C 0.3775 0.16905 0.96342 0.0
C619 C 0.34865 0.15884 0.88574 0.0
C620 C 0.34485 0.17179 0.87898 0.0
C621 C 0.34723 0.1894 0.88536 0.0
C622 C 0.35371 0.19425 0.89818 0.0
C623 C 0.35802 0.18144 0.90472 0.0
C624 C 0.3552 0.16395 0.89853 0.0
C625 C 0.36068 0.15223 0.90696 0.0
C626 C 0.36726 0.1656 0.91922 0.0
C627 C 0.36581 0.18275 0.91782 0.0
C628 C 0.37819 0.15081 0.90176 0.0
C629 C 0.34164 0.13176 0.90777 0.0
C630 C 0.38775 0.2455 0.94721 0.0
C631 C 0.39664 0.25149 0.95967 0.0
C632 C 0.39909 0.23773 0.9665 0.0
C633 C 0.39353 0.21867 0.96088 0.0
C634 C 0.38554 0.21327 0.94826 0.0
C635 C 0.38231 0.2264 0.94174 0.0
C636 C 0.37344 0.21799 0.92845 0.0
C637 C 0.37222 0.19778 0.92804 0.0
C638 C 0.37955 0.19524 0.93962 0.0
C639 C 0.38832 0.23183 0.91966 0.0
C640 C 0.35243 0.21585 0.92672 0.0
H641 H 0.36873 0.12405 0.91941 0.0
H642 H 0.40283 0.14795 0.96265 0.0
H643 H 0.36434 0.15359 0.96225 0.0
H644 H 0.371 0.17889 0.96428 0.0
H645 H 0.38648 0.17081 0.97235 0.0
H646 H 0.42159 0.1866 0.94827 0.0
H647 H 0.41841 0.18608 0.96464 0.0
H648 H 0.41637 0.20401 0.95573 0.0
H649 H 0.34671 0.14506 0.88118 0.0
H650 H 0.34461 0.19976 0.88037 0.0
H651 H 0.35549 0.20799 0.90244 0.0
H652 H 0.38867 0.16496 0.89795 0.0
H653 H 0.37258 0.13847 0.89408 0.0
H654 H 0.38757 0.14873 0.90896 0.0
H655 H 0.32804 0.13322 0.9073 0.0
H656 H 0.34183 0.1256 0.91674 0.0
H657 H 0.33947 0.12063 0.89994 0.0
H658 H 0.38081 0.10483 0.92986 0.0
C659 C 0.37594 0.12963 0.92876 0.0
C660 C 0.73247 0.15045 0.94186 0.0
C661 C 0.71606 0.1321 0.93652 0.0
C662 C 0.71695 0.12414 0.9246 0.0
C663 C 0.74983 0.15294 0.92347 0.0
C664 C 0.74901 0.16057 0.9352 0.0
C665 C 0.76717 0.18061 0.93942 0.0
H666 H 0.85513 0.25823 0.92712 0.0
C667 C 0.76893 0.16754 0.91898 0.0
C668 C 0.7791 0.18378 0.9283 0.0
H669 H 0.8241 0.25247 0.95999 0.0
H670 H 0.79844 0.21919 0.9517 0.0
H671 H 0.84823 0.21365 0.9248 0.0
H672 H 0.81644 0.23986 0.90758 0.0
H673 H 0.81734 0.22361 0.89592 0.0
H674 H 0.84036 0.24462 0.9034 0.0
H675 H 0.85749 0.22936 0.91242 0.0
H676 H 0.84069 0.20268 0.90926 0.0
C677 C 0.77799 0.17854 0.95135 0.0
C678 C 0.76029 0.19621 0.94118 0.0
C679 C 0.78622 0.15436 0.87589 0.0
C680 C 0.80276 0.1655 0.86926 0.0
C681 C 0.8186 0.18401 0.87501 0.0
C682 C 0.81799 0.19134 0.88706 0.0
C683 C 0.80132 0.18018 0.89349 0.0
C684 C 0.78584 0.16196 0.88796 0.0
C685 C 0.76935 0.15225 0.89629 0.0
C686 C 0.77753 0.16769 0.90768 0.0
C687 C 0.79621 0.18404 0.90593 0.0
C688 C 0.76761 0.13221 0.89937 0.0
C689 C 0.75 0.1501 0.88957 0.0
C690 C 0.84276 0.24984 0.93251 0.0
C691 C 0.84167 0.25808 0.94423 0.0
C692 C 0.82547 0.24645 0.95102 0.0
C693 C 0.81045 0.22715 0.94613 0.0
C694 C 0.81151 0.21934 0.93428 0.0
C695 C 0.82757 0.23056 0.92774 0.0
C696 C 0.82613 0.21988 0.91526 0.0
C697 C 0.8064 0.20051 0.91532 0.0
C698 C 0.79792 0.20031 0.92647 0.0
C699 C 0.84408 0.21625 0.9153 0.0
C700 C 0.82515 0.23259 0.90493 0.0
H701 H 0.73344 0.12767 0.90902 0.0
H702 H 0.73249 0.1569 0.95106 0.0
H703 H 0.74712 0.19235 0.93442 0.0
H704 H 0.77174 0.21139 0.93934 0.0
H705 H 0.75593 0.19689 0.95074 0.0
H706 H 0.7771 0.16371 0.95075 0.0
H707 H 0.77109 0.17982 0.95982 0.0
H708 H 0.79417 0.18961 0.9527 0.0
H709 H 0.77387 0.14002 0.87181 0.0
H710 H 0.83136 0.19311 0.87008 0.0
H711 H 0.83047 0.20557 0.89082 0.0
H712 H 0.78268 0.13374 0.90082 0.0
H713 H 0.75876 0.12018 0.89162 0.0
H714 H 0.7609 0.12724 0.90814 0.0
H715 H 0.75348 0.16319 0.8843 0.0
H716 H 0.73946 0.14978 0.8961 0.0
H717 H 0.7422 0.13643 0.8828 0.0
H718 H 0.70448 0.11014 0.92019 0.0
C719 C 0.73374 0.13442 0.91808 0.0
C720 C 0.60561 0.85619 0.06382 0.0
C721 C 0.60891 0.87432 0.0699 0.0
C722 C 0.61968 0.88109 0.0819 0.0
C723 C 0.62235 0.85124 0.08191 0.0
C724 C 0.61247 0.84497 0.06997 0.0
C725 C 0.60956 0.82503 0.06502 0.0
H726 H 0.61595 0.74315 0.07559 0.0
C727 C 0.62647 0.83563 0.08592 0.0
C728 C 0.61923 0.82033 0.07601 0.0
H729 H 0.59019 0.75391 0.0422 0.0
H730 H 0.60077 0.78732 0.05126 0.0
H731 H 0.65584 0.78645 0.08023 0.0
H732 H 0.59858 0.76202 0.09458 0.0
H733 H 0.61706 0.77564 0.10717 0.0
H734 H 0.6164 0.75445 0.09886 0.0
H735 H 0.64904 0.76963 0.09213 0.0
H736 H 0.6605 0.79636 0.09596 0.0
C737 C 0.62108 0.828 0.05336 0.0
C738 C 0.58675 0.81001 0.06252 0.0
C739 C 0.65416 0.84066 0.13081 0.0
C740 C 0.65835 0.82787 0.13747 0.0
C741 C 0.65673 0.8107 0.13098 0.0
C742 C 0.6502 0.80588 0.11817 0.0
C743 C 0.64512 0.81829 0.11177 0.0
C744 C 0.64764 0.83563 0.11802 0.0
C745 C 0.64184 0.84719 0.10966 0.0
C746 C 0.63489 0.83363 0.09745 0.0
C747 C 0.63663 0.81663 0.0988 0.0
C748 C 0.66077 0.86767 0.10861 0.0
C749 C 0.62451 0.84865 0.11508 0.0
C750 C 0.61255 0.75268 0.07023 0.0
C751 C 0.60207 0.74577 0.05819 0.0
C752 C 0.59836 0.75886 0.05145 0.0
C753 C 0.60436 0.77823 0.05678 0.0
C754 C 0.61406 0.78457 0.06902 0.0
C755 C 0.61829 0.77198 0.07545 0.0
C756 C 0.62839 0.78108 0.08843 0.0
C757 C 0.62939 0.80117 0.08878 0.0
C758 C 0.62086 0.80307 0.07742 0.0
C759 C 0.64951 0.78343 0.08936 0.0
C760 C 0.61459 0.76766 0.09783 0.0
H761 H 0.63435 0.87554 0.09708 0.0
H762 H 0.59727 0.85047 0.05465 0.0
H763 H 0.57859 0.81285 0.06976 0.0
H764 H 0.58283 0.7943 0.06301 0.0
H765 H 0.58058 0.81135 0.05327 0.0
H766 H 0.63506 0.84286 0.05442 0.0
H767 H 0.61187 0.82723 0.04479 0.0
H768 H 0.62612 0.81704 0.05189 0.0
H769 H 0.65561 0.85415 0.13551 0.0
H770 H 0.65981 0.80058 0.13591 0.0
H771 H 0.64888 0.7924 0.11381 0.0
H772 H 0.67459 0.86664 0.10973 0.0
H773 H 0.6624 0.87925 0.11593 0.0
H774 H 0.66081 0.873 0.09931 0.0
H775 H 0.61368 0.83419 0.11843 0.0
H776 H 0.61556 0.85172 0.10815 0.0
H777 H 0.63024 0.86039 0.12314 0.0
H778 H 0.62278 0.89519 0.08669 0.0
C779 C 0.62646 0.86969 0.08791 0.0
C780 C 0.27128 0.84833 0.06808 0.0
C781 C 0.28823 0.8653 0.07439 0.0
C782 C 0.28728 0.87177 0.08673 0.0
C783 C 0.25331 0.84404 0.08637 0.0
C784 C 0.25416 0.83796 0.07421 0.0
C785 C 0.23533 0.81913 0.06894 0.0
H786 H 0.14604 0.74064 0.07817 0.0
C787 C 0.23361 0.82941 0.09016 0.0
C788 C 0.22304 0.8148 0.07994 0.0
H789 H 0.17595 0.75163 0.0445 0.0
H790 H 0.20231 0.78363 0.05437 0.0
H791 H 0.18396 0.75577 0.09711 0.0
H792 H 0.15334 0.78539 0.08344 0.0
H793 H 0.16159 0.79479 0.09921 0.0
H794 H 0.14412 0.76839 0.09517 0.0
H795 H 0.16014 0.75067 0.10169 0.0
H796 H 0.18328 0.77031 0.10999 0.0
C797 C 0.24083 0.80279 0.06578 0.0
C798 C 0.22569 0.824 0.05763 0.0
C799 C 0.21626 0.83615 0.13442 0.0
C800 C 0.1995 0.824 0.1406 0.0
C801 C 0.18319 0.80682 0.13388 0.0
C802 C 0.18365 0.80157 0.12132 0.0
C803 C 0.20065 0.81352 0.11534 0.0
C804 C 0.21654 0.83058 0.12182 0.0
C805 C 0.23341 0.84122 0.11387 0.0
C806 C 0.2249 0.82776 0.10158 0.0
C807 C 0.20575 0.81154 0.10257 0.0
C808 C 0.25208 0.84127 0.11997 0.0
C809 C 0.23644 0.86231 0.11253 0.0
C810 C 0.15807 0.75006 0.07282 0.0
C811 C 0.15896 0.74345 0.06056 0.0
C812 C 0.17506 0.75617 0.05403 0.0
C813 C 0.19035 0.77479 0.05978 0.0
C814 C 0.18963 0.78078 0.07222 0.0
C815 C 0.17346 0.76867 0.07842 0.0
C816 C 0.17512 0.77748 0.09155 0.0
C817 C 0.19519 0.79669 0.0923 0.0
C818 C 0.20368 0.79846 0.081 0.0
C819 C 0.17552 0.76286 0.10064 0.0
C820 C 0.15762 0.78165 0.09252 0.0
H821 H 0.27021 0.86684 0.10215 0.0
H822 H 0.2713 0.84311 0.05853 0.0
H823 H 0.2283 0.83949 0.05914 0.0
H824 H 0.20924 0.8143 0.05616 0.0
H825 H 0.23211 0.82284 0.0489 0.0
H826 H 0.25273 0.80419 0.07282 0.0
H827 H 0.24652 0.8041 0.05647 0.0
H828 H 0.22826 0.78743 0.066 0.0
H829 H 0.22906 0.84939 0.13936 0.0
H830 H 0.16998 0.79742 0.13837 0.0
H831 H 0.17079 0.78825 0.1168 0.0
H832 H 0.24772 0.8271 0.12422 0.0
H833 H 0.26034 0.85384 0.12749 0.0
H834 H 0.26247 0.84207 0.11318 0.0
H835 H 0.22177 0.8617 0.11136 0.0
H836 H 0.24379 0.86875 0.10418 0.0
H837 H 0.24529 0.87281 0.12096 0.0
H838 H 0.30015 0.8847 0.09187 0.0
C839 C 0.26993 0.86128 0.09273 0.0
C840 C 0.27652 0.44199 0.0777 0.0
C841 C 0.29217 0.43948 0.08285 0.0
C842 C 0.29081 0.43228 0.09469 0.0
C843 C 0.25868 0.43025 0.09596 0.0
C844 C 0.26007 0.43735 0.08437 0.0
C845 C 0.24246 0.43958 0.08023 0.0
H846 H 0.15422 0.43185 0.09172 0.0
C847 C 0.23968 0.42705 0.1004 0.0
C848 C 0.23017 0.43254 0.09119 0.0
H849 H 0.18665 0.45324 0.05955 0.0
H850 H 0.21226 0.44698 0.0681 0.0
H851 H 0.16086 0.39469 0.09365 0.0
H852 H 0.19242 0.45475 0.11191 0.0
H853 H 0.19132 0.43903 0.12329 0.0
H854 H 0.1684 0.4361 0.1158 0.0
H855 H 0.15121 0.40278 0.10601 0.0
H856 H 0.16764 0.39295 0.10918 0.0
C857 C 0.23153 0.42542 0.06806 0.0
C858 C 0.2502 0.46202 0.07889 0.0
C859 C 0.21987 0.40109 0.14275 0.0
C860 C 0.20322 0.39708 0.14922 0.0
C861 C 0.18801 0.39979 0.14345 0.0
C862 C 0.18942 0.40664 0.13163 0.0
C863 C 0.20623 0.4109 0.12538 0.0
C864 C 0.22108 0.40801 0.13088 0.0
C865 C 0.23782 0.41339 0.12273 0.0
C866 C 0.23054 0.41999 0.1115 0.0
C867 C 0.21203 0.4185 0.11316 0.0
C868 C 0.23883 0.39428 0.11919 0.0
C869 C 0.25731 0.43084 0.12988 0.0
C870 C 0.1669 0.43534 0.08655 0.0
C871 C 0.16834 0.44307 0.07492 0.0
C872 C 0.18499 0.44705 0.06844 0.0
C873 C 0.19996 0.44353 0.07348 0.0
C874 C 0.19838 0.43597 0.08516 0.0
C875 C 0.18201 0.43195 0.09146 0.0
C876 C 0.18286 0.42408 0.10378 0.0
C877 C 0.2025 0.42415 0.10387 0.0
C878 C 0.21151 0.43111 0.09295 0.0
C879 C 0.16468 0.40256 0.10326 0.0
C880 C 0.18365 0.43908 0.11431 0.0
H881 H 0.27401 0.42215 0.11018 0.0
H882 H 0.27719 0.44779 0.06872 0.0
H883 H 0.26322 0.47178 0.08593 0.0
H884 H 0.23902 0.46649 0.08068 0.0
H885 H 0.25511 0.46587 0.06948 0.0
H886 H 0.23167 0.41116 0.06841 0.0
H887 H 0.23888 0.43241 0.05975 0.0
H888 H 0.21553 0.42085 0.06659 0.0
H889 H 0.23186 0.39924 0.14692 0.0
H890 H 0.17483 0.39645 0.14807 0.0
H891 H 0.17732 0.40839 0.12783 0.0
H892 H 0.22353 0.38096 0.11728 0.0
H893 H 0.24695 0.39138 0.12691 0.0
H894 H 0.24595 0.39492 0.11055 0.0
H895 H 0.25417 0.44148 0.13528 0.0
H896 H 0.26838 0.43999 0.12362 0.0
H897 H 0.26434 0.42522 0.1366 0.0
H898 H 0.30255 0.43003 0.09884 0.0
C899 C 0.27416 0.42761 0.10124 0.0
C900 C 0.492 0.89593 0.27099 0.0
C901 C 0.50949 0.89899 0.26591 0.0
C902 C 0.51373 0.90732 0.25443 0.0
C903 C 0.48324 0.90896 0.25318 0.0
C904 C 0.47913 0.90095 0.26448 0.0
C905 C 0.4597 0.89824 0.26841 0.0
H906 H 0.37564 0.90316 0.25557 0.0
C907 C 0.46665 0.9121 0.2487 0.0
C908 C 0.45279 0.90581 0.25757 0.0
H909 H 0.39349 0.88402 0.2885 0.0
H910 H 0.42409 0.89089 0.28021 0.0
H911 H 0.41954 0.9423 0.25454 0.0
H912 H 0.3908 0.88269 0.23534 0.0
H913 H 0.4027 0.89988 0.22447 0.0
H914 H 0.38284 0.90027 0.23209 0.0
H915 H 0.39931 0.93366 0.24234 0.0
H916 H 0.42493 0.94435 0.23892 0.0
C917 C 0.46439 0.91165 0.28084 0.0
C918 C 0.44542 0.8756 0.26918 0.0
C919 C 0.46825 0.94066 0.20727 0.0
C920 C 0.45504 0.94497 0.2004 0.0
C921 C 0.4371 0.94104 0.2053 0.0
C922 C 0.43248 0.93305 0.2168 0.0
C923 C 0.44588 0.92886 0.22354 0.0
C924 C 0.46342 0.93269 0.21872 0.0
C925 C 0.47584 0.92716 0.22702 0.0
C926 C 0.463 0.91955 0.2377 0.0
C927 C 0.44545 0.92055 0.23564 0.0
C928 C 0.49611 0.94643 0.23136 0.0
C929 C 0.47761 0.91035 0.2197 0.0
C930 C 0.38618 0.90059 0.26106 0.0
C931 C 0.38186 0.89275 0.27268 0.0
C932 C 0.39608 0.88956 0.27941 0.0
C933 C 0.41399 0.89372 0.27462 0.0
C934 C 0.41794 0.90125 0.26295 0.0
C935 C 0.40426 0.90477 0.25642 0.0
C936 C 0.41129 0.91329 0.2443 0.0
C937 C 0.43131 0.91406 0.24459 0.0
C938 C 0.43505 0.90688 0.25552 0.0
C939 C 0.41382 0.93446 0.24492 0.0
C940 C 0.39614 0.89842 0.23341 0.0
H941 H 0.50488 0.91858 0.23938 0.0
H942 H 0.48818 0.88939 0.27973 0.0
H943 H 0.44707 0.86646 0.2615 0.0
H944 H 0.42946 0.87122 0.26803 0.0
H945 H 0.44872 0.87099 0.27819 0.0
H946 H 0.47919 0.92559 0.28124 0.0
H947 H 0.4648 0.90375 0.28903 0.0
H948 H 0.45363 0.91692 0.28194 0.0
H949 H 0.48199 0.94314 0.20372 0.0
H950 H 0.42672 0.94436 0.20028 0.0
H951 H 0.41863 0.93044 0.22001 0.0
H952 H 0.494 0.95954 0.23304 0.0
H953 H 0.50671 0.94985 0.22416 0.0
H954 H 0.50327 0.94566 0.24034 0.0
H955 H 0.46383 0.9005 0.21323 0.0
H956 H 0.4791 0.90013 0.22582 0.0
H957 H 0.49042 0.9167 0.21399 0.0
H958 H 0.52722 0.91011 0.25038 0.0
C959 C 0.50076 0.91233 0.24807 0.0
C960 C 0.06434 0.48202 0.289 0.0
C961 C 0.06258 0.46484 0.28252 0.0
C962 C 0.05324 0.45894 0.27012 0.0
C963 C 0.04908 0.48797 0.27061 0.0
C964 C 0.05754 0.4933 0.2829 0.0
C965 C 0.05931 0.51253 0.28828 0.0
H966 H 0.05532 0.59577 0.27889 0.0
C967 C 0.04498 0.5037 0.26677 0.0
C968 C 0.05082 0.51805 0.27713 0.0
H969 H 0.07355 0.58028 0.3133 0.0
H970 H 0.06455 0.54791 0.30314 0.0
H971 H 0.0744 0.5784 0.26082 0.0
H972 H 0.01486 0.5526 0.27187 0.0
H973 H 0.01225 0.54412 0.25601 0.0
H974 H 0.02352 0.57061 0.26069 0.0
H975 H 0.05717 0.58632 0.25573 0.0
H976 H 0.05763 0.56578 0.24733 0.0
C977 C 0.08182 0.52784 0.29202 0.0
C978 C 0.04611 0.50793 0.29922 0.0
C979 C 0.02021 0.50154 0.22153 0.0
C980 C 0.01661 0.51486 0.21501 0.0
C981 C 0.01888 0.5322 0.22171 0.0
C982 C 0.02497 0.5364 0.23457 0.0
C983 C 0.02903 0.52324 0.24087 0.0
C984 C 0.0264 0.50603 0.23438 0.0
C985 C 0.03164 0.4939 0.24261 0.0
C986 C 0.03782 0.5067 0.25509 0.0
C987 C 0.03638 0.52391 0.25397 0.0
C988 C 0.04936 0.4928 0.2375 0.0
C989 C 0.01257 0.4733 0.24299 0.0
C990 C 0.05705 0.5853 0.28432 0.0
C991 C 0.0654 0.59075 0.2969 0.0
C992 C 0.06754 0.57665 0.30354 0.0
C993 C 0.06224 0.55782 0.29763 0.0
C994 C 0.0548 0.55299 0.28491 0.0
C995 C 0.05183 0.56643 0.27857 0.0
C996 C 0.04351 0.55863 0.26514 0.0
C997 C 0.04235 0.53845 0.26442 0.0
C998 C 0.04921 0.53536 0.27598 0.0
C999 C 0.05879 0.57299 0.25673 0.0
C1000 C 0.0225 0.55645 0.2632 0.0
H1001 H 0.03967 0.46523 0.25468 0.0
H1002 H 0.0716 0.4871 0.29848 0.0
H1003 H 0.03295 0.49249 0.29765 0.0
H1004 H 0.03959 0.51774 0.30018 0.0
H1005 H 0.05467 0.50919 0.30823 0.0
H1006 H 0.09106 0.52656 0.28493 0.0
H1007 H 0.08708 0.52519 0.30116 0.0
H1008 H 0.08539 0.54354 0.29251 0.0
H1009 H 0.01837 0.48795 0.21672 0.0
H1010 H 0.01647 0.54286 0.21694 0.0
H1011 H 0.02667 0.54997 0.23907 0.0
H1012 H 0.05995 0.50717 0.23395 0.0
H1013 H 0.04399 0.48077 0.22965 0.0
H1014 H 0.05855 0.49047 0.2447 0.0
H1015 H 0.999 0.47481 0.24275 0.0
H1016 H 0.01267 0.46648 0.2517 0.0
H1017 H 0.01044 0.46269 0.23484 0.0
H1018 H 0.05137 0.44556 0.26499 0.0
C1019 C 0.04642 0.47037 0.26416 0.0
C1020 C 0.39932 0.48321 0.27623 0.0
C1021 C 0.38378 0.46485 0.27026 0.0
C1022 C 0.38559 0.4584 0.25813 0.0
C1023 C 0.41786 0.48858 0.25813 0.0
C1024 C 0.41608 0.49474 0.27004 0.0
C1025 C 0.43355 0.51482 0.27506 0.0
H1026 H 0.52101 0.59638 0.26629 0.0
C1027 C 0.43695 0.50438 0.25428 0.0
C1028 C 0.44618 0.51975 0.26421 0.0
H1029 H 0.48797 0.58566 0.2986 0.0
H1030 H 0.46336 0.55279 0.28893 0.0
H1031 H 0.51546 0.55223 0.2619 0.0
H1032 H 0.48364 0.57958 0.24639 0.0
H1033 H 0.48455 0.56438 0.23403 0.0
H1034 H 0.50758 0.58491 0.24192 0.0
H1035 H 0.52529 0.5701 0.25069 0.0
H1036 H 0.50936 0.54367 0.2459 0.0
C1037 C 0.44414 0.51208 0.28684 0.0
C1038 C 0.42569 0.52952 0.27738 0.0
C1039 C 0.45722 0.49758 0.21094 0.0
C1040 C 0.47388 0.51026 0.20483 0.0
C1041 C 0.4889 0.52856 0.21133 0.0
C1042 C 0.48742 0.53418 0.22361 0.0
C1043 C 0.47065 0.5215 0.22953 0.0
C1044 C 0.45593 0.5035 0.22326 0.0
C1045 C 0.43914 0.49209 0.23112 0.0
C1046 C 0.44626 0.50629 0.24309 0.0
C1047 C 0.46471 0.52349 0.24204 0.0
C1048 C 0.43826 0.4721 0.23327 0.0
C1049 C 0.41965 0.48964 0.22442 0.0
C1050 C 0.50844 0.58699 0.27127 0.0
C1051 C 0.50644 0.59371 0.28322 0.0
C1052 C 0.49001 0.58081 0.28945 0.0
C1053 C 0.47562 0.56176 0.28376 0.0
C1054 C 0.47757 0.55548 0.27168 0.0
C1055 C 0.49387 0.56796 0.2657 0.0
C1056 C 0.49339 0.55893 0.25285 0.0
C1057 C 0.47399 0.53902 0.25206 0.0
C1058 C 0.4648 0.53711 0.2631 0.0
C1059 C 0.51185 0.55615 0.25269 0.0
C1060 C 0.49238 0.57261 0.24322 0.0
H1061 H 0.40306 0.46444 0.24284 0.0
H1062 H 0.39829 0.48881 0.28544 0.0
H1063 H 0.41292 0.52597 0.27035 0.0
H1064 H 0.43693 0.54521 0.27639 0.0
H1065 H 0.42039 0.52869 0.28679 0.0
H1066 H 0.44376 0.49751 0.28574 0.0
H1067 H 0.43671 0.51228 0.29528 0.0
H1068 H 0.4602 0.52347 0.28858 0.0
H1069 H 0.44546 0.48335 0.20628 0.0
H1070 H 0.5017 0.53883 0.20682 0.0
H1071 H 0.49933 0.54834 0.22795 0.0
H1072 H 0.4536 0.47427 0.23465 0.0
H1073 H 0.42999 0.46072 0.22511 0.0
H1074 H 0.43138 0.46591 0.2418 0.0
H1075 H 0.42273 0.50335 0.21995 0.0
H1076 H 0.40843 0.48761 0.23087 0.0
H1077 H 0.41281 0.47686 0.21698 0.0
H1078 H 0.37391 0.44422 0.25337 0.0
C1079 C 0.40256 0.47013 0.25206 0.0
Tb1080 Tb 0.49598 0.98752 0.99436 0.0
Eu1081 Eu 0.5119 0.0162 0.02142 0.0
C1082 C 0.51635 0.97805 0.01697 0.0
C1083 C 0.46837 0.97677 0.01594 0.0
C1084 C 0.48863 0.97426 0.96023 0.0
C1085 C 0.4916 0.96749 0.93839 0.0
C1086 C 0.48777 0.96118 0.95034 0.0
C1087 C 0.49322 0.99371 0.95803 0.0
C1088 C 0.49695 1.0 0.94608 0.0
C1089 C 0.49634 0.98701 0.93614 0.0
C1090 C 0.48615 0.96803 0.97295 0.0
O1091 O 0.48271 0.00651 0.99408 0.0
O1092 O 0.50522 0.03353 0.00783 0.0
O1093 O 0.53855 0.02635 0.01044 0.0
O1094 O 0.52119 0.01593 0.99089 0.0
C1095 C 0.49057 0.0253 0.99871 0.0
O1096 O 0.50842 0.0347 0.03599 0.0
O1097 O 0.53292 0.02887 0.03837 0.0
O1098 O 0.51046 0.98725 0.0247 0.0
O1099 O 0.51569 0.97993 1.00496 0.0
O1100 O 0.47476 0.96954 0.00712 0.0
O1101 O 0.47875 0.99557 0.02069 0.0
C1102 C 0.53799 0.02654 0.99823 0.0
O1103 O 0.50274 0.97329 0.97985 0.0
O1104 O 0.47401 0.97136 0.97915 0.0
C1105 C 0.5171 0.02952 0.05616 0.0
C1106 C 0.5063 0.01717 0.08001 0.0
C1107 C 0.5204 0.03724 0.07868 0.0
C1108 C 0.52574 0.04335 0.06685 0.0
C1109 C 0.50305 0.0095 0.05742 0.0
C1110 C 0.4977 0.00339 0.06922 0.0
C1111 C 0.52269 0.03586 0.04372 0.0
H1112 H 0.49081 0.95706 0.93092 0.0
H1113 H 0.4844 0.94617 0.95188 0.0
H1114 H 0.49425 0.00414 0.96561 0.0
H1115 H 0.50081 0.0152 0.94471 0.0
H1116 H 0.52714 0.0483 0.08676 0.0
H1117 H 0.53657 0.05887 0.06604 0.0
H1118 H 0.49627 0.99859 0.04925 0.0
H1119 H 0.48703 0.98778 0.0699 0.0
Tb1120 Tb 0.01017 0.50311 0.99646 0.0
Eu1121 Eu 0.98485 0.49337 0.02104 0.0
C1122 C 0.02279 0.5362 0.01864 0.0
C1123 C 0.02375 0.48971 0.02052 0.0
C1124 C 0.02479 0.50904 0.96383 0.0
C1125 C 0.01382 0.51944 0.94552 0.0
C1126 C 0.01726 0.52044 0.95851 0.0
C1127 C 0.02861 0.49653 0.95594 0.0
C1128 C 0.025 0.49541 0.94298 0.0
C1129 C 0.01767 0.50693 0.93763 0.0
C1130 C 0.0292 0.51022 0.97748 0.0
O1131 O 0.98196 0.47587 0.99049 0.0
O1132 O 0.97565 0.46425 0.00965 0.0
O1133 O 0.96518 0.4952 1.00555 0.0
O1134 O 0.98988 0.51475 0.99357 0.0
C1135 C 0.97306 0.4611 0.9974 0.0
O1136 O 0.96988 0.47286 0.03484 0.0
O1137 O 0.96974 0.50076 0.03507 0.0
O1138 O 0.00463 0.52682 0.02205 0.0
O1139 O 0.02903 0.52717 0.011 0.0
O1140 O 0.02048 0.48739 0.00824 0.0
O1141 O 0.01437 0.49616 0.02744 0.0
C1142 C 0.97156 0.50728 0.99674 0.0
O1143 O 0.02783 0.52376 0.98443 0.0
O1144 O 0.02162 0.49322 0.98231 0.0
C1145 C 0.97014 0.48799 0.05467 0.0
C1146 C 0.97797 0.49272 0.08099 0.0
C1147 C 0.97276 0.47452 0.07409 0.0
C1148 C 0.96879 0.47215 0.06109 0.0
C1149 C 0.97529 0.5062 0.06157 0.0
C1150 C 0.97917 0.50853 0.0746 0.0
C1151 C 0.96555 0.48504 0.0409 0.0
H1152 H 0.008 0.52835 0.94165 0.0
H1153 H 0.01411 0.53018 0.96435 0.0
H1154 H 0.03453 0.48771 0.95982 0.0
H1155 H 0.02833 0.48581 0.93712 0.0
H1156 H 0.97139 0.46196 0.07877 0.0
H1157 H 0.96454 0.45784 0.05606 0.0
H1158 H 0.97631 0.51865 0.05693 0.0
H1159 H 0.98328 0.52277 0.07967 0.0
Tb1160 Tb 0.50852 0.49704 0.01811 0.0
Eu1161 Eu 0.48778 0.50202 0.9919 0.0
C1162 C 0.48215 0.46073 0.99866 0.0
C1163 C 0.53193 0.50767 0.99411 0.0
C1164 C 0.51859 0.49355 0.05167 0.0
C1165 C 0.51546 0.48081 0.07196 0.0
C1166 C 0.52024 0.48071 0.05968 0.0
C1167 C 0.51211 0.50655 0.0561 0.0
C1168 C 0.5075 0.50679 0.06843 0.0
C1169 C 0.50904 0.49385 0.07647 0.0
C1170 C 0.52268 0.49244 0.03859 0.0
O1171 O 0.50855 0.52507 0.02081 0.0
O1172 O 0.51168 0.53248 1.00062 0.0
O1173 O 0.4677 0.50115 1.0064 0.0
O1174 O 0.47757 0.48678 0.02133 0.0
C1175 C 0.51412 0.53821 0.0126 0.0
O1176 O 0.48025 0.51953 0.97978 0.0
O1177 O 0.47195 0.48913 0.97332 0.0
O1178 O 0.4723 0.46961 0.99522 0.0
O1179 O 0.49998 0.47107 1.00491 0.0
O1180 O 0.53296 0.51019 1.00638 0.0
O1181 O 0.51502 0.5009 0.98696 0.0
C1182 C 0.46506 0.4922 0.01671 0.0
O1183 O 0.50819 0.47781 0.03116 0.0
O1184 O 0.53072 0.50918 0.03343 0.0
C1185 C 0.48185 0.51215 0.95845 0.0
C1186 C 0.49705 0.52023 0.93507 0.0
C1187 C 0.47708 0.51494 0.93633 0.0
C1188 C 0.46954 0.51088 0.94793 0.0
C1189 C 0.50194 0.51804 0.95735 0.0
C1190 C 0.50948 0.52202 0.94576 0.0
C1191 C 0.47335 0.50578 0.97027 0.0
H1192 H 0.51693 0.47079 0.07798 0.0
H1193 H 0.52508 0.47048 0.05638 0.0
H1194 H 0.51043 0.51638 0.05 0.0
H1195 H 0.50238 0.51683 0.0716 0.0
H1196 H 0.46705 0.51319 0.92826 0.0
H1197 H 0.45396 0.50621 0.94861 0.0
H1198 H 0.51166 0.51908 0.9654 0.0
H1199 H 0.52497 0.52628 0.94514 0.0
Tb1200 Tb 0.16342 0.32522 0.32874 0.0
Eu1201 Eu 0.1804 0.35381 0.35584 0.0
C1202 C 0.18403 0.31532 0.35104 0.0
C1203 C 0.13657 0.31447 0.35078 0.0
C1204 C 0.1561 0.31247 0.29459 0.0
C1205 C 0.15592 0.30493 0.27235 0.0
C1206 C 0.15191 0.29859 0.28427 0.0
C1207 C 0.16422 0.33278 0.29284 0.0
C1208 C 0.16824 0.33914 0.28094 0.0
C1209 C 0.16425 0.32531 0.27054 0.0
C1210 C 0.1532 0.30597 0.30723 0.0
O1211 O 0.15019 0.34424 0.329 0.0
O1212 O 0.17331 0.37123 0.34253 0.0
O1213 O 0.20663 0.36309 0.34456 0.0
O1214 O 0.18861 0.35365 0.32528 0.0
C1215 C 0.15826 0.36304 0.33366 0.0
O1216 O 0.17776 0.37262 0.37062 0.0
O1217 O 0.20184 0.3661 0.37261 0.0
O1218 O 0.17837 0.32456 0.35891 0.0
O1219 O 0.18315 0.31729 0.33904 0.0
O1220 O 0.14223 0.30725 0.34152 0.0
O1221 O 0.14738 0.33317 0.3557 0.0
C1222 C 0.20572 0.36358 0.33238 0.0
O1223 O 0.16956 0.31054 0.31417 0.0
O1224 O 0.14142 0.30986 0.31343 0.0
C1225 C 0.18637 0.36668 0.39059 0.0
C1226 C 0.17545 0.35372 0.41431 0.0
C1227 C 0.18969 0.37383 0.41316 0.0
C1228 C 0.19508 0.38024 0.40139 0.0
C1229 C 0.17218 0.34664 0.39166 0.0
C1230 C 0.16677 0.34022 0.40339 0.0
C1231 C 0.19196 0.3733 0.37819 0.0
H1232 H 0.15243 0.29385 0.26453 0.0
H1233 H 0.14574 0.28287 0.28546 0.0
H1234 H 0.16773 0.34376 0.30073 0.0
H1235 H 0.17489 0.35496 0.27994 0.0
H1236 H 0.19649 0.38468 0.42133 0.0
H1237 H 0.20602 0.39578 0.40072 0.0
H1238 H 0.16532 0.33594 0.3834 0.0
H1239 H 0.15599 0.32459 0.40392 0.0
Tb1240 Tb 0.67899 0.83787 0.33036 0.0
Eu1241 Eu 0.65497 0.83266 0.35522 0.0
C1242 C 0.69159 0.87368 0.35005 0.0
C1243 C 0.6926 0.82599 0.35528 0.0
C1244 C 0.69307 0.84099 0.29758 0.0
C1245 C 0.68202 0.85134 0.2793 0.0
C1246 C 0.68499 0.85192 0.29228 0.0
C1247 C 0.69774 0.82919 0.2897 0.0
C1248 C 0.69462 0.82846 0.27673 0.0
C1249 C 0.68693 0.83969 0.27136 0.0
C1250 C 0.6973 0.84205 0.31121 0.0
O1251 O 0.65028 0.81038 0.32646 0.0
O1252 O 0.6468 0.80212 0.34648 0.0
O1253 O 0.63542 0.83412 0.33949 0.0
O1254 O 0.65899 0.84937 0.32581 0.0
C1255 C 0.64269 0.79691 0.33439 0.0
O1256 O 0.62998 0.81492 0.36596 0.0
O1257 O 0.65204 0.84558 0.37285 0.0
O1258 O 0.67297 0.86529 0.35254 0.0
O1259 O 0.69803 0.86305 0.34418 0.0
O1260 O 0.69003 0.82375 0.34298 0.0
O1261 O 0.68301 0.83253 0.36197 0.0
C1262 C 0.6413 0.84383 0.32958 0.0
O1263 O 0.69781 0.85681 0.31803 0.0
O1264 O 0.68802 0.82523 0.31618 0.0
C1265 C 0.63692 0.82329 0.38791 0.0
C1266 C 0.63817 0.81641 0.41327 0.0
C1267 C 0.62004 0.81191 0.40648 0.0
C1268 C 0.61946 0.8154 0.39393 0.0
C1269 C 0.65485 0.82685 0.39442 0.0
C1270 C 0.65549 0.8235 0.40701 0.0
C1271 C 0.63645 0.82904 0.3752 0.0
H1272 H 0.67627 0.86034 0.27549 0.0
H1273 H 0.68119 0.86112 0.29815 0.0
H1274 H 0.70392 0.82059 0.2936 0.0
H1275 H 0.69819 0.81903 0.27092 0.0
H1276 H 0.60636 0.80607 0.41094 0.0
H1277 H 0.60547 0.81245 0.38901 0.0
H1278 H 0.66851 0.83288 0.38991 0.0
H1279 H 0.66974 0.8273 0.41195 0.0
Tb1280 Tb 0.17854 0.83891 0.35264 0.0
Eu1281 Eu 0.15673 0.8408 0.32582 0.0
C1282 C 0.153 0.80079 0.33395 0.0
C1283 C 0.20142 0.84741 0.32846 0.0
C1284 C 0.18723 0.83191 0.38584 0.0
C1285 C 0.16117 0.82178 0.3998 0.0
C1286 C 0.16731 0.8255 0.38784 0.0
C1287 C 0.20076 0.83386 0.39582 0.0
C1288 C 0.19464 0.83005 0.40778 0.0
C1289 C 0.17487 0.82435 0.40998 0.0
C1290 C 0.19441 0.83811 0.37369 0.0
O1291 O 0.19243 0.86989 0.3485 0.0
O1292 O 0.16477 0.86821 0.33857 0.0
O1293 O 0.13217 0.82809 0.33849 0.0
O1294 O 0.15154 0.83867 0.35751 0.0
C1295 C 0.18236 0.87859 0.34504 0.0
O1296 O 0.15502 0.85855 0.31134 0.0
O1297 O 0.13462 0.82651 0.30945 0.0
O1298 O 0.15754 0.81222 0.3248 0.0
O1299 O 0.15578 0.80843 0.3456 0.0
O1300 O 0.19798 0.83874 0.3389 0.0
O1301 O 0.18911 0.85247 0.32309 0.0
C1302 C 0.1341 0.83115 0.35077 0.0
O1303 O 0.18817 0.82398 0.36448 0.0
O1304 O 0.19345 0.85348 0.37027 0.0
C1305 C 0.14665 0.84179 0.29117 0.0
C1306 C 0.15818 0.84184 0.26687 0.0
C1307 C 0.14505 0.84882 0.2696 0.0
C1308 C 0.13933 0.84877 0.28166 0.0
C1309 C 0.15969 0.83475 0.2885 0.0
C1310 C 0.16535 0.8347 0.27644 0.0
C1311 C 0.14162 0.84295 0.30398 0.0
H1312 H 0.1459 0.81761 0.40116 0.0
H1313 H 0.15667 0.82395 0.38021 0.0
H1314 H 0.2162 0.83877 0.39443 0.0
H1315 H 0.20549 0.83182 0.41534 0.0
H1316 H 0.13912 0.85422 0.26239 0.0
H1317 H 0.12935 0.85437 0.28359 0.0
H1318 H 0.16571 0.82956 0.29579 0.0
H1319 H 0.17567 0.82948 0.27468 0.0
Tb1320 Tb 0.82969 0.65773 0.66179 0.0
Eu1321 Eu 0.84652 0.68596 0.68903 0.0
C1322 C 0.84985 0.64732 0.68406 0.0
C1323 C 0.80241 0.64718 0.68357 0.0
C1324 C 0.82195 0.64473 0.62762 0.0
C1325 C 0.82076 0.63672 0.60532 0.0
C1326 C 0.817 0.6306 0.61731 0.0
C1327 C 0.83058 0.66506 0.62581 0.0
C1328 C 0.83436 0.6712 0.61384 0.0
C1329 C 0.82959 0.65712 0.60344 0.0
C1330 C 0.81916 0.63839 0.6403 0.0
O1331 O 0.81723 0.67745 0.66191 0.0
O1332 O 0.84029 0.70397 0.67578 0.0
O1333 O 0.87289 0.69557 0.67782 0.0
O1334 O 0.85529 0.68586 0.65835 0.0
C1335 C 0.82554 0.69621 0.66672 0.0
O1336 O 0.84362 0.70426 0.70404 0.0
O1337 O 0.86816 0.69839 0.70568 0.0
O1338 O 0.84421 0.65655 0.69194 0.0
O1339 O 0.84915 0.64948 0.67208 0.0
O1340 O 0.80827 0.63988 0.67447 0.0
O1341 O 0.81333 0.66581 0.68858 0.0
C1342 C 0.87222 0.69602 0.66563 0.0
O1343 O 0.83555 0.64288 0.64718 0.0
O1344 O 0.80756 0.64249 0.64653 0.0
C1345 C 0.8531 0.69873 0.7239 0.0
C1346 C 0.84301 0.68599 0.74775 0.0
C1347 C 0.85467 0.7065 0.74627 0.0
C1348 C 0.85969 0.7128 0.73444 0.0
C1349 C 0.84138 0.67828 0.7253 0.0
C1350 C 0.83642 0.67196 0.73711 0.0
C1351 C 0.85817 0.70528 0.71143 0.0
H1352 H 0.81667 0.62546 0.59751 0.0
H1353 H 0.8104 0.61485 0.61855 0.0
H1354 H 0.83466 0.67621 0.63369 0.0
H1355 H 0.84142 0.68704 0.61279 0.0
H1356 H 0.86014 0.71766 0.75428 0.0
H1357 H 0.86873 0.72865 0.73351 0.0
H1358 H 0.83601 0.6672 0.71724 0.0
H1359 H 0.82718 0.65609 0.73788 0.0
Tb1360 Tb 0.34724 0.17256 0.66274 0.0
Eu1361 Eu 0.32211 0.16592 0.68715 0.0
C1362 C 0.35833 0.20763 0.68262 0.0
C1363 C 0.36053 0.16054 0.68773 0.0
C1364 C 0.36186 0.17663 0.63017 0.0
C1365 C 0.34968 0.18597 0.61187 0.0
C1366 C 0.35303 0.18691 0.62486 0.0
C1367 C 0.36697 0.16518 0.6223 0.0
C1368 C 0.36344 0.16408 0.60933 0.0
C1369 C 0.35489 0.17457 0.60398 0.0
C1370 C 0.36619 0.17784 0.64381 0.0
O1371 O 0.31906 0.14462 0.6583 0.0
O1372 O 0.31475 0.13574 0.67817 0.0
O1373 O 0.30253 0.16678 0.6712 0.0
O1374 O 0.32662 0.1833 0.65806 0.0
C1375 C 0.3113 0.13086 0.66603 0.0
O1376 O 0.29754 0.14716 0.69788 0.0
O1377 O 0.31761 0.17846 0.70438 0.0
O1378 O 0.33949 0.19871 0.68467 0.0
O1379 O 0.36546 0.19754 0.6769 0.0
O1380 O 0.35841 0.15858 0.67542 0.0
O1381 O 0.35043 0.16661 0.69427 0.0
C1382 C 0.30858 0.17696 0.6615 0.0
O1383 O 0.3659 0.19217 0.65062 0.0
O1384 O 0.35752 0.16095 0.64876 0.0
C1385 C 0.30395 0.15643 0.71972 0.0
C1386 C 0.30663 0.15088 0.74523 0.0
C1387 C 0.28834 0.14679 0.73887 0.0
C1388 C 0.28705 0.14961 0.72624 0.0
C1389 C 0.32201 0.15966 0.72582 0.0
C1390 C 0.32336 0.15695 0.73849 0.0
C1391 C 0.30285 0.16143 0.70688 0.0
H1392 H 0.34288 0.19403 0.60799 0.0
H1393 H 0.34878 0.19574 0.63071 0.0
H1394 H 0.37383 0.15718 0.6262 0.0
H1395 H 0.36777 0.15533 0.60346 0.0
H1396 H 0.27509 0.14175 0.74373 0.0
H1397 H 0.27297 0.14695 0.72163 0.0
H1398 H 0.33523 0.1649 0.72091 0.0
H1399 H 0.33771 0.16041 0.7431 0.0
Tb1400 Tb 0.84419 0.17004 0.68561 0.0
Eu1401 Eu 0.82364 0.1749 0.6593 0.0
C1402 C 0.81803 0.13355 0.66593 0.0
C1403 C 0.86757 0.17961 0.66161 0.0
C1404 C 0.85098 0.15961 0.71822 0.0
C1405 C 0.85598 0.15154 0.73908 0.0
C1406 C 0.86249 0.15633 0.72729 0.0
C1407 C 0.83255 0.15739 0.7209 0.0
C1408 C 0.8261 0.15277 0.73271 0.0
C1409 C 0.8379 0.15012 0.74204 0.0
C1410 C 0.85885 0.16658 0.70632 0.0
O1411 O 0.85957 0.20148 0.6824 0.0
O1412 O 0.83275 0.20185 0.67285 0.0
O1413 O 0.79881 0.16204 0.67177 0.0
O1414 O 0.81797 0.17116 0.69079 0.0
C1415 C 0.85034 0.2112 0.67938 0.0
O1416 O 0.82319 0.19408 0.64542 0.0
O1417 O 0.80142 0.16235 0.64292 0.0
O1418 O 0.82335 0.14578 0.6572 0.0
O1419 O 0.82052 0.14041 0.67772 0.0
O1420 O 0.8636 0.17014 0.67174 0.0
O1421 O 0.85585 0.18562 0.65656 0.0
C1422 C 0.80067 0.16454 0.68407 0.0
O1423 O 0.85221 0.1531 0.6967 0.0
O1424 O 0.85916 0.18284 0.70349 0.0
C1425 C 0.81389 0.1783 0.62493 0.0
C1426 C 0.82398 0.1781 0.60025 0.0
C1427 C 0.81003 0.18388 0.60325 0.0
C1428 C 0.80504 0.18398 0.6155 0.0
C1429 C 0.82777 0.17249 0.62202 0.0
C1430 C 0.83275 0.17236 0.60978 0.0
C1431 C 0.8092 0.17919 0.63786 0.0
H1432 H 0.86527 0.14921 0.74593 0.0
H1433 H 0.87672 0.15789 0.72535 0.0
H1434 H 0.82345 0.15981 0.71398 0.0
H1435 H 0.81222 0.15203 0.73465 0.0
H1436 H 0.8032 0.18865 0.59619 0.0
H1437 H 0.79443 0.18867 0.61763 0.0
H1438 H 0.83481 0.16814 0.62923 0.0
H1439 H 0.84334 0.16758 0.60777 0.0
H1440 H 0.30456 0.8487 0.05938 0.0
H1441 H 0.33499 0.86598 0.04899 0.0
H1442 H 0.34488 0.92287 0.0651 0.0
H1443 H 0.31421 0.90576 0.07534 0.0
H1444 H 0.34451 0.89605 0.03177 0.0
H1445 H 0.39814 0.92366 0.0748 0.0
H1446 H 0.37253 0.90361 0.07441 0.0
H1447 H 0.37823 0.92917 0.0752 0.0
C1448 C 0.31307 0.8649 0.06063 0.0
C1449 C 0.3069 0.87585 0.0682 0.0
C1450 C 0.33052 0.87473 0.05473 0.0
C1451 C 0.34225 0.89565 0.05639 0.0
C1452 C 0.33617 0.90667 0.06388 0.0
H1453 H 0.44977 0.98804 0.03248 0.0
H1454 H 0.419 0.96695 0.04151 0.0
C1455 C 0.31867 0.89686 0.06975 0.0
C1456 C 0.36075 0.90601 0.05014 0.0
H1457 H 0.41135 0.9365 0.056 0.0
C1458 C 0.35917 0.90479 0.03703 0.0
C1459 C 0.3798 0.91728 0.05707 0.0
C1460 C 0.38241 0.91843 0.07115 0.0
C1461 C 0.37613 0.91523 0.03065 0.0
C1462 C 0.39516 0.92682 0.03759 0.0
C1463 C 0.39674 0.92762 0.0507 0.0
C1464 C 0.41351 0.93929 0.03158 0.0
C1465 C 0.37343 0.91438 0.01659 0.0
C1466 C 0.42071 0.93075 0.02294 0.0
C1467 C 0.4384 0.94286 0.01765 0.0
C1468 C 0.44924 0.96367 0.02101 0.0
C1469 C 0.44189 0.97208 0.02965 0.0
C1470 C 0.42426 0.96004 0.03486 0.0
H1471 H 0.35756 0.90854 0.01296 0.0
H1472 H 0.38273 0.92945 0.01347 0.0
H1473 H 0.37828 0.9043 0.01237 0.0
H1474 H 0.41283 0.91471 0.02045 0.0
H1475 H 0.44372 0.9359 0.01109 0.0
H1476 H 0.14915 0.45933 0.08736 0.0
H1477 H 0.12351 0.46618 0.07865 0.0
H1478 H 0.12717 0.444 0.04182 0.0
H1479 H 0.15225 0.4364 0.0505 0.0
H1480 H 0.12652 0.49138 0.06078 0.0
H1481 H 0.06721 0.41339 0.04448 0.0
H1482 H 0.08878 0.41921 0.05513 0.0
H1483 H 0.09076 0.42042 0.03862 0.0
C1484 C 0.14427 0.45559 0.07743 0.0
C1485 C 0.1527 0.4472 0.06964 0.0
C1486 C 0.12972 0.45966 0.07246 0.0
C1487 C 0.12321 0.45532 0.05962 0.0
C1488 C 0.13167 0.4471 0.0518 0.0
H1489 H 0.04461 0.47443 0.00924 0.0
H1490 H 0.06861 0.46643 0.01919 0.0
C1491 C 0.14621 0.443 0.05676 0.0
C1492 C 0.10805 0.46003 0.05434 0.0
H1493 H 0.06216 0.4393 0.03749 0.0
C1494 C 0.11238 0.47998 0.05577 0.0
C1495 C 0.0896 0.44512 0.04782 0.0
C1496 C 0.08368 0.42331 0.04651 0.0
C1497 C 0.09897 0.4855 0.05057 0.0
C1498 C 0.08066 0.47063 0.04392 0.0
C1499 C 0.07624 0.45066 0.04258 0.0
C1500 C 0.06604 0.47554 0.03802 0.0
C1501 C 0.10475 0.50727 0.05194 0.0
C1502 C 0.05647 0.48312 0.04534 0.0
C1503 C 0.0427 0.48771 0.03968 0.0
C1504 C 0.03821 0.48474 0.0266 0.0
C1505 C 0.04773 0.47697 0.01933 0.0
C1506 C 0.06144 0.47235 0.02499 0.0
H1507 H 0.121 0.51727 0.05487 0.0
H1508 H 0.10086 0.51164 0.04301 0.0
H1509 H 0.09637 0.50971 0.05916 0.0
H1510 H 0.05958 0.48538 0.05543 0.0
H1511 H 0.0356 0.49359 0.04557 0.0
H1512 H 0.58466 0.71236 0.07056 0.0
H1513 H 0.57073 0.67756 0.06206 0.0
H1514 H 0.58623 0.69637 0.02551 0.0
H1515 H 0.60096 0.7314 0.03405 0.0
H1516 H 0.53947 0.65643 0.04336 0.0
H1517 H 0.60882 0.65914 0.03006 0.0
H1518 H 0.60929 0.6787 0.04031 0.0
H1519 H 0.60389 0.67736 0.02369 0.0
C1520 C 0.5855 0.70917 0.06076 0.0
C1521 C 0.59409 0.72469 0.053 0.0
C1522 C 0.57737 0.68925 0.0559 0.0
C1523 C 0.57767 0.68442 0.0432 0.0
C1524 C 0.58618 0.69981 0.0354 0.0
H1525 H 0.52933 0.56973 0.99844 0.0
H1526 H 0.54433 0.6053 1.00561 0.0
C1527 C 0.59438 0.71979 0.04026 0.0
C1528 C 0.56837 0.66317 0.03812 0.0
H1529 H 0.57828 0.6289 0.02399 0.0
C1530 C 0.54795 0.6504 0.03914 0.0
C1531 C 0.57949 0.65539 0.03259 0.0
C1532 C 0.60163 0.66829 0.03167 0.0
C1533 C 0.53831 0.63002 0.03475 0.0
C1534 C 0.54947 0.62221 0.02935 0.0
C1535 C 0.56982 0.635 0.02816 0.0
C1536 C 0.54034 0.6007 0.02506 0.0
C1537 C 0.51623 0.61703 0.03581 0.0
C1538 C 0.53335 0.58641 0.03368 0.0
C1539 C 0.5248 0.56609 0.02963 0.0
C1540 C 0.52314 0.55972 0.01689 0.0
C1541 C 0.5303 0.57412 0.0083 0.0
C1542 C 0.53891 0.59445 0.01237 0.0
H1543 H 0.50894 0.6261 0.03737 0.0
H1544 H 0.50853 0.60644 0.02724 0.0
H1545 H 0.51415 0.60812 0.04386 0.0
H1546 H 0.53463 0.59101 0.04354 0.0
H1547 H 0.51952 0.5554 0.0365 0.0
H1548 H 0.85887 0.29099 0.9313 0.0
H1549 H 0.88299 0.32555 0.93958 0.0
H1550 H 0.88222 0.30718 0.97666 0.0
H1551 H 0.85872 0.27246 0.96839 0.0
H1552 H 0.87735 0.34892 0.95711 0.0
H1553 H 0.94184 0.34077 0.97379 0.0
H1554 H 0.92093 0.32176 0.96332 0.0
H1555 H 0.91901 0.32371 0.97984 0.0
C1556 C 0.86415 0.29422 0.94118 0.0
C1557 C 0.85693 0.27894 0.94918 0.0
C1558 C 0.87782 0.314 0.9459 0.0
C1559 C 0.88459 0.31888 0.95869 0.0
C1560 C 0.87749 0.30368 0.96671 0.0
H1561 H 0.95401 0.42672 0.00876 0.0
H1562 H 0.9327 0.39257 0.99878 0.0
C1563 C 0.86387 0.28388 0.96199 0.0
C1564 C 0.89826 0.34002 0.96376 0.0
H1565 H 0.94337 0.3714 0.98069 0.0
C1566 C 0.89187 0.3539 0.96216 0.0
C1567 C 0.91718 0.34643 0.97035 0.0
C1568 C 0.92526 0.33244 0.97184 0.0
C1569 C 0.90368 0.37393 0.96727 0.0
C1570 C 0.92243 0.38024 0.97403 0.0
C1571 C 0.92894 0.36644 0.97552 0.0
C1572 C 0.93531 0.401 0.97992 0.0
C1573 C 0.89578 0.38806 0.96572 0.0
C1574 C 0.94393 0.41701 0.97258 0.0
C1575 C 0.95615 0.43659 0.97824 0.0
C1576 C 0.95997 0.44045 0.99134 0.0
C1577 C 0.95134 0.42431 0.99864 0.0
C1578 C 0.93919 0.40477 0.99297 0.0
H1579 H 0.87952 0.37996 0.96249 0.0
H1580 H 0.89842 0.39733 0.97467 0.0
H1581 H 0.90381 0.3983 0.95868 0.0
H1582 H 0.94131 0.41434 0.96247 0.0
H1583 H 0.96263 0.44866 0.97234 0.0
H1584 H 0.70905 0.56788 0.96379 0.0
H1585 H 0.6774 0.55872 0.97223 0.0
H1586 H 0.64632 0.53807 0.93504 0.0
H1587 H 0.67784 0.54656 0.92654 0.0
H1588 H 0.65019 0.57155 0.96731 0.0
H1589 H 0.61498 0.48968 0.95422 0.0
H1590 H 0.64139 0.50675 0.95391 0.0
H1591 H 0.62369 0.5047 0.94146 0.0
C1592 C 0.69546 0.56122 0.9574 0.0
C1593 C 0.69598 0.55775 0.94449 0.0
C1594 C 0.6774 0.55612 0.96224 0.0
C1595 C 0.65944 0.54738 0.9543 0.0
C1596 C 0.65994 0.54443 0.94137 0.0
H1597 H 0.53586 0.50402 0.96911 0.0
H1598 H 0.56664 0.51412 0.95929 0.0
C1599 C 0.67802 0.54952 0.93651 0.0
C1600 C 0.64025 0.54139 0.95962 0.0
H1601 H 0.59467 0.50099 0.96297 0.0
C1602 C 0.63806 0.55612 0.96637 0.0
C1603 C 0.62442 0.52124 0.95839 0.0
C1604 C 0.62622 0.50462 0.9517 0.0
C1605 C 0.62042 0.55129 0.97184 0.0
C1606 C 0.60468 0.53114 0.97069 0.0
C1607 C 0.60677 0.51643 0.96383 0.0
C1608 C 0.58603 0.52496 0.9767 0.0
C1609 C 0.61867 0.56785 0.97866 0.0
C1610 C 0.58667 0.5274 0.98977 0.0
C1611 C 0.5691 0.52162 0.99543 0.0
C1612 C 0.55049 0.51319 0.98813 0.0
C1613 C 0.54989 0.51049 0.97503 0.0
C1614 C 0.56748 0.51625 0.96939 0.0
H1615 H 0.62964 0.58278 0.97599 0.0
H1616 H 0.60337 0.56552 0.97673 0.0
H1617 H 0.62166 0.5679 0.98887 0.0
H1618 H 0.60078 0.53374 0.9956 0.0
H1619 H 0.57015 0.52386 1.00553 0.0
H1620 H 0.41379 0.10949 0.93604 0.0
H1621 H 0.43035 0.09319 0.94589 0.0
H1622 H 0.41061 0.10083 0.98127 0.0
H1623 H 0.39342 0.11662 0.9714 0.0
H1624 H 0.46085 0.10981 0.96603 0.0
H1625 H 0.39333 0.04101 0.97702 0.0
H1626 H 0.39203 0.05725 0.96611 0.0
H1627 H 0.3952 0.06425 0.98265 0.0
C1628 C 0.41262 0.10736 0.94586 0.0
C1629 C 0.40216 0.11421 0.95292 0.0
C1630 C 0.42226 0.09823 0.95149 0.0
C1631 C 0.42156 0.0957 0.96426 0.0
C1632 C 0.4111 0.10243 0.97136 0.0
H1633 H 0.4984 0.06271 0.00766 0.0
H1634 H 0.48235 0.08095 0.99987 0.0
C1635 C 0.40143 0.11158 0.96573 0.0
C1636 C 0.43217 0.08634 0.97014 0.0
H1637 H 0.42475 0.04524 0.98423 0.0
C1638 C 0.45301 0.09573 0.97006 0.0
C1639 C 0.42181 0.06793 0.9753 0.0
C1640 C 0.39934 0.05688 0.97522 0.0
C1641 C 0.4638 0.08706 0.97491 0.0
C1642 C 0.45344 0.06868 0.98011 0.0
C1643 C 0.43263 0.05941 0.9803 0.0
C1644 C 0.46369 0.05817 0.98473 0.0
C1645 C 0.48605 0.09729 0.9741 0.0
C1646 C 0.45837 0.03931 0.97884 0.0
C1647 C 0.46739 0.02885 0.98328 0.0
C1648 C 0.48189 0.03702 0.99374 0.0
C1649 C 0.48737 0.05605 0.99955 0.0
C1650 C 0.47826 0.06651 0.9951 0.0
H1651 H 0.491 0.10906 0.96757 0.0
H1652 H 0.49411 0.10447 0.98349 0.0
H1653 H 0.49047 0.08626 0.97096 0.0
H1654 H 0.44716 0.03265 0.97081 0.0
H1655 H 0.46286 0.01428 0.97853 0.0
H1656 H 0.6986 0.14882 0.95032 0.0
H1657 H 0.66949 0.1319 0.96184 0.0
H1658 H 0.66258 0.07479 0.94895 0.0
H1659 H 0.69236 0.09169 0.9379 0.0
H1660 H 0.63138 0.10529 0.9533 0.0
H1661 H 0.66042 0.07099 0.98616 0.0
H1662 H 0.67633 0.09005 0.97672 0.0
H1663 H 0.66133 0.06439 0.97006 0.0
C1664 C 0.69114 0.13268 0.95011 0.0
C1665 C 0.69799 0.12164 0.94328 0.0
C1666 C 0.67438 0.12302 0.95662 0.0
C1667 C 0.66406 0.10211 0.95645 0.0
C1668 C 0.67059 0.09098 0.94947 0.0
H1669 H 0.54276 0.02755 0.97335 0.0
H1670 H 0.5735 0.0467 0.96372 0.0
C1671 C 0.68746 0.10065 0.943 0.0
C1672 C 0.64606 0.092 0.96323 0.0
H1673 H 0.62551 0.05963 0.98526 0.0
C1674 C 0.63014 0.0954 0.96034 0.0
C1675 C 0.64459 0.07937 0.97257 0.0
C1676 C 0.66166 0.07612 0.97667 0.0
C1677 C 0.61263 0.08615 0.96633 0.0
C1678 C 0.61078 0.07277 0.97523 0.0
C1679 C 0.62687 0.06974 0.97835 0.0
C1680 C 0.59209 0.06139 0.98119 0.0
C1681 C 0.59639 0.09103 0.96315 0.0
C1682 C 0.59239 0.06287 0.99427 0.0
C1683 C 0.5748 0.05173 0.99986 0.0
C1684 C 0.55662 0.0389 0.99246 0.0
C1685 C 0.55643 0.03745 0.97936 0.0
C1686 C 0.574 0.04848 0.9738 0.0
H1687 H 0.60245 0.10573 0.95933 0.0
H1688 H 0.58507 0.07942 0.95591 0.0
H1689 H 0.58877 0.09131 0.97149 0.0
H1690 H 0.60624 0.07266 1.00015 0.0
H1691 H 0.57549 0.05314 0.00997 0.0
H1692 H 0.85951 0.54541 0.9236 0.0
H1693 H 0.88138 0.53568 0.93464 0.0
H1694 H 0.87365 0.55925 0.96979 0.0
H1695 H 0.85217 0.56955 0.95878 0.0
H1696 H 0.91364 0.57081 0.9669 0.0
H1697 H 0.86368 0.48872 0.95609 0.0
H1698 H 0.86894 0.50239 0.9426 0.0
H1699 H 0.85509 0.50629 0.95412 0.0
C1700 C 0.86256 0.54866 0.93367 0.0
C1701 C 0.85405 0.55824 0.9403 0.0
C1702 C 0.87489 0.54288 0.93998 0.0
C1703 C 0.87889 0.54647 0.95305 0.0
C1704 C 0.87062 0.5562 0.95971 0.0
H1705 H 0.93291 0.49563 1.00091 0.0
H1706 H 0.91065 0.50552 0.99057 0.0
C1707 C 0.85825 0.56196 0.9534 0.0
C1708 C 0.89204 0.54041 0.95975 0.0
H1709 H 0.89674 0.49988 0.96524 0.0
C1710 C 0.90993 0.55531 0.96658 0.0
C1711 C 0.88703 0.52014 0.95945 0.0
C1712 C 0.86756 0.50342 0.95277 0.0
C1713 C 0.92315 0.55051 0.97291 0.0
C1714 C 0.91847 0.53032 0.97224 0.0
C1715 C 0.90039 0.51538 0.96563 0.0
C1716 C 0.93207 0.52435 0.97844 0.0
C1717 C 0.94189 0.56708 0.98039 0.0
C1718 C 0.95141 0.53142 0.97492 0.0
C1719 C 0.9642 0.52581 0.98081 0.0
C1720 C 0.95786 0.51292 0.99031 0.0
C1721 C 0.93834 0.50562 0.99367 0.0
C1722 C 0.92557 0.51124 0.98776 0.0
H1723 H 0.94075 0.58065 0.98257 0.0
H1724 H 0.94503 0.56212 0.98929 0.0
H1725 H 0.95479 0.57129 0.97488 0.0
H1726 H 0.95659 0.54122 0.96756 0.0
H1727 H 0.97907 0.53161 0.97792 0.0
H1728 H 0.37924 0.27467 0.95744 0.0
H1729 H 0.39375 0.31004 0.96511 0.0
H1730 H 0.44582 0.31063 0.98239 0.0
H1731 H 0.43182 0.27557 0.97441 0.0
H1732 H 0.40691 0.32989 0.98971 0.0
H1733 H 0.46909 0.35594 0.95961 0.0
H1734 H 0.44748 0.33105 0.95717 0.0
H1735 H 0.46719 0.33716 0.96935 0.0
C1736 C 0.39381 0.28235 0.96284 0.0
C1737 C 0.40444 0.27235 0.96524 0.0
C1738 C 0.40201 0.3025 0.96728 0.0
C1739 C 0.42098 0.31297 0.97413 0.0
C1740 C 0.43129 0.30287 0.97693 0.0
H1741 H 0.4984 0.43735 1.0039 0.0
H1742 H 0.48318 0.40121 0.99859 0.0
C1743 C 0.42315 0.28276 0.97249 0.0
C1744 C 0.43018 0.3346 0.9781 0.0
H1745 H 0.46994 0.3803 0.97437 0.0
C1746 C 0.42067 0.34094 0.98636 0.0
C1747 C 0.44812 0.34892 0.97368 0.0
C1748 C 0.45851 0.34301 0.96437 0.0
C1749 C 0.42879 0.36129 0.99044 0.0
C1750 C 0.4467 0.3756 0.98599 0.0
C1751 C 0.45625 0.36924 0.97778 0.0
C1752 C 0.45559 0.39731 0.98949 0.0
C1753 C 0.41833 0.3673 0.99963 0.0
C1754 C 0.44517 0.40705 0.98598 0.0
C1755 C 0.45381 0.42767 0.98897 0.0
C1756 C 0.47309 0.43892 0.99546 0.0
C1757 C 0.48353 0.42911 0.9989 0.0
C1758 C 0.47487 0.40848 0.99589 0.0
H1759 H 0.40792 0.35447 1.00452 0.0
H1760 H 0.42933 0.37952 1.00672 0.0
H1761 H 0.40948 0.37285 0.99453 0.0
H1762 H 0.43044 0.39873 0.98081 0.0
H1763 H 0.44539 0.43476 0.98614 0.0
H1764 H 0.1654 0.71698 0.0466 0.0
H1765 H 0.14114 0.68228 0.03881 0.0
H1766 H 0.09444 0.68822 0.05471 0.0
H1767 H 0.11846 0.72323 0.0621 0.0
H1768 H 0.11968 0.65253 0.05357 0.0
H1769 H 0.0683 0.66139 0.01967 0.0
H1770 H 0.09278 0.68191 0.02565 0.0
H1771 H 0.07221 0.67403 0.03499 0.0
C1772 C 0.14988 0.7111 0.04816 0.0
C1773 C 0.14387 0.72292 0.05494 0.0
C1774 C 0.13606 0.6912 0.04379 0.0
C1775 C 0.11596 0.68274 0.04608 0.0
C1776 C 0.1098 0.69456 0.05265 0.0
H1777 H 0.01459 0.561 0.03311 0.0
H1778 H 0.03716 0.59649 0.04024 0.0
C1779 C 0.12361 0.7145 0.05699 0.0
C1780 C 0.10182 0.66119 0.04232 0.0
H1781 H 0.05794 0.62834 0.02461 0.0
C1782 C 0.10622 0.64724 0.0472 0.0
C1783 C 0.08423 0.65436 0.03407 0.0
C1784 C 0.07913 0.66868 0.02819 0.0
C1785 C 0.09344 0.6266 0.04409 0.0
C1786 C 0.07592 0.61979 0.03579 0.0
C1787 C 0.07139 0.63369 0.031 0.0
C1788 C 0.06242 0.59827 0.03169 0.0
C1789 C 0.09862 0.61224 0.04983 0.0
C1790 C 0.06919 0.58762 0.02449 0.0
C1791 C 0.05638 0.56739 0.02039 0.0
C1792 C 0.03653 0.55744 0.02341 0.0
C1793 C 0.02981 0.56817 0.03067 0.0
C1794 C 0.04264 0.58846 0.03472 0.0
H1795 H 0.10974 0.61953 0.05823 0.0
H1796 H 0.08504 0.59911 0.05252 0.0
H1797 H 0.10518 0.60671 0.04287 0.0
H1798 H 0.08433 0.59504 0.0219 0.0
H1799 H 0.06203 0.55962 0.01478 0.0
H1800 H 0.29257 0.43124 0.05782 0.0
H1801 H 0.32169 0.44049 0.04632 0.0
H1802 H 0.36083 0.46827 0.08058 0.0
H1803 H 0.33179 0.45941 0.09214 0.0
H1804 H 0.37231 0.49202 0.05987 0.0
H1805 H 0.35749 0.4148 0.04754 0.0
H1806 H 0.33685 0.41863 0.04359 0.0
H1807 H 0.34579 0.4208 0.05973 0.0
C1808 C 0.30738 0.43938 0.06291 0.0
C1809 C 0.30985 0.44455 0.07591 0.0
C1810 C 0.32399 0.44451 0.05634 0.0
C1811 C 0.3434 0.45489 0.06261 0.0
C1812 C 0.34596 0.46017 0.07557 0.0
H1813 H 0.45422 0.47272 0.03769 0.0
H1814 H 0.42476 0.46441 0.04848 0.0
C1815 C 0.32934 0.45496 0.08217 0.0
C1816 C 0.36107 0.46048 0.05564 0.0
H1817 H 0.38398 0.44084 0.03846 0.0
C1818 C 0.37488 0.48085 0.05518 0.0
C1819 C 0.36444 0.44586 0.04961 0.0
C1820 C 0.35048 0.42378 0.05019 0.0
C1821 C 0.39192 0.487 0.04876 0.0
C1822 C 0.39513 0.47238 0.04257 0.0
C1823 C 0.38138 0.45201 0.04311 0.0
C1824 C 0.41311 0.47787 0.03595 0.0
C1825 C 0.40659 0.50908 0.04887 0.0
C1826 C 0.41632 0.48814 0.02524 0.0
C1827 C 0.43322 0.49292 0.01898 0.0
C1828 C 0.44718 0.48747 0.02331 0.0
C1829 C 0.44384 0.47718 0.03405 0.0
C1830 C 0.42697 0.47238 0.04026 0.0
H1831 H 0.40412 0.5182 0.05612 0.0
H1832 H 0.42222 0.51221 0.05057 0.0
H1833 H 0.40482 0.51392 0.03961 0.0
H1834 H 0.40566 0.49228 0.02165 0.0
H1835 H 0.43526 0.5008 0.01073 0.0
H1836 H 0.59073 0.89259 0.08116 0.0
H1837 H 0.57554 0.9102 0.07139 0.0
H1838 H 0.59212 0.89903 0.03562 0.0
H1839 H 0.60762 0.88156 0.04534 0.0
H1840 H 0.5936 0.9441 0.05754 0.0
H1841 H 0.53109 0.877 0.02923 0.0
H1842 H 0.5459 0.8752 0.04218 0.0
H1843 H 0.55579 0.88132 0.02741 0.0
C1844 C 0.59139 0.89408 0.07124 0.0
C1845 C 0.60038 0.88566 0.06402 0.0
C1846 C 0.58259 0.90404 0.06567 0.0
C1847 C 0.58248 0.90565 0.05278 0.0
C1848 C 0.59172 0.89759 0.04556 0.0
H1849 H 0.53236 0.95888 1.00408 0.0
H1850 H 0.54868 0.94145 0.01265 0.0
C1851 C 0.60056 0.88762 0.05112 0.0
C1852 C 0.57277 0.9159 0.04697 0.0
H1853 H 0.53365 0.90817 0.02638 0.0
C1854 C 0.58049 0.93628 0.05073 0.0
C1855 C 0.55572 0.9056 0.03807 0.0
C1856 C 0.54648 0.88353 0.03402 0.0
C1857 C 0.57167 0.94672 0.04575 0.0
C1858 C 0.55443 0.93636 0.03699 0.0
C1859 C 0.54684 0.91603 0.03312 0.0
C1860 C 0.54398 0.94636 0.03181 0.0
C1861 C 0.58104 0.96881 0.04978 0.0
C1862 C 0.53553 0.95446 0.03973 0.0
C1863 C 0.52622 0.96446 0.03488 0.0
C1864 C 0.52508 0.9664 0.022 0.0
C1865 C 0.53304 0.95772 0.01405 0.0
C1866 C 0.54238 0.94775 0.01892 0.0
H1867 H 0.59686 0.97549 0.05383 0.0
H1868 H 0.58053 0.97703 0.04178 0.0
H1869 H 0.57259 0.97101 0.05705 0.0
H1870 H 0.53623 0.95313 0.04968 0.0
H1871 H 0.52013 0.97083 0.04126 0.0
H1872 H 0.9944 0.2219 0.41856 0.0
H1873 H 0.02458 0.23967 0.40791 0.0
H1874 H 0.98805 0.23042 0.3735 0.0
H1875 H 0.95788 0.2132 0.38414 0.0
H1876 H 0.03533 0.22493 0.38681 0.0
H1877 H 0.02797 0.29091 0.37753 0.0
H1878 H 0.01405 0.27393 0.38863 0.0
H1879 H 0.00626 0.26709 0.37215 0.0
C1880 C 0.99281 0.22394 0.40878 0.0
C1881 C 0.97375 0.21619 0.40221 0.0
C1882 C 0.01004 0.23392 0.40268 0.0
C1883 C 0.00853 0.23646 0.38995 0.0
C1884 C 0.98955 0.22882 0.38337 0.0
H1885 H 0.10672 0.27613 0.34206 0.0
H1886 H 0.07507 0.25578 0.35095 0.0
C1887 C 0.97233 0.21885 0.38945 0.0
C1888 C 0.02681 0.24695 0.38351 0.0
H1889 H 0.05371 0.28837 0.36847 0.0
C1890 C 0.03937 0.23879 0.38277 0.0
C1891 C 0.03202 0.26505 0.37832 0.0
C1892 C 0.01949 0.2749 0.37926 0.0
C1893 C 0.05712 0.24833 0.37701 0.0
C1894 C 0.06225 0.26636 0.37174 0.0
C1895 C 0.04961 0.27443 0.37242 0.0
C1896 C 0.08144 0.27802 0.36638 0.0
C1897 C 0.07054 0.23942 0.37692 0.0
C1898 C 0.09534 0.29723 0.37206 0.0
C1899 C 0.11324 0.30884 0.36701 0.0
C1900 C 0.11766 0.30154 0.35611 0.0
C1901 C 0.10379 0.28216 0.35047 0.0
C1902 C 0.08575 0.27051 0.35556 0.0
H1903 H 0.06634 0.22762 0.38339 0.0
H1904 H 0.06939 0.23259 0.36733 0.0
H1905 H 0.08641 0.2512 0.3796 0.0
H1906 H 0.09232 0.30329 0.38043 0.0
H1907 H 0.12358 0.32362 0.3717 0.0
H1908 H 0.81802 0.79478 0.4221 0.0
H1909 H 0.79229 0.80182 0.41383 0.0
H1910 H 0.79574 0.78084 0.37661 0.0
H1911 H 0.82094 0.77306 0.38485 0.0
H1912 H 0.79467 0.82742 0.39635 0.0
H1913 H 0.73587 0.74944 0.37962 0.0
H1914 H 0.75763 0.75529 0.39009 0.0
H1915 H 0.75936 0.75686 0.37358 0.0
C1916 C 0.8131 0.79138 0.41218 0.0
C1917 C 0.82147 0.78321 0.40415 0.0
C1918 C 0.79849 0.79555 0.40746 0.0
C1919 C 0.79186 0.79156 0.39464 0.0
C1920 C 0.80034 0.78366 0.38657 0.0
H1921 H 0.71375 0.81066 0.34448 0.0
H1922 H 0.73737 0.80258 0.35479 0.0
C1923 C 0.81494 0.77946 0.39128 0.0
C1924 C 0.77646 0.79616 0.38965 0.0
H1925 H 0.73047 0.7753 0.37291 0.0
C1926 C 0.78055 0.81601 0.39132 0.0
C1927 C 0.75803 0.78122 0.38313 0.0
C1928 C 0.75233 0.75947 0.38159 0.0
C1929 C 0.76697 0.82145 0.38628 0.0
C1930 C 0.74872 0.80657 0.37955 0.0
C1931 C 0.7445 0.78668 0.37806 0.0
C1932 C 0.73418 0.81147 0.37351 0.0
C1933 C 0.77253 0.84315 0.38784 0.0
C1934 C 0.72434 0.81896 0.38065 0.0
C1935 C 0.71074 0.82362 0.37478 0.0
C1936 C 0.70672 0.82082 0.36166 0.0
C1937 C 0.71648 0.81309 0.35459 0.0
C1938 C 0.73 0.80842 0.36046 0.0
H1939 H 0.7887 0.85323 0.39098 0.0
H1940 H 0.76885 0.8477 0.37893 0.0
H1941 H 0.76383 0.84526 0.39497 0.0
H1942 H 0.72712 0.82112 0.39076 0.0
H1943 H 0.70343 0.82945 0.38052 0.0
H1944 H 0.26857 0.07325 0.36376 0.0
H1945 H 0.25278 0.03859 0.35418 0.0
H1946 H 0.2356 0.01735 0.39001 0.0
H1947 H 0.25047 0.05171 0.39951 0.0
H1948 H 0.26076 0.00882 0.35928 0.0
H1949 H 0.18301 0.98633 0.36777 0.0
H1950 H 0.20285 0.01217 0.36936 0.0
H1951 H 0.1999 0.99679 0.38186 0.0
C1952 C 0.26123 0.06118 0.36956 0.0
C1953 C 0.26076 0.06526 0.3824 0.0
C1954 C 0.25233 0.04142 0.36409 0.0
C1955 C 0.24271 0.02543 0.37135 0.0
C1956 C 0.24256 0.02947 0.38419 0.0
H1957 H 0.21602 0.90394 0.36069 0.0
H1958 H 0.23066 0.93996 0.36573 0.0
C1959 C 0.25135 0.04915 0.38964 0.0
C1960 C 0.23322 0.00447 0.36567 0.0
H1961 H 0.18961 0.95964 0.36303 0.0
C1962 C 0.24514 0.99809 0.35995 0.0
C1963 C 0.21275 0.99061 0.36633 0.0
C1964 C 0.19884 0.99686 0.37154 0.0
C1965 C 0.23735 0.97797 0.3554 0.0
C1966 C 0.21725 0.96385 0.35689 0.0
C1967 C 0.2051 0.97043 0.36207 0.0
C1968 C 0.20866 0.94211 0.35352 0.0
C1969 C 0.25072 0.97206 0.34906 0.0
C1970 C 0.19107 0.93124 0.34528 0.0
C1971 C 0.18247 0.91057 0.34253 0.0
C1972 C 0.19134 0.90042 0.34798 0.0
C1973 C 0.20893 0.91134 0.35625 0.0
C1974 C 0.21741 0.93197 0.35906 0.0
H1975 H 0.26291 0.98497 0.34509 0.0
H1976 H 0.25779 0.96686 0.35604 0.0
H1977 H 0.24211 0.95975 0.34144 0.0
H1978 H 0.18399 0.93877 0.34098 0.0
H1979 H 0.16893 0.90259 0.33611 0.0
H1980 H 0.52244 0.6061 0.30774 0.0
H1981 H 0.54533 0.64042 0.31718 0.0
H1982 H 0.54671 0.66209 0.28108 0.0
H1983 H 0.52331 0.62805 0.27166 0.0
H1984 H 0.5838 0.66783 0.31189 0.0
H1985 H 0.53188 0.69654 0.3029 0.0
H1986 H 0.52358 0.67014 0.30158 0.0
H1987 H 0.53527 0.68488 0.28911 0.0
C1988 C 0.52746 0.6182 0.30184 0.0
C1989 C 0.52096 0.61434 0.28896 0.0
C1990 C 0.54062 0.63776 0.30723 0.0
C1991 C 0.54742 0.65379 0.29986 0.0
C1992 C 0.54132 0.64996 0.28698 0.0
H1993 H 0.62858 0.78113 0.31008 0.0
H1994 H 0.60575 0.74605 0.30223 0.0
C1995 C 0.52815 0.63045 0.28158 0.0
C1996 C 0.56109 0.67455 0.30558 0.0
H1997 H 0.56598 0.7209 0.3094 0.0
C1998 C 0.57987 0.67941 0.31145 0.0
C1999 C 0.55585 0.68959 0.30501 0.0
C2000 C 0.53548 0.68503 0.29942 0.0
C2001 C 0.59383 0.6991 0.31644 0.0
C2002 C 0.58872 0.71418 0.31563 0.0
C2003 C 0.56985 0.70927 0.30993 0.0
C2004 C 0.60286 0.73526 0.32048 0.0
C2005 C 0.61412 0.70377 0.32224 0.0
C2006 C 0.60862 0.74076 0.33336 0.0
C2007 C 0.62162 0.7608 0.33789 0.0
C2008 C 0.62904 0.77567 0.32961 0.0
C2009 C 0.62319 0.77006 0.31671 0.0
C2010 C 0.61014 0.75004 0.3122 0.0
H2011 H 0.61713 0.69142 0.3199 0.0
H2012 H 0.62613 0.71774 0.31908 0.0
H2013 H 0.61483 0.70608 0.33257 0.0
H2014 H 0.6029 0.72957 0.3399 0.0
H2015 H 0.6258 0.76461 0.34788 0.0
H2016 H 0.35873 0.8611 0.2857 0.0
H2017 H 0.32809 0.85388 0.29491 0.0
H2018 H 0.33028 0.90544 0.28031 0.0
H2019 H 0.3614 0.91331 0.27141 0.0
H2020 H 0.32455 0.88658 0.31235 0.0
H2021 H 0.2716 0.85159 0.26892 0.0
H2022 H 0.29464 0.85102 0.27097 0.0
H2023 H 0.29537 0.87396 0.26825 0.0
C2024 C 0.35288 0.87109 0.28454 0.0
C2025 C 0.36269 0.88789 0.27785 0.0
C2026 C 0.33528 0.86682 0.28974 0.0
C2027 C 0.32696 0.8791 0.28825 0.0
C2028 C 0.33646 0.89573 0.28148 0.0
H2029 H 0.21624 0.86962 0.30888 0.0
H2030 H 0.24688 0.87762 0.29949 0.0
C2031 C 0.35418 0.90012 0.27634 0.0
C2032 C 0.30854 0.8747 0.29402 0.0
H2033 H 0.25809 0.85428 0.2874 0.0
C2034 C 0.30998 0.87952 0.30693 0.0
C2035 C 0.28968 0.86564 0.28687 0.0
C2036 C 0.28751 0.86012 0.27297 0.0
C2037 C 0.293 0.87565 0.31292 0.0
C2038 C 0.27397 0.86615 0.30582 0.0
C2039 C 0.27262 0.86146 0.29286 0.0
C2040 C 0.25531 0.86114 0.31163 0.0
C2041 C 0.29573 0.88227 0.32671 0.0
C2042 C 0.24962 0.84896 0.32148 0.0
C2043 C 0.23217 0.8445 0.32697 0.0
C2044 C 0.21985 0.85188 0.32259 0.0
C2045 C 0.22536 0.86371 0.31253 0.0
C2046 C 0.24289 0.86829 0.30713 0.0
H2047 H 0.31133 0.89436 0.32983 0.0
H2048 H 0.2854 0.88773 0.32904 0.0
H2049 H 0.29251 0.86939 0.33208 0.0
H2050 H 0.25863 0.84278 0.32489 0.0
H2051 H 0.22828 0.83518 0.3346 0.0
H2052 H 0.06174 0.4554 0.30669 0.0
H2053 H 0.07888 0.43972 0.31675 0.0
H2054 H 0.10032 0.4334 0.28176 0.0
H2055 H 0.08386 0.44965 0.27174 0.0
H2056 H 0.07449 0.40225 0.31129 0.0
H2057 H 0.15161 0.46226 0.30598 0.0
H2058 H 0.13021 0.46561 0.30377 0.0
H2059 H 0.13559 0.45278 0.2915 0.0
C2060 C 0.07021 0.45078 0.30116 0.0
C2061 C 0.07153 0.45387 0.28843 0.0
C2062 C 0.07991 0.44176 0.30691 0.0
C2063 C 0.09118 0.43578 0.30005 0.0
C2064 C 0.09205 0.4383 0.28728 0.0
H2065 H 0.12933 0.35189 0.31419 0.0
H2066 H 0.11343 0.37038 0.30705 0.0
C2067 C 0.08238 0.44733 0.28152 0.0
C2068 C 0.10181 0.42661 0.30619 0.0
H2069 H 0.14791 0.43135 0.31174 0.0
C2070 C 0.09056 0.40868 0.31149 0.0
C2071 C 0.12282 0.43526 0.30664 0.0
C2072 C 0.13581 0.45515 0.30179 0.0
C2073 C 0.09968 0.39872 0.31679 0.0
C2074 C 0.12052 0.40676 0.31658 0.0
C2075 C 0.13189 0.42511 0.31174 0.0
C2076 C 0.13062 0.39592 0.32087 0.0
C2077 C 0.08691 0.37965 0.32256 0.0
C2078 C 0.14609 0.40449 0.33074 0.0
C2079 C 0.15538 0.39399 0.33483 0.0
C2080 C 0.14936 0.3748 0.32905 0.0
C2081 C 0.1342 0.36654 0.31895 0.0
C2082 C 0.12499 0.37703 0.31489 0.0
H2083 H 0.07289 0.37871 0.32525 0.0
H2084 H 0.08271 0.36663 0.31565 0.0
H2085 H 0.09517 0.37847 0.33098 0.0
H2086 H 0.15076 0.41916 0.33539 0.0
H2087 H 0.16703 0.4008 0.3426 0.0
H2088 H 0.34463 0.44521 0.26006 0.0
H2089 H 0.31467 0.4277 0.27094 0.0
H2090 H 0.35176 0.44017 0.30561 0.0
H2091 H 0.38176 0.45752 0.29481 0.0
H2092 H 0.30228 0.39461 0.28541 0.0
H2093 H 0.31543 0.46325 0.31369 0.0
H2094 H 0.32829 0.46412 0.30014 0.0
H2095 H 0.33606 0.45875 0.31477 0.0
C2096 C 0.34641 0.44399 0.26996 0.0
C2097 C 0.36558 0.4529 0.27659 0.0
C2098 C 0.32929 0.43409 0.27617 0.0
C2099 C 0.33103 0.433 0.28911 0.0
C2100 C 0.35011 0.44127 0.29567 0.0
H2101 H 0.24454 0.38353 0.34333 0.0
H2102 H 0.27507 0.40024 0.33288 0.0
C2103 C 0.36722 0.45116 0.28949 0.0
C2104 C 0.3129 0.42331 0.29576 0.0
H2105 H 0.28858 0.43242 0.31833 0.0
C2106 C 0.29923 0.40286 0.29258 0.0
C2107 C 0.30904 0.43414 0.30513 0.0
C2108 C 0.32287 0.45632 0.30859 0.0
C2109 C 0.28188 0.39285 0.29866 0.0
C2110 C 0.27794 0.40371 0.30797 0.0
C2111 C 0.29167 0.42415 0.31119 0.0
C2112 C 0.25948 0.39418 0.31435 0.0
C2113 C 0.26812 0.37066 0.29521 0.0
C2114 C 0.24065 0.38571 0.30743 0.0
C2115 C 0.22322 0.37615 0.31335 0.0
C2116 C 0.22427 0.37503 0.32635 0.0
C2117 C 0.24319 0.3841 0.33332 0.0
C2118 C 0.26065 0.39363 0.32736 0.0
H2119 H 0.27588 0.36367 0.29057 0.0
H2120 H 0.26206 0.36292 0.30359 0.0
H2121 H 0.25535 0.3682 0.28859 0.0
H2122 H 0.23942 0.38639 0.29742 0.0
H2123 H 0.20892 0.36946 0.30768 0.0
H2124 H 0.52193 0.90481 0.29099 0.0
H2125 H 0.54448 0.89538 0.30158 0.0
H2126 H 0.55069 0.87116 0.26617 0.0
H2127 H 0.52784 0.88012 0.25555 0.0
H2128 H 0.54317 0.84579 0.28545 0.0
H2129 H 0.60571 0.92304 0.30042 0.0
H2130 H 0.58172 0.91788 0.30479 0.0
H2131 H 0.58567 0.91765 0.28854 0.0
C2132 C 0.52801 0.89738 0.28547 0.0
C2133 C 0.52317 0.89331 0.27241 0.0
C2134 C 0.54105 0.89219 0.29151 0.0
C2135 C 0.54948 0.88284 0.28463 0.0
C2136 C 0.54447 0.87851 0.27164 0.0
H2137 H 0.64851 0.86565 0.30942 0.0
H2138 H 0.6261 0.87464 0.29824 0.0
C2139 C 0.53151 0.88376 0.26558 0.0
C2140 C 0.56323 0.8772 0.29097 0.0
H2141 H 0.60859 0.89651 0.30829 0.0
C2142 C 0.55749 0.85687 0.29043 0.0
C2143 C 0.58201 0.89172 0.29733 0.0
C2144 C 0.5893 0.91382 0.29775 0.0
C2145 C 0.56988 0.85062 0.29626 0.0
C2146 C 0.5884 0.86509 0.3029 0.0
C2147 C 0.59431 0.88545 0.30326 0.0
C2148 C 0.60183 0.85937 0.30959 0.0
C2149 C 0.56316 0.8286 0.29514 0.0
C2150 C 0.59566 0.84793 0.31974 0.0
C2151 C 0.60842 0.84278 0.32617 0.0
C2152 C 0.62766 0.84903 0.3226 0.0
C2153 C 0.6338 0.86053 0.31242 0.0
C2154 C 0.62103 0.86573 0.30602 0.0
H2155 H 0.55114 0.8201 0.28732 0.0
H2156 H 0.5759 0.82621 0.29365 0.0
H2157 H 0.55721 0.82238 0.30393 0.0
H2158 H 0.58103 0.84315 0.32277 0.0
H2159 H 0.60319 0.83398 0.33397 0.0
H2160 H 0.04846 0.61431 0.29442 0.0
H2161 H 0.06324 0.64968 0.30206 0.0
H2162 H 0.11396 0.6492 0.32057 0.0
H2163 H 0.0998 0.61415 0.31253 0.0
H2164 H 0.07538 0.67032 0.32589 0.0
H2165 H 0.13958 0.69363 0.29772 0.0
H2166 H 0.1178 0.66887 0.29537 0.0
H2167 H 0.13682 0.67533 0.30811 0.0
C2168 C 0.06279 0.62174 0.30009 0.0
C2169 C 0.07305 0.61145 0.30274 0.0
C2170 C 0.07113 0.6419 0.30452 0.0
C2171 C 0.08985 0.65212 0.31167 0.0
C2172 C 0.09967 0.64166 0.31486 0.0
H2173 H 0.14393 0.77258 0.3504 0.0
H2174 H 0.12854 0.73637 0.34544 0.0
C2175 C 0.09141 0.62155 0.31038 0.0
C2176 C 0.09944 0.67388 0.31536 0.0
H2177 H 0.14037 0.71879 0.3117 0.0
C2178 C 0.08959 0.68095 0.32281 0.0
C2179 C 0.11784 0.68769 0.31115 0.0
C2180 C 0.12857 0.68107 0.30255 0.0
C2181 C 0.09773 0.70151 0.32624 0.0
C2182 C 0.11637 0.71526 0.32228 0.0
C2183 C 0.12616 0.70818 0.3148 0.0
C2184 C 0.1257 0.73715 0.32539 0.0
C2185 C 0.08607 0.70834 0.33378 0.0
C2186 C 0.12971 0.74962 0.31576 0.0
C2187 C 0.1387 0.7703 0.31854 0.0
C2188 C 0.14387 0.77892 0.33104 0.0
C2189 C 0.14001 0.7664 0.34068 0.0
C2190 C 0.13109 0.74569 0.33787 0.0
H2191 H 0.07005 0.69656 0.33332 0.0
H2192 H 0.09246 0.71189 0.34373 0.0
H2193 H 0.087 0.72205 0.33045 0.0
H2194 H 0.12574 0.74331 0.30606 0.0
H2195 H 0.14145 0.7795 0.31089 0.0
H2196 H 0.83636 0.05358 0.38021 0.0
H2197 H 0.81232 0.01921 0.37159 0.0
H2198 H 0.76431 0.02528 0.38527 0.0
H2199 H 0.78816 0.05995 0.39354 0.0
H2200 H 0.78834 0.98875 0.38547 0.0
H2201 H 0.74209 1.00053 0.34922 0.0
H2202 H 0.76629 0.02043 0.35618 0.0
H2203 H 0.74462 0.01274 0.36448 0.0
C2204 C 0.82063 0.04778 0.38113 0.0
C2205 C 0.81416 0.05953 0.38753 0.0
C2206 C 0.80694 0.0281 0.37628 0.0
C2207 C 0.78653 0.0198 0.37768 0.0
C2208 C 0.77995 0.03153 0.3839 0.0
H2209 H 0.68332 0.90032 0.36219 0.0
H2210 H 0.7065 0.93582 0.36887 0.0
C2211 C 0.79363 0.05125 0.38874 0.0
C2212 C 0.77239 0.99847 0.37334 0.0
H2213 H 0.73002 0.96705 0.3539 0.0
C2214 C 0.77565 0.984 0.37851 0.0
C2215 C 0.75582 0.99236 0.36432 0.0
C2216 C 0.75204 0.00731 0.35813 0.0
C2217 C 0.76261 0.96351 0.37501 0.0
C2218 C 0.74607 0.9574 0.36598 0.0
C2219 C 0.74274 0.97185 0.36083 0.0
C2220 C 0.73207 0.93603 0.36175 0.0
C2221 C 0.76642 0.94856 0.38119 0.0
C2222 C 0.73877 0.92453 0.3554 0.0
C2223 C 0.72561 0.90426 0.35158 0.0
C2224 C 0.70547 0.89517 0.35401 0.0
C2225 C 0.69875 0.90684 0.36022 0.0
C2226 C 0.71194 0.92712 0.36402 0.0
H2227 H 0.77674 0.95542 0.38996 0.0
H2228 H 0.7522 0.93566 0.38339 0.0
H2229 H 0.77338 0.94277 0.37471 0.0
H2230 H 0.75419 0.93125 0.35338 0.0
H2231 H 0.73124 0.89574 0.34674 0.0
H2232 H 0.96079 0.76657 0.39111 0.0
H2233 H 0.99034 0.77623 0.37999 0.0
H2234 H 0.02808 0.79927 0.41503 0.0
H2235 H 0.99865 0.78979 0.42622 0.0
H2236 H 0.02339 0.81426 0.37954 0.0
H2237 H 0.04652 0.76309 0.39875 0.0
H2238 H 0.0221 0.76006 0.40015 0.0
H2239 H 0.04341 0.77852 0.41045 0.0
C2240 C 0.97538 0.77374 0.39646 0.0
C2241 C 0.97731 0.77735 0.40958 0.0
C2242 C 0.99225 0.77917 0.39009 0.0
C2243 C 0.0114 0.78822 0.39668 0.0
C2244 C 0.01342 0.79189 0.40976 0.0
H2245 H 0.1321 0.83624 0.37594 0.0
H2246 H 0.10228 0.82617 0.38676 0.0
C2247 C 0.99655 0.78644 0.41615 0.0
C2248 C 0.02932 0.79444 0.38982 0.0
H2249 H 0.06938 0.78788 0.38691 0.0
C2250 C 0.03339 0.80842 0.3811 0.0
C2251 C 0.04238 0.78683 0.39188 0.0
C2252 C 0.03834 0.77116 0.40073 0.0
C2253 C 0.05037 0.81528 0.37456 0.0
C2254 C 0.06346 0.80771 0.37664 0.0
C2255 C 0.05936 0.7937 0.38534 0.0
C2256 C 0.08154 0.81417 0.36992 0.0
C2257 C 0.05441 0.83095 0.3657 0.0
C2258 C 0.07982 0.81066 0.35684 0.0
C2259 C 0.09687 0.81642 0.3506 0.0
C2260 C 0.11602 0.82569 0.35731 0.0
C2261 C 0.11766 0.82915 0.37043 0.0
C2262 C 0.1006 0.82338 0.37666 0.0
H2263 H 0.04606 0.83888 0.36758 0.0
H2264 H 0.07063 0.84217 0.36639 0.0
H2265 H 0.04955 0.82361 0.35597 0.0
H2266 H 0.06524 0.80321 0.35147 0.0
H2267 H 0.09499 0.81336 0.34051 0.0
H2268 H 0.28144 0.22538 0.38014 0.0
H2269 H 0.26614 0.24312 0.37057 0.0
H2270 H 0.24732 0.25174 0.40608 0.0
H2271 H 0.26225 0.23379 0.41569 0.0
H2272 H 0.22487 0.23148 0.37 0.0
H2273 H 0.27458 0.30807 0.3939 0.0
H2274 H 0.28163 0.28907 0.3933 0.0
H2275 H 0.26488 0.28871 0.40421 0.0
C2276 C 0.2741 0.2311 0.38593 0.0
C2277 C 0.27309 0.22819 0.39869 0.0
C2278 C 0.26545 0.24129 0.38045 0.0
C2279 C 0.25582 0.2489 0.38766 0.0
C2280 C 0.25505 0.24632 0.40043 0.0
H2281 H 0.18743 0.30735 0.37517 0.0
H2282 H 0.20434 0.29036 0.38349 0.0
C2283 C 0.26364 0.2361 0.4059 0.0
C2284 C 0.24554 0.25852 0.38172 0.0
H2285 H 0.24443 0.30204 0.38256 0.0
C2286 C 0.22921 0.24695 0.37265 0.0
C2287 C 0.25126 0.27867 0.38526 0.0
C2288 C 0.26915 0.29195 0.39462 0.0
C2289 C 0.21805 0.25486 0.36725 0.0
C2290 C 0.22364 0.27496 0.37088 0.0
C2291 C 0.24014 0.2866 0.37984 0.0
C2292 C 0.2125 0.28423 0.36561 0.0
C2293 C 0.20002 0.24147 0.358 0.0
C2294 C 0.21144 0.28634 0.35279 0.0
C2295 C 0.20169 0.29596 0.34797 0.0
C2296 C 0.19301 0.30381 0.35594 0.0
C2297 C 0.19393 0.30147 0.36877 0.0
C2298 C 0.20363 0.2918 0.37355 0.0
H2299 H 0.19483 0.22537 0.35864 0.0
H2300 H 0.18744 0.2441 0.35952 0.0
H2301 H 0.20403 0.24481 0.34838 0.0
H2302 H 0.21852 0.28093 0.34654 0.0
H2303 H 0.20137 0.29762 0.33806 0.0
H2304 H 0.66044 0.55572 0.75081 0.0
H2305 H 0.69008 0.57315 0.7397 0.0
H2306 H 0.65233 0.56094 0.70536 0.0
H2307 H 0.62261 0.5441 0.71647 0.0
H2308 H 0.70109 0.55797 0.7193 0.0
H2309 H 0.69086 0.62145 0.70758 0.0
H2310 H 0.67741 0.60509 0.71906 0.0
H2311 H 0.66972 0.59703 0.70267 0.0
C2312 C 0.65843 0.55703 0.74094 0.0
C2313 C 0.63914 0.54861 0.73455 0.0
C2314 C 0.67538 0.56682 0.73458 0.0
C2315 C 0.6734 0.56848 0.72173 0.0
C2316 C 0.6542 0.56006 0.71531 0.0
H2317 H 0.77338 0.6084 0.67512 0.0
H2318 H 0.74132 0.58794 0.68351 0.0
C2319 C 0.63723 0.55029 0.72166 0.0
C2320 C 0.69148 0.5789 0.71509 0.0
H2321 H 0.71745 0.61962 0.69927 0.0
C2322 C 0.70466 0.57141 0.71487 0.0
C2323 C 0.69611 0.59648 0.70938 0.0
C2324 C 0.6829 0.60564 0.70974 0.0
C2325 C 0.72249 0.58117 0.70921 0.0
C2326 C 0.72708 0.59872 0.70348 0.0
C2327 C 0.71378 0.60606 0.70357 0.0
C2328 C 0.74637 0.61068 0.69827 0.0
C2329 C 0.7366 0.57305 0.70977 0.0
C2330 C 0.75964 0.63025 0.70368 0.0
C2331 C 0.77779 0.64194 0.6989 0.0
C2332 C 0.78311 0.63434 0.68855 0.0
C2333 C 0.76978 0.61467 0.68312 0.0
C2334 C 0.75151 0.60294 0.68793 0.0
H2335 H 0.7327 0.56174 0.71657 0.0
H2336 H 0.73585 0.5658 0.7004 0.0
H2337 H 0.75226 0.58533 0.71241 0.0
H2338 H 0.75597 0.63649 0.71167 0.0
H2339 H 0.78766 0.65697 0.70338 0.0
H2340 H 0.48425 0.12848 0.75601 0.0
H2341 H 0.45855 0.13548 0.74757 0.0
H2342 H 0.4635 0.11592 0.71034 0.0
H2343 H 0.48864 0.1082 0.71872 0.0
H2344 H 0.46137 0.16167 0.7304 0.0
H2345 H 0.40342 0.08399 0.71239 0.0
H2346 H 0.42487 0.08963 0.7231 0.0
H2347 H 0.42721 0.09177 0.70668 0.0
C2348 C 0.47966 0.12538 0.74604 0.0
C2349 C 0.48845 0.11766 0.73805 0.0
C2350 C 0.46507 0.12953 0.74123 0.0
C2351 C 0.45887 0.12593 0.72835 0.0
C2352 C 0.46775 0.11844 0.72034 0.0
H2353 H 0.3827 0.14617 0.67725 0.0
H2354 H 0.40608 0.13806 0.68789 0.0
C2355 C 0.48232 0.11427 0.72513 0.0
C2356 C 0.44355 0.13057 0.72324 0.0
H2357 H 0.39826 0.11002 0.70567 0.0
C2358 C 0.44748 0.15035 0.7251 0.0
C2359 C 0.42541 0.11576 0.71636 0.0
C2360 C 0.41984 0.09406 0.7146 0.0
C2361 C 0.43406 0.15586 0.71989 0.0
C2362 C 0.41614 0.14114 0.71277 0.0
C2363 C 0.41205 0.12129 0.71111 0.0
C2364 C 0.40181 0.14614 0.70652 0.0
C2365 C 0.43947 0.17751 0.72167 0.0
C2366 C 0.39147 0.15322 0.71349 0.0
C2367 C 0.37801 0.15788 0.70743 0.0
C2368 C 0.37463 0.15551 0.69429 0.0
C2369 C 0.38493 0.14825 0.68738 0.0
C2370 C 0.39831 0.14356 0.69344 0.0
H2371 H 0.45551 0.18758 0.72516 0.0
H2372 H 0.43625 0.18238 0.71275 0.0
H2373 H 0.43031 0.17927 0.7286 0.0
H2374 H 0.39372 0.15501 0.72361 0.0
H2375 H 0.37027 0.16334 0.71305 0.0
H2376 H 0.90519 0.39603 0.70595 0.0
H2377 H 0.89141 0.36105 0.69773 0.0
H2378 H 0.94486 0.36267 0.71341 0.0
H2379 H 0.95886 0.39775 0.72159 0.0
H2380 H 0.90663 0.34182 0.68167 0.0
H2381 H 0.89867 0.31701 0.72942 0.0
H2382 H 0.903 0.34142 0.72631 0.0
H2383 H 0.92331 0.33643 0.72695 0.0
C2384 C 0.91419 0.38908 0.70745 0.0
C2385 C 0.93306 0.39961 0.7145 0.0
C2386 C 0.90625 0.36907 0.70279 0.0
C2387 C 0.917 0.35925 0.70516 0.0
C2388 C 0.93619 0.36993 0.71171 0.0
H2389 H 0.88732 0.23558 0.69213 0.0
H2390 H 0.90391 0.27172 0.69774 0.0
C2391 C 0.94415 0.38994 0.71637 0.0
C2392 C 0.90776 0.33762 0.70122 0.0
H2393 H 0.89059 0.29235 0.71261 0.0
C2394 C 0.9031 0.33096 0.68841 0.0
C2395 C 0.90316 0.32357 0.71007 0.0
C2396 C 0.90711 0.32987 0.72397 0.0
C2397 C 0.89419 0.31055 0.68419 0.0
C2398 C 0.88952 0.2965 0.69306 0.0
C2399 C 0.89424 0.30319 0.70586 0.0
C2400 C 0.87959 0.27473 0.68929 0.0
C2401 C 0.89015 0.30423 0.67031 0.0
C2402 C 0.86032 0.26445 0.68281 0.0
C2403 C 0.85079 0.24379 0.67958 0.0
C2404 C 0.86032 0.23304 0.68286 0.0
C2405 C 0.87957 0.24339 0.68945 0.0
C2406 C 0.88908 0.26405 0.69265 0.0
H2407 H 0.89923 0.31695 0.6649 0.0
H2408 H 0.8934 0.29205 0.66798 0.0
H2409 H 0.87412 0.29855 0.66726 0.0
H2410 H 0.85257 0.27237 0.68038 0.0
H2411 H 0.83592 0.23625 0.67457 0.0
H2412 H 0.19453 0.96099 0.60295 0.0
H2413 H 0.21861 0.99507 0.612 0.0
H2414 H 0.21838 0.974 0.6482 0.0
H2415 H 0.19491 0.93968 0.63911 0.0
H2416 H 0.21285 0.01694 0.63045 0.0
H2417 H 0.27793 0.00851 0.64537 0.0
H2418 H 0.25698 0.98996 0.63473 0.0
H2419 H 0.2551 0.99108 0.65127 0.0
C2420 C 0.19992 0.9635 0.61278 0.0
C2421 C 0.19285 0.94756 0.62029 0.0
C2422 C 0.21357 0.98303 0.61796 0.0
C2423 C 0.22047 0.98704 0.63073 0.0
C2424 C 0.21355 0.97119 0.63826 0.0
H2425 H 0.29437 0.09802 0.67908 0.0
H2426 H 0.27223 0.06303 0.67063 0.0
C2427 C 0.19994 0.95162 0.63308 0.0
C2428 C 0.23408 0.00797 0.63625 0.0
H2429 H 0.28011 0.03934 0.65219 0.0
C2430 C 0.22759 0.02186 0.63516 0.0
C2431 C 0.25327 0.01431 0.64242 0.0
C2432 C 0.26136 1.00025 0.64344 0.0
C2433 C 0.23971 0.0419 0.64015 0.0
C2434 C 0.25889 0.04824 0.64628 0.0
C2435 C 0.26535 0.03436 0.64748 0.0
C2436 C 0.27256 0.06934 0.65134 0.0
C2437 C 0.2318 0.05609 0.639 0.0
C2438 C 0.28025 0.08438 0.64324 0.0
C2439 C 0.29292 0.10435 0.64801 0.0
C2440 C 0.29813 0.10964 0.66098 0.0
C2441 C 0.29058 0.09447 0.66905 0.0
C2442 C 0.27797 0.07448 0.66426 0.0
H2443 H 0.2153 0.04798 0.63662 0.0
H2444 H 0.23566 0.06599 0.64784 0.0
H2445 H 0.23876 0.0657 0.63146 0.0
H2446 H 0.27646 0.08064 0.63322 0.0
H2447 H 0.29853 0.11563 0.64153 0.0
H2448 H 0.02517 0.19357 0.61882 0.0
H2449 H 0.99452 0.18614 0.62806 0.0
H2450 H 0.99656 0.23782 0.61374 0.0
H2451 H 0.0277 0.24589 0.60482 0.0
H2452 H 0.99047 0.21698 0.64581 0.0
H2453 H 0.93822 0.18571 0.60195 0.0
H2454 H 0.96143 0.18542 0.60362 0.0
H2455 H 0.96183 0.20845 0.60175 0.0
C2456 C 0.0193 0.20354 0.61772 0.0
C2457 C 0.02907 0.22043 0.6111 0.0
C2458 C 1.00168 0.19916 0.62295 0.0
C2459 C 0.99328 0.21139 0.62153 0.0
C2460 C 0.00276 0.22811 0.61484 0.0
H2461 H 0.88344 0.20319 0.64276 0.0
H2462 H 0.91409 0.21108 0.63343 0.0
C2463 C 0.0205 0.23262 0.60968 0.0
C2464 C 0.97481 0.20683 0.6273 0.0
H2465 H 0.92461 0.18793 0.6205 0.0
C2466 C 0.97604 0.21061 0.64031 0.0
C2467 C 0.95611 0.19867 0.62006 0.0
C2468 C 0.95411 0.19418 0.60606 0.0
C2469 C 0.95903 0.20665 0.6463 0.0
C2470 C 0.94016 0.1981 0.63909 0.0
C2471 C 0.93902 0.1944 0.62604 0.0
C2472 C 0.92148 0.19312 0.64486 0.0
C2473 C 0.96158 0.2122 0.66023 0.0
C2474 C 0.91519 0.18015 0.65429 0.0
C2475 C 0.89771 0.17574 0.65975 0.0
C2476 C 0.88598 0.18398 0.65576 0.0
C2477 C 0.89209 0.1966 0.64611 0.0
C2478 C 0.90964 0.20113 0.64074 0.0
H2479 H 0.97727 0.2238 0.66362 0.0
H2480 H 0.95155 0.21789 0.66285 0.0
H2481 H 0.95782 0.19875 0.66512 0.0
H2482 H 0.92373 0.17331 0.65739 0.0
H2483 H 0.89336 0.1658 0.66706 0.0
H2484 H 0.75194 0.78319 0.60471 0.0
H2485 H 0.76828 0.76688 0.61483 0.0
H2486 H 0.75189 0.77883 0.65048 0.0
H2487 H 0.73493 0.79467 0.64037 0.0
H2488 H 0.79996 0.78351 0.63432 0.0
H2489 H 0.73135 0.71819 0.64764 0.0
H2490 H 0.73043 0.73412 0.63636 0.0
H2491 H 0.73496 0.74238 0.65278 0.0
C2492 C 0.75153 0.78208 0.61468 0.0
C2493 C 0.74198 0.79005 0.62172 0.0
C2494 C 0.76104 0.77294 0.62045 0.0
C2495 C 0.76112 0.77151 0.63336 0.0
C2496 C 0.75175 0.77956 0.64047 0.0
H2497 H 0.83567 0.73443 0.67556 0.0
H2498 H 0.82078 0.7539 0.66815 0.0
C2499 C 0.74222 0.78874 0.6347 0.0
C2500 C 0.77114 0.76164 0.63931 0.0
H2501 H 0.76223 0.72062 0.65403 0.0
C2502 C 0.79177 0.76982 0.6387 0.0
C2503 C 0.76032 0.74372 0.64491 0.0
C2504 C 0.73801 0.73393 0.64541 0.0
C2505 C 0.80187 0.76039 0.64344 0.0
C2506 C 0.79104 0.74247 0.64904 0.0
C2507 C 0.77047 0.73444 0.64978 0.0
C2508 C 0.80046 0.73109 0.65347 0.0
C2509 C 0.82385 0.76927 0.64203 0.0
C2510 C 0.79382 0.71181 0.64774 0.0
C2511 C 0.8022 0.70064 0.65195 0.0
C2512 C 0.81736 0.70853 0.66203 0.0
C2513 C 0.82409 0.72795 0.66773 0.0
C2514 C 0.81565 0.73912 0.6635 0.0
H2515 H 0.829 0.78079 0.63533 0.0
H2516 H 0.83265 0.77647 0.65125 0.0
H2517 H 0.82713 0.75743 0.63879 0.0
H2518 H 0.78211 0.70537 0.63998 0.0
H2519 H 0.79666 0.68577 0.64731 0.0
H2520 H 0.03389 0.81834 0.61906 0.0
H2521 H 0.00454 0.80089 0.63031 0.0
H2522 H 0.99611 0.74411 0.61513 0.0
H2523 H 0.02608 0.76148 0.60428 0.0
H2524 H 0.96615 0.77534 0.62124 0.0
H2525 H 0.99364 0.73738 0.65212 0.0
H2526 H 0.00994 0.75719 0.64327 0.0
H2527 H 0.99454 0.73206 0.63581 0.0
C2528 C 0.02603 0.80214 0.61827 0.0
C2529 C 0.03251 0.79132 0.61086 0.0
C2530 C 0.00915 0.79219 0.62464 0.0
C2531 C 0.99832 0.77121 0.62374 0.0
C2532 C 0.00449 0.76032 0.61619 0.0
H2533 H 0.87662 0.69769 0.64071 0.0
H2534 H 0.90732 0.71652 0.63096 0.0
C2535 C 0.02148 0.77027 0.60986 0.0
C2536 C 0.98022 0.76083 0.6304 0.0
H2537 H 0.95906 0.72713 0.65165 0.0
C2538 C 0.96464 0.76486 0.62794 0.0
C2539 C 0.9784 0.74742 0.63928 0.0
C2540 C 0.99509 0.74338 0.64289 0.0
C2541 C 0.94713 0.75556 0.63392 0.0
C2542 C 0.94494 0.74151 0.6424 0.0
C2543 C 0.96068 0.73778 0.64507 0.0
C2544 C 0.9263 0.73024 0.64842 0.0
C2545 C 0.93126 0.76112 0.63122 0.0
C2546 C 0.92681 0.73128 0.66151 0.0
C2547 C 0.90924 0.72034 0.66716 0.0
C2548 C 0.89085 0.70813 0.6598 0.0
C2549 C 0.89045 0.7071 0.64668 0.0
C2550 C 0.908 0.71794 0.64107 0.0
H2551 H 0.93759 0.77603 0.62766 0.0
H2552 H 0.91964 0.74991 0.62394 0.0
H2553 H 0.92393 0.76131 0.63972 0.0
H2554 H 0.94081 0.7406 0.66735 0.0
H2555 H 0.91009 0.72141 0.67727 0.0
H2556 H 0.18811 0.23684 0.62364 0.0
H2557 H 0.21077 0.22736 0.63401 0.0
H2558 H 0.21721 0.20403 0.59836 0.0
H2559 H 0.19422 0.21301 0.58795 0.0
H2560 H 0.21006 0.17832 0.61727 0.0
H2561 H 0.27194 0.25559 0.63296 0.0
H2562 H 0.24789 0.25002 0.63744 0.0
H2563 H 0.25182 0.2503 0.62117 0.0
C2564 C 0.19426 0.22959 0.61801 0.0
C2565 C 0.18944 0.22578 0.60495 0.0
C2566 C 0.20736 0.22437 0.62394 0.0
C2567 C 0.2159 0.21527 0.61693 0.0
C2568 C 0.2109 0.21119 0.60393 0.0
H2569 H 0.3159 0.19941 0.64164 0.0
H2570 H 0.29329 0.20816 0.63046 0.0
C2571 C 0.19787 0.21645 0.59799 0.0
C2572 C 0.2298 0.20968 0.62314 0.0
H2573 H 0.27507 0.22904 0.64056 0.0
C2574 C 0.2243 0.1894 0.62234 0.0
C2575 C 0.24847 0.2242 0.62961 0.0
C2576 C 0.25553 0.24628 0.63029 0.0
C2577 C 0.23681 0.18319 0.62804 0.0
C2578 C 0.25522 0.19765 0.63482 0.0
C2579 C 0.26089 0.21797 0.63542 0.0
C2580 C 0.26873 0.19197 0.64144 0.0
C2581 C 0.23036 0.16124 0.62664 0.0
C2582 C 0.26246 0.18007 0.65138 0.0
C2583 C 0.27533 0.17505 0.6578 0.0
C2584 C 0.29479 0.1819 0.65444 0.0
C2585 C 0.30102 0.19383 0.64446 0.0
C2586 C 0.28813 0.19889 0.63807 0.0
H2587 H 0.21856 0.15291 0.61868 0.0
H2588 H 0.24326 0.1591 0.6252 0.0
H2589 H 0.22418 0.15463 0.6353 0.0
H2590 H 0.24767 0.17486 0.65427 0.0
H2591 H 0.27002 0.16591 0.66545 0.0
H2592 H 0.73174 0.93962 0.64819 0.0
H2593 H 0.74456 0.97457 0.65627 0.0
H2594 H 0.75901 0.99273 0.61948 0.0
H2595 H 0.74659 0.95803 0.61137 0.0
H2596 H 0.78413 0.00709 0.65532 0.0
H2597 H 0.727 0.01949 0.63036 0.0
H2598 H 0.72308 0.99479 0.63219 0.0
H2599 H 0.73793 0.00898 0.62041 0.0
C2600 C 0.73765 0.95106 0.64182 0.0
C2601 C 0.73805 0.94602 0.62912 0.0
C2602 C 0.74486 0.97097 0.64644 0.0
C2603 C 0.75244 0.98613 0.63843 0.0
C2604 C 0.75279 0.98117 0.62576 0.0
H2605 H 0.81162 0.11425 0.64257 0.0
H2606 H 0.7955 0.07821 0.6367 0.0
C2607 C 0.74565 0.96131 0.62114 0.0
C2608 C 0.76094 0.00732 0.64336 0.0
H2609 H 0.75665 0.04857 0.6399 0.0
C2610 C 0.77803 0.01615 0.65208 0.0
C2611 C 0.75291 0.01902 0.63906 0.0
C2612 C 0.73411 0.01008 0.63007 0.0
C2613 C 0.78779 0.03663 0.65628 0.0
C2614 C 0.77998 0.04842 0.6518 0.0
C2615 C 0.76263 0.03948 0.64328 0.0
C2616 C 0.78989 0.07021 0.65553 0.0
C2617 C 0.80677 0.0456 0.66512 0.0
C2618 C 0.79194 0.07762 0.66807 0.0
C2619 C 0.80122 0.09823 0.67148 0.0
C2620 C 0.80846 0.11176 0.66238 0.0
C2621 C 0.80624 0.10425 0.64982 0.0
C2622 C 0.79701 0.08366 0.64643 0.0
H2623 H 0.81329 0.03567 0.66529 0.0
H2624 H 0.81816 0.06037 0.66247 0.0
H2625 H 0.8034 0.04789 0.67473 0.0
H2626 H 0.78619 0.06746 0.67519 0.0
H2627 H 0.80257 0.10351 0.68122 0.0
H2628 H 0.47283 0.4005 0.70812 0.0
H2629 H 0.4477 0.36641 0.69926 0.0
H2630 H 0.45847 0.34332 0.73255 0.0
H2631 H 0.48304 0.37732 0.74155 0.0
H2632 H 0.45103 0.33481 0.69327 0.0
H2633 H 0.39883 0.31633 0.72949 0.0
H2634 H 0.41902 0.34146 0.7286 0.0
H2635 H 0.4236 0.32382 0.73623 0.0
C2636 C 0.4697 0.38811 0.71354 0.0
C2637 C 0.47969 0.3915 0.72555 0.0
C2638 C 0.45535 0.36868 0.70849 0.0
C2639 C 0.45087 0.35233 0.71535 0.0
C2640 C 0.46116 0.35572 0.72725 0.0
H2641 H 0.39918 0.22864 0.68563 0.0
H2642 H 0.42107 0.26405 0.69302 0.0
C2643 C 0.47527 0.37513 0.73236 0.0
C2644 C 0.43605 0.33165 0.70988 0.0
H2645 H 0.39506 0.28856 0.71607 0.0
C2646 C 0.43866 0.32476 0.69819 0.0
C2647 C 0.41966 0.31863 0.71618 0.0
C2648 C 0.41497 0.32552 0.72825 0.0
C2649 C 0.42574 0.30503 0.69283 0.0
C2650 C 0.41017 0.29164 0.69952 0.0
C2651 C 0.40717 0.29872 0.71102 0.0
C2652 C 0.39691 0.27018 0.69488 0.0
C2653 C 0.42879 0.29888 0.67997 0.0
C2654 C 0.37603 0.26164 0.69389 0.0
C2655 C 0.36348 0.24129 0.68995 0.0
C2656 C 0.3716 0.22913 0.68683 0.0
C2657 C 0.39249 0.23768 0.68783 0.0
C2658 C 0.40503 0.25797 0.69196 0.0
H2659 H 0.43647 0.312 0.67458 0.0
H2660 H 0.4384 0.29206 0.6809 0.0
H2661 H 0.41435 0.28778 0.67455 0.0
H2662 H 0.36942 0.27073 0.69616 0.0
H2663 H 0.34743 0.23513 0.68925 0.0
H2664 H 0.62769 0.10126 0.72463 0.0
H2665 H 0.65722 0.11094 0.71349 0.0
H2666 H 0.69495 0.13349 0.74854 0.0
H2667 H 0.66552 0.12391 0.75976 0.0
H2668 H 0.69019 0.14852 0.71291 0.0
H2669 H 0.7134 0.09754 0.7323 0.0
H2670 H 0.68907 0.09465 0.73384 0.0
H2671 H 0.71058 0.11316 0.74401 0.0
C2672 C 0.64227 0.10832 0.72998 0.0
C2673 C 0.6442 0.11175 0.74311 0.0
C2674 C 0.65913 0.11377 0.72359 0.0
C2675 C 0.67829 0.12267 0.73018 0.0
C2676 C 0.68029 0.1262 0.74327 0.0
H2677 H 0.79887 0.17044 0.70919 0.0
H2678 H 0.76916 0.16066 0.72008 0.0
C2679 C 0.66343 0.12071 0.74967 0.0
C2680 C 0.69619 0.12885 0.72331 0.0
H2681 H 0.73628 0.12229 0.72044 0.0
C2682 C 0.70021 0.1427 0.71451 0.0
C2683 C 0.70929 0.12128 0.72541 0.0
C2684 C 0.70532 0.10569 0.73431 0.0
C2685 C 0.71714 0.14948 0.70792 0.0
C2686 C 0.73027 0.14197 0.71006 0.0
C2687 C 0.72624 0.12808 0.71884 0.0
C2688 C 0.7483 0.14832 0.7033 0.0
C2689 C 0.72109 0.16499 0.69897 0.0
C2690 C 0.74648 0.14455 0.69023 0.0
C2691 C 0.76349 0.1501 0.68396 0.0
C2692 C 0.78266 0.15942 0.69063 0.0
C2693 C 0.7844 0.16322 0.70373 0.0
C2694 C 0.76739 0.15765 0.70999 0.0
H2695 H 0.71272 0.17291 0.70078 0.0
H2696 H 0.7373 0.17623 0.6996 0.0
H2697 H 0.71621 0.15751 0.68926 0.0
H2698 H 0.73188 0.13702 0.68489 0.0
H2699 H 0.76153 0.1468 0.67388 0.0
H2700 H 0.94714 0.55723 0.71321 0.0
H2701 H 0.9317 0.57484 0.70361 0.0
H2702 H 0.9111 0.58166 0.73881 0.0
H2703 H 0.92611 0.56381 0.74843 0.0
H2704 H 0.88998 0.56271 0.70257 0.0
H2705 H 0.93898 0.63873 0.72746 0.0
H2706 H 0.94617 0.61984 0.72665 0.0
H2707 H 0.92905 0.61891 0.73744 0.0
C2708 C 0.93934 0.5625 0.71891 0.0
C2709 C 0.9379 0.55916 0.7316 0.0
C2710 C 0.93062 0.57262 0.71342 0.0
C2711 C 0.92048 0.57971 0.72055 0.0
C2712 C 0.91921 0.57663 0.73323 0.0
H2713 H 0.85263 0.63874 0.7081 0.0
H2714 H 0.86919 0.62139 0.71638 0.0
C2715 C 0.92786 0.56648 0.73872 0.0
C2716 C 0.91034 0.58947 0.71462 0.0
H2717 H 0.90919 0.63297 0.71581 0.0
C2718 C 0.89425 0.57812 0.70536 0.0
C2719 C 0.91596 0.60953 0.71836 0.0
C2720 C 0.93359 0.62256 0.72794 0.0
C2721 C 0.8832 0.58616 0.69997 0.0
C2722 C 0.88869 0.60618 0.7038 0.0
C2723 C 0.90497 0.61759 0.71294 0.0
C2724 C 0.8777 0.6156 0.69854 0.0
C2725 C 0.86539 0.57298 0.69053 0.0
C2726 C 0.87693 0.61801 0.68575 0.0
C2727 C 0.86738 0.62783 0.68096 0.0
C2728 C 0.85861 0.63559 0.68891 0.0
C2729 C 0.85922 0.63294 0.7017 0.0
C2730 C 0.86871 0.62306 0.70647 0.0
H2731 H 0.86013 0.55684 0.69104 0.0
H2732 H 0.85277 0.57559 0.69194 0.0
H2733 H 0.86969 0.57655 0.68098 0.0
H2734 H 0.88412 0.61271 0.67952 0.0
H2735 H 0.86729 0.62974 0.67108 0.0
H2736 H 0.42982 0.93518 0.17882 0.0
H2737 H 0.43836 0.94813 0.15853 0.0
H2738 H 0.49979 0.98657 0.17399 0.0
H2739 H 0.49139 0.97384 0.19429 0.0
H2740 H 0.45544 0.98756 0.15189 0.0
H2741 H 0.50443 0.95579 0.14334 0.0
H2742 H 0.48748 0.94799 0.15527 0.0
H2743 H 0.51102 0.97107 0.15798 0.0
C2744 C 0.44511 0.94652 0.17794 0.0
C2745 C 0.45995 0.95334 0.18817 0.0
C2746 C 0.44998 0.95384 0.16632 0.0
C2747 C 0.46978 0.96804 0.16469 0.0
C2748 C 0.48451 0.97526 0.17495 0.0
H2749 H 0.53083 0.02814 0.102 0.0
H2750 H 0.52157 0.01691 0.12257 0.0
C2751 C 0.47968 0.96795 0.18656 0.0
C2752 C 0.47504 0.97536 0.15227 0.0
H2753 H 0.50426 0.978 0.12917 0.0
C2754 C 0.46604 0.9854 0.14689 0.0
C2755 C 0.4889 0.97254 0.14576 0.0
C2756 C 0.4984 0.96111 0.1508 0.0
C2757 C 0.47081 0.99305 0.13529 0.0
C2758 C 0.4847 0.99026 0.1288 0.0
C2759 C 0.49367 0.98018 0.13417 0.0
C2760 C 0.49007 0.99755 0.11638 0.0
C2761 C 0.46129 0.00445 0.13022 0.0
C2762 C 0.47547 0.99031 0.10604 0.0
C2763 C 0.48069 0.9968 0.09428 0.0
C2764 C 0.50067 0.01058 0.09259 0.0
C2765 C 0.51527 0.01776 0.10299 0.0
C2766 C 0.51003 0.01126 0.11474 0.0
H2767 H 0.45534 0.00985 0.13769 0.0
H2768 H 0.47218 0.01751 0.12569 0.0
H2769 H 0.44862 0.99443 0.1231 0.0
H2770 H 0.46004 0.97945 0.10702 0.0
H2771 H 0.46903 0.99107 0.08652 0.0
H2772 H 0.03169 0.50041 0.19752 0.0
H2773 H 0.02411 0.49597 0.17478 0.0
H2774 H 0.98242 0.51698 0.1785 0.0
H2775 H 0.98952 0.52106 0.20128 0.0
H2776 H 0.98491 0.47246 0.15975 0.0
H2777 H 0.02316 0.55405 0.15477 0.0
H2778 H 0.02785 0.54421 0.16857 0.0
H2779 H 0.00533 0.54536 0.1661 0.0
C2780 C 0.02067 0.5038 0.19354 0.0
C2781 C 0.01127 0.51118 0.20124 0.0
C2782 C 0.01647 0.50137 0.18054 0.0
C2783 C 0.00293 0.50641 0.17501 0.0
C2784 C 0.99317 0.51334 0.18263 0.0
H2785 H 0.96488 0.50987 0.0981 0.0
H2786 H 0.97061 0.51276 0.12094 0.0
C2787 C 0.99729 0.5157 0.19563 0.0
C2788 C 0.99915 0.50458 0.16124 0.0
H2789 H 0.00587 0.53203 0.13649 0.0
C2790 C 0.9895 0.48545 0.15463 0.0
C2791 C 0.00515 0.52159 0.15466 0.0
C2792 C 0.01609 0.54251 0.16133 0.0
C2793 C 0.9854 0.48283 0.14156 0.0
C2794 C 0.99156 0.49987 0.13495 0.0
C2795 C 1.00117 0.519 0.14158 0.0
C2796 C 0.98826 0.4982 0.12113 0.0
C2797 C 0.97412 0.46184 0.135 0.0
C2798 C 0.99661 0.48939 0.11368 0.0
C2799 C 0.99336 0.48771 0.10065 0.0
C2800 C 0.98188 0.49502 0.09483 0.0
C2801 C 0.97391 0.50424 0.10232 0.0
C2802 C 0.97709 0.50582 0.11535 0.0
H2803 H 0.9657 0.45065 0.1415 0.0
H2804 H 0.96345 0.46053 0.12711 0.0
H2805 H 0.98493 0.45805 0.13118 0.0
H2806 H 0.00574 0.48391 0.11794 0.0
H2807 H 0.99999 0.48086 0.09512 0.0
H2808 H 0.50751 0.51612 0.19449 0.0
H2809 H 0.51107 0.51094 0.17247 0.0
H2810 H 0.44762 0.48618 0.16327 0.0
H2811 H 0.44407 0.49231 0.18525 0.0
H2812 H 0.49552 0.47825 0.15579 0.0
H2813 H 0.4705 0.53018 0.14043 0.0
H2814 H 0.47595 0.52853 0.1567 0.0
H2815 H 0.45247 0.51002 0.14821 0.0
C2816 C 0.49431 0.50972 0.18778 0.0
C2817 C 0.47556 0.50496 0.19163 0.0
C2818 C 0.49635 0.5066 0.1752 0.0
C2819 C 0.47969 0.49857 0.16617 0.0
C2820 C 0.46077 0.49285 0.17003 0.0
H2821 H 0.48607 0.46159 0.08889 0.0
H2822 H 0.47789 0.46173 0.11047 0.0
C2823 C 0.45872 0.49612 0.18263 0.0
C2824 C 0.48241 0.49668 0.15274 0.0
H2825 H 0.47722 0.51261 0.12459 0.0
C2826 C 0.49146 0.48571 0.14895 0.0
C2827 C 0.4774 0.50668 0.14388 0.0
C2828 C 0.46872 0.51968 0.14749 0.0
C2829 C 0.49577 0.48456 0.13656 0.0
C2830 C 0.49038 0.49423 0.12764 0.0
C2831 C 0.4812 0.50509 0.13142 0.0
C2832 C 0.49487 0.49399 0.11446 0.0
C2833 C 0.50668 0.47361 0.13328 0.0
C2834 C 0.50655 0.51209 0.10939 0.0
C2835 C 0.51102 0.51205 0.09703 0.0
C2836 C 0.50394 0.4939 0.08951 0.0
C2837 C 0.49202 0.4758 0.09454 0.0
C2838 C 0.48739 0.47585 0.10687 0.0
H2839 H 0.51447 0.47189 0.14173 0.0
H2840 H 0.49574 0.4584 0.12873 0.0
H2841 H 0.51788 0.48156 0.1267 0.0
H2842 H 0.51244 0.52627 0.11506 0.0
H2843 H 0.52032 0.52622 0.09342 0.0
H2844 H 0.97307 0.46275 0.81954 0.0
H2845 H 0.97939 0.4669 0.84233 0.0
H2846 H 0.01686 0.53064 0.84182 0.0
H2847 H 0.01103 0.52664 0.81895 0.0
H2848 H 0.01862 0.48609 0.85733 0.0
H2849 H 0.97407 0.52303 0.86636 0.0
H2850 H 0.97074 0.50862 0.85168 0.0
H2851 H 0.9921 0.53329 0.85523 0.0
C2852 C 0.98288 0.47764 0.82424 0.0
C2853 C 0.99158 0.49437 0.81741 0.0
C2854 C 0.98634 0.47998 0.83726 0.0
C2855 C 0.99839 0.49908 0.84371 0.0
C2856 C 0.00726 0.51581 0.83698 0.0
H2857 H 0.02875 0.53824 0.9235 0.0
H2858 H 0.02465 0.53679 0.90065 0.0
C2859 C 0.00388 0.51349 0.82393 0.0
C2860 C 0.00181 0.50134 0.8575 0.0
H2861 H 0.99102 0.51899 0.88391 0.0
C2862 C 0.01263 0.49329 0.86316 0.0
C2863 C 0.99404 0.51085 0.86502 0.0
C2864 C 0.98196 0.51936 0.85933 0.0
C2865 C 0.01597 0.49456 0.87622 0.0
C2866 C 0.00779 0.50366 0.88377 0.0
C2867 C 0.9972 0.51196 0.87809 0.0
C2868 C 0.00985 0.50447 0.89759 0.0
C2869 C 0.02849 0.48642 0.88178 0.0
C2870 C 0.00248 0.48677 0.90342 0.0
C2871 C 0.00488 0.48756 0.91644 0.0
C2872 C 0.01442 0.50607 0.92386 0.0
C2873 C 0.02124 0.52376 0.91801 0.0
C2874 C 0.01898 0.52296 0.90498 0.0
H2875 H 0.03836 0.48551 0.87504 0.0
H2876 H 0.03794 0.49585 0.8904 0.0
H2877 H 0.01846 0.47106 0.88424 0.0
H2878 H 0.99488 0.47232 0.89791 0.0
H2879 H 0.99916 0.47368 0.92071 0.0
H2880 H 0.52238 0.47324 0.82792 0.0
H2881 H 0.51856 0.48209 0.84928 0.0
H2882 H 0.54406 0.54384 0.84221 0.0
H2883 H 0.5475 0.53505 0.82058 0.0
H2884 H 0.55853 0.53361 0.86679 0.0
H2885 H 0.47633 0.50105 0.85666 0.0
H2886 H 0.48623 0.48583 0.85089 0.0
H2887 H 0.49313 0.50911 0.84463 0.0
C2888 C 0.52708 0.48871 0.83084 0.0
C2889 C 0.53497 0.50339 0.82246 0.0
C2890 C 0.52499 0.49374 0.84308 0.0
C2891 C 0.53083 0.51355 0.84724 0.0
C2892 C 0.53943 0.52845 0.83912 0.0
H2893 H 0.49049 0.53938 0.91628 0.0
H2894 H 0.5006 0.54097 0.8951 0.0
C2895 C 0.54146 0.52341 0.8268 0.0
C2896 C 0.52724 0.51833 0.85997 0.0
H2897 H 0.48954 0.50906 0.87802 0.0
C2898 C 0.5435 0.52849 0.86926 0.0
C2899 C 0.50764 0.51182 0.86308 0.0
C2900 C 0.48979 0.50147 0.8533 0.0
C2901 C 0.54053 0.53158 0.88175 0.0
C2902 C 0.5208 0.52409 0.88499 0.0
C2903 C 0.50465 0.5147 0.87555 0.0
C2904 C 0.51635 0.52481 0.89815 0.0
C2905 C 0.55855 0.54272 0.89136 0.0
C2906 C 0.52184 0.51521 0.90689 0.0
C2907 C 0.51606 0.51425 0.91898 0.0
C2908 C 0.50449 0.5227 0.92253 0.0
C2909 C 0.49925 0.53257 0.9138 0.0
C2910 C 0.5051 0.53358 0.90172 0.0
H2911 H 0.57221 0.5527 0.88696 0.0
H2912 H 0.55613 0.55185 0.89862 0.0
H2913 H 0.56129 0.53178 0.89601 0.0
H2914 H 0.53002 0.50785 0.90426 0.0
H2915 H 0.52002 0.50621 0.92538 0.0
H2916 H 0.50033 0.02987 0.82273 0.0
H2917 H 0.49543 0.0177 0.84333 0.0
H2918 H 0.55868 0.05502 0.85476 0.0
H2919 H 0.5636 0.06798 0.8343 0.0
H2920 H 0.51014 0.99786 0.85613 0.0
H2921 H 0.53466 0.0718 0.88208 0.0
H2922 H 0.52981 0.06742 0.86526 0.0
H2923 H 0.55299 0.07135 0.87289 0.0
C2924 C 0.51321 0.03566 0.82965 0.0
C2925 C 0.53232 0.05016 0.82689 0.0
C2926 C 0.51039 0.02855 0.8414 0.0
C2927 C 0.52661 0.03573 0.85069 0.0
C2928 C 0.54586 0.04959 0.84784 0.0
H2929 H 0.5195 0.98073 0.92037 0.0
H2930 H 0.52729 0.99232 0.89972 0.0
C2931 C 0.54869 0.0568 0.83607 0.0
C2932 C 0.52315 0.02878 0.86336 0.0
H2933 H 0.5273 0.04494 0.8942 0.0
C2934 C 0.51393 0.00815 0.86446 0.0
C2935 C 0.52781 0.04219 0.87421 0.0
C2936 C 0.53669 0.0644 0.87359 0.0
C2937 C 0.50928 1.00057 0.87608 0.0
C2938 C 0.51436 0.01402 0.88697 0.0
C2939 C 0.52355 0.03465 0.88587 0.0
C2940 C 0.50975 0.007 0.89955 0.0
C2941 C 0.49842 0.97819 0.87652 0.0
C2942 C 0.49774 0.01185 0.90651 0.0
C2943 C 0.49337 0.00536 0.91836 0.0
C2944 C 0.50094 0.99389 0.92351 0.0
C2945 C 0.51312 0.98921 0.91657 0.0
C2946 C 0.51757 0.9958 0.90475 0.0
H2947 H 0.49089 0.97 0.86718 0.0
H2948 H 0.50935 0.9736 0.87957 0.0
H2949 H 0.48702 0.97355 0.88325 0.0
H2950 H 0.49157 0.02051 0.90271 0.0
H2951 H 0.48384 0.00911 0.92342 0.0
H2952 H 0.15817 0.30786 0.5279 0.0
H2953 H 0.16671 0.32111 0.50774 0.0
H2954 H 0.10519 0.28349 0.49222 0.0
H2955 H 0.09652 0.27 0.51233 0.0
H2956 H 0.1622 0.29971 0.48482 0.0
H2957 H 0.11851 0.33869 0.48223 0.0
H2958 H 0.1239 0.33054 0.49659 0.0
H2959 H 0.10426 0.31285 0.485 0.0
C2960 C 0.14644 0.30235 0.5202 0.0
C2961 C 0.12664 0.28784 0.52175 0.0
C2962 C 0.15134 0.31003 0.50869 0.0
C2963 C 0.13656 0.30349 0.49851 0.0
C2964 C 0.11676 0.28908 0.50002 0.0
H2965 H 0.13808 0.3276 0.42067 0.0
H2966 H 0.12895 0.31535 0.44103 0.0
C2967 C 0.11183 0.28139 0.51153 0.0
C2968 C 0.14207 0.31115 0.48619 0.0
H2969 H 0.13323 0.3364 0.46401 0.0
C2970 C 0.15595 0.30782 0.48029 0.0
C2971 C 0.13383 0.32166 0.48028 0.0
C2972 C 0.11943 0.32634 0.48637 0.0
C2973 C 0.16158 0.31443 0.46856 0.0
C2974 C 0.15341 0.32501 0.46267 0.0
C2975 C 0.1395 0.32831 0.46855 0.0
C2976 C 0.15906 0.33269 0.45036 0.0
C2977 C 0.17588 0.3096 0.46245 0.0
C2978 C 0.17898 0.34674 0.44888 0.0
C2979 C 0.18428 0.35367 0.43722 0.0
C2980 C 0.16974 0.34677 0.42681 0.0
C2981 C 0.14972 0.33297 0.42841 0.0
C2982 C 0.14444 0.32606 0.44007 0.0
H2983 H 0.17657 0.29709 0.46653 0.0
H2984 H 0.17149 0.30555 0.45223 0.0
H2985 H 0.19114 0.32296 0.46392 0.0
H2986 H 0.19045 0.35235 0.45674 0.0
H2987 H 0.19985 0.36417 0.43633 0.0
H2988 H 0.64507 0.83974 0.53302 0.0
H2989 H 0.63659 0.83309 0.51031 0.0
H2990 H 0.68034 0.81461 0.50719 0.0
H2991 H 0.68921 0.82155 0.52982 0.0
H2992 H 0.66502 0.85233 0.49285 0.0
H2993 H 0.62952 0.76949 0.48577 0.0
H2994 H 0.63213 0.78285 0.50074 0.0
H2995 H 0.65329 0.78241 0.49521 0.0
C2996 C 0.65286 0.8342 0.52751 0.0
C2997 C 0.66784 0.8312 0.53324 0.0
C2998 C 0.6479 0.8303 0.51456 0.0
C2999 C 0.65768 0.82314 0.50712 0.0
C3000 C 0.67233 0.81972 0.51281 0.0
H3001 H 0.65979 0.80361 0.42722 0.0
H3002 H 0.66405 0.80475 0.45003 0.0
C3003 C 0.67735 0.82369 0.52575 0.0
C3004 C 0.6537 0.82078 0.49334 0.0
H3005 H 0.63656 0.78661 0.46753 0.0
C3006 C 0.65866 0.83795 0.4873 0.0
C3007 C 0.64563 0.80202 0.48618 0.0
C3008 C 0.63966 0.78308 0.49227 0.0
C3009 C 0.65602 0.83695 0.47424 0.0
C3010 C 0.64775 0.81816 0.46705 0.0
C3011 C 0.64283 0.80096 0.47309 0.0
C3012 C 0.64413 0.81618 0.45324 0.0
C3013 C 0.66261 0.8561 0.46824 0.0
C3014 C 0.63113 0.82173 0.44751 0.0
C3015 C 0.62885 0.82133 0.43452 0.0
C3016 C 0.63935 0.81512 0.42698 0.0
C3017 C 0.65174 0.80877 0.43275 0.0
C3018 C 0.65408 0.80927 0.44577 0.0
H3019 H 0.67344 0.86946 0.4747 0.0
H3020 H 0.66963 0.85601 0.45958 0.0
H3021 H 0.64937 0.85762 0.4657 0.0
H3022 H 0.62303 0.82676 0.4531 0.0
H3023 H 0.61935 0.82653 0.43044 0.0
H3024 H 0.14533 0.86604 0.51731 0.0
H3025 H 0.14781 0.85762 0.49552 0.0
H3026 H 0.12935 0.79709 0.50302 0.0
H3027 H 0.127 0.8055 0.52497 0.0
H3028 H 0.16494 0.81654 0.49055 0.0
H3029 H 0.10263 0.82255 0.46714 0.0
H3030 H 0.11911 0.84364 0.47824 0.0
H3031 H 0.10448 0.81938 0.48356 0.0
C3032 C 0.14172 0.85091 0.51431 0.0
C3033 C 0.13604 0.83644 0.52285 0.0
C3034 C 0.14296 0.84608 0.50184 0.0
C3035 C 0.13853 0.82668 0.49764 0.0
C3036 C 0.13266 0.8121 0.50608 0.0
H3037 H 0.1393 0.7963 0.41779 0.0
H3038 H 0.12926 0.79406 0.43903 0.0
C3039 C 0.13126 0.8169 0.51857 0.0
C3040 C 0.14132 0.82219 0.48461 0.0
H3041 H 0.1272 0.82377 0.45422 0.0
C3042 C 0.15649 0.8178 0.48259 0.0
C3043 C 0.13013 0.82364 0.47424 0.0
C3044 C 0.11304 0.82737 0.47586 0.0
C3045 C 0.16148 0.81586 0.47048 0.0
C3046 C 0.15113 0.81856 0.46018 0.0
C3047 C 0.13524 0.82189 0.46214 0.0
C3048 C 0.15738 0.81928 0.44741 0.0
C3049 C 0.17798 0.81122 0.46885 0.0
C3050 C 0.17642 0.83431 0.44508 0.0
C3051 C 0.18214 0.83574 0.43298 0.0
C3052 C 0.16891 0.82218 0.42292 0.0
C3053 C 0.14981 0.80708 0.4253 0.0
C3054 C 0.14408 0.80571 0.43743 0.0
H3055 H 0.18026 0.8039 0.47685 0.0
H3056 H 0.17469 0.80133 0.46008 0.0
H3057 H 0.1922 0.82539 0.46833 0.0
H3058 H 0.18673 0.84525 0.45259 0.0
H3059 H 0.19677 0.84784 0.43147 0.0
H3060 H 0.63971 0.83859 0.15431 0.0
H3061 H 0.64583 0.84257 0.17715 0.0
H3062 H 0.69323 0.82905 0.17462 0.0
H3063 H 0.68733 0.82523 0.15172 0.0
H3064 H 0.64423 0.8104 0.19155 0.0
H3065 H 0.71714 0.8819 0.19951 0.0
H3066 H 0.7002 0.87503 0.18542 0.0
H3067 H 0.71498 0.86333 0.18767 0.0
C3068 C 0.65169 0.83684 0.15861 0.0
C3069 C 0.6631 0.83167 0.15124 0.0
C3070 C 0.65507 0.839 0.17164 0.0
C3071 C 0.67005 0.83624 0.17751 0.0
C3072 C 0.68173 0.83144 0.17021 0.0
H3073 H 0.71165 0.83933 0.2544 0.0
H3074 H 0.70692 0.83803 0.23168 0.0
C3075 C 0.67827 0.82914 0.15717 0.0
C3076 C 0.67265 0.83724 0.19127 0.0
H3077 H 0.70489 0.86448 0.21714 0.0
C3078 C 0.65743 0.82224 0.19719 0.0
C3079 C 0.68996 0.85265 0.1985 0.0
C3080 C 0.70651 0.86927 0.19252 0.0
C3081 C 0.65921 0.82204 0.21021 0.0
C3082 C 0.67645 0.83759 0.21749 0.0
C3083 C 0.69167 0.85262 0.21154 0.0
C3084 C 0.67914 0.83837 0.23129 0.0
C3085 C 0.64286 0.80487 0.21597 0.0
C3086 C 0.6652 0.83922 0.23863 0.0
C3087 C 0.66766 0.83959 0.25162 0.0
C3088 C 0.68429 0.83942 0.25754 0.0
C3089 C 0.69845 0.83903 0.25015 0.0
C3090 C 0.69588 0.83849 0.23716 0.0
H3091 H 0.63382 0.79162 0.20899 0.0
H3092 H 0.64915 0.80032 0.22383 0.0
H3093 H 0.63263 0.80959 0.21966 0.0
H3094 H 0.6524 0.83959 0.23431 0.0
H3095 H 0.6564 0.83976 0.257 0.0
H3096 H 0.188 0.7984 0.15862 0.0
H3097 H 0.18435 0.80538 0.18043 0.0
H3098 H 0.20595 0.86723 0.17488 0.0
H3099 H 0.20949 0.8603 0.15291 0.0
H3100 H 0.2147 0.83569 0.19993 0.0
H3101 H 0.1494 0.84571 0.18807 0.0
H3102 H 0.1572 0.83308 0.1771 0.0
H3103 H 0.17146 0.85982 0.18032 0.0
C3104 C 0.19197 0.8135 0.16204 0.0
C3105 C 0.19883 0.82877 0.15404 0.0
C3106 C 0.18998 0.81747 0.1745 0.0
C3107 C 0.19467 0.83675 0.17919 0.0
C3108 C 0.20207 0.85221 0.17136 0.0
H3109 H 0.16956 0.87184 0.25155 0.0
H3110 H 0.18014 0.87234 0.23057 0.0
C3111 C 0.20421 0.84827 0.15887 0.0
C3112 C 0.19119 0.8403 0.1922 0.0
H3113 H 0.15953 0.84777 0.20939 0.0
C3114 C 0.20275 0.8385 0.20204 0.0
C3115 C 0.17564 0.84402 0.19487 0.0
C3116 C 0.16257 0.84568 0.18458 0.0
C3117 C 0.19903 0.8401 0.21452 0.0
C3118 C 0.18297 0.84305 0.21717 0.0
C3119 C 0.17178 0.84543 0.20733 0.0
C3120 C 0.177 0.84293 0.22999 0.0
C3121 C 0.2124 0.8387 0.22473 0.0
C3122 C 0.17142 0.82611 0.23656 0.0
C3123 C 0.16539 0.82579 0.24853 0.0
C3124 C 0.16455 0.84219 0.25412 0.0
C3125 C 0.16988 0.85891 0.24745 0.0
C3126 C 0.17603 0.85927 0.2355 0.0
H3127 H 0.22728 0.84284 0.22167 0.0
H3128 H 0.21461 0.84856 0.2333 0.0
H3129 H 0.20539 0.82303 0.22711 0.0
H3130 H 0.17148 0.8131 0.23236 0.0
H3131 H 0.16104 0.81255 0.25334 0.0
H3132 H 0.21176 0.36922 0.15797 0.0
H3133 H 0.2062 0.35623 0.17849 0.0
H3134 H 0.18511 0.39627 0.18961 0.0
H3135 H 0.19073 0.40938 0.16928 0.0
H3136 H 0.22114 0.37615 0.20333 0.0
H3137 H 0.13857 0.3406 0.19485 0.0
H3138 H 0.15458 0.34891 0.18244 0.0
H3139 H 0.15184 0.36664 0.19242 0.0
C3140 C 0.20615 0.3754 0.16485 0.0
C3141 C 0.20142 0.39014 0.16192 0.0
C3142 C 0.2029 0.36791 0.17653 0.0
C3143 C 0.19483 0.37498 0.18546 0.0
C3144 C 0.19087 0.39023 0.18274 0.0
H3145 H 0.15851 0.35341 0.25964 0.0
H3146 H 0.16678 0.36506 0.23906 0.0
C3147 C 0.19409 0.3977 0.17111 0.0
C3148 C 0.19028 0.36638 0.1976 0.0
H3149 H 0.15209 0.34265 0.21569 0.0
C3150 C 0.20604 0.36866 0.20601 0.0
C3151 C 0.17054 0.35658 0.20105 0.0
C3152 C 0.15287 0.35284 0.19218 0.0
C3153 C 0.20268 0.36204 0.21798 0.0
C3154 C 0.18298 0.35259 0.22151 0.0
C3155 C 0.16719 0.34999 0.21299 0.0
C3156 C 0.17841 0.34564 0.23409 0.0
C3157 C 0.22032 0.3658 0.22688 0.0
C3158 C 0.18201 0.33069 0.23809 0.0
C3159 C 0.17738 0.32406 0.24989 0.0
C3160 C 0.16897 0.33218 0.25791 0.0
C3161 C 0.16523 0.34703 0.2538 0.0
C3162 C 0.16984 0.35363 0.242 0.0
H3163 H 0.23474 0.37731 0.22389 0.0
H3164 H 0.21902 0.37073 0.23649 0.0
H3165 H 0.2207 0.3517 0.22719 0.0
H3166 H 0.18827 0.32405 0.23206 0.0
H3167 H 0.18062 0.31273 0.25279 0.0
H3168 H 0.78688 0.64355 0.85839 0.0
H3169 H 0.79508 0.65623 0.83799 0.0
H3170 H 0.81224 0.61241 0.82856 0.0
H3171 H 0.80369 0.59938 0.84878 0.0
H3172 H 0.83272 0.67177 0.82794 0.0
H3173 H 0.77247 0.6048 0.79849 0.0
H3174 H 0.77194 0.60906 0.81509 0.0
H3175 H 0.78735 0.59966 0.80947 0.0
C3176 C 0.79217 0.63646 0.85191 0.0
C3177 C 0.79458 0.62041 0.85521 0.0
C3178 C 0.79696 0.64381 0.8403 0.0
C3179 C 0.80403 0.63511 0.8317 0.0
C3180 C 0.80652 0.61915 0.83497 0.0
H3181 H 0.84295 0.65425 0.75773 0.0
H3182 H 0.83365 0.64271 0.77822 0.0
C3183 C 0.80182 0.61186 0.84659 0.0
C3184 C 0.80926 0.64296 0.81942 0.0
H3185 H 0.79769 0.62974 0.78791 0.0
C3186 C 0.82499 0.66266 0.81917 0.0
C3187 C 0.79917 0.63101 0.80801 0.0
C3188 C 0.78167 0.61001 0.80771 0.0
C3189 C 0.83128 0.67055 0.80781 0.0
C3190 C 0.82127 0.65855 0.79639 0.0
C3191 C 0.80539 0.63891 0.79666 0.0
C3192 C 0.82717 0.66591 0.78405 0.0
C3193 C 0.84897 0.69145 0.80816 0.0
C3194 C 0.82647 0.6827 0.78046 0.0
C3195 C 0.83178 0.68934 0.76874 0.0
C3196 C 0.8377 0.67919 0.76032 0.0
C3197 C 0.83826 0.6623 0.76393 0.0
C3198 C 0.83303 0.65572 0.77566 0.0
H3199 H 0.85812 0.69654 0.8174 0.0
H3200 H 0.85872 0.6923 0.80082 0.0
H3201 H 0.84351 0.70198 0.80641 0.0
H3202 H 0.82153 0.69051 0.78665 0.0
H3203 H 0.83085 0.70219 0.76617 0.0
H3204 H 0.36001 0.15703 0.86177 0.0
H3205 H 0.35191 0.15136 0.83905 0.0
H3206 H 0.30928 0.17128 0.84232 0.0
H3207 H 0.31703 0.17672 0.86509 0.0
H3208 H 0.31367 0.12686 0.82409 0.0
H3209 H 0.34842 0.20791 0.81821 0.0
H3210 H 0.35335 0.19891 0.83233 0.0
H3211 H 0.33036 0.19907 0.82937 0.0
C3212 C 0.34869 0.15993 0.85769 0.0
C3213 C 0.33922 0.16742 0.86524 0.0
C3214 C 0.34416 0.15677 0.84471 0.0
C3215 C 0.33021 0.16116 0.83904 0.0
C3216 C 0.32036 0.16814 0.84654 0.0
H3217 H 0.29028 0.16337 0.76287 0.0
H3218 H 0.29491 0.16399 0.78553 0.0
C3219 C 0.32484 0.17128 0.85952 0.0
C3220 C 0.32626 0.15881 0.82526 0.0
H3221 H 0.33088 0.18519 0.80021 0.0
C3222 C 0.31745 0.13958 0.81884 0.0
C3223 C 0.3313 0.17548 0.81849 0.0
C3224 C 0.34154 0.19655 0.8249 0.0
C3225 C 0.3131 0.13651 0.80577 0.0
C3226 C 0.31808 0.15319 0.79899 0.0
C3227 C 0.32701 0.17242 0.80544 0.0
C3228 C 0.31411 0.15116 0.7852 0.0
C3229 C 0.30282 0.11544 0.79936 0.0
C3230 C 0.3233 0.14364 0.77749 0.0
C3231 C 0.3205 0.14304 0.76449 0.0
C3232 C 0.30857 0.15011 0.75897 0.0
C3233 C 0.29924 0.15744 0.76676 0.0
C3234 C 0.302 0.15797 0.77973 0.0
H3235 H 0.2954 0.10415 0.80602 0.0
H3236 H 0.29145 0.11323 0.79167 0.0
H3237 H 0.31411 0.11265 0.79528 0.0
H3238 H 0.33301 0.13865 0.78153 0.0
H3239 H 0.3278 0.1372 0.75876 0.0
H3240 H 0.77217 0.14737 0.8502 0.0
H3241 H 0.77423 0.13838 0.8284 0.0
H3242 H 0.83718 0.15968 0.83699 0.0
H3243 H 0.83505 0.16781 0.85884 0.0
H3244 H 0.79615 0.16391 0.81243 0.0
H3245 H 0.81973 0.10769 0.81638 0.0
H3246 H 0.81004 0.11532 0.82907 0.0
H3247 H 0.83595 0.13019 0.82644 0.0
C3248 C 0.78633 0.14964 0.84752 0.0
C3249 C 0.80346 0.15837 0.85627 0.0
C3250 C 0.78751 0.14461 0.83504 0.0
C3251 C 0.8058 0.1481 0.83108 0.0
C3252 C 0.8228 0.1564 0.83986 0.0
H3253 H 0.86214 0.16569 0.76418 0.0
H3254 H 0.85226 0.16242 0.78536 0.0
C3255 C 0.82162 0.16134 0.85233 0.0
C3256 C 0.80762 0.1448 0.81762 0.0
H3257 H 0.82625 0.12411 0.79743 0.0
C3258 C 0.80237 0.15489 0.80911 0.0
C3259 C 0.81573 0.13301 0.81328 0.0
C3260 C 0.82048 0.12078 0.82176 0.0
C3261 C 0.8059 0.1543 0.79651 0.0
C3262 C 0.81483 0.14327 0.79234 0.0
C3263 C 0.81949 0.13263 0.80072 0.0
C3264 C 0.8206 0.14371 0.77949 0.0
C3265 C 0.80087 0.16615 0.78785 0.0
C3266 C 0.80605 0.13392 0.7692 0.0
C3267 C 0.81165 0.13553 0.75704 0.0
C3268 C 0.83192 0.14704 0.75496 0.0
C3269 C 0.84645 0.15643 0.76538 0.0
C3270 C 0.84083 0.1547 0.77751 0.0
H3271 H 0.79614 0.17577 0.79289 0.0
H3272 H 0.814 0.17575 0.78291 0.0
H3273 H 0.7885 0.1557 0.78067 0.0
H3274 H 0.79036 0.12523 0.77057 0.0
H3275 H 0.80009 0.12783 0.74927 0.0
H3276 H 0.3094 0.13128 0.48606 0.0
H3277 H 0.31626 0.13544 0.50881 0.0
H3278 H 0.35355 0.19918 0.50823 0.0
H3279 H 0.34726 0.19518 0.48537 0.0
H3280 H 0.35694 0.15594 0.52351 0.0
H3281 H 0.30993 0.19001 0.5331 0.0
H3282 H 0.30632 0.17519 0.51855 0.0
H3283 H 0.32725 0.20018 0.52156 0.0
C3284 C 0.31931 0.14618 0.49072 0.0
C3285 C 0.32783 0.1629 0.48387 0.0
C3286 C 0.32308 0.14852 0.50372 0.0
C3287 C 0.33525 0.16761 0.51014 0.0
C3288 C 0.34391 0.18435 0.5034 0.0
H3289 H 0.36425 0.20585 0.59008 0.0
H3290 H 0.36026 0.20471 0.56724 0.0
C3291 C 0.34025 0.18202 0.49036 0.0
C3292 C 0.3389 0.16988 0.52391 0.0
H3293 H 0.3271 0.18596 0.55049 0.0
C3294 C 0.35048 0.16254 0.52944 0.0
C3295 C 0.33051 0.1786 0.53154 0.0
C3296 C 0.31769 0.18638 0.52596 0.0
C3297 C 0.35397 0.16374 0.54248 0.0
C3298 C 0.34514 0.17198 0.55015 0.0
C3299 C 0.33378 0.17959 0.54459 0.0
C3300 C 0.34727 0.17259 0.56396 0.0
C3301 C 0.36735 0.15644 0.54789 0.0
C3302 C 0.3409 0.15487 0.56967 0.0
C3303 C 0.34328 0.1555 0.58268 0.0
C3304 C 0.35175 0.17384 0.59021 0.0
C3305 C 0.35758 0.1915 0.58449 0.0
C3306 C 0.35537 0.19088 0.57147 0.0
H3307 H 0.37756 0.15641 0.54112 0.0
H3308 H 0.3765 0.16588 0.55659 0.0
H3309 H 0.35795 0.14085 0.55017 0.0
H3310 H 0.33406 0.14052 0.56407 0.0
H3311 H 0.33835 0.14163 0.58686 0.0
H3312 H 0.89122 0.17518 0.49315 0.0
H3313 H 0.88648 0.18021 0.5151 0.0
H3314 H 0.82545 0.16416 0.50404 0.0
H3315 H 0.8301 0.15937 0.48214 0.0
H3316 H 0.87215 0.20516 0.52744 0.0
H3317 H 0.82205 0.12348 0.52901 0.0
H3318 H 0.83852 0.13355 0.51696 0.0
H3319 H 0.81544 0.13382 0.5163 0.0
C3320 C 0.87691 0.17307 0.49538 0.0
C3321 C 0.86095 0.16662 0.48592 0.0
C3322 C 0.87421 0.17586 0.50791 0.0
C3323 C 0.85552 0.17219 0.51117 0.0
C3324 C 0.83988 0.16668 0.50172 0.0
H3325 H 0.79903 0.16592 0.57842 0.0
H3326 H 0.8078 0.16578 0.55704 0.0
C3327 C 0.84255 0.16392 0.48922 0.0
C3328 C 0.85198 0.17333 0.52446 0.0
H3329 H 0.82431 0.14484 0.54648 0.0
C3330 C 0.86181 0.192 0.53166 0.0
C3331 C 0.8385 0.15609 0.5299 0.0
C3332 C 0.82812 0.13555 0.52271 0.0
C3333 C 0.85801 0.19396 0.5441 0.0
C3334 C 0.8443 0.17673 0.54949 0.0
C3335 C 0.83474 0.15804 0.54231 0.0
C3336 C 0.83936 0.17768 0.56249 0.0
C3337 C 0.86819 0.21454 0.55122 0.0
C3338 C 0.85416 0.18431 0.57267 0.0
C3339 C 0.84922 0.18457 0.58491 0.0
C3340 C 0.82933 0.17805 0.58722 0.0
C3341 C 0.81453 0.17134 0.57698 0.0
C3342 C 0.8195 0.17112 0.56476 0.0
H3343 H 0.87413 0.22654 0.54486 0.0
H3344 H 0.85773 0.21647 0.55694 0.0
H3345 H 0.88096 0.21647 0.55763 0.0
H3346 H 0.86951 0.18907 0.57115 0.0
H3347 H 0.86102 0.18999 0.59257 0.0
H3348 H 0.85775 0.74129 0.50244 0.0
H3349 H 0.85218 0.72812 0.52274 0.0
H3350 H 0.87179 0.68704 0.51112 0.0
H3351 H 0.87733 0.70013 0.49066 0.0
H3352 H 0.82577 0.6884 0.52681 0.0
H3353 H 0.90385 0.71259 0.54559 0.0
H3354 H 0.89814 0.72307 0.53249 0.0
H3355 H 0.89565 0.69874 0.53035 0.0
C3356 C 0.8609 0.72945 0.50418 0.0
C3357 C 0.86787 0.72167 0.49488 0.0
C3358 C 0.85778 0.722 0.51582 0.0
C3359 C 0.86168 0.70669 0.51849 0.0
C3360 C 0.869 0.6991 0.50934 0.0
H3361 H 0.84466 0.64351 0.58539 0.0
H3362 H 0.85185 0.65443 0.56452 0.0
C3363 C 0.87216 0.70659 0.49765 0.0
C3364 C 0.85707 0.69815 0.53064 0.0
H3365 H 0.87821 0.69263 0.55783 0.0
C3366 C 0.83724 0.68931 0.53359 0.0
C3367 C 0.87203 0.69924 0.53944 0.0
C3368 C 0.89366 0.70905 0.53691 0.0
C3369 C 0.83194 0.68159 0.5451 0.0
C3370 C 0.84696 0.68309 0.55402 0.0
C3371 C 0.86674 0.69156 0.55099 0.0
C3372 C 0.84248 0.67639 0.56665 0.0
C3373 C 0.81026 0.67171 0.54754 0.0
C3374 C 0.83502 0.68524 0.57484 0.0
C3375 C 0.83077 0.67895 0.58673 0.0
C3376 C 0.834 0.66372 0.59073 0.0
C3377 C 0.84168 0.65503 0.58254 0.0
C3378 C 0.84595 0.66135 0.57064 0.0
H3379 H 0.8001 0.66676 0.5387 0.0
H3380 H 0.80611 0.65856 0.55284 0.0
H3381 H 0.80781 0.68261 0.55318 0.0
H3382 H 0.83256 0.69712 0.57204 0.0
H3383 H 0.82475 0.68589 0.59274 0.0
loop_
_geom_bond_atom_site_label_1
_geom_bond_atom_site_label_2
_geom_bond_distance
_geom_bond_site_symmetry_2
_ccdc_geom_bond_type
C0 C1 1.391 . S
C0 C4 1.391 . S
C0 H42 0.948 . S
C1 C0 1.391 . S
C1 C2 1.391 . S
C2 C1 1.391 . S
C2 H58 0.947 . S
C2 C59 1.392 . S
C3 C4 1.391 . S
C3 C7 1.397 . S
C3 C59 1.419 . S
C4 C0 1.391 . S
C4 C3 1.391 . S
C4 C5 1.399 . S
C5 C4 1.399 . S
C5 C8 1.396 . S
C5 C17 1.453 . S
C5 C18 1.684 . S
H6 C30 0.948 . S
C7 C3 1.397 . S
C7 C8 1.394 . S
C7 C26 1.723 . S
C8 C5 1.396 . S
C8 C7 1.394 . S
C8 C38 1.723 . S
H9 C32 0.947 . S
H10 C33 0.948 . S
H11 C39 0.982 . S
H12 C40 0.979 . S
H13 C40 0.980 . S
H14 C40 0.983 . S
H15 C39 0.979 . S
H16 C39 0.977 . S
C17 C5 1.453 . S
C17 H46 0.982 . S
C17 H47 0.979 . S
C17 H48 0.977 . S
C18 C5 1.684 . S
C18 H43 0.979 . S
C18 H44 0.980 . S
C18 H45 0.983 . S
C19 C20 1.391 . S
C19 C24 1.391 . S
C19 H49 0.948 . S
C20 C19 1.391 . S
C20 C21 1.391 . S
C21 C20 1.391 . S
C21 C22 1.392 . S
C21 H50 0.947 . S
C22 C21 1.392 . S
C22 C23 1.419 . S
C22 H51 0.948 . S
C23 C22 1.419 . S
C23 C24 1.391 . S
C23 C27 1.397 . S
C24 C19 1.391 . S
C24 C23 1.391 . S
C24 C25 1.399 . S
C25 C24 1.399 . S
C25 C26 1.396 . S
C25 C28 1.453 . S
C25 C29 1.684 . S
C26 C7 1.723 . S
C26 C25 1.396 . S
C26 C27 1.394 . S
C27 C23 1.397 . S
C27 C26 1.394 . S
C27 C37 1.723 . S
C28 C25 1.453 . S
C28 H52 0.982 . S
C28 H53 0.979 . S
C28 H54 0.977 . S
C29 C25 1.684 . S
C29 H55 0.979 . S
C29 H56 0.980 . S
C29 H57 0.983 . S
C30 H6 0.948 . S
C30 C31 1.391 . S
C30 C35 1.391 . S
C31 C30 1.391 . S
C31 C32 1.391 . S
C32 H9 0.947 . S
C32 C31 1.391 . S
C32 C33 1.392 . S
C33 H10 0.948 . S
C33 C32 1.392 . S
C33 C34 1.419 . S
C34 C33 1.419 . S
C34 C35 1.391 . S
C34 C38 1.397 . S
C35 C30 1.391 . S
C35 C34 1.391 . S
C35 C36 1.399 . S
C36 C35 1.399 . S
C36 C37 1.396 . S
C36 C39 1.453 . S
C36 C40 1.684 . S
C37 C27 1.723 . S
C37 C36 1.396 . S
C37 C38 1.394 . S
C38 C8 1.723 . S
C38 C34 1.397 . S
C38 C37 1.394 . S
C39 H11 0.982 . S
C39 H15 0.979 . S
C39 H16 0.977 . S
C39 C36 1.453 . S
C40 H12 0.979 . S
C40 H13 0.980 . S
C40 H14 0.983 . S
C40 C36 1.684 . S
H41 C59 0.948 . S
H42 C0 0.948 . S
H43 C18 0.979 . S
H44 C18 0.980 . S
H45 C18 0.983 . S
H46 C17 0.982 . S
H47 C17 0.979 . S
H48 C17 0.977 . S
H49 C19 0.948 . S
H50 C21 0.947 . S
H51 C22 0.948 . S
H52 C28 0.982 . S
H53 C28 0.979 . S
H54 C28 0.977 . S
H55 C29 0.979 . S
H56 C29 0.980 . S
H57 C29 0.983 . S
H58 C2 0.947 . S
C59 C2 1.392 . S
C59 C3 1.419 . S
C59 H41 0.948 . S
C60 C61 1.391 . S
C60 C64 1.391 . S
C60 H102 0.948 . S
C61 C60 1.391 . S
C61 C62 1.391 . S
C62 C61 1.391 . S
C62 H118 0.947 . S
C62 C119 1.392 . S
C63 C64 1.391 . S
C63 C67 1.397 . S
C63 C119 1.419 . S
C64 C60 1.391 . S
C64 C63 1.391 . S
C64 C65 1.399 . S
C65 C64 1.399 . S
C65 C68 1.396 . S
C65 C77 1.453 . S
C65 C78 1.684 . S
H66 C90 0.948 . S
C67 C63 1.397 . S
C67 C68 1.394 . S
C67 C86 1.723 . S
C68 C65 1.396 . S
C68 C67 1.394 . S
C68 C98 1.723 . S
H69 C92 0.947 . S
H70 C93 0.948 . S
H71 C99 0.982 . S
H72 C100 0.979 . S
H73 C100 0.980 . S
H74 C100 0.983 . S
H75 C99 0.979 . S
H76 C99 0.977 . S
C77 C65 1.453 . S
C77 H106 0.982 . S
C77 H107 0.979 . S
C77 H108 0.977 . S
C78 C65 1.684 . S
C78 H103 0.979 . S
C78 H104 0.980 . S
C78 H105 0.983 . S
C79 C80 1.391 . S
C79 C84 1.391 . S
C79 H109 0.948 . S
C80 C79 1.391 . S
C80 C81 1.391 . S
C81 C80 1.391 . S
C81 C82 1.392 . S
C81 H110 0.947 . S
C82 C81 1.392 . S
C82 C83 1.419 . S
C82 H111 0.948 . S
C83 C82 1.419 . S
C83 C84 1.391 . S
C83 C87 1.397 . S
C84 C79 1.391 . S
C84 C83 1.391 . S
C84 C85 1.399 . S
C85 C84 1.399 . S
C85 C86 1.396 . S
C85 C88 1.453 . S
C85 C89 1.684 . S
C86 C67 1.723 . S
C86 C85 1.396 . S
C86 C87 1.394 . S
C87 C83 1.397 . S
C87 C86 1.394 . S
C87 C97 1.723 . S
C88 C85 1.453 . S
C88 H112 0.982 . S
C88 H113 0.979 . S
C88 H114 0.977 . S
C89 C85 1.684 . S
C89 H115 0.979 . S
C89 H116 0.980 . S
C89 H117 0.983 . S
C90 H66 0.948 . S
C90 C91 1.391 . S
C90 C95 1.391 . S
C91 C90 1.391 . S
C91 C92 1.391 . S
C92 H69 0.947 . S
C92 C91 1.391 . S
C92 C93 1.392 . S
C93 H70 0.948 . S
C93 C92 1.392 . S
C93 C94 1.419 . S
C94 C93 1.419 . S
C94 C95 1.391 . S
C94 C98 1.397 . S
C95 C90 1.391 . S
C95 C94 1.391 . S
C95 C96 1.399 . S
C96 C95 1.399 . S
C96 C97 1.396 . S
C96 C99 1.453 . S
C96 C100 1.684 . S
C97 C87 1.723 . S
C97 C96 1.396 . S
C97 C98 1.394 . S
C98 C68 1.723 . S
C98 C94 1.397 . S
C98 C97 1.394 . S
C99 H71 0.982 . S
C99 H75 0.979 . S
C99 H76 0.977 . S
C99 C96 1.453 . S
C100 H72 0.979 . S
C100 H73 0.980 . S
C100 H74 0.983 . S
C100 C96 1.684 . S
H101 C119 0.948 . S
H102 C60 0.948 . S
H103 C78 0.979 . S
H104 C78 0.980 . S
H105 C78 0.983 . S
H106 C77 0.982 . S
H107 C77 0.979 . S
H108 C77 0.977 . S
H109 C79 0.948 . S
H110 C81 0.947 . S
H111 C82 0.948 . S
H112 C88 0.982 . S
H113 C88 0.979 . S
H114 C88 0.977 . S
H115 C89 0.979 . S
H116 C89 0.980 . S
H117 C89 0.983 . S
H118 C62 0.947 . S
C119 C62 1.392 . S
C119 C63 1.419 . S
C119 H101 0.948 . S
C120 C121 1.391 . S
C120 C124 1.391 . S
C120 H162 0.948 . S
C121 C120 1.391 . S
C121 C122 1.391 . S
C122 C121 1.391 . S
C122 H178 0.947 . S
C122 C179 1.392 . S
C123 C124 1.391 . S
C123 C127 1.397 . S
C123 C179 1.419 . S
C124 C120 1.391 . S
C124 C123 1.391 . S
C124 C125 1.399 . S
C125 C124 1.399 . S
C125 C128 1.396 . S
C125 C137 1.453 . S
C125 C138 1.684 . S
H126 C150 0.948 . S
C127 C123 1.397 . S
C127 C128 1.394 . S
C127 C146 1.723 . S
C128 C125 1.396 . S
C128 C127 1.394 . S
C128 C158 1.723 . S
H129 C152 0.947 . S
H130 C153 0.948 . S
H131 C159 0.982 . S
H132 C160 0.979 . S
H133 C160 0.980 . S
H134 C160 0.983 . S
H135 C159 0.979 . S
H136 C159 0.977 . S
C137 C125 1.453 . S
C137 H166 0.982 . S
C137 H167 0.979 . S
C137 H168 0.977 . S
C138 C125 1.684 . S
C138 H163 0.979 . S
C138 H164 0.980 . S
C138 H165 0.983 . S
C139 C140 1.391 . S
C139 C144 1.391 . S
C139 H169 0.948 . S
C140 C139 1.391 . S
C140 C141 1.391 . S
C141 C140 1.391 . S
C141 C142 1.392 . S
C141 H170 0.947 . S
C142 C141 1.392 . S
C142 C143 1.419 . S
C142 H171 0.948 . S
C143 C142 1.419 . S
C143 C144 1.391 . S
C143 C147 1.397 . S
C144 C139 1.391 . S
C144 C143 1.391 . S
C144 C145 1.399 . S
C145 C144 1.399 . S
C145 C146 1.396 . S
C145 C148 1.453 . S
C145 C149 1.684 . S
C146 C127 1.723 . S
C146 C145 1.396 . S
C146 C147 1.394 . S
C147 C143 1.397 . S
C147 C146 1.394 . S
C147 C157 1.723 . S
C148 C145 1.453 . S
C148 H172 0.982 . S
C148 H173 0.979 . S
C148 H174 0.977 . S
C149 C145 1.684 . S
C149 H175 0.979 . S
C149 H176 0.980 . S
C149 H177 0.983 . S
C150 H126 0.948 . S
C150 C151 1.391 . S
C150 C155 1.391 . S
C151 C150 1.391 . S
C151 C152 1.391 . S
C152 H129 0.947 . S
C152 C151 1.391 . S
C152 C153 1.392 . S
C153 H130 0.948 . S
C153 C152 1.392 . S
C153 C154 1.419 . S
C154 C153 1.419 . S
C154 C155 1.391 . S
C154 C158 1.397 . S
C155 C150 1.391 . S
C155 C154 1.391 . S
C155 C156 1.399 . S
C156 C155 1.399 . S
C156 C157 1.396 . S
C156 C159 1.453 . S
C156 C160 1.684 . S
C157 C147 1.723 . S
C157 C156 1.396 . S
C157 C158 1.394 . S
C158 C128 1.723 . S
C158 C154 1.397 . S
C158 C157 1.394 . S
C159 H131 0.982 . S
C159 H135 0.979 . S
C159 H136 0.977 . S
C159 C156 1.453 . S
C160 H132 0.979 . S
C160 H133 0.980 . S
C160 H134 0.983 . S
C160 C156 1.684 . S
H161 C179 0.948 . S
H162 C120 0.948 . S
H163 C138 0.979 . S
H164 C138 0.980 . S
H165 C138 0.983 . S
H166 C137 0.982 . S
H167 C137 0.979 . S
H168 C137 0.977 . S
H169 C139 0.948 . S
H170 C141 0.947 . S
H171 C142 0.948 . S
H172 C148 0.982 . S
H173 C148 0.979 . S
H174 C148 0.977 . S
H175 C149 0.979 . S
H176 C149 0.980 . S
H177 C149 0.983 . S
H178 C122 0.947 . S
C179 C122 1.392 . S
C179 C123 1.419 . S
C179 H161 0.948 . S
C180 C181 1.391 . S
C180 C184 1.391 . S
C180 H222 0.948 . S
C181 C180 1.391 . S
C181 C182 1.391 . S
C182 C181 1.391 . S
C182 H238 0.947 . S
C182 C239 1.392 . S
C183 C184 1.391 . S
C183 C187 1.397 . S
C183 C239 1.419 . S
C184 C180 1.391 . S
C184 C183 1.391 . S
C184 C185 1.399 . S
C185 C184 1.399 . S
C185 C188 1.396 . S
C185 C197 1.453 . S
C185 C198 1.684 . S
H186 C210 0.948 . S
C187 C183 1.397 . S
C187 C188 1.394 . S
C187 C206 1.723 . S
C188 C185 1.396 . S
C188 C187 1.394 . S
C188 C218 1.723 . S
H189 C212 0.947 . S
H190 C213 0.948 . S
H191 C219 0.982 . S
H192 C220 0.979 . S
H193 C220 0.980 . S
H194 C220 0.983 . S
H195 C219 0.979 . S
H196 C219 0.977 . S
C197 C185 1.453 . S
C197 H226 0.982 . S
C197 H227 0.979 . S
C197 H228 0.977 . S
C198 C185 1.684 . S
C198 H223 0.979 . S
C198 H224 0.980 . S
C198 H225 0.983 . S
C199 C200 1.391 . S
C199 C204 1.391 . S
C199 H229 0.948 . S
C200 C199 1.391 . S
C200 C201 1.391 . S
C201 C200 1.391 . S
C201 C202 1.392 . S
C201 H230 0.947 . S
C202 C201 1.392 . S
C202 C203 1.419 . S
C202 H231 0.948 . S
C203 C202 1.419 . S
C203 C204 1.391 . S
C203 C207 1.397 . S
C204 C199 1.391 . S
C204 C203 1.391 . S
C204 C205 1.399 . S
C205 C204 1.399 . S
C205 C206 1.396 . S
C205 C208 1.453 . S
C205 C209 1.684 . S
C206 C187 1.723 . S
C206 C205 1.396 . S
C206 C207 1.394 . S
C207 C203 1.397 . S
C207 C206 1.394 . S
C207 C217 1.723 . S
C208 C205 1.453 . S
C208 H232 0.982 . S
C208 H233 0.979 . S
C208 H234 0.977 . S
C209 C205 1.684 . S
C209 H235 0.979 . S
C209 H236 0.980 . S
C209 H237 0.983 . S
C210 H186 0.948 . S
C210 C211 1.391 . S
C210 C215 1.391 . S
C211 C210 1.391 . S
C211 C212 1.391 . S
C212 H189 0.947 . S
C212 C211 1.391 . S
C212 C213 1.392 . S
C213 H190 0.948 . S
C213 C212 1.392 . S
C213 C214 1.419 . S
C214 C213 1.419 . S
C214 C215 1.391 . S
C214 C218 1.397 . S
C215 C210 1.391 . S
C215 C214 1.391 . S
C215 C216 1.399 . S
C216 C215 1.399 . S
C216 C217 1.396 . S
C216 C219 1.453 . S
C216 C220 1.684 . S
C217 C207 1.723 . S
C217 C216 1.396 . S
C217 C218 1.394 . S
C218 C188 1.723 . S
C218 C214 1.397 . S
C218 C217 1.394 . S
C219 H191 0.982 . S
C219 H195 0.979 . S
C219 H196 0.977 . S
C219 C216 1.453 . S
C220 H192 0.979 . S
C220 H193 0.980 . S
C220 H194 0.983 . S
C220 C216 1.684 . S
H221 C239 0.948 . S
H222 C180 0.948 . S
H223 C198 0.979 . S
H224 C198 0.980 . S
H225 C198 0.983 . S
H226 C197 0.982 . S
H227 C197 0.979 . S
H228 C197 0.977 . S
H229 C199 0.948 . S
H230 C201 0.947 . S
H231 C202 0.948 . S
H232 C208 0.982 . S
H233 C208 0.979 . S
H234 C208 0.977 . S
H235 C209 0.979 . S
H236 C209 0.980 . S
H237 C209 0.983 . S
H238 C182 0.947 . S
C239 C182 1.392 . S
C239 C183 1.419 . S
C239 H221 0.948 . S
C240 C241 1.391 . S
C240 C244 1.391 . S
C240 H282 0.948 . S
C241 C240 1.391 . S
C241 C242 1.391 . S
C242 C241 1.391 . S
C242 H298 0.947 . S
C242 C299 1.392 . S
C243 C244 1.391 . S
C243 C247 1.397 . S
C243 C299 1.419 . S
C244 C240 1.391 . S
C244 C243 1.391 . S
C244 C245 1.399 . S
C245 C244 1.399 . S
C245 C248 1.396 . S
C245 C257 1.453 . S
C245 C258 1.684 . S
H246 C270 0.948 . S
C247 C243 1.397 . S
C247 C248 1.394 . S
C247 C266 1.723 . S
C248 C245 1.396 . S
C248 C247 1.394 . S
C248 C278 1.723 . S
H249 C272 0.947 . S
H250 C273 0.948 . S
H251 C279 0.982 . S
H252 C280 0.979 . S
H253 C280 0.980 . S
H254 C280 0.983 . S
H255 C279 0.979 . S
H256 C279 0.977 . S
C257 C245 1.453 . S
C257 H286 0.982 . S
C257 H287 0.979 . S
C257 H288 0.977 . S
C258 C245 1.684 . S
C258 H283 0.979 . S
C258 H284 0.980 . S
C258 H285 0.983 . S
C259 C260 1.391 . S
C259 C264 1.391 . S
C259 H289 0.948 . S
C260 C259 1.391 . S
C260 C261 1.391 . S
C261 C260 1.391 . S
C261 C262 1.392 . S
C261 H290 0.947 . S
C262 C261 1.392 . S
C262 C263 1.419 . S
C262 H291 0.948 . S
C263 C262 1.419 . S
C263 C264 1.391 . S
C263 C267 1.397 . S
C264 C259 1.391 . S
C264 C263 1.391 . S
C264 C265 1.399 . S
C265 C264 1.399 . S
C265 C266 1.396 . S
C265 C268 1.453 . S
C265 C269 1.684 . S
C266 C247 1.723 . S
C266 C265 1.396 . S
C266 C267 1.394 . S
C267 C263 1.397 . S
C267 C266 1.394 . S
C267 C277 1.723 . S
C268 C265 1.453 . S
C268 H292 0.982 . S
C268 H293 0.979 . S
C268 H294 0.977 . S
C269 C265 1.684 . S
C269 H295 0.979 . S
C269 H296 0.980 . S
C269 H297 0.983 . S
C270 H246 0.948 . S
C270 C271 1.391 . S
C270 C275 1.391 . S
C271 C270 1.391 . S
C271 C272 1.391 . S
C272 H249 0.947 . S
C272 C271 1.391 . S
C272 C273 1.392 . S
C273 H250 0.948 . S
C273 C272 1.392 . S
C273 C274 1.419 . S
C274 C273 1.419 . S
C274 C275 1.391 . S
C274 C278 1.397 . S
C275 C270 1.391 . S
C275 C274 1.391 . S
C275 C276 1.399 . S
C276 C275 1.399 . S
C276 C277 1.396 . S
C276 C279 1.453 . S
C276 C280 1.684 . S
C277 C267 1.723 . S
C277 C276 1.396 . S
C277 C278 1.394 . S
C278 C248 1.723 . S
C278 C274 1.397 . S
C278 C277 1.394 . S
C279 H251 0.982 . S
C279 H255 0.979 . S
C279 H256 0.977 . S
C279 C276 1.453 . S
C280 H252 0.979 . S
C280 H253 0.980 . S
C280 H254 0.983 . S
C280 C276 1.684 . S
H281 C299 0.948 . S
H282 C240 0.948 . S
H283 C258 0.979 . S
H284 C258 0.980 . S
H285 C258 0.983 . S
H286 C257 0.982 . S
H287 C257 0.979 . S
H288 C257 0.977 . S
H289 C259 0.948 . S
H290 C261 0.947 . S
H291 C262 0.948 . S
H292 C268 0.982 . S
H293 C268 0.979 . S
H294 C268 0.977 . S
H295 C269 0.979 . S
H296 C269 0.980 . S
H297 C269 0.983 . S
H298 C242 0.947 . S
C299 C242 1.392 . S
C299 C243 1.419 . S
C299 H281 0.948 . S
C300 C301 1.391 . S
C300 C304 1.391 . S
C300 H342 0.948 . S
C301 C300 1.391 . S
C301 C302 1.391 . S
C302 C301 1.391 . S
C302 H358 0.947 . S
C302 C359 1.392 . S
C303 C304 1.391 . S
C303 C307 1.397 . S
C303 C359 1.419 . S
C304 C300 1.391 . S
C304 C303 1.391 . S
C304 C305 1.399 . S
C305 C304 1.399 . S
C305 C308 1.396 . S
C305 C317 1.453 . S
C305 C318 1.684 . S
H306 C330 0.948 . S
C307 C303 1.397 . S
C307 C308 1.394 . S
C307 C326 1.723 . S
C308 C305 1.396 . S
C308 C307 1.394 . S
C308 C338 1.723 . S
H309 C332 0.947 . S
H310 C333 0.948 . S
H311 C339 0.982 . S
H312 C340 0.979 . S
H313 C340 0.980 . S
H314 C340 0.983 . S
H315 C339 0.979 . S
H316 C339 0.977 . S
C317 C305 1.453 . S
C317 H346 0.982 . S
C317 H347 0.979 . S
C317 H348 0.977 . S
C318 C305 1.684 . S
C318 H343 0.979 . S
C318 H344 0.980 . S
C318 H345 0.983 . S
C319 C320 1.391 . S
C319 C324 1.391 . S
C319 H349 0.948 . S
C320 C319 1.391 . S
C320 C321 1.391 . S
C321 C320 1.391 . S
C321 C322 1.392 . S
C321 H350 0.947 . S
C322 C321 1.392 . S
C322 C323 1.419 . S
C322 H351 0.948 . S
C323 C322 1.419 . S
C323 C324 1.391 . S
C323 C327 1.397 . S
C324 C319 1.391 . S
C324 C323 1.391 . S
C324 C325 1.399 . S
C325 C324 1.399 . S
C325 C326 1.396 . S
C325 C328 1.453 . S
C325 C329 1.684 . S
C326 C307 1.723 . S
C326 C325 1.396 . S
C326 C327 1.394 . S
C327 C323 1.397 . S
C327 C326 1.394 . S
C327 C337 1.723 . S
C328 C325 1.453 . S
C328 H352 0.982 . S
C328 H353 0.979 . S
C328 H354 0.977 . S
C329 C325 1.684 . S
C329 H355 0.979 . S
C329 H356 0.980 . S
C329 H357 0.983 . S
C330 H306 0.948 . S
C330 C331 1.391 . S
C330 C335 1.391 . S
C331 C330 1.391 . S
C331 C332 1.391 . S
C332 H309 0.947 . S
C332 C331 1.391 . S
C332 C333 1.392 . S
C333 H310 0.948 . S
C333 C332 1.392 . S
C333 C334 1.419 . S
C334 C333 1.419 . S
C334 C335 1.391 . S
C334 C338 1.397 . S
C335 C330 1.391 . S
C335 C334 1.391 . S
C335 C336 1.399 . S
C336 C335 1.399 . S
C336 C337 1.396 . S
C336 C339 1.453 . S
C336 C340 1.684 . S
C337 C327 1.723 . S
C337 C336 1.396 . S
C337 C338 1.394 . S
C338 C308 1.723 . S
C338 C334 1.397 . S
C338 C337 1.394 . S
C339 H311 0.982 . S
C339 H315 0.979 . S
C339 H316 0.977 . S
C339 C336 1.453 . S
C340 H312 0.979 . S
C340 H313 0.980 . S
C340 H314 0.983 . S
C340 C336 1.684 . S
H341 C359 0.948 . S
H342 C300 0.948 . S
H343 C318 0.979 . S
H344 C318 0.980 . S
H345 C318 0.983 . S
H346 C317 0.982 . S
H347 C317 0.979 . S
H348 C317 0.977 . S
H349 C319 0.948 . S
H350 C321 0.947 . S
H351 C322 0.948 . S
H352 C328 0.982 . S
H353 C328 0.979 . S
H354 C328 0.977 . S
H355 C329 0.979 . S
H356 C329 0.980 . S
H357 C329 0.983 . S
H358 C302 0.947 . S
C359 C302 1.392 . S
C359 C303 1.419 . S
C359 H341 0.948 . S
C360 C361 1.391 . S
C360 C364 1.391 . S
C360 H402 0.948 . S
C361 C360 1.391 . S
C361 C362 1.391 . S
C362 C361 1.391 . S
C362 H418 0.947 . S
C362 C419 1.392 . S
C363 C364 1.391 . S
C363 C367 1.397 . S
C363 C419 1.419 . S
C364 C360 1.391 . S
C364 C363 1.391 . S
C364 C365 1.399 . S
C365 C364 1.399 . S
C365 C368 1.396 . S
C365 C377 1.453 . S
C365 C378 1.684 . S
H366 C390 0.948 . S
C367 C363 1.397 . S
C367 C368 1.394 . S
C367 C386 1.723 . S
C368 C365 1.396 . S
C368 C367 1.394 . S
C368 C398 1.723 . S
H369 C392 0.947 . S
H370 C393 0.948 . S
H371 C399 0.982 . S
H372 C400 0.979 . S
H373 C400 0.980 . S
H374 C400 0.983 . S
H375 C399 0.979 . S
H376 C399 0.977 . S
C377 C365 1.453 . S
C377 H406 0.982 . S
C377 H407 0.979 . S
C377 H408 0.977 . S
C378 C365 1.684 . S
C378 H403 0.979 . S
C378 H404 0.980 . S
C378 H405 0.983 . S
C379 C380 1.391 . S
C379 C384 1.391 . S
C379 H409 0.948 . S
C380 C379 1.391 . S
C380 C381 1.391 . S
C381 C380 1.391 . S
C381 C382 1.392 . S
C381 H410 0.947 . S
C382 C381 1.392 . S
C382 C383 1.419 . S
C382 H411 0.948 . S
C383 C382 1.419 . S
C383 C384 1.391 . S
C383 C387 1.397 . S
C384 C379 1.391 . S
C384 C383 1.391 . S
C384 C385 1.399 . S
C385 C384 1.399 . S
C385 C386 1.396 . S
C385 C388 1.453 . S
C385 C389 1.684 . S
C386 C367 1.723 . S
C386 C385 1.396 . S
C386 C387 1.394 . S
C387 C383 1.397 . S
C387 C386 1.394 . S
C387 C397 1.723 . S
C388 C385 1.453 . S
C388 H412 0.982 . S
C388 H413 0.979 . S
C388 H414 0.977 . S
C389 C385 1.684 . S
C389 H415 0.979 . S
C389 H416 0.980 . S
C389 H417 0.983 . S
C390 H366 0.948 . S
C390 C391 1.391 . S
C390 C395 1.391 . S
C391 C390 1.391 . S
C391 C392 1.391 . S
C392 H369 0.947 . S
C392 C391 1.391 . S
C392 C393 1.392 . S
C393 H370 0.948 . S
C393 C392 1.392 . S
C393 C394 1.419 . S
C394 C393 1.419 . S
C394 C395 1.391 . S
C394 C398 1.397 . S
C395 C390 1.391 . S
C395 C394 1.391 . S
C395 C396 1.399 . S
C396 C395 1.399 . S
C396 C397 1.396 . S
C396 C399 1.453 . S
C396 C400 1.684 . S
C397 C387 1.723 . S
C397 C396 1.396 . S
C397 C398 1.394 . S
C398 C368 1.723 . S
C398 C394 1.397 . S
C398 C397 1.394 . S
C399 H371 0.982 . S
C399 H375 0.979 . S
C399 H376 0.977 . S
C399 C396 1.453 . S
C400 H372 0.979 . S
C400 H373 0.980 . S
C400 H374 0.983 . S
C400 C396 1.684 . S
H401 C419 0.948 . S
H402 C360 0.948 . S
H403 C378 0.979 . S
H404 C378 0.980 . S
H405 C378 0.983 . S
H406 C377 0.982 . S
H407 C377 0.979 . S
H408 C377 0.977 . S
H409 C379 0.948 . S
H410 C381 0.947 . S
H411 C382 0.948 . S
H412 C388 0.982 . S
H413 C388 0.979 . S
H414 C388 0.977 . S
H415 C389 0.979 . S
H416 C389 0.980 . S
H417 C389 0.983 . S
H418 C362 0.947 . S
C419 C362 1.392 . S
C419 C363 1.419 . S
C419 H401 0.948 . S
C420 C421 1.391 . S
C420 C424 1.391 . S
C420 H462 0.948 . S
C421 C420 1.391 . S
C421 C422 1.391 . S
C422 C421 1.391 . S
C422 H478 0.947 . S
C422 C479 1.392 . S
C423 C424 1.391 . S
C423 C427 1.397 . S
C423 C479 1.419 . S
C424 C420 1.391 . S
C424 C423 1.391 . S
C424 C425 1.399 . S
C425 C424 1.399 . S
C425 C428 1.396 . S
C425 C437 1.453 . S
C425 C438 1.684 . S
H426 C450 0.948 . S
C427 C423 1.397 . S
C427 C428 1.394 . S
C427 C446 1.723 . S
C428 C425 1.396 . S
C428 C427 1.394 . S
C428 C458 1.723 . S
H429 C452 0.947 . S
H430 C453 0.948 . S
H431 C459 0.982 . S
H432 C460 0.979 . S
H433 C460 0.980 . S
H434 C460 0.983 . S
H435 C459 0.979 . S
H436 C459 0.977 . S
C437 C425 1.453 . S
C437 H466 0.982 . S
C437 H467 0.979 . S
C437 H468 0.977 . S
C438 C425 1.684 . S
C438 H463 0.979 . S
C438 H464 0.980 . S
C438 H465 0.983 . S
C439 C440 1.391 . S
C439 C444 1.391 . S
C439 H469 0.948 . S
C440 C439 1.391 . S
C440 C441 1.391 . S
C441 C440 1.391 . S
C441 C442 1.392 . S
C441 H470 0.947 . S
C442 C441 1.392 . S
C442 C443 1.419 . S
C442 H471 0.948 . S
C443 C442 1.419 . S
C443 C444 1.391 . S
C443 C447 1.397 . S
C444 C439 1.391 . S
C444 C443 1.391 . S
C444 C445 1.399 . S
C445 C444 1.399 . S
C445 C446 1.396 . S
C445 C448 1.453 . S
C445 C449 1.684 . S
C446 C427 1.723 . S
C446 C445 1.396 . S
C446 C447 1.394 . S
C447 C443 1.397 . S
C447 C446 1.394 . S
C447 C457 1.723 . S
C448 C445 1.453 . S
C448 H472 0.982 . S
C448 H473 0.979 . S
C448 H474 0.977 . S
C449 C445 1.684 . S
C449 H475 0.979 . S
C449 H476 0.980 . S
C449 H477 0.983 . S
C450 H426 0.948 . S
C450 C451 1.391 . S
C450 C455 1.391 . S
C451 C450 1.391 . S
C451 C452 1.391 . S
C452 H429 0.947 . S
C452 C451 1.391 . S
C452 C453 1.392 . S
C453 H430 0.948 . S
C453 C452 1.392 . S
C453 C454 1.419 . S
C454 C453 1.419 . S
C454 C455 1.391 . S
C454 C458 1.397 . S
C455 C450 1.391 . S
C455 C454 1.391 . S
C455 C456 1.399 . S
C456 C455 1.399 . S
C456 C457 1.396 . S
C456 C459 1.453 . S
C456 C460 1.684 . S
C457 C447 1.723 . S
C457 C456 1.396 . S
C457 C458 1.394 . S
C458 C428 1.723 . S
C458 C454 1.397 . S
C458 C457 1.394 . S
C459 H431 0.982 . S
C459 H435 0.979 . S
C459 H436 0.977 . S
C459 C456 1.453 . S
C460 H432 0.979 . S
C460 H433 0.980 . S
C460 H434 0.983 . S
C460 C456 1.684 . S
H461 C479 0.948 . S
H462 C420 0.948 . S
H463 C438 0.979 . S
H464 C438 0.980 . S
H465 C438 0.983 . S
H466 C437 0.982 . S
H467 C437 0.979 . S
H468 C437 0.977 . S
H469 C439 0.948 . S
H470 C441 0.947 . S
H471 C442 0.948 . S
H472 C448 0.982 . S
H473 C448 0.979 . S
H474 C448 0.977 . S
H475 C449 0.979 . S
H476 C449 0.980 . S
H477 C449 0.983 . S
H478 C422 0.947 . S
C479 C422 1.392 . S
C479 C423 1.419 . S
C479 H461 0.948 . S
C480 C481 1.391 . S
C480 C484 1.391 . S
C480 H522 0.948 . S
C481 C480 1.391 . S
C481 C482 1.391 . S
C482 C481 1.391 . S
C482 H538 0.947 . S
C482 C539 1.392 . S
C483 C484 1.391 . S
C483 C487 1.397 . S
C483 C539 1.419 . S
C484 C480 1.391 . S
C484 C483 1.391 . S
C484 C485 1.399 . S
C485 C484 1.399 . S
C485 C488 1.396 . S
C485 C497 1.453 . S
C485 C498 1.684 . S
H486 C510 0.948 . S
C487 C483 1.397 . S
C487 C488 1.394 . S
C487 C506 1.723 . S
C488 C485 1.396 . S
C488 C487 1.394 . S
C488 C518 1.723 . S
H489 C512 0.947 . S
H490 C513 0.948 . S
H491 C519 0.982 . S
H492 C520 0.979 . S
H493 C520 0.980 . S
H494 C520 0.983 . S
H495 C519 0.979 . S
H496 C519 0.977 . S
C497 C485 1.453 . S
C497 H526 0.982 . S
C497 H527 0.979 . S
C497 H528 0.977 . S
C498 C485 1.684 . S
C498 H523 0.979 . S
C498 H524 0.980 . S
C498 H525 0.983 . S
C499 C500 1.391 . S
C499 C504 1.391 . S
C499 H529 0.948 . S
C500 C499 1.391 . S
C500 C501 1.391 . S
C501 C500 1.391 . S
C501 C502 1.392 . S
C501 H530 0.947 . S
C502 C501 1.392 . S
C502 C503 1.419 . S
C502 H531 0.948 . S
C503 C502 1.419 . S
C503 C504 1.391 . S
C503 C507 1.397 . S
C504 C499 1.391 . S
C504 C503 1.391 . S
C504 C505 1.399 . S
C505 C504 1.399 . S
C505 C506 1.396 . S
C505 C508 1.453 . S
C505 C509 1.684 . S
C506 C487 1.723 . S
C506 C505 1.396 . S
C506 C507 1.394 . S
C507 C503 1.397 . S
C507 C506 1.394 . S
C507 C517 1.723 . S
C508 C505 1.453 . S
C508 H532 0.982 . S
C508 H533 0.979 . S
C508 H534 0.977 . S
C509 C505 1.684 . S
C509 H535 0.979 . S
C509 H536 0.980 . S
C509 H537 0.983 . S
C510 H486 0.948 . S
C510 C511 1.391 . S
C510 C515 1.391 . S
C511 C510 1.391 . S
C511 C512 1.391 . S
C512 H489 0.947 . S
C512 C511 1.391 . S
C512 C513 1.392 . S
C513 H490 0.948 . S
C513 C512 1.392 . S
C513 C514 1.419 . S
C514 C513 1.419 . S
C514 C515 1.391 . S
C514 C518 1.397 . S
C515 C510 1.391 . S
C515 C514 1.391 . S
C515 C516 1.399 . S
C516 C515 1.399 . S
C516 C517 1.396 . S
C516 C519 1.453 . S
C516 C520 1.684 . S
C517 C507 1.723 . S
C517 C516 1.396 . S
C517 C518 1.394 . S
C518 C488 1.723 . S
C518 C514 1.397 . S
C518 C517 1.394 . S
C519 H491 0.982 . S
C519 H495 0.979 . S
C519 H496 0.977 . S
C519 C516 1.453 . S
C520 H492 0.979 . S
C520 H493 0.980 . S
C520 H494 0.983 . S
C520 C516 1.684 . S
H521 C539 0.948 . S
H522 C480 0.948 . S
H523 C498 0.979 . S
H524 C498 0.980 . S
H525 C498 0.983 . S
H526 C497 0.982 . S
H527 C497 0.979 . S
H528 C497 0.977 . S
H529 C499 0.948 . S
H530 C501 0.947 . S
H531 C502 0.948 . S
H532 C508 0.982 . S
H533 C508 0.979 . S
H534 C508 0.977 . S
H535 C509 0.979 . S
H536 C509 0.980 . S
H537 C509 0.983 . S
H538 C482 0.947 . S
C539 C482 1.392 . S
C539 C483 1.419 . S
C539 H521 0.948 . S
C540 C541 1.391 . S
C540 C544 1.391 . S
C540 H582 0.948 . S
C541 C540 1.391 . S
C541 C542 1.391 . S
C542 C541 1.391 . S
C542 H598 0.947 . S
C542 C599 1.392 . S
C543 C544 1.391 . S
C543 C547 1.397 . S
C543 C599 1.419 . S
C544 C540 1.391 . S
C544 C543 1.391 . S
C544 C545 1.399 . S
C545 C544 1.399 . S
C545 C548 1.396 . S
C545 C557 1.453 . S
C545 C558 1.684 . S
H546 C570 0.948 . S
C547 C543 1.397 . S
C547 C548 1.394 . S
C547 C566 1.723 . S
C548 C545 1.396 . S
C548 C547 1.394 . S
C548 C578 1.723 . S
H549 C572 0.947 . S
H550 C573 0.948 . S
H551 C579 0.982 . S
H552 C580 0.979 . S
H553 C580 0.980 . S
H554 C580 0.983 . S
H555 C579 0.979 . S
H556 C579 0.977 . S
C557 C545 1.453 . S
C557 H586 0.982 . S
C557 H587 0.979 . S
C557 H588 0.977 . S
C558 C545 1.684 . S
C558 H583 0.979 . S
C558 H584 0.980 . S
C558 H585 0.983 . S
C559 C560 1.391 . S
C559 C564 1.391 . S
C559 H589 0.948 . S
C560 C559 1.391 . S
C560 C561 1.391 . S
C561 C560 1.391 . S
C561 C562 1.392 . S
C561 H590 0.947 . S
C562 C561 1.392 . S
C562 C563 1.419 . S
C562 H591 0.948 . S
C563 C562 1.419 . S
C563 C564 1.391 . S
C563 C567 1.397 . S
C564 C559 1.391 . S
C564 C563 1.391 . S
C564 C565 1.399 . S
C565 C564 1.399 . S
C565 C566 1.396 . S
C565 C568 1.453 . S
C565 C569 1.684 . S
C566 C547 1.723 . S
C566 C565 1.396 . S
C566 C567 1.394 . S
C567 C563 1.397 . S
C567 C566 1.394 . S
C567 C577 1.723 . S
C568 C565 1.453 . S
C568 H592 0.982 . S
C568 H593 0.979 . S
C568 H594 0.977 . S
C569 C565 1.684 . S
C569 H595 0.979 . S
C569 H596 0.980 . S
C569 H597 0.983 . S
C570 H546 0.948 . S
C570 C571 1.391 . S
C570 C575 1.391 . S
C571 C570 1.391 . S
C571 C572 1.391 . S
C572 H549 0.947 . S
C572 C571 1.391 . S
C572 C573 1.392 . S
C573 H550 0.948 . S
C573 C572 1.392 . S
C573 C574 1.419 . S
C574 C573 1.419 . S
C574 C575 1.391 . S
C574 C578 1.397 . S
C575 C570 1.391 . S
C575 C574 1.391 . S
C575 C576 1.399 . S
C576 C575 1.399 . S
C576 C577 1.396 . S
C576 C579 1.453 . S
C576 C580 1.684 . S
C577 C567 1.723 . S
C577 C576 1.396 . S
C577 C578 1.394 . S
C578 C548 1.723 . S
C578 C574 1.397 . S
C578 C577 1.394 . S
C579 H551 0.982 . S
C579 H555 0.979 . S
C579 H556 0.977 . S
C579 C576 1.453 . S
C580 H552 0.979 . S
C580 H553 0.980 . S
C580 H554 0.983 . S
C580 C576 1.684 . S
H581 C599 0.948 . S
H582 C540 0.948 . S
H583 C558 0.979 . S
H584 C558 0.980 . S
H585 C558 0.983 . S
H586 C557 0.982 . S
H587 C557 0.979 . S
H588 C557 0.977 . S
H589 C559 0.948 . S
H590 C561 0.947 . S
H591 C562 0.948 . S
H592 C568 0.982 . S
H593 C568 0.979 . S
H594 C568 0.977 . S
H595 C569 0.979 . S
H596 C569 0.980 . S
H597 C569 0.983 . S
H598 C542 0.947 . S
C599 C542 1.392 . S
C599 C543 1.419 . S
C599 H581 0.948 . S
C600 C601 1.391 . S
C600 C604 1.391 . S
C600 H642 0.948 . S
C601 C600 1.391 . S
C601 C602 1.391 . S
C602 C601 1.391 . S
C602 H658 0.947 . S
C602 C659 1.392 . S
C603 C604 1.391 . S
C603 C607 1.397 . S
C603 C659 1.419 . S
C604 C600 1.391 . S
C604 C603 1.391 . S
C604 C605 1.399 . S
C605 C604 1.399 . S
C605 C608 1.396 . S
C605 C617 1.453 . S
C605 C618 1.684 . S
H606 C630 0.948 . S
C607 C603 1.397 . S
C607 C608 1.394 . S
C607 C626 1.723 . S
C608 C605 1.396 . S
C608 C607 1.394 . S
C608 C638 1.723 . S
H609 C632 0.947 . S
H610 C633 0.948 . S
H611 C639 0.982 . S
H612 C640 0.979 . S
H613 C640 0.980 . S
H614 C640 0.983 . S
H615 C639 0.979 . S
H616 C639 0.977 . S
C617 C605 1.453 . S
C617 H646 0.982 . S
C617 H647 0.979 . S
C617 H648 0.977 . S
C618 C605 1.684 . S
C618 H643 0.979 . S
C618 H644 0.980 . S
C618 H645 0.983 . S
C619 C620 1.391 . S
C619 C624 1.391 . S
C619 H649 0.948 . S
C620 C619 1.391 . S
C620 C621 1.391 . S
C621 C620 1.391 . S
C621 C622 1.392 . S
C621 H650 0.947 . S
C622 C621 1.392 . S
C622 C623 1.419 . S
C622 H651 0.948 . S
C623 C622 1.419 . S
C623 C624 1.391 . S
C623 C627 1.397 . S
C624 C619 1.391 . S
C624 C623 1.391 . S
C624 C625 1.399 . S
C625 C624 1.399 . S
C625 C626 1.396 . S
C625 C628 1.453 . S
C625 C629 1.684 . S
C626 C607 1.723 . S
C626 C625 1.396 . S
C626 C627 1.394 . S
C627 C623 1.397 . S
C627 C626 1.394 . S
C627 C637 1.723 . S
C628 C625 1.453 . S
C628 H652 0.982 . S
C628 H653 0.979 . S
C628 H654 0.977 . S
C629 C625 1.684 . S
C629 H655 0.979 . S
C629 H656 0.980 . S
C629 H657 0.983 . S
C630 H606 0.948 . S
C630 C631 1.391 . S
C630 C635 1.391 . S
C631 C630 1.391 . S
C631 C632 1.391 . S
C632 H609 0.947 . S
C632 C631 1.391 . S
C632 C633 1.392 . S
C633 H610 0.948 . S
C633 C632 1.392 . S
C633 C634 1.419 . S
C634 C633 1.419 . S
C634 C635 1.391 . S
C634 C638 1.397 . S
C635 C630 1.391 . S
C635 C634 1.391 . S
C635 C636 1.399 . S
C636 C635 1.399 . S
C636 C637 1.396 . S
C636 C639 1.453 . S
C636 C640 1.684 . S
C637 C627 1.723 . S
C637 C636 1.396 . S
C637 C638 1.394 . S
C638 C608 1.723 . S
C638 C634 1.397 . S
C638 C637 1.394 . S
C639 H611 0.982 . S
C639 H615 0.979 . S
C639 H616 0.977 . S
C639 C636 1.453 . S
C640 H612 0.979 . S
C640 H613 0.980 . S
C640 H614 0.983 . S
C640 C636 1.684 . S
H641 C659 0.948 . S
H642 C600 0.948 . S
H643 C618 0.979 . S
H644 C618 0.980 . S
H645 C618 0.983 . S
H646 C617 0.982 . S
H647 C617 0.979 . S
H648 C617 0.977 . S
H649 C619 0.948 . S
H650 C621 0.947 . S
H651 C622 0.948 . S
H652 C628 0.982 . S
H653 C628 0.979 . S
H654 C628 0.977 . S
H655 C629 0.979 . S
H656 C629 0.980 . S
H657 C629 0.983 . S
H658 C602 0.947 . S
C659 C602 1.392 . S
C659 C603 1.419 . S
C659 H641 0.948 . S
C660 C661 1.391 . S
C660 C664 1.391 . S
C660 H702 0.948 . S
C661 C660 1.391 . S
C661 C662 1.391 . S
C662 C661 1.391 . S
C662 H718 0.947 . S
C662 C719 1.392 . S
C663 C664 1.391 . S
C663 C667 1.397 . S
C663 C719 1.419 . S
C664 C660 1.391 . S
C664 C663 1.391 . S
C664 C665 1.399 . S
C665 C664 1.399 . S
C665 C668 1.396 . S
C665 C677 1.453 . S
C665 C678 1.684 . S
H666 C690 0.948 . S
C667 C663 1.397 . S
C667 C668 1.394 . S
C667 C686 1.723 . S
C668 C665 1.396 . S
C668 C667 1.394 . S
C668 C698 1.723 . S
H669 C692 0.947 . S
H670 C693 0.948 . S
H671 C699 0.982 . S
H672 C700 0.979 . S
H673 C700 0.980 . S
H674 C700 0.983 . S
H675 C699 0.979 . S
H676 C699 0.977 . S
C677 C665 1.453 . S
C677 H706 0.982 . S
C677 H707 0.979 . S
C677 H708 0.977 . S
C678 C665 1.684 . S
C678 H703 0.979 . S
C678 H704 0.980 . S
C678 H705 0.983 . S
C679 C680 1.391 . S
C679 C684 1.391 . S
C679 H709 0.948 . S
C680 C679 1.391 . S
C680 C681 1.391 . S
C681 C680 1.391 . S
C681 C682 1.392 . S
C681 H710 0.947 . S
C682 C681 1.392 . S
C682 C683 1.419 . S
C682 H711 0.948 . S
C683 C682 1.419 . S
C683 C684 1.391 . S
C683 C687 1.397 . S
C684 C679 1.391 . S
C684 C683 1.391 . S
C684 C685 1.399 . S
C685 C684 1.399 . S
C685 C686 1.396 . S
C685 C688 1.453 . S
C685 C689 1.684 . S
C686 C667 1.723 . S
C686 C685 1.396 . S
C686 C687 1.394 . S
C687 C683 1.397 . S
C687 C686 1.394 . S
C687 C697 1.723 . S
C688 C685 1.453 . S
C688 H712 0.982 . S
C688 H713 0.979 . S
C688 H714 0.977 . S
C689 C685 1.684 . S
C689 H715 0.979 . S
C689 H716 0.980 . S
C689 H717 0.983 . S
C690 H666 0.948 . S
C690 C691 1.391 . S
C690 C695 1.391 . S
C691 C690 1.391 . S
C691 C692 1.391 . S
C692 H669 0.947 . S
C692 C691 1.391 . S
C692 C693 1.392 . S
C693 H670 0.948 . S
C693 C692 1.392 . S
C693 C694 1.419 . S
C694 C693 1.419 . S
C694 C695 1.391 . S
C694 C698 1.397 . S
C695 C690 1.391 . S
C695 C694 1.391 . S
C695 C696 1.399 . S
C696 C695 1.399 . S
C696 C697 1.396 . S
C696 C699 1.453 . S
C696 C700 1.684 . S
C697 C687 1.723 . S
C697 C696 1.396 . S
C697 C698 1.394 . S
C698 C668 1.723 . S
C698 C694 1.397 . S
C698 C697 1.394 . S
C699 H671 0.982 . S
C699 H675 0.979 . S
C699 H676 0.977 . S
C699 C696 1.453 . S
C700 H672 0.979 . S
C700 H673 0.980 . S
C700 H674 0.983 . S
C700 C696 1.684 . S
H701 C719 0.948 . S
H702 C660 0.948 . S
H703 C678 0.979 . S
H704 C678 0.980 . S
H705 C678 0.983 . S
H706 C677 0.982 . S
H707 C677 0.979 . S
H708 C677 0.977 . S
H709 C679 0.948 . S
H710 C681 0.947 . S
H711 C682 0.948 . S
H712 C688 0.982 . S
H713 C688 0.979 . S
H714 C688 0.977 . S
H715 C689 0.979 . S
H716 C689 0.980 . S
H717 C689 0.983 . S
H718 C662 0.947 . S
C719 C662 1.392 . S
C719 C663 1.419 . S
C719 H701 0.948 . S
C720 C721 1.391 . S
C720 C724 1.391 . S
C720 H762 0.948 . S
C721 C720 1.391 . S
C721 C722 1.391 . S
C722 C721 1.391 . S
C722 H778 0.947 . S
C722 C779 1.392 . S
C723 C724 1.391 . S
C723 C727 1.397 . S
C723 C779 1.419 . S
C724 C720 1.391 . S
C724 C723 1.391 . S
C724 C725 1.399 . S
C725 C724 1.399 . S
C725 C728 1.396 . S
C725 C737 1.453 . S
C725 C738 1.684 . S
H726 C750 0.948 . S
C727 C723 1.397 . S
C727 C728 1.394 . S
C727 C746 1.723 . S
C728 C725 1.396 . S
C728 C727 1.394 . S
C728 C758 1.723 . S
H729 C752 0.947 . S
H730 C753 0.948 . S
H731 C759 0.982 . S
H732 C760 0.979 . S
H733 C760 0.980 . S
H734 C760 0.983 . S
H735 C759 0.979 . S
H736 C759 0.977 . S
C737 C725 1.453 . S
C737 H766 0.982 . S
C737 H767 0.979 . S
C737 H768 0.977 . S
C738 C725 1.684 . S
C738 H763 0.979 . S
C738 H764 0.980 . S
C738 H765 0.983 . S
C739 C740 1.391 . S
C739 C744 1.391 . S
C739 H769 0.948 . S
C740 C739 1.391 . S
C740 C741 1.391 . S
C741 C740 1.391 . S
C741 C742 1.392 . S
C741 H770 0.947 . S
C742 C741 1.392 . S
C742 C743 1.419 . S
C742 H771 0.948 . S
C743 C742 1.419 . S
C743 C744 1.391 . S
C743 C747 1.397 . S
C744 C739 1.391 . S
C744 C743 1.391 . S
C744 C745 1.399 . S
C745 C744 1.399 . S
C745 C746 1.396 . S
C745 C748 1.453 . S
C745 C749 1.684 . S
C746 C727 1.723 . S
C746 C745 1.396 . S
C746 C747 1.394 . S
C747 C743 1.397 . S
C747 C746 1.394 . S
C747 C757 1.723 . S
C748 C745 1.453 . S
C748 H772 0.982 . S
C748 H773 0.979 . S
C748 H774 0.977 . S
C749 C745 1.684 . S
C749 H775 0.979 . S
C749 H776 0.980 . S
C749 H777 0.983 . S
C750 H726 0.948 . S
C750 C751 1.391 . S
C750 C755 1.391 . S
C751 C750 1.391 . S
C751 C752 1.391 . S
C752 H729 0.947 . S
C752 C751 1.391 . S
C752 C753 1.392 . S
C753 H730 0.948 . S
C753 C752 1.392 . S
C753 C754 1.419 . S
C754 C753 1.419 . S
C754 C755 1.391 . S
C754 C758 1.397 . S
C755 C750 1.391 . S
C755 C754 1.391 . S
C755 C756 1.399 . S
C756 C755 1.399 . S
C756 C757 1.396 . S
C756 C759 1.453 . S
C756 C760 1.684 . S
C757 C747 1.723 . S
C757 C756 1.396 . S
C757 C758 1.394 . S
C758 C728 1.723 . S
C758 C754 1.397 . S
C758 C757 1.394 . S
C759 H731 0.982 . S
C759 H735 0.979 . S
C759 H736 0.977 . S
C759 C756 1.453 . S
C760 H732 0.979 . S
C760 H733 0.980 . S
C760 H734 0.983 . S
C760 C756 1.684 . S
H761 C779 0.948 . S
H762 C720 0.948 . S
H763 C738 0.979 . S
H764 C738 0.980 . S
H765 C738 0.983 . S
H766 C737 0.982 . S
H767 C737 0.979 . S
H768 C737 0.977 . S
H769 C739 0.948 . S
H770 C741 0.947 . S
H771 C742 0.948 . S
H772 C748 0.982 . S
H773 C748 0.979 . S
H774 C748 0.977 . S
H775 C749 0.979 . S
H776 C749 0.980 . S
H777 C749 0.983 . S
H778 C722 0.947 . S
C779 C722 1.392 . S
C779 C723 1.419 . S
C779 H761 0.948 . S
C780 C781 1.391 . S
C780 C784 1.391 . S
C780 H822 0.948 . S
C781 C780 1.391 . S
C781 C782 1.391 . S
C782 C781 1.391 . S
C782 H838 0.947 . S
C782 C839 1.392 . S
C783 C784 1.391 . S
C783 C787 1.397 . S
C783 C839 1.419 . S
C784 C780 1.391 . S
C784 C783 1.391 . S
C784 C785 1.399 . S
C785 C784 1.399 . S
C785 C788 1.396 . S
C785 C797 1.453 . S
C785 C798 1.684 . S
H786 C810 0.948 . S
C787 C783 1.397 . S
C787 C788 1.394 . S
C787 C806 1.723 . S
C788 C785 1.396 . S
C788 C787 1.394 . S
C788 C818 1.723 . S
H789 C812 0.947 . S
H790 C813 0.948 . S
H791 C819 0.982 . S
H792 C820 0.979 . S
H793 C820 0.980 . S
H794 C820 0.983 . S
H795 C819 0.979 . S
H796 C819 0.977 . S
C797 C785 1.453 . S
C797 H826 0.982 . S
C797 H827 0.979 . S
C797 H828 0.977 . S
C798 C785 1.684 . S
C798 H823 0.979 . S
C798 H824 0.980 . S
C798 H825 0.983 . S
C799 C800 1.391 . S
C799 C804 1.391 . S
C799 H829 0.948 . S
C800 C799 1.391 . S
C800 C801 1.391 . S
C801 C800 1.391 . S
C801 C802 1.392 . S
C801 H830 0.947 . S
C802 C801 1.392 . S
C802 C803 1.419 . S
C802 H831 0.948 . S
C803 C802 1.419 . S
C803 C804 1.391 . S
C803 C807 1.397 . S
C804 C799 1.391 . S
C804 C803 1.391 . S
C804 C805 1.399 . S
C805 C804 1.399 . S
C805 C806 1.396 . S
C805 C808 1.453 . S
C805 C809 1.684 . S
C806 C787 1.723 . S
C806 C805 1.396 . S
C806 C807 1.394 . S
C807 C803 1.397 . S
C807 C806 1.394 . S
C807 C817 1.723 . S
C808 C805 1.453 . S
C808 H832 0.982 . S
C808 H833 0.979 . S
C808 H834 0.977 . S
C809 C805 1.684 . S
C809 H835 0.979 . S
C809 H836 0.980 . S
C809 H837 0.983 . S
C810 H786 0.948 . S
C810 C811 1.391 . S
C810 C815 1.391 . S
C811 C810 1.391 . S
C811 C812 1.391 . S
C812 H789 0.947 . S
C812 C811 1.391 . S
C812 C813 1.392 . S
C813 H790 0.948 . S
C813 C812 1.392 . S
C813 C814 1.419 . S
C814 C813 1.419 . S
C814 C815 1.391 . S
C814 C818 1.397 . S
C815 C810 1.391 . S
C815 C814 1.391 . S
C815 C816 1.399 . S
C816 C815 1.399 . S
C816 C817 1.396 . S
C816 C819 1.453 . S
C816 C820 1.684 . S
C817 C807 1.723 . S
C817 C816 1.396 . S
C817 C818 1.394 . S
C818 C788 1.723 . S
C818 C814 1.397 . S
C818 C817 1.394 . S
C819 H791 0.982 . S
C819 H795 0.979 . S
C819 H796 0.977 . S
C819 C816 1.453 . S
C820 H792 0.979 . S
C820 H793 0.980 . S
C820 H794 0.983 . S
C820 C816 1.684 . S
H821 C839 0.948 . S
H822 C780 0.948 . S
H823 C798 0.979 . S
H824 C798 0.980 . S
H825 C798 0.983 . S
H826 C797 0.982 . S
H827 C797 0.979 . S
H828 C797 0.977 . S
H829 C799 0.948 . S
H830 C801 0.947 . S
H831 C802 0.948 . S
H832 C808 0.982 . S
H833 C808 0.979 . S
H834 C808 0.977 . S
H835 C809 0.979 . S
H836 C809 0.980 . S
H837 C809 0.983 . S
H838 C782 0.947 . S
C839 C782 1.392 . S
C839 C783 1.419 . S
C839 H821 0.948 . S
C840 C841 1.391 . S
C840 C844 1.391 . S
C840 H882 0.948 . S
C841 C840 1.391 . S
C841 C842 1.391 . S
C842 C841 1.391 . S
C842 H898 0.947 . S
C842 C899 1.392 . S
C843 C844 1.391 . S
C843 C847 1.397 . S
C843 C899 1.419 . S
C844 C840 1.391 . S
C844 C843 1.391 . S
C844 C845 1.399 . S
C845 C844 1.399 . S
C845 C848 1.396 . S
C845 C857 1.453 . S
C845 C858 1.684 . S
H846 C870 0.948 . S
C847 C843 1.397 . S
C847 C848 1.394 . S
C847 C866 1.723 . S
C848 C845 1.396 . S
C848 C847 1.394 . S
C848 C878 1.723 . S
H849 C872 0.947 . S
H850 C873 0.948 . S
H851 C879 0.982 . S
H852 C880 0.979 . S
H853 C880 0.980 . S
H854 C880 0.983 . S
H855 C879 0.979 . S
H856 C879 0.977 . S
C857 C845 1.453 . S
C857 H886 0.982 . S
C857 H887 0.979 . S
C857 H888 0.977 . S
C858 C845 1.684 . S
C858 H883 0.979 . S
C858 H884 0.980 . S
C858 H885 0.983 . S
C859 C860 1.391 . S
C859 C864 1.391 . S
C859 H889 0.948 . S
C860 C859 1.391 . S
C860 C861 1.391 . S
C861 C860 1.391 . S
C861 C862 1.392 . S
C861 H890 0.947 . S
C862 C861 1.392 . S
C862 C863 1.419 . S
C862 H891 0.948 . S
C863 C862 1.419 . S
C863 C864 1.391 . S
C863 C867 1.397 . S
C864 C859 1.391 . S
C864 C863 1.391 . S
C864 C865 1.399 . S
C865 C864 1.399 . S
C865 C866 1.396 . S
C865 C868 1.453 . S
C865 C869 1.684 . S
C866 C847 1.723 . S
C866 C865 1.396 . S
C866 C867 1.394 . S
C867 C863 1.397 . S
C867 C866 1.394 . S
C867 C877 1.723 . S
C868 C865 1.453 . S
C868 H892 0.982 . S
C868 H893 0.979 . S
C868 H894 0.977 . S
C869 C865 1.684 . S
C869 H895 0.979 . S
C869 H896 0.980 . S
C869 H897 0.983 . S
C870 H846 0.948 . S
C870 C871 1.391 . S
C870 C875 1.391 . S
C871 C870 1.391 . S
C871 C872 1.391 . S
C872 H849 0.947 . S
C872 C871 1.391 . S
C872 C873 1.392 . S
C873 H850 0.948 . S
C873 C872 1.392 . S
C873 C874 1.419 . S
C874 C873 1.419 . S
C874 C875 1.391 . S
C874 C878 1.397 . S
C875 C870 1.391 . S
C875 C874 1.391 . S
C875 C876 1.399 . S
C876 C875 1.399 . S
C876 C877 1.396 . S
C876 C879 1.453 . S
C876 C880 1.684 . S
C877 C867 1.723 . S
C877 C876 1.396 . S
C877 C878 1.394 . S
C878 C848 1.723 . S
C878 C874 1.397 . S
C878 C877 1.394 . S
C879 H851 0.982 . S
C879 H855 0.979 . S
C879 H856 0.977 . S
C879 C876 1.453 . S
C880 H852 0.979 . S
C880 H853 0.980 . S
C880 H854 0.983 . S
C880 C876 1.684 . S
H881 C899 0.948 . S
H882 C840 0.948 . S
H883 C858 0.979 . S
H884 C858 0.980 . S
H885 C858 0.983 . S
H886 C857 0.982 . S
H887 C857 0.979 . S
H888 C857 0.977 . S
H889 C859 0.948 . S
H890 C861 0.947 . S
H891 C862 0.948 . S
H892 C868 0.982 . S
H893 C868 0.979 . S
H894 C868 0.977 . S
H895 C869 0.979 . S
H896 C869 0.980 . S
H897 C869 0.983 . S
H898 C842 0.947 . S
C899 C842 1.392 . S
C899 C843 1.419 . S
C899 H881 0.948 . S
C900 C901 1.391 . S
C900 C904 1.391 . S
C900 H942 0.948 . S
C901 C900 1.391 . S
C901 C902 1.391 . S
C902 C901 1.391 . S
C902 H958 0.947 . S
C902 C959 1.392 . S
C903 C904 1.391 . S
C903 C907 1.397 . S
C903 C959 1.419 . S
C904 C900 1.391 . S
C904 C903 1.391 . S
C904 C905 1.399 . S
C905 C904 1.399 . S
C905 C908 1.396 . S
C905 C917 1.453 . S
C905 C918 1.684 . S
H906 C930 0.948 . S
C907 C903 1.397 . S
C907 C908 1.394 . S
C907 C926 1.723 . S
C908 C905 1.396 . S
C908 C907 1.394 . S
C908 C938 1.723 . S
H909 C932 0.947 . S
H910 C933 0.948 . S
H911 C939 0.982 . S
H912 C940 0.979 . S
H913 C940 0.980 . S
H914 C940 0.983 . S
H915 C939 0.979 . S
H916 C939 0.977 . S
C917 C905 1.453 . S
C917 H946 0.982 . S
C917 H947 0.979 . S
C917 H948 0.977 . S
C918 C905 1.684 . S
C918 H943 0.979 . S
C918 H944 0.980 . S
C918 H945 0.983 . S
C919 C920 1.391 . S
C919 C924 1.391 . S
C919 H949 0.948 . S
C920 C919 1.391 . S
C920 C921 1.391 . S
C921 C920 1.391 . S
C921 C922 1.392 . S
C921 H950 0.947 . S
C922 C921 1.392 . S
C922 C923 1.419 . S
C922 H951 0.948 . S
C923 C922 1.419 . S
C923 C924 1.391 . S
C923 C927 1.397 . S
C924 C919 1.391 . S
C924 C923 1.391 . S
C924 C925 1.399 . S
C925 C924 1.399 . S
C925 C926 1.396 . S
C925 C928 1.453 . S
C925 C929 1.684 . S
C926 C907 1.723 . S
C926 C925 1.396 . S
C926 C927 1.394 . S
C927 C923 1.397 . S
C927 C926 1.394 . S
C927 C937 1.723 . S
C928 C925 1.453 . S
C928 H952 0.982 . S
C928 H953 0.979 . S
C928 H954 0.977 . S
C929 C925 1.684 . S
C929 H955 0.979 . S
C929 H956 0.980 . S
C929 H957 0.983 . S
C930 H906 0.948 . S
C930 C931 1.391 . S
C930 C935 1.391 . S
C931 C930 1.391 . S
C931 C932 1.391 . S
C932 H909 0.947 . S
C932 C931 1.391 . S
C932 C933 1.392 . S
C933 H910 0.948 . S
C933 C932 1.392 . S
C933 C934 1.419 . S
C934 C933 1.419 . S
C934 C935 1.391 . S
C934 C938 1.397 . S
C935 C930 1.391 . S
C935 C934 1.391 . S
C935 C936 1.399 . S
C936 C935 1.399 . S
C936 C937 1.396 . S
C936 C939 1.453 . S
C936 C940 1.684 . S
C937 C927 1.723 . S
C937 C936 1.396 . S
C937 C938 1.394 . S
C938 C908 1.723 . S
C938 C934 1.397 . S
C938 C937 1.394 . S
C939 H911 0.982 . S
C939 H915 0.979 . S
C939 H916 0.977 . S
C939 C936 1.453 . S
C940 H912 0.979 . S
C940 H913 0.980 . S
C940 H914 0.983 . S
C940 C936 1.684 . S
H941 C959 0.948 . S
H942 C900 0.948 . S
H943 C918 0.979 . S
H944 C918 0.980 . S
H945 C918 0.983 . S
H946 C917 0.982 . S
H947 C917 0.979 . S
H948 C917 0.977 . S
H949 C919 0.948 . S
H950 C921 0.947 . S
H951 C922 0.948 . S
H952 C928 0.982 . S
H953 C928 0.979 . S
H954 C928 0.977 . S
H955 C929 0.979 . S
H956 C929 0.980 . S
H957 C929 0.983 . S
H958 C902 0.947 . S
C959 C902 1.392 . S
C959 C903 1.419 . S
C959 H941 0.948 . S
C960 C961 1.391 . S
C960 C964 1.391 . S
C960 H1002 0.948 . S
C961 C960 1.391 . S
C961 C962 1.391 . S
C962 C961 1.391 . S
C962 H1018 0.947 . S
C962 C1019 1.392 . S
C963 C964 1.391 . S
C963 C967 1.397 . S
C963 C1019 1.419 . S
C964 C960 1.391 . S
C964 C963 1.391 . S
C964 C965 1.399 . S
C965 C964 1.399 . S
C965 C968 1.396 . S
C965 C977 1.453 . S
C965 C978 1.684 . S
H966 C990 0.948 . S
C967 C963 1.397 . S
C967 C968 1.394 . S
C967 C986 1.723 . S
C968 C965 1.396 . S
C968 C967 1.394 . S
C968 C998 1.723 . S
H969 C992 0.947 . S
H970 C993 0.948 . S
H971 C999 0.982 . S
H972 C1000 0.979 . S
H973 C1000 0.980 . S
H974 C1000 0.983 . S
H975 C999 0.979 . S
H976 C999 0.977 . S
C977 C965 1.453 . S
C977 H1006 0.982 . S
C977 H1007 0.979 . S
C977 H1008 0.977 . S
C978 C965 1.684 . S
C978 H1003 0.979 . S
C978 H1004 0.980 . S
C978 H1005 0.983 . S
C979 C980 1.391 . S
C979 C984 1.391 . S
C979 H1009 0.948 . S
C980 C979 1.391 . S
C980 C981 1.391 . S
C981 C980 1.391 . S
C981 C982 1.392 . S
C981 H1010 0.947 . S
C982 C981 1.392 . S
C982 C983 1.419 . S
C982 H1011 0.948 . S
C983 C982 1.419 . S
C983 C984 1.391 . S
C983 C987 1.397 . S
C984 C979 1.391 . S
C984 C983 1.391 . S
C984 C985 1.399 . S
C985 C984 1.399 . S
C985 C986 1.396 . S
C985 C988 1.453 . S
C985 C989 1.684 . S
C986 C967 1.723 . S
C986 C985 1.396 . S
C986 C987 1.394 . S
C987 C983 1.397 . S
C987 C986 1.394 . S
C987 C997 1.723 . S
C988 C985 1.453 . S
C988 H1012 0.982 . S
C988 H1013 0.979 . S
C988 H1014 0.977 . S
C989 C985 1.684 . S
C989 H1015 0.979 1_455 S
C989 H1016 0.980 . S
C989 H1017 0.983 . S
C990 H966 0.948 . S
C990 C991 1.391 . S
C990 C995 1.391 . S
C991 C990 1.391 . S
C991 C992 1.391 . S
C992 H969 0.947 . S
C992 C991 1.391 . S
C992 C993 1.392 . S
C993 H970 0.948 . S
C993 C992 1.392 . S
C993 C994 1.419 . S
C994 C993 1.419 . S
C994 C995 1.391 . S
C994 C998 1.397 . S
C995 C990 1.391 . S
C995 C994 1.391 . S
C995 C996 1.399 . S
C996 C995 1.399 . S
C996 C997 1.396 . S
C996 C999 1.453 . S
C996 C1000 1.684 . S
C997 C987 1.723 . S
C997 C996 1.396 . S
C997 C998 1.394 . S
C998 C968 1.723 . S
C998 C994 1.397 . S
C998 C997 1.394 . S
C999 H971 0.982 . S
C999 H975 0.979 . S
C999 H976 0.977 . S
C999 C996 1.453 . S
C1000 H972 0.979 . S
C1000 H973 0.980 . S
C1000 H974 0.983 . S
C1000 C996 1.684 . S
H1001 C1019 0.948 . S
H1002 C960 0.948 . S
H1003 C978 0.979 . S
H1004 C978 0.980 . S
H1005 C978 0.983 . S
H1006 C977 0.982 . S
H1007 C977 0.979 . S
H1008 C977 0.977 . S
H1009 C979 0.948 . S
H1010 C981 0.947 . S
H1011 C982 0.948 . S
H1012 C988 0.982 . S
H1013 C988 0.979 . S
H1014 C988 0.977 . S
H1015 C989 0.979 1_655 S
H1016 C989 0.980 . S
H1017 C989 0.983 . S
H1018 C962 0.947 . S
C1019 C962 1.392 . S
C1019 C963 1.419 . S
C1019 H1001 0.948 . S
C1020 C1021 1.391 . S
C1020 C1024 1.391 . S
C1020 H1062 0.948 . S
C1021 C1020 1.391 . S
C1021 C1022 1.391 . S
C1022 C1021 1.391 . S
C1022 H1078 0.947 . S
C1022 C1079 1.392 . S
C1023 C1024 1.391 . S
C1023 C1027 1.397 . S
C1023 C1079 1.419 . S
C1024 C1020 1.391 . S
C1024 C1023 1.391 . S
C1024 C1025 1.399 . S
C1025 C1024 1.399 . S
C1025 C1028 1.396 . S
C1025 C1037 1.453 . S
C1025 C1038 1.684 . S
H1026 C1050 0.948 . S
C1027 C1023 1.397 . S
C1027 C1028 1.394 . S
C1027 C1046 1.723 . S
C1028 C1025 1.396 . S
C1028 C1027 1.394 . S
C1028 C1058 1.723 . S
H1029 C1052 0.947 . S
H1030 C1053 0.948 . S
H1031 C1059 0.982 . S
H1032 C1060 0.979 . S
H1033 C1060 0.980 . S
H1034 C1060 0.983 . S
H1035 C1059 0.979 . S
H1036 C1059 0.977 . S
C1037 C1025 1.453 . S
C1037 H1066 0.982 . S
C1037 H1067 0.979 . S
C1037 H1068 0.977 . S
C1038 C1025 1.684 . S
C1038 H1063 0.979 . S
C1038 H1064 0.980 . S
C1038 H1065 0.983 . S
C1039 C1040 1.391 . S
C1039 C1044 1.391 . S
C1039 H1069 0.948 . S
C1040 C1039 1.391 . S
C1040 C1041 1.391 . S
C1041 C1040 1.391 . S
C1041 C1042 1.392 . S
C1041 H1070 0.947 . S
C1042 C1041 1.392 . S
C1042 C1043 1.419 . S
C1042 H1071 0.948 . S
C1043 C1042 1.419 . S
C1043 C1044 1.391 . S
C1043 C1047 1.397 . S
C1044 C1039 1.391 . S
C1044 C1043 1.391 . S
C1044 C1045 1.399 . S
C1045 C1044 1.399 . S
C1045 C1046 1.396 . S
C1045 C1048 1.453 . S
C1045 C1049 1.684 . S
C1046 C1027 1.723 . S
C1046 C1045 1.396 . S
C1046 C1047 1.394 . S
C1047 C1043 1.397 . S
C1047 C1046 1.394 . S
C1047 C1057 1.723 . S
C1048 C1045 1.453 . S
C1048 H1072 0.982 . S
C1048 H1073 0.979 . S
C1048 H1074 0.977 . S
C1049 C1045 1.684 . S
C1049 H1075 0.979 . S
C1049 H1076 0.980 . S
C1049 H1077 0.983 . S
C1050 H1026 0.948 . S
C1050 C1051 1.391 . S
C1050 C1055 1.391 . S
C1051 C1050 1.391 . S
C1051 C1052 1.391 . S
C1052 H1029 0.947 . S
C1052 C1051 1.391 . S
C1052 C1053 1.392 . S
C1053 H1030 0.948 . S
C1053 C1052 1.392 . S
C1053 C1054 1.419 . S
C1054 C1053 1.419 . S
C1054 C1055 1.391 . S
C1054 C1058 1.397 . S
C1055 C1050 1.391 . S
C1055 C1054 1.391 . S
C1055 C1056 1.399 . S
C1056 C1055 1.399 . S
C1056 C1057 1.396 . S
C1056 C1059 1.453 . S
C1056 C1060 1.684 . S
C1057 C1047 1.723 . S
C1057 C1056 1.396 . S
C1057 C1058 1.394 . S
C1058 C1028 1.723 . S
C1058 C1054 1.397 . S
C1058 C1057 1.394 . S
C1059 H1031 0.982 . S
C1059 H1035 0.979 . S
C1059 H1036 0.977 . S
C1059 C1056 1.453 . S
C1060 H1032 0.979 . S
C1060 H1033 0.980 . S
C1060 H1034 0.983 . S
C1060 C1056 1.684 . S
H1061 C1079 0.948 . S
H1062 C1020 0.948 . S
H1063 C1038 0.979 . S
H1064 C1038 0.980 . S
H1065 C1038 0.983 . S
H1066 C1037 0.982 . S
H1067 C1037 0.979 . S
H1068 C1037 0.977 . S
H1069 C1039 0.948 . S
H1070 C1041 0.947 . S
H1071 C1042 0.948 . S
H1072 C1048 0.982 . S
H1073 C1048 0.979 . S
H1074 C1048 0.977 . S
H1075 C1049 0.979 . S
H1076 C1049 0.980 . S
H1077 C1049 0.983 . S
H1078 C1022 0.947 . S
C1079 C1022 1.392 . S
C1079 C1023 1.419 . S
C1079 H1061 0.948 . S
Tb1080 C1090 2.825 . S
Tb1080 O1091 2.347 1_565 S
Tb1080 O1094 2.366 1_565 S
Tb1080 O1099 2.418 . S
Tb1080 O1100 2.384 . S
Tb1080 O1103 2.479 . S
Tb1080 O1104 2.441 1_565 S
Eu1081 O1092 2.418 . S
Eu1081 O1093 2.384 . S
Eu1081 O1096 2.479 . S
Eu1081 O1097 2.449 1_545 S
Eu1081 O1098 2.347 1_545 S
Eu1081 O1101 2.366 1_545 S
Eu1081 C1111 2.825 . S
C1082 O1098 1.259 . S
C1082 O1099 1.265 1_554 S
C1083 O1100 1.255 1_554 S
C1083 O1101 1.265 . S
C1084 C1086 1.380 . S
C1084 C1087 1.374 1_565 S
C1084 C1090 1.507 . S
C1085 C1086 1.384 . S
C1085 C1089 1.387 1_565 S
C1085 H1112 0.930 . S
C1086 C1084 1.380 . S
C1086 C1085 1.384 . S
C1086 H1113 0.931 . S
C1087 C1084 1.374 1_545 S
C1087 C1088 1.390 . S
C1087 H1114 0.930 . S
C1088 C1087 1.390 . S
C1088 C1089 1.391 . S
C1088 H1115 0.930 . S
C1089 C1085 1.387 1_545 S
C1089 C1088 1.391 . S
C1090 Tb1080 2.825 . S
C1090 C1084 1.507 . S
C1090 O1103 1.238 . S
C1090 O1104 1.202 1_565 S
O1091 Tb1080 2.347 1_545 S
O1091 C1095 1.259 . S
O1092 Eu1081 2.418 . S
O1092 C1095 1.265 1_554 S
O1093 Eu1081 2.384 . S
O1093 C1102 1.255 1_554 S
O1094 Tb1080 2.366 1_545 S
O1094 C1102 1.265 . S
C1095 O1091 1.259 . S
C1095 O1092 1.265 1_556 S
O1096 Eu1081 2.479 . S
O1096 C1111 1.238 . S
O1097 Eu1081 2.449 1_565 S
O1097 C1111 1.214 1_565 S
O1098 Eu1081 2.347 1_565 S
O1098 C1082 1.259 . S
O1099 Tb1080 2.418 . S
O1099 C1082 1.265 1_556 S
O1100 Tb1080 2.384 . S
O1100 C1083 1.255 1_556 S
O1101 Eu1081 2.366 1_565 S
O1101 C1083 1.265 . S
C1102 O1093 1.255 1_556 S
C1102 O1094 1.265 . S
O1103 Tb1080 2.479 . S
O1103 C1090 1.238 . S
O1104 Tb1080 2.441 1_545 S
O1104 C1090 1.202 1_545 S
C1105 C1108 1.380 . S
C1105 C1109 1.374 1_545 S
C1105 C1111 1.507 . S
C1106 C1107 1.387 1_565 S
C1106 C1110 1.391 . S
C1107 C1106 1.387 1_545 S
C1107 C1108 1.384 . S
C1107 H1116 0.930 . S
C1108 C1105 1.380 . S
C1108 C1107 1.384 . S
C1108 H1117 0.931 . S
C1109 C1105 1.374 1_565 S
C1109 C1110 1.390 . S
C1109 H1118 0.930 . S
C1110 C1106 1.391 . S
C1110 C1109 1.390 . S
C1110 H1119 0.930 . S
C1111 Eu1081 2.825 . S
C1111 O1096 1.238 . S
C1111 O1097 1.214 1_545 S
C1111 C1105 1.507 . S
H1112 C1085 0.930 . S
H1113 C1086 0.931 . S
H1114 C1087 0.930 . S
H1115 C1088 0.930 . S
H1116 C1107 0.930 . S
H1117 C1108 0.931 . S
H1118 C1109 0.930 . S
H1119 C1110 0.930 . S
Tb1120 C1130 2.825 . S
Tb1120 O1131 2.347 1_455 S
Tb1120 O1134 2.366 1_455 S
Tb1120 O1139 2.418 . S
Tb1120 O1140 2.384 1_556 S
Tb1120 O1143 2.479 . S
Tb1120 O1144 2.471 1_455 S
Eu1121 O1132 2.418 . S
Eu1121 O1133 2.384 1_554 S
Eu1121 O1136 2.479 . S
Eu1121 O1137 2.471 1_655 S
Eu1121 O1138 2.347 1_655 S
Eu1121 O1141 2.366 1_655 S
Eu1121 C1151 2.825 . S
C1122 O1138 1.259 . S
C1122 O1139 1.265 1_554 S
C1123 O1140 1.255 . S
C1123 O1141 1.265 . S
C1124 C1126 1.380 . S
C1124 C1127 1.374 1_455 S
C1124 C1130 1.507 . S
C1125 C1126 1.384 . S
C1125 C1129 1.387 1_455 S
C1125 H1152 0.930 . S
C1126 C1124 1.380 . S
C1126 C1125 1.384 . S
C1126 H1153 0.931 . S
C1127 C1124 1.374 1_655 S
C1127 C1128 1.390 . S
C1127 H1154 0.930 . S
C1128 C1127 1.390 . S
C1128 C1129 1.391 . S
C1128 H1155 0.930 . S
C1129 C1125 1.387 1_655 S
C1129 C1128 1.391 . S
C1130 Tb1120 2.825 . S
C1130 C1124 1.507 . S
C1130 O1143 1.238 . S
C1130 O1144 1.247 1_455 S
O1131 Tb1120 2.347 1_655 S
O1131 C1135 1.259 . S
O1132 Eu1121 2.418 . S
O1132 C1135 1.265 1_554 S
O1133 Eu1121 2.384 1_556 S
O1133 C1142 1.255 . S
O1134 Tb1120 2.366 1_655 S
O1134 C1142 1.265 . S
C1135 O1131 1.259 . S
C1135 O1132 1.265 1_556 S
O1136 Eu1121 2.479 . S
O1136 C1151 1.238 . S
O1137 Eu1121 2.471 1_455 S
O1137 C1151 1.247 1_455 S
O1138 Eu1121 2.347 1_455 S
O1138 C1122 1.259 . S
O1139 Tb1120 2.418 . S
O1139 C1122 1.265 1_556 S
O1140 Tb1120 2.384 1_554 S
O1140 C1123 1.255 . S
O1141 Eu1121 2.366 1_455 S
O1141 C1123 1.265 . S
C1142 O1133 1.255 . S
C1142 O1134 1.265 . S
O1143 Tb1120 2.479 . S
O1143 C1130 1.238 . S
O1144 Tb1120 2.471 1_655 S
O1144 C1130 1.247 1_655 S
C1145 C1148 1.380 . S
C1145 C1149 1.374 1_655 S
C1145 C1151 1.507 . S
C1146 C1147 1.387 1_455 S
C1146 C1150 1.391 . S
C1147 C1146 1.387 1_655 S
C1147 C1148 1.384 . S
C1147 H1156 0.930 . S
C1148 C1145 1.380 . S
C1148 C1147 1.384 . S
C1148 H1157 0.931 . S
C1149 C1145 1.374 1_455 S
C1149 C1150 1.390 . S
C1149 H1158 0.930 . S
C1150 C1146 1.391 . S
C1150 C1149 1.390 . S
C1150 H1159 0.930 . S
C1151 Eu1121 2.825 . S
C1151 O1136 1.238 . S
C1151 O1137 1.247 1_655 S
C1151 C1145 1.507 . S
H1152 C1125 0.930 . S
H1153 C1126 0.931 . S
H1154 C1127 0.930 . S
H1155 C1128 0.930 . S
H1156 C1147 0.930 . S
H1157 C1148 0.931 . S
H1158 C1149 0.930 . S
H1159 C1150 0.930 . S
Tb1160 C1170 2.825 . S
Tb1160 O1171 2.347 . S
Tb1160 O1174 2.366 . S
Tb1160 O1179 2.418 . S
Tb1160 O1180 2.417 . S
Tb1160 O1183 2.479 . S
Tb1160 O1184 2.471 . S
Eu1161 O1172 2.418 . S
Eu1161 O1173 2.320 1_556 S
Eu1161 O1176 2.479 . S
Eu1161 O1177 2.471 . S
Eu1161 O1178 2.347 . S
Eu1161 O1181 2.366 . S
Eu1161 C1191 2.825 . S
C1162 O1178 1.259 . S
C1162 O1179 1.265 1_556 S
C1163 O1180 1.217 1_556 S
C1163 O1181 1.265 . S
C1164 C1166 1.380 . S
C1164 C1167 1.374 . S
C1164 C1170 1.507 . S
C1165 C1166 1.384 . S
C1165 C1169 1.387 . S
C1165 H1192 0.930 . S
C1166 C1164 1.380 . S
C1166 C1165 1.384 . S
C1166 H1193 0.931 . S
C1167 C1164 1.374 . S
C1167 C1168 1.390 . S
C1167 H1194 0.930 . S
C1168 C1167 1.390 . S
C1168 C1169 1.391 . S
C1168 H1195 0.930 . S
C1169 C1165 1.387 . S
C1169 C1168 1.391 . S
C1170 Tb1160 2.825 . S
C1170 C1164 1.507 . S
C1170 O1183 1.238 . S
C1170 O1184 1.247 . S
O1171 Tb1160 2.347 . S
O1171 C1175 1.259 . S
O1172 Eu1161 2.418 . S
O1172 C1175 1.265 1_556 S
O1173 Eu1161 2.320 1_554 S
O1173 C1182 1.331 . S
O1174 Tb1160 2.366 . S
O1174 C1182 1.265 . S
C1175 O1171 1.259 . S
C1175 O1172 1.265 1_554 S
O1176 Eu1161 2.479 . S
O1176 C1191 1.238 . S
O1177 Eu1161 2.471 . S
O1177 C1191 1.247 . S
O1178 Eu1161 2.347 . S
O1178 C1162 1.259 . S
O1179 Tb1160 2.418 . S
O1179 C1162 1.265 1_554 S
O1180 Tb1160 2.417 . S
O1180 C1163 1.217 1_554 S
O1181 Eu1161 2.366 . S
O1181 C1163 1.265 . S
C1182 O1173 1.331 . S
C1182 O1174 1.265 . S
O1183 Tb1160 2.479 . S
O1183 C1170 1.238 . S
O1184 Tb1160 2.471 . S
O1184 C1170 1.247 . S
C1185 C1188 1.380 . S
C1185 C1189 1.374 . S
C1185 C1191 1.507 . S
C1186 C1187 1.387 . S
C1186 C1190 1.391 . S
C1187 C1186 1.387 . S
C1187 C1188 1.384 . S
C1187 H1196 0.930 . S
C1188 C1185 1.380 . S
C1188 C1187 1.384 . S
C1188 H1197 0.931 . S
C1189 C1185 1.374 . S
C1189 C1190 1.390 . S
C1189 H1198 0.930 . S
C1190 C1186 1.391 . S
C1190 C1189 1.390 . S
C1190 H1199 0.930 . S
C1191 Eu1161 2.825 . S
C1191 O1176 1.238 . S
C1191 O1177 1.247 . S
C1191 C1185 1.507 . S
H1192 C1165 0.930 . S
H1193 C1166 0.931 . S
H1194 C1167 0.930 . S
H1195 C1168 0.930 . S
H1196 C1187 0.930 . S
H1197 C1188 0.931 . S
H1198 C1189 0.930 . S
H1199 C1190 0.930 . S
Tb1200 C1210 2.825 . S
Tb1200 O1211 2.347 . S
Tb1200 O1214 2.366 . S
Tb1200 O1219 2.418 . S
Tb1200 O1220 2.384 . S
Tb1200 O1223 2.479 . S
Tb1200 O1224 2.471 . S
Eu1201 O1212 2.418 . S
Eu1201 O1213 2.384 . S
Eu1201 O1216 2.479 . S
Eu1201 O1217 2.471 . S
Eu1201 O1218 2.347 . S
Eu1201 O1221 2.366 . S
Eu1201 C1231 2.825 . S
C1202 O1218 1.259 . S
C1202 O1219 1.265 . S
C1203 O1220 1.255 . S
C1203 O1221 1.265 . S
C1204 C1206 1.380 . S
C1204 C1207 1.374 . S
C1204 C1210 1.507 . S
C1205 C1206 1.384 . S
C1205 C1209 1.387 . S
C1205 H1232 0.930 . S
C1206 C1204 1.380 . S
C1206 C1205 1.384 . S
C1206 H1233 0.931 . S
C1207 C1204 1.374 . S
C1207 C1208 1.390 . S
C1207 H1234 0.930 . S
C1208 C1207 1.390 . S
C1208 C1209 1.391 . S
C1208 H1235 0.930 . S
C1209 C1205 1.387 . S
C1209 C1208 1.391 . S
C1210 Tb1200 2.825 . S
C1210 C1204 1.507 . S
C1210 O1223 1.238 . S
C1210 O1224 1.247 . S
O1211 Tb1200 2.347 . S
O1211 C1215 1.259 . S
O1212 Eu1201 2.418 . S
O1212 C1215 1.265 . S
O1213 Eu1201 2.384 . S
O1213 C1222 1.255 . S
O1214 Tb1200 2.366 . S
O1214 C1222 1.265 . S
C1215 O1211 1.259 . S
C1215 O1212 1.265 . S
O1216 Eu1201 2.479 . S
O1216 C1231 1.238 . S
O1217 Eu1201 2.471 . S
O1217 C1231 1.247 . S
O1218 Eu1201 2.347 . S
O1218 C1202 1.259 . S
O1219 Tb1200 2.418 . S
O1219 C1202 1.265 . S
O1220 Tb1200 2.384 . S
O1220 C1203 1.255 . S
O1221 Eu1201 2.366 . S
O1221 C1203 1.265 . S
C1222 O1213 1.255 . S
C1222 O1214 1.265 . S
O1223 Tb1200 2.479 . S
O1223 C1210 1.238 . S
O1224 Tb1200 2.471 . S
O1224 C1210 1.247 . S
C1225 C1228 1.380 . S
C1225 C1229 1.374 . S
C1225 C1231 1.507 . S
C1226 C1227 1.387 . S
C1226 C1230 1.391 . S
C1227 C1226 1.387 . S
C1227 C1228 1.384 . S
C1227 H1236 0.930 . S
C1228 C1225 1.380 . S
C1228 C1227 1.384 . S
C1228 H1237 0.931 . S
C1229 C1225 1.374 . S
C1229 C1230 1.390 . S
C1229 H1238 0.930 . S
C1230 C1226 1.391 . S
C1230 C1229 1.390 . S
C1230 H1239 0.930 . S
C1231 Eu1201 2.825 . S
C1231 O1216 1.238 . S
C1231 O1217 1.247 . S
C1231 C1225 1.507 . S
H1232 C1205 0.930 . S
H1233 C1206 0.931 . S
H1234 C1207 0.930 . S
H1235 C1208 0.930 . S
H1236 C1227 0.930 . S
H1237 C1228 0.931 . S
H1238 C1229 0.930 . S
H1239 C1230 0.930 . S
Tb1240 C1250 2.825 . S
Tb1240 O1251 2.347 . S
Tb1240 O1254 2.366 . S
Tb1240 O1259 2.418 . S
Tb1240 O1260 2.384 . S
Tb1240 O1263 2.479 . S
Tb1240 O1264 2.471 . S
Eu1241 O1252 2.418 . S
Eu1241 O1253 2.384 . S
Eu1241 O1256 2.479 . S
Eu1241 O1257 2.471 . S
Eu1241 O1258 2.347 . S
Eu1241 O1261 2.366 . S
Eu1241 C1271 2.825 . S
C1242 O1258 1.259 . S
C1242 O1259 1.265 . S
C1243 O1260 1.255 . S
C1243 O1261 1.265 . S
C1244 C1246 1.380 . S
C1244 C1247 1.374 . S
C1244 C1250 1.507 . S
C1245 C1246 1.384 . S
C1245 C1249 1.387 . S
C1245 H1272 0.930 . S
C1246 C1244 1.380 . S
C1246 C1245 1.384 . S
C1246 H1273 0.931 . S
C1247 C1244 1.374 . S
C1247 C1248 1.390 . S
C1247 H1274 0.930 . S
C1248 C1247 1.390 . S
C1248 C1249 1.391 . S
C1248 H1275 0.930 . S
C1249 C1245 1.387 . S
C1249 C1248 1.391 . S
C1250 Tb1240 2.825 . S
C1250 C1244 1.507 . S
C1250 O1263 1.238 . S
C1250 O1264 1.247 . S
O1251 Tb1240 2.347 . S
O1251 C1255 1.259 . S
O1252 Eu1241 2.418 . S
O1252 C1255 1.265 . S
O1253 Eu1241 2.384 . S
O1253 C1262 1.255 . S
O1254 Tb1240 2.366 . S
O1254 C1262 1.265 . S
C1255 O1251 1.259 . S
C1255 O1252 1.265 . S
O1256 Eu1241 2.479 . S
O1256 C1271 1.238 . S
O1257 Eu1241 2.471 . S
O1257 C1271 1.247 . S
O1258 Eu1241 2.347 . S
O1258 C1242 1.259 . S
O1259 Tb1240 2.418 . S
O1259 C1242 1.265 . S
O1260 Tb1240 2.384 . S
O1260 C1243 1.255 . S
O1261 Eu1241 2.366 . S
O1261 C1243 1.265 . S
C1262 O1253 1.255 . S
C1262 O1254 1.265 . S
O1263 Tb1240 2.479 . S
O1263 C1250 1.238 . S
O1264 Tb1240 2.471 . S
O1264 C1250 1.247 . S
C1265 C1268 1.380 . S
C1265 C1269 1.374 . S
C1265 C1271 1.507 . S
C1266 C1267 1.387 . S
C1266 C1270 1.391 . S
C1267 C1266 1.387 . S
C1267 C1268 1.384 . S
C1267 H1276 0.930 . S
C1268 C1265 1.380 . S
C1268 C1267 1.384 . S
C1268 H1277 0.931 . S
C1269 C1265 1.374 . S
C1269 C1270 1.390 . S
C1269 H1278 0.930 . S
C1270 C1266 1.391 . S
C1270 C1269 1.390 . S
C1270 H1279 0.930 . S
C1271 Eu1241 2.825 . S
C1271 O1256 1.238 . S
C1271 O1257 1.247 . S
C1271 C1265 1.507 . S
H1272 C1245 0.930 . S
H1273 C1246 0.931 . S
H1274 C1247 0.930 . S
H1275 C1248 0.930 . S
H1276 C1267 0.930 . S
H1277 C1268 0.931 . S
H1278 C1269 0.930 . S
H1279 C1270 0.930 . S
Tb1280 C1290 2.825 . S
Tb1280 O1291 2.347 . S
Tb1280 O1294 2.366 . S
Tb1280 O1299 2.418 . S
Tb1280 O1300 2.384 . S
Tb1280 O1303 2.479 . S
Tb1280 O1304 2.471 . S
Eu1281 O1292 2.418 . S
Eu1281 O1293 2.384 . S
Eu1281 O1296 2.479 . S
Eu1281 O1297 2.471 . S
Eu1281 O1298 2.347 . S
Eu1281 O1301 2.366 . S
Eu1281 C1311 2.825 . S
C1282 O1298 1.259 . S
C1282 O1299 1.265 . S
C1283 O1300 1.255 . S
C1283 O1301 1.265 . S
C1284 C1286 1.380 . S
C1284 C1287 1.374 . S
C1284 C1290 1.507 . S
C1285 C1286 1.384 . S
C1285 C1289 1.387 . S
C1285 H1312 0.930 . S
C1286 C1284 1.380 . S
C1286 C1285 1.384 . S
C1286 H1313 0.931 . S
C1287 C1284 1.374 . S
C1287 C1288 1.390 . S
C1287 H1314 0.930 . S
C1288 C1287 1.390 . S
C1288 C1289 1.391 . S
C1288 H1315 0.930 . S
C1289 C1285 1.387 . S
C1289 C1288 1.391 . S
C1290 Tb1280 2.825 . S
C1290 C1284 1.507 . S
C1290 O1303 1.238 . S
C1290 O1304 1.247 . S
O1291 Tb1280 2.347 . S
O1291 C1295 1.259 . S
O1292 Eu1281 2.418 . S
O1292 C1295 1.265 . S
O1293 Eu1281 2.384 . S
O1293 C1302 1.255 . S
O1294 Tb1280 2.366 . S
O1294 C1302 1.265 . S
C1295 O1291 1.259 . S
C1295 O1292 1.265 . S
O1296 Eu1281 2.479 . S
O1296 C1311 1.238 . S
O1297 Eu1281 2.471 . S
O1297 C1311 1.247 . S
O1298 Eu1281 2.347 . S
O1298 C1282 1.259 . S
O1299 Tb1280 2.418 . S
O1299 C1282 1.265 . S
O1300 Tb1280 2.384 . S
O1300 C1283 1.255 . S
O1301 Eu1281 2.366 . S
O1301 C1283 1.265 . S
C1302 O1293 1.255 . S
C1302 O1294 1.265 . S
O1303 Tb1280 2.479 . S
O1303 C1290 1.238 . S
O1304 Tb1280 2.471 . S
O1304 C1290 1.247 . S
C1305 C1308 1.380 . S
C1305 C1309 1.374 . S
C1305 C1311 1.507 . S
C1306 C1307 1.387 . S
C1306 C1310 1.391 . S
C1307 C1306 1.387 . S
C1307 C1308 1.384 . S
C1307 H1316 0.930 . S
C1308 C1305 1.380 . S
C1308 C1307 1.384 . S
C1308 H1317 0.931 . S
C1309 C1305 1.374 . S
C1309 C1310 1.390 . S
C1309 H1318 0.930 . S
C1310 C1306 1.391 . S
C1310 C1309 1.390 . S
C1310 H1319 0.930 . S
C1311 Eu1281 2.825 . S
C1311 O1296 1.238 . S
C1311 O1297 1.247 . S
C1311 C1305 1.507 . S
H1312 C1285 0.930 . S
H1313 C1286 0.931 . S
H1314 C1287 0.930 . S
H1315 C1288 0.930 . S
H1316 C1307 0.930 . S
H1317 C1308 0.931 . S
H1318 C1309 0.930 . S
H1319 C1310 0.930 . S
Tb1320 C1330 2.825 . S
Tb1320 O1331 2.347 . S
Tb1320 O1334 2.366 . S
Tb1320 O1339 2.418 . S
Tb1320 O1340 2.384 . S
Tb1320 O1343 2.479 . S
Tb1320 O1344 2.471 . S
Eu1321 O1332 2.418 . S
Eu1321 O1333 2.384 . S
Eu1321 O1336 2.479 . S
Eu1321 O1337 2.471 . S
Eu1321 O1338 2.347 . S
Eu1321 O1341 2.366 . S
Eu1321 C1351 2.825 . S
C1322 O1338 1.259 . S
C1322 O1339 1.265 . S
C1323 O1340 1.255 . S
C1323 O1341 1.265 . S
C1324 C1326 1.380 . S
C1324 C1327 1.374 . S
C1324 C1330 1.507 . S
C1325 C1326 1.384 . S
C1325 C1329 1.387 . S
C1325 H1352 0.930 . S
C1326 C1324 1.380 . S
C1326 C1325 1.384 . S
C1326 H1353 0.931 . S
C1327 C1324 1.374 . S
C1327 C1328 1.390 . S
C1327 H1354 0.930 . S
C1328 C1327 1.390 . S
C1328 C1329 1.391 . S
C1328 H1355 0.930 . S
C1329 C1325 1.387 . S
C1329 C1328 1.391 . S
C1330 Tb1320 2.825 . S
C1330 C1324 1.507 . S
C1330 O1343 1.238 . S
C1330 O1344 1.247 . S
O1331 Tb1320 2.347 . S
O1331 C1335 1.259 . S
O1332 Eu1321 2.418 . S
O1332 C1335 1.265 . S
O1333 Eu1321 2.384 . S
O1333 C1342 1.255 . S
O1334 Tb1320 2.366 . S
O1334 C1342 1.265 . S
C1335 O1331 1.259 . S
C1335 O1332 1.265 . S
O1336 Eu1321 2.479 . S
O1336 C1351 1.238 . S
O1337 Eu1321 2.471 . S
O1337 C1351 1.247 . S
O1338 Eu1321 2.347 . S
O1338 C1322 1.259 . S
O1339 Tb1320 2.418 . S
O1339 C1322 1.265 . S
O1340 Tb1320 2.384 . S
O1340 C1323 1.255 . S
O1341 Eu1321 2.366 . S
O1341 C1323 1.265 . S
C1342 O1333 1.255 . S
C1342 O1334 1.265 . S
O1343 Tb1320 2.479 . S
O1343 C1330 1.238 . S
O1344 Tb1320 2.471 . S
O1344 C1330 1.247 . S
C1345 C1348 1.380 . S
C1345 C1349 1.374 . S
C1345 C1351 1.507 . S
C1346 C1347 1.387 . S
C1346 C1350 1.391 . S
C1347 C1346 1.387 . S
C1347 C1348 1.384 . S
C1347 H1356 0.930 . S
C1348 C1345 1.380 . S
C1348 C1347 1.384 . S
C1348 H1357 0.931 . S
C1349 C1345 1.374 . S
C1349 C1350 1.390 . S
C1349 H1358 0.930 . S
C1350 C1346 1.391 . S
C1350 C1349 1.390 . S
C1350 H1359 0.930 . S
C1351 Eu1321 2.825 . S
C1351 O1336 1.238 . S
C1351 O1337 1.247 . S
C1351 C1345 1.507 . S
H1352 C1325 0.930 . S
H1353 C1326 0.931 . S
H1354 C1327 0.930 . S
H1355 C1328 0.930 . S
H1356 C1347 0.930 . S
H1357 C1348 0.931 . S
H1358 C1349 0.930 . S
H1359 C1350 0.930 . S
Tb1360 C1370 2.825 . S
Tb1360 O1371 2.347 . S
Tb1360 O1374 2.366 . S
Tb1360 O1379 2.418 . S
Tb1360 O1380 2.384 . S
Tb1360 O1383 2.479 . S
Tb1360 O1384 2.471 . S
Eu1361 O1372 2.418 . S
Eu1361 O1373 2.384 . S
Eu1361 O1376 2.479 . S
Eu1361 O1377 2.471 . S
Eu1361 O1378 2.347 . S
Eu1361 O1381 2.366 . S
Eu1361 C1391 2.825 . S
C1362 O1378 1.259 . S
C1362 O1379 1.265 . S
C1363 O1380 1.255 . S
C1363 O1381 1.265 . S
C1364 C1366 1.380 . S
C1364 C1367 1.374 . S
C1364 C1370 1.507 . S
C1365 C1366 1.384 . S
C1365 C1369 1.387 . S
C1365 H1392 0.930 . S
C1366 C1364 1.380 . S
C1366 C1365 1.384 . S
C1366 H1393 0.931 . S
C1367 C1364 1.374 . S
C1367 C1368 1.390 . S
C1367 H1394 0.930 . S
C1368 C1367 1.390 . S
C1368 C1369 1.391 . S
C1368 H1395 0.930 . S
C1369 C1365 1.387 . S
C1369 C1368 1.391 . S
C1370 Tb1360 2.825 . S
C1370 C1364 1.507 . S
C1370 O1383 1.238 . S
C1370 O1384 1.247 . S
O1371 Tb1360 2.347 . S
O1371 C1375 1.259 . S
O1372 Eu1361 2.418 . S
O1372 C1375 1.265 . S
O1373 Eu1361 2.384 . S
O1373 C1382 1.255 . S
O1374 Tb1360 2.366 . S
O1374 C1382 1.265 . S
C1375 O1371 1.259 . S
C1375 O1372 1.265 . S
O1376 Eu1361 2.479 . S
O1376 C1391 1.238 . S
O1377 Eu1361 2.471 . S
O1377 C1391 1.247 . S
O1378 Eu1361 2.347 . S
O1378 C1362 1.259 . S
O1379 Tb1360 2.418 . S
O1379 C1362 1.265 . S
O1380 Tb1360 2.384 . S
O1380 C1363 1.255 . S
O1381 Eu1361 2.366 . S
O1381 C1363 1.265 . S
C1382 O1373 1.255 . S
C1382 O1374 1.265 . S
O1383 Tb1360 2.479 . S
O1383 C1370 1.238 . S
O1384 Tb1360 2.471 . S
O1384 C1370 1.247 . S
C1385 C1388 1.380 . S
C1385 C1389 1.374 . S
C1385 C1391 1.507 . S
C1386 C1387 1.387 . S
C1386 C1390 1.391 . S
C1387 C1386 1.387 . S
C1387 C1388 1.384 . S
C1387 H1396 0.930 . S
C1388 C1385 1.380 . S
C1388 C1387 1.384 . S
C1388 H1397 0.931 . S
C1389 C1385 1.374 . S
C1389 C1390 1.390 . S
C1389 H1398 0.930 . S
C1390 C1386 1.391 . S
C1390 C1389 1.390 . S
C1390 H1399 0.930 . S
C1391 Eu1361 2.825 . S
C1391 O1376 1.238 . S
C1391 O1377 1.247 . S
C1391 C1385 1.507 . S
H1392 C1365 0.930 . S
H1393 C1366 0.931 . S
H1394 C1367 0.930 . S
H1395 C1368 0.930 . S
H1396 C1387 0.930 . S
H1397 C1388 0.931 . S
H1398 C1389 0.930 . S
H1399 C1390 0.930 . S
Tb1400 C1410 2.825 . S
Tb1400 O1411 2.347 . S
Tb1400 O1414 2.366 . S
Tb1400 O1419 2.418 . S
Tb1400 O1420 2.384 . S
Tb1400 O1423 2.479 . S
Tb1400 O1424 2.471 . S
Eu1401 O1412 2.418 . S
Eu1401 O1413 2.384 . S
Eu1401 O1416 2.479 . S
Eu1401 O1417 2.471 . S
Eu1401 O1418 2.347 . S
Eu1401 O1421 2.366 . S
Eu1401 C1431 2.825 . S
C1402 O1418 1.259 . S
C1402 O1419 1.265 . S
C1403 O1420 1.255 . S
C1403 O1421 1.265 . S
C1404 C1406 1.380 . S
C1404 C1407 1.374 . S
C1404 C1410 1.507 . S
C1405 C1406 1.384 . S
C1405 C1409 1.387 . S
C1405 H1432 0.930 . S
C1406 C1404 1.380 . S
C1406 C1405 1.384 . S
C1406 H1433 0.931 . S
C1407 C1404 1.374 . S
C1407 C1408 1.390 . S
C1407 H1434 0.930 . S
C1408 C1407 1.390 . S
C1408 C1409 1.391 . S
C1408 H1435 0.930 . S
C1409 C1405 1.387 . S
C1409 C1408 1.391 . S
C1410 Tb1400 2.825 . S
C1410 C1404 1.507 . S
C1410 O1423 1.238 . S
C1410 O1424 1.247 . S
O1411 Tb1400 2.347 . S
O1411 C1415 1.259 . S
O1412 Eu1401 2.418 . S
O1412 C1415 1.265 . S
O1413 Eu1401 2.384 . S
O1413 C1422 1.255 . S
O1414 Tb1400 2.366 . S
O1414 C1422 1.265 . S
C1415 O1411 1.259 . S
C1415 O1412 1.265 . S
O1416 Eu1401 2.479 . S
O1416 C1431 1.238 . S
O1417 Eu1401 2.471 . S
O1417 C1431 1.247 . S
O1418 Eu1401 2.347 . S
O1418 C1402 1.259 . S
O1419 Tb1400 2.418 . S
O1419 C1402 1.265 . S
O1420 Tb1400 2.384 . S
O1420 C1403 1.255 . S
O1421 Eu1401 2.366 . S
O1421 C1403 1.265 . S
C1422 O1413 1.255 . S
C1422 O1414 1.265 . S
O1423 Tb1400 2.479 . S
O1423 C1410 1.238 . S
O1424 Tb1400 2.471 . S
O1424 C1410 1.247 . S
C1425 C1428 1.380 . S
C1425 C1429 1.374 . S
C1425 C1431 1.507 . S
C1426 C1427 1.387 . S
C1426 C1430 1.391 . S
C1427 C1426 1.387 . S
C1427 C1428 1.384 . S
C1427 H1436 0.930 . S
C1428 C1425 1.380 . S
C1428 C1427 1.384 . S
C1428 H1437 0.931 . S
C1429 C1425 1.374 . S
C1429 C1430 1.390 . S
C1429 H1438 0.930 . S
C1430 C1426 1.391 . S
C1430 C1429 1.390 . S
C1430 H1439 0.930 . S
C1431 Eu1401 2.825 . S
C1431 O1416 1.238 . S
C1431 O1417 1.247 . S
C1431 C1425 1.507 . S
H1432 C1405 0.930 . S
H1433 C1406 0.931 . S
H1434 C1407 0.930 . S
H1435 C1408 0.930 . S
H1436 C1427 0.930 . S
H1437 C1428 0.931 . S
H1438 C1429 0.930 . S
H1439 C1430 0.930 . S
H1440 C1448 0.929 . S
H1441 C1450 0.930 . S
H1442 C1452 0.930 . S
H1443 C1455 0.929 . S
H1444 C1458 0.930 . S
H1445 C1460 0.960 . S
H1446 C1460 0.960 . S
H1447 C1460 0.960 . S
C1448 H1440 0.929 . S
C1448 C1449 1.377 . S
C1448 C1450 1.384 . S
C1449 C1448 1.377 . S
C1449 C1455 1.390 . S
C1450 H1441 0.930 . S
C1450 C1448 1.384 . S
C1450 C1451 1.372 . S
C1451 C1450 1.372 . S
C1451 C1452 1.400 . S
C1451 C1456 1.490 . S
C1452 H1442 0.930 . S
C1452 C1451 1.400 . S
C1452 C1455 1.386 . S
H1453 C1469 0.930 . S
H1454 C1470 0.931 . S
C1455 H1443 0.929 . S
C1455 C1449 1.390 . S
C1455 C1452 1.386 . S
C1456 C1451 1.490 . S
C1456 C1458 1.395 . S
C1456 C1459 1.403 . S
H1457 C1463 0.930 . S
C1458 H1444 0.930 . S
C1458 C1456 1.395 . S
C1458 C1461 1.403 . S
C1459 C1456 1.403 . S
C1459 C1460 1.524 . S
C1459 C1463 1.400 . S
C1460 H1445 0.960 . S
C1460 H1446 0.960 . S
C1460 H1447 0.960 . S
C1460 C1459 1.524 . S
C1461 C1458 1.403 . S
C1461 C1462 1.392 . S
C1461 C1465 1.495 . S
C1462 C1461 1.392 . S
C1462 C1463 1.385 . S
C1462 C1464 1.478 . S
C1463 H1457 0.930 . S
C1463 C1459 1.400 . S
C1463 C1462 1.385 . S
C1464 C1462 1.478 . S
C1464 C1466 1.381 . S
C1464 C1470 1.383 . S
C1465 C1461 1.495 . S
C1465 H1471 0.959 . S
C1465 H1472 0.996 . S
C1465 H1473 0.960 . S
C1466 C1464 1.381 . S
C1466 C1467 1.394 . S
C1466 H1474 0.930 . S
C1467 C1466 1.394 . S
C1467 C1468 1.383 . S
C1467 H1475 0.929 . S
C1468 C1467 1.383 . S
C1468 C1469 1.377 . S
C1469 H1453 0.930 . S
C1469 C1468 1.377 . S
C1469 C1470 1.379 . S
C1470 H1454 0.931 . S
C1470 C1464 1.383 . S
C1470 C1469 1.379 . S
H1471 C1465 0.959 . S
H1472 C1465 0.996 . S
H1473 C1465 0.960 . S
H1474 C1466 0.930 . S
H1475 C1467 0.929 . S
H1476 C1484 0.929 . S
H1477 C1486 0.930 . S
H1478 C1488 0.930 . S
H1479 C1491 0.929 . S
H1480 C1494 0.930 . S
H1481 C1496 0.960 . S
H1482 C1496 0.960 . S
H1483 C1496 0.960 . S
C1484 H1476 0.929 . S
C1484 C1485 1.377 . S
C1484 C1486 1.384 . S
C1485 C1484 1.377 . S
C1485 C1491 1.390 . S
C1486 H1477 0.930 . S
C1486 C1484 1.384 . S
C1486 C1487 1.372 . S
C1487 C1486 1.372 . S
C1487 C1488 1.400 . S
C1487 C1492 1.490 . S
C1488 H1478 0.930 . S
C1488 C1487 1.400 . S
C1488 C1491 1.386 . S
H1489 C1505 0.930 . S
H1490 C1506 0.931 . S
C1491 H1479 0.929 . S
C1491 C1485 1.390 . S
C1491 C1488 1.386 . S
C1492 C1487 1.490 . S
C1492 C1494 1.395 . S
C1492 C1495 1.403 . S
H1493 C1499 0.930 . S
C1494 H1480 0.930 . S
C1494 C1492 1.395 . S
C1494 C1497 1.403 . S
C1495 C1492 1.403 . S
C1495 C1496 1.524 . S
C1495 C1499 1.400 . S
C1496 H1481 0.960 . S
C1496 H1482 0.960 . S
C1496 H1483 0.960 . S
C1496 C1495 1.524 . S
C1497 C1494 1.403 . S
C1497 C1498 1.392 . S
C1497 C1501 1.495 . S
C1498 C1497 1.392 . S
C1498 C1499 1.385 . S
C1498 C1500 1.478 . S
C1499 H1493 0.930 . S
C1499 C1495 1.400 . S
C1499 C1498 1.385 . S
C1500 C1498 1.478 . S
C1500 C1502 1.381 . S
C1500 C1506 1.383 . S
C1501 C1497 1.495 . S
C1501 H1507 0.959 . S
C1501 H1508 0.961 . S
C1501 H1509 0.960 . S
C1502 C1500 1.381 . S
C1502 C1503 1.394 . S
C1502 H1510 0.930 . S
C1503 C1502 1.394 . S
C1503 C1504 1.383 . S
C1503 H1511 0.929 . S
C1504 C1503 1.383 . S
C1504 C1505 1.377 . S
C1505 H1489 0.930 . S
C1505 C1504 1.377 . S
C1505 C1506 1.379 . S
C1506 H1490 0.931 . S
C1506 C1500 1.383 . S
C1506 C1505 1.379 . S
H1507 C1501 0.959 . S
H1508 C1501 0.961 . S
H1509 C1501 0.960 . S
H1510 C1502 0.930 . S
H1511 C1503 0.929 . S
H1512 C1520 0.929 . S
H1513 C1522 0.930 . S
H1514 C1524 0.930 . S
H1515 C1527 0.929 . S
H1516 C1530 0.930 . S
H1517 C1532 0.960 . S
H1518 C1532 0.960 . S
H1519 C1532 0.960 . S
C1520 H1512 0.929 . S
C1520 C1521 1.377 . S
C1520 C1522 1.384 . S
C1521 C1520 1.377 . S
C1521 C1527 1.390 . S
C1522 H1513 0.930 . S
C1522 C1520 1.384 . S
C1522 C1523 1.372 . S
C1523 C1522 1.372 . S
C1523 C1524 1.400 . S
C1523 C1528 1.490 . S
C1524 H1514 0.930 . S
C1524 C1523 1.400 . S
C1524 C1527 1.386 . S
H1525 C1541 0.930 1_556 S
H1526 C1542 0.931 . S
C1527 H1515 0.929 . S
C1527 C1521 1.390 . S
C1527 C1524 1.386 . S
C1528 C1523 1.490 . S
C1528 C1530 1.395 . S
C1528 C1531 1.403 . S
H1529 C1535 0.930 . S
C1530 H1516 0.930 . S
C1530 C1528 1.395 . S
C1530 C1533 1.403 . S
C1531 C1528 1.403 . S
C1531 C1532 1.524 . S
C1531 C1535 1.400 . S
C1532 H1517 0.960 . S
C1532 H1518 0.960 . S
C1532 H1519 0.960 . S
C1532 C1531 1.524 . S
C1533 C1530 1.403 . S
C1533 C1534 1.392 . S
C1533 C1537 1.495 . S
C1534 C1533 1.392 . S
C1534 C1535 1.385 . S
C1534 C1536 1.478 . S
C1535 H1529 0.930 . S
C1535 C1531 1.400 . S
C1535 C1534 1.385 . S
C1536 C1534 1.478 . S
C1536 C1538 1.381 . S
C1536 C1542 1.383 . S
C1537 C1533 1.495 . S
C1537 H1543 0.959 . S
C1537 H1544 0.961 . S
C1537 H1545 0.960 . S
C1538 C1536 1.381 . S
C1538 C1539 1.394 . S
C1538 H1546 0.930 . S
C1539 C1538 1.394 . S
C1539 C1540 1.383 . S
C1539 H1547 0.929 . S
C1540 C1539 1.383 . S
C1540 C1541 1.377 . S
C1541 H1525 0.930 1_554 S
C1541 C1540 1.377 . S
C1541 C1542 1.379 . S
C1542 H1526 0.931 . S
C1542 C1536 1.383 . S
C1542 C1541 1.379 . S
H1543 C1537 0.959 . S
H1544 C1537 0.961 . S
H1545 C1537 0.960 . S
H1546 C1538 0.930 . S
H1547 C1539 0.929 . S
H1548 C1556 0.929 . S
H1549 C1558 0.930 . S
H1550 C1560 0.930 . S
H1551 C1563 0.929 . S
H1552 C1566 0.930 . S
H1553 C1568 0.960 . S
H1554 C1568 0.960 . S
H1555 C1568 0.960 . S
C1556 H1548 0.929 . S
C1556 C1557 1.377 . S
C1556 C1558 1.384 . S
C1557 C1556 1.377 . S
C1557 C1563 1.390 . S
C1558 H1549 0.930 . S
C1558 C1556 1.384 . S
C1558 C1559 1.372 . S
C1559 C1558 1.372 . S
C1559 C1560 1.400 . S
C1559 C1564 1.490 . S
C1560 H1550 0.930 . S
C1560 C1559 1.400 . S
C1560 C1563 1.386 . S
H1561 C1577 0.930 1_554 S
H1562 C1578 0.931 . S
C1563 H1551 0.929 . S
C1563 C1557 1.390 . S
C1563 C1560 1.386 . S
C1564 C1559 1.490 . S
C1564 C1566 1.395 . S
C1564 C1567 1.403 . S
H1565 C1571 0.930 . S
C1566 H1552 0.930 . S
C1566 C1564 1.395 . S
C1566 C1569 1.403 . S
C1567 C1564 1.403 . S
C1567 C1568 1.524 . S
C1567 C1571 1.400 . S
C1568 H1553 0.960 . S
C1568 H1554 0.960 . S
C1568 H1555 0.960 . S
C1568 C1567 1.524 . S
C1569 C1566 1.403 . S
C1569 C1570 1.392 . S
C1569 C1573 1.495 . S
C1570 C1569 1.392 . S
C1570 C1571 1.385 . S
C1570 C1572 1.478 . S
C1571 H1565 0.930 . S
C1571 C1567 1.400 . S
C1571 C1570 1.385 . S
C1572 C1570 1.478 . S
C1572 C1574 1.381 . S
C1572 C1578 1.383 . S
C1573 C1569 1.495 . S
C1573 H1579 0.959 . S
C1573 H1580 0.961 . S
C1573 H1581 0.960 . S
C1574 C1572 1.381 . S
C1574 C1575 1.394 . S
C1574 H1582 0.930 . S
C1575 C1574 1.394 . S
C1575 C1576 1.383 . S
C1575 H1583 0.929 . S
C1576 C1575 1.383 . S
C1576 C1577 1.377 . S
C1577 H1561 0.930 1_556 S
C1577 C1576 1.377 . S
C1577 C1578 1.379 . S
C1578 H1562 0.931 . S
C1578 C1572 1.383 . S
C1578 C1577 1.379 . S
H1579 C1573 0.959 . S
H1580 C1573 0.961 . S
H1581 C1573 0.960 . S
H1582 C1574 0.930 . S
H1583 C1575 0.929 . S
H1584 C1592 0.929 . S
H1585 C1594 0.930 . S
H1586 C1596 0.930 . S
H1587 C1599 0.929 . S
H1588 C1602 0.930 . S
H1589 C1604 0.960 . S
H1590 C1604 0.960 . S
H1591 C1604 0.960 . S
C1592 H1584 0.929 . S
C1592 C1593 1.377 . S
C1592 C1594 1.384 . S
C1593 C1592 1.377 . S
C1593 C1599 1.390 . S
C1594 H1585 0.930 . S
C1594 C1592 1.384 . S
C1594 C1595 1.372 . S
C1595 C1594 1.372 . S
C1595 C1596 1.400 . S
C1595 C1600 1.490 . S
C1596 H1586 0.930 . S
C1596 C1595 1.400 . S
C1596 C1599 1.386 . S
H1597 C1613 0.930 . S
H1598 C1614 0.931 . S
C1599 H1587 0.929 . S
C1599 C1593 1.390 . S
C1599 C1596 1.386 . S
C1600 C1595 1.490 . S
C1600 C1602 1.395 . S
C1600 C1603 1.403 . S
H1601 C1607 0.930 . S
C1602 H1588 0.930 . S
C1602 C1600 1.395 . S
C1602 C1605 1.403 . S
C1603 C1600 1.403 . S
C1603 C1604 1.524 . S
C1603 C1607 1.400 . S
C1604 H1589 0.960 . S
C1604 H1590 0.960 . S
C1604 H1591 0.960 . S
C1604 C1603 1.524 . S
C1605 C1602 1.403 . S
C1605 C1606 1.392 . S
C1605 C1609 1.495 . S
C1606 C1605 1.392 . S
C1606 C1607 1.385 . S
C1606 C1608 1.478 . S
C1607 H1601 0.930 . S
C1607 C1603 1.400 . S
C1607 C1606 1.385 . S
C1608 C1606 1.478 . S
C1608 C1610 1.381 . S
C1608 C1614 1.383 . S
C1609 C1605 1.495 . S
C1609 H1615 0.959 . S
C1609 H1616 0.961 . S
C1609 H1617 0.960 . S
C1610 C1608 1.381 . S
C1610 C1611 1.394 . S
C1610 H1618 0.930 . S
C1611 C1610 1.394 . S
C1611 C1612 1.383 . S
C1611 H1619 1.018 . S
C1612 C1611 1.383 . S
C1612 C1613 1.377 . S
C1613 H1597 0.930 . S
C1613 C1612 1.377 . S
C1613 C1614 1.379 . S
C1614 H1598 0.931 . S
C1614 C1608 1.383 . S
C1614 C1613 1.379 . S
H1615 C1609 0.959 . S
H1616 C1609 0.961 . S
H1617 C1609 0.960 . S
H1618 C1610 0.930 . S
H1619 C1611 1.018 . S
H1620 C1628 0.929 . S
H1621 C1630 0.930 . S
H1622 C1632 0.930 . S
H1623 C1635 0.929 . S
H1624 C1638 0.930 . S
H1625 C1640 0.960 . S
H1626 C1640 0.960 . S
H1627 C1640 0.960 . S
C1628 H1620 0.929 . S
C1628 C1629 1.377 . S
C1628 C1630 1.384 . S
C1629 C1628 1.377 . S
C1629 C1635 1.390 . S
C1630 H1621 0.930 . S
C1630 C1628 1.384 . S
C1630 C1631 1.372 . S
C1631 C1630 1.372 . S
C1631 C1632 1.400 . S
C1631 C1636 1.490 . S
C1632 H1622 0.930 . S
C1632 C1631 1.400 . S
C1632 C1635 1.386 . S
H1633 C1649 1.016 . S
H1634 C1650 0.931 1_554 S
C1635 H1623 0.929 . S
C1635 C1629 1.390 . S
C1635 C1632 1.386 . S
C1636 C1631 1.490 . S
C1636 C1638 1.395 . S
C1636 C1639 1.403 . S
H1637 C1643 0.930 . S
C1638 H1624 0.930 . S
C1638 C1636 1.395 . S
C1638 C1641 1.403 . S
C1639 C1636 1.403 . S
C1639 C1640 1.524 . S
C1639 C1643 1.400 . S
C1640 H1625 0.960 . S
C1640 H1626 0.960 . S
C1640 H1627 0.960 . S
C1640 C1639 1.524 . S
C1641 C1638 1.403 . S
C1641 C1642 1.392 . S
C1641 C1645 1.495 . S
C1642 C1641 1.392 . S
C1642 C1643 1.385 . S
C1642 C1644 1.478 . S
C1643 H1637 0.930 . S
C1643 C1639 1.400 . S
C1643 C1642 1.385 . S
C1644 C1642 1.478 . S
C1644 C1646 1.381 . S
C1644 C1650 1.383 . S
C1645 C1641 1.495 . S
C1645 H1651 0.959 . S
C1645 H1652 0.961 . S
C1645 H1653 0.960 . S
C1646 C1644 1.381 . S
C1646 C1647 1.394 . S
C1646 H1654 0.930 . S
C1647 C1646 1.394 . S
C1647 C1648 1.383 . S
C1647 H1655 0.929 . S
C1648 C1647 1.383 . S
C1648 C1649 1.319 1_556 S
C1649 H1633 1.016 . S
C1649 C1648 1.319 1_554 S
C1649 C1650 1.356 1_554 S
C1650 H1634 0.931 1_556 S
C1650 C1644 1.383 . S
C1650 C1649 1.356 1_556 S
H1651 C1645 0.959 . S
H1652 C1645 0.961 . S
H1653 C1645 0.960 . S
H1654 C1646 0.930 . S
H1655 C1647 0.929 . S
H1656 C1664 0.929 . S
H1657 C1666 0.930 . S
H1658 C1668 0.930 . S
H1659 C1671 0.929 . S
H1660 C1674 0.930 . S
H1661 C1676 0.960 . S
H1662 C1676 0.960 . S
H1663 C1676 0.960 . S
C1664 H1656 0.929 . S
C1664 C1665 1.377 . S
C1664 C1666 1.384 . S
C1665 C1664 1.377 . S
C1665 C1671 1.390 . S
C1666 H1657 0.930 . S
C1666 C1664 1.384 . S
C1666 C1667 1.372 . S
C1667 C1666 1.372 . S
C1667 C1668 1.400 . S
C1667 C1672 1.490 . S
C1668 H1658 0.930 . S
C1668 C1667 1.400 . S
C1668 C1671 1.386 . S
H1669 C1685 0.930 . S
H1670 C1686 0.931 . S
C1671 H1659 0.929 . S
C1671 C1665 1.390 . S
C1671 C1668 1.386 . S
C1672 C1667 1.490 . S
C1672 C1674 1.395 . S
C1672 C1675 1.403 . S
H1673 C1679 0.930 . S
C1674 H1660 0.930 . S
C1674 C1672 1.395 . S
C1674 C1677 1.403 . S
C1675 C1672 1.403 . S
C1675 C1676 1.524 . S
C1675 C1679 1.400 . S
C1676 H1661 0.960 . S
C1676 H1662 0.960 . S
C1676 H1663 0.960 . S
C1676 C1675 1.524 . S
C1677 C1674 1.403 . S
C1677 C1678 1.392 . S
C1677 C1681 1.495 . S
C1678 C1677 1.392 . S
C1678 C1679 1.385 . S
C1678 C1680 1.478 . S
C1679 H1673 0.930 . S
C1679 C1675 1.400 . S
C1679 C1678 1.385 . S
C1680 C1678 1.478 . S
C1680 C1682 1.381 . S
C1680 C1686 1.383 . S
C1681 C1677 1.495 . S
C1681 H1687 0.959 . S
C1681 H1688 0.961 . S
C1681 H1689 0.960 . S
C1682 C1680 1.381 . S
C1682 C1683 1.394 . S
C1682 H1690 0.930 . S
C1683 C1682 1.394 . S
C1683 C1684 1.383 . S
C1683 H1691 0.929 . S
C1684 C1683 1.383 . S
C1684 C1685 1.377 . S
C1685 H1669 0.930 . S
C1685 C1684 1.377 . S
C1685 C1686 1.379 . S
C1686 H1670 0.931 . S
C1686 C1680 1.383 . S
C1686 C1685 1.379 . S
H1687 C1681 0.959 . S
H1688 C1681 0.961 . S
H1689 C1681 0.960 . S
H1690 C1682 0.930 . S
H1691 C1683 0.929 . S
H1692 C1700 0.929 . S
H1693 C1702 0.930 . S
H1694 C1704 0.930 . S
H1695 C1707 0.929 . S
H1696 C1710 0.930 . S
H1697 C1712 0.960 . S
H1698 C1712 0.960 . S
H1699 C1712 0.960 . S
C1700 H1692 0.929 . S
C1700 C1701 1.377 . S
C1700 C1702 1.384 . S
C1701 C1700 1.377 . S
C1701 C1707 1.390 . S
C1702 H1693 0.930 . S
C1702 C1700 1.384 . S
C1702 C1703 1.372 . S
C1703 C1702 1.372 . S
C1703 C1704 1.400 . S
C1703 C1708 1.490 . S
C1704 H1694 0.930 . S
C1704 C1703 1.400 . S
C1704 C1707 1.386 . S
H1705 C1721 0.930 . S
H1706 C1722 0.931 . S
C1707 H1695 0.929 . S
C1707 C1701 1.390 . S
C1707 C1704 1.386 . S
C1708 C1703 1.490 . S
C1708 C1710 1.395 . S
C1708 C1711 1.403 . S
H1709 C1715 0.930 . S
C1710 H1696 0.930 . S
C1710 C1708 1.395 . S
C1710 C1713 1.403 . S
C1711 C1708 1.403 . S
C1711 C1712 1.524 . S
C1711 C1715 1.400 . S
C1712 H1697 0.960 . S
C1712 H1698 0.960 . S
C1712 H1699 0.960 . S
C1712 C1711 1.524 . S
C1713 C1710 1.403 . S
C1713 C1714 1.392 . S
C1713 C1717 1.495 . S
C1714 C1713 1.392 . S
C1714 C1715 1.385 . S
C1714 C1716 1.478 . S
C1715 H1709 0.930 . S
C1715 C1711 1.400 . S
C1715 C1714 1.385 . S
C1716 C1714 1.478 . S
C1716 C1718 1.381 . S
C1716 C1722 1.383 . S
C1717 C1713 1.495 . S
C1717 H1723 0.959 . S
C1717 H1724 0.961 . S
C1717 H1725 0.960 . S
C1718 C1716 1.381 . S
C1718 C1719 1.394 . S
C1718 H1726 0.930 . S
C1719 C1718 1.394 . S
C1719 C1720 1.383 . S
C1719 H1727 0.929 . S
C1720 C1719 1.383 . S
C1720 C1721 1.377 . S
C1721 H1705 0.930 . S
C1721 C1720 1.377 . S
C1721 C1722 1.379 . S
C1722 H1706 0.931 . S
C1722 C1716 1.383 . S
C1722 C1721 1.379 . S
H1723 C1717 0.959 . S
H1724 C1717 0.961 . S
H1725 C1717 0.960 . S
H1726 C1718 0.930 . S
H1727 C1719 0.929 . S
H1728 C1736 0.929 . S
H1729 C1738 0.930 . S
H1730 C1740 0.930 . S
H1731 C1743 0.929 . S
H1732 C1746 0.930 . S
H1733 C1748 0.960 . S
H1734 C1748 0.960 . S
H1735 C1748 0.960 . S
C1736 H1728 0.929 . S
C1736 C1737 1.377 . S
C1736 C1738 1.384 . S
C1737 C1736 1.377 . S
C1737 C1743 1.390 . S
C1738 H1729 0.930 . S
C1738 C1736 1.384 . S
C1738 C1739 1.372 . S
C1739 C1738 1.372 . S
C1739 C1740 1.400 . S
C1739 C1744 1.490 . S
C1740 H1730 0.930 . S
C1740 C1739 1.400 . S
C1740 C1743 1.386 . S
H1741 C1757 0.930 1_554 S
H1742 C1758 0.931 1_554 S
C1743 H1731 0.929 . S
C1743 C1737 1.390 . S
C1743 C1740 1.386 . S
C1744 C1739 1.490 . S
C1744 C1746 1.395 . S
C1744 C1747 1.403 . S
H1745 C1751 0.930 . S
C1746 H1732 0.930 . S
C1746 C1744 1.395 . S
C1746 C1749 1.403 . S
C1747 C1744 1.403 . S
C1747 C1748 1.524 . S
C1747 C1751 1.400 . S
C1748 H1733 0.960 . S
C1748 H1734 0.960 . S
C1748 H1735 0.960 . S
C1748 C1747 1.524 . S
C1749 C1746 1.403 . S
C1749 C1750 1.392 . S
C1749 C1753 1.495 . S
C1750 C1749 1.392 . S
C1750 C1751 1.385 . S
C1750 C1752 1.478 . S
C1751 H1745 0.930 . S
C1751 C1747 1.400 . S
C1751 C1750 1.385 . S
C1752 C1750 1.478 . S
C1752 C1754 1.381 . S
C1752 C1758 1.383 . S
C1753 C1749 1.495 . S
C1753 H1759 0.959 . S
C1753 H1760 0.961 . S
C1753 H1761 0.960 . S
C1754 C1752 1.381 . S
C1754 C1755 1.394 . S
C1754 H1762 0.930 . S
C1755 C1754 1.394 . S
C1755 C1756 1.383 . S
C1755 H1763 0.929 . S
C1756 C1755 1.383 . S
C1756 C1757 1.377 . S
C1757 H1741 0.930 1_556 S
C1757 C1756 1.377 . S
C1757 C1758 1.379 . S
C1758 H1742 0.931 1_556 S
C1758 C1752 1.383 . S
C1758 C1757 1.379 . S
H1759 C1753 0.959 . S
H1760 C1753 0.961 . S
H1761 C1753 0.960 . S
H1762 C1754 0.930 . S
H1763 C1755 0.929 . S
H1764 C1772 0.929 . S
H1765 C1774 0.930 . S
H1766 C1776 0.930 . S
H1767 C1779 0.929 . S
H1768 C1782 0.930 . S
H1769 C1784 0.960 . S
H1770 C1784 0.960 . S
H1771 C1784 0.960 . S
C1772 H1764 0.929 . S
C1772 C1773 1.377 . S
C1772 C1774 1.384 . S
C1773 C1772 1.377 . S
C1773 C1779 1.390 . S
C1774 H1765 0.930 . S
C1774 C1772 1.384 . S
C1774 C1775 1.372 . S
C1775 C1774 1.372 . S
C1775 C1776 1.400 . S
C1775 C1780 1.490 . S
C1776 H1766 0.930 . S
C1776 C1775 1.400 . S
C1776 C1779 1.386 . S
H1777 C1793 0.930 . S
H1778 C1794 0.931 . S
C1779 H1767 0.929 . S
C1779 C1773 1.390 . S
C1779 C1776 1.386 . S
C1780 C1775 1.490 . S
C1780 C1782 1.395 . S
C1780 C1783 1.403 . S
H1781 C1787 0.930 . S
C1782 H1768 0.930 . S
C1782 C1780 1.395 . S
C1782 C1785 1.403 . S
C1783 C1780 1.403 . S
C1783 C1784 1.524 . S
C1783 C1787 1.400 . S
C1784 H1769 0.960 . S
C1784 H1770 0.960 . S
C1784 H1771 0.960 . S
C1784 C1783 1.524 . S
C1785 C1782 1.403 . S
C1785 C1786 1.392 . S
C1785 C1789 1.495 . S
C1786 C1785 1.392 . S
C1786 C1787 1.385 . S
C1786 C1788 1.478 . S
C1787 H1781 0.930 . S
C1787 C1783 1.400 . S
C1787 C1786 1.385 . S
C1788 C1786 1.478 . S
C1788 C1790 1.381 . S
C1788 C1794 1.383 . S
C1789 C1785 1.495 . S
C1789 H1795 0.959 . S
C1789 H1796 0.961 . S
C1789 H1797 0.960 . S
C1790 C1788 1.381 . S
C1790 C1791 1.394 . S
C1790 H1798 0.930 . S
C1791 C1790 1.394 . S
C1791 C1792 1.383 . S
C1791 H1799 0.929 . S
C1792 C1791 1.383 . S
C1792 C1793 1.377 . S
C1793 H1777 0.930 . S
C1793 C1792 1.377 . S
C1793 C1794 1.379 . S
C1794 H1778 0.931 . S
C1794 C1788 1.383 . S
C1794 C1793 1.379 . S
H1795 C1789 0.959 . S
H1796 C1789 0.961 . S
H1797 C1789 0.960 . S
H1798 C1790 0.930 . S
H1799 C1791 0.929 . S
H1800 C1808 0.929 . S
H1801 C1810 0.930 . S
H1802 C1812 0.930 . S
H1803 C1815 0.929 . S
H1804 C1818 0.930 . S
H1805 C1820 0.960 . S
H1806 C1820 0.960 . S
H1807 C1820 0.960 . S
C1808 H1800 0.929 . S
C1808 C1809 1.377 . S
C1808 C1810 1.384 . S
C1809 C1808 1.377 . S
C1809 C1815 1.390 . S
C1810 H1801 0.930 . S
C1810 C1808 1.384 . S
C1810 C1811 1.372 . S
C1811 C1810 1.372 . S
C1811 C1812 1.400 . S
C1811 C1816 1.490 . S
C1812 H1802 0.930 . S
C1812 C1811 1.400 . S
C1812 C1815 1.386 . S
H1813 C1829 0.930 . S
H1814 C1830 0.931 . S
C1815 H1803 0.929 . S
C1815 C1809 1.390 . S
C1815 C1812 1.386 . S
C1816 C1811 1.490 . S
C1816 C1818 1.395 . S
C1816 C1819 1.403 . S
H1817 C1823 0.930 . S
C1818 H1804 0.930 . S
C1818 C1816 1.395 . S
C1818 C1821 1.403 . S
C1819 C1816 1.403 . S
C1819 C1820 1.524 . S
C1819 C1823 1.400 . S
C1820 H1805 0.960 . S
C1820 H1806 0.960 . S
C1820 H1807 0.960 . S
C1820 C1819 1.524 . S
C1821 C1818 1.403 . S
C1821 C1822 1.392 . S
C1821 C1825 1.495 . S
C1822 C1821 1.392 . S
C1822 C1823 1.385 . S
C1822 C1824 1.478 . S
C1823 H1817 0.930 . S
C1823 C1819 1.400 . S
C1823 C1822 1.385 . S
C1824 C1822 1.478 . S
C1824 C1826 1.381 . S
C1824 C1830 1.383 . S
C1825 C1821 1.495 . S
C1825 H1831 0.959 . S
C1825 H1832 0.961 . S
C1825 H1833 0.960 . S
C1826 C1824 1.381 . S
C1826 C1827 1.394 . S
C1826 H1834 0.930 . S
C1827 C1826 1.394 . S
C1827 C1828 1.383 . S
C1827 H1835 0.929 . S
C1828 C1827 1.383 . S
C1828 C1829 1.377 . S
C1829 H1813 0.930 . S
C1829 C1828 1.377 . S
C1829 C1830 1.379 . S
C1830 H1814 0.931 . S
C1830 C1824 1.383 . S
C1830 C1829 1.379 . S
H1831 C1825 0.959 . S
H1832 C1825 0.961 . S
H1833 C1825 0.960 . S
H1834 C1826 0.930 . S
H1835 C1827 0.929 . S
H1836 C1844 0.929 . S
H1837 C1846 0.930 . S
H1838 C1848 0.930 . S
H1839 C1851 0.929 . S
H1840 C1854 0.930 . S
H1841 C1856 0.960 . S
H1842 C1856 0.960 . S
H1843 C1856 0.960 . S
C1844 H1836 0.929 . S
C1844 C1845 1.377 . S
C1844 C1846 1.384 . S
C1845 C1844 1.377 . S
C1845 C1851 1.390 . S
C1846 H1837 0.930 . S
C1846 C1844 1.384 . S
C1846 C1847 1.372 . S
C1847 C1846 1.372 . S
C1847 C1848 1.400 . S
C1847 C1852 1.490 . S
C1848 H1838 0.930 . S
C1848 C1847 1.400 . S
C1848 C1851 1.386 . S
H1849 C1865 0.899 1_556 S
H1850 C1866 0.931 1_556 S
C1851 H1839 0.929 . S
C1851 C1845 1.390 . S
C1851 C1848 1.386 . S
C1852 C1847 1.490 . S
C1852 C1854 1.395 . S
C1852 C1855 1.403 . S
H1853 C1859 0.930 . S
C1854 H1840 0.930 . S
C1854 C1852 1.395 . S
C1854 C1857 1.403 . S
C1855 C1852 1.403 . S
C1855 C1856 1.524 . S
C1855 C1859 1.400 . S
C1856 H1841 0.960 . S
C1856 H1842 0.960 . S
C1856 H1843 0.960 . S
C1856 C1855 1.524 . S
C1857 C1854 1.403 . S
C1857 C1858 1.392 . S
C1857 C1861 1.495 . S
C1858 C1857 1.392 . S
C1858 C1859 1.385 . S
C1858 C1860 1.478 . S
C1859 H1853 0.930 . S
C1859 C1855 1.400 . S
C1859 C1858 1.385 . S
C1860 C1858 1.478 . S
C1860 C1862 1.381 . S
C1860 C1866 1.383 . S
C1861 C1857 1.495 . S
C1861 H1867 0.959 . S
C1861 H1868 0.961 . S
C1861 H1869 0.960 . S
C1862 C1860 1.381 . S
C1862 C1863 1.394 . S
C1862 H1870 0.930 . S
C1863 C1862 1.394 . S
C1863 C1864 1.383 . S
C1863 H1871 0.929 . S
C1864 C1863 1.383 . S
C1864 C1865 1.398 . S
C1865 H1849 0.899 1_554 S
C1865 C1864 1.398 . S
C1865 C1866 1.389 . S
C1866 H1850 0.931 1_554 S
C1866 C1860 1.383 . S
C1866 C1865 1.389 . S
H1867 C1861 0.959 . S
H1868 C1861 0.961 . S
H1869 C1861 0.960 . S
H1870 C1862 0.930 . S
H1871 C1863 0.929 . S
H1872 C1880 0.929 . S
H1873 C1882 0.930 1_455 S
H1874 C1884 0.930 . S
H1875 C1887 0.929 . S
H1876 C1890 0.930 . S
H1877 C1892 0.960 . S
H1878 C1892 0.960 . S
H1879 C1892 0.960 1_655 S
C1880 H1872 0.929 . S
C1880 C1881 1.377 . S
C1880 C1882 1.384 . S
C1881 C1880 1.377 . S
C1881 C1887 1.390 . S
C1882 H1873 0.930 1_655 S
C1882 C1880 1.384 . S
C1882 C1883 1.372 . S
C1883 C1882 1.372 . S
C1883 C1884 1.400 . S
C1883 C1888 1.490 1_655 S
C1884 H1874 0.930 . S
C1884 C1883 1.400 . S
C1884 C1887 1.386 . S
H1885 C1901 0.930 . S
H1886 C1902 0.931 . S
C1887 H1875 0.929 . S
C1887 C1881 1.390 . S
C1887 C1884 1.386 . S
C1888 C1883 1.490 1_455 S
C1888 C1890 1.395 . S
C1888 C1891 1.403 . S
H1889 C1895 0.930 . S
C1890 H1876 0.930 . S
C1890 C1888 1.395 . S
C1890 C1893 1.403 . S
C1891 C1888 1.403 . S
C1891 C1892 1.524 . S
C1891 C1895 1.400 . S
C1892 H1877 0.960 . S
C1892 H1878 0.960 . S
C1892 H1879 0.960 1_455 S
C1892 C1891 1.524 . S
C1893 C1890 1.403 . S
C1893 C1894 1.392 . S
C1893 C1897 1.495 . S
C1894 C1893 1.392 . S
C1894 C1895 1.385 . S
C1894 C1896 1.478 . S
C1895 H1889 0.930 . S
C1895 C1891 1.400 . S
C1895 C1894 1.385 . S
C1896 C1894 1.478 . S
C1896 C1898 1.381 . S
C1896 C1902 1.383 . S
C1897 C1893 1.495 . S
C1897 H1903 0.959 . S
C1897 H1904 0.961 . S
C1897 H1905 0.960 . S
C1898 C1896 1.381 . S
C1898 C1899 1.394 . S
C1898 H1906 0.930 . S
C1899 C1898 1.394 . S
C1899 C1900 1.383 . S
C1899 H1907 0.929 . S
C1900 C1899 1.383 . S
C1900 C1901 1.377 . S
C1901 H1885 0.930 . S
C1901 C1900 1.377 . S
C1901 C1902 1.379 . S
C1902 H1886 0.931 . S
C1902 C1896 1.383 . S
C1902 C1901 1.379 . S
H1903 C1897 0.959 . S
H1904 C1897 0.961 . S
H1905 C1897 0.960 . S
H1906 C1898 0.930 . S
H1907 C1899 0.929 . S
H1908 C1916 0.929 . S
H1909 C1918 0.930 . S
H1910 C1920 0.930 . S
H1911 C1923 0.929 . S
H1912 C1926 0.930 . S
H1913 C1928 0.960 . S
H1914 C1928 0.960 . S
H1915 C1928 0.960 . S
C1916 H1908 0.929 . S
C1916 C1917 1.377 . S
C1916 C1918 1.384 . S
C1917 C1916 1.377 . S
C1917 C1923 1.390 . S
C1918 H1909 0.930 . S
C1918 C1916 1.384 . S
C1918 C1919 1.372 . S
C1919 C1918 1.372 . S
C1919 C1920 1.400 . S
C1919 C1924 1.490 . S
C1920 H1910 0.930 . S
C1920 C1919 1.400 . S
C1920 C1923 1.386 . S
H1921 C1937 0.930 . S
H1922 C1938 0.931 . S
C1923 H1911 0.929 . S
C1923 C1917 1.390 . S
C1923 C1920 1.386 . S
C1924 C1919 1.490 . S
C1924 C1926 1.395 . S
C1924 C1927 1.403 . S
H1925 C1931 0.930 . S
C1926 H1912 0.930 . S
C1926 C1924 1.395 . S
C1926 C1929 1.403 . S
C1927 C1924 1.403 . S
C1927 C1928 1.524 . S
C1927 C1931 1.400 . S
C1928 H1913 0.960 . S
C1928 H1914 0.960 . S
C1928 H1915 0.960 . S
C1928 C1927 1.524 . S
C1929 C1926 1.403 . S
C1929 C1930 1.392 . S
C1929 C1933 1.495 . S
C1930 C1929 1.392 . S
C1930 C1931 1.385 . S
C1930 C1932 1.478 . S
C1931 H1925 0.930 . S
C1931 C1927 1.400 . S
C1931 C1930 1.385 . S
C1932 C1930 1.478 . S
C1932 C1934 1.381 . S
C1932 C1938 1.383 . S
C1933 C1929 1.495 . S
C1933 H1939 0.959 . S
C1933 H1940 0.961 . S
C1933 H1941 0.960 . S
C1934 C1932 1.381 . S
C1934 C1935 1.394 . S
C1934 H1942 0.930 . S
C1935 C1934 1.394 . S
C1935 C1936 1.383 . S
C1935 H1943 0.929 . S
C1936 C1935 1.383 . S
C1936 C1937 1.377 . S
C1937 H1921 0.930 . S
C1937 C1936 1.377 . S
C1937 C1938 1.379 . S
C1938 H1922 0.931 . S
C1938 C1932 1.383 . S
C1938 C1937 1.379 . S
H1939 C1933 0.959 . S
H1940 C1933 0.961 . S
H1941 C1933 0.960 . S
H1942 C1934 0.930 . S
H1943 C1935 0.929 . S
H1944 C1952 0.929 . S
H1945 C1954 0.930 . S
H1946 C1956 0.930 . S
H1947 C1959 0.929 . S
H1948 C1962 0.930 1_545 S
H1949 C1964 0.960 . S
H1950 C1964 0.960 1_545 S
H1951 C1964 0.960 1_545 S
C1952 H1944 0.929 . S
C1952 C1953 1.377 . S
C1952 C1954 1.384 . S
C1953 C1952 1.377 . S
C1953 C1959 1.390 . S
C1954 H1945 0.930 . S
C1954 C1952 1.384 . S
C1954 C1955 1.372 . S
C1955 C1954 1.372 . S
C1955 C1956 1.400 . S
C1955 C1960 1.490 . S
C1956 H1946 0.930 . S
C1956 C1955 1.400 . S
C1956 C1959 1.386 . S
H1957 C1973 0.930 . S
H1958 C1974 0.931 . S
C1959 H1947 0.929 . S
C1959 C1953 1.390 . S
C1959 C1956 1.386 . S
C1960 C1955 1.490 . S
C1960 C1962 1.395 1_545 S
C1960 C1963 1.403 1_545 S
H1961 C1967 0.930 . S
C1962 H1948 0.930 1_565 S
C1962 C1960 1.395 1_565 S
C1962 C1965 1.403 . S
C1963 C1960 1.403 1_565 S
C1963 C1964 1.524 . S
C1963 C1967 1.400 . S
C1964 H1949 0.960 . S
C1964 H1950 0.960 1_565 S
C1964 H1951 0.960 1_565 S
C1964 C1963 1.524 . S
C1965 C1962 1.403 . S
C1965 C1966 1.392 . S
C1965 C1969 1.495 . S
C1966 C1965 1.392 . S
C1966 C1967 1.385 . S
C1966 C1968 1.478 . S
C1967 H1961 0.930 . S
C1967 C1963 1.400 . S
C1967 C1966 1.385 . S
C1968 C1966 1.478 . S
C1968 C1970 1.381 . S
C1968 C1974 1.383 . S
C1969 C1965 1.495 . S
C1969 H1975 0.959 . S
C1969 H1976 0.961 . S
C1969 H1977 0.960 . S
C1970 C1968 1.381 . S
C1970 C1971 1.394 . S
C1970 H1978 0.930 . S
C1971 C1970 1.394 . S
C1971 C1972 1.383 . S
C1971 H1979 0.929 . S
C1972 C1971 1.383 . S
C1972 C1973 1.377 . S
C1973 H1957 0.930 . S
C1973 C1972 1.377 . S
C1973 C1974 1.379 . S
C1974 H1958 0.931 . S
C1974 C1968 1.383 . S
C1974 C1973 1.379 . S
H1975 C1969 0.959 . S
H1976 C1969 0.961 . S
H1977 C1969 0.960 . S
H1978 C1970 0.930 . S
H1979 C1971 0.929 . S
H1980 C1988 0.929 . S
H1981 C1990 0.930 . S
H1982 C1992 0.930 . S
H1983 C1995 0.929 . S
H1984 C1998 0.930 . S
H1985 C2000 0.960 . S
H1986 C2000 0.960 . S
H1987 C2000 0.960 . S
C1988 H1980 0.929 . S
C1988 C1989 1.377 . S
C1988 C1990 1.384 . S
C1989 C1988 1.377 . S
C1989 C1995 1.390 . S
C1990 H1981 0.930 . S
C1990 C1988 1.384 . S
C1990 C1991 1.372 . S
C1991 C1990 1.372 . S
C1991 C1992 1.400 . S
C1991 C1996 1.490 . S
C1992 H1982 0.930 . S
C1992 C1991 1.400 . S
C1992 C1995 1.386 . S
H1993 C2009 0.930 . S
H1994 C2010 0.931 . S
C1995 H1983 0.929 . S
C1995 C1989 1.390 . S
C1995 C1992 1.386 . S
C1996 C1991 1.490 . S
C1996 C1998 1.395 . S
C1996 C1999 1.403 . S
H1997 C2003 0.930 . S
C1998 H1984 0.930 . S
C1998 C1996 1.395 . S
C1998 C2001 1.403 . S
C1999 C1996 1.403 . S
C1999 C2000 1.524 . S
C1999 C2003 1.400 . S
C2000 H1985 0.960 . S
C2000 H1986 0.960 . S
C2000 H1987 0.960 . S
C2000 C1999 1.524 . S
C2001 C1998 1.403 . S
C2001 C2002 1.392 . S
C2001 C2005 1.495 . S
C2002 C2001 1.392 . S
C2002 C2003 1.385 . S
C2002 C2004 1.478 . S
C2003 H1997 0.930 . S
C2003 C1999 1.400 . S
C2003 C2002 1.385 . S
C2004 C2002 1.478 . S
C2004 C2006 1.381 . S
C2004 C2010 1.383 . S
C2005 C2001 1.495 . S
C2005 H2011 0.959 . S
C2005 H2012 0.961 . S
C2005 H2013 0.960 . S
C2006 C2004 1.381 . S
C2006 C2007 1.394 . S
C2006 H2014 0.930 . S
C2007 C2006 1.394 . S
C2007 C2008 1.383 . S
C2007 H2015 0.929 . S
C2008 C2007 1.383 . S
C2008 C2009 1.377 . S
C2009 H1993 0.930 . S
C2009 C2008 1.377 . S
C2009 C2010 1.379 . S
C2010 H1994 0.931 . S
C2010 C2004 1.383 . S
C2010 C2009 1.379 . S
H2011 C2005 0.959 . S
H2012 C2005 0.961 . S
H2013 C2005 0.960 . S
H2014 C2006 0.930 . S
H2015 C2007 0.929 . S
H2016 C2024 0.929 . S
H2017 C2026 0.930 . S
H2018 C2028 0.930 . S
H2019 C2031 0.929 . S
H2020 C2034 0.930 . S
H2021 C2036 0.960 . S
H2022 C2036 0.960 . S
H2023 C2036 0.960 . S
C2024 H2016 0.929 . S
C2024 C2025 1.377 . S
C2024 C2026 1.384 . S
C2025 C2024 1.377 . S
C2025 C2031 1.390 . S
C2026 H2017 0.930 . S
C2026 C2024 1.384 . S
C2026 C2027 1.372 . S
C2027 C2026 1.372 . S
C2027 C2028 1.400 . S
C2027 C2032 1.490 . S
C2028 H2018 0.930 . S
C2028 C2027 1.400 . S
C2028 C2031 1.386 . S
H2029 C2045 0.930 . S
H2030 C2046 0.931 . S
C2031 H2019 0.929 . S
C2031 C2025 1.390 . S
C2031 C2028 1.386 . S
C2032 C2027 1.490 . S
C2032 C2034 1.395 . S
C2032 C2035 1.403 . S
H2033 C2039 0.930 . S
C2034 H2020 0.930 . S
C2034 C2032 1.395 . S
C2034 C2037 1.403 . S
C2035 C2032 1.403 . S
C2035 C2036 1.524 . S
C2035 C2039 1.400 . S
C2036 H2021 0.960 . S
C2036 H2022 0.960 . S
C2036 H2023 0.960 . S
C2036 C2035 1.524 . S
C2037 C2034 1.403 . S
C2037 C2038 1.392 . S
C2037 C2041 1.495 . S
C2038 C2037 1.392 . S
C2038 C2039 1.385 . S
C2038 C2040 1.478 . S
C2039 H2033 0.930 . S
C2039 C2035 1.400 . S
C2039 C2038 1.385 . S
C2040 C2038 1.478 . S
C2040 C2042 1.381 . S
C2040 C2046 1.383 . S
C2041 C2037 1.495 . S
C2041 H2047 0.959 . S
C2041 H2048 0.961 . S
C2041 H2049 0.960 . S
C2042 C2040 1.381 . S
C2042 C2043 1.394 . S
C2042 H2050 0.930 . S
C2043 C2042 1.394 . S
C2043 C2044 1.383 . S
C2043 H2051 0.929 . S
C2044 C2043 1.383 . S
C2044 C2045 1.377 . S
C2045 H2029 0.930 . S
C2045 C2044 1.377 . S
C2045 C2046 1.379 . S
C2046 H2030 0.931 . S
C2046 C2040 1.383 . S
C2046 C2045 1.379 . S
H2047 C2041 0.959 . S
H2048 C2041 0.961 . S
H2049 C2041 0.960 . S
H2050 C2042 0.930 . S
H2051 C2043 0.929 . S
H2052 C2060 0.929 . S
H2053 C2062 0.930 . S
H2054 C2064 0.930 . S
H2055 C2067 0.929 . S
H2056 C2070 0.930 . S
H2057 C2072 0.960 . S
H2058 C2072 0.960 . S
H2059 C2072 0.960 . S
C2060 H2052 0.929 . S
C2060 C2061 1.377 . S
C2060 C2062 1.384 . S
C2061 C2060 1.377 . S
C2061 C2067 1.390 . S
C2062 H2053 0.930 . S
C2062 C2060 1.384 . S
C2062 C2063 1.372 . S
C2063 C2062 1.372 . S
C2063 C2064 1.400 . S
C2063 C2068 1.490 . S
C2064 H2054 0.930 . S
C2064 C2063 1.400 . S
C2064 C2067 1.386 . S
H2065 C2081 0.930 . S
H2066 C2082 0.931 . S
C2067 H2055 0.929 . S
C2067 C2061 1.390 . S
C2067 C2064 1.386 . S
C2068 C2063 1.490 . S
C2068 C2070 1.395 . S
C2068 C2071 1.403 . S
H2069 C2075 0.930 . S
C2070 H2056 0.930 . S
C2070 C2068 1.395 . S
C2070 C2073 1.403 . S
C2071 C2068 1.403 . S
C2071 C2072 1.524 . S
C2071 C2075 1.400 . S
C2072 H2057 0.960 . S
C2072 H2058 0.960 . S
C2072 H2059 0.960 . S
C2072 C2071 1.524 . S
C2073 C2070 1.403 . S
C2073 C2074 1.392 . S
C2073 C2077 1.495 . S
C2074 C2073 1.392 . S
C2074 C2075 1.385 . S
C2074 C2076 1.478 . S
C2075 H2069 0.930 . S
C2075 C2071 1.400 . S
C2075 C2074 1.385 . S
C2076 C2074 1.478 . S
C2076 C2078 1.381 . S
C2076 C2082 1.383 . S
C2077 C2073 1.495 . S
C2077 H2083 0.959 . S
C2077 H2084 0.961 . S
C2077 H2085 0.960 . S
C2078 C2076 1.381 . S
C2078 C2079 1.394 . S
C2078 H2086 0.930 . S
C2079 C2078 1.394 . S
C2079 C2080 1.383 . S
C2079 H2087 0.929 . S
C2080 C2079 1.383 . S
C2080 C2081 1.377 . S
C2081 H2065 0.930 . S
C2081 C2080 1.377 . S
C2081 C2082 1.379 . S
C2082 H2066 0.931 . S
C2082 C2076 1.383 . S
C2082 C2081 1.379 . S
H2083 C2077 0.959 . S
H2084 C2077 0.961 . S
H2085 C2077 0.960 . S
H2086 C2078 0.930 . S
H2087 C2079 0.929 . S
H2088 C2096 0.929 . S
H2089 C2098 0.930 . S
H2090 C2100 0.930 . S
H2091 C2103 0.929 . S
H2092 C2106 0.930 . S
H2093 C2108 0.960 . S
H2094 C2108 0.960 . S
H2095 C2108 0.960 . S
C2096 H2088 0.929 . S
C2096 C2097 1.377 . S
C2096 C2098 1.384 . S
C2097 C2096 1.377 . S
C2097 C2103 1.390 . S
C2098 H2089 0.930 . S
C2098 C2096 1.384 . S
C2098 C2099 1.372 . S
C2099 C2098 1.372 . S
C2099 C2100 1.400 . S
C2099 C2104 1.490 . S
C2100 H2090 0.930 . S
C2100 C2099 1.400 . S
C2100 C2103 1.386 . S
H2101 C2117 0.930 . S
H2102 C2118 0.931 . S
C2103 H2091 0.929 . S
C2103 C2097 1.390 . S
C2103 C2100 1.386 . S
C2104 C2099 1.490 . S
C2104 C2106 1.395 . S
C2104 C2107 1.403 . S
H2105 C2111 0.930 . S
C2106 H2092 0.930 . S
C2106 C2104 1.395 . S
C2106 C2109 1.403 . S
C2107 C2104 1.403 . S
C2107 C2108 1.524 . S
C2107 C2111 1.400 . S
C2108 H2093 0.960 . S
C2108 H2094 0.960 . S
C2108 H2095 0.960 . S
C2108 C2107 1.524 . S
C2109 C2106 1.403 . S
C2109 C2110 1.392 . S
C2109 C2113 1.495 . S
C2110 C2109 1.392 . S
C2110 C2111 1.385 . S
C2110 C2112 1.478 . S
C2111 H2105 0.930 . S
C2111 C2107 1.400 . S
C2111 C2110 1.385 . S
C2112 C2110 1.478 . S
C2112 C2114 1.381 . S
C2112 C2118 1.383 . S
C2113 C2109 1.495 . S
C2113 H2119 0.959 . S
C2113 H2120 0.961 . S
C2113 H2121 0.960 . S
C2114 C2112 1.381 . S
C2114 C2115 1.394 . S
C2114 H2122 0.930 . S
C2115 C2114 1.394 . S
C2115 C2116 1.383 . S
C2115 H2123 0.929 . S
C2116 C2115 1.383 . S
C2116 C2117 1.377 . S
C2117 H2101 0.930 . S
C2117 C2116 1.377 . S
C2117 C2118 1.379 . S
C2118 H2102 0.931 . S
C2118 C2112 1.383 . S
C2118 C2117 1.379 . S
H2119 C2113 0.959 . S
H2120 C2113 0.961 . S
H2121 C2113 0.960 . S
H2122 C2114 0.930 . S
H2123 C2115 0.929 . S
H2124 C2132 0.929 . S
H2125 C2134 0.930 . S
H2126 C2136 0.930 . S
H2127 C2139 0.929 . S
H2128 C2142 0.930 . S
H2129 C2144 0.960 . S
H2130 C2144 0.960 . S
H2131 C2144 0.960 . S
C2132 H2124 0.929 . S
C2132 C2133 1.377 . S
C2132 C2134 1.384 . S
C2133 C2132 1.377 . S
C2133 C2139 1.390 . S
C2134 H2125 0.930 . S
C2134 C2132 1.384 . S
C2134 C2135 1.372 . S
C2135 C2134 1.372 . S
C2135 C2136 1.400 . S
C2135 C2140 1.490 . S
C2136 H2126 0.930 . S
C2136 C2135 1.400 . S
C2136 C2139 1.386 . S
H2137 C2153 0.930 . S
H2138 C2154 0.931 . S
C2139 H2127 0.929 . S
C2139 C2133 1.390 . S
C2139 C2136 1.386 . S
C2140 C2135 1.490 . S
C2140 C2142 1.395 . S
C2140 C2143 1.403 . S
H2141 C2147 0.930 . S
C2142 H2128 0.930 . S
C2142 C2140 1.395 . S
C2142 C2145 1.403 . S
C2143 C2140 1.403 . S
C2143 C2144 1.524 . S
C2143 C2147 1.400 . S
C2144 H2129 0.960 . S
C2144 H2130 0.960 . S
C2144 H2131 0.960 . S
C2144 C2143 1.524 . S
C2145 C2142 1.403 . S
C2145 C2146 1.392 . S
C2145 C2149 1.495 . S
C2146 C2145 1.392 . S
C2146 C2147 1.385 . S
C2146 C2148 1.478 . S
C2147 H2141 0.930 . S
C2147 C2143 1.400 . S
C2147 C2146 1.385 . S
C2148 C2146 1.478 . S
C2148 C2150 1.381 . S
C2148 C2154 1.383 . S
C2149 C2145 1.495 . S
C2149 H2155 0.959 . S
C2149 H2156 0.961 . S
C2149 H2157 0.960 . S
C2150 C2148 1.381 . S
C2150 C2151 1.394 . S
C2150 H2158 0.930 . S
C2151 C2150 1.394 . S
C2151 C2152 1.383 . S
C2151 H2159 0.929 . S
C2152 C2151 1.383 . S
C2152 C2153 1.377 . S
C2153 H2137 0.930 . S
C2153 C2152 1.377 . S
C2153 C2154 1.379 . S
C2154 H2138 0.931 . S
C2154 C2148 1.383 . S
C2154 C2153 1.379 . S
H2155 C2149 0.959 . S
H2156 C2149 0.961 . S
H2157 C2149 0.960 . S
H2158 C2150 0.930 . S
H2159 C2151 0.929 . S
H2160 C2168 0.929 . S
H2161 C2170 0.930 . S
H2162 C2172 0.930 . S
H2163 C2175 0.929 . S
H2164 C2178 0.930 . S
H2165 C2180 0.960 . S
H2166 C2180 0.960 . S
H2167 C2180 0.960 . S
C2168 H2160 0.929 . S
C2168 C2169 1.377 . S
C2168 C2170 1.384 . S
C2169 C2168 1.377 . S
C2169 C2175 1.390 . S
C2170 H2161 0.930 . S
C2170 C2168 1.384 . S
C2170 C2171 1.372 . S
C2171 C2170 1.372 . S
C2171 C2172 1.400 . S
C2171 C2176 1.490 . S
C2172 H2162 0.930 . S
C2172 C2171 1.400 . S
C2172 C2175 1.386 . S
H2173 C2189 0.930 . S
H2174 C2190 0.931 . S
C2175 H2163 0.929 . S
C2175 C2169 1.390 . S
C2175 C2172 1.386 . S
C2176 C2171 1.490 . S
C2176 C2178 1.395 . S
C2176 C2179 1.403 . S
H2177 C2183 0.930 . S
C2178 H2164 0.930 . S
C2178 C2176 1.395 . S
C2178 C2181 1.403 . S
C2179 C2176 1.403 . S
C2179 C2180 1.524 . S
C2179 C2183 1.400 . S
C2180 H2165 0.960 . S
C2180 H2166 0.960 . S
C2180 H2167 0.960 . S
C2180 C2179 1.524 . S
C2181 C2178 1.403 . S
C2181 C2182 1.392 . S
C2181 C2185 1.495 . S
C2182 C2181 1.392 . S
C2182 C2183 1.385 . S
C2182 C2184 1.478 . S
C2183 H2177 0.930 . S
C2183 C2179 1.400 . S
C2183 C2182 1.385 . S
C2184 C2182 1.478 . S
C2184 C2186 1.381 . S
C2184 C2190 1.383 . S
C2185 C2181 1.495 . S
C2185 H2191 0.959 . S
C2185 H2192 0.961 . S
C2185 H2193 0.960 . S
C2186 C2184 1.381 . S
C2186 C2187 1.394 . S
C2186 H2194 0.930 . S
C2187 C2186 1.394 . S
C2187 C2188 1.383 . S
C2187 H2195 0.929 . S
C2188 C2187 1.383 . S
C2188 C2189 1.377 . S
C2189 H2173 0.930 . S
C2189 C2188 1.377 . S
C2189 C2190 1.379 . S
C2190 H2174 0.931 . S
C2190 C2184 1.383 . S
C2190 C2189 1.379 . S
H2191 C2185 0.959 . S
H2192 C2185 0.961 . S
H2193 C2185 0.960 . S
H2194 C2186 0.930 . S
H2195 C2187 0.929 . S
H2196 C2204 0.929 . S
H2197 C2206 0.930 . S
H2198 C2208 0.930 . S
H2199 C2211 0.929 . S
H2200 C2214 0.930 . S
H2201 C2216 0.960 1_565 S
H2202 C2216 0.960 . S
H2203 C2216 0.960 . S
C2204 H2196 0.929 . S
C2204 C2205 1.377 . S
C2204 C2206 1.384 . S
C2205 C2204 1.377 . S
C2205 C2211 1.390 . S
C2206 H2197 0.930 . S
C2206 C2204 1.384 . S
C2206 C2207 1.372 . S
C2207 C2206 1.372 . S
C2207 C2208 1.400 . S
C2207 C2212 1.490 1_545 S
C2208 H2198 0.930 . S
C2208 C2207 1.400 . S
C2208 C2211 1.386 . S
H2209 C2225 0.930 . S
H2210 C2226 0.931 . S
C2211 H2199 0.929 . S
C2211 C2205 1.390 . S
C2211 C2208 1.386 . S
C2212 C2207 1.490 1_565 S
C2212 C2214 1.395 . S
C2212 C2215 1.403 . S
H2213 C2219 0.930 . S
C2214 H2200 0.930 . S
C2214 C2212 1.395 . S
C2214 C2217 1.403 . S
C2215 C2212 1.403 . S
C2215 C2216 1.524 1_565 S
C2215 C2219 1.400 . S
C2216 H2201 0.960 1_545 S
C2216 H2202 0.960 . S
C2216 H2203 0.960 . S
C2216 C2215 1.524 1_545 S
C2217 C2214 1.403 . S
C2217 C2218 1.392 . S
C2217 C2221 1.495 . S
C2218 C2217 1.392 . S
C2218 C2219 1.385 . S
C2218 C2220 1.478 . S
C2219 H2213 0.930 . S
C2219 C2215 1.400 . S
C2219 C2218 1.385 . S
C2220 C2218 1.478 . S
C2220 C2222 1.381 . S
C2220 C2226 1.383 . S
C2221 C2217 1.495 . S
C2221 H2227 0.959 . S
C2221 H2228 0.961 . S
C2221 H2229 0.960 . S
C2222 C2220 1.381 . S
C2222 C2223 1.394 . S
C2222 H2230 0.930 . S
C2223 C2222 1.394 . S
C2223 C2224 1.383 . S
C2223 H2231 0.929 . S
C2224 C2223 1.383 . S
C2224 C2225 1.377 . S
C2225 H2209 0.930 . S
C2225 C2224 1.377 . S
C2225 C2226 1.379 . S
C2226 H2210 0.931 . S
C2226 C2220 1.383 . S
C2226 C2225 1.379 . S
H2227 C2221 0.959 . S
H2228 C2221 0.961 . S
H2229 C2221 0.960 . S
H2230 C2222 0.930 . S
H2231 C2223 0.929 . S
H2232 C2240 0.929 . S
H2233 C2242 0.930 . S
H2234 C2244 0.930 . S
H2235 C2247 0.929 . S
H2236 C2250 0.930 . S
H2237 C2252 0.960 . S
H2238 C2252 0.960 . S
H2239 C2252 0.960 . S
C2240 H2232 0.929 . S
C2240 C2241 1.377 . S
C2240 C2242 1.384 . S
C2241 C2240 1.377 . S
C2241 C2247 1.390 . S
C2242 H2233 0.930 . S
C2242 C2240 1.384 . S
C2242 C2243 1.372 1_655 S
C2243 C2242 1.372 1_455 S
C2243 C2244 1.400 . S
C2243 C2248 1.490 . S
C2244 H2234 0.930 . S
C2244 C2243 1.400 . S
C2244 C2247 1.386 1_455 S
H2245 C2261 0.930 . S
H2246 C2262 0.931 . S
C2247 H2235 0.929 . S
C2247 C2241 1.390 . S
C2247 C2244 1.386 1_655 S
C2248 C2243 1.490 . S
C2248 C2250 1.395 . S
C2248 C2251 1.403 . S
H2249 C2255 0.930 . S
C2250 H2236 0.930 . S
C2250 C2248 1.395 . S
C2250 C2253 1.403 . S
C2251 C2248 1.403 . S
C2251 C2252 1.524 . S
C2251 C2255 1.400 . S
C2252 H2237 0.960 . S
C2252 H2238 0.960 . S
C2252 H2239 0.960 . S
C2252 C2251 1.524 . S
C2253 C2250 1.403 . S
C2253 C2254 1.392 . S
C2253 C2257 1.495 . S
C2254 C2253 1.392 . S
C2254 C2255 1.385 . S
C2254 C2256 1.478 . S
C2255 H2249 0.930 . S
C2255 C2251 1.400 . S
C2255 C2254 1.385 . S
C2256 C2254 1.478 . S
C2256 C2258 1.381 . S
C2256 C2262 1.383 . S
C2257 C2253 1.495 . S
C2257 H2263 0.959 . S
C2257 H2264 0.961 . S
C2257 H2265 0.960 . S
C2258 C2256 1.381 . S
C2258 C2259 1.394 . S
C2258 H2266 0.930 . S
C2259 C2258 1.394 . S
C2259 C2260 1.383 . S
C2259 H2267 0.929 . S
C2260 C2259 1.383 . S
C2260 C2261 1.377 . S
C2261 H2245 0.930 . S
C2261 C2260 1.377 . S
C2261 C2262 1.379 . S
C2262 H2246 0.931 . S
C2262 C2256 1.383 . S
C2262 C2261 1.379 . S
H2263 C2257 0.959 . S
H2264 C2257 0.961 . S
H2265 C2257 0.960 . S
H2266 C2258 0.930 . S
H2267 C2259 0.929 . S
H2268 C2276 0.929 . S
H2269 C2278 0.930 . S
H2270 C2280 0.930 . S
H2271 C2283 0.929 . S
H2272 C2286 0.930 . S
H2273 C2288 0.960 . S
H2274 C2288 0.960 . S
H2275 C2288 0.960 . S
C2276 H2268 0.929 . S
C2276 C2277 1.377 . S
C2276 C2278 1.384 . S
C2277 C2276 1.377 . S
C2277 C2283 1.390 . S
C2278 H2269 0.930 . S
C2278 C2276 1.384 . S
C2278 C2279 1.372 . S
C2279 C2278 1.372 . S
C2279 C2280 1.400 . S
C2279 C2284 1.490 . S
C2280 H2270 0.930 . S
C2280 C2279 1.400 . S
C2280 C2283 1.386 . S
H2281 C2297 0.930 . S
H2282 C2298 0.931 . S
C2283 H2271 0.929 . S
C2283 C2277 1.390 . S
C2283 C2280 1.386 . S
C2284 C2279 1.490 . S
C2284 C2286 1.395 . S
C2284 C2287 1.403 . S
H2285 C2291 0.930 . S
C2286 H2272 0.930 . S
C2286 C2284 1.395 . S
C2286 C2289 1.403 . S
C2287 C2284 1.403 . S
C2287 C2288 1.524 . S
C2287 C2291 1.400 . S
C2288 H2273 0.960 . S
C2288 H2274 0.960 . S
C2288 H2275 0.960 . S
C2288 C2287 1.524 . S
C2289 C2286 1.403 . S
C2289 C2290 1.392 . S
C2289 C2293 1.495 . S
C2290 C2289 1.392 . S
C2290 C2291 1.385 . S
C2290 C2292 1.478 . S
C2291 H2285 0.930 . S
C2291 C2287 1.400 . S
C2291 C2290 1.385 . S
C2292 C2290 1.478 . S
C2292 C2294 1.381 . S
C2292 C2298 1.383 . S
C2293 C2289 1.495 . S
C2293 H2299 0.959 . S
C2293 H2300 0.961 . S
C2293 H2301 0.960 . S
C2294 C2292 1.381 . S
C2294 C2295 1.394 . S
C2294 H2302 0.930 . S
C2295 C2294 1.394 . S
C2295 C2296 1.383 . S
C2295 H2303 0.929 . S
C2296 C2295 1.383 . S
C2296 C2297 1.377 . S
C2297 H2281 0.930 . S
C2297 C2296 1.377 . S
C2297 C2298 1.379 . S
C2298 H2282 0.931 . S
C2298 C2292 1.383 . S
C2298 C2297 1.379 . S
H2299 C2293 0.959 . S
H2300 C2293 0.961 . S
H2301 C2293 0.960 . S
H2302 C2294 0.930 . S
H2303 C2295 0.929 . S
H2304 C2312 0.929 . S
H2305 C2314 0.930 . S
H2306 C2316 0.930 . S
H2307 C2319 0.929 . S
H2308 C2322 0.930 . S
H2309 C2324 0.960 . S
H2310 C2324 0.960 . S
H2311 C2324 0.960 . S
C2312 H2304 0.929 . S
C2312 C2313 1.377 . S
C2312 C2314 1.384 . S
C2313 C2312 1.377 . S
C2313 C2319 1.390 . S
C2314 H2305 0.930 . S
C2314 C2312 1.384 . S
C2314 C2315 1.372 . S
C2315 C2314 1.372 . S
C2315 C2316 1.400 . S
C2315 C2320 1.490 . S
C2316 H2306 0.930 . S
C2316 C2315 1.400 . S
C2316 C2319 1.386 . S
H2317 C2333 0.930 . S
H2318 C2334 0.931 . S
C2319 H2307 0.929 . S
C2319 C2313 1.390 . S
C2319 C2316 1.386 . S
C2320 C2315 1.490 . S
C2320 C2322 1.395 . S
C2320 C2323 1.403 . S
H2321 C2327 0.930 . S
C2322 H2308 0.930 . S
C2322 C2320 1.395 . S
C2322 C2325 1.403 . S
C2323 C2320 1.403 . S
C2323 C2324 1.524 . S
C2323 C2327 1.400 . S
C2324 H2309 0.960 . S
C2324 H2310 0.960 . S
C2324 H2311 0.960 . S
C2324 C2323 1.524 . S
C2325 C2322 1.403 . S
C2325 C2326 1.392 . S
C2325 C2329 1.495 . S
C2326 C2325 1.392 . S
C2326 C2327 1.385 . S
C2326 C2328 1.478 . S
C2327 H2321 0.930 . S
C2327 C2323 1.400 . S
C2327 C2326 1.385 . S
C2328 C2326 1.478 . S
C2328 C2330 1.381 . S
C2328 C2334 1.383 . S
C2329 C2325 1.495 . S
C2329 H2335 0.959 . S
C2329 H2336 0.961 . S
C2329 H2337 0.960 . S
C2330 C2328 1.381 . S
C2330 C2331 1.394 . S
C2330 H2338 0.930 . S
C2331 C2330 1.394 . S
C2331 C2332 1.383 . S
C2331 H2339 0.929 . S
C2332 C2331 1.383 . S
C2332 C2333 1.377 . S
C2333 H2317 0.930 . S
C2333 C2332 1.377 . S
C2333 C2334 1.379 . S
C2334 H2318 0.931 . S
C2334 C2328 1.383 . S
C2334 C2333 1.379 . S
H2335 C2329 0.959 . S
H2336 C2329 0.961 . S
H2337 C2329 0.960 . S
H2338 C2330 0.930 . S
H2339 C2331 0.929 . S
H2340 C2348 0.929 . S
H2341 C2350 0.930 . S
H2342 C2352 0.930 . S
H2343 C2355 0.929 . S
H2344 C2358 0.930 . S
H2345 C2360 0.960 . S
H2346 C2360 0.960 . S
H2347 C2360 0.960 . S
C2348 H2340 0.929 . S
C2348 C2349 1.377 . S
C2348 C2350 1.384 . S
C2349 C2348 1.377 . S
C2349 C2355 1.390 . S
C2350 H2341 0.930 . S
C2350 C2348 1.384 . S
C2350 C2351 1.372 . S
C2351 C2350 1.372 . S
C2351 C2352 1.400 . S
C2351 C2356 1.490 . S
C2352 H2342 0.930 . S
C2352 C2351 1.400 . S
C2352 C2355 1.386 . S
H2353 C2369 0.930 . S
H2354 C2370 0.931 . S
C2355 H2343 0.929 . S
C2355 C2349 1.390 . S
C2355 C2352 1.386 . S
C2356 C2351 1.490 . S
C2356 C2358 1.395 . S
C2356 C2359 1.403 . S
H2357 C2363 0.930 . S
C2358 H2344 0.930 . S
C2358 C2356 1.395 . S
C2358 C2361 1.403 . S
C2359 C2356 1.403 . S
C2359 C2360 1.524 . S
C2359 C2363 1.400 . S
C2360 H2345 0.960 . S
C2360 H2346 0.960 . S
C2360 H2347 0.960 . S
C2360 C2359 1.524 . S
C2361 C2358 1.403 . S
C2361 C2362 1.392 . S
C2361 C2365 1.495 . S
C2362 C2361 1.392 . S
C2362 C2363 1.385 . S
C2362 C2364 1.478 . S
C2363 H2357 0.930 . S
C2363 C2359 1.400 . S
C2363 C2362 1.385 . S
C2364 C2362 1.478 . S
C2364 C2366 1.381 . S
C2364 C2370 1.383 . S
C2365 C2361 1.495 . S
C2365 H2371 0.959 . S
C2365 H2372 0.961 . S
C2365 H2373 0.960 . S
C2366 C2364 1.381 . S
C2366 C2367 1.394 . S
C2366 H2374 0.930 . S
C2367 C2366 1.394 . S
C2367 C2368 1.383 . S
C2367 H2375 0.929 . S
C2368 C2367 1.383 . S
C2368 C2369 1.377 . S
C2369 H2353 0.930 . S
C2369 C2368 1.377 . S
C2369 C2370 1.379 . S
C2370 H2354 0.931 . S
C2370 C2364 1.383 . S
C2370 C2369 1.379 . S
H2371 C2365 0.959 . S
H2372 C2365 0.961 . S
H2373 C2365 0.960 . S
H2374 C2366 0.930 . S
H2375 C2367 0.929 . S
H2376 C2384 0.929 . S
H2377 C2386 0.930 . S
H2378 C2388 0.930 . S
H2379 C2391 0.929 . S
H2380 C2394 0.930 . S
H2381 C2396 0.960 . S
H2382 C2396 0.960 . S
H2383 C2396 0.960 . S
C2384 H2376 0.929 . S
C2384 C2385 1.377 . S
C2384 C2386 1.384 . S
C2385 C2384 1.377 . S
C2385 C2391 1.390 . S
C2386 H2377 0.930 . S
C2386 C2384 1.384 . S
C2386 C2387 1.372 . S
C2387 C2386 1.372 . S
C2387 C2388 1.400 . S
C2387 C2392 1.490 . S
C2388 H2378 0.930 . S
C2388 C2387 1.400 . S
C2388 C2391 1.386 . S
H2389 C2405 0.930 . S
H2390 C2406 0.931 . S
C2391 H2379 0.929 . S
C2391 C2385 1.390 . S
C2391 C2388 1.386 . S
C2392 C2387 1.490 . S
C2392 C2394 1.395 . S
C2392 C2395 1.403 . S
H2393 C2399 0.930 . S
C2394 H2380 0.930 . S
C2394 C2392 1.395 . S
C2394 C2397 1.403 . S
C2395 C2392 1.403 . S
C2395 C2396 1.524 . S
C2395 C2399 1.400 . S
C2396 H2381 0.960 . S
C2396 H2382 0.960 . S
C2396 H2383 0.960 . S
C2396 C2395 1.524 . S
C2397 C2394 1.403 . S
C2397 C2398 1.392 . S
C2397 C2401 1.495 . S
C2398 C2397 1.392 . S
C2398 C2399 1.385 . S
C2398 C2400 1.478 . S
C2399 H2393 0.930 . S
C2399 C2395 1.400 . S
C2399 C2398 1.385 . S
C2400 C2398 1.478 . S
C2400 C2402 1.381 . S
C2400 C2406 1.383 . S
C2401 C2397 1.495 . S
C2401 H2407 0.959 . S
C2401 H2408 0.961 . S
C2401 H2409 0.960 . S
C2402 C2400 1.381 . S
C2402 C2403 1.394 . S
C2402 H2410 0.930 . S
C2403 C2402 1.394 . S
C2403 C2404 1.383 . S
C2403 H2411 0.929 . S
C2404 C2403 1.383 . S
C2404 C2405 1.377 . S
C2405 H2389 0.930 . S
C2405 C2404 1.377 . S
C2405 C2406 1.379 . S
C2406 H2390 0.931 . S
C2406 C2400 1.383 . S
C2406 C2405 1.379 . S
H2407 C2401 0.959 . S
H2408 C2401 0.961 . S
H2409 C2401 0.960 . S
H2410 C2402 0.930 . S
H2411 C2403 0.929 . S
H2412 C2420 0.929 . S
H2413 C2422 0.930 . S
H2414 C2424 0.930 . S
H2415 C2427 0.929 . S
H2416 C2430 0.930 . S
H2417 C2432 0.960 . S
H2418 C2432 0.960 1_565 S
H2419 C2432 0.960 1_565 S
C2420 H2412 0.929 . S
C2420 C2421 1.377 . S
C2420 C2422 1.384 . S
C2421 C2420 1.377 . S
C2421 C2427 1.390 . S
C2422 H2413 0.930 . S
C2422 C2420 1.384 . S
C2422 C2423 1.372 . S
C2423 C2422 1.372 . S
C2423 C2424 1.400 . S
C2423 C2428 1.490 1_565 S
C2424 H2414 0.930 . S
C2424 C2423 1.400 . S
C2424 C2427 1.386 . S
H2425 C2441 0.930 . S
H2426 C2442 0.931 . S
C2427 H2415 0.929 . S
C2427 C2421 1.390 . S
C2427 C2424 1.386 . S
C2428 C2423 1.490 1_545 S
C2428 C2430 1.395 . S
C2428 C2431 1.403 . S
H2429 C2435 0.930 . S
C2430 H2416 0.930 . S
C2430 C2428 1.395 . S
C2430 C2433 1.403 . S
C2431 C2428 1.403 . S
C2431 C2432 1.524 . S
C2431 C2435 1.400 . S
C2432 H2417 0.960 . S
C2432 H2418 0.960 1_545 S
C2432 H2419 0.960 1_545 S
C2432 C2431 1.524 . S
C2433 C2430 1.403 . S
C2433 C2434 1.392 . S
C2433 C2437 1.495 . S
C2434 C2433 1.392 . S
C2434 C2435 1.385 . S
C2434 C2436 1.478 . S
C2435 H2429 0.930 . S
C2435 C2431 1.400 . S
C2435 C2434 1.385 . S
C2436 C2434 1.478 . S
C2436 C2438 1.381 . S
C2436 C2442 1.383 . S
C2437 C2433 1.495 . S
C2437 H2443 0.959 . S
C2437 H2444 0.961 . S
C2437 H2445 0.960 . S
C2438 C2436 1.381 . S
C2438 C2439 1.394 . S
C2438 H2446 0.930 . S
C2439 C2438 1.394 . S
C2439 C2440 1.383 . S
C2439 H2447 0.929 . S
C2440 C2439 1.383 . S
C2440 C2441 1.377 . S
C2441 H2425 0.930 . S
C2441 C2440 1.377 . S
C2441 C2442 1.379 . S
C2442 H2426 0.931 . S
C2442 C2436 1.383 . S
C2442 C2441 1.379 . S
H2443 C2437 0.959 . S
H2444 C2437 0.961 . S
H2445 C2437 0.960 . S
H2446 C2438 0.930 . S
H2447 C2439 0.929 . S
H2448 C2456 0.929 . S
H2449 C2458 0.930 . S
H2450 C2460 0.930 1_655 S
H2451 C2463 0.929 . S
H2452 C2466 0.930 . S
H2453 C2468 0.960 . S
H2454 C2468 0.960 . S
H2455 C2468 0.960 . S
C2456 H2448 0.929 . S
C2456 C2457 1.377 . S
C2456 C2458 1.384 . S
C2457 C2456 1.377 . S
C2457 C2463 1.390 . S
C2458 H2449 0.930 . S
C2458 C2456 1.384 . S
C2458 C2459 1.372 1_455 S
C2459 C2458 1.372 1_655 S
C2459 C2460 1.400 1_655 S
C2459 C2464 1.490 . S
C2460 H2450 0.930 1_455 S
C2460 C2459 1.400 1_455 S
C2460 C2463 1.386 . S
H2461 C2477 0.930 . S
H2462 C2478 0.931 . S
C2463 H2451 0.929 . S
C2463 C2457 1.390 . S
C2463 C2460 1.386 . S
C2464 C2459 1.490 . S
C2464 C2466 1.395 . S
C2464 C2467 1.403 . S
H2465 C2471 0.930 . S
C2466 H2452 0.930 . S
C2466 C2464 1.395 . S
C2466 C2469 1.403 . S
C2467 C2464 1.403 . S
C2467 C2468 1.524 . S
C2467 C2471 1.400 . S
C2468 H2453 0.960 . S
C2468 H2454 0.960 . S
C2468 H2455 0.960 . S
C2468 C2467 1.524 . S
C2469 C2466 1.403 . S
C2469 C2470 1.392 . S
C2469 C2473 1.495 . S
C2470 C2469 1.392 . S
C2470 C2471 1.385 . S
C2470 C2472 1.478 . S
C2471 H2465 0.930 . S
C2471 C2467 1.400 . S
C2471 C2470 1.385 . S
C2472 C2470 1.478 . S
C2472 C2474 1.381 . S
C2472 C2478 1.383 . S
C2473 C2469 1.495 . S
C2473 H2479 0.959 . S
C2473 H2480 0.961 . S
C2473 H2481 0.960 . S
C2474 C2472 1.381 . S
C2474 C2475 1.394 . S
C2474 H2482 0.930 . S
C2475 C2474 1.394 . S
C2475 C2476 1.383 . S
C2475 H2483 0.929 . S
C2476 C2475 1.383 . S
C2476 C2477 1.377 . S
C2477 H2461 0.930 . S
C2477 C2476 1.377 . S
C2477 C2478 1.379 . S
C2478 H2462 0.931 . S
C2478 C2472 1.383 . S
C2478 C2477 1.379 . S
H2479 C2473 0.959 . S
H2480 C2473 0.961 . S
H2481 C2473 0.960 . S
H2482 C2474 0.930 . S
H2483 C2475 0.929 . S
H2484 C2492 0.929 . S
H2485 C2494 0.930 . S
H2486 C2496 0.930 . S
H2487 C2499 0.929 . S
H2488 C2502 0.930 . S
H2489 C2504 0.960 . S
H2490 C2504 0.960 . S
H2491 C2504 0.960 . S
C2492 H2484 0.929 . S
C2492 C2493 1.377 . S
C2492 C2494 1.384 . S
C2493 C2492 1.377 . S
C2493 C2499 1.390 . S
C2494 H2485 0.930 . S
C2494 C2492 1.384 . S
C2494 C2495 1.372 . S
C2495 C2494 1.372 . S
C2495 C2496 1.400 . S
C2495 C2500 1.490 . S
C2496 H2486 0.930 . S
C2496 C2495 1.400 . S
C2496 C2499 1.386 . S
H2497 C2513 0.930 . S
H2498 C2514 0.931 . S
C2499 H2487 0.929 . S
C2499 C2493 1.390 . S
C2499 C2496 1.386 . S
C2500 C2495 1.490 . S
C2500 C2502 1.395 . S
C2500 C2503 1.403 . S
H2501 C2507 0.930 . S
C2502 H2488 0.930 . S
C2502 C2500 1.395 . S
C2502 C2505 1.403 . S
C2503 C2500 1.403 . S
C2503 C2504 1.524 . S
C2503 C2507 1.400 . S
C2504 H2489 0.960 . S
C2504 H2490 0.960 . S
C2504 H2491 0.960 . S
C2504 C2503 1.524 . S
C2505 C2502 1.403 . S
C2505 C2506 1.392 . S
C2505 C2509 1.495 . S
C2506 C2505 1.392 . S
C2506 C2507 1.385 . S
C2506 C2508 1.478 . S
C2507 H2501 0.930 . S
C2507 C2503 1.400 . S
C2507 C2506 1.385 . S
C2508 C2506 1.478 . S
C2508 C2510 1.381 . S
C2508 C2514 1.383 . S
C2509 C2505 1.495 . S
C2509 H2515 0.959 . S
C2509 H2516 0.961 . S
C2509 H2517 0.960 . S
C2510 C2508 1.381 . S
C2510 C2511 1.394 . S
C2510 H2518 0.930 . S
C2511 C2510 1.394 . S
C2511 C2512 1.383 . S
C2511 H2519 0.929 . S
C2512 C2511 1.383 . S
C2512 C2513 1.377 . S
C2513 H2497 0.930 . S
C2513 C2512 1.377 . S
C2513 C2514 1.379 . S
C2514 H2498 0.931 . S
C2514 C2508 1.383 . S
C2514 C2513 1.379 . S
H2515 C2509 0.959 . S
H2516 C2509 0.961 . S
H2517 C2509 0.960 . S
H2518 C2510 0.930 . S
H2519 C2511 0.929 . S
H2520 C2528 0.929 . S
H2521 C2530 0.930 . S
H2522 C2532 0.930 . S
H2523 C2535 0.929 . S
H2524 C2538 0.930 . S
H2525 C2540 0.960 . S
H2526 C2540 0.960 1_455 S
H2527 C2540 0.960 1_455 S
C2528 H2520 0.929 . S
C2528 C2529 1.377 . S
C2528 C2530 1.384 . S
C2529 C2528 1.377 . S
C2529 C2535 1.390 . S
C2530 H2521 0.930 . S
C2530 C2528 1.384 . S
C2530 C2531 1.372 . S
C2531 C2530 1.372 . S
C2531 C2532 1.400 . S
C2531 C2536 1.490 1_455 S
C2532 H2522 0.930 . S
C2532 C2531 1.400 . S
C2532 C2535 1.386 . S
H2533 C2549 0.930 . S
H2534 C2550 0.931 . S
C2535 H2523 0.929 . S
C2535 C2529 1.390 . S
C2535 C2532 1.386 . S
C2536 C2531 1.490 1_655 S
C2536 C2538 1.395 . S
C2536 C2539 1.403 . S
H2537 C2543 0.930 . S
C2538 H2524 0.930 . S
C2538 C2536 1.395 . S
C2538 C2541 1.403 . S
C2539 C2536 1.403 . S
C2539 C2540 1.524 . S
C2539 C2543 1.400 . S
C2540 H2525 0.960 . S
C2540 H2526 0.960 1_655 S
C2540 H2527 0.960 1_655 S
C2540 C2539 1.524 . S
C2541 C2538 1.403 . S
C2541 C2542 1.392 . S
C2541 C2545 1.495 . S
C2542 C2541 1.392 . S
C2542 C2543 1.385 . S
C2542 C2544 1.478 . S
C2543 H2537 0.930 . S
C2543 C2539 1.400 . S
C2543 C2542 1.385 . S
C2544 C2542 1.478 . S
C2544 C2546 1.381 . S
C2544 C2550 1.383 . S
C2545 C2541 1.495 . S
C2545 H2551 0.959 . S
C2545 H2552 0.961 . S
C2545 H2553 0.960 . S
C2546 C2544 1.381 . S
C2546 C2547 1.394 . S
C2546 H2554 0.930 . S
C2547 C2546 1.394 . S
C2547 C2548 1.383 . S
C2547 H2555 0.929 . S
C2548 C2547 1.383 . S
C2548 C2549 1.377 . S
C2549 H2533 0.930 . S
C2549 C2548 1.377 . S
C2549 C2550 1.379 . S
C2550 H2534 0.931 . S
C2550 C2544 1.383 . S
C2550 C2549 1.379 . S
H2551 C2545 0.959 . S
H2552 C2545 0.961 . S
H2553 C2545 0.960 . S
H2554 C2546 0.930 . S
H2555 C2547 0.929 . S
H2556 C2564 0.929 . S
H2557 C2566 0.930 . S
H2558 C2568 0.930 . S
H2559 C2571 0.929 . S
H2560 C2574 0.930 . S
H2561 C2576 0.960 . S
H2562 C2576 0.960 . S
H2563 C2576 0.960 . S
C2564 H2556 0.929 . S
C2564 C2565 1.377 . S
C2564 C2566 1.384 . S
C2565 C2564 1.377 . S
C2565 C2571 1.390 . S
C2566 H2557 0.930 . S
C2566 C2564 1.384 . S
C2566 C2567 1.372 . S
C2567 C2566 1.372 . S
C2567 C2568 1.400 . S
C2567 C2572 1.490 . S
C2568 H2558 0.930 . S
C2568 C2567 1.400 . S
C2568 C2571 1.386 . S
H2569 C2585 0.930 . S
H2570 C2586 0.931 . S
C2571 H2559 0.929 . S
C2571 C2565 1.390 . S
C2571 C2568 1.386 . S
C2572 C2567 1.490 . S
C2572 C2574 1.395 . S
C2572 C2575 1.403 . S
H2573 C2579 0.930 . S
C2574 H2560 0.930 . S
C2574 C2572 1.395 . S
C2574 C2577 1.403 . S
C2575 C2572 1.403 . S
C2575 C2576 1.524 . S
C2575 C2579 1.400 . S
C2576 H2561 0.960 . S
C2576 H2562 0.960 . S
C2576 H2563 0.960 . S
C2576 C2575 1.524 . S
C2577 C2574 1.403 . S
C2577 C2578 1.392 . S
C2577 C2581 1.495 . S
C2578 C2577 1.392 . S
C2578 C2579 1.385 . S
C2578 C2580 1.478 . S
C2579 H2573 0.930 . S
C2579 C2575 1.400 . S
C2579 C2578 1.385 . S
C2580 C2578 1.478 . S
C2580 C2582 1.381 . S
C2580 C2586 1.383 . S
C2581 C2577 1.495 . S
C2581 H2587 0.959 . S
C2581 H2588 0.961 . S
C2581 H2589 0.960 . S
C2582 C2580 1.381 . S
C2582 C2583 1.394 . S
C2582 H2590 0.930 . S
C2583 C2582 1.394 . S
C2583 C2584 1.383 . S
C2583 H2591 0.929 . S
C2584 C2583 1.383 . S
C2584 C2585 1.377 . S
C2585 H2569 0.930 . S
C2585 C2584 1.377 . S
C2585 C2586 1.379 . S
C2586 H2570 0.931 . S
C2586 C2580 1.383 . S
C2586 C2585 1.379 . S
H2587 C2581 0.959 . S
H2588 C2581 0.961 . S
H2589 C2581 0.960 . S
H2590 C2582 0.930 . S
H2591 C2583 0.929 . S
H2592 C2600 0.929 . S
H2593 C2602 0.930 . S
H2594 C2604 0.930 . S
H2595 C2607 0.929 . S
H2596 C2610 0.930 1_565 S
H2597 C2612 0.960 . S
H2598 C2612 0.960 1_565 S
H2599 C2612 0.960 1_565 S
C2600 H2592 0.929 . S
C2600 C2601 1.377 . S
C2600 C2602 1.384 . S
C2601 C2600 1.377 . S
C2601 C2607 1.390 . S
C2602 H2593 0.930 . S
C2602 C2600 1.384 . S
C2602 C2603 1.372 . S
C2603 C2602 1.372 . S
C2603 C2604 1.400 . S
C2603 C2608 1.550 . S
C2604 H2594 0.930 . S
C2604 C2603 1.400 . S
C2604 C2607 1.386 . S
H2605 C2621 0.930 . S
H2606 C2622 0.931 . S
C2607 H2595 0.929 . S
C2607 C2601 1.390 . S
C2607 C2604 1.386 . S
C2608 C2603 1.550 . S
C2608 C2610 1.378 1_565 S
C2608 C2611 1.362 1_565 S
H2609 C2615 0.930 . S
C2610 H2596 0.930 1_545 S
C2610 C2608 1.378 1_545 S
C2610 C2613 1.403 . S
C2611 C2608 1.362 1_545 S
C2611 C2612 1.524 . S
C2611 C2615 1.400 . S
C2612 H2597 0.960 . S
C2612 H2598 0.960 1_545 S
C2612 H2599 0.960 1_545 S
C2612 C2611 1.524 . S
C2613 C2610 1.403 . S
C2613 C2614 1.392 . S
C2613 C2617 1.495 . S
C2614 C2613 1.392 . S
C2614 C2615 1.385 . S
C2614 C2616 1.478 . S
C2615 H2609 0.930 . S
C2615 C2611 1.400 . S
C2615 C2614 1.385 . S
C2616 C2614 1.478 . S
C2616 C2618 1.381 . S
C2616 C2622 1.383 . S
C2617 C2613 1.495 . S
C2617 H2623 0.959 . S
C2617 H2624 0.961 . S
C2617 H2625 0.960 . S
C2618 C2616 1.381 . S
C2618 C2619 1.394 . S
C2618 H2626 0.930 . S
C2619 C2618 1.394 . S
C2619 C2620 1.383 . S
C2619 H2627 0.929 . S
C2620 C2619 1.383 . S
C2620 C2621 1.377 . S
C2621 H2605 0.930 . S
C2621 C2620 1.377 . S
C2621 C2622 1.379 . S
C2622 H2606 0.931 . S
C2622 C2616 1.383 . S
C2622 C2621 1.379 . S
H2623 C2617 0.959 . S
H2624 C2617 0.961 . S
H2625 C2617 0.960 . S
H2626 C2618 0.930 . S
H2627 C2619 0.929 . S
H2628 C2636 0.929 . S
H2629 C2638 0.930 . S
H2630 C2640 0.930 . S
H2631 C2643 0.929 . S
H2632 C2646 0.930 . S
H2633 C2648 0.960 . S
H2634 C2648 0.960 . S
H2635 C2648 0.960 . S
C2636 H2628 0.929 . S
C2636 C2637 1.377 . S
C2636 C2638 1.384 . S
C2637 C2636 1.377 . S
C2637 C2643 1.390 . S
C2638 H2629 0.930 . S
C2638 C2636 1.384 . S
C2638 C2639 1.372 . S
C2639 C2638 1.372 . S
C2639 C2640 1.400 . S
C2639 C2644 1.490 . S
C2640 H2630 0.930 . S
C2640 C2639 1.400 . S
C2640 C2643 1.386 . S
H2641 C2657 0.930 . S
H2642 C2658 0.931 . S
C2643 H2631 0.929 . S
C2643 C2637 1.390 . S
C2643 C2640 1.386 . S
C2644 C2639 1.490 . S
C2644 C2646 1.395 . S
C2644 C2647 1.403 . S
H2645 C2651 0.930 . S
C2646 H2632 0.930 . S
C2646 C2644 1.395 . S
C2646 C2649 1.403 . S
C2647 C2644 1.403 . S
C2647 C2648 1.524 . S
C2647 C2651 1.400 . S
C2648 H2633 0.960 . S
C2648 H2634 0.960 . S
C2648 H2635 0.960 . S
C2648 C2647 1.524 . S
C2649 C2646 1.403 . S
C2649 C2650 1.392 . S
C2649 C2653 1.495 . S
C2650 C2649 1.392 . S
C2650 C2651 1.385 . S
C2650 C2652 1.478 . S
C2651 H2645 0.930 . S
C2651 C2647 1.400 . S
C2651 C2650 1.385 . S
C2652 C2650 1.478 . S
C2652 C2654 1.381 . S
C2652 C2658 1.383 . S
C2653 C2649 1.495 . S
C2653 H2659 0.959 . S
C2653 H2660 0.961 . S
C2653 H2661 0.960 . S
C2654 C2652 1.381 . S
C2654 C2655 1.394 . S
C2654 H2662 0.930 . S
C2655 C2654 1.394 . S
C2655 C2656 1.383 . S
C2655 H2663 0.929 . S
C2656 C2655 1.383 . S
C2656 C2657 1.377 . S
C2657 H2641 0.930 . S
C2657 C2656 1.377 . S
C2657 C2658 1.379 . S
C2658 H2642 0.931 . S
C2658 C2652 1.383 . S
C2658 C2657 1.379 . S
H2659 C2653 0.959 . S
H2660 C2653 0.961 . S
H2661 C2653 0.960 . S
H2662 C2654 0.930 . S
H2663 C2655 0.929 . S
H2664 C2672 0.929 . S
H2665 C2674 0.930 . S
H2666 C2676 0.930 . S
H2667 C2679 0.929 . S
H2668 C2682 0.930 . S
H2669 C2684 0.960 . S
H2670 C2684 0.960 . S
H2671 C2684 0.960 . S
C2672 H2664 0.929 . S
C2672 C2673 1.377 . S
C2672 C2674 1.384 . S
C2673 C2672 1.377 . S
C2673 C2679 1.390 . S
C2674 H2665 0.930 . S
C2674 C2672 1.384 . S
C2674 C2675 1.372 . S
C2675 C2674 1.372 . S
C2675 C2676 1.400 . S
C2675 C2680 1.490 . S
C2676 H2666 0.930 . S
C2676 C2675 1.400 . S
C2676 C2679 1.386 . S
H2677 C2693 0.930 . S
H2678 C2694 0.931 . S
C2679 H2667 0.929 . S
C2679 C2673 1.390 . S
C2679 C2676 1.386 . S
C2680 C2675 1.490 . S
C2680 C2682 1.395 . S
C2680 C2683 1.403 . S
H2681 C2687 0.930 . S
C2682 H2668 0.930 . S
C2682 C2680 1.395 . S
C2682 C2685 1.403 . S
C2683 C2680 1.403 . S
C2683 C2684 1.524 . S
C2683 C2687 1.400 . S
C2684 H2669 0.960 . S
C2684 H2670 0.960 . S
C2684 H2671 0.960 . S
C2684 C2683 1.524 . S
C2685 C2682 1.403 . S
C2685 C2686 1.392 . S
C2685 C2689 1.495 . S
C2686 C2685 1.392 . S
C2686 C2687 1.385 . S
C2686 C2688 1.478 . S
C2687 H2681 0.930 . S
C2687 C2683 1.400 . S
C2687 C2686 1.385 . S
C2688 C2686 1.478 . S
C2688 C2690 1.381 . S
C2688 C2694 1.383 . S
C2689 C2685 1.495 . S
C2689 H2695 0.959 . S
C2689 H2696 0.961 . S
C2689 H2697 0.960 . S
C2690 C2688 1.381 . S
C2690 C2691 1.394 . S
C2690 H2698 0.930 . S
C2691 C2690 1.394 . S
C2691 C2692 1.383 . S
C2691 H2699 0.929 . S
C2692 C2691 1.383 . S
C2692 C2693 1.377 . S
C2693 H2677 0.930 . S
C2693 C2692 1.377 . S
C2693 C2694 1.379 . S
C2694 H2678 0.931 . S
C2694 C2688 1.383 . S
C2694 C2693 1.379 . S
H2695 C2689 0.959 . S
H2696 C2689 0.961 . S
H2697 C2689 0.960 . S
H2698 C2690 0.930 . S
H2699 C2691 0.929 . S
H2700 C2708 0.929 . S
H2701 C2710 0.930 . S
H2702 C2712 0.930 . S
H2703 C2715 0.929 . S
H2704 C2718 0.930 . S
H2705 C2720 0.960 . S
H2706 C2720 0.960 . S
H2707 C2720 0.960 . S
C2708 H2700 0.929 . S
C2708 C2709 1.377 . S
C2708 C2710 1.384 . S
C2709 C2708 1.377 . S
C2709 C2715 1.390 . S
C2710 H2701 0.930 . S
C2710 C2708 1.384 . S
C2710 C2711 1.372 . S
C2711 C2710 1.372 . S
C2711 C2712 1.400 . S
C2711 C2716 1.490 . S
C2712 H2702 0.930 . S
C2712 C2711 1.400 . S
C2712 C2715 1.386 . S
H2713 C2729 0.930 . S
H2714 C2730 0.931 . S
C2715 H2703 0.929 . S
C2715 C2709 1.390 . S
C2715 C2712 1.386 . S
C2716 C2711 1.490 . S
C2716 C2718 1.395 . S
C2716 C2719 1.403 . S
H2717 C2723 0.930 . S
C2718 H2704 0.930 . S
C2718 C2716 1.395 . S
C2718 C2721 1.403 . S
C2719 C2716 1.403 . S
C2719 C2720 1.524 . S
C2719 C2723 1.400 . S
C2720 H2705 0.960 . S
C2720 H2706 0.960 . S
C2720 H2707 0.960 . S
C2720 C2719 1.524 . S
C2721 C2718 1.403 . S
C2721 C2722 1.392 . S
C2721 C2725 1.495 . S
C2722 C2721 1.392 . S
C2722 C2723 1.385 . S
C2722 C2724 1.478 . S
C2723 H2717 0.930 . S
C2723 C2719 1.400 . S
C2723 C2722 1.385 . S
C2724 C2722 1.478 . S
C2724 C2726 1.381 . S
C2724 C2730 1.383 . S
C2725 C2721 1.495 . S
C2725 H2731 0.959 . S
C2725 H2732 0.961 . S
C2725 H2733 0.960 . S
C2726 C2724 1.381 . S
C2726 C2727 1.394 . S
C2726 H2734 0.930 . S
C2727 C2726 1.394 . S
C2727 C2728 1.383 . S
C2727 H2735 0.929 . S
C2728 C2727 1.383 . S
C2728 C2729 1.377 . S
C2729 H2713 0.930 . S
C2729 C2728 1.377 . S
C2729 C2730 1.379 . S
C2730 H2714 0.931 . S
C2730 C2724 1.383 . S
C2730 C2729 1.379 . S
H2731 C2725 0.959 . S
H2732 C2725 0.961 . S
H2733 C2725 0.960 . S
H2734 C2726 0.930 . S
H2735 C2727 0.929 . S
H2736 C2744 0.929 . S
H2737 C2746 0.930 . S
H2738 C2748 0.930 . S
H2739 C2751 0.929 . S
H2740 C2754 0.930 . S
H2741 C2756 0.960 . S
H2742 C2756 0.960 . S
H2743 C2756 0.960 . S
C2744 H2736 0.929 . S
C2744 C2745 1.377 . S
C2744 C2746 1.384 . S
C2745 C2744 1.377 . S
C2745 C2751 1.390 . S
C2746 H2737 0.930 . S
C2746 C2744 1.384 . S
C2746 C2747 1.372 . S
C2747 C2746 1.372 . S
C2747 C2748 1.400 . S
C2747 C2752 1.490 . S
C2748 H2738 0.930 . S
C2748 C2747 1.400 . S
C2748 C2751 1.386 . S
H2749 C2765 0.930 . S
H2750 C2766 0.938 . S
C2751 H2739 0.929 . S
C2751 C2745 1.390 . S
C2751 C2748 1.386 . S
C2752 C2747 1.490 . S
C2752 C2754 1.395 . S
C2752 C2755 1.403 . S
H2753 C2759 0.930 . S
C2754 H2740 0.930 . S
C2754 C2752 1.395 . S
C2754 C2757 1.403 . S
C2755 C2752 1.403 . S
C2755 C2756 1.524 . S
C2755 C2759 1.400 . S
C2756 H2741 0.960 . S
C2756 H2742 0.960 . S
C2756 H2743 0.960 . S
C2756 C2755 1.524 . S
C2757 C2754 1.403 . S
C2757 C2758 1.392 . S
C2757 C2761 1.495 . S
C2758 C2757 1.392 . S
C2758 C2759 1.385 . S
C2758 C2760 1.478 . S
C2759 H2753 0.930 . S
C2759 C2755 1.400 . S
C2759 C2758 1.385 . S
C2760 C2758 1.478 . S
C2760 C2762 1.381 . S
C2760 C2766 1.372 1_565 S
C2761 C2757 1.495 . S
C2761 H2767 0.959 . S
C2761 H2768 0.961 . S
C2761 H2769 0.960 . S
C2762 C2760 1.381 . S
C2762 C2763 1.394 . S
C2762 H2770 0.930 . S
C2763 C2762 1.394 . S
C2763 C2764 1.383 . S
C2763 H2771 0.929 . S
C2764 C2763 1.383 . S
C2764 C2765 1.377 1_565 S
C2765 H2749 0.930 . S
C2765 C2764 1.377 1_545 S
C2765 C2766 1.384 . S
C2766 H2750 0.938 . S
C2766 C2760 1.372 1_545 S
C2766 C2765 1.384 . S
H2767 C2761 0.959 . S
H2768 C2761 0.961 . S
H2769 C2761 0.960 . S
H2770 C2762 0.930 . S
H2771 C2763 0.929 . S
H2772 C2780 0.929 . S
H2773 C2782 0.930 . S
H2774 C2784 0.935 1_655 S
H2775 C2787 0.929 1_655 S
H2776 C2790 0.930 . S
H2777 C2792 0.960 . S
H2778 C2792 0.960 . S
H2779 C2792 0.960 . S
C2780 H2772 0.929 . S
C2780 C2781 1.377 . S
C2780 C2782 1.384 . S
C2781 C2780 1.377 . S
C2781 C2787 1.390 . S
C2782 H2773 0.930 . S
C2782 C2780 1.384 . S
C2782 C2783 1.372 . S
C2783 C2782 1.372 . S
C2783 C2784 1.400 . S
C2783 C2788 1.490 . S
C2784 H2774 0.935 1_455 S
C2784 C2783 1.400 . S
C2784 C2787 1.386 . S
H2785 C2801 0.930 1_655 S
H2786 C2802 0.898 1_655 S
C2787 H2775 0.929 1_455 S
C2787 C2781 1.390 . S
C2787 C2784 1.386 . S
C2788 C2783 1.490 . S
C2788 C2790 1.395 1_455 S
C2788 C2791 1.403 . S
H2789 C2795 0.930 . S
C2790 H2776 0.930 . S
C2790 C2788 1.395 1_655 S
C2790 C2793 1.403 . S
C2791 C2788 1.403 . S
C2791 C2792 1.524 . S
C2791 C2795 1.400 . S
C2792 H2777 0.960 . S
C2792 H2778 0.960 . S
C2792 H2779 0.960 . S
C2792 C2791 1.524 . S
C2793 C2790 1.403 . S
C2793 C2794 1.392 1_655 S
C2793 C2797 1.495 . S
C2794 C2793 1.392 1_455 S
C2794 C2795 1.385 . S
C2794 C2796 1.478 . S
C2795 H2789 0.930 . S
C2795 C2791 1.400 . S
C2795 C2794 1.385 . S
C2796 C2794 1.478 . S
C2796 C2798 1.381 . S
C2796 C2802 1.412 . S
C2797 C2793 1.495 . S
C2797 H2803 0.959 . S
C2797 H2804 0.961 . S
C2797 H2805 0.960 . S
C2798 C2796 1.381 . S
C2798 C2799 1.394 . S
C2798 H2806 0.930 . S
C2799 C2798 1.394 . S
C2799 C2800 1.383 . S
C2799 H2807 0.929 . S
C2800 C2799 1.383 . S
C2800 C2801 1.377 . S
C2801 H2785 0.930 1_455 S
C2801 C2800 1.377 . S
C2801 C2802 1.384 . S
C2802 H2786 0.898 1_455 S
C2802 C2796 1.412 . S
C2802 C2801 1.384 . S
H2803 C2797 0.959 . S
H2804 C2797 0.961 . S
H2805 C2797 0.960 . S
H2806 C2798 0.930 . S
H2807 C2799 0.929 . S
H2808 C2816 0.929 . S
H2809 C2818 0.930 . S
H2810 C2820 0.930 . S
H2811 C2823 0.929 . S
H2812 C2826 0.930 . S
H2813 C2828 0.960 . S
H2814 C2828 0.960 . S
H2815 C2828 0.960 . S
C2816 H2808 0.929 . S
C2816 C2817 1.377 . S
C2816 C2818 1.384 . S
C2817 C2816 1.377 . S
C2817 C2823 1.390 . S
C2818 H2809 0.930 . S
C2818 C2816 1.384 . S
C2818 C2819 1.372 . S
C2819 C2818 1.372 . S
C2819 C2820 1.400 . S
C2819 C2824 1.490 . S
C2820 H2810 0.930 . S
C2820 C2819 1.400 . S
C2820 C2823 1.386 . S
H2821 C2837 0.930 . S
H2822 C2838 0.931 . S
C2823 H2811 0.929 . S
C2823 C2817 1.390 . S
C2823 C2820 1.386 . S
C2824 C2819 1.490 . S
C2824 C2826 1.395 . S
C2824 C2827 1.403 . S
H2825 C2831 0.930 . S
C2826 H2812 0.930 . S
C2826 C2824 1.395 . S
C2826 C2829 1.403 . S
C2827 C2824 1.403 . S
C2827 C2828 1.524 . S
C2827 C2831 1.400 . S
C2828 H2813 0.960 . S
C2828 H2814 0.960 . S
C2828 H2815 0.960 . S
C2828 C2827 1.524 . S
C2829 C2826 1.403 . S
C2829 C2830 1.392 . S
C2829 C2833 1.495 . S
C2830 C2829 1.392 . S
C2830 C2831 1.385 . S
C2830 C2832 1.478 . S
C2831 H2825 0.930 . S
C2831 C2827 1.400 . S
C2831 C2830 1.385 . S
C2832 C2830 1.478 . S
C2832 C2834 1.381 . S
C2832 C2838 1.383 . S
C2833 C2829 1.495 . S
C2833 H2839 0.959 . S
C2833 H2840 0.961 . S
C2833 H2841 0.960 . S
C2834 C2832 1.381 . S
C2834 C2835 1.394 . S
C2834 H2842 0.930 . S
C2835 C2834 1.394 . S
C2835 C2836 1.383 . S
C2835 H2843 0.929 . S
C2836 C2835 1.383 . S
C2836 C2837 1.377 . S
C2837 H2821 0.930 . S
C2837 C2836 1.377 . S
C2837 C2838 1.379 . S
C2838 H2822 0.931 . S
C2838 C2832 1.383 . S
C2838 C2837 1.379 . S
H2839 C2833 0.959 . S
H2840 C2833 0.961 . S
H2841 C2833 0.960 . S
H2842 C2834 0.930 . S
H2843 C2835 0.929 . S
H2844 C2852 0.929 . S
H2845 C2854 0.930 . S
H2846 C2856 0.930 . S
H2847 C2859 0.929 . S
H2848 C2862 0.930 . S
H2849 C2864 0.960 . S
H2850 C2864 0.960 . S
H2851 C2864 0.960 . S
C2852 H2844 0.929 . S
C2852 C2853 1.377 . S
C2852 C2854 1.384 . S
C2853 C2852 1.377 . S
C2853 C2859 1.390 1_655 S
C2854 H2845 0.930 . S
C2854 C2852 1.384 . S
C2854 C2855 1.372 . S
C2855 C2854 1.372 . S
C2855 C2856 1.400 1_655 S
C2855 C2860 1.490 . S
C2856 H2846 0.930 . S
C2856 C2855 1.400 1_455 S
C2856 C2859 1.386 . S
H2857 C2873 0.930 . S
H2858 C2874 0.931 . S
C2859 H2847 0.929 . S
C2859 C2853 1.390 1_455 S
C2859 C2856 1.386 . S
C2860 C2855 1.490 . S
C2860 C2862 1.395 . S
C2860 C2863 1.403 . S
H2861 C2867 0.930 . S
C2862 H2848 0.930 . S
C2862 C2860 1.395 . S
C2862 C2865 1.403 . S
C2863 C2860 1.403 . S
C2863 C2864 1.524 . S
C2863 C2867 1.400 . S
C2864 H2849 0.960 . S
C2864 H2850 0.960 . S
C2864 H2851 0.960 . S
C2864 C2863 1.524 . S
C2865 C2862 1.403 . S
C2865 C2866 1.392 . S
C2865 C2869 1.495 . S
C2866 C2865 1.392 . S
C2866 C2867 1.385 . S
C2866 C2868 1.478 . S
C2867 H2861 0.930 . S
C2867 C2863 1.400 . S
C2867 C2866 1.385 . S
C2868 C2866 1.478 . S
C2868 C2870 1.381 . S
C2868 C2874 1.383 1_655 S
C2869 C2865 1.495 . S
C2869 H2875 0.959 . S
C2869 H2876 0.961 1_655 S
C2869 H2877 0.960 . S
C2870 C2868 1.381 . S
C2870 C2871 1.394 . S
C2870 H2878 0.930 . S
C2871 C2870 1.394 . S
C2871 C2872 1.383 . S
C2871 H2879 0.929 . S
C2872 C2871 1.383 . S
C2872 C2873 1.377 1_655 S
C2873 H2857 0.930 . S
C2873 C2872 1.377 1_455 S
C2873 C2874 1.379 . S
C2874 H2858 0.931 . S
C2874 C2868 1.383 1_455 S
C2874 C2873 1.379 . S
H2875 C2869 0.959 . S
H2876 C2869 0.961 1_455 S
H2877 C2869 0.960 . S
H2878 C2870 0.930 . S
H2879 C2871 0.929 . S
H2880 C2888 0.929 . S
H2881 C2890 0.930 . S
H2882 C2892 0.930 . S
H2883 C2895 0.929 . S
H2884 C2898 0.930 . S
H2885 C2900 0.960 . S
H2886 C2900 0.960 . S
H2887 C2900 0.960 . S
C2888 H2880 0.929 . S
C2888 C2889 1.377 . S
C2888 C2890 1.384 . S
C2889 C2888 1.377 . S
C2889 C2895 1.390 . S
C2890 H2881 0.930 . S
C2890 C2888 1.384 . S
C2890 C2891 1.372 . S
C2891 C2890 1.372 . S
C2891 C2892 1.400 . S
C2891 C2896 1.490 . S
C2892 H2882 0.930 . S
C2892 C2891 1.400 . S
C2892 C2895 1.386 . S
H2893 C2909 0.930 . S
H2894 C2910 0.931 . S
C2895 H2883 0.929 . S
C2895 C2889 1.390 . S
C2895 C2892 1.386 . S
C2896 C2891 1.490 . S
C2896 C2898 1.395 . S
C2896 C2899 1.403 . S
H2897 C2903 0.930 . S
C2898 H2884 0.930 . S
C2898 C2896 1.395 . S
C2898 C2901 1.403 . S
C2899 C2896 1.403 . S
C2899 C2900 1.524 . S
C2899 C2903 1.400 . S
C2900 H2885 0.960 . S
C2900 H2886 0.960 . S
C2900 H2887 0.960 . S
C2900 C2899 1.524 . S
C2901 C2898 1.403 . S
C2901 C2902 1.392 . S
C2901 C2905 1.495 . S
C2902 C2901 1.392 . S
C2902 C2903 1.385 . S
C2902 C2904 1.478 . S
C2903 H2897 0.930 . S
C2903 C2899 1.400 . S
C2903 C2902 1.385 . S
C2904 C2902 1.478 . S
C2904 C2906 1.381 . S
C2904 C2910 1.383 . S
C2905 C2901 1.495 . S
C2905 H2911 0.959 . S
C2905 H2912 0.961 . S
C2905 H2913 0.960 . S
C2906 C2904 1.381 . S
C2906 C2907 1.394 . S
C2906 H2914 0.930 . S
C2907 C2906 1.394 . S
C2907 C2908 1.383 . S
C2907 H2915 0.929 . S
C2908 C2907 1.383 . S
C2908 C2909 1.377 . S
C2909 H2893 0.930 . S
C2909 C2908 1.377 . S
C2909 C2910 1.379 . S
C2910 H2894 0.931 . S
C2910 C2904 1.383 . S
C2910 C2909 1.379 . S
H2911 C2905 0.959 . S
H2912 C2905 0.961 . S
H2913 C2905 0.960 . S
H2914 C2906 0.930 . S
H2915 C2907 0.929 . S
H2916 C2924 0.929 . S
H2917 C2926 0.930 . S
H2918 C2928 0.930 . S
H2919 C2931 0.929 . S
H2920 C2934 0.952 . S
H2921 C2936 0.960 . S
H2922 C2936 0.960 . S
H2923 C2936 0.960 . S
C2924 H2916 0.929 . S
C2924 C2925 1.377 . S
C2924 C2926 1.384 . S
C2925 C2924 1.377 . S
C2925 C2931 1.390 . S
C2926 H2917 0.930 . S
C2926 C2924 1.384 . S
C2926 C2927 1.372 . S
C2927 C2926 1.372 . S
C2927 C2928 1.400 . S
C2927 C2932 1.490 . S
C2928 H2918 0.930 . S
C2928 C2927 1.400 . S
C2928 C2931 1.386 . S
H2929 C2945 0.930 . S
H2930 C2946 0.931 . S
C2931 H2919 0.929 . S
C2931 C2925 1.390 . S
C2931 C2928 1.386 . S
C2932 C2927 1.490 . S
C2932 C2934 1.395 . S
C2932 C2935 1.403 . S
H2933 C2939 0.930 . S
C2934 H2920 0.952 . S
C2934 C2932 1.395 . S
C2934 C2937 1.403 . S
C2935 C2932 1.403 . S
C2935 C2936 1.524 . S
C2935 C2939 1.400 . S
C2936 H2921 0.960 . S
C2936 H2922 0.960 . S
C2936 H2923 0.960 . S
C2936 C2935 1.524 . S
C2937 C2934 1.403 . S
C2937 C2938 1.392 . S
C2937 C2941 1.495 1_545 S
C2938 C2937 1.392 . S
C2938 C2939 1.385 . S
C2938 C2940 1.478 . S
C2939 H2933 0.930 . S
C2939 C2935 1.400 . S
C2939 C2938 1.385 . S
C2940 C2938 1.478 . S
C2940 C2942 1.381 . S
C2940 C2946 1.383 . S
C2941 C2937 1.495 1_565 S
C2941 H2947 0.959 . S
C2941 H2948 0.961 . S
C2941 H2949 0.960 . S
C2942 C2940 1.381 . S
C2942 C2943 1.394 . S
C2942 H2950 0.930 . S
C2943 C2942 1.394 . S
C2943 C2944 1.383 . S
C2943 H2951 0.929 . S
C2944 C2943 1.383 . S
C2944 C2945 1.377 . S
C2945 H2929 0.930 . S
C2945 C2944 1.377 . S
C2945 C2946 1.379 . S
C2946 H2930 0.931 . S
C2946 C2940 1.383 . S
C2946 C2945 1.379 . S
H2947 C2941 0.959 . S
H2948 C2941 0.961 . S
H2949 C2941 0.960 . S
H2950 C2942 0.930 . S
H2951 C2943 0.929 . S
H2952 C2960 0.929 . S
H2953 C2962 0.930 . S
H2954 C2964 0.930 . S
H2955 C2967 0.929 . S
H2956 C2970 0.930 . S
H2957 C2972 0.960 . S
H2958 C2972 0.960 . S
H2959 C2972 0.960 . S
C2960 H2952 0.929 . S
C2960 C2961 1.377 . S
C2960 C2962 1.384 . S
C2961 C2960 1.377 . S
C2961 C2967 1.390 . S
C2962 H2953 0.930 . S
C2962 C2960 1.384 . S
C2962 C2963 1.372 . S
C2963 C2962 1.372 . S
C2963 C2964 1.400 . S
C2963 C2968 1.490 . S
C2964 H2954 0.930 . S
C2964 C2963 1.400 . S
C2964 C2967 1.386 . S
H2965 C2981 0.930 . S
H2966 C2982 0.931 . S
C2967 H2955 0.929 . S
C2967 C2961 1.390 . S
C2967 C2964 1.386 . S
C2968 C2963 1.490 . S
C2968 C2970 1.395 . S
C2968 C2971 1.403 . S
H2969 C2975 0.930 . S
C2970 H2956 0.930 . S
C2970 C2968 1.395 . S
C2970 C2973 1.403 . S
C2971 C2968 1.403 . S
C2971 C2972 1.524 . S
C2971 C2975 1.400 . S
C2972 H2957 0.960 . S
C2972 H2958 0.960 . S
C2972 H2959 0.960 . S
C2972 C2971 1.524 . S
C2973 C2970 1.403 . S
C2973 C2974 1.392 . S
C2973 C2977 1.495 . S
C2974 C2973 1.392 . S
C2974 C2975 1.385 . S
C2974 C2976 1.478 . S
C2975 H2969 0.930 . S
C2975 C2971 1.400 . S
C2975 C2974 1.385 . S
C2976 C2974 1.478 . S
C2976 C2978 1.381 . S
C2976 C2982 1.383 . S
C2977 C2973 1.495 . S
C2977 H2983 0.959 . S
C2977 H2984 0.961 . S
C2977 H2985 0.960 . S
C2978 C2976 1.381 . S
C2978 C2979 1.394 . S
C2978 H2986 0.930 . S
C2979 C2978 1.394 . S
C2979 C2980 1.383 . S
C2979 H2987 0.929 . S
C2980 C2979 1.383 . S
C2980 C2981 1.377 . S
C2981 H2965 0.930 . S
C2981 C2980 1.377 . S
C2981 C2982 1.379 . S
C2982 H2966 0.931 . S
C2982 C2976 1.383 . S
C2982 C2981 1.379 . S
H2983 C2977 0.959 . S
H2984 C2977 0.961 . S
H2985 C2977 0.960 . S
H2986 C2978 0.930 . S
H2987 C2979 0.929 . S
H2988 C2996 0.929 . S
H2989 C2998 0.930 . S
H2990 C3000 0.930 . S
H2991 C3003 0.929 . S
H2992 C3006 0.930 . S
H2993 C3008 0.960 . S
H2994 C3008 0.960 . S
H2995 C3008 0.960 . S
C2996 H2988 0.929 . S
C2996 C2997 1.377 . S
C2996 C2998 1.384 . S
C2997 C2996 1.377 . S
C2997 C3003 1.390 . S
C2998 H2989 0.930 . S
C2998 C2996 1.384 . S
C2998 C2999 1.372 . S
C2999 C2998 1.372 . S
C2999 C3000 1.400 . S
C2999 C3004 1.490 . S
C3000 H2990 0.930 . S
C3000 C2999 1.400 . S
C3000 C3003 1.386 . S
H3001 C3017 0.930 . S
H3002 C3018 0.931 . S
C3003 H2991 0.929 . S
C3003 C2997 1.390 . S
C3003 C3000 1.386 . S
C3004 C2999 1.490 . S
C3004 C3006 1.395 . S
C3004 C3007 1.403 . S
H3005 C3011 0.930 . S
C3006 H2992 0.930 . S
C3006 C3004 1.395 . S
C3006 C3009 1.403 . S
C3007 C3004 1.403 . S
C3007 C3008 1.524 . S
C3007 C3011 1.400 . S
C3008 H2993 0.960 . S
C3008 H2994 0.960 . S
C3008 H2995 0.960 . S
C3008 C3007 1.524 . S
C3009 C3006 1.403 . S
C3009 C3010 1.392 . S
C3009 C3013 1.495 . S
C3010 C3009 1.392 . S
C3010 C3011 1.385 . S
C3010 C3012 1.478 . S
C3011 H3005 0.930 . S
C3011 C3007 1.400 . S
C3011 C3010 1.385 . S
C3012 C3010 1.478 . S
C3012 C3014 1.381 . S
C3012 C3018 1.383 . S
C3013 C3009 1.495 . S
C3013 H3019 0.959 . S
C3013 H3020 0.961 . S
C3013 H3021 0.960 . S
C3014 C3012 1.381 . S
C3014 C3015 1.394 . S
C3014 H3022 0.930 . S
C3015 C3014 1.394 . S
C3015 C3016 1.383 . S
C3015 H3023 0.929 . S
C3016 C3015 1.383 . S
C3016 C3017 1.377 . S
C3017 H3001 0.930 . S
C3017 C3016 1.377 . S
C3017 C3018 1.379 . S
C3018 H3002 0.931 . S
C3018 C3012 1.383 . S
C3018 C3017 1.379 . S
H3019 C3013 0.959 . S
H3020 C3013 0.961 . S
H3021 C3013 0.960 . S
H3022 C3014 0.930 . S
H3023 C3015 0.929 . S
H3024 C3032 0.929 . S
H3025 C3034 0.930 . S
H3026 C3036 0.930 . S
H3027 C3039 0.929 . S
H3028 C3042 0.930 . S
H3029 C3044 0.960 . S
H3030 C3044 0.960 . S
H3031 C3044 0.960 . S
C3032 H3024 0.929 . S
C3032 C3033 1.377 . S
C3032 C3034 1.384 . S
C3033 C3032 1.377 . S
C3033 C3039 1.390 . S
C3034 H3025 0.930 . S
C3034 C3032 1.384 . S
C3034 C3035 1.372 . S
C3035 C3034 1.372 . S
C3035 C3036 1.400 . S
C3035 C3040 1.490 . S
C3036 H3026 0.930 . S
C3036 C3035 1.400 . S
C3036 C3039 1.386 . S
H3037 C3053 0.930 . S
H3038 C3054 0.931 . S
C3039 H3027 0.929 . S
C3039 C3033 1.390 . S
C3039 C3036 1.386 . S
C3040 C3035 1.490 . S
C3040 C3042 1.395 . S
C3040 C3043 1.403 . S
H3041 C3047 0.930 . S
C3042 H3028 0.930 . S
C3042 C3040 1.395 . S
C3042 C3045 1.403 . S
C3043 C3040 1.403 . S
C3043 C3044 1.524 . S
C3043 C3047 1.400 . S
C3044 H3029 0.960 . S
C3044 H3030 0.960 . S
C3044 H3031 0.960 . S
C3044 C3043 1.524 . S
C3045 C3042 1.403 . S
C3045 C3046 1.392 . S
C3045 C3049 1.495 . S
C3046 C3045 1.392 . S
C3046 C3047 1.385 . S
C3046 C3048 1.478 . S
C3047 H3041 0.930 . S
C3047 C3043 1.400 . S
C3047 C3046 1.385 . S
C3048 C3046 1.478 . S
C3048 C3050 1.381 . S
C3048 C3054 1.383 . S
C3049 C3045 1.495 . S
C3049 H3055 0.959 . S
C3049 H3056 0.961 . S
C3049 H3057 0.960 . S
C3050 C3048 1.381 . S
C3050 C3051 1.394 . S
C3050 H3058 0.930 . S
C3051 C3050 1.394 . S
C3051 C3052 1.383 . S
C3051 H3059 0.929 . S
C3052 C3051 1.383 . S
C3052 C3053 1.377 . S
C3053 H3037 0.930 . S
C3053 C3052 1.377 . S
C3053 C3054 1.379 . S
C3054 H3038 0.931 . S
C3054 C3048 1.383 . S
C3054 C3053 1.379 . S
H3055 C3049 0.959 . S
H3056 C3049 0.961 . S
H3057 C3049 0.960 . S
H3058 C3050 0.930 . S
H3059 C3051 0.929 . S
H3060 C3068 0.929 . S
H3061 C3070 0.930 . S
H3062 C3072 0.930 . S
H3063 C3075 0.929 . S
H3064 C3078 0.930 . S
H3065 C3080 0.960 . S
H3066 C3080 0.960 . S
H3067 C3080 0.960 . S
C3068 H3060 0.929 . S
C3068 C3069 1.377 . S
C3068 C3070 1.384 . S
C3069 C3068 1.377 . S
C3069 C3075 1.390 . S
C3070 H3061 0.930 . S
C3070 C3068 1.384 . S
C3070 C3071 1.372 . S
C3071 C3070 1.372 . S
C3071 C3072 1.400 . S
C3071 C3076 1.490 . S
C3072 H3062 0.930 . S
C3072 C3071 1.400 . S
C3072 C3075 1.386 . S
H3073 C3089 0.930 . S
H3074 C3090 0.931 . S
C3075 H3063 0.929 . S
C3075 C3069 1.390 . S
C3075 C3072 1.386 . S
C3076 C3071 1.490 . S
C3076 C3078 1.395 . S
C3076 C3079 1.403 . S
H3077 C3083 0.930 . S
C3078 H3064 0.930 . S
C3078 C3076 1.395 . S
C3078 C3081 1.403 . S
C3079 C3076 1.403 . S
C3079 C3080 1.524 . S
C3079 C3083 1.400 . S
C3080 H3065 0.960 . S
C3080 H3066 0.960 . S
C3080 H3067 0.960 . S
C3080 C3079 1.524 . S
C3081 C3078 1.403 . S
C3081 C3082 1.392 . S
C3081 C3085 1.495 . S
C3082 C3081 1.392 . S
C3082 C3083 1.385 . S
C3082 C3084 1.478 . S
C3083 H3077 0.930 . S
C3083 C3079 1.400 . S
C3083 C3082 1.385 . S
C3084 C3082 1.478 . S
C3084 C3086 1.381 . S
C3084 C3090 1.383 . S
C3085 C3081 1.495 . S
C3085 H3091 0.959 . S
C3085 H3092 0.961 . S
C3085 H3093 0.960 . S
C3086 C3084 1.381 . S
C3086 C3087 1.394 . S
C3086 H3094 0.930 . S
C3087 C3086 1.394 . S
C3087 C3088 1.383 . S
C3087 H3095 0.929 . S
C3088 C3087 1.383 . S
C3088 C3089 1.377 . S
C3089 H3073 0.930 . S
C3089 C3088 1.377 . S
C3089 C3090 1.379 . S
C3090 H3074 0.931 . S
C3090 C3084 1.383 . S
C3090 C3089 1.379 . S
H3091 C3085 0.959 . S
H3092 C3085 0.961 . S
H3093 C3085 0.960 . S
H3094 C3086 0.930 . S
H3095 C3087 0.929 . S
H3096 C3104 0.929 . S
H3097 C3106 0.930 . S
H3098 C3108 0.930 . S
H3099 C3111 0.929 . S
H3100 C3114 0.930 . S
H3101 C3116 0.960 . S
H3102 C3116 0.960 . S
H3103 C3116 0.960 . S
C3104 H3096 0.929 . S
C3104 C3105 1.377 . S
C3104 C3106 1.384 . S
C3105 C3104 1.377 . S
C3105 C3111 1.390 . S
C3106 H3097 0.930 . S
C3106 C3104 1.384 . S
C3106 C3107 1.372 . S
C3107 C3106 1.372 . S
C3107 C3108 1.400 . S
C3107 C3112 1.490 . S
C3108 H3098 0.930 . S
C3108 C3107 1.400 . S
C3108 C3111 1.386 . S
H3109 C3125 0.930 . S
H3110 C3126 0.931 . S
C3111 H3099 0.929 . S
C3111 C3105 1.390 . S
C3111 C3108 1.386 . S
C3112 C3107 1.490 . S
C3112 C3114 1.395 . S
C3112 C3115 1.403 . S
H3113 C3119 0.930 . S
C3114 H3100 0.930 . S
C3114 C3112 1.395 . S
C3114 C3117 1.403 . S
C3115 C3112 1.403 . S
C3115 C3116 1.524 . S
C3115 C3119 1.400 . S
C3116 H3101 0.960 . S
C3116 H3102 0.960 . S
C3116 H3103 0.960 . S
C3116 C3115 1.524 . S
C3117 C3114 1.403 . S
C3117 C3118 1.392 . S
C3117 C3121 1.495 . S
C3118 C3117 1.392 . S
C3118 C3119 1.385 . S
C3118 C3120 1.478 . S
C3119 H3113 0.930 . S
C3119 C3115 1.400 . S
C3119 C3118 1.385 . S
C3120 C3118 1.478 . S
C3120 C3122 1.381 . S
C3120 C3126 1.383 . S
C3121 C3117 1.495 . S
C3121 H3127 0.959 . S
C3121 H3128 0.961 . S
C3121 H3129 0.960 . S
C3122 C3120 1.381 . S
C3122 C3123 1.394 . S
C3122 H3130 0.930 . S
C3123 C3122 1.394 . S
C3123 C3124 1.383 . S
C3123 H3131 0.929 . S
C3124 C3123 1.383 . S
C3124 C3125 1.377 . S
C3125 H3109 0.930 . S
C3125 C3124 1.377 . S
C3125 C3126 1.379 . S
C3126 H3110 0.931 . S
C3126 C3120 1.383 . S
C3126 C3125 1.379 . S
H3127 C3121 0.959 . S
H3128 C3121 0.961 . S
H3129 C3121 0.960 . S
H3130 C3122 0.930 . S
H3131 C3123 0.929 . S
H3132 C3140 0.929 . S
H3133 C3142 0.930 . S
H3134 C3144 0.930 . S
H3135 C3147 0.929 . S
H3136 C3150 0.930 . S
H3137 C3152 0.960 . S
H3138 C3152 0.960 . S
H3139 C3152 0.960 . S
C3140 H3132 0.929 . S
C3140 C3141 1.377 . S
C3140 C3142 1.384 . S
C3141 C3140 1.377 . S
C3141 C3147 1.390 . S
C3142 H3133 0.930 . S
C3142 C3140 1.384 . S
C3142 C3143 1.372 . S
C3143 C3142 1.372 . S
C3143 C3144 1.400 . S
C3143 C3148 1.490 . S
C3144 H3134 0.930 . S
C3144 C3143 1.400 . S
C3144 C3147 1.386 . S
H3145 C3161 0.930 . S
H3146 C3162 0.931 . S
C3147 H3135 0.929 . S
C3147 C3141 1.390 . S
C3147 C3144 1.386 . S
C3148 C3143 1.490 . S
C3148 C3150 1.395 . S
C3148 C3151 1.403 . S
H3149 C3155 0.930 . S
C3150 H3136 0.930 . S
C3150 C3148 1.395 . S
C3150 C3153 1.403 . S
C3151 C3148 1.403 . S
C3151 C3152 1.524 . S
C3151 C3155 1.400 . S
C3152 H3137 0.960 . S
C3152 H3138 0.960 . S
C3152 H3139 0.960 . S
C3152 C3151 1.524 . S
C3153 C3150 1.403 . S
C3153 C3154 1.392 . S
C3153 C3157 1.495 . S
C3154 C3153 1.392 . S
C3154 C3155 1.385 . S
C3154 C3156 1.478 . S
C3155 H3149 0.930 . S
C3155 C3151 1.400 . S
C3155 C3154 1.385 . S
C3156 C3154 1.478 . S
C3156 C3158 1.381 . S
C3156 C3162 1.383 . S
C3157 C3153 1.495 . S
C3157 H3163 0.959 . S
C3157 H3164 0.961 . S
C3157 H3165 0.960 . S
C3158 C3156 1.381 . S
C3158 C3159 1.394 . S
C3158 H3166 0.930 . S
C3159 C3158 1.394 . S
C3159 C3160 1.383 . S
C3159 H3167 0.929 . S
C3160 C3159 1.383 . S
C3160 C3161 1.377 . S
C3161 H3145 0.930 . S
C3161 C3160 1.377 . S
C3161 C3162 1.379 . S
C3162 H3146 0.931 . S
C3162 C3156 1.383 . S
C3162 C3161 1.379 . S
H3163 C3157 0.959 . S
H3164 C3157 0.961 . S
H3165 C3157 0.960 . S
H3166 C3158 0.930 . S
H3167 C3159 0.929 . S
H3168 C3176 0.929 . S
H3169 C3178 0.930 . S
H3170 C3180 0.930 . S
H3171 C3183 0.929 . S
H3172 C3186 0.930 . S
H3173 C3188 0.960 . S
H3174 C3188 0.960 . S
H3175 C3188 0.960 . S
C3176 H3168 0.929 . S
C3176 C3177 1.377 . S
C3176 C3178 1.384 . S
C3177 C3176 1.377 . S
C3177 C3183 1.390 . S
C3178 H3169 0.930 . S
C3178 C3176 1.384 . S
C3178 C3179 1.372 . S
C3179 C3178 1.372 . S
C3179 C3180 1.400 . S
C3179 C3184 1.490 . S
C3180 H3170 0.930 . S
C3180 C3179 1.400 . S
C3180 C3183 1.386 . S
H3181 C3197 0.930 . S
H3182 C3198 0.931 . S
C3183 H3171 0.929 . S
C3183 C3177 1.390 . S
C3183 C3180 1.386 . S
C3184 C3179 1.490 . S
C3184 C3186 1.395 . S
C3184 C3187 1.403 . S
H3185 C3191 0.930 . S
C3186 H3172 0.930 . S
C3186 C3184 1.395 . S
C3186 C3189 1.403 . S
C3187 C3184 1.403 . S
C3187 C3188 1.524 . S
C3187 C3191 1.400 . S
C3188 H3173 0.960 . S
C3188 H3174 0.960 . S
C3188 H3175 0.960 . S
C3188 C3187 1.524 . S
C3189 C3186 1.403 . S
C3189 C3190 1.392 . S
C3189 C3193 1.495 . S
C3190 C3189 1.392 . S
C3190 C3191 1.385 . S
C3190 C3192 1.478 . S
C3191 H3185 0.930 . S
C3191 C3187 1.400 . S
C3191 C3190 1.385 . S
C3192 C3190 1.478 . S
C3192 C3194 1.381 . S
C3192 C3198 1.383 . S
C3193 C3189 1.495 . S
C3193 H3199 0.959 . S
C3193 H3200 0.961 . S
C3193 H3201 0.960 . S
C3194 C3192 1.381 . S
C3194 C3195 1.394 . S
C3194 H3202 0.930 . S
C3195 C3194 1.394 . S
C3195 C3196 1.383 . S
C3195 H3203 0.929 . S
C3196 C3195 1.383 . S
C3196 C3197 1.377 . S
C3197 H3181 0.930 . S
C3197 C3196 1.377 . S
C3197 C3198 1.379 . S
C3198 H3182 0.931 . S
C3198 C3192 1.383 . S
C3198 C3197 1.379 . S
H3199 C3193 0.959 . S
H3200 C3193 0.961 . S
H3201 C3193 0.960 . S
H3202 C3194 0.930 . S
H3203 C3195 0.929 . S
H3204 C3212 0.929 . S
H3205 C3214 0.930 . S
H3206 C3216 0.930 . S
H3207 C3219 0.929 . S
H3208 C3222 0.930 . S
H3209 C3224 0.960 . S
H3210 C3224 0.960 . S
H3211 C3224 0.960 . S
C3212 H3204 0.929 . S
C3212 C3213 1.377 . S
C3212 C3214 1.384 . S
C3213 C3212 1.377 . S
C3213 C3219 1.390 . S
C3214 H3205 0.930 . S
C3214 C3212 1.384 . S
C3214 C3215 1.372 . S
C3215 C3214 1.372 . S
C3215 C3216 1.400 . S
C3215 C3220 1.490 . S
C3216 H3206 0.930 . S
C3216 C3215 1.400 . S
C3216 C3219 1.386 . S
H3217 C3233 0.930 . S
H3218 C3234 0.931 . S
C3219 H3207 0.929 . S
C3219 C3213 1.390 . S
C3219 C3216 1.386 . S
C3220 C3215 1.490 . S
C3220 C3222 1.395 . S
C3220 C3223 1.403 . S
H3221 C3227 0.930 . S
C3222 H3208 0.930 . S
C3222 C3220 1.395 . S
C3222 C3225 1.403 . S
C3223 C3220 1.403 . S
C3223 C3224 1.524 . S
C3223 C3227 1.400 . S
C3224 H3209 0.960 . S
C3224 H3210 0.960 . S
C3224 H3211 0.960 . S
C3224 C3223 1.524 . S
C3225 C3222 1.403 . S
C3225 C3226 1.392 . S
C3225 C3229 1.495 . S
C3226 C3225 1.392 . S
C3226 C3227 1.385 . S
C3226 C3228 1.478 . S
C3227 H3221 0.930 . S
C3227 C3223 1.400 . S
C3227 C3226 1.385 . S
C3228 C3226 1.478 . S
C3228 C3230 1.381 . S
C3228 C3234 1.383 . S
C3229 C3225 1.495 . S
C3229 H3235 0.959 . S
C3229 H3236 0.961 . S
C3229 H3237 0.960 . S
C3230 C3228 1.381 . S
C3230 C3231 1.394 . S
C3230 H3238 0.930 . S
C3231 C3230 1.394 . S
C3231 C3232 1.383 . S
C3231 H3239 0.929 . S
C3232 C3231 1.383 . S
C3232 C3233 1.377 . S
C3233 H3217 0.930 . S
C3233 C3232 1.377 . S
C3233 C3234 1.379 . S
C3234 H3218 0.931 . S
C3234 C3228 1.383 . S
C3234 C3233 1.379 . S
H3235 C3229 0.959 . S
H3236 C3229 0.961 . S
H3237 C3229 0.960 . S
H3238 C3230 0.930 . S
H3239 C3231 0.929 . S
H3240 C3248 0.929 . S
H3241 C3250 0.930 . S
H3242 C3252 0.930 . S
H3243 C3255 0.929 . S
H3244 C3258 0.930 . S
H3245 C3260 0.960 . S
H3246 C3260 0.960 . S
H3247 C3260 0.960 . S
C3248 H3240 0.929 . S
C3248 C3249 1.377 . S
C3248 C3250 1.384 . S
C3249 C3248 1.377 . S
C3249 C3255 1.390 . S
C3250 H3241 0.930 . S
C3250 C3248 1.384 . S
C3250 C3251 1.372 . S
C3251 C3250 1.372 . S
C3251 C3252 1.400 . S
C3251 C3256 1.490 . S
C3252 H3242 0.930 . S
C3252 C3251 1.400 . S
C3252 C3255 1.386 . S
H3253 C3269 0.930 . S
H3254 C3270 0.931 . S
C3255 H3243 0.929 . S
C3255 C3249 1.390 . S
C3255 C3252 1.386 . S
C3256 C3251 1.490 . S
C3256 C3258 1.395 . S
C3256 C3259 1.403 . S
H3257 C3263 0.930 . S
C3258 H3244 0.930 . S
C3258 C3256 1.395 . S
C3258 C3261 1.403 . S
C3259 C3256 1.403 . S
C3259 C3260 1.524 . S
C3259 C3263 1.400 . S
C3260 H3245 0.960 . S
C3260 H3246 0.960 . S
C3260 H3247 0.960 . S
C3260 C3259 1.524 . S
C3261 C3258 1.403 . S
C3261 C3262 1.392 . S
C3261 C3265 1.495 . S
C3262 C3261 1.392 . S
C3262 C3263 1.385 . S
C3262 C3264 1.478 . S
C3263 H3257 0.930 . S
C3263 C3259 1.400 . S
C3263 C3262 1.385 . S
C3264 C3262 1.478 . S
C3264 C3266 1.381 . S
C3264 C3270 1.383 . S
C3265 C3261 1.495 . S
C3265 H3271 0.959 . S
C3265 H3272 0.961 . S
C3265 H3273 0.960 . S
C3266 C3264 1.381 . S
C3266 C3267 1.394 . S
C3266 H3274 0.930 . S
C3267 C3266 1.394 . S
C3267 C3268 1.383 . S
C3267 H3275 0.929 . S
C3268 C3267 1.383 . S
C3268 C3269 1.377 . S
C3269 H3253 0.930 . S
C3269 C3268 1.377 . S
C3269 C3270 1.379 . S
C3270 H3254 0.931 . S
C3270 C3264 1.383 . S
C3270 C3269 1.379 . S
H3271 C3265 0.959 . S
H3272 C3265 0.961 . S
H3273 C3265 0.960 . S
H3274 C3266 0.930 . S
H3275 C3267 0.929 . S
H3276 C3284 0.929 . S
H3277 C3286 0.930 . S
H3278 C3288 0.930 . S
H3279 C3291 0.929 . S
H3280 C3294 0.930 . S
H3281 C3296 0.960 . S
H3282 C3296 0.960 . S
H3283 C3296 0.960 . S
C3284 H3276 0.929 . S
C3284 C3285 1.377 . S
C3284 C3286 1.384 . S
C3285 C3284 1.377 . S
C3285 C3291 1.390 . S
C3286 H3277 0.930 . S
C3286 C3284 1.384 . S
C3286 C3287 1.372 . S
C3287 C3286 1.372 . S
C3287 C3288 1.400 . S
C3287 C3292 1.490 . S
C3288 H3278 0.930 . S
C3288 C3287 1.400 . S
C3288 C3291 1.386 . S
H3289 C3305 0.930 . S
H3290 C3306 0.931 . S
C3291 H3279 0.929 . S
C3291 C3285 1.390 . S
C3291 C3288 1.386 . S
C3292 C3287 1.490 . S
C3292 C3294 1.395 . S
C3292 C3295 1.403 . S
H3293 C3299 0.930 . S
C3294 H3280 0.930 . S
C3294 C3292 1.395 . S
C3294 C3297 1.403 . S
C3295 C3292 1.403 . S
C3295 C3296 1.524 . S
C3295 C3299 1.400 . S
C3296 H3281 0.960 . S
C3296 H3282 0.960 . S
C3296 H3283 0.960 . S
C3296 C3295 1.524 . S
C3297 C3294 1.403 . S
C3297 C3298 1.392 . S
C3297 C3301 1.495 . S
C3298 C3297 1.392 . S
C3298 C3299 1.385 . S
C3298 C3300 1.478 . S
C3299 H3293 0.930 . S
C3299 C3295 1.400 . S
C3299 C3298 1.385 . S
C3300 C3298 1.478 . S
C3300 C3302 1.381 . S
C3300 C3306 1.383 . S
C3301 C3297 1.495 . S
C3301 H3307 0.959 . S
C3301 H3308 0.961 . S
C3301 H3309 0.960 . S
C3302 C3300 1.381 . S
C3302 C3303 1.394 . S
C3302 H3310 0.930 . S
C3303 C3302 1.394 . S
C3303 C3304 1.383 . S
C3303 H3311 0.929 . S
C3304 C3303 1.383 . S
C3304 C3305 1.377 . S
C3305 H3289 0.930 . S
C3305 C3304 1.377 . S
C3305 C3306 1.379 . S
C3306 H3290 0.931 . S
C3306 C3300 1.383 . S
C3306 C3305 1.379 . S
H3307 C3301 0.959 . S
H3308 C3301 0.961 . S
H3309 C3301 0.960 . S
H3310 C3302 0.930 . S
H3311 C3303 0.929 . S
H3312 C3320 0.929 . S
H3313 C3322 0.930 . S
H3314 C3324 0.930 . S
H3315 C3327 0.929 . S
H3316 C3330 0.930 . S
H3317 C3332 0.960 . S
H3318 C3332 0.960 . S
H3319 C3332 0.960 . S
C3320 H3312 0.929 . S
C3320 C3321 1.377 . S
C3320 C3322 1.384 . S
C3321 C3320 1.377 . S
C3321 C3327 1.390 . S
C3322 H3313 0.930 . S
C3322 C3320 1.384 . S
C3322 C3323 1.372 . S
C3323 C3322 1.372 . S
C3323 C3324 1.400 . S
C3323 C3328 1.490 . S
C3324 H3314 0.930 . S
C3324 C3323 1.400 . S
C3324 C3327 1.386 . S
H3325 C3341 0.930 . S
H3326 C3342 0.931 . S
C3327 H3315 0.929 . S
C3327 C3321 1.390 . S
C3327 C3324 1.386 . S
C3328 C3323 1.490 . S
C3328 C3330 1.395 . S
C3328 C3331 1.403 . S
H3329 C3335 0.930 . S
C3330 H3316 0.930 . S
C3330 C3328 1.395 . S
C3330 C3333 1.403 . S
C3331 C3328 1.403 . S
C3331 C3332 1.524 . S
C3331 C3335 1.400 . S
C3332 H3317 0.960 . S
C3332 H3318 0.960 . S
C3332 H3319 0.960 . S
C3332 C3331 1.524 . S
C3333 C3330 1.403 . S
C3333 C3334 1.392 . S
C3333 C3337 1.495 . S
C3334 C3333 1.392 . S
C3334 C3335 1.385 . S
C3334 C3336 1.478 . S
C3335 H3329 0.930 . S
C3335 C3331 1.400 . S
C3335 C3334 1.385 . S
C3336 C3334 1.478 . S
C3336 C3338 1.381 . S
C3336 C3342 1.383 . S
C3337 C3333 1.495 . S
C3337 H3343 0.959 . S
C3337 H3344 0.961 . S
C3337 H3345 0.960 . S
C3338 C3336 1.381 . S
C3338 C3339 1.394 . S
C3338 H3346 0.930 . S
C3339 C3338 1.394 . S
C3339 C3340 1.383 . S
C3339 H3347 0.929 . S
C3340 C3339 1.383 . S
C3340 C3341 1.377 . S
C3341 H3325 0.930 . S
C3341 C3340 1.377 . S
C3341 C3342 1.379 . S
C3342 H3326 0.931 . S
C3342 C3336 1.383 . S
C3342 C3341 1.379 . S
H3343 C3337 0.959 . S
H3344 C3337 0.961 . S
H3345 C3337 0.960 . S
H3346 C3338 0.930 . S
H3347 C3339 0.929 . S
H3348 C3356 0.929 . S
H3349 C3358 0.930 . S
H3350 C3360 0.930 . S
H3351 C3363 0.929 . S
H3352 C3366 0.930 . S
H3353 C3368 0.960 . S
H3354 C3368 0.960 . S
H3355 C3368 0.960 . S
C3356 H3348 0.929 . S
C3356 C3357 1.377 . S
C3356 C3358 1.384 . S
C3357 C3356 1.377 . S
C3357 C3363 1.390 . S
C3358 H3349 0.930 . S
C3358 C3356 1.384 . S
C3358 C3359 1.372 . S
C3359 C3358 1.372 . S
C3359 C3360 1.400 . S
C3359 C3364 1.490 . S
C3360 H3350 0.930 . S
C3360 C3359 1.400 . S
C3360 C3363 1.386 . S
H3361 C3377 0.930 . S
H3362 C3378 0.931 . S
C3363 H3351 0.929 . S
C3363 C3357 1.390 . S
C3363 C3360 1.386 . S
C3364 C3359 1.490 . S
C3364 C3366 1.395 . S
C3364 C3367 1.403 . S
H3365 C3371 0.930 . S
C3366 H3352 0.930 . S
C3366 C3364 1.395 . S
C3366 C3369 1.403 . S
C3367 C3364 1.403 . S
C3367 C3368 1.524 . S
C3367 C3371 1.400 . S
C3368 H3353 0.960 . S
C3368 H3354 0.960 . S
C3368 H3355 0.960 . S
C3368 C3367 1.524 . S
C3369 C3366 1.403 . S
C3369 C3370 1.392 . S
C3369 C3373 1.495 . S
C3370 C3369 1.392 . S
C3370 C3371 1.385 . S
C3370 C3372 1.478 . S
C3371 H3365 0.930 . S
C3371 C3367 1.400 . S
C3371 C3370 1.385 . S
C3372 C3370 1.478 . S
C3372 C3374 1.381 . S
C3372 C3378 1.383 . S
C3373 C3369 1.495 . S
C3373 H3379 0.959 . S
C3373 H3380 0.961 . S
C3373 H3381 0.960 . S
C3374 C3372 1.381 . S
C3374 C3375 1.394 . S
C3374 H3382 0.930 . S
C3375 C3374 1.394 . S
C3375 C3376 1.383 . S
C3375 H3383 0.929 . S
C3376 C3375 1.383 . S
C3376 C3377 1.377 . S
C3377 H3361 0.930 . S
C3377 C3376 1.377 . S
C3377 C3378 1.379 . S
C3378 H3362 0.931 . S
C3378 C3372 1.383 . S
C3378 C3377 1.379 . S
H3379 C3373 0.959 . S
H3380 C3373 0.961 . S
H3381 C3373 0.960 . S
H3382 C3374 0.930 . S
H3383 C3375 0.929 . S
C1449 C781 1.654 . S
C1468 C1083 1.664 . S
C1485 C871 1.792 . S
C1504 C1123 1.825 . S
C1521 C751 1.684 . S
C1540 C1175 1.716 . S
C1557 C691 1.504 . S
C1576 C1135 1.523 . S
C1612 C1163 1.430 . S
C1593 C571 1.381 . S
C1629 C601 1.326 . S
C1648 C1095 1.343 . S
C1684 C1102 1.673 . S
C1665 C661 1.605 . S
C1720 C1142 1.829 . S
C1701 C541 1.777 . S
C1737 C631 1.750 . S
C1756 C1162 1.724 . S
C1773 C811 1.550 . S
C1792 C1122 1.537 . S
C1809 C841 1.410 . S
C1828 C1182 1.443 . S
C1864 C1082 1.346 . S
C1845 C721 1.271 . S
C1900 C1203 1.674 . S
C1881 C61 1.655 . S
C1917 C151 1.792 . S
C1936 C1243 1.828 . S
C1953 C31 1.681 . S
C1972 C1295 1.717 . S
C1989 C1051 1.501 . S
C2008 C1255 1.534 . S
C2025 C931 1.379 . S
C2044 C1283 1.432 . S
C2061 C961 1.333 . S
C2080 C1215 1.339 . S
C2097 C1021 1.600 . S
C2116 C1222 1.665 . S
C2133 C901 1.781 . S
C2152 C1262 1.830 . S
C2188 C1282 1.723 . S
C2169 C991 1.750 . S
C2205 C91 1.549 . S
C2224 C1242 1.546 . S
C2260 C1302 1.437 . S
C2241 C121 1.408 . S
C2277 C1 1.282 . S
C2296 C1202 1.337 . S
C2332 C1323 1.673 . S
C2313 C421 1.654 . S
C2349 C511 1.795 . S
C2368 C1363 1.834 . S
C2404 C1415 1.708 . S
C2385 C391 1.680 . S
C2440 C1375 1.530 . S
C2421 C331 1.506 . S
C2476 C1403 1.434 . S
C2457 C211 1.380 . S
C2493 C241 1.328 . S
C2512 C1335 1.355 . S
C2529 C301 1.605 . S
C2548 C1342 1.673 . S
C2565 C181 1.781 . S
C2584 C1382 1.830 . S
C2620 C1402 1.707 . S
C2601 C271 1.753 . S
C2637 C451 1.554 . S
C2656 C1362 1.510 . S
C2673 C481 1.408 . S
C2692 C1422 1.438 . S
C2709 C361 1.279 . S
C2728 C1322 1.329 . S
C2745 C920 1.229 . S
C2764 C1106 1.258 . S
C2800 C1146 1.901 . S
C2781 C980 1.906 . S
C2817 C1040 1.517 . S
C2836 C1169 1.569 . S
C2853 C380 1.849 . S
C2872 C1129 1.894 . S
C2889 C440 1.551 . S
C2908 C1186 1.585 . S
C2944 C1089 1.242 . S
C2925 C500 1.221 . S
C2961 C200 1.234 . S
C2980 C1226 1.232 . S
C2997 C260 1.908 . S
C3016 C1266 1.893 . S
C3033 C320 1.521 . S
C3052 C1289 1.571 . S
C3069 C740 1.856 . S
C3088 C1249 1.912 . S
C3124 C1306 1.584 . S
C3105 C800 1.551 . S
C3141 C860 1.231 . S
C3160 C1209 1.256 . S
C3177 C560 1.226 . S
C3196 C1346 1.247 . S
C3213 C620 1.905 . S
C3232 C1386 1.906 . S
C3268 C1409 1.574 . S
C3249 C680 1.523 . S
C3285 C20 1.850 . S
C3304 C1369 1.895 . S
C3321 C80 1.555 . S
C3340 C1426 1.576 . S
C3357 C140 1.224 . S
C3376 C1329 1.233 . S
