# Generated by pormake.
# Topology zzz, (3,6)-cn, num edge types: 1
# Building blocks:
#     Node 0, Type 0, BuildingBlock: BETDIP_clean_linker_0, # of connection points: 3
#     Node 1, Type 0, BuildingBlock: BETDIP_clean_linker_0, # of connection points: 3
#     Node 2, Type 0, BuildingBlock: BETDIP_clean_linker_0, # of connection points: 3
#     Node 3, Type 0, BuildingBlock: BETDIP_clean_linker_0, # of connection points: 3
#     Node 4, Type 0, BuildingBlock: BETDIP_clean_linker_0, # of connection points: 3
#     Node 5, Type 0, BuildingBlock: BETDIP_clean_linker_0, # of connection points: 3
#     Node 6, Type 0, BuildingBlock: BETDIP_clean_linker_0, # of connection points: 3
#     Node 7, Type 0, BuildingBlock: BETDIP_clean_linker_0, # of connection points: 3
#     Node 8, Type 1, BuildingBlock: BETDIP_clean_sbu_0, # of connection points: 6
#     Node 9, Type 1, BuildingBlock: BETDIP_clean_sbu_0, # of connection points: 6
#     Node 10, Type 1, BuildingBlock: BETDIP_clean_sbu_0, # of connection points: 6
#     Node 11, Type 1, BuildingBlock: BETDIP_clean_sbu_0, # of connection points: 6
#     Edge 12, Type (0, 1), BuildingBlock: OJICUG_clean_linker_0, # of connection points: 2
#     Edge 13, Type (0, 1), BuildingBlock: OJICUG_clean_linker_0, # of connection points: 2
#     Edge 14, Type (0, 1), BuildingBlock: OJICUG_clean_linker_0, # of connection points: 2
#     Edge 15, Type (0, 1), BuildingBlock: OJICUG_clean_linker_0, # of connection points: 2
#     Edge 16, Type (0, 1), BuildingBlock: OJICUG_clean_linker_0, # of connection points: 2
#     Edge 17, Type (0, 1), BuildingBlock: OJICUG_clean_linker_0, # of connection points: 2
#     Edge 18, Type (0, 1), BuildingBlock: OJICUG_clean_linker_0, # of connection points: 2
#     Edge 19, Type (0, 1), BuildingBlock: OJICUG_clean_linker_0, # of connection points: 2
#     Edge 20, Type (0, 1), BuildingBlock: OJICUG_clean_linker_0, # of connection points: 2
#     Edge 21, Type (0, 1), BuildingBlock: OJICUG_clean_linker_0, # of connection points: 2
#     Edge 22, Type (0, 1), BuildingBlock: OJICUG_clean_linker_0, # of connection points: 2
#     Edge 23, Type (0, 1), BuildingBlock: OJICUG_clean_linker_0, # of connection points: 2
#     Edge 24, Type (0, 1), BuildingBlock: OJICUG_clean_linker_0, # of connection points: 2
#     Edge 25, Type (0, 1), BuildingBlock: OJICUG_clean_linker_0, # of connection points: 2
#     Edge 26, Type (0, 1), BuildingBlock: OJICUG_clean_linker_0, # of connection points: 2
#     Edge 27, Type (0, 1), BuildingBlock: OJICUG_clean_linker_0, # of connection points: 2
#     Edge 28, Type (0, 1), BuildingBlock: OJICUG_clean_linker_0, # of connection points: 2
#     Edge 29, Type (0, 1), BuildingBlock: OJICUG_clean_linker_0, # of connection points: 2
#     Edge 30, Type (0, 1), BuildingBlock: OJICUG_clean_linker_0, # of connection points: 2
#     Edge 31, Type (0, 1), BuildingBlock: OJICUG_clean_linker_0, # of connection points: 2
#     Edge 32, Type (0, 1), BuildingBlock: OJICUG_clean_linker_0, # of connection points: 2
#     Edge 33, Type (0, 1), BuildingBlock: OJICUG_clean_linker_0, # of connection points: 2
#     Edge 34, Type (0, 1), BuildingBlock: OJICUG_clean_linker_0, # of connection points: 2
#     Edge 35, Type (0, 1), BuildingBlock: OJICUG_clean_linker_0, # of connection points: 2
# Relax obj value: 0.364
# Max RMSD: 0.190
# Mean RMSD: 0.147
data_MOF--net-zzz--node1-BETDIP_clean_sbu_0--node2-BETDIP_clean_linker_0--edge1-OJICUG_clean_linker_0
_symmetry_space_group_name_H-M    P1
_symmetry_Int_Tables_number       1
_symmetry_cell_setting            triclinic
loop_
_symmetry_equiv_pos_as_xyz
'x, y, z'
_cell_length_a     37.509285
_cell_length_b     37.47357
_cell_length_c     10.069732
_cell_angle_alpha  89.539509
_cell_angle_beta   89.989967
_cell_angle_gamma 89.680918
loop_
_atom_site_label
_atom_site_type_symbol
_atom_site_fract_x
_atom_site_fract_y
_atom_site_fract_z
_atom_type_partial_charge
H0 H 0.77193 0.54881 0.50338 0.0
H1 H 0.73135 0.46196 0.27035 0.0
H2 H 0.82987 0.44979 0.48391 0.0
H3 H 0.73692 0.53595 0.14193 0.0
C4 C 0.71301 0.53495 0.20295 0.0
C5 C 0.77373 0.52131 0.47169 0.0
C6 C 0.80374 0.50015 0.5086 0.0
C7 C 0.74686 0.50703 0.38802 0.0
C8 C 0.75067 0.47214 0.34041 0.0
C9 C 0.78033 0.45125 0.37483 0.0
C10 C 0.80587 0.46508 0.46247 0.0
N11 N 0.71734 0.52799 0.34177 0.0
H12 H 0.99936 0.77668 0.54317 0.0
H13 H 0.08371 0.73383 0.29956 0.0
H14 H 0.09965 0.83114 0.51271 0.0
H15 H 1.01415 0.74061 0.17399 0.0
C16 C 1.01214 0.71712 0.2377 0.0
C17 C 1.02665 0.77762 0.50826 0.0
C18 C 0.04879 0.80676 0.54363 0.0
C19 C 0.0397 0.75049 0.4223 0.0
C20 C 0.07436 0.75326 0.37099 0.0
C21 C 0.09608 0.78215 0.40304 0.0
C22 C 0.08356 0.80779 0.49301 0.0
N23 N 1.01767 0.72196 0.37698 0.0
H24 H 0.76962 1.0112 0.51054 0.0
H25 H 0.80871 0.10887 0.32909 0.0
H26 H 0.70781 0.1079 0.52268 0.0
H27 H 0.84197 0.07645 0.21379 0.0
C28 C 0.84869 0.05208 0.26664 0.0
C29 C 0.76703 0.03946 0.48918 0.0
C30 C 0.73619 0.05834 0.53272 0.0
C31 C 0.79418 0.05726 0.41505 0.0
C32 C 0.78935 0.09393 0.38542 0.0
C33 C 0.75802 0.11191 0.42028 0.0
C34 C 0.73265 0.09439 0.49881 0.0
N35 N 0.82497 0.03805 0.36635 0.0
H36 H 0.50151 0.78266 0.53169 0.0
H37 H 0.59326 0.81767 0.31109 0.0
H38 H 0.59674 0.71939 0.53441 0.0
H39 H 0.5654 0.87789 0.45109 0.0
C40 C 0.54509 0.87178 0.37781 0.0
C41 C 0.52938 0.77948 0.50609 0.0
C42 C 0.54818 0.74833 0.54669 0.0
C43 C 0.54696 0.80637 0.4305 0.0
C44 C 0.58164 0.79955 0.38327 0.0
C45 C 0.59873 0.76682 0.41041 0.0
C46 C 0.58361 0.74423 0.50727 0.0
N47 N 0.52837 0.83755 0.38435 0.0
H48 H 0.25678 0.50695 0.17622 0.0
H49 H 0.29828 0.59956 0.37428 0.0
H50 H 0.20055 0.60692 0.15374 0.0
H51 H 0.35389 0.56696 0.25483 0.0
C52 C 0.34757 0.5464 0.32781 0.0
C53 C 0.25531 0.5352 0.1975 0.0
C54 C 0.22609 0.55585 0.14909 0.0
C55 C 0.28281 0.55154 0.27293 0.0
C56 C 0.27923 0.58771 0.30702 0.0
C57 C 0.24945 0.60769 0.26656 0.0
C58 C 0.22425 0.59199 0.18225 0.0
N59 N 0.31247 0.53149 0.32468 0.0
H60 H 0.05592 0.26239 0.18683 0.0
H61 H 0.96153 0.30854 0.36164 0.0
H62 H 0.95577 0.20871 0.15518 0.0
H63 H 0.99896 0.36242 0.24465 0.0
C64 C 1.01745 0.35518 0.32375 0.0
C65 C 1.02741 0.26189 0.20369 0.0
C66 C 1.00688 0.23309 0.15483 0.0
C67 C 1.01064 0.29033 0.27334 0.0
C68 C 0.9739 0.28825 0.30064 0.0
C69 C 0.95396 0.2584 0.26286 0.0
C70 C 0.97042 0.2323 0.18362 0.0
N71 N 0.03074 0.31927 0.32735 0.0
H72 H 0.27988 0.06498 0.13732 0.0
H73 H 0.23373 0.9759 0.34746 0.0
H74 H 0.33242 0.96302 0.13617 0.0
H75 H 0.17765 1.01861 0.19749 0.0
C76 C 0.18683 0.03321 0.2837 0.0
C77 C 0.28001 0.03682 0.1623 0.0
C78 C 0.30865 1.01479 0.11987 0.0
C79 C 0.25149 1.02212 0.23768 0.0
C80 C 0.25346 0.98623 0.27869 0.0
C81 C 0.28303 0.96504 0.24576 0.0
C82 C 0.309 0.97893 0.15941 0.0
N83 N 0.22332 0.04407 0.28786 0.0
H84 H 0.48299 0.29056 0.13429 0.0
H85 H 0.57604 0.24363 0.31805 0.0
H86 H 0.58499 0.33988 0.08572 0.0
H87 H 0.53144 0.18817 0.19369 0.0
C88 C 0.51705 0.19764 0.28041 0.0
C89 C 0.5116 0.29006 0.14871 0.0
C90 C 0.53291 0.3176 0.09337 0.0
C91 C 0.52765 0.26176 0.2229 0.0
C92 C 0.56438 0.26307 0.25035 0.0
C93 C 0.5851 0.29175 0.20506 0.0
C94 C 0.56951 0.31716 0.11922 0.0
N95 N 0.50667 0.23442 0.28422 0.0
Tb96 Tb 0.05541 1.0133 0.94355 0.0
Tb97 Tb 1.00323 1.02791 0.75448 0.0
C98 C 0.0946 0.98746 0.12267 0.0
C99 C 0.11785 0.95615 0.13452 0.0
C100 C 0.12843 0.94457 0.26058 0.0
C101 C 0.14556 0.91175 0.27626 0.0
C102 C 0.15217 0.88973 0.16568 0.0
C103 C 0.14501 0.9035 0.0378 0.0
C104 C 0.12764 0.93638 0.02241 0.0
C105 C 0.08451 0.03623 0.71851 0.0
C106 C 1.02811 0.9491 0.75973 0.0
C107 C 0.96231 0.05386 0.57979 0.0
C108 C 0.94445 0.08876 0.56491 0.0
C109 C 0.96361 0.12025 0.58386 0.0
C110 C 0.94703 0.15324 0.56822 0.0
C111 C 0.91088 0.15573 0.53126 0.0
C112 C 0.89133 0.12415 0.51534 0.0
C113 C 0.90794 0.09086 0.53406 0.0
C114 C 0.975 1.00823 0.98752 0.0
C115 C 0.03116 0.09192 0.93803 0.0
O116 O 0.06042 0.98114 0.1144 0.0
O117 O 0.10495 1.01183 0.03831 0.0
O118 O 0.05872 1.0145 0.72812 0.0
O119 O 0.0941 0.04519 0.83635 0.0
O120 O 0.04383 0.95861 0.87174 0.0
O121 O 1.013 0.97376 0.68422 0.0
O122 O 0.9971 0.0535 0.56978 0.0
O123 O 0.95133 0.03439 0.67906 0.0
O124 O 1.0008 1.02924 0.96856 0.0
O125 O 0.96651 0.99545 0.87317 0.0
O126 O 1.01726 0.08277 0.82189 0.0
O127 O 0.04352 0.0666 0.01749 0.0
H128 H 0.1214 0.95978 0.34792 0.0
H129 H 0.15021 0.90236 0.37674 0.0
H130 H 0.15023 0.88766 0.95036 0.0
H131 H 0.12012 0.94541 0.92377 0.0
H132 H 0.99176 0.11952 0.60742 0.0
H133 H 0.96335 0.17686 0.57729 0.0
H134 H 0.86366 0.12524 0.4848 0.0
H135 H 0.89259 0.06676 0.52066 0.0
Tb136 Tb 0.53051 0.05783 0.92725 0.0
Tb137 Tb 0.51523 1.00968 0.72326 0.0
C138 C 0.55545 0.09162 0.12049 0.0
C139 C 0.58532 0.11576 0.14362 0.0
C140 C 0.59637 0.1217 0.27388 0.0
C141 C 0.62647 0.14214 0.29858 0.0
C142 C 0.64651 0.15673 0.19292 0.0
C143 C 0.6338 0.15268 0.06235 0.0
C144 C 0.60342 0.13223 0.03783 0.0
C145 C 0.5102 0.09202 0.70724 0.0
C146 C 0.5944 0.0327 0.73792 0.0
C147 C 0.49055 0.97489 0.53151 0.0
C148 C 0.45992 0.95127 0.51529 0.0
C149 C 0.44879 0.9423 0.38759 0.0
C150 C 0.41644 0.92488 0.36923 0.0
C151 C 0.39451 0.91622 0.47871 0.0
C152 C 0.4076 0.92232 0.60756 0.0
C153 C 0.43999 0.93995 0.62567 0.0
C154 C 0.53388 0.97635 0.949 0.0
C155 C 0.45123 0.03537 0.91055 0.0
O156 O 0.56353 0.05834 0.096 0.0
O157 O 0.53052 0.10387 0.04209 0.0
O158 O 0.53065 0.06492 0.71267 0.0
O159 O 0.50172 0.10062 0.82671 0.0
O160 O 0.58509 0.04539 0.85537 0.0
O161 O 0.56941 1.02146 0.65643 0.0
O162 O 0.48285 1.0084 0.5534 0.0
O163 O 0.51564 0.96305 0.60999 0.0
O164 O 0.51388 1.0034 0.938 0.0
O165 O 0.54274 0.96671 0.83093 0.0
O166 O 0.46054 1.02269 0.79298 0.0
O167 O 0.47626 0.04608 0.99307 0.0
H168 H 0.58272 0.10913 0.35657 0.0
H169 H 0.63558 0.14377 0.40036 0.0
H170 H 0.64853 0.1635 0.97887 0.0
H171 H 0.59493 0.12809 0.9363 0.0
H172 H 0.46403 0.9507 0.30148 0.0
H173 H 0.40733 0.92127 0.26824 0.0
H174 H 0.39171 0.91572 0.69402 0.0
H175 H 0.44852 0.9464 0.7254 0.0
Tb176 Tb 0.50436 0.54219 0.92549 0.0
Tb177 Tb 0.53957 0.52383 0.683 0.0
C178 C 0.49777 0.57285 0.1423 0.0
C179 C 0.52211 0.60163 0.18453 0.0
C180 C 0.55787 0.59375 0.21694 0.0
C181 C 0.58361 0.62058 0.2182 0.0
C182 C 0.57405 0.65616 0.19043 0.0
C183 C 0.53772 0.66426 0.16833 0.0
C184 C 0.51217 0.63738 0.16492 0.0
C185 C 0.45841 0.52796 0.73074 0.0
C186 C 0.52517 0.60364 0.72314 0.0
C187 C 0.5615 0.49758 0.46912 0.0
C188 C 0.5855 0.46749 0.44168 0.0
C189 C 0.58445 0.45107 0.31772 0.0
C190 C 0.60483 0.42053 0.29441 0.0
C191 C 0.62604 0.40536 0.39597 0.0
C192 C 0.62796 0.4226 0.51902 0.0
C193 C 0.60797 0.45362 0.54148 0.0
C194 C 0.58502 0.54061 0.87593 0.0
C195 C 0.51421 0.46085 0.88503 0.0
O196 O 0.5124 0.54124 0.13163 0.0
O197 O 0.47736 0.58047 0.0402 0.0
O198 O 0.48762 0.54427 0.72109 0.0
O199 O 0.45256 0.52172 0.85604 0.0
O200 O 0.52541 0.59371 0.84943 0.0
O201 O 0.52386 0.57863 0.63161 0.0
O202 O 0.5309 0.48924 0.52326 0.0
O203 O 0.57632 0.52484 0.52663 0.0
O204 O 0.5571 0.5221 0.8873 0.0
O205 O 0.58854 0.54895 0.75215 0.0
O206 O 0.52842 0.47004 0.76865 0.0
O207 O 0.50318 0.48544 0.96863 0.0
H208 H 0.56641 0.56654 0.23522 0.0
H209 H 0.61106 0.6132 0.23782 0.0
H210 H 0.52877 0.6915 0.15322 0.0
H211 H 0.48486 0.64443 0.14085 0.0
H212 H 0.56664 0.46088 0.24085 0.0
H213 H 0.60174 0.40721 0.20002 0.0
H214 H 0.64345 0.41108 0.59957 0.0
H215 H 0.60884 0.46588 0.63852 0.0
Tb216 Tb 1.00806 0.50563 0.92877 0.0
Tb217 Tb 1.02356 0.54925 0.71559 0.0
C218 C 0.98079 0.4743 0.1249 0.0
C219 C 0.95156 0.44881 0.13809 0.0
C220 C 0.93698 0.44226 0.26334 0.0
C221 C 0.907 0.42083 0.27634 0.0
C222 C 0.89048 0.40616 0.16349 0.0
C223 C 0.90658 0.41106 0.03857 0.0
C224 C 0.937 0.43225 0.02599 0.0
C225 C 0.02969 0.46731 0.72003 0.0
C226 C 0.9451 0.52478 0.72597 0.0
C227 C 0.04895 0.58189 0.51785 0.0
C228 C 0.07767 0.60781 0.49947 0.0
C229 C 0.09257 0.61229 0.37347 0.0
C230 C 0.12189 0.6344 0.35564 0.0
C231 C 0.13753 0.65185 0.46455 0.0
C232 C 0.12124 0.6488 0.58992 0.0
C233 C 0.09144 0.62693 0.60725 0.0
C234 C 1.00104 0.58741 0.92309 0.0
C235 C 0.08644 0.52975 0.92019 0.0
O236 O 0.97166 0.50651 0.08712 0.0
O237 O 1.00884 0.46261 0.06209 0.0
O238 O 1.00899 0.49407 0.71743 0.0
O239 O 0.03821 0.4613 0.8421 0.0
O240 O 0.95361 0.51548 0.849 0.0
O241 O 0.97079 0.53409 0.64354 0.0
O242 O 0.05884 0.54971 0.55337 0.0
O243 O 1.0216 0.5931 0.5857 0.0
O244 O 1.02265 0.56129 0.92734 0.0
O245 O 0.99118 0.5914 0.80139 0.0
O246 O 0.07806 0.53973 0.79742 0.0
O247 O 0.06077 0.51988 1.00151 0.0
H248 H 0.94777 0.45505 0.35057 0.0
H249 H 0.89502 0.41857 0.37389 0.0
H250 H 0.89432 0.40048 0.94992 0.0
H251 H 0.94814 0.43709 0.92823 0.0
H252 H 0.0825 0.59749 0.28963 0.0
H253 H 0.13413 0.63516 0.25822 0.0
H254 H 0.13288 0.66151 0.67575 0.0
H255 H 0.08015 0.62368 0.70565 0.0
C256 C 0.1725 0.03934 0.5282 0.0
C257 C 0.16114 0.03857 0.39553 0.0
H258 H 0.15718 0.0392 0.73348 0.0
C259 C 0.12424 0.03925 0.36993 0.0
H260 H 0.20067 0.03881 0.55181 0.0
C261 C 0.09916 0.038 0.47362 0.0
C262 C 0.11048 0.03761 0.60625 0.0
H263 H 0.11479 0.04085 0.26907 0.0
H264 H 0.07098 0.03776 0.45008 0.0
C265 C 0.14746 0.0392 0.6322 0.0
C266 C 0.51013 0.18186 0.52457 0.0
C267 C 0.51051 0.17153 0.39093 0.0
H268 H 0.50974 0.16481 0.72872 0.0
C269 C 0.50847 0.13491 0.36249 0.0
H270 H 0.51172 0.20981 0.55036 0.0
C271 C 0.50873 0.10892 0.46398 0.0
C272 C 0.50961 0.1191 0.59754 0.0
H273 H 0.50683 0.12645 0.26082 0.0
H274 H 0.50803 0.08094 0.43797 0.0
C275 C 0.50936 0.15595 0.62661 0.0
C276 C 0.36842 0.52031 0.55053 0.0
C277 C 0.37577 0.53738 0.42851 0.0
H278 H 0.38864 0.50403 0.74246 0.0
C279 C 0.4108 0.54917 0.40513 0.0
H280 H 0.34172 0.51115 0.57239 0.0
C281 C 0.43756 0.54493 0.5013 0.0
C282 C 0.43015 0.52915 0.62537 0.0
H283 H 0.41744 0.56245 0.31244 0.0
H284 H 0.46398 0.55494 0.47936 0.0
C285 C 0.39531 0.51638 0.64814 0.0
C286 C 1.01893 0.41923 0.39026 0.0
C287 C 1.02592 0.3834 0.42377 0.0
H288 H 1.01413 0.47358 0.45524 0.0
C289 C 0.03716 0.37563 0.55407 0.0
H290 H 1.01129 0.42595 0.29009 0.0
C291 C 0.03962 0.40306 0.64916 0.0
C292 C 0.03057 0.43877 0.61647 0.0
H293 H 0.0427 0.34833 0.58387 0.0
H294 H 0.04738 0.39605 0.74965 0.0
C295 C 1.02082 0.4465 0.48484 0.0
C296 C 0.88709 1.00176 0.17789 0.0
C297 C 0.88389 0.03647 0.2285 0.0
H298 H 0.91862 0.96553 0.06035 0.0
C299 C 0.91299 0.05972 0.21416 0.0
H300 H 0.86479 0.98358 0.18405 0.0
C301 C 0.94403 0.04921 0.14718 0.0
C302 C 0.94631 1.01554 0.08713 0.0
H303 H 0.91095 0.08699 0.24843 0.0
H304 H 0.96505 0.0686 0.13341 0.0
C305 C 0.91786 0.99155 0.10643 0.0
C306 C 0.52497 0.88934 0.14573 0.0
C307 C 0.53772 0.89901 0.27156 0.0
H308 H 0.51444 0.90616 0.94465 0.0
C309 C 0.54703 0.93493 0.29233 0.0
H310 H 0.51798 0.86191 0.12573 0.0
C311 C 0.54401 0.96052 0.18985 0.0
C312 C 0.53293 0.9505 0.06244 0.0
H313 H 0.55732 0.94315 0.38774 0.0
H314 H 0.55187 0.98778 0.20871 0.0
C315 C 0.52314 0.91469 0.04189 0.0
C316 C 0.67766 0.55817 1.01159 0.0
C317 C 0.67797 0.53983 0.13375 0.0
H318 H 0.64833 0.57344 0.838 0.0
C319 C 0.6462 0.52344 0.17675 0.0
H320 H 0.70164 0.57098 0.97534 0.0
C321 C 0.61541 0.5242 0.09543 0.0
C322 C 0.61568 0.54176 0.9711 0.0
H323 H 0.64563 0.50873 0.26972 0.0
H324 H 0.59166 0.51051 0.12814 0.0
C325 C 0.64702 0.55943 0.93237 0.0
C326 C 0.99217 0.68319 0.04053 0.0
C327 C 1.00565 0.68217 0.17049 0.0
H328 H 0.97944 0.65478 0.86438 0.0
C329 C 1.01558 0.64873 0.22452 0.0
H330 H 0.98424 0.70838 0.99561 0.0
C331 C 1.01369 0.61737 0.14671 0.0
C332 C 1.00113 0.6189 1.01463 0.0
H333 H 1.0259 0.64708 0.32465 0.0
H334 H 1.02242 0.59214 0.18893 0.0
C335 C 0.98953 0.65221 0.96481 0.0
C336 C 0.92101 0.2506 0.47437 0.0
C337 C 0.92059 0.24851 0.33485 0.0
H338 H 0.91556 0.22065 0.65443 0.0
C339 C 0.89732 0.22366 0.27694 0.0
H340 H 0.93675 0.27052 0.52453 0.0
C341 C 0.8864 0.19403 0.35156 0.0
C342 C 0.89718 0.19085 0.48473 0.0
H343 H 0.89416 0.22289 0.17005 0.0
H344 H 0.87567 0.17131 0.29938 0.0
C345 C 0.90887 0.2217 0.54975 0.0
C346 C 0.31326 0.90627 0.27491 0.0
C347 C 0.29391 0.93455 0.33161 0.0
H348 H 0.36214 0.87663 0.28201 0.0
C349 C 0.29973 0.94225 0.46614 0.0
H350 H 0.30839 0.89873 0.17289 0.0
C351 C 0.33096 0.93033 0.52773 0.0
C352 C 0.35583 0.90996 0.45557 0.0
H353 H 0.28445 0.96298 0.5149 0.0
H354 H 0.33799 0.94222 0.62175 0.0
C355 C 0.34442 0.89403 0.33691 0.0
C356 C 0.61303 0.30921 0.4144 0.0
C357 C 0.61765 0.30277 0.27802 0.0
H358 H 0.61259 0.34964 0.56235 0.0
C359 C 0.64311 0.32333 0.20938 0.0
H360 H 0.59518 0.29282 0.47316 0.0
C361 C 0.65247 0.3567 0.2595 0.0
C362 C 0.63811 0.36792 0.38126 0.0
H363 H 0.64882 0.31786 0.10601 0.0
H364 H 0.66552 0.37566 0.19416 0.0
C365 C 0.62289 0.34221 0.46583 0.0
C366 C 0.21833 0.6664 0.27372 0.0
C367 C 0.23818 0.63988 0.34075 0.0
H368 H 0.16788 0.69324 0.26682 0.0
C369 C 0.23238 0.63521 0.47766 0.0
H370 H 0.22329 0.67185 0.16953 0.0
C371 C 0.20045 0.64719 0.53324 0.0
C372 C 0.17495 0.66401 0.45139 0.0
H373 H 0.24819 0.61621 0.5344 0.0
H374 H 0.1932 0.63694 0.6304 0.0
C375 C 0.1864 0.67854 0.3295 0.0
C376 C 0.15623 0.8088 0.37297 0.0
C377 C 0.12648 0.79202 0.31683 0.0
H378 H 0.19065 0.85397 0.36098 0.0
C379 C 0.11902 0.79813 0.18192 0.0
H380 H 0.16343 0.80355 0.47551 0.0
C381 C 0.13385 0.82757 0.11753 0.0
C382 C 0.1564 0.8506 0.18809 0.0
H383 H 0.09697 0.78477 0.13415 0.0
H384 H 0.1225 0.83537 0.02273 0.0
C385 C 0.17155 0.83794 0.30753 0.0
C386 C 0.74224 0.1392 0.20595 0.0
C387 C 0.746 0.1437 0.34363 0.0
H388 H 0.70561 0.14067 0.04494 0.0
C389 C 0.72437 0.16925 0.40645 0.0
H390 H 0.75937 0.1208 0.15293 0.0
C391 C 0.69327 0.18118 0.34337 0.0
C392 C 0.68405 0.16716 0.21879 0.0
H393 H 0.72762 0.17442 0.51145 0.0
H394 H 0.67375 0.19577 0.40117 0.0
C395 C 0.71099 0.15067 0.14349 0.0
C396 C 0.63991 0.71817 0.34373 0.0
C397 C 0.62149 0.74958 0.30659 0.0
H398 H 0.63451 0.66141 0.34918 0.0
C399 C 0.6064 0.74979 0.1786 0.0
H400 H 0.65566 0.71775 0.43393 0.0
C401 C 0.59461 0.71754 0.12611 0.0
C402 C 0.60053 0.68561 0.19753 0.0
H403 H 0.59586 0.7742 0.13532 0.0
H404 H 0.57692 0.71826 0.04113 0.0
C405 C 0.62722 0.68557 0.29602 0.0
C406 C 0.80972 0.39201 0.35347 0.0
C407 C 0.79084 0.42027 0.29296 0.0
H408 H 0.8588 0.36277 0.35197 0.0
C409 C 0.79656 0.42703 0.15721 0.0
H410 H 0.80478 0.38513 0.45654 0.0
C411 C 0.82774 0.41451 0.09764 0.0
C412 C 0.85264 0.39527 0.17461 0.0
H413 H 0.78146 0.4476 0.10557 0.0
H414 H 0.83521 0.42601 1.00265 0.0
C415 C 0.84082 0.37927 0.29345 0.0
C416 C 1.00864 0.19165 0.95964 0.0
C417 C 1.02183 0.20089 0.08584 0.0
H418 H 1.00121 0.15082 0.81434 0.0
C419 C 0.04083 0.17468 0.15787 0.0
H420 H 0.99303 0.21082 0.90295 0.0
C421 C 0.04499 0.13982 0.10787 0.0
C422 C 0.03021 0.13008 0.98433 0.0
H423 H 0.05034 0.18043 0.25694 0.0
H424 H 0.05857 0.12008 0.16888 0.0
C425 C 1.01294 0.15694 0.90942 0.0
C426 C 0.36681 0.04811 0.12052 0.0
C427 C 0.34146 1.0281 0.05062 0.0
H428 H 0.4211 0.06588 0.13252 0.0
C429 C 0.35188 1.01292 0.92888 0.0
H430 H 0.36007 0.05919 0.21639 0.0
C431 C 0.38692 1.01652 0.88077 0.0
C432 C 0.41288 0.03489 0.95421 0.0
H433 H 0.33333 0.99651 0.87433 0.0
H434 H 0.39404 1.00341 0.78895 0.0
C435 C 0.40203 0.05139 0.0732 0.0
C436 C 0.53206 0.36014 0.89871 0.0
C437 C 0.51869 0.35044 0.02482 0.0
H438 H 0.5411 0.40193 0.75549 0.0
C439 C 0.50059 0.37667 0.09816 0.0
H440 H 0.54698 0.34087 0.84107 0.0
C441 C 0.49778 0.41203 0.05024 0.0
C442 C 0.51296 0.42223 0.92732 0.0
H443 H 0.49098 0.37052 0.19713 0.0
H444 H 0.48508 0.43174 0.11278 0.0
C445 C 0.52907 0.39539 0.85036 0.0
C446 C 0.1683 0.5218 0.14781 0.0
C447 C 0.19436 0.54106 0.07739 0.0
H448 H 0.11417 0.5034 0.15489 0.0
C449 C 0.18527 0.55436 0.95027 0.0
H450 H 0.17388 0.51225 0.24752 0.0
C451 C 0.15091 0.54951 0.8969 0.0
C452 C 0.12425 0.53179 0.97016 0.0
H453 H 0.20429 0.57028 0.89497 0.0
H454 H 0.1448 0.56115 0.8007 0.0
C455 C 0.13378 0.51729 0.09521 0.0
C456 C 1.01323 0.86415 0.55533 0.0
C457 C 0.03633 0.83937 0.61709 0.0
H458 H 0.99272 0.91788 0.55008 0.0
C459 C 0.05457 0.85035 0.73211 0.0
H460 H 0.99963 0.85709 0.46445 0.0
C461 C 0.05081 0.88528 0.78121 0.0
C462 C 1.02916 0.91072 0.71547 0.0
H463 H 0.07331 0.83235 0.78029 0.0
H464 H 0.0662 0.89275 0.86752 0.0
C465 C 1.00976 0.89929 0.60351 0.0
C466 C 0.69427 0.05373 0.72651 0.0
C467 C 0.70438 0.0419 0.59933 0.0
H468 H 0.65234 0.06019 0.86976 0.0
C469 C 0.67862 1.02421 0.52286 0.0
H470 H 0.713 0.06856 0.78625 0.0
C471 C 0.64339 1.02003 0.56951 0.0
C472 C 0.63281 0.03354 0.69403 0.0
H473 H 0.68501 1.01595 0.42275 0.0
H474 H 0.62406 1.00754 0.50523 0.0
C475 C 0.65917 0.04943 0.77348 0.0
C476 C 0.54007 0.70464 0.73498 0.0
C477 C 0.5314 0.71557 0.60473 0.0
H478 H 0.54478 0.66115 0.87466 0.0
C479 C 0.51801 0.68972 0.51743 0.0
H480 H 0.55181 0.72348 0.803 0.0
C481 C 0.51529 0.65369 0.55648 0.0
C482 C 0.52543 0.64246 0.68494 0.0
H483 H 0.5123 0.69693 0.41525 0.0
H484 H 0.50629 0.63442 0.4844 0.0
C485 C 0.53665 0.6687 0.77513 0.0
C486 C 0.86184 0.53345 0.50601 0.0
C487 C 0.83617 0.51408 0.57816 0.0
H488 H 0.91602 0.5517 0.49438 0.0
C489 C 0.84614 0.50006 0.70313 0.0
H490 H 0.85554 0.54349 0.40755 0.0
C491 C 0.8809 0.50465 0.75324 0.0
C492 C 0.9071 0.52267 0.67839 0.0
H493 H 0.82747 0.48396 0.75932 0.0
H494 H 0.88765 0.49263 0.84821 0.0
C495 C 0.89678 0.5376 0.5551 0.0
loop_
_geom_bond_atom_site_label_1
_geom_bond_atom_site_label_2
_geom_bond_distance
_geom_bond_site_symmetry_2
_ccdc_geom_bond_type
H0 C5 0.930 . S
H1 C8 0.930 . S
H2 C10 0.930 . S
H3 C4 1.016 . S
C4 H3 1.016 . S
C4 N11 1.286 . S
C5 H0 0.930 . S
C5 C6 1.397 . S
C5 C7 1.361 . S
C6 C5 1.397 . S
C6 C10 1.390 . S
C7 C5 1.361 . S
C7 C8 1.393 . S
C7 N11 1.413 . S
C8 H1 0.930 . S
C8 C7 1.393 . S
C8 C9 1.399 . S
C9 C8 1.399 . S
C9 C10 1.381 . S
C10 H2 0.930 . S
C10 C6 1.390 . S
C10 C9 1.381 . S
N11 C4 1.286 . S
N11 C7 1.413 . S
H12 C17 0.930 . S
H13 C20 0.930 . S
H14 C22 0.930 . S
H15 C16 1.016 . S
C16 H15 1.016 . S
C16 N23 1.286 1_655 S
C17 H12 0.930 . S
C17 C18 1.397 . S
C17 C19 1.361 . S
C18 C17 1.397 . S
C18 C22 1.390 1_455 S
C19 C17 1.361 . S
C19 C20 1.393 . S
C19 N23 1.413 . S
C20 H13 0.930 . S
C20 C19 1.393 . S
C20 C21 1.403 . S
C21 C20 1.403 . S
C21 C22 1.379 1_455 S
C22 H14 0.930 . S
C22 C18 1.390 1_655 S
C22 C21 1.379 1_655 S
N23 C16 1.286 1_455 S
N23 C19 1.413 . S
H24 C29 0.930 . S
H25 C32 0.930 . S
H26 C34 0.930 . S
H27 C28 1.016 . S
C28 H27 1.016 . S
C28 N35 1.286 1_565 S
C29 H24 0.930 . S
C29 C30 1.397 . S
C29 C31 1.361 . S
C30 C29 1.397 . S
C30 C34 1.390 1_545 S
C31 C29 1.361 . S
C31 C32 1.393 . S
C31 N35 1.413 . S
C32 H25 0.930 . S
C32 C31 1.393 . S
C32 C33 1.403 . S
C33 C32 1.403 . S
C33 C34 1.379 1_545 S
C34 H26 0.930 . S
C34 C30 1.390 1_565 S
C34 C33 1.379 1_565 S
N35 C28 1.286 1_545 S
N35 C31 1.413 . S
H36 C41 0.930 . S
H37 C44 0.930 . S
H38 C46 0.930 . S
H39 C40 1.016 . S
C40 H39 1.016 . S
C40 N47 1.286 . S
C41 H36 0.930 . S
C41 C42 1.397 . S
C41 C43 1.361 . S
C42 C41 1.397 . S
C42 C46 1.390 . S
C43 C41 1.361 . S
C43 C44 1.393 . S
C43 N47 1.413 . S
C44 H37 0.930 . S
C44 C43 1.393 . S
C44 C45 1.399 . S
C45 C44 1.399 . S
C45 C46 1.381 . S
C46 H38 0.930 . S
C46 C42 1.390 . S
C46 C45 1.381 . S
N47 C40 1.286 . S
N47 C43 1.413 . S
H48 C53 0.930 . S
H49 C56 0.930 . S
H50 C58 0.930 . S
H51 C52 1.016 . S
C52 H51 1.016 . S
C52 N59 1.286 . S
C53 H48 0.930 . S
C53 C54 1.397 . S
C53 C55 1.361 1_556 S
C54 C53 1.397 . S
C54 C58 1.390 1_556 S
C55 C53 1.361 1_554 S
C55 C56 1.393 . S
C55 N59 1.413 . S
C56 H49 0.930 . S
C56 C55 1.393 . S
C56 C57 1.399 . S
C57 C56 1.399 . S
C57 C58 1.381 . S
C58 H50 0.930 . S
C58 C54 1.390 1_554 S
C58 C57 1.381 . S
N59 C52 1.286 . S
N59 C55 1.413 . S
H60 C65 0.930 . S
H61 C68 0.930 . S
H62 C70 0.930 . S
H63 C64 1.026 . S
C64 H63 1.026 . S
C64 N71 1.272 1_655 S
C65 H60 0.930 . S
C65 C66 1.397 . S
C65 C67 1.361 1_556 S
C66 C65 1.397 . S
C66 C70 1.390 1_456 S
C67 C65 1.361 1_554 S
C67 C68 1.393 . S
C67 N71 1.413 . S
C68 H61 0.930 . S
C68 C67 1.393 . S
C68 C69 1.404 . S
C69 C68 1.404 . S
C69 C70 1.378 1_455 S
C70 H62 0.930 . S
C70 C66 1.390 1_654 S
C70 C69 1.378 1_655 S
N71 C64 1.272 1_455 S
N71 C67 1.413 . S
H72 C77 0.930 . S
H73 C80 0.930 . S
H74 C82 0.930 . S
H75 C76 1.026 . S
C76 H75 1.026 . S
C76 N83 1.272 1_565 S
C77 H72 0.930 . S
C77 C78 1.397 . S
C77 C79 1.361 1_556 S
C78 C77 1.397 . S
C78 C82 1.390 1_546 S
C79 C77 1.361 1_554 S
C79 C80 1.393 . S
C79 N83 1.413 . S
C80 H73 0.930 . S
C80 C79 1.393 . S
C80 C81 1.404 . S
C81 C80 1.404 . S
C81 C82 1.378 1_545 S
C82 H74 0.930 . S
C82 C78 1.390 1_564 S
C82 C81 1.378 1_565 S
N83 C76 1.272 1_545 S
N83 C79 1.413 . S
H84 C89 0.930 . S
H85 C92 0.930 . S
H86 C94 0.930 1_556 S
H87 C88 1.016 . S
C88 H87 1.016 . S
C88 N95 1.286 . S
C89 H84 0.930 . S
C89 C90 1.397 . S
C89 C91 1.361 1_556 S
C90 C89 1.397 . S
C90 C94 1.390 1_556 S
C91 C89 1.361 1_554 S
C91 C92 1.393 . S
C91 N95 1.413 . S
C92 H85 0.930 . S
C92 C91 1.393 . S
C92 C93 1.399 . S
C93 C92 1.399 . S
C93 C94 1.381 . S
C94 H86 0.930 1_554 S
C94 C90 1.390 1_554 S
C94 C93 1.381 . S
N95 C88 1.286 . S
N95 C91 1.413 . S
Tb96 C98 2.809 1_556 S
Tb96 O116 2.484 1_556 S
Tb96 O117 2.440 1_556 S
Tb96 O118 2.658 1_565 S
Tb96 O119 2.409 . S
Tb96 O120 2.378 . S
Tb96 O124 2.325 1_455 S
Tb96 O127 2.341 1_565 S
Tb97 C107 2.809 . S
Tb97 O118 2.325 1_655 S
Tb97 O121 2.341 1_545 S
Tb97 O122 2.484 . S
Tb97 O123 2.440 . S
Tb97 O124 2.658 1_545 S
Tb97 O125 2.409 . S
Tb97 O126 2.378 . S
C98 Tb96 2.809 1_554 S
C98 C99 1.514 . S
C98 O116 1.248 . S
C98 O117 1.266 . S
C99 C98 1.514 . S
C99 C100 1.359 . S
C99 C104 1.348 . S
C100 C99 1.359 . S
C100 C101 1.380 . S
C100 H128 0.929 1_455 S
C101 C100 1.380 . S
C101 C102 1.347 . S
C101 H129 0.931 1_455 S
C102 C101 1.347 . S
C102 C103 1.369 . S
C103 C102 1.369 . S
C103 C104 1.408 . S
C103 H130 0.930 . S
C104 C99 1.348 . S
C104 C103 1.408 . S
C104 H131 0.930 . S
C105 O118 1.281 1_565 S
C105 O119 1.254 . S
C106 O120 1.236 1_655 S
C106 O121 1.266 . S
C107 Tb97 2.809 . S
C107 C108 1.514 . S
C107 O122 1.248 . S
C107 O123 1.266 . S
C108 C107 1.514 . S
C108 C109 1.359 . S
C108 C113 1.348 . S
C109 C108 1.359 . S
C109 C110 1.380 . S
C109 H132 0.929 1_655 S
C110 C109 1.380 . S
C110 C111 1.347 . S
C110 H133 0.931 1_655 S
C111 C110 1.347 . S
C111 C112 1.369 . S
C112 C111 1.369 . S
C112 C113 1.408 . S
C112 H134 0.930 . S
C113 C108 1.348 . S
C113 C112 1.408 . S
C113 H135 0.930 . S
C114 O124 1.281 1_545 S
C114 O125 1.254 . S
C115 O126 1.236 1_455 S
C115 O127 1.266 . S
O116 Tb96 2.484 1_554 S
O116 C98 1.248 . S
O117 Tb96 2.440 1_554 S
O117 C98 1.266 . S
O118 Tb96 2.658 1_545 S
O118 Tb97 2.325 1_455 S
O118 C105 1.281 1_545 S
O119 Tb96 2.409 . S
O119 C105 1.254 . S
O120 Tb96 2.378 . S
O120 C106 1.236 1_455 S
O121 Tb97 2.341 1_565 S
O121 C106 1.266 . S
O122 Tb97 2.484 . S
O122 C107 1.248 . S
O123 Tb97 2.440 . S
O123 C107 1.266 . S
O124 Tb96 2.325 1_655 S
O124 Tb97 2.658 1_565 S
O124 C114 1.281 1_565 S
O125 Tb97 2.409 . S
O125 C114 1.254 . S
O126 Tb97 2.378 . S
O126 C115 1.236 1_655 S
O127 Tb96 2.341 1_545 S
O127 C115 1.266 . S
H128 C100 0.929 1_655 S
H129 C101 0.931 1_655 S
H130 C103 0.930 . S
H131 C104 0.930 . S
H132 C109 0.929 1_455 S
H133 C110 0.931 1_455 S
H134 C112 0.930 . S
H135 C113 0.930 . S
Tb136 C138 2.809 1_556 S
Tb136 O156 2.484 1_556 S
Tb136 O157 2.440 1_556 S
Tb136 O158 2.658 . S
Tb136 O159 2.409 . S
Tb136 O160 2.378 . S
Tb136 O164 2.325 1_545 S
Tb136 O167 2.341 . S
Tb137 C147 2.809 . S
Tb137 O158 2.325 1_565 S
Tb137 O161 2.341 . S
Tb137 O162 2.484 . S
Tb137 O163 2.440 . S
Tb137 O164 2.658 . S
Tb137 O165 2.409 . S
Tb137 O166 2.378 . S
C138 Tb136 2.809 1_554 S
C138 C139 1.514 . S
C138 O156 1.248 . S
C138 O157 1.266 . S
C139 C138 1.514 . S
C139 C140 1.359 . S
C139 C144 1.348 . S
C140 C139 1.359 . S
C140 C141 1.380 . S
C140 H168 0.929 1_545 S
C141 C140 1.380 . S
C141 C142 1.347 . S
C141 H169 0.931 1_545 S
C142 C141 1.347 . S
C142 C143 1.369 . S
C143 C142 1.369 . S
C143 C144 1.408 . S
C143 H170 0.930 . S
C144 C139 1.348 . S
C144 C143 1.408 . S
C144 H171 0.930 . S
C145 O158 1.281 . S
C145 O159 1.254 . S
C146 O160 1.236 1_565 S
C146 O161 1.266 . S
C147 Tb137 2.809 . S
C147 C148 1.514 . S
C147 O162 1.248 . S
C147 O163 1.266 . S
C148 C147 1.514 . S
C148 C149 1.359 . S
C148 C153 1.348 . S
C149 C148 1.359 . S
C149 C150 1.380 . S
C149 H172 0.929 1_565 S
C150 C149 1.380 . S
C150 C151 1.347 . S
C150 H173 0.931 1_565 S
C151 C150 1.347 . S
C151 C152 1.369 . S
C152 C151 1.369 . S
C152 C153 1.408 . S
C152 H174 0.930 . S
C153 C148 1.348 . S
C153 C152 1.408 . S
C153 H175 0.930 . S
C154 O164 1.281 . S
C154 O165 1.254 . S
C155 O166 1.236 1_545 S
C155 O167 1.266 . S
O156 Tb136 2.484 1_554 S
O156 C138 1.248 . S
O157 Tb136 2.440 1_554 S
O157 C138 1.266 . S
O158 Tb136 2.658 . S
O158 Tb137 2.325 1_545 S
O158 C145 1.281 . S
O159 Tb136 2.409 . S
O159 C145 1.254 . S
O160 Tb136 2.378 . S
O160 C146 1.236 1_545 S
O161 Tb137 2.341 . S
O161 C146 1.266 . S
O162 Tb137 2.484 . S
O162 C147 1.248 . S
O163 Tb137 2.440 . S
O163 C147 1.266 . S
O164 Tb136 2.325 1_565 S
O164 Tb137 2.658 . S
O164 C154 1.281 . S
O165 Tb137 2.409 . S
O165 C154 1.254 . S
O166 Tb137 2.378 . S
O166 C155 1.236 1_565 S
O167 Tb136 2.341 . S
O167 C155 1.266 . S
H168 C140 0.929 1_565 S
H169 C141 0.931 1_565 S
H170 C143 0.930 . S
H171 C144 0.930 . S
H172 C149 0.929 1_545 S
H173 C150 0.931 1_545 S
H174 C152 0.930 . S
H175 C153 0.930 . S
Tb176 C178 2.809 1_556 S
Tb176 O196 2.484 1_556 S
Tb176 O197 2.440 1_556 S
Tb176 O198 2.658 . S
Tb176 O199 2.409 . S
Tb176 O200 2.378 . S
Tb176 O204 2.325 . S
Tb176 O207 2.341 . S
Tb177 C187 2.809 . S
Tb177 O198 2.325 . S
Tb177 O201 2.341 . S
Tb177 O202 2.484 . S
Tb177 O203 2.440 . S
Tb177 O204 2.658 . S
Tb177 O205 2.409 . S
Tb177 O206 2.378 . S
C178 Tb176 2.809 1_554 S
C178 C179 1.514 . S
C178 O196 1.248 . S
C178 O197 1.266 . S
C179 C178 1.514 . S
C179 C180 1.359 . S
C179 C184 1.348 . S
C180 C179 1.359 . S
C180 C181 1.380 . S
C180 H208 0.929 . S
C181 C180 1.380 . S
C181 C182 1.347 . S
C181 H209 0.931 . S
C182 C181 1.347 . S
C182 C183 1.369 . S
C183 C182 1.369 . S
C183 C184 1.408 . S
C183 H210 0.930 . S
C184 C179 1.348 . S
C184 C183 1.408 . S
C184 H211 0.930 . S
C185 O198 1.281 . S
C185 O199 1.254 . S
C186 O200 1.236 . S
C186 O201 1.266 . S
C187 Tb177 2.809 . S
C187 C188 1.514 . S
C187 O202 1.248 . S
C187 O203 1.266 . S
C188 C187 1.514 . S
C188 C189 1.359 . S
C188 C193 1.348 . S
C189 C188 1.359 . S
C189 C190 1.380 . S
C189 H212 0.929 . S
C190 C189 1.380 . S
C190 C191 1.347 . S
C190 H213 0.931 . S
C191 C190 1.347 . S
C191 C192 1.369 . S
C192 C191 1.369 . S
C192 C193 1.408 . S
C192 H214 0.930 . S
C193 C188 1.348 . S
C193 C192 1.408 . S
C193 H215 0.930 . S
C194 O204 1.281 . S
C194 O205 1.254 . S
C195 O206 1.236 . S
C195 O207 1.266 . S
O196 Tb176 2.484 1_554 S
O196 C178 1.248 . S
O197 Tb176 2.440 1_554 S
O197 C178 1.266 . S
O198 Tb176 2.658 . S
O198 Tb177 2.325 . S
O198 C185 1.281 . S
O199 Tb176 2.409 . S
O199 C185 1.254 . S
O200 Tb176 2.378 . S
O200 C186 1.236 . S
O201 Tb177 2.341 . S
O201 C186 1.266 . S
O202 Tb177 2.484 . S
O202 C187 1.248 . S
O203 Tb177 2.440 . S
O203 C187 1.266 . S
O204 Tb176 2.325 . S
O204 Tb177 2.658 . S
O204 C194 1.281 . S
O205 Tb177 2.409 . S
O205 C194 1.254 . S
O206 Tb177 2.378 . S
O206 C195 1.236 . S
O207 Tb176 2.341 . S
O207 C195 1.266 . S
H208 C180 0.929 . S
H209 C181 0.931 . S
H210 C183 0.930 . S
H211 C184 0.930 . S
H212 C189 0.929 . S
H213 C190 0.931 . S
H214 C192 0.930 . S
H215 C193 0.930 . S
Tb216 C218 2.809 1_556 S
Tb216 O236 2.484 1_556 S
Tb216 O237 2.440 1_556 S
Tb216 O238 2.658 1_655 S
Tb216 O239 2.409 . S
Tb216 O240 2.378 . S
Tb216 O244 2.325 . S
Tb216 O247 2.341 1_655 S
Tb217 C227 2.809 . S
Tb217 O238 2.325 . S
Tb217 O241 2.341 1_455 S
Tb217 O242 2.484 . S
Tb217 O243 2.440 . S
Tb217 O244 2.658 1_455 S
Tb217 O245 2.409 . S
Tb217 O246 2.378 . S
C218 Tb216 2.809 1_554 S
C218 C219 1.514 . S
C218 O236 1.248 . S
C218 O237 1.266 . S
C219 C218 1.514 . S
C219 C220 1.359 . S
C219 C224 1.348 . S
C220 C219 1.359 . S
C220 C221 1.380 . S
C220 H248 0.929 . S
C221 C220 1.380 . S
C221 C222 1.347 . S
C221 H249 0.931 . S
C222 C221 1.347 . S
C222 C223 1.369 . S
C223 C222 1.369 . S
C223 C224 1.408 . S
C223 H250 0.930 . S
C224 C219 1.348 . S
C224 C223 1.408 . S
C224 H251 0.930 . S
C225 O238 1.277 1_655 S
C225 O239 1.259 . S
C226 O240 1.236 . S
C226 O241 1.266 . S
C227 Tb217 2.809 . S
C227 C228 1.514 . S
C227 O242 1.248 . S
C227 O243 1.266 . S
C228 C227 1.514 . S
C228 C229 1.359 . S
C228 C233 1.348 . S
C229 C228 1.359 . S
C229 C230 1.380 . S
C229 H252 0.929 . S
C230 C229 1.380 . S
C230 C231 1.347 . S
C230 H253 0.931 . S
C231 C230 1.347 . S
C231 C232 1.369 . S
C232 C231 1.369 . S
C232 C233 1.408 . S
C232 H254 0.930 . S
C233 C228 1.348 . S
C233 C232 1.408 . S
C233 H255 0.930 . S
C234 O244 1.274 1_455 S
C234 O245 1.262 . S
C235 O246 1.236 . S
C235 O247 1.266 . S
O236 Tb216 2.484 1_554 S
O236 C218 1.248 . S
O237 Tb216 2.440 1_554 S
O237 C218 1.266 . S
O238 Tb216 2.658 1_455 S
O238 Tb217 2.325 . S
O238 C225 1.277 1_455 S
O239 Tb216 2.409 . S
O239 C225 1.259 . S
O240 Tb216 2.378 . S
O240 C226 1.236 . S
O241 Tb217 2.341 1_655 S
O241 C226 1.266 . S
O242 Tb217 2.484 . S
O242 C227 1.248 . S
O243 Tb217 2.440 . S
O243 C227 1.266 . S
O244 Tb216 2.325 . S
O244 Tb217 2.658 1_655 S
O244 C234 1.274 1_655 S
O245 Tb217 2.409 . S
O245 C234 1.262 . S
O246 Tb217 2.378 . S
O246 C235 1.236 . S
O247 Tb216 2.341 1_455 S
O247 C235 1.266 . S
H248 C220 0.929 . S
H249 C221 0.931 . S
H250 C223 0.930 . S
H251 C224 0.930 . S
H252 C229 0.929 . S
H253 C230 0.931 . S
H254 C232 0.930 . S
H255 C233 0.930 . S
C256 C257 1.387 1_545 S
C256 H260 0.950 . S
C256 C265 1.390 . S
C257 C256 1.387 1_565 S
C257 C259 1.388 . S
H258 C265 0.950 . S
C259 C257 1.388 . S
C259 C261 1.390 . S
C259 H263 0.950 . S
H260 C256 0.950 . S
C261 C259 1.390 . S
C261 C262 1.402 . S
C261 H264 0.950 . S
C262 C261 1.402 . S
C262 C265 1.373 1_565 S
H263 C259 0.950 . S
H264 C261 0.950 . S
C265 C256 1.390 . S
C265 H258 0.950 . S
C265 C262 1.373 1_545 S
C266 C267 1.387 . S
C266 H270 0.950 . S
C266 C275 1.390 . S
C267 C266 1.387 . S
C267 C269 1.387 . S
H268 C275 0.950 . S
C269 C267 1.387 . S
C269 C271 1.390 . S
C269 H273 0.950 . S
H270 C266 0.950 . S
C271 C269 1.390 . S
C271 C272 1.387 . S
C271 H274 0.950 . S
C272 C271 1.387 . S
C272 C275 1.387 . S
H273 C269 0.950 . S
H274 C271 0.950 . S
C275 C266 1.390 . S
C275 H268 0.950 . S
C275 C272 1.387 . S
C276 C277 1.387 . S
C276 H280 0.950 . S
C276 C285 1.390 . S
C277 C276 1.387 . S
C277 C279 1.387 . S
H278 C285 0.950 . S
C279 C277 1.387 . S
C279 C281 1.390 . S
C279 H283 0.950 . S
H280 C276 0.950 . S
C281 C279 1.390 . S
C281 C282 1.387 . S
C281 H284 0.950 . S
C282 C281 1.387 . S
C282 C285 1.387 . S
H283 C279 0.950 . S
H284 C281 0.950 . S
C285 C276 1.390 . S
C285 H278 0.950 . S
C285 C282 1.387 . S
C286 C287 1.376 1_655 S
C286 H290 0.950 . S
C286 C295 1.390 . S
C287 C286 1.376 1_455 S
C287 C289 1.399 . S
H288 C295 0.950 . S
C289 C287 1.399 . S
C289 C291 1.390 . S
C289 H293 0.950 . S
H290 C286 0.950 . S
C291 C289 1.390 . S
C291 C292 1.387 . S
C291 H294 0.950 . S
C292 C291 1.387 . S
C292 C295 1.387 1_455 S
H293 C289 0.950 . S
H294 C291 0.950 . S
C295 C286 1.390 . S
C295 H288 0.950 . S
C295 C292 1.387 1_655 S
C296 C297 1.380 1_565 S
C296 H300 0.950 . S
C296 C305 1.390 . S
C297 C296 1.380 1_545 S
C297 C299 1.395 . S
H298 C305 0.950 . S
C299 C297 1.395 . S
C299 C301 1.390 . S
C299 H303 0.950 . S
H300 C296 0.950 . S
C301 C299 1.390 . S
C301 C302 1.410 . S
C301 H304 0.950 . S
C302 C301 1.410 . S
C302 C305 1.366 1_545 S
H303 C299 0.950 . S
H304 C301 0.950 . S
C305 C296 1.390 . S
C305 H298 0.950 . S
C305 C302 1.366 1_565 S
C306 C307 1.387 . S
C306 H310 0.950 . S
C306 C315 1.390 . S
C307 C306 1.387 . S
C307 C309 1.387 . S
H308 C315 0.950 . S
C309 C307 1.387 . S
C309 C311 1.390 . S
C309 H313 0.950 . S
H310 C306 0.950 . S
C311 C309 1.390 . S
C311 C312 1.387 . S
C311 H314 0.950 . S
C312 C311 1.387 . S
C312 C315 1.387 . S
H313 C309 0.950 . S
H314 C311 0.950 . S
C315 C306 1.390 . S
C315 H308 0.950 . S
C315 C312 1.387 . S
C316 C317 1.387 . S
C316 H320 0.950 . S
C316 C325 1.390 . S
C317 C316 1.387 . S
C317 C319 1.387 . S
H318 C325 0.950 . S
C319 C317 1.387 . S
C319 C321 1.390 . S
C319 H323 0.950 . S
H320 C316 0.950 . S
C321 C319 1.390 . S
C321 C322 1.387 . S
C321 H324 0.950 . S
C322 C321 1.387 . S
C322 C325 1.387 . S
H323 C319 0.950 . S
H324 C321 0.950 . S
C325 C316 1.390 . S
C325 H318 0.950 . S
C325 C322 1.387 . S
C326 C327 1.398 . S
C326 H330 0.950 . S
C326 C335 1.390 . S
C327 C326 1.398 . S
C327 C329 1.377 1_655 S
H328 C335 0.950 . S
C329 C327 1.377 1_455 S
C329 C331 1.390 . S
C329 H333 0.950 . S
H330 C326 0.950 . S
C331 C329 1.390 . S
C331 C332 1.387 1_455 S
C331 H334 0.950 . S
C332 C331 1.387 1_655 S
C332 C335 1.387 . S
H333 C329 0.950 . S
H334 C331 0.950 . S
C335 C326 1.390 . S
C335 H328 0.950 . S
C335 C332 1.387 . S
C336 C337 1.393 . S
C336 H340 0.950 1_655 S
C336 C345 1.390 . S
C337 C336 1.393 . S
C337 C339 1.406 . S
H338 C345 0.950 . S
C339 C337 1.406 . S
C339 C341 1.390 . S
C339 H343 0.950 . S
H340 C336 0.950 1_455 S
C341 C339 1.390 . S
C341 C342 1.387 . S
C341 H344 0.950 . S
C342 C341 1.387 . S
C342 C345 1.387 . S
H343 C339 0.950 . S
H344 C341 0.950 . S
C345 C336 1.390 . S
C345 H338 0.950 . S
C345 C342 1.387 . S
C346 C347 1.400 . S
C346 H350 0.950 . S
C346 C355 1.390 . S
C347 C346 1.400 . S
C347 C349 1.393 . S
H348 C355 0.950 . S
C349 C347 1.393 . S
C349 C351 1.390 . S
C349 H353 0.950 1_565 S
H350 C346 0.950 . S
C351 C349 1.390 . S
C351 C352 1.387 . S
C351 H354 0.950 . S
C352 C351 1.387 . S
C352 C355 1.387 . S
H353 C349 0.950 1_545 S
H354 C351 0.950 . S
C355 C346 1.390 . S
C355 H348 0.950 . S
C355 C352 1.387 . S
C356 C357 1.387 . S
C356 H360 0.950 . S
C356 C365 1.390 . S
C357 C356 1.387 . S
C357 C359 1.387 . S
H358 C365 0.950 . S
C359 C357 1.387 . S
C359 C361 1.390 . S
C359 H363 0.950 . S
H360 C356 0.950 . S
C361 C359 1.390 . S
C361 C362 1.387 . S
C361 H364 0.950 . S
C362 C361 1.387 . S
C362 C365 1.387 . S
H363 C359 0.950 . S
H364 C361 0.950 . S
C365 C356 1.390 . S
C365 H358 0.950 . S
C365 C362 1.387 . S
C366 C367 1.387 . S
C366 H370 0.950 . S
C366 C375 1.390 . S
C367 C366 1.387 . S
C367 C369 1.387 . S
H368 C375 0.950 . S
C369 C367 1.387 . S
C369 C371 1.390 . S
C369 H373 0.950 . S
H370 C366 0.950 . S
C371 C369 1.390 . S
C371 C372 1.387 . S
C371 H374 0.950 . S
C372 C371 1.387 . S
C372 C375 1.387 . S
H373 C369 0.950 . S
H374 C371 0.950 . S
C375 C366 1.390 . S
C375 H368 0.950 . S
C375 C372 1.387 . S
C376 C377 1.397 . S
C376 H380 0.950 . S
C376 C385 1.390 . S
C377 C376 1.397 . S
C377 C379 1.396 . S
H378 C385 0.950 . S
C379 C377 1.396 . S
C379 C381 1.390 . S
C379 H383 0.950 . S
H380 C376 0.950 . S
C381 C379 1.390 . S
C381 C382 1.387 . S
C381 H384 0.950 . S
C382 C381 1.387 . S
C382 C385 1.387 . S
H383 C379 0.950 . S
H384 C381 0.950 . S
C385 C376 1.390 . S
C385 H378 0.950 . S
C385 C382 1.387 . S
C386 C387 1.378 1_565 S
C386 H390 0.950 . S
C386 C395 1.390 1_565 S
C387 C386 1.378 1_545 S
C387 C389 1.418 . S
H388 C395 0.950 . S
C389 C387 1.418 . S
C389 C391 1.390 . S
C389 H393 0.950 . S
H390 C386 0.950 . S
C391 C389 1.390 . S
C391 C392 1.387 . S
C391 H394 0.950 . S
C392 C391 1.387 . S
C392 C395 1.387 . S
H393 C389 0.950 . S
H394 C391 0.950 . S
C395 C386 1.390 1_545 S
C395 H388 0.950 . S
C395 C392 1.387 . S
C396 C397 1.387 . S
C396 H400 0.950 . S
C396 C405 1.390 . S
C397 C396 1.387 . S
C397 C399 1.387 . S
H398 C405 0.950 . S
C399 C397 1.387 . S
C399 C401 1.390 . S
C399 H403 0.950 . S
H400 C396 0.950 . S
C401 C399 1.390 . S
C401 C402 1.387 . S
C401 H404 0.950 . S
C402 C401 1.387 . S
C402 C405 1.387 . S
H403 C399 0.950 . S
H404 C401 0.950 . S
C405 C396 1.390 . S
C405 H398 0.950 . S
C405 C402 1.387 . S
C406 C407 1.387 . S
C406 H410 0.950 . S
C406 C415 1.390 . S
C407 C406 1.387 . S
C407 C409 1.387 . S
H408 C415 0.950 . S
C409 C407 1.387 . S
C409 C411 1.390 . S
C409 H413 0.950 . S
H410 C406 0.950 . S
C411 C409 1.390 . S
C411 C412 1.387 . S
C411 H414 0.950 . S
C412 C411 1.387 . S
C412 C415 1.387 . S
H413 C409 0.950 . S
H414 C411 0.950 . S
C415 C406 1.390 . S
C415 H408 0.950 . S
C415 C412 1.387 . S
C416 C417 1.387 . S
C416 H420 0.950 . S
C416 C425 1.390 . S
C417 C416 1.387 . S
C417 C419 1.387 . S
H418 C425 0.950 . S
C419 C417 1.387 . S
C419 C421 1.390 . S
C419 H423 0.950 1_556 S
H420 C416 0.950 . S
C421 C419 1.390 . S
C421 C422 1.387 . S
C421 H424 0.950 1_556 S
C422 C421 1.387 . S
C422 C425 1.387 . S
H423 C419 0.950 1_554 S
H424 C421 0.950 1_554 S
C425 C416 1.390 . S
C425 H418 0.950 . S
C425 C422 1.387 . S
C426 C427 1.387 . S
C426 H430 0.950 . S
C426 C435 1.390 . S
C427 C426 1.387 . S
C427 C429 1.387 1_545 S
H428 C435 0.950 . S
C429 C427 1.387 1_565 S
C429 C431 1.390 . S
C429 H433 0.950 . S
H430 C426 0.950 . S
C431 C429 1.390 . S
C431 C432 1.387 1_565 S
C431 H434 0.950 . S
C432 C431 1.387 1_545 S
C432 C435 1.387 . S
H433 C429 0.950 . S
H434 C431 0.950 . S
C435 C426 1.390 . S
C435 H428 0.950 . S
C435 C432 1.387 . S
C436 C437 1.387 . S
C436 H440 0.950 . S
C436 C445 1.390 . S
C437 C436 1.387 . S
C437 C439 1.387 . S
H438 C445 0.950 . S
C439 C437 1.387 . S
C439 C441 1.390 . S
C439 H443 0.950 1_556 S
H440 C436 0.950 . S
C441 C439 1.390 . S
C441 C442 1.387 . S
C441 H444 0.950 1_556 S
C442 C441 1.387 . S
C442 C445 1.387 . S
H443 C439 0.950 1_554 S
H444 C441 0.950 1_554 S
C445 C436 1.390 . S
C445 H438 0.950 . S
C445 C442 1.387 . S
C446 C447 1.387 . S
C446 H450 0.950 . S
C446 C455 1.390 . S
C447 C446 1.387 . S
C447 C449 1.387 . S
H448 C455 0.950 . S
C449 C447 1.387 . S
C449 C451 1.390 . S
C449 H453 0.950 1_556 S
H450 C446 0.950 . S
C451 C449 1.390 . S
C451 C452 1.387 . S
C451 H454 0.950 1_556 S
C452 C451 1.387 . S
C452 C455 1.387 . S
H453 C449 0.950 1_554 S
H454 C451 0.950 1_554 S
C455 C446 1.390 . S
C455 H448 0.950 . S
C455 C452 1.387 . S
C456 C457 1.387 . S
C456 H460 0.950 1_655 S
C456 C465 1.390 . S
C457 C456 1.387 . S
C457 C459 1.387 . S
H458 C465 0.950 . S
C459 C457 1.387 . S
C459 C461 1.390 . S
C459 H463 0.950 . S
H460 C456 0.950 1_455 S
C461 C459 1.390 . S
C461 C462 1.387 . S
C461 H464 0.950 . S
C462 C461 1.387 . S
C462 C465 1.387 . S
H463 C459 0.950 . S
H464 C461 0.950 . S
C465 C456 1.390 . S
C465 H458 0.950 . S
C465 C462 1.387 . S
C466 C467 1.387 1_545 S
C466 H470 0.950 . S
C466 C475 1.390 . S
C467 C466 1.387 1_565 S
C467 C469 1.387 . S
H468 C475 0.950 . S
C469 C467 1.387 . S
C469 C471 1.390 . S
C469 H473 0.950 . S
H470 C466 0.950 . S
C471 C469 1.390 . S
C471 C472 1.387 . S
C471 H474 0.950 . S
C472 C471 1.387 . S
C472 C475 1.387 1_565 S
H473 C469 0.950 . S
H474 C471 0.950 . S
C475 C466 1.390 . S
C475 H468 0.950 . S
C475 C472 1.387 1_545 S
C476 C477 1.387 . S
C476 H480 0.950 . S
C476 C485 1.390 . S
C477 C476 1.387 . S
C477 C479 1.387 . S
H478 C485 0.950 . S
C479 C477 1.387 . S
C479 C481 1.390 . S
C479 H483 0.950 . S
H480 C476 0.950 . S
C481 C479 1.390 . S
C481 C482 1.387 . S
C481 H484 0.950 . S
C482 C481 1.387 . S
C482 C485 1.387 . S
H483 C479 0.950 . S
H484 C481 0.950 . S
C485 C476 1.390 . S
C485 H478 0.950 . S
C485 C482 1.387 . S
C486 C487 1.387 . S
C486 H490 0.950 . S
C486 C495 1.390 . S
C487 C486 1.387 . S
C487 C489 1.387 . S
H488 C495 0.950 . S
C489 C487 1.387 . S
C489 C491 1.390 . S
C489 H493 0.950 . S
H490 C486 0.950 . S
C491 C489 1.390 . S
C491 C492 1.387 . S
C491 H494 0.950 . S
C492 C491 1.387 . S
C492 C495 1.387 . S
H493 C489 0.950 . S
H494 C491 0.950 . S
C495 C486 1.390 . S
C495 H488 0.950 . S
C495 C492 1.387 . S
C257 C76 1.917 . S
C262 C105 2.209 . S
C272 C145 2.233 . S
C267 C88 1.943 . S
C282 C185 2.246 . S
C277 C52 1.961 . S
C292 C225 2.223 1_455 S
C287 C64 1.937 1_455 S
C302 C114 2.212 1_554 S
C297 C28 1.925 1_545 S
C307 C40 1.940 . S
C312 C154 2.234 1_554 S
C317 C4 1.954 . S
C322 C194 2.245 1_554 S
C327 C16 1.938 . S
C332 C234 2.224 1_654 S
C342 C111 0.780 . S
C337 C69 0.781 1_655 S
C352 C151 0.778 . S
C347 C81 0.781 1_565 S
C362 C191 0.774 . S
C357 C93 0.775 . S
C367 C57 0.772 . S
C372 C231 0.763 . S
C377 C21 0.790 . S
C382 C102 0.791 . S
C392 C142 0.781 . S
C387 C33 0.784 . S
C402 C182 0.774 . S
C397 C45 0.775 . S
C407 C9 0.773 . S
C412 C222 0.776 . S
C417 C66 2.269 . S
C422 C115 2.590 . S
C427 C78 2.219 . S
C432 C155 2.542 . S
C442 C195 2.524 . S
C437 C90 2.197 . S
C452 C235 2.576 . S
C447 C54 2.245 . S
C457 C18 2.279 1_655 S
C462 C106 2.597 . S
C472 C146 2.543 . S
C467 C30 2.229 1_565 S
C482 C186 2.523 . S
C477 C42 2.214 . S
C487 C6 2.264 . S
C492 C226 2.578 . S
