# Generated by pormake.
# Topology pyr, (3,6)-cn, num edge types: 1
# Building blocks:
#     Node 0, Type 0, BuildingBlock: BETDIP_clean_linker_0, # of connection points: 3
#     Node 1, Type 0, BuildingBlock: BETDIP_clean_linker_0, # of connection points: 3
#     Node 2, Type 0, BuildingBlock: BETDIP_clean_linker_0, # of connection points: 3
#     Node 3, Type 0, BuildingBlock: BETDIP_clean_linker_0, # of connection points: 3
#     Node 4, Type 0, BuildingBlock: BETDIP_clean_linker_0, # of connection points: 3
#     Node 5, Type 0, BuildingBlock: BETDIP_clean_linker_0, # of connection points: 3
#     Node 6, Type 0, BuildingBlock: BETDIP_clean_linker_0, # of connection points: 3
#     Node 7, Type 0, BuildingBlock: BETDIP_clean_linker_0, # of connection points: 3
#     Node 8, Type 1, BuildingBlock: PAMTOO_clean_sbu_0, # of connection points: 6
#     Node 9, Type 1, BuildingBlock: PAMTOO_clean_sbu_0, # of connection points: 6
#     Node 10, Type 1, BuildingBlock: PAMTOO_clean_sbu_0, # of connection points: 6
#     Node 11, Type 1, BuildingBlock: PAMTOO_clean_sbu_0, # of connection points: 6
#     Edge 12, Type (0, 1), None
#     Edge 13, Type (0, 1), None
#     Edge 14, Type (0, 1), None
#     Edge 15, Type (0, 1), None
#     Edge 16, Type (0, 1), None
#     Edge 17, Type (0, 1), None
#     Edge 18, Type (0, 1), None
#     Edge 19, Type (0, 1), None
#     Edge 20, Type (0, 1), None
#     Edge 21, Type (0, 1), None
#     Edge 22, Type (0, 1), None
#     Edge 23, Type (0, 1), None
#     Edge 24, Type (0, 1), None
#     Edge 25, Type (0, 1), None
#     Edge 26, Type (0, 1), None
#     Edge 27, Type (0, 1), None
#     Edge 28, Type (0, 1), None
#     Edge 29, Type (0, 1), None
#     Edge 30, Type (0, 1), None
#     Edge 31, Type (0, 1), None
#     Edge 32, Type (0, 1), None
#     Edge 33, Type (0, 1), None
#     Edge 34, Type (0, 1), None
#     Edge 35, Type (0, 1), None
# Relax obj value: 0.389
# Max RMSD: 0.248
# Mean RMSD: 0.141
data_MOF--net-pyr--node1-PAMTOO_clean_sbu_0--node2-BETDIP_clean_linker_0--edge1-none
_symmetry_space_group_name_H-M    P1
_symmetry_Int_Tables_number       1
_symmetry_cell_setting            triclinic
loop_
_symmetry_equiv_pos_as_xyz
'x, y, z'
_cell_length_a     16.775545
_cell_length_b     17.634866
_cell_length_c     17.58849
_cell_angle_alpha  90.201232
_cell_angle_beta   89.306939
_cell_angle_gamma 111.14968
loop_
_atom_site_label
_atom_site_type_symbol
_atom_site_fract_x
_atom_site_fract_y
_atom_site_fract_z
_atom_type_partial_charge
H0 H 0.47373 0.41712 0.32617 0.0
H1 H 0.6242 0.38215 0.1416 0.0
H2 H 0.60071 0.24685 0.34665 0.0
H3 H 0.5148 0.56157 0.25621 0.0
C4 C 0.48278 0.51428 0.21539 0.0
C5 C 0.51824 0.39105 0.30361 0.0
C6 C 0.5289 0.32595 0.34208 0.0
C7 C 0.55623 0.4152 0.23217 0.0
C8 C 0.6065 0.37376 0.20127 0.0
C9 C 0.6179 0.30951 0.2423 0.0
C10 C 0.59212 0.29732 0.31747 0.0
N11 N 0.53062 0.46832 0.18578 0.0
H12 H 1.01459 0.8576 0.90416 0.0
H13 H 0.13979 0.76102 0.73914 0.0
H14 H 0.25086 0.82927 0.95911 0.0
H15 H 0.16182 0.94215 0.76295 0.0
C16 C 0.09467 0.92398 0.74748 0.0
C17 C 0.06352 0.83249 0.8912 0.0
C18 C 0.13096 0.84572 0.94105 0.0
C19 C 0.06845 0.80635 0.81766 0.0
C20 C 0.13362 0.77732 0.79779 0.0
C21 C 0.19834 0.78244 0.85 0.0
C22 C 0.19649 0.8168 0.92195 0.0
N23 N 0.04 0.84881 0.76343 0.0
H24 H 0.80247 0.53395 0.9475 0.0
H25 H 0.58269 0.3159 0.91399 0.0
H26 H 0.77275 0.32249 1.08209 0.0
H27 H 0.58281 0.38649 0.78986 0.0
C28 C 0.60943 0.45163 0.79984 0.0
C29 C 0.76688 0.47109 0.96194 0.0
C30 C 0.79848 0.43305 1.01971 0.0
C31 C 0.69052 0.43101 0.92148 0.0
C32 C 0.64276 0.34784 0.94171 0.0
C33 C 0.67228 0.3066 0.99958 0.0
C34 C 0.75032 0.35109 1.03707 0.0
N35 N 0.66454 0.47896 0.86519 0.0
H36 H 0.79317 0.61497 0.45224 0.0
H37 H 1.01465 0.83712 0.43826 0.0
H38 H 0.81071 0.81567 0.59851 0.0
H39 H 0.85411 0.65702 0.29614 0.0
C40 C 0.91322 0.64927 0.31174 0.0
C41 C 0.82766 0.67645 0.47062 0.0
C42 C 0.79288 0.71025 0.53104 0.0
C43 C 0.90855 0.72075 0.43577 0.0
C44 C 0.95282 0.80207 0.46275 0.0
C45 C 0.91722 0.83803 0.52106 0.0
C46 C 0.83848 0.79 0.55409 0.0
N47 N 0.94856 0.68292 0.37965 0.0
H48 H 0.44603 0.79205 1.10234 0.0
H49 H 0.60974 0.76435 0.92496 0.0
H50 H 0.49275 0.94303 0.90517 0.0
H51 H 0.55699 0.61062 0.9949 0.0
C52 C 0.58866 0.66008 1.03378 0.0
C53 C 0.46989 0.80457 1.04443 0.0
C54 C 0.4634 0.87195 1.00541 0.0
C55 C 0.52216 0.76447 1.01548 0.0
C56 C 0.56582 0.79158 0.94664 0.0
C57 C 0.55698 0.85733 0.90756 0.0
C58 C 0.4966 0.88948 0.93258 0.0
N59 N 0.54024 0.70628 1.06121 0.0
H60 H 0.06741 0.31602 0.35711 0.0
H61 H 0.94539 0.41773 0.52088 0.0
H62 H 0.83219 0.34672 0.30255 0.0
H63 H 0.91868 0.2361 0.50937 0.0
C64 C 0.98726 0.24961 0.5131 0.0
C65 C 1.01972 0.34276 0.36966 0.0
C66 C 0.9516 0.32922 0.3203 0.0
C67 C 1.01583 0.37076 0.44295 0.0
C68 C 0.95143 0.40092 0.46235 0.0
C69 C 0.88622 0.39504 0.41059 0.0
C70 C 0.88716 0.3597 0.33907 0.0
N71 N 0.04412 0.33012 0.499 0.0
H72 H 0.27353 0.62922 0.29104 0.0
H73 H 0.48761 0.84889 0.34055 0.0
H74 H 0.30166 0.84862 0.17128 0.0
H75 H 0.47106 0.77377 0.46729 0.0
C76 C 0.45429 0.71011 0.4523 0.0
C77 C 0.30854 0.69324 0.28136 0.0
C78 C 0.27744 0.73445 0.22616 0.0
C79 C 0.3822 0.73295 0.32622 0.0
C80 C 0.42886 0.81768 0.31059 0.0
C81 C 0.40043 0.86135 0.25427 0.0
C82 C 0.32341 0.81813 0.21507 0.0
N83 N 0.4082 0.68398 0.38161 0.0
H84 H 0.07205 0.30931 0.81964 0.0
H85 H 0.28003 0.5418 0.80287 0.0
H86 H 0.26025 0.35292 0.64013 0.0
H87 H 0.16386 0.58535 0.87168 0.0
C88 C 0.14101 0.53687 0.9133 0.0
C89 C 0.12873 0.34974 0.79075 0.0
C90 C 0.16067 0.32057 0.72523 0.0
C91 C 0.1694 0.43093 0.81948 0.0
C92 C 0.24559 0.48151 0.781 0.0
C93 C 0.27911 0.45287 0.71596 0.0
C94 C 0.23469 0.37403 0.68926 0.0
N95 N 0.1365 0.45587 0.88949 0.0
Dy96 Dy 0.12391 0.09303 0.57479 0.0
Dy97 Dy 0.95336 0.07155 0.65764 0.0
C98 C 0.12019 0.23574 0.69083 0.0
O99 O 0.12922 1.04649 0.68917 0.0
O100 O 0.98934 0.97299 0.70829 0.0
O101 O 0.25505 0.10297 0.58273 0.0
O102 O 0.18694 0.07272 0.47503 0.0
O103 O 0.92278 0.94535 0.61169 0.0
O104 O 1.0288 0.97709 0.52204 0.0
O105 O 0.9565 0.11828 0.54199 0.0
O106 O 0.09358 0.19796 0.53118 0.0
O107 O 0.82014 1.05198 0.64347 0.0
O108 O 0.885 0.09952 0.74995 0.0
C109 C 0.0696 0.98167 0.71442 0.0
O110 O 0.15858 0.21554 0.63213 0.0
O111 O 0.04634 0.1842 0.716 0.0
C112 C 0.32916 0.15781 0.47212 0.0
C113 C 0.46152 0.27482 0.39405 0.0
C114 C 0.37651 0.26841 0.38293 0.0
C115 C 0.31102 0.21124 0.42262 0.0
C116 C 0.41323 0.1659 0.4867 0.0
C117 C 0.47931 0.22468 0.44843 0.0
C118 C 0.26045 0.09427 0.50938 0.0
C119 C 0.95872 0.92403 0.55227 0.0
C120 C 1.01336 0.18853 0.52588 0.0
C121 C 0.74589 1.00823 0.75666 0.0
C122 C 0.62015 0.9021 0.84945 0.0
C123 C 0.70526 0.90701 0.85539 0.0
C124 C 0.76749 0.95878 0.80834 0.0
C125 C 0.66111 1.00047 0.74685 0.0
C126 C 0.59819 0.94695 0.79253 0.0
C127 C 0.81225 0.06942 0.71461 0.0
H128 H 0.35914 0.30416 0.34087 0.0
H129 H 0.24598 0.20704 0.41234 0.0
H130 H 0.42757 0.12603 0.52664 0.0
H131 H 0.54386 0.22918 0.46051 0.0
H132 H 0.72536 0.87466 0.89883 0.0
H133 H 0.83311 0.96296 0.81496 0.0
H134 H 0.64401 1.03725 0.70547 0.0
H135 H 0.53295 0.94284 0.78459 0.0
Dy136 Dy 0.44636 0.09865 1.1098 0.0
Dy137 Dy 0.62689 0.07391 0.15046 0.0
C138 C 0.45189 0.94862 0.22732 0.0
O139 O 0.52744 0.21099 0.16534 0.0
O140 O 0.63456 0.18051 0.22158 0.0
O141 O 0.33784 0.11295 0.16706 0.0
O142 O 0.34964 0.11874 1.04336 0.0
O143 O 0.66236 0.18135 1.06686 0.0
O144 O 0.53637 0.19404 1.03058 0.0
O145 O 0.54686 0.96423 1.09057 0.0
O146 O 0.4422 0.99758 1.03271 0.0
O147 O 0.73696 1.05862 1.09713 0.0
O148 O 0.72086 1.05343 0.22043 0.0
C149 C 0.59847 0.23247 0.20309 0.0
O150 O 0.41086 0.98763 0.18878 0.0
O151 O 0.5363 0.97734 0.22874 0.0
C152 C 0.21791 1.04231 1.09309 0.0
C153 C 0.14268 0.90638 1.00209 0.0
C154 C 0.17979 0.89836 1.07074 0.0
C155 C 0.21464 0.96556 0.11768 0.0
C156 C 0.16696 1.04733 1.03249 0.0
C157 C 0.12994 0.97961 0.98654 0.0
C158 C 0.29877 0.10992 1.10242 0.0
C159 C 0.62082 0.22068 1.02918 0.0
C160 C 0.47845 0.94526 1.04931 0.0
C161 C 0.85467 0.12825 0.17398 0.0
C162 C 0.93674 0.26609 0.26109 0.0
C163 C 0.89942 0.27334 0.19226 0.0
C164 C 0.86067 0.20514 0.14759 0.0
C165 C 0.9045 0.12279 0.23539 0.0
C166 C 0.94528 0.19157 0.27916 0.0
C167 C 0.77361 1.06139 0.16298 0.0
H168 H 0.18951 0.84276 1.08394 0.0
H169 H 0.25101 0.95994 0.16623 0.0
H170 H 0.16811 0.10596 1.01298 0.0
H171 H 0.10139 0.98829 0.93397 0.0
H172 H 0.89266 0.32964 0.17702 0.0
H173 H 0.82419 0.21099 1.09915 0.0
H174 H 0.90073 1.06392 0.25655 0.0
H175 H 0.9737 0.18351 0.33203 0.0
Dy176 Dy 0.52341 0.51456 0.57163 0.0
Dy177 Dy 0.54937 0.64998 0.68018 0.0
C178 C 0.59084 0.50096 0.74631 0.0
O179 O 0.38685 0.47531 0.61308 0.0
O180 O 0.41965 0.56032 0.71458 0.0
O181 O 0.53459 0.39631 0.56748 0.0
O182 O 0.5318 0.46076 0.46326 0.0
O183 O 0.51359 0.69642 0.56818 0.0
O184 O 0.46157 0.58329 0.49515 0.0
O185 O 0.68411 0.69382 0.63245 0.0
O186 O 0.65353 0.60172 0.53662 0.0
O187 O 0.5478 0.77106 0.69511 0.0
O188 O 0.53831 0.69348 0.79301 0.0
C189 C 0.36421 0.50002 0.67804 0.0
O190 O 0.54281 0.46541 0.68806 0.0
O191 O 0.61644 0.58093 0.75035 0.0
C192 C 0.64449 0.40895 0.47671 0.0
C193 C 0.80686 0.40583 0.43686 0.0
C194 C 0.77135 0.45295 0.39486 0.0
C195 C 0.69191 0.45613 0.41568 0.0
C196 C 0.68095 0.36276 0.51931 0.0
C197 C 0.7615 0.36162 0.4999 0.0
C198 C 0.55749 0.40755 0.49622 0.0
C199 C 0.47566 0.66143 0.50487 0.0
C200 C 0.70729 0.66579 0.56951 0.0
C201 C 0.43494 0.75654 0.78398 0.0
C202 C 0.27671 0.76881 0.82484 0.0
C203 C 0.31258 0.72449 0.87027 0.0
C204 C 0.38933 0.7161 0.84872 0.0
C205 C 0.39856 0.80039 0.7382 0.0
C206 C 0.31997 0.80591 0.75809 0.0
C207 C 0.52027 0.75358 0.76484 0.0
H208 H 0.80452 0.48636 0.34534 0.0
H209 H 0.66667 0.49368 0.3824 0.0
H210 H 0.64646 0.32612 0.56684 0.0
H211 H 0.7868 0.32342 0.53232 0.0
H212 H 0.28164 0.69688 0.92288 0.0
H213 H 0.41433 0.68018 0.88439 0.0
H214 H 0.43152 0.83181 0.68767 0.0
H215 H 0.29474 0.84202 0.7228 0.0
Dy216 Dy 1.02228 0.65804 1.08648 0.0
Dy217 Dy 0.05263 0.51652 0.16098 0.0
C218 C 0.95284 0.6166 0.2519 0.0
O219 O 0.13987 0.72024 0.16166 0.0
O220 O 0.18336 0.6136 0.15953 0.0
O221 O 0.98977 0.76589 1.10505 0.0
O222 O 0.98335 0.71358 0.99358 0.0
O223 O 0.0818 0.49859 1.03591 0.0
O224 O 0.10887 0.62843 0.99682 0.0
O225 O 0.91165 0.45861 0.1219 0.0
O226 O 0.92774 0.55132 1.02885 0.0
O227 O 0.07789 0.40408 0.15547 0.0
O228 O 0.09264 0.47001 0.26076 0.0
C229 C 0.19783 0.68873 0.17956 0.0
O230 O 0.9258 0.61524 0.1824 0.0
O231 O 1.01554 0.58852 0.25963 0.0
C232 C 0.8644 0.74677 1.03211 0.0
C233 C 0.68357 0.69406 1.03257 0.0
C234 C 0.7305 0.74191 1.09242 0.0
C235 C 0.82018 0.76744 1.09256 0.0
C236 C 0.81694 0.70383 0.96992 0.0
C237 C 0.72773 0.6767 0.9708 0.0
C238 C 0.95709 0.75978 1.03734 0.0
C239 C 0.11065 0.55461 0.98278 0.0
C240 C 0.88245 0.48156 1.05929 0.0
C241 C 0.20694 0.42799 0.22396 0.0
C242 C 0.38781 0.47963 0.21906 0.0
C243 C 0.33926 0.43745 0.15744 0.0
C244 C 0.24966 0.41249 0.15954 0.0
C245 C 0.25583 0.46447 0.28767 0.0
C246 C 0.34516 0.49112 0.28475 0.0
C247 C 0.11472 0.41769 0.2215 0.0
H248 H 0.69779 0.75671 0.14044 0.0
H249 H 0.85456 0.80074 0.14119 0.0
H250 H 0.84846 0.68784 0.9217 0.0
H251 H 0.69305 0.64135 0.92322 0.0
H252 H 0.37066 0.42711 1.10639 0.0
H253 H 0.21427 0.38412 1.10949 0.0
H254 H 0.22529 0.47649 0.33854 0.0
H255 H 0.38114 0.52188 0.33372 0.0
loop_
_geom_bond_atom_site_label_1
_geom_bond_atom_site_label_2
_geom_bond_distance
_geom_bond_site_symmetry_2
_ccdc_geom_bond_type
H0 C5 0.930 . S
H1 C8 0.930 . S
H2 C10 0.930 . S
H3 C4 1.016 . S
C4 H3 1.016 . S
C4 N11 1.286 . S
C5 H0 0.930 . S
C5 C6 1.397 . S
C5 C7 1.361 . S
C6 C5 1.397 . S
C6 C10 1.390 . S
C7 C5 1.361 . S
C7 C8 1.393 . S
C7 N11 1.413 . S
C8 H1 0.930 . S
C8 C7 1.393 . S
C8 C9 1.399 . S
C9 C8 1.399 . S
C9 C10 1.381 . S
C10 H2 0.930 . S
C10 C6 1.390 . S
C10 C9 1.381 . S
N11 C4 1.286 . S
N11 C7 1.413 . S
H12 C17 0.930 . S
H13 C20 0.930 . S
H14 C22 0.930 . S
H15 C16 1.016 . S
C16 H15 1.016 . S
C16 N23 1.286 . S
C17 H12 0.930 . S
C17 C18 1.397 1_655 S
C17 C19 1.361 . S
C18 C17 1.397 1_455 S
C18 C22 1.390 . S
C19 C17 1.361 . S
C19 C20 1.393 . S
C19 N23 1.413 . S
C20 H13 0.930 . S
C20 C19 1.393 . S
C20 C21 1.399 1_655 S
C21 C20 1.399 1_455 S
C21 C22 1.381 . S
C22 H14 0.930 . S
C22 C18 1.390 . S
C22 C21 1.381 . S
N23 C16 1.286 . S
N23 C19 1.413 . S
H24 C29 0.930 . S
H25 C32 0.930 . S
H26 C34 0.930 . S
H27 C28 1.016 . S
C28 H27 1.016 . S
C28 N35 1.286 . S
C29 H24 0.930 . S
C29 C30 1.397 . S
C29 C31 1.361 . S
C30 C29 1.397 . S
C30 C34 1.390 . S
C31 C29 1.361 . S
C31 C32 1.393 . S
C31 N35 1.413 . S
C32 H25 0.930 . S
C32 C31 1.393 . S
C32 C33 1.399 . S
C33 C32 1.399 . S
C33 C34 1.381 . S
C34 H26 0.930 . S
C34 C30 1.390 . S
C34 C33 1.381 . S
N35 C28 1.286 . S
N35 C31 1.413 . S
H36 C41 0.930 . S
H37 C44 0.930 . S
H38 C46 0.930 . S
H39 C40 1.016 . S
C40 H39 1.016 . S
C40 N47 1.286 . S
C41 H36 0.930 . S
C41 C42 1.397 . S
C41 C43 1.361 . S
C42 C41 1.397 . S
C42 C46 1.390 . S
C43 C41 1.361 . S
C43 C44 1.393 . S
C43 N47 1.413 . S
C44 H37 0.930 . S
C44 C43 1.393 . S
C44 C45 1.399 . S
C45 C44 1.399 . S
C45 C46 1.381 . S
C46 H38 0.930 . S
C46 C42 1.390 . S
C46 C45 1.381 . S
N47 C40 1.286 . S
N47 C43 1.413 . S
H48 C53 0.930 . S
H49 C56 0.930 . S
H50 C58 0.930 . S
H51 C52 1.016 . S
C52 H51 1.016 . S
C52 N59 1.286 . S
C53 H48 0.930 . S
C53 C54 1.397 . S
C53 C55 1.361 . S
C54 C53 1.397 . S
C54 C58 1.390 . S
C55 C53 1.361 . S
C55 C56 1.393 . S
C55 N59 1.413 . S
C56 H49 0.930 . S
C56 C55 1.393 . S
C56 C57 1.399 . S
C57 C56 1.399 . S
C57 C58 1.381 . S
C58 H50 0.930 . S
C58 C54 1.390 . S
C58 C57 1.381 . S
N59 C52 1.286 . S
N59 C55 1.413 . S
H60 C65 0.930 . S
H61 C68 0.930 1_455 S
H62 C70 0.930 . S
H63 C64 1.016 . S
C64 H63 1.016 . S
C64 N71 1.286 . S
C65 H60 0.930 . S
C65 C66 1.397 . S
C65 C67 1.361 1_655 S
C66 C65 1.397 . S
C66 C70 1.390 . S
C67 C65 1.361 1_455 S
C67 C68 1.393 1_455 S
C67 N71 1.413 . S
C68 H61 0.930 1_655 S
C68 C67 1.393 1_655 S
C68 C69 1.399 . S
C69 C68 1.399 . S
C69 C70 1.381 . S
C70 H62 0.930 . S
C70 C66 1.390 . S
C70 C69 1.381 . S
N71 C64 1.286 . S
N71 C67 1.413 . S
H72 C77 0.930 . S
H73 C80 0.930 . S
H74 C82 0.930 . S
H75 C76 1.016 . S
C76 H75 1.016 . S
C76 N83 1.286 . S
C77 H72 0.930 . S
C77 C78 1.397 . S
C77 C79 1.361 . S
C78 C77 1.397 . S
C78 C82 1.390 . S
C79 C77 1.361 . S
C79 C80 1.393 . S
C79 N83 1.413 . S
C80 H73 0.930 . S
C80 C79 1.393 . S
C80 C81 1.399 . S
C81 C80 1.399 . S
C81 C82 1.381 . S
C82 H74 0.930 . S
C82 C78 1.390 . S
C82 C81 1.381 . S
N83 C76 1.286 . S
N83 C79 1.413 . S
H84 C89 0.930 . S
H85 C92 0.930 . S
H86 C94 0.930 . S
H87 C88 1.016 . S
C88 H87 1.016 . S
C88 N95 1.286 . S
C89 H84 0.930 . S
C89 C90 1.397 . S
C89 C91 1.361 . S
C90 C89 1.397 . S
C90 C94 1.390 . S
C91 C89 1.361 . S
C91 C92 1.393 . S
C91 N95 1.413 . S
C92 H85 0.930 . S
C92 C91 1.393 . S
C92 C93 1.399 . S
C93 C92 1.399 . S
C93 C94 1.381 . S
C94 H86 0.930 . S
C94 C90 1.390 . S
C94 C93 1.381 . S
N95 C88 1.286 . S
N95 C91 1.413 . S
Dy96 O99 2.307 1_545 S
Dy96 O101 2.395 . S
Dy96 O102 2.379 . S
Dy96 O104 2.339 1_545 S
Dy96 O106 2.298 . S
Dy96 O110 2.275 . S
Dy96 C118 2.738 . S
Dy97 O100 2.298 . S
Dy97 O103 2.275 . S
Dy97 O105 2.307 1_565 S
Dy97 O107 2.395 . S
Dy97 O108 2.379 . S
Dy97 O111 2.339 1_565 S
Dy97 C127 2.738 . S
C98 O110 1.254 . S
C98 O111 1.257 1_455 S
O99 Dy96 2.307 1_565 S
O99 C109 1.266 . S
O100 Dy97 2.298 . S
O100 C109 1.236 1_655 S
O101 Dy96 2.395 . S
O101 C118 1.255 . S
O102 Dy96 2.379 . S
O102 C118 1.249 . S
O103 Dy97 2.275 . S
O103 C119 1.254 . S
O104 Dy96 2.339 1_565 S
O104 C119 1.257 1_455 S
O105 Dy97 2.307 1_545 S
O105 C120 1.266 . S
O106 Dy96 2.298 . S
O106 C120 1.236 1_455 S
O107 Dy97 2.395 . S
O107 C127 1.255 . S
O108 Dy97 2.379 . S
O108 C127 1.249 . S
C109 O99 1.266 . S
C109 O100 1.236 1_455 S
O110 Dy96 2.275 . S
O110 C98 1.254 . S
O111 Dy97 2.339 1_545 S
O111 C98 1.257 1_655 S
C112 C115 1.344 . S
C112 C116 1.328 . S
C112 C118 1.516 . S
C113 C114 1.304 . S
C113 C117 1.323 . S
C114 C113 1.304 . S
C114 C115 1.371 . S
C114 H128 0.930 . S
C115 C112 1.344 . S
C115 C114 1.371 . S
C115 H129 0.931 . S
C116 C112 1.328 . S
C116 C117 1.433 . S
C116 H130 0.931 . S
C117 C113 1.323 . S
C117 C116 1.433 . S
C117 H131 0.933 . S
C118 Dy96 2.738 . S
C118 O101 1.255 . S
C118 O102 1.249 . S
C118 C112 1.516 . S
C119 O103 1.254 . S
C119 O104 1.257 1_655 S
C120 O105 1.266 . S
C120 O106 1.236 1_655 S
C121 C124 1.344 . S
C121 C125 1.328 . S
C121 C127 1.516 . S
C122 C123 1.304 . S
C122 C126 1.323 . S
C123 C122 1.304 . S
C123 C124 1.371 . S
C123 H132 0.930 . S
C124 C121 1.344 . S
C124 C123 1.371 . S
C124 H133 0.931 . S
C125 C121 1.328 . S
C125 C126 1.433 . S
C125 H134 0.931 . S
C126 C122 1.323 . S
C126 C125 1.433 . S
C126 H135 0.933 . S
C127 Dy97 2.738 . S
C127 O107 1.255 . S
C127 O108 1.249 . S
C127 C121 1.516 . S
H128 C114 0.930 . S
H129 C115 0.931 . S
H130 C116 0.931 . S
H131 C117 0.933 . S
H132 C123 0.930 . S
H133 C124 0.931 . S
H134 C125 0.931 . S
H135 C126 0.933 . S
Dy136 O139 2.307 1_556 S
Dy136 O141 2.395 1_545 S
Dy136 O142 2.379 1_545 S
Dy136 O144 2.339 . S
Dy136 O146 2.298 1_545 S
Dy136 O150 2.275 1_546 S
Dy136 C158 2.738 1_545 S
Dy137 O140 2.298 . S
Dy137 O143 2.275 1_554 S
Dy137 O145 2.307 1_544 S
Dy137 O147 2.395 . S
Dy137 O148 2.379 . S
Dy137 O151 2.339 1_545 S
Dy137 C167 2.738 . S
C138 O150 1.254 . S
C138 O151 1.257 . S
O139 Dy136 2.307 1_554 S
O139 C149 1.266 . S
O140 Dy137 2.298 . S
O140 C149 1.236 . S
O141 Dy136 2.395 1_565 S
O141 C158 1.255 . S
O142 Dy136 2.379 1_565 S
O142 C158 1.249 . S
O143 Dy137 2.275 1_556 S
O143 C159 1.254 . S
O144 Dy136 2.339 . S
O144 C159 1.257 . S
O145 Dy137 2.307 1_566 S
O145 C160 1.266 . S
O146 Dy136 2.298 1_565 S
O146 C160 1.236 . S
O147 Dy137 2.395 . S
O147 C167 1.255 . S
O148 Dy137 2.379 . S
O148 C167 1.249 . S
C149 O139 1.266 . S
C149 O140 1.236 . S
O150 Dy136 2.275 1_564 S
O150 C138 1.254 . S
O151 Dy137 2.339 1_565 S
O151 C138 1.257 . S
C152 C155 1.344 . S
C152 C156 1.328 . S
C152 C158 1.516 . S
C153 C154 1.304 . S
C153 C157 1.323 . S
C154 C153 1.304 . S
C154 C155 1.371 . S
C154 H168 0.930 . S
C155 C152 1.344 . S
C155 C154 1.371 . S
C155 H169 0.931 . S
C156 C152 1.328 . S
C156 C157 1.433 . S
C156 H170 0.931 . S
C157 C153 1.323 . S
C157 C156 1.433 . S
C157 H171 0.933 . S
C158 Dy136 2.738 1_565 S
C158 O141 1.255 . S
C158 O142 1.249 . S
C158 C152 1.516 . S
C159 O143 1.254 . S
C159 O144 1.257 . S
C160 O145 1.266 . S
C160 O146 1.236 . S
C161 C164 1.344 . S
C161 C165 1.328 . S
C161 C167 1.516 . S
C162 C163 1.304 . S
C162 C166 1.323 . S
C163 C162 1.304 . S
C163 C164 1.371 . S
C163 H172 0.930 . S
C164 C161 1.344 . S
C164 C163 1.371 . S
C164 H173 0.931 . S
C165 C161 1.328 . S
C165 C166 1.433 . S
C165 H174 0.931 . S
C166 C162 1.323 . S
C166 C165 1.433 . S
C166 H175 0.933 . S
C167 Dy137 2.738 . S
C167 O147 1.255 . S
C167 O148 1.249 . S
C167 C161 1.516 . S
H168 C154 0.930 . S
H169 C155 0.931 . S
H170 C156 0.931 . S
H171 C157 0.933 . S
H172 C163 0.930 . S
H173 C164 0.931 . S
H174 C165 0.931 . S
H175 C166 0.933 . S
Dy176 O179 2.307 . S
Dy176 O181 2.395 . S
Dy176 O182 2.379 . S
Dy176 O184 2.339 . S
Dy176 O186 2.298 . S
Dy176 O190 2.275 . S
Dy176 C198 2.738 . S
Dy177 O180 2.298 . S
Dy177 O183 2.275 . S
Dy177 O185 2.307 . S
Dy177 O187 2.395 . S
Dy177 O188 2.379 . S
Dy177 O191 2.339 . S
Dy177 C207 2.738 . S
C178 O190 1.254 . S
C178 O191 1.257 . S
O179 Dy176 2.307 . S
O179 C189 1.266 . S
O180 Dy177 2.298 . S
O180 C189 1.236 . S
O181 Dy176 2.395 . S
O181 C198 1.255 . S
O182 Dy176 2.379 . S
O182 C198 1.249 . S
O183 Dy177 2.275 . S
O183 C199 1.254 . S
O184 Dy176 2.339 . S
O184 C199 1.257 . S
O185 Dy177 2.307 . S
O185 C200 1.266 . S
O186 Dy176 2.298 . S
O186 C200 1.236 . S
O187 Dy177 2.395 . S
O187 C207 1.255 . S
O188 Dy177 2.379 . S
O188 C207 1.249 . S
C189 O179 1.266 . S
C189 O180 1.236 . S
O190 Dy176 2.275 . S
O190 C178 1.254 . S
O191 Dy177 2.339 . S
O191 C178 1.257 . S
C192 C195 1.344 . S
C192 C196 1.328 . S
C192 C198 1.516 . S
C193 C194 1.304 . S
C193 C197 1.323 . S
C194 C193 1.304 . S
C194 C195 1.371 . S
C194 H208 0.930 . S
C195 C192 1.344 . S
C195 C194 1.371 . S
C195 H209 0.931 . S
C196 C192 1.328 . S
C196 C197 1.433 . S
C196 H210 0.931 . S
C197 C193 1.323 . S
C197 C196 1.433 . S
C197 H211 0.933 . S
C198 Dy176 2.738 . S
C198 O181 1.255 . S
C198 O182 1.249 . S
C198 C192 1.516 . S
C199 O183 1.254 . S
C199 O184 1.257 . S
C200 O185 1.266 . S
C200 O186 1.236 . S
C201 C204 1.344 . S
C201 C205 1.328 . S
C201 C207 1.516 . S
C202 C203 1.304 . S
C202 C206 1.323 . S
C203 C202 1.304 . S
C203 C204 1.371 . S
C203 H212 0.930 . S
C204 C201 1.344 . S
C204 C203 1.371 . S
C204 H213 0.931 . S
C205 C201 1.328 . S
C205 C206 1.433 . S
C205 H214 0.931 . S
C206 C202 1.323 . S
C206 C205 1.433 . S
C206 H215 0.933 . S
C207 Dy177 2.738 . S
C207 O187 1.255 . S
C207 O188 1.249 . S
C207 C201 1.516 . S
H208 C194 0.930 . S
H209 C195 0.931 . S
H210 C196 0.931 . S
H211 C197 0.933 . S
H212 C203 0.930 . S
H213 C204 0.931 . S
H214 C205 0.931 . S
H215 C206 0.933 . S
Dy216 O219 2.307 1_556 S
Dy216 O221 2.395 1_455 S
Dy216 O222 2.379 1_455 S
Dy216 O224 2.339 . S
Dy216 O226 2.298 1_455 S
Dy216 O230 2.275 1_456 S
Dy216 C238 2.738 1_455 S
Dy217 O220 2.298 . S
Dy217 O223 2.275 1_554 S
Dy217 O225 2.307 1_455 S
Dy217 O227 2.395 . S
Dy217 O228 2.379 . S
Dy217 O231 2.339 1_455 S
Dy217 C247 2.738 . S
C218 O230 1.254 . S
C218 O231 1.257 . S
O219 Dy216 2.307 1_554 S
O219 C229 1.266 . S
O220 Dy217 2.298 . S
O220 C229 1.236 . S
O221 Dy216 2.395 1_655 S
O221 C238 1.255 . S
O222 Dy216 2.379 1_655 S
O222 C238 1.249 . S
O223 Dy217 2.275 1_556 S
O223 C239 1.254 . S
O224 Dy216 2.339 . S
O224 C239 1.257 . S
O225 Dy217 2.307 1_655 S
O225 C240 1.266 1_554 S
O226 Dy216 2.298 1_655 S
O226 C240 1.236 . S
O227 Dy217 2.395 . S
O227 C247 1.255 . S
O228 Dy217 2.379 . S
O228 C247 1.249 . S
C229 O219 1.266 . S
C229 O220 1.236 . S
O230 Dy216 2.275 1_654 S
O230 C218 1.254 . S
O231 Dy217 2.339 1_655 S
O231 C218 1.257 . S
C232 C235 1.344 . S
C232 C236 1.328 . S
C232 C238 1.516 . S
C233 C234 1.304 . S
C233 C237 1.323 . S
C234 C233 1.304 . S
C234 C235 1.371 . S
C234 H248 0.930 . S
C235 C232 1.344 . S
C235 C234 1.371 . S
C235 H249 0.931 . S
C236 C232 1.328 . S
C236 C237 1.433 . S
C236 H250 0.931 . S
C237 C233 1.323 . S
C237 C236 1.433 . S
C237 H251 0.933 . S
C238 Dy216 2.738 1_655 S
C238 O221 1.255 . S
C238 O222 1.249 . S
C238 C232 1.516 . S
C239 O223 1.254 . S
C239 O224 1.257 . S
C240 O225 1.266 1_556 S
C240 O226 1.236 . S
C241 C244 1.344 . S
C241 C245 1.328 . S
C241 C247 1.516 . S
C242 C243 1.304 . S
C242 C246 1.323 . S
C243 C242 1.304 . S
C243 C244 1.371 . S
C243 H252 0.930 . S
C244 C241 1.344 . S
C244 C243 1.371 . S
C244 H253 0.931 . S
C245 C241 1.328 . S
C245 C246 1.433 . S
C245 H254 0.931 . S
C246 C242 1.323 . S
C246 C245 1.433 . S
C246 H255 0.933 . S
C247 Dy217 2.738 . S
C247 O227 1.255 . S
C247 O228 1.249 . S
C247 C241 1.516 . S
H248 C234 0.930 . S
H249 C235 0.931 . S
H250 C236 0.931 . S
H251 C237 0.933 . S
H252 C243 0.930 . S
H253 C244 0.931 . S
H254 C245 0.931 . S
H255 C246 0.933 . S
C6 C113 0.977 . S
C18 C153 1.026 . S
C178 C28 3.996 . S
C40 C218 2.906 . S
C149 C9 2.085 . S
C109 C16 2.857 1_455 S
C240 C30 2.466 . S
C200 C42 2.015 . S
C4 C242 2.781 . S
C159 C33 3.651 . S
C45 C119 2.829 . S
C21 C202 2.336 . S
C122 C57 1.158 . S
C66 C162 1.253 . S
C76 C199 4.096 . S
C88 C239 2.742 . S
C54 C160 2.183 . S
C120 C64 3.045 1_655 S
C229 C78 2.404 . S
C189 C93 2.174 . S
C52 C233 2.941 . S
C138 C81 3.642 . S
C98 C90 2.801 . S
C69 C193 2.302 . S
