# Generated by pormake.
# Topology rtl, (3,6)-cn, num edge types: 1
# Building blocks:
#     Node 0, Type 0, BuildingBlock: INOVEN_clean_linker_0, # of connection points: 3
#     Node 1, Type 0, BuildingBlock: INOVEN_clean_linker_0, # of connection points: 3
#     Node 2, Type 0, BuildingBlock: INOVEN_clean_linker_0, # of connection points: 3
#     Node 3, Type 0, BuildingBlock: INOVEN_clean_linker_0, # of connection points: 3
#     Node 4, Type 1, BuildingBlock: FUNLAD_clean_sbu_0, # of connection points: 6
#     Node 5, Type 1, BuildingBlock: FUNLAD_clean_sbu_0, # of connection points: 6
#     Edge 6, Type (0, 1), BuildingBlock: XUDNAN_clean_linker_2, # of connection points: 2
#     Edge 7, Type (0, 1), BuildingBlock: XUDNAN_clean_linker_2, # of connection points: 2
#     Edge 8, Type (0, 1), BuildingBlock: XUDNAN_clean_linker_2, # of connection points: 2
#     Edge 9, Type (0, 1), BuildingBlock: XUDNAN_clean_linker_2, # of connection points: 2
#     Edge 10, Type (0, 1), BuildingBlock: XUDNAN_clean_linker_2, # of connection points: 2
#     Edge 11, Type (0, 1), BuildingBlock: XUDNAN_clean_linker_2, # of connection points: 2
#     Edge 12, Type (0, 1), BuildingBlock: XUDNAN_clean_linker_2, # of connection points: 2
#     Edge 13, Type (0, 1), BuildingBlock: XUDNAN_clean_linker_2, # of connection points: 2
#     Edge 14, Type (0, 1), BuildingBlock: XUDNAN_clean_linker_2, # of connection points: 2
#     Edge 15, Type (0, 1), BuildingBlock: XUDNAN_clean_linker_2, # of connection points: 2
#     Edge 16, Type (0, 1), BuildingBlock: XUDNAN_clean_linker_2, # of connection points: 2
#     Edge 17, Type (0, 1), BuildingBlock: XUDNAN_clean_linker_2, # of connection points: 2
# Relax obj value: 0.003
# Max RMSD: 0.044
# Mean RMSD: 0.028
data_MOF--net-rtl--node1-FUNLAD_clean_sbu_0--node2-INOVEN_clean_linker_0--edge1-XUDNAN_clean_linker_2
_symmetry_space_group_name_H-M    P1
_symmetry_Int_Tables_number       1
_symmetry_cell_setting            triclinic
loop_
_symmetry_equiv_pos_as_xyz
'x, y, z'
_cell_length_a     40.041643
_cell_length_b     40.021755
_cell_length_c     20.921341
_cell_angle_alpha  91.035645
_cell_angle_beta   92.534355
_cell_angle_gamma 90.21053
loop_
_atom_site_label
_atom_site_type_symbol
_atom_site_fract_x
_atom_site_fract_y
_atom_site_fract_z
_atom_type_partial_charge
H0 H 0.19182 0.82167 0.914 0.0
H1 H 0.1242 0.88723 0.0097 0.0
H2 H 0.18259 0.81639 0.1177 0.0
N3 N 0.21337 0.78913 0.01757 0.0
N4 N 0.21704 0.77151 0.06596 0.0
C5 C 0.18039 0.83019 0.95735 0.0
C6 C 0.15627 0.85566 0.95475 0.0
C7 C 0.18943 0.81531 0.01572 0.0
C8 C 0.1751 0.82704 0.07205 0.0
C9 C 0.15176 0.85307 0.07031 0.0
C10 C 0.14181 0.8667 0.01128 0.0
H11 H 0.68879 0.70374 0.64176 0.0
H12 H 0.62445 0.63105 0.54358 0.0
H13 H 0.69578 0.6856 0.43914 0.0
N14 N 0.72217 0.72123 0.54005 0.0
N15 N 0.74009 0.72271 0.49286 0.0
C16 C 0.68014 0.69089 0.59804 0.0
C17 C 0.65491 0.66635 0.59963 0.0
C18 C 0.69538 0.69773 0.54047 0.0
C19 C 0.68445 0.68044 0.48403 0.0
C20 C 0.65865 0.65672 0.48483 0.0
C21 C 0.64404 0.64981 0.54268 0.0
H22 H 0.83583 0.19645 0.89621 0.0
H23 H 0.88963 0.12469 0.01043 0.0
H24 H 0.81902 0.19059 0.09733 0.0
N25 N 0.80269 0.2238 0.98685 0.0
N26 N 0.78277 0.23369 0.02722 0.0
C27 C 0.84108 0.18482 0.94196 0.0
C28 C 0.86428 0.15882 0.94673 0.0
C29 C 0.82441 0.19618 0.99543 0.0
C30 C 0.8312 0.18143 0.05528 0.0
C31 C 0.85521 0.15586 0.06094 0.0
C32 C 0.87119 0.14441 0.00628 0.0
H33 H 0.33076 0.3141 0.39636 0.0
H34 H 0.39555 0.3875 0.49156 0.0
H35 H 0.3286 0.32963 0.60012 0.0
N36 N 0.30209 0.29319 0.50008 0.0
N37 N 0.29338 0.28185 0.55198 0.0
C38 C 0.34021 0.3268 0.43969 0.0
C39 C 0.36522 0.35149 0.4367 0.0
C40 C 0.32726 0.31831 0.49843 0.0
C41 C 0.33895 0.33531 0.55456 0.0
C42 C 0.36369 0.36008 0.55223 0.0
C43 C 0.37715 0.36764 0.49347 0.0
C44 C 0.0432 0.97322 0.41563 0.0
N45 N 0.06516 0.06624 0.4994 0.0
C46 C 0.09774 0.05673 0.50582 0.0
C47 C 0.12309 0.0806 0.51356 0.0
C48 C 0.11494 0.11458 0.5135 0.0
C49 C 0.08144 0.12395 0.50342 0.0
C50 C 0.05668 0.09914 0.49682 0.0
Zn51 Zn 0.02946 0.02937 0.50226 0.0
C52 C 0.97046 0.03985 0.41425 0.0
N53 N 0.95678 0.9511 0.51528 0.0
C54 C 0.96847 0.91927 0.51179 0.0
C55 C 0.92342 0.95729 0.51779 0.0
C56 C 0.90035 0.93082 0.51468 0.0
C57 C 0.91182 0.89786 0.50815 0.0
C58 C 0.94637 0.89225 0.50792 0.0
Zn59 Zn 0.99128 0.98906 0.51155 0.0
O60 O 0.05444 1.00143 0.43499 0.0
C61 C 0.04955 0.97851 0.6005 0.0
O62 O 0.01627 0.96197 0.43734 0.0
H63 H 0.91464 0.98278 0.5205 0.0
H64 H 0.10407 0.03051 0.50745 0.0
H65 H 0.99504 0.9148 0.51037 0.0
O66 O 0.05859 0.00573 0.57603 0.0
O67 O 0.02176 0.96536 0.58224 0.0
H68 H 0.03064 0.10618 0.49203 0.0
O69 O 0.96767 0.01704 0.58481 0.0
O70 O 0.00416 0.0571 0.57048 0.0
O71 O 0.96098 0.0136 0.44181 0.0
O72 O 0.99936 0.052 0.42836 0.0
C73 C 0.97889 0.04625 0.59841 0.0
H74 H 0.14875 0.07263 0.52139 0.0
H75 H 0.07439 0.15005 0.50375 0.0
H76 H 0.87384 0.93612 0.51468 0.0
H77 H 0.95621 0.86716 0.50365 0.0
C78 C 0.47077 0.48267 0.91744 0.0
N79 N 0.56418 0.45712 0.00212 0.0
C80 C 0.55714 0.42379 0.00051 0.0
C81 C 0.5829 0.40038 0.99727 0.0
C82 C 0.61613 0.41142 0.99478 0.0
C83 C 0.62261 0.44592 0.99597 0.0
C84 C 0.59621 0.46841 5e-05 0.0
Zn85 Zn 0.52678 0.49149 0.01198 0.0
C86 C 0.53876 0.55353 0.93749 0.0
N87 N 0.45052 0.56471 0.03681 0.0
C88 C 0.41869 0.55263 0.03705 0.0
C89 C 0.45693 0.59808 0.04351 0.0
C90 C 0.43073 0.62063 0.05162 0.0
C91 C 0.39788 0.60853 0.05394 0.0
C92 C 0.39198 0.57414 0.04618 0.0
Zn93 Zn 0.48819 0.53072 0.02631 0.0
O94 O 0.4983 0.46917 0.9349 0.0
C95 C 0.47535 0.46925 0.10025 0.0
O96 O 0.46118 0.50888 0.94649 0.0
H97 H 0.48238 0.60718 0.04311 0.0
H98 H 0.53152 0.41531 0.00217 0.0
H99 H 0.41395 0.52615 0.03062 0.0
O100 O 0.5028 0.45965 0.07791 0.0
O101 O 0.46391 0.4978 0.08618 0.0
H102 H 0.60138 0.49495 0.00225 0.0
O103 O 0.51601 0.55175 0.10651 0.0
O104 O 0.55478 0.51451 0.08829 0.0
O105 O 0.51298 0.56325 0.96572 0.0
O106 O 0.54967 0.52407 0.94649 0.0
C107 C 0.54464 0.53946 0.12031 0.0
H108 H 0.57689 0.37396 0.99589 0.0
H109 H 0.64793 0.45544 0.99481 0.0
H110 H 0.43613 0.64707 0.05773 0.0
H111 H 0.36688 0.56399 0.0471 0.0
H112 H 0.24887 0.25909 0.45709 0.0
H113 H 0.28053 0.24937 0.65657 0.0
H114 H 0.23721 0.20596 0.66919 0.0
H115 H 0.16004 0.24924 0.48073 0.0
H116 H 0.15199 0.22598 0.40704 0.0
H117 H 0.18559 0.2561 0.41331 0.0
H118 H 0.22744 0.21046 0.37992 0.0
H119 H 0.19397 0.18024 0.3734 0.0
H120 H 0.23044 0.17235 0.42441 0.0
H121 H 0.19266 0.16255 0.65932 0.0
H122 H 0.14717 0.12263 0.6287 0.0
H123 H 0.14175 0.16199 0.43692 0.0
C124 C 0.24666 0.24771 0.50326 0.0
C125 C 0.26811 0.25713 0.55619 0.0
C126 C 0.26429 0.24211 0.61588 0.0
C127 C 0.23983 0.21758 0.62336 0.0
C128 C 0.21909 0.20869 0.57056 0.0
C129 C 0.22199 0.22338 0.51175 0.0
C130 C 0.19611 0.20937 0.46314 0.0
C131 C 0.17201 0.23681 0.43969 0.0
C132 C 0.21301 0.19207 0.4069 0.0
C133 C 0.17855 0.18426 0.50369 0.0
C134 C 0.19237 0.18428 0.56545 0.0
C135 C 0.1814 0.16249 0.61133 0.0
C136 C 0.15567 0.13996 0.59362 0.0
C137 C 0.14102 0.13964 0.53088 0.0
C138 C 0.15239 0.1622 0.48543 0.0
H139 H 0.27027 0.75935 0.99051 0.0
H140 H 0.2184 0.72607 0.15539 0.0
H141 H 0.25969 0.68076 0.17139 0.0
H142 H 0.29367 0.67784 0.931 0.0
H143 H 0.3343 0.6911 0.90727 0.0
H144 H 0.30033 0.72046 0.90796 0.0
H145 H 0.33603 0.76006 0.98298 0.0
H146 H 0.37006 0.73073 0.98274 0.0
H147 H 0.35361 0.74458 0.05749 0.0
H148 H 0.30505 0.63869 0.16795 0.0
H149 H 0.3537 0.60283 0.14776 0.0
H150 H 0.37852 0.66465 0.98835 0.0
C151 C 0.26758 0.74233 0.02959 0.0
C152 C 0.24102 0.74565 0.07167 0.0
C153 C 0.23854 0.72344 0.1228 0.0
C154 C 0.26182 0.69779 0.13218 0.0
C155 C 0.28773 0.69506 0.09021 0.0
C156 C 0.29097 0.71677 0.04015 0.0
C157 C 0.32169 0.70854 0.00302 0.0
C158 C 0.3119 0.69891 0.93318 0.0
C159 C 0.34683 0.73772 0.00681 0.0
C160 C 0.33495 0.6787 0.03977 0.0
C161 C 0.31482 0.67133 0.08967 0.0
C162 C 0.32115 0.64429 0.12931 0.0
C163 C 0.34872 0.62407 0.11746 0.0
C164 C 0.36978 0.63117 0.06683 0.0
C165 C 0.36297 0.65901 0.02786 0.0
H166 H 0.75609 0.77719 0.57087 0.0
H167 H 0.78429 0.72016 0.40387 0.0
H168 H 0.83163 0.75883 0.38984 0.0
H169 H 0.77476 0.85829 0.50768 0.0
H170 H 0.79066 0.87572 0.58309 0.0
H171 H 0.7595 0.84309 0.58161 0.0
H172 H 0.79823 0.80723 0.65504 0.0
H173 H 0.82947 0.83979 0.65687 0.0
H174 H 0.84002 0.79802 0.63144 0.0
H175 H 0.87568 0.80241 0.39419 0.0
H176 H 0.91376 0.85036 0.4142 0.0
H177 H 0.85666 0.88148 0.57629 0.0
C178 C 0.77242 0.77285 0.53172 0.0
C179 C 0.76702 0.74557 0.48837 0.0
C180 C 0.78845 0.74088 0.43733 0.0
C181 C 0.81527 0.76265 0.4291 0.0
C182 C 0.82007 0.7893 0.47223 0.0
C183 C 0.79925 0.79471 0.52236 0.0
C184 C 0.80981 0.82588 0.56069 0.0
C185 C 0.78202 0.85231 0.55809 0.0
C186 C 0.81999 0.8172 0.63013 0.0
C187 C 0.83979 0.83694 0.52429 0.0
C188 C 0.84526 0.81527 0.4737 0.0
C189 C 0.87168 0.81961 0.43358 0.0
C190 C 0.89324 0.84682 0.44547 0.0
C191 C 0.8882 0.86952 0.49682 0.0
C192 C 0.86093 0.86461 0.53646 0.0
H193 H 0.72761 0.25163 0.0879 0.0
H194 H 0.79254 0.28062 0.93765 0.0
H195 H 0.75678 0.32912 0.91411 0.0
H196 H 0.65048 0.27362 0.00399 0.0
H197 H 0.63066 0.28918 0.0742 0.0
H198 H 0.66195 0.25708 0.08146 0.0
H199 H 0.6962 0.29392 0.1639 0.0
H200 H 0.66493 0.32607 0.15707 0.0
H201 H 0.70796 0.33571 0.14296 0.0
H202 H 0.71458 0.37431 0.90615 0.0
H203 H 0.66728 0.41339 0.91323 0.0
H204 H 0.62793 0.35518 0.06616 0.0
C205 C 0.73422 0.2684 0.05039 0.0
C206 C 0.76269 0.26231 0.01461 0.0
C207 C 0.7707 0.28461 0.96547 0.0
C208 C 0.75058 0.3123 0.95179 0.0
C209 C 0.72244 0.31739 0.98733 0.0
C210 C 0.71411 0.29611 0.03553 0.0
C211 C 0.68195 0.30711 0.06527 0.0
C212 C 0.65465 0.28014 0.05563 0.0
C213 C 0.68814 0.31625 0.13653 0.0
C214 C 0.67365 0.33781 0.02619 0.0
C215 C 0.6975 0.34332 0.9818 0.0
C216 C 0.6957 0.3703 0.9407 0.0
C217 C 0.66884 0.3924 0.9452 0.0
C218 C 0.64399 0.3873 0.99015 0.0
C219 C 0.64641 0.35949 0.0309 0.0
H220 H 0.08738 0.86842 0.1018 0.0
H221 H 0.19061 0.87234 0.17414 0.0
H222 H 0.17307 0.90046 0.27284 0.0
H223 H 0.06354 0.94786 0.16056 0.0
H224 H 0.02234 0.93527 0.18222 0.0
H225 H 0.04249 0.91358 0.11847 0.0
H226 H 0.03508 0.85743 0.17604 0.0
H227 H 0.01483 0.87896 0.24 0.0
H228 H 0.05091 0.85335 0.25753 0.0
H229 H 0.14594 0.93267 0.35749 0.0
H230 H 0.10962 0.96428 0.42885 0.0
H231 H 0.02287 0.93716 0.30719 0.0
C232 C 0.10614 0.87496 0.13882 0.0
C233 C 0.14032 0.86806 0.13071 0.0
C234 C 0.16427 0.87697 0.17993 0.0
C235 C 0.15457 0.89305 0.23598 0.0
C236 C 0.12079 0.8997 0.24241 0.0
C237 C 0.09681 0.89066 0.1957 0.0
C238 C 0.06226 0.90144 0.21463 0.0
C239 C 0.04675 0.926 0.16608 0.0
C240 C 0.03942 0.87097 0.22252 0.0
C241 C 0.07076 0.91863 0.27853 0.0
C242 C 0.10474 0.91734 0.29325 0.0
C243 C 0.11923 0.93338 0.34718 0.0
C244 C 0.09847 0.95134 0.38718 0.0
C245 C 0.0636 0.95273 0.37356 0.0
C246 C 0.04943 0.93584 0.31904 0.0
H247 H 0.6491 0.60359 0.64608 0.0
H248 H 0.62697 0.70733 0.68886 0.0
H249 H 0.59661 0.68997 0.78374 0.0
H250 H 0.57201 0.56998 0.6851 0.0
H251 H 0.58896 0.53253 0.7202 0.0
H252 H 0.61105 0.55334 0.6592 0.0
H253 H 0.6639 0.55788 0.73504 0.0
H254 H 0.64204 0.5368 0.7962 0.0
H255 H 0.6609 0.57714 0.81313 0.0
H256 H 0.56374 0.66042 0.86667 0.0
H257 H 0.53517 0.6217 0.93723 0.0
H258 H 0.58107 0.53742 0.84224 0.0
C259 C 0.63821 0.62266 0.67601 0.0
C260 C 0.6402 0.65678 0.66039 0.0
C261 C 0.62584 0.6811 0.70052 0.0
C262 C 0.60849 0.67144 0.75418 0.0
C263 C 0.60627 0.63744 0.76732 0.0
C264 C 0.62122 0.61348 0.72991 0.0
C265 C 0.61458 0.57858 0.75321 0.0
C266 C 0.59551 0.55737 0.70134 0.0
C267 C 0.6473 0.56161 0.77574 0.0
C268 C 0.59288 0.5865 0.80883 0.0
C269 C 0.58829 0.62057 0.81613 0.0
C270 C 0.56759 0.63375 0.86199 0.0
C271 C 0.55134 0.61155 0.90159 0.0
C272 C 0.5561 0.57658 0.89544 0.0
C273 C 0.57732 0.56404 0.84863 0.0
H274 H 0.91807 0.15182 0.115 0.0
H275 H 0.81483 0.12657 0.14636 0.0
H276 H 0.83293 0.09567 0.24361 0.0
H277 H 0.95318 0.07545 0.15856 0.0
H278 H 0.9904 0.09288 0.19791 0.0
H279 H 0.96911 0.11528 0.13451 0.0
H280 H 0.96371 0.16701 0.20957 0.0
H281 H 0.98535 0.14491 0.27312 0.0
H282 H 0.9447 0.16245 0.28546 0.0
H283 H 0.86323 0.06241 0.32963 0.0
H284 H 0.9025 0.03407 0.40491 0.0
H285 H 0.98593 0.0834 0.31979 0.0
C286 C 0.89927 0.14024 0.14309 0.0
C287 C 0.86508 0.14145 0.12357 0.0
C288 C 0.84109 0.12608 0.16113 0.0
C289 C 0.85118 0.1084 0.21607 0.0
C290 C 0.88527 0.1069 0.23304 0.0
C291 C 0.90888 0.12293 0.19826 0.0
C292 C 0.94397 0.11689 0.22554 0.0
C293 C 0.96541 0.09906 0.17618 0.0
C294 C 0.96039 0.14977 0.24988 0.0
C295 C 0.93657 0.09424 0.28033 0.0
C296 C 0.90257 0.08868 0.28371 0.0
C297 C 0.88983 0.06702 0.32804 0.0
C298 C 0.91236 0.05088 0.37031 0.0
C299 C 0.94725 0.05669 0.36838 0.0
C300 C 0.95938 0.07879 0.32289 0.0
H301 H 0.4269 0.36991 0.60514 0.0
H302 H 0.32288 0.3947 0.62964 0.0
H303 H 0.33915 0.42953 0.72492 0.0
H304 H 0.44894 0.36306 0.77426 0.0
H305 H 0.49018 0.38054 0.76767 0.0
H306 H 0.47039 0.35813 0.70072 0.0
H307 H 0.47835 0.40949 0.62915 0.0
H308 H 0.49805 0.43209 0.69594 0.0
H309 H 0.46219 0.44949 0.6536 0.0
H310 H 0.3668 0.46337 0.8141 0.0
H311 H 0.40353 0.49019 0.89806 0.0
H312 H 0.48945 0.44071 0.82014 0.0
C313 C 0.40766 0.38271 0.63078 0.0
C314 C 0.37368 0.3798 0.6104 0.0
C315 C 0.34902 0.39657 0.64504 0.0
C316 C 0.35803 0.41648 0.69887 0.0
C317 C 0.39176 0.41896 0.71775 0.0
C318 C 0.41618 0.40222 0.68534 0.0
C319 C 0.4505 0.40836 0.71693 0.0
C320 C 0.4659 0.37557 0.74135 0.0
C321 C 0.47363 0.4259 0.67117 0.0
C322 C 0.44156 0.43135 0.77185 0.0
C323 C 0.40759 0.43741 0.77095 0.0
C324 C 0.39341 0.45863 0.81564 0.0
C325 C 0.41448 0.47385 0.86293 0.0
C326 C 0.44927 0.4674 0.86567 0.0
C327 C 0.4629 0.44586 0.81947 0.0
H328 H 0.59475 0.64856 0.43454 0.0
H329 H 0.69793 0.62312 0.40247 0.0
H330 H 0.67975 0.59029 0.30572 0.0
H331 H 0.55823 0.5701 0.38429 0.0
H332 H 0.52174 0.58825 0.34536 0.0
H333 H 0.5428 0.60984 0.41192 0.0
H334 H 0.54967 0.66216 0.34241 0.0
H335 H 0.52854 0.64076 0.27567 0.0
H336 H 0.56965 0.65816 0.26711 0.0
H337 H 0.65036 0.55832 0.21635 0.0
H338 H 0.61209 0.53243 0.13415 0.0
H339 H 0.52782 0.5808 0.22053 0.0
C340 C 0.61343 0.63605 0.40698 0.0
C341 C 0.64772 0.63821 0.42571 0.0
C342 C 0.67158 0.62186 0.38843 0.0
C343 C 0.66148 0.60309 0.33373 0.0
C344 C 0.62747 0.6013 0.31671 0.0
C345 C 0.60381 0.61761 0.35171 0.0
C346 C 0.56892 0.61207 0.32222 0.0
C347 C 0.54661 0.59398 0.36872 0.0
C348 C 0.55329 0.64526 0.30056 0.0
C349 C 0.57665 0.58981 0.26548 0.0
C350 C 0.61056 0.58373 0.26362 0.0
C351 C 0.62379 0.56308 0.21698 0.0
C352 C 0.60181 0.54839 0.17067 0.0
C353 C 0.567 0.55469 0.17087 0.0
C354 C 0.55433 0.57575 0.21892 0.0
H355 H 0.87312 0.09469 0.9021 0.0
H356 H 0.8963 0.19823 0.86398 0.0
H357 H 0.92718 0.18038 0.76973 0.0
H358 H 0.95151 0.06014 0.85743 0.0
H359 H 0.93331 0.02292 0.82047 0.0
H360 H 0.91277 0.04374 0.8848 0.0
H361 H 0.85874 0.04853 0.81273 0.0
H362 H 0.87913 0.02775 0.74813 0.0
H363 H 0.86054 0.06824 0.73613 0.0
H364 H 0.95715 0.15171 0.68341 0.0
H365 H 0.98282 0.1139 0.60572 0.0
H366 H 0.93864 0.02851 0.69603 0.0
C367 C 0.88478 0.11351 0.87384 0.0
C368 C 0.88239 0.14782 0.89002 0.0
C369 C 0.89765 0.17185 0.85185 0.0
C370 C 0.9153 0.16195 0.7985 0.0
C371 C 0.91718 0.12797 0.78375 0.0
C372 C 0.9022 0.10407 0.8199 0.0
C373 C 0.90789 0.06921 0.79302 0.0
C374 C 0.92754 0.04775 0.84184 0.0
C375 C 0.87459 0.05245 0.7712 0.0
C376 C 0.92868 0.07729 0.73647 0.0
C377 C 0.93382 0.11134 0.7324 0.0
C378 C 0.95313 0.12501 0.68574 0.0
C379 C 0.96768 0.1033 0.64199 0.0
C380 C 0.96261 0.06831 0.64478 0.0
C381 C 0.94263 0.05518 0.69242 0.0
H382 H 0.4298 0.36421 0.40416 0.0
H383 H 0.327 0.36532 0.32932 0.0
H384 H 0.34533 0.3907 0.23009 0.0
H385 H 0.45278 0.44181 0.34853 0.0
H386 H 0.49451 0.43031 0.32801 0.0
H387 H 0.47415 0.40842 0.38987 0.0
H388 H 0.48321 0.35211 0.33023 0.0
H389 H 0.50382 0.37383 0.26821 0.0
H390 H 0.46846 0.3471 0.24793 0.0
H391 H 0.37305 0.42327 0.14748 0.0
H392 H 0.40944 0.45705 0.08133 0.0
H393 H 0.49519 0.43264 0.2052 0.0
C394 C 0.41127 0.36924 0.3663 0.0
C395 C 0.37698 0.36264 0.37423 0.0
C396 C 0.35343 0.36966 0.32384 0.0
C397 C 0.3636 0.38421 0.26744 0.0
C398 C 0.39745 0.39114 0.26178 0.0
C399 C 0.42106 0.38345 0.30933 0.0
C400 C 0.45563 0.39512 0.29244 0.0
C401 C 0.4701 0.42042 0.3427 0.0
C402 C 0.47917 0.36526 0.2842 0.0
C403 C 0.44755 0.41164 0.22902 0.0
C404 C 0.4138 0.40897 0.21234 0.0
C405 C 0.39961 0.42485 0.15913 0.0
C406 C 0.4204 0.44406 0.1221 0.0
C407 C 0.45502 0.44687 0.13789 0.0
C408 C 0.4689 0.43008 0.19142 0.0
H409 H 0.09383 0.8633 0.8994 0.0
H410 H 0.19827 0.88634 0.87487 0.0
H411 H 0.18251 0.91981 0.77976 0.0
H412 H 0.07044 0.85571 0.72773 0.0
H413 H 0.02979 0.87381 0.73761 0.0
H414 H 0.04969 0.85066 0.80171 0.0
H415 H 0.04364 0.90171 0.87829 0.0
H416 H 0.02404 0.92511 0.81434 0.0
H417 H 0.06075 0.94154 0.85712 0.0
H418 H 0.15465 0.95505 0.69412 0.0
H419 H 0.1174 0.98428 0.61617 0.0
H420 H 0.03144 0.93514 0.69266 0.0
C421 C 0.11333 0.87505 0.87331 0.0
C422 C 0.14722 0.87234 0.89399 0.0
C423 C 0.1722 0.88797 0.8591 0.0
C424 C 0.16346 0.90712 0.8054 0.0
C425 C 0.12971 0.90984 0.78685 0.0
C426 C 0.10509 0.89372 0.81904 0.0
C427 C 0.07068 0.90064 0.7894 0.0
C428 C 0.05419 0.86828 0.7625 0.0
C429 C 0.04849 0.9183 0.83767 0.0
C430 C 0.0797 0.92375 0.73629 0.0
C431 C 0.11384 0.92896 0.73591 0.0
C432 C 0.12793 0.95078 0.69335 0.0
C433 C 0.10659 0.9674 0.64957 0.0
C434 C 0.07163 0.96175 0.64822 0.0
C435 C 0.05812 0.93959 0.69213 0.0
loop_
_geom_bond_atom_site_label_1
_geom_bond_atom_site_label_2
_geom_bond_distance
_geom_bond_site_symmetry_2
_ccdc_geom_bond_type
H0 C5 0.929 . S
H1 C10 0.931 . S
H2 C8 0.930 . S
N3 N4 1.234 1_556 S
N3 C7 1.453 1_556 S
N4 N3 1.234 1_554 S
C5 H0 0.929 . S
C5 C6 1.373 . S
C5 C7 1.368 1_556 S
C6 C5 1.373 . S
C6 C10 1.397 1_556 S
C7 N3 1.453 1_554 S
C7 C5 1.368 1_554 S
C7 C8 1.373 . S
C8 H2 0.930 . S
C8 C7 1.373 . S
C8 C9 1.371 . S
C9 C8 1.371 . S
C9 C10 1.383 . S
C10 H1 0.931 . S
C10 C6 1.397 1_554 S
C10 C9 1.383 . S
H11 C16 0.929 . S
H12 C21 0.931 . S
H13 C19 0.930 . S
N14 N15 1.234 . S
N14 C18 1.453 . S
N15 N14 1.234 . S
C16 H11 0.929 . S
C16 C17 1.373 . S
C16 C18 1.368 . S
C17 C16 1.373 . S
C17 C21 1.397 . S
C18 N14 1.453 . S
C18 C16 1.368 . S
C18 C19 1.373 . S
C19 H13 0.930 . S
C19 C18 1.373 . S
C19 C20 1.371 . S
C20 C19 1.371 . S
C20 C21 1.383 . S
C21 H12 0.931 . S
C21 C17 1.397 . S
C21 C20 1.383 . S
H22 C27 0.929 . S
H23 C32 0.931 . S
H24 C30 0.930 . S
N25 N26 1.234 1_556 S
N25 C29 1.453 . S
N26 N25 1.234 1_554 S
C27 H22 0.929 . S
C27 C28 1.373 . S
C27 C29 1.368 . S
C28 C27 1.373 . S
C28 C32 1.397 1_556 S
C29 N25 1.453 . S
C29 C27 1.368 . S
C29 C30 1.373 1_556 S
C30 H24 0.930 . S
C30 C29 1.373 1_554 S
C30 C31 1.371 . S
C31 C30 1.371 . S
C31 C32 1.383 . S
C32 H23 0.931 . S
C32 C28 1.397 1_554 S
C32 C31 1.383 . S
H33 C38 0.929 . S
H34 C43 0.931 . S
H35 C41 0.930 . S
N36 N37 1.234 . S
N36 C40 1.453 . S
N37 N36 1.234 . S
C38 H33 0.929 . S
C38 C39 1.373 . S
C38 C40 1.368 . S
C39 C38 1.373 . S
C39 C43 1.397 . S
C40 N36 1.453 . S
C40 C38 1.368 . S
C40 C41 1.373 . S
C41 H35 0.930 . S
C41 C40 1.373 . S
C41 C42 1.371 . S
C42 C41 1.371 . S
C42 C43 1.383 . S
C43 H34 0.931 . S
C43 C39 1.397 . S
C43 C42 1.383 . S
C44 O60 1.251 1_565 S
C44 O62 1.254 . S
N45 C46 1.333 . S
N45 C50 1.307 . S
N45 Zn51 2.020 . S
C46 N45 1.333 . S
C46 C47 1.379 . S
C46 H64 0.952 . S
C47 C46 1.379 . S
C47 C48 1.390 . S
C47 H74 0.949 . S
C48 C47 1.390 . S
C48 C49 1.357 . S
C49 C48 1.357 . S
C49 C50 1.370 . S
C49 H75 0.950 . S
C50 N45 1.307 . S
C50 C49 1.370 . S
C50 H68 0.948 . S
Zn51 N45 2.020 . S
Zn51 O60 2.039 . S
Zn51 O66 2.019 1_545 S
Zn51 O70 2.025 1_455 S
Zn51 O72 2.024 1_455 S
C52 O71 1.246 . S
C52 O72 1.249 . S
N53 C54 1.307 . S
N53 C55 1.333 . S
N53 Zn59 2.020 . S
C54 N53 1.307 . S
C54 C58 1.370 . S
C54 H65 0.948 . S
C55 N53 1.333 . S
C55 C56 1.379 . S
C55 H63 0.952 . S
C56 C55 1.379 . S
C56 C57 1.390 . S
C56 H76 0.949 . S
C57 C56 1.390 . S
C57 C58 1.357 . S
C58 C54 1.370 . S
C58 C57 1.357 . S
C58 H77 0.950 . S
Zn59 N53 2.020 . S
Zn59 O62 2.025 1_655 S
Zn59 O67 2.024 1_655 S
Zn59 O69 2.039 1_565 S
Zn59 O71 2.034 1_565 S
O60 C44 1.251 1_545 S
O60 Zn51 2.039 . S
C61 O66 1.265 . S
C61 O67 1.249 . S
O62 C44 1.254 . S
O62 Zn59 2.025 1_455 S
H63 C55 0.952 . S
H64 C46 0.952 . S
H65 C54 0.948 . S
O66 Zn51 2.019 1_565 S
O66 C61 1.265 . S
O67 Zn59 2.024 1_455 S
O67 C61 1.249 . S
H68 C50 0.948 . S
O69 Zn59 2.039 1_545 S
O69 C73 1.251 . S
O70 Zn51 2.025 1_655 S
O70 C73 1.254 . S
O71 C52 1.246 . S
O71 Zn59 2.034 1_545 S
O72 Zn51 2.024 1_655 S
O72 C52 1.249 . S
C73 O69 1.251 . S
C73 O70 1.254 . S
H74 C47 0.949 . S
H75 C49 0.950 . S
H76 C56 0.949 . S
H77 C58 0.950 . S
C78 O94 1.251 . S
C78 O96 1.254 . S
N79 C80 1.333 . S
N79 C84 1.307 . S
N79 Zn85 2.020 . S
C80 N79 1.333 . S
C80 C81 1.379 . S
C80 H98 0.952 1_554 S
C81 C80 1.379 . S
C81 C82 1.390 . S
C81 H108 0.949 1_554 S
C82 C81 1.390 . S
C82 C83 1.357 . S
C83 C82 1.357 . S
C83 C84 1.370 . S
C83 H109 0.950 . S
C84 N79 1.307 . S
C84 C83 1.370 . S
C84 H102 0.948 . S
Zn85 N79 2.020 . S
Zn85 O94 2.039 1_554 S
Zn85 O100 2.034 . S
Zn85 O104 2.025 . S
Zn85 O106 2.024 1_554 S
C86 O105 1.246 . S
C86 O106 1.249 . S
N87 C88 1.307 . S
N87 C89 1.333 . S
N87 Zn93 2.020 . S
C88 N87 1.307 . S
C88 C92 1.370 . S
C88 H99 0.945 1_554 S
C89 N87 1.333 . S
C89 C90 1.379 . S
C89 H97 0.952 . S
C90 C89 1.379 . S
C90 C91 1.390 . S
C90 H110 0.949 . S
C91 C90 1.390 . S
C91 C92 1.357 . S
C92 C88 1.370 . S
C92 C91 1.357 . S
C92 H111 0.951 1_554 S
Zn93 N87 2.020 . S
Zn93 O96 2.025 1_554 S
Zn93 O101 2.024 . S
Zn93 O103 2.039 . S
Zn93 O105 2.034 1_554 S
O94 C78 1.251 . S
O94 Zn85 2.039 1_556 S
C95 O100 1.246 . S
C95 O101 1.249 . S
O96 C78 1.254 . S
O96 Zn93 2.025 1_556 S
H97 C89 0.952 . S
H98 C80 0.952 1_556 S
H99 C88 0.945 1_556 S
O100 Zn85 2.034 . S
O100 C95 1.246 . S
O101 Zn93 2.024 . S
O101 C95 1.249 . S
H102 C84 0.948 . S
O103 Zn93 2.039 . S
O103 C107 1.251 . S
O104 Zn85 2.025 . S
O104 C107 1.254 . S
O105 C86 1.246 . S
O105 Zn93 2.034 1_556 S
O106 Zn85 2.024 1_556 S
O106 C86 1.249 . S
C107 O103 1.251 . S
C107 O104 1.254 . S
H108 C81 0.949 1_556 S
H109 C83 0.950 . S
H110 C90 0.949 . S
H111 C92 0.951 1_556 S
H112 C124 0.930 . S
H113 C126 0.930 . S
H114 C127 0.930 . S
H115 C131 0.959 . S
H116 C131 0.959 . S
H117 C131 0.961 . S
H118 C132 0.960 . S
H119 C132 0.961 . S
H120 C132 0.959 . S
H121 C135 0.929 . S
H122 C136 0.931 . S
H123 C138 0.930 . S
C124 H112 0.930 . S
C124 C125 1.399 . S
C124 C129 1.399 . S
C125 C124 1.399 . S
C125 C126 1.376 . S
C126 H113 0.930 . S
C126 C125 1.376 . S
C126 C127 1.388 . S
C127 H114 0.930 . S
C127 C126 1.388 . S
C127 C128 1.390 . S
C128 C127 1.390 . S
C128 C129 1.394 . S
C128 C134 1.465 . S
C129 C124 1.399 . S
C129 C128 1.394 . S
C129 C130 1.516 . S
C130 C129 1.516 . S
C130 C131 1.502 . S
C130 C132 1.561 . S
C130 C133 1.526 . S
C131 H115 0.959 . S
C131 H116 0.959 . S
C131 H117 0.961 . S
C131 C130 1.502 . S
C132 H118 0.960 . S
C132 H119 0.961 . S
C132 H120 0.959 . S
C132 C130 1.561 . S
C133 C130 1.526 . S
C133 C134 1.396 . S
C133 C138 1.390 . S
C134 C128 1.465 . S
C134 C133 1.396 . S
C134 C135 1.399 . S
C135 H121 0.929 . S
C135 C134 1.399 . S
C135 C136 1.385 . S
C136 H122 0.931 . S
C136 C135 1.385 . S
C136 C137 1.389 . S
C137 C136 1.389 . S
C137 C138 1.387 . S
C138 H123 0.930 . S
C138 C133 1.390 . S
C138 C137 1.387 . S
H139 C151 0.930 1_556 S
H140 C153 0.930 . S
H141 C154 0.930 . S
H142 C158 0.959 . S
H143 C158 0.959 . S
H144 C158 0.961 . S
H145 C159 0.960 . S
H146 C159 0.961 . S
H147 C159 0.959 . S
H148 C162 0.929 . S
H149 C163 0.931 . S
H150 C165 0.930 1_556 S
C151 H139 0.930 1_554 S
C151 C152 1.399 . S
C151 C156 1.399 . S
C152 C151 1.399 . S
C152 C153 1.376 . S
C153 H140 0.930 . S
C153 C152 1.376 . S
C153 C154 1.388 . S
C154 H141 0.930 . S
C154 C153 1.388 . S
C154 C155 1.390 . S
C155 C154 1.390 . S
C155 C156 1.394 . S
C155 C161 1.465 . S
C156 C151 1.399 . S
C156 C155 1.394 . S
C156 C157 1.517 . S
C157 C156 1.517 . S
C157 C158 1.499 1_554 S
C157 C159 1.563 . S
C157 C160 1.527 . S
C158 H142 0.959 . S
C158 H143 0.959 . S
C158 H144 0.961 . S
C158 C157 1.499 1_556 S
C159 H145 0.960 . S
C159 H146 0.961 . S
C159 H147 0.959 . S
C159 C157 1.563 . S
C160 C157 1.527 . S
C160 C161 1.396 . S
C160 C165 1.390 . S
C161 C155 1.465 . S
C161 C160 1.396 . S
C161 C162 1.399 . S
C162 H148 0.929 . S
C162 C161 1.399 . S
C162 C163 1.385 . S
C163 H149 0.931 . S
C163 C162 1.385 . S
C163 C164 1.389 . S
C164 C163 1.389 . S
C164 C165 1.387 . S
C165 H150 0.930 1_554 S
C165 C160 1.390 . S
C165 C164 1.387 . S
H166 C178 0.930 . S
H167 C180 0.930 . S
H168 C181 0.930 . S
H169 C185 0.959 . S
H170 C185 0.959 . S
H171 C185 0.961 . S
H172 C186 0.960 . S
H173 C186 0.961 . S
H174 C186 0.959 . S
H175 C189 0.929 . S
H176 C190 0.931 . S
H177 C192 0.930 . S
C178 H166 0.930 . S
C178 C179 1.399 . S
C178 C183 1.399 . S
C179 C178 1.399 . S
C179 C180 1.376 . S
C180 H167 0.930 . S
C180 C179 1.376 . S
C180 C181 1.388 . S
C181 H168 0.930 . S
C181 C180 1.388 . S
C181 C182 1.390 . S
C182 C181 1.390 . S
C182 C183 1.394 . S
C182 C188 1.465 . S
C183 C178 1.399 . S
C183 C182 1.394 . S
C183 C184 1.516 . S
C184 C183 1.516 . S
C184 C185 1.502 . S
C184 C186 1.561 . S
C184 C187 1.526 . S
C185 H169 0.959 . S
C185 H170 0.959 . S
C185 H171 0.961 . S
C185 C184 1.502 . S
C186 H172 0.960 . S
C186 H173 0.961 . S
C186 H174 0.959 . S
C186 C184 1.561 . S
C187 C184 1.526 . S
C187 C188 1.396 . S
C187 C192 1.390 . S
C188 C182 1.465 . S
C188 C187 1.396 . S
C188 C189 1.399 . S
C189 H175 0.929 . S
C189 C188 1.399 . S
C189 C190 1.385 . S
C190 H176 0.931 . S
C190 C189 1.385 . S
C190 C191 1.389 . S
C191 C190 1.389 . S
C191 C192 1.387 . S
C192 H177 0.930 . S
C192 C187 1.390 . S
C192 C191 1.387 . S
H193 C205 0.930 . S
H194 C207 0.930 . S
H195 C208 0.930 . S
H196 C212 0.959 . S
H197 C212 0.959 . S
H198 C212 0.961 . S
H199 C213 0.960 . S
H200 C213 0.961 . S
H201 C213 0.959 . S
H202 C216 0.929 . S
H203 C217 0.931 . S
H204 C219 0.930 . S
C205 H193 0.930 . S
C205 C206 1.399 . S
C205 C210 1.399 . S
C206 C205 1.399 . S
C206 C207 1.376 1_554 S
C207 H194 0.930 . S
C207 C206 1.376 1_556 S
C207 C208 1.388 . S
C208 H195 0.930 . S
C208 C207 1.388 . S
C208 C209 1.390 . S
C209 C208 1.390 . S
C209 C210 1.394 1_556 S
C209 C215 1.465 . S
C210 C205 1.399 . S
C210 C209 1.394 1_554 S
C210 C211 1.516 . S
C211 C210 1.516 . S
C211 C212 1.502 . S
C211 C213 1.561 . S
C211 C214 1.526 . S
C212 H196 0.959 . S
C212 H197 0.959 . S
C212 H198 0.961 . S
C212 C211 1.502 . S
C213 H199 0.960 . S
C213 H200 0.961 . S
C213 H201 0.959 . S
C213 C211 1.561 . S
C214 C211 1.526 . S
C214 C215 1.396 1_554 S
C214 C219 1.390 . S
C215 C209 1.465 . S
C215 C214 1.396 1_556 S
C215 C216 1.399 . S
C216 H202 0.929 . S
C216 C215 1.399 . S
C216 C217 1.385 . S
C217 H203 0.931 . S
C217 C216 1.385 . S
C217 C218 1.389 1_556 S
C218 C217 1.389 1_554 S
C218 C219 1.387 . S
C219 H204 0.930 . S
C219 C214 1.390 . S
C219 C218 1.387 . S
H220 C232 0.930 . S
H221 C234 0.930 . S
H222 C235 0.930 . S
H223 C239 0.959 . S
H224 C239 0.959 . S
H225 C239 0.961 . S
H226 C240 0.960 . S
H227 C240 0.961 . S
H228 C240 0.959 . S
H229 C243 0.929 . S
H230 C244 0.931 . S
H231 C246 0.930 . S
C232 H220 0.930 . S
C232 C233 1.399 . S
C232 C237 1.399 . S
C233 C232 1.399 . S
C233 C234 1.376 . S
C234 H221 0.930 . S
C234 C233 1.376 . S
C234 C235 1.388 . S
C235 H222 0.930 . S
C235 C234 1.388 . S
C235 C236 1.390 . S
C236 C235 1.390 . S
C236 C237 1.394 . S
C236 C242 1.465 . S
C237 C232 1.399 . S
C237 C236 1.394 . S
C237 C238 1.516 . S
C238 C237 1.516 . S
C238 C239 1.502 . S
C238 C240 1.561 . S
C238 C241 1.526 . S
C239 H223 0.959 . S
C239 H224 0.959 . S
C239 H225 0.961 . S
C239 C238 1.502 . S
C240 H226 0.960 . S
C240 H227 0.961 . S
C240 H228 0.959 . S
C240 C238 1.561 . S
C241 C238 1.526 . S
C241 C242 1.396 . S
C241 C246 1.390 . S
C242 C236 1.465 . S
C242 C241 1.396 . S
C242 C243 1.399 . S
C243 H229 0.929 . S
C243 C242 1.399 . S
C243 C244 1.385 . S
C244 H230 0.931 . S
C244 C243 1.385 . S
C244 C245 1.389 . S
C245 C244 1.389 . S
C245 C246 1.387 . S
C246 H231 0.930 . S
C246 C241 1.390 . S
C246 C245 1.387 . S
H247 C259 0.930 . S
H248 C261 0.930 . S
H249 C262 0.930 . S
H250 C266 0.959 . S
H251 C266 0.959 . S
H252 C266 0.961 . S
H253 C267 0.960 . S
H254 C267 0.961 . S
H255 C267 0.959 . S
H256 C270 0.929 . S
H257 C271 0.931 . S
H258 C273 0.930 . S
C259 H247 0.930 . S
C259 C260 1.399 . S
C259 C264 1.399 . S
C260 C259 1.399 . S
C260 C261 1.376 . S
C261 H248 0.930 . S
C261 C260 1.376 . S
C261 C262 1.388 . S
C262 H249 0.930 . S
C262 C261 1.388 . S
C262 C263 1.390 . S
C263 C262 1.390 . S
C263 C264 1.394 . S
C263 C269 1.465 . S
C264 C259 1.399 . S
C264 C263 1.394 . S
C264 C265 1.516 . S
C265 C264 1.516 . S
C265 C266 1.502 . S
C265 C267 1.561 . S
C265 C268 1.526 . S
C266 H250 0.959 . S
C266 H251 0.959 . S
C266 H252 0.961 . S
C266 C265 1.502 . S
C267 H253 0.960 . S
C267 H254 0.961 . S
C267 H255 0.959 . S
C267 C265 1.561 . S
C268 C265 1.526 . S
C268 C269 1.396 . S
C268 C273 1.390 . S
C269 C263 1.465 . S
C269 C268 1.396 . S
C269 C270 1.399 . S
C270 H256 0.929 . S
C270 C269 1.399 . S
C270 C271 1.385 . S
C271 H257 0.931 . S
C271 C270 1.385 . S
C271 C272 1.389 . S
C272 C271 1.389 . S
C272 C273 1.387 . S
C273 H258 0.930 . S
C273 C268 1.390 . S
C273 C272 1.387 . S
H274 C286 0.930 . S
H275 C288 0.930 . S
H276 C289 0.930 . S
H277 C293 0.959 . S
H278 C293 0.959 . S
H279 C293 0.961 . S
H280 C294 0.960 . S
H281 C294 0.961 . S
H282 C294 0.959 . S
H283 C297 0.929 . S
H284 C298 0.931 . S
H285 C300 0.930 . S
C286 H274 0.930 . S
C286 C287 1.399 . S
C286 C291 1.399 . S
C287 C286 1.399 . S
C287 C288 1.376 . S
C288 H275 0.930 . S
C288 C287 1.376 . S
C288 C289 1.388 . S
C289 H276 0.930 . S
C289 C288 1.388 . S
C289 C290 1.390 . S
C290 C289 1.390 . S
C290 C291 1.394 . S
C290 C296 1.465 . S
C291 C286 1.399 . S
C291 C290 1.394 . S
C291 C292 1.516 . S
C292 C291 1.516 . S
C292 C293 1.502 . S
C292 C294 1.561 . S
C292 C295 1.526 . S
C293 H277 0.959 . S
C293 H278 0.959 . S
C293 H279 0.961 . S
C293 C292 1.502 . S
C294 H280 0.960 . S
C294 H281 0.961 . S
C294 H282 0.959 . S
C294 C292 1.561 . S
C295 C292 1.526 . S
C295 C296 1.396 . S
C295 C300 1.390 . S
C296 C290 1.465 . S
C296 C295 1.396 . S
C296 C297 1.399 . S
C297 H283 0.929 . S
C297 C296 1.399 . S
C297 C298 1.385 . S
C298 H284 0.931 . S
C298 C297 1.385 . S
C298 C299 1.389 . S
C299 C298 1.389 . S
C299 C300 1.387 . S
C300 H285 0.930 . S
C300 C295 1.390 . S
C300 C299 1.387 . S
H301 C313 0.930 . S
H302 C315 0.930 . S
H303 C316 0.930 . S
H304 C320 0.959 . S
H305 C320 0.959 . S
H306 C320 0.961 . S
H307 C321 0.960 . S
H308 C321 0.961 . S
H309 C321 0.959 . S
H310 C324 0.929 . S
H311 C325 0.931 . S
H312 C327 0.930 . S
C313 H301 0.930 . S
C313 C314 1.399 . S
C313 C318 1.399 . S
C314 C313 1.399 . S
C314 C315 1.376 . S
C315 H302 0.930 . S
C315 C314 1.376 . S
C315 C316 1.388 . S
C316 H303 0.930 . S
C316 C315 1.388 . S
C316 C317 1.390 . S
C317 C316 1.390 . S
C317 C318 1.394 . S
C317 C323 1.465 . S
C318 C313 1.399 . S
C318 C317 1.394 . S
C318 C319 1.516 . S
C319 C318 1.516 . S
C319 C320 1.502 . S
C319 C321 1.561 . S
C319 C322 1.526 . S
C320 H304 0.959 . S
C320 H305 0.959 . S
C320 H306 0.961 . S
C320 C319 1.502 . S
C321 H307 0.960 . S
C321 H308 0.961 . S
C321 H309 0.959 . S
C321 C319 1.561 . S
C322 C319 1.526 . S
C322 C323 1.396 . S
C322 C327 1.390 . S
C323 C317 1.465 . S
C323 C322 1.396 . S
C323 C324 1.399 . S
C324 H310 0.929 . S
C324 C323 1.399 . S
C324 C325 1.385 . S
C325 H311 0.931 . S
C325 C324 1.385 . S
C325 C326 1.389 . S
C326 C325 1.389 . S
C326 C327 1.387 . S
C327 H312 0.930 . S
C327 C322 1.390 . S
C327 C326 1.387 . S
H328 C340 0.930 . S
H329 C342 0.930 . S
H330 C343 0.930 . S
H331 C347 0.959 . S
H332 C347 0.959 . S
H333 C347 0.961 . S
H334 C348 0.960 . S
H335 C348 0.961 . S
H336 C348 0.959 . S
H337 C351 0.929 . S
H338 C352 0.931 . S
H339 C354 0.930 . S
C340 H328 0.930 . S
C340 C341 1.399 . S
C340 C345 1.399 . S
C341 C340 1.399 . S
C341 C342 1.376 . S
C342 H329 0.930 . S
C342 C341 1.376 . S
C342 C343 1.388 . S
C343 H330 0.930 . S
C343 C342 1.388 . S
C343 C344 1.390 . S
C344 C343 1.390 . S
C344 C345 1.394 . S
C344 C350 1.465 . S
C345 C340 1.399 . S
C345 C344 1.394 . S
C345 C346 1.516 . S
C346 C345 1.516 . S
C346 C347 1.502 . S
C346 C348 1.561 . S
C346 C349 1.526 . S
C347 H331 0.959 . S
C347 H332 0.959 . S
C347 H333 0.961 . S
C347 C346 1.502 . S
C348 H334 0.960 . S
C348 H335 0.961 . S
C348 H336 0.959 . S
C348 C346 1.561 . S
C349 C346 1.526 . S
C349 C350 1.396 . S
C349 C354 1.390 . S
C350 C344 1.465 . S
C350 C349 1.396 . S
C350 C351 1.399 . S
C351 H337 0.929 . S
C351 C350 1.399 . S
C351 C352 1.385 . S
C352 H338 0.931 . S
C352 C351 1.385 . S
C352 C353 1.389 . S
C353 C352 1.389 . S
C353 C354 1.387 . S
C354 H339 0.930 . S
C354 C349 1.390 . S
C354 C353 1.387 . S
H355 C367 0.930 . S
H356 C369 0.930 . S
H357 C370 0.930 . S
H358 C374 0.959 . S
H359 C374 0.959 . S
H360 C374 0.961 . S
H361 C375 0.960 . S
H362 C375 0.961 . S
H363 C375 0.959 . S
H364 C378 0.929 . S
H365 C379 0.931 . S
H366 C381 0.930 . S
C367 H355 0.930 . S
C367 C368 1.399 . S
C367 C372 1.399 . S
C368 C367 1.399 . S
C368 C369 1.376 . S
C369 H356 0.930 . S
C369 C368 1.376 . S
C369 C370 1.388 . S
C370 H357 0.930 . S
C370 C369 1.388 . S
C370 C371 1.390 . S
C371 C370 1.390 . S
C371 C372 1.394 . S
C371 C377 1.465 . S
C372 C367 1.399 . S
C372 C371 1.394 . S
C372 C373 1.516 . S
C373 C372 1.516 . S
C373 C374 1.502 . S
C373 C375 1.561 . S
C373 C376 1.526 . S
C374 H358 0.959 . S
C374 H359 0.959 . S
C374 H360 0.961 . S
C374 C373 1.502 . S
C375 H361 0.960 . S
C375 H362 0.961 . S
C375 H363 0.959 . S
C375 C373 1.561 . S
C376 C373 1.526 . S
C376 C377 1.396 . S
C376 C381 1.390 . S
C377 C371 1.465 . S
C377 C376 1.396 . S
C377 C378 1.399 . S
C378 H364 0.929 . S
C378 C377 1.399 . S
C378 C379 1.385 . S
C379 H365 0.931 . S
C379 C378 1.385 . S
C379 C380 1.389 . S
C380 C379 1.389 . S
C380 C381 1.387 . S
C381 H366 0.930 . S
C381 C376 1.390 . S
C381 C380 1.387 . S
H382 C394 0.930 . S
H383 C396 0.930 . S
H384 C397 0.930 . S
H385 C401 0.959 . S
H386 C401 0.959 . S
H387 C401 0.961 . S
H388 C402 0.960 . S
H389 C402 0.961 . S
H390 C402 0.959 . S
H391 C405 0.929 . S
H392 C406 0.931 . S
H393 C408 0.930 . S
C394 H382 0.930 . S
C394 C395 1.399 . S
C394 C399 1.399 . S
C395 C394 1.399 . S
C395 C396 1.376 . S
C396 H383 0.930 . S
C396 C395 1.376 . S
C396 C397 1.388 . S
C397 H384 0.930 . S
C397 C396 1.388 . S
C397 C398 1.390 . S
C398 C397 1.390 . S
C398 C399 1.394 . S
C398 C404 1.465 . S
C399 C394 1.399 . S
C399 C398 1.394 . S
C399 C400 1.516 . S
C400 C399 1.516 . S
C400 C401 1.502 . S
C400 C402 1.561 . S
C400 C403 1.526 . S
C401 H385 0.959 . S
C401 H386 0.959 . S
C401 H387 0.961 . S
C401 C400 1.502 . S
C402 H388 0.960 . S
C402 H389 0.961 . S
C402 H390 0.959 . S
C402 C400 1.561 . S
C403 C400 1.526 . S
C403 C404 1.396 . S
C403 C408 1.390 . S
C404 C398 1.465 . S
C404 C403 1.396 . S
C404 C405 1.399 . S
C405 H391 0.929 . S
C405 C404 1.399 . S
C405 C406 1.385 . S
C406 H392 0.931 . S
C406 C405 1.385 . S
C406 C407 1.389 . S
C407 C406 1.389 . S
C407 C408 1.387 . S
C408 H393 0.930 . S
C408 C403 1.390 . S
C408 C407 1.387 . S
H409 C421 0.930 . S
H410 C423 0.930 . S
H411 C424 0.930 . S
H412 C428 0.959 . S
H413 C428 0.959 . S
H414 C428 0.961 . S
H415 C429 0.960 . S
H416 C429 0.961 . S
H417 C429 0.959 . S
H418 C432 0.929 . S
H419 C433 0.919 1_545 S
H420 C435 0.930 . S
C421 H409 0.930 . S
C421 C422 1.399 . S
C421 C426 1.399 . S
C422 C421 1.399 . S
C422 C423 1.376 . S
C423 H410 0.930 . S
C423 C422 1.376 . S
C423 C424 1.388 . S
C424 H411 0.930 . S
C424 C423 1.388 . S
C424 C425 1.390 . S
C425 C424 1.390 . S
C425 C426 1.394 . S
C425 C431 1.465 . S
C426 C421 1.399 . S
C426 C425 1.394 . S
C426 C427 1.516 . S
C427 C426 1.516 . S
C427 C428 1.502 . S
C427 C429 1.561 . S
C427 C430 1.526 . S
C428 H412 0.959 . S
C428 H413 0.959 . S
C428 H414 0.961 . S
C428 C427 1.502 . S
C429 H415 0.960 . S
C429 H416 0.961 . S
C429 H417 0.959 . S
C429 C427 1.561 . S
C430 C427 1.526 . S
C430 C431 1.396 . S
C430 C435 1.390 . S
C431 C425 1.465 . S
C431 C430 1.396 . S
C431 C432 1.399 . S
C432 H418 0.929 . S
C432 C431 1.399 . S
C432 C433 1.385 . S
C433 H419 0.919 1_565 S
C433 C432 1.385 . S
C433 C434 1.389 . S
C434 C433 1.389 . S
C434 C435 1.387 . S
C435 H420 0.930 . S
C435 C430 1.390 . S
C435 C434 1.387 . S
C137 C48 1.493 . S
C125 N37 1.488 . S
C152 N4 1.491 . S
C164 C91 1.502 . S
C179 N15 1.480 . S
C191 C57 1.496 . S
C206 N26 1.505 . S
C218 C82 1.503 . S
C245 C44 1.555 . S
C233 C9 1.546 . S
C272 C86 1.528 . S
C260 C17 1.542 . S
C287 C31 1.551 . S
C299 C52 1.552 . S
C314 C42 1.491 . S
C326 C78 1.537 . S
C353 C107 1.462 . S
C341 C20 1.439 . S
C380 C73 1.445 . S
C368 C28 1.437 . S
C407 C95 1.453 . S
C395 C39 1.460 . S
C422 C6 1.433 . S
C434 C61 1.451 . S
