# Generated by pormake.
# Topology pth, (4,4)-cn, num edge types: 1
# Building blocks:
#     Node 0, Type 0, BuildingBlock: AZAVOO_clean_sbu_0, # of connection points: 4
#     Node 1, Type 0, BuildingBlock: AZAVOO_clean_sbu_0, # of connection points: 4
#     Node 2, Type 0, BuildingBlock: AZAVOO_clean_sbu_0, # of connection points: 4
#     Node 3, Type 1, BuildingBlock: AZAVOO_clean_linker_0, # of connection points: 4
#     Node 4, Type 1, BuildingBlock: AZAVOO_clean_linker_0, # of connection points: 4
#     Node 5, Type 1, BuildingBlock: AZAVOO_clean_linker_0, # of connection points: 4
#     Edge 6, Type (0, 1), BuildingBlock: AJUNOK_clean_linker_0, # of connection points: 2
#     Edge 7, Type (0, 1), BuildingBlock: AJUNOK_clean_linker_0, # of connection points: 2
#     Edge 8, Type (0, 1), BuildingBlock: AJUNOK_clean_linker_0, # of connection points: 2
#     Edge 9, Type (0, 1), BuildingBlock: AJUNOK_clean_linker_0, # of connection points: 2
#     Edge 10, Type (0, 1), BuildingBlock: AJUNOK_clean_linker_0, # of connection points: 2
#     Edge 11, Type (0, 1), BuildingBlock: AJUNOK_clean_linker_0, # of connection points: 2
#     Edge 12, Type (0, 1), BuildingBlock: AJUNOK_clean_linker_0, # of connection points: 2
#     Edge 13, Type (0, 1), BuildingBlock: AJUNOK_clean_linker_0, # of connection points: 2
#     Edge 14, Type (0, 1), BuildingBlock: AJUNOK_clean_linker_0, # of connection points: 2
#     Edge 15, Type (0, 1), BuildingBlock: AJUNOK_clean_linker_0, # of connection points: 2
#     Edge 16, Type (0, 1), BuildingBlock: AJUNOK_clean_linker_0, # of connection points: 2
#     Edge 17, Type (0, 1), BuildingBlock: AJUNOK_clean_linker_0, # of connection points: 2
# Relax obj value: 0.187
# Max RMSD: 0.232
# Mean RMSD: 0.224
data_MOF--net-pth--node1-AZAVOO_clean_sbu_0--node2-AZAVOO_clean_linker_0--edge1-AJUNOK_clean_linker_0
_symmetry_space_group_name_H-M    P1
_symmetry_Int_Tables_number       1
_symmetry_cell_setting            triclinic
loop_
_symmetry_equiv_pos_as_xyz
'x, y, z'
_cell_length_a     20.244702
_cell_length_b     20.938516
_cell_length_c     54.685727
_cell_angle_alpha  92.52966
_cell_angle_beta   91.954841
_cell_angle_gamma 122.3864
loop_
_atom_site_label
_atom_site_type_symbol
_atom_site_fract_x
_atom_site_fract_y
_atom_site_fract_z
_atom_type_partial_charge
Mg0 Mg 0.209 0.12522 0.09564 0.0
O1 O 0.11461 0.06767 0.06384 0.0
O2 O 0.10569 0.15649 0.04578 0.0
Mg3 Mg 0.19162 0.26987 0.06718 0.0
C4 C 0.08484 0.08748 0.04717 0.0
C5 C 0.14693 0.95013 0.10155 0.0
O6 O 0.16202 0.9452 0.07862 0.0
O7 O 0.12794 0.1398 0.1188 0.0
O8 O 0.11992 0.23003 0.1015 0.0
O9 O 0.29747 0.14168 0.06955 0.0
O10 O 0.26353 0.22427 0.07829 0.0
C11 C 0.10205 0.18323 0.1181 0.0
C12 C 0.3019 0.20417 0.06516 0.0
O13 O 0.16335 0.01318 0.11153 0.0
Mg14 Mg 0.90627 0.96012 0.40941 0.0
O15 O 0.02154 0.02153 0.43326 0.0
O16 O 0.02636 0.11242 0.45766 0.0
Mg17 Mg 0.91473 0.11136 0.44903 0.0
C18 C 0.05629 0.07548 0.45008 0.0
C19 C 0.96152 0.85147 0.39653 0.0
O20 O 0.94979 0.84231 0.41993 0.0
O21 O 0.95473 0.06047 0.38506 0.0
O22 O 0.95412 0.14653 0.41066 0.0
O23 O 0.84662 0.88328 0.43964 0.0
O24 O 0.85597 0.99245 0.43539 0.0
C25 C 0.96714 0.12657 0.3899 0.0
C26 C 0.83585 0.93544 0.44808 0.0
O27 O 0.95111 0.8992 0.38634 0.0
Mg28 Mg 0.0706 0.09182 0.74167 0.0
O29 O 0.15994 0.20236 0.76319 0.0
O30 O 0.09859 0.24498 0.78514 0.0
Mg31 Mg 0.96699 0.15262 0.77999 0.0
C32 C 0.16117 0.25196 0.77783 0.0
C33 C 0.22996 0.11729 0.72568 0.0
O34 O 0.23798 0.10819 0.74898 0.0
O35 O 0.03312 0.15115 0.71606 0.0
O36 O 0.9614 0.17716 0.73972 0.0
O37 O 0.07295 0.02627 0.77247 0.0
O38 O 0.99109 0.06482 0.76834 0.0
C39 C 0.98775 0.17543 0.71895 0.0
C40 C 0.01607 0.03036 0.78082 0.0
O41 O 0.16703 0.11057 0.71733 0.0
H42 H 0.94225 0.3582 0.08415 0.0
H43 H 0.13871 0.99321 0.27643 0.0
H44 H 0.86538 0.32006 0.21502 0.0
H45 H 0.86454 0.22072 0.1894 0.0
H46 H 0.10186 0.30558 0.21706 0.0
H47 H 0.10241 0.4046 0.24236 0.0
H48 H 0.8899 0.4443 0.18141 0.0
H49 H 0.89045 0.40491 0.13862 0.0
H50 H 0.12136 0.44513 0.15379 0.0
H51 H 0.12031 0.48514 0.19642 0.0
H52 H 0.91045 0.59128 0.20363 0.0
H53 H 0.92966 0.67429 0.17063 0.0
H54 H 0.16675 0.7282 0.16613 0.0
H55 H 0.14641 0.64388 0.19868 0.0
H56 H 0.9114 0.61517 0.26499 0.0
H57 H 0.92854 0.73763 0.27666 0.0
H58 H 0.16758 0.85209 0.2555 0.0
H59 H 0.15007 0.72922 0.24434 0.0
H60 H 0.89865 0.49205 0.29847 0.0
H61 H 0.89569 0.56443 0.33442 0.0
H62 H 0.1397 0.73615 0.3285 0.0
H63 H 0.14301 0.66257 0.29297 0.0
H64 H 0.88038 0.33747 0.2746 0.0
H65 H 0.88248 0.25533 0.30481 0.0
H66 H 0.12981 0.41771 0.32187 0.0
H67 H 0.1268 0.50021 0.29199 0.0
O68 O 0.9434 0.37441 0.10109 0.0
O69 O 0.06317 0.39848 0.10967 0.0
O70 O 0.00753 0.88233 0.283 0.0
O71 O 0.13007 0.94403 0.27171 0.0
C72 C 0.99617 0.44478 0.23693 0.0
C73 C 0.00477 0.49168 0.21791 0.0
C74 C 0.01643 0.56329 0.22354 0.0
C75 C 0.02009 0.58875 0.24811 0.0
C76 C 0.01554 0.54352 0.2673 0.0
C77 C 0.00367 0.47139 0.26168 0.0
C78 C 0.98434 0.36991 0.23024 0.0
C79 C 0.91556 0.31451 0.21651 0.0
C80 C 0.91521 0.25808 0.20185 0.0
C81 C 0.98332 0.25606 0.2011 0.0
C82 C 0.0482 0.3052 0.21749 0.0
C83 C 0.04871 0.36195 0.232 0.0
C84 C 0.00488 0.4672 0.19198 0.0
C85 C 0.94053 0.44466 0.1754 0.0
C86 C 0.94104 0.42218 0.151 0.0
C87 C 0.00604 0.42204 0.14277 0.0
C88 C 0.07048 0.4448 0.1595 0.0
C89 C 0.06991 0.46735 0.18387 0.0
C90 C 0.02739 0.6126 0.20357 0.0
C91 C 0.96631 0.62096 0.19541 0.0
C92 C 0.97735 0.66811 0.17665 0.0
C93 C 0.04989 0.7079 0.16606 0.0
C94 C 0.11017 0.69767 0.17389 0.0
C95 C 0.09895 0.65028 0.19255 0.0
C96 C 0.02941 0.66338 0.25378 0.0
C97 C 0.9673 0.6668 0.26282 0.0
C98 C 0.97728 0.73679 0.26947 0.0
C99 C 0.04949 0.80469 0.26702 0.0
C100 C 0.11124 0.80095 0.25761 0.0
C101 C 0.10129 0.73088 0.25109 0.0
C102 C 0.02085 0.57235 0.29303 0.0
C103 C 0.95243 0.54332 0.30566 0.0
C104 C 0.95071 0.58491 0.32607 0.0
C105 C 0.01732 0.65605 0.33395 0.0
C106 C 0.08764 0.68157 0.32265 0.0
C107 C 0.08967 0.63941 0.30252 0.0
C108 C 0.00319 0.42507 0.2814 0.0
C109 C 0.93469 0.35559 0.2851 0.0
C110 C 0.93622 0.30854 0.30211 0.0
C111 C 0.00629 0.3303 0.31567 0.0
C112 C 0.07478 0.40011 0.31194 0.0
C113 C 0.07313 0.44728 0.29498 0.0
C114 C 0.00625 0.39772 0.11688 0.0
C115 C 0.06076 0.87917 0.2744 0.0
H116 H 0.5667 0.94152 0.41976 0.0
H117 H 0.22481 0.28106 0.5876 0.0
H118 H 0.58206 0.97645 0.56617 0.0
H119 H 0.64244 0.91518 0.54615 0.0
H120 H 0.822 0.13134 0.52205 0.0
H121 H 0.76311 0.19259 0.54303 0.0
H122 H 0.50047 0.97713 0.52101 0.0
H123 H 0.51266 0.93952 0.47922 0.0
H124 H 0.66674 0.17575 0.46558 0.0
H125 H 0.65344 0.21246 0.50739 0.0
H126 H 0.38806 0.01262 0.52828 0.0
H127 H 0.28282 0.00217 0.5014 0.0
H128 H 0.4152 0.24551 0.49844 0.0
H129 H 0.52104 0.25553 0.52511 0.0
H130 H 0.36475 0.05585 0.58429 0.0
H131 H 0.25583 0.07313 0.59039 0.0
H132 H 0.40751 0.31115 0.57863 0.0
H133 H 0.51592 0.293 0.5727 0.0
H134 H 0.49683 0.05169 0.62296 0.0
H135 H 0.43164 0.052 0.65974 0.0
H136 H 0.51974 0.2893 0.65415 0.0
H137 H 0.5852 0.28868 0.61726 0.0
H138 H 0.62809 0.03561 0.60864 0.0
H139 H 0.73213 0.05568 0.63832 0.0
H140 H 0.84064 0.29785 0.63777 0.0
H141 H 0.73777 0.27757 0.60731 0.0
O142 O 0.56157 0.95766 0.43605 0.0
O143 O 0.64164 0.07987 0.43014 0.0
O144 O 0.19133 0.14991 0.5912 0.0
O145 O 0.26734 0.27306 0.58592 0.0
C146 C 0.62003 0.12004 0.56187 0.0
C147 C 0.57136 0.12009 0.54276 0.0
C148 C 0.518 0.14135 0.54805 0.0
C149 C 0.51177 0.16091 0.57249 0.0
C150 C 0.56142 0.16219 0.59159 0.0
C151 C 0.61742 0.14411 0.58613 0.0
C152 C 0.66876 0.08898 0.55618 0.0
C153 C 0.63668 0.01109 0.55761 0.0
C154 C 0.67054 0.97605 0.54592 0.0
C155 C 0.73593 0.0183 0.53221 0.0
C156 C 0.77185 0.09746 0.53263 0.0
C157 C 0.73841 0.13262 0.54457 0.0
C158 C 0.57613 0.09741 0.51713 0.0
C159 C 0.53651 0.02057 0.5089 0.0
C160 C 0.54377 -0.00069 0.48506 0.0
C161 C 0.59104 0.05461 0.46909 0.0
C162 C 0.63002 0.13171 0.47741 0.0
C163 C 0.62241 0.15287 0.50123 0.0
C164 C 0.46181 0.13479 0.52856 0.0
C165 C 0.39522 0.06341 0.52125 0.0
C166 C 0.33532 0.05756 0.50601 0.0
C167 C 0.34099 0.12315 0.49816 0.0
C168 C 0.40947 0.19433 0.50452 0.0
C169 C 0.4698 0.20007 0.51957 0.0
C170 C 0.44798 0.1732 0.57811 0.0
C171 C 0.37439 0.11177 0.58329 0.0
C172 C 0.31229 0.12176 0.58666 0.0
C173 C 0.32284 0.19347 0.58482 0.0
C174 C 0.3973 0.25518 0.58009 0.0
C175 C 0.45936 0.24508 0.57676 0.0
C176 C 0.54493 0.16995 0.61734 0.0
C177 C 0.50484 0.10454 0.63025 0.0
C178 C 0.46744 0.10471 0.65119 0.0
C179 C 0.46945 0.17025 0.65938 0.0
C180 C 0.51638 0.23777 0.64789 0.0
C181 C 0.55409 0.23764 0.62698 0.0
C182 C 0.67642 0.15513 0.60543 0.0
C183 C 0.67493 0.09294 0.61458 0.0
C184 C 0.73419 0.10446 0.63149 0.0
C185 C 0.79492 0.17832 0.63981 0.0
C186 C 0.79481 0.24051 0.63133 0.0
C187 C 0.73614 0.22895 0.6141 0.0
C188 C 0.59978 0.03181 0.44392 0.0
C189 C 0.25639 0.20385 0.58753 0.0
H190 H 0.72345 0.71252 0.07768 0.0
H191 H 0.24209 0.14706 0.85285 0.0
H192 H 0.68563 0.79481 0.9443 0.0
H193 H 0.78617 0.89997 0.9722 0.0
H194 H 0.94206 0.82154 0.96089 0.0
H195 H 0.84129 0.71666 0.93279 0.0
H196 H 0.58727 0.66209 0.97722 0.0
H197 H 0.62743 0.68746 0.02112 0.0
H198 H 0.79799 0.62732 0.00873 0.0
H199 H 0.75688 0.60188 0.96488 0.0
H200 H 0.44417 0.51304 0.95082 0.0
H201 H 0.37406 0.42211 0.98141 0.0
H202 H 0.5482 0.36262 0.98222 0.0
H203 H 0.61635 0.4518 0.95081 0.0
H204 H 0.40362 0.49844 0.90433 0.0
H205 H 0.28764 0.3795 0.88701 0.0
H206 H 0.43348 0.29224 0.87039 0.0
H207 H 0.54927 0.41214 0.88745 0.0
H208 H 0.48454 0.61909 0.87676 0.0
H209 H 0.38673 0.54552 0.84337 0.0
H210 H 0.53811 0.4789 0.8135 0.0
H211 H 0.63064 0.54424 0.84921 0.0
H212 H 0.68823 0.80302 0.89492 0.0
H213 H 0.78199 0.90151 0.86951 0.0
H214 H 0.8513 0.75028 0.84243 0.0
H215 H 0.76041 0.65392 0.86867 0.0
O216 O 0.70803 0.70159 0.06031 0.0
O217 O 0.79116 0.66533 0.05322 0.0
O218 O 0.21766 0.24779 0.86425 0.0
O219 O 0.28703 0.1946 0.85988 0.0
C220 C 0.68951 0.67539 0.92557 0.0
C221 C 0.64627 0.6173 0.9413 0.0
C222 C 0.58011 0.54785 0.93183 0.0
C223 C 0.55533 0.53702 0.90684 0.0
C224 C 0.59778 0.59566 0.89107 0.0
C225 C 0.66654 0.66404 0.90028 0.0
C226 C 0.75666 0.74873 0.93643 0.0
C227 C 0.74261 0.80214 0.94711 0.0
C228 C 0.79968 0.86166 0.96312 0.0
C229 C 0.87102 0.86778 0.96889 0.0
C230 C 0.88697 0.81722 0.95689 0.0
C231 C 0.83009 0.75808 0.94067 0.0
C232 C 0.66924 0.63022 0.96799 0.0
C233 C 0.63301 0.65413 0.98409 0.0
C234 C 0.65622 0.66874 0.00912 0.0
C235 C 0.71599 0.65948 0.01843 0.0
C236 C 0.75173 0.63493 0.00217 0.0
C237 C 0.72843 0.62035 0.97715 0.0
C238 C 0.53458 0.48808 0.94854 0.0
C239 C 0.46594 0.47893 0.95717 0.0
C240 C 0.42651 0.4276 0.97471 0.0
C241 C 0.45572 0.38533 0.98405 0.0
C242 C 0.52372 0.39349 0.97497 0.0
C243 C 0.56284 0.44453 0.95722 0.0
C244 C 0.48467 0.46375 0.8971 0.0
C245 C 0.4103 0.45346 0.89699 0.0
C246 C 0.34423 0.38557 0.88704 0.0
C247 C 0.3513 0.32632 0.87732 0.0
C248 C 0.42597 0.33662 0.87777 0.0
C249 C 0.49214 0.40493 0.88751 0.0
C250 C 0.56379 0.58562 0.86573 0.0
C251 C 0.49788 0.5908 0.86252 0.0
C252 C 0.4416 0.54816 0.8433 0.0
C253 C 0.45206 0.50218 0.82636 0.0
C254 C 0.52535 0.50908 0.82716 0.0
C255 C 0.57989 0.54867 0.84714 0.0
C256 C 0.71743 0.72137 0.88349 0.0
C257 C 0.72388 0.79146 0.88352 0.0
C258 C 0.77739 0.8475 0.86906 0.0
C259 C 0.82505 0.83408 0.85435 0.0
C260 C 0.81714 0.76314 0.8541 0.0
C261 C 0.76421 0.70753 0.86869 0.0
C262 C 0.74086 0.67554 0.045 0.0
C263 C 0.28118 0.25404 0.86676 0.0
C264 C 0.01483 0.22095 0.13588 0.0
C265 C 0.05671 0.18527 0.1385 0.0
C266 C 0.98392 0.23663 0.15607 0.0
C267 C 0.99468 0.21821 0.17968 0.0
H268 H 0.00901 0.24019 0.11834 0.0
H269 H 0.95649 0.26844 0.15345 0.0
S270 S 0.08739 0.11258 0.19582 0.0
N271 N 0.09744 0.12227 0.16613 0.0
N272 N 0.04026 0.15359 0.20411 0.0
C273 C 0.03031 0.17684 0.18224 0.0
C274 C 0.06103 0.15982 0.16163 0.0
C275 C 0.86346 0.98623 0.4913 0.0
C276 C 0.8089 0.93567 0.47251 0.0
C277 C 0.83895 0.00798 0.51192 0.0
C278 C 0.75911 0.97999 0.51426 0.0
H279 H 0.92571 0.01325 0.48921 0.0
H280 H 0.88298 0.05063 0.52532 0.0
S281 S 0.59341 0.8412 0.47062 0.0
N282 N 0.67229 0.85392 0.45808 0.0
N283 N 0.62531 0.89463 0.49671 0.0
C284 C 0.70372 0.92489 0.49636 0.0
C285 C 0.72893 0.90285 0.47543 0.0
C286 C 0.89933 0.97569 0.80567 0.0
C287 C 0.97458 0.98986 0.80225 0.0
C288 C 0.85265 0.92756 0.82321 0.0
C289 C 0.87954 0.89207 0.83816 0.0
H290 H 0.87444 -0.00102 0.79392 0.0
H291 H 0.79369 0.91542 0.82428 0.0
S292 S 0.07701 0.92042 0.83947 0.0
N293 N 0.07717 0.97117 0.81717 0.0
N294 N 0.9898 0.88175 0.85059 0.0
C295 C 0.95655 0.90958 0.83608 0.0
C296 C 0.00402 0.95829 0.81805 0.0
C297 C 0.12321 0.82361 0.11059 0.0
C298 C 0.11352 0.88398 0.11651 0.0
C299 C 0.10003 0.76511 0.12633 0.0
C300 C 0.06546 0.76467 0.14826 0.0
H301 H 0.15164 0.82302 0.09423 0.0
H302 H 0.11067 0.72074 0.12158 0.0
S303 S 0.02131 0.90631 0.17114 0.0
N304 N 0.06185 0.93682 0.14501 0.0
N305 N 0.01966 0.82761 0.17461 0.0
C306 C 0.05232 0.82286 0.15383 0.0
C307 C 0.07602 0.88237 0.13793 0.0
C308 C 0.16862 0.0569 0.45223 0.0
C309 C 0.13217 0.09327 0.46177 0.0
C310 C 0.23738 0.06836 0.46372 0.0
C311 C 0.27269 0.11708 0.48505 0.0
H312 H 0.14331 0.01818 0.43594 0.0
H313 H 0.26268 0.03824 0.45604 0.0
S314 S 0.20162 0.22517 0.51794 0.0
N315 N 0.13758 0.18022 0.49417 0.0
N316 N 0.26682 0.20125 0.51561 0.0
C317 C 0.23811 0.15477 0.49465 0.0
C318 C 0.16788 0.14303 0.48305 0.0
C319 C 0.2522 0.38986 0.79081 0.0
C320 C 0.238 0.31649 0.78802 0.0
C321 C 0.32375 0.45069 0.80165 0.0
C322 C 0.38297 0.44005 0.81085 0.0
H323 H 0.2076 0.40027 0.78462 0.0
H324 H 0.33182 0.50619 0.80335 0.0
S325 S 0.37252 0.25674 0.80793 0.0
N326 N 0.28855 0.23602 0.79442 0.0
N327 N 0.4206 0.34825 0.81624 0.0
C328 C 0.36928 0.36643 0.80772 0.0
C329 C 0.29735 0.30521 0.79604 0.0
C330 C 0.91249 0.22673 0.70042 0.0
C331 C 0.95388 0.19051 0.69713 0.0
C332 C 0.86463 0.22655 0.68127 0.0
C333 C 0.85597 0.18962 0.65824 0.0
H334 H 0.91393 0.25225 0.71826 0.0
H335 H 0.83072 0.25166 0.68493 0.0
S336 S 0.96001 0.09676 0.63868 0.0
N337 N 0.98986 0.1247 0.66787 0.0
N338 N 0.89892 0.12396 0.63208 0.0
C339 C 0.90108 0.15812 0.65408 0.0
C340 C 0.95058 0.15893 0.67346 0.0
C341 C 0.00372 0.05258 0.00738 0.0
C342 C 0.02786 0.02965 0.02791 0.0
C343 C 0.95324 6e-05 0.9883 0.0
C344 C 0.92555 0.92275 0.9889 0.0
H345 H 0.0245 0.11175 0.00581 0.0
H346 H 0.9364 0.02015 0.97284 0.0
S347 S 0.96476 0.83138 0.03901 0.0
N348 N 0.01557 0.92253 0.04807 0.0
N349 N 0.92121 0.82446 0.01207 0.0
C350 C 0.94764 0.89851 0.00938 0.0
C351 C -0.00141 0.95175 0.02891 0.0
C352 C 0.011 0.82427 0.35865 0.0
C353 C 0.98143 0.80342 0.38187 0.0
C354 C 0.02557 0.77754 0.34374 0.0
C355 C 0.01017 0.7078 0.35135 0.0
H356 H 0.02208 0.87664 0.35176 0.0
H357 H 0.04649 0.7949 0.32575 0.0
S358 S 0.9358 0.62783 0.41066 0.0
N359 N 0.94029 0.70905 0.41207 0.0
N360 N 0.96666 0.62106 0.38368 0.0
C361 C 0.98226 0.68682 0.37462 0.0
C362 C 0.96834 0.73476 0.38999 0.0
C363 C 0.35072 0.11911 0.71559 0.0
C364 C 0.29371 0.13569 0.70931 0.0
C365 C 0.40921 0.13256 0.69972 0.0
C366 C 0.41364 0.16449 0.67728 0.0
H367 H 0.34894 0.09363 0.73256 0.0
H368 H 0.4506 0.11693 0.70485 0.0
S369 S 0.28106 0.22153 0.65276 0.0
N370 N 0.24741 0.18836 0.67942 0.0
N371 N 0.35721 0.21354 0.64972 0.0
C372 C 0.35846 0.18331 0.6711 0.0
C373 C 0.29851 0.1689 0.68708 0.0
C374 C 0.36485 0.32452 0.04461 0.0
C375 C 0.34409 0.24881 0.0446 0.0
C376 C 0.40144 0.36807 0.02501 0.0
C377 C 0.41828 0.3375 0.00457 0.0
H378 H 0.35284 0.35061 0.05991 0.0
H379 H 0.41692 0.42637 0.02592 0.0
S380 S 0.37409 0.14159 -0.00488 0.0
N381 N 0.34245 0.14467 0.02233 0.0
N382 N 0.41065 0.22683 0.98516 0.0
C383 C 0.39842 0.26206 0.0043 0.0
C384 C 0.3614 0.2176 0.0244 0.0
C385 C 0.96443 0.15341 0.34585 0.0
C386 C 0.99007 0.18042 0.3705 0.0
C387 C 0.97221 0.20271 0.32799 0.0
C388 C 0.0067 0.28073 0.33413 0.0
H389 H 0.9344 0.09332 0.34053 0.0
H390 H 0.94926 0.17932 0.30936 0.0
S391 S 0.09065 0.38094 0.39558 0.0
N392 N 0.05747 0.29125 0.39969 0.0
N393 N 0.07108 0.38335 0.36621 0.0
C394 C 0.03652 0.30902 0.35841 0.0
C395 C 0.02845 0.25898 0.37657 0.0
loop_
_geom_bond_atom_site_label_1
_geom_bond_atom_site_label_2
_geom_bond_distance
_geom_bond_site_symmetry_2
_ccdc_geom_bond_type
Mg0 O1 2.028 . S
Mg0 O7 1.986 . S
Mg0 O9 2.114 . S
Mg0 O10 2.251 . S
Mg0 O13 2.010 . S
O1 Mg0 2.028 . S
O1 C4 1.250 1_455 S
O2 Mg3 2.028 . S
O2 C4 1.248 1_455 S
Mg3 O2 2.028 . S
Mg3 O8 2.032 . S
Mg3 O10 2.079 . S
C4 O1 1.250 1_655 S
C4 O2 1.248 1_655 S
C5 O6 1.264 1_565 S
C5 O13 1.249 1_565 S
O6 C5 1.264 1_545 S
O7 Mg0 1.986 . S
O7 C11 1.246 . S
O8 Mg3 2.032 . S
O8 C11 1.259 . S
O9 Mg0 2.114 . S
O9 C12 1.252 . S
O10 Mg0 2.251 . S
O10 Mg3 2.079 . S
O10 C12 1.273 . S
C11 O7 1.246 . S
C11 O8 1.259 . S
C12 O9 1.252 . S
C12 O10 1.273 . S
O13 Mg0 2.010 . S
O13 C5 1.249 1_545 S
Mg14 O15 2.028 1_665 S
Mg14 O21 1.986 1_665 S
Mg14 O23 2.114 . S
Mg14 O24 2.251 1_565 S
Mg14 O27 2.010 . S
O15 Mg14 2.028 1_445 S
O15 C18 1.250 . S
O16 Mg17 2.028 . S
O16 C18 1.248 . S
Mg17 O16 2.028 . S
Mg17 O22 2.032 . S
Mg17 O24 2.079 1_455 S
C18 O15 1.250 . S
C18 O16 1.248 . S
C19 O20 1.264 . S
C19 O27 1.249 . S
O20 C19 1.264 . S
O21 Mg14 1.986 1_445 S
O21 C25 1.246 . S
O22 Mg17 2.032 . S
O22 C25 1.259 . S
O23 Mg14 2.114 . S
O23 C26 1.252 . S
O24 Mg14 2.251 1_545 S
O24 Mg17 2.079 1_655 S
O24 C26 1.273 1_545 S
C25 O21 1.246 . S
C25 O22 1.259 . S
C26 O23 1.252 . S
C26 O24 1.273 1_565 S
O27 Mg14 2.010 . S
O27 C19 1.249 . S
Mg28 O29 2.028 . S
Mg28 O35 1.986 . S
Mg28 O37 2.114 . S
Mg28 O38 2.251 . S
Mg28 O41 2.010 . S
O29 Mg28 2.028 . S
O29 C32 1.250 . S
O30 Mg31 2.028 . S
O30 C32 1.248 . S
Mg31 O30 2.028 . S
Mg31 O36 2.032 . S
Mg31 O38 2.079 . S
C32 O29 1.250 . S
C32 O30 1.248 . S
C33 O34 1.264 1_545 S
C33 O41 1.249 . S
O34 C33 1.264 1_565 S
O35 Mg28 1.986 . S
O35 C39 1.246 . S
O36 Mg31 2.032 . S
O36 C39 1.259 . S
O37 Mg28 2.114 . S
O37 C40 1.252 . S
O38 Mg28 2.251 . S
O38 Mg31 2.079 . S
O38 C40 1.273 . S
C39 O35 1.246 . S
C39 O36 1.259 . S
C40 O37 1.252 . S
C40 O38 1.273 . S
O41 Mg28 2.010 . S
O41 C33 1.249 . S
H42 O68 0.856 . S
H43 O71 0.854 1_545 S
H44 C79 0.930 . S
H45 C80 0.930 . S
H46 C82 0.930 . S
H47 C83 0.930 . S
H48 C85 0.931 1_655 S
H49 C86 0.930 . S
H50 C88 0.930 . S
H51 C89 0.929 . S
H52 C91 0.930 1_655 S
H53 C92 0.931 1_655 S
H54 C94 0.930 . S
H55 C95 0.929 . S
H56 C97 0.938 . S
H57 C98 0.930 1_655 S
H58 C100 0.930 . S
H59 C101 0.932 . S
H60 C103 0.930 . S
H61 C104 0.929 . S
H62 C106 0.931 . S
H63 C107 0.930 . S
H64 C109 0.929 . S
H65 C110 0.931 . S
H66 C112 0.930 . S
H67 C113 0.929 . S
O68 H42 0.856 . S
O68 C114 1.300 . S
O69 C114 1.209 . S
O70 C115 1.199 . S
O71 H43 0.854 1_565 S
O71 C115 1.297 . S
C72 C73 1.404 . S
C72 C77 1.397 . S
C72 C78 1.492 . S
C73 C72 1.404 . S
C73 C74 1.396 . S
C73 C84 1.492 . S
C74 C73 1.396 . S
C74 C75 1.397 . S
C74 C90 1.509 . S
C75 C74 1.397 . S
C75 C76 1.412 . S
C75 C96 1.485 . S
C76 C75 1.412 . S
C76 C77 1.388 . S
C76 C102 1.490 . S
C77 C72 1.397 . S
C77 C76 1.388 . S
C77 C108 1.519 . S
C78 C72 1.492 . S
C78 C79 1.363 1_455 S
C78 C83 1.390 . S
C79 H44 0.930 . S
C79 C78 1.363 1_655 S
C79 C80 1.372 . S
C80 H45 0.930 . S
C80 C79 1.372 . S
C80 C81 1.383 1_655 S
C81 C80 1.383 1_455 S
C81 C82 1.395 . S
C82 H46 0.930 . S
C82 C81 1.395 . S
C82 C83 1.362 . S
C83 H47 0.930 . S
C83 C78 1.390 . S
C83 C82 1.362 . S
C84 C73 1.492 . S
C84 C85 1.377 . S
C84 C89 1.397 . S
C85 H48 0.931 1_455 S
C85 C84 1.377 . S
C85 C86 1.376 . S
C86 H49 0.930 . S
C86 C85 1.376 . S
C86 C87 1.376 . S
C87 C86 1.376 . S
C87 C88 1.378 . S
C87 C114 1.486 . S
C88 H50 0.930 . S
C88 C87 1.378 . S
C88 C89 1.376 . S
C89 H51 0.929 . S
C89 C84 1.397 . S
C89 C88 1.376 . S
C90 C74 1.509 . S
C90 C91 1.391 . S
C90 C95 1.386 . S
C91 H52 0.930 1_455 S
C91 C90 1.391 . S
C91 C92 1.375 . S
C92 H53 0.931 1_455 S
C92 C91 1.375 . S
C92 C93 1.375 . S
C93 C92 1.375 . S
C93 C94 1.361 . S
C94 H54 0.930 . S
C94 C93 1.361 . S
C94 C95 1.399 . S
C95 H55 0.929 . S
C95 C90 1.386 . S
C95 C94 1.399 . S
C96 C75 1.485 . S
C96 C97 1.380 1_455 S
C96 C101 1.360 . S
C97 H56 0.938 . S
C97 C96 1.380 1_655 S
C97 C98 1.379 1_655 S
C98 H57 0.930 1_455 S
C98 C97 1.379 1_455 S
C98 C99 1.397 . S
C99 C98 1.397 . S
C99 C100 1.390 . S
C99 C115 1.476 . S
C100 H58 0.930 . S
C100 C99 1.390 . S
C100 C101 1.366 . S
C101 H59 0.932 . S
C101 C96 1.360 . S
C101 C100 1.366 . S
C102 C76 1.490 . S
C102 C103 1.380 1_455 S
C102 C107 1.386 . S
C103 H60 0.930 . S
C103 C102 1.380 1_655 S
C103 C104 1.381 . S
C104 H61 0.929 . S
C104 C103 1.381 . S
C104 C105 1.371 1_655 S
C105 C104 1.371 1_455 S
C105 C106 1.380 . S
C106 H62 0.931 . S
C106 C105 1.380 . S
C106 C107 1.387 . S
C107 H63 0.930 . S
C107 C102 1.386 . S
C107 C106 1.387 . S
C108 C77 1.519 . S
C108 C109 1.377 1_455 S
C108 C113 1.361 . S
C109 H64 0.929 . S
C109 C108 1.377 1_655 S
C109 C110 1.386 . S
C110 H65 0.931 . S
C110 C109 1.386 . S
C110 C111 1.363 1_655 S
C111 C110 1.363 1_455 S
C111 C112 1.385 . S
C112 H66 0.930 . S
C112 C111 1.385 . S
C112 C113 1.396 . S
C113 H67 0.929 . S
C113 C108 1.361 . S
C113 C112 1.396 . S
C114 O68 1.300 . S
C114 O69 1.209 . S
C114 C87 1.486 . S
C115 O70 1.199 . S
C115 O71 1.297 . S
C115 C99 1.476 . S
H116 O142 0.856 . S
H117 O145 0.854 . S
H118 C153 0.930 1_565 S
H119 C154 0.930 1_565 S
H120 C156 0.930 . S
H121 C157 0.930 . S
H122 C159 0.931 . S
H123 C160 0.930 . S
H124 C162 0.930 . S
H125 C163 0.929 . S
H126 C165 0.930 . S
H127 C166 0.931 . S
H128 C168 0.930 . S
H129 C169 0.929 . S
H130 C171 0.931 . S
H131 C172 0.930 . S
H132 C174 0.930 . S
H133 C175 0.932 . S
H134 C177 0.930 . S
H135 C178 0.929 . S
H136 C180 0.931 . S
H137 C181 0.930 . S
H138 C183 0.929 . S
H139 C184 0.931 . S
H140 C186 0.930 . S
H141 C187 0.929 . S
O142 H116 0.856 . S
O142 C188 1.300 . S
O143 C188 1.209 . S
O144 C189 1.199 . S
O145 H117 0.854 . S
O145 C189 1.297 . S
C146 C147 1.404 . S
C146 C151 1.397 . S
C146 C152 1.492 . S
C147 C146 1.404 . S
C147 C148 1.396 . S
C147 C158 1.492 . S
C148 C147 1.396 . S
C148 C149 1.397 . S
C148 C164 1.509 . S
C149 C148 1.397 . S
C149 C150 1.412 . S
C149 C170 1.485 . S
C150 C149 1.412 . S
C150 C151 1.388 . S
C150 C176 1.490 . S
C151 C146 1.397 . S
C151 C150 1.388 . S
C151 C182 1.519 . S
C152 C146 1.492 . S
C152 C153 1.363 . S
C152 C157 1.390 . S
C153 H118 0.930 1_545 S
C153 C152 1.363 . S
C153 C154 1.372 . S
C154 H119 0.930 1_545 S
C154 C153 1.372 . S
C154 C155 1.383 . S
C155 C154 1.383 . S
C155 C156 1.395 . S
C156 H120 0.930 . S
C156 C155 1.395 . S
C156 C157 1.362 . S
C157 H121 0.930 . S
C157 C152 1.390 . S
C157 C156 1.362 . S
C158 C147 1.492 . S
C158 C159 1.377 . S
C158 C163 1.397 . S
C159 H122 0.931 . S
C159 C158 1.377 . S
C159 C160 1.376 . S
C160 H123 0.930 . S
C160 C159 1.376 . S
C160 C161 1.376 . S
C161 C160 1.376 . S
C161 C162 1.378 . S
C161 C188 1.486 . S
C162 H124 0.930 . S
C162 C161 1.378 . S
C162 C163 1.376 . S
C163 H125 0.929 . S
C163 C158 1.397 . S
C163 C162 1.376 . S
C164 C148 1.509 . S
C164 C165 1.391 . S
C164 C169 1.386 . S
C165 H126 0.930 . S
C165 C164 1.391 . S
C165 C166 1.375 . S
C166 H127 0.931 . S
C166 C165 1.375 . S
C166 C167 1.375 . S
C167 C166 1.375 . S
C167 C168 1.361 . S
C168 H128 0.930 . S
C168 C167 1.361 . S
C168 C169 1.399 . S
C169 H129 0.929 . S
C169 C164 1.386 . S
C169 C168 1.399 . S
C170 C149 1.485 . S
C170 C171 1.394 . S
C170 C175 1.360 . S
C171 H130 0.931 . S
C171 C170 1.394 . S
C171 C172 1.372 . S
C172 H131 0.930 . S
C172 C171 1.372 . S
C172 C173 1.397 . S
C173 C172 1.397 . S
C173 C174 1.390 . S
C173 C189 1.476 . S
C174 H132 0.930 . S
C174 C173 1.390 . S
C174 C175 1.366 . S
C175 H133 0.932 . S
C175 C170 1.360 . S
C175 C174 1.366 . S
C176 C150 1.490 . S
C176 C177 1.380 . S
C176 C181 1.386 . S
C177 H134 0.930 . S
C177 C176 1.380 . S
C177 C178 1.381 . S
C178 H135 0.929 . S
C178 C177 1.381 . S
C178 C179 1.371 . S
C179 C178 1.371 . S
C179 C180 1.380 . S
C180 H136 0.931 . S
C180 C179 1.380 . S
C180 C181 1.387 . S
C181 H137 0.930 . S
C181 C176 1.386 . S
C181 C180 1.387 . S
C182 C151 1.519 . S
C182 C183 1.377 . S
C182 C187 1.361 . S
C183 H138 0.929 . S
C183 C182 1.377 . S
C183 C184 1.386 . S
C184 H139 0.931 . S
C184 C183 1.386 . S
C184 C185 1.363 . S
C185 C184 1.363 . S
C185 C186 1.385 . S
C186 H140 0.930 . S
C186 C185 1.385 . S
C186 C187 1.396 . S
C187 H141 0.929 . S
C187 C182 1.361 . S
C187 C186 1.396 . S
C188 O142 1.300 . S
C188 O143 1.209 . S
C188 C161 1.486 . S
C189 O144 1.199 . S
C189 O145 1.297 . S
C189 C173 1.476 . S
H190 O216 0.856 . S
H191 O219 0.854 . S
H192 C227 0.930 . S
H193 C228 0.930 . S
H194 C230 0.930 . S
H195 C231 0.930 . S
H196 C233 0.931 1_556 S
H197 C234 0.930 . S
H198 C236 0.930 . S
H199 C237 0.929 . S
H200 C239 0.930 . S
H201 C240 0.931 . S
H202 C242 0.945 . S
H203 C243 0.929 . S
H204 C245 0.931 . S
H205 C246 0.930 . S
H206 C248 0.930 . S
H207 C249 0.932 . S
H208 C251 0.930 . S
H209 C252 0.929 . S
H210 C254 0.931 . S
H211 C255 0.930 . S
H212 C257 0.929 . S
H213 C258 0.931 . S
H214 C260 0.930 . S
H215 C261 0.929 . S
O216 H190 0.856 . S
O216 C262 1.300 . S
O217 C262 1.209 . S
O218 C263 1.199 . S
O219 H191 0.854 . S
O219 C263 1.297 . S
C220 C221 1.404 . S
C220 C225 1.397 . S
C220 C226 1.492 . S
C221 C220 1.404 . S
C221 C222 1.396 . S
C221 C232 1.492 . S
C222 C221 1.396 . S
C222 C223 1.397 . S
C222 C238 1.509 . S
C223 C222 1.397 . S
C223 C224 1.412 . S
C223 C244 1.485 . S
C224 C223 1.412 . S
C224 C225 1.388 . S
C224 C250 1.490 . S
C225 C220 1.397 . S
C225 C224 1.388 . S
C225 C256 1.519 . S
C226 C220 1.492 . S
C226 C227 1.363 . S
C226 C231 1.390 . S
C227 H192 0.930 . S
C227 C226 1.363 . S
C227 C228 1.372 . S
C228 H193 0.930 . S
C228 C227 1.372 . S
C228 C229 1.383 . S
C229 C228 1.383 . S
C229 C230 1.395 . S
C230 H194 0.930 . S
C230 C229 1.395 . S
C230 C231 1.362 . S
C231 H195 0.930 . S
C231 C226 1.390 . S
C231 C230 1.362 . S
C232 C221 1.492 . S
C232 C233 1.377 1_556 S
C232 C237 1.397 . S
C233 H196 0.931 1_554 S
C233 C232 1.377 1_554 S
C233 C234 1.376 . S
C234 H197 0.930 . S
C234 C233 1.376 . S
C234 C235 1.376 . S
C235 C234 1.376 . S
C235 C236 1.378 . S
C235 C262 1.486 . S
C236 H198 0.930 . S
C236 C235 1.378 . S
C236 C237 1.376 1_554 S
C237 H199 0.929 . S
C237 C232 1.397 . S
C237 C236 1.376 1_556 S
C238 C222 1.509 . S
C238 C239 1.391 . S
C238 C243 1.386 . S
C239 H200 0.930 . S
C239 C238 1.391 . S
C239 C240 1.375 . S
C240 H201 0.931 . S
C240 C239 1.375 . S
C240 C241 1.375 1_556 S
C241 C240 1.375 1_554 S
C241 C242 1.371 . S
C242 H202 0.945 . S
C242 C241 1.371 . S
C242 C243 1.376 1_554 S
C243 H203 0.929 . S
C243 C238 1.386 . S
C243 C242 1.376 1_556 S
C244 C223 1.485 . S
C244 C245 1.394 . S
C244 C249 1.360 . S
C245 H204 0.931 . S
C245 C244 1.394 . S
C245 C246 1.372 . S
C246 H205 0.930 . S
C246 C245 1.372 . S
C246 C247 1.397 . S
C247 C246 1.397 . S
C247 C248 1.390 . S
C247 C263 1.476 . S
C248 H206 0.930 . S
C248 C247 1.390 . S
C248 C249 1.366 . S
C249 H207 0.932 . S
C249 C244 1.360 . S
C249 C248 1.366 . S
C250 C224 1.490 . S
C250 C251 1.380 . S
C250 C255 1.386 . S
C251 H208 0.930 . S
C251 C250 1.380 . S
C251 C252 1.381 . S
C252 H209 0.929 . S
C252 C251 1.381 . S
C252 C253 1.371 . S
C253 C252 1.371 . S
C253 C254 1.380 . S
C254 H210 0.931 . S
C254 C253 1.380 . S
C254 C255 1.387 . S
C255 H211 0.930 . S
C255 C250 1.386 . S
C255 C254 1.387 . S
C256 C225 1.519 . S
C256 C257 1.377 . S
C256 C261 1.361 . S
C257 H212 0.929 . S
C257 C256 1.377 . S
C257 C258 1.386 . S
C258 H213 0.931 . S
C258 C257 1.386 . S
C258 C259 1.363 . S
C259 C258 1.363 . S
C259 C260 1.385 . S
C260 H214 0.930 . S
C260 C259 1.385 . S
C260 C261 1.396 . S
C261 H215 0.929 . S
C261 C256 1.361 . S
C261 C260 1.396 . S
C262 O216 1.300 . S
C262 O217 1.209 . S
C262 C235 1.486 . S
C263 O218 1.199 . S
C263 O219 1.297 . S
C263 C247 1.476 . S
C264 C265 1.369 . S
C264 C266 1.419 . S
C264 H268 0.930 . S
C265 C264 1.369 . S
C265 C274 1.429 1_455 S
C266 C264 1.419 . S
C266 C267 1.363 . S
C266 H269 0.929 . S
C267 C266 1.363 . S
C267 C273 1.428 1_455 S
H268 C264 0.930 . S
H269 C266 0.929 . S
S270 N271 1.613 . S
S270 N272 1.610 . S
N271 S270 1.613 . S
N271 C274 1.350 . S
N272 S270 1.610 . S
N272 C273 1.351 . S
C273 C267 1.428 1_655 S
C273 N272 1.351 . S
C273 C274 1.434 . S
C274 C265 1.429 1_655 S
C274 N271 1.350 . S
C274 C273 1.434 . S
C275 C276 1.369 . S
C275 C277 1.419 . S
C275 H279 0.930 1_545 S
C276 C275 1.369 . S
C276 C285 1.429 . S
C277 C275 1.419 . S
C277 C278 1.363 . S
C277 H280 0.929 . S
C278 C277 1.363 . S
C278 C284 1.428 . S
H279 C275 0.930 1_565 S
H280 C277 0.929 . S
S281 N282 1.613 . S
S281 N283 1.610 . S
N282 S281 1.613 . S
N282 C285 1.350 . S
N283 S281 1.610 . S
N283 C284 1.351 . S
C284 C278 1.428 . S
C284 N283 1.351 . S
C284 C285 1.434 . S
C285 C276 1.429 . S
C285 N282 1.350 . S
C285 C284 1.434 . S
C286 C287 1.369 . S
C286 C288 1.419 . S
C286 H290 0.930 . S
C287 C286 1.369 . S
C287 C296 1.429 . S
C288 C286 1.419 . S
C288 C289 1.363 . S
C288 H291 0.929 . S
C289 C288 1.363 . S
C289 C295 1.428 . S
H290 C286 0.930 . S
H291 C288 0.929 . S
S292 N293 1.613 1_655 S
S292 N294 1.610 . S
N293 S292 1.613 1_455 S
N293 C296 1.350 1_455 S
N294 S292 1.610 . S
N294 C295 1.351 . S
C295 C289 1.428 . S
C295 N294 1.351 . S
C295 C296 1.434 . S
C296 C287 1.429 . S
C296 N293 1.350 1_655 S
C296 C295 1.434 . S
C297 C298 1.369 . S
C297 C299 1.419 . S
C297 H301 0.930 . S
C298 C297 1.369 . S
C298 C307 1.429 . S
C299 C297 1.419 . S
C299 C300 1.363 . S
C299 H302 0.929 . S
C300 C299 1.363 . S
C300 C306 1.428 . S
H301 C297 0.930 . S
H302 C299 0.929 . S
S303 N304 1.613 . S
S303 N305 1.610 . S
N304 S303 1.613 . S
N304 C307 1.350 . S
N305 S303 1.610 . S
N305 C306 1.351 . S
C306 C300 1.428 . S
C306 N305 1.351 . S
C306 C307 1.434 . S
C307 C298 1.429 . S
C307 N304 1.350 . S
C307 C306 1.434 . S
C308 C309 1.369 . S
C308 C310 1.419 . S
C308 H312 0.930 . S
C309 C308 1.369 . S
C309 C318 1.429 . S
C310 C308 1.419 . S
C310 C311 1.363 . S
C310 H313 0.929 . S
C311 C310 1.363 . S
C311 C317 1.428 . S
H312 C308 0.930 . S
H313 C310 0.929 . S
S314 N315 1.613 . S
S314 N316 1.610 . S
N315 S314 1.613 . S
N315 C318 1.350 . S
N316 S314 1.610 . S
N316 C317 1.351 . S
C317 C311 1.428 . S
C317 N316 1.351 . S
C317 C318 1.434 . S
C318 C309 1.429 . S
C318 N315 1.350 . S
C318 C317 1.434 . S
C319 C320 1.369 . S
C319 C321 1.419 . S
C319 H323 0.930 . S
C320 C319 1.369 . S
C320 C329 1.429 . S
C321 C319 1.419 . S
C321 C322 1.363 . S
C321 H324 0.929 . S
C322 C321 1.363 . S
C322 C328 1.428 . S
H323 C319 0.930 . S
H324 C321 0.929 . S
S325 N326 1.613 . S
S325 N327 1.610 . S
N326 S325 1.613 . S
N326 C329 1.350 . S
N327 S325 1.610 . S
N327 C328 1.351 . S
C328 C322 1.428 . S
C328 N327 1.351 . S
C328 C329 1.434 . S
C329 C320 1.429 . S
C329 N326 1.350 . S
C329 C328 1.434 . S
C330 C331 1.369 . S
C330 C332 1.419 . S
C330 H334 0.930 . S
C331 C330 1.369 . S
C331 C340 1.429 . S
C332 C330 1.419 . S
C332 C333 1.363 . S
C332 H335 0.929 . S
C333 C332 1.363 . S
C333 C339 1.428 . S
H334 C330 0.930 . S
H335 C332 0.929 . S
S336 N337 1.613 . S
S336 N338 1.610 . S
N337 S336 1.613 . S
N337 C340 1.350 . S
N338 S336 1.610 . S
N338 C339 1.351 . S
C339 C333 1.428 . S
C339 N338 1.351 . S
C339 C340 1.434 . S
C340 C331 1.429 . S
C340 N337 1.350 . S
C340 C339 1.434 . S
C341 C342 1.369 1_545 S
C341 C343 1.419 1_544 S
C341 H345 0.930 1_655 S
C342 C341 1.369 1_565 S
C342 C351 1.429 . S
C343 C341 1.419 1_566 S
C343 C344 1.363 . S
C343 H346 0.929 1_565 S
C344 C343 1.363 . S
C344 C350 1.428 1_556 S
H345 C341 0.930 1_455 S
H346 C343 0.929 1_545 S
S347 N348 1.613 . S
S347 N349 1.610 . S
N348 S347 1.613 . S
N348 C351 1.350 . S
N349 S347 1.610 . S
N349 C350 1.351 . S
C350 C344 1.428 1_554 S
C350 N349 1.351 . S
C350 C351 1.434 . S
C351 C342 1.429 . S
C351 N348 1.350 . S
C351 C350 1.434 . S
C352 C353 1.369 1_455 S
C352 C354 1.419 . S
C352 H356 0.930 . S
C353 C352 1.369 1_655 S
C353 C362 1.429 . S
C354 C352 1.419 . S
C354 C355 1.363 1_455 S
C354 H357 0.929 . S
C355 C354 1.363 1_655 S
C355 C361 1.428 . S
H356 C352 0.930 . S
H357 C354 0.929 . S
S358 N359 1.613 . S
S358 N360 1.610 . S
N359 S358 1.613 . S
N359 C362 1.350 . S
N360 S358 1.610 . S
N360 C361 1.351 . S
C361 C355 1.428 . S
C361 N360 1.351 . S
C361 C362 1.434 . S
C362 C353 1.429 . S
C362 N359 1.350 . S
C362 C361 1.434 . S
C363 C364 1.369 . S
C363 C365 1.419 . S
C363 H367 0.930 . S
C364 C363 1.369 . S
C364 C373 1.429 . S
C365 C363 1.419 . S
C365 C366 1.363 . S
C365 H368 0.929 . S
C366 C365 1.363 . S
C366 C372 1.428 . S
H367 C363 0.930 . S
H368 C365 0.929 . S
S369 N370 1.613 . S
S369 N371 1.610 . S
N370 S369 1.613 . S
N370 C373 1.350 . S
N371 S369 1.610 . S
N371 C372 1.351 . S
C372 C366 1.428 . S
C372 N371 1.351 . S
C372 C373 1.434 . S
C373 C364 1.429 . S
C373 N370 1.350 . S
C373 C372 1.434 . S
C374 C375 1.369 . S
C374 C376 1.419 . S
C374 H378 0.930 . S
C375 C374 1.369 . S
C375 C384 1.429 . S
C376 C374 1.419 . S
C376 C377 1.363 . S
C376 H379 0.929 . S
C377 C376 1.363 . S
C377 C383 1.428 . S
H378 C374 0.930 . S
H379 C376 0.929 . S
S380 N381 1.613 1_556 S
S380 N382 1.610 . S
N381 S380 1.613 1_554 S
N381 C384 1.350 . S
N382 S380 1.610 . S
N382 C383 1.351 1_556 S
C383 C377 1.428 . S
C383 N382 1.351 1_554 S
C383 C384 1.434 . S
C384 C375 1.429 . S
C384 N381 1.350 . S
C384 C383 1.434 . S
C385 C386 1.369 . S
C385 C387 1.419 . S
C385 H389 0.930 . S
C386 C385 1.369 . S
C386 C395 1.429 . S
C387 C385 1.419 . S
C387 C388 1.363 . S
C387 H390 0.929 . S
C388 C387 1.363 . S
C388 C394 1.428 . S
H389 C385 0.930 . S
H390 C387 0.929 . S
S391 N392 1.613 . S
S391 N393 1.610 . S
N392 S391 1.613 . S
N392 C395 1.350 . S
N393 S391 1.610 . S
N393 C394 1.351 . S
C394 C388 1.428 . S
C394 N393 1.351 . S
C394 C395 1.434 . S
C395 C386 1.429 . S
C395 N392 1.350 . S
C395 C394 1.434 . S
C267 C81 1.413 . S
C265 C11 1.563 . S
C276 C26 1.584 1_545 S
C278 C155 1.504 . S
C287 C40 1.976 1_665 S
C289 C259 1.987 . S
C298 C5 0.790 . S
C300 C93 0.845 . S
C311 C167 1.026 . S
C309 C18 1.015 . S
C320 C32 1.690 . S
C322 C253 1.491 . S
C333 C185 1.918 . S
C331 C39 1.920 1_655 S
C342 C4 1.482 1_565 S
C344 C229 1.426 . S
C355 C105 1.495 1_655 S
C353 C19 1.527 . S
C366 C179 1.374 . S
C364 C33 1.400 . S
C377 C241 0.890 . S
C375 C12 0.891 . S
C386 C25 2.027 . S
C388 C111 2.046 . S
