# Generated by pormake.
# Topology zzz, (3,6)-cn, num edge types: 1
# Building blocks:
#     Node 0, Type 0, BuildingBlock: PAMTOO_clean_linker_0, # of connection points: 3
#     Node 1, Type 0, BuildingBlock: PAMTOO_clean_linker_0, # of connection points: 3
#     Node 2, Type 0, BuildingBlock: PAMTOO_clean_linker_0, # of connection points: 3
#     Node 3, Type 0, BuildingBlock: PAMTOO_clean_linker_0, # of connection points: 3
#     Node 4, Type 0, BuildingBlock: PAMTOO_clean_linker_0, # of connection points: 3
#     Node 5, Type 0, BuildingBlock: PAMTOO_clean_linker_0, # of connection points: 3
#     Node 6, Type 0, BuildingBlock: PAMTOO_clean_linker_0, # of connection points: 3
#     Node 7, Type 0, BuildingBlock: PAMTOO_clean_linker_0, # of connection points: 3
#     Node 8, Type 1, BuildingBlock: BETDEL_clean_sbu_0, # of connection points: 6
#     Node 9, Type 1, BuildingBlock: BETDEL_clean_sbu_0, # of connection points: 6
#     Node 10, Type 1, BuildingBlock: BETDEL_clean_sbu_0, # of connection points: 6
#     Node 11, Type 1, BuildingBlock: BETDEL_clean_sbu_0, # of connection points: 6
#     Edge 12, Type (0, 1), BuildingBlock: XIVTED_clean_linker_0, # of connection points: 2
#     Edge 13, Type (0, 1), BuildingBlock: XIVTED_clean_linker_0, # of connection points: 2
#     Edge 14, Type (0, 1), BuildingBlock: XIVTED_clean_linker_0, # of connection points: 2
#     Edge 15, Type (0, 1), BuildingBlock: XIVTED_clean_linker_0, # of connection points: 2
#     Edge 16, Type (0, 1), BuildingBlock: XIVTED_clean_linker_0, # of connection points: 2
#     Edge 17, Type (0, 1), BuildingBlock: XIVTED_clean_linker_0, # of connection points: 2
#     Edge 18, Type (0, 1), BuildingBlock: XIVTED_clean_linker_0, # of connection points: 2
#     Edge 19, Type (0, 1), BuildingBlock: XIVTED_clean_linker_0, # of connection points: 2
#     Edge 20, Type (0, 1), BuildingBlock: XIVTED_clean_linker_0, # of connection points: 2
#     Edge 21, Type (0, 1), BuildingBlock: XIVTED_clean_linker_0, # of connection points: 2
#     Edge 22, Type (0, 1), BuildingBlock: XIVTED_clean_linker_0, # of connection points: 2
#     Edge 23, Type (0, 1), BuildingBlock: XIVTED_clean_linker_0, # of connection points: 2
#     Edge 24, Type (0, 1), BuildingBlock: XIVTED_clean_linker_0, # of connection points: 2
#     Edge 25, Type (0, 1), BuildingBlock: XIVTED_clean_linker_0, # of connection points: 2
#     Edge 26, Type (0, 1), BuildingBlock: XIVTED_clean_linker_0, # of connection points: 2
#     Edge 27, Type (0, 1), BuildingBlock: XIVTED_clean_linker_0, # of connection points: 2
#     Edge 28, Type (0, 1), BuildingBlock: XIVTED_clean_linker_0, # of connection points: 2
#     Edge 29, Type (0, 1), BuildingBlock: XIVTED_clean_linker_0, # of connection points: 2
#     Edge 30, Type (0, 1), BuildingBlock: XIVTED_clean_linker_0, # of connection points: 2
#     Edge 31, Type (0, 1), BuildingBlock: XIVTED_clean_linker_0, # of connection points: 2
#     Edge 32, Type (0, 1), BuildingBlock: XIVTED_clean_linker_0, # of connection points: 2
#     Edge 33, Type (0, 1), BuildingBlock: XIVTED_clean_linker_0, # of connection points: 2
#     Edge 34, Type (0, 1), BuildingBlock: XIVTED_clean_linker_0, # of connection points: 2
#     Edge 35, Type (0, 1), BuildingBlock: XIVTED_clean_linker_0, # of connection points: 2
# Relax obj value: 0.155
# Max RMSD: 0.176
# Mean RMSD: 0.114
data_MOF--net-zzz--node1-BETDEL_clean_sbu_0--node2-PAMTOO_clean_linker_0--edge1-XIVTED_clean_linker_0
_symmetry_space_group_name_H-M    P1
_symmetry_Int_Tables_number       1
_symmetry_cell_setting            triclinic
loop_
_symmetry_equiv_pos_as_xyz
'x, y, z'
_cell_length_a     49.128951
_cell_length_b     50.189008
_cell_length_c     15.001903
_cell_angle_alpha  91.126274
_cell_angle_beta   88.507126
_cell_angle_gamma 94.762439
loop_
_atom_site_label
_atom_site_type_symbol
_atom_site_fract_x
_atom_site_fract_y
_atom_site_fract_z
_atom_type_partial_charge
H0 H 0.81593 0.49129 0.14895 0.0
H1 H 0.74843 0.50055 0.97939 0.0
H2 H 0.75298 0.54117 0.23482 0.0
H3 H 0.68942 0.52608 0.17274 0.0
C4 C 0.69757 0.51803 0.1088 0.0
O5 O 0.72301 0.53115 0.09128 0.0
H6 H 0.69909 0.49618 0.11661 0.0
C7 C 0.796 0.49851 0.13905 0.0
C8 C 0.78589 0.51625 0.20201 0.0
C9 C 0.78302 0.49309 0.05813 0.0
C10 C 0.75823 0.50397 0.04291 0.0
C11 C 0.74669 0.52035 0.10817 0.0
C12 C 0.76087 0.52705 0.18725 0.0
H13 H 0.02956 0.82069 0.14342 0.0
H14 H 0.02424 0.75099 0.97232 0.0
H15 H 0.98456 0.7487 0.23203 0.0
H16 H 1.00197 0.69021 0.1724 0.0
C17 C 1.01078 0.69883 0.10926 0.0
O18 O 0.99623 0.72015 0.08728 0.0
H19 H 0.03259 0.70552 0.12127 0.0
C20 C 0.02363 0.79953 0.13325 0.0
C21 C 1.00682 0.78625 0.19736 0.0
C22 C 0.02966 0.7873 0.05152 0.0
C23 C 0.02048 0.76041 0.0365 0.0
C24 C 1.00531 0.74602 0.10323 0.0
C25 C 0.99784 0.75919 0.18319 0.0
H26 H 0.69788 0.04271 0.06897 0.0
H27 H 0.77402 0.02831 0.93819 0.0
H28 H 0.75494 0.99691 0.19976 0.0
H29 H 0.82181 1.00781 0.15674 0.0
C30 C 0.81645 0.01422 0.08936 0.0
O31 O 0.79182 1.00058 0.06673 0.0
H32 H 0.81467 0.0362 0.09276 0.0
C33 C 0.71782 0.03498 0.07121 0.0
C34 C 0.72428 0.02023 0.1451 0.0
C35 C 0.73549 0.03814 -0.00326 0.0
C36 C 0.76039 0.02643 -0.00395 0.0
C37 C 0.76773 1.01204 0.06975 0.0
C38 C 0.74953 1.00864 0.14405 0.0
H39 H 0.49057 0.70469 0.12253 0.0
H40 H 0.50621 0.77853 0.9842 0.0
H41 H 0.534 0.77187 0.25239 0.0
H42 H 0.5242 0.83562 0.20172 0.0
C43 C 0.51563 0.82598 0.14009 0.0
O44 O 0.53045 0.80452 0.11681 0.0
H45 H 0.49387 0.81934 0.15632 0.0
C46 C 0.49778 0.72574 0.12367 0.0
C47 C 0.51177 0.73641 0.19793 0.0
C48 C 0.49582 0.74052 0.04647 0.0
C49 C 0.5069 0.76712 0.04456 0.0
C50 C 0.51976 0.77878 0.11996 0.0
C51 C 0.52282 0.76324 0.19609 0.0
H52 H 0.2116 0.53755 0.97914 0.0
H53 H 0.27959 0.53021 0.14869 0.0
H54 H 0.27569 0.48907 0.89418 0.0
H55 H 0.32901 0.53537 0.01351 0.0
C56 C 0.33082 0.5135 0.01926 0.0
O57 O 0.3056 0.5 0.03714 0.0
H58 H 0.33877 0.50599 0.95425 0.0
C59 C 0.23178 0.53095 0.98923 0.0
C60 C 0.24225 0.51332 0.92668 0.0
C61 C 0.2446 0.53672 0.0703 0.0
C62 C 0.2698 0.52654 0.08524 0.0
C63 C 0.28169 0.51034 0.02013 0.0
C64 C 0.26755 0.50315 0.94138 0.0
H65 H 0.02741 0.20067 0.05345 0.0
H66 H 1.0134 0.27618 0.17814 0.0
H67 H 0.04426 0.27301 0.9061 0.0
H68 H 0.06007 0.33152 -0.00487 0.0
C69 C 0.05227 0.32179 0.05772 0.0
O70 O 0.0294 0.30487 0.03863 0.0
H71 H 0.06911 0.31049 0.08226 0.0
C72 C 0.02804 0.22232 0.04999 0.0
C73 C 0.03735 0.23493 0.97166 0.0
C74 C 0.01932 0.23684 0.12403 0.0
C75 C 0.01992 0.26474 0.12061 0.0
C76 C 0.02902 0.27788 0.04196 0.0
C77 C 0.0374 0.26291 0.96677 0.0
H78 H 0.33027 0.98933 0.02488 0.0
H79 H 0.25014 0.98587 0.14795 0.0
H80 H 0.26848 0.03422 0.91606 0.0
H81 H 0.21661 0.05471 0.03225 0.0
C82 C 0.22178 0.03963 0.08095 0.0
O83 O 0.22986 0.01741 0.03429 0.0
H84 H 0.23875 0.04924 0.12132 0.0
C85 C 0.30933 0.99478 0.0254 0.0
C86 C 0.30171 0.01272 0.9623 0.0
C87 C 0.29102 0.98505 0.0924 0.0
C88 C 0.26433 0.99301 0.09557 0.0
C89 C 0.25596 1.01039 0.0313 0.0
C90 C 0.27472 0.02031 0.96436 0.0
H91 H 0.52405 0.32479 0.01825 0.0
H92 H 0.52088 0.248 0.13937 0.0
H93 H 0.4992 0.25426 0.86365 0.0
H94 H 0.46991 0.20038 0.96361 0.0
C95 C 0.48191 0.20656 0.02344 0.0
O96 O 0.50589 0.22072 -0.0047 0.0
H97 H 0.46924 0.21927 0.06657 0.0
C98 C 0.52053 0.30317 0.01224 0.0
C99 C 0.51176 0.29162 0.93148 0.0
C100 C 0.52382 0.28774 0.0868 0.0
C101 C 0.51856 0.25999 0.08127 0.0
C102 C 0.50987 0.24776 0.00061 0.0
C103 C 0.50604 0.26364 0.92566 0.0
Dy104 Dy 0.02892 0.99815 0.66427 0.0
C105 C 0.99632 0.06092 0.37326 0.0
C106 C 0.02787 0.96279 0.79922 0.0
Dy107 Dy 1.00449 0.02378 0.49798 0.0
O108 O 0.04868 0.97959 0.77888 0.0
O109 O 1.00726 0.96715 0.75059 0.0
O110 O 0.07212 0.99523 0.61173 0.0
O111 O 0.04314 1.01005 0.53272 0.0
C112 C 0.06771 1.00453 0.53364 0.0
C113 C 0.96837 1.00686 0.62637 0.0
O114 O 1.00495 0.9821 0.44229 0.0
O115 O 1.0119 0.96349 0.58009 0.0
O116 O 0.97863 0.05257 0.43427 0.0
O117 O 0.01772 0.0474 0.37652 0.0
O118 O 0.96312 1.0059 0.54167 0.0
O119 O 0.9921 0.01806 0.63803 0.0
O120 O 0.0335 0.04061 0.71363 0.0
O121 O 0.02301 0.05888 0.57794 0.0
C122 C 1.00632 0.9611 0.49415 0.0
C123 C 0.03143 0.06143 0.66139 0.0
Dy124 Dy 0.48969 0.99337 0.49942 0.0
C125 C 0.58493 0.05156 0.63519 0.0
C126 C 0.44179 0.96631 0.44967 0.0
Dy127 Dy 0.53472 0.02705 0.59882 0.0
O128 O 0.46485 0.96625 0.40525 0.0
O129 O 0.44508 0.98083 0.5216 0.0
O130 O 0.51965 0.98906 0.38462 0.0
O131 O 0.53336 0.99124 0.51587 0.0
C132 C 0.54084 0.99016 0.43506 0.0
C133 C 0.48408 0.03109 0.66584 0.0
O134 O 0.52846 0.05312 0.48103 0.0
O135 O 0.48757 0.03233 0.43033 0.0
O136 O 0.56262 0.05517 0.68094 0.0
O137 O 0.57963 0.03481 0.5699 0.0
O138 O 0.50587 0.03394 0.71395 0.0
O139 O 0.49078 0.02906 0.58423 0.0
O140 O 0.49522 0.96747 0.61803 0.0
O141 O 0.53502 0.98902 0.67472 0.0
C142 C 0.50726 0.05211 0.42733 0.0
C143 C 0.51552 0.96903 0.67536 0.0
Dy144 Dy 0.50047 0.52843 0.64341 0.0
C145 C 0.53246 0.4617 0.36238 0.0
C146 C 0.49338 0.5672 0.76942 0.0
Dy147 Dy 0.52599 0.50044 0.48904 0.0
O148 O 0.47367 0.55308 0.73007 0.0
O149 O 0.51661 0.55863 0.74447 0.0
O150 O 0.45862 0.51345 0.59849 0.0
O151 O 0.48993 0.52258 0.50334 0.0
C152 C 0.46549 0.51308 0.51423 0.0
C153 C 0.5609 0.51594 0.61851 0.0
O154 O 0.52861 0.54096 0.42782 0.0
O155 O 0.52215 0.56207 0.56431 0.0
O156 O 0.55222 0.47418 0.40642 0.0
O157 O 0.5097 0.47191 0.38316 0.0
O158 O 0.56785 0.51556 0.53425 0.0
O159 O 0.53651 0.50631 0.62902 0.0
O160 O 0.49871 0.48791 0.70468 0.0
O161 O 0.50386 0.4669 0.5675 0.0
C162 C 0.52883 0.563 0.47823 0.0
C163 C 0.49788 0.4659 0.65401 0.0
Dy164 Dy 0.99895 0.49689 0.64857 0.0
C165 C 0.06485 0.52749 0.34259 0.0
C166 C 0.96073 0.48362 0.77826 0.0
Dy167 Dy 0.0281 0.52469 0.4809 0.0
O168 O 0.96735 0.46807 0.71257 0.0
O169 O 0.97622 0.50591 0.77574 0.0
O170 O 0.01565 0.45858 0.60469 0.0
O171 O 1.00587 0.48605 0.50824 0.0
C172 C 0.01615 0.4641 0.52024 0.0
C173 C 0.02251 0.56102 0.61381 0.0
O174 O 0.98517 0.52523 0.43515 0.0
O175 O 0.96468 0.51199 0.57142 0.0
O176 O 0.04969 0.54664 0.36652 0.0
O177 O 0.05816 0.50648 0.38993 0.0
O178 O 0.03303 0.5671 0.53567 0.0
O179 O 0.01558 0.53628 0.61328 0.0
O180 O 0.04137 0.50139 0.70094 0.0
O181 O 0.0621 0.51153 0.56277 0.0
C182 C 0.96329 0.52073 0.4886 0.0
C183 C 0.06342 0.50537 0.64809 0.0
H184 H 0.16715 0.04621 0.05627 0.0
H185 H 0.12049 0.99371 0.54298 0.0
H186 H 0.22126 0.01623 0.24479 0.0
H187 H 0.06425 0.02451 0.363 0.0
H188 H 0.15685 1.00041 0.43061 0.0
H189 H 0.12867 0.03684 0.16235 0.0
C190 C 0.17086 0.03747 0.11982 0.0
C191 C 0.19745 0.03216 0.14223 0.0
C192 C 0.13662 1.00576 0.41515 0.0
C193 C 0.15359 0.02139 0.26385 0.0
C194 C 0.11575 1.00195 0.47954 0.0
C195 C 0.08924 1.00874 0.46273 0.0
C196 C 0.13118 0.01651 0.33243 0.0
C197 C 0.08441 0.01921 0.37902 0.0
C198 C 0.14892 0.03219 0.18038 0.0
C199 C 0.20112 0.02071 0.22508 0.0
N200 N 0.1052 0.02285 0.31695 0.0
N201 N 0.17953 0.01586 0.28285 0.0
H202 H 0.45207 0.15804 0.03014 0.0
H203 H 0.54178 0.0977 0.40557 0.0
H204 H 0.52367 0.20037 0.14091 0.0
H205 H 0.46739 0.05749 0.30528 0.0
H206 H 0.53689 0.13443 0.30395 0.0
H207 H 0.45879 0.11998 0.1246 0.0
C208 C 0.46943 0.15917 0.07351 0.0
C209 C 0.48762 0.18224 0.07616 0.0
C210 C 0.52165 0.11755 0.30408 0.0
C211 C 0.49519 0.13892 0.18628 0.0
C212 C 0.52443 0.09651 0.3622 0.0
C213 C 0.50491 0.0744 0.36457 0.0
C214 C 0.49922 0.11656 0.24748 0.0
C215 C 0.48292 0.07409 0.30632 0.0
C216 C 0.47319 0.13749 0.12781 0.0
C217 C 0.50937 0.18289 0.13544 0.0
N218 N 0.48067 0.09481 0.25044 0.0
N219 N 0.51256 0.16157 0.1879 0.0
H220 H 0.38616 0.51072 0.00331 0.0
H221 H 0.41009 0.50218 0.52897 0.0
H222 H 0.32101 0.50923 0.20162 0.0
H223 H 0.47549 0.51668 0.33421 0.0
H224 H 0.37713 0.49984 0.40874 0.0
H225 H 0.4191 0.50826 0.1222 0.0
C226 C 0.37877 0.50945 0.07187 0.0
C227 C 0.35073 0.50955 0.09233 0.0
C228 C 0.39869 0.50343 0.39218 0.0
C229 C 0.38836 0.50725 0.2292 0.0
C230 C 0.41753 0.50469 0.46079 0.0
C231 C 0.44556 0.50976 0.44157 0.0
C232 C 0.40794 0.50713 0.30347 0.0
C233 C 0.45405 0.51281 0.35201 0.0
C234 C 0.39757 0.5082 0.13976 0.0
C235 C 0.34234 0.50864 0.18255 0.0
N236 N 0.43533 0.51152 0.28637 0.0
N237 N 0.36103 0.50745 0.24751 0.0
H238 H 0.05158 0.31808 0.23983 0.0
H239 H 1.0117 0.46824 0.33832 0.0
H240 H 0.03699 0.37265 0.03159 0.0
H241 H 0.03381 0.41474 0.54084 0.0
H242 H 0.01956 0.43361 0.22445 0.0
H243 H 0.04291 0.35293 0.3513 0.0
C244 C 0.04648 0.33745 0.21783 0.0
C245 C 0.0454 0.34269 0.12666 0.0
C246 C 0.02274 0.42949 0.29382 0.0
C247 C 0.03534 0.38274 0.25347 0.0
C248 C 0.01833 0.44928 0.35871 0.0
C249 C 0.02209 0.44434 0.44914 0.0
C250 C 0.03083 0.40458 0.31973 0.0
C251 C 0.03062 0.4194 0.47194 0.0
C252 C 0.0416 0.35737 0.28128 0.0
C253 C 0.03833 0.36797 0.10139 0.0
N254 N 0.0346 0.40049 0.40789 0.0
N255 N 0.0337 0.38711 0.16439 0.0
H256 H 0.87135 0.01713 0.1178 0.0
H257 H 0.91454 0.9904 0.60603 0.0
H258 H 0.81363 1.00109 0.90805 0.0
H259 H 0.97244 0.01662 0.80709 0.0
H260 H 0.8778 0.9895 0.7193 0.0
H261 H 0.90886 0.0127 0.00879 0.0
C262 C 0.86657 0.01227 0.04899 0.0
C263 C 0.83925 1.00893 0.02263 0.0
C264 C 0.89853 0.99533 0.73897 0.0
C265 C 0.88216 1.0043 0.89673 0.0
C266 C 0.91957 0.99576 0.67429 0.0
C267 C 0.94661 1.00376 0.69696 0.0
C268 C 0.90446 1.00289 0.82749 0.0
C269 C 0.95188 1.01041 0.78659 0.0
C270 C 0.88799 1.00988 0.9867 0.0
C271 C 0.83428 1.00336 0.93203 0.0
N272 N 0.931 1.00995 0.84846 0.0
N273 N 0.85547 1.00117 0.87262 0.0
H274 H 0.48247 0.8266 -0.00449 0.0
H275 H 0.55284 0.96513 0.80703 0.0
H276 H 0.55183 0.87026 0.11499 0.0
H277 H 0.48098 0.92335 0.69474 0.0
H278 H 0.55408 0.92964 0.91576 0.0
H279 H 0.48311 0.86052 0.87957 0.0
C280 C 0.49787 0.84334 -0.00302 0.0
C281 C 0.51685 0.84592 0.0655 0.0
C282 C 0.53806 0.92819 0.86723 0.0
C283 C 0.51785 0.88479 0.93316 0.0
C284 C 0.53733 0.9485 0.80491 0.0
C285 C 0.51674 0.94736 0.7413 0.0
C286 C 0.51809 0.90645 0.86626 0.0
C287 C 0.49723 0.92521 0.74236 0.0
C288 C 0.49823 0.86272 0.931 0.0
C289 C 0.53663 0.86775 0.06385 0.0
N290 N 0.49838 0.90571 0.80372 0.0
N291 N 0.53653 0.88641 -0.00082 0.0
H292 H 0.70827 0.52236 0.92661 0.0
H293 H 0.55036 0.5132 0.7982 0.0
H294 H 0.6421 0.51988 0.12143 0.0
H295 H 0.61647 0.52627 0.6052 0.0
H296 H 0.58361 0.51612 0.91755 0.0
H297 H 0.67518 0.52418 0.80804 0.0
C298 C 0.68682 0.52261 0.94458 0.0
C299 C 0.67799 0.52162 0.03437 0.0
C300 C 0.59088 0.5185 0.84918 0.0
C301 C 0.63983 0.52298 0.89855 0.0
C302 C 0.57188 0.51685 0.78102 0.0
C303 C 0.58068 0.51941 0.69163 0.0
C304 C 0.61896 0.52257 0.82792 0.0
C305 C 0.60881 0.52413 0.67322 0.0
C306 C 0.66789 0.52356 0.87676 0.0
C307 C 0.64982 0.5212 0.05327 0.0
N308 N 0.62694 0.52539 0.74063 0.0
N309 N 0.63178 0.52185 0.98614 0.0
H310 H 0.98949 0.64608 0.11342 0.0
H311 H 0.03439 0.61451 0.60699 0.0
H312 H 0.03063 0.70403 0.93746 0.0
H313 H 1.00287 0.55284 0.78683 0.0
H314 H 0.02991 0.6478 0.72553 0.0
H315 H 0.99089 0.61206 -0.00633 0.0
C316 C 0.9986 0.65168 0.04925 0.0
C317 C 1.0098 0.67797 0.03496 0.0
C318 C 0.02386 0.62703 0.73946 0.0
C319 C 1.01161 0.63917 0.89797 0.0
C320 C 0.02639 0.60795 0.67161 0.0
C321 C 0.01889 0.58081 0.68693 0.0
C322 C 1.01372 0.61907 0.824 0.0
C323 C 1.00868 0.57355 0.77204 0.0
C324 C 0.99947 0.63225 0.98109 0.0
C325 C 0.02154 0.6841 0.95092 0.0
N326 N 1.0064 0.59257 0.83755 0.0
N327 N 0.02213 0.66489 0.8858 0.0
H328 H 0.96822 0.21509 0.16487 0.0
H329 H 0.04013 0.09026 0.30186 0.0
H330 H 0.05134 0.22036 0.25167 0.0
H331 H 0.9541 0.09298 0.36331 0.0
H332 H 0.04311 0.13785 0.26884 0.0
H333 H 0.96009 0.17151 0.23643 0.0
C334 C 0.98426 0.20777 0.20366 0.0
C335 C 1.01046 0.22123 0.2029 0.0
C336 C 0.02356 0.12802 0.28939 0.0
C337 C 1.00189 0.17106 0.2793 0.0
C338 C 0.02173 0.10077 0.30654 0.0
C339 C 0.9968 0.0877 0.33476 0.0
C340 C 1.00019 0.14224 0.29904 0.0
C341 C 0.97367 0.10238 0.34105 0.0
C342 C 0.97979 0.1827 0.24282 0.0
C343 C 0.03082 0.21061 0.25161 0.0
N344 N 0.97587 0.12895 0.32288 0.0
N345 N 0.02639 0.18572 0.28552 0.0
H346 H 0.31331 0.93723 0.07599 0.0
H347 H 0.43155 0.93733 0.29703 0.0
H348 H 0.29484 0.99833 0.26847 0.0
H349 H 0.39134 0.97411 0.52071 0.0
H350 H 0.38807 0.93063 0.22298 0.0
H351 H 0.34536 0.92067 0.17925 0.0
C352 C 0.31551 0.94663 0.14133 0.0
C353 C 0.30184 0.96937 0.16362 0.0
C354 C 0.38828 0.93924 0.28959 0.0
C355 C 0.33981 0.9519 0.27944 0.0
C356 C 0.41331 0.94324 0.33164 0.0
C357 C 0.41502 0.95659 0.41433 0.0
C358 C 0.3648 0.9489 0.33045 0.0
C359 C 0.39086 0.96391 0.45642 0.0
C360 C 0.33423 0.93756 0.19963 0.0
C361 C 0.30517 0.98082 0.24888 0.0
N362 N 0.36683 0.96051 0.41311 0.0
N363 N 0.32435 0.97236 0.30302 0.0
H364 H 0.57297 0.31113 0.13673 0.0
H365 H 0.48962 0.4283 0.30893 0.0
H366 H 0.48813 0.30024 0.21741 0.0
H367 H 0.57715 0.43298 0.3353 0.0
H368 H 0.48981 0.3808 0.27318 0.0
H369 H 0.5771 0.35371 0.21957 0.0
C370 C 0.55564 0.317 0.17642 0.0
C371 C 0.53015 0.30238 0.17031 0.0
C372 C 0.50901 0.39215 0.28692 0.0
C373 C 0.53422 0.35144 0.26016 0.0
C374 C 0.50897 0.41938 0.30571 0.0
C375 C 0.53344 0.43458 0.32429 0.0
C376 C 0.53376 0.38002 0.28539 0.0
C377 C 0.55788 0.42194 0.32037 0.0
C378 C 0.55784 0.34154 0.22215 0.0
C379 C 0.50812 0.311 0.22097 0.0
N380 N 0.55746 0.39532 0.30081 0.0
N381 N 0.51042 0.33545 0.2616 0.0
H382 H 0.2164 0.58169 0.07672 0.0
H383 H 0.10144 0.49072 0.31481 0.0
H384 H 0.23168 0.51236 0.22675 0.0
H385 H 0.09024 0.57403 0.27556 0.0
H386 H 0.14955 0.49927 0.27457 0.0
H387 H 0.17182 0.58271 0.15324 0.0
C388 C 0.21096 0.56756 0.12919 0.0
C389 C 0.22737 0.5465 0.14402 0.0
C390 C 0.13664 0.51575 0.2747 0.0
C391 C 0.17638 0.54693 0.22856 0.0
C392 C 0.10904 0.51077 0.29605 0.0
C393 C 0.09185 0.5317 0.2982 0.0
C394 C 0.14718 0.54179 0.25396 0.0
C395 C 0.10284 0.55732 0.27389 0.0
C396 C 0.18536 0.56788 0.17171 0.0
C397 C 0.2195 0.52871 0.21252 0.0
N398 N 0.12993 0.56169 0.2524 0.0
N399 N 0.19413 0.52877 0.25025 0.0
H400 H 0.07672 0.82034 0.04142 0.0
H401 H 0.988 0.92257 0.81728 0.0
H402 H 1.00247 0.79723 0.90317 0.0
H403 H 0.07325 0.94316 0.8685 0.0
H404 H 0.99379 0.87634 0.85296 0.0
H405 H 0.0789 0.86412 0.97112 0.0
C406 C 0.0617 0.82402 0.99246 0.0
C407 C 0.03918 0.80537 0.97876 0.0
C408 C 1.01128 0.89091 0.85657 0.0
C409 C 0.04079 0.85553 0.90194 0.0
C410 C 1.00787 0.91743 0.83776 0.0
C411 C 0.03016 0.93673 0.84045 0.0
C412 C 0.03713 0.88358 0.87935 0.0
C413 C 0.05549 0.92889 0.86652 0.0
C414 C 0.06264 0.84916 0.95374 0.0
C415 C 0.02009 0.81111 0.91568 0.0
N416 N 0.05832 0.90283 0.8852 0.0
N417 N 0.02086 0.83601 0.88159 0.0
H418 H 0.7342 0.01858 0.82544 0.0
H419 H 0.60003 0.08654 0.77021 0.0
H420 H 0.71281 0.08585 0.98798 0.0
H421 H 0.63294 0.03634 0.56445 0.0
H422 H 0.64526 0.09315 0.83502 0.0
H423 H 0.70322 0.03127 0.71175 0.0
C424 C 0.72379 0.03664 0.83562 0.0
C425 C 0.72546 0.05081 0.91698 0.0
C426 C 0.64281 0.08118 0.77447 0.0
C427 C 0.68936 0.06494 0.78903 0.0
C428 C 0.61695 0.0774 0.73767 0.0
C429 C 0.61274 0.06046 0.66323 0.0
C430 C 0.66435 0.06741 0.73758 0.0
C431 C 0.63532 0.04925 0.62291 0.0
C432 C 0.70589 0.04378 0.77102 0.0
C433 C 0.71151 0.07403 0.92683 0.0
N434 N 0.66007 0.0524 0.66183 0.0
N435 N 0.69344 0.07996 0.86477 0.0
H436 H 0.44672 0.71315 0.01266 0.0
H437 H 0.53477 0.60422 0.80853 0.0
H438 H 0.52782 0.731 0.90228 0.0
H439 H 0.44677 0.59205 0.80955 0.0
H440 H 0.53134 0.65131 0.84458 0.0
H441 H 0.44341 0.67077 0.92854 0.0
C442 C 0.46321 0.70879 0.96665 0.0
C443 C 0.48776 0.72526 0.96521 0.0
C444 C 0.51273 0.63842 0.83674 0.0
C445 C 0.48468 0.6766 0.8729 0.0
C446 C 0.51467 0.61141 0.8178 0.0
C447 C 0.491 0.59422 0.80696 0.0
C448 C 0.4869 0.64831 0.84639 0.0
C449 C 0.4655 0.60468 0.81842 0.0
C450 C 0.46152 0.68441 0.91996 0.0
C451 C 0.50864 0.71872 0.90552 0.0
N452 N 0.46408 0.63112 0.83823 0.0
N453 N 0.50701 0.69441 0.86392 0.0
H454 H 0.80566 0.44504 0.04862 0.0
H455 H 0.93367 0.52299 0.85693 0.0
H456 H 0.80042 0.51838 0.90785 0.0
H457 H 0.92633 0.43823 0.79789 0.0
H458 H 0.88541 0.52022 0.9019 0.0
H459 H 0.84925 0.4389 0.96994 0.0
C460 C 0.813 0.45906 -0.00231 0.0
C461 C 0.79967 0.48235 0.98491 0.0
C462 C 0.89445 0.50222 0.87943 0.0
C463 C 0.84961 0.47618 0.8993 0.0
C464 C 0.92204 0.50368 0.85542 0.0
C465 C 0.9339 0.48077 0.82402 0.0
C466 C 0.87879 0.47761 0.87381 0.0
C467 C 0.91781 0.45629 0.82222 0.0
C468 C 0.83796 0.45575 0.95393 0.0
C469 C 0.8101 0.50019 0.91944 0.0
N470 N 0.89093 0.45525 0.84737 0.0
N471 N 0.83501 0.49723 0.88121 0.0
H472 H 1.01282 0.22487 0.81156 0.0
H473 H 0.05882 0.07817 0.81331 0.0
H474 H 0.07921 0.20302 0.96935 0.0
H475 H 0.01774 0.108 0.58941 0.0
H476 H 0.06677 0.12418 0.87072 0.0
H477 H 0.01571 0.18352 0.72273 0.0
C478 C 0.02882 0.21196 0.82475 0.0
C479 C 0.04587 0.21734 0.89746 0.0
C480 C 0.05628 0.12063 0.80848 0.0
C481 C 0.04839 0.16949 0.79986 0.0
C482 C 0.05157 0.09434 0.77608 0.0
C483 C 0.03748 0.0891 0.6967 0.0
C484 C 0.04641 0.1418 0.76204 0.0
C485 C 0.02869 0.11097 0.65099 0.0
C486 C 0.0302 0.18815 0.7751 0.0
C487 C 0.06579 0.19958 0.9134 0.0
N488 N 0.033 0.13625 0.68481 0.0
N489 N 0.06609 0.17617 0.86654 0.0
H490 H 0.31105 1.00082 0.785 0.0
H491 H 0.4684 0.03929 0.83864 0.0
H492 H 0.34346 0.0487 0.00504 0.0
H493 H 0.43554 0.02818 0.5756 0.0
H494 H 0.42209 0.04084 0.90034 0.0
H495 H 0.35506 1.00949 0.70345 0.0
C496 C 0.32706 0.01402 0.81451 0.0
C497 C 0.32358 0.02438 0.90126 0.0
C498 C 0.42493 0.03813 0.82901 0.0
C499 C 0.37412 0.0333 0.81081 0.0
C500 C 0.45141 0.03713 0.79375 0.0
C501 C 0.45586 0.03305 0.70198 0.0
C502 C 0.4025 0.03457 0.77253 0.0
C503 C 0.43299 0.03061 0.64703 0.0
C504 C 0.35223 0.01872 0.76852 0.0
C505 C 0.34525 0.04065 0.93783 0.0
N506 N 0.40723 0.031 0.68324 0.0
N507 N 0.36967 0.04421 0.89323 0.0
H508 H 0.46473 0.30194 0.84728 0.0
H509 H 0.51607 0.45098 0.81442 0.0
H510 H 0.5509 0.32583 0.85708 0.0
H511 H 0.47346 0.41967 0.58225 0.0
H512 H 0.51831 0.40501 0.86562 0.0
H513 H 0.45795 0.34433 0.77275 0.0
C514 C 0.48231 0.31552 0.83032 0.0
C515 C 0.50844 0.31035 0.85788 0.0
C516 C 0.50807 0.40836 0.80423 0.0
C517 C 0.50061 0.35904 0.7786 0.0
C518 C 0.50651 0.43451 0.7756 0.0
C519 C 0.49448 0.4391 0.69425 0.0
C520 C 0.49694 0.38674 0.75237 0.0
C521 C 0.48288 0.41691 0.64551 0.0
C522 C 0.47838 0.3398 0.78931 0.0
C523 C 0.53047 0.32901 0.8365 0.0
N524 N 0.48429 0.3916 0.67541 0.0
N525 N 0.52597 0.35282 0.80057 0.0
H526 H 0.23373 0.53493 0.76556 0.0
H527 H 0.07785 0.48173 0.80306 0.0
H528 H 0.20512 0.47071 0.93896 0.0
H529 H 0.11246 0.52272 0.5709 0.0
H530 H 0.12434 0.47753 0.85474 0.0
H531 H 0.19023 0.52946 0.6881 0.0
C532 C 0.21878 0.51878 0.78423 0.0
C533 C 0.22319 0.50286 0.8573 0.0
C534 C 0.12167 0.48724 0.79212 0.0
C535 C 0.17272 0.49763 0.77349 0.0
C536 C 0.09514 0.48986 0.76307 0.0
C537 C 0.09113 0.5027 0.68276 0.0
C538 C 0.14434 0.49789 0.74117 0.0
C539 C 0.11441 0.51266 0.6333 0.0
C540 C 0.19374 0.51596 0.74126 0.0
C541 C 0.20268 0.48295 0.88149 0.0
N542 N 0.13989 0.51025 0.66362 0.0
N543 N 0.1781 0.48128 0.84111 0.0
H544 H 0.0286 0.79729 0.36053 0.0
H545 H 0.98257 0.94363 0.33587 0.0
H546 H 0.96414 0.81661 0.19027 0.0
H547 H 0.0195 0.91511 0.5701 0.0
H548 H 0.97581 0.89719 0.28022 0.0
H549 H 0.02436 0.83942 0.44329 0.0
C550 C 1.01259 0.80977 0.34367 0.0
C551 C 0.99634 0.80328 0.26975 0.0
C552 C 0.98515 0.90118 0.34422 0.0
C553 C 0.99261 0.85229 0.35961 0.0
C554 C 0.98922 0.92769 0.37555 0.0
C555 C 1.00172 0.93339 0.45755 0.0
C556 C 0.99405 0.8803 0.39455 0.0
C557 C 1.00976 0.91182 0.50647 0.0
C558 C 1.0105 0.83408 0.38967 0.0
C559 C 0.97664 0.82071 0.24816 0.0
N560 N 1.00606 0.88637 0.47388 0.0
N561 N 0.97577 0.84472 0.29134 0.0
H562 H 0.70551 0.97313 0.2277 0.0
H563 H 0.56027 0.01732 0.2888 0.0
H564 H 0.69319 0.0572 0.22377 0.0
H565 H 0.58654 0.97205 0.50734 0.0
H566 H 0.60805 0.02503 0.23695 0.0
H567 H 0.66186 0.9653 0.31227 0.0
C568 C 0.69413 0.99001 0.24677 0.0
C569 C 0.70285 0.01581 0.21715 0.0
C570 C 0.60328 0.01334 0.29612 0.0
C571 C 0.65276 1.00679 0.31023 0.0
C572 C 0.5761 1.0088 0.3253 0.0
C573 C 0.56955 0.99402 0.40223 0.0
C574 C 0.62399 1.0023 0.34245 0.0
C575 C 0.59088 0.98359 0.44767 0.0
C576 C 0.66917 0.98548 0.29426 0.0
C577 C 0.68702 0.03689 0.24335 0.0
N578 N 0.61723 0.98762 0.41645 0.0
N579 N 0.66246 0.03183 0.28597 0.0
H580 H 0.56102 0.72527 0.26569 0.0
H581 H 0.51509 0.57733 0.31137 0.0
H582 H 0.47452 0.70262 0.28559 0.0
H583 H 0.54992 0.60982 0.55535 0.0
H584 H 0.5133 0.62315 0.25775 0.0
H585 H 0.56953 0.68338 0.34017 0.0
C586 C 0.54383 0.71206 0.28877 0.0
C587 C 0.51701 0.71739 0.26921 0.0
C588 C 0.52184 0.62005 0.32224 0.0
C589 C 0.52668 0.66934 0.34952 0.0
C590 C 0.52309 0.59401 0.35248 0.0
C591 C 0.53269 0.58979 0.43781 0.0
C592 C 0.53084 0.6419 0.37674 0.0
C593 C 0.54234 0.61226 0.48912 0.0
C594 C 0.54873 0.68807 0.32988 0.0
C595 C 0.49549 0.69923 0.29901 0.0
N596 N 0.54117 0.63744 0.45787 0.0
N597 N 0.50081 0.6757 0.33533 0.0
H598 H 0.79369 0.49338 0.36172 0.0
H599 H 0.94951 0.54679 0.33785 0.0
H600 H 0.82354 0.55858 0.1941 0.0
H601 H 0.91373 0.50398 0.56478 0.0
H602 H 0.9034 0.55183 0.285 0.0
H603 H 0.83654 0.49847 0.44301 0.0
C604 C 0.80876 0.50961 0.34503 0.0
C605 C 0.80489 0.52598 0.27259 0.0
C606 C 0.9057 0.54157 0.34685 0.0
C607 C 0.85463 0.53085 0.36099 0.0
C608 C 0.93204 0.53852 0.37668 0.0
C609 C 0.93564 0.5248 0.45563 0.0
C610 C 0.88276 0.53048 0.3955 0.0
C611 C 0.9121 0.51468 0.50344 0.0
C612 C 0.83343 0.51226 0.3903 0.0
C613 C 0.82555 0.546 0.25101 0.0
N614 N 0.88678 0.51746 0.47219 0.0
N615 N 0.84976 0.54752 0.29366 0.0
loop_
_geom_bond_atom_site_label_1
_geom_bond_atom_site_label_2
_geom_bond_distance
_geom_bond_site_symmetry_2
_ccdc_geom_bond_type
H0 C7 0.929 . S
H1 C10 0.930 1_556 S
H2 C12 0.929 . S
H3 C4 0.969 . S
C4 H3 0.969 . S
C4 O5 1.550 1_556 S
C4 H6 0.974 . S
O5 C4 1.550 1_554 S
O5 C11 1.412 . S
H6 C4 0.974 . S
C7 H0 0.929 . S
C7 C8 1.400 . S
C7 C9 1.364 . S
C8 C7 1.400 . S
C8 C12 1.377 . S
C9 C7 1.364 . S
C9 C10 1.374 . S
C10 H1 0.930 1_554 S
C10 C9 1.374 . S
C10 C11 1.383 . S
C11 O5 1.412 . S
C11 C10 1.383 . S
C11 C12 1.394 . S
C12 H2 0.929 . S
C12 C8 1.377 . S
C12 C11 1.394 . S
H13 C20 0.928 1_655 S
H14 C23 0.931 . S
H15 C25 0.930 1_655 S
H16 C17 0.969 . S
C17 H16 0.969 . S
C17 O18 1.550 1_456 S
C17 H19 0.973 1_455 S
O18 C17 1.550 1_654 S
O18 C24 1.407 1_655 S
H19 C17 0.973 1_655 S
C20 H13 0.928 1_455 S
C20 C21 1.398 . S
C20 C22 1.364 1_554 S
C21 C20 1.398 . S
C21 C25 1.378 . S
C22 C20 1.364 1_556 S
C22 C23 1.375 1_455 S
C23 H14 0.931 . S
C23 C22 1.375 1_655 S
C23 C24 1.379 1_656 S
C24 O18 1.407 1_455 S
C24 C23 1.379 1_454 S
C24 C25 1.394 . S
C25 H15 0.930 1_455 S
C25 C21 1.378 . S
C25 C24 1.394 . S
H26 C33 0.929 . S
H27 C36 0.930 . S
H28 C38 0.929 . S
H29 C30 0.969 . S
C30 H29 0.969 . S
C30 O31 1.550 1_556 S
C30 H32 0.973 . S
O31 C30 1.550 1_554 S
O31 C37 1.412 . S
H32 C30 0.973 . S
C33 H26 0.929 . S
C33 C34 1.400 . S
C33 C35 1.364 1_554 S
C34 C33 1.400 . S
C34 C38 1.377 . S
C35 C33 1.364 1_556 S
C35 C36 1.374 . S
C36 H27 0.930 . S
C36 C35 1.374 . S
C36 C37 1.383 1_556 S
C37 O31 1.412 . S
C37 C36 1.383 1_554 S
C37 C38 1.394 . S
C38 H28 0.929 . S
C38 C34 1.377 . S
C38 C37 1.394 . S
H39 C46 0.929 . S
H40 C49 0.930 1_556 S
H41 C51 0.929 . S
H42 C43 0.969 . S
C43 H42 0.969 . S
C43 O44 1.550 . S
C43 H45 0.973 1_554 S
O44 C43 1.550 . S
O44 C50 1.412 . S
H45 C43 0.973 1_556 S
C46 H39 0.929 . S
C46 C47 1.400 . S
C46 C48 1.364 . S
C47 C46 1.400 . S
C47 C51 1.377 . S
C48 C46 1.364 . S
C48 C49 1.374 . S
C49 H40 0.930 1_554 S
C49 C48 1.374 . S
C49 C50 1.383 . S
C50 O44 1.412 . S
C50 C49 1.383 . S
C50 C51 1.394 . S
C51 H41 0.929 . S
C51 C47 1.377 . S
C51 C50 1.394 . S
H52 C59 0.929 . S
H53 C62 0.930 . S
H54 C64 0.929 . S
H55 C56 0.969 . S
C56 H55 0.969 . S
C56 O57 1.550 . S
C56 H58 0.973 . S
O57 C56 1.550 . S
O57 C63 1.412 . S
H58 C56 0.973 . S
C59 H52 0.929 . S
C59 C60 1.400 1_554 S
C59 C61 1.364 . S
C60 C59 1.400 1_556 S
C60 C64 1.377 . S
C61 C59 1.364 . S
C61 C62 1.374 . S
C62 H53 0.930 . S
C62 C61 1.374 . S
C62 C63 1.383 . S
C63 O57 1.412 . S
C63 C62 1.383 . S
C63 C64 1.394 1_554 S
C64 H54 0.929 . S
C64 C60 1.377 . S
C64 C63 1.394 1_556 S
H65 C72 0.929 1_655 S
H66 C75 0.929 . S
H67 C77 0.927 1_656 S
H68 C69 0.969 . S
C69 H68 0.969 . S
C69 O70 1.550 1_455 S
C69 H71 0.973 1_455 S
O70 C69 1.550 1_655 S
O70 C76 1.399 1_655 S
H71 C69 0.973 1_655 S
C72 H65 0.929 1_455 S
C72 C73 1.401 1_554 S
C72 C74 1.364 . S
C73 C72 1.401 1_556 S
C73 C77 1.376 1_556 S
C74 C72 1.364 . S
C74 C75 1.374 1_455 S
C75 H66 0.929 . S
C75 C74 1.374 1_655 S
C75 C76 1.385 1_655 S
C76 O70 1.399 1_455 S
C76 C75 1.385 1_455 S
C76 C77 1.394 . S
C77 H67 0.927 1_454 S
C77 C73 1.376 1_554 S
C77 C76 1.394 . S
H78 C85 0.929 . S
H79 C88 0.930 . S
H80 C90 0.929 1_556 S
H81 C82 0.969 . S
C82 H81 0.969 . S
C82 O83 1.550 . S
C82 H84 0.973 . S
O83 C82 1.550 . S
O83 C89 1.412 . S
H84 C82 0.973 . S
C85 H78 0.929 . S
C85 C86 1.400 . S
C85 C87 1.364 . S
C86 C85 1.400 . S
C86 C90 1.377 . S
C87 C85 1.364 . S
C87 C88 1.374 . S
C88 H79 0.930 . S
C88 C87 1.374 . S
C88 C89 1.383 . S
C89 O83 1.412 . S
C89 C88 1.383 . S
C89 C90 1.394 . S
C90 H80 0.929 1_554 S
C90 C86 1.377 . S
C90 C89 1.394 . S
H91 C98 0.929 . S
H92 C101 0.930 . S
H93 C103 0.929 . S
H94 C95 0.969 . S
C95 H94 0.969 . S
C95 O96 1.550 . S
C95 H97 0.973 . S
O96 C95 1.550 . S
O96 C102 1.412 . S
H97 C95 0.973 . S
C98 H91 0.929 . S
C98 C99 1.400 1_554 S
C98 C100 1.364 . S
C99 C98 1.400 1_556 S
C99 C103 1.377 . S
C100 C98 1.364 . S
C100 C101 1.374 . S
C101 H92 0.930 . S
C101 C100 1.374 . S
C101 C102 1.383 . S
C102 O96 1.412 . S
C102 C101 1.383 . S
C102 C103 1.394 1_554 S
C103 H93 0.929 . S
C103 C99 1.377 . S
C103 C102 1.394 1_556 S
Dy104 O108 2.398 . S
Dy104 O109 2.491 1_455 S
Dy104 O110 2.403 . S
Dy104 O111 2.664 1_565 S
Dy104 O115 2.326 . S
Dy104 O119 2.310 1_455 S
Dy104 O120 2.351 1_565 S
C105 O116 1.185 . S
C105 O117 1.355 1_655 S
C106 O108 1.185 . S
C106 O109 1.355 1_455 S
Dy107 O111 2.310 1_655 S
Dy107 O114 2.351 1_545 S
Dy107 O116 2.398 . S
Dy107 O117 2.491 1_655 S
Dy107 O118 2.403 . S
Dy107 O119 2.664 1_545 S
Dy107 O121 2.326 . S
O108 Dy104 2.398 . S
O108 C106 1.185 . S
O109 Dy104 2.491 1_655 S
O109 C106 1.355 1_655 S
O110 Dy104 2.403 . S
O110 C112 1.254 1_565 S
O111 Dy104 2.664 1_545 S
O111 Dy107 2.310 1_455 S
O111 C112 1.268 . S
C112 O110 1.254 1_545 S
C112 O111 1.268 . S
C113 O118 1.254 1_565 S
C113 O119 1.268 . S
O114 Dy107 2.351 1_565 S
O114 C122 1.249 . S
O115 Dy104 2.326 . S
O115 C122 1.267 1_455 S
O116 C105 1.185 . S
O116 Dy107 2.398 . S
O117 C105 1.355 1_455 S
O117 Dy107 2.491 1_455 S
O118 Dy107 2.403 . S
O118 C113 1.254 1_545 S
O119 Dy104 2.310 1_655 S
O119 Dy107 2.664 1_565 S
O119 C113 1.268 . S
O120 Dy104 2.351 1_545 S
O120 C123 1.249 . S
O121 Dy107 2.326 . S
O121 C123 1.267 1_655 S
C122 O114 1.249 . S
C122 O115 1.267 1_655 S
C123 O120 1.249 . S
C123 O121 1.267 1_455 S
Dy124 O128 2.398 . S
Dy124 O129 2.491 1_565 S
Dy124 O130 2.403 . S
Dy124 O131 2.664 . S
Dy124 O135 2.326 1_565 S
Dy124 O139 2.310 1_565 S
Dy124 O140 2.351 . S
C125 O136 1.194 . S
C125 O137 1.352 1_545 S
C126 O128 1.185 1_545 S
C126 O129 1.355 . S
Dy127 O131 2.310 1_545 S
Dy127 O134 2.351 . S
Dy127 O136 2.398 . S
Dy127 O137 2.491 1_545 S
Dy127 O138 2.403 . S
Dy127 O139 2.664 . S
Dy127 O141 2.326 1_545 S
O128 Dy124 2.398 . S
O128 C126 1.185 1_565 S
O129 Dy124 2.491 1_545 S
O129 C126 1.355 . S
O130 Dy124 2.403 . S
O130 C132 1.254 . S
O131 Dy124 2.664 . S
O131 Dy127 2.310 1_565 S
O131 C132 1.268 . S
C132 O130 1.254 . S
C132 O131 1.268 . S
C133 O138 1.254 . S
C133 O139 1.268 . S
O134 Dy127 2.351 . S
O134 C142 1.249 . S
O135 Dy124 2.326 1_545 S
O135 C142 1.267 . S
O136 C125 1.194 . S
O136 Dy127 2.398 . S
O137 C125 1.352 1_565 S
O137 Dy127 2.491 1_565 S
O138 Dy127 2.403 . S
O138 C133 1.254 . S
O139 Dy124 2.310 1_545 S
O139 Dy127 2.664 . S
O139 C133 1.268 . S
O140 Dy124 2.351 . S
O140 C143 1.249 . S
O141 Dy127 2.326 1_565 S
O141 C143 1.267 . S
C142 O134 1.249 . S
C142 O135 1.267 . S
C143 O140 1.249 . S
C143 O141 1.267 . S
Dy144 O148 2.398 . S
Dy144 O149 2.491 . S
Dy144 O150 2.403 . S
Dy144 O151 2.664 . S
Dy144 O155 2.326 . S
Dy144 O159 2.310 . S
Dy144 O160 2.351 . S
C145 O156 1.185 . S
C145 O157 1.355 . S
C146 O148 1.185 . S
C146 O149 1.355 . S
Dy147 O151 2.310 . S
Dy147 O154 2.351 . S
Dy147 O156 2.398 . S
Dy147 O157 2.491 . S
Dy147 O158 2.403 . S
Dy147 O159 2.664 . S
Dy147 O161 2.326 . S
O148 Dy144 2.398 . S
O148 C146 1.185 . S
O149 Dy144 2.491 . S
O149 C146 1.355 . S
O150 Dy144 2.403 . S
O150 C152 1.254 . S
O151 Dy144 2.664 . S
O151 Dy147 2.310 . S
O151 C152 1.268 . S
C152 O150 1.254 . S
C152 O151 1.268 . S
C153 O158 1.254 . S
C153 O159 1.268 . S
O154 Dy147 2.351 . S
O154 C162 1.249 . S
O155 Dy144 2.326 . S
O155 C162 1.267 . S
O156 C145 1.185 . S
O156 Dy147 2.398 . S
O157 C145 1.355 . S
O157 Dy147 2.491 . S
O158 Dy147 2.403 . S
O158 C153 1.254 . S
O159 Dy144 2.310 . S
O159 Dy147 2.664 . S
O159 C153 1.268 . S
O160 Dy144 2.351 . S
O160 C163 1.249 . S
O161 Dy147 2.326 . S
O161 C163 1.267 . S
C162 O154 1.249 . S
C162 O155 1.267 . S
C163 O160 1.249 . S
C163 O161 1.267 . S
Dy164 O168 2.398 . S
Dy164 O169 2.491 . S
Dy164 O170 2.403 . S
Dy164 O171 2.664 1_655 S
Dy164 O175 2.326 . S
Dy164 O179 2.310 . S
Dy164 O180 2.351 1_655 S
C165 O176 1.185 . S
C165 O177 1.355 . S
C166 O168 1.185 . S
C166 O169 1.355 . S
Dy167 O171 2.310 . S
Dy167 O174 2.351 1_455 S
Dy167 O176 2.398 . S
Dy167 O177 2.491 . S
Dy167 O178 2.403 . S
Dy167 O179 2.664 1_455 S
Dy167 O181 2.326 . S
O168 Dy164 2.398 . S
O168 C166 1.185 . S
O169 Dy164 2.491 . S
O169 C166 1.355 . S
O170 Dy164 2.403 . S
O170 C172 1.254 . S
O171 Dy164 2.664 1_455 S
O171 Dy167 2.310 . S
O171 C172 1.268 1_455 S
C172 O170 1.254 . S
C172 O171 1.268 1_655 S
C173 O178 1.254 . S
C173 O179 1.268 1_455 S
O174 Dy167 2.351 1_655 S
O174 C182 1.249 . S
O175 Dy164 2.326 . S
O175 C182 1.267 . S
O176 C165 1.185 . S
O176 Dy167 2.398 . S
O177 C165 1.355 . S
O177 Dy167 2.491 . S
O178 Dy167 2.403 . S
O178 C173 1.254 . S
O179 Dy164 2.310 . S
O179 Dy167 2.664 1_655 S
O179 C173 1.268 1_655 S
O180 Dy164 2.351 1_455 S
O180 C183 1.249 . S
O181 Dy167 2.326 . S
O181 C183 1.267 . S
C182 O174 1.249 . S
C182 O175 1.267 . S
C183 O180 1.249 . S
C183 O181 1.267 . S
H184 C190 0.930 . S
H185 C194 0.930 . S
H186 C199 0.929 . S
H187 C197 0.929 . S
H188 C192 0.929 . S
H189 C198 0.929 . S
C190 H184 0.930 . S
C190 C191 1.367 . S
C190 C198 1.378 . S
C191 C190 1.367 . S
C191 C199 1.433 . S
C192 H188 0.929 . S
C192 C194 1.378 . S
C192 C196 1.350 . S
C193 C196 1.463 . S
C193 C198 1.350 . S
C193 N201 1.427 . S
C194 H185 0.930 . S
C194 C192 1.378 . S
C194 C195 1.367 . S
C195 C194 1.367 . S
C195 C197 1.433 . S
C196 C192 1.350 . S
C196 C193 1.463 . S
C196 N200 1.427 . S
C197 H187 0.929 . S
C197 C195 1.433 . S
C197 N200 1.384 . S
C198 H189 0.929 . S
C198 C190 1.378 . S
C198 C193 1.350 . S
C199 H186 0.929 . S
C199 C191 1.433 . S
C199 N201 1.384 . S
N200 C196 1.427 . S
N200 C197 1.384 . S
N201 C193 1.427 . S
N201 C199 1.384 . S
H202 C208 0.930 . S
H203 C212 0.930 . S
H204 C217 0.929 . S
H205 C215 0.929 . S
H206 C210 0.929 . S
H207 C216 0.929 . S
C208 H202 0.930 . S
C208 C209 1.367 . S
C208 C216 1.378 . S
C209 C208 1.367 . S
C209 C217 1.433 . S
C210 H206 0.929 . S
C210 C212 1.378 . S
C210 C214 1.350 . S
C211 C214 1.463 . S
C211 C216 1.350 . S
C211 N219 1.427 . S
C212 H203 0.930 . S
C212 C210 1.378 . S
C212 C213 1.367 . S
C213 C212 1.367 . S
C213 C215 1.433 . S
C214 C210 1.350 . S
C214 C211 1.463 . S
C214 N218 1.427 . S
C215 H205 0.929 . S
C215 C213 1.433 . S
C215 N218 1.384 . S
C216 H207 0.929 . S
C216 C208 1.378 . S
C216 C211 1.350 . S
C217 H204 0.929 . S
C217 C209 1.433 . S
C217 N219 1.384 . S
N218 C214 1.427 . S
N218 C215 1.384 . S
N219 C211 1.427 . S
N219 C217 1.384 . S
H220 C226 0.930 . S
H221 C230 0.930 . S
H222 C235 0.929 . S
H223 C233 0.929 . S
H224 C228 0.929 . S
H225 C234 0.929 . S
C226 H220 0.930 . S
C226 C227 1.367 . S
C226 C234 1.378 . S
C227 C226 1.367 . S
C227 C235 1.433 . S
C228 H224 0.929 . S
C228 C230 1.378 . S
C228 C232 1.350 . S
C229 C232 1.463 . S
C229 C234 1.350 . S
C229 N237 1.427 . S
C230 H221 0.930 . S
C230 C228 1.378 . S
C230 C231 1.367 . S
C231 C230 1.367 . S
C231 C233 1.433 . S
C232 C228 1.350 . S
C232 C229 1.463 . S
C232 N236 1.427 . S
C233 H223 0.929 . S
C233 C231 1.433 . S
C233 N236 1.384 . S
C234 H225 0.929 . S
C234 C226 1.378 . S
C234 C229 1.350 . S
C235 H222 0.929 . S
C235 C227 1.433 . S
C235 N237 1.384 . S
N236 C232 1.427 . S
N236 C233 1.384 . S
N237 C229 1.427 . S
N237 C235 1.384 . S
H238 C244 0.930 . S
H239 C248 0.930 . S
H240 C253 0.929 . S
H241 C251 0.929 . S
H242 C246 0.929 . S
H243 C252 0.929 . S
C244 H238 0.930 . S
C244 C245 1.371 . S
C244 C252 1.378 . S
C245 C244 1.371 . S
C245 C253 1.429 1_455 S
C246 H242 0.929 . S
C246 C248 1.378 . S
C246 C250 1.350 . S
C247 C250 1.462 . S
C247 C252 1.352 1_655 S
C247 N255 1.426 . S
C248 H239 0.930 . S
C248 C246 1.378 . S
C248 C249 1.367 . S
C249 C248 1.367 . S
C249 C251 1.433 1_655 S
C250 C246 1.350 . S
C250 C247 1.462 . S
C250 N254 1.427 1_655 S
C251 H241 0.929 . S
C251 C249 1.433 1_455 S
C251 N254 1.384 . S
C252 H243 0.929 . S
C252 C244 1.378 . S
C252 C247 1.352 1_455 S
C253 H240 0.929 . S
C253 C245 1.429 1_655 S
C253 N255 1.384 . S
N254 C250 1.427 1_455 S
N254 C251 1.384 . S
N255 C247 1.426 . S
N255 C253 1.384 . S
H256 C262 0.930 1_554 S
H257 C266 0.930 . S
H258 C271 0.929 . S
H259 C269 0.929 . S
H260 C264 0.929 . S
H261 C270 0.929 . S
C262 H256 0.930 1_556 S
C262 C263 1.367 . S
C262 C270 1.378 . S
C263 C262 1.367 . S
C263 C271 1.433 . S
C264 H260 0.929 . S
C264 C266 1.378 . S
C264 C268 1.350 . S
C265 C268 1.463 . S
C265 C270 1.350 . S
C265 N273 1.427 . S
C266 H257 0.930 . S
C266 C264 1.378 . S
C266 C267 1.367 . S
C267 C266 1.367 . S
C267 C269 1.433 . S
C268 C264 1.350 . S
C268 C265 1.463 . S
C268 N272 1.427 . S
C269 H259 0.929 . S
C269 C267 1.433 . S
C269 N272 1.384 . S
C270 H261 0.929 . S
C270 C262 1.378 . S
C270 C265 1.350 . S
C271 H258 0.929 . S
C271 C263 1.433 . S
C271 N273 1.384 . S
N272 C268 1.427 . S
N272 C269 1.384 . S
N273 C265 1.427 . S
N273 C271 1.384 . S
H274 C280 0.930 . S
H275 C284 0.930 . S
H276 C289 0.929 . S
H277 C287 0.929 . S
H278 C282 0.929 . S
H279 C288 0.929 . S
C280 H274 0.930 . S
C280 C281 1.367 1_556 S
C280 C288 1.378 . S
C281 C280 1.367 1_554 S
C281 C289 1.433 . S
C282 H278 0.929 . S
C282 C284 1.378 . S
C282 C286 1.350 . S
C283 C286 1.463 . S
C283 C288 1.350 . S
C283 N291 1.427 . S
C284 H275 0.930 . S
C284 C282 1.378 . S
C284 C285 1.367 . S
C285 C284 1.367 . S
C285 C287 1.433 . S
C286 C282 1.350 . S
C286 C283 1.463 . S
C286 N290 1.427 . S
C287 H277 0.929 . S
C287 C285 1.433 . S
C287 N290 1.384 . S
C288 H279 0.929 . S
C288 C280 1.378 . S
C288 C283 1.350 . S
C289 H276 0.929 . S
C289 C281 1.433 . S
C289 N291 1.384 1_554 S
N290 C286 1.427 . S
N290 C287 1.384 . S
N291 C283 1.427 . S
N291 C289 1.384 1_556 S
H292 C298 0.930 . S
H293 C302 0.930 . S
H294 C307 0.929 1_554 S
H295 C305 0.929 . S
H296 C300 0.929 . S
H297 C306 0.929 . S
C298 H292 0.930 . S
C298 C299 1.367 . S
C298 C306 1.378 . S
C299 C298 1.367 . S
C299 C307 1.433 . S
C300 H296 0.929 . S
C300 C302 1.378 . S
C300 C304 1.350 . S
C301 C304 1.463 . S
C301 C306 1.350 . S
C301 N309 1.427 . S
C302 H293 0.930 . S
C302 C300 1.378 . S
C302 C303 1.367 . S
C303 C302 1.367 . S
C303 C305 1.433 . S
C304 C300 1.350 . S
C304 C301 1.463 . S
C304 N308 1.427 . S
C305 H295 0.929 . S
C305 C303 1.433 . S
C305 N308 1.384 . S
C306 H297 0.929 . S
C306 C298 1.378 . S
C306 C301 1.350 . S
C307 H294 0.929 1_556 S
C307 C299 1.433 . S
C307 N309 1.384 . S
N308 C304 1.427 . S
N308 C305 1.384 . S
N309 C301 1.427 . S
N309 C307 1.384 . S
H310 C316 0.930 1_554 S
H311 C320 0.930 . S
H312 C325 0.929 . S
H313 C323 0.929 . S
H314 C318 0.929 . S
H315 C324 0.929 . S
C316 H310 0.930 1_556 S
C316 C317 1.373 . S
C316 C324 1.378 . S
C317 C316 1.373 . S
C317 C325 1.426 1_655 S
C318 H314 0.929 . S
C318 C320 1.378 . S
C318 C322 1.350 . S
C319 C322 1.463 1_655 S
C319 C324 1.350 . S
C319 N327 1.428 1_655 S
C320 H311 0.930 . S
C320 C318 1.378 . S
C320 C321 1.367 . S
C321 C320 1.367 . S
C321 C323 1.433 1_455 S
C322 C318 1.350 . S
C322 C319 1.463 1_455 S
C322 N326 1.427 1_455 S
C323 H313 0.929 . S
C323 C321 1.433 1_655 S
C323 N326 1.384 . S
C324 H315 0.929 . S
C324 C316 1.378 . S
C324 C319 1.350 . S
C325 H312 0.929 . S
C325 C317 1.426 1_455 S
C325 N327 1.384 . S
N326 C322 1.427 1_655 S
N326 C323 1.384 . S
N327 C319 1.428 1_455 S
N327 C325 1.384 . S
H328 C334 0.930 . S
H329 C338 0.930 . S
H330 C343 0.929 . S
H331 C341 0.929 . S
H332 C336 0.929 1_455 S
H333 C342 0.929 . S
C334 H328 0.930 . S
C334 C335 1.369 . S
C334 C342 1.378 . S
C335 C334 1.369 . S
C335 C343 1.431 1_655 S
C336 H332 0.929 1_655 S
C336 C338 1.378 . S
C336 C340 1.350 . S
C337 C340 1.463 . S
C337 C342 1.350 . S
C337 N345 1.427 1_655 S
C338 H329 0.930 . S
C338 C336 1.378 . S
C338 C339 1.367 . S
C339 C338 1.367 . S
C339 C341 1.433 . S
C340 C336 1.350 . S
C340 C337 1.463 . S
C340 N344 1.427 . S
C341 H331 0.929 . S
C341 C339 1.433 . S
C341 N344 1.384 . S
C342 H333 0.929 . S
C342 C334 1.378 . S
C342 C337 1.350 . S
C343 H330 0.929 . S
C343 C335 1.431 1_455 S
C343 N345 1.384 . S
N344 C340 1.427 . S
N344 C341 1.384 . S
N345 C337 1.427 1_455 S
N345 C343 1.384 . S
H346 C352 0.930 . S
H347 C356 0.930 . S
H348 C361 0.929 . S
H349 C359 0.929 . S
H350 C354 0.929 . S
H351 C360 0.929 . S
C352 H346 0.930 . S
C352 C353 1.367 . S
C352 C360 1.378 . S
C353 C352 1.367 . S
C353 C361 1.433 . S
C354 H350 0.929 . S
C354 C356 1.378 . S
C354 C358 1.350 . S
C355 C358 1.463 . S
C355 C360 1.350 . S
C355 N363 1.427 . S
C356 H347 0.930 . S
C356 C354 1.378 . S
C356 C357 1.367 . S
C357 C356 1.367 . S
C357 C359 1.433 . S
C358 C354 1.350 . S
C358 C355 1.463 . S
C358 N362 1.427 . S
C359 H349 0.929 . S
C359 C357 1.433 . S
C359 N362 1.384 . S
C360 H351 0.929 . S
C360 C352 1.378 . S
C360 C355 1.350 . S
C361 H348 0.929 . S
C361 C353 1.433 . S
C361 N363 1.384 . S
N362 C358 1.427 . S
N362 C359 1.384 . S
N363 C355 1.427 . S
N363 C361 1.384 . S
H364 C370 0.930 . S
H365 C374 0.930 . S
H366 C379 0.929 . S
H367 C377 0.929 . S
H368 C372 0.929 . S
H369 C378 0.929 . S
C370 H364 0.930 . S
C370 C371 1.367 . S
C370 C378 1.378 . S
C371 C370 1.367 . S
C371 C379 1.433 . S
C372 H368 0.929 . S
C372 C374 1.378 . S
C372 C376 1.350 . S
C373 C376 1.463 . S
C373 C378 1.350 . S
C373 N381 1.427 . S
C374 H365 0.930 . S
C374 C372 1.378 . S
C374 C375 1.367 . S
C375 C374 1.367 . S
C375 C377 1.433 . S
C376 C372 1.350 . S
C376 C373 1.463 . S
C376 N380 1.427 . S
C377 H367 0.929 . S
C377 C375 1.433 . S
C377 N380 1.384 . S
C378 H369 0.929 . S
C378 C370 1.378 . S
C378 C373 1.350 . S
C379 H366 0.929 . S
C379 C371 1.433 . S
C379 N381 1.384 . S
N380 C376 1.427 . S
N380 C377 1.384 . S
N381 C373 1.427 . S
N381 C379 1.384 . S
H382 C388 0.930 . S
H383 C392 0.930 . S
H384 C397 0.929 . S
H385 C395 0.929 . S
H386 C390 0.929 . S
H387 C396 0.929 . S
C388 H382 0.930 . S
C388 C389 1.367 . S
C388 C396 1.378 . S
C389 C388 1.367 . S
C389 C397 1.433 . S
C390 H386 0.929 . S
C390 C392 1.378 . S
C390 C394 1.350 . S
C391 C394 1.463 . S
C391 C396 1.350 . S
C391 N399 1.427 . S
C392 H383 0.930 . S
C392 C390 1.378 . S
C392 C393 1.367 . S
C393 C392 1.367 . S
C393 C395 1.433 . S
C394 C390 1.350 . S
C394 C391 1.463 . S
C394 N398 1.427 . S
C395 H385 0.929 . S
C395 C393 1.433 . S
C395 N398 1.384 . S
C396 H387 0.929 . S
C396 C388 1.378 . S
C396 C391 1.350 . S
C397 H384 0.929 . S
C397 C389 1.433 . S
C397 N399 1.384 . S
N398 C394 1.427 . S
N398 C395 1.384 . S
N399 C391 1.427 . S
N399 C397 1.384 . S
H400 C406 0.930 1_554 S
H401 C410 0.932 . S
H402 C415 0.929 . S
H403 C413 0.929 . S
H404 C408 0.929 . S
H405 C414 0.929 . S
C406 H400 0.930 1_556 S
C406 C407 1.373 . S
C406 C414 1.378 . S
C407 C406 1.373 . S
C407 C415 1.427 1_455 S
C408 H404 0.929 . S
C408 C410 1.378 . S
C408 C412 1.350 1_655 S
C409 C412 1.463 . S
C409 C414 1.350 . S
C409 N417 1.427 1_455 S
C410 H401 0.932 . S
C410 C408 1.378 . S
C410 C411 1.365 1_655 S
C411 C410 1.365 1_455 S
C411 C413 1.433 . S
C412 C408 1.350 1_455 S
C412 C409 1.463 . S
C412 N416 1.427 . S
C413 H403 0.929 . S
C413 C411 1.433 . S
C413 N416 1.384 . S
C414 H405 0.929 . S
C414 C406 1.378 . S
C414 C409 1.350 . S
C415 H402 0.929 . S
C415 C407 1.427 1_655 S
C415 N417 1.384 . S
N416 C412 1.427 . S
N416 C413 1.384 . S
N417 C409 1.427 1_655 S
N417 C415 1.384 . S
H418 C424 0.930 . S
H419 C428 0.930 . S
H420 C433 0.929 . S
H421 C431 0.929 . S
H422 C426 0.929 . S
H423 C432 0.929 . S
C424 H418 0.930 . S
C424 C425 1.367 . S
C424 C432 1.378 . S
C425 C424 1.367 . S
C425 C433 1.433 1_556 S
C426 H422 0.929 . S
C426 C428 1.378 1_565 S
C426 C430 1.350 . S
C427 C430 1.463 . S
C427 C432 1.350 . S
C427 N435 1.427 . S
C428 H419 0.930 . S
C428 C426 1.378 1_545 S
C428 C429 1.367 1_545 S
C429 C428 1.367 1_565 S
C429 C431 1.433 . S
C430 C426 1.350 . S
C430 C427 1.463 . S
C430 N434 1.427 . S
C431 H421 0.929 . S
C431 C429 1.433 . S
C431 N434 1.384 . S
C432 H423 0.929 . S
C432 C424 1.378 . S
C432 C427 1.350 . S
C433 H420 0.929 . S
C433 C425 1.433 1_554 S
C433 N435 1.384 1_554 S
N434 C430 1.427 . S
N434 C431 1.384 . S
N435 C427 1.427 . S
N435 C433 1.384 1_556 S
H436 C442 0.930 . S
H437 C446 0.930 . S
H438 C451 0.929 . S
H439 C449 0.929 . S
H440 C444 0.929 . S
H441 C450 0.929 1_554 S
C442 H436 0.930 . S
C442 C443 1.367 . S
C442 C450 1.378 1_554 S
C443 C442 1.367 . S
C443 C451 1.433 1_554 S
C444 H440 0.929 . S
C444 C446 1.378 . S
C444 C448 1.350 . S
C445 C448 1.463 . S
C445 C450 1.350 . S
C445 N453 1.427 . S
C446 H437 0.930 . S
C446 C444 1.378 . S
C446 C447 1.367 . S
C447 C446 1.367 . S
C447 C449 1.433 . S
C448 C444 1.350 . S
C448 C445 1.463 . S
C448 N452 1.427 . S
C449 H439 0.929 . S
C449 C447 1.433 . S
C449 N452 1.384 . S
C450 H441 0.929 1_556 S
C450 C442 1.378 1_556 S
C450 C445 1.350 . S
C451 H438 0.929 . S
C451 C443 1.433 1_556 S
C451 N453 1.384 . S
N452 C448 1.427 . S
N452 C449 1.384 . S
N453 C445 1.427 . S
N453 C451 1.384 . S
H454 C460 0.930 1_554 S
H455 C464 0.930 . S
H456 C469 0.929 . S
H457 C467 0.929 . S
H458 C462 0.929 . S
H459 C468 0.929 . S
C460 H454 0.930 1_556 S
C460 C461 1.367 . S
C460 C468 1.378 . S
C461 C460 1.367 . S
C461 C469 1.433 . S
C462 H458 0.929 . S
C462 C464 1.378 . S
C462 C466 1.350 . S
C463 C466 1.463 . S
C463 C468 1.350 . S
C463 N471 1.427 . S
C464 H455 0.930 . S
C464 C462 1.378 . S
C464 C465 1.367 . S
C465 C464 1.367 . S
C465 C467 1.433 . S
C466 C462 1.350 . S
C466 C463 1.463 . S
C466 N470 1.427 . S
C467 H457 0.929 . S
C467 C465 1.433 . S
C467 N470 1.384 . S
C468 H459 0.929 . S
C468 C460 1.378 . S
C468 C463 1.350 . S
C469 H456 0.929 . S
C469 C461 1.433 . S
C469 N471 1.384 . S
N470 C466 1.427 . S
N470 C467 1.384 . S
N471 C463 1.427 . S
N471 C469 1.384 . S
H472 C478 0.930 . S
H473 C482 0.930 . S
H474 C487 0.933 1_554 S
H475 C485 0.929 . S
H476 C480 0.929 . S
H477 C486 0.929 . S
C478 H472 0.930 . S
C478 C479 1.367 . S
C478 C486 1.378 . S
C479 C478 1.367 . S
C479 C487 1.435 1_455 S
C480 H476 0.929 . S
C480 C482 1.378 . S
C480 C484 1.350 . S
C481 C484 1.463 . S
C481 C486 1.350 . S
C481 N489 1.430 . S
C482 H473 0.930 . S
C482 C480 1.378 . S
C482 C483 1.367 . S
C483 C482 1.367 . S
C483 C485 1.433 . S
C484 C480 1.350 . S
C484 C481 1.463 . S
C484 N488 1.427 . S
C485 H475 0.929 . S
C485 C483 1.433 . S
C485 N488 1.384 . S
C486 H477 0.929 . S
C486 C478 1.378 . S
C486 C481 1.350 . S
C487 H474 0.933 1_556 S
C487 C479 1.435 1_655 S
C487 N489 1.377 1_655 S
N488 C484 1.427 . S
N488 C485 1.384 . S
N489 C481 1.430 . S
N489 C487 1.377 1_455 S
H490 C496 0.930 . S
H491 C500 0.930 . S
H492 C505 0.929 1_554 S
H493 C503 0.929 1_565 S
H494 C498 0.929 . S
H495 C504 0.929 . S
C496 H490 0.930 . S
C496 C497 1.367 . S
C496 C504 1.378 . S
C497 C496 1.367 . S
C497 C505 1.433 . S
C498 H494 0.929 . S
C498 C500 1.378 . S
C498 C502 1.350 . S
C499 C502 1.463 . S
C499 C504 1.350 . S
C499 N507 1.427 . S
C500 H491 0.930 . S
C500 C498 1.378 . S
C500 C501 1.367 . S
C501 C500 1.367 . S
C501 C503 1.433 . S
C502 C498 1.350 . S
C502 C499 1.463 . S
C502 N506 1.427 . S
C503 H493 0.929 1_545 S
C503 C501 1.433 . S
C503 N506 1.384 . S
C504 H495 0.929 . S
C504 C496 1.378 . S
C504 C499 1.350 . S
C505 H492 0.929 1_556 S
C505 C497 1.433 . S
C505 N507 1.384 . S
N506 C502 1.427 . S
N506 C503 1.384 . S
N507 C499 1.427 . S
N507 C505 1.384 . S
H508 C514 0.930 . S
H509 C518 0.930 . S
H510 C523 0.929 . S
H511 C521 0.929 . S
H512 C516 0.929 . S
H513 C522 0.929 . S
C514 H508 0.930 . S
C514 C515 1.367 . S
C514 C522 1.378 . S
C515 C514 1.367 . S
C515 C523 1.433 . S
C516 H512 0.929 . S
C516 C518 1.378 . S
C516 C520 1.350 . S
C517 C520 1.463 . S
C517 C522 1.350 . S
C517 N525 1.427 . S
C518 H509 0.930 . S
C518 C516 1.378 . S
C518 C519 1.367 . S
C519 C518 1.367 . S
C519 C521 1.433 . S
C520 C516 1.350 . S
C520 C517 1.463 . S
C520 N524 1.427 . S
C521 H511 0.929 . S
C521 C519 1.433 . S
C521 N524 1.384 . S
C522 H513 0.929 . S
C522 C514 1.378 . S
C522 C517 1.350 . S
C523 H510 0.929 . S
C523 C515 1.433 . S
C523 N525 1.384 . S
N524 C520 1.427 . S
N524 C521 1.384 . S
N525 C517 1.427 . S
N525 C523 1.384 . S
H526 C532 0.930 . S
H527 C536 0.930 . S
H528 C541 0.929 . S
H529 C539 0.929 . S
H530 C534 0.929 . S
H531 C540 0.929 . S
C532 H526 0.930 . S
C532 C533 1.367 . S
C532 C540 1.378 . S
C533 C532 1.367 . S
C533 C541 1.433 . S
C534 H530 0.929 . S
C534 C536 1.378 . S
C534 C538 1.350 . S
C535 C538 1.463 . S
C535 C540 1.350 . S
C535 N543 1.427 . S
C536 H527 0.930 . S
C536 C534 1.378 . S
C536 C537 1.367 . S
C537 C536 1.367 . S
C537 C539 1.433 . S
C538 C534 1.350 . S
C538 C535 1.463 . S
C538 N542 1.427 . S
C539 H529 0.929 . S
C539 C537 1.433 . S
C539 N542 1.384 . S
C540 H531 0.929 . S
C540 C532 1.378 . S
C540 C535 1.350 . S
C541 H528 0.929 . S
C541 C533 1.433 . S
C541 N543 1.384 . S
N542 C538 1.427 . S
N542 C539 1.384 . S
N543 C535 1.427 . S
N543 C541 1.384 . S
H544 C550 0.930 . S
H545 C554 0.930 . S
H546 C559 0.929 . S
H547 C557 0.929 . S
H548 C552 0.929 . S
H549 C558 0.929 . S
C550 H544 0.930 . S
C550 C551 1.352 1_455 S
C550 C558 1.378 . S
C551 C550 1.352 1_655 S
C551 C559 1.451 . S
C552 H548 0.929 . S
C552 C554 1.378 . S
C552 C556 1.350 . S
C553 C556 1.463 . S
C553 C558 1.350 1_655 S
C553 N561 1.427 . S
C554 H545 0.930 . S
C554 C552 1.378 . S
C554 C555 1.367 . S
C555 C554 1.367 . S
C555 C557 1.433 1_655 S
C556 C552 1.350 . S
C556 C553 1.463 . S
C556 N560 1.427 1_655 S
C557 H547 0.929 . S
C557 C555 1.433 1_455 S
C557 N560 1.384 . S
C558 H549 0.929 . S
C558 C550 1.378 . S
C558 C553 1.350 1_455 S
C559 H546 0.929 . S
C559 C551 1.451 . S
C559 N561 1.384 . S
N560 C556 1.427 1_455 S
N560 C557 1.384 . S
N561 C553 1.427 . S
N561 C559 1.384 . S
H562 C568 0.930 . S
H563 C572 0.930 . S
H564 C577 0.929 . S
H565 C575 0.929 . S
H566 C570 0.929 . S
H567 C576 0.929 . S
C568 H562 0.930 . S
C568 C569 1.367 . S
C568 C576 1.378 . S
C569 C568 1.367 . S
C569 C577 1.433 . S
C570 H566 0.929 . S
C570 C572 1.378 . S
C570 C574 1.350 . S
C571 C574 1.463 . S
C571 C576 1.350 . S
C571 N579 1.427 . S
C572 H563 0.930 . S
C572 C570 1.378 . S
C572 C573 1.367 . S
C573 C572 1.367 . S
C573 C575 1.433 . S
C574 C570 1.350 . S
C574 C571 1.463 . S
C574 N578 1.427 . S
C575 H565 0.929 . S
C575 C573 1.433 . S
C575 N578 1.384 . S
C576 H567 0.929 . S
C576 C568 1.378 . S
C576 C571 1.350 . S
C577 H564 0.929 . S
C577 C569 1.433 . S
C577 N579 1.384 . S
N578 C574 1.427 . S
N578 C575 1.384 . S
N579 C571 1.427 . S
N579 C577 1.384 . S
H580 C586 0.930 . S
H581 C590 0.930 . S
H582 C595 0.929 . S
H583 C593 0.929 . S
H584 C588 0.929 . S
H585 C594 0.929 . S
C586 H580 0.930 . S
C586 C587 1.367 . S
C586 C594 1.378 . S
C587 C586 1.367 . S
C587 C595 1.433 . S
C588 H584 0.929 . S
C588 C590 1.378 . S
C588 C592 1.350 . S
C589 C592 1.463 . S
C589 C594 1.350 . S
C589 N597 1.427 . S
C590 H581 0.930 . S
C590 C588 1.378 . S
C590 C591 1.367 . S
C591 C590 1.367 . S
C591 C593 1.433 . S
C592 C588 1.350 . S
C592 C589 1.463 . S
C592 N596 1.427 . S
C593 H583 0.929 . S
C593 C591 1.433 . S
C593 N596 1.384 . S
C594 H585 0.929 . S
C594 C586 1.378 . S
C594 C589 1.350 . S
C595 H582 0.929 . S
C595 C587 1.433 . S
C595 N597 1.384 . S
N596 C592 1.427 . S
N596 C593 1.384 . S
N597 C589 1.427 . S
N597 C595 1.384 . S
H598 C604 0.930 . S
H599 C608 0.930 . S
H600 C613 0.929 . S
H601 C611 0.929 . S
H602 C606 0.929 . S
H603 C612 0.929 . S
C604 H598 0.930 . S
C604 C605 1.367 . S
C604 C612 1.378 . S
C605 C604 1.367 . S
C605 C613 1.433 . S
C606 H602 0.929 . S
C606 C608 1.378 . S
C606 C610 1.350 . S
C607 C610 1.463 . S
C607 C612 1.350 . S
C607 N615 1.427 . S
C608 H599 0.930 . S
C608 C606 1.378 . S
C608 C609 1.367 . S
C609 C608 1.367 . S
C609 C611 1.433 . S
C610 C606 1.350 . S
C610 C607 1.463 . S
C610 N614 1.427 . S
C611 H601 0.929 . S
C611 C609 1.433 . S
C611 N614 1.384 . S
C612 H603 0.929 . S
C612 C604 1.378 . S
C612 C607 1.350 . S
C613 H600 0.929 . S
C613 C605 1.433 . S
C613 N615 1.384 . S
N614 C610 1.427 . S
N614 C611 1.384 . S
N615 C607 1.427 . S
N615 C613 1.384 . S
C191 C82 1.595 . S
C195 C112 1.697 . S
C213 C142 1.792 . S
C209 C95 1.640 . S
C231 C152 1.523 . S
C227 C56 1.376 . S
C249 C172 1.391 . S
C245 C69 1.253 . S
C267 C113 1.701 . S
C263 C30 1.547 . S
C281 C43 1.594 . S
C285 C143 1.793 . S
C299 C4 1.348 . S
C303 C153 1.527 . S
C317 C17 1.273 1_655 S
C321 C173 1.389 . S
C339 C105 0.854 . S
C335 C74 0.865 1_655 S
C357 C126 0.587 . S
C353 C87 0.628 . S
C375 C145 1.012 . S
C371 C100 1.011 . S
C389 C61 0.754 . S
C393 C165 0.747 . S
C407 C22 0.845 . S
C411 C106 0.865 . S
C429 C125 0.579 1_565 S
C425 C35 0.634 . S
C447 C146 1.022 . S
C443 C48 0.996 . S
C461 C9 0.747 1_556 S
C465 C166 0.760 . S
C479 C73 1.525 . S
C483 C123 1.591 . S
C497 C86 1.398 1_556 S
C501 C133 1.484 . S
C519 C163 1.790 . S
C515 C99 1.695 . S
C537 C183 1.792 . S
C533 C60 1.692 . S
C551 C21 1.519 1_655 S
C555 C122 1.596 . S
C573 C132 1.488 . S
C569 C34 1.400 . S
C591 C162 1.791 . S
C587 C47 1.693 . S
C605 C8 1.699 . S
C609 C182 1.795 . S
