# Generated by pormake.
# Topology pts, (4,4)-cn, num edge types: 1
# Building blocks:
#     Node 0, Type 0, BuildingBlock: MIFKUJ_clean_linker_1, # of connection points: 4
#     Node 1, Type 0, BuildingBlock: MIFKUJ_clean_linker_1, # of connection points: 4
#     Node 2, Type 1, BuildingBlock: UXUYUI_clean_sbu_0, # of connection points: 4
#     Node 3, Type 1, BuildingBlock: UXUYUI_clean_sbu_0, # of connection points: 4
#     Edge 4, Type (0, 1), BuildingBlock: MIFKUJ_clean_linker_0, # of connection points: 2
#     Edge 5, Type (0, 1), BuildingBlock: MIFKUJ_clean_linker_0, # of connection points: 2
#     Edge 6, Type (0, 1), BuildingBlock: MIFKUJ_clean_linker_0, # of connection points: 2
#     Edge 7, Type (0, 1), BuildingBlock: MIFKUJ_clean_linker_0, # of connection points: 2
#     Edge 8, Type (0, 1), BuildingBlock: MIFKUJ_clean_linker_0, # of connection points: 2
#     Edge 9, Type (0, 1), BuildingBlock: MIFKUJ_clean_linker_0, # of connection points: 2
#     Edge 10, Type (0, 1), BuildingBlock: MIFKUJ_clean_linker_0, # of connection points: 2
#     Edge 11, Type (0, 1), BuildingBlock: MIFKUJ_clean_linker_0, # of connection points: 2
# Relax obj value: 0.001
# Max RMSD: 0.016
# Mean RMSD: 0.014
data_MOF--net-pts--node1-UXUYUI_clean_sbu_0--node2-MIFKUJ_clean_linker_1--edge1-MIFKUJ_clean_linker_0
_symmetry_space_group_name_H-M    P1
_symmetry_Int_Tables_number       1
_symmetry_cell_setting            triclinic
loop_
_symmetry_equiv_pos_as_xyz
'x, y, z'
_cell_length_a     43.431183
_cell_length_b     43.403572
_cell_length_c     59.43555
_cell_angle_alpha  89.997673
_cell_angle_beta   90.029502
_cell_angle_gamma 90.213519
loop_
_atom_site_label
_atom_site_type_symbol
_atom_site_fract_x
_atom_site_fract_y
_atom_site_fract_z
_atom_type_partial_charge
H0 H 0.5577 0.96314 0.04409 0.0
H1 H 0.60484 0.96189 0.06655 0.0
H2 H 0.62893 0.05274 0.04223 0.0
H3 H 0.58215 0.05338 0.01941 0.0
H4 H 0.50946 0.00435 0.04622 0.0
H5 H 0.58142 0.96847 0.99011 0.0
H6 H 0.62867 0.96923 0.96787 0.0
H7 H 0.60697 0.06124 0.94497 0.0
H8 H 0.5592 0.05972 0.96668 0.0
H9 H 0.46233 0.05635 0.96322 0.0
H10 H 0.41544 0.05626 0.94041 0.0
H11 H 0.38901 0.96881 0.96948 0.0
H12 H 0.43637 0.96863 0.99174 0.0
H13 H 0.51001 0.01761 0.96332 0.0
H14 H 0.43386 0.05004 0.01584 0.0
H15 H 0.38651 0.04867 0.03809 0.0
H16 H 0.41684 0.96473 0.07006 0.0
H17 H 0.46386 0.96576 0.04742 0.0
C18 C 0.56655 0.00824 0.02998 0.0
C19 C 0.57323 0.98272 0.04359 0.0
C20 C 0.60012 0.98214 0.0565 0.0
C21 C 0.62073 0.00725 0.05625 0.0
C22 C 0.61391 0.03278 0.04255 0.0
C23 C 0.5871 0.03325 0.02955 0.0
C24 C 0.53768 0.00906 0.01669 0.0
C25 C 0.50947 0.00677 0.02805 0.0
C26 C 0.53784 0.01319 0.99311 0.0
C27 C 0.56691 0.01408 0.98008 0.0
C28 C 0.58697 0.98883 0.98035 0.0
C29 C 0.61407 0.9894 0.9677 0.0
C30 C 0.62176 0.01533 0.95459 0.0
C31 C 0.60161 0.04068 0.95453 0.0
C32 C 0.57436 0.03995 0.96703 0.0
C33 C 0.45275 0.01263 0.97932 0.0
C34 C 0.44645 0.03714 0.96464 0.0
C35 C 0.41951 0.03718 0.95176 0.0
C36 C 0.39843 0.01257 0.95319 0.0
C37 C 0.40489 0.98798 0.96784 0.0
C38 C 0.43181 0.98798 0.98074 0.0
C39 C 0.48152 0.01257 0.99281 0.0
C40 C 0.5098 0.01513 0.98149 0.0
C41 C 0.48133 0.00871 0.01648 0.0
C42 C 0.45231 0.00778 0.02972 0.0
C43 C 0.43013 0.03105 0.02736 0.0
C44 C 0.40311 0.03031 0.04011 0.0
C45 C 0.39801 0.00658 0.05578 0.0
C46 C 0.4203 0.98344 0.05825 0.0
C47 C 0.44714 0.984 0.04531 0.0
H48 H 0.05294 0.46382 0.46233 0.0
H49 H 0.05397 0.41654 0.4399 0.0
H50 H 0.97049 0.38556 0.47238 0.0
H51 H 0.96916 0.43307 0.49442 0.0
H52 H 0.01363 0.50923 0.46379 0.0
H53 H 0.0525 0.43797 0.51924 0.0
H54 H 0.05309 0.39038 0.54143 0.0
H55 H 0.963 0.41204 0.56766 0.0
H56 H 0.96248 0.45953 0.54537 0.0
H57 H 0.96162 0.55586 0.5466 0.0
H58 H 0.96086 0.60291 0.56927 0.0
H59 H 0.0474 0.63112 0.53977 0.0
H60 H 0.04845 0.58365 0.51766 0.0
H61 H 1.00244 0.50916 0.54687 0.0
H62 H 0.96366 0.58014 0.49102 0.0
H63 H 0.96328 0.62773 0.46883 0.0
H64 H 0.0541 0.60667 0.44372 0.0
H65 H 0.05437 0.5591 0.46597 0.0
C66 C 0.01121 0.45188 0.4803 0.0
C67 C 0.03482 0.44688 0.4646 0.0
C68 C 0.03538 0.41989 0.45178 0.0
C69 C 0.01238 0.39732 0.45447 0.0
C70 C 0.98878 0.40233 0.4702 0.0
C71 C 0.98806 0.42945 0.48284 0.0
C72 C 0.01032 0.48093 0.49353 0.0
C73 C 0.01165 0.50915 0.48199 0.0
C74 C 0.00699 0.481 0.51722 0.0
C75 C 0.00736 0.45215 0.53057 0.0
C76 C 0.03284 0.43238 0.5297 0.0
C77 C 0.03323 0.40533 0.54247 0.0
C78 C 0.00806 0.39751 0.55622 0.0
C79 C 0.98256 0.41734 0.55703 0.0
C80 C 0.98232 0.44454 0.54444 0.0
C81 C 0.00494 0.56635 0.53029 0.0
C82 C 0.9804 0.57221 0.54502 0.0
C83 C 0.97989 0.59921 0.55783 0.0
C84 C 0.00404 0.62079 0.55628 0.0
C85 C 0.02859 0.61485 0.5415 0.0
C86 C 0.02906 0.58787 0.52867 0.0
C87 C 0.0058 0.53733 0.51712 0.0
C88 C 0.00446 0.50915 0.52867 0.0
C89 C 0.00924 0.5373 0.49346 0.0
C90 C 0.00911 0.56622 0.4802 0.0
C91 C 0.98353 0.58586 0.48081 0.0
C92 C 0.98327 0.61291 0.46805 0.0
C93 C 0.00869 0.62088 0.4546 0.0
C94 C 0.03433 0.60123 0.45411 0.0
C95 C 0.03444 0.57401 0.46667 0.0
Li96 Li 0.01116 0.03631 0.27105 0.0
Li97 Li 0.00875 0.98013 0.26945 0.0
Li98 Li 0.03762 0.00933 0.23976 0.0
Li99 Li 0.98097 0.0081 0.241 0.0
C100 C 0.07246 0.01821 0.282 0.0
N101 N 0.12617 0.04143 0.3005 0.0
C102 C 0.0834 0.00677 0.30248 0.0
C103 C 0.08915 0.04109 0.27077 0.0
C104 C 0.11049 0.01892 0.31162 0.0
C105 C 0.11616 0.05262 0.28042 0.0
C106 C 0.95889 0.99562 0.29141 0.0
C107 C 0.92523 0.95571 0.30545 0.0
N108 N 0.92974 0.96625 0.32676 0.0
C109 C 0.96302 0.0062 0.31342 0.0
C110 C 0.93967 0.97032 0.28734 0.0
C111 C 0.94812 0.991 0.33107 0.0
C112 C 0.99558 0.09681 0.28339 0.0
N113 N 0.01161 0.0716 0.29013 0.0
C114 C 0.0273 0.09727 0.32385 0.0
C115 C 0.02701 0.07123 0.31004 0.0
C116 C 0.01142 0.12389 0.31714 0.0
C117 C 0.99532 0.12339 0.29662 0.0
H118 H 0.98302 0.09627 0.26768 0.0
H119 H 0.0389 0.05067 0.31532 0.0
C120 C 1.00264 0.91615 0.27874 0.0
N121 N 0.0089 0.94417 0.28791 0.0
C122 C 1.00199 0.88984 0.29227 0.0
C123 C 0.01478 0.92163 0.32436 0.0
C124 C 0.01497 0.94734 0.31024 0.0
C125 C 0.00815 0.89241 0.3154 0.0
H126 H 0.99818 0.9142 0.26093 0.0
H127 H 0.01962 0.96994 0.31711 0.0
C128 C 0.01641 0.07041 0.22635 0.0
N129 N 0.03194 0.12298 0.20256 0.0
C130 C 0.00324 0.07608 0.20528 0.0
C131 C 0.03708 0.09181 0.23545 0.0
C132 C 0.01151 0.10268 0.19347 0.0
C133 C 0.04473 0.11816 0.22314 0.0
C134 C 0.99786 0.9572 0.21867 0.0
C135 C 0.01262 0.95803 0.19778 0.0
C136 C 0.97058 0.94033 0.22113 0.0
C137 C 0.99962 0.94223 0.17961 0.0
C138 C 0.95829 0.92489 0.20254 0.0
N139 N 0.97293 0.92617 0.18234 0.0
C140 C 0.09686 0.99074 0.2268 0.0
C141 C 0.07399 0.02613 0.20153 0.0
C142 C 0.12341 0.98948 0.21358 0.0
N143 N 0.07295 0.00904 0.22068 0.0
C144 C 0.10014 0.02572 0.18789 0.0
C145 C 0.12537 0.00723 0.19383 0.0
H146 H 0.09525 0.97708 0.24198 0.0
H147 H 0.05453 0.03997 0.19671 0.0
C148 C 0.91682 0.01117 0.23282 0.0
N149 N 0.94482 0.00932 0.22273 0.0
C150 C 0.88997 0.01155 0.21986 0.0
C151 C 0.92131 0.00827 0.18637 0.0
C152 C 0.9475 0.0082 0.19996 0.0
C153 C 0.89197 0.00995 0.19627 0.0
H154 H 0.91532 0.01243 0.25095 0.0
H155 H 0.97003 0.00699 0.19233 0.0
O156 O 0.04592 0.00652 0.27287 0.0
O157 O 0.97385 0.00974 0.27397 0.0
O158 O 0.00842 0.04447 0.23815 0.0
O159 O 0.01013 0.97274 0.2366 0.0
H160 H 0.07107 0.98879 0.3113 0.0
H161 H 0.08162 0.04958 0.25464 0.0
H162 H 0.11909 0.01042 0.32752 0.0
H163 H 0.12925 0.07037 0.2719 0.0
H164 H 0.91048 0.93597 0.30257 0.0
H165 H 0.9778 0.02575 0.31685 0.0
H166 H 0.93617 0.9619 0.27041 0.0
H167 H 0.95126 0.99881 0.3482 0.0
H168 H 0.0401 0.09666 0.33948 0.0
H169 H 0.98232 0.14319 0.29099 0.0
H170 H 0.99715 0.86768 0.28466 0.0
H171 H 0.01929 0.92466 0.34214 0.0
H172 H 0.98695 0.06005 0.19804 0.0
H173 H 0.04682 0.08845 0.25198 0.0
H174 H 1.00164 0.10721 0.17709 0.0
H175 H 0.06073 0.13485 0.23 0.0
H176 H 0.03381 0.97084 0.19558 0.0
H177 H 0.95882 0.93949 0.23715 0.0
H178 H 0.01072 0.94279 0.16333 0.0
H179 H 0.93707 0.91196 0.20417 0.0
H180 H 0.14201 0.97446 0.21865 0.0
H181 H 0.10063 0.04003 0.17297 0.0
H182 H 0.86793 0.01342 0.22825 0.0
H183 H 0.92406 0.00658 0.16831 0.0
Li184 Li 0.98141 0.01062 0.76951 0.0
Li185 Li 0.03787 0.00901 0.76893 0.0
Li186 Li 0.00903 0.03767 0.74023 0.0
Li187 Li 0.00936 0.98108 0.74086 0.0
C188 C 0.99944 0.06141 0.7905 0.0
N189 N 0.97437 0.09198 0.82687 0.0
C190 C 0.01265 0.05838 0.81183 0.0
C191 C 0.97365 0.08017 0.78762 0.0
C192 C 0.99961 0.07401 0.83001 0.0
C193 C 0.96126 0.09536 0.80623 0.0
C194 C 0.00421 0.94384 0.77552 0.0
C195 C 0.02264 0.89179 0.77146 0.0
N196 N 0.99405 0.88099 0.77658 0.0
C197 C 0.97504 0.93225 0.78082 0.0
C198 C 0.02827 0.92349 0.7709 0.0
C199 C 0.97037 0.90038 0.78126 0.0
C200 C 0.91762 0.01326 0.7789 0.0
N201 N 0.94598 0.01111 0.78841 0.0
C202 C 0.92389 0.00969 0.82522 0.0
C203 C 0.94953 0.00887 0.81107 0.0
C204 C 0.8942 0.01221 0.81593 0.0
C205 C 0.89132 0.01379 0.79238 0.0
H206 H 0.91539 0.0143 0.76082 0.0
H207 H 0.97234 0.00659 0.81816 0.0
C208 C 0.09166 0.03535 0.78777 0.0
N209 N 0.07381 0.00957 0.78731 0.0
C210 C 0.11829 0.03627 0.80093 0.0
C211 C 0.10721 0.98439 0.81337 0.0
C212 C 0.0809 0.98441 0.79986 0.0
C213 C 0.12642 0.01053 0.81399 0.0
H214 H 0.08524 0.05516 0.7778 0.0
H215 H 0.06601 0.96443 0.79951 0.0
C216 C 0.95753 0.02048 0.71929 0.0
N217 N 0.92669 0.04557 0.68302 0.0
C218 C 0.95907 0.00633 0.69819 0.0
C219 C 0.94012 0.04725 0.72198 0.0
C220 C 0.94333 0.0194 0.68006 0.0
C221 C 0.92477 0.05963 0.70342 0.0
C222 C 0.07521 0.01338 0.73434 0.0
C223 C 0.08741 0.04233 0.72909 0.0
C224 C 0.09502 0.98887 0.73898 0.0
C225 C 0.11935 0.04635 0.72873 0.0
C226 C 0.12681 0.99385 0.7385 0.0
N227 N 0.13821 0.02225 0.73343 0.0
C228 C 0.01021 0.10158 0.73101 0.0
C229 C 0.00962 0.06965 0.69864 0.0
C230 C 0.01052 0.12799 0.71759 0.0
N231 N 0.00949 0.07318 0.72138 0.0
C232 C 0.00928 0.09543 0.68459 0.0
C233 C 0.00975 0.12503 0.69408 0.0
H234 H 0.01065 0.10373 0.74912 0.0
H235 H 0.00993 0.0468 0.69143 0.0
C236 C 0.98224 0.92746 0.72216 0.0
N237 N 0.00815 0.94513 0.72248 0.0
C238 C 0.98099 0.90083 0.70901 0.0
C239 C 0.03278 0.91156 0.69628 0.0
C240 C 0.03309 0.93787 0.70979 0.0
C241 C 0.00652 0.89251 0.69582 0.0
H242 H 0.9626 0.93403 0.73223 0.0
H243 H 0.05317 0.95261 0.71004 0.0
O244 O 0.01158 0.04595 0.77256 0.0
O245 O 0.00913 0.97496 0.77463 0.0
O246 O 0.97305 0.00824 0.73719 0.0
O247 O 0.04402 0.00911 0.73517 0.0
H248 H 0.03256 0.04389 0.81438 0.0
H249 H 0.96316 0.08274 0.77122 0.0
H250 H 0.00948 0.07176 0.84664 0.0
H251 H 0.94118 0.10979 0.80428 0.0
H252 H 0.04097 0.87577 0.76775 0.0
H253 H 0.95615 0.94766 0.78438 0.0
H254 H 0.05093 0.93209 0.7666 0.0
H255 H 0.94789 0.89108 0.78525 0.0
H256 H 0.92738 0.0087 0.84324 0.0
H257 H 0.86897 0.015 0.78437 0.0
H258 H 0.1325 0.05681 0.80067 0.0
H259 H 0.11216 0.96425 0.82348 0.0
H260 H 0.97249 0.98565 0.69579 0.0
H261 H 0.93874 0.05852 0.73818 0.0
H262 H 0.94443 0.00878 0.66362 0.0
H263 H 0.91139 0.08046 0.70523 0.0
H264 H 0.07242 0.06156 0.7255 0.0
H265 H 0.08594 0.96637 0.74323 0.0
H266 H 0.12913 0.06866 0.72479 0.0
H267 H 0.14242 0.97517 0.74223 0.0
H268 H 0.01091 0.15049 0.72548 0.0
H269 H 0.00912 0.0923 0.66651 0.0
H270 H 0.96036 0.88675 0.70938 0.0
H271 H 0.05275 0.90647 0.68606 0.0
H272 H 0.39368 0.99695 0.10104 0.0
H273 H 0.34718 0.9966 0.12419 0.0
H274 H 0.292 0.01467 0.06526 0.0
H275 H 0.33863 0.0157 0.04211 0.0
H276 H 0.27294 0.04893 0.09855 0.0
H277 H 0.2959 0.94182 0.09006 0.0
H278 H 0.32804 0.89514 0.09135 0.0
H279 H 0.33987 0.90634 0.16262 0.0
H280 H 0.30813 0.95335 0.1617 0.0
H281 H 0.12883 0.00849 0.14773 0.0
H282 H 0.17505 0.0085 0.12434 0.0
H283 H 0.23175 1.00326 0.18378 0.0
H284 H 0.1857 0.00412 0.2074 0.0
H285 H 0.24935 0.96206 0.15009 0.0
H286 H 0.22568 0.06983 0.1577 0.0
H287 H 0.19236 0.11561 0.15564 0.0
H288 H 0.18037 0.10154 0.08465 0.0
H289 H 0.21328 0.05538 0.08636 0.0
C290 C 0.3716 1.00063 0.09302 0.0
C291 C 0.36973 0.00619 0.06976 0.0
C292 C 0.34503 1.00038 0.10625 0.0
C293 C 0.31599 0.00511 0.09643 0.0
C294 C 0.31412 0.01093 0.07322 0.0
C295 C 0.34075 0.01153 0.06002 0.0
C296 C 0.28764 0.00442 0.11043 0.0
C297 C 0.26759 0.0297 0.10956 0.0
C298 C 0.28087 0.97961 0.12514 0.0
C299 C 0.29987 0.95128 0.12577 0.0
C300 C 0.30554 0.93446 0.10598 0.0
C301 C 0.32366 0.90792 0.10665 0.0
C302 C 0.33605 0.89783 0.12705 0.0
C303 C 0.33028 0.91421 0.14683 0.0
C304 C 0.31221 0.94079 0.14625 0.0
C305 C 0.15111 0.00771 0.1559 0.0
C306 C 0.15348 0.00647 0.17951 0.0
C307 C 0.1775 0.00756 0.14247 0.0
C308 C 0.2068 0.0061 0.15235 0.0
C309 C 0.20932 0.00433 0.17584 0.0
C310 C 0.18294 0.00468 0.1893 0.0
C311 C 0.23484 0.00651 0.13816 0.0
C312 C 0.25477 0.9812 0.13901 0.0
C313 C 0.24135 0.03112 0.12328 0.0
C314 C 0.22169 0.05897 0.1222 0.0
C315 C 0.21573 0.07634 0.14168 0.0
C316 C 0.19696 0.10239 0.14057 0.0
C317 C 0.18419 0.11143 0.12004 0.0
C318 C 0.19024 0.09449 0.10056 0.0
C319 C 0.20897 0.0684 0.10158 0.0
H320 H 0.16966 0.13161 0.11921 0.0
H321 H 0.35007 0.87727 0.12753 0.0
H322 H 0.96243 0.35446 0.56046 0.0
H323 H 0.96282 0.30773 0.58346 0.0
H324 H 0.05477 0.32964 0.60613 0.0
H325 H 0.05469 0.37603 0.58271 0.0
H326 H 0.05135 0.27104 0.59764 0.0
H327 H 0.98988 0.34159 0.6396 0.0
H328 H 0.94798 0.37864 0.6463 0.0
H329 H 0.88093 0.30871 0.63115 0.0
H330 H 0.92246 0.27132 0.62405 0.0
H331 H 0.04903 0.17412 0.69551 0.0
H332 H 0.04875 0.21988 0.67123 0.0
H333 H 0.96943 0.18426 0.636 0.0
H334 H 0.96995 0.13816 0.65997 0.0
H335 H 0.96635 0.24914 0.65115 0.0
H336 H 0.03081 0.17865 0.6098 0.0
H337 H 0.07431 0.14284 0.60533 0.0
H338 H 0.13782 0.21519 0.62246 0.0
H339 H 0.09462 0.25134 0.62737 0.0
C340 C 0.98266 0.34933 0.57042 0.0
C341 C 0.00847 0.36893 0.56989 0.0
C342 C 0.98286 0.32266 0.5836 0.0
C343 C 0.00864 0.31538 0.59684 0.0
C344 C 0.03461 0.33475 0.59607 0.0
C345 C 0.03456 0.36123 0.58268 0.0
C346 C 0.00857 0.28757 0.61145 0.0
C347 C 0.03293 0.26652 0.60953 0.0
C348 C 0.98436 0.28134 0.6268 0.0
C349 C 0.9593 0.30374 0.63107 0.0
C350 C 0.96621 0.33417 0.63752 0.0
C351 C 0.94252 0.35523 0.64142 0.0
C352 C 0.91181 0.34606 0.63909 0.0
C353 C 0.90473 0.31579 0.63291 0.0
C354 C 0.92833 0.29465 0.62897 0.0
C355 C 0.03154 0.17613 0.68259 0.0
C356 C 0.00954 0.15269 0.67953 0.0
C357 C 0.03146 0.20215 0.66874 0.0
C358 C 0.00911 0.20531 0.65185 0.0
C359 C 0.98685 0.18214 0.64896 0.0
C360 C 0.98727 0.15585 0.66254 0.0
C361 C 0.009 0.23287 0.63721 0.0
C362 C 0.98466 0.25381 0.6392 0.0
C363 C 0.03344 0.23926 0.62222 0.0
C364 C 0.05945 0.2176 0.61919 0.0
C365 C 0.05402 0.18685 0.61283 0.0
C366 C 0.07863 0.16651 0.61017 0.0
C367 C 0.10881 0.17671 0.61367 0.0
C368 C 0.11443 0.20731 0.61979 0.0
C369 C 0.08989 0.22774 0.62249 0.0
H370 H 0.12783 0.16093 0.6116 0.0
H371 H 0.89351 0.36239 0.64212 0.0
H372 H 0.62708 0.98482 0.09914 0.0
H373 H 0.67318 0.98476 0.12258 0.0
H374 H 0.72395 0.0305 0.06981 0.0
H375 H 0.67833 0.02917 0.04576 0.0
H376 H 0.75797 0.98711 0.08775 0.0
H377 H 0.69704 0.06973 0.11676 0.0
H378 H 0.6505 0.09449 0.13201 0.0
H379 H 0.65197 0.03328 0.18876 0.0
H380 H 0.6983 0.00786 0.17369 0.0
H381 H 0.88323 0.03837 0.15553 0.0
H382 H 0.83733 0.03714 0.1318 0.0
H383 H 0.79047 0.98129 0.18114 0.0
H384 H 0.83657 0.98161 0.20477 0.0
H385 H 0.75479 0.02994 0.16512 0.0
H386 H 0.81688 0.94794 0.13536 0.0
H387 H 0.86417 0.92494 0.11989 0.0
H388 H 0.86123 0.98765 0.06405 0.0
H389 H 0.81413 0.01135 0.07939 0.0
C390 C 0.64813 0.9945 0.09236 0.0
C391 C 0.64891 0.00707 0.07054 0.0
C392 C 0.67441 0.99481 0.10592 0.0
C393 C 0.70193 0.00811 0.09813 0.0
C394 C 0.70293 0.02028 0.07625 0.0
C395 C 0.67672 0.01976 0.0626 0.0
C396 C 0.72968 0.00919 0.11274 0.0
C397 C 0.75734 0.99687 0.10455 0.0
C398 C 0.72879 0.02141 0.13484 0.0
C399 C 0.70097 0.03669 0.14398 0.0
C400 C 0.6873 0.06139 0.13241 0.0
C401 C 0.66098 0.07557 0.14103 0.0
C402 C 0.64824 0.06541 0.16131 0.0
C403 C 0.66184 0.0411 0.17304 0.0
C404 C 0.68815 0.02681 0.16447 0.0
C405 C 0.86333 0.0255 0.16127 0.0
C406 C 0.86373 0.00995 0.18206 0.0
C407 C 0.83705 0.02496 0.14771 0.0
C408 C 0.81061 0.00893 0.15465 0.0
C409 C 0.81066 0.99384 0.17551 0.0
C410 C 0.837 0.99419 0.18904 0.0
C411 C 0.78291 0.00788 0.14009 0.0
C412 C 0.75532 0.02021 0.14831 0.0
C413 C 0.78393 0.99594 0.11796 0.0
C414 C 0.81215 0.98162 0.10864 0.0
C415 C 0.82645 0.957 0.11988 0.0
C416 C 0.8532 0.94381 0.11112 0.0
C417 C 0.86574 0.95488 0.09103 0.0
C418 C 0.85151 0.97913 0.07963 0.0
C419 C 0.82478 0.99243 0.08834 0.0
H420 H 0.88645 0.94464 0.08427 0.0
H421 H 0.62786 0.07642 0.16796 0.0
H422 H 0.05235 0.64666 0.57913 0.0
H423 H 0.05203 0.6929 0.60259 0.0
H424 H 0.95516 0.70479 0.58926 0.0
H425 H 0.95548 0.65895 0.56525 0.0
H426 H 0.98671 0.75896 0.58609 0.0
H427 H 0.97877 0.67549 0.63891 0.0
H428 H 0.9942 0.62655 0.65662 0.0
H429 H 0.08167 0.66597 0.67453 0.0
H430 H 0.06692 0.71504 0.65663 0.0
H431 H 0.95808 0.86947 0.67127 0.0
H432 H 0.95702 0.82318 0.64795 0.0
H433 H 0.05236 0.80608 0.66389 0.0
H434 H 0.05318 0.85147 0.68814 0.0
H435 H 0.0208 0.75426 0.66571 0.0
H436 H 0.0298 0.83718 0.61268 0.0
H437 H 0.01537 0.88617 0.59458 0.0
H438 H 0.92733 0.84812 0.57661 0.0
H439 H 0.94108 0.799 0.59489 0.0
C440 C 0.03104 0.65927 0.581 0.0
C441 C 0.00391 0.64909 0.57035 0.0
C442 C 0.03083 0.68554 0.59458 0.0
C443 C 0.00348 0.70208 0.59788 0.0
C444 C 0.97648 0.69228 0.58701 0.0
C445 C 0.97665 0.66597 0.57345 0.0
C446 C 0.00309 0.72959 0.61269 0.0
C447 C 0.99374 0.75789 0.60359 0.0
C448 C 0.01299 0.72829 0.63536 0.0
C449 C 0.02184 0.69885 0.64624 0.0
C450 C 1.00139 0.67365 0.64647 0.0
C451 C 0.01 0.6459 0.65657 0.0
C452 C 0.03893 0.64313 0.66665 0.0
C453 C 0.05928 0.66814 0.6667 0.0
C454 C 0.0508 0.69593 0.65659 0.0
C455 C 0.97874 0.85569 0.67006 0.0
C456 C 0.00576 0.86432 0.68156 0.0
C457 C 0.9782 0.8294 0.65648 0.0
C458 C 0.00475 0.81139 0.65387 0.0
C459 C 0.03163 0.8197 0.66554 0.0
C460 C 0.03214 0.84586 0.67924 0.0
C461 C 0.00451 0.78375 0.63911 0.0
C462 C 0.01373 0.7554 0.64822 0.0
C463 C 0.99464 0.78505 0.61641 0.0
C464 C 0.98636 0.81452 0.60535 0.0
C465 C 0.00727 0.83934 0.60502 0.0
C466 C 0.99923 0.86711 0.59471 0.0
C467 C 0.97043 0.87028 0.58451 0.0
C468 C 0.94962 0.84564 0.58455 0.0
C469 C 0.95754 0.81782 0.59487 0.0
H470 H 0.96425 0.89181 0.57653 0.0
H471 H 0.04555 0.62162 0.67446 0.0
H472 H 0.37307 0.96408 0.93018 0.0
H473 H 0.32667 0.96403 0.90688 0.0
H474 H 0.31358 0.06064 0.92077 0.0
H475 H 0.35952 0.06067 0.94464 0.0
H476 H 0.25995 0.02863 0.92385 0.0
H477 H 0.34306 0.03765 0.87088 0.0
H478 H 0.39198 0.02273 0.85297 0.0
H479 H 0.35311 0.93509 0.83477 0.0
H480 H 0.30407 0.94934 0.85286 0.0
H481 H 0.14962 0.05856 0.83887 0.0
H482 H 0.19587 0.05913 0.86222 0.0
H483 H 0.2126 0.96387 0.84567 0.0
H484 H 0.16721 0.96353 0.8214 0.0
H485 H 0.26454 0.99545 0.84404 0.0
H486 H 0.18173 0.98572 0.897 0.0
H487 H 0.13277 0.99992 0.91517 0.0
H488 H 0.1708 0.08777 0.93375 0.0
H489 H 0.21988 0.07426 0.9154 0.0
C490 C 0.36015 0.98525 0.92847 0.0
C491 C 0.37004 0.01241 0.93922 0.0
C492 C 0.3338 0.98525 0.91497 0.0
C493 C 0.31688 0.01242 0.91187 0.0
C494 C 0.32638 0.03945 0.92286 0.0
C495 C 0.35276 0.03948 0.93634 0.0
C496 C 0.28929 0.01266 0.89713 0.0
C497 C 0.261 0.02177 0.90632 0.0
C498 C 0.29056 1.00301 0.8744 0.0
C499 C 0.31999 0.99445 0.86342 0.0
C500 C 0.34502 0.01511 0.86321 0.0
C501 C 0.37276 0.00679 0.853 0.0
C502 C 0.37568 0.97795 0.84279 0.0
C503 C 0.35083 0.95741 0.84271 0.0
C504 C 0.32305 0.9656 0.85292 0.0
C505 C 0.16331 0.03781 0.83996 0.0
C506 C 0.15458 0.01096 0.82828 0.0
C507 C 0.18958 0.03807 0.85355 0.0
C508 C 0.20747 0.0114 0.85599 0.0
C509 C 0.19906 0.98469 0.84415 0.0
C510 C 0.17291 0.98445 0.83044 0.0
C511 C 0.2351 0.01137 0.87075 0.0
C512 C 0.26343 1.00231 0.86157 0.0
C513 C 0.23383 0.02096 0.89352 0.0
C514 C 0.20438 0.02909 0.90463 0.0
C515 C 0.17958 0.00816 0.90481 0.0
C516 C 0.15181 0.01607 0.91517 0.0
C517 C 0.14865 0.04476 0.92556 0.0
C518 C 0.17327 0.06557 0.92567 0.0
C519 C 0.20108 0.05779 0.91531 0.0
H520 H 0.12714 0.05084 0.93357 0.0
H521 H 0.39717 0.97155 0.83489 0.0
H522 H 0.02235 0.39243 0.40924 0.0
H523 H 0.0221 0.34556 0.38632 0.0
H524 H 1.00261 0.29118 0.4454 0.0
H525 H 0.00309 0.338 0.46847 0.0
H526 H 0.04859 0.26595 0.41843 0.0
H527 H 0.94617 0.30557 0.4102 0.0
H528 H 0.90711 0.345 0.40177 0.0
H529 H 0.94131 0.35276 0.33423 0.0
H530 H 0.9809 0.31367 0.34236 0.0
H531 H 0.00572 0.12738 0.36295 0.0
H532 H 0.00626 0.17362 0.38644 0.0
H533 H 0.01782 0.23009 0.32728 0.0
H534 H 0.01732 0.18394 0.30369 0.0
H535 H 0.97564 0.25423 0.35469 0.0
H536 H 0.0782 0.21545 0.3625 0.0
H537 H 0.11798 0.17659 0.37055 0.0
H538 H 0.08472 0.16791 0.43828 0.0
H539 H 0.04443 0.20643 0.43054 0.0
C540 C 0.01824 0.37045 0.41736 0.0
C541 C 0.01269 0.36886 0.44063 0.0
C542 C 0.01789 0.34375 0.40424 0.0
C543 C 0.01209 0.31496 0.41415 0.0
C544 C 0.00705 0.31321 0.43743 0.0
C545 C 0.00713 0.33995 0.45055 0.0
C546 C 0.01121 0.28669 0.40017 0.0
C547 C 0.03238 0.26315 0.40468 0.0
C548 C 0.99053 0.28346 0.38191 0.0
C549 C 0.96671 0.30692 0.37696 0.0
C550 C 0.94554 0.31588 0.39361 0.0
C551 C 0.92327 0.33813 0.38888 0.0
C552 C 0.92178 0.35144 0.3675 0.0
C553 C 0.94252 0.34246 0.35079 0.0
C554 C 0.96487 0.32024 0.35545 0.0
C555 C 0.00866 0.14962 0.35496 0.0
C556 C 0.01159 0.15197 0.33145 0.0
C557 C 0.00893 0.17604 0.3684 0.0
C558 C 0.01243 0.20531 0.35864 0.0
C559 C 0.01505 0.20775 0.33517 0.0
C560 C 0.01469 0.18135 0.32171 0.0
C561 C 0.01311 0.23341 0.37289 0.0
C562 C 0.99188 0.25695 0.36843 0.0
C563 C 0.03385 0.23671 0.39113 0.0
C564 C 0.0581 0.21359 0.39586 0.0
C565 C 0.0792 0.20507 0.37905 0.0
C566 C 0.10187 0.18314 0.38357 0.0
C567 C 0.10382 0.16973 0.40489 0.0
C568 C 0.08315 0.17829 0.42176 0.0
C569 C 0.06041 0.20018 0.41732 0.0
H570 H 0.12139 0.15276 0.40836 0.0
H571 H 0.90451 0.36865 0.36387 0.0
H572 H 0.63009 0.04018 0.91255 0.0
H573 H 0.67677 0.04045 0.88983 0.0
H574 H 0.7245 0.99004 0.9417 0.0
H575 H 0.67842 0.99138 0.96519 0.0
H576 H 0.76095 0.03228 0.92572 0.0
H577 H 0.6969 0.95478 0.89267 0.0
H578 H 0.64967 0.93289 0.87596 0.0
H579 H 0.6549 0.99818 0.82181 0.0
H580 H 0.70195 0.02076 0.83837 0.0
H581 H 0.8839 0.98042 0.85524 0.0
H582 H 0.83833 0.98204 0.87928 0.0
H583 H 0.79547 0.04624 0.83377 0.0
H584 H 0.84133 0.04577 0.81002 0.0
H585 H 0.75719 0.99628 0.84652 0.0
H586 H 0.82274 0.07291 0.88079 0.0
H587 H 0.8709 0.09216 0.89777 0.0
H588 H 0.86374 0.02439 0.95016 0.0
H589 H 0.81573 0.00442 0.93328 0.0
C590 C 0.65061 0.02955 0.91934 0.0
C591 C 0.65035 0.01567 0.94074 0.0
C592 C 0.67722 0.02934 0.90615 0.0
C593 C 0.70403 0.01474 0.91384 0.0
C594 C 0.70405 1.00128 0.93532 0.0
C595 C 0.67753 1.00178 0.94864 0.0
C596 C 0.73206 0.01359 0.89951 0.0
C597 C 0.76016 0.02399 0.90851 0.0
C598 C 0.73105 1.0032 0.87691 0.0
C599 C 0.70279 0.98965 0.86688 0.0
C600 C 0.68785 0.96462 0.87729 0.0
C601 C 0.66113 0.95207 0.86783 0.0
C602 C 0.64924 0.96419 0.84787 0.0
C603 C 0.66411 0.98885 0.83729 0.0
C604 C 0.69082 1.00151 0.84669 0.0
C605 C 0.86503 0.99529 0.85046 0.0
C606 C 0.86643 0.01301 0.83064 0.0
C607 C 0.83892 0.99602 0.86418 0.0
C608 C 0.81362 0.01434 0.85832 0.0
C609 C 0.81474 0.03186 0.83852 0.0
C610 C 0.84095 0.0314 0.8249 0.0
C611 C 0.78582 0.01503 0.87275 0.0
C612 C 0.75785 0.00451 0.86375 0.0
C613 C 0.78703 0.02489 0.89541 0.0
C614 C 0.81581 0.03697 0.90564 0.0
C615 C 0.83157 0.06193 0.89582 0.0
C616 C 0.85882 0.07301 0.90545 0.0
C617 C 0.87042 0.05945 0.925 0.0
C618 C 0.85475 0.03484 0.935 0.0
C619 C 0.8275 0.02365 0.92542 0.0
H620 H 0.89152 0.06806 0.93243 0.0
H621 H 0.62856 0.95443 0.84057 0.0
H622 H 0.96265 0.64146 0.42724 0.0
H623 H 0.96244 0.68804 0.40393 0.0
H624 H 0.05353 0.71114 0.4276 0.0
H625 H 0.05387 0.66455 0.45096 0.0
H626 H 0.01178 0.76131 0.4277 0.0
H627 H 0.04752 0.68177 0.37776 0.0
H628 H 0.04492 0.63146 0.35858 0.0
H629 H 0.95923 0.65697 0.32784 0.0
H630 H 0.96109 0.70729 0.34712 0.0
H631 H 0.04975 0.8766 0.34789 0.0
H632 H 0.04926 0.83091 0.37194 0.0
H633 H 0.96512 0.80017 0.3403 0.0
H634 H 0.96579 0.84565 0.31597 0.0
H635 H 1.0029 0.75363 0.34464 0.0
H636 H 0.96604 0.83255 0.39372 0.0
H637 H 0.96667 0.88268 0.41322 0.0
H638 H 0.05135 0.85862 0.44602 0.0
H639 H 0.05146 0.80848 0.42646 0.0
C640 C 0.98253 0.65659 0.42757 0.0
C641 C 0.00831 0.64939 0.44085 0.0
C642 C 0.98245 0.68306 0.41419 0.0
C643 C 0.00805 0.70288 0.41397 0.0
C644 C 0.03359 0.69608 0.42753 0.0
C645 C 0.03383 0.66942 0.44073 0.0
C646 C 0.00828 0.73058 0.3994 0.0
C647 C 0.01024 0.7597 0.40951 0.0
C648 C 0.0054 0.72836 0.37575 0.0
C649 C 0.00429 0.69817 0.36408 0.0
C650 C 0.02798 0.67655 0.36707 0.0
C651 C 0.02667 0.64805 0.35615 0.0
C652 C 1.00188 0.64099 0.34205 0.0
C653 C 0.97839 0.66245 0.3388 0.0
C654 C 0.97958 0.69097 0.34971 0.0
C655 C 0.03103 0.86021 0.34619 0.0
C656 C 0.00775 0.86475 0.3301 0.0
C657 C 0.03074 0.83412 0.35996 0.0
C658 C 0.00691 0.81227 0.35816 0.0
C659 C 0.98375 0.81668 0.342 0.0
C660 C 0.98417 0.84264 0.32808 0.0
C661 C 0.0064 0.7846 0.37289 0.0
C662 C 0.00439 0.75539 0.36282 0.0
C663 C 0.00892 0.78677 0.39661 0.0
C664 C 0.00891 0.81688 0.40845 0.0
C665 C 0.98492 0.83804 0.40495 0.0
C666 C 0.98513 0.86645 0.41604 0.0
C667 C 0.00908 0.87387 0.43081 0.0
C668 C 0.03284 0.85286 0.43455 0.0
C669 C 0.03277 0.82443 0.42348 0.0
H670 H 0.00919 0.89587 0.43938 0.0
H671 H 1.00091 0.61891 0.3336 0.0
loop_
_geom_bond_atom_site_label_1
_geom_bond_atom_site_label_2
_geom_bond_distance
_geom_bond_site_symmetry_2
_ccdc_geom_bond_type
H0 C19 0.949 . S
H1 C20 0.950 . S
H2 C22 0.950 . S
H3 C23 0.950 . S
H4 C25 0.950 1_565 S
H5 C28 0.950 . S
H6 C29 0.950 . S
H7 C31 0.951 . S
H8 C32 0.949 . S
H9 C34 0.949 . S
H10 C35 0.950 . S
H11 C37 0.950 . S
H12 C38 0.950 . S
H13 C40 0.950 . S
H14 C43 0.950 . S
H15 C44 0.950 . S
H16 C46 0.951 . S
H17 C47 0.949 . S
C18 C19 1.376 1_545 S
C18 C23 1.386 . S
C18 C24 1.483 . S
C19 H0 0.949 . S
C19 C18 1.376 1_565 S
C19 C20 1.397 . S
C20 H1 0.950 . S
C20 C19 1.397 . S
C20 C21 1.391 1_565 S
C21 C20 1.391 1_545 S
C21 C22 1.405 . S
C22 H2 0.950 . S
C22 C21 1.405 . S
C22 C23 1.367 . S
C23 H3 0.950 . S
C23 C18 1.386 . S
C23 C22 1.367 . S
C24 C18 1.483 . S
C24 C25 1.382 . S
C24 C26 1.403 1_554 S
C25 H4 0.950 1_545 S
C25 C24 1.382 . S
C25 C41 1.411 . S
C26 C24 1.403 1_556 S
C26 C27 1.489 . S
C26 C40 1.411 . S
C27 C26 1.489 . S
C27 C28 1.383 1_545 S
C27 C32 1.382 . S
C28 H5 0.950 . S
C28 C27 1.383 1_565 S
C28 C29 1.395 . S
C29 H6 0.950 . S
C29 C28 1.395 . S
C29 C30 1.288 1_565 S
C30 C29 1.288 1_545 S
C30 C31 1.392 . S
C31 H7 0.951 . S
C31 C30 1.392 . S
C31 C32 1.392 . S
C32 H8 0.949 . S
C32 C27 1.382 . S
C32 C31 1.392 . S
C33 C34 1.376 . S
C33 C38 1.386 1_545 S
C33 C39 1.483 . S
C34 H9 0.949 . S
C34 C33 1.376 . S
C34 C35 1.397 . S
C35 H10 0.950 . S
C35 C34 1.397 . S
C35 C36 1.391 . S
C36 C35 1.391 . S
C36 C37 1.405 1_545 S
C37 H11 0.950 . S
C37 C36 1.405 1_565 S
C37 C38 1.367 . S
C38 H12 0.950 . S
C38 C33 1.386 1_565 S
C38 C37 1.367 . S
C39 C33 1.483 . S
C39 C40 1.382 . S
C39 C41 1.403 1_556 S
C40 H13 0.950 . S
C40 C26 1.411 . S
C40 C39 1.382 . S
C41 C25 1.411 . S
C41 C39 1.403 1_554 S
C41 C42 1.489 . S
C42 C41 1.489 . S
C42 C43 1.383 . S
C42 C47 1.382 1_545 S
C43 H14 0.950 . S
C43 C42 1.383 . S
C43 C44 1.395 . S
C44 H15 0.950 . S
C44 C43 1.395 . S
C44 C45 1.288 . S
C45 C44 1.288 . S
C45 C46 1.392 1_545 S
C46 H16 0.951 . S
C46 C45 1.392 1_565 S
C46 C47 1.392 . S
C47 H17 0.949 . S
C47 C42 1.382 1_565 S
C47 C46 1.392 . S
H48 C67 0.949 . S
H49 C68 0.950 . S
H50 C70 0.950 . S
H51 C71 0.950 . S
H52 C73 0.950 . S
H53 C76 0.950 . S
H54 C77 0.950 . S
H55 C79 0.951 . S
H56 C80 0.949 . S
H57 C82 0.949 . S
H58 C83 0.950 . S
H59 C85 0.950 . S
H60 C86 0.950 . S
H61 C88 0.950 1_655 S
H62 C91 0.950 . S
H63 C92 0.950 . S
H64 C94 0.951 . S
H65 C95 0.949 . S
C66 C67 1.376 . S
C66 C71 1.386 1_455 S
C66 C72 1.483 . S
C67 H48 0.949 . S
C67 C66 1.376 . S
C67 C68 1.397 . S
C68 H49 0.950 . S
C68 C67 1.397 . S
C68 C69 1.391 . S
C69 C68 1.391 . S
C69 C70 1.405 1_455 S
C70 H50 0.950 . S
C70 C69 1.405 1_655 S
C70 C71 1.367 . S
C71 H51 0.950 . S
C71 C66 1.386 1_655 S
C71 C70 1.367 . S
C72 C66 1.483 . S
C72 C73 1.382 . S
C72 C74 1.403 . S
C73 H52 0.950 . S
C73 C72 1.382 . S
C73 C89 1.411 . S
C74 C72 1.403 . S
C74 C75 1.489 . S
C74 C88 1.411 . S
C75 C74 1.489 . S
C75 C76 1.383 . S
C75 C80 1.382 1_455 S
C76 H53 0.950 . S
C76 C75 1.383 . S
C76 C77 1.395 . S
C77 H54 0.950 . S
C77 C76 1.395 . S
C77 C78 1.288 . S
C78 C77 1.288 . S
C78 C79 1.392 1_455 S
C79 H55 0.951 . S
C79 C78 1.392 1_655 S
C79 C80 1.392 . S
C80 H56 0.949 . S
C80 C75 1.382 1_655 S
C80 C79 1.392 . S
C81 C82 1.376 1_455 S
C81 C86 1.386 . S
C81 C87 1.483 . S
C82 H57 0.949 . S
C82 C81 1.376 1_655 S
C82 C83 1.397 . S
C83 H58 0.950 . S
C83 C82 1.397 . S
C83 C84 1.391 1_655 S
C84 C83 1.391 1_455 S
C84 C85 1.405 . S
C85 H59 0.950 . S
C85 C84 1.405 . S
C85 C86 1.367 . S
C86 H60 0.950 . S
C86 C81 1.386 . S
C86 C85 1.367 . S
C87 C81 1.483 . S
C87 C88 1.382 . S
C87 C89 1.403 . S
C88 H61 0.950 1_455 S
C88 C74 1.411 . S
C88 C87 1.382 . S
C89 C73 1.411 . S
C89 C87 1.403 . S
C89 C90 1.489 . S
C90 C89 1.489 . S
C90 C91 1.383 1_455 S
C90 C95 1.382 . S
C91 H62 0.950 . S
C91 C90 1.383 1_655 S
C91 C92 1.395 . S
C92 H63 0.950 . S
C92 C91 1.395 . S
C92 C93 1.288 1_655 S
C93 C92 1.288 1_455 S
C93 C94 1.392 . S
C94 H64 0.951 . S
C94 C93 1.392 . S
C94 C95 1.392 . S
C95 H65 0.949 . S
C95 C90 1.382 . S
C95 C94 1.392 . S
Li96 N113 1.990 . S
Li96 O156 1.956 . S
Li96 O157 1.970 1_455 S
Li96 O158 1.961 . S
Li97 N121 1.990 . S
Li97 O156 1.970 1_565 S
Li97 O157 1.956 1_465 S
Li97 O159 1.961 . S
Li98 N143 1.990 . S
Li98 O156 1.961 . S
Li98 O158 1.956 . S
Li98 O159 1.970 1_545 S
Li99 N149 1.990 . S
Li99 O157 1.961 . S
Li99 O158 1.970 1_655 S
Li99 O159 1.956 1_645 S
C100 C102 1.348 1_545 S
C100 C103 1.356 . S
C100 O156 1.325 . S
N101 C104 1.314 1_545 S
N101 C105 1.279 . S
C102 C100 1.348 1_565 S
C102 C104 1.353 . S
C102 H160 0.929 . S
C103 C100 1.356 . S
C103 C105 1.358 . S
C103 H161 0.930 . S
C104 N101 1.314 1_565 S
C104 C102 1.353 . S
C104 H162 0.930 . S
C105 N101 1.279 . S
C105 C103 1.358 . S
C105 H163 0.930 . S
C106 C109 1.348 . S
C106 C110 1.356 1_545 S
C106 O157 1.325 . S
C107 N108 1.279 1_565 S
C107 C110 1.358 . S
C107 H164 0.930 . S
N108 C107 1.279 1_545 S
N108 C111 1.314 . S
C109 C106 1.348 . S
C109 C111 1.353 . S
C109 H165 0.929 . S
C110 C106 1.356 1_565 S
C110 C107 1.358 . S
C110 H166 0.930 . S
C111 N108 1.314 . S
C111 C109 1.353 . S
C111 H167 0.930 . S
C112 N113 1.314 1_655 S
C112 C117 1.353 . S
C112 H118 0.930 . S
N113 Li96 1.990 . S
N113 C112 1.314 1_455 S
N113 C115 1.279 . S
C114 C115 1.358 . S
C114 C116 1.356 . S
C114 H168 0.930 . S
C115 N113 1.279 . S
C115 C114 1.358 . S
C115 H119 0.930 . S
C116 C114 1.356 . S
C116 C117 1.348 1_455 S
C117 C112 1.353 . S
C117 C116 1.348 1_655 S
C117 H169 0.929 . S
H118 C112 0.930 . S
H119 C115 0.930 . S
C120 N121 1.314 . S
C120 C122 1.353 . S
C120 H126 0.930 . S
N121 Li97 1.990 . S
N121 C120 1.314 . S
N121 C124 1.279 1_455 S
C122 C120 1.353 . S
C122 C125 1.348 . S
C122 H170 0.929 . S
C123 C124 1.358 . S
C123 C125 1.356 1_655 S
C123 H171 0.930 . S
C124 N121 1.279 1_655 S
C124 C123 1.358 . S
C124 H127 0.930 . S
C125 C122 1.348 . S
C125 C123 1.356 1_455 S
H126 C120 0.930 . S
H127 C124 0.930 . S
C128 C130 1.348 1_455 S
C128 C131 1.356 . S
C128 O158 1.325 . S
N129 C132 1.314 1_455 S
N129 C133 1.279 . S
C130 C128 1.348 1_655 S
C130 C132 1.353 . S
C130 H172 0.929 . S
C131 C128 1.356 . S
C131 C133 1.358 . S
C131 H173 0.930 . S
C132 N129 1.314 1_655 S
C132 C130 1.353 . S
C132 H174 0.930 . S
C133 N129 1.279 . S
C133 C131 1.358 . S
C133 H175 0.930 . S
C134 C135 1.348 . S
C134 C136 1.356 1_455 S
C134 O159 1.325 . S
C135 C134 1.348 . S
C135 C137 1.353 . S
C135 H176 0.929 . S
C136 C134 1.356 1_655 S
C136 C138 1.358 . S
C136 H177 0.930 . S
C137 C135 1.353 . S
C137 N139 1.314 . S
C137 H178 0.930 . S
C138 C136 1.358 . S
C138 N139 1.279 1_655 S
C138 H179 0.930 . S
N139 C137 1.314 . S
N139 C138 1.279 1_455 S
C140 C142 1.353 . S
C140 N143 1.314 1_565 S
C140 H146 0.930 . S
C141 N143 1.279 . S
C141 C144 1.358 . S
C141 H147 0.930 . S
C142 C140 1.353 . S
C142 C145 1.348 1_565 S
C142 H180 0.929 . S
N143 Li98 1.990 . S
N143 C140 1.314 1_545 S
N143 C141 1.279 . S
C144 C141 1.358 . S
C144 C145 1.356 . S
C144 H181 0.930 . S
C145 C142 1.348 1_545 S
C145 C144 1.356 . S
H146 C140 0.930 . S
H147 C141 0.930 . S
C148 N149 1.314 . S
C148 C150 1.353 . S
C148 H154 0.930 . S
N149 Li99 1.990 . S
N149 C148 1.314 . S
N149 C152 1.279 1_545 S
C150 C148 1.353 . S
C150 C153 1.348 . S
C150 H182 0.929 . S
C151 C152 1.358 . S
C151 C153 1.356 1_565 S
C151 H183 0.930 . S
C152 N149 1.279 1_565 S
C152 C151 1.358 . S
C152 H155 0.930 . S
C153 C150 1.348 . S
C153 C151 1.356 1_545 S
H154 C148 0.930 . S
H155 C152 0.930 . S
O156 Li96 1.956 . S
O156 Li97 1.970 1_545 S
O156 Li98 1.961 . S
O156 C100 1.325 . S
O157 Li96 1.970 1_655 S
O157 Li97 1.956 1_645 S
O157 Li99 1.961 . S
O157 C106 1.325 . S
O158 Li96 1.961 . S
O158 Li98 1.956 . S
O158 Li99 1.970 1_455 S
O158 C128 1.325 . S
O159 Li97 1.961 . S
O159 Li98 1.970 1_565 S
O159 Li99 1.956 1_465 S
O159 C134 1.325 . S
H160 C102 0.929 . S
H161 C103 0.930 . S
H162 C104 0.930 . S
H163 C105 0.930 . S
H164 C107 0.930 . S
H165 C109 0.929 . S
H166 C110 0.930 . S
H167 C111 0.930 . S
H168 C114 0.930 . S
H169 C117 0.929 . S
H170 C122 0.929 . S
H171 C123 0.930 . S
H172 C130 0.929 . S
H173 C131 0.930 . S
H174 C132 0.930 . S
H175 C133 0.930 . S
H176 C135 0.929 . S
H177 C136 0.930 . S
H178 C137 0.930 . S
H179 C138 0.930 . S
H180 C142 0.929 . S
H181 C144 0.930 . S
H182 C150 0.929 . S
H183 C151 0.930 . S
Li184 N201 1.990 . S
Li184 O244 1.956 1_655 S
Li184 O245 1.970 1_645 S
Li184 O246 1.961 . S
Li185 N209 1.990 . S
Li185 O244 1.970 . S
Li185 O245 1.956 1_545 S
Li185 O247 1.961 . S
Li186 N231 1.990 . S
Li186 O244 1.961 . S
Li186 O246 1.956 1_455 S
Li186 O247 1.970 . S
Li187 N237 1.990 . S
Li187 O245 1.961 . S
Li187 O246 1.970 1_465 S
Li187 O247 1.956 1_565 S
C188 C190 1.348 . S
C188 C191 1.356 1_455 S
C188 O244 1.325 . S
N189 C192 1.314 . S
N189 C193 1.279 1_455 S
C190 C188 1.348 . S
C190 C192 1.353 . S
C190 H248 0.929 . S
C191 C188 1.356 1_655 S
C191 C193 1.358 . S
C191 H249 0.930 . S
C192 N189 1.314 . S
C192 C190 1.353 . S
C192 H250 0.930 . S
C193 N189 1.279 1_655 S
C193 C191 1.358 . S
C193 H251 0.930 . S
C194 C197 1.348 1_455 S
C194 C198 1.356 . S
C194 O245 1.325 . S
C195 N196 1.279 . S
C195 C198 1.358 . S
C195 H252 0.930 . S
N196 C195 1.279 . S
N196 C199 1.314 1_455 S
C197 C194 1.348 1_655 S
C197 C199 1.353 . S
C197 H253 0.929 . S
C198 C194 1.356 . S
C198 C195 1.358 . S
C198 H254 0.930 . S
C199 N196 1.314 1_655 S
C199 C197 1.353 . S
C199 H255 0.930 . S
C200 N201 1.314 1_565 S
C200 C205 1.353 . S
C200 H206 0.930 . S
N201 Li184 1.990 . S
N201 C200 1.314 1_545 S
N201 C203 1.279 . S
C202 C203 1.358 . S
C202 C204 1.356 . S
C202 H256 0.930 . S
C203 N201 1.279 . S
C203 C202 1.358 . S
C203 H207 0.930 . S
C204 C202 1.356 . S
C204 C205 1.348 1_545 S
C205 C200 1.353 . S
C205 C204 1.348 1_565 S
C205 H257 0.929 . S
H206 C200 0.930 . S
H207 C203 0.930 . S
C208 N209 1.314 . S
C208 C210 1.353 . S
C208 H214 0.930 . S
N209 Li185 1.990 . S
N209 C208 1.314 . S
N209 C212 1.279 1_545 S
C210 C208 1.353 . S
C210 C213 1.348 . S
C210 H258 0.929 . S
C211 C212 1.358 . S
C211 C213 1.356 1_565 S
C211 H259 0.930 . S
C212 N209 1.279 1_565 S
C212 C211 1.358 . S
C212 H215 0.930 . S
C213 C210 1.348 . S
C213 C211 1.356 1_545 S
H214 C208 0.930 . S
H215 C212 0.930 . S
C216 C218 1.348 1_545 S
C216 C219 1.356 . S
C216 O246 1.325 . S
N217 C220 1.314 1_545 S
N217 C221 1.279 . S
C218 C216 1.348 1_565 S
C218 C220 1.353 . S
C218 H260 0.929 . S
C219 C216 1.356 . S
C219 C221 1.358 . S
C219 H261 0.930 . S
C220 N217 1.314 1_565 S
C220 C218 1.353 . S
C220 H262 0.930 . S
C221 N217 1.279 . S
C221 C219 1.358 . S
C221 H263 0.930 . S
C222 C223 1.348 . S
C222 C224 1.356 1_545 S
C222 O247 1.325 . S
C223 C222 1.348 . S
C223 C225 1.353 . S
C223 H264 0.929 . S
C224 C222 1.356 1_565 S
C224 C226 1.358 . S
C224 H265 0.930 . S
C225 C223 1.353 . S
C225 N227 1.314 . S
C225 H266 0.930 . S
C226 C224 1.358 . S
C226 N227 1.279 1_565 S
C226 H267 0.930 . S
N227 C225 1.314 . S
N227 C226 1.279 1_545 S
C228 C230 1.353 . S
C228 N231 1.314 . S
C228 H234 0.930 . S
C229 N231 1.279 1_655 S
C229 C232 1.358 . S
C229 H235 0.930 . S
C230 C228 1.353 . S
C230 C233 1.348 . S
C230 H268 0.929 . S
N231 Li186 1.990 . S
N231 C228 1.314 . S
N231 C229 1.279 1_455 S
C232 C229 1.358 . S
C232 C233 1.356 1_655 S
C232 H269 0.930 . S
C233 C230 1.348 . S
C233 C232 1.356 1_455 S
H234 C228 0.930 . S
H235 C229 0.930 . S
C236 N237 1.314 1_655 S
C236 C238 1.353 . S
C236 H242 0.930 . S
N237 Li187 1.990 . S
N237 C236 1.314 1_455 S
N237 C240 1.279 . S
C238 C236 1.353 . S
C238 C241 1.348 1_655 S
C238 H270 0.929 . S
C239 C240 1.358 . S
C239 C241 1.356 . S
C239 H271 0.930 . S
C240 N237 1.279 . S
C240 C239 1.358 . S
C240 H243 0.930 . S
C241 C238 1.348 1_455 S
C241 C239 1.356 . S
H242 C236 0.930 . S
H243 C240 0.930 . S
O244 Li184 1.956 1_455 S
O244 Li185 1.970 . S
O244 Li186 1.961 . S
O244 C188 1.325 . S
O245 Li184 1.970 1_465 S
O245 Li185 1.956 1_565 S
O245 Li187 1.961 . S
O245 C194 1.325 . S
O246 Li184 1.961 . S
O246 Li186 1.956 1_655 S
O246 Li187 1.970 1_645 S
O246 C216 1.325 . S
O247 Li185 1.961 . S
O247 Li186 1.970 . S
O247 Li187 1.956 1_545 S
O247 C222 1.325 . S
H248 C190 0.929 . S
H249 C191 0.930 . S
H250 C192 0.930 . S
H251 C193 0.930 . S
H252 C195 0.930 . S
H253 C197 0.929 . S
H254 C198 0.930 . S
H255 C199 0.930 . S
H256 C202 0.930 . S
H257 C205 0.929 . S
H258 C210 0.929 . S
H259 C211 0.930 . S
H260 C218 0.929 . S
H261 C219 0.930 . S
H262 C220 0.930 . S
H263 C221 0.930 . S
H264 C223 0.929 . S
H265 C224 0.930 . S
H266 C225 0.930 . S
H267 C226 0.930 . S
H268 C230 0.929 . S
H269 C232 0.930 . S
H270 C238 0.929 . S
H271 C239 0.930 . S
H272 C290 0.951 . S
H273 C292 0.951 . S
H274 C294 0.950 . S
H275 C295 0.950 . S
H276 C297 0.950 . S
H277 C300 0.950 . S
H278 C301 0.950 . S
H279 C303 0.950 . S
H280 C304 0.950 . S
H281 C305 0.951 . S
H282 C307 0.951 . S
H283 C309 0.950 . S
H284 C310 0.950 . S
H285 C312 0.950 . S
H286 C315 0.950 . S
H287 C316 0.950 . S
H288 C318 0.950 . S
H289 C319 0.950 . S
C290 H272 0.951 . S
C290 C291 1.366 . S
C290 C292 1.388 . S
C291 C290 1.366 . S
C291 C295 1.385 . S
C292 H273 0.951 . S
C292 C290 1.388 . S
C292 C293 1.366 . S
C293 C292 1.366 . S
C293 C294 1.414 . S
C293 C296 1.499 . S
C294 H274 0.950 . S
C294 C293 1.414 . S
C294 C295 1.374 . S
C295 H275 0.950 . S
C295 C291 1.385 . S
C295 C294 1.374 . S
C296 C293 1.499 . S
C296 C297 1.373 . S
C296 C298 1.389 1_545 S
C297 H276 0.950 . S
C297 C296 1.373 . S
C297 C313 1.377 . S
C298 C296 1.389 1_565 S
C298 C299 1.524 . S
C298 C312 1.377 . S
C299 C298 1.524 . S
C299 C300 1.397 . S
C299 C304 1.363 . S
C300 H277 0.950 . S
C300 C299 1.397 . S
C300 C301 1.334 . S
C301 H278 0.950 . S
C301 C300 1.334 . S
C301 C302 1.287 . S
C302 C301 1.287 . S
C302 C303 1.524 . S
C302 H321 0.913 . S
C303 H279 0.950 . S
C303 C302 1.524 . S
C303 C304 1.415 . S
C304 H280 0.950 . S
C304 C299 1.363 . S
C304 C303 1.415 . S
C305 H281 0.951 . S
C305 C306 1.366 . S
C305 C307 1.388 . S
C306 C305 1.366 . S
C306 C310 1.385 . S
C307 H282 0.951 . S
C307 C305 1.388 . S
C307 C308 1.366 . S
C308 C307 1.366 . S
C308 C309 1.414 . S
C308 C311 1.499 . S
C309 H283 0.950 . S
C309 C308 1.414 . S
C309 C310 1.374 . S
C310 H284 0.950 . S
C310 C306 1.385 . S
C310 C309 1.374 . S
C311 C308 1.499 . S
C311 C312 1.373 1_545 S
C311 C313 1.389 . S
C312 H285 0.950 . S
C312 C298 1.377 . S
C312 C311 1.373 1_565 S
C313 C297 1.377 . S
C313 C311 1.389 . S
C313 C314 1.524 . S
C314 C313 1.524 . S
C314 C315 1.397 . S
C314 C319 1.363 . S
C315 H286 0.950 . S
C315 C314 1.397 . S
C315 C316 1.334 . S
C316 H287 0.950 . S
C316 C315 1.334 . S
C316 C317 1.287 . S
C317 C316 1.287 . S
C317 C318 1.524 . S
C317 H320 0.999 . S
C318 H288 0.950 . S
C318 C317 1.524 . S
C318 C319 1.415 . S
C319 H289 0.950 . S
C319 C314 1.363 . S
C319 C318 1.415 . S
H320 C317 0.999 . S
H321 C302 0.913 . S
H322 C340 0.951 . S
H323 C342 0.951 . S
H324 C344 0.950 . S
H325 C345 0.950 . S
H326 C347 0.950 . S
H327 C350 0.950 1_455 S
H328 C351 0.950 . S
H329 C353 0.950 . S
H330 C354 0.950 . S
H331 C355 0.951 . S
H332 C357 0.951 . S
H333 C359 0.950 . S
H334 C360 0.950 . S
H335 C362 0.950 . S
H336 C365 0.950 1_655 S
H337 C366 0.950 . S
H338 C368 0.950 . S
H339 C369 0.950 . S
C340 H322 0.951 . S
C340 C341 1.366 1_655 S
C340 C342 1.388 . S
C341 C340 1.366 1_455 S
C341 C345 1.385 . S
C342 H323 0.951 . S
C342 C340 1.388 . S
C342 C343 1.366 1_655 S
C343 C342 1.366 1_455 S
C343 C344 1.414 . S
C343 C346 1.499 . S
C344 H324 0.950 . S
C344 C343 1.414 . S
C344 C345 1.374 . S
C345 H325 0.950 . S
C345 C341 1.385 . S
C345 C344 1.374 . S
C346 C343 1.499 . S
C346 C347 1.373 . S
C346 C348 1.389 1_455 S
C347 H326 0.950 . S
C347 C346 1.373 . S
C347 C363 1.377 . S
C348 C346 1.389 1_655 S
C348 C349 1.524 . S
C348 C362 1.377 . S
C349 C348 1.524 . S
C349 C350 1.397 . S
C349 C354 1.363 . S
C350 H327 0.950 1_655 S
C350 C349 1.397 . S
C350 C351 1.334 . S
C351 H328 0.950 . S
C351 C350 1.334 . S
C351 C352 1.287 . S
C352 C351 1.287 . S
C352 C353 1.524 . S
C352 H371 0.913 . S
C353 H329 0.950 . S
C353 C352 1.524 . S
C353 C354 1.415 . S
C354 H330 0.950 . S
C354 C349 1.363 . S
C354 C353 1.415 . S
C355 H331 0.951 . S
C355 C356 1.366 . S
C355 C357 1.388 . S
C356 C355 1.366 . S
C356 C360 1.385 1_455 S
C357 H332 0.951 . S
C357 C355 1.388 . S
C357 C358 1.366 . S
C358 C357 1.366 . S
C358 C359 1.414 1_455 S
C358 C361 1.499 . S
C359 H333 0.950 . S
C359 C358 1.414 1_655 S
C359 C360 1.374 . S
C360 H334 0.950 . S
C360 C356 1.385 1_655 S
C360 C359 1.374 . S
C361 C358 1.499 . S
C361 C362 1.373 1_455 S
C361 C363 1.389 . S
C362 H335 0.950 . S
C362 C348 1.377 . S
C362 C361 1.373 1_655 S
C363 C347 1.377 . S
C363 C361 1.389 . S
C363 C364 1.524 . S
C364 C363 1.524 . S
C364 C365 1.397 . S
C364 C369 1.363 . S
C365 H336 0.950 1_455 S
C365 C364 1.397 . S
C365 C366 1.334 . S
C366 H337 0.950 . S
C366 C365 1.334 . S
C366 C367 1.287 . S
C367 C366 1.287 . S
C367 C368 1.524 . S
C367 H370 0.999 . S
C368 H338 0.950 . S
C368 C367 1.524 . S
C368 C369 1.415 . S
C369 H339 0.950 . S
C369 C364 1.363 . S
C369 C368 1.415 . S
H370 C367 0.999 . S
H371 C352 0.913 . S
H372 C390 0.951 . S
H373 C392 0.951 . S
H374 C394 0.950 . S
H375 C395 0.950 . S
H376 C397 0.950 . S
H377 C400 0.950 . S
H378 C401 0.950 . S
H379 C403 0.950 . S
H380 C404 0.950 . S
H381 C405 0.951 . S
H382 C407 0.951 . S
H383 C409 0.950 . S
H384 C410 0.950 . S
H385 C412 0.950 . S
H386 C415 0.950 . S
H387 C416 0.950 . S
H388 C418 0.950 . S
H389 C419 0.950 1_545 S
C390 H372 0.951 . S
C390 C391 1.366 1_565 S
C390 C392 1.388 . S
C391 C390 1.366 1_545 S
C391 C395 1.385 . S
C392 H373 0.951 . S
C392 C390 1.388 . S
C392 C393 1.366 1_565 S
C393 C392 1.366 1_545 S
C393 C394 1.414 . S
C393 C396 1.499 . S
C394 H374 0.950 . S
C394 C393 1.414 . S
C394 C395 1.374 . S
C395 H375 0.950 . S
C395 C391 1.385 . S
C395 C394 1.374 . S
C396 C393 1.499 . S
C396 C397 1.373 1_545 S
C396 C398 1.389 . S
C397 H376 0.950 . S
C397 C396 1.373 1_565 S
C397 C413 1.377 . S
C398 C396 1.389 . S
C398 C399 1.524 . S
C398 C412 1.377 . S
C399 C398 1.524 . S
C399 C400 1.397 . S
C399 C404 1.363 . S
C400 H377 0.950 . S
C400 C399 1.397 . S
C400 C401 1.334 . S
C401 H378 0.950 . S
C401 C400 1.334 . S
C401 C402 1.287 . S
C402 C401 1.287 . S
C402 C403 1.524 . S
C402 H421 0.913 . S
C403 H379 0.950 . S
C403 C402 1.524 . S
C403 C404 1.415 . S
C404 H380 0.950 . S
C404 C399 1.363 . S
C404 C403 1.415 . S
C405 H381 0.951 . S
C405 C406 1.366 . S
C405 C407 1.388 . S
C406 C405 1.366 . S
C406 C410 1.385 1_545 S
C407 H382 0.951 . S
C407 C405 1.388 . S
C407 C408 1.366 . S
C408 C407 1.366 . S
C408 C409 1.414 1_545 S
C408 C411 1.499 . S
C409 H383 0.950 . S
C409 C408 1.414 1_565 S
C409 C410 1.374 . S
C410 H384 0.950 . S
C410 C406 1.385 1_565 S
C410 C409 1.374 . S
C411 C408 1.499 . S
C411 C412 1.373 . S
C411 C413 1.389 1_545 S
C412 H385 0.950 . S
C412 C398 1.377 . S
C412 C411 1.373 . S
C413 C397 1.377 . S
C413 C411 1.389 1_565 S
C413 C414 1.524 . S
C414 C413 1.524 . S
C414 C415 1.397 . S
C414 C419 1.363 . S
C415 H386 0.950 . S
C415 C414 1.397 . S
C415 C416 1.334 . S
C416 H387 0.950 . S
C416 C415 1.334 . S
C416 C417 1.287 . S
C417 C416 1.287 . S
C417 C418 1.524 . S
C417 H420 0.999 . S
C418 H388 0.950 . S
C418 C417 1.524 . S
C418 C419 1.415 . S
C419 H389 0.950 1_565 S
C419 C414 1.363 . S
C419 C418 1.415 . S
H420 C417 0.999 . S
H421 C402 0.913 . S
H422 C440 0.951 . S
H423 C442 0.951 . S
H424 C444 0.950 . S
H425 C445 0.950 . S
H426 C447 0.950 . S
H427 C450 0.950 1_655 S
H428 C451 0.950 . S
H429 C453 0.950 . S
H430 C454 0.950 . S
H431 C455 0.951 . S
H432 C457 0.951 . S
H433 C459 0.950 . S
H434 C460 0.950 . S
H435 C462 0.950 . S
H436 C465 0.950 . S
H437 C466 0.950 1_455 S
H438 C468 0.950 . S
H439 C469 0.950 . S
C440 H422 0.951 . S
C440 C441 1.366 . S
C440 C442 1.388 . S
C441 C440 1.366 . S
C441 C445 1.385 1_455 S
C442 H423 0.951 . S
C442 C440 1.388 . S
C442 C443 1.366 . S
C443 C442 1.366 . S
C443 C444 1.414 1_455 S
C443 C446 1.499 . S
C444 H424 0.950 . S
C444 C443 1.414 1_655 S
C444 C445 1.374 . S
C445 H425 0.950 . S
C445 C441 1.385 1_655 S
C445 C444 1.374 . S
C446 C443 1.499 . S
C446 C447 1.373 1_455 S
C446 C448 1.389 . S
C447 H426 0.950 . S
C447 C446 1.373 1_655 S
C447 C463 1.377 . S
C448 C446 1.389 . S
C448 C449 1.524 . S
C448 C462 1.377 . S
C449 C448 1.524 . S
C449 C450 1.397 . S
C449 C454 1.363 . S
C450 H427 0.950 1_455 S
C450 C449 1.397 . S
C450 C451 1.334 . S
C451 H428 0.950 . S
C451 C450 1.334 . S
C451 C452 1.287 . S
C452 C451 1.287 . S
C452 C453 1.524 . S
C452 H471 0.913 . S
C453 H429 0.950 . S
C453 C452 1.524 . S
C453 C454 1.415 . S
C454 H430 0.950 . S
C454 C449 1.363 . S
C454 C453 1.415 . S
C455 H431 0.951 . S
C455 C456 1.366 1_655 S
C455 C457 1.388 . S
C456 C455 1.366 1_455 S
C456 C460 1.385 . S
C457 H432 0.951 . S
C457 C455 1.388 . S
C457 C458 1.366 1_655 S
C458 C457 1.366 1_455 S
C458 C459 1.414 . S
C458 C461 1.499 . S
C459 H433 0.950 . S
C459 C458 1.414 . S
C459 C460 1.374 . S
C460 H434 0.950 . S
C460 C456 1.385 . S
C460 C459 1.374 . S
C461 C458 1.499 . S
C461 C462 1.373 . S
C461 C463 1.389 1_455 S
C462 H435 0.950 . S
C462 C448 1.377 . S
C462 C461 1.373 . S
C463 C447 1.377 . S
C463 C461 1.389 1_655 S
C463 C464 1.524 . S
C464 C463 1.524 . S
C464 C465 1.397 1_655 S
C464 C469 1.363 . S
C465 H436 0.950 . S
C465 C464 1.397 1_455 S
C465 C466 1.334 1_455 S
C466 H437 0.950 1_655 S
C466 C465 1.334 1_655 S
C466 C467 1.287 . S
C467 C466 1.287 . S
C467 C468 1.524 . S
C467 H470 0.999 . S
C468 H438 0.950 . S
C468 C467 1.524 . S
C468 C469 1.415 . S
C469 H439 0.950 . S
C469 C464 1.363 . S
C469 C468 1.415 . S
H470 C467 0.999 . S
H471 C452 0.913 . S
H472 C490 0.951 . S
H473 C492 0.951 . S
H474 C494 0.950 . S
H475 C495 0.950 . S
H476 C497 0.950 . S
H477 C500 0.950 . S
H478 C501 0.950 . S
H479 C503 0.950 . S
H480 C504 0.950 . S
H481 C505 0.951 . S
H482 C507 0.951 . S
H483 C509 0.950 . S
H484 C510 0.950 . S
H485 C512 0.950 . S
H486 C515 0.951 1_565 S
H487 C516 0.950 1_565 S
H488 C518 0.950 . S
H489 C519 0.950 . S
C490 H472 0.951 . S
C490 C491 1.366 1_565 S
C490 C492 1.388 . S
C491 C490 1.366 1_545 S
C491 C495 1.385 . S
C492 H473 0.951 . S
C492 C490 1.388 . S
C492 C493 1.366 1_565 S
C493 C492 1.366 1_545 S
C493 C494 1.414 . S
C493 C496 1.499 . S
C494 H474 0.950 . S
C494 C493 1.414 . S
C494 C495 1.374 . S
C495 H475 0.950 . S
C495 C491 1.385 . S
C495 C494 1.374 . S
C496 C493 1.499 . S
C496 C497 1.373 . S
C496 C498 1.389 1_545 S
C497 H476 0.950 . S
C497 C496 1.373 . S
C497 C513 1.377 . S
C498 C496 1.389 1_565 S
C498 C499 1.524 . S
C498 C512 1.377 . S
C499 C498 1.524 . S
C499 C500 1.397 1_565 S
C499 C504 1.363 . S
C500 H477 0.950 . S
C500 C499 1.397 1_545 S
C500 C501 1.334 . S
C501 H478 0.950 . S
C501 C500 1.334 . S
C501 C502 1.287 1_545 S
C502 C501 1.287 1_565 S
C502 C503 1.524 . S
C502 H521 0.913 . S
C503 H479 0.950 . S
C503 C502 1.524 . S
C503 C504 1.415 . S
C504 H480 0.950 . S
C504 C499 1.363 . S
C504 C503 1.415 . S
C505 H481 0.951 . S
C505 C506 1.366 . S
C505 C507 1.388 . S
C506 C505 1.366 . S
C506 C510 1.385 1_545 S
C507 H482 0.951 . S
C507 C505 1.388 . S
C507 C508 1.366 . S
C508 C507 1.366 . S
C508 C509 1.414 1_545 S
C508 C511 1.499 . S
C509 H483 0.950 . S
C509 C508 1.414 1_565 S
C509 C510 1.374 . S
C510 H484 0.950 . S
C510 C506 1.385 1_565 S
C510 C509 1.374 . S
C511 C508 1.499 . S
C511 C512 1.373 1_545 S
C511 C513 1.389 . S
C512 H485 0.950 . S
C512 C498 1.377 . S
C512 C511 1.373 1_565 S
C513 C497 1.377 . S
C513 C511 1.389 . S
C513 C514 1.524 . S
C514 C513 1.524 . S
C514 C515 1.396 . S
C514 C519 1.363 . S
C515 H486 0.951 1_545 S
C515 C514 1.396 . S
C515 C516 1.334 . S
C516 H487 0.950 1_545 S
C516 C515 1.334 . S
C516 C517 1.287 . S
C517 C516 1.287 . S
C517 C518 1.524 . S
C517 H520 0.999 . S
C518 H488 0.950 . S
C518 C517 1.524 . S
C518 C519 1.415 . S
C519 H489 0.950 . S
C519 C514 1.363 . S
C519 C518 1.415 . S
H520 C517 0.999 . S
H521 C502 0.913 . S
H522 C540 0.951 . S
H523 C542 0.951 . S
H524 C544 0.950 . S
H525 C545 0.950 . S
H526 C547 0.950 . S
H527 C550 0.950 . S
H528 C551 0.950 . S
H529 C553 0.950 . S
H530 C554 0.950 . S
H531 C555 0.951 . S
H532 C557 0.951 . S
H533 C559 0.950 . S
H534 C560 0.950 . S
H535 C562 0.950 . S
H536 C565 0.950 . S
H537 C566 0.950 . S
H538 C568 0.950 . S
H539 C569 0.950 . S
C540 H522 0.951 . S
C540 C541 1.366 1_655 S
C540 C542 1.388 . S
C541 C540 1.366 1_455 S
C541 C545 1.385 . S
C542 H523 0.951 . S
C542 C540 1.388 . S
C542 C543 1.366 1_655 S
C543 C542 1.366 1_455 S
C543 C544 1.414 . S
C543 C546 1.499 . S
C544 H524 0.950 . S
C544 C543 1.414 . S
C544 C545 1.374 . S
C545 H525 0.950 . S
C545 C541 1.385 . S
C545 C544 1.374 . S
C546 C543 1.499 . S
C546 C547 1.373 . S
C546 C548 1.389 1_455 S
C547 H526 0.950 . S
C547 C546 1.373 . S
C547 C563 1.377 . S
C548 C546 1.389 1_655 S
C548 C549 1.524 . S
C548 C562 1.377 . S
C549 C548 1.524 . S
C549 C550 1.397 . S
C549 C554 1.363 . S
C550 H527 0.950 . S
C550 C549 1.397 . S
C550 C551 1.334 . S
C551 H528 0.950 . S
C551 C550 1.334 . S
C551 C552 1.287 . S
C552 C551 1.287 . S
C552 C553 1.524 . S
C552 H571 0.913 . S
C553 H529 0.950 . S
C553 C552 1.524 . S
C553 C554 1.415 . S
C554 H530 0.950 . S
C554 C549 1.363 . S
C554 C553 1.415 . S
C555 H531 0.951 . S
C555 C556 1.366 . S
C555 C557 1.388 . S
C556 C555 1.366 . S
C556 C560 1.385 1_455 S
C557 H532 0.951 . S
C557 C555 1.388 . S
C557 C558 1.366 . S
C558 C557 1.366 . S
C558 C559 1.414 1_455 S
C558 C561 1.499 . S
C559 H533 0.950 . S
C559 C558 1.414 1_655 S
C559 C560 1.374 . S
C560 H534 0.950 . S
C560 C556 1.385 1_655 S
C560 C559 1.374 . S
C561 C558 1.499 . S
C561 C562 1.373 1_455 S
C561 C563 1.389 . S
C562 H535 0.950 . S
C562 C548 1.377 . S
C562 C561 1.373 1_655 S
C563 C547 1.377 . S
C563 C561 1.389 . S
C563 C564 1.524 . S
C564 C563 1.524 . S
C564 C565 1.397 . S
C564 C569 1.363 . S
C565 H536 0.950 . S
C565 C564 1.397 . S
C565 C566 1.334 . S
C566 H537 0.950 . S
C566 C565 1.334 . S
C566 C567 1.287 . S
C567 C566 1.287 . S
C567 C568 1.524 . S
C567 H570 0.999 . S
C568 H538 0.950 . S
C568 C567 1.524 . S
C568 C569 1.415 . S
C569 H539 0.950 . S
C569 C564 1.363 . S
C569 C568 1.415 . S
H570 C567 0.999 . S
H571 C552 0.913 . S
H572 C590 0.951 . S
H573 C592 0.951 . S
H574 C594 0.950 . S
H575 C595 0.950 . S
H576 C597 0.950 . S
H577 C600 0.950 . S
H578 C601 0.950 . S
H579 C603 0.950 . S
H580 C604 0.950 . S
H581 C605 0.951 . S
H582 C607 0.951 . S
H583 C609 0.950 . S
H584 C610 0.950 . S
H585 C612 0.950 . S
H586 C615 0.950 . S
H587 C616 0.950 . S
H588 C618 0.937 1_565 S
H589 C619 0.950 . S
C590 H572 0.951 . S
C590 C591 1.366 . S
C590 C592 1.388 . S
C591 C590 1.366 . S
C591 C595 1.385 1_545 S
C592 H573 0.951 . S
C592 C590 1.388 . S
C592 C593 1.366 . S
C593 C592 1.366 . S
C593 C594 1.414 1_545 S
C593 C596 1.499 . S
C594 H574 0.950 . S
C594 C593 1.414 1_565 S
C594 C595 1.374 . S
C595 H575 0.950 . S
C595 C591 1.385 1_565 S
C595 C594 1.374 . S
C596 C593 1.499 . S
C596 C597 1.373 . S
C596 C598 1.389 . S
C597 H576 0.950 . S
C597 C596 1.373 . S
C597 C613 1.377 . S
C598 C596 1.389 . S
C598 C599 1.524 1_545 S
C598 C612 1.377 . S
C599 C598 1.524 1_565 S
C599 C600 1.397 . S
C599 C604 1.363 1_565 S
C600 H577 0.950 . S
C600 C599 1.397 . S
C600 C601 1.334 . S
C601 H578 0.950 . S
C601 C600 1.334 . S
C601 C602 1.287 . S
C602 C601 1.287 . S
C602 C603 1.524 1_565 S
C602 H621 0.913 . S
C603 H579 0.950 . S
C603 C602 1.524 1_545 S
C603 C604 1.415 . S
C604 H580 0.950 . S
C604 C599 1.363 1_545 S
C604 C603 1.415 . S
C605 H581 0.951 . S
C605 C606 1.366 1_565 S
C605 C607 1.388 . S
C606 C605 1.366 1_545 S
C606 C610 1.385 . S
C607 H582 0.951 . S
C607 C605 1.388 . S
C607 C608 1.366 1_565 S
C608 C607 1.366 1_545 S
C608 C609 1.414 . S
C608 C611 1.499 . S
C609 H583 0.950 . S
C609 C608 1.414 . S
C609 C610 1.374 . S
C610 H584 0.950 . S
C610 C606 1.385 . S
C610 C609 1.374 . S
C611 C608 1.499 . S
C611 C612 1.373 . S
C611 C613 1.389 . S
C612 H585 0.950 . S
C612 C598 1.377 . S
C612 C611 1.373 . S
C613 C597 1.377 . S
C613 C611 1.389 . S
C613 C614 1.524 . S
C614 C613 1.524 . S
C614 C615 1.397 . S
C614 C619 1.363 1_545 S
C615 H586 0.950 . S
C615 C614 1.397 . S
C615 C616 1.334 . S
C616 H587 0.950 . S
C616 C615 1.334 . S
C616 C617 1.287 . S
C617 C616 1.287 . S
C617 C618 1.543 . S
C617 H620 0.999 . S
C618 H588 0.937 1_545 S
C618 C617 1.543 . S
C618 C619 1.411 1_545 S
C619 H589 0.950 . S
C619 C614 1.363 1_565 S
C619 C618 1.411 1_565 S
H620 C617 0.999 . S
H621 C602 0.913 . S
H622 C640 0.951 . S
H623 C642 0.951 . S
H624 C644 0.950 . S
H625 C645 0.950 . S
H626 C647 0.950 1_655 S
H627 C650 0.950 . S
H628 C651 0.950 . S
H629 C653 0.950 . S
H630 C654 0.950 1_655 S
H631 C655 0.951 . S
H632 C657 0.951 . S
H633 C659 0.950 . S
H634 C660 0.950 . S
H635 C662 0.950 . S
H636 C665 0.950 . S
H637 C666 0.950 . S
H638 C668 0.950 1_455 S
H639 C669 0.950 . S
C640 H622 0.951 . S
C640 C641 1.366 1_655 S
C640 C642 1.388 . S
C641 C640 1.366 1_455 S
C641 C645 1.385 . S
C642 H623 0.951 . S
C642 C640 1.388 . S
C642 C643 1.366 1_655 S
C643 C642 1.366 1_455 S
C643 C644 1.414 . S
C643 C646 1.499 . S
C644 H624 0.950 . S
C644 C643 1.414 . S
C644 C645 1.374 . S
C645 H625 0.950 . S
C645 C641 1.385 . S
C645 C644 1.374 . S
C646 C643 1.499 . S
C646 C647 1.373 . S
C646 C648 1.389 . S
C647 H626 0.950 1_455 S
C647 C646 1.373 . S
C647 C663 1.376 1_455 S
C648 C646 1.389 . S
C648 C649 1.524 . S
C648 C662 1.377 . S
C649 C648 1.524 . S
C649 C650 1.397 . S
C649 C654 1.363 . S
C650 H627 0.950 . S
C650 C649 1.397 . S
C650 C651 1.334 . S
C651 H628 0.950 . S
C651 C650 1.334 . S
C651 C652 1.287 . S
C652 C651 1.287 . S
C652 C653 1.524 . S
C652 H671 0.913 . S
C653 H629 0.950 . S
C653 C652 1.524 . S
C653 C654 1.415 . S
C654 H630 0.950 1_455 S
C654 C649 1.363 . S
C654 C653 1.415 . S
C655 H631 0.951 . S
C655 C656 1.366 . S
C655 C657 1.388 . S
C656 C655 1.366 . S
C656 C660 1.385 1_455 S
C657 H632 0.951 . S
C657 C655 1.388 . S
C657 C658 1.366 . S
C658 C657 1.366 . S
C658 C659 1.414 1_455 S
C658 C661 1.499 . S
C659 H633 0.950 . S
C659 C658 1.414 1_655 S
C659 C660 1.374 . S
C660 H634 0.950 . S
C660 C656 1.385 1_655 S
C660 C659 1.374 . S
C661 C658 1.499 . S
C661 C662 1.373 . S
C661 C663 1.389 1_455 S
C662 H635 0.950 . S
C662 C648 1.377 . S
C662 C661 1.373 . S
C663 C647 1.376 1_655 S
C663 C661 1.389 1_655 S
C663 C664 1.526 . S
C664 C663 1.526 . S
C664 C665 1.397 . S
C664 C669 1.363 1_655 S
C665 H636 0.950 . S
C665 C664 1.397 . S
C665 C666 1.334 . S
C666 H637 0.950 . S
C666 C665 1.334 . S
C666 C667 1.287 . S
C667 C666 1.287 . S
C667 C668 1.524 . S
C667 H670 0.999 . S
C668 H638 0.950 1_655 S
C668 C667 1.524 . S
C668 C669 1.415 1_655 S
C669 H639 0.950 . S
C669 C664 1.363 1_455 S
C669 C668 1.415 1_455 S
H670 C667 0.999 . S
H671 C652 0.913 . S
C306 C145 1.518 . S
C291 C45 1.513 . S
C356 C233 1.518 . S
C341 C78 1.513 . S
C406 C153 1.518 . S
C391 C21 1.517 . S
C456 C241 1.518 . S
C441 C84 1.517 . S
C506 C213 1.518 . S
C491 C36 1.516 . S
C556 C116 1.518 . S
C541 C69 1.516 . S
C606 C204 1.518 . S
C591 C30 1.513 . S
C641 C93 1.513 . S
C656 C125 1.518 . S
