# Generated by pormake.
# Topology anh, (6,3)-cn, num edge types: 1
# Building blocks:
#     Node 0, Type 0, BuildingBlock: NUHQIS_clean_sbu_0, # of connection points: 6
#     Node 1, Type 0, BuildingBlock: NUHQIS_clean_sbu_0, # of connection points: 6
#     Node 2, Type 0, BuildingBlock: NUHQIS_clean_sbu_0, # of connection points: 6
#     Node 3, Type 1, BuildingBlock: PAMTOO_clean_linker_0, # of connection points: 3
#     Node 4, Type 1, BuildingBlock: PAMTOO_clean_linker_0, # of connection points: 3
#     Node 5, Type 1, BuildingBlock: PAMTOO_clean_linker_0, # of connection points: 3
#     Node 6, Type 1, BuildingBlock: PAMTOO_clean_linker_0, # of connection points: 3
#     Node 7, Type 1, BuildingBlock: PAMTOO_clean_linker_0, # of connection points: 3
#     Node 8, Type 1, BuildingBlock: PAMTOO_clean_linker_0, # of connection points: 3
#     Edge 9, Type (0, 1), BuildingBlock: UVAHIK_clean_linker_0, # of connection points: 2
#     Edge 10, Type (0, 1), BuildingBlock: UVAHIK_clean_linker_0, # of connection points: 2
#     Edge 11, Type (0, 1), BuildingBlock: UVAHIK_clean_linker_0, # of connection points: 2
#     Edge 12, Type (0, 1), BuildingBlock: UVAHIK_clean_linker_0, # of connection points: 2
#     Edge 13, Type (0, 1), BuildingBlock: UVAHIK_clean_linker_0, # of connection points: 2
#     Edge 14, Type (0, 1), BuildingBlock: UVAHIK_clean_linker_0, # of connection points: 2
#     Edge 15, Type (0, 1), BuildingBlock: UVAHIK_clean_linker_0, # of connection points: 2
#     Edge 16, Type (0, 1), BuildingBlock: UVAHIK_clean_linker_0, # of connection points: 2
#     Edge 17, Type (0, 1), BuildingBlock: UVAHIK_clean_linker_0, # of connection points: 2
#     Edge 18, Type (0, 1), BuildingBlock: UVAHIK_clean_linker_0, # of connection points: 2
#     Edge 19, Type (0, 1), BuildingBlock: UVAHIK_clean_linker_0, # of connection points: 2
#     Edge 20, Type (0, 1), BuildingBlock: UVAHIK_clean_linker_0, # of connection points: 2
#     Edge 21, Type (0, 1), BuildingBlock: UVAHIK_clean_linker_0, # of connection points: 2
#     Edge 22, Type (0, 1), BuildingBlock: UVAHIK_clean_linker_0, # of connection points: 2
#     Edge 23, Type (0, 1), BuildingBlock: UVAHIK_clean_linker_0, # of connection points: 2
#     Edge 24, Type (0, 1), BuildingBlock: UVAHIK_clean_linker_0, # of connection points: 2
#     Edge 25, Type (0, 1), BuildingBlock: UVAHIK_clean_linker_0, # of connection points: 2
#     Edge 26, Type (0, 1), BuildingBlock: UVAHIK_clean_linker_0, # of connection points: 2
# Relax obj value: 0.189
# Max RMSD: 0.140
# Mean RMSD: 0.115
data_MOF--net-anh--node1-NUHQIS_clean_sbu_0--node2-PAMTOO_clean_linker_0--edge1-UVAHIK_clean_linker_0
_symmetry_space_group_name_H-M    P1
_symmetry_Int_Tables_number       1
_symmetry_cell_setting            triclinic
loop_
_symmetry_equiv_pos_as_xyz
'x, y, z'
_cell_length_a     38.950084
_cell_length_b     38.884573
_cell_length_c     64.108483
_cell_angle_alpha  86.943706
_cell_angle_beta   94.236786
_cell_angle_gamma 119.97213
loop_
_atom_site_label
_atom_site_type_symbol
_atom_site_fract_x
_atom_site_fract_y
_atom_site_fract_z
_atom_type_partial_charge
Tb0 Tb 0.16762 0.59141 0.15849 0.0
Eu1 Eu 0.12182 0.64169 0.14692 0.0
C2 C 0.141 0.62358 0.19341 0.0
C3 C 1.07228 0.54599 0.15317 0.0
C4 C 0.23186 0.55209 0.18316 0.0
C5 C 0.25798 0.51642 0.20469 0.0
C6 C 0.22762 0.51648 0.1918 0.0
C7 C 0.26612 0.58812 0.18835 0.0
C8 C 0.29676 0.5881 0.20124 0.0
C9 C 0.29333 0.5521 0.20918 0.0
C10 C 0.19999 0.5503 0.16875 0.0
O11 O 0.14936 0.58266 0.1252 0.0
O12 O 0.14882 0.64049 0.11751 0.0
O13 O 0.1861 0.6887 0.15332 0.0
O14 O 0.21786 0.65197 0.15468 0.0
C15 C 0.15046 0.60965 0.11155 0.0
O16 O 1.07952 0.65367 0.12834 0.0
O17 O 0.11289 0.69023 0.15493 0.0
O18 O 0.11247 0.62089 0.18032 0.0
O19 O 0.17108 0.62185 0.18674 0.0
O20 O 0.10471 0.54785 0.16209 0.0
O21 O 1.07311 0.57729 0.14373 0.0
C22 C 0.21883 0.68643 0.15444 0.0
O23 O 0.16936 0.54683 0.17757 0.0
O24 O 0.21008 0.57521 0.15286 0.0
C25 C 1.04614 0.67249 0.15005 0.0
C26 C 0.97296 0.6533 0.16567 0.0
C27 C 0.98973 0.68285 0.14998 0.0
C28 C 1.02614 0.69235 0.14219 0.0
C29 C 1.03012 0.64391 0.16613 0.0
C30 C 0.99395 0.63452 0.17394 0.0
C31 C 1.08307 0.68025 0.14127 0.0
H32 H 0.25455 0.48808 0.21013 0.0
H33 H 0.20119 0.48845 0.18807 0.0
H34 H 0.26958 0.61603 0.18207 0.0
H35 H 0.32356 0.61606 0.20449 0.0
H36 H 0.97398 0.69745 0.14313 0.0
H37 H 1.03819 0.71446 0.12976 0.0
H38 H 1.04526 0.62831 0.17239 0.0
H39 H 0.982 0.61195 0.18617 0.0
Tb40 Tb 0.72463 0.11076 0.48814 0.0
Eu41 Eu 0.62761 1.06567 0.48936 0.0
C42 C 0.68427 0.09301 0.53032 0.0
C43 C 0.67373 1.01567 0.49051 0.0
C44 C 0.83228 0.18212 0.49694 0.0
C45 C 0.89779 0.21837 0.51436 0.0
C46 C 0.86562 0.18269 0.50717 0.0
C47 C 0.8309 0.21747 0.49454 0.0
C48 C 0.86314 0.25317 0.50152 0.0
C49 C 0.89723 0.25419 0.5113 0.0
C50 C 0.79928 0.14449 0.48894 0.0
O51 O 0.70092 0.08777 0.457 0.0
O52 O 0.643 0.08926 0.4565 0.0
O53 O 0.64761 0.13079 0.4919 0.0
O54 O 0.71352 0.16115 0.48431 0.0
C55 C 0.67143 0.08945 0.44664 0.0
O56 O 0.56799 1.02221 0.4774 0.0
O57 O 0.5757 1.06017 0.50307 0.0
O58 O 0.65219 1.063 0.522 0.0
O59 O 0.71076 0.12064 0.51852 0.0
O60 O 0.70689 1.04845 0.49562 0.0
O61 O 0.64096 1.01631 0.48468 0.0
C62 C 0.68151 0.16291 0.48807 0.0
O63 O 0.7779 0.11884 0.50309 0.0
O64 O 0.77743 0.14684 0.47309 0.0
C65 C 0.51717 0.99691 0.50175 0.0
C66 C 0.44764 0.93805 0.52015 0.0
C67 C 0.45091 0.93978 0.49836 0.0
C68 C 0.48527 0.96895 0.48928 0.0
C69 C 0.51472 0.99437 0.52362 0.0
C70 C 0.48017 0.96522 0.53273 0.0
C71 C 0.55065 1.03045 0.49144 0.0
H72 H 0.92326 0.21794 0.52208 0.0
H73 H 0.86695 0.15554 0.5094 0.0
H74 H 0.80525 0.21771 0.4869 0.0
H75 H 0.86179 0.28015 0.49852 0.0
H76 H 0.42617 0.91976 0.48816 0.0
H77 H 0.48632 0.97056 0.47239 0.0
H78 H 0.53895 1.01555 0.53366 0.0
H79 H 0.47859 0.96443 0.54956 0.0
Tb80 Tb 0.64275 0.59328 0.82271 0.0
Eu81 Eu 0.59427 0.49765 0.81582 0.0
C82 C 0.61751 0.53427 0.86042 0.0
C83 C 0.69088 0.54639 0.82126 0.0
C84 C 0.67043 0.69638 0.83759 0.0
C85 C 0.68696 0.74648 0.86355 0.0
C86 C 0.69073 0.71538 0.85623 0.0
C87 C 0.6449 0.70792 0.82685 0.0
C88 C 0.64134 0.73919 0.83409 0.0
C89 C 0.66316 0.75956 0.85221 0.0
C90 C 0.6786 0.667 0.82878 0.0
O91 O 0.65165 0.58341 0.79088 0.0
O92 O 0.59247 0.52696 0.78498 0.0
O93 O 0.54707 0.51293 0.82267 0.0
O94 O 0.58124 0.58028 0.81621 0.0
C95 C 0.62379 0.55821 0.77789 0.0
O96 O 0.57746 0.44628 0.79676 0.0
O97 O 0.55339 0.43796 0.82723 0.0
O98 O 0.62009 0.50916 0.84878 0.0
O99 O 0.61554 0.56462 0.85182 0.0
O100 O 0.68913 0.57684 0.82815 0.0
O101 O 0.659 0.5152 0.81332 0.0
C102 C 0.54785 0.54713 0.81978 0.0
O103 O 0.68095 0.64135 0.8419 0.0
O104 O 0.65958 0.65068 0.81121 0.0
C105 C 0.57025 0.39148 0.8169 0.0
C106 C 0.60037 0.33911 0.82297 0.0
C107 C 0.61974 0.37623 0.83267 0.0
C108 C 0.60486 0.40224 0.8296 0.0
C109 C 0.54979 0.35389 0.80794 0.0
C110 C 0.56472 0.32781 0.81097 0.0
C111 C 0.55786 0.42087 0.81148 0.0
H112 H 0.70375 0.76115 0.87771 0.0
H113 H 0.71056 0.70703 0.86482 0.0
H114 H 0.62878 0.69389 0.81243 0.0
H115 H 0.62316 0.74875 0.82478 0.0
H116 H 0.64759 0.38612 0.84169 0.0
H117 H 0.62124 0.43139 0.83647 0.0
H118 H 0.52308 0.34526 0.79804 0.0
H119 H 0.54904 0.2993 0.80342 0.0
H120 H 0.72853 0.18863 0.22282 0.0
H121 H 0.62439 0.074 0.21443 0.0
H122 H 0.67997 0.14647 0.16063 0.0
H123 H 0.58372 0.08817 0.15409 0.0
C124 C 0.58276 0.07172 0.16896 0.0
O125 O 0.6204 0.07687 0.17391 0.0
H126 H 0.57419 0.08498 0.18114 0.0
C127 C 0.70636 0.16609 0.21247 0.0
C128 C 0.70836 0.17267 0.19064 0.0
C129 C 0.67622 0.13089 0.22122 0.0
C130 C 0.64752 0.1015 0.20792 0.0
C131 C 0.64846 0.10681 0.18615 0.0
C132 C 0.67913 0.14239 0.17746 0.0
H133 H 0.67107 0.65636 0.55622 0.0
H134 H 0.68333 0.5536 0.55008 0.0
H135 H 0.67977 0.62071 0.49514 0.0
H136 H 0.64229 0.5272 0.48783 0.0
C137 C 0.65539 0.52213 0.50287 0.0
O138 O 0.68676 0.55837 0.50959 0.0
H139 H 0.63161 0.50985 0.51426 0.0
C140 C 0.67403 0.63632 0.54633 0.0
C141 C 0.67457 0.64275 0.52452 0.0
C142 C 0.67693 0.60435 0.55569 0.0
C143 C 0.6808 0.57826 0.54303 0.0
C144 C 0.68189 0.58386 0.52125 0.0
C145 C 0.67899 0.61636 0.51196 0.0
H146 H 1.05907 0.56414 0.88839 0.0
H147 H 0.16234 0.55272 0.88279 0.0
H148 H 1.09089 0.54997 0.82772 0.0
H149 H 0.20295 0.6034 0.84675 0.0
C150 C 0.19112 0.57833 0.83571 0.0
O151 O 0.15566 0.54679 0.84241 0.0
H152 H 0.18496 0.58944 0.82036 0.0
C153 C 1.07866 0.56044 0.87873 0.0
C154 C 1.07048 0.55726 0.85695 0.0
C155 C 0.11151 0.5588 0.88829 0.0
C156 C 0.13708 0.55442 0.8757 0.0
C157 C 0.13025 0.55164 0.85391 0.0
C158 C 1.09652 0.55256 0.84452 0.0
H159 H 0.11194 0.61004 0.41689 0.0
H160 H 0.1169 0.72316 0.4122 0.0
H161 H 0.10644 0.66523 0.47209 0.0
H162 H 1.06151 0.70085 0.46593 0.0
C163 C 1.08698 0.73111 0.46298 0.0
O164 O 0.11588 0.72973 0.4524 0.0
H165 H 1.07543 0.74825 0.45346 0.0
C166 C 0.11152 0.63424 0.42429 0.0
C167 C 0.10731 0.63268 0.44596 0.0
C168 C 0.11491 0.66658 0.41195 0.0
C169 C 0.11371 0.69765 0.42143 0.0
C170 C 0.11141 0.69731 0.44312 0.0
C171 C 0.10867 0.66516 0.45536 0.0
H172 H 0.74811 0.0964 0.7618 0.0
H173 H 0.85392 0.19987 0.74165 0.0
H174 H 0.8448 0.16448 0.80637 0.0
H175 H 0.90773 0.27177 0.76679 0.0
C176 C 0.89873 0.25491 0.78183 0.0
O177 O 0.89011 0.21625 0.77893 0.0
H178 H 0.92477 0.26926 0.79314 0.0
C179 C 0.77721 0.12155 0.7655 0.0
C180 C 0.79353 0.12706 0.78619 0.0
C181 C 0.79859 0.1478 0.74937 0.0
C182 C 0.83685 0.17959 0.75396 0.0
C183 C 0.85331 0.18538 0.7745 0.0
C184 C 0.83166 0.1594 0.79055 0.0
H185 H 0.62098 0.48136 0.09268 0.0
H186 H 0.49662 0.43302 0.07464 0.0
H187 H 0.53877 0.46712 0.13794 0.0
H188 H 0.46607 0.3854 0.12811 0.0
C189 C 0.45432 0.40631 0.12575 0.0
O190 O 0.4762 0.43649 0.11175 0.0
H191 H 0.42326 0.3892 0.11921 0.0
C192 C 0.59078 0.47152 0.09654 0.0
C193 C 0.58326 0.47502 0.11716 0.0
C194 C 0.56007 0.45753 0.08077 0.0
C195 C 0.52095 0.44361 0.08639 0.0
C196 C 0.51331 0.44668 0.10699 0.0
C197 C 0.54463 0.46359 0.12217 0.0
C198 C 0.3648 0.57136 0.20986 0.0
C199 C 0.32809 0.55033 0.21911 0.0
C200 C 0.39346 0.56005 0.21394 0.0
C201 C 0.3856 0.46443 0.22132 0.0
H202 H 0.49327 0.52556 0.20348 0.0
C203 C 0.44404 0.39948 0.16458 0.0
C204 C 0.4545 0.4235 0.14638 0.0
C205 C 0.44123 0.41446 0.1834 0.0
C206 C 0.46352 0.50787 0.20889 0.0
H207 H 0.29544 0.50585 0.24269 0.0
H208 H 0.34554 0.48589 0.24976 0.0
H209 H 0.46585 0.55785 0.22284 0.0
H210 H 0.47001 0.4822 0.13369 0.0
H211 H 0.46568 0.50808 0.16619 0.0
H212 H 0.38208 0.41538 0.20584 0.0
C213 C 0.35177 0.51043 0.23894 0.0
C214 C 0.4478 0.52635 0.21995 0.0
C215 C 0.32304 0.52179 0.23485 0.0
C216 C 0.4627 0.46296 0.14744 0.0
C217 C 0.46059 0.47802 0.1662 0.0
C218 C 0.40139 0.44594 0.21037 0.0
C219 C 0.38592 0.5274 0.22733 0.0
C220 C 0.40759 0.50561 0.22467 0.0
C221 C 0.44917 0.45383 0.18431 0.0
C222 C 0.43934 0.46834 0.2026 0.0
H223 H 0.36978 0.59356 0.1977 0.0
H224 H 0.41934 0.57395 0.20466 0.0
H225 H 0.35456 0.44731 0.22475 0.0
H226 H 0.43709 0.36885 0.1641 0.0
H227 H 0.43181 0.39502 0.19707 0.0
C228 C 0.97105 0.29988 0.51242 0.0
C229 C 0.93307 0.29297 0.51643 0.0
C230 C 1.00363 0.33834 0.51291 0.0
C231 C 1.0342 0.44485 0.52207 0.0
H232 H 1.08254 0.46073 0.46908 0.0
C233 C 1.07502 0.55885 0.44958 0.0
C234 C 1.09971 0.59636 0.45835 0.0
C235 C 1.06676 0.52439 0.46097 0.0
C236 C 1.06979 0.45683 0.48408 0.0
H237 H 0.90068 0.32034 0.5268 0.0
H238 H 0.95665 0.38739 0.52645 0.0
H239 H 1.04627 0.39435 0.48393 0.0
H240 H 0.13513 0.62686 0.48617 0.0
H241 H 0.1194 0.5659 0.50644 0.0
H242 H 1.05517 0.50745 0.521 0.0
C243 C 0.96168 0.36329 0.52314 0.0
C244 C 1.04928 0.41874 0.49278 0.0
C245 C 0.92926 0.32479 0.52297 0.0
C246 C 0.11576 0.59844 0.47898 0.0
C247 C 0.10701 0.56367 0.49055 0.0
C248 C 1.05466 0.4831 0.51325 0.0
C249 C 0.99882 0.37079 0.51706 0.0
C250 C 1.02945 0.41195 0.51134 0.0
C251 C 1.08254 0.52635 0.48156 0.0
C252 C 1.07077 0.48897 0.49363 0.0
H253 H 0.97528 0.27615 0.50742 0.0
H254 H 1.03204 0.34291 0.50867 0.0
H255 H 1.02001 0.44078 0.53661 0.0
H256 H 1.06113 0.55594 0.43401 0.0
H257 H 1.04688 0.49602 0.45383 0.0
C258 C 0.70164 0.83029 0.8634 0.0
C259 C 0.66492 0.79715 0.85759 0.0
C260 C 0.70539 0.86775 0.86436 0.0
C261 C 0.66211 0.92168 0.83682 0.0
H262 H 0.74522 1.0089 0.86902 0.0
C263 C 0.73047 0.07966 0.80351 0.0
C264 C 0.7719 0.0973 0.80276 0.0
C265 C 0.70952 1.04722 0.81691 0.0
C266 C 0.72161 0.98486 0.86001 0.0
H267 H 0.60247 0.77676 0.85039 0.0
H268 H 0.60916 0.84254 0.85184 0.0
H269 H 0.72053 0.94069 0.88182 0.0
H270 H 0.82401 0.09632 0.81647 0.0
H271 H 0.78771 1.03999 0.83967 0.0
H272 H 0.66487 0.96537 0.81434 0.0
C273 C 0.63514 0.83946 0.85537 0.0
C274 C 0.70746 0.94584 0.86734 0.0
C275 C 0.63135 0.80185 0.85446 0.0
C276 C 0.79218 0.08368 0.81676 0.0
C277 C 0.77129 1.05136 0.83016 0.0
C278 C 0.67621 0.96063 0.82951 0.0
C279 C 0.67254 0.87306 0.85948 0.0
C280 C 0.67908 0.91377 0.85524 0.0
C281 C 0.72962 1.03185 0.82985 0.0
C282 C 0.70758 0.9925 0.84047 0.0
H283 H 0.72826 0.82799 0.86568 0.0
H284 H 0.73477 0.89297 0.8673 0.0
H285 H 0.64044 0.89775 0.82701 0.0
H286 H 0.71409 0.09006 0.79322 0.0
H287 H 0.67747 1.03315 0.81653 0.0
C288 C 0.90531 0.59846 0.17357 0.0
C289 C 0.93215 0.63936 0.17197 0.0
C290 C 0.8656 0.58461 0.17704 0.0
C291 C 0.79139 0.61502 0.16607 0.0
H292 H 0.72361 0.50996 0.18937 0.0
C293 C 0.62484 0.5276 0.14314 0.0
C294 C 0.61644 0.49288 0.13301 0.0
C295 C 0.65959 0.54767 0.15585 0.0
C296 C 0.74215 0.53963 0.18312 0.0
H297 H 0.93907 0.69795 0.17412 0.0
H298 H 0.86933 0.67369 0.18036 0.0
H299 H 0.79484 0.54419 0.19849 0.0
H300 H 0.63571 0.4503 0.12912 0.0
H301 H 0.69612 0.4849 0.15161 0.0
H302 H 0.73884 0.60968 0.15006 0.0
C303 C 0.87899 0.65233 0.17859 0.0
C304 C 0.78291 0.55915 0.18821 0.0
C305 C 0.91885 0.66623 0.17499 0.0
C306 C 0.6418 0.47711 0.13677 0.0
C307 C 0.67606 0.49671 0.14976 0.0
C308 C 0.75057 0.59573 0.16123 0.0
C309 C 0.85168 0.61131 0.17908 0.0
C310 C 0.80825 0.59604 0.17875 0.0
C311 C 0.68587 0.53277 0.1589 0.0
C312 C 0.72598 0.55702 0.16882 0.0
H313 H 0.91446 0.57696 0.171 0.0
H314 H 0.84544 0.55286 0.17682 0.0
H315 H 0.8099 0.64328 0.1584 0.0
H316 H 0.60564 0.54027 0.14034 0.0
H317 H 0.66667 0.5755 0.16268 0.0
C318 C 0.39301 0.92348 0.54367 0.0
C319 C 0.40903 0.91021 0.52917 0.0
C320 C 0.35339 0.90001 0.54881 0.0
C321 C 0.2624 0.80068 0.53905 0.0
H322 H 0.21079 0.86391 0.53061 0.0
C323 C 0.10811 0.72905 0.50085 0.0
C324 C 0.10657 0.75138 0.48324 0.0
C325 C 0.13688 0.74726 0.51711 0.0
C326 C 0.22459 0.84569 0.53314 0.0
H327 H 0.39753 0.8604 0.51047 0.0
H328 H 0.32858 0.82021 0.51872 0.0
H329 H 0.28142 0.89626 0.53978 0.0
H330 H 0.13144 0.81032 0.46941 0.0
H331 H 0.18194 0.84205 0.49722 0.0
H332 H 0.20671 0.75077 0.53005 0.0
C333 C 0.34626 0.84841 0.5264 0.0
C334 C 0.26518 0.86422 0.53871 0.0
C335 C 0.38578 0.87172 0.52138 0.0
C336 C 0.1317 0.79263 0.483 0.0
C337 C 0.16068 0.81078 0.49908 0.0
C338 C 0.22199 0.78226 0.5331 0.0
C339 C 0.32903 0.86291 0.53948 0.0
C340 C 0.28505 0.84223 0.54039 0.0
C341 C 0.16514 0.78795 0.51576 0.0
C342 C 0.20318 0.80494 0.52874 0.0
H343 H 0.41019 0.95303 0.54997 0.0
H344 H 0.34132 0.91183 0.55922 0.0
H345 H 0.27648 0.78264 0.54092 0.0
H346 H 1.08915 0.69708 0.50129 0.0
H347 H 0.13881 0.72889 0.52992 0.0
C348 C 0.63998 0.31085 0.84174 0.0
C349 C 0.61995 0.31473 0.8234 0.0
C350 C 0.66406 0.29375 0.84113 0.0
C351 C 0.69315 0.23901 0.8067 0.0
H352 H 0.79761 0.30397 0.8335 0.0
C353 C 0.8356 0.25785 0.77548 0.0
C354 C 0.86424 0.25701 0.78977 0.0
C355 C 0.8022 0.25701 0.78257 0.0
C356 C 0.7684 0.28507 0.82624 0.0
H357 H 0.60799 0.30203 0.79029 0.0
H358 H 0.64999 0.2727 0.78916 0.0
H359 H 0.74332 0.3146 0.84114 0.0
H360 H 0.88021 0.25344 0.82254 0.0
H361 H 0.82212 0.25343 0.83512 0.0
H362 H 0.71914 0.21118 0.79087 0.0
C363 C 0.64672 0.28211 0.80412 0.0
C364 C 0.73719 0.29101 0.83067 0.0
C365 C 0.62258 0.29901 0.80475 0.0
C366 C 0.85882 0.25495 0.8113 0.0
C367 C 0.82562 0.2547 0.81844 0.0
C368 C 0.72447 0.23337 0.80212 0.0
C369 C 0.66871 0.28037 0.82216 0.0
C370 C 0.6995 0.2689 0.82044 0.0
C371 C 0.79698 0.25562 0.80411 0.0
C372 C 0.76263 0.25718 0.81138 0.0
H373 H 0.63804 0.32222 0.85641 0.0
H374 H 0.68003 0.2922 0.85538 0.0
H375 H 0.6643 0.22091 0.79889 0.0
H376 H 0.83894 0.25881 0.75879 0.0
H377 H 0.7808 0.25819 0.7712 0.0
C378 C 0.64055 0.94198 0.48347 0.0
C379 C 0.67325 0.97671 0.49172 0.0
C380 C 0.64013 0.90552 0.48461 0.0
C381 C 0.70636 0.86057 0.49575 0.0
H382 H 0.60604 0.76371 0.50218 0.0
C383 C 0.69659 0.70503 0.50151 0.0
C384 C 0.6703 0.67726 0.51579 0.0
C385 C 0.69595 0.74046 0.49623 0.0
C386 C 0.63452 0.79034 0.50057 0.0
H387 H 0.73122 0.99962 0.5078 0.0
H388 H 0.73007 0.93634 0.51036 0.0
H389 H 0.60766 0.8269 0.49884 0.0
H390 H 0.6212 0.66435 0.5347 0.0
H391 H 0.62052 0.72541 0.52602 0.0
H392 H 0.73336 0.82396 0.49847 0.0
C393 C 0.70497 0.9372 0.50248 0.0
C394 C 0.63537 0.82692 0.4983 0.0
C395 C 0.70553 0.97373 0.50115 0.0
C396 C 0.64221 0.68509 0.5238 0.0
C397 C 0.6416 0.72027 0.51861 0.0
C398 C 0.70553 0.82393 0.49818 0.0
C399 C 0.67225 0.90231 0.49424 0.0
C400 C 0.67133 0.86286 0.496 0.0
C401 C 0.66887 0.74906 0.50502 0.0
C402 C 0.66962 0.78812 0.50086 0.0
H403 H 0.61522 0.94293 0.47593 0.0
H404 H 0.6146 0.8799 0.47768 0.0
H405 H 0.73468 0.88714 0.49365 0.0
H406 H 0.71874 0.70019 0.49508 0.0
H407 H 0.71706 0.76132 0.48543 0.0
C408 C 0.73389 0.5157 0.81568 0.0
C409 C 0.73009 0.5472 0.82291 0.0
C410 C 0.7707 0.5167 0.81734 0.0
C411 C 0.88069 0.58681 0.82658 0.0
H412 H 0.88502 0.49014 0.83799 0.0
C413 C 1.02732 0.58889 0.85427 0.0
C414 C 1.03434 0.5588 0.84808 0.0
C415 C 0.99109 0.58771 0.84904 0.0
C416 C 0.88451 0.51744 0.83451 0.0
H417 H 0.76293 0.60443 0.8378 0.0
H418 H 0.82626 0.60589 0.841 0.0
H419 H 0.82083 0.48726 0.83369 0.0
H420 H 1.0084 0.50415 0.83098 0.0
H421 H 0.945 0.50207 0.82164 0.0
H422 H 0.94433 0.61705 0.82772 0.0
C423 C 0.80107 0.58058 0.83361 0.0
C424 C 0.84743 0.5158 0.83202 0.0
C425 C 0.76437 0.57962 0.83191 0.0
C426 C 1.00428 0.52804 0.83584 0.0
C427 C 0.96766 0.52662 0.83074 0.0
C428 C 0.91768 0.58845 0.82914 0.0
C429 C 0.80508 0.54921 0.82632 0.0
C430 C 0.84478 0.55053 0.82822 0.0
C431 C 0.96023 0.55619 0.83751 0.0
C432 C 0.92036 0.55387 0.83336 0.0
H433 H 0.70839 0.49016 0.80864 0.0
H434 H 0.77222 0.49206 0.81128 0.0
H435 H 0.88039 0.61422 0.82316 0.0
H436 H 1.04966 0.61301 0.86376 0.0
H437 H 0.98679 0.61089 0.85479 0.0
C438 C 0.29436 0.72441 0.15901 0.0
C439 C 0.25817 0.72444 0.15567 0.0
C440 C 0.33093 0.76029 0.16036 0.0
C441 C 0.37756 0.86886 0.14647 0.0
H442 H 0.46226 0.88004 0.18626 0.0
C443 C 0.53201 1.01233 0.14744 0.0
C444 C 0.55082 1.02796 0.16701 0.0
C445 C 0.49855 0.97409 0.14586 0.0
C446 C 0.43894 0.87762 0.17509 0.0
H447 H 0.23291 0.76314 0.15119 0.0
H448 H 0.29595 0.82497 0.15354 0.0
H449 H 0.39982 0.81686 0.18408 0.0
H450 H 0.54983 1.0147 0.20021 0.0
H451 H 0.49162 0.94791 0.19756 0.0
H452 H 0.41612 0.92963 0.13771 0.0
C453 C 0.29633 0.79728 0.15492 0.0
C454 C 0.40309 0.84106 0.17368 0.0
C455 C 0.25988 0.76154 0.1537 0.0
C456 C 0.53623 1.0035 0.18489 0.0
C457 C 0.50275 0.96512 0.18332 0.0
C458 C 0.41338 0.90524 0.14779 0.0
C459 C 0.33258 0.79742 0.15825 0.0
C460 C 0.37161 0.83609 0.15944 0.0
C461 C 0.48273 0.95005 0.1638 0.0
C462 C 0.44474 0.91043 0.16217 0.0
H463 H 0.29451 0.69663 0.16066 0.0
H464 H 0.35801 0.75888 0.16275 0.0
H465 H 0.3545 0.86642 0.13511 0.0
H466 H 0.54239 1.03026 0.13333 0.0
H467 H 0.48477 0.96357 0.13048 0.0
C468 C 0.71919 0.23867 0.48863 0.0
C469 C 0.68307 0.20234 0.48846 0.0
C470 C 0.71983 0.27516 0.48976 0.0
C471 C 0.65486 0.32068 0.48037 0.0
H472 H 0.73374 0.4051 0.51566 0.0
C473 C 0.66211 0.47332 0.48086 0.0
C474 C 0.66798 0.49116 0.50032 0.0
C475 C 0.66767 0.44059 0.47896 0.0
C476 C 0.71137 0.38184 0.50576 0.0
H477 H 0.61926 0.17671 0.48923 0.0
H478 H 0.62042 0.23951 0.49106 0.0
H479 H 0.73584 0.34351 0.51316 0.0
H480 H 0.68516 0.48879 0.53297 0.0
H481 H 0.69522 0.43182 0.52972 0.0
H482 H 0.62992 0.35838 0.47318 0.0
C483 C 0.64837 0.24009 0.49021 0.0
C484 C 0.71283 0.34654 0.50416 0.0
C485 C 0.64775 0.2038 0.48928 0.0
C486 C 0.68089 0.4761 0.51772 0.0
C487 C 0.68661 0.44335 0.51581 0.0
C488 C 0.65359 0.35596 0.48184 0.0
C489 C 0.68435 0.27647 0.4905 0.0
C490 C 0.68434 0.31518 0.49157 0.0
C491 C 0.67923 0.42446 0.49647 0.0
C492 C 0.68167 0.38715 0.49463 0.0
H493 H 0.74705 0.23894 0.48811 0.0
H494 H 0.74815 0.30243 0.4898 0.0
H495 H 0.6326 0.29763 0.47032 0.0
H496 H 0.65196 0.48391 0.46713 0.0
H497 H 0.66234 0.42758 0.46371 0.0
C498 C 0.47418 0.51412 0.82579 0.0
C499 C 0.51006 0.54851 0.82097 0.0
C500 C 0.43903 0.51555 0.8274 0.0
C501 C 0.39162 0.57765 0.81249 0.0
H502 H 0.31757 0.51279 0.85432 0.0
C503 C 0.23746 0.5672 0.81436 0.0
C504 C 0.22322 0.567 0.83395 0.0
C505 C 0.2709 0.56279 0.81281 0.0
C506 C 0.3379 0.53132 0.84259 0.0
H507 H 0.53631 0.61161 0.81413 0.0
H508 H 0.47545 0.61411 0.81695 0.0
H509 H 0.3787 0.5106 0.8518 0.0
H510 H 0.23275 0.56094 0.86727 0.0
H511 H 0.29093 0.55298 0.86468 0.0
H512 H 0.35127 0.59893 0.80351 0.0
C513 C 0.47426 0.58576 0.81928 0.0
C514 C 0.37299 0.52974 0.84097 0.0
C515 C 0.50945 0.58436 0.81775 0.0
C516 C 0.24264 0.56082 0.85193 0.0
C517 C 0.27612 0.5563 0.85039 0.0
C518 C 0.35649 0.5791 0.81404 0.0
C519 C 0.43836 0.55139 0.82419 0.0
C520 C 0.40058 0.55292 0.82591 0.0
C521 C 0.29137 0.55799 0.83081 0.0
C522 C 0.32891 0.55597 0.82911 0.0
H523 H 0.47316 0.48589 0.82841 0.0
H524 H 0.41217 0.48826 0.83093 0.0
H525 H 0.4116 0.59573 0.80053 0.0
H526 H 0.22339 0.572 0.80017 0.0
H527 H 0.28091 0.56348 0.7974 0.0
C528 C 0.99733 0.50416 0.14652 0.0
C529 C 1.03355 0.5075 0.15452 0.0
C530 C 0.96119 0.46817 0.14829 0.0
C531 C 0.91902 0.35845 0.15937 0.0
H532 H 0.82407 0.36145 0.17022 0.0
C533 C 0.76522 0.2127 0.16653 0.0
C534 C 0.74144 0.21136 0.18243 0.0
C535 C 0.79934 0.24861 0.16113 0.0
C536 C 0.85023 0.35983 0.16729 0.0
H537 H 1.05934 0.4746 0.17068 0.0
H538 H 0.99696 0.41265 0.1739 0.0
H539 H 0.88599 0.42329 0.16539 0.0
H540 H 0.73433 0.24776 0.20425 0.0
H541 H 0.79307 0.30948 0.19506 0.0
H542 H 0.88345 0.29496 0.16189 0.0
C543 C 0.99629 0.43759 0.16595 0.0
C544 C 0.88592 0.39558 0.16424 0.0
C545 C 1.03233 0.47351 0.16422 0.0
C546 C 0.75194 0.24733 0.19206 0.0
C547 C 0.78572 0.28307 0.18663 0.0
C548 C 0.88328 0.32266 0.16238 0.0
C549 C 0.95995 0.43417 0.15808 0.0
C550 C 0.92116 0.39566 0.16043 0.0
C551 C 0.81051 0.2844 0.1713 0.0
C552 C 0.84826 0.32264 0.16664 0.0
H553 H 0.99678 0.52945 0.13893 0.0
H554 H 0.93419 0.46698 0.14175 0.0
H555 H 0.94508 0.35682 0.15617 0.0
H556 H 0.75834 0.18571 0.15882 0.0
H557 H 0.81712 0.24822 0.14904 0.0
C558 C 0.1504 0.5703 0.08157 0.0
C559 C 0.15118 0.60419 0.08885 0.0
C560 C 0.14947 0.56465 0.06008 0.0
C561 C 0.12143 0.54847 0.01408 0.0
H562 H 0.18083 0.63787 0.97682 0.0
C563 C 1.0871 0.54165 0.92471 0.0
C564 C 0.11884 0.56164 0.91146 0.0
C565 C 1.09352 0.5455 0.94642 0.0
C566 C 0.16437 0.61245 0.98699 0.0
H567 H 0.15218 0.659 0.0791 0.0
H568 H 0.15018 0.64897 0.04183 0.0
H569 H 0.1888 0.6475 0.0145 0.0
H570 H 0.18244 0.601 0.9108 0.0
H571 H 0.19378 0.60722 0.94874 0.0
H572 H 1.09719 0.51337 0.98658 0.0
C573 C 0.15077 0.62693 0.05269 0.0
C574 C 0.16859 0.61809 0.00861 0.0
C575 C 0.15164 0.63255 0.07412 0.0
C576 C 0.15734 0.585 0.92053 0.0
C577 C 0.16378 0.58891 0.94228 0.0
C578 C 0.11719 0.54284 0.99245 0.0
C579 C 0.14942 0.5928 0.04536 0.0
C580 C 0.14682 0.58627 0.02243 0.0
C581 C 0.1319 0.56942 0.9555 0.0
C582 C 0.13825 0.57485 0.9786 0.0
H583 H 0.15014 0.54789 0.09245 0.0
H584 H 0.14892 0.53825 0.05501 0.0
H585 H 0.10396 0.52334 0.02421 0.0
H586 H 1.05713 0.52298 0.91829 0.0
H587 H 1.06819 0.53037 0.95605 0.0
C588 C 0.63666 0.08725 0.41162 0.0
C589 C 0.67054 0.09177 0.42342 0.0
C590 C 0.63636 0.09026 0.38974 0.0
C591 C 0.7032 0.13398 0.3464 0.0
H592 H 0.61366 1.05764 0.31211 0.0
C593 C 0.7094 0.13384 0.25675 0.0
C594 C 0.67479 0.12491 0.24434 0.0
C595 C 0.70826 0.12886 0.2785 0.0
C596 C 0.6387 0.07959 0.32141 0.0
H597 H 0.73066 0.10297 0.42138 0.0
H598 H 0.73016 0.10851 0.38332 0.0
H599 H 0.61246 1.05102 0.35016 0.0
H600 H 0.61185 0.10395 0.24505 0.0
H601 H 0.6099 0.09606 0.28303 0.0
H602 H 0.72925 0.1631 0.31784 0.0
C603 C 0.70386 0.1027 0.39099 0.0
C604 C 0.63802 0.07568 0.34325 0.0
C605 C 0.70403 0.09927 0.41282 0.0
C606 C 0.63894 0.11069 0.25418 0.0
C607 C 0.63785 0.10606 0.27598 0.0
C608 C 0.70375 0.13813 0.3246 0.0
C609 C 0.67009 0.09834 0.37919 0.0
C610 C 0.67036 0.10272 0.35598 0.0
C611 C 0.67253 0.11519 0.28847 0.0
C612 C 0.67161 0.11088 0.31176 0.0
H613 H 0.61034 0.08142 0.41927 0.0
H614 H 0.60999 0.08703 0.38109 0.0
H615 H 0.72833 0.15567 0.35578 0.0
H616 H 0.73736 0.14428 0.24959 0.0
H617 H 0.73542 0.13539 0.28748 0.0
C618 C 0.60413 0.5327 0.74128 0.0
C619 C 0.62913 0.56347 0.75504 0.0
C620 C 0.61027 0.53688 0.71985 0.0
C621 C 0.6556 0.61146 0.67789 0.0
H622 H 0.65271 0.52513 0.64871 0.0
C623 C 0.69777 0.63037 0.59212 0.0
C624 C 0.67512 0.59825 0.57875 0.0
C625 C 0.69375 0.62563 0.61372 0.0
C626 C 0.65313 0.54936 0.65652 0.0
H627 H 0.67986 0.62304 0.75694 0.0
H628 H 0.69027 0.63044 0.71948 0.0
H629 H 0.64151 0.51806 0.68603 0.0
H630 H 0.63099 0.5358 0.57756 0.0
H631 H 0.62326 0.52753 0.61527 0.0
H632 H 0.66635 0.64253 0.64844 0.0
C633 C 0.66593 0.60308 0.72532 0.0
C634 C 0.64679 0.54531 0.67794 0.0
C635 C 0.66004 0.59876 0.7468 0.0
C636 C 0.64909 0.56098 0.58752 0.0
C637 C 0.64475 0.5563 0.60915 0.0
C638 C 0.66158 0.61539 0.65645 0.0
C639 C 0.6413 0.57206 0.71163 0.0
C640 C 0.648 0.57633 0.68887 0.0
C641 C 0.66665 0.58872 0.62253 0.0
C642 C 0.66054 0.58445 0.64545 0.0
H643 H 0.58008 0.50508 0.74709 0.0
H644 H 0.59052 0.51263 0.70968 0.0
H645 H 0.65618 0.63568 0.6858 0.0
H646 H 0.7185 0.65932 0.58582 0.0
H647 H 0.71185 0.65105 0.62352 0.0
C648 C 0.66024 0.07643 0.56685 0.0
C649 C 0.69131 0.09668 0.55326 0.0
C650 C 0.66764 0.08169 0.58851 0.0
C651 C 0.69561 0.08185 0.63435 0.0
H652 H 0.77846 0.18482 0.65381 0.0
C653 C 0.76662 0.10447 0.71832 0.0
C654 C 0.78127 0.1414 0.72766 0.0
C655 C 0.75152 0.09877 0.69756 0.0
C656 C 0.75474 0.15601 0.64881 0.0
H657 H 0.75464 0.13703 0.55172 0.0
H658 H 0.7677 0.14498 0.58915 0.0
H659 H 0.75876 0.17577 0.61694 0.0
H660 H 0.79026 0.20082 0.72313 0.0
H661 H 0.76251 0.19064 0.68711 0.0
H662 H 0.69069 1.06255 0.66642 0.0
C663 C 0.73736 0.12627 0.58326 0.0
C664 C 0.74389 0.1506 0.6275 0.0
C665 C 0.72991 0.12146 0.56173 0.0
C666 C 0.7796 0.17224 0.71611 0.0
C667 C 0.76385 0.16636 0.69546 0.0
C668 C 0.70609 0.08742 0.65577 0.0
C669 C 0.70632 0.10694 0.59696 0.0
C670 C 0.71488 0.11324 0.61991 0.0
C671 C 0.75014 0.12972 0.68578 0.0
C672 C 0.73638 0.1244 0.66324 0.0
H673 H 0.63016 1.05721 0.56073 0.0
H674 H 0.64296 1.06653 0.59857 0.0
H675 H 0.67324 1.05262 0.6291 0.0
H676 H 0.76786 0.08033 0.72692 0.0
H677 H 0.742 0.0704 0.69062 0.0
C678 C 0.62278 0.49833 0.89291 0.0
C679 C 0.61455 0.52688 0.88322 0.0
C680 C 0.61883 0.49038 0.91437 0.0
C681 C 0.61129 0.53185 0.9635 0.0
H682 H 0.56876 0.42319 0.98388 0.0
C683 C 0.6038 0.49552 0.05141 0.0
C684 C 0.56946 0.46179 0.05836 0.0
C685 C 0.61112 0.50194 0.0302 0.0
C686 C 0.58038 0.45364 0.97844 0.0
H687 H 0.59575 0.56952 0.88838 0.0
H688 H 0.58783 0.55496 0.92569 0.0
H689 H 0.57693 0.43791 0.94659 0.0
H690 H 0.51662 0.40761 0.04829 0.0
H691 H 0.52856 0.41968 0.01113 0.0
H692 H 0.61311 0.54743 -0.00486 0.0
C693 C 0.59821 0.53928 0.91685 0.0
C694 C 0.58559 0.46219 0.95707 0.0
C695 C 0.60255 0.54752 0.89543 0.0
C696 C 0.54311 0.43413 0.04351 0.0
C697 C 0.55023 0.44083 0.02219 0.0
C698 C 0.60575 0.52327 0.9848 0.0
C699 C 0.6062 0.51053 0.92658 0.0
C700 C 0.60108 0.50141 0.94934 0.0
C701 C 0.58401 0.47519 0.01527 0.0
C702 C 0.59028 0.48408 0.99257 0.0
H703 H 0.63239 0.48212 0.88395 0.0
H704 H 0.62596 0.4686 0.92139 0.0
H705 H 0.62377 0.56246 0.95816 0.0
H706 H 0.62453 0.51792 0.06224 0.0
H707 H 0.63785 0.52831 0.0255 0.0
C708 C 0.1104 0.63754 0.22235 0.0
C709 C 0.13942 0.6297 0.21579 0.0
C710 C 0.1089 0.64385 0.24339 0.0
C711 C 0.16906 0.67016 0.2935 0.0
H712 H 1.0664 0.62603 0.31739 0.0
C713 C 0.14832 0.65872 0.38224 0.0
C714 C 0.12049 0.66779 0.38928 0.0
C715 C 0.15206 0.65722 0.36089 0.0
C716 C 1.09526 0.63898 0.31087 0.0
H717 H 0.18951 0.62208 0.22621 0.0
H718 H 0.18635 0.63224 0.2631 0.0
H719 H 1.06982 0.61576 0.28062 0.0
H720 H 1.07538 0.68327 0.37959 0.0
H721 H 1.08186 0.68058 0.34207 0.0
H722 H 0.19439 0.69259 0.32398 0.0
C723 C 0.16522 0.63428 0.25188 0.0
C724 C 1.09726 0.63311 0.2898 0.0
C725 C 0.16688 0.6282 0.23076 0.0
C726 C 1.09712 0.67632 0.37455 0.0
C727 C 1.10062 0.67446 0.35314 0.0
C728 C 0.16704 0.67579 0.31462 0.0
C729 C 0.1362 0.6422 0.25843 0.0
C730 C 0.13418 0.64858 0.28086 0.0
C731 C 0.12788 0.66452 0.34612 0.0
C732 C 0.13012 0.66018 0.32352 0.0
H733 H 1.08896 0.63921 0.2112 0.0
H734 H 1.0866 0.65054 0.24781 0.0
H735 H 0.19796 0.68306 0.28704 0.0
H736 H 0.16699 0.65242 0.39329 0.0
H737 H 0.1731 0.6492 0.35595 0.0
loop_
_geom_bond_atom_site_label_1
_geom_bond_atom_site_label_2
_geom_bond_distance
_geom_bond_site_symmetry_2
_ccdc_geom_bond_type
Tb0 C10 2.825 . S
Tb0 O11 2.347 . S
Tb0 O14 2.366 . S
Tb0 O19 2.418 . S
Tb0 O20 2.384 1_455 S
Tb0 O23 2.479 . S
Tb0 O24 2.471 . S
Eu1 O12 2.418 . S
Eu1 O13 2.384 1_655 S
Eu1 O16 2.479 . S
Eu1 O17 2.471 . S
Eu1 O18 2.347 1_655 S
Eu1 O21 2.366 . S
Eu1 C31 2.825 . S
C2 O18 1.259 . S
C2 O19 1.265 . S
C3 O20 1.255 . S
C3 O21 1.265 . S
C4 C6 1.380 . S
C4 C7 1.374 . S
C4 C10 1.507 . S
C5 C6 1.384 . S
C5 C9 1.387 . S
C5 H32 0.930 . S
C6 C4 1.380 . S
C6 C5 1.384 . S
C6 H33 0.931 . S
C7 C4 1.374 . S
C7 C8 1.390 . S
C7 H34 0.930 . S
C8 C7 1.390 . S
C8 C9 1.391 . S
C8 H35 0.930 . S
C9 C5 1.387 . S
C9 C8 1.391 . S
C10 Tb0 2.825 . S
C10 C4 1.507 . S
C10 O23 1.238 . S
C10 O24 1.247 . S
O11 Tb0 2.347 . S
O11 C15 1.259 . S
O12 Eu1 2.418 . S
O12 C15 1.265 1_655 S
O13 Eu1 2.384 1_455 S
O13 C22 1.255 . S
O14 Tb0 2.366 . S
O14 C22 1.265 . S
C15 O11 1.259 . S
C15 O12 1.265 1_455 S
O16 Eu1 2.479 . S
O16 C31 1.238 . S
O17 Eu1 2.471 . S
O17 C31 1.247 . S
O18 Eu1 2.347 1_455 S
O18 C2 1.259 . S
O19 Tb0 2.418 . S
O19 C2 1.265 . S
O20 Tb0 2.384 1_655 S
O20 C3 1.255 . S
O21 Eu1 2.366 . S
O21 C3 1.265 . S
C22 O13 1.255 . S
C22 O14 1.265 . S
O23 Tb0 2.479 . S
O23 C10 1.238 . S
O24 Tb0 2.471 . S
O24 C10 1.247 . S
C25 C28 1.380 . S
C25 C29 1.374 . S
C25 C31 1.507 . S
C26 C27 1.387 . S
C26 C30 1.391 . S
C27 C26 1.387 . S
C27 C28 1.384 . S
C27 H36 0.930 . S
C28 C25 1.380 . S
C28 C27 1.384 . S
C28 H37 0.931 . S
C29 C25 1.374 . S
C29 C30 1.390 . S
C29 H38 0.930 . S
C30 C26 1.391 . S
C30 C29 1.390 . S
C30 H39 0.930 . S
C31 Eu1 2.825 . S
C31 O16 1.238 . S
C31 O17 1.247 . S
C31 C25 1.507 . S
H32 C5 0.930 . S
H33 C6 0.931 . S
H34 C7 0.930 . S
H35 C8 0.930 . S
H36 C27 0.930 . S
H37 C28 0.931 . S
H38 C29 0.930 . S
H39 C30 0.930 . S
Tb40 C50 2.825 . S
Tb40 O51 2.347 . S
Tb40 O54 2.366 . S
Tb40 O59 2.418 . S
Tb40 O60 2.384 1_545 S
Tb40 O63 2.479 . S
Tb40 O64 2.471 . S
Eu41 O52 2.418 . S
Eu41 O53 2.384 . S
Eu41 O56 2.479 1_545 S
Eu41 O57 2.471 1_545 S
Eu41 O58 2.347 . S
Eu41 O61 2.366 1_545 S
Eu41 C71 2.825 1_545 S
C42 O58 1.259 . S
C42 O59 1.265 . S
C43 O60 1.255 . S
C43 O61 1.265 . S
C44 C46 1.380 . S
C44 C47 1.374 . S
C44 C50 1.507 . S
C45 C46 1.384 . S
C45 C49 1.387 . S
C45 H72 0.930 . S
C46 C44 1.380 . S
C46 C45 1.384 . S
C46 H73 0.931 . S
C47 C44 1.374 . S
C47 C48 1.390 . S
C47 H74 0.930 . S
C48 C47 1.390 . S
C48 C49 1.391 . S
C48 H75 0.930 . S
C49 C45 1.387 . S
C49 C48 1.391 . S
C50 Tb40 2.825 . S
C50 C44 1.507 . S
C50 O63 1.238 . S
C50 O64 1.247 . S
O51 Tb40 2.347 . S
O51 C55 1.259 . S
O52 Eu41 2.418 . S
O52 C55 1.265 . S
O53 Eu41 2.384 . S
O53 C62 1.255 . S
O54 Tb40 2.366 . S
O54 C62 1.265 . S
C55 O51 1.259 . S
C55 O52 1.265 . S
O56 Eu41 2.479 1_565 S
O56 C71 1.238 . S
O57 Eu41 2.471 1_565 S
O57 C71 1.247 . S
O58 Eu41 2.347 . S
O58 C42 1.259 . S
O59 Tb40 2.418 . S
O59 C42 1.265 . S
O60 Tb40 2.384 1_565 S
O60 C43 1.255 . S
O61 Eu41 2.366 1_565 S
O61 C43 1.265 . S
C62 O53 1.255 . S
C62 O54 1.265 . S
O63 Tb40 2.479 . S
O63 C50 1.238 . S
O64 Tb40 2.471 . S
O64 C50 1.247 . S
C65 C68 1.380 . S
C65 C69 1.374 . S
C65 C71 1.507 . S
C66 C67 1.387 . S
C66 C70 1.391 . S
C67 C66 1.387 . S
C67 C68 1.384 . S
C67 H76 0.930 . S
C68 C65 1.380 . S
C68 C67 1.384 . S
C68 H77 0.931 . S
C69 C65 1.374 . S
C69 C70 1.390 . S
C69 H78 0.930 . S
C70 C66 1.391 . S
C70 C69 1.390 . S
C70 H79 0.930 . S
C71 Eu41 2.825 1_565 S
C71 O56 1.238 . S
C71 O57 1.247 . S
C71 C65 1.507 . S
H72 C45 0.930 . S
H73 C46 0.931 . S
H74 C47 0.930 . S
H75 C48 0.930 . S
H76 C67 0.930 . S
H77 C68 0.931 . S
H78 C69 0.930 . S
H79 C70 0.930 . S
Tb80 C90 2.825 . S
Tb80 O91 2.347 . S
Tb80 O94 2.366 . S
Tb80 O99 2.418 . S
Tb80 O100 2.384 . S
Tb80 O103 2.479 . S
Tb80 O104 2.471 . S
Eu81 O92 2.418 . S
Eu81 O93 2.384 . S
Eu81 O96 2.479 . S
Eu81 O97 2.471 . S
Eu81 O98 2.347 . S
Eu81 O101 2.366 . S
Eu81 C111 2.825 . S
C82 O98 1.259 . S
C82 O99 1.265 . S
C83 O100 1.255 . S
C83 O101 1.265 . S
C84 C86 1.380 . S
C84 C87 1.374 . S
C84 C90 1.507 . S
C85 C86 1.384 . S
C85 C89 1.387 . S
C85 H112 0.930 . S
C86 C84 1.380 . S
C86 C85 1.384 . S
C86 H113 0.931 . S
C87 C84 1.374 . S
C87 C88 1.390 . S
C87 H114 0.930 . S
C88 C87 1.390 . S
C88 C89 1.391 . S
C88 H115 0.930 . S
C89 C85 1.387 . S
C89 C88 1.391 . S
C90 Tb80 2.825 . S
C90 C84 1.507 . S
C90 O103 1.238 . S
C90 O104 1.247 . S
O91 Tb80 2.347 . S
O91 C95 1.259 . S
O92 Eu81 2.418 . S
O92 C95 1.265 . S
O93 Eu81 2.384 . S
O93 C102 1.255 . S
O94 Tb80 2.366 . S
O94 C102 1.265 . S
C95 O91 1.259 . S
C95 O92 1.265 . S
O96 Eu81 2.479 . S
O96 C111 1.238 . S
O97 Eu81 2.471 . S
O97 C111 1.247 . S
O98 Eu81 2.347 . S
O98 C82 1.259 . S
O99 Tb80 2.418 . S
O99 C82 1.265 . S
O100 Tb80 2.384 . S
O100 C83 1.255 . S
O101 Eu81 2.366 . S
O101 C83 1.265 . S
C102 O93 1.255 . S
C102 O94 1.265 . S
O103 Tb80 2.479 . S
O103 C90 1.238 . S
O104 Tb80 2.471 . S
O104 C90 1.247 . S
C105 C108 1.380 . S
C105 C109 1.374 . S
C105 C111 1.507 . S
C106 C107 1.387 . S
C106 C110 1.391 . S
C107 C106 1.387 . S
C107 C108 1.384 . S
C107 H116 0.930 . S
C108 C105 1.380 . S
C108 C107 1.384 . S
C108 H117 0.931 . S
C109 C105 1.374 . S
C109 C110 1.390 . S
C109 H118 0.930 . S
C110 C106 1.391 . S
C110 C109 1.390 . S
C110 H119 0.930 . S
C111 Eu81 2.825 . S
C111 O96 1.238 . S
C111 O97 1.247 . S
C111 C105 1.507 . S
H112 C85 0.930 . S
H113 C86 0.931 . S
H114 C87 0.930 . S
H115 C88 0.930 . S
H116 C107 0.930 . S
H117 C108 0.931 . S
H118 C109 0.930 . S
H119 C110 0.930 . S
H120 C127 0.929 . S
H121 C130 0.930 . S
H122 C132 0.929 . S
H123 C124 0.969 . S
C124 H123 0.969 . S
C124 O125 1.550 . S
C124 H126 0.973 . S
O125 C124 1.550 . S
O125 C131 1.412 . S
H126 C124 0.973 . S
C127 H120 0.929 . S
C127 C128 1.400 . S
C127 C129 1.364 . S
C128 C127 1.400 . S
C128 C132 1.377 . S
C129 C127 1.364 . S
C129 C130 1.374 1_545 S
C130 H121 0.930 . S
C130 C129 1.374 1_565 S
C130 C131 1.383 . S
C131 O125 1.412 . S
C131 C130 1.383 . S
C131 C132 1.394 1_565 S
C132 H122 0.929 . S
C132 C128 1.377 . S
C132 C131 1.394 1_545 S
H133 C140 0.929 . S
H134 C143 0.930 . S
H135 C145 0.929 . S
H136 C137 0.969 . S
C137 H136 0.969 . S
C137 O138 1.550 . S
C137 H139 0.973 . S
O138 C137 1.550 . S
O138 C144 1.412 . S
H139 C137 0.973 . S
C140 H133 0.929 . S
C140 C141 1.400 . S
C140 C142 1.364 . S
C141 C140 1.400 . S
C141 C145 1.377 . S
C142 C140 1.364 . S
C142 C143 1.374 . S
C143 H134 0.930 . S
C143 C142 1.374 . S
C143 C144 1.383 . S
C144 O138 1.412 . S
C144 C143 1.383 . S
C144 C145 1.394 . S
C145 H135 0.929 . S
C145 C141 1.377 . S
C145 C144 1.394 . S
H146 C153 0.932 . S
H147 C156 0.930 . S
H148 C158 0.929 . S
H149 C150 0.969 . S
C150 H149 0.969 . S
C150 O151 1.550 . S
C150 H152 0.973 . S
O151 C150 1.550 . S
O151 C157 1.412 . S
H152 C150 0.973 . S
C153 H146 0.932 . S
C153 C154 1.400 . S
C153 C155 1.364 . S
C154 C153 1.400 . S
C154 C158 1.377 . S
C155 C153 1.364 . S
C155 C156 1.374 . S
C156 H147 0.930 . S
C156 C155 1.374 . S
C156 C157 1.383 . S
C157 O151 1.412 . S
C157 C156 1.383 . S
C157 C158 1.394 . S
C158 H148 0.929 . S
C158 C154 1.377 . S
C158 C157 1.394 . S
H159 C166 0.929 1_655 S
H160 C169 0.930 . S
H161 C171 0.929 . S
H162 C163 0.969 . S
C163 H162 0.969 . S
C163 O164 1.550 . S
C163 H165 0.973 . S
O164 C163 1.550 . S
O164 C170 1.412 . S
H165 C163 0.973 . S
C166 H159 0.929 1_455 S
C166 C167 1.400 . S
C166 C168 1.364 . S
C167 C166 1.400 . S
C167 C171 1.377 . S
C168 C166 1.364 . S
C168 C169 1.374 . S
C169 H160 0.930 . S
C169 C168 1.374 . S
C169 C170 1.383 . S
C170 O164 1.412 . S
C170 C169 1.383 . S
C170 C171 1.394 . S
C171 H161 0.929 . S
C171 C167 1.377 . S
C171 C170 1.394 . S
H172 C179 0.929 . S
H173 C182 0.930 . S
H174 C184 0.929 1_565 S
H175 C176 0.969 . S
C176 H175 0.969 . S
C176 O177 1.550 . S
C176 H178 0.973 . S
O177 C176 1.550 . S
O177 C183 1.412 . S
H178 C176 0.973 . S
C179 H172 0.929 . S
C179 C180 1.400 . S
C179 C181 1.364 1_565 S
C180 C179 1.400 . S
C180 C184 1.377 1_565 S
C181 C179 1.364 1_545 S
C181 C182 1.374 . S
C182 H173 0.930 . S
C182 C181 1.374 . S
C182 C183 1.383 . S
C183 O177 1.412 . S
C183 C182 1.383 . S
C183 C184 1.394 . S
C184 H174 0.929 1_545 S
C184 C180 1.377 1_545 S
C184 C183 1.394 . S
H185 C192 0.929 . S
H186 C195 0.930 . S
H187 C197 0.929 . S
H188 C189 0.969 . S
C189 H188 0.969 . S
C189 O190 1.550 . S
C189 H191 0.973 . S
O190 C189 1.550 . S
O190 C196 1.412 . S
H191 C189 0.973 . S
C192 H185 0.929 . S
C192 C193 1.400 . S
C192 C194 1.364 . S
C193 C192 1.400 . S
C193 C197 1.377 . S
C194 C192 1.364 . S
C194 C195 1.374 . S
C195 H186 0.930 . S
C195 C194 1.374 . S
C195 C196 1.383 . S
C196 O190 1.412 . S
C196 C195 1.383 . S
C196 C197 1.394 . S
C197 H187 0.929 . S
C197 C193 1.377 . S
C197 C196 1.394 . S
C198 C199 1.349 . S
C198 C200 1.327 . S
C198 H223 0.950 . S
C199 C198 1.349 . S
C199 C215 1.349 . S
C200 C198 1.327 . S
C200 C219 1.429 . S
C200 H224 0.950 . S
C201 C218 1.574 . S
C201 C220 1.368 . S
C201 H225 0.949 . S
H202 C206 0.949 . S
C203 C204 1.349 . S
C203 C205 1.327 . S
C203 H226 0.950 . S
C204 C203 1.349 . S
C204 C216 1.349 . S
C205 C203 1.327 . S
C205 C221 1.429 . S
C205 H227 0.950 . S
C206 H202 0.949 . S
C206 C214 1.574 . S
C206 C222 1.368 . S
H207 C215 0.950 . S
H208 C213 0.950 . S
H209 C214 0.949 . S
H210 C216 0.950 . S
H211 C217 0.950 . S
H212 C218 0.949 . S
C213 H208 0.950 . S
C213 C215 1.327 . S
C213 C219 1.429 . S
C214 C206 1.574 . S
C214 H209 0.949 . S
C214 C220 1.368 . S
C215 C199 1.349 . S
C215 H207 0.950 . S
C215 C213 1.327 . S
C216 C204 1.349 . S
C216 H210 0.950 . S
C216 C217 1.327 . S
C217 H211 0.950 . S
C217 C216 1.327 . S
C217 C221 1.429 . S
C218 C201 1.574 . S
C218 H212 0.949 . S
C218 C222 1.368 . S
C219 C200 1.429 . S
C219 C213 1.429 . S
C219 C220 1.523 . S
C220 C201 1.368 . S
C220 C214 1.368 . S
C220 C219 1.523 . S
C221 C205 1.429 . S
C221 C217 1.429 . S
C221 C222 1.523 . S
C222 C206 1.368 . S
C222 C218 1.368 . S
C222 C221 1.523 . S
H223 C198 0.950 . S
H224 C200 0.950 . S
H225 C201 0.949 . S
H226 C203 0.950 . S
H227 C205 0.950 . S
C228 C229 1.349 . S
C228 C230 1.327 . S
C228 H253 0.950 . S
C229 C228 1.349 . S
C229 C245 1.349 . S
C230 C228 1.327 . S
C230 C249 1.429 . S
C230 H254 0.950 . S
C231 C248 1.574 . S
C231 C250 1.368 . S
C231 H255 0.949 . S
H232 C236 0.949 . S
C233 C234 1.349 1_655 S
C233 C235 1.327 . S
C233 H256 0.950 . S
C234 C233 1.349 1_455 S
C234 C246 1.349 . S
C235 C233 1.327 . S
C235 C251 1.429 . S
C235 H257 0.950 . S
C236 H232 0.949 . S
C236 C244 1.574 . S
C236 C252 1.368 . S
H237 C245 0.950 . S
H238 C243 0.950 . S
H239 C244 0.949 . S
H240 C246 0.950 . S
H241 C247 0.950 . S
H242 C248 0.949 . S
C243 H238 0.950 . S
C243 C245 1.327 . S
C243 C249 1.429 . S
C244 C236 1.574 . S
C244 H239 0.949 . S
C244 C250 1.368 . S
C245 C229 1.349 . S
C245 H237 0.950 . S
C245 C243 1.327 . S
C246 C234 1.349 . S
C246 H240 0.950 . S
C246 C247 1.327 1_455 S
C247 H241 0.950 . S
C247 C246 1.327 1_655 S
C247 C251 1.429 . S
C248 C231 1.574 . S
C248 H242 0.949 . S
C248 C252 1.368 . S
C249 C230 1.429 . S
C249 C243 1.429 . S
C249 C250 1.523 . S
C250 C231 1.368 . S
C250 C244 1.368 . S
C250 C249 1.523 . S
C251 C235 1.429 . S
C251 C247 1.429 . S
C251 C252 1.523 . S
C252 C236 1.368 . S
C252 C248 1.368 . S
C252 C251 1.523 . S
H253 C228 0.950 . S
H254 C230 0.950 . S
H255 C231 0.949 . S
H256 C233 0.950 . S
H257 C235 0.950 . S
C258 C259 1.349 . S
C258 C260 1.327 . S
C258 H283 0.950 . S
C259 C258 1.349 . S
C259 C275 1.349 . S
C260 C258 1.327 . S
C260 C279 1.429 . S
C260 H284 0.950 . S
C261 C278 1.574 . S
C261 C280 1.368 . S
C261 H285 0.949 . S
H262 C266 0.949 . S
C263 C264 1.349 . S
C263 C265 1.327 . S
C263 H286 0.950 . S
C264 C263 1.349 . S
C264 C276 1.349 . S
C265 C263 1.327 . S
C265 C281 1.429 . S
C265 H287 0.950 . S
C266 H262 0.949 . S
C266 C274 1.574 . S
C266 C282 1.368 . S
H267 C275 0.950 . S
H268 C273 0.950 . S
H269 C274 0.949 . S
H270 C276 0.963 . S
H271 C277 0.950 . S
H272 C278 0.949 . S
C273 H268 0.950 . S
C273 C275 1.327 . S
C273 C279 1.429 . S
C274 C266 1.574 . S
C274 H269 0.949 . S
C274 C280 1.368 . S
C275 C259 1.349 . S
C275 H267 0.950 . S
C275 C273 1.327 . S
C276 C264 1.349 . S
C276 H270 0.963 . S
C276 C277 1.327 . S
C277 H271 0.950 . S
C277 C276 1.327 . S
C277 C281 1.429 . S
C278 C261 1.574 . S
C278 H272 0.949 . S
C278 C282 1.368 . S
C279 C260 1.429 . S
C279 C273 1.429 . S
C279 C280 1.523 . S
C280 C261 1.368 . S
C280 C274 1.368 . S
C280 C279 1.523 . S
C281 C265 1.429 . S
C281 C277 1.429 . S
C281 C282 1.523 . S
C282 C266 1.368 . S
C282 C278 1.368 . S
C282 C281 1.523 . S
H283 C258 0.950 . S
H284 C260 0.950 . S
H285 C261 0.949 . S
H286 C263 0.950 . S
H287 C265 0.950 . S
C288 C289 1.349 . S
C288 C290 1.327 . S
C288 H313 0.950 . S
C289 C288 1.349 . S
C289 C305 1.349 . S
C290 C288 1.327 . S
C290 C309 1.429 . S
C290 H314 0.950 . S
C291 C308 1.574 . S
C291 C310 1.368 . S
C291 H315 0.949 . S
H292 C296 0.949 . S
C293 C294 1.349 . S
C293 C295 1.327 . S
C293 H316 0.950 . S
C294 C293 1.349 . S
C294 C306 1.349 . S
C295 C293 1.327 . S
C295 C311 1.429 . S
C295 H317 0.950 . S
C296 H292 0.949 . S
C296 C304 1.574 . S
C296 C312 1.368 . S
H297 C305 0.950 . S
H298 C303 0.950 . S
H299 C304 0.949 . S
H300 C306 0.950 . S
H301 C307 0.950 . S
H302 C308 0.949 . S
C303 H298 0.950 . S
C303 C305 1.327 . S
C303 C309 1.429 . S
C304 C296 1.574 . S
C304 H299 0.949 . S
C304 C310 1.368 . S
C305 C289 1.349 . S
C305 H297 0.950 . S
C305 C303 1.327 . S
C306 C294 1.349 . S
C306 H300 0.950 . S
C306 C307 1.327 . S
C307 H301 0.950 . S
C307 C306 1.327 . S
C307 C311 1.429 . S
C308 C291 1.574 . S
C308 H302 0.949 . S
C308 C312 1.368 . S
C309 C290 1.429 . S
C309 C303 1.429 . S
C309 C310 1.523 . S
C310 C291 1.368 . S
C310 C304 1.368 . S
C310 C309 1.523 . S
C311 C295 1.429 . S
C311 C307 1.429 . S
C311 C312 1.523 . S
C312 C296 1.368 . S
C312 C308 1.368 . S
C312 C311 1.523 . S
H313 C288 0.950 . S
H314 C290 0.950 . S
H315 C291 0.949 . S
H316 C293 0.950 . S
H317 C295 0.950 . S
C318 C319 1.349 . S
C318 C320 1.327 . S
C318 H343 0.950 . S
C319 C318 1.349 . S
C319 C335 1.349 . S
C320 C318 1.327 . S
C320 C339 1.429 . S
C320 H344 0.950 . S
C321 C338 1.574 . S
C321 C340 1.368 . S
C321 H345 0.949 . S
H322 C326 0.949 . S
C323 C324 1.349 . S
C323 C325 1.327 . S
C323 H346 0.950 . S
C324 C323 1.349 . S
C324 C336 1.349 . S
C325 C323 1.327 . S
C325 C341 1.429 . S
C325 H347 0.950 . S
C326 H322 0.949 . S
C326 C334 1.574 . S
C326 C342 1.368 . S
H327 C335 0.950 . S
H328 C333 0.950 . S
H329 C334 0.949 . S
H330 C336 0.950 . S
H331 C337 0.950 . S
H332 C338 0.949 . S
C333 H328 0.950 . S
C333 C335 1.327 . S
C333 C339 1.429 . S
C334 C326 1.574 . S
C334 H329 0.949 . S
C334 C340 1.368 . S
C335 C319 1.349 . S
C335 H327 0.950 . S
C335 C333 1.327 . S
C336 C324 1.349 . S
C336 H330 0.950 . S
C336 C337 1.327 . S
C337 H331 0.950 . S
C337 C336 1.327 . S
C337 C341 1.429 . S
C338 C321 1.574 . S
C338 H332 0.949 . S
C338 C342 1.368 . S
C339 C320 1.429 . S
C339 C333 1.429 . S
C339 C340 1.523 . S
C340 C321 1.368 . S
C340 C334 1.368 . S
C340 C339 1.523 . S
C341 C325 1.429 . S
C341 C337 1.429 . S
C341 C342 1.523 . S
C342 C326 1.368 . S
C342 C338 1.368 . S
C342 C341 1.523 . S
H343 C318 0.950 . S
H344 C320 0.950 . S
H345 C321 0.949 . S
H346 C323 0.950 . S
H347 C325 0.950 . S
C348 C349 1.349 . S
C348 C350 1.327 . S
C348 H373 0.950 . S
C349 C348 1.349 . S
C349 C365 1.349 . S
C350 C348 1.327 . S
C350 C369 1.429 . S
C350 H374 0.950 . S
C351 C368 1.574 . S
C351 C370 1.368 . S
C351 H375 0.949 . S
H352 C356 0.949 . S
C353 C354 1.349 . S
C353 C355 1.327 . S
C353 H376 0.950 . S
C354 C353 1.349 . S
C354 C366 1.349 . S
C355 C353 1.327 . S
C355 C371 1.429 . S
C355 H377 0.950 . S
C356 H352 0.949 . S
C356 C364 1.574 . S
C356 C372 1.368 . S
H357 C365 0.950 . S
H358 C363 0.950 . S
H359 C364 0.949 . S
H360 C366 0.950 . S
H361 C367 0.950 . S
H362 C368 0.949 . S
C363 H358 0.950 . S
C363 C365 1.327 . S
C363 C369 1.429 . S
C364 C356 1.574 . S
C364 H359 0.949 . S
C364 C370 1.368 . S
C365 C349 1.349 . S
C365 H357 0.950 . S
C365 C363 1.327 . S
C366 C354 1.349 . S
C366 H360 0.950 . S
C366 C367 1.327 . S
C367 H361 0.950 . S
C367 C366 1.327 . S
C367 C371 1.429 . S
C368 C351 1.574 . S
C368 H362 0.949 . S
C368 C372 1.368 . S
C369 C350 1.429 . S
C369 C363 1.429 . S
C369 C370 1.523 . S
C370 C351 1.368 . S
C370 C364 1.368 . S
C370 C369 1.523 . S
C371 C355 1.429 . S
C371 C367 1.429 . S
C371 C372 1.523 . S
C372 C356 1.368 . S
C372 C368 1.368 . S
C372 C371 1.523 . S
H373 C348 0.950 . S
H374 C350 0.950 . S
H375 C351 0.949 . S
H376 C353 0.950 . S
H377 C355 0.950 . S
C378 C379 1.349 . S
C378 C380 1.327 . S
C378 H403 0.950 . S
C379 C378 1.349 . S
C379 C395 1.349 . S
C380 C378 1.327 . S
C380 C399 1.429 . S
C380 H404 0.950 . S
C381 C398 1.574 . S
C381 C400 1.368 . S
C381 H405 0.949 . S
H382 C386 0.949 . S
C383 C384 1.349 . S
C383 C385 1.327 . S
C383 H406 0.950 . S
C384 C383 1.349 . S
C384 C396 1.349 . S
C385 C383 1.327 . S
C385 C401 1.429 . S
C385 H407 0.950 . S
C386 H382 0.949 . S
C386 C394 1.574 . S
C386 C402 1.368 . S
H387 C395 0.950 . S
H388 C393 0.950 . S
H389 C394 0.949 . S
H390 C396 0.950 . S
H391 C397 0.950 . S
H392 C398 0.949 . S
C393 H388 0.950 . S
C393 C395 1.327 . S
C393 C399 1.429 . S
C394 C386 1.574 . S
C394 H389 0.949 . S
C394 C400 1.368 . S
C395 C379 1.349 . S
C395 H387 0.950 . S
C395 C393 1.327 . S
C396 C384 1.349 . S
C396 H390 0.950 . S
C396 C397 1.327 . S
C397 H391 0.950 . S
C397 C396 1.327 . S
C397 C401 1.429 . S
C398 C381 1.574 . S
C398 H392 0.949 . S
C398 C402 1.368 . S
C399 C380 1.429 . S
C399 C393 1.429 . S
C399 C400 1.523 . S
C400 C381 1.368 . S
C400 C394 1.368 . S
C400 C399 1.523 . S
C401 C385 1.429 . S
C401 C397 1.429 . S
C401 C402 1.523 . S
C402 C386 1.368 . S
C402 C398 1.368 . S
C402 C401 1.523 . S
H403 C378 0.950 . S
H404 C380 0.950 . S
H405 C381 0.949 . S
H406 C383 0.950 . S
H407 C385 0.950 . S
C408 C409 1.349 . S
C408 C410 1.327 . S
C408 H433 0.950 . S
C409 C408 1.349 . S
C409 C425 1.349 . S
C410 C408 1.327 . S
C410 C429 1.429 . S
C410 H434 0.950 . S
C411 C428 1.574 . S
C411 C430 1.368 . S
C411 H435 0.949 . S
H412 C416 0.949 . S
C413 C414 1.349 . S
C413 C415 1.327 . S
C413 H436 0.950 . S
C414 C413 1.349 . S
C414 C426 1.349 . S
C415 C413 1.327 . S
C415 C431 1.429 . S
C415 H437 0.950 . S
C416 H412 0.949 . S
C416 C424 1.574 . S
C416 C432 1.368 . S
H417 C425 0.950 . S
H418 C423 0.950 . S
H419 C424 0.949 . S
H420 C426 0.950 . S
H421 C427 0.950 . S
H422 C428 0.949 . S
C423 H418 0.950 . S
C423 C425 1.327 . S
C423 C429 1.429 . S
C424 C416 1.574 . S
C424 H419 0.949 . S
C424 C430 1.368 . S
C425 C409 1.349 . S
C425 H417 0.950 . S
C425 C423 1.327 . S
C426 C414 1.349 . S
C426 H420 0.950 . S
C426 C427 1.327 . S
C427 H421 0.950 . S
C427 C426 1.327 . S
C427 C431 1.429 . S
C428 C411 1.574 . S
C428 H422 0.949 . S
C428 C432 1.368 . S
C429 C410 1.429 . S
C429 C423 1.429 . S
C429 C430 1.523 . S
C430 C411 1.368 . S
C430 C424 1.368 . S
C430 C429 1.523 . S
C431 C415 1.429 . S
C431 C427 1.429 . S
C431 C432 1.523 . S
C432 C416 1.368 . S
C432 C428 1.368 . S
C432 C431 1.523 . S
H433 C408 0.950 . S
H434 C410 0.950 . S
H435 C411 0.949 . S
H436 C413 0.950 . S
H437 C415 0.950 . S
C438 C439 1.349 . S
C438 C440 1.327 . S
C438 H463 0.950 . S
C439 C438 1.349 . S
C439 C455 1.349 . S
C440 C438 1.327 . S
C440 C459 1.429 . S
C440 H464 0.950 . S
C441 C458 1.574 . S
C441 C460 1.368 . S
C441 H465 0.949 . S
H442 C446 0.949 . S
C443 C444 1.349 . S
C443 C445 1.327 . S
C443 H466 0.950 . S
C444 C443 1.349 . S
C444 C456 1.349 . S
C445 C443 1.327 . S
C445 C461 1.429 . S
C445 H467 0.950 . S
C446 H442 0.949 . S
C446 C454 1.574 . S
C446 C462 1.368 . S
H447 C455 0.950 . S
H448 C453 0.950 . S
H449 C454 0.949 . S
H450 C456 0.950 . S
H451 C457 0.950 . S
H452 C458 0.949 . S
C453 H448 0.950 . S
C453 C455 1.327 . S
C453 C459 1.429 . S
C454 C446 1.574 . S
C454 H449 0.949 . S
C454 C460 1.368 . S
C455 C439 1.349 . S
C455 H447 0.950 . S
C455 C453 1.327 . S
C456 C444 1.349 . S
C456 H450 0.950 . S
C456 C457 1.327 . S
C457 H451 0.950 . S
C457 C456 1.327 . S
C457 C461 1.429 . S
C458 C441 1.574 . S
C458 H452 0.949 . S
C458 C462 1.368 . S
C459 C440 1.429 . S
C459 C453 1.429 . S
C459 C460 1.523 . S
C460 C441 1.368 . S
C460 C454 1.368 . S
C460 C459 1.523 . S
C461 C445 1.429 . S
C461 C457 1.429 . S
C461 C462 1.523 . S
C462 C446 1.368 . S
C462 C458 1.368 . S
C462 C461 1.523 . S
H463 C438 0.950 . S
H464 C440 0.950 . S
H465 C441 0.949 . S
H466 C443 0.950 . S
H467 C445 0.950 . S
C468 C469 1.349 . S
C468 C470 1.327 . S
C468 H493 0.950 . S
C469 C468 1.349 . S
C469 C485 1.349 . S
C470 C468 1.327 . S
C470 C489 1.429 . S
C470 H494 0.950 . S
C471 C488 1.574 . S
C471 C490 1.368 . S
C471 H495 0.949 . S
H472 C476 0.949 . S
C473 C474 1.349 . S
C473 C475 1.327 . S
C473 H496 0.950 . S
C474 C473 1.349 . S
C474 C486 1.349 . S
C475 C473 1.327 . S
C475 C491 1.429 . S
C475 H497 0.950 . S
C476 H472 0.949 . S
C476 C484 1.574 . S
C476 C492 1.368 . S
H477 C485 0.950 . S
H478 C483 0.950 . S
H479 C484 0.949 . S
H480 C486 0.950 . S
H481 C487 0.950 . S
H482 C488 0.949 . S
C483 H478 0.950 . S
C483 C485 1.327 . S
C483 C489 1.429 . S
C484 C476 1.574 . S
C484 H479 0.949 . S
C484 C490 1.368 . S
C485 C469 1.349 . S
C485 H477 0.950 . S
C485 C483 1.327 . S
C486 C474 1.349 . S
C486 H480 0.950 . S
C486 C487 1.327 . S
C487 H481 0.950 . S
C487 C486 1.327 . S
C487 C491 1.429 . S
C488 C471 1.574 . S
C488 H482 0.949 . S
C488 C492 1.368 . S
C489 C470 1.429 . S
C489 C483 1.429 . S
C489 C490 1.523 . S
C490 C471 1.368 . S
C490 C484 1.368 . S
C490 C489 1.523 . S
C491 C475 1.429 . S
C491 C487 1.429 . S
C491 C492 1.523 . S
C492 C476 1.368 . S
C492 C488 1.368 . S
C492 C491 1.523 . S
H493 C468 0.950 . S
H494 C470 0.950 . S
H495 C471 0.949 . S
H496 C473 0.950 . S
H497 C475 0.950 . S
C498 C499 1.349 . S
C498 C500 1.327 . S
C498 H523 0.950 . S
C499 C498 1.349 . S
C499 C515 1.349 . S
C500 C498 1.327 . S
C500 C519 1.429 . S
C500 H524 0.950 . S
C501 C518 1.574 . S
C501 C520 1.368 . S
C501 H525 0.949 . S
H502 C506 0.949 . S
C503 C504 1.349 . S
C503 C505 1.327 . S
C503 H526 0.950 . S
C504 C503 1.349 . S
C504 C516 1.349 . S
C505 C503 1.327 . S
C505 C521 1.429 . S
C505 H527 0.950 . S
C506 H502 0.949 . S
C506 C514 1.574 . S
C506 C522 1.368 . S
H507 C515 0.950 . S
H508 C513 0.950 . S
H509 C514 0.949 . S
H510 C516 0.950 . S
H511 C517 0.950 . S
H512 C518 0.949 . S
C513 H508 0.950 . S
C513 C515 1.327 . S
C513 C519 1.429 . S
C514 C506 1.574 . S
C514 H509 0.949 . S
C514 C520 1.368 . S
C515 C499 1.349 . S
C515 H507 0.950 . S
C515 C513 1.327 . S
C516 C504 1.349 . S
C516 H510 0.950 . S
C516 C517 1.327 . S
C517 H511 0.950 . S
C517 C516 1.327 . S
C517 C521 1.429 . S
C518 C501 1.574 . S
C518 H512 0.949 . S
C518 C522 1.368 . S
C519 C500 1.429 . S
C519 C513 1.429 . S
C519 C520 1.523 . S
C520 C501 1.368 . S
C520 C514 1.368 . S
C520 C519 1.523 . S
C521 C505 1.429 . S
C521 C517 1.429 . S
C521 C522 1.523 . S
C522 C506 1.368 . S
C522 C518 1.368 . S
C522 C521 1.523 . S
H523 C498 0.950 . S
H524 C500 0.950 . S
H525 C501 0.949 . S
H526 C503 0.950 . S
H527 C505 0.950 . S
C528 C529 1.349 . S
C528 C530 1.327 . S
C528 H553 0.950 . S
C529 C528 1.349 . S
C529 C545 1.349 . S
C530 C528 1.327 . S
C530 C549 1.429 . S
C530 H554 0.950 . S
C531 C548 1.574 . S
C531 C550 1.368 . S
C531 H555 0.949 . S
H532 C536 0.949 . S
C533 C534 1.349 . S
C533 C535 1.327 . S
C533 H556 0.950 . S
C534 C533 1.349 . S
C534 C546 1.349 . S
C535 C533 1.327 . S
C535 C551 1.429 . S
C535 H557 0.950 . S
C536 H532 0.949 . S
C536 C544 1.574 . S
C536 C552 1.368 . S
H537 C545 0.950 . S
H538 C543 0.950 . S
H539 C544 0.949 . S
H540 C546 0.950 . S
H541 C547 0.950 . S
H542 C548 0.949 . S
C543 H538 0.950 . S
C543 C545 1.327 . S
C543 C549 1.429 . S
C544 C536 1.574 . S
C544 H539 0.949 . S
C544 C550 1.368 . S
C545 C529 1.349 . S
C545 H537 0.950 . S
C545 C543 1.327 . S
C546 C534 1.349 . S
C546 H540 0.950 . S
C546 C547 1.327 . S
C547 H541 0.950 . S
C547 C546 1.327 . S
C547 C551 1.429 . S
C548 C531 1.574 . S
C548 H542 0.949 . S
C548 C552 1.368 . S
C549 C530 1.429 . S
C549 C543 1.429 . S
C549 C550 1.523 . S
C550 C531 1.368 . S
C550 C544 1.368 . S
C550 C549 1.523 . S
C551 C535 1.429 . S
C551 C547 1.429 . S
C551 C552 1.523 . S
C552 C536 1.368 . S
C552 C548 1.368 . S
C552 C551 1.523 . S
H553 C528 0.950 . S
H554 C530 0.950 . S
H555 C531 0.949 . S
H556 C533 0.950 . S
H557 C535 0.950 . S
C558 C559 1.349 . S
C558 C560 1.327 . S
C558 H583 0.950 . S
C559 C558 1.349 . S
C559 C575 1.349 1_455 S
C560 C558 1.327 . S
C560 C579 1.429 . S
C560 H584 0.950 . S
C561 C578 1.574 1_655 S
C561 C580 1.368 1_655 S
C561 H585 0.949 . S
H562 C566 0.947 . S
C563 C564 1.349 . S
C563 C565 1.327 . S
C563 H586 0.950 1_455 S
C564 C563 1.349 . S
C564 C576 1.349 . S
C565 C563 1.327 . S
C565 C581 1.429 . S
C565 H587 0.950 1_455 S
C566 H562 0.947 . S
C566 C574 1.574 . S
C566 C582 1.368 1_554 S
H567 C575 0.950 . S
H568 C573 0.950 . S
H569 C574 0.949 . S
H570 C576 0.950 . S
H571 C577 0.950 . S
H572 C578 0.949 1_656 S
C573 H568 0.950 . S
C573 C575 1.327 . S
C573 C579 1.429 1_655 S
C574 C566 1.574 . S
C574 H569 0.949 . S
C574 C580 1.368 . S
C575 C559 1.349 1_655 S
C575 H567 0.950 . S
C575 C573 1.327 . S
C576 C564 1.349 . S
C576 H570 0.950 . S
C576 C577 1.327 . S
C577 H571 0.950 . S
C577 C576 1.327 . S
C577 C581 1.429 . S
C578 C561 1.574 1_455 S
C578 H572 0.949 1_454 S
C578 C582 1.368 1_554 S
C579 C560 1.429 . S
C579 C573 1.429 1_455 S
C579 C580 1.523 . S
C580 C561 1.368 1_455 S
C580 C574 1.368 . S
C580 C579 1.523 . S
C581 C565 1.429 . S
C581 C577 1.429 . S
C581 C582 1.523 . S
C582 C566 1.368 1_556 S
C582 C578 1.368 1_556 S
C582 C581 1.523 . S
H583 C558 0.950 . S
H584 C560 0.950 . S
H585 C561 0.949 . S
H586 C563 0.950 1_655 S
H587 C565 0.950 1_655 S
C588 C589 1.349 . S
C588 C590 1.327 . S
C588 H613 0.950 1_545 S
C589 C588 1.349 . S
C589 C605 1.349 . S
C590 C588 1.327 . S
C590 C609 1.429 . S
C590 H614 0.950 1_545 S
C591 C608 1.574 . S
C591 C610 1.368 . S
C591 H615 0.949 . S
H592 C596 0.949 1_565 S
C593 C594 1.349 . S
C593 C595 1.327 . S
C593 H616 0.950 . S
C594 C593 1.349 . S
C594 C606 1.349 1_545 S
C595 C593 1.327 . S
C595 C611 1.429 . S
C595 H617 0.950 . S
C596 H592 0.949 1_545 S
C596 C604 1.574 . S
C596 C612 1.368 . S
H597 C605 0.950 . S
H598 C603 0.950 . S
H599 C604 0.949 1_565 S
H600 C606 0.950 . S
H601 C607 0.950 . S
H602 C608 0.949 . S
C603 H598 0.950 . S
C603 C605 1.327 . S
C603 C609 1.429 . S
C604 C596 1.574 . S
C604 H599 0.949 1_545 S
C604 C610 1.368 . S
C605 C589 1.349 . S
C605 H597 0.950 . S
C605 C603 1.327 . S
C606 C594 1.349 1_565 S
C606 H600 0.950 . S
C606 C607 1.327 . S
C607 H601 0.950 . S
C607 C606 1.327 . S
C607 C611 1.429 1_565 S
C608 C591 1.574 . S
C608 H602 0.949 . S
C608 C612 1.368 . S
C609 C590 1.429 . S
C609 C603 1.429 . S
C609 C610 1.523 . S
C610 C591 1.368 . S
C610 C604 1.368 . S
C610 C609 1.523 . S
C611 C595 1.429 . S
C611 C607 1.429 1_545 S
C611 C612 1.523 . S
C612 C596 1.368 . S
C612 C608 1.368 . S
C612 C611 1.523 . S
H613 C588 0.950 1_565 S
H614 C590 0.950 1_565 S
H615 C591 0.949 . S
H616 C593 0.950 . S
H617 C595 0.950 . S
C618 C619 1.349 . S
C618 C620 1.327 . S
C618 H643 0.950 . S
C619 C618 1.349 . S
C619 C635 1.349 . S
C620 C618 1.327 . S
C620 C639 1.429 . S
C620 H644 0.950 . S
C621 C638 1.574 . S
C621 C640 1.368 . S
C621 H645 0.949 . S
H622 C626 0.949 . S
C623 C624 1.349 . S
C623 C625 1.327 . S
C623 H646 0.950 . S
C624 C623 1.349 . S
C624 C636 1.349 . S
C625 C623 1.327 . S
C625 C641 1.429 . S
C625 H647 0.950 . S
C626 H622 0.949 . S
C626 C634 1.574 . S
C626 C642 1.368 . S
H627 C635 0.950 . S
H628 C633 0.950 . S
H629 C634 0.949 . S
H630 C636 0.950 . S
H631 C637 0.950 . S
H632 C638 0.949 . S
C633 H628 0.950 . S
C633 C635 1.327 . S
C633 C639 1.429 . S
C634 C626 1.574 . S
C634 H629 0.949 . S
C634 C640 1.368 . S
C635 C619 1.349 . S
C635 H627 0.950 . S
C635 C633 1.327 . S
C636 C624 1.349 . S
C636 H630 0.950 . S
C636 C637 1.327 . S
C637 H631 0.950 . S
C637 C636 1.327 . S
C637 C641 1.429 . S
C638 C621 1.574 . S
C638 H632 0.949 . S
C638 C642 1.368 . S
C639 C620 1.429 . S
C639 C633 1.429 . S
C639 C640 1.523 . S
C640 C621 1.368 . S
C640 C634 1.368 . S
C640 C639 1.523 . S
C641 C625 1.429 . S
C641 C637 1.429 . S
C641 C642 1.523 . S
C642 C626 1.368 . S
C642 C638 1.368 . S
C642 C641 1.523 . S
H643 C618 0.950 . S
H644 C620 0.950 . S
H645 C621 0.949 . S
H646 C623 0.950 . S
H647 C625 0.950 . S
C648 C649 1.349 . S
C648 C650 1.327 . S
C648 H673 0.950 . S
C649 C648 1.349 . S
C649 C665 1.349 . S
C650 C648 1.327 . S
C650 C669 1.429 . S
C650 H674 0.950 . S
C651 C668 1.574 . S
C651 C670 1.368 1_565 S
C651 H675 0.949 . S
H652 C656 0.949 . S
C653 C654 1.349 1_565 S
C653 C655 1.327 . S
C653 H676 0.950 . S
C654 C653 1.349 1_545 S
C654 C666 1.349 . S
C655 C653 1.327 . S
C655 C671 1.429 1_565 S
C655 H677 0.950 . S
C656 H652 0.949 . S
C656 C664 1.574 . S
C656 C672 1.368 . S
H657 C665 0.950 1_565 S
H658 C663 0.950 1_565 S
H659 C664 0.949 . S
H660 C666 0.950 . S
H661 C667 0.950 . S
H662 C668 0.949 . S
C663 H658 0.950 1_545 S
C663 C665 1.327 . S
C663 C669 1.429 . S
C664 C656 1.574 . S
C664 H659 0.949 . S
C664 C670 1.368 . S
C665 C649 1.349 . S
C665 H657 0.950 1_545 S
C665 C663 1.327 . S
C666 C654 1.349 . S
C666 H660 0.950 . S
C666 C667 1.327 . S
C667 H661 0.950 . S
C667 C666 1.327 . S
C667 C671 1.429 . S
C668 C651 1.574 . S
C668 H662 0.949 . S
C668 C672 1.368 1_565 S
C669 C650 1.429 . S
C669 C663 1.429 . S
C669 C670 1.523 . S
C670 C651 1.368 1_545 S
C670 C664 1.368 . S
C670 C669 1.523 . S
C671 C655 1.429 1_545 S
C671 C667 1.429 . S
C671 C672 1.523 . S
C672 C656 1.368 . S
C672 C668 1.368 1_545 S
C672 C671 1.523 . S
H673 C648 0.950 . S
H674 C650 0.950 . S
H675 C651 0.949 . S
H676 C653 0.950 . S
H677 C655 0.950 . S
C678 C679 1.349 . S
C678 C680 1.327 . S
C678 H703 0.950 . S
C679 C678 1.349 . S
C679 C695 1.349 . S
C680 C678 1.327 . S
C680 C699 1.429 . S
C680 H704 0.950 . S
C681 C698 1.542 1_556 S
C681 C700 1.368 . S
C681 H705 0.949 . S
H682 C686 0.949 1_554 S
C683 C684 1.349 . S
C683 C685 1.327 . S
C683 H706 0.950 . S
C684 C683 1.349 . S
C684 C696 1.349 . S
C685 C683 1.327 . S
C685 C701 1.429 . S
C685 H707 0.950 . S
C686 H682 0.949 1_556 S
C686 C694 1.574 . S
C686 C702 1.368 1_556 S
H687 C695 0.950 . S
H688 C693 0.950 . S
H689 C694 0.949 . S
H690 C696 0.950 . S
H691 C697 0.950 . S
H692 C698 0.972 . S
C693 H688 0.950 . S
C693 C695 1.327 . S
C693 C699 1.429 . S
C694 C686 1.574 . S
C694 H689 0.949 . S
C694 C700 1.368 . S
C695 C679 1.349 . S
C695 H687 0.950 . S
C695 C693 1.327 . S
C696 C684 1.349 . S
C696 H690 0.950 . S
C696 C697 1.327 . S
C697 H691 0.950 . S
C697 C696 1.327 . S
C697 C701 1.429 . S
C698 C681 1.542 1_554 S
C698 H692 0.972 . S
C698 C702 1.375 . S
C699 C680 1.429 . S
C699 C693 1.429 . S
C699 C700 1.523 . S
C700 C681 1.368 . S
C700 C694 1.368 . S
C700 C699 1.523 . S
C701 C685 1.429 . S
C701 C697 1.429 . S
C701 C702 1.523 . S
C702 C686 1.368 1_554 S
C702 C698 1.375 . S
C702 C701 1.523 . S
H703 C678 0.950 . S
H704 C680 0.950 . S
H705 C681 0.949 . S
H706 C683 0.950 . S
H707 C685 0.950 . S
C708 C709 1.349 . S
C708 C710 1.327 . S
C708 H733 0.950 . S
C709 C708 1.349 . S
C709 C725 1.349 . S
C710 C708 1.327 . S
C710 C729 1.429 . S
C710 H734 0.950 . S
C711 C728 1.574 . S
C711 C730 1.368 . S
C711 H735 0.949 . S
H712 C716 0.949 . S
C713 C714 1.349 . S
C713 C715 1.327 . S
C713 H736 0.950 . S
C714 C713 1.349 . S
C714 C726 1.349 . S
C715 C713 1.327 . S
C715 C731 1.429 . S
C715 H737 0.950 . S
C716 H712 0.949 . S
C716 C724 1.574 . S
C716 C732 1.368 . S
H717 C725 0.950 . S
H718 C723 0.950 . S
H719 C724 0.949 . S
H720 C726 0.950 . S
H721 C727 0.950 . S
H722 C728 0.949 . S
C723 H718 0.950 . S
C723 C725 1.327 . S
C723 C729 1.429 . S
C724 C716 1.574 . S
C724 H719 0.949 . S
C724 C730 1.368 . S
C725 C709 1.349 . S
C725 H717 0.950 . S
C725 C723 1.327 . S
C726 C714 1.349 . S
C726 H720 0.950 . S
C726 C727 1.327 . S
C727 H721 0.950 . S
C727 C726 1.327 . S
C727 C731 1.429 . S
C728 C711 1.574 . S
C728 H722 0.949 . S
C728 C732 1.368 . S
C729 C710 1.429 . S
C729 C723 1.429 . S
C729 C730 1.523 . S
C730 C711 1.368 . S
C730 C724 1.368 . S
C730 C729 1.523 . S
C731 C715 1.429 . S
C731 C727 1.429 . S
C731 C732 1.523 . S
C732 C716 1.368 . S
C732 C728 1.368 . S
C732 C731 1.523 . S
H733 C708 0.950 . S
H734 C710 0.950 . S
H735 C711 0.949 . S
H736 C713 0.950 . S
H737 C715 0.950 . S
C199 C9 0.430 . S
C204 C189 0.519 . S
C229 C49 0.155 . S
C234 C167 0.226 . S
C259 C89 0.163 . S
C264 C180 0.240 . S
C289 C26 0.276 . S
C294 C193 0.190 . S
C324 C163 0.503 . S
C319 C66 0.478 . S
C354 C176 0.503 . S
C349 C106 0.488 . S
C379 C43 2.837 . S
C384 C141 2.802 . S
C409 C83 2.953 . S
C414 C154 2.909 1_655 S
C439 C22 3.165 . S
C444 C124 2.955 . S
C474 C137 2.975 . S
C469 C62 3.175 . S
C504 C150 2.874 . S
C499 C102 3.055 . S
C529 C3 2.843 . S
C534 C128 2.813 . S
C564 C155 1.730 . S
C559 C15 1.693 . S
C589 C55 1.692 . S
C594 C129 1.763 . S
C619 C95 1.692 . S
C624 C142 1.762 . S
C654 C181 1.285 . S
C649 C42 1.275 . S
C684 C194 1.297 . S
C679 C82 1.284 . S
C709 C2 1.261 . S
C714 C168 1.282 . S
