# Generated by pormake.
# Topology nom, (4,4)-cn, num edge types: 1
# Building blocks:
#     Node 0, Type 0, BuildingBlock: KUFVIS_clean_linker_0, # of connection points: 4
#     Node 1, Type 0, BuildingBlock: KUFVIS_clean_linker_0, # of connection points: 4
#     Node 2, Type 0, BuildingBlock: KUFVIS_clean_linker_0, # of connection points: 4
#     Node 3, Type 0, BuildingBlock: KUFVIS_clean_linker_0, # of connection points: 4
#     Node 4, Type 0, BuildingBlock: KUFVIS_clean_linker_0, # of connection points: 4
#     Node 5, Type 0, BuildingBlock: KUFVIS_clean_linker_0, # of connection points: 4
#     Node 6, Type 1, BuildingBlock: GALJAG_clean_sbu_0, # of connection points: 4
#     Node 7, Type 1, BuildingBlock: GALJAG_clean_sbu_0, # of connection points: 4
#     Node 8, Type 1, BuildingBlock: GALJAG_clean_sbu_0, # of connection points: 4
#     Node 9, Type 1, BuildingBlock: GALJAG_clean_sbu_0, # of connection points: 4
#     Node 10, Type 1, BuildingBlock: GALJAG_clean_sbu_0, # of connection points: 4
#     Node 11, Type 1, BuildingBlock: GALJAG_clean_sbu_0, # of connection points: 4
#     Edge 12, Type (0, 1), BuildingBlock: TEMPAE_clean_linker_10, # of connection points: 2
#     Edge 13, Type (0, 1), BuildingBlock: TEMPAE_clean_linker_10, # of connection points: 2
#     Edge 14, Type (0, 1), BuildingBlock: TEMPAE_clean_linker_10, # of connection points: 2
#     Edge 15, Type (0, 1), BuildingBlock: TEMPAE_clean_linker_10, # of connection points: 2
#     Edge 16, Type (0, 1), BuildingBlock: TEMPAE_clean_linker_10, # of connection points: 2
#     Edge 17, Type (0, 1), BuildingBlock: TEMPAE_clean_linker_10, # of connection points: 2
#     Edge 18, Type (0, 1), BuildingBlock: TEMPAE_clean_linker_10, # of connection points: 2
#     Edge 19, Type (0, 1), BuildingBlock: TEMPAE_clean_linker_10, # of connection points: 2
#     Edge 20, Type (0, 1), BuildingBlock: TEMPAE_clean_linker_10, # of connection points: 2
#     Edge 21, Type (0, 1), BuildingBlock: TEMPAE_clean_linker_10, # of connection points: 2
#     Edge 22, Type (0, 1), BuildingBlock: TEMPAE_clean_linker_10, # of connection points: 2
#     Edge 23, Type (0, 1), BuildingBlock: TEMPAE_clean_linker_10, # of connection points: 2
#     Edge 24, Type (0, 1), BuildingBlock: TEMPAE_clean_linker_10, # of connection points: 2
#     Edge 25, Type (0, 1), BuildingBlock: TEMPAE_clean_linker_10, # of connection points: 2
#     Edge 26, Type (0, 1), BuildingBlock: TEMPAE_clean_linker_10, # of connection points: 2
#     Edge 27, Type (0, 1), BuildingBlock: TEMPAE_clean_linker_10, # of connection points: 2
#     Edge 28, Type (0, 1), BuildingBlock: TEMPAE_clean_linker_10, # of connection points: 2
#     Edge 29, Type (0, 1), BuildingBlock: TEMPAE_clean_linker_10, # of connection points: 2
#     Edge 30, Type (0, 1), BuildingBlock: TEMPAE_clean_linker_10, # of connection points: 2
#     Edge 31, Type (0, 1), BuildingBlock: TEMPAE_clean_linker_10, # of connection points: 2
#     Edge 32, Type (0, 1), BuildingBlock: TEMPAE_clean_linker_10, # of connection points: 2
#     Edge 33, Type (0, 1), BuildingBlock: TEMPAE_clean_linker_10, # of connection points: 2
#     Edge 34, Type (0, 1), BuildingBlock: TEMPAE_clean_linker_10, # of connection points: 2
#     Edge 35, Type (0, 1), BuildingBlock: TEMPAE_clean_linker_10, # of connection points: 2
# Relax obj value: 0.012
# Max RMSD: 0.070
# Mean RMSD: 0.062
data_MOF--net-nom--node1-GALJAG_clean_sbu_0--node2-KUFVIS_clean_linker_0--edge1-TEMPAE_clean_linker_10
_symmetry_space_group_name_H-M    P1
_symmetry_Int_Tables_number       1
_symmetry_cell_setting            triclinic
loop_
_symmetry_equiv_pos_as_xyz
'x, y, z'
_cell_length_a     45.851989
_cell_length_b     45.810805
_cell_length_c     48.379594
_cell_angle_alpha  90.157738
_cell_angle_beta   89.894216
_cell_angle_gamma 120.05854
loop_
_atom_site_label
_atom_site_type_symbol
_atom_site_fract_x
_atom_site_fract_y
_atom_site_fract_z
_atom_type_partial_charge
H0 H 0.14077 0.62292 0.34772 0.0
H1 H 0.06537 0.59116 0.28462 0.0
H2 H 0.03916 0.54822 0.36684 0.0
H3 H 0.99071 0.54839 0.35663 0.0
H4 H 0.91668 0.49243 0.29477 0.0
H5 H 0.02134 0.53906 0.27371 0.0
C6 C 0.11466 0.60777 0.34135 0.0
C7 C 0.09072 0.58619 0.36044 0.0
C8 C 0.10583 0.60933 0.31398 0.0
C9 C 0.07212 0.58906 0.30565 0.0
C10 C 0.04728 0.5671 0.32469 0.0
C11 C 0.05727 0.56544 0.35199 0.0
C12 C 1.01106 0.54624 0.31638 0.0
C13 C 0.98495 0.53866 0.33572 0.0
C14 C 0.95104 0.51874 0.32802 0.0
C15 C 0.94295 0.50721 0.30087 0.0
C16 C 0.96819 0.51502 0.28131 0.0
C17 C 1.00215 0.53397 0.28905 0.0
H18 H 0.53329 0.13659 0.50868 0.0
H19 H 0.49667 0.05694 0.44891 0.0
H20 H 0.50512 0.03671 0.53511 0.0
H21 H 0.45899 0.98654 0.52393 0.0
H22 H 0.452 0.9102 0.46891 0.0
H23 H 0.50754 0.01383 0.44369 0.0
C24 C 0.52296 0.11002 0.50399 0.0
C25 C 0.51892 0.08764 0.52519 0.0
C26 C 0.51533 0.09919 0.4766 0.0
C27 C 0.50312 0.0651 0.47015 0.0
C28 C 0.49867 0.04177 0.49121 0.0
C29 C 0.50727 0.05368 0.51868 0.0
C30 C 0.48541 1.00522 0.48476 0.0
C31 C 0.46581 0.98 0.50439 0.0
C32 C 0.45474 0.94598 0.49885 0.0
C33 C 0.46198 0.93677 0.47336 0.0
C34 C 0.48042 0.96095 0.45319 0.0
C35 C 0.4924 0.99519 0.45906 0.0
H36 H 0.53662 0.42005 0.6294 0.0
H37 H 0.50085 0.46085 0.69174 0.0
H38 H 0.50623 0.49118 0.60625 0.0
H39 H 0.45867 0.49253 0.62006 0.0
H40 H 0.44937 0.55708 0.67925 0.0
H41 H 0.51218 0.51518 0.69806 0.0
C42 C 0.52619 0.43594 0.63496 0.0
C43 C 0.52119 0.45446 0.61447 0.0
C44 C 0.51919 0.43836 0.6627 0.0
C45 C 0.50689 0.4598 0.67025 0.0
C46 C 0.50158 0.47892 0.64999 0.0
C47 C 0.50935 0.47631 0.62209 0.0
C48 C 0.48768 0.50121 0.65786 0.0
C49 C 0.46592 0.50558 0.63974 0.0
C50 C 0.45212 0.52567 0.64753 0.0
C51 C 0.4604 0.54186 0.67318 0.0
C52 C 0.48182 0.53804 0.69145 0.0
C53 C 0.49538 0.5177 0.68382 0.0
H54 H 0.1418 0.54955 0.80416 0.0
H55 H 0.06077 0.49449 0.86106 0.0
H56 H 0.04042 0.51796 0.77924 0.0
H57 H 0.99366 0.46202 0.78654 0.0
H58 H 0.91293 0.43944 0.84287 0.0
H59 H 1.01504 0.50528 0.86879 0.0
C60 C 0.11505 0.53708 0.80879 0.0
C61 C 0.0925 0.53583 0.78875 0.0
C62 C 0.10384 0.52245 0.83476 0.0
C63 C 0.06931 0.50602 0.84095 0.0
C64 C 0.04589 0.50369 0.82081 0.0
C65 C 0.05786 0.51874 0.7947 0.0
C66 C 1.00906 0.48582 0.82696 0.0
C67 C 0.98534 0.46545 0.80664 0.0
C68 C 0.95075 0.44875 0.81254 0.0
C69 C 0.93975 0.45269 0.83846 0.0
C70 C 0.96264 0.47307 0.85877 0.0
C71 C 0.99734 0.4893 0.85311 0.0
H72 H 0.5138 0.90955 0.01314 0.0
H73 H 0.56487 0.98359 0.9502 0.0
H74 H 0.54902 0.01339 0.03152 0.0
H75 H 0.5999 0.05889 0.0225 0.0
H76 H 0.63314 0.13408 0.95935 0.0
H77 H 0.56445 0.0311 0.93819 0.0
C78 C 0.52676 0.93573 0.00662 0.0
C79 C 0.53091 0.96072 0.02539 0.0
C80 C 0.53829 0.94378 0.97944 0.0
C81 C 0.55493 0.97766 0.97102 0.0
C82 C 0.55975 1.00357 0.98976 0.0
C83 C 0.54666 0.99445 0.01684 0.0
C84 C 0.57937 0.03997 0.98146 0.0
C85 C 0.59891 0.06532 0.00114 0.0
C86 C 0.61839 0.09921 0.99314 0.0
C87 C 0.61861 0.1078 0.96545 0.0
C88 C 0.5998 0.08338 0.94557 0.0
C89 C 0.57961 0.04963 0.95367 0.0
H90 H 0.48132 0.59042 0.13322 0.0
H91 H 0.55388 0.59049 0.18871 0.0
H92 H 0.53412 0.5391 0.10972 0.0
H93 H 0.58802 0.55149 0.11494 0.0
H94 H 0.63343 0.51925 0.1757 0.0
H95 H 0.56073 0.54656 0.20132 0.0
C96 C 0.499 0.58199 0.13818 0.0
C97 C 0.5061 0.56398 0.11851 0.0
C98 C 0.51582 0.59121 0.16351 0.0
C99 C 0.54025 0.5822 0.16937 0.0
C100 C 0.54694 0.56269 0.15035 0.0
C101 C 0.52971 0.55399 0.12477 0.0
C102 C 0.57149 0.55123 0.15729 0.0
C103 C 0.59035 0.54635 0.13639 0.0
C104 C 0.61276 0.53502 0.1432 0.0
C105 C 0.61679 0.52897 0.17079 0.0
C106 C 0.59847 0.53344 0.19186 0.0
C107 C 0.57558 0.54417 0.185 0.0
In108 In 0.64868 0.39987 0.40179 0.0
O109 O 0.6939 0.40876 0.37564 0.0
O110 O 0.704 0.42993 0.41587 0.0
C111 C 0.62048 0.41556 0.44412 0.0
C112 C 0.63487 0.43031 0.36043 0.0
C113 C 0.62088 0.33205 0.40775 0.0
O114 O 0.65058 0.42173 0.44473 0.0
O115 O 0.60452 0.40098 0.42244 0.0
O116 O 0.6133 0.34507 0.38815 0.0
O117 O 0.64256 0.35315 0.42414 0.0
C118 C 0.71584 0.42606 0.3935 0.0
O119 O 0.62857 0.40017 0.35884 0.0
O120 O 0.64853 0.44521 0.38273 0.0
In121 In 0.27038 0.64423 0.57211 0.0
O122 O 0.28492 0.6039 0.56377 0.0
O123 O 0.31772 0.64571 0.58876 0.0
C124 C 0.22515 0.61831 0.53043 0.0
C125 C 0.23042 0.62449 0.61728 0.0
C126 C 0.3086 0.71179 0.56353 0.0
O127 O 0.25554 0.62602 0.52749 0.0
O128 O 0.2177 0.62352 0.55428 0.0
O129 O 0.29897 0.6993 0.58726 0.0
O130 O 0.29921 0.6903 0.54436 0.0
C131 C 0.31171 0.61822 0.57777 0.0
O132 O 0.23434 0.64863 0.60218 0.0
O133 O 0.24719 0.6108 0.60992 0.0
In134 In 0.65038 0.26933 0.73811 0.0
O135 O 0.70537 0.28875 0.72532 0.0
O136 O 0.69648 0.30901 0.76165 0.0
C137 C 0.62091 0.2273 0.69498 0.0
C138 C 0.63518 0.22423 0.77916 0.0
C139 C 0.62364 0.31011 0.73243 0.0
O140 O 0.65087 0.2516 0.69402 0.0
O141 O 0.60576 0.22472 0.71742 0.0
O142 O 0.61537 0.28904 0.75178 0.0
O143 O 0.6455 0.31077 0.7162 0.0
C144 C 0.71792 0.30879 0.74543 0.0
O145 O 0.63129 0.24953 0.78156 0.0
O146 O 0.6474 0.22216 0.75636 0.0
In147 In 0.40434 0.64146 0.90486 0.0
O148 O 0.34974 0.60585 0.91855 0.0
O149 O 0.3578 0.63725 0.8839 0.0
C150 C 0.42047 0.61593 0.94879 0.0
C151 C 0.4295 0.62418 0.86117 0.0
C152 C 0.43226 0.70934 0.90981 0.0
O153 O 0.40595 0.59855 0.92765 0.0
O154 O 0.42619 0.64586 0.94796 0.0
O155 O 0.44171 0.69592 0.89176 0.0
O156 O 0.40859 0.68858 0.92501 0.0
C157 C 0.33674 0.6148 0.89984 0.0
O158 O 0.44704 0.63934 0.88206 0.0
O159 O 0.39957 0.61839 0.8621 0.0
In160 In 0.78027 0.39942 0.0726 0.0
O161 O 0.79363 0.40282 0.11861 0.0
O162 O 0.83376 0.42405 0.08976 0.0
C163 C 0.74059 0.33154 0.06734 0.0
C164 C 0.74198 0.42913 0.07897 0.0
C165 C 0.82073 0.42148 0.02785 0.0
O166 O 0.76612 0.34499 0.08282 0.0
O167 O 0.73493 0.35227 0.05475 0.0
O168 O 0.81928 0.44136 0.04523 0.0
O169 O 0.80124 0.39055 0.03277 0.0
C170 C 0.82507 0.41839 0.11474 0.0
O171 O 0.75536 0.42895 0.05625 0.0
O172 O 0.74777 0.41432 0.09824 0.0
In173 In 0.40608 0.78299 0.23684 0.0
O174 O 0.43063 0.7526 0.25189 0.0
O175 O 0.42433 0.75507 0.20885 0.0
C176 C 0.42855 0.82326 0.28188 0.0
C177 C 0.42476 0.82805 0.1951 0.0
C178 C 0.33838 0.74285 0.24245 0.0
O179 O 0.44812 0.82027 0.26522 0.0
O180 O 0.39765 0.8055 0.2761 0.0
O181 O 0.3515 0.7693 0.22801 0.0
O182 O 0.35935 0.7366 0.25389 0.0
C183 C 0.43475 0.74414 0.22804 0.0
O184 O 0.40355 0.79715 0.1919 0.0
O185 O 0.43616 0.83613 0.21929 0.0
C186 C 0.14075 0.61793 0.2717 0.0
C187 C 0.1331 0.63157 0.29467 0.0
C188 C 0.17199 0.63629 0.25813 0.0
C189 C 0.19596 0.66881 0.26798 0.0
C190 C 0.18691 0.68374 0.28951 0.0
C191 C 0.15555 0.66497 0.3025 0.0
C192 C 0.18037 0.61975 0.23486 0.0
C193 C 0.21152 0.71832 0.30067 0.0
C194 C 0.28907 0.69666 0.26716 0.0
C195 C 0.30156 0.72192 0.24696 0.0
C196 C 0.25456 0.67841 0.27344 0.0
C197 C 0.23183 0.68523 0.2589 0.0
C198 C 0.24409 0.70965 0.23759 0.0
C199 C 0.27888 0.72793 0.23201 0.0
C200 C 0.24265 0.65276 0.29648 0.0
C201 C 0.22063 0.71724 0.22131 0.0
H202 H 0.12349 0.59205 0.2657 0.0
H203 H 0.1495 0.67557 0.3202 0.0
H204 H 0.19381 0.638 0.21799 0.0
H205 H 0.19731 0.61085 0.24265 0.0
H206 H 0.15741 0.59773 0.22625 0.0
H207 H 0.19931 0.72785 0.31512 0.0
H208 H 0.23203 0.71721 0.3119 0.0
H209 H 0.22327 0.73666 0.28357 0.0
H210 H 0.30643 0.69185 0.27875 0.0
H211 H 0.28837 0.74727 0.21621 0.0
H212 H 0.22225 0.628 0.28897 0.0
H213 H 0.23209 0.66088 0.31355 0.0
H214 H 0.26328 0.64937 0.30493 0.0
H215 H 0.19854 0.69351 0.21392 0.0
H216 H 0.23335 0.73368 0.20323 0.0
H217 H 0.21096 0.73011 0.23483 0.0
C218 C 0.50731 0.14513 0.45815 0.0
C219 C 0.52229 0.12509 0.45539 0.0
C220 C 0.52124 0.17668 0.44524 0.0
C221 C 0.5509 0.18842 0.42922 0.0
C222 C 0.56402 0.16671 0.42404 0.0
C223 C 0.54953 0.13518 0.43729 0.0
C224 C 0.50624 0.1988 0.45123 0.0
C225 C 0.59527 0.17802 0.40675 0.0
C226 C 0.58179 0.27241 0.39254 0.0
C227 C 0.6047 0.29513 0.41195 0.0
C228 C 0.56497 0.2374 0.39725 0.0
C229 C 0.57094 0.22494 0.42207 0.0
C230 C 0.59469 0.24779 0.44137 0.0
C231 C 0.61135 0.28253 0.43601 0.0
C232 C 0.54017 0.21385 0.37606 0.0
C233 C 0.60175 0.23563 0.46819 0.0
H234 H 0.48633 0.13731 0.4723 0.0
H235 H 0.56132 0.11983 0.43542 0.0
H236 H 0.52279 0.21903 0.4659 0.0
H237 H 0.50456 0.21113 0.43209 0.0
H238 H 0.48071 0.18433 0.46054 0.0
H239 H 0.59831 0.15641 0.40028 0.0
H240 H 0.59461 0.19166 0.38806 0.0
H241 H 0.61773 0.19569 0.419 0.0
H242 H 0.57668 0.282 0.37382 0.0
H243 H 0.62906 0.29992 0.45106 0.0
H244 H 0.51427 0.20199 0.38462 0.0
H245 H 0.54538 0.19324 0.37109 0.0
H246 H 0.54097 0.22713 0.35665 0.0
H247 H 0.57846 0.22309 0.48087 0.0
H248 H 0.62181 0.25653 0.48051 0.0
H249 H 0.60957 0.21672 0.46397 0.0
C250 C 0.3965 0.52129 0.64048 0.0
C251 C 0.42825 0.52994 0.62984 0.0
C252 C 0.37659 0.5328 0.62798 0.0
C253 C 0.38882 0.55357 0.60427 0.0
C254 C 0.41969 0.56009 0.59214 0.0
C255 C 0.43915 0.54817 0.60514 0.0
C256 C 0.34379 0.52502 0.64155 0.0
C257 C 0.43342 0.58181 0.56672 0.0
C258 C 0.3258 0.5726 0.56952 0.0
C259 C 0.3333 0.60312 0.58231 0.0
C260 C 0.34466 0.55683 0.57541 0.0
C261 C 0.37141 0.57181 0.5947 0.0
C262 C 0.37978 0.60322 0.60691 0.0
C263 C 0.3607 0.61851 0.6005 0.0
C264 C 0.33518 0.52357 0.56177 0.0
C265 C 0.40805 0.62004 0.62767 0.0
H266 H 0.38819 0.50721 0.65964 0.0
H267 H 0.46387 0.55508 0.59709 0.0
H268 H 0.34655 0.54832 0.65112 0.0
H269 H 0.32335 0.51621 0.626 0.0
H270 H 0.33607 0.50549 0.65787 0.0
H271 H 0.45443 0.57977 0.55725 0.0
H272 H 0.41331 0.57474 0.55107 0.0
H273 H 0.44295 0.60856 0.57241 0.0
H274 H 0.30475 0.56066 0.55531 0.0
H275 H 0.36671 0.64214 0.61038 0.0
H276 H 0.32425 0.50315 0.57739 0.0
H277 H 0.35786 0.52409 0.55311 0.0
H278 H 0.31648 0.51724 0.54495 0.0
H279 H 0.40189 0.60402 0.64637 0.0
H280 H 0.41262 0.64531 0.63404 0.0
H281 H 0.43172 0.62289 0.61891 0.0
C282 C 0.9065 0.39211 0.79715 0.0
C283 C 0.92482 0.4269 0.79236 0.0
C284 C 0.87491 0.37189 0.78482 0.0
C285 C 0.86129 0.387 0.76753 0.0
C286 C 0.88117 0.42162 0.76066 0.0
C287 C 0.91279 0.44125 0.77328 0.0
C288 C 0.85475 0.3351 0.7926 0.0
C289 C 0.86776 0.43868 0.74218 0.0
C290 C 0.77787 0.32921 0.73145 0.0
C291 C 0.7547 0.32975 0.75016 0.0
C292 C 0.81277 0.34826 0.73641 0.0
C293 C 0.82467 0.36812 0.76069 0.0
C294 C 0.80134 0.36909 0.7794 0.0
C295 C 0.76671 0.34998 0.77387 0.0
C296 C 0.83685 0.34674 0.71595 0.0
C297 C 0.81291 0.38988 0.8056 0.0
H298 H 0.91571 0.38123 0.81227 0.0
H299 H 0.92679 0.4683 0.77 0.0
H300 H 0.83461 0.33135 0.80736 0.0
H301 H 0.84239 0.31926 0.77416 0.0
H302 H 0.87069 0.32614 0.8025 0.0
H303 H 0.88812 0.46364 0.73491 0.0
H304 H 0.85472 0.42272 0.72395 0.0
H305 H 0.84907 0.44255 0.7538 0.0
H306 H 0.76872 0.31368 0.71304 0.0
H307 H 0.74897 0.35055 0.78839 0.0
H308 H 0.85059 0.33536 0.72588 0.0
H309 H 0.85596 0.37256 0.70938 0.0
H310 H 0.82373 0.33166 0.69731 0.0
H311 H 0.82654 0.38093 0.81889 0.0
H312 H 0.79161 0.38851 0.81764 0.0
H313 H 0.83074 0.41668 0.80056 0.0
C314 C 0.50966 0.90806 0.93811 0.0
C315 C 0.53172 0.91574 0.96045 0.0
C316 C 0.49555 0.87645 0.92491 0.0
C317 C 0.50382 0.85222 0.93438 0.0
C318 C 0.52846 0.8612 0.95529 0.0
C319 C 0.54204 0.89283 0.96811 0.0
C320 C 0.46967 0.86802 0.9025 0.0
C321 C 0.53828 0.83635 0.96592 0.0
C322 C 0.43762 0.75931 0.93517 0.0
C323 C 0.4488 0.7463 0.91404 0.0
C324 C 0.45458 0.79393 0.94118 0.0
C325 C 0.48348 0.81623 0.92565 0.0
C326 C 0.49413 0.80346 0.90355 0.0
C327 C 0.47669 0.76859 0.89803 0.0
C328 C 0.44228 0.80645 0.96492 0.0
C329 C 0.52465 0.82641 0.88642 0.0
H330 H 0.50147 0.92568 0.93237 0.0
H331 H 0.55912 0.89886 0.98543 0.0
H332 H 0.4735 0.85423 0.8853 0.0
H333 H 0.44413 0.85132 0.91109 0.0
H334 H 0.47052 0.89099 0.89413 0.0
H335 H 0.56074 0.84856 0.9796 0.0
H336 H 0.517 0.81631 0.97786 0.0
H337 H 0.54368 0.82398 0.94851 0.0
H338 H 0.416 0.74228 0.94755 0.0
H339 H 0.4854 0.7587 0.88159 0.0
H340 H 0.43832 0.82725 0.95793 0.0
H341 H 0.46162 0.81668 0.98148 0.0
H342 H 0.41834 0.7862 0.97389 0.0
H343 H 0.52316 0.84864 0.87933 0.0
H344 H 0.52736 0.8133 0.86809 0.0
H345 H 0.54769 0.83596 0.89926 0.0
C346 C 0.61352 0.49616 0.1077 0.0
C347 C 0.63085 0.52669 0.12214 0.0
C348 C 0.63103 0.48157 0.09543 0.0
C349 C 0.66661 0.49807 0.0977 0.0
C350 C 0.68428 0.53058 0.10984 0.0
C351 C 0.66613 0.54438 0.12212 0.0
C352 C 0.61119 0.44696 0.08263 0.0
C353 C 0.72218 0.54929 0.11243 0.0
C354 C 0.70701 0.44417 0.10883 0.0
C355 C 0.7217 0.44582 0.08304 0.0
C356 C 0.68857 0.46056 0.11358 0.0
C357 C 0.68471 0.47923 0.092 0.0
C358 C 0.69906 0.48062 0.06574 0.0
C359 C 0.7174 0.46386 0.06156 0.0
C360 C 0.67361 0.4583 0.1419 0.0
C361 C 0.69553 0.50027 0.04228 0.0
H362 H 0.5862 0.48226 0.10815 0.0
H363 H 0.67943 0.56782 0.13362 0.0
H364 H 0.62334 0.44529 0.06332 0.0
H365 H 0.61045 0.42794 0.09722 0.0
H366 H 0.58485 0.44033 0.07797 0.0
H367 H 0.7323 0.57621 0.11802 0.0
H368 H 0.72963 0.53735 0.12877 0.0
H369 H 0.73406 0.54798 0.09283 0.0
H370 H 0.71015 0.43021 0.12551 0.0
H371 H 0.72869 0.46521 0.04155 0.0
H372 H 0.64606 0.44813 0.14021 0.0
H373 H 0.68475 0.48384 0.15119 0.0
H374 H 0.67805 0.44195 0.15616 0.0
H375 H 0.66855 0.49177 0.03866 0.0
H376 H 0.7067 0.49749 0.02276 0.0
H377 H 0.70815 0.52742 0.04781 0.0
C378 C 0.40014 0.90701 0.52167 0.0
C379 C 0.43463 0.91879 0.51874 0.0
C380 C 0.37869 0.87522 0.53341 0.0
C381 C 0.39226 0.85498 0.54228 0.0
C382 C 0.42757 0.86826 0.54155 0.0
C383 C 0.44831 0.89996 0.52961 0.0
C384 C 0.34124 0.8621 0.53393 0.0
C385 C 0.44318 0.84775 0.55094 0.0
C386 C 0.33857 0.77186 0.58014 0.0
C387 C 0.32928 0.74852 0.5584 0.0
C388 C 0.35856 0.80673 0.57526 0.0
C389 C 0.36954 0.81841 0.54804 0.0
C390 C 0.35989 0.79491 0.52603 0.0
C391 C 0.33988 0.76032 0.53147 0.0
C392 C 0.36826 0.83101 0.59921 0.0
C393 C 0.37112 0.80624 0.49668 0.0
H394 H 0.38958 0.92144 0.51285 0.0
H395 H 0.47501 0.90907 0.527 0.0
H396 H 0.32898 0.84323 0.51717 0.0
H397 H 0.3301 0.84928 0.5538 0.0
H398 H 0.33532 0.8826 0.53084 0.0
H399 H 0.47099 0.8634 0.55297 0.0
H400 H 0.43249 0.83551 0.57108 0.0
H401 H 0.4374 0.82745 0.53565 0.0
H402 H 0.33035 0.76288 0.60099 0.0
H403 H 0.33275 0.74245 0.51457 0.0
H404 H 0.36068 0.85008 0.59497 0.0
H405 H 0.39604 0.84482 0.60182 0.0
H406 H 0.35646 0.81803 0.61892 0.0
H407 H 0.36302 0.82429 0.49014 0.0
H408 H 0.36077 0.78482 0.48184 0.0
H409 H 0.39903 0.81958 0.49545 0.0
C410 C 0.51251 0.38407 0.67915 0.0
C411 C 0.52643 0.41884 0.68313 0.0
C412 C 0.52623 0.36641 0.69221 0.0
C413 C 0.5546 0.38402 0.70966 0.0
C414 C 0.56661 0.41847 0.71588 0.0
C415 C 0.55235 0.43556 0.70245 0.0
C416 C 0.51242 0.32968 0.68509 0.0
C417 C 0.59645 0.43803 0.73468 0.0
C418 C 0.58366 0.32981 0.74673 0.0
C419 C 0.6079 0.33118 0.72819 0.0
C420 C 0.56701 0.34805 0.7417 0.0
C421 C 0.57461 0.36781 0.71747 0.0
C422 C 0.59983 0.37006 0.69917 0.0
C423 C 0.6162 0.35182 0.70481 0.0
C424 C 0.54057 0.3453 0.76183 0.0
C425 C 0.60869 0.39077 0.67302 0.0
H426 H 0.49244 0.3712 0.66417 0.0
H427 H 0.56327 0.46253 0.70536 0.0
H428 H 0.53043 0.32721 0.67129 0.0
H429 H 0.50942 0.31476 0.70397 0.0
H430 H 0.4877 0.31864 0.6744 0.0
H431 H 0.59853 0.46216 0.74157 0.0
H432 H 0.59475 0.42294 0.75314 0.0
H433 H 0.6199 0.4439 0.72347 0.0
H434 H 0.57725 0.31401 0.76493 0.0
H435 H 0.63498 0.35309 0.69044 0.0
H436 H 0.51531 0.33105 0.75212 0.0
H437 H 0.5448 0.37071 0.76714 0.0
H438 H 0.5404 0.33222 0.78118 0.0
H439 H 0.58646 0.3803 0.65913 0.0
H440 H 0.62995 0.39114 0.66167 0.0
H441 H 0.61559 0.41712 0.67796 0.0
C442 C 0.14891 0.51061 0.84835 0.0
C443 C 0.1296 0.52562 0.85474 0.0
C444 C 0.18049 0.52201 0.86062 0.0
C445 C 0.19306 0.54922 0.87961 0.0
C446 C 0.1721 0.56213 0.88816 0.0
C447 C 0.14052 0.55019 0.8755 0.0
C448 C 0.20179 0.50731 0.85099 0.0
C449 C 0.18433 0.59083 0.90858 0.0
C450 C 0.27713 0.57407 0.91396 0.0
C451 C 0.29985 0.59938 0.89607 0.0
C452 C 0.24213 0.55813 0.9095 0.0
C453 C 0.22967 0.56762 0.88653 0.0
C454 C 0.25252 0.59374 0.86883 0.0
C455 C 0.28726 0.6093 0.87385 0.0
C456 C 0.21858 0.5306 0.92892 0.0
C457 C 0.24036 0.60466 0.84405 0.0
H458 H 0.1405 0.49184 0.83202 0.0
H459 H 0.12574 0.5621 0.88011 0.0
H460 H 0.22187 0.5255 0.83701 0.0
H461 H 0.21427 0.5028 0.86874 0.0
H462 H 0.18667 0.4832 0.8396 0.0
H463 H 0.16322 0.59352 0.91699 0.0
H464 H 0.19787 0.58716 0.92599 0.0
H465 H 0.20229 0.61475 0.89813 0.0
H466 H 0.28671 0.56635 0.93124 0.0
H467 H 0.30464 0.62888 0.85999 0.0
H468 H 0.20614 0.50609 0.91783 0.0
H469 H 0.19842 0.53545 0.93615 0.0
H470 H 0.23195 0.52835 0.9472 0.0
H471 H 0.22734 0.58325 0.8294 0.0
H472 H 0.26129 0.62613 0.83291 0.0
H473 H 0.22186 0.61219 0.8506 0.0
C474 C 0.67185 0.15041 0.00676 0.0
C475 C 0.63828 0.12679 0.01306 0.0
C476 C 0.68859 0.18167 0.02026 0.0
C477 C 0.67142 0.18939 0.04077 0.0
C478 C 0.63866 0.16432 0.04912 0.0
C479 C 0.62235 0.13321 0.03506 0.0
C480 C 0.72352 0.20751 0.01069 0.0
C481 C 0.61978 0.17129 0.07131 0.0
C482 C 0.72609 0.27231 0.07848 0.0
C483 C 0.72036 0.29465 0.06275 0.0
C484 C 0.70895 0.23754 0.07263 0.0
C485 C 0.68598 0.22499 0.05027 0.0
C486 C 0.67924 0.24732 0.035 0.0
C487 C 0.69634 0.2818 0.04155 0.0
C488 C 0.71636 0.21449 0.08969 0.0
C489 C 0.65512 0.23507 0.01085 0.0
H490 H 0.68423 0.1453 0.98985 0.0
H491 H 0.59635 0.11501 0.03988 0.0
H492 H 0.7223 0.22787 -0.00072 0.0
H493 H 0.74051 0.2193 0.02861 0.0
H494 H 0.73473 0.19636 0.99683 0.0
H495 H 0.59776 0.14769 0.07901 0.0
H496 H 0.63658 0.18489 0.08898 0.0
H497 H 0.61053 0.18764 0.06279 0.0
H498 H 0.74446 0.28208 0.09505 0.0
H499 H 0.69173 0.29891 0.02936 0.0
H500 H 0.73098 0.20596 0.07714 0.0
H501 H 0.69259 0.19166 0.09591 0.0
H502 H 0.7311 0.2272 0.10856 0.0
H503 H 0.66495 0.22547 0.99432 0.0
H504 H 0.65134 0.2553 0.00203 0.0
H505 H 0.63028 0.21387 0.01732 0.0
C506 C 0.53252 0.64525 0.18834 0.0
C507 C 0.50815 0.61175 0.18265 0.0
C508 C 0.52325 0.66761 0.20001 0.0
C509 C 0.48889 0.656 0.20611 0.0
C510 C 0.46479 0.62142 0.20259 0.0
C511 C 0.47471 0.59977 0.19078 0.0
C512 C 0.54975 0.70422 0.20358 0.0
C513 C 0.42798 0.60783 0.20903 0.0
C514 C 0.46034 0.71004 0.2447 0.0
C515 C 0.45009 0.72285 0.22279 0.0
C516 C 0.4739 0.68893 0.23969 0.0
C517 C 0.47723 0.68045 0.21214 0.0
C518 C 0.46754 0.69391 0.18998 0.0
C519 C 0.45411 0.71489 0.19557 0.0
C520 C 0.48397 0.67511 0.26384 0.0
C521 C 0.47064 0.68555 0.16027 0.0
H522 H 0.55832 0.65456 0.1818 0.0
H523 H 0.4559 0.57381 0.1863 0.0
H524 H 0.54686 0.71933 0.18705 0.0
H525 H 0.54668 0.71405 0.22369 0.0
H526 H 0.57565 0.70808 0.20235 0.0
H527 H 0.41344 0.57981 0.20882 0.0
H528 H 0.42495 0.61683 0.22956 0.0
H529 H 0.41695 0.61718 0.19341 0.0
H530 H 0.45739 0.71619 0.26579 0.0
H531 H 0.44638 0.7248 0.17853 0.0
H532 H 0.51022 0.68041 0.26118 0.0
H533 H 0.46749 0.64731 0.26469 0.0
H534 H 0.48205 0.68596 0.28386 0.0
H535 H 0.49696 0.69206 0.15579 0.0
H536 H 0.46328 0.69917 0.14541 0.0
H537 H 0.45435 0.65805 0.1567 0.0
C538 C 0.90972 0.53133 0.35031 0.0
C539 C 0.92306 0.5099 0.3475 0.0
C540 C 0.87769 0.5196 0.36201 0.0
C541 C 0.8587 0.48564 0.37094 0.0
C542 C 0.87336 0.4648 0.37007 0.0
C543 C 0.90533 0.47714 0.35812 0.0
C544 C 0.86304 0.54265 0.36251 0.0
C545 C 0.85419 0.42858 0.37956 0.0
C546 C 0.776 0.4561 0.40958 0.0
C547 C 0.75241 0.44119 0.38817 0.0
C548 C 0.81076 0.47061 0.40443 0.0
C549 C 0.8221 0.47055 0.37719 0.0
C550 C 0.79832 0.4557 0.35552 0.0
C551 C 0.76383 0.44104 0.36131 0.0
C552 C 0.83531 0.48583 0.42809 0.0
C553 C 0.80932 0.45533 0.32611 0.0
H554 H 0.92332 0.55647 0.34158 0.0
H555 H 0.91558 0.4605 0.35548 0.0
H556 H 0.84349 0.53471 0.34621 0.0
H557 H 0.85067 0.54096 0.38264 0.0
H558 H 0.88253 0.56937 0.35876 0.0
H559 H 0.8708 0.41751 0.38153 0.0
H560 H 0.84183 0.42657 0.39976 0.0
H561 H 0.83407 0.41335 0.36439 0.0
H562 H 0.76728 0.45622 0.4304 0.0
H563 H 0.74575 0.42972 0.34465 0.0
H564 H 0.8534 0.5128 0.42386 0.0
H565 H 0.85018 0.4729 0.43015 0.0
H566 H 0.82246 0.48391 0.44805 0.0
H567 H 0.82668 0.48149 0.31907 0.0
H568 H 0.78769 0.44336 0.31158 0.0
H569 H 0.8233 0.4414 0.32501 0.0
C570 C 0.09719 0.55589 0.40086 0.0
C571 C 0.10179 0.58578 0.38905 0.0
C572 C 0.11331 0.55664 0.42577 0.0
C573 C 0.13434 0.588 0.43892 0.0
C574 C 0.13718 0.6179 0.42789 0.0
C575 C 0.12084 0.61639 0.4031 0.0
C576 C 0.10945 0.52423 0.4371 0.0
C577 C 0.15911 0.65184 0.44136 0.0
C578 C 0.16722 0.59806 0.51215 0.0
C579 C 0.20069 0.60628 0.50744 0.0
C580 C 0.14457 0.59002 0.49013 0.0
C581 C 0.15578 0.59044 0.4628 0.0
C582 C 0.18905 0.59706 0.45808 0.0
C583 C 0.21111 0.60485 0.48049 0.0
C584 C 0.10922 0.58283 0.49599 0.0
C585 C 0.20195 0.59775 0.4292 0.0
H586 H 0.08257 0.53225 0.38988 0.0
H587 H 0.12409 0.63945 0.394 0.0
H588 H 0.13329 0.52394 0.434 0.0
H589 H 0.10441 0.52238 0.45965 0.0
H590 H 0.08877 0.5017 0.42673 0.0
H591 H 0.15658 0.67222 0.43128 0.0
H592 H 0.15256 0.65091 0.46354 0.0
H593 H 0.18591 0.65845 0.44021 0.0
H594 H 0.15896 0.59887 0.53301 0.0
H595 H 0.2369 0.61101 0.47678 0.0
H596 H 0.09055 0.56005 0.48457 0.0
H597 H 0.10646 0.60428 0.48876 0.0
H598 H 0.1031 0.57905 0.51839 0.0
H599 H 0.18439 0.57436 0.41788 0.0
H600 H 0.22738 0.60037 0.42922 0.0
H601 H 0.20331 0.61927 0.41762 0.0
C602 C 0.51917 0.12399 0.56376 0.0
C603 C 0.52837 0.10095 0.55376 0.0
C604 C 0.53272 0.14182 0.58836 0.0
C605 C 0.5556 0.13603 0.60365 0.0
C606 C 0.56312 0.11104 0.59475 0.0
C607 C 0.5495 0.09384 0.56976 0.0
C608 C 0.52406 0.16827 0.59708 0.0
C609 C 0.58692 0.10374 0.61083 0.0
C610 C 0.61978 0.21071 0.64564 0.0
C611 C 0.6049 0.20336 0.6719 0.0
C612 C 0.60432 0.18857 0.62338 0.0
C613 C 0.57353 0.15813 0.62762 0.0
C614 C 0.55893 0.15011 0.6543 0.0
C615 C 0.57466 0.17299 0.67609 0.0
C616 C 0.62045 0.19822 0.59514 0.0
C617 C 0.52642 0.11768 0.65969 0.0
H618 H 0.50232 0.12909 0.55168 0.0
H619 H 0.55677 0.07614 0.56208 0.0
H620 H 0.51525 0.16424 0.61884 0.0
H621 H 0.54694 0.19362 0.59592 0.0
H622 H 0.50425 0.16817 0.58383 0.0
H623 H 0.58671 0.08074 0.60318 0.0
H624 H 0.61295 0.12541 0.60901 0.0
H625 H 0.58023 0.10048 0.6331 0.0
H626 H 0.64318 0.23414 0.64236 0.0
H627 H 0.56326 0.16706 0.69646 0.0
H628 H 0.6033 0.20099 0.58059 0.0
H629 H 0.62469 0.17804 0.58687 0.0
H630 H 0.64493 0.22225 0.5955 0.0
H631 H 0.50553 0.11777 0.64823 0.0
H632 H 0.5198 0.11398 0.682 0.0
H633 H 0.52834 0.09584 0.65207 0.0
C634 C 0.49643 0.58779 0.72135 0.0
C635 C 0.48725 0.55373 0.71914 0.0
C636 C 0.4925 0.60105 0.7463 0.0
C637 C 0.47897 0.57964 0.76953 0.0
C638 C 0.47272 0.54607 0.76808 0.0
C639 C 0.47699 0.53347 0.7428 0.0
C640 C 0.49982 0.63706 0.74698 0.0
C641 C 0.45855 0.52252 0.79244 0.0
C642 C 0.47548 0.61849 0.83825 0.0
C643 C 0.44255 0.61314 0.83782 0.0
C644 C 0.48774 0.60743 0.81633 0.0
C645 C 0.46654 0.59072 0.79351 0.0
C646 C 0.43326 0.58525 0.79305 0.0
C647 C 0.4217 0.5965 0.81521 0.0
C648 C 0.52331 0.61369 0.81751 0.0
C649 C 0.40985 0.56763 0.76905 0.0
H650 H 0.50455 0.60348 0.70301 0.0
H651 H 0.4697 0.50708 0.74104 0.0
H652 H 0.4757 0.63724 0.74691 0.0
H653 H 0.51353 0.64997 0.76613 0.0
H654 H 0.51494 0.65169 0.72885 0.0
H655 H 0.46044 0.49946 0.78955 0.0
H656 H 0.47183 0.53534 0.81177 0.0
H657 H 0.43158 0.51477 0.7951 0.0
H658 H 0.49167 0.63125 0.85575 0.0
H659 H 0.39621 0.59223 0.81479 0.0
H660 H 0.53807 0.62963 0.79981 0.0
H661 H 0.52316 0.58947 0.81569 0.0
H662 H 0.53634 0.62639 0.83699 0.0
H663 H 0.4209 0.58199 0.74972 0.0
H664 H 0.38459 0.56492 0.77208 0.0
H665 H 0.40666 0.54216 0.76612 0.0
C666 C 0.96056 0.46873 0.91043 0.0
C667 C 0.94927 0.476 0.88592 0.0
C668 C 0.94298 0.46417 0.93535 0.0
C669 C 0.91349 0.46685 0.93556 0.0
C670 C 0.90364 0.47679 0.9113 0.0
C671 C 0.92176 0.48141 0.88682 0.0
C672 C 0.95456 0.45411 0.96094 0.0
C673 C 0.87242 0.48 0.91059 0.0
C674 C 0.84234 0.41047 0.98404 0.0
C675 C 0.84451 0.43334 0.00433 0.0
C676 C 0.86496 0.42107 0.96179 0.0
C677 C 0.89063 0.45534 0.95993 0.0
C678 C 0.89324 0.4785 0.98055 0.0
C679 C 0.86998 0.46726 0.00246 0.0
C680 C 0.86109 0.39563 0.94004 0.0
C681 C 0.92045 0.51513 0.97936 0.0
H682 H 0.98179 0.46449 0.90977 0.0
H683 H 0.91332 0.48753 0.86791 0.0
H684 H 0.95404 0.4686 0.97916 0.0
H685 H 0.93715 0.427 0.96525 0.0
H686 H 0.98043 0.45815 0.95853 0.0
H687 H 0.87036 0.49151 0.89104 0.0
H688 H 0.84975 0.45462 0.91261 0.0
H689 H 0.87229 0.49549 0.92819 0.0
H690 H 0.82273 0.38423 0.98543 0.0
H691 H 0.87191 0.48498 0.01824 0.0
H692 H 0.88475 0.39474 0.93823 0.0
H693 H 0.85623 0.40332 0.91962 0.0
H694 H 0.84012 0.36985 0.94477 0.0
H695 H 0.94559 0.51722 0.97808 0.0
H696 H 0.91998 0.52958 -0.00233 0.0
H697 H 0.91735 0.527 0.96048 0.0
C698 C 0.53025 0.93204 0.06892 0.0
C699 C 0.51885 0.95052 0.05399 0.0
C700 C 0.51474 0.91607 0.09368 0.0
C701 C 0.48702 0.91855 0.10367 0.0
C702 C 0.47675 0.93897 0.08956 0.0
C703 C 0.4929 0.95484 0.06476 0.0
C704 C 0.52674 0.89484 0.10819 0.0
C705 C 0.44744 0.94236 0.0997 0.0
C706 C 0.42658 0.84157 0.14494 0.0
C707 C 0.4373 0.85243 0.17204 0.0
C708 C 0.44127 0.86355 0.12253 0.0
C709 C 0.46725 0.89718 0.12738 0.0
C710 C 0.4768 0.9088 0.15481 0.0
C711 C 0.46174 0.88624 0.17684 0.0
C712 C 0.43032 0.8502 0.09355 0.0
C713 C 0.50421 0.94451 0.16083 0.0
H714 H 0.55043 0.92887 0.06049 0.0
H715 H 0.484 0.96897 0.05302 0.0
H716 H 0.53129 0.90167 0.13041 0.0
H717 H 0.50698 0.86785 0.10692 0.0
H718 H 0.55029 0.89782 0.09897 0.0
H719 H 0.44571 0.96274 0.08878 0.0
H720 H 0.42364 0.91825 0.09625 0.0
H721 H 0.44959 0.94759 0.12223 0.0
H722 H 0.40756 0.81552 0.14114 0.0
H723 H 0.46995 0.89484 0.1978 0.0
H724 H 0.45113 0.8491 0.08276 0.0
H725 H 0.42463 0.86736 0.08158 0.0
H726 H 0.40773 0.82455 0.09339 0.0
H727 H 0.52894 0.94773 0.15453 0.0
H728 H 0.50544 0.95089 0.18312 0.0
H729 H 0.50019 0.96272 0.14871 0.0
C730 C 0.6346 0.53389 0.23058 0.0
C731 C 0.6024 0.52471 0.22063 0.0
C732 C 0.63876 0.52054 0.25528 0.0
C733 C 0.61001 0.49796 0.27073 0.0
C734 C 0.57759 0.4907 0.26198 0.0
C735 C 0.57412 0.50403 0.23687 0.0
C736 C 0.67378 0.52886 0.26381 0.0
C737 C 0.54641 0.46728 0.27824 0.0
C738 C 0.61906 0.43239 0.3115 0.0
C739 C 0.62698 0.44692 0.3379 0.0
C740 C 0.61277 0.44846 0.28961 0.0
C741 C 0.61388 0.47953 0.29437 0.0
C742 C 0.6208 0.49378 0.32121 0.0
C743 C 0.6276 0.47744 0.34264 0.0
C744 C 0.60593 0.43266 0.26118 0.0
C745 C 0.6216 0.52654 0.32716 0.0
H746 H 0.65658 0.55042 0.21834 0.0
H747 H 0.54916 0.49676 0.22927 0.0
H748 H 0.67861 0.53736 0.28565 0.0
H749 H 0.676 0.50587 0.26224 0.0
H750 H 0.69361 0.5488 0.25067 0.0
H751 H 0.5239 0.46816 0.27097 0.0
H752 H 0.54132 0.44101 0.27608 0.0
H753 H 0.55019 0.47377 0.30055 0.0
H754 H 0.61855 0.40879 0.30779 0.0
H755 H 0.63341 0.48857 0.36312 0.0
H756 H 0.6259 0.44985 0.24664 0.0
H757 H 0.58159 0.42884 0.25321 0.0
H758 H 0.60506 0.40799 0.26111 0.0
H759 H 0.64283 0.54742 0.31585 0.0
H760 H 0.62458 0.5328 0.34956 0.0
H761 H 0.59807 0.52519 0.31974 0.0
C762 C 0.47612 0.96037 0.40156 0.0
C763 C 0.48456 0.94922 0.42558 0.0
C764 C 0.47182 0.94353 0.37626 0.0
C765 C 0.47572 0.91476 0.37517 0.0
C766 C 0.48705 0.90525 0.39883 0.0
C767 C 0.49167 0.92283 0.42367 0.0
C768 C 0.46055 0.95495 0.35128 0.0
C769 C 0.49145 0.87471 0.39864 0.0
C770 C 0.41851 0.84387 0.32663 0.0
C771 C 0.44085 0.84669 0.30565 0.0
C772 C 0.42962 0.86602 0.34925 0.0
C773 C 0.46378 0.89204 0.35067 0.0
C774 C 0.48637 0.89533 0.32931 0.0
C775 C 0.47469 0.87237 0.30715 0.0
C776 C 0.40483 0.86129 0.37184 0.0
C777 C 0.52278 0.92309 0.32989 0.0
H778 H 0.47058 0.98073 0.4029 0.0
H779 H 0.49885 0.91457 0.44211 0.0
H780 H 0.47451 0.95481 0.33257 0.0
H781 H 0.43339 0.93721 0.34751 0.0
H782 H 0.46424 0.98065 0.35414 0.0
H783 H 0.5041 0.87306 0.41765 0.0
H784 H 0.46637 0.85154 0.39711 0.0
H785 H 0.50637 0.87513 0.38043 0.0
H786 H 0.39235 0.82403 0.32553 0.0
H787 H 0.49195 0.87481 0.29079 0.0
H788 H 0.40313 0.8845 0.37414 0.0
H789 H 0.41368 0.85684 0.39188 0.0
H790 H 0.37919 0.83976 0.36764 0.0
H791 H 0.52432 0.94799 0.33157 0.0
H792 H 0.53677 0.92301 0.31114 0.0
H793 H 0.5355 0.9203 0.34834 0.0
C794 C 0.52024 0.41885 0.57505 0.0
C795 C 0.52966 0.451 0.58545 0.0
C796 C 0.5335 0.41486 0.55018 0.0
C797 C 0.55624 0.44375 0.53494 0.0
C798 C 0.56372 0.47618 0.54415 0.0
C799 C 0.55045 0.47946 0.56946 0.0
C800 C 0.52489 0.37982 0.5412 0.0
C801 C 0.58722 0.50749 0.52811 0.0
C802 C 0.62027 0.43304 0.493 0.0
C803 C 0.60507 0.42475 0.46689 0.0
C804 C 0.60508 0.44029 0.51514 0.0
C805 C 0.57428 0.43984 0.5109 0.0
C806 C 0.55954 0.43281 0.48428 0.0
C807 C 0.57493 0.42498 0.46263 0.0
C808 C 0.62137 0.44717 0.54332 0.0
C809 C 0.52711 0.43277 0.47883 0.0
H810 H 0.50363 0.39674 0.58712 0.0
H811 H 0.55783 0.50436 0.57742 0.0
H812 H 0.51599 0.37517 0.51948 0.0
H813 H 0.54781 0.37748 0.54217 0.0
H814 H 0.50516 0.35992 0.55443 0.0
H815 H 0.58644 0.53001 0.53568 0.0
H816 H 0.61342 0.51245 0.53012 0.0
H817 H 0.58076 0.50396 0.5058 0.0
H818 H 0.64359 0.43294 0.49633 0.0
H819 H 0.56331 0.41897 0.44236 0.0
H820 H 0.6044 0.42724 0.55798 0.0
H821 H 0.62544 0.47158 0.55147 0.0
H822 H 0.64596 0.44791 0.54292 0.0
H823 H 0.50607 0.41143 0.48992 0.0
H824 H 0.52084 0.43036 0.45646 0.0
H825 H 0.52886 0.45633 0.4868 0.0
C826 C 0.09287 0.53417 0.73694 0.0
C827 C 0.10606 0.55203 0.76163 0.0
C828 C 0.10983 0.54686 0.71174 0.0
C829 C 0.14069 0.57791 0.71143 0.0
C830 C 0.15273 0.59708 0.73601 0.0
C831 C 0.13511 0.58401 0.76074 0.0
C832 C 0.0959 0.52602 0.68582 0.0
C833 C 0.18551 0.63026 0.73664 0.0
C834 C 0.20805 0.58964 0.65984 0.0
C835 C 0.20712 0.61238 0.64108 0.0
C836 C 0.18614 0.57785 0.68256 0.0
C837 C 0.16238 0.58868 0.68637 0.0
C838 C 0.16085 0.61112 0.66717 0.0
C839 C 0.18347 0.62294 0.64483 0.0
C840 C 0.1889 0.5543 0.70282 0.0
C841 C 0.13555 0.62282 0.67036 0.0
H842 H 0.07043 0.50944 0.73755 0.0
H843 H 0.14501 0.59814 0.77977 0.0
H844 H 0.09685 0.54208 0.66832 0.0
H845 H 0.11158 0.51475 0.68008 0.0
H846 H 0.06949 0.50531 0.68861 0.0
H847 H 0.18971 0.64346 0.75679 0.0
H848 H 0.20679 0.6257 0.73287 0.0
H849 H 0.18606 0.64715 0.72002 0.0
H850 H 0.22627 0.5814 0.65698 0.0
H851 H 0.18246 0.64028 0.63018 0.0
H852 H 0.16431 0.53063 0.70467 0.0
H853 H 0.19546 0.56616 0.72361 0.0
H854 H 0.20831 0.54781 0.69659 0.0
H855 H 0.10974 0.60076 0.67212 0.0
H856 H 0.13622 0.63861 0.65271 0.0
H857 H 0.14067 0.63772 0.68967 0.0
C858 C 0.63356 0.11594 0.905 0.0
C859 C 0.60182 0.09442 0.91655 0.0
C860 C 0.63676 0.13323 0.88038 0.0
C861 C 0.60742 0.12849 0.86675 0.0
C862 C 0.57521 0.10457 0.87704 0.0
C863 C 0.57275 0.08782 0.90201 0.0
C864 C 0.6716 0.15847 0.87017 0.0
C865 C 0.54339 0.09834 0.86271 0.0
C866 C 0.6199 0.20576 0.82808 0.0
C867 C 0.62597 0.19883 0.80116 0.0
C868 C 0.61266 0.18249 0.84946 0.0
C869 C 0.61089 0.1513 0.84362 0.0
C870 C 0.6156 0.14359 0.81622 0.0
C871 C 0.62343 0.16763 0.79533 0.0
C872 C 0.60823 0.19184 0.8785 0.0
C873 C 0.6133 0.11039 0.80912 0.0
H874 H 0.65604 0.12068 0.91613 0.0
H875 H 0.54821 0.07121 0.91096 0.0
H876 H 0.67427 0.15429 0.84795 0.0
H877 H 0.6756 0.18435 0.87232 0.0
H878 H 0.69171 0.1571 0.88187 0.0
H879 H 0.52084 0.07534 0.87061 0.0
H880 H 0.53969 0.12022 0.86614 0.0
H881 H 0.54531 0.09569 0.84008 0.0
H882 H 0.62175 0.22982 0.83262 0.0
H883 H 0.62769 0.16202 0.77443 0.0
H884 H 0.62861 0.19349 0.89193 0.0
H885 H 0.58394 0.17206 0.88724 0.0
H886 H 0.60883 0.21638 0.87935 0.0
H887 H 0.63474 0.10928 0.81858 0.0
H888 H 0.61379 0.10674 0.78645 0.0
H889 H 0.58981 0.08913 0.81771 0.0
C890 C 0.51132 0.57053 0.06726 0.0
C891 C 0.49071 0.55886 0.09073 0.0
C892 C 0.49864 0.57462 0.04205 0.0
C893 C 0.46462 0.56679 0.04045 0.0
C894 C 0.44298 0.5519 0.06338 0.0
C895 C 0.4563 0.54808 0.08826 0.0
C896 C 0.52245 0.59022 0.01798 0.0
C897 C 0.4065 0.54291 0.06251 0.0
C898 C 0.44622 0.62324 0.99543 0.0
C899 C 0.43102 0.60279 0.97228 0.0
C900 C 0.45728 0.61173 0.01764 0.0
C901 C 0.45312 0.57894 0.01667 0.0
C902 C 0.43773 0.55809 0.99337 0.0
C903 C 0.42678 0.57026 0.97142 0.0
C904 C 0.47343 0.63473 0.04219 0.0
C905 C 0.43294 0.52305 0.99163 0.0
H906 H 0.53796 0.57901 0.06913 0.0
H907 H 0.44026 0.53869 0.10637 0.0
H908 H 0.51038 0.57704 -0.00158 0.0
H909 H 0.52898 0.61693 0.01576 0.0
H910 H 0.54614 0.58956 0.02089 0.0
H911 H 0.39196 0.52692 0.08031 0.0
H912 H 0.40505 0.56638 0.06307 0.0
H913 H 0.39436 0.52944 0.04307 0.0
H914 H 0.44958 0.6484 0.99619 0.0
H915 H 0.41513 0.55439 0.9535 0.0
H916 H 0.49932 0.63919 0.0453 0.0
H917 H 0.45887 0.62262 0.06123 0.0
H918 H 0.47485 0.65951 0.03966 0.0
H919 H 0.45769 0.52432 0.9932 0.0
H920 H 0.4206 0.51005 0.97204 0.0
H921 H 0.41735 0.50761 0.00922 0.0
C922 C 0.95315 0.47336 0.24321 0.0
C923 C 0.95785 0.50433 0.25259 0.0
C924 C 0.93516 0.45881 0.21874 0.0
C925 C 0.92143 0.47564 0.20373 0.0
C926 C 0.9281 0.50799 0.21234 0.0
C927 C 0.9462 0.5219 0.23677 0.0
C928 C 0.92883 0.42445 0.21008 0.0
C929 C 0.91398 0.52679 0.19694 0.0
C930 C 0.8845 0.44868 0.13177 0.0
C931 C 0.84984 0.43056 0.13753 0.0
C932 C 0.90829 0.46251 0.15316 0.0
C933 C 0.89711 0.45816 0.1809 0.0
C934 C 0.86219 0.43895 0.18685 0.0
C935 C 0.83897 0.42535 0.16507 0.0
C936 C 0.94529 0.48269 0.14604 0.0
C937 C 0.84926 0.43372 0.2162 0.0
H938 H 0.96178 0.45966 0.25585 0.0
H939 H 0.94953 0.54566 0.24445 0.0
H940 H 0.90213 0.40537 0.21421 0.0
H941 H 0.93321 0.42387 0.18758 0.0
H942 H 0.94515 0.41706 0.22147 0.0
H943 H 0.92432 0.553 0.2047 0.0
H944 H 0.91954 0.52773 0.17454 0.0
H945 H 0.88617 0.51332 0.19931 0.0
H946 H 0.89305 0.45267 0.11049 0.0
H947 H 0.81223 0.41127 0.16961 0.0
H948 H 0.95971 0.47363 0.15816 0.0
H949 H 0.95522 0.50955 0.15162 0.0
H950 H 0.95003 0.48122 0.1237 0.0
H951 H 0.86167 0.42293 0.22891 0.0
H952 H 0.82154 0.41666 0.21739 0.0
H953 H 0.85555 0.45835 0.22553 0.0
loop_
_geom_bond_atom_site_label_1
_geom_bond_atom_site_label_2
_geom_bond_distance
_geom_bond_site_symmetry_2
_ccdc_geom_bond_type
H0 C6 0.930 . S
H1 C9 0.931 . S
H2 C11 0.931 . S
H3 C13 0.930 . S
H4 C15 0.930 . S
H5 C17 0.931 1_455 S
C6 H0 0.930 . S
C6 C7 1.380 . S
C6 C8 1.394 . S
C7 C6 1.380 . S
C7 C11 1.382 . S
C8 C6 1.394 . S
C8 C9 1.400 . S
C9 H1 0.931 . S
C9 C8 1.400 . S
C9 C10 1.375 . S
C10 C9 1.375 . S
C10 C11 1.415 . S
C10 C12 1.501 1_455 S
C11 H2 0.931 . S
C11 C7 1.382 . S
C11 C10 1.415 . S
C12 C10 1.501 1_655 S
C12 C13 1.384 . S
C12 C17 1.408 . S
C13 H3 0.930 . S
C13 C12 1.384 . S
C13 C14 1.389 . S
C14 C13 1.389 . S
C14 C15 1.405 . S
C15 H4 0.930 . S
C15 C14 1.405 . S
C15 C16 1.364 . S
C16 C15 1.364 . S
C16 C17 1.400 . S
C17 H5 0.931 1_655 S
C17 C12 1.408 . S
C17 C16 1.400 . S
H18 C24 0.930 . S
H19 C27 0.931 . S
H20 C29 0.931 . S
H21 C31 0.930 . S
H22 C33 0.930 . S
H23 C35 0.931 1_545 S
C24 H18 0.930 . S
C24 C25 1.380 . S
C24 C26 1.394 . S
C25 C24 1.380 . S
C25 C29 1.382 . S
C26 C24 1.394 . S
C26 C27 1.400 . S
C27 H19 0.931 . S
C27 C26 1.400 . S
C27 C28 1.375 . S
C28 C27 1.375 . S
C28 C29 1.415 . S
C28 C30 1.501 1_545 S
C29 H20 0.931 . S
C29 C25 1.382 . S
C29 C28 1.415 . S
C30 C28 1.501 1_565 S
C30 C31 1.384 . S
C30 C35 1.408 . S
C31 H21 0.930 . S
C31 C30 1.384 . S
C31 C32 1.389 . S
C32 C31 1.389 . S
C32 C33 1.405 . S
C33 H22 0.930 . S
C33 C32 1.405 . S
C33 C34 1.364 . S
C34 C33 1.364 . S
C34 C35 1.400 . S
C35 H23 0.931 1_565 S
C35 C30 1.408 . S
C35 C34 1.400 . S
H36 C42 0.930 . S
H37 C45 0.931 . S
H38 C47 0.931 . S
H39 C49 0.930 . S
H40 C51 0.930 . S
H41 C53 0.931 . S
C42 H36 0.930 . S
C42 C43 1.380 . S
C42 C44 1.394 . S
C43 C42 1.380 . S
C43 C47 1.382 . S
C44 C42 1.394 . S
C44 C45 1.400 . S
C45 H37 0.931 . S
C45 C44 1.400 . S
C45 C46 1.375 . S
C46 C45 1.375 . S
C46 C47 1.415 . S
C46 C48 1.501 . S
C47 H38 0.931 . S
C47 C43 1.382 . S
C47 C46 1.415 . S
C48 C46 1.501 . S
C48 C49 1.384 . S
C48 C53 1.408 . S
C49 H39 0.930 . S
C49 C48 1.384 . S
C49 C50 1.389 . S
C50 C49 1.389 . S
C50 C51 1.405 . S
C51 H40 0.930 . S
C51 C50 1.405 . S
C51 C52 1.364 . S
C52 C51 1.364 . S
C52 C53 1.400 . S
C53 H41 0.931 . S
C53 C48 1.408 . S
C53 C52 1.400 . S
H54 C60 0.930 . S
H55 C63 0.931 . S
H56 C65 0.931 . S
H57 C67 0.930 . S
H58 C69 0.930 . S
H59 C71 0.931 1_455 S
C60 H54 0.930 . S
C60 C61 1.380 . S
C60 C62 1.394 . S
C61 C60 1.380 . S
C61 C65 1.382 . S
C62 C60 1.394 . S
C62 C63 1.400 . S
C63 H55 0.931 . S
C63 C62 1.400 . S
C63 C64 1.375 . S
C64 C63 1.375 . S
C64 C65 1.415 . S
C64 C66 1.501 1_455 S
C65 H56 0.931 . S
C65 C61 1.382 . S
C65 C64 1.415 . S
C66 C64 1.501 1_655 S
C66 C67 1.384 . S
C66 C71 1.408 . S
C67 H57 0.930 . S
C67 C66 1.384 . S
C67 C68 1.389 . S
C68 C67 1.389 . S
C68 C69 1.405 . S
C69 H58 0.930 . S
C69 C68 1.405 . S
C69 C70 1.364 . S
C70 C69 1.364 . S
C70 C71 1.400 . S
C71 H59 0.931 1_655 S
C71 C66 1.408 . S
C71 C70 1.400 . S
H72 C78 0.930 . S
H73 C81 0.931 . S
H74 C83 0.931 1_545 S
H75 C85 0.930 . S
H76 C87 0.930 . S
H77 C89 0.931 . S
C78 H72 0.930 . S
C78 C79 1.380 . S
C78 C80 1.394 1_554 S
C79 C78 1.380 . S
C79 C83 1.382 . S
C80 C78 1.394 1_556 S
C80 C81 1.400 . S
C81 H73 0.931 . S
C81 C80 1.400 . S
C81 C82 1.375 . S
C82 C81 1.375 . S
C82 C83 1.415 1_556 S
C82 C84 1.501 1_565 S
C83 H74 0.931 1_565 S
C83 C79 1.382 . S
C83 C82 1.415 1_554 S
C84 C82 1.501 1_545 S
C84 C85 1.384 1_556 S
C84 C89 1.408 . S
C85 H75 0.930 . S
C85 C84 1.384 1_554 S
C85 C86 1.389 1_554 S
C86 C85 1.389 1_556 S
C86 C87 1.405 . S
C87 H76 0.930 . S
C87 C86 1.405 . S
C87 C88 1.364 . S
C88 C87 1.364 . S
C88 C89 1.400 . S
C89 H77 0.931 . S
C89 C84 1.408 . S
C89 C88 1.400 . S
H90 C96 0.930 . S
H91 C99 0.931 . S
H92 C101 0.931 . S
H93 C103 0.930 . S
H94 C105 0.930 . S
H95 C107 0.931 . S
C96 H90 0.930 . S
C96 C97 1.380 . S
C96 C98 1.394 . S
C97 C96 1.380 . S
C97 C101 1.382 . S
C98 C96 1.394 . S
C98 C99 1.400 . S
C99 H91 0.931 . S
C99 C98 1.400 . S
C99 C100 1.375 . S
C100 C99 1.375 . S
C100 C101 1.415 . S
C100 C102 1.501 . S
C101 H92 0.931 . S
C101 C97 1.382 . S
C101 C100 1.415 . S
C102 C100 1.501 . S
C102 C103 1.384 . S
C102 C107 1.408 . S
C103 H93 0.930 . S
C103 C102 1.384 . S
C103 C104 1.389 . S
C104 C103 1.389 . S
C104 C105 1.405 . S
C105 H94 0.930 . S
C105 C104 1.405 . S
C105 C106 1.364 . S
C106 C105 1.364 . S
C106 C107 1.400 . S
C107 H95 0.931 . S
C107 C102 1.408 . S
C107 C106 1.400 . S
In108 O109 2.294 . S
In108 O110 2.326 . S
In108 O114 2.266 . S
In108 O115 2.326 . S
In108 O116 2.266 . S
In108 O117 2.326 . S
In108 O119 2.294 . S
In108 O120 2.326 . S
O109 In108 2.294 . S
O109 C118 1.240 . S
O110 In108 2.326 . S
O110 C118 1.252 . S
C111 O114 1.252 . S
C111 O115 1.260 . S
C112 O119 1.240 . S
C112 O120 1.252 . S
C113 O116 1.252 . S
C113 O117 1.260 . S
O114 In108 2.266 . S
O114 C111 1.252 . S
O115 In108 2.326 . S
O115 C111 1.260 . S
O116 In108 2.266 . S
O116 C113 1.252 . S
O117 In108 2.326 . S
O117 C113 1.260 . S
C118 O109 1.240 . S
C118 O110 1.252 . S
O119 In108 2.294 . S
O119 C112 1.240 . S
O120 In108 2.326 . S
O120 C112 1.252 . S
In121 O122 2.294 . S
In121 O123 2.326 . S
In121 O127 2.266 . S
In121 O128 2.326 . S
In121 O129 2.266 . S
In121 O130 2.326 . S
In121 O132 2.294 . S
In121 O133 2.326 . S
O122 In121 2.294 . S
O122 C131 1.240 . S
O123 In121 2.326 . S
O123 C131 1.252 . S
C124 O127 1.252 . S
C124 O128 1.260 . S
C125 O132 1.240 . S
C125 O133 1.252 . S
C126 O129 1.252 . S
C126 O130 1.260 . S
O127 In121 2.266 . S
O127 C124 1.252 . S
O128 In121 2.326 . S
O128 C124 1.260 . S
O129 In121 2.266 . S
O129 C126 1.252 . S
O130 In121 2.326 . S
O130 C126 1.260 . S
C131 O122 1.240 . S
C131 O123 1.252 . S
O132 In121 2.294 . S
O132 C125 1.240 . S
O133 In121 2.326 . S
O133 C125 1.252 . S
In134 O135 2.294 . S
In134 O136 2.326 . S
In134 O140 2.266 . S
In134 O141 2.326 . S
In134 O142 2.266 . S
In134 O143 2.326 . S
In134 O145 2.294 . S
In134 O146 2.326 . S
O135 In134 2.294 . S
O135 C144 1.240 . S
O136 In134 2.326 . S
O136 C144 1.252 . S
C137 O140 1.252 . S
C137 O141 1.260 . S
C138 O145 1.240 . S
C138 O146 1.252 . S
C139 O142 1.252 . S
C139 O143 1.260 . S
O140 In134 2.266 . S
O140 C137 1.252 . S
O141 In134 2.326 . S
O141 C137 1.260 . S
O142 In134 2.266 . S
O142 C139 1.252 . S
O143 In134 2.326 . S
O143 C139 1.260 . S
C144 O135 1.240 . S
C144 O136 1.252 . S
O145 In134 2.294 . S
O145 C138 1.240 . S
O146 In134 2.326 . S
O146 C138 1.252 . S
In147 O148 2.294 . S
In147 O149 2.326 . S
In147 O153 2.266 . S
In147 O154 2.326 . S
In147 O155 2.266 . S
In147 O156 2.326 . S
In147 O158 2.294 . S
In147 O159 2.326 . S
O148 In147 2.294 . S
O148 C157 1.240 . S
O149 In147 2.326 . S
O149 C157 1.252 . S
C150 O153 1.252 . S
C150 O154 1.260 . S
C151 O158 1.240 . S
C151 O159 1.252 . S
C152 O155 1.252 . S
C152 O156 1.260 . S
O153 In147 2.266 . S
O153 C150 1.252 . S
O154 In147 2.326 . S
O154 C150 1.260 . S
O155 In147 2.266 . S
O155 C152 1.252 . S
O156 In147 2.326 . S
O156 C152 1.260 . S
C157 O148 1.240 . S
C157 O149 1.252 . S
O158 In147 2.294 . S
O158 C151 1.240 . S
O159 In147 2.326 . S
O159 C151 1.252 . S
In160 O161 2.294 . S
In160 O162 2.326 . S
In160 O166 2.266 . S
In160 O167 2.326 . S
In160 O168 2.266 . S
In160 O169 2.326 . S
In160 O171 2.294 . S
In160 O172 2.326 . S
O161 In160 2.294 . S
O161 C170 1.240 . S
O162 In160 2.326 . S
O162 C170 1.252 . S
C163 O166 1.252 . S
C163 O167 1.260 . S
C164 O171 1.240 . S
C164 O172 1.252 . S
C165 O168 1.252 . S
C165 O169 1.260 . S
O166 In160 2.266 . S
O166 C163 1.252 . S
O167 In160 2.326 . S
O167 C163 1.260 . S
O168 In160 2.266 . S
O168 C165 1.252 . S
O169 In160 2.326 . S
O169 C165 1.260 . S
C170 O161 1.240 . S
C170 O162 1.252 . S
O171 In160 2.294 . S
O171 C164 1.240 . S
O172 In160 2.326 . S
O172 C164 1.252 . S
In173 O174 2.294 . S
In173 O175 2.326 . S
In173 O179 2.266 . S
In173 O180 2.326 . S
In173 O181 2.266 . S
In173 O182 2.326 . S
In173 O184 2.294 . S
In173 O185 2.326 . S
O174 In173 2.294 . S
O174 C183 1.240 . S
O175 In173 2.326 . S
O175 C183 1.252 . S
C176 O179 1.252 . S
C176 O180 1.260 . S
C177 O184 1.240 . S
C177 O185 1.252 . S
C178 O181 1.252 . S
C178 O182 1.260 . S
O179 In173 2.266 . S
O179 C176 1.252 . S
O180 In173 2.326 . S
O180 C176 1.260 . S
O181 In173 2.266 . S
O181 C178 1.252 . S
O182 In173 2.326 . S
O182 C178 1.260 . S
C183 O174 1.240 . S
C183 O175 1.252 . S
O184 In173 2.294 . S
O184 C177 1.240 . S
O185 In173 2.326 . S
O185 C177 1.252 . S
C186 C187 1.391 . S
C186 C188 1.394 . S
C186 H202 0.931 . S
C187 C186 1.391 . S
C187 C191 1.376 . S
C188 C186 1.394 . S
C188 C189 1.369 . S
C188 C192 1.531 . S
C189 C188 1.369 . S
C189 C190 1.410 . S
C189 C197 1.503 . S
C190 C189 1.410 . S
C190 C191 1.392 . S
C190 C193 1.511 . S
C191 C187 1.376 . S
C191 C190 1.392 . S
C191 H203 0.929 . S
C192 C188 1.531 . S
C192 H204 0.960 . S
C192 H205 0.962 . S
C192 H206 0.960 . S
C193 C190 1.511 . S
C193 H207 0.961 . S
C193 H208 0.961 . S
C193 H209 0.961 . S
C194 C195 1.370 . S
C194 C196 1.363 . S
C194 H210 0.931 . S
C195 C194 1.370 . S
C195 C199 1.408 . S
C196 C194 1.363 . S
C196 C197 1.370 . S
C196 C200 1.524 . S
C197 C189 1.503 . S
C197 C196 1.370 . S
C197 C198 1.403 . S
C198 C197 1.403 . S
C198 C199 1.404 . S
C198 C201 1.539 . S
C199 C195 1.408 . S
C199 C198 1.404 . S
C199 H211 0.930 . S
C200 C196 1.524 . S
C200 H212 0.956 . S
C200 H213 0.961 . S
C200 H214 0.961 . S
C201 C198 1.539 . S
C201 H215 0.958 . S
C201 H216 0.961 . S
C201 H217 0.960 . S
H202 C186 0.931 . S
H203 C191 0.929 . S
H204 C192 0.960 . S
H205 C192 0.962 . S
H206 C192 0.960 . S
H207 C193 0.961 . S
H208 C193 0.961 . S
H209 C193 0.961 . S
H210 C194 0.931 . S
H211 C199 0.930 . S
H212 C200 0.956 . S
H213 C200 0.961 . S
H214 C200 0.961 . S
H215 C201 0.958 . S
H216 C201 0.961 . S
H217 C201 0.960 . S
C218 C219 1.391 . S
C218 C220 1.394 . S
C218 H234 0.931 . S
C219 C218 1.391 . S
C219 C223 1.376 . S
C220 C218 1.394 . S
C220 C221 1.369 . S
C220 C224 1.531 . S
C221 C220 1.369 . S
C221 C222 1.410 . S
C221 C229 1.503 . S
C222 C221 1.410 . S
C222 C223 1.392 . S
C222 C225 1.511 . S
C223 C219 1.376 . S
C223 C222 1.392 . S
C223 H235 0.929 . S
C224 C220 1.531 . S
C224 H236 0.960 . S
C224 H237 0.962 . S
C224 H238 0.960 . S
C225 C222 1.511 . S
C225 H239 0.961 . S
C225 H240 0.961 . S
C225 H241 0.961 . S
C226 C227 1.370 . S
C226 C228 1.363 . S
C226 H242 0.931 . S
C227 C226 1.370 . S
C227 C231 1.408 . S
C228 C226 1.363 . S
C228 C229 1.370 . S
C228 C232 1.524 . S
C229 C221 1.503 . S
C229 C228 1.370 . S
C229 C230 1.403 . S
C230 C229 1.403 . S
C230 C231 1.404 . S
C230 C233 1.539 . S
C231 C227 1.408 . S
C231 C230 1.404 . S
C231 H243 0.930 . S
C232 C228 1.524 . S
C232 H244 0.956 . S
C232 H245 0.961 . S
C232 H246 0.961 . S
C233 C230 1.539 . S
C233 H247 0.958 . S
C233 H248 0.961 . S
C233 H249 0.960 . S
H234 C218 0.931 . S
H235 C223 0.929 . S
H236 C224 0.960 . S
H237 C224 0.962 . S
H238 C224 0.960 . S
H239 C225 0.961 . S
H240 C225 0.961 . S
H241 C225 0.961 . S
H242 C226 0.931 . S
H243 C231 0.930 . S
H244 C232 0.956 . S
H245 C232 0.961 . S
H246 C232 0.961 . S
H247 C233 0.958 . S
H248 C233 0.961 . S
H249 C233 0.960 . S
C250 C251 1.391 . S
C250 C252 1.394 . S
C250 H266 0.931 . S
C251 C250 1.391 . S
C251 C255 1.376 . S
C252 C250 1.394 . S
C252 C253 1.369 . S
C252 C256 1.531 . S
C253 C252 1.369 . S
C253 C254 1.410 . S
C253 C261 1.503 . S
C254 C253 1.410 . S
C254 C255 1.392 . S
C254 C257 1.511 . S
C255 C251 1.376 . S
C255 C254 1.392 . S
C255 H267 0.929 . S
C256 C252 1.531 . S
C256 H268 0.960 . S
C256 H269 0.962 . S
C256 H270 0.960 . S
C257 C254 1.511 . S
C257 H271 0.961 . S
C257 H272 0.961 . S
C257 H273 0.961 . S
C258 C259 1.370 . S
C258 C260 1.363 . S
C258 H274 0.931 . S
C259 C258 1.370 . S
C259 C263 1.408 . S
C260 C258 1.363 . S
C260 C261 1.370 . S
C260 C264 1.524 . S
C261 C253 1.503 . S
C261 C260 1.370 . S
C261 C262 1.403 . S
C262 C261 1.403 . S
C262 C263 1.404 . S
C262 C265 1.539 . S
C263 C259 1.408 . S
C263 C262 1.404 . S
C263 H275 0.930 . S
C264 C260 1.524 . S
C264 H276 0.956 . S
C264 H277 0.961 . S
C264 H278 0.961 . S
C265 C262 1.539 . S
C265 H279 0.958 . S
C265 H280 0.961 . S
C265 H281 0.960 . S
H266 C250 0.931 . S
H267 C255 0.929 . S
H268 C256 0.960 . S
H269 C256 0.962 . S
H270 C256 0.960 . S
H271 C257 0.961 . S
H272 C257 0.961 . S
H273 C257 0.961 . S
H274 C258 0.931 . S
H275 C263 0.930 . S
H276 C264 0.956 . S
H277 C264 0.961 . S
H278 C264 0.961 . S
H279 C265 0.958 . S
H280 C265 0.961 . S
H281 C265 0.960 . S
C282 C283 1.391 . S
C282 C284 1.394 . S
C282 H298 0.931 . S
C283 C282 1.391 . S
C283 C287 1.376 . S
C284 C282 1.394 . S
C284 C285 1.369 . S
C284 C288 1.531 . S
C285 C284 1.369 . S
C285 C286 1.410 . S
C285 C293 1.503 . S
C286 C285 1.410 . S
C286 C287 1.392 . S
C286 C289 1.511 . S
C287 C283 1.376 . S
C287 C286 1.392 . S
C287 H299 0.929 . S
C288 C284 1.531 . S
C288 H300 0.960 . S
C288 H301 0.962 . S
C288 H302 0.960 . S
C289 C286 1.511 . S
C289 H303 0.961 . S
C289 H304 0.961 . S
C289 H305 0.961 . S
C290 C291 1.370 . S
C290 C292 1.363 . S
C290 H306 0.931 . S
C291 C290 1.370 . S
C291 C295 1.408 . S
C292 C290 1.363 . S
C292 C293 1.370 . S
C292 C296 1.524 . S
C293 C285 1.503 . S
C293 C292 1.370 . S
C293 C294 1.403 . S
C294 C293 1.403 . S
C294 C295 1.404 . S
C294 C297 1.539 . S
C295 C291 1.408 . S
C295 C294 1.404 . S
C295 H307 0.930 . S
C296 C292 1.524 . S
C296 H308 0.956 . S
C296 H309 0.961 . S
C296 H310 0.961 . S
C297 C294 1.539 . S
C297 H311 0.958 . S
C297 H312 0.961 . S
C297 H313 0.960 . S
H298 C282 0.931 . S
H299 C287 0.929 . S
H300 C288 0.960 . S
H301 C288 0.962 . S
H302 C288 0.960 . S
H303 C289 0.961 . S
H304 C289 0.961 . S
H305 C289 0.961 . S
H306 C290 0.931 . S
H307 C295 0.930 . S
H308 C296 0.956 . S
H309 C296 0.961 . S
H310 C296 0.961 . S
H311 C297 0.958 . S
H312 C297 0.961 . S
H313 C297 0.960 . S
C314 C315 1.391 . S
C314 C316 1.394 . S
C314 H330 0.931 . S
C315 C314 1.391 . S
C315 C319 1.376 . S
C316 C314 1.394 . S
C316 C317 1.369 . S
C316 C320 1.531 . S
C317 C316 1.369 . S
C317 C318 1.410 . S
C317 C325 1.503 . S
C318 C317 1.410 . S
C318 C319 1.392 . S
C318 C321 1.511 . S
C319 C315 1.376 . S
C319 C318 1.392 . S
C319 H331 0.929 . S
C320 C316 1.531 . S
C320 H332 0.960 . S
C320 H333 0.962 . S
C320 H334 0.960 . S
C321 C318 1.511 . S
C321 H335 0.961 . S
C321 H336 0.961 . S
C321 H337 0.961 . S
C322 C323 1.370 . S
C322 C324 1.363 . S
C322 H338 0.931 . S
C323 C322 1.370 . S
C323 C327 1.408 . S
C324 C322 1.363 . S
C324 C325 1.370 . S
C324 C328 1.524 . S
C325 C317 1.503 . S
C325 C324 1.370 . S
C325 C326 1.403 . S
C326 C325 1.403 . S
C326 C327 1.404 . S
C326 C329 1.539 . S
C327 C323 1.408 . S
C327 C326 1.404 . S
C327 H339 0.930 . S
C328 C324 1.524 . S
C328 H340 0.956 . S
C328 H341 0.961 . S
C328 H342 0.969 . S
C329 C326 1.539 . S
C329 H343 0.958 . S
C329 H344 0.961 . S
C329 H345 0.960 . S
H330 C314 0.931 . S
H331 C319 0.929 . S
H332 C320 0.960 . S
H333 C320 0.962 . S
H334 C320 0.960 . S
H335 C321 0.961 . S
H336 C321 0.961 . S
H337 C321 0.961 . S
H338 C322 0.931 . S
H339 C327 0.930 . S
H340 C328 0.956 . S
H341 C328 0.961 . S
H342 C328 0.969 . S
H343 C329 0.958 . S
H344 C329 0.961 . S
H345 C329 0.960 . S
C346 C347 1.391 . S
C346 C348 1.394 . S
C346 H362 0.931 . S
C347 C346 1.391 . S
C347 C351 1.376 . S
C348 C346 1.394 . S
C348 C349 1.369 . S
C348 C352 1.531 . S
C349 C348 1.369 . S
C349 C350 1.410 . S
C349 C357 1.503 . S
C350 C349 1.410 . S
C350 C351 1.392 . S
C350 C353 1.511 . S
C351 C347 1.376 . S
C351 C350 1.392 . S
C351 H363 0.929 . S
C352 C348 1.531 . S
C352 H364 0.960 . S
C352 H365 0.962 . S
C352 H366 0.960 . S
C353 C350 1.511 . S
C353 H367 0.961 . S
C353 H368 0.961 . S
C353 H369 0.961 . S
C354 C355 1.370 . S
C354 C356 1.363 . S
C354 H370 0.931 . S
C355 C354 1.370 . S
C355 C359 1.408 . S
C356 C354 1.363 . S
C356 C357 1.370 . S
C356 C360 1.524 . S
C357 C349 1.503 . S
C357 C356 1.370 . S
C357 C358 1.403 . S
C358 C357 1.403 . S
C358 C359 1.404 . S
C358 C361 1.539 . S
C359 C355 1.408 . S
C359 C358 1.404 . S
C359 H371 0.930 . S
C360 C356 1.524 . S
C360 H372 0.956 . S
C360 H373 0.961 . S
C360 H374 0.961 . S
C361 C358 1.539 . S
C361 H375 0.958 . S
C361 H376 0.961 . S
C361 H377 0.960 . S
H362 C346 0.931 . S
H363 C351 0.929 . S
H364 C352 0.960 . S
H365 C352 0.962 . S
H366 C352 0.960 . S
H367 C353 0.961 . S
H368 C353 0.961 . S
H369 C353 0.961 . S
H370 C354 0.931 . S
H371 C359 0.930 . S
H372 C360 0.956 . S
H373 C360 0.961 . S
H374 C360 0.961 . S
H375 C361 0.958 . S
H376 C361 0.961 . S
H377 C361 0.960 . S
C378 C379 1.391 . S
C378 C380 1.394 . S
C378 H394 0.931 . S
C379 C378 1.391 . S
C379 C383 1.376 . S
C380 C378 1.394 . S
C380 C381 1.369 . S
C380 C384 1.531 . S
C381 C380 1.369 . S
C381 C382 1.410 . S
C381 C389 1.503 . S
C382 C381 1.410 . S
C382 C383 1.392 . S
C382 C385 1.511 . S
C383 C379 1.376 . S
C383 C382 1.392 . S
C383 H395 0.929 . S
C384 C380 1.531 . S
C384 H396 0.960 . S
C384 H397 0.962 . S
C384 H398 0.960 . S
C385 C382 1.511 . S
C385 H399 0.961 . S
C385 H400 0.961 . S
C385 H401 0.961 . S
C386 C387 1.370 . S
C386 C388 1.363 . S
C386 H402 0.931 . S
C387 C386 1.370 . S
C387 C391 1.408 . S
C388 C386 1.363 . S
C388 C389 1.370 . S
C388 C392 1.524 . S
C389 C381 1.503 . S
C389 C388 1.370 . S
C389 C390 1.403 . S
C390 C389 1.403 . S
C390 C391 1.404 . S
C390 C393 1.539 . S
C391 C387 1.408 . S
C391 C390 1.404 . S
C391 H403 0.930 . S
C392 C388 1.524 . S
C392 H404 0.956 . S
C392 H405 0.961 . S
C392 H406 0.961 . S
C393 C390 1.539 . S
C393 H407 0.958 . S
C393 H408 0.961 . S
C393 H409 0.960 . S
H394 C378 0.931 . S
H395 C383 0.929 . S
H396 C384 0.960 . S
H397 C384 0.962 . S
H398 C384 0.960 . S
H399 C385 0.961 . S
H400 C385 0.961 . S
H401 C385 0.961 . S
H402 C386 0.931 . S
H403 C391 0.930 . S
H404 C392 0.956 . S
H405 C392 0.961 . S
H406 C392 0.961 . S
H407 C393 0.958 . S
H408 C393 0.961 . S
H409 C393 0.960 . S
C410 C411 1.391 . S
C410 C412 1.394 . S
C410 H426 0.931 . S
C411 C410 1.391 . S
C411 C415 1.376 . S
C412 C410 1.394 . S
C412 C413 1.369 . S
C412 C416 1.531 . S
C413 C412 1.369 . S
C413 C414 1.410 . S
C413 C421 1.503 . S
C414 C413 1.410 . S
C414 C415 1.392 . S
C414 C417 1.511 . S
C415 C411 1.376 . S
C415 C414 1.392 . S
C415 H427 0.929 . S
C416 C412 1.531 . S
C416 H428 0.960 . S
C416 H429 0.962 . S
C416 H430 0.960 . S
C417 C414 1.511 . S
C417 H431 0.961 . S
C417 H432 0.961 . S
C417 H433 0.961 . S
C418 C419 1.370 . S
C418 C420 1.363 . S
C418 H434 0.931 . S
C419 C418 1.370 . S
C419 C423 1.408 . S
C420 C418 1.363 . S
C420 C421 1.370 . S
C420 C424 1.524 . S
C421 C413 1.503 . S
C421 C420 1.370 . S
C421 C422 1.403 . S
C422 C421 1.403 . S
C422 C423 1.404 . S
C422 C425 1.539 . S
C423 C419 1.408 . S
C423 C422 1.404 . S
C423 H435 0.930 . S
C424 C420 1.524 . S
C424 H436 0.956 . S
C424 H437 0.961 . S
C424 H438 0.961 . S
C425 C422 1.539 . S
C425 H439 0.958 . S
C425 H440 0.961 . S
C425 H441 0.960 . S
H426 C410 0.931 . S
H427 C415 0.929 . S
H428 C416 0.960 . S
H429 C416 0.962 . S
H430 C416 0.960 . S
H431 C417 0.961 . S
H432 C417 0.961 . S
H433 C417 0.961 . S
H434 C418 0.931 . S
H435 C423 0.930 . S
H436 C424 0.956 . S
H437 C424 0.961 . S
H438 C424 0.961 . S
H439 C425 0.958 . S
H440 C425 0.961 . S
H441 C425 0.960 . S
C442 C443 1.391 . S
C442 C444 1.394 . S
C442 H458 0.931 . S
C443 C442 1.391 . S
C443 C447 1.376 . S
C444 C442 1.394 . S
C444 C445 1.369 . S
C444 C448 1.531 . S
C445 C444 1.369 . S
C445 C446 1.410 . S
C445 C453 1.503 . S
C446 C445 1.410 . S
C446 C447 1.392 . S
C446 C449 1.511 . S
C447 C443 1.376 . S
C447 C446 1.392 . S
C447 H459 0.929 . S
C448 C444 1.531 . S
C448 H460 0.960 . S
C448 H461 0.962 . S
C448 H462 0.960 . S
C449 C446 1.511 . S
C449 H463 0.961 . S
C449 H464 0.961 . S
C449 H465 0.961 . S
C450 C451 1.370 . S
C450 C452 1.363 . S
C450 H466 0.931 . S
C451 C450 1.370 . S
C451 C455 1.408 . S
C452 C450 1.363 . S
C452 C453 1.370 . S
C452 C456 1.524 . S
C453 C445 1.503 . S
C453 C452 1.370 . S
C453 C454 1.403 . S
C454 C453 1.403 . S
C454 C455 1.404 . S
C454 C457 1.539 . S
C455 C451 1.408 . S
C455 C454 1.404 . S
C455 H467 0.930 . S
C456 C452 1.524 . S
C456 H468 0.956 . S
C456 H469 0.961 . S
C456 H470 0.961 . S
C457 C454 1.539 . S
C457 H471 0.958 . S
C457 H472 0.961 . S
C457 H473 0.960 . S
H458 C442 0.931 . S
H459 C447 0.929 . S
H460 C448 0.960 . S
H461 C448 0.962 . S
H462 C448 0.960 . S
H463 C449 0.961 . S
H464 C449 0.961 . S
H465 C449 0.961 . S
H466 C450 0.931 . S
H467 C455 0.930 . S
H468 C456 0.956 . S
H469 C456 0.961 . S
H470 C456 0.961 . S
H471 C457 0.958 . S
H472 C457 0.961 . S
H473 C457 0.960 . S
C474 C475 1.391 1_556 S
C474 C476 1.394 1_556 S
C474 H490 0.931 . S
C475 C474 1.391 1_554 S
C475 C479 1.376 . S
C476 C474 1.394 1_554 S
C476 C477 1.369 . S
C476 C480 1.531 1_554 S
C477 C476 1.369 . S
C477 C478 1.410 . S
C477 C485 1.503 . S
C478 C477 1.410 . S
C478 C479 1.392 . S
C478 C481 1.511 . S
C479 C475 1.376 . S
C479 C478 1.392 . S
C479 H491 0.929 . S
C480 C476 1.531 1_556 S
C480 H492 0.960 . S
C480 H493 0.962 1_556 S
C480 H494 0.960 . S
C481 C478 1.511 . S
C481 H495 0.961 . S
C481 H496 0.961 . S
C481 H497 0.961 . S
C482 C483 1.370 . S
C482 C484 1.363 . S
C482 H498 0.931 . S
C483 C482 1.370 . S
C483 C487 1.408 . S
C484 C482 1.363 . S
C484 C485 1.370 . S
C484 C488 1.524 . S
C485 C477 1.503 . S
C485 C484 1.370 . S
C485 C486 1.403 . S
C486 C485 1.403 . S
C486 C487 1.404 . S
C486 C489 1.539 1_554 S
C487 C483 1.408 . S
C487 C486 1.404 . S
C487 H499 0.930 . S
C488 C484 1.524 . S
C488 H500 0.956 . S
C488 H501 0.961 . S
C488 H502 0.961 . S
C489 C486 1.539 1_556 S
C489 H503 0.958 . S
C489 H504 0.961 . S
C489 H505 0.960 . S
H490 C474 0.931 . S
H491 C479 0.929 . S
H492 C480 0.960 . S
H493 C480 0.962 1_554 S
H494 C480 0.960 . S
H495 C481 0.961 . S
H496 C481 0.961 . S
H497 C481 0.961 . S
H498 C482 0.931 . S
H499 C487 0.930 . S
H500 C488 0.956 . S
H501 C488 0.961 . S
H502 C488 0.961 . S
H503 C489 0.958 . S
H504 C489 0.961 . S
H505 C489 0.960 . S
C506 C507 1.391 . S
C506 C508 1.394 . S
C506 H522 0.931 . S
C507 C506 1.391 . S
C507 C511 1.376 . S
C508 C506 1.394 . S
C508 C509 1.369 . S
C508 C512 1.531 . S
C509 C508 1.369 . S
C509 C510 1.410 . S
C509 C517 1.503 . S
C510 C509 1.410 . S
C510 C511 1.392 . S
C510 C513 1.511 . S
C511 C507 1.376 . S
C511 C510 1.392 . S
C511 H523 0.929 . S
C512 C508 1.531 . S
C512 H524 0.960 . S
C512 H525 0.962 . S
C512 H526 0.960 . S
C513 C510 1.511 . S
C513 H527 0.961 . S
C513 H528 0.961 . S
C513 H529 0.961 . S
C514 C515 1.370 . S
C514 C516 1.363 . S
C514 H530 0.931 . S
C515 C514 1.370 . S
C515 C519 1.408 . S
C516 C514 1.363 . S
C516 C517 1.370 . S
C516 C520 1.524 . S
C517 C509 1.503 . S
C517 C516 1.370 . S
C517 C518 1.403 . S
C518 C517 1.403 . S
C518 C519 1.404 . S
C518 C521 1.539 . S
C519 C515 1.408 . S
C519 C518 1.404 . S
C519 H531 0.930 . S
C520 C516 1.524 . S
C520 H532 0.956 . S
C520 H533 0.961 . S
C520 H534 0.961 . S
C521 C518 1.539 . S
C521 H535 0.958 . S
C521 H536 0.961 . S
C521 H537 0.960 . S
H522 C506 0.931 . S
H523 C511 0.929 . S
H524 C512 0.960 . S
H525 C512 0.962 . S
H526 C512 0.960 . S
H527 C513 0.961 . S
H528 C513 0.961 . S
H529 C513 0.961 . S
H530 C514 0.931 . S
H531 C519 0.930 . S
H532 C520 0.956 . S
H533 C520 0.961 . S
H534 C520 0.961 . S
H535 C521 0.958 . S
H536 C521 0.961 . S
H537 C521 0.960 . S
C538 C539 1.391 . S
C538 C540 1.394 . S
C538 H554 0.931 . S
C539 C538 1.391 . S
C539 C543 1.376 . S
C540 C538 1.394 . S
C540 C541 1.369 . S
C540 C544 1.531 . S
C541 C540 1.369 . S
C541 C542 1.410 . S
C541 C549 1.503 . S
C542 C541 1.410 . S
C542 C543 1.392 . S
C542 C545 1.511 . S
C543 C539 1.376 . S
C543 C542 1.392 . S
C543 H555 0.929 . S
C544 C540 1.531 . S
C544 H556 0.960 . S
C544 H557 0.962 . S
C544 H558 0.960 . S
C545 C542 1.511 . S
C545 H559 0.961 . S
C545 H560 0.961 . S
C545 H561 0.961 . S
C546 C547 1.370 . S
C546 C548 1.363 . S
C546 H562 0.931 . S
C547 C546 1.370 . S
C547 C551 1.408 . S
C548 C546 1.363 . S
C548 C549 1.370 . S
C548 C552 1.524 . S
C549 C541 1.503 . S
C549 C548 1.370 . S
C549 C550 1.403 . S
C550 C549 1.403 . S
C550 C551 1.404 . S
C550 C553 1.539 . S
C551 C547 1.408 . S
C551 C550 1.404 . S
C551 H563 0.930 . S
C552 C548 1.524 . S
C552 H564 0.956 . S
C552 H565 0.961 . S
C552 H566 0.961 . S
C553 C550 1.539 . S
C553 H567 0.958 . S
C553 H568 0.961 . S
C553 H569 0.960 . S
H554 C538 0.931 . S
H555 C543 0.929 . S
H556 C544 0.960 . S
H557 C544 0.962 . S
H558 C544 0.960 . S
H559 C545 0.961 . S
H560 C545 0.961 . S
H561 C545 0.961 . S
H562 C546 0.931 . S
H563 C551 0.930 . S
H564 C552 0.956 . S
H565 C552 0.961 . S
H566 C552 0.961 . S
H567 C553 0.958 . S
H568 C553 0.961 . S
H569 C553 0.960 . S
C570 C571 1.391 . S
C570 C572 1.394 . S
C570 H586 0.931 . S
C571 C570 1.391 . S
C571 C575 1.376 . S
C572 C570 1.394 . S
C572 C573 1.369 . S
C572 C576 1.531 . S
C573 C572 1.369 . S
C573 C574 1.410 . S
C573 C581 1.503 . S
C574 C573 1.410 . S
C574 C575 1.392 . S
C574 C577 1.511 . S
C575 C571 1.376 . S
C575 C574 1.392 . S
C575 H587 0.929 . S
C576 C572 1.531 . S
C576 H588 0.960 . S
C576 H589 0.962 . S
C576 H590 0.960 . S
C577 C574 1.511 . S
C577 H591 0.961 . S
C577 H592 0.961 . S
C577 H593 0.961 . S
C578 C579 1.370 . S
C578 C580 1.363 . S
C578 H594 0.931 . S
C579 C578 1.370 . S
C579 C583 1.408 . S
C580 C578 1.363 . S
C580 C581 1.370 . S
C580 C584 1.524 . S
C581 C573 1.503 . S
C581 C580 1.370 . S
C581 C582 1.403 . S
C582 C581 1.403 . S
C582 C583 1.404 . S
C582 C585 1.539 . S
C583 C579 1.408 . S
C583 C582 1.404 . S
C583 H595 0.930 . S
C584 C580 1.524 . S
C584 H596 0.956 . S
C584 H597 0.961 . S
C584 H598 0.961 . S
C585 C582 1.539 . S
C585 H599 0.958 . S
C585 H600 0.961 . S
C585 H601 0.960 . S
H586 C570 0.931 . S
H587 C575 0.929 . S
H588 C576 0.960 . S
H589 C576 0.962 . S
H590 C576 0.960 . S
H591 C577 0.961 . S
H592 C577 0.961 . S
H593 C577 0.961 . S
H594 C578 0.931 . S
H595 C583 0.930 . S
H596 C584 0.956 . S
H597 C584 0.961 . S
H598 C584 0.961 . S
H599 C585 0.958 . S
H600 C585 0.961 . S
H601 C585 0.960 . S
C602 C603 1.391 . S
C602 C604 1.394 . S
C602 H618 0.931 . S
C603 C602 1.391 . S
C603 C607 1.376 . S
C604 C602 1.394 . S
C604 C605 1.369 . S
C604 C608 1.531 . S
C605 C604 1.369 . S
C605 C606 1.410 . S
C605 C613 1.503 . S
C606 C605 1.410 . S
C606 C607 1.392 . S
C606 C609 1.511 . S
C607 C603 1.376 . S
C607 C606 1.392 . S
C607 H619 0.929 . S
C608 C604 1.531 . S
C608 H620 0.960 . S
C608 H621 0.962 . S
C608 H622 0.960 . S
C609 C606 1.511 . S
C609 H623 0.961 . S
C609 H624 0.961 . S
C609 H625 0.961 . S
C610 C611 1.370 . S
C610 C612 1.363 . S
C610 H626 0.931 . S
C611 C610 1.370 . S
C611 C615 1.408 . S
C612 C610 1.363 . S
C612 C613 1.370 . S
C612 C616 1.524 . S
C613 C605 1.503 . S
C613 C612 1.370 . S
C613 C614 1.403 . S
C614 C613 1.403 . S
C614 C615 1.404 . S
C614 C617 1.539 . S
C615 C611 1.408 . S
C615 C614 1.404 . S
C615 H627 0.930 . S
C616 C612 1.524 . S
C616 H628 0.956 . S
C616 H629 0.961 . S
C616 H630 0.961 . S
C617 C614 1.539 . S
C617 H631 0.958 . S
C617 H632 0.961 . S
C617 H633 0.960 . S
H618 C602 0.931 . S
H619 C607 0.929 . S
H620 C608 0.960 . S
H621 C608 0.962 . S
H622 C608 0.960 . S
H623 C609 0.961 . S
H624 C609 0.961 . S
H625 C609 0.961 . S
H626 C610 0.931 . S
H627 C615 0.930 . S
H628 C616 0.956 . S
H629 C616 0.961 . S
H630 C616 0.961 . S
H631 C617 0.958 . S
H632 C617 0.961 . S
H633 C617 0.960 . S
C634 C635 1.391 . S
C634 C636 1.394 . S
C634 H650 0.931 . S
C635 C634 1.391 . S
C635 C639 1.376 . S
C636 C634 1.394 . S
C636 C637 1.369 . S
C636 C640 1.531 . S
C637 C636 1.369 . S
C637 C638 1.410 . S
C637 C645 1.503 . S
C638 C637 1.410 . S
C638 C639 1.392 . S
C638 C641 1.511 . S
C639 C635 1.376 . S
C639 C638 1.392 . S
C639 H651 0.929 . S
C640 C636 1.531 . S
C640 H652 0.960 . S
C640 H653 0.962 . S
C640 H654 0.960 . S
C641 C638 1.511 . S
C641 H655 0.961 . S
C641 H656 0.961 . S
C641 H657 0.961 . S
C642 C643 1.370 . S
C642 C644 1.363 . S
C642 H658 0.931 . S
C643 C642 1.370 . S
C643 C647 1.408 . S
C644 C642 1.363 . S
C644 C645 1.370 . S
C644 C648 1.524 . S
C645 C637 1.503 . S
C645 C644 1.370 . S
C645 C646 1.403 . S
C646 C645 1.403 . S
C646 C647 1.404 . S
C646 C649 1.539 . S
C647 C643 1.408 . S
C647 C646 1.404 . S
C647 H659 0.930 . S
C648 C644 1.524 . S
C648 H660 0.956 . S
C648 H661 0.961 . S
C648 H662 0.961 . S
C649 C646 1.539 . S
C649 H663 0.958 . S
C649 H664 0.961 . S
C649 H665 0.960 . S
H650 C634 0.931 . S
H651 C639 0.929 . S
H652 C640 0.960 . S
H653 C640 0.962 . S
H654 C640 0.960 . S
H655 C641 0.961 . S
H656 C641 0.961 . S
H657 C641 0.961 . S
H658 C642 0.931 . S
H659 C647 0.930 . S
H660 C648 0.956 . S
H661 C648 0.961 . S
H662 C648 0.961 . S
H663 C649 0.958 . S
H664 C649 0.961 . S
H665 C649 0.960 . S
C666 C667 1.391 . S
C666 C668 1.394 . S
C666 H682 0.931 . S
C667 C666 1.391 . S
C667 C671 1.376 . S
C668 C666 1.394 . S
C668 C669 1.369 . S
C668 C672 1.531 . S
C669 C668 1.369 . S
C669 C670 1.410 . S
C669 C677 1.503 . S
C670 C669 1.410 . S
C670 C671 1.392 . S
C670 C673 1.511 . S
C671 C667 1.376 . S
C671 C670 1.392 . S
C671 H683 0.929 . S
C672 C668 1.531 . S
C672 H684 0.960 . S
C672 H685 0.962 . S
C672 H686 0.960 . S
C673 C670 1.511 . S
C673 H687 0.961 . S
C673 H688 0.961 . S
C673 H689 0.961 . S
C674 C675 1.370 1_556 S
C674 C676 1.363 . S
C674 H690 0.931 . S
C675 C674 1.370 1_554 S
C675 C679 1.408 . S
C676 C674 1.363 . S
C676 C677 1.370 . S
C676 C680 1.524 . S
C677 C669 1.503 . S
C677 C676 1.370 . S
C677 C678 1.403 . S
C678 C677 1.403 . S
C678 C679 1.404 1_556 S
C678 C681 1.539 . S
C679 C675 1.408 . S
C679 C678 1.404 1_554 S
C679 H691 0.930 . S
C680 C676 1.524 . S
C680 H692 0.956 . S
C680 H693 0.961 . S
C680 H694 0.961 . S
C681 C678 1.539 . S
C681 H695 0.958 . S
C681 H696 0.961 . S
C681 H697 0.960 . S
H682 C666 0.931 . S
H683 C671 0.929 . S
H684 C672 0.960 . S
H685 C672 0.962 . S
H686 C672 0.960 . S
H687 C673 0.961 . S
H688 C673 0.961 . S
H689 C673 0.961 . S
H690 C674 0.931 . S
H691 C679 0.930 . S
H692 C680 0.956 . S
H693 C680 0.961 . S
H694 C680 0.961 . S
H695 C681 0.958 . S
H696 C681 0.961 . S
H697 C681 0.960 . S
C698 C699 1.391 . S
C698 C700 1.394 . S
C698 H714 0.931 . S
C699 C698 1.391 . S
C699 C703 1.376 . S
C700 C698 1.394 . S
C700 C701 1.369 . S
C700 C704 1.531 . S
C701 C700 1.369 . S
C701 C702 1.410 . S
C701 C709 1.503 . S
C702 C701 1.410 . S
C702 C703 1.392 . S
C702 C705 1.511 . S
C703 C699 1.376 . S
C703 C702 1.392 . S
C703 H715 0.929 . S
C704 C700 1.531 . S
C704 H716 0.960 . S
C704 H717 0.962 . S
C704 H718 0.960 . S
C705 C702 1.511 . S
C705 H719 0.961 . S
C705 H720 0.961 . S
C705 H721 0.961 . S
C706 C707 1.370 . S
C706 C708 1.363 . S
C706 H722 0.931 . S
C707 C706 1.370 . S
C707 C711 1.408 . S
C708 C706 1.363 . S
C708 C709 1.370 . S
C708 C712 1.524 . S
C709 C701 1.503 . S
C709 C708 1.370 . S
C709 C710 1.403 . S
C710 C709 1.403 . S
C710 C711 1.404 . S
C710 C713 1.539 . S
C711 C707 1.408 . S
C711 C710 1.404 . S
C711 H723 0.930 . S
C712 C708 1.524 . S
C712 H724 0.956 . S
C712 H725 0.961 . S
C712 H726 0.961 . S
C713 C710 1.539 . S
C713 H727 0.958 . S
C713 H728 0.961 . S
C713 H729 0.960 . S
H714 C698 0.931 . S
H715 C703 0.929 . S
H716 C704 0.960 . S
H717 C704 0.962 . S
H718 C704 0.960 . S
H719 C705 0.961 . S
H720 C705 0.961 . S
H721 C705 0.961 . S
H722 C706 0.931 . S
H723 C711 0.930 . S
H724 C712 0.956 . S
H725 C712 0.961 . S
H726 C712 0.961 . S
H727 C713 0.958 . S
H728 C713 0.961 . S
H729 C713 0.960 . S
C730 C731 1.391 . S
C730 C732 1.394 . S
C730 H746 0.931 . S
C731 C730 1.391 . S
C731 C735 1.376 . S
C732 C730 1.394 . S
C732 C733 1.369 . S
C732 C736 1.531 . S
C733 C732 1.369 . S
C733 C734 1.410 . S
C733 C741 1.503 . S
C734 C733 1.410 . S
C734 C735 1.392 . S
C734 C737 1.511 . S
C735 C731 1.376 . S
C735 C734 1.392 . S
C735 H747 0.929 . S
C736 C732 1.531 . S
C736 H748 0.960 . S
C736 H749 0.962 . S
C736 H750 0.960 . S
C737 C734 1.511 . S
C737 H751 0.961 . S
C737 H752 0.961 . S
C737 H753 0.961 . S
C738 C739 1.370 . S
C738 C740 1.363 . S
C738 H754 0.931 . S
C739 C738 1.370 . S
C739 C743 1.408 . S
C740 C738 1.363 . S
C740 C741 1.370 . S
C740 C744 1.524 . S
C741 C733 1.503 . S
C741 C740 1.370 . S
C741 C742 1.403 . S
C742 C741 1.403 . S
C742 C743 1.404 . S
C742 C745 1.539 . S
C743 C739 1.408 . S
C743 C742 1.404 . S
C743 H755 0.930 . S
C744 C740 1.524 . S
C744 H756 0.956 . S
C744 H757 0.961 . S
C744 H758 0.961 . S
C745 C742 1.539 . S
C745 H759 0.958 . S
C745 H760 0.961 . S
C745 H761 0.960 . S
H746 C730 0.931 . S
H747 C735 0.929 . S
H748 C736 0.960 . S
H749 C736 0.962 . S
H750 C736 0.960 . S
H751 C737 0.961 . S
H752 C737 0.961 . S
H753 C737 0.961 . S
H754 C738 0.931 . S
H755 C743 0.930 . S
H756 C744 0.956 . S
H757 C744 0.961 . S
H758 C744 0.961 . S
H759 C745 0.958 . S
H760 C745 0.961 . S
H761 C745 0.960 . S
C762 C763 1.391 . S
C762 C764 1.394 . S
C762 H778 0.931 . S
C763 C762 1.391 . S
C763 C767 1.376 . S
C764 C762 1.394 . S
C764 C765 1.369 . S
C764 C768 1.531 . S
C765 C764 1.369 . S
C765 C766 1.410 . S
C765 C773 1.503 . S
C766 C765 1.410 . S
C766 C767 1.392 . S
C766 C769 1.511 . S
C767 C763 1.376 . S
C767 C766 1.392 . S
C767 H779 0.929 . S
C768 C764 1.531 . S
C768 H780 0.960 . S
C768 H781 0.962 . S
C768 H782 0.960 . S
C769 C766 1.511 . S
C769 H783 0.961 . S
C769 H784 0.961 . S
C769 H785 0.961 . S
C770 C771 1.370 . S
C770 C772 1.363 . S
C770 H786 0.931 . S
C771 C770 1.370 . S
C771 C775 1.408 . S
C772 C770 1.363 . S
C772 C773 1.370 . S
C772 C776 1.524 . S
C773 C765 1.503 . S
C773 C772 1.370 . S
C773 C774 1.403 . S
C774 C773 1.403 . S
C774 C775 1.404 . S
C774 C777 1.539 . S
C775 C771 1.408 . S
C775 C774 1.404 . S
C775 H787 0.930 . S
C776 C772 1.524 . S
C776 H788 0.956 . S
C776 H789 0.961 . S
C776 H790 0.961 . S
C777 C774 1.539 . S
C777 H791 0.958 . S
C777 H792 0.961 . S
C777 H793 0.960 . S
H778 C762 0.931 . S
H779 C767 0.929 . S
H780 C768 0.960 . S
H781 C768 0.962 . S
H782 C768 0.960 . S
H783 C769 0.961 . S
H784 C769 0.961 . S
H785 C769 0.961 . S
H786 C770 0.931 . S
H787 C775 0.930 . S
H788 C776 0.956 . S
H789 C776 0.961 . S
H790 C776 0.961 . S
H791 C777 0.958 . S
H792 C777 0.961 . S
H793 C777 0.960 . S
C794 C795 1.391 . S
C794 C796 1.394 . S
C794 H810 0.931 . S
C795 C794 1.391 . S
C795 C799 1.376 . S
C796 C794 1.394 . S
C796 C797 1.369 . S
C796 C800 1.531 . S
C797 C796 1.369 . S
C797 C798 1.410 . S
C797 C805 1.503 . S
C798 C797 1.410 . S
C798 C799 1.392 . S
C798 C801 1.511 . S
C799 C795 1.376 . S
C799 C798 1.392 . S
C799 H811 0.929 . S
C800 C796 1.531 . S
C800 H812 0.960 . S
C800 H813 0.962 . S
C800 H814 0.960 . S
C801 C798 1.511 . S
C801 H815 0.961 . S
C801 H816 0.961 . S
C801 H817 0.961 . S
C802 C803 1.370 . S
C802 C804 1.363 . S
C802 H818 0.931 . S
C803 C802 1.370 . S
C803 C807 1.408 . S
C804 C802 1.363 . S
C804 C805 1.370 . S
C804 C808 1.524 . S
C805 C797 1.503 . S
C805 C804 1.370 . S
C805 C806 1.403 . S
C806 C805 1.403 . S
C806 C807 1.404 . S
C806 C809 1.539 . S
C807 C803 1.408 . S
C807 C806 1.404 . S
C807 H819 0.930 . S
C808 C804 1.524 . S
C808 H820 0.956 . S
C808 H821 0.961 . S
C808 H822 0.961 . S
C809 C806 1.539 . S
C809 H823 0.958 . S
C809 H824 0.961 . S
C809 H825 0.960 . S
H810 C794 0.931 . S
H811 C799 0.929 . S
H812 C800 0.960 . S
H813 C800 0.962 . S
H814 C800 0.960 . S
H815 C801 0.961 . S
H816 C801 0.961 . S
H817 C801 0.961 . S
H818 C802 0.931 . S
H819 C807 0.930 . S
H820 C808 0.956 . S
H821 C808 0.961 . S
H822 C808 0.961 . S
H823 C809 0.958 . S
H824 C809 0.961 . S
H825 C809 0.960 . S
C826 C827 1.391 . S
C826 C828 1.394 . S
C826 H842 0.931 . S
C827 C826 1.391 . S
C827 C831 1.376 . S
C828 C826 1.394 . S
C828 C829 1.369 . S
C828 C832 1.531 . S
C829 C828 1.369 . S
C829 C830 1.410 . S
C829 C837 1.503 . S
C830 C829 1.410 . S
C830 C831 1.392 . S
C830 C833 1.511 . S
C831 C827 1.376 . S
C831 C830 1.392 . S
C831 H843 0.929 . S
C832 C828 1.531 . S
C832 H844 0.960 . S
C832 H845 0.962 . S
C832 H846 0.960 . S
C833 C830 1.511 . S
C833 H847 0.961 . S
C833 H848 0.961 . S
C833 H849 0.961 . S
C834 C835 1.370 . S
C834 C836 1.363 . S
C834 H850 0.931 . S
C835 C834 1.370 . S
C835 C839 1.408 . S
C836 C834 1.363 . S
C836 C837 1.370 . S
C836 C840 1.524 . S
C837 C829 1.503 . S
C837 C836 1.370 . S
C837 C838 1.403 . S
C838 C837 1.403 . S
C838 C839 1.404 . S
C838 C841 1.539 . S
C839 C835 1.408 . S
C839 C838 1.404 . S
C839 H851 0.930 . S
C840 C836 1.524 . S
C840 H852 0.956 . S
C840 H853 0.961 . S
C840 H854 0.961 . S
C841 C838 1.539 . S
C841 H855 0.958 . S
C841 H856 0.961 . S
C841 H857 0.960 . S
H842 C826 0.931 . S
H843 C831 0.929 . S
H844 C832 0.960 . S
H845 C832 0.962 . S
H846 C832 0.960 . S
H847 C833 0.961 . S
H848 C833 0.961 . S
H849 C833 0.961 . S
H850 C834 0.931 . S
H851 C839 0.930 . S
H852 C840 0.956 . S
H853 C840 0.961 . S
H854 C840 0.961 . S
H855 C841 0.958 . S
H856 C841 0.961 . S
H857 C841 0.960 . S
C858 C859 1.391 . S
C858 C860 1.394 . S
C858 H874 0.931 . S
C859 C858 1.391 . S
C859 C863 1.376 . S
C860 C858 1.394 . S
C860 C861 1.369 . S
C860 C864 1.531 . S
C861 C860 1.369 . S
C861 C862 1.410 . S
C861 C869 1.503 . S
C862 C861 1.410 . S
C862 C863 1.392 . S
C862 C865 1.511 . S
C863 C859 1.376 . S
C863 C862 1.392 . S
C863 H875 0.929 . S
C864 C860 1.531 . S
C864 H876 0.960 . S
C864 H877 0.962 . S
C864 H878 0.960 . S
C865 C862 1.511 . S
C865 H879 0.961 . S
C865 H880 0.961 . S
C865 H881 0.961 . S
C866 C867 1.370 . S
C866 C868 1.363 . S
C866 H882 0.931 . S
C867 C866 1.370 . S
C867 C871 1.408 . S
C868 C866 1.363 . S
C868 C869 1.370 . S
C868 C872 1.524 . S
C869 C861 1.503 . S
C869 C868 1.370 . S
C869 C870 1.403 . S
C870 C869 1.403 . S
C870 C871 1.404 . S
C870 C873 1.539 . S
C871 C867 1.408 . S
C871 C870 1.404 . S
C871 H883 0.930 . S
C872 C868 1.524 . S
C872 H884 0.956 . S
C872 H885 0.961 . S
C872 H886 0.961 . S
C873 C870 1.539 . S
C873 H887 0.958 . S
C873 H888 0.961 . S
C873 H889 0.960 . S
H874 C858 0.931 . S
H875 C863 0.929 . S
H876 C864 0.960 . S
H877 C864 0.962 . S
H878 C864 0.960 . S
H879 C865 0.961 . S
H880 C865 0.961 . S
H881 C865 0.961 . S
H882 C866 0.931 . S
H883 C871 0.930 . S
H884 C872 0.956 . S
H885 C872 0.961 . S
H886 C872 0.961 . S
H887 C873 0.958 . S
H888 C873 0.961 . S
H889 C873 0.960 . S
C890 C891 1.391 . S
C890 C892 1.394 . S
C890 H906 0.931 . S
C891 C890 1.391 . S
C891 C895 1.376 . S
C892 C890 1.394 . S
C892 C893 1.369 . S
C892 C896 1.531 . S
C893 C892 1.369 . S
C893 C894 1.410 . S
C893 C901 1.503 . S
C894 C893 1.410 . S
C894 C895 1.392 . S
C894 C897 1.511 . S
C895 C891 1.376 . S
C895 C894 1.392 . S
C895 H907 0.929 . S
C896 C892 1.531 . S
C896 H908 0.960 1_554 S
C896 H909 0.962 . S
C896 H910 0.960 . S
C897 C894 1.511 . S
C897 H911 0.961 . S
C897 H912 0.961 . S
C897 H913 0.961 . S
C898 C899 1.370 . S
C898 C900 1.363 1_556 S
C898 H914 0.931 . S
C899 C898 1.370 . S
C899 C903 1.408 . S
C900 C898 1.363 1_554 S
C900 C901 1.370 . S
C900 C904 1.524 . S
C901 C893 1.503 . S
C901 C900 1.370 . S
C901 C902 1.403 . S
C902 C901 1.403 . S
C902 C903 1.404 1_554 S
C902 C905 1.539 . S
C903 C899 1.408 . S
C903 C902 1.404 1_556 S
C903 H915 0.930 . S
C904 C900 1.524 . S
C904 H916 0.956 . S
C904 H917 0.961 . S
C904 H918 0.961 . S
C905 C902 1.539 . S
C905 H919 0.958 . S
C905 H920 0.961 . S
C905 H921 0.960 . S
H906 C890 0.931 . S
H907 C895 0.929 . S
H908 C896 0.960 1_556 S
H909 C896 0.962 . S
H910 C896 0.960 . S
H911 C897 0.961 . S
H912 C897 0.961 . S
H913 C897 0.961 . S
H914 C898 0.931 . S
H915 C903 0.930 . S
H916 C904 0.956 . S
H917 C904 0.961 . S
H918 C904 0.961 . S
H919 C905 0.958 . S
H920 C905 0.961 . S
H921 C905 0.960 . S
C922 C923 1.391 . S
C922 C924 1.394 . S
C922 H938 0.931 . S
C923 C922 1.391 . S
C923 C927 1.376 . S
C924 C922 1.394 . S
C924 C925 1.369 . S
C924 C928 1.531 . S
C925 C924 1.369 . S
C925 C926 1.410 . S
C925 C933 1.503 . S
C926 C925 1.410 . S
C926 C927 1.392 . S
C926 C929 1.511 . S
C927 C923 1.376 . S
C927 C926 1.392 . S
C927 H939 0.929 . S
C928 C924 1.531 . S
C928 H940 0.960 . S
C928 H941 0.962 . S
C928 H942 0.960 . S
C929 C926 1.511 . S
C929 H943 0.961 . S
C929 H944 0.961 . S
C929 H945 0.961 . S
C930 C931 1.370 . S
C930 C932 1.363 . S
C930 H946 0.931 . S
C931 C930 1.370 . S
C931 C935 1.408 . S
C932 C930 1.363 . S
C932 C933 1.370 . S
C932 C936 1.524 . S
C933 C925 1.503 . S
C933 C932 1.370 . S
C933 C934 1.403 . S
C934 C933 1.403 . S
C934 C935 1.404 . S
C934 C937 1.539 . S
C935 C931 1.408 . S
C935 C934 1.404 . S
C935 H947 0.930 . S
C936 C932 1.524 . S
C936 H948 0.956 . S
C936 H949 0.961 . S
C936 H950 0.961 . S
C937 C934 1.539 . S
C937 H951 0.958 . S
C937 H952 0.961 . S
C937 H953 0.960 . S
H938 C922 0.931 . S
H939 C927 0.929 . S
H940 C928 0.960 . S
H941 C928 0.962 . S
H942 C928 0.960 . S
H943 C929 0.961 . S
H944 C929 0.961 . S
H945 C929 0.961 . S
H946 C930 0.931 . S
H947 C935 0.930 . S
H948 C936 0.956 . S
H949 C936 0.961 . S
H950 C936 0.961 . S
H951 C937 0.958 . S
H952 C937 0.961 . S
H953 C937 0.960 . S
C195 C178 1.602 . S
C187 C8 1.582 . S
C219 C26 1.535 . S
C227 C113 1.608 . S
C251 C50 1.539 . S
C259 C131 1.611 . S
C283 C68 1.526 . S
C291 C144 1.594 . S
C323 C152 1.605 . S
C315 C80 1.582 . S
C347 C104 1.581 . S
C355 C164 1.604 . S
C379 C32 1.540 . S
C387 C126 1.616 . S
C411 C44 1.538 . S
C419 C139 1.606 . S
C443 C62 1.535 . S
C451 C157 1.601 . S
C483 C163 1.612 . S
C475 C86 1.541 1_554 S
C515 C183 1.591 . S
C507 C98 1.529 . S
C547 C118 1.600 . S
C539 C14 1.546 . S
C571 C7 1.508 . S
C579 C124 1.588 . S
C603 C25 1.562 . S
C611 C137 1.586 . S
C643 C151 1.582 . S
C635 C52 1.527 . S
C667 C70 1.555 . S
C675 C165 1.591 . S
C707 C177 1.579 . S
C699 C79 1.550 . S
C739 C112 1.581 . S
C731 C106 1.554 . S
C771 C176 1.585 . S
C763 C34 1.544 . S
C795 C43 1.547 . S
C803 C111 1.584 . S
C835 C125 1.585 . S
C827 C61 1.554 . S
C859 C88 1.555 . S
C867 C138 1.578 . S
C891 C97 1.541 . S
C899 C150 1.588 . S
C923 C16 1.513 . S
C931 C170 1.586 . S
