# Generated by pormake.
# Topology bwt, (3,3)-cn, num edge types: 1
# Building blocks:
#     Node 0, Type 0, BuildingBlock: OLANEW_clean_sbu_2, # of connection points: 3
#     Node 1, Type 0, BuildingBlock: OLANEW_clean_sbu_2, # of connection points: 3
#     Node 2, Type 0, BuildingBlock: OLANEW_clean_sbu_2, # of connection points: 3
#     Node 3, Type 0, BuildingBlock: OLANEW_clean_sbu_2, # of connection points: 3
#     Node 4, Type 0, BuildingBlock: OLANEW_clean_sbu_2, # of connection points: 3
#     Node 5, Type 0, BuildingBlock: OLANEW_clean_sbu_2, # of connection points: 3
#     Node 6, Type 0, BuildingBlock: OLANEW_clean_sbu_2, # of connection points: 3
#     Node 7, Type 0, BuildingBlock: OLANEW_clean_sbu_2, # of connection points: 3
#     Node 8, Type 0, BuildingBlock: OLANEW_clean_sbu_2, # of connection points: 3
#     Node 9, Type 0, BuildingBlock: OLANEW_clean_sbu_2, # of connection points: 3
#     Node 10, Type 0, BuildingBlock: OLANEW_clean_sbu_2, # of connection points: 3
#     Node 11, Type 0, BuildingBlock: OLANEW_clean_sbu_2, # of connection points: 3
#     Node 12, Type 0, BuildingBlock: OLANEW_clean_sbu_2, # of connection points: 3
#     Node 13, Type 0, BuildingBlock: OLANEW_clean_sbu_2, # of connection points: 3
#     Node 14, Type 0, BuildingBlock: OLANEW_clean_sbu_2, # of connection points: 3
#     Node 15, Type 0, BuildingBlock: OLANEW_clean_sbu_2, # of connection points: 3
#     Node 16, Type 0, BuildingBlock: OLANEW_clean_sbu_2, # of connection points: 3
#     Node 17, Type 0, BuildingBlock: OLANEW_clean_sbu_2, # of connection points: 3
#     Node 18, Type 0, BuildingBlock: OLANEW_clean_sbu_2, # of connection points: 3
#     Node 19, Type 0, BuildingBlock: OLANEW_clean_sbu_2, # of connection points: 3
#     Node 20, Type 0, BuildingBlock: OLANEW_clean_sbu_2, # of connection points: 3
#     Node 21, Type 0, BuildingBlock: OLANEW_clean_sbu_2, # of connection points: 3
#     Node 22, Type 0, BuildingBlock: OLANEW_clean_sbu_2, # of connection points: 3
#     Node 23, Type 0, BuildingBlock: OLANEW_clean_sbu_2, # of connection points: 3
#     Node 24, Type 1, BuildingBlock: ESEHIV_clean_linker_0, # of connection points: 3
#     Node 25, Type 1, BuildingBlock: ESEHIV_clean_linker_0, # of connection points: 3
#     Node 26, Type 1, BuildingBlock: ESEHIV_clean_linker_0, # of connection points: 3
#     Node 27, Type 1, BuildingBlock: ESEHIV_clean_linker_0, # of connection points: 3
#     Node 28, Type 1, BuildingBlock: ESEHIV_clean_linker_0, # of connection points: 3
#     Node 29, Type 1, BuildingBlock: ESEHIV_clean_linker_0, # of connection points: 3
#     Node 30, Type 1, BuildingBlock: ESEHIV_clean_linker_0, # of connection points: 3
#     Node 31, Type 1, BuildingBlock: ESEHIV_clean_linker_0, # of connection points: 3
#     Node 32, Type 1, BuildingBlock: ESEHIV_clean_linker_0, # of connection points: 3
#     Node 33, Type 1, BuildingBlock: ESEHIV_clean_linker_0, # of connection points: 3
#     Node 34, Type 1, BuildingBlock: ESEHIV_clean_linker_0, # of connection points: 3
#     Node 35, Type 1, BuildingBlock: ESEHIV_clean_linker_0, # of connection points: 3
#     Node 36, Type 1, BuildingBlock: ESEHIV_clean_linker_0, # of connection points: 3
#     Node 37, Type 1, BuildingBlock: ESEHIV_clean_linker_0, # of connection points: 3
#     Node 38, Type 1, BuildingBlock: ESEHIV_clean_linker_0, # of connection points: 3
#     Node 39, Type 1, BuildingBlock: ESEHIV_clean_linker_0, # of connection points: 3
#     Node 40, Type 1, BuildingBlock: ESEHIV_clean_linker_0, # of connection points: 3
#     Node 41, Type 1, BuildingBlock: ESEHIV_clean_linker_0, # of connection points: 3
#     Node 42, Type 1, BuildingBlock: ESEHIV_clean_linker_0, # of connection points: 3
#     Node 43, Type 1, BuildingBlock: ESEHIV_clean_linker_0, # of connection points: 3
#     Node 44, Type 1, BuildingBlock: ESEHIV_clean_linker_0, # of connection points: 3
#     Node 45, Type 1, BuildingBlock: ESEHIV_clean_linker_0, # of connection points: 3
#     Node 46, Type 1, BuildingBlock: ESEHIV_clean_linker_0, # of connection points: 3
#     Node 47, Type 1, BuildingBlock: ESEHIV_clean_linker_0, # of connection points: 3
#     Edge 48, Type (0, 1), BuildingBlock: KIFKEQ_clean_linker_1, # of connection points: 2
#     Edge 49, Type (0, 1), BuildingBlock: KIFKEQ_clean_linker_1, # of connection points: 2
#     Edge 50, Type (0, 1), BuildingBlock: KIFKEQ_clean_linker_1, # of connection points: 2
#     Edge 51, Type (0, 1), BuildingBlock: KIFKEQ_clean_linker_1, # of connection points: 2
#     Edge 52, Type (0, 1), BuildingBlock: KIFKEQ_clean_linker_1, # of connection points: 2
#     Edge 53, Type (0, 1), BuildingBlock: KIFKEQ_clean_linker_1, # of connection points: 2
#     Edge 54, Type (0, 1), BuildingBlock: KIFKEQ_clean_linker_1, # of connection points: 2
#     Edge 55, Type (0, 1), BuildingBlock: KIFKEQ_clean_linker_1, # of connection points: 2
#     Edge 56, Type (0, 1), BuildingBlock: KIFKEQ_clean_linker_1, # of connection points: 2
#     Edge 57, Type (0, 1), BuildingBlock: KIFKEQ_clean_linker_1, # of connection points: 2
#     Edge 58, Type (0, 1), BuildingBlock: KIFKEQ_clean_linker_1, # of connection points: 2
#     Edge 59, Type (0, 1), BuildingBlock: KIFKEQ_clean_linker_1, # of connection points: 2
#     Edge 60, Type (0, 1), BuildingBlock: KIFKEQ_clean_linker_1, # of connection points: 2
#     Edge 61, Type (0, 1), BuildingBlock: KIFKEQ_clean_linker_1, # of connection points: 2
#     Edge 62, Type (0, 1), BuildingBlock: KIFKEQ_clean_linker_1, # of connection points: 2
#     Edge 63, Type (0, 1), BuildingBlock: KIFKEQ_clean_linker_1, # of connection points: 2
#     Edge 64, Type (0, 1), BuildingBlock: KIFKEQ_clean_linker_1, # of connection points: 2
#     Edge 65, Type (0, 1), BuildingBlock: KIFKEQ_clean_linker_1, # of connection points: 2
#     Edge 66, Type (0, 1), BuildingBlock: KIFKEQ_clean_linker_1, # of connection points: 2
#     Edge 67, Type (0, 1), BuildingBlock: KIFKEQ_clean_linker_1, # of connection points: 2
#     Edge 68, Type (0, 1), BuildingBlock: KIFKEQ_clean_linker_1, # of connection points: 2
#     Edge 69, Type (0, 1), BuildingBlock: KIFKEQ_clean_linker_1, # of connection points: 2
#     Edge 70, Type (0, 1), BuildingBlock: KIFKEQ_clean_linker_1, # of connection points: 2
#     Edge 71, Type (0, 1), BuildingBlock: KIFKEQ_clean_linker_1, # of connection points: 2
#     Edge 72, Type (0, 1), BuildingBlock: KIFKEQ_clean_linker_1, # of connection points: 2
#     Edge 73, Type (0, 1), BuildingBlock: KIFKEQ_clean_linker_1, # of connection points: 2
#     Edge 74, Type (0, 1), BuildingBlock: KIFKEQ_clean_linker_1, # of connection points: 2
#     Edge 75, Type (0, 1), BuildingBlock: KIFKEQ_clean_linker_1, # of connection points: 2
#     Edge 76, Type (0, 1), BuildingBlock: KIFKEQ_clean_linker_1, # of connection points: 2
#     Edge 77, Type (0, 1), BuildingBlock: KIFKEQ_clean_linker_1, # of connection points: 2
#     Edge 78, Type (0, 1), BuildingBlock: KIFKEQ_clean_linker_1, # of connection points: 2
#     Edge 79, Type (0, 1), BuildingBlock: KIFKEQ_clean_linker_1, # of connection points: 2
#     Edge 80, Type (0, 1), BuildingBlock: KIFKEQ_clean_linker_1, # of connection points: 2
#     Edge 81, Type (0, 1), BuildingBlock: KIFKEQ_clean_linker_1, # of connection points: 2
#     Edge 82, Type (0, 1), BuildingBlock: KIFKEQ_clean_linker_1, # of connection points: 2
#     Edge 83, Type (0, 1), BuildingBlock: KIFKEQ_clean_linker_1, # of connection points: 2
#     Edge 84, Type (0, 1), BuildingBlock: KIFKEQ_clean_linker_1, # of connection points: 2
#     Edge 85, Type (0, 1), BuildingBlock: KIFKEQ_clean_linker_1, # of connection points: 2
#     Edge 86, Type (0, 1), BuildingBlock: KIFKEQ_clean_linker_1, # of connection points: 2
#     Edge 87, Type (0, 1), BuildingBlock: KIFKEQ_clean_linker_1, # of connection points: 2
#     Edge 88, Type (0, 1), BuildingBlock: KIFKEQ_clean_linker_1, # of connection points: 2
#     Edge 89, Type (0, 1), BuildingBlock: KIFKEQ_clean_linker_1, # of connection points: 2
#     Edge 90, Type (0, 1), BuildingBlock: KIFKEQ_clean_linker_1, # of connection points: 2
#     Edge 91, Type (0, 1), BuildingBlock: KIFKEQ_clean_linker_1, # of connection points: 2
#     Edge 92, Type (0, 1), BuildingBlock: KIFKEQ_clean_linker_1, # of connection points: 2
#     Edge 93, Type (0, 1), BuildingBlock: KIFKEQ_clean_linker_1, # of connection points: 2
#     Edge 94, Type (0, 1), BuildingBlock: KIFKEQ_clean_linker_1, # of connection points: 2
#     Edge 95, Type (0, 1), BuildingBlock: KIFKEQ_clean_linker_1, # of connection points: 2
#     Edge 96, Type (0, 1), BuildingBlock: KIFKEQ_clean_linker_1, # of connection points: 2
#     Edge 97, Type (0, 1), BuildingBlock: KIFKEQ_clean_linker_1, # of connection points: 2
#     Edge 98, Type (0, 1), BuildingBlock: KIFKEQ_clean_linker_1, # of connection points: 2
#     Edge 99, Type (0, 1), BuildingBlock: KIFKEQ_clean_linker_1, # of connection points: 2
#     Edge 100, Type (0, 1), BuildingBlock: KIFKEQ_clean_linker_1, # of connection points: 2
#     Edge 101, Type (0, 1), BuildingBlock: KIFKEQ_clean_linker_1, # of connection points: 2
#     Edge 102, Type (0, 1), BuildingBlock: KIFKEQ_clean_linker_1, # of connection points: 2
#     Edge 103, Type (0, 1), BuildingBlock: KIFKEQ_clean_linker_1, # of connection points: 2
#     Edge 104, Type (0, 1), BuildingBlock: KIFKEQ_clean_linker_1, # of connection points: 2
#     Edge 105, Type (0, 1), BuildingBlock: KIFKEQ_clean_linker_1, # of connection points: 2
#     Edge 106, Type (0, 1), BuildingBlock: KIFKEQ_clean_linker_1, # of connection points: 2
#     Edge 107, Type (0, 1), BuildingBlock: KIFKEQ_clean_linker_1, # of connection points: 2
#     Edge 108, Type (0, 1), BuildingBlock: KIFKEQ_clean_linker_1, # of connection points: 2
#     Edge 109, Type (0, 1), BuildingBlock: KIFKEQ_clean_linker_1, # of connection points: 2
#     Edge 110, Type (0, 1), BuildingBlock: KIFKEQ_clean_linker_1, # of connection points: 2
#     Edge 111, Type (0, 1), BuildingBlock: KIFKEQ_clean_linker_1, # of connection points: 2
#     Edge 112, Type (0, 1), BuildingBlock: KIFKEQ_clean_linker_1, # of connection points: 2
#     Edge 113, Type (0, 1), BuildingBlock: KIFKEQ_clean_linker_1, # of connection points: 2
#     Edge 114, Type (0, 1), BuildingBlock: KIFKEQ_clean_linker_1, # of connection points: 2
#     Edge 115, Type (0, 1), BuildingBlock: KIFKEQ_clean_linker_1, # of connection points: 2
#     Edge 116, Type (0, 1), BuildingBlock: KIFKEQ_clean_linker_1, # of connection points: 2
#     Edge 117, Type (0, 1), BuildingBlock: KIFKEQ_clean_linker_1, # of connection points: 2
#     Edge 118, Type (0, 1), BuildingBlock: KIFKEQ_clean_linker_1, # of connection points: 2
#     Edge 119, Type (0, 1), BuildingBlock: KIFKEQ_clean_linker_1, # of connection points: 2
# Relax obj value: 0.143
# Max RMSD: 0.141
# Mean RMSD: 0.092
data_MOF--net-bwt--node1-OLANEW_clean_sbu_2--node2-ESEHIV_clean_linker_0--edge1-KIFKEQ_clean_linker_1
_symmetry_space_group_name_H-M    P1
_symmetry_Int_Tables_number       1
_symmetry_cell_setting            triclinic
loop_
_symmetry_equiv_pos_as_xyz
'x, y, z'
_cell_length_a     56.481067
_cell_length_b     56.506052
_cell_length_c     56.411796
_cell_angle_alpha  93.580827
_cell_angle_beta   93.644378
_cell_angle_gamma 93.61485
loop_
_atom_site_label
_atom_site_type_symbol
_atom_site_fract_x
_atom_site_fract_y
_atom_site_fract_z
_atom_type_partial_charge
O0 O 0.27814 0.56179 0.32142 0.0
Cd1 Cd 0.278 0.57503 0.28093 0.0
O2 O 0.28972 0.59794 0.33596 0.0
Cd3 Cd 0.30476 0.60659 0.3027 0.0
O4 O 0.33857 0.60139 0.28715 0.0
C5 C 0.34437 0.5801 0.2841 0.0
O6 O 0.32892 0.5627 0.28819 0.0
C7 C 0.28192 0.57686 0.33919 0.0
C8 C 0.23124 0.57086 0.26149 0.0
O9 O 0.24591 0.55541 0.25581 0.0
O10 O 0.2388 0.58859 0.27583 0.0
O11 O 0.23056 0.37097 0.73122 0.0
Cd12 Cd 0.22547 0.35465 0.69011 0.0
O13 O 0.20327 0.39677 0.72659 0.0
Cd14 Cd 0.18536 0.38044 0.69363 0.0
O15 O 0.14757 0.37696 0.68206 0.0
C16 C 0.13415 0.37095 0.69823 0.0
O17 O 0.14407 0.36555 0.71873 0.0
C18 C 0.22012 0.38881 0.73911 0.0
C19 C 0.26554 0.37382 0.67009 0.0
O20 O 0.24607 0.38433 0.66948 0.0
O21 O 0.26563 0.35346 0.67889 0.0
O22 O 0.75802 0.9809 0.6733 0.0
Cd23 Cd 0.76599 0.98379 0.71648 0.0
O24 O 0.77255 0.94596 0.66793 0.0
Cd25 Cd 0.79313 0.95134 0.70214 0.0
O26 O 0.82853 0.96677 0.71464 0.0
C27 C 0.83949 0.97581 0.69802 0.0
O28 O 0.82862 0.97501 0.67665 0.0
C29 C 0.76125 0.96275 0.65972 0.0
C30 C 0.72728 0.00445 0.73563 0.0
O31 O 0.74597 0.01708 0.73128 0.0
O32 O 0.72722 0.98186 0.73172 0.0
O33 O 0.75555 0.01649 0.27876 0.0
Cd34 Cd 0.75759 0.00918 0.32102 0.0
O35 O 0.71667 0.01827 0.27564 0.0
Cd36 Cd 0.70768 0.00952 0.31126 0.0
O37 O 0.67203 0.99589 0.31875 0.0
C38 C 0.65942 0.99026 0.29951 0.0
O39 O 0.66926 0.9926 0.27921 0.0
C40 C 0.73656 0.01944 0.26631 0.0
C41 C 0.8 0.98815 0.3315 0.0
O42 O 0.78069 0.97547 0.32545 0.0
O43 O 0.79909 0.01079 0.33326 0.0
O44 O 0.32095 0.27652 0.56603 0.0
Cd45 Cd 0.27965 0.27318 0.57673 0.0
O46 O 0.33401 0.29075 0.60195 0.0
Cd47 Cd 0.29867 0.3005 0.61041 0.0
O48 O 0.28004 0.33258 0.6052 0.0
C49 C 0.27678 0.33827 0.58384 0.0
O50 O 0.28248 0.32349 0.56653 0.0
C51 C 0.33821 0.28294 0.58111 0.0
C52 C 0.26228 0.22585 0.56967 0.0
O53 O 0.2598 0.24035 0.55324 0.0
O54 O 0.2726 0.23387 0.58972 0.0
O55 O 0.28796 0.75338 0.02095 0.0
Cd56 Cd 0.32948 0.75586 0.01116 0.0
O57 O 0.28495 0.71454 0.02312 0.0
Cd58 Cd 0.3197 0.70509 0.01216 0.0
O59 O 0.3245 0.66931 0.99687 0.0
C60 C 0.30451 0.65839 0.9905 0.0
O61 O 0.28517 0.66983 0.99289 0.0
C62 C 0.27577 0.73449 0.02474 0.0
C63 C 0.33804 0.79886 0.99047 0.0
O64 O 0.33175 0.77972 0.97762 0.0
O65 O 0.34098 0.79751 0.01305 0.0
O66 O 0.73722 0.23391 0.38093 0.0
Cd67 Cd 0.69732 0.22807 0.36138 0.0
O68 O 0.72955 0.21032 0.40952 0.0
Cd69 Cd 0.69695 0.19222 0.3927 0.0
O70 O 0.68638 0.15427 0.39091 0.0
C71 C 0.70354 0.14127 0.38734 0.0
O72 O 0.72427 0.1516 0.38331 0.0
C73 C 0.74339 0.22541 0.40055 0.0
C74 C 0.67796 0.27176 0.36911 0.0
O75 O 0.67573 0.25551 0.38383 0.0
O76 O 0.68824 0.26688 0.34997 0.0
O77 O 0.66201 0.75366 0.9833 0.0
Cd78 Cd 0.70461 0.76512 0.98575 0.0
O79 O 0.65623 0.76504 0.94696 0.0
Cd80 Cd 0.68959 0.78706 0.95089 0.0
O81 O 0.70469 0.82207 0.96497 0.0
C82 C 0.68919 0.835 0.97339 0.0
O83 O 0.66703 0.8262 0.9727 0.0
C84 C 0.64846 0.75467 0.96456 0.0
C85 C 0.72882 0.72665 0.0008 0.0
O86 O 0.72348 0.74323 0.01569 0.0
O87 O 0.72326 0.72857 0.97866 0.0
O88 O 0.58231 0.32469 0.2835 0.0
Cd89 Cd 0.59418 0.2838 0.28048 0.0
O90 O 0.61676 0.33951 0.30002 0.0
Cd91 Cd 0.62491 0.30469 0.3117 0.0
O92 O 0.61664 0.28681 0.34362 0.0
C93 C 0.59477 0.2847 0.34775 0.0
O94 O 0.57895 0.29098 0.33164 0.0
C95 C 0.59626 0.34262 0.29055 0.0
C96 C 0.5808 0.26598 0.23404 0.0
O97 O 0.56682 0.26358 0.25089 0.0
O98 O 0.60161 0.27603 0.23933 0.0
O99 O 0.00872 0.27995 0.74376 0.0
Cd100 Cd 0.00287 0.32247 0.74695 0.0
O101 O 0.04355 0.2836 0.7286 0.0
Cd102 Cd 0.03559 0.31822 0.71597 0.0
O103 O 0.01787 0.32464 0.68156 0.0
C104 C 0.00527 0.30632 0.6729 0.0
O105 O 0.00373 0.28766 0.68565 0.0
C106 C 0.0275 0.27076 0.73746 0.0
C107 C 0.98419 0.3321 0.7909 0.0
O108 O 0.97056 0.32729 0.77194 0.0
O109 O 0.00671 0.33318 0.78895 0.0
O110 O 0.41731 0.71595 0.23886 0.0
Cd111 Cd 0.40477 0.67376 0.23386 0.0
O112 O 0.38815 0.72846 0.21611 0.0
Cd113 Cd 0.38089 0.69467 0.19509 0.0
O114 O 0.38282 0.68235 0.15769 0.0
C115 C 0.37905 0.69823 0.14313 0.0
O116 O 0.37333 0.71916 0.15156 0.0
C117 C 0.40574 0.73284 0.2313 0.0
C118 C 0.40868 0.6579 0.2798 0.0
O119 O 0.42586 0.65672 0.26607 0.0
O120 O 0.38918 0.66555 0.27143 0.0
O121 O 0.9817 0.6608 0.75698 0.0
Cd122 Cd 0.9833 0.7038 0.76569 0.0
O123 O 0.9489 0.65414 0.77525 0.0
Cd124 Cd 0.95307 0.68848 0.79563 0.0
O125 O 0.96453 0.70604 0.83048 0.0
C126 C 0.9861 0.7138 0.83463 0.0
O127 O 0.00041 0.7129 0.81716 0.0
C128 C 0.96466 0.64663 0.76206 0.0
C129 C -0.0002 0.72569 0.72631 0.0
O130 O 0.01404 0.72159 0.74397 0.0
O131 O 0.97761 0.71996 0.72751 0.0
O132 O 0.70704 0.39256 0.65464 0.0
Cd133 Cd 0.7105 0.37731 0.69416 0.0
O134 O 0.68499 0.4217 0.66526 0.0
Cd135 Cd 0.67403 0.40883 0.69875 0.0
O136 O 0.63636 0.41318 0.70311 0.0
C137 C 0.62405 0.4113 0.68331 0.0
O138 O 0.63457 0.40534 0.6639 0.0
C139 C 0.6968 0.41124 0.64982 0.0
C140 C 0.75866 0.3827 0.70908 0.0
O141 O 0.74976 0.36343 0.69787 0.0
O142 O 0.74459 0.39897 0.71401 0.0
O143 O 0.76791 0.6403 0.29545 0.0
Cd144 Cd 0.76077 0.65318 0.33628 0.0
O145 O 0.79546 0.61688 0.30685 0.0
Cd146 Cd 0.82332 0.59311 0.29859 0.0
O147 O 0.85349 0.57514 0.28555 0.0
C148 C 0.86985 0.58759 0.27674 0.0
O149 O 0.86791 0.61058 0.27588 0.0
C150 C 0.78255 0.62492 0.29031 0.0
C151 C 0.71438 0.63659 0.34284 0.0
O152 O 0.71884 0.65766 0.33636 0.0
O153 O 0.73196 0.62388 0.34719 0.0
O154 O 0.25651 0.07494 0.302 0.0
Cd155 Cd 0.27015 0.08082 0.26251 0.0
O156 O 0.23228 0.0451 0.28694 0.0
Cd157 Cd 0.20389 0.01783 0.291 0.0
O158 O 0.17195 0.9973 0.29965 0.0
C159 C 0.15499 0.00857 0.30751 0.0
O160 O 0.15743 0.03189 0.31007 0.0
C161 C 0.24145 0.05788 0.30494 0.0
C162 C 0.30932 0.05377 0.25793 0.0
O163 O 0.31198 0.07568 0.26559 0.0
O164 O 0.28822 0.04498 0.25162 0.0
O165 O 0.26157 0.9597 0.69513 0.0
Cd166 Cd 0.24124 0.96223 0.65596 0.0
O167 O 0.2876 0.9889 0.68903 0.0
Cd168 Cd 0.3193 0.01231 0.70035 0.0
O169 O 0.35343 0.03058 0.71329 0.0
C170 C 0.37035 0.018 0.71952 0.0
O171 O 0.36655 0.99476 0.71811 0.0
C172 C 0.27919 0.97385 0.70268 0.0
C173 C 0.19768 0.98169 0.66225 0.0
O174 O 0.19933 0.95913 0.66118 0.0
O175 O 0.2165 0.99495 0.65978 0.0
O176 O 0.66238 0.71277 0.38907 0.0
Cd177 Cd 0.69918 0.71928 0.36928 0.0
O178 O 0.68183 0.70734 0.42314 0.0
Cd179 Cd 0.71373 0.69785 0.40601 0.0
O180 O 0.71865 0.65981 0.40308 0.0
C181 C 0.69888 0.64753 0.40138 0.0
O182 O 0.67918 0.65865 0.39961 0.0
C183 C 0.66243 0.71022 0.41131 0.0
C184 C 0.71333 0.76721 0.37867 0.0
O185 O 0.70051 0.76004 0.35971 0.0
O186 O 0.72024 0.75157 0.39261 0.0
O187 O 0.69479 0.26153 0.96383 0.0
Cd188 Cd 0.65714 0.23922 0.96834 0.0
O189 O 0.68948 0.28629 0.99434 0.0
Cd190 Cd 0.70074 0.31799 0.01765 0.0
O191 O 0.71425 0.35276 0.03384 0.0
C192 C 0.7222 0.36799 0.02018 0.0
O193 O 0.72214 0.36206 0.99727 0.0
C194 C 0.70241 0.27904 0.97808 0.0
C195 C 0.66756 0.19532 0.98487 0.0
O196 O 0.66419 0.19789 0.96252 0.0
O197 O 0.66536 0.21333 -0.00066 0.0
O198 O 0.29204 0.76044 0.64676 0.0
Cd199 Cd 0.33068 0.74937 0.66314 0.0
O200 O 0.30733 0.78728 0.62448 0.0
Cd201 Cd 0.3028 0.81594 0.60052 0.0
O202 O 0.29261 0.84679 0.58168 0.0
C203 C 0.28819 0.86545 0.59394 0.0
O204 O 0.29019 0.86549 0.61728 0.0
C205 C 0.28928 0.77564 0.6313 0.0
C206 C 0.33501 0.70254 0.64623 0.0
O207 O 0.32617 0.70716 0.66625 0.0
O208 O 0.34274 0.72007 0.63487 0.0
O209 O 0.28511 0.25549 0.07612 0.0
Cd210 Cd 0.24454 0.26743 0.07833 0.0
O211 O 0.27437 0.2287 0.04691 0.0
Cd212 Cd 0.28211 0.19966 0.02173 0.0
O213 O 0.29137 0.1683 0.00064 0.0
C214 C 0.3006 0.1515 0.01111 0.0
O215 O 0.30451 0.15358 0.03439 0.0
C216 C 0.29064 0.23988 0.06062 0.0
C217 C 0.24166 0.30759 0.05238 0.0
O218 O 0.2475 0.30954 0.07478 0.0
O219 O 0.23632 0.28672 0.04253 0.0
O220 O 0.36007 0.6646 0.69896 0.0
Cd221 Cd 0.34348 0.69755 0.72102 0.0
O222 O 0.38953 0.68917 0.69107 0.0
Cd223 Cd 0.42297 0.70209 0.67736 0.0
O224 O 0.45567 0.7278 0.67645 0.0
C225 C 0.46414 0.73598 0.65786 0.0
O226 O 0.45615 0.72812 0.67727 0.0
C227 C 0.37979 0.66818 0.68966 0.0
C228 C 0.36084 0.70009 0.7687 0.0
O229 O 0.34109 0.68847 0.76192 0.0
O230 O 0.37218 0.71068 0.75301 0.0
O231 O 0.96401 0.6978 0.25823 0.0
Cd232 Cd 0.96464 0.65974 0.23534 0.0
O233 O 0.99113 0.68885 0.28538 0.0
Cd234 Cd 0.01284 0.69777 0.31879 0.0
O235 O 0.02998 0.71022 0.35365 0.0
C236 C 0.01691 0.71572 0.37041 0.0
O237 O 0.99369 0.71369 0.36618 0.0
C238 C 0.97738 0.70369 0.27692 0.0
C239 C 0.98322 0.66782 0.19163 0.0
O240 O 0.96077 0.66751 0.19388 0.0
O241 O 0.99673 0.66383 0.20988 0.0
O242 O 0.63618 0.30665 0.76893 0.0
Cd243 Cd 0.65065 0.34695 0.76114 0.0
O244 O 0.61776 0.31665 0.80086 0.0
Cd245 Cd 0.59776 0.30824 0.8316 0.0
O246 O 0.58041 0.2999 0.86388 0.0
C247 C 0.58014 0.27908 0.87125 0.0
O248 O 0.59023 0.2624 0.85899 0.0
C249 C 0.62312 0.30082 0.78545 0.0
C250 C 0.63506 0.35261 0.7141 0.0
O251 O 0.65573 0.34537 0.71911 0.0
O252 O 0.62243 0.35831 0.7314 0.0
O253 O 0.06209 0.29077 0.26271 0.0
Cd254 Cd 0.06533 0.2502 0.27446 0.0
O255 O 0.03683 0.28044 0.23199 0.0
Cd256 Cd 0.01544 0.28863 0.20009 0.0
O257 O 0.99591 0.29646 0.16705 0.0
C258 C 0.00706 0.30255 0.14927 0.0
O259 O 0.03042 0.30425 0.15112 0.0
C260 C 0.04874 0.29653 0.2453 0.0
C261 C 0.04489 0.24635 0.31789 0.0
O262 O 0.06699 0.25277 0.31719 0.0
O263 O 0.03269 0.24123 0.29809 0.0
H264 H 0.29126 0.57046 0.51943 0.0
H265 H 0.26996 0.49665 0.50484 0.0
H266 H 0.28641 0.52471 0.57729 0.0
C267 C 0.28695 0.55316 0.52592 0.0
C268 C 0.28961 0.55003 0.55043 0.0
C269 C 0.27943 0.53415 0.50948 0.0
C270 C 0.27522 0.51144 0.51764 0.0
C271 C 0.27787 0.50772 0.5421 0.0
C272 C 0.28496 0.52721 0.55839 0.0
H273 H 0.25595 0.41977 0.91649 0.0
H274 H 0.27571 0.49157 0.9015 0.0
H275 H 0.27971 0.47107 0.97395 0.0
C276 C 0.26265 0.43762 0.92277 0.0
C277 C 0.26786 0.44318 0.9472 0.0
C278 C 0.26565 0.4549 0.90629 0.0
C279 C 0.27401 0.4781 0.91427 0.0
C280 C 0.2787 0.48423 0.93876 0.0
C281 C 0.27571 0.4666 0.9551 0.0
H282 H 0.72752 0.92201 0.47828 0.0
H283 H 0.71289 0.9958 0.48114 0.0
H284 H 0.70933 0.95499 0.41368 0.0
C285 C 0.72261 0.93761 0.46937 0.0
C286 C 0.71876 0.93609 0.4445 0.0
C287 C 0.72019 0.95897 0.48279 0.0
C288 C 0.7143 0.97914 0.4709 0.0
C289 C 0.71049 0.97804 0.44591 0.0
C290 C 0.71245 0.95626 0.43289 0.0
H291 H 0.72614 0.06228 0.08551 0.0
H292 H 0.73073 0.9866 0.08389 0.0
H293 H 0.71584 0.0205 0.01891 0.0
C294 C 0.72576 0.04524 0.07552 0.0
C295 C 0.72046 0.04389 0.05078 0.0
C296 C 0.72966 0.02472 0.08764 0.0
C297 C 0.72875 0.00263 0.07458 0.0
C298 C 0.72363 0.00089 0.04978 0.0
C299 C 0.71965 0.02166 0.03803 0.0
H300 H 0.51676 0.31151 0.57453 0.0
H301 H 0.50553 0.28838 0.50071 0.0
H302 H 0.57694 0.30242 0.53279 0.0
C303 C 0.52398 0.30681 0.55765 0.0
C304 C 0.5487 0.30795 0.55603 0.0
C305 C 0.50838 0.29941 0.53794 0.0
C306 C 0.51769 0.29341 0.51608 0.0
C307 C 0.54246 0.29469 0.51382 0.0
C308 C 0.55786 0.30197 0.53401 0.0
H309 H 0.09312 0.72048 0.06442 0.0
H310 H 0.09588 0.73553 0.99088 0.0
H311 H 0.02906 0.71421 0.01847 0.0
C312 C 0.08427 0.72178 0.04698 0.0
C313 C 0.0596 0.71653 0.04368 0.0
C314 C 0.09759 0.7286 0.02807 0.0
C315 C 0.08574 0.73063 0.0057 0.0
C316 C 0.06101 0.72562 0.00202 0.0
C317 C 0.04799 0.71883 0.02124 0.0
H318 H 0.92151 0.25319 0.43733 0.0
H319 H 0.90357 0.2797 0.50625 0.0
H320 H 0.97725 0.27557 0.49088 0.0
C321 C 0.92714 0.26022 0.45528 0.0
C322 C 0.95143 0.26414 0.46212 0.0
C323 C 0.90992 0.26575 0.47111 0.0
C324 C 0.91705 0.27542 0.49413 0.0
C325 C 0.94137 0.27883 0.50172 0.0
C326 C 0.95847 0.27345 0.48536 0.0
H327 H 0.46936 0.70858 0.92196 0.0
H328 H 0.47189 0.69836 0.99685 0.0
H329 H 0.4049 0.69031 0.95508 0.0
C330 C 0.46043 0.70418 0.93771 0.0
C331 C 0.43567 0.69949 0.93599 0.0
C332 C 0.4737 0.70354 0.95952 0.0
C333 C 0.46177 0.69837 0.97988 0.0
C334 C 0.43691 0.69365 0.97862 0.0
C335 C 0.42402 0.69396 0.95643 0.0
H336 H 0.57847 0.52084 0.31318 0.0
H337 H 0.50639 0.50344 0.28598 0.0
H338 H 0.52982 0.57593 0.30923 0.0
C339 C 0.56077 0.5263 0.30863 0.0
C340 C 0.556 0.55016 0.31276 0.0
C341 C 0.54316 0.50946 0.29852 0.0
C342 C 0.52016 0.51661 0.29317 0.0
C343 C 0.51495 0.5406 0.29702 0.0
C344 C 0.53323 0.55734 0.30654 0.0
H345 H 0.06603 0.09094 0.71321 0.0
H346 H 0.99193 0.08788 0.72672 0.0
H347 H 0.02481 0.02399 0.70522 0.0
C348 C 0.04923 0.08074 0.714 0.0
C349 C 0.0478 0.05612 0.70832 0.0
C350 C 0.02925 0.09229 0.72094 0.0
C351 C 0.00762 0.07889 0.72229 0.0
C352 C 0.00576 0.05423 0.71652 0.0
C353 C 0.02605 0.04296 0.7098 0.0
H354 H 0.41966 0.91444 0.26924 0.0
H355 H 0.49263 0.90107 0.2865 0.0
H356 H 0.4714 0.97286 0.28718 0.0
C357 C 0.43768 0.92094 0.27506 0.0
C358 C 0.44325 0.94554 0.27835 0.0
C359 C 0.45527 0.90469 0.27815 0.0
C360 C 0.47885 0.91341 0.28438 0.0
C361 C 0.4849 0.93799 0.28724 0.0
C362 C 0.46693 0.95391 0.28444 0.0
H363 H 0.91963 0.46786 0.72599 0.0
H364 H 0.99291 0.46695 0.71006 0.0
H365 H 0.94864 0.40158 0.70643 0.0
C366 C 0.9346 0.45813 0.72075 0.0
C367 C 0.93168 0.43335 0.71669 0.0
C368 C 0.95648 0.47047 0.71801 0.0
C369 C 0.97584 0.45754 0.71168 0.0
C370 C 0.97335 0.4326 0.70756 0.0
C371 C 0.95101 0.4207 0.70983 0.0
H372 H 0.67567 0.41584 0.47019 0.0
H373 H 0.6948 0.49041 0.48307 0.0
H374 H 0.67901 0.46038 0.41117 0.0
C375 C 0.67872 0.43324 0.4634 0.0
C376 C 0.67659 0.43575 0.43879 0.0
C377 C 0.68555 0.45278 0.47936 0.0
C378 C 0.68984 0.47521 0.47065 0.0
C379 C 0.68722 0.4782 0.44607 0.0
C380 C 0.68111 0.45826 0.43014 0.0
H381 H 0.77603 0.60313 0.10854 0.0
H382 H 0.76833 0.52898 0.12068 0.0
H383 H 0.7664 0.55161 0.04891 0.0
C384 C 0.774 0.58476 0.10151 0.0
C385 C 0.77153 0.57953 0.07683 0.0
C386 C 0.77303 0.56666 0.11735 0.0
C387 C 0.76983 0.54287 0.10835 0.0
C388 C 0.76709 0.53715 0.0836 0.0
C389 C 0.76817 0.55568 0.06798 0.0
H390 H 0.22569 0.06932 0.48271 0.0
H391 H 0.2366 0.99465 0.47876 0.0
H392 H 0.24181 0.03473 0.54673 0.0
C393 C 0.22876 0.05314 0.49147 0.0
C394 C 0.23306 0.05437 0.51626 0.0
C395 C 0.22993 0.03173 0.47773 0.0
C396 C 0.23535 0.01119 0.48926 0.0
C397 C 0.23978 0.01203 0.51418 0.0
C398 C 0.23859 0.03378 0.52754 0.0
H399 H 0.32671 0.93792 0.87984 0.0
H400 H 0.31954 0.01333 0.88349 0.0
H401 H 0.33312 0.97799 0.94765 0.0
C402 C 0.32726 0.95481 0.89014 0.0
C403 C 0.3312 0.95549 0.91507 0.0
C404 C 0.32281 0.97553 0.87854 0.0
C405 C 0.32241 0.99711 0.89223 0.0
C406 C 0.32572 0.9981 0.91714 0.0
C407 C 0.33046 0.97729 0.92842 0.0
H408 H 0.49272 0.66109 0.43006 0.0
H409 H 0.50331 0.6847 0.50388 0.0
H410 H 0.4327 0.66289 0.47351 0.0
C411 C 0.48552 0.6641 0.4473 0.0
C412 C 0.46097 0.66041 0.44949 0.0
C413 C 0.50069 0.67319 0.4667 0.0
C414 C 0.49149 0.67764 0.48884 0.0
C415 C 0.46705 0.6735 0.49157 0.0
C416 C 0.45166 0.66547 0.47168 0.0
H417 H 0.87714 0.32773 0.93368 0.0
H418 H 0.8815 0.3211 0.00916 0.0
H419 H 0.94558 0.32788 0.97194 0.0
C420 C 0.88781 0.32681 0.95023 0.0
C421 C 0.91273 0.32833 0.95022 0.0
C422 C 0.87645 0.32421 0.97138 0.0
C423 C 0.89026 0.32336 0.99282 0.0
C424 C 0.91523 0.32464 0.99326 0.0
C425 C 0.92637 0.32746 0.97189 0.0
H426 H 0.11046 0.77546 0.60342 0.0
H427 H 0.12277 0.7707 0.52893 0.0
H428 H 0.05169 0.75983 0.55158 0.0
C429 C 0.10362 0.77335 0.58497 0.0
C430 C 0.07914 0.76831 0.57969 0.0
C431 C 0.11955 0.77429 0.56689 0.0
C432 C 0.11066 0.7699 0.54306 0.0
C433 C 0.08617 0.76473 0.53734 0.0
C434 C 0.07053 0.76409 0.55579 0.0
H435 H 0.47295 0.23964 0.08346 0.0
H436 H 0.46701 0.24154 0.00749 0.0
H437 H 0.53597 0.25115 0.04575 0.0
C438 C 0.48136 0.24161 0.06688 0.0
C439 C 0.50614 0.24553 0.06721 0.0
C440 C 0.46715 0.24052 0.04555 0.0
C441 C 0.47802 0.24235 0.02401 0.0
C442 C 0.50292 0.24605 0.02381 0.0
C443 C 0.5169 0.24744 0.04556 0.0
H444 H 0.40069 0.50141 0.65048 0.0
H445 H 0.4767 0.51227 0.66087 0.0
H446 H 0.44265 0.44211 0.66336 0.0
C447 C 0.41791 0.49428 0.65358 0.0
C448 C 0.41915 0.46996 0.65677 0.0
C449 C 0.43849 0.5097 0.65511 0.0
C450 C 0.46074 0.50043 0.65942 0.0
C451 C 0.4624 0.47598 0.66221 0.0
C452 C 0.4415 0.46088 0.66091 0.0
H453 H 0.9414 0.87719 0.32867 0.0
H454 H 0.0175 0.88408 0.32709 0.0
H455 H 0.97835 0.94637 0.33705 0.0
C456 C 0.95792 0.88818 0.33001 0.0
C457 C 0.95731 0.91298 0.33347 0.0
C458 C 0.97953 0.87754 0.32769 0.0
C459 C 0.00076 0.89209 0.32908 0.0
C460 C 0.00055 0.91694 0.3323 0.0
C461 C 0.97872 0.92722 0.3347 0.0
H462 H 0.60052 0.1231 0.76731 0.0
H463 H 0.52519 0.12957 0.76479 0.0
H464 H 0.55324 0.0603 0.75673 0.0
C465 C 0.5826 0.11476 0.76549 0.0
C466 C 0.57916 0.09003 0.7617 0.0
C467 C 0.56329 0.12902 0.7668 0.0
C468 C 0.54007 0.11837 0.76461 0.0
C469 C 0.53612 0.09347 0.76069 0.0
C470 C 0.5559 0.07944 0.75971 0.0
H471 H 0.07665 0.47649 0.23295 0.0
H472 H 0.00118 0.47476 0.23673 0.0
H473 H 0.04091 0.54145 0.23016 0.0
C474 C 0.0605 0.48586 0.23254 0.0
C475 C 0.06161 0.51063 0.231 0.0
C476 C 0.03876 0.47288 0.23403 0.0
C477 C 0.01779 0.48481 0.23454 0.0
C478 C 0.01844 0.5097 0.23378 0.0
C479 C 0.04039 0.52239 0.23151 0.0
H480 H 0.21224 0.55046 0.21889 0.0
H481 H 0.19331 0.58303 0.28561 0.0
H482 H 0.17035 0.54108 0.2069 0.0
H483 H 0.15165 0.57192 0.27488 0.0
H484 H 0.07635 0.55506 0.25166 0.0
H485 H 0.11612 0.57434 0.25433 0.0
H486 H 0.14065 0.51431 0.21355 0.0
H487 H 0.10057 0.49662 0.20853 0.0
C488 C 0.19901 0.55558 0.23097 0.0
C489 C 0.20592 0.56732 0.25319 0.0
C490 C 0.17496 0.55001 0.22426 0.0
C491 C 0.1573 0.55524 0.24002 0.0
C492 C 0.1644 0.56784 0.26195 0.0
C493 C 0.18839 0.57409 0.26828 0.0
C494 C 0.09006 0.54634 0.24258 0.0
C495 C 0.08519 0.52397 0.23028 0.0
C496 C 0.11311 0.55723 0.24451 0.0
C497 C 0.13205 0.54577 0.2347 0.0
C498 C 0.12681 0.524 0.22131 0.0
C499 C 0.1037 0.51348 0.21882 0.0
H500 H 0.27155 0.41853 0.65492 0.0
H501 H 0.30981 0.35662 0.66956 0.0
H502 H 0.30881 0.44052 0.64859 0.0
H503 H 0.34726 0.37892 0.66377 0.0
H504 H 0.4093 0.42483 0.63583 0.0
H505 H 0.37193 0.40019 0.63536 0.0
H506 H 0.34164 0.45575 0.67736 0.0
H507 H 0.37871 0.48004 0.67806 0.0
C508 C 0.28788 0.40952 0.65656 0.0
C509 C 0.28775 0.38592 0.66305 0.0
C510 C 0.30925 0.42217 0.65305 0.0
C511 C 0.33099 0.41158 0.65613 0.0
C512 C 0.33078 0.38755 0.66125 0.0
C513 C 0.30934 0.37483 0.66469 0.0
C514 C 0.39467 0.43165 0.64506 0.0
C515 C 0.39688 0.45449 0.65676 0.0
C516 C 0.37329 0.4176 0.64472 0.0
C517 C 0.35374 0.4262 0.656 0.0
C518 C 0.35615 0.44887 0.66795 0.0
C519 C 0.37743 0.46279 0.66838 0.0
H520 H 0.68305 0.98328 0.74071 0.0
H521 H 0.72302 0.05141 0.74758 0.0
H522 H 0.64669 0.00295 0.74827 0.0
H523 H 0.6869 0.07091 0.75559 0.0
H524 H 0.61608 0.09961 0.73449 0.0
H525 H 0.65172 0.07817 0.73068 0.0
H526 H 0.62532 0.02654 0.77763 0.0
H527 H 0.58928 0.0482 0.7814 0.0
C528 C 0.68415 0.00239 0.74423 0.0
C529 C 0.70587 0.01582 0.74327 0.0
C530 C 0.66333 0.01364 0.74864 0.0
C531 C 0.66386 0.03851 0.75217 0.0
C532 C 0.68581 0.05176 0.7524 0.0
C533 C 0.70655 0.04056 0.74795 0.0
C534 C 0.61792 0.08377 0.74415 0.0
C535 C 0.60005 0.07577 0.75852 0.0
C536 C 0.63838 0.07151 0.74202 0.0
C537 C 0.64156 0.05089 0.7542 0.0
C538 C 0.62337 0.04239 0.76803 0.0
C539 C 0.60276 0.05473 0.77016 0.0
H540 H 0.84435 0.0103 0.34111 0.0
H541 H 0.80744 0.94079 0.3296 0.0
H542 H 0.88233 0.99201 0.34303 0.0
H543 H 0.84536 0.92249 0.33204 0.0
H544 H 0.91657 0.90167 0.30532 0.0
H545 H 0.87861 0.91955 0.3071 0.0
H546 H 0.90766 0.9672 0.36616 0.0
H547 H 0.94583 0.94925 0.36432 0.0
C548 C 0.84432 0.99111 0.33932 0.0
C549 C 0.82288 0.97701 0.33502 0.0
C550 C 0.86609 0.98061 0.34053 0.0
C551 C 0.86689 0.9558 0.33749 0.0
C552 C 0.84539 0.94169 0.33402 0.0
C553 C 0.82363 0.95217 0.33278 0.0
C554 C 0.91479 0.91576 0.31888 0.0
C555 C 0.93417 0.92396 0.33477 0.0
C556 C 0.89301 0.926 0.31992 0.0
C557 C 0.89004 0.94471 0.33688 0.0
C558 C 0.90943 0.95297 0.35275 0.0
C559 C 0.93128 0.94271 0.35169 0.0
H560 H 0.23936 0.20412 0.52937 0.0
H561 H 0.26761 0.18995 0.59969 0.0
H562 H 0.22945 0.16192 0.52045 0.0
H563 H 0.25722 0.14752 0.59087 0.0
H564 H 0.19989 0.08723 0.51338 0.0
H565 H 0.20382 0.12837 0.52982 0.0
H566 H 0.27152 0.11571 0.56525 0.0
H567 H 0.26731 0.07443 0.54907 0.0
C568 C 0.24315 0.19202 0.54307 0.0
C569 C 0.25439 0.20039 0.56519 0.0
C570 C 0.23729 0.1678 0.53802 0.0
C571 C 0.2425 0.15132 0.55497 0.0
C572 C 0.25317 0.15974 0.57736 0.0
C573 C 0.25902 0.18405 0.58244 0.0
C574 C 0.2154 0.09318 0.52503 0.0
C575 C 0.23342 0.07776 0.52976 0.0
C576 C 0.21771 0.11674 0.53435 0.0
C577 C 0.23817 0.12543 0.5485 0.0
C578 C 0.25546 0.10956 0.55453 0.0
C579 C 0.25308 0.08591 0.54527 0.0
H580 H 0.33511 0.80721 0.9432 0.0
H581 H 0.34635 0.84296 0.01338 0.0
H582 H 0.33571 0.84559 0.92563 0.0
H583 H 0.34713 0.88133 0.99574 0.0
H584 H 0.31271 0.94152 0.95611 0.0
H585 H 0.31719 0.90419 0.97476 0.0
H586 H 0.36202 0.88127 0.9197 0.0
H587 H 0.35786 0.91883 0.90116 0.0
C588 C 0.33799 0.82324 0.95486 0.0
C589 C 0.34057 0.82203 0.97969 0.0
C590 C 0.33844 0.84523 0.94478 0.0
C591 C 0.34135 0.86648 0.95931 0.0
C592 C 0.34456 0.86526 0.98411 0.0
C593 C 0.34425 0.84327 0.99419 0.0
C594 C 0.3239 0.92874 0.9482 0.0
C595 C 0.33491 0.93319 0.92711 0.0
C596 C 0.32643 0.90732 0.95889 0.0
C597 C 0.33993 0.88978 0.94869 0.0
C598 C 0.35126 0.89433 0.92781 0.0
C599 C 0.34883 0.91583 0.91719 0.0
H600 H 0.67684 0.30938 0.34066 0.0
H601 H 0.66405 0.2893 0.41164 0.0
H602 H 0.67074 0.35076 0.35289 0.0
H603 H 0.65817 0.33028 0.4238 0.0
H604 H 0.63964 0.40288 0.44113 0.0
H605 H 0.63399 0.3638 0.41982 0.0
H606 H 0.69431 0.38108 0.37915 0.0
H607 H 0.69956 0.42038 0.4002 0.0
C608 C 0.6724 0.31373 0.35875 0.0
C609 C 0.67104 0.29609 0.37522 0.0
C610 C 0.66896 0.3374 0.36575 0.0
C611 C 0.66405 0.34384 0.38932 0.0
C612 C 0.66158 0.32595 0.4054 0.0
C613 C 0.66512 0.30241 0.39847 0.0
C614 C 0.65133 0.39845 0.42724 0.0
C615 C 0.67026 0.41442 0.42251 0.0
C616 C 0.64815 0.37609 0.4151 0.0
C617 C 0.66397 0.36917 0.39811 0.0
C618 C 0.68173 0.38589 0.39203 0.0
C619 C 0.6848 0.40838 0.4041 0.0
H620 H 0.73499 0.68507 0.97502 0.0
H621 H 0.74733 0.71992 0.04552 0.0
H622 H 0.74956 0.64857 0.98995 0.0
H623 H 0.76173 0.68355 0.06035 0.0
H624 H 0.80048 0.62035 0.07898 0.0
H625 H 0.79404 0.65597 0.05775 0.0
H626 H 0.73366 0.61926 0.01738 0.0
H627 H 0.73998 0.58369 0.03873 0.0
C628 C 0.7411 0.68505 0.99361 0.0
C629 C 0.73988 0.70534 0.00913 0.0
C630 C 0.74933 0.66412 0.00215 0.0
C631 C 0.75676 0.66319 0.0263 0.0
C632 C 0.75641 0.68378 0.04158 0.0
C633 C 0.74799 0.70459 0.03311 0.0
C634 C 0.78602 0.6198 0.06534 0.0
C635 C 0.77053 0.59933 0.06076 0.0
C636 C 0.78234 0.64019 0.05321 0.0
C637 C 0.76315 0.64051 0.03615 0.0
C638 C 0.74869 0.61951 0.03034 0.0
C639 C 0.75233 0.59911 0.04254 0.0
H640 H 0.60577 0.2689 0.19399 0.0
H641 H 0.53657 0.24798 0.21744 0.0
H642 H 0.58979 0.26289 0.15246 0.0
H643 H 0.52082 0.24211 0.17617 0.0
H644 H 0.49524 0.27175 0.10655 0.0
H645 H 0.51506 0.27405 0.14619 0.0
H646 H 0.56912 0.23016 0.12058 0.0
H647 H 0.54878 0.2273 0.08052 0.0
C648 C 0.58729 0.26267 0.19031 0.0
C649 C 0.57236 0.25918 0.20902 0.0
C650 C 0.57821 0.25918 0.16656 0.0
C651 C 0.55403 0.25237 0.1612 0.0
C652 C 0.53946 0.24771 0.17987 0.0
C653 C 0.54853 0.25099 0.2035 0.0
C654 C 0.51126 0.26243 0.10931 0.0
C655 C 0.52014 0.24888 0.09051 0.0
C656 C 0.52261 0.26378 0.13202 0.0
C657 C 0.54331 0.25187 0.13651 0.0
C658 C 0.55307 0.23937 0.11755 0.0
C659 C 0.54151 0.23782 0.09468 0.0
H660 H 0.93742 0.3324 0.80045 0.0
H661 H 0.00834 0.33766 0.83476 0.0
H662 H 0.92077 0.3331 0.83923 0.0
H663 H 0.99164 0.33781 0.87362 0.0
H664 H 0.95155 0.35692 0.94042 0.0
H665 H 0.96916 0.36006 0.90208 0.0
H666 H 0.9175 0.30574 0.87029 0.0
H667 H 0.89997 0.30274 0.90832 0.0
C668 C 0.94948 0.33383 0.81627 0.0
C669 C 0.97421 0.33481 0.8145 0.0
C670 C 0.93993 0.33406 0.83852 0.0
C671 C 0.95487 0.3352 0.85954 0.0
C672 C 0.97963 0.33707 0.8578 0.0
C673 C 0.9892 0.33689 0.83551 0.0
C674 C 0.94411 0.34558 0.92524 0.0
C675 C 0.92423 0.32977 0.92733 0.0
C676 C 0.95416 0.34738 0.90329 0.0
C677 C 0.94455 0.33336 0.88303 0.0
C678 C 0.92497 0.31724 0.88534 0.0
C679 C 0.91495 0.31548 0.90718 0.0
H680 H 0.44825 0.64248 0.30265 0.0
H681 H 0.37645 0.66045 0.31411 0.0
H682 H 0.45544 0.63771 0.34487 0.0
H683 H 0.38359 0.65537 0.35665 0.0
H684 H 0.46402 0.62156 0.41927 0.0
H685 H 0.44656 0.61538 0.37847 0.0
H686 H 0.40722 0.6779 0.38919 0.0
H687 H 0.42428 0.68356 0.43022 0.0
C688 C 0.43385 0.64503 0.31413 0.0
C689 C 0.41187 0.65211 0.30502 0.0
C690 C 0.43789 0.64208 0.3384 0.0
C691 C 0.4201 0.64623 0.35424 0.0
C692 C 0.39775 0.65231 0.34498 0.0
C693 C 0.39365 0.65515 0.3206 0.0
C694 C 0.45101 0.63347 0.41307 0.0
C695 C 0.44557 0.65311 0.42774 0.0
C696 C 0.44118 0.63008 0.38967 0.0
C697 C 0.42591 0.64645 0.38037 0.0
C698 C 0.41884 0.6649 0.39577 0.0
C699 C 0.42856 0.66816 0.4193 0.0
H700 H 0.9758 0.72884 0.68302 0.0
H701 H 0.0445 0.74483 0.72075 0.0
H702 H 0.99196 0.74228 0.64656 0.0
H703 H 0.06056 0.75816 0.68442 0.0
H704 H 0.07906 0.79707 0.62049 0.0
H705 H 0.05747 0.7897 0.6557 0.0
H706 H 0.02157 0.72684 0.61903 0.0
H707 H 0.04338 0.73403 0.58389 0.0
C708 C 0.99426 0.73547 0.68361 0.0
C709 C 0.00891 0.73568 0.70475 0.0
C710 C 0.00351 0.74304 0.66271 0.0
C711 C 0.02751 0.75126 0.66263 0.0
C712 C 0.04192 0.75219 0.68397 0.0
C713 C 0.03275 0.7444 0.70476 0.0
C714 C 0.06642 0.78178 0.61988 0.0
C715 C 0.06317 0.76596 0.5995 0.0
C716 C 0.05406 0.77757 0.64003 0.0
C717 C 0.03805 0.75755 0.64022 0.0
C718 C 0.03369 0.74252 0.61937 0.0
C719 C 0.04616 0.74666 0.59921 0.0
H720 H 0.78275 0.42249 0.73057 0.0
H721 H 0.79337 0.35234 0.69972 0.0
H722 H 0.82551 0.43129 0.73512 0.0
H723 H 0.83637 0.36096 0.70484 0.0
H724 H 0.90671 0.40105 0.68504 0.0
H725 H 0.86543 0.38579 0.68641 0.0
H726 H 0.86226 0.4228 0.75544 0.0
H727 H 0.90334 0.43839 0.75373 0.0
C728 C 0.79423 0.40876 0.72516 0.0
C729 C 0.78463 0.38678 0.71462 0.0
C730 C 0.81881 0.41376 0.72791 0.0
C731 C 0.83442 0.39685 0.72027 0.0
C732 C 0.82484 0.37449 0.7106 0.0
C733 C 0.8002 0.3695 0.70781 0.0
C734 C 0.89729 0.40549 0.70069 0.0
C735 C 0.90806 0.42112 0.71913 0.0
C736 C 0.87366 0.39673 0.70153 0.0
C737 C 0.86041 0.40332 0.72091 0.0
C738 C 0.87176 0.4178 0.74001 0.0
C739 C 0.89529 0.42667 0.73908 0.0
H740 H 0.69952 0.59076 0.3491 0.0
H741 H 0.67333 0.65979 0.3384 0.0
H742 H 0.65902 0.57324 0.34641 0.0
H743 H 0.63249 0.64221 0.33611 0.0
H744 H 0.57115 0.59198 0.29516 0.0
H745 H 0.60814 0.61576 0.30699 0.0
H746 H 0.62167 0.57072 0.36486 0.0
H747 H 0.58497 0.54672 0.35261 0.0
C748 C 0.68508 0.60227 0.34649 0.0
C749 C 0.68964 0.62661 0.34371 0.0
C750 C 0.66179 0.59225 0.34514 0.0
C751 C 0.64248 0.60633 0.34098 0.0
C752 C 0.647 0.63086 0.33906 0.0
C753 C 0.67037 0.64091 0.34041 0.0
C754 C 0.58176 0.5876 0.31076 0.0
C755 C 0.57547 0.56737 0.32277 0.0
C756 C 0.60292 0.60121 0.31759 0.0
C757 C 0.61805 0.59487 0.33664 0.0
C758 C 0.61069 0.57573 0.34978 0.0
C759 C 0.58966 0.56206 0.34285 0.0
H760 H 0.3563 0.06728 0.2691 0.0
H761 H 0.30853 0.00598 0.24701 0.0
H762 H 0.38929 0.04153 0.2731 0.0
H763 H 0.34152 0.98037 0.25086 0.0
H764 H 0.3979 0.94151 0.29253 0.0
H765 H 0.36615 0.96793 0.28545 0.0
H766 H 0.41381 0.01424 0.2496 0.0
H767 H 0.44562 0.98754 0.25632 0.0
C768 C 0.35289 0.04837 0.26482 0.0
C769 C 0.32977 0.03865 0.25789 0.0
C770 C 0.3718 0.03365 0.26703 0.0
C771 C 0.36792 0.00893 0.26252 0.0
C772 C 0.34496 -0.00067 0.25482 0.0
C773 C 0.3261 0.01403 0.25246 0.0
C774 C 0.40159 0.9572 0.28293 0.0
C775 C 0.42428 0.96232 0.27488 0.0
C776 C 0.38338 0.97233 0.27887 0.0
C777 C 0.38745 0.99304 0.26679 0.0
C778 C 0.41022 -0.00154 0.25909 0.0
C779 C 0.42844 0.98322 0.26302 0.0
H780 H 0.18961 0.0287 0.66885 0.0
H781 H 0.15438 0.9584 0.66687 0.0
H782 H 0.15294 0.04597 0.67914 0.0
H783 H 0.11742 0.97575 0.67656 0.0
H784 H 0.06478 0.01441 0.72211 0.0
H785 H 0.10035 0.99597 0.7097 0.0
H786 H 0.11372 0.05272 0.66335 0.0
H787 H 0.07841 0.07124 0.67605 0.0
C788 C 0.17396 0.01693 0.67034 0.0
C789 C 0.17495 0.99217 0.66708 0.0
C790 C 0.15287 0.02685 0.67613 0.0
C791 C 0.13219 0.01226 0.6787 0.0
C792 C 0.13309 0.98749 0.67506 0.0
C793 C 0.15424 0.97755 0.66934 0.0
C794 C 0.07524 0.0228 0.70913 0.0
C795 C 0.06893 0.04437 0.70021 0.0
C796 C 0.09559 0.01222 0.70196 0.0
C797 C 0.10998 0.02292 0.6856 0.0
C798 C 0.10333 0.04424 0.67633 0.0
C799 C 0.08308 0.05485 0.68359 0.0
H800 H 0.73506 0.78775 0.4201 0.0
H801 H 0.70276 0.80469 0.35229 0.0
H802 H 0.73877 0.82965 0.43315 0.0
H803 H 0.70719 0.84689 0.36509 0.0
H804 H 0.75561 0.90739 0.44784 0.0
H805 H 0.75778 0.86768 0.42884 0.0
H806 H 0.68888 0.87313 0.39228 0.0
H807 H 0.68719 0.91313 0.41082 0.0
C808 C 0.72919 0.80047 0.40778 0.0
C809 C 0.71845 0.79286 0.38522 0.0
C810 C 0.73144 0.82458 0.41522 0.0
C811 C 0.72317 0.84171 0.40022 0.0
C812 C 0.71337 0.83415 0.37724 0.0
C813 C 0.71099 0.80998 0.36984 0.0
C814 C 0.74108 0.90012 0.43553 0.0
C815 C 0.72113 0.91317 0.43093 0.0
C816 C 0.74226 0.87736 0.42471 0.0
C817 C 0.72338 0.86704 0.40924 0.0
C818 C 0.70388 0.88058 0.40387 0.0
C819 C 0.70282 0.90347 0.41454 0.0
H820 H 0.68039 0.18601 0.03064 0.0
H821 H 0.67115 0.15315 0.9591 0.0
H822 H 0.69393 0.14908 0.04507 0.0
H823 H 0.68488 0.11618 0.97362 0.0
H824 H 0.68457 0.04804 0.0166 0.0
H825 H 0.67193 0.08427 -0.00033 0.0
H826 H 0.72903 0.12506 0.0413 0.0
H827 H 0.74192 0.08883 0.05797 0.0
C828 C 0.68118 0.17089 0.01799 0.0
C829 C 0.67471 0.17253 0.99371 0.0
C830 C 0.68912 0.14979 0.02625 0.0
C831 C 0.69065 0.1298 0.01044 0.0
C832 C 0.68379 0.13127 0.98622 0.0
C833 C 0.67599 0.15245 0.97792 0.0
C834 C 0.69474 0.06465 0.02178 0.0
C835 C 0.71419 0.06555 0.03875 0.0
C836 C 0.68743 0.08542 0.01214 0.0
C837 C 0.69933 0.10753 0.01936 0.0
C838 C 0.71922 0.10833 0.03574 0.0
C839 C 0.72661 0.08758 0.04527 0.0
H840 H 0.31842 0.66155 0.66499 0.0
H841 H 0.34848 0.68804 0.60239 0.0
H842 H 0.30979 0.62249 0.64372 0.0
H843 H 0.33941 0.6492 0.58127 0.0
H844 H 0.27632 0.59555 0.5485 0.0
H845 H 0.29169 0.63051 0.57341 0.0
H846 H 0.33454 0.58701 0.61661 0.0
H847 H 0.32012 0.55171 0.59083 0.0
C848 C 0.32364 0.65893 0.64692 0.0
C849 C 0.33388 0.67797 0.63528 0.0
C850 C 0.31874 0.63659 0.63483 0.0
C851 C 0.32381 0.63307 0.61091 0.0
C852 C 0.33531 0.65162 0.59973 0.0
C853 C 0.34048 0.67382 0.61185 0.0
C854 C 0.28925 0.59331 0.56307 0.0
C855 C 0.29729 0.5708 0.56734 0.0
C856 C 0.29793 0.61335 0.57738 0.0
C857 C 0.31446 0.61135 0.59661 0.0
C858 C 0.32183 0.58886 0.60174 0.0
C859 C 0.31343 0.56872 0.58709 0.0
H860 H 0.25421 0.35393 0.06758 0.0
H861 H 0.23176 0.3087 0.00451 0.0
H862 H 0.26022 0.38762 0.04301 0.0
H863 H 0.23747 0.34237 0.9801 0.0
H864 H 0.28075 0.39756 0.94267 0.0
H865 H 0.2727 0.36568 0.9687 0.0
H866 H 0.23941 0.41429 0.01629 0.0
H867 H 0.2474 0.44634 0.99003 0.0
C868 C 0.25024 0.35124 0.04853 0.0
C869 C 0.24269 0.32859 0.03797 0.0
C870 C 0.25363 0.37056 0.03448 0.0
C871 C 0.24961 0.36756 0.0096 0.0
C872 C 0.24116 0.34512 0.99918 0.0
C873 C 0.23773 0.32586 0.0132 0.0
C874 C 0.27162 0.40145 0.95863 0.0
C875 C 0.26452 0.42441 0.96419 0.0
C876 C 0.26695 0.38317 0.97351 0.0
C877 C 0.25512 0.3874 0.99437 0.0
C878 C 0.24863 0.41053 0.00037 0.0
C879 C 0.25327 0.42887 0.98539 0.0
H880 H 0.40473 0.71777 0.78699 0.0
H881 H 0.33886 0.68418 0.80716 0.0
H882 H 0.42125 0.71806 0.82786 0.0
H883 H 0.35509 0.68523 0.84838 0.0
H884 H 0.40269 0.66667 0.91355 0.0
H885 H 0.38354 0.66736 0.87351 0.0
H886 H 0.41888 0.73644 0.86639 0.0
H887 H 0.43844 0.73527 0.90599 0.0
C888 C 0.39367 0.71067 0.80022 0.0
C889 C 0.37048 0.70094 0.79381 0.0
C890 C 0.40309 0.71097 0.82375 0.0
C891 C 0.3895 0.70176 0.84155 0.0
C892 C 0.3662 0.69219 0.83513 0.0
C893 C 0.35683 0.69172 0.81152 0.0
C894 C 0.4061 0.68206 0.90344 0.0
C895 C 0.4222 0.70079 0.91272 0.0
C896 C 0.39511 0.68252 0.88052 0.0
C897 C 0.39984 0.70185 0.86653 0.0
C898 C 0.41526 0.72099 0.87634 0.0
C899 C 0.42639 0.72041 0.89909 0.0
H900 H 0.03007 0.67295 0.1827 0.0
H901 H 0.95941 0.67544 0.14918 0.0
H902 H 0.04707 0.68372 0.14606 0.0
H903 H 0.97649 0.68562 0.11211 0.0
H904 H 0.01776 0.73093 0.05999 0.0
H905 H 0.99824 0.71797 0.09496 0.0
H906 H 0.05223 0.66822 0.10656 0.0
H907 H 0.07184 0.68156 0.07211 0.0
C908 C 0.01815 0.67555 0.16741 0.0
C909 C 0.99339 0.67331 0.16888 0.0
C910 C 0.0279 0.6816 0.14631 0.0
C911 C 0.01317 0.68544 0.12605 0.0
C912 C 0.98836 0.68304 0.12744 0.0
C913 C 0.97858 0.67705 0.14864 0.0
C914 C 0.02525 0.71708 0.06995 0.0
C915 C 0.04647 0.7075 0.06358 0.0
C916 C 0.01407 0.70959 0.08993 0.0
C917 C 0.02384 0.69225 0.10377 0.0
C918 C 0.04454 0.68203 0.0967 0.0
C919 C 0.05575 0.68962 0.07692 0.0
H920 H 0.65737 0.34272 0.67313 0.0
H921 H 0.58972 0.36045 0.69873 0.0
H922 H 0.63835 0.33414 0.63296 0.0
H923 H 0.57098 0.35191 0.65878 0.0
H924 H 0.54395 0.29382 0.60081 0.0
H925 H 0.56632 0.30897 0.6374 0.0
H926 H 0.6123 0.35288 0.59743 0.0
H927 H 0.58921 0.33823 0.56038 0.0
C928 C 0.63859 0.34522 0.67012 0.0
C929 C 0.62494 0.3518 0.6892 0.0
C930 C 0.62778 0.34042 0.64713 0.0
C931 C 0.60318 0.34196 0.64298 0.0
C932 C 0.58993 0.35021 0.66167 0.0
C933 C 0.60069 0.35512 0.68452 0.0
C934 C 0.55869 0.30684 0.59972 0.0
C935 C 0.56449 0.31517 0.57771 0.0
C936 C 0.57149 0.31549 0.62069 0.0
C937 C 0.59067 0.33243 0.62022 0.0
C938 C 0.59743 0.33993 0.5982 0.0
C939 C 0.58434 0.33144 0.57706 0.0
H940 H -0.00106 0.23225 0.32491 0.0
H941 H 0.06493 0.25968 0.36264 0.0
H942 H 0.97919 0.23436 0.36195 0.0
H943 H 0.04514 0.26144 0.39995 0.0
H944 H 0.99014 0.29193 0.45126 0.0
H945 H 0.01508 0.28524 0.41791 0.0
H946 H 0.97728 0.21693 0.40011 0.0
H947 H 0.95229 0.22377 0.43322 0.0
C948 C 0.00932 0.23845 0.34117 0.0
C949 C 0.03349 0.24587 0.34079 0.0
C950 C 0.99803 0.23951 0.36247 0.0
C951 C 0.0106 0.24804 0.38394 0.0
C952 C 0.03492 0.255 0.38368 0.0
C953 C 0.04627 0.25386 0.36232 0.0
C954 C 0.98756 0.27529 0.44051 0.0
C955 C 0.96908 0.25853 0.44458 0.0
C956 C 0.00182 0.27143 0.42141 0.0
C957 C 0.9979 0.2507 0.40613 0.0
C958 C 0.98038 0.23331 0.41121 0.0
C959 C 0.96613 0.2372 0.43019 0.0
H960 H 0.26927 0.5325 0.35336 0.0
H961 H 0.28687 0.60518 0.38039 0.0
H962 H 0.26579 0.52076 0.39404 0.0
H963 H 0.28377 0.5934 0.42082 0.0
H964 H 0.25711 0.57005 0.48941 0.0
H965 H 0.25486 0.57929 0.44774 0.0
H966 H 0.29247 0.51706 0.42981 0.0
H967 H 0.29458 0.50775 0.47161 0.0
C968 C 0.27226 0.54599 0.36793 0.0
C969 C 0.27838 0.56978 0.36362 0.0
C970 C 0.27041 0.53923 0.39122 0.0
C971 C 0.2745 0.55614 0.41065 0.0
C972 C 0.28017 0.57998 0.40625 0.0
C973 C 0.28209 0.58671 0.38304 0.0
C974 C 0.26484 0.55831 0.47654 0.0
C975 C 0.27627 0.53833 0.48379 0.0
C976 C 0.26356 0.56361 0.45269 0.0
C977 C 0.27372 0.54906 0.43551 0.0
C978 C 0.2843 0.52852 0.44259 0.0
C979 C 0.28554 0.52319 0.46651 0.0
H980 H 0.19614 0.42065 0.76504 0.0
H981 H 0.26077 0.38348 0.76684 0.0
H982 H 0.20768 0.43927 0.80462 0.0
H983 H 0.27231 0.40233 0.80646 0.0
H984 H 0.29345 0.45891 0.86869 0.0
H985 H 0.28305 0.44458 0.82705 0.0
H986 H 0.21244 0.42217 0.84554 0.0
H987 H 0.22292 0.43622 0.88695 0.0
C988 C 0.21286 0.41655 0.77381 0.0
C989 C 0.22747 0.40046 0.76288 0.0
C990 C 0.21943 0.42719 0.79647 0.0
C991 C 0.24087 0.42223 0.80852 0.0
C992 C 0.25578 0.40661 0.79742 0.0
C993 C 0.24906 0.39568 0.77486 0.0
C994 C 0.27567 0.45117 0.86366 0.0
C995 C 0.25897 0.44855 0.88085 0.0
C996 C 0.26978 0.44286 0.83999 0.0
C997 C 0.24697 0.43226 0.83317 0.0
C998 C 0.23008 0.43043 0.85029 0.0
C999 C 0.23608 0.43835 0.87394 0.0
H1000 H 0.76178 0.92545 0.6264 0.0
H1001 H 0.74206 0.99801 0.63527 0.0
H1002 H 0.75031 0.92488 0.58391 0.0
H1003 H 0.73054 0.99732 0.59282 0.0
H1004 H 0.74376 0.99458 0.51213 0.0
H1005 H 0.75176 0.99547 0.55521 0.0
H1006 H 0.71421 0.92661 0.5562 0.0
H1007 H 0.70577 0.92585 0.51321 0.0
C1008 C 0.75484 0.94121 0.61934 0.0
C1009 C 0.75291 0.96179 0.63423 0.0
C1010 C 0.74817 0.94084 0.59502 0.0
C1011 C 0.73961 0.96109 0.58504 0.0
C1012 C 0.73733 0.98154 0.59997 0.0
C1013 C 0.74381 0.98186 0.62432 0.0
C1014 C 0.73687 0.9798 0.52156 0.0
C1015 C 0.72422 0.9601 0.50917 0.0
C1016 C 0.74149 0.9803 0.54624 0.0
C1017 C 0.7337 0.96105 0.55904 0.0
C1018 C 0.72075 0.94153 0.54674 0.0
C1019 C 0.71597 0.9411 0.52212 0.0
H1020 H 0.77532 0.02165 0.23921 0.0
H1021 H 0.69888 0.02464 0.23488 0.0
H1022 H 0.77533 0.02492 0.19619 0.0
H1023 H 0.69887 0.02726 0.19216 0.0
H1024 H 0.7063 0.05184 0.11923 0.0
H1025 H 0.71015 0.05326 0.1624 0.0
H1026 H 0.76285 0.00115 0.15942 0.0
H1027 H 0.75994 0.00067 0.11601 0.0
C1028 C 0.75856 0.02312 0.22914 0.0
C1029 C 0.73711 0.0229 0.24052 0.0
C1030 C 0.75855 0.02482 0.20448 0.0
C1031 C 0.73711 0.02637 0.19072 0.0
C1032 C 0.71576 0.02651 0.20222 0.0
C1033 C 0.71576 0.02486 0.22677 0.0
C1034 C 0.71912 0.04105 0.12771 0.0
C1035 C 0.73285 0.02616 0.11409 0.0
C1036 C 0.72108 0.04163 0.15252 0.0
C1037 C 0.73666 0.02718 0.1644 0.0
C1038 C 0.75082 0.01266 0.15085 0.0
C1039 C 0.74893 0.01216 0.12596 0.0
H1040 H 0.37877 0.29739 0.60843 0.0
H1041 H 0.35381 0.26916 0.53761 0.0
H1042 H 0.41919 0.30109 0.59597 0.0
H1043 H 0.39442 0.27319 0.52509 0.0
H1044 H 0.47613 0.26268 0.52224 0.0
H1045 H 0.43447 0.25752 0.53169 0.0
H1046 H 0.44067 0.32668 0.56962 0.0
H1047 H 0.48209 0.33179 0.56021 0.0
C1048 C 0.38189 0.29185 0.59023 0.0
C1049 C 0.363 0.2831 0.57399 0.0
C1050 C 0.40506 0.29416 0.58304 0.0
C1051 C 0.40993 0.28776 0.55945 0.0
C1052 C 0.39121 0.27823 0.54339 0.0
C1053 C 0.36796 0.27597 0.55057 0.0
C1054 C 0.46841 0.27693 0.53222 0.0
C1055 C 0.48241 0.29751 0.54075 0.0
C1056 C 0.44461 0.27395 0.53768 0.0
C1057 C 0.43445 0.29152 0.55177 0.0
C1058 C 0.44817 0.31257 0.55925 0.0
C1059 C 0.47186 0.31554 0.5538 0.0
H1060 H 0.24399 0.69686 0.02878 0.0
H1061 H 0.24964 0.77361 0.03056 0.0
H1062 H 0.20148 0.69729 0.03209 0.0
H1063 H 0.20688 0.77407 0.03473 0.0
H1064 H 0.12715 0.76185 0.00897 0.0
H1065 H 0.17044 0.76446 0.01089 0.0
H1066 H 0.17113 0.70653 0.05741 0.0
H1067 H 0.128 0.70286 0.05419 0.0
C1068 C 0.23623 0.7139 0.0303 0.0
C1069 C 0.25026 0.73521 0.02929 0.0
C1070 C 0.21178 0.71415 0.03237 0.0
C1071 C 0.20067 0.73572 0.03369 0.0
C1072 C 0.21479 0.75712 0.03341 0.0
C1073 C 0.23933 0.75687 0.03119 0.0
C1074 C 0.13654 0.7496 0.01952 0.0
C1075 C 0.124 0.732 0.03122 0.0
C1076 C 0.16141 0.75132 0.02091 0.0
C1077 C 0.17434 0.73559 0.03418 0.0
C1078 C 0.16178 0.71868 0.04669 0.0
C1079 C 0.13697 0.7168 0.04511 0.0
H1080 H 0.7735 0.26373 0.39297 0.0
H1081 H 0.76639 0.20334 0.43602 0.0
H1082 H 0.81299 0.2745 0.41253 0.0
H1083 H 0.80584 0.21404 0.45528 0.0
H1084 H 0.88873 0.22329 0.45397 0.0
H1085 H 0.84744 0.21452 0.43869 0.0
H1086 H 0.83276 0.28756 0.45526 0.0
H1087 H 0.87424 0.29627 0.4709 0.0
C1088 C 0.78031 0.25282 0.40664 0.0
C1089 C 0.76689 0.23261 0.41286 0.0
C1090 C 0.8028 0.2591 0.41793 0.0
C1091 C 0.81239 0.24506 0.43535 0.0
C1092 C 0.79886 0.22507 0.4418 0.0
C1093 C 0.77628 0.21901 0.4308 0.0
C1094 C 0.87659 0.23739 0.45452 0.0
C1095 C 0.88453 0.26043 0.46354 0.0
C1096 C 0.85301 0.23237 0.44589 0.0
C1097 C 0.83699 0.25039 0.4458 0.0
C1098 C 0.84484 0.27342 0.45506 0.0
C1099 C 0.86842 0.27835 0.46411 0.0
H1100 H 0.62456 0.73658 0.00079 0.0
H1101 H 0.61571 0.75057 0.92639 0.0
H1102 H 0.58278 0.72246 -7e-05 0.0
H1103 H 0.57391 0.73658 0.92565 0.0
H1104 H 0.50559 0.68901 0.92794 0.0
H1105 H 0.5482 0.6997 0.92918 0.0
H1106 H 0.54383 0.74074 0.99575 0.0
H1107 H 0.50116 0.73044 0.99436 0.0
C1108 C 0.61376 0.73651 0.98421 0.0
C1109 C 0.62347 0.74478 0.96367 0.0
C1110 C 0.58979 0.72855 0.98378 0.0
C1111 C 0.57505 0.72849 0.96276 0.0
C1112 C 0.58488 0.73621 0.94207 0.0
C1113 C 0.6088 0.74434 0.94253 0.0
C1114 C 0.51368 0.70042 0.94279 0.0
C1115 C 0.49991 0.70895 0.961 0.0
C1116 C 0.53809 0.70649 0.94351 0.0
C1117 C 0.54934 0.7211 0.96253 0.0
C1118 C 0.53572 0.72921 0.98101 0.0
C1119 C 0.51126 0.72326 0.98022 0.0
H1120 H 0.62187 0.38484 0.30244 0.0
H1121 H 0.55227 0.35543 0.27501 0.0
H1122 H 0.60788 0.42471 0.30195 0.0
H1123 H 0.53838 0.39544 0.2743 0.0
H1124 H 0.51772 0.46858 0.30809 0.0
H1125 H 0.53002 0.42788 0.30374 0.0
H1126 H 0.59459 0.45348 0.27385 0.0
H1127 H 0.5823 0.49399 0.27811 0.0
C1128 C 0.60365 0.38687 0.29609 0.0
C1129 C 0.5882 0.36693 0.2888 0.0
C1130 C 0.59566 0.40974 0.2957 0.0
C1131 C 0.57201 0.41321 0.28808 0.0
C1132 C 0.55662 0.39331 0.28048 0.0
C1133 C 0.56465 0.37041 0.28076 0.0
C1134 C 0.53433 0.46542 0.30022 0.0
C1135 C 0.54919 0.48449 0.29372 0.0
C1136 C 0.54139 0.44214 0.29774 0.0
C1137 C 0.56342 0.43752 0.28872 0.0
C1138 C 0.57776 0.45652 0.28132 0.0
C1139 C 0.57071 0.47971 0.28375 0.0
H1140 H 0.99411 0.23757 0.74997 0.0
H1141 H 0.06572 0.24522 0.72736 0.0
H1142 H 0.99589 0.19465 0.74776 0.0
H1143 H 0.06779 0.20219 0.7259 0.0
H1144 H 0.05009 0.12562 0.69458 0.0
H1145 H 0.05122 0.16866 0.70106 0.0
H1146 H 0.013 0.16134 0.76449 0.0
H1147 H 0.01151 0.11814 0.75764 0.0
C1148 C 0.01041 0.23012 0.74492 0.0
C1149 C 0.02971 0.24486 0.73867 0.0
C1150 C 0.01147 0.20545 0.74378 0.0
C1151 C 0.03193 0.19488 0.7365 0.0
C1152 C 0.05159 0.20969 0.73114 0.0
C1153 C 0.05047 0.23438 0.73214 0.0
C1154 C 0.04218 0.13321 0.71007 0.0
C1155 C 0.0307 0.11851 0.7256 0.0
C1156 C 0.04289 0.15791 0.71385 0.0
C1157 C 0.03225 0.16854 0.73334 0.0
C1158 C 0.02109 0.15379 0.74911 0.0
C1159 C 0.02025 0.12905 0.74523 0.0
H1160 H 0.44769 0.74969 0.25506 0.0
H1161 H 0.38036 0.77212 0.22685 0.0
H1162 H 0.46021 0.79088 0.26812 0.0
H1163 H 0.3929 0.81322 0.24011 0.0
H1164 H 0.41518 0.87948 0.29005 0.0
H1165 H 0.40326 0.83766 0.2798 0.0
H1166 H 0.46927 0.82906 0.24671 0.0
H1167 H 0.48095 0.87106 0.25612 0.0
C1168 C 0.43551 0.76337 0.25177 0.0
C1169 C 0.41304 0.75766 0.23988 0.0
C1170 C 0.44274 0.78693 0.25916 0.0
C1171 C 0.42751 0.80517 0.25513 0.0
C1172 C 0.4049 0.79944 0.24361 0.0
C1173 C 0.3978 0.77594 0.23591 0.0
C1174 C 0.42713 0.86875 0.28046 0.0
C1175 C 0.44897 0.87874 0.27376 0.0
C1176 C 0.4203 0.8448 0.27468 0.0
C1177 C 0.43531 0.83022 0.26239 0.0
C1178 C 0.45747 0.8399 0.25638 0.0
C1179 C 0.46418 0.86394 0.26188 0.0
H1180 H 0.92763 0.61334 0.76338 0.0
H1181 H -0.00063 0.62249 0.74138 0.0
H1182 H 0.9265 0.57116 0.75091 0.0
H1183 H 0.99817 0.58019 0.72892 0.0
H1184 H 0.99366 0.4984 0.74092 0.0
H1185 H 0.99612 0.54145 0.74951 0.0
H1186 H 0.927 0.54513 0.71313 0.0
H1187 H 0.92471 0.50229 0.70402 0.0
C1188 C 0.94311 0.60639 0.75577 0.0
C1189 C 0.96359 0.62128 0.7534 0.0
C1190 C 0.94241 0.58225 0.74852 0.0
C1191 C 0.96225 0.57241 0.73895 0.0
C1192 C 0.98269 0.58728 0.7364 0.0
C1193 C 0.9833 0.61151 0.74341 0.0
C1194 C 0.97918 0.50843 0.73438 0.0
C1195 C 0.95888 0.49683 0.72199 0.0
C1196 C 0.98058 0.53308 0.73934 0.0
C1197 C 0.96165 0.54658 0.73216 0.0
C1198 C 0.94167 0.5351 0.71923 0.0
C1199 C 0.94036 0.51055 0.7141 0.0
H1200 H 0.66644 0.44093 0.62965 0.0
H1201 H 0.72768 0.40142 0.61549 0.0
H1202 H 0.6647 0.4532 0.58893 0.0
H1203 H 0.72604 0.41414 0.57468 0.0
H1204 H 0.72459 0.46327 0.51009 0.0
H1205 H 0.72892 0.45504 0.55239 0.0
H1206 H 0.65585 0.42681 0.54854 0.0
H1207 H 0.65171 0.43458 0.50633 0.0
C1208 C 0.67974 0.43514 0.61796 0.0
C1209 C 0.69716 0.42011 0.62574 0.0
C1210 C 0.67866 0.44211 0.59466 0.0
C1211 C 0.6952 0.43456 0.57877 0.0
C1212 C 0.71318 0.42029 0.58671 0.0
C1213 C 0.71402 0.41293 0.60996 0.0
C1214 C 0.70948 0.4555 0.51845 0.0
C1215 C 0.68783 0.44953 0.50514 0.0
C1216 C 0.71198 0.45068 0.54248 0.0
C1217 C 0.6927 0.44034 0.55359 0.0
C1218 C 0.67091 0.43495 0.54037 0.0
C1219 C 0.66856 0.4393 0.5163 0.0
H1220 H 0.78798 0.5795 0.27319 0.0
H1221 H 0.77854 0.65022 0.25106 0.0
H1222 H 0.78622 0.56427 0.23163 0.0
H1223 H 0.77713 0.6352 0.20948 0.0
H1224 H 0.74661 0.59806 0.14034 0.0
H1225 H 0.75009 0.61152 0.18229 0.0
H1226 H 0.80582 0.56382 0.19477 0.0
H1227 H 0.80176 0.54989 0.15258 0.0
C1228 C 0.78627 0.5919 0.2594 0.0
C1229 C 0.78383 0.61611 0.26529 0.0
C1230 C 0.7851 0.58316 0.23558 0.0
C1231 C 0.78139 0.59847 0.21718 0.0
C1232 C 0.77954 0.62281 0.22318 0.0
C1233 C 0.78053 0.63148 0.24697 0.0
C1234 C 0.75956 0.59043 0.15209 0.0
C1235 C 0.77409 0.57312 0.14325 0.0
C1236 C 0.76169 0.59825 0.1761 0.0
C1237 C 0.77855 0.5891 0.19186 0.0
C1238 C 0.7926 0.57119 0.18314 0.0
C1239 C 0.79031 0.5632 0.15904 0.0
H1240 H 0.23533 0.01434 0.32253 0.0
H1241 H 0.23556 0.0894 0.34224 0.0
H1242 H 0.2288 0.00542 0.36357 0.0
H1243 H 0.22919 0.08052 0.38337 0.0
H1244 H 0.19817 0.05501 0.4505 0.0
H1245 H 0.19801 0.06003 0.40783 0.0
H1246 H 0.2551 0.01311 0.40233 0.0
H1247 H 0.25588 0.00863 0.4451 0.0
C1248 C 0.23335 0.02889 0.33552 0.0
C1249 C 0.23547 0.05254 0.32919 0.0
C1250 C 0.22992 0.02379 0.35903 0.0
C1251 C 0.22839 0.04227 0.37659 0.0
C1252 C 0.22999 0.06592 0.37011 0.0
C1253 C 0.23374 0.07101 0.34666 0.0
C1254 C 0.21066 0.04569 0.4402 0.0
C1255 C 0.22725 0.03165 0.45131 0.0
C1256 C 0.2105 0.04854 0.41578 0.0
C1257 C 0.22667 0.03712 0.40187 0.0
C1258 C 0.24232 0.02199 0.41264 0.0
C1259 C 0.24269 0.01935 0.43714 0.0
H1260 H 0.28526 0.93521 0.72848 0.0
H1261 H 0.29336 0.01187 0.73325 0.0
H1262 H 0.2976 0.9351 0.77097 0.0
H1263 H 0.30587 0.01176 0.77544 0.0
H1264 H 0.29032 -1e-05 0.85359 0.0
H1265 H 0.28237 -0.00056 0.81069 0.0
H1266 H 0.33444 0.94766 0.80074 0.0
H1267 H 0.34326 0.94879 0.84386 0.0
C1268 C 0.29009 0.95197 0.73854 0.0
C1269 C 0.28883 0.97353 0.72754 0.0
C1270 C 0.29721 0.95191 0.76275 0.0
C1271 C 0.30267 0.97343 0.77641 0.0
C1272 C 0.30173 0.99494 0.76529 0.0
C1273 C 0.29491 0.99498 0.74109 0.0
C1274 C 0.30045 0.98878 0.84235 0.0
C1275 C 0.31766 0.97464 0.85226 0.0
C1276 C 0.29579 0.98841 0.81776 0.0
C1277 C 0.30793 0.97365 0.80246 0.0
C1278 C 0.32479 0.95913 0.81222 0.0
C1279 C 0.32974 0.95973 0.83689 0.0
H1280 H 0.62013 0.72786 0.39755 0.0
H1281 H 0.65353 0.68691 0.45091 0.0
H1282 H 0.58172 0.7204 0.4146 0.0
H1283 H 0.61504 0.67901 0.46744 0.0
H1284 H 0.53472 0.64346 0.45509 0.0
H1285 H 0.57531 0.65463 0.44476 0.0
H1286 H 0.56292 0.72871 0.45826 0.0
H1287 H 0.52254 0.71744 0.46929 0.0
C1288 C 0.6193 0.71752 0.41304 0.0
C1289 C 0.63978 0.70799 0.42292 0.0
C1290 C 0.5974 0.71334 0.42281 0.0
C1291 C 0.59559 0.69913 0.44224 0.0
C1292 C 0.6161 0.69001 0.45244 0.0
C1293 C 0.63807 0.69464 0.44304 0.0
C1294 C 0.54094 0.66206 0.45629 0.0
C1295 C 0.52581 0.67963 0.46311 0.0
C1296 C 0.56403 0.66843 0.45043 0.0
C1297 C 0.57207 0.6925 0.45075 0.0
C1298 C 0.55703 0.71006 0.45792 0.0
C1299 C 0.53411 0.70364 0.46431 0.0
H1300 H 0.72489 0.28705 0.93779 0.0
H1301 H 0.73482 0.29417 0.01442 0.0
H1302 H 0.76624 0.30152 0.93492 0.0
H1303 H 0.77609 0.30817 0.01176 0.0
H1304 H 0.84663 0.34607 0.00083 0.0
H1305 H 0.80357 0.33878 0.00129 0.0
H1306 H 0.80432 0.28685 0.94174 0.0
H1307 H 0.8471 0.29469 0.94097 0.0
C1308 C 0.73588 0.29201 0.954 0.0
C1309 C 0.72658 0.28997 0.97631 0.0
C1310 C 0.75958 0.30015 0.9524 0.0
C1311 C 0.77457 0.30599 0.97311 0.0
C1312 C 0.765 0.30436 0.99542 0.0
C1313 C 0.74127 0.29642 0.99698 0.0
C1314 C 0.83748 0.33323 0.98778 0.0
C1315 C 0.85017 0.32094 0.97088 0.0
C1316 C 0.81284 0.32899 0.98805 0.0
C1317 C 0.80042 0.31217 0.97159 0.0
C1318 C 0.81316 0.30025 0.9544 0.0
C1319 C 0.83772 0.30466 0.954 0.0
H1320 H 0.24845 0.77613 0.65432 0.0
H1321 H 0.27566 0.78176 0.58497 0.0
H1322 H 0.20803 0.77893 0.63688 0.0
H1323 H 0.23524 0.78471 0.56751 0.0
H1324 H 0.15639 0.75227 0.54735 0.0
H1325 H 0.19826 0.7557 0.56176 0.0
H1326 H 0.18316 0.80874 0.61614 0.0
H1327 H 0.14147 0.80587 0.60142 0.0
C1328 C 0.24578 0.77832 0.63541 0.0
C1329 C 0.26517 0.7792 0.62106 0.0
C1330 C 0.22271 0.78003 0.62545 0.0
C1331 C 0.21855 0.78218 0.60086 0.0
C1332 C 0.23797 0.78311 0.58651 0.0
C1333 C 0.26109 0.78173 0.59654 0.0
C1334 C 0.16208 0.76511 0.56197 0.0
C1335 C 0.14549 0.77857 0.57341 0.0
C1336 C 0.18605 0.76701 0.57027 0.0
C1337 C 0.19386 0.78228 0.59025 0.0
C1338 C 0.17753 0.79654 0.60096 0.0
C1339 C 0.15366 0.79483 0.59254 0.0
H1340 H 0.3127 0.23142 0.01956 0.0
H1341 H 0.32572 0.24054 0.0959 0.0
H1342 H 0.35524 0.22957 0.0152 0.0
H1343 H 0.36826 0.23842 0.09167 0.0
H1344 H 0.44129 0.26727 0.0744 0.0
H1345 H 0.39857 0.26453 0.0777 0.0
H1346 H 0.39077 0.2079 0.02204 0.0
H1347 H 0.43392 0.21101 0.0185 0.0
C1348 C 0.32459 0.23219 0.03545 0.0
C1349 C 0.31591 0.23574 0.0581 0.0
C1350 C 0.349 0.23129 0.03294 0.0
C1351 C 0.36519 0.23403 0.05306 0.0
C1352 C 0.35633 0.2367 0.07577 0.0
C1353 C 0.33197 0.23775 0.07824 0.0
C1354 C 0.43047 0.25413 0.06294 0.0
C1355 C 0.44092 0.23916 0.04638 0.0
C1356 C 0.40598 0.25247 0.06491 0.0
C1357 C 0.39126 0.2357 0.05044 0.0
C1358 C 0.40163 0.22103 0.03343 0.0
C1359 C 0.42627 0.2228 0.03137 0.0
H1360 H 0.4275 0.66218 0.68718 0.0
H1361 H 0.35793 0.62749 0.66859 0.0
H1362 H 0.44582 0.62629 0.67326 0.0
H1363 H 0.37606 0.59165 0.65509 0.0
H1364 H 0.41173 0.53212 0.62251 0.0
H1365 H 0.40057 0.57316 0.62587 0.0
H1366 H 0.44782 0.58665 0.68921 0.0
H1367 H 0.45906 0.54562 0.68572 0.0
C1368 C 0.41612 0.64723 0.67938 0.0
C1369 C 0.39124 0.64784 0.67856 0.0
C1370 C 0.42662 0.62654 0.67173 0.0
C1371 C 0.41243 0.60612 0.66302 0.0
C1372 C 0.38757 0.60715 0.66132 0.0
C1373 C 0.37713 0.62768 0.66915 0.0
C1374 C 0.42009 0.54403 0.63686 0.0
C1375 C 0.436 0.53561 0.65406 0.0
C1376 C 0.41367 0.56749 0.63881 0.0
C1377 C 0.423 0.58305 0.65802 0.0
C1378 C 0.4404 0.57517 0.67412 0.0
C1379 C 0.44686 0.55165 0.67213 0.0
H1380 H 0.01585 0.73216 0.29463 0.0
H1381 H 0.9395 0.73047 0.28263 0.0
H1382 H 0.01666 0.77373 0.3096 0.0
H1383 H 0.94032 0.77225 0.29742 0.0
H1384 H 0.95215 0.84203 0.34605 0.0
H1385 H 0.95145 0.79927 0.33595 0.0
H1386 H 0.00718 0.81105 0.28827 0.0
H1387 H 0.00734 0.8537 0.29749 0.0
C1388 C -0.00081 0.74051 0.29582 0.0
C1389 C 0.97756 0.72804 0.28793 0.0
C1390 C -0.00031 0.76436 0.30407 0.0
C1391 C 0.97855 0.77614 0.30467 0.0
C1392 C 0.95683 0.76349 0.29736 0.0
C1393 C 0.95637 0.73969 0.28882 0.0
C1394 C 0.96414 0.83554 0.33327 0.0
C1395 C 0.97983 0.85139 0.32262 0.0
C1396 C 0.96378 0.81107 0.3276 0.0
C1397 C 0.97934 0.80192 0.31144 0.0
C1398 C 0.99526 0.81763 0.30109 0.0
C1399 C 0.9954 0.84208 0.30647 0.0
H1400 H 0.57931 0.28392 0.79762 0.0
H1401 H 0.64563 0.26146 0.77292 0.0
H1402 H 0.56273 0.24275 0.79361 0.0
H1403 H 0.62929 0.22039 0.76912 0.0
H1404 H 0.58712 0.15569 0.73689 0.0
H1405 H 0.60045 0.19758 0.7427 0.0
H1406 H 0.56466 0.20288 0.80815 0.0
H1407 H 0.5507 0.16076 0.80174 0.0
C1408 C 0.59058 0.2701 0.79206 0.0
C1409 C 0.61389 0.27583 0.7859 0.0
C1410 C 0.58101 0.24653 0.78957 0.0
C1411 C 0.59455 0.22829 0.78075 0.0
C1412 C 0.61815 0.23405 0.77542 0.0
C1413 C 0.62762 0.25754 0.77778 0.0
C1414 C 0.58185 0.16595 0.75233 0.0
C1415 C 0.56805 0.1551 0.76895 0.0
C1416 C 0.58967 0.18985 0.75582 0.0
C1417 C 0.58412 0.20346 0.7762 0.0
C1418 C 0.56926 0.19289 0.79228 0.0
C1419 C 0.56123 0.16886 0.78864 0.0
H1420 H 0.08427 0.3314 0.25034 0.0
H1421 H 0.00898 0.31884 0.23219 0.0
H1422 H 0.0811 0.37384 0.24671 0.0
H1423 H 0.00548 0.36139 0.22926 0.0
H1424 H 0.0122 0.43823 0.2065 0.0
H1425 H 0.01446 0.39519 0.20755 0.0
H1426 H 0.06633 0.40638 0.26765 0.0
H1427 H 0.06465 0.44916 0.26581 0.0
C1428 C 0.06705 0.33778 0.24544 0.0
C1429 C 0.04695 0.32187 0.24118 0.0
C1430 C 0.06515 0.36211 0.24358 0.0
C1431 C 0.04297 0.37115 0.23791 0.0
C1432 C 0.02289 0.35508 0.23329 0.0
C1433 C 0.02489 0.33067 0.23487 0.0
C1434 C 0.02392 0.43133 0.21998 0.0
C1435 C 0.0384 0.44688 0.23594 0.0
C1436 C 0.02522 0.40672 0.22064 0.0
C1437 C 0.04083 0.39725 0.2375 0.0
C1438 C 0.05463 0.41297 0.25398 0.0
C1439 C 0.05355 0.43749 0.25309 0.0
H1440 H 0.36267 0.53672 0.27732 0.0
H1441 H 0.38238 0.61203 0.28188 0.0
H1442 H 0.40454 0.52841 0.27699 0.0
H1443 H 0.42435 0.6036 0.28148 0.0
H1444 H 0.49114 0.5741 0.3216 0.0
H1445 H 0.45051 0.58496 0.31372 0.0
H1446 H 0.44177 0.5341 0.25298 0.0
H1447 H 0.48287 0.52393 0.26002 0.0
C1448 C 0.3759 0.55151 0.27786 0.0
C1449 C 0.36925 0.57508 0.27999 0.0
C1450 C 0.39986 0.54673 0.27759 0.0
C1451 C 0.41764 0.56541 0.2796 0.0
C1452 C 0.41096 0.58894 0.28041 0.0
C1453 C 0.38698 0.59373 0.28049 0.0
C1454 C 0.48086 0.56559 0.3062 0.0
C1455 C 0.49041 0.54801 0.29154 0.0
C1456 C 0.45751 0.57179 0.30175 0.0
C1457 C 0.44302 0.56032 0.28277 0.0
C1458 C 0.45254 0.54305 0.26786 0.0
C1459 C 0.47603 0.53712 0.27205 0.0
H1460 H 0.102 0.36434 0.73161 0.0
H1461 H 0.10759 0.38398 0.65928 0.0
H1462 H 0.06118 0.37527 0.73033 0.0
H1463 H 0.06617 0.39412 0.65761 0.0
H1464 H 0.00903 0.44511 0.67899 0.0
H1465 H 0.04571 0.42585 0.67379 0.0
H1466 H 0.02117 0.36911 0.71603 0.0
H1467 H 0.9852 0.38934 0.72272 0.0
C1468 C 0.09434 0.37049 0.7152 0.0
C1469 C 0.10821 0.37367 0.69568 0.0
C1470 C 0.07076 0.37661 0.71439 0.0
C1471 C 0.06034 0.3859 0.69395 0.0
C1472 C 0.07376 0.38755 0.67384 0.0
C1473 C 0.09746 0.38157 0.67472 0.0
C1474 C 0.01146 0.42858 0.68728 0.0
C1475 C 0.99428 0.41909 0.70168 0.0
C1476 C 0.03239 0.41726 0.68393 0.0
C1477 C 0.0366 0.39595 0.69464 0.0
C1478 C 0.01878 0.38571 0.70787 0.0
C1479 C 0.99795 0.3972 0.71146 0.0
H1480 H 0.86764 0.98131 0.73989 0.0
H1481 H 0.86703 0.99492 0.66531 0.0
H1482 H 0.90856 -0.00119 0.74577 0.0
H1483 H 0.90745 0.01253 0.67125 0.0
H1484 H 0.98691 0.02038 0.6827 0.0
H1485 H 0.94744 0.00011 0.67982 0.0
H1486 H 0.93129 0.03786 0.74515 0.0
H1487 H 0.97126 0.05761 0.74852 0.0
C1488 C 0.87619 0.98805 0.7248 0.0
C1489 C 0.8641 0.98664 0.70212 0.0
C1490 C 0.89957 0.99814 0.72818 0.0
C1491 C 0.91132 0.00688 0.70893 0.0
C1492 C 0.8991 0.00557 0.68636 0.0
C1493 C 0.87582 0.9956 0.683 0.0
C1494 C 0.97515 0.02404 0.69673 0.0
C1495 C 0.98225 0.04067 0.71582 0.0
C1496 C 0.9524 0.01262 0.69492 0.0
C1497 C 0.93613 0.01756 0.71212 0.0
C1498 C 0.94344 0.03359 0.73166 0.0
C1499 C 0.96625 0.04507 0.73346 0.0
H1500 H 0.63271 0.98229 0.33777 0.0
H1501 H 0.62844 0.98016 0.26087 0.0
H1502 H 0.59009 0.97043 0.33668 0.0
H1503 H 0.58634 0.9683 0.25988 0.0
H1504 H 0.50795 0.9739 0.26599 0.0
H1505 H 0.54993 0.98713 0.27095 0.0
H1506 H 0.56135 0.93524 0.32283 0.0
H1507 H 0.519 0.92233 0.31831 0.0
C1508 C 0.62274 0.97923 0.32069 0.0
C1509 C 0.63394 0.98228 0.29942 0.0
C1510 C 0.5984 0.97238 0.32007 0.0
C1511 C 0.58486 0.9687 0.2982 0.0
C1512 C 0.5962 0.97144 0.27702 0.0
C1513 C 0.62041 0.9781 0.27761 0.0
C1514 C 0.51929 0.96558 0.27877 0.0
C1515 C 0.51016 0.94702 0.29171 0.0
C1516 C 0.54339 0.973 0.28144 0.0
C1517 C 0.55896 0.96206 0.29711 0.0
C1518 C 0.54975 0.94404 0.31068 0.0
C1519 C 0.52558 0.93652 0.30793 0.0
H1520 H 0.27169 0.3757 0.61568 0.0
H1521 H 0.26857 0.356 0.54033 0.0
H1522 H 0.26857 0.41737 0.60718 0.0
H1523 H 0.26521 0.3975 0.53187 0.0
H1524 H 0.24334 0.47322 0.52545 0.0
H1525 H 0.23896 0.43221 0.53654 0.0
H1526 H 0.29787 0.44623 0.58917 0.0
H1527 H 0.3029 0.48698 0.57761 0.0
C1528 C 0.27001 0.38023 0.59736 0.0
C1529 C 0.27078 0.36264 0.57874 0.0
C1530 C 0.26831 0.40404 0.5925 0.0
C1531 C 0.26692 0.41065 0.5689 0.0
C1532 C 0.26617 0.39289 0.55024 0.0
C1533 C 0.26817 0.36913 0.55511 0.0
C1534 C 0.25546 0.46757 0.53931 0.0
C1535 C 0.27367 0.4834 0.55042 0.0
C1536 C 0.25282 0.44412 0.54574 0.0
C1537 C 0.26809 0.43605 0.56365 0.0
C1538 C 0.28566 0.45206 0.57547 0.0
C1539 C 0.2885 0.47544 0.56885 0.0
H1540 H 0.34032 0.62881 0.98149 0.0
H1541 H 0.26383 0.63037 0.98045 0.0
H1542 H 0.33591 0.58619 0.96932 0.0
H1543 H 0.25958 0.58824 0.96844 0.0
H1544 H 0.26076 0.50924 0.97555 0.0
H1545 H 0.26893 0.55113 0.98818 0.0
H1546 H 0.31871 0.55827 0.93364 0.0
H1547 H 0.3108 0.51601 0.92116 0.0
C1548 C 0.32263 0.62013 0.97858 0.0
C1549 C 0.30244 0.63295 0.98205 0.0
C1550 C 0.32012 0.5958 0.97157 0.0
C1551 C 0.29741 0.58389 0.96821 0.0
C1552 C 0.27731 0.59685 0.9713 0.0
C1553 C 0.27979 0.62106 0.97805 0.0
C1554 C 0.27375 0.51961 0.96649 0.0
C1555 C 0.28511 0.50934 0.94734 0.0
C1556 C 0.27826 0.54365 0.97358 0.0
C1557 C 0.29431 0.55798 0.96176 0.0
C1558 C 0.30631 0.5476 0.94311 0.0
C1559 C 0.30164 0.52351 0.93586 0.0
H1560 H 0.66443 0.11423 0.39919 0.0
H1561 H 0.73807 0.10999 0.38378 0.0
H1562 H 0.66289 0.07284 0.40956 0.0
H1563 H 0.73679 0.06919 0.3948 0.0
H1564 H 0.72745 0.992 0.40415 0.0
H1565 H 0.72213 0.02921 0.38565 0.0
H1566 H 0.67826 0.05151 0.44187 0.0
H1567 H 0.68232 0.01366 0.45952 0.0
C1568 C 0.6802 0.10442 0.39779 0.0
C1569 C 0.70142 0.11548 0.39084 0.0
C1570 C 0.67938 0.08075 0.40389 0.0
C1571 C 0.69976 0.06767 0.40321 0.0
C1572 C 0.72064 0.07851 0.39526 0.0
C1573 C 0.72143 0.10206 0.38909 0.0
C1574 C 0.71616 0.00456 0.41226 0.0
C1575 C 0.70551 -0.00012 0.4335 0.0
C1576 C 0.71335 0.02606 0.40179 0.0
C1577 C 0.70002 0.04354 0.41241 0.0
C1578 C 0.68853 0.03844 0.43307 0.0
C1579 C 0.69117 0.01685 0.44343 0.0
H1580 H 0.65927 0.86668 0.9908 0.0
H1581 H 0.73339 0.85877 0.97939 0.0
H1582 H 0.66905 0.90686 0.00791 0.0
H1583 H 0.74317 0.89944 0.99637 0.0
H1584 H 0.75107 0.96285 0.05455 0.0
H1585 H 0.74382 0.92289 0.03517 0.0
H1586 H 0.68243 0.94566 0.99534 0.0
H1587 H 0.68914 0.98519 0.01524 0.0
C1588 C 0.67768 0.87354 0.99184 0.0
C1589 C 0.69555 0.8595 0.98368 0.0
C1590 C 0.68325 0.89668 0.00152 0.0
C1591 C 0.70685 0.90642 0.00333 0.0
C1592 C 0.72482 0.89238 0.99532 0.0
C1593 C 0.71922 0.86915 0.98552 0.0
C1594 C 0.73605 0.95929 0.04163 0.0
C1595 C 0.72063 0.97718 0.03652 0.0
C1596 C 0.73203 0.93648 0.03037 0.0
C1597 C 0.71245 0.93107 0.01384 0.0
C1598 C 0.69749 0.94917 0.00823 0.0
C1599 C 0.70151 0.97192 0.01943 0.0
H1600 H 0.54979 0.28169 0.36301 0.0
H1601 H 0.62322 0.27598 0.38688 0.0
H1602 H 0.53851 0.28012 0.40392 0.0
H1603 H 0.61201 0.27533 0.42804 0.0
H1604 H 0.58104 0.31623 0.49452 0.0
H1605 H 0.59478 0.30863 0.45484 0.0
H1606 H 0.53884 0.25319 0.43948 0.0
H1607 H 0.5256 0.25993 0.47953 0.0
C1608 C 0.56352 0.27981 0.37693 0.0
C1609 C 0.58754 0.27956 0.37179 0.0
C1610 C 0.55703 0.27887 0.40036 0.0
C1611 C 0.57444 0.27793 0.41914 0.0
C1612 C 0.59829 0.27641 0.4139 0.0
C1613 C 0.60471 0.27687 0.39039 0.0
C1614 C 0.57199 0.302 0.48299 0.0
C1615 C 0.55203 0.28887 0.49027 0.0
C1616 C 0.57987 0.2977 0.46022 0.0
C1617 C 0.5678 0.28039 0.44411 0.0
C1618 C 0.54831 0.2668 0.45151 0.0
C1619 C 0.54064 0.27082 0.4744 0.0
H1620 H 0.00508 0.34081 0.64046 0.0
H1621 H 0.98006 0.26833 0.64973 0.0
H1622 H 0.98784 0.33687 0.59932 0.0
H1623 H 0.96368 0.26419 0.6089 0.0
H1624 H 0.91971 0.26615 0.54155 0.0
H1625 H 0.93285 0.27605 0.58289 0.0
H1626 H 0.99409 0.31687 0.5612 0.0
H1627 H 0.98003 0.30828 0.51957 0.0
C1628 C 0.99585 0.32411 0.63377 0.0
C1629 C 0.99394 0.3049 0.64839 0.0
C1630 C 0.98611 0.32179 0.61017 0.0
C1631 C 0.97428 0.30023 0.60076 0.0
C1632 C 0.9722 0.28122 0.61559 0.0
C1633 C 0.9818 0.28355 0.63905 0.0
C1634 C 0.93565 0.27776 0.54546 0.0
C1635 C 0.94881 0.28633 0.52707 0.0
C1636 C 0.94341 0.28315 0.56928 0.0
C1637 C 0.96473 0.29698 0.57545 0.0
C1638 C 0.97752 0.30626 0.55713 0.0
C1639 C 0.96962 0.30104 0.53323 0.0
H1640 H 0.39275 0.65787 0.11942 0.0
H1641 H 0.37497 0.7299 0.10887 0.0
H1642 H 0.40291 0.65317 0.07799 0.0
H1643 H 0.38576 0.72552 0.068 0.0
H1644 H 0.39446 0.71015 0.99119 0.0
H1645 H 0.37652 0.70748 0.02911 0.0
H1646 H 0.43421 0.66707 0.05479 0.0
H1647 H 0.4513 0.66842 0.01638 0.0
C1648 C 0.39085 0.67263 0.10824 0.0
C1649 C 0.3832 0.69431 0.11752 0.0
C1650 C 0.3968 0.67 0.08452 0.0
C1651 C 0.39529 0.689 0.0696 0.0
C1652 C 0.38683 0.71036 0.07876 0.0
C1653 C 0.38081 0.71294 0.10235 0.0
C1654 C 0.40301 0.70014 0.00468 0.0
C1655 C 0.42453 0.68976 0.00076 0.0
C1656 C 0.39287 0.69888 0.02659 0.0
C1657 C 0.40409 0.68738 0.04522 0.0
C1658 C 0.42496 0.67598 0.04088 0.0
C1659 C 0.43498 0.67706 0.01891 0.0
H1660 H 0.03125 0.73087 0.84952 0.0
H1661 H 0.96298 0.71132 0.87578 0.0
H1662 H 0.04867 0.73649 0.89025 0.0
H1663 H 0.98058 0.71647 0.91655 0.0
H1664 H 0.01827 0.74342 0.98888 0.0
H1665 H -0.00058 0.74406 0.94862 0.0
H1666 H 0.05835 0.70906 0.92025 0.0
H1667 H 0.077 0.70838 0.96016 0.0
C1668 C 0.01989 0.72799 0.86398 0.0
C1669 C 0.99579 0.72038 0.85936 0.0
C1670 C 0.02992 0.73107 0.88734 0.0
C1671 C 0.01611 0.72655 0.90665 0.0
C1672 C 0.9917 0.72019 0.9021 0.0
C1673 C 0.98164 0.71715 0.8787 0.0
C1674 C 0.02711 0.73582 0.97401 0.0
C1675 C 0.04925 0.72607 0.97771 0.0
C1676 C 0.01635 0.73622 0.95097 0.0
C1677 C 0.02751 0.72686 0.93119 0.0
C1678 C 0.04954 0.71697 0.93499 0.0
C1679 C 0.06023 0.71656 0.95792 0.0
H1680 H 0.59479 0.41105 0.64307 0.0
H1681 H 0.59683 0.42657 0.71922 0.0
H1682 H 0.55541 0.42606 0.6389 0.0
H1683 H 0.55713 0.44159 0.71492 0.0
H1684 H 0.47554 0.44543 0.69571 0.0
H1685 H 0.51397 0.42811 0.70171 0.0
H1686 H 0.54066 0.46715 0.6445 0.0
H1687 H 0.50228 0.48429 0.6384 0.0
C1688 C 0.58678 0.41752 0.65897 0.0
C1689 C 0.59909 0.41792 0.68146 0.0
C1690 C 0.56425 0.42621 0.65653 0.0
C1691 C 0.55338 0.43532 0.67653 0.0
C1692 C 0.56513 0.43468 0.69919 0.0
C1693 C 0.58785 0.42613 0.70164 0.0
C1694 C 0.48964 0.45025 0.68441 0.0
C1695 C 0.48592 0.46614 0.66652 0.0
C1696 C 0.51164 0.44047 0.68796 0.0
C1697 C 0.53022 0.44616 0.67347 0.0
C1698 C 0.52655 0.46222 0.65574 0.0
C1699 C 0.50468 0.4722 0.65239 0.0
H1700 H 0.87784 0.5403 0.27259 0.0
H1701 H 0.90989 0.60988 0.26146 0.0
H1702 H 0.91349 0.5223 0.25988 0.0
H1703 H 0.94544 0.59181 0.2486 0.0
H1704 H 0.01416 0.55147 0.25991 0.0
H1705 H 0.97794 0.57077 0.26805 0.0
H1706 H 0.93657 0.51584 0.22404 0.0
H1707 H 0.97291 0.49666 0.21546 0.0
C1708 C 0.89242 0.55174 0.2673 0.0
C1709 C 0.89107 0.57653 0.26816 0.0
C1710 C 0.91278 0.54141 0.25987 0.0
C1711 C 0.93227 0.55565 0.25326 0.0
C1712 C 0.93079 0.58041 0.25381 0.0
C1713 C 0.91038 0.59073 0.26109 0.0
C1714 C 0.99744 0.54375 0.25151 0.0
C1715 C 0.99649 0.52246 0.23704 0.0
C1716 C 0.97665 0.5548 0.25625 0.0
C1717 C 0.95441 0.54476 0.24677 0.0
C1718 C 0.95345 0.5238 0.23187 0.0
C1719 C 0.97426 0.51282 0.22698 0.0
H1720 H 0.14526 0.96052 0.30733 0.0
H1721 H 0.11404 0.02759 0.32047 0.0
H1722 H 0.10792 0.93943 0.31543 0.0
H1723 H 0.07677 0.00645 0.32875 0.0
H1724 H 0.0075 0.95806 0.30974 0.0
H1725 H 0.04493 0.98088 0.30568 0.0
H1726 H 0.08204 0.93248 0.34863 0.0
H1727 H 0.04453 0.90979 0.35302 0.0
C1728 C 0.13048 0.97077 0.31206 0.0
C1729 C 0.1326 0.99573 0.31316 0.0
C1730 C 0.10914 0.95868 0.31686 0.0
C1731 C 0.08941 0.97129 0.32273 0.0
C1732 C 0.0916 0.99625 0.32405 0.0
C1733 C 0.11299 0.00835 0.3194 0.0
C1734 C 0.02355 0.95255 0.31875 0.0
C1735 C 0.02302 0.93203 0.33164 0.0
C1736 C 0.04501 0.9656 0.31636 0.0
C1737 C 0.06644 0.95838 0.32671 0.0
C1738 C 0.06585 0.93825 0.34013 0.0
C1739 C 0.04438 0.92527 0.34263 0.0
H1740 H 0.41115 0.99584 0.72887 0.0
H1741 H 0.38363 0.06546 0.72799 0.0
H1742 H 0.45083 0.01408 0.74021 0.0
H1743 H 0.42349 0.0837 0.73928 0.0
H1744 H 0.4955 0.10501 0.78205 0.0
H1745 H 0.4551 0.08705 0.77327 0.0
H1746 H 0.48072 0.03859 0.72005 0.0
H1747 H 0.52079 0.05676 0.72826 0.0
C1748 C 0.41353 0.01504 0.73118 0.0
C1749 C 0.39423 0.0292 0.72738 0.0
C1750 C 0.4363 0.02548 0.73758 0.0
C1751 C 0.4403 0.05032 0.74052 0.0
C1752 C 0.42092 0.0645 0.73731 0.0
C1753 C 0.39813 0.05405 0.7307 0.0
C1754 C 0.4925 0.09063 0.76837 0.0
C1755 C 0.51152 0.08225 0.75602 0.0
C1756 C 0.46936 0.08034 0.76338 0.0
C1757 C 0.46478 0.06132 0.74608 0.0
C1758 C 0.48375 0.05293 0.73379 0.0
C1759 C 0.50678 0.06332 0.7386 0.0
H1760 H 0.73566 0.61802 0.40469 0.0
H1761 H 0.65906 0.6183 0.40343 0.0
H1762 H 0.733 0.57587 0.41293 0.0
H1763 H 0.65654 0.5765 0.41153 0.0
H1764 H 0.66653 0.51722 0.46303 0.0
H1765 H 0.66972 0.55722 0.44922 0.0
H1766 H 0.71583 0.53396 0.39547 0.0
H1767 H 0.71265 0.49359 0.40943 0.0
C1768 C 0.7183 0.60907 0.40593 0.0
C1769 C 0.69762 0.62159 0.40383 0.0
C1770 C 0.71678 0.58495 0.41049 0.0
C1771 C 0.69459 0.57309 0.41319 0.0
C1772 C 0.6739 0.58535 0.40996 0.0
C1773 C 0.67539 0.6093 0.4053 0.0
C1774 C 0.67744 0.52065 0.44834 0.0
C1775 C 0.68943 0.50238 0.43736 0.0
C1776 C 0.67908 0.54347 0.44029 0.0
C1777 C 0.69291 0.54862 0.4212 0.0
C1778 C 0.70509 0.53042 0.41026 0.0
C1779 C 0.70318 0.50739 0.41814 0.0
H1780 H 0.72828 0.38521 0.06683 0.0
H1781 H 0.73488 0.40593 0.99495 0.0
H1782 H 0.74037 0.42589 0.08212 0.0
H1783 H 0.747 0.44646 0.01028 0.0
H1784 H 0.73628 0.52044 0.04595 0.0
H1785 H 0.72705 0.47946 0.03068 0.0
H1786 H 0.77579 0.45565 0.08485 0.0
H1787 H 0.78559 0.49683 0.09989 0.0
C1788 C 0.73242 0.39839 0.0543 0.0
C1789 C 0.7305 0.39235 0.02966 0.0
C1790 C 0.73946 0.42165 0.06308 0.0
C1791 C 0.74453 0.43937 0.04738 0.0
C1792 C 0.74294 0.43324 0.02278 0.0
C1793 C 0.7361 0.40998 0.01402 0.0
C1794 C 0.74541 0.50658 0.05439 0.0
C1795 C 0.76183 0.51204 0.07409 0.0
C1796 C 0.74002 0.48305 0.04567 0.0
C1797 C 0.75073 0.46435 0.05653 0.0
C1798 C 0.76709 0.4697 0.07626 0.0
C1799 C 0.77265 0.49329 0.08488 0.0
H1800 H 0.28042 0.90883 0.61508 0.0
H1801 H 0.2792 0.87039 0.54627 0.0
H1802 H 0.26823 0.94401 0.59592 0.0
H1803 H 0.26722 0.90574 0.52711 0.0
H1804 H 0.22113 0.96614 0.5047 0.0
H1805 H 0.23269 0.93065 0.52381 0.0
H1806 H 0.28492 0.97346 0.56987 0.0
H1807 H 0.27366 0.00888 0.5506 0.0
C1808 C 0.2776 0.90788 0.59586 0.0
C1809 C 0.28083 0.8868 0.5822 0.0
C1810 C 0.27073 0.9281 0.58488 0.0
C1811 C 0.2668 0.92767 0.56 0.0
C1812 C 0.26988 0.90655 0.54634 0.0
C1813 C 0.27688 0.88635 0.55731 0.0
C1814 C 0.23522 0.96797 0.51876 0.0
C1815 C 0.24643 0.9904 0.52612 0.0
C1816 C 0.24182 0.94763 0.52972 0.0
C1817 C 0.2597 0.94925 0.54836 0.0
C1818 C 0.27084 0.97167 0.55579 0.0
C1819 C 0.26433 0.99198 0.54477 0.0
H1820 H 0.29699 0.14252 0.9628 0.0
H1821 H 0.3165 0.11075 0.02837 0.0
H1822 H 0.3045 0.1059 0.94029 0.0
H1823 H 0.32342 0.07387 0.00585 0.0
H1824 H 0.35395 0.01818 0.9555 0.0
H1825 H 0.34928 0.05572 0.9782 0.0
H1826 H 0.28634 0.06621 0.93344 0.0
H1827 H 0.29116 0.029 0.91076 0.0
C1828 C 0.30286 0.12772 0.97243 0.0
C1829 C 0.30602 0.12953 0.99739 0.0
C1830 C 0.30704 0.10666 0.95952 0.0
C1831 C 0.31439 0.08686 0.97127 0.0
C1832 C 0.31801 0.08884 0.99622 0.0
C1833 C 0.3139 0.10995 0.00914 0.0
C1834 C 0.33909 0.02851 0.95062 0.0
C1835 C 0.32304 0.02074 0.93124 0.0
C1836 C 0.33639 0.04999 0.96362 0.0
C1837 C 0.31752 0.06407 0.95754 0.0
C1838 C 0.30137 0.05611 0.93829 0.0
C1839 C 0.30411 0.03474 0.9253 0.0
H1840 H 0.46571 0.75796 0.61748 0.0
H1841 H 0.44701 0.68976 0.64407 0.0
H1842 H 0.45921 0.74058 0.5767 0.0
H1843 H 0.4405 0.67228 0.60317 0.0
H1844 H 0.47889 0.65231 0.53197 0.0
H1845 H 0.47125 0.66573 0.57262 0.0
H1846 H 0.42874 0.72022 0.54543 0.0
H1847 H 0.43629 0.70649 0.5046 0.0
C1848 C 0.4596 0.73937 0.61453 0.0
C1849 C 0.45655 0.72533 0.63385 0.0
C1850 C 0.45574 0.72945 0.59121 0.0
C1851 C 0.44921 0.7051 0.58674 0.0
C1852 C 0.44542 0.69112 0.60612 0.0
C1853 C 0.44894 0.70117 0.62951 0.0
C1854 C 0.46733 0.66668 0.53473 0.0
C1855 C 0.45816 0.67842 0.51532 0.0
C1856 C 0.46287 0.67431 0.55795 0.0
C1857 C 0.44948 0.69408 0.56219 0.0
C1858 C 0.43918 0.70498 0.54265 0.0
C1859 C 0.44336 0.69708 0.51935 0.0
H1860 H 0.99382 0.72471 0.41076 0.0
H1861 H 0.06405 0.72544 0.38449 0.0
H1862 H 0.01109 0.73735 0.45046 0.0
H1863 H 0.08136 0.73882 0.42416 0.0
H1864 H 0.10458 0.73573 0.50356 0.0
H1865 H 0.08832 0.72479 0.46301 0.0
H1866 H 0.03078 0.77041 0.47369 0.0
H1867 H 0.04687 0.78096 0.51439 0.0
C1868 C 0.01296 0.72775 0.41341 0.0
C1869 C 0.02755 0.72399 0.39444 0.0
C1870 C 0.02288 0.73518 0.43619 0.0
C1871 C 0.04765 0.73918 0.44058 0.0
C1872 C 0.06224 0.7356 0.42153 0.0
C1873 C 0.05231 0.72805 0.39874 0.0
C1874 C 0.0886 0.74362 0.49713 0.0
C1875 C 0.07696 0.75914 0.5122 0.0
C1876 C 0.07928 0.73738 0.47386 0.0
C1877 C 0.05816 0.74662 0.46503 0.0
C1878 C 0.04681 0.76257 0.48 0.0
C1879 C 0.05606 0.76868 0.50332 0.0
H1880 H 0.5764 0.23659 0.89203 0.0
H1881 H 0.55842 0.30969 0.90094 0.0
H1882 H 0.55767 0.22804 0.92865 0.0
H1883 H 0.54015 0.30123 0.93769 0.0
H1884 H 0.48722 0.27254 0.98781 0.0
H1885 H 0.50556 0.27958 0.9508 0.0
H1886 H 0.56303 0.23672 0.97178 0.0
H1887 H 0.54412 0.22888 0.00854 0.0
C1888 C 0.56852 0.25085 0.90182 0.0
C1889 C 0.56885 0.27381 0.8935 0.0
C1890 C 0.55791 0.24597 0.92289 0.0
C1891 C 0.54736 0.26393 0.93608 0.0
C1892 C 0.54779 0.2869 0.92778 0.0
C1893 C 0.55839 0.29177 0.90675 0.0
C1894 C 0.50358 0.26431 0.98441 0.0
C1895 C 0.51413 0.25002 0.0011 0.0
C1896 C 0.51427 0.26861 0.9633 0.0
C1897 C 0.53582 0.25881 0.95836 0.0
C1898 C 0.54632 0.24438 0.97495 0.0
C1899 C 0.53561 0.24007 0.99612 0.0
H1900 H 0.02544 0.31327 0.10718 0.0
H1901 H 0.95891 0.30193 0.13994 0.0
H1902 H 0.00374 0.31899 0.06941 0.0
H1903 H 0.93726 0.30819 0.10238 0.0
H1904 H 0.90666 0.29227 0.02609 0.0
H1905 H 0.92903 0.28779 0.06363 0.0
H1906 H 0.97842 0.34588 0.04929 0.0
H1907 H 0.95597 0.35024 0.01145 0.0
C1908 C 0.00619 0.31217 0.10639 0.0
C1909 C 0.99392 0.307 0.12656 0.0
C1910 C 0.99375 0.31559 0.08475 0.0
C1911 C 0.96875 0.31393 0.08281 0.0
C1912 C 0.95651 0.30918 0.10312 0.0
C1913 C 0.96893 0.30572 0.12472 0.0
C1914 C 0.92217 0.30424 0.03103 0.0
C1915 C 0.92941 0.32178 0.01589 0.0
C1916 C 0.93499 0.30169 0.05258 0.0
C1917 C 0.95541 0.31661 0.05962 0.0
C1918 C 0.96289 0.33395 0.04433 0.0
C1919 C 0.95004 0.33648 0.02267 0.0
loop_
_geom_bond_atom_site_label_1
_geom_bond_atom_site_label_2
_geom_bond_distance
_geom_bond_site_symmetry_2
_ccdc_geom_bond_type
O0 Cd1 2.300 . S
O0 C7 1.275 . S
Cd1 O0 2.300 . S
Cd1 O9 2.381 . S
Cd1 O10 2.378 . S
O2 Cd3 2.385 . S
O2 C7 1.255 . S
Cd3 O2 2.385 . S
Cd3 O4 2.317 . S
O4 Cd3 2.317 . S
O4 C5 1.232 . S
C5 O4 1.232 . S
C5 O6 1.218 . S
O6 C5 1.218 . S
C7 O0 1.275 . S
C7 O2 1.255 . S
C8 O9 1.258 . S
C8 O10 1.256 . S
O9 Cd1 2.381 . S
O9 C8 1.258 . S
O10 Cd1 2.378 . S
O10 C8 1.256 . S
O11 Cd12 2.300 . S
O11 C18 1.275 . S
Cd12 O11 2.300 . S
Cd12 O20 2.381 . S
Cd12 O21 2.378 . S
O13 Cd14 2.385 . S
O13 C18 1.255 . S
Cd14 O13 2.385 . S
Cd14 O15 2.317 . S
O15 Cd14 2.317 . S
O15 C16 1.232 . S
C16 O15 1.232 . S
C16 O17 1.218 . S
O17 C16 1.218 . S
C18 O11 1.275 . S
C18 O13 1.255 . S
C19 O20 1.258 . S
C19 O21 1.256 . S
O20 Cd12 2.381 . S
O20 C19 1.258 . S
O21 Cd12 2.378 . S
O21 C19 1.256 . S
O22 Cd23 2.300 . S
O22 C29 1.275 . S
Cd23 O22 2.300 . S
Cd23 O31 2.381 1_565 S
Cd23 O32 2.378 . S
O24 Cd25 2.385 . S
O24 C29 1.255 . S
Cd25 O24 2.385 . S
Cd25 O26 2.317 . S
O26 Cd25 2.317 . S
O26 C27 1.232 . S
C27 O26 1.232 . S
C27 O28 1.218 . S
O28 C27 1.218 . S
C29 O22 1.275 . S
C29 O24 1.255 . S
C30 O31 1.258 . S
C30 O32 1.256 1_545 S
O31 Cd23 2.381 1_545 S
O31 C30 1.258 . S
O32 Cd23 2.378 . S
O32 C30 1.256 1_565 S
O33 Cd34 2.300 . S
O33 C40 1.275 . S
Cd34 O33 2.300 . S
Cd34 O42 2.381 1_545 S
Cd34 O43 2.378 . S
O35 Cd36 2.385 . S
O35 C40 1.255 . S
Cd36 O35 2.385 . S
Cd36 O37 2.317 . S
O37 Cd36 2.317 . S
O37 C38 1.232 . S
C38 O37 1.232 . S
C38 O39 1.218 . S
O39 C38 1.218 . S
C40 O33 1.275 . S
C40 O35 1.255 . S
C41 O42 1.258 . S
C41 O43 1.256 1_565 S
O42 Cd34 2.381 1_565 S
O42 C41 1.258 . S
O43 Cd34 2.378 . S
O43 C41 1.256 1_545 S
O44 Cd45 2.300 . S
O44 C51 1.275 . S
Cd45 O44 2.300 . S
Cd45 O53 2.381 . S
Cd45 O54 2.378 . S
O46 Cd47 2.385 . S
O46 C51 1.255 . S
Cd47 O46 2.385 . S
Cd47 O48 2.317 . S
O48 Cd47 2.317 . S
O48 C49 1.232 . S
C49 O48 1.232 . S
C49 O50 1.218 . S
O50 C49 1.218 . S
C51 O44 1.275 . S
C51 O46 1.255 . S
C52 O53 1.258 . S
C52 O54 1.256 . S
O53 Cd45 2.381 . S
O53 C52 1.258 . S
O54 Cd45 2.378 . S
O54 C52 1.256 . S
O55 Cd56 2.300 . S
O55 C62 1.275 . S
Cd56 O55 2.300 . S
Cd56 O64 2.381 1_554 S
Cd56 O65 2.378 . S
O57 Cd58 2.385 . S
O57 C62 1.255 . S
Cd58 O57 2.385 . S
Cd58 O59 2.317 . S
O59 Cd58 2.317 . S
O59 C60 1.232 . S
C60 O59 1.232 . S
C60 O61 1.218 . S
O61 C60 1.218 . S
C62 O55 1.275 . S
C62 O57 1.255 . S
C63 O64 1.258 . S
C63 O65 1.256 1_556 S
O64 Cd56 2.381 1_556 S
O64 C63 1.258 . S
O65 Cd56 2.378 . S
O65 C63 1.256 1_554 S
O66 Cd67 2.300 . S
O66 C73 1.275 . S
Cd67 O66 2.300 . S
Cd67 O75 2.381 . S
Cd67 O76 2.378 . S
O68 Cd69 2.385 . S
O68 C73 1.255 . S
Cd69 O68 2.385 . S
Cd69 O70 2.317 . S
O70 Cd69 2.317 . S
O70 C71 1.232 . S
C71 O70 1.232 . S
C71 O72 1.218 . S
O72 C71 1.218 . S
C73 O66 1.275 . S
C73 O68 1.255 . S
C74 O75 1.258 . S
C74 O76 1.256 . S
O75 Cd67 2.381 . S
O75 C74 1.258 . S
O76 Cd67 2.378 . S
O76 C74 1.256 . S
O77 Cd78 2.300 . S
O77 C84 1.275 . S
Cd78 O77 2.300 . S
Cd78 O86 2.381 1_556 S
Cd78 O87 2.378 . S
O79 Cd80 2.385 . S
O79 C84 1.255 . S
Cd80 O79 2.385 . S
Cd80 O81 2.317 . S
O81 Cd80 2.317 . S
O81 C82 1.232 . S
C82 O81 1.232 . S
C82 O83 1.218 . S
O83 C82 1.218 . S
C84 O77 1.275 . S
C84 O79 1.255 . S
C85 O86 1.258 . S
C85 O87 1.256 1_554 S
O86 Cd78 2.381 1_554 S
O86 C85 1.258 . S
O87 Cd78 2.378 . S
O87 C85 1.256 1_556 S
O88 Cd89 2.300 . S
O88 C95 1.275 . S
Cd89 O88 2.300 . S
Cd89 O97 2.381 . S
Cd89 O98 2.378 . S
O90 Cd91 2.385 . S
O90 C95 1.255 . S
Cd91 O90 2.385 . S
Cd91 O92 2.317 . S
O92 Cd91 2.317 . S
O92 C93 1.232 . S
C93 O92 1.232 . S
C93 O94 1.218 . S
O94 C93 1.218 . S
C95 O88 1.275 . S
C95 O90 1.255 . S
C96 O97 1.258 . S
C96 O98 1.256 . S
O97 Cd89 2.381 . S
O97 C96 1.258 . S
O98 Cd89 2.378 . S
O98 C96 1.256 . S
O99 Cd100 2.300 . S
O99 C106 1.275 . S
Cd100 O99 2.300 . S
Cd100 O108 2.381 1_455 S
Cd100 O109 2.378 . S
O101 Cd102 2.385 . S
O101 C106 1.255 . S
Cd102 O101 2.385 . S
Cd102 O103 2.317 . S
O103 Cd102 2.317 . S
O103 C104 1.232 . S
C104 O103 1.232 . S
C104 O105 1.218 . S
O105 C104 1.218 . S
C106 O99 1.275 . S
C106 O101 1.255 . S
C107 O108 1.258 . S
C107 O109 1.256 1_655 S
O108 Cd100 2.381 1_655 S
O108 C107 1.258 . S
O109 Cd100 2.378 . S
O109 C107 1.256 1_455 S
O110 Cd111 2.300 . S
O110 C117 1.275 . S
Cd111 O110 2.300 . S
Cd111 O119 2.381 . S
Cd111 O120 2.378 . S
O112 Cd113 2.385 . S
O112 C117 1.255 . S
Cd113 O112 2.385 . S
Cd113 O114 2.317 . S
O114 Cd113 2.317 . S
O114 C115 1.232 . S
C115 O114 1.232 . S
C115 O116 1.218 . S
O116 C115 1.218 . S
C117 O110 1.275 . S
C117 O112 1.255 . S
C118 O119 1.258 . S
C118 O120 1.256 . S
O119 Cd111 2.381 . S
O119 C118 1.258 . S
O120 Cd111 2.378 . S
O120 C118 1.256 . S
O121 Cd122 2.300 . S
O121 C128 1.275 . S
Cd122 O121 2.300 . S
Cd122 O130 2.381 1_655 S
Cd122 O131 2.378 . S
O123 Cd124 2.385 . S
O123 C128 1.255 . S
Cd124 O123 2.385 . S
Cd124 O125 2.317 . S
O125 Cd124 2.317 . S
O125 C126 1.232 . S
C126 O125 1.232 . S
C126 O127 1.218 . S
O127 C126 1.218 . S
C128 O121 1.275 . S
C128 O123 1.255 . S
C129 O130 1.258 . S
C129 O131 1.256 1_455 S
O130 Cd122 2.381 1_455 S
O130 C129 1.258 . S
O131 Cd122 2.378 . S
O131 C129 1.256 1_655 S
O132 Cd133 2.300 . S
O132 C139 1.275 . S
Cd133 O132 2.300 . S
Cd133 O141 2.381 . S
Cd133 O142 2.378 . S
O134 Cd135 2.385 . S
O134 C139 1.255 . S
Cd135 O134 2.385 . S
Cd135 O136 2.317 . S
O136 Cd135 2.317 . S
O136 C137 1.232 . S
C137 O136 1.232 . S
C137 O138 1.218 . S
O138 C137 1.218 . S
C139 O132 1.275 . S
C139 O134 1.255 . S
C140 O141 1.258 . S
C140 O142 1.256 . S
O141 Cd133 2.381 . S
O141 C140 1.258 . S
O142 Cd133 2.378 . S
O142 C140 1.256 . S
O143 Cd144 2.300 . S
O143 C150 1.275 . S
Cd144 O143 2.300 . S
Cd144 O152 2.381 . S
Cd144 O153 2.378 . S
O145 Cd146 2.385 . S
O145 C150 1.255 . S
Cd146 O145 2.385 . S
Cd146 O147 2.317 . S
O147 Cd146 2.317 . S
O147 C148 1.232 . S
C148 O147 1.232 . S
C148 O149 1.218 . S
O149 C148 1.218 . S
C150 O143 1.275 . S
C150 O145 1.255 . S
C151 O152 1.258 . S
C151 O153 1.256 . S
O152 Cd144 2.381 . S
O152 C151 1.258 . S
O153 Cd144 2.378 . S
O153 C151 1.256 . S
O154 Cd155 2.300 1_545 S
O154 C161 1.275 . S
Cd155 O154 2.300 1_565 S
Cd155 O163 2.381 1_565 S
Cd155 O164 2.378 . S
O156 Cd157 2.385 . S
O156 C161 1.255 1_565 S
Cd157 O156 2.385 . S
Cd157 O158 2.317 . S
O158 Cd157 2.317 . S
O158 C159 1.232 . S
C159 O158 1.232 . S
C159 O160 1.218 . S
O160 C159 1.218 . S
C161 O154 1.275 . S
C161 O156 1.255 1_545 S
C162 O163 1.258 1_565 S
C162 O164 1.256 . S
O163 Cd155 2.381 1_545 S
O163 C162 1.258 1_545 S
O164 Cd155 2.378 . S
O164 C162 1.256 . S
O165 Cd166 2.300 1_565 S
O165 C172 1.275 . S
Cd166 O165 2.300 1_545 S
Cd166 O174 2.381 1_545 S
Cd166 O175 2.378 . S
O167 Cd168 2.385 . S
O167 C172 1.255 1_545 S
Cd168 O167 2.385 . S
Cd168 O169 2.317 . S
O169 Cd168 2.317 . S
O169 C170 1.232 . S
C170 O169 1.232 . S
C170 O171 1.218 . S
O171 C170 1.218 . S
C172 O165 1.275 . S
C172 O167 1.255 1_565 S
C173 O174 1.258 1_545 S
C173 O175 1.256 . S
O174 Cd166 2.381 1_565 S
O174 C173 1.258 1_565 S
O175 Cd166 2.378 . S
O175 C173 1.256 . S
O176 Cd177 2.300 . S
O176 C183 1.275 . S
Cd177 O176 2.300 . S
Cd177 O185 2.381 . S
Cd177 O186 2.378 . S
O178 Cd179 2.385 . S
O178 C183 1.255 . S
Cd179 O178 2.385 . S
Cd179 O180 2.317 . S
O180 Cd179 2.317 . S
O180 C181 1.232 . S
C181 O180 1.232 . S
C181 O182 1.218 . S
O182 C181 1.218 . S
C183 O176 1.275 . S
C183 O178 1.255 . S
C184 O185 1.258 . S
C184 O186 1.256 . S
O185 Cd177 2.381 . S
O185 C184 1.258 . S
O186 Cd177 2.378 . S
O186 C184 1.256 . S
O187 Cd188 2.300 1_556 S
O187 C194 1.275 . S
Cd188 O187 2.300 1_554 S
Cd188 O196 2.381 1_554 S
Cd188 O197 2.378 . S
O189 Cd190 2.385 . S
O189 C194 1.255 1_554 S
Cd190 O189 2.385 . S
Cd190 O191 2.317 . S
O191 Cd190 2.317 . S
O191 C192 1.232 . S
C192 O191 1.232 . S
C192 O193 1.218 . S
O193 C192 1.218 . S
C194 O187 1.275 . S
C194 O189 1.255 1_556 S
C195 O196 1.258 1_554 S
C195 O197 1.256 . S
O196 Cd188 2.381 1_556 S
O196 C195 1.258 1_556 S
O197 Cd188 2.378 . S
O197 C195 1.256 . S
O198 Cd199 2.300 . S
O198 C205 1.275 . S
Cd199 O198 2.300 . S
Cd199 O207 2.381 . S
Cd199 O208 2.378 . S
O200 Cd201 2.385 . S
O200 C205 1.255 . S
Cd201 O200 2.385 . S
Cd201 O202 2.317 . S
O202 Cd201 2.317 . S
O202 C203 1.232 . S
C203 O202 1.232 . S
C203 O204 1.218 . S
O204 C203 1.218 . S
C205 O198 1.275 . S
C205 O200 1.255 . S
C206 O207 1.258 . S
C206 O208 1.256 . S
O207 Cd199 2.381 . S
O207 C206 1.258 . S
O208 Cd199 2.378 . S
O208 C206 1.256 . S
O209 Cd210 2.300 1_554 S
O209 C216 1.275 . S
Cd210 O209 2.300 1_556 S
Cd210 O218 2.381 1_556 S
Cd210 O219 2.378 . S
O211 Cd212 2.385 . S
O211 C216 1.255 1_556 S
Cd212 O211 2.385 . S
Cd212 O213 2.317 . S
O213 Cd212 2.317 . S
O213 C214 1.232 . S
C214 O213 1.232 . S
C214 O215 1.218 . S
O215 C214 1.218 . S
C216 O209 1.275 . S
C216 O211 1.255 1_554 S
C217 O218 1.258 1_556 S
C217 O219 1.256 . S
O218 Cd210 2.381 1_554 S
O218 C217 1.258 1_554 S
O219 Cd210 2.378 . S
O219 C217 1.256 . S
O220 Cd221 2.300 . S
O220 C227 1.275 . S
Cd221 O220 2.300 . S
Cd221 O229 2.381 . S
Cd221 O230 2.378 . S
O222 Cd223 2.385 . S
O222 C227 1.255 . S
Cd223 O222 2.385 . S
Cd223 O224 2.317 . S
O224 Cd223 2.317 . S
O224 C225 1.232 . S
C225 O224 1.232 . S
C225 O226 1.218 . S
O226 C225 1.218 . S
C227 O220 1.275 . S
C227 O222 1.255 . S
C228 O229 1.258 . S
C228 O230 1.256 . S
O229 Cd221 2.381 . S
O229 C228 1.258 . S
O230 Cd221 2.378 . S
O230 C228 1.256 . S
O231 Cd232 2.300 1_655 S
O231 C238 1.275 . S
Cd232 O231 2.300 1_455 S
Cd232 O240 2.381 1_455 S
Cd232 O241 2.378 . S
O233 Cd234 2.385 . S
O233 C238 1.255 1_455 S
Cd234 O233 2.385 . S
Cd234 O235 2.317 . S
O235 Cd234 2.317 . S
O235 C236 1.232 . S
C236 O235 1.232 . S
C236 O237 1.218 . S
O237 C236 1.218 . S
C238 O231 1.275 . S
C238 O233 1.255 1_655 S
C239 O240 1.258 1_455 S
C239 O241 1.256 . S
O240 Cd232 2.381 1_655 S
O240 C239 1.258 1_655 S
O241 Cd232 2.378 . S
O241 C239 1.256 . S
O242 Cd243 2.300 . S
O242 C249 1.275 . S
Cd243 O242 2.300 . S
Cd243 O251 2.381 . S
Cd243 O252 2.378 . S
O244 Cd245 2.385 . S
O244 C249 1.255 . S
Cd245 O244 2.385 . S
Cd245 O246 2.317 . S
O246 Cd245 2.317 . S
O246 C247 1.232 . S
C247 O246 1.232 . S
C247 O248 1.218 . S
O248 C247 1.218 . S
C249 O242 1.275 . S
C249 O244 1.255 . S
C250 O251 1.258 . S
C250 O252 1.256 . S
O251 Cd243 2.381 . S
O251 C250 1.258 . S
O252 Cd243 2.378 . S
O252 C250 1.256 . S
O253 Cd254 2.300 1_455 S
O253 C260 1.275 . S
Cd254 O253 2.300 1_655 S
Cd254 O262 2.381 1_655 S
Cd254 O263 2.378 . S
O255 Cd256 2.385 . S
O255 C260 1.255 1_655 S
Cd256 O255 2.385 . S
Cd256 O257 2.317 . S
O257 Cd256 2.317 . S
O257 C258 1.232 . S
C258 O257 1.232 . S
C258 O259 1.218 . S
O259 C258 1.218 . S
C260 O253 1.275 . S
C260 O255 1.255 1_455 S
C261 O262 1.258 1_655 S
C261 O263 1.256 . S
O262 Cd254 2.381 1_455 S
O262 C261 1.258 1_455 S
O263 Cd254 2.378 . S
O263 C261 1.256 . S
H264 C267 0.931 . S
H265 C270 0.928 . S
H266 C272 0.930 . S
C267 H264 0.931 . S
C267 C268 1.413 . S
C267 C269 1.360 . S
C268 C267 1.413 . S
C268 C272 1.429 . S
C269 C267 1.360 . S
C269 C270 1.372 . S
C270 H265 0.928 . S
C270 C269 1.372 . S
C270 C271 1.404 . S
C271 C270 1.404 . S
C271 C272 1.391 . S
C272 H266 0.930 . S
C272 C268 1.429 . S
C272 C271 1.391 . S
H273 C276 0.931 . S
H274 C279 0.928 . S
H275 C281 0.930 . S
C276 H273 0.931 . S
C276 C277 1.413 . S
C276 C278 1.360 . S
C277 C276 1.413 . S
C277 C281 1.429 . S
C278 C276 1.360 . S
C278 C279 1.372 . S
C279 H274 0.928 . S
C279 C278 1.372 . S
C279 C280 1.404 . S
C280 C279 1.404 . S
C280 C281 1.391 . S
C281 H275 0.930 . S
C281 C277 1.429 . S
C281 C280 1.391 . S
H282 C285 0.931 . S
H283 C288 0.928 . S
H284 C290 0.930 . S
C285 H282 0.931 . S
C285 C286 1.413 . S
C285 C287 1.360 1_565 S
C286 C285 1.413 . S
C286 C290 1.429 . S
C287 C285 1.360 1_545 S
C287 C288 1.372 . S
C288 H283 0.928 . S
C288 C287 1.372 . S
C288 C289 1.404 . S
C289 C288 1.404 . S
C289 C290 1.391 1_545 S
C290 H284 0.930 . S
C290 C286 1.429 . S
C290 C289 1.391 1_565 S
H291 C294 0.931 . S
H292 C297 0.928 . S
H293 C299 0.930 . S
C294 H291 0.931 . S
C294 C295 1.413 . S
C294 C296 1.378 . S
C295 C294 1.413 . S
C295 C299 1.429 1_545 S
C296 C294 1.378 . S
C296 C297 1.355 1_545 S
C297 H292 0.928 . S
C297 C296 1.355 1_565 S
C297 C298 1.404 . S
C298 C297 1.404 . S
C298 C299 1.391 . S
C299 H293 0.930 . S
C299 C295 1.429 1_565 S
C299 C298 1.391 . S
H300 C303 0.931 . S
H301 C306 0.928 . S
H302 C308 0.930 . S
C303 H300 0.931 . S
C303 C304 1.413 . S
C303 C305 1.360 . S
C304 C303 1.413 . S
C304 C308 1.429 . S
C305 C303 1.360 . S
C305 C306 1.372 . S
C306 H301 0.928 . S
C306 C305 1.372 . S
C306 C307 1.404 . S
C307 C306 1.404 . S
C307 C308 1.391 . S
C308 H302 0.930 . S
C308 C304 1.429 . S
C308 C307 1.391 . S
H309 C312 0.931 . S
H310 C315 0.928 . S
H311 C317 0.930 . S
C312 H309 0.931 . S
C312 C313 1.413 . S
C312 C314 1.378 . S
C313 C312 1.413 . S
C313 C317 1.429 1_554 S
C314 C312 1.378 . S
C314 C315 1.355 1_554 S
C315 H310 0.928 . S
C315 C314 1.355 1_556 S
C315 C316 1.404 . S
C316 C315 1.404 . S
C316 C317 1.391 . S
C317 H311 0.930 . S
C317 C313 1.429 1_556 S
C317 C316 1.391 . S
H318 C321 0.931 . S
H319 C324 0.928 . S
H320 C326 0.930 . S
C321 H318 0.931 . S
C321 C322 1.413 . S
C321 C323 1.360 . S
C322 C321 1.413 . S
C322 C326 1.429 . S
C323 C321 1.360 . S
C323 C324 1.372 . S
C324 H319 0.928 . S
C324 C323 1.372 . S
C324 C325 1.404 . S
C325 C324 1.404 . S
C325 C326 1.391 . S
C326 H320 0.930 . S
C326 C322 1.429 . S
C326 C325 1.391 . S
H327 C330 0.931 . S
H328 C333 0.928 . S
H329 C335 0.930 . S
C330 H327 0.931 . S
C330 C331 1.413 . S
C330 C332 1.360 1_556 S
C331 C330 1.413 . S
C331 C335 1.429 . S
C332 C330 1.360 1_554 S
C332 C333 1.372 . S
C333 H328 0.928 . S
C333 C332 1.372 . S
C333 C334 1.404 . S
C334 C333 1.404 . S
C334 C335 1.391 1_554 S
C335 H329 0.930 . S
C335 C331 1.429 . S
C335 C334 1.391 1_556 S
H336 C339 0.931 . S
H337 C342 0.928 . S
H338 C344 0.930 . S
C339 H336 0.931 . S
C339 C340 1.413 . S
C339 C341 1.360 . S
C340 C339 1.413 . S
C340 C344 1.429 . S
C341 C339 1.360 . S
C341 C342 1.372 . S
C342 H337 0.928 . S
C342 C341 1.372 . S
C342 C343 1.404 . S
C343 C342 1.404 . S
C343 C344 1.391 . S
C344 H338 0.930 . S
C344 C340 1.429 . S
C344 C343 1.391 . S
H345 C348 0.931 . S
H346 C351 0.928 . S
H347 C353 0.930 . S
C348 H345 0.931 . S
C348 C349 1.413 . S
C348 C350 1.378 . S
C349 C348 1.413 . S
C349 C353 1.429 1_455 S
C350 C348 1.378 . S
C350 C351 1.355 1_455 S
C351 H346 0.928 . S
C351 C350 1.355 1_655 S
C351 C352 1.404 . S
C352 C351 1.404 . S
C352 C353 1.391 . S
C353 H347 0.930 . S
C353 C349 1.429 1_655 S
C353 C352 1.391 . S
H354 C357 0.931 . S
H355 C360 0.928 . S
H356 C362 0.930 . S
C357 H354 0.931 . S
C357 C358 1.413 . S
C357 C359 1.360 . S
C358 C357 1.413 . S
C358 C362 1.429 . S
C359 C357 1.360 . S
C359 C360 1.372 . S
C360 H355 0.928 . S
C360 C359 1.372 . S
C360 C361 1.404 . S
C361 C360 1.404 . S
C361 C362 1.391 . S
C362 H356 0.930 . S
C362 C358 1.429 . S
C362 C361 1.391 . S
H363 C366 0.931 . S
H364 C369 0.928 . S
H365 C371 0.930 . S
C366 H363 0.931 . S
C366 C367 1.413 . S
C366 C368 1.360 1_655 S
C367 C366 1.413 . S
C367 C371 1.429 . S
C368 C366 1.360 1_455 S
C368 C369 1.372 . S
C369 H364 0.928 . S
C369 C368 1.372 . S
C369 C370 1.404 . S
C370 C369 1.404 . S
C370 C371 1.391 1_455 S
C371 H365 0.930 . S
C371 C367 1.429 . S
C371 C370 1.391 1_655 S
H372 C375 0.931 . S
H373 C378 0.928 . S
H374 C380 0.930 . S
C375 H372 0.931 . S
C375 C376 1.413 . S
C375 C377 1.360 . S
C376 C375 1.413 . S
C376 C380 1.429 . S
C377 C375 1.360 . S
C377 C378 1.372 . S
C378 H373 0.928 . S
C378 C377 1.372 . S
C378 C379 1.404 . S
C379 C378 1.404 . S
C379 C380 1.391 . S
C380 H374 0.930 . S
C380 C376 1.429 . S
C380 C379 1.391 . S
H381 C384 0.931 . S
H382 C387 0.928 . S
H383 C389 0.930 . S
C384 H381 0.931 . S
C384 C385 1.413 . S
C384 C386 1.360 . S
C385 C384 1.413 . S
C385 C389 1.429 . S
C386 C384 1.360 . S
C386 C387 1.372 . S
C387 H382 0.928 . S
C387 C386 1.372 . S
C387 C388 1.404 . S
C388 C387 1.404 . S
C388 C389 1.391 . S
C389 H383 0.930 . S
C389 C385 1.429 . S
C389 C388 1.391 . S
H390 C393 0.931 . S
H391 C396 0.928 . S
H392 C398 0.930 . S
C393 H390 0.931 . S
C393 C394 1.413 . S
C393 C395 1.360 1_545 S
C394 C393 1.413 . S
C394 C398 1.429 . S
C395 C393 1.360 1_565 S
C395 C396 1.372 . S
C396 H391 0.928 . S
C396 C395 1.372 . S
C396 C397 1.404 . S
C397 C396 1.404 . S
C397 C398 1.391 1_565 S
C398 H392 0.930 . S
C398 C394 1.429 . S
C398 C397 1.391 1_545 S
H399 C402 0.931 . S
H400 C405 0.928 . S
H401 C407 0.930 . S
C402 H399 0.931 . S
C402 C403 1.413 . S
C402 C404 1.376 . S
C403 C402 1.413 . S
C403 C407 1.429 1_565 S
C404 C402 1.376 . S
C404 C405 1.357 1_565 S
C405 H400 0.928 . S
C405 C404 1.357 1_545 S
C405 C406 1.404 . S
C406 C405 1.404 . S
C406 C407 1.391 . S
C407 H401 0.930 . S
C407 C403 1.429 1_545 S
C407 C406 1.391 . S
H408 C411 0.931 . S
H409 C414 0.928 . S
H410 C416 0.930 . S
C411 H408 0.931 . S
C411 C412 1.413 . S
C411 C413 1.360 . S
C412 C411 1.413 . S
C412 C416 1.429 . S
C413 C411 1.360 . S
C413 C414 1.372 . S
C414 H409 0.928 . S
C414 C413 1.372 . S
C414 C415 1.404 . S
C415 C414 1.404 . S
C415 C416 1.391 . S
C416 H410 0.930 . S
C416 C412 1.429 . S
C416 C415 1.391 . S
H417 C420 0.931 . S
H418 C423 0.928 . S
H419 C425 0.930 . S
C420 H417 0.931 . S
C420 C421 1.413 . S
C420 C422 1.376 . S
C421 C420 1.413 . S
C421 C425 1.429 1_556 S
C422 C420 1.376 . S
C422 C423 1.357 1_556 S
C423 H418 0.928 . S
C423 C422 1.357 1_554 S
C423 C424 1.404 . S
C424 C423 1.404 . S
C424 C425 1.391 . S
C425 H419 0.930 . S
C425 C421 1.429 1_554 S
C425 C424 1.391 . S
H426 C429 0.931 . S
H427 C432 0.928 . S
H428 C434 0.930 . S
C429 H426 0.931 . S
C429 C430 1.413 . S
C429 C431 1.360 . S
C430 C429 1.413 . S
C430 C434 1.429 . S
C431 C429 1.360 . S
C431 C432 1.372 . S
C432 H427 0.928 . S
C432 C431 1.372 . S
C432 C433 1.404 . S
C433 C432 1.404 . S
C433 C434 1.391 . S
C434 H428 0.930 . S
C434 C430 1.429 . S
C434 C433 1.391 . S
H435 C438 0.931 . S
H436 C441 0.928 . S
H437 C443 0.930 . S
C438 H435 0.931 . S
C438 C439 1.413 . S
C438 C440 1.360 1_554 S
C439 C438 1.413 . S
C439 C443 1.429 . S
C440 C438 1.360 1_556 S
C440 C441 1.372 . S
C441 H436 0.928 . S
C441 C440 1.372 . S
C441 C442 1.404 . S
C442 C441 1.404 . S
C442 C443 1.391 1_556 S
C443 H437 0.930 . S
C443 C439 1.429 . S
C443 C442 1.391 1_554 S
H444 C447 0.931 . S
H445 C450 0.928 . S
H446 C452 0.930 . S
C447 H444 0.931 . S
C447 C448 1.413 . S
C447 C449 1.360 . S
C448 C447 1.413 . S
C448 C452 1.429 . S
C449 C447 1.360 . S
C449 C450 1.372 . S
C450 H445 0.928 . S
C450 C449 1.372 . S
C450 C451 1.404 . S
C451 C450 1.404 . S
C451 C452 1.391 . S
C452 H446 0.930 . S
C452 C448 1.429 . S
C452 C451 1.391 . S
H453 C456 0.931 . S
H454 C459 0.928 . S
H455 C461 0.930 . S
C456 H453 0.931 . S
C456 C457 1.413 . S
C456 C458 1.376 . S
C457 C456 1.413 . S
C457 C461 1.429 1_655 S
C458 C456 1.376 . S
C458 C459 1.357 1_655 S
C459 H454 0.928 . S
C459 C458 1.357 1_455 S
C459 C460 1.404 . S
C460 C459 1.404 . S
C460 C461 1.391 . S
C461 H455 0.930 . S
C461 C457 1.429 1_455 S
C461 C460 1.391 . S
H462 C465 0.931 . S
H463 C468 0.928 . S
H464 C470 0.930 . S
C465 H462 0.931 . S
C465 C466 1.413 . S
C465 C467 1.360 . S
C466 C465 1.413 . S
C466 C470 1.429 . S
C467 C465 1.360 . S
C467 C468 1.372 . S
C468 H463 0.928 . S
C468 C467 1.372 . S
C468 C469 1.404 . S
C469 C468 1.404 . S
C469 C470 1.391 . S
C470 H464 0.930 . S
C470 C466 1.429 . S
C470 C469 1.391 . S
H471 C474 0.931 . S
H472 C477 0.928 . S
H473 C479 0.930 . S
C474 H471 0.931 . S
C474 C475 1.413 . S
C474 C476 1.360 1_455 S
C475 C474 1.413 . S
C475 C479 1.429 . S
C476 C474 1.360 1_655 S
C476 C477 1.372 . S
C477 H472 0.928 . S
C477 C476 1.372 . S
C477 C478 1.404 . S
C478 C477 1.404 . S
C478 C479 1.391 1_655 S
C479 H473 0.930 . S
C479 C475 1.429 . S
C479 C478 1.391 1_455 S
H480 C488 0.950 . S
H481 C493 0.950 . S
H482 C490 0.950 . S
H483 C492 0.950 . S
H484 C494 0.950 . S
H485 C496 0.950 . S
H486 C498 0.950 . S
H487 C499 0.950 . S
C488 H480 0.950 . S
C488 C489 1.386 . S
C488 C490 1.391 . S
C489 C488 1.386 . S
C489 C493 1.393 . S
C490 H482 0.950 . S
C490 C488 1.391 . S
C490 C491 1.400 . S
C491 C490 1.400 . S
C491 C492 1.398 . S
C491 C497 1.491 . S
C492 H483 0.950 . S
C492 C491 1.398 . S
C492 C493 1.391 . S
C493 H481 0.950 . S
C493 C489 1.393 . S
C493 C492 1.391 . S
C494 H484 0.950 . S
C494 C495 1.386 . S
C494 C496 1.391 . S
C495 C494 1.386 . S
C495 C499 1.393 . S
C496 H485 0.950 . S
C496 C494 1.391 . S
C496 C497 1.400 . S
C497 C491 1.491 . S
C497 C496 1.400 . S
C497 C498 1.398 . S
C498 H486 0.950 . S
C498 C497 1.398 . S
C498 C499 1.391 . S
C499 H487 0.950 . S
C499 C495 1.393 . S
C499 C498 1.391 . S
H500 C508 0.950 . S
H501 C513 0.950 . S
H502 C510 0.950 . S
H503 C512 0.950 . S
H504 C514 0.950 . S
H505 C516 0.950 . S
H506 C518 0.950 . S
H507 C519 0.950 . S
C508 H500 0.950 . S
C508 C509 1.386 . S
C508 C510 1.391 . S
C509 C508 1.386 . S
C509 C513 1.393 . S
C510 H502 0.950 . S
C510 C508 1.391 . S
C510 C511 1.400 . S
C511 C510 1.400 . S
C511 C512 1.398 . S
C511 C517 1.491 . S
C512 H503 0.950 . S
C512 C511 1.398 . S
C512 C513 1.391 . S
C513 H501 0.950 . S
C513 C509 1.393 . S
C513 C512 1.391 . S
C514 H504 0.950 . S
C514 C515 1.386 . S
C514 C516 1.391 . S
C515 C514 1.386 . S
C515 C519 1.393 . S
C516 H505 0.950 . S
C516 C514 1.391 . S
C516 C517 1.400 . S
C517 C511 1.491 . S
C517 C516 1.400 . S
C517 C518 1.398 . S
C518 H506 0.950 . S
C518 C517 1.398 . S
C518 C519 1.391 . S
C519 H507 0.950 . S
C519 C515 1.393 . S
C519 C518 1.391 . S
H520 C528 0.950 . S
H521 C533 0.950 . S
H522 C530 0.950 1_565 S
H523 C532 0.950 . S
H524 C534 0.950 . S
H525 C536 0.950 . S
H526 C538 0.950 . S
H527 C539 0.950 . S
C528 H520 0.950 . S
C528 C529 1.386 1_565 S
C528 C530 1.391 1_565 S
C529 C528 1.386 1_545 S
C529 C533 1.393 . S
C530 H522 0.950 1_545 S
C530 C528 1.391 1_545 S
C530 C531 1.400 . S
C531 C530 1.400 . S
C531 C532 1.398 . S
C531 C537 1.491 . S
C532 H523 0.950 . S
C532 C531 1.398 . S
C532 C533 1.391 . S
C533 H521 0.950 . S
C533 C529 1.393 . S
C533 C532 1.391 . S
C534 H524 0.950 . S
C534 C535 1.386 . S
C534 C536 1.391 . S
C535 C534 1.386 . S
C535 C539 1.393 . S
C536 H525 0.950 . S
C536 C534 1.391 . S
C536 C537 1.400 . S
C537 C531 1.491 . S
C537 C536 1.400 . S
C537 C538 1.398 . S
C538 H526 0.950 . S
C538 C537 1.398 . S
C538 C539 1.391 . S
C539 H527 0.950 . S
C539 C535 1.393 . S
C539 C538 1.391 . S
H540 C548 0.950 1_545 S
H541 C553 0.950 . S
H542 C550 0.941 1_545 S
H543 C552 0.950 . S
H544 C554 0.950 . S
H545 C556 0.950 . S
H546 C558 0.950 . S
H547 C559 0.950 . S
C548 H540 0.950 1_565 S
C548 C549 1.386 . S
C548 C550 1.391 . S
C549 C548 1.386 . S
C549 C553 1.393 . S
C550 H542 0.941 1_565 S
C550 C548 1.391 . S
C550 C551 1.400 . S
C551 C550 1.400 . S
C551 C552 1.398 . S
C551 C557 1.491 . S
C552 H543 0.950 . S
C552 C551 1.398 . S
C552 C553 1.391 . S
C553 H541 0.950 . S
C553 C549 1.393 . S
C553 C552 1.391 . S
C554 H544 0.950 . S
C554 C555 1.386 . S
C554 C556 1.391 . S
C555 C554 1.386 . S
C555 C559 1.393 . S
C556 H545 0.950 . S
C556 C554 1.391 . S
C556 C557 1.400 . S
C557 C551 1.491 . S
C557 C556 1.400 . S
C557 C558 1.398 . S
C558 H546 0.950 . S
C558 C557 1.398 . S
C558 C559 1.391 . S
C559 H547 0.950 . S
C559 C555 1.393 . S
C559 C558 1.391 . S
H560 C568 0.950 . S
H561 C573 0.950 . S
H562 C570 0.950 . S
H563 C572 0.950 . S
H564 C574 0.950 . S
H565 C576 0.950 . S
H566 C578 0.950 . S
H567 C579 0.950 . S
C568 H560 0.950 . S
C568 C569 1.386 . S
C568 C570 1.391 . S
C569 C568 1.386 . S
C569 C573 1.393 . S
C570 H562 0.950 . S
C570 C568 1.391 . S
C570 C571 1.400 . S
C571 C570 1.400 . S
C571 C572 1.398 . S
C571 C577 1.491 . S
C572 H563 0.950 . S
C572 C571 1.398 . S
C572 C573 1.391 . S
C573 H561 0.950 . S
C573 C569 1.393 . S
C573 C572 1.391 . S
C574 H564 0.950 . S
C574 C575 1.386 . S
C574 C576 1.391 . S
C575 C574 1.386 . S
C575 C579 1.393 . S
C576 H565 0.950 . S
C576 C574 1.391 . S
C576 C577 1.400 . S
C577 C571 1.491 . S
C577 C576 1.400 . S
C577 C578 1.398 . S
C578 H566 0.950 . S
C578 C577 1.398 . S
C578 C579 1.391 . S
C579 H567 0.950 . S
C579 C575 1.393 . S
C579 C578 1.391 . S
H580 C588 0.950 . S
H581 C593 0.950 1_554 S
H582 C590 0.950 . S
H583 C592 0.946 1_554 S
H584 C594 0.950 . S
H585 C596 0.950 . S
H586 C598 0.950 . S
H587 C599 0.950 . S
C588 H580 0.950 . S
C588 C589 1.386 . S
C588 C590 1.391 . S
C589 C588 1.386 . S
C589 C593 1.393 . S
C590 H582 0.950 . S
C590 C588 1.391 . S
C590 C591 1.400 . S
C591 C590 1.400 . S
C591 C592 1.398 . S
C591 C597 1.491 . S
C592 H583 0.946 1_556 S
C592 C591 1.398 . S
C592 C593 1.391 . S
C593 H581 0.950 1_556 S
C593 C589 1.393 . S
C593 C592 1.391 . S
C594 H584 0.950 . S
C594 C595 1.386 . S
C594 C596 1.391 . S
C595 C594 1.386 . S
C595 C599 1.393 . S
C596 H585 0.950 . S
C596 C594 1.391 . S
C596 C597 1.400 . S
C597 C591 1.491 . S
C597 C596 1.400 . S
C597 C598 1.398 . S
C598 H586 0.950 . S
C598 C597 1.398 . S
C598 C599 1.391 . S
C599 H587 0.950 . S
C599 C595 1.393 . S
C599 C598 1.391 . S
H600 C608 0.950 . S
H601 C613 0.950 . S
H602 C610 0.950 . S
H603 C612 0.950 . S
H604 C614 0.950 . S
H605 C616 0.950 . S
H606 C618 0.950 . S
H607 C619 0.950 . S
C608 H600 0.950 . S
C608 C609 1.386 . S
C608 C610 1.391 . S
C609 C608 1.386 . S
C609 C613 1.393 . S
C610 H602 0.950 . S
C610 C608 1.391 . S
C610 C611 1.400 . S
C611 C610 1.400 . S
C611 C612 1.398 . S
C611 C617 1.491 . S
C612 H603 0.950 . S
C612 C611 1.398 . S
C612 C613 1.391 . S
C613 H601 0.950 . S
C613 C609 1.393 . S
C613 C612 1.391 . S
C614 H604 0.950 . S
C614 C615 1.386 . S
C614 C616 1.391 . S
C615 C614 1.386 . S
C615 C619 1.393 . S
C616 H605 0.950 . S
C616 C614 1.391 . S
C616 C617 1.400 . S
C617 C611 1.491 . S
C617 C616 1.400 . S
C617 C618 1.398 . S
C618 H606 0.950 . S
C618 C617 1.398 . S
C618 C619 1.391 . S
C619 H607 0.950 . S
C619 C615 1.393 . S
C619 C618 1.391 . S
H620 C628 0.950 1_556 S
H621 C633 0.950 . S
H622 C630 0.950 . S
H623 C632 0.950 . S
H624 C634 0.950 . S
H625 C636 0.950 . S
H626 C638 0.950 . S
H627 C639 0.950 . S
C628 H620 0.950 1_554 S
C628 C629 1.386 . S
C628 C630 1.391 . S
C629 C628 1.386 . S
C629 C633 1.393 . S
C630 H622 0.950 . S
C630 C628 1.391 . S
C630 C631 1.400 . S
C631 C630 1.400 . S
C631 C632 1.398 . S
C631 C637 1.491 . S
C632 H623 0.950 . S
C632 C631 1.398 . S
C632 C633 1.391 . S
C633 H621 0.950 . S
C633 C629 1.393 . S
C633 C632 1.391 . S
C634 H624 0.950 . S
C634 C635 1.386 . S
C634 C636 1.391 . S
C635 C634 1.386 . S
C635 C639 1.393 . S
C636 H625 0.950 . S
C636 C634 1.391 . S
C636 C637 1.400 . S
C637 C631 1.491 . S
C637 C636 1.400 . S
C637 C638 1.398 . S
C638 H626 0.950 . S
C638 C637 1.398 . S
C638 C639 1.391 . S
C639 H627 0.950 . S
C639 C635 1.393 . S
C639 C638 1.391 . S
H640 C648 0.950 . S
H641 C653 0.950 . S
H642 C650 0.950 . S
H643 C652 0.950 . S
H644 C654 0.950 . S
H645 C656 0.950 . S
H646 C658 0.950 . S
H647 C659 0.950 . S
C648 H640 0.950 . S
C648 C649 1.386 . S
C648 C650 1.391 . S
C649 C648 1.386 . S
C649 C653 1.393 . S
C650 H642 0.950 . S
C650 C648 1.391 . S
C650 C651 1.400 . S
C651 C650 1.400 . S
C651 C652 1.398 . S
C651 C657 1.491 . S
C652 H643 0.950 . S
C652 C651 1.398 . S
C652 C653 1.391 . S
C653 H641 0.950 . S
C653 C649 1.393 . S
C653 C652 1.391 . S
C654 H644 0.950 . S
C654 C655 1.386 . S
C654 C656 1.391 . S
C655 C654 1.386 . S
C655 C659 1.393 . S
C656 H645 0.950 . S
C656 C654 1.391 . S
C656 C657 1.400 . S
C657 C651 1.491 . S
C657 C656 1.400 . S
C657 C658 1.398 . S
C658 H646 0.950 . S
C658 C657 1.398 . S
C658 C659 1.391 . S
C659 H647 0.950 . S
C659 C655 1.393 . S
C659 C658 1.391 . S
H660 C668 0.950 . S
H661 C673 0.950 . S
H662 C670 0.950 . S
H663 C672 0.950 1_455 S
H664 C674 0.950 . S
H665 C676 0.950 . S
H666 C678 0.950 . S
H667 C679 0.950 . S
C668 H660 0.950 . S
C668 C669 1.386 . S
C668 C670 1.391 . S
C669 C668 1.386 . S
C669 C673 1.393 1_655 S
C670 H662 0.950 . S
C670 C668 1.391 . S
C670 C671 1.400 . S
C671 C670 1.400 . S
C671 C672 1.398 . S
C671 C677 1.491 . S
C672 H663 0.950 1_655 S
C672 C671 1.398 . S
C672 C673 1.391 1_655 S
C673 H661 0.950 . S
C673 C669 1.393 1_455 S
C673 C672 1.391 1_455 S
C674 H664 0.950 . S
C674 C675 1.386 . S
C674 C676 1.391 . S
C675 C674 1.386 . S
C675 C679 1.393 . S
C676 H665 0.950 . S
C676 C674 1.391 . S
C676 C677 1.400 . S
C677 C671 1.491 . S
C677 C676 1.400 . S
C677 C678 1.398 . S
C678 H666 0.950 . S
C678 C677 1.398 . S
C678 C679 1.391 . S
C679 H667 0.950 . S
C679 C675 1.393 . S
C679 C678 1.391 . S
H680 C688 0.950 . S
H681 C693 0.950 . S
H682 C690 0.950 . S
H683 C692 0.950 . S
H684 C694 0.950 . S
H685 C696 0.950 . S
H686 C698 0.950 . S
H687 C699 0.950 . S
C688 H680 0.950 . S
C688 C689 1.386 . S
C688 C690 1.391 . S
C689 C688 1.386 . S
C689 C693 1.393 . S
C690 H682 0.950 . S
C690 C688 1.391 . S
C690 C691 1.400 . S
C691 C690 1.400 . S
C691 C692 1.398 . S
C691 C697 1.491 . S
C692 H683 0.950 . S
C692 C691 1.398 . S
C692 C693 1.391 . S
C693 H681 0.950 . S
C693 C689 1.393 . S
C693 C692 1.391 . S
C694 H684 0.950 . S
C694 C695 1.386 . S
C694 C696 1.391 . S
C695 C694 1.386 . S
C695 C699 1.393 . S
C696 H685 0.950 . S
C696 C694 1.391 . S
C696 C697 1.400 . S
C697 C691 1.491 . S
C697 C696 1.400 . S
C697 C698 1.398 . S
C698 H686 0.950 . S
C698 C697 1.398 . S
C698 C699 1.391 . S
C699 H687 0.950 . S
C699 C695 1.393 . S
C699 C698 1.391 . S
H700 C708 0.950 . S
H701 C713 0.950 . S
H702 C710 0.950 . S
H703 C712 0.950 . S
H704 C714 0.950 . S
H705 C716 0.950 . S
H706 C718 0.950 . S
H707 C719 0.950 . S
C708 H700 0.950 . S
C708 C709 1.386 . S
C708 C710 1.391 . S
C709 C708 1.386 . S
C709 C713 1.393 . S
C710 H702 0.950 . S
C710 C708 1.391 . S
C710 C711 1.400 . S
C711 C710 1.400 . S
C711 C712 1.398 . S
C711 C717 1.491 . S
C712 H703 0.950 . S
C712 C711 1.398 . S
C712 C713 1.391 . S
C713 H701 0.950 . S
C713 C709 1.393 . S
C713 C712 1.391 . S
C714 H704 0.950 . S
C714 C715 1.386 . S
C714 C716 1.391 . S
C715 C714 1.386 . S
C715 C719 1.393 . S
C716 H705 0.950 . S
C716 C714 1.391 . S
C716 C717 1.400 . S
C717 C711 1.491 . S
C717 C716 1.400 . S
C717 C718 1.398 . S
C718 H706 0.950 . S
C718 C717 1.398 . S
C718 C719 1.391 . S
C719 H707 0.950 . S
C719 C715 1.393 . S
C719 C718 1.391 . S
H720 C728 0.950 . S
H721 C733 0.950 . S
H722 C730 0.950 . S
H723 C732 0.950 . S
H724 C734 0.950 . S
H725 C736 0.950 . S
H726 C738 0.950 . S
H727 C739 0.950 . S
C728 H720 0.950 . S
C728 C729 1.386 . S
C728 C730 1.391 . S
C729 C728 1.386 . S
C729 C733 1.393 . S
C730 H722 0.950 . S
C730 C728 1.391 . S
C730 C731 1.400 . S
C731 C730 1.400 . S
C731 C732 1.398 . S
C731 C737 1.491 . S
C732 H723 0.950 . S
C732 C731 1.398 . S
C732 C733 1.391 . S
C733 H721 0.950 . S
C733 C729 1.393 . S
C733 C732 1.391 . S
C734 H724 0.950 . S
C734 C735 1.386 . S
C734 C736 1.391 . S
C735 C734 1.386 . S
C735 C739 1.393 . S
C736 H725 0.950 . S
C736 C734 1.391 . S
C736 C737 1.400 . S
C737 C731 1.491 . S
C737 C736 1.400 . S
C737 C738 1.398 . S
C738 H726 0.950 . S
C738 C737 1.398 . S
C738 C739 1.391 . S
C739 H727 0.950 . S
C739 C735 1.393 . S
C739 C738 1.391 . S
H740 C748 0.950 . S
H741 C753 0.950 . S
H742 C750 0.950 . S
H743 C752 0.950 . S
H744 C754 0.950 . S
H745 C756 0.950 . S
H746 C758 0.950 . S
H747 C759 0.950 . S
C748 H740 0.950 . S
C748 C749 1.386 . S
C748 C750 1.391 . S
C749 C748 1.386 . S
C749 C753 1.393 . S
C750 H742 0.950 . S
C750 C748 1.391 . S
C750 C751 1.400 . S
C751 C750 1.400 . S
C751 C752 1.398 . S
C751 C757 1.491 . S
C752 H743 0.950 . S
C752 C751 1.398 . S
C752 C753 1.391 . S
C753 H741 0.950 . S
C753 C749 1.393 . S
C753 C752 1.391 . S
C754 H744 0.950 . S
C754 C755 1.386 . S
C754 C756 1.391 . S
C755 C754 1.386 . S
C755 C759 1.393 . S
C756 H745 0.950 . S
C756 C754 1.391 . S
C756 C757 1.400 . S
C757 C751 1.491 . S
C757 C756 1.400 . S
C757 C758 1.398 . S
C758 H746 0.950 . S
C758 C757 1.398 . S
C758 C759 1.391 . S
C759 H747 0.950 . S
C759 C755 1.393 . S
C759 C758 1.391 . S
H760 C768 0.950 . S
H761 C773 0.950 . S
H762 C770 0.950 1_545 S
H763 C772 0.950 . S
H764 C774 0.950 . S
H765 C776 0.950 . S
H766 C778 0.950 . S
H767 C779 0.950 . S
C768 H760 0.950 . S
C768 C769 1.386 1_545 S
C768 C770 1.391 1_545 S
C769 C768 1.386 1_565 S
C769 C773 1.393 . S
C770 H762 0.950 1_565 S
C770 C768 1.391 1_565 S
C770 C771 1.400 . S
C771 C770 1.400 . S
C771 C772 1.398 . S
C771 C777 1.491 . S
C772 H763 0.950 . S
C772 C771 1.398 . S
C772 C773 1.391 . S
C773 H761 0.950 . S
C773 C769 1.393 . S
C773 C772 1.391 . S
C774 H764 0.950 . S
C774 C775 1.386 . S
C774 C776 1.391 . S
C775 C774 1.386 . S
C775 C779 1.393 . S
C776 H765 0.950 . S
C776 C774 1.391 . S
C776 C777 1.400 . S
C777 C771 1.491 . S
C777 C776 1.400 . S
C777 C778 1.398 . S
C778 H766 0.950 . S
C778 C777 1.398 . S
C778 C779 1.391 . S
C779 H767 0.950 . S
C779 C775 1.393 . S
C779 C778 1.391 . S
H780 C788 0.950 . S
H781 C793 0.950 1_565 S
H782 C790 0.950 . S
H783 C792 0.950 . S
H784 C794 0.950 . S
H785 C796 0.950 . S
H786 C798 0.950 . S
H787 C799 0.950 . S
C788 H780 0.950 . S
C788 C789 1.386 . S
C788 C790 1.391 . S
C789 C788 1.386 . S
C789 C793 1.393 . S
C790 H782 0.950 . S
C790 C788 1.391 . S
C790 C791 1.400 . S
C791 C790 1.400 . S
C791 C792 1.398 . S
C791 C797 1.491 . S
C792 H783 0.950 . S
C792 C791 1.398 . S
C792 C793 1.391 . S
C793 H781 0.950 1_545 S
C793 C789 1.393 . S
C793 C792 1.391 . S
C794 H784 0.950 . S
C794 C795 1.386 . S
C794 C796 1.391 . S
C795 C794 1.386 . S
C795 C799 1.393 . S
C796 H785 0.950 . S
C796 C794 1.391 . S
C796 C797 1.400 . S
C797 C791 1.491 . S
C797 C796 1.400 . S
C797 C798 1.398 . S
C798 H786 0.950 . S
C798 C797 1.398 . S
C798 C799 1.391 . S
C799 H787 0.950 . S
C799 C795 1.393 . S
C799 C798 1.391 . S
H800 C808 0.950 . S
H801 C813 0.950 . S
H802 C810 0.950 . S
H803 C812 0.950 . S
H804 C814 0.950 . S
H805 C816 0.950 . S
H806 C818 0.950 . S
H807 C819 0.950 . S
C808 H800 0.950 . S
C808 C809 1.386 . S
C808 C810 1.391 . S
C809 C808 1.386 . S
C809 C813 1.393 . S
C810 H802 0.950 . S
C810 C808 1.391 . S
C810 C811 1.400 . S
C811 C810 1.400 . S
C811 C812 1.398 . S
C811 C817 1.491 . S
C812 H803 0.950 . S
C812 C811 1.398 . S
C812 C813 1.391 . S
C813 H801 0.950 . S
C813 C809 1.393 . S
C813 C812 1.391 . S
C814 H804 0.950 . S
C814 C815 1.386 . S
C814 C816 1.391 . S
C815 C814 1.386 . S
C815 C819 1.393 . S
C816 H805 0.950 . S
C816 C814 1.391 . S
C816 C817 1.400 . S
C817 C811 1.491 . S
C817 C816 1.400 . S
C817 C818 1.398 . S
C818 H806 0.950 . S
C818 C817 1.398 . S
C818 C819 1.391 . S
C819 H807 0.950 . S
C819 C815 1.393 . S
C819 C818 1.391 . S
H820 C828 0.950 . S
H821 C833 0.950 1_556 S
H822 C830 0.950 . S
H823 C832 0.952 1_556 S
H824 C834 0.950 . S
H825 C836 0.950 . S
H826 C838 0.950 . S
H827 C839 0.950 . S
C828 H820 0.950 . S
C828 C829 1.386 . S
C828 C830 1.391 . S
C829 C828 1.386 . S
C829 C833 1.393 . S
C830 H822 0.950 . S
C830 C828 1.391 . S
C830 C831 1.400 . S
C831 C830 1.400 . S
C831 C832 1.398 . S
C831 C837 1.491 . S
C832 H823 0.952 1_554 S
C832 C831 1.398 . S
C832 C833 1.391 . S
C833 H821 0.950 1_554 S
C833 C829 1.393 . S
C833 C832 1.391 . S
C834 H824 0.950 . S
C834 C835 1.386 . S
C834 C836 1.391 . S
C835 C834 1.386 . S
C835 C839 1.393 . S
C836 H825 0.950 . S
C836 C834 1.391 . S
C836 C837 1.400 . S
C837 C831 1.491 . S
C837 C836 1.400 . S
C837 C838 1.398 . S
C838 H826 0.950 . S
C838 C837 1.398 . S
C838 C839 1.391 . S
C839 H827 0.950 . S
C839 C835 1.393 . S
C839 C838 1.391 . S
H840 C848 0.950 . S
H841 C853 0.950 . S
H842 C850 0.950 . S
H843 C852 0.950 . S
H844 C854 0.950 . S
H845 C856 0.950 . S
H846 C858 0.950 . S
H847 C859 0.950 . S
C848 H840 0.950 . S
C848 C849 1.386 . S
C848 C850 1.391 . S
C849 C848 1.386 . S
C849 C853 1.393 . S
C850 H842 0.950 . S
C850 C848 1.391 . S
C850 C851 1.400 . S
C851 C850 1.400 . S
C851 C852 1.398 . S
C851 C857 1.491 . S
C852 H843 0.950 . S
C852 C851 1.398 . S
C852 C853 1.391 . S
C853 H841 0.950 . S
C853 C849 1.393 . S
C853 C852 1.391 . S
C854 H844 0.950 . S
C854 C855 1.386 . S
C854 C856 1.391 . S
C855 C854 1.386 . S
C855 C859 1.393 . S
C856 H845 0.950 . S
C856 C854 1.391 . S
C856 C857 1.400 . S
C857 C851 1.491 . S
C857 C856 1.400 . S
C857 C858 1.398 . S
C858 H846 0.950 . S
C858 C857 1.398 . S
C858 C859 1.391 . S
C859 H847 0.950 . S
C859 C855 1.393 . S
C859 C858 1.391 . S
H860 C868 0.950 . S
H861 C873 0.950 . S
H862 C870 0.950 1_554 S
H863 C872 0.950 . S
H864 C874 0.950 . S
H865 C876 0.950 . S
H866 C878 0.950 . S
H867 C879 0.950 . S
C868 H860 0.950 . S
C868 C869 1.386 1_554 S
C868 C870 1.391 1_554 S
C869 C868 1.386 1_556 S
C869 C873 1.393 . S
C870 H862 0.950 1_556 S
C870 C868 1.391 1_556 S
C870 C871 1.400 . S
C871 C870 1.400 . S
C871 C872 1.398 . S
C871 C877 1.491 . S
C872 H863 0.950 . S
C872 C871 1.398 . S
C872 C873 1.391 . S
C873 H861 0.950 . S
C873 C869 1.393 . S
C873 C872 1.391 . S
C874 H864 0.950 . S
C874 C875 1.386 . S
C874 C876 1.391 . S
C875 C874 1.386 . S
C875 C879 1.393 . S
C876 H865 0.950 . S
C876 C874 1.391 . S
C876 C877 1.400 . S
C877 C871 1.491 . S
C877 C876 1.400 . S
C877 C878 1.398 . S
C878 H866 0.950 . S
C878 C877 1.398 . S
C878 C879 1.391 . S
C879 H867 0.950 . S
C879 C875 1.393 . S
C879 C878 1.391 . S
H880 C888 0.950 . S
H881 C893 0.950 . S
H882 C890 0.950 . S
H883 C892 0.950 . S
H884 C894 0.950 . S
H885 C896 0.950 . S
H886 C898 0.950 . S
H887 C899 0.950 . S
C888 H880 0.950 . S
C888 C889 1.386 . S
C888 C890 1.391 . S
C889 C888 1.386 . S
C889 C893 1.393 . S
C890 H882 0.950 . S
C890 C888 1.391 . S
C890 C891 1.400 . S
C891 C890 1.400 . S
C891 C892 1.398 . S
C891 C897 1.491 . S
C892 H883 0.950 . S
C892 C891 1.398 . S
C892 C893 1.391 . S
C893 H881 0.950 . S
C893 C889 1.393 . S
C893 C892 1.391 . S
C894 H884 0.950 . S
C894 C895 1.386 . S
C894 C896 1.391 . S
C895 C894 1.386 . S
C895 C899 1.393 . S
C896 H885 0.950 . S
C896 C894 1.391 . S
C896 C897 1.400 . S
C897 C891 1.491 . S
C897 C896 1.400 . S
C897 C898 1.398 . S
C898 H886 0.950 . S
C898 C897 1.398 . S
C898 C899 1.391 . S
C899 H887 0.950 . S
C899 C895 1.393 . S
C899 C898 1.391 . S
H900 C908 0.950 . S
H901 C913 0.975 . S
H902 C910 0.950 . S
H903 C912 0.950 1_655 S
H904 C914 0.950 . S
H905 C916 0.950 . S
H906 C918 0.950 . S
H907 C919 0.950 . S
C908 H900 0.950 . S
C908 C909 1.386 . S
C908 C910 1.391 . S
C909 C908 1.386 . S
C909 C913 1.378 1_455 S
C910 H902 0.950 . S
C910 C908 1.391 . S
C910 C911 1.400 . S
C911 C910 1.400 . S
C911 C912 1.398 . S
C911 C917 1.491 . S
C912 H903 0.950 1_455 S
C912 C911 1.398 . S
C912 C913 1.381 1_455 S
C913 H901 0.975 . S
C913 C909 1.378 1_655 S
C913 C912 1.381 1_655 S
C914 H904 0.950 . S
C914 C915 1.386 . S
C914 C916 1.391 . S
C915 C914 1.386 . S
C915 C919 1.393 . S
C916 H905 0.950 . S
C916 C914 1.391 . S
C916 C917 1.400 . S
C917 C911 1.491 . S
C917 C916 1.400 . S
C917 C918 1.398 . S
C918 H906 0.950 . S
C918 C917 1.398 . S
C918 C919 1.391 . S
C919 H907 0.950 . S
C919 C915 1.393 . S
C919 C918 1.391 . S
H920 C928 0.950 . S
H921 C933 0.950 . S
H922 C930 0.950 . S
H923 C932 0.950 . S
H924 C934 0.950 . S
H925 C936 0.950 . S
H926 C938 0.950 . S
H927 C939 0.950 . S
C928 H920 0.950 . S
C928 C929 1.386 . S
C928 C930 1.391 . S
C929 C928 1.386 . S
C929 C933 1.393 . S
C930 H922 0.950 . S
C930 C928 1.391 . S
C930 C931 1.400 . S
C931 C930 1.400 . S
C931 C932 1.398 . S
C931 C937 1.491 . S
C932 H923 0.950 . S
C932 C931 1.398 . S
C932 C933 1.391 . S
C933 H921 0.950 . S
C933 C929 1.393 . S
C933 C932 1.391 . S
C934 H924 0.950 . S
C934 C935 1.386 . S
C934 C936 1.391 . S
C935 C934 1.386 . S
C935 C939 1.393 . S
C936 H925 0.950 . S
C936 C934 1.391 . S
C936 C937 1.400 . S
C937 C931 1.491 . S
C937 C936 1.400 . S
C937 C938 1.398 . S
C938 H926 0.950 . S
C938 C937 1.398 . S
C938 C939 1.391 . S
C939 H927 0.950 . S
C939 C935 1.393 . S
C939 C938 1.391 . S
H940 C948 0.950 . S
H941 C953 0.950 . S
H942 C950 0.950 . S
H943 C952 0.950 . S
H944 C954 0.950 . S
H945 C956 0.950 . S
H946 C958 0.950 . S
H947 C959 0.950 . S
C948 H940 0.950 . S
C948 C949 1.386 . S
C948 C950 1.391 . S
C949 C948 1.386 . S
C949 C953 1.393 . S
C950 H942 0.950 . S
C950 C948 1.391 . S
C950 C951 1.400 . S
C951 C950 1.400 . S
C951 C952 1.398 . S
C951 C957 1.491 . S
C952 H943 0.950 . S
C952 C951 1.398 . S
C952 C953 1.391 . S
C953 H941 0.950 . S
C953 C949 1.393 . S
C953 C952 1.391 . S
C954 H944 0.950 . S
C954 C955 1.386 . S
C954 C956 1.391 . S
C955 C954 1.386 . S
C955 C959 1.393 . S
C956 H945 0.950 . S
C956 C954 1.391 . S
C956 C957 1.400 . S
C957 C951 1.491 . S
C957 C956 1.400 . S
C957 C958 1.398 . S
C958 H946 0.950 . S
C958 C957 1.398 . S
C958 C959 1.391 . S
C959 H947 0.950 . S
C959 C955 1.393 . S
C959 C958 1.391 . S
H960 C968 0.950 . S
H961 C973 0.950 . S
H962 C970 0.950 . S
H963 C972 0.950 . S
H964 C974 0.950 . S
H965 C976 0.950 . S
H966 C978 0.950 . S
H967 C979 0.950 . S
C968 H960 0.950 . S
C968 C969 1.386 . S
C968 C970 1.391 . S
C969 C968 1.386 . S
C969 C973 1.393 . S
C970 H962 0.950 . S
C970 C968 1.391 . S
C970 C971 1.400 . S
C971 C970 1.400 . S
C971 C972 1.398 . S
C971 C977 1.491 . S
C972 H963 0.950 . S
C972 C971 1.398 . S
C972 C973 1.391 . S
C973 H961 0.950 . S
C973 C969 1.393 . S
C973 C972 1.391 . S
C974 H964 0.950 . S
C974 C975 1.386 . S
C974 C976 1.391 . S
C975 C974 1.386 . S
C975 C979 1.393 . S
C976 H965 0.950 . S
C976 C974 1.391 . S
C976 C977 1.400 . S
C977 C971 1.491 . S
C977 C976 1.400 . S
C977 C978 1.398 . S
C978 H966 0.950 . S
C978 C977 1.398 . S
C978 C979 1.391 . S
C979 H967 0.950 . S
C979 C975 1.393 . S
C979 C978 1.391 . S
H980 C988 0.950 . S
H981 C993 0.950 . S
H982 C990 0.950 . S
H983 C992 0.950 . S
H984 C994 0.950 . S
H985 C996 0.950 . S
H986 C998 0.950 . S
H987 C999 0.950 . S
C988 H980 0.950 . S
C988 C989 1.386 . S
C988 C990 1.391 . S
C989 C988 1.386 . S
C989 C993 1.393 . S
C990 H982 0.950 . S
C990 C988 1.391 . S
C990 C991 1.400 . S
C991 C990 1.400 . S
C991 C992 1.398 . S
C991 C997 1.491 . S
C992 H983 0.950 . S
C992 C991 1.398 . S
C992 C993 1.391 . S
C993 H981 0.950 . S
C993 C989 1.393 . S
C993 C992 1.391 . S
C994 H984 0.950 . S
C994 C995 1.386 . S
C994 C996 1.391 . S
C995 C994 1.386 . S
C995 C999 1.393 . S
C996 H985 0.950 . S
C996 C994 1.391 . S
C996 C997 1.400 . S
C997 C991 1.491 . S
C997 C996 1.400 . S
C997 C998 1.398 . S
C998 H986 0.950 . S
C998 C997 1.398 . S
C998 C999 1.391 . S
C999 H987 0.950 . S
C999 C995 1.393 . S
C999 C998 1.391 . S
H1000 C1008 0.950 . S
H1001 C1013 0.950 . S
H1002 C1010 0.950 . S
H1003 C1012 0.950 . S
H1004 C1014 0.950 . S
H1005 C1016 0.950 . S
H1006 C1018 0.950 . S
H1007 C1019 0.950 . S
C1008 H1000 0.950 . S
C1008 C1009 1.386 . S
C1008 C1010 1.391 . S
C1009 C1008 1.386 . S
C1009 C1013 1.393 1_565 S
C1010 H1002 0.950 . S
C1010 C1008 1.391 . S
C1010 C1011 1.400 . S
C1011 C1010 1.400 . S
C1011 C1012 1.398 1_565 S
C1011 C1017 1.491 . S
C1012 H1003 0.950 . S
C1012 C1011 1.398 1_545 S
C1012 C1013 1.391 . S
C1013 H1001 0.950 . S
C1013 C1009 1.393 1_545 S
C1013 C1012 1.391 . S
C1014 H1004 0.950 . S
C1014 C1015 1.386 . S
C1014 C1016 1.391 . S
C1015 C1014 1.386 . S
C1015 C1019 1.393 1_545 S
C1016 H1005 0.950 . S
C1016 C1014 1.391 . S
C1016 C1017 1.400 1_545 S
C1017 C1011 1.491 . S
C1017 C1016 1.400 1_565 S
C1017 C1018 1.398 . S
C1018 H1006 0.950 . S
C1018 C1017 1.398 . S
C1018 C1019 1.391 . S
C1019 H1007 0.950 . S
C1019 C1015 1.393 1_565 S
C1019 C1018 1.391 . S
H1020 C1028 0.950 . S
H1021 C1033 0.950 . S
H1022 C1030 0.950 . S
H1023 C1032 0.950 . S
H1024 C1034 0.950 . S
H1025 C1036 0.950 . S
H1026 C1038 0.950 . S
H1027 C1039 0.944 1_565 S
C1028 H1020 0.950 . S
C1028 C1029 1.386 . S
C1028 C1030 1.391 . S
C1029 C1028 1.386 . S
C1029 C1033 1.393 . S
C1030 H1022 0.950 . S
C1030 C1028 1.391 . S
C1030 C1031 1.400 . S
C1031 C1030 1.400 . S
C1031 C1032 1.398 . S
C1031 C1037 1.491 . S
C1032 H1023 0.950 . S
C1032 C1031 1.398 . S
C1032 C1033 1.391 . S
C1033 H1021 0.950 . S
C1033 C1029 1.393 . S
C1033 C1032 1.391 . S
C1034 H1024 0.950 . S
C1034 C1035 1.386 . S
C1034 C1036 1.391 . S
C1035 C1034 1.386 . S
C1035 C1039 1.398 . S
C1036 H1025 0.950 . S
C1036 C1034 1.391 . S
C1036 C1037 1.400 . S
C1037 C1031 1.491 . S
C1037 C1036 1.400 . S
C1037 C1038 1.398 . S
C1038 H1026 0.950 . S
C1038 C1037 1.398 . S
C1038 C1039 1.393 . S
C1039 H1027 0.944 1_545 S
C1039 C1035 1.398 . S
C1039 C1038 1.393 . S
H1040 C1048 0.950 . S
H1041 C1053 0.950 . S
H1042 C1050 0.950 . S
H1043 C1052 0.950 . S
H1044 C1054 0.950 . S
H1045 C1056 0.950 . S
H1046 C1058 0.950 . S
H1047 C1059 0.950 . S
C1048 H1040 0.950 . S
C1048 C1049 1.386 . S
C1048 C1050 1.391 . S
C1049 C1048 1.386 . S
C1049 C1053 1.393 . S
C1050 H1042 0.950 . S
C1050 C1048 1.391 . S
C1050 C1051 1.400 . S
C1051 C1050 1.400 . S
C1051 C1052 1.398 . S
C1051 C1057 1.491 . S
C1052 H1043 0.950 . S
C1052 C1051 1.398 . S
C1052 C1053 1.391 . S
C1053 H1041 0.950 . S
C1053 C1049 1.393 . S
C1053 C1052 1.391 . S
C1054 H1044 0.950 . S
C1054 C1055 1.386 . S
C1054 C1056 1.391 . S
C1055 C1054 1.386 . S
C1055 C1059 1.393 . S
C1056 H1045 0.950 . S
C1056 C1054 1.391 . S
C1056 C1057 1.400 . S
C1057 C1051 1.491 . S
C1057 C1056 1.400 . S
C1057 C1058 1.398 . S
C1058 H1046 0.950 . S
C1058 C1057 1.398 . S
C1058 C1059 1.391 . S
C1059 H1047 0.950 . S
C1059 C1055 1.393 . S
C1059 C1058 1.391 . S
H1060 C1068 0.950 . S
H1061 C1073 0.947 1_556 S
H1062 C1070 0.950 . S
H1063 C1072 0.950 1_556 S
H1064 C1074 0.950 . S
H1065 C1076 0.950 . S
H1066 C1078 0.950 . S
H1067 C1079 0.950 . S
C1068 H1060 0.950 . S
C1068 C1069 1.386 . S
C1068 C1070 1.391 . S
C1069 C1068 1.386 . S
C1069 C1073 1.393 . S
C1070 H1062 0.950 . S
C1070 C1068 1.391 . S
C1070 C1071 1.400 . S
C1071 C1070 1.400 . S
C1071 C1072 1.398 . S
C1071 C1077 1.491 . S
C1072 H1063 0.950 1_554 S
C1072 C1071 1.398 . S
C1072 C1073 1.391 . S
C1073 H1061 0.947 1_554 S
C1073 C1069 1.393 . S
C1073 C1072 1.391 . S
C1074 H1064 0.950 . S
C1074 C1075 1.366 1_556 S
C1074 C1076 1.391 . S
C1075 C1074 1.366 1_554 S
C1075 C1079 1.415 . S
C1076 H1065 0.950 . S
C1076 C1074 1.391 . S
C1076 C1077 1.400 1_556 S
C1077 C1071 1.491 . S
C1077 C1076 1.400 1_554 S
C1077 C1078 1.398 . S
C1078 H1066 0.950 . S
C1078 C1077 1.398 . S
C1078 C1079 1.391 . S
C1079 H1067 0.950 . S
C1079 C1075 1.415 . S
C1079 C1078 1.391 . S
H1080 C1088 0.950 . S
H1081 C1093 0.950 . S
H1082 C1090 0.950 . S
H1083 C1092 0.950 . S
H1084 C1094 0.950 . S
H1085 C1096 0.950 . S
H1086 C1098 0.950 . S
H1087 C1099 0.950 . S
C1088 H1080 0.950 . S
C1088 C1089 1.386 . S
C1088 C1090 1.391 . S
C1089 C1088 1.386 . S
C1089 C1093 1.393 . S
C1090 H1082 0.950 . S
C1090 C1088 1.391 . S
C1090 C1091 1.400 . S
C1091 C1090 1.400 . S
C1091 C1092 1.398 . S
C1091 C1097 1.491 . S
C1092 H1083 0.950 . S
C1092 C1091 1.398 . S
C1092 C1093 1.391 . S
C1093 H1081 0.950 . S
C1093 C1089 1.393 . S
C1093 C1092 1.391 . S
C1094 H1084 0.950 . S
C1094 C1095 1.386 . S
C1094 C1096 1.391 . S
C1095 C1094 1.386 . S
C1095 C1099 1.393 . S
C1096 H1085 0.950 . S
C1096 C1094 1.391 . S
C1096 C1097 1.400 . S
C1097 C1091 1.491 . S
C1097 C1096 1.400 . S
C1097 C1098 1.398 . S
C1098 H1086 0.950 . S
C1098 C1097 1.398 . S
C1098 C1099 1.391 . S
C1099 H1087 0.950 . S
C1099 C1095 1.393 . S
C1099 C1098 1.391 . S
H1100 C1108 0.948 . S
H1101 C1113 0.950 . S
H1102 C1110 0.950 . S
H1103 C1112 0.950 . S
H1104 C1114 0.950 . S
H1105 C1116 0.950 . S
H1106 C1118 0.950 . S
H1107 C1119 0.950 . S
C1108 H1100 0.948 . S
C1108 C1109 1.388 1_554 S
C1108 C1110 1.391 . S
C1109 C1108 1.388 1_556 S
C1109 C1113 1.393 . S
C1110 H1102 0.950 . S
C1110 C1108 1.391 . S
C1110 C1111 1.400 1_554 S
C1111 C1110 1.400 1_556 S
C1111 C1112 1.398 . S
C1111 C1117 1.491 . S
C1112 H1103 0.950 . S
C1112 C1111 1.398 . S
C1112 C1113 1.391 . S
C1113 H1101 0.950 . S
C1113 C1109 1.393 . S
C1113 C1112 1.391 . S
C1114 H1104 0.950 . S
C1114 C1115 1.386 1_556 S
C1114 C1116 1.391 . S
C1115 C1114 1.386 1_554 S
C1115 C1119 1.393 . S
C1116 H1105 0.950 . S
C1116 C1114 1.391 . S
C1116 C1117 1.400 . S
C1117 C1111 1.491 . S
C1117 C1116 1.400 . S
C1117 C1118 1.398 1_556 S
C1118 H1106 0.950 . S
C1118 C1117 1.398 1_554 S
C1118 C1119 1.391 . S
C1119 H1107 0.950 . S
C1119 C1115 1.393 . S
C1119 C1118 1.391 . S
H1120 C1128 0.950 . S
H1121 C1133 0.950 . S
H1122 C1130 0.950 . S
H1123 C1132 0.950 . S
H1124 C1134 0.950 . S
H1125 C1136 0.950 . S
H1126 C1138 0.950 . S
H1127 C1139 0.950 . S
C1128 H1120 0.950 . S
C1128 C1129 1.386 . S
C1128 C1130 1.391 . S
C1129 C1128 1.386 . S
C1129 C1133 1.393 . S
C1130 H1122 0.950 . S
C1130 C1128 1.391 . S
C1130 C1131 1.400 . S
C1131 C1130 1.400 . S
C1131 C1132 1.398 . S
C1131 C1137 1.491 . S
C1132 H1123 0.950 . S
C1132 C1131 1.398 . S
C1132 C1133 1.391 . S
C1133 H1121 0.950 . S
C1133 C1129 1.393 . S
C1133 C1132 1.391 . S
C1134 H1124 0.950 . S
C1134 C1135 1.386 . S
C1134 C1136 1.391 . S
C1135 C1134 1.386 . S
C1135 C1139 1.393 . S
C1136 H1125 0.950 . S
C1136 C1134 1.391 . S
C1136 C1137 1.400 . S
C1137 C1131 1.491 . S
C1137 C1136 1.400 . S
C1137 C1138 1.398 . S
C1138 H1126 0.950 . S
C1138 C1137 1.398 . S
C1138 C1139 1.391 . S
C1139 H1127 0.950 . S
C1139 C1135 1.393 . S
C1139 C1138 1.391 . S
H1140 C1148 0.950 . S
H1141 C1153 0.950 . S
H1142 C1150 0.950 1_655 S
H1143 C1152 0.950 . S
H1144 C1154 0.950 . S
H1145 C1156 0.950 . S
H1146 C1158 0.942 1_655 S
H1147 C1159 0.950 . S
C1148 H1140 0.950 . S
C1148 C1149 1.386 . S
C1148 C1150 1.391 . S
C1149 C1148 1.386 . S
C1149 C1153 1.393 . S
C1150 H1142 0.950 1_455 S
C1150 C1148 1.391 . S
C1150 C1151 1.400 . S
C1151 C1150 1.400 . S
C1151 C1152 1.398 . S
C1151 C1157 1.491 . S
C1152 H1143 0.950 . S
C1152 C1151 1.398 . S
C1152 C1153 1.391 . S
C1153 H1141 0.950 . S
C1153 C1149 1.393 . S
C1153 C1152 1.391 . S
C1154 H1144 0.950 . S
C1154 C1155 1.386 . S
C1154 C1156 1.391 . S
C1155 C1154 1.386 . S
C1155 C1159 1.393 1_455 S
C1156 H1145 0.950 . S
C1156 C1154 1.391 . S
C1156 C1157 1.400 . S
C1157 C1151 1.491 . S
C1157 C1156 1.400 . S
C1157 C1158 1.409 . S
C1158 H1146 0.942 1_455 S
C1158 C1157 1.409 . S
C1158 C1159 1.389 1_455 S
C1159 H1147 0.950 . S
C1159 C1155 1.393 1_655 S
C1159 C1158 1.389 1_655 S
H1160 C1168 0.950 . S
H1161 C1173 0.950 . S
H1162 C1170 0.950 . S
H1163 C1172 0.950 . S
H1164 C1174 0.950 . S
H1165 C1176 0.950 . S
H1166 C1178 0.950 . S
H1167 C1179 0.950 . S
C1168 H1160 0.950 . S
C1168 C1169 1.386 . S
C1168 C1170 1.391 . S
C1169 C1168 1.386 . S
C1169 C1173 1.393 . S
C1170 H1162 0.950 . S
C1170 C1168 1.391 . S
C1170 C1171 1.400 . S
C1171 C1170 1.400 . S
C1171 C1172 1.398 . S
C1171 C1177 1.491 . S
C1172 H1163 0.950 . S
C1172 C1171 1.398 . S
C1172 C1173 1.391 . S
C1173 H1161 0.950 . S
C1173 C1169 1.393 . S
C1173 C1172 1.391 . S
C1174 H1164 0.950 . S
C1174 C1175 1.386 . S
C1174 C1176 1.391 . S
C1175 C1174 1.386 . S
C1175 C1179 1.393 . S
C1176 H1165 0.950 . S
C1176 C1174 1.391 . S
C1176 C1177 1.400 . S
C1177 C1171 1.491 . S
C1177 C1176 1.400 . S
C1177 C1178 1.398 . S
C1178 H1166 0.950 . S
C1178 C1177 1.398 . S
C1178 C1179 1.391 . S
C1179 H1167 0.950 . S
C1179 C1175 1.393 . S
C1179 C1178 1.391 . S
H1180 C1188 0.950 . S
H1181 C1193 0.949 1_455 S
H1182 C1190 0.950 . S
H1183 C1192 0.950 . S
H1184 C1194 0.950 . S
H1185 C1196 0.950 . S
H1186 C1198 0.950 . S
H1187 C1199 0.950 . S
C1188 H1180 0.950 . S
C1188 C1189 1.386 . S
C1188 C1190 1.391 . S
C1189 C1188 1.386 . S
C1189 C1193 1.394 . S
C1190 H1182 0.950 . S
C1190 C1188 1.391 . S
C1190 C1191 1.400 . S
C1191 C1190 1.400 . S
C1191 C1192 1.398 1_655 S
C1191 C1197 1.491 . S
C1192 H1183 0.950 . S
C1192 C1191 1.398 1_455 S
C1192 C1193 1.390 1_455 S
C1193 H1181 0.949 1_655 S
C1193 C1189 1.394 . S
C1193 C1192 1.390 1_655 S
C1194 H1184 0.950 . S
C1194 C1195 1.386 . S
C1194 C1196 1.391 . S
C1195 C1194 1.386 . S
C1195 C1199 1.393 1_455 S
C1196 H1185 0.950 . S
C1196 C1194 1.391 . S
C1196 C1197 1.400 1_455 S
C1197 C1191 1.491 . S
C1197 C1196 1.400 1_655 S
C1197 C1198 1.398 . S
C1198 H1186 0.950 . S
C1198 C1197 1.398 . S
C1198 C1199 1.391 . S
C1199 H1187 0.950 . S
C1199 C1195 1.393 1_655 S
C1199 C1198 1.391 . S
H1200 C1208 0.950 . S
H1201 C1213 0.950 . S
H1202 C1210 0.950 . S
H1203 C1212 0.950 . S
H1204 C1214 0.950 . S
H1205 C1216 0.950 . S
H1206 C1218 0.950 . S
H1207 C1219 0.950 . S
C1208 H1200 0.950 . S
C1208 C1209 1.386 . S
C1208 C1210 1.391 . S
C1209 C1208 1.386 . S
C1209 C1213 1.393 . S
C1210 H1202 0.950 . S
C1210 C1208 1.391 . S
C1210 C1211 1.400 . S
C1211 C1210 1.400 . S
C1211 C1212 1.398 . S
C1211 C1217 1.491 . S
C1212 H1203 0.950 . S
C1212 C1211 1.398 . S
C1212 C1213 1.391 . S
C1213 H1201 0.950 . S
C1213 C1209 1.393 . S
C1213 C1212 1.391 . S
C1214 H1204 0.950 . S
C1214 C1215 1.386 . S
C1214 C1216 1.391 . S
C1215 C1214 1.386 . S
C1215 C1219 1.393 . S
C1216 H1205 0.950 . S
C1216 C1214 1.391 . S
C1216 C1217 1.400 . S
C1217 C1211 1.491 . S
C1217 C1216 1.400 . S
C1217 C1218 1.398 . S
C1218 H1206 0.950 . S
C1218 C1217 1.398 . S
C1218 C1219 1.391 . S
C1219 H1207 0.950 . S
C1219 C1215 1.393 . S
C1219 C1218 1.391 . S
H1220 C1228 0.950 . S
H1221 C1233 0.950 . S
H1222 C1230 0.950 . S
H1223 C1232 0.950 . S
H1224 C1234 0.950 . S
H1225 C1236 0.950 . S
H1226 C1238 0.950 . S
H1227 C1239 0.950 . S
C1228 H1220 0.950 . S
C1228 C1229 1.386 . S
C1228 C1230 1.391 . S
C1229 C1228 1.386 . S
C1229 C1233 1.393 . S
C1230 H1222 0.950 . S
C1230 C1228 1.391 . S
C1230 C1231 1.400 . S
C1231 C1230 1.400 . S
C1231 C1232 1.398 . S
C1231 C1237 1.491 . S
C1232 H1223 0.950 . S
C1232 C1231 1.398 . S
C1232 C1233 1.391 . S
C1233 H1221 0.950 . S
C1233 C1229 1.393 . S
C1233 C1232 1.391 . S
C1234 H1224 0.950 . S
C1234 C1235 1.386 . S
C1234 C1236 1.391 . S
C1235 C1234 1.386 . S
C1235 C1239 1.393 . S
C1236 H1225 0.950 . S
C1236 C1234 1.391 . S
C1236 C1237 1.400 . S
C1237 C1231 1.491 . S
C1237 C1236 1.400 . S
C1237 C1238 1.398 . S
C1238 H1226 0.950 . S
C1238 C1237 1.398 . S
C1238 C1239 1.391 . S
C1239 H1227 0.950 . S
C1239 C1235 1.393 . S
C1239 C1238 1.391 . S
H1240 C1248 0.950 . S
H1241 C1253 0.950 . S
H1242 C1250 0.950 . S
H1243 C1252 0.950 . S
H1244 C1254 0.950 . S
H1245 C1256 0.950 . S
H1246 C1258 0.950 . S
H1247 C1259 0.950 . S
C1248 H1240 0.950 . S
C1248 C1249 1.386 1_565 S
C1248 C1250 1.391 . S
C1249 C1248 1.386 1_545 S
C1249 C1253 1.393 . S
C1250 H1242 0.950 . S
C1250 C1248 1.391 . S
C1250 C1251 1.400 1_565 S
C1251 C1250 1.400 1_545 S
C1251 C1252 1.398 . S
C1251 C1257 1.491 . S
C1252 H1243 0.950 . S
C1252 C1251 1.398 . S
C1252 C1253 1.391 . S
C1253 H1241 0.950 . S
C1253 C1249 1.393 . S
C1253 C1252 1.391 . S
C1254 H1244 0.950 . S
C1254 C1255 1.386 1_545 S
C1254 C1256 1.391 . S
C1255 C1254 1.386 1_565 S
C1255 C1259 1.393 . S
C1256 H1245 0.950 . S
C1256 C1254 1.391 . S
C1256 C1257 1.400 . S
C1257 C1251 1.491 . S
C1257 C1256 1.400 . S
C1257 C1258 1.398 1_545 S
C1258 H1246 0.950 . S
C1258 C1257 1.398 1_565 S
C1258 C1259 1.391 . S
C1259 H1247 0.950 . S
C1259 C1255 1.393 . S
C1259 C1258 1.391 . S
H1260 C1268 0.950 . S
H1261 C1273 0.950 . S
H1262 C1270 0.950 . S
H1263 C1272 0.950 . S
H1264 C1274 0.950 . S
H1265 C1276 0.950 . S
H1266 C1278 0.950 . S
H1267 C1279 0.950 . S
C1268 H1260 0.950 . S
C1268 C1269 1.386 . S
C1268 C1270 1.391 . S
C1269 C1268 1.386 . S
C1269 C1273 1.393 1_565 S
C1270 H1262 0.950 . S
C1270 C1268 1.391 . S
C1270 C1271 1.400 . S
C1271 C1270 1.400 . S
C1271 C1272 1.398 1_565 S
C1271 C1277 1.491 . S
C1272 H1263 0.950 . S
C1272 C1271 1.398 1_545 S
C1272 C1273 1.391 . S
C1273 H1261 0.950 . S
C1273 C1269 1.393 1_545 S
C1273 C1272 1.391 . S
C1274 H1264 0.950 . S
C1274 C1275 1.386 1_545 S
C1274 C1276 1.391 . S
C1275 C1274 1.386 1_565 S
C1275 C1279 1.393 . S
C1276 H1265 0.950 . S
C1276 C1274 1.391 . S
C1276 C1277 1.400 1_545 S
C1277 C1271 1.491 . S
C1277 C1276 1.400 1_565 S
C1277 C1278 1.398 . S
C1278 H1266 0.950 . S
C1278 C1277 1.398 . S
C1278 C1279 1.391 . S
C1279 H1267 0.950 . S
C1279 C1275 1.393 . S
C1279 C1278 1.391 . S
H1280 C1288 0.950 . S
H1281 C1293 0.950 . S
H1282 C1290 0.950 . S
H1283 C1292 0.950 . S
H1284 C1294 0.950 . S
H1285 C1296 0.950 . S
H1286 C1298 0.950 . S
H1287 C1299 0.950 . S
C1288 H1280 0.950 . S
C1288 C1289 1.386 . S
C1288 C1290 1.391 . S
C1289 C1288 1.386 . S
C1289 C1293 1.393 . S
C1290 H1282 0.950 . S
C1290 C1288 1.391 . S
C1290 C1291 1.400 . S
C1291 C1290 1.400 . S
C1291 C1292 1.398 . S
C1291 C1297 1.491 . S
C1292 H1283 0.950 . S
C1292 C1291 1.398 . S
C1292 C1293 1.391 . S
C1293 H1281 0.950 . S
C1293 C1289 1.393 . S
C1293 C1292 1.391 . S
C1294 H1284 0.950 . S
C1294 C1295 1.386 . S
C1294 C1296 1.391 . S
C1295 C1294 1.386 . S
C1295 C1299 1.393 . S
C1296 H1285 0.950 . S
C1296 C1294 1.391 . S
C1296 C1297 1.400 . S
C1297 C1291 1.491 . S
C1297 C1296 1.400 . S
C1297 C1298 1.398 . S
C1298 H1286 0.950 . S
C1298 C1297 1.398 . S
C1298 C1299 1.391 . S
C1299 H1287 0.950 . S
C1299 C1295 1.393 . S
C1299 C1298 1.391 . S
H1300 C1308 0.950 . S
H1301 C1313 0.950 . S
H1302 C1310 0.950 . S
H1303 C1312 0.950 . S
H1304 C1314 0.950 . S
H1305 C1316 0.950 . S
H1306 C1318 0.950 . S
H1307 C1319 0.950 . S
C1308 H1300 0.950 . S
C1308 C1309 1.386 . S
C1308 C1310 1.391 . S
C1309 C1308 1.386 . S
C1309 C1313 1.393 1_556 S
C1310 H1302 0.950 . S
C1310 C1308 1.391 . S
C1310 C1311 1.400 . S
C1311 C1310 1.400 . S
C1311 C1312 1.398 1_556 S
C1311 C1317 1.491 . S
C1312 H1303 0.950 . S
C1312 C1311 1.398 1_554 S
C1312 C1313 1.391 . S
C1313 H1301 0.950 . S
C1313 C1309 1.393 1_554 S
C1313 C1312 1.391 . S
C1314 H1304 0.950 . S
C1314 C1315 1.386 1_554 S
C1314 C1316 1.391 . S
C1315 C1314 1.386 1_556 S
C1315 C1319 1.393 . S
C1316 H1305 0.950 . S
C1316 C1314 1.391 . S
C1316 C1317 1.400 1_554 S
C1317 C1311 1.491 . S
C1317 C1316 1.400 1_556 S
C1317 C1318 1.398 . S
C1318 H1306 0.950 . S
C1318 C1317 1.398 . S
C1318 C1319 1.391 . S
C1319 H1307 0.950 . S
C1319 C1315 1.393 . S
C1319 C1318 1.391 . S
H1320 C1328 0.950 . S
H1321 C1333 0.950 . S
H1322 C1330 0.950 . S
H1323 C1332 0.950 . S
H1324 C1334 0.950 . S
H1325 C1336 0.950 . S
H1326 C1338 0.950 . S
H1327 C1339 0.950 . S
C1328 H1320 0.950 . S
C1328 C1329 1.386 . S
C1328 C1330 1.391 . S
C1329 C1328 1.386 . S
C1329 C1333 1.393 . S
C1330 H1322 0.950 . S
C1330 C1328 1.391 . S
C1330 C1331 1.400 . S
C1331 C1330 1.400 . S
C1331 C1332 1.398 . S
C1331 C1337 1.491 . S
C1332 H1323 0.950 . S
C1332 C1331 1.398 . S
C1332 C1333 1.391 . S
C1333 H1321 0.950 . S
C1333 C1329 1.393 . S
C1333 C1332 1.391 . S
C1334 H1324 0.950 . S
C1334 C1335 1.386 . S
C1334 C1336 1.391 . S
C1335 C1334 1.386 . S
C1335 C1339 1.393 . S
C1336 H1325 0.950 . S
C1336 C1334 1.391 . S
C1336 C1337 1.400 . S
C1337 C1331 1.491 . S
C1337 C1336 1.400 . S
C1337 C1338 1.398 . S
C1338 H1326 0.950 . S
C1338 C1337 1.398 . S
C1338 C1339 1.391 . S
C1339 H1327 0.950 . S
C1339 C1335 1.393 . S
C1339 C1338 1.391 . S
H1340 C1348 0.950 . S
H1341 C1353 0.950 . S
H1342 C1350 0.950 . S
H1343 C1352 0.950 . S
H1344 C1354 0.950 . S
H1345 C1356 0.950 . S
H1346 C1358 0.950 . S
H1347 C1359 0.950 . S
C1348 H1340 0.950 . S
C1348 C1349 1.386 1_556 S
C1348 C1350 1.391 . S
C1349 C1348 1.386 1_554 S
C1349 C1353 1.393 . S
C1350 H1342 0.950 . S
C1350 C1348 1.391 . S
C1350 C1351 1.400 1_556 S
C1351 C1350 1.400 1_554 S
C1351 C1352 1.398 . S
C1351 C1357 1.491 . S
C1352 H1343 0.950 . S
C1352 C1351 1.398 . S
C1352 C1353 1.391 . S
C1353 H1341 0.950 . S
C1353 C1349 1.393 . S
C1353 C1352 1.391 . S
C1354 H1344 0.950 . S
C1354 C1355 1.386 1_554 S
C1354 C1356 1.391 . S
C1355 C1354 1.386 1_556 S
C1355 C1359 1.393 . S
C1356 H1345 0.950 . S
C1356 C1354 1.391 . S
C1356 C1357 1.400 . S
C1357 C1351 1.491 . S
C1357 C1356 1.400 . S
C1357 C1358 1.398 1_554 S
C1358 H1346 0.950 . S
C1358 C1357 1.398 1_556 S
C1358 C1359 1.391 . S
C1359 H1347 0.950 . S
C1359 C1355 1.393 . S
C1359 C1358 1.391 . S
H1360 C1368 0.950 . S
H1361 C1373 0.950 . S
H1362 C1370 0.950 . S
H1363 C1372 0.950 . S
H1364 C1374 0.950 . S
H1365 C1376 0.950 . S
H1366 C1378 0.950 . S
H1367 C1379 0.950 . S
C1368 H1360 0.950 . S
C1368 C1369 1.386 . S
C1368 C1370 1.391 . S
C1369 C1368 1.386 . S
C1369 C1373 1.393 . S
C1370 H1362 0.950 . S
C1370 C1368 1.391 . S
C1370 C1371 1.400 . S
C1371 C1370 1.400 . S
C1371 C1372 1.398 . S
C1371 C1377 1.491 . S
C1372 H1363 0.950 . S
C1372 C1371 1.398 . S
C1372 C1373 1.391 . S
C1373 H1361 0.950 . S
C1373 C1369 1.393 . S
C1373 C1372 1.391 . S
C1374 H1364 0.950 . S
C1374 C1375 1.386 . S
C1374 C1376 1.391 . S
C1375 C1374 1.386 . S
C1375 C1379 1.393 . S
C1376 H1365 0.950 . S
C1376 C1374 1.391 . S
C1376 C1377 1.400 . S
C1377 C1371 1.491 . S
C1377 C1376 1.400 . S
C1377 C1378 1.398 . S
C1378 H1366 0.950 . S
C1378 C1377 1.398 . S
C1378 C1379 1.391 . S
C1379 H1367 0.950 . S
C1379 C1375 1.393 . S
C1379 C1378 1.391 . S
H1380 C1388 0.950 . S
H1381 C1393 0.950 . S
H1382 C1390 0.950 . S
H1383 C1392 0.950 . S
H1384 C1394 0.950 . S
H1385 C1396 0.950 . S
H1386 C1398 0.950 . S
H1387 C1399 0.950 . S
C1388 H1380 0.950 . S
C1388 C1389 1.386 1_455 S
C1388 C1390 1.391 . S
C1389 C1388 1.386 1_655 S
C1389 C1393 1.393 . S
C1390 H1382 0.950 . S
C1390 C1388 1.391 . S
C1390 C1391 1.400 1_455 S
C1391 C1390 1.400 1_655 S
C1391 C1392 1.398 . S
C1391 C1397 1.491 . S
C1392 H1383 0.950 . S
C1392 C1391 1.398 . S
C1392 C1393 1.391 . S
C1393 H1381 0.950 . S
C1393 C1389 1.393 . S
C1393 C1392 1.391 . S
C1394 H1384 0.950 . S
C1394 C1395 1.386 . S
C1394 C1396 1.391 . S
C1395 C1394 1.386 . S
C1395 C1399 1.393 1_655 S
C1396 H1385 0.950 . S
C1396 C1394 1.391 . S
C1396 C1397 1.400 . S
C1397 C1391 1.491 . S
C1397 C1396 1.400 . S
C1397 C1398 1.398 1_655 S
C1398 H1386 0.950 . S
C1398 C1397 1.398 1_455 S
C1398 C1399 1.391 . S
C1399 H1387 0.950 . S
C1399 C1395 1.393 1_455 S
C1399 C1398 1.391 . S
H1400 C1408 0.950 . S
H1401 C1413 0.950 . S
H1402 C1410 0.950 . S
H1403 C1412 0.950 . S
H1404 C1414 0.950 . S
H1405 C1416 0.950 . S
H1406 C1418 0.950 . S
H1407 C1419 0.950 . S
C1408 H1400 0.950 . S
C1408 C1409 1.386 . S
C1408 C1410 1.391 . S
C1409 C1408 1.386 . S
C1409 C1413 1.393 . S
C1410 H1402 0.950 . S
C1410 C1408 1.391 . S
C1410 C1411 1.400 . S
C1411 C1410 1.400 . S
C1411 C1412 1.398 . S
C1411 C1417 1.491 . S
C1412 H1403 0.950 . S
C1412 C1411 1.398 . S
C1412 C1413 1.391 . S
C1413 H1401 0.950 . S
C1413 C1409 1.393 . S
C1413 C1412 1.391 . S
C1414 H1404 0.950 . S
C1414 C1415 1.386 . S
C1414 C1416 1.391 . S
C1415 C1414 1.386 . S
C1415 C1419 1.393 . S
C1416 H1405 0.950 . S
C1416 C1414 1.391 . S
C1416 C1417 1.400 . S
C1417 C1411 1.491 . S
C1417 C1416 1.400 . S
C1417 C1418 1.398 . S
C1418 H1406 0.950 . S
C1418 C1417 1.398 . S
C1418 C1419 1.391 . S
C1419 H1407 0.950 . S
C1419 C1415 1.393 . S
C1419 C1418 1.391 . S
H1420 C1428 0.950 . S
H1421 C1433 0.950 . S
H1422 C1430 0.950 . S
H1423 C1432 0.950 . S
H1424 C1434 0.950 . S
H1425 C1436 0.950 . S
H1426 C1438 0.950 . S
H1427 C1439 0.950 . S
C1428 H1420 0.950 . S
C1428 C1429 1.386 . S
C1428 C1430 1.391 . S
C1429 C1428 1.386 . S
C1429 C1433 1.393 1_455 S
C1430 H1422 0.950 . S
C1430 C1428 1.391 . S
C1430 C1431 1.400 . S
C1431 C1430 1.400 . S
C1431 C1432 1.398 1_455 S
C1431 C1437 1.491 . S
C1432 H1423 0.950 . S
C1432 C1431 1.398 1_655 S
C1432 C1433 1.391 . S
C1433 H1421 0.950 . S
C1433 C1429 1.393 1_655 S
C1433 C1432 1.391 . S
C1434 H1424 0.950 . S
C1434 C1435 1.386 . S
C1434 C1436 1.391 . S
C1435 C1434 1.386 . S
C1435 C1439 1.393 1_655 S
C1436 H1425 0.950 . S
C1436 C1434 1.391 . S
C1436 C1437 1.400 1_655 S
C1437 C1431 1.491 . S
C1437 C1436 1.400 1_455 S
C1437 C1438 1.398 . S
C1438 H1426 0.950 . S
C1438 C1437 1.398 . S
C1438 C1439 1.391 . S
C1439 H1427 0.950 . S
C1439 C1435 1.393 1_455 S
C1439 C1438 1.391 . S
H1440 C1448 0.950 . S
H1441 C1453 0.950 . S
H1442 C1450 0.950 . S
H1443 C1452 0.950 . S
H1444 C1454 0.950 . S
H1445 C1456 0.950 . S
H1446 C1458 0.950 . S
H1447 C1459 0.950 . S
C1448 H1440 0.950 . S
C1448 C1449 1.386 . S
C1448 C1450 1.391 . S
C1449 C1448 1.386 . S
C1449 C1453 1.393 . S
C1450 H1442 0.950 . S
C1450 C1448 1.391 . S
C1450 C1451 1.400 . S
C1451 C1450 1.400 . S
C1451 C1452 1.398 . S
C1451 C1457 1.491 . S
C1452 H1443 0.950 . S
C1452 C1451 1.398 . S
C1452 C1453 1.391 . S
C1453 H1441 0.950 . S
C1453 C1449 1.393 . S
C1453 C1452 1.391 . S
C1454 H1444 0.950 . S
C1454 C1455 1.386 . S
C1454 C1456 1.391 . S
C1455 C1454 1.386 . S
C1455 C1459 1.393 . S
C1456 H1445 0.950 . S
C1456 C1454 1.391 . S
C1456 C1457 1.400 . S
C1457 C1451 1.491 . S
C1457 C1456 1.400 . S
C1457 C1458 1.398 . S
C1458 H1446 0.950 . S
C1458 C1457 1.398 . S
C1458 C1459 1.391 . S
C1459 H1447 0.950 . S
C1459 C1455 1.393 . S
C1459 C1458 1.391 . S
H1460 C1468 0.950 . S
H1461 C1473 0.950 . S
H1462 C1470 0.950 . S
H1463 C1472 0.950 . S
H1464 C1474 0.950 . S
H1465 C1476 0.950 . S
H1466 C1478 0.950 . S
H1467 C1479 0.950 . S
C1468 H1460 0.950 . S
C1468 C1469 1.386 . S
C1468 C1470 1.391 . S
C1469 C1468 1.386 . S
C1469 C1473 1.393 . S
C1470 H1462 0.950 . S
C1470 C1468 1.391 . S
C1470 C1471 1.400 . S
C1471 C1470 1.400 . S
C1471 C1472 1.398 . S
C1471 C1477 1.491 . S
C1472 H1463 0.950 . S
C1472 C1471 1.398 . S
C1472 C1473 1.391 . S
C1473 H1461 0.950 . S
C1473 C1469 1.393 . S
C1473 C1472 1.391 . S
C1474 H1464 0.950 . S
C1474 C1475 1.386 . S
C1474 C1476 1.391 . S
C1475 C1474 1.386 . S
C1475 C1479 1.393 . S
C1476 H1465 0.950 . S
C1476 C1474 1.391 . S
C1476 C1477 1.400 . S
C1477 C1471 1.491 . S
C1477 C1476 1.400 . S
C1477 C1478 1.398 . S
C1478 H1466 0.950 . S
C1478 C1477 1.398 . S
C1478 C1479 1.391 . S
C1479 H1467 0.950 . S
C1479 C1475 1.393 . S
C1479 C1478 1.391 . S
H1480 C1488 0.950 . S
H1481 C1493 0.950 . S
H1482 C1490 0.950 . S
H1483 C1492 0.950 . S
H1484 C1494 0.950 . S
H1485 C1496 0.950 . S
H1486 C1498 0.950 . S
H1487 C1499 0.950 . S
C1488 H1480 0.950 . S
C1488 C1489 1.386 . S
C1488 C1490 1.391 . S
C1489 C1488 1.386 . S
C1489 C1493 1.393 . S
C1490 H1482 0.950 . S
C1490 C1488 1.391 . S
C1490 C1491 1.400 . S
C1491 C1490 1.400 . S
C1491 C1492 1.398 . S
C1491 C1497 1.491 . S
C1492 H1483 0.950 . S
C1492 C1491 1.398 . S
C1492 C1493 1.391 . S
C1493 H1481 0.950 . S
C1493 C1489 1.393 . S
C1493 C1492 1.391 . S
C1494 H1484 0.950 . S
C1494 C1495 1.386 . S
C1494 C1496 1.391 . S
C1495 C1494 1.386 . S
C1495 C1499 1.393 . S
C1496 H1485 0.950 . S
C1496 C1494 1.391 . S
C1496 C1497 1.400 . S
C1497 C1491 1.491 . S
C1497 C1496 1.400 . S
C1497 C1498 1.398 . S
C1498 H1486 0.950 . S
C1498 C1497 1.398 . S
C1498 C1499 1.391 . S
C1499 H1487 0.950 . S
C1499 C1495 1.393 . S
C1499 C1498 1.391 . S
H1500 C1508 0.950 . S
H1501 C1513 0.954 . S
H1502 C1510 0.950 . S
H1503 C1512 0.950 . S
H1504 C1514 0.950 . S
H1505 C1516 0.950 . S
H1506 C1518 0.950 . S
H1507 C1519 0.950 . S
C1508 H1500 0.950 . S
C1508 C1509 1.386 . S
C1508 C1510 1.391 . S
C1509 C1508 1.386 . S
C1509 C1513 1.393 . S
C1510 H1502 0.950 . S
C1510 C1508 1.391 . S
C1510 C1511 1.400 . S
C1511 C1510 1.400 . S
C1511 C1512 1.398 . S
C1511 C1517 1.491 . S
C1512 H1503 0.950 . S
C1512 C1511 1.398 . S
C1512 C1513 1.391 . S
C1513 H1501 0.954 . S
C1513 C1509 1.393 . S
C1513 C1512 1.391 . S
C1514 H1504 0.950 . S
C1514 C1515 1.386 . S
C1514 C1516 1.391 . S
C1515 C1514 1.386 . S
C1515 C1519 1.393 . S
C1516 H1505 0.950 . S
C1516 C1514 1.391 . S
C1516 C1517 1.400 . S
C1517 C1511 1.491 . S
C1517 C1516 1.400 . S
C1517 C1518 1.398 . S
C1518 H1506 0.950 . S
C1518 C1517 1.398 . S
C1518 C1519 1.391 . S
C1519 H1507 0.950 . S
C1519 C1515 1.393 . S
C1519 C1518 1.391 . S
H1520 C1528 0.950 . S
H1521 C1533 0.950 . S
H1522 C1530 0.950 . S
H1523 C1532 0.950 . S
H1524 C1534 0.950 . S
H1525 C1536 0.950 . S
H1526 C1538 0.950 . S
H1527 C1539 0.950 . S
C1528 H1520 0.950 . S
C1528 C1529 1.386 . S
C1528 C1530 1.391 . S
C1529 C1528 1.386 . S
C1529 C1533 1.393 . S
C1530 H1522 0.950 . S
C1530 C1528 1.391 . S
C1530 C1531 1.400 . S
C1531 C1530 1.400 . S
C1531 C1532 1.398 . S
C1531 C1537 1.491 . S
C1532 H1523 0.950 . S
C1532 C1531 1.398 . S
C1532 C1533 1.391 . S
C1533 H1521 0.950 . S
C1533 C1529 1.393 . S
C1533 C1532 1.391 . S
C1534 H1524 0.950 . S
C1534 C1535 1.386 . S
C1534 C1536 1.391 . S
C1535 C1534 1.386 . S
C1535 C1539 1.393 . S
C1536 H1525 0.950 . S
C1536 C1534 1.391 . S
C1536 C1537 1.400 . S
C1537 C1531 1.491 . S
C1537 C1536 1.400 . S
C1537 C1538 1.398 . S
C1538 H1526 0.950 . S
C1538 C1537 1.398 . S
C1538 C1539 1.391 . S
C1539 H1527 0.950 . S
C1539 C1535 1.393 . S
C1539 C1538 1.391 . S
H1540 C1548 0.950 . S
H1541 C1553 0.950 1_554 S
H1542 C1550 0.950 . S
H1543 C1552 0.950 . S
H1544 C1554 0.950 . S
H1545 C1556 0.950 . S
H1546 C1558 0.950 . S
H1547 C1559 0.950 . S
C1548 H1540 0.950 . S
C1548 C1549 1.386 . S
C1548 C1550 1.391 . S
C1549 C1548 1.386 . S
C1549 C1553 1.393 . S
C1550 H1542 0.950 . S
C1550 C1548 1.391 . S
C1550 C1551 1.400 . S
C1551 C1550 1.400 . S
C1551 C1552 1.398 . S
C1551 C1557 1.491 . S
C1552 H1543 0.950 . S
C1552 C1551 1.398 . S
C1552 C1553 1.391 . S
C1553 H1541 0.950 1_556 S
C1553 C1549 1.393 . S
C1553 C1552 1.391 . S
C1554 H1544 0.950 . S
C1554 C1555 1.386 . S
C1554 C1556 1.391 . S
C1555 C1554 1.386 . S
C1555 C1559 1.393 . S
C1556 H1545 0.950 . S
C1556 C1554 1.391 . S
C1556 C1557 1.400 . S
C1557 C1551 1.491 . S
C1557 C1556 1.400 . S
C1557 C1558 1.398 . S
C1558 H1546 0.950 . S
C1558 C1557 1.398 . S
C1558 C1559 1.391 . S
C1559 H1547 0.950 . S
C1559 C1555 1.393 . S
C1559 C1558 1.391 . S
H1560 C1568 0.950 . S
H1561 C1573 0.950 . S
H1562 C1570 0.950 . S
H1563 C1572 0.950 . S
H1564 C1574 0.950 . S
H1565 C1576 0.950 . S
H1566 C1578 0.950 . S
H1567 C1579 0.950 . S
C1568 H1560 0.950 . S
C1568 C1569 1.386 . S
C1568 C1570 1.391 . S
C1569 C1568 1.386 . S
C1569 C1573 1.393 . S
C1570 H1562 0.950 . S
C1570 C1568 1.391 . S
C1570 C1571 1.400 . S
C1571 C1570 1.400 . S
C1571 C1572 1.398 . S
C1571 C1577 1.491 . S
C1572 H1563 0.950 . S
C1572 C1571 1.398 . S
C1572 C1573 1.391 . S
C1573 H1561 0.950 . S
C1573 C1569 1.393 . S
C1573 C1572 1.391 . S
C1574 H1564 0.950 . S
C1574 C1575 1.386 . S
C1574 C1576 1.391 . S
C1575 C1574 1.386 . S
C1575 C1579 1.393 . S
C1576 H1565 0.950 . S
C1576 C1574 1.391 . S
C1576 C1577 1.400 . S
C1577 C1571 1.491 . S
C1577 C1576 1.400 . S
C1577 C1578 1.398 . S
C1578 H1566 0.950 . S
C1578 C1577 1.398 . S
C1578 C1579 1.391 . S
C1579 H1567 0.950 . S
C1579 C1575 1.393 . S
C1579 C1578 1.391 . S
H1580 C1588 0.939 1_556 S
H1581 C1593 0.950 . S
H1582 C1590 0.950 . S
H1583 C1592 0.950 . S
H1584 C1594 0.950 . S
H1585 C1596 0.950 . S
H1586 C1598 0.950 . S
H1587 C1599 0.950 . S
C1588 H1580 0.939 1_554 S
C1588 C1589 1.386 . S
C1588 C1590 1.391 . S
C1589 C1588 1.386 . S
C1589 C1593 1.393 . S
C1590 H1582 0.950 . S
C1590 C1588 1.391 . S
C1590 C1591 1.400 . S
C1591 C1590 1.400 . S
C1591 C1592 1.398 . S
C1591 C1597 1.491 . S
C1592 H1583 0.950 . S
C1592 C1591 1.398 . S
C1592 C1593 1.391 . S
C1593 H1581 0.950 . S
C1593 C1589 1.393 . S
C1593 C1592 1.391 . S
C1594 H1584 0.950 . S
C1594 C1595 1.386 . S
C1594 C1596 1.391 . S
C1595 C1594 1.386 . S
C1595 C1599 1.393 . S
C1596 H1585 0.950 . S
C1596 C1594 1.391 . S
C1596 C1597 1.400 . S
C1597 C1591 1.491 . S
C1597 C1596 1.400 . S
C1597 C1598 1.398 . S
C1598 H1586 0.950 . S
C1598 C1597 1.398 . S
C1598 C1599 1.391 . S
C1599 H1587 0.950 . S
C1599 C1595 1.393 . S
C1599 C1598 1.391 . S
H1600 C1608 0.950 . S
H1601 C1613 0.950 . S
H1602 C1610 0.950 . S
H1603 C1612 0.950 . S
H1604 C1614 0.950 . S
H1605 C1616 0.950 . S
H1606 C1618 0.950 . S
H1607 C1619 0.950 . S
C1608 H1600 0.950 . S
C1608 C1609 1.386 . S
C1608 C1610 1.391 . S
C1609 C1608 1.386 . S
C1609 C1613 1.393 . S
C1610 H1602 0.950 . S
C1610 C1608 1.391 . S
C1610 C1611 1.400 . S
C1611 C1610 1.400 . S
C1611 C1612 1.398 . S
C1611 C1617 1.491 . S
C1612 H1603 0.950 . S
C1612 C1611 1.398 . S
C1612 C1613 1.391 . S
C1613 H1601 0.950 . S
C1613 C1609 1.393 . S
C1613 C1612 1.391 . S
C1614 H1604 0.950 . S
C1614 C1615 1.386 . S
C1614 C1616 1.391 . S
C1615 C1614 1.386 . S
C1615 C1619 1.393 . S
C1616 H1605 0.950 . S
C1616 C1614 1.391 . S
C1616 C1617 1.400 . S
C1617 C1611 1.491 . S
C1617 C1616 1.400 . S
C1617 C1618 1.398 . S
C1618 H1606 0.950 . S
C1618 C1617 1.398 . S
C1618 C1619 1.391 . S
C1619 H1607 0.950 . S
C1619 C1615 1.393 . S
C1619 C1618 1.391 . S
H1620 C1628 0.950 1_455 S
H1621 C1633 0.950 . S
H1622 C1630 0.950 . S
H1623 C1632 0.950 . S
H1624 C1634 0.950 . S
H1625 C1636 0.950 . S
H1626 C1638 0.950 . S
H1627 C1639 0.950 . S
C1628 H1620 0.950 1_655 S
C1628 C1629 1.386 . S
C1628 C1630 1.391 . S
C1629 C1628 1.386 . S
C1629 C1633 1.393 . S
C1630 H1622 0.950 . S
C1630 C1628 1.391 . S
C1630 C1631 1.400 . S
C1631 C1630 1.400 . S
C1631 C1632 1.398 . S
C1631 C1637 1.491 . S
C1632 H1623 0.950 . S
C1632 C1631 1.398 . S
C1632 C1633 1.391 . S
C1633 H1621 0.950 . S
C1633 C1629 1.393 . S
C1633 C1632 1.391 . S
C1634 H1624 0.950 . S
C1634 C1635 1.386 . S
C1634 C1636 1.391 . S
C1635 C1634 1.386 . S
C1635 C1639 1.393 . S
C1636 H1625 0.950 . S
C1636 C1634 1.391 . S
C1636 C1637 1.400 . S
C1637 C1631 1.491 . S
C1637 C1636 1.400 . S
C1637 C1638 1.398 . S
C1638 H1626 0.950 . S
C1638 C1637 1.398 . S
C1638 C1639 1.391 . S
C1639 H1627 0.950 . S
C1639 C1635 1.393 . S
C1639 C1638 1.391 . S
H1640 C1648 0.950 . S
H1641 C1653 0.950 . S
H1642 C1650 0.950 . S
H1643 C1652 0.950 . S
H1644 C1654 0.950 . S
H1645 C1656 0.950 . S
H1646 C1658 0.950 . S
H1647 C1659 0.950 . S
C1648 H1640 0.950 . S
C1648 C1649 1.386 . S
C1648 C1650 1.391 . S
C1649 C1648 1.386 . S
C1649 C1653 1.393 . S
C1650 H1642 0.950 . S
C1650 C1648 1.391 . S
C1650 C1651 1.400 . S
C1651 C1650 1.400 . S
C1651 C1652 1.398 . S
C1651 C1657 1.491 . S
C1652 H1643 0.950 . S
C1652 C1651 1.398 . S
C1652 C1653 1.391 . S
C1653 H1641 0.950 . S
C1653 C1649 1.393 . S
C1653 C1652 1.391 . S
C1654 H1644 0.950 . S
C1654 C1655 1.386 . S
C1654 C1656 1.391 . S
C1655 C1654 1.386 . S
C1655 C1659 1.393 . S
C1656 H1645 0.950 . S
C1656 C1654 1.391 . S
C1656 C1657 1.400 . S
C1657 C1651 1.491 . S
C1657 C1656 1.400 . S
C1657 C1658 1.398 . S
C1658 H1646 0.950 . S
C1658 C1657 1.398 . S
C1658 C1659 1.391 . S
C1659 H1647 0.950 . S
C1659 C1655 1.393 . S
C1659 C1658 1.391 . S
H1660 C1668 0.950 . S
H1661 C1673 0.950 . S
H1662 C1670 0.950 . S
H1663 C1672 0.950 1_655 S
H1664 C1674 0.950 . S
H1665 C1676 0.950 . S
H1666 C1678 0.950 . S
H1667 C1679 0.950 . S
C1668 H1660 0.950 . S
C1668 C1669 1.386 . S
C1668 C1670 1.391 . S
C1669 C1668 1.386 . S
C1669 C1673 1.393 1_455 S
C1670 H1662 0.950 . S
C1670 C1668 1.391 . S
C1670 C1671 1.400 . S
C1671 C1670 1.400 . S
C1671 C1672 1.398 . S
C1671 C1677 1.491 . S
C1672 H1663 0.950 1_455 S
C1672 C1671 1.398 . S
C1672 C1673 1.391 1_455 S
C1673 H1661 0.950 . S
C1673 C1669 1.393 1_655 S
C1673 C1672 1.391 1_655 S
C1674 H1664 0.950 . S
C1674 C1675 1.386 . S
C1674 C1676 1.391 . S
C1675 C1674 1.386 . S
C1675 C1679 1.393 . S
C1676 H1665 0.950 . S
C1676 C1674 1.391 . S
C1676 C1677 1.400 . S
C1677 C1671 1.491 . S
C1677 C1676 1.400 . S
C1677 C1678 1.398 . S
C1678 H1666 0.950 . S
C1678 C1677 1.398 . S
C1678 C1679 1.391 . S
C1679 H1667 0.950 . S
C1679 C1675 1.393 . S
C1679 C1678 1.391 . S
H1680 C1688 0.950 . S
H1681 C1693 0.950 . S
H1682 C1690 0.950 . S
H1683 C1692 0.950 . S
H1684 C1694 0.950 . S
H1685 C1696 0.950 . S
H1686 C1698 0.950 . S
H1687 C1699 0.950 . S
C1688 H1680 0.950 . S
C1688 C1689 1.386 . S
C1688 C1690 1.391 . S
C1689 C1688 1.386 . S
C1689 C1693 1.393 . S
C1690 H1682 0.950 . S
C1690 C1688 1.391 . S
C1690 C1691 1.400 . S
C1691 C1690 1.400 . S
C1691 C1692 1.398 . S
C1691 C1697 1.491 . S
C1692 H1683 0.950 . S
C1692 C1691 1.398 . S
C1692 C1693 1.391 . S
C1693 H1681 0.950 . S
C1693 C1689 1.393 . S
C1693 C1692 1.391 . S
C1694 H1684 0.950 . S
C1694 C1695 1.386 . S
C1694 C1696 1.391 . S
C1695 C1694 1.386 . S
C1695 C1699 1.393 . S
C1696 H1685 0.950 . S
C1696 C1694 1.391 . S
C1696 C1697 1.400 . S
C1697 C1691 1.491 . S
C1697 C1696 1.400 . S
C1697 C1698 1.398 . S
C1698 H1686 0.950 . S
C1698 C1697 1.398 . S
C1698 C1699 1.391 . S
C1699 H1687 0.950 . S
C1699 C1695 1.393 . S
C1699 C1698 1.391 . S
H1700 C1708 0.950 . S
H1701 C1713 0.950 . S
H1702 C1710 0.950 . S
H1703 C1712 0.950 . S
H1704 C1714 0.950 . S
H1705 C1716 0.950 . S
H1706 C1718 0.950 . S
H1707 C1719 0.950 . S
C1708 H1700 0.950 . S
C1708 C1709 1.386 . S
C1708 C1710 1.391 . S
C1709 C1708 1.386 . S
C1709 C1713 1.393 . S
C1710 H1702 0.950 . S
C1710 C1708 1.391 . S
C1710 C1711 1.400 . S
C1711 C1710 1.400 . S
C1711 C1712 1.398 . S
C1711 C1717 1.491 . S
C1712 H1703 0.950 . S
C1712 C1711 1.398 . S
C1712 C1713 1.391 . S
C1713 H1701 0.950 . S
C1713 C1709 1.393 . S
C1713 C1712 1.391 . S
C1714 H1704 0.950 . S
C1714 C1715 1.386 . S
C1714 C1716 1.391 . S
C1715 C1714 1.386 . S
C1715 C1719 1.393 . S
C1716 H1705 0.950 . S
C1716 C1714 1.391 . S
C1716 C1717 1.400 . S
C1717 C1711 1.491 . S
C1717 C1716 1.400 . S
C1717 C1718 1.398 . S
C1718 H1706 0.950 . S
C1718 C1717 1.398 . S
C1718 C1719 1.391 . S
C1719 H1707 0.950 . S
C1719 C1715 1.393 . S
C1719 C1718 1.391 . S
H1720 C1728 0.950 . S
H1721 C1733 0.950 1_545 S
H1722 C1730 0.950 . S
H1723 C1732 0.950 . S
H1724 C1734 0.950 . S
H1725 C1736 0.950 . S
H1726 C1738 0.950 . S
H1727 C1739 0.950 . S
C1728 H1720 0.950 . S
C1728 C1729 1.386 . S
C1728 C1730 1.391 . S
C1729 C1728 1.386 . S
C1729 C1733 1.393 . S
C1730 H1722 0.950 . S
C1730 C1728 1.391 . S
C1730 C1731 1.400 . S
C1731 C1730 1.400 . S
C1731 C1732 1.398 . S
C1731 C1737 1.491 . S
C1732 H1723 0.950 . S
C1732 C1731 1.398 . S
C1732 C1733 1.391 . S
C1733 H1721 0.950 1_565 S
C1733 C1729 1.393 . S
C1733 C1732 1.391 . S
C1734 H1724 0.950 . S
C1734 C1735 1.386 . S
C1734 C1736 1.391 . S
C1735 C1734 1.386 . S
C1735 C1739 1.393 . S
C1736 H1725 0.950 . S
C1736 C1734 1.391 . S
C1736 C1737 1.400 . S
C1737 C1731 1.491 . S
C1737 C1736 1.400 . S
C1737 C1738 1.398 . S
C1738 H1726 0.950 . S
C1738 C1737 1.398 . S
C1738 C1739 1.391 . S
C1739 H1727 0.950 . S
C1739 C1735 1.393 . S
C1739 C1738 1.391 . S
H1740 C1748 0.950 . S
H1741 C1753 0.950 . S
H1742 C1750 0.950 . S
H1743 C1752 0.950 . S
H1744 C1754 0.950 . S
H1745 C1756 0.950 . S
H1746 C1758 0.950 . S
H1747 C1759 0.950 . S
C1748 H1740 0.950 . S
C1748 C1749 1.386 . S
C1748 C1750 1.391 . S
C1749 C1748 1.386 . S
C1749 C1753 1.393 . S
C1750 H1742 0.950 . S
C1750 C1748 1.391 . S
C1750 C1751 1.400 . S
C1751 C1750 1.400 . S
C1751 C1752 1.398 . S
C1751 C1757 1.491 . S
C1752 H1743 0.950 . S
C1752 C1751 1.398 . S
C1752 C1753 1.391 . S
C1753 H1741 0.950 . S
C1753 C1749 1.393 . S
C1753 C1752 1.391 . S
C1754 H1744 0.950 . S
C1754 C1755 1.386 . S
C1754 C1756 1.391 . S
C1755 C1754 1.386 . S
C1755 C1759 1.393 . S
C1756 H1745 0.950 . S
C1756 C1754 1.391 . S
C1756 C1757 1.400 . S
C1757 C1751 1.491 . S
C1757 C1756 1.400 . S
C1757 C1758 1.398 . S
C1758 H1746 0.950 . S
C1758 C1757 1.398 . S
C1758 C1759 1.391 . S
C1759 H1747 0.950 . S
C1759 C1755 1.393 . S
C1759 C1758 1.391 . S
H1760 C1768 0.950 . S
H1761 C1773 0.950 . S
H1762 C1770 0.950 . S
H1763 C1772 0.950 . S
H1764 C1774 0.950 . S
H1765 C1776 0.950 . S
H1766 C1778 0.950 . S
H1767 C1779 0.950 . S
C1768 H1760 0.950 . S
C1768 C1769 1.386 . S
C1768 C1770 1.391 . S
C1769 C1768 1.386 . S
C1769 C1773 1.393 . S
C1770 H1762 0.950 . S
C1770 C1768 1.391 . S
C1770 C1771 1.400 . S
C1771 C1770 1.400 . S
C1771 C1772 1.398 . S
C1771 C1777 1.491 . S
C1772 H1763 0.950 . S
C1772 C1771 1.398 . S
C1772 C1773 1.391 . S
C1773 H1761 0.950 . S
C1773 C1769 1.393 . S
C1773 C1772 1.391 . S
C1774 H1764 0.950 . S
C1774 C1775 1.386 . S
C1774 C1776 1.391 . S
C1775 C1774 1.386 . S
C1775 C1779 1.393 . S
C1776 H1765 0.950 . S
C1776 C1774 1.391 . S
C1776 C1777 1.400 . S
C1777 C1771 1.491 . S
C1777 C1776 1.400 . S
C1777 C1778 1.398 . S
C1778 H1766 0.950 . S
C1778 C1777 1.398 . S
C1778 C1779 1.391 . S
C1779 H1767 0.950 . S
C1779 C1775 1.393 . S
C1779 C1778 1.391 . S
H1780 C1788 0.950 . S
H1781 C1793 0.950 1_556 S
H1782 C1790 0.950 . S
H1783 C1792 0.950 1_556 S
H1784 C1794 0.950 . S
H1785 C1796 0.950 . S
H1786 C1798 0.950 . S
H1787 C1799 0.950 . S
C1788 H1780 0.950 . S
C1788 C1789 1.386 . S
C1788 C1790 1.391 . S
C1789 C1788 1.386 . S
C1789 C1793 1.393 . S
C1790 H1782 0.950 . S
C1790 C1788 1.391 . S
C1790 C1791 1.400 . S
C1791 C1790 1.400 . S
C1791 C1792 1.398 . S
C1791 C1797 1.491 . S
C1792 H1783 0.950 1_554 S
C1792 C1791 1.398 . S
C1792 C1793 1.391 . S
C1793 H1781 0.950 1_554 S
C1793 C1789 1.393 . S
C1793 C1792 1.391 . S
C1794 H1784 0.950 . S
C1794 C1795 1.386 . S
C1794 C1796 1.391 . S
C1795 C1794 1.386 . S
C1795 C1799 1.393 . S
C1796 H1785 0.950 . S
C1796 C1794 1.391 . S
C1796 C1797 1.400 . S
C1797 C1791 1.491 . S
C1797 C1796 1.400 . S
C1797 C1798 1.398 . S
C1798 H1786 0.950 . S
C1798 C1797 1.398 . S
C1798 C1799 1.391 . S
C1799 H1787 0.950 . S
C1799 C1795 1.393 . S
C1799 C1798 1.391 . S
H1800 C1808 0.950 . S
H1801 C1813 0.950 . S
H1802 C1810 0.950 . S
H1803 C1812 0.950 . S
H1804 C1814 0.950 . S
H1805 C1816 0.950 . S
H1806 C1818 0.950 . S
H1807 C1819 0.950 . S
C1808 H1800 0.950 . S
C1808 C1809 1.386 . S
C1808 C1810 1.391 . S
C1809 C1808 1.386 . S
C1809 C1813 1.393 . S
C1810 H1802 0.950 . S
C1810 C1808 1.391 . S
C1810 C1811 1.400 . S
C1811 C1810 1.400 . S
C1811 C1812 1.398 . S
C1811 C1817 1.491 . S
C1812 H1803 0.950 . S
C1812 C1811 1.398 . S
C1812 C1813 1.391 . S
C1813 H1801 0.950 . S
C1813 C1809 1.393 . S
C1813 C1812 1.391 . S
C1814 H1804 0.950 . S
C1814 C1815 1.386 . S
C1814 C1816 1.391 . S
C1815 C1814 1.386 . S
C1815 C1819 1.393 . S
C1816 H1805 0.950 . S
C1816 C1814 1.391 . S
C1816 C1817 1.400 . S
C1817 C1811 1.491 . S
C1817 C1816 1.400 . S
C1817 C1818 1.398 . S
C1818 H1806 0.950 . S
C1818 C1817 1.398 . S
C1818 C1819 1.391 . S
C1819 H1807 0.950 . S
C1819 C1815 1.393 . S
C1819 C1818 1.391 . S
H1820 C1828 0.950 . S
H1821 C1833 0.950 1_554 S
H1822 C1830 0.950 . S
H1823 C1832 0.950 . S
H1824 C1834 0.950 . S
H1825 C1836 0.950 . S
H1826 C1838 0.950 . S
H1827 C1839 0.950 . S
C1828 H1820 0.950 . S
C1828 C1829 1.386 . S
C1828 C1830 1.391 . S
C1829 C1828 1.386 . S
C1829 C1833 1.393 . S
C1830 H1822 0.950 . S
C1830 C1828 1.391 . S
C1830 C1831 1.400 . S
C1831 C1830 1.400 . S
C1831 C1832 1.398 . S
C1831 C1837 1.491 . S
C1832 H1823 0.950 . S
C1832 C1831 1.398 . S
C1832 C1833 1.391 . S
C1833 H1821 0.950 1_556 S
C1833 C1829 1.393 . S
C1833 C1832 1.391 . S
C1834 H1824 0.950 . S
C1834 C1835 1.386 . S
C1834 C1836 1.391 . S
C1835 C1834 1.386 . S
C1835 C1839 1.393 . S
C1836 H1825 0.950 . S
C1836 C1834 1.391 . S
C1836 C1837 1.400 . S
C1837 C1831 1.491 . S
C1837 C1836 1.400 . S
C1837 C1838 1.398 . S
C1838 H1826 0.950 . S
C1838 C1837 1.398 . S
C1838 C1839 1.391 . S
C1839 H1827 0.950 . S
C1839 C1835 1.393 . S
C1839 C1838 1.391 . S
H1840 C1848 0.950 . S
H1841 C1853 0.950 . S
H1842 C1850 0.950 . S
H1843 C1852 0.950 . S
H1844 C1854 0.950 . S
H1845 C1856 0.950 . S
H1846 C1858 0.950 . S
H1847 C1859 0.950 . S
C1848 H1840 0.950 . S
C1848 C1849 1.386 . S
C1848 C1850 1.391 . S
C1849 C1848 1.386 . S
C1849 C1853 1.393 . S
C1850 H1842 0.950 . S
C1850 C1848 1.391 . S
C1850 C1851 1.400 . S
C1851 C1850 1.400 . S
C1851 C1852 1.398 . S
C1851 C1857 1.491 . S
C1852 H1843 0.950 . S
C1852 C1851 1.398 . S
C1852 C1853 1.391 . S
C1853 H1841 0.950 . S
C1853 C1849 1.393 . S
C1853 C1852 1.391 . S
C1854 H1844 0.950 . S
C1854 C1855 1.386 . S
C1854 C1856 1.391 . S
C1855 C1854 1.386 . S
C1855 C1859 1.393 . S
C1856 H1845 0.950 . S
C1856 C1854 1.391 . S
C1856 C1857 1.400 . S
C1857 C1851 1.491 . S
C1857 C1856 1.400 . S
C1857 C1858 1.398 . S
C1858 H1846 0.950 . S
C1858 C1857 1.398 . S
C1858 C1859 1.391 . S
C1859 H1847 0.950 . S
C1859 C1855 1.393 . S
C1859 C1858 1.391 . S
H1860 C1868 0.950 1_655 S
H1861 C1873 0.950 . S
H1862 C1870 0.950 . S
H1863 C1872 0.950 . S
H1864 C1874 0.950 . S
H1865 C1876 0.950 . S
H1866 C1878 0.950 . S
H1867 C1879 0.950 . S
C1868 H1860 0.950 1_455 S
C1868 C1869 1.386 . S
C1868 C1870 1.391 . S
C1869 C1868 1.386 . S
C1869 C1873 1.393 . S
C1870 H1862 0.950 . S
C1870 C1868 1.391 . S
C1870 C1871 1.400 . S
C1871 C1870 1.400 . S
C1871 C1872 1.398 . S
C1871 C1877 1.491 . S
C1872 H1863 0.950 . S
C1872 C1871 1.398 . S
C1872 C1873 1.391 . S
C1873 H1861 0.950 . S
C1873 C1869 1.393 . S
C1873 C1872 1.391 . S
C1874 H1864 0.950 . S
C1874 C1875 1.386 . S
C1874 C1876 1.391 . S
C1875 C1874 1.386 . S
C1875 C1879 1.393 . S
C1876 H1865 0.950 . S
C1876 C1874 1.391 . S
C1876 C1877 1.400 . S
C1877 C1871 1.491 . S
C1877 C1876 1.400 . S
C1877 C1878 1.398 . S
C1878 H1866 0.950 . S
C1878 C1877 1.398 . S
C1878 C1879 1.391 . S
C1879 H1867 0.950 . S
C1879 C1875 1.393 . S
C1879 C1878 1.391 . S
H1880 C1888 0.950 . S
H1881 C1893 0.950 . S
H1882 C1890 0.950 . S
H1883 C1892 0.950 . S
H1884 C1894 0.950 . S
H1885 C1896 0.950 . S
H1886 C1898 0.950 . S
H1887 C1899 0.950 . S
C1888 H1880 0.950 . S
C1888 C1889 1.386 . S
C1888 C1890 1.391 . S
C1889 C1888 1.386 . S
C1889 C1893 1.393 . S
C1890 H1882 0.950 . S
C1890 C1888 1.391 . S
C1890 C1891 1.400 . S
C1891 C1890 1.400 . S
C1891 C1892 1.398 . S
C1891 C1897 1.491 . S
C1892 H1883 0.950 . S
C1892 C1891 1.398 . S
C1892 C1893 1.391 . S
C1893 H1881 0.950 . S
C1893 C1889 1.393 . S
C1893 C1892 1.391 . S
C1894 H1884 0.950 . S
C1894 C1895 1.386 . S
C1894 C1896 1.391 . S
C1895 C1894 1.386 . S
C1895 C1899 1.393 . S
C1896 H1885 0.950 . S
C1896 C1894 1.391 . S
C1896 C1897 1.400 . S
C1897 C1891 1.491 . S
C1897 C1896 1.400 . S
C1897 C1898 1.398 . S
C1898 H1886 0.950 . S
C1898 C1897 1.398 . S
C1898 C1899 1.391 . S
C1899 H1887 0.950 . S
C1899 C1895 1.393 . S
C1899 C1898 1.391 . S
H1900 C1908 0.950 1_455 S
H1901 C1913 0.950 . S
H1902 C1910 0.950 . S
H1903 C1912 0.950 . S
H1904 C1914 0.950 . S
H1905 C1916 0.950 . S
H1906 C1918 0.950 . S
H1907 C1919 0.950 . S
C1908 H1900 0.950 1_655 S
C1908 C1909 1.386 . S
C1908 C1910 1.391 . S
C1909 C1908 1.386 . S
C1909 C1913 1.393 . S
C1910 H1902 0.950 . S
C1910 C1908 1.391 . S
C1910 C1911 1.400 . S
C1911 C1910 1.400 . S
C1911 C1912 1.398 . S
C1911 C1917 1.491 . S
C1912 H1903 0.950 . S
C1912 C1911 1.398 . S
C1912 C1913 1.391 . S
C1913 H1901 0.950 . S
C1913 C1909 1.393 . S
C1913 C1912 1.391 . S
C1914 H1904 0.950 . S
C1914 C1915 1.386 . S
C1914 C1916 1.391 . S
C1915 C1914 1.386 . S
C1915 C1919 1.393 . S
C1916 H1905 0.950 . S
C1916 C1914 1.391 . S
C1916 C1917 1.400 . S
C1917 C1911 1.491 . S
C1917 C1916 1.400 . S
C1917 C1918 1.398 . S
C1918 H1906 0.950 . S
C1918 C1917 1.398 . S
C1918 C1919 1.391 . S
C1919 H1907 0.950 . S
C1919 C1915 1.393 . S
C1919 C1918 1.391 . S
C495 C475 1.808 . S
C489 C8 1.785 . S
C515 C448 1.538 . S
C509 C19 1.478 . S
C535 C466 1.404 . S
C529 C30 1.396 . S
C555 C457 1.978 . S
C549 C41 1.946 . S
C575 C394 1.799 . S
C569 C52 1.786 . S
C589 C63 1.929 . S
C595 C403 1.979 . S
C615 C376 1.537 . S
C609 C74 1.489 . S
C629 C85 1.397 . S
C635 C385 1.395 . S
C655 C439 1.808 . S
C649 C96 1.790 . S
C669 C107 1.928 . S
C675 C421 1.977 . S
C689 C118 1.483 . S
C695 C412 1.537 . S
C715 C430 1.395 . S
C709 C129 1.391 . S
C735 C367 1.800 . S
C729 C140 1.753 . S
C749 C151 1.437 . S
C755 C340 1.542 . S
C775 C358 1.398 . S
C769 C162 1.331 . S
C789 C173 1.874 . S
C795 C349 1.977 . S
C815 C286 1.807 . S
C809 C184 1.738 . S
C835 C295 1.977 . S
C829 C195 1.875 . S
C849 C206 1.410 . S
C855 C268 1.541 . S
C869 C217 1.325 . S
C875 C277 1.400 . S
C889 C228 1.747 . S
C895 C331 1.805 . S
C909 C239 1.876 . S
C915 C313 1.978 . S
C935 C304 1.539 . S
C929 C250 1.415 . S
C949 C261 1.351 . S
C955 C322 1.391 . S
C975 C269 1.196 . S
C969 C7 1.214 . S
C995 C278 1.147 . S
C989 C18 1.147 . S
C1009 C29 1.172 . S
C1015 C287 1.181 . S
C1029 C40 1.008 . S
C1035 C296 1.007 . S
C1055 C305 1.210 . S
C1049 C51 1.203 . S
C1069 C62 1.008 . S
C1075 C314 1.020 . S
C1095 C323 1.127 . S
C1089 C73 1.135 . S
C1115 C332 1.180 . S
C1109 C84 1.187 . S
C1135 C341 1.195 . S
C1129 C95 1.203 . S
C1149 C106 1.009 . S
C1155 C350 1.006 . S
C1169 C117 1.155 . S
C1175 C359 1.133 . S
C1189 C128 1.175 . S
C1195 C368 1.175 . S
C1209 C139 1.119 . S
C1215 C377 1.193 . S
C1229 C150 1.029 . S
C1235 C386 1.142 . S
C1249 C161 1.101 . S
C1255 C395 1.190 . S
C1269 C172 0.955 . S
C1275 C404 1.008 . S
C1289 C183 1.155 . S
C1295 C413 1.211 . S
C1315 C422 1.008 . S
C1309 C194 0.962 . S
C1335 C431 1.126 . S
C1329 C205 1.048 . S
C1355 C440 1.183 . S
C1349 C216 1.080 . S
C1375 C449 1.210 . S
C1369 C227 1.141 . S
C1389 C238 0.952 . S
C1395 C458 1.019 . S
C1409 C249 1.030 . S
C1415 C467 1.142 . S
C1429 C260 1.112 . S
C1435 C476 1.177 . S
C1449 C5 1.468 . S
C1455 C343 1.674 . S
C1475 C370 1.589 . S
C1469 C16 1.424 . S
C1489 C27 1.201 1_545 S
C1495 C352 1.318 . S
C1515 C361 1.977 . S
C1509 C38 1.775 1_565 S
C1529 C49 1.469 . S
C1535 C271 1.669 . S
C1549 C60 1.780 1_556 S
C1555 C280 1.977 . S
C1569 C71 1.414 . S
C1575 C289 1.585 . S
C1589 C82 1.244 1_554 S
C1595 C298 1.332 . S
C1615 C307 1.674 . S
C1609 C93 1.465 . S
C1635 C325 1.970 . S
C1629 C104 1.778 1_655 S
C1649 C115 1.414 . S
C1655 C334 1.585 . S
C1669 C126 1.232 1_455 S
C1675 C316 1.334 . S
C1695 C451 1.673 . S
C1689 C137 1.272 . S
C1715 C478 1.590 . S
C1709 C148 1.067 . S
C1729 C159 1.011 . S
C1735 C460 1.322 . S
C1755 C469 1.988 . S
C1749 C170 1.416 . S
C1769 C181 1.224 . S
C1775 C379 1.680 . S
C1789 C192 1.410 . S
C1795 C388 1.976 . S
C1809 C203 1.082 . S
C1815 C397 1.600 . S
C1835 C406 1.341 . S
C1829 C214 0.955 . S
C1855 C415 1.681 . S
C1849 C225 1.230 . S
C1875 C433 1.988 . S
C1869 C236 1.450 . S
C1889 C247 1.113 . S
C1895 C442 1.594 . S
C1915 C424 1.336 . S
C1909 C258 1.028 . S
