# Generated by pormake.
# Topology anh, (6,3)-cn, num edge types: 1
# Building blocks:
#     Node 0, Type 0, BuildingBlock: BETFAJ_clean_sbu_0, # of connection points: 6
#     Node 1, Type 0, BuildingBlock: BETFAJ_clean_sbu_0, # of connection points: 6
#     Node 2, Type 0, BuildingBlock: BETFAJ_clean_sbu_0, # of connection points: 6
#     Node 3, Type 1, BuildingBlock: QEWDON_clean_linker_0, # of connection points: 3
#     Node 4, Type 1, BuildingBlock: QEWDON_clean_linker_0, # of connection points: 3
#     Node 5, Type 1, BuildingBlock: QEWDON_clean_linker_0, # of connection points: 3
#     Node 6, Type 1, BuildingBlock: QEWDON_clean_linker_0, # of connection points: 3
#     Node 7, Type 1, BuildingBlock: QEWDON_clean_linker_0, # of connection points: 3
#     Node 8, Type 1, BuildingBlock: QEWDON_clean_linker_0, # of connection points: 3
#     Edge 9, Type (0, 1), BuildingBlock: EZIPEK_clean_linker_0, # of connection points: 2
#     Edge 10, Type (0, 1), BuildingBlock: EZIPEK_clean_linker_0, # of connection points: 2
#     Edge 11, Type (0, 1), BuildingBlock: EZIPEK_clean_linker_0, # of connection points: 2
#     Edge 12, Type (0, 1), BuildingBlock: EZIPEK_clean_linker_0, # of connection points: 2
#     Edge 13, Type (0, 1), BuildingBlock: EZIPEK_clean_linker_0, # of connection points: 2
#     Edge 14, Type (0, 1), BuildingBlock: EZIPEK_clean_linker_0, # of connection points: 2
#     Edge 15, Type (0, 1), BuildingBlock: EZIPEK_clean_linker_0, # of connection points: 2
#     Edge 16, Type (0, 1), BuildingBlock: EZIPEK_clean_linker_0, # of connection points: 2
#     Edge 17, Type (0, 1), BuildingBlock: EZIPEK_clean_linker_0, # of connection points: 2
#     Edge 18, Type (0, 1), BuildingBlock: EZIPEK_clean_linker_0, # of connection points: 2
#     Edge 19, Type (0, 1), BuildingBlock: EZIPEK_clean_linker_0, # of connection points: 2
#     Edge 20, Type (0, 1), BuildingBlock: EZIPEK_clean_linker_0, # of connection points: 2
#     Edge 21, Type (0, 1), BuildingBlock: EZIPEK_clean_linker_0, # of connection points: 2
#     Edge 22, Type (0, 1), BuildingBlock: EZIPEK_clean_linker_0, # of connection points: 2
#     Edge 23, Type (0, 1), BuildingBlock: EZIPEK_clean_linker_0, # of connection points: 2
#     Edge 24, Type (0, 1), BuildingBlock: EZIPEK_clean_linker_0, # of connection points: 2
#     Edge 25, Type (0, 1), BuildingBlock: EZIPEK_clean_linker_0, # of connection points: 2
#     Edge 26, Type (0, 1), BuildingBlock: EZIPEK_clean_linker_0, # of connection points: 2
# Relax obj value: 0.190
# Max RMSD: 0.202
# Mean RMSD: 0.130
data_MOF--net-anh--node1-BETFAJ_clean_sbu_0--node2-QEWDON_clean_linker_0--edge1-EZIPEK_clean_linker_0
_symmetry_space_group_name_H-M    P1
_symmetry_Int_Tables_number       1
_symmetry_cell_setting            triclinic
loop_
_symmetry_equiv_pos_as_xyz
'x, y, z'
_cell_length_a     25.097244
_cell_length_b     31.272074
_cell_length_c     35.683039
_cell_angle_alpha  95.564673
_cell_angle_beta   92.102437
_cell_angle_gamma 132.25218
loop_
_atom_site_label
_atom_site_type_symbol
_atom_site_fract_x
_atom_site_fract_y
_atom_site_fract_z
_atom_type_partial_charge
Sm0 Sm 0.1423 0.50519 0.14513 0.0
Sm1 Sm 1.04413 0.52532 0.15449 0.0
C2 C 0.25175 0.51523 0.12919 0.0
C3 C 0.32826 0.57044 0.13248 0.0
C4 C 0.35459 0.61821 0.16007 0.0
C5 C 0.42221 0.67357 0.15979 0.0
C6 C 0.46763 0.68147 0.13388 0.0
C7 C 0.44325 0.6331 0.10751 0.0
C8 C 0.37326 0.5781 0.10629 0.0
C9 C 0.11243 0.50618 0.21852 0.0
C10 C 0.21599 0.64351 0.15952 0.0
C11 C 0.97363 0.5546 0.18044 0.0
C12 C 0.90862 0.54596 0.18213 0.0
C13 C 0.88427 0.54297 0.2175 0.0
C14 C 0.84051 0.55513 0.22317 0.0
C15 C 0.8224 0.57153 0.19366 0.0
C16 C 0.83841 0.56653 0.15708 0.0
C17 C 0.88126 0.55378 0.15129 0.0
C18 C 1.04883 0.49909 0.07872 0.0
C19 C 0.97155 0.38944 0.14267 0.0
O20 O 0.2073 0.50768 0.10281 0.0
O21 O 0.22547 0.50183 0.16132 0.0
O22 O 0.12677 0.54152 0.19701 0.0
O23 O 0.11322 0.46818 0.20127 0.0
O24 O 0.22666 0.60739 0.15581 0.0
O25 O 0.14971 0.62277 0.15941 0.0
O26 O 0.97826 0.52133 0.19665 0.0
O27 O 1.007 0.57191 0.15038 0.0
O28 O 0.1018 0.53206 0.10494 0.0
O29 O 0.98974 0.47926 0.09228 0.0
O30 O 0.96795 0.42682 0.15964 0.0
O31 O 1.03087 0.40915 0.12785 0.0
H32 H 0.32245 0.61322 0.18165 0.0
H33 H 0.43982 0.71013 0.18035 0.0
H34 H 0.47778 0.63835 0.08734 0.0
H35 H 0.35405 0.54192 0.08477 0.0
H36 H 0.9045 0.53666 0.24164 0.0
H37 H 0.8273 0.55762 0.25138 0.0
H38 H 0.82413 0.57846 0.13381 0.0
H39 H 0.89846 0.55566 0.12361 0.0
Sm40 Sm 0.68535 0.04118 0.47682 0.0
Sm41 Sm 0.58568 0.06048 0.46819 0.0
C42 C 0.74658 1.00331 0.50027 0.0
C43 C 0.71965 0.94453 0.49997 0.0
C44 C 0.74884 0.93483 0.52848 0.0
C45 C 0.71888 0.87806 0.53057 0.0
C46 C 0.65939 0.83048 0.50416 0.0
C47 C 0.63067 0.84019 0.47539 0.0
C48 C 0.6605 0.89686 0.47334 0.0
C49 C 0.65441 0.04277 0.40265 0.0
C50 C 0.50575 0.9241 0.46127 0.0
C51 C 0.51544 0.09353 0.45095 0.0
C52 C 0.52881 0.14702 0.46029 0.0
C53 C 0.4857 0.15308 0.44025 0.0
C54 C 0.49452 0.20194 0.45086 0.0
C55 C 0.54636 0.24503 0.48173 0.0
C56 C 0.59128 0.23997 0.5009 0.0
C57 C 0.58272 0.19128 0.49015 0.0
C58 C 0.61586 0.05538 0.5421 0.0
C59 C 0.76522 0.17635 0.47756 0.0
O60 O 0.71711 0.01588 0.52254 0.0
O61 O 0.75308 0.02016 0.46725 0.0
O62 O 0.6083 0.0177 0.42569 0.0
O63 O 0.71816 0.06593 0.41814 0.0
O64 O 0.57185 0.9457 0.47215 0.0
O65 O 0.49672 0.95965 0.45393 0.0
O66 O 0.55849 0.09678 0.42936 0.0
O67 O 0.50379 0.06584 0.47922 0.0
O68 O 0.66169 0.08271 0.51933 0.0
O69 O 0.55326 0.0342 0.52672 0.0
O70 O 0.69868 0.15429 0.46718 0.0
O71 O 0.77577 0.14235 0.48681 0.0
H72 H 0.79381 0.971 0.54953 0.0
H73 H 0.74139 0.87108 0.553 0.0
H74 H 0.58449 0.80379 0.45495 0.0
H75 H 0.63655 0.9033 0.4514 0.0
H76 H 0.44409 0.11937 0.41705 0.0
H77 H 0.45935 0.20524 0.43588 0.0
H78 H 0.63137 0.2728 0.52484 0.0
H79 H 0.61676 0.18735 0.50575 0.0
Sm80 Sm 0.71886 0.62 0.83524 0.0
Sm81 Sm 0.61951 0.49988 0.84354 0.0
C82 C 0.80514 0.7256 0.81536 0.0
C83 C 0.79758 0.76842 0.81455 0.0
C84 C 0.82231 0.80227 0.78532 0.0
C85 C 0.80773 0.83793 0.78176 0.0
C86 C 0.76833 0.84016 0.80747 0.0
C87 C 0.74482 0.80721 0.83711 0.0
C88 C 0.759 0.7714 0.84053 0.0
C89 C 0.69337 0.60676 0.9093 0.0
C90 C 0.54522 0.55767 0.84418 0.0
C91 C 0.55428 0.3924 0.85497 0.0
C92 C 0.57326 0.35738 0.84521 0.0
C93 C 0.54944 0.31149 0.86467 0.0
C94 C 0.5642 0.27643 0.85348 0.0
C95 C 0.6029 0.28689 0.82268 0.0
C96 C 0.62807 0.33359 0.80385 0.0
C97 C 0.61339 0.36847 0.815 0.0
C98 C 0.60823 0.51575 0.76997 0.0
C99 C 0.79428 0.56192 0.84085 0.0
O100 O 0.75833 0.67724 0.79113 0.0
O101 O 0.81476 0.71618 0.84877 0.0
O102 O 0.70445 0.57963 0.88785 0.0
O103 O 0.69253 0.64015 0.89111 0.0
O104 O 0.60622 0.59843 0.82949 0.0
O105 O 0.54166 0.51732 0.85776 0.0
O106 O 0.59802 0.43819 0.88163 0.0
O107 O 0.5349 0.40355 0.82594 0.0
O108 O 0.66716 0.5412 0.79082 0.0
O109 O 0.55348 0.48185 0.78805 0.0
O110 O 0.72479 0.51252 0.83932 0.0
O111 O 0.80721 0.61104 0.84051 0.0
H112 H 0.85114 0.79989 0.76465 0.0
H113 H 0.82582 0.86281 0.75858 0.0
H114 H 0.71383 0.80808 0.85698 0.0
H115 H 0.73814 0.74486 0.86289 0.0
H116 H 0.51839 0.30213 0.88798 0.0
H117 H 0.54422 0.24043 0.86828 0.0
H118 H 0.65777 0.34223 0.77999 0.0
H119 H 0.63202 0.40336 0.79937 0.0
H120 H 0.64409 0.06194 0.22575 0.0
C121 C 0.59838 0.01622 0.21433 0.0
C122 C 0.56557 0.97544 0.2395 0.0
C123 C 0.56935 0.99917 0.17562 0.0
H124 H 0.47939 0.88542 0.24573 0.0
C125 C 0.50451 0.91635 0.22594 0.0
C126 C 0.47364 0.89693 0.18765 0.0
C127 C 0.50652 0.93862 0.16251 0.0
C128 C 0.59969 0.04568 0.15062 0.0
H129 H 0.4824 0.92368 0.133 0.0
C130 C 0.6743 0.0998 0.1561 0.0
C131 C 0.69864 0.14504 0.13475 0.0
C132 C 0.55165 0.038 0.12269 0.0
H133 H 0.49435 0.99882 0.118 0.0
C134 C 0.57563 0.08175 0.10134 0.0
H135 H 0.7132 0.10722 0.177 0.0
C136 C 0.64786 0.13469 0.10747 0.0
H137 H 0.66425 0.1681 0.09081 0.0
H138 H 0.53742 0.07496 0.08027 0.0
H139 H 0.53548 0.52822 0.59963 0.0
C140 C 0.54471 0.50241 0.58442 0.0
C141 C 0.56988 0.48133 0.60481 0.0
C142 C 0.52881 0.48843 0.54455 0.0
H143 H 0.59797 0.42936 0.60017 0.0
C144 C 0.57988 0.44676 0.58475 0.0
C145 C 0.56031 0.42997 0.54529 0.0
C146 C 0.53595 0.45154 0.52518 0.0
C147 C 0.5004 0.50923 0.52326 0.0
H148 H 0.52063 0.43822 0.49463 0.0
C149 C 0.53904 0.56931 0.52719 0.0
C150 C 0.51266 0.58873 0.50594 0.0
C151 C 0.43482 0.4689 0.49831 0.0
H152 H 0.40405 0.42242 0.49497 0.0
C153 C 0.40806 0.48821 0.47773 0.0
H154 H 0.59015 0.60093 0.54598 0.0
C155 C 0.4468 0.54787 0.48144 0.0
H156 H 0.42589 0.56232 0.46493 0.0
H157 H 0.35739 0.45686 0.45867 0.0
H158 H 0.16341 0.53783 0.91474 0.0
C159 C 0.12878 0.54227 0.90061 0.0
C160 C 1.07874 0.53807 0.92122 0.0
C161 C 0.13226 0.54901 0.86207 0.0
H162 H 0.99403 0.53924 0.92113 0.0
C163 C 1.03124 0.54242 0.90416 0.0
C164 C 1.03053 0.55129 0.86638 0.0
C165 C 1.08173 0.5539 0.84517 0.0
C166 C 0.1831 0.54476 0.83999 0.0
H167 H 1.08243 0.56027 0.8159 0.0
C168 C 0.24774 0.55539 0.85592 0.0
C169 C 0.28711 0.54537 0.83232 0.0
C170 C 0.1616 0.52419 0.80076 0.0
H171 H 0.11439 0.51384 0.78673 0.0
C172 C 0.19735 0.51353 0.77854 0.0
H173 H 0.26765 0.57183 0.88592 0.0
C174 C 0.25737 0.52323 0.79376 0.0
H175 H 0.28162 0.51351 0.7745 0.0
H176 H 0.17751 0.49672 0.74851 0.0
H177 H 1.08567 0.50218 0.39618 0.0
C178 C 0.13302 0.54764 0.40718 0.0
C179 C 0.17778 0.58426 0.38143 0.0
C180 C 0.14577 0.56996 0.44592 0.0
H181 H 0.27188 0.67167 0.37413 0.0
C182 C 0.23794 0.64382 0.39439 0.0
C183 C 0.25312 0.66846 0.4327 0.0
C184 C 0.20679 0.63111 0.45844 0.0
C185 C 1.09067 0.53035 0.47161 0.0
H186 H 0.21819 0.65009 0.48795 0.0
C187 C 1.0475 0.46844 0.46569 0.0
C188 C 0.99039 0.43162 0.48756 0.0
C189 C 1.07632 0.55393 0.50063 0.0
H190 H 0.10579 0.60014 0.50573 0.0
C191 C 1.02136 0.51803 0.52261 0.0
H192 H 1.05734 0.44857 0.44404 0.0
C193 C 0.97854 0.45764 0.51601 0.0
H194 H 0.93548 0.4309 0.53316 0.0
H195 H 1.01094 0.53712 0.54455 0.0
H196 H 0.65078 0.0192 0.71572 0.0
C197 C 0.65234 0.05278 0.72895 0.0
C198 C 0.65133 0.0863 0.7059 0.0
C199 C 0.65021 0.05974 0.76831 0.0
H200 H 0.64529 0.15176 0.70431 0.0
C201 C 0.64873 0.12741 0.72225 0.0
C202 C 0.64738 0.13537 0.76143 0.0
C203 C 0.64939 0.10234 0.78434 0.0
C204 C 0.64152 0.01897 0.79198 0.0
H205 H 0.64787 0.10871 0.81454 0.0
C206 C 0.67667 0.99822 0.78602 0.0
C207 C 0.66481 0.95781 0.80774 0.0
C208 C 0.59474 0.99844 0.82 0.0
H209 H 0.5651 1.01183 0.82473 0.0
C210 C 0.58378 0.95894 0.84168 0.0
H211 H 0.71292 1.01315 0.76468 0.0
C212 C 0.61846 0.93863 0.83559 0.0
H213 H 0.60877 0.90752 0.85247 0.0
H214 H 0.54754 0.94348 0.86302 0.0
H215 H 0.8105 0.78217 0.04973 0.0
C216 C 0.812 0.76354 0.0734 0.0
C217 C 0.79304 0.70965 0.06654 0.0
C218 C 0.82647 0.79072 0.11076 0.0
H219 H 0.77834 0.64302 0.09147 0.0
C220 C 0.79242 0.68453 0.09701 0.0
C221 C 0.80638 0.71122 0.13452 0.0
C222 C 0.82165 0.76364 0.14129 0.0
C223 C 0.82738 0.83819 0.11732 0.0
H224 H 0.82828 0.78262 0.17014 0.0
C225 C 0.76235 0.82279 0.12334 0.0
C226 C 0.75744 0.86481 0.12777 0.0
C227 C 0.88909 0.89671 0.11576 0.0
H228 H 0.93988 0.90915 0.11067 0.0
C229 C 0.88487 0.93941 0.12079 0.0
H230 H 0.71439 0.77719 0.12387 0.0
C231 C 0.81898 0.92359 0.12677 0.0
H232 H 0.81583 0.95658 0.13026 0.0
H233 H 0.93248 0.98466 0.11974 0.0
C234 C 0.59237 0.76982 0.16824 0.0
C235 C 0.54092 0.7404 0.1346 0.0
C236 C 0.63401 0.81676 0.0997 0.0
C237 C 0.68525 0.84324 0.13271 0.0
N238 N 0.70933 0.86031 0.20047 0.0
N239 N 0.50738 0.74512 0.07175 0.0
C240 C 0.66206 0.82553 0.1679 0.0
C241 C 0.55992 0.76712 0.1014 0.0
N242 N 0.57771 0.74254 0.19915 0.0
N243 N 0.65765 0.83674 0.06627 0.0
H244 H 0.4524 0.70932 0.07237 0.0
H245 H 0.51719 0.76561 0.04822 0.0
H246 H 0.71142 0.87465 0.06513 0.0
H247 H 0.62521 0.81502 0.03993 0.0
H248 H 0.61618 0.76033 0.22287 0.0
H249 H 0.52988 0.69959 0.19973 0.0
H250 H 0.69439 0.852 0.22754 0.0
H251 H 0.76148 0.90062 0.19982 0.0
C252 C 0.87842 0.27783 0.51248 0.0
C253 C 0.8292 0.24116 0.47854 0.0
C254 C 0.8896 0.32937 0.44852 0.0
C255 C 0.94123 0.36564 0.48179 0.0
N256 N 0.99542 0.37153 0.54151 0.0
N257 N 0.80323 0.23185 0.41108 0.0
C258 C 0.939 0.33876 0.51244 0.0
C259 C 0.83941 0.26697 0.4456 0.0
N260 N 0.86514 0.25549 0.5455 0.0
N261 N 0.88584 0.35413 0.42029 0.0
H262 H 0.77021 0.18661 0.40772 0.0
H263 H 0.81284 0.24797 0.38553 0.0
H264 H 0.92096 0.39926 0.42118 0.0
H265 H 0.84406 0.32986 0.39747 0.0
H266 H 0.8946 0.28127 0.57192 0.0
H267 H 0.82005 0.21202 0.54705 0.0
H268 H 1.00043 0.35354 0.56288 0.0
H269 H 1.04099 0.4158 0.54199 0.0
C270 C 0.68052 0.84681 0.78061 0.0
C271 C 0.7478 0.8744 0.80246 0.0
C272 C 0.76652 0.96138 0.82315 0.0
C273 C 0.69902 0.93358 0.80152 0.0
N274 N 0.59937 0.85634 0.75344 0.0
N275 N 0.8616 0.9612 0.83833 0.0
C276 C 0.65859 0.87834 0.77813 0.0
C277 C 0.79311 0.93293 0.82167 0.0
N278 N 0.6363 0.78962 0.76352 0.0
N279 N 0.80355 1.01386 0.84631 0.0
H280 H 0.882 0.94112 0.83833 0.0
H281 H 0.9002 1.0056 0.84962 0.0
H282 H 0.78711 0.03693 0.84684 0.0
H283 H 0.84839 0.03332 0.86633 0.0
H284 H 0.58287 0.76456 0.75117 0.0
H285 H 0.65156 0.76575 0.76357 0.0
H286 H 0.57137 0.81907 0.73294 0.0
H287 H 0.58175 0.87829 0.75125 0.0
C288 C 0.73619 0.58412 0.18194 0.0
C289 C 0.80248 0.6063 0.20107 0.0
C290 C 0.86426 0.70481 0.18999 0.0
C291 C 0.80086 0.68127 0.16594 0.0
N292 N 0.67061 0.6058 0.15091 0.0
N293 N 0.91552 0.68904 0.23947 0.0
C294 C 0.73428 0.62329 0.1665 0.0
C295 C 0.86116 0.66743 0.21124 0.0
N296 N 0.67764 0.5252 0.17603 0.0
N297 N 0.92873 0.76059 0.18991 0.0
H298 H 0.91362 0.66195 0.25543 0.0
H299 H 0.95751 0.7336 0.24981 0.0
H300 H 0.93408 0.78956 0.17443 0.0
H301 H 0.97813 0.77698 0.20339 0.0
H302 H 0.62945 0.50471 0.15865 0.0
H303 H 0.67917 0.49692 0.18824 0.0
H304 H 0.61972 0.56498 0.15204 0.0
H305 H 0.66903 0.63466 0.13975 0.0
C306 C 0.43514 0.82164 0.47939 0.0
C307 C 0.44075 0.8583 0.45536 0.0
C308 C 0.3163 0.77221 0.42429 0.0
C309 C 0.31525 0.73425 0.44394 0.0
N310 N 0.38255 0.72353 0.48529 0.0
N311 N 0.39173 0.86039 0.39652 0.0
C312 C 0.37717 0.75917 0.47018 0.0
C313 C 0.38258 0.8314 0.42554 0.0
N314 N 0.48287 0.84579 0.51194 0.0
N315 N 0.25369 0.75197 0.40445 0.0
H316 H 0.44151 0.90087 0.39343 0.0
H317 H 0.35268 0.84056 0.37269 0.0
H318 H 0.2036 0.70959 0.40389 0.0
H319 H 0.25041 0.77926 0.39229 0.0
H320 H 0.47665 0.82104 0.53196 0.0
H321 H 0.52377 0.89066 0.52129 0.0
H322 H 0.43003 0.73934 0.50105 0.0
H323 H 0.34218 0.67797 0.47908 0.0
C324 C 0.68416 0.26684 0.81479 0.0
C325 C 0.61401 0.24725 0.80851 0.0
C326 C 0.56507 0.15263 0.77471 0.0
C327 C 0.63629 0.17409 0.77801 0.0
N328 N 0.76518 0.25339 0.79701 0.0
N329 N 0.49011 0.17553 0.7773 0.0
C330 C 0.69636 0.23174 0.79696 0.0
C331 C 0.55502 0.19113 0.78714 0.0
N332 N 0.73854 0.31831 0.83857 0.0
N333 N 0.50673 0.09497 0.76044 0.0
H334 H 0.48031 0.20231 0.78583 0.0
H335 H 0.44785 0.13821 0.75808 0.0
H336 H 0.51178 0.06553 0.75041 0.0
H337 H 0.45302 0.07506 0.76137 0.0
H338 H 0.78884 0.33241 0.84743 0.0
H339 H 0.73151 0.34511 0.85195 0.0
H340 H 0.81194 0.29705 0.8066 0.0
H341 H 0.77583 0.22851 0.78482 0.0
C342 C 0.64874 0.7453 0.48588 0.0
C343 C 0.62573 0.76993 0.50698 0.0
C344 C 0.53703 0.67861 0.53223 0.0
C345 C 0.5549 0.65219 0.50814 0.0
N346 N 0.62262 0.65748 0.45956 0.0
N347 N 0.54492 0.76016 0.54793 0.0
C348 C 0.60973 0.68486 0.48443 0.0
C349 C 0.5692 0.73669 0.5297 0.0
N350 N 0.70861 0.78006 0.46772 0.0
N351 N 0.49023 0.64836 0.55795 0.0
H352 H 0.56855 0.80312 0.54763 0.0
H353 H 0.49849 0.7362 0.5613 0.0
H354 H 0.46509 0.60548 0.56017 0.0
H355 H 0.48049 0.66691 0.57905 0.0
H356 H 0.73311 0.76662 0.45528 0.0
H357 H 0.73747 0.82421 0.46748 0.0
H358 H 0.65551 0.67681 0.43835 0.0
H359 H 0.59663 0.61369 0.45842 0.0
C360 C 0.85288 0.51729 0.8223 0.0
C361 C 0.8583 0.5618 0.84406 0.0
C362 C 0.98447 0.60638 0.87118 0.0
C363 C 0.97548 0.55837 0.85305 0.0
N364 N 0.89153 0.46301 0.81463 0.0
N365 N 0.93012 0.64337 0.89564 0.0
C366 C 0.9069 0.51266 0.82947 0.0
C367 C 0.92487 0.60508 0.86988 0.0
N368 N 0.79729 0.48022 0.79309 0.0
N369 N 1.05158 0.65472 0.88982 0.0
H370 H 0.88819 0.64257 0.89739 0.0
H371 H 0.97244 0.67145 0.91802 0.0
H372 H 1.09552 0.65757 0.89129 0.0
H373 H 1.06557 0.69388 0.90021 0.0
H374 H 0.793 0.4506 0.77371 0.0
H375 H 0.75974 0.48352 0.7857 0.0
H376 H 0.84023 0.42494 0.80132 0.0
H377 H 0.92919 0.45878 0.8181 0.0
C378 C 0.33664 0.73339 0.14122 0.0
C379 C 0.28032 0.70904 0.16458 0.0
C380 C 0.34259 0.80967 0.1945 0.0
C381 C 0.40432 0.83309 0.17583 0.0
N382 N 0.46336 0.81422 0.13532 0.0
N383 N 0.2399 0.72604 0.21971 0.0
C384 C 0.40213 0.79412 0.15011 0.0
C385 C 0.28581 0.74778 0.19278 0.0
N386 N 0.32676 0.69937 0.1095 0.0
N387 N 0.33763 0.84665 0.21363 0.0
H388 H 0.20095 0.68159 0.22148 0.0
H389 H 0.24622 0.75264 0.24298 0.0
H390 H 0.37703 0.89195 0.21462 0.0
H391 H 0.29099 0.83192 0.22481 0.0
H392 H 0.36279 0.71629 0.08948 0.0
H393 H 0.27886 0.65575 0.10089 0.0
H394 H 0.46684 0.78643 0.11986 0.0
H395 H 0.51247 0.85777 0.14128 0.0
C396 C 0.60807 0.351 0.49063 0.0
C397 C 0.54916 0.2927 0.49621 0.0
C398 C 0.49284 0.32393 0.52793 0.0
C399 C 0.55538 0.38299 0.52613 0.0
N400 N 0.67561 0.45446 0.50911 0.0
N401 N 0.44155 0.22481 0.52563 0.0
C402 C 0.61392 0.39708 0.50829 0.0
C403 C 0.493 0.27939 0.51624 0.0
N404 N 0.65724 0.36193 0.46773 0.0
N405 N 0.43268 0.31027 0.54019 0.0
H406 H 0.43986 0.19084 0.51794 0.0
H407 H 0.40437 0.21457 0.54396 0.0
H408 H 0.43037 0.3417 0.5491 0.0
H409 H 0.38283 0.2675 0.53823 0.0
H410 H 0.69725 0.40239 0.45942 0.0
H411 H 0.65455 0.32914 0.45451 0.0
H412 H 0.72333 0.4679 0.50039 0.0
H413 H 0.68062 0.48908 0.52085 0.0
C414 C 0.46917 0.58249 0.81703 0.0
C415 C 0.48039 0.55726 0.84435 0.0
C416 C 0.36516 0.52654 0.86773 0.0
C417 C 0.35922 0.55701 0.84282 0.0
N418 N 0.4252 0.62951 0.80193 0.0
N419 N 0.44218 0.51764 0.90279 0.0
C420 C 0.41781 0.58992 0.82043 0.0
C421 C 0.42899 0.53277 0.87162 0.0
N422 N 0.5031 0.59565 0.78536 0.0
N423 N 0.30865 0.48974 0.8873 0.0
H424 H 0.48865 0.5246 0.9084 0.0
H425 H 0.41169 0.50493 0.92528 0.0
H426 H 0.26347 0.48523 0.88599 0.0
H427 H 0.30449 0.46089 0.90238 0.0
H428 H 0.49274 0.60943 0.7631 0.0
H429 H 0.53266 0.58444 0.7785 0.0
H430 H 0.46997 0.65896 0.7882 0.0
H431 H 0.39098 0.63736 0.80428 0.0
C432 C 0.87472 0.28362 0.10735 0.0
C433 C 0.90789 0.32438 0.14183 0.0
C434 C 0.8071 0.2456 0.17376 0.0
C435 C 0.77615 0.20421 0.13976 0.0
N436 N 0.79368 0.18163 0.07758 0.0
N437 N 0.91612 0.33765 0.21018 0.0
C438 C 0.81461 0.22265 0.10775 0.0
C439 C 0.87719 0.3033 0.17574 0.0
N440 N 0.89692 0.30318 0.07367 0.0
N441 N 0.76846 0.23128 0.20367 0.0
H442 H 0.9691 0.37824 0.21281 0.0
H443 H 0.89944 0.32295 0.23598 0.0
H444 H 0.71703 0.19018 0.20351 0.0
H445 H 0.78497 0.26186 0.22737 0.0
H446 H 0.86991 0.27618 0.04733 0.0
H447 H 0.93745 0.34739 0.07182 0.0
H448 H 0.82331 0.19169 0.0549 0.0
H449 H 0.75105 0.13681 0.07732 0.0
C450 C 1.0787 0.56117 0.02846 0.0
C451 C 1.05861 0.50955 0.03857 0.0
C452 C 1.0502 0.47566 0.97165 0.0
C453 C 1.07536 0.52914 0.96196 0.0
N454 N 0.12927 0.62812 0.98283 0.0
N455 N 1.04339 0.4252 0.02151 0.0
C456 C 1.0942 0.57348 -0.00908 0.0
C457 C 1.04978 0.469 0.01066 0.0
N458 N 1.08158 0.59801 0.05447 0.0
N459 N 1.02389 0.43025 0.94364 0.0
H460 H 1.04568 0.42064 0.04993 0.0
H461 H 1.0436 0.39752 0.00291 0.0
H462 H 1.02211 0.43289 0.91478 0.0
H463 H 0.99787 0.38836 0.94893 0.0
H464 H 1.08771 0.63258 0.04753 0.0
H465 H 1.072 0.5914 0.08243 0.0
H466 H 0.15118 0.66397 0.00351 0.0
H467 H 0.14292 0.63915 0.95592 0.0
C468 C 0.6133 0.05237 0.34143 0.0
C469 C 0.63324 0.02656 0.36081 0.0
C470 C 0.62 0.97461 0.29984 0.0
C471 C 0.59158 0.99492 0.28111 0.0
N472 N 0.54688 0.04346 0.28565 0.0
N473 N 0.64344 0.95495 0.35928 0.0
C474 C 0.5843 0.03122 0.30231 0.0
C475 C 0.63328 0.98537 0.34025 0.0
N476 N 0.62436 0.0985 0.36002 0.0
N477 N 0.63617 0.94646 0.279 0.0
H478 H 0.65232 0.96089 0.38886 0.0
H479 H 0.63639 0.92004 0.34586 0.0
H480 H 0.62826 0.93866 0.24934 0.0
H481 H 0.66371 0.93585 0.29098 0.0
H482 H 0.61781 0.12298 0.34637 0.0
H483 H 0.6472 0.11587 0.38842 0.0
H484 H 0.53361 0.06464 0.30091 0.0
H485 H 0.52281 0.02754 0.25733 0.0
C486 C 0.6246 0.55458 0.7086 0.0
C487 C 0.5998 0.5077 0.72781 0.0
C488 C 0.54348 0.44197 0.66675 0.0
C489 C 0.57971 0.4908 0.6473 0.0
N490 N 0.66864 0.59625 0.65141 0.0
N491 N 0.54772 0.40821 0.72384 0.0
C492 C 0.62457 0.54806 0.66869 0.0
C493 C 0.56297 0.45177 0.7065 0.0
N494 N 0.64359 0.60382 0.72787 0.0
N495 N 0.48773 0.38638 0.64787 0.0
H496 H 0.5633 0.41418 0.75274 0.0
H497 H 0.52664 0.36835 0.7087 0.0
H498 H 0.46739 0.3774 0.61939 0.0
H499 H 0.45604 0.35009 0.66169 0.0
H500 H 0.6567 0.63747 0.71448 0.0
H501 H 0.63682 0.60707 0.7563 0.0
H502 H 0.70631 0.63871 0.66667 0.0
H503 H 0.67307 0.59355 0.62251 0.0
C504 C 0.57093 1.01436 0.60237 0.0
C505 C 0.63084 0.05576 0.58341 0.0
C506 C 0.70791 0.11078 0.64533 0.0
C507 C 0.64546 0.07407 0.66385 0.0
N508 N 0.51614 0.99316 0.66036 0.0
N509 N 0.7617 0.12562 0.58737 0.0
C510 C 0.57674 0.02601 0.6425 0.0
C511 C 0.70123 0.0991 0.60492 0.0
N512 N 0.51002 0.96177 0.58217 0.0
N513 N 0.77327 0.15794 0.66634 0.0
H514 H 0.75939 0.11317 0.55886 0.0
H515 H 0.81436 0.15412 0.60179 0.0
H516 H 0.78086 0.16618 0.696 0.0
H517 H 0.81876 0.19098 0.6545 0.0
H518 H 0.46723 0.92738 0.59467 0.0
H519 H 0.50634 0.94953 0.5533 0.0
H520 H 0.46343 0.96253 0.64587 0.0
H521 H 0.51785 0.9996 0.68977 0.0
C522 C 0.66906 0.60135 0.97644 0.0
C523 C 0.71997 0.62515 0.95036 0.0
C524 C 0.81977 0.69466 0.00244 0.0
C525 C 0.768 0.67724 0.02732 0.0
N526 N 0.64288 0.61695 0.03827 0.0
N527 N 0.84395 0.69642 0.93738 0.0
C528 C 0.69237 0.63088 0.01455 0.0
C529 C 0.79557 0.67195 0.96307 0.0
N530 N 0.59876 0.55024 0.96473 0.0
N531 N 0.89191 0.73235 0.0166 0.0
H532 H 0.829 0.67983 0.90843 0.0
H533 H 0.89826 0.73518 0.94438 0.0
H534 H 0.91132 0.75006 0.04538 0.0
H535 H 0.93166 0.74201 0.00057 0.0
H536 H 0.56008 0.52773 0.98309 0.0
H537 H 0.58114 0.52732 0.93705 0.0
H538 H 0.58722 0.58809 0.02931 0.0
H539 H 0.65771 0.63747 0.06645 0.0
C540 C 0.19494 0.54741 0.2803 0.0
C541 C 0.12717 0.52245 0.26053 0.0
C542 C 1.09465 0.54154 0.31955 0.0
C543 C 0.15909 0.56105 0.33997 0.0
N544 N 0.26308 0.5709 0.34089 0.0
N545 N 1.00601 0.48352 0.26297 0.0
C546 C 0.20702 0.56044 0.32066 0.0
C547 C 1.07501 0.51581 0.28066 0.0
N548 N 0.24901 0.56106 0.2606 0.0
N549 N 1.0539 0.55 0.33669 0.0
H550 H 0.98951 0.46289 0.23477 0.0
H551 H 0.96368 0.4724 0.27724 0.0
H552 H 1.06742 0.57034 0.3648 0.0
H553 H 1.01072 0.5421 0.32191 0.0
H554 H 0.30196 0.58513 0.27344 0.0
H555 H 0.24301 0.55319 0.23104 0.0
H556 H 0.29529 0.56522 0.32848 0.0
H557 H 0.27298 0.57977 0.37053 0.0
loop_
_geom_bond_atom_site_label_1
_geom_bond_atom_site_label_2
_geom_bond_distance
_geom_bond_site_symmetry_2
_ccdc_geom_bond_type
Sm0 C2 2.846 . S
Sm0 O20 2.543 . S
Sm0 O21 2.450 . S
Sm0 O22 2.681 . S
Sm0 O23 2.464 . S
Sm0 O24 2.396 . S
Sm0 O28 2.386 . S
Sm0 O31 2.408 1_455 S
Sm1 C11 2.846 1_455 S
Sm1 O22 2.386 . S
Sm1 O25 2.408 . S
Sm1 O26 2.543 1_455 S
Sm1 O27 2.450 1_455 S
Sm1 O28 2.681 . S
Sm1 O29 2.464 . S
Sm1 O30 2.396 1_455 S
C2 Sm0 2.846 . S
C2 C3 1.506 . S
C2 O20 1.261 . S
C2 O21 1.242 . S
C3 C2 1.506 . S
C3 C4 1.358 . S
C3 C8 1.382 . S
C4 C3 1.358 . S
C4 C5 1.385 . S
C4 H32 0.930 . S
C5 C4 1.385 . S
C5 C6 1.395 . S
C5 H33 0.929 . S
C6 C5 1.395 . S
C6 C7 1.335 . S
C7 C6 1.335 . S
C7 C8 1.398 . S
C7 H34 0.930 . S
C8 C3 1.382 . S
C8 C7 1.398 . S
C8 H35 0.929 . S
C9 O22 1.271 . S
C9 O23 1.251 . S
C10 O24 1.252 . S
C10 O25 1.272 . S
C11 Sm1 2.846 1_655 S
C11 C12 1.506 . S
C11 O26 1.261 . S
C11 O27 1.242 . S
C12 C11 1.506 . S
C12 C13 1.358 . S
C12 C17 1.382 . S
C13 C12 1.358 . S
C13 C14 1.385 . S
C13 H36 0.930 . S
C14 C13 1.385 . S
C14 C15 1.395 . S
C14 H37 0.929 . S
C15 C14 1.395 . S
C15 C16 1.335 . S
C16 C15 1.335 . S
C16 C17 1.398 . S
C16 H38 0.930 . S
C17 C12 1.382 . S
C17 C16 1.398 . S
C17 H39 0.929 . S
C18 O28 1.271 . S
C18 O29 1.251 . S
C19 O30 1.252 . S
C19 O31 1.272 . S
O20 Sm0 2.543 . S
O20 C2 1.261 . S
O21 Sm0 2.450 . S
O21 C2 1.242 . S
O22 Sm0 2.681 . S
O22 Sm1 2.386 . S
O22 C9 1.271 . S
O23 Sm0 2.464 . S
O23 C9 1.251 . S
O24 Sm0 2.396 . S
O24 C10 1.252 . S
O25 Sm1 2.408 . S
O25 C10 1.272 . S
O26 Sm1 2.543 1_655 S
O26 C11 1.261 . S
O27 Sm1 2.450 1_655 S
O27 C11 1.242 . S
O28 Sm0 2.386 . S
O28 Sm1 2.681 . S
O28 C18 1.271 . S
O29 Sm1 2.464 . S
O29 C18 1.251 . S
O30 Sm1 2.396 1_655 S
O30 C19 1.252 . S
O31 Sm0 2.408 1_655 S
O31 C19 1.272 . S
H32 C4 0.930 . S
H33 C5 0.929 . S
H34 C7 0.930 . S
H35 C8 0.929 . S
H36 C13 0.930 . S
H37 C14 0.929 . S
H38 C16 0.930 . S
H39 C17 0.929 . S
Sm40 C42 2.846 1_545 S
Sm40 O60 2.543 1_545 S
Sm40 O61 2.450 1_545 S
Sm40 O62 2.681 . S
Sm40 O63 2.464 . S
Sm40 O64 2.396 1_545 S
Sm40 O68 2.386 . S
Sm40 O71 2.408 . S
Sm41 C51 2.846 . S
Sm41 O62 2.386 . S
Sm41 O65 2.408 1_545 S
Sm41 O66 2.543 . S
Sm41 O67 2.450 . S
Sm41 O68 2.681 . S
Sm41 O69 2.464 . S
Sm41 O70 2.396 . S
C42 Sm40 2.846 1_565 S
C42 C43 1.506 . S
C42 O60 1.261 . S
C42 O61 1.242 . S
C43 C42 1.506 . S
C43 C44 1.358 . S
C43 C48 1.382 . S
C44 C43 1.358 . S
C44 C45 1.385 . S
C44 H72 0.930 . S
C45 C44 1.385 . S
C45 C46 1.395 . S
C45 H73 0.929 . S
C46 C45 1.395 . S
C46 C47 1.335 . S
C47 C46 1.335 . S
C47 C48 1.398 . S
C47 H74 0.930 . S
C48 C43 1.382 . S
C48 C47 1.398 . S
C48 H75 0.929 . S
C49 O62 1.271 . S
C49 O63 1.251 . S
C50 O64 1.252 . S
C50 O65 1.272 . S
C51 Sm41 2.846 . S
C51 C52 1.506 . S
C51 O66 1.261 . S
C51 O67 1.242 . S
C52 C51 1.506 . S
C52 C53 1.358 . S
C52 C57 1.382 . S
C53 C52 1.358 . S
C53 C54 1.385 . S
C53 H76 0.930 . S
C54 C53 1.385 . S
C54 C55 1.395 . S
C54 H77 0.929 . S
C55 C54 1.395 . S
C55 C56 1.335 . S
C56 C55 1.335 . S
C56 C57 1.398 . S
C56 H78 0.930 . S
C57 C52 1.382 . S
C57 C56 1.398 . S
C57 H79 0.929 . S
C58 O68 1.271 . S
C58 O69 1.251 . S
C59 O70 1.252 . S
C59 O71 1.272 . S
O60 Sm40 2.543 1_565 S
O60 C42 1.261 . S
O61 Sm40 2.450 1_565 S
O61 C42 1.242 . S
O62 Sm40 2.681 . S
O62 Sm41 2.386 . S
O62 C49 1.271 . S
O63 Sm40 2.464 . S
O63 C49 1.251 . S
O64 Sm40 2.396 1_565 S
O64 C50 1.252 . S
O65 Sm41 2.408 1_565 S
O65 C50 1.272 . S
O66 Sm41 2.543 . S
O66 C51 1.261 . S
O67 Sm41 2.450 . S
O67 C51 1.242 . S
O68 Sm40 2.386 . S
O68 Sm41 2.681 . S
O68 C58 1.271 . S
O69 Sm41 2.464 . S
O69 C58 1.251 . S
O70 Sm41 2.396 . S
O70 C59 1.252 . S
O71 Sm40 2.408 . S
O71 C59 1.272 . S
H72 C44 0.930 . S
H73 C45 0.929 . S
H74 C47 0.930 . S
H75 C48 0.929 . S
H76 C53 0.930 . S
H77 C54 0.929 . S
H78 C56 0.930 . S
H79 C57 0.929 . S
Sm80 C82 2.846 . S
Sm80 O100 2.543 . S
Sm80 O101 2.450 . S
Sm80 O102 2.681 . S
Sm80 O103 2.464 . S
Sm80 O104 2.396 . S
Sm80 O108 2.386 . S
Sm80 O111 2.408 . S
Sm81 C91 2.846 . S
Sm81 O102 2.386 . S
Sm81 O105 2.408 . S
Sm81 O106 2.543 . S
Sm81 O107 2.450 . S
Sm81 O108 2.681 . S
Sm81 O109 2.464 . S
Sm81 O110 2.396 . S
C82 Sm80 2.846 . S
C82 C83 1.506 . S
C82 O100 1.261 . S
C82 O101 1.242 . S
C83 C82 1.506 . S
C83 C84 1.358 . S
C83 C88 1.382 . S
C84 C83 1.358 . S
C84 C85 1.385 . S
C84 H112 0.930 . S
C85 C84 1.385 . S
C85 C86 1.395 . S
C85 H113 0.929 . S
C86 C85 1.395 . S
C86 C87 1.335 . S
C87 C86 1.335 . S
C87 C88 1.398 . S
C87 H114 0.930 . S
C88 C83 1.382 . S
C88 C87 1.398 . S
C88 H115 0.929 . S
C89 O102 1.271 . S
C89 O103 1.251 . S
C90 O104 1.252 . S
C90 O105 1.272 . S
C91 Sm81 2.846 . S
C91 C92 1.506 . S
C91 O106 1.261 . S
C91 O107 1.242 . S
C92 C91 1.506 . S
C92 C93 1.358 . S
C92 C97 1.382 . S
C93 C92 1.358 . S
C93 C94 1.385 . S
C93 H116 0.930 . S
C94 C93 1.385 . S
C94 C95 1.395 . S
C94 H117 0.929 . S
C95 C94 1.395 . S
C95 C96 1.335 . S
C96 C95 1.335 . S
C96 C97 1.398 . S
C96 H118 0.930 . S
C97 C92 1.382 . S
C97 C96 1.398 . S
C97 H119 0.929 . S
C98 O108 1.271 . S
C98 O109 1.251 . S
C99 O110 1.252 . S
C99 O111 1.272 . S
O100 Sm80 2.543 . S
O100 C82 1.261 . S
O101 Sm80 2.450 . S
O101 C82 1.242 . S
O102 Sm80 2.681 . S
O102 Sm81 2.386 . S
O102 C89 1.271 . S
O103 Sm80 2.464 . S
O103 C89 1.251 . S
O104 Sm80 2.396 . S
O104 C90 1.252 . S
O105 Sm81 2.408 . S
O105 C90 1.272 . S
O106 Sm81 2.543 . S
O106 C91 1.261 . S
O107 Sm81 2.450 . S
O107 C91 1.242 . S
O108 Sm80 2.386 . S
O108 Sm81 2.681 . S
O108 C98 1.271 . S
O109 Sm81 2.464 . S
O109 C98 1.251 . S
O110 Sm81 2.396 . S
O110 C99 1.252 . S
O111 Sm80 2.408 . S
O111 C99 1.272 . S
H112 C84 0.930 . S
H113 C85 0.929 . S
H114 C87 0.930 . S
H115 C88 0.929 . S
H116 C93 0.930 . S
H117 C94 0.929 . S
H118 C96 0.930 . S
H119 C97 0.929 . S
H120 C121 0.949 . S
C121 H120 0.949 . S
C121 C122 1.395 . S
C121 C123 1.391 . S
C122 C121 1.395 . S
C122 C125 1.390 1_545 S
C123 C121 1.391 . S
C123 C127 1.392 . S
C123 C128 1.491 . S
H124 C125 0.950 . S
C125 C122 1.390 1_565 S
C125 H124 0.950 . S
C125 C126 1.378 . S
C126 C125 1.378 . S
C126 C127 1.405 1_565 S
C127 C123 1.392 . S
C127 C126 1.405 1_545 S
C127 H129 0.951 1_545 S
C128 C123 1.491 . S
C128 C130 1.382 . S
C128 C132 1.404 . S
H129 C127 0.951 1_565 S
C130 C128 1.382 . S
C130 C131 1.390 . S
C130 H135 0.949 . S
C131 C130 1.390 . S
C131 C136 1.399 . S
C132 C128 1.404 . S
C132 H133 0.950 . S
C132 C134 1.375 . S
H133 C132 0.950 . S
C134 C132 1.375 . S
C134 C136 1.382 . S
C134 H138 0.950 . S
H135 C130 0.949 . S
C136 C131 1.399 . S
C136 C134 1.382 . S
C136 H137 0.952 . S
H137 C136 0.952 . S
H138 C134 0.950 . S
H139 C140 0.949 . S
C140 H139 0.949 . S
C140 C141 1.395 . S
C140 C142 1.391 . S
C141 C140 1.395 . S
C141 C144 1.390 . S
C142 C140 1.391 . S
C142 C146 1.387 . S
C142 C147 1.491 . S
H143 C144 0.950 . S
C144 C141 1.390 . S
C144 H143 0.950 . S
C144 C145 1.378 . S
C145 C144 1.378 . S
C145 C146 1.409 . S
C146 C142 1.387 . S
C146 C145 1.409 . S
C146 H148 0.951 . S
C147 C142 1.491 . S
C147 C149 1.382 . S
C147 C151 1.404 . S
H148 C146 0.951 . S
C149 C147 1.382 . S
C149 C150 1.390 . S
C149 H154 0.949 . S
C150 C149 1.390 . S
C150 C155 1.399 . S
C151 C147 1.404 . S
C151 H152 0.950 . S
C151 C153 1.375 . S
H152 C151 0.950 . S
C153 C151 1.375 . S
C153 C155 1.382 . S
C153 H157 0.950 . S
H154 C149 0.949 . S
C155 C150 1.399 . S
C155 C153 1.382 . S
C155 H156 0.952 . S
H156 C155 0.952 . S
H157 C153 0.950 . S
H158 C159 0.949 . S
C159 H158 0.949 . S
C159 C160 1.395 . S
C159 C161 1.391 . S
C160 C159 1.395 . S
C160 C163 1.390 1_455 S
C161 C159 1.391 . S
C161 C165 1.387 . S
C161 C166 1.491 . S
H162 C163 0.950 . S
C163 C160 1.390 1_655 S
C163 H162 0.950 . S
C163 C164 1.378 . S
C164 C163 1.378 . S
C164 C165 1.409 1_655 S
C165 C161 1.387 . S
C165 C164 1.409 1_455 S
C165 H167 0.951 . S
C166 C161 1.491 . S
C166 C168 1.382 . S
C166 C170 1.404 . S
H167 C165 0.951 . S
C168 C166 1.382 . S
C168 C169 1.390 . S
C168 H173 0.949 . S
C169 C168 1.390 . S
C169 C174 1.399 . S
C170 C166 1.404 . S
C170 H171 0.950 . S
C170 C172 1.375 . S
H171 C170 0.950 . S
C172 C170 1.375 . S
C172 C174 1.382 . S
C172 H176 0.950 . S
H173 C168 0.949 . S
C174 C169 1.399 . S
C174 C172 1.382 . S
C174 H175 0.952 . S
H175 C174 0.952 . S
H176 C172 0.950 . S
H177 C178 0.949 . S
C178 H177 0.949 . S
C178 C179 1.395 1_655 S
C178 C180 1.391 1_655 S
C179 C178 1.395 1_455 S
C179 C182 1.390 . S
C180 C178 1.391 1_455 S
C180 C184 1.387 . S
C180 C185 1.491 1_455 S
H181 C182 0.950 . S
C182 C179 1.390 . S
C182 H181 0.950 . S
C182 C183 1.378 . S
C183 C182 1.378 . S
C183 C184 1.409 . S
C184 C180 1.387 . S
C184 C183 1.409 . S
C184 H186 0.951 . S
C185 C180 1.491 1_655 S
C185 C187 1.382 . S
C185 C189 1.404 . S
H186 C184 0.951 . S
C187 C185 1.382 . S
C187 C188 1.390 . S
C187 H192 0.949 . S
C188 C187 1.390 . S
C188 C193 1.399 . S
C189 C185 1.404 . S
C189 H190 0.950 . S
C189 C191 1.375 . S
H190 C189 0.950 . S
C191 C189 1.375 . S
C191 C193 1.382 . S
C191 H195 0.950 . S
H192 C187 0.949 . S
C193 C188 1.399 . S
C193 C191 1.382 . S
C193 H194 0.952 . S
H194 C193 0.952 . S
H195 C191 0.950 . S
H196 C197 0.932 1_565 S
C197 H196 0.932 1_545 S
C197 C198 1.395 . S
C197 C199 1.391 . S
C198 C197 1.395 . S
C198 C201 1.390 . S
C199 C197 1.391 . S
C199 C203 1.387 . S
C199 C204 1.491 1_545 S
H200 C201 0.950 . S
C201 C198 1.390 . S
C201 H200 0.950 . S
C201 C202 1.378 . S
C202 C201 1.378 . S
C202 C203 1.409 . S
C203 C199 1.387 . S
C203 C202 1.409 . S
C203 H205 0.951 . S
C204 C199 1.491 1_565 S
C204 C206 1.382 . S
C204 C208 1.404 . S
H205 C203 0.951 . S
C206 C204 1.382 . S
C206 C207 1.390 . S
C206 H211 0.949 . S
C207 C206 1.390 . S
C207 C212 1.399 . S
C208 C204 1.404 . S
C208 H209 0.950 . S
C208 C210 1.375 . S
H209 C208 0.950 . S
C210 C208 1.375 . S
C210 C212 1.382 . S
C210 H214 0.950 . S
H211 C206 0.949 . S
C212 C207 1.399 . S
C212 C210 1.382 . S
C212 H213 0.952 . S
H213 C212 0.952 . S
H214 C210 0.950 . S
H215 C216 0.949 . S
C216 H215 0.949 . S
C216 C217 1.395 . S
C216 C218 1.391 . S
C217 C216 1.395 . S
C217 C220 1.390 . S
C218 C216 1.391 . S
C218 C222 1.387 . S
C218 C223 1.491 . S
H219 C220 0.950 . S
C220 C217 1.390 . S
C220 H219 0.950 . S
C220 C221 1.378 . S
C221 C220 1.378 . S
C221 C222 1.409 . S
C222 C218 1.387 . S
C222 C221 1.409 . S
C222 H224 0.951 . S
C223 C218 1.491 . S
C223 C225 1.382 . S
C223 C227 1.404 . S
H224 C222 0.951 . S
C225 C223 1.382 . S
C225 C226 1.390 . S
C225 H230 0.949 . S
C226 C225 1.390 . S
C226 C231 1.399 . S
C227 C223 1.404 . S
C227 H228 0.950 . S
C227 C229 1.375 . S
H228 C227 0.950 . S
C229 C227 1.375 . S
C229 C231 1.382 . S
C229 H233 0.950 . S
H230 C225 0.949 . S
C231 C226 1.399 . S
C231 C229 1.382 . S
C231 H232 0.952 . S
H232 C231 0.952 . S
H233 C229 0.950 . S
C234 C235 1.363 . S
C234 C240 1.379 . S
C234 N242 1.356 . S
C235 C234 1.363 . S
C235 C241 1.363 . S
C236 C237 1.363 . S
C236 C241 1.379 . S
C236 N243 1.356 . S
C237 C236 1.363 . S
C237 C240 1.363 . S
N238 C240 1.356 . S
N238 H250 0.984 . S
N238 H251 0.985 . S
N239 C241 1.356 . S
N239 H244 0.984 . S
N239 H245 0.985 . S
C240 C234 1.379 . S
C240 C237 1.363 . S
C240 N238 1.356 . S
C241 C235 1.363 . S
C241 C236 1.379 . S
C241 N239 1.356 . S
N242 C234 1.356 . S
N242 H248 0.984 . S
N242 H249 0.984 . S
N243 C236 1.356 . S
N243 H246 0.984 . S
N243 H247 0.985 . S
H244 N239 0.984 . S
H245 N239 0.985 . S
H246 N243 0.984 . S
H247 N243 0.985 . S
H248 N242 0.984 . S
H249 N242 0.984 . S
H250 N238 0.984 . S
H251 N238 0.985 . S
C252 C253 1.363 . S
C252 C258 1.379 . S
C252 N260 1.356 . S
C253 C252 1.363 . S
C253 C259 1.363 . S
C254 C255 1.363 . S
C254 C259 1.379 . S
C254 N261 1.356 . S
C255 C254 1.363 . S
C255 C258 1.363 . S
N256 C258 1.356 . S
N256 H268 0.984 . S
N256 H269 0.985 . S
N257 C259 1.356 . S
N257 H262 0.984 . S
N257 H263 0.985 . S
C258 C252 1.379 . S
C258 C255 1.363 . S
C258 N256 1.356 . S
C259 C253 1.363 . S
C259 C254 1.379 . S
C259 N257 1.356 . S
N260 C252 1.356 . S
N260 H266 0.984 . S
N260 H267 0.984 . S
N261 C254 1.356 . S
N261 H264 0.984 . S
N261 H265 0.985 . S
H262 N257 0.984 . S
H263 N257 0.985 . S
H264 N261 0.984 . S
H265 N261 0.985 . S
H266 N260 0.984 . S
H267 N260 0.984 . S
H268 N256 0.984 . S
H269 N256 0.985 . S
C270 C271 1.363 . S
C270 C276 1.379 . S
C270 N278 1.356 . S
C271 C270 1.363 . S
C271 C277 1.363 . S
C272 C273 1.363 . S
C272 C277 1.379 . S
C272 N279 1.356 . S
C273 C272 1.363 . S
C273 C276 1.363 . S
N274 C276 1.356 . S
N274 H286 0.984 . S
N274 H287 0.985 . S
N275 C277 1.356 . S
N275 H280 0.984 . S
N275 H281 0.985 . S
C276 C270 1.379 . S
C276 C273 1.363 . S
C276 N274 1.356 . S
C277 C271 1.363 . S
C277 C272 1.379 . S
C277 N275 1.356 . S
N278 C270 1.356 . S
N278 H284 0.984 . S
N278 H285 0.984 . S
N279 C272 1.356 . S
N279 H282 0.984 1_565 S
N279 H283 0.985 1_565 S
H280 N275 0.984 . S
H281 N275 0.985 . S
H282 N279 0.984 1_545 S
H283 N279 0.985 1_545 S
H284 N278 0.984 . S
H285 N278 0.984 . S
H286 N274 0.984 . S
H287 N274 0.985 . S
C288 C289 1.363 . S
C288 C294 1.379 . S
C288 N296 1.356 . S
C289 C288 1.363 . S
C289 C295 1.363 . S
C290 C291 1.363 . S
C290 C295 1.379 . S
C290 N297 1.356 . S
C291 C290 1.363 . S
C291 C294 1.363 . S
N292 C294 1.356 . S
N292 H304 0.984 . S
N292 H305 0.985 . S
N293 C295 1.356 . S
N293 H298 0.984 . S
N293 H299 0.985 . S
C294 C288 1.379 . S
C294 C291 1.363 . S
C294 N292 1.356 . S
C295 C289 1.363 . S
C295 C290 1.379 . S
C295 N293 1.356 . S
N296 C288 1.356 . S
N296 H302 0.984 . S
N296 H303 0.984 . S
N297 C290 1.356 . S
N297 H300 0.984 . S
N297 H301 0.985 . S
H298 N293 0.984 . S
H299 N293 0.985 . S
H300 N297 0.984 . S
H301 N297 0.985 . S
H302 N296 0.984 . S
H303 N296 0.984 . S
H304 N292 0.984 . S
H305 N292 0.985 . S
C306 C307 1.363 . S
C306 C312 1.379 . S
C306 N314 1.356 . S
C307 C306 1.363 . S
C307 C313 1.363 . S
C308 C309 1.363 . S
C308 C313 1.379 . S
C308 N315 1.356 . S
C309 C308 1.363 . S
C309 C312 1.363 . S
N310 C312 1.356 . S
N310 H322 0.984 . S
N310 H323 0.985 . S
N311 C313 1.356 . S
N311 H316 0.984 . S
N311 H317 0.985 . S
C312 C306 1.379 . S
C312 C309 1.363 . S
C312 N310 1.356 . S
C313 C307 1.363 . S
C313 C308 1.379 . S
C313 N311 1.356 . S
N314 C306 1.356 . S
N314 H320 0.984 . S
N314 H321 0.984 . S
N315 C308 1.356 . S
N315 H318 0.984 . S
N315 H319 0.985 . S
H316 N311 0.984 . S
H317 N311 0.985 . S
H318 N315 0.984 . S
H319 N315 0.985 . S
H320 N314 0.984 . S
H321 N314 0.984 . S
H322 N310 0.984 . S
H323 N310 0.985 . S
C324 C325 1.363 . S
C324 C330 1.379 . S
C324 N332 1.356 . S
C325 C324 1.363 . S
C325 C331 1.363 . S
C326 C327 1.363 . S
C326 C331 1.379 . S
C326 N333 1.356 . S
C327 C326 1.363 . S
C327 C330 1.363 . S
N328 C330 1.356 . S
N328 H340 0.984 . S
N328 H341 0.985 . S
N329 C331 1.356 . S
N329 H334 0.984 . S
N329 H335 0.985 . S
C330 C324 1.379 . S
C330 C327 1.363 . S
C330 N328 1.356 . S
C331 C325 1.363 . S
C331 C326 1.379 . S
C331 N329 1.356 . S
N332 C324 1.356 . S
N332 H338 0.984 . S
N332 H339 0.984 . S
N333 C326 1.356 . S
N333 H336 0.984 . S
N333 H337 0.985 . S
H334 N329 0.984 . S
H335 N329 0.985 . S
H336 N333 0.984 . S
H337 N333 0.985 . S
H338 N332 0.984 . S
H339 N332 0.984 . S
H340 N328 0.984 . S
H341 N328 0.985 . S
C342 C343 1.363 . S
C342 C348 1.379 . S
C342 N350 1.356 . S
C343 C342 1.363 . S
C343 C349 1.363 . S
C344 C345 1.363 . S
C344 C349 1.379 . S
C344 N351 1.356 . S
C345 C344 1.363 . S
C345 C348 1.363 . S
N346 C348 1.356 . S
N346 H358 0.984 . S
N346 H359 0.985 . S
N347 C349 1.356 . S
N347 H352 0.984 . S
N347 H353 0.985 . S
C348 C342 1.379 . S
C348 C345 1.363 . S
C348 N346 1.356 . S
C349 C343 1.363 . S
C349 C344 1.379 . S
C349 N347 1.356 . S
N350 C342 1.356 . S
N350 H356 0.984 . S
N350 H357 0.984 . S
N351 C344 1.356 . S
N351 H354 0.984 . S
N351 H355 0.985 . S
H352 N347 0.984 . S
H353 N347 0.985 . S
H354 N351 0.984 . S
H355 N351 0.985 . S
H356 N350 0.984 . S
H357 N350 0.984 . S
H358 N346 0.984 . S
H359 N346 0.985 . S
C360 C361 1.363 . S
C360 C366 1.379 . S
C360 N368 1.356 . S
C361 C360 1.363 . S
C361 C367 1.363 . S
C362 C363 1.363 . S
C362 C367 1.379 . S
C362 N369 1.356 . S
C363 C362 1.363 . S
C363 C366 1.363 . S
N364 C366 1.356 . S
N364 H376 0.984 . S
N364 H377 0.985 . S
N365 C367 1.356 . S
N365 H370 0.984 . S
N365 H371 0.985 . S
C366 C360 1.379 . S
C366 C363 1.363 . S
C366 N364 1.356 . S
C367 C361 1.363 . S
C367 C362 1.379 . S
C367 N365 1.356 . S
N368 C360 1.356 . S
N368 H374 0.984 . S
N368 H375 0.984 . S
N369 C362 1.356 . S
N369 H372 0.984 . S
N369 H373 0.985 . S
H370 N365 0.984 . S
H371 N365 0.985 . S
H372 N369 0.984 . S
H373 N369 0.985 . S
H374 N368 0.984 . S
H375 N368 0.984 . S
H376 N364 0.984 . S
H377 N364 0.985 . S
C378 C379 1.363 . S
C378 C384 1.379 . S
C378 N386 1.356 . S
C379 C378 1.363 . S
C379 C385 1.363 . S
C380 C381 1.363 . S
C380 C385 1.379 . S
C380 N387 1.356 . S
C381 C380 1.363 . S
C381 C384 1.363 . S
N382 C384 1.356 . S
N382 H394 0.984 . S
N382 H395 0.985 . S
N383 C385 1.356 . S
N383 H388 0.984 . S
N383 H389 0.985 . S
C384 C378 1.379 . S
C384 C381 1.363 . S
C384 N382 1.356 . S
C385 C379 1.363 . S
C385 C380 1.379 . S
C385 N383 1.356 . S
N386 C378 1.356 . S
N386 H392 0.984 . S
N386 H393 0.984 . S
N387 C380 1.356 . S
N387 H390 0.984 . S
N387 H391 0.985 . S
H388 N383 0.984 . S
H389 N383 0.985 . S
H390 N387 0.984 . S
H391 N387 0.985 . S
H392 N386 0.984 . S
H393 N386 0.984 . S
H394 N382 0.984 . S
H395 N382 0.985 . S
C396 C397 1.363 . S
C396 C402 1.379 . S
C396 N404 1.356 . S
C397 C396 1.363 . S
C397 C403 1.363 . S
C398 C399 1.363 . S
C398 C403 1.379 . S
C398 N405 1.356 . S
C399 C398 1.363 . S
C399 C402 1.363 . S
N400 C402 1.356 . S
N400 H412 0.984 . S
N400 H413 0.985 . S
N401 C403 1.356 . S
N401 H406 0.984 . S
N401 H407 0.985 . S
C402 C396 1.379 . S
C402 C399 1.363 . S
C402 N400 1.356 . S
C403 C397 1.363 . S
C403 C398 1.379 . S
C403 N401 1.356 . S
N404 C396 1.356 . S
N404 H410 0.984 . S
N404 H411 0.984 . S
N405 C398 1.356 . S
N405 H408 0.984 . S
N405 H409 0.985 . S
H406 N401 0.984 . S
H407 N401 0.985 . S
H408 N405 0.984 . S
H409 N405 0.985 . S
H410 N404 0.984 . S
H411 N404 0.984 . S
H412 N400 0.984 . S
H413 N400 0.985 . S
C414 C415 1.363 . S
C414 C420 1.379 . S
C414 N422 1.356 . S
C415 C414 1.363 . S
C415 C421 1.363 . S
C416 C417 1.363 . S
C416 C421 1.379 . S
C416 N423 1.356 . S
C417 C416 1.363 . S
C417 C420 1.363 . S
N418 C420 1.356 . S
N418 H430 0.984 . S
N418 H431 0.985 . S
N419 C421 1.356 . S
N419 H424 0.984 . S
N419 H425 0.985 . S
C420 C414 1.379 . S
C420 C417 1.363 . S
C420 N418 1.356 . S
C421 C415 1.363 . S
C421 C416 1.379 . S
C421 N419 1.356 . S
N422 C414 1.356 . S
N422 H428 0.984 . S
N422 H429 0.984 . S
N423 C416 1.356 . S
N423 H426 0.984 . S
N423 H427 0.985 . S
H424 N419 0.984 . S
H425 N419 0.985 . S
H426 N423 0.984 . S
H427 N423 0.985 . S
H428 N422 0.984 . S
H429 N422 0.984 . S
H430 N418 0.984 . S
H431 N418 0.985 . S
C432 C433 1.363 . S
C432 C438 1.379 . S
C432 N440 1.356 . S
C433 C432 1.363 . S
C433 C439 1.363 . S
C434 C435 1.363 . S
C434 C439 1.379 . S
C434 N441 1.356 . S
C435 C434 1.363 . S
C435 C438 1.363 . S
N436 C438 1.356 . S
N436 H448 0.984 . S
N436 H449 0.985 . S
N437 C439 1.356 . S
N437 H442 0.984 . S
N437 H443 0.985 . S
C438 C432 1.379 . S
C438 C435 1.363 . S
C438 N436 1.356 . S
C439 C433 1.363 . S
C439 C434 1.379 . S
C439 N437 1.356 . S
N440 C432 1.356 . S
N440 H446 0.984 . S
N440 H447 0.984 . S
N441 C434 1.356 . S
N441 H444 0.984 . S
N441 H445 0.985 . S
H442 N437 0.984 . S
H443 N437 0.985 . S
H444 N441 0.984 . S
H445 N441 0.985 . S
H446 N440 0.984 . S
H447 N440 0.984 . S
H448 N436 0.984 . S
H449 N436 0.985 . S
C450 C451 1.363 . S
C450 C456 1.379 1_554 S
C450 N458 1.356 . S
C451 C450 1.363 . S
C451 C457 1.363 . S
C452 C453 1.363 . S
C452 C457 1.379 1_556 S
C452 N459 1.356 . S
C453 C452 1.363 . S
C453 C456 1.363 . S
N454 C456 1.356 . S
N454 H466 0.984 . S
N454 H467 0.985 . S
N455 C457 1.356 . S
N455 H460 0.984 . S
N455 H461 0.985 1_455 S
C456 C450 1.379 1_556 S
C456 C453 1.363 . S
C456 N454 1.356 . S
C457 C451 1.363 . S
C457 C452 1.379 1_554 S
C457 N455 1.356 . S
N458 C450 1.356 . S
N458 H464 0.984 . S
N458 H465 0.984 . S
N459 C452 1.356 . S
N459 H462 0.984 . S
N459 H463 0.985 1_455 S
H460 N455 0.984 . S
H461 N455 0.985 1_655 S
H462 N459 0.984 . S
H463 N459 0.985 1_655 S
H464 N458 0.984 . S
H465 N458 0.984 . S
H466 N454 0.984 . S
H467 N454 0.985 . S
C468 C469 1.363 . S
C468 C474 1.379 . S
C468 N476 1.356 . S
C469 C468 1.363 . S
C469 C475 1.363 1_545 S
C470 C471 1.363 1_565 S
C470 C475 1.379 . S
C470 N477 1.356 . S
C471 C470 1.363 1_545 S
C471 C474 1.363 . S
N472 C474 1.356 . S
N472 H484 0.984 . S
N472 H485 0.985 . S
N473 C475 1.356 . S
N473 H478 0.984 . S
N473 H479 0.985 . S
C474 C468 1.379 . S
C474 C471 1.363 . S
C474 N472 1.356 . S
C475 C469 1.363 1_565 S
C475 C470 1.379 . S
C475 N473 1.356 . S
N476 C468 1.356 . S
N476 H482 0.984 . S
N476 H483 0.984 . S
N477 C470 1.356 . S
N477 H480 0.984 . S
N477 H481 0.985 . S
H478 N473 0.984 . S
H479 N473 0.985 . S
H480 N477 0.984 . S
H481 N477 0.985 . S
H482 N476 0.984 . S
H483 N476 0.984 . S
H484 N472 0.984 . S
H485 N472 0.985 . S
C486 C487 1.363 . S
C486 C492 1.379 . S
C486 N494 1.356 . S
C487 C486 1.363 . S
C487 C493 1.363 . S
C488 C489 1.363 . S
C488 C493 1.379 . S
C488 N495 1.356 . S
C489 C488 1.363 . S
C489 C492 1.363 . S
N490 C492 1.356 . S
N490 H502 0.984 . S
N490 H503 0.985 . S
N491 C493 1.356 . S
N491 H496 0.984 . S
N491 H497 0.985 . S
C492 C486 1.379 . S
C492 C489 1.363 . S
C492 N490 1.356 . S
C493 C487 1.363 . S
C493 C488 1.379 . S
C493 N491 1.356 . S
N494 C486 1.356 . S
N494 H500 0.984 . S
N494 H501 0.984 . S
N495 C488 1.356 . S
N495 H498 0.984 . S
N495 H499 0.985 . S
H496 N491 0.984 . S
H497 N491 0.985 . S
H498 N495 0.984 . S
H499 N495 0.985 . S
H500 N494 0.984 . S
H501 N494 0.984 . S
H502 N490 0.984 . S
H503 N490 0.985 . S
C504 C505 1.363 . S
C504 C510 1.379 . S
C504 N512 1.356 1_545 S
C505 C504 1.363 . S
C505 C511 1.363 . S
C506 C507 1.363 . S
C506 C511 1.379 . S
C506 N513 1.356 . S
C507 C506 1.363 . S
C507 C510 1.363 . S
N508 C510 1.356 1_565 S
N508 H520 0.984 . S
N508 H521 0.985 . S
N509 C511 1.356 . S
N509 H514 0.984 . S
N509 H515 0.985 . S
C510 C504 1.379 . S
C510 C507 1.363 . S
C510 N508 1.356 1_545 S
C511 C505 1.363 . S
C511 C506 1.379 . S
C511 N509 1.356 . S
N512 C504 1.356 1_565 S
N512 H518 0.984 . S
N512 H519 0.984 . S
N513 C506 1.356 . S
N513 H516 0.984 . S
N513 H517 0.985 . S
H514 N509 0.984 . S
H515 N509 0.985 . S
H516 N513 0.984 . S
H517 N513 0.985 . S
H518 N512 0.984 . S
H519 N512 0.984 . S
H520 N508 0.984 . S
H521 N508 0.985 . S
C522 C523 1.363 . S
C522 C528 1.379 . S
C522 N530 1.356 . S
C523 C522 1.363 . S
C523 C529 1.363 . S
C524 C525 1.363 . S
C524 C529 1.379 1_554 S
C524 N531 1.356 . S
C525 C524 1.363 . S
C525 C528 1.363 1_554 S
N526 C528 1.356 1_554 S
N526 H538 0.984 1_554 S
N526 H539 0.985 . S
N527 C529 1.356 . S
N527 H532 0.984 . S
N527 H533 0.985 . S
C528 C522 1.379 . S
C528 C525 1.363 1_556 S
C528 N526 1.356 1_556 S
C529 C523 1.363 . S
C529 C524 1.379 1_556 S
C529 N527 1.356 . S
N530 C522 1.356 . S
N530 H536 0.984 . S
N530 H537 0.984 . S
N531 C524 1.356 . S
N531 H534 0.984 . S
N531 H535 0.985 . S
H532 N527 0.984 . S
H533 N527 0.985 . S
H534 N531 0.984 . S
H535 N531 0.985 . S
H536 N530 0.984 . S
H537 N530 0.984 . S
H538 N526 0.984 1_556 S
H539 N526 0.985 . S
C540 C541 1.363 . S
C540 C546 1.379 . S
C540 N548 1.356 . S
C541 C540 1.363 . S
C541 C547 1.363 1_455 S
C542 C543 1.363 1_655 S
C542 C547 1.379 . S
C542 N549 1.356 . S
C543 C542 1.363 1_455 S
C543 C546 1.363 . S
N544 C546 1.356 . S
N544 H556 0.984 . S
N544 H557 0.985 . S
N545 C547 1.356 . S
N545 H550 0.984 . S
N545 H551 0.985 . S
C546 C540 1.379 . S
C546 C543 1.363 . S
C546 N544 1.356 . S
C547 C541 1.363 1_655 S
C547 C542 1.379 . S
C547 N545 1.356 . S
N548 C540 1.356 . S
N548 H554 0.984 . S
N548 H555 0.984 . S
N549 C542 1.356 . S
N549 H552 0.984 . S
N549 H553 0.985 . S
H550 N545 0.984 . S
H551 N545 0.985 . S
H552 N549 0.984 . S
H553 N549 0.985 . S
H554 N548 0.984 . S
H555 N548 0.984 . S
H556 N544 0.984 . S
H557 N544 0.985 . S
C235 C6 1.106 . S
C237 C226 0.980 . S
C253 C59 2.008 . S
C255 C188 1.956 . S
C271 C86 1.360 . S
C273 C207 1.304 . S
C289 C15 0.586 . S
C291 C221 0.426 . S
C309 C183 1.890 . S
C307 C50 1.936 . S
C327 C202 1.191 . S
C325 C95 1.195 . S
C343 C46 1.383 . S
C345 C150 1.274 . S
C361 C99 3.105 . S
C363 C164 3.069 . S
C379 C10 1.960 . S
C381 C126 1.942 . S
C399 C145 1.166 . S
C397 C55 1.160 . S
C417 C169 3.082 . S
C415 C90 3.135 . S
C433 C19 2.025 . S
C435 C131 1.983 . S
C453 C160 1.746 . S
C451 C18 1.722 . S
C469 C49 1.439 . S
C471 C122 1.515 . S
C487 C98 1.541 . S
C489 C141 1.558 . S
C507 C198 1.539 . S
C505 C58 1.550 . S
C525 C217 1.297 . S
C523 C89 1.300 . S
C541 C9 1.415 . S
C543 C179 1.465 . S
