# Generated by pormake.
# Topology wbl, (4,4)-cn, num edge types: 1
# Building blocks:
#     Node 0, Type 0, BuildingBlock: MUDLON_clean_linker_0, # of connection points: 4
#     Node 1, Type 0, BuildingBlock: MUDLON_clean_linker_0, # of connection points: 4
#     Node 2, Type 0, BuildingBlock: MUDLON_clean_linker_0, # of connection points: 4
#     Node 3, Type 0, BuildingBlock: MUDLON_clean_linker_0, # of connection points: 4
#     Node 4, Type 0, BuildingBlock: MUDLON_clean_linker_0, # of connection points: 4
#     Node 5, Type 0, BuildingBlock: MUDLON_clean_linker_0, # of connection points: 4
#     Node 6, Type 0, BuildingBlock: MUDLON_clean_linker_0, # of connection points: 4
#     Node 7, Type 0, BuildingBlock: MUDLON_clean_linker_0, # of connection points: 4
#     Node 8, Type 1, BuildingBlock: NAHDIM_clean_sbu_0, # of connection points: 4
#     Node 9, Type 1, BuildingBlock: NAHDIM_clean_sbu_0, # of connection points: 4
#     Node 10, Type 1, BuildingBlock: NAHDIM_clean_sbu_0, # of connection points: 4
#     Node 11, Type 1, BuildingBlock: NAHDIM_clean_sbu_0, # of connection points: 4
#     Node 12, Type 1, BuildingBlock: NAHDIM_clean_sbu_0, # of connection points: 4
#     Node 13, Type 1, BuildingBlock: NAHDIM_clean_sbu_0, # of connection points: 4
#     Node 14, Type 1, BuildingBlock: NAHDIM_clean_sbu_0, # of connection points: 4
#     Node 15, Type 1, BuildingBlock: NAHDIM_clean_sbu_0, # of connection points: 4
#     Edge 16, Type (0, 1), BuildingBlock: ZUJKAS_clean_linker_0, # of connection points: 2
#     Edge 17, Type (0, 1), BuildingBlock: ZUJKAS_clean_linker_0, # of connection points: 2
#     Edge 18, Type (0, 1), BuildingBlock: ZUJKAS_clean_linker_0, # of connection points: 2
#     Edge 19, Type (0, 1), BuildingBlock: ZUJKAS_clean_linker_0, # of connection points: 2
#     Edge 20, Type (0, 1), BuildingBlock: ZUJKAS_clean_linker_0, # of connection points: 2
#     Edge 21, Type (0, 1), BuildingBlock: ZUJKAS_clean_linker_0, # of connection points: 2
#     Edge 22, Type (0, 1), BuildingBlock: ZUJKAS_clean_linker_0, # of connection points: 2
#     Edge 23, Type (0, 1), BuildingBlock: ZUJKAS_clean_linker_0, # of connection points: 2
#     Edge 24, Type (0, 1), BuildingBlock: ZUJKAS_clean_linker_0, # of connection points: 2
#     Edge 25, Type (0, 1), BuildingBlock: ZUJKAS_clean_linker_0, # of connection points: 2
#     Edge 26, Type (0, 1), BuildingBlock: ZUJKAS_clean_linker_0, # of connection points: 2
#     Edge 27, Type (0, 1), BuildingBlock: ZUJKAS_clean_linker_0, # of connection points: 2
#     Edge 28, Type (0, 1), BuildingBlock: ZUJKAS_clean_linker_0, # of connection points: 2
#     Edge 29, Type (0, 1), BuildingBlock: ZUJKAS_clean_linker_0, # of connection points: 2
#     Edge 30, Type (0, 1), BuildingBlock: ZUJKAS_clean_linker_0, # of connection points: 2
#     Edge 31, Type (0, 1), BuildingBlock: ZUJKAS_clean_linker_0, # of connection points: 2
#     Edge 32, Type (0, 1), BuildingBlock: ZUJKAS_clean_linker_0, # of connection points: 2
#     Edge 33, Type (0, 1), BuildingBlock: ZUJKAS_clean_linker_0, # of connection points: 2
#     Edge 34, Type (0, 1), BuildingBlock: ZUJKAS_clean_linker_0, # of connection points: 2
#     Edge 35, Type (0, 1), BuildingBlock: ZUJKAS_clean_linker_0, # of connection points: 2
#     Edge 36, Type (0, 1), BuildingBlock: ZUJKAS_clean_linker_0, # of connection points: 2
#     Edge 37, Type (0, 1), BuildingBlock: ZUJKAS_clean_linker_0, # of connection points: 2
#     Edge 38, Type (0, 1), BuildingBlock: ZUJKAS_clean_linker_0, # of connection points: 2
#     Edge 39, Type (0, 1), BuildingBlock: ZUJKAS_clean_linker_0, # of connection points: 2
#     Edge 40, Type (0, 1), BuildingBlock: ZUJKAS_clean_linker_0, # of connection points: 2
#     Edge 41, Type (0, 1), BuildingBlock: ZUJKAS_clean_linker_0, # of connection points: 2
#     Edge 42, Type (0, 1), BuildingBlock: ZUJKAS_clean_linker_0, # of connection points: 2
#     Edge 43, Type (0, 1), BuildingBlock: ZUJKAS_clean_linker_0, # of connection points: 2
#     Edge 44, Type (0, 1), BuildingBlock: ZUJKAS_clean_linker_0, # of connection points: 2
#     Edge 45, Type (0, 1), BuildingBlock: ZUJKAS_clean_linker_0, # of connection points: 2
#     Edge 46, Type (0, 1), BuildingBlock: ZUJKAS_clean_linker_0, # of connection points: 2
#     Edge 47, Type (0, 1), BuildingBlock: ZUJKAS_clean_linker_0, # of connection points: 2
# Relax obj value: 0.110
# Max RMSD: 0.118
# Mean RMSD: 0.108
data_MOF--net-wbl--node1-NAHDIM_clean_sbu_0--node2-MUDLON_clean_linker_0--edge1-ZUJKAS_clean_linker_0
_symmetry_space_group_name_H-M    P1
_symmetry_Int_Tables_number       1
_symmetry_cell_setting            triclinic
loop_
_symmetry_equiv_pos_as_xyz
'x, y, z'
_cell_length_a     66.658377
_cell_length_b     64.787601
_cell_length_c     91.051793
_cell_angle_alpha  89.98688
_cell_angle_beta   89.996988
_cell_angle_gamma 90.007096
loop_
_atom_site_label
_atom_site_type_symbol
_atom_site_fract_x
_atom_site_fract_y
_atom_site_fract_z
_atom_type_partial_charge
H0 H 0.1131 0.98518 0.33418 0.0
N1 N 0.08066 0.98345 0.31739 0.0
H2 H 0.11912 0.96712 0.35733 0.0
H3 H 0.05326 0.96018 0.33251 0.0
H4 H 0.05875 0.94274 0.35592 0.0
H5 H 0.07232 0.9433 0.3104 0.0
H6 H 0.09161 0.92206 0.29334 0.0
H7 H 0.10535 0.99713 0.29675 0.0
H8 H 0.12381 0.97636 0.2789 0.0
H9 H 0.08168 0.02405 0.3197 0.0
H10 H 0.04247 0.97335 0.30926 0.0
H11 H 0.05399 0.04829 0.31663 0.0
H12 H 0.01414 0.99734 0.30699 0.0
H13 H 0.96039 0.12035 0.3222 0.0
H14 H 0.94429 0.12853 0.34568 0.0
H15 H 0.9361 0.0634 0.35403 0.0
H16 H 0.95252 0.0554 0.33068 0.0
H17 H 0.93823 0.05287 0.3065 0.0
H18 H 0.90767 0.05604 0.29189 0.0
H19 H 0.92811 0.11522 0.27582 0.0
H20 H 0.95882 0.11157 0.29018 0.0
H21 H 0.99804 0.08298 0.32828 0.0
H22 H 0.02515 0.05816 0.32947 0.0
H23 H 0.99948 0.02492 0.29288 0.0
N24 N 0.96632 0.08327 0.31046 0.0
H25 H 0.97184 0.04924 0.29205 0.0
C26 C 0.08277 0.9742 0.33169 0.0
C27 C 0.10114 0.97612 0.339 0.0
C28 C 0.10448 0.96586 0.35226 0.0
C29 C 0.0894 0.95347 0.35854 0.0
C30 C 0.07078 0.95193 0.35132 0.0
C31 C 0.06752 0.96211 0.33799 0.0
C32 C 0.08794 0.97168 0.30512 0.0
C33 C 0.08333 0.95065 0.30341 0.0
C34 C 0.09427 0.93854 0.29352 0.0
C35 C 0.10967 0.9474 0.28501 0.0
C36 C 0.11253 0.96891 0.28562 0.0
C37 C 0.10189 0.98086 0.2957 0.0
C38 C 0.06399 0.99704 0.31497 0.0
C39 C 0.06696 0.01822 0.31684 0.0
C40 C 0.05106 0.03197 0.3152 0.0
C41 C 0.03168 0.02476 0.31184 0.0
C42 C 0.02885 0.00345 0.30954 0.0
C43 C 0.04493 0.98968 0.311 0.0
C44 C 0.95767 0.08737 0.32472 0.0
C45 C 0.95523 0.1079 0.32918 0.0
C46 C 0.94591 0.1125 0.34251 0.0
C47 C 0.93885 0.09659 0.35166 0.0
C48 C 0.94154 0.07597 0.34727 0.0
C49 C 0.9508 0.07138 0.3339 0.0
C50 C 0.95082 0.08207 0.29942 0.0
C51 C 0.93639 0.06622 0.2995 0.0
C52 C 0.91885 0.06814 0.29121 0.0
C53 C 0.91526 0.08605 0.28286 0.0
C54 C 0.9304 0.10113 0.28199 0.0
C55 C 0.94799 0.0991 0.2902 0.0
C56 C 0.98216 0.06785 0.31055 0.0
C57 C 0.99797 0.07018 0.32063 0.0
C58 C 0.01369 0.05607 0.32117 0.0
C59 C 0.01454 0.03946 0.31127 0.0
C60 C 0.99907 0.03728 0.30088 0.0
C61 C 0.98312 0.05134 0.30044 0.0
H62 H 0.96589 0.44011 0.58217 0.0
N63 N 0.94184 0.45563 0.56041 0.0
H64 H 0.95514 0.43025 0.60683 0.0
H65 H 0.90676 0.46366 0.57295 0.0
H66 H 0.89596 0.45438 0.59779 0.0
H67 H 0.91455 0.45408 0.53919 0.0
H68 H 0.90055 0.42308 0.52777 0.0
H69 H 0.95761 0.41656 0.56232 0.0
H70 H 0.94464 0.38589 0.5504 0.0
H71 H 0.97915 0.44031 0.55218 0.0
H72 H 0.94675 0.49596 0.56292 0.0
H73 H 0.00994 0.4599 0.55006 0.0
H74 H 0.97786 0.51567 0.56137 0.0
H75 H 0.10273 0.53383 0.57678 0.0
H76 H 0.10889 0.54843 0.60115 0.0
H77 H 0.04721 0.56878 0.6032 0.0
H78 H 0.04132 0.55451 0.57877 0.0
H79 H 0.05401 0.57546 0.55809 0.0
H80 H 0.06793 0.60321 0.54339 0.0
H81 H 0.11235 0.5614 0.52583 0.0
H82 H 0.09817 0.53338 0.54076 0.0
H83 H 0.0641 0.4969 0.56734 0.0
H84 H 0.0333 0.47668 0.5656 0.0
H85 H 0.00324 0.52893 0.5459 0.0
N86 N 0.0694 0.53638 0.5609 0.0
H87 H 0.03359 0.54917 0.54825 0.0
C88 C 0.93701 0.45255 0.5757 0.0
C89 C 0.9507 0.44355 0.58556 0.0
C90 C 0.94455 0.438 0.5997 0.0
C91 C 0.92463 0.44134 0.60423 0.0
C92 C 0.9113 0.45127 0.59456 0.0
C93 C 0.91746 0.45675 0.58043 0.0
C94 C 0.93724 0.43783 0.55149 0.0
C95 C 0.92148 0.43926 0.54135 0.0
C96 C 0.91352 0.4215 0.53484 0.0
C97 C 0.92128 0.4019 0.53832 0.0
C98 C 0.93798 0.40066 0.54772 0.0
C99 C 0.94569 0.41834 0.55438 0.0
C100 C 0.96034 0.46666 0.55773 0.0
C101 C 0.97846 0.45672 0.55405 0.0
C102 C 0.99628 0.46801 0.55292 0.0
C103 C 0.9965 0.48939 0.55561 0.0
C104 C 0.9783 0.49931 0.55897 0.0
C105 C 0.96048 0.48806 0.55995 0.0
C106 C 0.07165 0.543 0.57595 0.0
C107 C 0.0905 0.54117 0.58262 0.0
C108 C 0.09395 0.54946 0.59655 0.0
C109 C 0.07855 0.55983 0.6041 0.0
C110 C 0.05945 0.56112 0.59759 0.0
C111 C 0.05602 0.55281 0.58365 0.0
C112 C 0.07498 0.55215 0.55046 0.0
C113 C 0.06636 0.57199 0.5508 0.0
C114 C 0.07434 0.58792 0.54232 0.0
C115 C 0.09125 0.58451 0.53343 0.0
C116 C 0.09936 0.5645 0.53263 0.0
C117 C 0.09122 0.54848 0.54104 0.0
C118 C 0.05142 0.52456 0.55798 0.0
C119 C 0.0509 0.50388 0.56249 0.0
C120 C 0.03328 0.49232 0.56141 0.0
C121 C 0.01569 0.50117 0.55564 0.0
C122 C 0.01638 0.52171 0.55064 0.0
C123 C 0.03396 0.53333 0.55188 0.0
H124 H 0.61078 0.48082 0.8275 0.0
N125 N 0.57795 0.47952 0.81111 0.0
H126 H 0.61664 0.46371 0.85105 0.0
H127 H 0.55018 0.45768 0.82695 0.0
H128 H 0.55561 0.44108 0.85069 0.0
H129 H 0.56562 0.44016 0.80474 0.0
H130 H 0.58246 0.4164 0.78787 0.0
H131 H 0.60474 0.48934 0.79077 0.0
H132 H 0.62141 0.4658 0.77366 0.0
H133 H 0.57689 0.51955 0.81637 0.0
H134 H 0.54045 0.46895 0.80122 0.0
H135 H 0.54807 0.54266 0.81485 0.0
H136 H 0.51145 0.49209 0.7993 0.0
H137 H 0.47491 0.60397 0.83229 0.0
H138 H 0.46006 0.61083 0.85642 0.0
H139 H 0.41843 0.56057 0.84978 0.0
H140 H 0.43307 0.55407 0.82573 0.0
H141 H 0.43612 0.54965 0.79999 0.0
H142 H 0.40738 0.55895 0.78475 0.0
H143 H 0.42825 0.62213 0.78343 0.0
H144 H 0.45632 0.61278 0.79937 0.0
H145 H 0.49835 0.58393 0.80081 0.0
H146 H 0.5261 0.55959 0.79794 0.0
H147 H 0.48879 0.51084 0.81543 0.0
N148 N 0.46264 0.57684 0.81238 0.0
H149 H 0.46098 0.53511 0.81769 0.0
C150 C 0.58011 0.47065 0.82553 0.0
C151 C 0.59865 0.47233 0.83263 0.0
C152 C 0.6019 0.46263 0.8461 0.0
C153 C 0.58657 0.45103 0.85279 0.0
C154 C 0.56781 0.44969 0.84577 0.0
C155 C 0.56461 0.45934 0.83224 0.0
C156 C 0.58421 0.4665 0.79915 0.0
C157 C 0.57747 0.446 0.79778 0.0
C158 C 0.58711 0.43242 0.78815 0.0
C159 C 0.60335 0.43922 0.77956 0.0
C160 C 0.60885 0.46015 0.78006 0.0
C161 C 0.5994 0.47361 0.78982 0.0
C162 C 0.56085 0.49268 0.80886 0.0
C163 C 0.56268 0.51357 0.81247 0.0
C164 C 0.5462 0.52673 0.81151 0.0
C165 C 0.52744 0.51927 0.80685 0.0
C166 C 0.52565 0.49829 0.80302 0.0
C167 C 0.54224 0.48507 0.80402 0.0
C168 C 0.45515 0.57863 0.82717 0.0
C169 C 0.4628 0.59426 0.83619 0.0
C170 C 0.45434 0.59809 0.84997 0.0
C171 C 0.43797 0.58632 0.85496 0.0
C172 C 0.43084 0.57009 0.84615 0.0
C173 C 0.43934 0.56626 0.83239 0.0
C174 C 0.44813 0.58068 0.80101 0.0
C175 C 0.43462 0.56543 0.79628 0.0
C176 C 0.41825 0.57077 0.78744 0.0
C177 C 0.41527 0.5914 0.78307 0.0
C178 C 0.42978 0.60622 0.7869 0.0
C179 C 0.44594 0.6009 0.79586 0.0
C180 C 0.47776 0.56148 0.80964 0.0
C181 C 0.49614 0.56791 0.80382 0.0
C182 C 0.51198 0.55401 0.80229 0.0
C183 C 0.50978 0.53331 0.80668 0.0
C184 C 0.49098 0.52663 0.81188 0.0
C185 C 0.47506 0.54058 0.8133 0.0
H186 H 0.48001 0.88557 0.07851 0.0
N187 N 0.47661 0.9187 0.06163 0.0
H188 H 0.46603 0.88028 0.10307 0.0
H189 H 0.45746 0.94788 0.07825 0.0
H190 H 0.44356 0.94286 0.10289 0.0
H191 H 0.43868 0.93394 0.05722 0.0
H192 H 0.41249 0.91753 0.04257 0.0
H193 H 0.48153 0.88899 0.04197 0.0
H194 H 0.4554 0.87245 0.02723 0.0
H195 H 0.51545 0.9207 0.067 0.0
H196 H 0.46628 0.95615 0.04947 0.0
H197 H 0.53778 0.95009 0.06379 0.0
H198 H 0.48871 0.98532 0.04535 0.0
H199 H 0.60384 0.03194 0.07164 0.0
H200 H 0.61244 0.04449 0.09618 0.0
H201 H 0.55264 0.06964 0.10064 0.0
H202 H 0.54475 0.05821 0.07597 0.0
H203 H 0.54428 0.07003 0.05104 0.0
H204 H 0.55243 0.10087 0.0369 0.0
H205 H 0.61003 0.07448 0.02581 0.0
H206 H 0.60143 0.04345 0.03966 0.0
H207 H 0.57839 -0.00018 0.04901 0.0
H208 H 0.55532 0.97064 0.04727 0.0
H209 H 0.50591 0.01116 0.05813 0.0
N210 N 0.57001 0.0381 0.05695 0.0
H211 H 0.52879 0.04023 0.05868 0.0
C212 C 0.4698 0.91702 0.0766 0.0
C213 C 0.4723 0.89819 0.0839 0.0
C214 C 0.46437 0.89526 0.09792 0.0
C215 C 0.45368 0.91117 0.10493 0.0
C216 C 0.45155 0.93025 0.09772 0.0
C217 C 0.45957 0.93318 0.08368 0.0
C218 C 0.46208 0.91248 0.05079 0.0
C219 C 0.44261 0.92087 0.05043 0.0
C220 C 0.42761 0.91144 0.04208 0.0
C221 C 0.43184 0.89359 0.03387 0.0
C222 C 0.45169 0.88629 0.03333 0.0
C223 C 0.46663 0.89565 0.04176 0.0
C224 C 0.48931 0.93609 0.0584 0.0
C225 C 0.50961 0.93475 0.06217 0.0
C226 C 0.52238 0.95156 0.06018 0.0
C227 C 0.51517 0.97015 0.05417 0.0
C228 C 0.49479 0.97137 0.05015 0.0
C229 C 0.48192 0.95457 0.05237 0.0
C230 C 0.57366 0.04387 0.07198 0.0
C231 C 0.59259 0.03998 0.07804 0.0
C232 C 0.5974 0.04709 0.09209 0.0
C233 C 0.58324 0.05814 0.10044 0.0
C234 C 0.56405 0.06149 0.09447 0.0
C235 C 0.55937 0.05463 0.08034 0.0
C236 C 0.57231 0.05439 0.04638 0.0
C237 C 0.55837 0.07056 0.0452 0.0
C238 C 0.56315 0.08832 0.03721 0.0
C239 C 0.58199 0.09029 0.03036 0.0
C240 C 0.59531 0.07346 0.03078 0.0
C241 C 0.59047 0.05572 0.03872 0.0
C242 C 0.5555 0.0221 0.05427 0.0
C243 C 0.5625 0.00238 0.05072 0.0
C244 C 0.54929 0.9857 0.0499 0.0
C245 C 0.52873 0.98836 0.05291 0.0
C246 C 0.52158 0.00843 0.0557 0.0
C247 C 0.53481 0.02517 0.05624 0.0
H248 H 0.11217 0.51154 0.9366 0.0
N249 N 0.07677 0.51803 0.94904 0.0
H250 H 0.12429 0.52516 0.91311 0.0
H251 H 0.05439 0.53928 0.92875 0.0
H252 H 0.06638 0.55317 0.90551 0.0
H253 H 0.06109 0.55688 0.95183 0.0
H254 H 0.07359 0.58371 0.96841 0.0
H255 H 0.10093 0.51266 0.97178 0.0
H256 H 0.11328 0.53925 0.98856 0.0
H257 H 0.07886 0.47778 0.95336 0.0
H258 H 0.03678 0.52779 0.94888 0.0
H259 H 0.05122 0.45329 0.95544 0.0
H260 H 0.00894 0.50336 0.94967 0.0
H261 H 0.95752 0.38021 0.9385 0.0
H262 H 0.94165 0.3731 0.91484 0.0
H263 H 0.93595 0.43867 0.90704 0.0
H264 H 0.95139 0.44556 0.93093 0.0
H265 H 0.93061 0.44186 0.95345 0.0
H266 H 0.9017 0.43599 0.96924 0.0
H267 H 0.93215 0.38436 0.98938 0.0
H268 H 0.96107 0.39021 0.97325 0.0
H269 H 0.00046 0.4119 0.94128 0.0
H270 H 0.02762 0.43697 0.94109 0.0
H271 H 0.98947 0.48078 0.96357 0.0
N272 N 0.96342 0.41666 0.95102 0.0
H273 H 0.96207 0.45617 0.96279 0.0
C274 C 0.08243 0.52428 0.93444 0.0
C275 C 0.10204 0.52032 0.9297 0.0
C276 C 0.10896 0.52826 0.91637 0.0
C277 C 0.09633 0.54037 0.9075 0.0
C278 C 0.07642 0.54372 0.91201 0.0
C279 C 0.06953 0.53579 0.92537 0.0
C280 C 0.08039 0.53284 0.96048 0.0
C281 C 0.07214 0.5528 0.96002 0.0
C282 C 0.07929 0.56813 0.96949 0.0
C283 C 0.0945 0.5636 0.9797 0.0
C284 C 0.10143 0.54318 0.98091 0.0
C285 C 0.09447 0.52799 0.97133 0.0
C286 C 0.05989 0.50443 0.95063 0.0
C287 C 0.06358 0.48339 0.95266 0.0
C288 C 0.04772 0.46942 0.95369 0.0
C289 C 0.02772 0.47619 0.95243 0.0
C290 C 0.02407 0.4975 0.95077 0.0
C291 C 0.04001 0.51153 0.95006 0.0
C292 C 0.95569 0.4133 0.93643 0.0
C293 C 0.95303 0.393 0.93157 0.0
C294 C 0.94405 0.38901 0.91803 0.0
C295 C 0.93754 0.40533 0.90902 0.0
C296 C 0.94058 0.42576 0.91379 0.0
C297 C 0.94954 0.42973 0.92738 0.0
C298 C 0.94805 0.41639 0.96217 0.0
C299 C 0.93132 0.42961 0.9615 0.0
C300 C 0.91479 0.42628 0.97061 0.0
C301 C 0.91457 0.4096 0.9805 0.0
C302 C 0.93179 0.39718 0.98176 0.0
C303 C 0.94836 0.40059 0.97266 0.0
C304 C 0.97921 0.43188 0.95208 0.0
C305 C 0.99801 0.42692 0.94619 0.0
C306 C 0.01359 0.44128 0.94622 0.0
C307 C 0.01092 0.46096 0.95245 0.0
C308 C 0.99208 0.46592 0.95849 0.0
C309 C 0.97632 0.45164 0.95818 0.0
H310 H 0.54685 0.41842 0.18822 0.0
N311 N 0.55576 0.45698 0.19879 0.0
H312 H 0.55578 0.4046 0.16426 0.0
H313 H 0.5738 0.47678 0.17683 0.0
H314 H 0.58269 0.46303 0.15257 0.0
H315 H 0.59346 0.4531 0.20753 0.0
H316 H 0.6076 0.42557 0.22256 0.0
H317 H 0.5339 0.43003 0.21622 0.0
H318 H 0.54779 0.40319 0.23171 0.0
H319 H 0.51878 0.43992 0.19301 0.0
H320 H 0.54852 0.49524 0.20779 0.0
H321 H 0.48663 0.45748 0.19392 0.0
H322 H 0.51622 0.51328 0.20834 0.0
H323 H 0.38864 0.52727 0.18342 0.0
H324 H 0.3786 0.54266 0.15996 0.0
H325 H 0.43841 0.56723 0.15454 0.0
H326 H 0.44825 0.55193 0.17796 0.0
H327 H 0.44426 0.56734 0.20126 0.0
H328 H 0.43328 0.59657 0.21595 0.0
H329 H 0.38295 0.56078 0.23175 0.0
H330 H 0.39372 0.53173 0.21641 0.0
H331 H 0.43778 0.50185 0.17895 0.0
H332 H 0.46945 0.48345 0.18024 0.0
H333 H 0.48391 0.5152 0.22057 0.0
N334 N 0.42372 0.53117 0.19713 0.0
H335 H 0.4526 0.53393 0.21922 0.0
C336 C 0.5597 0.44874 0.18434 0.0
C337 C 0.55445 0.42839 0.18049 0.0
C338 C 0.5595 0.4205 0.16673 0.0
C339 C 0.56995 0.43272 0.15652 0.0
C340 C 0.57482 0.45317 0.16027 0.0
C341 C 0.56969 0.46109 0.17405 0.0
C342 C 0.56268 0.4437 0.21051 0.0
C343 C 0.58339 0.44256 0.2131 0.0
C344 C 0.59144 0.4268 0.22175 0.0
C345 C 0.57886 0.41189 0.22817 0.0
C346 C 0.55796 0.41409 0.22661 0.0
C347 C 0.54994 0.42969 0.21779 0.0
C348 C 0.53621 0.46631 0.20036 0.0
C349 C 0.51845 0.45584 0.19651 0.0
C350 C 0.49999 0.46598 0.19694 0.0
C351 C 0.49884 0.48686 0.20106 0.0
C352 C 0.51653 0.49714 0.20525 0.0
C353 C 0.535 0.48691 0.20491 0.0
C354 C 0.41909 0.53845 0.18248 0.0
C355 C 0.39962 0.53572 0.17703 0.0
C356 C 0.39395 0.54449 0.16364 0.0
C357 C 0.40769 0.55628 0.15544 0.0
C358 C 0.4274 0.55851 0.1607 0.0
C359 C 0.43306 0.5497 0.17408 0.0
C360 C 0.41966 0.54735 0.20765 0.0
C361 C 0.43097 0.56569 0.20797 0.0
C362 C 0.42477 0.58235 0.21654 0.0
C363 C 0.40715 0.58108 0.22499 0.0
C364 C 0.39643 0.56237 0.22521 0.0
C365 C 0.40263 0.54571 0.21658 0.0
C366 C 0.44289 0.52046 0.19839 0.0
C367 C 0.44786 0.50524 0.18796 0.0
C368 C 0.46593 0.49445 0.18882 0.0
C369 C 0.47938 0.49805 0.20041 0.0
C370 C 0.47414 0.5125 0.21126 0.0
C371 C 0.45607 0.52338 0.21038 0.0
H372 H 0.3862 0.97941 0.42976 0.0
N373 N 0.41824 0.97632 0.44683 0.0
H374 H 0.37954 0.96099 0.40679 0.0
H375 H 0.44462 0.95119 0.43229 0.0
H376 H 0.43808 0.93259 0.40936 0.0
H377 H 0.43198 0.93824 0.45534 0.0
H378 H 0.41649 0.91593 0.47378 0.0
H379 H 0.39046 0.98687 0.46623 0.0
H380 H 0.37497 0.96471 0.48481 0.0
H381 H 0.41854 0.01614 0.44073 0.0
H382 H 0.45612 0.96679 0.45647 0.0
H383 H 0.44667 0.04012 0.44243 0.0
H384 H 0.48431 0.9908 0.45873 0.0
H385 H 0.52005 0.10529 0.42794 0.0
H386 H 0.53601 0.11283 0.40437 0.0
H387 H 0.57617 0.06118 0.41083 0.0
H388 H 0.56094 0.05464 0.43462 0.0
H389 H 0.55726 0.05075 0.46107 0.0
H390 H 0.58534 0.06102 0.47679 0.0
H391 H 0.56435 0.12409 0.47582 0.0
H392 H 0.53659 0.11372 0.45986 0.0
H393 H 0.49433 0.08315 0.45775 0.0
H394 H 0.46717 0.05792 0.4596 0.0
H395 H 0.50723 0.01036 0.44381 0.0
N396 N 0.53102 0.07722 0.44758 0.0
H397 H 0.53438 0.03543 0.44269 0.0
C398 C 0.41578 0.96663 0.43272 0.0
C399 C 0.39766 0.96942 0.42522 0.0
C400 C 0.39394 0.95895 0.41211 0.0
C401 C 0.40829 0.94531 0.4063 0.0
C402 C 0.42668 0.94285 0.41367 0.0
C403 C 0.43046 0.95351 0.42674 0.0
C404 C 0.41213 0.96419 0.45929 0.0
C405 C 0.41982 0.9443 0.4619 0.0
C406 C 0.41095 0.93154 0.47243 0.0
C407 C 0.39444 0.93853 0.48065 0.0
C408 C 0.38778 0.95894 0.47875 0.0
C409 C 0.39653 0.9716 0.46812 0.0
C410 C 0.43518 0.98983 0.44853 0.0
C411 C 0.43287 0.01059 0.44473 0.0
C412 C 0.44894 0.02427 0.44583 0.0
C413 C 0.46776 0.01746 0.45087 0.0
C414 C 0.47008 0.99654 0.45472 0.0
C415 C 0.45393 0.9828 0.45352 0.0
C416 C 0.5391 0.07936 0.43299 0.0
C417 C 0.53211 0.09546 0.42411 0.0
C418 C 0.54121 0.09965 0.41062 0.0
C419 C 0.55747 0.08765 0.40567 0.0
C420 C 0.56393 0.07096 0.41437 0.0
C421 C 0.55498 0.06698 0.42794 0.0
C422 C 0.54495 0.08159 0.45922 0.0
C423 C 0.55845 0.06668 0.4645 0.0
C424 C 0.57446 0.07257 0.47353 0.0
C425 C 0.57719 0.09342 0.47735 0.0
C426 C 0.56282 0.10797 0.47286 0.0
C427 C 0.54688 0.10208 0.46388 0.0
C428 C 0.51625 0.06135 0.44989 0.0
C429 C 0.49726 0.0672 0.45492 0.0
C430 C 0.48175 0.05278 0.45583 0.0
C431 C 0.4849 0.03215 0.45159 0.0
C432 C 0.50426 0.02608 0.44721 0.0
C433 C 0.51984 0.04052 0.44644 0.0
H434 H 0.02177 0.89055 0.6785 0.0
N435 N 0.02712 0.92251 0.6962 0.0
H436 H 0.0376 0.88438 0.65466 0.0
H437 H 0.05076 0.94984 0.68121 0.0
H438 H 0.06721 0.94362 0.65762 0.0
H439 H 0.06399 0.93725 0.70427 0.0
H440 H 0.08774 0.91971 0.72052 0.0
H441 H 0.01916 0.8914 0.71413 0.0
H442 H 0.04272 0.87379 0.73044 0.0
H443 H 0.98771 0.92081 0.69393 0.0
H444 H 0.03626 0.96204 0.70453 0.0
H445 H 0.96365 0.94885 0.69715 0.0
H446 H 0.01225 0.99031 0.70806 0.0
H447 H 0.89728 0.01587 0.68363 0.0
H448 H 0.88711 0.02671 0.65892 0.0
H449 H 0.93212 0.0747 0.65984 0.0
H450 H 0.94182 0.06411 0.68445 0.0
H451 H 0.95072 0.06351 0.70989 0.0
H452 H 0.94173 0.09435 0.72379 0.0
H453 H 0.88199 0.06996 0.73023 0.0
H454 H 0.89094 0.03962 0.71568 0.0
H455 H 0.92258 0.99713 0.71416 0.0
H456 H 0.94868 0.97066 0.71548 0.0
H457 H 0.98982 0.01173 0.69326 0.0
N458 N 0.92454 0.03339 0.70089 0.0
H459 H 0.96389 0.03824 0.69247 0.0
C460 C 0.03513 0.92053 0.68161 0.0
C461 C 0.03145 0.90228 0.67385 0.0
C462 C 0.04066 0.89874 0.66033 0.0
C463 C 0.05389 0.9134 0.65432 0.0
C464 C 0.05702 0.93207 0.66189 0.0
C465 C 0.0477 0.93561 0.67543 0.0
C466 C 0.03984 0.91542 0.70791 0.0
C467 C 0.05907 0.92372 0.71022 0.0
C468 C 0.07267 0.91364 0.71947 0.0
C469 C 0.06716 0.89527 0.72666 0.0
C470 C 0.04739 0.888 0.72519 0.0
C471 C 0.0339 0.89799 0.71586 0.0
C472 C 0.01364 0.93934 0.69899 0.0
C473 C 0.99309 0.93593 0.69713 0.0
C474 C 0.9794 0.95195 0.69908 0.0
C475 C 0.986 0.97182 0.70298 0.0
C476 C 0.0067 0.97521 0.70498 0.0
C477 C 0.02043 0.95907 0.70301 0.0
C478 C 0.92021 0.03913 0.68592 0.0
C479 C 0.90504 0.02858 0.67838 0.0
C480 C 0.89933 0.03475 0.66428 0.0
C481 C 0.90874 0.05166 0.65746 0.0
C482 C 0.92437 0.06183 0.66488 0.0
C483 C 0.93005 0.05565 0.67896 0.0
C484 C 0.92133 0.04941 0.71157 0.0
C485 C 0.9358 0.06465 0.71447 0.0
C486 C 0.93065 0.08226 0.72253 0.0
C487 C 0.911 0.08483 0.72792 0.0
C488 C 0.8971 0.06874 0.72594 0.0
C489 C 0.90221 0.05129 0.71778 0.0
C490 C 0.94112 0.0195 0.70309 0.0
C491 C 0.93736 0.0005 0.70984 0.0
C492 C 0.95224 0.98538 0.71046 0.0
C493 C 0.97125 0.98895 0.70424 0.0
C494 C 0.97538 0.00849 0.69821 0.0
C495 C 0.96047 0.02367 0.69766 0.0
C496 C 0.26856 0.66943 0.01527 0.0
O497 O 0.27743 0.67172 0.02806 0.0
O498 O 0.31949 0.66215 0.02326 0.0
Zn499 Zn 0.30891 0.67475 0.00456 0.0
O500 O 0.32225 0.66056 0.98735 0.0
C501 C 0.31138 0.7181 0.01358 0.0
O502 O 0.30132 0.71216 0.02525 0.0
O503 O 0.27901 0.67048 0.00361 0.0
C504 C 0.33801 0.66833 0.98174 0.0
O505 O 0.34523 0.68556 0.98721 0.0
C506 C 0.33784 0.66345 0.02691 0.0
O507 O 0.3503 0.67368 0.01842 0.0
O508 O 0.31563 0.70497 0.00371 0.0
C509 C 0.28644 0.84498 0.24525 0.0
O510 O 0.2995 0.85804 0.23974 0.0
O511 O 0.33645 0.83542 0.23497 0.0
Zn512 Zn 0.32253 0.82366 0.25282 0.0
O513 O 0.33289 0.83786 0.27104 0.0
C514 C 0.34617 0.787 0.25493 0.0
O515 O 0.36063 0.80072 0.25592 0.0
O516 O 0.29278 0.8286 0.25136 0.0
C517 C 0.33596 0.82872 0.28319 0.0
O518 O 0.33191 0.80894 0.28434 0.0
C519 C 0.35241 0.84606 0.2361 0.0
O520 O 0.36003 0.84949 0.24917 0.0
O521 O 0.32816 0.7932 0.25366 0.0
C522 C 0.22042 0.83399 0.51959 0.0
O523 O 0.20987 0.83435 0.53177 0.0
O524 O 0.16771 0.83457 0.52391 0.0
Zn525 Zn 0.1821 0.82413 0.50596 0.0
O526 O 0.17131 0.83928 0.48836 0.0
C527 C 0.17983 0.78173 0.51459 0.0
O528 O 0.18747 0.78933 0.52674 0.0
O529 O 0.21177 0.82962 0.50754 0.0
C530 C 0.15495 0.83394 0.4823 0.0
O531 O 0.14512 0.81792 0.48746 0.0
C532 C 0.16375 0.85364 0.52541 0.0
O533 O 0.16941 0.86664 0.51514 0.0
O534 O 0.17663 0.79376 0.50383 0.0
C535 C 0.21453 0.64904 0.74907 0.0
O536 O 0.20148 0.63625 0.74322 0.0
O537 O 0.16616 0.6609 0.73666 0.0
Zn538 Zn 0.1784 0.67047 0.75564 0.0
O539 O 0.16657 0.6539 0.77217 0.0
C540 C 0.17715 0.71409 0.74949 0.0
O541 O 0.1877 0.70851 0.73797 0.0
O542 O 0.20822 0.66554 0.75505 0.0
C543 C 0.17566 0.65267 0.7844 0.0
O544 O 0.19277 0.66246 0.78608 0.0
C545 C 0.14725 0.65997 0.73511 0.0
O546 O 0.13564 0.66586 0.74599 0.0
O547 O 0.17188 0.70045 0.75874 0.0
C548 C 0.77428 0.15726 0.51707 0.0
O549 O 0.78447 0.15187 0.5288 0.0
O550 O 0.82631 0.15666 0.52384 0.0
Zn551 Zn 0.81344 0.16988 0.50618 0.0
O552 O 0.82508 0.15712 0.48798 0.0
C553 C 0.81715 0.21239 0.51615 0.0
O554 O 0.8075 0.2057 0.5278 0.0
O555 O 0.78341 0.16562 0.50634 0.0
C556 C 0.84406 0.15674 0.48671 0.0
O557 O 0.85512 0.16426 0.4974 0.0
C558 C 0.82893 0.13723 0.5243 0.0
O559 O 0.82295 0.12589 0.51317 0.0
O560 O 0.8207 0.19996 0.50568 0.0
C561 C 0.78039 0.33469 0.74124 0.0
O562 O 0.79059 0.33727 0.72903 0.0
O563 O 0.83216 0.33876 0.73552 0.0
Zn564 Zn 0.81967 0.3253 0.75328 0.0
O565 O 0.83031 0.3393 0.7714 0.0
C566 C 0.84504 0.29027 0.75751 0.0
O567 O 0.85754 0.30493 0.76148 0.0
O568 O 0.78958 0.32899 0.75279 0.0
C569 C 0.82922 0.33098 0.78401 0.0
O570 O 0.82054 0.31287 0.78537 0.0
C571 C 0.84913 0.34767 0.73613 0.0
O572 O 0.85891 0.3481 0.74865 0.0
O573 O 0.82738 0.29518 0.75353 0.0
C574 C 0.71242 0.3523 0.00895 0.0
O575 O 0.69872 0.36581 0.01286 0.0
O576 O 0.6649 0.33987 0.02275 0.0
Zn577 Zn 0.67709 0.32919 0.00409 0.0
O578 O 0.66511 0.34479 0.98712 0.0
C579 C 0.67277 0.28659 0.01271 0.0
O580 O 0.67982 0.29356 0.02524 0.0
O581 O 0.70683 0.33455 0.00462 0.0
C582 C 0.65033 0.33773 0.97987 0.0
O583 O 0.64271 0.31973 0.98347 0.0
C584 C 0.64671 0.33643 0.02612 0.0
O585 O 0.63555 0.32526 0.01729 0.0
O586 O 0.67095 0.29894 0.00197 0.0
C587 C 0.71474 0.15021 0.25206 0.0
O588 O 0.70073 0.13601 0.25109 0.0
O589 O 0.66842 0.161 0.23455 0.0
Zn590 Zn 0.67989 0.17464 0.25258 0.0
O591 O 0.66744 0.16191 0.27065 0.0
C592 C 0.65592 0.21075 0.25005 0.0
O593 O 0.64217 0.19644 0.24828 0.0
O594 O 0.70954 0.16905 0.25291 0.0
C595 C 0.66148 0.17263 0.28149 0.0
O596 O 0.6638 0.19275 0.28122 0.0
C597 C 0.6516 0.15175 0.23464 0.0
O598 O 0.64105 0.15117 0.24682 0.0
O599 O 0.67404 0.20526 0.25199 0.0
H600 H 0.1501 0.95291 0.28351 0.0
H601 H 0.17509 0.92983 0.27325 0.0
H602 H 0.12859 0.88778 0.25958 0.0
H603 H 0.10304 0.91136 0.26945 0.0
H604 H 0.17812 0.88719 0.28358 0.0
H605 H 0.16787 0.89467 0.22304 0.0
H606 H 0.1598 0.9147 0.23552 0.0
H607 H 0.14624 0.89086 0.23463 0.0
C608 C 0.14498 0.93912 0.27793 0.0
C609 C 0.12446 0.93413 0.27722 0.0
C610 C 0.15937 0.92582 0.2722 0.0
C611 C 0.15367 0.90717 0.26566 0.0
C612 C 0.13324 0.90222 0.26451 0.0
H613 H 0.25526 0.82152 0.25565 0.0
H614 H 0.22032 0.83228 0.2589 0.0
C615 C 0.1187 0.91564 0.27024 0.0
C616 C 0.16953 0.89256 0.26114 0.0
H617 H 0.19596 0.87596 0.23131 0.0
C618 C 0.18185 0.88433 0.27216 0.0
C619 C 0.17426 0.88902 0.24624 0.0
C620 C 0.16146 0.89776 0.23409 0.0
C621 C 0.19949 0.87364 0.2687 0.0
C622 C 0.20472 0.87078 0.25378 0.0
C623 C 0.19183 0.8781 0.24273 0.0
C624 C 0.22469 0.86268 0.24959 0.0
C625 C 0.21305 0.86678 0.28107 0.0
C626 C 0.23843 0.87582 0.24262 0.0
C627 C 0.25832 0.8697 0.24064 0.0
C628 C 0.26485 0.8503 0.24565 0.0
C629 C 0.25076 0.83667 0.25184 0.0
C630 C 0.2308 0.84278 0.25373 0.0
H631 H 0.20851 0.87348 0.2918 0.0
H632 H 0.21243 0.84972 0.28205 0.0
H633 H 0.22883 0.87126 0.27884 0.0
H634 H 0.234 0.89123 0.23932 0.0
H635 H 0.26873 0.88051 0.23572 0.0
H636 H 0.07412 0.61667 0.51851 0.0
H637 H 0.09037 0.64886 0.51098 0.0
H638 H 0.14749 0.62508 0.52542 0.0
H639 H 0.13138 0.59292 0.53295 0.0
H640 H 0.10894 0.67372 0.53105 0.0
H641 H 0.1623 0.65304 0.48674 0.0
H642 H 0.14181 0.63642 0.49213 0.0
H643 H 0.16455 0.63702 0.50275 0.0
C644 C 0.09021 0.61817 0.5198 0.0
C645 C 0.10145 0.6023 0.52637 0.0
C646 C 0.09948 0.63652 0.51546 0.0
C647 C 0.12016 0.63931 0.51754 0.0
C648 C 0.1316 0.6231 0.5234 0.0
H649 H 0.18199 0.75274 0.53634 0.0
H650 H 0.16818 0.71779 0.53604 0.0
C651 C 0.12235 0.60471 0.52772 0.0
C652 C 0.12924 0.65998 0.51544 0.0
H653 H 0.16733 0.68587 0.49837 0.0
C654 C 0.12157 0.6764 0.52378 0.0
C655 C 0.14568 0.66347 0.50593 0.0
C656 C 0.15397 0.6466 0.49627 0.0
C657 C 0.13021 0.69609 0.52316 0.0
C658 C 0.14714 0.69938 0.51412 0.0
C659 C 0.15449 0.68317 0.50543 0.0
C660 C 0.15732 0.71965 0.51369 0.0
C661 C 0.12116 0.71326 0.5322 0.0
C662 C 0.15633 0.73195 0.50105 0.0
C663 C 0.1642 0.75197 0.50117 0.0
C664 C 0.17327 0.75992 0.51394 0.0
C665 C 0.175 0.74715 0.52636 0.0
C666 C 0.16709 0.72719 0.52623 0.0
H667 H 0.10572 0.70945 0.53591 0.0
H668 H 0.13056 0.71586 0.54209 0.0
H669 H 0.12069 0.72788 0.52585 0.0
H670 H 0.14888 0.72633 0.49126 0.0
H671 H 0.16271 0.76136 0.49139 0.0
H672 H 0.3935 0.57076 0.76194 0.0
H673 H 0.36055 0.58028 0.75205 0.0
H674 H 0.36105 0.63583 0.7781 0.0
H675 H 0.39351 0.62634 0.78824 0.0
H676 H 0.32589 0.58657 0.76947 0.0
H677 H 0.34424 0.65662 0.73723 0.0
H678 H 0.36299 0.63799 0.74267 0.0
H679 H 0.35424 0.65702 0.75554 0.0
C680 C 0.38665 0.58507 0.76548 0.0
C681 C 0.39626 0.59783 0.77583 0.0
C682 C 0.36789 0.59053 0.75976 0.0
C683 C 0.35855 0.60893 0.76416 0.0
C684 C 0.36824 0.62184 0.77426 0.0
H685 H 0.24493 0.66959 0.76302 0.0
H686 H 0.28007 0.65906 0.76504 0.0
C687 C 0.38687 0.61638 0.78003 0.0
C688 C 0.33791 0.61391 0.75932 0.0
H689 H 0.30965 0.65192 0.74365 0.0
C690 C 0.32232 0.60067 0.76359 0.0
C691 C 0.33336 0.63237 0.75175 0.0
C692 C 0.34961 0.64674 0.7464 0.0
C693 C 0.30217 0.60589 0.76112 0.0
C694 C 0.29758 0.62465 0.7539 0.0
C695 C 0.31322 0.63758 0.74921 0.0
C696 C 0.2766 0.63157 0.75178 0.0
C697 C 0.28598 0.59174 0.76688 0.0
C698 C 0.26315 0.61986 0.74337 0.0
C699 C 0.24304 0.62576 0.74227 0.0
C700 C 0.23609 0.64361 0.74944 0.0
C701 C 0.24979 0.65573 0.7574 0.0
C702 C 0.26988 0.64976 0.75855 0.0
H703 H 0.29191 0.58052 0.77502 0.0
H704 H 0.27372 0.60073 0.7721 0.0
H705 H 0.27947 0.58287 0.75761 0.0
H706 H 0.26814 0.60601 0.73781 0.0
H707 H 0.23292 0.61619 0.73593 0.0
H708 H 0.39657 0.88333 0.04704 0.0
H709 H 0.37258 0.85716 0.03914 0.0
H710 H 0.40583 0.84862 0.99896 0.0
H711 H 0.43018 0.8747 0.00693 0.0
H712 H 0.34776 0.84983 0.01515 0.0
H713 H 0.40956 0.79231 0.01862 0.0
H714 H 0.41221 0.81834 0.02533 0.0
H715 H 0.41385 0.8131 0.00597 0.0
C716 C 0.3985 0.87632 0.03634 0.0
C717 C 0.41538 0.88091 0.02766 0.0
C718 C 0.38479 0.8613 0.03186 0.0
C719 C 0.38768 0.85065 0.01863 0.0
C720 C 0.40361 0.85635 0.00938 0.0
H721 H 0.33382 0.73445 0.99135 0.0
H722 H 0.35013 0.76816 0.99067 0.0
C723 C 0.41746 0.87125 0.01392 0.0
C724 C 0.37521 0.83229 0.01536 0.0
H725 H 0.37772 0.77986 0.01222 0.0
C726 C 0.3543 0.83454 0.01437 0.0
C727 C 0.38379 0.81233 0.0145 0.0
C728 C 0.40605 0.80875 0.01628 0.0
C729 C 0.34171 0.81731 0.01262 0.0
C730 C 0.35031 0.79739 0.012 0.0
C731 C 0.37122 0.7952 0.01263 0.0
C732 C 0.33804 0.77837 0.01148 0.0
C733 C 0.31936 0.82051 0.01151 0.0
C734 C 0.32565 0.77303 0.02335 0.0
C735 C 0.31633 0.7537 0.02382 0.0
C736 C 0.31936 0.73935 0.01245 0.0
C737 C 0.3312 0.74509 0.00032 0.0
C738 C 0.34051 0.76437 -0.00012 0.0
H739 H 0.31562 0.83658 0.00824 0.0
H740 H 0.31261 0.80968 0.00345 0.0
H741 H 0.31242 0.81751 0.02238 0.0
H742 H 0.32387 0.78346 0.03256 0.0
H743 H 0.30732 0.74976 0.03332 0.0
H744 H 0.10571 0.56504 0.00864 0.0
H745 H 0.12972 0.58905 0.01975 0.0
H746 H 0.1328 0.62288 0.97898 0.0
H747 H 0.10856 0.59937 0.96804 0.0
H748 H 0.1666 0.5912 0.01049 0.0
H749 H 0.13541 0.66984 0.00704 0.0
H750 H 0.11996 0.64716 0.00484 0.0
H751 H 0.13388 0.65744 0.9895 0.0
C752 C 0.11107 0.57801 0.00224 0.0
C753 C 0.10528 0.58035 0.98749 0.0
C754 C 0.12475 0.59172 0.00858 0.0
C755 C 0.13297 0.60793 0.00026 0.0
C756 C 0.1263 0.61093 0.98579 0.0
H757 H 0.2451 0.666 0.99076 0.0
H758 H 0.21058 0.6533 0.98939 0.0
C759 C 0.11245 0.59739 0.97951 0.0
C760 C 0.15075 0.61942 0.0057 0.0
H761 H 0.172 0.6674 0.00694 0.0
C762 C 0.16757 0.6079 0.01009 0.0
C763 C 0.15211 0.64123 0.00513 0.0
C764 C 0.13427 0.6546 0.00152 0.0
C765 C 0.18598 0.61746 0.01306 0.0
C766 C 0.18761 0.63909 0.01164 0.0
C767 C 0.17066 0.65077 0.00791 0.0
C768 C 0.20729 0.6494 0.01285 0.0
C769 C 0.20389 0.6043 0.01698 0.0
C770 C 0.21661 0.65179 0.02654 0.0
C771 C 0.23632 0.65905 0.02738 0.0
C772 C 0.24705 0.6639 0.01452 0.0
C773 C 0.23731 0.66227 0.00086 0.0
C774 C 0.21757 0.65513 5e-05 0.0
H775 H 0.20049 0.58753 0.01644 0.0
H776 H 0.21656 0.60769 0.00944 0.0
H777 H 0.20888 0.60804 0.0283 0.0
H778 H 0.20884 0.64741 0.03652 0.0
H779 H 0.24336 0.66019 0.03807 0.0
H780 H 0.42804 0.6111 0.2398 0.0
H781 H 0.41532 0.6444 0.24825 0.0
H782 H 0.35539 0.6267 0.2356 0.0
H783 H 0.36809 0.5938 0.22648 0.0
H784 H 0.36644 0.66312 0.22382 0.0
H785 H 0.3833 0.66376 0.28337 0.0
H786 H 0.4048 0.65763 0.27235 0.0
H787 H 0.38364 0.64038 0.27257 0.0
C788 C 0.41211 0.61421 0.23895 0.0
C789 C 0.39911 0.5998 0.23238 0.0
C790 C 0.40483 0.63315 0.24398 0.0
C791 C 0.38437 0.63795 0.24271 0.0
C792 C 0.37122 0.62325 0.23677 0.0
H793 H 0.32 0.75474 0.25189 0.0
H794 H 0.32814 0.718 0.25008 0.0
C795 C 0.3785 0.60436 0.23167 0.0
C796 C 0.37711 0.65908 0.24596 0.0
H797 H 0.376 0.69657 0.27232 0.0
C798 C 0.36826 0.67033 0.23449 0.0
C799 C 0.37962 0.66848 0.25986 0.0
C800 C 0.38818 0.65687 0.27278 0.0
C801 C 0.36242 0.69093 0.23638 0.0
C802 C 0.36529 0.70045 0.25019 0.0
C803 C 0.37385 0.68917 0.26175 0.0
C804 C 0.36013 0.72239 0.25257 0.0
C805 C 0.35386 0.70258 0.22346 0.0
C806 C 0.37539 0.73688 0.25498 0.0
C807 C 0.37081 0.75787 0.25603 0.0
C808 C 0.35086 0.76469 0.25474 0.0
C809 C 0.33553 0.75001 0.25283 0.0
C810 C 0.34014 0.72903 0.25176 0.0
H811 H 0.35636 0.69432 0.21292 0.0
H812 H 0.33745 0.70448 0.225 0.0
H813 H 0.36064 0.7182 0.22265 0.0
H814 H 0.39091 0.732 0.25565 0.0
H815 H 0.38296 0.76876 0.25758 0.0
H816 H 0.37922 0.94463 0.50829 0.0
H817 H 0.35457 0.92301 0.52104 0.0
H818 H 0.35715 0.87884 0.48562 0.0
H819 H 0.38199 0.90003 0.47311 0.0
H820 H 0.31881 0.91611 0.51053 0.0
H821 H 0.35394 0.84014 0.5195 0.0
H822 H 0.36849 0.86279 0.51499 0.0
H823 H 0.35676 0.84775 0.5007 0.0
C824 C 0.37489 0.93002 0.50346 0.0
C825 C 0.38253 0.92399 0.48973 0.0
C826 C 0.36085 0.91767 0.51075 0.0
C827 C 0.35415 0.89913 0.5044 0.0
C828 C 0.36248 0.89269 0.491 0.0
H829 H 0.24722 0.83182 0.49695 0.0
H830 H 0.2811 0.84622 0.49611 0.0
C831 C 0.37666 0.9049 0.4838 0.0
C832 C 0.33641 0.8882 0.51047 0.0
H833 H 0.31741 0.84014 0.51723 0.0
C834 C 0.31866 0.89957 0.51238 0.0
C835 C 0.33616 0.8666 0.51287 0.0
C836 C 0.35495 0.8537 0.51205 0.0
C837 C 0.30046 0.8898 0.5157 0.0
C838 C 0.30001 0.86811 0.51718 0.0
C839 C 0.31785 0.85678 0.51598 0.0
C840 C 0.28076 0.85699 0.51858 0.0
C841 C 0.28158 0.90258 0.5168 0.0
C842 C 0.26963 0.8579 0.53163 0.0
C843 C 0.25025 0.84965 0.53216 0.0
C844 C 0.24169 0.84052 0.51961 0.0
C845 C 0.2533 0.83888 0.50677 0.0
C846 C 0.27269 0.847 0.50628 0.0
H847 H 0.28422 0.91907 0.51406 0.0
H848 H 0.26991 0.89637 0.5093 0.0
H849 H 0.27561 0.9017 0.52816 0.0
H850 H 0.27569 0.86555 0.54123 0.0
H851 H 0.24173 0.85111 0.54224 0.0
H852 H 0.06395 0.87444 0.75278 0.0
H853 H 0.08648 0.84752 0.76199 0.0
H854 H 0.12677 0.8588 0.72579 0.0
H855 H 0.10453 0.88574 0.71667 0.0
H856 H 0.09333 0.81342 0.74638 0.0
H857 H 0.16637 0.84999 0.75852 0.0
H858 H 0.14356 0.86476 0.75648 0.0
H859 H 0.15753 0.85669 0.74055 0.0
C860 C 0.07788 0.87152 0.74702 0.0
C861 C 0.08245 0.88217 0.73399 0.0
C862 C 0.09076 0.85619 0.75231 0.0
C863 C 0.10842 0.85125 0.74467 0.0
C864 C 0.11353 0.86266 0.73211 0.0
H865 H 0.18286 0.74633 0.73052 0.0
H866 H 0.1673 0.7805 0.73156 0.0
C867 C 0.10074 0.87807 0.72687 0.0
C868 C 0.11981 0.83228 0.7484 0.0
H869 H 0.16709 0.81327 0.75364 0.0
C870 C 0.1094 0.81344 0.74828 0.0
C871 C 0.1408 0.83229 0.75075 0.0
C872 C 0.15267 0.85206 0.75173 0.0
C873 C 0.11948 0.79458 0.74977 0.0
C874 C 0.14054 0.79455 0.75163 0.0
C875 C 0.15094 0.81337 0.75218 0.0
C876 C 0.15197 0.77498 0.75213 0.0
C877 C 0.10762 0.77478 0.74863 0.0
C878 C 0.14897 0.76084 0.76358 0.0
C879 C 0.15774 0.74127 0.76299 0.0
C880 C 0.16976 0.73555 0.75095 0.0
C881 C 0.1736 0.75019 0.73989 0.0
C882 C 0.16478 0.76975 0.74049 0.0
H883 H 0.09222 0.77742 0.74437 0.0
H884 H 0.11533 0.76358 0.74133 0.0
H885 H 0.10634 0.76768 0.75969 0.0
H886 H 0.13934 0.76473 0.77276 0.0
H887 H 0.15463 0.73044 0.77177 0.0
H888 H 0.61838 0.40316 0.79015 0.0
H889 H 0.64482 0.38198 0.77933 0.0
H890 H 0.64421 0.42014 0.7405 0.0
H891 H 0.61807 0.44183 0.75151 0.0
H892 H 0.65076 0.3591 0.75472 0.0
H893 H 0.70099 0.42764 0.75468 0.0
H894 H 0.67675 0.42783 0.76344 0.0
H895 H 0.67872 0.43065 0.74383 0.0
C896 C 0.62354 0.40676 0.77916 0.0
C897 C 0.61632 0.42426 0.77171 0.0
C898 C 0.6387 0.39467 0.773 0.0
C899 C 0.64684 0.39978 0.75926 0.0
C900 C 0.63854 0.41627 0.75129 0.0
H901 H 0.75816 0.35425 0.72018 0.0
H902 H 0.72409 0.36788 0.7226 0.0
C903 C 0.62355 0.42857 0.75754 0.0
C904 C 0.66507 0.38891 0.75399 0.0
H905 H 0.71459 0.39654 0.74601 0.0
C906 C 0.66468 0.3673 0.75269 0.0
C907 C 0.6833 0.39962 0.75148 0.0
C908 C 0.68511 0.42268 0.75355 0.0
C909 C 0.68207 0.35612 0.74911 0.0
C910 C 0.70025 0.36683 0.74682 0.0
C911 C 0.70054 0.38843 0.74768 0.0
C912 C 0.71957 0.35604 0.74456 0.0
C913 C 0.68097 0.33293 0.74795 0.0
C914 C 0.72819 0.34471 0.75607 0.0
C915 C 0.74772 0.33706 0.7548 0.0
C916 C 0.75895 0.34061 0.74196 0.0
C917 C 0.74993 0.35123 0.73021 0.0
C918 C 0.73046 0.35901 0.73155 0.0
H919 H 0.66528 0.32747 0.74656 0.0
H920 H 0.69012 0.3273 0.73858 0.0
H921 H 0.68707 0.32597 0.75815 0.0
H922 H 0.72013 0.34255 0.76629 0.0
H923 H 0.75422 0.32893 0.76404 0.0
H924 H 0.57546 0.12857 0.04191 0.0
H925 H 0.59022 0.16118 0.03418 0.0
H926 H 0.61957 0.13055 0.99805 0.0
H927 H 0.60453 0.09769 0.00559 0.0
H928 H 0.64549 0.15359 0.01553 0.0
H929 H 0.5793 0.20021 -0.00019 0.0
H930 H 0.57649 0.18822 0.01746 0.0
H931 H 0.57845 0.17241 0.00128 0.0
C932 C 0.5845 0.1288 0.03203 0.0
C933 C 0.58874 0.11048 0.02435 0.0
C934 C 0.59299 0.1475 0.02765 0.0
C935 C 0.60581 0.14832 0.01545 0.0
C936 C 0.60964 0.13023 0.00747 0.0
H937 H 0.6545 0.26841 0.98911 0.0
H938 H 0.6398 0.23385 0.98785 0.0
C939 C 0.60109 0.11148 0.01182 0.0
C940 C 0.61662 0.1677 0.01201 0.0
H941 H 0.60931 0.21907 0.00574 0.0
C942 C 0.63762 0.16786 0.01315 0.0
C943 C 0.60635 0.18624 0.00875 0.0
C944 C 0.58391 0.18677 0.0066 0.0
C945 C 0.64854 0.18629 0.01186 0.0
C946 C 0.63814 0.20503 0.00958 0.0
C947 C 0.61724 0.20471 0.00766 0.0
C948 C 0.64846 0.22527 0.00991 0.0
C949 C 0.6711 0.18557 0.01314 0.0
C950 C 0.65823 0.23186 0.02274 0.0
C951 C 0.66664 0.25158 0.02351 0.0
C952 C 0.66532 0.26513 0.01149 0.0
C953 C 0.65583 0.25834 0.99856 0.0
C954 C 0.64739 0.23861 0.99781 0.0
H955 H 0.67703 0.16999 0.01045 0.0
H956 H 0.67827 0.19706 0.00577 0.0
H957 H 0.67548 0.18919 0.02461 0.0
H958 H 0.65887 0.22195 0.03231 0.0
H959 H 0.67376 0.25635 0.03365 0.0
H960 H 0.90559 0.10459 0.25657 0.0
H961 H 0.8723 0.11624 0.24863 0.0
H962 H 0.84595 0.08863 0.28714 0.0
H963 H 0.87899 0.07763 0.29543 0.0
H964 H 0.83521 0.09513 0.24339 0.0
H965 H 0.8303 0.15012 0.28991 0.0
H966 H 0.85351 0.13792 0.28454 0.0
H967 H 0.83553 0.12409 0.2955 0.0
C968 C 0.89268 0.10092 0.26331 0.0
C969 C 0.89502 0.09029 0.2767 0.0
C970 C 0.87369 0.1075 0.25872 0.0
C971 C 0.85678 0.10363 0.26746 0.0
C972 C 0.85889 0.09206 0.28037 0.0
H973 H 0.73025 0.11124 0.25236 0.0
H974 H 0.7654 0.10117 0.25435 0.0
C975 C 0.87781 0.08554 0.28499 0.0
C976 C 0.837 0.11241 0.26354 0.0
H977 H 0.80008 0.14384 0.27668 0.0
C978 C 0.82756 0.10592 0.25057 0.0
C979 C 0.82728 0.12682 0.27279 0.0
C980 C 0.83724 0.13533 0.28639 0.0
C981 C 0.8082 0.11281 0.24693 0.0
C982 C 0.798 0.12625 0.25666 0.0
C983 C 0.80783 0.13339 0.2693 0.0
C984 C 0.77682 0.13244 0.25436 0.0
C985 C 0.79888 0.10565 0.23272 0.0
C986 C 0.77149 0.15341 0.25401 0.0
C987 C 0.75134 0.15924 0.25306 0.0
C988 C 0.73615 0.1442 0.25251 0.0
C989 C 0.74157 0.12322 0.2527 0.0
C990 C 0.7617 0.11742 0.2537 0.0
H991 H 0.81052 0.10118 0.22459 0.0
H992 H 0.78944 0.09188 0.23489 0.0
H993 H 0.78926 0.11783 0.22783 0.0
H994 H 0.78293 0.16526 0.25463 0.0
H995 H 0.74766 0.17553 0.25293 0.0
H996 H 0.9152 0.36645 0.55395 0.0
H997 H 0.89735 0.33546 0.54637 0.0
H998 H 0.88478 0.36303 0.50429 0.0
H999 H 0.90333 0.39412 0.51158 0.0
H1000 H 0.8503 0.34439 0.52086 0.0
H1001 H 0.91584 0.29225 0.51441 0.0
H1002 H 0.91567 0.30726 0.53102 0.0
H1003 H 0.91795 0.32004 0.51359 0.0
C1004 C 0.90911 0.36585 0.54293 0.0
C1005 C 0.91097 0.38276 0.53331 0.0
C1006 C 0.89877 0.34814 0.53867 0.0
C1007 C 0.88995 0.34693 0.52474 0.0
C1008 C 0.89159 0.36371 0.51508 0.0
H1009 H 0.84003 0.2298 0.49452 0.0
H1010 H 0.85616 0.26367 0.49472 0.0
C1011 C 0.90211 0.38146 0.51929 0.0
C1012 C 0.87853 0.32825 0.52064 0.0
H1013 H 0.88371 0.27629 0.51604 0.0
C1014 C 0.85757 0.32952 0.51958 0.0
C1015 C 0.88812 0.30897 0.51889 0.0
C1016 C 0.91065 0.30697 0.5194 0.0
C1017 C 0.84584 0.31175 0.51747 0.0
C1018 C 0.85539 0.2923 0.51651 0.0
C1019 C 0.87641 0.29121 0.51689 0.0
C1020 C 0.84393 0.27275 0.51575 0.0
C1021 C 0.82336 0.31389 0.51642 0.0
C1022 C 0.83161 0.26669 0.52748 0.0
C1023 C 0.82239 0.2473 0.52744 0.0
C1024 C 0.82541 0.2336 0.51568 0.0
C1025 C 0.83737 0.23996 0.50376 0.0
C1026 C 0.84661 0.25931 0.50384 0.0
H1027 H 0.8189 0.32982 0.51331 0.0
H1028 H 0.81707 0.30291 0.50827 0.0
H1029 H 0.81661 0.31038 0.52728 0.0
H1030 H 0.82965 0.27669 0.53691 0.0
H1031 H 0.81332 0.24287 0.5368 0.0
H1032 H 0.60039 0.12621 0.46976 0.0
H1033 H 0.63238 0.13675 0.48031 0.0
H1034 H 0.62866 0.08708 0.51177 0.0
H1035 H 0.59656 0.07619 0.50103 0.0
H1036 H 0.64304 0.14936 0.50765 0.0
H1037 H 0.6828 0.07669 0.49308 0.0
H1038 H 0.6582 0.0828 0.48608 0.0
H1039 H 0.66112 0.07344 0.50454 0.0
C1040 C 0.60622 0.11767 0.47905 0.0
C1041 C 0.59595 0.10038 0.48458 0.0
C1042 C 0.62456 0.12367 0.48504 0.0
C1043 C 0.63305 0.11255 0.4967 0.0
C1044 C 0.62259 0.09562 0.50256 0.0
H1045 H 0.75206 0.1327 0.53529 0.0
H1046 H 0.71696 0.12234 0.53228 0.0
C1047 C 0.60425 0.08946 0.49647 0.0
C1048 C 0.65308 0.11864 0.50231 0.0
H1049 H 0.70167 0.10233 0.50509 0.0
C1050 C 0.65583 0.13902 0.5072 0.0
C1051 C 0.66976 0.10513 0.50169 0.0
C1052 C 0.66796 0.08335 0.49596 0.0
C1053 C 0.67487 0.14638 0.51116 0.0
C1054 C 0.69155 0.13303 0.51018 0.0
C1055 C 0.68875 0.11247 0.50584 0.0
C1056 C 0.71224 0.14045 0.51264 0.0
C1057 C 0.67711 0.16844 0.51617 0.0
C1058 C 0.72111 0.15407 0.50257 0.0
C1059 C 0.74117 0.15989 0.50417 0.0
C1060 C 0.75269 0.15223 0.51591 0.0
C1061 C 0.74359 0.13894 0.52616 0.0
C1062 C 0.72356 0.13297 0.52446 0.0
H1063 H 0.66249 0.17527 0.51945 0.0
H1064 H 0.68766 0.16947 0.52559 0.0
H1065 H 0.68336 0.17781 0.50705 0.0
H1066 H 0.71264 0.15979 0.49327 0.0
H1067 H 0.74773 0.17015 0.49609 0.0
H1068 H 0.8755 0.10481 0.72332 0.0
H1069 H 0.86551 0.13884 0.73202 0.0
H1070 H 0.9217 0.14498 0.75504 0.0
H1071 H 0.93179 0.11057 0.74658 0.0
H1072 H 0.86251 0.15543 0.76143 0.0
H1073 H 0.91933 0.19541 0.72674 0.0
H1074 H 0.9124 0.16879 0.72381 0.0
H1075 H 0.92846 0.17561 0.73886 0.0
C1076 C 0.88561 0.11313 0.7305 0.0
C1077 C 0.90447 0.10489 0.73426 0.0
C1078 C 0.87989 0.13266 0.73539 0.0
C1079 C 0.89294 0.14447 0.74403 0.0
C1080 C 0.91154 0.13617 0.7482 0.0
H1081 H 0.88094 0.27477 0.76686 0.0
H1082 H 0.89264 0.23907 0.7655 0.0
C1083 C 0.91728 0.11655 0.74333 0.0
C1084 C 0.8872 0.16579 0.74809 0.0
H1085 H 0.89779 0.21627 0.74073 0.0
C1086 C 0.87029 0.16877 0.75702 0.0
C1087 C 0.89742 0.1831 0.7423 0.0
C1088 C 0.91534 0.18071 0.73231 0.0
C1089 C 0.86319 0.18867 0.76022 0.0
C1090 C 0.87302 0.20597 0.75404 0.0
C1091 C 0.89026 0.20298 0.74543 0.0
C1092 C 0.8653 0.22728 0.75583 0.0
C1093 C 0.84527 0.19097 0.77021 0.0
C1094 C 0.84604 0.23252 0.75081 0.0
C1095 C 0.83926 0.25291 0.75161 0.0
C1096 C 0.85173 0.26849 0.75729 0.0
C1097 C 0.87096 0.26316 0.76241 0.0
C1098 C 0.87768 0.24276 0.76165 0.0
H1099 H 0.84347 0.17731 0.77747 0.0
H1100 H 0.84657 0.20499 0.77715 0.0
H1101 H 0.8315 0.19235 0.76344 0.0
H1102 H 0.8364 0.22093 0.74594 0.0
H1103 H 0.82442 0.25652 0.74751 0.0
H1104 H 0.88751 0.43518 0.99409 0.0
H1105 H 0.85409 0.426 0.00318 0.0
H1106 H 0.86525 0.36213 0.99262 0.0
H1107 H 0.89853 0.37113 0.98358 0.0
H1108 H 0.82515 0.40943 0.98579 0.0
H1109 H 0.83939 0.35703 0.03268 0.0
H1110 H 0.85855 0.37367 0.02516 0.0
H1111 H 0.85272 0.34948 0.01643 0.0
C1112 C 0.88295 0.41914 0.99395 0.0
C1113 C 0.89568 0.40389 0.98813 0.0
C1114 C 0.8639 0.41391 0.99919 0.0
C1115 C 0.85726 0.39335 0.99875 0.0
C1116 C 0.87022 0.37801 0.99344 0.0
H1117 H 0.74464 0.32869 0.00073 0.0
H1118 H 0.77988 0.3393 -0.00049 0.0
C1119 C 0.88928 0.3832 0.98825 0.0
C1120 C 0.8361 0.38824 0.00217 0.0
H1121 H 0.80634 0.35576 0.02216 0.0
C1122 C 0.82102 0.39793 0.99391 0.0
C1123 C 0.83076 0.37312 0.01268 0.0
C1124 C 0.8462 0.36287 0.02235 0.0
C1125 C 0.8008 0.39242 0.99551 0.0
C1126 C 0.7955 0.377 0.00579 0.0
C1127 C 0.8105 0.36754 0.01425 0.0
C1128 C 0.77446 0.3702 0.00759 0.0
C1129 C 0.78533 0.40262 0.98581 0.0
C1130 C 0.75988 0.38394 0.01282 0.0
C1131 C 0.73977 0.37797 0.0135 0.0
C1132 C 0.73389 0.3581 0.009 0.0
C1133 C 0.74866 0.34414 0.0042 0.0
C1134 C 0.76879 0.35014 0.00354 0.0
H1135 H 0.79231 0.41087 0.97641 0.0
H1136 H 0.77457 0.39105 0.98146 0.0
H1137 H 0.77674 0.41403 0.99237 0.0
H1138 H 0.76404 0.3994 0.01619 0.0
H1139 H 0.72882 0.38906 0.01736 0.0
H1140 H 0.61284 0.40827 0.24528 0.0
H1141 H 0.62916 0.37626 0.25329 0.0
H1142 H 0.58097 0.34078 0.23437 0.0
H1143 H 0.56491 0.37236 0.22593 0.0
H1144 H 0.59554 0.32877 0.26467 0.0
H1145 H 0.65468 0.33556 0.22159 0.0
H1146 H 0.64974 0.35741 0.23327 0.0
H1147 H 0.6312 0.34932 0.22022 0.0
C1148 C 0.60567 0.39366 0.24287 0.0
C1149 C 0.58755 0.39296 0.23491 0.0
C1150 C 0.61499 0.37543 0.2475 0.0
C1151 C 0.60629 0.35624 0.24431 0.0
C1152 C 0.58785 0.35549 0.23697 0.0
H1153 H 0.61885 0.22692 0.24504 0.0
H1154 H 0.60882 0.26306 0.24573 0.0
C1155 C 0.57861 0.37363 0.23225 0.0
C1156 C 0.61673 0.33671 0.24776 0.0
H1157 H 0.65327 0.30459 0.23487 0.0
C1158 C 0.60837 0.32356 0.25834 0.0
C1159 C 0.63352 0.33011 0.23953 0.0
C1160 C 0.64288 0.34371 0.22795 0.0
C1161 C 0.61594 0.3036 0.26055 0.0
C1162 C 0.63192 0.29648 0.25166 0.0
C1163 C 0.64096 0.31005 0.24162 0.0
C1164 C 0.63823 0.27454 0.25163 0.0
C1165 C 0.60654 0.29023 0.27225 0.0
C1166 C 0.65829 0.26902 0.25422 0.0
C1167 C 0.66416 0.24828 0.25366 0.0
C1168 C 0.65006 0.23277 0.25042 0.0
C1169 C 0.63006 0.23844 0.24767 0.0
C1170 C 0.62424 0.2591 0.2482 0.0
H1171 H 0.59981 0.29975 0.28112 0.0
H1172 H 0.59435 0.2809 0.26728 0.0
H1173 H 0.6177 0.27956 0.27719 0.0
H1174 H 0.66936 0.28074 0.25672 0.0
H1175 H 0.67969 0.24442 0.25581 0.0
H1176 H 0.07739 0.91409 0.36523 0.0
H1177 H 0.08555 0.89394 0.3871 0.0
H1178 H 0.11994 0.94501 0.40412 0.0
H1179 H 0.11096 0.96566 0.3827 0.0
H1180 H 0.12201 0.88182 0.39599 0.0
H1181 H 0.08747 0.92953 0.43965 0.0
H1182 H 0.08197 0.93333 0.42043 0.0
H1183 H 0.1044 0.94407 0.42837 0.0
C1184 C 0.08626 0.92125 0.37379 0.0
C1185 C 0.09345 0.94156 0.3722 0.0
C1186 C 0.09106 0.90963 0.38624 0.0
C1187 C 0.10312 0.91805 0.39735 0.0
C1188 C 0.11022 0.93833 0.39586 0.0
H1189 H 0.16868 0.87068 0.4715 0.0
H1190 H 0.15522 0.89049 0.45084 0.0
C1191 C 0.10531 0.95003 0.38348 0.0
C1192 C 0.10933 0.90519 0.41005 0.0
H1193 H 0.11113 0.90397 0.44754 0.0
C1194 C 0.11941 0.88655 0.40726 0.0
C1195 C 0.10592 0.91137 0.42475 0.0
C1196 C 0.09417 0.93056 0.4285 0.0
C1197 C 0.12666 0.87423 0.41877 0.0
C1198 C 0.12371 0.88072 0.43341 0.0
C1199 C 0.11342 0.89916 0.43625 0.0
C1200 C 0.13159 0.8687 0.44593 0.0
C1201 C 0.13786 0.85462 0.41526 0.0
C1202 C 0.12262 0.84999 0.45 0.0
C1203 C 0.13019 0.83866 0.46184 0.0
C1204 C 0.14693 0.84585 0.46974 0.0
C1205 C 0.15584 0.86466 0.4656 0.0
C1206 C 0.14815 0.87604 0.45384 0.0
H1207 H 0.14113 0.85312 0.40334 0.0
H1208 H 0.15221 0.85406 0.42144 0.0
H1209 H 0.12873 0.84114 0.41872 0.0
H1210 H 0.10973 0.84419 0.44404 0.0
H1211 H 0.12298 0.82425 0.46476 0.0
H1212 H 0.10099 0.54534 0.62712 0.0
H1213 H 0.10986 0.56358 0.64971 0.0
H1214 H 0.07434 0.61577 0.636 0.0
H1215 H 0.06591 0.59792 0.61315 0.0
H1216 H 0.1123 0.62665 0.6452 0.0
H1217 H 0.07583 0.57548 0.68605 0.0
H1218 H 0.09215 0.56199 0.67364 0.0
H1219 H 0.06999 0.57447 0.6667 0.0
C1220 C 0.09502 0.56068 0.62892 0.0
C1221 C 0.08271 0.57016 0.61834 0.0
C1222 C 0.09993 0.57099 0.64191 0.0
C1223 C 0.09252 0.59091 0.64462 0.0
C1224 C 0.08007 0.60033 0.63417 0.0
H1225 H 0.10752 0.65485 0.72842 0.0
H1226 H 0.09324 0.63956 0.70616 0.0
C1227 C 0.07516 0.59004 0.62117 0.0
C1228 C 0.09873 0.60236 0.65794 0.0
H1229 H 0.09952 0.59987 0.69538 0.0
C1230 C 0.10936 0.6209 0.65618 0.0
C1231 C 0.09464 0.59496 0.67224 0.0
C1232 C 0.08235 0.57574 0.67482 0.0
C1233 C 0.11658 0.63191 0.66834 0.0
C1234 C 0.11335 0.62398 0.68262 0.0
C1235 C 0.10214 0.60581 0.68441 0.0
C1236 C 0.12195 0.63397 0.69581 0.0
C1237 C 0.12756 0.65197 0.6658 0.0
C1238 C 0.14281 0.63579 0.69738 0.0
C1239 C 0.15101 0.64452 0.71005 0.0
C1240 C 0.13849 0.65148 0.72145 0.0
C1241 C 0.11757 0.64969 0.71983 0.0
C1242 C 0.10939 0.64094 0.70714 0.0
H1243 H 0.12381 0.65876 0.65494 0.0
H1244 H 0.12396 0.6634 0.67449 0.0
H1245 H 0.14396 0.64905 0.66604 0.0
H1246 H 0.15278 0.63012 0.6889 0.0
H1247 H 0.16718 0.64556 0.71097 0.0
H1248 H 0.39759 0.58827 0.85981 0.0
H1249 H 0.38029 0.59986 0.882 0.0
H1250 H 0.43721 0.6092 0.90347 0.0
H1251 H 0.45471 0.59721 0.88137 0.0
H1252 H 0.40573 0.58895 0.92111 0.0
H1253 H 0.38139 0.66204 0.89444 0.0
H1254 H 0.3756 0.63872 0.88462 0.0
H1255 H 0.40131 0.64619 0.88713 0.0
C1256 C 0.40645 0.59243 0.86933 0.0
C1257 C 0.42754 0.59188 0.86882 0.0
C1258 C 0.39653 0.59921 0.88195 0.0
C1259 C 0.4075 0.60559 0.89427 0.0
C1260 C 0.42851 0.60441 0.89402 0.0
H1261 H 0.37057 0.68235 0.96659 0.0
H1262 H 0.38732 0.66607 0.94575 0.0
C1263 C 0.43847 0.59769 0.88137 0.0
C1264 C 0.39707 0.61428 0.90719 0.0
H1265 H 0.36924 0.65561 0.91837 0.0
C1266 C 0.39772 0.6035 0.92055 0.0
C1267 C 0.38683 0.63336 0.90639 0.0
C1268 C 0.3863 0.6459 0.89243 0.0
C1269 C 0.38819 0.61126 0.93315 0.0
C1270 C 0.3777 0.63019 0.93228 0.0
C1271 C 0.37719 0.64101 0.91895 0.0
C1272 C 0.36771 0.63948 0.9452 0.0
C1273 C 0.38973 0.5994 0.94737 0.0
C1274 C 0.35104 0.62995 0.95173 0.0
C1275 C 0.34135 0.63925 0.96365 0.0
C1276 C 0.34819 0.65825 0.9692 0.0
C1277 C 0.36492 0.6677 0.96261 0.0
C1278 C 0.37452 0.65844 0.95069 0.0
H1279 H 0.4016 0.58738 0.94692 0.0
H1280 H 0.39297 0.60999 0.95666 0.0
H1281 H 0.37519 0.59167 0.94963 0.0
H1282 H 0.34538 0.61545 0.94748 0.0
H1283 H 0.32849 0.63159 0.96846 0.0
H1284 H 0.41602 0.92246 0.11376 0.0
H1285 H 0.39917 0.91357 0.13678 0.0
H1286 H 0.45243 0.88206 0.15162 0.0
H1287 H 0.46943 0.89096 0.12867 0.0
H1288 H 0.4178 0.85842 0.15382 0.0
H1289 H 0.40667 0.93588 0.17858 0.0
H1290 H 0.39773 0.93354 0.16004 0.0
H1291 H 0.42412 0.93128 0.16376 0.0
C1292 C 0.4243 0.91402 0.12206 0.0
C1293 C 0.44406 0.9074 0.11939 0.0
C1294 C 0.41464 0.90895 0.1352 0.0
C1295 C 0.42463 0.89732 0.14595 0.0
C1296 C 0.44448 0.89106 0.14346 0.0
H1297 H 0.38662 0.86924 0.23477 0.0
H1298 H 0.40385 0.88181 0.21281 0.0
C1299 C 0.45413 0.8961 0.13032 0.0
C1300 C 0.41398 0.89048 0.15937 0.0
H1301 H 0.38967 0.90784 0.18998 0.0
C1302 C 0.4117 0.86921 0.16176 0.0
C1303 C 0.40618 0.90462 0.16973 0.0
C1304 C 0.40892 0.92761 0.16802 0.0
C1305 C 0.40163 0.86167 0.17417 0.0
C1306 C 0.39337 0.8758 0.18434 0.0
C1307 C 0.39587 0.89707 0.18207 0.0
C1308 C 0.38247 0.86872 0.19757 0.0
C1309 C 0.40019 0.83863 0.17641 0.0
C1310 C 0.36457 0.85747 0.19624 0.0
C1311 C 0.35469 0.85022 0.20876 0.0
C1312 C 0.36251 0.85418 0.22283 0.0
C1313 C 0.38024 0.86583 0.2241 0.0
C1314 C 0.39009 0.87308 0.21158 0.0
H1315 H 0.41127 0.83013 0.16959 0.0
H1316 H 0.40263 0.83453 0.18812 0.0
H1317 H 0.38497 0.83333 0.17324 0.0
H1318 H 0.35828 0.85425 0.18552 0.0
H1319 H 0.341 0.84142 0.2074 0.0
H1320 H 0.1325 0.5595 0.90388 0.0
H1321 H 0.14503 0.57729 0.88207 0.0
H1322 H 0.0906 0.56207 0.85887 0.0
H1323 H 0.07793 0.54414 0.88068 0.0
H1324 H 0.15167 0.56236 0.85373 0.0
H1325 H 0.09449 0.62481 0.85397 0.0
H1326 H 0.09846 0.60797 0.8695 0.0
H1327 H 0.0845 0.59906 0.85385 0.0
C1328 C 0.12327 0.55972 0.89409 0.0
C1329 C 0.1042 0.55042 0.89401 0.0
C1330 C 0.13041 0.57 0.88167 0.0
C1331 C 0.11862 0.57126 0.86894 0.0
C1332 C 0.09975 0.56165 0.8687 0.0
H1333 H 0.14004 0.63165 0.78485 0.0
H1334 H 0.12618 0.61106 0.80498 0.0
C1335 C 0.09255 0.5514 0.88115 0.0
C1336 C 0.12623 0.58259 0.85596 0.0
H1337 H 0.11717 0.62431 0.834 0.0
C1338 C 0.14414 0.5759 0.8494 0.0
C1339 C 0.11634 0.60024 0.85036 0.0
C1340 C 0.09747 0.60861 0.85733 0.0
C1341 C 0.1524 0.58635 0.83734 0.0
C1342 C 0.14264 0.60411 0.83185 0.0
C1343 C 0.12459 0.61066 0.83826 0.0
C1344 C 0.15116 0.61642 0.81965 0.0
C1345 C 0.17141 0.57817 0.83047 0.0
C1346 C 0.16967 0.62644 0.82133 0.0
C1347 C 0.17763 0.63823 0.80988 0.0
C1348 C 0.16717 0.64027 0.79655 0.0
C1349 C 0.14852 0.63034 0.79496 0.0
C1350 C 0.14056 0.61858 0.80644 0.0
H1351 H 0.17411 0.56177 0.83344 0.0
H1352 H 0.17085 0.57949 0.81831 0.0
H1353 H 0.18435 0.58738 0.83445 0.0
H1354 H 0.1779 0.62527 0.83156 0.0
H1355 H 0.19198 0.64574 0.8115 0.0
H1356 H 0.41641 0.59572 0.14693 0.0
H1357 H 0.40484 0.6138 0.12492 0.0
H1358 H 0.37242 0.55948 0.11132 0.0
H1359 H 0.38426 0.54109 0.1332 0.0
H1360 H 0.39576 0.57924 0.08864 0.0
H1361 H 0.34627 0.63392 0.11863 0.0
H1362 H 0.37168 0.63263 0.12517 0.0
H1363 H 0.35566 0.61046 0.12684 0.0
C1364 C 0.407 0.58753 0.13918 0.0
C1365 C 0.40122 0.56697 0.14181 0.0
C1366 C 0.40025 0.59795 0.12669 0.0
C1367 C 0.38757 0.58804 0.11663 0.0
C1368 C 0.3821 0.56741 0.11903 0.0
H1369 H 0.31579 0.64244 0.04737 0.0
H1370 H 0.32814 0.62402 0.06901 0.0
C1371 C 0.38878 0.55698 0.13156 0.0
C1372 C 0.38002 0.59924 0.10359 0.0
H1373 H 0.35071 0.6399 0.09315 0.0
C1374 C 0.38589 0.59249 0.0896 0.0
C1375 C 0.36699 0.61636 0.10492 0.0
C1376 C 0.3596 0.62373 0.11968 0.0
C1377 C 0.3793 0.60264 0.07686 0.0
C1378 C 0.36666 0.62007 0.07821 0.0
C1379 C 0.36055 0.62663 0.09219 0.0
C1380 C 0.35933 0.63151 0.0652 0.0
C1381 C 0.38565 0.59447 0.06206 0.0
C1382 C 0.37277 0.64208 0.05604 0.0
C1383 C 0.36578 0.65267 0.04368 0.0
C1384 C 0.3452 0.65287 0.04028 0.0
C1385 C 0.33174 0.64252 0.04963 0.0
C1386 C 0.33875 0.632 0.06201 0.0
H1387 H 0.39154 0.57846 0.06279 0.0
H1388 H 0.37289 0.59469 0.05421 0.0
H1389 H 0.39769 0.60445 0.05755 0.0
H1390 H 0.38868 0.64216 0.05847 0.0
H1391 H 0.37653 0.66055 0.03674 0.0
H1392 H 0.39104 0.95873 0.38078 0.0
H1393 H 0.38072 0.9378 0.35966 0.0
H1394 H 0.40437 0.88335 0.38065 0.0
H1395 H 0.41462 0.90412 0.40187 0.0
H1396 H 0.40653 0.90833 0.34152 0.0
H1397 H 0.34246 0.87241 0.37138 0.0
H1398 H 0.35361 0.8965 0.37716 0.0
H1399 H 0.36651 0.87264 0.38039 0.0
C1400 C 0.39409 0.9423 0.38087 0.0
C1401 C 0.40357 0.93303 0.39299 0.0
C1402 C 0.38827 0.93042 0.36879 0.0
C1403 C 0.39165 0.90907 0.36871 0.0
C1404 C 0.40155 0.89982 0.3806 0.0
H1405 H 0.34936 0.81313 0.30934 0.0
H1406 H 0.36407 0.8322 0.32988 0.0
C1407 C 0.40751 0.91171 0.39264 0.0
C1408 C 0.38425 0.8964 0.35636 0.0
H1409 H 0.34785 0.86181 0.34699 0.0
C1410 C 0.39373 0.89811 0.34267 0.0
C1411 C 0.36764 0.88306 0.358 0.0
C1412 C 0.35681 0.88102 0.37248 0.0
C1413 C 0.38705 0.88668 0.33052 0.0
C1414 C 0.3701 0.87366 0.33205 0.0
C1415 C 0.3608 0.87181 0.34582 0.0
C1416 C 0.36152 0.86213 0.31947 0.0
C1417 C 0.39844 0.88839 0.31624 0.0
C1418 C 0.35492 0.87264 0.30688 0.0
C1419 C 0.34664 0.86179 0.2951 0.0
C1420 C 0.3445 0.84021 0.29576 0.0
C1421 C 0.35079 0.82974 0.30848 0.0
C1422 C 0.35922 0.84061 0.32022 0.0
H1423 H 0.41412 0.89363 0.31807 0.0
H1424 H 0.39879 0.8734 0.31034 0.0
H1425 H 0.39097 0.89994 0.3091 0.0
H1426 H 0.356 0.88929 0.30622 0.0
H1427 H 0.34179 0.87034 0.28551 0.0
H1428 H 0.07102 0.87682 0.64627 0.0
H1429 H 0.08917 0.86891 0.62369 0.0
H1430 H 0.08058 0.93142 0.6087 0.0
H1431 H 0.06205 0.93946 0.63125 0.0
H1432 H 0.07456 0.8729 0.59419 0.0
H1433 H 0.14197 0.92135 0.60482 0.0
H1434 H 0.12468 0.91407 0.61919 0.0
H1435 H 0.11805 0.934 0.60639 0.0
C1436 C 0.07279 0.88887 0.63813 0.0
C1437 C 0.06499 0.90876 0.64055 0.0
C1438 C 0.08329 0.88434 0.62527 0.0
C1439 C 0.08636 0.89963 0.61462 0.0
C1440 C 0.07863 0.91951 0.61692 0.0
H1441 H 0.15085 0.89291 0.53123 0.0
H1442 H 0.13143 0.90472 0.55245 0.0
C1443 C 0.06806 0.92406 0.62981 0.0
C1444 C 0.09732 0.89444 0.60098 0.0
H1445 H 0.14083 0.90348 0.58226 0.0
C1446 C 0.08902 0.87961 0.59155 0.0
C1447 C 0.11612 0.90333 0.59756 0.0
C1448 C 0.12588 0.91898 0.60754 0.0
C1449 C 0.09908 0.87332 0.57878 0.0
C1450 C 0.11813 0.8818 0.57555 0.0
C1451 C 0.12625 0.89697 0.58481 0.0
C1452 C 0.13009 0.87469 0.5628 0.0
C1453 C 0.08911 0.8578 0.5688 0.0
C1454 C 0.13607 0.85398 0.56174 0.0
C1455 C 0.1471 0.84717 0.54964 0.0
C1456 C 0.15251 0.861 0.53841 0.0
C1457 C 0.14687 0.88185 0.53966 0.0
C1458 C 0.13579 0.88863 0.55177 0.0
H1459 H 0.07261 0.8574 0.57048 0.0
H1460 H 0.0922 0.8613 0.55708 0.0
H1461 H 0.09508 0.84219 0.57126 0.0
H1462 H 0.13224 0.84307 0.57031 0.0
H1463 H 0.15135 0.83105 0.54909 0.0
H1464 H 0.60814 0.46419 0.87665 0.0
H1465 H 0.61692 0.44442 0.89859 0.0
H1466 H 0.58202 0.39299 0.88276 0.0
H1467 H 0.57392 0.41224 0.86046 0.0
H1468 H 0.59356 0.42679 0.92022 0.0
H1469 H 0.63651 0.3668 0.89004 0.0
H1470 H 0.62866 0.39064 0.88156 0.0
H1471 H 0.61109 0.36983 0.88391 0.0
C1472 C 0.60246 0.44861 0.87776 0.0
C1473 C 0.59051 0.43973 0.8667 0.0
C1474 C 0.60736 0.4374 0.89037 0.0
C1475 C 0.60043 0.41711 0.89216 0.0
C1476 C 0.58787 0.40847 0.88144 0.0
H1477 H 0.62144 0.32547 0.96041 0.0
H1478 H 0.60811 0.34492 0.93952 0.0
C1479 C 0.58304 0.41962 0.86878 0.0
C1480 C 0.60663 0.40495 0.90517 0.0
H1481 H 0.63186 0.36145 0.91552 0.0
C1482 C 0.60194 0.41251 0.9192 0.0
C1483 C 0.6176 0.38635 0.90379 0.0
C1484 C 0.62395 0.37798 0.88903 0.0
C1485 C 0.60784 0.40187 0.93192 0.0
C1486 C 0.61884 0.38334 0.93052 0.0
C1487 C 0.62334 0.37565 0.91651 0.0
C1488 C 0.62636 0.37196 0.94346 0.0
C1489 C 0.60215 0.41042 0.94675 0.0
C1490 C 0.64114 0.38072 0.95247 0.0
C1491 C 0.64887 0.36964 0.96435 0.0
C1492 C 0.64194 0.34958 0.96742 0.0
C1493 C 0.62706 0.3409 0.95838 0.0
C1494 C 0.61943 0.35196 0.94644 0.0
H1495 H 0.58993 0.42203 0.94593 0.0
H1496 H 0.59727 0.39786 0.95425 0.0
H1497 H 0.61542 0.41804 0.95173 0.0
H1498 H 0.64691 0.39602 0.95018 0.0
H1499 H 0.66034 0.37676 0.97109 0.0
H1500 H 0.60743 0.04117 0.12173 0.0
H1501 H 0.61801 0.05683 0.14484 0.0
H1502 H 0.58145 0.11021 0.13562 0.0
H1503 H 0.57187 0.09535 0.11207 0.0
H1504 H 0.6173 0.12154 0.14455 0.0
H1505 H 0.58824 0.0623 0.18287 0.0
H1506 H 0.60503 0.05163 0.16949 0.0
H1507 H 0.58158 0.06274 0.16367 0.0
C1508 C 0.60171 0.05629 0.12456 0.0
C1509 C 0.58873 0.06694 0.115 0.0
C1510 C 0.60753 0.06509 0.13791 0.0
C1511 C 0.60022 0.08453 0.14211 0.0
C1512 C 0.58715 0.09511 0.13267 0.0
H1513 H 0.61363 0.13771 0.22935 0.0
H1514 H 0.60085 0.12198 0.20679 0.0
C1515 C 0.58152 0.08646 0.11925 0.0
C1516 C 0.60699 0.09439 0.15595 0.0
H1517 H 0.61093 0.08708 0.19296 0.0
C1518 C 0.61578 0.11406 0.15515 0.0
C1519 C 0.60473 0.08476 0.1698 0.0
C1520 C 0.59419 0.0643 0.17156 0.0
C1521 C 0.62266 0.12423 0.16777 0.0
C1522 C 0.62131 0.11417 0.18153 0.0
C1523 C 0.61219 0.09466 0.18238 0.0
C1524 C 0.62914 0.12367 0.19518 0.0
C1525 C 0.63094 0.14581 0.16623 0.0
C1526 C 0.64935 0.12958 0.19622 0.0
C1527 C 0.65663 0.13881 0.20901 0.0
C1528 C 0.64391 0.14192 0.22112 0.0
C1529 C 0.6238 0.13554 0.2202 0.0
C1530 C 0.61647 0.12653 0.20733 0.0
H1531 H 0.62526 0.1535 0.15614 0.0
H1532 H 0.62696 0.15551 0.17586 0.0
H1533 H 0.64753 0.14505 0.16541 0.0
H1534 H 0.65955 0.12699 0.18714 0.0
H1535 H 0.67227 0.14332 0.20945 0.0
H1536 H 0.9437 0.07813 0.37847 0.0
H1537 H 0.92689 0.08689 0.40156 0.0
H1538 H 0.89385 0.135 0.37949 0.0
H1539 H 0.91057 0.12635 0.35639 0.0
H1540 H 0.9113 0.148 0.4053 0.0
H1541 H 0.86896 0.07518 0.41382 0.0
H1542 H 0.89543 0.07166 0.41111 0.0
H1543 H 0.88032 0.08186 0.39645 0.0
C1544 C 0.93267 0.0904 0.37851 0.0
C1545 C 0.92846 0.10156 0.36563 0.0
C1546 C 0.92306 0.09536 0.39169 0.0
C1547 C 0.90894 0.11141 0.39217 0.0
C1548 C 0.90468 0.12253 0.37933 0.0
H1549 H 0.82558 0.14234 0.4619 0.0
H1550 H 0.84151 0.13102 0.43907 0.0
C1551 C 0.91432 0.11764 0.36617 0.0
C1552 C 0.89916 0.11722 0.40617 0.0
H1553 H 0.86903 0.0991 0.43362 0.0
C1554 C 0.90202 0.13734 0.41149 0.0
C1555 C 0.88689 0.10333 0.4141 0.0
C1556 C 0.88252 0.08186 0.40854 0.0
C1557 C 0.89311 0.14389 0.42463 0.0
C1558 C 0.88133 0.12981 0.43279 0.0
C1559 C 0.87825 0.10977 0.42739 0.0
C1560 C 0.87182 0.13577 0.44685 0.0
C1561 C 0.89608 0.16594 0.42952 0.0
C1562 C 0.88363 0.14176 0.45886 0.0
C1563 C 0.8746 0.1483 0.4719 0.0
C1564 C 0.85358 0.14881 0.47317 0.0
C1565 C 0.8418 0.1422 0.46125 0.0
C1566 C 0.85086 0.13571 0.44821 0.0
H1567 H 0.90109 0.17598 0.42032 0.0
H1568 H 0.88202 0.1724 0.43416 0.0
H1569 H 0.90778 0.16643 0.43818 0.0
H1570 H 0.89985 0.14152 0.45812 0.0
H1571 H 0.8841 0.15312 0.48091 0.0
H1572 H 0.88921 0.42177 0.60983 0.0
H1573 H 0.8777 0.40708 0.63303 0.0
H1574 H 0.93244 0.42671 0.65405 0.0
H1575 H 0.94387 0.44208 0.63091 0.0
H1576 H 0.89721 0.37592 0.64908 0.0
H1577 H 0.88828 0.44762 0.68201 0.0
H1578 H 0.89025 0.44791 0.66223 0.0
H1579 H 0.91227 0.44432 0.67331 0.0
C1580 C 0.89865 0.42337 0.61945 0.0
C1581 C 0.9174 0.43326 0.61855 0.0
C1582 C 0.89211 0.4148 0.63267 0.0
C1583 C 0.90412 0.416 0.64527 0.0
C1584 C 0.92281 0.42592 0.64449 0.0
H1585 H 0.88505 0.3678 0.73362 0.0
H1586 H 0.89925 0.38394 0.71165 0.0
C1587 C 0.92939 0.43451 0.63124 0.0
C1588 C 0.89731 0.40606 0.65903 0.0
H1589 H 0.88309 0.41596 0.69436 0.0
C1590 C 0.89412 0.38465 0.65899 0.0
C1591 C 0.89341 0.41752 0.67194 0.0
C1592 C 0.89605 0.44064 0.67243 0.0
C1593 C 0.8871 0.37436 0.67152 0.0
C1594 C 0.88283 0.38586 0.68434 0.0
C1595 C 0.88635 0.40722 0.68448 0.0
C1596 C 0.87423 0.37605 0.69761 0.0
C1597 C 0.88452 0.35123 0.67098 0.0
C1598 C 0.85535 0.36651 0.697 0.0
C1599 C 0.8472 0.35726 0.70951 0.0
C1600 C 0.85775 0.3575 0.72288 0.0
C1601 C 0.87657 0.36729 0.72349 0.0
C1602 C 0.8847 0.37654 0.71096 0.0
H1603 H 0.89346 0.34421 0.66197 0.0
H1604 H 0.88902 0.344 0.68154 0.0
H1605 H 0.86849 0.34755 0.66898 0.0
H1606 H 0.84685 0.36634 0.68686 0.0
H1607 H 0.83262 0.34998 0.70869 0.0
H1608 H 0.54196 0.10277 0.37982 0.0
H1609 H 0.56047 0.11502 0.3584 0.0
H1610 H 0.61616 0.09691 0.37879 0.0
H1611 H 0.59796 0.08588 0.40062 0.0
H1612 H 0.61887 0.13458 0.36826 0.0
H1613 H 0.58642 0.08435 0.32524 0.0
H1614 H 0.56748 0.09844 0.33499 0.0
H1615 H 0.58252 0.07967 0.34457 0.0
C1616 C 0.55815 0.10141 0.37978 0.0
C1617 C 0.56842 0.09331 0.392 0.0
C1618 C 0.5687 0.10814 0.3674 0.0
C1619 C 0.58969 0.10656 0.36687 0.0
C1620 C 0.59995 0.09813 0.37891 0.0
H1621 H 0.65987 0.13141 0.28789 0.0
H1622 H 0.64344 0.11495 0.30888 0.0
C1623 C 0.58946 0.09163 0.39134 0.0
C1624 C 0.60109 0.11501 0.35423 0.0
H1625 H 0.60483 0.11385 0.31685 0.0
C1626 C 0.61592 0.1299 0.35703 0.0
C1627 C 0.59746 0.10869 0.33959 0.0
C1628 C 0.58275 0.09175 0.33592 0.0
C1629 C 0.62689 0.13898 0.34559 0.0
C1630 C 0.62247 0.13351 0.3309 0.0
C1631 C 0.60801 0.11824 0.32811 0.0
C1632 C 0.63259 0.14354 0.31827 0.0
C1633 C 0.64328 0.15413 0.34941 0.0
C1634 C 0.63175 0.16505 0.31649 0.0
C1635 C 0.64133 0.17451 0.30463 0.0
C1636 C 0.65161 0.16259 0.29416 0.0
C1637 C 0.65211 0.14101 0.2958 0.0
C1638 C 0.64271 0.13159 0.30777 0.0
H1639 H 0.64895 0.15164 0.36075 0.0
H1640 H 0.6561 0.15292 0.34167 0.0
H1641 H 0.6372 0.17005 0.34883 0.0
H1642 H 0.62355 0.17453 0.32422 0.0
H1643 H 0.64045 0.19113 0.30357 0.0
H1644 H 0.90314 0.09165 0.64894 0.0
H1645 H 0.89076 0.1043 0.62535 0.0
H1646 H 0.88584 0.04172 0.60962 0.0
H1647 H 0.89834 0.02889 0.63323 0.0
H1648 H 0.90645 0.09841 0.59701 0.0
H1649 H 0.82965 0.06571 0.60236 0.0
H1650 H 0.84665 0.06769 0.61773 0.0
H1651 H 0.84977 0.04748 0.60441 0.0
C1652 C 0.89963 0.08057 0.64042 0.0
C1653 C 0.90171 0.05926 0.64296 0.0
C1654 C 0.89246 0.08782 0.62698 0.0
C1655 C 0.88714 0.07394 0.61583 0.0
C1656 C 0.88949 0.05267 0.6182 0.0
H1657 H 0.8357 0.09615 0.52914 0.0
H1658 H 0.85089 0.08017 0.55082 0.0
C1659 C 0.89664 0.04537 0.63168 0.0
C1660 C 0.87918 0.08187 0.60174 0.0
H1661 H 0.83736 0.08268 0.58011 0.0
C1662 C 0.89136 0.09495 0.59329 0.0
C1663 C 0.8595 0.07728 0.59693 0.0
C1664 C 0.84552 0.06392 0.60586 0.0
C1665 C 0.88438 0.1036 0.58012 0.0
C1666 C 0.86459 0.09929 0.57544 0.0
C1667 C 0.85253 0.08593 0.58375 0.0
C1668 C 0.85588 0.10903 0.5622 0.0
C1669 C 0.89827 0.11715 0.57128 0.0
C1670 C 0.85348 0.13052 0.56151 0.0
C1671 C 0.84481 0.1397 0.54917 0.0
C1672 C 0.83828 0.12752 0.53731 0.0
C1673 C 0.84062 0.10597 0.53807 0.0
C1674 C 0.84928 0.09681 0.55044 0.0
H1675 H 0.91425 0.11442 0.57416 0.0
H1676 H 0.89628 0.11448 0.55932 0.0
H1677 H 0.8948 0.13358 0.57359 0.0
H1678 H 0.85811 0.14018 0.57061 0.0
H1679 H 0.84313 0.15632 0.54897 0.0
H1680 H 0.9462 0.37537 0.88877 0.0
H1681 H 0.92699 0.3662 0.86691 0.0
H1682 H 0.886 0.41631 0.8754 0.0
H1683 H 0.90462 0.42502 0.89769 0.0
H1684 H 0.86644 0.38072 0.86969 0.0
H1685 H 0.92438 0.3937 0.82717 0.0
H1686 H 0.93293 0.37667 0.84137 0.0
H1687 H 0.92701 0.40308 0.84573 0.0
C1688 C 0.93311 0.38446 0.886 0.0
C1689 C 0.92694 0.40092 0.89501 0.0
C1690 C 0.92229 0.37937 0.87338 0.0
C1691 C 0.90525 0.39078 0.86939 0.0
C1692 C 0.89921 0.40741 0.87822 0.0
H1693 H 0.84559 0.36962 0.78536 0.0
H1694 H 0.8625 0.38574 0.80623 0.0
C1695 C 0.90997 0.41246 0.89089 0.0
C1696 C 0.89306 0.38449 0.85654 0.0
H1697 H 0.89604 0.37322 0.82 0.0
C1698 C 0.87284 0.3793 0.85879 0.0
C1699 C 0.90134 0.38295 0.84227 0.0
C1700 C 0.92255 0.38961 0.83894 0.0
C1701 C 0.86087 0.37188 0.84726 0.0
C1702 C 0.8695 0.36915 0.8332 0.0
C1703 C 0.8895 0.37507 0.83083 0.0
C1704 C 0.85823 0.35978 0.82086 0.0
C1705 C 0.83909 0.36716 0.85027 0.0
C1706 C 0.85024 0.33981 0.82214 0.0
C1707 C 0.84042 0.33061 0.81027 0.0
C1708 C 0.83867 0.3411 0.79682 0.0
C1709 C 0.84667 0.36112 0.79557 0.0
C1710 C 0.85635 0.37036 0.80748 0.0
H1711 H 0.83341 0.376 0.85986 0.0
H1712 H 0.82957 0.37077 0.8406 0.0
H1713 H 0.83747 0.35049 0.85281 0.0
H1714 H 0.85195 0.33114 0.83224 0.0
H1715 H 0.83459 0.31511 0.81155 0.0
H1716 H 0.60636 0.43705 0.14311 0.0
H1717 H 0.61789 0.4206 0.12045 0.0
H1718 H 0.56034 0.39099 0.11551 0.0
H1719 H 0.54851 0.40779 0.13798 0.0
H1720 H 0.61942 0.37715 0.11567 0.0
H1721 H 0.57104 0.41696 0.07476 0.0
H1722 H 0.57512 0.42697 0.09303 0.0
H1723 H 0.55816 0.40581 0.09019 0.0
C1724 C 0.59602 0.42737 0.13705 0.0
C1725 C 0.5765 0.42377 0.14231 0.0
C1726 C 0.60268 0.41787 0.12418 0.0
C1727 C 0.5899 0.40475 0.11627 0.0
C1728 C 0.57033 0.40131 0.12136 0.0
H1729 H 0.60854 0.33212 0.03681 0.0
H1730 H 0.59445 0.34763 0.05907 0.0
C1731 C 0.56366 0.41076 0.13426 0.0
C1732 C 0.59745 0.3939 0.10309 0.0
H1733 H 0.59121 0.38954 0.06602 0.0
C1734 C 0.61329 0.37986 0.1048 0.0
C1735 C 0.58927 0.39739 0.08899 0.0
C1736 C 0.57256 0.41271 0.08653 0.0
C1737 C 0.6212 0.36914 0.09274 0.0
C1738 C 0.61328 0.3729 0.07858 0.0
C1739 C 0.59723 0.38672 0.0769 0.0
C1740 C 0.6219 0.36315 0.06531 0.0
C1741 C 0.63777 0.35368 0.09531 0.0
C1742 C 0.64192 0.36691 0.06141 0.0
C1743 C 0.65002 0.35806 0.04876 0.0
C1744 C 0.63817 0.3454 0.03969 0.0
C1745 C 0.61807 0.34175 0.04358 0.0
C1746 C 0.60999 0.35061 0.05627 0.0
H1747 H 0.63811 0.34833 0.1069 0.0
H1748 H 0.63606 0.34004 0.08803 0.0
H1749 H 0.65243 0.36104 0.09286 0.0
H1750 H 0.65124 0.3769 0.06807 0.0
H1751 H 0.66552 0.36131 0.04603 0.0
loop_
_geom_bond_atom_site_label_1
_geom_bond_atom_site_label_2
_geom_bond_distance
_geom_bond_site_symmetry_2
_ccdc_geom_bond_type
H0 C27 0.929 . S
N1 C26 1.433 . S
N1 C32 1.435 . S
N1 C38 1.423 . S
H2 C28 0.930 . S
H3 C31 0.931 . S
H4 C30 0.929 . S
H5 C33 0.930 . S
H6 C34 0.932 . S
H7 C37 0.929 . S
H8 C36 0.931 . S
H9 C39 0.929 . S
H10 C43 0.932 . S
H11 C40 0.931 . S
H12 C42 0.929 . S
H13 C45 0.929 . S
H14 C46 0.930 . S
H15 C48 0.929 . S
H16 C49 0.931 . S
H17 C51 0.930 . S
H18 C52 0.932 . S
H19 C54 0.931 . S
H20 C55 0.929 . S
H21 C57 0.929 . S
H22 C58 0.931 1_455 S
H23 C60 0.929 . S
N24 C44 1.433 . S
N24 C50 1.435 . S
N24 C56 1.423 . S
H25 C61 0.932 . S
C26 N1 1.433 . S
C26 C27 1.363 . S
C26 C31 1.370 . S
C27 H0 0.929 . S
C27 C26 1.363 . S
C27 C28 1.385 . S
C28 H2 0.930 . S
C28 C27 1.385 . S
C28 C29 1.357 . S
C29 C28 1.357 . S
C29 C30 1.406 . S
C30 H4 0.929 . S
C30 C29 1.406 . S
C30 C31 1.391 . S
C31 H3 0.931 . S
C31 C26 1.370 . S
C31 C30 1.391 . S
C32 N1 1.435 . S
C32 C33 1.358 . S
C32 C37 1.371 . S
C33 H5 0.930 . S
C33 C32 1.358 . S
C33 C34 1.405 . S
C34 H6 0.932 . S
C34 C33 1.405 . S
C34 C35 1.383 . S
C35 C34 1.383 . S
C35 C36 1.393 . S
C36 H8 0.931 . S
C36 C35 1.393 . S
C36 C37 1.382 . S
C37 H7 0.929 . S
C37 C32 1.371 . S
C37 C36 1.382 . S
C38 N1 1.423 . S
C38 C39 1.362 . S
C38 C43 1.388 . S
C39 H9 0.929 . S
C39 C38 1.362 . S
C39 C40 1.376 1_565 S
C40 H11 0.931 . S
C40 C39 1.376 1_545 S
C40 C41 1.396 . S
C41 C40 1.396 . S
C41 C42 1.348 1_545 S
C41 C59 1.468 . S
C42 H12 0.929 . S
C42 C41 1.348 1_565 S
C42 C43 1.443 . S
C43 H10 0.932 . S
C43 C38 1.388 . S
C43 C42 1.443 . S
C44 N24 1.433 . S
C44 C45 1.363 . S
C44 C49 1.370 . S
C45 H13 0.929 . S
C45 C44 1.363 . S
C45 C46 1.385 . S
C46 H14 0.930 . S
C46 C45 1.385 . S
C46 C47 1.357 . S
C47 C46 1.357 . S
C47 C48 1.406 . S
C48 H15 0.929 . S
C48 C47 1.406 . S
C48 C49 1.391 . S
C49 H16 0.931 . S
C49 C44 1.370 . S
C49 C48 1.391 . S
C50 N24 1.435 . S
C50 C51 1.358 . S
C50 C55 1.371 . S
C51 H17 0.930 . S
C51 C50 1.358 . S
C51 C52 1.405 . S
C52 H18 0.932 . S
C52 C51 1.405 . S
C52 C53 1.383 . S
C53 C52 1.383 . S
C53 C54 1.393 . S
C54 H19 0.931 . S
C54 C53 1.393 . S
C54 C55 1.382 . S
C55 H20 0.929 . S
C55 C50 1.371 . S
C55 C54 1.382 . S
C56 N24 1.423 . S
C56 C57 1.362 . S
C56 C61 1.388 . S
C57 H21 0.929 . S
C57 C56 1.362 . S
C57 C58 1.376 . S
C58 H22 0.931 1_655 S
C58 C57 1.376 . S
C58 C59 1.396 1_655 S
C59 C41 1.468 . S
C59 C58 1.396 1_455 S
C59 C60 1.352 1_455 S
C60 H23 0.929 . S
C60 C59 1.352 1_655 S
C60 C61 1.443 . S
C61 H25 0.932 . S
C61 C56 1.388 . S
C61 C60 1.443 . S
H62 C89 0.929 . S
N63 C88 1.433 . S
N63 C94 1.435 . S
N63 C100 1.423 . S
H64 C90 0.930 . S
H65 C93 0.931 . S
H66 C92 0.929 . S
H67 C95 0.930 . S
H68 C96 0.932 . S
H69 C99 0.929 . S
H70 C98 0.931 . S
H71 C101 0.929 . S
H72 C105 0.932 . S
H73 C102 0.931 . S
H74 C104 0.929 . S
H75 C107 0.929 . S
H76 C108 0.930 . S
H77 C110 0.929 . S
H78 C111 0.931 . S
H79 C113 0.930 . S
H80 C114 0.932 . S
H81 C116 0.931 . S
H82 C117 0.929 . S
H83 C119 0.929 . S
H84 C120 0.931 . S
H85 C122 0.929 . S
N86 C106 1.433 . S
N86 C112 1.435 . S
N86 C118 1.423 . S
H87 C123 0.932 . S
C88 N63 1.433 . S
C88 C89 1.363 . S
C88 C93 1.370 . S
C89 H62 0.929 . S
C89 C88 1.363 . S
C89 C90 1.385 . S
C90 H64 0.930 . S
C90 C89 1.385 . S
C90 C91 1.357 . S
C91 C90 1.357 . S
C91 C92 1.406 . S
C92 H66 0.929 . S
C92 C91 1.406 . S
C92 C93 1.391 . S
C93 H65 0.931 . S
C93 C88 1.370 . S
C93 C92 1.391 . S
C94 N63 1.435 . S
C94 C95 1.358 . S
C94 C99 1.371 . S
C95 H67 0.930 . S
C95 C94 1.358 . S
C95 C96 1.405 . S
C96 H68 0.932 . S
C96 C95 1.405 . S
C96 C97 1.383 . S
C97 C96 1.383 . S
C97 C98 1.393 . S
C98 H70 0.931 . S
C98 C97 1.393 . S
C98 C99 1.382 . S
C99 H69 0.929 . S
C99 C94 1.371 . S
C99 C98 1.382 . S
C100 N63 1.423 . S
C100 C101 1.362 . S
C100 C105 1.388 . S
C101 H71 0.929 . S
C101 C100 1.362 . S
C101 C102 1.376 1_655 S
C102 H73 0.931 . S
C102 C101 1.376 1_455 S
C102 C103 1.396 . S
C103 C102 1.396 . S
C103 C104 1.348 1_455 S
C103 C121 1.472 . S
C104 H74 0.929 . S
C104 C103 1.348 1_655 S
C104 C105 1.443 . S
C105 H72 0.932 . S
C105 C100 1.388 . S
C105 C104 1.443 . S
C106 N86 1.433 . S
C106 C107 1.363 . S
C106 C111 1.370 . S
C107 H75 0.929 . S
C107 C106 1.363 . S
C107 C108 1.385 . S
C108 H76 0.930 . S
C108 C107 1.385 . S
C108 C109 1.357 . S
C109 C108 1.357 . S
C109 C110 1.406 . S
C110 H77 0.929 . S
C110 C109 1.406 . S
C110 C111 1.391 . S
C111 H78 0.931 . S
C111 C106 1.370 . S
C111 C110 1.391 . S
C112 N86 1.435 . S
C112 C113 1.358 . S
C112 C117 1.371 . S
C113 H79 0.930 . S
C113 C112 1.358 . S
C113 C114 1.405 . S
C114 H80 0.932 . S
C114 C113 1.405 . S
C114 C115 1.383 . S
C115 C114 1.383 . S
C115 C116 1.393 . S
C116 H81 0.931 . S
C116 C115 1.393 . S
C116 C117 1.382 . S
C117 H82 0.929 . S
C117 C112 1.371 . S
C117 C116 1.382 . S
C118 N86 1.423 . S
C118 C119 1.362 . S
C118 C123 1.388 . S
C119 H83 0.929 . S
C119 C118 1.362 . S
C119 C120 1.376 . S
C120 H84 0.931 . S
C120 C119 1.376 . S
C120 C121 1.396 . S
C121 C103 1.472 . S
C121 C120 1.396 . S
C121 C122 1.348 . S
C122 H85 0.929 . S
C122 C121 1.348 . S
C122 C123 1.443 . S
C123 H87 0.932 . S
C123 C118 1.388 . S
C123 C122 1.443 . S
H124 C151 0.929 . S
N125 C150 1.433 . S
N125 C156 1.435 . S
N125 C162 1.423 . S
H126 C152 0.930 . S
H127 C155 0.931 . S
H128 C154 0.929 . S
H129 C157 0.930 . S
H130 C158 0.932 . S
H131 C161 0.929 . S
H132 C160 0.931 . S
H133 C163 0.929 . S
H134 C167 0.932 . S
H135 C164 0.931 . S
H136 C166 0.929 . S
H137 C169 0.929 . S
H138 C170 0.930 . S
H139 C172 0.929 . S
H140 C173 0.931 . S
H141 C175 0.930 . S
H142 C176 0.932 . S
H143 C178 0.931 . S
H144 C179 0.929 . S
H145 C181 0.929 . S
H146 C182 0.931 . S
H147 C184 0.929 . S
N148 C168 1.433 . S
N148 C174 1.435 . S
N148 C180 1.423 . S
H149 C185 0.932 . S
C150 N125 1.433 . S
C150 C151 1.363 . S
C150 C155 1.370 . S
C151 H124 0.929 . S
C151 C150 1.363 . S
C151 C152 1.385 . S
C152 H126 0.930 . S
C152 C151 1.385 . S
C152 C153 1.357 . S
C153 C152 1.357 . S
C153 C154 1.406 . S
C154 H128 0.929 . S
C154 C153 1.406 . S
C154 C155 1.391 . S
C155 H127 0.931 . S
C155 C150 1.370 . S
C155 C154 1.391 . S
C156 N125 1.435 . S
C156 C157 1.358 . S
C156 C161 1.371 . S
C157 H129 0.930 . S
C157 C156 1.358 . S
C157 C158 1.405 . S
C158 H130 0.932 . S
C158 C157 1.405 . S
C158 C159 1.383 . S
C159 C158 1.383 . S
C159 C160 1.393 . S
C160 H132 0.931 . S
C160 C159 1.393 . S
C160 C161 1.382 . S
C161 H131 0.929 . S
C161 C156 1.371 . S
C161 C160 1.382 . S
C162 N125 1.423 . S
C162 C163 1.362 . S
C162 C167 1.388 . S
C163 H133 0.929 . S
C163 C162 1.362 . S
C163 C164 1.376 . S
C164 H135 0.931 . S
C164 C163 1.376 . S
C164 C165 1.396 . S
C165 C164 1.396 . S
C165 C166 1.348 . S
C165 C183 1.472 . S
C166 H136 0.929 . S
C166 C165 1.348 . S
C166 C167 1.443 . S
C167 H134 0.932 . S
C167 C162 1.388 . S
C167 C166 1.443 . S
C168 N148 1.433 . S
C168 C169 1.363 . S
C168 C173 1.370 . S
C169 H137 0.929 . S
C169 C168 1.363 . S
C169 C170 1.385 . S
C170 H138 0.930 . S
C170 C169 1.385 . S
C170 C171 1.357 . S
C171 C170 1.357 . S
C171 C172 1.406 . S
C172 H139 0.929 . S
C172 C171 1.406 . S
C172 C173 1.391 . S
C173 H140 0.931 . S
C173 C168 1.370 . S
C173 C172 1.391 . S
C174 N148 1.435 . S
C174 C175 1.358 . S
C174 C179 1.371 . S
C175 H141 0.930 . S
C175 C174 1.358 . S
C175 C176 1.405 . S
C176 H142 0.932 . S
C176 C175 1.405 . S
C176 C177 1.383 . S
C177 C176 1.383 . S
C177 C178 1.393 . S
C178 H143 0.931 . S
C178 C177 1.393 . S
C178 C179 1.382 . S
C179 H144 0.929 . S
C179 C174 1.371 . S
C179 C178 1.382 . S
C180 N148 1.423 . S
C180 C181 1.362 . S
C180 C185 1.388 . S
C181 H145 0.929 . S
C181 C180 1.362 . S
C181 C182 1.376 . S
C182 H146 0.931 . S
C182 C181 1.376 . S
C182 C183 1.396 . S
C183 C165 1.472 . S
C183 C182 1.396 . S
C183 C184 1.348 . S
C184 H147 0.929 . S
C184 C183 1.348 . S
C184 C185 1.443 . S
C185 H149 0.932 . S
C185 C180 1.388 . S
C185 C184 1.443 . S
H186 C213 0.929 . S
N187 C212 1.433 . S
N187 C218 1.435 . S
N187 C224 1.423 . S
H188 C214 0.930 . S
H189 C217 0.931 . S
H190 C216 0.929 . S
H191 C219 0.930 . S
H192 C220 0.932 . S
H193 C223 0.929 . S
H194 C222 0.931 . S
H195 C225 0.929 . S
H196 C229 0.932 . S
H197 C226 0.931 . S
H198 C228 0.929 . S
H199 C231 0.929 . S
H200 C232 0.930 . S
H201 C234 0.929 . S
H202 C235 0.931 . S
H203 C237 0.930 . S
H204 C238 0.932 . S
H205 C240 0.931 . S
H206 C241 0.929 . S
H207 C243 0.929 . S
H208 C244 0.931 1_565 S
H209 C246 0.929 . S
N210 C230 1.433 . S
N210 C236 1.435 . S
N210 C242 1.423 . S
H211 C247 0.932 . S
C212 N187 1.433 . S
C212 C213 1.363 . S
C212 C217 1.370 . S
C213 H186 0.929 . S
C213 C212 1.363 . S
C213 C214 1.385 . S
C214 H188 0.930 . S
C214 C213 1.385 . S
C214 C215 1.357 . S
C215 C214 1.357 . S
C215 C216 1.406 . S
C216 H190 0.929 . S
C216 C215 1.406 . S
C216 C217 1.391 . S
C217 H189 0.931 . S
C217 C212 1.370 . S
C217 C216 1.391 . S
C218 N187 1.435 . S
C218 C219 1.358 . S
C218 C223 1.371 . S
C219 H191 0.930 . S
C219 C218 1.358 . S
C219 C220 1.405 . S
C220 H192 0.932 . S
C220 C219 1.405 . S
C220 C221 1.383 . S
C221 C220 1.383 . S
C221 C222 1.393 . S
C222 H194 0.931 . S
C222 C221 1.393 . S
C222 C223 1.382 . S
C223 H193 0.929 . S
C223 C218 1.371 . S
C223 C222 1.382 . S
C224 N187 1.423 . S
C224 C225 1.362 . S
C224 C229 1.388 . S
C225 H195 0.929 . S
C225 C224 1.362 . S
C225 C226 1.376 . S
C226 H197 0.931 . S
C226 C225 1.376 . S
C226 C227 1.396 . S
C227 C226 1.396 . S
C227 C228 1.348 . S
C227 C245 1.490 . S
C228 H198 0.929 . S
C228 C227 1.348 . S
C228 C229 1.443 . S
C229 H196 0.932 . S
C229 C224 1.388 . S
C229 C228 1.443 . S
C230 N210 1.433 . S
C230 C231 1.363 . S
C230 C235 1.370 . S
C231 H199 0.929 . S
C231 C230 1.363 . S
C231 C232 1.385 . S
C232 H200 0.930 . S
C232 C231 1.385 . S
C232 C233 1.357 . S
C233 C232 1.357 . S
C233 C234 1.406 . S
C234 H201 0.929 . S
C234 C233 1.406 . S
C234 C235 1.391 . S
C235 H202 0.931 . S
C235 C230 1.370 . S
C235 C234 1.391 . S
C236 N210 1.435 . S
C236 C237 1.358 . S
C236 C241 1.371 . S
C237 H203 0.930 . S
C237 C236 1.358 . S
C237 C238 1.405 . S
C238 H204 0.932 . S
C238 C237 1.405 . S
C238 C239 1.383 . S
C239 C238 1.383 . S
C239 C240 1.393 . S
C240 H205 0.931 . S
C240 C239 1.393 . S
C240 C241 1.382 . S
C241 H206 0.929 . S
C241 C236 1.371 . S
C241 C240 1.382 . S
C242 N210 1.423 . S
C242 C243 1.362 . S
C242 C247 1.388 . S
C243 H207 0.929 . S
C243 C242 1.362 . S
C243 C244 1.376 . S
C244 H208 0.931 1_545 S
C244 C243 1.376 . S
C244 C245 1.394 1_545 S
C245 C227 1.490 . S
C245 C244 1.394 1_565 S
C245 C246 1.330 1_565 S
C246 H209 0.929 . S
C246 C245 1.330 1_545 S
C246 C247 1.443 . S
C247 H211 0.932 . S
C247 C242 1.388 . S
C247 C246 1.443 . S
H248 C275 0.929 . S
N249 C274 1.433 . S
N249 C280 1.435 . S
N249 C286 1.423 . S
H250 C276 0.930 . S
H251 C279 0.931 . S
H252 C278 0.929 . S
H253 C281 0.930 . S
H254 C282 0.932 . S
H255 C285 0.929 . S
H256 C284 0.931 . S
H257 C287 0.929 . S
H258 C291 0.932 . S
H259 C288 0.931 . S
H260 C290 0.929 . S
H261 C293 0.929 . S
H262 C294 0.930 . S
H263 C296 0.929 . S
H264 C297 0.931 . S
H265 C299 0.930 . S
H266 C300 0.932 . S
H267 C302 0.931 . S
H268 C303 0.929 . S
H269 C305 0.929 . S
H270 C306 0.931 1_455 S
H271 C308 0.929 . S
N272 C292 1.433 . S
N272 C298 1.435 . S
N272 C304 1.423 . S
H273 C309 0.932 . S
C274 N249 1.433 . S
C274 C275 1.363 . S
C274 C279 1.370 . S
C275 H248 0.929 . S
C275 C274 1.363 . S
C275 C276 1.385 . S
C276 H250 0.930 . S
C276 C275 1.385 . S
C276 C277 1.357 . S
C277 C276 1.357 . S
C277 C278 1.406 . S
C278 H252 0.929 . S
C278 C277 1.406 . S
C278 C279 1.391 . S
C279 H251 0.931 . S
C279 C274 1.370 . S
C279 C278 1.391 . S
C280 N249 1.435 . S
C280 C281 1.358 . S
C280 C285 1.371 . S
C281 H253 0.930 . S
C281 C280 1.358 . S
C281 C282 1.405 . S
C282 H254 0.932 . S
C282 C281 1.405 . S
C282 C283 1.383 . S
C283 C282 1.383 . S
C283 C284 1.393 . S
C284 H256 0.931 . S
C284 C283 1.393 . S
C284 C285 1.382 . S
C285 H255 0.929 . S
C285 C280 1.371 . S
C285 C284 1.382 . S
C286 N249 1.423 . S
C286 C287 1.362 . S
C286 C291 1.388 . S
C287 H257 0.929 . S
C287 C286 1.362 . S
C287 C288 1.376 . S
C288 H259 0.931 . S
C288 C287 1.376 . S
C288 C289 1.396 . S
C289 C288 1.396 . S
C289 C290 1.348 . S
C289 C307 1.468 . S
C290 H260 0.929 . S
C290 C289 1.348 . S
C290 C291 1.443 . S
C291 H258 0.932 . S
C291 C286 1.388 . S
C291 C290 1.443 . S
C292 N272 1.433 . S
C292 C293 1.363 . S
C292 C297 1.370 . S
C293 H261 0.929 . S
C293 C292 1.363 . S
C293 C294 1.385 . S
C294 H262 0.930 . S
C294 C293 1.385 . S
C294 C295 1.357 . S
C295 C294 1.357 . S
C295 C296 1.406 . S
C296 H263 0.929 . S
C296 C295 1.406 . S
C296 C297 1.391 . S
C297 H264 0.931 . S
C297 C292 1.370 . S
C297 C296 1.391 . S
C298 N272 1.435 . S
C298 C299 1.358 . S
C298 C303 1.371 . S
C299 H265 0.930 . S
C299 C298 1.358 . S
C299 C300 1.405 . S
C300 H266 0.932 . S
C300 C299 1.405 . S
C300 C301 1.383 . S
C301 C300 1.383 . S
C301 C302 1.393 . S
C302 H267 0.931 . S
C302 C301 1.393 . S
C302 C303 1.382 . S
C303 H268 0.929 . S
C303 C298 1.371 . S
C303 C302 1.382 . S
C304 N272 1.423 . S
C304 C305 1.362 . S
C304 C309 1.388 . S
C305 H269 0.929 . S
C305 C304 1.362 . S
C305 C306 1.376 . S
C306 H270 0.931 1_655 S
C306 C305 1.376 . S
C306 C307 1.396 1_655 S
C307 C289 1.468 . S
C307 C306 1.396 1_455 S
C307 C308 1.352 1_455 S
C308 H271 0.929 . S
C308 C307 1.352 1_655 S
C308 C309 1.443 . S
C309 H273 0.932 . S
C309 C304 1.388 . S
C309 C308 1.443 . S
H310 C337 0.929 . S
N311 C336 1.433 . S
N311 C342 1.435 . S
N311 C348 1.423 . S
H312 C338 0.930 . S
H313 C341 0.931 . S
H314 C340 0.929 . S
H315 C343 0.930 . S
H316 C344 0.932 . S
H317 C347 0.929 . S
H318 C346 0.931 . S
H319 C349 0.929 . S
H320 C353 0.932 . S
H321 C350 0.931 . S
H322 C352 0.929 . S
H323 C355 0.929 . S
H324 C356 0.930 . S
H325 C358 0.929 . S
H326 C359 0.931 . S
H327 C361 0.930 . S
H328 C362 0.932 . S
H329 C364 0.931 . S
H330 C365 0.929 . S
H331 C367 0.929 . S
H332 C368 0.931 . S
H333 C370 0.929 . S
N334 C354 1.433 . S
N334 C360 1.435 . S
N334 C366 1.423 . S
H335 C371 0.932 . S
C336 N311 1.433 . S
C336 C337 1.363 . S
C336 C341 1.370 . S
C337 H310 0.929 . S
C337 C336 1.363 . S
C337 C338 1.385 . S
C338 H312 0.930 . S
C338 C337 1.385 . S
C338 C339 1.357 . S
C339 C338 1.357 . S
C339 C340 1.406 . S
C340 H314 0.929 . S
C340 C339 1.406 . S
C340 C341 1.391 . S
C341 H313 0.931 . S
C341 C336 1.370 . S
C341 C340 1.391 . S
C342 N311 1.435 . S
C342 C343 1.358 . S
C342 C347 1.371 . S
C343 H315 0.930 . S
C343 C342 1.358 . S
C343 C344 1.405 . S
C344 H316 0.932 . S
C344 C343 1.405 . S
C344 C345 1.383 . S
C345 C344 1.383 . S
C345 C346 1.393 . S
C346 H318 0.931 . S
C346 C345 1.393 . S
C346 C347 1.382 . S
C347 H317 0.929 . S
C347 C342 1.371 . S
C347 C346 1.382 . S
C348 N311 1.423 . S
C348 C349 1.362 . S
C348 C353 1.388 . S
C349 H319 0.929 . S
C349 C348 1.362 . S
C349 C350 1.376 . S
C350 H321 0.931 . S
C350 C349 1.376 . S
C350 C351 1.396 . S
C351 C350 1.396 . S
C351 C352 1.348 . S
C351 C369 1.472 . S
C352 H322 0.929 . S
C352 C351 1.348 . S
C352 C353 1.443 . S
C353 H320 0.932 . S
C353 C348 1.388 . S
C353 C352 1.443 . S
C354 N334 1.433 . S
C354 C355 1.363 . S
C354 C359 1.370 . S
C355 H323 0.929 . S
C355 C354 1.363 . S
C355 C356 1.385 . S
C356 H324 0.930 . S
C356 C355 1.385 . S
C356 C357 1.357 . S
C357 C356 1.357 . S
C357 C358 1.406 . S
C358 H325 0.929 . S
C358 C357 1.406 . S
C358 C359 1.391 . S
C359 H326 0.931 . S
C359 C354 1.370 . S
C359 C358 1.391 . S
C360 N334 1.435 . S
C360 C361 1.358 . S
C360 C365 1.371 . S
C361 H327 0.930 . S
C361 C360 1.358 . S
C361 C362 1.405 . S
C362 H328 0.932 . S
C362 C361 1.405 . S
C362 C363 1.383 . S
C363 C362 1.383 . S
C363 C364 1.393 . S
C364 H329 0.931 . S
C364 C363 1.393 . S
C364 C365 1.382 . S
C365 H330 0.929 . S
C365 C360 1.371 . S
C365 C364 1.382 . S
C366 N334 1.423 . S
C366 C367 1.362 . S
C366 C371 1.388 . S
C367 H331 0.929 . S
C367 C366 1.362 . S
C367 C368 1.376 . S
C368 H332 0.931 . S
C368 C367 1.376 . S
C368 C369 1.396 . S
C369 C351 1.472 . S
C369 C368 1.396 . S
C369 C370 1.348 . S
C370 H333 0.929 . S
C370 C369 1.348 . S
C370 C371 1.443 . S
C371 H335 0.932 . S
C371 C366 1.388 . S
C371 C370 1.443 . S
H372 C399 0.929 . S
N373 C398 1.433 . S
N373 C404 1.435 . S
N373 C410 1.423 . S
H374 C400 0.930 . S
H375 C403 0.931 . S
H376 C402 0.929 . S
H377 C405 0.930 . S
H378 C406 0.932 . S
H379 C409 0.929 . S
H380 C408 0.931 . S
H381 C411 0.929 . S
H382 C415 0.932 . S
H383 C412 0.931 . S
H384 C414 0.929 . S
H385 C417 0.929 . S
H386 C418 0.930 . S
H387 C420 0.929 . S
H388 C421 0.931 . S
H389 C423 0.930 . S
H390 C424 0.932 . S
H391 C426 0.931 . S
H392 C427 0.929 . S
H393 C429 0.929 . S
H394 C430 0.931 . S
H395 C432 0.929 . S
N396 C416 1.433 . S
N396 C422 1.435 . S
N396 C428 1.423 . S
H397 C433 0.932 . S
C398 N373 1.433 . S
C398 C399 1.363 . S
C398 C403 1.370 . S
C399 H372 0.929 . S
C399 C398 1.363 . S
C399 C400 1.385 . S
C400 H374 0.930 . S
C400 C399 1.385 . S
C400 C401 1.357 . S
C401 C400 1.357 . S
C401 C402 1.406 . S
C402 H376 0.929 . S
C402 C401 1.406 . S
C402 C403 1.391 . S
C403 H375 0.931 . S
C403 C398 1.370 . S
C403 C402 1.391 . S
C404 N373 1.435 . S
C404 C405 1.358 . S
C404 C409 1.371 . S
C405 H377 0.930 . S
C405 C404 1.358 . S
C405 C406 1.405 . S
C406 H378 0.932 . S
C406 C405 1.405 . S
C406 C407 1.383 . S
C407 C406 1.383 . S
C407 C408 1.393 . S
C408 H380 0.931 . S
C408 C407 1.393 . S
C408 C409 1.382 . S
C409 H379 0.929 . S
C409 C404 1.371 . S
C409 C408 1.382 . S
C410 N373 1.423 . S
C410 C411 1.362 . S
C410 C415 1.388 . S
C411 H381 0.929 . S
C411 C410 1.362 . S
C411 C412 1.376 1_565 S
C412 H383 0.931 . S
C412 C411 1.376 1_545 S
C412 C413 1.396 . S
C413 C412 1.396 . S
C413 C414 1.348 1_545 S
C413 C431 1.472 . S
C414 H384 0.929 . S
C414 C413 1.348 1_565 S
C414 C415 1.443 . S
C415 H382 0.932 . S
C415 C410 1.388 . S
C415 C414 1.443 . S
C416 N396 1.433 . S
C416 C417 1.363 . S
C416 C421 1.370 . S
C417 H385 0.929 . S
C417 C416 1.363 . S
C417 C418 1.385 . S
C418 H386 0.930 . S
C418 C417 1.385 . S
C418 C419 1.357 . S
C419 C418 1.357 . S
C419 C420 1.406 . S
C420 H387 0.929 . S
C420 C419 1.406 . S
C420 C421 1.391 . S
C421 H388 0.931 . S
C421 C416 1.370 . S
C421 C420 1.391 . S
C422 N396 1.435 . S
C422 C423 1.358 . S
C422 C427 1.371 . S
C423 H389 0.930 . S
C423 C422 1.358 . S
C423 C424 1.405 . S
C424 H390 0.932 . S
C424 C423 1.405 . S
C424 C425 1.383 . S
C425 C424 1.383 . S
C425 C426 1.393 . S
C426 H391 0.931 . S
C426 C425 1.393 . S
C426 C427 1.382 . S
C427 H392 0.929 . S
C427 C422 1.371 . S
C427 C426 1.382 . S
C428 N396 1.423 . S
C428 C429 1.362 . S
C428 C433 1.388 . S
C429 H393 0.929 . S
C429 C428 1.362 . S
C429 C430 1.376 . S
C430 H394 0.931 . S
C430 C429 1.376 . S
C430 C431 1.396 . S
C431 C413 1.472 . S
C431 C430 1.396 . S
C431 C432 1.348 . S
C432 H395 0.929 . S
C432 C431 1.348 . S
C432 C433 1.443 . S
C433 H397 0.932 . S
C433 C428 1.388 . S
C433 C432 1.443 . S
H434 C461 0.929 . S
N435 C460 1.433 . S
N435 C466 1.435 . S
N435 C472 1.423 . S
H436 C462 0.930 . S
H437 C465 0.931 . S
H438 C464 0.929 . S
H439 C467 0.930 . S
H440 C468 0.932 . S
H441 C471 0.929 . S
H442 C470 0.931 . S
H443 C473 0.929 . S
H444 C477 0.932 . S
H445 C474 0.931 . S
H446 C476 0.929 . S
H447 C479 0.929 . S
H448 C480 0.930 . S
H449 C482 0.929 . S
H450 C483 0.931 . S
H451 C485 0.930 . S
H452 C486 0.932 . S
H453 C488 0.931 . S
H454 C489 0.929 . S
H455 C491 0.929 . S
H456 C492 0.931 1_565 S
H457 C494 0.929 . S
N458 C478 1.433 . S
N458 C484 1.435 . S
N458 C490 1.423 . S
H459 C495 0.932 . S
C460 N435 1.433 . S
C460 C461 1.363 . S
C460 C465 1.370 . S
C461 H434 0.929 . S
C461 C460 1.363 . S
C461 C462 1.385 . S
C462 H436 0.930 . S
C462 C461 1.385 . S
C462 C463 1.357 . S
C463 C462 1.357 . S
C463 C464 1.406 . S
C464 H438 0.929 . S
C464 C463 1.406 . S
C464 C465 1.391 . S
C465 H437 0.931 . S
C465 C460 1.370 . S
C465 C464 1.391 . S
C466 N435 1.435 . S
C466 C467 1.358 . S
C466 C471 1.371 . S
C467 H439 0.930 . S
C467 C466 1.358 . S
C467 C468 1.405 . S
C468 H440 0.932 . S
C468 C467 1.405 . S
C468 C469 1.383 . S
C469 C468 1.383 . S
C469 C470 1.393 . S
C470 H442 0.931 . S
C470 C469 1.393 . S
C470 C471 1.382 . S
C471 H441 0.929 . S
C471 C466 1.371 . S
C471 C470 1.382 . S
C472 N435 1.423 . S
C472 C473 1.362 . S
C472 C477 1.388 . S
C473 H443 0.929 . S
C473 C472 1.362 . S
C473 C474 1.376 1_455 S
C474 H445 0.931 . S
C474 C473 1.376 1_655 S
C474 C475 1.396 . S
C475 C474 1.396 . S
C475 C476 1.348 1_655 S
C475 C493 1.490 . S
C476 H446 0.929 . S
C476 C475 1.348 1_455 S
C476 C477 1.443 . S
C477 H444 0.932 . S
C477 C472 1.388 . S
C477 C476 1.443 . S
C478 N458 1.433 . S
C478 C479 1.363 . S
C478 C483 1.370 . S
C479 H447 0.929 . S
C479 C478 1.363 . S
C479 C480 1.385 . S
C480 H448 0.930 . S
C480 C479 1.385 . S
C480 C481 1.357 . S
C481 C480 1.357 . S
C481 C482 1.406 . S
C482 H449 0.929 . S
C482 C481 1.406 . S
C482 C483 1.391 . S
C483 H450 0.931 . S
C483 C478 1.370 . S
C483 C482 1.391 . S
C484 N458 1.435 . S
C484 C485 1.358 . S
C484 C489 1.371 . S
C485 H451 0.930 . S
C485 C484 1.358 . S
C485 C486 1.405 . S
C486 H452 0.932 . S
C486 C485 1.405 . S
C486 C487 1.383 . S
C487 C486 1.383 . S
C487 C488 1.393 . S
C488 H453 0.931 . S
C488 C487 1.393 . S
C488 C489 1.382 . S
C489 H454 0.929 . S
C489 C484 1.371 . S
C489 C488 1.382 . S
C490 N458 1.423 . S
C490 C491 1.362 . S
C490 C495 1.388 . S
C491 H455 0.929 . S
C491 C490 1.362 . S
C491 C492 1.376 . S
C492 H456 0.931 1_545 S
C492 C491 1.376 . S
C492 C493 1.394 1_545 S
C493 C475 1.490 . S
C493 C492 1.394 1_565 S
C493 C494 1.330 1_565 S
C494 H457 0.929 . S
C494 C493 1.330 1_545 S
C494 C495 1.443 . S
C495 H459 0.932 . S
C495 C490 1.388 . S
C495 C494 1.443 . S
C496 O497 1.160 . S
C496 O503 1.185 . S
O497 C496 1.160 . S
O498 Zn499 1.899 . S
O498 C506 1.284 . S
Zn499 O498 1.899 . S
Zn499 O500 2.032 1_554 S
Zn499 O503 2.086 . S
Zn499 O508 1.977 . S
O500 Zn499 2.032 1_556 S
O500 C504 1.278 . S
C501 O502 1.203 . S
C501 O508 1.267 . S
O502 C501 1.203 . S
O503 C496 1.185 . S
O503 Zn499 2.086 . S
C504 O500 1.278 . S
C504 O505 1.211 . S
O505 C504 1.211 . S
C506 O498 1.284 . S
C506 O507 1.273 . S
O507 C506 1.273 . S
O508 Zn499 1.977 . S
O508 C501 1.267 . S
C509 O510 1.160 . S
C509 O516 1.185 . S
O510 C509 1.160 . S
O511 Zn512 1.899 . S
O511 C519 1.284 . S
Zn512 O511 1.899 . S
Zn512 O513 2.032 . S
Zn512 O516 2.086 . S
Zn512 O521 1.977 . S
O513 Zn512 2.032 . S
O513 C517 1.278 . S
C514 O515 1.203 . S
C514 O521 1.267 . S
O515 C514 1.203 . S
O516 C509 1.185 . S
O516 Zn512 2.086 . S
C517 O513 1.278 . S
C517 O518 1.211 . S
O518 C517 1.211 . S
C519 O511 1.284 . S
C519 O520 1.273 . S
O520 C519 1.273 . S
O521 Zn512 1.977 . S
O521 C514 1.267 . S
C522 O523 1.160 . S
C522 O529 1.185 . S
O523 C522 1.160 . S
O524 Zn525 1.899 . S
O524 C532 1.284 . S
Zn525 O524 1.899 . S
Zn525 O526 2.032 . S
Zn525 O529 2.086 . S
Zn525 O534 1.977 . S
O526 Zn525 2.032 . S
O526 C530 1.278 . S
C527 O528 1.203 . S
C527 O534 1.267 . S
O528 C527 1.203 . S
O529 C522 1.185 . S
O529 Zn525 2.086 . S
C530 O526 1.278 . S
C530 O531 1.211 . S
O531 C530 1.211 . S
C532 O524 1.284 . S
C532 O533 1.273 . S
O533 C532 1.273 . S
O534 Zn525 1.977 . S
O534 C527 1.267 . S
C535 O536 1.160 . S
C535 O542 1.185 . S
O536 C535 1.160 . S
O537 Zn538 1.899 . S
O537 C545 1.284 . S
Zn538 O537 1.899 . S
Zn538 O539 2.032 . S
Zn538 O542 2.086 . S
Zn538 O547 1.977 . S
O539 Zn538 2.032 . S
O539 C543 1.278 . S
C540 O541 1.203 . S
C540 O547 1.267 . S
O541 C540 1.203 . S
O542 C535 1.185 . S
O542 Zn538 2.086 . S
C543 O539 1.278 . S
C543 O544 1.211 . S
O544 C543 1.211 . S
C545 O537 1.284 . S
C545 O546 1.273 . S
O546 C545 1.273 . S
O547 Zn538 1.977 . S
O547 C540 1.267 . S
C548 O549 1.160 . S
C548 O555 1.185 . S
O549 C548 1.160 . S
O550 Zn551 1.899 . S
O550 C558 1.284 . S
Zn551 O550 1.899 . S
Zn551 O552 2.032 . S
Zn551 O555 2.086 . S
Zn551 O560 1.977 . S
O552 Zn551 2.032 . S
O552 C556 1.278 . S
C553 O554 1.203 . S
C553 O560 1.267 . S
O554 C553 1.203 . S
O555 C548 1.185 . S
O555 Zn551 2.086 . S
C556 O552 1.278 . S
C556 O557 1.211 . S
O557 C556 1.211 . S
C558 O550 1.284 . S
C558 O559 1.273 . S
O559 C558 1.273 . S
O560 Zn551 1.977 . S
O560 C553 1.267 . S
C561 O562 1.160 . S
C561 O568 1.185 . S
O562 C561 1.160 . S
O563 Zn564 1.899 . S
O563 C571 1.284 . S
Zn564 O563 1.899 . S
Zn564 O565 2.032 . S
Zn564 O568 2.086 . S
Zn564 O573 1.977 . S
O565 Zn564 2.032 . S
O565 C569 1.278 . S
C566 O567 1.203 . S
C566 O573 1.267 . S
O567 C566 1.203 . S
O568 C561 1.185 . S
O568 Zn564 2.086 . S
C569 O565 1.278 . S
C569 O570 1.211 . S
O570 C569 1.211 . S
C571 O563 1.284 . S
C571 O572 1.273 . S
O572 C571 1.273 . S
O573 Zn564 1.977 . S
O573 C566 1.267 . S
C574 O575 1.160 . S
C574 O581 1.185 . S
O575 C574 1.160 . S
O576 Zn577 1.899 . S
O576 C584 1.284 . S
Zn577 O576 1.899 . S
Zn577 O578 2.032 1_554 S
Zn577 O581 2.086 . S
Zn577 O586 1.977 . S
O578 Zn577 2.032 1_556 S
O578 C582 1.278 . S
C579 O580 1.203 . S
C579 O586 1.267 . S
O580 C579 1.203 . S
O581 C574 1.185 . S
O581 Zn577 2.086 . S
C582 O578 1.278 . S
C582 O583 1.211 . S
O583 C582 1.211 . S
C584 O576 1.284 . S
C584 O585 1.273 . S
O585 C584 1.273 . S
O586 Zn577 1.977 . S
O586 C579 1.267 . S
C587 O588 1.160 . S
C587 O594 1.185 . S
O588 C587 1.160 . S
O589 Zn590 1.899 . S
O589 C597 1.284 . S
Zn590 O589 1.899 . S
Zn590 O591 2.032 . S
Zn590 O594 2.086 . S
Zn590 O599 1.977 . S
O591 Zn590 2.032 . S
O591 C595 1.278 . S
C592 O593 1.203 . S
C592 O599 1.267 . S
O593 C592 1.203 . S
O594 C587 1.185 . S
O594 Zn590 2.086 . S
C595 O591 1.278 . S
C595 O596 1.211 . S
O596 C595 1.211 . S
C597 O589 1.284 . S
C597 O598 1.273 . S
O598 C597 1.273 . S
O599 Zn590 1.977 . S
O599 C592 1.267 . S
H600 C608 0.929 . S
H601 C610 0.930 . S
H602 C612 0.930 . S
H603 C615 0.929 . S
H604 C618 0.930 . S
H605 C620 0.960 . S
H606 C620 0.960 . S
H607 C620 0.960 . S
C608 H600 0.929 . S
C608 C609 1.377 . S
C608 C610 1.384 . S
C609 C608 1.377 . S
C609 C615 1.390 . S
C610 H601 0.930 . S
C610 C608 1.384 . S
C610 C611 1.372 . S
C611 C610 1.372 . S
C611 C612 1.400 . S
C611 C616 1.490 . S
C612 H602 0.930 . S
C612 C611 1.400 . S
C612 C615 1.386 . S
H613 C629 0.930 . S
H614 C630 0.931 . S
C615 H603 0.929 . S
C615 C609 1.390 . S
C615 C612 1.386 . S
C616 C611 1.490 . S
C616 C618 1.395 . S
C616 C619 1.403 . S
H617 C623 0.930 . S
C618 H604 0.930 . S
C618 C616 1.395 . S
C618 C621 1.403 . S
C619 C616 1.403 . S
C619 C620 1.524 . S
C619 C623 1.400 . S
C620 H605 0.960 . S
C620 H606 0.960 . S
C620 H607 0.960 . S
C620 C619 1.524 . S
C621 C618 1.403 . S
C621 C622 1.392 . S
C621 C625 1.495 . S
C622 C621 1.392 . S
C622 C623 1.385 . S
C622 C624 1.478 . S
C623 H617 0.930 . S
C623 C619 1.400 . S
C623 C622 1.385 . S
C624 C622 1.478 . S
C624 C626 1.381 . S
C624 C630 1.383 . S
C625 C621 1.495 . S
C625 H631 0.959 . S
C625 H632 0.961 . S
C625 H633 0.960 . S
C626 C624 1.381 . S
C626 C627 1.394 . S
C626 H634 0.930 . S
C627 C626 1.394 . S
C627 C628 1.383 . S
C627 H635 0.929 . S
C628 C627 1.383 . S
C628 C629 1.377 . S
C629 H613 0.930 . S
C629 C628 1.377 . S
C629 C630 1.379 . S
C630 H614 0.931 . S
C630 C624 1.383 . S
C630 C629 1.379 . S
H631 C625 0.959 . S
H632 C625 0.961 . S
H633 C625 0.960 . S
H634 C626 0.930 . S
H635 C627 0.929 . S
H636 C644 0.929 . S
H637 C646 0.930 . S
H638 C648 0.930 . S
H639 C651 0.929 . S
H640 C654 0.930 . S
H641 C656 0.960 . S
H642 C656 0.960 . S
H643 C656 0.960 . S
C644 H636 0.929 . S
C644 C645 1.377 . S
C644 C646 1.384 . S
C645 C644 1.377 . S
C645 C651 1.390 . S
C646 H637 0.930 . S
C646 C644 1.384 . S
C646 C647 1.372 . S
C647 C646 1.372 . S
C647 C648 1.400 . S
C647 C652 1.490 . S
C648 H638 0.930 . S
C648 C647 1.400 . S
C648 C651 1.386 . S
H649 C665 0.930 . S
H650 C666 0.931 . S
C651 H639 0.929 . S
C651 C645 1.390 . S
C651 C648 1.386 . S
C652 C647 1.490 . S
C652 C654 1.395 . S
C652 C655 1.403 . S
H653 C659 0.930 . S
C654 H640 0.930 . S
C654 C652 1.395 . S
C654 C657 1.403 . S
C655 C652 1.403 . S
C655 C656 1.524 . S
C655 C659 1.400 . S
C656 H641 0.960 . S
C656 H642 0.960 . S
C656 H643 0.960 . S
C656 C655 1.524 . S
C657 C654 1.403 . S
C657 C658 1.392 . S
C657 C661 1.495 . S
C658 C657 1.392 . S
C658 C659 1.385 . S
C658 C660 1.478 . S
C659 H653 0.930 . S
C659 C655 1.400 . S
C659 C658 1.385 . S
C660 C658 1.478 . S
C660 C662 1.381 . S
C660 C666 1.383 . S
C661 C657 1.495 . S
C661 H667 0.959 . S
C661 H668 0.961 . S
C661 H669 0.960 . S
C662 C660 1.381 . S
C662 C663 1.394 . S
C662 H670 0.930 . S
C663 C662 1.394 . S
C663 C664 1.383 . S
C663 H671 0.929 . S
C664 C663 1.383 . S
C664 C665 1.377 . S
C665 H649 0.930 . S
C665 C664 1.377 . S
C665 C666 1.379 . S
C666 H650 0.931 . S
C666 C660 1.383 . S
C666 C665 1.379 . S
H667 C661 0.959 . S
H668 C661 0.961 . S
H669 C661 0.960 . S
H670 C662 0.930 . S
H671 C663 0.929 . S
H672 C680 0.929 . S
H673 C682 0.930 . S
H674 C684 0.930 . S
H675 C687 0.929 . S
H676 C690 0.930 . S
H677 C692 0.960 . S
H678 C692 0.960 . S
H679 C692 0.960 . S
C680 H672 0.929 . S
C680 C681 1.377 . S
C680 C682 1.384 . S
C681 C680 1.377 . S
C681 C687 1.390 . S
C682 H673 0.930 . S
C682 C680 1.384 . S
C682 C683 1.372 . S
C683 C682 1.372 . S
C683 C684 1.400 . S
C683 C688 1.490 . S
C684 H674 0.930 . S
C684 C683 1.400 . S
C684 C687 1.386 . S
H685 C701 0.930 . S
H686 C702 0.931 . S
C687 H675 0.929 . S
C687 C681 1.390 . S
C687 C684 1.386 . S
C688 C683 1.490 . S
C688 C690 1.395 . S
C688 C691 1.403 . S
H689 C695 0.930 . S
C690 H676 0.930 . S
C690 C688 1.395 . S
C690 C693 1.403 . S
C691 C688 1.403 . S
C691 C692 1.524 . S
C691 C695 1.400 . S
C692 H677 0.960 . S
C692 H678 0.960 . S
C692 H679 0.960 . S
C692 C691 1.524 . S
C693 C690 1.403 . S
C693 C694 1.392 . S
C693 C697 1.495 . S
C694 C693 1.392 . S
C694 C695 1.385 . S
C694 C696 1.478 . S
C695 H689 0.930 . S
C695 C691 1.400 . S
C695 C694 1.385 . S
C696 C694 1.478 . S
C696 C698 1.381 . S
C696 C702 1.383 . S
C697 C693 1.495 . S
C697 H703 0.959 . S
C697 H704 0.961 . S
C697 H705 0.960 . S
C698 C696 1.381 . S
C698 C699 1.394 . S
C698 H706 0.930 . S
C699 C698 1.394 . S
C699 C700 1.383 . S
C699 H707 0.929 . S
C700 C699 1.383 . S
C700 C701 1.377 . S
C701 H685 0.930 . S
C701 C700 1.377 . S
C701 C702 1.379 . S
C702 H686 0.931 . S
C702 C696 1.383 . S
C702 C701 1.379 . S
H703 C697 0.959 . S
H704 C697 0.961 . S
H705 C697 0.960 . S
H706 C698 0.930 . S
H707 C699 0.929 . S
H708 C716 0.929 . S
H709 C718 0.930 . S
H710 C720 0.930 . S
H711 C723 0.929 . S
H712 C726 0.930 . S
H713 C728 0.960 . S
H714 C728 0.960 . S
H715 C728 0.960 . S
C716 H708 0.929 . S
C716 C717 1.377 . S
C716 C718 1.384 . S
C717 C716 1.377 . S
C717 C723 1.390 . S
C718 H709 0.930 . S
C718 C716 1.384 . S
C718 C719 1.372 . S
C719 C718 1.372 . S
C719 C720 1.400 . S
C719 C724 1.490 . S
C720 H710 0.930 . S
C720 C719 1.400 . S
C720 C723 1.386 . S
H721 C737 0.930 1_556 S
H722 C738 0.931 1_556 S
C723 H711 0.929 . S
C723 C717 1.390 . S
C723 C720 1.386 . S
C724 C719 1.490 . S
C724 C726 1.395 . S
C724 C727 1.403 . S
H725 C731 0.930 . S
C726 H712 0.930 . S
C726 C724 1.395 . S
C726 C729 1.403 . S
C727 C724 1.403 . S
C727 C728 1.524 . S
C727 C731 1.400 . S
C728 H713 0.960 . S
C728 H714 0.960 . S
C728 H715 0.960 . S
C728 C727 1.524 . S
C729 C726 1.403 . S
C729 C730 1.392 . S
C729 C733 1.495 . S
C730 C729 1.392 . S
C730 C731 1.385 . S
C730 C732 1.478 . S
C731 H725 0.930 . S
C731 C727 1.400 . S
C731 C730 1.385 . S
C732 C730 1.478 . S
C732 C734 1.381 . S
C732 C738 1.383 . S
C733 C729 1.495 . S
C733 H739 0.959 . S
C733 H740 0.961 . S
C733 H741 0.960 . S
C734 C732 1.381 . S
C734 C735 1.394 . S
C734 H742 0.930 . S
C735 C734 1.394 . S
C735 C736 1.383 . S
C735 H743 0.929 . S
C736 C735 1.383 . S
C736 C737 1.377 . S
C737 H721 0.930 1_554 S
C737 C736 1.377 . S
C737 C738 1.379 . S
C738 H722 0.931 1_554 S
C738 C732 1.383 . S
C738 C737 1.379 . S
H739 C733 0.959 . S
H740 C733 0.961 . S
H741 C733 0.960 . S
H742 C734 0.930 . S
H743 C735 0.929 . S
H744 C752 0.940 . S
H745 C754 0.930 . S
H746 C756 0.930 . S
H747 C759 0.929 . S
H748 C762 0.945 . S
H749 C764 0.960 . S
H750 C764 0.960 . S
H751 C764 0.960 . S
C752 H744 0.940 . S
C752 C753 1.365 1_554 S
C752 C754 1.386 . S
C753 C752 1.365 1_556 S
C753 C759 1.390 . S
C754 H745 0.930 . S
C754 C752 1.386 . S
C754 C755 1.372 1_554 S
C755 C754 1.372 1_556 S
C755 C756 1.400 . S
C755 C760 1.490 . S
C756 H746 0.930 . S
C756 C755 1.400 . S
C756 C759 1.386 . S
H757 C773 0.930 . S
H758 C774 0.931 . S
C759 H747 0.929 . S
C759 C753 1.390 . S
C759 C756 1.386 . S
C760 C755 1.490 . S
C760 C762 1.395 . S
C760 C763 1.403 . S
H761 C767 0.930 . S
C762 H748 0.945 . S
C762 C760 1.395 . S
C762 C765 1.412 . S
C763 C760 1.403 . S
C763 C764 1.524 . S
C763 C767 1.400 . S
C764 H749 0.960 . S
C764 H750 0.960 . S
C764 H751 0.960 . S
C764 C763 1.524 . S
C765 C762 1.412 . S
C765 C766 1.403 . S
C765 C769 1.480 1_556 S
C766 C765 1.403 . S
C766 C767 1.385 . S
C766 C768 1.478 . S
C767 H761 0.930 . S
C767 C763 1.400 . S
C767 C766 1.385 . S
C768 C766 1.478 . S
C768 C770 1.381 1_556 S
C768 C774 1.383 . S
C769 C765 1.480 1_554 S
C769 H775 0.959 . S
C769 H776 0.961 1_554 S
C769 H777 0.960 . S
C770 C768 1.381 1_554 S
C770 C771 1.394 . S
C770 H778 0.930 . S
C771 C770 1.394 . S
C771 C772 1.450 . S
C771 H779 0.929 . S
C772 C771 1.450 . S
C772 C773 1.304 1_554 S
C773 H757 0.930 . S
C773 C772 1.304 1_556 S
C773 C774 1.379 . S
C774 H758 0.931 . S
C774 C768 1.383 . S
C774 C773 1.379 . S
H775 C769 0.959 . S
H776 C769 0.961 1_556 S
H777 C769 0.960 . S
H778 C770 0.930 . S
H779 C771 0.929 . S
H780 C788 0.929 . S
H781 C790 0.930 . S
H782 C792 0.930 . S
H783 C795 0.929 . S
H784 C798 0.930 . S
H785 C800 0.960 . S
H786 C800 0.960 . S
H787 C800 0.960 . S
C788 H780 0.929 . S
C788 C789 1.377 . S
C788 C790 1.384 . S
C789 C788 1.377 . S
C789 C795 1.390 . S
C790 H781 0.930 . S
C790 C788 1.384 . S
C790 C791 1.372 . S
C791 C790 1.372 . S
C791 C792 1.400 . S
C791 C796 1.490 . S
C792 H782 0.930 . S
C792 C791 1.400 . S
C792 C795 1.386 . S
H793 C809 0.930 . S
H794 C810 0.931 . S
C795 H783 0.929 . S
C795 C789 1.390 . S
C795 C792 1.386 . S
C796 C791 1.490 . S
C796 C798 1.395 . S
C796 C799 1.403 . S
H797 C803 0.930 . S
C798 H784 0.930 . S
C798 C796 1.395 . S
C798 C801 1.403 . S
C799 C796 1.403 . S
C799 C800 1.524 . S
C799 C803 1.400 . S
C800 H785 0.960 . S
C800 H786 0.960 . S
C800 H787 0.960 . S
C800 C799 1.524 . S
C801 C798 1.403 . S
C801 C802 1.392 . S
C801 C805 1.495 . S
C802 C801 1.392 . S
C802 C803 1.385 . S
C802 C804 1.478 . S
C803 H797 0.930 . S
C803 C799 1.400 . S
C803 C802 1.385 . S
C804 C802 1.478 . S
C804 C806 1.381 . S
C804 C810 1.383 . S
C805 C801 1.495 . S
C805 H811 0.959 . S
C805 H812 0.961 . S
C805 H813 0.960 . S
C806 C804 1.381 . S
C806 C807 1.394 . S
C806 H814 0.930 . S
C807 C806 1.394 . S
C807 C808 1.383 . S
C807 H815 0.929 . S
C808 C807 1.383 . S
C808 C809 1.377 . S
C809 H793 0.930 . S
C809 C808 1.377 . S
C809 C810 1.379 . S
C810 H794 0.931 . S
C810 C804 1.383 . S
C810 C809 1.379 . S
H811 C805 0.959 . S
H812 C805 0.961 . S
H813 C805 0.960 . S
H814 C806 0.930 . S
H815 C807 0.929 . S
H816 C824 0.929 . S
H817 C826 0.930 . S
H818 C828 0.930 . S
H819 C831 0.929 . S
H820 C834 0.930 . S
H821 C836 0.960 . S
H822 C836 0.960 . S
H823 C836 0.960 . S
C824 H816 0.929 . S
C824 C825 1.377 . S
C824 C826 1.384 . S
C825 C824 1.377 . S
C825 C831 1.390 . S
C826 H817 0.930 . S
C826 C824 1.384 . S
C826 C827 1.372 . S
C827 C826 1.372 . S
C827 C828 1.400 . S
C827 C832 1.490 . S
C828 H818 0.930 . S
C828 C827 1.400 . S
C828 C831 1.386 . S
H829 C845 0.930 . S
H830 C846 0.931 . S
C831 H819 0.929 . S
C831 C825 1.390 . S
C831 C828 1.386 . S
C832 C827 1.490 . S
C832 C834 1.395 . S
C832 C835 1.403 . S
H833 C839 0.930 . S
C834 H820 0.930 . S
C834 C832 1.395 . S
C834 C837 1.403 . S
C835 C832 1.403 . S
C835 C836 1.524 . S
C835 C839 1.400 . S
C836 H821 0.960 . S
C836 H822 0.960 . S
C836 H823 0.960 . S
C836 C835 1.524 . S
C837 C834 1.403 . S
C837 C838 1.392 . S
C837 C841 1.495 . S
C838 C837 1.392 . S
C838 C839 1.385 . S
C838 C840 1.478 . S
C839 H833 0.930 . S
C839 C835 1.400 . S
C839 C838 1.385 . S
C840 C838 1.478 . S
C840 C842 1.381 . S
C840 C846 1.383 . S
C841 C837 1.495 . S
C841 H847 0.959 . S
C841 H848 0.961 . S
C841 H849 0.960 . S
C842 C840 1.381 . S
C842 C843 1.394 . S
C842 H850 0.930 . S
C843 C842 1.394 . S
C843 C844 1.383 . S
C843 H851 0.929 . S
C844 C843 1.383 . S
C844 C845 1.377 . S
C845 H829 0.930 . S
C845 C844 1.377 . S
C845 C846 1.379 . S
C846 H830 0.931 . S
C846 C840 1.383 . S
C846 C845 1.379 . S
H847 C841 0.959 . S
H848 C841 0.961 . S
H849 C841 0.960 . S
H850 C842 0.930 . S
H851 C843 0.929 . S
H852 C860 0.929 . S
H853 C862 0.930 . S
H854 C864 0.930 . S
H855 C867 0.929 . S
H856 C870 0.930 . S
H857 C872 0.960 . S
H858 C872 0.960 . S
H859 C872 0.960 . S
C860 H852 0.929 . S
C860 C861 1.377 . S
C860 C862 1.384 . S
C861 C860 1.377 . S
C861 C867 1.390 . S
C862 H853 0.930 . S
C862 C860 1.384 . S
C862 C863 1.372 . S
C863 C862 1.372 . S
C863 C864 1.400 . S
C863 C868 1.490 . S
C864 H854 0.930 . S
C864 C863 1.400 . S
C864 C867 1.386 . S
H865 C881 0.930 . S
H866 C882 0.931 . S
C867 H855 0.929 . S
C867 C861 1.390 . S
C867 C864 1.386 . S
C868 C863 1.490 . S
C868 C870 1.395 . S
C868 C871 1.403 . S
H869 C875 0.930 . S
C870 H856 0.930 . S
C870 C868 1.395 . S
C870 C873 1.403 . S
C871 C868 1.403 . S
C871 C872 1.524 . S
C871 C875 1.400 . S
C872 H857 0.960 . S
C872 H858 0.960 . S
C872 H859 0.960 . S
C872 C871 1.524 . S
C873 C870 1.403 . S
C873 C874 1.392 . S
C873 C877 1.495 . S
C874 C873 1.392 . S
C874 C875 1.385 . S
C874 C876 1.478 . S
C875 H869 0.930 . S
C875 C871 1.400 . S
C875 C874 1.385 . S
C876 C874 1.478 . S
C876 C878 1.381 . S
C876 C882 1.383 . S
C877 C873 1.495 . S
C877 H883 0.959 . S
C877 H884 0.961 . S
C877 H885 0.960 . S
C878 C876 1.381 . S
C878 C879 1.394 . S
C878 H886 0.930 . S
C879 C878 1.394 . S
C879 C880 1.383 . S
C879 H887 0.929 . S
C880 C879 1.383 . S
C880 C881 1.377 . S
C881 H865 0.930 . S
C881 C880 1.377 . S
C881 C882 1.379 . S
C882 H866 0.931 . S
C882 C876 1.383 . S
C882 C881 1.379 . S
H883 C877 0.959 . S
H884 C877 0.961 . S
H885 C877 0.960 . S
H886 C878 0.930 . S
H887 C879 0.929 . S
H888 C896 0.929 . S
H889 C898 0.930 . S
H890 C900 0.930 . S
H891 C903 0.929 . S
H892 C906 0.930 . S
H893 C908 0.960 . S
H894 C908 0.960 . S
H895 C908 0.960 . S
C896 H888 0.929 . S
C896 C897 1.377 . S
C896 C898 1.384 . S
C897 C896 1.377 . S
C897 C903 1.390 . S
C898 H889 0.930 . S
C898 C896 1.384 . S
C898 C899 1.372 . S
C899 C898 1.372 . S
C899 C900 1.400 . S
C899 C904 1.490 . S
C900 H890 0.930 . S
C900 C899 1.400 . S
C900 C903 1.386 . S
H901 C917 0.930 . S
H902 C918 0.931 . S
C903 H891 0.929 . S
C903 C897 1.390 . S
C903 C900 1.386 . S
C904 C899 1.490 . S
C904 C906 1.395 . S
C904 C907 1.403 . S
H905 C911 0.930 . S
C906 H892 0.930 . S
C906 C904 1.395 . S
C906 C909 1.403 . S
C907 C904 1.403 . S
C907 C908 1.524 . S
C907 C911 1.400 . S
C908 H893 0.960 . S
C908 H894 0.960 . S
C908 H895 0.960 . S
C908 C907 1.524 . S
C909 C906 1.403 . S
C909 C910 1.392 . S
C909 C913 1.495 . S
C910 C909 1.392 . S
C910 C911 1.385 . S
C910 C912 1.478 . S
C911 H905 0.930 . S
C911 C907 1.400 . S
C911 C910 1.385 . S
C912 C910 1.478 . S
C912 C914 1.381 . S
C912 C918 1.383 . S
C913 C909 1.495 . S
C913 H919 0.959 . S
C913 H920 0.961 . S
C913 H921 0.960 . S
C914 C912 1.381 . S
C914 C915 1.394 . S
C914 H922 0.930 . S
C915 C914 1.394 . S
C915 C916 1.383 . S
C915 H923 0.929 . S
C916 C915 1.383 . S
C916 C917 1.377 . S
C917 H901 0.930 . S
C917 C916 1.377 . S
C917 C918 1.379 . S
C918 H902 0.931 . S
C918 C912 1.383 . S
C918 C917 1.379 . S
H919 C913 0.959 . S
H920 C913 0.961 . S
H921 C913 0.960 . S
H922 C914 0.930 . S
H923 C915 0.929 . S
H924 C932 0.929 . S
H925 C934 0.930 . S
H926 C936 0.930 . S
H927 C939 0.929 . S
H928 C942 0.930 . S
H929 C944 0.960 . S
H930 C944 0.960 . S
H931 C944 0.960 . S
C932 H924 0.929 . S
C932 C933 1.377 . S
C932 C934 1.384 . S
C933 C932 1.377 . S
C933 C939 1.390 . S
C934 H925 0.930 . S
C934 C932 1.384 . S
C934 C935 1.372 . S
C935 C934 1.372 . S
C935 C936 1.400 . S
C935 C940 1.490 . S
C936 H926 0.930 . S
C936 C935 1.400 . S
C936 C939 1.386 . S
H937 C953 0.930 1_556 S
H938 C954 0.931 1_556 S
C939 H927 0.929 . S
C939 C933 1.390 . S
C939 C936 1.386 . S
C940 C935 1.490 . S
C940 C942 1.395 . S
C940 C943 1.403 . S
H941 C947 0.930 . S
C942 H928 0.930 . S
C942 C940 1.395 . S
C942 C945 1.403 . S
C943 C940 1.403 . S
C943 C944 1.524 . S
C943 C947 1.400 . S
C944 H929 0.960 . S
C944 H930 0.960 . S
C944 H931 0.960 . S
C944 C943 1.524 . S
C945 C942 1.403 . S
C945 C946 1.392 . S
C945 C949 1.495 . S
C946 C945 1.392 . S
C946 C947 1.385 . S
C946 C948 1.478 . S
C947 H941 0.930 . S
C947 C943 1.400 . S
C947 C946 1.385 . S
C948 C946 1.478 . S
C948 C950 1.381 . S
C948 C954 1.383 . S
C949 C945 1.495 . S
C949 H955 0.959 . S
C949 H956 0.961 . S
C949 H957 0.960 . S
C950 C948 1.381 . S
C950 C951 1.394 . S
C950 H958 0.930 . S
C951 C950 1.394 . S
C951 C952 1.383 . S
C951 H959 0.929 . S
C952 C951 1.383 . S
C952 C953 1.377 . S
C953 H937 0.930 1_554 S
C953 C952 1.377 . S
C953 C954 1.379 . S
C954 H938 0.931 1_554 S
C954 C948 1.383 . S
C954 C953 1.379 . S
H955 C949 0.959 . S
H956 C949 0.961 . S
H957 C949 0.960 . S
H958 C950 0.930 . S
H959 C951 0.929 . S
H960 C968 0.929 . S
H961 C970 0.930 . S
H962 C972 0.930 . S
H963 C975 0.929 . S
H964 C978 0.930 . S
H965 C980 0.960 . S
H966 C980 0.960 . S
H967 C980 0.960 . S
C968 H960 0.929 . S
C968 C969 1.377 . S
C968 C970 1.384 . S
C969 C968 1.377 . S
C969 C975 1.390 . S
C970 H961 0.930 . S
C970 C968 1.384 . S
C970 C971 1.372 . S
C971 C970 1.372 . S
C971 C972 1.400 . S
C971 C976 1.490 . S
C972 H962 0.930 . S
C972 C971 1.400 . S
C972 C975 1.386 . S
H973 C989 0.930 . S
H974 C990 0.931 . S
C975 H963 0.929 . S
C975 C969 1.390 . S
C975 C972 1.386 . S
C976 C971 1.490 . S
C976 C978 1.395 . S
C976 C979 1.403 . S
H977 C983 0.930 . S
C978 H964 0.930 . S
C978 C976 1.395 . S
C978 C981 1.403 . S
C979 C976 1.403 . S
C979 C980 1.524 . S
C979 C983 1.400 . S
C980 H965 0.960 . S
C980 H966 0.960 . S
C980 H967 0.960 . S
C980 C979 1.524 . S
C981 C978 1.403 . S
C981 C982 1.392 . S
C981 C985 1.495 . S
C982 C981 1.392 . S
C982 C983 1.385 . S
C982 C984 1.478 . S
C983 H977 0.930 . S
C983 C979 1.400 . S
C983 C982 1.385 . S
C984 C982 1.478 . S
C984 C986 1.381 . S
C984 C990 1.383 . S
C985 C981 1.495 . S
C985 H991 0.959 . S
C985 H992 0.961 . S
C985 H993 0.960 . S
C986 C984 1.381 . S
C986 C987 1.394 . S
C986 H994 0.930 . S
C987 C986 1.394 . S
C987 C988 1.383 . S
C987 H995 0.929 . S
C988 C987 1.383 . S
C988 C989 1.377 . S
C989 H973 0.930 . S
C989 C988 1.377 . S
C989 C990 1.379 . S
C990 H974 0.931 . S
C990 C984 1.383 . S
C990 C989 1.379 . S
H991 C985 0.959 . S
H992 C985 0.961 . S
H993 C985 0.960 . S
H994 C986 0.930 . S
H995 C987 0.929 . S
H996 C1004 0.929 . S
H997 C1006 0.930 . S
H998 C1008 0.930 . S
H999 C1011 0.929 . S
H1000 C1014 0.930 . S
H1001 C1016 0.960 . S
H1002 C1016 0.960 . S
H1003 C1016 0.960 . S
C1004 H996 0.929 . S
C1004 C1005 1.377 . S
C1004 C1006 1.384 . S
C1005 C1004 1.377 . S
C1005 C1011 1.390 . S
C1006 H997 0.930 . S
C1006 C1004 1.384 . S
C1006 C1007 1.372 . S
C1007 C1006 1.372 . S
C1007 C1008 1.400 . S
C1007 C1012 1.490 . S
C1008 H998 0.930 . S
C1008 C1007 1.400 . S
C1008 C1011 1.386 . S
H1009 C1025 0.930 . S
H1010 C1026 0.931 . S
C1011 H999 0.929 . S
C1011 C1005 1.390 . S
C1011 C1008 1.386 . S
C1012 C1007 1.490 . S
C1012 C1014 1.395 . S
C1012 C1015 1.403 . S
H1013 C1019 0.930 . S
C1014 H1000 0.930 . S
C1014 C1012 1.395 . S
C1014 C1017 1.403 . S
C1015 C1012 1.403 . S
C1015 C1016 1.524 . S
C1015 C1019 1.400 . S
C1016 H1001 0.960 . S
C1016 H1002 0.960 . S
C1016 H1003 0.960 . S
C1016 C1015 1.524 . S
C1017 C1014 1.403 . S
C1017 C1018 1.392 . S
C1017 C1021 1.495 . S
C1018 C1017 1.392 . S
C1018 C1019 1.385 . S
C1018 C1020 1.478 . S
C1019 H1013 0.930 . S
C1019 C1015 1.400 . S
C1019 C1018 1.385 . S
C1020 C1018 1.478 . S
C1020 C1022 1.381 . S
C1020 C1026 1.383 . S
C1021 C1017 1.495 . S
C1021 H1027 0.959 . S
C1021 H1028 0.961 . S
C1021 H1029 0.960 . S
C1022 C1020 1.381 . S
C1022 C1023 1.394 . S
C1022 H1030 0.930 . S
C1023 C1022 1.394 . S
C1023 C1024 1.383 . S
C1023 H1031 0.929 . S
C1024 C1023 1.383 . S
C1024 C1025 1.377 . S
C1025 H1009 0.930 . S
C1025 C1024 1.377 . S
C1025 C1026 1.379 . S
C1026 H1010 0.931 . S
C1026 C1020 1.383 . S
C1026 C1025 1.379 . S
H1027 C1021 0.959 . S
H1028 C1021 0.961 . S
H1029 C1021 0.960 . S
H1030 C1022 0.930 . S
H1031 C1023 0.929 . S
H1032 C1040 0.929 . S
H1033 C1042 0.930 . S
H1034 C1044 0.930 . S
H1035 C1047 0.929 . S
H1036 C1050 0.930 . S
H1037 C1052 0.960 . S
H1038 C1052 0.960 . S
H1039 C1052 0.960 . S
C1040 H1032 0.929 . S
C1040 C1041 1.377 . S
C1040 C1042 1.384 . S
C1041 C1040 1.377 . S
C1041 C1047 1.390 . S
C1042 H1033 0.930 . S
C1042 C1040 1.384 . S
C1042 C1043 1.372 . S
C1043 C1042 1.372 . S
C1043 C1044 1.400 . S
C1043 C1048 1.490 . S
C1044 H1034 0.930 . S
C1044 C1043 1.400 . S
C1044 C1047 1.386 . S
H1045 C1061 0.930 . S
H1046 C1062 0.931 . S
C1047 H1035 0.929 . S
C1047 C1041 1.390 . S
C1047 C1044 1.386 . S
C1048 C1043 1.490 . S
C1048 C1050 1.395 . S
C1048 C1051 1.403 . S
H1049 C1055 0.930 . S
C1050 H1036 0.930 . S
C1050 C1048 1.395 . S
C1050 C1053 1.403 . S
C1051 C1048 1.403 . S
C1051 C1052 1.524 . S
C1051 C1055 1.400 . S
C1052 H1037 0.960 . S
C1052 H1038 0.960 . S
C1052 H1039 0.960 . S
C1052 C1051 1.524 . S
C1053 C1050 1.403 . S
C1053 C1054 1.392 . S
C1053 C1057 1.495 . S
C1054 C1053 1.392 . S
C1054 C1055 1.385 . S
C1054 C1056 1.478 . S
C1055 H1049 0.930 . S
C1055 C1051 1.400 . S
C1055 C1054 1.385 . S
C1056 C1054 1.478 . S
C1056 C1058 1.381 . S
C1056 C1062 1.383 . S
C1057 C1053 1.495 . S
C1057 H1063 0.959 . S
C1057 H1064 0.961 . S
C1057 H1065 0.960 . S
C1058 C1056 1.381 . S
C1058 C1059 1.394 . S
C1058 H1066 0.930 . S
C1059 C1058 1.394 . S
C1059 C1060 1.383 . S
C1059 H1067 0.929 . S
C1060 C1059 1.383 . S
C1060 C1061 1.377 . S
C1061 H1045 0.930 . S
C1061 C1060 1.377 . S
C1061 C1062 1.379 . S
C1062 H1046 0.931 . S
C1062 C1056 1.383 . S
C1062 C1061 1.379 . S
H1063 C1057 0.959 . S
H1064 C1057 0.961 . S
H1065 C1057 0.960 . S
H1066 C1058 0.930 . S
H1067 C1059 0.929 . S
H1068 C1076 0.929 . S
H1069 C1078 0.930 . S
H1070 C1080 0.930 . S
H1071 C1083 0.929 . S
H1072 C1086 0.930 . S
H1073 C1088 0.960 . S
H1074 C1088 0.960 . S
H1075 C1088 0.960 . S
C1076 H1068 0.929 . S
C1076 C1077 1.377 . S
C1076 C1078 1.384 . S
C1077 C1076 1.377 . S
C1077 C1083 1.390 . S
C1078 H1069 0.930 . S
C1078 C1076 1.384 . S
C1078 C1079 1.372 . S
C1079 C1078 1.372 . S
C1079 C1080 1.400 . S
C1079 C1084 1.490 . S
C1080 H1070 0.930 . S
C1080 C1079 1.400 . S
C1080 C1083 1.386 . S
H1081 C1097 0.930 . S
H1082 C1098 0.931 . S
C1083 H1071 0.929 . S
C1083 C1077 1.390 . S
C1083 C1080 1.386 . S
C1084 C1079 1.490 . S
C1084 C1086 1.395 . S
C1084 C1087 1.403 . S
H1085 C1091 0.930 . S
C1086 H1072 0.930 . S
C1086 C1084 1.395 . S
C1086 C1089 1.403 . S
C1087 C1084 1.403 . S
C1087 C1088 1.524 . S
C1087 C1091 1.400 . S
C1088 H1073 0.960 . S
C1088 H1074 0.960 . S
C1088 H1075 0.960 . S
C1088 C1087 1.524 . S
C1089 C1086 1.403 . S
C1089 C1090 1.392 . S
C1089 C1093 1.495 . S
C1090 C1089 1.392 . S
C1090 C1091 1.385 . S
C1090 C1092 1.478 . S
C1091 H1085 0.930 . S
C1091 C1087 1.400 . S
C1091 C1090 1.385 . S
C1092 C1090 1.478 . S
C1092 C1094 1.381 . S
C1092 C1098 1.383 . S
C1093 C1089 1.495 . S
C1093 H1099 0.959 . S
C1093 H1100 0.961 . S
C1093 H1101 0.960 . S
C1094 C1092 1.381 . S
C1094 C1095 1.394 . S
C1094 H1102 0.930 . S
C1095 C1094 1.394 . S
C1095 C1096 1.383 . S
C1095 H1103 0.929 . S
C1096 C1095 1.383 . S
C1096 C1097 1.377 . S
C1097 H1081 0.930 . S
C1097 C1096 1.377 . S
C1097 C1098 1.379 . S
C1098 H1082 0.931 . S
C1098 C1092 1.383 . S
C1098 C1097 1.379 . S
H1099 C1093 0.959 . S
H1100 C1093 0.961 . S
H1101 C1093 0.960 . S
H1102 C1094 0.930 . S
H1103 C1095 0.929 . S
H1104 C1112 0.929 . S
H1105 C1114 0.930 . S
H1106 C1116 0.930 . S
H1107 C1119 0.929 . S
H1108 C1122 0.930 . S
H1109 C1124 0.960 . S
H1110 C1124 0.960 . S
H1111 C1124 0.960 . S
C1112 H1104 0.929 . S
C1112 C1113 1.377 . S
C1112 C1114 1.384 . S
C1113 C1112 1.377 . S
C1113 C1119 1.390 . S
C1114 H1105 0.930 . S
C1114 C1112 1.384 . S
C1114 C1115 1.372 . S
C1115 C1114 1.372 . S
C1115 C1116 1.400 . S
C1115 C1120 1.490 . S
C1116 H1106 0.930 . S
C1116 C1115 1.400 . S
C1116 C1119 1.386 . S
H1117 C1133 0.930 . S
H1118 C1134 0.931 . S
C1119 H1107 0.929 . S
C1119 C1113 1.390 . S
C1119 C1116 1.386 . S
C1120 C1115 1.490 . S
C1120 C1122 1.395 . S
C1120 C1123 1.403 1_556 S
H1121 C1127 0.930 . S
C1122 H1108 0.930 . S
C1122 C1120 1.395 . S
C1122 C1125 1.403 . S
C1123 C1120 1.403 1_554 S
C1123 C1124 1.524 . S
C1123 C1127 1.400 . S
C1124 H1109 0.960 . S
C1124 H1110 0.960 . S
C1124 H1111 0.960 . S
C1124 C1123 1.524 . S
C1125 C1122 1.403 . S
C1125 C1126 1.392 . S
C1125 C1129 1.495 . S
C1126 C1125 1.392 . S
C1126 C1127 1.385 1_556 S
C1126 C1128 1.478 . S
C1127 H1121 0.930 . S
C1127 C1123 1.400 . S
C1127 C1126 1.385 1_554 S
C1128 C1126 1.478 . S
C1128 C1130 1.381 1_556 S
C1128 C1134 1.383 . S
C1129 C1125 1.495 . S
C1129 H1135 0.959 . S
C1129 H1136 0.961 . S
C1129 H1137 0.960 . S
C1130 C1128 1.381 1_554 S
C1130 C1131 1.394 . S
C1130 H1138 0.930 . S
C1131 C1130 1.394 . S
C1131 C1132 1.381 . S
C1131 H1139 0.929 . S
C1132 C1131 1.381 . S
C1132 C1133 1.380 1_554 S
C1133 H1117 0.930 . S
C1133 C1132 1.380 1_556 S
C1133 C1134 1.379 . S
C1134 H1118 0.931 . S
C1134 C1128 1.383 . S
C1134 C1133 1.379 . S
H1135 C1129 0.959 . S
H1136 C1129 0.961 . S
H1137 C1129 0.960 . S
H1138 C1130 0.930 . S
H1139 C1131 0.929 . S
H1140 C1148 0.929 . S
H1141 C1150 0.930 . S
H1142 C1152 0.930 . S
H1143 C1155 0.929 . S
H1144 C1158 0.930 . S
H1145 C1160 0.960 . S
H1146 C1160 0.960 . S
H1147 C1160 0.960 . S
C1148 H1140 0.929 . S
C1148 C1149 1.377 . S
C1148 C1150 1.384 . S
C1149 C1148 1.377 . S
C1149 C1155 1.390 . S
C1150 H1141 0.930 . S
C1150 C1148 1.384 . S
C1150 C1151 1.372 . S
C1151 C1150 1.372 . S
C1151 C1152 1.400 . S
C1151 C1156 1.490 . S
C1152 H1142 0.930 . S
C1152 C1151 1.400 . S
C1152 C1155 1.386 . S
H1153 C1169 0.930 . S
H1154 C1170 0.931 . S
C1155 H1143 0.929 . S
C1155 C1149 1.390 . S
C1155 C1152 1.386 . S
C1156 C1151 1.490 . S
C1156 C1158 1.395 . S
C1156 C1159 1.403 . S
H1157 C1163 0.930 . S
C1158 H1144 0.930 . S
C1158 C1156 1.395 . S
C1158 C1161 1.403 . S
C1159 C1156 1.403 . S
C1159 C1160 1.524 . S
C1159 C1163 1.400 . S
C1160 H1145 0.960 . S
C1160 H1146 0.960 . S
C1160 H1147 0.960 . S
C1160 C1159 1.524 . S
C1161 C1158 1.403 . S
C1161 C1162 1.392 . S
C1161 C1165 1.495 . S
C1162 C1161 1.392 . S
C1162 C1163 1.385 . S
C1162 C1164 1.478 . S
C1163 H1157 0.930 . S
C1163 C1159 1.400 . S
C1163 C1162 1.385 . S
C1164 C1162 1.478 . S
C1164 C1166 1.381 . S
C1164 C1170 1.383 . S
C1165 C1161 1.495 . S
C1165 H1171 0.959 . S
C1165 H1172 0.961 . S
C1165 H1173 0.960 . S
C1166 C1164 1.381 . S
C1166 C1167 1.394 . S
C1166 H1174 0.930 . S
C1167 C1166 1.394 . S
C1167 C1168 1.383 . S
C1167 H1175 0.929 . S
C1168 C1167 1.383 . S
C1168 C1169 1.377 . S
C1169 H1153 0.930 . S
C1169 C1168 1.377 . S
C1169 C1170 1.379 . S
C1170 H1154 0.931 . S
C1170 C1164 1.383 . S
C1170 C1169 1.379 . S
H1171 C1165 0.959 . S
H1172 C1165 0.961 . S
H1173 C1165 0.960 . S
H1174 C1166 0.930 . S
H1175 C1167 0.929 . S
H1176 C1184 0.929 . S
H1177 C1186 0.930 . S
H1178 C1188 0.930 . S
H1179 C1191 0.929 . S
H1180 C1194 0.930 . S
H1181 C1196 0.960 . S
H1182 C1196 0.960 . S
H1183 C1196 0.960 . S
C1184 H1176 0.929 . S
C1184 C1185 1.377 . S
C1184 C1186 1.384 . S
C1185 C1184 1.377 . S
C1185 C1191 1.390 . S
C1186 H1177 0.930 . S
C1186 C1184 1.384 . S
C1186 C1187 1.372 . S
C1187 C1186 1.372 . S
C1187 C1188 1.400 . S
C1187 C1192 1.490 . S
C1188 H1178 0.930 . S
C1188 C1187 1.400 . S
C1188 C1191 1.386 . S
H1189 C1205 0.930 . S
H1190 C1206 0.931 . S
C1191 H1179 0.929 . S
C1191 C1185 1.390 . S
C1191 C1188 1.386 . S
C1192 C1187 1.490 . S
C1192 C1194 1.395 . S
C1192 C1195 1.403 . S
H1193 C1199 0.930 . S
C1194 H1180 0.930 . S
C1194 C1192 1.395 . S
C1194 C1197 1.403 . S
C1195 C1192 1.403 . S
C1195 C1196 1.524 . S
C1195 C1199 1.400 . S
C1196 H1181 0.960 . S
C1196 H1182 0.960 . S
C1196 H1183 0.960 . S
C1196 C1195 1.524 . S
C1197 C1194 1.403 . S
C1197 C1198 1.392 . S
C1197 C1201 1.495 . S
C1198 C1197 1.392 . S
C1198 C1199 1.385 . S
C1198 C1200 1.478 . S
C1199 H1193 0.930 . S
C1199 C1195 1.400 . S
C1199 C1198 1.385 . S
C1200 C1198 1.478 . S
C1200 C1202 1.381 . S
C1200 C1206 1.383 . S
C1201 C1197 1.495 . S
C1201 H1207 0.959 . S
C1201 H1208 0.961 . S
C1201 H1209 0.960 . S
C1202 C1200 1.381 . S
C1202 C1203 1.394 . S
C1202 H1210 0.930 . S
C1203 C1202 1.394 . S
C1203 C1204 1.383 . S
C1203 H1211 0.929 . S
C1204 C1203 1.383 . S
C1204 C1205 1.377 . S
C1205 H1189 0.930 . S
C1205 C1204 1.377 . S
C1205 C1206 1.379 . S
C1206 H1190 0.931 . S
C1206 C1200 1.383 . S
C1206 C1205 1.379 . S
H1207 C1201 0.959 . S
H1208 C1201 0.961 . S
H1209 C1201 0.960 . S
H1210 C1202 0.930 . S
H1211 C1203 0.929 . S
H1212 C1220 0.929 . S
H1213 C1222 0.930 . S
H1214 C1224 0.930 . S
H1215 C1227 0.929 . S
H1216 C1230 0.930 . S
H1217 C1232 0.960 . S
H1218 C1232 0.960 . S
H1219 C1232 0.960 . S
C1220 H1212 0.929 . S
C1220 C1221 1.377 . S
C1220 C1222 1.384 . S
C1221 C1220 1.377 . S
C1221 C1227 1.390 . S
C1222 H1213 0.930 . S
C1222 C1220 1.384 . S
C1222 C1223 1.372 . S
C1223 C1222 1.372 . S
C1223 C1224 1.400 . S
C1223 C1228 1.490 . S
C1224 H1214 0.930 . S
C1224 C1223 1.400 . S
C1224 C1227 1.386 . S
H1225 C1241 0.930 . S
H1226 C1242 0.931 . S
C1227 H1215 0.929 . S
C1227 C1221 1.390 . S
C1227 C1224 1.386 . S
C1228 C1223 1.490 . S
C1228 C1230 1.395 . S
C1228 C1231 1.403 . S
H1229 C1235 0.930 . S
C1230 H1216 0.930 . S
C1230 C1228 1.395 . S
C1230 C1233 1.403 . S
C1231 C1228 1.403 . S
C1231 C1232 1.524 . S
C1231 C1235 1.400 . S
C1232 H1217 0.960 . S
C1232 H1218 0.960 . S
C1232 H1219 0.960 . S
C1232 C1231 1.524 . S
C1233 C1230 1.403 . S
C1233 C1234 1.392 . S
C1233 C1237 1.495 . S
C1234 C1233 1.392 . S
C1234 C1235 1.385 . S
C1234 C1236 1.478 . S
C1235 H1229 0.930 . S
C1235 C1231 1.400 . S
C1235 C1234 1.385 . S
C1236 C1234 1.478 . S
C1236 C1238 1.381 . S
C1236 C1242 1.383 . S
C1237 C1233 1.495 . S
C1237 H1243 0.959 . S
C1237 H1244 0.961 . S
C1237 H1245 0.960 . S
C1238 C1236 1.381 . S
C1238 C1239 1.394 . S
C1238 H1246 0.930 . S
C1239 C1238 1.394 . S
C1239 C1240 1.383 . S
C1239 H1247 0.929 . S
C1240 C1239 1.383 . S
C1240 C1241 1.377 . S
C1241 H1225 0.930 . S
C1241 C1240 1.377 . S
C1241 C1242 1.379 . S
C1242 H1226 0.931 . S
C1242 C1236 1.383 . S
C1242 C1241 1.379 . S
H1243 C1237 0.959 . S
H1244 C1237 0.961 . S
H1245 C1237 0.960 . S
H1246 C1238 0.930 . S
H1247 C1239 0.929 . S
H1248 C1256 0.929 . S
H1249 C1258 0.930 . S
H1250 C1260 0.930 . S
H1251 C1263 0.929 . S
H1252 C1266 0.930 . S
H1253 C1268 0.960 . S
H1254 C1268 0.960 . S
H1255 C1268 0.960 . S
C1256 H1248 0.929 . S
C1256 C1257 1.377 . S
C1256 C1258 1.384 . S
C1257 C1256 1.377 . S
C1257 C1263 1.390 . S
C1258 H1249 0.930 . S
C1258 C1256 1.384 . S
C1258 C1259 1.372 . S
C1259 C1258 1.372 . S
C1259 C1260 1.400 . S
C1259 C1264 1.490 . S
C1260 H1250 0.930 . S
C1260 C1259 1.400 . S
C1260 C1263 1.386 . S
H1261 C1277 0.930 . S
H1262 C1278 0.931 . S
C1263 H1251 0.929 . S
C1263 C1257 1.390 . S
C1263 C1260 1.386 . S
C1264 C1259 1.490 . S
C1264 C1266 1.395 . S
C1264 C1267 1.403 . S
H1265 C1271 0.930 . S
C1266 H1252 0.930 . S
C1266 C1264 1.395 . S
C1266 C1269 1.403 . S
C1267 C1264 1.403 . S
C1267 C1268 1.524 . S
C1267 C1271 1.400 . S
C1268 H1253 0.960 . S
C1268 H1254 0.960 . S
C1268 H1255 0.960 . S
C1268 C1267 1.524 . S
C1269 C1266 1.403 . S
C1269 C1270 1.392 . S
C1269 C1273 1.495 . S
C1270 C1269 1.392 . S
C1270 C1271 1.385 . S
C1270 C1272 1.478 . S
C1271 H1265 0.930 . S
C1271 C1267 1.400 . S
C1271 C1270 1.385 . S
C1272 C1270 1.478 . S
C1272 C1274 1.381 . S
C1272 C1278 1.383 . S
C1273 C1269 1.495 . S
C1273 H1279 0.959 . S
C1273 H1280 0.961 . S
C1273 H1281 0.960 . S
C1274 C1272 1.381 . S
C1274 C1275 1.394 . S
C1274 H1282 0.930 . S
C1275 C1274 1.394 . S
C1275 C1276 1.383 . S
C1275 H1283 0.929 . S
C1276 C1275 1.383 . S
C1276 C1277 1.377 . S
C1277 H1261 0.930 . S
C1277 C1276 1.377 . S
C1277 C1278 1.379 . S
C1278 H1262 0.931 . S
C1278 C1272 1.383 . S
C1278 C1277 1.379 . S
H1279 C1273 0.959 . S
H1280 C1273 0.961 . S
H1281 C1273 0.960 . S
H1282 C1274 0.930 . S
H1283 C1275 0.929 . S
H1284 C1292 0.929 . S
H1285 C1294 0.930 . S
H1286 C1296 0.930 . S
H1287 C1299 0.929 . S
H1288 C1302 0.930 . S
H1289 C1304 0.960 . S
H1290 C1304 0.960 . S
H1291 C1304 0.960 . S
C1292 H1284 0.929 . S
C1292 C1293 1.377 . S
C1292 C1294 1.384 . S
C1293 C1292 1.377 . S
C1293 C1299 1.390 . S
C1294 H1285 0.930 . S
C1294 C1292 1.384 . S
C1294 C1295 1.372 . S
C1295 C1294 1.372 . S
C1295 C1296 1.400 . S
C1295 C1300 1.490 . S
C1296 H1286 0.930 . S
C1296 C1295 1.400 . S
C1296 C1299 1.386 . S
H1297 C1313 0.930 . S
H1298 C1314 0.931 . S
C1299 H1287 0.929 . S
C1299 C1293 1.390 . S
C1299 C1296 1.386 . S
C1300 C1295 1.490 . S
C1300 C1302 1.395 . S
C1300 C1303 1.403 . S
H1301 C1307 0.930 . S
C1302 H1288 0.930 . S
C1302 C1300 1.395 . S
C1302 C1305 1.403 . S
C1303 C1300 1.403 . S
C1303 C1304 1.524 . S
C1303 C1307 1.400 . S
C1304 H1289 0.960 . S
C1304 H1290 0.960 . S
C1304 H1291 0.960 . S
C1304 C1303 1.524 . S
C1305 C1302 1.403 . S
C1305 C1306 1.392 . S
C1305 C1309 1.495 . S
C1306 C1305 1.392 . S
C1306 C1307 1.385 . S
C1306 C1308 1.478 . S
C1307 H1301 0.930 . S
C1307 C1303 1.400 . S
C1307 C1306 1.385 . S
C1308 C1306 1.478 . S
C1308 C1310 1.381 . S
C1308 C1314 1.383 . S
C1309 C1305 1.495 . S
C1309 H1315 0.959 . S
C1309 H1316 0.961 . S
C1309 H1317 0.960 . S
C1310 C1308 1.381 . S
C1310 C1311 1.394 . S
C1310 H1318 0.930 . S
C1311 C1310 1.394 . S
C1311 C1312 1.383 . S
C1311 H1319 0.929 . S
C1312 C1311 1.383 . S
C1312 C1313 1.377 . S
C1313 H1297 0.930 . S
C1313 C1312 1.377 . S
C1313 C1314 1.379 . S
C1314 H1298 0.931 . S
C1314 C1308 1.383 . S
C1314 C1313 1.379 . S
H1315 C1309 0.959 . S
H1316 C1309 0.961 . S
H1317 C1309 0.960 . S
H1318 C1310 0.930 . S
H1319 C1311 0.929 . S
H1320 C1328 0.929 . S
H1321 C1330 0.930 . S
H1322 C1332 0.930 . S
H1323 C1335 0.929 . S
H1324 C1338 0.930 . S
H1325 C1340 0.960 . S
H1326 C1340 0.960 . S
H1327 C1340 0.960 . S
C1328 H1320 0.929 . S
C1328 C1329 1.377 . S
C1328 C1330 1.384 . S
C1329 C1328 1.377 . S
C1329 C1335 1.390 . S
C1330 H1321 0.930 . S
C1330 C1328 1.384 . S
C1330 C1331 1.372 . S
C1331 C1330 1.372 . S
C1331 C1332 1.400 . S
C1331 C1336 1.490 . S
C1332 H1322 0.930 . S
C1332 C1331 1.400 . S
C1332 C1335 1.386 . S
H1333 C1349 0.930 . S
H1334 C1350 0.931 . S
C1335 H1323 0.929 . S
C1335 C1329 1.390 . S
C1335 C1332 1.386 . S
C1336 C1331 1.490 . S
C1336 C1338 1.395 . S
C1336 C1339 1.403 . S
H1337 C1343 0.930 . S
C1338 H1324 0.930 . S
C1338 C1336 1.395 . S
C1338 C1341 1.403 . S
C1339 C1336 1.403 . S
C1339 C1340 1.524 . S
C1339 C1343 1.400 . S
C1340 H1325 0.960 . S
C1340 H1326 0.960 . S
C1340 H1327 0.960 . S
C1340 C1339 1.524 . S
C1341 C1338 1.403 . S
C1341 C1342 1.392 . S
C1341 C1345 1.495 . S
C1342 C1341 1.392 . S
C1342 C1343 1.385 . S
C1342 C1344 1.478 . S
C1343 H1337 0.930 . S
C1343 C1339 1.400 . S
C1343 C1342 1.385 . S
C1344 C1342 1.478 . S
C1344 C1346 1.381 . S
C1344 C1350 1.383 . S
C1345 C1341 1.495 . S
C1345 H1351 0.959 . S
C1345 H1352 0.961 . S
C1345 H1353 0.960 . S
C1346 C1344 1.381 . S
C1346 C1347 1.394 . S
C1346 H1354 0.930 . S
C1347 C1346 1.394 . S
C1347 C1348 1.383 . S
C1347 H1355 0.929 . S
C1348 C1347 1.383 . S
C1348 C1349 1.377 . S
C1349 H1333 0.930 . S
C1349 C1348 1.377 . S
C1349 C1350 1.379 . S
C1350 H1334 0.931 . S
C1350 C1344 1.383 . S
C1350 C1349 1.379 . S
H1351 C1345 0.959 . S
H1352 C1345 0.961 . S
H1353 C1345 0.960 . S
H1354 C1346 0.930 . S
H1355 C1347 0.929 . S
H1356 C1364 0.929 . S
H1357 C1366 0.930 . S
H1358 C1368 0.930 . S
H1359 C1371 0.929 . S
H1360 C1374 0.930 . S
H1361 C1376 0.960 . S
H1362 C1376 0.960 . S
H1363 C1376 0.960 . S
C1364 H1356 0.929 . S
C1364 C1365 1.377 . S
C1364 C1366 1.384 . S
C1365 C1364 1.377 . S
C1365 C1371 1.390 . S
C1366 H1357 0.930 . S
C1366 C1364 1.384 . S
C1366 C1367 1.372 . S
C1367 C1366 1.372 . S
C1367 C1368 1.400 . S
C1367 C1372 1.490 . S
C1368 H1358 0.930 . S
C1368 C1367 1.400 . S
C1368 C1371 1.386 . S
H1369 C1385 0.930 . S
H1370 C1386 0.931 . S
C1371 H1359 0.929 . S
C1371 C1365 1.390 . S
C1371 C1368 1.386 . S
C1372 C1367 1.490 . S
C1372 C1374 1.395 . S
C1372 C1375 1.403 . S
H1373 C1379 0.930 . S
C1374 H1360 0.930 . S
C1374 C1372 1.395 . S
C1374 C1377 1.403 . S
C1375 C1372 1.403 . S
C1375 C1376 1.524 . S
C1375 C1379 1.400 . S
C1376 H1361 0.960 . S
C1376 H1362 0.960 . S
C1376 H1363 0.960 . S
C1376 C1375 1.524 . S
C1377 C1374 1.403 . S
C1377 C1378 1.392 . S
C1377 C1381 1.495 . S
C1378 C1377 1.392 . S
C1378 C1379 1.385 . S
C1378 C1380 1.478 . S
C1379 H1373 0.930 . S
C1379 C1375 1.400 . S
C1379 C1378 1.385 . S
C1380 C1378 1.478 . S
C1380 C1382 1.381 . S
C1380 C1386 1.383 . S
C1381 C1377 1.495 . S
C1381 H1387 0.959 . S
C1381 H1388 0.961 . S
C1381 H1389 0.960 . S
C1382 C1380 1.381 . S
C1382 C1383 1.394 . S
C1382 H1390 0.930 . S
C1383 C1382 1.394 . S
C1383 C1384 1.383 . S
C1383 H1391 0.929 . S
C1384 C1383 1.383 . S
C1384 C1385 1.377 . S
C1385 H1369 0.930 . S
C1385 C1384 1.377 . S
C1385 C1386 1.379 . S
C1386 H1370 0.931 . S
C1386 C1380 1.383 . S
C1386 C1385 1.379 . S
H1387 C1381 0.959 . S
H1388 C1381 0.961 . S
H1389 C1381 0.960 . S
H1390 C1382 0.930 . S
H1391 C1383 0.929 . S
H1392 C1400 0.929 . S
H1393 C1402 0.930 . S
H1394 C1404 0.930 . S
H1395 C1407 0.929 . S
H1396 C1410 0.930 . S
H1397 C1412 0.960 . S
H1398 C1412 0.960 . S
H1399 C1412 0.960 . S
C1400 H1392 0.929 . S
C1400 C1401 1.377 . S
C1400 C1402 1.384 . S
C1401 C1400 1.377 . S
C1401 C1407 1.390 . S
C1402 H1393 0.930 . S
C1402 C1400 1.384 . S
C1402 C1403 1.372 . S
C1403 C1402 1.372 . S
C1403 C1404 1.400 . S
C1403 C1408 1.490 . S
C1404 H1394 0.930 . S
C1404 C1403 1.400 . S
C1404 C1407 1.386 . S
H1405 C1421 0.930 . S
H1406 C1422 0.931 . S
C1407 H1395 0.929 . S
C1407 C1401 1.390 . S
C1407 C1404 1.386 . S
C1408 C1403 1.490 . S
C1408 C1410 1.395 . S
C1408 C1411 1.403 . S
H1409 C1415 0.930 . S
C1410 H1396 0.930 . S
C1410 C1408 1.395 . S
C1410 C1413 1.403 . S
C1411 C1408 1.403 . S
C1411 C1412 1.524 . S
C1411 C1415 1.400 . S
C1412 H1397 0.960 . S
C1412 H1398 0.960 . S
C1412 H1399 0.960 . S
C1412 C1411 1.524 . S
C1413 C1410 1.403 . S
C1413 C1414 1.392 . S
C1413 C1417 1.495 . S
C1414 C1413 1.392 . S
C1414 C1415 1.385 . S
C1414 C1416 1.478 . S
C1415 H1409 0.930 . S
C1415 C1411 1.400 . S
C1415 C1414 1.385 . S
C1416 C1414 1.478 . S
C1416 C1418 1.381 . S
C1416 C1422 1.383 . S
C1417 C1413 1.495 . S
C1417 H1423 0.959 . S
C1417 H1424 0.961 . S
C1417 H1425 0.960 . S
C1418 C1416 1.381 . S
C1418 C1419 1.394 . S
C1418 H1426 0.930 . S
C1419 C1418 1.394 . S
C1419 C1420 1.383 . S
C1419 H1427 0.929 . S
C1420 C1419 1.383 . S
C1420 C1421 1.377 . S
C1421 H1405 0.930 . S
C1421 C1420 1.377 . S
C1421 C1422 1.379 . S
C1422 H1406 0.931 . S
C1422 C1416 1.383 . S
C1422 C1421 1.379 . S
H1423 C1417 0.959 . S
H1424 C1417 0.961 . S
H1425 C1417 0.960 . S
H1426 C1418 0.930 . S
H1427 C1419 0.929 . S
H1428 C1436 0.929 . S
H1429 C1438 0.930 . S
H1430 C1440 0.930 . S
H1431 C1443 0.929 . S
H1432 C1446 0.930 . S
H1433 C1448 0.960 . S
H1434 C1448 0.960 . S
H1435 C1448 0.960 . S
C1436 H1428 0.929 . S
C1436 C1437 1.377 . S
C1436 C1438 1.384 . S
C1437 C1436 1.377 . S
C1437 C1443 1.390 . S
C1438 H1429 0.930 . S
C1438 C1436 1.384 . S
C1438 C1439 1.372 . S
C1439 C1438 1.372 . S
C1439 C1440 1.400 . S
C1439 C1444 1.490 . S
C1440 H1430 0.930 . S
C1440 C1439 1.400 . S
C1440 C1443 1.386 . S
H1441 C1457 0.930 . S
H1442 C1458 0.931 . S
C1443 H1431 0.929 . S
C1443 C1437 1.390 . S
C1443 C1440 1.386 . S
C1444 C1439 1.490 . S
C1444 C1446 1.395 . S
C1444 C1447 1.403 . S
H1445 C1451 0.930 . S
C1446 H1432 0.930 . S
C1446 C1444 1.395 . S
C1446 C1449 1.403 . S
C1447 C1444 1.403 . S
C1447 C1448 1.524 . S
C1447 C1451 1.400 . S
C1448 H1433 0.960 . S
C1448 H1434 0.960 . S
C1448 H1435 0.960 . S
C1448 C1447 1.524 . S
C1449 C1446 1.403 . S
C1449 C1450 1.392 . S
C1449 C1453 1.495 . S
C1450 C1449 1.392 . S
C1450 C1451 1.385 . S
C1450 C1452 1.478 . S
C1451 H1445 0.930 . S
C1451 C1447 1.400 . S
C1451 C1450 1.385 . S
C1452 C1450 1.478 . S
C1452 C1454 1.381 . S
C1452 C1458 1.383 . S
C1453 C1449 1.495 . S
C1453 H1459 0.959 . S
C1453 H1460 0.961 . S
C1453 H1461 0.960 . S
C1454 C1452 1.381 . S
C1454 C1455 1.394 . S
C1454 H1462 0.930 . S
C1455 C1454 1.394 . S
C1455 C1456 1.383 . S
C1455 H1463 0.929 . S
C1456 C1455 1.383 . S
C1456 C1457 1.377 . S
C1457 H1441 0.930 . S
C1457 C1456 1.377 . S
C1457 C1458 1.379 . S
C1458 H1442 0.931 . S
C1458 C1452 1.383 . S
C1458 C1457 1.379 . S
H1459 C1453 0.959 . S
H1460 C1453 0.961 . S
H1461 C1453 0.960 . S
H1462 C1454 0.930 . S
H1463 C1455 0.929 . S
H1464 C1472 0.929 . S
H1465 C1474 0.930 . S
H1466 C1476 0.930 . S
H1467 C1479 0.929 . S
H1468 C1482 0.930 . S
H1469 C1484 0.960 . S
H1470 C1484 0.960 . S
H1471 C1484 0.960 . S
C1472 H1464 0.929 . S
C1472 C1473 1.377 . S
C1472 C1474 1.384 . S
C1473 C1472 1.377 . S
C1473 C1479 1.390 . S
C1474 H1465 0.930 . S
C1474 C1472 1.384 . S
C1474 C1475 1.372 . S
C1475 C1474 1.372 . S
C1475 C1476 1.400 . S
C1475 C1480 1.490 . S
C1476 H1466 0.930 . S
C1476 C1475 1.400 . S
C1476 C1479 1.386 . S
H1477 C1493 0.930 . S
H1478 C1494 0.931 . S
C1479 H1467 0.929 . S
C1479 C1473 1.390 . S
C1479 C1476 1.386 . S
C1480 C1475 1.490 . S
C1480 C1482 1.395 . S
C1480 C1483 1.403 . S
H1481 C1487 0.930 . S
C1482 H1468 0.930 . S
C1482 C1480 1.395 . S
C1482 C1485 1.403 . S
C1483 C1480 1.403 . S
C1483 C1484 1.524 . S
C1483 C1487 1.400 . S
C1484 H1469 0.960 . S
C1484 H1470 0.960 . S
C1484 H1471 0.960 . S
C1484 C1483 1.524 . S
C1485 C1482 1.403 . S
C1485 C1486 1.392 . S
C1485 C1489 1.495 . S
C1486 C1485 1.392 . S
C1486 C1487 1.385 . S
C1486 C1488 1.478 . S
C1487 H1481 0.930 . S
C1487 C1483 1.400 . S
C1487 C1486 1.385 . S
C1488 C1486 1.478 . S
C1488 C1490 1.381 . S
C1488 C1494 1.383 . S
C1489 C1485 1.495 . S
C1489 H1495 0.959 . S
C1489 H1496 0.961 . S
C1489 H1497 0.960 . S
C1490 C1488 1.381 . S
C1490 C1491 1.394 . S
C1490 H1498 0.930 . S
C1491 C1490 1.394 . S
C1491 C1492 1.383 . S
C1491 H1499 0.929 . S
C1492 C1491 1.383 . S
C1492 C1493 1.377 . S
C1493 H1477 0.930 . S
C1493 C1492 1.377 . S
C1493 C1494 1.379 . S
C1494 H1478 0.931 . S
C1494 C1488 1.383 . S
C1494 C1493 1.379 . S
H1495 C1489 0.959 . S
H1496 C1489 0.961 . S
H1497 C1489 0.960 . S
H1498 C1490 0.930 . S
H1499 C1491 0.929 . S
H1500 C1508 0.929 . S
H1501 C1510 0.930 . S
H1502 C1512 0.930 . S
H1503 C1515 0.929 . S
H1504 C1518 0.930 . S
H1505 C1520 0.960 . S
H1506 C1520 0.960 . S
H1507 C1520 0.960 . S
C1508 H1500 0.929 . S
C1508 C1509 1.377 . S
C1508 C1510 1.384 . S
C1509 C1508 1.377 . S
C1509 C1515 1.390 . S
C1510 H1501 0.930 . S
C1510 C1508 1.384 . S
C1510 C1511 1.372 . S
C1511 C1510 1.372 . S
C1511 C1512 1.400 . S
C1511 C1516 1.490 . S
C1512 H1502 0.930 . S
C1512 C1511 1.400 . S
C1512 C1515 1.386 . S
H1513 C1529 0.930 . S
H1514 C1530 0.931 . S
C1515 H1503 0.929 . S
C1515 C1509 1.390 . S
C1515 C1512 1.386 . S
C1516 C1511 1.490 . S
C1516 C1518 1.395 . S
C1516 C1519 1.403 . S
H1517 C1523 0.930 . S
C1518 H1504 0.930 . S
C1518 C1516 1.395 . S
C1518 C1521 1.403 . S
C1519 C1516 1.403 . S
C1519 C1520 1.524 . S
C1519 C1523 1.400 . S
C1520 H1505 0.960 . S
C1520 H1506 0.960 . S
C1520 H1507 0.960 . S
C1520 C1519 1.524 . S
C1521 C1518 1.403 . S
C1521 C1522 1.392 . S
C1521 C1525 1.495 . S
C1522 C1521 1.392 . S
C1522 C1523 1.385 . S
C1522 C1524 1.478 . S
C1523 H1517 0.930 . S
C1523 C1519 1.400 . S
C1523 C1522 1.385 . S
C1524 C1522 1.478 . S
C1524 C1526 1.381 . S
C1524 C1530 1.383 . S
C1525 C1521 1.495 . S
C1525 H1531 0.959 . S
C1525 H1532 0.961 . S
C1525 H1533 0.960 . S
C1526 C1524 1.381 . S
C1526 C1527 1.394 . S
C1526 H1534 0.930 . S
C1527 C1526 1.394 . S
C1527 C1528 1.383 . S
C1527 H1535 0.929 . S
C1528 C1527 1.383 . S
C1528 C1529 1.377 . S
C1529 H1513 0.930 . S
C1529 C1528 1.377 . S
C1529 C1530 1.379 . S
C1530 H1514 0.931 . S
C1530 C1524 1.383 . S
C1530 C1529 1.379 . S
H1531 C1525 0.959 . S
H1532 C1525 0.961 . S
H1533 C1525 0.960 . S
H1534 C1526 0.930 . S
H1535 C1527 0.929 . S
H1536 C1544 0.929 . S
H1537 C1546 0.930 . S
H1538 C1548 0.930 . S
H1539 C1551 0.929 . S
H1540 C1554 0.930 . S
H1541 C1556 0.960 . S
H1542 C1556 0.960 . S
H1543 C1556 0.960 . S
C1544 H1536 0.929 . S
C1544 C1545 1.377 . S
C1544 C1546 1.384 . S
C1545 C1544 1.377 . S
C1545 C1551 1.390 . S
C1546 H1537 0.930 . S
C1546 C1544 1.384 . S
C1546 C1547 1.372 . S
C1547 C1546 1.372 . S
C1547 C1548 1.400 . S
C1547 C1552 1.490 . S
C1548 H1538 0.930 . S
C1548 C1547 1.400 . S
C1548 C1551 1.386 . S
H1549 C1565 0.930 . S
H1550 C1566 0.931 . S
C1551 H1539 0.929 . S
C1551 C1545 1.390 . S
C1551 C1548 1.386 . S
C1552 C1547 1.490 . S
C1552 C1554 1.395 . S
C1552 C1555 1.403 . S
H1553 C1559 0.930 . S
C1554 H1540 0.930 . S
C1554 C1552 1.395 . S
C1554 C1557 1.403 . S
C1555 C1552 1.403 . S
C1555 C1556 1.524 . S
C1555 C1559 1.400 . S
C1556 H1541 0.960 . S
C1556 H1542 0.960 . S
C1556 H1543 0.960 . S
C1556 C1555 1.524 . S
C1557 C1554 1.403 . S
C1557 C1558 1.392 . S
C1557 C1561 1.495 . S
C1558 C1557 1.392 . S
C1558 C1559 1.385 . S
C1558 C1560 1.478 . S
C1559 H1553 0.930 . S
C1559 C1555 1.400 . S
C1559 C1558 1.385 . S
C1560 C1558 1.478 . S
C1560 C1562 1.381 . S
C1560 C1566 1.383 . S
C1561 C1557 1.495 . S
C1561 H1567 0.959 . S
C1561 H1568 0.961 . S
C1561 H1569 0.960 . S
C1562 C1560 1.381 . S
C1562 C1563 1.394 . S
C1562 H1570 0.930 . S
C1563 C1562 1.394 . S
C1563 C1564 1.383 . S
C1563 H1571 0.929 . S
C1564 C1563 1.383 . S
C1564 C1565 1.377 . S
C1565 H1549 0.930 . S
C1565 C1564 1.377 . S
C1565 C1566 1.379 . S
C1566 H1550 0.931 . S
C1566 C1560 1.383 . S
C1566 C1565 1.379 . S
H1567 C1561 0.959 . S
H1568 C1561 0.961 . S
H1569 C1561 0.960 . S
H1570 C1562 0.930 . S
H1571 C1563 0.929 . S
H1572 C1580 0.929 . S
H1573 C1582 0.930 . S
H1574 C1584 0.930 . S
H1575 C1587 0.929 . S
H1576 C1590 0.930 . S
H1577 C1592 0.960 . S
H1578 C1592 0.960 . S
H1579 C1592 0.960 . S
C1580 H1572 0.929 . S
C1580 C1581 1.377 . S
C1580 C1582 1.384 . S
C1581 C1580 1.377 . S
C1581 C1587 1.390 . S
C1582 H1573 0.930 . S
C1582 C1580 1.384 . S
C1582 C1583 1.372 . S
C1583 C1582 1.372 . S
C1583 C1584 1.400 . S
C1583 C1588 1.490 . S
C1584 H1574 0.930 . S
C1584 C1583 1.400 . S
C1584 C1587 1.386 . S
H1585 C1601 0.930 . S
H1586 C1602 0.931 . S
C1587 H1575 0.929 . S
C1587 C1581 1.390 . S
C1587 C1584 1.386 . S
C1588 C1583 1.490 . S
C1588 C1590 1.395 . S
C1588 C1591 1.403 . S
H1589 C1595 0.930 . S
C1590 H1576 0.930 . S
C1590 C1588 1.395 . S
C1590 C1593 1.403 . S
C1591 C1588 1.403 . S
C1591 C1592 1.524 . S
C1591 C1595 1.400 . S
C1592 H1577 0.960 . S
C1592 H1578 0.960 . S
C1592 H1579 0.960 . S
C1592 C1591 1.524 . S
C1593 C1590 1.403 . S
C1593 C1594 1.392 . S
C1593 C1597 1.495 . S
C1594 C1593 1.392 . S
C1594 C1595 1.385 . S
C1594 C1596 1.478 . S
C1595 H1589 0.930 . S
C1595 C1591 1.400 . S
C1595 C1594 1.385 . S
C1596 C1594 1.478 . S
C1596 C1598 1.381 . S
C1596 C1602 1.383 . S
C1597 C1593 1.495 . S
C1597 H1603 0.959 . S
C1597 H1604 0.961 . S
C1597 H1605 0.960 . S
C1598 C1596 1.381 . S
C1598 C1599 1.394 . S
C1598 H1606 0.930 . S
C1599 C1598 1.394 . S
C1599 C1600 1.383 . S
C1599 H1607 0.929 . S
C1600 C1599 1.383 . S
C1600 C1601 1.377 . S
C1601 H1585 0.930 . S
C1601 C1600 1.377 . S
C1601 C1602 1.379 . S
C1602 H1586 0.931 . S
C1602 C1596 1.383 . S
C1602 C1601 1.379 . S
H1603 C1597 0.959 . S
H1604 C1597 0.961 . S
H1605 C1597 0.960 . S
H1606 C1598 0.930 . S
H1607 C1599 0.929 . S
H1608 C1616 0.929 . S
H1609 C1618 0.930 . S
H1610 C1620 0.930 . S
H1611 C1623 0.929 . S
H1612 C1626 0.930 . S
H1613 C1628 0.960 . S
H1614 C1628 0.960 . S
H1615 C1628 0.960 . S
C1616 H1608 0.929 . S
C1616 C1617 1.377 . S
C1616 C1618 1.384 . S
C1617 C1616 1.377 . S
C1617 C1623 1.390 . S
C1618 H1609 0.930 . S
C1618 C1616 1.384 . S
C1618 C1619 1.372 . S
C1619 C1618 1.372 . S
C1619 C1620 1.400 . S
C1619 C1624 1.490 . S
C1620 H1610 0.930 . S
C1620 C1619 1.400 . S
C1620 C1623 1.386 . S
H1621 C1637 0.930 . S
H1622 C1638 0.931 . S
C1623 H1611 0.929 . S
C1623 C1617 1.390 . S
C1623 C1620 1.386 . S
C1624 C1619 1.490 . S
C1624 C1626 1.395 . S
C1624 C1627 1.403 . S
H1625 C1631 0.930 . S
C1626 H1612 0.930 . S
C1626 C1624 1.395 . S
C1626 C1629 1.403 . S
C1627 C1624 1.403 . S
C1627 C1628 1.524 . S
C1627 C1631 1.400 . S
C1628 H1613 0.960 . S
C1628 H1614 0.960 . S
C1628 H1615 0.960 . S
C1628 C1627 1.524 . S
C1629 C1626 1.403 . S
C1629 C1630 1.392 . S
C1629 C1633 1.495 . S
C1630 C1629 1.392 . S
C1630 C1631 1.385 . S
C1630 C1632 1.478 . S
C1631 H1625 0.930 . S
C1631 C1627 1.400 . S
C1631 C1630 1.385 . S
C1632 C1630 1.478 . S
C1632 C1634 1.381 . S
C1632 C1638 1.383 . S
C1633 C1629 1.495 . S
C1633 H1639 0.959 . S
C1633 H1640 0.961 . S
C1633 H1641 0.960 . S
C1634 C1632 1.381 . S
C1634 C1635 1.394 . S
C1634 H1642 0.930 . S
C1635 C1634 1.394 . S
C1635 C1636 1.383 . S
C1635 H1643 0.929 . S
C1636 C1635 1.383 . S
C1636 C1637 1.377 . S
C1637 H1621 0.930 . S
C1637 C1636 1.377 . S
C1637 C1638 1.379 . S
C1638 H1622 0.931 . S
C1638 C1632 1.383 . S
C1638 C1637 1.379 . S
H1639 C1633 0.959 . S
H1640 C1633 0.961 . S
H1641 C1633 0.960 . S
H1642 C1634 0.930 . S
H1643 C1635 0.929 . S
H1644 C1652 0.929 . S
H1645 C1654 0.930 . S
H1646 C1656 0.930 . S
H1647 C1659 0.929 . S
H1648 C1662 0.930 . S
H1649 C1664 0.960 . S
H1650 C1664 0.960 . S
H1651 C1664 0.960 . S
C1652 H1644 0.929 . S
C1652 C1653 1.377 . S
C1652 C1654 1.384 . S
C1653 C1652 1.377 . S
C1653 C1659 1.390 . S
C1654 H1645 0.930 . S
C1654 C1652 1.384 . S
C1654 C1655 1.372 . S
C1655 C1654 1.372 . S
C1655 C1656 1.400 . S
C1655 C1660 1.490 . S
C1656 H1646 0.930 . S
C1656 C1655 1.400 . S
C1656 C1659 1.386 . S
H1657 C1673 0.930 . S
H1658 C1674 0.931 . S
C1659 H1647 0.929 . S
C1659 C1653 1.390 . S
C1659 C1656 1.386 . S
C1660 C1655 1.490 . S
C1660 C1662 1.395 . S
C1660 C1663 1.403 . S
H1661 C1667 0.930 . S
C1662 H1648 0.930 . S
C1662 C1660 1.395 . S
C1662 C1665 1.403 . S
C1663 C1660 1.403 . S
C1663 C1664 1.524 . S
C1663 C1667 1.400 . S
C1664 H1649 0.960 . S
C1664 H1650 0.960 . S
C1664 H1651 0.960 . S
C1664 C1663 1.524 . S
C1665 C1662 1.403 . S
C1665 C1666 1.392 . S
C1665 C1669 1.495 . S
C1666 C1665 1.392 . S
C1666 C1667 1.385 . S
C1666 C1668 1.478 . S
C1667 H1661 0.930 . S
C1667 C1663 1.400 . S
C1667 C1666 1.385 . S
C1668 C1666 1.478 . S
C1668 C1670 1.381 . S
C1668 C1674 1.383 . S
C1669 C1665 1.495 . S
C1669 H1675 0.959 . S
C1669 H1676 0.961 . S
C1669 H1677 0.960 . S
C1670 C1668 1.381 . S
C1670 C1671 1.394 . S
C1670 H1678 0.930 . S
C1671 C1670 1.394 . S
C1671 C1672 1.383 . S
C1671 H1679 0.929 . S
C1672 C1671 1.383 . S
C1672 C1673 1.377 . S
C1673 H1657 0.930 . S
C1673 C1672 1.377 . S
C1673 C1674 1.379 . S
C1674 H1658 0.931 . S
C1674 C1668 1.383 . S
C1674 C1673 1.379 . S
H1675 C1669 0.959 . S
H1676 C1669 0.961 . S
H1677 C1669 0.960 . S
H1678 C1670 0.930 . S
H1679 C1671 0.929 . S
H1680 C1688 0.929 . S
H1681 C1690 0.930 . S
H1682 C1692 0.930 . S
H1683 C1695 0.929 . S
H1684 C1698 0.930 . S
H1685 C1700 0.960 . S
H1686 C1700 0.960 . S
H1687 C1700 0.960 . S
C1688 H1680 0.929 . S
C1688 C1689 1.377 . S
C1688 C1690 1.384 . S
C1689 C1688 1.377 . S
C1689 C1695 1.390 . S
C1690 H1681 0.930 . S
C1690 C1688 1.384 . S
C1690 C1691 1.372 . S
C1691 C1690 1.372 . S
C1691 C1692 1.400 . S
C1691 C1696 1.490 . S
C1692 H1682 0.930 . S
C1692 C1691 1.400 . S
C1692 C1695 1.386 . S
H1693 C1709 0.930 . S
H1694 C1710 0.931 . S
C1695 H1683 0.929 . S
C1695 C1689 1.390 . S
C1695 C1692 1.386 . S
C1696 C1691 1.490 . S
C1696 C1698 1.395 . S
C1696 C1699 1.403 . S
H1697 C1703 0.930 . S
C1698 H1684 0.930 . S
C1698 C1696 1.395 . S
C1698 C1701 1.403 . S
C1699 C1696 1.403 . S
C1699 C1700 1.524 . S
C1699 C1703 1.400 . S
C1700 H1685 0.960 . S
C1700 H1686 0.960 . S
C1700 H1687 0.960 . S
C1700 C1699 1.524 . S
C1701 C1698 1.403 . S
C1701 C1702 1.392 . S
C1701 C1705 1.495 . S
C1702 C1701 1.392 . S
C1702 C1703 1.385 . S
C1702 C1704 1.478 . S
C1703 H1697 0.930 . S
C1703 C1699 1.400 . S
C1703 C1702 1.385 . S
C1704 C1702 1.478 . S
C1704 C1706 1.381 . S
C1704 C1710 1.383 . S
C1705 C1701 1.495 . S
C1705 H1711 0.959 . S
C1705 H1712 0.961 . S
C1705 H1713 0.960 . S
C1706 C1704 1.381 . S
C1706 C1707 1.394 . S
C1706 H1714 0.930 . S
C1707 C1706 1.394 . S
C1707 C1708 1.383 . S
C1707 H1715 0.929 . S
C1708 C1707 1.383 . S
C1708 C1709 1.377 . S
C1709 H1693 0.930 . S
C1709 C1708 1.377 . S
C1709 C1710 1.379 . S
C1710 H1694 0.931 . S
C1710 C1704 1.383 . S
C1710 C1709 1.379 . S
H1711 C1705 0.959 . S
H1712 C1705 0.961 . S
H1713 C1705 0.960 . S
H1714 C1706 0.930 . S
H1715 C1707 0.929 . S
H1716 C1724 0.929 . S
H1717 C1726 0.930 . S
H1718 C1728 0.930 . S
H1719 C1731 0.929 . S
H1720 C1734 0.930 . S
H1721 C1736 0.960 . S
H1722 C1736 0.960 . S
H1723 C1736 0.960 . S
C1724 H1716 0.929 . S
C1724 C1725 1.377 . S
C1724 C1726 1.384 . S
C1725 C1724 1.377 . S
C1725 C1731 1.390 . S
C1726 H1717 0.930 . S
C1726 C1724 1.384 . S
C1726 C1727 1.372 . S
C1727 C1726 1.372 . S
C1727 C1728 1.400 . S
C1727 C1732 1.490 . S
C1728 H1718 0.930 . S
C1728 C1727 1.400 . S
C1728 C1731 1.386 . S
H1729 C1745 0.930 . S
H1730 C1746 0.931 . S
C1731 H1719 0.929 . S
C1731 C1725 1.390 . S
C1731 C1728 1.386 . S
C1732 C1727 1.490 . S
C1732 C1734 1.395 . S
C1732 C1735 1.403 . S
H1733 C1739 0.930 . S
C1734 H1720 0.930 . S
C1734 C1732 1.395 . S
C1734 C1737 1.403 . S
C1735 C1732 1.403 . S
C1735 C1736 1.524 . S
C1735 C1739 1.400 . S
C1736 H1721 0.960 . S
C1736 H1722 0.960 . S
C1736 H1723 0.960 . S
C1736 C1735 1.524 . S
C1737 C1734 1.403 . S
C1737 C1738 1.392 . S
C1737 C1741 1.495 . S
C1738 C1737 1.392 . S
C1738 C1739 1.385 . S
C1738 C1740 1.478 . S
C1739 H1733 0.930 . S
C1739 C1735 1.400 . S
C1739 C1738 1.385 . S
C1740 C1738 1.478 . S
C1740 C1742 1.381 . S
C1740 C1746 1.383 . S
C1741 C1737 1.495 . S
C1741 H1747 0.959 . S
C1741 H1748 0.961 . S
C1741 H1749 0.960 . S
C1742 C1740 1.381 . S
C1742 C1743 1.394 . S
C1742 H1750 0.930 . S
C1743 C1742 1.394 . S
C1743 C1744 1.383 . S
C1743 H1751 0.929 . S
C1744 C1743 1.383 . S
C1744 C1745 1.377 . S
C1745 H1729 0.930 . S
C1745 C1744 1.377 . S
C1745 C1746 1.379 . S
C1746 H1730 0.931 . S
C1746 C1740 1.383 . S
C1746 C1745 1.379 . S
H1747 C1741 0.959 . S
H1748 C1741 0.961 . S
H1749 C1741 0.960 . S
H1750 C1742 0.930 . S
H1751 C1743 0.929 . S
C628 C509 1.335 . S
C609 C35 1.297 . S
C664 C527 1.323 . S
C645 C115 1.305 . S
C700 C535 1.327 . S
C681 C177 1.305 . S
C717 C221 1.282 . S
C736 C501 1.393 . S
C753 C283 1.297 . S
C772 C496 1.338 . S
C789 C363 1.305 . S
C808 C514 1.342 . S
C844 C522 1.321 . S
C825 C407 1.301 . S
C880 C540 1.324 . S
C861 C469 1.302 . S
C897 C159 1.280 . S
C916 C561 1.368 . S
C952 C579 1.383 . S
C933 C239 1.288 . S
C969 C53 1.297 . S
C988 C587 1.319 . S
C1024 C553 1.376 . S
C1005 C97 1.289 . S
C1041 C425 1.287 . S
C1060 C548 1.366 . S
C1077 C487 1.291 . S
C1096 C566 1.375 . S
C1132 C574 1.340 . S
C1113 C301 1.309 . S
C1149 C345 1.283 . S
C1168 C592 1.384 . S
C1204 C530 1.627 . S
C1185 C29 1.615 . S
C1240 C545 1.624 . S
C1221 C109 1.586 . S
C1257 C171 1.582 . S
C1276 C504 1.637 . S
C1293 C215 1.614 . S
C1312 C519 1.621 . S
C1329 C277 1.610 . S
C1348 C543 1.639 . S
C1384 C506 1.585 . S
C1365 C357 1.587 . S
C1420 C517 1.638 . S
C1401 C401 1.610 . S
C1456 C532 1.599 . S
C1437 C463 1.609 . S
C1492 C582 1.630 . S
C1473 C153 1.608 . S
C1528 C597 1.616 . S
C1509 C233 1.581 . S
C1545 C47 1.590 . S
C1564 C556 1.622 . S
C1600 C571 1.619 . S
C1581 C91 1.617 . S
C1636 C595 1.630 . S
C1617 C419 1.585 . S
C1653 C481 1.582 . S
C1672 C558 1.587 . S
C1708 C569 1.627 . S
C1689 C295 1.591 . S
C1744 C584 1.615 . S
C1725 C339 1.613 . S
