# Generated by pormake.
# Topology anh, (6,3)-cn, num edge types: 1
# Building blocks:
#     Node 0, Type 0, BuildingBlock: PAMTOO_clean_sbu_0, # of connection points: 6
#     Node 1, Type 0, BuildingBlock: PAMTOO_clean_sbu_0, # of connection points: 6
#     Node 2, Type 0, BuildingBlock: PAMTOO_clean_sbu_0, # of connection points: 6
#     Node 3, Type 1, BuildingBlock: PAMTOO_clean_linker_0, # of connection points: 3
#     Node 4, Type 1, BuildingBlock: PAMTOO_clean_linker_0, # of connection points: 3
#     Node 5, Type 1, BuildingBlock: PAMTOO_clean_linker_0, # of connection points: 3
#     Node 6, Type 1, BuildingBlock: PAMTOO_clean_linker_0, # of connection points: 3
#     Node 7, Type 1, BuildingBlock: PAMTOO_clean_linker_0, # of connection points: 3
#     Node 8, Type 1, BuildingBlock: PAMTOO_clean_linker_0, # of connection points: 3
#     Edge 9, Type (0, 1), BuildingBlock: KIFKEQ_clean_linker_1, # of connection points: 2
#     Edge 10, Type (0, 1), BuildingBlock: KIFKEQ_clean_linker_1, # of connection points: 2
#     Edge 11, Type (0, 1), BuildingBlock: KIFKEQ_clean_linker_1, # of connection points: 2
#     Edge 12, Type (0, 1), BuildingBlock: KIFKEQ_clean_linker_1, # of connection points: 2
#     Edge 13, Type (0, 1), BuildingBlock: KIFKEQ_clean_linker_1, # of connection points: 2
#     Edge 14, Type (0, 1), BuildingBlock: KIFKEQ_clean_linker_1, # of connection points: 2
#     Edge 15, Type (0, 1), BuildingBlock: KIFKEQ_clean_linker_1, # of connection points: 2
#     Edge 16, Type (0, 1), BuildingBlock: KIFKEQ_clean_linker_1, # of connection points: 2
#     Edge 17, Type (0, 1), BuildingBlock: KIFKEQ_clean_linker_1, # of connection points: 2
#     Edge 18, Type (0, 1), BuildingBlock: KIFKEQ_clean_linker_1, # of connection points: 2
#     Edge 19, Type (0, 1), BuildingBlock: KIFKEQ_clean_linker_1, # of connection points: 2
#     Edge 20, Type (0, 1), BuildingBlock: KIFKEQ_clean_linker_1, # of connection points: 2
#     Edge 21, Type (0, 1), BuildingBlock: KIFKEQ_clean_linker_1, # of connection points: 2
#     Edge 22, Type (0, 1), BuildingBlock: KIFKEQ_clean_linker_1, # of connection points: 2
#     Edge 23, Type (0, 1), BuildingBlock: KIFKEQ_clean_linker_1, # of connection points: 2
#     Edge 24, Type (0, 1), BuildingBlock: KIFKEQ_clean_linker_1, # of connection points: 2
#     Edge 25, Type (0, 1), BuildingBlock: KIFKEQ_clean_linker_1, # of connection points: 2
#     Edge 26, Type (0, 1), BuildingBlock: KIFKEQ_clean_linker_1, # of connection points: 2
# Relax obj value: 0.160
# Max RMSD: 0.158
# Mean RMSD: 0.118
data_MOF--net-anh--node1-PAMTOO_clean_sbu_0--node2-PAMTOO_clean_linker_0--edge1-KIFKEQ_clean_linker_1
_symmetry_space_group_name_H-M    P1
_symmetry_Int_Tables_number       1
_symmetry_cell_setting            triclinic
loop_
_symmetry_equiv_pos_as_xyz
'x, y, z'
_cell_length_a     30.647478
_cell_length_b     29.793489
_cell_length_c     50.116419
_cell_angle_alpha  86.386439
_cell_angle_beta   95.909203
_cell_angle_gamma 101.59501
loop_
_atom_site_label
_atom_site_type_symbol
_atom_site_fract_x
_atom_site_fract_y
_atom_site_fract_z
_atom_type_partial_charge
Dy0 Dy 0.15486 0.60975 0.14552 0.0
Dy1 Dy 0.13177 0.49793 0.14054 0.0
C2 C 0.14117 0.56548 0.09038 0.0
O3 O 1.08111 0.59192 0.15186 0.0
O4 O 1.06433 0.51916 0.13588 0.0
O5 O 0.17778 0.6745 0.12468 0.0
O6 O 0.15898 0.67306 0.16532 0.0
O7 O 0.1259 0.51016 0.18334 0.0
O8 O 0.17034 0.58195 0.18682 0.0
O9 O 0.20695 0.51259 0.14889 0.0
O10 O 0.22193 0.59089 0.14064 0.0
O11 O 0.13483 0.42874 0.15507 0.0
O12 O 0.09802 0.44076 0.11689 0.0
C13 C 1.0515 0.55527 0.14417 0.0
O14 O 0.12363 0.59122 0.10465 0.0
O15 O 0.15657 0.53061 0.10211 0.0
C16 C 0.21817 0.73242 0.15231 0.0
C17 C 0.29849 0.79676 0.16248 0.0
C18 C 0.26815 0.80329 0.14024 0.0
C19 C 0.22835 0.77148 0.13527 0.0
C20 C 0.24826 0.72576 0.17463 0.0
C21 C 0.28797 0.75785 0.17977 0.0
C22 C 0.1772 0.69824 0.14558 0.0
C23 C 0.14948 0.54349 0.19772 0.0
C24 C 0.23562 0.55147 0.14524 0.0
C25 C 1.0669 0.37791 0.1441 0.0
C26 C 0.98967 0.31663 0.15932 0.0
C27 C 1.00118 0.36121 0.16902 0.0
C28 C 1.03929 0.39156 0.16141 0.0
C29 C 1.05584 0.33361 0.13438 0.0
C30 C 1.01754 0.30318 0.14192 0.0
C31 C 0.10635 0.41045 0.13567 0.0
H32 H 0.27511 0.83317 0.12674 0.0
H33 H 0.20565 0.77712 0.11789 0.0
H34 H 0.24139 0.69555 0.1879 0.0
H35 H 0.31091 0.75172 0.19691 0.0
H36 H 0.981 0.37259 0.18276 0.0
H37 H 1.04723 0.42578 0.16903 0.0
H38 H 1.0766 0.32267 0.12082 0.0
H39 H 1.00942 0.26938 0.13377 0.0
Dy40 Dy 0.60001 0.02717 0.51481 0.0
Dy41 Dy 0.71019 0.05026 0.52427 0.0
C42 C 0.65101 0.03124 0.57302 0.0
O43 O 0.61784 0.10321 0.50785 0.0
O44 O 0.6894 0.11723 0.52879 0.0
O45 O 0.53641 1.00589 0.53113 0.0
O46 O 0.53862 0.02297 0.48861 0.0
O47 O 0.69105 0.0701 0.48174 0.0
O48 O 0.62683 0.01636 0.47641 0.0
O49 O 0.69319 0.97508 0.51657 0.0
O50 O 0.61861 0.95866 0.524 0.0
O51 O 0.77447 0.04658 0.51162 0.0
O52 O 0.77048 0.07994 0.54827 0.0
C53 C 0.65337 0.13162 0.518 0.0
O54 O 0.61937 0.04614 0.55744 0.0
O55 O 0.68508 0.02044 0.56291 0.0
C56 C 0.48211 0.96203 0.50176 0.0
C57 C 0.42078 0.87942 0.49194 0.0
C58 C 0.4638 0.87881 0.50458 0.0
C59 C 0.49416 0.91973 0.5094 0.0
C60 C 0.43958 0.96289 0.48874 0.0
C61 C 0.4091 0.92187 0.48381 0.0
C62 C 0.51369 1.00508 0.50764 0.0
C63 C 0.66009 0.04466 0.46618 0.0
C64 C 0.65597 0.9455 0.52034 0.0
C65 C 0.82915 0.11179 0.52214 0.0
C66 C 0.89202 0.18804 0.5054 0.0
C67 C 0.84707 0.18188 0.49471 0.0
C68 C 0.81584 0.14412 0.50309 0.0
C69 C 0.87377 0.11788 0.53303 0.0
C70 C 0.90503 0.15582 0.52476 0.0
C71 C 0.79644 0.072 0.53079 0.0
H72 H 0.47402 0.84667 0.51073 0.0
H73 H 0.52691 0.91841 0.51941 0.0
H74 H 0.42977 0.99527 0.48267 0.0
H75 H 0.37608 0.92341 0.47423 0.0
H76 H 0.83599 0.20646 0.48004 0.0
H77 H 0.78132 0.14007 0.49468 0.0
H78 H 0.88444 0.09323 0.54782 0.0
H79 H 0.93951 0.15951 0.53316 0.0
Dy80 Dy 0.68811 0.48525 0.8377 0.0
Dy81 Dy 0.57847 0.46009 0.83338 0.0
C82 C 0.6323 0.47613 0.78162 0.0
O83 O 0.66691 0.55258 0.82777 0.0
O84 O 0.59462 0.53571 0.83939 0.0
O85 O 0.74877 0.52356 0.82322 0.0
O86 O 0.75191 0.4781 0.85882 0.0
O87 O 0.60429 0.44645 0.87598 0.0
O88 O 0.66628 0.50303 0.87596 0.0
O89 O 0.59792 0.39352 0.82713 0.0
O90 O 0.67095 0.4089 0.84557 0.0
O91 O 0.51727 0.45186 0.85249 0.0
O92 O 0.51476 0.43922 0.81028 0.0
C93 C 0.63022 0.56554 0.83303 0.0
O94 O 0.66601 0.46321 0.79615 0.0
O95 O 0.59921 0.48683 0.79295 0.0
C96 C 0.81426 0.49234 0.83264 0.0
C97 C 0.89842 0.4885 0.81595 0.0
C98 C 0.86071 0.48571 0.79711 0.0
C99 C 0.8189 0.48766 0.80538 0.0
C100 C 0.85084 0.49109 0.85162 0.0
C101 C 0.89247 0.48916 0.84342 0.0
C102 C 0.77438 0.50541 0.84143 0.0
C103 C 0.63536 0.47627 0.88888 0.0
C104 C 0.63495 0.37983 0.83653 0.0
C105 C 0.46156 0.47758 0.82412 0.0
C106 C 0.40818 0.54465 0.82142 0.0
C107 C 0.45155 0.5555 0.81294 0.0
C108 C 0.47795 0.52224 0.81426 0.0
C109 C 0.4177 0.46588 0.83143 0.0
C110 C 0.39108 0.49914 0.82998 0.0
C111 C 0.49213 0.44547 0.82993 0.0
H112 H 0.864 0.48456 0.77587 0.0
H113 H 0.79094 0.48813 0.79034 0.0
H114 H 0.84798 0.49479 0.87271 0.0
H115 H 0.92063 0.49204 0.85856 0.0
H116 H 0.46609 0.59026 0.80664 0.0
H117 H 0.51194 0.53194 0.80873 0.0
H118 H 0.40467 0.43158 0.83921 0.0
H119 H 0.3576 0.48956 0.83631 0.0
H120 H 0.74317 0.11734 0.26778 0.0
H121 H 0.61838 0.02081 0.25599 0.0
H122 H 0.68729 0.0792 0.18804 0.0
H123 H 0.58654 0.06131 0.17533 0.0
C124 C 0.57907 0.04037 0.19407 0.0
O125 O 0.6165 0.0232 0.20389 0.0
H126 H 0.57027 0.0629 0.20876 0.0
C127 C 0.71672 0.0982 0.25452 0.0
C128 C 0.71981 0.10218 0.22661 0.0
C129 C 0.68047 0.06873 0.26548 0.0
C130 C 0.64706 0.04313 0.24811 0.0
C131 C 0.64958 0.04713 0.22033 0.0
C132 C 0.68598 0.07623 0.20962 0.0
H133 H 0.64767 0.61486 0.5887 0.0
H134 H 0.65965 0.47879 0.57041 0.0
H135 H 0.66917 0.58562 0.50855 0.0
H136 H 0.64271 0.48063 0.48385 0.0
C137 C 0.64007 0.47058 0.50543 0.0
O138 O 0.67366 0.49896 0.5205 0.0
H139 H 0.60638 0.47501 0.51 0.0
C140 C 0.65144 0.59059 0.57429 0.0
C141 C 0.65696 0.60589 0.5475 0.0
C142 C 0.65212 0.54489 0.58295 0.0
C143 C 0.65932 0.5143 0.56439 0.0
C144 C 0.66566 0.52897 0.53775 0.0
C145 C 0.66459 0.57472 0.52928 0.0
H146 H 0.16006 0.62447 0.88682 0.0
H147 H 0.22914 0.75883 0.91042 0.0
H148 H 0.18511 0.73494 0.8276 0.0
H149 H 0.28851 0.83127 0.87413 0.0
C150 C 0.27032 0.81317 0.85633 0.0
O151 O 0.22635 0.79594 0.86163 0.0
H152 H 0.27037 0.8392 0.83945 0.0
C153 C 0.17559 0.6595 0.88164 0.0
C154 C 0.17159 0.67555 0.85474 0.0
C155 C 0.1957 0.6891 0.90212 0.0
C156 C 0.21298 0.73529 0.89514 0.0
C157 C 0.20953 0.75148 0.86829 0.0
C158 C 0.18849 0.72179 0.84822 0.0
H159 H 0.09429 0.44268 0.39701 0.0
H160 H 0.20452 0.55687 0.41059 0.0
H161 H 0.14744 0.47872 0.47727 0.0
H162 H 0.18134 0.57586 0.49406 0.0
C163 C 0.1895 0.58618 0.47319 0.0
O164 O 0.20436 0.55094 0.46251 0.0
H165 H 0.15829 0.59302 0.46156 0.0
C166 C 0.11884 0.46381 0.41039 0.0
C167 C 0.11778 0.45525 0.43825 0.0
C168 C 0.15037 0.49987 0.39978 0.0
C169 C 0.17966 0.52884 0.41778 0.0
C170 C 0.17765 0.5216 0.44552 0.0
C171 C 0.14758 0.48444 0.45571 0.0
H172 H 0.62423 0.89387 0.76488 0.0
H173 H 0.64789 0.0354 0.78533 0.0
H174 H 0.64255 0.92967 0.84786 0.0
H175 H 0.61835 0.02429 0.86867 0.0
C176 C 0.61944 0.03546 0.84712 0.0
O177 O 0.65325 0.01897 0.83703 0.0
H178 H 0.58605 0.02057 0.83693 0.0
C179 C 0.62923 0.91945 0.77993 0.0
C180 C 0.632 0.9056 0.80731 0.0
C181 C 0.63533 0.9661 0.77176 0.0
C182 C 0.64335 0.99927 0.79128 0.0
C183 C 0.64539 0.98621 0.8186 0.0
C184 C 0.64031 0.93946 0.82665 0.0
H185 H 0.72818 0.5235 0.08764 0.0
H186 H 0.59188 0.53721 0.09102 0.0
H187 H 0.68598 0.56165 0.16112 0.0
H188 H 0.57952 0.51485 0.17201 0.0
C189 C 0.567 0.5241 0.15119 0.0
O190 O 0.5997 0.55846 0.14082 0.0
H191 H 0.56215 0.49273 0.13942 0.0
C192 C 0.7022 0.53042 0.09905 0.0
C193 C 0.71312 0.54297 0.12579 0.0
C194 C 0.65887 0.52844 0.08641 0.0
C195 C 0.62536 0.53855 0.10076 0.0
C196 C 0.63408 0.5494 0.12782 0.0
C197 C 0.67849 0.55214 0.14041 0.0
H198 H 0.30555 0.62005 0.13007 0.0
H199 H 0.27873 0.48042 0.16202 0.0
H200 H 0.38531 0.6175 0.13131 0.0
H201 H 0.35797 0.47797 0.16334 0.0
H202 H 0.50721 0.4998 0.18898 0.0
H203 H 0.4295 0.50822 0.18749 0.0
H204 H 0.44135 0.58218 0.11094 0.0
H205 H 0.51986 0.57338 0.11253 0.0
C206 C 0.31647 0.58877 0.13741 0.0
C207 C 0.28502 0.55049 0.14601 0.0
C208 C 0.36245 0.58723 0.13797 0.0
C209 C 0.37885 0.5476 0.14756 0.0
C210 C 0.3473 0.50944 0.15615 0.0
C211 C 0.30141 0.51076 0.15525 0.0
C212 C 0.4937 0.51877 0.17203 0.0
C213 C 0.5207 0.53698 0.15126 0.0
C214 C 0.44863 0.5231 0.17099 0.0
C215 C 0.42831 0.54572 0.14903 0.0
C216 C 0.45552 0.5649 0.12838 0.0
C217 C 0.50078 0.56007 0.12931 0.0
H218 H 0.9023 0.2204 0.45385 0.0
H219 H 0.95687 0.24483 0.53578 0.0
H220 H 0.95704 0.2854 0.43823 0.0
H221 H 1.0123 0.30945 0.52007 0.0
H222 H 1.0686 0.45246 0.4813 0.0
H223 H 1.01459 0.3878 0.49814 0.0
H224 H 1.03944 0.30464 0.43596 0.0
H225 H 0.09389 0.36883 0.41938 0.0
C226 C 0.92591 0.2398 0.46852 0.0
C227 C 0.92532 0.2276 0.49603 0.0
C228 C 0.9575 0.27671 0.45956 0.0
C229 C 0.989 0.30237 0.47793 0.0
C230 C 0.98822 0.29044 0.50548 0.0
C231 C 0.9568 0.25326 0.51444 0.0
C232 C 1.06295 0.42022 0.47143 0.0
C233 C 1.08543 0.41588 0.44892 0.0
C234 C 1.03197 0.38325 0.48105 0.0
C235 C 1.02267 0.3413 0.46827 0.0
C236 C 1.04541 0.33682 0.44594 0.0
C237 C 1.07652 0.37362 0.43643 0.0
H238 H 0.55754 0.60633 0.83391 0.0
H239 H 0.70051 0.6381 0.82922 0.0
H240 H 0.55592 0.68818 0.83072 0.0
H241 H 0.69877 0.71975 0.82604 0.0
H242 H 0.68652 0.86484 0.84386 0.0
H243 H 0.68481 0.78266 0.85245 0.0
H244 H 0.56741 0.7519 0.79621 0.0
H245 H 0.56896 0.83381 0.78786 0.0
C246 C 0.58866 0.63067 0.83229 0.0
C247 C 0.62914 0.61543 0.8317 0.0
C248 C 0.58769 0.67765 0.83038 0.0
C249 C 0.62723 0.71063 0.82817 0.0
C250 C 0.66777 0.69538 0.82805 0.0
C251 C 0.66869 0.64845 0.82965 0.0
C252 C 0.65991 0.84048 0.83373 0.0
C253 C 0.62799 0.85587 0.81511 0.0
C254 C 0.65918 0.7934 0.83843 0.0
C255 C 0.62615 0.76061 0.82488 0.0
C256 C 0.59316 0.77609 0.80712 0.0
C257 C 0.5942 0.82307 0.8022 0.0
H258 H 0.98036 0.48638 0.1288 0.0
H259 H 1.00881 0.62189 0.15993 0.0
H260 H 0.9006 0.48462 0.128 0.0
H261 H 0.92861 0.61973 0.15995 0.0
H262 H 0.77957 0.62002 0.12874 0.0
H263 H 0.8605 0.62368 0.13464 0.0
H264 H 0.83761 0.47718 0.15109 0.0
H265 H 0.75693 0.47397 0.14421 0.0
C266 C 0.96977 0.51588 0.13568 0.0
C267 C 1.00184 0.55438 0.14434 0.0
C268 C 0.92347 0.51471 0.13548 0.0
C269 C 0.90696 0.55192 0.14404 0.0
C270 C 0.93915 0.59041 0.15284 0.0
C271 C 0.9856 0.5916 0.15299 0.0
C272 C 0.79191 0.58887 0.13451 0.0
C273 C 0.76142 0.54688 0.13673 0.0
C274 C 0.83866 0.5908 0.13775 0.0
C275 C 0.85675 0.55069 0.14313 0.0
C276 C 0.82588 0.50894 0.14642 0.0
C277 C 0.77924 0.50707 0.14304 0.0
H278 H 0.36395 0.85386 0.44729 0.0
H279 H 0.40333 0.80677 0.52776 0.0
H280 H 0.30969 0.78224 0.44114 0.0
H281 H 0.34889 0.73563 0.52182 0.0
H282 H 0.27599 0.59583 0.49523 0.0
H283 H 0.33344 0.66581 0.49818 0.0
H284 H 0.23961 0.74282 0.45658 0.0
H285 H 0.18295 0.67253 0.45295 0.0
C286 C 0.3608 0.82831 0.4637 0.0
C287 C 0.38795 0.83588 0.48797 0.0
C288 C 0.32972 0.7873 0.46021 0.0
C289 C 0.32499 0.7531 0.48097 0.0
C290 C 0.35224 0.76079 0.50522 0.0
C291 C 0.38339 0.80163 0.50866 0.0
C292 C 0.26805 0.62773 0.48647 0.0
C293 C 0.22534 0.62885 0.47368 0.0
C294 C 0.3007 0.66783 0.48833 0.0
C295 C 0.29111 0.71 0.47768 0.0
C296 C 0.24837 0.71088 0.46464 0.0
C297 C 0.21583 0.67071 0.46268 0.0
H298 H 0.70295 0.33584 0.85677 0.0
H299 H 0.56865 0.31026 0.8174 0.0
H300 H 0.70327 0.25379 0.85783 0.0
H301 H 0.56879 0.22858 0.81885 0.0
H302 H 0.59454 0.08839 0.8037 0.0
H303 H 0.60161 0.17183 0.79986 0.0
H304 H 0.6689 0.18226 0.87999 0.0
H305 H 0.66238 0.09889 0.88344 0.0
C306 C 0.67349 0.31283 0.84834 0.0
C307 C 0.63575 0.32989 0.83704 0.0
C308 C 0.67361 0.26568 0.84906 0.0
C309 C 0.63609 0.23438 0.83837 0.0
C310 C 0.59856 0.25158 0.8269 0.0
C311 C 0.59837 0.29858 0.82626 0.0
C312 C 0.61111 0.10871 0.82035 0.0
C313 C 0.62723 0.08723 0.84402 0.0
C314 C 0.61495 0.15645 0.81827 0.0
C315 C 0.6353 0.1839 0.83976 0.0
C316 C 0.65321 0.16238 0.86299 0.0
C317 C 0.64929 0.11461 0.86506 0.0
H318 H 0.58369 0.87463 0.51695 0.0
H319 H 0.72812 0.90261 0.52458 0.0
H320 H 0.58287 0.79284 0.51956 0.0
H321 H 0.7274 0.82031 0.52802 0.0
H322 H 0.71148 0.66681 0.51555 0.0
H323 H 0.71074 0.74834 0.50584 0.0
H324 H 0.59761 0.73633 0.55246 0.0
H325 H 0.59726 0.65525 0.56105 0.0
C326 C 0.61536 0.8634 0.51933 0.0
C327 C 0.65595 0.89544 0.52087 0.0
C328 C 0.61491 0.81627 0.52091 0.0
C329 C 0.65507 0.79963 0.52432 0.0
C330 C 0.69577 0.83168 0.52514 0.0
C331 C 0.6962 0.87898 0.52335 0.0
C332 C 0.68599 0.68152 0.52326 0.0
C333 C 0.65465 0.6545 0.53925 0.0
C334 C 0.68588 0.7284 0.51799 0.0
C335 C 0.65425 0.74925 0.52845 0.0
C336 C 0.62219 0.72169 0.54375 0.0
C337 C 0.6223 0.6751 0.54897 0.0
H338 H 0.97289 0.4581 0.83917 0.0
H339 H 0.92898 0.54417 0.77339 0.0
H340 H 1.04913 0.49876 0.8367 0.0
H341 H 1.00588 0.58252 0.76942 0.0
H342 H 0.10285 0.69433 0.82018 0.0
H343 H 1.04374 0.63887 0.79825 0.0
H344 H 0.1184 0.53164 0.82164 0.0
H345 H 0.17713 0.58776 0.84463 0.0
C346 C 0.97975 0.48453 0.82346 0.0
C347 C 0.94456 0.49926 0.80736 0.0
C348 C 1.02381 0.50763 0.82174 0.0
C349 C 1.03362 0.54543 0.80352 0.0
C350 C 0.9993 0.55479 0.7844 0.0
C351 C 0.95508 0.53224 0.78645 0.0
C352 C 0.10744 0.65927 0.81975 0.0
C353 C 0.14396 0.64509 0.8346 0.0
C354 C 1.07349 0.62718 0.80701 0.0
C355 C 1.07554 0.58023 0.8087 0.0
C356 C 0.11502 0.56721 0.82061 0.0
C357 C 0.14876 0.59931 0.83368 0.0
H358 H 0.35695 0.83511 0.12599 0.0
H359 H 0.33625 0.83408 0.20995 0.0
H360 H 0.42598 0.89163 0.13353 0.0
H361 H 0.40481 0.89148 0.2175 0.0
H362 H 0.55049 0.96535 0.22695 0.0
H363 H 0.48447 0.90454 0.21939 0.0
H364 H 0.45059 0.97054 0.14288 0.0
H365 H 0.51743 0.03013 0.15018 0.0
C366 C 0.36705 0.84727 0.14604 0.0
C367 C 0.3411 0.83033 0.16736 0.0
C368 C 0.40657 0.87977 0.15038 0.0
C369 C 0.42097 0.89642 0.17611 0.0
C370 C 0.39518 0.87901 0.1975 0.0
C371 C 0.3558 0.8462 0.19319 0.0
C372 C 0.52918 0.96628 0.20837 0.0
C373 C 0.53955 1.00176 0.18886 0.0
C374 C 0.4911 0.93179 0.20413 0.0
C375 C 0.46217 0.93243 0.18046 0.0
C376 C 0.47252 0.96831 0.16108 0.0
C377 C 0.51072 1.0026 0.16527 0.0
H378 H 0.72309 0.20317 0.5304 0.0
H379 H 0.58199 0.17352 0.50395 0.0
H380 H 0.72146 0.28495 0.52925 0.0
H381 H 0.58057 0.25508 0.50258 0.0
H382 H 0.58248 0.39931 0.52851 0.0
H383 H 0.58689 0.31809 0.53279 0.0
H384 H 0.71212 0.34874 0.49665 0.0
H385 H 0.70758 0.43017 0.49257 0.0
C386 C 0.69171 0.21399 0.52437 0.0
C387 C 0.65264 0.18155 0.51732 0.0
C388 C 0.69085 0.26097 0.52357 0.0
C389 C 0.65085 0.2767 0.51592 0.0
C390 C 0.61183 0.24422 0.50894 0.0
C391 C 0.61274 0.19736 0.50954 0.0
C392 C 0.61107 0.38866 0.52166 0.0
C393 C 0.64461 0.42096 0.51008 0.0
C394 C 0.6135 0.34211 0.52395 0.0
C395 C 0.64968 0.32671 0.51486 0.0
C396 C 0.68394 0.35935 0.50403 0.0
C397 C 0.68135 0.40593 0.50161 0.0
H398 H 0.35863 0.55526 0.86201 0.0
H399 H 0.40156 0.61842 0.78661 0.0
H400 H 0.32438 0.62005 0.86871 0.0
H401 H 0.36903 0.68444 0.794 0.0
H402 H 0.26872 0.77667 0.80727 0.0
H403 H 0.2985 0.70988 0.79714 0.0
H404 H 0.35288 0.69925 0.87986 0.0
H405 H 0.32221 0.76519 0.88986 0.0
C406 C 0.36022 0.58264 0.84665 0.0
C407 C 0.383 0.58169 0.82381 0.0
C408 C 0.3412 0.62014 0.85072 0.0
C409 C 0.34468 0.65771 0.83212 0.0
C410 C 0.36577 0.656 0.8087 0.0
C411 C 0.38473 0.61836 0.80458 0.0
C412 C 0.28783 0.76039 0.82304 0.0
C413 C 0.29402 0.77632 0.84919 0.0
C414 C 0.3047 0.72218 0.81732 0.0
C415 C 0.32781 0.69914 0.83773 0.0
C416 C 0.33463 0.7158 0.86378 0.0
C417 C 0.31774 0.75389 0.86946 0.0
H418 H 0.97884 0.22404 0.17132 0.0
H419 H 0.90779 0.33626 0.1657 0.0
H420 H 0.91266 0.17215 0.18606 0.0
H421 H 0.84204 0.28449 0.18088 0.0
H422 H 0.75628 0.19001 0.24028 0.0
H423 H 0.8207 0.24114 0.22292 0.0
H424 H 0.83427 0.13704 0.16984 0.0
H425 H 0.77016 0.08548 0.1876 0.0
C426 C 0.94903 0.2376 0.17293 0.0
C427 C 0.94885 0.28448 0.16744 0.0
C428 C 0.9111 0.20783 0.18142 0.0
C429 C 0.87219 0.22426 0.18477 0.0
C430 C 0.87175 0.27093 0.17892 0.0
C431 C 0.90953 0.30062 0.17028 0.0
C432 C 0.77313 0.17797 0.22498 0.0
C433 C 0.75824 0.13366 0.21537 0.0
C434 C 0.80976 0.20741 0.21485 0.0
C435 C 0.83258 0.19315 0.19499 0.0
C436 C 0.8176 0.14889 0.18529 0.0
C437 C 0.78068 0.11953 0.19528 0.0
H438 H 0.09881 0.62284 0.05769 0.0
H439 H 0.20107 0.54157 0.05971 0.0
H440 H 0.11528 0.65251 0.01277 0.0
H441 H 0.21905 0.57274 0.01507 0.0
H442 H 0.20771 0.60504 0.92389 0.0
H443 H 0.19406 0.57335 0.96886 0.0
H444 H 0.17022 0.70388 0.99062 0.0
H445 H 0.18063 0.73448 0.94514 0.0
C446 C 0.12486 0.61131 0.04848 0.0
C447 C 0.14863 0.57988 0.0622 0.0
C448 C 0.1347 0.62873 0.02282 0.0
C449 C 0.16905 0.61568 0.01036 0.0
C450 C 0.19217 0.58335 0.0239 0.0
C451 C 0.18188 0.56544 0.0495 0.0
C452 C 0.1994 0.62696 0.93825 0.0
C453 C 0.19466 0.67217 0.9307 0.0
C454 C 0.19206 0.6089 0.96419 0.0
C455 C 0.18033 0.63577 0.98336 0.0
C456 C 0.17804 0.68175 0.97622 0.0
C457 C 0.18487 0.69964 0.9502 0.0
H458 H 0.60154 0.99857 0.42746 0.0
H459 H 0.72504 0.09815 0.43828 0.0
H460 H 0.60608 1.00455 0.37903 0.0
H461 H 0.72995 0.1034 0.38997 0.0
H462 H 0.69828 0.138 0.30073 0.0
H463 H 0.69307 0.13204 0.34907 0.0
H464 H 0.65021 0.9851 0.34531 0.0
H465 H 0.65535 0.9911 0.29693 0.0
C466 C 0.62974 0.0216 0.41954 0.0
C467 C 0.66288 0.04792 0.43677 0.0
C468 C 0.63247 0.02483 0.39178 0.0
C469 C 0.66837 0.05447 0.38061 0.0
C470 C 0.70152 0.08072 0.39787 0.0
C471 C 0.69882 0.07749 0.42561 0.0
C472 C 0.68813 0.10438 0.31025 0.0
C473 C 0.67732 0.06502 0.29497 0.0
C474 C 0.68513 0.10095 0.33797 0.0
C475 C 0.67127 0.05808 0.35108 0.0
C476 C 0.66037 0.01872 0.33579 0.0
C477 C 0.66334 0.02215 0.30806 0.0
H478 H 0.70384 0.48098 0.75265 0.0
H479 H 0.56256 0.48314 0.74398 0.0
H480 H 0.70644 0.49418 0.70445 0.0
H481 H 0.56456 0.49422 0.69549 0.0
H482 H 0.59566 0.57014 0.61566 0.0
H483 H 0.59013 0.55096 0.6631 0.0
H484 H 0.68632 0.46313 0.66198 0.0
H485 H 0.69442 0.48518 0.61492 0.0
C486 C 0.67314 0.48354 0.74037 0.0
C487 C 0.63302 0.48124 0.75213 0.0
C488 C 0.67454 0.49082 0.71264 0.0
C489 C 0.63572 0.49534 0.69593 0.0
C490 C 0.59532 0.49181 0.70772 0.0
C491 C 0.59407 0.48518 0.73552 0.0
C492 C 0.61604 0.54712 0.62556 0.0
C493 C 0.64595 0.52974 0.61144 0.0
C494 C 0.6123 0.53546 0.65276 0.0
C495 C 0.63786 0.50553 0.66654 0.0
C496 C 0.66666 0.4869 0.6522 0.0
C497 C 0.67083 0.49904 0.62504 0.0
H498 H 0.57796 0.0302 0.60039 0.0
H499 H 0.7173 0.01958 0.61197 0.0
H500 H 0.5727 0.0179 0.64878 0.0
H501 H 0.71193 1.00746 0.66019 0.0
H502 H 0.69621 0.03142 0.74762 0.0
H503 H 0.69895 0.05089 0.6996 0.0
H504 H 0.57749 0.95105 0.6826 0.0
H505 H 0.57462 0.93175 0.73066 0.0
C506 C 0.60751 0.02557 0.61325 0.0
C507 C 0.64802 0.02575 0.60235 0.0
C508 C 0.60441 0.01832 0.64091 0.0
C509 C 0.64191 1.01177 0.65821 0.0
C510 C 0.6826 1.01286 0.64736 0.0
C511 C 0.68556 0.0195 0.61972 0.0
C512 C 0.6698 0.01411 0.73363 0.0
C513 C 0.63525 0.98001 0.74282 0.0
C514 C 0.67155 0.02498 0.70618 0.0
C515 C 0.63851 1.00236 0.6874 0.0
C516 C 0.60323 0.96923 0.69665 0.0
C517 C 0.60177 0.95796 0.72408 0.0
H518 H 0.67192 0.55196 0.91682 0.0
H519 H 0.59733 0.41346 0.92643 0.0
H520 H 0.67221 0.56215 0.96472 0.0
H521 H 0.5985 0.4236 0.97482 0.0
H522 H 0.67579 0.45488 0.06236 0.0
H523 H 0.66515 0.43978 0.01433 0.0
H524 H 0.61087 0.56264 -0.00206 0.0
H525 H 0.6209 0.57737 0.04595 0.0
C526 C 0.65567 0.52363 0.92919 0.0
C527 C 0.63473 0.48182 0.91792 0.0
C528 C 0.65558 0.52963 0.95656 0.0
C529 C 0.63527 0.49372 0.97336 0.0
C530 C 0.61442 0.45177 0.96221 0.0
C531 C 0.61367 0.44604 0.93461 0.0
C532 C 0.66114 0.4783 0.04846 0.0
C533 C 0.64925 0.51733 0.05775 0.0
C534 C 0.65482 0.46953 0.0211 0.0
C535 C 0.63729 0.50011 0.00254 0.0
C536 C 0.62456 0.53863 0.0119 0.0
C537 C 0.63011 0.54694 0.03929 0.0
H538 H 0.14168 0.60616 0.23301 0.0
H539 H 0.16269 0.46823 0.22834 0.0
H540 H 0.14183 0.59588 0.28155 0.0
H541 H 0.16739 0.45878 0.27702 0.0
H542 H 0.13072 0.43474 0.36145 0.0
H543 H 0.1292 0.44605 0.31345 0.0
H544 H 0.17981 0.59133 0.32228 0.0
H545 H 0.17517 0.58085 0.37016 0.0
C546 C 0.14717 0.57387 0.24259 0.0
C547 C 0.15189 0.53786 0.22713 0.0
C548 C 0.14773 0.56797 0.2705 0.0
C549 C 0.1546 0.52636 0.28366 0.0
C550 C 0.16065 0.49086 0.2679 0.0
C551 C 0.15844 0.49629 0.23994 0.0
C552 C 0.14037 0.4694 0.35327 0.0
C553 C 0.15242 0.50688 0.37009 0.0
C554 C 0.14062 0.4758 0.32546 0.0
C555 C 0.15457 0.51969 0.31351 0.0
C556 C 0.16788 0.55705 0.33038 0.0
C557 C 0.16616 0.55085 0.35817 0.0
loop_
_geom_bond_atom_site_label_1
_geom_bond_atom_site_label_2
_geom_bond_distance
_geom_bond_site_symmetry_2
_ccdc_geom_bond_type
Dy0 O3 2.307 1_455 S
Dy0 O5 2.395 . S
Dy0 O6 2.379 . S
Dy0 O8 2.339 . S
Dy0 O10 2.298 . S
Dy0 O14 2.275 . S
Dy0 C22 2.738 . S
Dy1 O4 2.298 . S
Dy1 O7 2.275 1_655 S
Dy1 O9 2.307 1_655 S
Dy1 O11 2.395 . S
Dy1 O12 2.379 . S
Dy1 O15 2.338 1_655 S
Dy1 C31 2.738 . S
C2 O14 1.254 . S
C2 O15 1.257 . S
O3 Dy0 2.307 1_655 S
O3 C13 1.266 . S
O4 Dy1 2.298 . S
O4 C13 1.236 . S
O5 Dy0 2.395 . S
O5 C22 1.255 . S
O6 Dy0 2.379 . S
O6 C22 1.249 . S
O7 Dy1 2.275 1_455 S
O7 C23 1.254 . S
O8 Dy0 2.339 . S
O8 C23 1.257 . S
O9 Dy1 2.307 1_455 S
O9 C24 1.266 . S
O10 Dy0 2.298 . S
O10 C24 1.236 . S
O11 Dy1 2.395 . S
O11 C31 1.255 . S
O12 Dy1 2.379 . S
O12 C31 1.249 . S
C13 O3 1.266 . S
C13 O4 1.236 . S
O14 Dy0 2.275 . S
O14 C2 1.254 . S
O15 Dy1 2.338 1_455 S
O15 C2 1.257 . S
C16 C19 1.344 . S
C16 C20 1.328 . S
C16 C22 1.516 . S
C17 C18 1.304 . S
C17 C21 1.323 . S
C18 C17 1.304 . S
C18 C19 1.371 . S
C18 H32 0.930 . S
C19 C16 1.344 . S
C19 C18 1.371 . S
C19 H33 0.931 . S
C20 C16 1.328 . S
C20 C21 1.433 . S
C20 H34 0.931 . S
C21 C17 1.323 . S
C21 C20 1.433 . S
C21 H35 0.933 . S
C22 Dy0 2.738 . S
C22 O5 1.255 . S
C22 O6 1.249 . S
C22 C16 1.516 . S
C23 O7 1.254 . S
C23 O8 1.257 . S
C24 O9 1.266 . S
C24 O10 1.236 . S
C25 C28 1.344 . S
C25 C29 1.328 . S
C25 C31 1.516 . S
C26 C27 1.304 . S
C26 C30 1.323 . S
C27 C26 1.304 . S
C27 C28 1.371 . S
C27 H36 0.930 . S
C28 C25 1.344 . S
C28 C27 1.371 . S
C28 H37 0.931 . S
C29 C25 1.328 . S
C29 C30 1.433 . S
C29 H38 0.931 . S
C30 C26 1.323 . S
C30 C29 1.433 . S
C30 H39 0.933 . S
C31 Dy1 2.738 . S
C31 O11 1.255 . S
C31 O12 1.249 . S
C31 C25 1.516 . S
H32 C18 0.930 . S
H33 C19 0.931 . S
H34 C20 0.931 . S
H35 C21 0.933 . S
H36 C27 0.930 . S
H37 C28 0.931 . S
H38 C29 0.931 . S
H39 C30 0.933 . S
Dy40 O43 2.307 1_565 S
Dy40 O45 2.395 . S
Dy40 O46 2.379 . S
Dy40 O48 2.339 1_565 S
Dy40 O50 2.298 . S
Dy40 O54 2.275 1_565 S
Dy40 C62 2.738 . S
Dy41 O44 2.298 . S
Dy41 O47 2.275 . S
Dy41 O49 2.307 1_545 S
Dy41 O51 2.395 . S
Dy41 O52 2.379 . S
Dy41 O55 2.339 . S
Dy41 C71 2.738 . S
C42 O54 1.254 . S
C42 O55 1.257 . S
O43 Dy40 2.307 1_545 S
O43 C53 1.266 . S
O44 Dy41 2.298 . S
O44 C53 1.236 . S
O45 Dy40 2.395 . S
O45 C62 1.255 . S
O46 Dy40 2.379 . S
O46 C62 1.249 . S
O47 Dy41 2.275 . S
O47 C63 1.254 . S
O48 Dy40 2.339 1_545 S
O48 C63 1.257 . S
O49 Dy41 2.307 1_565 S
O49 C64 1.266 . S
O50 Dy40 2.298 . S
O50 C64 1.236 . S
O51 Dy41 2.395 . S
O51 C71 1.255 . S
O52 Dy41 2.379 . S
O52 C71 1.249 . S
C53 O43 1.266 . S
C53 O44 1.236 . S
O54 Dy40 2.275 1_545 S
O54 C42 1.254 . S
O55 Dy41 2.339 . S
O55 C42 1.257 . S
C56 C59 1.344 . S
C56 C60 1.328 . S
C56 C62 1.516 . S
C57 C58 1.304 . S
C57 C61 1.323 . S
C58 C57 1.304 . S
C58 C59 1.371 . S
C58 H72 0.930 . S
C59 C56 1.344 . S
C59 C58 1.371 . S
C59 H73 0.931 . S
C60 C56 1.328 . S
C60 C61 1.433 . S
C60 H74 0.931 . S
C61 C57 1.323 . S
C61 C60 1.433 . S
C61 H75 0.933 . S
C62 Dy40 2.738 . S
C62 O45 1.255 . S
C62 O46 1.249 . S
C62 C56 1.516 . S
C63 O47 1.254 . S
C63 O48 1.257 . S
C64 O49 1.266 . S
C64 O50 1.236 . S
C65 C68 1.344 . S
C65 C69 1.328 . S
C65 C71 1.516 . S
C66 C67 1.304 . S
C66 C70 1.323 . S
C67 C66 1.304 . S
C67 C68 1.371 . S
C67 H76 0.930 . S
C68 C65 1.344 . S
C68 C67 1.371 . S
C68 H77 0.931 . S
C69 C65 1.328 . S
C69 C70 1.433 . S
C69 H78 0.931 . S
C70 C66 1.323 . S
C70 C69 1.433 . S
C70 H79 0.933 . S
C71 Dy41 2.738 . S
C71 O51 1.255 . S
C71 O52 1.249 . S
C71 C65 1.516 . S
H72 C58 0.930 . S
H73 C59 0.931 . S
H74 C60 0.931 . S
H75 C61 0.933 . S
H76 C67 0.930 . S
H77 C68 0.931 . S
H78 C69 0.931 . S
H79 C70 0.933 . S
Dy80 O83 2.307 . S
Dy80 O85 2.395 . S
Dy80 O86 2.379 . S
Dy80 O88 2.339 . S
Dy80 O90 2.298 . S
Dy80 O94 2.275 . S
Dy80 C102 2.738 . S
Dy81 O84 2.298 . S
Dy81 O87 2.275 . S
Dy81 O89 2.307 . S
Dy81 O91 2.395 . S
Dy81 O92 2.379 . S
Dy81 O95 2.339 . S
Dy81 C111 2.738 . S
C82 O94 1.254 . S
C82 O95 1.257 . S
O83 Dy80 2.307 . S
O83 C93 1.266 . S
O84 Dy81 2.298 . S
O84 C93 1.236 . S
O85 Dy80 2.395 . S
O85 C102 1.255 . S
O86 Dy80 2.379 . S
O86 C102 1.249 . S
O87 Dy81 2.275 . S
O87 C103 1.254 . S
O88 Dy80 2.339 . S
O88 C103 1.257 . S
O89 Dy81 2.307 . S
O89 C104 1.266 . S
O90 Dy80 2.298 . S
O90 C104 1.236 . S
O91 Dy81 2.395 . S
O91 C111 1.255 . S
O92 Dy81 2.379 . S
O92 C111 1.249 . S
C93 O83 1.266 . S
C93 O84 1.236 . S
O94 Dy80 2.275 . S
O94 C82 1.254 . S
O95 Dy81 2.339 . S
O95 C82 1.257 . S
C96 C99 1.344 . S
C96 C100 1.328 . S
C96 C102 1.516 . S
C97 C98 1.304 . S
C97 C101 1.323 . S
C98 C97 1.304 . S
C98 C99 1.371 . S
C98 H112 0.930 . S
C99 C96 1.344 . S
C99 C98 1.371 . S
C99 H113 0.931 . S
C100 C96 1.328 . S
C100 C101 1.433 . S
C100 H114 0.931 . S
C101 C97 1.323 . S
C101 C100 1.433 . S
C101 H115 0.933 . S
C102 Dy80 2.738 . S
C102 O85 1.255 . S
C102 O86 1.249 . S
C102 C96 1.516 . S
C103 O87 1.254 . S
C103 O88 1.257 . S
C104 O89 1.266 . S
C104 O90 1.236 . S
C105 C108 1.344 . S
C105 C109 1.328 . S
C105 C111 1.516 . S
C106 C107 1.304 . S
C106 C110 1.323 . S
C107 C106 1.304 . S
C107 C108 1.371 . S
C107 H116 0.930 . S
C108 C105 1.344 . S
C108 C107 1.371 . S
C108 H117 0.931 . S
C109 C105 1.328 . S
C109 C110 1.433 . S
C109 H118 0.931 . S
C110 C106 1.323 . S
C110 C109 1.433 . S
C110 H119 0.933 . S
C111 Dy81 2.738 . S
C111 O91 1.255 . S
C111 O92 1.249 . S
C111 C105 1.516 . S
H112 C98 0.930 . S
H113 C99 0.931 . S
H114 C100 0.931 . S
H115 C101 0.933 . S
H116 C107 0.930 . S
H117 C108 0.931 . S
H118 C109 0.931 . S
H119 C110 0.933 . S
H120 C127 0.929 . S
H121 C130 0.933 . S
H122 C132 0.929 . S
H123 C124 0.969 . S
C124 H123 0.969 . S
C124 O125 1.550 . S
C124 H126 0.973 . S
O125 C124 1.550 . S
O125 C131 1.412 1_565 S
H126 C124 0.973 . S
C127 H120 0.929 . S
C127 C128 1.400 . S
C127 C129 1.364 . S
C128 C127 1.400 . S
C128 C132 1.377 . S
C129 C127 1.364 . S
C129 C130 1.374 . S
C130 H121 0.933 . S
C130 C129 1.374 . S
C130 C131 1.383 . S
C131 O125 1.412 1_545 S
C131 C130 1.383 . S
C131 C132 1.394 . S
C132 H122 0.929 . S
C132 C128 1.377 . S
C132 C131 1.394 . S
H133 C140 0.929 . S
H134 C143 0.930 . S
H135 C145 0.929 . S
H136 C137 0.969 . S
C137 H136 0.969 . S
C137 O138 1.550 . S
C137 H139 0.973 . S
O138 C137 1.550 . S
O138 C144 1.412 . S
H139 C137 0.973 . S
C140 H133 0.929 . S
C140 C141 1.400 . S
C140 C142 1.364 . S
C141 C140 1.400 . S
C141 C145 1.377 . S
C142 C140 1.364 . S
C142 C143 1.374 . S
C143 H134 0.930 . S
C143 C142 1.374 . S
C143 C144 1.383 . S
C144 O138 1.412 . S
C144 C143 1.383 . S
C144 C145 1.394 . S
C145 H135 0.929 . S
C145 C141 1.377 . S
C145 C144 1.394 . S
H146 C153 0.915 1_655 S
H147 C156 0.930 . S
H148 C158 0.929 . S
H149 C150 0.969 . S
C150 H149 0.969 . S
C150 O151 1.550 . S
C150 H152 0.973 . S
O151 C150 1.550 . S
O151 C157 1.412 . S
H152 C150 0.973 . S
C153 H146 0.915 1_455 S
C153 C154 1.400 . S
C153 C155 1.364 . S
C154 C153 1.400 . S
C154 C158 1.377 . S
C155 C153 1.364 . S
C155 C156 1.374 . S
C156 H147 0.930 . S
C156 C155 1.374 . S
C156 C157 1.383 . S
C157 O151 1.412 . S
C157 C156 1.383 . S
C157 C158 1.394 . S
C158 H148 0.929 . S
C158 C154 1.377 . S
C158 C157 1.394 . S
H159 C166 0.912 1_655 S
H160 C169 0.930 . S
H161 C171 0.929 . S
H162 C163 0.969 . S
C163 H162 0.969 . S
C163 O164 1.550 . S
C163 H165 0.973 . S
O164 C163 1.550 . S
O164 C170 1.412 . S
H165 C163 0.973 . S
C166 H159 0.912 1_455 S
C166 C167 1.400 . S
C166 C168 1.364 . S
C167 C166 1.400 . S
C167 C171 1.377 . S
C168 C166 1.364 . S
C168 C169 1.374 . S
C169 H160 0.930 . S
C169 C168 1.374 . S
C169 C170 1.383 . S
C170 O164 1.412 . S
C170 C169 1.383 . S
C170 C171 1.394 . S
C171 H161 0.929 . S
C171 C167 1.377 . S
C171 C170 1.394 . S
H172 C179 0.929 . S
H173 C182 0.930 . S
H174 C184 0.929 . S
H175 C176 0.969 . S
C176 H175 0.969 . S
C176 O177 1.550 . S
C176 H178 0.973 . S
O177 C176 1.550 . S
O177 C183 1.412 . S
H178 C176 0.973 . S
C179 H172 0.929 . S
C179 C180 1.400 . S
C179 C181 1.364 1_565 S
C180 C179 1.400 . S
C180 C184 1.377 . S
C181 C179 1.364 1_545 S
C181 C182 1.374 . S
C182 H173 0.930 . S
C182 C181 1.374 . S
C182 C183 1.383 . S
C183 O177 1.412 . S
C183 C182 1.383 . S
C183 C184 1.394 1_545 S
C184 H174 0.929 . S
C184 C180 1.377 . S
C184 C183 1.394 1_565 S
H185 C192 0.929 . S
H186 C195 0.930 . S
H187 C197 0.929 . S
H188 C189 0.969 . S
C189 H188 0.969 . S
C189 O190 1.550 . S
C189 H191 0.973 . S
O190 C189 1.550 . S
O190 C196 1.412 . S
H191 C189 0.973 . S
C192 H185 0.929 . S
C192 C193 1.400 . S
C192 C194 1.364 . S
C193 C192 1.400 . S
C193 C197 1.377 . S
C194 C192 1.364 . S
C194 C195 1.374 . S
C195 H186 0.930 . S
C195 C194 1.374 . S
C195 C196 1.383 . S
C196 O190 1.412 . S
C196 C195 1.383 . S
C196 C197 1.394 . S
C197 H187 0.929 . S
C197 C193 1.377 . S
C197 C196 1.394 . S
H198 C206 0.950 . S
H199 C211 0.950 . S
H200 C208 0.950 . S
H201 C210 0.950 . S
H202 C212 0.950 . S
H203 C214 0.950 . S
H204 C216 0.950 . S
H205 C217 0.950 . S
C206 H198 0.950 . S
C206 C207 1.386 . S
C206 C208 1.391 . S
C207 C206 1.386 . S
C207 C211 1.393 . S
C208 H200 0.950 . S
C208 C206 1.391 . S
C208 C209 1.400 . S
C209 C208 1.400 . S
C209 C210 1.398 . S
C209 C215 1.491 . S
C210 H201 0.950 . S
C210 C209 1.398 . S
C210 C211 1.391 . S
C211 H199 0.950 . S
C211 C207 1.393 . S
C211 C210 1.391 . S
C212 H202 0.950 . S
C212 C213 1.386 . S
C212 C214 1.391 . S
C213 C212 1.386 . S
C213 C217 1.393 . S
C214 H203 0.950 . S
C214 C212 1.391 . S
C214 C215 1.400 . S
C215 C209 1.491 . S
C215 C214 1.400 . S
C215 C216 1.398 . S
C216 H204 0.950 . S
C216 C215 1.398 . S
C216 C217 1.391 . S
C217 H205 0.950 . S
C217 C213 1.393 . S
C217 C216 1.391 . S
H218 C226 0.950 . S
H219 C231 0.950 . S
H220 C228 0.950 . S
H221 C230 0.950 . S
H222 C232 0.950 . S
H223 C234 0.950 . S
H224 C236 0.950 . S
H225 C237 0.950 1_455 S
C226 H218 0.950 . S
C226 C227 1.386 . S
C226 C228 1.391 . S
C227 C226 1.386 . S
C227 C231 1.393 . S
C228 H220 0.950 . S
C228 C226 1.391 . S
C228 C229 1.400 . S
C229 C228 1.400 . S
C229 C230 1.398 . S
C229 C235 1.491 . S
C230 H221 0.950 . S
C230 C229 1.398 . S
C230 C231 1.391 . S
C231 H219 0.950 . S
C231 C227 1.393 . S
C231 C230 1.391 . S
C232 H222 0.950 . S
C232 C233 1.388 . S
C232 C234 1.391 . S
C233 C232 1.388 . S
C233 C237 1.392 . S
C234 H223 0.950 . S
C234 C232 1.391 . S
C234 C235 1.400 . S
C235 C229 1.491 . S
C235 C234 1.400 . S
C235 C236 1.398 . S
C236 H224 0.950 . S
C236 C235 1.398 . S
C236 C237 1.391 . S
C237 H225 0.950 1_655 S
C237 C233 1.392 . S
C237 C236 1.391 . S
H238 C246 0.950 . S
H239 C251 0.950 . S
H240 C248 0.950 . S
H241 C250 0.950 . S
H242 C252 0.950 . S
H243 C254 0.950 . S
H244 C256 0.950 . S
H245 C257 0.950 . S
C246 H238 0.950 . S
C246 C247 1.386 . S
C246 C248 1.391 . S
C247 C246 1.386 . S
C247 C251 1.393 . S
C248 H240 0.950 . S
C248 C246 1.391 . S
C248 C249 1.400 . S
C249 C248 1.400 . S
C249 C250 1.398 . S
C249 C255 1.491 . S
C250 H241 0.950 . S
C250 C249 1.398 . S
C250 C251 1.391 . S
C251 H239 0.950 . S
C251 C247 1.393 . S
C251 C250 1.391 . S
C252 H242 0.950 . S
C252 C253 1.386 . S
C252 C254 1.391 . S
C253 C252 1.386 . S
C253 C257 1.393 . S
C254 H243 0.950 . S
C254 C252 1.391 . S
C254 C255 1.400 . S
C255 C249 1.491 . S
C255 C254 1.400 . S
C255 C256 1.398 . S
C256 H244 0.950 . S
C256 C255 1.398 . S
C256 C257 1.391 . S
C257 H245 0.950 . S
C257 C253 1.393 . S
C257 C256 1.391 . S
H258 C266 0.950 . S
H259 C271 0.950 . S
H260 C268 0.950 . S
H261 C270 0.950 . S
H262 C272 0.950 . S
H263 C274 0.950 . S
H264 C276 0.950 . S
H265 C277 0.950 . S
C266 H258 0.950 . S
C266 C267 1.386 . S
C266 C268 1.391 . S
C267 C266 1.386 . S
C267 C271 1.393 . S
C268 H260 0.950 . S
C268 C266 1.391 . S
C268 C269 1.400 . S
C269 C268 1.400 . S
C269 C270 1.398 . S
C269 C275 1.491 . S
C270 H261 0.950 . S
C270 C269 1.398 . S
C270 C271 1.391 . S
C271 H259 0.950 . S
C271 C267 1.393 . S
C271 C270 1.391 . S
C272 H262 0.950 . S
C272 C273 1.386 . S
C272 C274 1.391 . S
C273 C272 1.386 . S
C273 C277 1.393 . S
C274 H263 0.950 . S
C274 C272 1.391 . S
C274 C275 1.400 . S
C275 C269 1.491 . S
C275 C274 1.400 . S
C275 C276 1.398 . S
C276 H264 0.950 . S
C276 C275 1.398 . S
C276 C277 1.391 . S
C277 H265 0.950 . S
C277 C273 1.393 . S
C277 C276 1.391 . S
H278 C286 0.950 . S
H279 C291 0.950 . S
H280 C288 0.950 . S
H281 C290 0.950 . S
H282 C292 0.950 . S
H283 C294 0.950 . S
H284 C296 0.950 . S
H285 C297 0.950 . S
C286 H278 0.950 . S
C286 C287 1.386 . S
C286 C288 1.391 . S
C287 C286 1.386 . S
C287 C291 1.393 . S
C288 H280 0.950 . S
C288 C286 1.391 . S
C288 C289 1.400 . S
C289 C288 1.400 . S
C289 C290 1.398 . S
C289 C295 1.491 . S
C290 H281 0.950 . S
C290 C289 1.398 . S
C290 C291 1.391 . S
C291 H279 0.950 . S
C291 C287 1.393 . S
C291 C290 1.391 . S
C292 H282 0.950 . S
C292 C293 1.386 . S
C292 C294 1.391 . S
C293 C292 1.386 . S
C293 C297 1.393 . S
C294 H283 0.950 . S
C294 C292 1.391 . S
C294 C295 1.400 . S
C295 C289 1.491 . S
C295 C294 1.400 . S
C295 C296 1.398 . S
C296 H284 0.950 . S
C296 C295 1.398 . S
C296 C297 1.391 . S
C297 H285 0.950 . S
C297 C293 1.393 . S
C297 C296 1.391 . S
H298 C306 0.950 . S
H299 C311 0.950 . S
H300 C308 0.950 . S
H301 C310 0.950 . S
H302 C312 0.950 . S
H303 C314 0.950 . S
H304 C316 0.950 . S
H305 C317 0.950 . S
C306 H298 0.950 . S
C306 C307 1.386 . S
C306 C308 1.391 . S
C307 C306 1.386 . S
C307 C311 1.393 . S
C308 H300 0.950 . S
C308 C306 1.391 . S
C308 C309 1.400 . S
C309 C308 1.400 . S
C309 C310 1.398 . S
C309 C315 1.491 . S
C310 H301 0.950 . S
C310 C309 1.398 . S
C310 C311 1.391 . S
C311 H299 0.950 . S
C311 C307 1.393 . S
C311 C310 1.391 . S
C312 H302 0.950 . S
C312 C313 1.386 . S
C312 C314 1.391 . S
C313 C312 1.386 . S
C313 C317 1.393 . S
C314 H303 0.950 . S
C314 C312 1.391 . S
C314 C315 1.400 . S
C315 C309 1.491 . S
C315 C314 1.400 . S
C315 C316 1.398 . S
C316 H304 0.950 . S
C316 C315 1.398 . S
C316 C317 1.391 . S
C317 H305 0.950 . S
C317 C313 1.393 . S
C317 C316 1.391 . S
H318 C326 0.950 . S
H319 C331 0.950 . S
H320 C328 0.950 . S
H321 C330 0.950 . S
H322 C332 0.950 . S
H323 C334 0.950 . S
H324 C336 0.950 . S
H325 C337 0.950 . S
C326 H318 0.950 . S
C326 C327 1.386 . S
C326 C328 1.391 . S
C327 C326 1.386 . S
C327 C331 1.393 . S
C328 H320 0.950 . S
C328 C326 1.391 . S
C328 C329 1.400 . S
C329 C328 1.400 . S
C329 C330 1.398 . S
C329 C335 1.491 . S
C330 H321 0.950 . S
C330 C329 1.398 . S
C330 C331 1.391 . S
C331 H319 0.950 . S
C331 C327 1.393 . S
C331 C330 1.391 . S
C332 H322 0.950 . S
C332 C333 1.386 . S
C332 C334 1.391 . S
C333 C332 1.386 . S
C333 C337 1.393 . S
C334 H323 0.950 . S
C334 C332 1.391 . S
C334 C335 1.400 . S
C335 C329 1.491 . S
C335 C334 1.400 . S
C335 C336 1.398 . S
C336 H324 0.950 . S
C336 C335 1.398 . S
C336 C337 1.391 . S
C337 H325 0.950 . S
C337 C333 1.393 . S
C337 C336 1.391 . S
H338 C346 0.950 . S
H339 C351 0.950 . S
H340 C348 0.950 . S
H341 C350 0.950 . S
H342 C352 0.950 1_455 S
H343 C354 0.950 . S
H344 C356 0.950 . S
H345 C357 0.950 . S
C346 H338 0.950 . S
C346 C347 1.386 . S
C346 C348 1.391 . S
C347 C346 1.386 . S
C347 C351 1.393 . S
C348 H340 0.950 . S
C348 C346 1.391 . S
C348 C349 1.400 . S
C349 C348 1.400 . S
C349 C350 1.398 . S
C349 C355 1.491 . S
C350 H341 0.950 . S
C350 C349 1.398 . S
C350 C351 1.391 . S
C351 H339 0.950 . S
C351 C347 1.393 . S
C351 C350 1.391 . S
C352 H342 0.950 1_655 S
C352 C353 1.386 1_655 S
C352 C354 1.391 . S
C353 C352 1.386 1_455 S
C353 C357 1.393 1_455 S
C354 H343 0.950 . S
C354 C352 1.391 . S
C354 C355 1.400 . S
C355 C349 1.491 . S
C355 C354 1.400 . S
C355 C356 1.398 . S
C356 H344 0.950 . S
C356 C355 1.398 . S
C356 C357 1.391 . S
C357 H345 0.950 . S
C357 C353 1.393 1_655 S
C357 C356 1.391 . S
H358 C366 0.950 . S
H359 C371 0.950 . S
H360 C368 0.950 . S
H361 C370 0.950 . S
H362 C372 0.950 . S
H363 C374 0.950 . S
H364 C376 0.950 . S
H365 C377 0.950 . S
C366 H358 0.950 . S
C366 C367 1.386 . S
C366 C368 1.391 . S
C367 C366 1.386 . S
C367 C371 1.393 . S
C368 H360 0.950 . S
C368 C366 1.391 . S
C368 C369 1.400 . S
C369 C368 1.400 . S
C369 C370 1.398 . S
C369 C375 1.491 . S
C370 H361 0.950 . S
C370 C369 1.398 . S
C370 C371 1.391 . S
C371 H359 0.950 . S
C371 C367 1.393 . S
C371 C370 1.391 . S
C372 H362 0.950 . S
C372 C373 1.386 . S
C372 C374 1.391 . S
C373 C372 1.386 . S
C373 C377 1.393 . S
C374 H363 0.950 . S
C374 C372 1.391 . S
C374 C375 1.400 . S
C375 C369 1.491 . S
C375 C374 1.400 . S
C375 C376 1.398 . S
C376 H364 0.950 . S
C376 C375 1.398 . S
C376 C377 1.391 . S
C377 H365 0.950 . S
C377 C373 1.393 . S
C377 C376 1.391 . S
H378 C386 0.950 . S
H379 C391 0.950 . S
H380 C388 0.950 . S
H381 C390 0.950 . S
H382 C392 0.950 . S
H383 C394 0.950 . S
H384 C396 0.950 . S
H385 C397 0.950 . S
C386 H378 0.950 . S
C386 C387 1.386 . S
C386 C388 1.391 . S
C387 C386 1.386 . S
C387 C391 1.393 . S
C388 H380 0.950 . S
C388 C386 1.391 . S
C388 C389 1.400 . S
C389 C388 1.400 . S
C389 C390 1.398 . S
C389 C395 1.491 . S
C390 H381 0.950 . S
C390 C389 1.398 . S
C390 C391 1.391 . S
C391 H379 0.950 . S
C391 C387 1.393 . S
C391 C390 1.391 . S
C392 H382 0.950 . S
C392 C393 1.386 . S
C392 C394 1.391 . S
C393 C392 1.386 . S
C393 C397 1.393 . S
C394 H383 0.950 . S
C394 C392 1.391 . S
C394 C395 1.400 . S
C395 C389 1.491 . S
C395 C394 1.400 . S
C395 C396 1.398 . S
C396 H384 0.950 . S
C396 C395 1.398 . S
C396 C397 1.391 . S
C397 H385 0.950 . S
C397 C393 1.393 . S
C397 C396 1.391 . S
H398 C406 0.950 . S
H399 C411 0.950 . S
H400 C408 0.950 . S
H401 C410 0.950 . S
H402 C412 0.950 . S
H403 C414 0.950 . S
H404 C416 0.950 . S
H405 C417 0.950 . S
C406 H398 0.950 . S
C406 C407 1.386 . S
C406 C408 1.391 . S
C407 C406 1.386 . S
C407 C411 1.393 . S
C408 H400 0.950 . S
C408 C406 1.391 . S
C408 C409 1.400 . S
C409 C408 1.400 . S
C409 C410 1.398 . S
C409 C415 1.491 . S
C410 H401 0.950 . S
C410 C409 1.398 . S
C410 C411 1.391 . S
C411 H399 0.950 . S
C411 C407 1.393 . S
C411 C410 1.391 . S
C412 H402 0.950 . S
C412 C413 1.386 . S
C412 C414 1.391 . S
C413 C412 1.386 . S
C413 C417 1.393 . S
C414 H403 0.950 . S
C414 C412 1.391 . S
C414 C415 1.400 . S
C415 C409 1.491 . S
C415 C414 1.400 . S
C415 C416 1.398 . S
C416 H404 0.950 . S
C416 C415 1.398 . S
C416 C417 1.391 . S
C417 H405 0.950 . S
C417 C413 1.393 . S
C417 C416 1.391 . S
H418 C426 0.950 . S
H419 C431 0.950 . S
H420 C428 0.950 . S
H421 C430 0.950 . S
H422 C432 0.950 . S
H423 C434 0.950 . S
H424 C436 0.950 . S
H425 C437 0.950 . S
C426 H418 0.950 . S
C426 C427 1.386 . S
C426 C428 1.391 . S
C427 C426 1.386 . S
C427 C431 1.393 . S
C428 H420 0.950 . S
C428 C426 1.391 . S
C428 C429 1.400 . S
C429 C428 1.400 . S
C429 C430 1.398 . S
C429 C435 1.491 . S
C430 H421 0.950 . S
C430 C429 1.398 . S
C430 C431 1.391 . S
C431 H419 0.950 . S
C431 C427 1.393 . S
C431 C430 1.391 . S
C432 H422 0.950 . S
C432 C433 1.386 . S
C432 C434 1.391 . S
C433 C432 1.386 . S
C433 C437 1.393 . S
C434 H423 0.950 . S
C434 C432 1.391 . S
C434 C435 1.400 . S
C435 C429 1.491 . S
C435 C434 1.400 . S
C435 C436 1.398 . S
C436 H424 0.950 . S
C436 C435 1.398 . S
C436 C437 1.391 . S
C437 H425 0.950 . S
C437 C433 1.393 . S
C437 C436 1.391 . S
H438 C446 0.950 . S
H439 C451 0.950 . S
H440 C448 0.950 . S
H441 C450 0.950 . S
H442 C452 0.950 . S
H443 C454 0.950 1_554 S
H444 C456 0.950 . S
H445 C457 0.950 . S
C446 H438 0.950 . S
C446 C447 1.386 . S
C446 C448 1.391 . S
C447 C446 1.386 . S
C447 C451 1.393 . S
C448 H440 0.950 . S
C448 C446 1.391 . S
C448 C449 1.400 . S
C449 C448 1.400 . S
C449 C450 1.398 . S
C449 C455 1.491 . S
C450 H441 0.950 . S
C450 C449 1.398 . S
C450 C451 1.391 . S
C451 H439 0.950 . S
C451 C447 1.393 . S
C451 C450 1.391 . S
C452 H442 0.950 . S
C452 C453 1.386 . S
C452 C454 1.391 . S
C453 C452 1.386 . S
C453 C457 1.393 . S
C454 H443 0.950 1_556 S
C454 C452 1.391 . S
C454 C455 1.400 1_556 S
C455 C449 1.491 . S
C455 C454 1.400 1_554 S
C455 C456 1.398 1_554 S
C456 H444 0.950 . S
C456 C455 1.398 1_556 S
C456 C457 1.391 . S
C457 H445 0.950 . S
C457 C453 1.393 . S
C457 C456 1.391 . S
H458 C466 0.950 . S
H459 C471 0.950 . S
H460 C468 0.950 . S
H461 C470 0.950 . S
H462 C472 0.950 . S
H463 C474 0.950 . S
H464 C476 0.950 1_565 S
H465 C477 0.950 1_565 S
C466 H458 0.950 . S
C466 C467 1.386 1_565 S
C466 C468 1.391 . S
C467 C466 1.386 1_545 S
C467 C471 1.393 . S
C468 H460 0.950 . S
C468 C466 1.391 . S
C468 C469 1.400 1_565 S
C469 C468 1.400 1_545 S
C469 C470 1.398 . S
C469 C475 1.491 . S
C470 H461 0.950 . S
C470 C469 1.398 . S
C470 C471 1.391 . S
C471 H459 0.950 . S
C471 C467 1.393 . S
C471 C470 1.391 . S
C472 H462 0.950 . S
C472 C473 1.386 . S
C472 C474 1.391 . S
C473 C472 1.386 . S
C473 C477 1.393 . S
C474 H463 0.950 . S
C474 C472 1.391 . S
C474 C475 1.400 . S
C475 C469 1.491 . S
C475 C474 1.400 . S
C475 C476 1.398 . S
C476 H464 0.950 1_545 S
C476 C475 1.398 . S
C476 C477 1.391 . S
C477 H465 0.950 1_545 S
C477 C473 1.393 . S
C477 C476 1.391 . S
H478 C486 0.950 . S
H479 C491 0.950 . S
H480 C488 0.950 . S
H481 C490 0.950 . S
H482 C492 0.950 . S
H483 C494 0.950 . S
H484 C496 0.950 . S
H485 C497 0.950 . S
C486 H478 0.950 . S
C486 C487 1.386 . S
C486 C488 1.391 . S
C487 C486 1.386 . S
C487 C491 1.393 . S
C488 H480 0.950 . S
C488 C486 1.391 . S
C488 C489 1.400 . S
C489 C488 1.400 . S
C489 C490 1.398 . S
C489 C495 1.491 . S
C490 H481 0.950 . S
C490 C489 1.398 . S
C490 C491 1.391 . S
C491 H479 0.950 . S
C491 C487 1.393 . S
C491 C490 1.391 . S
C492 H482 0.950 . S
C492 C493 1.386 . S
C492 C494 1.391 . S
C493 C492 1.386 . S
C493 C497 1.393 . S
C494 H483 0.950 . S
C494 C492 1.391 . S
C494 C495 1.400 . S
C495 C489 1.491 . S
C495 C494 1.400 . S
C495 C496 1.398 . S
C496 H484 0.950 . S
C496 C495 1.398 . S
C496 C497 1.391 . S
C497 H485 0.950 . S
C497 C493 1.393 . S
C497 C496 1.391 . S
H498 C506 0.950 . S
H499 C511 0.950 . S
H500 C508 0.950 . S
H501 C510 0.950 . S
H502 C512 0.950 . S
H503 C514 0.950 . S
H504 C516 0.951 1_565 S
H505 C517 0.950 1_565 S
C506 H498 0.950 . S
C506 C507 1.386 1_565 S
C506 C508 1.391 . S
C507 C506 1.386 1_545 S
C507 C511 1.393 . S
C508 H500 0.950 . S
C508 C506 1.391 . S
C508 C509 1.400 1_565 S
C509 C508 1.400 1_545 S
C509 C510 1.398 . S
C509 C515 1.491 . S
C510 H501 0.950 . S
C510 C509 1.398 . S
C510 C511 1.391 . S
C511 H499 0.950 . S
C511 C507 1.393 . S
C511 C510 1.391 . S
C512 H502 0.950 . S
C512 C513 1.386 . S
C512 C514 1.391 . S
C513 C512 1.386 . S
C513 C517 1.393 . S
C514 H503 0.950 . S
C514 C512 1.391 . S
C514 C515 1.400 . S
C515 C509 1.491 . S
C515 C514 1.400 . S
C515 C516 1.394 . S
C516 H504 0.951 1_545 S
C516 C515 1.394 . S
C516 C517 1.395 . S
C517 H505 0.950 1_545 S
C517 C513 1.393 . S
C517 C516 1.395 . S
H518 C526 0.950 . S
H519 C531 0.950 . S
H520 C528 0.950 . S
H521 C530 0.950 . S
H522 C532 0.950 . S
H523 C534 0.950 . S
H524 C536 0.950 . S
H525 C537 0.950 . S
C526 H518 0.950 . S
C526 C527 1.386 . S
C526 C528 1.391 . S
C527 C526 1.386 . S
C527 C531 1.393 . S
C528 H520 0.950 . S
C528 C526 1.391 . S
C528 C529 1.400 . S
C529 C528 1.400 . S
C529 C530 1.398 . S
C529 C535 1.491 1_556 S
C530 H521 0.950 . S
C530 C529 1.398 . S
C530 C531 1.391 . S
C531 H519 0.950 . S
C531 C527 1.393 . S
C531 C530 1.391 . S
C532 H522 0.950 . S
C532 C533 1.386 . S
C532 C534 1.391 . S
C533 C532 1.386 . S
C533 C537 1.393 . S
C534 H523 0.950 . S
C534 C532 1.391 . S
C534 C535 1.400 . S
C535 C529 1.491 1_554 S
C535 C534 1.400 . S
C535 C536 1.398 . S
C536 H524 0.950 . S
C536 C535 1.398 . S
C536 C537 1.391 . S
C537 H525 0.950 . S
C537 C533 1.393 . S
C537 C536 1.391 . S
H538 C546 0.950 . S
H539 C551 0.950 1_655 S
H540 C548 0.950 . S
H541 C550 0.950 1_655 S
H542 C552 0.950 . S
H543 C554 0.950 . S
H544 C556 0.950 . S
H545 C557 0.950 . S
C546 H538 0.950 . S
C546 C547 1.386 . S
C546 C548 1.391 . S
C547 C546 1.386 . S
C547 C551 1.393 . S
C548 H540 0.950 . S
C548 C546 1.391 . S
C548 C549 1.400 . S
C549 C548 1.400 . S
C549 C550 1.398 . S
C549 C555 1.491 . S
C550 H541 0.950 1_455 S
C550 C549 1.398 . S
C550 C551 1.391 . S
C551 H539 0.950 1_455 S
C551 C547 1.393 . S
C551 C550 1.391 . S
C552 H542 0.950 . S
C552 C553 1.386 . S
C552 C554 1.391 . S
C553 C552 1.386 . S
C553 C557 1.393 . S
C554 H543 0.950 . S
C554 C552 1.391 . S
C554 C555 1.400 . S
C555 C549 1.491 . S
C555 C554 1.400 . S
C555 C556 1.398 . S
C556 H544 0.950 . S
C556 C555 1.398 . S
C556 C557 1.391 . S
C557 H545 0.950 . S
C557 C553 1.393 . S
C557 C556 1.391 . S
C207 C24 3.027 . S
C213 C189 2.825 . S
C227 C66 1.075 . S
C233 C167 1.102 1_655 S
C247 C93 1.723 . S
C253 C180 1.689 . S
C267 C13 3.005 . S
C273 C193 2.962 . S
C293 C163 1.253 . S
C287 C57 1.323 . S
C313 C176 1.831 . S
C307 C104 1.994 . S
C327 C64 1.850 . S
C333 C141 1.808 . S
C347 C97 0.292 . S
C353 C154 0.236 . S
C367 C17 1.323 . S
C373 C124 1.252 . S
C393 C137 1.692 . S
C387 C53 1.844 . S
C413 C150 0.446 . S
C407 C106 0.369 . S
C427 C26 1.085 . S
C433 C128 1.115 . S
C453 C155 1.206 . S
C447 C2 1.209 . S
C467 C63 1.506 . S
C473 C129 1.590 . S
C487 C82 1.422 . S
C493 C142 1.443 . S
C513 C181 1.541 . S
C507 C42 1.523 . S
C533 C194 1.720 . S
C527 C103 1.712 . S
C547 C23 1.524 . S
C553 C168 1.578 . S
