# Generated by pormake.
# Topology dag, (6,3)-cn, num edge types: 1
# Building blocks:
#     Node 0, Type 0, BuildingBlock: MIDCAF_clean_sbu_0, # of connection points: 6
#     Node 1, Type 0, BuildingBlock: MIDCAF_clean_sbu_0, # of connection points: 6
#     Node 2, Type 0, BuildingBlock: MIDCAF_clean_sbu_0, # of connection points: 6
#     Node 3, Type 0, BuildingBlock: MIDCAF_clean_sbu_0, # of connection points: 6
#     Node 4, Type 1, BuildingBlock: BETDIP_clean_linker_0, # of connection points: 3
#     Node 5, Type 1, BuildingBlock: BETDIP_clean_linker_0, # of connection points: 3
#     Node 6, Type 1, BuildingBlock: BETDIP_clean_linker_0, # of connection points: 3
#     Node 7, Type 1, BuildingBlock: BETDIP_clean_linker_0, # of connection points: 3
#     Node 8, Type 1, BuildingBlock: BETDIP_clean_linker_0, # of connection points: 3
#     Node 9, Type 1, BuildingBlock: BETDIP_clean_linker_0, # of connection points: 3
#     Node 10, Type 1, BuildingBlock: BETDIP_clean_linker_0, # of connection points: 3
#     Node 11, Type 1, BuildingBlock: BETDIP_clean_linker_0, # of connection points: 3
#     Edge 12, Type (0, 1), BuildingBlock: CIFDUS_clean_linker_0, # of connection points: 2
#     Edge 13, Type (0, 1), BuildingBlock: CIFDUS_clean_linker_0, # of connection points: 2
#     Edge 14, Type (0, 1), BuildingBlock: CIFDUS_clean_linker_0, # of connection points: 2
#     Edge 15, Type (0, 1), BuildingBlock: CIFDUS_clean_linker_0, # of connection points: 2
#     Edge 16, Type (0, 1), BuildingBlock: CIFDUS_clean_linker_0, # of connection points: 2
#     Edge 17, Type (0, 1), BuildingBlock: CIFDUS_clean_linker_0, # of connection points: 2
#     Edge 18, Type (0, 1), BuildingBlock: CIFDUS_clean_linker_0, # of connection points: 2
#     Edge 19, Type (0, 1), BuildingBlock: CIFDUS_clean_linker_0, # of connection points: 2
#     Edge 20, Type (0, 1), BuildingBlock: CIFDUS_clean_linker_0, # of connection points: 2
#     Edge 21, Type (0, 1), BuildingBlock: CIFDUS_clean_linker_0, # of connection points: 2
#     Edge 22, Type (0, 1), BuildingBlock: CIFDUS_clean_linker_0, # of connection points: 2
#     Edge 23, Type (0, 1), BuildingBlock: CIFDUS_clean_linker_0, # of connection points: 2
#     Edge 24, Type (0, 1), BuildingBlock: CIFDUS_clean_linker_0, # of connection points: 2
#     Edge 25, Type (0, 1), BuildingBlock: CIFDUS_clean_linker_0, # of connection points: 2
#     Edge 26, Type (0, 1), BuildingBlock: CIFDUS_clean_linker_0, # of connection points: 2
#     Edge 27, Type (0, 1), BuildingBlock: CIFDUS_clean_linker_0, # of connection points: 2
#     Edge 28, Type (0, 1), BuildingBlock: CIFDUS_clean_linker_0, # of connection points: 2
#     Edge 29, Type (0, 1), BuildingBlock: CIFDUS_clean_linker_0, # of connection points: 2
#     Edge 30, Type (0, 1), BuildingBlock: CIFDUS_clean_linker_0, # of connection points: 2
#     Edge 31, Type (0, 1), BuildingBlock: CIFDUS_clean_linker_0, # of connection points: 2
#     Edge 32, Type (0, 1), BuildingBlock: CIFDUS_clean_linker_0, # of connection points: 2
#     Edge 33, Type (0, 1), BuildingBlock: CIFDUS_clean_linker_0, # of connection points: 2
#     Edge 34, Type (0, 1), BuildingBlock: CIFDUS_clean_linker_0, # of connection points: 2
#     Edge 35, Type (0, 1), BuildingBlock: CIFDUS_clean_linker_0, # of connection points: 2
# Relax obj value: 0.127
# Max RMSD: 0.136
# Mean RMSD: 0.108
data_MOF--net-dag--node1-MIDCAF_clean_sbu_0--node2-BETDIP_clean_linker_0--edge1-CIFDUS_clean_linker_0
_symmetry_space_group_name_H-M    P1
_symmetry_Int_Tables_number       1
_symmetry_cell_setting            triclinic
loop_
_symmetry_equiv_pos_as_xyz
'x, y, z'
_cell_length_a     36.185693
_cell_length_b     35.268802
_cell_length_c     27.744705
_cell_angle_alpha  87.282645
_cell_angle_beta   89.998506
_cell_angle_gamma 90.911803
loop_
_atom_site_label
_atom_site_type_symbol
_atom_site_fract_x
_atom_site_fract_y
_atom_site_fract_z
_atom_type_partial_charge
Zn0 Zn 0.12347 0.84205 0.114 0.0
Zn1 Zn 0.14139 0.85547 0.93567 0.0
Zn2 Zn 0.12798 0.8473 0.0235 0.0
C3 C 0.13371 0.92858 0.96421 0.0
C4 C 0.07232 0.81821 0.94705 0.0
O5 O 0.16353 0.8006 0.05218 0.0
O6 O 0.14072 0.78931 0.12534 0.0
C7 C 0.16629 0.90665 0.0907 0.0
O8 O 0.1367 0.90949 1.0049 0.0
O9 O 0.13345 0.91104 0.92559 0.0
O10 O 0.09907 0.82174 0.91777 0.0
O11 O 0.0759 0.83029 0.98995 0.0
O12 O 0.15988 0.88397 0.12644 0.0
O13 O 0.15177 0.90011 0.04942 0.0
O14 O 0.06844 0.83724 0.03955 0.0
O15 O 0.06939 0.85009 0.11674 0.0
C16 C 0.05126 0.843 0.0792 0.0
O17 O 0.1711 0.80745 1.00272 0.0
O18 O 0.1921 0.83426 0.93431 0.0
C19 C 0.16182 0.78012 0.09181 0.0
C20 C 0.19484 0.80917 0.96805 0.0
Zn21 Zn 0.59356 0.6519 0.34542 0.0
Zn22 Zn 0.65075 0.65322 0.59296 0.0
Zn23 Zn 0.62944 0.65901 0.50753 0.0
C24 C 0.65683 0.58052 0.56348 0.0
C25 C 0.57571 0.67925 0.58962 0.0
O26 O 0.65894 0.70021 0.45894 0.0
O27 O 0.62239 0.67479 0.40626 0.0
C28 C 0.63394 0.6035 0.43165 0.0
O29 O 0.64618 0.59925 0.52508 0.0
O30 O 0.66217 0.59769 0.60184 0.0
O31 O 0.6027 0.67272 0.6177 0.0
O32 O 0.57903 0.67377 0.54437 0.0
O33 O 0.61658 0.63109 0.41131 0.0
O34 O 0.6423 0.6063 0.47612 0.0
O35 O 0.56961 0.66457 0.49622 0.0
O36 O 0.58473 0.66009 0.42075 0.0
C37 C 0.55909 0.66058 0.4526 0.0
O38 O 0.67161 0.70488 0.50877 0.0
O39 O 0.69125 0.69119 0.58305 0.0
C40 C 0.64908 0.69788 0.41477 0.0
C41 C 0.6935 0.71118 0.54414 0.0
Zn42 Zn 0.88255 0.17903 0.97219 0.0
Zn43 Zn 0.86193 0.10835 0.11649 0.0
Zn44 Zn 0.86826 0.15038 0.04732 0.0
C45 C 0.93637 0.11101 0.09006 0.0
C46 C 0.8104 0.08963 0.04618 0.0
O47 O 0.81658 0.1597 1.00619 0.0
O48 O 0.83835 0.21142 0.96864 0.0
C49 C 0.92299 0.21316 0.04421 0.0
O50 O 0.9203 0.11812 0.04922 0.0
O51 O 0.9167 0.10686 0.12756 0.0
O52 O 0.83266 0.07383 0.07576 0.0
O53 O 0.81455 0.12496 0.03372 0.0
O54 O 0.92687 0.20028 1.00271 0.0
O55 O 0.89521 0.20217 0.07044 0.0
O56 O 0.89804 0.10569 0.01257 0.0
O57 O 0.88033 0.12823 0.9414 0.0
C58 C 0.89073 0.10032 0.96798 0.0
O59 O 0.8688 0.18769 0.10809 0.0
O60 O 0.83488 0.1467 0.1515 0.0
C61 C 0.81096 0.19083 0.98154 0.0
C62 C 0.84729 0.18016 0.14423 0.0
Zn63 Zn 0.3441 0.3174 0.64813 0.0
Zn64 Zn 0.37812 0.37008 0.50433 0.0
Zn65 Zn 0.35894 0.33294 0.56598 0.0
C66 C 0.43806 0.33883 0.52288 0.0
C67 C 0.30946 0.39211 0.5218 0.0
O68 O 0.30165 0.31104 0.55676 0.0
O69 O 0.29674 0.29261 0.6339 0.0
C70 C 0.40847 0.27643 0.62383 0.0
O71 O 0.41211 0.31473 0.53476 0.0
O72 O 0.43117 0.37388 0.52087 0.0
O73 O 0.34075 0.40862 0.51954 0.0
O74 O 0.30807 0.35579 0.53011 0.0
O75 O 0.3886 0.28532 0.65897 0.0
O76 O 0.40043 0.2895 0.58115 0.0
O77 O 0.36834 0.38505 0.60124 0.0
O78 O 0.34306 0.37044 0.67171 0.0
C79 C 0.35784 0.3948 0.64262 0.0
O80 O 0.32 0.31699 0.50848 0.0
O81 O 0.36281 0.33093 0.45426 0.0
C82 C 0.28321 0.29478 0.59195 0.0
C83 C 0.33306 0.31328 0.46562 0.0
H84 H 0.14809 0.19396 0.20868 0.0
H85 H 0.24702 0.1275 0.2127 0.0
H86 H 0.15308 0.09091 0.1323 0.0
H87 H 0.27266 0.19048 0.21329 0.0
C88 C 0.25566 0.20013 0.24246 0.0
C89 C 0.16351 0.17008 0.19664 0.0
C90 C 0.14634 0.14348 0.16717 0.0
C91 C 0.20048 0.16563 0.21132 0.0
C92 C 0.2197 0.13315 0.1984 0.0
C93 C 0.20273 0.10667 0.16916 0.0
C94 C 0.1667 0.11269 0.15257 0.0
N95 N 0.21694 0.19253 0.24182 0.0
H96 H 0.33265 0.59043 0.82127 0.0
H97 H 0.39587 0.69471 0.80814 0.0
H98 H 0.39817 0.6176 0.69406 0.0
H99 H 0.3908 0.69038 0.88953 0.0
C100 C 0.36164 0.6829 0.89277 0.0
C101 C 0.35067 0.60953 0.8001 0.0
C102 C 0.36416 0.59916 0.75497 0.0
C103 C 0.3616 0.64397 0.8195 0.0
C104 C 0.38661 0.66824 0.79367 0.0
C105 C 0.40034 0.65834 0.74889 0.0
C106 C 0.38773 0.62475 0.72899 0.0
N107 N 0.34664 0.65377 0.8646 0.0
H108 H 0.82662 0.80075 0.12863 0.0
H109 H 0.73109 0.87063 0.12584 0.0
H110 H 0.82598 0.90391 0.03947 0.0
H111 H 0.75674 0.86117 0.21598 0.0
C112 C 0.75149 0.83083 0.21387 0.0
C113 C 0.81248 0.82542 0.11357 0.0
C114 C 0.83044 0.85071 0.07998 0.0
C115 C 0.77737 0.83346 0.13124 0.0
C116 C 0.75842 0.86512 0.11219 0.0
C117 C 0.77533 0.89055 0.07807 0.0
C118 C 0.81137 0.88292 0.0623 0.0
N119 N 0.76325 0.81227 0.17219 0.0
H120 H 0.62525 0.26609 0.71833 0.0
H121 H 0.68814 0.36974 0.71881 0.0
H122 H 0.61523 0.34729 0.6 0.0
H123 H 0.64444 0.25509 0.7909 0.0
C124 C 0.66572 0.27541 0.80021 0.0
C125 C 0.63347 0.29301 0.70118 0.0
C126 C 0.61638 0.30461 0.65773 0.0
C127 C 0.6593 0.31665 0.72305 0.0
C128 C 0.6694 0.3514 0.69996 0.0
C129 C 0.65443 0.36314 0.65482 0.0
C130 C 0.62804 0.33893 0.63382 0.0
N131 N 0.67491 0.30741 0.76907 0.0
H132 H 0.65674 0.29129 0.41158 0.0
H133 H 0.72561 0.37993 0.34321 0.0
H134 H 0.62976 0.4089 0.4219 0.0
H135 H 0.76649 0.33589 0.3373 0.0
C136 C 0.75161 0.30916 0.3345 0.0
C137 C 0.66268 0.32105 0.40293 0.0
C138 C 0.6397 0.34895 0.4207 0.0
C139 C 0.69412 0.33171 0.37508 0.0
C140 C 0.70194 0.37057 0.36458 0.0
C141 C 0.67849 0.39804 0.38132 0.0
C142 C 0.64749 0.38713 0.40862 0.0
N143 N 0.71666 0.30282 0.35731 0.0
H144 H 0.10313 0.2613 0.87746 0.0
H145 H 0.14578 0.15667 0.83207 0.0
H146 H 0.07964 0.15742 0.9609 0.0
H147 H 0.13656 0.18326 0.75716 0.0
C148 C 0.1415 0.21346 0.76057 0.0
C149 C 0.10582 0.23093 0.88374 0.0
C150 C 0.08951 0.21225 0.9246 0.0
C151 C 0.12394 0.2107 0.84894 0.0
C152 C 0.12932 0.17164 0.85729 0.0
C153 C 0.1139 0.15189 0.89809 0.0
C154 C 0.09376 0.17256 0.93131 0.0
N155 N 0.13552 0.23046 0.80545 0.0
H156 H 0.35735 0.64125 0.27917 0.0
H157 H 0.26996 0.55767 0.29644 0.0
H158 H 0.36145 0.55449 0.39409 0.0
H159 H 0.25306 0.57686 0.2244 0.0
C160 C 0.26344 0.60551 0.21673 0.0
C161 C 0.34574 0.61638 0.29836 0.0
C162 C 0.36421 0.59991 0.33872 0.0
C163 C 0.31219 0.60127 0.28208 0.0
C164 C 0.29614 0.56962 0.30741 0.0
C165 C 0.31357 0.55322 0.34817 0.0
C166 C 0.34749 0.56837 0.36371 0.0
N167 N 0.29507 0.61946 0.24111 0.0
H168 H 0.8156 0.92333 0.77441 0.0
H169 H 0.87106 0.81782 0.75631 0.0
H170 H 0.90511 0.88998 0.86859 0.0
H171 H 0.8536 0.83215 0.67617 0.0
C172 C 0.82537 0.84113 0.68144 0.0
C173 C 0.83631 0.90307 0.78622 0.0
C174 C 0.85975 0.91092 0.82516 0.0
C175 C 0.84036 0.86992 0.76074 0.0
C176 C 0.86737 0.84349 0.77555 0.0
C177 C 0.88978 0.85023 0.81562 0.0
C178 C 0.88575 0.88378 0.84008 0.0
N179 N 0.81673 0.864 0.72071 0.0
H180 H 0.18812 0.9355 0.17548 0.0
H181 H 0.19641 0.95581 0.02132 0.0
H182 H 0.21812 0.02064 0.0325 0.0
H183 H 0.22104 0.07454 0.08605 0.0
H184 H 0.21462 0.05327 0.23997 0.0
H185 H 0.20803 0.98519 0.22917 0.0
C186 C 0.19542 0.95379 0.14429 0.0
C187 C 0.18802 0.94191 0.09753 0.0
C188 C 0.20868 0.99072 0.15107 0.0
C189 C 0.19943 0.96524 0.05766 0.0
C190 C 0.21235 0.00217 0.06402 0.0
C191 C 0.2202 0.05468 0.11715 0.0
C192 C 0.21782 0.06859 0.16363 0.0
C193 C 0.21506 0.0158 0.11053 0.0
C194 C 0.21664 0.04297 0.20388 0.0
C195 C 0.21214 0.00414 0.19766 0.0
H196 H 0.56106 0.69067 0.6835 0.0
H197 H 0.50975 0.6935 0.54318 0.0
H198 H 0.4486 0.69339 0.58081 0.0
H199 H 0.41061 0.68103 0.65426 0.0
H200 H 0.4633 0.67948 0.79385 0.0
H201 H 0.52304 0.6926 0.75578 0.0
C202 C 0.53659 0.69186 0.66094 0.0
C203 C 0.53977 0.6893 0.61067 0.0
C204 C 0.50178 0.69241 0.68281 0.0
C205 C 0.50787 0.69276 0.58207 0.0
C206 C 0.47294 0.69323 0.60358 0.0
C207 C 0.43509 0.68466 0.67626 0.0
C208 C 0.43272 0.67855 0.72667 0.0
C209 C 0.46961 0.69109 0.65404 0.0
C210 C 0.46439 0.68402 0.75498 0.0
C211 C 0.49867 0.69103 0.7332 0.0
H212 H 0.7514 0.06079 0.09266 0.0
H213 H 0.80815 0.06166 0.95663 0.0
H214 H 0.7922 0.99465 0.94844 0.0
H215 H 0.78033 0.93362 0.99309 0.0
H216 H 0.73376 0.93391 0.13665 0.0
H217 H 0.72562 0.0017 0.12795 0.0
C218 C 0.75812 0.04678 0.05982 0.0
C219 C 0.78174 0.06536 0.02602 0.0
C220 C 0.7516 0.00767 0.0577 0.0
C221 C 0.7903 0.04751 0.9834 0.0
C222 C 0.78185 0.00894 0.97931 0.0
C223 C 0.76773 0.94839 0.02214 0.0
C224 C 0.75909 0.92851 0.06613 0.0
C225 C 0.76553 0.98814 0.01842 0.0
C226 C 0.74117 0.94798 0.10243 0.0
C227 C 0.73679 0.98715 0.09777 0.0
H228 H 0.46593 0.26133 0.5622 0.0
H229 H 0.4344 0.25322 0.71227 0.0
H230 H 0.49876 0.25508 0.73619 0.0
H231 H 0.56107 0.2766 0.71512 0.0
H232 H 0.59488 0.28623 0.56586 0.0
H233 H 0.53305 0.26462 0.54153 0.0
C234 C 0.47325 0.25953 0.6 0.0
C235 C 0.44529 0.26019 0.63523 0.0
C236 C 0.51068 0.26186 0.61383 0.0
C237 C 0.45521 0.2546 0.68414 0.0
C238 C 0.49214 0.25596 0.69805 0.0
C239 C 0.55544 0.27331 0.67714 0.0
C240 C 0.58229 0.28429 0.64227 0.0
C241 C 0.51973 0.26263 0.66326 0.0
C242 C 0.57428 0.2794 0.59336 0.0
C243 C 0.53891 0.26734 0.5794 0.0
H244 H 0.69242 0.55913 0.44991 0.0
H245 H 0.59888 0.57387 0.35493 0.0
H246 H 0.61087 0.51263 0.32039 0.0
H247 H 0.64082 0.45054 0.32911 0.0
H248 H 0.73318 0.43567 0.42562 0.0
H249 H 0.72994 0.5021 0.44654 0.0
C250 C 0.67509 0.54913 0.42106 0.0
C251 C 0.64432 0.57012 0.40564 0.0
C252 C 0.68222 0.51419 0.40151 0.0
C253 C 0.62246 0.55768 0.36758 0.0
C254 C 0.62931 0.52278 0.34791 0.0
C255 C 0.6613 0.46258 0.3528 0.0
C256 C 0.68713 0.43876 0.37597 0.0
C257 C 0.65821 0.50019 0.366 0.0
C258 C 0.71341 0.45394 0.4071 0.0
C259 C 0.71108 0.49163 0.41969 0.0
H260 H 0.94658 0.2798 1.00411 0.0
H261 H 0.97091 0.19955 0.12014 0.0
H262 H 0.0361 0.20002 0.09542 0.0
H263 H 0.07593 0.20074 0.02229 0.0
H264 H 0.04395 0.27107 0.89764 0.0
H265 H 0.99241 0.29469 0.94179 0.0
C266 C 0.96667 0.26371 0.02535 0.0
C267 C 0.95366 0.23702 0.06088 0.0
C268 C 0.00213 0.25926 1.00615 0.0
C269 C 0.97988 0.21843 0.09036 0.0
C270 C 0.01678 0.21736 0.07502 0.0
C271 C 0.05809 0.22169 1.00495 0.0
C272 C 0.06371 0.23304 0.95593 0.0
C273 C 0.02675 0.23384 0.0297 0.0
C274 C 0.04084 0.26138 0.93501 0.0
C275 C 0.01087 0.27493 0.96024 0.0
H276 H 0.28404 0.38851 0.43151 0.0
H277 H 0.27187 0.4484 0.56179 0.0
H278 H 0.26849 0.5086 0.51508 0.0
H279 H 0.28792 0.54439 0.44014 0.0
H280 H 0.30362 0.48442 0.31024 0.0
H281 H 0.28772 0.42419 0.35339 0.0
C282 C 0.27811 0.41449 0.44933 0.0
C283 C 0.2794 0.4143 0.49998 0.0
C284 C 0.27932 0.44925 0.42228 0.0
C285 C 0.27129 0.44793 0.52276 0.0
C286 C 0.27062 0.48257 0.49607 0.0
C287 C 0.28698 0.51816 0.42125 0.0
C288 C 0.2977 0.51843 0.37257 0.0
C289 C 0.27778 0.48369 0.44633 0.0
C290 C 0.29588 0.48458 0.34795 0.0
C291 C 0.2867 0.45022 0.37257 0.0
H292 H 0.05213 0.81429 0.8534 0.0
H293 H 0.01101 0.79216 0.99785 0.0
H294 H 0.94733 0.79247 0.9674 0.0
H295 H 0.90482 0.81468 0.90214 0.0
H296 H 0.94713 0.83469 0.75779 0.0
H297 H 0.00919 0.81843 0.78552 0.0
C298 C 0.02936 0.80867 0.87829 0.0
C299 C 0.03586 0.80619 0.92837 0.0
C300 C 0.99317 0.8088 0.86042 0.0
C301 C 0.00625 0.79711 0.95962 0.0
C302 C 0.96999 0.79689 0.94212 0.0
C303 C 0.92743 0.8138 0.87654 0.0
C304 C 0.92179 0.82633 0.82822 0.0
C305 C 0.96316 0.80529 0.89299 0.0
C306 C 0.95098 0.82509 0.79511 0.0
C307 C 0.98652 0.81629 0.8111 0.0
H308 H 0.87732 0.08245 0.87595 0.0
H309 H 0.89931 0.03163 0.01741 0.0
H310 H 0.88851 0.96837 0.98668 0.0
H311 H 0.87184 0.92787 0.91961 0.0
H312 H 0.85141 0.98006 0.7782 0.0
H313 H 0.86088 0.04258 0.80978 0.0
C314 C 0.88024 0.05758 0.9001 0.0
C315 C 0.88956 0.06182 0.94882 0.0
C316 C 0.87332 0.02159 0.88249 0.0
C317 C 0.89279 0.02919 0.97957 0.0
C318 C 0.8862 0.99305 0.96213 0.0
C319 C 0.86954 0.95289 0.8956 0.0
C320 C 0.86084 0.94899 0.84642 0.0
C321 C 0.87623 0.98896 0.91366 0.0
C322 C 0.85731 0.98192 0.81627 0.0
C323 C 0.86331 0.0178 0.83415 0.0
H324 H 0.5027 0.3663 0.55262 0.0
H325 H 0.45467 0.28686 0.45668 0.0
H326 H 0.51522 0.27875 0.41851 0.0
H327 H 0.58056 0.30109 0.40678 0.0
H328 H 0.62714 0.37895 0.50656 0.0
H329 H 0.56811 0.3811 0.54855 0.0
C330 C 0.50577 0.34663 0.52401 0.0
C331 C 0.47474 0.32714 0.50739 0.0
C332 C 0.54028 0.34231 0.5025 0.0
C333 C 0.47862 0.30172 0.47033 0.0
C334 C 0.51308 0.29741 0.44828 0.0
C335 C 0.57809 0.31732 0.43882 0.0
C336 C 0.6079 0.34026 0.45316 0.0
C337 C 0.54404 0.31831 0.46337 0.0
C338 C 0.60438 0.3614 0.49459 0.0
C339 C 0.57076 0.36284 0.51853 0.0
H340 H 0.13197 0.97475 0.88351 0.0
H341 H 0.1243 0.97717 0.03847 0.0
H342 H 0.1195 0.04645 0.03232 0.0
H343 H 0.11779 0.10653 0.98215 0.0
H344 H 0.11562 0.10069 0.82674 0.0
H345 H 0.12413 0.03278 0.83417 0.0
C346 C 0.12935 0.99026 0.91615 0.0
C347 C 0.13004 0.97068 0.96153 0.0
C348 C 0.12484 0.02972 0.91222 0.0
C349 C 0.12546 0.99149 1.00312 0.0
C350 C 0.12227 0.03114 0.99958 0.0
C351 C 0.11867 0.09049 0.94982 0.0
C352 C 0.11705 0.10953 0.90385 0.0
C353 C 0.12201 0.05064 0.95419 0.0
C354 C 0.11833 0.08767 0.86265 0.0
C355 C 0.12274 0.04848 0.86676 0.0
H356 H 0.5275 0.6641 0.36369 0.0
H357 H 0.50391 0.63342 0.51287 0.0
H358 H 0.44096 0.61468 0.49166 0.0
H359 H 0.39326 0.60437 0.43004 0.0
H360 H 0.41996 0.6283 0.27974 0.0
H361 H 0.48067 0.65211 0.30209 0.0
C362 C 0.50852 0.65358 0.39163 0.0
C363 C 0.52013 0.65148 0.44008 0.0
C364 C 0.47281 0.64127 0.37886 0.0
C365 C 0.49527 0.63715 0.47565 0.0
C366 C 0.45939 0.62574 0.46338 0.0
C367 C 0.41237 0.61449 0.40203 0.0
C368 C 0.40147 0.61469 0.35317 0.0
C369 C 0.44793 0.62733 0.415 0.0
C370 C 0.42682 0.62848 0.3177 0.0
C371 C 0.46187 0.64188 0.33039 0.0
H372 H 0.31151 0.43536 0.69577 0.0
H373 H 0.41644 0.44171 0.62191 0.0
H374 H 0.42797 0.50511 0.65147 0.0
H375 H 0.40971 0.55637 0.70145 0.0
H376 H 0.30111 0.55443 0.76677 0.0
H377 H 0.2901 0.49069 0.73878 0.0
C378 C 0.3368 0.45082 0.68608 0.0
C379 C 0.36335 0.43399 0.65728 0.0
C380 C 0.34275 0.48756 0.70215 0.0
C381 C 0.39571 0.45427 0.6441 0.0
C382 C 0.40233 0.49035 0.66115 0.0
C383 C 0.38303 0.54291 0.70853 0.0
C384 C 0.35627 0.56079 0.73627 0.0
C385 C 0.37616 0.50708 0.69049 0.0
C386 C 0.32261 0.54146 0.74635 0.0
C387 C 0.3161 0.50506 0.72994 0.0
H388 H -0.0019 0.86399 0.01276 0.0
H389 H 0.01332 0.81518 0.15677 0.0
H390 H 0.94676 0.81172 0.16888 0.0
H391 H 0.88473 0.82516 0.14067 0.0
H392 H 0.8674 0.86932 0.99469 0.0
H393 H 0.93413 0.87181 0.98125 0.0
C394 C 0.98669 0.85186 0.04629 0.0
C395 C 0.0106 0.8394 0.08355 0.0
C396 C 0.94805 0.84928 0.05284 0.0
C397 C 0.99552 0.82486 0.12744 0.0
C398 C 0.95743 0.82274 0.13441 0.0
C399 C 0.89517 0.83425 0.10531 0.0
C400 C 0.87067 0.84708 0.06893 0.0
C401 C 0.93346 0.83504 0.09752 0.0
C402 C 0.88541 0.85978 0.02382 0.0
C403 C 0.92367 0.86116 0.016 0.0
H404 H 0.70683 0.53309 0.60693 0.0
H405 H 0.60555 0.53403 0.52522 0.0
H406 H 0.59625 0.4661 0.54423 0.0
H407 H 0.6124 0.40972 0.59422 0.0
H408 H 0.71914 0.40534 0.66404 0.0
H409 H 0.73014 0.47176 0.64078 0.0
C410 C 0.68321 0.51814 0.5924 0.0
C411 C 0.65662 0.53854 0.56538 0.0
C412 C 0.67844 0.47886 0.60254 0.0
C413 C 0.62637 0.51889 0.54616 0.0
C414 C 0.62088 0.48012 0.55738 0.0
C415 C 0.63879 0.42226 0.60292 0.0
C416 C 0.6641 0.40191 0.63258 0.0
C417 C 0.64613 0.46011 0.58696 0.0
C418 C 0.69791 0.42013 0.64357 0.0
C419 C 0.70463 0.45825 0.62964 0.0
H420 H 0.97364 0.12492 0.17102 0.0
H421 H 0.99024 0.10425 0.0206 0.0
H422 H 0.05719 0.11374 0.03069 0.0
H423 H 0.11058 0.12978 0.08253 0.0
H424 H 0.09137 0.15502 0.23117 0.0
H425 H 0.02533 0.14356 0.22079 0.0
C426 C 0.99186 0.12186 0.14043 0.0
C427 C 0.97706 0.11312 0.0953 0.0
C428 C 0.02969 0.12912 0.14599 0.0
C429 C 0.00102 0.11047 0.05583 0.0
C430 C 0.03921 0.11615 0.06156 0.0
C431 C 0.09183 0.133 0.11252 0.0
C432 C 0.10592 0.14338 0.15763 0.0
C433 C 0.0538 0.12587 0.10644 0.0
C434 C 0.08128 0.14781 0.19595 0.0
C435 C 0.04358 0.1406 0.19027 0.0
H436 H 0.14109 0.71054 0.12589 0.0
H437 H 0.2363 0.77732 0.07928 0.0
H438 H 0.27733 0.7276 0.11178 0.0
H439 H 0.28551 0.66852 0.16249 0.0
H440 H 0.18975 0.60054 0.20458 0.0
H441 H 0.14931 0.64721 0.1647 0.0
C442 C 0.17083 0.71368 0.12196 0.0
C443 C 0.18587 0.74734 0.10068 0.0
C444 C 0.19399 0.6851 0.14059 0.0
C445 C 0.2243 0.75138 0.09539 0.0
C446 C 0.24768 0.72317 0.11436 0.0
C447 C 0.25581 0.66386 0.16237 0.0
C448 C 0.24037 0.6317 0.18717 0.0
C449 C 0.2328 0.69048 0.13852 0.0
C450 C 0.20204 0.62535 0.18599 0.0
C451 C 0.17896 0.65201 0.16331 0.0
H452 H 0.68261 0.77721 0.58394 0.0
H453 H 0.7638 0.71403 0.50958 0.0
H454 H 0.81341 0.75326 0.54255 0.0
H455 H 0.83348 0.79674 0.60529 0.0
H456 H 0.75132 0.85627 0.68376 0.0
H457 H 0.70234 0.82747 0.63676 0.0
C458 C 0.71109 0.77342 0.5731 0.0
C459 C 0.71969 0.74337 0.54383 0.0
C460 C 0.73932 0.79459 0.59445 0.0
C461 C 0.75662 0.73768 0.5311 0.0
C462 C 0.78496 0.75961 0.55079 0.0
C463 C 0.80486 0.80387 0.61139 0.0
C464 C 0.79603 0.82802 0.64852 0.0
C465 C 0.77668 0.78672 0.58458 0.0
C466 C 0.75891 0.83736 0.65589 0.0
C467 C 0.73083 0.82095 0.62892 0.0
H468 H 0.79525 0.17144 0.21299 0.0
H469 H 0.87221 0.25433 0.14964 0.0
H470 H 0.85022 0.30145 0.20506 0.0
H471 H 0.80775 0.31888 0.27053 0.0
H472 H 0.73011 0.23496 0.32994 0.0
H473 H 0.75408 0.1881 0.27689 0.0
C474 C 0.80753 0.19973 0.2112 0.0
C475 C 0.83545 0.20934 0.17726 0.0
C476 C 0.79458 0.22638 0.24246 0.0
C477 C 0.85068 0.24625 0.17542 0.0
C478 C 0.83812 0.27311 0.20709 0.0
C479 C 0.79635 0.29021 0.27188 0.0
C480 C 0.76723 0.28032 0.30394 0.0
C481 C 0.80994 0.26347 0.24063 0.0
C482 C 0.7524 0.2433 0.30543 0.0
C483 C 0.7661 0.21649 0.27513 0.0
H484 H 0.2237 0.33017 0.62098 0.0
H485 H 0.25906 0.22672 0.56076 0.0
H486 H 0.21087 0.19096 0.6061 0.0
H487 H 0.17145 0.18748 0.67922 0.0
H488 H 0.14402 0.29083 0.74731 0.0
H489 H 0.17644 0.3282 0.68383 0.0
C490 C 0.21927 0.30013 0.61566 0.0
C491 C 0.24496 0.28098 0.58808 0.0
C492 C 0.19421 0.27948 0.64568 0.0
C493 C 0.23942 0.24209 0.58159 0.0
C494 C 0.21254 0.2215 0.60869 0.0
C495 C 0.17202 0.21823 0.67947 0.0
C496 C 0.15623 0.23633 0.71847 0.0
C497 C 0.19186 0.23954 0.6436 0.0
C498 C 0.15674 0.27616 0.71833 0.0
C499 C 0.17509 0.29759 0.68183 0.0
H500 H 0.68546 0.76647 0.41304 0.0
H501 H 0.65832 0.67212 0.3255 0.0
H502 H 0.68904 0.70372 0.25619 0.0
H503 H 0.72173 0.75917 0.21912 0.0
H504 H 0.7456 0.85565 0.30422 0.0
H505 H 0.71829 0.82249 0.37548 0.0
C506 C 0.68652 0.75289 0.37881 0.0
C507 C 0.66941 0.71722 0.37426 0.0
C508 C 0.70359 0.77168 0.33852 0.0
C509 C 0.6708 0.69988 0.3297 0.0
C510 C 0.6885 0.71784 0.29003 0.0
C511 C 0.72117 0.77278 0.25335 0.0
C512 C 0.73578 0.80965 0.25661 0.0
C513 C 0.70465 0.75391 0.29381 0.0
C514 C 0.73448 0.82718 0.301 0.0
C515 C 0.71889 0.80825 0.34173 0.0
H516 H 0.78812 0.261 0.95821 0.0
H517 H 0.75275 0.14365 0.95972 0.0
H518 H 0.70028 0.16088 0.90746 0.0
H519 H 0.67118 0.20817 0.85086 0.0
H520 H 0.7109 0.32434 0.84643 0.0
H521 H 0.755 0.30881 0.91033 0.0
C522 C 0.76847 0.23927 0.94787 0.0
C523 C 0.77447 0.20112 0.96193 0.0
C524 C 0.7396 0.24916 0.91658 0.0
C525 C 0.74861 0.17325 0.94917 0.0
C526 C 0.71892 0.18306 0.91889 0.0
C527 C 0.68914 0.23008 0.8646 0.0
C528 C 0.68845 0.26709 0.84341 0.0
C529 C 0.71516 0.22071 0.90067 0.0
C530 C 0.7115 0.29546 0.86151 0.0
C531 C 0.73664 0.28665 0.89814 0.0
H532 H 0.35772 0.2947 0.37786 0.0
H533 H 0.26232 0.28388 0.47105 0.0
H534 H 0.22903 0.24899 0.40981 0.0
H535 H 0.22747 0.2208 0.3295 0.0
H536 H 0.32434 0.2302 0.23884 0.0
H537 H 0.35649 0.26655 0.29918 0.0
C538 C 0.32958 0.28485 0.38482 0.0
C539 C 0.31254 0.29203 0.42895 0.0
C540 C 0.31082 0.26457 0.34974 0.0
C541 C 0.27615 0.27873 0.43742 0.0
C542 C 0.25707 0.25882 0.40235 0.0
C543 C 0.25551 0.23105 0.32294 0.0
C544 C 0.27349 0.22308 0.27962 0.0
C545 C 0.27415 0.2515 0.35832 0.0
C546 C 0.30995 0.23611 0.27184 0.0
C547 C 0.32836 0.25685 0.30633 0.0
H548 H 0.2663 0.8221 0.94445 0.0
H549 H 0.18823 0.73303 0.98614 0.0
H550 H 0.23411 0.68498 0.96939 0.0
H551 H 0.2944 0.66879 0.93437 0.0
H552 H 0.37367 0.75814 0.89823 0.0
H553 H 0.32956 0.80582 0.92163 0.0
C554 C 0.25966 0.79213 0.95047 0.0
C555 C 0.22405 0.78085 0.96576 0.0
C556 C 0.28623 0.76489 0.94138 0.0
C557 C 0.21561 0.74214 0.97423 0.0
C558 C 0.24172 0.71475 0.96443 0.0
C559 C 0.30203 0.69869 0.93233 0.0
C560 C 0.33678 0.71025 0.91396 0.0
C561 C 0.27677 0.72582 0.94666 0.0
C562 C 0.34688 0.74884 0.91215 0.0
C563 C 0.32167 0.77604 0.9253 0.0
loop_
_geom_bond_atom_site_label_1
_geom_bond_atom_site_label_2
_geom_bond_distance
_geom_bond_site_symmetry_2
_ccdc_geom_bond_type
Zn0 O6 1.920 . S
Zn0 O12 1.898 . S
Zn0 O15 1.905 . S
Zn1 O9 1.905 . S
Zn1 O10 1.898 . S
Zn1 O18 1.920 . S
Zn2 O5 2.081 . S
Zn2 O8 2.114 1_554 S
Zn2 O11 2.120 1_554 S
Zn2 O13 2.120 . S
Zn2 O14 2.114 . S
Zn2 O17 2.080 1_554 S
C3 O8 1.166 . S
C3 O9 1.182 . S
C4 O10 1.167 . S
C4 O11 1.299 . S
O5 Zn2 2.081 . S
O5 C19 1.305 . S
O6 Zn0 1.920 . S
O6 C19 1.234 . S
C7 O12 1.167 . S
C7 O13 1.299 . S
O8 Zn2 2.114 1_556 S
O8 C3 1.166 . S
O9 Zn1 1.905 . S
O9 C3 1.182 . S
O10 Zn1 1.898 . S
O10 C4 1.167 . S
O11 Zn2 2.120 1_556 S
O11 C4 1.299 . S
O12 Zn0 1.898 . S
O12 C7 1.167 . S
O13 Zn2 2.120 . S
O13 C7 1.299 . S
O14 Zn2 2.114 . S
O14 C16 1.166 . S
O15 Zn0 1.905 . S
O15 C16 1.182 . S
C16 O14 1.166 . S
C16 O15 1.182 . S
O17 Zn2 2.080 1_556 S
O17 C20 1.305 . S
O18 Zn1 1.920 . S
O18 C20 1.234 . S
C19 O5 1.305 . S
C19 O6 1.234 . S
C20 O17 1.305 . S
C20 O18 1.234 . S
Zn21 O27 1.920 . S
Zn21 O33 1.898 . S
Zn21 O36 1.905 . S
Zn22 O30 1.905 . S
Zn22 O31 1.898 . S
Zn22 O39 1.920 . S
Zn23 O26 2.080 . S
Zn23 O29 2.114 . S
Zn23 O32 2.120 . S
Zn23 O34 2.120 . S
Zn23 O35 2.114 . S
Zn23 O38 2.080 . S
C24 O29 1.166 . S
C24 O30 1.182 . S
C25 O31 1.167 . S
C25 O32 1.299 . S
O26 Zn23 2.080 . S
O26 C40 1.305 . S
O27 Zn21 1.920 . S
O27 C40 1.234 . S
C28 O33 1.167 . S
C28 O34 1.299 . S
O29 Zn23 2.114 . S
O29 C24 1.166 . S
O30 Zn22 1.905 . S
O30 C24 1.182 . S
O31 Zn22 1.898 . S
O31 C25 1.167 . S
O32 Zn23 2.120 . S
O32 C25 1.299 . S
O33 Zn21 1.898 . S
O33 C28 1.167 . S
O34 Zn23 2.120 . S
O34 C28 1.299 . S
O35 Zn23 2.114 . S
O35 C37 1.166 . S
O36 Zn21 1.905 . S
O36 C37 1.182 . S
C37 O35 1.166 . S
C37 O36 1.182 . S
O38 Zn23 2.080 . S
O38 C41 1.305 . S
O39 Zn22 1.920 . S
O39 C41 1.234 . S
C40 O26 1.305 . S
C40 O27 1.234 . S
C41 O38 1.305 . S
C41 O39 1.234 . S
Zn42 O48 1.920 . S
Zn42 O54 1.898 . S
Zn42 O57 1.905 . S
Zn43 O51 1.905 . S
Zn43 O52 1.898 . S
Zn43 O60 1.920 . S
Zn44 O47 2.080 1_554 S
Zn44 O50 2.114 . S
Zn44 O53 2.120 . S
Zn44 O55 2.120 1_554 S
Zn44 O56 2.114 1_554 S
Zn44 O59 2.080 . S
C45 O50 1.166 . S
C45 O51 1.182 . S
C46 O52 1.167 . S
C46 O53 1.299 . S
O47 Zn44 2.080 1_556 S
O47 C61 1.305 . S
O48 Zn42 1.920 . S
O48 C61 1.234 . S
C49 O54 1.167 . S
C49 O55 1.299 . S
O50 Zn44 2.114 . S
O50 C45 1.166 . S
O51 Zn43 1.905 . S
O51 C45 1.182 . S
O52 Zn43 1.898 . S
O52 C46 1.167 . S
O53 Zn44 2.120 . S
O53 C46 1.299 . S
O54 Zn42 1.898 . S
O54 C49 1.167 . S
O55 Zn44 2.120 1_556 S
O55 C49 1.299 . S
O56 Zn44 2.114 1_556 S
O56 C58 1.166 . S
O57 Zn42 1.905 . S
O57 C58 1.182 . S
C58 O56 1.166 . S
C58 O57 1.182 . S
O59 Zn44 2.080 . S
O59 C62 1.305 . S
O60 Zn43 1.920 . S
O60 C62 1.234 . S
C61 O47 1.305 . S
C61 O48 1.234 . S
C62 O59 1.305 . S
C62 O60 1.234 . S
Zn63 O69 1.920 . S
Zn63 O75 1.898 . S
Zn63 O78 1.905 . S
Zn64 O72 1.905 . S
Zn64 O73 1.898 . S
Zn64 O81 1.920 . S
Zn65 O68 2.080 . S
Zn65 O71 2.114 . S
Zn65 O74 2.120 . S
Zn65 O76 2.120 . S
Zn65 O77 2.114 . S
Zn65 O80 2.080 . S
C66 O71 1.166 . S
C66 O72 1.182 . S
C67 O73 1.167 . S
C67 O74 1.299 . S
O68 Zn65 2.080 . S
O68 C82 1.305 . S
O69 Zn63 1.920 . S
O69 C82 1.234 . S
C70 O75 1.167 . S
C70 O76 1.299 . S
O71 Zn65 2.114 . S
O71 C66 1.166 . S
O72 Zn64 1.905 . S
O72 C66 1.182 . S
O73 Zn64 1.898 . S
O73 C67 1.167 . S
O74 Zn65 2.120 . S
O74 C67 1.299 . S
O75 Zn63 1.898 . S
O75 C70 1.167 . S
O76 Zn65 2.120 . S
O76 C70 1.299 . S
O77 Zn65 2.114 . S
O77 C79 1.166 . S
O78 Zn63 1.905 . S
O78 C79 1.182 . S
C79 O77 1.166 . S
C79 O78 1.182 . S
O80 Zn65 2.080 . S
O80 C83 1.305 . S
O81 Zn64 1.920 . S
O81 C83 1.234 . S
C82 O68 1.305 . S
C82 O69 1.234 . S
C83 O80 1.305 . S
C83 O81 1.234 . S
H84 C89 0.930 . S
H85 C92 0.930 . S
H86 C94 0.930 . S
H87 C88 1.016 . S
C88 H87 1.016 . S
C88 N95 1.286 . S
C89 H84 0.930 . S
C89 C90 1.397 . S
C89 C91 1.361 . S
C90 C89 1.397 . S
C90 C94 1.390 . S
C91 C89 1.361 . S
C91 C92 1.393 . S
C91 N95 1.413 . S
C92 H85 0.930 . S
C92 C91 1.393 . S
C92 C93 1.399 . S
C93 C92 1.399 . S
C93 C94 1.381 . S
C94 H86 0.930 . S
C94 C90 1.390 . S
C94 C93 1.381 . S
N95 C88 1.286 . S
N95 C91 1.413 . S
H96 C101 0.930 . S
H97 C104 0.930 . S
H98 C106 0.930 . S
H99 C100 1.016 . S
C100 H99 1.016 . S
C100 N107 1.286 . S
C101 H96 0.930 . S
C101 C102 1.397 . S
C101 C103 1.361 . S
C102 C101 1.397 . S
C102 C106 1.390 . S
C103 C101 1.361 . S
C103 C104 1.393 . S
C103 N107 1.413 . S
C104 H97 0.930 . S
C104 C103 1.393 . S
C104 C105 1.399 . S
C105 C104 1.399 . S
C105 C106 1.381 . S
C106 H98 0.930 . S
C106 C102 1.390 . S
C106 C105 1.381 . S
N107 C100 1.286 . S
N107 C103 1.413 . S
H108 C113 0.930 . S
H109 C116 0.930 . S
H110 C118 0.930 . S
H111 C112 1.016 . S
C112 H111 1.016 . S
C112 N119 1.286 . S
C113 H108 0.930 . S
C113 C114 1.397 . S
C113 C115 1.361 . S
C114 C113 1.397 . S
C114 C118 1.390 . S
C115 C113 1.361 . S
C115 C116 1.393 . S
C115 N119 1.413 . S
C116 H109 0.930 . S
C116 C115 1.393 . S
C116 C117 1.399 . S
C117 C116 1.399 . S
C117 C118 1.381 . S
C118 H110 0.930 . S
C118 C114 1.390 . S
C118 C117 1.381 . S
N119 C112 1.286 . S
N119 C115 1.413 . S
H120 C125 0.930 . S
H121 C128 0.930 . S
H122 C130 0.930 . S
H123 C124 1.016 . S
C124 H123 1.016 . S
C124 N131 1.286 . S
C125 H120 0.930 . S
C125 C126 1.397 . S
C125 C127 1.361 . S
C126 C125 1.397 . S
C126 C130 1.390 . S
C127 C125 1.361 . S
C127 C128 1.393 . S
C127 N131 1.413 . S
C128 H121 0.930 . S
C128 C127 1.393 . S
C128 C129 1.399 . S
C129 C128 1.399 . S
C129 C130 1.381 . S
C130 H122 0.930 . S
C130 C126 1.390 . S
C130 C129 1.381 . S
N131 C124 1.286 . S
N131 C127 1.413 . S
H132 C137 0.930 . S
H133 C140 0.930 . S
H134 C142 0.930 . S
H135 C136 1.016 . S
C136 H135 1.016 . S
C136 N143 1.286 . S
C137 H132 0.930 . S
C137 C138 1.397 . S
C137 C139 1.361 . S
C138 C137 1.397 . S
C138 C142 1.390 . S
C139 C137 1.361 . S
C139 C140 1.393 . S
C139 N143 1.413 . S
C140 H133 0.930 . S
C140 C139 1.393 . S
C140 C141 1.399 . S
C141 C140 1.399 . S
C141 C142 1.381 . S
C142 H134 0.930 . S
C142 C138 1.390 . S
C142 C141 1.381 . S
N143 C136 1.286 . S
N143 C139 1.413 . S
H144 C149 0.930 . S
H145 C152 0.930 . S
H146 C154 0.930 . S
H147 C148 1.016 . S
C148 H147 1.016 . S
C148 N155 1.286 . S
C149 H144 0.930 . S
C149 C150 1.397 . S
C149 C151 1.361 . S
C150 C149 1.397 . S
C150 C154 1.390 . S
C151 C149 1.361 . S
C151 C152 1.393 . S
C151 N155 1.413 . S
C152 H145 0.930 . S
C152 C151 1.393 . S
C152 C153 1.399 . S
C153 C152 1.399 . S
C153 C154 1.381 . S
C154 H146 0.930 . S
C154 C150 1.390 . S
C154 C153 1.381 . S
N155 C148 1.286 . S
N155 C151 1.413 . S
H156 C161 0.930 . S
H157 C164 0.930 . S
H158 C166 0.930 . S
H159 C160 1.016 . S
C160 H159 1.016 . S
C160 N167 1.286 . S
C161 H156 0.930 . S
C161 C162 1.397 . S
C161 C163 1.361 . S
C162 C161 1.397 . S
C162 C166 1.390 . S
C163 C161 1.361 . S
C163 C164 1.393 . S
C163 N167 1.413 . S
C164 H157 0.930 . S
C164 C163 1.393 . S
C164 C165 1.399 . S
C165 C164 1.399 . S
C165 C166 1.381 . S
C166 H158 0.930 . S
C166 C162 1.390 . S
C166 C165 1.381 . S
N167 C160 1.286 . S
N167 C163 1.413 . S
H168 C173 0.930 . S
H169 C176 0.930 . S
H170 C178 0.930 . S
H171 C172 1.016 . S
C172 H171 1.016 . S
C172 N179 1.286 . S
C173 H168 0.930 . S
C173 C174 1.397 . S
C173 C175 1.361 . S
C174 C173 1.397 . S
C174 C178 1.390 . S
C175 C173 1.361 . S
C175 C176 1.393 . S
C175 N179 1.413 . S
C176 H169 0.930 . S
C176 C175 1.393 . S
C176 C177 1.399 . S
C177 C176 1.399 . S
C177 C178 1.381 . S
C178 H170 0.930 . S
C178 C174 1.390 . S
C178 C177 1.381 . S
N179 C172 1.286 . S
N179 C175 1.413 . S
H180 C186 0.930 . S
H181 C189 0.945 . S
H182 C190 0.930 . S
H183 C191 0.930 . S
H184 C194 0.930 . S
H185 C195 0.930 1_565 S
C186 H180 0.930 . S
C186 C187 1.355 . S
C186 C188 1.415 . S
C187 C186 1.355 . S
C187 C189 1.419 . S
C188 C186 1.415 . S
C188 C193 1.425 1_565 S
C188 C195 1.409 1_565 S
C189 H181 0.945 . S
C189 C187 1.419 . S
C189 C190 1.362 1_565 S
C190 H182 0.930 . S
C190 C189 1.362 1_545 S
C190 C193 1.409 . S
C191 H183 0.930 . S
C191 C192 1.355 . S
C191 C193 1.415 . S
C192 C191 1.355 . S
C192 C194 1.419 . S
C193 C188 1.425 1_545 S
C193 C190 1.409 . S
C193 C191 1.415 . S
C194 H184 0.930 . S
C194 C192 1.419 . S
C194 C195 1.362 . S
C195 H185 0.930 1_545 S
C195 C188 1.409 1_545 S
C195 C194 1.362 . S
H196 C202 0.930 . S
H197 C205 0.930 . S
H198 C206 0.930 . S
H199 C207 0.930 . S
H200 C210 0.930 . S
H201 C211 0.930 . S
C202 H196 0.930 . S
C202 C203 1.355 . S
C202 C204 1.415 . S
C203 C202 1.355 . S
C203 C205 1.419 . S
C204 C202 1.415 . S
C204 C209 1.425 . S
C204 C211 1.409 . S
C205 H197 0.930 . S
C205 C203 1.419 . S
C205 C206 1.362 . S
C206 H198 0.930 . S
C206 C205 1.362 . S
C206 C209 1.409 . S
C207 H199 0.930 . S
C207 C208 1.355 . S
C207 C209 1.415 . S
C208 C207 1.355 . S
C208 C210 1.419 . S
C209 C204 1.425 . S
C209 C206 1.409 . S
C209 C207 1.415 . S
C210 H200 0.930 . S
C210 C208 1.419 . S
C210 C211 1.362 . S
C211 H201 0.930 . S
C211 C204 1.409 . S
C211 C210 1.362 . S
H212 C218 0.930 . S
H213 C221 0.930 . S
H214 C222 0.930 . S
H215 C223 0.930 . S
H216 C226 0.930 . S
H217 C227 0.930 . S
C218 H212 0.930 . S
C218 C219 1.355 . S
C218 C220 1.415 . S
C219 C218 1.355 . S
C219 C221 1.419 . S
C220 C218 1.415 . S
C220 C225 1.425 1_545 S
C220 C227 1.409 . S
C221 H213 0.930 . S
C221 C219 1.419 . S
C221 C222 1.362 1_545 S
C222 H214 0.930 . S
C222 C221 1.362 1_565 S
C222 C225 1.409 . S
C223 H215 0.930 . S
C223 C224 1.355 . S
C223 C225 1.415 . S
C224 C223 1.355 . S
C224 C226 1.419 . S
C225 C220 1.425 1_565 S
C225 C222 1.409 . S
C225 C223 1.415 . S
C226 H216 0.930 . S
C226 C224 1.419 . S
C226 C227 1.362 1_565 S
C227 H217 0.930 . S
C227 C220 1.409 . S
C227 C226 1.362 1_545 S
H228 C234 0.930 . S
H229 C237 0.930 . S
H230 C238 0.930 . S
H231 C239 0.930 . S
H232 C242 0.930 . S
H233 C243 0.930 . S
C234 H228 0.930 . S
C234 C235 1.355 . S
C234 C236 1.415 . S
C235 C234 1.355 . S
C235 C237 1.419 . S
C236 C234 1.415 . S
C236 C241 1.425 . S
C236 C243 1.409 . S
C237 H229 0.930 . S
C237 C235 1.419 . S
C237 C238 1.362 . S
C238 H230 0.930 . S
C238 C237 1.362 . S
C238 C241 1.409 . S
C239 H231 0.930 . S
C239 C240 1.355 . S
C239 C241 1.415 . S
C240 C239 1.355 . S
C240 C242 1.419 . S
C241 C236 1.425 . S
C241 C238 1.409 . S
C241 C239 1.415 . S
C242 H232 0.930 . S
C242 C240 1.419 . S
C242 C243 1.362 . S
C243 H233 0.930 . S
C243 C236 1.409 . S
C243 C242 1.362 . S
H244 C250 0.930 . S
H245 C253 0.930 . S
H246 C254 0.930 . S
H247 C255 0.930 . S
H248 C258 0.930 . S
H249 C259 0.930 . S
C250 H244 0.930 . S
C250 C251 1.355 . S
C250 C252 1.415 . S
C251 C250 1.355 . S
C251 C253 1.419 . S
C252 C250 1.415 . S
C252 C257 1.425 . S
C252 C259 1.409 . S
C253 H245 0.930 . S
C253 C251 1.419 . S
C253 C254 1.362 . S
C254 H246 0.930 . S
C254 C253 1.362 . S
C254 C257 1.409 . S
C255 H247 0.930 . S
C255 C256 1.355 . S
C255 C257 1.415 . S
C256 C255 1.355 . S
C256 C258 1.419 . S
C257 C252 1.425 . S
C257 C254 1.409 . S
C257 C255 1.415 . S
C258 H248 0.930 . S
C258 C256 1.419 . S
C258 C259 1.362 . S
C259 H249 0.930 . S
C259 C252 1.409 . S
C259 C258 1.362 . S
H260 C266 0.930 . S
H261 C269 0.930 . S
H262 C270 0.930 1_455 S
H263 C271 0.930 . S
H264 C274 0.930 . S
H265 C275 0.930 . S
C266 H260 0.930 . S
C266 C267 1.355 . S
C266 C268 1.415 . S
C267 C266 1.355 . S
C267 C269 1.419 . S
C268 C266 1.415 . S
C268 C273 1.425 . S
C268 C275 1.409 . S
C269 H261 0.930 . S
C269 C267 1.419 . S
C269 C270 1.362 . S
C270 H262 0.930 1_655 S
C270 C269 1.362 . S
C270 C273 1.409 . S
C271 H263 0.930 . S
C271 C272 1.355 . S
C271 C273 1.415 1_455 S
C272 C271 1.355 . S
C272 C274 1.419 1_455 S
C273 C268 1.425 . S
C273 C270 1.409 . S
C273 C271 1.415 1_655 S
C274 H264 0.930 . S
C274 C272 1.419 1_655 S
C274 C275 1.362 . S
C275 H265 0.930 . S
C275 C268 1.409 . S
C275 C274 1.362 . S
H276 C282 0.930 . S
H277 C285 0.930 . S
H278 C286 0.930 . S
H279 C287 0.930 . S
H280 C290 0.930 . S
H281 C291 0.930 . S
C282 H276 0.930 . S
C282 C283 1.355 . S
C282 C284 1.415 . S
C283 C282 1.355 . S
C283 C285 1.419 . S
C284 C282 1.415 . S
C284 C289 1.425 . S
C284 C291 1.409 . S
C285 H277 0.930 . S
C285 C283 1.419 . S
C285 C286 1.362 . S
C286 H278 0.930 . S
C286 C285 1.362 . S
C286 C289 1.409 . S
C287 H279 0.930 . S
C287 C288 1.355 . S
C287 C289 1.415 . S
C288 C287 1.355 . S
C288 C290 1.419 . S
C289 C284 1.425 . S
C289 C286 1.409 . S
C289 C287 1.415 . S
C290 H280 0.930 . S
C290 C288 1.419 . S
C290 C291 1.362 . S
C291 H281 0.930 . S
C291 C284 1.409 . S
C291 C290 1.362 . S
H292 C298 0.930 . S
H293 C301 0.930 . S
H294 C302 0.930 . S
H295 C303 0.930 . S
H296 C306 0.930 . S
H297 C307 0.930 1_455 S
C298 H292 0.930 . S
C298 C299 1.355 . S
C298 C300 1.415 . S
C299 C298 1.355 . S
C299 C301 1.419 . S
C300 C298 1.415 . S
C300 C305 1.425 1_455 S
C300 C307 1.409 1_455 S
C301 H293 0.930 . S
C301 C299 1.419 . S
C301 C302 1.362 1_455 S
C302 H294 0.930 . S
C302 C301 1.362 1_655 S
C302 C305 1.409 . S
C303 H295 0.930 . S
C303 C304 1.355 . S
C303 C305 1.415 . S
C304 C303 1.355 . S
C304 C306 1.419 . S
C305 C300 1.425 1_655 S
C305 C302 1.409 . S
C305 C303 1.415 . S
C306 H296 0.930 . S
C306 C304 1.419 . S
C306 C307 1.362 . S
C307 H297 0.930 1_655 S
C307 C300 1.409 1_655 S
C307 C306 1.362 . S
H308 C314 0.930 1_545 S
H309 C317 0.930 1_545 S
H310 C318 0.930 . S
H311 C319 0.930 . S
H312 C322 0.930 . S
H313 C323 0.930 . S
C314 H308 0.930 1_565 S
C314 C315 1.355 1_565 S
C314 C316 1.415 . S
C315 C314 1.355 1_545 S
C315 C317 1.419 1_545 S
C316 C314 1.415 . S
C316 C321 1.425 . S
C316 C323 1.409 . S
C317 H309 0.930 1_565 S
C317 C315 1.419 1_565 S
C317 C318 1.362 . S
C318 H310 0.930 . S
C318 C317 1.362 . S
C318 C321 1.409 . S
C319 H311 0.930 . S
C319 C320 1.355 . S
C319 C321 1.415 . S
C320 C319 1.355 . S
C320 C322 1.419 . S
C321 C316 1.425 . S
C321 C318 1.409 . S
C321 C319 1.415 . S
C322 H312 0.930 . S
C322 C320 1.419 . S
C322 C323 1.362 . S
C323 H313 0.930 . S
C323 C316 1.409 . S
C323 C322 1.362 . S
H324 C330 0.930 . S
H325 C333 0.930 . S
H326 C334 0.930 . S
H327 C335 0.930 . S
H328 C338 0.930 . S
H329 C339 0.930 . S
C330 H324 0.930 . S
C330 C331 1.355 . S
C330 C332 1.415 . S
C331 C330 1.355 . S
C331 C333 1.419 . S
C332 C330 1.415 . S
C332 C337 1.425 . S
C332 C339 1.409 . S
C333 H325 0.930 . S
C333 C331 1.419 . S
C333 C334 1.362 . S
C334 H326 0.930 . S
C334 C333 1.362 . S
C334 C337 1.409 . S
C335 H327 0.930 . S
C335 C336 1.355 . S
C335 C337 1.415 . S
C336 C335 1.355 . S
C336 C338 1.419 . S
C337 C332 1.425 . S
C337 C334 1.409 . S
C337 C335 1.415 . S
C338 H328 0.930 . S
C338 C336 1.419 . S
C338 C339 1.362 . S
C339 H329 0.930 . S
C339 C332 1.409 . S
C339 C338 1.362 . S
H340 C346 0.930 . S
H341 C349 0.930 . S
H342 C350 0.930 . S
H343 C351 0.930 . S
H344 C354 0.930 . S
H345 C355 0.930 . S
C346 H340 0.930 . S
C346 C347 1.355 . S
C346 C348 1.415 1_565 S
C347 C346 1.355 . S
C347 C349 1.419 1_565 S
C348 C346 1.415 1_545 S
C348 C353 1.425 . S
C348 C355 1.409 . S
C349 H341 0.930 . S
C349 C347 1.419 1_545 S
C349 C350 1.362 . S
C350 H342 0.930 . S
C350 C349 1.362 . S
C350 C353 1.409 . S
C351 H343 0.930 . S
C351 C352 1.355 . S
C351 C353 1.415 . S
C352 C351 1.355 . S
C352 C354 1.419 . S
C353 C348 1.425 . S
C353 C350 1.409 . S
C353 C351 1.415 . S
C354 H344 0.930 . S
C354 C352 1.419 . S
C354 C355 1.362 . S
C355 H345 0.930 . S
C355 C348 1.409 . S
C355 C354 1.362 . S
H356 C362 0.930 . S
H357 C365 0.930 . S
H358 C366 0.930 . S
H359 C367 0.930 . S
H360 C370 0.930 . S
H361 C371 0.930 . S
C362 H356 0.930 . S
C362 C363 1.355 . S
C362 C364 1.415 . S
C363 C362 1.355 . S
C363 C365 1.419 . S
C364 C362 1.415 . S
C364 C369 1.425 . S
C364 C371 1.409 . S
C365 H357 0.930 . S
C365 C363 1.419 . S
C365 C366 1.362 . S
C366 H358 0.930 . S
C366 C365 1.362 . S
C366 C369 1.409 . S
C367 H359 0.930 . S
C367 C368 1.355 . S
C367 C369 1.415 . S
C368 C367 1.355 . S
C368 C370 1.419 . S
C369 C364 1.425 . S
C369 C366 1.409 . S
C369 C367 1.415 . S
C370 H360 0.930 . S
C370 C368 1.419 . S
C370 C371 1.362 . S
C371 H361 0.930 . S
C371 C364 1.409 . S
C371 C370 1.362 . S
H372 C378 0.930 . S
H373 C381 0.930 . S
H374 C382 0.930 . S
H375 C383 0.930 . S
H376 C386 0.930 . S
H377 C387 0.930 . S
C378 H372 0.930 . S
C378 C379 1.355 . S
C378 C380 1.415 . S
C379 C378 1.355 . S
C379 C381 1.419 . S
C380 C378 1.415 . S
C380 C385 1.425 . S
C380 C387 1.409 . S
C381 H373 0.930 . S
C381 C379 1.419 . S
C381 C382 1.362 . S
C382 H374 0.930 . S
C382 C381 1.362 . S
C382 C385 1.409 . S
C383 H375 0.930 . S
C383 C384 1.355 . S
C383 C385 1.415 . S
C384 C383 1.355 . S
C384 C386 1.419 . S
C385 C380 1.425 . S
C385 C382 1.409 . S
C385 C383 1.415 . S
C386 H376 0.930 . S
C386 C384 1.419 . S
C386 C387 1.362 . S
C387 H377 0.930 . S
C387 C380 1.409 . S
C387 C386 1.362 . S
H388 C394 0.936 . S
H389 C397 0.930 . S
H390 C398 0.930 . S
H391 C399 0.930 . S
H392 C402 0.930 . S
H393 C403 0.930 . S
C394 H388 0.936 . S
C394 C395 1.329 1_655 S
C394 C396 1.434 . S
C395 C394 1.329 1_455 S
C395 C397 1.419 . S
C396 C394 1.434 . S
C396 C401 1.425 . S
C396 C403 1.409 . S
C397 H389 0.930 . S
C397 C395 1.419 . S
C397 C398 1.362 . S
C398 H390 0.930 . S
C398 C397 1.362 . S
C398 C401 1.409 1_455 S
C399 H391 0.930 . S
C399 C400 1.355 . S
C399 C401 1.415 . S
C400 C399 1.355 . S
C400 C402 1.419 . S
C401 C396 1.425 . S
C401 C398 1.409 1_655 S
C401 C399 1.415 . S
C402 H392 0.930 . S
C402 C400 1.419 . S
C402 C403 1.362 . S
C403 H393 0.930 . S
C403 C396 1.409 . S
C403 C402 1.362 . S
H404 C410 0.930 . S
H405 C413 0.930 . S
H406 C414 0.930 . S
H407 C415 0.930 . S
H408 C418 0.930 . S
H409 C419 0.930 . S
C410 H404 0.930 . S
C410 C411 1.355 . S
C410 C412 1.415 . S
C411 C410 1.355 . S
C411 C413 1.419 . S
C412 C410 1.415 . S
C412 C417 1.425 . S
C412 C419 1.409 . S
C413 H405 0.930 . S
C413 C411 1.419 . S
C413 C414 1.362 . S
C414 H406 0.930 . S
C414 C413 1.362 . S
C414 C417 1.409 . S
C415 H407 0.930 . S
C415 C416 1.355 . S
C415 C417 1.415 . S
C416 C415 1.355 . S
C416 C418 1.419 . S
C417 C412 1.425 . S
C417 C414 1.409 . S
C417 C415 1.415 . S
C418 H408 0.930 . S
C418 C416 1.419 . S
C418 C419 1.362 . S
C419 H409 0.930 . S
C419 C412 1.409 . S
C419 C418 1.362 . S
H420 C426 0.930 . S
H421 C429 0.931 1_655 S
H422 C430 0.930 . S
H423 C431 0.930 . S
H424 C434 0.930 . S
H425 C435 0.930 . S
C426 H420 0.930 . S
C426 C427 1.355 . S
C426 C428 1.415 1_655 S
C427 C426 1.355 . S
C427 C429 1.419 1_655 S
C428 C426 1.415 1_455 S
C428 C433 1.425 . S
C428 C435 1.409 . S
C429 H421 0.931 1_455 S
C429 C427 1.419 1_455 S
C429 C430 1.362 . S
C430 H422 0.930 . S
C430 C429 1.362 . S
C430 C433 1.409 . S
C431 H423 0.930 . S
C431 C432 1.355 . S
C431 C433 1.415 . S
C432 C431 1.355 . S
C432 C434 1.419 . S
C433 C428 1.425 . S
C433 C430 1.409 . S
C433 C431 1.415 . S
C434 H424 0.930 . S
C434 C432 1.419 . S
C434 C435 1.362 . S
C435 H425 0.930 . S
C435 C428 1.409 . S
C435 C434 1.362 . S
H436 C442 0.930 . S
H437 C445 0.930 . S
H438 C446 0.930 . S
H439 C447 0.930 . S
H440 C450 0.930 . S
H441 C451 0.930 . S
C442 H436 0.930 . S
C442 C443 1.355 . S
C442 C444 1.415 . S
C443 C442 1.355 . S
C443 C445 1.419 . S
C444 C442 1.415 . S
C444 C449 1.425 . S
C444 C451 1.409 . S
C445 H437 0.930 . S
C445 C443 1.419 . S
C445 C446 1.362 . S
C446 H438 0.930 . S
C446 C445 1.362 . S
C446 C449 1.409 . S
C447 H439 0.930 . S
C447 C448 1.355 . S
C447 C449 1.415 . S
C448 C447 1.355 . S
C448 C450 1.419 . S
C449 C444 1.425 . S
C449 C446 1.409 . S
C449 C447 1.415 . S
C450 H440 0.930 . S
C450 C448 1.419 . S
C450 C451 1.362 . S
C451 H441 0.930 . S
C451 C444 1.409 . S
C451 C450 1.362 . S
H452 C458 0.930 . S
H453 C461 0.930 . S
H454 C462 0.930 . S
H455 C463 0.930 . S
H456 C466 0.930 . S
H457 C467 0.930 . S
C458 H452 0.930 . S
C458 C459 1.355 . S
C458 C460 1.415 . S
C459 C458 1.355 . S
C459 C461 1.419 . S
C460 C458 1.415 . S
C460 C465 1.425 . S
C460 C467 1.409 . S
C461 H453 0.930 . S
C461 C459 1.419 . S
C461 C462 1.362 . S
C462 H454 0.930 . S
C462 C461 1.362 . S
C462 C465 1.409 . S
C463 H455 0.930 . S
C463 C464 1.355 . S
C463 C465 1.415 . S
C464 C463 1.355 . S
C464 C466 1.419 . S
C465 C460 1.425 . S
C465 C462 1.409 . S
C465 C463 1.415 . S
C466 H456 0.930 . S
C466 C464 1.419 . S
C466 C467 1.362 . S
C467 H457 0.930 . S
C467 C460 1.409 . S
C467 C466 1.362 . S
H468 C474 0.930 . S
H469 C477 0.930 . S
H470 C478 0.930 . S
H471 C479 0.930 . S
H472 C482 0.930 . S
H473 C483 0.930 . S
C474 H468 0.930 . S
C474 C475 1.355 . S
C474 C476 1.415 . S
C475 C474 1.355 . S
C475 C477 1.419 . S
C476 C474 1.415 . S
C476 C481 1.425 . S
C476 C483 1.409 . S
C477 H469 0.930 . S
C477 C475 1.419 . S
C477 C478 1.362 . S
C478 H470 0.930 . S
C478 C477 1.362 . S
C478 C481 1.409 . S
C479 H471 0.930 . S
C479 C480 1.355 . S
C479 C481 1.415 . S
C480 C479 1.355 . S
C480 C482 1.419 . S
C481 C476 1.425 . S
C481 C478 1.409 . S
C481 C479 1.415 . S
C482 H472 0.930 . S
C482 C480 1.419 . S
C482 C483 1.362 . S
C483 H473 0.930 . S
C483 C476 1.409 . S
C483 C482 1.362 . S
H484 C490 0.930 . S
H485 C493 0.930 . S
H486 C494 0.930 . S
H487 C495 0.930 . S
H488 C498 0.930 . S
H489 C499 0.930 . S
C490 H484 0.930 . S
C490 C491 1.355 . S
C490 C492 1.415 . S
C491 C490 1.355 . S
C491 C493 1.419 . S
C492 C490 1.415 . S
C492 C497 1.425 . S
C492 C499 1.409 . S
C493 H485 0.930 . S
C493 C491 1.419 . S
C493 C494 1.362 . S
C494 H486 0.930 . S
C494 C493 1.362 . S
C494 C497 1.409 . S
C495 H487 0.930 . S
C495 C496 1.355 . S
C495 C497 1.415 . S
C496 C495 1.355 . S
C496 C498 1.419 . S
C497 C492 1.425 . S
C497 C494 1.409 . S
C497 C495 1.415 . S
C498 H488 0.930 . S
C498 C496 1.419 . S
C498 C499 1.362 . S
C499 H489 0.930 . S
C499 C492 1.409 . S
C499 C498 1.362 . S
H500 C506 0.930 . S
H501 C509 0.930 . S
H502 C510 0.930 . S
H503 C511 0.930 . S
H504 C514 0.930 . S
H505 C515 0.930 . S
C506 H500 0.930 . S
C506 C507 1.355 . S
C506 C508 1.415 . S
C507 C506 1.355 . S
C507 C509 1.419 . S
C508 C506 1.415 . S
C508 C513 1.425 . S
C508 C515 1.409 . S
C509 H501 0.930 . S
C509 C507 1.419 . S
C509 C510 1.362 . S
C510 H502 0.930 . S
C510 C509 1.362 . S
C510 C513 1.409 . S
C511 H503 0.930 . S
C511 C512 1.355 . S
C511 C513 1.415 . S
C512 C511 1.355 . S
C512 C514 1.419 . S
C513 C508 1.425 . S
C513 C510 1.409 . S
C513 C511 1.415 . S
C514 H504 0.930 . S
C514 C512 1.419 . S
C514 C515 1.362 . S
C515 H505 0.930 . S
C515 C508 1.409 . S
C515 C514 1.362 . S
H516 C522 0.930 . S
H517 C525 0.930 . S
H518 C526 0.930 . S
H519 C527 0.930 . S
H520 C530 0.930 . S
H521 C531 0.930 . S
C522 H516 0.930 . S
C522 C523 1.355 . S
C522 C524 1.415 . S
C523 C522 1.355 . S
C523 C525 1.419 . S
C524 C522 1.415 . S
C524 C529 1.425 . S
C524 C531 1.409 . S
C525 H517 0.930 . S
C525 C523 1.419 . S
C525 C526 1.362 . S
C526 H518 0.930 . S
C526 C525 1.362 . S
C526 C529 1.409 . S
C527 H519 0.930 . S
C527 C528 1.355 . S
C527 C529 1.415 . S
C528 C527 1.355 . S
C528 C530 1.419 . S
C529 C524 1.425 . S
C529 C526 1.409 . S
C529 C527 1.415 . S
C530 H520 0.930 . S
C530 C528 1.419 . S
C530 C531 1.362 . S
C531 H521 0.930 . S
C531 C524 1.409 . S
C531 C530 1.362 . S
H532 C538 0.930 . S
H533 C541 0.930 . S
H534 C542 0.930 . S
H535 C543 0.930 . S
H536 C546 0.930 . S
H537 C547 0.930 . S
C538 H532 0.930 . S
C538 C539 1.355 . S
C538 C540 1.415 . S
C539 C538 1.355 . S
C539 C541 1.419 . S
C540 C538 1.415 . S
C540 C545 1.425 . S
C540 C547 1.409 . S
C541 H533 0.930 . S
C541 C539 1.419 . S
C541 C542 1.362 . S
C542 H534 0.930 . S
C542 C541 1.362 . S
C542 C545 1.409 . S
C543 H535 0.930 . S
C543 C544 1.355 . S
C543 C545 1.415 . S
C544 C543 1.355 . S
C544 C546 1.419 . S
C545 C540 1.425 . S
C545 C542 1.409 . S
C545 C543 1.415 . S
C546 H536 0.930 . S
C546 C544 1.419 . S
C546 C547 1.362 . S
C547 H537 0.930 . S
C547 C540 1.409 . S
C547 C546 1.362 . S
H548 C554 0.930 . S
H549 C557 0.930 . S
H550 C558 0.930 . S
H551 C559 0.930 . S
H552 C562 0.930 . S
H553 C563 0.930 . S
C554 H548 0.930 . S
C554 C555 1.355 . S
C554 C556 1.415 . S
C555 C554 1.355 . S
C555 C557 1.419 . S
C556 C554 1.415 . S
C556 C561 1.425 . S
C556 C563 1.409 . S
C557 H549 0.930 . S
C557 C555 1.419 . S
C557 C558 1.362 . S
C558 H550 0.930 . S
C558 C557 1.362 . S
C558 C561 1.409 . S
C559 H551 0.930 . S
C559 C560 1.355 . S
C559 C561 1.415 . S
C560 C559 1.355 . S
C560 C562 1.419 . S
C561 C556 1.425 . S
C561 C558 1.409 . S
C561 C559 1.415 . S
C562 H552 0.930 . S
C562 C560 1.419 . S
C562 C563 1.362 . S
C563 H553 0.930 . S
C563 C556 1.409 . S
C563 C562 1.362 . S
C187 C7 0.968 . S
C192 C93 0.964 . S
C203 C25 0.997 . S
C208 C105 0.989 . S
C219 C46 0.854 . S
C224 C117 0.905 . S
C240 C126 0.866 . S
C235 C70 0.828 . S
C256 C141 0.887 . S
C251 C28 0.811 . S
C267 C49 0.880 . S
C272 C150 0.983 . S
C283 C67 0.845 . S
C288 C165 0.905 . S
C299 C4 0.942 . S
C304 C177 1.015 . S
C315 C58 1.579 . S
C320 C174 1.646 . S
C336 C138 1.638 . S
C331 C66 1.518 . S
C352 C153 1.696 . S
C347 C3 1.651 . S
C363 C37 1.576 . S
C368 C162 1.634 . S
C384 C102 1.643 . S
C379 C79 1.541 . S
C395 C16 1.493 . S
C400 C114 1.611 . S
C416 C129 1.728 . S
C411 C24 1.634 . S
C432 C90 1.651 . S
C427 C45 1.601 . S
C448 C160 1.363 . S
C443 C19 1.180 . S
C464 C172 1.409 . S
C459 C41 1.258 . S
C475 C62 1.266 . S
C480 C136 1.426 . S
C496 C148 1.429 . S
C491 C82 1.290 . S
C512 C112 1.365 . S
C507 C40 1.182 . S
C523 C61 1.260 . S
C528 C124 1.387 . S
C544 C88 1.426 . S
C539 C83 1.254 . S
C560 C100 1.401 . S
C555 C20 1.212 . S
