# Generated by pormake.
# Topology eea, (3,6)-cn, num edge types: 1
# Building blocks:
#     Node 0, Type 0, BuildingBlock: VETTIZ_charged_linker_0, # of connection points: 3
#     Node 1, Type 0, BuildingBlock: VETTIZ_charged_linker_0, # of connection points: 3
#     Node 2, Type 0, BuildingBlock: VETTIZ_charged_linker_0, # of connection points: 3
#     Node 3, Type 0, BuildingBlock: VETTIZ_charged_linker_0, # of connection points: 3
#     Node 4, Type 0, BuildingBlock: VETTIZ_charged_linker_0, # of connection points: 3
#     Node 5, Type 0, BuildingBlock: VETTIZ_charged_linker_0, # of connection points: 3
#     Node 6, Type 0, BuildingBlock: VETTIZ_charged_linker_0, # of connection points: 3
#     Node 7, Type 0, BuildingBlock: VETTIZ_charged_linker_0, # of connection points: 3
#     Node 8, Type 0, BuildingBlock: VETTIZ_charged_linker_0, # of connection points: 3
#     Node 9, Type 0, BuildingBlock: VETTIZ_charged_linker_0, # of connection points: 3
#     Node 10, Type 0, BuildingBlock: VETTIZ_charged_linker_0, # of connection points: 3
#     Node 11, Type 0, BuildingBlock: VETTIZ_charged_linker_0, # of connection points: 3
#     Node 12, Type 0, BuildingBlock: VETTIZ_charged_linker_0, # of connection points: 3
#     Node 13, Type 0, BuildingBlock: VETTIZ_charged_linker_0, # of connection points: 3
#     Node 14, Type 0, BuildingBlock: VETTIZ_charged_linker_0, # of connection points: 3
#     Node 15, Type 0, BuildingBlock: VETTIZ_charged_linker_0, # of connection points: 3
#     Node 16, Type 0, BuildingBlock: VETTIZ_charged_linker_0, # of connection points: 3
#     Node 17, Type 0, BuildingBlock: VETTIZ_charged_linker_0, # of connection points: 3
#     Node 18, Type 1, BuildingBlock: NUHQIS_clean_sbu_0, # of connection points: 6
#     Node 19, Type 1, BuildingBlock: NUHQIS_clean_sbu_0, # of connection points: 6
#     Node 20, Type 1, BuildingBlock: NUHQIS_clean_sbu_0, # of connection points: 6
#     Node 21, Type 1, BuildingBlock: NUHQIS_clean_sbu_0, # of connection points: 6
#     Node 22, Type 1, BuildingBlock: NUHQIS_clean_sbu_0, # of connection points: 6
#     Node 23, Type 1, BuildingBlock: NUHQIS_clean_sbu_0, # of connection points: 6
#     Node 24, Type 1, BuildingBlock: NUHQIS_clean_sbu_0, # of connection points: 6
#     Node 25, Type 1, BuildingBlock: NUHQIS_clean_sbu_0, # of connection points: 6
#     Node 26, Type 1, BuildingBlock: NUHQIS_clean_sbu_0, # of connection points: 6
#     Edge 27, Type (0, 1), None
#     Edge 28, Type (0, 1), None
#     Edge 29, Type (0, 1), None
#     Edge 30, Type (0, 1), None
#     Edge 31, Type (0, 1), None
#     Edge 32, Type (0, 1), None
#     Edge 33, Type (0, 1), None
#     Edge 34, Type (0, 1), None
#     Edge 35, Type (0, 1), None
#     Edge 36, Type (0, 1), None
#     Edge 37, Type (0, 1), None
#     Edge 38, Type (0, 1), None
#     Edge 39, Type (0, 1), None
#     Edge 40, Type (0, 1), None
#     Edge 41, Type (0, 1), None
#     Edge 42, Type (0, 1), None
#     Edge 43, Type (0, 1), None
#     Edge 44, Type (0, 1), None
#     Edge 45, Type (0, 1), None
#     Edge 46, Type (0, 1), None
#     Edge 47, Type (0, 1), None
#     Edge 48, Type (0, 1), None
#     Edge 49, Type (0, 1), None
#     Edge 50, Type (0, 1), None
#     Edge 51, Type (0, 1), None
#     Edge 52, Type (0, 1), None
#     Edge 53, Type (0, 1), None
#     Edge 54, Type (0, 1), None
#     Edge 55, Type (0, 1), None
#     Edge 56, Type (0, 1), None
#     Edge 57, Type (0, 1), None
#     Edge 58, Type (0, 1), None
#     Edge 59, Type (0, 1), None
#     Edge 60, Type (0, 1), None
#     Edge 61, Type (0, 1), None
#     Edge 62, Type (0, 1), None
#     Edge 63, Type (0, 1), None
#     Edge 64, Type (0, 1), None
#     Edge 65, Type (0, 1), None
#     Edge 66, Type (0, 1), None
#     Edge 67, Type (0, 1), None
#     Edge 68, Type (0, 1), None
#     Edge 69, Type (0, 1), None
#     Edge 70, Type (0, 1), None
#     Edge 71, Type (0, 1), None
#     Edge 72, Type (0, 1), None
#     Edge 73, Type (0, 1), None
#     Edge 74, Type (0, 1), None
#     Edge 75, Type (0, 1), None
#     Edge 76, Type (0, 1), None
#     Edge 77, Type (0, 1), None
#     Edge 78, Type (0, 1), None
#     Edge 79, Type (0, 1), None
#     Edge 80, Type (0, 1), None
# Relax obj value: 0.034
# Max RMSD: 0.131
# Mean RMSD: 0.112
data_MOF--net-eea--node1-NUHQIS_clean_sbu_0--node2-VETTIZ_charged_linker_0--edge1-none
_symmetry_space_group_name_H-M    P1
_symmetry_Int_Tables_number       1
_symmetry_cell_setting            triclinic
loop_
_symmetry_equiv_pos_as_xyz
'x, y, z'
_cell_length_a     33.473716
_cell_length_b     33.671443
_cell_length_c     55.181144
_cell_angle_alpha  92.056309
_cell_angle_beta   91.961983
_cell_angle_gamma 119.90151
loop_
_atom_site_label
_atom_site_type_symbol
_atom_site_fract_x
_atom_site_fract_y
_atom_site_fract_z
_atom_type_partial_charge
C0 C 0.20346 0.20565 0.3771 0.0
C1 C 0.21603 0.25043 0.38539 0.0
C2 C 0.24281 0.26888 0.40756 0.0
C3 C 0.24298 0.19804 0.41296 0.0
C4 C 0.2176 0.18039 0.391 0.0
C5 C 0.20794 0.13268 0.38448 0.0
H6 H 0.23255 0.95216 0.41178 0.0
C7 C 0.25182 0.16282 0.42291 0.0
C8 C 0.23176 0.1247 0.40606 0.0
H9 H 0.15776 0.96406 0.3496 0.0
H10 H 0.1786 0.04072 0.36413 0.0
H11 H 0.32041 0.05426 0.41306 0.0
H12 H 0.1935 0.98904 0.44856 0.0
H13 H 0.23185 0.03223 0.4699 0.0
H14 H 0.24341 0.98746 0.45993 0.0
H15 H 0.30909 0.0156 0.4368 0.0
H16 H 0.33418 0.07658 0.44336 0.0
C17 C 0.2312 0.13362 0.36053 0.0
C18 C 0.15489 0.09998 0.38323 0.0
C19 C 0.32904 0.18458 0.5077 0.0
C20 C 0.33845 0.15504 0.52112 0.0
C21 C 0.3309 0.11352 0.50995 0.0
C22 C 0.31259 0.10046 0.4861 0.0
C23 C 0.30116 0.12894 0.47322 0.0
C24 C 0.31007 0.17063 0.48372 0.0
C25 C 0.29551 0.19598 0.46673 0.0
C26 C 0.27462 0.16145 0.44489 0.0
C27 C 0.27827 0.12251 0.44905 0.0
C28 C 0.33925 0.24061 0.46053 0.0
C29 C 0.25903 0.204 0.47898 0.0
C30 C 0.2211 0.97148 0.40116 0.0
C31 C 0.19383 0.95238 0.37951 0.0
C32 C 0.17878 0.97818 0.36643 0.0
C33 C 0.191 0.02271 0.37486 0.0
C34 C 0.21818 0.04132 0.39668 0.0
C35 C 0.23243 0.01561 0.40946 0.0
C36 C 0.25875 0.03961 0.43289 0.0
C37 C 0.25877 0.08451 0.43189 0.0
C38 C 0.23532 0.08546 0.41063 0.0
C39 C 0.30816 0.04677 0.43174 0.0
C40 C 0.23091 0.01076 0.454 0.0
H41 H 0.27606 0.25865 0.43815 0.0
H42 H 0.18316 0.19054 0.36014 0.0
H43 H 0.13807 0.11218 0.39625 0.0
H44 H 0.14495 0.06505 0.38853 0.0
H45 H 0.13929 0.09774 0.36478 0.0
H46 H 0.26503 0.16584 0.36008 0.0
H47 H 0.20928 0.13187 0.34449 0.0
H48 H 0.23937 0.10578 0.35834 0.0
H49 H 0.3348 0.21683 0.51593 0.0
H50 H 0.33877 0.09079 0.51986 0.0
H51 H 0.30729 0.06816 0.47884 0.0
H52 H 0.36965 0.23558 0.46006 0.0
H53 H 0.34776 0.26904 0.47427 0.0
H54 H 0.33601 0.25156 0.44228 0.0
H55 H 0.23313 0.17222 0.48718 0.0
H56 H 0.23921 0.21292 0.46613 0.0
H57 H 0.27544 0.23168 0.4937 0.0
H58 H 0.25291 0.3033 0.4145 0.0
C59 C 0.2562 0.24291 0.42138 0.0
C60 C 0.00853 0.20712 0.37869 0.0
C61 C 0.04804 0.24607 0.38885 0.0
C62 C 0.04811 0.26145 0.41312 0.0
C63 C 0.97057 0.19845 0.41679 0.0
C64 C 0.97076 0.18367 0.39301 0.0
C65 C 0.92803 0.13938 0.38548 0.0
H66 H 0.73092 0.95623 0.41427 0.0
C67 C 0.92648 0.16493 0.42686 0.0
C68 C 0.90199 0.13012 0.40842 0.0
H69 H 0.79639 0.98125 0.34587 0.0
H70 H 0.85498 0.05647 0.36158 0.0
H71 H 0.8218 -0.00015 0.44968 0.0
H72 H 0.73666 0.0494 0.41966 0.0
H73 H 0.76162 0.08416 0.4465 0.0
H74 H 0.72497 0.02286 0.44807 0.0
H75 H 0.76423 0.98247 0.45803 0.0
H76 H 0.81369 0.03119 0.47329 0.0
C77 C 0.94247 0.10297 0.37953 0.0
C78 C 0.90258 0.14808 0.3641 0.0
C79 C 0.88039 0.18664 0.51236 0.0
C80 C 0.83925 0.1601 0.5242 0.0
C81 C 0.80435 0.11869 0.51279 0.0
C82 C 0.80952 0.1037 0.48991 0.0
C83 C 0.84993 0.1305 0.47795 0.0
C84 C 0.88473 0.17133 0.48894 0.0
C85 C 0.92456 0.19504 0.47255 0.0
C86 C 0.90677 0.16219 0.44982 0.0
C87 C 0.86335 0.1243 0.45361 0.0
C88 C 0.96774 0.19735 0.48507 0.0
C89 C 0.93082 0.24254 0.46744 0.0
C90 C 0.75811 0.97791 0.40276 0.0
C91 C 0.75974 0.9628 0.37902 0.0
C92 C 0.7947 0.99229 0.36431 0.0
C93 C 0.82877 0.03588 0.37351 0.0
C94 C 0.82762 0.05007 0.39761 0.0
C95 C 0.79209 0.0217 0.41156 0.0
C96 C 0.79493 0.04344 0.43621 0.0
C97 C 0.83973 0.08866 0.43525 0.0
C98 C 0.85867 0.09204 0.41271 0.0
C99 C 0.79858 0.01275 0.45547 0.0
C100 C 0.75238 0.05019 0.4379 0.0
H101 H 0.01187 0.25127 0.44533 0.0
H102 H 0.00755 0.19411 0.3603 0.0
H103 H 0.90727 0.18319 0.36609 0.0
H104 H 0.86477 0.12488 0.36333 0.0
H105 H 0.91594 0.14491 0.34642 0.0
H106 H 0.97385 0.11005 0.39075 0.0
H107 H 0.95037 0.10273 0.36016 0.0
H108 H 0.91628 0.06792 0.38378 0.0
H109 H 0.90781 0.21863 0.5209 0.0
H110 H 0.77284 0.09759 0.52175 0.0
H111 H 0.7816 0.07162 0.4825 0.0
H112 H 0.95844 0.16462 0.4936 0.0
H113 H 0.98365 0.22549 0.49957 0.0
H114 H 0.99408 0.20207 0.47222 0.0
H115 H 0.89687 0.23955 0.46256 0.0
H116 H 0.95246 0.25802 0.45205 0.0
H117 H 0.94648 0.2667 0.48373 0.0
H118 H 0.07814 0.29176 0.42144 0.0
C119 C 0.00961 0.23802 0.42706 0.0
C120 C -0.00084 0.78095 0.38016 0.0
C121 C 0.03588 0.77583 0.38917 0.0
C122 C 0.03233 0.75651 0.4119 0.0
C123 C 0.95758 0.75025 0.41676 0.0
C124 C 0.96094 0.76855 0.3943 0.0
C125 C 0.92099 0.77543 0.38807 0.0
H126 H 0.72195 0.76609 0.41565 0.0
C127 C 0.91406 0.74301 0.42716 0.0
C128 C 0.89292 0.75813 0.41028 0.0
H129 H 0.80097 0.81684 0.35215 0.0
H130 H 0.85608 0.79741 0.36749 0.0
H131 H 0.73474 0.67503 0.419 0.0
H132 H 0.8099 0.8109 0.45417 0.0
H133 H 0.8038 0.77154 0.47582 0.0
H134 H 0.75299 0.76943 0.46215 0.0
H135 H 0.71071 0.69472 0.44189 0.0
H136 H 0.74598 0.66995 0.44976 0.0
C137 C 0.89495 0.74473 0.36479 0.0
C138 C 0.94013 0.82765 0.38573 0.0
C139 C 0.86517 0.67395 0.50997 0.0
C140 C 0.82739 0.66533 0.524 0.0
C141 C 0.79432 0.67587 0.51448 0.0
C142 C 0.7985 0.6945 0.49172 0.0
C143 C 0.83646 0.7034 0.47806 0.0
C144 C 0.8692 0.6933 0.48721 0.0
C145 C 0.90799 0.70663 0.47026 0.0
C146 C 0.89257 0.72534 0.44933 0.0
C147 C 0.85047 0.72336 0.45409 0.0
C148 C 0.90921 0.66289 0.46211 0.0
C149 C 0.95331 0.74427 0.48367 0.0
C150 C 0.75111 0.77275 0.40508 0.0
C151 C 0.75702 0.79331 0.38261 0.0
C152 C 0.79557 0.80153 0.36955 0.0
C153 C 0.82777 0.79008 0.37852 0.0
C154 C 0.82207 0.77037 0.40103 0.0
C155 C 0.78427 0.76182 0.41398 0.0
C156 C 0.78497 0.74123 0.4378 0.0
C157 C 0.82947 0.73915 0.43688 0.0
C158 C 0.8507 0.75624 0.41519 0.0
C159 C 0.74179 0.69277 0.43735 0.0
C160 C 0.78773 0.7746 0.45871 0.0
H161 H 0.99316 0.7294 0.4428 0.0
H162 H 0.00096 0.79618 0.36297 0.0
H163 H 0.97268 0.84867 0.39718 0.0
H164 H 0.91659 0.83927 0.39232 0.0
H165 H 0.94776 0.83716 0.36669 0.0
H166 H 0.89541 0.7119 0.36462 0.0
H167 H 0.91115 0.76216 0.34818 0.0
H168 H 0.85793 0.73418 0.36346 0.0
H169 H 0.89151 0.66681 0.5168 0.0
H170 H 0.76474 0.66932 0.52465 0.0
H171 H 0.77195 0.70148 0.48567 0.0
H172 H 0.87366 0.63395 0.45741 0.0
H173 H 0.92478 0.65234 0.47683 0.0
H174 H 0.92839 0.66705 0.44565 0.0
H175 H 0.94699 0.76862 0.49478 0.0
H176 H 0.97963 0.7657 0.47116 0.0
H177 H 0.96812 0.72903 0.49609 0.0
H178 H 0.0598 0.75142 0.41913 0.0
C179 C 0.99349 0.74357 0.42565 0.0
C180 C 0.2077 0.20114 0.6578 0.0
C181 C 0.24722 0.20432 0.64799 0.0
C182 C 0.25821 0.22016 0.62444 0.0
C183 C 0.19062 0.22896 0.62088 0.0
C184 C 0.17973 0.21292 0.64384 0.0
C185 C 0.1346 0.20789 0.65085 0.0
H186 H 0.9441 0.22273 0.62558 0.0
C187 C 0.15371 0.23734 0.61116 0.0
C188 C 0.12066 0.22456 0.6286 0.0
H189 H 0.98008 0.17111 0.68852 0.0
H190 H 0.05171 0.18878 0.67225 0.0
H191 H 0.05337 0.31355 0.62131 0.0
H192 H 0.98115 0.17788 0.5849 0.0
H193 H 0.01054 0.21973 0.56383 0.0
H194 H 0.96455 0.22018 0.57955 0.0
H195 H 0.0034 0.29509 0.60096 0.0
H196 H 0.05999 0.31671 0.58972 0.0
C197 C 0.14437 0.24019 0.67375 0.0
C198 C 0.10081 0.15618 0.65419 0.0
C199 C 0.16858 0.30679 0.52916 0.0
C200 C 0.14174 0.32053 0.51547 0.0
C201 C 0.10004 0.31357 0.52486 0.0
C202 C 0.08561 0.29358 0.54729 0.0
C203 C 0.11317 0.28048 0.56079 0.0
C204 C 0.15393 0.28725 0.55156 0.0
C205 C 0.17938 0.27184 0.56825 0.0
C206 C 0.14772 0.25521 0.58917 0.0
C207 C 0.10853 0.25992 0.58481 0.0
C208 C 0.22688 0.31412 0.57621 0.0
C209 C 0.18219 0.23215 0.5548 0.0
C210 C 0.96761 0.2154 0.63581 0.0
C211 C 0.95588 0.19507 0.65846 0.0
C212 C 0.98761 0.18623 0.67107 0.0
C213 C 0.02954 0.19656 0.66151 0.0
C214 C 0.04051 0.21587 0.63886 0.0
C215 C 0.01014 0.22537 0.62632 0.0
C216 C 0.02876 0.24613 0.60239 0.0
C217 C 0.07438 0.24592 0.60252 0.0
C218 C 0.08077 0.22843 0.62417 0.0
C219 C 0.03667 0.29546 0.60342 0.0
C220 C 0.9945 0.21461 0.58144 0.0
H221 H 0.24073 0.2446 0.59319 0.0
H222 H 0.19778 0.18822 0.67561 0.0
H223 H 0.11025 0.13374 0.64348 0.0
H224 H 0.06503 0.14491 0.64742 0.0
H225 H 0.10081 0.14804 0.67352 0.0
H226 H 0.17763 0.27283 0.67279 0.0
H227 H 0.14675 0.22395 0.6905 0.0
H228 H 0.1183 0.25088 0.67573 0.0
H229 H 0.20097 0.31189 0.52281 0.0
H230 H 0.07817 0.32311 0.51469 0.0
H231 H 0.05349 0.289 0.55327 0.0
H232 H 0.2234 0.3449 0.58003 0.0
H233 H 0.25163 0.32219 0.56174 0.0
H234 H 0.24236 0.30985 0.59318 0.0
H235 H 0.15125 0.21134 0.54222 0.0
H236 H 0.18256 0.20735 0.56726 0.0
H237 H 0.21306 0.24549 0.54385 0.0
H238 H 0.28856 0.22295 0.61644 0.0
C239 C 0.23039 0.23275 0.61094 0.0
C240 C 0.77689 0.7703 0.66565 0.0
C241 C 0.77224 0.72956 0.65529 0.0
C242 C 0.74881 0.71232 0.63228 0.0
C243 C 0.73994 0.77895 0.62905 0.0
C244 C 0.76092 0.79454 0.65217 0.0
C245 C 0.76685 0.84045 0.6597 0.0
H246 H 0.76414 0.03018 0.62871 0.0
C247 C 0.7311 0.81421 0.61916 0.0
C248 C 0.74675 0.8502 0.63719 0.0
H249 H 0.80577 0.00334 0.69844 0.0
H250 H 0.78226 0.9259 0.68364 0.0
H251 H 0.80453 0.98214 0.5959 0.0
H252 H 0.67119 0.93813 0.62278 0.0
H253 H 0.6595 0.90753 0.59459 0.0
H254 H 0.68899 0.96954 0.59594 0.0
H255 H 0.76601 0.00081 0.58474 0.0
H256 H 0.76438 0.95014 0.57174 0.0
C257 C 0.8193 0.87478 0.66426 0.0
C258 C 0.7379 0.83485 0.68201 0.0
C259 C 0.66741 0.79912 0.53154 0.0
C260 C 0.66055 0.82985 0.51774 0.0
C261 C 0.66912 0.87186 0.52873 0.0
C262 C 0.68519 0.88387 0.55297 0.0
C263 C 0.69344 0.85385 0.56643 0.0
C264 C 0.68424 0.81205 0.55592 0.0
C265 C 0.69632 0.78548 0.57336 0.0
C266 C 0.71363 0.81821 0.596 0.0
C267 C 0.71204 0.85815 0.59151 0.0
C268 C 0.73497 0.779 0.56262 0.0
C269 C 0.65178 0.74008 0.57756 0.0
C270 C 0.76851 0.00771 0.64075 0.0
C271 C 0.78762 0.02285 0.66453 0.0
C272 C 0.79141 0.99229 0.67992 0.0
C273 C 0.77784 0.94748 0.67128 0.0
C274 C 0.76026 0.93332 0.64709 0.0
C275 C 0.75474 0.96292 0.63254 0.0
C276 C 0.73349 0.94161 0.60778 0.0
C277 C 0.72839 0.89454 0.60957 0.0
C278 C 0.74474 0.89017 0.63243 0.0
C279 C 0.76848 0.97004 0.58889 0.0
C280 C 0.68598 0.93921 0.60489 0.0
H281 H 0.71551 0.72218 0.60157 0.0
H282 H 0.79464 0.78423 0.68332 0.0
H283 H 0.70756 0.79958 0.68195 0.0
H284 H 0.72291 0.85764 0.6821 0.0
H285 H 0.75878 0.84123 0.69929 0.0
H286 H 0.83922 0.86876 0.6503 0.0
H287 H 0.83216 0.87088 0.68234 0.0
H288 H 0.82858 0.91093 0.66301 0.0
H289 H 0.66115 0.76665 0.52336 0.0
H290 H 0.66355 0.89565 0.51842 0.0
H291 H 0.69136 0.91657 0.56008 0.0
H292 H 0.76031 0.81058 0.55405 0.0
H293 H 0.7205 0.75026 0.54845 0.0
H294 H 0.75551 0.77285 0.57644 0.0
H295 H 0.62194 0.74584 0.57888 0.0
H296 H 0.65389 0.72538 0.59479 0.0
H297 H 0.64338 0.71416 0.56232 0.0
H298 H 0.74337 0.68001 0.62437 0.0
C299 C 0.73249 0.7367 0.61912 0.0
C300 C 0.9835 0.79126 0.658 0.0
C301 C 0.94854 0.7471 0.65006 0.0
C302 C 0.95137 0.72841 0.62719 0.0
C303 C 0.02468 0.79632 0.62149 0.0
C304 C 0.02117 0.81487 0.64362 0.0
C305 C 0.06223 0.86108 0.65022 0.0
H306 H 0.27156 0.03333 0.62572 0.0
C307 C 0.06958 0.82896 0.61183 0.0
C308 C 0.09155 0.86673 0.62886 0.0
H309 H 0.18829 0.02434 0.68589 0.0
H310 H 0.12957 0.94951 0.67078 0.0
H311 H 0.25622 0.93549 0.62638 0.0
H312 H 0.18681 0.9911 0.58524 0.0
H313 H 0.19505 0.95469 0.56503 0.0
H314 H 0.24446 0.00293 0.58065 0.0
H315 H 0.27739 0.96184 0.59845 0.0
H316 H 0.23682 0.90109 0.59916 0.0
C317 C 0.08547 0.85807 0.67439 0.0
C318 C 0.04561 0.8967 0.65112 0.0
C319 C 0.12173 0.79845 0.53014 0.0
C320 C 0.164 0.82282 0.51894 0.0
C321 C 0.20039 0.8626 0.53099 0.0
C322 C 0.19495 0.87878 0.55349 0.0
C323 C 0.15264 0.85499 0.56432 0.0
C324 C 0.11709 0.81488 0.55313 0.0
C325 C 0.07611 0.79292 0.56887 0.0
C326 C 0.09245 0.82793 0.59058 0.0
C327 C 0.13718 0.86425 0.58738 0.0
C328 C 0.06988 0.7463 0.5761 0.0
C329 C 0.03353 0.78902 0.55474 0.0
C330 C 0.24075 0.01501 0.63566 0.0
C331 C 0.23449 0.0348 0.65693 0.0
C332 C 0.19383 0.01002 0.6693 0.0
C333 C 0.1596 0.96639 0.6605 0.0
C334 C 0.16587 0.94718 0.63903 0.0
C335 C 0.20585 0.97131 0.627 0.0
C336 C 0.2058 0.94571 0.60418 0.0
C337 C 0.15892 0.90238 0.60449 0.0
C338 C 0.13602 0.90355 0.62498 0.0
C339 C 0.2462 0.93563 0.60695 0.0
C340 C 0.20846 0.97493 0.58252 0.0
H341 H 0.98915 0.73683 0.59571 0.0
H342 H 0.98239 0.80665 0.67536 0.0
H343 H 0.01451 0.88558 0.63868 0.0
H344 H 0.07139 0.93037 0.64484 0.0
H345 H 0.03642 0.90162 0.6697 0.0
H346 H 0.08299 0.82395 0.6753 0.0
H347 H 0.0686 0.86292 0.69032 0.0
H348 H 0.12285 0.88297 0.67643 0.0
H349 H 0.09339 0.76742 0.52131 0.0
H350 H 0.23298 0.88202 0.52262 0.0
H351 H 0.22396 0.90962 0.5614 0.0
H352 H 0.10397 0.74884 0.57988 0.0
H353 H 0.05106 0.71929 0.56127 0.0
H354 H 0.05167 0.73475 0.59295 0.0
H355 H 0.04272 0.82171 0.54622 0.0
H356 H 0.00515 0.78238 0.56653 0.0
H357 H 0.02028 0.76126 0.54006 0.0
H358 H 0.92439 0.69463 0.62033 0.0
C359 C 0.98904 0.75282 0.61285 0.0
C360 C 0.87013 0.53899 0.71044 0.0
C361 C 0.8827 0.58376 0.71873 0.0
C362 C 0.90947 0.60221 0.74089 0.0
C363 C 0.90964 0.53137 0.7463 0.0
C364 C 0.88427 0.51372 0.72434 0.0
C365 C 0.8746 0.46601 0.71782 0.0
H366 H 0.8992 0.28548 0.74512 0.0
C367 C 0.91848 0.49615 0.75625 0.0
C368 C 0.89843 0.45803 0.73939 0.0
H369 H 0.82443 0.29739 0.68293 0.0
H370 H 0.84527 0.37405 0.69747 0.0
H371 H 0.98707 0.38758 0.7464 0.0
H372 H 0.86015 0.32237 0.78189 0.0
H373 H 0.8985 0.36555 0.80323 0.0
H374 H 0.91006 0.32079 0.79326 0.0
H375 H 0.97574 0.34893 0.77014 0.0
H376 H 0.00083 0.40991 0.7767 0.0
C377 C 0.89787 0.46695 0.69386 0.0
C378 C 0.82155 0.43331 0.71657 0.0
C379 C 0.9957 0.51791 0.84104 0.0
C380 C 0.00511 0.48836 0.85446 0.0
C381 C -0.00244 0.44684 0.84329 0.0
C382 C 0.97924 0.43378 0.81944 0.0
C383 C 0.96781 0.46226 0.80656 0.0
C384 C 0.97673 0.50396 0.81706 0.0
C385 C 0.96217 0.52931 0.80007 0.0
C386 C 0.94128 0.49478 0.77823 0.0
C387 C 0.94493 0.45584 0.78239 0.0
C388 C 0.00591 0.57394 0.79386 0.0
C389 C 0.92569 0.53733 0.81232 0.0
C390 C 0.88776 0.3048 0.73449 0.0
C391 C 0.8605 0.28571 0.71284 0.0
C392 C 0.84544 0.31151 0.69976 0.0
C393 C 0.85767 0.35604 0.70819 0.0
C394 C 0.88484 0.37465 0.73002 0.0
C395 C 0.89908 0.34894 0.74279 0.0
C396 C 0.92541 0.37294 0.76623 0.0
C397 C 0.92542 0.41784 0.76523 0.0
C398 C 0.90198 0.41879 0.74396 0.0
C399 C 0.97481 0.3801 0.76508 0.0
C400 C 0.89757 0.34409 0.78733 0.0
H401 H 0.94272 0.59198 0.77149 0.0
H402 H 0.84983 0.52387 0.69348 0.0
H403 H 0.80474 0.44551 0.72959 0.0
H404 H 0.81162 0.39838 0.72187 0.0
H405 H 0.80595 0.43108 0.69812 0.0
H406 H 0.93169 0.49917 0.69342 0.0
H407 H 0.87595 0.4652 0.67783 0.0
H408 H 0.90604 0.43911 0.69168 0.0
H409 H 0.00146 0.55016 0.84927 0.0
H410 H 0.00542 0.42411 0.8532 0.0
H411 H 0.97394 0.40148 0.81218 0.0
H412 H 0.03631 0.56891 0.79339 0.0
H413 H 0.01442 0.60237 0.80761 0.0
H414 H 0.00267 0.58489 0.77562 0.0
H415 H 0.89979 0.50555 0.82051 0.0
H416 H 0.90587 0.54625 0.79947 0.0
H417 H 0.9421 0.56501 0.82704 0.0
H418 H 0.91958 0.63664 0.74784 0.0
C419 C 0.92286 0.57624 0.75472 0.0
C420 C 0.67519 0.54045 0.71202 0.0
C421 C 0.7147 0.5794 0.72219 0.0
C422 C 0.71478 0.59478 0.74645 0.0
C423 C 0.63724 0.53178 0.75012 0.0
C424 C 0.63742 0.517 0.72635 0.0
C425 C 0.5947 0.47271 0.71881 0.0
H426 H 0.39759 0.28956 0.7476 0.0
C427 C 0.59315 0.49826 0.76019 0.0
C428 C 0.56866 0.46346 0.74176 0.0
H429 H 0.46306 0.31459 0.6792 0.0
H430 H 0.52165 0.3898 0.69491 0.0
H431 H 0.48847 0.33318 0.78301 0.0
H432 H 0.40332 0.38273 0.753 0.0
H433 H 0.42829 0.4175 0.77984 0.0
H434 H 0.39164 0.35619 0.7814 0.0
H435 H 0.4309 0.3158 0.79136 0.0
H436 H 0.48036 0.36452 0.80663 0.0
C437 C 0.60914 0.4363 0.71286 0.0
C438 C 0.56925 0.48141 0.69744 0.0
C439 C 0.54706 0.51998 0.84569 0.0
C440 C 0.50592 0.49343 0.85754 0.0
C441 C 0.47102 0.45202 0.84612 0.0
C442 C 0.47619 0.43704 0.82324 0.0
C443 C 0.5166 0.46383 0.81128 0.0
C444 C 0.5514 0.50467 0.82227 0.0
C445 C 0.59123 0.52837 0.80588 0.0
C446 C 0.57344 0.49552 0.78315 0.0
C447 C 0.53002 0.45763 0.78695 0.0
C448 C 0.63441 0.53068 0.8184 0.0
C449 C 0.59749 0.57587 0.80077 0.0
C450 C 0.42478 0.31124 0.7361 0.0
C451 C 0.4264 0.29613 0.71236 0.0
C452 C 0.46137 0.32562 0.69764 0.0
C453 C 0.49544 0.36921 0.70684 0.0
C454 C 0.49429 0.3834 0.73094 0.0
C455 C 0.45876 0.35503 0.74489 0.0
C456 C 0.4616 0.37678 0.76955 0.0
C457 C 0.5064 0.42199 0.76858 0.0
C458 C 0.52534 0.42537 0.74605 0.0
C459 C 0.46525 0.34608 0.7888 0.0
C460 C 0.41905 0.38352 0.77124 0.0
H461 H 0.67854 0.5846 0.77867 0.0
H462 H 0.67422 0.52745 0.69363 0.0
H463 H 0.57394 0.51652 0.69942 0.0
H464 H 0.53144 0.45822 0.69667 0.0
H465 H 0.58261 0.47824 0.67975 0.0
H466 H 0.64052 0.44338 0.72408 0.0
H467 H 0.61704 0.43606 0.69349 0.0
H468 H 0.58294 0.40125 0.71711 0.0
H469 H 0.57447 0.55196 0.85423 0.0
H470 H 0.43951 0.43092 0.85508 0.0
H471 H 0.44827 0.40496 0.81584 0.0
H472 H 0.62511 0.49796 0.82693 0.0
H473 H 0.65032 0.55882 0.8329 0.0
H474 H 0.66075 0.5354 0.80556 0.0
H475 H 0.56353 0.57288 0.79589 0.0
H476 H 0.61913 0.59136 0.78538 0.0
H477 H 0.61314 0.60003 0.81706 0.0
H478 H 0.74481 0.62509 0.75477 0.0
C479 C 0.67628 0.57135 0.76039 0.0
C480 C 0.66582 0.11428 0.71349 0.0
C481 C 0.70254 0.10916 0.7225 0.0
C482 C 0.69899 0.08985 0.74524 0.0
C483 C 0.62424 0.08358 0.75009 0.0
C484 C 0.6276 0.10187 0.72763 0.0
C485 C 0.58765 0.10875 0.7214 0.0
H486 H 0.38861 0.09941 0.74897 0.0
C487 C 0.58072 0.07634 0.76049 0.0
C488 C 0.55958 0.09145 0.74361 0.0
H489 H 0.46764 0.15016 0.68548 0.0
H490 H 0.52274 0.13073 0.70082 0.0
H491 H 0.40139 0.00835 0.75232 0.0
H492 H 0.47656 0.14422 0.7875 0.0
H493 H 0.47044 0.10484 0.80915 0.0
H494 H 0.41964 0.10276 0.79548 0.0
H495 H 0.37737 0.02803 0.77522 0.0
H496 H 0.41264 0.00326 0.78308 0.0
C497 C 0.56162 0.07806 0.69812 0.0
C498 C 0.60679 0.16097 0.71906 0.0
C499 C 0.53184 0.00729 0.8433 0.0
C500 C 0.49405 -0.00134 0.85733 0.0
C501 C 0.46097 0.00918 0.8478 0.0
C502 C 0.46515 0.02781 0.82504 0.0
C503 C 0.50312 0.03672 0.81138 0.0
C504 C 0.53587 0.02663 0.82054 0.0
C505 C 0.57465 0.03996 0.80359 0.0
C506 C 0.55923 0.05867 0.78266 0.0
C507 C 0.51713 0.05668 0.78742 0.0
C508 C 0.57589 -0.00377 0.79544 0.0
C509 C 0.61997 0.07761 0.817 0.0
C510 C 0.41777 0.10607 0.73841 0.0
C511 C 0.42368 0.12663 0.71594 0.0
C512 C 0.46224 0.13486 0.70288 0.0
C513 C 0.49443 0.12341 0.71185 0.0
C514 C 0.48873 0.10369 0.73436 0.0
C515 C 0.45093 0.09514 0.74731 0.0
C516 C 0.45162 0.07454 0.77113 0.0
C517 C 0.49612 0.07246 0.77021 0.0
C518 C 0.51736 0.08956 0.74852 0.0
C519 C 0.40844 0.02608 0.77068 0.0
C520 C 0.45438 0.10791 0.79204 0.0
H521 H 0.65983 0.06274 0.77614 0.0
H522 H 0.66762 0.12951 0.6963 0.0
H523 H 0.63934 0.182 0.73051 0.0
H524 H 0.58325 0.17259 0.72565 0.0
H525 H 0.61442 0.17048 0.70002 0.0
H526 H 0.56207 0.04522 0.69795 0.0
H527 H 0.57781 0.09548 0.68151 0.0
H528 H 0.52459 0.06751 0.69679 0.0
H529 H 0.55818 0.00016 0.85014 0.0
H530 H 0.43138 0.00262 0.85797 0.0
H531 H 0.43859 0.03478 0.81899 0.0
H532 H 0.54033 0.96728 0.79075 0.0
H533 H 0.59146 0.98569 0.81017 0.0
H534 H 0.59506 0.00039 0.77898 0.0
H535 H 0.61365 0.10196 0.82811 0.0
H536 H 0.6463 0.09903 0.80449 0.0
H537 H 0.63478 0.06238 0.82943 0.0
H538 H 0.72647 0.08476 0.75247 0.0
C539 C 0.66016 0.07691 0.75898 0.0
C540 C 0.87436 0.53448 0.99114 0.0
C541 C 0.91389 0.53766 0.98133 0.0
C542 C 0.92488 0.5535 0.95778 0.0
C543 C 0.85728 0.5623 0.95421 0.0
C544 C 0.84639 0.54626 0.97717 0.0
C545 C 0.80127 0.54122 0.98418 0.0
H546 H 0.61076 0.55607 0.95891 0.0
C547 C 0.82037 0.57068 0.94449 0.0
C548 C 0.78732 0.5579 0.96193 0.0
H549 H 0.64675 0.50445 0.02185 0.0
H550 H 0.71837 0.52212 1.00558 0.0
H551 H 0.72003 0.64688 0.95464 0.0
H552 H 0.64782 0.51121 0.91823 0.0
H553 H 0.6772 0.55306 0.89717 0.0
H554 H 0.63122 0.55351 0.91288 0.0
H555 H 0.67007 0.62842 0.93429 0.0
H556 H 0.72666 0.65004 0.92305 0.0
C557 C 0.81103 0.57352 1.00709 0.0
C558 C 0.76748 0.48952 0.98753 0.0
C559 C 0.83525 0.64012 0.8625 0.0
C560 C 0.8084 0.65387 0.84881 0.0
C561 C 0.7667 0.6469 0.85819 0.0
C562 C 0.75228 0.62692 0.88062 0.0
C563 C 0.77984 0.61382 0.89413 0.0
C564 C 0.8206 0.62059 0.8849 0.0
C565 C 0.84604 0.60518 0.90158 0.0
C566 C 0.81439 0.58854 0.9225 0.0
C567 C 0.7752 0.59326 0.91814 0.0
C568 C 0.89355 0.64746 0.90955 0.0
C569 C 0.84886 0.56549 0.88814 0.0
C570 C 0.63427 0.54873 0.96914 0.0
C571 C 0.62254 0.52841 0.99179 0.0
C572 C 0.65427 0.51957 1.0044 0.0
C573 C 0.6962 0.5299 0.99484 0.0
C574 C 0.70717 0.5492 0.97219 0.0
C575 C 0.6768 0.55871 0.95965 0.0
C576 C 0.69543 0.57946 0.93573 0.0
C577 C 0.74104 0.57926 0.93585 0.0
C578 C 0.74743 0.56176 0.9575 0.0
C579 C 0.70334 0.62879 0.93675 0.0
C580 C 0.66116 0.54794 0.91477 0.0
H581 H 0.9074 0.57793 0.92652 0.0
H582 H 0.86445 0.52156 1.00894 0.0
H583 H 0.77692 0.46708 0.97682 0.0
H584 H 0.73169 0.47825 0.98075 0.0
H585 H 0.76747 0.48138 1.00685 0.0
H586 H 0.84429 0.60617 1.00613 0.0
H587 H 0.81341 0.55729 0.02383 0.0
H588 H 0.78496 0.58421 1.00906 0.0
H589 H 0.86764 0.64523 0.85614 0.0
H590 H 0.74484 0.65644 0.84802 0.0
H591 H 0.72016 0.62234 0.88661 0.0
H592 H 0.89007 0.67824 0.91336 0.0
H593 H 0.91829 0.65553 0.89508 0.0
H594 H 0.90903 0.64319 0.92651 0.0
H595 H 0.81791 0.54468 0.87555 0.0
H596 H 0.84923 0.54069 0.90059 0.0
H597 H 0.87972 0.57883 0.87718 0.0
H598 H 0.95522 0.55629 0.94977 0.0
C599 C 0.89705 0.56609 0.94427 0.0
C600 C 0.44356 0.10364 0.99898 0.0
C601 C 0.4389 0.06289 0.98863 0.0
C602 C 0.41547 0.04565 0.96561 0.0
C603 C 0.40661 0.11228 0.96238 0.0
C604 C 0.42758 0.12788 0.9855 0.0
C605 C 0.43352 0.17378 0.99303 0.0
H606 H 0.4308 0.36351 0.96204 0.0
C607 C 0.39776 0.14755 0.95249 0.0
C608 C 0.41341 0.18353 0.97052 0.0
H609 H 0.47243 0.33667 0.03177 0.0
H610 H 0.44893 0.25924 1.01697 0.0
H611 H 0.47119 0.31548 0.92924 0.0
H612 H 0.33785 0.27146 0.95611 0.0
H613 H 0.32616 0.24086 0.92793 0.0
H614 H 0.35565 0.30287 0.92928 0.0
H615 H 0.43267 0.33414 0.91807 0.0
H616 H 0.43104 0.28347 0.90508 0.0
C617 C 0.48597 0.20811 0.9976 0.0
C618 C 0.40458 0.16819 1.01535 0.0
C619 C 0.33408 0.13246 0.86487 0.0
C620 C 0.32722 0.16319 0.85108 0.0
C621 C 0.33578 0.20519 0.86207 0.0
C622 C 0.35185 0.2172 0.88631 0.0
C623 C 0.3601 0.18718 0.89977 0.0
C624 C 0.3509 0.14538 0.88925 0.0
C625 C 0.36298 0.11882 0.90669 0.0
C626 C 0.38029 0.15155 0.92933 0.0
C627 C 0.3787 0.19148 0.92484 0.0
C628 C 0.40163 0.11233 0.89595 0.0
C629 C 0.31844 0.07341 0.9109 0.0
C630 C 0.43517 0.34104 0.97408 0.0
C631 C 0.45428 0.35618 0.99786 0.0
C632 C 0.45808 0.32563 1.01326 0.0
C633 C 0.44451 0.28081 1.00462 0.0
C634 C 0.42692 0.26665 0.98042 0.0
C635 C 0.4214 0.29626 0.96587 0.0
C636 C 0.40015 0.27495 0.94111 0.0
C637 C 0.39506 0.22788 0.9429 0.0
C638 C 0.4114 0.2235 0.96577 0.0
C639 C 0.43514 0.30337 0.92223 0.0
C640 C 0.35264 0.27254 0.93822 0.0
H641 H 0.38216 0.05551 0.93491 0.0
H642 H 0.46131 0.11757 1.01666 0.0
H643 H 0.37424 0.13292 1.01529 0.0
H644 H 0.38958 0.19097 1.01543 0.0
H645 H 0.42546 0.17458 0.03262 0.0
H646 H 0.50589 0.2021 0.98362 0.0
H647 H 0.49883 0.20422 1.01567 0.0
H648 H 0.49524 0.24426 0.99634 0.0
H649 H 0.32782 0.09998 0.85669 0.0
H650 H 0.33021 0.22899 0.85175 0.0
H651 H 0.35803 0.24991 0.89341 0.0
H652 H 0.42698 0.14392 0.88739 0.0
H653 H 0.38716 0.0836 0.88179 0.0
H654 H 0.42216 0.10617 0.90978 0.0
H655 H 0.2886 0.07918 0.91221 0.0
H656 H 0.32054 0.05871 0.92813 0.0
H657 H 0.31005 0.04749 0.89566 0.0
H658 H 0.41002 0.01334 0.95771 0.0
C659 C 0.39915 0.07003 0.95246 0.0
C660 C 0.65017 0.1246 0.99134 0.0
C661 C 0.61521 0.08044 0.98339 0.0
C662 C 0.61804 0.06175 0.96052 0.0
C663 C 0.69135 0.12966 0.95482 0.0
C664 C 0.68783 0.14821 0.97695 0.0
C665 C 0.72889 0.19442 0.98355 0.0
H666 H 0.93822 0.36668 0.95905 0.0
C667 C 0.73625 0.16231 0.94516 0.0
C668 C 0.75822 0.20007 0.96219 0.0
H669 H 0.85495 0.35768 0.01923 0.0
H670 H 0.79623 0.28285 1.00411 0.0
H671 H 0.92288 0.26884 0.95971 0.0
H672 H 0.85348 0.32445 0.91857 0.0
H673 H 0.86171 0.28804 0.89836 0.0
H674 H 0.91112 0.33628 0.91398 0.0
H675 H 0.94405 0.29518 0.93178 0.0
H676 H 0.90349 0.23444 0.93249 0.0
C677 C 0.75213 0.19141 1.00772 0.0
C678 C 0.71228 0.23004 0.98446 0.0
C679 C 0.7884 0.1318 0.86347 0.0
C680 C 0.83066 0.15617 0.85227 0.0
C681 C 0.86706 0.19595 0.86432 0.0
C682 C 0.86161 0.21213 0.88682 0.0
C683 C 0.8193 0.18834 0.89765 0.0
C684 C 0.78375 0.14822 0.88647 0.0
C685 C 0.74278 0.12627 0.9022 0.0
C686 C 0.75911 0.16128 0.92391 0.0
C687 C 0.80384 0.1976 0.92071 0.0
C688 C 0.73655 0.07965 0.90943 0.0
C689 C 0.7002 0.12236 0.88808 0.0
C690 C 0.90742 0.34835 0.96899 0.0
C691 C 0.90116 0.36815 0.99026 0.0
C692 C 0.8605 0.34336 1.00264 0.0
C693 C 0.82627 0.29973 0.99383 0.0
C694 C 0.83254 0.28053 0.97237 0.0
C695 C 0.87251 0.30466 0.96033 0.0
C696 C 0.87246 0.27905 0.93751 0.0
C697 C 0.82559 0.23573 0.93783 0.0
C698 C 0.80269 0.2369 0.95831 0.0
C699 C 0.91286 0.26898 0.94029 0.0
C700 C 0.87512 0.30828 0.91586 0.0
H701 H 0.65581 0.07017 0.92904 0.0
H702 H 0.64906 0.13999 1.0087 0.0
H703 H 0.68118 0.21892 0.97202 0.0
H704 H 0.73805 0.26371 0.97817 0.0
H705 H 0.70309 0.23496 1.00303 0.0
H706 H 0.74965 0.15729 1.00863 0.0
H707 H 0.73527 0.19626 0.02365 0.0
H708 H 0.78952 0.21631 1.00977 0.0
H709 H 0.76006 0.10076 0.85464 0.0
H710 H 0.89964 0.21537 0.85596 0.0
H711 H 0.89062 0.24297 0.89473 0.0
H712 H 0.77064 0.08219 0.91322 0.0
H713 H 0.71773 0.05263 0.8946 0.0
H714 H 0.71833 0.0681 0.92628 0.0
H715 H 0.70938 0.15506 0.87955 0.0
H716 H 0.67182 0.11573 0.89986 0.0
H717 H 0.68694 0.09461 0.87339 0.0
H718 H 0.59105 0.02797 0.95366 0.0
C719 C 0.6557 0.08617 0.94619 0.0
C720 C 0.5368 0.87232 0.04377 0.0
C721 C 0.54937 0.9171 0.05206 0.0
C722 C 0.57614 0.93555 0.07422 0.0
C723 C 0.57631 0.8647 0.07963 0.0
C724 C 0.55094 0.84706 0.05767 0.0
C725 C 0.54127 0.79935 0.05115 0.0
H726 H 0.56587 0.61882 0.07845 0.0
C727 C 0.58516 0.82949 0.08958 0.0
C728 C 0.5651 0.79137 0.07272 0.0
H729 H 0.49109 0.63073 1.01626 0.0
H730 H 0.51193 0.70739 0.0308 0.0
H731 H 0.65374 0.72092 0.07973 0.0
H732 H 0.52682 0.65571 0.11522 0.0
H733 H 0.56517 0.69889 0.13656 0.0
H734 H 0.57673 0.65412 0.12659 0.0
H735 H 0.64241 0.68226 0.10347 0.0
H736 H 0.6675 0.74324 0.11003 0.0
C737 C 0.56454 0.80029 0.0272 0.0
C738 C 0.48822 0.76665 0.0499 0.0
C739 C 0.66237 0.85124 0.17437 0.0
C740 C 0.67178 0.8217 0.18779 0.0
C741 C 0.66423 0.78018 0.17662 0.0
C742 C 0.64592 0.76712 0.15277 0.0
C743 C 0.63449 0.7956 0.13989 0.0
C744 C 0.6434 0.83729 0.15039 0.0
C745 C 0.62884 0.86265 0.1334 0.0
C746 C 0.60795 0.82812 0.11156 0.0
C747 C 0.6116 0.78918 0.11572 0.0
C748 C 0.67258 0.90727 0.1272 0.0
C749 C 0.59236 0.87067 0.14565 0.0
C750 C 0.55442 0.63814 0.06782 0.0
C751 C 0.52716 0.61905 0.04618 0.0
C752 C 0.51211 0.64485 0.03309 0.0
C753 C 0.52433 0.68937 0.04153 0.0
C754 C 0.55151 0.70799 0.06335 0.0
C755 C 0.56575 0.68227 0.07612 0.0
C756 C 0.59208 0.70628 0.09956 0.0
C757 C 0.5921 0.75118 0.09856 0.0
C758 C 0.56865 0.75213 0.07729 0.0
C759 C 0.64148 0.71344 0.09841 0.0
C760 C 0.56424 0.67742 0.12066 0.0
H761 H 0.6094 0.92531 0.10482 0.0
H762 H 0.5165 0.85721 0.02681 0.0
H763 H 0.47141 0.77885 0.06292 0.0
H764 H 0.47829 0.73172 0.0552 0.0
H765 H 0.47262 0.76441 0.03145 0.0
H766 H 0.59836 0.83251 0.02675 0.0
H767 H 0.54262 0.79854 1.01116 0.0
H768 H 0.57271 0.77245 0.02501 0.0
H769 H 0.66813 0.8835 0.1826 0.0
H770 H 0.6721 0.75745 0.18653 0.0
H771 H 0.64061 0.73482 0.14551 0.0
H772 H 0.70299 0.90225 0.12672 0.0
H773 H 0.68109 0.93571 0.14094 0.0
H774 H 0.66935 0.91822 0.10895 0.0
H775 H 0.56646 0.83889 0.15385 0.0
H776 H 0.57254 0.87959 0.1328 0.0
H777 H 0.60878 0.89835 0.16037 0.0
H778 H 0.58625 0.96997 0.08117 0.0
C779 C 0.58953 0.90958 0.08805 0.0
C780 C 0.34186 0.87379 0.04535 0.0
C781 C 0.38137 0.91274 0.05552 0.0
C782 C 0.38145 0.92812 0.07979 0.0
C783 C 0.30391 0.86512 0.08346 0.0
C784 C 0.30409 0.85034 0.05968 0.0
C785 C 0.26137 0.80605 0.05215 0.0
H786 H 0.06425 0.6229 0.08093 0.0
C787 C 0.25982 0.8316 0.09353 0.0
C788 C 0.23532 0.7968 0.07509 0.0
H789 H 0.12973 0.64793 1.01254 0.0
H790 H 0.18831 0.72315 0.02825 0.0
H791 H 0.15514 0.66652 0.11635 0.0
H792 H 0.06999 0.71608 0.08633 0.0
H793 H 0.09496 0.75084 0.11317 0.0
H794 H 0.05831 0.68953 0.11474 0.0
H795 H 0.09757 0.64914 0.1247 0.0
H796 H 0.14703 0.69787 0.13996 0.0
C797 C 0.2758 0.76964 0.0462 0.0
C798 C 0.23592 0.81476 0.03077 0.0
C799 C 0.21373 0.85332 0.17903 0.0
C800 C 0.17259 0.82677 0.19087 0.0
C801 C 0.13769 0.78536 0.17945 0.0
C802 C 0.14286 0.77038 0.15657 0.0
C803 C 0.18327 0.79717 0.14461 0.0
C804 C 0.21807 0.83801 0.1556 0.0
C805 C 0.2579 0.86171 0.13921 0.0
C806 C 0.24011 0.82886 0.11648 0.0
C807 C 0.19669 0.79097 0.12028 0.0
C808 C 0.30108 0.86402 0.15173 0.0
C809 C 0.26416 0.90921 0.1341 0.0
C810 C 0.09144 0.64459 0.06943 0.0
C811 C 0.09307 0.62947 0.04569 0.0
C812 C 0.12803 0.65897 0.03097 0.0
C813 C 0.1621 0.70256 0.04017 0.0
C814 C 0.16096 0.71674 0.06427 0.0
C815 C 0.12543 0.68838 0.07823 0.0
C816 C 0.12827 0.71012 0.10288 0.0
C817 C 0.17307 0.75534 0.10192 0.0
C818 C 0.19201 0.75871 0.07938 0.0
C819 C 0.13192 0.67943 0.12213 0.0
C820 C 0.08572 0.71686 0.10457 0.0
H821 H 0.34521 0.91794 0.112 0.0
H822 H 0.34089 0.86078 0.02697 0.0
H823 H 0.24061 0.84987 0.03276 0.0
H824 H 0.19811 0.79156 0.03 0.0
H825 H 0.24928 0.81158 1.01309 0.0
H826 H 0.30719 0.77672 0.05742 0.0
H827 H 0.2837 0.7694 0.02683 0.0
H828 H 0.24961 0.73459 0.05044 0.0
H829 H 0.24115 0.8853 0.18757 0.0
H830 H 0.10618 0.76426 0.18842 0.0
H831 H 0.11494 0.7383 0.14917 0.0
H832 H 0.29178 0.8313 0.16027 0.0
H833 H 0.31699 0.89216 0.16624 0.0
H834 H 0.32742 0.86874 0.13889 0.0
H835 H 0.23021 0.90622 0.12923 0.0
H836 H 0.2858 0.9247 0.11872 0.0
H837 H 0.27982 0.93337 0.15039 0.0
H838 H 0.41148 0.95843 0.0881 0.0
C839 C 0.34295 0.90469 0.09372 0.0
C840 C 0.33249 0.44762 0.04682 0.0
C841 C 0.36921 0.4425 0.05583 0.0
C842 C 0.36565 0.42318 0.07857 0.0
C843 C 0.29091 0.41692 0.08342 0.0
C844 C 0.29427 0.43521 0.06097 0.0
C845 C 0.25432 0.4421 0.05474 0.0
H846 H 0.05528 0.43276 0.08231 0.0
C847 C 0.24739 0.40968 0.09382 0.0
C848 C 0.22625 0.4248 0.07695 0.0
H849 H 0.1343 0.48351 1.01882 0.0
H850 H 0.18941 0.46408 0.03416 0.0
H851 H 0.06807 0.3417 0.08566 0.0
H852 H 0.14323 0.47757 0.12084 0.0
H853 H 0.13713 0.43821 0.14248 0.0
H854 H 0.08632 0.43611 0.12882 0.0
H855 H 0.04404 0.36139 0.10856 0.0
H856 H 0.07931 0.33662 0.11642 0.0
C857 C 0.22828 0.4114 0.03146 0.0
C858 C 0.27346 0.49432 0.0524 0.0
C859 C 0.1985 0.34062 0.17664 0.0
C860 C 0.16072 0.332 0.19067 0.0
C861 C 0.12765 0.34254 0.18114 0.0
C862 C 0.13182 0.36117 0.15838 0.0
C863 C 0.16979 0.37007 0.14472 0.0
C864 C 0.20253 0.35997 0.15387 0.0
C865 C 0.24132 0.3733 0.13693 0.0
C866 C 0.2259 0.39201 0.11599 0.0
C867 C 0.1838 0.39003 0.12076 0.0
C868 C 0.24254 0.32956 0.12877 0.0
C869 C 0.28664 0.41094 0.15034 0.0
C870 C 0.08444 0.43942 0.07175 0.0
C871 C 0.09035 0.45998 0.04928 0.0
C872 C 0.12891 0.46821 0.03621 0.0
C873 C 0.1611 0.45676 0.04519 0.0
C874 C 0.1554 0.43704 0.0677 0.0
C875 C 0.1176 0.42849 0.08065 0.0
C876 C 0.1183 0.4079 0.10447 0.0
C877 C 0.1628 0.40581 0.10355 0.0
C878 C 0.18403 0.42291 0.08186 0.0
C879 C 0.07512 0.35944 0.10402 0.0
C880 C 0.12106 0.44127 0.12538 0.0
H881 H 0.32649 0.39607 0.10947 0.0
H882 H 0.33429 0.46285 0.02964 0.0
H883 H 0.30601 0.51534 0.06385 0.0
H884 H 0.24992 0.50594 0.05899 0.0
H885 H 0.28109 0.50383 0.03335 0.0
H886 H 0.22874 0.37857 0.03128 0.0
H887 H 0.24448 0.42883 1.01485 0.0
H888 H 0.19126 0.40085 0.03013 0.0
H889 H 0.22485 0.33348 0.18347 0.0
H890 H 0.09807 0.33599 0.19132 0.0
H891 H 0.10527 0.36815 0.15234 0.0
H892 H 0.20699 0.30062 0.12408 0.0
H893 H 0.25811 0.31901 0.1435 0.0
H894 H 0.26172 0.33372 0.11231 0.0
H895 H 0.28032 0.43529 0.16145 0.0
H896 H 0.31296 0.43237 0.13783 0.0
H897 H 0.30145 0.3957 0.16276 0.0
H898 H 0.39313 0.41809 0.0858 0.0
C899 C 0.32682 0.41024 0.09231 0.0
C900 C 0.54103 0.86781 0.32447 0.0
C901 C 0.58056 0.87099 0.31466 0.0
C902 C 0.59155 0.88683 0.29111 0.0
C903 C 0.52395 0.89563 0.28755 0.0
C904 C 0.51306 0.87959 0.31051 0.0
C905 C 0.46794 0.87455 0.31751 0.0
H906 H 0.27743 0.8894 0.29225 0.0
C907 C 0.48704 0.90401 0.27782 0.0
C908 C 0.45399 0.89123 0.29527 0.0
H909 H 0.31342 0.83778 0.35519 0.0
H910 H 0.38504 0.85545 0.33891 0.0
H911 H 0.38671 0.98021 0.28798 0.0
H912 H 0.31449 0.84455 0.25157 0.0
H913 H 0.34387 0.88639 0.2305 0.0
H914 H 0.29789 0.88685 0.24622 0.0
H915 H 0.33674 0.96176 0.26763 0.0
H916 H 0.39333 0.98337 0.25638 0.0
C917 C 0.4777 0.90685 0.34042 0.0
C918 C 0.43415 0.82285 0.32086 0.0
C919 C 0.50192 0.97346 0.19583 0.0
C920 C 0.47507 0.9872 0.18214 0.0
C921 C 0.43337 0.98024 0.19152 0.0
C922 C 0.41895 0.96025 0.21395 0.0
C923 C 0.44651 0.94715 0.22746 0.0
C924 C 0.48727 0.95392 0.21823 0.0
C925 C 0.51271 0.93851 0.23492 0.0
C926 C 0.48106 0.92187 0.25584 0.0
C927 C 0.44187 0.92659 0.25148 0.0
C928 C 0.56022 0.98079 0.24288 0.0
C929 C 0.51552 0.89882 0.22147 0.0
C930 C 0.30094 0.88207 0.30248 0.0
C931 C 0.28921 0.86174 0.32513 0.0
C932 C 0.32094 0.8529 0.33774 0.0
C933 C 0.36287 0.86323 0.32817 0.0
C934 C 0.37384 0.88253 0.30553 0.0
C935 C 0.34347 0.89204 0.29298 0.0
C936 C 0.3621 0.91279 0.26906 0.0
C937 C 0.40771 0.91259 0.26918 0.0
C938 C 0.4141 0.8951 0.29084 0.0
C939 C 0.37001 0.96212 0.27009 0.0
C940 C 0.32783 0.88128 0.2481 0.0
H941 H 0.57407 0.91126 0.25986 0.0
H942 H 0.53112 0.85489 0.34227 0.0
H943 H 0.44359 0.8004 0.31015 0.0
H944 H 0.39836 0.81158 0.31408 0.0
H945 H 0.43414 0.81471 0.34019 0.0
H946 H 0.51096 0.9395 0.33946 0.0
H947 H 0.48008 0.89062 0.35717 0.0
H948 H 0.45163 0.91754 0.34239 0.0
H949 H 0.53431 0.97856 0.18947 0.0
H950 H 0.41151 0.98977 0.18135 0.0
H951 H 0.38683 0.95567 0.21994 0.0
H952 H 0.55674 0.01157 0.2467 0.0
H953 H 0.58496 0.98886 0.22841 0.0
H954 H 0.5757 0.97652 0.25984 0.0
H955 H 0.48458 0.87801 0.20888 0.0
H956 H 0.5159 0.87401 0.23392 0.0
H957 H 0.54639 0.91216 0.21052 0.0
H958 H 0.62189 0.88962 0.2831 0.0
C959 C 0.56372 0.89942 0.2776 0.0
C960 C 0.11022 0.43696 0.33232 0.0
C961 C 0.10557 0.39622 0.32196 0.0
C962 C 0.08214 0.37898 0.29894 0.0
C963 C 0.07327 0.44561 0.29572 0.0
C964 C 0.09425 0.46121 0.31884 0.0
C965 C 0.10018 0.50711 0.32637 0.0
H966 H 0.09747 0.69684 0.29538 0.0
C967 C 0.06443 0.48088 0.28583 0.0
C968 C 0.08008 0.51686 0.30386 0.0
H969 H 0.1391 0.67 0.36511 0.0
H970 H 0.11559 0.59257 0.35031 0.0
H971 H 0.13786 0.64881 0.26257 0.0
H972 H 0.00451 0.6048 0.28945 0.0
H973 H 0.99282 0.57419 0.26127 0.0
H974 H 0.02231 0.6362 0.26261 0.0
H975 H 0.09933 0.66748 0.25141 0.0
H976 H 0.0977 0.61681 0.23841 0.0
C977 C 0.15263 0.54144 0.33093 0.0
C978 C 0.07123 0.50151 0.34868 0.0
C979 C 0.00074 0.46579 0.19821 0.0
C980 C 0.99388 0.49652 0.18441 0.0
C981 C 0.00244 0.53852 0.1954 0.0
C982 C 0.01851 0.55053 0.21964 0.0
C983 C 0.02676 0.52052 0.2331 0.0
C984 C 0.01756 0.47872 0.22259 0.0
C985 C 0.02965 0.45215 0.24002 0.0
C986 C 0.04695 0.48488 0.26267 0.0
C987 C 0.04537 0.52482 0.25818 0.0
C988 C 0.0683 0.44567 0.22929 0.0
C989 C 0.98511 0.40675 0.24423 0.0
C990 C 0.10184 0.67438 0.30742 0.0
C991 C 0.12095 0.68951 0.3312 0.0
C992 C 0.12474 0.65896 0.34659 0.0
C993 C 0.11117 0.61414 0.33795 0.0
C994 C 0.09358 0.59999 0.31376 0.0
C995 C 0.08807 0.62959 0.29921 0.0
C996 C 0.06681 0.60828 0.27445 0.0
C997 C 0.06172 0.56121 0.27624 0.0
C998 C 0.07806 0.55684 0.2991 0.0
C999 C 0.1018 0.63671 0.25556 0.0
C1000 C 0.0193 0.60588 0.27156 0.0
H1001 H 0.04884 0.38885 0.26824 0.0
H1002 H 0.12797 0.4509 0.34999 0.0
H1003 H 0.04089 0.46625 0.34862 0.0
H1004 H 0.05624 0.5243 0.34877 0.0
H1005 H 0.09211 0.50789 0.36596 0.0
H1006 H 0.17255 0.53543 0.31696 0.0
H1007 H 0.16549 0.53755 0.34901 0.0
H1008 H 0.1619 0.57759 0.32968 0.0
H1009 H 0.99448 0.43332 0.19002 0.0
H1010 H 0.99687 0.56232 0.18509 0.0
H1011 H 0.02468 0.58324 0.22675 0.0
H1012 H 0.09364 0.47725 0.22072 0.0
H1013 H 0.05383 0.41693 0.21512 0.0
H1014 H 0.08884 0.43951 0.24311 0.0
H1015 H 0.95527 0.41251 0.24555 0.0
H1016 H 0.98722 0.39204 0.26146 0.0
H1017 H 0.97671 0.38083 0.22899 0.0
H1018 H 0.0767 0.34668 0.29104 0.0
C1019 C 0.06582 0.40337 0.28579 0.0
C1020 C 0.31683 0.45793 0.32467 0.0
C1021 C 0.28187 0.41377 0.31672 0.0
C1022 C 0.2847 0.39508 0.29385 0.0
C1023 C 0.35801 0.46299 0.28816 0.0
C1024 C 0.3545 0.48154 0.31029 0.0
C1025 C 0.39556 0.52774 0.31688 0.0
H1026 H 0.60489 0.7 0.29238 0.0
C1027 C 0.40291 0.49563 0.2785 0.0
C1028 C 0.42488 0.5334 0.29553 0.0
H1029 H 0.52162 0.691 0.35256 0.0
H1030 H 0.4629 0.61618 0.33745 0.0
H1031 H 0.58955 0.60216 0.29304 0.0
H1032 H 0.52014 0.65777 0.25191 0.0
H1033 H 0.52838 0.62136 0.2317 0.0
H1034 H 0.57779 0.6696 0.24732 0.0
H1035 H 0.61072 0.6285 0.26512 0.0
H1036 H 0.57015 0.56776 0.26583 0.0
C1037 C 0.4188 0.52474 0.34105 0.0
C1038 C 0.37894 0.56337 0.31779 0.0
C1039 C 0.45506 0.46512 0.1968 0.0
C1040 C 0.49733 0.48949 0.18561 0.0
C1041 C 0.53372 0.52928 0.19765 0.0
C1042 C 0.52827 0.54545 0.22015 0.0
C1043 C 0.48597 0.52166 0.23099 0.0
C1044 C 0.45042 0.48155 0.2198 0.0
C1045 C 0.40944 0.45959 0.23553 0.0
C1046 C 0.42578 0.4946 0.25725 0.0
C1047 C 0.47051 0.53092 0.25404 0.0
C1048 C 0.40321 0.41297 0.24277 0.0
C1049 C 0.36686 0.45569 0.22141 0.0
C1050 C 0.57408 0.68167 0.30233 0.0
C1051 C 0.56783 0.70147 0.32359 0.0
C1052 C 0.52716 0.67669 0.33597 0.0
C1053 C 0.49294 0.63306 0.32717 0.0
C1054 C 0.49921 0.61385 0.3057 0.0
C1055 C 0.53918 0.63798 0.29366 0.0
C1056 C 0.53913 0.61238 0.27084 0.0
C1057 C 0.49226 0.56905 0.27116 0.0
C1058 C 0.46935 0.57022 0.29165 0.0
C1059 C 0.57953 0.6023 0.27362 0.0
C1060 C 0.54179 0.6416 0.24919 0.0
H1061 H 0.32248 0.4035 0.26237 0.0
H1062 H 0.31572 0.47332 0.34203 0.0
H1063 H 0.34785 0.55225 0.30535 0.0
H1064 H 0.40472 0.59704 0.31151 0.0
H1065 H 0.36976 0.56829 0.33637 0.0
H1066 H 0.41632 0.49062 0.34197 0.0
H1067 H 0.40194 0.52959 0.35699 0.0
H1068 H 0.45618 0.54964 0.3431 0.0
H1069 H 0.42672 0.43409 0.18798 0.0
H1070 H 0.56631 0.54869 0.18929 0.0
H1071 H 0.55729 0.57629 0.22806 0.0
H1072 H 0.4373 0.41551 0.24655 0.0
H1073 H 0.38439 0.38596 0.22793 0.0
H1074 H 0.38499 0.40142 0.25961 0.0
H1075 H 0.37605 0.48839 0.21289 0.0
H1076 H 0.33848 0.44905 0.2332 0.0
H1077 H 0.35361 0.42793 0.20672 0.0
H1078 H 0.25771 0.3613 0.28699 0.0
C1079 C 0.32236 0.41949 0.27952 0.0
Tb1080 Tb 0.4813 0.95964 0.99481 0.0
Eu1081 Eu 0.51788 0.03043 0.04568 0.0
C1082 C 0.5336 0.94428 0.03843 0.0
C1083 C 0.42326 0.93715 0.04171 0.0
C1084 C 0.47151 0.94084 0.92827 0.0
C1085 C 0.49275 0.94075 0.88619 0.0
C1086 C 0.48395 0.92138 0.90903 0.0
C1087 C 0.46933 0.98075 0.92427 0.0
C1088 C 0.47731 -0.00041 0.90148 0.0
C1089 C 0.48874 0.97971 0.882 0.0
C1090 C 0.46194 0.92051 0.95254 0.0
O1091 O 0.47812 0.02035 0.98698 0.0
O1092 O 0.46645 0.04254 0.0245 0.0
O1093 O 0.56565 0.0717 1.01682 0.0
O1094 O 0.55448 0.0081 0.99398 0.0
C1095 C 0.46104 0.03995 1.00071 0.0
O1096 O 0.49974 0.06367 0.07465 0.0
O1097 O 0.56488 0.06488 0.07783 0.0
O1098 O 0.55258 0.98812 0.04504 0.0
O1099 O 0.49953 0.92402 0.02147 0.0
O1100 O 0.42153 0.93465 1.01767 0.0
O1101 O 0.46211 0.96171 0.05451 0.0
C1102 C 0.57638 0.05268 0.9987 0.0
O1103 O 0.49775 0.92776 0.96621 0.0
O1104 O 0.43275 0.92622 0.96522 0.0
C1105 C 0.52165 0.05062 0.11349 0.0
C1106 C 0.49079 0.0089 0.15836 0.0
C1107 C 0.48598 0.04654 0.15199 0.0
C1108 C 0.5013 0.06714 0.1299 0.0
C1109 C 0.52623 0.01284 0.11972 0.0
C1110 C 0.5113 0.99248 0.14188 0.0
C1111 C 0.53428 0.07047 0.08928 0.0
H1112 H 0.50144 0.92451 0.87162 0.0
H1113 H 0.48658 0.89101 0.9116 0.0
H1114 H 0.46129 -0.00253 0.93878 0.0
H1115 H 0.47461 0.02999 0.89912 0.0
H1116 H 0.4708 0.06047 0.16422 0.0
H1117 H 0.49676 0.09579 0.12549 0.0
H1118 H 0.54078 -0.00148 0.1073 0.0
H1119 H 0.51504 0.96321 0.14588 0.0
Tb1120 Tb 0.02774 0.50802 0.99365 0.0
Eu1121 Eu 0.97015 0.48822 0.04359 0.0
C1122 C 0.0591 0.58283 0.03653 0.0
C1123 C 0.05767 0.4737 0.03908 0.0
C1124 C 0.05395 0.51507 0.92926 0.0
C1125 C 0.06008 0.5408 0.88826 0.0
C1126 C 0.07659 0.54872 0.91259 0.0
C1127 C 0.01419 0.47368 0.92145 0.0
C1128 C -0.00195 0.46558 0.89717 0.0
C1129 C 0.02098 0.49893 0.88035 0.0
C1130 C 0.0699 0.5249 0.95501 0.0
O1131 O 0.97776 0.43459 0.99179 0.0
O1132 O 0.92314 0.43479 1.01575 0.0
O1133 O 0.94486 0.52478 1.01885 0.0
O1134 O 0.96508 0.50744 0.98214 0.0
C1135 C 0.93577 0.41465 0.99958 0.0
O1136 O 0.93105 0.44016 0.0707 0.0
O1137 O 0.9427 0.50969 0.07332 0.0
O1138 O 0.03795 0.55154 0.05204 0.0
O1139 O 0.05114 0.57368 1.01303 0.0
O1140 O 0.07139 0.5026 0.02173 0.0
O1141 O 0.01625 0.45707 0.04725 0.0
C1142 C 0.94279 0.52294 0.99487 0.0
O1143 O 0.06056 0.55343 0.96647 0.0
O1144 O 0.06125 0.4898 0.96772 0.0
C1145 C 0.94642 0.47659 0.1097 0.0
C1146 C 0.97922 0.48671 0.15837 0.0
C1147 C 0.93646 0.44879 0.15035 0.0
C1148 C 0.92005 0.44386 0.12611 0.0
C1149 C 0.99009 0.51336 0.11754 0.0
C1150 C 0.00616 0.51854 0.14171 0.0
C1151 C 0.92913 0.47161 0.08429 0.0
H1152 H 0.07833 0.56685 0.87556 0.0
H1153 H 0.10687 0.58118 0.91845 0.0
H1154 H 0.99547 0.44766 0.93411 0.0
H1155 H 0.9675 0.43319 0.8915 0.0
H1156 H 0.91508 0.42409 0.16301 0.0
H1157 H 0.88658 0.41491 0.12025 0.0
H1158 H 0.01153 0.53851 0.10509 0.0
H1159 H 0.03934 0.54798 0.14755 0.0
Tb1160 Tb 0.5157 0.4816 0.04748 0.0
Eu1161 Eu 0.4733 0.49622 0.99522 0.0
C1162 C 0.4702 0.40373 1.00627 0.0
C1163 C 0.5776 0.51528 1.00248 0.0
C1164 C 0.52913 0.47026 0.11324 0.0
C1165 C 0.54357 0.47249 0.15677 0.0
C1166 C 0.55576 0.46933 0.13309 0.0
C1167 C 0.48903 0.47242 0.11733 0.0
C1168 C 0.47643 0.47496 0.14101 0.0
C1169 C 0.50428 0.4762 0.16094 0.0
C1170 C 0.54414 0.47057 0.08845 0.0
O1171 O 0.53871 0.55421 0.04532 0.0
O1172 O 0.47924 0.55038 0.02163 0.0
O1173 O 0.41182 0.45895 1.01882 0.0
O1174 O 0.45117 0.47706 0.05642 0.0
C1175 C 0.51419 0.57232 0.03748 0.0
O1176 O 0.4766 0.54302 0.96807 0.0
O1177 O 0.42868 0.47003 0.96188 0.0
O1178 O 0.48062 0.43433 0.99011 0.0
O1179 O 0.47237 0.41422 0.02952 0.0
O1180 O 0.56555 0.48892 0.02107 0.0
O1181 O 0.55074 0.52957 0.99308 0.0
C1182 C 0.41255 0.45988 0.04286 0.0
O1183 O 0.51494 0.43714 0.07345 0.0
O1184 O 0.56181 0.50972 0.07838 0.0
C1185 C 0.46689 0.51111 0.92827 0.0
C1186 C 0.49758 0.50695 0.88181 0.0
C1187 C 0.4593 0.51304 0.88451 0.0
C1188 C 0.44417 0.51526 0.90758 0.0
C1189 C 0.50624 0.50677 0.92572 0.0
C1190 C 0.52149 0.50471 0.90261 0.0
C1191 C 0.44878 0.50995 0.95235 0.0
H1192 H 0.56578 0.47376 0.17189 0.0
H1193 H 0.58676 0.46761 0.1303 0.0
H1194 H 0.46837 0.47375 0.10226 0.0
H1195 H 0.44654 0.47869 0.14374 0.0
H1196 H 0.43986 0.51401 0.86866 0.0
H1197 H 0.41387 0.51873 0.90919 0.0
H1198 H 0.52416 0.50338 0.94153 0.0
H1199 H 0.55013 0.49858 0.9009 0.0
Tb1200 Tb 0.14796 0.29297 0.32814 0.0
Eu1201 Eu 0.18454 0.36377 0.37901 0.0
C1202 C 0.20026 0.27761 0.37177 0.0
C1203 C 0.08993 0.27048 0.37504 0.0
C1204 C 0.13818 0.27417 0.2616 0.0
C1205 C 0.15939 0.27408 0.21952 0.0
C1206 C 0.15059 0.2547 0.24236 0.0
C1207 C 0.13603 0.31411 0.25761 0.0
C1208 C 0.14401 0.33295 0.23482 0.0
C1209 C 0.15541 0.31305 0.21534 0.0
C1210 C 0.1286 0.25384 0.28587 0.0
O1211 O 0.14479 0.35368 0.32032 0.0
O1212 O 0.13312 0.37587 0.35783 0.0
O1213 O 0.23232 0.40503 0.35015 0.0
O1214 O 0.22114 0.34143 0.32731 0.0
C1215 C 0.1277 0.37328 0.33405 0.0
O1216 O 0.1664 0.397 0.40798 0.0
O1217 O 0.23154 0.39821 0.41117 0.0
O1218 O 0.21924 0.32145 0.37837 0.0
O1219 O 0.16619 0.25735 0.35481 0.0
O1220 O 0.08819 0.26798 0.35101 0.0
O1221 O 0.12877 0.29504 0.38784 0.0
C1222 C 0.24305 0.38601 0.33203 0.0
O1223 O 0.16441 0.26109 0.29954 0.0
O1224 O 0.09941 0.25956 0.29855 0.0
C1225 C 0.18831 0.38395 0.44682 0.0
C1226 C 0.15745 0.34223 0.49169 0.0
C1227 C 0.15265 0.37987 0.48532 0.0
C1228 C 0.16796 0.40047 0.46323 0.0
C1229 C 0.1929 0.34617 0.45305 0.0
C1230 C 0.17796 0.32582 0.47521 0.0
C1231 C 0.20094 0.40381 0.42262 0.0
H1232 H 0.16806 0.25782 0.20495 0.0
H1233 H 0.1532 0.22432 0.24493 0.0
H1234 H 0.128 0.33084 0.27212 0.0
H1235 H 0.14133 0.36336 0.23246 0.0
H1236 H 0.13746 0.39381 0.49755 0.0
H1237 H 0.16342 0.42912 0.45883 0.0
H1238 H 0.20745 0.33185 0.44063 0.0
H1239 H 0.1817 0.29654 0.47922 0.0
Tb1240 Tb 0.69441 0.84135 0.32698 0.0
Eu1241 Eu 0.63681 0.82155 0.37692 0.0
C1242 C 0.72577 0.91616 0.36986 0.0
C1243 C 0.72434 0.80702 0.37241 0.0
C1244 C 0.72061 0.8484 0.26259 0.0
C1245 C 0.72675 0.87413 0.22159 0.0
C1246 C 0.74325 0.88205 0.24593 0.0
C1247 C 0.68086 0.80701 0.25478 0.0
C1248 C 0.66472 0.79891 0.2305 0.0
C1249 C 0.68765 0.83226 0.21369 0.0
C1250 C 0.73656 0.85822 0.28834 0.0
O1251 O 0.64442 0.76792 0.32512 0.0
O1252 O 0.58981 0.76812 0.34908 0.0
O1253 O 0.61152 0.85811 0.35218 0.0
O1254 O 0.63175 0.84077 0.31547 0.0
C1255 C 0.60244 0.74798 0.33291 0.0
O1256 O 0.59772 0.77349 0.40403 0.0
O1257 O 0.60936 0.84302 0.40665 0.0
O1258 O 0.70461 0.88487 0.38537 0.0
O1259 O 0.71781 0.90701 0.34636 0.0
O1260 O 0.73806 0.83592 0.35506 0.0
O1261 O 0.68292 0.79039 0.38058 0.0
C1262 C 0.60946 0.85627 0.3282 0.0
O1263 O 0.72723 0.88676 0.2998 0.0
O1264 O 0.72791 0.82313 0.30105 0.0
C1265 C 0.61309 0.80992 0.44303 0.0
C1266 C 0.64589 0.82004 0.4917 0.0
C1267 C 0.60312 0.78212 0.48369 0.0
C1268 C 0.58671 0.77719 0.45945 0.0
C1269 C 0.65676 0.84669 0.45087 0.0
C1270 C 0.67283 0.85187 0.47504 0.0
C1271 C 0.5958 0.80494 0.41762 0.0
H1272 H 0.745 0.90019 0.20889 0.0
H1273 H 0.77354 0.91451 0.25178 0.0
H1274 H 0.66213 0.78099 0.26744 0.0
H1275 H 0.63417 0.76653 0.22483 0.0
H1276 H 0.58175 0.75743 0.49634 0.0
H1277 H 0.55324 0.74824 0.45359 0.0
H1278 H 0.67821 0.87183 0.43842 0.0
H1279 H 0.70601 0.8813 0.48088 0.0
Tb1280 Tb 0.18237 0.81494 0.38082 0.0
Eu1281 Eu 0.13997 0.82956 0.32855 0.0
C1282 C 0.13687 0.73706 0.3396 0.0
C1283 C 0.24427 0.84862 0.33581 0.0
C1284 C 0.1958 0.80359 0.44657 0.0
C1285 C 0.21024 0.80582 0.4901 0.0
C1286 C 0.22243 0.80266 0.46642 0.0
C1287 C 0.1557 0.80575 0.45066 0.0
C1288 C 0.1431 0.80828 0.47434 0.0
C1289 C 0.17095 0.80953 0.49427 0.0
C1290 C 0.21082 0.8039 0.42178 0.0
O1291 O 0.20539 0.88755 0.37865 0.0
O1292 O 0.14592 0.88371 0.35496 0.0
O1293 O 0.07849 0.79229 0.35215 0.0
O1294 O 0.11784 0.8104 0.38976 0.0
C1295 C 0.18086 0.90565 0.37081 0.0
O1296 O 0.14327 0.87635 0.30141 0.0
O1297 O 0.09535 0.80336 0.29521 0.0
O1298 O 0.14729 0.76766 0.32345 0.0
O1299 O 0.13904 0.74755 0.36285 0.0
O1300 O 0.23222 0.82226 0.3544 0.0
O1301 O 0.21741 0.8629 0.32641 0.0
C1302 C 0.07922 0.79322 0.37619 0.0
O1303 O 0.18162 0.77047 0.40678 0.0
O1304 O 0.22848 0.84305 0.41172 0.0
C1305 C 0.13356 0.84445 0.2616 0.0
C1306 C 0.16426 0.8403 0.21514 0.0
C1307 C 0.12598 0.84638 0.21785 0.0
C1308 C 0.11085 0.8486 0.24091 0.0
C1309 C 0.17292 0.84011 0.25905 0.0
C1310 C 0.18817 0.83804 0.23595 0.0
C1311 C 0.11545 0.84329 0.28568 0.0
H1312 H 0.23245 0.80709 0.50523 0.0
H1313 H 0.25344 0.80094 0.46363 0.0
H1314 H 0.13504 0.80708 0.43559 0.0
H1315 H 0.11321 0.81201 0.47708 0.0
H1316 H 0.10654 0.84736 0.202 0.0
H1317 H 0.08055 0.85208 0.24253 0.0
H1318 H 0.19083 0.8367 0.27486 0.0
H1319 H 0.2168 0.83191 0.23423 0.0
Tb1320 Tb 0.81463 0.62631 0.66147 0.0
Eu1321 Eu 0.85121 0.6971 0.71235 0.0
C1322 C 0.86693 0.61094 0.7051 0.0
C1323 C 0.75659 0.60381 0.70838 0.0
C1324 C 0.80484 0.60751 0.59494 0.0
C1325 C 0.82606 0.60741 0.55285 0.0
C1326 C 0.81725 0.58803 0.57569 0.0
C1327 C 0.8027 0.64744 0.59094 0.0
C1328 C 0.81069 0.66628 0.56816 0.0
C1329 C 0.82208 0.64639 0.54867 0.0
C1330 C 0.79527 0.58718 0.6192 0.0
O1331 O 0.81146 0.68702 0.65365 0.0
O1332 O 0.79978 0.7092 0.69116 0.0
O1333 O 0.89899 0.73836 0.68348 0.0
O1334 O 0.88781 0.67476 0.66064 0.0
C1335 C 0.79437 0.70661 0.66738 0.0
O1336 O 0.83307 0.73033 0.74132 0.0
O1337 O 0.89821 0.73155 0.7445 0.0
O1338 O 0.88591 0.65478 0.71171 0.0
O1339 O 0.83286 0.59068 0.68814 0.0
O1340 O 0.75486 0.60131 0.68434 0.0
O1341 O 0.79544 0.62838 0.72118 0.0
C1342 C 0.90972 0.71934 0.66536 0.0
O1343 O 0.83107 0.59442 0.63288 0.0
O1344 O 0.76608 0.5929 0.63188 0.0
C1345 C 0.85498 0.71729 0.78016 0.0
C1346 C 0.82412 0.67556 0.82503 0.0
C1347 C 0.81931 0.7132 0.81866 0.0
C1348 C 0.83463 0.7338 0.79656 0.0
C1349 C 0.85957 0.67951 0.78638 0.0
C1350 C 0.84463 0.65915 0.80855 0.0
C1351 C 0.86761 0.73714 0.75595 0.0
H1352 H 0.83472 0.59115 0.53828 0.0
H1353 H 0.81986 0.55765 0.57826 0.0
H1354 H 0.79468 0.66418 0.60546 0.0
H1355 H 0.80801 0.6967 0.5658 0.0
H1356 H 0.80413 0.72714 0.83088 0.0
H1357 H 0.83009 0.76246 0.79216 0.0
H1358 H 0.87412 0.66518 0.77397 0.0
H1359 H 0.84837 0.62988 0.81255 0.0
Tb1360 Tb 0.36107 0.17468 0.66031 0.0
Eu1361 Eu 0.30348 0.15488 0.71026 0.0
C1362 C 0.39244 0.24949 0.70319 0.0
C1363 C 0.391 0.14035 0.70574 0.0
C1364 C 0.38728 0.18174 0.59592 0.0
C1365 C 0.39342 0.20747 0.55493 0.0
C1366 C 0.40992 0.21539 0.57926 0.0
C1367 C 0.34753 0.14034 0.58812 0.0
C1368 C 0.33139 0.13224 0.56383 0.0
C1369 C 0.35432 0.1656 0.54702 0.0
C1370 C 0.40323 0.19156 0.62167 0.0
O1371 O 0.31109 0.10125 0.65845 0.0
O1372 O 0.25648 0.10145 0.68241 0.0
O1373 O 0.27819 0.19144 0.68552 0.0
O1374 O 0.29842 0.1741 0.64881 0.0
C1375 C 0.26911 0.08131 0.66624 0.0
O1376 O 0.26438 0.10682 0.73736 0.0
O1377 O 0.27603 0.17635 0.73999 0.0
O1378 O 0.37128 0.2182 0.7187 0.0
O1379 O 0.38448 0.24034 0.6797 0.0
O1380 O 0.40472 0.16925 0.6884 0.0
O1381 O 0.34959 0.12372 0.71391 0.0
C1382 C 0.27612 0.1896 0.66153 0.0
O1383 O 0.39389 0.2201 0.63314 0.0
O1384 O 0.39458 0.15646 0.63438 0.0
C1385 C 0.27975 0.14325 0.77636 0.0
C1386 C 0.31256 0.15338 0.82503 0.0
C1387 C 0.26979 0.11545 0.81702 0.0
C1388 C 0.25338 0.11052 0.79278 0.0
C1389 C 0.32342 0.18002 0.7842 0.0
C1390 C 0.3395 0.18521 0.80837 0.0
C1391 C 0.26246 0.13827 0.75095 0.0
H1392 H 0.41167 0.23353 0.54222 0.0
H1393 H 0.44021 0.24784 0.58512 0.0
H1394 H 0.3288 0.11433 0.60077 0.0
H1395 H 0.30084 0.09986 0.55816 0.0
H1396 H 0.24842 0.09076 0.82967 0.0
H1397 H 0.21991 0.08157 0.78692 0.0
H1398 H 0.34487 0.20517 0.77175 0.0
H1399 H 0.37268 0.21464 0.81421 0.0
Tb1400 Tb 0.84904 0.14827 0.71415 0.0
Eu1401 Eu 0.80664 0.16289 0.66188 0.0
C1402 C 0.80354 0.0704 0.67294 0.0
C1403 C 0.91094 0.18195 0.66915 0.0
C1404 C 0.86246 0.13693 0.7799 0.0
C1405 C 0.87691 0.13917 0.82344 0.0
C1406 C 0.8891 0.136 0.79975 0.0
C1407 C 0.82237 0.13909 0.78399 0.0
C1408 C 0.80977 0.14163 0.80767 0.0
C1409 C 0.83762 0.14287 0.82761 0.0
C1410 C 0.87748 0.13723 0.75512 0.0
O1411 O 0.87205 0.22088 0.71199 0.0
O1412 O 0.81258 0.21704 0.6883 0.0
O1413 O 0.74515 0.12562 0.68548 0.0
O1414 O 0.7845 0.14373 0.72309 0.0
C1415 C 0.84752 0.23898 0.70415 0.0
O1416 O 0.80994 0.20968 0.63474 0.0
O1417 O 0.76201 0.1367 0.62854 0.0
O1418 O 0.81396 0.101 0.65678 0.0
O1419 O 0.80571 0.08088 0.69618 0.0
O1420 O 0.89889 0.15559 0.68774 0.0
O1421 O 0.88408 0.19623 0.65975 0.0
C1422 C 0.74589 0.12655 0.70952 0.0
O1423 O 0.84827 0.1038 0.74012 0.0
O1424 O 0.89515 0.17638 0.74505 0.0
C1425 C 0.80023 0.17778 0.59494 0.0
C1426 C 0.83092 0.17362 0.54847 0.0
C1427 C 0.79263 0.1797 0.55118 0.0
C1428 C 0.77751 0.18192 0.57425 0.0
C1429 C 0.83958 0.17344 0.59238 0.0
C1430 C 0.85483 0.17138 0.56928 0.0
C1431 C 0.78212 0.17662 0.61901 0.0
H1432 H 0.89912 0.14044 0.83856 0.0
H1433 H 0.9201 0.13428 0.79697 0.0
H1434 H 0.80171 0.14042 0.76892 0.0
H1435 H 0.77988 0.14536 0.81041 0.0
H1436 H 0.7732 0.18068 0.53533 0.0
H1437 H 0.74721 0.1854 0.57586 0.0
H1438 H 0.8575 0.17004 0.60819 0.0
H1439 H 0.88346 0.16524 0.56757 0.0
loop_
_geom_bond_atom_site_label_1
_geom_bond_atom_site_label_2
_geom_bond_distance
_geom_bond_site_symmetry_2
_ccdc_geom_bond_type
C0 C1 1.391 . S
C0 C4 1.391 . S
C0 H42 0.948 . S
C1 C0 1.391 . S
C1 C2 1.391 . S
C2 C1 1.391 . S
C2 H58 0.947 . S
C2 C59 1.392 . S
C3 C4 1.391 . S
C3 C7 1.397 . S
C3 C59 1.419 . S
C4 C0 1.391 . S
C4 C3 1.391 . S
C4 C5 1.399 . S
C5 C4 1.399 . S
C5 C8 1.396 . S
C5 C17 1.453 . S
C5 C18 1.684 . S
H6 C30 0.948 1_565 S
C7 C3 1.397 . S
C7 C8 1.394 . S
C7 C26 1.723 . S
C8 C5 1.396 . S
C8 C7 1.394 . S
C8 C38 1.723 . S
H9 C32 0.947 . S
H10 C33 0.948 . S
H11 C39 0.982 . S
H12 C40 0.979 . S
H13 C40 0.980 . S
H14 C40 0.983 . S
H15 C39 0.979 . S
H16 C39 0.977 . S
C17 C5 1.453 . S
C17 H46 0.982 . S
C17 H47 0.979 . S
C17 H48 0.977 . S
C18 C5 1.684 . S
C18 H43 0.979 . S
C18 H44 0.980 . S
C18 H45 0.983 . S
C19 C20 1.391 . S
C19 C24 1.391 . S
C19 H49 0.948 . S
C20 C19 1.391 . S
C20 C21 1.391 . S
C21 C20 1.391 . S
C21 C22 1.392 . S
C21 H50 0.947 . S
C22 C21 1.392 . S
C22 C23 1.419 . S
C22 H51 0.948 . S
C23 C22 1.419 . S
C23 C24 1.391 . S
C23 C27 1.397 . S
C24 C19 1.391 . S
C24 C23 1.391 . S
C24 C25 1.399 . S
C25 C24 1.399 . S
C25 C26 1.396 . S
C25 C28 1.453 . S
C25 C29 1.684 . S
C26 C7 1.723 . S
C26 C25 1.396 . S
C26 C27 1.394 . S
C27 C23 1.397 . S
C27 C26 1.394 . S
C27 C37 1.723 . S
C28 C25 1.453 . S
C28 H52 0.982 . S
C28 H53 0.979 . S
C28 H54 0.977 . S
C29 C25 1.684 . S
C29 H55 0.979 . S
C29 H56 0.980 . S
C29 H57 0.983 . S
C30 H6 0.948 1_545 S
C30 C31 1.391 1_545 S
C30 C35 1.391 . S
C31 C30 1.391 1_565 S
C31 C32 1.391 1_565 S
C32 H9 0.947 . S
C32 C31 1.391 1_545 S
C32 C33 1.392 . S
C33 H10 0.948 . S
C33 C32 1.392 . S
C33 C34 1.419 . S
C34 C33 1.419 . S
C34 C35 1.391 . S
C34 C38 1.397 . S
C35 C30 1.391 . S
C35 C34 1.391 . S
C35 C36 1.399 . S
C36 C35 1.399 . S
C36 C37 1.396 . S
C36 C39 1.453 . S
C36 C40 1.684 . S
C37 C27 1.723 . S
C37 C36 1.396 . S
C37 C38 1.394 . S
C38 C8 1.723 . S
C38 C34 1.397 . S
C38 C37 1.394 . S
C39 H11 0.982 . S
C39 H15 0.979 . S
C39 H16 0.977 . S
C39 C36 1.453 . S
C40 H12 0.979 . S
C40 H13 0.980 . S
C40 H14 0.983 . S
C40 C36 1.684 . S
H41 C59 0.948 . S
H42 C0 0.948 . S
H43 C18 0.979 . S
H44 C18 0.980 . S
H45 C18 0.983 . S
H46 C17 0.982 . S
H47 C17 0.979 . S
H48 C17 0.977 . S
H49 C19 0.948 . S
H50 C21 0.947 . S
H51 C22 0.948 . S
H52 C28 0.982 . S
H53 C28 0.979 . S
H54 C28 0.977 . S
H55 C29 0.979 . S
H56 C29 0.980 . S
H57 C29 0.983 . S
H58 C2 0.947 . S
C59 C2 1.392 . S
C59 C3 1.419 . S
C59 H41 0.948 . S
C60 C61 1.391 1_655 S
C60 C64 1.391 . S
C60 H102 0.948 . S
C61 C60 1.391 1_455 S
C61 C62 1.391 . S
C62 C61 1.391 . S
C62 H118 0.947 . S
C62 C119 1.392 1_455 S
C63 C64 1.391 . S
C63 C67 1.397 . S
C63 C119 1.419 . S
C64 C60 1.391 . S
C64 C63 1.391 . S
C64 C65 1.399 . S
C65 C64 1.399 . S
C65 C68 1.396 . S
C65 C77 1.453 . S
C65 C78 1.684 . S
H66 C90 0.948 1_565 S
C67 C63 1.397 . S
C67 C68 1.394 . S
C67 C86 1.723 . S
C68 C65 1.396 . S
C68 C67 1.394 . S
C68 C98 1.723 . S
H69 C92 0.947 . S
H70 C93 0.948 . S
H71 C99 0.982 . S
H72 C100 0.979 . S
H73 C100 0.980 . S
H74 C100 0.983 . S
H75 C99 0.979 . S
H76 C99 0.977 . S
C77 C65 1.453 . S
C77 H106 0.982 . S
C77 H107 0.979 . S
C77 H108 0.977 . S
C78 C65 1.684 . S
C78 H103 0.979 . S
C78 H104 0.980 . S
C78 H105 0.983 . S
C79 C80 1.391 . S
C79 C84 1.391 . S
C79 H109 0.948 . S
C80 C79 1.391 . S
C80 C81 1.391 . S
C81 C80 1.391 . S
C81 C82 1.392 . S
C81 H110 0.947 . S
C82 C81 1.392 . S
C82 C83 1.419 . S
C82 H111 0.948 . S
C83 C82 1.419 . S
C83 C84 1.391 . S
C83 C87 1.397 . S
C84 C79 1.391 . S
C84 C83 1.391 . S
C84 C85 1.399 . S
C85 C84 1.399 . S
C85 C86 1.396 . S
C85 C88 1.453 . S
C85 C89 1.684 . S
C86 C67 1.723 . S
C86 C85 1.396 . S
C86 C87 1.394 . S
C87 C83 1.397 . S
C87 C86 1.394 . S
C87 C97 1.723 . S
C88 C85 1.453 . S
C88 H112 0.982 . S
C88 H113 0.979 . S
C88 H114 0.977 . S
C89 C85 1.684 . S
C89 H115 0.979 . S
C89 H116 0.980 . S
C89 H117 0.983 . S
C90 H66 0.948 1_545 S
C90 C91 1.391 1_545 S
C90 C95 1.391 . S
C91 C90 1.391 1_565 S
C91 C92 1.391 1_565 S
C92 H69 0.947 . S
C92 C91 1.391 1_545 S
C92 C93 1.392 . S
C93 H70 0.948 . S
C93 C92 1.392 . S
C93 C94 1.419 . S
C94 C93 1.419 . S
C94 C95 1.391 . S
C94 C98 1.397 . S
C95 C90 1.391 . S
C95 C94 1.391 . S
C95 C96 1.399 . S
C96 C95 1.399 . S
C96 C97 1.396 . S
C96 C99 1.453 . S
C96 C100 1.684 . S
C97 C87 1.723 . S
C97 C96 1.396 . S
C97 C98 1.394 . S
C98 C68 1.723 . S
C98 C94 1.397 . S
C98 C97 1.394 . S
C99 H71 0.982 . S
C99 H75 0.979 . S
C99 H76 0.977 . S
C99 C96 1.453 . S
C100 H72 0.979 . S
C100 H73 0.980 . S
C100 H74 0.983 . S
C100 C96 1.684 . S
H101 C119 0.948 . S
H102 C60 0.948 . S
H103 C78 0.979 . S
H104 C78 0.980 . S
H105 C78 0.983 . S
H106 C77 0.982 . S
H107 C77 0.979 . S
H108 C77 0.977 . S
H109 C79 0.948 . S
H110 C81 0.947 . S
H111 C82 0.948 . S
H112 C88 0.982 . S
H113 C88 0.979 . S
H114 C88 0.977 . S
H115 C89 0.979 . S
H116 C89 0.980 . S
H117 C89 0.983 . S
H118 C62 0.947 . S
C119 C62 1.392 1_655 S
C119 C63 1.419 . S
C119 H101 0.948 . S
C120 C121 1.391 . S
C120 C124 1.391 1_455 S
C120 H162 0.948 . S
C121 C120 1.391 . S
C121 C122 1.391 . S
C122 C121 1.391 . S
C122 H178 0.947 . S
C122 C179 1.392 . S
C123 C124 1.391 . S
C123 C127 1.397 . S
C123 C179 1.419 1_655 S
C124 C120 1.391 1_655 S
C124 C123 1.391 . S
C124 C125 1.399 . S
C125 C124 1.399 . S
C125 C128 1.396 . S
C125 C137 1.453 . S
C125 C138 1.684 . S
H126 C150 0.948 . S
C127 C123 1.397 . S
C127 C128 1.394 . S
C127 C146 1.723 . S
C128 C125 1.396 . S
C128 C127 1.394 . S
C128 C158 1.723 . S
H129 C152 0.947 . S
H130 C153 0.948 . S
H131 C159 0.982 . S
H132 C160 0.979 . S
H133 C160 0.980 . S
H134 C160 0.983 . S
H135 C159 0.979 . S
H136 C159 0.977 . S
C137 C125 1.453 . S
C137 H166 0.982 . S
C137 H167 0.979 . S
C137 H168 0.977 . S
C138 C125 1.684 . S
C138 H163 0.979 . S
C138 H164 0.980 . S
C138 H165 0.983 . S
C139 C140 1.391 . S
C139 C144 1.391 . S
C139 H169 0.948 . S
C140 C139 1.391 . S
C140 C141 1.391 . S
C141 C140 1.391 . S
C141 C142 1.392 . S
C141 H170 0.947 . S
C142 C141 1.392 . S
C142 C143 1.419 . S
C142 H171 0.948 . S
C143 C142 1.419 . S
C143 C144 1.391 . S
C143 C147 1.397 . S
C144 C139 1.391 . S
C144 C143 1.391 . S
C144 C145 1.399 . S
C145 C144 1.399 . S
C145 C146 1.396 . S
C145 C148 1.453 . S
C145 C149 1.684 . S
C146 C127 1.723 . S
C146 C145 1.396 . S
C146 C147 1.394 . S
C147 C143 1.397 . S
C147 C146 1.394 . S
C147 C157 1.723 . S
C148 C145 1.453 . S
C148 H172 0.982 . S
C148 H173 0.979 . S
C148 H174 0.977 . S
C149 C145 1.684 . S
C149 H175 0.979 . S
C149 H176 0.980 1_655 S
C149 H177 0.983 . S
C150 H126 0.948 . S
C150 C151 1.391 . S
C150 C155 1.391 . S
C151 C150 1.391 . S
C151 C152 1.391 . S
C152 H129 0.947 . S
C152 C151 1.391 . S
C152 C153 1.392 . S
C153 H130 0.948 . S
C153 C152 1.392 . S
C153 C154 1.419 . S
C154 C153 1.419 . S
C154 C155 1.391 . S
C154 C158 1.397 . S
C155 C150 1.391 . S
C155 C154 1.391 . S
C155 C156 1.399 . S
C156 C155 1.399 . S
C156 C157 1.396 . S
C156 C159 1.453 . S
C156 C160 1.684 . S
C157 C147 1.723 . S
C157 C156 1.396 . S
C157 C158 1.394 . S
C158 C128 1.723 . S
C158 C154 1.397 . S
C158 C157 1.394 . S
C159 H131 0.982 . S
C159 H135 0.979 . S
C159 H136 0.977 . S
C159 C156 1.453 . S
C160 H132 0.979 . S
C160 H133 0.980 . S
C160 H134 0.983 . S
C160 C156 1.684 . S
H161 C179 0.948 . S
H162 C120 0.948 . S
H163 C138 0.979 . S
H164 C138 0.980 . S
H165 C138 0.983 . S
H166 C137 0.982 . S
H167 C137 0.979 . S
H168 C137 0.977 . S
H169 C139 0.948 . S
H170 C141 0.947 . S
H171 C142 0.948 . S
H172 C148 0.982 . S
H173 C148 0.979 . S
H174 C148 0.977 . S
H175 C149 0.979 . S
H176 C149 0.980 1_455 S
H177 C149 0.983 . S
H178 C122 0.947 . S
C179 C122 1.392 . S
C179 C123 1.419 1_455 S
C179 H161 0.948 . S
C180 C181 1.391 . S
C180 C184 1.391 . S
C180 H222 0.948 . S
C181 C180 1.391 . S
C181 C182 1.391 . S
C182 C181 1.391 . S
C182 H238 0.947 . S
C182 C239 1.392 . S
C183 C184 1.391 . S
C183 C187 1.397 . S
C183 C239 1.419 . S
C184 C180 1.391 . S
C184 C183 1.391 . S
C184 C185 1.399 . S
C185 C184 1.399 . S
C185 C188 1.396 . S
C185 C197 1.453 . S
C185 C198 1.684 . S
H186 C210 0.948 . S
C187 C183 1.397 . S
C187 C188 1.394 . S
C187 C206 1.723 . S
C188 C185 1.396 . S
C188 C187 1.394 . S
C188 C218 1.723 . S
H189 C212 0.947 . S
H190 C213 0.948 . S
H191 C219 0.982 . S
H192 C220 0.979 . S
H193 C220 0.980 1_455 S
H194 C220 0.983 . S
H195 C219 0.979 . S
H196 C219 0.977 . S
C197 C185 1.453 . S
C197 H226 0.982 . S
C197 H227 0.979 . S
C197 H228 0.977 . S
C198 C185 1.684 . S
C198 H223 0.979 . S
C198 H224 0.980 . S
C198 H225 0.983 . S
C199 C200 1.391 . S
C199 C204 1.391 . S
C199 H229 0.948 . S
C200 C199 1.391 . S
C200 C201 1.391 . S
C201 C200 1.391 . S
C201 C202 1.392 . S
C201 H230 0.947 . S
C202 C201 1.392 . S
C202 C203 1.419 . S
C202 H231 0.948 . S
C203 C202 1.419 . S
C203 C204 1.391 . S
C203 C207 1.397 . S
C204 C199 1.391 . S
C204 C203 1.391 . S
C204 C205 1.399 . S
C205 C204 1.399 . S
C205 C206 1.396 . S
C205 C208 1.453 . S
C205 C209 1.684 . S
C206 C187 1.723 . S
C206 C205 1.396 . S
C206 C207 1.394 . S
C207 C203 1.397 . S
C207 C206 1.394 . S
C207 C217 1.723 . S
C208 C205 1.453 . S
C208 H232 0.982 . S
C208 H233 0.979 . S
C208 H234 0.977 . S
C209 C205 1.684 . S
C209 H235 0.979 . S
C209 H236 0.980 . S
C209 H237 0.983 . S
C210 H186 0.948 . S
C210 C211 1.391 . S
C210 C215 1.391 1_655 S
C211 C210 1.391 . S
C211 C212 1.391 . S
C212 H189 0.947 . S
C212 C211 1.391 . S
C212 C213 1.392 1_655 S
C213 H190 0.948 . S
C213 C212 1.392 1_455 S
C213 C214 1.419 . S
C214 C213 1.419 . S
C214 C215 1.391 . S
C214 C218 1.397 . S
C215 C210 1.391 1_455 S
C215 C214 1.391 . S
C215 C216 1.399 . S
C216 C215 1.399 . S
C216 C217 1.396 . S
C216 C219 1.453 . S
C216 C220 1.684 1_455 S
C217 C207 1.723 . S
C217 C216 1.396 . S
C217 C218 1.394 . S
C218 C188 1.723 . S
C218 C214 1.397 . S
C218 C217 1.394 . S
C219 H191 0.982 . S
C219 H195 0.979 . S
C219 H196 0.977 . S
C219 C216 1.453 . S
C220 H192 0.979 . S
C220 H193 0.980 1_655 S
C220 H194 0.983 . S
C220 C216 1.684 1_655 S
H221 C239 0.948 . S
H222 C180 0.948 . S
H223 C198 0.979 . S
H224 C198 0.980 . S
H225 C198 0.983 . S
H226 C197 0.982 . S
H227 C197 0.979 . S
H228 C197 0.977 . S
H229 C199 0.948 . S
H230 C201 0.947 . S
H231 C202 0.948 . S
H232 C208 0.982 . S
H233 C208 0.979 . S
H234 C208 0.977 . S
H235 C209 0.979 . S
H236 C209 0.980 . S
H237 C209 0.983 . S
H238 C182 0.947 . S
C239 C182 1.392 . S
C239 C183 1.419 . S
C239 H221 0.948 . S
C240 C241 1.391 . S
C240 C244 1.391 . S
C240 H282 0.948 . S
C241 C240 1.391 . S
C241 C242 1.391 . S
C242 C241 1.391 . S
C242 H298 0.947 . S
C242 C299 1.392 . S
C243 C244 1.391 . S
C243 C247 1.397 . S
C243 C299 1.419 . S
C244 C240 1.391 . S
C244 C243 1.391 . S
C244 C245 1.399 . S
C245 C244 1.399 . S
C245 C248 1.396 . S
C245 C257 1.453 . S
C245 C258 1.684 . S
H246 C270 0.948 1_545 S
C247 C243 1.397 . S
C247 C248 1.394 . S
C247 C266 1.723 . S
C248 C245 1.396 . S
C248 C247 1.394 . S
C248 C278 1.723 . S
H249 C272 0.947 . S
H250 C273 0.948 . S
H251 C279 0.982 . S
H252 C280 0.979 . S
H253 C280 0.980 . S
H254 C280 0.983 . S
H255 C279 0.979 . S
H256 C279 0.977 . S
C257 C245 1.453 . S
C257 H286 0.982 . S
C257 H287 0.979 . S
C257 H288 0.977 . S
C258 C245 1.684 . S
C258 H283 0.979 . S
C258 H284 0.980 . S
C258 H285 0.983 . S
C259 C260 1.391 . S
C259 C264 1.391 . S
C259 H289 0.948 . S
C260 C259 1.391 . S
C260 C261 1.391 . S
C261 C260 1.391 . S
C261 C262 1.392 . S
C261 H290 0.947 . S
C262 C261 1.392 . S
C262 C263 1.419 . S
C262 H291 0.948 . S
C263 C262 1.419 . S
C263 C264 1.391 . S
C263 C267 1.397 . S
C264 C259 1.391 . S
C264 C263 1.391 . S
C264 C265 1.399 . S
C265 C264 1.399 . S
C265 C266 1.396 . S
C265 C268 1.453 . S
C265 C269 1.684 . S
C266 C247 1.723 . S
C266 C265 1.396 . S
C266 C267 1.394 . S
C267 C263 1.397 . S
C267 C266 1.394 . S
C267 C277 1.723 . S
C268 C265 1.453 . S
C268 H292 0.982 . S
C268 H293 0.979 . S
C268 H294 0.977 . S
C269 C265 1.684 . S
C269 H295 0.979 . S
C269 H296 0.980 . S
C269 H297 0.983 . S
C270 H246 0.948 1_565 S
C270 C271 1.391 . S
C270 C275 1.391 . S
C271 C270 1.391 . S
C271 C272 1.391 . S
C272 H249 0.947 . S
C272 C271 1.391 . S
C272 C273 1.392 . S
C273 H250 0.948 . S
C273 C272 1.392 . S
C273 C274 1.419 . S
C274 C273 1.419 . S
C274 C275 1.391 . S
C274 C278 1.397 . S
C275 C270 1.391 . S
C275 C274 1.391 . S
C275 C276 1.399 . S
C276 C275 1.399 . S
C276 C277 1.396 . S
C276 C279 1.453 . S
C276 C280 1.684 . S
C277 C267 1.723 . S
C277 C276 1.396 . S
C277 C278 1.394 . S
C278 C248 1.723 . S
C278 C274 1.397 . S
C278 C277 1.394 . S
C279 H251 0.982 . S
C279 H255 0.979 . S
C279 H256 0.977 . S
C279 C276 1.453 . S
C280 H252 0.979 . S
C280 H253 0.980 . S
C280 H254 0.983 . S
C280 C276 1.684 . S
H281 C299 0.948 . S
H282 C240 0.948 . S
H283 C258 0.979 . S
H284 C258 0.980 . S
H285 C258 0.983 . S
H286 C257 0.982 . S
H287 C257 0.979 . S
H288 C257 0.977 . S
H289 C259 0.948 . S
H290 C261 0.947 . S
H291 C262 0.948 . S
H292 C268 0.982 . S
H293 C268 0.979 . S
H294 C268 0.977 . S
H295 C269 0.979 . S
H296 C269 0.980 . S
H297 C269 0.983 . S
H298 C242 0.947 . S
C299 C242 1.392 . S
C299 C243 1.419 . S
C299 H281 0.948 . S
C300 C301 1.391 1_455 S
C300 C304 1.391 . S
C300 H342 0.948 . S
C301 C300 1.391 1_655 S
C301 C302 1.391 . S
C302 C301 1.391 . S
C302 H358 0.947 . S
C302 C359 1.392 1_655 S
C303 C304 1.391 . S
C303 C307 1.397 . S
C303 C359 1.419 . S
C304 C300 1.391 . S
C304 C303 1.391 . S
C304 C305 1.399 . S
C305 C304 1.399 . S
C305 C308 1.396 . S
C305 C317 1.453 . S
C305 C318 1.684 . S
H306 C330 0.951 . S
C307 C303 1.397 . S
C307 C308 1.394 . S
C307 C326 1.723 . S
C308 C305 1.396 . S
C308 C307 1.394 . S
C308 C338 1.723 . S
H309 C332 0.947 . S
H310 C333 0.948 . S
H311 C339 0.982 . S
H312 C340 0.979 . S
H313 C340 0.980 . S
H314 C340 0.976 1_545 S
H315 C339 0.979 . S
H316 C339 0.977 . S
C317 C305 1.453 . S
C317 H346 0.982 . S
C317 H347 0.979 . S
C317 H348 0.977 . S
C318 C305 1.684 . S
C318 H343 0.979 . S
C318 H344 0.980 . S
C318 H345 0.983 . S
C319 C320 1.391 . S
C319 C324 1.391 . S
C319 H349 0.948 . S
C320 C319 1.391 . S
C320 C321 1.391 . S
C321 C320 1.391 . S
C321 C322 1.392 . S
C321 H350 0.947 . S
C322 C321 1.392 . S
C322 C323 1.419 . S
C322 H351 0.948 . S
C323 C322 1.419 . S
C323 C324 1.391 . S
C323 C327 1.397 . S
C324 C319 1.391 . S
C324 C323 1.391 . S
C324 C325 1.399 . S
C325 C324 1.399 . S
C325 C326 1.396 . S
C325 C328 1.453 . S
C325 C329 1.684 . S
C326 C307 1.723 . S
C326 C325 1.396 . S
C326 C327 1.394 . S
C327 C323 1.397 . S
C327 C326 1.394 . S
C327 C337 1.723 . S
C328 C325 1.453 . S
C328 H352 0.982 . S
C328 H353 0.979 . S
C328 H354 0.977 . S
C329 C325 1.684 . S
C329 H355 0.979 . S
C329 H356 0.980 . S
C329 H357 0.983 . S
C330 H306 0.951 . S
C330 C331 1.393 . S
C330 C335 1.386 1_545 S
C331 C330 1.393 . S
C331 C332 1.391 1_545 S
C332 H309 0.947 . S
C332 C331 1.391 1_565 S
C332 C333 1.392 . S
C333 H310 0.948 . S
C333 C332 1.392 . S
C333 C334 1.419 . S
C334 C333 1.419 . S
C334 C335 1.391 . S
C334 C338 1.397 . S
C335 C330 1.386 1_565 S
C335 C334 1.391 . S
C335 C336 1.399 . S
C336 C335 1.399 . S
C336 C337 1.396 . S
C336 C339 1.453 . S
C336 C340 1.684 . S
C337 C327 1.723 . S
C337 C336 1.396 . S
C337 C338 1.394 . S
C338 C308 1.723 . S
C338 C334 1.397 . S
C338 C337 1.394 . S
C339 H311 0.982 . S
C339 H315 0.979 . S
C339 H316 0.977 . S
C339 C336 1.453 . S
C340 H312 0.979 . S
C340 H313 0.980 . S
C340 H314 0.976 1_565 S
C340 C336 1.684 . S
H341 C359 0.948 . S
H342 C300 0.948 . S
H343 C318 0.979 . S
H344 C318 0.980 . S
H345 C318 0.983 . S
H346 C317 0.982 . S
H347 C317 0.979 . S
H348 C317 0.977 . S
H349 C319 0.948 . S
H350 C321 0.947 . S
H351 C322 0.948 . S
H352 C328 0.982 . S
H353 C328 0.979 . S
H354 C328 0.977 . S
H355 C329 0.979 . S
H356 C329 0.980 . S
H357 C329 0.983 . S
H358 C302 0.947 . S
C359 C302 1.392 1_455 S
C359 C303 1.419 . S
C359 H341 0.948 . S
C360 C361 1.391 . S
C360 C364 1.391 . S
C360 H402 0.948 . S
C361 C360 1.391 . S
C361 C362 1.391 . S
C362 C361 1.391 . S
C362 H418 0.947 . S
C362 C419 1.392 . S
C363 C364 1.391 . S
C363 C367 1.397 . S
C363 C419 1.419 . S
C364 C360 1.391 . S
C364 C363 1.391 . S
C364 C365 1.399 . S
C365 C364 1.399 . S
C365 C368 1.396 . S
C365 C377 1.453 . S
C365 C378 1.684 . S
H366 C390 0.948 . S
C367 C363 1.397 . S
C367 C368 1.394 . S
C367 C386 1.723 . S
C368 C365 1.396 . S
C368 C367 1.394 . S
C368 C398 1.723 . S
H369 C392 0.947 . S
H370 C393 0.948 . S
H371 C399 0.987 . S
H372 C400 0.979 . S
H373 C400 0.980 . S
H374 C400 0.983 . S
H375 C399 0.983 1_655 S
H376 C399 0.976 . S
C377 C365 1.453 . S
C377 H406 0.982 . S
C377 H407 0.979 . S
C377 H408 0.977 . S
C378 C365 1.684 . S
C378 H403 0.979 . S
C378 H404 0.980 . S
C378 H405 0.983 . S
C379 C380 1.391 1_655 S
C379 C384 1.391 . S
C379 H409 0.948 1_655 S
C380 C379 1.391 1_455 S
C380 C381 1.401 1_455 S
C381 C380 1.401 1_655 S
C381 C382 1.395 . S
C381 H410 0.934 1_655 S
C382 C381 1.395 . S
C382 C383 1.419 . S
C382 H411 0.948 . S
C383 C382 1.419 . S
C383 C384 1.391 . S
C383 C387 1.397 . S
C384 C379 1.391 . S
C384 C383 1.391 . S
C384 C385 1.399 . S
C385 C384 1.399 . S
C385 C386 1.396 . S
C385 C388 1.453 1_655 S
C385 C389 1.684 . S
C386 C367 1.723 . S
C386 C385 1.396 . S
C386 C387 1.394 . S
C387 C383 1.397 . S
C387 C386 1.394 . S
C387 C397 1.723 . S
C388 C385 1.453 1_455 S
C388 H412 0.982 . S
C388 H413 0.979 . S
C388 H414 0.977 . S
C389 C385 1.684 . S
C389 H415 0.979 . S
C389 H416 0.980 . S
C389 H417 0.983 . S
C390 H366 0.948 . S
C390 C391 1.391 . S
C390 C395 1.391 . S
C391 C390 1.391 . S
C391 C392 1.391 . S
C392 H369 0.947 . S
C392 C391 1.391 . S
C392 C393 1.392 . S
C393 H370 0.948 . S
C393 C392 1.392 . S
C393 C394 1.419 . S
C394 C393 1.419 . S
C394 C395 1.391 . S
C394 C398 1.397 . S
C395 C390 1.391 . S
C395 C394 1.391 . S
C395 C396 1.399 . S
C396 C395 1.399 . S
C396 C397 1.396 . S
C396 C399 1.446 1_655 S
C396 C400 1.684 . S
C397 C387 1.723 . S
C397 C396 1.396 . S
C397 C398 1.394 . S
C398 C368 1.723 . S
C398 C394 1.397 . S
C398 C397 1.394 . S
C399 H371 0.987 . S
C399 H375 0.983 1_455 S
C399 H376 0.976 . S
C399 C396 1.446 1_455 S
C400 H372 0.979 . S
C400 H373 0.980 . S
C400 H374 0.983 . S
C400 C396 1.684 . S
H401 C419 0.948 . S
H402 C360 0.948 . S
H403 C378 0.979 . S
H404 C378 0.980 . S
H405 C378 0.983 . S
H406 C377 0.982 . S
H407 C377 0.979 . S
H408 C377 0.977 . S
H409 C379 0.948 1_455 S
H410 C381 0.934 1_455 S
H411 C382 0.948 . S
H412 C388 0.982 . S
H413 C388 0.979 . S
H414 C388 0.977 . S
H415 C389 0.979 . S
H416 C389 0.980 . S
H417 C389 0.983 . S
H418 C362 0.947 . S
C419 C362 1.392 . S
C419 C363 1.419 . S
C419 H401 0.948 . S
C420 C421 1.391 . S
C420 C424 1.391 . S
C420 H462 0.948 . S
C421 C420 1.391 . S
C421 C422 1.391 . S
C422 C421 1.391 . S
C422 H478 0.947 . S
C422 C479 1.392 . S
C423 C424 1.391 . S
C423 C427 1.397 . S
C423 C479 1.419 . S
C424 C420 1.391 . S
C424 C423 1.391 . S
C424 C425 1.399 . S
C425 C424 1.399 . S
C425 C428 1.396 . S
C425 C437 1.453 . S
C425 C438 1.684 . S
H426 C450 0.948 . S
C427 C423 1.397 . S
C427 C428 1.394 . S
C427 C446 1.723 . S
C428 C425 1.396 . S
C428 C427 1.394 . S
C428 C458 1.723 . S
H429 C452 0.947 . S
H430 C453 0.948 . S
H431 C459 0.982 . S
H432 C460 0.979 . S
H433 C460 0.980 . S
H434 C460 0.983 . S
H435 C459 0.979 . S
H436 C459 0.977 . S
C437 C425 1.453 . S
C437 H466 0.982 . S
C437 H467 0.979 . S
C437 H468 0.977 . S
C438 C425 1.684 . S
C438 H463 0.979 . S
C438 H464 0.980 . S
C438 H465 0.983 . S
C439 C440 1.391 . S
C439 C444 1.391 . S
C439 H469 0.948 . S
C440 C439 1.391 . S
C440 C441 1.391 . S
C441 C440 1.391 . S
C441 C442 1.392 . S
C441 H470 0.947 . S
C442 C441 1.392 . S
C442 C443 1.419 . S
C442 H471 0.948 . S
C443 C442 1.419 . S
C443 C444 1.391 . S
C443 C447 1.397 . S
C444 C439 1.391 . S
C444 C443 1.391 . S
C444 C445 1.399 . S
C445 C444 1.399 . S
C445 C446 1.396 . S
C445 C448 1.453 . S
C445 C449 1.684 . S
C446 C427 1.723 . S
C446 C445 1.396 . S
C446 C447 1.394 . S
C447 C443 1.397 . S
C447 C446 1.394 . S
C447 C457 1.723 . S
C448 C445 1.453 . S
C448 H472 0.982 . S
C448 H473 0.979 . S
C448 H474 0.977 . S
C449 C445 1.684 . S
C449 H475 0.979 . S
C449 H476 0.980 . S
C449 H477 0.983 . S
C450 H426 0.948 . S
C450 C451 1.391 . S
C450 C455 1.391 . S
C451 C450 1.391 . S
C451 C452 1.391 . S
C452 H429 0.947 . S
C452 C451 1.391 . S
C452 C453 1.392 . S
C453 H430 0.948 . S
C453 C452 1.392 . S
C453 C454 1.419 . S
C454 C453 1.419 . S
C454 C455 1.391 . S
C454 C458 1.397 . S
C455 C450 1.391 . S
C455 C454 1.391 . S
C455 C456 1.399 . S
C456 C455 1.399 . S
C456 C457 1.396 . S
C456 C459 1.453 . S
C456 C460 1.684 . S
C457 C447 1.723 . S
C457 C456 1.396 . S
C457 C458 1.394 . S
C458 C428 1.723 . S
C458 C454 1.397 . S
C458 C457 1.394 . S
C459 H431 0.982 . S
C459 H435 0.979 . S
C459 H436 0.977 . S
C459 C456 1.453 . S
C460 H432 0.979 . S
C460 H433 0.980 . S
C460 H434 0.983 . S
C460 C456 1.684 . S
H461 C479 0.948 . S
H462 C420 0.948 . S
H463 C438 0.979 . S
H464 C438 0.980 . S
H465 C438 0.983 . S
H466 C437 0.982 . S
H467 C437 0.979 . S
H468 C437 0.977 . S
H469 C439 0.948 . S
H470 C441 0.947 . S
H471 C442 0.948 . S
H472 C448 0.982 . S
H473 C448 0.979 . S
H474 C448 0.977 . S
H475 C449 0.979 . S
H476 C449 0.980 . S
H477 C449 0.983 . S
H478 C422 0.947 . S
C479 C422 1.392 . S
C479 C423 1.419 . S
C479 H461 0.948 . S
C480 C481 1.391 . S
C480 C484 1.391 . S
C480 H522 0.948 . S
C481 C480 1.391 . S
C481 C482 1.391 . S
C482 C481 1.391 . S
C482 H538 0.947 . S
C482 C539 1.392 . S
C483 C484 1.391 . S
C483 C487 1.397 . S
C483 C539 1.419 . S
C484 C480 1.391 . S
C484 C483 1.391 . S
C484 C485 1.399 . S
C485 C484 1.399 . S
C485 C488 1.396 . S
C485 C497 1.453 . S
C485 C498 1.684 . S
H486 C510 0.948 . S
C487 C483 1.397 . S
C487 C488 1.394 . S
C487 C506 1.723 . S
C488 C485 1.396 . S
C488 C487 1.394 . S
C488 C518 1.723 . S
H489 C512 0.947 . S
H490 C513 0.948 . S
H491 C519 0.982 . S
H492 C520 0.979 . S
H493 C520 0.980 . S
H494 C520 0.983 . S
H495 C519 0.979 . S
H496 C519 0.977 . S
C497 C485 1.453 . S
C497 H526 0.982 . S
C497 H527 0.979 . S
C497 H528 0.977 . S
C498 C485 1.684 . S
C498 H523 0.979 . S
C498 H524 0.980 . S
C498 H525 0.983 . S
C499 C500 1.391 . S
C499 C504 1.391 . S
C499 H529 0.948 . S
C500 C499 1.391 . S
C500 C501 1.391 . S
C501 C500 1.391 . S
C501 C502 1.392 . S
C501 H530 0.947 . S
C502 C501 1.392 . S
C502 C503 1.419 . S
C502 H531 0.948 . S
C503 C502 1.419 . S
C503 C504 1.391 . S
C503 C507 1.397 . S
C504 C499 1.391 . S
C504 C503 1.391 . S
C504 C505 1.399 . S
C505 C504 1.399 . S
C505 C506 1.396 . S
C505 C508 1.453 . S
C505 C509 1.684 . S
C506 C487 1.723 . S
C506 C505 1.396 . S
C506 C507 1.394 . S
C507 C503 1.397 . S
C507 C506 1.394 . S
C507 C517 1.723 . S
C508 C505 1.453 . S
C508 H532 0.982 1_545 S
C508 H533 0.979 . S
C508 H534 0.977 . S
C509 C505 1.684 . S
C509 H535 0.979 . S
C509 H536 0.980 . S
C509 H537 0.983 . S
C510 H486 0.948 . S
C510 C511 1.391 . S
C510 C515 1.391 . S
C511 C510 1.391 . S
C511 C512 1.391 . S
C512 H489 0.947 . S
C512 C511 1.391 . S
C512 C513 1.392 . S
C513 H490 0.948 . S
C513 C512 1.392 . S
C513 C514 1.419 . S
C514 C513 1.419 . S
C514 C515 1.391 . S
C514 C518 1.397 . S
C515 C510 1.391 . S
C515 C514 1.391 . S
C515 C516 1.399 . S
C516 C515 1.399 . S
C516 C517 1.396 . S
C516 C519 1.453 . S
C516 C520 1.684 . S
C517 C507 1.723 . S
C517 C516 1.396 . S
C517 C518 1.394 . S
C518 C488 1.723 . S
C518 C514 1.397 . S
C518 C517 1.394 . S
C519 H491 0.982 . S
C519 H495 0.979 . S
C519 H496 0.977 . S
C519 C516 1.453 . S
C520 H492 0.979 . S
C520 H493 0.980 . S
C520 H494 0.983 . S
C520 C516 1.684 . S
H521 C539 0.948 . S
H522 C480 0.948 . S
H523 C498 0.979 . S
H524 C498 0.980 . S
H525 C498 0.983 . S
H526 C497 0.982 . S
H527 C497 0.979 . S
H528 C497 0.977 . S
H529 C499 0.948 . S
H530 C501 0.947 . S
H531 C502 0.948 . S
H532 C508 0.982 1_565 S
H533 C508 0.979 . S
H534 C508 0.977 . S
H535 C509 0.979 . S
H536 C509 0.980 . S
H537 C509 0.983 . S
H538 C482 0.947 . S
C539 C482 1.392 . S
C539 C483 1.419 . S
C539 H521 0.948 . S
C540 C541 1.391 . S
C540 C544 1.391 . S
C540 H582 0.948 . S
C541 C540 1.391 . S
C541 C542 1.391 . S
C542 C541 1.391 . S
C542 H598 0.947 . S
C542 C599 1.392 . S
C543 C544 1.391 . S
C543 C547 1.397 . S
C543 C599 1.419 . S
C544 C540 1.391 . S
C544 C543 1.391 . S
C544 C545 1.399 . S
C545 C544 1.399 . S
C545 C548 1.396 . S
C545 C557 1.453 . S
C545 C558 1.684 . S
H546 C570 0.948 . S
C547 C543 1.397 . S
C547 C548 1.394 . S
C547 C566 1.723 . S
C548 C545 1.396 . S
C548 C547 1.394 . S
C548 C578 1.723 . S
H549 C572 0.947 1_554 S
H550 C573 0.948 . S
H551 C579 0.982 . S
H552 C580 0.979 . S
H553 C580 0.980 . S
H554 C580 0.983 . S
H555 C579 0.979 . S
H556 C579 0.977 . S
C557 C545 1.453 . S
C557 H586 0.982 . S
C557 H587 0.979 1_556 S
C557 H588 0.977 . S
C558 C545 1.684 . S
C558 H583 0.979 . S
C558 H584 0.980 . S
C558 H585 0.983 1_556 S
C559 C560 1.391 . S
C559 C564 1.391 . S
C559 H589 0.948 . S
C560 C559 1.391 . S
C560 C561 1.391 . S
C561 C560 1.391 . S
C561 C562 1.392 . S
C561 H590 0.947 . S
C562 C561 1.392 . S
C562 C563 1.419 . S
C562 H591 0.948 . S
C563 C562 1.419 . S
C563 C564 1.391 . S
C563 C567 1.397 . S
C564 C559 1.391 . S
C564 C563 1.391 . S
C564 C565 1.399 . S
C565 C564 1.399 . S
C565 C566 1.396 . S
C565 C568 1.453 . S
C565 C569 1.684 . S
C566 C547 1.723 . S
C566 C565 1.396 . S
C566 C567 1.394 . S
C567 C563 1.397 . S
C567 C566 1.394 . S
C567 C577 1.723 . S
C568 C565 1.453 . S
C568 H592 0.982 . S
C568 H593 0.979 . S
C568 H594 0.977 . S
C569 C565 1.684 . S
C569 H595 0.979 . S
C569 H596 0.980 . S
C569 H597 0.983 . S
C570 H546 0.948 . S
C570 C571 1.391 . S
C570 C575 1.391 . S
C571 C570 1.391 . S
C571 C572 1.391 . S
C572 H549 0.947 1_556 S
C572 C571 1.391 . S
C572 C573 1.392 . S
C573 H550 0.948 . S
C573 C572 1.392 . S
C573 C574 1.419 . S
C574 C573 1.419 . S
C574 C575 1.391 . S
C574 C578 1.397 . S
C575 C570 1.391 . S
C575 C574 1.391 . S
C575 C576 1.399 . S
C576 C575 1.399 . S
C576 C577 1.396 . S
C576 C579 1.453 . S
C576 C580 1.684 . S
C577 C567 1.723 . S
C577 C576 1.396 . S
C577 C578 1.394 . S
C578 C548 1.723 . S
C578 C574 1.397 . S
C578 C577 1.394 . S
C579 H551 0.982 . S
C579 H555 0.979 . S
C579 H556 0.977 . S
C579 C576 1.453 . S
C580 H552 0.979 . S
C580 H553 0.980 . S
C580 H554 0.983 . S
C580 C576 1.684 . S
H581 C599 0.948 . S
H582 C540 0.948 . S
H583 C558 0.979 . S
H584 C558 0.980 . S
H585 C558 0.983 1_554 S
H586 C557 0.982 . S
H587 C557 0.979 1_554 S
H588 C557 0.977 . S
H589 C559 0.948 . S
H590 C561 0.947 . S
H591 C562 0.948 . S
H592 C568 0.982 . S
H593 C568 0.979 . S
H594 C568 0.977 . S
H595 C569 0.979 . S
H596 C569 0.980 . S
H597 C569 0.983 . S
H598 C542 0.947 . S
C599 C542 1.392 . S
C599 C543 1.419 . S
C599 H581 0.948 . S
C600 C601 1.406 . S
C600 C604 1.412 . S
C600 H642 0.913 1_556 S
C601 C600 1.406 . S
C601 C602 1.391 . S
C602 C601 1.391 . S
C602 H658 0.947 1_545 S
C602 C659 1.392 . S
C603 C604 1.391 . S
C603 C607 1.397 . S
C603 C659 1.419 . S
C604 C600 1.412 . S
C604 C603 1.391 . S
C604 C605 1.399 . S
C605 C604 1.399 . S
C605 C608 1.396 . S
C605 C617 1.453 1_556 S
C605 C618 1.684 1_556 S
H606 C630 0.948 . S
C607 C603 1.397 . S
C607 C608 1.394 . S
C607 C626 1.723 . S
C608 C605 1.396 . S
C608 C607 1.394 . S
C608 C638 1.723 . S
H609 C632 0.947 . S
H610 C633 0.948 . S
H611 C639 0.982 . S
H612 C640 0.979 . S
H613 C640 0.980 . S
H614 C640 0.983 . S
H615 C639 0.979 . S
H616 C639 0.977 . S
C617 C605 1.453 1_554 S
C617 H646 0.982 1_554 S
C617 H647 0.979 . S
C617 H648 0.977 . S
C618 C605 1.684 1_554 S
C618 H643 0.979 . S
C618 H644 0.980 . S
C618 H645 0.983 . S
C619 C620 1.391 . S
C619 C624 1.391 . S
C619 H649 0.948 . S
C620 C619 1.391 . S
C620 C621 1.391 . S
C621 C620 1.391 . S
C621 C622 1.392 . S
C621 H650 0.947 . S
C622 C621 1.392 . S
C622 C623 1.419 . S
C622 H651 0.948 . S
C623 C622 1.419 . S
C623 C624 1.391 . S
C623 C627 1.397 . S
C624 C619 1.391 . S
C624 C623 1.391 . S
C624 C625 1.399 . S
C625 C624 1.399 . S
C625 C626 1.396 . S
C625 C628 1.453 . S
C625 C629 1.684 . S
C626 C607 1.723 . S
C626 C625 1.396 . S
C626 C627 1.394 . S
C627 C623 1.397 . S
C627 C626 1.394 . S
C627 C637 1.723 . S
C628 C625 1.453 . S
C628 H652 0.982 . S
C628 H653 0.979 . S
C628 H654 0.977 . S
C629 C625 1.684 . S
C629 H655 0.979 . S
C629 H656 0.980 . S
C629 H657 0.983 . S
C630 H606 0.948 . S
C630 C631 1.391 1_556 S
C630 C635 1.391 . S
C631 C630 1.391 1_554 S
C631 C632 1.391 . S
C632 H609 0.947 . S
C632 C631 1.391 . S
C632 C633 1.392 . S
C633 H610 0.948 . S
C633 C632 1.392 . S
C633 C634 1.419 1_554 S
C634 C633 1.419 1_556 S
C634 C635 1.391 . S
C634 C638 1.397 . S
C635 C630 1.391 . S
C635 C634 1.391 . S
C635 C636 1.399 . S
C636 C635 1.399 . S
C636 C637 1.396 . S
C636 C639 1.453 . S
C636 C640 1.684 . S
C637 C627 1.723 . S
C637 C636 1.396 . S
C637 C638 1.394 . S
C638 C608 1.723 . S
C638 C634 1.397 . S
C638 C637 1.394 . S
C639 H611 0.982 . S
C639 H615 0.979 . S
C639 H616 0.977 . S
C639 C636 1.453 . S
C640 H612 0.979 . S
C640 H613 0.980 . S
C640 H614 0.983 . S
C640 C636 1.684 . S
H641 C659 0.948 . S
H642 C600 0.913 1_554 S
H643 C618 0.979 . S
H644 C618 0.980 . S
H645 C618 0.983 . S
H646 C617 0.982 1_556 S
H647 C617 0.979 . S
H648 C617 0.977 . S
H649 C619 0.948 . S
H650 C621 0.947 . S
H651 C622 0.948 . S
H652 C628 0.982 . S
H653 C628 0.979 . S
H654 C628 0.977 . S
H655 C629 0.979 . S
H656 C629 0.980 . S
H657 C629 0.983 . S
H658 C602 0.947 1_565 S
C659 C602 1.392 . S
C659 C603 1.419 . S
C659 H641 0.948 . S
C660 C661 1.391 . S
C660 C664 1.391 . S
C660 H702 0.948 1_556 S
C661 C660 1.391 . S
C661 C662 1.391 . S
C662 C661 1.391 . S
C662 H718 0.947 . S
C662 C719 1.392 . S
C663 C664 1.391 . S
C663 C667 1.397 . S
C663 C719 1.419 . S
C664 C660 1.391 . S
C664 C663 1.391 . S
C664 C665 1.399 . S
C665 C664 1.399 . S
C665 C668 1.396 . S
C665 C677 1.453 1_556 S
C665 C678 1.680 1_556 S
H666 C690 0.948 . S
C667 C663 1.397 . S
C667 C668 1.394 . S
C667 C686 1.723 . S
C668 C665 1.396 . S
C668 C667 1.394 . S
C668 C698 1.723 . S
H669 C692 0.947 . S
H670 C693 0.948 1_554 S
H671 C699 0.982 . S
H672 C700 0.979 . S
H673 C700 0.980 . S
H674 C700 0.983 . S
H675 C699 0.979 . S
H676 C699 0.977 . S
C677 C665 1.453 1_554 S
C677 H706 0.982 1_554 S
C677 H707 0.979 . S
C677 H708 0.977 . S
C678 C665 1.680 1_554 S
C678 H703 0.975 1_554 S
C678 H704 0.981 . S
C678 H705 0.989 . S
C679 C680 1.391 . S
C679 C684 1.391 . S
C679 H709 0.948 . S
C680 C679 1.391 . S
C680 C681 1.391 . S
C681 C680 1.391 . S
C681 C682 1.392 . S
C681 H710 0.947 . S
C682 C681 1.392 . S
C682 C683 1.419 . S
C682 H711 0.948 . S
C683 C682 1.419 . S
C683 C684 1.391 . S
C683 C687 1.397 . S
C684 C679 1.391 . S
C684 C683 1.391 . S
C684 C685 1.399 . S
C685 C684 1.399 . S
C685 C686 1.396 . S
C685 C688 1.453 . S
C685 C689 1.684 . S
C686 C667 1.723 . S
C686 C685 1.396 . S
C686 C687 1.394 . S
C687 C683 1.397 . S
C687 C686 1.394 . S
C687 C697 1.723 . S
C688 C685 1.453 . S
C688 H712 0.982 . S
C688 H713 0.979 . S
C688 H714 0.977 . S
C689 C685 1.684 . S
C689 H715 0.979 . S
C689 H716 0.980 . S
C689 H717 0.983 . S
C690 H666 0.948 . S
C690 C691 1.391 . S
C690 C695 1.391 . S
C691 C690 1.391 . S
C691 C692 1.391 1_556 S
C692 H669 0.947 . S
C692 C691 1.391 1_554 S
C692 C693 1.392 1_554 S
C693 H670 0.948 1_556 S
C693 C692 1.392 1_556 S
C693 C694 1.419 . S
C694 C693 1.419 . S
C694 C695 1.391 . S
C694 C698 1.397 . S
C695 C690 1.391 . S
C695 C694 1.391 . S
C695 C696 1.399 . S
C696 C695 1.399 . S
C696 C697 1.396 . S
C696 C699 1.453 . S
C696 C700 1.684 . S
C697 C687 1.723 . S
C697 C696 1.396 . S
C697 C698 1.394 . S
C698 C668 1.723 . S
C698 C694 1.397 . S
C698 C697 1.394 . S
C699 H671 0.982 . S
C699 H675 0.979 . S
C699 H676 0.977 . S
C699 C696 1.453 . S
C700 H672 0.979 . S
C700 H673 0.980 . S
C700 H674 0.983 . S
C700 C696 1.684 . S
H701 C719 0.948 . S
H702 C660 0.948 1_554 S
H703 C678 0.975 1_556 S
H704 C678 0.981 . S
H705 C678 0.989 . S
H706 C677 0.982 1_556 S
H707 C677 0.979 . S
H708 C677 0.977 . S
H709 C679 0.948 . S
H710 C681 0.947 . S
H711 C682 0.948 . S
H712 C688 0.982 . S
H713 C688 0.979 . S
H714 C688 0.977 . S
H715 C689 0.979 . S
H716 C689 0.980 . S
H717 C689 0.983 . S
H718 C662 0.947 . S
C719 C662 1.392 . S
C719 C663 1.419 . S
C719 H701 0.948 . S
C720 C721 1.391 . S
C720 C724 1.391 . S
C720 H762 0.948 1_554 S
C721 C720 1.391 . S
C721 C722 1.391 . S
C722 C721 1.391 . S
C722 H778 0.947 1_565 S
C722 C779 1.392 . S
C723 C724 1.391 . S
C723 C727 1.397 . S
C723 C779 1.419 . S
C724 C720 1.391 . S
C724 C723 1.391 . S
C724 C725 1.399 . S
C725 C724 1.399 . S
C725 C728 1.396 . S
C725 C737 1.453 1_554 S
C725 C738 1.684 1_554 S
H726 C750 0.948 . S
C727 C723 1.397 . S
C727 C728 1.394 . S
C727 C746 1.723 . S
C728 C725 1.396 . S
C728 C727 1.394 . S
C728 C758 1.723 . S
H729 C752 0.947 . S
H730 C753 0.949 . S
H731 C759 0.982 . S
H732 C760 0.979 . S
H733 C760 0.980 . S
H734 C760 0.983 . S
H735 C759 0.979 . S
H736 C759 0.977 . S
C737 C725 1.453 1_556 S
C737 H766 0.982 . S
C737 H767 0.979 . S
C737 H768 0.977 . S
C738 C725 1.684 1_556 S
C738 H763 0.979 . S
C738 H764 0.980 . S
C738 H765 0.983 . S
C739 C740 1.391 . S
C739 C744 1.391 . S
C739 H769 0.948 . S
C740 C739 1.391 . S
C740 C741 1.391 . S
C741 C740 1.391 . S
C741 C742 1.392 . S
C741 H770 0.947 . S
C742 C741 1.392 . S
C742 C743 1.419 . S
C742 H771 0.948 . S
C743 C742 1.419 . S
C743 C744 1.391 . S
C743 C747 1.397 . S
C744 C739 1.391 . S
C744 C743 1.391 . S
C744 C745 1.399 . S
C745 C744 1.399 . S
C745 C746 1.396 . S
C745 C748 1.453 . S
C745 C749 1.684 . S
C746 C727 1.723 . S
C746 C745 1.396 . S
C746 C747 1.394 . S
C747 C743 1.397 . S
C747 C746 1.394 . S
C747 C757 1.723 . S
C748 C745 1.453 . S
C748 H772 0.982 . S
C748 H773 0.979 . S
C748 H774 0.977 . S
C749 C745 1.684 . S
C749 H775 0.979 . S
C749 H776 0.980 . S
C749 H777 0.983 . S
C750 H726 0.948 . S
C750 C751 1.391 . S
C750 C755 1.391 . S
C751 C750 1.391 . S
C751 C752 1.391 1_554 S
C752 H729 0.947 . S
C752 C751 1.391 1_556 S
C752 C753 1.392 . S
C753 H730 0.949 . S
C753 C752 1.392 . S
C753 C754 1.417 1_556 S
C754 C753 1.417 1_554 S
C754 C755 1.391 . S
C754 C758 1.397 . S
C755 C750 1.391 . S
C755 C754 1.391 . S
C755 C756 1.399 . S
C756 C755 1.399 . S
C756 C757 1.396 . S
C756 C759 1.453 . S
C756 C760 1.684 . S
C757 C747 1.723 . S
C757 C756 1.396 . S
C757 C758 1.394 . S
C758 C728 1.723 . S
C758 C754 1.397 . S
C758 C757 1.394 . S
C759 H731 0.982 . S
C759 H735 0.979 . S
C759 H736 0.977 . S
C759 C756 1.453 . S
C760 H732 0.979 . S
C760 H733 0.980 . S
C760 H734 0.983 . S
C760 C756 1.684 . S
H761 C779 0.948 . S
H762 C720 0.948 1_556 S
H763 C738 0.979 . S
H764 C738 0.980 . S
H765 C738 0.983 . S
H766 C737 0.982 . S
H767 C737 0.979 . S
H768 C737 0.977 . S
H769 C739 0.948 . S
H770 C741 0.947 . S
H771 C742 0.948 . S
H772 C748 0.982 . S
H773 C748 0.979 . S
H774 C748 0.977 . S
H775 C749 0.979 . S
H776 C749 0.980 . S
H777 C749 0.983 . S
H778 C722 0.947 1_545 S
C779 C722 1.392 . S
C779 C723 1.419 . S
C779 H761 0.948 . S
C780 C781 1.391 . S
C780 C784 1.391 . S
C780 H822 0.948 1_554 S
C781 C780 1.391 . S
C781 C782 1.391 . S
C782 C781 1.391 . S
C782 H838 0.947 . S
C782 C839 1.392 . S
C783 C784 1.391 . S
C783 C787 1.397 . S
C783 C839 1.419 . S
C784 C780 1.391 . S
C784 C783 1.391 . S
C784 C785 1.399 . S
C785 C784 1.399 . S
C785 C788 1.396 . S
C785 C797 1.453 . S
C785 C798 1.684 1_554 S
H786 C810 0.948 . S
C787 C783 1.397 . S
C787 C788 1.394 . S
C787 C806 1.723 . S
C788 C785 1.396 . S
C788 C787 1.394 . S
C788 C818 1.723 . S
H789 C812 0.947 . S
H790 C813 0.948 1_556 S
H791 C819 0.982 . S
H792 C820 0.979 . S
H793 C820 0.980 . S
H794 C820 0.983 . S
H795 C819 0.979 . S
H796 C819 0.977 . S
C797 C785 1.453 . S
C797 H826 0.982 . S
C797 H827 0.979 1_554 S
C797 H828 0.977 . S
C798 C785 1.684 1_556 S
C798 H823 0.979 . S
C798 H824 0.980 . S
C798 H825 0.983 . S
C799 C800 1.391 . S
C799 C804 1.391 . S
C799 H829 0.948 . S
C800 C799 1.391 . S
C800 C801 1.391 . S
C801 C800 1.391 . S
C801 C802 1.392 . S
C801 H830 0.947 . S
C802 C801 1.392 . S
C802 C803 1.419 . S
C802 H831 0.948 . S
C803 C802 1.419 . S
C803 C804 1.391 . S
C803 C807 1.397 . S
C804 C799 1.391 . S
C804 C803 1.391 . S
C804 C805 1.399 . S
C805 C804 1.399 . S
C805 C806 1.396 . S
C805 C808 1.453 . S
C805 C809 1.684 . S
C806 C787 1.723 . S
C806 C805 1.396 . S
C806 C807 1.394 . S
C807 C803 1.397 . S
C807 C806 1.394 . S
C807 C817 1.723 . S
C808 C805 1.453 . S
C808 H832 0.982 . S
C808 H833 0.979 . S
C808 H834 0.977 . S
C809 C805 1.684 . S
C809 H835 0.979 . S
C809 H836 0.980 . S
C809 H837 0.983 . S
C810 H786 0.948 . S
C810 C811 1.391 . S
C810 C815 1.391 . S
C811 C810 1.391 . S
C811 C812 1.391 1_554 S
C812 H789 0.947 . S
C812 C811 1.391 1_556 S
C812 C813 1.392 1_556 S
C813 H790 0.948 1_554 S
C813 C812 1.392 1_554 S
C813 C814 1.419 . S
C814 C813 1.419 . S
C814 C815 1.391 . S
C814 C818 1.397 . S
C815 C810 1.391 . S
C815 C814 1.391 . S
C815 C816 1.399 . S
C816 C815 1.399 . S
C816 C817 1.396 . S
C816 C819 1.453 . S
C816 C820 1.684 . S
C817 C807 1.723 . S
C817 C816 1.396 . S
C817 C818 1.394 . S
C818 C788 1.723 . S
C818 C814 1.397 . S
C818 C817 1.394 . S
C819 H791 0.982 . S
C819 H795 0.979 . S
C819 H796 0.977 . S
C819 C816 1.453 . S
C820 H792 0.979 . S
C820 H793 0.980 . S
C820 H794 0.983 . S
C820 C816 1.684 . S
H821 C839 0.948 . S
H822 C780 0.948 1_556 S
H823 C798 0.979 . S
H824 C798 0.980 . S
H825 C798 0.983 . S
H826 C797 0.982 . S
H827 C797 0.979 1_556 S
H828 C797 0.977 . S
H829 C799 0.948 . S
H830 C801 0.947 . S
H831 C802 0.948 . S
H832 C808 0.982 . S
H833 C808 0.979 . S
H834 C808 0.977 . S
H835 C809 0.979 . S
H836 C809 0.980 . S
H837 C809 0.983 . S
H838 C782 0.947 . S
C839 C782 1.392 . S
C839 C783 1.419 . S
C839 H821 0.948 . S
C840 C841 1.391 . S
C840 C844 1.391 . S
C840 H882 0.948 . S
C841 C840 1.391 . S
C841 C842 1.391 . S
C842 C841 1.391 . S
C842 H898 0.947 . S
C842 C899 1.392 . S
C843 C844 1.391 . S
C843 C847 1.397 . S
C843 C899 1.419 . S
C844 C840 1.391 . S
C844 C843 1.391 . S
C844 C845 1.399 . S
C845 C844 1.399 . S
C845 C848 1.396 . S
C845 C857 1.453 . S
C845 C858 1.684 . S
H846 C870 0.948 . S
C847 C843 1.397 . S
C847 C848 1.394 . S
C847 C866 1.723 . S
C848 C845 1.396 . S
C848 C847 1.394 . S
C848 C878 1.723 . S
H849 C872 0.947 1_556 S
H850 C873 0.948 . S
H851 C879 0.982 . S
H852 C880 0.979 . S
H853 C880 0.980 . S
H854 C880 0.983 . S
H855 C879 0.979 . S
H856 C879 0.977 . S
C857 C845 1.453 . S
C857 H886 0.982 . S
C857 H887 0.979 1_554 S
C857 H888 0.977 . S
C858 C845 1.684 . S
C858 H883 0.979 . S
C858 H884 0.980 . S
C858 H885 0.983 . S
C859 C860 1.391 . S
C859 C864 1.391 . S
C859 H889 0.948 . S
C860 C859 1.391 . S
C860 C861 1.391 . S
C861 C860 1.391 . S
C861 C862 1.392 . S
C861 H890 0.947 . S
C862 C861 1.392 . S
C862 C863 1.419 . S
C862 H891 0.948 . S
C863 C862 1.419 . S
C863 C864 1.391 . S
C863 C867 1.397 . S
C864 C859 1.391 . S
C864 C863 1.391 . S
C864 C865 1.399 . S
C865 C864 1.399 . S
C865 C866 1.396 . S
C865 C868 1.453 . S
C865 C869 1.684 . S
C866 C847 1.723 . S
C866 C865 1.396 . S
C866 C867 1.394 . S
C867 C863 1.397 . S
C867 C866 1.394 . S
C867 C877 1.723 . S
C868 C865 1.453 . S
C868 H892 0.982 . S
C868 H893 0.979 . S
C868 H894 0.977 . S
C869 C865 1.684 . S
C869 H895 0.979 . S
C869 H896 0.980 . S
C869 H897 0.983 . S
C870 H846 0.948 . S
C870 C871 1.391 . S
C870 C875 1.391 . S
C871 C870 1.391 . S
C871 C872 1.391 . S
C872 H849 0.947 1_554 S
C872 C871 1.391 . S
C872 C873 1.392 . S
C873 H850 0.948 . S
C873 C872 1.392 . S
C873 C874 1.419 . S
C874 C873 1.419 . S
C874 C875 1.391 . S
C874 C878 1.397 . S
C875 C870 1.391 . S
C875 C874 1.391 . S
C875 C876 1.399 . S
C876 C875 1.399 . S
C876 C877 1.396 . S
C876 C879 1.453 . S
C876 C880 1.684 . S
C877 C867 1.723 . S
C877 C876 1.396 . S
C877 C878 1.394 . S
C878 C848 1.723 . S
C878 C874 1.397 . S
C878 C877 1.394 . S
C879 H851 0.982 . S
C879 H855 0.979 . S
C879 H856 0.977 . S
C879 C876 1.453 . S
C880 H852 0.979 . S
C880 H853 0.980 . S
C880 H854 0.983 . S
C880 C876 1.684 . S
H881 C899 0.948 . S
H882 C840 0.948 . S
H883 C858 0.979 . S
H884 C858 0.980 . S
H885 C858 0.983 . S
H886 C857 0.982 . S
H887 C857 0.979 1_556 S
H888 C857 0.977 . S
H889 C859 0.948 . S
H890 C861 0.947 . S
H891 C862 0.948 . S
H892 C868 0.982 . S
H893 C868 0.979 . S
H894 C868 0.977 . S
H895 C869 0.979 . S
H896 C869 0.980 . S
H897 C869 0.983 . S
H898 C842 0.947 . S
C899 C842 1.392 . S
C899 C843 1.419 . S
C899 H881 0.948 . S
C900 C901 1.391 . S
C900 C904 1.391 . S
C900 H942 0.948 . S
C901 C900 1.391 . S
C901 C902 1.391 . S
C902 C901 1.391 . S
C902 H958 0.947 . S
C902 C959 1.392 . S
C903 C904 1.391 . S
C903 C907 1.397 . S
C903 C959 1.419 . S
C904 C900 1.391 . S
C904 C903 1.391 . S
C904 C905 1.399 . S
C905 C904 1.399 . S
C905 C908 1.396 . S
C905 C917 1.453 . S
C905 C918 1.684 . S
H906 C930 0.948 . S
C907 C903 1.397 . S
C907 C908 1.394 . S
C907 C926 1.723 . S
C908 C905 1.396 . S
C908 C907 1.394 . S
C908 C938 1.723 . S
H909 C932 0.947 . S
H910 C933 0.948 . S
H911 C939 0.992 . S
H912 C940 0.979 . S
H913 C940 0.980 . S
H914 C940 0.983 . S
H915 C939 0.979 . S
H916 C939 0.977 . S
C917 C905 1.453 . S
C917 H946 0.982 . S
C917 H947 0.979 . S
C917 H948 0.977 . S
C918 C905 1.684 . S
C918 H943 0.979 . S
C918 H944 0.980 . S
C918 H945 0.983 . S
C919 C920 1.391 . S
C919 C924 1.391 . S
C919 H949 0.948 . S
C920 C919 1.391 . S
C920 C921 1.391 . S
C921 C920 1.391 . S
C921 C922 1.392 . S
C921 H950 0.947 . S
C922 C921 1.392 . S
C922 C923 1.419 . S
C922 H951 0.948 . S
C923 C922 1.419 . S
C923 C924 1.391 . S
C923 C927 1.397 . S
C924 C919 1.391 . S
C924 C923 1.391 . S
C924 C925 1.399 . S
C925 C924 1.399 . S
C925 C926 1.396 . S
C925 C928 1.453 . S
C925 C929 1.684 . S
C926 C907 1.723 . S
C926 C925 1.396 . S
C926 C927 1.394 . S
C927 C923 1.397 . S
C927 C926 1.394 . S
C927 C937 1.723 . S
C928 C925 1.453 . S
C928 H952 0.982 1_565 S
C928 H953 0.979 . S
C928 H954 0.977 . S
C929 C925 1.684 . S
C929 H955 0.979 . S
C929 H956 0.980 . S
C929 H957 0.983 . S
C930 H906 0.948 . S
C930 C931 1.391 . S
C930 C935 1.391 . S
C931 C930 1.391 . S
C931 C932 1.391 . S
C932 H909 0.947 . S
C932 C931 1.391 . S
C932 C933 1.392 . S
C933 H910 0.948 . S
C933 C932 1.392 . S
C933 C934 1.419 . S
C934 C933 1.419 . S
C934 C935 1.391 . S
C934 C938 1.397 . S
C935 C930 1.391 . S
C935 C934 1.391 . S
C935 C936 1.399 . S
C936 C935 1.399 . S
C936 C937 1.396 . S
C936 C939 1.453 . S
C936 C940 1.684 . S
C937 C927 1.723 . S
C937 C936 1.396 . S
C937 C938 1.394 . S
C938 C908 1.723 . S
C938 C934 1.397 . S
C938 C937 1.394 . S
C939 H911 0.992 . S
C939 H915 0.979 . S
C939 H916 0.977 . S
C939 C936 1.453 . S
C940 H912 0.979 . S
C940 H913 0.980 . S
C940 H914 0.983 . S
C940 C936 1.684 . S
H941 C959 0.948 . S
H942 C900 0.948 . S
H943 C918 0.979 . S
H944 C918 0.980 . S
H945 C918 0.983 . S
H946 C917 0.982 . S
H947 C917 0.979 . S
H948 C917 0.977 . S
H949 C919 0.948 . S
H950 C921 0.947 . S
H951 C922 0.948 . S
H952 C928 0.982 1_545 S
H953 C928 0.979 . S
H954 C928 0.977 . S
H955 C929 0.979 . S
H956 C929 0.980 . S
H957 C929 0.983 . S
H958 C902 0.947 . S
C959 C902 1.392 . S
C959 C903 1.419 . S
C959 H941 0.948 . S
C960 C961 1.391 . S
C960 C964 1.391 . S
C960 H1002 0.948 . S
C961 C960 1.391 . S
C961 C962 1.391 . S
C962 C961 1.391 . S
C962 H1018 0.947 . S
C962 C1019 1.392 . S
C963 C964 1.391 . S
C963 C967 1.397 . S
C963 C1019 1.419 . S
C964 C960 1.391 . S
C964 C963 1.391 . S
C964 C965 1.399 . S
C965 C964 1.399 . S
C965 C968 1.396 . S
C965 C977 1.453 . S
C965 C978 1.684 . S
H966 C990 0.948 . S
C967 C963 1.397 . S
C967 C968 1.394 . S
C967 C986 1.723 . S
C968 C965 1.396 . S
C968 C967 1.394 . S
C968 C998 1.723 . S
H969 C992 0.947 . S
H970 C993 0.948 . S
H971 C999 0.982 . S
H972 C1000 0.979 . S
H973 C1000 0.980 . S
H974 C1000 0.983 . S
H975 C999 0.979 . S
H976 C999 0.977 . S
C977 C965 1.453 . S
C977 H1006 0.982 . S
C977 H1007 0.979 . S
C977 H1008 0.977 . S
C978 C965 1.684 . S
C978 H1003 0.982 . S
C978 H1004 0.980 . S
C978 H1005 0.983 . S
C979 C980 1.391 . S
C979 C984 1.391 1_655 S
C979 H1009 0.948 . S
C980 C979 1.391 . S
C980 C981 1.391 . S
C981 C980 1.391 . S
C981 C982 1.392 1_655 S
C981 H1010 0.947 . S
C982 C981 1.392 1_455 S
C982 C983 1.419 . S
C982 H1011 0.948 . S
C983 C982 1.419 . S
C983 C984 1.391 . S
C983 C987 1.397 . S
C984 C979 1.391 1_455 S
C984 C983 1.391 . S
C984 C985 1.399 . S
C985 C984 1.399 . S
C985 C986 1.396 . S
C985 C988 1.453 . S
C985 C989 1.684 1_455 S
C986 C967 1.723 . S
C986 C985 1.396 . S
C986 C987 1.394 . S
C987 C983 1.397 . S
C987 C986 1.394 . S
C987 C997 1.723 . S
C988 C985 1.453 . S
C988 H1012 0.982 . S
C988 H1013 0.979 . S
C988 H1014 0.977 . S
C989 C985 1.684 1_655 S
C989 H1015 0.979 . S
C989 H1016 0.980 . S
C989 H1017 0.983 . S
C990 H966 0.948 . S
C990 C991 1.391 . S
C990 C995 1.391 . S
C991 C990 1.391 . S
C991 C992 1.391 . S
C992 H969 0.947 . S
C992 C991 1.391 . S
C992 C993 1.392 . S
C993 H970 0.948 . S
C993 C992 1.392 . S
C993 C994 1.419 . S
C994 C993 1.419 . S
C994 C995 1.391 . S
C994 C998 1.397 . S
C995 C990 1.391 . S
C995 C994 1.391 . S
C995 C996 1.399 . S
C996 C995 1.399 . S
C996 C997 1.396 . S
C996 C999 1.453 . S
C996 C1000 1.684 1_455 S
C997 C987 1.723 . S
C997 C996 1.396 . S
C997 C998 1.394 . S
C998 C968 1.723 . S
C998 C994 1.397 . S
C998 C997 1.394 . S
C999 H971 0.982 . S
C999 H975 0.979 . S
C999 H976 0.977 . S
C999 C996 1.453 . S
C1000 H972 0.979 . S
C1000 H973 0.980 . S
C1000 H974 0.983 . S
C1000 C996 1.684 1_655 S
H1001 C1019 0.948 . S
H1002 C960 0.948 . S
H1003 C978 0.982 . S
H1004 C978 0.980 . S
H1005 C978 0.983 . S
H1006 C977 0.982 . S
H1007 C977 0.979 . S
H1008 C977 0.977 . S
H1009 C979 0.948 . S
H1010 C981 0.947 . S
H1011 C982 0.948 . S
H1012 C988 0.982 . S
H1013 C988 0.979 . S
H1014 C988 0.977 . S
H1015 C989 0.979 . S
H1016 C989 0.980 . S
H1017 C989 0.983 . S
H1018 C962 0.947 . S
C1019 C962 1.392 . S
C1019 C963 1.419 . S
C1019 H1001 0.948 . S
C1020 C1021 1.391 . S
C1020 C1024 1.391 . S
C1020 H1062 0.948 . S
C1021 C1020 1.391 . S
C1021 C1022 1.391 . S
C1022 C1021 1.391 . S
C1022 H1078 0.947 . S
C1022 C1079 1.392 . S
C1023 C1024 1.391 . S
C1023 C1027 1.397 . S
C1023 C1079 1.419 . S
C1024 C1020 1.391 . S
C1024 C1023 1.391 . S
C1024 C1025 1.399 . S
C1025 C1024 1.399 . S
C1025 C1028 1.396 . S
C1025 C1037 1.453 . S
C1025 C1038 1.684 . S
H1026 C1050 0.948 . S
C1027 C1023 1.397 . S
C1027 C1028 1.394 . S
C1027 C1046 1.723 . S
C1028 C1025 1.396 . S
C1028 C1027 1.394 . S
C1028 C1058 1.723 . S
H1029 C1052 0.947 . S
H1030 C1053 0.948 . S
H1031 C1059 0.982 . S
H1032 C1060 0.979 . S
H1033 C1060 0.980 . S
H1034 C1060 0.983 . S
H1035 C1059 0.979 . S
H1036 C1059 0.977 . S
C1037 C1025 1.453 . S
C1037 H1066 0.982 . S
C1037 H1067 0.979 . S
C1037 H1068 0.977 . S
C1038 C1025 1.684 . S
C1038 H1063 0.979 . S
C1038 H1064 0.980 . S
C1038 H1065 0.983 . S
C1039 C1040 1.391 . S
C1039 C1044 1.391 . S
C1039 H1069 0.948 . S
C1040 C1039 1.391 . S
C1040 C1041 1.391 . S
C1041 C1040 1.391 . S
C1041 C1042 1.392 . S
C1041 H1070 0.947 . S
C1042 C1041 1.392 . S
C1042 C1043 1.419 . S
C1042 H1071 0.948 . S
C1043 C1042 1.419 . S
C1043 C1044 1.391 . S
C1043 C1047 1.397 . S
C1044 C1039 1.391 . S
C1044 C1043 1.391 . S
C1044 C1045 1.399 . S
C1045 C1044 1.399 . S
C1045 C1046 1.396 . S
C1045 C1048 1.453 . S
C1045 C1049 1.684 . S
C1046 C1027 1.723 . S
C1046 C1045 1.396 . S
C1046 C1047 1.394 . S
C1047 C1043 1.397 . S
C1047 C1046 1.394 . S
C1047 C1057 1.723 . S
C1048 C1045 1.453 . S
C1048 H1072 0.982 . S
C1048 H1073 0.979 . S
C1048 H1074 0.977 . S
C1049 C1045 1.684 . S
C1049 H1075 0.979 . S
C1049 H1076 0.980 . S
C1049 H1077 0.983 . S
C1050 H1026 0.948 . S
C1050 C1051 1.391 . S
C1050 C1055 1.391 . S
C1051 C1050 1.391 . S
C1051 C1052 1.391 . S
C1052 H1029 0.947 . S
C1052 C1051 1.391 . S
C1052 C1053 1.392 . S
C1053 H1030 0.948 . S
C1053 C1052 1.392 . S
C1053 C1054 1.419 . S
C1054 C1053 1.419 . S
C1054 C1055 1.391 . S
C1054 C1058 1.397 . S
C1055 C1050 1.391 . S
C1055 C1054 1.391 . S
C1055 C1056 1.399 . S
C1056 C1055 1.399 . S
C1056 C1057 1.396 . S
C1056 C1059 1.453 . S
C1056 C1060 1.684 . S
C1057 C1047 1.723 . S
C1057 C1056 1.396 . S
C1057 C1058 1.394 . S
C1058 C1028 1.723 . S
C1058 C1054 1.397 . S
C1058 C1057 1.394 . S
C1059 H1031 0.982 . S
C1059 H1035 0.979 . S
C1059 H1036 0.977 . S
C1059 C1056 1.453 . S
C1060 H1032 0.979 . S
C1060 H1033 0.980 . S
C1060 H1034 0.983 . S
C1060 C1056 1.684 . S
H1061 C1079 0.948 . S
H1062 C1020 0.948 . S
H1063 C1038 0.979 . S
H1064 C1038 0.980 . S
H1065 C1038 0.983 . S
H1066 C1037 0.982 . S
H1067 C1037 0.979 . S
H1068 C1037 0.977 . S
H1069 C1039 0.948 . S
H1070 C1041 0.947 . S
H1071 C1042 0.948 . S
H1072 C1048 0.982 . S
H1073 C1048 0.979 . S
H1074 C1048 0.977 . S
H1075 C1049 0.979 . S
H1076 C1049 0.980 . S
H1077 C1049 0.983 . S
H1078 C1022 0.947 . S
C1079 C1022 1.392 . S
C1079 C1023 1.419 . S
C1079 H1061 0.948 . S
Tb1080 C1090 2.825 . S
Tb1080 O1091 2.347 1_565 S
Tb1080 O1094 2.366 1_565 S
Tb1080 O1099 2.418 . S
Tb1080 O1100 2.384 . S
Tb1080 O1103 2.479 . S
Tb1080 O1104 2.471 . S
Eu1081 O1092 2.418 . S
Eu1081 O1093 2.384 . S
Eu1081 O1096 2.479 . S
Eu1081 O1097 2.471 . S
Eu1081 O1098 2.347 1_545 S
Eu1081 O1101 2.366 1_545 S
Eu1081 C1111 2.825 . S
C1082 O1098 1.259 . S
C1082 O1099 1.265 1_554 S
C1083 O1100 1.255 1_554 S
C1083 O1101 1.265 . S
C1084 C1086 1.380 . S
C1084 C1087 1.374 1_565 S
C1084 C1090 1.507 . S
C1085 C1086 1.384 . S
C1085 C1089 1.399 . S
C1085 H1112 0.930 . S
C1086 C1084 1.380 . S
C1086 C1085 1.384 . S
C1086 H1113 0.931 . S
C1087 C1084 1.374 1_545 S
C1087 C1088 1.390 . S
C1087 H1114 0.930 . S
C1088 C1087 1.390 . S
C1088 C1089 1.380 1_545 S
C1088 H1115 0.930 . S
C1089 C1085 1.399 . S
C1089 C1088 1.380 1_565 S
C1090 Tb1080 2.825 . S
C1090 C1084 1.507 . S
C1090 O1103 1.238 . S
C1090 O1104 1.247 . S
O1091 Tb1080 2.347 1_545 S
O1091 C1095 1.259 . S
O1092 Eu1081 2.418 . S
O1092 C1095 1.265 1_554 S
O1093 Eu1081 2.384 . S
O1093 C1102 1.255 1_554 S
O1094 Tb1080 2.366 1_545 S
O1094 C1102 1.265 . S
C1095 O1091 1.259 . S
C1095 O1092 1.265 1_556 S
O1096 Eu1081 2.479 . S
O1096 C1111 1.238 . S
O1097 Eu1081 2.471 . S
O1097 C1111 1.247 . S
O1098 Eu1081 2.347 1_565 S
O1098 C1082 1.259 . S
O1099 Tb1080 2.418 . S
O1099 C1082 1.265 1_556 S
O1100 Tb1080 2.384 . S
O1100 C1083 1.255 1_556 S
O1101 Eu1081 2.366 1_565 S
O1101 C1083 1.265 . S
C1102 O1093 1.255 1_556 S
C1102 O1094 1.265 . S
O1103 Tb1080 2.479 . S
O1103 C1090 1.238 . S
O1104 Tb1080 2.471 . S
O1104 C1090 1.247 . S
C1105 C1108 1.380 . S
C1105 C1109 1.374 1_545 S
C1105 C1111 1.507 . S
C1106 C1107 1.405 . S
C1106 C1110 1.375 1_545 S
C1107 C1106 1.405 . S
C1107 C1108 1.384 . S
C1107 H1116 0.930 . S
C1108 C1105 1.380 . S
C1108 C1107 1.384 . S
C1108 H1117 0.931 . S
C1109 C1105 1.374 1_565 S
C1109 C1110 1.390 . S
C1109 H1118 0.930 . S
C1110 C1106 1.375 1_565 S
C1110 C1109 1.390 . S
C1110 H1119 0.930 . S
C1111 Eu1081 2.825 . S
C1111 O1096 1.238 . S
C1111 O1097 1.247 . S
C1111 C1105 1.507 . S
H1112 C1085 0.930 . S
H1113 C1086 0.931 . S
H1114 C1087 0.930 . S
H1115 C1088 0.930 . S
H1116 C1107 0.930 . S
H1117 C1108 0.931 . S
H1118 C1109 0.930 . S
H1119 C1110 0.930 . S
Tb1120 C1130 2.825 . S
Tb1120 O1131 2.347 1_455 S
Tb1120 O1134 2.366 1_455 S
Tb1120 O1139 2.418 . S
Tb1120 O1140 2.384 1_556 S
Tb1120 O1143 2.479 . S
Tb1120 O1144 2.471 1_455 S
Eu1121 O1132 2.418 . S
Eu1121 O1133 2.384 1_554 S
Eu1121 O1136 2.479 . S
Eu1121 O1137 2.471 1_655 S
Eu1121 O1138 2.347 1_655 S
Eu1121 O1141 2.366 1_655 S
Eu1121 C1151 2.825 . S
C1122 O1138 1.259 . S
C1122 O1139 1.265 1_554 S
C1123 O1140 1.255 . S
C1123 O1141 1.265 . S
C1124 C1126 1.380 . S
C1124 C1127 1.374 1_455 S
C1124 C1130 1.507 . S
C1125 C1126 1.384 . S
C1125 C1129 1.387 1_455 S
C1125 H1152 0.930 . S
C1126 C1124 1.380 . S
C1126 C1125 1.384 . S
C1126 H1153 0.931 . S
C1127 C1124 1.374 1_655 S
C1127 C1128 1.390 . S
C1127 H1154 0.930 . S
C1128 C1127 1.390 . S
C1128 C1129 1.391 . S
C1128 H1155 0.930 . S
C1129 C1125 1.387 1_655 S
C1129 C1128 1.391 . S
C1130 Tb1120 2.825 . S
C1130 C1124 1.507 . S
C1130 O1143 1.238 . S
C1130 O1144 1.247 1_455 S
O1131 Tb1120 2.347 1_655 S
O1131 C1135 1.259 . S
O1132 Eu1121 2.418 . S
O1132 C1135 1.265 1_554 S
O1133 Eu1121 2.384 1_556 S
O1133 C1142 1.255 . S
O1134 Tb1120 2.366 1_655 S
O1134 C1142 1.265 . S
C1135 O1131 1.259 . S
C1135 O1132 1.265 1_556 S
O1136 Eu1121 2.479 . S
O1136 C1151 1.238 . S
O1137 Eu1121 2.471 1_455 S
O1137 C1151 1.247 1_455 S
O1138 Eu1121 2.347 1_455 S
O1138 C1122 1.259 . S
O1139 Tb1120 2.418 . S
O1139 C1122 1.265 1_556 S
O1140 Tb1120 2.384 1_554 S
O1140 C1123 1.255 . S
O1141 Eu1121 2.366 1_455 S
O1141 C1123 1.265 . S
C1142 O1133 1.255 . S
C1142 O1134 1.265 . S
O1143 Tb1120 2.479 . S
O1143 C1130 1.238 . S
O1144 Tb1120 2.471 1_655 S
O1144 C1130 1.247 1_655 S
C1145 C1148 1.380 . S
C1145 C1149 1.374 1_655 S
C1145 C1151 1.507 . S
C1146 C1147 1.387 1_455 S
C1146 C1150 1.391 . S
C1147 C1146 1.387 1_655 S
C1147 C1148 1.384 . S
C1147 H1156 0.930 . S
C1148 C1145 1.380 . S
C1148 C1147 1.384 . S
C1148 H1157 0.931 . S
C1149 C1145 1.374 1_455 S
C1149 C1150 1.390 . S
C1149 H1158 0.930 . S
C1150 C1146 1.391 . S
C1150 C1149 1.390 . S
C1150 H1159 0.930 . S
C1151 Eu1121 2.825 . S
C1151 O1136 1.238 . S
C1151 O1137 1.247 1_655 S
C1151 C1145 1.507 . S
H1152 C1125 0.930 . S
H1153 C1126 0.931 . S
H1154 C1127 0.930 . S
H1155 C1128 0.930 . S
H1156 C1147 0.930 . S
H1157 C1148 0.931 . S
H1158 C1149 0.930 . S
H1159 C1150 0.930 . S
Tb1160 C1170 2.825 . S
Tb1160 O1171 2.347 . S
Tb1160 O1174 2.366 . S
Tb1160 O1179 2.418 . S
Tb1160 O1180 2.387 . S
Tb1160 O1183 2.479 . S
Tb1160 O1184 2.471 . S
Eu1161 O1172 2.418 . S
Eu1161 O1173 2.384 1_556 S
Eu1161 O1176 2.479 . S
Eu1161 O1177 2.471 . S
Eu1161 O1178 2.347 . S
Eu1161 O1181 2.366 . S
Eu1161 C1191 2.825 . S
C1162 O1178 1.259 . S
C1162 O1179 1.265 1_556 S
C1163 O1180 1.252 1_556 S
C1163 O1181 1.265 . S
C1164 C1166 1.380 . S
C1164 C1167 1.374 . S
C1164 C1170 1.507 . S
C1165 C1166 1.384 . S
C1165 C1169 1.387 . S
C1165 H1192 0.930 . S
C1166 C1164 1.380 . S
C1166 C1165 1.384 . S
C1166 H1193 0.931 . S
C1167 C1164 1.374 . S
C1167 C1168 1.390 . S
C1167 H1194 0.930 . S
C1168 C1167 1.390 . S
C1168 C1169 1.391 . S
C1168 H1195 0.930 . S
C1169 C1165 1.387 . S
C1169 C1168 1.391 . S
C1170 Tb1160 2.825 . S
C1170 C1164 1.507 . S
C1170 O1183 1.238 . S
C1170 O1184 1.247 . S
O1171 Tb1160 2.347 . S
O1171 C1175 1.259 . S
O1172 Eu1161 2.418 . S
O1172 C1175 1.265 1_556 S
O1173 Eu1161 2.384 1_554 S
O1173 C1182 1.255 . S
O1174 Tb1160 2.366 . S
O1174 C1182 1.265 . S
C1175 O1171 1.259 . S
C1175 O1172 1.265 1_554 S
O1176 Eu1161 2.479 . S
O1176 C1191 1.238 . S
O1177 Eu1161 2.471 . S
O1177 C1191 1.247 . S
O1178 Eu1161 2.347 . S
O1178 C1162 1.259 . S
O1179 Tb1160 2.418 . S
O1179 C1162 1.265 1_554 S
O1180 Tb1160 2.387 . S
O1180 C1163 1.252 1_554 S
O1181 Eu1161 2.366 . S
O1181 C1163 1.265 . S
C1182 O1173 1.255 . S
C1182 O1174 1.265 . S
O1183 Tb1160 2.479 . S
O1183 C1170 1.238 . S
O1184 Tb1160 2.471 . S
O1184 C1170 1.247 . S
C1185 C1188 1.380 . S
C1185 C1189 1.374 . S
C1185 C1191 1.507 . S
C1186 C1187 1.387 . S
C1186 C1190 1.391 . S
C1187 C1186 1.387 . S
C1187 C1188 1.384 . S
C1187 H1196 0.930 . S
C1188 C1185 1.380 . S
C1188 C1187 1.384 . S
C1188 H1197 0.931 . S
C1189 C1185 1.374 . S
C1189 C1190 1.390 . S
C1189 H1198 0.930 . S
C1190 C1186 1.391 . S
C1190 C1189 1.390 . S
C1190 H1199 0.930 . S
C1191 Eu1161 2.825 . S
C1191 O1176 1.238 . S
C1191 O1177 1.247 . S
C1191 C1185 1.507 . S
H1192 C1165 0.930 . S
H1193 C1166 0.931 . S
H1194 C1167 0.930 . S
H1195 C1168 0.930 . S
H1196 C1187 0.930 . S
H1197 C1188 0.931 . S
H1198 C1189 0.930 . S
H1199 C1190 0.930 . S
Tb1200 C1210 2.825 . S
Tb1200 O1211 2.347 . S
Tb1200 O1214 2.366 . S
Tb1200 O1219 2.418 . S
Tb1200 O1220 2.384 . S
Tb1200 O1223 2.479 . S
Tb1200 O1224 2.471 . S
Eu1201 O1212 2.418 . S
Eu1201 O1213 2.384 . S
Eu1201 O1216 2.479 . S
Eu1201 O1217 2.471 . S
Eu1201 O1218 2.347 . S
Eu1201 O1221 2.366 . S
Eu1201 C1231 2.825 . S
C1202 O1218 1.259 . S
C1202 O1219 1.265 . S
C1203 O1220 1.255 . S
C1203 O1221 1.265 . S
C1204 C1206 1.380 . S
C1204 C1207 1.374 . S
C1204 C1210 1.507 . S
C1205 C1206 1.384 . S
C1205 C1209 1.387 . S
C1205 H1232 0.930 . S
C1206 C1204 1.380 . S
C1206 C1205 1.384 . S
C1206 H1233 0.931 . S
C1207 C1204 1.374 . S
C1207 C1208 1.390 . S
C1207 H1234 0.930 . S
C1208 C1207 1.390 . S
C1208 C1209 1.391 . S
C1208 H1235 0.930 . S
C1209 C1205 1.387 . S
C1209 C1208 1.391 . S
C1210 Tb1200 2.825 . S
C1210 C1204 1.507 . S
C1210 O1223 1.238 . S
C1210 O1224 1.247 . S
O1211 Tb1200 2.347 . S
O1211 C1215 1.259 . S
O1212 Eu1201 2.418 . S
O1212 C1215 1.265 . S
O1213 Eu1201 2.384 . S
O1213 C1222 1.255 . S
O1214 Tb1200 2.366 . S
O1214 C1222 1.265 . S
C1215 O1211 1.259 . S
C1215 O1212 1.265 . S
O1216 Eu1201 2.479 . S
O1216 C1231 1.238 . S
O1217 Eu1201 2.471 . S
O1217 C1231 1.247 . S
O1218 Eu1201 2.347 . S
O1218 C1202 1.259 . S
O1219 Tb1200 2.418 . S
O1219 C1202 1.265 . S
O1220 Tb1200 2.384 . S
O1220 C1203 1.255 . S
O1221 Eu1201 2.366 . S
O1221 C1203 1.265 . S
C1222 O1213 1.255 . S
C1222 O1214 1.265 . S
O1223 Tb1200 2.479 . S
O1223 C1210 1.238 . S
O1224 Tb1200 2.471 . S
O1224 C1210 1.247 . S
C1225 C1228 1.380 . S
C1225 C1229 1.374 . S
C1225 C1231 1.507 . S
C1226 C1227 1.387 . S
C1226 C1230 1.391 . S
C1227 C1226 1.387 . S
C1227 C1228 1.384 . S
C1227 H1236 0.930 . S
C1228 C1225 1.380 . S
C1228 C1227 1.384 . S
C1228 H1237 0.931 . S
C1229 C1225 1.374 . S
C1229 C1230 1.390 . S
C1229 H1238 0.930 . S
C1230 C1226 1.391 . S
C1230 C1229 1.390 . S
C1230 H1239 0.930 . S
C1231 Eu1201 2.825 . S
C1231 O1216 1.238 . S
C1231 O1217 1.247 . S
C1231 C1225 1.507 . S
H1232 C1205 0.930 . S
H1233 C1206 0.931 . S
H1234 C1207 0.930 . S
H1235 C1208 0.930 . S
H1236 C1227 0.930 . S
H1237 C1228 0.931 . S
H1238 C1229 0.930 . S
H1239 C1230 0.930 . S
Tb1240 C1250 2.825 . S
Tb1240 O1251 2.347 . S
Tb1240 O1254 2.366 . S
Tb1240 O1259 2.418 . S
Tb1240 O1260 2.384 . S
Tb1240 O1263 2.479 . S
Tb1240 O1264 2.471 . S
Eu1241 O1252 2.418 . S
Eu1241 O1253 2.384 . S
Eu1241 O1256 2.479 . S
Eu1241 O1257 2.471 . S
Eu1241 O1258 2.347 . S
Eu1241 O1261 2.366 . S
Eu1241 C1271 2.825 . S
C1242 O1258 1.259 . S
C1242 O1259 1.265 . S
C1243 O1260 1.255 . S
C1243 O1261 1.265 . S
C1244 C1246 1.380 . S
C1244 C1247 1.374 . S
C1244 C1250 1.507 . S
C1245 C1246 1.384 . S
C1245 C1249 1.387 . S
C1245 H1272 0.930 . S
C1246 C1244 1.380 . S
C1246 C1245 1.384 . S
C1246 H1273 0.931 . S
C1247 C1244 1.374 . S
C1247 C1248 1.390 . S
C1247 H1274 0.930 . S
C1248 C1247 1.390 . S
C1248 C1249 1.391 . S
C1248 H1275 0.930 . S
C1249 C1245 1.387 . S
C1249 C1248 1.391 . S
C1250 Tb1240 2.825 . S
C1250 C1244 1.507 . S
C1250 O1263 1.238 . S
C1250 O1264 1.247 . S
O1251 Tb1240 2.347 . S
O1251 C1255 1.259 . S
O1252 Eu1241 2.418 . S
O1252 C1255 1.265 . S
O1253 Eu1241 2.384 . S
O1253 C1262 1.255 . S
O1254 Tb1240 2.366 . S
O1254 C1262 1.265 . S
C1255 O1251 1.259 . S
C1255 O1252 1.265 . S
O1256 Eu1241 2.479 . S
O1256 C1271 1.238 . S
O1257 Eu1241 2.471 . S
O1257 C1271 1.247 . S
O1258 Eu1241 2.347 . S
O1258 C1242 1.259 . S
O1259 Tb1240 2.418 . S
O1259 C1242 1.265 . S
O1260 Tb1240 2.384 . S
O1260 C1243 1.255 . S
O1261 Eu1241 2.366 . S
O1261 C1243 1.265 . S
C1262 O1253 1.255 . S
C1262 O1254 1.265 . S
O1263 Tb1240 2.479 . S
O1263 C1250 1.238 . S
O1264 Tb1240 2.471 . S
O1264 C1250 1.247 . S
C1265 C1268 1.380 . S
C1265 C1269 1.374 . S
C1265 C1271 1.507 . S
C1266 C1267 1.387 . S
C1266 C1270 1.391 . S
C1267 C1266 1.387 . S
C1267 C1268 1.384 . S
C1267 H1276 0.930 . S
C1268 C1265 1.380 . S
C1268 C1267 1.384 . S
C1268 H1277 0.931 . S
C1269 C1265 1.374 . S
C1269 C1270 1.390 . S
C1269 H1278 0.930 . S
C1270 C1266 1.391 . S
C1270 C1269 1.390 . S
C1270 H1279 0.930 . S
C1271 Eu1241 2.825 . S
C1271 O1256 1.238 . S
C1271 O1257 1.247 . S
C1271 C1265 1.507 . S
H1272 C1245 0.930 . S
H1273 C1246 0.931 . S
H1274 C1247 0.930 . S
H1275 C1248 0.930 . S
H1276 C1267 0.930 . S
H1277 C1268 0.931 . S
H1278 C1269 0.930 . S
H1279 C1270 0.930 . S
Tb1280 C1290 2.825 . S
Tb1280 O1291 2.347 . S
Tb1280 O1294 2.366 . S
Tb1280 O1299 2.418 . S
Tb1280 O1300 2.384 . S
Tb1280 O1303 2.479 . S
Tb1280 O1304 2.471 . S
Eu1281 O1292 2.418 . S
Eu1281 O1293 2.384 . S
Eu1281 O1296 2.479 . S
Eu1281 O1297 2.471 . S
Eu1281 O1298 2.347 . S
Eu1281 O1301 2.366 . S
Eu1281 C1311 2.825 . S
C1282 O1298 1.259 . S
C1282 O1299 1.265 . S
C1283 O1300 1.255 . S
C1283 O1301 1.265 . S
C1284 C1286 1.380 . S
C1284 C1287 1.374 . S
C1284 C1290 1.507 . S
C1285 C1286 1.384 . S
C1285 C1289 1.387 . S
C1285 H1312 0.930 . S
C1286 C1284 1.380 . S
C1286 C1285 1.384 . S
C1286 H1313 0.931 . S
C1287 C1284 1.374 . S
C1287 C1288 1.390 . S
C1287 H1314 0.930 . S
C1288 C1287 1.390 . S
C1288 C1289 1.391 . S
C1288 H1315 0.930 . S
C1289 C1285 1.387 . S
C1289 C1288 1.391 . S
C1290 Tb1280 2.825 . S
C1290 C1284 1.507 . S
C1290 O1303 1.238 . S
C1290 O1304 1.247 . S
O1291 Tb1280 2.347 . S
O1291 C1295 1.259 . S
O1292 Eu1281 2.418 . S
O1292 C1295 1.265 . S
O1293 Eu1281 2.384 . S
O1293 C1302 1.255 . S
O1294 Tb1280 2.366 . S
O1294 C1302 1.265 . S
C1295 O1291 1.259 . S
C1295 O1292 1.265 . S
O1296 Eu1281 2.479 . S
O1296 C1311 1.238 . S
O1297 Eu1281 2.471 . S
O1297 C1311 1.247 . S
O1298 Eu1281 2.347 . S
O1298 C1282 1.259 . S
O1299 Tb1280 2.418 . S
O1299 C1282 1.265 . S
O1300 Tb1280 2.384 . S
O1300 C1283 1.255 . S
O1301 Eu1281 2.366 . S
O1301 C1283 1.265 . S
C1302 O1293 1.255 . S
C1302 O1294 1.265 . S
O1303 Tb1280 2.479 . S
O1303 C1290 1.238 . S
O1304 Tb1280 2.471 . S
O1304 C1290 1.247 . S
C1305 C1308 1.380 . S
C1305 C1309 1.374 . S
C1305 C1311 1.507 . S
C1306 C1307 1.387 . S
C1306 C1310 1.391 . S
C1307 C1306 1.387 . S
C1307 C1308 1.384 . S
C1307 H1316 0.930 . S
C1308 C1305 1.380 . S
C1308 C1307 1.384 . S
C1308 H1317 0.931 . S
C1309 C1305 1.374 . S
C1309 C1310 1.390 . S
C1309 H1318 0.930 . S
C1310 C1306 1.391 . S
C1310 C1309 1.390 . S
C1310 H1319 0.930 . S
C1311 Eu1281 2.825 . S
C1311 O1296 1.238 . S
C1311 O1297 1.247 . S
C1311 C1305 1.507 . S
H1312 C1285 0.930 . S
H1313 C1286 0.931 . S
H1314 C1287 0.930 . S
H1315 C1288 0.930 . S
H1316 C1307 0.930 . S
H1317 C1308 0.931 . S
H1318 C1309 0.930 . S
H1319 C1310 0.930 . S
Tb1320 C1330 2.825 . S
Tb1320 O1331 2.347 . S
Tb1320 O1334 2.366 . S
Tb1320 O1339 2.418 . S
Tb1320 O1340 2.384 . S
Tb1320 O1343 2.479 . S
Tb1320 O1344 2.471 . S
Eu1321 O1332 2.418 . S
Eu1321 O1333 2.384 . S
Eu1321 O1336 2.479 . S
Eu1321 O1337 2.471 . S
Eu1321 O1338 2.347 . S
Eu1321 O1341 2.366 . S
Eu1321 C1351 2.825 . S
C1322 O1338 1.259 . S
C1322 O1339 1.265 . S
C1323 O1340 1.255 . S
C1323 O1341 1.265 . S
C1324 C1326 1.380 . S
C1324 C1327 1.374 . S
C1324 C1330 1.507 . S
C1325 C1326 1.384 . S
C1325 C1329 1.387 . S
C1325 H1352 0.930 . S
C1326 C1324 1.380 . S
C1326 C1325 1.384 . S
C1326 H1353 0.931 . S
C1327 C1324 1.374 . S
C1327 C1328 1.390 . S
C1327 H1354 0.930 . S
C1328 C1327 1.390 . S
C1328 C1329 1.391 . S
C1328 H1355 0.930 . S
C1329 C1325 1.387 . S
C1329 C1328 1.391 . S
C1330 Tb1320 2.825 . S
C1330 C1324 1.507 . S
C1330 O1343 1.238 . S
C1330 O1344 1.247 . S
O1331 Tb1320 2.347 . S
O1331 C1335 1.259 . S
O1332 Eu1321 2.418 . S
O1332 C1335 1.265 . S
O1333 Eu1321 2.384 . S
O1333 C1342 1.255 . S
O1334 Tb1320 2.366 . S
O1334 C1342 1.265 . S
C1335 O1331 1.259 . S
C1335 O1332 1.265 . S
O1336 Eu1321 2.479 . S
O1336 C1351 1.238 . S
O1337 Eu1321 2.471 . S
O1337 C1351 1.247 . S
O1338 Eu1321 2.347 . S
O1338 C1322 1.259 . S
O1339 Tb1320 2.418 . S
O1339 C1322 1.265 . S
O1340 Tb1320 2.384 . S
O1340 C1323 1.255 . S
O1341 Eu1321 2.366 . S
O1341 C1323 1.265 . S
C1342 O1333 1.255 . S
C1342 O1334 1.265 . S
O1343 Tb1320 2.479 . S
O1343 C1330 1.238 . S
O1344 Tb1320 2.471 . S
O1344 C1330 1.247 . S
C1345 C1348 1.380 . S
C1345 C1349 1.374 . S
C1345 C1351 1.507 . S
C1346 C1347 1.387 . S
C1346 C1350 1.391 . S
C1347 C1346 1.387 . S
C1347 C1348 1.384 . S
C1347 H1356 0.930 . S
C1348 C1345 1.380 . S
C1348 C1347 1.384 . S
C1348 H1357 0.931 . S
C1349 C1345 1.374 . S
C1349 C1350 1.390 . S
C1349 H1358 0.930 . S
C1350 C1346 1.391 . S
C1350 C1349 1.390 . S
C1350 H1359 0.930 . S
C1351 Eu1321 2.825 . S
C1351 O1336 1.238 . S
C1351 O1337 1.247 . S
C1351 C1345 1.507 . S
H1352 C1325 0.930 . S
H1353 C1326 0.931 . S
H1354 C1327 0.930 . S
H1355 C1328 0.930 . S
H1356 C1347 0.930 . S
H1357 C1348 0.931 . S
H1358 C1349 0.930 . S
H1359 C1350 0.930 . S
Tb1360 C1370 2.825 . S
Tb1360 O1371 2.347 . S
Tb1360 O1374 2.366 . S
Tb1360 O1379 2.418 . S
Tb1360 O1380 2.384 . S
Tb1360 O1383 2.479 . S
Tb1360 O1384 2.471 . S
Eu1361 O1372 2.418 . S
Eu1361 O1373 2.384 . S
Eu1361 O1376 2.479 . S
Eu1361 O1377 2.471 . S
Eu1361 O1378 2.347 . S
Eu1361 O1381 2.366 . S
Eu1361 C1391 2.825 . S
C1362 O1378 1.259 . S
C1362 O1379 1.265 . S
C1363 O1380 1.255 . S
C1363 O1381 1.265 . S
C1364 C1366 1.380 . S
C1364 C1367 1.374 . S
C1364 C1370 1.507 . S
C1365 C1366 1.384 . S
C1365 C1369 1.387 . S
C1365 H1392 0.930 . S
C1366 C1364 1.380 . S
C1366 C1365 1.384 . S
C1366 H1393 0.931 . S
C1367 C1364 1.374 . S
C1367 C1368 1.390 . S
C1367 H1394 0.930 . S
C1368 C1367 1.390 . S
C1368 C1369 1.391 . S
C1368 H1395 0.930 . S
C1369 C1365 1.387 . S
C1369 C1368 1.391 . S
C1370 Tb1360 2.825 . S
C1370 C1364 1.507 . S
C1370 O1383 1.238 . S
C1370 O1384 1.247 . S
O1371 Tb1360 2.347 . S
O1371 C1375 1.259 . S
O1372 Eu1361 2.418 . S
O1372 C1375 1.265 . S
O1373 Eu1361 2.384 . S
O1373 C1382 1.255 . S
O1374 Tb1360 2.366 . S
O1374 C1382 1.265 . S
C1375 O1371 1.259 . S
C1375 O1372 1.265 . S
O1376 Eu1361 2.479 . S
O1376 C1391 1.238 . S
O1377 Eu1361 2.471 . S
O1377 C1391 1.247 . S
O1378 Eu1361 2.347 . S
O1378 C1362 1.259 . S
O1379 Tb1360 2.418 . S
O1379 C1362 1.265 . S
O1380 Tb1360 2.384 . S
O1380 C1363 1.255 . S
O1381 Eu1361 2.366 . S
O1381 C1363 1.265 . S
C1382 O1373 1.255 . S
C1382 O1374 1.265 . S
O1383 Tb1360 2.479 . S
O1383 C1370 1.238 . S
O1384 Tb1360 2.471 . S
O1384 C1370 1.247 . S
C1385 C1388 1.380 . S
C1385 C1389 1.374 . S
C1385 C1391 1.507 . S
C1386 C1387 1.387 . S
C1386 C1390 1.391 . S
C1387 C1386 1.387 . S
C1387 C1388 1.384 . S
C1387 H1396 0.930 . S
C1388 C1385 1.380 . S
C1388 C1387 1.384 . S
C1388 H1397 0.931 . S
C1389 C1385 1.374 . S
C1389 C1390 1.390 . S
C1389 H1398 0.930 . S
C1390 C1386 1.391 . S
C1390 C1389 1.390 . S
C1390 H1399 0.930 . S
C1391 Eu1361 2.825 . S
C1391 O1376 1.238 . S
C1391 O1377 1.247 . S
C1391 C1385 1.507 . S
H1392 C1365 0.930 . S
H1393 C1366 0.931 . S
H1394 C1367 0.930 . S
H1395 C1368 0.930 . S
H1396 C1387 0.930 . S
H1397 C1388 0.931 . S
H1398 C1389 0.930 . S
H1399 C1390 0.930 . S
Tb1400 C1410 2.825 . S
Tb1400 O1411 2.347 . S
Tb1400 O1414 2.366 . S
Tb1400 O1419 2.418 . S
Tb1400 O1420 2.384 . S
Tb1400 O1423 2.479 . S
Tb1400 O1424 2.471 . S
Eu1401 O1412 2.418 . S
Eu1401 O1413 2.384 . S
Eu1401 O1416 2.479 . S
Eu1401 O1417 2.471 . S
Eu1401 O1418 2.347 . S
Eu1401 O1421 2.366 . S
Eu1401 C1431 2.825 . S
C1402 O1418 1.259 . S
C1402 O1419 1.265 . S
C1403 O1420 1.255 . S
C1403 O1421 1.265 . S
C1404 C1406 1.380 . S
C1404 C1407 1.374 . S
C1404 C1410 1.507 . S
C1405 C1406 1.384 . S
C1405 C1409 1.387 . S
C1405 H1432 0.930 . S
C1406 C1404 1.380 . S
C1406 C1405 1.384 . S
C1406 H1433 0.931 . S
C1407 C1404 1.374 . S
C1407 C1408 1.390 . S
C1407 H1434 0.930 . S
C1408 C1407 1.390 . S
C1408 C1409 1.391 . S
C1408 H1435 0.930 . S
C1409 C1405 1.387 . S
C1409 C1408 1.391 . S
C1410 Tb1400 2.825 . S
C1410 C1404 1.507 . S
C1410 O1423 1.238 . S
C1410 O1424 1.247 . S
O1411 Tb1400 2.347 . S
O1411 C1415 1.259 . S
O1412 Eu1401 2.418 . S
O1412 C1415 1.265 . S
O1413 Eu1401 2.384 . S
O1413 C1422 1.255 . S
O1414 Tb1400 2.366 . S
O1414 C1422 1.265 . S
C1415 O1411 1.259 . S
C1415 O1412 1.265 . S
O1416 Eu1401 2.479 . S
O1416 C1431 1.238 . S
O1417 Eu1401 2.471 . S
O1417 C1431 1.247 . S
O1418 Eu1401 2.347 . S
O1418 C1402 1.259 . S
O1419 Tb1400 2.418 . S
O1419 C1402 1.265 . S
O1420 Tb1400 2.384 . S
O1420 C1403 1.255 . S
O1421 Eu1401 2.366 . S
O1421 C1403 1.265 . S
C1422 O1413 1.255 . S
C1422 O1414 1.265 . S
O1423 Tb1400 2.479 . S
O1423 C1410 1.238 . S
O1424 Tb1400 2.471 . S
O1424 C1410 1.247 . S
C1425 C1428 1.380 . S
C1425 C1429 1.374 . S
C1425 C1431 1.507 . S
C1426 C1427 1.387 . S
C1426 C1430 1.391 . S
C1427 C1426 1.387 . S
C1427 C1428 1.384 . S
C1427 H1436 0.930 . S
C1428 C1425 1.380 . S
C1428 C1427 1.384 . S
C1428 H1437 0.931 . S
C1429 C1425 1.374 . S
C1429 C1430 1.390 . S
C1429 H1438 0.930 . S
C1430 C1426 1.391 . S
C1430 C1429 1.390 . S
C1430 H1439 0.930 . S
C1431 Eu1401 2.825 . S
C1431 O1416 1.238 . S
C1431 O1417 1.247 . S
C1431 C1425 1.507 . S
H1432 C1405 0.930 . S
H1433 C1406 0.931 . S
H1434 C1407 0.930 . S
H1435 C1408 0.930 . S
H1436 C1427 0.930 . S
H1437 C1428 0.931 . S
H1438 C1429 0.930 . S
H1439 C1430 0.930 . S
C781 C1083 2.521 . S
C871 C1123 2.106 . S
C751 C1175 2.477 . S
C691 C1135 2.065 . S
C1163 C571 1.696 . S
C601 C1095 2.436 . S
C1102 C661 2.297 . S
C1142 C541 2.025 . S
C631 C1162 2.706 1_554 S
C811 C1122 2.289 . S
C841 C1182 1.842 . S
C1082 C721 2.186 . S
C1203 C61 2.523 . S
C151 C1243 2.107 . S
C31 C1295 2.477 . S
C1051 C1255 2.065 . S
C931 C1283 1.696 . S
C961 C1215 2.438 . S
C1021 C1222 2.295 . S
C901 C1262 2.023 . S
C1282 C991 2.706 . S
C91 C1242 2.289 . S
C1302 C121 1.841 . S
C1 C1202 2.186 . S
C1323 C421 2.522 . S
C511 C1363 2.107 . S
C1415 C391 2.478 . S
C1375 C331 2.065 . S
C1403 C211 1.695 . S
C241 C1335 2.438 . S
C301 C1342 2.296 . S
C181 C1382 2.024 . S
C1402 C271 2.706 1_545 S
C451 C1362 2.288 . S
C481 C1422 1.841 . S
C361 C1322 2.186 . S
C920 C1106 1.479 1_565 S
C1146 C980 2.268 1_455 S
C1040 C1169 1.544 . S
C380 C1129 2.113 1_455 S
C440 C1186 1.632 . S
C1089 C500 1.622 1_565 S
C200 C1226 1.489 . S
C260 C1266 2.267 . S
C320 C1289 1.544 . S
C740 C1249 2.113 . S
C1306 C800 1.632 . S
C860 C1209 1.633 . S
C560 C1346 1.489 . S
C620 C1386 2.267 . S
C1409 C680 1.544 . S
C20 C1369 2.114 . S
C80 C1426 1.632 . S
C140 C1329 1.633 . S
