# Generated by pormake.
# Topology zzz, (3,6)-cn, num edge types: 1
# Building blocks:
#     Node 0, Type 0, BuildingBlock: QEWDON_clean_linker_0, # of connection points: 3
#     Node 1, Type 0, BuildingBlock: QEWDON_clean_linker_0, # of connection points: 3
#     Node 2, Type 0, BuildingBlock: QEWDON_clean_linker_0, # of connection points: 3
#     Node 3, Type 0, BuildingBlock: QEWDON_clean_linker_0, # of connection points: 3
#     Node 4, Type 0, BuildingBlock: QEWDON_clean_linker_0, # of connection points: 3
#     Node 5, Type 0, BuildingBlock: QEWDON_clean_linker_0, # of connection points: 3
#     Node 6, Type 0, BuildingBlock: QEWDON_clean_linker_0, # of connection points: 3
#     Node 7, Type 0, BuildingBlock: QEWDON_clean_linker_0, # of connection points: 3
#     Node 8, Type 1, BuildingBlock: CUWYAW_clean_sbu_0, # of connection points: 6
#     Node 9, Type 1, BuildingBlock: CUWYAW_clean_sbu_0, # of connection points: 6
#     Node 10, Type 1, BuildingBlock: CUWYAW_clean_sbu_0, # of connection points: 6
#     Node 11, Type 1, BuildingBlock: CUWYAW_clean_sbu_0, # of connection points: 6
#     Edge 12, Type (0, 1), BuildingBlock: TEMPAE_clean_linker_10, # of connection points: 2
#     Edge 13, Type (0, 1), BuildingBlock: TEMPAE_clean_linker_10, # of connection points: 2
#     Edge 14, Type (0, 1), BuildingBlock: TEMPAE_clean_linker_10, # of connection points: 2
#     Edge 15, Type (0, 1), BuildingBlock: TEMPAE_clean_linker_10, # of connection points: 2
#     Edge 16, Type (0, 1), BuildingBlock: TEMPAE_clean_linker_10, # of connection points: 2
#     Edge 17, Type (0, 1), BuildingBlock: TEMPAE_clean_linker_10, # of connection points: 2
#     Edge 18, Type (0, 1), BuildingBlock: TEMPAE_clean_linker_10, # of connection points: 2
#     Edge 19, Type (0, 1), BuildingBlock: TEMPAE_clean_linker_10, # of connection points: 2
#     Edge 20, Type (0, 1), BuildingBlock: TEMPAE_clean_linker_10, # of connection points: 2
#     Edge 21, Type (0, 1), BuildingBlock: TEMPAE_clean_linker_10, # of connection points: 2
#     Edge 22, Type (0, 1), BuildingBlock: TEMPAE_clean_linker_10, # of connection points: 2
#     Edge 23, Type (0, 1), BuildingBlock: TEMPAE_clean_linker_10, # of connection points: 2
#     Edge 24, Type (0, 1), BuildingBlock: TEMPAE_clean_linker_10, # of connection points: 2
#     Edge 25, Type (0, 1), BuildingBlock: TEMPAE_clean_linker_10, # of connection points: 2
#     Edge 26, Type (0, 1), BuildingBlock: TEMPAE_clean_linker_10, # of connection points: 2
#     Edge 27, Type (0, 1), BuildingBlock: TEMPAE_clean_linker_10, # of connection points: 2
#     Edge 28, Type (0, 1), BuildingBlock: TEMPAE_clean_linker_10, # of connection points: 2
#     Edge 29, Type (0, 1), BuildingBlock: TEMPAE_clean_linker_10, # of connection points: 2
#     Edge 30, Type (0, 1), BuildingBlock: TEMPAE_clean_linker_10, # of connection points: 2
#     Edge 31, Type (0, 1), BuildingBlock: TEMPAE_clean_linker_10, # of connection points: 2
#     Edge 32, Type (0, 1), BuildingBlock: TEMPAE_clean_linker_10, # of connection points: 2
#     Edge 33, Type (0, 1), BuildingBlock: TEMPAE_clean_linker_10, # of connection points: 2
#     Edge 34, Type (0, 1), BuildingBlock: TEMPAE_clean_linker_10, # of connection points: 2
#     Edge 35, Type (0, 1), BuildingBlock: TEMPAE_clean_linker_10, # of connection points: 2
# Relax obj value: 0.164
# Max RMSD: 0.148
# Mean RMSD: 0.096
data_MOF--net-zzz--node1-CUWYAW_clean_sbu_0--node2-QEWDON_clean_linker_0--edge1-TEMPAE_clean_linker_10
_symmetry_space_group_name_H-M    P1
_symmetry_Int_Tables_number       1
_symmetry_cell_setting            triclinic
loop_
_symmetry_equiv_pos_as_xyz
'x, y, z'
_cell_length_a     56.489909
_cell_length_b     56.432537
_cell_length_c     13.791924
_cell_angle_alpha  89.87632
_cell_angle_beta   89.922801
_cell_angle_gamma 89.994797
loop_
_atom_site_label
_atom_site_type_symbol
_atom_site_fract_x
_atom_site_fract_y
_atom_site_fract_z
_atom_type_partial_charge
H0 H 0.75615 0.50951 0.18074 0.0
C1 C 0.7673 0.51075 0.24417 0.0
C2 C 0.78951 0.49993 0.24067 0.0
C3 C 0.7602 0.52383 0.32658 0.0
H4 H 0.8226 0.49422 0.31202 0.0
C5 C 0.8052 0.50218 0.31806 0.0
C6 C 0.79969 0.51555 0.39986 0.0
C7 C 0.77697 0.52631 0.40451 0.0
C8 C 0.73595 0.53556 0.32774 0.0
H9 H 0.77254 0.53615 0.46914 0.0
C10 C 0.71678 0.52777 0.26761 0.0
C11 C 0.69454 0.53956 0.26769 0.0
C12 C 0.73192 0.55545 0.3871 0.0
H13 H 0.7458 0.56287 0.43148 0.0
C14 C 0.70997 0.56677 0.38866 0.0
H15 H 0.71872 0.51237 0.22179 0.0
C16 C 0.69151 0.55897 0.32992 0.0
H17 H 0.6749 0.56857 0.33154 0.0
H18 H 0.70735 0.58204 0.43485 0.0
H19 H 0.97501 0.75493 0.23911 0.0
C20 C 0.97957 0.76772 0.29412 0.0
C21 C 0.96774 0.78947 0.29171 0.0
C22 C 0.99731 0.76302 0.3635 0.0
H23 H 0.96235 0.82266 0.36356 0.0
C24 C 0.97188 0.80606 0.36514 0.0
C25 C 0.99039 0.80339 0.43146 0.0
C26 C 1.00338 0.78178 0.4296 0.0
C27 C 1.00909 0.73872 0.36566 0.0
H28 H 0.01804 0.77982 0.47927 0.0
C29 C 1.00854 0.72262 0.28516 0.0
C30 C 0.01826 0.69942 0.29175 0.0
C31 C 0.01996 0.73074 0.45159 0.0
H32 H 0.02031 0.74158 0.51609 0.0
C33 C 0.02997 0.70819 0.45764 0.0
H34 H 1.00102 0.72787 0.21648 0.0
C35 C 0.02909 0.6927 0.37913 0.0
H36 H 0.03651 0.67512 0.38778 0.0
H37 H 0.03811 0.70247 0.52473 0.0
H38 H 0.78179 0.05294 0.21254 0.0
C39 C 0.76869 0.0471 0.26456 0.0
C40 C 0.74672 0.05849 0.26448 0.0
C41 C 0.77361 0.02885 0.3322 0.0
H42 H 0.71269 0.06118 0.33019 0.0
C43 C 0.72957 0.05225 0.33256 0.0
C44 C 0.73294 0.03399 0.39927 0.0
C45 C 0.75497 0.02186 0.39765 0.0
C46 C 0.79831 0.01817 0.33674 0.0
H47 H 0.75744 1.00731 0.44774 0.0
C48 C 0.81468 0.01905 0.2572 0.0
C49 C 0.83816 1.01017 0.26607 0.0
C50 C 0.80634 1.00808 0.42427 0.0
H51 H 0.79531 1.00767 0.4883 0.0
C52 C 0.8292 0.999 0.43266 0.0
H53 H 0.80935 0.02624 0.18791 0.0
C54 C 0.84492 1.00005 0.35493 0.0
H55 H 0.86272 0.99336 0.36536 0.0
H56 H 0.83495 0.99146 0.50092 0.0
H57 H 0.5486 0.78772 0.24097 0.0
C58 C 0.54446 0.77508 0.29739 0.0
C59 C 0.55501 0.75268 0.29156 0.0
C60 C 0.52875 0.78079 0.37374 0.0
H61 H 0.55948 0.71892 0.36145 0.0
C62 C 0.55115 0.73615 0.36581 0.0
C63 C 0.53449 0.73997 0.43875 0.0
C64 C 0.52297 0.76234 0.44197 0.0
C65 C 0.51905 0.80588 0.38221 0.0
H66 H 0.50973 0.76515 0.49741 0.0
C67 C 0.5185 0.82226 0.30249 0.0
C68 C 0.5109 0.84613 0.31466 0.0
C69 C 0.51152 0.81427 0.47331 0.0
H70 H 0.51226 0.80319 0.53726 0.0
C71 C 0.50363 0.8375 0.48513 0.0
H72 H 0.52356 0.8167 0.23051 0.0
C73 C 0.50338 0.85325 0.40723 0.0
H74 H 0.49777 0.87132 0.42029 0.0
H75 H 0.49808 0.84351 0.5561 0.0
H76 H 0.27948 0.48066 0.22992 0.0
C77 C 0.2668 0.48573 0.17509 0.0
C78 C 0.24495 0.47398 0.17466 0.0
C79 C 0.27178 0.504 0.10785 0.0
H80 H 0.2118 0.46978 0.10048 0.0
C81 C 0.22855 0.47907 0.10143 0.0
C82 C 0.23156 0.49827 0.03879 0.0
C83 C 0.25319 0.51099 0.04285 0.0
C84 C 0.29617 0.51541 0.10584 0.0
H85 H 0.25529 0.52617 0.9957 0.0
C86 C 0.31221 0.51457 0.18625 0.0
C87 C 0.3354 0.52425 0.17972 0.0
C88 C 0.30422 0.52628 0.01984 0.0
H89 H 0.29341 0.52674 0.95526 0.0
C90 C 0.3268 0.53616 0.01383 0.0
H91 H 0.30688 0.50686 0.25462 0.0
C92 C 0.34221 0.53516 0.09247 0.0
H93 H 0.3598 0.54254 0.0841 0.0
H94 H 0.33258 0.54433 0.94675 0.0
H95 H 0.99217 0.28394 0.2639 0.0
C96 C 0.99813 0.27118 0.21092 0.0
C97 C 0.99284 0.24735 0.22758 0.0
C98 C 1.01043 0.27826 0.12624 0.0
H99 H 0.99401 0.21194 0.17219 0.0
C100 C 0.99864 0.23028 0.15846 0.0
C101 C 1.00963 0.23615 0.07135 0.0
C102 C 0.01632 0.26017 0.05639 0.0
C103 C 0.01552 0.30448 0.10959 0.0
H104 H 0.02563 0.2645 0.99024 0.0
C105 C 0.01592 0.32156 0.18671 0.0
C106 C 0.01863 0.34626 0.16794 0.0
C107 C 0.01872 0.31301 0.01442 0.0
H108 H 0.01784 0.30137 0.95248 0.0
C109 C 0.02244 0.33702 0.99614 0.0
H110 H 1.01376 0.31598 0.26116 0.0
C111 C 0.02238 0.35341 0.07145 0.0
H112 H 0.02529 0.37188 0.05364 0.0
H113 H 0.02501 0.34306 0.92231 0.0
H114 H 0.25793 0.99521 0.27607 0.0
C115 C 0.27045 1.0011 0.22166 0.0
C116 C 0.2945 0.99671 0.23727 0.0
C117 C 0.2627 1.01222 0.13543 0.0
H118 H 0.32963 0.9986 0.17817 0.0
C119 C 0.31109 1.00261 0.16602 0.0
C120 C 0.3044 1.01249 0.0777 0.0
C121 C 0.28013 0.01794 0.06304 0.0
C122 C 0.23637 1.01564 0.11917 0.0
H123 H 0.27501 0.0261 0.99521 0.0
C124 C 0.21991 0.01821 0.1975 0.0
C125 C 0.19511 0.01843 0.18076 0.0
C126 C 0.22718 1.01443 0.02445 0.0
H127 H 0.23865 1.01188 0.96249 0.0
C128 C 0.20284 1.0154 0.00779 0.0
H129 H 0.22614 0.01948 0.27146 0.0
C130 C 0.18697 0.01712 0.08492 0.0
H131 H 0.16816 0.01733 0.06967 0.0
H132 H 0.19618 1.01426 0.93438 0.0
H133 H 0.53967 0.25856 0.26121 0.0
C134 C 0.53402 0.27114 0.20673 0.0
C135 C 0.53942 0.29502 0.22133 0.0
C136 C 0.5218 0.26377 0.12251 0.0
H137 H 0.53854 0.3302 0.1628 0.0
C138 C 0.53387 0.31181 0.15058 0.0
C139 C 0.52259 0.30565 0.06462 0.0
C140 C 0.51583 0.28161 0.05167 0.0
C141 C 0.51643 0.23756 0.10797 0.0
H142 H 0.5063 0.27708 0.98642 0.0
C143 C 0.51557 0.22085 0.18653 0.0
C144 C 0.51134 0.19634 0.17011 0.0
C145 C 0.51301 0.2287 0.01356 0.0
H146 H 0.51435 0.24004 0.95059 0.0
C147 C 0.50845 0.20473 0.99752 0.0
H148 H 0.5177 0.22664 0.26065 0.0
C149 C 0.50758 0.18875 0.07458 0.0
H150 H 0.50445 0.1702 0.05905 0.0
H151 H 0.50591 0.1984 0.92422 0.0
C152 C 0.99736 0.04278 0.44735 0.0
Eu153 Eu 1.00538 0.02853 0.62256 0.0
C154 C 0.98073 0.06062 0.41082 0.0
C155 C 0.95913 0.06465 0.45879 0.0
C156 C 0.94619 0.08526 0.44056 0.0
C157 C 0.95478 0.10222 0.37474 0.0
C158 C 0.97546 0.09707 0.3212 0.0
C159 C 0.98827 0.07643 0.3391 0.0
C160 C 0.9709 0.02283 0.76269 0.0
C161 C 0.01902 0.07065 0.78222 0.0
C162 C 0.03052 0.9976 0.00156 0.0
Eu163 Eu 0.02852 1.01444 0.82835 0.0
C164 C 0.01659 0.97743 0.03643 0.0
C165 C 0.02785 0.95915 0.08706 0.0
C166 C 0.01673 0.93723 0.09738 0.0
C167 C 0.99401 0.93334 0.05818 0.0
C168 C 0.98234 0.95211 0.01171 0.0
C169 C 0.99365 0.97383 0.99996 0.0
C170 C 0.0632 0.01999 0.68927 0.0
C171 C 1.01384 0.97286 0.6731 0.0
O172 O 1.01447 0.05138 0.50106 0.0
O173 O 0.98797 0.02343 0.48353 0.0
O174 O 0.96654 0.02832 0.67321 0.0
O175 O 0.99302 0.02056 0.76984 0.0
O176 O 1.01164 0.06499 0.69318 0.0
O177 O 0.02594 0.0544 0.84634 0.0
O178 O 0.01861 0.01693 0.98077 0.0
O179 O 0.0459 0.99191 0.93443 0.0
O180 O 0.06735 1.01553 0.78015 0.0
O181 O 0.04106 0.02223 0.68009 0.0
O182 O 0.01612 0.97896 0.76564 0.0
O183 O 1.01296 0.98912 0.60338 0.0
H184 H 0.95296 0.05265 0.51468 0.0
H185 H 0.93021 0.08853 0.48191 0.0
H186 H 0.98291 0.10983 0.27095 0.0
H187 H 1.00498 0.0737 0.30205 0.0
H188 H 0.04581 0.96134 0.11308 0.0
H189 H 0.02644 0.92304 0.13225 0.0
H190 H 0.96474 0.94985 0.98205 0.0
H191 H 0.98497 0.98731 0.95724 0.0
C192 C 0.49689 0.99319 0.45637 0.0
Eu193 Eu 0.51054 1.00484 0.62876 0.0
C194 C 0.47899 0.97619 0.42344 0.0
C195 C 0.47423 0.95555 0.47735 0.0
C196 C 0.45352 0.94265 0.46089 0.0
C197 C 0.43716 0.95037 0.39104 0.0
C198 C 0.44318 0.96983 0.33142 0.0
C199 C 0.46392 0.98257 0.34754 0.0
C200 C 0.51368 0.97293 0.78117 0.0
C201 C 0.46896 0.01884 0.78526 0.0
C202 C 0.54046 0.04402 0.99363 0.0
Eu203 Eu 0.52466 0.03161 0.82593 0.0
C204 C 0.55956 0.06081 0.01424 0.0
C205 C 0.56278 0.06988 0.1074 0.0
C206 C 0.58251 0.08399 0.12778 0.0
C207 C 0.59959 0.08867 0.05539 0.0
C208 C 0.59519 0.0809 0.96031 0.0
C209 C 0.57526 0.06728 0.93989 0.0
C210 C 0.51988 0.06373 0.67545 0.0
C211 C 0.56629 0.01739 0.67015 0.0
O212 O 0.48833 1.01155 0.5031 0.0
O213 O 0.51581 0.9842 0.49748 0.0
O214 O 0.50838 0.96734 0.69282 0.0
O215 O 0.51724 0.995 0.78184 0.0
O216 O 0.47428 1.01392 0.69336 0.0
O217 O 0.48557 0.02345 0.85089 0.0
O218 O 0.54728 0.02456 0.94973 0.0
O219 O 0.52136 0.05336 0.95553 0.0
O220 O 0.52456 0.0694 0.76418 0.0
O221 O 0.51772 0.04148 0.67337 0.0
O222 O 0.56088 0.02271 0.76131 0.0
O223 O 0.54977 1.01248 0.60483 0.0
H224 H 0.48571 0.95021 0.53626 0.0
H225 H 0.44965 0.92756 0.50684 0.0
H226 H 0.43096 0.97659 0.27763 0.0
H227 H 0.46725 0.99848 0.30553 0.0
H228 H 0.55053 0.06529 0.1647 0.0
H229 H 0.58501 0.09016 0.20135 0.0
H230 H 0.6079 0.08385 0.90272 0.0
H231 H 0.57275 0.06081 0.86676 0.0
C232 C 0.54622 0.50577 0.47894 0.0
Eu233 Eu 0.52699 0.51457 0.64593 0.0
C234 C 0.56106 0.48583 0.44705 0.0
C235 C 0.58007 0.47777 0.50409 0.0
C236 C 0.59033 0.45567 0.48614 0.0
C237 C 0.58151 0.44111 0.41193 0.0
C238 C 0.56368 0.45017 0.35058 0.0
C239 C 0.55372 0.47236 0.36765 0.0
C240 C 0.55494 0.51559 0.80723 0.0
C241 C 0.51005 0.47132 0.78282 0.0
C242 C 0.49433 0.5418 0.00196 0.0
Eu243 Eu 0.50122 0.52749 0.82669 0.0
C244 C 0.506 0.56218 0.04747 0.0
C245 C 0.49211 0.58117 0.07976 0.0
C246 C 0.50224 0.6035 0.09219 0.0
C247 C 0.52641 0.60711 0.07249 0.0
C248 C 0.54063 0.58771 0.04758 0.0
C249 C 0.53052 0.56539 0.0357 0.0
C250 C 0.46689 0.52004 0.68875 0.0
C251 C 0.51576 0.57063 0.68395 0.0
O252 O 0.52433 0.50009 0.5002 0.0
O253 O 0.55555 0.52026 0.54216 0.0
O254 O 0.55549 0.49905 0.74247 0.0
O255 O 0.53931 0.53079 0.78488 0.0
O256 O 0.51557 0.47747 0.6928 0.0
O257 O 0.50595 0.48769 0.8494 0.0
O258 O 0.50777 0.52347 0.98176 0.0
O259 O 0.48045 0.54771 0.93001 0.0
O260 O 0.46284 0.52508 0.77861 0.0
O261 O 0.48901 0.51818 0.67627 0.0
O262 O 0.51025 0.56458 0.77369 0.0
O263 O 0.52049 0.55411 0.61864 0.0
H264 H 0.58613 0.48784 0.56603 0.0
H265 H 0.60432 0.44952 0.53352 0.0
H266 H 0.55603 0.43949 0.29356 0.0
H267 H 0.53903 0.47819 0.32313 0.0
H268 H 0.47313 0.57918 0.08803 0.0
H269 H 0.49089 0.6182 0.11179 0.0
H270 H 0.55939 0.58996 0.0344 0.0
H271 H 0.54162 0.55101 0.01113 0.0
C272 C 0.03706 0.53659 0.47189 0.0
Eu273 Eu 0.02063 0.53267 0.64557 0.0
C274 C 0.06001 0.52687 0.44012 0.0
C275 C 0.08055 0.53211 0.49363 0.0
C276 C 0.1011 0.51895 0.4807 0.0
C277 C 0.10173 0.50071 0.41253 0.0
C278 C 0.08191 0.4964 0.35388 0.0
C279 C 0.06098 0.50919 0.36868 0.0
C280 C 1.01342 0.56762 0.78164 0.0
C281 C 0.06279 0.51993 0.79647 0.0
C282 C 0.99777 0.49013 0.00134 0.0
Eu283 Eu 1.00675 0.50806 0.832 0.0
C284 C 0.97854 0.47452 0.03422 0.0
C285 C 0.97129 0.45509 0.97782 0.0
C286 C 0.94954 0.44414 0.99564 0.0
C287 C 0.93453 0.4527 0.06899 0.0
C288 C 0.94295 0.47077 0.13056 0.0
C289 C 0.9648 0.48145 0.11355 0.0
C290 C 1.00806 0.47913 0.67339 0.0
C291 C 0.9643 0.52486 0.6896 0.0
O292 O 0.02109 0.5207 0.49504 0.0
O293 O 0.03816 0.55388 0.5349 0.0
O294 O 0.01864 0.57142 0.69138 0.0
O295 O 1.01124 0.5455 0.79434 0.0
O296 O 0.05733 0.52541 0.70609 0.0
O297 O 0.04603 0.51478 0.86034 0.0
O298 O 0.99103 0.51146 0.97548 0.0
O299 O 1.01313 0.4809 0.94117 0.0
O300 O 0.99188 0.47846 0.73988 0.0
O301 O 0.02308 0.49504 0.69441 0.0
O302 O 0.97006 0.51956 0.78041 0.0
O303 O 0.98085 0.52866 0.62308 0.0
H304 H 0.08054 0.54575 0.54868 0.0
H305 H 0.11656 0.52297 0.52408 0.0
H306 H 0.08244 0.48271 0.29898 0.0
H307 H 0.04535 0.50468 0.32713 0.0
H308 H 0.98164 0.44931 0.9161 0.0
H309 H 0.94389 0.42996 0.94825 0.0
H310 H 0.93193 0.47818 0.18714 0.0
H311 H 0.97006 0.49641 0.15771 0.0
C312 C 0.17465 0.03857 0.32222 0.0
C313 C 0.17714 0.01886 0.26113 0.0
C314 C 0.1558 0.04006 0.38985 0.0
C315 C 0.13921 0.02121 0.39833 0.0
C316 C 0.14206 1.00108 0.33799 0.0
C317 C 0.1607 1.0003 0.26981 0.0
C318 C 0.15339 0.06203 0.45115 0.0
C319 C 0.1254 0.98024 0.34546 0.0
C320 C 0.10509 1.01337 0.63665 0.0
C321 C 0.08214 0.02113 0.61308 0.0
C322 C 0.12362 1.01343 0.56812 0.0
C323 C 0.11953 0.02194 0.47286 0.0
C324 C 0.09645 0.0302 0.44875 0.0
C325 C 0.078 0.02946 0.51866 0.0
C326 C 0.14755 1.0039 0.59745 0.0
C327 C 0.09124 0.0398 0.34892 0.0
H328 H 0.18701 0.05316 0.31487 0.0
H329 H 0.16241 0.98507 0.2225 0.0
H330 H 0.13571 0.07014 0.43951 0.0
H331 H 0.15463 0.05732 0.52909 0.0
H332 H 0.16721 0.07543 0.43425 0.0
H333 H 0.1302 0.96574 0.29476 0.0
H334 H 0.1255 0.97311 0.42051 0.0
H335 H 0.10704 0.986 0.3295 0.0
H336 H 0.10855 1.00677 0.70913 0.0
H337 H 0.06043 0.03553 0.49957 0.0
H338 H 0.16132 0.01769 0.58709 0.0
H339 H 0.15238 0.98869 0.55055 0.0
H340 H 0.14795 0.99796 0.67428 0.0
H341 H 0.10388 0.0542 0.33077 0.0
H342 H 0.07291 0.04679 0.34287 0.0
H343 H 0.09366 0.02563 0.2942 0.0
C344 C 0.53066 0.17537 0.31254 0.0
C345 C 0.51124 0.17806 0.25 0.0
C346 C 0.53199 0.1562 0.37888 0.0
C347 C 0.51326 0.13941 0.38483 0.0
C348 C 0.49336 0.14246 0.32342 0.0
C349 C 0.49271 0.16147 0.25663 0.0
C350 C 0.55379 0.15355 0.44105 0.0
C351 C 0.47271 0.12553 0.32791 0.0
C352 C 0.52354 0.07786 0.501 0.0
C353 C 0.51612 0.08164 0.59676 0.0
C354 C 0.52303 0.09648 0.43165 0.0
C355 C 0.51406 0.11921 0.45734 0.0
C356 C 0.50577 0.12267 0.55332 0.0
C357 C 0.5073 0.10411 0.62166 0.0
C358 C 0.5326 0.0919 0.33146 0.0
C359 C 0.49548 0.14615 0.58447 0.0
H360 H 0.54525 0.18776 0.307 0.0
H361 H 0.47763 0.16331 0.20867 0.0
H362 H 0.54884 0.15409 0.51886 0.0
H363 H 0.56214 0.13606 0.42743 0.0
H364 H 0.56705 0.16767 0.42673 0.0
H365 H 0.45819 0.13072 0.27791 0.0
H366 H 0.47869 0.10741 0.3088 0.0
H367 H 0.46557 0.12477 0.40287 0.0
H368 H 0.53073 0.06071 0.48147 0.0
H369 H 0.50159 0.10724 0.69563 0.0
H370 H 0.54477 0.10633 0.30879 0.0
H371 H 0.51779 0.09143 0.2788 0.0
H372 H 0.54225 0.07478 0.32787 0.0
H373 H 0.50916 0.16018 0.57911 0.0
H374 H 0.48869 0.14567 0.6601 0.0
H375 H 0.48076 0.15126 0.53547 0.0
C376 C 0.36692 0.54273 0.28523 0.0
C377 C 0.35312 0.52283 0.26119 0.0
C378 C 0.38543 0.54138 0.35363 0.0
C379 C 0.39071 0.51951 0.39964 0.0
C380 C 0.37664 0.4994 0.37688 0.0
C381 C 0.35799 0.50132 0.30867 0.0
C382 C 0.39945 0.56345 0.3763 0.0
C383 C 0.38157 0.4757 0.42338 0.0
C384 C 0.45258 0.51373 0.51563 0.0
C385 C 0.44777 0.51842 0.61364 0.0
C386 C 0.4342 0.51342 0.44563 0.0
C387 C 0.4104 0.51806 0.47376 0.0
C388 C 0.40554 0.52247 0.57293 0.0
C389 C 0.42413 0.52251 0.64107 0.0
C390 C 0.44032 0.50848 0.34114 0.0
C391 C 0.38069 0.52776 0.60707 0.0
H392 H 0.36328 0.55949 0.24975 0.0
H393 H 0.34773 0.48576 0.29002 0.0
H394 H 0.3983 0.56743 0.45492 0.0
H395 H 0.41841 0.56058 0.35887 0.0
H396 H 0.39309 0.57914 0.33507 0.0
H397 H 0.3692 0.46172 0.39807 0.0
H398 H 0.39996 0.47009 0.4067 0.0
H399 H 0.38011 0.47714 0.50336 0.0
H400 H 0.47071 0.51056 0.49345 0.0
H401 H 0.42011 0.52619 0.71642 0.0
H402 H 0.43637 0.52433 0.29623 0.0
H403 H 0.42927 0.49374 0.31327 0.0
H404 H 0.45928 0.5038 0.33149 0.0
H405 H 0.37417 0.5442 0.57182 0.0
H406 H 0.37964 0.53005 0.68694 0.0
H407 H 0.36856 0.51322 0.58573 0.0
C408 C 1.00574 0.38683 0.22669 0.0
C409 C 0.0171 0.36506 0.24605 0.0
C410 C 1.00531 0.40546 0.29479 0.0
C411 C 0.01622 0.40254 0.38653 0.0
C412 C 0.02744 0.38055 0.40747 0.0
C413 C 0.02772 0.36215 0.33748 0.0
C414 C 0.99315 0.42841 0.26813 0.0
C415 C 0.03944 0.37658 0.50375 0.0
C416 C 0.03016 0.45882 0.53519 0.0
C417 C 1.01072 0.45997 0.59864 0.0
C418 C 0.0325 0.44011 0.46727 0.0
C419 C 1.01489 0.42211 0.46149 0.0
C420 C 0.99532 0.42328 0.52578 0.0
C421 C 0.99349 0.44204 0.5928 0.0
C422 C 0.05368 0.44001 0.40062 0.0
C423 C 0.97612 0.40466 0.52365 0.0
H424 H 0.99701 0.38937 0.15753 0.0
H425 H 0.03676 0.34568 0.35367 0.0
H426 H 0.97848 0.43202 0.31962 0.0
H427 H 1.00586 0.44334 0.27377 0.0
H428 H 0.98582 0.42813 0.19341 0.0
H429 H 0.04751 0.35868 0.50935 0.0
H430 H 0.05348 0.39008 0.51437 0.0
H431 H 0.02646 0.37875 0.56353 0.0
H432 H 0.0436 0.47251 0.53865 0.0
H433 H 0.97838 0.44261 0.64126 0.0
H434 H 0.04869 0.44845 0.33083 0.0
H435 H 0.05979 0.42174 0.38494 0.0
H436 H 0.06867 0.45013 0.4321 0.0
H437 H 0.96736 0.40468 0.4517 0.0
H438 H 0.96244 0.40759 0.58029 0.0
H439 H 0.98395 0.38682 0.53444 0.0
C440 C 0.86022 0.03295 0.13477 0.0
C441 C 0.85628 1.01172 0.18574 0.0
C442 C 0.87914 0.03522 0.06782 0.0
C443 C 0.89452 1.01575 0.05002 0.0
C444 C 0.89025 0.99414 0.09962 0.0
C445 C 0.87137 0.99242 0.16644 0.0
C446 C 0.88295 0.05865 0.01728 0.0
C447 C 0.90578 0.97275 0.08252 0.0
C448 C 0.9292 1.01368 0.81092 0.0
C449 C 0.95218 0.02023 0.83893 0.0
C450 C 0.91049 1.01213 0.87842 0.0
C451 C 0.91452 0.01763 0.97729 0.0
C452 C 0.93772 0.02445 0.00611 0.0
C453 C 0.95621 0.02571 0.9367 0.0
C454 C 0.88632 1.00456 0.84361 0.0
C455 C 0.94296 0.03063 0.11024 0.0
H456 H 0.84899 0.04808 0.14968 0.0
H457 H 0.86848 0.97584 0.20447 0.0
H458 H 0.90084 0.06555 0.03453 0.0
H459 H 0.88212 0.05622 0.93756 0.0
H460 H 0.86959 0.0721 0.03873 0.0
H461 H 0.90026 0.95724 0.12681 0.0
H462 H 0.90523 0.96771 0.00484 0.0
H463 H 0.92445 0.97706 0.10007 0.0
H464 H 0.92582 1.00963 0.73538 0.0
H465 H 0.9737 0.03143 0.95861 0.0
H466 H 0.87314 0.01862 0.85933 0.0
H467 H 0.88059 0.98839 0.88309 0.0
H468 H 0.88604 1.00081 0.76458 0.0
H469 H 0.93154 0.04557 0.13363 0.0
H470 H 0.96178 0.03567 0.12129 0.0
H471 H 0.9388 1.01532 0.15789 0.0
C472 C 0.53084 0.86664 0.1717 0.0
C473 C 0.51119 0.8642 0.23354 0.0
C474 C 0.5321 0.88508 0.10195 0.0
C475 C 0.51315 0.9015 0.09215 0.0
C476 C 0.49316 0.89892 0.15362 0.0
C477 C 0.49246 0.88049 0.22306 0.0
C478 C 0.5539 0.88714 0.03915 0.0
C479 C 0.47231 0.91557 0.14576 0.0
C480 C 0.52196 0.96097 0.95682 0.0
C481 C 0.51369 0.95549 0.86357 0.0
C482 C 0.52213 0.94364 0.03173 0.0
C483 C 0.51352 0.92034 0.0137 0.0
C484 C 0.50489 0.91499 0.91987 0.0
C485 C 0.50525 0.93242 0.84656 0.0
C486 C 0.53166 0.95023 0.13012 0.0
C487 C 0.49507 0.89076 0.89668 0.0
H488 H 0.54559 0.85451 0.17967 0.0
H489 H 0.47706 0.8788 0.2695 0.0
H490 H 0.54903 0.88489 0.96183 0.0
H491 H 0.56173 0.90507 0.04676 0.0
H492 H 0.56754 0.87373 0.05804 0.0
H493 H 0.45821 0.91147 0.1995 0.0
H494 H 0.47819 0.93412 0.157 0.0
H495 H 0.46461 0.91456 0.0719 0.0
H496 H 0.52851 0.97866 0.97097 0.0
H497 H 0.49868 0.92791 0.77512 0.0
H498 H 0.54611 0.93791 0.15091 0.0
H499 H 0.51751 0.94847 0.18551 0.0
H500 H 0.53855 0.96867 0.13193 0.0
H501 H 0.50886 0.87706 0.9083 0.0
H502 H 0.48868 0.88946 0.82073 0.0
H503 H 0.48014 0.88658 0.94621 0.0
C504 C 0.65119 0.53094 0.23847 0.0
C505 C 0.6744 0.53269 0.20188 0.0
C506 C 0.63153 0.52754 0.17683 0.0
C507 C 0.63486 0.52616 0.07503 0.0
C508 C 0.65831 0.52737 0.03775 0.0
C509 C 0.67773 0.53043 0.10138 0.0
C510 C 0.6071 0.52581 0.2208 0.0
C511 C 0.66284 0.52618 0.93004 0.0
C512 C 0.58635 0.49871 0.9158 0.0
C513 C 0.57435 0.51869 0.87993 0.0
C514 C 0.60573 0.50086 0.97977 0.0
C515 C 0.61384 0.52363 0.00785 0.0
C516 C 0.60179 0.54391 0.97155 0.0
C517 C 0.5822 0.54121 0.90859 0.0
C518 C 0.61759 0.47868 0.01704 0.0
C519 C 0.60968 0.56856 0.99874 0.0
H520 H 0.64835 0.53253 0.31594 0.0
H521 H 0.69546 0.53205 0.07201 0.0
H522 H 0.59601 0.54077 0.19493 0.0
H523 H 0.59834 0.5092 0.19723 0.0
H524 H 0.6075 0.52615 0.30132 0.0
H525 H 0.68201 0.52692 0.91226 0.0
H526 H 0.65535 0.50959 0.89994 0.0
H527 H 0.65379 0.54117 0.89332 0.0
H528 H 0.58051 0.48124 0.89369 0.0
H529 H 0.57331 0.55676 0.88014 0.0
H530 H 0.61726 0.47846 0.09748 0.0
H531 H 0.63644 0.47846 0.99439 0.0
H532 H 0.60893 0.4623 0.99011 0.0
H533 H 0.60646 0.57149 0.07716 0.0
H534 H 0.60014 0.58246 0.95711 0.0
H535 H 0.62896 0.57062 0.9859 0.0
C536 C 0.03661 0.66744 0.18713 0.0
C537 C 0.01688 0.68161 0.21021 0.0
C538 C 0.03526 0.64898 0.11834 0.0
C539 C 1.01354 0.64409 0.07081 0.0
C540 C 0.99361 0.65853 0.09258 0.0
C541 C 0.99555 0.67711 0.1612 0.0
C542 C 0.05716 0.63457 0.09688 0.0
C543 C 0.97007 0.65407 0.04454 0.0
C544 C 0.01678 0.61043 0.82936 0.0
C545 C 1.01204 0.58687 0.85663 0.0
C546 C 0.01692 0.62907 0.89749 0.0
C547 C 1.01205 0.62436 0.99655 0.0
C548 C 1.0068 0.60063 0.02448 0.0
C549 C 1.00695 0.58221 0.95454 0.0
C550 C 0.02286 0.65382 0.86345 0.0
C551 C 1.00134 0.59463 0.12873 0.0
H552 H 0.05328 0.67076 0.22353 0.0
H553 H 0.98009 0.68764 0.17891 0.0
H554 H 0.05389 0.61564 0.11401 0.0
H555 H 0.06149 0.6357 0.0185 0.0
H556 H 0.07275 0.64065 0.13905 0.0
H557 H 0.95623 0.66672 0.06896 0.0
H558 H 0.97192 0.65552 0.96466 0.0
H559 H 0.96404 0.63578 0.06082 0.0
H560 H 0.02079 0.61435 0.75414 0.0
H561 H 1.00329 0.56414 0.9767 0.0
H562 H 0.03925 0.66002 0.89965 0.0
H563 H 1.00849 0.66625 0.88379 0.0
H564 H 0.02553 0.65478 0.78372 0.0
H565 H 0.01703 0.59837 0.17451 0.0
H566 H 0.99634 0.57572 0.13832 0.0
H567 H 0.98666 0.60592 0.1556 0.0
C568 C 0.95527 0.23947 0.31304 0.0
C569 C 0.98006 0.23895 0.3141 0.0
C570 C 0.9423 0.22045 0.35201 0.0
C571 C 0.95473 0.20048 0.38747 0.0
C572 C 0.97934 0.20235 0.40621 0.0
C573 C 0.99166 0.2221 0.37131 0.0
C574 C 0.91578 0.22007 0.34092 0.0
C575 C 0.99335 0.18199 0.44841 0.0
C576 C 0.93951 0.13841 0.45961 0.0
C577 C 0.94503 0.12666 0.37269 0.0
C578 C 0.93861 0.16325 0.46307 0.0
C579 C 0.94435 0.17639 0.37881 0.0
C580 C 0.94619 0.16447 0.28834 0.0
C581 C 0.94593 0.13972 0.28655 0.0
C582 C 0.93406 0.17508 0.55928 0.0
C583 C 0.9523 0.17702 0.19468 0.0
H584 H 0.94622 0.25286 0.27046 0.0
H585 H 1.01086 0.22215 0.37361 0.0
H586 H 0.91107 0.21164 0.27094 0.0
H587 H 0.90739 0.20968 0.40015 0.0
H588 H 0.90844 0.23833 0.34088 0.0
H589 H 1.01206 0.18689 0.46283 0.0
H590 H 0.98526 0.176 0.51738 0.0
H591 H 0.99317 0.1668 0.39738 0.0
H592 H 0.9381 0.12853 0.52681 0.0
H593 H 0.94907 0.13063 0.21851 0.0
H594 H 0.9189 0.16639 0.59633 0.0
H595 H 0.93019 0.19427 0.55147 0.0
H596 H 0.94971 0.17281 0.60699 0.0
H597 H 0.94564 0.19542 0.19164 0.0
H598 H 0.94509 0.1673 0.13127 0.0
H599 H 0.97184 0.17732 0.18673 0.0
C600 C 0.3009 0.9593 0.32748 0.0
C601 C 0.30342 0.98398 0.32307 0.0
C602 C 0.31874 0.94532 0.36951 0.0
C603 C 0.33963 0.95647 0.40283 0.0
C604 C 0.33991 0.98144 0.4148 0.0
C605 C 0.32138 0.9949 0.37637 0.0
C606 C 0.31644 0.91873 0.36683 0.0
C607 C 0.36137 0.99429 0.45346 0.0
C608 C 0.40029 0.93814 0.47951 0.0
C609 C 0.41236 0.94154 0.39129 0.0
C610 C 0.37547 0.93879 0.48311 0.0
C611 C 0.36275 0.94397 0.39745 0.0
C612 C 0.37469 0.94343 0.30675 0.0
C613 C 0.39938 0.94161 0.30496 0.0
C614 C 0.36334 0.93655 0.58018 0.0
C615 C 0.36204 0.94831 0.21231 0.0
H616 H 0.28663 0.95081 0.28808 0.0
H617 H 0.32291 1.01406 0.37421 0.0
H618 H 0.32036 0.91222 0.2927 0.0
H619 H 0.32867 0.90998 0.41869 0.0
H620 H 0.29798 0.91342 0.38429 0.0
H621 H 0.35813 1.01358 0.46257 0.0
H622 H 0.36659 0.98687 0.52463 0.0
H623 H 0.37651 0.99197 0.40291 0.0
H624 H 0.41003 0.93732 0.54707 0.0
H625 H 0.40865 0.94294 0.23626 0.0
H626 H 0.34398 0.93372 0.57305 0.0
H627 H 0.36651 0.95278 0.62354 0.0
H628 H 0.37106 0.9215 0.62144 0.0
H629 H 0.37365 0.94551 0.14823 0.0
H630 H 0.3559 0.96696 0.21125 0.0
H631 H 0.34633 0.93673 0.20485 0.0
C632 C 0.57591 0.30385 0.3133 0.0
C633 C 0.55114 0.30386 0.30928 0.0
C634 C 0.58795 0.32241 0.35976 0.0
C635 C 0.57472 0.34156 0.39767 0.0
C636 C 0.54988 0.33924 0.4087 0.0
C637 C 0.53841 0.31998 0.36582 0.0
C638 C 0.6146 0.32312 0.35642 0.0
C639 C 0.53498 0.3588 0.45168 0.0
C640 C 0.5908 0.40202 0.49133 0.0
C641 C 0.58796 0.41557 0.40637 0.0
C642 C 0.58993 0.37716 0.48847 0.0
C643 C 0.58504 0.36578 0.39946 0.0
C644 C 0.58502 0.37925 0.31232 0.0
C645 C 0.58722 0.4039 0.31696 0.0
C646 C 0.59211 0.36357 0.58236 0.0
C647 C 0.57938 0.3683 0.21508 0.0
H648 H 0.5858 0.29111 0.27061 0.0
H649 H 0.51921 0.31966 0.3633 0.0
H650 H 0.62184 0.33257 0.42041 0.0
H651 H 0.62211 0.30493 0.35392 0.0
H652 H 0.62048 0.33267 0.29026 0.0
H653 H 0.51622 0.35338 0.46169 0.0
H654 H 0.54215 0.36418 0.52293 0.0
H655 H 0.53544 0.37454 0.40326 0.0
H656 H 0.59184 0.41066 0.56126 0.0
H657 H 0.58617 0.41418 0.25063 0.0
H658 H 0.59524 0.34438 0.57063 0.0
H659 H 0.57572 0.36585 0.62578 0.0
H660 H 0.60691 0.37086 0.6261 0.0
H661 H 0.5897 0.3519 0.20302 0.0
H662 H 0.58298 0.38063 0.15389 0.0
H663 H 0.56032 0.36364 0.21327 0.0
C664 C 0.23369 0.47584 0.34633 0.0
C665 C 0.2358 0.4619 0.26265 0.0
C666 C 0.21279 0.47512 0.40127 0.0
C667 C 0.19435 0.45977 0.37188 0.0
C668 C 0.19942 0.44142 0.30536 0.0
C669 C 0.22046 0.44254 0.25138 0.0
C670 C 0.20869 0.49397 0.47679 0.0
C671 C 0.18093 0.42337 0.27849 0.0
C672 C 0.13283 0.47282 0.47178 0.0
C673 C 0.12389 0.4876 0.39872 0.0
C674 C 0.15541 0.46256 0.46299 0.0
C675 C 0.1695 0.46814 0.38106 0.0
C676 C 0.1602 0.48312 0.30721 0.0
C677 C 0.13736 0.49226 0.31645 0.0
C678 C 0.16414 0.44658 0.54309 0.0
C679 C 0.17431 0.49 0.21847 0.0
H680 H 0.24605 0.49024 0.35821 0.0
H681 H 0.22264 0.43098 0.18929 0.0
H682 H 0.19817 0.5086 0.44449 0.0
H683 H 0.19857 0.48672 0.53903 0.0
H684 H 0.22565 0.50143 0.50375 0.0
H685 H 0.18922 0.40705 0.24889 0.0
H686 H 0.16985 0.41865 0.34221 0.0
H687 H 0.16919 0.43093 0.22185 0.0
H688 H 0.12228 0.46955 0.53621 0.0
H689 H 0.13036 0.50407 0.26148 0.0
H690 H 0.17174 0.45759 0.60187 0.0
H691 H 0.17794 0.43404 0.51769 0.0
H692 H 0.14927 0.43629 0.57494 0.0
H693 H 0.19274 0.49472 0.23762 0.0
H694 H 0.16657 0.50543 0.17992 0.0
H695 H 0.1746 0.47479 0.16773 0.0
C696 C 0.97162 0.79969 0.11922 0.0
C697 C 0.9568 0.79824 0.20077 0.0
C698 C 0.97134 0.82007 0.06085 0.0
C699 C 0.95552 0.83859 0.08457 0.0
C700 C 0.9364 0.83387 0.14802 0.0
C701 C 0.93723 0.8135 0.20635 0.0
C702 C 0.991 0.82371 0.98829 0.0
C703 C 0.91774 0.85231 0.1677 0.0
C704 C 0.98602 0.89607 0.14796 0.0
C705 C 0.98289 0.90962 0.06431 0.0
C706 C 0.97739 0.87301 0.15417 0.0
C707 C 0.9641 0.8634 0.07616 0.0
C708 C 0.95999 0.87732 0.99238 0.0
C709 C 0.96982 0.90017 0.98673 0.0
C710 C 0.9826 0.85923 0.24559 0.0
C711 C 0.94578 0.86828 0.90763 0.0
H712 H 0.98622 0.78735 0.11168 0.0
H713 H 0.92501 0.81179 0.26665 0.0
H714 H 0.98434 0.83304 0.92302 0.0
H715 H 1.00504 0.83484 0.02128 0.0
H716 H 0.99904 0.80661 0.96582 0.0
H717 H 0.9011 0.84399 0.19401 0.0
H718 H 0.92418 0.86457 0.22472 0.0
H719 H 0.91396 0.86287 0.10145 0.0
H720 H 0.99549 0.90346 0.20903 0.0
H721 H 0.96757 0.91043 0.92082 0.0
H722 H 0.98808 0.84086 0.22882 0.0
H723 H 0.9664 0.85885 0.29096 0.0
H724 H 0.99697 0.86737 0.28904 0.0
H725 H 0.93548 0.88291 0.87394 0.0
H726 H 0.9334 0.85389 0.9286 0.0
H727 H 0.95805 0.86141 0.85146 0.0
C728 C 0.72766 0.06466 0.108 0.0
C729 C 0.7391 0.07491 0.18738 0.0
C730 C 0.70727 0.07519 0.06922 0.0
C731 C 0.69891 0.09673 0.10941 0.0
C732 C 0.71363 0.10957 0.17344 0.0
C733 C 0.73355 0.09828 0.21324 0.0
C734 C 0.6927 0.06131 0.99738 0.0
C735 C 0.70633 0.13347 0.21171 0.0
C736 C 0.63743 0.11044 0.01533 0.0
C737 C 0.62364 0.09731 0.08131 0.0
C738 C 0.66204 0.11267 0.0279 0.0
C739 C 0.67297 0.1014 0.10789 0.0
C740 C 0.65866 0.09071 0.18041 0.0
C741 C 0.63429 0.08873 0.16594 0.0
C742 C 0.67623 0.12555 0.95159 0.0
C743 C 0.66907 0.07879 0.2686 0.0
H744 H 0.73215 0.04667 0.08743 0.0
H745 H 0.74261 0.10636 0.27407 0.0
H746 H 0.67713 0.05351 0.03492 0.0
H747 H 0.68604 0.07307 0.93903 0.0
H748 H 0.70302 0.0467 0.96385 0.0
H749 H 0.72197 0.14378 0.23619 0.0
H750 H 0.69668 0.14378 0.15566 0.0
H751 H 0.69435 0.13106 0.2748 0.0
H752 H 0.62926 0.11785 0.95099 0.0
H753 H 0.62402 0.07846 0.21744 0.0
H754 H 0.69359 0.13169 0.97949 0.0
H755 H 0.66621 0.14108 0.92375 0.0
H756 H 0.67941 0.11352 0.88941 0.0
H757 H 0.67701 0.06166 0.24633 0.0
H758 H 0.65548 0.07513 0.32491 0.0
H759 H 0.68295 0.08994 0.30198 0.0
C760 C 0.54944 0.74217 0.1204 0.0
C761 C 0.56499 0.7436 0.19936 0.0
C762 C 0.54851 0.72141 0.06473 0.0
C763 C 0.56363 0.70234 0.0894 0.0
C764 C 0.58325 0.70657 0.15058 0.0
C765 C 0.58402 0.72766 0.20396 0.0
C766 C 0.52825 0.71815 0.99501 0.0
C767 C 0.60072 0.68722 0.17428 0.0
C768 C 0.53113 0.64587 0.15395 0.0
C769 C 0.53651 0.63121 0.07579 0.0
C770 C 0.53966 0.66903 0.15809 0.0
C771 C 0.55434 0.67779 0.08216 0.0
C772 C 0.55998 0.66297 0.00275 0.0
C773 C 0.55088 0.63979 1.00033 0.0
C774 C 0.53342 0.68356 0.24634 0.0
C775 C 0.57518 0.67154 0.91972 0.0
H776 H 0.53524 0.755 0.11354 0.0
H777 H 0.59678 0.72936 0.26225 0.0
H778 H 0.53343 0.70658 0.93369 0.0
H779 H 0.51325 0.70956 0.03359 0.0
H780 H 0.52201 0.73544 0.96602 0.0
H781 H 0.61775 0.6947 0.20035 0.0
H782 H 0.59329 0.67587 0.23271 0.0
H783 H 0.60417 0.67585 0.11026 0.0
H784 H 0.52028 0.63909 0.21268 0.0
H785 H 0.5547 0.62851 0.93871 0.0
H786 H 0.52951 0.70221 0.22741 0.0
H787 H 0.54863 0.68311 0.297 0.0
H788 H 0.51776 0.67637 0.28526 0.0
H789 H 0.56425 0.68242 0.86993 0.0
H790 H 0.58264 0.65654 0.8775 0.0
H791 H 0.58994 0.68282 0.9457 0.0
C792 C 0.816 0.49986 0.10103 0.0
C793 C 0.79855 0.48791 0.15379 0.0
C794 C 0.83508 0.48741 0.06138 0.0
C795 C 0.83589 0.46242 0.07165 0.0
C796 C 0.81567 0.45017 0.1057 0.0
C797 C 0.79729 0.46315 0.14915 0.0
C798 C 0.85596 0.50133 0.02327 0.0
C799 C 0.81493 0.42349 0.10874 0.0
C800 C 0.89609 0.4437 0.98533 0.0
C801 C 0.90903 0.44614 0.07186 0.0
C802 C 0.8713 0.44541 0.9853 0.0
C803 C 0.85945 0.45073 0.07294 0.0
C804 C 0.87216 0.45002 0.16171 0.0
C805 C 0.89672 0.44698 0.15992 0.0
C806 C 0.85837 0.44395 0.88985 0.0
C807 C 0.86072 0.45601 0.25771 0.0
H808 H 0.81672 0.51906 0.10444 0.0
H809 H 0.78357 0.45391 0.18928 0.0
H810 H 0.87077 0.50028 0.07597 0.0
H811 H 0.86226 0.49379 0.95387 0.0
H812 H 0.85156 0.52031 0.01137 0.0
H813 H 0.79638 0.41694 0.10817 0.0
H814 H 0.82464 0.41579 0.04626 0.0
H815 H 0.82345 0.41709 0.17632 0.0
H816 H 0.90522 0.44255 0.91638 0.0
H817 H 0.90652 0.44771 0.22738 0.0
H818 H 0.86089 0.4607 0.84882 0.0
H819 H 0.83912 0.44079 0.89957 0.0
H820 H 0.8659 0.42947 0.84491 0.0
H821 H 0.85794 0.47545 0.26115 0.0
H822 H 0.872 0.45083 0.32021 0.0
H823 H 0.8433 0.44725 0.26606 0.0
C824 C 0.03455 0.20708 0.97334 0.0
C825 C 1.0123 0.21627 0.99896 0.0
C826 C 0.03674 0.18455 0.92819 0.0
C827 C 0.01628 0.17057 0.90917 0.0
C828 C 0.99377 0.18042 0.93047 0.0
C829 C 0.9921 0.20298 0.97402 0.0
C830 C 0.0611 0.17516 0.9056 0.0
C831 C 0.97136 0.16647 0.91346 0.0
C832 C 0.01715 0.11499 0.74556 0.0
C833 C 0.01911 0.09636 0.8132 0.0
C834 C 0.01694 0.13909 0.77499 0.0
C835 C 0.01824 0.14503 0.87498 0.0
C836 C 0.02014 0.12629 0.94346 0.0
C837 C 0.02077 0.10244 0.91196 0.0
C838 C 1.01498 0.1582 0.6988 0.0
C839 C 0.02095 0.13137 0.05087 0.0
H840 H 0.05029 0.21683 0.99371 0.0
H841 H 0.97482 0.20968 0.99458 0.0
H842 H 0.06533 0.16034 0.95567 0.0
H843 H 0.0617 0.16804 0.83069 0.0
H844 H 0.07495 0.189 0.91325 0.0
H845 H 0.9552 0.17722 0.92659 0.0
H846 H 0.97085 0.15968 0.8381 0.0
H847 H 0.97096 0.15091 0.96277 0.0
H848 H 0.01586 0.11078 0.66912 0.0
H849 H 0.02208 0.08844 0.96559 0.0
H850 H 0.02886 0.17184 0.70989 0.0
H851 H 0.99758 0.16718 0.70524 0.0
H852 H 0.01667 0.15102 0.62418 0.0
H853 H 0.02279 0.11499 0.09504 0.0
H854 H 1.00451 0.14064 0.0734 0.0
H855 H 0.036 0.14331 0.06739 0.0
C856 C 0.33573 0.99433 0.97326 0.0
C857 C 0.32366 1.01489 0.00296 0.0
C858 C 0.35824 0.99537 0.92897 0.0
C859 C 0.36928 0.0176 0.91268 0.0
C860 C 0.35651 0.03853 0.93668 0.0
C861 C 0.334 0.03694 0.98213 0.0
C862 C 0.37092 0.97249 0.90617 0.0
C863 C 0.36723 0.06265 0.9197 0.0
C864 C 0.43737 0.01902 0.91604 0.0
C865 C 0.44337 0.0189 0.81696 0.0
C866 C 0.41354 0.01873 0.94759 0.0
C867 C 0.39482 0.01872 0.8789 0.0
C868 C 0.40072 0.01884 0.77873 0.0
C869 C 0.42476 0.01873 0.74913 0.0
C870 C 0.40841 0.01805 0.05506 0.0
C871 C 0.38158 0.01888 0.70252 0.0
H872 H 0.32817 0.97719 0.99103 0.0
H873 H 0.32521 0.05289 0.00685 0.0
H874 H 0.37792 0.97281 0.83102 0.0
H875 H 0.38624 0.97037 0.95571 0.0
H876 H 0.35921 0.9568 0.91457 0.0
H877 H 0.35417 0.07711 0.93065 0.0
H878 H 0.38218 0.06536 0.9706 0.0
H879 H 0.37446 0.06392 0.84501 0.0
H880 H 0.45138 0.01897 0.96964 0.0
H881 H 0.42895 0.01867 0.67243 0.0
H882 H 0.39822 1.00182 0.07325 0.0
H883 H 0.39733 0.03347 0.07575 0.0
H884 H 0.42481 0.01826 0.09942 0.0
H885 H 0.38889 0.02078 0.62808 0.0
H886 H 0.36896 0.03359 0.71598 0.0
H887 H 0.37139 1.00211 0.70651 0.0
C888 C 0.49659 0.33417 0.96923 0.0
C889 C 0.51916 0.32535 0.99193 0.0
C890 C 0.49369 0.3567 0.92454 0.0
C891 C 0.51379 0.37103 0.90307 0.0
C892 C 0.5366 0.36149 0.92089 0.0
C893 C 0.53896 0.33893 0.96411 0.0
C894 C 0.46902 0.36574 0.9055 0.0
C895 C 0.55866 0.37582 0.90082 0.0
C896 C 0.51112 0.42721 0.743 0.0
C897 C 0.50969 0.4455 0.81206 0.0
C898 C 0.51168 0.40301 0.77094 0.0
C899 C 0.51117 0.39663 0.87067 0.0
C900 C 0.5096 0.41502 0.94051 0.0
C901 C 0.5087 0.439 0.91058 0.0
C902 C 0.51318 0.38423 0.69352 0.0
C903 C 0.50952 0.40943 0.04763 0.0
H904 H 0.48115 0.32417 0.99182 0.0
H905 H 0.55648 0.33248 0.98235 0.0
H906 H 0.46481 0.38013 0.95743 0.0
H907 H 0.46781 0.37334 0.83138 0.0
H908 H 0.45551 0.35157 0.91344 0.0
H909 H 0.57507 0.36526 0.91104 0.0
H910 H 0.55842 0.38284 0.82567 0.0
H911 H 0.55926 0.39124 0.95056 0.0
H912 H 0.51189 0.43179 0.66672 0.0
H913 H 0.50776 0.45274 0.96518 0.0
H914 H 0.49886 0.371 0.70374 0.0
H915 H 0.53026 0.37465 0.69963 0.0
H916 H 0.5118 0.39181 0.61934 0.0
H917 H 0.49479 0.39714 0.06513 0.0
H918 H 0.50765 0.42557 0.09297 0.0
H919 H 0.52626 0.40037 0.06773 0.0
C920 C 0.19877 0.48831 0.92215 0.0
C921 C 0.21036 0.5054 0.97916 0.0
C922 C 0.17558 0.49187 0.88686 0.0
C923 C 0.16323 0.51309 0.90884 0.0
C924 C 0.17531 0.53097 0.96188 0.0
C925 C 0.19861 0.52692 0.99644 0.0
C926 C 0.16373 0.47219 0.83108 0.0
C927 C 0.16318 0.554 0.98638 0.0
C928 C 0.10657 0.52661 0.76343 0.0
C929 C 0.08846 0.51896 0.82634 0.0
C930 C 0.13076 0.52525 0.78958 0.0
C931 C 0.13738 0.51582 0.88112 0.0
C932 C 0.11915 0.5082 0.94513 0.0
C933 C 0.09511 0.51 0.91747 0.0
C934 C 0.14925 0.53357 0.71814 0.0
C935 C 0.12494 0.49835 0.0439 0.0
H936 H 0.20748 0.47147 0.90955 0.0
H937 H 0.20704 0.54002 0.04218 0.0
H938 H 0.14906 0.4647 0.87514 0.0
H939 H 0.1559 0.47915 0.76303 0.0
H940 H 0.17622 0.45767 0.81264 0.0
H941 H 0.17565 0.56717 0.01741 0.0
H942 H 0.15481 0.56172 0.92077 0.0
H943 H 0.14892 0.55064 0.04003 0.0
H944 H 0.10188 0.53377 0.69331 0.0
H945 H 0.08149 0.50408 0.96737 0.0
H946 H 0.15862 0.518 0.68754 0.0
H947 H 0.16265 0.54481 0.75468 0.0
H948 H 0.14137 0.54379 0.65731 0.0
H949 H 0.13918 0.48485 0.03906 0.0
H950 H 0.10929 0.49024 0.07986 0.0
H951 H 0.13142 0.513 0.0901 0.0
C952 C 0.97816 0.83795 0.53708 0.0
C953 C 0.99647 0.82481 0.49298 0.0
C954 C 0.98179 0.86108 0.57335 0.0
C955 C 1.0045 0.87173 0.5676 0.0
C956 C 0.02347 0.85799 0.52929 0.0
C957 C 0.01924 0.83488 0.4921 0.0
C958 C 0.9608 0.87469 0.6119 0.0
C959 C 0.04812 0.86812 0.52338 0.0
C960 C 1.00732 0.93994 0.55055 0.0
C961 C 1.01193 0.94691 0.64659 0.0
C962 C 1.00507 0.9158 0.52436 0.0
C963 C 1.00781 0.89765 0.59507 0.0
C964 C 1.01265 0.90452 0.6922 0.0
C965 C 1.01452 0.92887 0.71669 0.0
C966 C 0.9995 0.90978 0.42041 0.0
C967 C 0.01579 0.88612 0.77068 0.0
H968 H 0.96046 0.83053 0.53857 0.0
H969 H 0.03352 0.82527 0.45737 0.0
H970 H 0.96514 0.88328 0.68189 0.0
H971 H 0.95612 0.88897 0.55988 0.0
H972 H 0.94505 0.86319 0.62251 0.0
H973 H 0.06146 0.85443 0.50429 0.0
H974 H 0.04864 0.88226 0.46741 0.0
H975 H 0.05312 0.8763 0.59352 0.0
H976 H 1.00519 0.95345 0.49528 0.0
H977 H 0.01805 0.93376 0.79124 0.0
H978 H 0.98343 0.89849 0.41692 0.0
H979 H 1.01436 0.89955 0.3887 0.0
H980 H 0.99654 0.92581 0.37513 0.0
H981 H 0.99944 0.87539 0.77819 0.0
H982 H 0.01992 0.89415 0.84217 0.0
H983 H 0.03029 0.8738 0.75054 0.0
C984 C 0.69947 0.0472 0.50717 0.0
C985 C 0.71228 0.02836 0.46539 0.0
C986 C 0.67659 0.04408 0.54597 0.0
C987 C 0.66615 0.02125 0.54762 0.0
C988 C 0.67975 1.00173 0.51331 0.0
C989 C 0.70247 1.00552 0.47166 0.0
C990 C 0.66296 0.06563 0.57903 0.0
C991 C 0.66986 0.97694 0.51644 0.0
C992 C 0.61034 1.0158 0.70735 0.0
C993 C 0.5919 0.01735 0.63911 0.0
C994 C 0.63444 1.01597 0.67863 0.0
C995 C 0.64056 0.0184 0.57914 0.0
C996 C 0.62199 0.01992 0.51002 0.0
C997 C 0.59809 0.01909 0.54052 0.0
C998 C 0.65338 1.01378 0.75515 0.0
C999 C 0.62734 0.02308 0.40353 0.0
H1000 H 0.70684 0.06493 0.50382 0.0
H1001 H 0.71194 0.99081 0.43937 0.0
H1002 H 0.6473 0.06823 0.53163 0.0
H1003 H 0.65634 0.06308 0.65403 0.0
H1004 H 0.67385 0.08202 0.57678 0.0
H1005 H 0.68367 0.9634 0.50171 0.0
H1006 H 0.66178 0.97326 0.58831 0.0
H1007 H 0.65573 0.97513 0.46121 0.0
H1008 H 0.60596 1.0143 0.78365 0.0
H1009 H 0.58417 0.02042 0.48678 0.0
H1010 H 0.66328 0.03069 0.76089 0.0
H1011 H 0.66629 0.99984 0.73457 0.0
H1012 H 0.64591 1.00942 0.82757 0.0
H1013 H 0.63814 0.03927 0.39251 0.0
H1014 H 0.61104 0.02457 0.35898 0.0
H1015 H 0.63791 1.00788 0.37673 0.0
C1016 C 0.54739 0.70664 0.54847 0.0
C1017 C 0.5288 0.71901 0.50302 0.0
C1018 C 0.54442 0.68343 0.58523 0.0
C1019 C 0.5222 0.67188 0.5773 0.0
C1020 C 0.50294 0.68481 0.53694 0.0
C1021 C 0.50647 0.70807 0.50004 0.0
C1022 C 0.56566 0.67067 0.62629 0.0
C1023 C 0.47882 0.67361 0.52786 0.0
C1024 C 0.52246 0.60364 0.56128 0.0
C1025 C 0.51699 0.59656 0.65654 0.0
C1026 C 0.52399 0.62786 0.53484 0.0
C1027 C 0.51976 0.64587 0.60467 0.0
C1028 C 0.51416 0.63885 0.70102 0.0
C1029 C 0.51286 0.61447 0.72561 0.0
C1030 C 0.5301 0.63413 0.43142 0.0
C1031 C 0.50958 0.65712 0.77855 0.0
H1032 H 0.56482 0.71467 0.54998 0.0
H1033 H 0.49209 0.71708 0.46331 0.0
H1034 H 0.56108 0.6616 0.6952 0.0
H1035 H 0.57152 0.65686 0.57434 0.0
H1036 H 0.58072 0.68289 0.63973 0.0
H1037 H 0.46504 0.68675 0.50767 0.0
H1038 H 0.47936 0.65966 0.47133 0.0
H1039 H 0.47365 0.66497 0.59707 0.0
H1040 H 0.52568 0.59021 0.50682 0.0
H1041 H 0.50868 0.60948 0.79961 0.0
H1042 H 0.54499 0.64694 0.42919 0.0
H1043 H 0.5146 0.64274 0.39692 0.0
H1044 H 0.535 0.61833 0.38784 0.0
H1045 H 0.52519 0.66888 0.78639 0.0
H1046 H 0.50566 0.64895 0.85017 0.0
H1047 H 0.49441 0.66846 0.75708 0.0
C1048 C 0.83182 0.49832 0.50489 0.0
C1049 C 0.81911 0.51844 0.47399 0.0
C1050 C 0.85423 0.50016 0.54945 0.0
C1051 C 0.86444 0.52276 0.56567 0.0
C1052 C 0.85091 0.54321 0.54161 0.0
C1053 C 0.82854 0.54083 0.49576 0.0
C1054 C 0.86769 0.47774 0.57261 0.0
C1055 C 0.86068 0.5677 0.55894 0.0
C1056 C 0.9201 0.52491 0.7278 0.0
C1057 C 0.93861 0.5255 0.65936 0.0
C1058 C 0.89601 0.52474 0.69892 0.0
C1059 C 0.88997 0.52474 0.59891 0.0
C1060 C 0.9086 0.5254 0.52969 0.0
C1061 C 0.93245 0.52597 0.5605 0.0
C1062 C 0.87698 0.52422 0.7757 0.0
C1063 C 0.90335 0.52493 0.42236 0.0
H1064 H 0.82485 0.4809 0.48817 0.0
H1065 H 0.8192 0.55651 0.4712 0.0
H1066 H 0.88321 0.47626 0.52357 0.0
H1067 H 0.87448 0.47823 0.64798 0.0
H1068 H 0.8566 0.46163 0.56382 0.0
H1069 H 0.84701 0.58164 0.54896 0.0
H1070 H 0.868 0.56906 0.63336 0.0
H1071 H 0.8754 0.57116 0.50747 0.0
H1072 H 0.92442 0.52453 0.80432 0.0
H1073 H 0.94637 0.52625 0.50637 0.0
H1074 H 0.88431 0.52661 0.84974 0.0
H1075 H 0.86751 0.50702 0.77305 0.0
H1076 H 0.86373 0.53834 0.76184 0.0
H1077 H 0.91967 0.52596 0.3775 0.0
H1078 H 0.89164 0.53996 0.40266 0.0
H1079 H 0.8938 0.50836 0.40381 0.0
loop_
_geom_bond_atom_site_label_1
_geom_bond_atom_site_label_2
_geom_bond_distance
_geom_bond_site_symmetry_2
_ccdc_geom_bond_type
H0 C1 0.949 . S
C1 H0 0.949 . S
C1 C2 1.395 . S
C1 C3 1.391 . S
C2 C1 1.395 . S
C2 C5 1.390 . S
C3 C1 1.391 . S
C3 C7 1.387 . S
C3 C8 1.491 . S
H4 C5 0.950 . S
C5 C2 1.390 . S
C5 H4 0.950 . S
C5 C6 1.378 . S
C6 C5 1.378 . S
C6 C7 1.409 . S
C7 C3 1.387 . S
C7 C6 1.409 . S
C7 H9 0.951 . S
C8 C3 1.491 . S
C8 C10 1.382 . S
C8 C12 1.404 . S
H9 C7 0.951 . S
C10 C8 1.382 . S
C10 C11 1.390 . S
C10 H15 0.949 . S
C11 C10 1.390 . S
C11 C16 1.399 . S
C12 C8 1.404 . S
C12 H13 0.950 . S
C12 C14 1.375 . S
H13 C12 0.950 . S
C14 C12 1.375 . S
C14 C16 1.382 . S
C14 H18 0.950 . S
H15 C10 0.949 . S
C16 C11 1.399 . S
C16 C14 1.382 . S
C16 H17 0.952 . S
H17 C16 0.952 . S
H18 C14 0.950 . S
H19 C20 0.949 . S
C20 H19 0.949 . S
C20 C21 1.395 . S
C20 C22 1.391 . S
C21 C20 1.395 . S
C21 C24 1.390 1_655 S
C22 C20 1.391 . S
C22 C26 1.387 . S
C22 C27 1.491 . S
H23 C24 0.950 . S
C24 C21 1.390 1_455 S
C24 H23 0.950 . S
C24 C25 1.377 1_455 S
C25 C24 1.377 1_655 S
C25 C26 1.413 . S
C26 C22 1.387 . S
C26 C25 1.413 . S
C26 H28 0.951 . S
C27 C22 1.491 . S
C27 C29 1.382 . S
C27 C31 1.404 . S
H28 C26 0.951 . S
C29 C27 1.382 . S
C29 C30 1.390 . S
C29 H34 0.949 1_655 S
C30 C29 1.390 . S
C30 C35 1.399 . S
C31 C27 1.404 . S
C31 H32 0.950 . S
C31 C33 1.375 . S
H32 C31 0.950 . S
C33 C31 1.375 . S
C33 C35 1.382 . S
C33 H37 0.950 . S
H34 C29 0.949 1_455 S
C35 C30 1.399 . S
C35 C33 1.382 . S
C35 H36 0.952 . S
H36 C35 0.952 . S
H37 C33 0.950 . S
H38 C39 0.949 . S
C39 H38 0.949 . S
C39 C40 1.395 . S
C39 C41 1.391 . S
C40 C39 1.395 . S
C40 C43 1.390 1_565 S
C41 C39 1.391 . S
C41 C45 1.387 . S
C41 C46 1.491 . S
H42 C43 0.950 . S
C43 C40 1.390 1_545 S
C43 H42 0.950 . S
C43 C44 1.377 1_545 S
C44 C43 1.377 1_565 S
C44 C45 1.413 . S
C45 C41 1.387 . S
C45 C44 1.413 . S
C45 H47 0.951 . S
C46 C41 1.491 . S
C46 C48 1.382 . S
C46 C50 1.404 . S
H47 C45 0.951 . S
C48 C46 1.382 . S
C48 C49 1.390 . S
C48 H53 0.949 1_565 S
C49 C48 1.390 . S
C49 C54 1.399 . S
C50 C46 1.404 . S
C50 H51 0.950 . S
C50 C52 1.375 . S
H51 C50 0.950 . S
C52 C50 1.375 . S
C52 C54 1.382 . S
C52 H56 0.950 . S
H53 C48 0.949 1_545 S
C54 C49 1.399 . S
C54 C52 1.382 . S
C54 H55 0.952 . S
H55 C54 0.952 . S
H56 C52 0.950 . S
H57 C58 0.949 . S
C58 H57 0.949 . S
C58 C59 1.395 . S
C58 C60 1.391 . S
C59 C58 1.395 . S
C59 C62 1.390 . S
C60 C58 1.391 . S
C60 C64 1.387 . S
C60 C65 1.491 . S
H61 C62 0.950 . S
C62 C59 1.390 . S
C62 H61 0.950 . S
C62 C63 1.378 . S
C63 C62 1.378 . S
C63 C64 1.409 . S
C64 C60 1.387 . S
C64 C63 1.409 . S
C64 H66 0.951 . S
C65 C60 1.491 . S
C65 C67 1.382 . S
C65 C69 1.404 . S
H66 C64 0.951 . S
C67 C65 1.382 . S
C67 C68 1.390 . S
C67 H72 0.949 . S
C68 C67 1.390 . S
C68 C73 1.399 . S
C69 C65 1.404 . S
C69 H70 0.950 . S
C69 C71 1.375 . S
H70 C69 0.950 . S
C71 C69 1.375 . S
C71 C73 1.382 . S
C71 H75 0.950 . S
H72 C67 0.949 . S
C73 C68 1.399 . S
C73 C71 1.382 . S
C73 H74 0.952 . S
H74 C73 0.952 . S
H75 C71 0.950 . S
H76 C77 0.949 . S
C77 H76 0.949 . S
C77 C78 1.395 . S
C77 C79 1.391 . S
C78 C77 1.395 . S
C78 C81 1.390 . S
C79 C77 1.391 . S
C79 C83 1.387 1_554 S
C79 C84 1.491 . S
H80 C81 0.950 . S
C81 C78 1.390 . S
C81 H80 0.950 . S
C81 C82 1.378 1_554 S
C82 C81 1.378 1_556 S
C82 C83 1.409 . S
C83 C79 1.387 1_556 S
C83 C82 1.409 . S
C83 H85 0.951 . S
C84 C79 1.491 . S
C84 C86 1.382 . S
C84 C88 1.404 1_554 S
H85 C83 0.951 . S
C86 C84 1.382 . S
C86 C87 1.390 . S
C86 H91 0.949 . S
C87 C86 1.390 . S
C87 C92 1.399 . S
C88 C84 1.404 1_556 S
C88 H89 0.950 . S
C88 C90 1.375 . S
H89 C88 0.950 . S
C90 C88 1.375 . S
C90 C92 1.382 1_556 S
C90 H94 0.950 . S
H91 C86 0.949 . S
C92 C87 1.399 . S
C92 C90 1.382 1_554 S
C92 H93 0.952 . S
H93 C92 0.952 . S
H94 C90 0.950 . S
H95 C96 0.949 . S
C96 H95 0.949 . S
C96 C97 1.395 1_655 S
C96 C98 1.391 . S
C97 C96 1.395 1_455 S
C97 C100 1.390 . S
C98 C96 1.391 . S
C98 C102 1.387 1_554 S
C98 C103 1.491 . S
H99 C100 0.950 . S
C100 C97 1.390 . S
C100 H99 0.950 . S
C100 C101 1.377 1_454 S
C101 C100 1.377 1_656 S
C101 C102 1.411 . S
C102 C98 1.387 1_556 S
C102 C101 1.411 . S
C102 H104 0.951 . S
C103 C98 1.491 . S
C103 C105 1.402 . S
C103 C107 1.404 1_554 S
H104 C102 0.951 . S
C105 C103 1.402 . S
C105 C106 1.400 . S
C105 H110 0.920 1_655 S
C106 C105 1.400 . S
C106 C111 1.399 . S
C107 C103 1.404 1_556 S
C107 H108 0.950 . S
C107 C109 1.375 . S
H108 C107 0.950 . S
C109 C107 1.375 . S
C109 C111 1.382 1_556 S
C109 H113 0.950 . S
H110 C105 0.920 1_455 S
C111 C106 1.399 . S
C111 C109 1.382 1_554 S
C111 H112 0.952 . S
H112 C111 0.952 . S
H113 C109 0.950 . S
H114 C115 0.949 . S
C115 H114 0.949 . S
C115 C116 1.395 1_565 S
C115 C117 1.391 . S
C116 C115 1.395 1_545 S
C116 C119 1.390 . S
C117 C115 1.391 . S
C117 C121 1.387 1_554 S
C117 C122 1.491 . S
H118 C119 0.950 . S
C119 C116 1.390 . S
C119 H118 0.950 . S
C119 C120 1.377 1_544 S
C120 C119 1.377 1_566 S
C120 C121 1.411 . S
C121 C117 1.387 1_556 S
C121 C120 1.411 . S
C121 H123 0.951 . S
C122 C117 1.491 . S
C122 C124 1.402 . S
C122 C126 1.404 1_554 S
H123 C121 0.951 . S
C124 C122 1.402 . S
C124 C125 1.400 . S
C124 H129 0.920 1_565 S
C125 C124 1.400 . S
C125 C130 1.399 . S
C126 C122 1.404 1_556 S
C126 H127 0.950 . S
C126 C128 1.375 . S
H127 C126 0.950 . S
C128 C126 1.375 . S
C128 C130 1.382 1_556 S
C128 H132 0.950 . S
H129 C124 0.920 1_545 S
C130 C125 1.399 . S
C130 C128 1.382 1_554 S
C130 H131 0.952 . S
H131 C130 0.952 . S
H132 C128 0.950 . S
H133 C134 0.949 . S
C134 H133 0.949 . S
C134 C135 1.395 . S
C134 C136 1.391 . S
C135 C134 1.395 . S
C135 C138 1.390 . S
C136 C134 1.391 . S
C136 C140 1.387 1_554 S
C136 C141 1.491 . S
H137 C138 0.950 . S
C138 C135 1.390 . S
C138 H137 0.950 . S
C138 C139 1.378 1_554 S
C139 C138 1.378 1_556 S
C139 C140 1.409 . S
C140 C136 1.387 1_556 S
C140 C139 1.409 . S
C140 H142 0.951 . S
C141 C136 1.491 . S
C141 C143 1.382 . S
C141 C145 1.404 1_554 S
H142 C140 0.951 . S
C143 C141 1.382 . S
C143 C144 1.390 . S
C143 H148 0.949 . S
C144 C143 1.390 . S
C144 C149 1.399 . S
C145 C141 1.404 1_556 S
C145 H146 0.950 . S
C145 C147 1.375 . S
H146 C145 0.950 . S
C147 C145 1.375 . S
C147 C149 1.382 1_556 S
C147 H151 0.950 . S
H148 C143 0.949 . S
C149 C144 1.399 . S
C149 C147 1.382 1_554 S
C149 H150 0.952 . S
H150 C149 0.952 . S
H151 C147 0.950 . S
C152 Eu153 2.835 . S
C152 C154 1.500 . S
C152 O172 1.253 1_655 S
C152 O173 1.260 . S
Eu153 C152 2.835 . S
Eu153 O172 2.471 1_655 S
Eu153 O173 2.480 . S
Eu153 O174 2.430 . S
Eu153 O175 2.670 1_545 S
Eu153 O176 2.394 . S
Eu153 O181 2.355 1_655 S
Eu153 O183 2.374 1_545 S
C154 C152 1.500 . S
C154 C155 1.377 . S
C154 C159 1.402 . S
C155 C154 1.377 . S
C155 C156 1.395 . S
C155 H184 0.931 . S
C156 C155 1.395 . S
C156 C157 1.383 . S
C156 H185 0.931 . S
C157 C156 1.383 . S
C157 C158 1.394 . S
C158 C157 1.394 . S
C158 C159 1.380 . S
C158 H186 0.931 1_655 S
C159 C154 1.402 . S
C159 C158 1.380 . S
C159 H187 0.904 1_655 S
C160 O174 1.284 . S
C160 O175 1.252 1_545 S
C161 O176 1.251 1_455 S
C161 O177 1.251 . S
C162 Eu163 2.835 . S
C162 C164 1.500 . S
C162 O178 1.253 . S
C162 O179 1.260 . S
Eu163 C162 2.835 . S
Eu163 O175 2.355 1_455 S
Eu163 O177 2.374 1_565 S
Eu163 O178 2.471 . S
Eu163 O179 2.480 . S
Eu163 O180 2.430 . S
Eu163 O181 2.670 1_565 S
Eu163 O182 2.394 . S
C164 C162 1.500 . S
C164 C165 1.377 . S
C164 C169 1.412 1_556 S
C165 C164 1.377 . S
C165 C166 1.395 1_556 S
C165 H188 0.931 . S
C166 C165 1.395 1_554 S
C166 C167 1.383 . S
C166 H189 0.931 . S
C167 C166 1.383 . S
C167 C168 1.394 . S
C168 C167 1.394 . S
C168 C169 1.381 . S
C168 H190 0.931 1_455 S
C169 C164 1.412 1_554 S
C169 C168 1.381 . S
C169 H191 0.894 1_455 S
C170 O180 1.279 . S
C170 O181 1.256 1_565 S
C171 O182 1.251 1_655 S
C171 O183 1.251 . S
O172 C152 1.253 1_455 S
O172 Eu153 2.471 1_455 S
O173 C152 1.260 . S
O173 Eu153 2.480 . S
O174 Eu153 2.430 . S
O174 C160 1.284 . S
O175 Eu153 2.670 1_565 S
O175 C160 1.252 1_565 S
O175 Eu163 2.355 1_655 S
O176 Eu153 2.394 . S
O176 C161 1.251 1_655 S
O177 C161 1.251 . S
O177 Eu163 2.374 1_545 S
O178 C162 1.253 . S
O178 Eu163 2.471 . S
O179 C162 1.260 . S
O179 Eu163 2.480 . S
O180 Eu163 2.430 . S
O180 C170 1.279 . S
O181 Eu153 2.355 1_455 S
O181 Eu163 2.670 1_545 S
O181 C170 1.256 1_545 S
O182 Eu163 2.394 . S
O182 C171 1.251 1_455 S
O183 Eu153 2.374 1_565 S
O183 C171 1.251 . S
H184 C155 0.931 . S
H185 C156 0.931 . S
H186 C158 0.931 1_455 S
H187 C159 0.904 1_455 S
H188 C165 0.931 . S
H189 C166 0.931 . S
H190 C168 0.931 1_655 S
H191 C169 0.894 1_655 S
C192 Eu193 2.835 . S
C192 C194 1.500 . S
C192 O212 1.244 1_565 S
C192 O213 1.260 . S
Eu193 C192 2.835 . S
Eu193 O212 2.467 1_565 S
Eu193 O213 2.480 . S
Eu193 O214 2.430 . S
Eu193 O215 2.670 . S
Eu193 O216 2.394 . S
Eu193 O221 2.355 1_565 S
Eu193 O223 2.374 . S
C194 C192 1.500 . S
C194 C195 1.377 . S
C194 C199 1.387 . S
C195 C194 1.377 . S
C195 C196 1.395 . S
C195 H224 0.931 . S
C196 C195 1.395 . S
C196 C197 1.383 . S
C196 H225 0.931 . S
C197 C196 1.383 . S
C197 C198 1.394 . S
C198 C197 1.394 . S
C198 C199 1.379 . S
C198 H226 0.931 1_565 S
C199 C194 1.387 . S
C199 C198 1.379 . S
C199 H227 0.921 1_565 S
C200 O214 1.259 . S
C200 O215 1.270 . S
C201 O216 1.251 1_545 S
C201 O217 1.251 . S
C202 Eu203 2.835 . S
C202 C204 1.500 . S
C202 O218 1.255 1_545 S
C202 O219 1.260 . S
Eu203 C202 2.835 . S
Eu203 O215 2.355 1_545 S
Eu203 O217 2.374 . S
Eu203 O218 2.472 1_545 S
Eu203 O219 2.480 . S
Eu203 O220 2.430 . S
Eu203 O221 2.670 . S
Eu203 O222 2.394 . S
C204 C202 1.500 . S
C204 C205 1.377 . S
C204 C209 1.396 1_556 S
C205 C204 1.377 . S
C205 C206 1.395 1_556 S
C205 H228 0.931 . S
C206 C205 1.395 1_554 S
C206 C207 1.383 . S
C206 H229 0.931 . S
C207 C206 1.383 . S
C207 C208 1.394 . S
C208 C207 1.394 . S
C208 C209 1.379 . S
C208 H230 0.931 1_545 S
C209 C204 1.396 1_554 S
C209 C208 1.379 . S
C209 H231 0.910 1_545 S
C210 O220 1.259 . S
C210 O221 1.270 . S
C211 O222 1.251 1_565 S
C211 O223 1.251 . S
O212 C192 1.244 1_545 S
O212 Eu193 2.467 1_545 S
O213 C192 1.260 . S
O213 Eu193 2.480 . S
O214 Eu193 2.430 . S
O214 C200 1.259 . S
O215 Eu193 2.670 . S
O215 C200 1.270 . S
O215 Eu203 2.355 1_565 S
O216 Eu193 2.394 . S
O216 C201 1.251 1_565 S
O217 C201 1.251 . S
O217 Eu203 2.374 . S
O218 C202 1.255 1_565 S
O218 Eu203 2.472 1_565 S
O219 C202 1.260 . S
O219 Eu203 2.480 . S
O220 Eu203 2.430 . S
O220 C210 1.259 . S
O221 Eu193 2.355 1_545 S
O221 Eu203 2.670 . S
O221 C210 1.270 . S
O222 Eu203 2.394 . S
O222 C211 1.251 1_545 S
O223 Eu193 2.374 . S
O223 C211 1.251 . S
H224 C195 0.931 . S
H225 C196 0.931 . S
H226 C198 0.931 1_545 S
H227 C199 0.921 1_545 S
H228 C205 0.931 . S
H229 C206 0.931 . S
H230 C208 0.931 1_565 S
H231 C209 0.910 1_565 S
C232 Eu233 2.835 . S
C232 C234 1.500 . S
C232 O252 1.257 . S
C232 O253 1.260 . S
Eu233 C232 2.835 . S
Eu233 O252 2.473 . S
Eu233 O253 2.480 . S
Eu233 O254 2.430 . S
Eu233 O255 2.670 . S
Eu233 O256 2.394 . S
Eu233 O261 2.355 . S
Eu233 O263 2.374 . S
C234 C232 1.500 . S
C234 C235 1.377 . S
C234 C239 1.377 . S
C235 C234 1.377 . S
C235 C236 1.395 . S
C235 H264 0.931 . S
C236 C235 1.395 . S
C236 C237 1.383 . S
C236 H265 0.931 . S
C237 C236 1.383 . S
C237 C238 1.394 . S
C238 C237 1.394 . S
C238 C239 1.378 . S
C238 H266 0.931 . S
C239 C234 1.377 . S
C239 C238 1.378 . S
C239 H267 0.931 . S
C240 O254 1.259 . S
C240 O255 1.270 . S
C241 O256 1.251 . S
C241 O257 1.251 . S
C242 Eu243 2.835 . S
C242 C244 1.500 . S
C242 O258 1.257 . S
C242 O259 1.260 . S
Eu243 C242 2.835 . S
Eu243 O255 2.355 . S
Eu243 O257 2.374 . S
Eu243 O258 2.473 . S
Eu243 O259 2.480 . S
Eu243 O260 2.430 . S
Eu243 O261 2.670 . S
Eu243 O262 2.394 . S
C244 C242 1.500 . S
C244 C245 1.377 . S
C244 C249 1.377 1_556 S
C245 C244 1.377 . S
C245 C246 1.395 1_556 S
C245 H268 0.931 . S
C246 C245 1.395 1_554 S
C246 C247 1.383 . S
C246 H269 0.931 . S
C247 C246 1.383 . S
C247 C248 1.394 . S
C248 C247 1.394 . S
C248 C249 1.378 . S
C248 H270 0.931 . S
C249 C244 1.377 1_554 S
C249 C248 1.378 . S
C249 H271 0.931 . S
C250 O260 1.259 . S
C250 O261 1.270 . S
C251 O262 1.251 . S
C251 O263 1.251 . S
O252 C232 1.257 . S
O252 Eu233 2.473 . S
O253 C232 1.260 . S
O253 Eu233 2.480 . S
O254 Eu233 2.430 . S
O254 C240 1.259 . S
O255 Eu233 2.670 . S
O255 C240 1.270 . S
O255 Eu243 2.355 . S
O256 Eu233 2.394 . S
O256 C241 1.251 . S
O257 C241 1.251 . S
O257 Eu243 2.374 . S
O258 C242 1.257 . S
O258 Eu243 2.473 . S
O259 C242 1.260 . S
O259 Eu243 2.480 . S
O260 Eu243 2.430 . S
O260 C250 1.259 . S
O261 Eu233 2.355 . S
O261 Eu243 2.670 . S
O261 C250 1.270 . S
O262 Eu243 2.394 . S
O262 C251 1.251 . S
O263 Eu233 2.374 . S
O263 C251 1.251 . S
H264 C235 0.931 . S
H265 C236 0.931 . S
H266 C238 0.931 . S
H267 C239 0.931 . S
H268 C245 0.931 . S
H269 C246 0.931 . S
H270 C248 0.931 . S
H271 C249 0.931 . S
C272 Eu273 2.835 . S
C272 C274 1.500 . S
C272 O292 1.257 . S
C272 O293 1.260 . S
Eu273 C272 2.835 . S
Eu273 O292 2.473 . S
Eu273 O293 2.480 . S
Eu273 O294 2.430 . S
Eu273 O295 2.670 1_455 S
Eu273 O296 2.394 . S
Eu273 O301 2.355 . S
Eu273 O303 2.374 1_455 S
C274 C272 1.500 . S
C274 C275 1.377 . S
C274 C279 1.377 . S
C275 C274 1.377 . S
C275 C276 1.395 . S
C275 H304 0.931 . S
C276 C275 1.395 . S
C276 C277 1.383 . S
C276 H305 0.931 . S
C277 C276 1.383 . S
C277 C278 1.394 . S
C278 C277 1.394 . S
C278 C279 1.378 . S
C278 H306 0.931 . S
C279 C274 1.377 . S
C279 C278 1.378 . S
C279 H307 0.931 . S
C280 O294 1.274 . S
C280 O295 1.259 1_455 S
C281 O296 1.251 . S
C281 O297 1.251 . S
C282 Eu283 2.835 . S
C282 C284 1.500 . S
C282 O298 1.257 . S
C282 O299 1.260 . S
Eu283 C282 2.835 . S
Eu283 O295 2.355 . S
Eu283 O297 2.374 1_655 S
Eu283 O298 2.473 . S
Eu283 O299 2.480 . S
Eu283 O300 2.430 . S
Eu283 O301 2.670 1_655 S
Eu283 O302 2.394 . S
C284 C282 1.500 . S
C284 C285 1.377 . S
C284 C289 1.377 1_556 S
C285 C284 1.377 . S
C285 C286 1.395 1_556 S
C285 H308 0.931 . S
C286 C285 1.395 1_554 S
C286 C287 1.383 . S
C286 H309 0.931 . S
C287 C286 1.383 . S
C287 C288 1.394 . S
C288 C287 1.394 . S
C288 C289 1.378 . S
C288 H310 0.931 . S
C289 C284 1.377 1_554 S
C289 C288 1.378 . S
C289 H311 0.931 . S
C290 O300 1.268 . S
C290 O301 1.263 1_655 S
C291 O302 1.251 . S
C291 O303 1.251 . S
O292 C272 1.257 . S
O292 Eu273 2.473 . S
O293 C272 1.260 . S
O293 Eu273 2.480 . S
O294 Eu273 2.430 . S
O294 C280 1.274 . S
O295 Eu273 2.670 1_655 S
O295 C280 1.259 1_655 S
O295 Eu283 2.355 . S
O296 Eu273 2.394 . S
O296 C281 1.251 . S
O297 C281 1.251 . S
O297 Eu283 2.374 1_455 S
O298 C282 1.257 . S
O298 Eu283 2.473 . S
O299 C282 1.260 . S
O299 Eu283 2.480 . S
O300 Eu283 2.430 . S
O300 C290 1.268 . S
O301 Eu273 2.355 . S
O301 Eu283 2.670 1_455 S
O301 C290 1.263 1_455 S
O302 Eu283 2.394 . S
O302 C291 1.251 . S
O303 Eu273 2.374 1_655 S
O303 C291 1.251 . S
H304 C275 0.931 . S
H305 C276 0.931 . S
H306 C278 0.931 . S
H307 C279 0.931 . S
H308 C285 0.931 . S
H309 C286 0.931 . S
H310 C288 0.931 . S
H311 C289 0.931 . S
C312 C313 1.391 . S
C312 C314 1.394 . S
C312 H328 0.931 . S
C313 C312 1.391 . S
C313 C317 1.376 1_545 S
C314 C312 1.394 . S
C314 C315 1.369 . S
C314 C318 1.531 . S
C315 C314 1.369 . S
C315 C316 1.410 1_545 S
C315 C323 1.503 . S
C316 C315 1.410 1_565 S
C316 C317 1.392 . S
C316 C319 1.511 . S
C317 C313 1.376 1_565 S
C317 C316 1.392 . S
C317 H329 0.929 . S
C318 C314 1.531 . S
C318 H330 0.960 . S
C318 H331 0.962 . S
C318 H332 0.960 . S
C319 C316 1.511 . S
C319 H333 0.961 . S
C319 H334 0.961 . S
C319 H335 0.961 . S
C320 C321 1.349 1_565 S
C320 C322 1.363 . S
C320 H336 0.931 . S
C321 C320 1.349 1_545 S
C321 C325 1.434 . S
C322 C320 1.363 . S
C322 C323 1.370 1_565 S
C322 C326 1.524 . S
C323 C315 1.503 . S
C323 C322 1.370 1_545 S
C323 C324 1.403 . S
C324 C323 1.403 . S
C324 C325 1.404 . S
C324 C327 1.539 . S
C325 C321 1.434 . S
C325 C324 1.404 . S
C325 H337 0.930 . S
C326 C322 1.524 . S
C326 H338 0.956 . S
C326 H339 0.961 . S
C326 H340 0.961 . S
C327 C324 1.539 . S
C327 H341 0.958 . S
C327 H342 0.961 . S
C327 H343 0.960 . S
H328 C312 0.931 . S
H329 C317 0.929 . S
H330 C318 0.960 . S
H331 C318 0.962 . S
H332 C318 0.960 . S
H333 C319 0.961 . S
H334 C319 0.961 . S
H335 C319 0.961 . S
H336 C320 0.931 . S
H337 C325 0.930 . S
H338 C326 0.956 . S
H339 C326 0.961 . S
H340 C326 0.961 . S
H341 C327 0.958 . S
H342 C327 0.961 . S
H343 C327 0.960 . S
C344 C345 1.391 . S
C344 C346 1.394 . S
C344 H360 0.931 . S
C345 C344 1.391 . S
C345 C349 1.376 . S
C346 C344 1.394 . S
C346 C347 1.369 . S
C346 C350 1.531 . S
C347 C346 1.369 . S
C347 C348 1.410 . S
C347 C355 1.503 . S
C348 C347 1.410 . S
C348 C349 1.392 . S
C348 C351 1.511 . S
C349 C345 1.376 . S
C349 C348 1.392 . S
C349 H361 0.929 . S
C350 C346 1.531 . S
C350 H362 0.960 . S
C350 H363 0.962 . S
C350 H364 0.960 . S
C351 C348 1.511 . S
C351 H365 0.961 . S
C351 H366 0.961 . S
C351 H367 0.961 . S
C352 C353 1.370 . S
C352 C354 1.363 . S
C352 H368 0.931 . S
C353 C352 1.370 . S
C353 C357 1.408 . S
C354 C352 1.363 . S
C354 C355 1.370 . S
C354 C358 1.524 . S
C355 C347 1.503 . S
C355 C354 1.370 . S
C355 C356 1.403 . S
C356 C355 1.403 . S
C356 C357 1.404 . S
C356 C359 1.539 . S
C357 C353 1.408 . S
C357 C356 1.404 . S
C357 H369 0.930 . S
C358 C354 1.524 . S
C358 H370 0.956 . S
C358 H371 0.961 . S
C358 H372 0.961 . S
C359 C356 1.539 . S
C359 H373 0.958 . S
C359 H374 0.961 . S
C359 H375 0.960 . S
H360 C344 0.931 . S
H361 C349 0.929 . S
H362 C350 0.960 . S
H363 C350 0.962 . S
H364 C350 0.960 . S
H365 C351 0.961 . S
H366 C351 0.961 . S
H367 C351 0.961 . S
H368 C352 0.931 . S
H369 C357 0.930 . S
H370 C358 0.956 . S
H371 C358 0.961 . S
H372 C358 0.961 . S
H373 C359 0.958 . S
H374 C359 0.961 . S
H375 C359 0.960 . S
C376 C377 1.391 . S
C376 C378 1.394 . S
C376 H392 0.931 . S
C377 C376 1.391 . S
C377 C381 1.376 . S
C378 C376 1.394 . S
C378 C379 1.369 . S
C378 C382 1.531 . S
C379 C378 1.369 . S
C379 C380 1.410 . S
C379 C387 1.503 . S
C380 C379 1.410 . S
C380 C381 1.392 . S
C380 C383 1.511 . S
C381 C377 1.376 . S
C381 C380 1.392 . S
C381 H393 0.929 . S
C382 C378 1.531 . S
C382 H394 0.960 . S
C382 H395 0.962 . S
C382 H396 0.960 . S
C383 C380 1.511 . S
C383 H397 0.961 . S
C383 H398 0.961 . S
C383 H399 0.961 . S
C384 C385 1.370 . S
C384 C386 1.363 . S
C384 H400 0.931 . S
C385 C384 1.370 . S
C385 C389 1.408 . S
C386 C384 1.363 . S
C386 C387 1.370 . S
C386 C390 1.524 . S
C387 C379 1.503 . S
C387 C386 1.370 . S
C387 C388 1.403 . S
C388 C387 1.403 . S
C388 C389 1.404 . S
C388 C391 1.539 . S
C389 C385 1.408 . S
C389 C388 1.404 . S
C389 H401 0.930 . S
C390 C386 1.524 . S
C390 H402 0.956 . S
C390 H403 0.961 . S
C390 H404 0.961 . S
C391 C388 1.539 . S
C391 H405 0.958 . S
C391 H406 0.961 . S
C391 H407 0.960 . S
H392 C376 0.931 . S
H393 C381 0.929 . S
H394 C382 0.960 . S
H395 C382 0.962 . S
H396 C382 0.960 . S
H397 C383 0.961 . S
H398 C383 0.961 . S
H399 C383 0.961 . S
H400 C384 0.931 . S
H401 C389 0.930 . S
H402 C390 0.956 . S
H403 C390 0.961 . S
H404 C390 0.961 . S
H405 C391 0.958 . S
H406 C391 0.961 . S
H407 C391 0.960 . S
C408 C409 1.429 . S
C408 C410 1.394 . S
C408 H424 0.931 . S
C409 C408 1.429 . S
C409 C413 1.342 1_655 S
C410 C408 1.394 . S
C410 C411 1.369 . S
C410 C414 1.531 . S
C411 C410 1.369 . S
C411 C412 1.410 1_655 S
C411 C419 1.503 . S
C412 C411 1.410 1_455 S
C412 C413 1.392 . S
C412 C415 1.511 . S
C413 C409 1.342 1_455 S
C413 C412 1.392 . S
C413 H425 0.929 . S
C414 C410 1.531 . S
C414 H426 0.960 . S
C414 H427 0.962 . S
C414 H428 0.960 . S
C415 C412 1.511 . S
C415 H429 0.961 . S
C415 H430 0.961 . S
C415 H431 0.961 . S
C416 C417 1.377 . S
C416 C418 1.363 . S
C416 H432 0.931 . S
C417 C416 1.377 . S
C417 C421 1.400 1_455 S
C418 C416 1.363 . S
C418 C419 1.370 1_455 S
C418 C422 1.524 . S
C419 C411 1.503 . S
C419 C418 1.370 1_655 S
C419 C420 1.403 . S
C420 C419 1.403 . S
C420 C421 1.404 . S
C420 C423 1.539 . S
C421 C417 1.400 1_655 S
C421 C420 1.404 . S
C421 H433 0.930 . S
C422 C418 1.524 . S
C422 H434 0.956 . S
C422 H435 0.961 . S
C422 H436 0.961 . S
C423 C420 1.539 . S
C423 H437 0.958 . S
C423 H438 0.961 . S
C423 H439 0.960 . S
H424 C408 0.931 . S
H425 C413 0.929 . S
H426 C414 0.960 . S
H427 C414 0.962 . S
H428 C414 0.960 . S
H429 C415 0.961 . S
H430 C415 0.961 . S
H431 C415 0.961 . S
H432 C416 0.931 . S
H433 C421 0.930 . S
H434 C422 0.956 . S
H435 C422 0.961 . S
H436 C422 0.961 . S
H437 C423 0.958 . S
H438 C423 0.961 . S
H439 C423 0.960 . S
C440 C441 1.420 . S
C440 C442 1.394 . S
C440 H456 0.931 . S
C441 C440 1.420 . S
C441 C445 1.348 1_545 S
C442 C440 1.394 . S
C442 C443 1.369 . S
C442 C446 1.531 . S
C443 C442 1.369 . S
C443 C444 1.410 1_545 S
C443 C451 1.503 . S
C444 C443 1.410 1_565 S
C444 C445 1.392 . S
C444 C447 1.511 . S
C445 C441 1.348 1_565 S
C445 C444 1.392 . S
C445 H457 0.929 . S
C446 C442 1.531 . S
C446 H458 0.960 . S
C446 H459 0.962 . S
C446 H460 0.960 . S
C447 C444 1.511 . S
C447 H461 0.961 . S
C447 H462 0.961 . S
C447 H463 0.961 . S
C448 C449 1.370 . S
C448 C450 1.363 . S
C448 H464 0.931 . S
C449 C448 1.370 . S
C449 C453 1.419 1_565 S
C450 C448 1.363 . S
C450 C451 1.370 1_566 S
C450 C454 1.524 . S
C451 C443 1.503 . S
C451 C450 1.370 1_544 S
C451 C452 1.403 . S
C452 C451 1.403 . S
C452 C453 1.395 1_554 S
C452 C455 1.539 . S
C453 C449 1.419 1_545 S
C453 C452 1.395 1_556 S
C453 H465 0.928 1_556 S
C454 C450 1.524 . S
C454 H466 0.954 . S
C454 H467 0.961 1_556 S
C454 H468 0.961 . S
C455 C452 1.539 . S
C455 H469 0.958 . S
C455 H470 0.961 . S
C455 H471 0.960 . S
H456 C440 0.931 . S
H457 C445 0.929 . S
H458 C446 0.960 . S
H459 C446 0.962 . S
H460 C446 0.960 . S
H461 C447 0.961 . S
H462 C447 0.961 . S
H463 C447 0.961 . S
H464 C448 0.931 . S
H465 C453 0.928 1_554 S
H466 C454 0.954 . S
H467 C454 0.961 1_554 S
H468 C454 0.961 . S
H469 C455 0.958 . S
H470 C455 0.961 . S
H471 C455 0.960 . S
C472 C473 1.391 . S
C472 C474 1.394 . S
C472 H488 0.931 . S
C473 C472 1.391 . S
C473 C477 1.376 . S
C474 C472 1.394 . S
C474 C475 1.369 . S
C474 C478 1.531 . S
C475 C474 1.369 . S
C475 C476 1.410 . S
C475 C483 1.503 . S
C476 C475 1.410 . S
C476 C477 1.392 . S
C476 C479 1.511 . S
C477 C473 1.376 . S
C477 C476 1.392 . S
C477 H489 0.929 . S
C478 C474 1.531 . S
C478 H490 0.960 1_554 S
C478 H491 0.962 1_554 S
C478 H492 0.960 1_554 S
C479 C476 1.511 . S
C479 H493 0.961 . S
C479 H494 0.961 . S
C479 H495 0.961 . S
C480 C481 1.370 . S
C480 C482 1.363 1_556 S
C480 H496 0.931 . S
C481 C480 1.370 . S
C481 C485 1.408 . S
C482 C480 1.363 1_554 S
C482 C483 1.370 . S
C482 C486 1.524 . S
C483 C475 1.503 . S
C483 C482 1.370 . S
C483 C484 1.403 . S
C484 C483 1.403 . S
C484 C485 1.404 1_554 S
C484 C487 1.539 . S
C485 C481 1.408 . S
C485 C484 1.404 1_556 S
C485 H497 0.930 . S
C486 C482 1.524 . S
C486 H498 0.956 . S
C486 H499 0.961 . S
C486 H500 0.961 . S
C487 C484 1.539 . S
C487 H501 0.958 1_554 S
C487 H502 0.961 . S
C487 H503 0.960 . S
H488 C472 0.931 . S
H489 C477 0.929 . S
H490 C478 0.960 1_556 S
H491 C478 0.962 1_556 S
H492 C478 0.960 1_556 S
H493 C479 0.961 . S
H494 C479 0.961 . S
H495 C479 0.961 . S
H496 C480 0.931 . S
H497 C485 0.930 . S
H498 C486 0.956 . S
H499 C486 0.961 . S
H500 C486 0.961 . S
H501 C487 0.958 1_556 S
H502 C487 0.961 . S
H503 C487 0.960 . S
C504 C505 1.391 . S
C504 C506 1.394 . S
C504 H520 0.931 . S
C505 C504 1.391 . S
C505 C509 1.376 . S
C506 C504 1.394 . S
C506 C507 1.369 . S
C506 C510 1.531 . S
C507 C506 1.369 . S
C507 C508 1.410 . S
C507 C515 1.503 . S
C508 C507 1.410 . S
C508 C509 1.392 . S
C508 C511 1.511 . S
C509 C505 1.376 . S
C509 C508 1.392 . S
C509 H521 0.929 . S
C510 C506 1.531 . S
C510 H522 0.960 . S
C510 H523 0.962 . S
C510 H524 0.960 . S
C511 C508 1.511 . S
C511 H525 0.961 1_554 S
C511 H526 0.961 1_554 S
C511 H527 0.961 1_554 S
C512 C513 1.370 . S
C512 C514 1.363 1_556 S
C512 H528 0.931 . S
C513 C512 1.370 . S
C513 C517 1.408 . S
C514 C512 1.363 1_554 S
C514 C515 1.370 . S
C514 C518 1.524 . S
C515 C507 1.503 . S
C515 C514 1.370 . S
C515 C516 1.403 . S
C516 C515 1.403 . S
C516 C517 1.404 1_554 S
C516 C519 1.539 . S
C517 C513 1.408 . S
C517 C516 1.404 1_556 S
C517 H529 0.930 . S
C518 C514 1.524 . S
C518 H530 0.956 . S
C518 H531 0.961 . S
C518 H532 0.961 . S
C519 C516 1.539 . S
C519 H533 0.958 . S
C519 H534 0.969 . S
C519 H535 0.960 . S
H520 C504 0.931 . S
H521 C509 0.929 . S
H522 C510 0.960 . S
H523 C510 0.962 . S
H524 C510 0.960 . S
H525 C511 0.961 1_556 S
H526 C511 0.961 1_556 S
H527 C511 0.961 1_556 S
H528 C512 0.931 . S
H529 C517 0.930 . S
H530 C518 0.956 . S
H531 C518 0.961 . S
H532 C518 0.961 . S
H533 C519 0.958 . S
H534 C519 0.969 . S
H535 C519 0.960 . S
C536 C537 1.391 1_455 S
C536 C538 1.394 . S
C536 H552 0.931 . S
C537 C536 1.391 1_655 S
C537 C541 1.376 . S
C538 C536 1.394 . S
C538 C539 1.369 1_455 S
C538 C542 1.531 . S
C539 C538 1.369 1_655 S
C539 C540 1.410 . S
C539 C547 1.503 . S
C540 C539 1.410 . S
C540 C541 1.392 . S
C540 C543 1.511 . S
C541 C537 1.376 . S
C541 C540 1.392 . S
C541 H553 0.929 . S
C542 C538 1.531 . S
C542 H554 0.960 . S
C542 H555 0.962 . S
C542 H556 0.960 . S
C543 C540 1.511 . S
C543 H557 0.961 . S
C543 H558 0.961 1_554 S
C543 H559 0.961 . S
C544 C545 1.370 1_455 S
C544 C546 1.363 . S
C544 H560 0.931 . S
C545 C544 1.370 1_655 S
C545 C549 1.408 . S
C546 C544 1.363 . S
C546 C547 1.370 1_456 S
C546 C550 1.523 1_556 S
C547 C539 1.503 . S
C547 C546 1.370 1_654 S
C547 C548 1.403 . S
C548 C547 1.403 . S
C548 C549 1.404 1_554 S
C548 C551 1.539 . S
C549 C545 1.408 . S
C549 C548 1.404 1_556 S
C549 H561 0.930 . S
C550 C546 1.523 1_554 S
C550 H562 0.963 . S
C550 H563 0.961 . S
C550 H564 0.954 1_554 S
C551 C548 1.539 . S
C551 H565 0.958 . S
C551 H566 0.961 . S
C551 H567 0.960 . S
H552 C536 0.931 . S
H553 C541 0.929 . S
H554 C542 0.960 . S
H555 C542 0.962 . S
H556 C542 0.960 . S
H557 C543 0.961 . S
H558 C543 0.961 1_556 S
H559 C543 0.961 . S
H560 C544 0.931 . S
H561 C549 0.930 . S
H562 C550 0.963 . S
H563 C550 0.961 . S
H564 C550 0.954 1_556 S
H565 C551 0.958 . S
H566 C551 0.961 . S
H567 C551 0.960 . S
C568 C569 1.391 1_655 S
C568 C570 1.394 . S
C568 H584 0.931 . S
C569 C568 1.391 1_455 S
C569 C573 1.376 . S
C570 C568 1.394 . S
C570 C571 1.369 . S
C570 C574 1.531 . S
C571 C570 1.369 . S
C571 C572 1.410 1_655 S
C571 C579 1.503 . S
C572 C571 1.410 1_455 S
C572 C573 1.392 . S
C572 C575 1.511 . S
C573 C569 1.376 . S
C573 C572 1.392 . S
C573 H585 0.929 . S
C574 C570 1.531 . S
C574 H586 0.960 . S
C574 H587 0.962 . S
C574 H588 0.960 . S
C575 C572 1.511 . S
C575 H589 0.961 . S
C575 H590 0.961 . S
C575 H591 0.961 . S
C576 C577 1.370 . S
C576 C578 1.363 . S
C576 H592 0.931 . S
C577 C576 1.370 . S
C577 C581 1.408 . S
C578 C576 1.363 . S
C578 C579 1.370 . S
C578 C582 1.524 . S
C579 C571 1.503 . S
C579 C578 1.370 . S
C579 C580 1.403 . S
C580 C579 1.403 . S
C580 C581 1.404 . S
C580 C583 1.539 1_655 S
C581 C577 1.408 . S
C581 C580 1.404 . S
C581 H593 0.930 . S
C582 C578 1.524 . S
C582 H594 0.956 . S
C582 H595 0.961 . S
C582 H596 0.961 . S
C583 C580 1.539 1_455 S
C583 H597 0.958 . S
C583 H598 0.961 . S
C583 H599 0.960 . S
H584 C568 0.931 . S
H585 C573 0.929 . S
H586 C574 0.960 . S
H587 C574 0.962 . S
H588 C574 0.960 . S
H589 C575 0.961 . S
H590 C575 0.961 . S
H591 C575 0.961 . S
H592 C576 0.931 . S
H593 C581 0.930 . S
H594 C582 0.956 . S
H595 C582 0.961 . S
H596 C582 0.961 . S
H597 C583 0.958 . S
H598 C583 0.961 . S
H599 C583 0.960 . S
C600 C601 1.391 1_565 S
C600 C602 1.394 . S
C600 H616 0.931 . S
C601 C600 1.391 1_545 S
C601 C605 1.376 . S
C602 C600 1.394 . S
C602 C603 1.369 . S
C602 C606 1.531 . S
C603 C602 1.369 . S
C603 C604 1.410 1_565 S
C603 C611 1.503 . S
C604 C603 1.410 1_545 S
C604 C605 1.392 . S
C604 C607 1.511 . S
C605 C601 1.376 . S
C605 C604 1.392 . S
C605 H617 0.929 . S
C606 C602 1.531 . S
C606 H618 0.960 . S
C606 H619 0.962 . S
C606 H620 0.960 1_554 S
C607 C604 1.511 . S
C607 H621 0.961 . S
C607 H622 0.961 . S
C607 H623 0.961 . S
C608 C609 1.370 . S
C608 C610 1.363 . S
C608 H624 0.931 . S
C609 C608 1.370 . S
C609 C613 1.408 . S
C610 C608 1.363 . S
C610 C611 1.370 . S
C610 C614 1.524 . S
C611 C603 1.503 . S
C611 C610 1.370 . S
C611 C612 1.403 1_565 S
C612 C611 1.403 1_545 S
C612 C613 1.404 1_545 S
C612 C615 1.539 . S
C613 C609 1.408 . S
C613 C612 1.404 1_565 S
C613 H625 0.930 1_565 S
C614 C610 1.524 . S
C614 H626 0.956 . S
C614 H627 0.961 . S
C614 H628 0.961 . S
C615 C612 1.539 . S
C615 H629 0.958 . S
C615 H630 0.961 . S
C615 H631 0.960 . S
H616 C600 0.931 . S
H617 C605 0.929 . S
H618 C606 0.960 . S
H619 C606 0.962 . S
H620 C606 0.960 1_556 S
H621 C607 0.961 . S
H622 C607 0.961 . S
H623 C607 0.961 . S
H624 C608 0.931 . S
H625 C613 0.930 1_545 S
H626 C614 0.956 . S
H627 C614 0.961 . S
H628 C614 0.961 . S
H629 C615 0.958 . S
H630 C615 0.961 . S
H631 C615 0.960 . S
C632 C633 1.391 . S
C632 C634 1.394 . S
C632 H648 0.931 . S
C633 C632 1.391 . S
C633 C637 1.376 . S
C634 C632 1.394 . S
C634 C635 1.369 . S
C634 C638 1.531 . S
C635 C634 1.369 . S
C635 C636 1.410 . S
C635 C643 1.503 . S
C636 C635 1.410 . S
C636 C637 1.392 . S
C636 C639 1.511 . S
C637 C633 1.376 . S
C637 C636 1.392 . S
C637 H649 0.929 . S
C638 C634 1.531 . S
C638 H650 0.960 . S
C638 H651 0.962 . S
C638 H652 0.960 1_554 S
C639 C636 1.511 . S
C639 H653 0.961 . S
C639 H654 0.961 . S
C639 H655 0.961 . S
C640 C641 1.370 . S
C640 C642 1.363 . S
C640 H656 0.931 . S
C641 C640 1.370 . S
C641 C645 1.408 . S
C642 C640 1.363 . S
C642 C643 1.370 . S
C642 C646 1.524 . S
C643 C635 1.503 . S
C643 C642 1.370 . S
C643 C644 1.403 . S
C644 C643 1.403 . S
C644 C645 1.404 . S
C644 C647 1.539 . S
C645 C641 1.408 . S
C645 C644 1.404 . S
C645 H657 0.930 . S
C646 C642 1.524 . S
C646 H658 0.956 . S
C646 H659 0.961 . S
C646 H660 0.961 . S
C647 C644 1.539 . S
C647 H661 0.958 . S
C647 H662 0.961 . S
C647 H663 0.960 . S
H648 C632 0.931 . S
H649 C637 0.929 . S
H650 C638 0.960 . S
H651 C638 0.962 . S
H652 C638 0.960 1_556 S
H653 C639 0.961 . S
H654 C639 0.961 . S
H655 C639 0.961 . S
H656 C640 0.931 . S
H657 C645 0.930 . S
H658 C646 0.956 . S
H659 C646 0.961 . S
H660 C646 0.961 . S
H661 C647 0.958 . S
H662 C647 0.961 . S
H663 C647 0.960 . S
C664 C665 1.391 . S
C664 C666 1.394 . S
C664 H680 0.931 . S
C665 C664 1.391 . S
C665 C669 1.376 . S
C666 C664 1.394 . S
C666 C667 1.369 . S
C666 C670 1.531 . S
C667 C666 1.369 . S
C667 C668 1.410 . S
C667 C675 1.503 . S
C668 C667 1.410 . S
C668 C669 1.392 . S
C668 C671 1.511 . S
C669 C665 1.376 . S
C669 C668 1.392 . S
C669 H681 0.929 . S
C670 C666 1.531 . S
C670 H682 0.960 . S
C670 H683 0.962 . S
C670 H684 0.960 . S
C671 C668 1.511 . S
C671 H685 0.961 . S
C671 H686 0.961 . S
C671 H687 0.961 . S
C672 C673 1.370 . S
C672 C674 1.363 . S
C672 H688 0.931 . S
C673 C672 1.370 . S
C673 C677 1.408 . S
C674 C672 1.363 . S
C674 C675 1.370 . S
C674 C678 1.524 . S
C675 C667 1.503 . S
C675 C674 1.370 . S
C675 C676 1.403 . S
C676 C675 1.403 . S
C676 C677 1.404 . S
C676 C679 1.539 . S
C677 C673 1.408 . S
C677 C676 1.404 . S
C677 H689 0.930 . S
C678 C674 1.524 . S
C678 H690 0.956 . S
C678 H691 0.961 . S
C678 H692 0.961 . S
C679 C676 1.539 . S
C679 H693 0.958 . S
C679 H694 0.961 . S
C679 H695 0.960 . S
H680 C664 0.931 . S
H681 C669 0.929 . S
H682 C670 0.960 . S
H683 C670 0.962 . S
H684 C670 0.960 . S
H685 C671 0.961 . S
H686 C671 0.961 . S
H687 C671 0.961 . S
H688 C672 0.931 . S
H689 C677 0.930 . S
H690 C678 0.956 . S
H691 C678 0.961 . S
H692 C678 0.961 . S
H693 C679 0.958 . S
H694 C679 0.961 . S
H695 C679 0.960 . S
C696 C697 1.391 . S
C696 C698 1.394 1_655 S
C696 H712 0.931 . S
C697 C696 1.391 . S
C697 C701 1.376 . S
C698 C696 1.394 1_455 S
C698 C699 1.369 . S
C698 C702 1.531 . S
C699 C698 1.369 . S
C699 C700 1.410 . S
C699 C707 1.503 . S
C700 C699 1.410 . S
C700 C701 1.392 1_455 S
C700 C703 1.511 . S
C701 C697 1.376 . S
C701 C700 1.392 1_655 S
C701 H713 0.929 . S
C702 C698 1.531 . S
C702 H714 0.960 1_455 S
C702 H715 0.962 . S
C702 H716 0.960 1_455 S
C703 C700 1.511 . S
C703 H717 0.961 . S
C703 H718 0.961 . S
C703 H719 0.961 1_455 S
C704 C705 1.370 . S
C704 C706 1.363 . S
C704 H720 0.931 . S
C705 C704 1.370 . S
C705 C709 1.408 . S
C706 C704 1.363 . S
C706 C707 1.370 . S
C706 C710 1.524 . S
C707 C699 1.503 . S
C707 C706 1.370 . S
C707 C708 1.403 1_455 S
C708 C707 1.403 1_655 S
C708 C709 1.404 1_655 S
C708 C711 1.539 . S
C709 C705 1.408 . S
C709 C708 1.404 1_455 S
C709 H721 0.930 1_455 S
C710 C706 1.524 . S
C710 H722 0.956 . S
C710 H723 0.961 . S
C710 H724 0.961 . S
C711 C708 1.539 . S
C711 H725 0.958 . S
C711 H726 0.961 . S
C711 H727 0.960 . S
H712 C696 0.931 . S
H713 C701 0.929 . S
H714 C702 0.960 1_655 S
H715 C702 0.962 . S
H716 C702 0.960 1_655 S
H717 C703 0.961 . S
H718 C703 0.961 . S
H719 C703 0.961 1_655 S
H720 C704 0.931 . S
H721 C709 0.930 1_655 S
H722 C710 0.956 . S
H723 C710 0.961 . S
H724 C710 0.961 . S
H725 C711 0.958 . S
H726 C711 0.961 . S
H727 C711 0.960 . S
C728 C729 1.391 . S
C728 C730 1.394 . S
C728 H744 0.931 1_545 S
C729 C728 1.391 . S
C729 C733 1.376 . S
C730 C728 1.394 . S
C730 C731 1.369 . S
C730 C734 1.531 . S
C731 C730 1.369 . S
C731 C732 1.410 . S
C731 C739 1.503 . S
C732 C731 1.410 . S
C732 C733 1.392 . S
C732 C735 1.511 . S
C733 C729 1.376 . S
C733 C732 1.392 . S
C733 H745 0.929 . S
C734 C730 1.531 . S
C734 H746 0.960 . S
C734 H747 0.962 1_545 S
C734 H748 0.960 . S
C735 C732 1.511 . S
C735 H749 0.961 . S
C735 H750 0.961 . S
C735 H751 0.961 . S
C736 C737 1.370 . S
C736 C738 1.370 . S
C736 H752 0.931 1_545 S
C737 C736 1.370 . S
C737 C741 1.408 . S
C738 C736 1.370 . S
C738 C739 1.400 . S
C738 C742 1.488 1_545 S
C739 C731 1.503 . S
C739 C738 1.400 . S
C739 C740 1.403 . S
C740 C739 1.403 . S
C740 C741 1.404 . S
C740 C743 1.539 . S
C741 C737 1.408 . S
C741 C740 1.404 . S
C741 H753 0.930 . S
C742 C738 1.488 1_565 S
C742 H754 0.956 . S
C742 H755 0.961 . S
C742 H756 0.961 . S
C743 C740 1.539 . S
C743 H757 0.958 . S
C743 H758 0.961 . S
C743 H759 0.960 . S
H744 C728 0.931 1_565 S
H745 C733 0.929 . S
H746 C734 0.960 . S
H747 C734 0.962 1_565 S
H748 C734 0.960 . S
H749 C735 0.961 . S
H750 C735 0.961 . S
H751 C735 0.961 . S
H752 C736 0.931 1_565 S
H753 C741 0.930 . S
H754 C742 0.956 . S
H755 C742 0.961 . S
H756 C742 0.961 . S
H757 C743 0.958 . S
H758 C743 0.961 . S
H759 C743 0.960 . S
C760 C761 1.391 . S
C760 C762 1.394 . S
C760 H776 0.931 . S
C761 C760 1.391 . S
C761 C765 1.376 . S
C762 C760 1.394 . S
C762 C763 1.369 . S
C762 C766 1.531 . S
C763 C762 1.369 . S
C763 C764 1.410 . S
C763 C771 1.503 . S
C764 C763 1.410 . S
C764 C765 1.392 . S
C764 C767 1.511 . S
C765 C761 1.376 . S
C765 C764 1.392 . S
C765 H777 0.929 . S
C766 C762 1.531 . S
C766 H778 0.960 . S
C766 H779 0.962 . S
C766 H780 0.960 . S
C767 C764 1.511 . S
C767 H781 0.961 . S
C767 H782 0.961 . S
C767 H783 0.961 . S
C768 C769 1.370 . S
C768 C770 1.363 . S
C768 H784 0.931 . S
C769 C768 1.370 . S
C769 C773 1.408 . S
C770 C768 1.363 . S
C770 C771 1.370 . S
C770 C774 1.524 . S
C771 C763 1.503 . S
C771 C770 1.370 . S
C771 C772 1.403 . S
C772 C771 1.403 . S
C772 C773 1.404 . S
C772 C775 1.539 . S
C773 C769 1.408 . S
C773 C772 1.404 . S
C773 H785 0.930 1_554 S
C774 C770 1.524 . S
C774 H786 0.956 . S
C774 H787 0.961 . S
C774 H788 0.961 . S
C775 C772 1.539 . S
C775 H789 0.958 1_554 S
C775 H790 0.961 . S
C775 H791 0.960 . S
H776 C760 0.931 . S
H777 C765 0.929 . S
H778 C766 0.960 . S
H779 C766 0.962 . S
H780 C766 0.960 . S
H781 C767 0.961 . S
H782 C767 0.961 . S
H783 C767 0.961 . S
H784 C768 0.931 . S
H785 C773 0.930 1_556 S
H786 C774 0.956 . S
H787 C774 0.961 . S
H788 C774 0.961 . S
H789 C775 0.958 1_556 S
H790 C775 0.961 . S
H791 C775 0.960 . S
C792 C793 1.391 . S
C792 C794 1.394 . S
C792 H808 0.931 . S
C793 C792 1.391 . S
C793 C797 1.376 . S
C794 C792 1.394 . S
C794 C795 1.369 . S
C794 C798 1.531 . S
C795 C794 1.369 . S
C795 C796 1.410 . S
C795 C803 1.503 . S
C796 C795 1.410 . S
C796 C797 1.392 . S
C796 C799 1.511 . S
C797 C793 1.376 . S
C797 C796 1.392 . S
C797 H809 0.929 . S
C798 C794 1.531 . S
C798 H810 0.960 . S
C798 H811 0.962 . S
C798 H812 0.960 . S
C799 C796 1.511 . S
C799 H813 0.961 . S
C799 H814 0.961 . S
C799 H815 0.961 . S
C800 C801 1.370 . S
C800 C802 1.363 . S
C800 H816 0.931 . S
C801 C800 1.370 . S
C801 C805 1.408 . S
C802 C800 1.363 . S
C802 C803 1.370 . S
C802 C806 1.524 . S
C803 C795 1.503 . S
C803 C802 1.370 . S
C803 C804 1.403 . S
C804 C803 1.403 . S
C804 C805 1.404 . S
C804 C807 1.539 . S
C805 C801 1.408 . S
C805 C804 1.404 . S
C805 H817 0.930 . S
C806 C802 1.524 . S
C806 H818 0.956 . S
C806 H819 0.961 . S
C806 H820 0.961 . S
C807 C804 1.539 . S
C807 H821 0.958 . S
C807 H822 0.961 . S
C807 H823 0.960 . S
H808 C792 0.931 . S
H809 C797 0.929 . S
H810 C798 0.960 . S
H811 C798 0.962 . S
H812 C798 0.960 . S
H813 C799 0.961 . S
H814 C799 0.961 . S
H815 C799 0.961 . S
H816 C800 0.931 . S
H817 C805 0.930 . S
H818 C806 0.956 . S
H819 C806 0.961 . S
H820 C806 0.961 . S
H821 C807 0.958 . S
H822 C807 0.961 . S
H823 C807 0.960 . S
C824 C825 1.431 . S
C824 C826 1.394 . S
C824 H840 0.931 . S
C825 C824 1.431 . S
C825 C829 1.337 1_455 S
C826 C824 1.394 . S
C826 C827 1.369 . S
C826 C830 1.531 . S
C827 C826 1.369 . S
C827 C828 1.410 1_455 S
C827 C835 1.503 . S
C828 C827 1.410 1_655 S
C828 C829 1.392 . S
C828 C831 1.511 . S
C829 C825 1.337 1_655 S
C829 C828 1.392 . S
C829 H841 0.929 . S
C830 C826 1.531 . S
C830 H842 0.960 . S
C830 H843 0.962 . S
C830 H844 0.960 . S
C831 C828 1.511 . S
C831 H845 0.961 . S
C831 H846 0.961 . S
C831 H847 0.961 . S
C832 C833 1.370 . S
C832 C834 1.363 . S
C832 H848 0.931 . S
C833 C832 1.370 . S
C833 C837 1.408 . S
C834 C832 1.363 . S
C834 C835 1.370 . S
C834 C838 1.524 . S
C835 C827 1.503 . S
C835 C834 1.370 . S
C835 C836 1.406 . S
C836 C835 1.406 . S
C836 C837 1.405 . S
C836 C839 1.534 1_456 S
C837 C833 1.408 . S
C837 C836 1.405 . S
C837 H849 0.930 1_455 S
C838 C834 1.524 . S
C838 H850 0.956 . S
C838 H851 0.985 . S
C838 H852 0.961 . S
C839 C836 1.534 1_654 S
C839 H853 0.958 1_655 S
C839 H854 0.961 . S
C839 H855 0.960 . S
H840 C824 0.931 . S
H841 C829 0.929 . S
H842 C830 0.960 . S
H843 C830 0.962 . S
H844 C830 0.960 . S
H845 C831 0.961 . S
H846 C831 0.961 . S
H847 C831 0.961 . S
H848 C832 0.931 . S
H849 C837 0.930 1_655 S
H850 C838 0.956 . S
H851 C838 0.985 . S
H852 C838 0.961 . S
H853 C839 0.958 1_455 S
H854 C839 0.961 . S
H855 C839 0.960 . S
C856 C857 1.391 1_565 S
C856 C858 1.394 . S
C856 H872 0.931 . S
C857 C856 1.391 1_545 S
C857 C861 1.376 . S
C858 C856 1.394 . S
C858 C859 1.369 1_565 S
C858 C862 1.531 . S
C859 C858 1.369 1_545 S
C859 C860 1.410 . S
C859 C867 1.503 . S
C860 C859 1.410 . S
C860 C861 1.392 . S
C860 C863 1.511 . S
C861 C857 1.376 . S
C861 C860 1.392 . S
C861 H873 0.929 . S
C862 C858 1.531 . S
C862 H874 0.960 . S
C862 H875 0.962 . S
C862 H876 0.960 . S
C863 C860 1.511 . S
C863 H877 0.961 1_556 S
C863 H878 0.961 . S
C863 H879 0.961 . S
C864 C865 1.370 1_565 S
C864 C866 1.363 . S
C864 H880 0.931 . S
C865 C864 1.370 1_545 S
C865 C869 1.408 . S
C866 C864 1.363 . S
C866 C867 1.370 1_565 S
C866 C870 1.524 . S
C867 C859 1.503 . S
C867 C866 1.370 1_545 S
C867 C868 1.403 . S
C868 C867 1.403 . S
C868 C869 1.404 . S
C868 C871 1.539 . S
C869 C865 1.408 . S
C869 C868 1.404 . S
C869 H881 0.930 . S
C870 C866 1.524 . S
C870 H882 0.956 . S
C870 H883 0.961 . S
C870 H884 0.961 . S
C871 C868 1.539 . S
C871 H885 0.958 . S
C871 H886 0.961 . S
C871 H887 0.960 . S
H872 C856 0.931 . S
H873 C861 0.929 . S
H874 C862 0.960 . S
H875 C862 0.962 . S
H876 C862 0.960 . S
H877 C863 0.961 1_554 S
H878 C863 0.961 . S
H879 C863 0.961 . S
H880 C864 0.931 . S
H881 C869 0.930 . S
H882 C870 0.956 . S
H883 C870 0.961 . S
H884 C870 0.961 . S
H885 C871 0.958 . S
H886 C871 0.961 . S
H887 C871 0.960 . S
C888 C889 1.391 . S
C888 C890 1.394 . S
C888 H904 0.931 . S
C889 C888 1.391 . S
C889 C893 1.376 . S
C890 C888 1.394 . S
C890 C891 1.369 . S
C890 C894 1.531 . S
C891 C890 1.369 . S
C891 C892 1.410 . S
C891 C899 1.503 . S
C892 C891 1.410 . S
C892 C893 1.392 . S
C892 C895 1.511 . S
C893 C889 1.376 . S
C893 C892 1.392 . S
C893 H905 0.929 . S
C894 C890 1.531 . S
C894 H906 0.960 . S
C894 H907 0.962 . S
C894 H908 0.960 . S
C895 C892 1.511 . S
C895 H909 0.961 . S
C895 H910 0.961 . S
C895 H911 0.961 . S
C896 C897 1.370 . S
C896 C898 1.363 . S
C896 H912 0.931 . S
C897 C896 1.370 . S
C897 C901 1.408 . S
C898 C896 1.363 . S
C898 C899 1.370 . S
C898 C902 1.524 . S
C899 C891 1.503 . S
C899 C898 1.370 . S
C899 C900 1.403 . S
C900 C899 1.403 . S
C900 C901 1.404 . S
C900 C903 1.539 1_556 S
C901 C897 1.408 . S
C901 C900 1.404 . S
C901 H913 0.930 . S
C902 C898 1.524 . S
C902 H914 0.956 . S
C902 H915 0.961 . S
C902 H916 0.961 . S
C903 C900 1.539 1_554 S
C903 H917 0.958 . S
C903 H918 0.961 . S
C903 H919 0.960 . S
H904 C888 0.931 . S
H905 C893 0.929 . S
H906 C894 0.960 . S
H907 C894 0.962 . S
H908 C894 0.960 . S
H909 C895 0.961 . S
H910 C895 0.961 . S
H911 C895 0.961 . S
H912 C896 0.931 . S
H913 C901 0.930 . S
H914 C902 0.956 . S
H915 C902 0.961 . S
H916 C902 0.961 . S
H917 C903 0.958 . S
H918 C903 0.961 . S
H919 C903 0.960 . S
C920 C921 1.391 . S
C920 C922 1.394 . S
C920 H936 0.931 . S
C921 C920 1.391 . S
C921 C925 1.376 . S
C922 C920 1.394 . S
C922 C923 1.369 . S
C922 C926 1.531 . S
C923 C922 1.369 . S
C923 C924 1.410 . S
C923 C931 1.503 . S
C924 C923 1.410 . S
C924 C925 1.392 . S
C924 C927 1.511 . S
C925 C921 1.376 . S
C925 C924 1.392 . S
C925 H937 0.929 . S
C926 C922 1.531 . S
C926 H938 0.960 . S
C926 H939 0.962 . S
C926 H940 0.960 . S
C927 C924 1.511 . S
C927 H941 0.961 . S
C927 H942 0.961 . S
C927 H943 0.961 . S
C928 C929 1.370 . S
C928 C930 1.363 . S
C928 H944 0.931 . S
C929 C928 1.370 . S
C929 C933 1.408 . S
C930 C928 1.363 . S
C930 C931 1.370 . S
C930 C934 1.524 . S
C931 C923 1.503 . S
C931 C930 1.370 . S
C931 C932 1.403 . S
C932 C931 1.403 . S
C932 C933 1.404 . S
C932 C935 1.539 1_556 S
C933 C929 1.408 . S
C933 C932 1.404 . S
C933 H945 0.930 . S
C934 C930 1.524 . S
C934 H946 0.956 . S
C934 H947 0.961 . S
C934 H948 0.961 . S
C935 C932 1.539 1_554 S
C935 H949 0.958 . S
C935 H950 0.961 . S
C935 H951 0.960 . S
H936 C920 0.931 . S
H937 C925 0.929 . S
H938 C926 0.960 . S
H939 C926 0.962 . S
H940 C926 0.960 . S
H941 C927 0.961 . S
H942 C927 0.961 . S
H943 C927 0.961 . S
H944 C928 0.931 . S
H945 C933 0.930 . S
H946 C934 0.956 . S
H947 C934 0.961 . S
H948 C934 0.961 . S
H949 C935 0.958 . S
H950 C935 0.961 . S
H951 C935 0.960 . S
C952 C953 1.394 1_655 S
C952 C954 1.394 . S
C952 H968 0.931 . S
C953 C952 1.394 1_455 S
C953 C957 1.373 . S
C954 C952 1.394 . S
C954 C955 1.373 . S
C954 C958 1.531 . S
C955 C954 1.373 . S
C955 C956 1.405 1_655 S
C955 C963 1.504 . S
C956 C955 1.405 1_455 S
C956 C957 1.392 . S
C956 C959 1.511 . S
C957 C953 1.373 . S
C957 C956 1.392 . S
C957 H969 0.929 . S
C958 C954 1.531 . S
C958 H970 0.960 . S
C958 H971 0.962 . S
C958 H972 0.960 . S
C959 C956 1.511 . S
C959 H973 0.961 . S
C959 H974 0.961 . S
C959 H975 0.961 . S
C960 C961 1.370 . S
C960 C962 1.363 . S
C960 H976 0.931 . S
C961 C960 1.370 . S
C961 C965 1.408 1_655 S
C962 C960 1.363 . S
C962 C963 1.370 . S
C962 C966 1.524 . S
C963 C955 1.504 . S
C963 C962 1.370 . S
C963 C964 1.403 1_655 S
C964 C963 1.403 1_455 S
C964 C965 1.404 . S
C964 C967 1.539 . S
C965 C961 1.408 1_455 S
C965 C964 1.404 . S
C965 H977 0.930 . S
C966 C962 1.524 . S
C966 H978 0.956 . S
C966 H979 0.961 . S
C966 H980 0.961 . S
C967 C964 1.539 . S
C967 H981 0.958 . S
C967 H982 0.961 . S
C967 H983 0.960 . S
H968 C952 0.931 . S
H969 C957 0.929 . S
H970 C958 0.960 . S
H971 C958 0.962 . S
H972 C958 0.960 . S
H973 C959 0.961 . S
H974 C959 0.961 . S
H975 C959 0.961 . S
H976 C960 0.931 . S
H977 C965 0.930 . S
H978 C966 0.956 . S
H979 C966 0.961 . S
H980 C966 0.961 . S
H981 C967 0.958 . S
H982 C967 0.961 . S
H983 C967 0.960 . S
C984 C985 1.395 1_545 S
C984 C986 1.394 . S
C984 H1000 0.931 . S
C985 C984 1.395 1_565 S
C985 C989 1.372 . S
C986 C984 1.394 . S
C986 C987 1.371 1_545 S
C986 C990 1.531 . S
C987 C986 1.371 1_565 S
C987 C988 1.408 . S
C987 C995 1.503 . S
C988 C987 1.408 . S
C988 C989 1.392 . S
C988 C991 1.511 . S
C989 C985 1.372 . S
C989 C988 1.392 . S
C989 H1001 0.929 . S
C990 C986 1.531 . S
C990 H1002 0.960 . S
C990 H1003 0.962 . S
C990 H1004 0.960 . S
C991 C988 1.511 . S
C991 H1005 0.961 . S
C991 H1006 0.961 . S
C991 H1007 0.961 . S
C992 C993 1.370 . S
C992 C994 1.363 . S
C992 H1008 0.931 . S
C993 C992 1.370 . S
C993 C997 1.408 1_565 S
C994 C992 1.363 . S
C994 C995 1.370 . S
C994 C998 1.524 . S
C995 C987 1.503 . S
C995 C994 1.370 . S
C995 C996 1.403 1_565 S
C996 C995 1.403 1_545 S
C996 C997 1.404 . S
C996 C999 1.539 . S
C997 C993 1.408 1_545 S
C997 C996 1.404 . S
C997 H1009 0.930 . S
C998 C994 1.524 . S
C998 H1010 0.956 . S
C998 H1011 0.961 . S
C998 H1012 0.961 . S
C999 C996 1.539 . S
C999 H1013 0.958 . S
C999 H1014 0.961 . S
C999 H1015 0.960 . S
H1000 C984 0.931 . S
H1001 C989 0.929 . S
H1002 C990 0.960 . S
H1003 C990 0.962 . S
H1004 C990 0.960 . S
H1005 C991 0.961 . S
H1006 C991 0.961 . S
H1007 C991 0.961 . S
H1008 C992 0.931 . S
H1009 C997 0.930 . S
H1010 C998 0.956 . S
H1011 C998 0.961 . S
H1012 C998 0.961 . S
H1013 C999 0.958 . S
H1014 C999 0.961 . S
H1015 C999 0.960 . S
C1016 C1017 1.391 . S
C1016 C1018 1.394 . S
C1016 H1032 0.931 . S
C1017 C1016 1.391 . S
C1017 C1021 1.376 . S
C1018 C1016 1.394 . S
C1018 C1019 1.369 . S
C1018 C1022 1.531 . S
C1019 C1018 1.369 . S
C1019 C1020 1.410 . S
C1019 C1027 1.503 . S
C1020 C1019 1.410 . S
C1020 C1021 1.392 . S
C1020 C1023 1.511 . S
C1021 C1017 1.376 . S
C1021 C1020 1.392 . S
C1021 H1033 0.929 . S
C1022 C1018 1.531 . S
C1022 H1034 0.960 . S
C1022 H1035 0.962 . S
C1022 H1036 0.960 . S
C1023 C1020 1.511 . S
C1023 H1037 0.961 . S
C1023 H1038 0.961 . S
C1023 H1039 0.961 . S
C1024 C1025 1.370 . S
C1024 C1026 1.363 . S
C1024 H1040 0.931 . S
C1025 C1024 1.370 . S
C1025 C1029 1.408 . S
C1026 C1024 1.363 . S
C1026 C1027 1.370 . S
C1026 C1030 1.524 . S
C1027 C1019 1.503 . S
C1027 C1026 1.370 . S
C1027 C1028 1.403 . S
C1028 C1027 1.403 . S
C1028 C1029 1.404 . S
C1028 C1031 1.539 . S
C1029 C1025 1.408 . S
C1029 C1028 1.404 . S
C1029 H1041 0.930 . S
C1030 C1026 1.524 . S
C1030 H1042 0.956 . S
C1030 H1043 0.961 . S
C1030 H1044 0.961 . S
C1031 C1028 1.539 . S
C1031 H1045 0.958 . S
C1031 H1046 0.961 . S
C1031 H1047 0.960 . S
H1032 C1016 0.931 . S
H1033 C1021 0.929 . S
H1034 C1022 0.960 . S
H1035 C1022 0.962 . S
H1036 C1022 0.960 . S
H1037 C1023 0.961 . S
H1038 C1023 0.961 . S
H1039 C1023 0.961 . S
H1040 C1024 0.931 . S
H1041 C1029 0.930 . S
H1042 C1030 0.956 . S
H1043 C1030 0.961 . S
H1044 C1030 0.961 . S
H1045 C1031 0.958 . S
H1046 C1031 0.961 . S
H1047 C1031 0.960 . S
C1048 C1049 1.391 . S
C1048 C1050 1.394 . S
C1048 H1064 0.931 . S
C1049 C1048 1.391 . S
C1049 C1053 1.376 . S
C1050 C1048 1.394 . S
C1050 C1051 1.369 . S
C1050 C1054 1.531 . S
C1051 C1050 1.369 . S
C1051 C1052 1.410 . S
C1051 C1059 1.503 . S
C1052 C1051 1.410 . S
C1052 C1053 1.392 . S
C1052 C1055 1.511 . S
C1053 C1049 1.376 . S
C1053 C1052 1.392 . S
C1053 H1065 0.929 . S
C1054 C1050 1.531 . S
C1054 H1066 0.960 . S
C1054 H1067 0.962 . S
C1054 H1068 0.960 . S
C1055 C1052 1.511 . S
C1055 H1069 0.961 . S
C1055 H1070 0.961 . S
C1055 H1071 0.961 . S
C1056 C1057 1.370 . S
C1056 C1058 1.363 . S
C1056 H1072 0.931 . S
C1057 C1056 1.370 . S
C1057 C1061 1.408 . S
C1058 C1056 1.363 . S
C1058 C1059 1.370 . S
C1058 C1062 1.524 . S
C1059 C1051 1.503 . S
C1059 C1058 1.370 . S
C1059 C1060 1.403 . S
C1060 C1059 1.403 . S
C1060 C1061 1.404 . S
C1060 C1063 1.539 . S
C1061 C1057 1.408 . S
C1061 C1060 1.404 . S
C1061 H1073 0.930 . S
C1062 C1058 1.524 . S
C1062 H1074 0.956 . S
C1062 H1075 0.961 . S
C1062 H1076 0.961 . S
C1063 C1060 1.539 . S
C1063 H1077 0.958 . S
C1063 H1078 0.961 . S
C1063 H1079 0.960 . S
H1064 C1048 0.931 . S
H1065 C1053 0.929 . S
H1066 C1054 0.960 . S
H1067 C1054 0.962 . S
H1068 C1054 0.960 . S
H1069 C1055 0.961 . S
H1070 C1055 0.961 . S
H1071 C1055 0.961 . S
H1072 C1056 0.931 . S
H1073 C1061 0.930 . S
H1074 C1062 0.956 . S
H1075 C1062 0.961 . S
H1076 C1062 0.961 . S
H1077 C1063 0.958 . S
H1078 C1063 0.961 . S
H1079 C1063 0.960 . S
C313 C125 1.940 1_545 S
C321 C170 1.975 1_545 S
C353 C210 1.987 . S
C345 C144 1.956 . S
C385 C250 1.985 . S
C377 C87 1.936 . S
C417 C290 1.978 1_455 S
C409 C106 1.931 . S
C449 C160 1.980 1_565 S
C441 C49 1.932 1_545 S
C473 C68 1.952 . S
C481 C200 1.986 . S
C505 C11 1.911 . S
C513 C240 1.990 . S
C537 C30 1.912 . S
C545 C280 1.984 1_655 S
C577 C157 0.495 . S
C569 C97 0.492 . S
C609 C197 0.494 . S
C601 C116 0.545 . S
C641 C237 0.504 . S
C633 C135 0.535 . S
C665 C78 0.498 . S
C673 C277 0.530 . S
C697 C21 0.579 . S
C705 C167 0.484 . S
C737 C207 0.534 . S
C729 C40 0.515 1_545 S
C769 C247 0.495 . S
C761 C59 0.638 . S
C793 C2 0.488 . S
C801 C287 0.516 . S
C825 C101 2.030 1_455 S
C833 C161 2.272 . S
C857 C120 2.065 1_545 S
C865 C201 2.265 . S
C897 C241 2.248 . S
C889 C139 2.003 . S
C929 C281 2.270 . S
C921 C82 2.016 . S
C953 C25 2.092 1_455 S
C961 C171 2.280 . S
C993 C211 2.258 . S
C985 C44 2.018 . S
C1025 C251 2.247 . S
C1017 C63 2.073 . S
C1049 C6 2.031 . S
C1057 C291 2.280 . S
