# Generated by pormake.
# Topology tbo, (3,4)-cn, num edge types: 1
# Building blocks:
#     Node 0, Type 0, BuildingBlock: OLANEW_clean_sbu_2, # of connection points: 3
#     Node 1, Type 0, BuildingBlock: OLANEW_clean_sbu_2, # of connection points: 3
#     Node 2, Type 0, BuildingBlock: OLANEW_clean_sbu_2, # of connection points: 3
#     Node 3, Type 0, BuildingBlock: OLANEW_clean_sbu_2, # of connection points: 3
#     Node 4, Type 0, BuildingBlock: OLANEW_clean_sbu_2, # of connection points: 3
#     Node 5, Type 0, BuildingBlock: OLANEW_clean_sbu_2, # of connection points: 3
#     Node 6, Type 0, BuildingBlock: OLANEW_clean_sbu_2, # of connection points: 3
#     Node 7, Type 0, BuildingBlock: OLANEW_clean_sbu_2, # of connection points: 3
#     Node 8, Type 0, BuildingBlock: OLANEW_clean_sbu_2, # of connection points: 3
#     Node 9, Type 0, BuildingBlock: OLANEW_clean_sbu_2, # of connection points: 3
#     Node 10, Type 0, BuildingBlock: OLANEW_clean_sbu_2, # of connection points: 3
#     Node 11, Type 0, BuildingBlock: OLANEW_clean_sbu_2, # of connection points: 3
#     Node 12, Type 0, BuildingBlock: OLANEW_clean_sbu_2, # of connection points: 3
#     Node 13, Type 0, BuildingBlock: OLANEW_clean_sbu_2, # of connection points: 3
#     Node 14, Type 0, BuildingBlock: OLANEW_clean_sbu_2, # of connection points: 3
#     Node 15, Type 0, BuildingBlock: OLANEW_clean_sbu_2, # of connection points: 3
#     Node 16, Type 0, BuildingBlock: OLANEW_clean_sbu_2, # of connection points: 3
#     Node 17, Type 0, BuildingBlock: OLANEW_clean_sbu_2, # of connection points: 3
#     Node 18, Type 0, BuildingBlock: OLANEW_clean_sbu_2, # of connection points: 3
#     Node 19, Type 0, BuildingBlock: OLANEW_clean_sbu_2, # of connection points: 3
#     Node 20, Type 0, BuildingBlock: OLANEW_clean_sbu_2, # of connection points: 3
#     Node 21, Type 0, BuildingBlock: OLANEW_clean_sbu_2, # of connection points: 3
#     Node 22, Type 0, BuildingBlock: OLANEW_clean_sbu_2, # of connection points: 3
#     Node 23, Type 0, BuildingBlock: OLANEW_clean_sbu_2, # of connection points: 3
#     Node 24, Type 0, BuildingBlock: OLANEW_clean_sbu_2, # of connection points: 3
#     Node 25, Type 0, BuildingBlock: OLANEW_clean_sbu_2, # of connection points: 3
#     Node 26, Type 0, BuildingBlock: OLANEW_clean_sbu_2, # of connection points: 3
#     Node 27, Type 0, BuildingBlock: OLANEW_clean_sbu_2, # of connection points: 3
#     Node 28, Type 0, BuildingBlock: OLANEW_clean_sbu_2, # of connection points: 3
#     Node 29, Type 0, BuildingBlock: OLANEW_clean_sbu_2, # of connection points: 3
#     Node 30, Type 0, BuildingBlock: OLANEW_clean_sbu_2, # of connection points: 3
#     Node 31, Type 0, BuildingBlock: OLANEW_clean_sbu_2, # of connection points: 3
#     Node 32, Type 1, BuildingBlock: MIFKUJ_clean_linker_1, # of connection points: 4
#     Node 33, Type 1, BuildingBlock: MIFKUJ_clean_linker_1, # of connection points: 4
#     Node 34, Type 1, BuildingBlock: MIFKUJ_clean_linker_1, # of connection points: 4
#     Node 35, Type 1, BuildingBlock: MIFKUJ_clean_linker_1, # of connection points: 4
#     Node 36, Type 1, BuildingBlock: MIFKUJ_clean_linker_1, # of connection points: 4
#     Node 37, Type 1, BuildingBlock: MIFKUJ_clean_linker_1, # of connection points: 4
#     Node 38, Type 1, BuildingBlock: MIFKUJ_clean_linker_1, # of connection points: 4
#     Node 39, Type 1, BuildingBlock: MIFKUJ_clean_linker_1, # of connection points: 4
#     Node 40, Type 1, BuildingBlock: MIFKUJ_clean_linker_1, # of connection points: 4
#     Node 41, Type 1, BuildingBlock: MIFKUJ_clean_linker_1, # of connection points: 4
#     Node 42, Type 1, BuildingBlock: MIFKUJ_clean_linker_1, # of connection points: 4
#     Node 43, Type 1, BuildingBlock: MIFKUJ_clean_linker_1, # of connection points: 4
#     Node 44, Type 1, BuildingBlock: MIFKUJ_clean_linker_1, # of connection points: 4
#     Node 45, Type 1, BuildingBlock: MIFKUJ_clean_linker_1, # of connection points: 4
#     Node 46, Type 1, BuildingBlock: MIFKUJ_clean_linker_1, # of connection points: 4
#     Node 47, Type 1, BuildingBlock: MIFKUJ_clean_linker_1, # of connection points: 4
#     Node 48, Type 1, BuildingBlock: MIFKUJ_clean_linker_1, # of connection points: 4
#     Node 49, Type 1, BuildingBlock: MIFKUJ_clean_linker_1, # of connection points: 4
#     Node 50, Type 1, BuildingBlock: MIFKUJ_clean_linker_1, # of connection points: 4
#     Node 51, Type 1, BuildingBlock: MIFKUJ_clean_linker_1, # of connection points: 4
#     Node 52, Type 1, BuildingBlock: MIFKUJ_clean_linker_1, # of connection points: 4
#     Node 53, Type 1, BuildingBlock: MIFKUJ_clean_linker_1, # of connection points: 4
#     Node 54, Type 1, BuildingBlock: MIFKUJ_clean_linker_1, # of connection points: 4
#     Node 55, Type 1, BuildingBlock: MIFKUJ_clean_linker_1, # of connection points: 4
#     Edge 56, Type (0, 1), BuildingBlock: KIFKEQ_clean_linker_1, # of connection points: 2
#     Edge 57, Type (0, 1), BuildingBlock: KIFKEQ_clean_linker_1, # of connection points: 2
#     Edge 58, Type (0, 1), BuildingBlock: KIFKEQ_clean_linker_1, # of connection points: 2
#     Edge 59, Type (0, 1), BuildingBlock: KIFKEQ_clean_linker_1, # of connection points: 2
#     Edge 60, Type (0, 1), BuildingBlock: KIFKEQ_clean_linker_1, # of connection points: 2
#     Edge 61, Type (0, 1), BuildingBlock: KIFKEQ_clean_linker_1, # of connection points: 2
#     Edge 62, Type (0, 1), BuildingBlock: KIFKEQ_clean_linker_1, # of connection points: 2
#     Edge 63, Type (0, 1), BuildingBlock: KIFKEQ_clean_linker_1, # of connection points: 2
#     Edge 64, Type (0, 1), BuildingBlock: KIFKEQ_clean_linker_1, # of connection points: 2
#     Edge 65, Type (0, 1), BuildingBlock: KIFKEQ_clean_linker_1, # of connection points: 2
#     Edge 66, Type (0, 1), BuildingBlock: KIFKEQ_clean_linker_1, # of connection points: 2
#     Edge 67, Type (0, 1), BuildingBlock: KIFKEQ_clean_linker_1, # of connection points: 2
#     Edge 68, Type (0, 1), BuildingBlock: KIFKEQ_clean_linker_1, # of connection points: 2
#     Edge 69, Type (0, 1), BuildingBlock: KIFKEQ_clean_linker_1, # of connection points: 2
#     Edge 70, Type (0, 1), BuildingBlock: KIFKEQ_clean_linker_1, # of connection points: 2
#     Edge 71, Type (0, 1), BuildingBlock: KIFKEQ_clean_linker_1, # of connection points: 2
#     Edge 72, Type (0, 1), BuildingBlock: KIFKEQ_clean_linker_1, # of connection points: 2
#     Edge 73, Type (0, 1), BuildingBlock: KIFKEQ_clean_linker_1, # of connection points: 2
#     Edge 74, Type (0, 1), BuildingBlock: KIFKEQ_clean_linker_1, # of connection points: 2
#     Edge 75, Type (0, 1), BuildingBlock: KIFKEQ_clean_linker_1, # of connection points: 2
#     Edge 76, Type (0, 1), BuildingBlock: KIFKEQ_clean_linker_1, # of connection points: 2
#     Edge 77, Type (0, 1), BuildingBlock: KIFKEQ_clean_linker_1, # of connection points: 2
#     Edge 78, Type (0, 1), BuildingBlock: KIFKEQ_clean_linker_1, # of connection points: 2
#     Edge 79, Type (0, 1), BuildingBlock: KIFKEQ_clean_linker_1, # of connection points: 2
#     Edge 80, Type (0, 1), BuildingBlock: KIFKEQ_clean_linker_1, # of connection points: 2
#     Edge 81, Type (0, 1), BuildingBlock: KIFKEQ_clean_linker_1, # of connection points: 2
#     Edge 82, Type (0, 1), BuildingBlock: KIFKEQ_clean_linker_1, # of connection points: 2
#     Edge 83, Type (0, 1), BuildingBlock: KIFKEQ_clean_linker_1, # of connection points: 2
#     Edge 84, Type (0, 1), BuildingBlock: KIFKEQ_clean_linker_1, # of connection points: 2
#     Edge 85, Type (0, 1), BuildingBlock: KIFKEQ_clean_linker_1, # of connection points: 2
#     Edge 86, Type (0, 1), BuildingBlock: KIFKEQ_clean_linker_1, # of connection points: 2
#     Edge 87, Type (0, 1), BuildingBlock: KIFKEQ_clean_linker_1, # of connection points: 2
#     Edge 88, Type (0, 1), BuildingBlock: KIFKEQ_clean_linker_1, # of connection points: 2
#     Edge 89, Type (0, 1), BuildingBlock: KIFKEQ_clean_linker_1, # of connection points: 2
#     Edge 90, Type (0, 1), BuildingBlock: KIFKEQ_clean_linker_1, # of connection points: 2
#     Edge 91, Type (0, 1), BuildingBlock: KIFKEQ_clean_linker_1, # of connection points: 2
#     Edge 92, Type (0, 1), BuildingBlock: KIFKEQ_clean_linker_1, # of connection points: 2
#     Edge 93, Type (0, 1), BuildingBlock: KIFKEQ_clean_linker_1, # of connection points: 2
#     Edge 94, Type (0, 1), BuildingBlock: KIFKEQ_clean_linker_1, # of connection points: 2
#     Edge 95, Type (0, 1), BuildingBlock: KIFKEQ_clean_linker_1, # of connection points: 2
#     Edge 96, Type (0, 1), BuildingBlock: KIFKEQ_clean_linker_1, # of connection points: 2
#     Edge 97, Type (0, 1), BuildingBlock: KIFKEQ_clean_linker_1, # of connection points: 2
#     Edge 98, Type (0, 1), BuildingBlock: KIFKEQ_clean_linker_1, # of connection points: 2
#     Edge 99, Type (0, 1), BuildingBlock: KIFKEQ_clean_linker_1, # of connection points: 2
#     Edge 100, Type (0, 1), BuildingBlock: KIFKEQ_clean_linker_1, # of connection points: 2
#     Edge 101, Type (0, 1), BuildingBlock: KIFKEQ_clean_linker_1, # of connection points: 2
#     Edge 102, Type (0, 1), BuildingBlock: KIFKEQ_clean_linker_1, # of connection points: 2
#     Edge 103, Type (0, 1), BuildingBlock: KIFKEQ_clean_linker_1, # of connection points: 2
#     Edge 104, Type (0, 1), BuildingBlock: KIFKEQ_clean_linker_1, # of connection points: 2
#     Edge 105, Type (0, 1), BuildingBlock: KIFKEQ_clean_linker_1, # of connection points: 2
#     Edge 106, Type (0, 1), BuildingBlock: KIFKEQ_clean_linker_1, # of connection points: 2
#     Edge 107, Type (0, 1), BuildingBlock: KIFKEQ_clean_linker_1, # of connection points: 2
#     Edge 108, Type (0, 1), BuildingBlock: KIFKEQ_clean_linker_1, # of connection points: 2
#     Edge 109, Type (0, 1), BuildingBlock: KIFKEQ_clean_linker_1, # of connection points: 2
#     Edge 110, Type (0, 1), BuildingBlock: KIFKEQ_clean_linker_1, # of connection points: 2
#     Edge 111, Type (0, 1), BuildingBlock: KIFKEQ_clean_linker_1, # of connection points: 2
#     Edge 112, Type (0, 1), BuildingBlock: KIFKEQ_clean_linker_1, # of connection points: 2
#     Edge 113, Type (0, 1), BuildingBlock: KIFKEQ_clean_linker_1, # of connection points: 2
#     Edge 114, Type (0, 1), BuildingBlock: KIFKEQ_clean_linker_1, # of connection points: 2
#     Edge 115, Type (0, 1), BuildingBlock: KIFKEQ_clean_linker_1, # of connection points: 2
#     Edge 116, Type (0, 1), BuildingBlock: KIFKEQ_clean_linker_1, # of connection points: 2
#     Edge 117, Type (0, 1), BuildingBlock: KIFKEQ_clean_linker_1, # of connection points: 2
#     Edge 118, Type (0, 1), BuildingBlock: KIFKEQ_clean_linker_1, # of connection points: 2
#     Edge 119, Type (0, 1), BuildingBlock: KIFKEQ_clean_linker_1, # of connection points: 2
#     Edge 120, Type (0, 1), BuildingBlock: KIFKEQ_clean_linker_1, # of connection points: 2
#     Edge 121, Type (0, 1), BuildingBlock: KIFKEQ_clean_linker_1, # of connection points: 2
#     Edge 122, Type (0, 1), BuildingBlock: KIFKEQ_clean_linker_1, # of connection points: 2
#     Edge 123, Type (0, 1), BuildingBlock: KIFKEQ_clean_linker_1, # of connection points: 2
#     Edge 124, Type (0, 1), BuildingBlock: KIFKEQ_clean_linker_1, # of connection points: 2
#     Edge 125, Type (0, 1), BuildingBlock: KIFKEQ_clean_linker_1, # of connection points: 2
#     Edge 126, Type (0, 1), BuildingBlock: KIFKEQ_clean_linker_1, # of connection points: 2
#     Edge 127, Type (0, 1), BuildingBlock: KIFKEQ_clean_linker_1, # of connection points: 2
#     Edge 128, Type (0, 1), BuildingBlock: KIFKEQ_clean_linker_1, # of connection points: 2
#     Edge 129, Type (0, 1), BuildingBlock: KIFKEQ_clean_linker_1, # of connection points: 2
#     Edge 130, Type (0, 1), BuildingBlock: KIFKEQ_clean_linker_1, # of connection points: 2
#     Edge 131, Type (0, 1), BuildingBlock: KIFKEQ_clean_linker_1, # of connection points: 2
#     Edge 132, Type (0, 1), BuildingBlock: KIFKEQ_clean_linker_1, # of connection points: 2
#     Edge 133, Type (0, 1), BuildingBlock: KIFKEQ_clean_linker_1, # of connection points: 2
#     Edge 134, Type (0, 1), BuildingBlock: KIFKEQ_clean_linker_1, # of connection points: 2
#     Edge 135, Type (0, 1), BuildingBlock: KIFKEQ_clean_linker_1, # of connection points: 2
#     Edge 136, Type (0, 1), BuildingBlock: KIFKEQ_clean_linker_1, # of connection points: 2
#     Edge 137, Type (0, 1), BuildingBlock: KIFKEQ_clean_linker_1, # of connection points: 2
#     Edge 138, Type (0, 1), BuildingBlock: KIFKEQ_clean_linker_1, # of connection points: 2
#     Edge 139, Type (0, 1), BuildingBlock: KIFKEQ_clean_linker_1, # of connection points: 2
#     Edge 140, Type (0, 1), BuildingBlock: KIFKEQ_clean_linker_1, # of connection points: 2
#     Edge 141, Type (0, 1), BuildingBlock: KIFKEQ_clean_linker_1, # of connection points: 2
#     Edge 142, Type (0, 1), BuildingBlock: KIFKEQ_clean_linker_1, # of connection points: 2
#     Edge 143, Type (0, 1), BuildingBlock: KIFKEQ_clean_linker_1, # of connection points: 2
#     Edge 144, Type (0, 1), BuildingBlock: KIFKEQ_clean_linker_1, # of connection points: 2
#     Edge 145, Type (0, 1), BuildingBlock: KIFKEQ_clean_linker_1, # of connection points: 2
#     Edge 146, Type (0, 1), BuildingBlock: KIFKEQ_clean_linker_1, # of connection points: 2
#     Edge 147, Type (0, 1), BuildingBlock: KIFKEQ_clean_linker_1, # of connection points: 2
#     Edge 148, Type (0, 1), BuildingBlock: KIFKEQ_clean_linker_1, # of connection points: 2
#     Edge 149, Type (0, 1), BuildingBlock: KIFKEQ_clean_linker_1, # of connection points: 2
#     Edge 150, Type (0, 1), BuildingBlock: KIFKEQ_clean_linker_1, # of connection points: 2
#     Edge 151, Type (0, 1), BuildingBlock: KIFKEQ_clean_linker_1, # of connection points: 2
# Relax obj value: 0.021
# Max RMSD: 0.133
# Mean RMSD: 0.095
data_MOF--net-tbo--node1-OLANEW_clean_sbu_2--node2-MIFKUJ_clean_linker_1--edge1-KIFKEQ_clean_linker_1
_symmetry_space_group_name_H-M    P1
_symmetry_Int_Tables_number       1
_symmetry_cell_setting            triclinic
loop_
_symmetry_equiv_pos_as_xyz
'x, y, z'
_cell_length_a     91.085398
_cell_length_b     93.195784
_cell_length_c     90.283454
_cell_angle_alpha  97.257336
_cell_angle_beta   87.328548
_cell_angle_gamma 98.639186
loop_
_atom_site_label
_atom_site_type_symbol
_atom_site_fract_x
_atom_site_fract_y
_atom_site_fract_z
_atom_type_partial_charge
O0 O 0.21667 0.17652 0.18328 0.0
Cd1 Cd 0.20411 0.16607 0.20495 0.0
O2 O 0.20773 0.19745 0.18781 0.0
Cd3 Cd 0.19082 0.19241 0.20519 0.0
O4 O 0.16958 0.19786 0.21519 0.0
C5 C 0.16186 0.20357 0.20678 0.0
O6 O 0.1669 0.20523 0.19313 0.0
C7 C 0.2162 0.18941 0.18023 0.0
C8 C 0.2176 0.14323 0.21328 0.0
O9 O 0.20639 0.1406 0.20477 0.0
O10 O 0.22247 0.15661 0.21781 0.0
O11 O 0.86071 0.20316 0.17966 0.0
Cd12 Cd 0.83705 0.18925 0.171 0.0
O13 O 0.87211 0.18383 0.17478 0.0
Cd14 Cd 0.85167 0.16855 0.171 0.0
O15 O 0.83584 0.15183 0.1803 0.0
C16 C 0.83291 0.15438 0.1942 0.0
O17 O 0.83876 0.16691 0.20144 0.0
C18 C 0.87257 0.19742 0.17906 0.0
C19 C 0.82809 0.19839 0.14503 0.0
O20 O 0.82335 0.2035 0.15793 0.0
O21 O 0.83707 0.18897 0.14442 0.0
O22 O 0.8679 0.83431 0.19127 0.0
Cd23 Cd 0.87525 0.84677 0.21583 0.0
O24 O 0.8676 0.85476 0.18158 0.0
Cd25 Cd 0.87237 0.86907 0.20234 0.0
O26 O 0.86802 0.88739 0.21866 0.0
C27 C 0.8558 0.88607 0.22608 0.0
O28 O 0.84697 0.87349 0.22438 0.0
C29 C 0.86596 0.84087 0.18015 0.0
C30 C 0.90045 0.83707 0.22501 0.0
O31 O 0.88743 0.83015 0.22721 0.0
O32 O 0.90158 0.84869 0.21856 0.0
O33 O 0.22434 0.84923 0.19954 0.0
Cd34 Cd 0.20936 0.82534 0.19333 0.0
O35 O 0.24366 0.84171 0.20824 0.0
Cd36 Cd 0.23067 0.82011 0.20865 0.0
O37 O 0.20992 0.80846 0.2169 0.0
C38 C 0.20223 0.81684 0.22507 0.0
O39 O 0.20756 0.83079 0.22777 0.0
C40 C 0.23739 0.85203 0.20464 0.0
C41 C 0.21854 0.81155 0.16602 0.0
O42 O 0.20974 0.82114 0.16666 0.0
O43 O 0.22296 0.80837 0.17831 0.0
O44 O 0.22795 0.87781 0.86294 0.0
Cd45 Cd 0.21576 0.85792 0.87642 0.0
O46 O 0.20601 0.87422 0.85333 0.0
Cd47 Cd 0.18816 0.87633 0.83877 0.0
O48 O 0.1671 0.86961 0.82761 0.0
C49 C 0.16659 0.86536 0.81368 0.0
O50 O 0.17904 0.86581 0.80567 0.0
C51 C 0.21898 0.88149 0.85425 0.0
C52 C 0.23378 0.84313 0.89123 0.0
O53 O 0.22974 0.83836 0.87788 0.0
O54 O 0.2297 0.85514 0.89734 0.0
O55 O 0.21499 0.2014 0.87255 0.0
Cd56 Cd 0.20272 0.19587 0.84854 0.0
O57 O 0.19454 0.20571 0.88518 0.0
Cd58 Cd 0.18108 0.20394 0.86549 0.0
O59 O 0.16526 0.20948 0.85047 0.0
C60 C 0.1678 0.22204 0.84601 0.0
O61 O 0.18007 0.23072 0.85003 0.0
C62 C 0.2083 0.20461 0.88494 0.0
C63 C 0.20902 0.16917 0.83395 0.0
O64 O 0.21733 0.18118 0.83191 0.0
O65 O 0.19763 0.16982 0.84276 0.0
O66 O 0.82912 0.2639 0.83285 0.0
Cd67 Cd 0.83854 0.26759 0.80765 0.0
O68 O 0.83434 0.24158 0.82822 0.0
Cd69 Cd 0.83375 0.21895 0.83257 0.0
O70 O 0.8305 0.19516 0.8313 0.0
C71 C 0.81745 0.18841 0.83298 0.0
O72 O 0.80641 0.19601 0.83602 0.0
C73 C 0.82935 0.25149 0.83717 0.0
C74 C 0.86938 0.26932 0.80563 0.0
O75 O 0.86319 0.28087 0.80858 0.0
O76 O 0.86097 0.25696 0.80359 0.0
O77 O 0.87628 0.85555 0.83121 0.0
Cd78 Cd 0.8582 0.86662 0.84825 0.0
O79 O 0.87032 0.83317 0.8373 0.0
Cd80 Cd 0.85446 0.8375 0.85573 0.0
O81 O 0.84365 0.83171 0.87685 0.0
C82 C 0.85205 0.8289 0.88664 0.0
O83 O 0.86645 0.8303 0.8838 0.0
C84 C 0.878 0.84213 0.82944 0.0
C85 C 0.84816 0.89018 0.83728 0.0
O86 O 0.86018 0.89199 0.84456 0.0
O87 O 0.84091 0.87723 0.83511 0.0
O88 O 0.21068 0.6711 0.68101 0.0
Cd89 Cd 0.19459 0.66056 0.70064 0.0
O90 O 0.20437 0.69328 0.68503 0.0
Cd91 Cd 0.18602 0.6897 0.70134 0.0
O92 O 0.16508 0.69653 0.71067 0.0
C93 C 0.15663 0.70014 0.70138 0.0
O94 O 0.16065 0.69891 0.68716 0.0
C95 C 0.21221 0.68425 0.67805 0.0
C96 C 0.20644 0.63816 0.71196 0.0
O97 O 0.19841 0.6355 0.70037 0.0
O98 O 0.20891 0.6514 0.7182 0.0
O99 O 0.85188 0.70442 0.68549 0.0
Cd100 Cd 0.82697 0.69285 0.67813 0.0
O101 O 0.8628 0.68555 0.67647 0.0
Cd102 Cd 0.8417 0.67133 0.67264 0.0
O103 O 0.82543 0.65421 0.68068 0.0
C104 C 0.82341 0.65532 0.69478 0.0
O105 O 0.83039 0.66678 0.70293 0.0
C106 C 0.86366 0.69865 0.68272 0.0
C107 C 0.82027 0.70097 0.65081 0.0
O108 O 0.81832 0.70906 0.6631 0.0
O109 O 0.82527 0.68892 0.65142 0.0
O110 O 0.86024 0.32402 0.6976 0.0
Cd111 Cd 0.86478 0.33731 0.72246 0.0
O112 O 0.85923 0.34417 0.68761 0.0
Cd113 Cd 0.86026 0.3589 0.70845 0.0
O114 O 0.85186 0.37745 0.7215 0.0
C115 C 0.84325 0.38346 0.71435 0.0
O116 O 0.84053 0.37819 0.70038 0.0
C117 C 0.85888 0.33038 0.68619 0.0
C118 C 0.89263 0.33428 0.73221 0.0
O119 O 0.88113 0.32507 0.73472 0.0
O120 O 0.89095 0.345 0.72515 0.0
O121 O 0.28951 0.34471 0.71855 0.0
Cd122 Cd 0.29533 0.31997 0.71167 0.0
O123 O 0.26618 0.33602 0.72237 0.0
Cd124 Cd 0.24236 0.33562 0.72716 0.0
O125 O 0.21897 0.3314 0.73395 0.0
C126 C 0.21091 0.3415 0.73634 0.0
O127 O 0.21676 0.35497 0.73456 0.0
C128 C 0.27634 0.34699 0.72218 0.0
C129 C 0.29062 0.31114 0.68141 0.0
O130 O 0.28055 0.30766 0.69125 0.0
O131 O 0.30291 0.31864 0.6859 0.0
O132 O 0.21451 0.35895 0.34499 0.0
Cd133 Cd 0.20115 0.33539 0.35076 0.0
O134 O 0.20443 0.37229 0.36345 0.0
Cd135 Cd 0.18733 0.35392 0.36688 0.0
O136 O 0.16744 0.33973 0.35853 0.0
C137 C 0.16615 0.33866 0.34446 0.0
O138 O 0.17678 0.34553 0.33651 0.0
C139 C 0.21374 0.37131 0.35256 0.0
C140 C 0.21264 0.3261 0.37547 0.0
O141 O 0.2183 0.32339 0.36233 0.0
O142 O 0.20153 0.33317 0.37692 0.0
O143 O 0.20957 0.68982 0.37523 0.0
Cd144 Cd 0.19512 0.68172 0.35276 0.0
O145 O 0.18934 0.68957 0.38956 0.0
Cd146 Cd 0.17423 0.68656 0.37104 0.0
O147 O 0.15814 0.69288 0.35688 0.0
C148 C 0.15928 0.70646 0.35578 0.0
O149 O 0.1701 0.71538 0.36264 0.0
C150 C 0.20344 0.69125 0.38818 0.0
C151 C 0.20287 0.65534 0.33891 0.0
O152 O 0.20846 0.66749 0.33427 0.0
O153 O 0.19349 0.65566 0.34992 0.0
O154 O 0.82508 0.76548 0.33475 0.0
Cd155 Cd 0.83481 0.7702 0.30993 0.0
O156 O 0.83102 0.74344 0.32967 0.0
Cd157 Cd 0.83099 0.72078 0.33368 0.0
O158 O 0.82756 0.69691 0.33121 0.0
C159 C 0.82319 0.69054 0.31856 0.0
O160 O 0.8212 0.69856 0.30806 0.0
C161 C 0.8257 0.75302 0.33878 0.0
C162 C 0.86521 0.76887 0.30791 0.0
O163 O 0.86029 0.78096 0.31214 0.0
O164 O 0.85573 0.75743 0.30448 0.0
O165 O 0.87687 0.35584 0.33415 0.0
Cd166 Cd 0.85812 0.3685 0.34871 0.0
O167 O 0.87844 0.34151 0.35151 0.0
Cd168 Cd 0.86116 0.34748 0.36776 0.0
O169 O 0.84937 0.34016 0.38784 0.0
C170 C 0.84834 0.32649 0.38854 0.0
O171 O 0.85369 0.31826 0.37728 0.0
C172 C 0.88272 0.34581 0.33897 0.0
C173 C 0.84893 0.39119 0.33543 0.0
O174 O 0.86066 0.39339 0.34319 0.0
O175 O 0.84166 0.37823 0.33372 0.0
O176 O 0.71703 0.17802 0.68139 0.0
Cd177 Cd 0.70258 0.16682 0.70167 0.0
O178 O 0.69783 0.18599 0.67283 0.0
Cd179 Cd 0.68139 0.18146 0.69075 0.0
O180 O 0.66079 0.18667 0.70238 0.0
C181 C 0.65246 0.19265 0.69486 0.0
O182 O 0.6566 0.19477 0.68107 0.0
C183 C 0.71145 0.18424 0.67169 0.0
C184 C 0.71611 0.14504 0.7121 0.0
O185 O 0.70795 0.14219 0.70061 0.0
O186 O 0.71795 0.15818 0.71865 0.0
O187 O 0.34926 0.20598 0.69012 0.0
Cd188 Cd 0.32493 0.19463 0.68082 0.0
O189 O 0.36193 0.19367 0.67294 0.0
Cd190 Cd 0.34262 0.17698 0.66838 0.0
O191 O 0.33078 0.15637 0.6747 0.0
C192 C 0.31745 0.15479 0.67976 0.0
O193 O 0.3098 0.16573 0.68036 0.0
C194 C 0.3616 0.20381 0.68374 0.0
C195 C 0.31973 0.20419 0.65368 0.0
O196 O 0.31759 0.21193 0.66615 0.0
O197 O 0.3242 0.19184 0.65399 0.0
O198 O 0.3767 0.84023 0.6816 0.0
Cd199 Cd 0.38855 0.85886 0.70059 0.0
O200 O 0.35404 0.84147 0.69069 0.0
Cd201 Cd 0.36027 0.86001 0.70757 0.0
O202 O 0.35567 0.88075 0.71956 0.0
C203 C 0.34322 0.88062 0.72654 0.0
O204 O 0.33449 0.86808 0.7269 0.0
C205 C 0.36282 0.83575 0.68114 0.0
C206 C 0.41272 0.84917 0.71205 0.0
O207 O 0.39985 0.84736 0.7185 0.0
O208 O 0.41419 0.85571 0.70029 0.0
O209 O 0.74396 0.84805 0.70955 0.0
Cd210 Cd 0.7319 0.8227 0.70451 0.0
O211 O 0.75239 0.84514 0.73125 0.0
Cd212 Cd 0.73917 0.82361 0.73095 0.0
O213 O 0.71694 0.81149 0.7332 0.0
C214 C 0.7066 0.81885 0.73151 0.0
O215 O 0.7102 0.83232 0.72829 0.0
C216 C 0.75149 0.85319 0.72105 0.0
C217 C 0.73641 0.81137 0.67486 0.0
O218 O 0.72489 0.81743 0.67893 0.0
O219 O 0.74574 0.81063 0.68484 0.0
O220 O 0.71279 0.86463 0.34721 0.0
Cd221 Cd 0.69777 0.84265 0.35499 0.0
O222 O 0.70406 0.87939 0.36536 0.0
Cd223 Cd 0.68654 0.86212 0.3709 0.0
O224 O 0.66672 0.84723 0.36346 0.0
C225 C 0.66463 0.84636 0.34953 0.0
O226 O 0.67431 0.85407 0.34131 0.0
C227 C 0.71288 0.8774 0.35418 0.0
C228 C 0.71099 0.83095 0.37705 0.0
O229 O 0.71228 0.82587 0.36326 0.0
O230 O 0.70354 0.84159 0.38039 0.0
O231 O 0.70605 0.19437 0.37684 0.0
Cd232 Cd 0.69153 0.18568 0.35449 0.0
O233 O 0.68633 0.1911 0.39173 0.0
Cd234 Cd 0.67086 0.18736 0.37345 0.0
O235 O 0.65536 0.19305 0.3582 0.0
C236 C 0.6565 0.20655 0.35665 0.0
O237 O 0.66691 0.21574 0.36384 0.0
C238 C 0.70031 0.19447 0.38996 0.0
C239 C 0.70001 0.15964 0.34055 0.0
O240 O 0.70517 0.17188 0.33587 0.0
O241 O 0.69073 0.1597 0.35166 0.0
O242 O 0.32398 0.25665 0.33054 0.0
Cd243 Cd 0.33216 0.25348 0.30435 0.0
O244 O 0.3243 0.23316 0.32927 0.0
Cd245 Cd 0.32311 0.2115 0.33653 0.0
O246 O 0.32122 0.18786 0.33623 0.0
C247 C 0.30844 0.1802 0.33592 0.0
O248 O 0.29662 0.18682 0.33655 0.0
C249 C 0.322 0.24508 0.33691 0.0
C250 C 0.36298 0.25555 0.30187 0.0
O251 O 0.35648 0.26652 0.30029 0.0
O252 O 0.35492 0.2436 0.30451 0.0
O253 O 0.37062 0.84729 0.33359 0.0
Cd254 Cd 0.34752 0.8557 0.34388 0.0
O255 O 0.37278 0.83429 0.35197 0.0
Cd256 Cd 0.35333 0.83809 0.36625 0.0
O257 O 0.34165 0.83135 0.38662 0.0
C258 C 0.34967 0.82618 0.39519 0.0
O259 O 0.36372 0.82582 0.39137 0.0
C260 C 0.37759 0.83882 0.33968 0.0
C261 C 0.34086 0.88056 0.33249 0.0
O262 O 0.34759 0.88168 0.34484 0.0
O263 O 0.33746 0.86775 0.32543 0.0
O264 O 0.71891 0.68056 0.17917 0.0
Cd265 Cd 0.70435 0.66865 0.19894 0.0
O266 O 0.70774 0.70022 0.18151 0.0
Cd267 Cd 0.69069 0.69487 0.19868 0.0
O268 O 0.66994 0.70008 0.21003 0.0
C269 C 0.66191 0.70641 0.20253 0.0
O270 O 0.66635 0.7088 0.18888 0.0
C271 C 0.71756 0.69294 0.17523 0.0
C272 C 0.71816 0.64679 0.2089 0.0
O273 O 0.7098 0.64402 0.19756 0.0
O274 O 0.72006 0.65991 0.21553 0.0
O275 O 0.35846 0.70402 0.1936 0.0
Cd276 Cd 0.33361 0.69206 0.18651 0.0
O277 O 0.36966 0.68573 0.18339 0.0
Cd278 Cd 0.34878 0.67114 0.17962 0.0
O279 O 0.33304 0.65329 0.18706 0.0
C280 C 0.33008 0.65426 0.20101 0.0
O281 O 0.33581 0.66607 0.20953 0.0
C282 C 0.37035 0.69862 0.19015 0.0
C283 C 0.32697 0.6993 0.15881 0.0
O284 O 0.32475 0.7076 0.17089 0.0
O285 O 0.33217 0.68744 0.15981 0.0
O286 O 0.36256 0.32996 0.19707 0.0
Cd287 Cd 0.36981 0.34343 0.22128 0.0
O288 O 0.37131 0.34797 0.18409 0.0
Cd289 Cd 0.3757 0.36364 0.20402 0.0
O290 O 0.37074 0.38232 0.21955 0.0
C291 C 0.35848 0.38097 0.22691 0.0
O292 O 0.34995 0.36821 0.22559 0.0
C293 C 0.36517 0.33484 0.18453 0.0
C294 C 0.39589 0.33528 0.23037 0.0
O295 O 0.3832 0.32779 0.23272 0.0
O296 O 0.39628 0.34678 0.22383 0.0
O297 O 0.72587 0.35458 0.20081 0.0
Cd298 Cd 0.71255 0.32991 0.19466 0.0
O299 O 0.74476 0.34758 0.21087 0.0
Cd300 Cd 0.73205 0.32587 0.21158 0.0
O301 O 0.71106 0.31409 0.21919 0.0
C302 C 0.70289 0.32238 0.22682 0.0
O303 O 0.70791 0.33642 0.22946 0.0
C304 C 0.73862 0.35767 0.20658 0.0
C305 C 0.72179 0.31761 0.16667 0.0
O306 O 0.71054 0.3245 0.16813 0.0
O307 O 0.72859 0.31644 0.17847 0.0
O308 O 0.71788 0.36309 0.84339 0.0
Cd309 Cd 0.70754 0.33766 0.8456 0.0
O310 O 0.69861 0.37192 0.85459 0.0
Cd311 Cd 0.68557 0.35042 0.85561 0.0
O312 O 0.6672 0.33352 0.84837 0.0
C313 C 0.66595 0.33018 0.83436 0.0
O314 O 0.67611 0.33634 0.8254 0.0
C315 C 0.71145 0.374 0.8484 0.0
C316 C 0.71839 0.32767 0.87019 0.0
O317 O 0.72531 0.32678 0.85749 0.0
O318 O 0.70632 0.33331 0.87126 0.0
O319 O 0.70441 0.69763 0.87676 0.0
Cd320 Cd 0.69128 0.69026 0.85341 0.0
O321 O 0.68473 0.69224 0.89117 0.0
Cd322 Cd 0.66972 0.68855 0.8725 0.0
O323 O 0.65349 0.69271 0.85712 0.0
C324 C 0.65655 0.70404 0.85044 0.0
O325 O 0.66949 0.71227 0.85257 0.0
C326 C 0.69859 0.69652 0.88972 0.0
C327 C 0.70032 0.66445 0.83958 0.0
O328 O 0.70729 0.67695 0.83707 0.0
O329 O 0.68887 0.66416 0.8484 0.0
O330 O 0.32686 0.75545 0.83455 0.0
Cd331 Cd 0.33382 0.75822 0.80855 0.0
O332 O 0.33041 0.73256 0.83016 0.0
Cd333 Cd 0.32932 0.71007 0.83514 0.0
O334 O 0.32507 0.68624 0.83355 0.0
C335 C 0.31175 0.67998 0.83476 0.0
O336 O 0.30108 0.68808 0.83755 0.0
C337 C 0.32699 0.74319 0.83926 0.0
C338 C 0.36453 0.76038 0.80447 0.0
O339 O 0.35826 0.77179 0.80813 0.0
O340 O 0.35624 0.74794 0.80258 0.0
O341 O 0.37466 0.35125 0.8328 0.0
Cd342 Cd 0.35499 0.36247 0.84741 0.0
O343 O 0.37724 0.33736 0.85029 0.0
Cd344 Cd 0.35933 0.34237 0.86621 0.0
O345 O 0.34781 0.3361 0.88681 0.0
C346 C 0.35548 0.33014 0.89503 0.0
O347 O 0.36926 0.32879 0.8908 0.0
C348 C 0.38126 0.3418 0.83775 0.0
C349 C 0.34446 0.38475 0.83463 0.0
O350 O 0.35623 0.3874 0.84236 0.0
O351 O 0.33781 0.37155 0.8327 0.0
H352 H 0.25585 0.2464 0.017 0.0
H353 H 0.24336 0.23735 0.99356 0.0
H354 H 0.28522 0.22836 0.97271 0.0
H355 H 0.29766 0.23741 0.99622 0.0
H356 H 0.27046 0.23393 0.03509 0.0
H357 H 0.28181 0.27364 0.00591 0.0
H358 H 0.29089 0.28649 0.98453 0.0
H359 H 0.33486 0.27609 0.98982 0.0
H360 H 0.32571 0.26327 0.01119 0.0
H361 H 0.32809 0.25961 0.05678 0.0
H362 H 0.34036 0.27067 0.07985 0.0
H363 H 0.29875 0.28323 0.09801 0.0
H364 H 0.28654 0.27195 0.07499 0.0
H365 H 0.31394 0.2731 0.03746 0.0
H366 H 0.30077 0.23555 0.0701 0.0
H367 H 0.29003 0.22588 0.09275 0.0
H368 H 0.24672 0.23388 0.08105 0.0
H369 H 0.2577 0.24442 0.05906 0.0
C370 C 0.27771 0.24271 0.00834 0.0
C371 C 0.26232 0.24239 0.00741 0.0
C372 C 0.2552 0.23718 0.99402 0.0
C373 C 0.26331 0.23215 0.98127 0.0
C374 C 0.2787 0.23234 0.98227 0.0
C375 C 0.28582 0.2375 0.9957 0.0
C376 C 0.28523 0.24852 0.02255 0.0
C377 C 0.27988 0.2426 0.03566 0.0
C378 C 0.29762 0.25972 0.02321 0.0
C379 C 0.30305 0.26734 0.01007 0.0
C380 C 0.29337 0.27399 0.00236 0.0
C381 C 0.29858 0.28134 0.99014 0.0
C382 C 0.3136 0.28233 0.98546 0.0
C383 C 0.32327 0.2757 0.99325 0.0
C384 C 0.31805 0.26832 0.00544 0.0
C385 C 0.30639 0.26485 0.06423 0.0
C386 C 0.32162 0.2647 0.06577 0.0
C387 C 0.32862 0.27108 0.07894 0.0
C388 C 0.32054 0.27784 0.09079 0.0
C389 C 0.30525 0.27791 0.08921 0.0
C390 C 0.29826 0.27151 0.07604 0.0
C391 C 0.29916 0.25853 0.05002 0.0
C392 C 0.30458 0.26436 0.03689 0.0
C393 C 0.2866 0.2475 0.04944 0.0
C394 C 0.28012 0.24099 0.06296 0.0
C395 C 0.289 0.23542 0.07254 0.0
C396 C 0.28278 0.22969 0.0854 0.0
C397 C 0.26749 0.22916 0.08885 0.0
C398 C 0.25858 0.23439 0.079 0.0
C399 C 0.26483 0.24028 0.06627 0.0
H400 H 0.77347 0.23151 0.97022 0.0
H401 H 0.7819 0.22693 0.94397 0.0
H402 H 0.81097 0.26826 0.94886 0.0
H403 H 0.80235 0.27284 0.97488 0.0
H404 H 0.7927 0.2409 0.99905 0.0
H405 H 0.7544 0.25379 0.9702 0.0
H406 H 0.74548 0.26472 0.94973 0.0
H407 H 0.76832 0.30698 0.96752 0.0
H408 H 0.77741 0.29588 0.9879 0.0
H409 H 0.77805 0.29229 0.03449 0.0
H410 H 0.76964 0.3005 0.05989 0.0
H411 H 0.74726 0.25685 0.06404 0.0
H412 H 0.75554 0.24876 0.03857 0.0
H413 H 0.76102 0.28019 0.0098 0.0
H414 H 0.80059 0.26704 0.03753 0.0
H415 H 0.809 0.25649 0.05859 0.0
H416 H 0.78303 0.21497 0.04345 0.0
H417 H 0.77472 0.22559 0.0223 0.0
C418 C 0.78734 0.25248 0.9744 0.0
C419 C 0.78181 0.23945 0.96564 0.0
C420 C 0.78655 0.2369 0.95069 0.0
C421 C 0.7971 0.24724 0.94445 0.0
C422 C 0.80296 0.26004 0.95345 0.0
C423 C 0.79804 0.26268 0.96827 0.0
C424 C 0.78126 0.2561 0.98964 0.0
C425 C 0.78557 0.24929 0.00139 0.0
C426 C 0.77222 0.26724 0.99268 0.0
C427 C 0.76665 0.27402 0.98048 0.0
C428 C 0.75754 0.26539 0.96965 0.0
C429 C 0.75236 0.27167 0.95803 0.0
C430 C 0.75619 0.28671 0.95703 0.0
C431 C 0.7653 0.29534 0.96794 0.0
C432 C 0.77041 0.28905 0.97962 0.0
C433 C 0.76748 0.26992 0.0347 0.0
C434 C 0.77132 0.28451 0.04088 0.0
C435 C 0.76661 0.28915 0.05541 0.0
C436 C 0.75783 0.2793 0.06395 0.0
C437 C 0.75393 0.2647 0.05769 0.0
C438 C 0.75873 0.26005 0.04319 0.0
C439 C 0.77249 0.26505 0.01929 0.0
C440 C 0.76804 0.2717 0.00748 0.0
C441 C 0.78135 0.25374 0.01622 0.0
C442 C 0.78702 0.24708 0.02842 0.0
C443 C 0.79681 0.25564 0.0387 0.0
C444 C 0.80164 0.2496 0.05067 0.0
C445 C 0.79664 0.23493 0.05263 0.0
C446 C 0.78696 0.22633 0.04223 0.0
C447 C 0.78229 0.23234 0.03013 0.0
H448 H 0.80253 0.79228 0.05645 0.0
H449 H 0.81458 0.80468 0.07902 0.0
H450 H 0.82562 0.76352 0.08918 0.0
H451 H 0.81425 0.7513 0.06605 0.0
H452 H 0.81268 0.77877 0.03224 0.0
H453 H 0.77616 0.7649 0.07006 0.0
H454 H 0.76612 0.75474 0.09268 0.0
H455 H 0.77935 0.71308 0.07519 0.0
H456 H 0.78906 0.72329 0.05242 0.0
H457 H 0.78314 0.7227 0.00506 0.0
H458 H 0.76833 0.71242 0.98323 0.0
H459 H 0.75551 0.7548 0.98056 0.0
H460 H 0.77002 0.7649 0.00254 0.0
H461 H 0.77393 0.73526 0.03216 0.0
H462 H 0.80733 0.74977 0.99226 0.0
H463 H 0.81533 0.76084 0.96955 0.0
H464 H 0.80715 0.80291 0.99168 0.0
H465 H 0.79864 0.79166 0.01418 0.0
C466 C 0.80734 0.77083 0.0596 0.0
C467 C 0.80763 0.78593 0.06347 0.0
C468 C 0.81439 0.79298 0.0765 0.0
C469 C 0.82096 0.78508 0.08603 0.0
C470 C 0.82077 0.76996 0.08206 0.0
C471 C 0.81411 0.76292 0.06893 0.0
C472 C 0.80005 0.7635 0.04571 0.0
C473 C 0.8041 0.76935 0.03225 0.0
C474 C 0.78912 0.75096 0.04565 0.0
C475 C 0.78347 0.74489 0.05961 0.0
C476 C 0.77701 0.75362 0.07117 0.0
C477 C 0.77132 0.74779 0.08413 0.0
C478 C 0.77195 0.73308 0.08583 0.0
C479 C 0.77849 0.72439 0.07421 0.0
C480 C 0.78411 0.73022 0.06121 0.0
C481 C 0.77779 0.74458 0.00532 0.0
C482 C 0.77714 0.72975 0.99974 0.0
C483 C 0.76876 0.72392 0.98723 0.0
C484 C 0.76076 0.73281 0.98018 0.0
C485 C 0.76143 0.74765 0.98583 0.0
C486 C 0.76984 0.75347 0.99829 0.0
C487 C 0.78639 0.75071 0.01878 0.0
C488 C 0.78261 0.74461 0.03214 0.0
C489 C 0.79741 0.76316 0.01878 0.0
C490 C 0.80226 0.76985 0.00492 0.0
C491 C 0.80709 0.76135 0.99217 0.0
C492 C 0.81181 0.76773 0.97923 0.0
C493 C 0.8119 0.78279 0.97878 0.0
C494 C 0.80704 0.79126 0.99156 0.0
C495 C 0.80231 0.78487 0.00449 0.0
H496 H 0.28715 0.72513 0.97595 0.0
H497 H 0.29499 0.72215 0.94959 0.0
H498 H 0.3216 0.76489 0.95568 0.0
H499 H 0.31314 0.76796 0.98179 0.0
H500 H 0.30422 0.73624 0.00614 0.0
H501 H 0.26987 0.74832 0.97043 0.0
H502 H 0.26492 0.76143 0.94984 0.0
H503 H 0.27925 0.80252 0.97673 0.0
H504 H 0.28507 0.7893 0.99682 0.0
H505 H 0.27629 0.7845 0.03695 0.0
H506 H 0.26427 0.79167 0.06096 0.0
H507 H 0.25451 0.74645 0.06866 0.0
H508 H 0.26575 0.73909 0.04416 0.0
H509 H 0.26715 0.77067 0.01295 0.0
H510 H 0.30205 0.76316 0.04715 0.0
H511 H 0.30946 0.75405 0.06933 0.0
H512 H 0.29961 0.7097 0.04768 0.0
H513 H 0.29126 0.71895 0.02583 0.0
C514 C 0.2995 0.74679 0.98071 0.0
C515 C 0.29497 0.73366 0.97164 0.0
C516 C 0.29947 0.732 0.95657 0.0
C517 C 0.30872 0.7434 0.95041 0.0
C518 C 0.31416 0.75606 0.95992 0.0
C519 C 0.30951 0.75777 0.9749 0.0
C520 C 0.2921 0.74996 0.99541 0.0
C521 C 0.29596 0.74359 0.00767 0.0
C522 C 0.28179 0.76 0.99742 0.0
C523 C 0.27806 0.76782 0.98508 0.0
C524 C 0.27218 0.76014 0.97177 0.0
C525 C 0.26918 0.76767 0.96007 0.0
C526 C 0.27175 0.78306 0.96156 0.0
C527 C 0.27743 0.79069 0.97503 0.0
C528 C 0.28058 0.78315 0.98662 0.0
C529 C 0.27207 0.76124 0.03872 0.0
C530 C 0.27142 0.77607 0.04367 0.0
C531 C 0.26462 0.78018 0.05739 0.0
C532 C 0.25856 0.76958 0.06655 0.0
C533 C 0.25922 0.75478 0.06175 0.0
C534 C 0.26571 0.75061 0.04782 0.0
C535 C 0.27924 0.75706 0.02397 0.0
C536 C 0.27532 0.76322 0.01158 0.0
C537 C 0.28997 0.74733 0.02205 0.0
C538 C 0.29577 0.74173 0.03495 0.0
C539 C 0.30139 0.75146 0.04721 0.0
C540 C 0.30583 0.74622 0.05985 0.0
C541 C 0.30509 0.7311 0.06038 0.0
C542 C 0.30005 0.72139 0.0478 0.0
C543 C 0.29542 0.72666 0.03522 0.0
H544 H 0.04311 0.26425 0.2301 0.0
H545 H 0.06499 0.25285 0.22161 0.0
H546 H 0.06846 0.24042 0.2657 0.0
H547 H 0.04628 0.25139 0.27396 0.0
H548 H 0.01631 0.25384 0.24046 0.0
H549 H 0.05654 0.28904 0.25882 0.0
H550 H 0.07967 0.29842 0.27162 0.0
H551 H 0.05865 0.28717 0.31336 0.0
H552 H 0.03565 0.2773 0.30034 0.0
H553 H 0.99082 0.27713 0.29568 0.0
H554 H 0.96917 0.28825 0.30561 0.0
H555 H 0.96582 0.30511 0.26366 0.0
H556 H 0.98762 0.29401 0.2538 0.0
H557 H 0.01777 0.29041 0.28556 0.0
H558 H 0.9779 0.25391 0.26632 0.0
H559 H 0.95531 0.2437 0.2528 0.0
H560 H 0.97594 0.25855 0.21231 0.0
H561 H 0.99847 0.26895 0.22598 0.0
C562 C 0.04313 0.25884 0.25271 0.0
C563 C 0.04853 0.25898 0.2379 0.0
C564 C 0.06113 0.25257 0.23311 0.0
C565 C 0.06858 0.2458 0.243 0.0
C566 C 0.06296 0.24543 0.25775 0.0
C567 C 0.05035 0.25184 0.26253 0.0
C568 C 0.03001 0.26607 0.25792 0.0
C569 C 0.01671 0.26201 0.25018 0.0
C570 C 0.03041 0.27657 0.27074 0.0
C571 C 0.04441 0.28233 0.2786 0.0
C572 C 0.05695 0.28845 0.2707 0.0
C573 C 0.07013 0.29394 0.27806 0.0
C574 C 0.071 0.29356 0.29352 0.0
C575 C 0.0584 0.28746 0.30142 0.0
C576 C 0.04521 0.28194 0.29403 0.0
C577 C 0.99078 0.28467 0.27398 0.0
C578 C 0.98542 0.28321 0.28862 0.0
C579 C 0.97299 0.28948 0.29423 0.0
C580 C 0.96575 0.2975 0.28539 0.0
C581 C 0.9712 0.29905 0.27076 0.0
C582 C 0.98358 0.29264 0.26509 0.0
C583 C 0.00407 0.27804 0.2682 0.0
C584 C 0.01741 0.28227 0.27581 0.0
C585 C 0.00374 0.2678 0.2552 0.0
C586 C 0.98982 0.26226 0.24716 0.0
C587 C 0.97749 0.25514 0.25458 0.0
C588 C 0.96464 0.24922 0.24682 0.0
C589 C 0.96389 0.25031 0.23149 0.0
C590 C 0.97616 0.25768 0.22414 0.0
C591 C 0.98905 0.26353 0.2319 0.0
H592 H 0.77871 0.03448 0.24442 0.0
H593 H 0.78623 0.05593 0.23138 0.0
H594 H 0.79302 0.08287 0.27383 0.0
H595 H 0.78604 0.06121 0.28678 0.0
H596 H 0.79461 0.02229 0.26261 0.0
H597 H 0.75142 0.04711 0.26724 0.0
H598 H 0.7386 0.06827 0.27508 0.0
H599 H 0.74596 0.06453 0.3212 0.0
H600 H 0.75958 0.04398 0.3134 0.0
H601 H 0.76574 0.00444 0.31785 0.0
H602 H 0.75774 0.98209 0.3293 0.0
H603 H 0.75665 0.957 0.28555 0.0
H604 H 0.76356 0.97947 0.27418 0.0
H605 H 0.75296 0.01808 0.29993 0.0
H606 H 0.7975 0.99604 0.29664 0.0
H607 H 0.81239 0.97621 0.29029 0.0
H608 H 0.80294 0.97518 0.24367 0.0
H609 H 0.7881 0.99495 0.25008 0.0
C610 C 0.78172 0.04626 0.26656 0.0
C611 C 0.78186 0.04501 0.25091 0.0
C612 C 0.78601 0.05732 0.24348 0.0
C613 C 0.79014 0.07115 0.25156 0.0
C614 C 0.79002 0.07237 0.26726 0.0
C615 C 0.78592 0.06002 0.27469 0.0
C616 C 0.77736 0.03306 0.27426 0.0
C617 C 0.7854 0.02132 0.27067 0.0
C618 C 0.76563 0.03201 0.28514 0.0
C619 C 0.75681 0.04413 0.2897 0.0
C620 C 0.75048 0.05094 0.27903 0.0
C621 C 0.74307 0.06294 0.28349 0.0
C622 C 0.74138 0.06796 0.2987 0.0
C623 C 0.74711 0.06078 0.3094 0.0
C624 C 0.75485 0.04904 0.30494 0.0
C625 C 0.76544 0.99365 0.29516 0.0
C626 C 0.76366 0.99413 0.31073 0.0
C627 C 0.75926 0.98129 0.31728 0.0
C628 C 0.75662 0.96767 0.30839 0.0
C629 C 0.75839 0.96726 0.29278 0.0
C630 C 0.76256 0.98012 0.28624 0.0
C631 C 0.77018 0.0073 0.28823 0.0
C632 C 0.76221 0.0191 0.29193 0.0
C633 C 0.78213 0.00856 0.27765 0.0
C634 C 0.79157 0.99688 0.27385 0.0
C635 C 0.79861 0.9915 0.28506 0.0
C636 C 0.8071 0.98017 0.28143 0.0
C637 C 0.80884 0.97413 0.26648 0.0
C638 C 0.80199 0.97973 0.25526 0.0
C639 C 0.79347 0.99101 0.25891 0.0
H640 H 0.04803 0.73856 0.28863 0.0
H641 H 0.06679 0.72781 0.30033 0.0
H642 H 0.09081 0.77102 0.31264 0.0
H643 H 0.07176 0.78168 0.3014 0.0
H644 H 0.02941 0.75829 0.3006 0.0
H645 H 0.0693 0.75677 0.26233 0.0
H646 H 0.0955 0.76199 0.25444 0.0
H647 H 0.09461 0.80808 0.26749 0.0
H648 H 0.06854 0.80279 0.27549 0.0
H649 H 0.02498 0.80857 0.27021 0.0
H650 H 0.00452 0.81895 0.26078 0.0
H651 H 0.98014 0.77555 0.2512 0.0
H652 H 0.00075 0.7652 0.26007 0.0
H653 H 0.0436 0.78918 0.25973 0.0
H654 H 0.00663 0.79268 0.2989 0.0
H655 H 0.98013 0.79059 0.30535 0.0
H656 H 0.97564 0.74389 0.29256 0.0
H657 H 0.00222 0.74614 0.28582 0.0
C658 C 0.05859 0.76089 0.29401 0.0
C659 C 0.05729 0.7457 0.29394 0.0
C660 C 0.06809 0.73957 0.30051 0.0
C661 C 0.08034 0.74855 0.30735 0.0
C662 C 0.08146 0.7638 0.30759 0.0
C663 C 0.07065 0.76991 0.30105 0.0
C664 C 0.0474 0.76732 0.28659 0.0
C665 C 0.0325 0.76486 0.29153 0.0
C666 C 0.05146 0.77631 0.27509 0.0
C667 C 0.06704 0.7794 0.26957 0.0
C668 C 0.07478 0.76799 0.26346 0.0
C669 C 0.08969 0.77098 0.25891 0.0
C670 C 0.0971 0.78543 0.26046 0.0
C671 C 0.08924 0.79683 0.26637 0.0
C672 C 0.07432 0.79384 0.27081 0.0
C673 C 0.01427 0.78614 0.2661 0.0
C674 C 0.01537 0.80129 0.26578 0.0
C675 C 0.00369 0.8072 0.26045 0.0
C676 C 0.99071 0.79804 0.2555 0.0
C677 C 0.98994 0.78285 0.25519 0.0
C678 C 0.00169 0.77695 0.26025 0.0
C679 C 0.02564 0.77996 0.27358 0.0
C680 C 0.04053 0.78252 0.26873 0.0
C681 C 0.02166 0.77135 0.28539 0.0
C682 C 0.00632 0.76958 0.29176 0.0
C683 C 0.99998 0.78196 0.29775 0.0
C684 C 0.98485 0.78073 0.30148 0.0
C685 C 0.97577 0.76708 0.29935 0.0
C686 C 0.98233 0.75457 0.29412 0.0
C687 C 0.99751 0.75581 0.29043 0.0
H688 H 0.25366 0.02627 0.25582 0.0
H689 H 0.24334 0.04591 0.24618 0.0
H690 H 0.28626 0.07282 0.24917 0.0
H691 H 0.29672 0.05296 0.25827 0.0
H692 H 0.27367 0.01003 0.24647 0.0
H693 H 0.26884 0.04525 0.28957 0.0
H694 H 0.27267 0.07021 0.30229 0.0
H695 H 0.32016 0.07008 0.29947 0.0
H696 H 0.31625 0.0453 0.28624 0.0
H697 H 0.32173 0.99956 0.27979 0.0
H698 H 0.33046 0.97913 0.28979 0.0
H699 H 0.28501 0.95949 0.29659 0.0
H700 H 0.27635 0.97983 0.28641 0.0
H701 H 0.30172 0.01937 0.29337 0.0
H702 H 0.30511 0.98184 0.25222 0.0
H703 H 0.29973 0.95681 0.23972 0.0
H704 H 0.25318 0.961 0.23968 0.0
H705 H 0.25844 0.98575 0.25278 0.0
C706 C 0.27594 0.03816 0.25803 0.0
C707 C 0.26092 0.03632 0.25425 0.0
C708 C 0.25502 0.04755 0.24875 0.0
C709 C 0.26398 0.06093 0.24703 0.0
C710 C 0.27905 0.0627 0.25058 0.0
C711 C 0.28502 0.05137 0.25583 0.0
C712 C 0.28199 0.0263 0.26439 0.0
C713 C 0.27965 0.01206 0.25682 0.0
C714 C 0.29004 0.02894 0.27777 0.0
C715 C 0.29228 0.04353 0.28673 0.0
C716 C 0.28007 0.0506 0.29171 0.0
C717 C 0.28228 0.06482 0.29911 0.0
C718 C 0.29673 0.07218 0.3018 0.0
C719 C 0.3089 0.06481 0.29734 0.0
C720 C 0.30669 0.05061 0.2899 0.0
C721 C 0.29841 0.99116 0.28231 0.0
C722 C 0.31367 0.99088 0.28351 0.0
C723 C 0.31863 0.97918 0.28913 0.0
C724 C 0.3084 0.96772 0.29393 0.0
C725 C 0.29312 0.96821 0.29305 0.0
C726 C 0.28817 0.97979 0.28721 0.0
C727 C 0.29317 0.00313 0.27556 0.0
C728 C 0.29573 0.01738 0.28303 0.0
C729 C 0.28511 0.00044 0.26221 0.0
C730 C 0.28214 0.9856 0.25374 0.0
C731 C 0.29372 0.97733 0.24971 0.0
C732 C 0.29067 0.96308 0.24248 0.0
C733 C 0.27606 0.95702 0.23878 0.0
C734 C 0.26456 0.96548 0.24232 0.0
C735 C 0.26757 0.97961 0.2498 0.0
H736 H 0.03741 0.79415 0.78495 0.0
H737 H 0.06066 0.80865 0.79386 0.0
H738 H 0.07763 0.8085 0.74837 0.0
H739 H 0.05428 0.79422 0.73947 0.0
H740 H 0.01732 0.80038 0.76878 0.0
H741 H 0.04782 0.7631 0.76432 0.0
H742 H 0.06954 0.75094 0.7573 0.0
H743 H 0.06081 0.75108 0.71068 0.0
H744 H 0.03938 0.76366 0.71779 0.0
H745 H 0.99504 0.76739 0.71546 0.0
H746 H 0.97164 0.75573 0.70431 0.0
H747 H 0.95379 0.74697 0.74802 0.0
H748 H 0.97718 0.75894 0.75911 0.0
H749 H 0.01433 0.75576 0.73213 0.0
H750 H 0.98105 0.79268 0.73984 0.0
H751 H 0.95914 0.80333 0.75007 0.0
H752 H 0.97288 0.80125 0.79477 0.0
H753 H 0.99442 0.79015 0.78458 0.0
C754 C 0.04413 0.79297 0.76155 0.0
C755 C 0.04613 0.79724 0.77689 0.0
C756 C 0.05939 0.80555 0.78196 0.0
C757 C 0.07094 0.80971 0.7718 0.0
C758 C 0.06899 0.80531 0.75646 0.0
C759 C 0.05566 0.79711 0.75138 0.0
C760 C 0.02972 0.78479 0.75615 0.0
C761 C 0.01663 0.79047 0.76095 0.0
C762 C 0.02886 0.77191 0.74589 0.0
C763 C 0.04204 0.76446 0.74159 0.0
C764 C 0.05067 0.76064 0.75259 0.0
C765 C 0.063 0.75354 0.74855 0.0
C766 C 0.06695 0.75005 0.73342 0.0
C767 C 0.05822 0.75379 0.72243 0.0
C768 C 0.04588 0.76088 0.72648 0.0
C769 C 0.98779 0.76411 0.7381 0.0
C770 C 0.98608 0.76292 0.72262 0.0
C771 C 0.97272 0.7562 0.71627 0.0
C772 C 0.96082 0.75041 0.72527 0.0
C773 C 0.96263 0.75152 0.74079 0.0
C774 C 0.97601 0.75829 0.74715 0.0
C775 C 0.00198 0.77144 0.74467 0.0
C776 C 0.01503 0.76561 0.74004 0.0
C777 C 0.00272 0.78391 0.7555 0.0
C778 C 0.98933 0.7904 0.76142 0.0
C779 C 0.97923 0.79428 0.75183 0.0
C780 C 0.96676 0.80043 0.75767 0.0
C781 C 0.96435 0.80315 0.7732 0.0
C782 C 0.97454 0.79942 0.78276 0.0
C783 C 0.98684 0.79306 0.77693 0.0
H784 H 0.26527 0.03412 0.73331 0.0
H785 H 0.27235 0.05466 0.71873 0.0
H786 H 0.29018 0.08144 0.75825 0.0
H787 H 0.28323 0.06079 0.77272 0.0
H788 H 0.2844 0.02071 0.74935 0.0
H789 H 0.24261 0.04849 0.7598 0.0
H790 H 0.23223 0.07087 0.76881 0.0
H791 H 0.251 0.0713 0.81199 0.0
H792 H 0.26128 0.04897 0.80294 0.0
H793 H 0.26188 0.00728 0.80867 0.0
H794 H 0.25466 0.98555 0.82151 0.0
H795 H 0.24584 0.95935 0.77902 0.0
H796 H 0.25278 0.98109 0.76626 0.0
H797 H 0.24825 0.02176 0.7922 0.0
H798 H 0.29025 0.99767 0.78527 0.0
H799 H 0.30385 0.97688 0.77955 0.0
H800 H 0.28994 0.97163 0.73382 0.0
H801 H 0.27635 0.99249 0.73963 0.0
C802 C 0.27366 0.04597 0.75409 0.0
C803 C 0.27068 0.04443 0.73881 0.0
C804 C 0.27463 0.05619 0.73054 0.0
C805 C 0.28179 0.06966 0.73736 0.0
C806 C 0.28477 0.07116 0.75267 0.0
C807 C 0.28073 0.05942 0.76096 0.0
C808 C 0.26959 0.03339 0.76271 0.0
C809 C 0.27632 0.02083 0.75858 0.0
C810 C 0.25966 0.03388 0.77523 0.0
C811 C 0.25283 0.04713 0.78066 0.0
C812 C 0.24451 0.05344 0.77119 0.0
C813 C 0.23861 0.06624 0.77635 0.0
C814 C 0.2408 0.07287 0.79112 0.0
C815 C 0.24893 0.06637 0.80062 0.0
C816 C 0.25485 0.05362 0.79545 0.0
C817 C 0.25805 0.99581 0.78648 0.0
C818 C 0.25828 0.99688 0.80213 0.0
C819 C 0.25417 0.98447 0.80944 0.0
C820 C 0.24979 0.97075 0.80124 0.0
C821 C 0.2494 0.96973 0.78561 0.0
C822 C 0.25337 0.98215 0.77831 0.0
C823 C 0.26279 0.0089 0.77863 0.0
C824 C 0.25626 0.02156 0.78293 0.0
C825 C 0.27338 0.00876 0.76664 0.0
C826 C 0.28211 0.9965 0.76292 0.0
C827 C 0.29008 0.99201 0.77402 0.0
C828 C 0.29784 0.98011 0.77075 0.0
C829 C 0.2979 0.97255 0.75626 0.0
C830 C 0.29022 0.97731 0.74506 0.0
C831 C 0.28242 0.9892 0.74836 0.0
H832 H 0.0229 0.30262 0.74875 0.0
H833 H 0.00033 0.31082 0.7413 0.0
H834 H 0.99055 0.32581 0.7875 0.0
H835 H 0.01298 0.31735 0.79482 0.0
H836 H 0.04891 0.31558 0.767 0.0
H837 H 0.00656 0.27746 0.76557 0.0
H838 H 0.97986 0.27203 0.77036 0.0
H839 H 0.98667 0.28349 0.81771 0.0
H840 H 0.01343 0.28945 0.8127 0.0
H841 H 0.05898 0.28328 0.81519 0.0
H842 H 0.07821 0.27074 0.8236 0.0
H843 H 0.0938 0.26175 0.7779 0.0
H844 H 0.07454 0.27433 0.76957 0.0
H845 H 0.03609 0.27389 0.79682 0.0
H846 H 0.08025 0.30957 0.79746 0.0
H847 H 0.10625 0.31802 0.79111 0.0
H848 H 0.09595 0.31148 0.74428 0.0
H849 H 0.06999 0.30299 0.75069 0.0
C850 C 0.01951 0.3093 0.77232 0.0
C851 C 0.01608 0.30802 0.75719 0.0
C852 C 0.00316 0.31269 0.75298 0.0
C853 C 0.99352 0.31878 0.76384 0.0
C854 C 0.99756 0.32088 0.77889 0.0
C855 C 0.01044 0.3162 0.78308 0.0
C856 C 0.03128 0.30166 0.77708 0.0
C857 C 0.04617 0.30639 0.77339 0.0
C858 C 0.02763 0.28975 0.78549 0.0
C859 C 0.01192 0.28399 0.78877 0.0
C860 C 0.00231 0.27861 0.777 0.0
C861 C 0.98704 0.27544 0.77977 0.0
C862 C 0.9811 0.27743 0.79442 0.0
C863 C 0.99087 0.28207 0.80628 0.0
C864 C 0.00617 0.28531 0.80347 0.0
C865 C 0.06542 0.27988 0.79178 0.0
C866 C 0.06649 0.27853 0.80698 0.0
C867 C 0.07746 0.27132 0.81176 0.0
C868 C 0.08755 0.26526 0.80141 0.0
C869 C 0.08634 0.26648 0.78616 0.0
C870 C 0.07533 0.27365 0.78139 0.0
C871 C 0.05393 0.28781 0.78684 0.0
C872 C 0.03897 0.28309 0.79046 0.0
C873 C 0.05759 0.29967 0.77827 0.0
C874 C 0.07322 0.30546 0.77453 0.0
C875 C 0.08361 0.30991 0.78582 0.0
C876 C 0.09846 0.31473 0.78218 0.0
C877 C 0.10316 0.31536 0.76719 0.0
C878 C 0.09265 0.31126 0.75594 0.0
C879 C 0.07782 0.30637 0.75958 0.0
H880 H 0.75145 0.03383 0.76697 0.0
H881 H 0.7406 0.05316 0.75718 0.0
H882 H 0.78457 0.07414 0.74604 0.0
H883 H 0.79536 0.05487 0.756 0.0
H884 H 0.77168 0.01449 0.75196 0.0
H885 H 0.76913 0.0517 0.79434 0.0
H886 H 0.77349 0.07719 0.80557 0.0
H887 H 0.82072 0.07791 0.79731 0.0
H888 H 0.81624 0.05235 0.78619 0.0
H889 H 0.82172 0.00875 0.78812 0.0
H890 H 0.83134 0.98933 0.79884 0.0
H891 H 0.78722 0.9645 0.79869 0.0
H892 H 0.7776 0.98433 0.78897 0.0
H893 H 0.80232 0.02672 0.79716 0.0
H894 H 0.80595 0.99028 0.7552 0.0
H895 H 0.80257 0.96482 0.74381 0.0
H896 H 0.75499 0.9629 0.75015 0.0
H897 H 0.75849 0.98844 0.76126 0.0
C898 C 0.77419 0.04295 0.76223 0.0
C899 C 0.75873 0.04256 0.76235 0.0
C900 C 0.75256 0.05364 0.75685 0.0
C901 C 0.76175 0.06515 0.75088 0.0
C902 C 0.77723 0.06535 0.7505 0.0
C903 C 0.7834 0.05439 0.75621 0.0
C904 C 0.78072 0.0316 0.76878 0.0
C905 C 0.77826 0.01713 0.76191 0.0
C906 C 0.78963 0.03511 0.78152 0.0
C907 C 0.79235 0.05022 0.78927 0.0
C908 C 0.78042 0.05736 0.79497 0.0
C909 C 0.78293 0.07193 0.80135 0.0
C910 C 0.79745 0.07962 0.80224 0.0
C911 C 0.80942 0.07226 0.79694 0.0
C912 C 0.80689 0.05768 0.79054 0.0
C913 C 0.79897 0.99794 0.7875 0.0
C914 C 0.81411 0.99919 0.79057 0.0
C915 C 0.81962 0.98797 0.79655 0.0
C916 C 0.81011 0.97521 0.79954 0.0
C917 C 0.7949 0.97417 0.79672 0.0
C918 C 0.78938 0.98545 0.79094 0.0
C919 C 0.79318 0.0095 0.78044 0.0
C920 C 0.79581 0.02405 0.78717 0.0
C921 C 0.78461 0.0061 0.76742 0.0
C922 C 0.78247 0.99118 0.7592 0.0
C923 C 0.79479 0.98439 0.754 0.0
C924 C 0.79284 0.96982 0.74757 0.0
C925 C 0.77852 0.96177 0.74618 0.0
C926 C 0.76617 0.96881 0.75088 0.0
C927 C 0.76813 0.9834 0.75727 0.0
H928 H 0.32346 0.75952 0.51159 0.0
H929 H 0.33178 0.77277 0.49031 0.0
H930 H 0.28675 0.78009 0.48464 0.0
H931 H 0.2785 0.76683 0.50596 0.0
H932 H 0.31101 0.7683 0.53774 0.0
H933 H 0.29663 0.7326 0.49584 0.0
H934 H 0.28421 0.72266 0.47248 0.0
H935 H 0.24171 0.72768 0.49421 0.0
H936 H 0.25414 0.73778 0.51742 0.0
H937 H 0.25651 0.7357 0.55877 0.0
H938 H 0.24632 0.7243 0.58068 0.0
H939 H 0.2905 0.71932 0.59244 0.0
H940 H 0.30069 0.73018 0.5701 0.0
H941 H 0.27004 0.72661 0.53491 0.0
H942 H 0.28389 0.76437 0.57565 0.0
H943 H 0.29577 0.77585 0.5988 0.0
H944 H 0.3385 0.76772 0.57953 0.0
H945 H 0.32655 0.75623 0.55641 0.0
C946 C 0.30033 0.76203 0.51029 0.0
C947 C 0.31538 0.764 0.50578 0.0
C948 C 0.32013 0.77163 0.49364 0.0
C949 C 0.30993 0.77751 0.48577 0.0
C950 C 0.29486 0.77554 0.49032 0.0
C951 C 0.29012 0.76796 0.50252 0.0
C952 C 0.29541 0.75409 0.52336 0.0
C953 C 0.30219 0.75904 0.53707 0.0
C954 C 0.28371 0.74219 0.52257 0.0
C955 C 0.27632 0.73606 0.50836 0.0
C956 C 0.28465 0.73169 0.49553 0.0
C957 C 0.27756 0.726 0.4822 0.0
C958 C 0.262 0.72437 0.48155 0.0
C959 C 0.2537 0.72863 0.49444 0.0
C960 C 0.26079 0.73443 0.5077 0.0
C961 C 0.27941 0.73399 0.56281 0.0
C962 C 0.26403 0.73203 0.56594 0.0
C963 C 0.2582 0.72552 0.57847 0.0
C964 C 0.26763 0.72096 0.58825 0.0
C965 C 0.28301 0.72287 0.58514 0.0
C966 C 0.28884 0.72914 0.57242 0.0
C967 C 0.28541 0.74102 0.54941 0.0
C968 C 0.27889 0.73584 0.53559 0.0
C969 C 0.29727 0.75278 0.55012 0.0
C970 C 0.30433 0.75933 0.56436 0.0
C971 C 0.29579 0.76489 0.57649 0.0
C972 C 0.30259 0.77142 0.58972 0.0
C973 C 0.31807 0.77266 0.59099 0.0
C974 C 0.32658 0.76705 0.57883 0.0
C975 C 0.31977 0.76046 0.56564 0.0
H976 H 0.77485 0.73004 0.47261 0.0
H977 H 0.78356 0.726 0.44642 0.0
H978 H 0.80646 0.7703 0.45008 0.0
H979 H 0.7975 0.77437 0.47606 0.0
H980 H 0.79181 0.74159 0.50075 0.0
H981 H 0.75557 0.75208 0.46846 0.0
H982 H 0.74687 0.76352 0.44823 0.0
H983 H 0.75884 0.80607 0.47307 0.0
H984 H 0.76826 0.79467 0.493 0.0
H985 H 0.77219 0.79076 0.53532 0.0
H986 H 0.76554 0.79854 0.56134 0.0
H987 H 0.74762 0.75391 0.56714 0.0
H988 H 0.75413 0.74621 0.54098 0.0
H989 H 0.75592 0.77702 0.51136 0.0
H990 H 0.79408 0.76796 0.54189 0.0
H991 H 0.80227 0.75809 0.56325 0.0
H992 H 0.78806 0.71421 0.54208 0.0
H993 H 0.77888 0.7243 0.52118 0.0
C994 C 0.78551 0.75251 0.47617 0.0
C995 C 0.78192 0.73878 0.4678 0.0
C996 C 0.78681 0.73652 0.45288 0.0
C997 C 0.79566 0.74785 0.4463 0.0
C998 C 0.79975 0.76137 0.45494 0.0
C999 C 0.79464 0.76371 0.46973 0.0
C1000 C 0.77891 0.75556 0.4913 0.0
C1001 C 0.78378 0.74914 0.50306 0.0
C1002 C 0.76866 0.76565 0.49426 0.0
C1003 C 0.76288 0.77252 0.48215 0.0
C1004 C 0.75664 0.76389 0.46945 0.0
C1005 C 0.75158 0.77041 0.45793 0.0
C1006 C 0.75227 0.78566 0.4591 0.0
C1007 C 0.75816 0.79428 0.47194 0.0
C1008 C 0.76351 0.78777 0.48333 0.0
C1009 C 0.76374 0.7679 0.53627 0.0
C1010 C 0.76666 0.78268 0.54214 0.0
C1011 C 0.76298 0.78709 0.55704 0.0
C1012 C 0.75618 0.77681 0.56629 0.0
C1013 C 0.75279 0.76208 0.56024 0.0
C1014 C 0.75655 0.75766 0.54535 0.0
C1015 C 0.76893 0.76321 0.52086 0.0
C1016 C 0.76383 0.76935 0.50903 0.0
C1017 C 0.77909 0.75301 0.51788 0.0
C1018 C 0.78551 0.74688 0.5301 0.0
C1019 C 0.79262 0.75621 0.5419 0.0
C1020 C 0.79751 0.75051 0.55405 0.0
C1021 C 0.79578 0.7353 0.55451 0.0
C1022 C 0.78929 0.72597 0.5423 0.0
C1023 C 0.78418 0.73171 0.53024 0.0
H1024 H 0.80579 0.28633 0.55962 0.0
H1025 H 0.81869 0.29686 0.58243 0.0
H1026 H 0.82672 0.25394 0.59009 0.0
H1027 H 0.81414 0.24341 0.56693 0.0
H1028 H 0.8144 0.27334 0.53482 0.0
H1029 H 0.77952 0.25951 0.57352 0.0
H1030 H 0.76853 0.2482 0.59525 0.0
H1031 H 0.77398 0.20561 0.57254 0.0
H1032 H 0.78531 0.21697 0.55096 0.0
H1033 H 0.78326 0.21934 0.50584 0.0
H1034 H 0.76905 0.2101 0.48339 0.0
H1035 H 0.75778 0.25325 0.48152 0.0
H1036 H 0.77164 0.2623 0.50417 0.0
H1037 H 0.77363 0.23148 0.53297 0.0
H1038 H 0.80847 0.24645 0.49405 0.0
H1039 H 0.81629 0.25823 0.47172 0.0
H1040 H 0.80864 0.29987 0.49538 0.0
H1041 H 0.80035 0.28789 0.51753 0.0
C1042 C 0.80887 0.26405 0.56158 0.0
C1043 C 0.81044 0.27917 0.5661 0.0
C1044 C 0.81782 0.28519 0.57913 0.0
C1045 C 0.82372 0.27621 0.58799 0.0
C1046 C 0.82217 0.26107 0.58351 0.0
C1047 C 0.81494 0.25506 0.57032 0.0
C1048 C 0.80104 0.25787 0.54761 0.0
C1049 C 0.80538 0.26428 0.5345 0.0
C1050 C 0.78944 0.24584 0.54707 0.0
C1051 C 0.78344 0.23912 0.56063 0.0
C1052 C 0.77866 0.24777 0.57332 0.0
C1053 C 0.77235 0.24129 0.58573 0.0
C1054 C 0.7704 0.22602 0.58559 0.0
C1055 C 0.77524 0.2174 0.57292 0.0
C1056 C 0.78172 0.22388 0.5606 0.0
C1057 C 0.7786 0.24152 0.5066 0.0
C1058 C 0.77771 0.22679 0.50058 0.0
C1059 C 0.76969 0.22156 0.48769 0.0
C1060 C 0.76232 0.23096 0.48066 0.0
C1061 C 0.76322 0.24571 0.48674 0.0
C1062 C 0.77125 0.25093 0.49961 0.0
C1063 C 0.78698 0.247 0.52036 0.0
C1064 C 0.78273 0.24047 0.53338 0.0
C1065 C 0.7985 0.25904 0.5209 0.0
C1066 C 0.80368 0.26625 0.50743 0.0
C1067 C 0.80838 0.25809 0.49439 0.0
C1068 C 0.81298 0.26488 0.48167 0.0
C1069 C 0.81308 0.28001 0.48174 0.0
C1070 C 0.80851 0.28817 0.49487 0.0
C1071 C 0.8039 0.28137 0.50759 0.0
H1072 H 0.27802 0.23519 0.47523 0.0
H1073 H 0.28414 0.23117 0.44838 0.0
H1074 H 0.30466 0.27626 0.44997 0.0
H1075 H 0.29835 0.28019 0.47656 0.0
H1076 H 0.29596 0.24634 0.50132 0.0
H1077 H 0.2538 0.25737 0.47706 0.0
H1078 H 0.24304 0.26753 0.45708 0.0
H1079 H 0.26548 0.31051 0.47306 0.0
H1080 H 0.27625 0.30024 0.49307 0.0
H1081 H 0.28667 0.29635 0.53827 0.0
H1082 H 0.28717 0.30364 0.56532 0.0
H1083 H 0.26188 0.26197 0.5726 0.0
H1084 H 0.26158 0.25462 0.5455 0.0
H1085 H 0.26328 0.28422 0.51631 0.0
H1086 H 0.30569 0.27238 0.54052 0.0
H1087 H 0.31305 0.2626 0.56253 0.0
H1088 H 0.28962 0.22011 0.54654 0.0
H1089 H 0.28164 0.23011 0.52482 0.0
C1090 C 0.28759 0.25801 0.47779 0.0
C1091 C 0.28398 0.24412 0.46977 0.0
C1092 C 0.28748 0.24186 0.45446 0.0
C1093 C 0.2947 0.25346 0.447 0.0
C1094 C 0.29878 0.26719 0.45528 0.0
C1095 C 0.29528 0.26943 0.4705 0.0
C1096 C 0.28268 0.26106 0.49359 0.0
C1097 C 0.2886 0.25439 0.50458 0.0
C1098 C 0.27315 0.27163 0.49785 0.0
C1099 C 0.26583 0.27806 0.4865 0.0
C1100 C 0.2563 0.269 0.47632 0.0
C1101 C 0.25013 0.27482 0.46496 0.0
C1102 C 0.25345 0.2898 0.46352 0.0
C1103 C 0.26283 0.29891 0.47386 0.0
C1104 C 0.26888 0.29309 0.48534 0.0
C1105 C 0.27411 0.27496 0.53994 0.0
C1106 C 0.28089 0.28895 0.54567 0.0
C1107 C 0.28129 0.29303 0.56108 0.0
C1108 C 0.27466 0.28329 0.57095 0.0
C1109 C 0.26701 0.26967 0.56518 0.0
C1110 C 0.2668 0.26549 0.54975 0.0
C1111 C 0.27665 0.26962 0.52403 0.0
C1112 C 0.2704 0.27596 0.51303 0.0
C1113 C 0.2858 0.25867 0.51979 0.0
C1114 C 0.29284 0.25204 0.53122 0.0
C1115 C 0.30223 0.26093 0.54168 0.0
C1116 C 0.30643 0.25536 0.55422 0.0
C1117 C 0.30174 0.24068 0.55624 0.0
C1118 C 0.29335 0.23148 0.54518 0.0
C1119 C 0.28885 0.23715 0.53277 0.0
H1120 H 0.76396 0.54946 0.81292 0.0
H1121 H 0.75293 0.57152 0.8217 0.0
H1122 H 0.73073 0.56767 0.77982 0.0
H1123 H 0.74162 0.54551 0.77119 0.0
H1124 H 0.75086 0.52098 0.80361 0.0
H1125 H 0.78245 0.56019 0.78308 0.0
H1126 H 0.78843 0.58114 0.769 0.0
H1127 H 0.77224 0.55413 0.72896 0.0
H1128 H 0.7661 0.5332 0.74315 0.0
H1129 H 0.77155 0.49202 0.74776 0.0
H1130 H 0.78334 0.47062 0.73845 0.0
H1131 H 0.80236 0.47176 0.78162 0.0
H1132 H 0.79088 0.49343 0.79074 0.0
H1133 H 0.78321 0.51929 0.75782 0.0
H1134 H 0.74861 0.48197 0.77683 0.0
H1135 H 0.74053 0.4602 0.78932 0.0
H1136 H 0.76044 0.48243 0.83003 0.0
H1137 H 0.76855 0.50427 0.81742 0.0
C1138 C 0.7537 0.54594 0.79137 0.0
C1139 C 0.75664 0.55333 0.80568 0.0
C1140 C 0.75043 0.56597 0.81063 0.0
C1141 C 0.74104 0.57136 0.80141 0.0
C1142 C 0.73784 0.56373 0.78721 0.0
C1143 C 0.74413 0.55114 0.78223 0.0
C1144 C 0.76089 0.53295 0.7859 0.0
C1145 C 0.75812 0.5207 0.79373 0.0
C1146 C 0.76997 0.53242 0.77273 0.0
C1147 C 0.77366 0.54516 0.76421 0.0
C1148 C 0.78 0.55881 0.77131 0.0
C1149 C 0.7834 0.57078 0.76326 0.0
C1150 C 0.78073 0.56929 0.74789 0.0
C1151 C 0.77451 0.55558 0.74076 0.0
C1152 C 0.771 0.54363 0.74886 0.0
C1153 C 0.78024 0.49425 0.76997 0.0
C1154 C 0.77829 0.48768 0.7552 0.0
C1155 C 0.78493 0.47537 0.74994 0.0
C1156 C 0.79372 0.46944 0.75932 0.0
C1157 C 0.79574 0.47612 0.77409 0.0
C1158 C 0.78907 0.48842 0.77935 0.0
C1159 C 0.77317 0.50733 0.77551 0.0
C1160 C 0.77599 0.5196 0.76772 0.0
C1161 C 0.76394 0.50782 0.78854 0.0
C1162 C 0.75923 0.49467 0.7962 0.0
C1163 C 0.75129 0.48213 0.78843 0.0
C1164 C 0.74661 0.46975 0.79559 0.0
C1165 C 0.74984 0.46966 0.81064 0.0
C1166 C 0.7579 0.4822 0.81839 0.0
C1167 C 0.76244 0.49467 0.81125 0.0
H1168 H 0.30429 0.54324 0.78714 0.0
H1169 H 0.30995 0.56882 0.7979 0.0
H1170 H 0.26314 0.57018 0.80701 0.0
H1171 H 0.25757 0.54463 0.7962 0.0
H1172 H 0.29089 0.51862 0.79809 0.0
H1173 H 0.28231 0.54639 0.7585 0.0
H1174 H 0.27197 0.56559 0.74819 0.0
H1175 H 0.22764 0.54496 0.75885 0.0
H1176 H 0.23813 0.52558 0.76877 0.0
H1177 H 0.24565 0.47782 0.76937 0.0
H1178 H 0.24306 0.45187 0.75903 0.0
H1179 H 0.28854 0.45816 0.74251 0.0
H1180 H 0.29114 0.48391 0.75309 0.0
H1181 H 0.25704 0.5058 0.75533 0.0
H1182 H 0.26668 0.47602 0.79233 0.0
H1183 H 0.27815 0.45638 0.8005 0.0
H1184 H 0.32152 0.4815 0.79529 0.0
H1185 H 0.31003 0.50093 0.78648 0.0
C1186 C 0.2805 0.54209 0.7907 0.0
C1187 C 0.29527 0.54902 0.79159 0.0
C1188 C 0.29849 0.56362 0.79778 0.0
C1189 C 0.28699 0.57156 0.80323 0.0
C1190 C 0.27223 0.56445 0.80267 0.0
C1191 C 0.26903 0.54984 0.79653 0.0
C1192 C 0.27708 0.52687 0.78334 0.0
C1193 C 0.28359 0.51584 0.78868 0.0
C1194 C 0.26736 0.52322 0.7712 0.0
C1195 C 0.26099 0.53461 0.7645 0.0
C1196 C 0.27036 0.54602 0.75859 0.0
C1197 C 0.26441 0.55704 0.75278 0.0
C1198 C 0.24894 0.55694 0.75275 0.0
C1199 C 0.23959 0.54534 0.75849 0.0
C1200 C 0.24556 0.53426 0.76422 0.0
C1201 C 0.26859 0.48269 0.762 0.0
C1202 C 0.25494 0.47363 0.76328 0.0
C1203 C 0.25352 0.45885 0.75748 0.0
C1204 C 0.26561 0.45308 0.75001 0.0
C1205 C 0.27902 0.46238 0.74811 0.0
C1206 C 0.28052 0.47705 0.75414 0.0
C1207 C 0.27092 0.49765 0.77004 0.0
C1208 C 0.26423 0.50859 0.76482 0.0
C1209 C 0.28056 0.50123 0.78224 0.0
C1210 C 0.28749 0.48984 0.78842 0.0
C1211 C 0.27867 0.47725 0.79272 0.0
C1212 C 0.28522 0.46605 0.79745 0.0
C1213 C 0.30073 0.46736 0.79839 0.0
C1214 C 0.30954 0.48021 0.79469 0.0
C1215 C 0.30298 0.49132 0.78968 0.0
H1216 H 0.27908 0.52862 0.24422 0.0
H1217 H 0.28563 0.55018 0.23107 0.0
H1218 H 0.29406 0.57707 0.27328 0.0
H1219 H 0.28749 0.55545 0.28637 0.0
H1220 H 0.29536 0.51631 0.2622 0.0
H1221 H 0.25227 0.54101 0.26716 0.0
H1222 H 0.2396 0.56232 0.27466 0.0
H1223 H 0.24783 0.55983 0.32086 0.0
H1224 H 0.26133 0.53913 0.31336 0.0
H1225 H 0.26825 0.50034 0.31872 0.0
H1226 H 0.2607 0.47848 0.33129 0.0
H1227 H 0.25783 0.45181 0.28851 0.0
H1228 H 0.26483 0.47369 0.27594 0.0
H1229 H 0.2547 0.51299 0.30065 0.0
H1230 H 0.29937 0.49085 0.2966 0.0
H1231 H 0.31426 0.47105 0.29012 0.0
H1232 H 0.30327 0.46902 0.24378 0.0
H1233 H 0.28841 0.48876 0.25032 0.0
C1234 C 0.28267 0.54045 0.26627 0.0
C1235 C 0.2824 0.53916 0.25062 0.0
C1236 C 0.28615 0.55148 0.24313 0.0
C1237 C 0.2903 0.56534 0.25114 0.0
C1238 C 0.29067 0.56658 0.26681 0.0
C1239 C 0.28698 0.55424 0.2743 0.0
C1240 C 0.27842 0.52733 0.27411 0.0
C1241 C 0.28637 0.51552 0.27051 0.0
C1242 C 0.26692 0.52649 0.28523 0.0
C1243 C 0.2581 0.53864 0.28966 0.0
C1244 C 0.25155 0.54513 0.27889 0.0
C1245 C 0.24422 0.55722 0.28316 0.0
C1246 C 0.24284 0.56263 0.2983 0.0
C1247 C 0.24876 0.55576 0.30911 0.0
C1248 C 0.25642 0.54394 0.30483 0.0
C1249 C 0.26731 0.48867 0.29638 0.0
C1250 C 0.26594 0.4898 0.31204 0.0
C1251 C 0.26166 0.47733 0.31921 0.0
C1252 C 0.25882 0.46349 0.31086 0.0
C1253 C 0.2602 0.46234 0.29521 0.0
C1254 C 0.26423 0.47484 0.28803 0.0
C1255 C 0.2717 0.50199 0.28881 0.0
C1256 C 0.26374 0.51381 0.2924 0.0
C1257 C 0.28331 0.50295 0.27783 0.0
C1258 C 0.29266 0.49119 0.27396 0.0
C1259 C 0.30012 0.48609 0.28506 0.0
C1260 C 0.30862 0.47477 0.28135 0.0
C1261 C 0.30994 0.46847 0.26644 0.0
C1262 C 0.30264 0.47377 0.25534 0.0
C1263 C 0.29411 0.48503 0.25906 0.0
H1264 H 0.75432 0.53432 0.26144 0.0
H1265 H 0.74349 0.55375 0.25207 0.0
H1266 H 0.78759 0.57573 0.24265 0.0
H1267 H 0.79828 0.55642 0.25244 0.0
H1268 H 0.77394 0.5156 0.24739 0.0
H1269 H 0.7728 0.55279 0.29011 0.0
H1270 H 0.77778 0.57868 0.29988 0.0
H1271 H 0.82465 0.57841 0.29007 0.0
H1272 H 0.81956 0.55245 0.28043 0.0
H1273 H 0.82363 0.50855 0.28337 0.0
H1274 H 0.83288 0.48905 0.29423 0.0
H1275 H 0.78848 0.46484 0.29421 0.0
H1276 H 0.77921 0.48481 0.28434 0.0
H1277 H 0.80506 0.5269 0.29224 0.0
H1278 H 0.80631 0.48794 0.25261 0.0
H1279 H 0.80074 0.46279 0.24041 0.0
H1280 H 0.7541 0.46681 0.24156 0.0
H1281 H 0.75956 0.49167 0.25434 0.0
C1282 C 0.77709 0.54396 0.25771 0.0
C1283 C 0.76163 0.5433 0.25728 0.0
C1284 C 0.75547 0.55441 0.25186 0.0
C1285 C 0.76464 0.56637 0.24658 0.0
C1286 C 0.78016 0.56686 0.24684 0.0
C1287 C 0.78631 0.55577 0.25236 0.0
C1288 C 0.78353 0.53243 0.2641 0.0
C1289 C 0.7806 0.51798 0.25729 0.0
C1290 C 0.79258 0.53567 0.27675 0.0
C1291 C 0.7958 0.55078 0.28439 0.0
C1292 C 0.78416 0.55829 0.29022 0.0
C1293 C 0.78701 0.57309 0.29573 0.0
C1294 C 0.80159 0.58064 0.2956 0.0
C1295 C 0.81331 0.57289 0.29043 0.0
C1296 C 0.81044 0.55807 0.2849 0.0
C1297 C 0.80075 0.4981 0.2828 0.0
C1298 C 0.81587 0.49912 0.28588 0.0
C1299 C 0.82117 0.48783 0.29193 0.0
C1300 C 0.81149 0.47521 0.295 0.0
C1301 C 0.79629 0.4744 0.29218 0.0
C1302 C 0.79097 0.48576 0.28633 0.0
C1303 C 0.79524 0.5098 0.27571 0.0
C1304 C 0.79841 0.52437 0.28234 0.0
C1305 C 0.78645 0.50662 0.26279 0.0
C1306 C 0.78332 0.49165 0.25465 0.0
C1307 C 0.79487 0.48338 0.25038 0.0
C1308 C 0.79171 0.46905 0.24336 0.0
C1309 C 0.77701 0.46293 0.24007 0.0
C1310 C 0.76554 0.47136 0.24387 0.0
C1311 C 0.76866 0.48555 0.25117 0.0
H1312 H 0.53711 0.25537 0.72672 0.0
H1313 H 0.55774 0.24257 0.7171 0.0
H1314 H 0.56205 0.22935 0.76069 0.0
H1315 H 0.54136 0.24217 0.77024 0.0
H1316 H 0.51046 0.24671 0.73853 0.0
H1317 H 0.55401 0.27894 0.75494 0.0
H1318 H 0.57782 0.28649 0.76707 0.0
H1319 H 0.55694 0.27693 0.80937 0.0
H1320 H 0.53312 0.26931 0.79714 0.0
H1321 H 0.49012 0.27438 0.79454 0.0
H1322 H 0.47023 0.2876 0.80527 0.0
H1323 H 0.46563 0.30299 0.76276 0.0
H1324 H 0.48554 0.28955 0.75202 0.0
H1325 H 0.51667 0.28424 0.78277 0.0
H1326 H 0.47216 0.25375 0.76571 0.0
H1327 H 0.44871 0.24649 0.75276 0.0
H1328 H 0.47171 0.25247 0.71062 0.0
H1329 H 0.49507 0.26046 0.72363 0.0
C1330 C 0.53777 0.24988 0.74924 0.0
C1331 C 0.54241 0.24962 0.73418 0.0
C1332 C 0.5542 0.24226 0.72869 0.0
C1333 C 0.56158 0.23496 0.73814 0.0
C1334 C 0.55675 0.23504 0.75317 0.0
C1335 C 0.54491 0.24235 0.75864 0.0
C1336 C 0.52558 0.25817 0.75512 0.0
C1337 C 0.51185 0.25508 0.74807 0.0
C1338 C 0.52733 0.26888 0.76775 0.0
C1339 C 0.54181 0.27341 0.77511 0.0
C1340 C 0.55459 0.2783 0.7668 0.0
C1341 C 0.5682 0.28259 0.77374 0.0
C1342 C 0.56927 0.28223 0.78917 0.0
C1343 C 0.55644 0.27742 0.79749 0.0
C1344 C 0.54284 0.27306 0.79052 0.0
C1345 C 0.48929 0.28091 0.77246 0.0
C1346 C 0.48487 0.28065 0.78753 0.0
C1347 C 0.47352 0.28827 0.79366 0.0
C1348 C 0.46637 0.29645 0.7849 0.0
C1349 C 0.4708 0.29669 0.76977 0.0
C1350 C 0.48219 0.28903 0.76363 0.0
C1351 C 0.50148 0.27279 0.76618 0.0
C1352 C 0.51523 0.27591 0.77319 0.0
C1353 C 0.49974 0.2622 0.75342 0.0
C1354 C 0.48539 0.25793 0.7457 0.0
C1355 C 0.47214 0.25386 0.75374 0.0
C1356 C 0.45876 0.24964 0.74634 0.0
C1357 C 0.45846 0.249 0.73073 0.0
C1358 C 0.4717 0.25288 0.72266 0.0
C1359 C 0.48502 0.2574 0.73009 0.0
H1360 H 0.56503 0.7482 0.76543 0.0
H1361 H 0.58286 0.73547 0.77608 0.0
H1362 H 0.57063 0.75422 0.82036 0.0
H1363 H 0.55281 0.76689 0.80962 0.0
H1364 H 0.52854 0.75799 0.79294 0.0
H1365 H 0.56478 0.77298 0.74157 0.0
H1366 H 0.59098 0.77774 0.73386 0.0
H1367 H 0.6025 0.7922 0.7798 0.0
H1368 H 0.57632 0.78725 0.78742 0.0
H1369 H 0.5273 0.81164 0.76982 0.0
H1370 H 0.50886 0.82424 0.75975 0.0
H1371 H 0.48616 0.78266 0.74 0.0
H1372 H 0.50459 0.77017 0.75008 0.0
H1373 H 0.54655 0.79161 0.75531 0.0
H1374 H 0.50705 0.79399 0.79239 0.0
H1375 H 0.48041 0.79168 0.79833 0.0
H1376 H 0.47594 0.74547 0.7828 0.0
H1377 H 0.50265 0.74788 0.77686 0.0
C1378 C 0.55771 0.75861 0.78673 0.0
C1379 C 0.5662 0.74956 0.77743 0.0
C1380 C 0.5764 0.74232 0.78353 0.0
C1381 C 0.57821 0.74389 0.79906 0.0
C1382 C 0.56939 0.75265 0.80836 0.0
C1383 C 0.55922 0.75992 0.80225 0.0
C1384 C 0.54758 0.76707 0.78024 0.0
C1385 C 0.53251 0.76532 0.78472 0.0
C1386 C 0.55273 0.7768 0.76964 0.0
C1387 C 0.56863 0.77968 0.76506 0.0
C1388 C 0.57297 0.77718 0.74996 0.0
C1389 C 0.58794 0.77993 0.74557 0.0
C1390 C 0.59884 0.78532 0.75622 0.0
C1391 C 0.59443 0.78781 0.77135 0.0
C1392 C 0.57946 0.78505 0.77572 0.0
C1393 C 0.51726 0.79 0.76069 0.0
C1394 C 0.51844 0.80529 0.76316 0.0
C1395 C 0.50786 0.81244 0.75753 0.0
C1396 C 0.49608 0.80441 0.74914 0.0
C1397 C 0.49519 0.78913 0.74632 0.0
C1398 C 0.50567 0.78198 0.75209 0.0
C1399 C 0.52759 0.78232 0.76784 0.0
C1400 C 0.54265 0.78424 0.7635 0.0
C1401 C 0.5225 0.77294 0.77873 0.0
C1402 C 0.50676 0.77114 0.78401 0.0
C1403 C 0.50034 0.78334 0.79036 0.0
C1404 C 0.48512 0.78202 0.79369 0.0
C1405 C 0.47606 0.76842 0.79087 0.0
C1406 C 0.48265 0.75607 0.78517 0.0
C1407 C 0.49789 0.75742 0.78177 0.0
H1408 H 0.54415 0.76649 0.23484 0.0
H1409 H 0.56608 0.75576 0.22514 0.0
H1410 H 0.57092 0.74129 0.26805 0.0
H1411 H 0.54867 0.75163 0.27752 0.0
H1412 H 0.51784 0.75453 0.24523 0.0
H1413 H 0.55781 0.79016 0.26472 0.0
H1414 H 0.58064 0.79969 0.27802 0.0
H1415 H 0.55975 0.78558 0.31874 0.0
H1416 H 0.5369 0.77606 0.30533 0.0
H1417 H 0.49271 0.77711 0.30163 0.0
H1418 H 0.47089 0.78779 0.31177 0.0
H1419 H 0.46587 0.80331 0.26944 0.0
H1420 H 0.48793 0.79285 0.25944 0.0
H1421 H 0.51895 0.78986 0.29128 0.0
H1422 H 0.48006 0.75266 0.27196 0.0
H1423 H 0.4573 0.74202 0.25889 0.0
H1424 H 0.47606 0.75862 0.2185 0.0
H1425 H 0.49881 0.76935 0.23168 0.0
C1426 C 0.54483 0.76001 0.25695 0.0
C1427 C 0.54989 0.76094 0.24213 0.0
C1428 C 0.56252 0.75491 0.23665 0.0
C1429 C 0.57034 0.74774 0.24585 0.0
C1430 C 0.56512 0.74664 0.26063 0.0
C1431 C 0.55248 0.75268 0.26611 0.0
C1432 C 0.53152 0.76663 0.26277 0.0
C1433 C 0.51816 0.76243 0.25517 0.0
C1434 C 0.53179 0.77666 0.27595 0.0
C1435 C 0.5457 0.78226 0.284 0.0
C1436 C 0.5582 0.78896 0.27647 0.0
C1437 C 0.57125 0.79438 0.28408 0.0
C1438 C 0.57202 0.79332 0.29942 0.0
C1439 C 0.55946 0.78667 0.30696 0.0
C1440 C 0.54642 0.78121 0.29931 0.0
C1441 C 0.4919 0.78407 0.27975 0.0
C1442 C 0.48693 0.78283 0.29454 0.0
C1443 C 0.47438 0.78884 0.30028 0.0
C1444 C 0.46659 0.79634 0.29139 0.0
C1445 C 0.47167 0.79769 0.2766 0.0
C1446 C 0.4842 0.7916 0.27084 0.0
C1447 C 0.5053 0.77771 0.27377 0.0
C1448 C 0.51867 0.78198 0.28132 0.0
C1449 C 0.50504 0.76773 0.26058 0.0
C1450 C 0.49107 0.76185 0.2528 0.0
C1451 C 0.47921 0.75413 0.26033 0.0
C1452 C 0.46628 0.74798 0.25284 0.0
C1453 C 0.46495 0.74948 0.23768 0.0
C1454 C 0.47675 0.75741 0.23021 0.0
C1455 C 0.48975 0.76345 0.23769 0.0
H1456 H 0.54871 0.23815 0.28314 0.0
H1457 H 0.56754 0.22688 0.29415 0.0
H1458 H 0.59029 0.26977 0.31006 0.0
H1459 H 0.57142 0.28094 0.29912 0.0
H1460 H 0.52938 0.25594 0.29562 0.0
H1461 H 0.56995 0.25928 0.25897 0.0
H1462 H 0.59612 0.26558 0.25163 0.0
H1463 H 0.59401 0.31092 0.26776 0.0
H1464 H 0.56796 0.3045 0.27534 0.0
H1465 H 0.52295 0.30973 0.27376 0.0
H1466 H 0.50183 0.3205 0.26616 0.0
H1467 H 0.48075 0.27761 0.2483 0.0
H1468 H 0.50208 0.26701 0.25521 0.0
H1469 H 0.5434 0.29208 0.25951 0.0
H1470 H 0.50632 0.28838 0.30087 0.0
H1471 H 0.47972 0.28503 0.3068 0.0
H1472 H 0.47511 0.24259 0.28031 0.0
H1473 H 0.5019 0.24576 0.27531 0.0
C1474 C 0.55877 0.26038 0.29013 0.0
C1475 C 0.55773 0.24511 0.28905 0.0
C1476 C 0.56848 0.23869 0.29535 0.0
C1477 C 0.58045 0.24744 0.30288 0.0
C1478 C 0.58136 0.26274 0.30409 0.0
C1479 C 0.57057 0.26914 0.29786 0.0
C1480 C 0.54746 0.26718 0.28326 0.0
C1481 C 0.53248 0.26366 0.28757 0.0
C1482 C 0.55146 0.27755 0.27302 0.0
C1483 C 0.56706 0.28141 0.26781 0.0
C1484 C 0.57515 0.27057 0.26093 0.0
C1485 C 0.59006 0.27419 0.25666 0.0
C1486 C 0.59714 0.28873 0.25921 0.0
C1487 C 0.58892 0.29959 0.26586 0.0
C1488 C 0.57401 0.29597 0.27006 0.0
C1489 C 0.51392 0.28754 0.26531 0.0
C1490 C 0.51394 0.30272 0.26789 0.0
C1491 C 0.50189 0.30884 0.26362 0.0
C1492 C 0.48964 0.29981 0.25689 0.0
C1493 C 0.48999 0.28474 0.25369 0.0
C1494 C 0.50213 0.27869 0.25765 0.0
C1495 C 0.52545 0.2807 0.27177 0.0
C1496 C 0.5404 0.28427 0.26747 0.0
C1497 C 0.52151 0.27046 0.2821 0.0
C1498 C 0.506 0.26731 0.28768 0.0
C1499 C 0.49958 0.2782 0.29671 0.0
C1500 C 0.48432 0.27634 0.29988 0.0
C1501 C 0.47511 0.26364 0.29382 0.0
C1502 C 0.48177 0.25244 0.28534 0.0
C1503 C 0.49711 0.25421 0.28244 0.0
H1504 H 0.22377 0.21787 0.1754 0.0
H1505 H 0.22889 0.17394 0.15639 0.0
H1506 H 0.23723 0.22746 0.15407 0.0
H1507 H 0.24182 0.18347 0.13459 0.0
H1508 H 0.27451 0.20612 0.10214 0.0
H1509 H 0.26352 0.19682 0.1248 0.0
H1510 H 0.23359 0.22907 0.12896 0.0
H1511 H 0.24526 0.239 0.10707 0.0
C1512 C 0.22773 0.21024 0.16661 0.0
C1513 C 0.22517 0.19513 0.16755 0.0
C1514 C 0.23538 0.21573 0.15429 0.0
C1515 C 0.24047 0.20626 0.14242 0.0
C1516 C 0.23821 0.19114 0.14354 0.0
C1517 C 0.23073 0.18565 0.15601 0.0
C1518 C 0.26575 0.21139 0.10803 0.0
C1519 C 0.26079 0.22333 0.10269 0.0
C1520 C 0.25929 0.2059 0.12094 0.0
C1521 C 0.24763 0.21215 0.12879 0.0
C1522 C 0.24269 0.22408 0.12342 0.0
C1523 C 0.24924 0.22965 0.11064 0.0
H1524 H 0.8052 0.21359 0.14206 0.0
H1525 H 0.84029 0.1942 0.11687 0.0
H1526 H 0.7975 0.22178 0.11934 0.0
H1527 H 0.83263 0.20252 0.09418 0.0
H1528 H 0.8247 0.23673 0.06276 0.0
H1529 H 0.83223 0.22738 0.08496 0.0
H1530 H 0.78654 0.21003 0.09427 0.0
H1531 H 0.77901 0.21936 0.07206 0.0
C1532 C 0.81127 0.21108 0.13168 0.0
C1533 C 0.82336 0.20326 0.13125 0.0
C1534 C 0.8068 0.2157 0.11867 0.0
C1535 C 0.81447 0.21277 0.10502 0.0
C1536 C 0.82659 0.205 0.10459 0.0
C1537 C 0.83092 0.20019 0.11755 0.0
C1538 C 0.81629 0.23089 0.06955 0.0
C1539 C 0.80128 0.22876 0.06572 0.0
C1540 C 0.8206 0.22547 0.08217 0.0
C1541 C 0.80996 0.21801 0.09132 0.0
C1542 C 0.79495 0.21583 0.08745 0.0
C1543 C 0.79067 0.22106 0.07471 0.0
H1544 H 0.85697 0.85142 0.15576 0.0
H1545 H 0.86329 0.81121 0.17216 0.0
H1546 H 0.84665 0.83752 0.133 0.0
H1547 H 0.85291 0.79731 0.14926 0.0
H1548 H 0.84658 0.78048 0.09848 0.0
H1549 H 0.85827 0.7936 0.12109 0.0
H1550 H 0.82299 0.82014 0.12764 0.0
H1551 H 0.81109 0.80686 0.10536 0.0
C1552 C 0.85629 0.83963 0.15447 0.0
C1553 C 0.86088 0.83242 0.16583 0.0
C1554 C 0.85029 0.83167 0.14146 0.0
C1555 C 0.84886 0.81634 0.13944 0.0
C1556 C 0.85393 0.80913 0.15053 0.0
C1557 C 0.85982 0.81709 0.16364 0.0
C1558 C 0.8412 0.78897 0.10484 0.0
C1559 C 0.82794 0.79268 0.10001 0.0
C1560 C 0.84793 0.7965 0.11776 0.0
C1561 C 0.84161 0.80797 0.12601 0.0
C1562 C 0.82826 0.81153 0.12132 0.0
C1563 C 0.82147 0.80394 0.10853 0.0
H1564 H 0.22974 0.78575 0.16025 0.0
H1565 H 0.21893 0.82165 0.139 0.0
H1566 H 0.23817 0.77431 0.13622 0.0
H1567 H 0.22816 0.8108 0.11517 0.0
H1568 H 0.23442 0.78351 0.0716 0.0
H1569 H 0.22365 0.79241 0.09561 0.0
H1570 H 0.25722 0.77574 0.11823 0.0
H1571 H 0.26725 0.76605 0.09409 0.0
C1572 C 0.22928 0.79124 0.15043 0.0
C1573 C 0.22364 0.80457 0.15148 0.0
C1574 C 0.23421 0.78475 0.13665 0.0
C1575 C 0.23389 0.79158 0.12364 0.0
C1576 C 0.22829 0.80498 0.1248 0.0
C1577 C 0.22308 0.8113 0.13851 0.0
C1578 C 0.23931 0.78164 0.08177 0.0
C1579 C 0.2516 0.77414 0.08111 0.0
C1580 C 0.23327 0.78685 0.09555 0.0
C1581 C 0.23964 0.785 0.10898 0.0
C1582 C 0.25184 0.77722 0.10821 0.0
C1583 C 0.25767 0.77173 0.09441 0.0
H1584 H 0.2473 0.85196 0.91787 0.0
H1585 H 0.2386 0.8148 0.88403 0.0
H1586 H 0.25827 0.83697 0.93336 0.0
H1587 H 0.24956 0.7998 0.89962 0.0
H1588 H 0.24802 0.77637 0.94306 0.0
H1589 H 0.24105 0.79066 0.92441 0.0
H1590 H 0.27982 0.82273 0.93411 0.0
H1591 H 0.28712 0.80824 0.95248 0.0
C1592 C 0.24791 0.84065 0.91365 0.0
C1593 C 0.24201 0.83454 0.89977 0.0
C1594 C 0.25426 0.83209 0.92249 0.0
C1595 C 0.25469 0.81721 0.91771 0.0
C1596 C 0.24925 0.81122 0.90362 0.0
C1597 C 0.24305 0.81983 0.89468 0.0
C1598 C 0.25527 0.78628 0.941 0.0
C1599 C 0.26808 0.79119 0.94939 0.0
C1600 C 0.25125 0.79448 0.93032 0.0
C1601 C 0.25986 0.80783 0.92787 0.0
C1602 C 0.27288 0.81256 0.93592 0.0
C1603 C 0.277 0.80429 0.94649 0.0
H1604 H 0.23782 0.20362 0.88873 0.0
H1605 H 0.19743 0.21216 0.9131 0.0
H1606 H 0.2514 0.20917 0.91192 0.0
H1607 H 0.21105 0.21797 0.93613 0.0
H1608 H 0.23664 0.21452 0.97707 0.0
H1609 H 0.22363 0.20683 0.95376 0.0
H1610 H 0.25979 0.23033 0.92984 0.0
H1611 H 0.27282 0.23797 0.95317 0.0
C1612 C 0.23183 0.20666 0.89902 0.0
C1613 C 0.21653 0.20746 0.89904 0.0
C1614 C 0.23964 0.20992 0.91229 0.0
C1615 C 0.23232 0.21403 0.92588 0.0
C1616 C 0.21699 0.21464 0.92591 0.0
C1617 C 0.2092 0.21139 0.91266 0.0
C1618 C 0.24178 0.21808 0.96684 0.0
C1619 C 0.25572 0.22691 0.96697 0.0
C1620 C 0.23433 0.21367 0.95348 0.0
C1621 C 0.24063 0.21802 0.93994 0.0
C1622 C 0.25471 0.22663 0.94004 0.0
C1623 C 0.26218 0.23102 0.9534 0.0
H1624 H 0.80645 0.26243 0.8528 0.0
H1625 H 0.84001 0.23487 0.85588 0.0
H1626 H 0.79809 0.25925 0.87847 0.0
H1627 H 0.83158 0.2316 0.88152 0.0
H1628 H 0.82515 0.25004 0.93217 0.0
H1629 H 0.83235 0.2492 0.90567 0.0
H1630 H 0.78616 0.23926 0.8941 0.0
H1631 H 0.77896 0.2401 0.92064 0.0
C1632 C 0.81191 0.25555 0.85892 0.0
C1633 C 0.82374 0.24873 0.8523 0.0
C1634 C 0.80707 0.25365 0.87355 0.0
C1635 C 0.81415 0.24512 0.88194 0.0
C1636 C 0.82592 0.23821 0.87529 0.0
C1637 C 0.83063 0.23995 0.86057 0.0
C1638 C 0.81657 0.24752 0.92394 0.0
C1639 C 0.80152 0.24516 0.92842 0.0
C1640 C 0.82068 0.24694 0.9088 0.0
C1641 C 0.80981 0.24421 0.89786 0.0
C1642 C 0.79476 0.24148 0.90232 0.0
C1643 C 0.79065 0.24184 0.91747 0.0
H1644 H 0.82272 0.82202 0.89506 0.0
H1645 H 0.86731 0.82267 0.90975 0.0
H1646 H 0.81273 0.81099 0.91726 0.0
H1647 H 0.85736 0.81197 0.932 0.0
H1648 H 0.83581 0.77738 0.96055 0.0
H1649 H 0.84497 0.78876 0.93843 0.0
H1650 H 0.80998 0.81572 0.94434 0.0
H1651 H 0.80043 0.80388 0.96617 0.0
C1652 C 0.83038 0.81995 0.90308 0.0
C1653 C 0.84582 0.82315 0.90057 0.0
C1654 C 0.82466 0.81368 0.91584 0.0
C1655 C 0.83424 0.81047 0.92637 0.0
C1656 C 0.84966 0.81402 0.92399 0.0
C1657 C 0.85536 0.82025 0.91126 0.0
C1658 C 0.82994 0.78559 0.95704 0.0
C1659 C 0.81737 0.78969 0.96516 0.0
C1660 C 0.83532 0.79227 0.94446 0.0
C1661 C 0.82828 0.80324 0.93965 0.0
C1662 C 0.81562 0.80725 0.94767 0.0
C1663 C 0.81024 0.80057 0.96028 0.0
H1664 H 0.14859 0.2033 0.23476 0.0
H1665 H 0.14329 0.21604 0.19116 0.0
H1666 H 0.12603 0.21332 0.24379 0.0
H1667 H 0.12074 0.22577 0.20007 0.0
H1668 H 0.09154 0.25689 0.22519 0.0
H1669 H 0.11378 0.2463 0.21674 0.0
H1670 H 0.09896 0.20949 0.24108 0.0
H1671 H 0.07662 0.2201 0.24953 0.0
C1672 C 0.14258 0.20814 0.22708 0.0
C1673 C 0.14781 0.20893 0.21226 0.0
C1674 C 0.12961 0.21382 0.23223 0.0
C1675 C 0.12163 0.22045 0.22268 0.0
C1676 C 0.12675 0.22099 0.20781 0.0
C1677 C 0.13966 0.21531 0.20267 0.0
C1678 C 0.09293 0.24647 0.22863 0.0
C1679 C 0.08223 0.23932 0.23798 0.0
C1680 C 0.1057 0.24039 0.22379 0.0
C1681 C 0.10813 0.22699 0.22816 0.0
C1682 C 0.09752 0.2199 0.23764 0.0
C1683 C 0.08471 0.22598 0.24248 0.0
H1684 H 0.82061 0.12667 0.18309 0.0
H1685 H 0.82622 0.15612 0.22409 0.0
H1686 H 0.80903 0.1071 0.19725 0.0
H1687 H 0.81449 0.13663 0.23816 0.0
H1688 H 0.81311 0.09321 0.25826 0.0
H1689 H 0.8218 0.11387 0.24452 0.0
H1690 H 0.78702 0.09906 0.21284 0.0
H1691 H 0.77819 0.07842 0.22669 0.0
C1692 C 0.8192 0.12903 0.19509 0.0
C1693 C 0.82446 0.14292 0.20247 0.0
C1694 C 0.8125 0.11783 0.20319 0.0
C1695 C 0.81096 0.12029 0.21884 0.0
C1696 C 0.81574 0.13433 0.22615 0.0
C1697 C 0.82239 0.14552 0.21805 0.0
C1698 C 0.80715 0.09448 0.24851 0.0
C1699 C 0.79497 0.08414 0.24357 0.0
C1700 C 0.81214 0.10633 0.24063 0.0
C1701 C 0.8051 0.1081 0.22758 0.0
C1702 C 0.79279 0.09789 0.22274 0.0
C1703 C 0.78776 0.08606 0.23066 0.0
H1704 H 0.92862 0.85193 0.22799 0.0
H1705 H 0.90238 0.80999 0.23244 0.0
H1706 H 0.95049 0.84301 0.23586 0.0
H1707 H 0.9243 0.80081 0.23958 0.0
H1708 H 0.96226 0.79226 0.26586 0.0
H1709 H 0.94064 0.80222 0.25903 0.0
H1710 H 0.96822 0.82743 0.22835 0.0
H1711 H 0.98995 0.81788 0.23581 0.0
C1712 C 0.92756 0.84076 0.23054 0.0
C1713 C 0.91377 0.83168 0.22966 0.0
C1714 C 0.94013 0.8356 0.23496 0.0
C1715 C 0.93923 0.82117 0.23839 0.0
C1716 C 0.92541 0.81208 0.23735 0.0
C1717 C 0.91282 0.81731 0.23316 0.0
C1718 C 0.96365 0.79993 0.25765 0.0
C1719 C 0.97771 0.80426 0.25128 0.0
C1720 C 0.95125 0.80559 0.25366 0.0
C1721 C 0.95259 0.81556 0.24301 0.0
C1722 C 0.96675 0.81995 0.23673 0.0
C1723 C 0.97921 0.81444 0.24092 0.0
H1724 H 0.22496 0.87657 0.20306 0.0
H1725 H 0.26619 0.86231 0.21246 0.0
H1726 H 0.23579 0.90177 0.2098 0.0
H1727 H 0.27735 0.88776 0.21862 0.0
H1728 H 0.28419 0.93266 0.24789 0.0
H1729 H 0.27623 0.90725 0.23794 0.0
H1730 H 0.25262 0.92169 0.2034 0.0
H1731 H 0.26009 0.94704 0.21386 0.0
C1732 C 0.23646 0.87883 0.2063 0.0
C1733 C 0.24468 0.8674 0.2073 0.0
C1734 C 0.24274 0.89336 0.21007 0.0
C1735 C 0.25748 0.89688 0.21478 0.0
C1736 C 0.26589 0.88546 0.21529 0.0
C1737 C 0.25953 0.87087 0.21166 0.0
C1738 C 0.27745 0.93034 0.23805 0.0
C1739 C 0.27262 0.94175 0.2317 0.0
C1740 C 0.27293 0.91579 0.23229 0.0
C1741 C 0.26364 0.91235 0.21991 0.0
C1742 C 0.25945 0.92388 0.21315 0.0
C1743 C 0.26378 0.9384 0.21907 0.0
H1744 H 0.1612 0.856 0.78419 0.0
H1745 H 0.13964 0.85954 0.82789 0.0
H1746 H 0.13793 0.84358 0.77339 0.0
H1747 H 0.11659 0.84677 0.81722 0.0
H1748 H 0.07388 0.83404 0.79229 0.0
H1749 H 0.09676 0.8487 0.80163 0.0
H1750 H 0.12238 0.82033 0.77297 0.0
H1751 H 0.09944 0.80588 0.76343 0.0
C1752 C 0.15149 0.85417 0.79149 0.0
C1753 C 0.15229 0.85873 0.80691 0.0
C1754 C 0.13818 0.84696 0.78531 0.0
C1755 C 0.12539 0.8441 0.79444 0.0
C1756 C 0.12615 0.84895 0.80981 0.0
C1757 C 0.13941 0.85623 0.81596 0.0
C1758 C 0.08441 0.83094 0.78803 0.0
C1759 C 0.08489 0.81878 0.7772 0.0
C1760 C 0.09753 0.83933 0.79338 0.0
C1761 C 0.11144 0.83568 0.7881 0.0
C1762 C 0.11188 0.82361 0.77711 0.0
C1763 C 0.09875 0.81528 0.77168 0.0
H1764 H 0.19367 0.14192 0.83613 0.0
H1765 H 0.23273 0.16427 0.81529 0.0
H1766 H 0.20029 0.11846 0.82491 0.0
H1767 H 0.2395 0.14082 0.80433 0.0
H1768 H 0.24089 0.09687 0.77644 0.0
H1769 H 0.2321 0.11989 0.78587 0.0
H1770 H 0.21915 0.10326 0.82784 0.0
H1771 H 0.2274 0.08009 0.81822 0.0
C1772 C 0.20366 0.14183 0.82913 0.0
C1773 C 0.2127 0.15496 0.82664 0.0
C1774 C 0.20749 0.12838 0.82277 0.0
C1775 C 0.22045 0.12775 0.81376 0.0
C1776 C 0.22934 0.14091 0.81106 0.0
C1777 C 0.22551 0.15436 0.81742 0.0
C1778 C 0.23595 0.09806 0.78759 0.0
C1779 C 0.23488 0.08666 0.7966 0.0
C1780 C 0.23107 0.1113 0.79306 0.0
C1781 C 0.22498 0.11344 0.80763 0.0
C1782 C 0.22365 0.10194 0.81652 0.0
C1783 C 0.22854 0.08871 0.81106 0.0
H1784 H 0.88998 0.29391 0.80612 0.0
H1785 H 0.88581 0.24682 0.80272 0.0
H1786 H 0.9169 0.29544 0.80391 0.0
H1787 H 0.91277 0.24836 0.80098 0.0
H1788 H 0.96496 0.29454 0.81365 0.0
H1789 H 0.93808 0.29214 0.81716 0.0
H1790 H 0.93326 0.25408 0.78406 0.0
H1791 H 0.96017 0.25604 0.78113 0.0
C1792 C 0.89481 0.28389 0.80502 0.0
C1793 C 0.88575 0.27025 0.80456 0.0
C1794 C 0.91027 0.28476 0.80385 0.0
C1795 C 0.91703 0.27202 0.8023 0.0
C1796 C 0.90794 0.25838 0.80195 0.0
C1797 C 0.89248 0.2575 0.80302 0.0
C1798 C 0.95818 0.28548 0.80734 0.0
C1799 C 0.96474 0.27546 0.79713 0.0
C1800 C 0.94275 0.28423 0.80919 0.0
C1801 C 0.93348 0.27297 0.80082 0.0
C1802 C 0.94004 0.2628 0.7908 0.0
C1803 C 0.95548 0.26402 0.78899 0.0
H1804 H 0.82087 0.89099 0.82627 0.0
H1805 H 0.86324 0.91764 0.83557 0.0
H1806 H 0.81187 0.91168 0.81733 0.0
H1807 H 0.85423 0.9383 0.82653 0.0
H1808 H 0.83688 0.96531 0.79269 0.0
H1809 H 0.84624 0.94503 0.80196 0.0
H1810 H 0.80595 0.93664 0.8285 0.0
H1811 H 0.79674 0.95721 0.81972 0.0
C1812 C 0.82828 0.90125 0.82638 0.0
C1813 C 0.84277 0.90267 0.83165 0.0
C1814 C 0.82309 0.91311 0.82133 0.0
C1815 C 0.83234 0.92661 0.82125 0.0
C1816 C 0.84689 0.928 0.82636 0.0
C1817 C 0.85201 0.91619 0.8316 0.0
C1818 C 0.83008 0.95933 0.80069 0.0
C1819 C 0.81601 0.96297 0.80541 0.0
C1820 C 0.83545 0.94765 0.80594 0.0
C1821 C 0.8268 0.93921 0.8159 0.0
C1822 C 0.81277 0.94283 0.82066 0.0
C1823 C 0.80748 0.95461 0.81557 0.0
H1824 H 0.24473 0.14501 0.22566 0.0
H1825 H 0.20634 0.11418 0.21129 0.0
H1826 H 0.25631 0.12525 0.23316 0.0
H1827 H 0.21752 0.09448 0.21947 0.0
H1828 H 0.24657 0.05966 0.22293 0.0
H1829 H 0.23587 0.07948 0.21431 0.0
H1830 H 0.25564 0.10925 0.25112 0.0
H1831 H 0.26683 0.0895 0.25924 0.0
C1832 C 0.23871 0.13401 0.22422 0.0
C1833 C 0.22462 0.13117 0.21786 0.0
C1834 C 0.24531 0.12265 0.22862 0.0
C1835 C 0.23789 0.10817 0.22701 0.0
C1836 C 0.22375 0.10539 0.22066 0.0
C1837 C 0.21726 0.11672 0.21605 0.0
C1838 C 0.24861 0.07047 0.22914 0.0
C1839 C 0.25755 0.07304 0.24173 0.0
C1840 C 0.24241 0.08185 0.22426 0.0
C1841 C 0.2448 0.09607 0.23201 0.0
C1842 C 0.25375 0.09858 0.24465 0.0
C1843 C 0.26013 0.08723 0.24938 0.0
H1844 H 0.24677 0.89142 0.8439 0.0
H1845 H 0.20151 0.90033 0.84607 0.0
H1846 H 0.25444 0.91295 0.83088 0.0
H1847 H 0.20907 0.92159 0.83283 0.0
H1848 H 0.2317 0.9679 0.82599 0.0
H1849 H 0.22442 0.94605 0.83851 0.0
H1850 H 0.25081 0.92185 0.80628 0.0
H1851 H 0.25827 0.94378 0.79387 0.0
C1852 C 0.23845 0.89789 0.84144 0.0
C1853 C 0.2235 0.89404 0.84574 0.0
C1854 C 0.24282 0.91015 0.83394 0.0
C1855 C 0.23235 0.91893 0.83082 0.0
C1856 C 0.2174 0.91506 0.83513 0.0
C1857 C 0.21302 0.90274 0.8425 0.0
C1858 C 0.23603 0.95794 0.82166 0.0
C1859 C 0.24553 0.95753 0.80895 0.0
C1860 C 0.23175 0.94541 0.82873 0.0
C1861 C 0.237 0.93224 0.82333 0.0
C1862 C 0.24665 0.93187 0.81073 0.0
C1863 C 0.25082 0.94437 0.80357 0.0
H1864 H 0.14058 0.20754 0.83727 0.0
H1865 H 0.16952 0.24861 0.83577 0.0
H1866 H 0.12137 0.21708 0.82509 0.0
H1867 H 0.15025 0.2582 0.82388 0.0
H1868 H 0.11673 0.26747 0.79202 0.0
H1869 H 0.13633 0.25592 0.80112 0.0
H1870 H 0.10481 0.23523 0.83198 0.0
H1871 H 0.08514 0.24634 0.82251 0.0
C1872 C 0.14288 0.21857 0.83427 0.0
C1873 C 0.15656 0.22734 0.83757 0.0
C1874 C 0.13184 0.22406 0.82737 0.0
C1875 C 0.13424 0.23843 0.8236 0.0
C1876 C 0.14808 0.24703 0.82649 0.0
C1877 C 0.15911 0.24155 0.83339 0.0
C1878 C 0.11395 0.26028 0.80059 0.0
C1879 C 0.09939 0.25785 0.80658 0.0
C1880 C 0.12521 0.25378 0.8059 0.0
C1881 C 0.12215 0.24468 0.8173 0.0
C1882 C 0.10752 0.24205 0.82308 0.0
C1883 C 0.09628 0.24856 0.81779 0.0
H1884 H 0.79075 0.17074 0.83454 0.0
H1885 H 0.83757 0.16948 0.82542 0.0
H1886 H 0.78573 0.14425 0.82852 0.0
H1887 H 0.8325 0.14303 0.81915 0.0
H1888 H 0.81943 0.09399 0.82069 0.0
H1889 H 0.82416 0.12008 0.82956 0.0
H1890 H 0.78611 0.12691 0.80592 0.0
H1891 H 0.78142 0.10092 0.79705 0.0
C1892 C 0.79998 0.16481 0.83132 0.0
C1893 C 0.81455 0.17224 0.83038 0.0
C1894 C 0.79709 0.14964 0.82779 0.0
C1895 C 0.8087 0.14154 0.82326 0.0
C1896 C 0.82332 0.14892 0.82274 0.0
C1897 C 0.82622 0.1641 0.82625 0.0
C1898 C 0.8121 0.10108 0.81737 0.0
C1899 C 0.80004 0.09537 0.80817 0.0
C1900 C 0.81481 0.11602 0.82245 0.0
C1901 C 0.8055 0.12557 0.81846 0.0
C1902 C 0.79334 0.11982 0.80942 0.0
C1903 C 0.79065 0.10491 0.80433 0.0
H1904 H 0.88106 0.81393 0.81877 0.0
H1905 H 0.90133 0.85861 0.81636 0.0
H1906 H 0.90147 0.80527 0.80345 0.0
H1907 H 0.9218 0.84987 0.80106 0.0
H1908 H 0.96405 0.82608 0.79512 0.0
H1909 H 0.94247 0.83611 0.80688 0.0
H1910 H 0.91359 0.80535 0.77748 0.0
H1911 H 0.93525 0.79529 0.76569 0.0
C1912 C 0.88978 0.82192 0.81484 0.0
C1913 C 0.8896 0.83697 0.81887 0.0
C1914 C 0.90143 0.81694 0.80599 0.0
C1915 C 0.91325 0.82689 0.80111 0.0
C1916 C 0.91288 0.84195 0.80477 0.0
C1917 C 0.90112 0.84695 0.81346 0.0
C1918 C 0.95309 0.82152 0.79112 0.0
C1919 C 0.9513 0.80986 0.77955 0.0
C1920 C 0.94076 0.82735 0.79776 0.0
C1921 C 0.92635 0.82151 0.7931 0.0
C1922 C 0.92457 0.81001 0.78134 0.0
C1923 C 0.93694 0.80432 0.77455 0.0
H1924 H 0.87031 0.91416 0.23014 0.0
H1925 H 0.82954 0.88726 0.24174 0.0
H1926 H 0.86044 0.93588 0.24194 0.0
H1927 H 0.8196 0.90896 0.25324 0.0
H1928 H 0.80854 0.94996 0.28092 0.0
H1929 H 0.82159 0.92901 0.2735 0.0
H1930 H 0.84124 0.94935 0.23542 0.0
H1931 H 0.82864 0.97045 0.24312 0.0
C1932 C 0.85931 0.91285 0.23534 0.0
C1933 C 0.85065 0.89899 0.23487 0.0
C1934 C 0.85363 0.92531 0.24202 0.0
C1935 C 0.83918 0.92417 0.24839 0.0
C1936 C 0.83081 0.91022 0.24855 0.0
C1937 C 0.83649 0.89777 0.24187 0.0
C1938 C 0.81586 0.95006 0.27112 0.0
C1939 C 0.81749 0.96182 0.26256 0.0
C1940 C 0.82323 0.938 0.2668 0.0
C1941 C 0.83241 0.93748 0.25384 0.0
C1942 C 0.83438 0.94946 0.24555 0.0
C1943 C 0.82701 0.96148 0.24985 0.0
H1944 H 0.18767 0.78864 0.22204 0.0
H1945 H 0.18292 0.83264 0.24127 0.0
H1946 H 0.16268 0.77999 0.23136 0.0
H1947 H 0.15798 0.82412 0.25017 0.0
H1948 H 0.11899 0.80339 0.27605 0.0
H1949 H 0.14484 0.80992 0.26823 0.0
H1950 H 0.13692 0.78152 0.22681 0.0
H1951 H 0.11108 0.77479 0.23482 0.0
C1952 C 0.18131 0.79645 0.22825 0.0
C1953 C 0.18729 0.81132 0.23093 0.0
C1954 C 0.16697 0.79151 0.23352 0.0
C1955 C 0.15833 0.80135 0.24155 0.0
C1956 C 0.1644 0.81619 0.24427 0.0
C1957 C 0.17869 0.8211 0.23906 0.0
C1958 C 0.12279 0.79855 0.26528 0.0
C1959 C 0.113 0.7887 0.25598 0.0
C1960 C 0.13759 0.80229 0.26078 0.0
C1961 C 0.14292 0.79636 0.24682 0.0
C1962 C 0.13322 0.78618 0.2377 0.0
C1963 C 0.11841 0.78235 0.24225 0.0
H1964 H 0.89926 0.1879 0.1809 0.0
H1965 H 0.87779 0.22657 0.18986 0.0
H1966 H 0.9216 0.20126 0.19262 0.0
H1967 H 0.90026 0.23991 0.2017 0.0
H1968 H 0.949 0.26148 0.21092 0.0
H1969 H 0.92737 0.24927 0.19674 0.0
H1970 H 0.92726 0.21089 0.21904 0.0
H1971 H 0.94889 0.22294 0.23297 0.0
C1972 C 0.89934 0.19929 0.18523 0.0
C1973 C 0.88667 0.20612 0.18456 0.0
C1974 C 0.91213 0.20692 0.19202 0.0
C1975 C 0.9126 0.22156 0.19824 0.0
C1976 C 0.90021 0.22863 0.19696 0.0
C1977 C 0.88734 0.22097 0.19022 0.0
C1978 C 0.94436 0.25041 0.21271 0.0
C1979 C 0.95061 0.24317 0.22307 0.0
C1980 C 0.93195 0.24348 0.20468 0.0
C1981 C 0.92569 0.22911 0.20672 0.0
C1982 C 0.93196 0.2219 0.21708 0.0
C1983 C 0.94424 0.22886 0.22519 0.0
H1984 H 0.22403 0.66712 0.65501 0.0
H1985 H 0.22358 0.71218 0.67336 0.0
H1986 H 0.23903 0.67521 0.63357 0.0
H1987 H 0.23867 0.72019 0.65205 0.0
H1988 H 0.27629 0.72855 0.61708 0.0
H1989 H 0.26457 0.71898 0.63953 0.0
H1990 H 0.23302 0.68912 0.61215 0.0
H1991 H 0.24466 0.69875 0.58976 0.0
C1992 C 0.22731 0.67872 0.65459 0.0
C1993 C 0.22255 0.68901 0.66585 0.0
C1994 C 0.23583 0.68334 0.64229 0.0
C1995 C 0.23998 0.69832 0.64115 0.0
C1996 C 0.23573 0.70858 0.6527 0.0
C1997 C 0.22702 0.70398 0.66485 0.0
C1998 C 0.26697 0.71982 0.61588 0.0
C1999 C 0.26133 0.71441 0.60172 0.0
C2000 C 0.26023 0.71441 0.62871 0.0
C2001 C 0.2479 0.70331 0.62756 0.0
C2002 C 0.24259 0.69758 0.61335 0.0
C2003 C 0.24917 0.70315 0.60056 0.0
H2004 H 0.81632 0.68398 0.62388 0.0
H2005 H 0.81686 0.72829 0.6451 0.0
H2006 H 0.81089 0.6917 0.60001 0.0
H2007 H 0.81168 0.73597 0.62123 0.0
H2008 H 0.81968 0.74573 0.5723 0.0
H2009 H 0.82573 0.73715 0.59538 0.0
H2010 H 0.78864 0.70241 0.58996 0.0
H2011 H 0.78205 0.71131 0.56724 0.0
C2012 C 0.81533 0.69535 0.62344 0.0
C2013 C 0.817 0.70553 0.63636 0.0
C2014 C 0.81218 0.69974 0.60981 0.0
C2015 C 0.81093 0.71442 0.60881 0.0
C2016 C 0.81272 0.72461 0.62169 0.0
C2017 C 0.8156 0.72018 0.63535 0.0
C2018 C 0.81269 0.73635 0.57605 0.0
C2019 C 0.80027 0.72932 0.5679 0.0
C2020 C 0.81623 0.7314 0.58923 0.0
C2021 C 0.80761 0.71917 0.59444 0.0
C2022 C 0.79553 0.71181 0.5861 0.0
C2023 C 0.79182 0.71689 0.57303 0.0
H2024 H 0.85754 0.30073 0.67858 0.0
H2025 H 0.85357 0.34061 0.66027 0.0
H2026 H 0.85114 0.28667 0.65444 0.0
H2027 H 0.84679 0.32662 0.63647 0.0
H2028 H 0.84501 0.30012 0.59184 0.0
H2029 H 0.85568 0.31234 0.61519 0.0
H2030 H 0.82964 0.27948 0.63914 0.0
H2031 H 0.8193 0.26707 0.61564 0.0
C2032 C 0.85538 0.3065 0.66941 0.0
C2033 C 0.85604 0.3218 0.67138 0.0
C2034 C 0.85162 0.29844 0.6556 0.0
C2035 C 0.84843 0.30549 0.6435 0.0
C2036 C 0.84942 0.32081 0.64544 0.0
C2037 C 0.85322 0.32885 0.65916 0.0
C2038 C 0.84168 0.29547 0.6021 0.0
C2039 C 0.83123 0.28274 0.60197 0.0
C2040 C 0.84775 0.30248 0.61549 0.0
C2041 C 0.84338 0.29702 0.6291 0.0
C2042 C 0.83337 0.28392 0.62887 0.0
C2043 C 0.8274 0.27683 0.61543 0.0
H2044 H 0.26916 0.29024 0.66843 0.0
H2045 H 0.30637 0.32225 0.65801 0.0
H2046 H 0.26529 0.28292 0.64184 0.0
H2047 H 0.30211 0.31552 0.63151 0.0
H2048 H 0.3007 0.29111 0.58514 0.0
H2049 H 0.30452 0.29713 0.61185 0.0
H2050 H 0.25693 0.29012 0.62001 0.0
H2051 H 0.25331 0.28341 0.59322 0.0
C2052 C 0.27643 0.29579 0.66044 0.0
C2053 C 0.28811 0.30676 0.6653 0.0
C2054 C 0.27416 0.29167 0.64519 0.0
C2055 C 0.28339 0.29858 0.63444 0.0
C2056 C 0.29497 0.30969 0.63939 0.0
C2057 C 0.29737 0.31364 0.65462 0.0
C2058 C 0.29109 0.29091 0.5927 0.0
C2059 C 0.27672 0.28696 0.58719 0.0
C2060 C 0.29324 0.29442 0.608 0.0
C2061 C 0.28103 0.29429 0.61816 0.0
C2062 C 0.26662 0.29018 0.61258 0.0
C2063 C 0.2645 0.28643 0.59725 0.0
H2064 H 0.23838 0.3146 0.37678 0.0
H2065 H 0.20063 0.32649 0.40379 0.0
H2066 H 0.24828 0.30632 0.39838 0.0
H2067 H 0.21056 0.31819 0.42537 0.0
H2068 H 0.22487 0.28501 0.45417 0.0
H2069 H 0.21508 0.29413 0.43297 0.0
H2070 H 0.25859 0.3172 0.4235 0.0
H2071 H 0.26841 0.30798 0.44465 0.0
C2072 C 0.2322 0.31546 0.38732 0.0
C2073 C 0.21871 0.32118 0.38857 0.0
C2074 C 0.23792 0.3108 0.3997 0.0
C2075 C 0.23018 0.31162 0.41355 0.0
C2076 C 0.21669 0.31732 0.4148 0.0
C2077 C 0.21105 0.32213 0.40246 0.0
C2078 C 0.23233 0.29203 0.44755 0.0
C2079 C 0.24739 0.2958 0.45104 0.0
C2080 C 0.22671 0.29733 0.43549 0.0
C2081 C 0.23608 0.30636 0.42659 0.0
C2082 C 0.25114 0.31017 0.43012 0.0
C2083 C 0.25673 0.30501 0.44228 0.0
H2084 H 0.23379 0.69452 0.38985 0.0
H2085 H 0.1937 0.69694 0.41704 0.0
H2086 H 0.24862 0.70144 0.41218 0.0
H2087 H 0.20846 0.70418 0.43916 0.0
H2088 H 0.23738 0.70378 0.47807 0.0
H2089 H 0.22389 0.69477 0.45529 0.0
H2090 H 0.25574 0.72245 0.4305 0.0
H2091 H 0.26937 0.73127 0.45333 0.0
C2092 C 0.22815 0.69654 0.40057 0.0
C2093 C 0.21256 0.69516 0.40165 0.0
C2094 C 0.23665 0.70057 0.41335 0.0
C2095 C 0.22974 0.70333 0.42747 0.0
C2096 C 0.21415 0.70188 0.42852 0.0
C2097 C 0.20567 0.69782 0.41579 0.0
C2098 C 0.24149 0.70792 0.46775 0.0
C2099 C 0.25435 0.71831 0.46749 0.0
C2100 C 0.23376 0.70279 0.4547 0.0
C2101 C 0.23864 0.70799 0.44109 0.0
C2102 C 0.25175 0.7181 0.44076 0.0
C2103 C 0.25955 0.72318 0.45382 0.0
H2104 H 0.83761 0.73705 0.3572 0.0
H2105 H 0.80217 0.76253 0.35458 0.0
H2106 H 0.82994 0.73366 0.38304 0.0
H2107 H 0.79445 0.75908 0.38037 0.0
H2108 H 0.77752 0.73854 0.42283 0.0
H2109 H 0.78424 0.73789 0.39617 0.0
H2110 H 0.83013 0.7525 0.40708 0.0
H2111 H 0.82339 0.75332 0.43372 0.0
C2112 C 0.82797 0.74161 0.36203 0.0
C2113 C 0.82035 0.7499 0.35387 0.0
C2114 C 0.82369 0.7398 0.37684 0.0
C2115 C 0.81158 0.74607 0.38363 0.0
C2116 C 0.80372 0.75401 0.37533 0.0
C2117 C 0.80817 0.75604 0.36063 0.0
C2118 C 0.78907 0.74138 0.41948 0.0
C2119 C 0.79996 0.74598 0.43026 0.0
C2120 C 0.79288 0.74109 0.40428 0.0
C2121 C 0.80769 0.74515 0.39962 0.0
C2122 C 0.81866 0.74921 0.4104 0.0
C2123 C 0.81481 0.74975 0.4256 0.0
H2124 H 0.84465 0.29774 0.39283 0.0
H2125 H 0.83805 0.34033 0.41483 0.0
H2126 H 0.83575 0.28685 0.41526 0.0
H2127 H 0.82933 0.32938 0.43748 0.0
H2128 H 0.80092 0.30129 0.4702 0.0
H2129 H 0.80889 0.31279 0.44774 0.0
H2130 H 0.84442 0.28657 0.44022 0.0
H2131 H 0.8365 0.27513 0.46263 0.0
C2132 C 0.84128 0.3048 0.40246 0.0
C2133 C 0.84213 0.31993 0.40204 0.0
C2134 C 0.83627 0.29855 0.41537 0.0
C2135 C 0.83196 0.30725 0.42823 0.0
C2136 C 0.83247 0.32235 0.42773 0.0
C2137 C 0.83752 0.32863 0.41478 0.0
C2138 C 0.81052 0.29808 0.46382 0.0
C2139 C 0.81803 0.28722 0.46819 0.0
C2140 C 0.81508 0.30468 0.45095 0.0
C2141 C 0.82723 0.30055 0.44212 0.0
C2142 C 0.83483 0.28981 0.44659 0.0
C2143 C 0.83028 0.28323 0.45945 0.0
H2144 H 0.13629 0.70815 0.684 0.0
H2145 H 0.14608 0.70661 0.7301 0.0
H2146 H 0.11458 0.71976 0.69198 0.0
H2147 H 0.12442 0.71854 0.73811 0.0
H2148 H 0.07593 0.72749 0.7458 0.0
H2149 H 0.0973 0.71496 0.73837 0.0
H2150 H 0.10911 0.74314 0.70387 0.0
H2151 H 0.08779 0.75561 0.71126 0.0
C2152 C 0.13382 0.71028 0.69586 0.0
C2153 C 0.14298 0.70649 0.70641 0.0
C2154 C 0.1214 0.71704 0.70044 0.0
C2155 C 0.11781 0.72022 0.71569 0.0
C2156 C 0.12679 0.71615 0.72627 0.0
C2157 C 0.13925 0.70937 0.72167 0.0
C2158 C 0.08317 0.73109 0.73671 0.0
C2159 C 0.0801 0.74252 0.72908 0.0
C2160 C 0.09542 0.7239 0.73245 0.0
C2161 C 0.10489 0.72798 0.72047 0.0
C2162 C 0.10189 0.73951 0.71295 0.0
C2163 C 0.08966 0.74667 0.7172 0.0
H2164 H 0.81893 0.65377 0.72462 0.0
H2165 H 0.80831 0.62958 0.68147 0.0
H2166 H 0.80698 0.63311 0.73679 0.0
H2167 H 0.79593 0.60894 0.69372 0.0
H2168 H 0.79503 0.56961 0.72064 0.0
H2169 H 0.80336 0.59066 0.7073 0.0
H2170 H 0.78385 0.61854 0.7423 0.0
H2171 H 0.77574 0.59748 0.75574 0.0
C2172 C 0.81384 0.64412 0.71772 0.0
C2173 C 0.81469 0.64329 0.70207 0.0
C2174 C 0.80688 0.63227 0.72472 0.0
C2175 C 0.80054 0.61932 0.71624 0.0
C2176 C 0.80091 0.61868 0.70057 0.0
C2177 C 0.80792 0.63053 0.69356 0.0
C2178 C 0.79234 0.58021 0.72537 0.0
C2179 C 0.78483 0.58192 0.73928 0.0
C2180 C 0.79707 0.59227 0.7177 0.0
C2181 C 0.79433 0.60632 0.72375 0.0
C2182 C 0.78639 0.60793 0.73745 0.0
C2183 C 0.78173 0.59587 0.74515 0.0
H2184 H 0.9 0.31169 0.74549 0.0
H2185 H 0.91877 0.3528 0.73017 0.0
H2186 H 0.92441 0.30843 0.75321 0.0
H2187 H 0.94316 0.34975 0.73828 0.0
H2188 H 0.98702 0.33119 0.7394 0.0
H2189 H 0.96268 0.33506 0.73188 0.0
H2190 H 0.94264 0.31791 0.77157 0.0
H2191 H 0.96681 0.31338 0.77867 0.0
C2192 C 0.90932 0.32009 0.74387 0.0
C2193 C 0.90744 0.3325 0.7372 0.0
C2194 C 0.92332 0.31827 0.74838 0.0
C2195 C 0.93577 0.32884 0.7464 0.0
C2196 C 0.93386 0.34129 0.73979 0.0
C2197 C 0.91986 0.34309 0.73522 0.0
C2198 C 0.9774 0.32819 0.74647 0.0
C2199 C 0.97888 0.32201 0.75964 0.0
C2200 C 0.96346 0.33056 0.74225 0.0
C2201 C 0.95068 0.32679 0.75111 0.0
C2202 C 0.95221 0.32078 0.76438 0.0
C2203 C 0.96612 0.31838 0.76857 0.0
H2204 H 0.29257 0.37136 0.71317 0.0
H2205 H 0.2536 0.35734 0.73969 0.0
H2206 H 0.28856 0.39659 0.71936 0.0
H2207 H 0.24885 0.3825 0.74494 0.0
H2208 H 0.25668 0.43061 0.76643 0.0
H2209 H 0.25808 0.40472 0.75924 0.0
H2210 H 0.27368 0.41401 0.71498 0.0
H2211 H 0.27285 0.43996 0.7225 0.0
C2212 C 0.28296 0.37362 0.72011 0.0
C2213 C 0.27321 0.36223 0.72563 0.0
C2214 C 0.28054 0.38812 0.72352 0.0
C2215 C 0.26825 0.39165 0.7325 0.0
C2216 C 0.25845 0.38023 0.73801 0.0
C2217 C 0.26098 0.36571 0.73472 0.0
C2218 C 0.26019 0.42703 0.75511 0.0
C2219 C 0.26471 0.43724 0.74502 0.0
C2220 C 0.26096 0.41219 0.75095 0.0
C2221 C 0.26612 0.40722 0.73654 0.0
C2222 C 0.26999 0.41744 0.72627 0.0
C2223 C 0.26943 0.4323 0.73051 0.0
H2224 H 0.14105 0.3249 0.35761 0.0
H2225 H 0.16048 0.33459 0.31476 0.0
H2226 H 0.11802 0.31351 0.34549 0.0
H2227 H 0.13764 0.32306 0.3027 0.0
H2228 H 0.08935 0.31884 0.28949 0.0
H2229 H 0.11244 0.32886 0.30192 0.0
H2230 H 0.10729 0.29243 0.32787 0.0
H2231 H 0.08413 0.28232 0.31534 0.0
C2232 C 0.14046 0.32447 0.34561 0.0
C2233 C 0.15255 0.33075 0.33717 0.0
C2234 C 0.12729 0.3179 0.33866 0.0
C2235 C 0.12596 0.31751 0.32316 0.0
C2236 C 0.13821 0.32343 0.3147 0.0
C2237 C 0.15134 0.32997 0.32162 0.0
C2238 C 0.0932 0.31287 0.29774 0.0
C2239 C 0.08494 0.29973 0.30135 0.0
C2240 C 0.10644 0.31862 0.30486 0.0
C2241 C 0.11175 0.31138 0.3158 0.0
C2242 C 0.10342 0.29833 0.31958 0.0
C2243 C 0.09016 0.29255 0.31242 0.0
H2244 H 0.21457 0.64908 0.31086 0.0
H2245 H 0.20164 0.63022 0.35162 0.0
H2246 H 0.22272 0.62625 0.29986 0.0
H2247 H 0.21066 0.60775 0.34114 0.0
H2248 H 0.21818 0.56474 0.3161 0.0
H2249 H 0.2071 0.5867 0.32469 0.0
H2250 H 0.24142 0.61219 0.30021 0.0
H2251 H 0.2517 0.58997 0.2909 0.0
C2252 C 0.21357 0.64005 0.31749 0.0
C2253 C 0.20747 0.6414 0.33207 0.0
C2254 C 0.21835 0.62697 0.31124 0.0
C2255 C 0.21747 0.61505 0.31958 0.0
C2256 C 0.21127 0.61648 0.33419 0.0
C2257 C 0.20618 0.62943 0.34028 0.0
C2258 C 0.22316 0.57507 0.31247 0.0
C2259 C 0.23571 0.57576 0.30286 0.0
C2260 C 0.21694 0.5877 0.31748 0.0
C2261 C 0.22339 0.60137 0.31331 0.0
C2262 C 0.23591 0.60191 0.3035 0.0
C2263 C 0.2419 0.58921 0.29821 0.0
H2264 H 0.88792 0.79128 0.31399 0.0
H2265 H 0.87901 0.74479 0.30003 0.0
H2266 H 0.9145 0.79014 0.31251 0.0
H2267 H 0.90561 0.74361 0.29884 0.0
H2268 H 0.95427 0.75152 0.28128 0.0
H2269 H 0.92751 0.75151 0.28379 0.0
H2270 H 0.93357 0.78071 0.32489 0.0
H2271 H 0.96037 0.78076 0.32233 0.0
C2272 C 0.89163 0.7808 0.31067 0.0
C2273 C 0.88135 0.76814 0.30709 0.0
C2274 C 0.90687 0.78013 0.30993 0.0
C2275 C 0.91218 0.76677 0.3056 0.0
C2276 C 0.90189 0.7541 0.30206 0.0
C2277 C 0.88664 0.75477 0.3028 0.0
C2278 C 0.94987 0.75772 0.29099 0.0
C2279 C 0.95943 0.76613 0.30161 0.0
C2280 C 0.93453 0.75774 0.29242 0.0
C2281 C 0.92841 0.76616 0.30451 0.0
C2282 C 0.93795 0.77431 0.31531 0.0
C2283 C 0.95329 0.7743 0.31387 0.0
H2284 H 0.86411 0.41846 0.33281 0.0
H2285 H 0.82192 0.39146 0.32352 0.0
H2286 H 0.8552 0.43872 0.32289 0.0
H2287 H 0.81302 0.41176 0.3137 0.0
H2288 H 0.79783 0.45733 0.31518 0.0
H2289 H 0.80692 0.43687 0.32432 0.0
H2290 H 0.84739 0.44489 0.29798 0.0
H2291 H 0.83816 0.46503 0.28833 0.0
C2292 C 0.85295 0.41683 0.32862 0.0
C2293 C 0.84372 0.40334 0.32896 0.0
C2294 C 0.84788 0.42842 0.32289 0.0
C2295 C 0.8334 0.42684 0.31756 0.0
C2296 C 0.82419 0.41334 0.31786 0.0
C2297 C 0.82932 0.40169 0.3234 0.0
C2298 C 0.80858 0.45466 0.31113 0.0
C2299 C 0.81721 0.46291 0.30095 0.0
C2300 C 0.8138 0.44294 0.31644 0.0
C2301 C 0.82786 0.43927 0.31186 0.0
C2302 C 0.83658 0.44756 0.30183 0.0
C2303 C 0.83129 0.45917 0.29636 0.0
H2304 H 0.20646 0.60995 0.69914 0.0
H2305 H 0.22049 0.63951 0.73834 0.0
H2306 H 0.21684 0.59052 0.70884 0.0
H2307 H 0.23038 0.61995 0.74834 0.0
H2308 H 0.25983 0.58625 0.75542 0.0
H2309 H 0.24989 0.60563 0.74526 0.0
H2310 H 0.21321 0.57435 0.72731 0.0
H2311 H 0.22367 0.55481 0.73663 0.0
C2312 C 0.21167 0.61228 0.70989 0.0
C2313 C 0.21266 0.6263 0.71795 0.0
C2314 C 0.21755 0.60109 0.71552 0.0
C2315 C 0.22446 0.60359 0.72942 0.0
C2316 C 0.22538 0.61763 0.73749 0.0
C2317 C 0.21961 0.62885 0.7318 0.0
C2318 C 0.24976 0.58344 0.74911 0.0
C2319 C 0.24262 0.56889 0.74681 0.0
C2320 C 0.24392 0.59463 0.74347 0.0
C2321 C 0.2307 0.59163 0.73545 0.0
C2322 C 0.22351 0.57709 0.73323 0.0
C2323 C 0.22941 0.56588 0.73879 0.0
H2324 H 0.21876 0.39857 0.36836 0.0
H2325 H 0.22886 0.37426 0.32609 0.0
H2326 H 0.23155 0.42097 0.35961 0.0
H2327 H 0.24098 0.39665 0.31707 0.0
H2328 H 0.26993 0.43764 0.30661 0.0
H2329 H 0.26116 0.4155 0.31817 0.0
H2330 H 0.22747 0.4374 0.34308 0.0
H2331 H 0.23673 0.45963 0.33196 0.0
C2332 C 0.22376 0.39801 0.35722 0.0
C2333 C 0.22274 0.38465 0.3479 0.0
C2334 C 0.231 0.41087 0.35214 0.0
C2335 C 0.23719 0.41071 0.33755 0.0
C2336 C 0.23656 0.39723 0.32844 0.0
C2337 C 0.22952 0.38436 0.33359 0.0
C2338 C 0.26071 0.43768 0.31465 0.0
C2339 C 0.25397 0.45029 0.31839 0.0
C2340 C 0.25563 0.425 0.32123 0.0
C2341 C 0.24352 0.42457 0.33153 0.0
C2342 C 0.23698 0.43734 0.33543 0.0
C2343 C 0.24221 0.45008 0.32901 0.0
H2344 H 0.15842 0.73494 0.35221 0.0
H2345 H 0.13494 0.69128 0.34118 0.0
H2346 H 0.13953 0.74487 0.34008 0.0
H2347 H 0.11589 0.70128 0.32922 0.0
H2348 H 0.09273 0.72418 0.29644 0.0
H2349 H 0.11202 0.71378 0.30757 0.0
H2350 H 0.11346 0.74792 0.34481 0.0
H2351 H 0.09416 0.75827 0.33375 0.0
C2352 C 0.14924 0.72745 0.34718 0.0
C2353 C 0.14816 0.71232 0.34772 0.0
C2354 C 0.13836 0.73315 0.3403 0.0
C2355 C 0.12615 0.72387 0.33379 0.0
C2356 C 0.12522 0.70871 0.33404 0.0
C2357 C 0.13611 0.70299 0.34095 0.0
C2358 C 0.09706 0.72938 0.30707 0.0
C2359 C 0.09193 0.74207 0.31419 0.0
C2360 C 0.10813 0.72343 0.31343 0.0
C2361 C 0.11431 0.73006 0.32703 0.0
C2362 C 0.10911 0.7427 0.33418 0.0
C2363 C 0.09805 0.74863 0.32785 0.0
H2364 H 0.82578 0.67054 0.33779 0.0
H2365 H 0.81377 0.67398 0.29275 0.0
H2366 H 0.82029 0.64392 0.33291 0.0
H2367 H 0.80857 0.64748 0.28783 0.0
H2368 H 0.7854 0.60113 0.28869 0.0
H2369 H 0.7904 0.62754 0.29499 0.0
H2370 H 0.82964 0.62304 0.31809 0.0
H2371 H 0.82431 0.59649 0.31224 0.0
C2372 C 0.82203 0.66563 0.32684 0.0
C2373 C 0.82017 0.67439 0.31567 0.0
C2374 C 0.81895 0.65038 0.32403 0.0
C2375 C 0.81392 0.64358 0.31001 0.0
C2376 C 0.81218 0.65236 0.29883 0.0
C2377 C 0.81526 0.66757 0.30163 0.0
C2378 C 0.79496 0.60574 0.29533 0.0
C2379 C 0.80443 0.5967 0.3 0.0
C2380 C 0.79793 0.6209 0.29877 0.0
C2381 C 0.81047 0.62741 0.30695 0.0
C2382 C 0.81983 0.61836 0.31186 0.0
C2383 C 0.81686 0.60317 0.30839 0.0
H2384 H 0.89363 0.34995 0.31057 0.0
H2385 H 0.89878 0.32605 0.34757 0.0
H2386 H 0.91296 0.33801 0.29637 0.0
H2387 H 0.91815 0.31454 0.33367 0.0
H2388 H 0.94196 0.28512 0.30118 0.0
H2389 H 0.92138 0.29666 0.31293 0.0
H2390 H 0.93952 0.33699 0.29561 0.0
H2391 H 0.96001 0.32526 0.28358 0.0
C2392 C 0.8989 0.34222 0.3157 0.0
C2393 C 0.89458 0.33892 0.33019 0.0
C2394 C 0.91001 0.33541 0.30758 0.0
C2395 C 0.91704 0.32519 0.31381 0.0
C2396 C 0.91278 0.32207 0.32836 0.0
C2397 C 0.9017 0.32879 0.3364 0.0
C2398 C 0.94154 0.29644 0.29986 0.0
C2399 C 0.95268 0.30432 0.29159 0.0
C2400 C 0.92976 0.30309 0.30662 0.0
C2401 C 0.92888 0.31784 0.30541 0.0
C2402 C 0.93977 0.32559 0.29669 0.0
C2403 C 0.95153 0.31889 0.28982 0.0
H2404 H 0.84587 0.39697 0.74314 0.0
H2405 H 0.82462 0.39834 0.70163 0.0
H2406 H 0.83371 0.41743 0.75473 0.0
H2407 H 0.81275 0.41883 0.71309 0.0
H2408 H 0.78154 0.4448 0.74191 0.0
H2409 H 0.79349 0.42385 0.73169 0.0
H2410 H 0.83401 0.44367 0.75363 0.0
H2411 H 0.82202 0.46464 0.7639 0.0
C2412 C 0.83866 0.40166 0.73648 0.0
C2413 C 0.83618 0.396 0.72148 0.0
C2414 C 0.83175 0.41341 0.7431 0.0
C2415 C 0.8222 0.4197 0.73485 0.0
C2416 C 0.81983 0.41408 0.71983 0.0
C2417 C 0.82673 0.40238 0.71323 0.0
C2418 C 0.79302 0.44472 0.7445 0.0
C2419 C 0.80086 0.45643 0.75363 0.0
C2420 C 0.79987 0.43272 0.73864 0.0
C2421 C 0.81474 0.43214 0.74176 0.0
C2422 C 0.8225 0.44371 0.75115 0.0
C2423 C 0.81563 0.45572 0.75702 0.0
H2424 H 0.19012 0.36012 0.74124 0.0
H2425 H 0.196 0.3151 0.74236 0.0
H2426 H 0.16415 0.35433 0.74925 0.0
H2427 H 0.17006 0.30933 0.75015 0.0
H2428 H 0.1275 0.30739 0.77876 0.0
H2429 H 0.15357 0.31433 0.77185 0.0
H2430 H 0.14077 0.34017 0.73945 0.0
H2431 H 0.1147 0.33357 0.74668 0.0
C2432 C 0.18588 0.349 0.74317 0.0
C2433 C 0.19514 0.33808 0.74116 0.0
C2434 C 0.17099 0.34567 0.74769 0.0
C2435 C 0.16506 0.33138 0.75036 0.0
C2436 C 0.17434 0.32049 0.74838 0.0
C2437 C 0.18919 0.32379 0.74382 0.0
C2438 C 0.13027 0.31471 0.7703 0.0
C2439 C 0.11904 0.31993 0.76326 0.0
C2440 C 0.14519 0.31855 0.76623 0.0
C2441 C 0.14923 0.32775 0.75506 0.0
C2442 C 0.13802 0.33316 0.74818 0.0
C2443 C 0.12309 0.32926 0.75221 0.0
H2444 H 0.8904 0.68855 0.68163 0.0
H2445 H 0.8698 0.72722 0.69497 0.0
H2446 H 0.91384 0.70134 0.69153 0.0
H2447 H 0.89338 0.74015 0.7045 0.0
H2448 H 0.93246 0.75234 0.73601 0.0
H2449 H 0.90925 0.7401 0.72506 0.0
H2450 H 0.93383 0.72051 0.68773 0.0
H2451 H 0.95705 0.73213 0.69906 0.0
C2452 C 0.89092 0.69985 0.68649 0.0
C2453 C 0.8782 0.70684 0.68756 0.0
C2454 C 0.90439 0.70721 0.69211 0.0
C2455 C 0.90549 0.72176 0.69888 0.0
C2456 C 0.89286 0.72887 0.6996 0.0
C2457 C 0.87936 0.72148 0.69403 0.0
C2458 C 0.93292 0.74529 0.72555 0.0
C2459 C 0.94663 0.74319 0.71845 0.0
C2460 C 0.9196 0.73844 0.71916 0.0
C2461 C 0.91966 0.72935 0.70548 0.0
C2462 C 0.93337 0.72732 0.69834 0.0
C2463 C 0.94669 0.73413 0.70476 0.0
H2464 H 0.74189 0.18883 0.66864 0.0
H2465 H 0.70189 0.19191 0.64604 0.0
H2466 H 0.75688 0.19843 0.64784 0.0
H2467 H 0.71683 0.20134 0.62535 0.0
H2468 H 0.74819 0.20282 0.58435 0.0
H2469 H 0.7346 0.19201 0.60517 0.0
H2470 H 0.76144 0.2228 0.63638 0.0
H2471 H 0.77511 0.23363 0.61549 0.0
C2472 C 0.7363 0.19147 0.65923 0.0
C2473 C 0.7207 0.18961 0.65901 0.0
C2474 C 0.74488 0.19703 0.64737 0.0
C2475 C 0.73801 0.20059 0.63497 0.0
C2476 C 0.72243 0.19856 0.63469 0.0
C2477 C 0.71388 0.19322 0.64659 0.0
C2478 C 0.75131 0.20717 0.59565 0.0
C2479 C 0.7627 0.21907 0.5983 0.0
C2480 C 0.74346 0.20105 0.60756 0.0
C2481 C 0.74695 0.20659 0.62239 0.0
C2482 C 0.75859 0.21826 0.62506 0.0
C2483 C 0.76632 0.22452 0.61313 0.0
H2484 H 0.31437 0.18795 0.62662 0.0
H2485 H 0.31955 0.2323 0.64842 0.0
H2486 H 0.30981 0.19659 0.60313 0.0
H2487 H 0.31597 0.24113 0.62483 0.0
H2488 H 0.29463 0.25202 0.58432 0.0
H2489 H 0.29861 0.24298 0.60773 0.0
H2490 H 0.32019 0.2085 0.58332 0.0
H2491 H 0.31527 0.21717 0.55987 0.0
C2492 C 0.3147 0.19958 0.62632 0.0
C2493 C 0.31724 0.20945 0.63935 0.0
C2494 C 0.3122 0.20458 0.61282 0.0
C2495 C 0.3125 0.21961 0.61195 0.0
C2496 C 0.31528 0.22946 0.62503 0.0
C2497 C 0.31745 0.22442 0.63858 0.0
C2498 C 0.30024 0.24252 0.58404 0.0
C2499 C 0.3047 0.23529 0.57037 0.0
C2500 C 0.30263 0.23736 0.59746 0.0
C2501 C 0.30983 0.225 0.59755 0.0
C2502 C 0.31438 0.21787 0.58377 0.0
C2503 C 0.31169 0.22287 0.57031 0.0
H2504 H 0.33367 0.8251 0.67596 0.0
H2505 H 0.37815 0.82115 0.6587 0.0
H2506 H 0.32347 0.80858 0.6547 0.0
H2507 H 0.3679 0.80429 0.63757 0.0
H2508 H 0.34343 0.79247 0.59298 0.0
H2509 H 0.35472 0.80611 0.61541 0.0
H2510 H 0.32055 0.78376 0.64259 0.0
H2511 H 0.30917 0.7702 0.62006 0.0
C2512 C 0.34129 0.82054 0.66774 0.0
C2513 C 0.35674 0.82455 0.66898 0.0
C2514 C 0.33543 0.81098 0.65558 0.0
C2515 C 0.34486 0.80516 0.64438 0.0
C2516 C 0.36032 0.80877 0.64588 0.0
C2517 C 0.3662 0.81837 0.65804 0.0
C2518 C 0.33846 0.79031 0.60375 0.0
C2519 C 0.32538 0.7803 0.60475 0.0
C2520 C 0.34495 0.7981 0.61662 0.0
C2521 C 0.33854 0.79604 0.63081 0.0
C2522 C 0.32564 0.78577 0.63182 0.0
C2523 C 0.31912 0.778 0.61893 0.0
H2524 H 0.76105 0.80066 0.66236 0.0
H2525 H 0.7176 0.80903 0.65165 0.0
H2526 H 0.76558 0.79174 0.63622 0.0
H2527 H 0.72221 0.80017 0.62547 0.0
H2528 H 0.73082 0.76931 0.58277 0.0
H2529 H 0.72584 0.77703 0.60923 0.0
H2530 H 0.76951 0.80256 0.61228 0.0
H2531 H 0.77457 0.79466 0.58598 0.0
C2532 C 0.75245 0.80056 0.65444 0.0
C2533 C 0.73898 0.80559 0.65907 0.0
C2534 C 0.75509 0.79552 0.63946 0.0
C2535 C 0.74427 0.7953 0.6288 0.0
C2536 C 0.7307 0.8001 0.63346 0.0
C2537 C 0.72811 0.80525 0.64843 0.0
C2538 C 0.73937 0.77649 0.58914 0.0
C2539 C 0.75306 0.78142 0.58231 0.0
C2540 C 0.73648 0.781 0.60423 0.0
C2541 C 0.74729 0.79039 0.61281 0.0
C2542 C 0.76102 0.79521 0.60599 0.0
C2543 C 0.76385 0.79081 0.5909 0.0
H2544 H 0.71717 0.84347 0.40544 0.0
H2545 H 0.71991 0.80409 0.37527 0.0
H2546 H 0.72792 0.83298 0.425 0.0
H2547 H 0.72988 0.79319 0.39503 0.0
H2548 H 0.75953 0.78177 0.42939 0.0
H2549 H 0.75039 0.79318 0.40946 0.0
H2550 H 0.72258 0.81582 0.44174 0.0
H2551 H 0.73239 0.80495 0.46165 0.0
C2552 C 0.71997 0.83251 0.40304 0.0
C2553 C 0.7177 0.8246 0.38884 0.0
C2554 C 0.72604 0.82642 0.4143 0.0
C2555 C 0.72973 0.81215 0.41171 0.0
C2556 C 0.72746 0.80428 0.39743 0.0
C2557 C 0.72164 0.81049 0.38609 0.0
C2558 C 0.75148 0.78922 0.43215 0.0
C2559 C 0.74667 0.79253 0.44701 0.0
C2560 C 0.74616 0.79571 0.42073 0.0
C2561 C 0.73569 0.80545 0.4239 0.0
C2562 C 0.73085 0.80865 0.43884 0.0
C2563 C 0.73639 0.80236 0.45027 0.0
H2564 H 0.73049 0.20267 0.39054 0.0
H2565 H 0.69139 0.19649 0.41937 0.0
H2566 H 0.74566 0.21124 0.41239 0.0
H2567 H 0.70657 0.20482 0.44113 0.0
H2568 H 0.73496 0.23694 0.47447 0.0
H2569 H 0.72036 0.22781 0.45242 0.0
H2570 H 0.75478 0.20274 0.43456 0.0
H2571 H 0.76963 0.21226 0.45646 0.0
C2572 C 0.72515 0.20303 0.40152 0.0
C2573 C 0.70971 0.19896 0.40319 0.0
C2574 C 0.73385 0.20788 0.41404 0.0
C2575 C 0.7273 0.20879 0.42848 0.0
C2576 C 0.71192 0.20447 0.43014 0.0
C2577 C 0.70323 0.1996 0.41765 0.0
C2578 C 0.73948 0.22959 0.46577 0.0
C2579 C 0.75346 0.22534 0.4672 0.0
C2580 C 0.73104 0.22423 0.45322 0.0
C2581 C 0.73638 0.2145 0.44177 0.0
C2582 C 0.7504 0.2103 0.44314 0.0
C2583 C 0.75884 0.21563 0.45574 0.0
H2584 H 0.32737 0.26845 0.35815 0.0
H2585 H 0.30604 0.22358 0.35179 0.0
H2586 H 0.32027 0.26996 0.3846 0.0
H2587 H 0.29917 0.225 0.37833 0.0
H2588 H 0.30485 0.23021 0.42996 0.0
H2589 H 0.31093 0.22774 0.40317 0.0
H2590 H 0.29747 0.26978 0.40031 0.0
H2591 H 0.29129 0.27221 0.42694 0.0
C2592 C 0.3212 0.25889 0.36241 0.0
C2593 C 0.31758 0.24579 0.35293 0.0
C2594 C 0.3171 0.25976 0.37755 0.0
C2595 C 0.30921 0.24757 0.38356 0.0
C2596 C 0.30549 0.23449 0.37408 0.0
C2597 C 0.30955 0.23363 0.35889 0.0
C2598 C 0.30303 0.23884 0.42356 0.0
C2599 C 0.29775 0.25148 0.43061 0.0
C2600 C 0.30652 0.23742 0.40823 0.0
C2601 C 0.30483 0.24864 0.39967 0.0
C2602 C 0.2992 0.2611 0.40666 0.0
C2603 C 0.29568 0.26249 0.42193 0.0
H2604 H 0.36442 0.815 0.41559 0.0
H2605 H 0.32071 0.82342 0.40585 0.0
H2606 H 0.3543 0.80401 0.43756 0.0
H2607 H 0.31058 0.81258 0.42816 0.0
H2608 H 0.29661 0.77596 0.45887 0.0
H2609 H 0.30568 0.78862 0.43741 0.0
H2610 H 0.34387 0.81029 0.4622 0.0
H2611 H 0.33484 0.79762 0.48357 0.0
C2612 C 0.35265 0.81462 0.41819 0.0
C2613 C 0.34338 0.82009 0.40893 0.0
C2614 C 0.34686 0.80838 0.43088 0.0
C2615 C 0.33163 0.80744 0.43468 0.0
C2616 C 0.32234 0.81301 0.42548 0.0
C2617 C 0.32816 0.8193 0.41275 0.0
C2618 C 0.30685 0.78356 0.45979 0.0
C2619 C 0.31506 0.78568 0.4729 0.0
C2620 C 0.31204 0.79084 0.44749 0.0
C2621 C 0.32556 0.80041 0.44803 0.0
C2622 C 0.33357 0.80278 0.46128 0.0
C2623 C 0.3284 0.7955 0.47354 0.0
H2624 H 0.64106 0.19146 0.72349 0.0
H2625 H 0.63261 0.20543 0.68124 0.0
H2626 H 0.61861 0.20058 0.73432 0.0
H2627 H 0.61048 0.21473 0.69208 0.0
H2628 H 0.56427 0.21795 0.71141 0.0
H2629 H 0.58569 0.2067 0.70135 0.0
H2630 H 0.60937 0.22385 0.74165 0.0
H2631 H 0.58789 0.23507 0.75173 0.0
C2632 C 0.63442 0.19644 0.71651 0.0
C2633 C 0.63864 0.19771 0.7015 0.0
C2634 C 0.6216 0.20174 0.72274 0.0
C2635 C 0.61272 0.20838 0.71407 0.0
C2636 C 0.61691 0.20949 0.69903 0.0
C2637 C 0.62969 0.20423 0.69283 0.0
C2638 C 0.57406 0.21936 0.71811 0.0
C2639 C 0.57439 0.22749 0.73234 0.0
C2640 C 0.58635 0.2129 0.71235 0.0
C2641 C 0.5993 0.21444 0.72065 0.0
C2642 C 0.59952 0.22229 0.73502 0.0
C2643 C 0.5872 0.22874 0.7408 0.0
H2644 H 0.28958 0.14774 0.69198 0.0
H2645 H 0.33156 0.13155 0.68301 0.0
H2646 H 0.28053 0.12679 0.70537 0.0
H2647 H 0.32246 0.11065 0.69629 0.0
H2648 H 0.30841 0.08753 0.73777 0.0
H2649 H 0.31639 0.10758 0.72293 0.0
H2650 H 0.27394 0.09946 0.70168 0.0
H2651 H 0.26584 0.0795 0.71675 0.0
C2652 C 0.29682 0.13965 0.69271 0.0
C2653 C 0.31133 0.14138 0.68652 0.0
C2654 C 0.2916 0.12763 0.70034 0.0
C2655 C 0.30084 0.11717 0.70201 0.0
C2656 C 0.31517 0.11867 0.6954 0.0
C2657 C 0.32034 0.1306 0.6877 0.0
C2658 C 0.30074 0.0901 0.73002 0.0
C2659 C 0.2865 0.08196 0.72844 0.0
C2660 C 0.30537 0.10147 0.72141 0.0
C2661 C 0.29582 0.10503 0.71108 0.0
C2662 C 0.28151 0.097 0.70959 0.0
C2663 C 0.27692 0.08552 0.71813 0.0
H2664 H 0.4399 0.84724 0.69845 0.0
H2665 H 0.41428 0.83836 0.73863 0.0
H2666 H 0.46055 0.83712 0.70751 0.0
H2667 H 0.43496 0.82827 0.74766 0.0
H2668 H 0.48112 0.82499 0.76476 0.0
H2669 H 0.46136 0.83663 0.75595 0.0
H2670 H 0.46503 0.81206 0.7124 0.0
H2671 H 0.48484 0.8005 0.72118 0.0
C2672 C 0.4387 0.8432 0.70924 0.0
C2673 C 0.42544 0.84357 0.71781 0.0
C2674 C 0.45049 0.83734 0.71438 0.0
C2675 C 0.44934 0.83189 0.72827 0.0
C2676 C 0.4362 0.83251 0.73696 0.0
C2677 C 0.42434 0.83822 0.73175 0.0
C2678 C 0.47779 0.8222 0.75327 0.0
C2679 C 0.48451 0.81186 0.74364 0.0
C2680 C 0.46641 0.82876 0.74828 0.0
C2681 C 0.46166 0.82524 0.7335 0.0
C2682 C 0.46855 0.81507 0.72381 0.0
C2683 C 0.4798 0.80839 0.72885 0.0
H2684 H 0.7525 0.87329 0.70124 0.0
H2685 H 0.76529 0.86848 0.74565 0.0
H2686 H 0.76094 0.89952 0.70575 0.0
H2687 H 0.7733 0.89468 0.7503 0.0
H2688 H 0.79524 0.94121 0.75212 0.0
H2689 H 0.79098 0.91499 0.74428 0.0
H2690 H 0.75234 0.92009 0.72052 0.0
H2691 H 0.75707 0.9464 0.72769 0.0
C2692 C 0.75722 0.8778 0.71192 0.0
C2693 C 0.75813 0.86879 0.72312 0.0
C2694 C 0.76196 0.89285 0.71454 0.0
C2695 C 0.76768 0.89924 0.72843 0.0
C2696 C 0.76912 0.89013 0.73941 0.0
C2697 C 0.76444 0.87509 0.73677 0.0
C2698 C 0.78603 0.93679 0.74494 0.0
C2699 C 0.77646 0.94592 0.74057 0.0
C2700 C 0.78348 0.92172 0.7406 0.0
C2701 C 0.77126 0.9154 0.73185 0.0
C2702 C 0.76195 0.92458 0.72713 0.0
C2703 C 0.76454 0.93966 0.73141 0.0
H2704 H 0.64137 0.83038 0.36333 0.0
H2705 H 0.65795 0.84182 0.32008 0.0
H2706 H 0.6192 0.81612 0.35173 0.0
H2707 H 0.6358 0.82785 0.30861 0.0
H2708 H 0.60074 0.79135 0.2902 0.0
H2709 H 0.62338 0.80287 0.30281 0.0
H2710 H 0.59704 0.82084 0.33963 0.0
H2711 H 0.5744 0.8093 0.32702 0.0
C2712 C 0.64031 0.82982 0.35136 0.0
C2713 C 0.65141 0.83726 0.34263 0.0
C2714 C 0.62759 0.82172 0.34473 0.0
C2715 C 0.62575 0.82085 0.32925 0.0
C2716 C 0.63697 0.82812 0.32053 0.0
C2717 C 0.64963 0.83622 0.32714 0.0
C2718 C 0.59979 0.79777 0.30098 0.0
C2719 C 0.58578 0.7995 0.30756 0.0
C2720 C 0.61275 0.80435 0.30821 0.0
C2721 C 0.61201 0.81284 0.32217 0.0
C2722 C 0.598 0.81422 0.32896 0.0
C2723 C 0.58503 0.80762 0.32173 0.0
H2724 H 0.71167 0.15377 0.31241 0.0
H2725 H 0.69953 0.1345 0.35308 0.0
H2726 H 0.72023 0.13122 0.30117 0.0
H2727 H 0.70894 0.11231 0.34235 0.0
H2728 H 0.71684 0.06962 0.31678 0.0
H2729 H 0.70551 0.09134 0.32574 0.0
H2730 H 0.73924 0.11746 0.3012 0.0
H2731 H 0.74978 0.09547 0.29155 0.0
C2732 C 0.71094 0.14472 0.31897 0.0
C2733 C 0.70493 0.14587 0.3336 0.0
C2734 C 0.71595 0.13179 0.31259 0.0
C2735 C 0.71538 0.11983 0.32082 0.0
C2736 C 0.7093 0.12107 0.33548 0.0
C2737 C 0.70399 0.13387 0.34172 0.0
C2738 C 0.72164 0.08003 0.31322 0.0
C2739 C 0.7341 0.08096 0.3035 0.0
C2740 C 0.71528 0.09253 0.31845 0.0
C2741 C 0.72149 0.10631 0.31436 0.0
C2742 C 0.73392 0.10709 0.30443 0.0
C2743 C 0.74005 0.09452 0.29895 0.0
H2744 H 0.38238 0.27463 0.28736 0.0
H2745 H 0.38043 0.23899 0.31397 0.0
H2746 H 0.40929 0.27627 0.28527 0.0
H2747 H 0.4074 0.24119 0.31278 0.0
H2748 H 0.4548 0.23899 0.29659 0.0
H2749 H 0.42793 0.23691 0.29786 0.0
H2750 H 0.43113 0.28368 0.29775 0.0
H2751 H 0.45786 0.28554 0.295 0.0
C2752 C 0.38776 0.26726 0.29291 0.0
C2753 C 0.37933 0.25666 0.30079 0.0
C2754 C 0.40323 0.26826 0.29183 0.0
C2755 C 0.41067 0.25891 0.29891 0.0
C2756 C 0.40214 0.24839 0.30691 0.0
C2757 C 0.38665 0.24718 0.3077 0.0
C2758 C 0.44979 0.24882 0.29661 0.0
C2759 C 0.45863 0.26243 0.29566 0.0
C2760 C 0.43431 0.24766 0.2976 0.0
C2761 C 0.42721 0.26013 0.29794 0.0
C2762 C 0.43608 0.27377 0.29726 0.0
C2763 C 0.45153 0.27488 0.29598 0.0
H2764 H 0.33252 0.88289 0.30429 0.0
H2765 H 0.33997 0.90775 0.34768 0.0
H2766 H 0.32517 0.90424 0.29499 0.0
H2767 H 0.33242 0.92901 0.3384 0.0
H2768 H 0.29949 0.95594 0.31965 0.0
H2769 H 0.30791 0.93508 0.329 0.0
H2770 H 0.33741 0.93029 0.29044 0.0
H2771 H 0.32908 0.95124 0.28116 0.0
C2772 C 0.33261 0.89291 0.31183 0.0
C2773 C 0.33683 0.89362 0.32672 0.0
C2774 C 0.32846 0.90513 0.30649 0.0
C2775 C 0.3282 0.91826 0.31599 0.0
C2776 C 0.33243 0.919 0.33087 0.0
C2777 C 0.33682 0.90685 0.33615 0.0
C2778 C 0.30777 0.95042 0.3132 0.0
C2779 C 0.31365 0.9552 0.2997 0.0
C2780 C 0.31265 0.93856 0.31858 0.0
C2781 C 0.32331 0.93108 0.31044 0.0
C2782 C 0.32913 0.93582 0.2969 0.0
C2783 C 0.32444 0.94784 0.29165 0.0
H2784 H 0.71961 0.11814 0.69758 0.0
H2785 H 0.72836 0.14573 0.73932 0.0
H2786 H 0.7309 0.09895 0.70693 0.0
H2787 H 0.73948 0.12644 0.74869 0.0
H2788 H 0.741 0.08095 0.7647 0.0
H2789 H 0.73018 0.10045 0.7553 0.0
H2790 H 0.7569 0.09546 0.71472 0.0
H2791 H 0.76778 0.07602 0.72418 0.0
C2792 C 0.72393 0.12011 0.70874 0.0
C2793 C 0.72309 0.13346 0.71771 0.0
C2794 C 0.73045 0.10915 0.71406 0.0
C2795 C 0.73605 0.11121 0.72854 0.0
C2796 C 0.73516 0.12452 0.73753 0.0
C2797 C 0.72886 0.13558 0.73212 0.0
C2798 C 0.74451 0.08401 0.75376 0.0
C2799 C 0.75521 0.07697 0.74516 0.0
C2800 C 0.73841 0.09522 0.74843 0.0
C2801 C 0.7427 0.09946 0.73428 0.0
C2802 C 0.75333 0.09235 0.72563 0.0
C2803 C 0.75961 0.08131 0.73107 0.0
H2804 H 0.71892 0.90538 0.36812 0.0
H2805 H 0.72739 0.87821 0.32707 0.0
H2806 H 0.73119 0.92692 0.35722 0.0
H2807 H 0.73954 0.89979 0.31621 0.0
H2808 H 0.73676 0.94393 0.29769 0.0
H2809 H 0.72855 0.9217 0.30908 0.0
H2810 H 0.75655 0.93821 0.34654 0.0
H2811 H 0.76533 0.96033 0.33489 0.0
C2812 C 0.72358 0.90397 0.35686 0.0
C2813 C 0.72208 0.8901 0.34843 0.0
C2814 C 0.73065 0.91629 0.35066 0.0
C2815 C 0.73618 0.915 0.33584 0.0
C2816 C 0.73523 0.90108 0.32761 0.0
C2817 C 0.72834 0.88873 0.33387 0.0
C2818 C 0.74145 0.94277 0.30819 0.0
C2819 C 0.75176 0.95398 0.31532 0.0
C2820 C 0.73669 0.93001 0.31473 0.0
C2821 C 0.74196 0.92823 0.32865 0.0
C2822 C 0.75225 0.93937 0.33583 0.0
C2823 C 0.75719 0.95206 0.32918 0.0
H2824 H 0.6554 0.23482 0.35243 0.0
H2825 H 0.63355 0.19067 0.34041 0.0
H2826 H 0.63728 0.2441 0.33867 0.0
H2827 H 0.61555 0.19997 0.32629 0.0
H2828 H 0.57619 0.22417 0.31906 0.0
H2829 H 0.59491 0.21378 0.33104 0.0
H2830 H 0.62931 0.24501 0.31376 0.0
H2831 H 0.61056 0.25547 0.3019 0.0
C2832 C 0.64681 0.22706 0.34672 0.0
C2833 C 0.64589 0.212 0.34757 0.0
C2834 C 0.63646 0.23239 0.33874 0.0
C2835 C 0.62495 0.22278 0.33137 0.0
C2836 C 0.62417 0.20768 0.33201 0.0
C2837 C 0.63453 0.20235 0.34003 0.0
C2838 C 0.58777 0.2287 0.31768 0.0
C2839 C 0.59189 0.24069 0.30961 0.0
C2840 C 0.59851 0.22273 0.32452 0.0
C2841 C 0.61362 0.2286 0.32341 0.0
C2842 C 0.61775 0.2404 0.31506 0.0
C2843 C 0.60701 0.24639 0.30827 0.0
H2844 H 0.28285 0.16065 0.33333 0.0
H2845 H 0.33065 0.16318 0.33262 0.0
H2846 H 0.28047 0.13426 0.32658 0.0
H2847 H 0.32823 0.13676 0.32612 0.0
H2848 H 0.31764 0.09424 0.29374 0.0
H2849 H 0.32079 0.11994 0.30383 0.0
H2850 H 0.2842 0.11112 0.33514 0.0
H2851 H 0.28108 0.08528 0.32508 0.0
C2852 C 0.29284 0.15556 0.33194 0.0
C2853 C 0.30694 0.16404 0.33338 0.0
C2854 C 0.29147 0.14042 0.32815 0.0
C2855 C 0.30416 0.13343 0.32571 0.0
C2856 C 0.31824 0.14185 0.32769 0.0
C2857 C 0.31962 0.15699 0.3315 0.0
C2858 C 0.31043 0.09771 0.30296 0.0
C2859 C 0.29911 0.08769 0.3086 0.0
C2860 C 0.31224 0.11246 0.30874 0.0
C2861 C 0.30275 0.11757 0.32029 0.0
C2862 C 0.29157 0.10754 0.32612 0.0
C2863 C 0.28978 0.09275 0.32034 0.0
H2864 H 0.38944 0.8426 0.31157 0.0
H2865 H 0.39636 0.82322 0.35124 0.0
H2866 H 0.41077 0.83246 0.29926 0.0
H2867 H 0.41771 0.81346 0.33915 0.0
H2868 H 0.4439 0.78389 0.30854 0.0
H2869 H 0.42258 0.7946 0.31967 0.0
H2870 H 0.43777 0.83406 0.29953 0.0
H2871 H 0.4591 0.82322 0.28825 0.0
C2872 C 0.39557 0.83632 0.31771 0.0
C2873 C 0.39109 0.83364 0.33236 0.0
C2874 C 0.40783 0.83054 0.31068 0.0
C2875 C 0.41586 0.82199 0.31815 0.0
C2876 C 0.41159 0.81969 0.33292 0.0
C2877 C 0.39937 0.8254 0.33991 0.0
C2878 C 0.44273 0.79487 0.30653 0.0
C2879 C 0.45327 0.80274 0.29761 0.0
C2880 C 0.43052 0.80103 0.31293 0.0
C2881 C 0.42853 0.81527 0.31064 0.0
C2882 C 0.43889 0.82303 0.30143 0.0
C2883 C 0.45112 0.81683 0.29497 0.0
H2884 H 0.31719 0.88389 0.74191 0.0
H2885 H 0.35707 0.90864 0.72506 0.0
H2886 H 0.30719 0.90649 0.74994 0.0
H2887 H 0.34712 0.93132 0.73334 0.0
H2888 H 0.31523 0.96537 0.73164 0.0
H2889 H 0.3271 0.94347 0.72569 0.0
H2890 H 0.31043 0.92872 0.7676 0.0
H2891 H 0.29815 0.95036 0.77332 0.0
C2892 C 0.32392 0.89417 0.74009 0.0
C2893 C 0.33789 0.89445 0.73276 0.0
C2894 C 0.31821 0.90714 0.74477 0.0
C2895 C 0.32633 0.9207 0.74221 0.0
C2896 C 0.3405 0.92102 0.73528 0.0
C2897 C 0.34624 0.90804 0.73063 0.0
C2898 C 0.31406 0.95742 0.73955 0.0
C2899 C 0.30571 0.95957 0.75292 0.0
C2900 C 0.32101 0.94496 0.73623 0.0
C2901 C 0.31971 0.93436 0.74618 0.0
C2902 C 0.31153 0.93662 0.75965 0.0
C2903 C 0.30462 0.94909 0.76298 0.0
H2904 H 0.68238 0.83219 0.7289 0.0
H2905 H 0.69509 0.79191 0.73956 0.0
H2906 H 0.6565 0.82306 0.73409 0.0
H2907 H 0.669 0.78261 0.74448 0.0
H2908 H 0.62341 0.78018 0.76997 0.0
H2909 H 0.64945 0.78744 0.76312 0.0
H2910 H 0.63612 0.80505 0.72465 0.0
H2911 H 0.61014 0.79839 0.73184 0.0
C2912 C 0.67964 0.82132 0.73221 0.0
C2913 C 0.69081 0.8128 0.73386 0.0
C2914 C 0.66476 0.81604 0.73509 0.0
C2915 C 0.66067 0.8021 0.73968 0.0
C2916 C 0.67181 0.79347 0.74112 0.0
C2917 C 0.68674 0.79876 0.73822 0.0
C2918 C 0.62605 0.78566 0.76009 0.0
C2919 C 0.61469 0.7888 0.75152 0.0
C2920 C 0.64097 0.78965 0.75606 0.0
C2921 C 0.64486 0.79687 0.74337 0.0
C2922 C 0.6335 0.79967 0.73459 0.0
C2923 C 0.6186 0.7957 0.73863 0.0
H2924 H 0.38874 0.20773 0.66937 0.0
H2925 H 0.36612 0.21886 0.7114 0.0
H2926 H 0.41214 0.22027 0.6797 0.0
H2927 H 0.38951 0.23061 0.72205 0.0
H2928 H 0.43196 0.25921 0.73586 0.0
H2929 H 0.40862 0.25009 0.72334 0.0
H2930 H 0.43006 0.21721 0.69599 0.0
H2931 H 0.45346 0.22698 0.70798 0.0
C2932 C 0.38879 0.21286 0.68083 0.0
C2933 C 0.37561 0.21229 0.68958 0.0
C2934 C 0.40222 0.21995 0.68682 0.0
C2935 C 0.40284 0.22639 0.70181 0.0
C2936 C 0.38953 0.22604 0.71042 0.0
C2937 C 0.37607 0.21921 0.70433 0.0
C2938 C 0.43161 0.2501 0.72708 0.0
C2939 C 0.44443 0.24377 0.72285 0.0
C2940 C 0.41824 0.24479 0.71995 0.0
C2941 C 0.41733 0.23281 0.70865 0.0
C2942 C 0.43031 0.22661 0.70439 0.0
C2943 C 0.44372 0.23212 0.71132 0.0
H2944 H 0.73602 0.67874 0.15551 0.0
H2945 H 0.72048 0.72044 0.16698 0.0
H2946 H 0.75042 0.68821 0.13437 0.0
H2947 H 0.73477 0.7298 0.1459 0.0
H2948 H 0.77276 0.74611 0.11486 0.0
H2949 H 0.76083 0.73631 0.13694 0.0
H2950 H 0.74468 0.69591 0.10994 0.0
H2951 H 0.75634 0.70576 0.08778 0.0
C2952 C 0.73575 0.68994 0.1536 0.0
C2953 C 0.72705 0.69881 0.16292 0.0
C2954 C 0.74393 0.69533 0.14144 0.0
C2955 C 0.74372 0.70974 0.13846 0.0
C2956 C 0.7353 0.7187 0.14799 0.0
C2957 C 0.72703 0.71328 0.16003 0.0
C2958 C 0.7666 0.73516 0.11359 0.0
C2959 C 0.76545 0.72678 0.09948 0.0
C2960 C 0.75981 0.72954 0.12626 0.0
C2961 C 0.75178 0.71535 0.12518 0.0
C2962 C 0.75095 0.70681 0.11117 0.0
C2963 C 0.75766 0.71247 0.09847 0.0
H2964 H 0.32243 0.72611 0.15248 0.0
H2965 H 0.32455 0.68196 0.13197 0.0
H2966 H 0.31776 0.73321 0.12821 0.0
H2967 H 0.31968 0.6891 0.10767 0.0
H2968 H 0.29194 0.7066 0.07259 0.0
H2969 H 0.29774 0.69836 0.09596 0.0
H2970 H 0.33269 0.73504 0.10324 0.0
H2971 H 0.3274 0.74303 0.07962 0.0
C2972 C 0.32185 0.71791 0.1428 0.0
C2973 C 0.32386 0.70347 0.14413 0.0
C2974 C 0.31927 0.72201 0.12891 0.0
C2975 C 0.31842 0.71171 0.11609 0.0
C2976 C 0.32023 0.69723 0.11741 0.0
C2977 C 0.32306 0.69317 0.13129 0.0
C2978 C 0.30108 0.71277 0.07897 0.0
C2979 C 0.30914 0.72556 0.0742 0.0
C2980 C 0.30434 0.70806 0.0924 0.0
C2981 C 0.31558 0.71614 0.10142 0.0
C2982 C 0.32382 0.72874 0.09657 0.0
C2983 C 0.32072 0.73334 0.08307 0.0
H2984 H 0.35217 0.3062 0.18127 0.0
H2985 H 0.36695 0.34252 0.15618 0.0
H2986 H 0.34247 0.29156 0.15858 0.0
H2987 H 0.35694 0.32801 0.13361 0.0
H2988 H 0.3479 0.29465 0.09299 0.0
H2989 H 0.35997 0.30726 0.11549 0.0
H2990 H 0.32203 0.29082 0.14221 0.0
H2991 H 0.31026 0.27766 0.11978 0.0
C2992 C 0.35341 0.31105 0.17092 0.0
C2993 C 0.36029 0.32557 0.17057 0.0
C2994 C 0.34776 0.30268 0.15792 0.0
C2995 C 0.34884 0.30863 0.14429 0.0
C2996 C 0.35607 0.32301 0.14388 0.0
C2997 C 0.36175 0.33137 0.15686 0.0
C2998 C 0.34224 0.29352 0.10369 0.0
C2999 C 0.32809 0.28516 0.10457 0.0
C3000 C 0.34909 0.3009 0.11658 0.0
C3001 C 0.34195 0.30011 0.13066 0.0
C3002 C 0.32792 0.29154 0.13157 0.0
C3003 C 0.32108 0.28415 0.11868 0.0
H3004 H 0.70808 0.31577 0.14006 0.0
H3005 H 0.74705 0.30538 0.15956 0.0
H3006 H 0.71681 0.30603 0.1154 0.0
H3007 H 0.75572 0.29558 0.13488 0.0
H3008 H 0.77384 0.29649 0.08614 0.0
H3009 H 0.765 0.30534 0.1111 0.0
H3010 H 0.72116 0.28213 0.10134 0.0
H3011 H 0.72994 0.27348 0.07629 0.0
C3012 C 0.71848 0.31136 0.1391 0.0
C3013 C 0.72689 0.31136 0.15177 0.0
C3014 C 0.72343 0.30572 0.12498 0.0
C3015 C 0.73695 0.30006 0.12321 0.0
C3016 C 0.74533 0.30001 0.13588 0.0
C3017 C 0.74032 0.30554 0.15002 0.0
C3018 C 0.76231 0.29333 0.08932 0.0
C3019 C 0.75257 0.28432 0.07926 0.0
C3020 C 0.75728 0.29828 0.10365 0.0
C3021 C 0.74238 0.29443 0.10816 0.0
C3022 C 0.73267 0.28537 0.09812 0.0
C3023 C 0.73772 0.28032 0.08384 0.0
H3024 H 0.70497 0.32565 0.89772 0.0
H3025 H 0.74474 0.31741 0.87207 0.0
H3026 H 0.71423 0.31632 0.91902 0.0
H3027 H 0.75392 0.308 0.89335 0.0
H3028 H 0.77181 0.30617 0.93975 0.0
H3029 H 0.76275 0.31669 0.91907 0.0
H3030 H 0.71914 0.29241 0.92551 0.0
H3031 H 0.72811 0.28213 0.94634 0.0
C3032 C 0.71569 0.32186 0.89663 0.0
C3033 C 0.7241 0.32224 0.8832 0.0
C3034 C 0.72095 0.31646 0.9088 0.0
C3035 C 0.73479 0.31141 0.90785 0.0
C3036 C 0.74329 0.31195 0.89447 0.0
C3037 C 0.73798 0.31726 0.88226 0.0
C3038 C 0.76026 0.3032 0.93682 0.0
C3039 C 0.75067 0.29332 0.94465 0.0
C3040 C 0.75511 0.30911 0.92491 0.0
C3041 C 0.74024 0.30536 0.92066 0.0
C3042 C 0.73062 0.29561 0.9286 0.0
C3043 C 0.73579 0.28962 0.94043 0.0
H3044 H 0.72862 0.70529 0.89065 0.0
H3045 H 0.6895 0.69708 0.91907 0.0
H3046 H 0.7436 0.7133 0.91267 0.0
H3047 H 0.70455 0.7049 0.94107 0.0
H3048 H 0.73276 0.73757 0.97479 0.0
H3049 H 0.71789 0.72804 0.95299 0.0
H3050 H 0.75296 0.70416 0.93438 0.0
H3051 H 0.76803 0.71405 0.95604 0.0
C3052 C 0.72323 0.70508 0.90159 0.0
C3053 C 0.70784 0.70062 0.90309 0.0
C3054 C 0.73184 0.70959 0.9142 0.0
C3055 C 0.72525 0.70978 0.9286 0.0
C3056 C 0.70991 0.70506 0.93011 0.0
C3057 C 0.70131 0.70051 0.9175 0.0
C3058 C 0.73733 0.73036 0.966 0.0
C3059 C 0.75159 0.72662 0.96709 0.0
C3060 C 0.72875 0.72476 0.9536 0.0
C3061 C 0.73424 0.71533 0.94197 0.0
C3062 C 0.74847 0.7115 0.9431 0.0
C3063 C 0.75704 0.71705 0.95556 0.0
H3064 H 0.30709 0.75662 0.85713 0.0
H3065 H 0.33882 0.72659 0.8572 0.0
H3066 H 0.30213 0.75567 0.88375 0.0
H3067 H 0.33424 0.72591 0.88396 0.0
H3068 H 0.31385 0.7196 0.9305 0.0
H3069 H 0.31713 0.71841 0.9034 0.0
H3070 H 0.31418 0.76455 0.90628 0.0
H3071 H 0.30993 0.76551 0.93303 0.0
C3072 C 0.31295 0.74975 0.86286 0.0
C3073 C 0.32321 0.74156 0.85509 0.0
C3074 C 0.31021 0.74928 0.87814 0.0
C3075 C 0.3179 0.74083 0.88609 0.0
C3076 C 0.32795 0.73238 0.8782 0.0
C3077 C 0.33056 0.73272 0.86284 0.0
C3078 C 0.31378 0.72945 0.92531 0.0
C3079 C 0.31168 0.74266 0.934 0.0
C3080 C 0.31581 0.7288 0.90978 0.0
C3081 C 0.31584 0.74136 0.9026 0.0
C3082 C 0.31395 0.75458 0.91134 0.0
C3083 C 0.3118 0.7552 0.92679 0.0
H3084 H 0.36955 0.3175 0.91483 0.0
H3085 H 0.32682 0.32914 0.9063 0.0
H3086 H 0.35904 0.30668 0.93677 0.0
H3087 H 0.31631 0.31846 0.92856 0.0
H3088 H 0.30027 0.2819 0.95875 0.0
H3089 H 0.30999 0.29436 0.93735 0.0
H3090 H 0.34934 0.31331 0.96171 0.0
H3091 H 0.33966 0.30087 0.98305 0.0
C3092 C 0.35792 0.31786 0.91769 0.0
C3093 C 0.34903 0.32419 0.90877 0.0
C3094 C 0.35191 0.31172 0.93036 0.0
C3095 C 0.33683 0.31172 0.93447 0.0
C3096 C 0.32793 0.31815 0.92562 0.0
C3097 C 0.33397 0.32435 0.91292 0.0
C3098 C 0.31092 0.28886 0.9596 0.0
C3099 C 0.31924 0.2903 0.97258 0.0
C3100 C 0.31648 0.29602 0.94733 0.0
C3101 C 0.33048 0.30478 0.94778 0.0
C3102 C 0.33864 0.30644 0.96088 0.0
C3103 C 0.3331 0.29929 0.97312 0.0
H3104 H 0.64994 0.70474 0.2309 0.0
H3105 H 0.64274 0.72008 0.18899 0.0
H3106 H 0.62789 0.7146 0.24177 0.0
H3107 H 0.6207 0.72966 0.19973 0.0
H3108 H 0.59276 0.75983 0.22805 0.0
H3109 H 0.61466 0.74948 0.21795 0.0
H3110 H 0.60068 0.71121 0.24037 0.0
H3111 H 0.57869 0.72158 0.25049 0.0
C3112 C 0.64361 0.71011 0.22398 0.0
C3113 C 0.64816 0.71168 0.2091 0.0
C3114 C 0.63094 0.71571 0.23019 0.0
C3115 C 0.62258 0.72303 0.22165 0.0
C3116 C 0.62702 0.72434 0.20671 0.0
C3117 C 0.63963 0.71874 0.20052 0.0
C3118 C 0.59427 0.74915 0.23074 0.0
C3119 C 0.58389 0.7415 0.24001 0.0
C3120 C 0.60684 0.74321 0.22495 0.0
C3121 C 0.60939 0.72946 0.22826 0.0
C3122 C 0.59914 0.72189 0.23772 0.0
C3123 C 0.58653 0.72784 0.24351 0.0
H3124 H 0.31807 0.62757 0.18693 0.0
H3125 H 0.32355 0.65245 0.23058 0.0
H3126 H 0.3067 0.60617 0.19853 0.0
H3127 H 0.31254 0.63102 0.24214 0.0
H3128 H 0.28243 0.59261 0.25845 0.0
H3129 H 0.29005 0.61428 0.24576 0.0
H3130 H 0.31535 0.58919 0.21318 0.0
H3131 H 0.30765 0.56757 0.2258 0.0
C3132 C 0.31675 0.62851 0.19898 0.0
C3133 C 0.32181 0.64169 0.20783 0.0
C3134 C 0.31032 0.61622 0.20563 0.0
C3135 C 0.30882 0.61684 0.22127 0.0
C3136 C 0.31339 0.63018 0.23006 0.0
C3137 C 0.31978 0.64246 0.22342 0.0
C3138 C 0.28964 0.59176 0.24859 0.0
C3139 C 0.29448 0.5784 0.24315 0.0
C3140 C 0.29399 0.60415 0.24131 0.0
C3141 C 0.30331 0.60347 0.22845 0.0
C3142 C 0.30795 0.59004 0.22289 0.0
C3143 C 0.30357 0.57765 0.23015 0.0
H3144 H 0.42322 0.35177 0.23429 0.0
H3145 H 0.3997 0.30823 0.23643 0.0
H3146 H 0.4459 0.34397 0.2417 0.0
H3147 H 0.42243 0.30015 0.24295 0.0
H3148 H 0.46157 0.29162 0.26703 0.0
H3149 H 0.43906 0.30097 0.26168 0.0
H3150 H 0.4649 0.33044 0.23365 0.0
H3151 H 0.48749 0.32158 0.23988 0.0
C3152 C 0.42294 0.34049 0.23624 0.0
C3153 C 0.40968 0.33062 0.23484 0.0
C3154 C 0.43598 0.33597 0.24039 0.0
C3155 C 0.4361 0.32139 0.24297 0.0
C3156 C 0.42278 0.31154 0.24143 0.0
C3157 C 0.40972 0.31613 0.23757 0.0
C3158 C 0.46236 0.30016 0.2598 0.0
C3159 C 0.47617 0.30587 0.2538 0.0
C3160 C 0.44947 0.30546 0.25661 0.0
C3161 C 0.45003 0.31639 0.24706 0.0
C3162 C 0.46398 0.32219 0.24121 0.0
C3163 C 0.47693 0.31708 0.24467 0.0
H3164 H 0.76732 0.36822 0.21435 0.0
H3165 H 0.72588 0.38203 0.20491 0.0
H3166 H 0.77828 0.39372 0.2204 0.0
H3167 H 0.73651 0.40733 0.21158 0.0
H3168 H 0.76064 0.45278 0.21546 0.0
H3169 H 0.75309 0.42738 0.20521 0.0
H3170 H 0.77722 0.41322 0.23954 0.0
H3171 H 0.78529 0.43867 0.24923 0.0
C3172 C 0.76057 0.3767 0.21354 0.0
C3173 C 0.74572 0.3731 0.20919 0.0
C3174 C 0.76681 0.39133 0.2171 0.0
C3175 C 0.75829 0.40266 0.21657 0.0
C3176 C 0.74354 0.39899 0.21188 0.0
C3177 C 0.73738 0.38442 0.20813 0.0
C3178 C 0.76443 0.44419 0.22066 0.0
C3179 C 0.77347 0.44762 0.23315 0.0
C3180 C 0.76005 0.42963 0.21487 0.0
C3181 C 0.76438 0.41817 0.22163 0.0
C3182 C 0.77382 0.4217 0.23388 0.0
C3183 C 0.7784 0.43628 0.23951 0.0
H3184 H 0.6594 0.32241 0.80499 0.0
H3185 H 0.64204 0.31688 0.84961 0.0
H3186 H 0.6363 0.30931 0.79469 0.0
H3187 H 0.61898 0.30343 0.83924 0.0
H3188 H 0.57419 0.29969 0.81566 0.0
H3189 H 0.59793 0.3094 0.82702 0.0
H3190 H 0.62066 0.28592 0.79083 0.0
H3191 H 0.59686 0.2763 0.7794 0.0
C3192 C 0.65074 0.3182 0.81261 0.0
C3193 C 0.65253 0.3208 0.82814 0.0
C3194 C 0.6375 0.3106 0.80668 0.0
C3195 C 0.62574 0.30537 0.81613 0.0
C3196 C 0.62774 0.30751 0.83166 0.0
C3197 C 0.64099 0.31514 0.8376 0.0
C3198 C 0.58423 0.29642 0.81025 0.0
C3199 C 0.58366 0.2873 0.79659 0.0
C3200 C 0.59786 0.30196 0.81678 0.0
C3201 C 0.61122 0.29848 0.80982 0.0
C3202 C 0.6106 0.28901 0.79636 0.0
C3203 C 0.59697 0.28351 0.78981 0.0
H3204 H 0.72575 0.66163 0.82289 0.0
H3205 H 0.68708 0.63632 0.8413 0.0
H3206 H 0.73529 0.63912 0.81307 0.0
H3207 H 0.69671 0.6138 0.83154 0.0
H3208 H 0.71251 0.57657 0.79906 0.0
H3209 H 0.70231 0.59914 0.80742 0.0
H3210 H 0.74522 0.61942 0.82383 0.0
H3211 H 0.75546 0.59698 0.81523 0.0
C3212 C 0.71925 0.65127 0.82478 0.0
C3213 C 0.70568 0.65077 0.83291 0.0
C3214 C 0.72476 0.63838 0.81923 0.0
C3215 C 0.71678 0.6247 0.8216 0.0
C3216 C 0.70305 0.62418 0.82943 0.0
C3217 C 0.69758 0.63708 0.83508 0.0
C3218 C 0.71977 0.58589 0.80436 0.0
C3219 C 0.73478 0.58501 0.80652 0.0
C3220 C 0.71391 0.59876 0.80925 0.0
C3221 C 0.72297 0.61105 0.81627 0.0
C3222 C 0.738 0.61018 0.81833 0.0
C3223 C 0.74382 0.59729 0.81355 0.0
H3224 H 0.38101 0.73837 0.79584 0.0
H3225 H 0.38504 0.78499 0.80898 0.0
H3226 H 0.40794 0.74033 0.79272 0.0
H3227 H 0.41196 0.78689 0.8062 0.0
H3228 H 0.45787 0.78695 0.7834 0.0
H3229 H 0.431 0.78497 0.78681 0.0
H3230 H 0.43038 0.74529 0.80711 0.0
H3231 H 0.45732 0.74724 0.80358 0.0
C3232 C 0.38764 0.74903 0.79812 0.0
C3233 C 0.38088 0.76153 0.80261 0.0
C3234 C 0.40309 0.75013 0.79643 0.0
C3235 C 0.41212 0.76376 0.79922 0.0
C3236 C 0.40533 0.77625 0.80376 0.0
C3237 C 0.38989 0.77515 0.80542 0.0
C3238 C 0.45202 0.77789 0.78875 0.0
C3239 C 0.45972 0.76728 0.79328 0.0
C3240 C 0.43661 0.77675 0.7907 0.0
C3241 C 0.42853 0.76498 0.79725 0.0
C3242 C 0.43624 0.75438 0.80183 0.0
C3243 C 0.45167 0.7555 0.79983 0.0
H3244 H 0.31679 0.38419 0.82394 0.0
H3245 H 0.35862 0.4123 0.83154 0.0
H3246 H 0.30651 0.4041 0.81512 0.0
H3247 H 0.34863 0.43205 0.82201 0.0
H3248 H 0.32169 0.46914 0.81948 0.0
H3249 H 0.33238 0.44919 0.82788 0.0
H3250 H 0.30643 0.41842 0.79578 0.0
H3251 H 0.29533 0.43836 0.78795 0.0
C3252 C 0.32387 0.39458 0.82352 0.0
C3253 C 0.33851 0.39667 0.82848 0.0
C3254 C 0.318 0.40602 0.81836 0.0
C3255 C 0.32669 0.41979 0.81781 0.0
C3256 C 0.34146 0.42174 0.82252 0.0
C3257 C 0.34725 0.41037 0.82789 0.0
C3258 C 0.31835 0.4581 0.81422 0.0
C3259 C 0.30764 0.45529 0.80313 0.0
C3260 C 0.32452 0.44663 0.81896 0.0
C3261 C 0.3203 0.43208 0.81256 0.0
C3262 C 0.30975 0.42937 0.80124 0.0
C3263 C 0.30342 0.44081 0.79668 0.0
H3264 H 0.71971 0.61924 0.19495 0.0
H3265 H 0.73277 0.64803 0.23495 0.0
H3266 H 0.73134 0.6001 0.20371 0.0
H3267 H 0.7439 0.62872 0.24402 0.0
H3268 H 0.77467 0.5959 0.25009 0.0
H3269 H 0.76405 0.61522 0.24052 0.0
H3270 H 0.72842 0.58329 0.22143 0.0
H3271 H 0.73958 0.5639 0.23013 0.0
C3272 C 0.72499 0.62145 0.20567 0.0
C3273 C 0.7253 0.63517 0.21425 0.0
C3274 C 0.73159 0.61043 0.21076 0.0
C3275 C 0.73855 0.61278 0.22463 0.0
C3276 C 0.73887 0.62654 0.23319 0.0
C3277 C 0.73239 0.63761 0.22803 0.0
C3278 C 0.7647 0.59295 0.24364 0.0
C3279 C 0.75804 0.57827 0.24087 0.0
C3280 C 0.75846 0.60409 0.23833 0.0
C3281 C 0.74532 0.60089 0.23019 0.0
C3282 C 0.73865 0.58621 0.22746 0.0
C3283 C 0.74495 0.57507 0.23266 0.0
H3284 H 0.73918 0.38275 0.8367 0.0
H3285 H 0.69905 0.39914 0.85409 0.0
H3286 H 0.74897 0.40681 0.82946 0.0
H3287 H 0.7089 0.42313 0.84687 0.0
H3288 H 0.72214 0.45395 0.81029 0.0
H3289 H 0.71364 0.43161 0.82158 0.0
H3290 H 0.75716 0.43339 0.8394 0.0
H3291 H 0.76572 0.4558 0.82795 0.0
C3292 C 0.73255 0.39152 0.83919 0.0
C3293 C 0.71827 0.38897 0.84584 0.0
C3294 C 0.73819 0.40531 0.8351 0.0
C3295 C 0.72963 0.41678 0.83748 0.0
C3296 C 0.71565 0.41442 0.84473 0.0
C3297 C 0.71006 0.40068 0.84893 0.0
C3298 C 0.72988 0.44958 0.81664 0.0
C3299 C 0.7446 0.45654 0.8182 0.0
C3300 C 0.72498 0.43689 0.82323 0.0
C3301 C 0.73473 0.4308 0.8314 0.0
C3302 C 0.74943 0.43784 0.83311 0.0
C3303 C 0.75429 0.45067 0.82665 0.0
H3304 H 0.65958 0.72784 0.83516 0.0
H3305 H 0.62805 0.69064 0.84533 0.0
H3306 H 0.64057 0.73648 0.82192 0.0
H3307 H 0.60909 0.69918 0.83184 0.0
H3308 H 0.57544 0.72986 0.82413 0.0
H3309 H 0.59449 0.71938 0.83551 0.0
H3310 H 0.6255 0.73093 0.79976 0.0
H3311 H 0.6066 0.74187 0.78867 0.0
C3312 C 0.64864 0.72141 0.83443 0.0
C3313 C 0.64531 0.70859 0.84138 0.0
C3314 C 0.63776 0.72633 0.82676 0.0
C3315 C 0.6233 0.71855 0.82587 0.0
C3316 C 0.62007 0.70553 0.8325 0.0
C3317 C 0.63096 0.70059 0.84016 0.0
C3318 C 0.58634 0.7302 0.81873 0.0
C3319 C 0.58953 0.73675 0.80553 0.0
C3320 C 0.59721 0.72404 0.82516 0.0
C3321 C 0.61152 0.72433 0.81855 0.0
C3322 C 0.61462 0.73066 0.80521 0.0
C3323 C 0.60375 0.73679 0.79877 0.0
H3324 H 0.28443 0.66334 0.83591 0.0
H3325 H 0.33093 0.66014 0.82699 0.0
H3326 H 0.27829 0.63698 0.82954 0.0
H3327 H 0.32475 0.63382 0.82034 0.0
H3328 H 0.30954 0.58499 0.82145 0.0
H3329 H 0.31543 0.61098 0.83036 0.0
H3330 H 0.27797 0.61965 0.80701 0.0
H3331 H 0.27209 0.59372 0.79814 0.0
C3332 C 0.29335 0.65701 0.83265 0.0
C3333 C 0.30816 0.66386 0.83189 0.0
C3334 C 0.28982 0.64191 0.82891 0.0
C3335 C 0.30101 0.6333 0.82433 0.0
C3336 C 0.31587 0.6401 0.82396 0.0
C3337 C 0.31941 0.65521 0.8277 0.0
C3338 C 0.30259 0.59246 0.81819 0.0
C3339 C 0.29034 0.58729 0.8091 0.0
C3340 C 0.30597 0.60735 0.8233 0.0
C3341 C 0.29716 0.61739 0.81941 0.0
C3342 C 0.28483 0.61218 0.81043 0.0
C3343 C 0.28146 0.59731 0.80534 0.0
H3344 H 0.39951 0.32437 0.84711 0.0
H3345 H 0.39151 0.34578 0.8091 0.0
H3346 H 0.42016 0.31455 0.83361 0.0
H3347 H 0.41245 0.33587 0.79551 0.0
H3348 H 0.44001 0.29928 0.77264 0.0
H3349 H 0.41968 0.31129 0.78469 0.0
H3350 H 0.44532 0.32408 0.82446 0.0
H3351 H 0.46563 0.31231 0.81246 0.0
C3352 C 0.40216 0.32702 0.83586 0.0
C3353 C 0.39383 0.33591 0.82921 0.0
C3354 C 0.41409 0.32144 0.82815 0.0
C3355 C 0.41802 0.32452 0.81354 0.0
C3356 C 0.40964 0.33327 0.80675 0.0
C3357 C 0.3977 0.33899 0.81455 0.0
C3358 C 0.4414 0.30486 0.78387 0.0
C3359 C 0.45438 0.30465 0.79166 0.0
C3360 C 0.42974 0.31173 0.79076 0.0
C3361 C 0.43083 0.31847 0.80558 0.0
C3362 C 0.44402 0.31872 0.81314 0.0
C3363 C 0.45565 0.31193 0.80626 0.0
H3364 H 0.37222 0.40937 0.22994 0.0
H3365 H 0.33227 0.38191 0.24273 0.0
H3366 H 0.36188 0.43097 0.24132 0.0
H3367 H 0.32186 0.40349 0.25384 0.0
H3368 H 0.3105 0.44464 0.2812 0.0
H3369 H 0.32384 0.4239 0.27377 0.0
H3370 H 0.34204 0.44375 0.23488 0.0
H3371 H 0.32914 0.46466 0.24258 0.0
C3372 C 0.3613 0.40792 0.23531 0.0
C3373 C 0.35302 0.39392 0.23531 0.0
C3374 C 0.35534 0.42031 0.24175 0.0
C3375 C 0.34099 0.41896 0.24836 0.0
C3376 C 0.333 0.40491 0.24895 0.0
C3377 C 0.33894 0.39253 0.2425 0.0
C3378 C 0.31756 0.44468 0.27121 0.0
C3379 C 0.3187 0.45625 0.26243 0.0
C3380 C 0.32509 0.43274 0.26688 0.0
C3381 C 0.33397 0.43214 0.25371 0.0
C3382 C 0.33543 0.44392 0.24517 0.0
C3383 C 0.32788 0.45583 0.24948 0.0
H3384 H 0.68856 0.29412 0.22298 0.0
H3385 H 0.68302 0.33777 0.2427 0.0
H3386 H 0.66335 0.2851 0.23143 0.0
H3387 H 0.65788 0.32887 0.25079 0.0
H3388 H 0.6185 0.30675 0.27556 0.0
H3389 H 0.64441 0.31398 0.26834 0.0
H3390 H 0.63767 0.28675 0.22609 0.0
H3391 H 0.61175 0.27941 0.23341 0.0
C3392 C 0.68199 0.30178 0.22912 0.0
C3393 C 0.68781 0.31665 0.23218 0.0
C3394 C 0.66752 0.29663 0.23388 0.0
C3395 C 0.65861 0.30626 0.24181 0.0
C3396 C 0.66451 0.32111 0.24493 0.0
C3397 C 0.67892 0.32623 0.2402 0.0
C3398 C 0.62255 0.30234 0.26471 0.0
C3399 C 0.61306 0.29261 0.255 0.0
C3400 C 0.63739 0.30648 0.26057 0.0
C3401 C 0.64309 0.30103 0.24659 0.0
C3402 C 0.63368 0.29102 0.23701 0.0
C3403 C 0.61883 0.28684 0.24118 0.0
H3404 H 0.37631 0.72709 0.20281 0.0
H3405 H 0.39722 0.68876 0.18859 0.0
H3406 H 0.39972 0.73977 0.21315 0.0
H3407 H 0.42057 0.70148 0.19891 0.0
H3408 H 0.45095 0.7216 0.23816 0.0
H3409 H 0.42857 0.70984 0.22521 0.0
H3410 H 0.42622 0.74946 0.20581 0.0
H3411 H 0.44862 0.76131 0.21894 0.0
C3412 C 0.38593 0.72143 0.20173 0.0
C3413 C 0.38487 0.70687 0.19497 0.0
C3414 C 0.39935 0.72872 0.20759 0.0
C3415 C 0.41192 0.72156 0.20693 0.0
C3416 C 0.41099 0.70719 0.19973 0.0
C3417 C 0.39763 0.69995 0.19376 0.0
C3418 C 0.44562 0.72781 0.23118 0.0
C3419 C 0.45147 0.74238 0.2296 0.0
C3420 C 0.43291 0.72104 0.22364 0.0
C3421 C 0.4257 0.72872 0.21446 0.0
C3422 C 0.43153 0.7433 0.21286 0.0
C3423 C 0.44437 0.75005 0.22029 0.0
loop_
_geom_bond_atom_site_label_1
_geom_bond_atom_site_label_2
_geom_bond_distance
_geom_bond_site_symmetry_2
_ccdc_geom_bond_type
O0 Cd1 2.300 . S
O0 C7 1.275 . S
Cd1 O0 2.300 . S
Cd1 O9 2.381 . S
Cd1 O10 2.378 . S
O2 Cd3 2.385 . S
O2 C7 1.255 . S
Cd3 O2 2.385 . S
Cd3 O4 2.317 . S
O4 Cd3 2.317 . S
O4 C5 1.232 . S
C5 O4 1.232 . S
C5 O6 1.218 . S
O6 C5 1.218 . S
C7 O0 1.275 . S
C7 O2 1.255 . S
C8 O9 1.258 . S
C8 O10 1.256 . S
O9 Cd1 2.381 . S
O9 C8 1.258 . S
O10 Cd1 2.378 . S
O10 C8 1.256 . S
O11 Cd12 2.300 . S
O11 C18 1.275 . S
Cd12 O11 2.300 . S
Cd12 O20 2.381 . S
Cd12 O21 2.378 . S
O13 Cd14 2.385 . S
O13 C18 1.255 . S
Cd14 O13 2.385 . S
Cd14 O15 2.317 . S
O15 Cd14 2.317 . S
O15 C16 1.232 . S
C16 O15 1.232 . S
C16 O17 1.218 . S
O17 C16 1.218 . S
C18 O11 1.275 . S
C18 O13 1.255 . S
C19 O20 1.258 . S
C19 O21 1.256 . S
O20 Cd12 2.381 . S
O20 C19 1.258 . S
O21 Cd12 2.378 . S
O21 C19 1.256 . S
O22 Cd23 2.300 . S
O22 C29 1.275 . S
Cd23 O22 2.300 . S
Cd23 O31 2.381 . S
Cd23 O32 2.378 . S
O24 Cd25 2.385 . S
O24 C29 1.255 . S
Cd25 O24 2.385 . S
Cd25 O26 2.317 . S
O26 Cd25 2.317 . S
O26 C27 1.232 . S
C27 O26 1.232 . S
C27 O28 1.218 . S
O28 C27 1.218 . S
C29 O22 1.275 . S
C29 O24 1.255 . S
C30 O31 1.258 . S
C30 O32 1.256 . S
O31 Cd23 2.381 . S
O31 C30 1.258 . S
O32 Cd23 2.378 . S
O32 C30 1.256 . S
O33 Cd34 2.300 . S
O33 C40 1.275 . S
Cd34 O33 2.300 . S
Cd34 O42 2.381 . S
Cd34 O43 2.378 . S
O35 Cd36 2.385 . S
O35 C40 1.255 . S
Cd36 O35 2.385 . S
Cd36 O37 2.317 . S
O37 Cd36 2.317 . S
O37 C38 1.232 . S
C38 O37 1.232 . S
C38 O39 1.218 . S
O39 C38 1.218 . S
C40 O33 1.275 . S
C40 O35 1.255 . S
C41 O42 1.258 . S
C41 O43 1.256 . S
O42 Cd34 2.381 . S
O42 C41 1.258 . S
O43 Cd34 2.378 . S
O43 C41 1.256 . S
O44 Cd45 2.300 . S
O44 C51 1.275 . S
Cd45 O44 2.300 . S
Cd45 O53 2.381 . S
Cd45 O54 2.378 . S
O46 Cd47 2.385 . S
O46 C51 1.255 . S
Cd47 O46 2.385 . S
Cd47 O48 2.317 . S
O48 Cd47 2.317 . S
O48 C49 1.232 . S
C49 O48 1.232 . S
C49 O50 1.218 . S
O50 C49 1.218 . S
C51 O44 1.275 . S
C51 O46 1.255 . S
C52 O53 1.258 . S
C52 O54 1.256 . S
O53 Cd45 2.381 . S
O53 C52 1.258 . S
O54 Cd45 2.378 . S
O54 C52 1.256 . S
O55 Cd56 2.300 . S
O55 C62 1.275 . S
Cd56 O55 2.300 . S
Cd56 O64 2.381 . S
Cd56 O65 2.378 . S
O57 Cd58 2.385 . S
O57 C62 1.255 . S
Cd58 O57 2.385 . S
Cd58 O59 2.317 . S
O59 Cd58 2.317 . S
O59 C60 1.232 . S
C60 O59 1.232 . S
C60 O61 1.218 . S
O61 C60 1.218 . S
C62 O55 1.275 . S
C62 O57 1.255 . S
C63 O64 1.258 . S
C63 O65 1.256 . S
O64 Cd56 2.381 . S
O64 C63 1.258 . S
O65 Cd56 2.378 . S
O65 C63 1.256 . S
O66 Cd67 2.300 . S
O66 C73 1.275 . S
Cd67 O66 2.300 . S
Cd67 O75 2.381 . S
Cd67 O76 2.378 . S
O68 Cd69 2.385 . S
O68 C73 1.255 . S
Cd69 O68 2.385 . S
Cd69 O70 2.317 . S
O70 Cd69 2.317 . S
O70 C71 1.232 . S
C71 O70 1.232 . S
C71 O72 1.218 . S
O72 C71 1.218 . S
C73 O66 1.275 . S
C73 O68 1.255 . S
C74 O75 1.258 . S
C74 O76 1.256 . S
O75 Cd67 2.381 . S
O75 C74 1.258 . S
O76 Cd67 2.378 . S
O76 C74 1.256 . S
O77 Cd78 2.300 . S
O77 C84 1.275 . S
Cd78 O77 2.300 . S
Cd78 O86 2.381 . S
Cd78 O87 2.378 . S
O79 Cd80 2.385 . S
O79 C84 1.255 . S
Cd80 O79 2.385 . S
Cd80 O81 2.317 . S
O81 Cd80 2.317 . S
O81 C82 1.232 . S
C82 O81 1.232 . S
C82 O83 1.218 . S
O83 C82 1.218 . S
C84 O77 1.275 . S
C84 O79 1.255 . S
C85 O86 1.258 . S
C85 O87 1.256 . S
O86 Cd78 2.381 . S
O86 C85 1.258 . S
O87 Cd78 2.378 . S
O87 C85 1.256 . S
O88 Cd89 2.300 . S
O88 C95 1.275 . S
Cd89 O88 2.300 . S
Cd89 O97 2.381 . S
Cd89 O98 2.378 . S
O90 Cd91 2.385 . S
O90 C95 1.255 . S
Cd91 O90 2.385 . S
Cd91 O92 2.317 . S
O92 Cd91 2.317 . S
O92 C93 1.232 . S
C93 O92 1.232 . S
C93 O94 1.218 . S
O94 C93 1.218 . S
C95 O88 1.275 . S
C95 O90 1.255 . S
C96 O97 1.258 . S
C96 O98 1.256 . S
O97 Cd89 2.381 . S
O97 C96 1.258 . S
O98 Cd89 2.378 . S
O98 C96 1.256 . S
O99 Cd100 2.300 . S
O99 C106 1.275 . S
Cd100 O99 2.300 . S
Cd100 O108 2.381 . S
Cd100 O109 2.378 . S
O101 Cd102 2.385 . S
O101 C106 1.255 . S
Cd102 O101 2.385 . S
Cd102 O103 2.317 . S
O103 Cd102 2.317 . S
O103 C104 1.232 . S
C104 O103 1.232 . S
C104 O105 1.218 . S
O105 C104 1.218 . S
C106 O99 1.275 . S
C106 O101 1.255 . S
C107 O108 1.258 . S
C107 O109 1.256 . S
O108 Cd100 2.381 . S
O108 C107 1.258 . S
O109 Cd100 2.378 . S
O109 C107 1.256 . S
O110 Cd111 2.300 . S
O110 C117 1.275 . S
Cd111 O110 2.300 . S
Cd111 O119 2.381 . S
Cd111 O120 2.378 . S
O112 Cd113 2.385 . S
O112 C117 1.255 . S
Cd113 O112 2.385 . S
Cd113 O114 2.317 . S
O114 Cd113 2.317 . S
O114 C115 1.232 . S
C115 O114 1.232 . S
C115 O116 1.218 . S
O116 C115 1.218 . S
C117 O110 1.275 . S
C117 O112 1.255 . S
C118 O119 1.258 . S
C118 O120 1.256 . S
O119 Cd111 2.381 . S
O119 C118 1.258 . S
O120 Cd111 2.378 . S
O120 C118 1.256 . S
O121 Cd122 2.300 . S
O121 C128 1.275 . S
Cd122 O121 2.300 . S
Cd122 O130 2.381 . S
Cd122 O131 2.378 . S
O123 Cd124 2.385 . S
O123 C128 1.255 . S
Cd124 O123 2.385 . S
Cd124 O125 2.317 . S
O125 Cd124 2.317 . S
O125 C126 1.232 . S
C126 O125 1.232 . S
C126 O127 1.218 . S
O127 C126 1.218 . S
C128 O121 1.275 . S
C128 O123 1.255 . S
C129 O130 1.258 . S
C129 O131 1.256 . S
O130 Cd122 2.381 . S
O130 C129 1.258 . S
O131 Cd122 2.378 . S
O131 C129 1.256 . S
O132 Cd133 2.300 . S
O132 C139 1.275 . S
Cd133 O132 2.300 . S
Cd133 O141 2.381 . S
Cd133 O142 2.378 . S
O134 Cd135 2.385 . S
O134 C139 1.255 . S
Cd135 O134 2.385 . S
Cd135 O136 2.317 . S
O136 Cd135 2.317 . S
O136 C137 1.232 . S
C137 O136 1.232 . S
C137 O138 1.218 . S
O138 C137 1.218 . S
C139 O132 1.275 . S
C139 O134 1.255 . S
C140 O141 1.258 . S
C140 O142 1.256 . S
O141 Cd133 2.381 . S
O141 C140 1.258 . S
O142 Cd133 2.378 . S
O142 C140 1.256 . S
O143 Cd144 2.300 . S
O143 C150 1.275 . S
Cd144 O143 2.300 . S
Cd144 O152 2.381 . S
Cd144 O153 2.378 . S
O145 Cd146 2.385 . S
O145 C150 1.255 . S
Cd146 O145 2.385 . S
Cd146 O147 2.317 . S
O147 Cd146 2.317 . S
O147 C148 1.232 . S
C148 O147 1.232 . S
C148 O149 1.218 . S
O149 C148 1.218 . S
C150 O143 1.275 . S
C150 O145 1.255 . S
C151 O152 1.258 . S
C151 O153 1.256 . S
O152 Cd144 2.381 . S
O152 C151 1.258 . S
O153 Cd144 2.378 . S
O153 C151 1.256 . S
O154 Cd155 2.300 . S
O154 C161 1.275 . S
Cd155 O154 2.300 . S
Cd155 O163 2.381 . S
Cd155 O164 2.378 . S
O156 Cd157 2.385 . S
O156 C161 1.255 . S
Cd157 O156 2.385 . S
Cd157 O158 2.317 . S
O158 Cd157 2.317 . S
O158 C159 1.232 . S
C159 O158 1.232 . S
C159 O160 1.218 . S
O160 C159 1.218 . S
C161 O154 1.275 . S
C161 O156 1.255 . S
C162 O163 1.258 . S
C162 O164 1.256 . S
O163 Cd155 2.381 . S
O163 C162 1.258 . S
O164 Cd155 2.378 . S
O164 C162 1.256 . S
O165 Cd166 2.300 . S
O165 C172 1.275 . S
Cd166 O165 2.300 . S
Cd166 O174 2.381 . S
Cd166 O175 2.378 . S
O167 Cd168 2.385 . S
O167 C172 1.255 . S
Cd168 O167 2.385 . S
Cd168 O169 2.317 . S
O169 Cd168 2.317 . S
O169 C170 1.232 . S
C170 O169 1.232 . S
C170 O171 1.218 . S
O171 C170 1.218 . S
C172 O165 1.275 . S
C172 O167 1.255 . S
C173 O174 1.258 . S
C173 O175 1.256 . S
O174 Cd166 2.381 . S
O174 C173 1.258 . S
O175 Cd166 2.378 . S
O175 C173 1.256 . S
O176 Cd177 2.300 . S
O176 C183 1.275 . S
Cd177 O176 2.300 . S
Cd177 O185 2.381 . S
Cd177 O186 2.378 . S
O178 Cd179 2.385 . S
O178 C183 1.255 . S
Cd179 O178 2.385 . S
Cd179 O180 2.317 . S
O180 Cd179 2.317 . S
O180 C181 1.232 . S
C181 O180 1.232 . S
C181 O182 1.218 . S
O182 C181 1.218 . S
C183 O176 1.275 . S
C183 O178 1.255 . S
C184 O185 1.258 . S
C184 O186 1.256 . S
O185 Cd177 2.381 . S
O185 C184 1.258 . S
O186 Cd177 2.378 . S
O186 C184 1.256 . S
O187 Cd188 2.300 . S
O187 C194 1.275 . S
Cd188 O187 2.300 . S
Cd188 O196 2.381 . S
Cd188 O197 2.378 . S
O189 Cd190 2.385 . S
O189 C194 1.255 . S
Cd190 O189 2.385 . S
Cd190 O191 2.317 . S
O191 Cd190 2.317 . S
O191 C192 1.232 . S
C192 O191 1.232 . S
C192 O193 1.218 . S
O193 C192 1.218 . S
C194 O187 1.275 . S
C194 O189 1.255 . S
C195 O196 1.258 . S
C195 O197 1.256 . S
O196 Cd188 2.381 . S
O196 C195 1.258 . S
O197 Cd188 2.378 . S
O197 C195 1.256 . S
O198 Cd199 2.300 . S
O198 C205 1.275 . S
Cd199 O198 2.300 . S
Cd199 O207 2.381 . S
Cd199 O208 2.378 . S
O200 Cd201 2.385 . S
O200 C205 1.255 . S
Cd201 O200 2.385 . S
Cd201 O202 2.317 . S
O202 Cd201 2.317 . S
O202 C203 1.232 . S
C203 O202 1.232 . S
C203 O204 1.218 . S
O204 C203 1.218 . S
C205 O198 1.275 . S
C205 O200 1.255 . S
C206 O207 1.258 . S
C206 O208 1.256 . S
O207 Cd199 2.381 . S
O207 C206 1.258 . S
O208 Cd199 2.378 . S
O208 C206 1.256 . S
O209 Cd210 2.300 . S
O209 C216 1.275 . S
Cd210 O209 2.300 . S
Cd210 O218 2.381 . S
Cd210 O219 2.378 . S
O211 Cd212 2.385 . S
O211 C216 1.255 . S
Cd212 O211 2.385 . S
Cd212 O213 2.317 . S
O213 Cd212 2.317 . S
O213 C214 1.232 . S
C214 O213 1.232 . S
C214 O215 1.218 . S
O215 C214 1.218 . S
C216 O209 1.275 . S
C216 O211 1.255 . S
C217 O218 1.258 . S
C217 O219 1.256 . S
O218 Cd210 2.381 . S
O218 C217 1.258 . S
O219 Cd210 2.378 . S
O219 C217 1.256 . S
O220 Cd221 2.300 . S
O220 C227 1.275 . S
Cd221 O220 2.300 . S
Cd221 O229 2.381 . S
Cd221 O230 2.378 . S
O222 Cd223 2.385 . S
O222 C227 1.255 . S
Cd223 O222 2.385 . S
Cd223 O224 2.317 . S
O224 Cd223 2.317 . S
O224 C225 1.232 . S
C225 O224 1.232 . S
C225 O226 1.218 . S
O226 C225 1.218 . S
C227 O220 1.275 . S
C227 O222 1.255 . S
C228 O229 1.258 . S
C228 O230 1.256 . S
O229 Cd221 2.381 . S
O229 C228 1.258 . S
O230 Cd221 2.378 . S
O230 C228 1.256 . S
O231 Cd232 2.300 . S
O231 C238 1.275 . S
Cd232 O231 2.300 . S
Cd232 O240 2.381 . S
Cd232 O241 2.378 . S
O233 Cd234 2.385 . S
O233 C238 1.255 . S
Cd234 O233 2.385 . S
Cd234 O235 2.317 . S
O235 Cd234 2.317 . S
O235 C236 1.232 . S
C236 O235 1.232 . S
C236 O237 1.218 . S
O237 C236 1.218 . S
C238 O231 1.275 . S
C238 O233 1.255 . S
C239 O240 1.258 . S
C239 O241 1.256 . S
O240 Cd232 2.381 . S
O240 C239 1.258 . S
O241 Cd232 2.378 . S
O241 C239 1.256 . S
O242 Cd243 2.300 . S
O242 C249 1.275 . S
Cd243 O242 2.300 . S
Cd243 O251 2.381 . S
Cd243 O252 2.378 . S
O244 Cd245 2.385 . S
O244 C249 1.255 . S
Cd245 O244 2.385 . S
Cd245 O246 2.317 . S
O246 Cd245 2.317 . S
O246 C247 1.232 . S
C247 O246 1.232 . S
C247 O248 1.218 . S
O248 C247 1.218 . S
C249 O242 1.275 . S
C249 O244 1.255 . S
C250 O251 1.258 . S
C250 O252 1.256 . S
O251 Cd243 2.381 . S
O251 C250 1.258 . S
O252 Cd243 2.378 . S
O252 C250 1.256 . S
O253 Cd254 2.300 . S
O253 C260 1.275 . S
Cd254 O253 2.300 . S
Cd254 O262 2.381 . S
Cd254 O263 2.378 . S
O255 Cd256 2.385 . S
O255 C260 1.255 . S
Cd256 O255 2.385 . S
Cd256 O257 2.317 . S
O257 Cd256 2.317 . S
O257 C258 1.232 . S
C258 O257 1.232 . S
C258 O259 1.218 . S
O259 C258 1.218 . S
C260 O253 1.275 . S
C260 O255 1.255 . S
C261 O262 1.258 . S
C261 O263 1.256 . S
O262 Cd254 2.381 . S
O262 C261 1.258 . S
O263 Cd254 2.378 . S
O263 C261 1.256 . S
O264 Cd265 2.300 . S
O264 C271 1.275 . S
Cd265 O264 2.300 . S
Cd265 O273 2.381 . S
Cd265 O274 2.378 . S
O266 Cd267 2.385 . S
O266 C271 1.255 . S
Cd267 O266 2.385 . S
Cd267 O268 2.317 . S
O268 Cd267 2.317 . S
O268 C269 1.232 . S
C269 O268 1.232 . S
C269 O270 1.218 . S
O270 C269 1.218 . S
C271 O264 1.275 . S
C271 O266 1.255 . S
C272 O273 1.258 . S
C272 O274 1.256 . S
O273 Cd265 2.381 . S
O273 C272 1.258 . S
O274 Cd265 2.378 . S
O274 C272 1.256 . S
O275 Cd276 2.300 . S
O275 C282 1.275 . S
Cd276 O275 2.300 . S
Cd276 O284 2.381 . S
Cd276 O285 2.378 . S
O277 Cd278 2.385 . S
O277 C282 1.255 . S
Cd278 O277 2.385 . S
Cd278 O279 2.317 . S
O279 Cd278 2.317 . S
O279 C280 1.232 . S
C280 O279 1.232 . S
C280 O281 1.218 . S
O281 C280 1.218 . S
C282 O275 1.275 . S
C282 O277 1.255 . S
C283 O284 1.258 . S
C283 O285 1.256 . S
O284 Cd276 2.381 . S
O284 C283 1.258 . S
O285 Cd276 2.378 . S
O285 C283 1.256 . S
O286 Cd287 2.300 . S
O286 C293 1.275 . S
Cd287 O286 2.300 . S
Cd287 O295 2.381 . S
Cd287 O296 2.378 . S
O288 Cd289 2.385 . S
O288 C293 1.255 . S
Cd289 O288 2.385 . S
Cd289 O290 2.317 . S
O290 Cd289 2.317 . S
O290 C291 1.232 . S
C291 O290 1.232 . S
C291 O292 1.218 . S
O292 C291 1.218 . S
C293 O286 1.275 . S
C293 O288 1.255 . S
C294 O295 1.258 . S
C294 O296 1.256 . S
O295 Cd287 2.381 . S
O295 C294 1.258 . S
O296 Cd287 2.378 . S
O296 C294 1.256 . S
O297 Cd298 2.300 . S
O297 C304 1.275 . S
Cd298 O297 2.300 . S
Cd298 O306 2.381 . S
Cd298 O307 2.378 . S
O299 Cd300 2.385 . S
O299 C304 1.255 . S
Cd300 O299 2.385 . S
Cd300 O301 2.317 . S
O301 Cd300 2.317 . S
O301 C302 1.232 . S
C302 O301 1.232 . S
C302 O303 1.218 . S
O303 C302 1.218 . S
C304 O297 1.275 . S
C304 O299 1.255 . S
C305 O306 1.258 . S
C305 O307 1.256 . S
O306 Cd298 2.381 . S
O306 C305 1.258 . S
O307 Cd298 2.378 . S
O307 C305 1.256 . S
O308 Cd309 2.300 . S
O308 C315 1.275 . S
Cd309 O308 2.300 . S
Cd309 O317 2.381 . S
Cd309 O318 2.378 . S
O310 Cd311 2.385 . S
O310 C315 1.255 . S
Cd311 O310 2.385 . S
Cd311 O312 2.317 . S
O312 Cd311 2.317 . S
O312 C313 1.232 . S
C313 O312 1.232 . S
C313 O314 1.218 . S
O314 C313 1.218 . S
C315 O308 1.275 . S
C315 O310 1.255 . S
C316 O317 1.258 . S
C316 O318 1.256 . S
O317 Cd309 2.381 . S
O317 C316 1.258 . S
O318 Cd309 2.378 . S
O318 C316 1.256 . S
O319 Cd320 2.300 . S
O319 C326 1.275 . S
Cd320 O319 2.300 . S
Cd320 O328 2.381 . S
Cd320 O329 2.378 . S
O321 Cd322 2.385 . S
O321 C326 1.255 . S
Cd322 O321 2.385 . S
Cd322 O323 2.317 . S
O323 Cd322 2.317 . S
O323 C324 1.232 . S
C324 O323 1.232 . S
C324 O325 1.218 . S
O325 C324 1.218 . S
C326 O319 1.275 . S
C326 O321 1.255 . S
C327 O328 1.258 . S
C327 O329 1.256 . S
O328 Cd320 2.381 . S
O328 C327 1.258 . S
O329 Cd320 2.378 . S
O329 C327 1.256 . S
O330 Cd331 2.300 . S
O330 C337 1.275 . S
Cd331 O330 2.300 . S
Cd331 O339 2.381 . S
Cd331 O340 2.378 . S
O332 Cd333 2.385 . S
O332 C337 1.255 . S
Cd333 O332 2.385 . S
Cd333 O334 2.317 . S
O334 Cd333 2.317 . S
O334 C335 1.232 . S
C335 O334 1.232 . S
C335 O336 1.218 . S
O336 C335 1.218 . S
C337 O330 1.275 . S
C337 O332 1.255 . S
C338 O339 1.258 . S
C338 O340 1.256 . S
O339 Cd331 2.381 . S
O339 C338 1.258 . S
O340 Cd331 2.378 . S
O340 C338 1.256 . S
O341 Cd342 2.300 . S
O341 C348 1.275 . S
Cd342 O341 2.300 . S
Cd342 O350 2.381 . S
Cd342 O351 2.378 . S
O343 Cd344 2.385 . S
O343 C348 1.255 . S
Cd344 O343 2.385 . S
Cd344 O345 2.317 . S
O345 Cd344 2.317 . S
O345 C346 1.232 . S
C346 O345 1.232 . S
C346 O347 1.218 . S
O347 C346 1.218 . S
C348 O341 1.275 . S
C348 O343 1.255 . S
C349 O350 1.258 . S
C349 O351 1.256 . S
O350 Cd342 2.381 . S
O350 C349 1.258 . S
O351 Cd342 2.378 . S
O351 C349 1.256 . S
H352 C371 0.949 . S
H353 C372 0.950 . S
H354 C374 0.950 . S
H355 C375 0.950 . S
H356 C377 0.950 . S
H357 C380 0.950 . S
H358 C381 0.950 . S
H359 C383 0.951 . S
H360 C384 0.949 . S
H361 C386 0.949 . S
H362 C387 0.950 . S
H363 C389 0.950 . S
H364 C390 0.950 . S
H365 C392 0.950 . S
H366 C395 0.950 . S
H367 C396 0.950 . S
H368 C398 0.951 . S
H369 C399 0.949 . S
C370 C371 1.376 . S
C370 C375 1.386 1_554 S
C370 C376 1.483 . S
C371 H352 0.949 . S
C371 C370 1.376 . S
C371 C372 1.397 1_554 S
C372 H353 0.950 . S
C372 C371 1.397 1_556 S
C372 C373 1.391 . S
C373 C372 1.391 . S
C373 C374 1.405 . S
C374 H354 0.950 . S
C374 C373 1.405 . S
C374 C375 1.367 . S
C375 H355 0.950 . S
C375 C370 1.386 1_556 S
C375 C374 1.367 . S
C376 C370 1.483 . S
C376 C377 1.382 . S
C376 C378 1.403 . S
C377 H356 0.950 . S
C377 C376 1.382 . S
C377 C393 1.411 . S
C378 C376 1.403 . S
C378 C379 1.489 . S
C378 C392 1.411 . S
C379 C378 1.489 . S
C379 C380 1.383 . S
C379 C384 1.382 . S
C380 H357 0.950 . S
C380 C379 1.383 . S
C380 C381 1.395 1_554 S
C381 H358 0.950 . S
C381 C380 1.395 1_556 S
C381 C382 1.288 . S
C382 C381 1.288 . S
C382 C383 1.392 . S
C383 H359 0.951 . S
C383 C382 1.392 . S
C383 C384 1.392 1_556 S
C384 H360 0.949 . S
C384 C379 1.382 . S
C384 C383 1.392 1_554 S
C385 C386 1.376 . S
C385 C390 1.386 . S
C385 C391 1.483 . S
C386 H361 0.949 . S
C386 C385 1.376 . S
C386 C387 1.397 . S
C387 H362 0.950 . S
C387 C386 1.397 . S
C387 C388 1.391 . S
C388 C387 1.391 . S
C388 C389 1.405 . S
C389 H363 0.950 . S
C389 C388 1.405 . S
C389 C390 1.367 . S
C390 H364 0.950 . S
C390 C385 1.386 . S
C390 C389 1.367 . S
C391 C385 1.483 . S
C391 C392 1.382 . S
C391 C393 1.403 . S
C392 H365 0.950 . S
C392 C378 1.411 . S
C392 C391 1.382 . S
C393 C377 1.411 . S
C393 C391 1.403 . S
C393 C394 1.489 . S
C394 C393 1.489 . S
C394 C395 1.383 . S
C394 C399 1.382 . S
C395 H366 0.950 . S
C395 C394 1.383 . S
C395 C396 1.395 . S
C396 H367 0.950 . S
C396 C395 1.395 . S
C396 C397 1.288 . S
C397 C396 1.288 . S
C397 C398 1.392 . S
C398 H368 0.951 . S
C398 C397 1.392 . S
C398 C399 1.392 . S
C399 H369 0.949 . S
C399 C394 1.382 . S
C399 C398 1.392 . S
H400 C419 0.949 . S
H401 C420 0.950 . S
H402 C422 0.950 . S
H403 C423 0.950 . S
H404 C425 0.950 . S
H405 C428 0.950 . S
H406 C429 0.950 . S
H407 C431 0.951 . S
H408 C432 0.949 . S
H409 C434 0.949 . S
H410 C435 0.950 . S
H411 C437 0.950 . S
H412 C438 0.950 . S
H413 C440 0.950 . S
H414 C443 0.950 . S
H415 C444 0.950 . S
H416 C446 0.951 . S
H417 C447 0.949 . S
C418 C419 1.376 . S
C418 C423 1.386 . S
C418 C424 1.483 . S
C419 H400 0.949 . S
C419 C418 1.376 . S
C419 C420 1.397 . S
C420 H401 0.950 . S
C420 C419 1.397 . S
C420 C421 1.391 . S
C421 C420 1.391 . S
C421 C422 1.405 . S
C422 H402 0.950 . S
C422 C421 1.405 . S
C422 C423 1.367 . S
C423 H403 0.950 . S
C423 C418 1.386 . S
C423 C422 1.367 . S
C424 C418 1.483 . S
C424 C425 1.382 . S
C424 C426 1.403 . S
C425 H404 0.950 . S
C425 C424 1.382 . S
C425 C441 1.411 1_556 S
C426 C424 1.403 . S
C426 C427 1.489 . S
C426 C440 1.411 1_556 S
C427 C426 1.489 . S
C427 C428 1.383 . S
C427 C432 1.382 . S
C428 H405 0.950 . S
C428 C427 1.383 . S
C428 C429 1.395 . S
C429 H406 0.950 . S
C429 C428 1.395 . S
C429 C430 1.288 . S
C430 C429 1.288 . S
C430 C431 1.392 . S
C431 H407 0.951 . S
C431 C430 1.392 . S
C431 C432 1.392 . S
C432 H408 0.949 . S
C432 C427 1.382 . S
C432 C431 1.392 . S
C433 C434 1.376 . S
C433 C438 1.386 . S
C433 C439 1.483 . S
C434 H409 0.949 . S
C434 C433 1.376 . S
C434 C435 1.397 . S
C435 H410 0.950 . S
C435 C434 1.397 . S
C435 C436 1.391 . S
C436 C435 1.391 . S
C436 C437 1.405 . S
C437 H411 0.950 . S
C437 C436 1.405 . S
C437 C438 1.367 . S
C438 H412 0.950 . S
C438 C433 1.386 . S
C438 C437 1.367 . S
C439 C433 1.483 . S
C439 C440 1.382 . S
C439 C441 1.403 . S
C440 H413 0.950 . S
C440 C426 1.411 1_554 S
C440 C439 1.382 . S
C441 C425 1.411 1_554 S
C441 C439 1.403 . S
C441 C442 1.489 . S
C442 C441 1.489 . S
C442 C443 1.383 . S
C442 C447 1.382 . S
C443 H414 0.950 . S
C443 C442 1.383 . S
C443 C444 1.395 . S
C444 H415 0.950 . S
C444 C443 1.395 . S
C444 C445 1.288 . S
C445 C444 1.288 . S
C445 C446 1.392 . S
C446 H416 0.951 . S
C446 C445 1.392 . S
C446 C447 1.392 . S
C447 H417 0.949 . S
C447 C442 1.382 . S
C447 C446 1.392 . S
H448 C467 0.949 . S
H449 C468 0.950 . S
H450 C470 0.950 . S
H451 C471 0.950 . S
H452 C473 0.950 . S
H453 C476 0.950 . S
H454 C477 0.950 . S
H455 C479 0.951 . S
H456 C480 0.949 . S
H457 C482 0.949 . S
H458 C483 0.950 . S
H459 C485 0.950 . S
H460 C486 0.962 . S
H461 C488 0.950 . S
H462 C491 0.949 . S
H463 C492 0.950 . S
H464 C494 0.954 . S
H465 C495 0.949 . S
C466 C467 1.376 . S
C466 C471 1.386 . S
C466 C472 1.483 . S
C467 H448 0.949 . S
C467 C466 1.376 . S
C467 C468 1.397 . S
C468 H449 0.950 . S
C468 C467 1.397 . S
C468 C469 1.391 . S
C469 C468 1.391 . S
C469 C470 1.405 . S
C470 H450 0.950 . S
C470 C469 1.405 . S
C470 C471 1.367 . S
C471 H451 0.950 . S
C471 C466 1.386 . S
C471 C470 1.367 . S
C472 C466 1.483 . S
C472 C473 1.382 . S
C472 C474 1.403 . S
C473 H452 0.950 . S
C473 C472 1.382 . S
C473 C489 1.411 . S
C474 C472 1.403 . S
C474 C475 1.489 . S
C474 C488 1.411 . S
C475 C474 1.489 . S
C475 C476 1.383 . S
C475 C480 1.382 . S
C476 H453 0.950 . S
C476 C475 1.383 . S
C476 C477 1.395 . S
C477 H454 0.950 . S
C477 C476 1.395 . S
C477 C478 1.288 . S
C478 C477 1.288 . S
C478 C479 1.392 . S
C479 H455 0.951 . S
C479 C478 1.392 . S
C479 C480 1.392 . S
C480 H456 0.949 . S
C480 C475 1.382 . S
C480 C479 1.392 . S
C481 C482 1.376 . S
C481 C486 1.417 . S
C481 C487 1.483 . S
C482 H457 0.949 . S
C482 C481 1.376 . S
C482 C483 1.397 1_554 S
C483 H458 0.950 . S
C483 C482 1.397 1_556 S
C483 C484 1.391 . S
C484 C483 1.391 . S
C484 C485 1.405 . S
C485 H459 0.950 . S
C485 C484 1.405 . S
C485 C486 1.327 1_556 S
C486 H460 0.962 . S
C486 C481 1.417 . S
C486 C485 1.327 1_554 S
C487 C481 1.483 . S
C487 C488 1.382 . S
C487 C489 1.403 . S
C488 H461 0.950 . S
C488 C474 1.411 . S
C488 C487 1.382 . S
C489 C473 1.411 . S
C489 C487 1.403 . S
C489 C490 1.489 . S
C490 C489 1.489 . S
C490 C491 1.333 1_554 S
C490 C495 1.382 . S
C491 H462 0.949 . S
C491 C490 1.333 1_556 S
C491 C492 1.450 . S
C492 H463 0.950 . S
C492 C491 1.450 . S
C492 C493 1.288 . S
C493 C492 1.288 . S
C493 C494 1.380 1_556 S
C494 H464 0.954 . S
C494 C493 1.380 1_554 S
C494 C495 1.405 . S
C495 H465 0.949 . S
C495 C490 1.382 . S
C495 C494 1.405 . S
H496 C515 0.949 . S
H497 C516 0.950 . S
H498 C518 0.950 . S
H499 C519 0.950 . S
H500 C521 0.950 . S
H501 C524 0.950 . S
H502 C525 0.950 . S
H503 C527 0.951 . S
H504 C528 0.949 . S
H505 C530 0.949 . S
H506 C531 0.950 . S
H507 C533 0.950 . S
H508 C534 0.950 . S
H509 C536 0.950 . S
H510 C539 0.950 . S
H511 C540 0.950 . S
H512 C542 0.951 . S
H513 C543 0.949 . S
C514 C515 1.376 . S
C514 C519 1.386 . S
C514 C520 1.483 . S
C515 H496 0.949 . S
C515 C514 1.376 . S
C515 C516 1.397 . S
C516 H497 0.950 . S
C516 C515 1.397 . S
C516 C517 1.391 . S
C517 C516 1.391 . S
C517 C518 1.405 . S
C518 H498 0.950 . S
C518 C517 1.405 . S
C518 C519 1.367 . S
C519 H499 0.950 . S
C519 C514 1.386 . S
C519 C518 1.367 . S
C520 C514 1.483 . S
C520 C521 1.382 . S
C520 C522 1.403 . S
C521 H500 0.950 . S
C521 C520 1.382 . S
C521 C537 1.411 1_556 S
C522 C520 1.403 . S
C522 C523 1.489 . S
C522 C536 1.411 1_556 S
C523 C522 1.489 . S
C523 C524 1.383 . S
C523 C528 1.382 . S
C524 H501 0.950 . S
C524 C523 1.383 . S
C524 C525 1.395 . S
C525 H502 0.950 . S
C525 C524 1.395 . S
C525 C526 1.288 . S
C526 C525 1.288 . S
C526 C527 1.392 . S
C527 H503 0.951 . S
C527 C526 1.392 . S
C527 C528 1.392 . S
C528 H504 0.949 . S
C528 C523 1.382 . S
C528 C527 1.392 . S
C529 C530 1.376 . S
C529 C534 1.386 . S
C529 C535 1.483 . S
C530 H505 0.949 . S
C530 C529 1.376 . S
C530 C531 1.397 . S
C531 H506 0.950 . S
C531 C530 1.397 . S
C531 C532 1.391 . S
C532 C531 1.391 . S
C532 C533 1.405 . S
C533 H507 0.950 . S
C533 C532 1.405 . S
C533 C534 1.367 . S
C534 H508 0.950 . S
C534 C529 1.386 . S
C534 C533 1.367 . S
C535 C529 1.483 . S
C535 C536 1.382 . S
C535 C537 1.403 . S
C536 H509 0.950 . S
C536 C522 1.411 1_554 S
C536 C535 1.382 . S
C537 C521 1.411 1_554 S
C537 C535 1.403 . S
C537 C538 1.489 . S
C538 C537 1.489 . S
C538 C539 1.383 . S
C538 C543 1.382 . S
C539 H510 0.950 . S
C539 C538 1.383 . S
C539 C540 1.395 . S
C540 H511 0.950 . S
C540 C539 1.395 . S
C540 C541 1.288 . S
C541 C540 1.288 . S
C541 C542 1.392 . S
C542 H512 0.951 . S
C542 C541 1.392 . S
C542 C543 1.392 . S
C543 H513 0.949 . S
C543 C538 1.382 . S
C543 C542 1.392 . S
H544 C563 0.949 . S
H545 C564 0.950 . S
H546 C566 0.950 . S
H547 C567 0.950 . S
H548 C569 0.950 . S
H549 C572 0.950 . S
H550 C573 0.950 . S
H551 C575 0.951 . S
H552 C576 0.949 . S
H553 C578 0.949 . S
H554 C579 0.950 . S
H555 C581 0.950 . S
H556 C582 0.950 . S
H557 C584 0.950 . S
H558 C587 0.950 . S
H559 C588 0.950 . S
H560 C590 0.951 . S
H561 C591 0.949 . S
C562 C563 1.376 . S
C562 C567 1.386 . S
C562 C568 1.483 . S
C563 H544 0.949 . S
C563 C562 1.376 . S
C563 C564 1.397 . S
C564 H545 0.950 . S
C564 C563 1.397 . S
C564 C565 1.391 . S
C565 C564 1.391 . S
C565 C566 1.405 . S
C566 H546 0.950 . S
C566 C565 1.405 . S
C566 C567 1.367 . S
C567 H547 0.950 . S
C567 C562 1.386 . S
C567 C566 1.367 . S
C568 C562 1.483 . S
C568 C569 1.382 . S
C568 C570 1.403 . S
C569 H548 0.950 . S
C569 C568 1.382 . S
C569 C585 1.411 1_455 S
C570 C568 1.403 . S
C570 C571 1.489 . S
C570 C584 1.411 . S
C571 C570 1.489 . S
C571 C572 1.383 . S
C571 C576 1.382 . S
C572 H549 0.950 . S
C572 C571 1.383 . S
C572 C573 1.395 . S
C573 H550 0.950 . S
C573 C572 1.395 . S
C573 C574 1.288 . S
C574 C573 1.288 . S
C574 C575 1.392 . S
C575 H551 0.951 . S
C575 C574 1.392 . S
C575 C576 1.392 . S
C576 H552 0.949 . S
C576 C571 1.382 . S
C576 C575 1.392 . S
C577 C578 1.376 . S
C577 C582 1.386 . S
C577 C583 1.483 . S
C578 H553 0.949 . S
C578 C577 1.376 . S
C578 C579 1.397 . S
C579 H554 0.950 . S
C579 C578 1.397 . S
C579 C580 1.391 . S
C580 C579 1.391 . S
C580 C581 1.405 . S
C581 H555 0.950 . S
C581 C580 1.405 . S
C581 C582 1.367 . S
C582 H556 0.950 . S
C582 C577 1.386 . S
C582 C581 1.367 . S
C583 C577 1.483 . S
C583 C584 1.382 1_655 S
C583 C585 1.403 . S
C584 H557 0.950 . S
C584 C570 1.411 . S
C584 C583 1.382 1_455 S
C585 C569 1.411 1_655 S
C585 C583 1.403 . S
C585 C586 1.489 . S
C586 C585 1.489 . S
C586 C587 1.383 . S
C586 C591 1.382 . S
C587 H558 0.950 . S
C587 C586 1.383 . S
C587 C588 1.395 . S
C588 H559 0.950 . S
C588 C587 1.395 . S
C588 C589 1.288 . S
C589 C588 1.288 . S
C589 C590 1.392 . S
C590 H560 0.951 . S
C590 C589 1.392 . S
C590 C591 1.392 . S
C591 H561 0.949 . S
C591 C586 1.382 . S
C591 C590 1.392 . S
H592 C611 0.949 . S
H593 C612 0.950 . S
H594 C614 0.950 . S
H595 C615 0.950 . S
H596 C617 0.950 . S
H597 C620 0.950 . S
H598 C621 0.950 . S
H599 C623 0.951 . S
H600 C624 0.949 . S
H601 C626 0.949 . S
H602 C627 0.950 . S
H603 C629 0.950 . S
H604 C630 0.950 . S
H605 C632 0.950 . S
H606 C635 0.950 . S
H607 C636 0.950 . S
H608 C638 0.951 . S
H609 C639 0.949 . S
C610 C611 1.376 . S
C610 C615 1.386 . S
C610 C616 1.483 . S
C611 H592 0.949 . S
C611 C610 1.376 . S
C611 C612 1.397 . S
C612 H593 0.950 . S
C612 C611 1.397 . S
C612 C613 1.391 . S
C613 C612 1.391 . S
C613 C614 1.405 . S
C614 H594 0.950 . S
C614 C613 1.405 . S
C614 C615 1.367 . S
C615 H595 0.950 . S
C615 C610 1.386 . S
C615 C614 1.367 . S
C616 C610 1.483 . S
C616 C617 1.382 . S
C616 C618 1.403 . S
C617 H596 0.950 . S
C617 C616 1.382 . S
C617 C633 1.411 1_545 S
C618 C616 1.403 . S
C618 C619 1.489 . S
C618 C632 1.411 . S
C619 C618 1.489 . S
C619 C620 1.383 . S
C619 C624 1.382 . S
C620 H597 0.950 . S
C620 C619 1.383 . S
C620 C621 1.395 . S
C621 H598 0.950 . S
C621 C620 1.395 . S
C621 C622 1.288 . S
C622 C621 1.288 . S
C622 C623 1.392 . S
C623 H599 0.951 . S
C623 C622 1.392 . S
C623 C624 1.392 . S
C624 H600 0.949 . S
C624 C619 1.382 . S
C624 C623 1.392 . S
C625 C626 1.376 . S
C625 C630 1.386 . S
C625 C631 1.483 . S
C626 H601 0.949 . S
C626 C625 1.376 . S
C626 C627 1.397 . S
C627 H602 0.950 . S
C627 C626 1.397 . S
C627 C628 1.391 . S
C628 C627 1.391 . S
C628 C629 1.405 . S
C629 H603 0.950 . S
C629 C628 1.405 . S
C629 C630 1.367 . S
C630 H604 0.950 . S
C630 C625 1.386 . S
C630 C629 1.367 . S
C631 C625 1.483 . S
C631 C632 1.382 1_565 S
C631 C633 1.403 . S
C632 H605 0.950 . S
C632 C618 1.411 . S
C632 C631 1.382 1_545 S
C633 C617 1.411 1_565 S
C633 C631 1.403 . S
C633 C634 1.489 . S
C634 C633 1.489 . S
C634 C635 1.383 . S
C634 C639 1.382 . S
C635 H606 0.950 . S
C635 C634 1.383 . S
C635 C636 1.395 . S
C636 H607 0.950 . S
C636 C635 1.395 . S
C636 C637 1.288 . S
C637 C636 1.288 . S
C637 C638 1.392 . S
C638 H608 0.951 . S
C638 C637 1.392 . S
C638 C639 1.392 . S
C639 H609 0.949 . S
C639 C634 1.382 . S
C639 C638 1.392 . S
H640 C659 0.949 . S
H641 C660 0.950 . S
H642 C662 0.950 . S
H643 C663 0.950 . S
H644 C665 0.950 . S
H645 C668 0.950 . S
H646 C669 0.950 . S
H647 C671 0.951 . S
H648 C672 0.949 . S
H649 C674 0.949 . S
H650 C675 0.950 . S
H651 C677 0.950 . S
H652 C678 0.950 . S
H653 C680 0.950 . S
H654 C683 0.950 . S
H655 C684 0.950 1_655 S
H656 C686 0.951 . S
H657 C687 0.949 . S
C658 C659 1.376 . S
C658 C663 1.386 . S
C658 C664 1.483 . S
C659 H640 0.949 . S
C659 C658 1.376 . S
C659 C660 1.397 . S
C660 H641 0.950 . S
C660 C659 1.397 . S
C660 C661 1.391 . S
C661 C660 1.391 . S
C661 C662 1.405 . S
C662 H642 0.950 . S
C662 C661 1.405 . S
C662 C663 1.367 . S
C663 H643 0.950 . S
C663 C658 1.386 . S
C663 C662 1.367 . S
C664 C658 1.483 . S
C664 C665 1.382 . S
C664 C666 1.403 . S
C665 H644 0.950 . S
C665 C664 1.382 . S
C665 C681 1.411 . S
C666 C664 1.403 . S
C666 C667 1.489 . S
C666 C680 1.411 . S
C667 C666 1.489 . S
C667 C668 1.383 . S
C667 C672 1.382 . S
C668 H645 0.950 . S
C668 C667 1.383 . S
C668 C669 1.395 . S
C669 H646 0.950 . S
C669 C668 1.395 . S
C669 C670 1.288 . S
C670 C669 1.288 . S
C670 C671 1.392 . S
C671 H647 0.951 . S
C671 C670 1.392 . S
C671 C672 1.392 . S
C672 H648 0.949 . S
C672 C667 1.382 . S
C672 C671 1.392 . S
C673 C674 1.376 . S
C673 C678 1.386 . S
C673 C679 1.483 . S
C674 H649 0.949 . S
C674 C673 1.376 . S
C674 C675 1.397 . S
C675 H650 0.950 . S
C675 C674 1.397 . S
C675 C676 1.391 . S
C676 C675 1.391 . S
C676 C677 1.405 . S
C677 H651 0.950 . S
C677 C676 1.405 . S
C677 C678 1.367 . S
C678 H652 0.950 . S
C678 C673 1.386 . S
C678 C677 1.367 . S
C679 C673 1.483 . S
C679 C680 1.382 . S
C679 C681 1.403 . S
C680 H653 0.950 . S
C680 C666 1.411 . S
C680 C679 1.382 . S
C681 C665 1.411 . S
C681 C679 1.403 . S
C681 C682 1.489 . S
C682 C681 1.489 . S
C682 C683 1.383 . S
C682 C687 1.382 . S
C683 H654 0.950 . S
C683 C682 1.383 . S
C683 C684 1.395 . S
C684 H655 0.950 1_455 S
C684 C683 1.395 . S
C684 C685 1.280 1_455 S
C685 C684 1.280 1_655 S
C685 C686 1.362 1_655 S
C686 H656 0.951 . S
C686 C685 1.362 1_455 S
C686 C687 1.392 . S
C687 H657 0.949 . S
C687 C682 1.382 . S
C687 C686 1.392 . S
H688 C707 0.949 . S
H689 C708 0.950 . S
H690 C710 0.950 . S
H691 C711 0.950 . S
H692 C713 0.950 . S
H693 C716 0.950 . S
H694 C717 0.950 . S
H695 C719 0.951 . S
H696 C720 0.949 . S
H697 C722 0.932 1_545 S
H698 C723 0.950 . S
H699 C725 0.950 . S
H700 C726 0.950 . S
H701 C728 0.950 . S
H702 C731 0.950 . S
H703 C732 0.950 . S
H704 C734 0.951 . S
H705 C735 0.949 . S
C706 C707 1.376 . S
C706 C711 1.386 . S
C706 C712 1.483 . S
C707 H688 0.949 . S
C707 C706 1.376 . S
C707 C708 1.397 . S
C708 H689 0.950 . S
C708 C707 1.397 . S
C708 C709 1.391 . S
C709 C708 1.391 . S
C709 C710 1.405 . S
C710 H690 0.950 . S
C710 C709 1.405 . S
C710 C711 1.367 . S
C711 H691 0.950 . S
C711 C706 1.386 . S
C711 C710 1.367 . S
C712 C706 1.483 . S
C712 C713 1.382 . S
C712 C714 1.403 . S
C713 H692 0.950 . S
C713 C712 1.382 . S
C713 C729 1.411 . S
C714 C712 1.403 . S
C714 C715 1.489 . S
C714 C728 1.411 . S
C715 C714 1.489 . S
C715 C716 1.383 . S
C715 C720 1.382 . S
C716 H693 0.950 . S
C716 C715 1.383 . S
C716 C717 1.395 . S
C717 H694 0.950 . S
C717 C716 1.395 . S
C717 C718 1.288 . S
C718 C717 1.288 . S
C718 C719 1.392 . S
C719 H695 0.951 . S
C719 C718 1.392 . S
C719 C720 1.392 . S
C720 H696 0.949 . S
C720 C715 1.382 . S
C720 C719 1.392 . S
C721 C722 1.376 . S
C721 C726 1.386 . S
C721 C727 1.483 1_565 S
C722 H697 0.932 1_565 S
C722 C721 1.376 . S
C722 C723 1.397 . S
C723 H698 0.950 . S
C723 C722 1.397 . S
C723 C724 1.391 . S
C724 C723 1.391 . S
C724 C725 1.405 . S
C725 H699 0.950 . S
C725 C724 1.405 . S
C725 C726 1.367 . S
C726 H700 0.950 . S
C726 C721 1.386 . S
C726 C725 1.367 . S
C727 C721 1.483 1_545 S
C727 C728 1.382 . S
C727 C729 1.403 . S
C728 H701 0.950 . S
C728 C714 1.411 . S
C728 C727 1.382 . S
C729 C713 1.411 . S
C729 C727 1.403 . S
C729 C730 1.489 1_545 S
C730 C729 1.489 1_565 S
C730 C731 1.383 . S
C730 C735 1.382 . S
C731 H702 0.950 . S
C731 C730 1.383 . S
C731 C732 1.395 . S
C732 H703 0.950 . S
C732 C731 1.395 . S
C732 C733 1.288 . S
C733 C732 1.288 . S
C733 C734 1.392 . S
C734 H704 0.951 . S
C734 C733 1.392 . S
C734 C735 1.392 . S
C735 H705 0.949 . S
C735 C730 1.382 . S
C735 C734 1.392 . S
H736 C755 0.949 . S
H737 C756 0.950 . S
H738 C758 0.950 . S
H739 C759 0.950 . S
H740 C761 0.950 . S
H741 C764 0.950 . S
H742 C765 0.950 . S
H743 C767 0.951 . S
H744 C768 0.949 . S
H745 C770 0.949 . S
H746 C771 0.950 . S
H747 C773 0.950 . S
H748 C774 0.950 . S
H749 C776 0.950 . S
H750 C779 0.950 . S
H751 C780 0.950 . S
H752 C782 0.951 . S
H753 C783 0.949 . S
C754 C755 1.376 . S
C754 C759 1.386 . S
C754 C760 1.483 . S
C755 H736 0.949 . S
C755 C754 1.376 . S
C755 C756 1.397 . S
C756 H737 0.950 . S
C756 C755 1.397 . S
C756 C757 1.391 . S
C757 C756 1.391 . S
C757 C758 1.405 . S
C758 H738 0.950 . S
C758 C757 1.405 . S
C758 C759 1.367 . S
C759 H739 0.950 . S
C759 C754 1.386 . S
C759 C758 1.367 . S
C760 C754 1.483 . S
C760 C761 1.382 . S
C760 C762 1.403 . S
C761 H740 0.950 . S
C761 C760 1.382 . S
C761 C777 1.411 1_455 S
C762 C760 1.403 . S
C762 C763 1.489 . S
C762 C776 1.411 . S
C763 C762 1.489 . S
C763 C764 1.383 . S
C763 C768 1.382 . S
C764 H741 0.950 . S
C764 C763 1.383 . S
C764 C765 1.395 . S
C765 H742 0.950 . S
C765 C764 1.395 . S
C765 C766 1.288 . S
C766 C765 1.288 . S
C766 C767 1.392 . S
C767 H743 0.951 . S
C767 C766 1.392 . S
C767 C768 1.392 . S
C768 H744 0.949 . S
C768 C763 1.382 . S
C768 C767 1.392 . S
C769 C770 1.376 . S
C769 C774 1.386 . S
C769 C775 1.483 . S
C770 H745 0.949 . S
C770 C769 1.376 . S
C770 C771 1.397 . S
C771 H746 0.950 . S
C771 C770 1.397 . S
C771 C772 1.391 . S
C772 C771 1.391 . S
C772 C773 1.405 . S
C773 H747 0.950 . S
C773 C772 1.405 . S
C773 C774 1.367 . S
C774 H748 0.950 . S
C774 C769 1.386 . S
C774 C773 1.367 . S
C775 C769 1.483 . S
C775 C776 1.382 1_655 S
C775 C777 1.403 . S
C776 H749 0.950 . S
C776 C762 1.411 . S
C776 C775 1.382 1_455 S
C777 C761 1.411 1_655 S
C777 C775 1.403 . S
C777 C778 1.489 . S
C778 C777 1.489 . S
C778 C779 1.383 . S
C778 C783 1.382 . S
C779 H750 0.950 . S
C779 C778 1.383 . S
C779 C780 1.395 . S
C780 H751 0.950 . S
C780 C779 1.395 . S
C780 C781 1.288 . S
C781 C780 1.288 . S
C781 C782 1.392 . S
C782 H752 0.951 . S
C782 C781 1.392 . S
C782 C783 1.392 . S
C783 H753 0.949 . S
C783 C778 1.382 . S
C783 C782 1.392 . S
H784 C803 0.949 . S
H785 C804 0.950 . S
H786 C806 0.950 . S
H787 C807 0.950 . S
H788 C809 0.950 . S
H789 C812 0.950 . S
H790 C813 0.950 . S
H791 C815 0.951 . S
H792 C816 0.949 . S
H793 C818 0.949 . S
H794 C819 0.950 . S
H795 C821 0.950 . S
H796 C822 0.950 . S
H797 C824 0.950 . S
H798 C827 0.950 . S
H799 C828 0.950 . S
H800 C830 0.951 . S
H801 C831 0.949 . S
C802 C803 1.376 . S
C802 C807 1.386 . S
C802 C808 1.483 . S
C803 H784 0.949 . S
C803 C802 1.376 . S
C803 C804 1.397 . S
C804 H785 0.950 . S
C804 C803 1.397 . S
C804 C805 1.391 . S
C805 C804 1.391 . S
C805 C806 1.405 . S
C806 H786 0.950 . S
C806 C805 1.405 . S
C806 C807 1.367 . S
C807 H787 0.950 . S
C807 C802 1.386 . S
C807 C806 1.367 . S
C808 C802 1.483 . S
C808 C809 1.382 . S
C808 C810 1.403 . S
C809 H788 0.950 . S
C809 C808 1.382 . S
C809 C825 1.411 1_545 S
C810 C808 1.403 . S
C810 C811 1.489 . S
C810 C824 1.411 . S
C811 C810 1.489 . S
C811 C812 1.383 . S
C811 C816 1.382 . S
C812 H789 0.950 . S
C812 C811 1.383 . S
C812 C813 1.395 . S
C813 H790 0.950 . S
C813 C812 1.395 . S
C813 C814 1.288 . S
C814 C813 1.288 . S
C814 C815 1.392 . S
C815 H791 0.951 . S
C815 C814 1.392 . S
C815 C816 1.392 . S
C816 H792 0.949 . S
C816 C811 1.382 . S
C816 C815 1.392 . S
C817 C818 1.376 . S
C817 C822 1.386 . S
C817 C823 1.483 . S
C818 H793 0.949 . S
C818 C817 1.376 . S
C818 C819 1.397 . S
C819 H794 0.950 . S
C819 C818 1.397 . S
C819 C820 1.391 . S
C820 C819 1.391 . S
C820 C821 1.405 . S
C821 H795 0.950 . S
C821 C820 1.405 . S
C821 C822 1.367 . S
C822 H796 0.950 . S
C822 C817 1.386 . S
C822 C821 1.367 . S
C823 C817 1.483 . S
C823 C824 1.382 1_565 S
C823 C825 1.403 . S
C824 H797 0.950 . S
C824 C810 1.411 . S
C824 C823 1.382 1_545 S
C825 C809 1.411 1_565 S
C825 C823 1.403 . S
C825 C826 1.489 . S
C826 C825 1.489 . S
C826 C827 1.383 . S
C826 C831 1.382 . S
C827 H798 0.950 . S
C827 C826 1.383 . S
C827 C828 1.395 . S
C828 H799 0.950 . S
C828 C827 1.395 . S
C828 C829 1.288 . S
C829 C828 1.288 . S
C829 C830 1.392 . S
C830 H800 0.951 . S
C830 C829 1.392 . S
C830 C831 1.392 . S
C831 H801 0.949 . S
C831 C826 1.382 . S
C831 C830 1.392 . S
H832 C851 0.949 . S
H833 C852 0.950 . S
H834 C854 0.950 . S
H835 C855 0.950 . S
H836 C857 0.950 . S
H837 C860 0.950 . S
H838 C861 0.950 1_655 S
H839 C863 0.951 . S
H840 C864 0.949 . S
H841 C866 0.949 . S
H842 C867 0.950 . S
H843 C869 0.950 . S
H844 C870 0.950 . S
H845 C872 0.950 . S
H846 C875 0.950 . S
H847 C876 0.950 . S
H848 C878 0.951 . S
H849 C879 0.949 . S
C850 C851 1.376 . S
C850 C855 1.386 . S
C850 C856 1.483 . S
C851 H832 0.949 . S
C851 C850 1.376 . S
C851 C852 1.397 . S
C852 H833 0.950 . S
C852 C851 1.397 . S
C852 C853 1.391 . S
C853 C852 1.391 . S
C853 C854 1.405 . S
C854 H834 0.950 . S
C854 C853 1.405 . S
C854 C855 1.367 . S
C855 H835 0.950 . S
C855 C850 1.386 . S
C855 C854 1.367 . S
C856 C850 1.483 . S
C856 C857 1.382 . S
C856 C858 1.403 . S
C857 H836 0.950 . S
C857 C856 1.382 . S
C857 C873 1.411 . S
C858 C856 1.403 . S
C858 C859 1.489 . S
C858 C872 1.411 . S
C859 C858 1.489 . S
C859 C860 1.383 . S
C859 C864 1.382 . S
C860 H837 0.950 . S
C860 C859 1.383 . S
C860 C861 1.395 . S
C861 H838 0.950 1_455 S
C861 C860 1.395 . S
C861 C862 1.285 1_455 S
C862 C861 1.285 1_655 S
C862 C863 1.379 1_655 S
C863 H839 0.951 . S
C863 C862 1.379 1_455 S
C863 C864 1.392 . S
C864 H840 0.949 . S
C864 C859 1.382 . S
C864 C863 1.392 . S
C865 C866 1.376 . S
C865 C870 1.386 . S
C865 C871 1.483 . S
C866 H841 0.949 . S
C866 C865 1.376 . S
C866 C867 1.397 . S
C867 H842 0.950 . S
C867 C866 1.397 . S
C867 C868 1.391 . S
C868 C867 1.391 . S
C868 C869 1.405 . S
C869 H843 0.950 . S
C869 C868 1.405 . S
C869 C870 1.367 . S
C870 H844 0.950 . S
C870 C865 1.386 . S
C870 C869 1.367 . S
C871 C865 1.483 . S
C871 C872 1.382 . S
C871 C873 1.403 . S
C872 H845 0.950 . S
C872 C858 1.411 . S
C872 C871 1.382 . S
C873 C857 1.411 . S
C873 C871 1.403 . S
C873 C874 1.489 . S
C874 C873 1.489 . S
C874 C875 1.383 . S
C874 C879 1.382 . S
C875 H846 0.950 . S
C875 C874 1.383 . S
C875 C876 1.395 . S
C876 H847 0.950 . S
C876 C875 1.395 . S
C876 C877 1.288 . S
C877 C876 1.288 . S
C877 C878 1.392 . S
C878 H848 0.951 . S
C878 C877 1.392 . S
C878 C879 1.392 . S
C879 H849 0.949 . S
C879 C874 1.382 . S
C879 C878 1.392 . S
H880 C899 0.949 . S
H881 C900 0.950 . S
H882 C902 0.950 . S
H883 C903 0.950 . S
H884 C905 0.950 . S
H885 C908 0.950 . S
H886 C909 0.950 . S
H887 C911 0.951 . S
H888 C912 0.949 . S
H889 C914 0.930 1_545 S
H890 C915 0.950 . S
H891 C917 0.950 . S
H892 C918 0.950 . S
H893 C920 0.950 . S
H894 C923 0.950 . S
H895 C924 0.950 . S
H896 C926 0.951 . S
H897 C927 0.949 . S
C898 C899 1.376 . S
C898 C903 1.386 . S
C898 C904 1.483 . S
C899 H880 0.949 . S
C899 C898 1.376 . S
C899 C900 1.397 . S
C900 H881 0.950 . S
C900 C899 1.397 . S
C900 C901 1.391 . S
C901 C900 1.391 . S
C901 C902 1.405 . S
C902 H882 0.950 . S
C902 C901 1.405 . S
C902 C903 1.367 . S
C903 H883 0.950 . S
C903 C898 1.386 . S
C903 C902 1.367 . S
C904 C898 1.483 . S
C904 C905 1.382 . S
C904 C906 1.403 . S
C905 H884 0.950 . S
C905 C904 1.382 . S
C905 C921 1.411 . S
C906 C904 1.403 . S
C906 C907 1.489 . S
C906 C920 1.411 . S
C907 C906 1.489 . S
C907 C908 1.383 . S
C907 C912 1.382 . S
C908 H885 0.950 . S
C908 C907 1.383 . S
C908 C909 1.395 . S
C909 H886 0.950 . S
C909 C908 1.395 . S
C909 C910 1.288 . S
C910 C909 1.288 . S
C910 C911 1.392 . S
C911 H887 0.951 . S
C911 C910 1.392 . S
C911 C912 1.392 . S
C912 H888 0.949 . S
C912 C907 1.382 . S
C912 C911 1.392 . S
C913 C914 1.376 . S
C913 C918 1.386 . S
C913 C919 1.483 1_565 S
C914 H889 0.930 1_565 S
C914 C913 1.376 . S
C914 C915 1.397 . S
C915 H890 0.950 . S
C915 C914 1.397 . S
C915 C916 1.391 . S
C916 C915 1.391 . S
C916 C917 1.405 . S
C917 H891 0.950 . S
C917 C916 1.405 . S
C917 C918 1.367 . S
C918 H892 0.950 . S
C918 C913 1.386 . S
C918 C917 1.367 . S
C919 C913 1.483 1_545 S
C919 C920 1.382 . S
C919 C921 1.403 . S
C920 H893 0.950 . S
C920 C906 1.411 . S
C920 C919 1.382 . S
C921 C905 1.411 . S
C921 C919 1.403 . S
C921 C922 1.489 1_545 S
C922 C921 1.489 1_565 S
C922 C923 1.383 . S
C922 C927 1.382 . S
C923 H894 0.950 . S
C923 C922 1.383 . S
C923 C924 1.395 . S
C924 H895 0.950 . S
C924 C923 1.395 . S
C924 C925 1.288 . S
C925 C924 1.288 . S
C925 C926 1.392 . S
C926 H896 0.951 . S
C926 C925 1.392 . S
C926 C927 1.392 . S
C927 H897 0.949 . S
C927 C922 1.382 . S
C927 C926 1.392 . S
H928 C947 0.949 . S
H929 C948 0.950 . S
H930 C950 0.950 . S
H931 C951 0.950 . S
H932 C953 0.950 . S
H933 C956 0.950 . S
H934 C957 0.950 . S
H935 C959 0.951 . S
H936 C960 0.949 . S
H937 C962 0.949 . S
H938 C963 0.950 . S
H939 C965 0.950 . S
H940 C966 0.950 . S
H941 C968 0.950 . S
H942 C971 0.950 . S
H943 C972 0.950 . S
H944 C974 0.951 . S
H945 C975 0.949 . S
C946 C947 1.376 . S
C946 C951 1.386 . S
C946 C952 1.483 . S
C947 H928 0.949 . S
C947 C946 1.376 . S
C947 C948 1.397 . S
C948 H929 0.950 . S
C948 C947 1.397 . S
C948 C949 1.391 . S
C949 C948 1.391 . S
C949 C950 1.405 . S
C950 H930 0.950 . S
C950 C949 1.405 . S
C950 C951 1.367 . S
C951 H931 0.950 . S
C951 C946 1.386 . S
C951 C950 1.367 . S
C952 C946 1.483 . S
C952 C953 1.382 . S
C952 C954 1.403 . S
C953 H932 0.950 . S
C953 C952 1.382 . S
C953 C969 1.411 . S
C954 C952 1.403 . S
C954 C955 1.489 . S
C954 C968 1.411 . S
C955 C954 1.489 . S
C955 C956 1.383 . S
C955 C960 1.382 . S
C956 H933 0.950 . S
C956 C955 1.383 . S
C956 C957 1.395 . S
C957 H934 0.950 . S
C957 C956 1.395 . S
C957 C958 1.288 . S
C958 C957 1.288 . S
C958 C959 1.392 . S
C959 H935 0.951 . S
C959 C958 1.392 . S
C959 C960 1.392 . S
C960 H936 0.949 . S
C960 C955 1.382 . S
C960 C959 1.392 . S
C961 C962 1.376 . S
C961 C966 1.386 . S
C961 C967 1.483 . S
C962 H937 0.949 . S
C962 C961 1.376 . S
C962 C963 1.397 . S
C963 H938 0.950 . S
C963 C962 1.397 . S
C963 C964 1.391 . S
C964 C963 1.391 . S
C964 C965 1.405 . S
C965 H939 0.950 . S
C965 C964 1.405 . S
C965 C966 1.367 . S
C966 H940 0.950 . S
C966 C961 1.386 . S
C966 C965 1.367 . S
C967 C961 1.483 . S
C967 C968 1.382 . S
C967 C969 1.403 . S
C968 H941 0.950 . S
C968 C954 1.411 . S
C968 C967 1.382 . S
C969 C953 1.411 . S
C969 C967 1.403 . S
C969 C970 1.489 . S
C970 C969 1.489 . S
C970 C971 1.383 . S
C970 C975 1.382 . S
C971 H942 0.950 . S
C971 C970 1.383 . S
C971 C972 1.395 . S
C972 H943 0.950 . S
C972 C971 1.395 . S
C972 C973 1.288 . S
C973 C972 1.288 . S
C973 C974 1.392 . S
C974 H944 0.951 . S
C974 C973 1.392 . S
C974 C975 1.392 . S
C975 H945 0.949 . S
C975 C970 1.382 . S
C975 C974 1.392 . S
H976 C995 0.949 . S
H977 C996 0.950 . S
H978 C998 0.950 . S
H979 C999 0.950 . S
H980 C1001 0.950 . S
H981 C1004 0.950 . S
H982 C1005 0.950 . S
H983 C1007 0.951 . S
H984 C1008 0.949 . S
H985 C1010 0.949 . S
H986 C1011 0.950 . S
H987 C1013 0.950 . S
H988 C1014 0.950 . S
H989 C1016 0.950 . S
H990 C1019 0.950 . S
H991 C1020 0.950 . S
H992 C1022 0.951 . S
H993 C1023 0.949 . S
C994 C995 1.376 . S
C994 C999 1.386 . S
C994 C1000 1.483 . S
C995 H976 0.949 . S
C995 C994 1.376 . S
C995 C996 1.397 . S
C996 H977 0.950 . S
C996 C995 1.397 . S
C996 C997 1.391 . S
C997 C996 1.391 . S
C997 C998 1.405 . S
C998 H978 0.950 . S
C998 C997 1.405 . S
C998 C999 1.367 . S
C999 H979 0.950 . S
C999 C994 1.386 . S
C999 C998 1.367 . S
C1000 C994 1.483 . S
C1000 C1001 1.382 . S
C1000 C1002 1.403 . S
C1001 H980 0.950 . S
C1001 C1000 1.382 . S
C1001 C1017 1.411 . S
C1002 C1000 1.403 . S
C1002 C1003 1.489 . S
C1002 C1016 1.411 . S
C1003 C1002 1.489 . S
C1003 C1004 1.383 . S
C1003 C1008 1.382 . S
C1004 H981 0.950 . S
C1004 C1003 1.383 . S
C1004 C1005 1.395 . S
C1005 H982 0.950 . S
C1005 C1004 1.395 . S
C1005 C1006 1.288 . S
C1006 C1005 1.288 . S
C1006 C1007 1.392 . S
C1007 H983 0.951 . S
C1007 C1006 1.392 . S
C1007 C1008 1.392 . S
C1008 H984 0.949 . S
C1008 C1003 1.382 . S
C1008 C1007 1.392 . S
C1009 C1010 1.376 . S
C1009 C1014 1.386 . S
C1009 C1015 1.483 . S
C1010 H985 0.949 . S
C1010 C1009 1.376 . S
C1010 C1011 1.397 . S
C1011 H986 0.950 . S
C1011 C1010 1.397 . S
C1011 C1012 1.391 . S
C1012 C1011 1.391 . S
C1012 C1013 1.405 . S
C1013 H987 0.950 . S
C1013 C1012 1.405 . S
C1013 C1014 1.367 . S
C1014 H988 0.950 . S
C1014 C1009 1.386 . S
C1014 C1013 1.367 . S
C1015 C1009 1.483 . S
C1015 C1016 1.382 . S
C1015 C1017 1.403 . S
C1016 H989 0.950 . S
C1016 C1002 1.411 . S
C1016 C1015 1.382 . S
C1017 C1001 1.411 . S
C1017 C1015 1.403 . S
C1017 C1018 1.489 . S
C1018 C1017 1.489 . S
C1018 C1019 1.383 . S
C1018 C1023 1.382 . S
C1019 H990 0.950 . S
C1019 C1018 1.383 . S
C1019 C1020 1.395 . S
C1020 H991 0.950 . S
C1020 C1019 1.395 . S
C1020 C1021 1.288 . S
C1021 C1020 1.288 . S
C1021 C1022 1.392 . S
C1022 H992 0.951 . S
C1022 C1021 1.392 . S
C1022 C1023 1.392 . S
C1023 H993 0.949 . S
C1023 C1018 1.382 . S
C1023 C1022 1.392 . S
H1024 C1043 0.949 . S
H1025 C1044 0.950 . S
H1026 C1046 0.950 . S
H1027 C1047 0.950 . S
H1028 C1049 0.950 . S
H1029 C1052 0.950 . S
H1030 C1053 0.950 . S
H1031 C1055 0.951 . S
H1032 C1056 0.949 . S
H1033 C1058 0.949 . S
H1034 C1059 0.950 . S
H1035 C1061 0.950 . S
H1036 C1062 0.950 . S
H1037 C1064 0.950 . S
H1038 C1067 0.950 . S
H1039 C1068 0.950 . S
H1040 C1070 0.951 . S
H1041 C1071 0.949 . S
C1042 C1043 1.376 . S
C1042 C1047 1.386 . S
C1042 C1048 1.483 . S
C1043 H1024 0.949 . S
C1043 C1042 1.376 . S
C1043 C1044 1.397 . S
C1044 H1025 0.950 . S
C1044 C1043 1.397 . S
C1044 C1045 1.391 . S
C1045 C1044 1.391 . S
C1045 C1046 1.405 . S
C1046 H1026 0.950 . S
C1046 C1045 1.405 . S
C1046 C1047 1.367 . S
C1047 H1027 0.950 . S
C1047 C1042 1.386 . S
C1047 C1046 1.367 . S
C1048 C1042 1.483 . S
C1048 C1049 1.382 . S
C1048 C1050 1.403 . S
C1049 H1028 0.950 . S
C1049 C1048 1.382 . S
C1049 C1065 1.411 . S
C1050 C1048 1.403 . S
C1050 C1051 1.489 . S
C1050 C1064 1.411 . S
C1051 C1050 1.489 . S
C1051 C1052 1.383 . S
C1051 C1056 1.382 . S
C1052 H1029 0.950 . S
C1052 C1051 1.383 . S
C1052 C1053 1.395 . S
C1053 H1030 0.950 . S
C1053 C1052 1.395 . S
C1053 C1054 1.288 . S
C1054 C1053 1.288 . S
C1054 C1055 1.392 . S
C1055 H1031 0.951 . S
C1055 C1054 1.392 . S
C1055 C1056 1.392 . S
C1056 H1032 0.949 . S
C1056 C1051 1.382 . S
C1056 C1055 1.392 . S
C1057 C1058 1.376 . S
C1057 C1062 1.386 . S
C1057 C1063 1.483 . S
C1058 H1033 0.949 . S
C1058 C1057 1.376 . S
C1058 C1059 1.397 . S
C1059 H1034 0.950 . S
C1059 C1058 1.397 . S
C1059 C1060 1.391 . S
C1060 C1059 1.391 . S
C1060 C1061 1.405 . S
C1061 H1035 0.950 . S
C1061 C1060 1.405 . S
C1061 C1062 1.367 . S
C1062 H1036 0.950 . S
C1062 C1057 1.386 . S
C1062 C1061 1.367 . S
C1063 C1057 1.483 . S
C1063 C1064 1.382 . S
C1063 C1065 1.403 . S
C1064 H1037 0.950 . S
C1064 C1050 1.411 . S
C1064 C1063 1.382 . S
C1065 C1049 1.411 . S
C1065 C1063 1.403 . S
C1065 C1066 1.489 . S
C1066 C1065 1.489 . S
C1066 C1067 1.383 . S
C1066 C1071 1.382 . S
C1067 H1038 0.950 . S
C1067 C1066 1.383 . S
C1067 C1068 1.395 . S
C1068 H1039 0.950 . S
C1068 C1067 1.395 . S
C1068 C1069 1.288 . S
C1069 C1068 1.288 . S
C1069 C1070 1.392 . S
C1070 H1040 0.951 . S
C1070 C1069 1.392 . S
C1070 C1071 1.392 . S
C1071 H1041 0.949 . S
C1071 C1066 1.382 . S
C1071 C1070 1.392 . S
H1072 C1091 0.949 . S
H1073 C1092 0.950 . S
H1074 C1094 0.950 . S
H1075 C1095 0.950 . S
H1076 C1097 0.950 . S
H1077 C1100 0.950 . S
H1078 C1101 0.950 . S
H1079 C1103 0.951 . S
H1080 C1104 0.949 . S
H1081 C1106 0.949 . S
H1082 C1107 0.950 . S
H1083 C1109 0.950 . S
H1084 C1110 0.950 . S
H1085 C1112 0.950 . S
H1086 C1115 0.950 . S
H1087 C1116 0.950 . S
H1088 C1118 0.951 . S
H1089 C1119 0.949 . S
C1090 C1091 1.376 . S
C1090 C1095 1.386 . S
C1090 C1096 1.483 . S
C1091 H1072 0.949 . S
C1091 C1090 1.376 . S
C1091 C1092 1.397 . S
C1092 H1073 0.950 . S
C1092 C1091 1.397 . S
C1092 C1093 1.391 . S
C1093 C1092 1.391 . S
C1093 C1094 1.405 . S
C1094 H1074 0.950 . S
C1094 C1093 1.405 . S
C1094 C1095 1.367 . S
C1095 H1075 0.950 . S
C1095 C1090 1.386 . S
C1095 C1094 1.367 . S
C1096 C1090 1.483 . S
C1096 C1097 1.382 . S
C1096 C1098 1.403 . S
C1097 H1076 0.950 . S
C1097 C1096 1.382 . S
C1097 C1113 1.411 . S
C1098 C1096 1.403 . S
C1098 C1099 1.489 . S
C1098 C1112 1.411 . S
C1099 C1098 1.489 . S
C1099 C1100 1.383 . S
C1099 C1104 1.382 . S
C1100 H1077 0.950 . S
C1100 C1099 1.383 . S
C1100 C1101 1.395 . S
C1101 H1078 0.950 . S
C1101 C1100 1.395 . S
C1101 C1102 1.288 . S
C1102 C1101 1.288 . S
C1102 C1103 1.392 . S
C1103 H1079 0.951 . S
C1103 C1102 1.392 . S
C1103 C1104 1.392 . S
C1104 H1080 0.949 . S
C1104 C1099 1.382 . S
C1104 C1103 1.392 . S
C1105 C1106 1.376 . S
C1105 C1110 1.386 . S
C1105 C1111 1.483 . S
C1106 H1081 0.949 . S
C1106 C1105 1.376 . S
C1106 C1107 1.397 . S
C1107 H1082 0.950 . S
C1107 C1106 1.397 . S
C1107 C1108 1.391 . S
C1108 C1107 1.391 . S
C1108 C1109 1.405 . S
C1109 H1083 0.950 . S
C1109 C1108 1.405 . S
C1109 C1110 1.367 . S
C1110 H1084 0.950 . S
C1110 C1105 1.386 . S
C1110 C1109 1.367 . S
C1111 C1105 1.483 . S
C1111 C1112 1.382 . S
C1111 C1113 1.403 . S
C1112 H1085 0.950 . S
C1112 C1098 1.411 . S
C1112 C1111 1.382 . S
C1113 C1097 1.411 . S
C1113 C1111 1.403 . S
C1113 C1114 1.489 . S
C1114 C1113 1.489 . S
C1114 C1115 1.383 . S
C1114 C1119 1.382 . S
C1115 H1086 0.950 . S
C1115 C1114 1.383 . S
C1115 C1116 1.395 . S
C1116 H1087 0.950 . S
C1116 C1115 1.395 . S
C1116 C1117 1.288 . S
C1117 C1116 1.288 . S
C1117 C1118 1.392 . S
C1118 H1088 0.951 . S
C1118 C1117 1.392 . S
C1118 C1119 1.392 . S
C1119 H1089 0.949 . S
C1119 C1114 1.382 . S
C1119 C1118 1.392 . S
H1120 C1139 0.949 . S
H1121 C1140 0.950 . S
H1122 C1142 0.950 . S
H1123 C1143 0.950 . S
H1124 C1145 0.950 . S
H1125 C1148 0.950 . S
H1126 C1149 0.950 . S
H1127 C1151 0.951 . S
H1128 C1152 0.949 . S
H1129 C1154 0.949 . S
H1130 C1155 0.950 . S
H1131 C1157 0.950 . S
H1132 C1158 0.950 . S
H1133 C1160 0.950 . S
H1134 C1163 0.950 . S
H1135 C1164 0.950 . S
H1136 C1166 0.951 . S
H1137 C1167 0.949 . S
C1138 C1139 1.376 . S
C1138 C1143 1.386 . S
C1138 C1144 1.483 . S
C1139 H1120 0.949 . S
C1139 C1138 1.376 . S
C1139 C1140 1.397 . S
C1140 H1121 0.950 . S
C1140 C1139 1.397 . S
C1140 C1141 1.391 . S
C1141 C1140 1.391 . S
C1141 C1142 1.405 . S
C1142 H1122 0.950 . S
C1142 C1141 1.405 . S
C1142 C1143 1.367 . S
C1143 H1123 0.950 . S
C1143 C1138 1.386 . S
C1143 C1142 1.367 . S
C1144 C1138 1.483 . S
C1144 C1145 1.382 . S
C1144 C1146 1.403 . S
C1145 H1124 0.950 . S
C1145 C1144 1.382 . S
C1145 C1161 1.411 . S
C1146 C1144 1.403 . S
C1146 C1147 1.489 . S
C1146 C1160 1.411 . S
C1147 C1146 1.489 . S
C1147 C1148 1.383 . S
C1147 C1152 1.382 . S
C1148 H1125 0.950 . S
C1148 C1147 1.383 . S
C1148 C1149 1.395 . S
C1149 H1126 0.950 . S
C1149 C1148 1.395 . S
C1149 C1150 1.288 . S
C1150 C1149 1.288 . S
C1150 C1151 1.392 . S
C1151 H1127 0.951 . S
C1151 C1150 1.392 . S
C1151 C1152 1.392 . S
C1152 H1128 0.949 . S
C1152 C1147 1.382 . S
C1152 C1151 1.392 . S
C1153 C1154 1.376 . S
C1153 C1158 1.386 . S
C1153 C1159 1.483 . S
C1154 H1129 0.949 . S
C1154 C1153 1.376 . S
C1154 C1155 1.397 . S
C1155 H1130 0.950 . S
C1155 C1154 1.397 . S
C1155 C1156 1.391 . S
C1156 C1155 1.391 . S
C1156 C1157 1.405 . S
C1157 H1131 0.950 . S
C1157 C1156 1.405 . S
C1157 C1158 1.367 . S
C1158 H1132 0.950 . S
C1158 C1153 1.386 . S
C1158 C1157 1.367 . S
C1159 C1153 1.483 . S
C1159 C1160 1.382 . S
C1159 C1161 1.403 . S
C1160 H1133 0.950 . S
C1160 C1146 1.411 . S
C1160 C1159 1.382 . S
C1161 C1145 1.411 . S
C1161 C1159 1.403 . S
C1161 C1162 1.489 . S
C1162 C1161 1.489 . S
C1162 C1163 1.383 . S
C1162 C1167 1.382 . S
C1163 H1134 0.950 . S
C1163 C1162 1.383 . S
C1163 C1164 1.395 . S
C1164 H1135 0.950 . S
C1164 C1163 1.395 . S
C1164 C1165 1.288 . S
C1165 C1164 1.288 . S
C1165 C1166 1.392 . S
C1166 H1136 0.951 . S
C1166 C1165 1.392 . S
C1166 C1167 1.392 . S
C1167 H1137 0.949 . S
C1167 C1162 1.382 . S
C1167 C1166 1.392 . S
H1168 C1187 0.949 . S
H1169 C1188 0.950 . S
H1170 C1190 0.950 . S
H1171 C1191 0.950 . S
H1172 C1193 0.950 . S
H1173 C1196 0.950 . S
H1174 C1197 0.950 . S
H1175 C1199 0.951 . S
H1176 C1200 0.949 . S
H1177 C1202 0.949 . S
H1178 C1203 0.950 . S
H1179 C1205 0.950 . S
H1180 C1206 0.950 . S
H1181 C1208 0.950 . S
H1182 C1211 0.950 . S
H1183 C1212 0.950 . S
H1184 C1214 0.951 . S
H1185 C1215 0.949 . S
C1186 C1187 1.376 . S
C1186 C1191 1.386 . S
C1186 C1192 1.483 . S
C1187 H1168 0.949 . S
C1187 C1186 1.376 . S
C1187 C1188 1.397 . S
C1188 H1169 0.950 . S
C1188 C1187 1.397 . S
C1188 C1189 1.391 . S
C1189 C1188 1.391 . S
C1189 C1190 1.405 . S
C1190 H1170 0.950 . S
C1190 C1189 1.405 . S
C1190 C1191 1.367 . S
C1191 H1171 0.950 . S
C1191 C1186 1.386 . S
C1191 C1190 1.367 . S
C1192 C1186 1.483 . S
C1192 C1193 1.382 . S
C1192 C1194 1.403 . S
C1193 H1172 0.950 . S
C1193 C1192 1.382 . S
C1193 C1209 1.411 . S
C1194 C1192 1.403 . S
C1194 C1195 1.489 . S
C1194 C1208 1.411 . S
C1195 C1194 1.489 . S
C1195 C1196 1.383 . S
C1195 C1200 1.382 . S
C1196 H1173 0.950 . S
C1196 C1195 1.383 . S
C1196 C1197 1.395 . S
C1197 H1174 0.950 . S
C1197 C1196 1.395 . S
C1197 C1198 1.288 . S
C1198 C1197 1.288 . S
C1198 C1199 1.392 . S
C1199 H1175 0.951 . S
C1199 C1198 1.392 . S
C1199 C1200 1.392 . S
C1200 H1176 0.949 . S
C1200 C1195 1.382 . S
C1200 C1199 1.392 . S
C1201 C1202 1.376 . S
C1201 C1206 1.386 . S
C1201 C1207 1.483 . S
C1202 H1177 0.949 . S
C1202 C1201 1.376 . S
C1202 C1203 1.397 . S
C1203 H1178 0.950 . S
C1203 C1202 1.397 . S
C1203 C1204 1.391 . S
C1204 C1203 1.391 . S
C1204 C1205 1.405 . S
C1205 H1179 0.950 . S
C1205 C1204 1.405 . S
C1205 C1206 1.367 . S
C1206 H1180 0.950 . S
C1206 C1201 1.386 . S
C1206 C1205 1.367 . S
C1207 C1201 1.483 . S
C1207 C1208 1.382 . S
C1207 C1209 1.403 . S
C1208 H1181 0.950 . S
C1208 C1194 1.411 . S
C1208 C1207 1.382 . S
C1209 C1193 1.411 . S
C1209 C1207 1.403 . S
C1209 C1210 1.489 . S
C1210 C1209 1.489 . S
C1210 C1211 1.383 . S
C1210 C1215 1.382 . S
C1211 H1182 0.950 . S
C1211 C1210 1.383 . S
C1211 C1212 1.395 . S
C1212 H1183 0.950 . S
C1212 C1211 1.395 . S
C1212 C1213 1.288 . S
C1213 C1212 1.288 . S
C1213 C1214 1.392 . S
C1214 H1184 0.951 . S
C1214 C1213 1.392 . S
C1214 C1215 1.392 . S
C1215 H1185 0.949 . S
C1215 C1210 1.382 . S
C1215 C1214 1.392 . S
H1216 C1235 0.949 . S
H1217 C1236 0.950 . S
H1218 C1238 0.950 . S
H1219 C1239 0.950 . S
H1220 C1241 0.950 . S
H1221 C1244 0.950 . S
H1222 C1245 0.950 . S
H1223 C1247 0.951 . S
H1224 C1248 0.949 . S
H1225 C1250 0.949 . S
H1226 C1251 0.950 . S
H1227 C1253 0.950 . S
H1228 C1254 0.950 . S
H1229 C1256 0.950 . S
H1230 C1259 0.950 . S
H1231 C1260 0.950 . S
H1232 C1262 0.951 . S
H1233 C1263 0.949 . S
C1234 C1235 1.376 . S
C1234 C1239 1.386 . S
C1234 C1240 1.483 . S
C1235 H1216 0.949 . S
C1235 C1234 1.376 . S
C1235 C1236 1.397 . S
C1236 H1217 0.950 . S
C1236 C1235 1.397 . S
C1236 C1237 1.391 . S
C1237 C1236 1.391 . S
C1237 C1238 1.405 . S
C1238 H1218 0.950 . S
C1238 C1237 1.405 . S
C1238 C1239 1.367 . S
C1239 H1219 0.950 . S
C1239 C1234 1.386 . S
C1239 C1238 1.367 . S
C1240 C1234 1.483 . S
C1240 C1241 1.382 . S
C1240 C1242 1.403 . S
C1241 H1220 0.950 . S
C1241 C1240 1.382 . S
C1241 C1257 1.411 . S
C1242 C1240 1.403 . S
C1242 C1243 1.489 . S
C1242 C1256 1.411 . S
C1243 C1242 1.489 . S
C1243 C1244 1.383 . S
C1243 C1248 1.382 . S
C1244 H1221 0.950 . S
C1244 C1243 1.383 . S
C1244 C1245 1.395 . S
C1245 H1222 0.950 . S
C1245 C1244 1.395 . S
C1245 C1246 1.288 . S
C1246 C1245 1.288 . S
C1246 C1247 1.392 . S
C1247 H1223 0.951 . S
C1247 C1246 1.392 . S
C1247 C1248 1.392 . S
C1248 H1224 0.949 . S
C1248 C1243 1.382 . S
C1248 C1247 1.392 . S
C1249 C1250 1.376 . S
C1249 C1254 1.386 . S
C1249 C1255 1.483 . S
C1250 H1225 0.949 . S
C1250 C1249 1.376 . S
C1250 C1251 1.397 . S
C1251 H1226 0.950 . S
C1251 C1250 1.397 . S
C1251 C1252 1.391 . S
C1252 C1251 1.391 . S
C1252 C1253 1.405 . S
C1253 H1227 0.950 . S
C1253 C1252 1.405 . S
C1253 C1254 1.367 . S
C1254 H1228 0.950 . S
C1254 C1249 1.386 . S
C1254 C1253 1.367 . S
C1255 C1249 1.483 . S
C1255 C1256 1.382 . S
C1255 C1257 1.403 . S
C1256 H1229 0.950 . S
C1256 C1242 1.411 . S
C1256 C1255 1.382 . S
C1257 C1241 1.411 . S
C1257 C1255 1.403 . S
C1257 C1258 1.489 . S
C1258 C1257 1.489 . S
C1258 C1259 1.383 . S
C1258 C1263 1.382 . S
C1259 H1230 0.950 . S
C1259 C1258 1.383 . S
C1259 C1260 1.395 . S
C1260 H1231 0.950 . S
C1260 C1259 1.395 . S
C1260 C1261 1.288 . S
C1261 C1260 1.288 . S
C1261 C1262 1.392 . S
C1262 H1232 0.951 . S
C1262 C1261 1.392 . S
C1262 C1263 1.392 . S
C1263 H1233 0.949 . S
C1263 C1258 1.382 . S
C1263 C1262 1.392 . S
H1264 C1283 0.949 . S
H1265 C1284 0.950 . S
H1266 C1286 0.950 . S
H1267 C1287 0.950 . S
H1268 C1289 0.950 . S
H1269 C1292 0.950 . S
H1270 C1293 0.950 . S
H1271 C1295 0.951 . S
H1272 C1296 0.949 . S
H1273 C1298 0.949 . S
H1274 C1299 0.950 . S
H1275 C1301 0.950 . S
H1276 C1302 0.950 . S
H1277 C1304 0.950 . S
H1278 C1307 0.950 . S
H1279 C1308 0.950 . S
H1280 C1310 0.951 . S
H1281 C1311 0.949 . S
C1282 C1283 1.376 . S
C1282 C1287 1.386 . S
C1282 C1288 1.483 . S
C1283 H1264 0.949 . S
C1283 C1282 1.376 . S
C1283 C1284 1.397 . S
C1284 H1265 0.950 . S
C1284 C1283 1.397 . S
C1284 C1285 1.391 . S
C1285 C1284 1.391 . S
C1285 C1286 1.405 . S
C1286 H1266 0.950 . S
C1286 C1285 1.405 . S
C1286 C1287 1.367 . S
C1287 H1267 0.950 . S
C1287 C1282 1.386 . S
C1287 C1286 1.367 . S
C1288 C1282 1.483 . S
C1288 C1289 1.382 . S
C1288 C1290 1.403 . S
C1289 H1268 0.950 . S
C1289 C1288 1.382 . S
C1289 C1305 1.411 . S
C1290 C1288 1.403 . S
C1290 C1291 1.489 . S
C1290 C1304 1.411 . S
C1291 C1290 1.489 . S
C1291 C1292 1.383 . S
C1291 C1296 1.382 . S
C1292 H1269 0.950 . S
C1292 C1291 1.383 . S
C1292 C1293 1.395 . S
C1293 H1270 0.950 . S
C1293 C1292 1.395 . S
C1293 C1294 1.288 . S
C1294 C1293 1.288 . S
C1294 C1295 1.392 . S
C1295 H1271 0.951 . S
C1295 C1294 1.392 . S
C1295 C1296 1.392 . S
C1296 H1272 0.949 . S
C1296 C1291 1.382 . S
C1296 C1295 1.392 . S
C1297 C1298 1.376 . S
C1297 C1302 1.386 . S
C1297 C1303 1.483 . S
C1298 H1273 0.949 . S
C1298 C1297 1.376 . S
C1298 C1299 1.397 . S
C1299 H1274 0.950 . S
C1299 C1298 1.397 . S
C1299 C1300 1.391 . S
C1300 C1299 1.391 . S
C1300 C1301 1.405 . S
C1301 H1275 0.950 . S
C1301 C1300 1.405 . S
C1301 C1302 1.367 . S
C1302 H1276 0.950 . S
C1302 C1297 1.386 . S
C1302 C1301 1.367 . S
C1303 C1297 1.483 . S
C1303 C1304 1.382 . S
C1303 C1305 1.403 . S
C1304 H1277 0.950 . S
C1304 C1290 1.411 . S
C1304 C1303 1.382 . S
C1305 C1289 1.411 . S
C1305 C1303 1.403 . S
C1305 C1306 1.489 . S
C1306 C1305 1.489 . S
C1306 C1307 1.383 . S
C1306 C1311 1.382 . S
C1307 H1278 0.950 . S
C1307 C1306 1.383 . S
C1307 C1308 1.395 . S
C1308 H1279 0.950 . S
C1308 C1307 1.395 . S
C1308 C1309 1.288 . S
C1309 C1308 1.288 . S
C1309 C1310 1.392 . S
C1310 H1280 0.951 . S
C1310 C1309 1.392 . S
C1310 C1311 1.392 . S
C1311 H1281 0.949 . S
C1311 C1306 1.382 . S
C1311 C1310 1.392 . S
H1312 C1331 0.949 . S
H1313 C1332 0.950 . S
H1314 C1334 0.950 . S
H1315 C1335 0.950 . S
H1316 C1337 0.950 . S
H1317 C1340 0.950 . S
H1318 C1341 0.950 . S
H1319 C1343 0.951 . S
H1320 C1344 0.949 . S
H1321 C1346 0.949 . S
H1322 C1347 0.950 . S
H1323 C1349 0.950 . S
H1324 C1350 0.950 . S
H1325 C1352 0.950 . S
H1326 C1355 0.950 . S
H1327 C1356 0.950 . S
H1328 C1358 0.951 . S
H1329 C1359 0.949 . S
C1330 C1331 1.376 . S
C1330 C1335 1.386 . S
C1330 C1336 1.483 . S
C1331 H1312 0.949 . S
C1331 C1330 1.376 . S
C1331 C1332 1.397 . S
C1332 H1313 0.950 . S
C1332 C1331 1.397 . S
C1332 C1333 1.391 . S
C1333 C1332 1.391 . S
C1333 C1334 1.405 . S
C1334 H1314 0.950 . S
C1334 C1333 1.405 . S
C1334 C1335 1.367 . S
C1335 H1315 0.950 . S
C1335 C1330 1.386 . S
C1335 C1334 1.367 . S
C1336 C1330 1.483 . S
C1336 C1337 1.382 . S
C1336 C1338 1.403 . S
C1337 H1316 0.950 . S
C1337 C1336 1.382 . S
C1337 C1353 1.411 . S
C1338 C1336 1.403 . S
C1338 C1339 1.489 . S
C1338 C1352 1.411 . S
C1339 C1338 1.489 . S
C1339 C1340 1.383 . S
C1339 C1344 1.382 . S
C1340 H1317 0.950 . S
C1340 C1339 1.383 . S
C1340 C1341 1.395 . S
C1341 H1318 0.950 . S
C1341 C1340 1.395 . S
C1341 C1342 1.288 . S
C1342 C1341 1.288 . S
C1342 C1343 1.392 . S
C1343 H1319 0.951 . S
C1343 C1342 1.392 . S
C1343 C1344 1.392 . S
C1344 H1320 0.949 . S
C1344 C1339 1.382 . S
C1344 C1343 1.392 . S
C1345 C1346 1.376 . S
C1345 C1350 1.386 . S
C1345 C1351 1.483 . S
C1346 H1321 0.949 . S
C1346 C1345 1.376 . S
C1346 C1347 1.397 . S
C1347 H1322 0.950 . S
C1347 C1346 1.397 . S
C1347 C1348 1.391 . S
C1348 C1347 1.391 . S
C1348 C1349 1.405 . S
C1349 H1323 0.950 . S
C1349 C1348 1.405 . S
C1349 C1350 1.367 . S
C1350 H1324 0.950 . S
C1350 C1345 1.386 . S
C1350 C1349 1.367 . S
C1351 C1345 1.483 . S
C1351 C1352 1.382 . S
C1351 C1353 1.403 . S
C1352 H1325 0.950 . S
C1352 C1338 1.411 . S
C1352 C1351 1.382 . S
C1353 C1337 1.411 . S
C1353 C1351 1.403 . S
C1353 C1354 1.489 . S
C1354 C1353 1.489 . S
C1354 C1355 1.383 . S
C1354 C1359 1.382 . S
C1355 H1326 0.950 . S
C1355 C1354 1.383 . S
C1355 C1356 1.395 . S
C1356 H1327 0.950 . S
C1356 C1355 1.395 . S
C1356 C1357 1.288 . S
C1357 C1356 1.288 . S
C1357 C1358 1.392 . S
C1358 H1328 0.951 . S
C1358 C1357 1.392 . S
C1358 C1359 1.392 . S
C1359 H1329 0.949 . S
C1359 C1354 1.382 . S
C1359 C1358 1.392 . S
H1360 C1379 0.949 . S
H1361 C1380 0.950 . S
H1362 C1382 0.950 . S
H1363 C1383 0.950 . S
H1364 C1385 0.950 . S
H1365 C1388 0.950 . S
H1366 C1389 0.950 . S
H1367 C1391 0.951 . S
H1368 C1392 0.949 . S
H1369 C1394 0.949 . S
H1370 C1395 0.950 . S
H1371 C1397 0.950 . S
H1372 C1398 0.950 . S
H1373 C1400 0.950 . S
H1374 C1403 0.950 . S
H1375 C1404 0.950 . S
H1376 C1406 0.951 . S
H1377 C1407 0.949 . S
C1378 C1379 1.376 . S
C1378 C1383 1.386 . S
C1378 C1384 1.483 . S
C1379 H1360 0.949 . S
C1379 C1378 1.376 . S
C1379 C1380 1.397 . S
C1380 H1361 0.950 . S
C1380 C1379 1.397 . S
C1380 C1381 1.391 . S
C1381 C1380 1.391 . S
C1381 C1382 1.405 . S
C1382 H1362 0.950 . S
C1382 C1381 1.405 . S
C1382 C1383 1.367 . S
C1383 H1363 0.950 . S
C1383 C1378 1.386 . S
C1383 C1382 1.367 . S
C1384 C1378 1.483 . S
C1384 C1385 1.382 . S
C1384 C1386 1.403 . S
C1385 H1364 0.950 . S
C1385 C1384 1.382 . S
C1385 C1401 1.411 . S
C1386 C1384 1.403 . S
C1386 C1387 1.489 . S
C1386 C1400 1.411 . S
C1387 C1386 1.489 . S
C1387 C1388 1.383 . S
C1387 C1392 1.382 . S
C1388 H1365 0.950 . S
C1388 C1387 1.383 . S
C1388 C1389 1.395 . S
C1389 H1366 0.950 . S
C1389 C1388 1.395 . S
C1389 C1390 1.288 . S
C1390 C1389 1.288 . S
C1390 C1391 1.392 . S
C1391 H1367 0.951 . S
C1391 C1390 1.392 . S
C1391 C1392 1.392 . S
C1392 H1368 0.949 . S
C1392 C1387 1.382 . S
C1392 C1391 1.392 . S
C1393 C1394 1.376 . S
C1393 C1398 1.386 . S
C1393 C1399 1.483 . S
C1394 H1369 0.949 . S
C1394 C1393 1.376 . S
C1394 C1395 1.397 . S
C1395 H1370 0.950 . S
C1395 C1394 1.397 . S
C1395 C1396 1.391 . S
C1396 C1395 1.391 . S
C1396 C1397 1.405 . S
C1397 H1371 0.950 . S
C1397 C1396 1.405 . S
C1397 C1398 1.367 . S
C1398 H1372 0.950 . S
C1398 C1393 1.386 . S
C1398 C1397 1.367 . S
C1399 C1393 1.483 . S
C1399 C1400 1.382 . S
C1399 C1401 1.403 . S
C1400 H1373 0.950 . S
C1400 C1386 1.411 . S
C1400 C1399 1.382 . S
C1401 C1385 1.411 . S
C1401 C1399 1.403 . S
C1401 C1402 1.489 . S
C1402 C1401 1.489 . S
C1402 C1403 1.383 . S
C1402 C1407 1.382 . S
C1403 H1374 0.950 . S
C1403 C1402 1.383 . S
C1403 C1404 1.395 . S
C1404 H1375 0.950 . S
C1404 C1403 1.395 . S
C1404 C1405 1.288 . S
C1405 C1404 1.288 . S
C1405 C1406 1.392 . S
C1406 H1376 0.951 . S
C1406 C1405 1.392 . S
C1406 C1407 1.392 . S
C1407 H1377 0.949 . S
C1407 C1402 1.382 . S
C1407 C1406 1.392 . S
H1408 C1427 0.949 . S
H1409 C1428 0.950 . S
H1410 C1430 0.950 . S
H1411 C1431 0.950 . S
H1412 C1433 0.950 . S
H1413 C1436 0.950 . S
H1414 C1437 0.950 . S
H1415 C1439 0.951 . S
H1416 C1440 0.949 . S
H1417 C1442 0.949 . S
H1418 C1443 0.950 . S
H1419 C1445 0.950 . S
H1420 C1446 0.950 . S
H1421 C1448 0.950 . S
H1422 C1451 0.950 . S
H1423 C1452 0.950 . S
H1424 C1454 0.951 . S
H1425 C1455 0.949 . S
C1426 C1427 1.376 . S
C1426 C1431 1.386 . S
C1426 C1432 1.483 . S
C1427 H1408 0.949 . S
C1427 C1426 1.376 . S
C1427 C1428 1.397 . S
C1428 H1409 0.950 . S
C1428 C1427 1.397 . S
C1428 C1429 1.391 . S
C1429 C1428 1.391 . S
C1429 C1430 1.405 . S
C1430 H1410 0.950 . S
C1430 C1429 1.405 . S
C1430 C1431 1.367 . S
C1431 H1411 0.950 . S
C1431 C1426 1.386 . S
C1431 C1430 1.367 . S
C1432 C1426 1.483 . S
C1432 C1433 1.382 . S
C1432 C1434 1.403 . S
C1433 H1412 0.950 . S
C1433 C1432 1.382 . S
C1433 C1449 1.411 . S
C1434 C1432 1.403 . S
C1434 C1435 1.489 . S
C1434 C1448 1.411 . S
C1435 C1434 1.489 . S
C1435 C1436 1.383 . S
C1435 C1440 1.382 . S
C1436 H1413 0.950 . S
C1436 C1435 1.383 . S
C1436 C1437 1.395 . S
C1437 H1414 0.950 . S
C1437 C1436 1.395 . S
C1437 C1438 1.288 . S
C1438 C1437 1.288 . S
C1438 C1439 1.392 . S
C1439 H1415 0.951 . S
C1439 C1438 1.392 . S
C1439 C1440 1.392 . S
C1440 H1416 0.949 . S
C1440 C1435 1.382 . S
C1440 C1439 1.392 . S
C1441 C1442 1.376 . S
C1441 C1446 1.386 . S
C1441 C1447 1.483 . S
C1442 H1417 0.949 . S
C1442 C1441 1.376 . S
C1442 C1443 1.397 . S
C1443 H1418 0.950 . S
C1443 C1442 1.397 . S
C1443 C1444 1.391 . S
C1444 C1443 1.391 . S
C1444 C1445 1.405 . S
C1445 H1419 0.950 . S
C1445 C1444 1.405 . S
C1445 C1446 1.367 . S
C1446 H1420 0.950 . S
C1446 C1441 1.386 . S
C1446 C1445 1.367 . S
C1447 C1441 1.483 . S
C1447 C1448 1.382 . S
C1447 C1449 1.403 . S
C1448 H1421 0.950 . S
C1448 C1434 1.411 . S
C1448 C1447 1.382 . S
C1449 C1433 1.411 . S
C1449 C1447 1.403 . S
C1449 C1450 1.489 . S
C1450 C1449 1.489 . S
C1450 C1451 1.383 . S
C1450 C1455 1.382 . S
C1451 H1422 0.950 . S
C1451 C1450 1.383 . S
C1451 C1452 1.395 . S
C1452 H1423 0.950 . S
C1452 C1451 1.395 . S
C1452 C1453 1.288 . S
C1453 C1452 1.288 . S
C1453 C1454 1.392 . S
C1454 H1424 0.951 . S
C1454 C1453 1.392 . S
C1454 C1455 1.392 . S
C1455 H1425 0.949 . S
C1455 C1450 1.382 . S
C1455 C1454 1.392 . S
H1456 C1475 0.949 . S
H1457 C1476 0.950 . S
H1458 C1478 0.950 . S
H1459 C1479 0.950 . S
H1460 C1481 0.950 . S
H1461 C1484 0.950 . S
H1462 C1485 0.950 . S
H1463 C1487 0.951 . S
H1464 C1488 0.949 . S
H1465 C1490 0.949 . S
H1466 C1491 0.950 . S
H1467 C1493 0.950 . S
H1468 C1494 0.950 . S
H1469 C1496 0.950 . S
H1470 C1499 0.950 . S
H1471 C1500 0.950 . S
H1472 C1502 0.951 . S
H1473 C1503 0.949 . S
C1474 C1475 1.376 . S
C1474 C1479 1.386 . S
C1474 C1480 1.483 . S
C1475 H1456 0.949 . S
C1475 C1474 1.376 . S
C1475 C1476 1.397 . S
C1476 H1457 0.950 . S
C1476 C1475 1.397 . S
C1476 C1477 1.391 . S
C1477 C1476 1.391 . S
C1477 C1478 1.405 . S
C1478 H1458 0.950 . S
C1478 C1477 1.405 . S
C1478 C1479 1.367 . S
C1479 H1459 0.950 . S
C1479 C1474 1.386 . S
C1479 C1478 1.367 . S
C1480 C1474 1.483 . S
C1480 C1481 1.382 . S
C1480 C1482 1.403 . S
C1481 H1460 0.950 . S
C1481 C1480 1.382 . S
C1481 C1497 1.411 . S
C1482 C1480 1.403 . S
C1482 C1483 1.489 . S
C1482 C1496 1.411 . S
C1483 C1482 1.489 . S
C1483 C1484 1.383 . S
C1483 C1488 1.382 . S
C1484 H1461 0.950 . S
C1484 C1483 1.383 . S
C1484 C1485 1.395 . S
C1485 H1462 0.950 . S
C1485 C1484 1.395 . S
C1485 C1486 1.288 . S
C1486 C1485 1.288 . S
C1486 C1487 1.392 . S
C1487 H1463 0.951 . S
C1487 C1486 1.392 . S
C1487 C1488 1.392 . S
C1488 H1464 0.949 . S
C1488 C1483 1.382 . S
C1488 C1487 1.392 . S
C1489 C1490 1.376 . S
C1489 C1494 1.386 . S
C1489 C1495 1.483 . S
C1490 H1465 0.949 . S
C1490 C1489 1.376 . S
C1490 C1491 1.397 . S
C1491 H1466 0.950 . S
C1491 C1490 1.397 . S
C1491 C1492 1.391 . S
C1492 C1491 1.391 . S
C1492 C1493 1.405 . S
C1493 H1467 0.950 . S
C1493 C1492 1.405 . S
C1493 C1494 1.367 . S
C1494 H1468 0.950 . S
C1494 C1489 1.386 . S
C1494 C1493 1.367 . S
C1495 C1489 1.483 . S
C1495 C1496 1.382 . S
C1495 C1497 1.403 . S
C1496 H1469 0.950 . S
C1496 C1482 1.411 . S
C1496 C1495 1.382 . S
C1497 C1481 1.411 . S
C1497 C1495 1.403 . S
C1497 C1498 1.489 . S
C1498 C1497 1.489 . S
C1498 C1499 1.383 . S
C1498 C1503 1.382 . S
C1499 H1470 0.950 . S
C1499 C1498 1.383 . S
C1499 C1500 1.395 . S
C1500 H1471 0.950 . S
C1500 C1499 1.395 . S
C1500 C1501 1.288 . S
C1501 C1500 1.288 . S
C1501 C1502 1.392 . S
C1502 H1472 0.951 . S
C1502 C1501 1.392 . S
C1502 C1503 1.392 . S
C1503 H1473 0.949 . S
C1503 C1498 1.382 . S
C1503 C1502 1.392 . S
H1504 C1512 0.950 . S
H1505 C1517 0.950 . S
H1506 C1514 0.950 . S
H1507 C1516 0.950 . S
H1508 C1518 0.950 . S
H1509 C1520 0.950 . S
H1510 C1522 0.950 . S
H1511 C1523 0.950 . S
C1512 H1504 0.950 . S
C1512 C1513 1.386 . S
C1512 C1514 1.391 . S
C1513 C1512 1.386 . S
C1513 C1517 1.393 . S
C1514 H1506 0.950 . S
C1514 C1512 1.391 . S
C1514 C1515 1.400 . S
C1515 C1514 1.400 . S
C1515 C1516 1.398 . S
C1515 C1521 1.491 . S
C1516 H1507 0.950 . S
C1516 C1515 1.398 . S
C1516 C1517 1.391 . S
C1517 H1505 0.950 . S
C1517 C1513 1.393 . S
C1517 C1516 1.391 . S
C1518 H1508 0.950 . S
C1518 C1519 1.386 . S
C1518 C1520 1.391 . S
C1519 C1518 1.386 . S
C1519 C1523 1.393 . S
C1520 H1509 0.950 . S
C1520 C1518 1.391 . S
C1520 C1521 1.400 . S
C1521 C1515 1.491 . S
C1521 C1520 1.400 . S
C1521 C1522 1.398 . S
C1522 H1510 0.950 . S
C1522 C1521 1.398 . S
C1522 C1523 1.391 . S
C1523 H1511 0.950 . S
C1523 C1519 1.393 . S
C1523 C1522 1.391 . S
H1524 C1532 0.950 . S
H1525 C1537 0.950 . S
H1526 C1534 0.950 . S
H1527 C1536 0.950 . S
H1528 C1538 0.950 . S
H1529 C1540 0.950 . S
H1530 C1542 0.950 . S
H1531 C1543 0.950 . S
C1532 H1524 0.950 . S
C1532 C1533 1.386 . S
C1532 C1534 1.391 . S
C1533 C1532 1.386 . S
C1533 C1537 1.393 . S
C1534 H1526 0.950 . S
C1534 C1532 1.391 . S
C1534 C1535 1.400 . S
C1535 C1534 1.400 . S
C1535 C1536 1.398 . S
C1535 C1541 1.491 . S
C1536 H1527 0.950 . S
C1536 C1535 1.398 . S
C1536 C1537 1.391 . S
C1537 H1525 0.950 . S
C1537 C1533 1.393 . S
C1537 C1536 1.391 . S
C1538 H1528 0.950 . S
C1538 C1539 1.386 . S
C1538 C1540 1.391 . S
C1539 C1538 1.386 . S
C1539 C1543 1.393 . S
C1540 H1529 0.950 . S
C1540 C1538 1.391 . S
C1540 C1541 1.400 . S
C1541 C1535 1.491 . S
C1541 C1540 1.400 . S
C1541 C1542 1.398 . S
C1542 H1530 0.950 . S
C1542 C1541 1.398 . S
C1542 C1543 1.391 . S
C1543 H1531 0.950 . S
C1543 C1539 1.393 . S
C1543 C1542 1.391 . S
H1544 C1552 0.950 . S
H1545 C1557 0.950 . S
H1546 C1554 0.950 . S
H1547 C1556 0.950 . S
H1548 C1558 0.950 . S
H1549 C1560 0.950 . S
H1550 C1562 0.950 . S
H1551 C1563 0.950 . S
C1552 H1544 0.950 . S
C1552 C1553 1.386 . S
C1552 C1554 1.391 . S
C1553 C1552 1.386 . S
C1553 C1557 1.393 . S
C1554 H1546 0.950 . S
C1554 C1552 1.391 . S
C1554 C1555 1.400 . S
C1555 C1554 1.400 . S
C1555 C1556 1.398 . S
C1555 C1561 1.491 . S
C1556 H1547 0.950 . S
C1556 C1555 1.398 . S
C1556 C1557 1.391 . S
C1557 H1545 0.950 . S
C1557 C1553 1.393 . S
C1557 C1556 1.391 . S
C1558 H1548 0.950 . S
C1558 C1559 1.386 . S
C1558 C1560 1.391 . S
C1559 C1558 1.386 . S
C1559 C1563 1.393 . S
C1560 H1549 0.950 . S
C1560 C1558 1.391 . S
C1560 C1561 1.400 . S
C1561 C1555 1.491 . S
C1561 C1560 1.400 . S
C1561 C1562 1.398 . S
C1562 H1550 0.950 . S
C1562 C1561 1.398 . S
C1562 C1563 1.391 . S
C1563 H1551 0.950 . S
C1563 C1559 1.393 . S
C1563 C1562 1.391 . S
H1564 C1572 0.950 . S
H1565 C1577 0.950 . S
H1566 C1574 0.950 . S
H1567 C1576 0.950 . S
H1568 C1578 0.950 . S
H1569 C1580 0.950 . S
H1570 C1582 0.950 . S
H1571 C1583 0.950 . S
C1572 H1564 0.950 . S
C1572 C1573 1.386 . S
C1572 C1574 1.391 . S
C1573 C1572 1.386 . S
C1573 C1577 1.393 . S
C1574 H1566 0.950 . S
C1574 C1572 1.391 . S
C1574 C1575 1.400 . S
C1575 C1574 1.400 . S
C1575 C1576 1.398 . S
C1575 C1581 1.491 . S
C1576 H1567 0.950 . S
C1576 C1575 1.398 . S
C1576 C1577 1.391 . S
C1577 H1565 0.950 . S
C1577 C1573 1.393 . S
C1577 C1576 1.391 . S
C1578 H1568 0.950 . S
C1578 C1579 1.386 . S
C1578 C1580 1.391 . S
C1579 C1578 1.386 . S
C1579 C1583 1.393 . S
C1580 H1569 0.950 . S
C1580 C1578 1.391 . S
C1580 C1581 1.400 . S
C1581 C1575 1.491 . S
C1581 C1580 1.400 . S
C1581 C1582 1.398 . S
C1582 H1570 0.950 . S
C1582 C1581 1.398 . S
C1582 C1583 1.391 . S
C1583 H1571 0.950 . S
C1583 C1579 1.393 . S
C1583 C1582 1.391 . S
H1584 C1592 0.950 . S
H1585 C1597 0.950 . S
H1586 C1594 0.950 . S
H1587 C1596 0.950 . S
H1588 C1598 0.950 . S
H1589 C1600 0.950 . S
H1590 C1602 0.950 . S
H1591 C1603 0.950 . S
C1592 H1584 0.950 . S
C1592 C1593 1.386 . S
C1592 C1594 1.391 . S
C1593 C1592 1.386 . S
C1593 C1597 1.393 . S
C1594 H1586 0.950 . S
C1594 C1592 1.391 . S
C1594 C1595 1.400 . S
C1595 C1594 1.400 . S
C1595 C1596 1.398 . S
C1595 C1601 1.491 . S
C1596 H1587 0.950 . S
C1596 C1595 1.398 . S
C1596 C1597 1.391 . S
C1597 H1585 0.950 . S
C1597 C1593 1.393 . S
C1597 C1596 1.391 . S
C1598 H1588 0.950 . S
C1598 C1599 1.386 . S
C1598 C1600 1.391 . S
C1599 C1598 1.386 . S
C1599 C1603 1.393 . S
C1600 H1589 0.950 . S
C1600 C1598 1.391 . S
C1600 C1601 1.400 . S
C1601 C1595 1.491 . S
C1601 C1600 1.400 . S
C1601 C1602 1.398 . S
C1602 H1590 0.950 . S
C1602 C1601 1.398 . S
C1602 C1603 1.391 . S
C1603 H1591 0.950 . S
C1603 C1599 1.393 . S
C1603 C1602 1.391 . S
H1604 C1612 0.950 . S
H1605 C1617 0.950 . S
H1606 C1614 0.950 . S
H1607 C1616 0.950 . S
H1608 C1618 0.950 . S
H1609 C1620 0.950 . S
H1610 C1622 0.950 . S
H1611 C1623 0.950 . S
C1612 H1604 0.950 . S
C1612 C1613 1.386 . S
C1612 C1614 1.391 . S
C1613 C1612 1.386 . S
C1613 C1617 1.393 . S
C1614 H1606 0.950 . S
C1614 C1612 1.391 . S
C1614 C1615 1.400 . S
C1615 C1614 1.400 . S
C1615 C1616 1.398 . S
C1615 C1621 1.491 . S
C1616 H1607 0.950 . S
C1616 C1615 1.398 . S
C1616 C1617 1.391 . S
C1617 H1605 0.950 . S
C1617 C1613 1.393 . S
C1617 C1616 1.391 . S
C1618 H1608 0.950 . S
C1618 C1619 1.386 . S
C1618 C1620 1.391 . S
C1619 C1618 1.386 . S
C1619 C1623 1.393 . S
C1620 H1609 0.950 . S
C1620 C1618 1.391 . S
C1620 C1621 1.400 . S
C1621 C1615 1.491 . S
C1621 C1620 1.400 . S
C1621 C1622 1.398 . S
C1622 H1610 0.950 . S
C1622 C1621 1.398 . S
C1622 C1623 1.391 . S
C1623 H1611 0.950 . S
C1623 C1619 1.393 . S
C1623 C1622 1.391 . S
H1624 C1632 0.950 . S
H1625 C1637 0.950 . S
H1626 C1634 0.950 . S
H1627 C1636 0.950 . S
H1628 C1638 0.950 . S
H1629 C1640 0.950 . S
H1630 C1642 0.950 . S
H1631 C1643 0.950 . S
C1632 H1624 0.950 . S
C1632 C1633 1.386 . S
C1632 C1634 1.391 . S
C1633 C1632 1.386 . S
C1633 C1637 1.393 . S
C1634 H1626 0.950 . S
C1634 C1632 1.391 . S
C1634 C1635 1.400 . S
C1635 C1634 1.400 . S
C1635 C1636 1.398 . S
C1635 C1641 1.491 . S
C1636 H1627 0.950 . S
C1636 C1635 1.398 . S
C1636 C1637 1.391 . S
C1637 H1625 0.950 . S
C1637 C1633 1.393 . S
C1637 C1636 1.391 . S
C1638 H1628 0.950 . S
C1638 C1639 1.386 . S
C1638 C1640 1.391 . S
C1639 C1638 1.386 . S
C1639 C1643 1.393 . S
C1640 H1629 0.950 . S
C1640 C1638 1.391 . S
C1640 C1641 1.400 . S
C1641 C1635 1.491 . S
C1641 C1640 1.400 . S
C1641 C1642 1.398 . S
C1642 H1630 0.950 . S
C1642 C1641 1.398 . S
C1642 C1643 1.391 . S
C1643 H1631 0.950 . S
C1643 C1639 1.393 . S
C1643 C1642 1.391 . S
H1644 C1652 0.950 . S
H1645 C1657 0.950 . S
H1646 C1654 0.950 . S
H1647 C1656 0.950 . S
H1648 C1658 0.950 . S
H1649 C1660 0.950 . S
H1650 C1662 0.950 . S
H1651 C1663 0.950 . S
C1652 H1644 0.950 . S
C1652 C1653 1.386 . S
C1652 C1654 1.391 . S
C1653 C1652 1.386 . S
C1653 C1657 1.393 . S
C1654 H1646 0.950 . S
C1654 C1652 1.391 . S
C1654 C1655 1.400 . S
C1655 C1654 1.400 . S
C1655 C1656 1.398 . S
C1655 C1661 1.491 . S
C1656 H1647 0.950 . S
C1656 C1655 1.398 . S
C1656 C1657 1.391 . S
C1657 H1645 0.950 . S
C1657 C1653 1.393 . S
C1657 C1656 1.391 . S
C1658 H1648 0.950 . S
C1658 C1659 1.386 . S
C1658 C1660 1.391 . S
C1659 C1658 1.386 . S
C1659 C1663 1.393 . S
C1660 H1649 0.950 . S
C1660 C1658 1.391 . S
C1660 C1661 1.400 . S
C1661 C1655 1.491 . S
C1661 C1660 1.400 . S
C1661 C1662 1.398 . S
C1662 H1650 0.950 . S
C1662 C1661 1.398 . S
C1662 C1663 1.391 . S
C1663 H1651 0.950 . S
C1663 C1659 1.393 . S
C1663 C1662 1.391 . S
H1664 C1672 0.950 . S
H1665 C1677 0.950 . S
H1666 C1674 0.950 . S
H1667 C1676 0.950 . S
H1668 C1678 0.950 . S
H1669 C1680 0.950 . S
H1670 C1682 0.950 . S
H1671 C1683 0.950 . S
C1672 H1664 0.950 . S
C1672 C1673 1.386 . S
C1672 C1674 1.391 . S
C1673 C1672 1.386 . S
C1673 C1677 1.393 . S
C1674 H1666 0.950 . S
C1674 C1672 1.391 . S
C1674 C1675 1.400 . S
C1675 C1674 1.400 . S
C1675 C1676 1.398 . S
C1675 C1681 1.491 . S
C1676 H1667 0.950 . S
C1676 C1675 1.398 . S
C1676 C1677 1.391 . S
C1677 H1665 0.950 . S
C1677 C1673 1.393 . S
C1677 C1676 1.391 . S
C1678 H1668 0.950 . S
C1678 C1679 1.386 . S
C1678 C1680 1.391 . S
C1679 C1678 1.386 . S
C1679 C1683 1.393 . S
C1680 H1669 0.950 . S
C1680 C1678 1.391 . S
C1680 C1681 1.400 . S
C1681 C1675 1.491 . S
C1681 C1680 1.400 . S
C1681 C1682 1.398 . S
C1682 H1670 0.950 . S
C1682 C1681 1.398 . S
C1682 C1683 1.391 . S
C1683 H1671 0.950 . S
C1683 C1679 1.393 . S
C1683 C1682 1.391 . S
H1684 C1692 0.950 . S
H1685 C1697 0.950 . S
H1686 C1694 0.950 . S
H1687 C1696 0.950 . S
H1688 C1698 0.950 . S
H1689 C1700 0.950 . S
H1690 C1702 0.950 . S
H1691 C1703 0.950 . S
C1692 H1684 0.950 . S
C1692 C1693 1.386 . S
C1692 C1694 1.391 . S
C1693 C1692 1.386 . S
C1693 C1697 1.393 . S
C1694 H1686 0.950 . S
C1694 C1692 1.391 . S
C1694 C1695 1.400 . S
C1695 C1694 1.400 . S
C1695 C1696 1.398 . S
C1695 C1701 1.491 . S
C1696 H1687 0.950 . S
C1696 C1695 1.398 . S
C1696 C1697 1.391 . S
C1697 H1685 0.950 . S
C1697 C1693 1.393 . S
C1697 C1696 1.391 . S
C1698 H1688 0.950 . S
C1698 C1699 1.386 . S
C1698 C1700 1.391 . S
C1699 C1698 1.386 . S
C1699 C1703 1.393 . S
C1700 H1689 0.950 . S
C1700 C1698 1.391 . S
C1700 C1701 1.400 . S
C1701 C1695 1.491 . S
C1701 C1700 1.400 . S
C1701 C1702 1.398 . S
C1702 H1690 0.950 . S
C1702 C1701 1.398 . S
C1702 C1703 1.391 . S
C1703 H1691 0.950 . S
C1703 C1699 1.393 . S
C1703 C1702 1.391 . S
H1704 C1712 0.950 . S
H1705 C1717 0.950 . S
H1706 C1714 0.950 . S
H1707 C1716 0.950 . S
H1708 C1718 0.950 . S
H1709 C1720 0.950 . S
H1710 C1722 0.950 . S
H1711 C1723 0.950 1_455 S
C1712 H1704 0.950 . S
C1712 C1713 1.386 . S
C1712 C1714 1.391 . S
C1713 C1712 1.386 . S
C1713 C1717 1.393 . S
C1714 H1706 0.950 . S
C1714 C1712 1.391 . S
C1714 C1715 1.400 . S
C1715 C1714 1.400 . S
C1715 C1716 1.398 . S
C1715 C1721 1.491 . S
C1716 H1707 0.950 . S
C1716 C1715 1.398 . S
C1716 C1717 1.391 . S
C1717 H1705 0.950 . S
C1717 C1713 1.393 . S
C1717 C1716 1.391 . S
C1718 H1708 0.950 . S
C1718 C1719 1.386 . S
C1718 C1720 1.391 . S
C1719 C1718 1.386 . S
C1719 C1723 1.393 . S
C1720 H1709 0.950 . S
C1720 C1718 1.391 . S
C1720 C1721 1.400 . S
C1721 C1715 1.491 . S
C1721 C1720 1.400 . S
C1721 C1722 1.398 . S
C1722 H1710 0.950 . S
C1722 C1721 1.398 . S
C1722 C1723 1.391 . S
C1723 H1711 0.950 1_655 S
C1723 C1719 1.393 . S
C1723 C1722 1.391 . S
H1724 C1732 0.950 . S
H1725 C1737 0.950 . S
H1726 C1734 0.950 . S
H1727 C1736 0.950 . S
H1728 C1738 0.950 . S
H1729 C1740 0.950 . S
H1730 C1742 0.950 . S
H1731 C1743 0.950 . S
C1732 H1724 0.950 . S
C1732 C1733 1.386 . S
C1732 C1734 1.391 . S
C1733 C1732 1.386 . S
C1733 C1737 1.393 . S
C1734 H1726 0.950 . S
C1734 C1732 1.391 . S
C1734 C1735 1.400 . S
C1735 C1734 1.400 . S
C1735 C1736 1.398 . S
C1735 C1741 1.491 . S
C1736 H1727 0.950 . S
C1736 C1735 1.398 . S
C1736 C1737 1.391 . S
C1737 H1725 0.950 . S
C1737 C1733 1.393 . S
C1737 C1736 1.391 . S
C1738 H1728 0.950 . S
C1738 C1739 1.386 . S
C1738 C1740 1.391 . S
C1739 C1738 1.386 . S
C1739 C1743 1.393 . S
C1740 H1729 0.950 . S
C1740 C1738 1.391 . S
C1740 C1741 1.400 . S
C1741 C1735 1.491 . S
C1741 C1740 1.400 . S
C1741 C1742 1.398 . S
C1742 H1730 0.950 . S
C1742 C1741 1.398 . S
C1742 C1743 1.391 . S
C1743 H1731 0.950 . S
C1743 C1739 1.393 . S
C1743 C1742 1.391 . S
H1744 C1752 0.950 . S
H1745 C1757 0.950 . S
H1746 C1754 0.950 . S
H1747 C1756 0.950 . S
H1748 C1758 0.950 . S
H1749 C1760 0.950 . S
H1750 C1762 0.950 . S
H1751 C1763 0.950 . S
C1752 H1744 0.950 . S
C1752 C1753 1.386 . S
C1752 C1754 1.391 . S
C1753 C1752 1.386 . S
C1753 C1757 1.393 . S
C1754 H1746 0.950 . S
C1754 C1752 1.391 . S
C1754 C1755 1.400 . S
C1755 C1754 1.400 . S
C1755 C1756 1.398 . S
C1755 C1761 1.491 . S
C1756 H1747 0.950 . S
C1756 C1755 1.398 . S
C1756 C1757 1.391 . S
C1757 H1745 0.950 . S
C1757 C1753 1.393 . S
C1757 C1756 1.391 . S
C1758 H1748 0.950 . S
C1758 C1759 1.386 . S
C1758 C1760 1.391 . S
C1759 C1758 1.386 . S
C1759 C1763 1.393 . S
C1760 H1749 0.950 . S
C1760 C1758 1.391 . S
C1760 C1761 1.400 . S
C1761 C1755 1.491 . S
C1761 C1760 1.400 . S
C1761 C1762 1.398 . S
C1762 H1750 0.950 . S
C1762 C1761 1.398 . S
C1762 C1763 1.391 . S
C1763 H1751 0.950 . S
C1763 C1759 1.393 . S
C1763 C1762 1.391 . S
H1764 C1772 0.950 . S
H1765 C1777 0.950 . S
H1766 C1774 0.950 . S
H1767 C1776 0.950 . S
H1768 C1778 0.950 . S
H1769 C1780 0.950 . S
H1770 C1782 0.950 . S
H1771 C1783 0.950 . S
C1772 H1764 0.950 . S
C1772 C1773 1.386 . S
C1772 C1774 1.391 . S
C1773 C1772 1.386 . S
C1773 C1777 1.393 . S
C1774 H1766 0.950 . S
C1774 C1772 1.391 . S
C1774 C1775 1.400 . S
C1775 C1774 1.400 . S
C1775 C1776 1.398 . S
C1775 C1781 1.491 . S
C1776 H1767 0.950 . S
C1776 C1775 1.398 . S
C1776 C1777 1.391 . S
C1777 H1765 0.950 . S
C1777 C1773 1.393 . S
C1777 C1776 1.391 . S
C1778 H1768 0.950 . S
C1778 C1779 1.386 . S
C1778 C1780 1.391 . S
C1779 C1778 1.386 . S
C1779 C1783 1.393 . S
C1780 H1769 0.950 . S
C1780 C1778 1.391 . S
C1780 C1781 1.400 . S
C1781 C1775 1.491 . S
C1781 C1780 1.400 . S
C1781 C1782 1.398 . S
C1782 H1770 0.950 . S
C1782 C1781 1.398 . S
C1782 C1783 1.391 . S
C1783 H1771 0.950 . S
C1783 C1779 1.393 . S
C1783 C1782 1.391 . S
H1784 C1792 0.950 . S
H1785 C1797 0.950 . S
H1786 C1794 0.950 . S
H1787 C1796 0.950 . S
H1788 C1798 0.950 . S
H1789 C1800 0.950 . S
H1790 C1802 0.950 . S
H1791 C1803 0.950 . S
C1792 H1784 0.950 . S
C1792 C1793 1.386 . S
C1792 C1794 1.391 . S
C1793 C1792 1.386 . S
C1793 C1797 1.393 . S
C1794 H1786 0.950 . S
C1794 C1792 1.391 . S
C1794 C1795 1.400 . S
C1795 C1794 1.400 . S
C1795 C1796 1.398 . S
C1795 C1801 1.491 . S
C1796 H1787 0.950 . S
C1796 C1795 1.398 . S
C1796 C1797 1.391 . S
C1797 H1785 0.950 . S
C1797 C1793 1.393 . S
C1797 C1796 1.391 . S
C1798 H1788 0.950 . S
C1798 C1799 1.386 . S
C1798 C1800 1.391 . S
C1799 C1798 1.386 . S
C1799 C1803 1.393 . S
C1800 H1789 0.950 . S
C1800 C1798 1.391 . S
C1800 C1801 1.400 . S
C1801 C1795 1.491 . S
C1801 C1800 1.400 . S
C1801 C1802 1.398 . S
C1802 H1790 0.950 . S
C1802 C1801 1.398 . S
C1802 C1803 1.391 . S
C1803 H1791 0.950 . S
C1803 C1799 1.393 . S
C1803 C1802 1.391 . S
H1804 C1812 0.950 . S
H1805 C1817 0.950 . S
H1806 C1814 0.950 . S
H1807 C1816 0.950 . S
H1808 C1818 0.950 . S
H1809 C1820 0.950 . S
H1810 C1822 0.950 . S
H1811 C1823 0.950 . S
C1812 H1804 0.950 . S
C1812 C1813 1.386 . S
C1812 C1814 1.391 . S
C1813 C1812 1.386 . S
C1813 C1817 1.393 . S
C1814 H1806 0.950 . S
C1814 C1812 1.391 . S
C1814 C1815 1.400 . S
C1815 C1814 1.400 . S
C1815 C1816 1.398 . S
C1815 C1821 1.491 . S
C1816 H1807 0.950 . S
C1816 C1815 1.398 . S
C1816 C1817 1.391 . S
C1817 H1805 0.950 . S
C1817 C1813 1.393 . S
C1817 C1816 1.391 . S
C1818 H1808 0.950 . S
C1818 C1819 1.386 . S
C1818 C1820 1.391 . S
C1819 C1818 1.386 . S
C1819 C1823 1.393 . S
C1820 H1809 0.950 . S
C1820 C1818 1.391 . S
C1820 C1821 1.400 . S
C1821 C1815 1.491 . S
C1821 C1820 1.400 . S
C1821 C1822 1.398 . S
C1822 H1810 0.950 . S
C1822 C1821 1.398 . S
C1822 C1823 1.391 . S
C1823 H1811 0.950 . S
C1823 C1819 1.393 . S
C1823 C1822 1.391 . S
H1824 C1832 0.950 . S
H1825 C1837 0.950 . S
H1826 C1834 0.950 . S
H1827 C1836 0.950 . S
H1828 C1838 0.950 . S
H1829 C1840 0.950 . S
H1830 C1842 0.950 . S
H1831 C1843 0.950 . S
C1832 H1824 0.950 . S
C1832 C1833 1.386 . S
C1832 C1834 1.391 . S
C1833 C1832 1.386 . S
C1833 C1837 1.393 . S
C1834 H1826 0.950 . S
C1834 C1832 1.391 . S
C1834 C1835 1.400 . S
C1835 C1834 1.400 . S
C1835 C1836 1.398 . S
C1835 C1841 1.491 . S
C1836 H1827 0.950 . S
C1836 C1835 1.398 . S
C1836 C1837 1.391 . S
C1837 H1825 0.950 . S
C1837 C1833 1.393 . S
C1837 C1836 1.391 . S
C1838 H1828 0.950 . S
C1838 C1839 1.386 . S
C1838 C1840 1.391 . S
C1839 C1838 1.386 . S
C1839 C1843 1.393 . S
C1840 H1829 0.950 . S
C1840 C1838 1.391 . S
C1840 C1841 1.400 . S
C1841 C1835 1.491 . S
C1841 C1840 1.400 . S
C1841 C1842 1.398 . S
C1842 H1830 0.950 . S
C1842 C1841 1.398 . S
C1842 C1843 1.391 . S
C1843 H1831 0.950 . S
C1843 C1839 1.393 . S
C1843 C1842 1.391 . S
H1844 C1852 0.950 . S
H1845 C1857 0.950 . S
H1846 C1854 0.950 . S
H1847 C1856 0.950 . S
H1848 C1858 0.950 . S
H1849 C1860 0.950 . S
H1850 C1862 0.950 . S
H1851 C1863 0.950 . S
C1852 H1844 0.950 . S
C1852 C1853 1.386 . S
C1852 C1854 1.391 . S
C1853 C1852 1.386 . S
C1853 C1857 1.393 . S
C1854 H1846 0.950 . S
C1854 C1852 1.391 . S
C1854 C1855 1.400 . S
C1855 C1854 1.400 . S
C1855 C1856 1.398 . S
C1855 C1861 1.491 . S
C1856 H1847 0.950 . S
C1856 C1855 1.398 . S
C1856 C1857 1.391 . S
C1857 H1845 0.950 . S
C1857 C1853 1.393 . S
C1857 C1856 1.391 . S
C1858 H1848 0.950 . S
C1858 C1859 1.386 . S
C1858 C1860 1.391 . S
C1859 C1858 1.386 . S
C1859 C1863 1.393 . S
C1860 H1849 0.950 . S
C1860 C1858 1.391 . S
C1860 C1861 1.400 . S
C1861 C1855 1.491 . S
C1861 C1860 1.400 . S
C1861 C1862 1.398 . S
C1862 H1850 0.950 . S
C1862 C1861 1.398 . S
C1862 C1863 1.391 . S
C1863 H1851 0.950 . S
C1863 C1859 1.393 . S
C1863 C1862 1.391 . S
H1864 C1872 0.950 . S
H1865 C1877 0.950 . S
H1866 C1874 0.950 . S
H1867 C1876 0.950 . S
H1868 C1878 0.950 . S
H1869 C1880 0.950 . S
H1870 C1882 0.950 . S
H1871 C1883 0.950 . S
C1872 H1864 0.950 . S
C1872 C1873 1.386 . S
C1872 C1874 1.391 . S
C1873 C1872 1.386 . S
C1873 C1877 1.393 . S
C1874 H1866 0.950 . S
C1874 C1872 1.391 . S
C1874 C1875 1.400 . S
C1875 C1874 1.400 . S
C1875 C1876 1.398 . S
C1875 C1881 1.491 . S
C1876 H1867 0.950 . S
C1876 C1875 1.398 . S
C1876 C1877 1.391 . S
C1877 H1865 0.950 . S
C1877 C1873 1.393 . S
C1877 C1876 1.391 . S
C1878 H1868 0.950 . S
C1878 C1879 1.386 . S
C1878 C1880 1.391 . S
C1879 C1878 1.386 . S
C1879 C1883 1.393 . S
C1880 H1869 0.950 . S
C1880 C1878 1.391 . S
C1880 C1881 1.400 . S
C1881 C1875 1.491 . S
C1881 C1880 1.400 . S
C1881 C1882 1.398 . S
C1882 H1870 0.950 . S
C1882 C1881 1.398 . S
C1882 C1883 1.391 . S
C1883 H1871 0.950 . S
C1883 C1879 1.393 . S
C1883 C1882 1.391 . S
H1884 C1892 0.950 . S
H1885 C1897 0.950 . S
H1886 C1894 0.950 . S
H1887 C1896 0.950 . S
H1888 C1898 0.950 . S
H1889 C1900 0.950 . S
H1890 C1902 0.950 . S
H1891 C1903 0.950 . S
C1892 H1884 0.950 . S
C1892 C1893 1.386 . S
C1892 C1894 1.391 . S
C1893 C1892 1.386 . S
C1893 C1897 1.393 . S
C1894 H1886 0.950 . S
C1894 C1892 1.391 . S
C1894 C1895 1.400 . S
C1895 C1894 1.400 . S
C1895 C1896 1.398 . S
C1895 C1901 1.491 . S
C1896 H1887 0.950 . S
C1896 C1895 1.398 . S
C1896 C1897 1.391 . S
C1897 H1885 0.950 . S
C1897 C1893 1.393 . S
C1897 C1896 1.391 . S
C1898 H1888 0.950 . S
C1898 C1899 1.386 . S
C1898 C1900 1.391 . S
C1899 C1898 1.386 . S
C1899 C1903 1.393 . S
C1900 H1889 0.950 . S
C1900 C1898 1.391 . S
C1900 C1901 1.400 . S
C1901 C1895 1.491 . S
C1901 C1900 1.400 . S
C1901 C1902 1.398 . S
C1902 H1890 0.950 . S
C1902 C1901 1.398 . S
C1902 C1903 1.391 . S
C1903 H1891 0.950 . S
C1903 C1899 1.393 . S
C1903 C1902 1.391 . S
H1904 C1912 0.950 . S
H1905 C1917 0.950 . S
H1906 C1914 0.950 . S
H1907 C1916 0.950 . S
H1908 C1918 0.950 . S
H1909 C1920 0.950 . S
H1910 C1922 0.950 . S
H1911 C1923 0.950 . S
C1912 H1904 0.950 . S
C1912 C1913 1.386 . S
C1912 C1914 1.391 . S
C1913 C1912 1.386 . S
C1913 C1917 1.393 . S
C1914 H1906 0.950 . S
C1914 C1912 1.391 . S
C1914 C1915 1.400 . S
C1915 C1914 1.400 . S
C1915 C1916 1.398 . S
C1915 C1921 1.491 . S
C1916 H1907 0.950 . S
C1916 C1915 1.398 . S
C1916 C1917 1.391 . S
C1917 H1905 0.950 . S
C1917 C1913 1.393 . S
C1917 C1916 1.391 . S
C1918 H1908 0.950 . S
C1918 C1919 1.386 . S
C1918 C1920 1.391 . S
C1919 C1918 1.386 . S
C1919 C1923 1.393 . S
C1920 H1909 0.950 . S
C1920 C1918 1.391 . S
C1920 C1921 1.400 . S
C1921 C1915 1.491 . S
C1921 C1920 1.400 . S
C1921 C1922 1.398 . S
C1922 H1910 0.950 . S
C1922 C1921 1.398 . S
C1922 C1923 1.391 . S
C1923 H1911 0.950 . S
C1923 C1919 1.393 . S
C1923 C1922 1.391 . S
H1924 C1932 0.950 . S
H1925 C1937 0.950 . S
H1926 C1934 0.950 . S
H1927 C1936 0.950 . S
H1928 C1938 0.950 . S
H1929 C1940 0.950 . S
H1930 C1942 0.950 . S
H1931 C1943 0.950 . S
C1932 H1924 0.950 . S
C1932 C1933 1.386 . S
C1932 C1934 1.391 . S
C1933 C1932 1.386 . S
C1933 C1937 1.393 . S
C1934 H1926 0.950 . S
C1934 C1932 1.391 . S
C1934 C1935 1.400 . S
C1935 C1934 1.400 . S
C1935 C1936 1.398 . S
C1935 C1941 1.491 . S
C1936 H1927 0.950 . S
C1936 C1935 1.398 . S
C1936 C1937 1.391 . S
C1937 H1925 0.950 . S
C1937 C1933 1.393 . S
C1937 C1936 1.391 . S
C1938 H1928 0.950 . S
C1938 C1939 1.386 . S
C1938 C1940 1.391 . S
C1939 C1938 1.386 . S
C1939 C1943 1.393 . S
C1940 H1929 0.950 . S
C1940 C1938 1.391 . S
C1940 C1941 1.400 . S
C1941 C1935 1.491 . S
C1941 C1940 1.400 . S
C1941 C1942 1.398 . S
C1942 H1930 0.950 . S
C1942 C1941 1.398 . S
C1942 C1943 1.391 . S
C1943 H1931 0.950 . S
C1943 C1939 1.393 . S
C1943 C1942 1.391 . S
H1944 C1952 0.950 . S
H1945 C1957 0.950 . S
H1946 C1954 0.950 . S
H1947 C1956 0.950 . S
H1948 C1958 0.950 . S
H1949 C1960 0.950 . S
H1950 C1962 0.950 . S
H1951 C1963 0.950 . S
C1952 H1944 0.950 . S
C1952 C1953 1.386 . S
C1952 C1954 1.391 . S
C1953 C1952 1.386 . S
C1953 C1957 1.393 . S
C1954 H1946 0.950 . S
C1954 C1952 1.391 . S
C1954 C1955 1.400 . S
C1955 C1954 1.400 . S
C1955 C1956 1.398 . S
C1955 C1961 1.491 . S
C1956 H1947 0.950 . S
C1956 C1955 1.398 . S
C1956 C1957 1.391 . S
C1957 H1945 0.950 . S
C1957 C1953 1.393 . S
C1957 C1956 1.391 . S
C1958 H1948 0.950 . S
C1958 C1959 1.386 . S
C1958 C1960 1.391 . S
C1959 C1958 1.386 . S
C1959 C1963 1.393 . S
C1960 H1949 0.950 . S
C1960 C1958 1.391 . S
C1960 C1961 1.400 . S
C1961 C1955 1.491 . S
C1961 C1960 1.400 . S
C1961 C1962 1.398 . S
C1962 H1950 0.950 . S
C1962 C1961 1.398 . S
C1962 C1963 1.391 . S
C1963 H1951 0.950 . S
C1963 C1959 1.393 . S
C1963 C1962 1.391 . S
H1964 C1972 0.950 . S
H1965 C1977 0.950 . S
H1966 C1974 0.950 . S
H1967 C1976 0.950 . S
H1968 C1978 0.950 . S
H1969 C1980 0.950 . S
H1970 C1982 0.950 . S
H1971 C1983 0.950 . S
C1972 H1964 0.950 . S
C1972 C1973 1.386 . S
C1972 C1974 1.391 . S
C1973 C1972 1.386 . S
C1973 C1977 1.393 . S
C1974 H1966 0.950 . S
C1974 C1972 1.391 . S
C1974 C1975 1.400 . S
C1975 C1974 1.400 . S
C1975 C1976 1.398 . S
C1975 C1981 1.491 . S
C1976 H1967 0.950 . S
C1976 C1975 1.398 . S
C1976 C1977 1.391 . S
C1977 H1965 0.950 . S
C1977 C1973 1.393 . S
C1977 C1976 1.391 . S
C1978 H1968 0.950 . S
C1978 C1979 1.386 . S
C1978 C1980 1.391 . S
C1979 C1978 1.386 . S
C1979 C1983 1.393 . S
C1980 H1969 0.950 . S
C1980 C1978 1.391 . S
C1980 C1981 1.400 . S
C1981 C1975 1.491 . S
C1981 C1980 1.400 . S
C1981 C1982 1.398 . S
C1982 H1970 0.950 . S
C1982 C1981 1.398 . S
C1982 C1983 1.391 . S
C1983 H1971 0.950 . S
C1983 C1979 1.393 . S
C1983 C1982 1.391 . S
H1984 C1992 0.950 . S
H1985 C1997 0.950 . S
H1986 C1994 0.950 . S
H1987 C1996 0.950 . S
H1988 C1998 0.950 . S
H1989 C2000 0.950 . S
H1990 C2002 0.950 . S
H1991 C2003 0.950 . S
C1992 H1984 0.950 . S
C1992 C1993 1.386 . S
C1992 C1994 1.391 . S
C1993 C1992 1.386 . S
C1993 C1997 1.393 . S
C1994 H1986 0.950 . S
C1994 C1992 1.391 . S
C1994 C1995 1.400 . S
C1995 C1994 1.400 . S
C1995 C1996 1.398 . S
C1995 C2001 1.491 . S
C1996 H1987 0.950 . S
C1996 C1995 1.398 . S
C1996 C1997 1.391 . S
C1997 H1985 0.950 . S
C1997 C1993 1.393 . S
C1997 C1996 1.391 . S
C1998 H1988 0.950 . S
C1998 C1999 1.386 . S
C1998 C2000 1.391 . S
C1999 C1998 1.386 . S
C1999 C2003 1.393 . S
C2000 H1989 0.950 . S
C2000 C1998 1.391 . S
C2000 C2001 1.400 . S
C2001 C1995 1.491 . S
C2001 C2000 1.400 . S
C2001 C2002 1.398 . S
C2002 H1990 0.950 . S
C2002 C2001 1.398 . S
C2002 C2003 1.391 . S
C2003 H1991 0.950 . S
C2003 C1999 1.393 . S
C2003 C2002 1.391 . S
H2004 C2012 0.950 . S
H2005 C2017 0.950 . S
H2006 C2014 0.950 . S
H2007 C2016 0.950 . S
H2008 C2018 0.950 . S
H2009 C2020 0.950 . S
H2010 C2022 0.950 . S
H2011 C2023 0.950 . S
C2012 H2004 0.950 . S
C2012 C2013 1.386 . S
C2012 C2014 1.391 . S
C2013 C2012 1.386 . S
C2013 C2017 1.393 . S
C2014 H2006 0.950 . S
C2014 C2012 1.391 . S
C2014 C2015 1.400 . S
C2015 C2014 1.400 . S
C2015 C2016 1.398 . S
C2015 C2021 1.491 . S
C2016 H2007 0.950 . S
C2016 C2015 1.398 . S
C2016 C2017 1.391 . S
C2017 H2005 0.950 . S
C2017 C2013 1.393 . S
C2017 C2016 1.391 . S
C2018 H2008 0.950 . S
C2018 C2019 1.386 . S
C2018 C2020 1.391 . S
C2019 C2018 1.386 . S
C2019 C2023 1.393 . S
C2020 H2009 0.950 . S
C2020 C2018 1.391 . S
C2020 C2021 1.400 . S
C2021 C2015 1.491 . S
C2021 C2020 1.400 . S
C2021 C2022 1.398 . S
C2022 H2010 0.950 . S
C2022 C2021 1.398 . S
C2022 C2023 1.391 . S
C2023 H2011 0.950 . S
C2023 C2019 1.393 . S
C2023 C2022 1.391 . S
H2024 C2032 0.950 . S
H2025 C2037 0.950 . S
H2026 C2034 0.950 . S
H2027 C2036 0.950 . S
H2028 C2038 0.950 . S
H2029 C2040 0.950 . S
H2030 C2042 0.950 . S
H2031 C2043 0.950 . S
C2032 H2024 0.950 . S
C2032 C2033 1.386 . S
C2032 C2034 1.391 . S
C2033 C2032 1.386 . S
C2033 C2037 1.393 . S
C2034 H2026 0.950 . S
C2034 C2032 1.391 . S
C2034 C2035 1.400 . S
C2035 C2034 1.400 . S
C2035 C2036 1.398 . S
C2035 C2041 1.491 . S
C2036 H2027 0.950 . S
C2036 C2035 1.398 . S
C2036 C2037 1.391 . S
C2037 H2025 0.950 . S
C2037 C2033 1.393 . S
C2037 C2036 1.391 . S
C2038 H2028 0.950 . S
C2038 C2039 1.386 . S
C2038 C2040 1.391 . S
C2039 C2038 1.386 . S
C2039 C2043 1.393 . S
C2040 H2029 0.950 . S
C2040 C2038 1.391 . S
C2040 C2041 1.400 . S
C2041 C2035 1.491 . S
C2041 C2040 1.400 . S
C2041 C2042 1.398 . S
C2042 H2030 0.950 . S
C2042 C2041 1.398 . S
C2042 C2043 1.391 . S
C2043 H2031 0.950 . S
C2043 C2039 1.393 . S
C2043 C2042 1.391 . S
H2044 C2052 0.950 . S
H2045 C2057 0.950 . S
H2046 C2054 0.950 . S
H2047 C2056 0.950 . S
H2048 C2058 0.950 . S
H2049 C2060 0.950 . S
H2050 C2062 0.950 . S
H2051 C2063 0.950 . S
C2052 H2044 0.950 . S
C2052 C2053 1.386 . S
C2052 C2054 1.391 . S
C2053 C2052 1.386 . S
C2053 C2057 1.393 . S
C2054 H2046 0.950 . S
C2054 C2052 1.391 . S
C2054 C2055 1.400 . S
C2055 C2054 1.400 . S
C2055 C2056 1.398 . S
C2055 C2061 1.491 . S
C2056 H2047 0.950 . S
C2056 C2055 1.398 . S
C2056 C2057 1.391 . S
C2057 H2045 0.950 . S
C2057 C2053 1.393 . S
C2057 C2056 1.391 . S
C2058 H2048 0.950 . S
C2058 C2059 1.386 . S
C2058 C2060 1.391 . S
C2059 C2058 1.386 . S
C2059 C2063 1.393 . S
C2060 H2049 0.950 . S
C2060 C2058 1.391 . S
C2060 C2061 1.400 . S
C2061 C2055 1.491 . S
C2061 C2060 1.400 . S
C2061 C2062 1.398 . S
C2062 H2050 0.950 . S
C2062 C2061 1.398 . S
C2062 C2063 1.391 . S
C2063 H2051 0.950 . S
C2063 C2059 1.393 . S
C2063 C2062 1.391 . S
H2064 C2072 0.950 . S
H2065 C2077 0.950 . S
H2066 C2074 0.950 . S
H2067 C2076 0.950 . S
H2068 C2078 0.950 . S
H2069 C2080 0.950 . S
H2070 C2082 0.950 . S
H2071 C2083 0.950 . S
C2072 H2064 0.950 . S
C2072 C2073 1.386 . S
C2072 C2074 1.391 . S
C2073 C2072 1.386 . S
C2073 C2077 1.393 . S
C2074 H2066 0.950 . S
C2074 C2072 1.391 . S
C2074 C2075 1.400 . S
C2075 C2074 1.400 . S
C2075 C2076 1.398 . S
C2075 C2081 1.491 . S
C2076 H2067 0.950 . S
C2076 C2075 1.398 . S
C2076 C2077 1.391 . S
C2077 H2065 0.950 . S
C2077 C2073 1.393 . S
C2077 C2076 1.391 . S
C2078 H2068 0.950 . S
C2078 C2079 1.386 . S
C2078 C2080 1.391 . S
C2079 C2078 1.386 . S
C2079 C2083 1.393 . S
C2080 H2069 0.950 . S
C2080 C2078 1.391 . S
C2080 C2081 1.400 . S
C2081 C2075 1.491 . S
C2081 C2080 1.400 . S
C2081 C2082 1.398 . S
C2082 H2070 0.950 . S
C2082 C2081 1.398 . S
C2082 C2083 1.391 . S
C2083 H2071 0.950 . S
C2083 C2079 1.393 . S
C2083 C2082 1.391 . S
H2084 C2092 0.950 . S
H2085 C2097 0.950 . S
H2086 C2094 0.950 . S
H2087 C2096 0.950 . S
H2088 C2098 0.950 . S
H2089 C2100 0.950 . S
H2090 C2102 0.950 . S
H2091 C2103 0.950 . S
C2092 H2084 0.950 . S
C2092 C2093 1.386 . S
C2092 C2094 1.391 . S
C2093 C2092 1.386 . S
C2093 C2097 1.393 . S
C2094 H2086 0.950 . S
C2094 C2092 1.391 . S
C2094 C2095 1.400 . S
C2095 C2094 1.400 . S
C2095 C2096 1.398 . S
C2095 C2101 1.491 . S
C2096 H2087 0.950 . S
C2096 C2095 1.398 . S
C2096 C2097 1.391 . S
C2097 H2085 0.950 . S
C2097 C2093 1.393 . S
C2097 C2096 1.391 . S
C2098 H2088 0.950 . S
C2098 C2099 1.386 . S
C2098 C2100 1.391 . S
C2099 C2098 1.386 . S
C2099 C2103 1.393 . S
C2100 H2089 0.950 . S
C2100 C2098 1.391 . S
C2100 C2101 1.400 . S
C2101 C2095 1.491 . S
C2101 C2100 1.400 . S
C2101 C2102 1.398 . S
C2102 H2090 0.950 . S
C2102 C2101 1.398 . S
C2102 C2103 1.391 . S
C2103 H2091 0.950 . S
C2103 C2099 1.393 . S
C2103 C2102 1.391 . S
H2104 C2112 0.950 . S
H2105 C2117 0.950 . S
H2106 C2114 0.950 . S
H2107 C2116 0.950 . S
H2108 C2118 0.950 . S
H2109 C2120 0.950 . S
H2110 C2122 0.950 . S
H2111 C2123 0.950 . S
C2112 H2104 0.950 . S
C2112 C2113 1.386 . S
C2112 C2114 1.391 . S
C2113 C2112 1.386 . S
C2113 C2117 1.393 . S
C2114 H2106 0.950 . S
C2114 C2112 1.391 . S
C2114 C2115 1.400 . S
C2115 C2114 1.400 . S
C2115 C2116 1.398 . S
C2115 C2121 1.491 . S
C2116 H2107 0.950 . S
C2116 C2115 1.398 . S
C2116 C2117 1.391 . S
C2117 H2105 0.950 . S
C2117 C2113 1.393 . S
C2117 C2116 1.391 . S
C2118 H2108 0.950 . S
C2118 C2119 1.386 . S
C2118 C2120 1.391 . S
C2119 C2118 1.386 . S
C2119 C2123 1.393 . S
C2120 H2109 0.950 . S
C2120 C2118 1.391 . S
C2120 C2121 1.400 . S
C2121 C2115 1.491 . S
C2121 C2120 1.400 . S
C2121 C2122 1.398 . S
C2122 H2110 0.950 . S
C2122 C2121 1.398 . S
C2122 C2123 1.391 . S
C2123 H2111 0.950 . S
C2123 C2119 1.393 . S
C2123 C2122 1.391 . S
H2124 C2132 0.950 . S
H2125 C2137 0.950 . S
H2126 C2134 0.950 . S
H2127 C2136 0.950 . S
H2128 C2138 0.950 . S
H2129 C2140 0.950 . S
H2130 C2142 0.950 . S
H2131 C2143 0.950 . S
C2132 H2124 0.950 . S
C2132 C2133 1.386 . S
C2132 C2134 1.391 . S
C2133 C2132 1.386 . S
C2133 C2137 1.393 . S
C2134 H2126 0.950 . S
C2134 C2132 1.391 . S
C2134 C2135 1.400 . S
C2135 C2134 1.400 . S
C2135 C2136 1.398 . S
C2135 C2141 1.491 . S
C2136 H2127 0.950 . S
C2136 C2135 1.398 . S
C2136 C2137 1.391 . S
C2137 H2125 0.950 . S
C2137 C2133 1.393 . S
C2137 C2136 1.391 . S
C2138 H2128 0.950 . S
C2138 C2139 1.386 . S
C2138 C2140 1.391 . S
C2139 C2138 1.386 . S
C2139 C2143 1.393 . S
C2140 H2129 0.950 . S
C2140 C2138 1.391 . S
C2140 C2141 1.400 . S
C2141 C2135 1.491 . S
C2141 C2140 1.400 . S
C2141 C2142 1.398 . S
C2142 H2130 0.950 . S
C2142 C2141 1.398 . S
C2142 C2143 1.391 . S
C2143 H2131 0.950 . S
C2143 C2139 1.393 . S
C2143 C2142 1.391 . S
H2144 C2152 0.950 . S
H2145 C2157 0.950 . S
H2146 C2154 0.950 . S
H2147 C2156 0.950 . S
H2148 C2158 0.950 . S
H2149 C2160 0.950 . S
H2150 C2162 0.950 . S
H2151 C2163 0.950 . S
C2152 H2144 0.950 . S
C2152 C2153 1.386 . S
C2152 C2154 1.391 . S
C2153 C2152 1.386 . S
C2153 C2157 1.393 . S
C2154 H2146 0.950 . S
C2154 C2152 1.391 . S
C2154 C2155 1.400 . S
C2155 C2154 1.400 . S
C2155 C2156 1.398 . S
C2155 C2161 1.491 . S
C2156 H2147 0.950 . S
C2156 C2155 1.398 . S
C2156 C2157 1.391 . S
C2157 H2145 0.950 . S
C2157 C2153 1.393 . S
C2157 C2156 1.391 . S
C2158 H2148 0.950 . S
C2158 C2159 1.386 . S
C2158 C2160 1.391 . S
C2159 C2158 1.386 . S
C2159 C2163 1.393 . S
C2160 H2149 0.950 . S
C2160 C2158 1.391 . S
C2160 C2161 1.400 . S
C2161 C2155 1.491 . S
C2161 C2160 1.400 . S
C2161 C2162 1.398 . S
C2162 H2150 0.950 . S
C2162 C2161 1.398 . S
C2162 C2163 1.391 . S
C2163 H2151 0.950 . S
C2163 C2159 1.393 . S
C2163 C2162 1.391 . S
H2164 C2172 0.950 . S
H2165 C2177 0.950 . S
H2166 C2174 0.950 . S
H2167 C2176 0.950 . S
H2168 C2178 0.950 . S
H2169 C2180 0.950 . S
H2170 C2182 0.950 . S
H2171 C2183 0.950 . S
C2172 H2164 0.950 . S
C2172 C2173 1.386 . S
C2172 C2174 1.391 . S
C2173 C2172 1.386 . S
C2173 C2177 1.393 . S
C2174 H2166 0.950 . S
C2174 C2172 1.391 . S
C2174 C2175 1.400 . S
C2175 C2174 1.400 . S
C2175 C2176 1.398 . S
C2175 C2181 1.491 . S
C2176 H2167 0.950 . S
C2176 C2175 1.398 . S
C2176 C2177 1.391 . S
C2177 H2165 0.950 . S
C2177 C2173 1.393 . S
C2177 C2176 1.391 . S
C2178 H2168 0.950 . S
C2178 C2179 1.386 . S
C2178 C2180 1.391 . S
C2179 C2178 1.386 . S
C2179 C2183 1.393 . S
C2180 H2169 0.950 . S
C2180 C2178 1.391 . S
C2180 C2181 1.400 . S
C2181 C2175 1.491 . S
C2181 C2180 1.400 . S
C2181 C2182 1.398 . S
C2182 H2170 0.950 . S
C2182 C2181 1.398 . S
C2182 C2183 1.391 . S
C2183 H2171 0.950 . S
C2183 C2179 1.393 . S
C2183 C2182 1.391 . S
H2184 C2192 0.950 . S
H2185 C2197 0.950 . S
H2186 C2194 0.950 . S
H2187 C2196 0.950 . S
H2188 C2198 0.950 1_455 S
H2189 C2200 0.950 . S
H2190 C2202 0.950 . S
H2191 C2203 0.950 . S
C2192 H2184 0.950 . S
C2192 C2193 1.386 . S
C2192 C2194 1.391 . S
C2193 C2192 1.386 . S
C2193 C2197 1.393 . S
C2194 H2186 0.950 . S
C2194 C2192 1.391 . S
C2194 C2195 1.400 . S
C2195 C2194 1.400 . S
C2195 C2196 1.398 . S
C2195 C2201 1.491 . S
C2196 H2187 0.950 . S
C2196 C2195 1.398 . S
C2196 C2197 1.391 . S
C2197 H2185 0.950 . S
C2197 C2193 1.393 . S
C2197 C2196 1.391 . S
C2198 H2188 0.950 1_655 S
C2198 C2199 1.386 . S
C2198 C2200 1.391 . S
C2199 C2198 1.386 . S
C2199 C2203 1.393 . S
C2200 H2189 0.950 . S
C2200 C2198 1.391 . S
C2200 C2201 1.400 . S
C2201 C2195 1.491 . S
C2201 C2200 1.400 . S
C2201 C2202 1.398 . S
C2202 H2190 0.950 . S
C2202 C2201 1.398 . S
C2202 C2203 1.391 . S
C2203 H2191 0.950 . S
C2203 C2199 1.393 . S
C2203 C2202 1.391 . S
H2204 C2212 0.950 . S
H2205 C2217 0.950 . S
H2206 C2214 0.950 . S
H2207 C2216 0.950 . S
H2208 C2218 0.950 . S
H2209 C2220 0.950 . S
H2210 C2222 0.950 . S
H2211 C2223 0.950 . S
C2212 H2204 0.950 . S
C2212 C2213 1.386 . S
C2212 C2214 1.391 . S
C2213 C2212 1.386 . S
C2213 C2217 1.393 . S
C2214 H2206 0.950 . S
C2214 C2212 1.391 . S
C2214 C2215 1.400 . S
C2215 C2214 1.400 . S
C2215 C2216 1.398 . S
C2215 C2221 1.491 . S
C2216 H2207 0.950 . S
C2216 C2215 1.398 . S
C2216 C2217 1.391 . S
C2217 H2205 0.950 . S
C2217 C2213 1.393 . S
C2217 C2216 1.391 . S
C2218 H2208 0.950 . S
C2218 C2219 1.386 . S
C2218 C2220 1.391 . S
C2219 C2218 1.386 . S
C2219 C2223 1.393 . S
C2220 H2209 0.950 . S
C2220 C2218 1.391 . S
C2220 C2221 1.400 . S
C2221 C2215 1.491 . S
C2221 C2220 1.400 . S
C2221 C2222 1.398 . S
C2222 H2210 0.950 . S
C2222 C2221 1.398 . S
C2222 C2223 1.391 . S
C2223 H2211 0.950 . S
C2223 C2219 1.393 . S
C2223 C2222 1.391 . S
H2224 C2232 0.950 . S
H2225 C2237 0.950 . S
H2226 C2234 0.950 . S
H2227 C2236 0.950 . S
H2228 C2238 0.950 . S
H2229 C2240 0.950 . S
H2230 C2242 0.950 . S
H2231 C2243 0.950 . S
C2232 H2224 0.950 . S
C2232 C2233 1.386 . S
C2232 C2234 1.391 . S
C2233 C2232 1.386 . S
C2233 C2237 1.393 . S
C2234 H2226 0.950 . S
C2234 C2232 1.391 . S
C2234 C2235 1.400 . S
C2235 C2234 1.400 . S
C2235 C2236 1.398 . S
C2235 C2241 1.491 . S
C2236 H2227 0.950 . S
C2236 C2235 1.398 . S
C2236 C2237 1.391 . S
C2237 H2225 0.950 . S
C2237 C2233 1.393 . S
C2237 C2236 1.391 . S
C2238 H2228 0.950 . S
C2238 C2239 1.386 . S
C2238 C2240 1.391 . S
C2239 C2238 1.386 . S
C2239 C2243 1.393 . S
C2240 H2229 0.950 . S
C2240 C2238 1.391 . S
C2240 C2241 1.400 . S
C2241 C2235 1.491 . S
C2241 C2240 1.400 . S
C2241 C2242 1.398 . S
C2242 H2230 0.950 . S
C2242 C2241 1.398 . S
C2242 C2243 1.391 . S
C2243 H2231 0.950 . S
C2243 C2239 1.393 . S
C2243 C2242 1.391 . S
H2244 C2252 0.950 . S
H2245 C2257 0.950 . S
H2246 C2254 0.950 . S
H2247 C2256 0.950 . S
H2248 C2258 0.950 . S
H2249 C2260 0.950 . S
H2250 C2262 0.950 . S
H2251 C2263 0.950 . S
C2252 H2244 0.950 . S
C2252 C2253 1.386 . S
C2252 C2254 1.391 . S
C2253 C2252 1.386 . S
C2253 C2257 1.393 . S
C2254 H2246 0.950 . S
C2254 C2252 1.391 . S
C2254 C2255 1.400 . S
C2255 C2254 1.400 . S
C2255 C2256 1.398 . S
C2255 C2261 1.491 . S
C2256 H2247 0.950 . S
C2256 C2255 1.398 . S
C2256 C2257 1.391 . S
C2257 H2245 0.950 . S
C2257 C2253 1.393 . S
C2257 C2256 1.391 . S
C2258 H2248 0.950 . S
C2258 C2259 1.386 . S
C2258 C2260 1.391 . S
C2259 C2258 1.386 . S
C2259 C2263 1.393 . S
C2260 H2249 0.950 . S
C2260 C2258 1.391 . S
C2260 C2261 1.400 . S
C2261 C2255 1.491 . S
C2261 C2260 1.400 . S
C2261 C2262 1.398 . S
C2262 H2250 0.950 . S
C2262 C2261 1.398 . S
C2262 C2263 1.391 . S
C2263 H2251 0.950 . S
C2263 C2259 1.393 . S
C2263 C2262 1.391 . S
H2264 C2272 0.950 . S
H2265 C2277 0.950 . S
H2266 C2274 0.950 . S
H2267 C2276 0.950 . S
H2268 C2278 0.950 . S
H2269 C2280 0.950 . S
H2270 C2282 0.950 . S
H2271 C2283 0.950 . S
C2272 H2264 0.950 . S
C2272 C2273 1.386 . S
C2272 C2274 1.391 . S
C2273 C2272 1.386 . S
C2273 C2277 1.393 . S
C2274 H2266 0.950 . S
C2274 C2272 1.391 . S
C2274 C2275 1.400 . S
C2275 C2274 1.400 . S
C2275 C2276 1.398 . S
C2275 C2281 1.491 . S
C2276 H2267 0.950 . S
C2276 C2275 1.398 . S
C2276 C2277 1.391 . S
C2277 H2265 0.950 . S
C2277 C2273 1.393 . S
C2277 C2276 1.391 . S
C2278 H2268 0.950 . S
C2278 C2279 1.386 . S
C2278 C2280 1.391 . S
C2279 C2278 1.386 . S
C2279 C2283 1.393 . S
C2280 H2269 0.950 . S
C2280 C2278 1.391 . S
C2280 C2281 1.400 . S
C2281 C2275 1.491 . S
C2281 C2280 1.400 . S
C2281 C2282 1.398 . S
C2282 H2270 0.950 . S
C2282 C2281 1.398 . S
C2282 C2283 1.391 . S
C2283 H2271 0.950 . S
C2283 C2279 1.393 . S
C2283 C2282 1.391 . S
H2284 C2292 0.950 . S
H2285 C2297 0.950 . S
H2286 C2294 0.950 . S
H2287 C2296 0.950 . S
H2288 C2298 0.950 . S
H2289 C2300 0.950 . S
H2290 C2302 0.950 . S
H2291 C2303 0.950 . S
C2292 H2284 0.950 . S
C2292 C2293 1.386 . S
C2292 C2294 1.391 . S
C2293 C2292 1.386 . S
C2293 C2297 1.393 . S
C2294 H2286 0.950 . S
C2294 C2292 1.391 . S
C2294 C2295 1.400 . S
C2295 C2294 1.400 . S
C2295 C2296 1.398 . S
C2295 C2301 1.491 . S
C2296 H2287 0.950 . S
C2296 C2295 1.398 . S
C2296 C2297 1.391 . S
C2297 H2285 0.950 . S
C2297 C2293 1.393 . S
C2297 C2296 1.391 . S
C2298 H2288 0.950 . S
C2298 C2299 1.386 . S
C2298 C2300 1.391 . S
C2299 C2298 1.386 . S
C2299 C2303 1.393 . S
C2300 H2289 0.950 . S
C2300 C2298 1.391 . S
C2300 C2301 1.400 . S
C2301 C2295 1.491 . S
C2301 C2300 1.400 . S
C2301 C2302 1.398 . S
C2302 H2290 0.950 . S
C2302 C2301 1.398 . S
C2302 C2303 1.391 . S
C2303 H2291 0.950 . S
C2303 C2299 1.393 . S
C2303 C2302 1.391 . S
H2304 C2312 0.950 . S
H2305 C2317 0.950 . S
H2306 C2314 0.950 . S
H2307 C2316 0.950 . S
H2308 C2318 0.950 . S
H2309 C2320 0.950 . S
H2310 C2322 0.950 . S
H2311 C2323 0.950 . S
C2312 H2304 0.950 . S
C2312 C2313 1.386 . S
C2312 C2314 1.391 . S
C2313 C2312 1.386 . S
C2313 C2317 1.393 . S
C2314 H2306 0.950 . S
C2314 C2312 1.391 . S
C2314 C2315 1.400 . S
C2315 C2314 1.400 . S
C2315 C2316 1.398 . S
C2315 C2321 1.491 . S
C2316 H2307 0.950 . S
C2316 C2315 1.398 . S
C2316 C2317 1.391 . S
C2317 H2305 0.950 . S
C2317 C2313 1.393 . S
C2317 C2316 1.391 . S
C2318 H2308 0.950 . S
C2318 C2319 1.386 . S
C2318 C2320 1.391 . S
C2319 C2318 1.386 . S
C2319 C2323 1.393 . S
C2320 H2309 0.950 . S
C2320 C2318 1.391 . S
C2320 C2321 1.400 . S
C2321 C2315 1.491 . S
C2321 C2320 1.400 . S
C2321 C2322 1.398 . S
C2322 H2310 0.950 . S
C2322 C2321 1.398 . S
C2322 C2323 1.391 . S
C2323 H2311 0.950 . S
C2323 C2319 1.393 . S
C2323 C2322 1.391 . S
H2324 C2332 0.950 . S
H2325 C2337 0.950 . S
H2326 C2334 0.950 . S
H2327 C2336 0.950 . S
H2328 C2338 0.950 . S
H2329 C2340 0.950 . S
H2330 C2342 0.950 . S
H2331 C2343 0.950 . S
C2332 H2324 0.950 . S
C2332 C2333 1.386 . S
C2332 C2334 1.391 . S
C2333 C2332 1.386 . S
C2333 C2337 1.393 . S
C2334 H2326 0.950 . S
C2334 C2332 1.391 . S
C2334 C2335 1.400 . S
C2335 C2334 1.400 . S
C2335 C2336 1.398 . S
C2335 C2341 1.491 . S
C2336 H2327 0.950 . S
C2336 C2335 1.398 . S
C2336 C2337 1.391 . S
C2337 H2325 0.950 . S
C2337 C2333 1.393 . S
C2337 C2336 1.391 . S
C2338 H2328 0.950 . S
C2338 C2339 1.386 . S
C2338 C2340 1.391 . S
C2339 C2338 1.386 . S
C2339 C2343 1.393 . S
C2340 H2329 0.950 . S
C2340 C2338 1.391 . S
C2340 C2341 1.400 . S
C2341 C2335 1.491 . S
C2341 C2340 1.400 . S
C2341 C2342 1.398 . S
C2342 H2330 0.950 . S
C2342 C2341 1.398 . S
C2342 C2343 1.391 . S
C2343 H2331 0.950 . S
C2343 C2339 1.393 . S
C2343 C2342 1.391 . S
H2344 C2352 0.950 . S
H2345 C2357 0.950 . S
H2346 C2354 0.950 . S
H2347 C2356 0.950 . S
H2348 C2358 0.950 . S
H2349 C2360 0.950 . S
H2350 C2362 0.950 . S
H2351 C2363 0.950 . S
C2352 H2344 0.950 . S
C2352 C2353 1.386 . S
C2352 C2354 1.391 . S
C2353 C2352 1.386 . S
C2353 C2357 1.393 . S
C2354 H2346 0.950 . S
C2354 C2352 1.391 . S
C2354 C2355 1.400 . S
C2355 C2354 1.400 . S
C2355 C2356 1.398 . S
C2355 C2361 1.491 . S
C2356 H2347 0.950 . S
C2356 C2355 1.398 . S
C2356 C2357 1.391 . S
C2357 H2345 0.950 . S
C2357 C2353 1.393 . S
C2357 C2356 1.391 . S
C2358 H2348 0.950 . S
C2358 C2359 1.386 . S
C2358 C2360 1.391 . S
C2359 C2358 1.386 . S
C2359 C2363 1.393 . S
C2360 H2349 0.950 . S
C2360 C2358 1.391 . S
C2360 C2361 1.400 . S
C2361 C2355 1.491 . S
C2361 C2360 1.400 . S
C2361 C2362 1.398 . S
C2362 H2350 0.950 . S
C2362 C2361 1.398 . S
C2362 C2363 1.391 . S
C2363 H2351 0.950 . S
C2363 C2359 1.393 . S
C2363 C2362 1.391 . S
H2364 C2372 0.950 . S
H2365 C2377 0.950 . S
H2366 C2374 0.950 . S
H2367 C2376 0.950 . S
H2368 C2378 0.950 . S
H2369 C2380 0.950 . S
H2370 C2382 0.950 . S
H2371 C2383 0.950 . S
C2372 H2364 0.950 . S
C2372 C2373 1.386 . S
C2372 C2374 1.391 . S
C2373 C2372 1.386 . S
C2373 C2377 1.393 . S
C2374 H2366 0.950 . S
C2374 C2372 1.391 . S
C2374 C2375 1.400 . S
C2375 C2374 1.400 . S
C2375 C2376 1.398 . S
C2375 C2381 1.491 . S
C2376 H2367 0.950 . S
C2376 C2375 1.398 . S
C2376 C2377 1.391 . S
C2377 H2365 0.950 . S
C2377 C2373 1.393 . S
C2377 C2376 1.391 . S
C2378 H2368 0.950 . S
C2378 C2379 1.386 . S
C2378 C2380 1.391 . S
C2379 C2378 1.386 . S
C2379 C2383 1.393 . S
C2380 H2369 0.950 . S
C2380 C2378 1.391 . S
C2380 C2381 1.400 . S
C2381 C2375 1.491 . S
C2381 C2380 1.400 . S
C2381 C2382 1.398 . S
C2382 H2370 0.950 . S
C2382 C2381 1.398 . S
C2382 C2383 1.391 . S
C2383 H2371 0.950 . S
C2383 C2379 1.393 . S
C2383 C2382 1.391 . S
H2384 C2392 0.950 . S
H2385 C2397 0.950 . S
H2386 C2394 0.950 . S
H2387 C2396 0.950 . S
H2388 C2398 0.950 . S
H2389 C2400 0.950 . S
H2390 C2402 0.950 . S
H2391 C2403 0.950 . S
C2392 H2384 0.950 . S
C2392 C2393 1.386 . S
C2392 C2394 1.391 . S
C2393 C2392 1.386 . S
C2393 C2397 1.393 . S
C2394 H2386 0.950 . S
C2394 C2392 1.391 . S
C2394 C2395 1.400 . S
C2395 C2394 1.400 . S
C2395 C2396 1.398 . S
C2395 C2401 1.491 . S
C2396 H2387 0.950 . S
C2396 C2395 1.398 . S
C2396 C2397 1.391 . S
C2397 H2385 0.950 . S
C2397 C2393 1.393 . S
C2397 C2396 1.391 . S
C2398 H2388 0.950 . S
C2398 C2399 1.386 . S
C2398 C2400 1.391 . S
C2399 C2398 1.386 . S
C2399 C2403 1.393 . S
C2400 H2389 0.950 . S
C2400 C2398 1.391 . S
C2400 C2401 1.400 . S
C2401 C2395 1.491 . S
C2401 C2400 1.400 . S
C2401 C2402 1.398 . S
C2402 H2390 0.950 . S
C2402 C2401 1.398 . S
C2402 C2403 1.391 . S
C2403 H2391 0.950 . S
C2403 C2399 1.393 . S
C2403 C2402 1.391 . S
H2404 C2412 0.950 . S
H2405 C2417 0.950 . S
H2406 C2414 0.950 . S
H2407 C2416 0.950 . S
H2408 C2418 0.950 . S
H2409 C2420 0.950 . S
H2410 C2422 0.950 . S
H2411 C2423 0.950 . S
C2412 H2404 0.950 . S
C2412 C2413 1.386 . S
C2412 C2414 1.391 . S
C2413 C2412 1.386 . S
C2413 C2417 1.393 . S
C2414 H2406 0.950 . S
C2414 C2412 1.391 . S
C2414 C2415 1.400 . S
C2415 C2414 1.400 . S
C2415 C2416 1.398 . S
C2415 C2421 1.491 . S
C2416 H2407 0.950 . S
C2416 C2415 1.398 . S
C2416 C2417 1.391 . S
C2417 H2405 0.950 . S
C2417 C2413 1.393 . S
C2417 C2416 1.391 . S
C2418 H2408 0.950 . S
C2418 C2419 1.386 . S
C2418 C2420 1.391 . S
C2419 C2418 1.386 . S
C2419 C2423 1.393 . S
C2420 H2409 0.950 . S
C2420 C2418 1.391 . S
C2420 C2421 1.400 . S
C2421 C2415 1.491 . S
C2421 C2420 1.400 . S
C2421 C2422 1.398 . S
C2422 H2410 0.950 . S
C2422 C2421 1.398 . S
C2422 C2423 1.391 . S
C2423 H2411 0.950 . S
C2423 C2419 1.393 . S
C2423 C2422 1.391 . S
H2424 C2432 0.950 . S
H2425 C2437 0.950 . S
H2426 C2434 0.950 . S
H2427 C2436 0.950 . S
H2428 C2438 0.950 . S
H2429 C2440 0.950 . S
H2430 C2442 0.950 . S
H2431 C2443 0.950 . S
C2432 H2424 0.950 . S
C2432 C2433 1.386 . S
C2432 C2434 1.391 . S
C2433 C2432 1.386 . S
C2433 C2437 1.393 . S
C2434 H2426 0.950 . S
C2434 C2432 1.391 . S
C2434 C2435 1.400 . S
C2435 C2434 1.400 . S
C2435 C2436 1.398 . S
C2435 C2441 1.491 . S
C2436 H2427 0.950 . S
C2436 C2435 1.398 . S
C2436 C2437 1.391 . S
C2437 H2425 0.950 . S
C2437 C2433 1.393 . S
C2437 C2436 1.391 . S
C2438 H2428 0.950 . S
C2438 C2439 1.386 . S
C2438 C2440 1.391 . S
C2439 C2438 1.386 . S
C2439 C2443 1.393 . S
C2440 H2429 0.950 . S
C2440 C2438 1.391 . S
C2440 C2441 1.400 . S
C2441 C2435 1.491 . S
C2441 C2440 1.400 . S
C2441 C2442 1.398 . S
C2442 H2430 0.950 . S
C2442 C2441 1.398 . S
C2442 C2443 1.391 . S
C2443 H2431 0.950 . S
C2443 C2439 1.393 . S
C2443 C2442 1.391 . S
H2444 C2452 0.950 . S
H2445 C2457 0.950 . S
H2446 C2454 0.950 . S
H2447 C2456 0.950 . S
H2448 C2458 0.950 . S
H2449 C2460 0.950 . S
H2450 C2462 0.950 . S
H2451 C2463 0.950 . S
C2452 H2444 0.950 . S
C2452 C2453 1.386 . S
C2452 C2454 1.391 . S
C2453 C2452 1.386 . S
C2453 C2457 1.393 . S
C2454 H2446 0.950 . S
C2454 C2452 1.391 . S
C2454 C2455 1.400 . S
C2455 C2454 1.400 . S
C2455 C2456 1.398 . S
C2455 C2461 1.491 . S
C2456 H2447 0.950 . S
C2456 C2455 1.398 . S
C2456 C2457 1.391 . S
C2457 H2445 0.950 . S
C2457 C2453 1.393 . S
C2457 C2456 1.391 . S
C2458 H2448 0.950 . S
C2458 C2459 1.386 . S
C2458 C2460 1.391 . S
C2459 C2458 1.386 . S
C2459 C2463 1.393 . S
C2460 H2449 0.950 . S
C2460 C2458 1.391 . S
C2460 C2461 1.400 . S
C2461 C2455 1.491 . S
C2461 C2460 1.400 . S
C2461 C2462 1.398 . S
C2462 H2450 0.950 . S
C2462 C2461 1.398 . S
C2462 C2463 1.391 . S
C2463 H2451 0.950 . S
C2463 C2459 1.393 . S
C2463 C2462 1.391 . S
H2464 C2472 0.950 . S
H2465 C2477 0.950 . S
H2466 C2474 0.950 . S
H2467 C2476 0.950 . S
H2468 C2478 0.950 . S
H2469 C2480 0.950 . S
H2470 C2482 0.950 . S
H2471 C2483 0.950 . S
C2472 H2464 0.950 . S
C2472 C2473 1.386 . S
C2472 C2474 1.391 . S
C2473 C2472 1.386 . S
C2473 C2477 1.393 . S
C2474 H2466 0.950 . S
C2474 C2472 1.391 . S
C2474 C2475 1.400 . S
C2475 C2474 1.400 . S
C2475 C2476 1.398 . S
C2475 C2481 1.491 . S
C2476 H2467 0.950 . S
C2476 C2475 1.398 . S
C2476 C2477 1.391 . S
C2477 H2465 0.950 . S
C2477 C2473 1.393 . S
C2477 C2476 1.391 . S
C2478 H2468 0.950 . S
C2478 C2479 1.386 . S
C2478 C2480 1.391 . S
C2479 C2478 1.386 . S
C2479 C2483 1.393 . S
C2480 H2469 0.950 . S
C2480 C2478 1.391 . S
C2480 C2481 1.400 . S
C2481 C2475 1.491 . S
C2481 C2480 1.400 . S
C2481 C2482 1.398 . S
C2482 H2470 0.950 . S
C2482 C2481 1.398 . S
C2482 C2483 1.391 . S
C2483 H2471 0.950 . S
C2483 C2479 1.393 . S
C2483 C2482 1.391 . S
H2484 C2492 0.950 . S
H2485 C2497 0.950 . S
H2486 C2494 0.950 . S
H2487 C2496 0.950 . S
H2488 C2498 0.950 . S
H2489 C2500 0.950 . S
H2490 C2502 0.950 . S
H2491 C2503 0.950 . S
C2492 H2484 0.950 . S
C2492 C2493 1.386 . S
C2492 C2494 1.391 . S
C2493 C2492 1.386 . S
C2493 C2497 1.393 . S
C2494 H2486 0.950 . S
C2494 C2492 1.391 . S
C2494 C2495 1.400 . S
C2495 C2494 1.400 . S
C2495 C2496 1.398 . S
C2495 C2501 1.491 . S
C2496 H2487 0.950 . S
C2496 C2495 1.398 . S
C2496 C2497 1.391 . S
C2497 H2485 0.950 . S
C2497 C2493 1.393 . S
C2497 C2496 1.391 . S
C2498 H2488 0.950 . S
C2498 C2499 1.386 . S
C2498 C2500 1.391 . S
C2499 C2498 1.386 . S
C2499 C2503 1.393 . S
C2500 H2489 0.950 . S
C2500 C2498 1.391 . S
C2500 C2501 1.400 . S
C2501 C2495 1.491 . S
C2501 C2500 1.400 . S
C2501 C2502 1.398 . S
C2502 H2490 0.950 . S
C2502 C2501 1.398 . S
C2502 C2503 1.391 . S
C2503 H2491 0.950 . S
C2503 C2499 1.393 . S
C2503 C2502 1.391 . S
H2504 C2512 0.950 . S
H2505 C2517 0.950 . S
H2506 C2514 0.950 . S
H2507 C2516 0.950 . S
H2508 C2518 0.950 . S
H2509 C2520 0.950 . S
H2510 C2522 0.950 . S
H2511 C2523 0.950 . S
C2512 H2504 0.950 . S
C2512 C2513 1.386 . S
C2512 C2514 1.391 . S
C2513 C2512 1.386 . S
C2513 C2517 1.393 . S
C2514 H2506 0.950 . S
C2514 C2512 1.391 . S
C2514 C2515 1.400 . S
C2515 C2514 1.400 . S
C2515 C2516 1.398 . S
C2515 C2521 1.491 . S
C2516 H2507 0.950 . S
C2516 C2515 1.398 . S
C2516 C2517 1.391 . S
C2517 H2505 0.950 . S
C2517 C2513 1.393 . S
C2517 C2516 1.391 . S
C2518 H2508 0.950 . S
C2518 C2519 1.386 . S
C2518 C2520 1.391 . S
C2519 C2518 1.386 . S
C2519 C2523 1.393 . S
C2520 H2509 0.950 . S
C2520 C2518 1.391 . S
C2520 C2521 1.400 . S
C2521 C2515 1.491 . S
C2521 C2520 1.400 . S
C2521 C2522 1.398 . S
C2522 H2510 0.950 . S
C2522 C2521 1.398 . S
C2522 C2523 1.391 . S
C2523 H2511 0.950 . S
C2523 C2519 1.393 . S
C2523 C2522 1.391 . S
H2524 C2532 0.950 . S
H2525 C2537 0.950 . S
H2526 C2534 0.950 . S
H2527 C2536 0.950 . S
H2528 C2538 0.950 . S
H2529 C2540 0.950 . S
H2530 C2542 0.950 . S
H2531 C2543 0.950 . S
C2532 H2524 0.950 . S
C2532 C2533 1.386 . S
C2532 C2534 1.391 . S
C2533 C2532 1.386 . S
C2533 C2537 1.393 . S
C2534 H2526 0.950 . S
C2534 C2532 1.391 . S
C2534 C2535 1.400 . S
C2535 C2534 1.400 . S
C2535 C2536 1.398 . S
C2535 C2541 1.491 . S
C2536 H2527 0.950 . S
C2536 C2535 1.398 . S
C2536 C2537 1.391 . S
C2537 H2525 0.950 . S
C2537 C2533 1.393 . S
C2537 C2536 1.391 . S
C2538 H2528 0.950 . S
C2538 C2539 1.386 . S
C2538 C2540 1.391 . S
C2539 C2538 1.386 . S
C2539 C2543 1.393 . S
C2540 H2529 0.950 . S
C2540 C2538 1.391 . S
C2540 C2541 1.400 . S
C2541 C2535 1.491 . S
C2541 C2540 1.400 . S
C2541 C2542 1.398 . S
C2542 H2530 0.950 . S
C2542 C2541 1.398 . S
C2542 C2543 1.391 . S
C2543 H2531 0.950 . S
C2543 C2539 1.393 . S
C2543 C2542 1.391 . S
H2544 C2552 0.950 . S
H2545 C2557 0.950 . S
H2546 C2554 0.950 . S
H2547 C2556 0.950 . S
H2548 C2558 0.950 . S
H2549 C2560 0.950 . S
H2550 C2562 0.950 . S
H2551 C2563 0.950 . S
C2552 H2544 0.950 . S
C2552 C2553 1.386 . S
C2552 C2554 1.391 . S
C2553 C2552 1.386 . S
C2553 C2557 1.393 . S
C2554 H2546 0.950 . S
C2554 C2552 1.391 . S
C2554 C2555 1.400 . S
C2555 C2554 1.400 . S
C2555 C2556 1.398 . S
C2555 C2561 1.491 . S
C2556 H2547 0.950 . S
C2556 C2555 1.398 . S
C2556 C2557 1.391 . S
C2557 H2545 0.950 . S
C2557 C2553 1.393 . S
C2557 C2556 1.391 . S
C2558 H2548 0.950 . S
C2558 C2559 1.386 . S
C2558 C2560 1.391 . S
C2559 C2558 1.386 . S
C2559 C2563 1.393 . S
C2560 H2549 0.950 . S
C2560 C2558 1.391 . S
C2560 C2561 1.400 . S
C2561 C2555 1.491 . S
C2561 C2560 1.400 . S
C2561 C2562 1.398 . S
C2562 H2550 0.950 . S
C2562 C2561 1.398 . S
C2562 C2563 1.391 . S
C2563 H2551 0.950 . S
C2563 C2559 1.393 . S
C2563 C2562 1.391 . S
H2564 C2572 0.950 . S
H2565 C2577 0.950 . S
H2566 C2574 0.950 . S
H2567 C2576 0.950 . S
H2568 C2578 0.950 . S
H2569 C2580 0.950 . S
H2570 C2582 0.950 . S
H2571 C2583 0.950 . S
C2572 H2564 0.950 . S
C2572 C2573 1.386 . S
C2572 C2574 1.391 . S
C2573 C2572 1.386 . S
C2573 C2577 1.393 . S
C2574 H2566 0.950 . S
C2574 C2572 1.391 . S
C2574 C2575 1.400 . S
C2575 C2574 1.400 . S
C2575 C2576 1.398 . S
C2575 C2581 1.491 . S
C2576 H2567 0.950 . S
C2576 C2575 1.398 . S
C2576 C2577 1.391 . S
C2577 H2565 0.950 . S
C2577 C2573 1.393 . S
C2577 C2576 1.391 . S
C2578 H2568 0.950 . S
C2578 C2579 1.386 . S
C2578 C2580 1.391 . S
C2579 C2578 1.386 . S
C2579 C2583 1.393 . S
C2580 H2569 0.950 . S
C2580 C2578 1.391 . S
C2580 C2581 1.400 . S
C2581 C2575 1.491 . S
C2581 C2580 1.400 . S
C2581 C2582 1.398 . S
C2582 H2570 0.950 . S
C2582 C2581 1.398 . S
C2582 C2583 1.391 . S
C2583 H2571 0.950 . S
C2583 C2579 1.393 . S
C2583 C2582 1.391 . S
H2584 C2592 0.950 . S
H2585 C2597 0.950 . S
H2586 C2594 0.950 . S
H2587 C2596 0.950 . S
H2588 C2598 0.950 . S
H2589 C2600 0.950 . S
H2590 C2602 0.950 . S
H2591 C2603 0.950 . S
C2592 H2584 0.950 . S
C2592 C2593 1.386 . S
C2592 C2594 1.391 . S
C2593 C2592 1.386 . S
C2593 C2597 1.393 . S
C2594 H2586 0.950 . S
C2594 C2592 1.391 . S
C2594 C2595 1.400 . S
C2595 C2594 1.400 . S
C2595 C2596 1.398 . S
C2595 C2601 1.491 . S
C2596 H2587 0.950 . S
C2596 C2595 1.398 . S
C2596 C2597 1.391 . S
C2597 H2585 0.950 . S
C2597 C2593 1.393 . S
C2597 C2596 1.391 . S
C2598 H2588 0.950 . S
C2598 C2599 1.386 . S
C2598 C2600 1.391 . S
C2599 C2598 1.386 . S
C2599 C2603 1.393 . S
C2600 H2589 0.950 . S
C2600 C2598 1.391 . S
C2600 C2601 1.400 . S
C2601 C2595 1.491 . S
C2601 C2600 1.400 . S
C2601 C2602 1.398 . S
C2602 H2590 0.950 . S
C2602 C2601 1.398 . S
C2602 C2603 1.391 . S
C2603 H2591 0.950 . S
C2603 C2599 1.393 . S
C2603 C2602 1.391 . S
H2604 C2612 0.950 . S
H2605 C2617 0.950 . S
H2606 C2614 0.950 . S
H2607 C2616 0.950 . S
H2608 C2618 0.950 . S
H2609 C2620 0.950 . S
H2610 C2622 0.950 . S
H2611 C2623 0.950 . S
C2612 H2604 0.950 . S
C2612 C2613 1.386 . S
C2612 C2614 1.391 . S
C2613 C2612 1.386 . S
C2613 C2617 1.393 . S
C2614 H2606 0.950 . S
C2614 C2612 1.391 . S
C2614 C2615 1.400 . S
C2615 C2614 1.400 . S
C2615 C2616 1.398 . S
C2615 C2621 1.491 . S
C2616 H2607 0.950 . S
C2616 C2615 1.398 . S
C2616 C2617 1.391 . S
C2617 H2605 0.950 . S
C2617 C2613 1.393 . S
C2617 C2616 1.391 . S
C2618 H2608 0.950 . S
C2618 C2619 1.386 . S
C2618 C2620 1.391 . S
C2619 C2618 1.386 . S
C2619 C2623 1.393 . S
C2620 H2609 0.950 . S
C2620 C2618 1.391 . S
C2620 C2621 1.400 . S
C2621 C2615 1.491 . S
C2621 C2620 1.400 . S
C2621 C2622 1.398 . S
C2622 H2610 0.950 . S
C2622 C2621 1.398 . S
C2622 C2623 1.391 . S
C2623 H2611 0.950 . S
C2623 C2619 1.393 . S
C2623 C2622 1.391 . S
H2624 C2632 0.950 . S
H2625 C2637 0.950 . S
H2626 C2634 0.950 . S
H2627 C2636 0.950 . S
H2628 C2638 0.950 . S
H2629 C2640 0.950 . S
H2630 C2642 0.950 . S
H2631 C2643 0.950 . S
C2632 H2624 0.950 . S
C2632 C2633 1.386 . S
C2632 C2634 1.391 . S
C2633 C2632 1.386 . S
C2633 C2637 1.393 . S
C2634 H2626 0.950 . S
C2634 C2632 1.391 . S
C2634 C2635 1.400 . S
C2635 C2634 1.400 . S
C2635 C2636 1.398 . S
C2635 C2641 1.491 . S
C2636 H2627 0.950 . S
C2636 C2635 1.398 . S
C2636 C2637 1.391 . S
C2637 H2625 0.950 . S
C2637 C2633 1.393 . S
C2637 C2636 1.391 . S
C2638 H2628 0.950 . S
C2638 C2639 1.386 . S
C2638 C2640 1.391 . S
C2639 C2638 1.386 . S
C2639 C2643 1.393 . S
C2640 H2629 0.950 . S
C2640 C2638 1.391 . S
C2640 C2641 1.400 . S
C2641 C2635 1.491 . S
C2641 C2640 1.400 . S
C2641 C2642 1.398 . S
C2642 H2630 0.950 . S
C2642 C2641 1.398 . S
C2642 C2643 1.391 . S
C2643 H2631 0.950 . S
C2643 C2639 1.393 . S
C2643 C2642 1.391 . S
H2644 C2652 0.950 . S
H2645 C2657 0.950 . S
H2646 C2654 0.950 . S
H2647 C2656 0.950 . S
H2648 C2658 0.950 . S
H2649 C2660 0.950 . S
H2650 C2662 0.950 . S
H2651 C2663 0.950 . S
C2652 H2644 0.950 . S
C2652 C2653 1.386 . S
C2652 C2654 1.391 . S
C2653 C2652 1.386 . S
C2653 C2657 1.393 . S
C2654 H2646 0.950 . S
C2654 C2652 1.391 . S
C2654 C2655 1.400 . S
C2655 C2654 1.400 . S
C2655 C2656 1.398 . S
C2655 C2661 1.491 . S
C2656 H2647 0.950 . S
C2656 C2655 1.398 . S
C2656 C2657 1.391 . S
C2657 H2645 0.950 . S
C2657 C2653 1.393 . S
C2657 C2656 1.391 . S
C2658 H2648 0.950 . S
C2658 C2659 1.386 . S
C2658 C2660 1.391 . S
C2659 C2658 1.386 . S
C2659 C2663 1.393 . S
C2660 H2649 0.950 . S
C2660 C2658 1.391 . S
C2660 C2661 1.400 . S
C2661 C2655 1.491 . S
C2661 C2660 1.400 . S
C2661 C2662 1.398 . S
C2662 H2650 0.950 . S
C2662 C2661 1.398 . S
C2662 C2663 1.391 . S
C2663 H2651 0.950 . S
C2663 C2659 1.393 . S
C2663 C2662 1.391 . S
H2664 C2672 0.950 . S
H2665 C2677 0.950 . S
H2666 C2674 0.950 . S
H2667 C2676 0.950 . S
H2668 C2678 0.950 . S
H2669 C2680 0.950 . S
H2670 C2682 0.950 . S
H2671 C2683 0.950 . S
C2672 H2664 0.950 . S
C2672 C2673 1.386 . S
C2672 C2674 1.391 . S
C2673 C2672 1.386 . S
C2673 C2677 1.393 . S
C2674 H2666 0.950 . S
C2674 C2672 1.391 . S
C2674 C2675 1.400 . S
C2675 C2674 1.400 . S
C2675 C2676 1.398 . S
C2675 C2681 1.491 . S
C2676 H2667 0.950 . S
C2676 C2675 1.398 . S
C2676 C2677 1.391 . S
C2677 H2665 0.950 . S
C2677 C2673 1.393 . S
C2677 C2676 1.391 . S
C2678 H2668 0.950 . S
C2678 C2679 1.386 . S
C2678 C2680 1.391 . S
C2679 C2678 1.386 . S
C2679 C2683 1.393 . S
C2680 H2669 0.950 . S
C2680 C2678 1.391 . S
C2680 C2681 1.400 . S
C2681 C2675 1.491 . S
C2681 C2680 1.400 . S
C2681 C2682 1.398 . S
C2682 H2670 0.950 . S
C2682 C2681 1.398 . S
C2682 C2683 1.391 . S
C2683 H2671 0.950 . S
C2683 C2679 1.393 . S
C2683 C2682 1.391 . S
H2684 C2692 0.950 . S
H2685 C2697 0.950 . S
H2686 C2694 0.950 . S
H2687 C2696 0.950 . S
H2688 C2698 0.950 . S
H2689 C2700 0.950 . S
H2690 C2702 0.950 . S
H2691 C2703 0.950 . S
C2692 H2684 0.950 . S
C2692 C2693 1.386 . S
C2692 C2694 1.391 . S
C2693 C2692 1.386 . S
C2693 C2697 1.393 . S
C2694 H2686 0.950 . S
C2694 C2692 1.391 . S
C2694 C2695 1.400 . S
C2695 C2694 1.400 . S
C2695 C2696 1.398 . S
C2695 C2701 1.491 . S
C2696 H2687 0.950 . S
C2696 C2695 1.398 . S
C2696 C2697 1.391 . S
C2697 H2685 0.950 . S
C2697 C2693 1.393 . S
C2697 C2696 1.391 . S
C2698 H2688 0.950 . S
C2698 C2699 1.386 . S
C2698 C2700 1.391 . S
C2699 C2698 1.386 . S
C2699 C2703 1.393 . S
C2700 H2689 0.950 . S
C2700 C2698 1.391 . S
C2700 C2701 1.400 . S
C2701 C2695 1.491 . S
C2701 C2700 1.400 . S
C2701 C2702 1.398 . S
C2702 H2690 0.950 . S
C2702 C2701 1.398 . S
C2702 C2703 1.391 . S
C2703 H2691 0.950 . S
C2703 C2699 1.393 . S
C2703 C2702 1.391 . S
H2704 C2712 0.950 . S
H2705 C2717 0.950 . S
H2706 C2714 0.950 . S
H2707 C2716 0.950 . S
H2708 C2718 0.950 . S
H2709 C2720 0.950 . S
H2710 C2722 0.950 . S
H2711 C2723 0.950 . S
C2712 H2704 0.950 . S
C2712 C2713 1.386 . S
C2712 C2714 1.391 . S
C2713 C2712 1.386 . S
C2713 C2717 1.393 . S
C2714 H2706 0.950 . S
C2714 C2712 1.391 . S
C2714 C2715 1.400 . S
C2715 C2714 1.400 . S
C2715 C2716 1.398 . S
C2715 C2721 1.491 . S
C2716 H2707 0.950 . S
C2716 C2715 1.398 . S
C2716 C2717 1.391 . S
C2717 H2705 0.950 . S
C2717 C2713 1.393 . S
C2717 C2716 1.391 . S
C2718 H2708 0.950 . S
C2718 C2719 1.386 . S
C2718 C2720 1.391 . S
C2719 C2718 1.386 . S
C2719 C2723 1.393 . S
C2720 H2709 0.950 . S
C2720 C2718 1.391 . S
C2720 C2721 1.400 . S
C2721 C2715 1.491 . S
C2721 C2720 1.400 . S
C2721 C2722 1.398 . S
C2722 H2710 0.950 . S
C2722 C2721 1.398 . S
C2722 C2723 1.391 . S
C2723 H2711 0.950 . S
C2723 C2719 1.393 . S
C2723 C2722 1.391 . S
H2724 C2732 0.950 . S
H2725 C2737 0.950 . S
H2726 C2734 0.950 . S
H2727 C2736 0.950 . S
H2728 C2738 0.950 . S
H2729 C2740 0.950 . S
H2730 C2742 0.950 . S
H2731 C2743 0.950 . S
C2732 H2724 0.950 . S
C2732 C2733 1.386 . S
C2732 C2734 1.391 . S
C2733 C2732 1.386 . S
C2733 C2737 1.393 . S
C2734 H2726 0.950 . S
C2734 C2732 1.391 . S
C2734 C2735 1.400 . S
C2735 C2734 1.400 . S
C2735 C2736 1.398 . S
C2735 C2741 1.491 . S
C2736 H2727 0.950 . S
C2736 C2735 1.398 . S
C2736 C2737 1.391 . S
C2737 H2725 0.950 . S
C2737 C2733 1.393 . S
C2737 C2736 1.391 . S
C2738 H2728 0.950 . S
C2738 C2739 1.386 . S
C2738 C2740 1.391 . S
C2739 C2738 1.386 . S
C2739 C2743 1.393 . S
C2740 H2729 0.950 . S
C2740 C2738 1.391 . S
C2740 C2741 1.400 . S
C2741 C2735 1.491 . S
C2741 C2740 1.400 . S
C2741 C2742 1.398 . S
C2742 H2730 0.950 . S
C2742 C2741 1.398 . S
C2742 C2743 1.391 . S
C2743 H2731 0.950 . S
C2743 C2739 1.393 . S
C2743 C2742 1.391 . S
H2744 C2752 0.950 . S
H2745 C2757 0.950 . S
H2746 C2754 0.950 . S
H2747 C2756 0.950 . S
H2748 C2758 0.950 . S
H2749 C2760 0.950 . S
H2750 C2762 0.950 . S
H2751 C2763 0.950 . S
C2752 H2744 0.950 . S
C2752 C2753 1.386 . S
C2752 C2754 1.391 . S
C2753 C2752 1.386 . S
C2753 C2757 1.393 . S
C2754 H2746 0.950 . S
C2754 C2752 1.391 . S
C2754 C2755 1.400 . S
C2755 C2754 1.400 . S
C2755 C2756 1.398 . S
C2755 C2761 1.491 . S
C2756 H2747 0.950 . S
C2756 C2755 1.398 . S
C2756 C2757 1.391 . S
C2757 H2745 0.950 . S
C2757 C2753 1.393 . S
C2757 C2756 1.391 . S
C2758 H2748 0.950 . S
C2758 C2759 1.386 . S
C2758 C2760 1.391 . S
C2759 C2758 1.386 . S
C2759 C2763 1.393 . S
C2760 H2749 0.950 . S
C2760 C2758 1.391 . S
C2760 C2761 1.400 . S
C2761 C2755 1.491 . S
C2761 C2760 1.400 . S
C2761 C2762 1.398 . S
C2762 H2750 0.950 . S
C2762 C2761 1.398 . S
C2762 C2763 1.391 . S
C2763 H2751 0.950 . S
C2763 C2759 1.393 . S
C2763 C2762 1.391 . S
H2764 C2772 0.950 . S
H2765 C2777 0.950 . S
H2766 C2774 0.950 . S
H2767 C2776 0.950 . S
H2768 C2778 0.950 . S
H2769 C2780 0.950 . S
H2770 C2782 0.950 . S
H2771 C2783 0.950 . S
C2772 H2764 0.950 . S
C2772 C2773 1.386 . S
C2772 C2774 1.391 . S
C2773 C2772 1.386 . S
C2773 C2777 1.393 . S
C2774 H2766 0.950 . S
C2774 C2772 1.391 . S
C2774 C2775 1.400 . S
C2775 C2774 1.400 . S
C2775 C2776 1.398 . S
C2775 C2781 1.491 . S
C2776 H2767 0.950 . S
C2776 C2775 1.398 . S
C2776 C2777 1.391 . S
C2777 H2765 0.950 . S
C2777 C2773 1.393 . S
C2777 C2776 1.391 . S
C2778 H2768 0.950 . S
C2778 C2779 1.386 . S
C2778 C2780 1.391 . S
C2779 C2778 1.386 . S
C2779 C2783 1.393 . S
C2780 H2769 0.950 . S
C2780 C2778 1.391 . S
C2780 C2781 1.400 . S
C2781 C2775 1.491 . S
C2781 C2780 1.400 . S
C2781 C2782 1.398 . S
C2782 H2770 0.950 . S
C2782 C2781 1.398 . S
C2782 C2783 1.391 . S
C2783 H2771 0.950 . S
C2783 C2779 1.393 . S
C2783 C2782 1.391 . S
H2784 C2792 0.950 . S
H2785 C2797 0.950 . S
H2786 C2794 0.950 . S
H2787 C2796 0.950 . S
H2788 C2798 0.950 . S
H2789 C2800 0.950 . S
H2790 C2802 0.950 . S
H2791 C2803 0.950 . S
C2792 H2784 0.950 . S
C2792 C2793 1.386 . S
C2792 C2794 1.391 . S
C2793 C2792 1.386 . S
C2793 C2797 1.393 . S
C2794 H2786 0.950 . S
C2794 C2792 1.391 . S
C2794 C2795 1.400 . S
C2795 C2794 1.400 . S
C2795 C2796 1.398 . S
C2795 C2801 1.491 . S
C2796 H2787 0.950 . S
C2796 C2795 1.398 . S
C2796 C2797 1.391 . S
C2797 H2785 0.950 . S
C2797 C2793 1.393 . S
C2797 C2796 1.391 . S
C2798 H2788 0.950 . S
C2798 C2799 1.386 . S
C2798 C2800 1.391 . S
C2799 C2798 1.386 . S
C2799 C2803 1.393 . S
C2800 H2789 0.950 . S
C2800 C2798 1.391 . S
C2800 C2801 1.400 . S
C2801 C2795 1.491 . S
C2801 C2800 1.400 . S
C2801 C2802 1.398 . S
C2802 H2790 0.950 . S
C2802 C2801 1.398 . S
C2802 C2803 1.391 . S
C2803 H2791 0.950 . S
C2803 C2799 1.393 . S
C2803 C2802 1.391 . S
H2804 C2812 0.950 . S
H2805 C2817 0.950 . S
H2806 C2814 0.950 . S
H2807 C2816 0.950 . S
H2808 C2818 0.950 . S
H2809 C2820 0.950 . S
H2810 C2822 0.950 . S
H2811 C2823 0.950 . S
C2812 H2804 0.950 . S
C2812 C2813 1.386 . S
C2812 C2814 1.391 . S
C2813 C2812 1.386 . S
C2813 C2817 1.393 . S
C2814 H2806 0.950 . S
C2814 C2812 1.391 . S
C2814 C2815 1.400 . S
C2815 C2814 1.400 . S
C2815 C2816 1.398 . S
C2815 C2821 1.491 . S
C2816 H2807 0.950 . S
C2816 C2815 1.398 . S
C2816 C2817 1.391 . S
C2817 H2805 0.950 . S
C2817 C2813 1.393 . S
C2817 C2816 1.391 . S
C2818 H2808 0.950 . S
C2818 C2819 1.386 . S
C2818 C2820 1.391 . S
C2819 C2818 1.386 . S
C2819 C2823 1.393 . S
C2820 H2809 0.950 . S
C2820 C2818 1.391 . S
C2820 C2821 1.400 . S
C2821 C2815 1.491 . S
C2821 C2820 1.400 . S
C2821 C2822 1.398 . S
C2822 H2810 0.950 . S
C2822 C2821 1.398 . S
C2822 C2823 1.391 . S
C2823 H2811 0.950 . S
C2823 C2819 1.393 . S
C2823 C2822 1.391 . S
H2824 C2832 0.950 . S
H2825 C2837 0.950 . S
H2826 C2834 0.950 . S
H2827 C2836 0.950 . S
H2828 C2838 0.950 . S
H2829 C2840 0.950 . S
H2830 C2842 0.950 . S
H2831 C2843 0.950 . S
C2832 H2824 0.950 . S
C2832 C2833 1.386 . S
C2832 C2834 1.391 . S
C2833 C2832 1.386 . S
C2833 C2837 1.393 . S
C2834 H2826 0.950 . S
C2834 C2832 1.391 . S
C2834 C2835 1.400 . S
C2835 C2834 1.400 . S
C2835 C2836 1.398 . S
C2835 C2841 1.491 . S
C2836 H2827 0.950 . S
C2836 C2835 1.398 . S
C2836 C2837 1.391 . S
C2837 H2825 0.950 . S
C2837 C2833 1.393 . S
C2837 C2836 1.391 . S
C2838 H2828 0.950 . S
C2838 C2839 1.386 . S
C2838 C2840 1.391 . S
C2839 C2838 1.386 . S
C2839 C2843 1.393 . S
C2840 H2829 0.950 . S
C2840 C2838 1.391 . S
C2840 C2841 1.400 . S
C2841 C2835 1.491 . S
C2841 C2840 1.400 . S
C2841 C2842 1.398 . S
C2842 H2830 0.950 . S
C2842 C2841 1.398 . S
C2842 C2843 1.391 . S
C2843 H2831 0.950 . S
C2843 C2839 1.393 . S
C2843 C2842 1.391 . S
H2844 C2852 0.950 . S
H2845 C2857 0.950 . S
H2846 C2854 0.950 . S
H2847 C2856 0.950 . S
H2848 C2858 0.950 . S
H2849 C2860 0.950 . S
H2850 C2862 0.950 . S
H2851 C2863 0.950 . S
C2852 H2844 0.950 . S
C2852 C2853 1.386 . S
C2852 C2854 1.391 . S
C2853 C2852 1.386 . S
C2853 C2857 1.393 . S
C2854 H2846 0.950 . S
C2854 C2852 1.391 . S
C2854 C2855 1.400 . S
C2855 C2854 1.400 . S
C2855 C2856 1.398 . S
C2855 C2861 1.491 . S
C2856 H2847 0.950 . S
C2856 C2855 1.398 . S
C2856 C2857 1.391 . S
C2857 H2845 0.950 . S
C2857 C2853 1.393 . S
C2857 C2856 1.391 . S
C2858 H2848 0.950 . S
C2858 C2859 1.386 . S
C2858 C2860 1.391 . S
C2859 C2858 1.386 . S
C2859 C2863 1.393 . S
C2860 H2849 0.950 . S
C2860 C2858 1.391 . S
C2860 C2861 1.400 . S
C2861 C2855 1.491 . S
C2861 C2860 1.400 . S
C2861 C2862 1.398 . S
C2862 H2850 0.950 . S
C2862 C2861 1.398 . S
C2862 C2863 1.391 . S
C2863 H2851 0.950 . S
C2863 C2859 1.393 . S
C2863 C2862 1.391 . S
H2864 C2872 0.950 . S
H2865 C2877 0.950 . S
H2866 C2874 0.950 . S
H2867 C2876 0.950 . S
H2868 C2878 0.950 . S
H2869 C2880 0.950 . S
H2870 C2882 0.950 . S
H2871 C2883 0.950 . S
C2872 H2864 0.950 . S
C2872 C2873 1.386 . S
C2872 C2874 1.391 . S
C2873 C2872 1.386 . S
C2873 C2877 1.393 . S
C2874 H2866 0.950 . S
C2874 C2872 1.391 . S
C2874 C2875 1.400 . S
C2875 C2874 1.400 . S
C2875 C2876 1.398 . S
C2875 C2881 1.491 . S
C2876 H2867 0.950 . S
C2876 C2875 1.398 . S
C2876 C2877 1.391 . S
C2877 H2865 0.950 . S
C2877 C2873 1.393 . S
C2877 C2876 1.391 . S
C2878 H2868 0.950 . S
C2878 C2879 1.386 . S
C2878 C2880 1.391 . S
C2879 C2878 1.386 . S
C2879 C2883 1.393 . S
C2880 H2869 0.950 . S
C2880 C2878 1.391 . S
C2880 C2881 1.400 . S
C2881 C2875 1.491 . S
C2881 C2880 1.400 . S
C2881 C2882 1.398 . S
C2882 H2870 0.950 . S
C2882 C2881 1.398 . S
C2882 C2883 1.391 . S
C2883 H2871 0.950 . S
C2883 C2879 1.393 . S
C2883 C2882 1.391 . S
H2884 C2892 0.950 . S
H2885 C2897 0.950 . S
H2886 C2894 0.950 . S
H2887 C2896 0.950 . S
H2888 C2898 0.950 . S
H2889 C2900 0.950 . S
H2890 C2902 0.950 . S
H2891 C2903 0.950 . S
C2892 H2884 0.950 . S
C2892 C2893 1.386 . S
C2892 C2894 1.391 . S
C2893 C2892 1.386 . S
C2893 C2897 1.393 . S
C2894 H2886 0.950 . S
C2894 C2892 1.391 . S
C2894 C2895 1.400 . S
C2895 C2894 1.400 . S
C2895 C2896 1.398 . S
C2895 C2901 1.491 . S
C2896 H2887 0.950 . S
C2896 C2895 1.398 . S
C2896 C2897 1.391 . S
C2897 H2885 0.950 . S
C2897 C2893 1.393 . S
C2897 C2896 1.391 . S
C2898 H2888 0.950 . S
C2898 C2899 1.386 . S
C2898 C2900 1.391 . S
C2899 C2898 1.386 . S
C2899 C2903 1.393 . S
C2900 H2889 0.950 . S
C2900 C2898 1.391 . S
C2900 C2901 1.400 . S
C2901 C2895 1.491 . S
C2901 C2900 1.400 . S
C2901 C2902 1.398 . S
C2902 H2890 0.950 . S
C2902 C2901 1.398 . S
C2902 C2903 1.391 . S
C2903 H2891 0.950 . S
C2903 C2899 1.393 . S
C2903 C2902 1.391 . S
H2904 C2912 0.950 . S
H2905 C2917 0.950 . S
H2906 C2914 0.950 . S
H2907 C2916 0.950 . S
H2908 C2918 0.950 . S
H2909 C2920 0.950 . S
H2910 C2922 0.950 . S
H2911 C2923 0.950 . S
C2912 H2904 0.950 . S
C2912 C2913 1.386 . S
C2912 C2914 1.391 . S
C2913 C2912 1.386 . S
C2913 C2917 1.393 . S
C2914 H2906 0.950 . S
C2914 C2912 1.391 . S
C2914 C2915 1.400 . S
C2915 C2914 1.400 . S
C2915 C2916 1.398 . S
C2915 C2921 1.491 . S
C2916 H2907 0.950 . S
C2916 C2915 1.398 . S
C2916 C2917 1.391 . S
C2917 H2905 0.950 . S
C2917 C2913 1.393 . S
C2917 C2916 1.391 . S
C2918 H2908 0.950 . S
C2918 C2919 1.386 . S
C2918 C2920 1.391 . S
C2919 C2918 1.386 . S
C2919 C2923 1.393 . S
C2920 H2909 0.950 . S
C2920 C2918 1.391 . S
C2920 C2921 1.400 . S
C2921 C2915 1.491 . S
C2921 C2920 1.400 . S
C2921 C2922 1.398 . S
C2922 H2910 0.950 . S
C2922 C2921 1.398 . S
C2922 C2923 1.391 . S
C2923 H2911 0.950 . S
C2923 C2919 1.393 . S
C2923 C2922 1.391 . S
H2924 C2932 0.950 . S
H2925 C2937 0.950 . S
H2926 C2934 0.950 . S
H2927 C2936 0.950 . S
H2928 C2938 0.950 . S
H2929 C2940 0.950 . S
H2930 C2942 0.950 . S
H2931 C2943 0.950 . S
C2932 H2924 0.950 . S
C2932 C2933 1.386 . S
C2932 C2934 1.391 . S
C2933 C2932 1.386 . S
C2933 C2937 1.393 . S
C2934 H2926 0.950 . S
C2934 C2932 1.391 . S
C2934 C2935 1.400 . S
C2935 C2934 1.400 . S
C2935 C2936 1.398 . S
C2935 C2941 1.491 . S
C2936 H2927 0.950 . S
C2936 C2935 1.398 . S
C2936 C2937 1.391 . S
C2937 H2925 0.950 . S
C2937 C2933 1.393 . S
C2937 C2936 1.391 . S
C2938 H2928 0.950 . S
C2938 C2939 1.386 . S
C2938 C2940 1.391 . S
C2939 C2938 1.386 . S
C2939 C2943 1.393 . S
C2940 H2929 0.950 . S
C2940 C2938 1.391 . S
C2940 C2941 1.400 . S
C2941 C2935 1.491 . S
C2941 C2940 1.400 . S
C2941 C2942 1.398 . S
C2942 H2930 0.950 . S
C2942 C2941 1.398 . S
C2942 C2943 1.391 . S
C2943 H2931 0.950 . S
C2943 C2939 1.393 . S
C2943 C2942 1.391 . S
H2944 C2952 0.950 . S
H2945 C2957 0.950 . S
H2946 C2954 0.950 . S
H2947 C2956 0.950 . S
H2948 C2958 0.950 . S
H2949 C2960 0.950 . S
H2950 C2962 0.950 . S
H2951 C2963 0.950 . S
C2952 H2944 0.950 . S
C2952 C2953 1.386 . S
C2952 C2954 1.391 . S
C2953 C2952 1.386 . S
C2953 C2957 1.393 . S
C2954 H2946 0.950 . S
C2954 C2952 1.391 . S
C2954 C2955 1.400 . S
C2955 C2954 1.400 . S
C2955 C2956 1.398 . S
C2955 C2961 1.491 . S
C2956 H2947 0.950 . S
C2956 C2955 1.398 . S
C2956 C2957 1.391 . S
C2957 H2945 0.950 . S
C2957 C2953 1.393 . S
C2957 C2956 1.391 . S
C2958 H2948 0.950 . S
C2958 C2959 1.386 . S
C2958 C2960 1.391 . S
C2959 C2958 1.386 . S
C2959 C2963 1.393 . S
C2960 H2949 0.950 . S
C2960 C2958 1.391 . S
C2960 C2961 1.400 . S
C2961 C2955 1.491 . S
C2961 C2960 1.400 . S
C2961 C2962 1.398 . S
C2962 H2950 0.950 . S
C2962 C2961 1.398 . S
C2962 C2963 1.391 . S
C2963 H2951 0.950 . S
C2963 C2959 1.393 . S
C2963 C2962 1.391 . S
H2964 C2972 0.950 . S
H2965 C2977 0.950 . S
H2966 C2974 0.950 . S
H2967 C2976 0.950 . S
H2968 C2978 0.950 . S
H2969 C2980 0.950 . S
H2970 C2982 0.950 . S
H2971 C2983 0.950 . S
C2972 H2964 0.950 . S
C2972 C2973 1.386 . S
C2972 C2974 1.391 . S
C2973 C2972 1.386 . S
C2973 C2977 1.393 . S
C2974 H2966 0.950 . S
C2974 C2972 1.391 . S
C2974 C2975 1.400 . S
C2975 C2974 1.400 . S
C2975 C2976 1.398 . S
C2975 C2981 1.491 . S
C2976 H2967 0.950 . S
C2976 C2975 1.398 . S
C2976 C2977 1.391 . S
C2977 H2965 0.950 . S
C2977 C2973 1.393 . S
C2977 C2976 1.391 . S
C2978 H2968 0.950 . S
C2978 C2979 1.386 . S
C2978 C2980 1.391 . S
C2979 C2978 1.386 . S
C2979 C2983 1.393 . S
C2980 H2969 0.950 . S
C2980 C2978 1.391 . S
C2980 C2981 1.400 . S
C2981 C2975 1.491 . S
C2981 C2980 1.400 . S
C2981 C2982 1.398 . S
C2982 H2970 0.950 . S
C2982 C2981 1.398 . S
C2982 C2983 1.391 . S
C2983 H2971 0.950 . S
C2983 C2979 1.393 . S
C2983 C2982 1.391 . S
H2984 C2992 0.950 . S
H2985 C2997 0.950 . S
H2986 C2994 0.950 . S
H2987 C2996 0.950 . S
H2988 C2998 0.950 . S
H2989 C3000 0.950 . S
H2990 C3002 0.950 . S
H2991 C3003 0.950 . S
C2992 H2984 0.950 . S
C2992 C2993 1.386 . S
C2992 C2994 1.391 . S
C2993 C2992 1.386 . S
C2993 C2997 1.393 . S
C2994 H2986 0.950 . S
C2994 C2992 1.391 . S
C2994 C2995 1.400 . S
C2995 C2994 1.400 . S
C2995 C2996 1.398 . S
C2995 C3001 1.491 . S
C2996 H2987 0.950 . S
C2996 C2995 1.398 . S
C2996 C2997 1.391 . S
C2997 H2985 0.950 . S
C2997 C2993 1.393 . S
C2997 C2996 1.391 . S
C2998 H2988 0.950 . S
C2998 C2999 1.386 . S
C2998 C3000 1.391 . S
C2999 C2998 1.386 . S
C2999 C3003 1.393 . S
C3000 H2989 0.950 . S
C3000 C2998 1.391 . S
C3000 C3001 1.400 . S
C3001 C2995 1.491 . S
C3001 C3000 1.400 . S
C3001 C3002 1.398 . S
C3002 H2990 0.950 . S
C3002 C3001 1.398 . S
C3002 C3003 1.391 . S
C3003 H2991 0.950 . S
C3003 C2999 1.393 . S
C3003 C3002 1.391 . S
H3004 C3012 0.950 . S
H3005 C3017 0.950 . S
H3006 C3014 0.950 . S
H3007 C3016 0.950 . S
H3008 C3018 0.950 . S
H3009 C3020 0.950 . S
H3010 C3022 0.950 . S
H3011 C3023 0.950 . S
C3012 H3004 0.950 . S
C3012 C3013 1.386 . S
C3012 C3014 1.391 . S
C3013 C3012 1.386 . S
C3013 C3017 1.393 . S
C3014 H3006 0.950 . S
C3014 C3012 1.391 . S
C3014 C3015 1.400 . S
C3015 C3014 1.400 . S
C3015 C3016 1.398 . S
C3015 C3021 1.491 . S
C3016 H3007 0.950 . S
C3016 C3015 1.398 . S
C3016 C3017 1.391 . S
C3017 H3005 0.950 . S
C3017 C3013 1.393 . S
C3017 C3016 1.391 . S
C3018 H3008 0.950 . S
C3018 C3019 1.386 . S
C3018 C3020 1.391 . S
C3019 C3018 1.386 . S
C3019 C3023 1.393 . S
C3020 H3009 0.950 . S
C3020 C3018 1.391 . S
C3020 C3021 1.400 . S
C3021 C3015 1.491 . S
C3021 C3020 1.400 . S
C3021 C3022 1.398 . S
C3022 H3010 0.950 . S
C3022 C3021 1.398 . S
C3022 C3023 1.391 . S
C3023 H3011 0.950 . S
C3023 C3019 1.393 . S
C3023 C3022 1.391 . S
H3024 C3032 0.950 . S
H3025 C3037 0.950 . S
H3026 C3034 0.950 . S
H3027 C3036 0.950 . S
H3028 C3038 0.950 . S
H3029 C3040 0.950 . S
H3030 C3042 0.950 . S
H3031 C3043 0.950 . S
C3032 H3024 0.950 . S
C3032 C3033 1.386 . S
C3032 C3034 1.391 . S
C3033 C3032 1.386 . S
C3033 C3037 1.393 . S
C3034 H3026 0.950 . S
C3034 C3032 1.391 . S
C3034 C3035 1.400 . S
C3035 C3034 1.400 . S
C3035 C3036 1.398 . S
C3035 C3041 1.491 . S
C3036 H3027 0.950 . S
C3036 C3035 1.398 . S
C3036 C3037 1.391 . S
C3037 H3025 0.950 . S
C3037 C3033 1.393 . S
C3037 C3036 1.391 . S
C3038 H3028 0.950 . S
C3038 C3039 1.386 . S
C3038 C3040 1.391 . S
C3039 C3038 1.386 . S
C3039 C3043 1.393 . S
C3040 H3029 0.950 . S
C3040 C3038 1.391 . S
C3040 C3041 1.400 . S
C3041 C3035 1.491 . S
C3041 C3040 1.400 . S
C3041 C3042 1.398 . S
C3042 H3030 0.950 . S
C3042 C3041 1.398 . S
C3042 C3043 1.391 . S
C3043 H3031 0.950 . S
C3043 C3039 1.393 . S
C3043 C3042 1.391 . S
H3044 C3052 0.950 . S
H3045 C3057 0.950 . S
H3046 C3054 0.950 . S
H3047 C3056 0.950 . S
H3048 C3058 0.950 . S
H3049 C3060 0.950 . S
H3050 C3062 0.950 . S
H3051 C3063 0.950 . S
C3052 H3044 0.950 . S
C3052 C3053 1.386 . S
C3052 C3054 1.391 . S
C3053 C3052 1.386 . S
C3053 C3057 1.393 . S
C3054 H3046 0.950 . S
C3054 C3052 1.391 . S
C3054 C3055 1.400 . S
C3055 C3054 1.400 . S
C3055 C3056 1.398 . S
C3055 C3061 1.491 . S
C3056 H3047 0.950 . S
C3056 C3055 1.398 . S
C3056 C3057 1.391 . S
C3057 H3045 0.950 . S
C3057 C3053 1.393 . S
C3057 C3056 1.391 . S
C3058 H3048 0.950 . S
C3058 C3059 1.386 . S
C3058 C3060 1.391 . S
C3059 C3058 1.386 . S
C3059 C3063 1.393 . S
C3060 H3049 0.950 . S
C3060 C3058 1.391 . S
C3060 C3061 1.400 . S
C3061 C3055 1.491 . S
C3061 C3060 1.400 . S
C3061 C3062 1.398 . S
C3062 H3050 0.950 . S
C3062 C3061 1.398 . S
C3062 C3063 1.391 . S
C3063 H3051 0.950 . S
C3063 C3059 1.393 . S
C3063 C3062 1.391 . S
H3064 C3072 0.950 . S
H3065 C3077 0.950 . S
H3066 C3074 0.950 . S
H3067 C3076 0.950 . S
H3068 C3078 0.950 . S
H3069 C3080 0.950 . S
H3070 C3082 0.950 . S
H3071 C3083 0.950 . S
C3072 H3064 0.950 . S
C3072 C3073 1.386 . S
C3072 C3074 1.391 . S
C3073 C3072 1.386 . S
C3073 C3077 1.393 . S
C3074 H3066 0.950 . S
C3074 C3072 1.391 . S
C3074 C3075 1.400 . S
C3075 C3074 1.400 . S
C3075 C3076 1.398 . S
C3075 C3081 1.491 . S
C3076 H3067 0.950 . S
C3076 C3075 1.398 . S
C3076 C3077 1.391 . S
C3077 H3065 0.950 . S
C3077 C3073 1.393 . S
C3077 C3076 1.391 . S
C3078 H3068 0.950 . S
C3078 C3079 1.386 . S
C3078 C3080 1.391 . S
C3079 C3078 1.386 . S
C3079 C3083 1.393 . S
C3080 H3069 0.950 . S
C3080 C3078 1.391 . S
C3080 C3081 1.400 . S
C3081 C3075 1.491 . S
C3081 C3080 1.400 . S
C3081 C3082 1.398 . S
C3082 H3070 0.950 . S
C3082 C3081 1.398 . S
C3082 C3083 1.391 . S
C3083 H3071 0.950 . S
C3083 C3079 1.393 . S
C3083 C3082 1.391 . S
H3084 C3092 0.950 . S
H3085 C3097 0.950 . S
H3086 C3094 0.950 . S
H3087 C3096 0.950 . S
H3088 C3098 0.950 . S
H3089 C3100 0.950 . S
H3090 C3102 0.950 . S
H3091 C3103 0.950 . S
C3092 H3084 0.950 . S
C3092 C3093 1.386 . S
C3092 C3094 1.391 . S
C3093 C3092 1.386 . S
C3093 C3097 1.393 . S
C3094 H3086 0.950 . S
C3094 C3092 1.391 . S
C3094 C3095 1.400 . S
C3095 C3094 1.400 . S
C3095 C3096 1.398 . S
C3095 C3101 1.491 . S
C3096 H3087 0.950 . S
C3096 C3095 1.398 . S
C3096 C3097 1.391 . S
C3097 H3085 0.950 . S
C3097 C3093 1.393 . S
C3097 C3096 1.391 . S
C3098 H3088 0.950 . S
C3098 C3099 1.386 . S
C3098 C3100 1.391 . S
C3099 C3098 1.386 . S
C3099 C3103 1.393 . S
C3100 H3089 0.950 . S
C3100 C3098 1.391 . S
C3100 C3101 1.400 . S
C3101 C3095 1.491 . S
C3101 C3100 1.400 . S
C3101 C3102 1.398 . S
C3102 H3090 0.950 . S
C3102 C3101 1.398 . S
C3102 C3103 1.391 . S
C3103 H3091 0.950 . S
C3103 C3099 1.393 . S
C3103 C3102 1.391 . S
H3104 C3112 0.950 . S
H3105 C3117 0.950 . S
H3106 C3114 0.950 . S
H3107 C3116 0.950 . S
H3108 C3118 0.950 . S
H3109 C3120 0.950 . S
H3110 C3122 0.950 . S
H3111 C3123 0.950 . S
C3112 H3104 0.950 . S
C3112 C3113 1.386 . S
C3112 C3114 1.391 . S
C3113 C3112 1.386 . S
C3113 C3117 1.393 . S
C3114 H3106 0.950 . S
C3114 C3112 1.391 . S
C3114 C3115 1.400 . S
C3115 C3114 1.400 . S
C3115 C3116 1.398 . S
C3115 C3121 1.491 . S
C3116 H3107 0.950 . S
C3116 C3115 1.398 . S
C3116 C3117 1.391 . S
C3117 H3105 0.950 . S
C3117 C3113 1.393 . S
C3117 C3116 1.391 . S
C3118 H3108 0.950 . S
C3118 C3119 1.386 . S
C3118 C3120 1.391 . S
C3119 C3118 1.386 . S
C3119 C3123 1.393 . S
C3120 H3109 0.950 . S
C3120 C3118 1.391 . S
C3120 C3121 1.400 . S
C3121 C3115 1.491 . S
C3121 C3120 1.400 . S
C3121 C3122 1.398 . S
C3122 H3110 0.950 . S
C3122 C3121 1.398 . S
C3122 C3123 1.391 . S
C3123 H3111 0.950 . S
C3123 C3119 1.393 . S
C3123 C3122 1.391 . S
H3124 C3132 0.950 . S
H3125 C3137 0.950 . S
H3126 C3134 0.950 . S
H3127 C3136 0.950 . S
H3128 C3138 0.950 . S
H3129 C3140 0.950 . S
H3130 C3142 0.950 . S
H3131 C3143 0.950 . S
C3132 H3124 0.950 . S
C3132 C3133 1.386 . S
C3132 C3134 1.391 . S
C3133 C3132 1.386 . S
C3133 C3137 1.393 . S
C3134 H3126 0.950 . S
C3134 C3132 1.391 . S
C3134 C3135 1.400 . S
C3135 C3134 1.400 . S
C3135 C3136 1.398 . S
C3135 C3141 1.491 . S
C3136 H3127 0.950 . S
C3136 C3135 1.398 . S
C3136 C3137 1.391 . S
C3137 H3125 0.950 . S
C3137 C3133 1.393 . S
C3137 C3136 1.391 . S
C3138 H3128 0.950 . S
C3138 C3139 1.386 . S
C3138 C3140 1.391 . S
C3139 C3138 1.386 . S
C3139 C3143 1.393 . S
C3140 H3129 0.950 . S
C3140 C3138 1.391 . S
C3140 C3141 1.400 . S
C3141 C3135 1.491 . S
C3141 C3140 1.400 . S
C3141 C3142 1.398 . S
C3142 H3130 0.950 . S
C3142 C3141 1.398 . S
C3142 C3143 1.391 . S
C3143 H3131 0.950 . S
C3143 C3139 1.393 . S
C3143 C3142 1.391 . S
H3144 C3152 0.950 . S
H3145 C3157 0.950 . S
H3146 C3154 0.950 . S
H3147 C3156 0.950 . S
H3148 C3158 0.950 . S
H3149 C3160 0.950 . S
H3150 C3162 0.950 . S
H3151 C3163 0.950 . S
C3152 H3144 0.950 . S
C3152 C3153 1.386 . S
C3152 C3154 1.391 . S
C3153 C3152 1.386 . S
C3153 C3157 1.393 . S
C3154 H3146 0.950 . S
C3154 C3152 1.391 . S
C3154 C3155 1.400 . S
C3155 C3154 1.400 . S
C3155 C3156 1.398 . S
C3155 C3161 1.491 . S
C3156 H3147 0.950 . S
C3156 C3155 1.398 . S
C3156 C3157 1.391 . S
C3157 H3145 0.950 . S
C3157 C3153 1.393 . S
C3157 C3156 1.391 . S
C3158 H3148 0.950 . S
C3158 C3159 1.386 . S
C3158 C3160 1.391 . S
C3159 C3158 1.386 . S
C3159 C3163 1.393 . S
C3160 H3149 0.950 . S
C3160 C3158 1.391 . S
C3160 C3161 1.400 . S
C3161 C3155 1.491 . S
C3161 C3160 1.400 . S
C3161 C3162 1.398 . S
C3162 H3150 0.950 . S
C3162 C3161 1.398 . S
C3162 C3163 1.391 . S
C3163 H3151 0.950 . S
C3163 C3159 1.393 . S
C3163 C3162 1.391 . S
H3164 C3172 0.950 . S
H3165 C3177 0.950 . S
H3166 C3174 0.950 . S
H3167 C3176 0.950 . S
H3168 C3178 0.950 . S
H3169 C3180 0.950 . S
H3170 C3182 0.950 . S
H3171 C3183 0.950 . S
C3172 H3164 0.950 . S
C3172 C3173 1.386 . S
C3172 C3174 1.391 . S
C3173 C3172 1.386 . S
C3173 C3177 1.393 . S
C3174 H3166 0.950 . S
C3174 C3172 1.391 . S
C3174 C3175 1.400 . S
C3175 C3174 1.400 . S
C3175 C3176 1.398 . S
C3175 C3181 1.491 . S
C3176 H3167 0.950 . S
C3176 C3175 1.398 . S
C3176 C3177 1.391 . S
C3177 H3165 0.950 . S
C3177 C3173 1.393 . S
C3177 C3176 1.391 . S
C3178 H3168 0.950 . S
C3178 C3179 1.386 . S
C3178 C3180 1.391 . S
C3179 C3178 1.386 . S
C3179 C3183 1.393 . S
C3180 H3169 0.950 . S
C3180 C3178 1.391 . S
C3180 C3181 1.400 . S
C3181 C3175 1.491 . S
C3181 C3180 1.400 . S
C3181 C3182 1.398 . S
C3182 H3170 0.950 . S
C3182 C3181 1.398 . S
C3182 C3183 1.391 . S
C3183 H3171 0.950 . S
C3183 C3179 1.393 . S
C3183 C3182 1.391 . S
H3184 C3192 0.950 . S
H3185 C3197 0.950 . S
H3186 C3194 0.950 . S
H3187 C3196 0.950 . S
H3188 C3198 0.950 . S
H3189 C3200 0.950 . S
H3190 C3202 0.950 . S
H3191 C3203 0.950 . S
C3192 H3184 0.950 . S
C3192 C3193 1.386 . S
C3192 C3194 1.391 . S
C3193 C3192 1.386 . S
C3193 C3197 1.393 . S
C3194 H3186 0.950 . S
C3194 C3192 1.391 . S
C3194 C3195 1.400 . S
C3195 C3194 1.400 . S
C3195 C3196 1.398 . S
C3195 C3201 1.491 . S
C3196 H3187 0.950 . S
C3196 C3195 1.398 . S
C3196 C3197 1.391 . S
C3197 H3185 0.950 . S
C3197 C3193 1.393 . S
C3197 C3196 1.391 . S
C3198 H3188 0.950 . S
C3198 C3199 1.386 . S
C3198 C3200 1.391 . S
C3199 C3198 1.386 . S
C3199 C3203 1.393 . S
C3200 H3189 0.950 . S
C3200 C3198 1.391 . S
C3200 C3201 1.400 . S
C3201 C3195 1.491 . S
C3201 C3200 1.400 . S
C3201 C3202 1.398 . S
C3202 H3190 0.950 . S
C3202 C3201 1.398 . S
C3202 C3203 1.391 . S
C3203 H3191 0.950 . S
C3203 C3199 1.393 . S
C3203 C3202 1.391 . S
H3204 C3212 0.950 . S
H3205 C3217 0.950 . S
H3206 C3214 0.950 . S
H3207 C3216 0.950 . S
H3208 C3218 0.950 . S
H3209 C3220 0.950 . S
H3210 C3222 0.950 . S
H3211 C3223 0.950 . S
C3212 H3204 0.950 . S
C3212 C3213 1.386 . S
C3212 C3214 1.391 . S
C3213 C3212 1.386 . S
C3213 C3217 1.393 . S
C3214 H3206 0.950 . S
C3214 C3212 1.391 . S
C3214 C3215 1.400 . S
C3215 C3214 1.400 . S
C3215 C3216 1.398 . S
C3215 C3221 1.491 . S
C3216 H3207 0.950 . S
C3216 C3215 1.398 . S
C3216 C3217 1.391 . S
C3217 H3205 0.950 . S
C3217 C3213 1.393 . S
C3217 C3216 1.391 . S
C3218 H3208 0.950 . S
C3218 C3219 1.386 . S
C3218 C3220 1.391 . S
C3219 C3218 1.386 . S
C3219 C3223 1.393 . S
C3220 H3209 0.950 . S
C3220 C3218 1.391 . S
C3220 C3221 1.400 . S
C3221 C3215 1.491 . S
C3221 C3220 1.400 . S
C3221 C3222 1.398 . S
C3222 H3210 0.950 . S
C3222 C3221 1.398 . S
C3222 C3223 1.391 . S
C3223 H3211 0.950 . S
C3223 C3219 1.393 . S
C3223 C3222 1.391 . S
H3224 C3232 0.950 . S
H3225 C3237 0.950 . S
H3226 C3234 0.950 . S
H3227 C3236 0.950 . S
H3228 C3238 0.950 . S
H3229 C3240 0.950 . S
H3230 C3242 0.950 . S
H3231 C3243 0.950 . S
C3232 H3224 0.950 . S
C3232 C3233 1.386 . S
C3232 C3234 1.391 . S
C3233 C3232 1.386 . S
C3233 C3237 1.393 . S
C3234 H3226 0.950 . S
C3234 C3232 1.391 . S
C3234 C3235 1.400 . S
C3235 C3234 1.400 . S
C3235 C3236 1.398 . S
C3235 C3241 1.491 . S
C3236 H3227 0.950 . S
C3236 C3235 1.398 . S
C3236 C3237 1.391 . S
C3237 H3225 0.950 . S
C3237 C3233 1.393 . S
C3237 C3236 1.391 . S
C3238 H3228 0.950 . S
C3238 C3239 1.386 . S
C3238 C3240 1.391 . S
C3239 C3238 1.386 . S
C3239 C3243 1.393 . S
C3240 H3229 0.950 . S
C3240 C3238 1.391 . S
C3240 C3241 1.400 . S
C3241 C3235 1.491 . S
C3241 C3240 1.400 . S
C3241 C3242 1.398 . S
C3242 H3230 0.950 . S
C3242 C3241 1.398 . S
C3242 C3243 1.391 . S
C3243 H3231 0.950 . S
C3243 C3239 1.393 . S
C3243 C3242 1.391 . S
H3244 C3252 0.950 . S
H3245 C3257 0.950 . S
H3246 C3254 0.950 . S
H3247 C3256 0.950 . S
H3248 C3258 0.950 . S
H3249 C3260 0.950 . S
H3250 C3262 0.950 . S
H3251 C3263 0.950 . S
C3252 H3244 0.950 . S
C3252 C3253 1.386 . S
C3252 C3254 1.391 . S
C3253 C3252 1.386 . S
C3253 C3257 1.393 . S
C3254 H3246 0.950 . S
C3254 C3252 1.391 . S
C3254 C3255 1.400 . S
C3255 C3254 1.400 . S
C3255 C3256 1.398 . S
C3255 C3261 1.491 . S
C3256 H3247 0.950 . S
C3256 C3255 1.398 . S
C3256 C3257 1.391 . S
C3257 H3245 0.950 . S
C3257 C3253 1.393 . S
C3257 C3256 1.391 . S
C3258 H3248 0.950 . S
C3258 C3259 1.386 . S
C3258 C3260 1.391 . S
C3259 C3258 1.386 . S
C3259 C3263 1.393 . S
C3260 H3249 0.950 . S
C3260 C3258 1.391 . S
C3260 C3261 1.400 . S
C3261 C3255 1.491 . S
C3261 C3260 1.400 . S
C3261 C3262 1.398 . S
C3262 H3250 0.950 . S
C3262 C3261 1.398 . S
C3262 C3263 1.391 . S
C3263 H3251 0.950 . S
C3263 C3259 1.393 . S
C3263 C3262 1.391 . S
H3264 C3272 0.950 . S
H3265 C3277 0.950 . S
H3266 C3274 0.950 . S
H3267 C3276 0.950 . S
H3268 C3278 0.950 . S
H3269 C3280 0.950 . S
H3270 C3282 0.950 . S
H3271 C3283 0.950 . S
C3272 H3264 0.950 . S
C3272 C3273 1.386 . S
C3272 C3274 1.391 . S
C3273 C3272 1.386 . S
C3273 C3277 1.393 . S
C3274 H3266 0.950 . S
C3274 C3272 1.391 . S
C3274 C3275 1.400 . S
C3275 C3274 1.400 . S
C3275 C3276 1.398 . S
C3275 C3281 1.491 . S
C3276 H3267 0.950 . S
C3276 C3275 1.398 . S
C3276 C3277 1.391 . S
C3277 H3265 0.950 . S
C3277 C3273 1.393 . S
C3277 C3276 1.391 . S
C3278 H3268 0.950 . S
C3278 C3279 1.386 . S
C3278 C3280 1.391 . S
C3279 C3278 1.386 . S
C3279 C3283 1.393 . S
C3280 H3269 0.950 . S
C3280 C3278 1.391 . S
C3280 C3281 1.400 . S
C3281 C3275 1.491 . S
C3281 C3280 1.400 . S
C3281 C3282 1.398 . S
C3282 H3270 0.950 . S
C3282 C3281 1.398 . S
C3282 C3283 1.391 . S
C3283 H3271 0.950 . S
C3283 C3279 1.393 . S
C3283 C3282 1.391 . S
H3284 C3292 0.950 . S
H3285 C3297 0.950 . S
H3286 C3294 0.950 . S
H3287 C3296 0.950 . S
H3288 C3298 0.950 . S
H3289 C3300 0.950 . S
H3290 C3302 0.950 . S
H3291 C3303 0.950 . S
C3292 H3284 0.950 . S
C3292 C3293 1.386 . S
C3292 C3294 1.391 . S
C3293 C3292 1.386 . S
C3293 C3297 1.393 . S
C3294 H3286 0.950 . S
C3294 C3292 1.391 . S
C3294 C3295 1.400 . S
C3295 C3294 1.400 . S
C3295 C3296 1.398 . S
C3295 C3301 1.491 . S
C3296 H3287 0.950 . S
C3296 C3295 1.398 . S
C3296 C3297 1.391 . S
C3297 H3285 0.950 . S
C3297 C3293 1.393 . S
C3297 C3296 1.391 . S
C3298 H3288 0.950 . S
C3298 C3299 1.386 . S
C3298 C3300 1.391 . S
C3299 C3298 1.386 . S
C3299 C3303 1.393 . S
C3300 H3289 0.950 . S
C3300 C3298 1.391 . S
C3300 C3301 1.400 . S
C3301 C3295 1.491 . S
C3301 C3300 1.400 . S
C3301 C3302 1.398 . S
C3302 H3290 0.950 . S
C3302 C3301 1.398 . S
C3302 C3303 1.391 . S
C3303 H3291 0.950 . S
C3303 C3299 1.393 . S
C3303 C3302 1.391 . S
H3304 C3312 0.950 . S
H3305 C3317 0.950 . S
H3306 C3314 0.950 . S
H3307 C3316 0.950 . S
H3308 C3318 0.950 . S
H3309 C3320 0.950 . S
H3310 C3322 0.950 . S
H3311 C3323 0.950 . S
C3312 H3304 0.950 . S
C3312 C3313 1.386 . S
C3312 C3314 1.391 . S
C3313 C3312 1.386 . S
C3313 C3317 1.393 . S
C3314 H3306 0.950 . S
C3314 C3312 1.391 . S
C3314 C3315 1.400 . S
C3315 C3314 1.400 . S
C3315 C3316 1.398 . S
C3315 C3321 1.491 . S
C3316 H3307 0.950 . S
C3316 C3315 1.398 . S
C3316 C3317 1.391 . S
C3317 H3305 0.950 . S
C3317 C3313 1.393 . S
C3317 C3316 1.391 . S
C3318 H3308 0.950 . S
C3318 C3319 1.386 . S
C3318 C3320 1.391 . S
C3319 C3318 1.386 . S
C3319 C3323 1.393 . S
C3320 H3309 0.950 . S
C3320 C3318 1.391 . S
C3320 C3321 1.400 . S
C3321 C3315 1.491 . S
C3321 C3320 1.400 . S
C3321 C3322 1.398 . S
C3322 H3310 0.950 . S
C3322 C3321 1.398 . S
C3322 C3323 1.391 . S
C3323 H3311 0.950 . S
C3323 C3319 1.393 . S
C3323 C3322 1.391 . S
H3324 C3332 0.950 . S
H3325 C3337 0.950 . S
H3326 C3334 0.950 . S
H3327 C3336 0.950 . S
H3328 C3338 0.950 . S
H3329 C3340 0.950 . S
H3330 C3342 0.950 . S
H3331 C3343 0.950 . S
C3332 H3324 0.950 . S
C3332 C3333 1.386 . S
C3332 C3334 1.391 . S
C3333 C3332 1.386 . S
C3333 C3337 1.393 . S
C3334 H3326 0.950 . S
C3334 C3332 1.391 . S
C3334 C3335 1.400 . S
C3335 C3334 1.400 . S
C3335 C3336 1.398 . S
C3335 C3341 1.491 . S
C3336 H3327 0.950 . S
C3336 C3335 1.398 . S
C3336 C3337 1.391 . S
C3337 H3325 0.950 . S
C3337 C3333 1.393 . S
C3337 C3336 1.391 . S
C3338 H3328 0.950 . S
C3338 C3339 1.386 . S
C3338 C3340 1.391 . S
C3339 C3338 1.386 . S
C3339 C3343 1.393 . S
C3340 H3329 0.950 . S
C3340 C3338 1.391 . S
C3340 C3341 1.400 . S
C3341 C3335 1.491 . S
C3341 C3340 1.400 . S
C3341 C3342 1.398 . S
C3342 H3330 0.950 . S
C3342 C3341 1.398 . S
C3342 C3343 1.391 . S
C3343 H3331 0.950 . S
C3343 C3339 1.393 . S
C3343 C3342 1.391 . S
H3344 C3352 0.950 . S
H3345 C3357 0.950 . S
H3346 C3354 0.950 . S
H3347 C3356 0.950 . S
H3348 C3358 0.950 . S
H3349 C3360 0.950 . S
H3350 C3362 0.950 . S
H3351 C3363 0.950 . S
C3352 H3344 0.950 . S
C3352 C3353 1.386 . S
C3352 C3354 1.391 . S
C3353 C3352 1.386 . S
C3353 C3357 1.393 . S
C3354 H3346 0.950 . S
C3354 C3352 1.391 . S
C3354 C3355 1.400 . S
C3355 C3354 1.400 . S
C3355 C3356 1.398 . S
C3355 C3361 1.491 . S
C3356 H3347 0.950 . S
C3356 C3355 1.398 . S
C3356 C3357 1.391 . S
C3357 H3345 0.950 . S
C3357 C3353 1.393 . S
C3357 C3356 1.391 . S
C3358 H3348 0.950 . S
C3358 C3359 1.386 . S
C3358 C3360 1.391 . S
C3359 C3358 1.386 . S
C3359 C3363 1.393 . S
C3360 H3349 0.950 . S
C3360 C3358 1.391 . S
C3360 C3361 1.400 . S
C3361 C3355 1.491 . S
C3361 C3360 1.400 . S
C3361 C3362 1.398 . S
C3362 H3350 0.950 . S
C3362 C3361 1.398 . S
C3362 C3363 1.391 . S
C3363 H3351 0.950 . S
C3363 C3359 1.393 . S
C3363 C3362 1.391 . S
H3364 C3372 0.950 . S
H3365 C3377 0.950 . S
H3366 C3374 0.950 . S
H3367 C3376 0.950 . S
H3368 C3378 0.950 . S
H3369 C3380 0.950 . S
H3370 C3382 0.950 . S
H3371 C3383 0.950 . S
C3372 H3364 0.950 . S
C3372 C3373 1.386 . S
C3372 C3374 1.391 . S
C3373 C3372 1.386 . S
C3373 C3377 1.393 . S
C3374 H3366 0.950 . S
C3374 C3372 1.391 . S
C3374 C3375 1.400 . S
C3375 C3374 1.400 . S
C3375 C3376 1.398 . S
C3375 C3381 1.491 . S
C3376 H3367 0.950 . S
C3376 C3375 1.398 . S
C3376 C3377 1.391 . S
C3377 H3365 0.950 . S
C3377 C3373 1.393 . S
C3377 C3376 1.391 . S
C3378 H3368 0.950 . S
C3378 C3379 1.386 . S
C3378 C3380 1.391 . S
C3379 C3378 1.386 . S
C3379 C3383 1.393 . S
C3380 H3369 0.950 . S
C3380 C3378 1.391 . S
C3380 C3381 1.400 . S
C3381 C3375 1.491 . S
C3381 C3380 1.400 . S
C3381 C3382 1.398 . S
C3382 H3370 0.950 . S
C3382 C3381 1.398 . S
C3382 C3383 1.391 . S
C3383 H3371 0.950 . S
C3383 C3379 1.393 . S
C3383 C3382 1.391 . S
H3384 C3392 0.950 . S
H3385 C3397 0.950 . S
H3386 C3394 0.950 . S
H3387 C3396 0.950 . S
H3388 C3398 0.950 . S
H3389 C3400 0.950 . S
H3390 C3402 0.950 . S
H3391 C3403 0.950 . S
C3392 H3384 0.950 . S
C3392 C3393 1.386 . S
C3392 C3394 1.391 . S
C3393 C3392 1.386 . S
C3393 C3397 1.393 . S
C3394 H3386 0.950 . S
C3394 C3392 1.391 . S
C3394 C3395 1.400 . S
C3395 C3394 1.400 . S
C3395 C3396 1.398 . S
C3395 C3401 1.491 . S
C3396 H3387 0.950 . S
C3396 C3395 1.398 . S
C3396 C3397 1.391 . S
C3397 H3385 0.950 . S
C3397 C3393 1.393 . S
C3397 C3396 1.391 . S
C3398 H3388 0.950 . S
C3398 C3399 1.386 . S
C3398 C3400 1.391 . S
C3399 C3398 1.386 . S
C3399 C3403 1.393 . S
C3400 H3389 0.950 . S
C3400 C3398 1.391 . S
C3400 C3401 1.400 . S
C3401 C3395 1.491 . S
C3401 C3400 1.400 . S
C3401 C3402 1.398 . S
C3402 H3390 0.950 . S
C3402 C3401 1.398 . S
C3402 C3403 1.391 . S
C3403 H3391 0.950 . S
C3403 C3399 1.393 . S
C3403 C3402 1.391 . S
H3404 C3412 0.950 . S
H3405 C3417 0.950 . S
H3406 C3414 0.950 . S
H3407 C3416 0.950 . S
H3408 C3418 0.950 . S
H3409 C3420 0.950 . S
H3410 C3422 0.950 . S
H3411 C3423 0.950 . S
C3412 H3404 0.950 . S
C3412 C3413 1.386 . S
C3412 C3414 1.391 . S
C3413 C3412 1.386 . S
C3413 C3417 1.393 . S
C3414 H3406 0.950 . S
C3414 C3412 1.391 . S
C3414 C3415 1.400 . S
C3415 C3414 1.400 . S
C3415 C3416 1.398 . S
C3415 C3421 1.491 . S
C3416 H3407 0.950 . S
C3416 C3415 1.398 . S
C3416 C3417 1.391 . S
C3417 H3405 0.950 . S
C3417 C3413 1.393 . S
C3417 C3416 1.391 . S
C3418 H3408 0.950 . S
C3418 C3419 1.386 . S
C3418 C3420 1.391 . S
C3419 C3418 1.386 . S
C3419 C3423 1.393 . S
C3420 H3409 0.950 . S
C3420 C3418 1.391 . S
C3420 C3421 1.400 . S
C3421 C3415 1.491 . S
C3421 C3420 1.400 . S
C3421 C3422 1.398 . S
C3422 H3410 0.950 . S
C3422 C3421 1.398 . S
C3422 C3423 1.391 . S
C3423 H3411 0.950 . S
C3423 C3419 1.393 . S
C3423 C3422 1.391 . S
C1519 C397 2.011 . S
C1513 C7 1.932 . S
C1539 C445 1.296 . S
C1533 C19 1.300 . S
C1553 C29 1.827 . S
C1559 C469 1.860 . S
C1579 C532 1.177 . S
C1573 C41 1.198 . S
C1593 C52 1.399 . S
C1599 C526 1.407 . S
C1613 C62 1.609 . S
C1619 C373 1.657 . S
C1633 C73 1.124 . S
C1639 C421 1.185 . S
C1659 C493 1.816 . S
C1653 C82 1.574 . S
C1679 C565 1.872 . S
C1673 C5 1.617 . S
C1693 C16 1.369 . S
C1699 C613 1.596 . S
C1713 C30 1.776 . S
C1719 C676 1.770 1_655 S
C1739 C733 1.256 . S
C1733 C40 1.259 . S
C1753 C49 1.213 . S
C1759 C757 1.396 . S
C1779 C814 1.478 . S
C1773 C63 1.511 . S
C1793 C74 1.185 . S
C1799 C862 1.231 . S
C1819 C916 1.601 . S
C1813 C85 1.601 . S
C1833 C8 1.637 . S
C1839 C709 1.654 . S
C1853 C51 1.582 . S
C1859 C820 1.626 . S
C1879 C868 1.847 . S
C1873 C60 1.642 . S
C1893 C71 1.105 . S
C1899 C910 1.347 . S
C1919 C781 2.075 . S
C1913 C84 1.998 . S
C1939 C637 1.540 . S
C1933 C27 1.346 . S
C1953 C38 1.213 . S
C1959 C670 1.367 . S
C1979 C589 1.675 . S
C1973 C18 1.600 . S
C1999 C964 2.036 . S
C1993 C95 1.950 . S
C2013 C107 1.308 . S
C2019 C1021 1.304 . S
C2033 C117 1.838 . S
C2039 C1045 1.860 . S
C2059 C1108 1.184 . S
C2053 C129 1.201 . S
C2073 C140 1.398 . S
C2079 C1102 1.409 . S
C2093 C150 1.607 . S
C2099 C958 1.655 . S
C2113 C161 1.127 . S
C2119 C997 1.192 . S
C2133 C170 1.609 . S
C2139 C1069 1.818 . S
C2159 C766 1.869 . S
C2153 C93 1.650 . S
C2173 C104 1.387 . S
C2179 C1150 1.599 . S
C2199 C853 1.764 1_655 S
C2193 C118 1.783 . S
C2213 C128 1.260 . S
C2219 C1204 1.232 . S
C2233 C137 1.191 . S
C2239 C574 1.394 . S
C2259 C1246 1.494 . S
C2253 C151 1.512 . S
C2273 C162 1.165 . S
C2279 C685 1.212 . S
C2299 C1300 1.608 . S
C2293 C173 1.592 . S
C2313 C96 1.640 . S
C2319 C1198 1.641 . S
C2339 C1252 1.627 . S
C2333 C139 1.573 . S
C2353 C148 1.656 . S
C2359 C661 1.835 . S
C2379 C1294 1.331 . S
C2373 C159 1.107 . S
C2393 C172 2.022 . S
C2399 C580 2.106 . S
C2413 C115 1.324 . S
C2419 C1156 1.534 . S
C2433 C126 1.231 . S
C2439 C877 1.334 . S
C2453 C106 1.605 . S
C2459 C772 1.677 . S
C2473 C183 1.943 . S
C2479 C1054 2.037 . S
C2499 C1117 1.312 . S
C2493 C195 1.310 . S
C2513 C205 1.828 . S
C2519 C973 1.839 . S
C2533 C217 1.200 . S
C2539 C1012 1.188 . S
C2553 C228 1.401 . S
C2559 C1006 1.404 . S
C2573 C238 1.609 . S
C2579 C1060 1.653 . S
C2599 C1093 1.190 . S
C2593 C249 1.145 . S
C2613 C258 1.604 . S
C2619 C949 1.821 . S
C2639 C1333 1.868 . S
C2633 C181 1.629 . S
C2653 C192 1.383 . S
C2659 C805 1.598 . S
C2679 C1396 1.764 . S
C2673 C206 1.770 . S
C2693 C216 1.261 . S
C2699 C925 1.248 . S
C2713 C225 1.206 . S
C2719 C1438 1.392 . S
C2733 C239 1.513 . S
C2739 C622 1.495 . S
C2759 C1501 1.163 . S
C2753 C250 1.180 . S
C2773 C261 1.592 . S
C2779 C724 1.607 . S
C2799 C901 1.650 . S
C2793 C184 1.636 . S
C2819 C628 1.627 . S
C2813 C227 1.579 . S
C2833 C236 1.652 . S
C2839 C1477 1.843 . S
C2853 C247 1.126 . S
C2859 C718 1.343 . S
C2879 C1444 2.104 . S
C2873 C260 2.020 . S
C2899 C829 1.544 . S
C2893 C203 1.348 . S
C2919 C1390 1.371 . S
C2913 C214 1.226 . S
C2939 C1357 1.670 . S
C2933 C194 1.607 . S
C2953 C271 1.953 . S
C2959 C478 2.036 . S
C2973 C283 1.296 . S
C2979 C541 1.303 . S
C2999 C388 1.853 . S
C2993 C293 1.831 . S
C3019 C436 1.196 . S
C3013 C305 1.203 . S
C3039 C430 1.401 . S
C3033 C316 1.406 . S
C3059 C484 1.656 . S
C3053 C326 1.607 . S
C3079 C517 1.185 . S
C3073 C337 1.113 . S
C3093 C346 1.599 . S
C3099 C382 1.818 . S
C3113 C269 1.616 . S
C3119 C1429 1.871 . S
C3139 C1237 1.596 . S
C3133 C280 1.370 . S
C3159 C1492 1.766 . S
C3153 C294 1.771 . S
C3179 C1309 1.256 . S
C3173 C304 1.254 . S
C3193 C313 1.217 . S
C3199 C1342 1.399 . S
C3219 C1141 1.508 . S
C3213 C327 1.515 . S
C3239 C1405 1.186 . S
C3233 C338 1.196 . S
C3253 C349 1.599 . S
C3259 C1213 1.599 . S
C3279 C1285 1.647 . S
C3273 C272 1.640 . S
C3299 C1165 1.622 . S
C3293 C315 1.578 . S
C3319 C1381 1.843 . S
C3313 C324 1.637 . S
C3333 C335 1.103 . S
C3339 C1189 1.351 . S
C3353 C348 2.008 . S
C3359 C1348 2.102 . S
C3373 C291 1.335 . S
C3379 C1261 1.539 . S
C3393 C302 1.212 . S
C3399 C1486 1.368 . S
C3419 C1453 1.668 . S
C3413 C282 1.620 . S
