# Generated by pormake.
# Topology tsx, (6,3)-cn, num edge types: 1
# Building blocks:
#     Node 0, Type 0, BuildingBlock: MIDCAF_clean_sbu_0, # of connection points: 6
#     Node 1, Type 0, BuildingBlock: MIDCAF_clean_sbu_0, # of connection points: 6
#     Node 2, Type 1, BuildingBlock: QEWDON_clean_linker_0, # of connection points: 3
#     Node 3, Type 1, BuildingBlock: QEWDON_clean_linker_0, # of connection points: 3
#     Node 4, Type 1, BuildingBlock: QEWDON_clean_linker_0, # of connection points: 3
#     Node 5, Type 1, BuildingBlock: QEWDON_clean_linker_0, # of connection points: 3
#     Edge 6, Type (0, 1), BuildingBlock: ZUJKAS_clean_linker_0, # of connection points: 2
#     Edge 7, Type (0, 1), BuildingBlock: ZUJKAS_clean_linker_0, # of connection points: 2
#     Edge 8, Type (0, 1), BuildingBlock: ZUJKAS_clean_linker_0, # of connection points: 2
#     Edge 9, Type (0, 1), BuildingBlock: ZUJKAS_clean_linker_0, # of connection points: 2
#     Edge 10, Type (0, 1), BuildingBlock: ZUJKAS_clean_linker_0, # of connection points: 2
#     Edge 11, Type (0, 1), BuildingBlock: ZUJKAS_clean_linker_0, # of connection points: 2
#     Edge 12, Type (0, 1), BuildingBlock: ZUJKAS_clean_linker_0, # of connection points: 2
#     Edge 13, Type (0, 1), BuildingBlock: ZUJKAS_clean_linker_0, # of connection points: 2
#     Edge 14, Type (0, 1), BuildingBlock: ZUJKAS_clean_linker_0, # of connection points: 2
#     Edge 15, Type (0, 1), BuildingBlock: ZUJKAS_clean_linker_0, # of connection points: 2
#     Edge 16, Type (0, 1), BuildingBlock: ZUJKAS_clean_linker_0, # of connection points: 2
#     Edge 17, Type (0, 1), BuildingBlock: ZUJKAS_clean_linker_0, # of connection points: 2
# Relax obj value: 0.092
# Max RMSD: 0.157
# Mean RMSD: 0.153
data_MOF--net-tsx--node1-MIDCAF_clean_sbu_0--node2-QEWDON_clean_linker_0--edge1-ZUJKAS_clean_linker_0
_symmetry_space_group_name_H-M    P1
_symmetry_Int_Tables_number       1
_symmetry_cell_setting            triclinic
loop_
_symmetry_equiv_pos_as_xyz
'x, y, z'
_cell_length_a     27.25656
_cell_length_b     27.874637
_cell_length_c     45.577721
_cell_angle_alpha  90.187429
_cell_angle_beta   107.43152
_cell_angle_gamma 90.526751
loop_
_atom_site_label
_atom_site_type_symbol
_atom_site_fract_x
_atom_site_fract_y
_atom_site_fract_z
_atom_type_partial_charge
Zn0 Zn 0.97828 0.00625 0.96112 0.0
Zn1 Zn 0.15327 0.99683 0.05098 0.0
Zn2 Zn 0.06755 0.00622 0.00513 0.0
C3 C 0.14362 0.09444 0.033 0.0
C4 C 0.16165 0.93728 0.00331 0.0
O5 O 1.00667 0.96959 0.02094 0.0
O6 O 0.93489 0.97145 0.98204 0.0
C7 C 0.00983 0.10268 0.9769 0.0
O8 O 0.09979 0.07942 0.01542 0.0
O9 O 0.17486 0.06527 0.04982 0.0
O10 O 0.18291 0.94559 0.03154 0.0
O11 O 0.12009 0.95928 0.98874 0.0
O12 O 0.9743 0.07735 0.95934 0.0
O13 O 0.04916 0.08264 0.9957 0.0
O14 O 0.07824 0.97276 0.96306 0.0
O15 O 1.00073 0.97332 0.92899 0.0
C16 C 0.04805 0.96421 0.93571 0.0
O17 O 0.04961 0.9774 0.0464 0.0
O18 O 0.12349 0.97769 0.08368 0.0
C19 C 0.9585 0.95902 0.00916 0.0
C20 C 0.07546 0.97091 0.07484 0.0
Zn21 Zn 0.65208 0.5084 0.54908 0.0
Zn22 Zn 0.47163 0.51116 0.46133 0.0
Zn23 Zn 0.56142 0.51247 0.50487 0.0
C24 C 0.54104 0.46851 0.43569 0.0
C25 C 0.50056 0.60761 0.47555 0.0
O26 O 0.54802 0.48348 0.5471 0.0
O27 O 0.6248 0.48279 0.58177 0.0
C28 C 0.66009 0.45092 0.5005 0.0
O29 O 0.57127 0.47711 0.46301 0.0
O30 O 0.49388 0.47834 0.42914 0.0
O31 O 0.46516 0.58185 0.4583 0.0
O32 O 0.54027 0.58818 0.4944 0.0
O33 O 0.68614 0.46429 0.52716 0.0
O34 O 0.61395 0.46632 0.48851 0.0
O35 O 0.59109 0.58714 0.51384 0.0
O36 O 0.66643 0.57858 0.5492 0.0
C37 C 0.63324 0.60531 0.53162 0.0
O38 O 0.5033 0.47544 0.52248 0.0
O39 O 0.431 0.47577 0.48393 0.0
C40 C 0.57681 0.47583 0.57477 0.0
C41 C 0.45532 0.46411 0.5111 0.0
H42 H 0.02774 0.05776 0.38369 0.0
C43 C 0.05753 0.03192 0.39333 0.0
C44 C 0.06941 0.99776 0.3737 0.0
C45 C 0.08475 0.03333 0.42502 0.0
H46 H 0.1207 0.94073 0.37074 0.0
C47 C 0.11006 0.96593 0.38587 0.0
C48 C 0.13818 0.96704 0.41714 0.0
C49 C 0.12396 0.99951 0.43662 0.0
C50 C 0.07477 0.07116 0.44598 0.0
H51 H 0.14486 0.99921 0.46086 0.0
C52 C 0.02579 0.09225 0.4407 0.0
C53 C 0.01792 0.12822 0.46065 0.0
C54 C 0.1153 0.08727 0.47154 0.0
H55 H 0.15415 0.07453 0.4758 0.0
C56 C 0.10681 0.12083 0.49208 0.0
H57 H 0.99407 0.08147 0.42104 0.0
C58 C 0.05848 0.14071 0.48686 0.0
H59 H 0.05286 0.16658 0.50315 0.0
H60 H 0.13806 0.13204 0.51192 0.0
H61 H 0.05373 0.09812 0.62901 0.0
C62 C 0.02638 0.07198 0.6156 0.0
C63 C 0.01823 0.0287 0.62933 0.0
C64 C 0.99779 0.08254 0.5851 0.0
H65 H 0.9736 0.96317 0.62284 0.0
C66 C 0.98176 0.99559 0.612 0.0
C67 C 0.9527 0.00543 0.58162 0.0
C68 C 0.961 0.04893 0.56829 0.0
C69 C 1.0038 0.12994 0.5715 0.0
H70 H 0.9387 0.05661 0.54481 0.0
C71 C 0.05288 0.15057 0.57551 0.0
C72 C 0.05811 0.19578 0.56285 0.0
C73 C 0.95999 0.15521 0.55473 0.0
H74 H 0.92174 0.14071 0.55158 0.0
C75 C 0.96492 0.20006 0.54242 0.0
H76 H 0.0869 0.13084 0.58768 0.0
C77 C 0.01344 0.22033 0.5465 0.0
H78 H 0.01592 0.2554 0.53685 0.0
H79 H 0.93095 0.21941 0.52979 0.0
H80 H 0.55596 0.56365 0.88776 0.0
C81 C 0.5859 0.53837 0.89835 0.0
C82 C 0.60424 0.50798 0.87937 0.0
C83 C 0.60794 0.53769 0.93061 0.0
H84 H 0.65947 0.45385 0.87807 0.0
C85 C 0.64477 0.47673 0.89273 0.0
C86 C 0.66708 0.47523 0.92466 0.0
C87 C 0.64798 0.50512 0.9434 0.0
C88 C 0.59087 0.57159 0.95111 0.0
H89 H 0.66432 0.50241 0.9681 0.0
C90 C 0.53959 0.58788 0.94358 0.0
C91 C 0.52424 0.61861 0.96374 0.0
C92 C 0.62642 0.58808 0.97874 0.0
H93 H 0.66659 0.57854 0.98488 0.0
C94 C 0.61093 0.61779 0.99888 0.0
H95 H 0.51127 0.57617 0.92253 0.0
C96 C 0.56015 0.63259 0.99157 0.0
H97 H 0.54905 0.65619 0.00728 0.0
H98 H 0.63858 0.62982 0.0201 0.0
H99 H 0.5626 0.59319 0.13571 0.0
C100 C 0.53699 0.56599 0.12206 0.0
C101 C 0.53152 0.52177 0.13545 0.0
C102 C 0.50772 0.57603 0.09167 0.0
H103 H 0.49147 0.45392 0.12906 0.0
C104 C 0.4971 0.4872 0.11817 0.0
C105 C 0.46665 0.49689 0.08802 0.0
C106 C 0.47242 0.54133 0.07486 0.0
C107 C 0.51144 0.62392 0.07825 0.0
H108 H 0.44922 0.549 0.05155 0.0
C109 C 0.55964 0.64512 0.08062 0.0
C110 C 0.56284 0.69056 0.06778 0.0
C111 C 0.46644 0.64895 0.06325 0.0
H112 H 0.42889 0.63377 0.0614 0.0
C113 C 0.4694 0.69423 0.05094 0.0
H114 H 0.59449 0.62562 0.0916 0.0
C115 C 0.51713 0.71491 0.05309 0.0
H116 H 0.51825 0.75013 0.04334 0.0
H117 H 0.43453 0.71337 0.03962 0.0
H118 H 0.20781 0.14346 0.08076 0.0
H119 H 0.2452 0.22307 0.08014 0.0
H120 H 0.15523 0.23993 0.98532 0.0
H121 H 0.11725 0.15957 0.98581 0.0
H122 H 0.26523 0.25481 0.99867 0.0
H123 H 0.18661 0.36023 0.07706 0.0
H124 H 0.20941 0.30244 0.09216 0.0
H125 H 0.15574 0.30625 0.05778 0.0
C126 C 0.19515 0.16443 0.05992 0.0
C127 C 0.15956 0.14534 0.03334 0.0
C128 C 0.21635 0.21006 0.05966 0.0
C129 C 0.20267 0.23758 0.03279 0.0
C130 C 0.16593 0.21935 0.00637 0.0
H131 H 0.36617 0.51528 0.05666 0.0
H132 H 0.29659 0.45669 0.03599 0.0
C133 C 0.1441 0.17365 0.00672 0.0
C134 C 0.23118 0.28288 0.03205 0.0
H135 H 0.26788 0.38762 0.07187 0.0
C136 C 0.26499 0.28445 0.01411 0.0
C137 C 0.23051 0.32167 0.05197 0.0
C138 C 0.19324 0.3229 0.07063 0.0
C139 C 0.30076 0.32219 0.01727 0.0
C140 C 0.30299 0.35894 0.03912 0.0
C141 C 0.26657 0.35917 0.05535 0.0
C142 C 0.34566 0.39472 0.04776 0.0
C143 C 0.33691 0.32163 0.99788 0.0
C144 C 0.39639 0.37934 0.06094 0.0
C145 C 0.43611 0.41264 0.07275 0.0
C146 C 0.42591 0.46205 0.07169 0.0
C147 C 0.37537 0.47749 0.05746 0.0
C148 C 0.33554 0.44408 0.0458 0.0
H149 H 0.3202 0.30108 0.97619 0.0
H150 H 0.34633 0.35859 0.99214 0.0
H151 H 0.37319 0.30395 0.01087 0.0
H152 H 0.40499 0.34143 0.06324 0.0
H153 H 0.47464 0.39967 0.08348 0.0
H154 H 0.19983 0.85257 0.02769 0.0
H155 H 0.24626 0.79364 0.00681 0.0
H156 H 0.22185 0.87836 0.92471 0.0
H157 H 0.17709 0.93864 0.94647 0.0
H158 H 0.22025 0.73782 0.95295 0.0
H159 H 0.37865 0.86814 0.95737 0.0
H160 H 0.32997 0.88006 0.97581 0.0
H161 H 0.31504 0.88486 0.9348 0.0
C162 C 0.20391 0.85841 0.00504 0.0
C163 C 0.18422 0.8999 0.98841 0.0
C164 C 0.23021 0.82459 0.99306 0.0
C165 C 0.23786 0.83166 0.96429 0.0
C166 C 0.21669 0.87228 0.94706 0.0
H167 H 0.47399 0.6686 0.91235 0.0
H168 H 0.39582 0.71633 0.90466 0.0
C169 C 0.19026 0.9063 0.95916 0.0
C170 C 0.27114 0.79779 0.95395 0.0
H171 H 0.39125 0.78829 0.94585 0.0
C172 C 0.25728 0.74894 0.95084 0.0
C173 C 0.31945 0.81233 0.95117 0.0
C174 C 0.33709 0.86409 0.95513 0.0
C175 C 0.29129 0.71407 0.94636 0.0
C176 C 0.34064 0.72836 0.94534 0.0
C177 C 0.35333 0.77741 0.9466 0.0
C178 C 0.38192 0.69324 0.94678 0.0
C179 C 0.27456 0.66211 0.94355 0.0
C180 C 0.39935 0.66367 0.97263 0.0
C181 C 0.44389 0.63672 0.97708 0.0
C182 C 0.4718 0.63871 0.95572 0.0
C183 C 0.45277 0.66604 0.92894 0.0
C184 C 0.40836 0.69346 0.92463 0.0
H185 H 0.23203 0.65852 0.9345 0.0
H186 H 0.29207 0.64197 0.92822 0.0
H187 H 0.28694 0.64542 0.96664 0.0
H188 H 0.3802 0.66353 0.99031 0.0
H189 H 0.45792 0.61598 0.99794 0.0
H190 H 0.85906 0.97026 0.00711 0.0
H191 H 0.80773 0.91938 0.03047 0.0
H192 H 0.94114 0.83416 0.07303 0.0
H193 H 0.99321 0.88569 0.04985 0.0
H194 H 0.8471 0.78416 0.03259 0.0
H195 H 0.80804 0.89883 0.12255 0.0
H196 H 0.80261 0.92904 0.08693 0.0
H197 H 0.86402 0.90699 0.10949 0.0
C198 C 0.87771 0.94124 0.02193 0.0
C199 C 0.93005 0.93188 0.02672 0.0
C200 C 0.84844 0.91242 0.03541 0.0
C201 C 0.87076 0.87331 0.05366 0.0
C202 C 0.92341 0.8645 0.05924 0.0
H203 H 0.65201 0.69388 0.11616 0.0
H204 H 0.73431 0.73204 0.11737 0.0
C205 C 0.95305 0.89395 0.04608 0.0
C206 C 0.83705 0.8391 0.06355 0.0
H207 H 0.74748 0.83466 0.10221 0.0
C208 C 0.82622 0.79458 0.04843 0.0
C209 C 0.81012 0.85272 0.08431 0.0
C210 C 0.822 0.89933 0.10201 0.0
C211 C 0.7864 0.76489 0.05179 0.0
C212 C 0.75668 0.78031 0.07063 0.0
C213 C 0.77009 0.82311 0.08758 0.0
C214 C 0.70816 0.75546 0.07009 0.0
C215 C 0.77487 0.71818 0.03413 0.0
C216 C 0.66634 0.75637 0.04321 0.0
C217 C 0.61947 0.73513 0.04251 0.0
C218 C 0.61341 0.71216 0.06867 0.0
C219 C 0.65561 0.71085 0.09556 0.0
C220 C 0.70251 0.73274 0.09634 0.0
H221 H 0.80865 0.70544 0.02756 0.0
H222 H 0.763 0.68995 0.04783 0.0
H223 H 0.74273 0.72351 0.01274 0.0
H224 H 0.66976 0.77421 0.02282 0.0
H225 H 0.58798 0.73661 0.02137 0.0
H226 H 0.03476 0.16332 0.02677 0.0
H227 H 0.99638 0.24233 0.02884 0.0
H228 H 0.92585 0.23709 0.9306 0.0
H229 H 0.96377 0.1588 0.92846 0.0
H230 H 0.9583 0.33216 0.95561 0.0
H231 H 0.83769 0.23217 0.01505 0.0
H232 H 0.9064 0.23182 0.03201 0.0
H233 H 0.87779 0.20152 0.99606 0.0
C234 C 0.01272 0.18 0.00554 0.0
C235 C 1.00159 0.15485 0.97749 0.0
C236 C 0.99053 0.22489 0.00677 0.0
C237 C 0.95747 0.24502 0.97993 0.0
C238 C 0.95104 0.22212 0.95158 0.0
H239 H 0.67719 0.38119 0.9108 0.0
H240 H 0.75292 0.33066 0.92998 0.0
C241 C 0.97268 0.17735 0.95039 0.0
C242 C 0.92314 0.2854 0.98115 0.0
H243 H 0.8095 0.30785 0.99562 0.0
C244 C 0.92652 0.32759 0.9651 0.0
C245 C 0.88128 0.27883 0.99316 0.0
C246 C 0.87504 0.23365 0.00994 0.0
C247 C 0.88778 0.36232 0.95945 0.0
C248 C 0.84477 0.35452 0.97016 0.0
C249 C 0.84272 0.31362 0.98757 0.0
C250 C 0.79869 0.3851 0.96021 0.0
C251 C 0.89126 0.4056 0.94037 0.0
C252 C 0.79917 0.43214 0.97132 0.0
C253 C 0.75583 0.46109 0.96044 0.0
C254 C 0.71152 0.44345 0.93816 0.0
C255 C 0.71092 0.39591 0.92769 0.0
C256 C 0.75403 0.36698 0.93872 0.0
H257 H 0.92531 0.40448 0.93176 0.0
H258 H 0.85602 0.4081 0.9204 0.0
H259 H 0.89386 0.43862 0.95444 0.0
H260 H 0.83322 0.44659 0.98808 0.0
H261 H 0.7575 0.49769 0.96876 0.0
H262 H 0.69093 0.65963 0.57893 0.0
H263 H 0.72549 0.73994 0.57654 0.0
H264 H 0.64056 0.74795 0.48024 0.0
H265 H 0.60555 0.66683 0.48253 0.0
H266 H 0.74821 0.7648 0.49408 0.0
H267 H 0.66717 0.87634 0.56834 0.0
H268 H 0.69081 0.82026 0.58597 0.0
H269 H 0.63758 0.82058 0.55118 0.0
C270 C 0.67854 0.67891 0.55739 0.0
C271 C 0.64552 0.657 0.53092 0.0
C272 C 0.6981 0.72498 0.55611 0.0
C273 C 0.68527 0.75016 0.5283 0.0
C274 C 0.65057 0.72926 0.502 0.0
H275 H 0.85302 0.0259 0.5494 0.0
H276 H 0.78203 0.96858 0.52868 0.0
C277 C 0.63037 0.68311 0.50338 0.0
C278 C 0.71352 0.79527 0.52649 0.0
H279 H 0.75015 0.90177 0.56418 0.0
C280 C 0.74773 0.79536 0.50879 0.0
C281 C 0.71255 0.83535 0.5454 0.0
C282 C 0.67464 0.83843 0.56356 0.0
C283 C 0.78378 0.83271 0.5114 0.0
C284 C 0.78596 0.87061 0.53249 0.0
C285 C 0.74896 0.87244 0.54828 0.0
C286 C 0.82942 0.9056 0.54109 0.0
C287 C 0.82036 0.83042 0.49232 0.0
C288 C 0.87967 0.88925 0.55464 0.0
C289 C 0.92012 0.92179 0.56645 0.0
C290 C 0.91118 0.97143 0.56509 0.0
C291 C 0.86119 0.98788 0.55047 0.0
C292 C 0.82058 0.9552 0.53878 0.0
H293 H 0.80336 0.80966 0.47075 0.0
H294 H 0.83098 0.86687 0.48638 0.0
H295 H 0.85596 0.81199 0.50562 0.0
H296 H 0.88731 0.85119 0.55725 0.0
H297 H 0.95822 0.90807 0.5775 0.0
H298 H 0.75994 0.44654 0.50211 0.0
H299 H 0.80144 0.38417 0.4805 0.0
H300 H 0.65493 0.31336 0.4413 0.0
H301 H 0.61274 0.37659 0.46267 0.0
H302 H 0.74396 0.25683 0.48339 0.0
H303 H 0.79069 0.34966 0.38763 0.0
H304 H 0.80206 0.38508 0.42212 0.0
H305 H 0.73755 0.36685 0.40138 0.0
C306 C 0.7364 0.41817 0.48843 0.0
C307 C 0.68318 0.41637 0.48399 0.0
C308 C 0.76009 0.3827 0.476 0.0
C309 C 0.73118 0.3444 0.45918 0.0
C310 C 0.67776 0.3429 0.45404 0.0
H311 H 0.91808 0.09339 0.43978 0.0
H312 H 0.83853 0.13917 0.4323 0.0
C313 C 0.65377 0.379 0.46613 0.0
C314 C 0.75854 0.30433 0.4498 0.0
H315 H 0.84404 0.28299 0.41004 0.0
C316 C 0.76484 0.26169 0.46673 0.0
C317 C 0.78542 0.31098 0.42802 0.0
C318 C 0.77836 0.35545 0.4085 0.0
C319 C 0.80105 0.22735 0.46449 0.0
C320 C 0.83093 0.23576 0.44435 0.0
C321 C 0.82135 0.27665 0.42558 0.0
C322 C 0.87752 0.20734 0.44604 0.0
C323 C 0.80963 0.18424 0.48531 0.0
C324 C 0.92554 0.23064 0.45521 0.0
C325 C 0.97054 0.20493 0.45903 0.0
C326 C 0.96886 0.15504 0.45402 0.0
C327 C 0.92065 0.13176 0.44384 0.0
C328 C 0.87525 0.15778 0.43984 0.0
H329 H 0.79463 0.15165 0.47135 0.0
H330 H 0.85125 0.17905 0.49687 0.0
H331 H 0.78969 0.18745 0.5032 0.0
H332 H 0.92835 0.26881 0.4601 0.0
H333 H 1.00689 0.22425 0.46626 0.0
H334 H 0.35635 0.47469 0.51009 0.0
H335 H 0.30622 0.42316 0.53382 0.0
H336 H 0.44075 0.33867 0.57525 0.0
H337 H 0.49161 0.39089 0.55162 0.0
H338 H 0.34927 0.28736 0.53652 0.0
H339 H 0.30502 0.40209 0.62455 0.0
H340 H 0.29785 0.4322 0.58873 0.0
H341 H 0.36036 0.41231 0.61117 0.0
C342 C 0.37552 0.44574 0.52478 0.0
C343 C 0.42779 0.43675 0.52909 0.0
C344 C 0.34695 0.41653 0.53849 0.0
C345 C 0.36989 0.37743 0.55654 0.0
C346 C 0.42253 0.36903 0.56166 0.0
H347 H 0.14496 0.19635 0.61307 0.0
H348 H 0.22898 0.23343 0.61712 0.0
C349 C 0.45148 0.39885 0.54825 0.0
C350 C 0.33671 0.3427 0.56649 0.0
H351 H 0.24425 0.33799 0.60304 0.0
C352 C 0.32733 0.29778 0.55178 0.0
C353 C 0.30835 0.35625 0.58651 0.0
C354 C 0.31867 0.40319 0.60391 0.0
C355 C 0.28729 0.26782 0.55455 0.0
C356 C 0.25597 0.28332 0.57239 0.0
C357 C 0.26812 0.32636 0.58918 0.0
C358 C 0.20652 0.25896 0.57027 0.0
C359 C 0.27694 0.22092 0.53707 0.0
C360 C 0.16623 0.2615 0.54274 0.0
C361 C 0.11841 0.24094 0.54042 0.0
C362 C 0.10976 0.21688 0.56556 0.0
C363 C 0.15047 0.21403 0.59316 0.0
C364 C 0.19838 0.23532 0.59557 0.0
H365 H 0.31149 0.20828 0.53129 0.0
H366 H 0.26441 0.19278 0.55055 0.0
H367 H 0.2456 0.22592 0.51525 0.0
H368 H 0.17161 0.28011 0.52307 0.0
H369 H 0.08825 0.24391 0.51879 0.0
H370 H 0.46547 0.66554 0.42649 0.0
H371 H 0.42202 0.74192 0.42628 0.0
H372 H 0.46619 0.74089 0.52533 0.0
H373 H 0.51139 0.66483 0.52568 0.0
H374 H 0.34737 0.72854 0.47874 0.0
H375 H 0.46109 0.89058 0.46761 0.0
H376 H 0.46905 0.83626 0.44794 0.0
H377 H 0.49043 0.83842 0.48912 0.0
C378 C 0.4681 0.68285 0.44824 0.0
C379 C 0.49151 0.65949 0.47609 0.0
C380 C 0.44327 0.72639 0.44811 0.0
C381 C 0.44087 0.74679 0.47577 0.0
C382 C 0.46815 0.72579 0.50379 0.0
H383 H 0.17059 0.91949 0.47242 0.0
H384 H 0.24762 0.87086 0.49187 0.0
C385 C 0.49406 0.68254 0.50396 0.0
C386 C 0.40114 0.78302 0.47452 0.0
H387 H 0.37107 0.90017 0.45753 0.0
C388 C 0.35259 0.76634 0.47476 0.0
C389 C 0.40829 0.83182 0.46882 0.0
C390 C 0.46003 0.85077 0.46843 0.0
C391 C 0.31003 0.7968 0.46784 0.0
C392 C 0.31671 0.84571 0.46148 0.0
C393 C 0.36598 0.86276 0.4625 0.0
C394 C 0.27231 0.87856 0.45118 0.0
C395 C 0.25783 0.77546 0.46546 0.0
C396 C 0.26157 0.90059 0.42235 0.0
C397 C 0.21822 0.92924 0.41145 0.0
C398 C 0.18432 0.93631 0.42904 0.0
C399 C 0.19578 0.91495 0.45824 0.0
C400 C 0.23958 0.88671 0.46929 0.0
H401 H 0.25752 0.73571 0.46351 0.0
H402 H 0.24726 0.78483 0.48644 0.0
H403 H 0.22792 0.78979 0.44522 0.0
H404 H 0.28639 0.89504 0.40802 0.0
H405 H 0.21151 0.94614 0.38925 0.0
H406 H 0.983 0.0052 0.07735 0.0
H407 H 0.95436 0.00904 0.12356 0.0
H408 H 0.0824 0.92169 0.17219 0.0
H409 H 0.11125 0.91796 0.12641 0.0
H410 H 0.9431 0.93224 0.17453 0.0
H411 H 0.10023 0.06873 0.2075 0.0
H412 H 0.06917 0.05134 0.16803 0.0
H413 H 0.1165 0.01317 0.1927 0.0
C414 C 1.00371 0.98516 0.09751 0.0
C415 C 0.04956 0.96156 0.09846 0.0
C416 C 0.98741 0.98752 0.12388 0.0
C417 C 0.01668 0.96608 0.15128 0.0
C418 C 0.05944 0.93855 0.15124 0.0
H419 H 0.03828 0.91916 0.33644 0.0
H420 H 0.01203 0.91683 0.28051 0.0
C421 C 0.0759 0.9365 0.12511 0.0
C422 C 0.00892 0.97885 0.18108 0.0
H423 H 0.06886 0.03955 0.24729 0.0
C424 C 0.96992 0.95627 0.19038 0.0
C425 C 0.04324 0.01108 0.20135 0.0
C426 C 0.08445 0.03789 0.19192 0.0
C427 C 0.96637 0.96305 0.22032 0.0
C428 C 1.00351 0.99227 0.24148 0.0
C429 C 0.0404 0.01703 0.2313 0.0
C430 C 0.00903 0.99399 0.27497 0.0
C431 C 0.92326 0.93842 0.22897 0.0
C432 C 0.01602 0.03813 0.29082 0.0
C433 C 0.03266 0.03956 0.32302 0.0
C434 C 0.04256 0.99682 0.34 0.0
C435 C 0.03187 0.95276 0.32407 0.0
C436 C 0.01587 0.95136 0.29196 0.0
H437 H 0.88855 0.93461 0.20868 0.0
H438 H 0.93545 0.90179 0.23735 0.0
H439 H 0.91277 0.95834 0.24732 0.0
H440 H 0.01127 0.07156 0.27827 0.0
H441 H 0.0408 0.07411 0.33447 0.0
H442 H 0.01386 0.89541 0.89186 0.0
H443 H 0.02832 0.89414 0.84134 0.0
H444 H 0.13764 0.01076 0.86976 0.0
H445 H 0.12372 0.01149 0.92034 0.0
H446 H 1.00073 0.97301 0.80639 0.0
H447 H 0.20356 0.93156 0.81664 0.0
H448 H 0.17426 0.91639 0.84615 0.0
H449 H 0.19699 0.9765 0.84348 0.0
C450 C 0.04279 0.91911 0.88773 0.0
C451 C 0.06851 0.95284 0.9101 0.0
C452 C 0.05087 0.91857 0.85886 0.0
C453 C 0.08435 0.95214 0.85178 0.0
C454 C 0.11263 0.98374 0.87485 0.0
H455 H 0.03062 0.09167 0.6772 0.0
H456 H 0.05484 0.07265 0.732 0.0
C457 C 0.10469 0.98412 0.90378 0.0
C458 C 0.08223 0.96013 0.81923 0.0
H459 H 0.15521 0.97105 0.7702 0.0
C460 C 0.03448 0.97197 0.79846 0.0
C461 C 0.12625 0.95896 0.80888 0.0
C462 C 0.17809 0.94472 0.82988 0.0
C463 C 0.02964 0.98366 0.76788 0.0
C464 C 0.07388 0.98431 0.75779 0.0
C465 C 0.12153 0.97122 0.7782 0.0
C466 C 0.07019 0.99791 0.72583 0.0
C467 C 0.97709 0.99533 0.74652 0.0
C468 C 0.07322 0.96267 0.70446 0.0
C469 C 0.05964 0.97348 0.67311 0.0
C470 C 0.04287 0.01975 0.66265 0.0
C471 C 0.04368 0.05581 0.68445 0.0
C472 C 0.05722 0.04494 0.71577 0.0
H473 H 0.94582 0.98375 0.75602 0.0
H474 H 0.97425 0.03469 0.74294 0.0
H475 H 0.97085 0.97784 0.72374 0.0
H476 H 0.08323 0.92618 0.71182 0.0
H477 H 0.06004 0.94508 0.6569 0.0
H478 H 0.48355 0.50405 0.57968 0.0
H479 H 0.45777 0.5049 0.62683 0.0
H480 H 0.59536 0.42842 0.67419 0.0
H481 H 0.62069 0.4266 0.62719 0.0
H482 H 0.50656 0.40384 0.69342 0.0
H483 H 0.54471 0.60073 0.6924 0.0
H484 H 0.4968 0.5749 0.6599 0.0
H485 H 0.56319 0.55986 0.66692 0.0
C486 C 0.50718 0.4857 0.5998 0.0
C487 C 0.55429 0.46544 0.59984 0.0
C488 C 0.49265 0.48664 0.62679 0.0
C489 C 0.52518 0.46754 0.65413 0.0
C490 C 0.56977 0.4435 0.65338 0.0
H491 H 0.65739 0.5184 0.83807 0.0
H492 H 0.62462 0.51144 0.7821 0.0
C493 C 0.58429 0.44259 0.62653 0.0
C494 C 0.51785 0.4782 0.68442 0.0
H495 H 0.53891 0.56775 0.73827 0.0
C496 C 0.51208 0.43984 0.70304 0.0
C497 C 0.52565 0.52523 0.69694 0.0
C498 C 0.53323 0.56768 0.67821 0.0
C499 C 0.51689 0.4469 0.73433 0.0
C500 C 0.52771 0.49344 0.74719 0.0
C501 C 0.53029 0.5322 0.72818 0.0
C502 C 0.54528 0.50118 0.78089 0.0
C503 C 0.5142 0.40419 0.75404 0.0
C504 C 0.5112 0.49882 0.79864 0.0
C505 C 0.5299 0.50314 0.83077 0.0
C506 C 0.5829 0.50932 0.84541 0.0
C507 C 0.61645 0.51322 0.82738 0.0
C508 C 0.59779 0.50937 0.79545 0.0
H509 H 0.50693 0.37009 0.74066 0.0
H510 H 0.55082 0.4011 0.77295 0.0
H511 H 0.48292 0.40928 0.76468 0.0
H512 H 0.47048 0.4928 0.78772 0.0
H513 H 0.50334 0.49984 0.84422 0.0
H514 H 0.64016 0.47605 0.43228 0.0
H515 H 0.66686 0.46917 0.38575 0.0
H516 H 0.51205 0.42765 0.33408 0.0
H517 H 0.48666 0.43006 0.3807 0.0
H518 H 0.57452 0.38651 0.30997 0.0
H519 H 0.63371 0.57865 0.32858 0.0
H520 H 0.67089 0.53799 0.35679 0.0
H521 H 0.60421 0.54748 0.35352 0.0
C522 C 0.6125 0.46326 0.41132 0.0
C523 C 0.56118 0.45381 0.41024 0.0
C524 C 0.62753 0.46039 0.38451 0.0
C525 C 0.59101 0.44982 0.35605 0.0
C526 C 0.541 0.43642 0.35557 0.0
H527 H 0.51761 0.57352 0.1825 0.0
H528 H 0.54444 0.55285 0.23698 0.0
C529 C 0.52639 0.43804 0.38235 0.0
C530 C 0.60188 0.45726 0.32621 0.0
H531 H 0.62866 0.54512 0.28098 0.0
C532 C 0.58698 0.42102 0.30369 0.0
C533 C 0.61806 0.50242 0.31796 0.0
C534 C 0.63227 0.54403 0.34033 0.0
C535 C 0.58354 0.42973 0.27279 0.0
C536 C 0.59822 0.47537 0.26438 0.0
C537 C 0.61725 0.51026 0.28739 0.0
C538 C 0.58746 0.49004 0.23165 0.0
C539 C 0.56032 0.39109 0.2493 0.0
C540 C 0.60394 0.46271 0.21044 0.0
C541 C 0.58737 0.47392 0.17908 0.0
C542 C 0.55579 0.51371 0.16866 0.0
C543 C 0.54236 0.54293 0.19008 0.0
C544 C 0.5577 0.53103 0.22121 0.0
H545 H 0.5401 0.36297 0.25865 0.0
H546 H 0.53244 0.40645 0.22856 0.0
H547 H 0.59131 0.37339 0.24223 0.0
H548 H 0.62834 0.43194 0.21794 0.0
H549 H 0.59828 0.45101 0.16287 0.0
loop_
_geom_bond_atom_site_label_1
_geom_bond_atom_site_label_2
_geom_bond_distance
_geom_bond_site_symmetry_2
_ccdc_geom_bond_type
Zn0 O6 1.920 1_545 S
Zn0 O12 1.898 . S
Zn0 O15 1.905 1_545 S
Zn1 O9 1.905 . S
Zn1 O10 1.898 1_545 S
Zn1 O18 1.920 1_545 S
Zn2 O5 2.084 1_444 S
Zn2 O8 2.114 . S
Zn2 O11 2.120 1_545 S
Zn2 O13 2.120 1_455 S
Zn2 O14 2.114 1_554 S
Zn2 O17 2.080 . S
C3 O8 1.166 . S
C3 O9 1.182 . S
C4 O10 1.167 . S
C4 O11 1.299 . S
O5 Zn2 2.084 1_666 S
O5 C19 1.296 . S
O6 Zn0 1.920 1_565 S
O6 C19 1.234 . S
C7 O12 1.167 . S
C7 O13 1.299 1_556 S
O8 Zn2 2.114 . S
O8 C3 1.166 . S
O9 Zn1 1.905 . S
O9 C3 1.182 . S
O10 Zn1 1.898 1_565 S
O10 C4 1.167 . S
O11 Zn2 2.120 1_565 S
O11 C4 1.299 . S
O12 Zn0 1.898 . S
O12 C7 1.167 . S
O13 Zn2 2.120 1_655 S
O13 C7 1.299 1_554 S
O14 Zn2 2.114 1_556 S
O14 C16 1.166 1_545 S
O15 Zn0 1.905 1_565 S
O15 C16 1.182 1_655 S
C16 O14 1.166 1_565 S
C16 O15 1.182 1_455 S
O17 Zn2 2.080 . S
O17 C20 1.305 1_545 S
O18 Zn1 1.920 1_565 S
O18 C20 1.234 . S
C19 O5 1.296 . S
C19 O6 1.234 . S
C20 O17 1.305 1_565 S
C20 O18 1.234 . S
Zn21 O27 1.920 . S
Zn21 O33 1.898 . S
Zn21 O36 1.905 . S
Zn22 O30 1.905 . S
Zn22 O31 1.898 . S
Zn22 O39 1.920 . S
Zn23 O26 2.080 . S
Zn23 O29 2.114 . S
Zn23 O32 2.120 . S
Zn23 O34 2.120 . S
Zn23 O35 2.114 . S
Zn23 O38 2.080 . S
C24 O29 1.166 . S
C24 O30 1.182 . S
C25 O31 1.167 . S
C25 O32 1.299 . S
O26 Zn23 2.080 . S
O26 C40 1.305 . S
O27 Zn21 1.920 . S
O27 C40 1.234 . S
C28 O33 1.167 . S
C28 O34 1.299 . S
O29 Zn23 2.114 . S
O29 C24 1.166 . S
O30 Zn22 1.905 . S
O30 C24 1.182 . S
O31 Zn22 1.898 . S
O31 C25 1.167 . S
O32 Zn23 2.120 . S
O32 C25 1.299 . S
O33 Zn21 1.898 . S
O33 C28 1.167 . S
O34 Zn23 2.120 . S
O34 C28 1.299 . S
O35 Zn23 2.114 . S
O35 C37 1.166 . S
O36 Zn21 1.905 . S
O36 C37 1.182 . S
C37 O35 1.166 . S
C37 O36 1.182 . S
O38 Zn23 2.080 . S
O38 C41 1.305 . S
O39 Zn22 1.920 . S
O39 C41 1.234 . S
C40 O26 1.305 . S
C40 O27 1.234 . S
C41 O38 1.305 . S
C41 O39 1.234 . S
H42 C43 0.949 . S
C43 H42 0.949 . S
C43 C44 1.395 . S
C43 C45 1.391 . S
C44 C43 1.395 . S
C44 C47 1.390 1_545 S
C45 C43 1.391 . S
C45 C49 1.387 . S
C45 C50 1.491 . S
H46 C47 0.950 . S
C47 C44 1.390 1_565 S
C47 H46 0.950 . S
C47 C48 1.378 . S
C48 C47 1.378 . S
C48 C49 1.409 1_565 S
C49 C45 1.387 . S
C49 C48 1.409 1_545 S
C49 H51 0.951 . S
C50 C45 1.491 . S
C50 C52 1.382 . S
C50 C54 1.404 . S
H51 C49 0.951 . S
C52 C50 1.382 . S
C52 C53 1.390 . S
C52 H57 0.949 . S
C53 C52 1.390 . S
C53 C58 1.399 . S
C54 C50 1.404 . S
C54 H55 0.950 . S
C54 C56 1.375 . S
H55 C54 0.950 . S
C56 C54 1.375 . S
C56 C58 1.382 . S
C56 H60 0.950 . S
H57 C52 0.949 . S
C58 C53 1.399 . S
C58 C56 1.382 . S
C58 H59 0.952 . S
H59 C58 0.952 . S
H60 C56 0.950 . S
H61 C62 0.949 . S
C62 H61 0.949 . S
C62 C63 1.395 1_455 S
C62 C64 1.391 1_455 S
C63 C62 1.395 1_655 S
C63 C66 1.390 1_545 S
C64 C62 1.391 1_655 S
C64 C68 1.387 . S
C64 C69 1.491 1_655 S
H65 C66 0.950 . S
C66 C63 1.390 1_565 S
C66 H65 0.950 . S
C66 C67 1.378 . S
C67 C66 1.378 . S
C67 C68 1.409 1_565 S
C68 C64 1.387 . S
C68 C67 1.409 1_545 S
C68 H70 0.951 . S
C69 C64 1.491 1_455 S
C69 C71 1.382 . S
C69 C73 1.404 1_455 S
H70 C68 0.951 . S
C71 C69 1.382 . S
C71 C72 1.390 . S
C71 H76 0.949 . S
C72 C71 1.390 . S
C72 C77 1.399 . S
C73 C69 1.404 1_655 S
C73 H74 0.950 . S
C73 C75 1.375 . S
H74 C73 0.950 . S
C75 C73 1.375 . S
C75 C77 1.382 1_655 S
C75 H79 0.950 . S
H76 C71 0.949 . S
C77 C72 1.399 . S
C77 C75 1.382 1_455 S
C77 H78 0.952 . S
H78 C77 0.952 . S
H79 C75 0.950 . S
H80 C81 0.949 . S
C81 H80 0.949 . S
C81 C82 1.395 . S
C81 C83 1.391 . S
C82 C81 1.395 . S
C82 C85 1.390 . S
C83 C81 1.391 . S
C83 C87 1.387 . S
C83 C88 1.491 . S
H84 C85 0.950 . S
C85 C82 1.390 . S
C85 H84 0.950 . S
C85 C86 1.378 . S
C86 C85 1.378 . S
C86 C87 1.409 . S
C87 C83 1.387 . S
C87 C86 1.409 . S
C87 H89 0.951 . S
C88 C83 1.491 . S
C88 C90 1.382 . S
C88 C92 1.404 . S
H89 C87 0.951 . S
C90 C88 1.382 . S
C90 C91 1.390 . S
C90 H95 0.949 . S
C91 C90 1.390 . S
C91 C96 1.399 . S
C92 C88 1.404 . S
C92 H93 0.950 . S
C92 C94 1.375 1_556 S
H93 C92 0.950 . S
C94 C92 1.375 1_554 S
C94 C96 1.382 1_554 S
C94 H98 0.950 . S
H95 C90 0.949 . S
C96 C91 1.399 . S
C96 C94 1.382 1_556 S
C96 H97 0.952 1_556 S
H97 C96 0.952 1_554 S
H98 C94 0.950 . S
H99 C100 0.949 . S
C100 H99 0.949 . S
C100 C101 1.395 . S
C100 C102 1.391 . S
C101 C100 1.395 . S
C101 C104 1.390 . S
C102 C100 1.391 . S
C102 C106 1.387 . S
C102 C107 1.491 . S
H103 C104 0.950 . S
C104 C101 1.390 . S
C104 H103 0.950 . S
C104 C105 1.378 . S
C105 C104 1.378 . S
C105 C106 1.409 . S
C106 C102 1.387 . S
C106 C105 1.409 . S
C106 H108 0.951 . S
C107 C102 1.491 . S
C107 C109 1.382 . S
C107 C111 1.404 . S
H108 C106 0.951 . S
C109 C107 1.382 . S
C109 C110 1.390 . S
C109 H114 0.949 . S
C110 C109 1.390 . S
C110 C115 1.399 . S
C111 C107 1.404 . S
C111 H112 0.950 . S
C111 C113 1.375 . S
H112 C111 0.950 . S
C113 C111 1.375 . S
C113 C115 1.382 . S
C113 H117 0.950 1_554 S
H114 C109 0.949 . S
C115 C110 1.399 . S
C115 C113 1.382 . S
C115 H116 0.952 . S
H116 C115 0.952 . S
H117 C113 0.950 1_556 S
H118 C126 0.929 . S
H119 C128 0.930 . S
H120 C130 0.930 . S
H121 C133 0.929 . S
H122 C136 0.930 . S
H123 C138 0.960 . S
H124 C138 0.960 . S
H125 C138 0.960 . S
C126 H118 0.929 . S
C126 C127 1.377 . S
C126 C128 1.384 . S
C127 C126 1.377 . S
C127 C133 1.390 . S
C128 H119 0.930 . S
C128 C126 1.384 . S
C128 C129 1.372 . S
C129 C128 1.372 . S
C129 C130 1.400 . S
C129 C134 1.490 . S
C130 H120 0.930 . S
C130 C129 1.400 . S
C130 C133 1.386 . S
H131 C147 0.930 . S
H132 C148 0.931 . S
C133 H121 0.929 . S
C133 C127 1.390 . S
C133 C130 1.386 . S
C134 C129 1.490 . S
C134 C136 1.395 . S
C134 C137 1.403 . S
H135 C141 0.930 . S
C136 H122 0.930 . S
C136 C134 1.395 . S
C136 C139 1.403 . S
C137 C134 1.403 . S
C137 C138 1.524 . S
C137 C141 1.400 . S
C138 H123 0.960 . S
C138 H124 0.960 . S
C138 H125 0.960 . S
C138 C137 1.524 . S
C139 C136 1.403 . S
C139 C140 1.392 . S
C139 C143 1.495 . S
C140 C139 1.392 . S
C140 C141 1.385 . S
C140 C142 1.478 . S
C141 H135 0.930 . S
C141 C137 1.400 . S
C141 C140 1.385 . S
C142 C140 1.478 . S
C142 C144 1.381 . S
C142 C148 1.383 . S
C143 C139 1.495 . S
C143 H149 0.959 1_554 S
C143 H150 0.961 1_554 S
C143 H151 0.960 . S
C144 C142 1.381 . S
C144 C145 1.394 . S
C144 H152 0.930 . S
C145 C144 1.394 . S
C145 C146 1.383 . S
C145 H153 0.929 . S
C146 C145 1.383 . S
C146 C147 1.377 . S
C147 H131 0.930 . S
C147 C146 1.377 . S
C147 C148 1.379 . S
C148 H132 0.931 . S
C148 C142 1.383 . S
C148 C147 1.379 . S
H149 C143 0.959 1_556 S
H150 C143 0.961 1_556 S
H151 C143 0.960 . S
H152 C144 0.930 . S
H153 C145 0.929 . S
H154 C162 0.916 1_554 S
H155 C164 0.930 . S
H156 C166 0.930 . S
H157 C169 0.929 . S
H158 C172 0.930 . S
H159 C174 0.960 . S
H160 C174 0.960 . S
H161 C174 0.960 . S
C162 H154 0.916 1_556 S
C162 C163 1.377 . S
C162 C164 1.384 . S
C163 C162 1.377 . S
C163 C169 1.390 . S
C164 H155 0.930 . S
C164 C162 1.384 . S
C164 C165 1.372 . S
C165 C164 1.372 . S
C165 C166 1.400 . S
C165 C170 1.490 . S
C166 H156 0.930 . S
C166 C165 1.400 . S
C166 C169 1.386 . S
H167 C183 0.930 . S
H168 C184 0.931 . S
C169 H157 0.929 . S
C169 C163 1.390 . S
C169 C166 1.386 . S
C170 C165 1.490 . S
C170 C172 1.395 . S
C170 C173 1.403 1_556 S
H171 C177 0.930 1_554 S
C172 H158 0.930 . S
C172 C170 1.395 . S
C172 C175 1.403 . S
C173 C170 1.403 1_554 S
C173 C174 1.524 . S
C173 C177 1.400 1_554 S
C174 H159 0.960 . S
C174 H160 0.960 . S
C174 H161 0.960 . S
C174 C173 1.524 . S
C175 C172 1.403 . S
C175 C176 1.392 . S
C175 C179 1.495 . S
C176 C175 1.392 . S
C176 C177 1.385 . S
C176 C178 1.478 . S
C177 H171 0.930 1_556 S
C177 C173 1.400 1_556 S
C177 C176 1.385 . S
C178 C176 1.478 . S
C178 C180 1.381 . S
C178 C184 1.383 . S
C179 C175 1.495 . S
C179 H185 0.959 . S
C179 H186 0.961 . S
C179 H187 0.960 . S
C180 C178 1.381 . S
C180 C181 1.394 . S
C180 H188 0.930 . S
C181 C180 1.394 . S
C181 C182 1.383 . S
C181 H189 0.929 . S
C182 C181 1.383 . S
C182 C183 1.377 . S
C183 H167 0.930 . S
C183 C182 1.377 . S
C183 C184 1.379 . S
C184 H168 0.931 . S
C184 C178 1.383 . S
C184 C183 1.379 . S
H185 C179 0.959 . S
H186 C179 0.961 . S
H187 C179 0.960 . S
H188 C180 0.930 . S
H189 C181 0.929 . S
H190 C198 0.929 . S
H191 C200 0.930 . S
H192 C202 0.930 . S
H193 C205 0.929 . S
H194 C208 0.930 1_556 S
H195 C210 0.960 . S
H196 C210 0.960 . S
H197 C210 0.960 . S
C198 H190 0.929 . S
C198 C199 1.377 1_556 S
C198 C200 1.384 . S
C199 C198 1.377 1_554 S
C199 C205 1.390 . S
C200 H191 0.930 . S
C200 C198 1.384 . S
C200 C201 1.372 1_556 S
C201 C200 1.372 1_554 S
C201 C202 1.400 . S
C201 C206 1.490 . S
C202 H192 0.930 . S
C202 C201 1.400 . S
C202 C205 1.386 . S
H203 C219 0.930 . S
H204 C220 0.931 . S
C205 H193 0.929 . S
C205 C199 1.390 . S
C205 C202 1.386 . S
C206 C201 1.490 . S
C206 C208 1.395 . S
C206 C209 1.403 . S
H207 C213 0.930 . S
C208 H194 0.930 1_554 S
C208 C206 1.395 . S
C208 C211 1.403 . S
C209 C206 1.403 . S
C209 C210 1.524 . S
C209 C213 1.400 . S
C210 H195 0.960 . S
C210 H196 0.960 . S
C210 H197 0.960 . S
C210 C209 1.524 . S
C211 C208 1.403 . S
C211 C212 1.392 . S
C211 C215 1.495 1_554 S
C212 C211 1.392 . S
C212 C213 1.385 . S
C212 C214 1.478 . S
C213 H207 0.930 . S
C213 C209 1.400 . S
C213 C212 1.385 . S
C214 C212 1.478 . S
C214 C216 1.381 . S
C214 C220 1.383 . S
C215 C211 1.495 1_556 S
C215 H221 0.959 . S
C215 H222 0.961 1_556 S
C215 H223 0.960 . S
C216 C214 1.381 . S
C216 C217 1.394 . S
C216 H224 0.930 1_554 S
C217 C216 1.394 . S
C217 C218 1.383 . S
C217 H225 0.928 . S
C218 C217 1.383 . S
C218 C219 1.377 . S
C219 H203 0.930 . S
C219 C218 1.377 . S
C219 C220 1.379 . S
C220 H204 0.931 . S
C220 C214 1.383 . S
C220 C219 1.379 . S
H221 C215 0.959 . S
H222 C215 0.961 1_554 S
H223 C215 0.960 . S
H224 C216 0.930 1_556 S
H225 C217 0.928 . S
H226 C234 0.929 1_454 S
H227 C236 0.930 1_554 S
H228 C238 0.930 . S
H229 C241 0.929 . S
H230 C244 0.930 . S
H231 C246 0.961 . S
H232 C246 0.960 1_554 S
H233 C246 0.960 . S
C234 H226 0.929 1_656 S
C234 C235 1.377 . S
C234 C236 1.384 . S
C235 C234 1.377 . S
C235 C241 1.390 . S
C236 H227 0.930 1_556 S
C236 C234 1.384 . S
C236 C237 1.372 . S
C237 C236 1.372 . S
C237 C238 1.400 . S
C237 C242 1.490 . S
C238 H228 0.930 . S
C238 C237 1.400 . S
C238 C241 1.386 . S
H239 C255 0.930 . S
H240 C256 0.931 . S
C241 H229 0.929 . S
C241 C235 1.390 . S
C241 C238 1.386 . S
C242 C237 1.490 . S
C242 C244 1.395 . S
C242 C245 1.403 . S
H243 C249 0.930 . S
C244 H230 0.930 . S
C244 C242 1.395 . S
C244 C247 1.403 . S
C245 C242 1.403 . S
C245 C246 1.524 . S
C245 C249 1.400 . S
C246 H231 0.961 . S
C246 H232 0.960 1_556 S
C246 H233 0.960 . S
C246 C245 1.524 . S
C247 C244 1.403 . S
C247 C248 1.392 . S
C247 C251 1.495 . S
C248 C247 1.392 . S
C248 C249 1.385 . S
C248 C250 1.478 . S
C249 H243 0.930 . S
C249 C245 1.400 . S
C249 C248 1.385 . S
C250 C248 1.478 . S
C250 C252 1.381 . S
C250 C256 1.383 . S
C251 C247 1.495 . S
C251 H257 0.959 . S
C251 H258 0.961 . S
C251 H259 0.960 . S
C252 C250 1.381 . S
C252 C253 1.394 . S
C252 H260 0.930 . S
C253 C252 1.394 . S
C253 C254 1.383 . S
C253 H261 0.929 . S
C254 C253 1.383 . S
C254 C255 1.377 . S
C255 H239 0.930 . S
C255 C254 1.377 . S
C255 C256 1.379 . S
C256 H240 0.931 . S
C256 C250 1.383 . S
C256 C255 1.379 . S
H257 C251 0.959 . S
H258 C251 0.961 . S
H259 C251 0.960 . S
H260 C252 0.930 . S
H261 C253 0.929 . S
H262 C270 0.929 . S
H263 C272 0.930 . S
H264 C274 0.930 . S
H265 C277 0.929 . S
H266 C280 0.930 . S
H267 C282 0.960 . S
H268 C282 0.960 . S
H269 C282 0.960 . S
C270 H262 0.929 . S
C270 C271 1.377 . S
C270 C272 1.384 . S
C271 C270 1.377 . S
C271 C277 1.390 . S
C272 H263 0.930 . S
C272 C270 1.384 . S
C272 C273 1.372 . S
C273 C272 1.372 . S
C273 C274 1.400 . S
C273 C278 1.490 . S
C274 H264 0.930 . S
C274 C273 1.400 . S
C274 C277 1.386 . S
H275 C291 0.930 . S
H276 C292 0.931 . S
C277 H265 0.929 . S
C277 C271 1.390 . S
C277 C274 1.386 . S
C278 C273 1.490 . S
C278 C280 1.395 . S
C278 C281 1.403 . S
H279 C285 0.930 . S
C280 H266 0.930 . S
C280 C278 1.395 . S
C280 C283 1.403 . S
C281 C278 1.403 . S
C281 C282 1.524 . S
C281 C285 1.400 . S
C282 H267 0.960 . S
C282 H268 0.960 . S
C282 H269 0.960 . S
C282 C281 1.524 . S
C283 C280 1.403 . S
C283 C284 1.392 . S
C283 C287 1.495 . S
C284 C283 1.392 . S
C284 C285 1.385 . S
C284 C286 1.478 . S
C285 H279 0.930 . S
C285 C281 1.400 . S
C285 C284 1.385 . S
C286 C284 1.478 . S
C286 C288 1.381 . S
C286 C292 1.383 . S
C287 C283 1.495 . S
C287 H293 0.959 . S
C287 H294 0.961 . S
C287 H295 0.960 . S
C288 C286 1.381 . S
C288 C289 1.394 . S
C288 H296 0.930 . S
C289 C288 1.394 . S
C289 C290 1.383 . S
C289 H297 0.929 . S
C290 C289 1.383 . S
C290 C291 1.377 . S
C291 H275 0.930 . S
C291 C290 1.377 . S
C291 C292 1.379 . S
C292 H276 0.931 . S
C292 C286 1.383 . S
C292 C291 1.379 . S
H293 C287 0.959 . S
H294 C287 0.961 . S
H295 C287 0.960 . S
H296 C288 0.930 . S
H297 C289 0.929 . S
H298 C306 0.929 . S
H299 C308 0.930 . S
H300 C310 0.930 . S
H301 C313 0.929 . S
H302 C316 0.930 . S
H303 C318 0.960 . S
H304 C318 0.960 . S
H305 C318 0.960 . S
C306 H298 0.929 . S
C306 C307 1.377 . S
C306 C308 1.384 . S
C307 C306 1.377 . S
C307 C313 1.390 . S
C308 H299 0.930 . S
C308 C306 1.384 . S
C308 C309 1.372 . S
C309 C308 1.372 . S
C309 C310 1.400 . S
C309 C314 1.490 . S
C310 H300 0.930 . S
C310 C309 1.400 . S
C310 C313 1.386 . S
H311 C327 0.930 . S
H312 C328 0.931 . S
C313 H301 0.929 . S
C313 C307 1.390 . S
C313 C310 1.386 . S
C314 C309 1.490 . S
C314 C316 1.395 . S
C314 C317 1.403 . S
H315 C321 0.930 . S
C316 H302 0.930 . S
C316 C314 1.395 . S
C316 C319 1.403 . S
C317 C314 1.403 . S
C317 C318 1.524 . S
C317 C321 1.400 . S
C318 H303 0.960 . S
C318 H304 0.960 . S
C318 H305 0.960 . S
C318 C317 1.524 . S
C319 C316 1.403 . S
C319 C320 1.392 . S
C319 C323 1.495 . S
C320 C319 1.392 . S
C320 C321 1.385 . S
C320 C322 1.478 . S
C321 H315 0.930 . S
C321 C317 1.400 . S
C321 C320 1.385 . S
C322 C320 1.478 . S
C322 C324 1.381 . S
C322 C328 1.383 . S
C323 C319 1.495 . S
C323 H329 0.959 . S
C323 H330 0.961 . S
C323 H331 0.960 . S
C324 C322 1.381 . S
C324 C325 1.394 . S
C324 H332 0.930 . S
C325 C324 1.394 . S
C325 C326 1.383 . S
C325 H333 0.929 1_655 S
C326 C325 1.383 . S
C326 C327 1.377 . S
C327 H311 0.930 . S
C327 C326 1.377 . S
C327 C328 1.379 . S
C328 H312 0.931 . S
C328 C322 1.383 . S
C328 C327 1.379 . S
H329 C323 0.959 . S
H330 C323 0.961 . S
H331 C323 0.960 . S
H332 C324 0.930 . S
H333 C325 0.929 1_455 S
H334 C342 0.929 . S
H335 C344 0.930 . S
H336 C346 0.930 . S
H337 C349 0.929 . S
H338 C352 0.930 . S
H339 C354 0.960 . S
H340 C354 0.960 . S
H341 C354 0.960 . S
C342 H334 0.929 . S
C342 C343 1.377 . S
C342 C344 1.384 . S
C343 C342 1.377 . S
C343 C349 1.390 . S
C344 H335 0.930 . S
C344 C342 1.384 . S
C344 C345 1.372 . S
C345 C344 1.372 . S
C345 C346 1.400 . S
C345 C350 1.490 . S
C346 H336 0.930 . S
C346 C345 1.400 . S
C346 C349 1.386 . S
H347 C363 0.930 . S
H348 C364 0.931 . S
C349 H337 0.929 . S
C349 C343 1.390 . S
C349 C346 1.386 . S
C350 C345 1.490 . S
C350 C352 1.395 . S
C350 C353 1.403 . S
H351 C357 0.930 . S
C352 H338 0.930 . S
C352 C350 1.395 . S
C352 C355 1.403 . S
C353 C350 1.403 . S
C353 C354 1.524 . S
C353 C357 1.400 . S
C354 H339 0.960 . S
C354 H340 0.960 . S
C354 H341 0.960 . S
C354 C353 1.524 . S
C355 C352 1.403 . S
C355 C356 1.392 . S
C355 C359 1.495 . S
C356 C355 1.392 . S
C356 C357 1.385 . S
C356 C358 1.478 . S
C357 H351 0.930 . S
C357 C353 1.400 . S
C357 C356 1.385 . S
C358 C356 1.478 . S
C358 C360 1.381 . S
C358 C364 1.383 . S
C359 C355 1.495 . S
C359 H365 0.959 . S
C359 H366 0.961 . S
C359 H367 0.960 . S
C360 C358 1.381 . S
C360 C361 1.394 . S
C360 H368 0.930 . S
C361 C360 1.394 . S
C361 C362 1.383 . S
C361 H369 0.929 . S
C362 C361 1.383 . S
C362 C363 1.377 . S
C363 H347 0.930 . S
C363 C362 1.377 . S
C363 C364 1.379 . S
C364 H348 0.931 . S
C364 C358 1.383 . S
C364 C363 1.379 . S
H365 C359 0.959 . S
H366 C359 0.961 . S
H367 C359 0.960 . S
H368 C360 0.930 . S
H369 C361 0.929 . S
H370 C378 0.929 . S
H371 C380 0.930 . S
H372 C382 0.930 . S
H373 C385 0.929 . S
H374 C388 0.930 . S
H375 C390 0.960 . S
H376 C390 0.960 . S
H377 C390 0.960 . S
C378 H370 0.929 . S
C378 C379 1.377 . S
C378 C380 1.384 . S
C379 C378 1.377 . S
C379 C385 1.390 . S
C380 H371 0.930 . S
C380 C378 1.384 . S
C380 C381 1.372 . S
C381 C380 1.372 . S
C381 C382 1.400 . S
C381 C386 1.490 . S
C382 H372 0.930 . S
C382 C381 1.400 . S
C382 C385 1.386 . S
H383 C399 0.930 . S
H384 C400 0.931 . S
C385 H373 0.929 . S
C385 C379 1.390 . S
C385 C382 1.386 . S
C386 C381 1.490 . S
C386 C388 1.395 . S
C386 C389 1.403 . S
H387 C393 0.930 . S
C388 H374 0.930 . S
C388 C386 1.395 . S
C388 C391 1.403 . S
C389 C386 1.403 . S
C389 C390 1.524 . S
C389 C393 1.400 . S
C390 H375 0.960 . S
C390 H376 0.960 . S
C390 H377 0.960 . S
C390 C389 1.524 . S
C391 C388 1.403 . S
C391 C392 1.392 . S
C391 C395 1.495 . S
C392 C391 1.392 . S
C392 C393 1.385 . S
C392 C394 1.478 . S
C393 H387 0.930 . S
C393 C389 1.400 . S
C393 C392 1.385 . S
C394 C392 1.478 . S
C394 C396 1.381 . S
C394 C400 1.383 . S
C395 C391 1.495 . S
C395 H401 0.959 . S
C395 H402 0.961 . S
C395 H403 0.960 . S
C396 C394 1.381 . S
C396 C397 1.394 . S
C396 H404 0.930 . S
C397 C396 1.394 . S
C397 C398 1.383 . S
C397 H405 0.929 . S
C398 C397 1.383 . S
C398 C399 1.377 . S
C399 H383 0.930 . S
C399 C398 1.377 . S
C399 C400 1.379 . S
C400 H384 0.931 . S
C400 C394 1.383 . S
C400 C399 1.379 . S
H401 C395 0.959 . S
H402 C395 0.961 . S
H403 C395 0.960 . S
H404 C396 0.930 . S
H405 C397 0.929 . S
H406 C414 0.929 . S
H407 C416 0.930 . S
H408 C418 0.930 . S
H409 C421 0.929 . S
H410 C424 0.930 . S
H411 C426 0.960 . S
H412 C426 0.960 . S
H413 C426 0.960 . S
C414 H406 0.929 . S
C414 C415 1.377 1_545 S
C414 C416 1.384 . S
C415 C414 1.377 1_565 S
C415 C421 1.390 . S
C416 H407 0.930 . S
C416 C414 1.384 . S
C416 C417 1.372 . S
C417 C416 1.372 . S
C417 C418 1.399 1_545 S
C417 C422 1.490 . S
C418 H408 0.930 . S
C418 C417 1.399 1_565 S
C418 C421 1.386 . S
H419 C435 0.930 . S
H420 C436 0.931 . S
C421 H409 0.929 . S
C421 C415 1.390 . S
C421 C418 1.386 . S
C422 C417 1.490 . S
C422 C424 1.395 . S
C422 C425 1.403 1_545 S
H423 C429 0.930 . S
C424 H410 0.930 . S
C424 C422 1.395 . S
C424 C427 1.403 . S
C425 C422 1.403 1_565 S
C425 C426 1.524 . S
C425 C429 1.400 . S
C426 H411 0.960 . S
C426 H412 0.960 . S
C426 H413 0.960 . S
C426 C425 1.524 . S
C427 C424 1.403 . S
C427 C428 1.392 . S
C427 C431 1.495 . S
C428 C427 1.392 . S
C428 C429 1.385 1_545 S
C428 C430 1.478 . S
C429 H423 0.930 . S
C429 C425 1.400 . S
C429 C428 1.385 1_565 S
C430 C428 1.478 . S
C430 C432 1.381 . S
C430 C436 1.383 1_545 S
C431 C427 1.495 . S
C431 H437 0.959 1_455 S
C431 H438 0.961 1_455 S
C431 H439 0.960 . S
C432 C430 1.381 . S
C432 C433 1.394 . S
C432 H440 0.930 . S
C433 C432 1.394 . S
C433 C434 1.383 . S
C433 H441 0.929 . S
C434 C433 1.383 . S
C434 C435 1.377 1_545 S
C435 H419 0.930 . S
C435 C434 1.377 1_565 S
C435 C436 1.379 . S
C436 H420 0.931 . S
C436 C430 1.383 1_565 S
C436 C435 1.379 . S
H437 C431 0.959 1_655 S
H438 C431 0.961 1_655 S
H439 C431 0.960 . S
H440 C432 0.930 . S
H441 C433 0.929 . S
H442 C450 0.929 . S
H443 C452 0.930 . S
H444 C454 0.930 . S
H445 C457 0.929 . S
H446 C460 0.930 . S
H447 C462 0.960 . S
H448 C462 0.960 . S
H449 C462 0.960 . S
C450 H442 0.929 . S
C450 C451 1.377 1_655 S
C450 C452 1.384 . S
C451 C450 1.377 1_455 S
C451 C457 1.390 1_565 S
C452 H443 0.930 . S
C452 C450 1.384 . S
C452 C453 1.372 1_655 S
C453 C452 1.372 1_455 S
C453 C454 1.400 1_565 S
C453 C458 1.488 1_565 S
C454 H444 0.930 . S
C454 C453 1.400 1_545 S
C454 C457 1.386 . S
H455 C471 0.930 . S
H456 C472 0.931 . S
C457 H445 0.929 . S
C457 C451 1.390 1_545 S
C457 C454 1.386 . S
C458 C453 1.488 1_545 S
C458 C460 1.399 1_455 S
C458 C461 1.400 1_545 S
H459 C465 0.930 . S
C460 H446 0.930 . S
C460 C458 1.399 1_655 S
C460 C463 1.403 . S
C461 C458 1.400 1_565 S
C461 C462 1.524 . S
C461 C465 1.400 . S
C462 H447 0.960 . S
C462 H448 0.960 . S
C462 H449 0.960 . S
C462 C461 1.524 . S
C463 C460 1.403 . S
C463 C464 1.392 . S
C463 C467 1.495 . S
C464 C463 1.392 . S
C464 C465 1.385 1_645 S
C464 C466 1.478 . S
C465 H459 0.930 . S
C465 C461 1.400 . S
C465 C464 1.385 1_465 S
C466 C464 1.478 . S
C466 C468 1.381 1_545 S
C466 C472 1.383 1_655 S
C467 C463 1.495 . S
C467 H473 0.959 . S
C467 H474 0.961 . S
C467 H475 0.960 . S
C468 C466 1.381 1_565 S
C468 C469 1.394 . S
C468 H476 0.930 . S
C469 C468 1.394 . S
C469 C470 1.383 1_565 S
C469 H477 0.929 . S
C470 C469 1.383 1_545 S
C470 C471 1.377 1_655 S
C471 H455 0.930 . S
C471 C470 1.377 1_455 S
C471 C472 1.379 . S
C472 H456 0.931 . S
C472 C466 1.383 1_455 S
C472 C471 1.379 . S
H473 C467 0.959 . S
H474 C467 0.961 . S
H475 C467 0.960 . S
H476 C468 0.930 . S
H477 C469 0.929 . S
H478 C486 0.929 . S
H479 C488 0.930 . S
H480 C490 0.930 . S
H481 C493 0.929 . S
H482 C496 0.930 . S
H483 C498 0.960 . S
H484 C498 0.960 . S
H485 C498 0.960 . S
C486 H478 0.929 . S
C486 C487 1.377 . S
C486 C488 1.384 . S
C487 C486 1.377 . S
C487 C493 1.390 . S
C488 H479 0.930 . S
C488 C486 1.384 . S
C488 C489 1.372 . S
C489 C488 1.372 . S
C489 C490 1.400 . S
C489 C494 1.490 . S
C490 H480 0.930 . S
C490 C489 1.400 . S
C490 C493 1.386 . S
H491 C507 0.930 . S
H492 C508 0.931 . S
C493 H481 0.929 . S
C493 C487 1.390 . S
C493 C490 1.386 . S
C494 C489 1.490 . S
C494 C496 1.395 . S
C494 C497 1.403 . S
H495 C501 0.930 . S
C496 H482 0.930 . S
C496 C494 1.395 . S
C496 C499 1.403 . S
C497 C494 1.403 . S
C497 C498 1.524 . S
C497 C501 1.400 . S
C498 H483 0.960 . S
C498 H484 0.960 . S
C498 H485 0.960 . S
C498 C497 1.524 . S
C499 C496 1.403 . S
C499 C500 1.392 . S
C499 C503 1.495 . S
C500 C499 1.392 . S
C500 C501 1.385 . S
C500 C502 1.478 . S
C501 H495 0.930 . S
C501 C497 1.400 . S
C501 C500 1.385 . S
C502 C500 1.478 . S
C502 C504 1.381 . S
C502 C508 1.383 . S
C503 C499 1.495 . S
C503 H509 0.959 . S
C503 H510 0.961 . S
C503 H511 0.960 . S
C504 C502 1.381 . S
C504 C505 1.394 . S
C504 H512 0.930 . S
C505 C504 1.394 . S
C505 C506 1.383 . S
C505 H513 0.929 . S
C506 C505 1.383 . S
C506 C507 1.377 . S
C507 H491 0.930 . S
C507 C506 1.377 . S
C507 C508 1.379 . S
C508 H492 0.931 . S
C508 C502 1.383 . S
C508 C507 1.379 . S
H509 C503 0.959 . S
H510 C503 0.961 . S
H511 C503 0.960 . S
H512 C504 0.930 . S
H513 C505 0.929 . S
H514 C522 0.929 . S
H515 C524 0.930 . S
H516 C526 0.930 . S
H517 C529 0.929 . S
H518 C532 0.930 . S
H519 C534 0.960 . S
H520 C534 0.960 . S
H521 C534 0.960 . S
C522 H514 0.929 . S
C522 C523 1.377 . S
C522 C524 1.384 . S
C523 C522 1.377 . S
C523 C529 1.390 . S
C524 H515 0.930 . S
C524 C522 1.384 . S
C524 C525 1.372 . S
C525 C524 1.372 . S
C525 C526 1.400 . S
C525 C530 1.490 . S
C526 H516 0.930 . S
C526 C525 1.400 . S
C526 C529 1.386 . S
H527 C543 0.930 . S
H528 C544 0.931 . S
C529 H517 0.929 . S
C529 C523 1.390 . S
C529 C526 1.386 . S
C530 C525 1.490 . S
C530 C532 1.395 . S
C530 C533 1.403 . S
H531 C537 0.930 . S
C532 H518 0.930 . S
C532 C530 1.395 . S
C532 C535 1.403 . S
C533 C530 1.403 . S
C533 C534 1.524 . S
C533 C537 1.400 . S
C534 H519 0.960 . S
C534 H520 0.960 . S
C534 H521 0.960 . S
C534 C533 1.524 . S
C535 C532 1.403 . S
C535 C536 1.392 . S
C535 C539 1.495 . S
C536 C535 1.392 . S
C536 C537 1.385 . S
C536 C538 1.478 . S
C537 H531 0.930 . S
C537 C533 1.400 . S
C537 C536 1.385 . S
C538 C536 1.478 . S
C538 C540 1.381 . S
C538 C544 1.383 . S
C539 C535 1.495 . S
C539 H545 0.959 . S
C539 H546 0.961 . S
C539 H547 0.960 . S
C540 C538 1.381 . S
C540 C541 1.394 . S
C540 H548 0.930 . S
C541 C540 1.394 . S
C541 C542 1.383 . S
C541 H549 0.929 . S
C542 C541 1.383 . S
C542 C543 1.377 . S
C543 H527 0.930 . S
C543 C542 1.377 . S
C543 C544 1.379 . S
C544 H528 0.931 . S
C544 C538 1.383 . S
C544 C543 1.379 . S
H545 C539 0.959 . S
H546 C539 0.961 . S
H547 C539 0.960 . S
H548 C540 0.930 . S
H549 C541 0.929 . S
C146 C105 1.367 . S
C127 C3 1.249 . S
C163 C4 1.433 1_556 S
C182 C91 1.522 . S
C199 C19 1.456 1_554 S
C218 C110 1.516 . S
C235 C7 1.269 . S
C254 C86 1.361 . S
C271 C37 1.257 . S
C290 C67 1.352 . S
C307 C28 1.433 . S
C326 C53 1.485 1_655 S
C362 C72 1.521 . S
C343 C41 1.456 . S
C398 C48 1.358 . S
C379 C25 1.269 . S
C415 C20 1.369 . S
C434 C44 1.504 . S
C451 C16 1.432 . S
C470 C63 1.540 . S
C506 C82 1.477 . S
C487 C40 1.381 . S
C523 C24 1.433 . S
C542 C101 1.523 . S
