# Generated by pormake.
# Topology pto, (3,4)-cn, num edge types: 1
# Building blocks:
#     Node 0, Type 0, BuildingBlock: OLANEW_clean_sbu_2, # of connection points: 3
#     Node 1, Type 0, BuildingBlock: OLANEW_clean_sbu_2, # of connection points: 3
#     Node 2, Type 0, BuildingBlock: OLANEW_clean_sbu_2, # of connection points: 3
#     Node 3, Type 0, BuildingBlock: OLANEW_clean_sbu_2, # of connection points: 3
#     Node 4, Type 0, BuildingBlock: OLANEW_clean_sbu_2, # of connection points: 3
#     Node 5, Type 0, BuildingBlock: OLANEW_clean_sbu_2, # of connection points: 3
#     Node 6, Type 0, BuildingBlock: OLANEW_clean_sbu_2, # of connection points: 3
#     Node 7, Type 0, BuildingBlock: OLANEW_clean_sbu_2, # of connection points: 3
#     Node 8, Type 1, BuildingBlock: MIFKUJ_clean_linker_1, # of connection points: 4
#     Node 9, Type 1, BuildingBlock: MIFKUJ_clean_linker_1, # of connection points: 4
#     Node 10, Type 1, BuildingBlock: MIFKUJ_clean_linker_1, # of connection points: 4
#     Node 11, Type 1, BuildingBlock: MIFKUJ_clean_linker_1, # of connection points: 4
#     Node 12, Type 1, BuildingBlock: MIFKUJ_clean_linker_1, # of connection points: 4
#     Node 13, Type 1, BuildingBlock: MIFKUJ_clean_linker_1, # of connection points: 4
#     Edge 14, Type (0, 1), BuildingBlock: TEMPAE_clean_linker_10, # of connection points: 2
#     Edge 15, Type (0, 1), BuildingBlock: TEMPAE_clean_linker_10, # of connection points: 2
#     Edge 16, Type (0, 1), BuildingBlock: TEMPAE_clean_linker_10, # of connection points: 2
#     Edge 17, Type (0, 1), BuildingBlock: TEMPAE_clean_linker_10, # of connection points: 2
#     Edge 18, Type (0, 1), BuildingBlock: TEMPAE_clean_linker_10, # of connection points: 2
#     Edge 19, Type (0, 1), BuildingBlock: TEMPAE_clean_linker_10, # of connection points: 2
#     Edge 20, Type (0, 1), BuildingBlock: TEMPAE_clean_linker_10, # of connection points: 2
#     Edge 21, Type (0, 1), BuildingBlock: TEMPAE_clean_linker_10, # of connection points: 2
#     Edge 22, Type (0, 1), BuildingBlock: TEMPAE_clean_linker_10, # of connection points: 2
#     Edge 23, Type (0, 1), BuildingBlock: TEMPAE_clean_linker_10, # of connection points: 2
#     Edge 24, Type (0, 1), BuildingBlock: TEMPAE_clean_linker_10, # of connection points: 2
#     Edge 25, Type (0, 1), BuildingBlock: TEMPAE_clean_linker_10, # of connection points: 2
#     Edge 26, Type (0, 1), BuildingBlock: TEMPAE_clean_linker_10, # of connection points: 2
#     Edge 27, Type (0, 1), BuildingBlock: TEMPAE_clean_linker_10, # of connection points: 2
#     Edge 28, Type (0, 1), BuildingBlock: TEMPAE_clean_linker_10, # of connection points: 2
#     Edge 29, Type (0, 1), BuildingBlock: TEMPAE_clean_linker_10, # of connection points: 2
#     Edge 30, Type (0, 1), BuildingBlock: TEMPAE_clean_linker_10, # of connection points: 2
#     Edge 31, Type (0, 1), BuildingBlock: TEMPAE_clean_linker_10, # of connection points: 2
#     Edge 32, Type (0, 1), BuildingBlock: TEMPAE_clean_linker_10, # of connection points: 2
#     Edge 33, Type (0, 1), BuildingBlock: TEMPAE_clean_linker_10, # of connection points: 2
#     Edge 34, Type (0, 1), BuildingBlock: TEMPAE_clean_linker_10, # of connection points: 2
#     Edge 35, Type (0, 1), BuildingBlock: TEMPAE_clean_linker_10, # of connection points: 2
#     Edge 36, Type (0, 1), BuildingBlock: TEMPAE_clean_linker_10, # of connection points: 2
#     Edge 37, Type (0, 1), BuildingBlock: TEMPAE_clean_linker_10, # of connection points: 2
# Relax obj value: 0.008
# Max RMSD: 0.124
# Mean RMSD: 0.053
data_MOF--net-pto--node1-OLANEW_clean_sbu_2--node2-MIFKUJ_clean_linker_1--edge1-TEMPAE_clean_linker_10
_symmetry_space_group_name_H-M    P1
_symmetry_Int_Tables_number       1
_symmetry_cell_setting            triclinic
loop_
_symmetry_equiv_pos_as_xyz
'x, y, z'
_cell_length_a     40.083475
_cell_length_b     62.755714
_cell_length_c     51.216599
_cell_angle_alpha  92.562771
_cell_angle_beta   89.628505
_cell_angle_gamma 105.888
loop_
_atom_site_label
_atom_site_type_symbol
_atom_site_fract_x
_atom_site_fract_y
_atom_site_fract_z
_atom_type_partial_charge
O0 O 0.31097 0.33535 0.28659 0.0
Cd1 Cd 0.27285 0.33511 0.324 0.0
O2 O 0.35673 0.35986 0.30341 0.0
Cd3 Cd 0.32451 0.36831 0.33446 0.0
O4 O 0.28452 0.3845 0.34566 0.0
C5 C 0.27022 0.39067 0.32639 0.0
O6 O 0.28006 0.38641 0.30265 0.0
C7 C 0.34277 0.34606 0.28505 0.0
C8 C 0.28011 0.30257 0.35706 0.0
O9 O 0.26024 0.29764 0.33692 0.0
O10 O 0.29608 0.32301 0.36198 0.0
O11 O 0.31174 0.86625 0.76418 0.0
Cd12 Cd 0.27205 0.86317 0.7273 0.0
O13 O 0.34265 0.84657 0.74402 0.0
Cd14 Cd 0.30524 0.83554 0.7121 0.0
O15 O 0.26419 0.80857 0.69418 0.0
C16 C 0.24752 0.79458 0.71008 0.0
O17 O 0.25523 0.79805 0.73509 0.0
C18 C 0.33766 0.85823 0.76384 0.0
C19 C 0.28927 0.90132 0.69841 0.0
O20 O 0.26949 0.89981 0.7184 0.0
O21 O 0.30095 0.88473 0.69203 0.0
O22 O 0.82726 0.80294 0.32053 0.0
Cd23 Cd 0.82044 0.77612 0.28337 0.0
O24 O 0.78107 0.78447 0.3415 0.0
Cd25 Cd 0.763 0.76316 0.30681 0.0
O26 O 0.73847 0.76234 0.26874 0.0
C27 C 0.74608 0.78079 0.25771 0.0
O28 O 0.76844 0.79787 0.26929 0.0
C29 C 0.80796 0.80085 0.34061 0.0
C30 C 0.84858 0.74117 0.29307 0.0
O31 O 0.86739 0.7594 0.28441 0.0
O32 O 0.81641 0.73948 0.29724 0.0
O33 O 0.76358 0.2993 0.65436 0.0
Cd34 Cd 0.71541 0.2674 0.66463 0.0
O35 O 0.78208 0.30517 0.69508 0.0
Cd36 Cd 0.73913 0.28056 0.71209 0.0
O37 O 0.70445 0.2751 0.74561 0.0
C38 C 0.67242 0.26473 0.74507 0.0
O39 O 0.6581 0.25525 0.72296 0.0
C40 C 0.78547 0.31022 0.67126 0.0
C41 C 0.72507 0.22815 0.64241 0.0
O42 O 0.71071 0.2403 0.62945 0.0
O43 O 0.73472 0.23453 0.66597 0.0
O44 O 0.72225 0.76088 0.61111 0.0
Cd45 Cd 0.70957 0.7248 0.63073 0.0
O46 O 0.72145 0.77297 0.65172 0.0
Cd47 Cd 0.71999 0.79703 0.6836 0.0
O48 O 0.70496 0.80952 0.72107 0.0
C49 C 0.67777 0.79739 0.7313 0.0
O50 O 0.66084 0.77897 0.71863 0.0
C51 C 0.72519 0.77702 0.62761 0.0
C52 C 0.76273 0.7042 0.62557 0.0
O53 O 0.73625 0.69857 0.61032 0.0
O54 O 0.76432 0.71975 0.643 0.0
O55 O 0.80026 0.28794 0.33244 0.0
Cd56 Cd 0.7595 0.25182 0.32187 0.0
O57 O 0.75883 0.30458 0.32945 0.0
Cd58 Cd 0.71905 0.27612 0.31312 0.0
O59 O 0.68067 0.26597 0.28174 0.0
C60 C 0.68735 0.25651 0.26067 0.0
O61 O 0.71666 0.25098 0.25887 0.0
C62 C 0.79023 0.30549 0.3345 0.0
C63 C 0.77296 0.21801 0.35003 0.0
O64 O 0.78505 0.22185 0.32696 0.0
O65 O 0.75466 0.23022 0.35978 0.0
O66 O 0.29233 0.35612 0.75806 0.0
Cd67 Cd 0.26719 0.35242 0.71403 0.0
O68 O 0.34087 0.38058 0.74789 0.0
Cd69 Cd 0.32751 0.3753 0.70653 0.0
O70 O 0.32284 0.35034 0.67477 0.0
C71 C 0.34943 0.34333 0.67092 0.0
O72 O 0.37771 0.35268 0.68457 0.0
C73 C 0.32169 0.36902 0.76489 0.0
C74 C 0.23009 0.38307 0.70474 0.0
O75 O 0.21495 0.36399 0.71339 0.0
O76 O 0.26285 0.38772 0.70077 0.0
O77 O 0.4244 0.85912 0.32201 0.0
Cd78 Cd 0.39582 0.85566 0.36456 0.0
O79 O 0.37122 0.84387 0.30878 0.0
Cd80 Cd 0.33065 0.82532 0.28175 0.0
O81 O 0.28778 0.79579 0.27384 0.0
C82 C 0.29422 0.77749 0.27795 0.0
O83 O 0.32592 0.77777 0.28471 0.0
C84 C 0.40318 0.85134 0.30339 0.0
C85 C 0.38938 0.89526 0.38781 0.0
O86 O 0.41296 0.8866 0.39536 0.0
O87 O 0.36926 0.88543 0.36902 0.0
H88 H 0.95811 0.50351 0.30642 0.0
H89 H 0.92481 0.46491 0.30967 0.0
H90 H 0.98059 0.46076 0.38038 0.0
H91 H 0.01277 0.49984 0.37766 0.0
H92 H 0.96391 0.5398 0.3363 0.0
H93 H 0.04091 0.49625 0.30735 0.0
H94 H 0.07592 0.47 0.3098 0.0
H95 H 0.13178 0.50808 0.376 0.0
H96 H 0.09654 0.53422 0.37357 0.0
H97 H 0.101 0.59906 0.3586 0.0
H98 H 0.13808 0.63515 0.34691 0.0
H99 H 0.07782 0.63166 0.27638 0.0
H100 H 0.04153 0.59515 0.28776 0.0
H101 H 0.09244 0.56006 0.33345 0.0
H102 H 0.02024 0.60586 0.35936 0.0
H103 H 0.99088 0.63457 0.35327 0.0
H104 H 0.92562 0.59273 0.29362 0.0
H105 H 0.95656 0.5646 0.29876 0.0
C106 C 0.98819 0.50453 0.34163 0.0
C107 C 0.96293 0.49438 0.32279 0.0
C108 C 0.94422 0.4722 0.3245 0.0
C109 C 0.95039 0.45963 0.34508 0.0
C110 C 0.97514 0.46998 0.36432 0.0
C111 C 0.99375 0.49226 0.36267 0.0
C112 C 0.0092 0.52775 0.33865 0.0
C113 C 0.99202 0.54422 0.33549 0.0
C114 C 0.0459 0.53364 0.33834 0.0
C115 C 0.06589 0.51708 0.34044 0.0
C116 C 0.0603 0.49874 0.32266 0.0
C117 C 0.08029 0.48375 0.32409 0.0
C118 C 0.10656 0.48699 0.34312 0.0
C119 C 0.11193 0.50527 0.361 0.0
C120 C 0.0918 0.52018 0.35966 0.0
C121 C 0.06834 0.59449 0.32418 0.0
C122 C 0.09572 0.6061 0.34066 0.0
C123 C 0.1167 0.62682 0.33405 0.0
C124 C 0.11078 0.63632 0.31077 0.0
C125 C 0.08318 0.62472 0.29436 0.0
C126 C 0.06222 0.60396 0.30096 0.0
C127 C 0.04719 0.57204 0.33071 0.0
C128 C 0.06435 0.55572 0.33456 0.0
C129 C 0.01052 0.56635 0.33171 0.0
C130 C 0.99105 0.5832 0.32921 0.0
C131 C 0.99981 0.60294 0.3448 0.0
C132 C 0.98266 0.61925 0.34152 0.0
C133 C 0.95591 0.61603 0.32287 0.0
C134 C 0.94649 0.59595 0.30783 0.0
C135 C 0.96391 0.57973 0.31095 0.0
H136 H 0.09129 0.59852 0.61526 0.0
H137 H 0.1248 0.63726 0.62262 0.0
H138 H 0.05625 0.64472 0.68572 0.0
H139 H 0.02297 0.60598 0.67836 0.0
H140 H 0.08109 0.56502 0.6482 0.0
H141 H 0.00948 0.60493 0.60743 0.0
H142 H 0.97445 0.63105 0.60535 0.0
H143 H 0.90187 0.59242 0.65972 0.0
H144 H 0.93873 0.5679 0.66371 0.0
H145 H 0.94629 0.51135 0.67137 0.0
H146 H 0.91289 0.47257 0.67191 0.0
H147 H 0.97473 0.45653 0.60843 0.0
H148 H 0.00863 0.49552 0.60838 0.0
H149 H 0.95396 0.54038 0.63322 0.0
H150 H 0.02673 0.50963 0.68476 0.0
H151 H 0.05948 0.48335 0.6949 0.0
H152 H 0.12398 0.50297 0.62742 0.0
H153 H 0.09067 0.52903 0.61713 0.0
C154 C 0.05442 0.59942 0.64606 0.0
C155 C 0.08343 0.60854 0.63061 0.0
C156 C 0.10256 0.63064 0.63486 0.0
C157 C 0.09308 0.64404 0.6547 0.0
C158 C 0.06385 0.63492 0.67001 0.0
C159 C 0.04485 0.61278 0.66585 0.0
C160 C 0.03504 0.5757 0.64216 0.0
C161 C 0.05336 0.55969 0.64445 0.0
C162 C 0.99862 0.56871 0.63814 0.0
C163 C 0.97718 0.58456 0.63606 0.0
C164 C 0.98644 0.6024 0.61937 0.0
C165 C 0.96598 0.61716 0.61787 0.0
C166 C 0.93522 0.61404 0.63246 0.0
C167 C 0.92574 0.59585 0.64869 0.0
C168 C 0.94661 0.5815 0.65068 0.0
C169 C 0.97992 0.50631 0.63986 0.0
C170 C 0.95258 0.4995 0.6575 0.0
C171 C 0.93341 0.47732 0.65769 0.0
C172 C 0.94092 0.46146 0.64004 0.0
C173 C 0.96847 0.4683 0.62241 0.0
C174 C 0.98779 0.49056 0.62231 0.0
C175 C 0.99985 0.53 0.63993 0.0
C176 C 0.98173 0.5459 0.6367 0.0
C177 C 0.03611 0.53697 0.64399 0.0
C178 C 0.05606 0.52109 0.65002 0.0
C179 C 0.04776 0.50815 0.67204 0.0
C180 C 0.06666 0.49328 0.67794 0.0
C181 C 0.09428 0.4911 0.66194 0.0
C182 C 0.1026 0.50413 0.63993 0.0
C183 C 0.08377 0.5191 0.63412 0.0
H184 H 0.2837 0.07401 0.57864 0.0
H185 H 0.27986 0.04159 0.60444 0.0
H186 H 0.38106 0.03925 0.57722 0.0
H187 H 0.38485 0.07192 0.55139 0.0
H188 H 0.33431 0.1161 0.57909 0.0
H189 H 0.29721 0.04806 0.52393 0.0
H190 H 0.3074 0.01487 0.50309 0.0
H191 H 0.38891 0.05586 0.45683 0.0
H192 H 0.38131 0.08873 0.4801 0.0
H193 H 0.36607 0.14565 0.47154 0.0
H194 H 0.35693 0.17444 0.4443 0.0
H195 H 0.27476 0.18249 0.49577 0.0
H196 H 0.28171 0.15223 0.52115 0.0
H197 H 0.33144 0.10709 0.48233 0.0
H198 H 0.37986 0.1716 0.53521 0.0
H199 H 0.38164 0.2079 0.55544 0.0
H200 H 0.29164 0.17775 0.60139 0.0
H201 H 0.29022 0.1414 0.5812 0.0
C202 C 0.33442 0.07523 0.56298 0.0
C203 C 0.30522 0.06666 0.57843 0.0
C204 C 0.30293 0.04805 0.59297 0.0
C205 C 0.33001 0.03779 0.5926 0.0
C206 C 0.35986 0.04687 0.57787 0.0
C207 C 0.36201 0.06545 0.5631 0.0
C208 C 0.33481 0.09378 0.54599 0.0
C209 C 0.33359 0.11412 0.55792 0.0
C210 C 0.33535 0.09144 0.51834 0.0
C211 C 0.33922 0.07097 0.50429 0.0
C212 C 0.31789 0.04989 0.5098 0.0
C213 C 0.32333 0.03084 0.49737 0.0
C214 C 0.34929 0.03245 0.47828 0.0
C215 C 0.36944 0.05372 0.47195 0.0
C216 C 0.36473 0.07267 0.48499 0.0
C217 C 0.32501 0.14694 0.49873 0.0
C218 C 0.34578 0.15343 0.47674 0.0
C219 C 0.34082 0.17019 0.46136 0.0
C220 C 0.31528 0.18109 0.46784 0.0
C221 C 0.29438 0.17439 0.48981 0.0
C222 C 0.29877 0.15728 0.50473 0.0
C223 C 0.33056 0.12935 0.51539 0.0
C224 C 0.33269 0.1092 0.50347 0.0
C225 C 0.3325 0.13211 0.54299 0.0
C226 C 0.33471 0.15384 0.55653 0.0
C227 C 0.36053 0.17282 0.54966 0.0
C228 C 0.3614 0.19356 0.56113 0.0
C229 C 0.33658 0.19573 0.57984 0.0
C230 C 0.31127 0.1766 0.58718 0.0
C231 C 0.31042 0.15583 0.57568 0.0
H232 H 0.5079 0.8751 0.98351 0.0
H233 H 0.47584 0.88154 0.94534 0.0
H234 H 0.46543 0.81429 0.91636 0.0
H235 H 0.49678 0.80787 0.95465 0.0
H236 H 0.48905 0.84401 0.02236 0.0
H237 H 0.57514 0.86321 0.95509 0.0
H238 H 0.59829 0.86019 0.91118 0.0
H239 H 0.59434 0.79177 0.92294 0.0
H240 H 0.57139 0.79495 0.96683 0.0
H241 H 0.57896 0.78923 0.04365 0.0
H242 H 0.61037 0.7798 0.08023 0.0
H243 H 0.61842 0.84414 0.11753 0.0
H244 H 0.5872 0.85357 0.08079 0.0
H245 H 0.59708 0.82086 0.00926 0.0
H246 H 0.51377 0.80206 0.07761 0.0
H247 H 0.49241 0.80522 0.12181 0.0
H248 H 0.48614 0.87147 0.10765 0.0
H249 H 0.51033 0.86881 0.06421 0.0
C250 C 0.5049 0.84107 0.97178 0.0
C251 C 0.49844 0.86173 0.969 0.0
C252 C 0.4804 0.86543 0.94712 0.0
C253 C 0.4682 0.84843 0.92785 0.0
C254 C 0.47421 0.82765 0.93099 0.0
C255 C 0.49232 0.824 0.95276 0.0
C256 C 0.52545 0.83738 0.99422 0.0
C257 C 0.51297 0.83928 0.01963 0.0
C258 C 0.55623 0.83078 0.99047 0.0
C259 C 0.57127 0.82924 0.96414 0.0
C260 C 0.57918 0.84755 0.94815 0.0
C261 C 0.59234 0.84579 0.92306 0.0
C262 C 0.59811 0.82573 0.91356 0.0
C263 C 0.59063 0.80754 0.92979 0.0
C264 C 0.57743 0.8093 0.95485 0.0
C265 C 0.58043 0.82201 0.05961 0.0
C266 C 0.58769 0.80136 0.05963 0.0
C267 C 0.60565 0.796 0.08051 0.0
C268 C 0.61669 0.81119 0.10178 0.0
C269 C 0.60975 0.83198 0.10159 0.0
C270 C 0.59199 0.83739 0.0806 0.0
C271 C 0.56067 0.82733 0.03758 0.0
C272 C 0.57329 0.82572 0.01216 0.0
C273 C 0.52997 0.83413 0.04142 0.0
C274 C 0.51452 0.8354 0.06774 0.0
C275 C 0.50831 0.8174 0.08416 0.0
C276 C 0.49552 0.81912 0.10938 0.0
C277 C 0.48766 0.83867 0.11853 0.0
C278 C 0.49265 0.85635 0.10161 0.0
C279 C 0.50608 0.85476 0.07657 0.0
H280 H 0.72975 0.96692 0.53969 0.0
H281 H 0.71932 0.93104 0.55951 0.0
H282 H 0.82992 0.93863 0.56116 0.0
H283 H 0.83972 0.97397 0.54 0.0
H284 H 0.77782 0.01228 0.55621 0.0
H285 H 0.7489 0.95683 0.48366 0.0
H286 H 0.75369 0.92282 0.46046 0.0
H287 H 0.86474 0.95027 0.45601 0.0
H288 H 0.85973 0.98437 0.47932 0.0
H289 H 0.83537 0.07519 0.5046 0.0
H290 H 0.83345 0.10717 0.47983 0.0
H291 H 0.76557 0.06349 0.42297 0.0
H292 H 0.76557 0.03186 0.44885 0.0
H293 H 0.81154 0.0125 0.46271 0.0
H294 H 0.82329 0.05696 0.56266 0.0
H295 H 0.81159 0.08996 0.58389 0.0
H296 H 0.72388 0.08247 0.53235 0.0
H297 H 0.73572 0.04948 0.51118 0.0
C298 C 0.78546 0.97302 0.53851 0.0
C299 C 0.75169 0.96091 0.54466 0.0
C300 C 0.74584 0.94042 0.55608 0.0
C301 C 0.77376 0.9318 0.56194 0.0
C302 C 0.80772 0.94447 0.55648 0.0
C303 C 0.81347 0.96479 0.54468 0.0
C304 C 0.79109 0.99334 0.52367 0.0
C305 C 0.78552 0.01248 0.53585 0.0
C306 C 0.80068 0.99342 0.49713 0.0
C307 C 0.80397 0.97302 0.48309 0.0
C308 C 0.77426 0.95548 0.4777 0.0
C309 C 0.77702 0.93613 0.46443 0.0
C310 C 0.80958 0.93397 0.45644 0.0
C311 C 0.83939 0.95148 0.46215 0.0
C312 C 0.83655 0.97096 0.47523 0.0
C313 C 0.80002 0.05113 0.47892 0.0
C314 C 0.81978 0.07254 0.48694 0.0
C315 C 0.81903 0.09081 0.47253 0.0
C316 C 0.79906 0.088 0.44947 0.0
C317 C 0.78055 0.06639 0.44093 0.0
C318 C 0.7809 0.04821 0.45555 0.0
C319 C 0.79823 0.03177 0.49512 0.0
C320 C 0.80453 0.01265 0.4832 0.0
C321 C 0.78867 0.03164 0.52183 0.0
C322 C 0.78049 0.05093 0.5353 0.0
C323 C 0.80144 0.06238 0.55607 0.0
C324 C 0.79488 0.08126 0.56803 0.0
C325 C 0.76692 0.08878 0.55967 0.0
C326 C 0.74547 0.07695 0.53926 0.0
C327 C 0.75227 0.0582 0.52712 0.0
H328 H 0.48435 0.35412 0.97937 0.0
H329 H 0.45655 0.36678 0.94298 0.0
H330 H 0.41547 0.29883 0.91428 0.0
H331 H 0.4436 0.28635 0.9505 0.0
H332 H 0.45667 0.32693 0.01826 0.0
H333 H 0.53893 0.3272 0.94889 0.0
H334 H 0.55998 0.31822 0.9061 0.0
H335 H 0.51982 0.24831 0.91957 0.0
H336 H 0.49971 0.25752 0.96272 0.0
H337 H 0.51745 0.25572 0.04351 0.0
H338 H 0.54701 0.24515 0.08046 0.0
H339 H 0.57918 0.31369 0.10876 0.0
H340 H 0.55124 0.3242 0.07123 0.0
H341 H 0.53977 0.28174 0.00386 0.0
H342 H 0.46068 0.28073 0.07373 0.0
H343 H 0.44216 0.28901 0.11764 0.0
H344 H 0.47389 0.35902 0.10326 0.0
H345 H 0.49223 0.35058 0.0592 0.0
C346 C 0.4664 0.31932 0.96746 0.0
C347 C 0.46931 0.34197 0.96522 0.0
C348 C 0.4533 0.34917 0.94449 0.0
C349 C 0.43391 0.33382 0.92567 0.0
C350 C 0.43074 0.31111 0.92817 0.0
C351 C 0.44677 0.30394 0.94888 0.0
C352 C 0.48339 0.31174 0.9895 0.0
C353 C 0.47519 0.31731 0.01511 0.0
C354 C 0.5066 0.29853 0.98541 0.0
C355 C 0.51767 0.29302 0.9589 0.0
C356 C 0.53437 0.30995 0.94248 0.0
C357 C 0.54623 0.30476 0.91796 0.0
C358 C 0.54155 0.28251 0.90932 0.0
C359 C 0.52429 0.2656 0.92572 0.0
C360 C 0.51266 0.27082 0.95034 0.0
C361 C 0.53177 0.29071 0.05476 0.0
C362 C 0.53117 0.26846 0.05758 0.0
C363 C 0.54779 0.26242 0.07884 0.0
C364 C 0.5654 0.27855 0.09765 0.0
C365 C 0.56626 0.30085 0.09452 0.0
C366 C 0.54991 0.30688 0.07321 0.0
C367 C 0.51336 0.29715 0.03265 0.0
C368 C 0.52116 0.29131 0.00703 0.0
C369 C 0.48954 0.30996 0.03672 0.0
C370 C 0.47807 0.31505 0.06328 0.0
C371 C 0.46389 0.29787 0.08011 0.0
C372 C 0.45346 0.30264 0.10524 0.0
C373 C 0.45678 0.32468 0.11398 0.0
C374 C 0.47077 0.34186 0.09701 0.0
C375 C 0.48125 0.33708 0.07186 0.0
C376 C 0.2315 0.4118 0.30881 0.0
C377 C 0.2442 0.40331 0.33035 0.0
C378 C 0.20805 0.42466 0.31206 0.0
C379 C 0.19679 0.42905 0.33748 0.0
C380 C 0.20889 0.42016 0.35929 0.0
C381 C 0.23257 0.40743 0.35547 0.0
C382 C 0.19587 0.43393 0.28831 0.0
C383 C 0.19724 0.42438 0.38665 0.0
C384 C 0.1654 0.48073 0.34585 0.0
C385 C 0.12936 0.47193 0.34349 0.0
C386 C 0.18758 0.46688 0.34466 0.0
C387 C 0.17336 0.44366 0.34112 0.0
C388 C 0.13693 0.43462 0.33947 0.0
C389 C 0.11535 0.44888 0.34056 0.0
C390 C 0.22631 0.47718 0.34628 0.0
C391 C 0.12082 0.40993 0.33592 0.0
H392 H 0.2403 0.4087 0.28932 0.0
H393 H 0.24216 0.40087 0.37221 0.0
H394 H 0.16714 0.42864 0.2871 0.0
H395 H 0.20398 0.45232 0.29001 0.0
H396 H 0.20644 0.42852 0.26984 0.0
H397 H 0.20771 0.4154 0.40137 0.0
H398 H 0.20587 0.4424 0.39195 0.0
H399 H 0.1685 0.41922 0.38766 0.0
H400 H 0.17638 0.49854 0.3478 0.0
H401 H 0.08747 0.44201 0.33904 0.0
H402 H 0.23846 0.47392 0.32754 0.0
H403 H 0.23777 0.46957 0.36181 0.0
H404 H 0.23311 0.49539 0.35042 0.0
H405 H 0.12853 0.40387 0.31675 0.0
H406 H 0.09204 0.40545 0.33675 0.0
H407 H 0.13044 0.40111 0.35124 0.0
C408 C 0.21416 0.7695 0.67395 0.0
C409 C 0.22185 0.77387 0.70068 0.0
C410 C 0.19168 0.74919 0.66487 0.0
C411 C 0.17673 0.73287 0.68294 0.0
C412 C 0.18366 0.73744 0.70998 0.0
C413 C 0.20603 0.75788 0.71851 0.0
C414 C 0.18466 0.74495 0.63591 0.0
C415 C 0.16827 0.72047 0.72987 0.0
C416 C 0.09876 0.68433 0.66524 0.0
C417 C 0.11448 0.66717 0.6602 0.0
C418 C 0.11876 0.706 0.67186 0.0
C419 C 0.15529 0.71055 0.67365 0.0
C420 C 0.17133 0.69339 0.66803 0.0
C421 C 0.15073 0.67192 0.66132 0.0
C422 C 0.10076 0.72391 0.6775 0.0
C423 C 0.21019 0.69752 0.66991 0.0
H424 H 0.22616 0.78179 0.66005 0.0
H425 H 0.21171 0.76111 0.7392 0.0
H426 H 0.19542 0.73131 0.62858 0.0
H427 H 0.15631 0.73958 0.63208 0.0
H428 H 0.19632 0.75987 0.62463 0.0
H429 H 0.17508 0.72695 0.75025 0.0
H430 H 0.13961 0.71507 0.72791 0.0
H431 H 0.17774 0.70556 0.72629 0.0
H432 H 0.07077 0.68077 0.66408 0.0
H433 H 0.16299 0.65867 0.65776 0.0
H434 H 0.11206 0.73838 0.66546 0.0
H435 H 0.10483 0.72979 0.69829 0.0
H436 H 0.07242 0.71801 0.67357 0.0
H437 H 0.2234 0.71143 0.65762 0.0
H438 H 0.21871 0.68267 0.66367 0.0
H439 H 0.21886 0.7024 0.69038 0.0
C440 C 0.8996 0.72586 0.29751 0.0
C441 C 0.86356 0.72258 0.29793 0.0
C442 C 0.9142 0.70839 0.30193 0.0
C443 C 0.89221 0.68707 0.30658 0.0
C444 C 0.8558 0.68363 0.30697 0.0
C445 C 0.84191 0.70147 0.3028 0.0
C446 C 0.95317 0.71277 0.30164 0.0
C447 C 0.83151 0.66107 0.31157 0.0
C448 C 0.92975 0.63823 0.2935 0.0
C449 C 0.93843 0.63375 0.3188 0.0
C450 C 0.91413 0.65527 0.2893 0.0
C451 C 0.90739 0.66835 0.31086 0.0
C452 C 0.91584 0.66385 0.33645 0.0
C453 C 0.93105 0.64654 0.34012 0.0
C454 C 0.90526 0.65946 0.26172 0.0
C455 C 0.9092 0.67751 0.35993 0.0
H456 H 0.9165 0.74215 0.29387 0.0
H457 H 0.81403 0.69879 0.30305 0.0
H458 H 0.96232 0.70838 0.32054 0.0
H459 H 0.96083 0.70217 0.28611 0.0
H460 H 0.96666 0.73038 0.29821 0.0
H461 H 0.80384 0.66114 0.31124 0.0
H462 H 0.83546 0.64885 0.29635 0.0
H463 H 0.8373 0.65527 0.33073 0.0
H464 H 0.9358 0.62871 0.27686 0.0
H465 H 0.9371 0.64298 0.35978 0.0
H466 H 0.92043 0.67629 0.25644 0.0
H467 H 0.8774 0.65885 0.2603 0.0
H468 H 0.91075 0.64717 0.24721 0.0
H469 H 0.92367 0.69517 0.35797 0.0
H470 H 0.91711 0.67181 0.37854 0.0
H471 H 0.88124 0.67672 0.36102 0.0
C472 C 0.81754 0.33606 0.63774 0.0
C473 C 0.81314 0.33002 0.66386 0.0
C474 C 0.84087 0.35621 0.63111 0.0
C475 C 0.85987 0.37071 0.6511 0.0
C476 C 0.85677 0.3642 0.67731 0.0
C477 C 0.83361 0.34391 0.68334 0.0
C478 C 0.84396 0.36243 0.60289 0.0
C479 C 0.87645 0.37923 0.69924 0.0
C480 C 0.9358 0.42057 0.63803 0.0
C481 C 0.91994 0.43792 0.6403 0.0
C482 C 0.91634 0.39841 0.64032 0.0
C483 C 0.88031 0.39357 0.64525 0.0
C484 C 0.86399 0.41094 0.6466 0.0
C485 C 0.88394 0.43285 0.64393 0.0
C486 C 0.93455 0.38029 0.63846 0.0
C487 C 0.82561 0.4065 0.65187 0.0
H488 H 0.80206 0.32536 0.62252 0.0
H489 H 0.83057 0.33938 0.70356 0.0
H490 H 0.83188 0.37611 0.60019 0.0
H491 H 0.87164 0.36851 0.59733 0.0
H492 H 0.83102 0.34825 0.58941 0.0
H493 H 0.87312 0.37105 0.71824 0.0
H494 H 0.90452 0.38467 0.69471 0.0
H495 H 0.8672 0.39435 0.70136 0.0
H496 H 0.96362 0.42435 0.63535 0.0
H497 H 0.87136 0.4461 0.64507 0.0
H498 H 0.92031 0.36654 0.62496 0.0
H499 H 0.93501 0.37334 0.65794 0.0
H500 H 0.96168 0.38644 0.63156 0.0
H501 H 0.8105 0.39398 0.63735 0.0
H502 H 0.81666 0.42172 0.65117 0.0
H503 H 0.81969 0.39959 0.67147 0.0
C504 C 0.29453 0.28982 0.40005 0.0
C505 C 0.28513 0.28506 0.37369 0.0
C506 C 0.29931 0.27322 0.41596 0.0
C507 C 0.29564 0.25157 0.40498 0.0
C508 C 0.2867 0.2468 0.37824 0.0
C509 C 0.28104 0.26353 0.36301 0.0
C510 C 0.30789 0.27876 0.44456 0.0
C511 C 0.28347 0.2241 0.36564 0.0
C512 C 0.33877 0.21393 0.44 0.0
C513 C 0.31033 0.1993 0.4518 0.0
C514 C 0.33435 0.23091 0.42458 0.0
C515 C 0.30084 0.2338 0.42146 0.0
C516 C 0.27212 0.21944 0.43366 0.0
C517 C 0.27711 0.20218 0.44829 0.0
C518 C 0.36553 0.24563 0.41143 0.0
C519 C 0.23605 0.22225 0.43119 0.0
H520 H 0.29754 0.30643 0.40836 0.0
H521 H 0.27414 0.25988 0.34254 0.0
H522 H 0.28807 0.2677 0.45673 0.0
H523 H 0.33324 0.27588 0.44921 0.0
H524 H 0.30906 0.29626 0.45018 0.0
H525 H 0.27752 0.22333 0.34441 0.0
H526 H 0.30798 0.21945 0.36829 0.0
H527 H 0.26263 0.21153 0.37524 0.0
H528 H 0.36466 0.21225 0.44292 0.0
H529 H 0.25476 0.19079 0.45675 0.0
H530 H 0.3694 0.26312 0.41841 0.0
H531 H 0.36111 0.24485 0.39 0.0
H532 H 0.38968 0.24081 0.41523 0.0
H533 H 0.23611 0.23944 0.43736 0.0
H534 H 0.21684 0.21053 0.44317 0.0
H535 H 0.22743 0.21952 0.41048 0.0
C536 C 0.3519 0.87074 0.8106 0.0
C537 C 0.36024 0.86083 0.78726 0.0
C538 C 0.37057 0.87087 0.83374 0.0
C539 C 0.39829 0.86092 0.8335 0.0
C540 C 0.4079 0.85186 0.80975 0.0
C541 C 0.38874 0.85189 0.78693 0.0
C542 C 0.3596 0.88074 0.85869 0.0
C543 C 0.43748 0.84124 0.80866 0.0
C544 C 0.46199 0.87158 0.89046 0.0
C545 C 0.44948 0.85227 0.90438 0.0
C546 C 0.44535 0.87482 0.86751 0.0
C547 C 0.41548 0.85839 0.85837 0.0
C548 C 0.40236 0.83908 0.87265 0.0
C549 C 0.41954 0.83625 0.89545 0.0
C550 C 0.46014 0.89558 0.85275 0.0
C551 C 0.37042 0.82124 0.86365 0.0
H552 H 0.33 0.87774 0.81106 0.0
H553 H 0.39554 0.84432 0.76897 0.0
H554 H 0.34889 0.86738 0.87239 0.0
H555 H 0.38229 0.89254 0.86847 0.0
H556 H 0.33958 0.88954 0.85517 0.0
H557 H 0.44351 0.83662 0.78834 0.0
H558 H 0.46118 0.85265 0.81764 0.0
H559 H 0.43073 0.82604 0.82009 0.0
H560 H 0.48532 0.8839 0.89715 0.0
H561 H 0.4095 0.82145 0.90635 0.0
H562 H 0.43993 0.9043 0.84981 0.0
H563 H 0.46864 0.8911 0.83309 0.0
H564 H 0.48262 0.90719 0.86306 0.0
H565 H 0.34823 0.82843 0.86162 0.0
H566 H 0.36305 0.80752 0.87737 0.0
H567 H 0.37505 0.81421 0.84413 0.0
C568 C 0.7943 0.81625 0.38411 0.0
C569 C 0.81442 0.81877 0.36135 0.0
C570 C 0.79634 0.83426 0.40189 0.0
C571 C 0.81873 0.85531 0.39661 0.0
C572 C 0.84059 0.85765 0.3745 0.0
C573 C 0.83832 0.83931 0.35722 0.0
C574 C 0.77307 0.83103 0.42552 0.0
C575 C 0.86469 0.87984 0.36811 0.0
C576 C 0.7901 0.90568 0.41995 0.0
C577 C 0.81212 0.91375 0.44142 0.0
C578 C 0.79207 0.88669 0.40528 0.0
C579 C 0.81644 0.87532 0.41242 0.0
C580 C 0.83861 0.88328 0.43421 0.0
C581 C 0.83636 0.90254 0.44838 0.0
C582 C 0.76825 0.87891 0.38197 0.0
C583 C 0.86455 0.87142 0.44259 0.0
H584 H 0.776 0.80039 0.3876 0.0
H585 H 0.85405 0.84143 0.33973 0.0
H586 H 0.78795 0.83869 0.44334 0.0
H587 H 0.75231 0.83937 0.42288 0.0
H588 H 0.76069 0.81321 0.42871 0.0
H589 H 0.88249 0.87842 0.35181 0.0
H590 H 0.84918 0.89111 0.36244 0.0
H591 H 0.88042 0.88768 0.38548 0.0
H592 H 0.77163 0.91449 0.41438 0.0
H593 H 0.8532 0.90868 0.46512 0.0
H594 H 0.75194 0.86176 0.38455 0.0
H595 H 0.78379 0.8786 0.36402 0.0
H596 H 0.75093 0.88972 0.37896 0.0
H597 H 0.85099 0.854 0.4468 0.0
H598 H 0.87949 0.87954 0.46024 0.0
H599 H 0.88303 0.87089 0.42651 0.0
C600 C 0.61632 0.25249 0.76947 0.0
C601 C 0.6512 0.26491 0.76885 0.0
C602 C 0.59584 0.25346 0.79166 0.0
C603 C 0.61055 0.26734 0.81356 0.0
C604 C 0.64581 0.27973 0.81312 0.0
C605 C 0.66572 0.27827 0.79087 0.0
C606 C 0.55843 0.23981 0.79159 0.0
C607 C 0.66243 0.29485 0.83602 0.0
C608 C 0.5552 0.28973 0.86206 0.0
C609 C 0.55609 0.2771 0.88385 0.0
C610 C 0.57171 0.28616 0.83868 0.0
C611 C 0.58921 0.26938 0.83692 0.0
C612 C 0.58881 0.25587 0.85838 0.0
C613 C 0.57245 0.25998 0.88163 0.0
C614 C 0.57165 0.30097 0.81625 0.0
C615 C 0.60696 0.23771 0.85718 0.0
H616 H 0.60494 0.24208 0.75258 0.0
H617 H 0.69261 0.28798 0.7906 0.0
H618 H 0.55351 0.22903 0.80858 0.0
H619 H 0.54116 0.25089 0.79359 0.0
H620 H 0.55127 0.22922 0.77342 0.0
H621 H 0.69023 0.30325 0.83262 0.0
H622 H 0.64853 0.30772 0.83985 0.0
H623 H 0.66039 0.28525 0.8539 0.0
H624 H 0.54203 0.30269 0.86341 0.0
H625 H 0.57365 0.25027 0.89839 0.0
H626 H 0.56258 0.29084 0.79805 0.0
H627 H 0.59847 0.31123 0.81275 0.0
H628 H 0.55486 0.31221 0.82008 0.0
H629 H 0.59931 0.227 0.83918 0.0
H630 H 0.60105 0.22716 0.87439 0.0
H631 H 0.63543 0.24515 0.85642 0.0
C632 C 0.3147 0.92173 0.65882 0.0
C633 C 0.29797 0.92152 0.683 0.0
C634 C 0.32188 0.94053 0.64362 0.0
C635 C 0.31241 0.95963 0.65294 0.0
C636 C 0.29624 0.95969 0.67759 0.0
C637 C 0.28905 0.9406 0.69225 0.0
C638 C 0.33889 0.93978 0.61733 0.0
C639 C 0.28601 0.9798 0.68831 0.0
C640 C 0.35322 0.01537 0.62356 0.0
C641 C 0.32649 0.01738 0.60716 0.0
C642 C 0.34923 0.99653 0.63838 0.0
C643 C 0.31793 0.97924 0.63647 0.0
C644 C 0.29126 0.98097 0.61939 0.0
C645 C 0.29581 6e-05 0.60504 0.0
C646 C 0.37812 0.99535 0.65655 0.0
C647 C 0.25769 0.96278 0.61653 0.0
H648 H 0.32165 0.90705 0.65152 0.0
H649 H 0.27631 0.94063 0.71098 0.0
H650 H 0.32113 0.94178 0.60166 0.0
H651 H 0.36279 0.95371 0.61628 0.0
H652 H 0.34575 0.92396 0.6133 0.0
H653 H 0.27524 0.97756 0.70836 0.0
H654 H 0.30882 0.99458 0.68874 0.0
H655 H 0.26624 0.9833 0.67536 0.0
H656 H 0.37688 0.02881 0.62532 0.0
H657 H 0.27531 0.00144 0.59207 0.0
H658 H 0.38599 0.97997 0.6521 0.0
H659 H 0.36883 0.99471 0.67703 0.0
H660 H 0.40126 0.00982 0.65509 0.0
H661 H 0.26311 0.94676 0.61101 0.0
H662 H 0.24018 0.96627 0.60157 0.0
H663 H 0.24392 0.96074 0.6355 0.0
C664 C 0.7001 0.76685 0.22329 0.0
C665 C 0.7284 0.78365 0.23335 0.0
C666 C 0.68169 0.77016 0.20128 0.0
C667 C 0.69199 0.7907 0.189 0.0
C668 C 0.7211 0.80747 0.19863 0.0
C669 C 0.73889 0.80377 0.22071 0.0
C670 C 0.65071 0.75191 0.19156 0.0
C671 C 0.73305 0.82954 0.18595 0.0
C672 C 0.66223 0.79527 0.11972 0.0
C673 C 0.63541 0.80539 0.12411 0.0
C674 C 0.68056 0.79007 0.14067 0.0
C675 C 0.67172 0.79503 0.1666 0.0
C676 C 0.64431 0.80493 0.17115 0.0
C677 C 0.62654 0.81005 0.14984 0.0
C678 C 0.70979 0.77966 0.13505 0.0
C679 C 0.63397 0.81034 0.19854 0.0
H680 H 0.69181 0.75127 0.23296 0.0
H681 H 0.76083 0.81681 0.22826 0.0
H682 H 0.62692 0.75764 0.19334 0.0
H683 H 0.6538 0.74777 0.17056 0.0
H684 H 0.64691 0.7366 0.20263 0.0
H685 H 0.75707 0.84047 0.19514 0.0
H686 H 0.73795 0.82697 0.16486 0.0
H687 H 0.71239 0.83823 0.18743 0.0
H688 H 0.66937 0.79183 0.09985 0.0
H689 H 0.60549 0.81757 0.15331 0.0
H690 H 0.70537 0.76395 0.14534 0.0
H691 H 0.7346 0.79092 0.14254 0.0
H692 H 0.71256 0.77611 0.11382 0.0
H693 H 0.62753 0.7952 0.21005 0.0
H694 H 0.6113 0.81731 0.19874 0.0
H695 H 0.65603 0.82254 0.20854 0.0
C696 C 0.72616 0.20287 0.60343 0.0
C697 C 0.73057 0.20747 0.63044 0.0
C698 C 0.73189 0.18354 0.59172 0.0
C699 C 0.74182 0.1683 0.60745 0.0
C700 C 0.74595 0.17272 0.63476 0.0
C701 C 0.7405 0.19233 0.64591 0.0
C702 C 0.72763 0.17952 0.56248 0.0
C703 C 0.75615 0.15674 0.6522 0.0
C704 C 0.72701 0.10912 0.58014 0.0
C705 C 0.76045 0.10908 0.572 0.0
C706 C 0.72061 0.12824 0.59192 0.0
C707 C 0.74824 0.14783 0.59528 0.0
C708 C 0.78201 0.1479 0.58692 0.0
C709 C 0.78774 0.12847 0.57552 0.0
C710 C 0.68435 0.12744 0.60087 0.0
C711 C 0.81203 0.16855 0.58983 0.0
H712 H 0.71864 0.21454 0.59133 0.0
H713 H 0.74381 0.19573 0.66681 0.0
H714 H 0.75233 0.17803 0.55372 0.0
H715 H 0.70769 0.16365 0.55794 0.0
H716 H 0.7199 0.19304 0.55301 0.0
H717 H 0.75749 0.16237 0.67314 0.0
H718 H 0.73718 0.14016 0.65 0.0
H719 H 0.78184 0.15474 0.64631 0.0
H720 H 0.70595 0.09407 0.57763 0.0
H721 H 0.81353 0.12852 0.56895 0.0
H722 H 0.67475 0.13985 0.59066 0.0
H723 H 0.68454 0.13183 0.62211 0.0
H724 H 0.66585 0.11083 0.59715 0.0
H725 H 0.8062 0.18219 0.5793 0.0
H726 H 0.83662 0.16589 0.58213 0.0
H727 H 0.81592 0.17409 0.61073 0.0
C728 C 0.34762 0.32669 0.24211 0.0
C729 C 0.36282 0.34289 0.26148 0.0
C730 C 0.36525 0.32417 0.21897 0.0
C731 C 0.39893 0.33823 0.21502 0.0
C732 C 0.41479 0.35432 0.23469 0.0
C733 C 0.39655 0.35645 0.25773 0.0
C734 C 0.34752 0.30672 0.1985 0.0
C735 C 0.45069 0.36959 0.23112 0.0
C736 C 0.45108 0.31821 0.16195 0.0
C737 C 0.44456 0.32957 0.14042 0.0
C738 C 0.43745 0.32146 0.18665 0.0
C739 C 0.41684 0.33644 0.18986 0.0
C740 C 0.4112 0.34854 0.16843 0.0
C741 C 0.42511 0.34494 0.14396 0.0
C742 C 0.44415 0.30833 0.20907 0.0
C743 C 0.38935 0.36467 0.17109 0.0
H744 H 0.32164 0.31606 0.24486 0.0
H745 H 0.40849 0.36902 0.27259 0.0
H746 H 0.34397 0.31476 0.18026 0.0
H747 H 0.36393 0.29545 0.19369 0.0
H748 H 0.32175 0.29664 0.20497 0.0
H749 H 0.46003 0.38049 0.24877 0.0
H750 H 0.46935 0.35978 0.22651 0.0
H751 H 0.45066 0.38018 0.21435 0.0
H752 H 0.4666 0.30658 0.15942 0.0
H753 H 0.41969 0.35362 0.12736 0.0
H754 H 0.41943 0.29667 0.21507 0.0
H755 H 0.45442 0.31957 0.22624 0.0
H756 H 0.46284 0.29864 0.20386 0.0
H757 H 0.36212 0.35554 0.1753 0.0
H758 H 0.38962 0.37397 0.1531 0.0
H759 H 0.39875 0.37672 0.18772 0.0
C760 C 0.7816 0.67007 0.61547 0.0
C761 C 0.78998 0.69244 0.62393 0.0
C762 C 0.80646 0.6581 0.61593 0.0
C763 C 0.84076 0.66899 0.62426 0.0
C764 C 0.84971 0.69186 0.63172 0.0
C765 C 0.82402 0.70324 0.6319 0.0
C766 C 0.79564 0.63359 0.60853 0.0
C767 C 0.88625 0.70421 0.63991 0.0
C768 C 0.89391 0.63384 0.65245 0.0
C769 C 0.91267 0.62933 0.6306 0.0
C770 C 0.87052 0.64673 0.65063 0.0
C771 C 0.86663 0.65611 0.62661 0.0
C772 C 0.88654 0.65254 0.60478 0.0
C773 C 0.90891 0.63893 0.60691 0.0
C774 C 0.84932 0.64984 0.67428 0.0
C775 C 0.88379 0.66278 0.57904 0.0
H776 H 0.75521 0.66166 0.60949 0.0
H777 H 0.83058 0.72061 0.63824 0.0
H778 H 0.81229 0.62979 0.59262 0.0
H779 H 0.79914 0.62406 0.62556 0.0
H780 H 0.76813 0.62772 0.60201 0.0
H781 H 0.88968 0.72235 0.64273 0.0
H782 H 0.89287 0.69789 0.6585 0.0
H783 H 0.90497 0.70138 0.625 0.0
H784 H 0.89724 0.62715 0.67108 0.0
H785 H 0.92282 0.63544 0.58976 0.0
H786 H 0.82126 0.64347 0.66955 0.0
H787 H 0.85444 0.66772 0.67984 0.0
H788 H 0.85506 0.64113 0.6914 0.0
H789 H 0.85758 0.65551 0.57048 0.0
H790 H 0.90334 0.6601 0.56472 0.0
H791 H 0.88726 0.68088 0.58211 0.0
C792 C 0.85032 0.32911 0.34581 0.0
C793 C 0.81524 0.32733 0.34083 0.0
C794 C 0.87461 0.34997 0.34922 0.0
C795 C 0.86356 0.36944 0.34737 0.0
C796 C 0.82802 0.36772 0.34336 0.0
C797 C 0.80431 0.34673 0.34026 0.0
C798 C 0.91225 0.35119 0.35384 0.0
C799 C 0.81518 0.38808 0.34114 0.0
C800 C 0.9178 0.42685 0.37008 0.0
C801 C 0.93087 0.43586 0.34629 0.0
C802 C 0.89716 0.40484 0.37098 0.0
C803 C 0.8892 0.39163 0.34752 0.0
C804 C 0.90344 0.40036 0.32362 0.0
C805 C 0.92423 0.4223 0.32333 0.0
C806 C 0.88274 0.39602 0.39687 0.0
C807 C 0.89556 0.38683 0.29815 0.0
H808 H 0.85898 0.31422 0.34643 0.0
H809 H 0.77728 0.34558 0.33654 0.0
H810 H 0.92768 0.35777 0.33647 0.0
H811 H 0.92272 0.36275 0.37072 0.0
H812 H 0.91604 0.3347 0.35759 0.0
H813 H 0.78648 0.38393 0.33947 0.0
H814 H 0.82355 0.39957 0.35842 0.0
H815 H 0.82665 0.39709 0.32364 0.0
H816 H 0.92266 0.43723 0.3879 0.0
H817 H 0.93494 0.42896 0.30497 0.0
H818 H 0.88714 0.37956 0.39961 0.0
H819 H 0.8543 0.39375 0.39715 0.0
H820 H 0.89457 0.40739 0.41361 0.0
H821 H 0.90185 0.37079 0.29976 0.0
H822 H 0.91028 0.39562 0.28152 0.0
H823 H 0.86744 0.38302 0.29367 0.0
C824 C 0.17394 0.39296 0.70076 0.0
C825 C 0.21025 0.39911 0.69907 0.0
C826 C 0.15478 0.40781 0.69481 0.0
C827 C 0.17236 0.42938 0.68717 0.0
C828 C 0.20902 0.43576 0.68565 0.0
C829 C 0.22751 0.42053 0.69154 0.0
C830 C 0.1157 0.40037 0.69654 0.0
C831 C 0.22869 0.45868 0.67774 0.0
C832 C 0.12269 0.46135 0.64876 0.0
C833 C 0.11443 0.47536 0.66835 0.0
C834 C 0.14144 0.44625 0.65462 0.0
C835 C 0.15239 0.44526 0.68067 0.0
C836 C 0.14427 0.45945 0.7005 0.0
C837 C 0.1253 0.47428 0.69411 0.0
C838 C 0.14936 0.43126 0.63298 0.0
C839 C 0.15574 0.45902 0.72845 0.0
H840 H 0.16039 0.37642 0.7065 0.0
H841 H 0.25556 0.42544 0.69024 0.0
H842 H 0.1065 0.41143 0.71063 0.0
H843 H 0.10406 0.40156 0.67725 0.0
H844 H 0.10598 0.38304 0.70278 0.0
H845 H 0.25722 0.46115 0.67787 0.0
H846 H 0.2206 0.46156 0.65783 0.0
H847 H 0.22251 0.47139 0.69121 0.0
H848 H 0.11399 0.46195 0.62888 0.0
H849 H 0.11934 0.48528 0.70926 0.0
H850 H 0.1381 0.41365 0.63765 0.0
H851 H 0.17782 0.43402 0.63126 0.0
H852 H 0.13893 0.43406 0.61377 0.0
H853 H 0.14489 0.44222 0.73593 0.0
H854 H 0.14742 0.47119 0.74154 0.0
H855 H 0.18441 0.46272 0.72945 0.0
C856 C 0.27326 0.73689 0.28493 0.0
C857 C 0.26595 0.75657 0.27822 0.0
C858 C 0.24656 0.71741 0.28809 0.0
C859 C 0.21168 0.71756 0.28433 0.0
C860 C 0.20417 0.7371 0.27646 0.0
C861 C 0.23142 0.75641 0.27353 0.0
C862 C 0.25565 0.69689 0.29646 0.0
C863 C 0.1673 0.73781 0.27205 0.0
C864 C 0.14628 0.66094 0.27761 0.0
C865 C 0.13421 0.65791 0.30333 0.0
C866 C 0.17058 0.68064 0.27085 0.0
C867 C 0.18318 0.69764 0.29031 0.0
C868 C 0.1702 0.69498 0.31608 0.0
C869 C 0.14583 0.67518 0.32226 0.0
C870 C 0.18371 0.68292 0.24313 0.0
C871 C 0.18293 0.71276 0.33738 0.0
H872 H 0.29985 0.73681 0.28848 0.0
H873 H 0.22556 0.77152 0.26823 0.0
H874 H 0.24493 0.69259 0.31617 0.0
H875 H 0.2438 0.68259 0.28287 0.0
H876 H 0.28411 0.69914 0.29713 0.0
H877 H 0.166 0.75365 0.26383 0.0
H878 H 0.1536 0.72388 0.25856 0.0
H879 H 0.15311 0.73581 0.29085 0.0
H880 H 0.13766 0.6476 0.26293 0.0
H881 H 0.13612 0.67309 0.34205 0.0
H882 H 0.21145 0.68308 0.24273 0.0
H883 H 0.18196 0.69886 0.23553 0.0
H884 H 0.16898 0.66913 0.22982 0.0
H885 H 0.211 0.71507 0.34095 0.0
H886 H 0.16889 0.70861 0.35605 0.0
H887 H 0.1798 0.72883 0.33121 0.0
C888 C 0.71749 0.80389 0.59534 0.0
C889 C 0.73196 0.79986 0.61881 0.0
C890 C 0.72385 0.82551 0.58661 0.0
C891 C 0.74594 0.8434 0.60139 0.0
C892 C 0.76094 0.83936 0.62498 0.0
C893 C 0.75351 0.81762 0.63352 0.0
C894 C 0.70685 0.82922 0.56162 0.0
C895 C 0.78529 0.85792 0.64093 0.0
C896 C 0.78766 0.89528 0.56487 0.0
C897 C 0.76736 0.90941 0.57283 0.0
C898 C 0.78143 0.87395 0.57444 0.0
C899 C 0.75371 0.86631 0.59195 0.0
C900 C 0.7331 0.8804 0.60009 0.0
C901 C 0.7404 0.90185 0.59067 0.0
C902 C 0.80431 0.8595 0.56558 0.0
C903 C 0.70303 0.87273 0.61849 0.0
H904 H 0.70078 0.79013 0.58399 0.0
H905 H 0.76537 0.81443 0.65136 0.0
H906 H 0.69154 0.84131 0.56543 0.0
H907 H 0.72696 0.83639 0.54708 0.0
H908 H 0.68942 0.81363 0.55293 0.0
H909 H 0.79471 0.85199 0.65884 0.0
H910 H 0.80802 0.866 0.62894 0.0
H911 H 0.77211 0.87078 0.64677 0.0
H912 H 0.80811 0.9007 0.55074 0.0
H913 H 0.72491 0.9127 0.59734 0.0
H914 H 0.78868 0.84459 0.55442 0.0
H915 H 0.8154 0.85366 0.58278 0.0
H916 H 0.82593 0.86835 0.55303 0.0
H917 H 0.68419 0.85768 0.6099 0.0
H918 H 0.68928 0.88564 0.62273 0.0
H919 H 0.71234 0.86812 0.63721 0.0
C920 C 0.67241 0.24477 0.21381 0.0
C921 C 0.66513 0.255 0.23726 0.0
C922 C 0.65453 0.24588 0.19063 0.0
C923 C 0.62907 0.25769 0.19089 0.0
C924 C 0.62043 0.2671 0.21474 0.0
C925 C 0.63842 0.26553 0.23766 0.0
C926 C 0.66404 0.23531 0.16565 0.0
C927 C 0.59353 0.27991 0.21582 0.0
C928 C 0.61465 0.28591 0.12969 0.0
C929 C 0.58261 0.27228 0.1206 0.0
C930 C 0.63026 0.28109 0.15227 0.0
C931 C 0.6137 0.26199 0.16598 0.0
C932 C 0.58194 0.24774 0.15648 0.0
C933 C 0.56667 0.25311 0.13397 0.0
C934 C 0.66413 0.29677 0.16179 0.0
C935 C 0.5637 0.22711 0.17045 0.0
H936 H 0.69281 0.23645 0.21336 0.0
H937 H 0.63251 0.27344 0.25568 0.0
H938 H 0.64036 0.22518 0.15532 0.0
H939 H 0.67751 0.24843 0.1524 0.0
H940 H 0.68135 0.2246 0.16924 0.0
H941 H 0.58792 0.28473 0.23617 0.0
H942 H 0.60287 0.29521 0.20475 0.0
H943 H 0.569 0.26995 0.20647 0.0
H944 H 0.62753 0.30049 0.11919 0.0
H945 H 0.54176 0.24259 0.12726 0.0
H946 H 0.68411 0.28767 0.16346 0.0
H947 H 0.66066 0.30381 0.18156 0.0
H948 H 0.67398 0.31066 0.14859 0.0
H949 H 0.58177 0.21686 0.17361 0.0
H950 H 0.54067 0.21686 0.15942 0.0
H951 H 0.55512 0.23182 0.18997 0.0
C952 C 0.31573 0.31073 0.64316 0.0
C953 C 0.34751 0.32331 0.65392 0.0
C954 C 0.31301 0.29043 0.62947 0.0
C955 C 0.3428 0.28259 0.62641 0.0
C956 C 0.3752 0.29564 0.6363 0.0
C957 C 0.37715 0.31582 0.64994 0.0
C958 C 0.27803 0.27697 0.61915 0.0
C959 C 0.40761 0.28791 0.63326 0.0
C960 C 0.33186 0.22063 0.6185 0.0
C961 C 0.33717 0.2179 0.59162 0.0
C962 C 0.33308 0.24155 0.62998 0.0
C963 C 0.33985 0.26021 0.61419 0.0
C964 C 0.34482 0.25753 0.58699 0.0
C965 C 0.34338 0.2364 0.57602 0.0
C966 C 0.32769 0.24375 0.65908 0.0
C967 C 0.35202 0.27703 0.56954 0.0
H968 H 0.29269 0.3164 0.64612 0.0
H969 H 0.40185 0.32548 0.65806 0.0
H970 H 0.27982 0.27231 0.59815 0.0
H971 H 0.26945 0.26136 0.62971 0.0
H972 H 0.25794 0.28608 0.62151 0.0
H973 H 0.43113 0.30063 0.64064 0.0
H974 H 0.40472 0.27263 0.64415 0.0
H975 H 0.41156 0.28372 0.6124 0.0
H976 H 0.32744 0.20646 0.63071 0.0
H977 H 0.34695 0.23433 0.55516 0.0
H978 H 0.30621 0.25143 0.66305 0.0
H979 H 0.35142 0.25483 0.66842 0.0
H980 H 0.32154 0.22751 0.66844 0.0
H981 H 0.33094 0.28534 0.57134 0.0
H982 H 0.35438 0.27205 0.54867 0.0
H983 H 0.37645 0.28942 0.57578 0.0
C984 C 0.39552 0.85284 0.25526 0.0
C985 C 0.4156 0.84987 0.27636 0.0
C986 C 0.40693 0.85138 0.22944 0.0
C987 C 0.43892 0.84645 0.22466 0.0
C988 C 0.45927 0.8434 0.24595 0.0
C989 C 0.44755 0.84543 0.27159 0.0
C990 C 0.38491 0.85528 0.20731 0.0
C991 C 0.49319 0.8377 0.24162 0.0
C992 C 0.45253 0.82232 0.15734 0.0
C993 C 0.47473 0.84071 0.14566 0.0
C994 C 0.44094 0.82391 0.18309 0.0
C995 C 0.45111 0.8445 0.19739 0.0
C996 C 0.47302 0.86321 0.18566 0.0
C997 C 0.48488 0.86103 0.1601 0.0
C998 C 0.41795 0.8035 0.19506 0.0
C999 C 0.48401 0.88554 0.20015 0.0
H1000 H 0.37115 0.85674 0.25897 0.0
H1001 H 0.46304 0.84307 0.28793 0.0
H1002 H 0.4001 0.8691 0.19566 0.0
H1003 H 0.37728 0.8403 0.19399 0.0
H1004 H 0.36102 0.85935 0.21438 0.0
H1005 H 0.50561 0.83548 0.26026 0.0
H1006 H 0.48879 0.82217 0.22929 0.0
H1007 H 0.51147 0.85099 0.23099 0.0
H1008 H 0.44394 0.80664 0.14631 0.0
H1009 H 0.50252 0.87527 0.15158 0.0
H1010 H 0.39263 0.80635 0.2005 0.0
H1011 H 0.43006 0.80008 0.21326 0.0
H1012 H 0.41314 0.7886 0.18158 0.0
H1013 H 0.46081 0.8906 0.20686 0.0
H1014 H 0.49997 0.89865 0.18788 0.0
H1015 H 0.49926 0.88446 0.2178 0.0
C1016 C 0.77277 0.1987 0.39172 0.0
C1017 C 0.77933 0.19976 0.36481 0.0
C1018 C 0.77768 0.18112 0.40585 0.0
C1019 C 0.78885 0.16401 0.39266 0.0
C1020 C 0.79585 0.1651 0.36554 0.0
C1021 C 0.79128 0.18307 0.35198 0.0
C1022 C 0.77048 0.18072 0.43483 0.0
C1023 C 0.80731 0.14701 0.35072 0.0
C1024 C 0.82584 0.1258 0.43219 0.0
C1025 C 0.79678 0.10749 0.43469 0.0
C1026 C 0.82365 0.14437 0.41867 0.0
C1027 C 0.79178 0.14451 0.40702 0.0
C1028 C 0.76246 0.12603 0.40924 0.0
C1029 C 0.76523 0.10788 0.42323 0.0
C1030 C 0.85538 0.16387 0.41694 0.0
C1031 C 0.72808 0.12547 0.39692 0.0
H1032 H 0.76378 0.21163 0.40179 0.0
H1033 H 0.79628 0.18375 0.33117 0.0
H1034 H 0.74863 0.16609 0.43902 0.0
H1035 H 0.79346 0.1791 0.44569 0.0
H1036 H 0.76382 0.1959 0.44242 0.0
H1037 H 0.81261 0.15064 0.32983 0.0
H1038 H 0.83109 0.14474 0.35977 0.0
H1039 H 0.78688 0.13105 0.35178 0.0
H1040 H 0.85045 0.12558 0.44064 0.0
H1041 H 0.74241 0.09407 0.42547 0.0
H1042 H 0.84971 0.1791 0.42535 0.0
H1043 H 0.86245 0.16682 0.39618 0.0
H1044 H 0.87806 0.16132 0.42743 0.0
H1045 H 0.71838 0.13916 0.40551 0.0
H1046 H 0.7081 0.10953 0.39969 0.0
H1047 H 0.73138 0.12802 0.37565 0.0
C1048 C 0.31645 0.3531 0.80916 0.0
C1049 C 0.33533 0.36837 0.79162 0.0
C1050 C 0.33145 0.34941 0.83262 0.0
C1051 C 0.36609 0.36137 0.83876 0.0
C1052 C 0.38444 0.3779 0.82204 0.0
C1053 C 0.36886 0.38119 0.79864 0.0
C1054 C 0.31096 0.33171 0.85 0.0
C1055 C 0.42128 0.39118 0.82806 0.0
C1056 C 0.40002 0.35802 0.90722 0.0
C1057 C 0.41716 0.34139 0.9034 0.0
C1058 C 0.38358 0.36494 0.88634 0.0
C1059 C 0.38421 0.35493 0.86109 0.0
C1060 C 0.40176 0.3383 0.85708 0.0
C1061 C 0.41807 0.3318 0.87825 0.0
C1062 C 0.36521 0.38275 0.89132 0.0
C1063 C 0.40311 0.32725 0.83043 0.0
H1064 H 0.29047 0.3432 0.80402 0.0
H1065 H 0.38359 0.39315 0.78533 0.0
H1066 H 0.32235 0.31744 0.84921 0.0
H1067 H 0.31231 0.3381 0.87062 0.0
H1068 H 0.28327 0.32562 0.84398 0.0
H1069 H 0.43039 0.40517 0.81488 0.0
H1070 H 0.42363 0.39789 0.84858 0.0
H1071 H 0.43875 0.38022 0.82583 0.0
H1072 H 0.39892 0.36536 0.92666 0.0
H1073 H 0.43178 0.31923 0.87506 0.0
H1074 H 0.33713 0.37593 0.88695 0.0
H1075 H 0.37537 0.39658 0.87813 0.0
H1076 H 0.36828 0.38949 0.91186 0.0
H1077 H 0.37641 0.31894 0.82335 0.0
H1078 H 0.41804 0.31472 0.83058 0.0
H1079 H 0.41521 0.33988 0.8162 0.0
C1080 C 0.39081 0.9196 0.4278 0.0
C1081 C 0.38481 0.91567 0.40088 0.0
C1082 C 0.38476 0.93835 0.44079 0.0
C1083 C 0.37371 0.95389 0.42628 0.0
C1084 C 0.36851 0.95026 0.39894 0.0
C1085 C 0.37349 0.93094 0.38663 0.0
C1086 C 0.38949 0.94127 0.47009 0.0
C1087 C 0.35791 0.96683 0.38267 0.0
C1088 C 0.32805 0.99293 0.46038 0.0
C1089 C 0.35551 0.01216 0.46507 0.0
C1090 C 0.33373 0.97373 0.44828 0.0
C1091 C 0.36745 0.97393 0.43973 0.0
C1092 C 0.3952 0.99328 0.44399 0.0
C1093 C 0.38904 0.01196 0.45704 0.0
C1094 C 0.30363 0.95319 0.44469 0.0
C1095 C 0.4314 0.99433 0.4346 0.0
H1096 H 0.39921 0.90764 0.43884 0.0
H1097 H 0.36907 0.92792 0.36576 0.0
H1098 H 0.40951 0.95696 0.47522 0.0
H1099 H 0.36492 0.94246 0.47936 0.0
H1100 H 0.39732 0.92736 0.47855 0.0
H1101 H 0.35656 0.96203 0.36148 0.0
H1102 H 0.33214 0.96841 0.38897 0.0
H1103 H 0.37667 0.98342 0.38564 0.0
H1104 H 0.3019 0.99285 0.46592 0.0
H1105 H 0.41075 0.02638 0.46105 0.0
H1106 H 0.31003 0.9389 0.45341 0.0
H1107 H 0.2986 0.94892 0.42357 0.0
H1108 H 0.27946 0.95533 0.45381 0.0
H1109 H 0.44145 0.98202 0.4446 0.0
H1110 H 0.44974 0.01101 0.43824 0.0
H1111 H 0.43089 0.99 0.41333 0.0
C1112 C 0.6369 0.78903 0.76888 0.0
C1113 C 0.666 0.80327 0.75746 0.0
C1114 C 0.62608 0.79375 0.79405 0.0
C1115 C 0.64474 0.81322 0.80816 0.0
C1116 C 0.67375 0.8279 0.79659 0.0
C1117 C 0.68408 0.82273 0.77137 0.0
C1118 C 0.59502 0.77767 0.80572 0.0
C1119 C 0.69416 0.84887 0.81102 0.0
C1120 C 0.59826 0.83245 0.86564 0.0
C1121 C 0.61141 0.82362 0.8867 0.0
C1122 C 0.60949 0.82968 0.84001 0.0
C1123 C 0.63441 0.81775 0.83534 0.0
C1124 C 0.6483 0.8092 0.85657 0.0
C1125 C 0.63667 0.81227 0.88199 0.0
C1126 C 0.59407 0.83902 0.81786 0.0
C1127 C 0.67495 0.79642 0.85239 0.0
H1128 H 0.62272 0.77397 0.75829 0.0
H1129 H 0.70653 0.83386 0.76267 0.0
H1130 H 0.60299 0.77091 0.82359 0.0
H1131 H 0.57531 0.78635 0.81164 0.0
H1132 H 0.58275 0.76359 0.7919 0.0
H1133 H 0.71525 0.85896 0.79893 0.0
H1134 H 0.67669 0.85913 0.81721 0.0
H1135 H 0.7058 0.84465 0.829 0.0
H1136 H 0.57846 0.84103 0.8691 0.0
H1137 H 0.64734 0.80572 0.89822 0.0
H1138 H 0.57915 0.82529 0.80462 0.0
H1139 H 0.61497 0.84963 0.80613 0.0
H1140 H 0.5765 0.84898 0.82492 0.0
H1141 H 0.66369 0.78117 0.84008 0.0
H1142 H 0.68412 0.79159 0.87107 0.0
H1143 H 0.69764 0.80651 0.84181 0.0
loop_
_geom_bond_atom_site_label_1
_geom_bond_atom_site_label_2
_geom_bond_distance
_geom_bond_site_symmetry_2
_ccdc_geom_bond_type
O0 Cd1 2.300 . S
O0 C7 1.275 . S
Cd1 O0 2.300 . S
Cd1 O9 2.381 . S
Cd1 O10 2.378 . S
O2 Cd3 2.385 . S
O2 C7 1.255 . S
Cd3 O2 2.385 . S
Cd3 O4 2.317 . S
O4 Cd3 2.317 . S
O4 C5 1.232 . S
C5 O4 1.232 . S
C5 O6 1.218 . S
O6 C5 1.218 . S
C7 O0 1.275 . S
C7 O2 1.255 . S
C8 O9 1.258 . S
C8 O10 1.256 . S
O9 Cd1 2.381 . S
O9 C8 1.258 . S
O10 Cd1 2.378 . S
O10 C8 1.256 . S
O11 Cd12 2.300 . S
O11 C18 1.275 . S
Cd12 O11 2.300 . S
Cd12 O20 2.381 . S
Cd12 O21 2.378 . S
O13 Cd14 2.385 . S
O13 C18 1.255 . S
Cd14 O13 2.385 . S
Cd14 O15 2.317 . S
O15 Cd14 2.317 . S
O15 C16 1.232 . S
C16 O15 1.232 . S
C16 O17 1.218 . S
O17 C16 1.218 . S
C18 O11 1.275 . S
C18 O13 1.255 . S
C19 O20 1.258 . S
C19 O21 1.256 . S
O20 Cd12 2.381 . S
O20 C19 1.258 . S
O21 Cd12 2.378 . S
O21 C19 1.256 . S
O22 Cd23 2.300 . S
O22 C29 1.275 . S
Cd23 O22 2.300 . S
Cd23 O31 2.381 . S
Cd23 O32 2.378 . S
O24 Cd25 2.385 . S
O24 C29 1.255 . S
Cd25 O24 2.385 . S
Cd25 O26 2.317 . S
O26 Cd25 2.317 . S
O26 C27 1.232 . S
C27 O26 1.232 . S
C27 O28 1.218 . S
O28 C27 1.218 . S
C29 O22 1.275 . S
C29 O24 1.255 . S
C30 O31 1.258 . S
C30 O32 1.256 . S
O31 Cd23 2.381 . S
O31 C30 1.258 . S
O32 Cd23 2.378 . S
O32 C30 1.256 . S
O33 Cd34 2.300 . S
O33 C40 1.275 . S
Cd34 O33 2.300 . S
Cd34 O42 2.381 . S
Cd34 O43 2.378 . S
O35 Cd36 2.385 . S
O35 C40 1.255 . S
Cd36 O35 2.385 . S
Cd36 O37 2.317 . S
O37 Cd36 2.317 . S
O37 C38 1.232 . S
C38 O37 1.232 . S
C38 O39 1.218 . S
O39 C38 1.218 . S
C40 O33 1.275 . S
C40 O35 1.255 . S
C41 O42 1.258 . S
C41 O43 1.256 . S
O42 Cd34 2.381 . S
O42 C41 1.258 . S
O43 Cd34 2.378 . S
O43 C41 1.256 . S
O44 Cd45 2.300 . S
O44 C51 1.275 . S
Cd45 O44 2.300 . S
Cd45 O53 2.381 . S
Cd45 O54 2.378 . S
O46 Cd47 2.385 . S
O46 C51 1.255 . S
Cd47 O46 2.385 . S
Cd47 O48 2.317 . S
O48 Cd47 2.317 . S
O48 C49 1.232 . S
C49 O48 1.232 . S
C49 O50 1.218 . S
O50 C49 1.218 . S
C51 O44 1.275 . S
C51 O46 1.255 . S
C52 O53 1.258 . S
C52 O54 1.256 . S
O53 Cd45 2.381 . S
O53 C52 1.258 . S
O54 Cd45 2.378 . S
O54 C52 1.256 . S
O55 Cd56 2.300 . S
O55 C62 1.275 . S
Cd56 O55 2.300 . S
Cd56 O64 2.381 . S
Cd56 O65 2.378 . S
O57 Cd58 2.385 . S
O57 C62 1.255 . S
Cd58 O57 2.385 . S
Cd58 O59 2.317 . S
O59 Cd58 2.317 . S
O59 C60 1.232 . S
C60 O59 1.232 . S
C60 O61 1.218 . S
O61 C60 1.218 . S
C62 O55 1.275 . S
C62 O57 1.255 . S
C63 O64 1.258 . S
C63 O65 1.256 . S
O64 Cd56 2.381 . S
O64 C63 1.258 . S
O65 Cd56 2.378 . S
O65 C63 1.256 . S
O66 Cd67 2.300 . S
O66 C73 1.275 . S
Cd67 O66 2.300 . S
Cd67 O75 2.381 . S
Cd67 O76 2.378 . S
O68 Cd69 2.385 . S
O68 C73 1.255 . S
Cd69 O68 2.385 . S
Cd69 O70 2.317 . S
O70 Cd69 2.317 . S
O70 C71 1.232 . S
C71 O70 1.232 . S
C71 O72 1.218 . S
O72 C71 1.218 . S
C73 O66 1.275 . S
C73 O68 1.255 . S
C74 O75 1.258 . S
C74 O76 1.256 . S
O75 Cd67 2.381 . S
O75 C74 1.258 . S
O76 Cd67 2.378 . S
O76 C74 1.256 . S
O77 Cd78 2.300 . S
O77 C84 1.275 . S
Cd78 O77 2.300 . S
Cd78 O86 2.381 . S
Cd78 O87 2.378 . S
O79 Cd80 2.385 . S
O79 C84 1.255 . S
Cd80 O79 2.385 . S
Cd80 O81 2.317 . S
O81 Cd80 2.317 . S
O81 C82 1.232 . S
C82 O81 1.232 . S
C82 O83 1.218 . S
O83 C82 1.218 . S
C84 O77 1.275 . S
C84 O79 1.255 . S
C85 O86 1.258 . S
C85 O87 1.256 . S
O86 Cd78 2.381 . S
O86 C85 1.258 . S
O87 Cd78 2.378 . S
O87 C85 1.256 . S
H88 C107 0.949 . S
H89 C108 0.950 . S
H90 C110 0.950 . S
H91 C111 0.950 . S
H92 C113 0.950 1_655 S
H93 C116 0.950 . S
H94 C117 0.950 . S
H95 C119 0.951 . S
H96 C120 0.949 . S
H97 C122 0.949 . S
H98 C123 0.950 . S
H99 C125 0.950 . S
H100 C126 0.950 . S
H101 C128 0.950 . S
H102 C131 0.950 . S
H103 C132 0.950 . S
H104 C134 0.951 . S
H105 C135 0.949 . S
C106 C107 1.376 1_455 S
C106 C111 1.386 . S
C106 C112 1.483 . S
C107 H88 0.949 . S
C107 C106 1.376 1_655 S
C107 C108 1.397 . S
C108 H89 0.950 . S
C108 C107 1.397 . S
C108 C109 1.391 . S
C109 C108 1.391 . S
C109 C110 1.405 . S
C110 H90 0.950 . S
C110 C109 1.405 . S
C110 C111 1.367 1_655 S
C111 H91 0.950 . S
C111 C106 1.386 . S
C111 C110 1.367 1_455 S
C112 C106 1.483 . S
C112 C113 1.382 . S
C112 C114 1.403 . S
C113 H92 0.950 1_455 S
C113 C112 1.382 . S
C113 C129 1.411 . S
C114 C112 1.403 . S
C114 C115 1.489 . S
C114 C128 1.411 . S
C115 C114 1.489 . S
C115 C116 1.383 . S
C115 C120 1.382 . S
C116 H93 0.950 . S
C116 C115 1.383 . S
C116 C117 1.395 . S
C117 H94 0.950 . S
C117 C116 1.395 . S
C117 C118 1.288 . S
C118 C117 1.288 . S
C118 C119 1.392 . S
C119 H95 0.951 . S
C119 C118 1.392 . S
C119 C120 1.392 . S
C120 H96 0.949 . S
C120 C115 1.382 . S
C120 C119 1.392 . S
C121 C122 1.376 . S
C121 C126 1.386 . S
C121 C127 1.483 . S
C122 H97 0.949 . S
C122 C121 1.376 . S
C122 C123 1.397 . S
C123 H98 0.950 . S
C123 C122 1.397 . S
C123 C124 1.391 . S
C124 C123 1.391 . S
C124 C125 1.405 . S
C125 H99 0.950 . S
C125 C124 1.405 . S
C125 C126 1.367 . S
C126 H100 0.950 . S
C126 C121 1.386 . S
C126 C125 1.367 . S
C127 C121 1.483 . S
C127 C128 1.382 . S
C127 C129 1.403 . S
C128 H101 0.950 . S
C128 C114 1.411 . S
C128 C127 1.382 . S
C129 C113 1.411 . S
C129 C127 1.403 . S
C129 C130 1.489 . S
C130 C129 1.489 . S
C130 C131 1.383 . S
C130 C135 1.382 1_455 S
C131 H102 0.950 . S
C131 C130 1.383 . S
C131 C132 1.395 1_455 S
C132 H103 0.950 . S
C132 C131 1.395 1_655 S
C132 C133 1.288 . S
C133 C132 1.288 . S
C133 C134 1.392 . S
C134 H104 0.951 . S
C134 C133 1.392 . S
C134 C135 1.392 . S
C135 H105 0.949 . S
C135 C130 1.382 1_655 S
C135 C134 1.392 . S
H136 C155 0.949 . S
H137 C156 0.950 . S
H138 C158 0.950 . S
H139 C159 0.950 . S
H140 C161 0.950 . S
H141 C164 0.950 . S
H142 C165 0.950 . S
H143 C167 0.951 . S
H144 C168 0.949 . S
H145 C170 0.949 . S
H146 C171 0.950 . S
H147 C173 0.950 . S
H148 C174 0.950 . S
H149 C176 0.950 . S
H150 C179 0.950 . S
H151 C180 0.950 . S
H152 C182 0.951 . S
H153 C183 0.949 . S
C154 C155 1.376 . S
C154 C159 1.386 . S
C154 C160 1.483 . S
C155 H136 0.949 . S
C155 C154 1.376 . S
C155 C156 1.397 . S
C156 H137 0.950 . S
C156 C155 1.397 . S
C156 C157 1.391 . S
C157 C156 1.391 . S
C157 C158 1.405 . S
C158 H138 0.950 . S
C158 C157 1.405 . S
C158 C159 1.367 . S
C159 H139 0.950 . S
C159 C154 1.386 . S
C159 C158 1.367 . S
C160 C154 1.483 . S
C160 C161 1.382 . S
C160 C162 1.403 1_455 S
C161 H140 0.950 . S
C161 C160 1.382 . S
C161 C177 1.411 . S
C162 C160 1.403 1_655 S
C162 C163 1.489 . S
C162 C176 1.411 . S
C163 C162 1.489 . S
C163 C164 1.383 . S
C163 C168 1.382 . S
C164 H141 0.950 . S
C164 C163 1.383 . S
C164 C165 1.395 . S
C165 H142 0.950 . S
C165 C164 1.395 . S
C165 C166 1.288 . S
C166 C165 1.288 . S
C166 C167 1.392 . S
C167 H143 0.951 . S
C167 C166 1.392 . S
C167 C168 1.392 . S
C168 H144 0.949 . S
C168 C163 1.382 . S
C168 C167 1.392 . S
C169 C170 1.376 . S
C169 C174 1.386 . S
C169 C175 1.483 . S
C170 H145 0.949 . S
C170 C169 1.376 . S
C170 C171 1.397 . S
C171 H146 0.950 . S
C171 C170 1.397 . S
C171 C172 1.391 . S
C172 C171 1.391 . S
C172 C173 1.405 . S
C173 H147 0.950 . S
C173 C172 1.405 . S
C173 C174 1.367 . S
C174 H148 0.950 . S
C174 C169 1.386 . S
C174 C173 1.367 . S
C175 C169 1.483 . S
C175 C176 1.382 . S
C175 C177 1.403 1_655 S
C176 H149 0.950 . S
C176 C162 1.411 . S
C176 C175 1.382 . S
C177 C161 1.411 . S
C177 C175 1.403 1_455 S
C177 C178 1.489 . S
C178 C177 1.489 . S
C178 C179 1.383 . S
C178 C183 1.382 . S
C179 H150 0.950 . S
C179 C178 1.383 . S
C179 C180 1.395 . S
C180 H151 0.950 . S
C180 C179 1.395 . S
C180 C181 1.288 . S
C181 C180 1.288 . S
C181 C182 1.392 . S
C182 H152 0.951 . S
C182 C181 1.392 . S
C182 C183 1.392 . S
C183 H153 0.949 . S
C183 C178 1.382 . S
C183 C182 1.392 . S
H184 C203 0.949 . S
H185 C204 0.950 . S
H186 C206 0.950 . S
H187 C207 0.950 . S
H188 C209 0.950 . S
H189 C212 0.950 . S
H190 C213 0.950 . S
H191 C215 0.951 . S
H192 C216 0.949 . S
H193 C218 0.949 . S
H194 C219 0.950 . S
H195 C221 0.950 . S
H196 C222 0.950 . S
H197 C224 0.950 . S
H198 C227 0.950 . S
H199 C228 0.950 . S
H200 C230 0.951 . S
H201 C231 0.949 . S
C202 C203 1.376 . S
C202 C207 1.386 . S
C202 C208 1.483 . S
C203 H184 0.949 . S
C203 C202 1.376 . S
C203 C204 1.397 . S
C204 H185 0.950 . S
C204 C203 1.397 . S
C204 C205 1.391 . S
C205 C204 1.391 . S
C205 C206 1.405 . S
C206 H186 0.950 . S
C206 C205 1.405 . S
C206 C207 1.367 . S
C207 H187 0.950 . S
C207 C202 1.386 . S
C207 C206 1.367 . S
C208 C202 1.483 . S
C208 C209 1.382 . S
C208 C210 1.403 . S
C209 H188 0.950 . S
C209 C208 1.382 . S
C209 C225 1.411 . S
C210 C208 1.403 . S
C210 C211 1.489 . S
C210 C224 1.411 . S
C211 C210 1.489 . S
C211 C212 1.383 . S
C211 C216 1.382 . S
C212 H189 0.950 . S
C212 C211 1.383 . S
C212 C213 1.395 . S
C213 H190 0.950 . S
C213 C212 1.395 . S
C213 C214 1.288 . S
C214 C213 1.288 . S
C214 C215 1.392 . S
C215 H191 0.951 . S
C215 C214 1.392 . S
C215 C216 1.392 . S
C216 H192 0.949 . S
C216 C211 1.382 . S
C216 C215 1.392 . S
C217 C218 1.376 . S
C217 C222 1.386 . S
C217 C223 1.483 . S
C218 H193 0.949 . S
C218 C217 1.376 . S
C218 C219 1.397 . S
C219 H194 0.950 . S
C219 C218 1.397 . S
C219 C220 1.391 . S
C220 C219 1.391 . S
C220 C221 1.405 . S
C221 H195 0.950 . S
C221 C220 1.405 . S
C221 C222 1.367 . S
C222 H196 0.950 . S
C222 C217 1.386 . S
C222 C221 1.367 . S
C223 C217 1.483 . S
C223 C224 1.382 . S
C223 C225 1.403 . S
C224 H197 0.950 . S
C224 C210 1.411 . S
C224 C223 1.382 . S
C225 C209 1.411 . S
C225 C223 1.403 . S
C225 C226 1.489 . S
C226 C225 1.489 . S
C226 C227 1.383 . S
C226 C231 1.382 . S
C227 H198 0.950 . S
C227 C226 1.383 . S
C227 C228 1.395 . S
C228 H199 0.950 . S
C228 C227 1.395 . S
C228 C229 1.288 . S
C229 C228 1.288 . S
C229 C230 1.392 . S
C230 H200 0.951 . S
C230 C229 1.392 . S
C230 C231 1.392 . S
C231 H201 0.949 . S
C231 C226 1.382 . S
C231 C230 1.392 . S
H232 C251 0.949 . S
H233 C252 0.950 . S
H234 C254 0.950 . S
H235 C255 0.950 . S
H236 C257 0.950 . S
H237 C260 0.950 . S
H238 C261 0.950 . S
H239 C263 0.951 . S
H240 C264 0.949 . S
H241 C266 0.949 . S
H242 C267 0.950 . S
H243 C269 0.950 . S
H244 C270 0.950 . S
H245 C272 0.950 . S
H246 C275 0.950 . S
H247 C276 0.950 . S
H248 C278 0.951 . S
H249 C279 0.949 . S
C250 C251 1.376 . S
C250 C255 1.386 . S
C250 C256 1.483 . S
C251 H232 0.949 . S
C251 C250 1.376 . S
C251 C252 1.397 . S
C252 H233 0.950 . S
C252 C251 1.397 . S
C252 C253 1.391 . S
C253 C252 1.391 . S
C253 C254 1.405 . S
C254 H234 0.950 . S
C254 C253 1.405 . S
C254 C255 1.367 . S
C255 H235 0.950 . S
C255 C250 1.386 . S
C255 C254 1.367 . S
C256 C250 1.483 . S
C256 C257 1.382 1_556 S
C256 C258 1.403 . S
C257 H236 0.950 . S
C257 C256 1.382 1_554 S
C257 C273 1.411 . S
C258 C256 1.403 . S
C258 C259 1.489 . S
C258 C272 1.411 1_556 S
C259 C258 1.489 . S
C259 C260 1.383 . S
C259 C264 1.382 . S
C260 H237 0.950 . S
C260 C259 1.383 . S
C260 C261 1.395 . S
C261 H238 0.950 . S
C261 C260 1.395 . S
C261 C262 1.288 . S
C262 C261 1.288 . S
C262 C263 1.392 . S
C263 H239 0.951 . S
C263 C262 1.392 . S
C263 C264 1.392 . S
C264 H240 0.949 . S
C264 C259 1.382 . S
C264 C263 1.392 . S
C265 C266 1.376 . S
C265 C270 1.386 . S
C265 C271 1.483 . S
C266 H241 0.949 . S
C266 C265 1.376 . S
C266 C267 1.397 . S
C267 H242 0.950 . S
C267 C266 1.397 . S
C267 C268 1.391 . S
C268 C267 1.391 . S
C268 C269 1.405 . S
C269 H243 0.950 . S
C269 C268 1.405 . S
C269 C270 1.367 . S
C270 H244 0.950 . S
C270 C265 1.386 . S
C270 C269 1.367 . S
C271 C265 1.483 . S
C271 C272 1.382 . S
C271 C273 1.403 . S
C272 H245 0.950 . S
C272 C258 1.411 1_554 S
C272 C271 1.382 . S
C273 C257 1.411 . S
C273 C271 1.403 . S
C273 C274 1.489 . S
C274 C273 1.489 . S
C274 C275 1.383 . S
C274 C279 1.382 . S
C275 H246 0.950 . S
C275 C274 1.383 . S
C275 C276 1.395 . S
C276 H247 0.950 . S
C276 C275 1.395 . S
C276 C277 1.288 . S
C277 C276 1.288 . S
C277 C278 1.392 . S
C278 H248 0.951 . S
C278 C277 1.392 . S
C278 C279 1.392 . S
C279 H249 0.949 . S
C279 C274 1.382 . S
C279 C278 1.392 . S
H280 C299 0.949 . S
H281 C300 0.950 . S
H282 C302 0.950 . S
H283 C303 0.950 . S
H284 C305 0.950 . S
H285 C308 0.950 . S
H286 C309 0.950 . S
H287 C311 0.951 . S
H288 C312 0.949 . S
H289 C314 0.949 . S
H290 C315 0.950 . S
H291 C317 0.950 . S
H292 C318 0.950 . S
H293 C320 0.950 . S
H294 C323 0.950 . S
H295 C324 0.950 . S
H296 C326 0.951 . S
H297 C327 0.949 . S
C298 C299 1.376 . S
C298 C303 1.386 . S
C298 C304 1.483 . S
C299 H280 0.949 . S
C299 C298 1.376 . S
C299 C300 1.397 . S
C300 H281 0.950 . S
C300 C299 1.397 . S
C300 C301 1.391 . S
C301 C300 1.391 . S
C301 C302 1.405 . S
C302 H282 0.950 . S
C302 C301 1.405 . S
C302 C303 1.367 . S
C303 H283 0.950 . S
C303 C298 1.386 . S
C303 C302 1.367 . S
C304 C298 1.483 . S
C304 C305 1.382 1_565 S
C304 C306 1.403 . S
C305 H284 0.950 . S
C305 C304 1.382 1_545 S
C305 C321 1.411 . S
C306 C304 1.403 . S
C306 C307 1.489 . S
C306 C320 1.411 1_565 S
C307 C306 1.489 . S
C307 C308 1.383 . S
C307 C312 1.382 . S
C308 H285 0.950 . S
C308 C307 1.383 . S
C308 C309 1.395 . S
C309 H286 0.950 . S
C309 C308 1.395 . S
C309 C310 1.288 . S
C310 C309 1.288 . S
C310 C311 1.392 . S
C311 H287 0.951 . S
C311 C310 1.392 . S
C311 C312 1.392 . S
C312 H288 0.949 . S
C312 C307 1.382 . S
C312 C311 1.392 . S
C313 C314 1.376 . S
C313 C318 1.386 . S
C313 C319 1.483 . S
C314 H289 0.949 . S
C314 C313 1.376 . S
C314 C315 1.397 . S
C315 H290 0.950 . S
C315 C314 1.397 . S
C315 C316 1.391 . S
C316 C315 1.391 . S
C316 C317 1.405 . S
C317 H291 0.950 . S
C317 C316 1.405 . S
C317 C318 1.367 . S
C318 H292 0.950 . S
C318 C313 1.386 . S
C318 C317 1.367 . S
C319 C313 1.483 . S
C319 C320 1.382 . S
C319 C321 1.403 . S
C320 H293 0.950 . S
C320 C306 1.411 1_545 S
C320 C319 1.382 . S
C321 C305 1.411 . S
C321 C319 1.403 . S
C321 C322 1.489 . S
C322 C321 1.489 . S
C322 C323 1.383 . S
C322 C327 1.382 . S
C323 H294 0.950 . S
C323 C322 1.383 . S
C323 C324 1.395 . S
C324 H295 0.950 . S
C324 C323 1.395 . S
C324 C325 1.288 . S
C325 C324 1.288 . S
C325 C326 1.392 . S
C326 H296 0.951 . S
C326 C325 1.392 . S
C326 C327 1.392 . S
C327 H297 0.949 . S
C327 C322 1.382 . S
C327 C326 1.392 . S
H328 C347 0.949 . S
H329 C348 0.950 . S
H330 C350 0.950 . S
H331 C351 0.950 . S
H332 C353 0.950 . S
H333 C356 0.950 . S
H334 C357 0.950 . S
H335 C359 0.951 . S
H336 C360 0.949 . S
H337 C362 0.949 . S
H338 C363 0.950 . S
H339 C365 0.950 . S
H340 C366 0.950 . S
H341 C368 0.950 . S
H342 C371 0.950 . S
H343 C372 0.950 . S
H344 C374 0.951 . S
H345 C375 0.949 . S
C346 C347 1.376 . S
C346 C351 1.386 . S
C346 C352 1.483 . S
C347 H328 0.949 . S
C347 C346 1.376 . S
C347 C348 1.397 . S
C348 H329 0.950 . S
C348 C347 1.397 . S
C348 C349 1.391 . S
C349 C348 1.391 . S
C349 C350 1.405 . S
C350 H330 0.950 . S
C350 C349 1.405 . S
C350 C351 1.367 . S
C351 H331 0.950 . S
C351 C346 1.386 . S
C351 C350 1.367 . S
C352 C346 1.483 . S
C352 C353 1.382 1_556 S
C352 C354 1.403 . S
C353 H332 0.950 . S
C353 C352 1.382 1_554 S
C353 C369 1.411 . S
C354 C352 1.403 . S
C354 C355 1.489 . S
C354 C368 1.411 1_556 S
C355 C354 1.489 . S
C355 C356 1.383 . S
C355 C360 1.382 . S
C356 H333 0.950 . S
C356 C355 1.383 . S
C356 C357 1.395 . S
C357 H334 0.950 . S
C357 C356 1.395 . S
C357 C358 1.288 . S
C358 C357 1.288 . S
C358 C359 1.392 . S
C359 H335 0.951 . S
C359 C358 1.392 . S
C359 C360 1.392 . S
C360 H336 0.949 . S
C360 C355 1.382 . S
C360 C359 1.392 . S
C361 C362 1.376 . S
C361 C366 1.386 . S
C361 C367 1.483 . S
C362 H337 0.949 . S
C362 C361 1.376 . S
C362 C363 1.397 . S
C363 H338 0.950 . S
C363 C362 1.397 . S
C363 C364 1.391 . S
C364 C363 1.391 . S
C364 C365 1.405 . S
C365 H339 0.950 . S
C365 C364 1.405 . S
C365 C366 1.367 . S
C366 H340 0.950 . S
C366 C361 1.386 . S
C366 C365 1.367 . S
C367 C361 1.483 . S
C367 C368 1.382 . S
C367 C369 1.403 . S
C368 H341 0.950 . S
C368 C354 1.411 1_554 S
C368 C367 1.382 . S
C369 C353 1.411 . S
C369 C367 1.403 . S
C369 C370 1.489 . S
C370 C369 1.489 . S
C370 C371 1.383 . S
C370 C375 1.382 . S
C371 H342 0.950 . S
C371 C370 1.383 . S
C371 C372 1.395 . S
C372 H343 0.950 . S
C372 C371 1.395 . S
C372 C373 1.288 . S
C373 C372 1.288 . S
C373 C374 1.392 . S
C374 H344 0.951 . S
C374 C373 1.392 . S
C374 C375 1.392 . S
C375 H345 0.949 . S
C375 C370 1.382 . S
C375 C374 1.392 . S
C376 C377 1.391 . S
C376 C378 1.394 . S
C376 H392 0.931 . S
C377 C376 1.391 . S
C377 C381 1.376 . S
C378 C376 1.394 . S
C378 C379 1.369 . S
C378 C382 1.531 . S
C379 C378 1.369 . S
C379 C380 1.410 . S
C379 C387 1.503 . S
C380 C379 1.410 . S
C380 C381 1.392 . S
C380 C383 1.511 . S
C381 C377 1.376 . S
C381 C380 1.392 . S
C381 H393 0.929 . S
C382 C378 1.531 . S
C382 H394 0.960 . S
C382 H395 0.962 . S
C382 H396 0.960 . S
C383 C380 1.511 . S
C383 H397 0.961 . S
C383 H398 0.961 . S
C383 H399 0.961 . S
C384 C385 1.370 . S
C384 C386 1.363 . S
C384 H400 0.931 . S
C385 C384 1.370 . S
C385 C389 1.408 . S
C386 C384 1.363 . S
C386 C387 1.370 . S
C386 C390 1.524 . S
C387 C379 1.503 . S
C387 C386 1.370 . S
C387 C388 1.403 . S
C388 C387 1.403 . S
C388 C389 1.404 . S
C388 C391 1.539 . S
C389 C385 1.408 . S
C389 C388 1.404 . S
C389 H401 0.930 . S
C390 C386 1.524 . S
C390 H402 0.956 . S
C390 H403 0.961 . S
C390 H404 0.961 . S
C391 C388 1.539 . S
C391 H405 0.958 . S
C391 H406 0.961 . S
C391 H407 0.960 . S
H392 C376 0.931 . S
H393 C381 0.929 . S
H394 C382 0.960 . S
H395 C382 0.962 . S
H396 C382 0.960 . S
H397 C383 0.961 . S
H398 C383 0.961 . S
H399 C383 0.961 . S
H400 C384 0.931 . S
H401 C389 0.930 . S
H402 C390 0.956 . S
H403 C390 0.961 . S
H404 C390 0.961 . S
H405 C391 0.958 . S
H406 C391 0.961 . S
H407 C391 0.960 . S
C408 C409 1.391 . S
C408 C410 1.394 . S
C408 H424 0.931 . S
C409 C408 1.391 . S
C409 C413 1.376 . S
C410 C408 1.394 . S
C410 C411 1.369 . S
C410 C414 1.531 . S
C411 C410 1.369 . S
C411 C412 1.410 . S
C411 C419 1.503 . S
C412 C411 1.410 . S
C412 C413 1.392 . S
C412 C415 1.511 . S
C413 C409 1.376 . S
C413 C412 1.392 . S
C413 H425 0.929 . S
C414 C410 1.531 . S
C414 H426 0.960 . S
C414 H427 0.962 . S
C414 H428 0.960 . S
C415 C412 1.511 . S
C415 H429 0.961 . S
C415 H430 0.961 . S
C415 H431 0.961 . S
C416 C417 1.370 . S
C416 C418 1.363 . S
C416 H432 0.931 . S
C417 C416 1.370 . S
C417 C421 1.408 . S
C418 C416 1.363 . S
C418 C419 1.370 . S
C418 C422 1.524 . S
C419 C411 1.503 . S
C419 C418 1.370 . S
C419 C420 1.403 . S
C420 C419 1.403 . S
C420 C421 1.404 . S
C420 C423 1.539 . S
C421 C417 1.408 . S
C421 C420 1.404 . S
C421 H433 0.930 . S
C422 C418 1.524 . S
C422 H434 0.956 . S
C422 H435 0.961 . S
C422 H436 0.961 . S
C423 C420 1.539 . S
C423 H437 0.958 . S
C423 H438 0.961 . S
C423 H439 0.960 . S
H424 C408 0.931 . S
H425 C413 0.929 . S
H426 C414 0.960 . S
H427 C414 0.962 . S
H428 C414 0.960 . S
H429 C415 0.961 . S
H430 C415 0.961 . S
H431 C415 0.961 . S
H432 C416 0.931 . S
H433 C421 0.930 . S
H434 C422 0.956 . S
H435 C422 0.961 . S
H436 C422 0.961 . S
H437 C423 0.958 . S
H438 C423 0.961 . S
H439 C423 0.960 . S
C440 C441 1.391 . S
C440 C442 1.394 . S
C440 H456 0.931 . S
C441 C440 1.391 . S
C441 C445 1.376 . S
C442 C440 1.394 . S
C442 C443 1.369 . S
C442 C446 1.531 . S
C443 C442 1.369 . S
C443 C444 1.410 . S
C443 C451 1.503 . S
C444 C443 1.410 . S
C444 C445 1.392 . S
C444 C447 1.511 . S
C445 C441 1.376 . S
C445 C444 1.392 . S
C445 H457 0.929 . S
C446 C442 1.531 . S
C446 H458 0.960 . S
C446 H459 0.962 . S
C446 H460 0.960 . S
C447 C444 1.511 . S
C447 H461 0.961 . S
C447 H462 0.961 . S
C447 H463 0.961 . S
C448 C449 1.370 . S
C448 C450 1.363 . S
C448 H464 0.931 . S
C449 C448 1.370 . S
C449 C453 1.408 . S
C450 C448 1.363 . S
C450 C451 1.370 . S
C450 C454 1.524 . S
C451 C443 1.503 . S
C451 C450 1.370 . S
C451 C452 1.403 . S
C452 C451 1.403 . S
C452 C453 1.404 . S
C452 C455 1.539 . S
C453 C449 1.408 . S
C453 C452 1.404 . S
C453 H465 0.930 . S
C454 C450 1.524 . S
C454 H466 0.956 . S
C454 H467 0.961 . S
C454 H468 0.961 . S
C455 C452 1.539 . S
C455 H469 0.958 . S
C455 H470 0.961 . S
C455 H471 0.960 . S
H456 C440 0.931 . S
H457 C445 0.929 . S
H458 C446 0.960 . S
H459 C446 0.962 . S
H460 C446 0.960 . S
H461 C447 0.961 . S
H462 C447 0.961 . S
H463 C447 0.961 . S
H464 C448 0.931 . S
H465 C453 0.930 . S
H466 C454 0.956 . S
H467 C454 0.961 . S
H468 C454 0.961 . S
H469 C455 0.958 . S
H470 C455 0.961 . S
H471 C455 0.960 . S
C472 C473 1.391 . S
C472 C474 1.394 . S
C472 H488 0.931 . S
C473 C472 1.391 . S
C473 C477 1.376 . S
C474 C472 1.394 . S
C474 C475 1.369 . S
C474 C478 1.531 . S
C475 C474 1.369 . S
C475 C476 1.410 . S
C475 C483 1.503 . S
C476 C475 1.410 . S
C476 C477 1.392 . S
C476 C479 1.511 . S
C477 C473 1.376 . S
C477 C476 1.392 . S
C477 H489 0.929 . S
C478 C474 1.531 . S
C478 H490 0.960 . S
C478 H491 0.962 . S
C478 H492 0.960 . S
C479 C476 1.511 . S
C479 H493 0.961 . S
C479 H494 0.961 . S
C479 H495 0.961 . S
C480 C481 1.370 . S
C480 C482 1.363 . S
C480 H496 0.931 . S
C481 C480 1.370 . S
C481 C485 1.408 . S
C482 C480 1.363 . S
C482 C483 1.370 . S
C482 C486 1.524 . S
C483 C475 1.503 . S
C483 C482 1.370 . S
C483 C484 1.403 . S
C484 C483 1.403 . S
C484 C485 1.404 . S
C484 C487 1.539 . S
C485 C481 1.408 . S
C485 C484 1.404 . S
C485 H497 0.930 . S
C486 C482 1.524 . S
C486 H498 0.956 . S
C486 H499 0.961 . S
C486 H500 0.961 . S
C487 C484 1.539 . S
C487 H501 0.958 . S
C487 H502 0.961 . S
C487 H503 0.960 . S
H488 C472 0.931 . S
H489 C477 0.929 . S
H490 C478 0.960 . S
H491 C478 0.962 . S
H492 C478 0.960 . S
H493 C479 0.961 . S
H494 C479 0.961 . S
H495 C479 0.961 . S
H496 C480 0.931 . S
H497 C485 0.930 . S
H498 C486 0.956 . S
H499 C486 0.961 . S
H500 C486 0.961 . S
H501 C487 0.958 . S
H502 C487 0.961 . S
H503 C487 0.960 . S
C504 C505 1.391 . S
C504 C506 1.394 . S
C504 H520 0.931 . S
C505 C504 1.391 . S
C505 C509 1.376 . S
C506 C504 1.394 . S
C506 C507 1.369 . S
C506 C510 1.531 . S
C507 C506 1.369 . S
C507 C508 1.410 . S
C507 C515 1.503 . S
C508 C507 1.410 . S
C508 C509 1.392 . S
C508 C511 1.511 . S
C509 C505 1.376 . S
C509 C508 1.392 . S
C509 H521 0.929 . S
C510 C506 1.531 . S
C510 H522 0.960 . S
C510 H523 0.962 . S
C510 H524 0.960 . S
C511 C508 1.511 . S
C511 H525 0.961 . S
C511 H526 0.961 . S
C511 H527 0.961 . S
C512 C513 1.370 . S
C512 C514 1.363 . S
C512 H528 0.931 . S
C513 C512 1.370 . S
C513 C517 1.408 . S
C514 C512 1.363 . S
C514 C515 1.370 . S
C514 C518 1.524 . S
C515 C507 1.503 . S
C515 C514 1.370 . S
C515 C516 1.403 . S
C516 C515 1.403 . S
C516 C517 1.404 . S
C516 C519 1.539 . S
C517 C513 1.408 . S
C517 C516 1.404 . S
C517 H529 0.930 . S
C518 C514 1.524 . S
C518 H530 0.956 . S
C518 H531 0.961 . S
C518 H532 0.961 . S
C519 C516 1.539 . S
C519 H533 0.958 . S
C519 H534 0.961 . S
C519 H535 0.960 . S
H520 C504 0.931 . S
H521 C509 0.929 . S
H522 C510 0.960 . S
H523 C510 0.962 . S
H524 C510 0.960 . S
H525 C511 0.961 . S
H526 C511 0.961 . S
H527 C511 0.961 . S
H528 C512 0.931 . S
H529 C517 0.930 . S
H530 C518 0.956 . S
H531 C518 0.961 . S
H532 C518 0.961 . S
H533 C519 0.958 . S
H534 C519 0.961 . S
H535 C519 0.960 . S
C536 C537 1.391 . S
C536 C538 1.394 . S
C536 H552 0.931 . S
C537 C536 1.391 . S
C537 C541 1.376 . S
C538 C536 1.394 . S
C538 C539 1.369 . S
C538 C542 1.531 . S
C539 C538 1.369 . S
C539 C540 1.410 . S
C539 C547 1.503 . S
C540 C539 1.410 . S
C540 C541 1.392 . S
C540 C543 1.511 . S
C541 C537 1.376 . S
C541 C540 1.392 . S
C541 H553 0.929 . S
C542 C538 1.531 . S
C542 H554 0.960 . S
C542 H555 0.962 . S
C542 H556 0.960 . S
C543 C540 1.511 . S
C543 H557 0.961 . S
C543 H558 0.961 . S
C543 H559 0.961 . S
C544 C545 1.370 . S
C544 C546 1.363 . S
C544 H560 0.931 . S
C545 C544 1.370 . S
C545 C549 1.408 . S
C546 C544 1.363 . S
C546 C547 1.370 . S
C546 C550 1.524 . S
C547 C539 1.503 . S
C547 C546 1.370 . S
C547 C548 1.403 . S
C548 C547 1.403 . S
C548 C549 1.404 . S
C548 C551 1.539 . S
C549 C545 1.408 . S
C549 C548 1.404 . S
C549 H561 0.930 . S
C550 C546 1.524 . S
C550 H562 0.956 . S
C550 H563 0.961 . S
C550 H564 0.961 . S
C551 C548 1.539 . S
C551 H565 0.958 . S
C551 H566 0.961 . S
C551 H567 0.960 . S
H552 C536 0.931 . S
H553 C541 0.929 . S
H554 C542 0.960 . S
H555 C542 0.962 . S
H556 C542 0.960 . S
H557 C543 0.961 . S
H558 C543 0.961 . S
H559 C543 0.961 . S
H560 C544 0.931 . S
H561 C549 0.930 . S
H562 C550 0.956 . S
H563 C550 0.961 . S
H564 C550 0.961 . S
H565 C551 0.958 . S
H566 C551 0.961 . S
H567 C551 0.960 . S
C568 C569 1.391 . S
C568 C570 1.394 . S
C568 H584 0.931 . S
C569 C568 1.391 . S
C569 C573 1.376 . S
C570 C568 1.394 . S
C570 C571 1.369 . S
C570 C574 1.531 . S
C571 C570 1.369 . S
C571 C572 1.410 . S
C571 C579 1.503 . S
C572 C571 1.410 . S
C572 C573 1.392 . S
C572 C575 1.511 . S
C573 C569 1.376 . S
C573 C572 1.392 . S
C573 H585 0.929 . S
C574 C570 1.531 . S
C574 H586 0.960 . S
C574 H587 0.962 . S
C574 H588 0.960 . S
C575 C572 1.511 . S
C575 H589 0.961 . S
C575 H590 0.961 . S
C575 H591 0.961 . S
C576 C577 1.370 . S
C576 C578 1.363 . S
C576 H592 0.931 . S
C577 C576 1.370 . S
C577 C581 1.408 . S
C578 C576 1.363 . S
C578 C579 1.370 . S
C578 C582 1.524 . S
C579 C571 1.503 . S
C579 C578 1.370 . S
C579 C580 1.403 . S
C580 C579 1.403 . S
C580 C581 1.404 . S
C580 C583 1.539 . S
C581 C577 1.408 . S
C581 C580 1.404 . S
C581 H593 0.930 . S
C582 C578 1.524 . S
C582 H594 0.956 . S
C582 H595 0.961 . S
C582 H596 0.961 . S
C583 C580 1.539 . S
C583 H597 0.958 . S
C583 H598 0.961 . S
C583 H599 0.960 . S
H584 C568 0.931 . S
H585 C573 0.929 . S
H586 C574 0.960 . S
H587 C574 0.962 . S
H588 C574 0.960 . S
H589 C575 0.961 . S
H590 C575 0.961 . S
H591 C575 0.961 . S
H592 C576 0.931 . S
H593 C581 0.930 . S
H594 C582 0.956 . S
H595 C582 0.961 . S
H596 C582 0.961 . S
H597 C583 0.958 . S
H598 C583 0.961 . S
H599 C583 0.960 . S
C600 C601 1.391 . S
C600 C602 1.394 . S
C600 H616 0.931 . S
C601 C600 1.391 . S
C601 C605 1.376 . S
C602 C600 1.394 . S
C602 C603 1.369 . S
C602 C606 1.531 . S
C603 C602 1.369 . S
C603 C604 1.410 . S
C603 C611 1.503 . S
C604 C603 1.410 . S
C604 C605 1.392 . S
C604 C607 1.511 . S
C605 C601 1.376 . S
C605 C604 1.392 . S
C605 H617 0.929 . S
C606 C602 1.531 . S
C606 H618 0.960 . S
C606 H619 0.962 . S
C606 H620 0.960 . S
C607 C604 1.511 . S
C607 H621 0.961 . S
C607 H622 0.961 . S
C607 H623 0.961 . S
C608 C609 1.370 . S
C608 C610 1.363 . S
C608 H624 0.931 . S
C609 C608 1.370 . S
C609 C613 1.408 . S
C610 C608 1.363 . S
C610 C611 1.370 . S
C610 C614 1.524 . S
C611 C603 1.503 . S
C611 C610 1.370 . S
C611 C612 1.403 . S
C612 C611 1.403 . S
C612 C613 1.404 . S
C612 C615 1.539 . S
C613 C609 1.408 . S
C613 C612 1.404 . S
C613 H625 0.930 . S
C614 C610 1.524 . S
C614 H626 0.956 . S
C614 H627 0.961 . S
C614 H628 0.961 . S
C615 C612 1.539 . S
C615 H629 0.958 . S
C615 H630 0.961 . S
C615 H631 0.960 . S
H616 C600 0.931 . S
H617 C605 0.929 . S
H618 C606 0.960 . S
H619 C606 0.962 . S
H620 C606 0.960 . S
H621 C607 0.961 . S
H622 C607 0.961 . S
H623 C607 0.961 . S
H624 C608 0.931 . S
H625 C613 0.930 . S
H626 C614 0.956 . S
H627 C614 0.961 . S
H628 C614 0.961 . S
H629 C615 0.958 . S
H630 C615 0.961 . S
H631 C615 0.960 . S
C632 C633 1.391 . S
C632 C634 1.394 . S
C632 H648 0.931 . S
C633 C632 1.391 . S
C633 C637 1.376 . S
C634 C632 1.394 . S
C634 C635 1.369 . S
C634 C638 1.531 . S
C635 C634 1.369 . S
C635 C636 1.410 . S
C635 C643 1.503 . S
C636 C635 1.410 . S
C636 C637 1.392 . S
C636 C639 1.511 . S
C637 C633 1.376 . S
C637 C636 1.392 . S
C637 H649 0.929 . S
C638 C634 1.531 . S
C638 H650 0.960 . S
C638 H651 0.962 . S
C638 H652 0.960 . S
C639 C636 1.511 . S
C639 H653 0.961 . S
C639 H654 0.961 . S
C639 H655 0.961 . S
C640 C641 1.370 . S
C640 C642 1.363 1_545 S
C640 H656 0.931 . S
C641 C640 1.370 . S
C641 C645 1.408 . S
C642 C640 1.363 1_565 S
C642 C643 1.370 . S
C642 C646 1.524 . S
C643 C635 1.503 . S
C643 C642 1.370 . S
C643 C644 1.403 . S
C644 C643 1.403 . S
C644 C645 1.404 1_565 S
C644 C647 1.539 . S
C645 C641 1.408 . S
C645 C644 1.404 1_545 S
C645 H657 0.930 . S
C646 C642 1.524 . S
C646 H658 0.956 . S
C646 H659 0.961 . S
C646 H660 0.961 . S
C647 C644 1.539 . S
C647 H661 0.958 . S
C647 H662 0.961 . S
C647 H663 0.960 . S
H648 C632 0.931 . S
H649 C637 0.929 . S
H650 C638 0.960 . S
H651 C638 0.962 . S
H652 C638 0.960 . S
H653 C639 0.961 . S
H654 C639 0.961 . S
H655 C639 0.961 . S
H656 C640 0.931 . S
H657 C645 0.930 . S
H658 C646 0.956 . S
H659 C646 0.961 . S
H660 C646 0.961 . S
H661 C647 0.958 . S
H662 C647 0.961 . S
H663 C647 0.960 . S
C664 C665 1.391 . S
C664 C666 1.394 . S
C664 H680 0.931 . S
C665 C664 1.391 . S
C665 C669 1.376 . S
C666 C664 1.394 . S
C666 C667 1.369 . S
C666 C670 1.531 . S
C667 C666 1.369 . S
C667 C668 1.410 . S
C667 C675 1.503 . S
C668 C667 1.410 . S
C668 C669 1.392 . S
C668 C671 1.511 . S
C669 C665 1.376 . S
C669 C668 1.392 . S
C669 H681 0.929 . S
C670 C666 1.531 . S
C670 H682 0.960 . S
C670 H683 0.962 . S
C670 H684 0.960 . S
C671 C668 1.511 . S
C671 H685 0.961 . S
C671 H686 0.961 . S
C671 H687 0.961 . S
C672 C673 1.370 . S
C672 C674 1.363 . S
C672 H688 0.931 . S
C673 C672 1.370 . S
C673 C677 1.408 . S
C674 C672 1.363 . S
C674 C675 1.370 . S
C674 C678 1.524 . S
C675 C667 1.503 . S
C675 C674 1.370 . S
C675 C676 1.403 . S
C676 C675 1.403 . S
C676 C677 1.404 . S
C676 C679 1.539 . S
C677 C673 1.408 . S
C677 C676 1.404 . S
C677 H689 0.930 . S
C678 C674 1.524 . S
C678 H690 0.956 . S
C678 H691 0.961 . S
C678 H692 0.961 . S
C679 C676 1.539 . S
C679 H693 0.958 . S
C679 H694 0.961 . S
C679 H695 0.960 . S
H680 C664 0.931 . S
H681 C669 0.929 . S
H682 C670 0.960 . S
H683 C670 0.962 . S
H684 C670 0.960 . S
H685 C671 0.961 . S
H686 C671 0.961 . S
H687 C671 0.961 . S
H688 C672 0.931 . S
H689 C677 0.930 . S
H690 C678 0.956 . S
H691 C678 0.961 . S
H692 C678 0.961 . S
H693 C679 0.958 . S
H694 C679 0.961 . S
H695 C679 0.960 . S
C696 C697 1.391 . S
C696 C698 1.394 . S
C696 H712 0.931 . S
C697 C696 1.391 . S
C697 C701 1.376 . S
C698 C696 1.394 . S
C698 C699 1.369 . S
C698 C702 1.531 . S
C699 C698 1.369 . S
C699 C700 1.410 . S
C699 C707 1.503 . S
C700 C699 1.410 . S
C700 C701 1.392 . S
C700 C703 1.511 . S
C701 C697 1.376 . S
C701 C700 1.392 . S
C701 H713 0.929 . S
C702 C698 1.531 . S
C702 H714 0.960 . S
C702 H715 0.962 . S
C702 H716 0.960 . S
C703 C700 1.511 . S
C703 H717 0.961 . S
C703 H718 0.961 . S
C703 H719 0.961 . S
C704 C705 1.370 . S
C704 C706 1.363 . S
C704 H720 0.931 . S
C705 C704 1.370 . S
C705 C709 1.408 . S
C706 C704 1.363 . S
C706 C707 1.370 . S
C706 C710 1.524 . S
C707 C699 1.503 . S
C707 C706 1.370 . S
C707 C708 1.403 . S
C708 C707 1.403 . S
C708 C709 1.404 . S
C708 C711 1.539 . S
C709 C705 1.408 . S
C709 C708 1.404 . S
C709 H721 0.930 . S
C710 C706 1.524 . S
C710 H722 0.956 . S
C710 H723 0.961 . S
C710 H724 0.961 . S
C711 C708 1.539 . S
C711 H725 0.958 . S
C711 H726 0.961 . S
C711 H727 0.960 . S
H712 C696 0.931 . S
H713 C701 0.929 . S
H714 C702 0.960 . S
H715 C702 0.962 . S
H716 C702 0.960 . S
H717 C703 0.961 . S
H718 C703 0.961 . S
H719 C703 0.961 . S
H720 C704 0.931 . S
H721 C709 0.930 . S
H722 C710 0.956 . S
H723 C710 0.961 . S
H724 C710 0.961 . S
H725 C711 0.958 . S
H726 C711 0.961 . S
H727 C711 0.960 . S
C728 C729 1.391 . S
C728 C730 1.394 . S
C728 H744 0.931 . S
C729 C728 1.391 . S
C729 C733 1.376 . S
C730 C728 1.394 . S
C730 C731 1.369 . S
C730 C734 1.531 . S
C731 C730 1.369 . S
C731 C732 1.410 . S
C731 C739 1.503 . S
C732 C731 1.410 . S
C732 C733 1.392 . S
C732 C735 1.511 . S
C733 C729 1.376 . S
C733 C732 1.392 . S
C733 H745 0.929 . S
C734 C730 1.531 . S
C734 H746 0.960 . S
C734 H747 0.962 . S
C734 H748 0.960 . S
C735 C732 1.511 . S
C735 H749 0.961 . S
C735 H750 0.961 . S
C735 H751 0.961 . S
C736 C737 1.370 . S
C736 C738 1.363 . S
C736 H752 0.931 . S
C737 C736 1.370 . S
C737 C741 1.408 . S
C738 C736 1.363 . S
C738 C739 1.370 . S
C738 C742 1.524 . S
C739 C731 1.503 . S
C739 C738 1.370 . S
C739 C740 1.403 . S
C740 C739 1.403 . S
C740 C741 1.404 . S
C740 C743 1.539 . S
C741 C737 1.408 . S
C741 C740 1.404 . S
C741 H753 0.930 . S
C742 C738 1.524 . S
C742 H754 0.956 . S
C742 H755 0.961 . S
C742 H756 0.961 . S
C743 C740 1.539 . S
C743 H757 0.958 . S
C743 H758 0.961 . S
C743 H759 0.960 . S
H744 C728 0.931 . S
H745 C733 0.929 . S
H746 C734 0.960 . S
H747 C734 0.962 . S
H748 C734 0.960 . S
H749 C735 0.961 . S
H750 C735 0.961 . S
H751 C735 0.961 . S
H752 C736 0.931 . S
H753 C741 0.930 . S
H754 C742 0.956 . S
H755 C742 0.961 . S
H756 C742 0.961 . S
H757 C743 0.958 . S
H758 C743 0.961 . S
H759 C743 0.960 . S
C760 C761 1.391 . S
C760 C762 1.394 . S
C760 H776 0.931 . S
C761 C760 1.391 . S
C761 C765 1.376 . S
C762 C760 1.394 . S
C762 C763 1.369 . S
C762 C766 1.531 . S
C763 C762 1.369 . S
C763 C764 1.410 . S
C763 C771 1.503 . S
C764 C763 1.410 . S
C764 C765 1.392 . S
C764 C767 1.511 . S
C765 C761 1.376 . S
C765 C764 1.392 . S
C765 H777 0.929 . S
C766 C762 1.531 . S
C766 H778 0.960 . S
C766 H779 0.962 . S
C766 H780 0.960 . S
C767 C764 1.511 . S
C767 H781 0.961 . S
C767 H782 0.961 . S
C767 H783 0.961 . S
C768 C769 1.370 . S
C768 C770 1.363 . S
C768 H784 0.931 . S
C769 C768 1.370 . S
C769 C773 1.408 . S
C770 C768 1.363 . S
C770 C771 1.370 . S
C770 C774 1.524 . S
C771 C763 1.503 . S
C771 C770 1.370 . S
C771 C772 1.403 . S
C772 C771 1.403 . S
C772 C773 1.404 . S
C772 C775 1.539 . S
C773 C769 1.408 . S
C773 C772 1.404 . S
C773 H785 0.930 . S
C774 C770 1.524 . S
C774 H786 0.956 . S
C774 H787 0.961 . S
C774 H788 0.961 . S
C775 C772 1.539 . S
C775 H789 0.958 . S
C775 H790 0.961 . S
C775 H791 0.960 . S
H776 C760 0.931 . S
H777 C765 0.929 . S
H778 C766 0.960 . S
H779 C766 0.962 . S
H780 C766 0.960 . S
H781 C767 0.961 . S
H782 C767 0.961 . S
H783 C767 0.961 . S
H784 C768 0.931 . S
H785 C773 0.930 . S
H786 C774 0.956 . S
H787 C774 0.961 . S
H788 C774 0.961 . S
H789 C775 0.958 . S
H790 C775 0.961 . S
H791 C775 0.960 . S
C792 C793 1.391 . S
C792 C794 1.394 . S
C792 H808 0.931 . S
C793 C792 1.391 . S
C793 C797 1.376 . S
C794 C792 1.394 . S
C794 C795 1.369 . S
C794 C798 1.531 . S
C795 C794 1.369 . S
C795 C796 1.410 . S
C795 C803 1.503 . S
C796 C795 1.410 . S
C796 C797 1.392 . S
C796 C799 1.511 . S
C797 C793 1.376 . S
C797 C796 1.392 . S
C797 H809 0.929 . S
C798 C794 1.531 . S
C798 H810 0.960 . S
C798 H811 0.962 . S
C798 H812 0.960 . S
C799 C796 1.511 . S
C799 H813 0.961 . S
C799 H814 0.961 . S
C799 H815 0.961 . S
C800 C801 1.370 . S
C800 C802 1.363 . S
C800 H816 0.931 . S
C801 C800 1.370 . S
C801 C805 1.408 . S
C802 C800 1.363 . S
C802 C803 1.370 . S
C802 C806 1.524 . S
C803 C795 1.503 . S
C803 C802 1.370 . S
C803 C804 1.403 . S
C804 C803 1.403 . S
C804 C805 1.404 . S
C804 C807 1.539 . S
C805 C801 1.408 . S
C805 C804 1.404 . S
C805 H817 0.930 . S
C806 C802 1.524 . S
C806 H818 0.956 . S
C806 H819 0.961 . S
C806 H820 0.961 . S
C807 C804 1.539 . S
C807 H821 0.958 . S
C807 H822 0.961 . S
C807 H823 0.960 . S
H808 C792 0.931 . S
H809 C797 0.929 . S
H810 C798 0.960 . S
H811 C798 0.962 . S
H812 C798 0.960 . S
H813 C799 0.961 . S
H814 C799 0.961 . S
H815 C799 0.961 . S
H816 C800 0.931 . S
H817 C805 0.930 . S
H818 C806 0.956 . S
H819 C806 0.961 . S
H820 C806 0.961 . S
H821 C807 0.958 . S
H822 C807 0.961 . S
H823 C807 0.960 . S
C824 C825 1.391 . S
C824 C826 1.394 . S
C824 H840 0.931 . S
C825 C824 1.391 . S
C825 C829 1.376 . S
C826 C824 1.394 . S
C826 C827 1.369 . S
C826 C830 1.531 . S
C827 C826 1.369 . S
C827 C828 1.410 . S
C827 C835 1.503 . S
C828 C827 1.410 . S
C828 C829 1.392 . S
C828 C831 1.511 . S
C829 C825 1.376 . S
C829 C828 1.392 . S
C829 H841 0.929 . S
C830 C826 1.531 . S
C830 H842 0.960 . S
C830 H843 0.962 . S
C830 H844 0.960 . S
C831 C828 1.511 . S
C831 H845 0.961 . S
C831 H846 0.961 . S
C831 H847 0.961 . S
C832 C833 1.370 . S
C832 C834 1.363 . S
C832 H848 0.931 . S
C833 C832 1.370 . S
C833 C837 1.408 . S
C834 C832 1.363 . S
C834 C835 1.370 . S
C834 C838 1.524 . S
C835 C827 1.503 . S
C835 C834 1.370 . S
C835 C836 1.403 . S
C836 C835 1.403 . S
C836 C837 1.404 . S
C836 C839 1.539 . S
C837 C833 1.408 . S
C837 C836 1.404 . S
C837 H849 0.930 . S
C838 C834 1.524 . S
C838 H850 0.956 . S
C838 H851 0.961 . S
C838 H852 0.961 . S
C839 C836 1.539 . S
C839 H853 0.958 . S
C839 H854 0.961 . S
C839 H855 0.960 . S
H840 C824 0.931 . S
H841 C829 0.929 . S
H842 C830 0.960 . S
H843 C830 0.962 . S
H844 C830 0.960 . S
H845 C831 0.961 . S
H846 C831 0.961 . S
H847 C831 0.961 . S
H848 C832 0.931 . S
H849 C837 0.930 . S
H850 C838 0.956 . S
H851 C838 0.961 . S
H852 C838 0.961 . S
H853 C839 0.958 . S
H854 C839 0.961 . S
H855 C839 0.960 . S
C856 C857 1.391 . S
C856 C858 1.394 . S
C856 H872 0.931 . S
C857 C856 1.391 . S
C857 C861 1.376 . S
C858 C856 1.394 . S
C858 C859 1.369 . S
C858 C862 1.531 . S
C859 C858 1.369 . S
C859 C860 1.410 . S
C859 C867 1.503 . S
C860 C859 1.410 . S
C860 C861 1.392 . S
C860 C863 1.511 . S
C861 C857 1.376 . S
C861 C860 1.392 . S
C861 H873 0.929 . S
C862 C858 1.531 . S
C862 H874 0.960 . S
C862 H875 0.962 . S
C862 H876 0.960 . S
C863 C860 1.511 . S
C863 H877 0.961 . S
C863 H878 0.961 . S
C863 H879 0.961 . S
C864 C865 1.370 . S
C864 C866 1.363 . S
C864 H880 0.931 . S
C865 C864 1.370 . S
C865 C869 1.408 . S
C866 C864 1.363 . S
C866 C867 1.370 . S
C866 C870 1.524 . S
C867 C859 1.503 . S
C867 C866 1.370 . S
C867 C868 1.403 . S
C868 C867 1.403 . S
C868 C869 1.404 . S
C868 C871 1.539 . S
C869 C865 1.408 . S
C869 C868 1.404 . S
C869 H881 0.930 . S
C870 C866 1.524 . S
C870 H882 0.956 . S
C870 H883 0.961 . S
C870 H884 0.961 . S
C871 C868 1.539 . S
C871 H885 0.958 . S
C871 H886 0.961 . S
C871 H887 0.960 . S
H872 C856 0.931 . S
H873 C861 0.929 . S
H874 C862 0.960 . S
H875 C862 0.962 . S
H876 C862 0.960 . S
H877 C863 0.961 . S
H878 C863 0.961 . S
H879 C863 0.961 . S
H880 C864 0.931 . S
H881 C869 0.930 . S
H882 C870 0.956 . S
H883 C870 0.961 . S
H884 C870 0.961 . S
H885 C871 0.958 . S
H886 C871 0.961 . S
H887 C871 0.960 . S
C888 C889 1.391 . S
C888 C890 1.394 . S
C888 H904 0.931 . S
C889 C888 1.391 . S
C889 C893 1.376 . S
C890 C888 1.394 . S
C890 C891 1.369 . S
C890 C894 1.531 . S
C891 C890 1.369 . S
C891 C892 1.410 . S
C891 C899 1.503 . S
C892 C891 1.410 . S
C892 C893 1.392 . S
C892 C895 1.511 . S
C893 C889 1.376 . S
C893 C892 1.392 . S
C893 H905 0.929 . S
C894 C890 1.531 . S
C894 H906 0.960 . S
C894 H907 0.962 . S
C894 H908 0.960 . S
C895 C892 1.511 . S
C895 H909 0.961 . S
C895 H910 0.961 . S
C895 H911 0.961 . S
C896 C897 1.370 . S
C896 C898 1.363 . S
C896 H912 0.931 . S
C897 C896 1.370 . S
C897 C901 1.408 . S
C898 C896 1.363 . S
C898 C899 1.370 . S
C898 C902 1.524 . S
C899 C891 1.503 . S
C899 C898 1.370 . S
C899 C900 1.403 . S
C900 C899 1.403 . S
C900 C901 1.404 . S
C900 C903 1.539 . S
C901 C897 1.408 . S
C901 C900 1.404 . S
C901 H913 0.930 . S
C902 C898 1.524 . S
C902 H914 0.956 . S
C902 H915 0.961 . S
C902 H916 0.961 . S
C903 C900 1.539 . S
C903 H917 0.958 . S
C903 H918 0.961 . S
C903 H919 0.960 . S
H904 C888 0.931 . S
H905 C893 0.929 . S
H906 C894 0.960 . S
H907 C894 0.962 . S
H908 C894 0.960 . S
H909 C895 0.961 . S
H910 C895 0.961 . S
H911 C895 0.961 . S
H912 C896 0.931 . S
H913 C901 0.930 . S
H914 C902 0.956 . S
H915 C902 0.961 . S
H916 C902 0.961 . S
H917 C903 0.958 . S
H918 C903 0.961 . S
H919 C903 0.960 . S
C920 C921 1.391 . S
C920 C922 1.394 . S
C920 H936 0.931 . S
C921 C920 1.391 . S
C921 C925 1.376 . S
C922 C920 1.394 . S
C922 C923 1.369 . S
C922 C926 1.531 . S
C923 C922 1.369 . S
C923 C924 1.410 . S
C923 C931 1.503 . S
C924 C923 1.410 . S
C924 C925 1.392 . S
C924 C927 1.511 . S
C925 C921 1.376 . S
C925 C924 1.392 . S
C925 H937 0.929 . S
C926 C922 1.531 . S
C926 H938 0.960 . S
C926 H939 0.962 . S
C926 H940 0.960 . S
C927 C924 1.511 . S
C927 H941 0.961 . S
C927 H942 0.961 . S
C927 H943 0.961 . S
C928 C929 1.370 . S
C928 C930 1.363 . S
C928 H944 0.931 . S
C929 C928 1.370 . S
C929 C933 1.408 . S
C930 C928 1.363 . S
C930 C931 1.370 . S
C930 C934 1.524 . S
C931 C923 1.503 . S
C931 C930 1.370 . S
C931 C932 1.403 . S
C932 C931 1.403 . S
C932 C933 1.404 . S
C932 C935 1.539 . S
C933 C929 1.408 . S
C933 C932 1.404 . S
C933 H945 0.930 . S
C934 C930 1.524 . S
C934 H946 0.956 . S
C934 H947 0.961 . S
C934 H948 0.961 . S
C935 C932 1.539 . S
C935 H949 0.958 . S
C935 H950 0.961 . S
C935 H951 0.960 . S
H936 C920 0.931 . S
H937 C925 0.929 . S
H938 C926 0.960 . S
H939 C926 0.962 . S
H940 C926 0.960 . S
H941 C927 0.961 . S
H942 C927 0.961 . S
H943 C927 0.961 . S
H944 C928 0.931 . S
H945 C933 0.930 . S
H946 C934 0.956 . S
H947 C934 0.961 . S
H948 C934 0.961 . S
H949 C935 0.958 . S
H950 C935 0.961 . S
H951 C935 0.960 . S
C952 C953 1.391 . S
C952 C954 1.394 . S
C952 H968 0.931 . S
C953 C952 1.391 . S
C953 C957 1.376 . S
C954 C952 1.394 . S
C954 C955 1.369 . S
C954 C958 1.531 . S
C955 C954 1.369 . S
C955 C956 1.410 . S
C955 C963 1.503 . S
C956 C955 1.410 . S
C956 C957 1.392 . S
C956 C959 1.511 . S
C957 C953 1.376 . S
C957 C956 1.392 . S
C957 H969 0.929 . S
C958 C954 1.531 . S
C958 H970 0.960 . S
C958 H971 0.962 . S
C958 H972 0.960 . S
C959 C956 1.511 . S
C959 H973 0.961 . S
C959 H974 0.961 . S
C959 H975 0.961 . S
C960 C961 1.370 . S
C960 C962 1.363 . S
C960 H976 0.931 . S
C961 C960 1.370 . S
C961 C965 1.408 . S
C962 C960 1.363 . S
C962 C963 1.370 . S
C962 C966 1.524 . S
C963 C955 1.503 . S
C963 C962 1.370 . S
C963 C964 1.403 . S
C964 C963 1.403 . S
C964 C965 1.404 . S
C964 C967 1.539 . S
C965 C961 1.408 . S
C965 C964 1.404 . S
C965 H977 0.930 . S
C966 C962 1.524 . S
C966 H978 0.956 . S
C966 H979 0.961 . S
C966 H980 0.961 . S
C967 C964 1.539 . S
C967 H981 0.958 . S
C967 H982 0.961 . S
C967 H983 0.960 . S
H968 C952 0.931 . S
H969 C957 0.929 . S
H970 C958 0.960 . S
H971 C958 0.962 . S
H972 C958 0.960 . S
H973 C959 0.961 . S
H974 C959 0.961 . S
H975 C959 0.961 . S
H976 C960 0.931 . S
H977 C965 0.930 . S
H978 C966 0.956 . S
H979 C966 0.961 . S
H980 C966 0.961 . S
H981 C967 0.958 . S
H982 C967 0.961 . S
H983 C967 0.960 . S
C984 C985 1.391 . S
C984 C986 1.394 . S
C984 H1000 0.931 . S
C985 C984 1.391 . S
C985 C989 1.376 . S
C986 C984 1.394 . S
C986 C987 1.369 . S
C986 C990 1.531 . S
C987 C986 1.369 . S
C987 C988 1.410 . S
C987 C995 1.503 . S
C988 C987 1.410 . S
C988 C989 1.392 . S
C988 C991 1.511 . S
C989 C985 1.376 . S
C989 C988 1.392 . S
C989 H1001 0.929 . S
C990 C986 1.531 . S
C990 H1002 0.960 . S
C990 H1003 0.962 . S
C990 H1004 0.960 . S
C991 C988 1.511 . S
C991 H1005 0.961 . S
C991 H1006 0.961 . S
C991 H1007 0.961 . S
C992 C993 1.370 . S
C992 C994 1.363 . S
C992 H1008 0.931 . S
C993 C992 1.370 . S
C993 C997 1.408 . S
C994 C992 1.363 . S
C994 C995 1.370 . S
C994 C998 1.524 . S
C995 C987 1.503 . S
C995 C994 1.370 . S
C995 C996 1.403 . S
C996 C995 1.403 . S
C996 C997 1.404 . S
C996 C999 1.539 . S
C997 C993 1.408 . S
C997 C996 1.404 . S
C997 H1009 0.930 . S
C998 C994 1.524 . S
C998 H1010 0.956 . S
C998 H1011 0.961 . S
C998 H1012 0.961 . S
C999 C996 1.539 . S
C999 H1013 0.958 . S
C999 H1014 0.961 . S
C999 H1015 0.960 . S
H1000 C984 0.931 . S
H1001 C989 0.929 . S
H1002 C990 0.960 . S
H1003 C990 0.962 . S
H1004 C990 0.960 . S
H1005 C991 0.961 . S
H1006 C991 0.961 . S
H1007 C991 0.961 . S
H1008 C992 0.931 . S
H1009 C997 0.930 . S
H1010 C998 0.956 . S
H1011 C998 0.961 . S
H1012 C998 0.961 . S
H1013 C999 0.958 . S
H1014 C999 0.961 . S
H1015 C999 0.960 . S
C1016 C1017 1.391 . S
C1016 C1018 1.394 . S
C1016 H1032 0.931 . S
C1017 C1016 1.391 . S
C1017 C1021 1.376 . S
C1018 C1016 1.394 . S
C1018 C1019 1.369 . S
C1018 C1022 1.531 . S
C1019 C1018 1.369 . S
C1019 C1020 1.410 . S
C1019 C1027 1.503 . S
C1020 C1019 1.410 . S
C1020 C1021 1.392 . S
C1020 C1023 1.511 . S
C1021 C1017 1.376 . S
C1021 C1020 1.392 . S
C1021 H1033 0.929 . S
C1022 C1018 1.531 . S
C1022 H1034 0.960 . S
C1022 H1035 0.962 . S
C1022 H1036 0.960 . S
C1023 C1020 1.511 . S
C1023 H1037 0.961 . S
C1023 H1038 0.961 . S
C1023 H1039 0.961 . S
C1024 C1025 1.370 . S
C1024 C1026 1.363 . S
C1024 H1040 0.931 . S
C1025 C1024 1.370 . S
C1025 C1029 1.408 . S
C1026 C1024 1.363 . S
C1026 C1027 1.370 . S
C1026 C1030 1.524 . S
C1027 C1019 1.503 . S
C1027 C1026 1.370 . S
C1027 C1028 1.403 . S
C1028 C1027 1.403 . S
C1028 C1029 1.404 . S
C1028 C1031 1.539 . S
C1029 C1025 1.408 . S
C1029 C1028 1.404 . S
C1029 H1041 0.930 . S
C1030 C1026 1.524 . S
C1030 H1042 0.956 . S
C1030 H1043 0.961 . S
C1030 H1044 0.961 . S
C1031 C1028 1.539 . S
C1031 H1045 0.958 . S
C1031 H1046 0.961 . S
C1031 H1047 0.960 . S
H1032 C1016 0.931 . S
H1033 C1021 0.929 . S
H1034 C1022 0.960 . S
H1035 C1022 0.962 . S
H1036 C1022 0.960 . S
H1037 C1023 0.961 . S
H1038 C1023 0.961 . S
H1039 C1023 0.961 . S
H1040 C1024 0.931 . S
H1041 C1029 0.930 . S
H1042 C1030 0.956 . S
H1043 C1030 0.961 . S
H1044 C1030 0.961 . S
H1045 C1031 0.958 . S
H1046 C1031 0.961 . S
H1047 C1031 0.960 . S
C1048 C1049 1.391 . S
C1048 C1050 1.394 . S
C1048 H1064 0.931 . S
C1049 C1048 1.391 . S
C1049 C1053 1.376 . S
C1050 C1048 1.394 . S
C1050 C1051 1.369 . S
C1050 C1054 1.531 . S
C1051 C1050 1.369 . S
C1051 C1052 1.410 . S
C1051 C1059 1.503 . S
C1052 C1051 1.410 . S
C1052 C1053 1.392 . S
C1052 C1055 1.511 . S
C1053 C1049 1.376 . S
C1053 C1052 1.392 . S
C1053 H1065 0.929 . S
C1054 C1050 1.531 . S
C1054 H1066 0.960 . S
C1054 H1067 0.962 . S
C1054 H1068 0.960 . S
C1055 C1052 1.511 . S
C1055 H1069 0.961 . S
C1055 H1070 0.961 . S
C1055 H1071 0.961 . S
C1056 C1057 1.370 . S
C1056 C1058 1.363 . S
C1056 H1072 0.931 . S
C1057 C1056 1.370 . S
C1057 C1061 1.408 . S
C1058 C1056 1.363 . S
C1058 C1059 1.370 . S
C1058 C1062 1.524 . S
C1059 C1051 1.503 . S
C1059 C1058 1.370 . S
C1059 C1060 1.403 . S
C1060 C1059 1.403 . S
C1060 C1061 1.404 . S
C1060 C1063 1.539 . S
C1061 C1057 1.408 . S
C1061 C1060 1.404 . S
C1061 H1073 0.930 . S
C1062 C1058 1.524 . S
C1062 H1074 0.956 . S
C1062 H1075 0.961 . S
C1062 H1076 0.961 . S
C1063 C1060 1.539 . S
C1063 H1077 0.958 . S
C1063 H1078 0.961 . S
C1063 H1079 0.960 . S
H1064 C1048 0.931 . S
H1065 C1053 0.929 . S
H1066 C1054 0.960 . S
H1067 C1054 0.962 . S
H1068 C1054 0.960 . S
H1069 C1055 0.961 . S
H1070 C1055 0.961 . S
H1071 C1055 0.961 . S
H1072 C1056 0.931 . S
H1073 C1061 0.930 . S
H1074 C1062 0.956 . S
H1075 C1062 0.961 . S
H1076 C1062 0.961 . S
H1077 C1063 0.958 . S
H1078 C1063 0.961 . S
H1079 C1063 0.960 . S
C1080 C1081 1.391 . S
C1080 C1082 1.394 . S
C1080 H1096 0.931 . S
C1081 C1080 1.391 . S
C1081 C1085 1.376 . S
C1082 C1080 1.394 . S
C1082 C1083 1.369 . S
C1082 C1086 1.531 . S
C1083 C1082 1.369 . S
C1083 C1084 1.410 . S
C1083 C1091 1.503 . S
C1084 C1083 1.410 . S
C1084 C1085 1.392 . S
C1084 C1087 1.511 . S
C1085 C1081 1.376 . S
C1085 C1084 1.392 . S
C1085 H1097 0.929 . S
C1086 C1082 1.531 . S
C1086 H1098 0.960 . S
C1086 H1099 0.962 . S
C1086 H1100 0.960 . S
C1087 C1084 1.511 . S
C1087 H1101 0.961 . S
C1087 H1102 0.961 . S
C1087 H1103 0.961 . S
C1088 C1089 1.362 1_565 S
C1088 C1090 1.384 . S
C1088 H1104 0.919 1_565 S
C1089 C1088 1.362 1_545 S
C1089 C1093 1.408 . S
C1090 C1088 1.384 . S
C1090 C1091 1.370 . S
C1090 C1094 1.524 . S
C1091 C1083 1.503 . S
C1091 C1090 1.370 . S
C1091 C1092 1.403 . S
C1092 C1091 1.403 . S
C1092 C1093 1.404 1_565 S
C1092 C1095 1.539 . S
C1093 C1089 1.408 . S
C1093 C1092 1.404 1_545 S
C1093 H1105 0.930 . S
C1094 C1090 1.524 . S
C1094 H1106 0.956 . S
C1094 H1107 0.961 . S
C1094 H1108 0.961 . S
C1095 C1092 1.539 . S
C1095 H1109 0.958 . S
C1095 H1110 0.961 . S
C1095 H1111 0.960 . S
H1096 C1080 0.931 . S
H1097 C1085 0.929 . S
H1098 C1086 0.960 . S
H1099 C1086 0.962 . S
H1100 C1086 0.960 . S
H1101 C1087 0.961 . S
H1102 C1087 0.961 . S
H1103 C1087 0.961 . S
H1104 C1088 0.919 1_545 S
H1105 C1093 0.930 . S
H1106 C1094 0.956 . S
H1107 C1094 0.961 . S
H1108 C1094 0.961 . S
H1109 C1095 0.958 . S
H1110 C1095 0.961 . S
H1111 C1095 0.960 . S
C1112 C1113 1.391 . S
C1112 C1114 1.394 . S
C1112 H1128 0.931 . S
C1113 C1112 1.391 . S
C1113 C1117 1.376 . S
C1114 C1112 1.394 . S
C1114 C1115 1.369 . S
C1114 C1118 1.531 . S
C1115 C1114 1.369 . S
C1115 C1116 1.410 . S
C1115 C1123 1.503 . S
C1116 C1115 1.410 . S
C1116 C1117 1.392 . S
C1116 C1119 1.511 . S
C1117 C1113 1.376 . S
C1117 C1116 1.392 . S
C1117 H1129 0.929 . S
C1118 C1114 1.531 . S
C1118 H1130 0.960 . S
C1118 H1131 0.962 . S
C1118 H1132 0.960 . S
C1119 C1116 1.511 . S
C1119 H1133 0.961 . S
C1119 H1134 0.961 . S
C1119 H1135 0.961 . S
C1120 C1121 1.370 . S
C1120 C1122 1.363 . S
C1120 H1136 0.931 . S
C1121 C1120 1.370 . S
C1121 C1125 1.408 . S
C1122 C1120 1.363 . S
C1122 C1123 1.370 . S
C1122 C1126 1.524 . S
C1123 C1115 1.503 . S
C1123 C1122 1.370 . S
C1123 C1124 1.403 . S
C1124 C1123 1.403 . S
C1124 C1125 1.404 . S
C1124 C1127 1.539 . S
C1125 C1121 1.408 . S
C1125 C1124 1.404 . S
C1125 H1137 0.930 . S
C1126 C1122 1.524 . S
C1126 H1138 0.956 . S
C1126 H1139 0.961 . S
C1126 H1140 0.961 . S
C1127 C1124 1.539 . S
C1127 H1141 0.958 . S
C1127 H1142 0.961 . S
C1127 H1143 0.960 . S
H1128 C1112 0.931 . S
H1129 C1117 0.929 . S
H1130 C1118 0.960 . S
H1131 C1118 0.962 . S
H1132 C1118 0.960 . S
H1133 C1119 0.961 . S
H1134 C1119 0.961 . S
H1135 C1119 0.961 . S
H1136 C1120 0.931 . S
H1137 C1125 0.930 . S
H1138 C1126 0.956 . S
H1139 C1126 0.961 . S
H1140 C1126 0.961 . S
H1141 C1127 0.958 . S
H1142 C1127 0.961 . S
H1143 C1127 0.960 . S
C385 C118 1.533 . S
C377 C5 1.418 . S
C417 C157 1.565 . S
C409 C16 1.252 . S
C449 C133 1.707 . S
C441 C30 1.703 . S
C481 C172 1.668 . S
C473 C40 1.645 . S
C513 C220 1.463 . S
C505 C8 1.470 . S
C545 C253 1.487 . S
C537 C18 1.433 . S
C569 C29 1.739 . S
C577 C310 1.787 . S
C609 C358 1.549 . S
C601 C38 1.291 . S
C641 C205 1.418 . S
C633 C19 1.433 . S
C665 C27 1.445 . S
C673 C268 1.631 . S
C705 C325 1.608 . S
C697 C41 1.598 . S
C737 C373 1.545 . S
C729 C7 1.519 . S
C761 C52 1.619 . S
C769 C166 1.627 . S
C801 C109 1.595 . S
C793 C62 1.581 . S
C825 C74 1.445 . S
C833 C181 1.443 . S
C857 C82 1.209 . S
C865 C124 1.409 . S
C897 C301 1.840 . S
C889 C51 1.747 . S
C929 C364 1.607 . S
C921 C60 1.349 . S
C961 C229 1.494 . S
C953 C71 1.190 . S
C985 C84 1.429 . S
C993 C277 1.527 . S
C1025 C316 1.714 . S
C1017 C63 1.704 . S
C1057 C349 1.494 . S
C1049 C73 1.434 . S
C1089 C214 1.562 . S
C1081 C85 1.553 . S
C1113 C49 1.354 . S
C1121 C262 1.650 . S
