# Generated by pormake.
# Topology zzz, (3,6)-cn, num edge types: 1
# Building blocks:
#     Node 0, Type 0, BuildingBlock: VETTIZ_charged_linker_0, # of connection points: 3
#     Node 1, Type 0, BuildingBlock: VETTIZ_charged_linker_0, # of connection points: 3
#     Node 2, Type 0, BuildingBlock: VETTIZ_charged_linker_0, # of connection points: 3
#     Node 3, Type 0, BuildingBlock: VETTIZ_charged_linker_0, # of connection points: 3
#     Node 4, Type 0, BuildingBlock: VETTIZ_charged_linker_0, # of connection points: 3
#     Node 5, Type 0, BuildingBlock: VETTIZ_charged_linker_0, # of connection points: 3
#     Node 6, Type 0, BuildingBlock: VETTIZ_charged_linker_0, # of connection points: 3
#     Node 7, Type 0, BuildingBlock: VETTIZ_charged_linker_0, # of connection points: 3
#     Node 8, Type 1, BuildingBlock: INOVEN_clean_sbu_0, # of connection points: 6
#     Node 9, Type 1, BuildingBlock: INOVEN_clean_sbu_0, # of connection points: 6
#     Node 10, Type 1, BuildingBlock: INOVEN_clean_sbu_0, # of connection points: 6
#     Node 11, Type 1, BuildingBlock: INOVEN_clean_sbu_0, # of connection points: 6
#     Edge 12, Type (0, 1), BuildingBlock: MIFKUJ_clean_linker_0, # of connection points: 2
#     Edge 13, Type (0, 1), BuildingBlock: MIFKUJ_clean_linker_0, # of connection points: 2
#     Edge 14, Type (0, 1), BuildingBlock: MIFKUJ_clean_linker_0, # of connection points: 2
#     Edge 15, Type (0, 1), BuildingBlock: MIFKUJ_clean_linker_0, # of connection points: 2
#     Edge 16, Type (0, 1), BuildingBlock: MIFKUJ_clean_linker_0, # of connection points: 2
#     Edge 17, Type (0, 1), BuildingBlock: MIFKUJ_clean_linker_0, # of connection points: 2
#     Edge 18, Type (0, 1), BuildingBlock: MIFKUJ_clean_linker_0, # of connection points: 2
#     Edge 19, Type (0, 1), BuildingBlock: MIFKUJ_clean_linker_0, # of connection points: 2
#     Edge 20, Type (0, 1), BuildingBlock: MIFKUJ_clean_linker_0, # of connection points: 2
#     Edge 21, Type (0, 1), BuildingBlock: MIFKUJ_clean_linker_0, # of connection points: 2
#     Edge 22, Type (0, 1), BuildingBlock: MIFKUJ_clean_linker_0, # of connection points: 2
#     Edge 23, Type (0, 1), BuildingBlock: MIFKUJ_clean_linker_0, # of connection points: 2
#     Edge 24, Type (0, 1), BuildingBlock: MIFKUJ_clean_linker_0, # of connection points: 2
#     Edge 25, Type (0, 1), BuildingBlock: MIFKUJ_clean_linker_0, # of connection points: 2
#     Edge 26, Type (0, 1), BuildingBlock: MIFKUJ_clean_linker_0, # of connection points: 2
#     Edge 27, Type (0, 1), BuildingBlock: MIFKUJ_clean_linker_0, # of connection points: 2
#     Edge 28, Type (0, 1), BuildingBlock: MIFKUJ_clean_linker_0, # of connection points: 2
#     Edge 29, Type (0, 1), BuildingBlock: MIFKUJ_clean_linker_0, # of connection points: 2
#     Edge 30, Type (0, 1), BuildingBlock: MIFKUJ_clean_linker_0, # of connection points: 2
#     Edge 31, Type (0, 1), BuildingBlock: MIFKUJ_clean_linker_0, # of connection points: 2
#     Edge 32, Type (0, 1), BuildingBlock: MIFKUJ_clean_linker_0, # of connection points: 2
#     Edge 33, Type (0, 1), BuildingBlock: MIFKUJ_clean_linker_0, # of connection points: 2
#     Edge 34, Type (0, 1), BuildingBlock: MIFKUJ_clean_linker_0, # of connection points: 2
#     Edge 35, Type (0, 1), BuildingBlock: MIFKUJ_clean_linker_0, # of connection points: 2
# Relax obj value: 0.405
# Max RMSD: 0.276
# Mean RMSD: 0.252
data_MOF--net-zzz--node1-INOVEN_clean_sbu_0--node2-VETTIZ_charged_linker_0--edge1-MIFKUJ_clean_linker_0
_symmetry_space_group_name_H-M    P1
_symmetry_Int_Tables_number       1
_symmetry_cell_setting            triclinic
loop_
_symmetry_equiv_pos_as_xyz
'x, y, z'
_cell_length_a     73.900326
_cell_length_b     73.807259
_cell_length_c     22.720551
_cell_angle_alpha  89.864134
_cell_angle_beta   89.927278
_cell_angle_gamma 90.511956
loop_
_atom_site_label
_atom_site_type_symbol
_atom_site_fract_x
_atom_site_fract_y
_atom_site_fract_z
_atom_type_partial_charge
C0 C 0.77029 0.52466 0.40596 0.0
C1 C 0.78876 0.51904 0.40334 0.0
C2 C 0.79485 0.51021 0.35239 0.0
C3 C 0.76715 0.51745 0.30269 0.0
C4 C 0.75932 0.52293 0.35449 0.0
C5 C 0.73934 0.5275 0.34328 0.0
H6 H 0.67688 0.546 0.12404 0.0
C7 C 0.75512 0.52165 0.25379 0.0
C8 C 0.73771 0.525 0.27596 0.0
H9 H 0.66443 0.50726 0.26024 0.0
H10 H 0.69572 0.5103 0.29863 0.0
H11 H 0.71017 0.57239 0.18557 0.0
H12 H 0.70355 0.5227 0.08986 0.0
H13 H 0.72449 0.53082 0.06694 0.0
H14 H 0.70465 0.54417 0.05284 0.0
H15 H 0.70432 0.57128 0.10898 0.0
H16 H 0.72763 0.57188 0.13303 0.0
C17 C 0.73557 0.54723 0.36088 0.0
C18 C 0.72707 0.5143 0.37749 0.0
C19 C 0.78645 0.54252 0.06744 0.0
C20 C 0.78008 0.55079 0.0161 0.0
C21 C 0.7622 0.55671 0.01255 0.0
C22 C 0.75048 0.55387 0.06009 0.0
C23 C 0.75669 0.54438 0.11001 0.0
C24 C 0.77453 0.53928 0.11361 0.0
C25 C 0.77885 0.52921 0.16921 0.0
C26 C 0.76023 0.52847 0.19781 0.0
C27 C 0.74756 0.53747 0.16308 0.0
C28 C 0.79258 0.54097 0.2041 0.0
C29 C 0.786 0.51006 0.15359 0.0
C30 C 0.68034 0.53909 0.16466 0.0
C31 C 0.66802 0.52695 0.19009 0.0
C32 C 0.6735 0.51722 0.24087 0.0
C33 C 0.69139 0.51916 0.26366 0.0
C34 C 0.70382 0.53088 0.23535 0.0
C35 C 0.69817 0.53984 0.1848 0.0
C36 C 0.71363 0.54536 0.14612 0.0
C37 C 0.72936 0.53824 0.18095 0.0
C38 C 0.72404 0.53121 0.23582 0.0
C39 C 0.714 0.56631 0.14259 0.0
C40 C 0.71156 0.53548 0.08567 0.0
H41 H 0.7895 0.50277 0.26412 0.0
H42 H 0.76492 0.53074 0.4455 0.0
H43 H 0.72824 0.50033 0.35972 0.0
H44 H 0.71277 0.51859 0.37516 0.0
H45 H 0.73092 0.51404 0.42476 0.0
H46 H 0.74483 0.55669 0.33706 0.0
H47 H 0.73756 0.54915 0.40895 0.0
H48 H 0.72142 0.55089 0.34988 0.0
H49 H 0.80024 0.53766 0.0701 0.0
H50 H 0.75723 0.56299 0.97265 0.0
H51 H 0.73686 0.55845 0.05486 0.0
H52 H 0.78628 0.55388 0.21828 0.0
H53 H 0.80456 0.54437 0.1765 0.0
H54 H 0.79796 0.53416 0.24339 0.0
H55 H 0.78492 0.50698 0.10583 0.0
H56 H 0.77802 0.4992 0.17573 0.0
H57 H 0.80048 0.50862 0.16577 0.0
H58 H 0.80853 0.50504 0.35005 0.0
C59 C 0.78404 0.50916 0.30244 0.0
C60 C 0.99565 0.76646 0.01405 0.0
C61 C 0.98748 0.78327 1.00398 0.0
C62 C 0.97979 0.79254 0.05224 0.0
C63 C 0.99148 0.77006 0.11885 0.0
C64 C 0.99788 0.76037 0.0716 0.0
C65 C 0.00906 0.74449 0.08978 0.0
H66 H 0.99737 0.6776 0.25696 0.0
C67 C 0.99771 0.76111 0.17277 0.0
C68 C 0.00764 0.7459 0.15654 0.0
H69 H 0.02976 0.68125 0.09785 0.0
H70 H 0.03409 0.71326 0.11406 0.0
H71 H 0.02854 0.71575 0.33265 0.0
H72 H 0.97462 0.7182 0.25608 0.0
H73 H 0.97835 0.72528 0.33097 0.0
H74 H 0.97895 0.70157 0.31253 0.0
H75 H 0.01244 0.69821 0.35178 0.0
H76 H 0.00908 0.72079 0.37785 0.0
C77 C 0.02874 0.74795 0.06866 0.0
C78 C 1.00033 0.72701 0.06376 0.0
C79 C 0.99208 0.79375 0.3645 0.0
C80 C 1.00174 0.79207 0.41728 0.0
C81 C 0.01114 0.77563 0.42733 0.0
C82 C 0.01062 0.76127 0.38545 0.0
C83 C 1.00065 0.76336 0.33314 0.0
C84 C 0.99239 0.77987 0.32267 0.0
C85 C 0.98779 0.7825 0.25904 0.0
C86 C 0.99538 0.7654 0.23274 0.0
C87 C 1.00133 0.75334 0.27622 0.0
C88 C 0.99784 0.79981 0.23639 0.0
C89 C 0.96691 0.78306 0.2536 0.0
C90 C 1.00527 0.68539 0.22556 0.0
C91 C 0.01244 0.67699 0.17394 0.0
C92 C 0.02356 0.68734 0.13621 0.0
C93 C 0.02581 0.70586 0.14469 0.0
C94 C 0.01654 0.71426 0.19036 0.0
C95 C 0.00839 0.7043 0.23426 0.0
C96 C 1.00293 0.71706 0.28451 0.0
C97 C 0.00784 0.73588 0.25891 0.0
C98 C 0.01319 0.73341 0.20012 0.0
C99 C 0.01394 0.71276 0.33993 0.0
C100 C 0.98249 0.71541 0.29673 0.0
H101 H 0.97589 0.79381 0.14421 0.0
H102 H 1.0013 0.75865 0.97835 0.0
H103 H 0.99229 0.72978 0.0235 0.0
H104 H 0.99097 0.72043 0.09578 0.0
H105 H 0.01061 0.71715 0.04936 0.0
H106 H 0.03244 0.76256 0.07195 0.0
H107 H 0.03046 0.74379 0.02203 0.0
H108 H 0.03881 0.74091 0.09609 0.0
H109 H 0.98574 0.80647 0.35314 0.0
H110 H 0.01921 0.77408 0.46673 0.0
H111 H 0.01888 0.74948 0.39237 0.0
H112 H 0.0109 0.80188 0.25988 0.0
H113 H 0.98957 0.81212 0.24323 0.0
H114 H 1.00184 0.79916 0.1897 0.0
H115 H 0.96035 0.77375 0.28601 0.0
H116 H 0.96201 0.77832 0.21026 0.0
H117 H 0.96175 0.7969 0.26199 0.0
H118 H 0.9736 0.80566 0.04706 0.0
C119 C 0.98144 0.78581 0.10938 0.0
C120 C 0.83293 1.00742 0.22626 0.0
C121 C 0.84275 0.99788 0.18222 0.0
C122 C 0.83501 0.98215 0.15767 0.0
C123 C 0.80699 0.98816 0.20742 0.0
C124 C 0.81503 1.00161 0.24024 0.0
C125 C 0.80151 0.00879 0.28549 0.0
H126 H 0.71103 0.01684 0.35115 0.0
C127 C 0.78752 0.98829 0.21758 0.0
C128 C 0.78408 0.99841 0.26888 0.0
H129 H 0.74921 1.00238 0.48571 0.0
H130 H 0.77319 0.99935 0.40991 0.0
H131 H 0.7377 0.03905 0.25544 0.0
H132 H 0.71971 0.98464 0.28878 0.0
H133 H 0.72005 0.98657 0.21232 0.0
H134 H 0.70568 1.00128 0.25414 0.0
H135 H 0.71594 0.03089 0.23225 0.0
H136 H 0.7357 0.02921 0.18553 0.0
C137 C 0.79916 0.02937 0.27794 0.0
C138 C 0.80797 1.00416 0.34789 0.0
C139 C 0.7506 0.9812 0.03035 0.0
C140 C 0.73344 0.98754 0.01563 0.0
C141 C 0.72317 0.9972 0.05687 0.0
C142 C 0.72977 1.00023 0.11319 0.0
C143 C 0.74675 0.99338 0.1285 0.0
C144 C 0.75711 0.98449 0.08721 0.0
C145 C 0.77514 0.97893 0.11139 0.0
C146 C 0.7739 0.98647 0.17396 0.0
C147 C 0.75703 0.99435 0.18339 0.0
C148 C 0.79033 0.98783 0.07339 0.0
C149 C 0.77571 0.958 0.11161 0.0
C150 C 0.72478 0.01422 0.36516 0.0
C151 C 0.7284 0.0107 0.42434 0.0
C152 C 0.74627 1.00595 0.44049 0.0
C153 C 0.76017 1.00456 0.39728 0.0
C154 C 0.7561 1.00804 0.33781 0.0
C155 C 0.73835 0.01195 0.32293 0.0
C156 C 0.73467 0.00916 0.25885 0.0
C157 C 0.75266 1.00191 0.23845 0.0
C158 C 0.76574 1.00285 0.2828 0.0
C159 C 0.73064 0.02795 0.23127 0.0
C160 C 0.71918 0.99482 0.2526 0.0
H161 H 0.81176 0.9652 0.15049 0.0
H162 H 0.83884 0.01913 0.24769 0.0
H163 H 0.80742 0.98928 0.35564 0.0
H164 H 0.79958 0.01103 0.38134 0.0
H165 H 0.82215 0.00888 0.35439 0.0
H166 H 0.79491 0.03266 0.23224 0.0
H167 H 0.81204 0.03668 0.28731 0.0
H168 H 0.78866 0.03445 0.30866 0.0
H169 H 0.75864 0.97386 0.99858 0.0
H170 H 0.70995 1.00237 0.04533 0.0
H171 H 0.72121 1.0075 0.14271 0.0
H172 H 0.79498 1.00089 0.09258 0.0
H173 H 0.78581 0.99084 0.02782 0.0
H174 H 0.80205 0.97877 0.06757 0.0
H175 H 0.76261 0.95217 0.12721 0.0
H176 H 0.78607 0.95266 0.14181 0.0
H177 H 0.77833 0.95275 0.06663 0.0
H178 H 0.84241 0.97427 0.12559 0.0
C179 C 0.81724 0.97715 0.17071 0.0
C180 C 0.50545 0.75173 0.40787 0.0
C181 C 0.51503 0.7352 0.41691 0.0
C182 C 0.53121 0.73248 0.38564 0.0
C183 C 0.52601 0.75937 0.32839 0.0
C184 C 0.51185 0.76418 0.36425 0.0
C185 C 0.50513 0.78304 0.34643 0.0
H186 H 0.49846 0.84339 0.11844 0.0
C187 C 0.52721 0.77188 0.27864 0.0
C188 C 0.51668 0.78722 0.29132 0.0
H189 H 0.51124 0.86313 0.29149 0.0
H190 H 0.51396 0.83145 0.3273 0.0
H191 H 0.53313 0.82849 0.12828 0.0
H192 H 0.4811 0.80245 0.13725 0.0
H193 H 0.49465 0.78764 0.0968 0.0
H194 H 0.49109 0.81035 0.06982 0.0
H195 H 0.52087 0.82243 0.06301 0.0
H196 H 0.53697 0.80741 0.09717 0.0
C197 C 0.50881 0.79656 0.39633 0.0
C198 C 0.48486 0.78224 0.33123 0.0
C199 C 0.53526 0.73977 0.08432 0.0
C200 C 0.52934 0.74456 0.02773 0.0
C201 C 0.52553 0.76269 0.01482 0.0
C202 C 0.52507 0.77543 0.05957 0.0
C203 C 0.52871 0.77001 0.11769 0.0
C204 C 0.53438 0.75264 0.12919 0.0
C205 C 0.53804 0.74957 0.1936 0.0
C206 C 0.53154 0.76751 0.21941 0.0
C207 C 0.52625 0.77918 0.17428 0.0
C208 C 0.55873 0.74745 0.20042 0.0
C209 C 0.52702 0.73281 0.2159 0.0
C210 C 0.5005 0.84108 0.16514 0.0
C211 C 0.50391 0.85571 0.20222 0.0
C212 C 0.50789 0.85205 0.2622 0.0
C213 C 0.50922 0.83384 0.2831 0.0
C214 C 0.50689 0.81933 0.24342 0.0
C215 C 0.50384 0.82354 0.18472 0.0
C216 C 0.51029 0.80914 0.14413 0.0
C217 C 0.51736 0.79547 0.1873 0.0
C218 C 0.51388 0.8004 0.24568 0.0
C219 C 0.52599 0.81716 0.10562 0.0
C220 C 0.49356 0.80201 0.10969 0.0
H221 H 0.54919 0.74188 0.31943 0.0
H222 H 0.49346 0.75468 0.43335 0.0
H223 H 0.48226 0.77216 0.29588 0.0
H224 H 0.48014 0.79567 0.31565 0.0
H225 H 0.47673 0.77832 0.3705 0.0
H226 H 0.5236 0.79847 0.40311 0.0
H227 H 0.50275 0.79157 0.4382 0.0
H228 H 0.50266 0.80985 0.38646 0.0
H229 H 0.5387 0.72589 0.09464 0.0
H230 H 0.52125 0.76665 0.97105 0.0
H231 H 0.52069 0.78864 0.04703 0.0
H232 H 0.56618 0.757 0.17091 0.0
H233 H 0.5629 0.73346 0.18901 0.0
H234 H 0.56352 0.75073 0.24511 0.0
H235 H 0.52384 0.72292 0.1807 0.0
H236 H 0.51379 0.73687 0.23483 0.0
H237 H 0.53462 0.72489 0.2489 0.0
H238 H 0.53918 0.72042 0.39304 0.0
C239 C 0.53684 0.74461 0.34226 0.0
C240 C 0.33051 0.50758 0.1159 0.0
C241 C 0.342 0.49853 0.15699 0.0
C242 C 0.33661 0.48147 0.17905 0.0
C243 C 0.30754 0.48496 0.13454 0.0
C244 C 0.31321 0.49986 0.10337 0.0
C245 C 0.29863 0.50476 0.05778 0.0
H246 H 0.20999 0.48441 0.97204 0.0
C247 C 0.28872 0.48137 0.12286 0.0
C248 C 0.28305 0.49158 0.07434 0.0
H249 H 0.24564 0.52121 0.87959 0.0
H250 H 0.2696 0.51555 0.95304 0.0
H251 H 0.23758 0.45294 0.00978 0.0
H252 H 0.21353 0.4994 0.07856 0.0
H253 H 0.22483 0.49253 0.14277 0.0
H254 H 0.20748 0.47829 0.1102 0.0
H255 H 0.21461 0.45657 0.03295 0.0
H256 H 0.23137 0.4482 0.08348 0.0
C257 C 0.30609 0.50084 0.99594 0.0
C258 C 0.29308 0.52463 0.06513 0.0
C259 C 0.25017 0.47165 0.30072 0.0
C260 C 0.23133 0.47006 0.30612 0.0
C261 C 0.22111 0.46387 0.25761 0.0
C262 C 0.22929 0.46185 0.20259 0.0
C263 C 0.24751 0.46676 0.19605 0.0
C264 C 0.25801 0.47 0.24506 0.0
C265 C 0.27744 0.47348 0.2295 0.0
C266 C 0.27614 0.47366 0.16216 0.0
C267 C 0.25835 0.47113 0.14368 0.0
C268 C 0.28879 0.45783 0.25492 0.0
C269 C 0.28356 0.49208 0.25424 0.0
C270 C 0.22309 0.49091 0.96609 0.0
C271 C 0.22607 0.50269 0.91885 0.0
C272 C 0.24308 0.51171 0.91507 0.0
C273 C 0.25696 0.50834 0.95714 0.0
C274 C 0.25362 0.49615 1.00391 0.0
C275 C 0.23662 0.48814 0.00788 0.0
C276 C 0.2339 0.47753 0.06309 0.0
C277 C 0.25263 0.4787 0.08946 0.0
C278 C 0.26453 0.48961 0.05527 0.0
C279 C 0.22898 0.45774 0.04676 0.0
C280 C 0.21925 0.48728 0.10077 0.0
H281 H 0.31599 0.46097 0.1808 0.0
H282 H 0.33482 0.52008 0.09499 0.0
H283 H 0.28848 0.52716 0.11099 0.0
H284 H 0.28184 0.52813 0.03514 0.0
H285 H 0.30468 0.53386 0.05548 0.0
H286 H 0.31073 0.48657 0.99299 0.0
H287 H 0.31779 0.5099 0.98593 0.0
H288 H 0.29577 0.50279 0.96155 0.0
H289 H 0.25835 0.47561 0.33812 0.0
H290 H 0.20658 0.46215 0.26072 0.0
H291 H 0.22101 0.45752 0.16651 0.0
H292 H 0.28307 0.45269 0.29713 0.0
H293 H 0.3027 0.46236 0.26611 0.0
H294 H 0.28929 0.44624 0.22384 0.0
H295 H 0.27488 0.50311 0.2369 0.0
H296 H 0.29778 0.49526 0.2424 0.0
H297 H 0.28285 0.49225 0.30304 0.0
H298 H 0.34549 0.47375 0.20741 0.0
C299 C 0.31954 0.47447 0.16661 0.0
C300 C 0.99499 0.26688 0.29154 0.0
C301 C 1.00603 0.25327 0.31462 0.0
C302 C 0.02157 0.24775 0.28359 0.0
C303 C 0.01225 0.26595 0.20186 0.0
C304 C 0.99874 0.27344 0.23525 0.0
C305 C 0.98983 0.28901 0.20439 0.0
H306 H 0.02812 0.35126 0.07404 0.0
C307 C 0.01165 0.27389 0.14376 0.0
C308 C 0.99936 0.28816 0.14464 0.0
H309 H 0.97934 0.35382 0.17969 0.0
H310 H 0.97134 0.32296 0.14946 0.0
H311 H 0.04174 0.3089 0.09266 0.0
H312 H 1.00186 0.31975 0.95618 0.0
H313 H 0.02309 0.30941 0.9371 0.0
H314 H 0.02252 0.33292 0.95787 0.0
H315 H 0.04673 0.32581 0.03736 0.0
H316 H 0.04628 0.30223 0.01784 0.0
C317 C 0.99394 0.30647 0.24015 0.0
C318 C 0.9694 0.28507 0.19843 0.0
C319 C 0.02341 0.2341 0.97204 0.0
C320 C 0.01811 0.23558 0.9129 0.0
C321 C 0.01254 0.25287 0.89229 0.0
C322 C 0.01257 0.26822 0.93014 0.0
C323 C 0.01815 0.26621 0.98888 0.0
C324 C 0.02288 0.24919 0.00921 0.0
C325 C 0.0246 0.24853 0.07505 0.0
C326 C 0.01889 0.26774 0.09036 0.0
C327 C 0.01681 0.27852 0.04026 0.0
C328 C 0.04453 0.2446 0.09169 0.0
C329 C 0.01127 0.23401 0.09953 0.0
C330 C 0.01558 0.34531 0.0898 0.0
C331 C 1.00472 0.35463 0.13174 0.0
C332 C 0.98814 0.34677 0.14938 0.0
C333 C 0.98366 0.32906 0.13316 0.0
C334 C 0.99601 0.31921 0.10008 0.0
C335 C 0.01024 0.32759 0.07202 0.0
C336 C 0.01941 0.31397 0.03135 0.0
C337 C 0.00923 0.29618 0.0459 0.0
C338 C 0.99801 0.29968 0.09484 0.0
C339 C 0.03974 0.31266 0.0457 0.0
C340 C 0.01653 0.31932 0.96677 0.0
H341 H 0.03686 0.25031 0.20402 0.0
H342 H 0.98339 0.27174 0.31586 0.0
H343 H 0.96703 0.27135 0.17957 0.0
H344 H 0.96282 0.29491 0.16877 0.0
H345 H 0.96261 0.28568 0.24203 0.0
H346 H 1.00651 0.31329 0.22431 0.0
H347 H 0.99589 0.30361 0.28777 0.0
H348 H 0.98255 0.31608 0.23907 0.0
H349 H 0.02703 0.22106 0.99024 0.0
H350 H 0.00805 0.25446 0.84726 0.0
H351 H 0.00772 0.28111 0.91427 0.0
H352 H 0.05228 0.23882 0.05428 0.0
H353 H 0.04545 0.23441 0.12752 0.0
H354 H 0.05178 0.25713 0.10567 0.0
H355 H 0.99714 0.23714 0.08644 0.0
H356 H 0.01171 0.23301 0.14795 0.0
H357 H 0.01463 0.22031 0.08296 0.0
H358 H 0.03039 0.23745 0.30137 0.0
C359 C 0.02492 0.25442 0.2271 0.0
C360 C 0.27193 0.02132 0.93246 0.0
C361 C 0.28731 0.03124 0.91096 0.0
C362 C 0.28965 0.04941 0.92863 0.0
C363 C 0.26565 0.04594 0.99861 0.0
C364 C 0.26063 0.02954 0.9755 0.0
C365 C 0.24216 0.02397 1.00141 0.0
H366 H 0.18375 0.04075 0.23614 0.0
C367 C 0.25456 0.04999 0.04912 0.0
C368 C 0.23952 0.03826 0.05032 0.0
H369 H 0.17077 1.00588 0.09009 0.0
H370 H 0.20037 0.01317 0.04457 0.0
H371 H 0.21823 0.0279 0.2589 0.0
H372 H 0.20054 0.07369 0.16502 0.0
H373 H 0.21963 0.08082 0.20544 0.0
H374 H 0.20076 0.07043 0.24344 0.0
H375 H 0.22047 0.04962 0.29173 0.0
H376 H 0.23898 0.03943 0.25202 0.0
C377 C 0.24284 1.00466 0.02652 0.0
C378 C 0.22792 0.02583 0.95246 0.0
C379 C 0.28999 0.06963 0.22569 0.0
C380 C 0.28495 0.07134 0.28503 0.0
C381 C 0.26658 0.07362 0.29931 0.0
C382 C 0.25333 0.07205 0.25574 0.0
C383 C 0.25855 0.06765 0.19808 0.0
C384 C 0.2766 0.06775 0.18297 0.0
C385 C 0.27963 0.06343 0.11925 0.0
C386 C 0.26017 0.0593 0.10005 0.0
C387 C 0.24828 0.0607 0.14742 0.0
C388 C 0.29191 0.04658 0.11425 0.0
C389 C 0.28816 0.08029 0.08917 0.0
C390 C 0.18701 0.03478 0.19392 0.0
C391 C 0.17493 0.02283 0.16686 0.0
C392 C 0.17985 0.01531 0.11177 0.0
C393 C 0.19687 0.01958 0.08533 0.0
C394 C 0.20884 0.03167 0.11388 0.0
C395 C 0.20355 0.03892 0.16737 0.0
C396 C 0.21748 0.05093 0.19436 0.0
C397 C 0.23159 0.05121 0.14638 0.0
C398 C 0.22701 0.03967 0.09887 0.0
C399 C 0.22416 0.04166 0.25215 0.0
C400 C 0.20923 0.06998 0.20307 0.0
H401 H 0.27978 0.07106 0.98161 0.0
H402 H 0.26893 1.00783 0.91639 0.0
H403 H 0.22826 0.03975 0.93355 0.0
H404 H 0.21408 0.02332 0.96869 0.0
H405 H 0.23064 0.01608 0.91637 0.0
H406 H 0.25366 1.00363 0.06031 0.0
H407 H 0.2457 0.99473 0.99109 0.0
H408 H 0.22979 1.00086 0.04744 0.0
H409 H 0.30402 0.06802 0.21323 0.0
H410 H 0.26242 0.07543 0.34463 0.0
H411 H 0.23953 0.07337 0.26919 0.0
H412 H 0.28574 0.0348 0.13769 0.0
H413 H 0.30549 0.04928 0.13326 0.0
H414 H 0.29424 0.04262 0.06797 0.0
H415 H 0.29619 0.08863 0.12056 0.0
H416 H 0.27759 0.08918 0.07019 0.0
H417 H 0.29796 0.07645 0.05449 0.0
H418 H 0.30053 0.05771 0.91079 0.0
C419 C 0.2785 0.05691 0.97121 0.0
C420 C 0.50236 0.27565 0.90924 0.0
C421 C 0.5111 0.29304 0.90872 0.0
C422 C 0.5232 0.29733 0.95453 0.0
C423 C 0.51395 0.27055 0.00712 0.0
C424 C 0.50488 0.26404 0.95883 0.0
C425 C 0.49822 0.24462 0.97178 0.0
H426 H 0.48127 0.18308 0.19632 0.0
C427 C 0.51033 0.25878 0.0573 0.0
C428 C 0.50367 0.2421 0.03691 0.0
H429 H 0.51425 0.16804 0.04856 0.0
H430 H 0.51312 0.19963 0.0109 0.0
H431 H 0.5083 0.20706 0.2222 0.0
H432 H 0.457 0.21983 0.14472 0.0
H433 H 0.46154 0.23641 0.1984 0.0
H434 H 0.45997 0.21285 0.21984 0.0
H435 H 0.48868 0.21085 0.26685 0.0
H436 H 0.50411 0.22886 0.2465 0.0
C437 C 0.50791 0.23119 0.93133 0.0
C438 C 0.47758 0.24329 0.96421 0.0
C439 C 0.50173 0.29151 0.24989 0.0
C440 C 0.4947 0.28599 0.30429 0.0
C441 C 0.48627 0.26905 0.31049 0.0
C442 C 0.48534 0.25735 0.26226 0.0
C443 C 0.49369 0.26252 0.20888 0.0
C444 C 0.50132 0.27951 0.20301 0.0
C445 C 0.50952 0.28282 0.1435 0.0
C446 C 0.50629 0.26446 0.11522 0.0
C447 C 0.49696 0.25286 0.15353 0.0
C448 C 0.53002 0.28719 0.14988 0.0
C449 C 0.49861 0.29815 0.1138 0.0
C450 C 0.48709 0.18613 0.15352 0.0
C451 C 0.49692 0.17293 0.12389 0.0
C452 C 0.5059 0.17785 0.07092 0.0
C453 C 0.50501 0.19587 0.0486 0.0
C454 C 0.49538 0.20904 0.08022 0.0
C455 C 0.48763 0.20407 0.13375 0.0
C456 C 0.4854 0.21988 0.1741 0.0
C457 C 0.49304 0.23496 0.13652 0.0
C458 C 0.4972 0.22915 0.07943 0.0
C459 C 0.49702 0.2166 0.23053 0.0
C460 C 0.46494 0.22241 0.18549 0.0
H461 H 0.53411 0.28979 0.0374 0.0
H462 H 0.49378 0.27148 0.87308 0.0
H463 H 0.47068 0.2533 0.99281 0.0
H464 H 0.47262 0.22952 0.97642 0.0
H465 H 0.4737 0.24598 0.91778 0.0
H466 H 0.52266 0.23103 0.94076 0.0
H467 H 0.506 0.23505 0.88444 0.0
H468 H 0.50229 0.21733 0.9372 0.0
H469 H 0.50842 0.30457 0.24506 0.0
H470 H 0.48093 0.26474 0.35273 0.0
H471 H 0.47894 0.24444 0.26931 0.0
H472 H 0.53453 0.28776 0.19648 0.0
H473 H 0.53349 0.30044 0.12966 0.0
H474 H 0.53853 0.27671 0.12867 0.0
H475 H 0.49805 0.31027 0.14259 0.0
H476 H 0.48448 0.29362 0.10505 0.0
H477 H 0.50457 0.30285 0.072 0.0
H478 H 0.5307 0.31002 0.95424 0.0
C479 C 0.52487 0.28599 1.00318 0.0
Gd480 Gd 0.02148 0.01035 0.72155 0.0
Gd481 Gd 0.99304 0.01672 0.61777 0.0
C482 C 1.00506 0.9755 0.64715 0.0
C483 C 0.03465 1.00108 0.82107 0.0
C484 C 0.03241 0.98327 0.84809 0.0
C485 C 0.04751 0.97427 0.8708 0.0
C486 C 0.01642 0.97353 0.83691 0.0
C487 C 0.03097 0.94582 0.86584 0.0
C488 C 0.01561 0.95504 0.84641 0.0
C489 C 0.04683 0.95553 0.87937 0.0
C490 C 0.03943 0.01633 0.61789 0.0
C491 C 0.00982 0.05155 0.69151 0.0
C492 C 0.97976 0.02457 0.5169 0.0
C493 C 0.98228 0.04121 0.48307 0.0
C494 C 0.96692 0.05049 0.46395 0.0
C495 C 0.99915 0.05011 0.48405 0.0
C496 C 0.98464 0.07818 0.45816 0.0
C497 C 1.00036 0.06842 0.47076 0.0
C498 C 0.96806 0.06896 0.45179 0.0
C499 C 0.97504 0.01132 0.72178 0.0
O500 O 0.01474 0.98147 0.69262 0.0
O501 O 0.99596 0.98646 0.61192 0.0
O502 O 0.04404 1.00062 0.77232 0.0
O503 O 0.01996 0.01086 0.81676 0.0
O504 O 0.04719 0.01416 0.66849 0.0
O505 O 0.0225 0.01616 0.62671 0.0
O506 O 1.00088 0.04562 0.64427 0.0
O507 O 0.018 0.04047 0.72879 0.0
O508 O 0.97101 0.0271 0.56624 0.0
O509 O 0.99397 0.0142 0.52288 0.0
O510 O 0.96733 0.01385 0.67132 0.0
O511 O 0.99197 0.01106 0.71274 0.0
H512 H 0.06017 0.98148 0.87757 0.0
H513 H 1.00503 0.97979 0.81556 0.0
H514 H 1.00341 0.94778 0.83386 0.0
H515 H 0.05887 0.94855 0.89389 0.0
H516 H 0.95376 0.04391 0.46415 0.0
H517 H 0.01112 0.04345 0.50021 0.0
H518 H 0.01336 0.07522 0.47476 0.0
H519 H 0.95573 0.07624 0.44242 0.0
Gd520 Gd 0.51031 0.03008 0.71018 0.0
Gd521 Gd 0.50361 0.99936 0.63043 0.0
C522 C 0.5443 0.01202 0.64081 0.0
C523 C 0.52125 0.04685 0.80235 0.0
C524 C 0.5383 0.04348 0.83291 0.0
C525 C 0.55063 0.05782 0.84056 0.0
C526 C 0.54413 0.02555 0.83994 0.0
C527 C 0.57491 0.03625 0.85292 0.0
C528 C 0.56227 0.02197 0.84982 0.0
C529 C 0.56886 0.05423 0.85058 0.0
C530 C 0.5051 0.04559 0.60299 0.0
C531 C 0.46897 0.01954 0.69215 0.0
C532 C 0.49098 0.97711 0.55383 0.0
C533 C 0.4737 0.97778 0.52208 0.0
C534 C 0.45972 0.96563 0.53729 0.0
C535 C 0.47007 0.99226 0.48377 0.0
C536 C 0.43839 0.98361 0.4818 0.0
C537 C 0.45258 0.99516 0.46398 0.0
C538 C 0.44215 0.96856 0.51741 0.0
C539 C 0.51418 0.98894 0.73998 0.0
O540 O 0.53883 0.0205 0.68878 0.0
O541 O 0.53253 1.00421 0.6054 0.0
O542 O 0.52347 0.05333 0.74931 0.0
O543 O 0.5091 0.03386 0.80471 0.0
O544 O 0.50722 0.05431 0.6517 0.0
O545 O 0.50455 0.02866 0.613 0.0
O546 O 0.47479 1.00826 0.65109 0.0
O547 O 0.48034 0.02962 0.72281 0.0
O548 O 0.48949 0.97436 0.61049 0.0
O549 O 0.50287 0.98975 0.5407 0.0
O550 O 0.52019 0.98198 0.69157 0.0
O551 O 0.50313 1.00132 0.72744 0.0
H552 H 0.54642 0.07171 0.83414 0.0
H553 H 0.53501 0.01419 0.83292 0.0
H554 H 0.56654 1.00797 0.85053 0.0
H555 H 0.57834 0.06546 0.85354 0.0
H556 H 0.4622 0.95445 0.56709 0.0
H557 H 0.48049 1.00198 0.47157 0.0
H558 H 0.45004 1.00708 0.43743 0.0
H559 H 0.43144 0.9594 0.5314 0.0
Gd560 Gd 0.49024 0.51679 0.71706 0.0
Gd561 Gd 0.52008 0.51218 0.61605 0.0
C562 C 0.50505 0.55253 0.64435 0.0
C563 C 0.47481 0.52322 0.81584 0.0
C564 C 0.47235 0.54084 0.84412 0.0
C565 C 0.45511 0.54875 0.84359 0.0
C566 C 0.48753 0.55145 0.85893 0.0
C567 C 0.46882 0.57809 0.8602 0.0
C568 C 0.48575 0.56996 0.86689 0.0
C569 C 0.45335 0.56736 0.85149 0.0
C570 C 0.47397 0.51137 0.61009 0.0
C571 C 0.50454 0.47629 0.68753 0.0
C572 C 0.5345 0.50612 0.5155 0.0
C573 C 0.53364 0.48947 0.48194 0.0
C574 C 0.54808 0.48454 0.44568 0.0
C575 C 0.52013 0.47681 0.49633 0.0
C576 C 0.53626 0.45381 0.44277 0.0
C577 C 0.52142 0.45913 0.47702 0.0
C578 C 0.54935 0.46674 0.42579 0.0
C579 C 0.5368 0.51881 0.72131 0.0
O580 O 0.49559 0.54616 0.68999 0.0
O581 O 0.51489 0.54214 0.60955 0.0
O582 O 0.46583 0.52134 0.76667 0.0
O583 O 0.49144 0.51729 0.81217 0.0
O584 O 0.46539 0.51385 0.6591 0.0
O585 O 0.49066 0.51135 0.62244 0.0
O586 O 0.51421 0.48277 0.64246 0.0
O587 O 0.49497 0.48681 0.72273 0.0
O588 O 0.5433 0.50434 0.56505 0.0
O589 O 0.51912 0.51468 0.52126 0.0
O590 O 0.54504 0.51691 0.67136 0.0
O591 O 0.51992 0.51784 0.71127 0.0
H592 H 0.44323 0.54081 0.83213 0.0
H593 H 0.50098 0.5458 0.86004 0.0
H594 H 0.49777 0.57807 0.87524 0.0
H595 H 0.44016 0.57348 0.84678 0.0
H596 H 0.55883 0.49414 0.43561 0.0
H597 H 0.50926 0.48022 0.52616 0.0
H598 H 0.51138 0.44942 0.49234 0.0
H599 H 0.56087 0.46293 0.39921 0.0
Gd600 Gd 1.00383 0.49855 0.7069 0.0
Gd601 Gd 0.0111 0.53046 0.61321 0.0
C602 C 0.96982 0.51687 0.63424 0.0
C603 C 0.99702 0.48219 0.8041 0.0
C604 C 0.98332 0.48565 0.84873 0.0
C605 C 0.97134 0.47161 0.86416 0.0
C606 C 0.97941 0.50356 0.86448 0.0
C607 C 0.94985 0.4938 0.8979 0.0
C608 C 0.96278 0.50758 0.88923 0.0
C609 C 0.9546 0.47566 0.88869 0.0
C610 C 0.01217 0.48398 0.59996 0.0
C611 C 0.04504 0.51354 0.68746 0.0
C612 C 0.02119 0.54696 0.51932 0.0
C613 C 0.03941 0.54765 0.49306 0.0
C614 C 0.05077 0.5626 0.50458 0.0
C615 C 0.04661 0.5323 0.46536 0.0
C616 C 0.07656 0.54587 0.46896 0.0
C617 C 0.06505 0.53144 0.45337 0.0
C618 C 0.06924 0.56166 0.49304 0.0
C619 C 1.00311 0.54422 0.72234 0.0
O620 O 0.97517 0.50736 0.68112 0.0
O621 O 0.98137 0.52567 0.59954 0.0
O622 O 0.99027 0.47694 0.75349 0.0
O623 O 0.00992 0.49443 0.79887 0.0
O624 O 0.00903 0.47467 0.64729 0.0
O625 O 0.01123 0.50061 0.61338 0.0
O626 O 0.03962 0.52385 0.64293 0.0
O627 O 0.03372 0.50342 0.71896 0.0
O628 O 0.01982 0.55511 0.57023 0.0
O629 O 0.01276 0.53125 0.51813 0.0
O630 O 1.00638 0.55414 0.67632 0.0
O631 O 1.00383 0.52793 0.70606 0.0
H632 H 0.97413 0.45775 0.85168 0.0
H633 H 0.98839 0.51468 0.85264 0.0
H634 H 0.95938 0.52165 0.89619 0.0
H635 H 0.94478 0.46482 0.8946 0.0
H636 H 0.04556 0.5746 0.52582 0.0
H637 H 0.03826 0.52052 0.45601 0.0
H638 H 0.07045 0.51906 0.43509 0.0
H639 H 0.07789 0.57301 0.50474 0.0
H640 H 0.17236 0.00886 0.2768 0.0
H641 H 0.1458 1.00693 0.34011 0.0
H642 H 0.11229 0.02553 0.19729 0.0
H643 H 0.13934 0.02794 0.13367 0.0
H644 H 0.10227 0.04229 0.29519 0.0
H645 H 0.10965 0.98119 0.24678 0.0
H646 H 0.12517 0.95231 0.22906 0.0
H647 H 0.14044 0.94965 0.41118 0.0
H648 H 0.12527 0.97872 0.4298 0.0
H649 H 0.02754 0.01731 0.5006 0.0
H650 H 0.04658 0.01778 0.4112 0.0
H651 H 0.09434 0.01565 0.51935 0.0
H652 H 0.0757 0.01621 0.60745 0.0
H653 H 0.09203 0.98876 0.42389 0.0
H654 H 0.08525 0.05367 0.46232 0.0
H655 H 0.06596 0.08052 0.47429 0.0
H656 H 0.04496 0.07306 0.29978 0.0
H657 H 0.06393 0.04597 0.2872 0.0
C658 C 0.15927 0.01213 0.25832 0.0
C659 C 0.15794 0.01819 0.19973 0.0
C660 C 0.14402 0.01106 0.29473 0.0
C661 C 0.12681 0.01585 0.27376 0.0
C662 C 0.12533 0.02166 0.21477 0.0
C663 C 0.14074 0.02276 0.17805 0.0
C664 C 0.11075 0.01504 0.31462 0.0
C665 C 0.09986 0.03042 0.32238 0.0
C666 C 0.10721 0.9996 0.35029 0.0
C667 C 0.11641 0.98217 0.33959 0.0
C668 C 0.11644 0.97451 0.28296 0.0
C669 C 0.12516 0.95811 0.27277 0.0
C670 C 0.13381 0.94916 0.31896 0.0
C671 C 0.13374 0.95661 0.37545 0.0
C672 C 0.12507 0.97304 0.38587 0.0
C673 C 0.04205 0.01748 0.50523 0.0
C674 C 0.04997 0.01716 0.56155 0.0
C675 C 0.05296 0.01752 0.45407 0.0
C676 C 0.07197 0.01674 0.45844 0.0
C677 C 0.07977 0.01624 0.51456 0.0
C678 C 0.06899 0.01662 0.56512 0.0
C679 C 0.0841 0.01613 0.40557 0.0
C680 C 0.0943 1.00048 0.39584 0.0
C681 C 0.08659 0.03109 0.36723 0.0
C682 C 0.07582 0.04773 0.37407 0.0
C683 C 0.07644 0.05771 0.42665 0.0
C684 C 0.06557 0.07297 0.43354 0.0
C685 C 0.05418 0.07844 0.38793 0.0
C686 C 0.05375 0.06877 0.33513 0.0
C687 C 0.06456 0.05348 0.32808 0.0
H688 H 0.04567 0.09015 0.39353 0.0
H689 H 0.14053 0.93643 0.31099 0.0
H690 H 0.52575 0.16402 0.19187 0.0
H691 H 0.52741 0.13969 0.2648 0.0
H692 H 0.4758 0.11889 0.20556 0.0
H693 H 0.47377 0.14403 0.13511 0.0
H694 H 0.47447 0.11668 0.31311 0.0
H695 H 0.52044 0.09693 0.18382 0.0
H696 H 0.54782 0.09854 0.12188 0.0
H697 H 0.58004 0.11122 0.27376 0.0
H698 H 0.55279 0.10997 0.33648 0.0
H699 H 0.48715 0.03652 0.49916 0.0
H700 H 0.4859 0.05483 0.40785 0.0
H701 H 0.52224 0.0941 0.48479 0.0
H702 H 0.52301 0.07641 0.57564 0.0
H703 H 0.53053 0.08346 0.36191 0.0
H704 H 0.48135 0.10451 0.48697 0.0
H705 H 0.45337 0.09948 0.5442 0.0
H706 H 0.42645 0.07974 0.38933 0.0
H707 H 0.4544 0.08441 0.33143 0.0
C708 C 0.51509 0.15384 0.193 0.0
C709 C 0.49997 0.15552 0.15594 0.0
C710 C 0.51599 0.13987 0.23506 0.0
C711 C 0.50193 0.12691 0.24069 0.0
C712 C 0.48696 0.12846 0.20258 0.0
C713 C 0.48591 0.14267 0.16134 0.0
C714 C 0.50234 0.11252 0.28829 0.0
C715 C 0.48672 0.10923 0.32251 0.0
C716 C 0.51818 0.10259 0.30217 0.0
C717 C 0.53457 0.1035 0.2647 0.0
C718 C 0.53335 0.1002 0.20391 0.0
C719 C 0.54884 0.10104 0.16868 0.0
C720 C 0.56565 0.10502 0.19384 0.0
C721 C 0.567 0.10816 0.25431 0.0
C722 C 0.55154 0.10738 0.28973 0.0
C723 C 0.49498 0.04895 0.49616 0.0
C724 C 0.50516 0.05501 0.54472 0.0
C725 C 0.49423 0.05945 0.4441 0.0
C726 C 0.50401 0.07591 0.43925 0.0
C727 C 0.51463 0.0815 0.48708 0.0
C728 C 0.515 0.07135 0.53919 0.0
C729 C 0.50282 0.08788 0.38588 0.0
C730 C 0.5183 0.09079 0.35123 0.0
C731 C 0.48678 0.09708 0.3706 0.0
C732 C 0.46997 0.09461 0.40513 0.0
C733 C 0.4695 0.09897 0.46529 0.0
C734 C 0.45365 0.0962 0.49781 0.0
C735 C 0.43816 0.08924 0.47047 0.0
C736 C 0.43847 0.0851 0.41048 0.0
C737 C 0.4543 0.08781 0.3778 0.0
H738 H 0.4259 0.08708 0.49573 0.0
H739 H 0.57764 0.10563 0.16649 0.0
H740 H 0.37619 0.48665 0.13639 0.0
H741 H 0.40245 0.49105 0.20059 0.0
H742 H 0.3723 0.52942 0.30366 0.0
H743 H 0.34622 0.52536 0.23809 0.0
H744 H 0.40649 0.53944 0.30385 0.0
H745 H 0.37562 0.48297 0.33977 0.0
H746 H 0.36294 0.45312 0.31269 0.0
H747 H 0.41582 0.43507 0.26228 0.0
H748 H 0.42875 0.46494 0.28812 0.0
H749 H 0.44229 0.52756 0.58805 0.0
H750 H 0.42419 0.52742 0.49886 0.0
H751 H 0.46525 0.49662 0.41004 0.0
H752 H 0.48382 0.49698 0.50054 0.0
H753 H 0.42898 0.48267 0.39425 0.0
H754 H 0.4601 0.53885 0.37058 0.0
H755 H 0.47203 0.56853 0.40238 0.0
H756 H 0.41794 0.58702 0.43392 0.0
H757 H 0.4057 0.5573 0.40337 0.0
C758 C 0.3755 0.4967 0.17099 0.0
C759 C 0.35926 0.50603 0.18107 0.0
C760 C 0.39041 0.49894 0.20861 0.0
C761 C 0.38937 0.51025 0.25831 0.0
C762 C 0.37359 0.52057 0.26596 0.0
C763 C 0.3587 0.51844 0.22791 0.0
C764 C 0.40407 0.51038 0.3043 0.0
C765 C 0.41129 0.527 0.32364 0.0
C766 C 0.41081 0.4942 0.33002 0.0
C767 C 0.40311 0.47621 0.31525 0.0
C768 C 0.38451 0.47266 0.32258 0.0
C769 C 0.37728 0.45574 0.30745 0.0
C770 C 0.38856 0.44222 0.28565 0.0
C771 C 0.4071 0.44557 0.27907 0.0
C772 C 0.41439 0.46248 0.29392 0.0
C773 C 0.44769 0.52088 0.5495 0.0
C774 C 0.46462 0.51228 0.55176 0.0
C775 C 0.43724 0.52084 0.49824 0.0
C776 C 0.44325 0.51207 0.44724 0.0
C777 C 0.46026 0.50352 0.44874 0.0
C778 C 0.47097 0.50382 0.50036 0.0
C779 C 0.43128 0.51171 0.39376 0.0
C780 C 0.42443 0.49507 0.37352 0.0
C781 C 0.42477 0.52786 0.36757 0.0
C782 C 0.432 0.54582 0.38508 0.0
C783 C 0.45076 0.54921 0.38468 0.0
C784 C 0.45758 0.56604 0.40246 0.0
C785 C 0.44576 0.57965 0.42027 0.0
C786 C 0.42708 0.57646 0.42016 0.0
C787 C 0.4202 0.55963 0.40257 0.0
H788 H 0.45107 0.59267 0.43409 0.0
H789 H 0.38294 0.42913 0.27397 0.0
H790 H 0.9967 0.39037 0.1111 0.0
H791 H 0.99989 0.41559 0.18132 0.0
H792 H 0.0274 0.3802 0.30219 0.0
H793 H 0.02453 0.35523 0.2317 0.0
H794 H 0.99777 0.39778 0.35255 0.0
H795 H 0.05017 0.41358 0.23596 0.0
H796 H 0.06611 0.42162 0.14405 0.0
H797 H 0.03263 0.46849 0.12397 0.0
H798 H 0.01627 0.46054 0.2153 0.0
H799 H 0.02636 0.45113 0.58345 0.0
H800 H 0.02668 0.43273 0.495 0.0
H801 H 1.00426 0.47699 0.39565 0.0
H802 H 1.00415 0.49585 0.48563 0.0
H803 H 0.02869 0.45728 0.32782 0.0
H804 H 0.97677 0.44331 0.44116 0.0
H805 H 0.95898 0.43602 0.53005 0.0
H806 H 0.98841 0.38654 0.55167 0.0
H807 H 1.0066 0.3937 0.46339 0.0
C808 C 1.00413 0.38825 0.15156 0.0
C809 C 0.01092 0.37097 0.16495 0.0
C810 C 1.00578 0.40262 0.19205 0.0
C811 C 0.01391 0.39991 0.2474 0.0
C812 C 0.02114 0.38276 0.25993 0.0
C813 C 0.01973 0.36853 0.21921 0.0
C814 C 0.01376 0.41435 0.29406 0.0
C815 C 1.00472 0.41069 0.3472 0.0
C816 C 0.02206 0.43161 0.28669 0.0
C817 C 0.03188 0.43637 0.23201 0.0
C818 C 0.04609 0.42551 0.21161 0.0
C819 C 0.05522 0.43006 0.1597 0.0
C820 C 0.05036 0.44553 0.1281 0.0
C821 C 0.03636 0.4565 0.14843 0.0
C822 C 0.02716 0.45198 0.20026 0.0
C823 C 0.02181 0.45718 0.54264 0.0
C824 C 0.01526 0.47503 0.54189 0.0
C825 C 0.02189 0.44653 0.49188 0.0
C826 C 0.01512 0.45318 0.43841 0.0
C827 C 0.00949 0.47142 0.43629 0.0
C828 C 0.00953 0.48227 0.48768 0.0
C829 C 0.01312 0.44047 0.38694 0.0
C830 C 0.02165 0.44442 0.333 0.0
C831 C 1.00402 0.42353 0.39294 0.0
C832 C 0.99313 0.41911 0.44596 0.0
C833 C 0.97954 0.43094 0.46514 0.0
C834 C 0.96937 0.42683 0.51537 0.0
C835 C 0.97258 0.41084 0.54655 0.0
C836 C 0.98595 0.39892 0.5275 0.0
C837 C 0.99619 0.403 0.47734 0.0
H838 H 0.96469 0.40766 0.58543 0.0
H839 H 0.05746 0.44905 0.08794 0.0
H840 H 0.84773 0.02573 0.10532 0.0
H841 H 0.87309 0.02944 0.0363 0.0
H842 H 0.90168 0.98664 0.12457 0.0
H843 H 0.87613 0.9827 0.19289 0.0
H844 H 0.92482 0.01747 0.08085 0.0
H845 H 0.87957 0.97424 0.01602 0.0
H846 H 0.8481 0.96497 0.99512 0.0
H847 H 0.84368 1.00776 0.86762 0.0
H848 H 0.87503 0.01751 0.88876 0.0
H849 H 0.98502 1.00074 0.83603 0.0
H850 H 0.96529 0.99851 0.92276 0.0
H851 H 0.9219 0.02239 0.82276 0.0
H852 H 0.94086 0.0227 0.73595 0.0
H853 H 0.90703 0.99911 0.87914 0.0
H854 H 0.95059 0.04411 0.9434 0.0
H855 H 0.98109 0.05589 0.96674 0.0
H856 H 0.98817 0.01335 0.0938 0.0
H857 H 0.9578 1.00121 0.07062 0.0
C858 C 0.85979 0.01773 0.11178 0.0
C859 C 0.86014 1.00429 0.15572 0.0
C860 C 0.87421 0.01969 0.07181 0.0
C861 C 0.88937 1.0083 0.075 0.0
C862 C 0.89029 0.99572 0.12141 0.0
C863 C 0.87574 0.99359 0.16085 0.0
C864 C 0.90303 1.00804 0.02611 0.0
C865 C 0.92101 0.01335 0.03675 0.0
C866 C 0.89814 1.00287 0.96834 0.0
C867 C 0.87954 0.99669 0.95435 0.0
C868 C 0.87183 0.98173 0.9838 0.0
C869 C 0.85403 0.97639 0.97192 0.0
C870 C 0.84388 0.98579 0.93015 0.0
C871 C 0.85154 1.00051 0.90002 0.0
C872 C 0.86933 1.00594 0.91193 0.0
C873 C 0.97124 1.00519 0.83249 0.0
C874 C 0.96454 0.01141 0.77829 0.0
C875 C 0.95991 1.00426 0.88264 0.0
C876 C 0.94182 0.01036 0.88046 0.0
C877 C 0.93554 0.01725 0.82657 0.0
C878 C 0.94656 0.01755 0.77652 0.0
C879 C 0.92903 0.0093 0.93251 0.0
C880 C 0.91107 1.00346 0.9228 0.0
C881 C 0.93392 0.01435 0.99078 0.0
C882 C 0.95207 0.02167 0.00486 0.0
C883 C 0.95872 0.03723 0.97606 0.0
C884 C 0.97596 0.04397 0.98927 0.0
C885 C 0.98658 0.03534 0.0316 0.0
C886 C 0.97995 0.01999 0.06095 0.0
C887 C 0.96273 0.01318 0.04782 0.0
H888 H 0.99994 0.04058 0.04177 0.0
H889 H 0.83008 0.98166 0.92106 0.0
H890 H 0.52982 0.86336 0.12207 0.0
H891 H 0.53123 0.88855 0.05338 0.0
H892 H 0.48655 0.91383 0.14277 0.0
H893 H 0.48435 0.88754 0.20985 0.0
H894 H 0.48111 0.91791 0.0332 0.0
H895 H 0.53381 0.93027 0.14607 0.0
H896 H 0.56263 0.92383 0.1962 0.0
H897 H 0.58678 0.90937 0.03101 0.0
H898 H 0.55803 0.91547 0.98003 0.0
H899 H 0.49399 0.99484 0.84053 0.0
H900 H 0.49246 0.97582 0.92941 0.0
H901 H 0.53229 0.94013 0.85507 0.0
H902 H 0.5341 0.95922 0.76728 0.0
H903 H 0.53935 0.94494 0.96691 0.0
H904 H 0.48464 0.93081 0.85718 0.0
H905 H 0.45584 0.93889 0.80944 0.0
H906 H 0.43559 0.95901 0.97383 0.0
H907 H 0.46437 0.95127 0.02229 0.0
C908 C 0.52058 0.87452 0.12826 0.0
C909 C 0.5072 0.87357 0.17243 0.0
C910 C 0.52142 0.88906 0.08874 0.0
C911 C 0.5093 0.90358 0.09295 0.0
C912 C 0.49621 0.90297 0.13835 0.0
C913 C 0.49512 0.88809 0.17751 0.0
C914 C 0.50991 0.91869 0.04797 0.0
C915 C 0.49386 0.92403 0.01978 0.0
C916 C 0.52644 0.9268 0.029 0.0
C917 C 0.54376 0.92324 0.05936 0.0
C918 C 0.54525 0.92563 0.12052 0.0
C919 C 0.56157 0.92204 0.14906 0.0
C920 C 0.57652 0.91617 0.11682 0.0
C921 C 0.5752 0.91391 0.05593 0.0
C922 C 0.5589 0.91746 0.02718 0.0
C923 C 0.50256 0.98304 0.84348 0.0
C924 C 0.51416 0.97856 0.79658 0.0
C925 C 0.50155 0.97204 0.8942 0.0
C926 C 0.51204 0.95624 0.89907 0.0
C927 C 0.52399 0.95214 0.85283 0.0
C928 C 0.52501 0.9631 0.80241 0.0
C929 C 0.51068 0.94379 0.95156 0.0
C930 C 0.52661 0.93894 0.981 0.0
C931 C 0.49405 0.93636 0.97205 0.0
C932 C 0.47668 0.94063 0.94315 0.0
C933 C 0.47406 0.93704 0.88301 0.0
C934 C 0.45775 0.94155 0.85585 0.0
C935 C 0.44391 0.94951 0.88854 0.0
C936 C 0.44632 0.95288 0.94853 0.0
C937 C 0.46262 0.94842 0.97587 0.0
H938 H 0.4313 0.95302 0.8674 0.0
H939 H 0.58915 0.9134 0.13902 0.0
H940 H 0.6668 0.51184 0.08186 0.0
H941 H 0.6414 0.51067 0.0133 0.0
H942 H 0.60628 0.53221 0.14703 0.0
H943 H 0.63201 0.53343 0.21638 0.0
H944 H 0.58891 0.50502 0.07311 0.0
H945 H 0.6222 0.56046 0.05036 0.0
H946 H 0.64992 0.57896 0.03883 0.0
H947 H 0.66162 0.55222 0.87565 0.0
H948 H 0.63413 0.53331 0.88682 0.0
H949 H 0.52459 0.52432 0.83754 0.0
H950 H 0.54336 0.52625 0.9271 0.0
H951 H 0.59109 0.51705 0.82216 0.0
H952 H 0.57276 0.51588 0.7343 0.0
H953 H 0.59932 0.54158 0.89262 0.0
H954 H 0.56844 0.48391 0.91934 0.0
H955 H 0.5416 0.46412 0.93137 0.0
H956 H 0.52586 0.49395 0.08497 0.0
H957 H 0.55248 0.51407 0.07328 0.0
C958 C 0.65356 0.51584 0.09734 0.0
C959 C 0.65141 0.52253 0.15495 0.0
C960 C 0.63903 0.5153 0.05783 0.0
C961 C 0.62185 0.52154 0.0744 0.0
C962 C 0.61934 0.52728 0.133 0.0
C963 C 0.63402 0.52788 0.17282 0.0
C964 C 0.60721 0.52328 0.02873 0.0
C965 C 0.59105 0.51324 0.03405 0.0
C966 C 0.6099 0.53381 0.97717 0.0
C967 C 0.6262 0.54541 0.96964 0.0
C968 C 0.63074 0.55846 0.01219 0.0
C969 C 0.64641 0.56902 0.00573 0.0
C970 C 0.65754 0.56675 0.95659 0.0
C971 C 0.65299 0.55395 0.91371 0.0
C972 C 0.63737 0.54332 0.92007 0.0
C973 C 0.53905 0.52278 0.8338 0.0
C974 C 0.54703 0.52003 0.77827 0.0
C975 C 0.54986 0.52376 0.88521 0.0
C976 C 0.56887 0.52171 0.88223 0.0
C977 C 0.57662 0.51886 0.82661 0.0
C978 C 0.56597 0.51812 0.77589 0.0
C979 C 0.58113 0.52274 0.93543 0.0
C980 C 0.59696 0.53342 0.93171 0.0
C981 C 0.57814 0.51267 0.988 0.0
C982 C 0.56226 0.50059 0.99504 0.0
C983 C 0.55916 0.48631 0.9554 0.0
C984 C 0.54401 0.47503 0.96219 0.0
C985 C 0.532 0.47781 0.0088 0.0
C986 C 0.53514 0.49184 0.04881 0.0
C987 C 0.55025 0.50318 0.04214 0.0
H988 H 0.52028 0.46906 0.014 0.0
H989 H 0.66968 0.57493 0.95168 0.0
H990 H 0.036 0.64916 0.16196 0.0
H991 H 0.03255 0.62307 0.0966 0.0
H992 H 0.97678 0.63699 0.0671 0.0
H993 H 0.98026 0.66318 0.13313 0.0
H994 H 0.98177 0.59922 0.06539 0.0
H995 H 0.00824 0.65153 0.97332 0.0
H996 H 0.03014 0.67679 0.96491 0.0
H997 H 0.07389 0.63897 0.95597 0.0
H998 H 0.05225 0.61348 0.96557 0.0
H999 H 0.97362 0.55794 0.7787 0.0
H1000 H 0.9735 0.57696 0.86725 0.0
H1001 H 0.03075 0.56825 0.8884 0.0
H1002 H 0.03077 0.54927 0.79971 0.0
H1003 H 0.02429 0.60302 0.89652 0.0
H1004 H 0.99859 0.5508 0.98989 0.0
H1005 H 0.9773 0.52519 1.00245 0.0
H1006 H 0.93272 0.56208 0.00849 0.0
H1007 H 0.95381 0.58796 0.99628 0.0
C1008 C 0.02276 0.64616 0.14387 0.0
C1009 C 0.00831 0.65808 0.15402 0.0
C1010 C 0.02085 0.63136 0.10559 0.0
C1011 C 1.00448 0.6281 0.07569 0.0
C1012 C 0.98957 0.63911 0.08939 0.0
C1013 C 0.99149 0.65399 0.12786 0.0
C1014 C 1.00361 0.6145 0.02631 0.0
C1015 C 0.99094 0.6002 0.02817 0.0
C1016 C 0.01569 0.61538 0.97776 0.0
C1017 C 0.02867 0.63063 0.97069 0.0
C1018 C 0.02255 0.64861 0.96991 0.0
C1019 C 0.03491 0.66297 0.96494 0.0
C1020 C 0.0534 0.65949 0.96 0.0
C1021 C 0.05957 0.64164 0.95987 0.0
C1022 C 0.04726 0.62724 0.96508 0.0
C1023 C 0.98602 0.55956 0.80356 0.0
C1024 C 1.00209 0.55165 0.78318 0.0
C1025 C 0.98599 0.57055 0.8542 0.0
C1026 C 1.00211 0.57412 0.88545 0.0
C1027 C 0.01809 0.56578 0.8657 0.0
C1028 C 0.01807 0.5547 0.81532 0.0
C1029 C 1.0026 0.5875 0.93572 0.0
C1030 C 0.01515 0.60192 0.93378 0.0
C1031 C 0.99043 0.58667 0.98411 0.0
C1032 C 0.97772 0.57125 0.99159 0.0
C1033 C 0.98423 0.55343 0.99364 0.0
C1034 C 0.97222 0.53889 1.00097 0.0
C1035 C 0.95366 0.542 0.00602 0.0
C1036 C 0.9471 0.55969 0.00445 0.0
C1037 C 0.95908 0.57431 0.9976 0.0
H1038 H 0.94437 0.53068 0.01102 0.0
H1039 H 0.06296 0.67063 0.95618 0.0
H1040 H 0.97428 0.23577 0.31881 0.0
H1041 H 0.96789 0.20905 0.37688 0.0
H1042 H 0.01656 0.21849 0.47825 0.0
H1043 H 0.02372 0.2447 0.41589 0.0
H1044 H 0.01861 0.18825 0.43184 0.0
H1045 H 0.97116 0.21476 0.54147 0.0
H1046 H 0.94408 0.23331 0.55809 0.0
H1047 H 0.91304 0.19827 0.44544 0.0
H1048 H 0.93999 0.17969 0.42729 0.0
H1049 H 1.00233 0.09923 0.53759 0.0
H1050 H 1.00333 0.13223 0.54141 0.0
H1051 H 0.9682 0.1349 0.39012 0.0
H1052 H 0.9675 0.10176 0.38476 0.0
H1053 H 0.9601 0.15962 0.48829 0.0
H1054 H 0.00922 0.13923 0.36141 0.0
H1055 H 0.03611 0.12067 0.34139 0.0
H1056 H 0.06355 0.14491 0.48838 0.0
H1057 H 0.0367 0.16347 0.50961 0.0
C1058 C 0.98314 0.23264 0.35537 0.0
C1059 C 0.99947 0.2421 0.36329 0.0
C1060 C 0.97942 0.21739 0.38903 0.0
C1061 C 0.99166 0.21181 0.43249 0.0
C1062 C 1.00694 0.2226 0.44496 0.0
C1063 C 0.01099 0.23756 0.40979 0.0
C1064 C 0.99059 0.19303 0.45435 0.0
C1065 C 1.00593 0.18221 0.44639 0.0
C1066 C 0.97397 0.18493 0.47147 0.0
C1067 C 0.9576 0.19581 0.48322 0.0
C1068 C 0.95857 0.21104 0.52015 0.0
C1069 C 0.94324 0.22157 0.52977 0.0
C1070 C 0.92684 0.21696 0.5029 0.0
C1071 C 0.92573 0.2018 0.46636 0.0
C1072 C 0.94102 0.19123 0.45652 0.0
C1073 C 0.995 0.10684 0.50463 0.0
C1074 C 0.98515 0.09804 0.45993 0.0
C1075 C 0.99537 0.1256 0.50755 0.0
C1076 C 0.98582 0.13572 0.46612 0.0
C1077 C 0.9755 0.12708 0.42263 0.0
C1078 C 0.97521 0.10827 0.4194 0.0
C1079 C 0.98792 0.15537 0.46482 0.0
C1080 C 0.97283 0.16607 0.47618 0.0
C1081 C 1.00472 0.16344 0.45094 0.0
C1082 C 0.02093 0.15255 0.43747 0.0
C1083 C 0.02095 0.14049 0.38966 0.0
C1084 C 0.03618 0.13 0.37806 0.0
C1085 C 0.05151 0.13156 0.41373 0.0
C1086 C 0.05166 0.14369 0.46088 0.0
C1087 C 0.03645 0.15421 0.47268 0.0
H1088 H 0.06329 0.12339 0.40475 0.0
H1089 H 0.91499 0.22515 0.51038 0.0
H1090 H 0.32055 0.0816 0.29072 0.0
H1091 H 0.34401 0.06461 0.34181 0.0
H1092 H 0.30315 0.03345 0.43337 0.0
H1093 H 0.27958 0.04955 0.38032 0.0
H1094 H 0.34332 0.04813 0.49051 0.0
H1095 H 0.31002 0.01042 0.3444 0.0
H1096 H 0.29597 1.00722 0.24646 0.0
H1097 H 0.34617 0.02256 0.16411 0.0
H1098 H 0.36039 0.02621 0.26171 0.0
H1099 H 0.40892 0.98225 0.55429 0.0
H1100 H 0.37898 0.99458 0.53448 0.0
H1101 H 0.39641 0.00984 0.35947 0.0
H1102 H 0.42571 0.99624 0.37734 0.0
H1103 H 0.3639 1.00024 0.35331 0.0
H1104 H 0.39793 0.03889 0.48372 0.0
H1105 H 0.41386 0.04916 0.57311 0.0
H1106 H 0.36618 0.03841 0.67624 0.0
H1107 H 0.35023 0.02753 0.58801 0.0
C1108 C 0.31654 0.07153 0.32309 0.0
C1109 C 0.29826 0.06669 0.33074 0.0
C1110 C 0.32993 0.06192 0.35222 0.0
C1111 C 0.32509 0.04775 0.39026 0.0
C1112 C 0.30693 0.04441 0.40387 0.0
C1113 C 0.29351 0.05377 0.3739 0.0
C1114 C 0.33884 0.03478 0.40798 0.0
C1115 C 0.34764 0.03732 0.46155 0.0
C1116 C 0.34461 0.02125 0.36868 0.0
C1117 C 0.33616 0.01877 0.31019 0.0
C1118 C 0.31798 0.01328 0.30538 0.0
C1119 C 0.31001 0.01136 0.24997 0.0
C1120 C 0.32017 0.0147 0.19911 0.0
C1121 C 0.33832 0.01998 0.20355 0.0
C1122 C 0.34633 0.02199 0.25887 0.0
C1123 C 0.4061 0.98764 0.51091 0.0
C1124 C 0.41963 0.98842 0.46737 0.0
C1125 C 0.38911 0.99493 0.5 0.0
C1126 C 0.38564 1.00347 0.44603 0.0
C1127 C 0.39882 1.00335 0.40154 0.0
C1128 C 0.41561 0.99574 0.41194 0.0
C1129 C 0.36882 0.01357 0.43633 0.0
C1130 C 0.35938 0.01059 0.38371 0.0
C1131 C 0.36286 0.0271 0.47585 0.0
C1132 C 0.37298 0.0322 0.5295 0.0
C1133 C 0.39099 0.03839 0.52572 0.0
C1134 C 0.40001 0.04438 0.57616 0.0
C1135 C 0.39104 0.0445 0.63034 0.0
C1136 C 0.37317 0.03828 0.63443 0.0
C1137 C 0.36415 0.03214 0.58428 0.0
H1138 H 0.39796 0.04944 0.66912 0.0
H1139 H 0.314 0.01313 0.15624 0.0
H1140 H 0.47767 0.31652 0.33512 0.0
H1141 H 0.49361 0.34216 0.37976 0.0
H1142 H 0.53846 0.30754 0.42254 0.0
H1143 H 0.52233 0.28176 0.37888 0.0
H1144 H 0.52839 0.34093 0.50432 0.0
H1145 H 0.55327 0.32732 0.30193 0.0
H1146 H 0.55042 0.31888 0.1975 0.0
H1147 H 0.5052 0.35463 0.17865 0.0
H1148 H 0.50845 0.3639 0.2826 0.0
H1149 H 0.56772 0.43454 0.44671 0.0
H1150 H 0.57067 0.40159 0.43907 0.0
H1151 H 0.51315 0.39661 0.41039 0.0
H1152 H 0.51027 0.42938 0.4123 0.0
H1153 H 0.54399 0.37828 0.32903 0.0
H1154 H 0.51454 0.36656 0.56311 0.0
H1155 H 0.51961 0.37612 0.66517 0.0
H1156 H 0.57401 0.39223 0.62284 0.0
H1157 H 0.56973 0.38145 0.52125 0.0
C1158 C 0.49031 0.31418 0.35798 0.0
C1159 C 0.49882 0.29737 0.35455 0.0
C1160 C 0.49949 0.32878 0.38256 0.0
C1161 C 0.5172 0.32653 0.40318 0.0
C1162 C 0.52475 0.30929 0.40679 0.0
C1163 C 0.51547 0.29462 0.38266 0.0
C1164 C 0.52865 0.34254 0.40996 0.0
C1165 C 0.53219 0.34905 0.46633 0.0
C1166 C 0.534 0.35263 0.36008 0.0
C1167 C 0.531 0.3461 0.29963 0.0
C1168 C 0.54264 0.33321 0.27549 0.0
C1169 C 0.54102 0.32841 0.21634 0.0
C1170 C 0.52753 0.33611 0.18144 0.0
C1171 C 0.51563 0.34867 0.2057 0.0
C1172 C 0.51745 0.35381 0.26455 0.0
C1173 C 0.5558 0.42643 0.43724 0.0
C1174 C 0.53871 0.43446 0.43059 0.0
C1175 C 0.55748 0.40767 0.43438 0.0
C1176 C 0.54201 0.39692 0.4268 0.0
C1177 C 0.52512 0.40489 0.41799 0.0
C1178 C 0.52351 0.42354 0.41898 0.0
C1179 C 0.54291 0.37726 0.4236 0.0
C1180 C 0.54129 0.36988 0.36744 0.0
C1181 C 0.53929 0.36652 0.47384 0.0
C1182 C 0.54169 0.37361 0.53415 0.0
C1183 C 0.52759 0.37216 0.57549 0.0
C1184 C 0.53035 0.37772 0.63344 0.0
C1185 C 0.547 0.38508 0.65043 0.0
C1186 C 0.56105 0.38669 0.60953 0.0
C1187 C 0.55848 0.38081 0.55173 0.0
H1188 H 0.54907 0.38945 0.69531 0.0
H1189 H 0.52633 0.33245 0.13552 0.0
H1190 H 0.23979 0.50231 0.35662 0.0
H1191 H 0.21981 0.5207 0.41639 0.0
H1192 H 0.18122 0.47654 0.42418 0.0
H1193 H 0.20141 0.45779 0.36561 0.0
H1194 H 0.18849 0.52932 0.3666 0.0
H1195 H 0.15471 0.48007 0.53372 0.0
H1196 H 0.16373 0.4578 0.60923 0.0
H1197 H 0.2151 0.48483 0.62783 0.0
H1198 H 0.20625 0.50733 0.553 0.0
H1199 H 0.09551 0.53293 0.3759 0.0
H1200 H 0.12773 0.52612 0.37271 0.0
H1201 H 0.13418 0.54711 0.54874 0.0
H1202 H 0.10172 0.55339 0.55292 0.0
H1203 H 0.14948 0.51499 0.5383 0.0
H1204 H 0.15296 0.57012 0.43612 0.0
H1205 H 0.14418 0.59372 0.36505 0.0
H1206 H 0.15507 0.55756 0.22175 0.0
H1207 H 0.16362 0.53362 0.29199 0.0
C1208 C 0.2275 0.49613 0.37362 0.0
C1209 C 0.22206 0.47862 0.35618 0.0
C1210 C 0.21606 0.50675 0.40746 0.0
C1211 C 0.19911 0.49998 0.42445 0.0
C1212 C 0.1944 0.48191 0.41208 0.0
C1213 C 0.20585 0.47126 0.37822 0.0
C1214 C 0.18495 0.51251 0.44361 0.0
C1215 C 0.18009 0.52642 0.40472 0.0
C1216 C 0.17433 0.50899 0.4939 0.0
C1217 C 0.17975 0.49541 0.5383 0.0
C1218 C 0.16782 0.48135 0.55454 0.0
C1219 C 0.17293 0.46867 0.597 0.0
C1220 C 0.18993 0.46996 0.62354 0.0
C1221 C 0.20191 0.48386 0.60735 0.0
C1222 C 0.19688 0.49655 0.56483 0.0
C1223 C 0.10386 0.53626 0.4136 0.0
C1224 C 0.09626 0.54377 0.46442 0.0
C1225 C 0.12224 0.53253 0.41161 0.0
C1226 C 0.13331 0.53643 0.46019 0.0
C1227 C 0.12583 0.54424 0.51067 0.0
C1228 C 0.10739 0.54793 0.51277 0.0
C1229 C 0.15234 0.53085 0.45918 0.0
C1230 C 0.15809 0.51826 0.50121 0.0
C1231 C 0.16388 0.53574 0.4121 0.0
C1232 C 0.15894 0.55009 0.36938 0.0
C1233 C 0.15341 0.56717 0.38945 0.0
C1234 C 0.14846 0.58061 0.34931 0.0
C1235 C 0.14908 0.57714 0.28892 0.0
C1236 C 0.15464 0.56023 0.26854 0.0
C1237 C 0.15957 0.54673 0.30852 0.0
H1238 H 0.14525 0.58757 0.2579 0.0
H1239 H 0.19385 0.46016 0.65652 0.0
H1240 H 0.96578 0.80899 0.95272 0.0
H1241 H 0.97641 0.83193 0.88497 0.0
H1242 H 0.02429 0.80061 0.84968 0.0
H1243 H 0.01535 0.77921 0.92432 0.0
H1244 H 0.03438 0.82965 0.88997 0.0
H1245 H 0.99124 0.81516 0.74752 0.0
H1246 H 0.96267 0.80799 0.69797 0.0
H1247 H 0.94212 0.86039 0.74267 0.0
H1248 H 0.97054 0.86795 0.79303 0.0
H1249 H 0.0557 0.92368 0.81471 0.0
H1250 H 0.05192 0.89109 0.79576 0.0
H1251 H 1.00122 0.8914 0.8902 0.0
H1252 H 1.00509 0.92362 0.91047 0.0
H1253 H 1.00069 0.87478 0.77271 0.0
H1254 H 0.03481 0.87685 0.96072 0.0
H1255 H 0.062 0.8852 0.01783 0.0
H1256 H 0.09532 0.85612 0.89588 0.0
H1257 H 0.06829 0.84781 0.8377 0.0
C1258 C 0.97853 0.80685 0.93043 0.0
C1259 C 0.99002 0.79264 0.94671 0.0
C1260 C 0.98439 0.81981 0.89009 0.0
C1261 C 1.00132 0.81811 0.86255 0.0
C1262 C 0.0113 0.80229 0.87107 0.0
C1263 C 1.00594 0.78986 0.91374 0.0
C1264 C 0.01031 0.83435 0.83788 0.0
C1265 C 0.02716 0.83916 0.86234 0.0
C1266 C 1.00095 0.84696 0.80234 0.0
C1267 C 0.98349 0.84236 0.77282 0.0
C1268 C 0.98081 0.82531 0.74643 0.0
C1269 C 0.96452 0.82111 0.71835 0.0
C1270 C 0.95064 0.83378 0.71665 0.0
C1271 C 0.95297 0.85064 0.74345 0.0
C1272 C 0.96925 0.85492 0.77156 0.0
C1273 C 0.04402 0.91661 0.83263 0.0
C1274 C 0.03067 0.92598 0.86416 0.0
C1275 C 0.04175 0.89821 0.82087 0.0
C1276 C 0.0261 0.88921 0.84034 0.0
C1277 C 0.01317 0.89838 0.87373 0.0
C1278 C 0.01549 0.91663 0.88589 0.0
C1279 C 0.02326 0.86991 0.82955 0.0
C1280 C 0.00789 0.86463 0.7978 0.0
C1281 C 0.03351 0.85694 0.85967 0.0
C1282 C 0.04966 0.86195 0.89454 0.0
C1283 C 0.04797 0.87239 0.94589 0.0
C1284 C 0.06333 0.87709 0.97847 0.0
C1285 C 0.08039 0.87125 0.96037 0.0
C1286 C 0.08211 0.86068 0.90973 0.0
C1287 C 0.06679 0.85598 0.87693 0.0
H1288 H 0.09228 0.87488 0.98568 0.0
H1289 H 0.93802 0.8305 0.69488 0.0
H1290 H 0.70669 0.96441 0.989 0.0
H1291 H 0.68397 0.97106 0.91573 0.0
H1292 H 0.71908 0.01201 0.83969 0.0
H1293 H 0.74157 1.00582 0.91589 0.0
H1294 H 0.69117 0.02652 0.88734 0.0
H1295 H 0.69807 0.97682 0.75692 0.0
H1296 H 0.70244 0.94507 0.72828 0.0
H1297 H 0.65226 0.93023 0.81161 0.0
H1298 H 0.64764 0.96189 0.84128 0.0
H1299 H 0.60143 0.05313 0.78863 0.0
H1300 H 0.6332 0.0442 0.78034 0.0
H1301 H 0.62356 1.00052 0.90323 0.0
H1302 H 0.59215 0.00977 0.914 0.0
H1303 H 0.6418 0.9911 0.7936 0.0
H1304 H 0.64032 0.03491 0.95147 0.0
H1305 H 0.63526 0.06497 0.99478 0.0
H1306 H 0.67553 0.08811 0.88005 0.0
H1307 H 0.68069 0.05819 0.83571 0.0
C1308 C 0.71 0.97394 0.95416 0.0
C1309 C 0.72563 0.98469 0.95759 0.0
C1310 C 0.69702 0.97776 0.91198 0.0
C1311 C 0.6998 0.99212 0.87223 0.0
C1312 C 0.71674 1.00087 0.86998 0.0
C1313 C 0.72963 0.99725 0.91303 0.0
C1314 C 0.68378 1.001 0.84704 0.0
C1315 C 0.68064 0.01895 0.86468 0.0
C1316 C 0.66984 0.99096 0.81933 0.0
C1317 C 0.67239 0.97189 0.80049 0.0
C1318 C 0.68789 0.96686 0.76881 0.0
C1319 C 0.69045 0.94883 0.75258 0.0
C1320 C 0.67759 0.93564 0.76785 0.0
C1321 C 0.66216 0.94047 0.79947 0.0
C1322 C 0.65953 0.95849 0.81579 0.0
C1323 C 0.60621 0.04189 0.81492 0.0
C1324 C 0.59437 0.03216 0.85223 0.0
C1325 C 0.62421 0.03669 0.80939 0.0
C1326 C 0.63042 0.02163 0.84057 0.0
C1327 C 0.61876 0.01203 0.8782 0.0
C1328 C 0.6009 0.01736 0.88448 0.0
C1329 C 0.64929 0.01599 0.83636 0.0
C1330 C 0.65278 0.9988 0.81341 0.0
C1331 C 0.6634 0.02643 0.86105 0.0
C1332 C 0.66031 0.04441 0.88824 0.0
C1333 C 0.64779 0.04646 0.9344 0.0
C1334 C 0.64501 0.06347 0.95956 0.0
C1335 C 0.65489 0.0785 0.93965 0.0
C1336 C 0.66771 0.0765 0.89495 0.0
C1337 C 0.67052 0.05952 0.86963 0.0
H1338 H 0.65275 0.09166 0.95925 0.0
H1339 H 0.67962 0.92167 0.75533 0.0
H1340 H 0.49692 0.74402 0.97329 0.0
H1341 H 0.48212 0.71794 0.92909 0.0
H1342 H 0.53051 0.68652 0.95321 0.0
H1343 H 0.54568 0.71278 0.99783 0.0
H1344 H 0.49125 0.69401 0.83433 0.0
H1345 H 0.52117 0.65876 0.02027 0.0
H1346 H 0.52907 0.66313 0.12503 0.0
H1347 H 0.47934 0.69158 0.15291 0.0
H1348 H 0.47138 0.6876 0.04809 0.0
H1349 H 0.489 0.60064 0.79287 0.0
H1350 H 0.49179 0.63334 0.80349 0.0
H1351 H 0.44891 0.63263 0.93293 0.0
H1352 H 0.44629 0.59965 0.92299 0.0
H1353 H 0.47946 0.64451 0.97787 0.0
H1354 H 0.4449 0.65838 0.81226 0.0
H1355 H 0.43213 0.66072 0.71252 0.0
H1356 H 0.48348 0.67947 0.64652 0.0
H1357 H 0.49679 0.67631 0.74481 0.0
C1358 C 0.50474 0.73182 0.96701 0.0
C1359 C 0.52252 0.73037 0.98851 0.0
C1360 C 0.49617 0.71694 0.94232 0.0
C1361 C 0.50525 0.7005 0.9391 0.0
C1362 C 0.52337 0.69924 0.95645 0.0
C1363 C 0.532 0.71416 0.98141 0.0
C1364 C 0.49517 0.68433 0.92241 0.0
C1365 C 0.48878 0.68294 0.8649 0.0
C1366 C 0.49106 0.67082 0.96415 0.0
C1367 C 0.49575 0.67294 0.02685 0.0
C1368 C 0.51197 0.66593 0.04895 0.0
C1369 C 0.51647 0.66839 0.10816 0.0
C1370 C 0.50472 0.67764 0.1456 0.0
C1371 C 0.48845 0.68447 0.12387 0.0
C1372 C 0.48397 0.68218 0.06459 0.0
C1373 C 0.47994 0.60757 0.8227 0.0
C1374 C 0.46776 0.59783 0.8584 0.0
C1375 C 0.48131 0.62622 0.82795 0.0
C1376 C 0.47054 0.63528 0.86898 0.0
C1377 C 0.45723 0.62575 0.90084 0.0
C1378 C 0.4558 0.60702 0.8954 0.0
C1379 C 0.47616 0.6534 0.88768 0.0
C1380 C 0.48175 0.65536 0.94632 0.0
C1381 C 0.47915 0.66757 0.84682 0.0
C1382 C 0.47185 0.66709 0.78612 0.0
C1383 C 0.45359 0.66256 0.7762 0.0
C1384 C 0.44622 0.6641 0.71984 0.0
C1385 C 0.45695 0.67025 0.67311 0.0
C1386 C 0.47517 0.67455 0.68244 0.0
C1387 C 0.48265 0.67282 0.73846 0.0
H1388 H 0.45117 0.67162 0.62964 0.0
H1389 H 0.50821 0.67951 0.19145 0.0
H1390 H 0.80738 0.57405 0.99299 0.0
H1391 H 0.83555 0.56387 0.94842 0.0
H1392 H 0.8086 0.51515 0.88862 0.0
H1393 H 0.78034 0.52569 0.93145 0.0
H1394 H 0.84644 0.53402 0.00575 0.0
H1395 H 0.83851 0.49346 0.78858 0.0
H1396 H 0.82309 0.49547 0.69259 0.0
H1397 H 0.81971 0.55324 0.71043 0.0
H1398 H 0.83541 0.55164 0.80579 0.0
H1399 H 0.92436 0.47807 0.96986 0.0
H1400 H 0.89199 0.48535 0.97366 0.0
H1401 H 0.90045 0.52726 0.84343 0.0
H1402 H 0.93219 0.51968 0.83745 0.0
H1403 H 0.87003 0.50701 0.82174 0.0
H1404 H 0.90071 0.53717 0.98828 0.0
H1405 H 0.91799 0.53666 0.08118 0.0
H1406 H 0.87707 0.50296 0.16081 0.0
H1407 H 0.85962 0.50316 0.06823 0.0
C1408 C 0.80722 0.56192 0.9662 0.0
C1409 C 0.79195 0.5506 0.96514 0.0
C1410 C 0.8233 0.55596 0.9416 0.0
C1411 C 0.82409 0.53863 0.91654 0.0
C1412 C 0.80817 0.5286 0.90759 0.0
C1413 C 0.79201 0.53469 0.93151 0.0
C1414 C 0.84159 0.52953 0.91311 0.0
C1415 C 0.85164 0.52823 0.96529 0.0
C1416 C 0.84786 0.52127 0.8612 0.0
C1417 C 0.83785 0.52237 0.80486 0.0
C1418 C 0.8344 0.50658 0.77211 0.0
C1419 C 0.82566 0.50766 0.71772 0.0
C1420 C 0.82032 0.52446 0.69561 0.0
C1421 C 0.82372 0.54022 0.72782 0.0
C1422 C 0.83248 0.53923 0.78216 0.0
C1423 C 0.91919 0.48878 0.9421 0.0
C1424 C 0.93075 0.4986 0.90446 0.0
C1425 C 0.90082 0.49284 0.94409 0.0
C1426 C 0.89401 0.50676 0.90858 0.0
C1427 C 0.9055 0.51637 0.87063 0.0
C1428 C 0.9237 0.51229 0.86834 0.0
C1429 C 0.87521 0.51253 0.91325 0.0
C1430 C 0.86465 0.5127 0.86207 0.0
C1431 C 0.8685 0.52 0.96583 0.0
C1432 C 0.87898 0.52001 0.02131 0.0
C1433 C 0.89548 0.52956 0.02551 0.0
C1434 C 0.90529 0.52933 0.07805 0.0
C1435 C 0.89869 0.5197 0.1267 0.0
C1436 C 0.8822 0.51035 0.12303 0.0
C1437 C 0.87234 0.51053 0.07059 0.0
H1438 H 0.90631 0.51954 0.16733 0.0
H1439 H 0.81362 0.52527 0.65338 0.0
H1440 H 0.04294 0.2082 0.91014 0.0
H1441 H 0.04048 0.17873 0.8634 0.0
H1442 H 0.9901 0.19439 0.78331 0.0
H1443 H 0.99206 0.2239 0.83314 0.0
H1444 H 0.98612 0.16148 0.81903 0.0
H1445 H 0.03113 0.18892 0.70178 0.0
H1446 H 0.0589 0.20602 0.6767 0.0
H1447 H 0.0911 0.16566 0.76249 0.0
H1448 H 0.06348 0.14845 0.78885 0.0
H1449 H 0.98925 0.07919 0.64433 0.0
H1450 H 0.98986 0.11149 0.67068 0.0
H1451 H 0.03286 0.10148 0.79413 0.0
H1452 H 0.03222 0.06934 0.76879 0.0
H1453 H 0.03897 0.13261 0.72402 0.0
H1454 H 0.99071 0.10645 0.84343 0.0
H1455 H 0.96188 0.08983 0.85682 0.0
H1456 H 0.93458 0.12915 0.75011 0.0
H1457 H 0.96332 0.14584 0.73543 0.0
C1458 C 0.03131 0.20551 0.88244 0.0
C1459 C 0.01768 0.21863 0.87583 0.0
C1460 C 0.03001 0.18856 0.855 0.0
C1461 C 0.01522 0.18411 0.81872 0.0
C1462 C 1.00172 0.19731 0.81081 0.0
C1463 C 1.00296 0.21435 0.8388 0.0
C1464 C 0.01375 0.16552 0.79127 0.0
C1465 C 0.99763 0.15539 0.79733 0.0
C1466 C 0.02862 0.15717 0.76275 0.0
C1467 C 0.04525 0.16751 0.74771 0.0
C1468 C 0.04413 0.18379 0.71574 0.0
C1469 C 0.05984 0.19348 0.70122 0.0
C1470 C 0.07675 0.18695 0.71811 0.0
C1471 C 0.07799 0.17071 0.74951 0.0
C1472 C 0.06232 0.16097 0.76421 0.0
C1473 C 0.9989 0.08386 0.67693 0.0
C1474 C 0.01063 0.07149 0.70447 0.0
C1475 C 0.99918 0.10237 0.69217 0.0
C1476 C 0.01133 0.10902 0.73486 0.0
C1477 C 0.02334 0.09678 0.76119 0.0
C1478 C 0.0229 0.07831 0.74664 0.0
C1479 C 0.01155 0.12861 0.75303 0.0
C1480 C 0.02746 0.13886 0.74529 0.0
C1481 C 0.99636 0.13718 0.77853 0.0
C1482 C 0.97914 0.12726 0.7879 0.0
C1483 C 0.97857 0.11146 0.82251 0.0
C1484 C 0.96225 0.10205 0.83037 0.0
C1485 C 0.94642 0.10841 0.80422 0.0
C1486 C 0.94686 0.12422 0.77028 0.0
C1487 C 0.96314 0.13367 0.7622 0.0
H1488 H 0.93379 0.1011 0.81035 0.0
H1489 H 0.0889 0.19447 0.70675 0.0
H1490 H 0.31006 1.00289 0.93384 0.0
H1491 H 0.33981 0.99803 0.88797 0.0
H1492 H 0.32819 0.0392 0.75905 0.0
H1493 H 0.29856 0.04393 0.80424 0.0
H1494 H 0.35483 0.99087 0.77063 0.0
H1495 H 0.36556 0.06728 0.75475 0.0
H1496 H 0.35329 0.09537 0.79714 0.0
H1497 H 0.34046 0.0671 0.95752 0.0
H1498 H 0.353 0.03896 0.91648 0.0
H1499 H 0.43984 1.0072 0.62717 0.0
H1500 H 0.40787 1.0071 0.65512 0.0
H1501 H 0.42174 0.0315 0.82178 0.0
H1502 H 0.45342 0.03266 0.79242 0.0
H1503 H 0.3933 0.04593 0.7911 0.0
H1504 H 0.40891 0.9816 0.79545 0.0
H1505 H 0.42114 0.95418 0.74842 0.0
H1506 H 0.38172 0.95841 0.61035 0.0
H1507 H 0.36937 0.98591 0.65645 0.0
C1508 C 0.31349 0.01024 0.89397 0.0
C1509 C 0.30179 0.02364 0.87233 0.0
C1510 C 0.33061 1.00759 0.86807 0.0
C1511 C 0.33643 0.01842 0.8204 0.0
C1512 C 0.32415 0.03074 0.79591 0.0
C1513 C 0.30709 0.03331 0.82148 0.0
C1514 C 0.35582 0.01846 0.80069 0.0
C1515 C 0.36325 1.0029 0.77519 0.0
C1516 C 0.36697 0.03409 0.80632 0.0
C1517 C 0.36005 0.05103 0.83236 0.0
C1518 C 0.36024 0.06712 0.79921 0.0
C1519 C 0.35323 0.08303 0.82298 0.0
C1520 C 0.34606 0.08301 0.87993 0.0
C1521 C 0.34599 0.06709 0.91339 0.0
C1522 C 0.35305 0.05116 0.88991 0.0
C1523 C 0.43605 0.01265 0.66964 0.0
C1524 C 0.44929 0.01998 0.70739 0.0
C1525 C 0.41769 0.01235 0.68613 0.0
C1526 C 0.41212 0.01885 0.74162 0.0
C1527 C 0.42541 0.02636 0.77883 0.0
C1528 C 0.44365 0.02702 0.76188 0.0
C1529 C 0.39259 0.01824 0.76114 0.0
C1530 C 0.38505 0.03378 0.78676 0.0
C1531 C 0.38137 1.00262 0.75533 0.0
C1532 C 0.38823 0.9857 0.72935 0.0
C1533 C 0.40283 0.97659 0.75521 0.0
C1534 C 0.4098 0.96109 0.72865 0.0
C1535 C 0.4022 0.95455 0.67645 0.0
C1536 C 0.38754 0.96344 0.65088 0.0
C1537 C 0.38052 0.97895 0.67725 0.0
H1538 H 0.40767 0.94259 0.65579 0.0
H1539 H 0.34058 0.09533 0.89818 0.0
H1540 H 0.53516 0.30816 0.83154 0.0
H1541 H 0.53314 0.33796 0.7847 0.0
H1542 H 0.47826 0.34288 0.84683 0.0
H1543 H 0.48021 0.31273 0.8926 0.0
H1544 H 0.48114 0.3594 0.74296 0.0
H1545 H 0.51528 0.36202 0.92144 0.0
H1546 H 0.53945 0.35323 0.99028 0.0
H1547 H 0.57972 0.36899 0.86317 0.0
H1548 H 0.55578 0.37757 0.79327 0.0
H1549 H 0.47889 0.45665 0.74783 0.0
H1550 H 0.4792 0.42456 0.77489 0.0
H1551 H 0.53052 0.41854 0.6873 0.0
H1552 H 0.53007 0.45065 0.65858 0.0
H1553 H 0.52953 0.4027 0.80207 0.0
H1554 H 0.49581 0.40065 0.62475 0.0
H1555 H 0.47196 0.40896 0.55437 0.0
H1556 H 0.43118 0.39228 0.67854 0.0
H1557 H 0.45485 0.3841 0.7501 0.0
C1558 C 0.5224 0.31525 0.83302 0.0
C1559 C 0.50771 0.3078 0.86474 0.0
C1560 C 0.52134 0.33252 0.80715 0.0
C1561 C 0.50569 0.3431 0.81322 0.0
C1562 C 0.49055 0.33517 0.84143 0.0
C1563 C 0.49158 0.31777 0.86706 0.0
C1564 C 0.50556 0.36267 0.79344 0.0
C1565 C 0.49159 0.36887 0.75679 0.0
C1566 C 0.51934 0.37523 0.80991 0.0
C1567 C 0.53375 0.37026 0.85197 0.0
C1568 C 0.5293 0.3635 0.90808 0.0
C1569 C 0.54295 0.35856 0.94729 0.0
C1570 C 0.56111 0.36051 0.93107 0.0
C1571 C 0.56565 0.36745 0.87565 0.0
C1572 C 0.55204 0.37236 0.83622 0.0
C1573 C 0.49022 0.44851 0.73379 0.0
C1574 C 0.50445 0.45635 0.70076 0.0
C1575 C 0.49035 0.43008 0.74935 0.0
C1576 C 0.50487 0.41894 0.73329 0.0
C1577 C 0.51914 0.42672 0.70035 0.0
C1578 C 0.51883 0.44512 0.68362 0.0
C1579 C 0.50514 0.39935 0.75173 0.0
C1580 C 0.51906 0.39321 0.78845 0.0
C1581 C 0.49131 0.38689 0.73546 0.0
C1582 C 0.47707 0.39198 0.69302 0.0
C1583 C 0.48176 0.39893 0.63731 0.0
C1584 C 0.46827 0.40358 0.59714 0.0
C1585 C 0.45006 0.40121 0.61204 0.0
C1586 C 0.44529 0.39415 0.66712 0.0
C1587 C 0.45874 0.3895 0.7075 0.0
H1588 H 0.43962 0.40479 0.58084 0.0
H1589 H 0.57167 0.35669 0.96149 0.0
H1590 H 0.21014 0.53478 0.88583 0.0
H1591 H 0.18096 0.53843 0.8355 0.0
H1592 H 0.17718 0.48059 0.81141 0.0
H1593 H 0.20634 0.477 0.86063 0.0
H1594 H 0.16229 0.49653 0.71861 0.0
H1595 H 0.15611 0.50061 0.92633 0.0
H1596 H 0.1647 0.51224 0.02411 0.0
H1597 H 0.14875 0.5658 0.97263 0.0
H1598 H 0.14038 0.55451 0.87403 0.0
H1599 H 0.06287 0.48898 0.75679 0.0
H1600 H 0.09476 0.48922 0.78614 0.0
H1601 H 0.10355 0.53848 0.68781 0.0
H1602 H 0.07176 0.53807 0.65645 0.0
H1603 H 0.11581 0.52791 0.838 0.0
H1604 H 0.12288 0.51984 0.62128 0.0
H1605 H 0.1123 0.50392 0.53224 0.0
H1606 H 0.12446 0.45273 0.61258 0.0
H1607 H 0.1347 0.46841 0.70265 0.0
C1608 C 0.20338 0.52293 0.868 0.0
C1609 C 0.21067 0.50562 0.87702 0.0
C1610 C 0.18655 0.52498 0.83976 0.0
C1611 C 0.17658 0.50975 0.8201 0.0
C1612 C 0.18445 0.49259 0.82586 0.0
C1613 C 0.20118 0.49055 0.85412 0.0
C1614 C 0.1574 0.51144 0.79861 0.0
C1615 C 0.15226 0.50356 0.74469 0.0
C1616 C 0.1439 0.52012 0.83271 0.0
C1617 C 0.14784 0.52678 0.89275 0.0
C1618 C 0.15447 0.51488 0.9359 0.0
C1619 C 0.15932 0.5214 0.99139 0.0
C1620 C 0.15734 0.53976 0.00451 0.0
C1621 C 0.15032 0.55159 0.96232 0.0
C1622 C 0.14551 0.54514 0.90664 0.0
C1623 C 0.07156 0.49985 0.74104 0.0
C1624 C 0.06464 0.51349 0.70397 0.0
C1625 C 0.08981 0.49998 0.75808 0.0
C1626 C 0.10159 0.51385 0.73923 0.0
C1627 C 0.09476 0.52758 0.70274 0.0
C1628 C 0.07656 0.5273 0.6847 0.0
C1629 C 0.12105 0.51373 0.75728 0.0
C1630 C 0.12607 0.52145 0.81126 0.0
C1631 C 0.1343 0.50459 0.72394 0.0
C1632 C 0.12933 0.49526 0.66872 0.0
C1633 C 0.12311 0.50518 0.6201 0.0
C1634 C 0.11716 0.49621 0.56951 0.0
C1635 C 0.11757 0.47731 0.56692 0.0
C1636 C 0.12404 0.46736 0.61478 0.0
C1637 C 0.12995 0.47629 0.66556 0.0
H1638 H 0.11303 0.47038 0.52763 0.0
H1639 H 0.1612 0.54482 0.0474 0.0
H1640 H 0.0318 0.80767 0.47122 0.0
H1641 H 0.03362 0.83741 0.52018 0.0
H1642 H 0.97603 0.84355 0.49978 0.0
H1643 H 0.97417 0.81415 0.45148 0.0
H1644 H 0.99382 0.87243 0.45802 0.0
H1645 H 1.00063 0.83313 0.62681 0.0
H1646 H 0.01647 0.81104 0.68904 0.0
H1647 H 0.05915 0.84955 0.7201 0.0
H1648 H 0.04484 0.87109 0.65241 0.0
H1649 H 0.97785 0.95593 0.59508 0.0
H1650 H 0.97747 0.92397 0.56823 0.0
H1651 H 0.03157 0.91826 0.63688 0.0
H1652 H 0.03126 0.94999 0.66841 0.0
H1653 H 0.01706 0.88886 0.65532 0.0
H1654 H 0.01844 0.92293 0.4764 0.0
H1655 H 0.00846 0.94571 0.40404 0.0
H1656 H 0.95693 0.9187 0.38964 0.0
H1657 H 0.96655 0.89589 0.46246 0.0
C1658 C 0.01946 0.81515 0.47866 0.0
C1659 C 1.00282 0.80837 0.45719 0.0
C1660 C 0.02053 0.83226 0.50644 0.0
C1661 C 1.00496 0.84295 0.5139 0.0
C1662 C 0.9883 0.83578 0.49464 0.0
C1663 C 0.98724 0.81884 0.46702 0.0
C1664 C 1.00576 0.86207 0.53736 0.0
C1665 C 0.99883 0.8759 0.50148 0.0
C1666 C 0.01305 0.86702 0.59312 0.0
C1667 C 0.02172 0.85371 0.63319 0.0
C1668 C 0.01366 0.83676 0.64525 0.0
C1669 C 0.02239 0.8243 0.68162 0.0
C1670 C 0.03867 0.82895 0.70898 0.0
C1671 C 0.04653 0.84593 0.69883 0.0
C1672 C 0.03825 0.85816 0.66067 0.0
C1673 C 0.98963 0.94784 0.60491 0.0
C1674 C 1.00464 0.95565 0.63359 0.0
C1675 C 0.98951 0.92948 0.58876 0.0
C1676 C 1.00476 0.91848 0.59806 0.0
C1677 C 0.0196 0.9262 0.62836 0.0
C1678 C 0.01946 0.94446 0.64638 0.0
C1679 C 1.00531 0.89916 0.57564 0.0
C1680 C 0.01231 0.88535 0.61164 0.0
C1681 C 0.99894 0.8942 0.51891 0.0
C1682 C 0.99314 0.90784 0.47517 0.0
C1683 C 1.00495 0.92193 0.45799 0.0
C1684 C 0.99936 0.93483 0.41691 0.0
C1685 C 0.98206 0.93368 0.39237 0.0
C1686 C 0.97032 0.91959 0.40874 0.0
C1687 C 0.97583 0.90667 0.44987 0.0
H1688 H 0.97775 0.94368 0.36056 0.0
H1689 H 0.04518 0.8194 0.7381 0.0
H1690 H 0.71407 0.03675 0.49648 0.0
H1691 H 0.68395 0.03629 0.54289 0.0
H1692 H 0.67572 0.98139 0.48349 0.0
H1693 H 0.7057 0.98195 0.43721 0.0
H1694 H 0.64786 1.00229 0.45308 0.0
H1695 H 0.6826 0.99369 0.63207 0.0
H1696 H 0.7061 1.00304 0.70314 0.0
H1697 H 0.67771 0.05248 0.73591 0.0
H1698 H 0.6544 0.04373 0.66429 0.0
H1699 H 0.56159 0.98645 0.5748 0.0
H1700 H 0.59359 0.98487 0.54941 0.0
H1701 H 0.60374 0.0342 0.64616 0.0
H1702 H 0.57186 0.0349 0.67563 0.0
H1703 H 0.63122 0.01645 0.6592 0.0
H1704 H 0.59967 0.02963 0.48114 0.0
H1705 H 0.57703 0.02552 0.40248 0.0
H1706 H 0.59923 0.97347 0.36136 0.0
H1707 H 0.62185 0.97719 0.4403 0.0
C1708 C 0.70609 0.02438 0.49542 0.0
C1709 C 0.71251 0.00919 0.46483 0.0
C1710 C 0.68878 0.02414 0.52162 0.0
C1711 C 0.67743 0.00874 0.51735 0.0
C1712 C 0.68412 0.99342 0.48797 0.0
C1713 C 0.70138 0.99365 0.4621 0.0
C1714 C 0.65815 0.00892 0.53888 0.0
C1715 C 0.64428 1.00512 0.49844 0.0
C1716 C 0.65318 0.01339 0.59738 0.0
C1717 C 0.66687 0.01815 0.6423 0.0
C1718 C 0.68142 1.00659 0.65434 0.0
C1719 C 0.69469 0.01175 0.69492 0.0
C1720 C 0.69333 0.02825 0.72454 0.0
C1721 C 0.67871 0.03963 0.71358 0.0
C1722 C 0.6655 0.03461 0.67285 0.0
C1723 C 0.57064 0.99695 0.59085 0.0
C1724 C 0.56404 0.01094 0.62668 0.0
C1725 C 0.58903 0.99616 0.5757 0.0
C1726 C 0.60132 0.00979 0.59361 0.0
C1727 C 0.59477 0.02353 0.63088 0.0
C1728 C 0.57643 0.024 0.64764 0.0
C1729 C 0.62081 0.00975 0.5733 0.0
C1730 C 0.63472 0.01356 0.61384 0.0
C1731 C 0.62586 1.00588 0.51427 0.0
C1732 C 0.6123 1.00361 0.46691 0.0
C1733 C 0.59963 0.01727 0.45552 0.0
C1734 C 0.58682 0.01502 0.41089 0.0
C1735 C 0.58666 0.99923 0.37705 0.0
C1736 C 0.59935 0.98568 0.38767 0.0
C1737 C 0.61217 0.98785 0.43231 0.0
H1738 H 0.57674 0.99751 0.34249 0.0
H1739 H 0.70361 0.03222 0.75595 0.0
H1740 H 0.53193 0.72204 0.51417 0.0
H1741 H 0.52803 0.69196 0.55804 0.0
H1742 H 0.48192 0.68211 0.44618 0.0
H1743 H 0.48569 0.71252 0.40292 0.0
H1744 H 0.47659 0.66555 0.54982 0.0
H1745 H 0.52468 0.66678 0.41028 0.0
H1746 H 0.55298 0.67804 0.3651 0.0
H1747 H 0.58201 0.66576 0.5237 0.0
H1748 H 0.5538 0.65473 0.57019 0.0
H1749 H 0.47896 0.5695 0.58094 0.0
H1750 H 0.47876 0.60093 0.54601 0.0
H1751 H 0.52903 0.61117 0.63723 0.0
H1752 H 0.52961 0.57936 0.6692 0.0
H1753 H 0.53142 0.62745 0.54051 0.0
H1754 H 0.48392 0.62654 0.68322 0.0
H1755 H 0.45564 0.61576 0.73004 0.0
H1756 H 0.42601 0.62826 0.57311 0.0
H1757 H 0.45411 0.6387 0.5247 0.0
C1758 C 0.52049 0.71377 0.50067 0.0
C1759 C 0.50889 0.71992 0.45586 0.0
C1760 C 0.51845 0.69636 0.52505 0.0
C1761 C 0.50494 0.68437 0.50465 0.0
C1762 C 0.49252 0.69094 0.46278 0.0
C1763 C 0.49453 0.70846 0.43847 0.0
C1764 C 0.50456 0.66481 0.52438 0.0
C1765 C 0.48858 0.65723 0.54762 0.0
C1766 C 0.52014 0.6537 0.52187 0.0
C1767 C 0.53712 0.6601 0.49385 0.0
C1768 C 0.53708 0.66659 0.43562 0.0
C1769 C 0.5531 0.67293 0.40978 0.0
C1770 C 0.56928 0.67265 0.44154 0.0
C1771 C 0.56947 0.66599 0.49918 0.0
C1772 C 0.55347 0.6597 0.52529 0.0
C1773 C 0.48981 0.57858 0.59417 0.0
C1774 C 0.50408 0.57211 0.62898 0.0
C1775 C 0.48969 0.59664 0.57433 0.0
C1776 C 0.50366 0.60889 0.58984 0.0
C1777 C 0.51797 0.60227 0.62463 0.0
C1778 C 0.51825 0.58409 0.64352 0.0
C1779 C 0.50362 0.62835 0.56876 0.0
C1780 C 0.51949 0.63582 0.5441 0.0
C1781 C 0.48802 0.63944 0.57104 0.0
C1782 C 0.47114 0.63319 0.60009 0.0
C1783 C 0.47141 0.62677 0.65845 0.0
C1784 C 0.45544 0.62072 0.68526 0.0
C1785 C 0.4391 0.62124 0.65451 0.0
C1786 C 0.43869 0.62781 0.59682 0.0
C1787 C 0.45463 0.63377 0.56961 0.0
H1788 H 0.42673 0.61664 0.67552 0.0
H1789 H 0.58167 0.67756 0.42146 0.0
H1790 H 0.81459 0.54498 0.39509 0.0
H1791 H 0.84384 0.54558 0.44554 0.0
H1792 H 0.82595 0.50217 0.55901 0.0
H1793 H 0.79665 0.50121 0.50709 0.0
H1794 H 0.85118 0.53552 0.60995 0.0
H1795 H 0.84655 0.48754 0.45946 0.0
H1796 H 0.83884 0.47801 0.35852 0.0
H1797 H 0.87665 0.51699 0.28835 0.0
H1798 H 0.88427 0.52701 0.38895 0.0
H1799 H 0.93973 0.50631 0.69981 0.0
H1800 H 0.90769 0.50794 0.67132 0.0
H1801 H 0.92314 0.5312 0.50423 0.0
H1802 H 0.95487 0.52957 0.53203 0.0
H1803 H 0.89819 0.50776 0.48374 0.0
H1804 H 0.9047 0.55625 0.61172 0.0
H1805 H 0.91256 0.5737 0.70042 0.0
H1806 H 0.8726 0.54433 0.79954 0.0
H1807 H 0.86514 0.52579 0.71196 0.0
C1808 C 0.81654 0.53613 0.43264 0.0
C1809 C 0.80301 0.52339 0.44807 0.0
C1810 C 0.83339 0.53636 0.46113 0.0
C1811 C 0.83722 0.52395 0.50627 0.0
C1812 C 0.82332 0.51202 0.52476 0.0
C1813 C 0.80646 0.5116 0.4955 0.0
C1814 C 0.85632 0.52199 0.52807 0.0
C1815 C 0.86138 0.52902 0.58315 0.0
C1816 C 0.86998 0.51458 0.49174 0.0
C1817 C 0.86585 0.5081 0.4316 0.0
C1818 C 0.85312 0.49415 0.42247 0.0
C1819 C 0.84877 0.48866 0.36535 0.0
C1820 C 0.85722 0.49691 0.31705 0.0
C1821 C 0.87009 0.51062 0.3258 0.0
C1822 C 0.87444 0.5162 0.38285 0.0
C1823 C 0.93631 0.51175 0.65698 0.0
C1824 C 0.95007 0.51779 0.61844 0.0
C1825 C 0.91791 0.51276 0.64073 0.0
C1826 C 0.91276 0.51973 0.58536 0.0
C1827 C 0.92653 0.52567 0.54697 0.0
C1828 C 0.94481 0.5248 0.56327 0.0
C1829 C 0.89317 0.5208 0.56686 0.0
C1830 C 0.88802 0.51383 0.51174 0.0
C1831 C 0.87965 0.52904 0.60209 0.0
C1832 C 0.88451 0.53946 0.65554 0.0
C1833 C 0.89782 0.5532 0.65272 0.0
C1834 C 0.90222 0.56324 0.70279 0.0
C1835 C 0.89315 0.55995 0.75571 0.0
C1836 C 0.87968 0.5466 0.75859 0.0
C1837 C 0.87543 0.53627 0.70891 0.0
H1838 H 0.89648 0.5678 0.79443 0.0
H1839 H 0.85382 0.49267 0.27284 0.0
loop_
_geom_bond_atom_site_label_1
_geom_bond_atom_site_label_2
_geom_bond_distance
_geom_bond_site_symmetry_2
_ccdc_geom_bond_type
C0 C1 1.391 . S
C0 C4 1.391 . S
C0 H42 0.948 . S
C1 C0 1.391 . S
C1 C2 1.391 . S
C2 C1 1.391 . S
C2 H58 0.947 . S
C2 C59 1.392 . S
C3 C4 1.391 . S
C3 C7 1.397 . S
C3 C59 1.419 . S
C4 C0 1.391 . S
C4 C3 1.391 . S
C4 C5 1.399 . S
C5 C4 1.399 . S
C5 C8 1.396 . S
C5 C17 1.453 . S
C5 C18 1.684 . S
H6 C30 0.948 . S
C7 C3 1.397 . S
C7 C8 1.394 . S
C7 C26 1.723 . S
C8 C5 1.396 . S
C8 C7 1.394 . S
C8 C38 1.723 . S
H9 C32 0.947 . S
H10 C33 0.948 . S
H11 C39 0.982 . S
H12 C40 0.979 . S
H13 C40 0.980 . S
H14 C40 0.983 . S
H15 C39 0.979 . S
H16 C39 0.977 . S
C17 C5 1.453 . S
C17 H46 0.982 . S
C17 H47 0.979 . S
C17 H48 0.977 . S
C18 C5 1.684 . S
C18 H43 0.979 . S
C18 H44 0.980 . S
C18 H45 0.983 . S
C19 C20 1.391 . S
C19 C24 1.391 . S
C19 H49 0.948 . S
C20 C19 1.391 . S
C20 C21 1.391 . S
C21 C20 1.391 . S
C21 C22 1.392 . S
C21 H50 0.947 . S
C22 C21 1.392 . S
C22 C23 1.419 . S
C22 H51 0.948 . S
C23 C22 1.419 . S
C23 C24 1.391 . S
C23 C27 1.397 . S
C24 C19 1.391 . S
C24 C23 1.391 . S
C24 C25 1.399 . S
C25 C24 1.399 . S
C25 C26 1.396 . S
C25 C28 1.453 . S
C25 C29 1.684 . S
C26 C7 1.723 . S
C26 C25 1.396 . S
C26 C27 1.394 . S
C27 C23 1.397 . S
C27 C26 1.394 . S
C27 C37 1.723 . S
C28 C25 1.453 . S
C28 H52 0.982 . S
C28 H53 0.979 . S
C28 H54 0.977 . S
C29 C25 1.684 . S
C29 H55 0.979 . S
C29 H56 0.980 . S
C29 H57 0.983 . S
C30 H6 0.948 . S
C30 C31 1.391 . S
C30 C35 1.391 . S
C31 C30 1.391 . S
C31 C32 1.391 . S
C32 H9 0.947 . S
C32 C31 1.391 . S
C32 C33 1.392 . S
C33 H10 0.948 . S
C33 C32 1.392 . S
C33 C34 1.419 . S
C34 C33 1.419 . S
C34 C35 1.391 . S
C34 C38 1.397 . S
C35 C30 1.391 . S
C35 C34 1.391 . S
C35 C36 1.399 . S
C36 C35 1.399 . S
C36 C37 1.396 . S
C36 C39 1.453 . S
C36 C40 1.684 . S
C37 C27 1.723 . S
C37 C36 1.396 . S
C37 C38 1.394 . S
C38 C8 1.723 . S
C38 C34 1.397 . S
C38 C37 1.394 . S
C39 H11 0.982 . S
C39 H15 0.979 . S
C39 H16 0.977 . S
C39 C36 1.453 . S
C40 H12 0.979 . S
C40 H13 0.980 . S
C40 H14 0.983 . S
C40 C36 1.684 . S
H41 C59 0.948 . S
H42 C0 0.948 . S
H43 C18 0.979 . S
H44 C18 0.980 . S
H45 C18 0.983 . S
H46 C17 0.982 . S
H47 C17 0.979 . S
H48 C17 0.977 . S
H49 C19 0.948 . S
H50 C21 0.947 . S
H51 C22 0.948 . S
H52 C28 0.982 . S
H53 C28 0.979 . S
H54 C28 0.977 . S
H55 C29 0.979 . S
H56 C29 0.980 . S
H57 C29 0.983 . S
H58 C2 0.947 . S
C59 C2 1.392 . S
C59 C3 1.419 . S
C59 H41 0.948 . S
C60 C61 1.391 . S
C60 C64 1.391 . S
C60 H102 0.948 . S
C61 C60 1.391 . S
C61 C62 1.391 . S
C62 C61 1.391 . S
C62 H118 0.947 . S
C62 C119 1.392 . S
C63 C64 1.400 . S
C63 C67 1.394 1_655 S
C63 C119 1.426 . S
C64 C60 1.391 . S
C64 C63 1.400 . S
C64 C65 1.399 . S
C65 C64 1.399 . S
C65 C68 1.388 1_655 S
C65 C77 1.453 1_655 S
C65 C78 1.684 . S
H66 C90 0.948 . S
C67 C63 1.394 1_455 S
C67 C68 1.393 . S
C67 C86 1.722 . S
C68 C65 1.388 1_455 S
C68 C67 1.393 . S
C68 C98 1.722 . S
H69 C92 0.947 . S
H70 C93 0.948 . S
H71 C99 0.982 . S
H72 C100 0.979 . S
H73 C100 0.980 . S
H74 C100 0.983 . S
H75 C99 0.979 . S
H76 C99 0.977 . S
C77 C65 1.453 1_455 S
C77 H106 0.982 . S
C77 H107 0.979 . S
C77 H108 0.977 . S
C78 C65 1.684 . S
C78 H103 0.979 . S
C78 H104 0.980 . S
C78 H105 0.983 . S
C79 C80 1.391 . S
C79 C84 1.391 . S
C79 H109 0.948 . S
C80 C79 1.391 . S
C80 C81 1.391 . S
C81 C80 1.391 . S
C81 C82 1.392 . S
C81 H110 0.947 . S
C82 C81 1.392 . S
C82 C83 1.425 . S
C82 H111 0.948 . S
C83 C82 1.425 . S
C83 C84 1.400 . S
C83 C87 1.395 1_655 S
C84 C79 1.391 . S
C84 C83 1.400 . S
C84 C85 1.399 . S
C85 C84 1.399 . S
C85 C86 1.388 1_655 S
C85 C88 1.453 1_655 S
C85 C89 1.684 . S
C86 C67 1.722 . S
C86 C85 1.388 1_455 S
C86 C87 1.393 . S
C87 C83 1.395 1_455 S
C87 C86 1.393 . S
C87 C97 1.721 . S
C88 C85 1.453 1_455 S
C88 H112 0.982 . S
C88 H113 0.979 . S
C88 H114 0.977 . S
C89 C85 1.684 . S
C89 H115 0.979 . S
C89 H116 0.980 . S
C89 H117 0.983 . S
C90 H66 0.948 . S
C90 C91 1.391 . S
C90 C95 1.391 . S
C91 C90 1.391 . S
C91 C92 1.391 . S
C92 H69 0.947 . S
C92 C91 1.391 . S
C92 C93 1.392 . S
C93 H70 0.948 . S
C93 C92 1.392 . S
C93 C94 1.425 . S
C94 C93 1.425 . S
C94 C95 1.399 . S
C94 C98 1.395 1_655 S
C95 C90 1.391 . S
C95 C94 1.399 . S
C95 C96 1.399 . S
C96 C95 1.399 . S
C96 C97 1.389 1_655 S
C96 C99 1.453 1_655 S
C96 C100 1.684 . S
C97 C87 1.721 . S
C97 C96 1.389 1_455 S
C97 C98 1.393 . S
C98 C68 1.722 . S
C98 C94 1.395 1_455 S
C98 C97 1.393 . S
C99 H71 0.982 . S
C99 H75 0.979 . S
C99 H76 0.977 . S
C99 C96 1.453 1_455 S
C100 H72 0.979 . S
C100 H73 0.980 . S
C100 H74 0.983 . S
C100 C96 1.684 . S
H101 C119 0.948 . S
H102 C60 0.948 . S
H103 C78 0.979 . S
H104 C78 0.980 . S
H105 C78 0.983 . S
H106 C77 0.982 . S
H107 C77 0.979 . S
H108 C77 0.977 . S
H109 C79 0.948 . S
H110 C81 0.947 . S
H111 C82 0.948 . S
H112 C88 0.982 . S
H113 C88 0.979 . S
H114 C88 0.977 . S
H115 C89 0.979 . S
H116 C89 0.980 . S
H117 C89 0.983 . S
H118 C62 0.947 . S
C119 C62 1.392 . S
C119 C63 1.426 . S
C119 H101 0.948 . S
C120 C121 1.391 . S
C120 C124 1.391 . S
C120 H162 0.948 . S
C121 C120 1.391 . S
C121 C122 1.391 . S
C122 C121 1.391 . S
C122 H178 0.947 . S
C122 C179 1.392 . S
C123 C124 1.391 . S
C123 C127 1.397 . S
C123 C179 1.419 . S
C124 C120 1.391 . S
C124 C123 1.391 . S
C124 C125 1.399 . S
C125 C124 1.399 . S
C125 C128 1.396 . S
C125 C137 1.444 1_565 S
C125 C138 1.684 . S
H126 C150 0.948 . S
C127 C123 1.397 . S
C127 C128 1.394 . S
C127 C146 1.723 . S
C128 C125 1.396 . S
C128 C127 1.394 . S
C128 C158 1.723 . S
H129 C152 0.947 . S
H130 C153 0.948 . S
H131 C159 0.993 . S
H132 C160 0.979 . S
H133 C160 0.980 . S
H134 C160 0.983 . S
H135 C159 0.978 1_565 S
H136 C159 0.973 1_565 S
C137 C125 1.444 1_545 S
C137 H166 0.993 . S
C137 H167 0.978 1_545 S
C137 H168 0.974 1_545 S
C138 C125 1.684 . S
C138 H163 0.979 . S
C138 H164 0.980 . S
C138 H165 0.983 . S
C139 C140 1.391 . S
C139 C144 1.391 . S
C139 H169 0.948 . S
C140 C139 1.391 . S
C140 C141 1.391 . S
C141 C140 1.391 . S
C141 C142 1.392 . S
C141 H170 0.947 . S
C142 C141 1.392 . S
C142 C143 1.419 . S
C142 H171 0.948 . S
C143 C142 1.419 . S
C143 C144 1.391 . S
C143 C147 1.397 . S
C144 C139 1.391 . S
C144 C143 1.391 . S
C144 C145 1.399 . S
C145 C144 1.399 . S
C145 C146 1.396 . S
C145 C148 1.444 1_565 S
C145 C149 1.684 . S
C146 C127 1.723 . S
C146 C145 1.396 . S
C146 C147 1.394 . S
C147 C143 1.397 . S
C147 C146 1.394 . S
C147 C157 1.723 . S
C148 C145 1.444 1_545 S
C148 H172 0.993 . S
C148 H173 0.978 1_545 S
C148 H174 0.973 1_545 S
C149 C145 1.684 . S
C149 H175 0.979 . S
C149 H176 0.980 . S
C149 H177 0.983 . S
C150 H126 0.948 . S
C150 C151 1.391 . S
C150 C155 1.391 . S
C151 C150 1.391 . S
C151 C152 1.391 . S
C152 H129 0.947 . S
C152 C151 1.391 . S
C152 C153 1.392 . S
C153 H130 0.948 . S
C153 C152 1.392 . S
C153 C154 1.419 . S
C154 C153 1.419 . S
C154 C155 1.391 . S
C154 C158 1.397 . S
C155 C150 1.391 . S
C155 C154 1.391 . S
C155 C156 1.399 . S
C156 C155 1.399 . S
C156 C157 1.396 . S
C156 C159 1.444 1_565 S
C156 C160 1.684 . S
C157 C147 1.723 . S
C157 C156 1.396 . S
C157 C158 1.394 . S
C158 C128 1.723 . S
C158 C154 1.397 . S
C158 C157 1.394 . S
C159 H131 0.993 . S
C159 H135 0.978 1_545 S
C159 H136 0.973 1_545 S
C159 C156 1.444 1_545 S
C160 H132 0.979 . S
C160 H133 0.980 . S
C160 H134 0.983 . S
C160 C156 1.684 . S
H161 C179 0.948 . S
H162 C120 0.948 . S
H163 C138 0.979 . S
H164 C138 0.980 . S
H165 C138 0.983 . S
H166 C137 0.993 . S
H167 C137 0.978 1_565 S
H168 C137 0.974 1_565 S
H169 C139 0.948 . S
H170 C141 0.947 . S
H171 C142 0.948 . S
H172 C148 0.993 . S
H173 C148 0.978 1_565 S
H174 C148 0.973 1_565 S
H175 C149 0.979 . S
H176 C149 0.980 . S
H177 C149 0.983 . S
H178 C122 0.947 . S
C179 C122 1.392 . S
C179 C123 1.419 . S
C179 H161 0.948 . S
C180 C181 1.391 . S
C180 C184 1.391 . S
C180 H222 0.948 . S
C181 C180 1.391 . S
C181 C182 1.391 . S
C182 C181 1.391 . S
C182 H238 0.947 . S
C182 C239 1.392 . S
C183 C184 1.391 . S
C183 C187 1.397 . S
C183 C239 1.419 . S
C184 C180 1.391 . S
C184 C183 1.391 . S
C184 C185 1.399 . S
C185 C184 1.399 . S
C185 C188 1.396 . S
C185 C197 1.453 . S
C185 C198 1.684 . S
H186 C210 0.948 . S
C187 C183 1.397 . S
C187 C188 1.394 . S
C187 C206 1.723 . S
C188 C185 1.396 . S
C188 C187 1.394 . S
C188 C218 1.723 . S
H189 C212 0.947 . S
H190 C213 0.948 . S
H191 C219 0.982 . S
H192 C220 0.979 . S
H193 C220 0.980 . S
H194 C220 0.983 . S
H195 C219 0.979 . S
H196 C219 0.977 . S
C197 C185 1.453 . S
C197 H226 0.982 . S
C197 H227 0.979 . S
C197 H228 0.977 . S
C198 C185 1.684 . S
C198 H223 0.979 . S
C198 H224 0.980 . S
C198 H225 0.983 . S
C199 C200 1.391 . S
C199 C204 1.391 . S
C199 H229 0.948 . S
C200 C199 1.391 . S
C200 C201 1.391 . S
C201 C200 1.391 . S
C201 C202 1.392 . S
C201 H230 0.947 . S
C202 C201 1.392 . S
C202 C203 1.419 . S
C202 H231 0.948 . S
C203 C202 1.419 . S
C203 C204 1.391 . S
C203 C207 1.397 . S
C204 C199 1.391 . S
C204 C203 1.391 . S
C204 C205 1.399 . S
C205 C204 1.399 . S
C205 C206 1.396 . S
C205 C208 1.453 . S
C205 C209 1.684 . S
C206 C187 1.723 . S
C206 C205 1.396 . S
C206 C207 1.394 . S
C207 C203 1.397 . S
C207 C206 1.394 . S
C207 C217 1.723 . S
C208 C205 1.453 . S
C208 H232 0.982 . S
C208 H233 0.979 . S
C208 H234 0.977 . S
C209 C205 1.684 . S
C209 H235 0.979 . S
C209 H236 0.980 . S
C209 H237 0.983 . S
C210 H186 0.948 . S
C210 C211 1.391 . S
C210 C215 1.391 . S
C211 C210 1.391 . S
C211 C212 1.391 . S
C212 H189 0.947 . S
C212 C211 1.391 . S
C212 C213 1.392 . S
C213 H190 0.948 . S
C213 C212 1.392 . S
C213 C214 1.419 . S
C214 C213 1.419 . S
C214 C215 1.391 . S
C214 C218 1.397 . S
C215 C210 1.391 . S
C215 C214 1.391 . S
C215 C216 1.399 . S
C216 C215 1.399 . S
C216 C217 1.396 . S
C216 C219 1.453 . S
C216 C220 1.684 . S
C217 C207 1.723 . S
C217 C216 1.396 . S
C217 C218 1.394 . S
C218 C188 1.723 . S
C218 C214 1.397 . S
C218 C217 1.394 . S
C219 H191 0.982 . S
C219 H195 0.979 . S
C219 H196 0.977 . S
C219 C216 1.453 . S
C220 H192 0.979 . S
C220 H193 0.980 . S
C220 H194 0.983 . S
C220 C216 1.684 . S
H221 C239 0.948 . S
H222 C180 0.948 . S
H223 C198 0.979 . S
H224 C198 0.980 . S
H225 C198 0.983 . S
H226 C197 0.982 . S
H227 C197 0.979 . S
H228 C197 0.977 . S
H229 C199 0.948 . S
H230 C201 0.947 . S
H231 C202 0.948 . S
H232 C208 0.982 . S
H233 C208 0.979 . S
H234 C208 0.977 . S
H235 C209 0.979 . S
H236 C209 0.980 . S
H237 C209 0.983 . S
H238 C182 0.947 . S
C239 C182 1.392 . S
C239 C183 1.419 . S
C239 H221 0.948 . S
C240 C241 1.391 . S
C240 C244 1.391 . S
C240 H282 0.948 . S
C241 C240 1.391 . S
C241 C242 1.391 . S
C242 C241 1.391 . S
C242 H298 0.947 . S
C242 C299 1.392 . S
C243 C244 1.391 . S
C243 C247 1.397 . S
C243 C299 1.419 . S
C244 C240 1.391 . S
C244 C243 1.391 . S
C244 C245 1.399 1_554 S
C245 C244 1.399 1_556 S
C245 C248 1.396 . S
C245 C257 1.453 . S
C245 C258 1.684 . S
H246 C270 0.948 . S
C247 C243 1.397 . S
C247 C248 1.394 1_554 S
C247 C266 1.723 . S
C248 C245 1.396 . S
C248 C247 1.394 1_556 S
C248 C278 1.723 . S
H249 C272 0.947 . S
H250 C273 0.948 . S
H251 C279 0.982 . S
H252 C280 0.979 . S
H253 C280 0.980 1_554 S
H254 C280 0.983 . S
H255 C279 0.979 . S
H256 C279 0.977 1_554 S
C257 C245 1.453 . S
C257 H286 0.982 . S
C257 H287 0.979 . S
C257 H288 0.977 . S
C258 C245 1.684 . S
C258 H283 0.979 . S
C258 H284 0.980 . S
C258 H285 0.983 . S
C259 C260 1.391 . S
C259 C264 1.391 . S
C259 H289 0.948 . S
C260 C259 1.391 . S
C260 C261 1.391 . S
C261 C260 1.391 . S
C261 C262 1.392 . S
C261 H290 0.947 . S
C262 C261 1.392 . S
C262 C263 1.419 . S
C262 H291 0.948 . S
C263 C262 1.419 . S
C263 C264 1.391 . S
C263 C267 1.397 . S
C264 C259 1.391 . S
C264 C263 1.391 . S
C264 C265 1.399 . S
C265 C264 1.399 . S
C265 C266 1.396 . S
C265 C268 1.453 . S
C265 C269 1.684 . S
C266 C247 1.723 . S
C266 C265 1.396 . S
C266 C267 1.394 . S
C267 C263 1.397 . S
C267 C266 1.394 . S
C267 C277 1.727 . S
C268 C265 1.453 . S
C268 H292 0.982 . S
C268 H293 0.979 . S
C268 H294 0.977 . S
C269 C265 1.684 . S
C269 H295 0.979 . S
C269 H296 0.980 . S
C269 H297 0.983 . S
C270 H246 0.948 . S
C270 C271 1.391 . S
C270 C275 1.391 . S
C271 C270 1.391 . S
C271 C272 1.391 . S
C272 H249 0.947 . S
C272 C271 1.391 . S
C272 C273 1.392 . S
C273 H250 0.948 . S
C273 C272 1.392 . S
C273 C274 1.419 . S
C274 C273 1.419 . S
C274 C275 1.391 . S
C274 C278 1.397 . S
C275 C270 1.391 . S
C275 C274 1.391 . S
C275 C276 1.399 . S
C276 C275 1.399 . S
C276 C277 1.394 1_556 S
C276 C279 1.453 . S
C276 C280 1.684 . S
C277 C267 1.727 . S
C277 C276 1.394 1_554 S
C277 C278 1.392 1_554 S
C278 C248 1.723 . S
C278 C274 1.397 . S
C278 C277 1.392 1_556 S
C279 H251 0.982 . S
C279 H255 0.979 . S
C279 H256 0.977 1_556 S
C279 C276 1.453 . S
C280 H252 0.979 . S
C280 H253 0.980 1_556 S
C280 H254 0.983 . S
C280 C276 1.684 . S
H281 C299 0.948 . S
H282 C240 0.948 . S
H283 C258 0.979 . S
H284 C258 0.980 . S
H285 C258 0.983 . S
H286 C257 0.982 . S
H287 C257 0.979 . S
H288 C257 0.977 . S
H289 C259 0.948 . S
H290 C261 0.947 . S
H291 C262 0.948 . S
H292 C268 0.982 . S
H293 C268 0.979 . S
H294 C268 0.977 . S
H295 C269 0.979 . S
H296 C269 0.980 . S
H297 C269 0.983 . S
H298 C242 0.947 . S
C299 C242 1.392 . S
C299 C243 1.419 . S
C299 H281 0.948 . S
C300 C301 1.391 . S
C300 C304 1.391 . S
C300 H342 0.948 . S
C301 C300 1.391 . S
C301 C302 1.391 . S
C302 C301 1.391 . S
C302 H358 0.947 . S
C302 C359 1.392 . S
C303 C304 1.398 . S
C303 C307 1.395 1_655 S
C303 C359 1.423 . S
C304 C300 1.391 . S
C304 C303 1.398 . S
C304 C305 1.399 . S
C305 C304 1.399 . S
C305 C308 1.396 1_655 S
C305 C317 1.453 1_655 S
C305 C318 1.684 . S
H306 C330 0.948 . S
C307 C303 1.395 1_455 S
C307 C308 1.395 . S
C307 C326 1.723 1_554 S
C308 C305 1.396 1_455 S
C308 C307 1.395 . S
C308 C338 1.723 . S
H309 C332 0.947 . S
H310 C333 0.948 . S
H311 C339 0.982 . S
H312 C340 0.979 . S
H313 C340 0.980 . S
H314 C340 0.983 . S
H315 C339 0.979 . S
H316 C339 0.977 . S
C317 C305 1.453 1_455 S
C317 H346 0.982 . S
C317 H347 0.979 . S
C317 H348 0.977 . S
C318 C305 1.684 . S
C318 H343 0.979 . S
C318 H344 0.980 . S
C318 H345 0.983 . S
C319 C320 1.391 . S
C319 C324 1.391 . S
C319 H349 0.948 . S
C320 C319 1.391 . S
C320 C321 1.391 . S
C321 C320 1.391 . S
C321 C322 1.392 . S
C321 H350 0.947 . S
C322 C321 1.392 . S
C322 C323 1.424 . S
C322 H351 0.948 . S
C323 C322 1.424 . S
C323 C324 1.397 . S
C323 C327 1.395 1_655 S
C324 C319 1.391 . S
C324 C323 1.397 . S
C324 C325 1.399 . S
C325 C324 1.399 . S
C325 C326 1.396 1_655 S
C325 C328 1.453 1_655 S
C325 C329 1.684 . S
C326 C307 1.723 1_556 S
C326 C325 1.396 1_455 S
C326 C327 1.395 . S
C327 C323 1.395 1_455 S
C327 C326 1.395 . S
C327 C337 1.723 . S
C328 C325 1.453 1_455 S
C328 H352 0.982 . S
C328 H353 0.979 . S
C328 H354 0.977 1_556 S
C329 C325 1.684 . S
C329 H355 0.979 . S
C329 H356 0.980 1_556 S
C329 H357 0.983 . S
C330 H306 0.948 . S
C330 C331 1.391 . S
C330 C335 1.391 . S
C331 C330 1.391 . S
C331 C332 1.391 . S
C332 H309 0.947 . S
C332 C331 1.391 . S
C332 C333 1.392 . S
C333 H310 0.948 . S
C333 C332 1.392 . S
C333 C334 1.424 . S
C334 C333 1.424 . S
C334 C335 1.398 . S
C334 C338 1.394 1_655 S
C335 C330 1.391 . S
C335 C334 1.398 . S
C335 C336 1.399 1_554 S
C336 C335 1.399 1_556 S
C336 C337 1.396 1_655 S
C336 C339 1.453 1_655 S
C336 C340 1.684 . S
C337 C327 1.723 . S
C337 C336 1.396 1_455 S
C337 C338 1.395 1_556 S
C338 C308 1.723 . S
C338 C334 1.394 1_455 S
C338 C337 1.395 1_554 S
C339 H311 0.982 . S
C339 H315 0.979 . S
C339 H316 0.977 . S
C339 C336 1.453 1_455 S
C340 H312 0.979 . S
C340 H313 0.980 . S
C340 H314 0.983 . S
C340 C336 1.684 . S
H341 C359 0.948 . S
H342 C300 0.948 . S
H343 C318 0.979 . S
H344 C318 0.980 . S
H345 C318 0.983 . S
H346 C317 0.982 . S
H347 C317 0.979 . S
H348 C317 0.977 . S
H349 C319 0.948 . S
H350 C321 0.947 . S
H351 C322 0.948 . S
H352 C328 0.982 . S
H353 C328 0.979 . S
H354 C328 0.977 1_554 S
H355 C329 0.979 . S
H356 C329 0.980 1_554 S
H357 C329 0.983 . S
H358 C302 0.947 . S
C359 C302 1.392 . S
C359 C303 1.423 . S
C359 H341 0.948 . S
C360 C361 1.391 . S
C360 C364 1.391 . S
C360 H402 0.948 . S
C361 C360 1.391 . S
C361 C362 1.391 . S
C362 C361 1.391 . S
C362 H418 0.947 . S
C362 C419 1.392 . S
C363 C364 1.391 . S
C363 C367 1.397 . S
C363 C419 1.419 . S
C364 C360 1.391 . S
C364 C363 1.391 . S
C364 C365 1.399 . S
C365 C364 1.399 . S
C365 C368 1.396 . S
C365 C377 1.453 . S
C365 C378 1.684 . S
H366 C390 0.948 . S
C367 C363 1.397 . S
C367 C368 1.394 . S
C367 C386 1.723 1_556 S
C368 C365 1.396 . S
C368 C367 1.394 . S
C368 C398 1.723 1_556 S
H369 C392 0.947 1_556 S
H370 C393 0.956 . S
H371 C399 0.982 . S
H372 C400 0.979 . S
H373 C400 0.980 . S
H374 C400 0.983 . S
H375 C399 0.979 . S
H376 C399 0.977 . S
C377 C365 1.453 . S
C377 H406 0.982 . S
C377 H407 0.979 . S
C377 H408 0.977 . S
C378 C365 1.684 . S
C378 H403 0.979 . S
C378 H404 0.980 . S
C378 H405 0.983 . S
C379 C380 1.391 . S
C379 C384 1.391 . S
C379 H409 0.948 . S
C380 C379 1.391 . S
C380 C381 1.391 . S
C381 C380 1.391 . S
C381 C382 1.392 . S
C381 H410 0.947 . S
C382 C381 1.392 . S
C382 C383 1.419 . S
C382 H411 0.948 . S
C383 C382 1.419 . S
C383 C384 1.391 . S
C383 C387 1.397 . S
C384 C379 1.391 . S
C384 C383 1.391 . S
C384 C385 1.399 . S
C385 C384 1.399 . S
C385 C386 1.396 . S
C385 C388 1.453 . S
C385 C389 1.684 . S
C386 C367 1.723 1_554 S
C386 C385 1.396 . S
C386 C387 1.394 . S
C387 C383 1.397 . S
C387 C386 1.394 . S
C387 C397 1.723 . S
C388 C385 1.453 . S
C388 H412 0.982 . S
C388 H413 0.979 . S
C388 H414 0.977 1_554 S
C389 C385 1.684 . S
C389 H415 0.979 . S
C389 H416 0.980 1_554 S
C389 H417 0.983 . S
C390 H366 0.948 . S
C390 C391 1.391 . S
C390 C395 1.391 . S
C391 C390 1.391 . S
C391 C392 1.391 . S
C392 H369 0.947 1_554 S
C392 C391 1.391 . S
C392 C393 1.389 1_554 S
C393 H370 0.956 . S
C393 C392 1.389 1_556 S
C393 C394 1.413 1_556 S
C394 C393 1.413 1_554 S
C394 C395 1.391 . S
C394 C398 1.397 . S
C395 C390 1.391 . S
C395 C394 1.391 . S
C395 C396 1.399 . S
C396 C395 1.399 . S
C396 C397 1.396 . S
C396 C399 1.453 . S
C396 C400 1.684 . S
C397 C387 1.723 . S
C397 C396 1.396 . S
C397 C398 1.394 . S
C398 C368 1.723 1_554 S
C398 C394 1.397 . S
C398 C397 1.394 . S
C399 H371 0.982 . S
C399 H375 0.979 . S
C399 H376 0.977 . S
C399 C396 1.453 . S
C400 H372 0.979 . S
C400 H373 0.980 . S
C400 H374 0.983 . S
C400 C396 1.684 . S
H401 C419 0.948 . S
H402 C360 0.948 . S
H403 C378 0.979 . S
H404 C378 0.980 . S
H405 C378 0.983 . S
H406 C377 0.982 . S
H407 C377 0.979 . S
H408 C377 0.977 . S
H409 C379 0.948 . S
H410 C381 0.947 . S
H411 C382 0.948 . S
H412 C388 0.982 . S
H413 C388 0.979 . S
H414 C388 0.977 1_556 S
H415 C389 0.979 . S
H416 C389 0.980 1_556 S
H417 C389 0.983 . S
H418 C362 0.947 . S
C419 C362 1.392 . S
C419 C363 1.419 . S
C419 H401 0.948 . S
C420 C421 1.391 . S
C420 C424 1.391 . S
C420 H462 0.948 . S
C421 C420 1.391 . S
C421 C422 1.391 . S
C422 C421 1.391 . S
C422 H478 0.947 . S
C422 C479 1.392 . S
C423 C424 1.391 . S
C423 C427 1.397 . S
C423 C479 1.419 . S
C424 C420 1.391 . S
C424 C423 1.391 . S
C424 C425 1.399 . S
C425 C424 1.399 . S
C425 C428 1.396 . S
C425 C437 1.453 . S
C425 C438 1.684 . S
H426 C450 0.948 . S
C427 C423 1.397 . S
C427 C428 1.394 . S
C427 C446 1.723 1_556 S
C428 C425 1.396 . S
C428 C427 1.394 . S
C428 C458 1.723 1_556 S
H429 C452 0.947 1_556 S
H430 C453 0.948 . S
H431 C459 0.982 . S
H432 C460 0.979 . S
H433 C460 0.980 . S
H434 C460 0.983 . S
H435 C459 0.979 . S
H436 C459 0.977 . S
C437 C425 1.453 . S
C437 H466 0.982 . S
C437 H467 0.979 . S
C437 H468 0.977 . S
C438 C425 1.684 . S
C438 H463 0.979 . S
C438 H464 0.980 . S
C438 H465 0.983 . S
C439 C440 1.391 . S
C439 C444 1.391 . S
C439 H469 0.948 . S
C440 C439 1.391 . S
C440 C441 1.391 . S
C441 C440 1.391 . S
C441 C442 1.392 . S
C441 H470 0.947 . S
C442 C441 1.392 . S
C442 C443 1.419 . S
C442 H471 0.948 . S
C443 C442 1.419 . S
C443 C444 1.391 . S
C443 C447 1.397 . S
C444 C439 1.391 . S
C444 C443 1.391 . S
C444 C445 1.399 . S
C445 C444 1.399 . S
C445 C446 1.396 . S
C445 C448 1.453 . S
C445 C449 1.684 . S
C446 C427 1.723 1_554 S
C446 C445 1.396 . S
C446 C447 1.394 . S
C447 C443 1.397 . S
C447 C446 1.394 . S
C447 C457 1.723 . S
C448 C445 1.453 . S
C448 H472 0.982 . S
C448 H473 0.979 . S
C448 H474 0.977 1_554 S
C449 C445 1.684 . S
C449 H475 0.979 . S
C449 H476 0.980 1_554 S
C449 H477 0.983 . S
C450 H426 0.948 . S
C450 C451 1.391 . S
C450 C455 1.391 . S
C451 C450 1.391 . S
C451 C452 1.391 . S
C452 H429 0.947 1_554 S
C452 C451 1.391 . S
C452 C453 1.392 1_554 S
C453 H430 0.948 . S
C453 C452 1.392 1_556 S
C453 C454 1.419 1_556 S
C454 C453 1.419 1_554 S
C454 C455 1.391 . S
C454 C458 1.397 . S
C455 C450 1.391 . S
C455 C454 1.391 . S
C455 C456 1.399 . S
C456 C455 1.399 . S
C456 C457 1.396 . S
C456 C459 1.453 . S
C456 C460 1.684 . S
C457 C447 1.723 . S
C457 C456 1.396 . S
C457 C458 1.394 . S
C458 C428 1.723 1_554 S
C458 C454 1.397 . S
C458 C457 1.394 . S
C459 H431 0.982 . S
C459 H435 0.979 . S
C459 H436 0.977 . S
C459 C456 1.453 . S
C460 H432 0.979 . S
C460 H433 0.980 . S
C460 H434 0.983 . S
C460 C456 1.684 . S
H461 C479 0.948 . S
H462 C420 0.948 . S
H463 C438 0.979 . S
H464 C438 0.980 . S
H465 C438 0.983 . S
H466 C437 0.982 . S
H467 C437 0.979 . S
H468 C437 0.977 . S
H469 C439 0.948 . S
H470 C441 0.947 . S
H471 C442 0.948 . S
H472 C448 0.982 . S
H473 C448 0.979 . S
H474 C448 0.977 1_556 S
H475 C449 0.979 . S
H476 C449 0.980 1_556 S
H477 C449 0.983 . S
H478 C422 0.947 . S
C479 C422 1.392 . S
C479 C423 1.419 . S
C479 H461 0.948 . S
Gd480 C483 2.818 . S
Gd480 O500 2.377 . S
Gd480 O502 2.448 . S
Gd480 O503 2.506 . S
Gd480 O504 2.435 . S
Gd480 O505 2.717 1_565 S
Gd480 O507 2.395 1_565 S
Gd480 O511 2.327 1_465 S
Gd481 C492 2.818 . S
Gd481 O501 2.395 1_545 S
Gd481 O505 2.327 1_655 S
Gd481 O506 2.377 . S
Gd481 O508 2.448 . S
Gd481 O509 2.506 . S
Gd481 O510 2.435 . S
Gd481 O511 2.717 . S
C482 O500 1.240 1_655 S
C482 O501 1.240 . S
C483 Gd480 2.818 . S
C483 C484 1.510 . S
C483 O502 1.249 . S
C483 O503 1.252 . S
C484 C483 1.510 . S
C484 C485 1.404 . S
C484 C486 1.352 . S
C485 C484 1.404 . S
C485 C489 1.389 . S
C485 H512 0.930 . S
C486 C484 1.352 . S
C486 C488 1.374 . S
C486 H513 0.931 1_455 S
C487 C488 1.359 . S
C487 C489 1.364 . S
C488 C486 1.374 . S
C488 C487 1.359 . S
C488 H514 0.931 1_455 S
C489 C485 1.389 . S
C489 C487 1.364 . S
C489 H515 0.931 . S
C490 O504 1.256 1_545 S
C490 O505 1.257 . S
C491 O506 1.240 1_455 S
C491 O507 1.240 . S
C492 Gd481 2.818 . S
C492 C493 1.510 . S
C492 O508 1.249 . S
C492 O509 1.252 . S
C493 C492 1.510 . S
C493 C494 1.404 . S
C493 C495 1.352 . S
C494 C493 1.404 . S
C494 C498 1.389 . S
C494 H516 0.930 . S
C495 C493 1.352 . S
C495 C497 1.374 . S
C495 H517 0.931 1_655 S
C496 C497 1.359 . S
C496 C498 1.364 . S
C497 C495 1.374 . S
C497 C496 1.359 . S
C497 H518 0.931 1_655 S
C498 C494 1.389 . S
C498 C496 1.364 . S
C498 H519 0.931 . S
C499 O510 1.256 . S
C499 O511 1.257 . S
O500 Gd480 2.377 . S
O500 C482 1.240 1_455 S
O501 Gd481 2.395 1_565 S
O501 C482 1.240 . S
O502 Gd480 2.448 . S
O502 C483 1.249 . S
O503 Gd480 2.506 . S
O503 C483 1.252 . S
O504 Gd480 2.435 . S
O504 C490 1.256 1_565 S
O505 Gd480 2.717 1_545 S
O505 Gd481 2.327 1_455 S
O505 C490 1.257 . S
O506 Gd481 2.377 . S
O506 C491 1.240 1_655 S
O507 Gd480 2.395 1_545 S
O507 C491 1.240 . S
O508 Gd481 2.448 . S
O508 C492 1.249 . S
O509 Gd481 2.506 . S
O509 C492 1.252 . S
O510 Gd481 2.435 . S
O510 C499 1.256 . S
O511 Gd480 2.327 1_645 S
O511 Gd481 2.717 . S
O511 C499 1.257 . S
H512 C485 0.930 . S
H513 C486 0.931 1_655 S
H514 C488 0.931 1_655 S
H515 C489 0.931 . S
H516 C494 0.930 . S
H517 C495 0.931 1_455 S
H518 C497 0.931 1_455 S
H519 C498 0.931 . S
Gd520 C523 2.818 . S
Gd520 O540 2.377 . S
Gd520 O542 2.448 . S
Gd520 O543 2.506 . S
Gd520 O544 2.435 . S
Gd520 O545 2.717 . S
Gd520 O547 2.395 . S
Gd520 O551 2.327 1_545 S
Gd521 C532 2.818 . S
Gd521 O541 2.395 . S
Gd521 O545 2.327 1_565 S
Gd521 O546 2.377 1_565 S
Gd521 O548 2.448 . S
Gd521 O549 2.506 1_565 S
Gd521 O550 2.435 . S
Gd521 O551 2.717 . S
C522 O540 1.240 1_565 S
C522 O541 1.240 . S
C523 Gd520 2.818 . S
C523 C524 1.510 . S
C523 O542 1.249 . S
C523 O543 1.252 . S
C524 C523 1.510 . S
C524 C525 1.404 . S
C524 C526 1.352 . S
C525 C524 1.404 . S
C525 C529 1.389 . S
C525 H552 0.930 . S
C526 C524 1.352 . S
C526 C528 1.374 . S
C526 H553 0.931 1_545 S
C527 C528 1.359 . S
C527 C529 1.364 . S
C528 C526 1.374 . S
C528 C527 1.359 . S
C528 H554 0.931 1_545 S
C529 C525 1.389 . S
C529 C527 1.364 . S
C529 H555 0.931 . S
C530 O544 1.256 . S
C530 O545 1.257 . S
C531 O546 1.240 . S
C531 O547 1.240 . S
C532 Gd521 2.818 . S
C532 C533 1.510 . S
C532 O548 1.249 . S
C532 O549 1.252 1_565 S
C533 C532 1.510 . S
C533 C534 1.404 . S
C533 C535 1.352 1_565 S
C534 C533 1.404 . S
C534 C538 1.389 . S
C534 H556 0.930 . S
C535 C533 1.352 1_545 S
C535 C537 1.374 . S
C535 H557 0.931 . S
C536 C537 1.359 1_565 S
C536 C538 1.364 . S
C537 C535 1.374 . S
C537 C536 1.359 1_545 S
C537 H558 0.931 . S
C538 C534 1.389 . S
C538 C536 1.364 . S
C538 H559 0.931 . S
C539 O550 1.256 . S
C539 O551 1.257 . S
O540 Gd520 2.377 . S
O540 C522 1.240 1_545 S
O541 Gd521 2.395 . S
O541 C522 1.240 . S
O542 Gd520 2.448 . S
O542 C523 1.249 . S
O543 Gd520 2.506 . S
O543 C523 1.252 . S
O544 Gd520 2.435 . S
O544 C530 1.256 . S
O545 Gd520 2.717 . S
O545 Gd521 2.327 1_545 S
O545 C530 1.257 . S
O546 Gd521 2.377 1_545 S
O546 C531 1.240 . S
O547 Gd520 2.395 . S
O547 C531 1.240 . S
O548 Gd521 2.448 . S
O548 C532 1.249 . S
O549 Gd521 2.506 1_545 S
O549 C532 1.252 1_545 S
O550 Gd521 2.435 . S
O550 C539 1.256 . S
O551 Gd520 2.327 1_565 S
O551 Gd521 2.717 . S
O551 C539 1.257 . S
H552 C525 0.930 . S
H553 C526 0.931 1_565 S
H554 C528 0.931 1_565 S
H555 C529 0.931 . S
H556 C534 0.930 . S
H557 C535 0.931 . S
H558 C537 0.931 . S
H559 C538 0.931 . S
Gd560 C563 2.818 . S
Gd560 O580 2.377 . S
Gd560 O582 2.448 . S
Gd560 O583 2.506 . S
Gd560 O584 2.435 . S
Gd560 O585 2.717 . S
Gd560 O587 2.395 . S
Gd560 O591 2.327 . S
Gd561 C572 2.818 . S
Gd561 O581 2.395 . S
Gd561 O585 2.327 . S
Gd561 O586 2.377 . S
Gd561 O588 2.448 . S
Gd561 O589 2.506 . S
Gd561 O590 2.435 . S
Gd561 O591 2.717 . S
C562 O580 1.240 . S
C562 O581 1.240 . S
C563 Gd560 2.818 . S
C563 C564 1.510 . S
C563 O582 1.249 . S
C563 O583 1.252 . S
C564 C563 1.510 . S
C564 C565 1.404 . S
C564 C566 1.352 . S
C565 C564 1.404 . S
C565 C569 1.389 . S
C565 H592 0.930 . S
C566 C564 1.352 . S
C566 C568 1.374 . S
C566 H593 0.931 . S
C567 C568 1.359 . S
C567 C569 1.364 . S
C568 C566 1.374 . S
C568 C567 1.359 . S
C568 H594 0.931 . S
C569 C565 1.389 . S
C569 C567 1.364 . S
C569 H595 0.931 . S
C570 O584 1.256 . S
C570 O585 1.257 . S
C571 O586 1.240 . S
C571 O587 1.240 . S
C572 Gd561 2.818 . S
C572 C573 1.510 . S
C572 O588 1.249 . S
C572 O589 1.252 . S
C573 C572 1.510 . S
C573 C574 1.404 . S
C573 C575 1.352 . S
C574 C573 1.404 . S
C574 C578 1.389 . S
C574 H596 0.930 . S
C575 C573 1.352 . S
C575 C577 1.374 . S
C575 H597 0.931 . S
C576 C577 1.359 . S
C576 C578 1.364 . S
C577 C575 1.374 . S
C577 C576 1.359 . S
C577 H598 0.931 . S
C578 C574 1.389 . S
C578 C576 1.364 . S
C578 H599 0.931 . S
C579 O590 1.256 . S
C579 O591 1.257 . S
O580 Gd560 2.377 . S
O580 C562 1.240 . S
O581 Gd561 2.395 . S
O581 C562 1.240 . S
O582 Gd560 2.448 . S
O582 C563 1.249 . S
O583 Gd560 2.506 . S
O583 C563 1.252 . S
O584 Gd560 2.435 . S
O584 C570 1.256 . S
O585 Gd560 2.717 . S
O585 Gd561 2.327 . S
O585 C570 1.257 . S
O586 Gd561 2.377 . S
O586 C571 1.240 . S
O587 Gd560 2.395 . S
O587 C571 1.240 . S
O588 Gd561 2.448 . S
O588 C572 1.249 . S
O589 Gd561 2.506 . S
O589 C572 1.252 . S
O590 Gd561 2.435 . S
O590 C579 1.256 . S
O591 Gd560 2.327 . S
O591 Gd561 2.717 . S
O591 C579 1.257 . S
H592 C565 0.930 . S
H593 C566 0.931 . S
H594 C568 0.931 . S
H595 C569 0.931 . S
H596 C574 0.930 . S
H597 C575 0.931 . S
H598 C577 0.931 . S
H599 C578 0.931 . S
Gd600 C603 2.818 . S
Gd600 O620 2.377 . S
Gd600 O622 2.448 . S
Gd600 O623 2.506 . S
Gd600 O624 2.435 . S
Gd600 O625 2.717 1_655 S
Gd600 O627 2.395 1_655 S
Gd600 O631 2.327 . S
Gd601 C612 2.818 . S
Gd601 O621 2.395 1_455 S
Gd601 O625 2.327 . S
Gd601 O626 2.377 . S
Gd601 O628 2.448 . S
Gd601 O629 2.506 . S
Gd601 O630 2.435 . S
Gd601 O631 2.717 1_455 S
C602 O620 1.240 . S
C602 O621 1.240 . S
C603 Gd600 2.818 . S
C603 C604 1.510 . S
C603 O622 1.249 . S
C603 O623 1.252 . S
C604 C603 1.510 . S
C604 C605 1.404 . S
C604 C606 1.352 . S
C605 C604 1.404 . S
C605 C609 1.389 . S
C605 H632 0.930 . S
C606 C604 1.352 . S
C606 C608 1.374 . S
C606 H633 0.931 . S
C607 C608 1.359 . S
C607 C609 1.364 . S
C608 C606 1.374 . S
C608 C607 1.359 . S
C608 H634 0.931 . S
C609 C605 1.389 . S
C609 C607 1.364 . S
C609 H635 0.931 . S
C610 O624 1.256 . S
C610 O625 1.257 1_655 S
C611 O626 1.240 . S
C611 O627 1.240 . S
C612 Gd601 2.818 . S
C612 C613 1.510 . S
C612 O628 1.249 . S
C612 O629 1.252 . S
C613 C612 1.510 . S
C613 C614 1.404 . S
C613 C615 1.352 . S
C614 C613 1.404 . S
C614 C618 1.389 . S
C614 H636 0.930 . S
C615 C613 1.352 . S
C615 C617 1.374 . S
C615 H637 0.931 . S
C616 C617 1.359 . S
C616 C618 1.364 . S
C617 C615 1.374 . S
C617 C616 1.359 . S
C617 H638 0.931 . S
C618 C614 1.389 . S
C618 C616 1.364 . S
C618 H639 0.931 . S
C619 O630 1.256 . S
C619 O631 1.257 1_455 S
O620 Gd600 2.377 . S
O620 C602 1.240 . S
O621 Gd601 2.395 1_655 S
O621 C602 1.240 . S
O622 Gd600 2.448 . S
O622 C603 1.249 . S
O623 Gd600 2.506 . S
O623 C603 1.252 . S
O624 Gd600 2.435 . S
O624 C610 1.256 . S
O625 Gd600 2.717 1_455 S
O625 Gd601 2.327 . S
O625 C610 1.257 1_455 S
O626 Gd601 2.377 . S
O626 C611 1.240 . S
O627 Gd600 2.395 1_455 S
O627 C611 1.240 . S
O628 Gd601 2.448 . S
O628 C612 1.249 . S
O629 Gd601 2.506 . S
O629 C612 1.252 . S
O630 Gd601 2.435 . S
O630 C619 1.256 . S
O631 Gd600 2.327 . S
O631 Gd601 2.717 1_655 S
O631 C619 1.257 1_655 S
H632 C605 0.930 . S
H633 C606 0.931 . S
H634 C608 0.931 . S
H635 C609 0.931 . S
H636 C614 0.930 . S
H637 C615 0.931 . S
H638 C617 0.931 . S
H639 C618 0.931 . S
H640 C658 0.951 . S
H641 C660 0.951 . S
H642 C662 0.950 . S
H643 C663 0.950 . S
H644 C665 0.950 . S
H645 C668 0.950 . S
H646 C669 0.950 . S
H647 C671 0.950 . S
H648 C672 0.950 . S
H649 C673 0.951 . S
H650 C675 0.951 . S
H651 C677 0.950 . S
H652 C678 0.950 . S
H653 C680 0.950 1_565 S
H654 C683 0.950 . S
H655 C684 0.950 . S
H656 C686 0.950 . S
H657 C687 0.950 . S
C658 H640 0.951 . S
C658 C659 1.366 . S
C658 C660 1.388 . S
C659 C658 1.366 . S
C659 C663 1.385 . S
C660 H641 0.951 . S
C660 C658 1.388 . S
C660 C661 1.366 . S
C661 C660 1.366 . S
C661 C662 1.414 . S
C661 C664 1.499 . S
C662 H642 0.950 . S
C662 C661 1.414 . S
C662 C663 1.374 . S
C663 H643 0.950 . S
C663 C659 1.385 . S
C663 C662 1.374 . S
C664 C661 1.499 . S
C664 C665 1.373 . S
C664 C666 1.389 . S
C665 H644 0.950 . S
C665 C664 1.373 . S
C665 C681 1.377 . S
C666 C664 1.389 . S
C666 C667 1.524 1_545 S
C666 C680 1.377 . S
C667 C666 1.524 1_565 S
C667 C668 1.397 . S
C667 C672 1.363 . S
C668 H645 0.950 . S
C668 C667 1.397 . S
C668 C669 1.334 . S
C669 H646 0.950 . S
C669 C668 1.334 . S
C669 C670 1.287 . S
C670 C669 1.287 . S
C670 C671 1.524 . S
C670 H689 0.913 . S
C671 H647 0.950 . S
C671 C670 1.524 . S
C671 C672 1.415 . S
C672 H648 0.950 . S
C672 C667 1.363 . S
C672 C671 1.415 . S
C673 H649 0.951 . S
C673 C674 1.366 . S
C673 C675 1.388 . S
C674 C673 1.366 . S
C674 C678 1.385 . S
C675 H650 0.951 . S
C675 C673 1.388 . S
C675 C676 1.366 . S
C676 C675 1.366 . S
C676 C677 1.414 . S
C676 C679 1.499 . S
C677 H651 0.950 . S
C677 C676 1.414 . S
C677 C678 1.374 . S
C678 H652 0.950 . S
C678 C674 1.385 . S
C678 C677 1.374 . S
C679 C676 1.499 . S
C679 C680 1.373 . S
C679 C681 1.389 . S
C680 H653 0.950 1_545 S
C680 C666 1.377 . S
C680 C679 1.373 . S
C681 C665 1.377 . S
C681 C679 1.389 . S
C681 C682 1.524 . S
C682 C681 1.524 . S
C682 C683 1.397 . S
C682 C687 1.363 . S
C683 H654 0.950 . S
C683 C682 1.397 . S
C683 C684 1.334 . S
C684 H655 0.950 . S
C684 C683 1.334 . S
C684 C685 1.287 . S
C685 C684 1.287 . S
C685 C686 1.524 . S
C685 H688 0.999 . S
C686 H656 0.950 . S
C686 C685 1.524 . S
C686 C687 1.415 . S
C687 H657 0.950 . S
C687 C682 1.363 . S
C687 C686 1.415 . S
H688 C685 0.999 . S
H689 C670 0.913 . S
H690 C708 0.951 . S
H691 C710 0.951 . S
H692 C712 0.950 . S
H693 C713 0.950 . S
H694 C715 0.950 . S
H695 C718 0.950 . S
H696 C719 0.950 . S
H697 C721 0.950 . S
H698 C722 0.950 . S
H699 C723 0.951 . S
H700 C725 0.951 . S
H701 C727 0.950 . S
H702 C728 0.950 . S
H703 C730 0.950 . S
H704 C733 0.950 . S
H705 C734 0.950 . S
H706 C736 0.950 . S
H707 C737 0.950 . S
C708 H690 0.951 . S
C708 C709 1.366 . S
C708 C710 1.388 . S
C709 C708 1.366 . S
C709 C713 1.385 . S
C710 H691 0.951 . S
C710 C708 1.388 . S
C710 C711 1.366 . S
C711 C710 1.366 . S
C711 C712 1.414 . S
C711 C714 1.499 . S
C712 H692 0.950 . S
C712 C711 1.414 . S
C712 C713 1.374 . S
C713 H693 0.950 . S
C713 C709 1.385 . S
C713 C712 1.374 . S
C714 C711 1.499 . S
C714 C715 1.373 . S
C714 C716 1.389 . S
C715 H694 0.950 . S
C715 C714 1.373 . S
C715 C731 1.377 . S
C716 C714 1.389 . S
C716 C717 1.524 . S
C716 C730 1.377 . S
C717 C716 1.524 . S
C717 C718 1.397 . S
C717 C722 1.363 . S
C718 H695 0.950 . S
C718 C717 1.397 . S
C718 C719 1.334 . S
C719 H696 0.950 . S
C719 C718 1.334 . S
C719 C720 1.287 . S
C720 C719 1.287 . S
C720 C721 1.524 . S
C720 H739 0.913 . S
C721 H697 0.950 . S
C721 C720 1.524 . S
C721 C722 1.415 . S
C722 H698 0.950 . S
C722 C717 1.363 . S
C722 C721 1.415 . S
C723 H699 0.951 . S
C723 C724 1.366 . S
C723 C725 1.388 . S
C724 C723 1.366 . S
C724 C728 1.385 . S
C725 H700 0.951 . S
C725 C723 1.388 . S
C725 C726 1.366 . S
C726 C725 1.366 . S
C726 C727 1.414 . S
C726 C729 1.499 . S
C727 H701 0.950 . S
C727 C726 1.414 . S
C727 C728 1.374 . S
C728 H702 0.950 . S
C728 C724 1.385 . S
C728 C727 1.374 . S
C729 C726 1.499 . S
C729 C730 1.373 . S
C729 C731 1.389 . S
C730 H703 0.950 . S
C730 C716 1.377 . S
C730 C729 1.373 . S
C731 C715 1.377 . S
C731 C729 1.389 . S
C731 C732 1.524 . S
C732 C731 1.524 . S
C732 C733 1.397 . S
C732 C737 1.363 . S
C733 H704 0.950 . S
C733 C732 1.397 . S
C733 C734 1.334 . S
C734 H705 0.950 . S
C734 C733 1.334 . S
C734 C735 1.287 . S
C735 C734 1.287 . S
C735 C736 1.524 . S
C735 H738 0.999 . S
C736 H706 0.950 . S
C736 C735 1.524 . S
C736 C737 1.415 . S
C737 H707 0.950 . S
C737 C732 1.363 . S
C737 C736 1.415 . S
H738 C735 0.999 . S
H739 C720 0.913 . S
H740 C758 0.951 . S
H741 C760 0.951 . S
H742 C762 0.950 . S
H743 C763 0.950 . S
H744 C765 0.950 . S
H745 C768 0.950 . S
H746 C769 0.950 . S
H747 C771 0.950 . S
H748 C772 0.950 . S
H749 C773 0.951 . S
H750 C775 0.951 . S
H751 C777 0.950 . S
H752 C778 0.950 . S
H753 C780 0.950 . S
H754 C783 0.950 . S
H755 C784 0.950 . S
H756 C786 0.950 . S
H757 C787 0.950 . S
C758 H740 0.951 . S
C758 C759 1.366 . S
C758 C760 1.388 . S
C759 C758 1.366 . S
C759 C763 1.385 . S
C760 H741 0.951 . S
C760 C758 1.388 . S
C760 C761 1.366 . S
C761 C760 1.366 . S
C761 C762 1.414 . S
C761 C764 1.499 . S
C762 H742 0.950 . S
C762 C761 1.414 . S
C762 C763 1.374 . S
C763 H743 0.950 . S
C763 C759 1.385 . S
C763 C762 1.374 . S
C764 C761 1.499 . S
C764 C765 1.373 . S
C764 C766 1.389 . S
C765 H744 0.950 . S
C765 C764 1.373 . S
C765 C781 1.377 . S
C766 C764 1.389 . S
C766 C767 1.524 . S
C766 C780 1.377 . S
C767 C766 1.524 . S
C767 C768 1.397 . S
C767 C772 1.363 . S
C768 H745 0.950 . S
C768 C767 1.397 . S
C768 C769 1.334 . S
C769 H746 0.950 . S
C769 C768 1.334 . S
C769 C770 1.287 . S
C770 C769 1.287 . S
C770 C771 1.524 . S
C770 H789 0.913 . S
C771 H747 0.950 . S
C771 C770 1.524 . S
C771 C772 1.415 . S
C772 H748 0.950 . S
C772 C767 1.363 . S
C772 C771 1.415 . S
C773 H749 0.951 . S
C773 C774 1.366 . S
C773 C775 1.388 . S
C774 C773 1.366 . S
C774 C778 1.385 . S
C775 H750 0.951 . S
C775 C773 1.388 . S
C775 C776 1.366 . S
C776 C775 1.366 . S
C776 C777 1.414 . S
C776 C779 1.499 . S
C777 H751 0.950 . S
C777 C776 1.414 . S
C777 C778 1.374 . S
C778 H752 0.950 . S
C778 C774 1.385 . S
C778 C777 1.374 . S
C779 C776 1.499 . S
C779 C780 1.373 . S
C779 C781 1.389 . S
C780 H753 0.950 . S
C780 C766 1.377 . S
C780 C779 1.373 . S
C781 C765 1.377 . S
C781 C779 1.389 . S
C781 C782 1.524 . S
C782 C781 1.524 . S
C782 C783 1.397 . S
C782 C787 1.363 . S
C783 H754 0.950 . S
C783 C782 1.397 . S
C783 C784 1.334 . S
C784 H755 0.950 . S
C784 C783 1.334 . S
C784 C785 1.287 . S
C785 C784 1.287 . S
C785 C786 1.524 . S
C785 H788 0.999 . S
C786 H756 0.950 . S
C786 C785 1.524 . S
C786 C787 1.415 . S
C787 H757 0.950 . S
C787 C782 1.363 . S
C787 C786 1.415 . S
H788 C785 0.999 . S
H789 C770 0.913 . S
H790 C808 0.951 . S
H791 C810 0.951 . S
H792 C812 0.950 . S
H793 C813 0.950 . S
H794 C815 0.950 . S
H795 C818 0.950 . S
H796 C819 0.950 . S
H797 C821 0.950 . S
H798 C822 0.950 . S
H799 C823 0.951 . S
H800 C825 0.951 . S
H801 C827 0.950 . S
H802 C828 0.950 . S
H803 C830 0.950 . S
H804 C833 0.950 . S
H805 C834 0.950 . S
H806 C836 0.950 . S
H807 C837 0.950 . S
C808 H790 0.951 . S
C808 C809 1.366 1_655 S
C808 C810 1.388 . S
C809 C808 1.366 1_455 S
C809 C813 1.385 . S
C810 H791 0.951 . S
C810 C808 1.388 . S
C810 C811 1.366 1_655 S
C811 C810 1.366 1_455 S
C811 C812 1.414 . S
C811 C814 1.499 . S
C812 H792 0.950 . S
C812 C811 1.414 . S
C812 C813 1.374 . S
C813 H793 0.950 . S
C813 C809 1.385 . S
C813 C812 1.374 . S
C814 C811 1.499 . S
C814 C815 1.373 1_455 S
C814 C816 1.389 . S
C815 H794 0.950 . S
C815 C814 1.373 1_655 S
C815 C831 1.377 . S
C816 C814 1.389 . S
C816 C817 1.524 . S
C816 C830 1.377 . S
C817 C816 1.524 . S
C817 C818 1.397 . S
C817 C822 1.363 . S
C818 H795 0.950 . S
C818 C817 1.397 . S
C818 C819 1.334 . S
C819 H796 0.950 . S
C819 C818 1.334 . S
C819 C820 1.287 . S
C820 C819 1.287 . S
C820 C821 1.524 . S
C820 H839 0.913 . S
C821 H797 0.950 . S
C821 C820 1.524 . S
C821 C822 1.415 . S
C822 H798 0.950 . S
C822 C817 1.363 . S
C822 C821 1.415 . S
C823 H799 0.951 . S
C823 C824 1.370 . S
C823 C825 1.388 . S
C824 C823 1.370 . S
C824 C828 1.380 1_455 S
C825 H800 0.951 . S
C825 C823 1.388 . S
C825 C826 1.358 1_455 S
C826 C825 1.358 1_655 S
C826 C827 1.420 . S
C826 C829 1.499 . S
C827 H801 0.950 . S
C827 C826 1.420 . S
C827 C828 1.374 . S
C828 H802 0.950 . S
C828 C824 1.380 1_655 S
C828 C827 1.374 . S
C829 C826 1.499 . S
C829 C830 1.344 1_655 S
C829 C831 1.417 . S
C830 H803 0.950 . S
C830 C816 1.377 . S
C830 C829 1.344 1_455 S
C831 C815 1.377 . S
C831 C829 1.417 . S
C831 C832 1.524 . S
C832 C831 1.524 . S
C832 C833 1.397 . S
C832 C837 1.363 . S
C833 H804 0.950 . S
C833 C832 1.397 . S
C833 C834 1.334 . S
C834 H805 0.950 . S
C834 C833 1.334 . S
C834 C835 1.287 . S
C835 C834 1.287 . S
C835 C836 1.524 . S
C835 H838 0.999 . S
C836 H806 0.950 . S
C836 C835 1.524 . S
C836 C837 1.415 . S
C837 H807 0.950 . S
C837 C832 1.363 . S
C837 C836 1.415 . S
H838 C835 0.999 . S
H839 C820 0.913 . S
H840 C858 0.964 . S
H841 C860 0.951 . S
H842 C862 0.950 . S
H843 C863 0.950 . S
H844 C865 0.950 . S
H845 C868 0.950 1_554 S
H846 C869 0.950 . S
H847 C871 0.950 . S
H848 C872 0.950 1_545 S
H849 C873 0.951 . S
H850 C875 0.951 . S
H851 C877 0.950 . S
H852 C878 0.950 . S
H853 C880 0.950 . S
H854 C883 0.950 . S
H855 C884 0.950 . S
H856 C886 0.953 . S
H857 C887 0.950 . S
C858 H840 0.964 . S
C858 C859 1.352 1_545 S
C858 C860 1.389 . S
C859 C858 1.352 1_565 S
C859 C863 1.385 . S
C860 H841 0.951 . S
C860 C858 1.389 . S
C860 C861 1.366 1_545 S
C861 C860 1.366 1_565 S
C861 C862 1.414 . S
C861 C864 1.499 . S
C862 H842 0.950 . S
C862 C861 1.414 . S
C862 C863 1.374 . S
C863 H843 0.950 . S
C863 C859 1.385 . S
C863 C862 1.374 . S
C864 C861 1.499 . S
C864 C865 1.373 . S
C864 C866 1.389 1_554 S
C865 H844 0.950 . S
C865 C864 1.373 . S
C865 C881 1.386 1_554 S
C866 C864 1.389 1_556 S
C866 C867 1.524 . S
C866 C880 1.377 . S
C867 C866 1.524 . S
C867 C868 1.397 . S
C867 C872 1.363 . S
C868 H845 0.950 1_556 S
C868 C867 1.397 . S
C868 C869 1.334 . S
C869 H846 0.950 . S
C869 C868 1.334 . S
C869 C870 1.287 . S
C870 C869 1.287 . S
C870 C871 1.524 . S
C870 H889 0.913 . S
C871 H847 0.950 . S
C871 C870 1.524 . S
C871 C872 1.415 . S
C872 H848 0.950 1_565 S
C872 C867 1.363 . S
C872 C871 1.415 . S
C873 H849 0.951 . S
C873 C874 1.366 1_565 S
C873 C875 1.388 . S
C874 C873 1.366 1_545 S
C874 C878 1.385 . S
C875 H850 0.951 . S
C875 C873 1.388 . S
C875 C876 1.379 . S
C876 C875 1.379 . S
C876 C877 1.400 1_565 S
C876 C879 1.500 . S
C877 H851 0.950 . S
C877 C876 1.400 1_545 S
C877 C878 1.374 . S
C878 H852 0.950 . S
C878 C874 1.385 . S
C878 C877 1.374 . S
C879 C876 1.500 . S
C879 C880 1.373 . S
C879 C881 1.393 . S
C880 H853 0.950 . S
C880 C866 1.377 . S
C880 C879 1.373 . S
C881 C865 1.386 1_556 S
C881 C879 1.393 . S
C881 C882 1.511 1_565 S
C882 C881 1.511 1_545 S
C882 C883 1.397 . S
C882 C887 1.363 1_546 S
C883 H854 0.950 . S
C883 C882 1.397 . S
C883 C884 1.334 . S
C884 H855 0.950 . S
C884 C883 1.334 . S
C884 C885 1.287 1_556 S
C885 C884 1.287 1_554 S
C885 C886 1.519 1_545 S
C885 H888 0.999 . S
C886 H856 0.953 . S
C886 C885 1.519 1_565 S
C886 C887 1.416 . S
C887 H857 0.950 . S
C887 C882 1.363 1_564 S
C887 C886 1.416 . S
H888 C885 0.999 . S
H889 C870 0.913 . S
H890 C908 0.951 . S
H891 C910 0.951 . S
H892 C912 0.950 . S
H893 C913 0.950 . S
H894 C915 0.950 . S
H895 C918 0.950 . S
H896 C919 0.950 . S
H897 C921 0.950 . S
H898 C922 0.950 . S
H899 C923 0.951 . S
H900 C925 0.951 . S
H901 C927 0.950 . S
H902 C928 0.950 . S
H903 C930 0.950 . S
H904 C933 0.950 . S
H905 C934 0.950 . S
H906 C936 0.950 . S
H907 C937 0.950 1_554 S
C908 H890 0.951 . S
C908 C909 1.366 . S
C908 C910 1.388 . S
C909 C908 1.366 . S
C909 C913 1.385 . S
C910 H891 0.951 . S
C910 C908 1.388 . S
C910 C911 1.366 . S
C911 C910 1.366 . S
C911 C912 1.414 . S
C911 C914 1.499 . S
C912 H892 0.950 . S
C912 C911 1.414 . S
C912 C913 1.374 . S
C913 H893 0.950 . S
C913 C909 1.385 . S
C913 C912 1.374 . S
C914 C911 1.499 . S
C914 C915 1.373 . S
C914 C916 1.389 1_554 S
C915 H894 0.950 . S
C915 C914 1.373 . S
C915 C931 1.377 1_554 S
C916 C914 1.389 1_556 S
C916 C917 1.524 1_556 S
C916 C930 1.377 . S
C917 C916 1.524 1_554 S
C917 C918 1.397 . S
C917 C922 1.363 1_554 S
C918 H895 0.950 . S
C918 C917 1.397 . S
C918 C919 1.334 . S
C919 H896 0.950 . S
C919 C918 1.334 . S
C919 C920 1.287 . S
C920 C919 1.287 . S
C920 C921 1.524 1_554 S
C920 H939 0.913 . S
C921 H897 0.950 . S
C921 C920 1.524 1_556 S
C921 C922 1.415 . S
C922 H898 0.950 . S
C922 C917 1.363 1_556 S
C922 C921 1.415 . S
C923 H899 0.951 . S
C923 C924 1.366 . S
C923 C925 1.388 . S
C924 C923 1.366 . S
C924 C928 1.385 . S
C925 H900 0.951 . S
C925 C923 1.388 . S
C925 C926 1.366 . S
C926 C925 1.366 . S
C926 C927 1.414 . S
C926 C929 1.499 . S
C927 H901 0.950 . S
C927 C926 1.414 . S
C927 C928 1.374 . S
C928 H902 0.950 . S
C928 C924 1.385 . S
C928 C927 1.374 . S
C929 C926 1.499 . S
C929 C930 1.373 . S
C929 C931 1.389 . S
C930 H903 0.950 . S
C930 C916 1.377 . S
C930 C929 1.373 . S
C931 C915 1.377 1_556 S
C931 C929 1.389 . S
C931 C932 1.524 . S
C932 C931 1.524 . S
C932 C933 1.397 . S
C932 C937 1.363 . S
C933 H904 0.950 . S
C933 C932 1.397 . S
C933 C934 1.334 . S
C934 H905 0.950 . S
C934 C933 1.334 . S
C934 C935 1.287 . S
C935 C934 1.287 . S
C935 C936 1.524 . S
C935 H938 0.999 . S
C936 H906 0.950 . S
C936 C935 1.524 . S
C936 C937 1.415 . S
C937 H907 0.950 1_556 S
C937 C932 1.363 . S
C937 C936 1.415 . S
H938 C935 0.999 . S
H939 C920 0.913 . S
H940 C958 0.951 . S
H941 C960 0.951 . S
H942 C962 0.950 . S
H943 C963 0.950 . S
H944 C965 0.950 . S
H945 C968 0.950 1_554 S
H946 C969 0.950 1_554 S
H947 C971 0.950 . S
H948 C972 0.950 . S
H949 C973 0.951 . S
H950 C975 0.951 . S
H951 C977 0.950 . S
H952 C978 0.950 . S
H953 C980 0.950 . S
H954 C983 0.950 . S
H955 C984 0.950 . S
H956 C986 0.950 . S
H957 C987 0.950 . S
C958 H940 0.951 . S
C958 C959 1.366 . S
C958 C960 1.388 . S
C959 C958 1.366 . S
C959 C963 1.385 . S
C960 H941 0.951 . S
C960 C958 1.388 . S
C960 C961 1.366 . S
C961 C960 1.366 . S
C961 C962 1.414 . S
C961 C964 1.499 . S
C962 H942 0.950 . S
C962 C961 1.414 . S
C962 C963 1.374 . S
C963 H943 0.950 . S
C963 C959 1.385 . S
C963 C962 1.374 . S
C964 C961 1.499 . S
C964 C965 1.373 . S
C964 C966 1.389 1_554 S
C965 H944 0.950 . S
C965 C964 1.373 . S
C965 C981 1.377 1_554 S
C966 C964 1.389 1_556 S
C966 C967 1.524 . S
C966 C980 1.377 . S
C967 C966 1.524 . S
C967 C968 1.397 . S
C967 C972 1.363 . S
C968 H945 0.950 1_556 S
C968 C967 1.397 . S
C968 C969 1.334 . S
C969 H946 0.950 1_556 S
C969 C968 1.334 . S
C969 C970 1.287 . S
C970 C969 1.287 . S
C970 C971 1.524 . S
C970 H989 0.913 . S
C971 H947 0.950 . S
C971 C970 1.524 . S
C971 C972 1.415 . S
C972 H948 0.950 . S
C972 C967 1.363 . S
C972 C971 1.415 . S
C973 H949 0.951 . S
C973 C974 1.366 . S
C973 C975 1.388 . S
C974 C973 1.366 . S
C974 C978 1.385 . S
C975 H950 0.951 . S
C975 C973 1.388 . S
C975 C976 1.366 . S
C976 C975 1.366 . S
C976 C977 1.414 . S
C976 C979 1.499 . S
C977 H951 0.950 . S
C977 C976 1.414 . S
C977 C978 1.374 . S
C978 H952 0.950 . S
C978 C974 1.385 . S
C978 C977 1.374 . S
C979 C976 1.499 . S
C979 C980 1.373 . S
C979 C981 1.389 . S
C980 H953 0.950 . S
C980 C966 1.377 . S
C980 C979 1.373 . S
C981 C965 1.377 1_556 S
C981 C979 1.389 . S
C981 C982 1.524 . S
C982 C981 1.524 . S
C982 C983 1.397 . S
C982 C987 1.363 1_556 S
C983 H954 0.950 . S
C983 C982 1.397 . S
C983 C984 1.334 . S
C984 H955 0.950 . S
C984 C983 1.334 . S
C984 C985 1.287 1_556 S
C985 C984 1.287 1_554 S
C985 C986 1.524 . S
C985 H988 0.999 . S
C986 H956 0.950 . S
C986 C985 1.524 . S
C986 C987 1.415 . S
C987 H957 0.950 . S
C987 C982 1.363 1_554 S
C987 C986 1.415 . S
H988 C985 0.999 . S
H989 C970 0.913 . S
H990 C1008 0.951 . S
H991 C1010 0.951 . S
H992 C1012 0.950 . S
H993 C1013 0.950 . S
H994 C1015 0.950 . S
H995 C1018 0.950 . S
H996 C1019 0.950 . S
H997 C1021 0.950 . S
H998 C1022 0.950 . S
H999 C1023 0.951 . S
H1000 C1025 0.951 . S
H1001 C1027 0.950 . S
H1002 C1028 0.950 . S
H1003 C1030 0.950 . S
H1004 C1033 0.950 . S
H1005 C1034 0.950 . S
H1006 C1036 0.950 1_554 S
H1007 C1037 0.950 . S
C1008 H990 0.951 . S
C1008 C1009 1.363 1_455 S
C1008 C1010 1.388 . S
C1009 C1008 1.363 1_655 S
C1009 C1013 1.387 . S
C1010 H991 0.951 . S
C1010 C1008 1.388 . S
C1010 C1011 1.364 1_455 S
C1011 C1010 1.364 1_655 S
C1011 C1012 1.415 . S
C1011 C1014 1.498 . S
C1012 H992 0.950 . S
C1012 C1011 1.415 . S
C1012 C1013 1.374 . S
C1013 H993 0.950 . S
C1013 C1009 1.387 . S
C1013 C1012 1.374 . S
C1014 C1011 1.498 . S
C1014 C1015 1.401 . S
C1014 C1016 1.362 1_654 S
C1015 H994 0.950 . S
C1015 C1014 1.401 . S
C1015 C1031 1.377 1_554 S
C1016 C1014 1.362 1_456 S
C1016 C1017 1.524 . S
C1016 C1030 1.377 . S
C1017 C1016 1.524 . S
C1017 C1018 1.397 . S
C1017 C1022 1.363 . S
C1018 H995 0.950 . S
C1018 C1017 1.397 . S
C1018 C1019 1.334 . S
C1019 H996 0.950 . S
C1019 C1018 1.334 . S
C1019 C1020 1.287 . S
C1020 C1019 1.287 . S
C1020 C1021 1.524 . S
C1020 H1039 0.913 . S
C1021 H997 0.950 . S
C1021 C1020 1.524 . S
C1021 C1022 1.415 . S
C1022 H998 0.950 . S
C1022 C1017 1.363 . S
C1022 C1021 1.415 . S
C1023 H999 0.951 . S
C1023 C1024 1.384 . S
C1023 C1025 1.388 . S
C1024 C1023 1.384 . S
C1024 C1028 1.366 1_655 S
C1025 H1000 0.951 . S
C1025 C1023 1.388 . S
C1025 C1026 1.386 . S
C1026 C1025 1.386 . S
C1026 C1027 1.394 1_655 S
C1026 C1029 1.498 1_655 S
C1027 H1001 0.950 . S
C1027 C1026 1.394 1_455 S
C1027 C1028 1.374 . S
C1028 H1002 0.950 . S
C1028 C1024 1.366 1_455 S
C1028 C1027 1.374 . S
C1029 C1026 1.498 1_455 S
C1029 C1030 1.376 . S
C1029 C1031 1.387 1_455 S
C1030 H1003 0.950 . S
C1030 C1016 1.377 . S
C1030 C1029 1.376 . S
C1031 C1015 1.377 1_556 S
C1031 C1029 1.387 1_655 S
C1031 C1032 1.524 . S
C1032 C1031 1.524 . S
C1032 C1033 1.397 . S
C1032 C1037 1.363 . S
C1033 H1004 0.950 . S
C1033 C1032 1.397 . S
C1033 C1034 1.334 . S
C1034 H1005 0.950 . S
C1034 C1033 1.334 . S
C1034 C1035 1.287 . S
C1035 C1034 1.287 . S
C1035 C1036 1.524 . S
C1035 H1038 0.999 . S
C1036 H1006 0.950 1_556 S
C1036 C1035 1.524 . S
C1036 C1037 1.415 . S
C1037 H1007 0.950 . S
C1037 C1032 1.363 . S
C1037 C1036 1.415 . S
H1038 C1035 0.999 . S
H1039 C1020 0.913 . S
H1040 C1058 0.951 . S
H1041 C1060 0.951 . S
H1042 C1062 0.950 . S
H1043 C1063 0.950 . S
H1044 C1065 0.950 . S
H1045 C1068 0.950 . S
H1046 C1069 0.950 . S
H1047 C1071 0.950 . S
H1048 C1072 0.950 . S
H1049 C1073 0.951 . S
H1050 C1075 0.972 . S
H1051 C1077 0.950 . S
H1052 C1078 0.950 . S
H1053 C1080 0.950 . S
H1054 C1083 0.950 . S
H1055 C1084 0.950 . S
H1056 C1086 0.950 . S
H1057 C1087 0.950 . S
C1058 H1040 0.951 . S
C1058 C1059 1.366 1_655 S
C1058 C1060 1.388 . S
C1059 C1058 1.366 1_455 S
C1059 C1063 1.385 . S
C1060 H1041 0.951 . S
C1060 C1058 1.388 . S
C1060 C1061 1.366 . S
C1061 C1060 1.366 . S
C1061 C1062 1.414 1_655 S
C1061 C1064 1.499 . S
C1062 H1042 0.950 . S
C1062 C1061 1.414 1_455 S
C1062 C1063 1.374 . S
C1063 H1043 0.950 . S
C1063 C1059 1.385 . S
C1063 C1062 1.374 . S
C1064 C1061 1.499 . S
C1064 C1065 1.373 1_655 S
C1064 C1066 1.389 . S
C1065 H1044 0.950 . S
C1065 C1064 1.373 1_455 S
C1065 C1081 1.377 . S
C1066 C1064 1.389 . S
C1066 C1067 1.524 . S
C1066 C1080 1.377 . S
C1067 C1066 1.524 . S
C1067 C1068 1.397 . S
C1067 C1072 1.363 . S
C1068 H1045 0.950 . S
C1068 C1067 1.397 . S
C1068 C1069 1.334 . S
C1069 H1046 0.950 . S
C1069 C1068 1.334 . S
C1069 C1070 1.287 . S
C1070 C1069 1.287 . S
C1070 C1071 1.524 . S
C1070 H1089 0.913 . S
C1071 H1047 0.950 . S
C1071 C1070 1.524 . S
C1071 C1072 1.415 . S
C1072 H1048 0.950 . S
C1072 C1067 1.363 . S
C1072 C1071 1.415 . S
C1073 H1049 0.951 . S
C1073 C1074 1.366 . S
C1073 C1075 1.388 . S
C1074 C1073 1.366 . S
C1074 C1078 1.385 . S
C1075 H1050 0.972 . S
C1075 C1073 1.388 . S
C1075 C1076 1.366 . S
C1076 C1075 1.366 . S
C1076 C1077 1.414 . S
C1076 C1079 1.499 . S
C1077 H1051 0.950 . S
C1077 C1076 1.414 . S
C1077 C1078 1.374 . S
C1078 H1052 0.950 . S
C1078 C1074 1.385 . S
C1078 C1077 1.374 . S
C1079 C1076 1.499 . S
C1079 C1080 1.373 . S
C1079 C1081 1.389 1_655 S
C1080 H1053 0.950 . S
C1080 C1066 1.377 . S
C1080 C1079 1.373 . S
C1081 C1065 1.377 . S
C1081 C1079 1.389 1_455 S
C1081 C1082 1.524 . S
C1082 C1081 1.524 . S
C1082 C1083 1.397 . S
C1082 C1087 1.363 . S
C1083 H1054 0.950 . S
C1083 C1082 1.397 . S
C1083 C1084 1.334 . S
C1084 H1055 0.950 . S
C1084 C1083 1.334 . S
C1084 C1085 1.287 . S
C1085 C1084 1.287 . S
C1085 C1086 1.524 . S
C1085 H1088 0.999 . S
C1086 H1056 0.950 . S
C1086 C1085 1.524 . S
C1086 C1087 1.415 . S
C1087 H1057 0.950 . S
C1087 C1082 1.363 . S
C1087 C1086 1.415 . S
H1088 C1085 0.999 . S
H1089 C1070 0.913 . S
H1090 C1108 0.951 . S
H1091 C1110 0.951 . S
H1092 C1112 0.950 . S
H1093 C1113 0.950 . S
H1094 C1115 0.950 . S
H1095 C1118 0.950 . S
H1096 C1119 0.950 . S
H1097 C1121 0.950 . S
H1098 C1122 0.950 . S
H1099 C1123 0.951 . S
H1100 C1125 0.951 . S
H1101 C1127 0.950 1_545 S
H1102 C1128 0.950 . S
H1103 C1130 0.950 . S
H1104 C1133 0.950 . S
H1105 C1134 0.950 . S
H1106 C1136 0.950 . S
H1107 C1137 0.950 . S
C1108 H1090 0.951 . S
C1108 C1109 1.366 . S
C1108 C1110 1.388 . S
C1109 C1108 1.366 . S
C1109 C1113 1.385 . S
C1110 H1091 0.951 . S
C1110 C1108 1.388 . S
C1110 C1111 1.366 . S
C1111 C1110 1.366 . S
C1111 C1112 1.414 . S
C1111 C1114 1.499 . S
C1112 H1092 0.950 . S
C1112 C1111 1.414 . S
C1112 C1113 1.374 . S
C1113 H1093 0.950 . S
C1113 C1109 1.385 . S
C1113 C1112 1.374 . S
C1114 C1111 1.499 . S
C1114 C1115 1.373 . S
C1114 C1116 1.388 . S
C1115 H1094 0.950 . S
C1115 C1114 1.373 . S
C1115 C1131 1.377 . S
C1116 C1114 1.388 . S
C1116 C1117 1.525 1_545 S
C1116 C1130 1.377 1_545 S
C1117 C1116 1.525 1_565 S
C1117 C1118 1.397 . S
C1117 C1122 1.363 . S
C1118 H1095 0.950 . S
C1118 C1117 1.397 . S
C1118 C1119 1.334 . S
C1119 H1096 0.950 . S
C1119 C1118 1.334 . S
C1119 C1120 1.287 . S
C1120 C1119 1.287 . S
C1120 C1121 1.524 . S
C1120 H1139 0.913 . S
C1121 H1097 0.950 . S
C1121 C1120 1.524 . S
C1121 C1122 1.415 . S
C1122 H1098 0.950 . S
C1122 C1117 1.363 . S
C1122 C1121 1.415 . S
C1123 H1099 0.951 . S
C1123 C1124 1.366 . S
C1123 C1125 1.388 . S
C1124 C1123 1.366 . S
C1124 C1128 1.385 . S
C1125 H1100 0.951 . S
C1125 C1123 1.388 . S
C1125 C1126 1.366 . S
C1126 C1125 1.366 . S
C1126 C1127 1.414 . S
C1126 C1129 1.499 1_565 S
C1127 H1101 0.950 1_565 S
C1127 C1126 1.414 . S
C1127 C1128 1.374 . S
C1128 H1102 0.950 . S
C1128 C1124 1.385 . S
C1128 C1127 1.374 . S
C1129 C1126 1.499 1_545 S
C1129 C1130 1.373 1_545 S
C1129 C1131 1.389 . S
C1130 H1103 0.950 . S
C1130 C1116 1.377 1_565 S
C1130 C1129 1.373 1_565 S
C1131 C1115 1.377 . S
C1131 C1129 1.389 . S
C1131 C1132 1.524 . S
C1132 C1131 1.524 . S
C1132 C1133 1.397 . S
C1132 C1137 1.363 . S
C1133 H1104 0.950 . S
C1133 C1132 1.397 . S
C1133 C1134 1.334 . S
C1134 H1105 0.950 . S
C1134 C1133 1.334 . S
C1134 C1135 1.287 . S
C1135 C1134 1.287 . S
C1135 C1136 1.524 . S
C1135 H1138 0.999 . S
C1136 H1106 0.950 . S
C1136 C1135 1.524 . S
C1136 C1137 1.415 . S
C1137 H1107 0.950 . S
C1137 C1132 1.363 . S
C1137 C1136 1.415 . S
H1138 C1135 0.999 . S
H1139 C1120 0.913 . S
H1140 C1158 0.951 . S
H1141 C1160 0.951 . S
H1142 C1162 0.950 . S
H1143 C1163 0.950 . S
H1144 C1165 0.950 . S
H1145 C1168 0.950 . S
H1146 C1169 0.950 . S
H1147 C1171 0.950 . S
H1148 C1172 0.950 . S
H1149 C1173 0.951 . S
H1150 C1175 0.951 . S
H1151 C1177 0.950 . S
H1152 C1178 0.950 . S
H1153 C1180 0.950 . S
H1154 C1183 0.950 . S
H1155 C1184 0.950 . S
H1156 C1186 0.950 . S
H1157 C1187 0.950 . S
C1158 H1140 0.951 . S
C1158 C1159 1.366 . S
C1158 C1160 1.388 . S
C1159 C1158 1.366 . S
C1159 C1163 1.385 . S
C1160 H1141 0.951 . S
C1160 C1158 1.388 . S
C1160 C1161 1.366 . S
C1161 C1160 1.366 . S
C1161 C1162 1.414 . S
C1161 C1164 1.499 . S
C1162 H1142 0.950 . S
C1162 C1161 1.414 . S
C1162 C1163 1.374 . S
C1163 H1143 0.950 . S
C1163 C1159 1.385 . S
C1163 C1162 1.374 . S
C1164 C1161 1.499 . S
C1164 C1165 1.373 . S
C1164 C1166 1.389 . S
C1165 H1144 0.950 . S
C1165 C1164 1.373 . S
C1165 C1181 1.377 . S
C1166 C1164 1.389 . S
C1166 C1167 1.524 . S
C1166 C1180 1.377 . S
C1167 C1166 1.524 . S
C1167 C1168 1.397 . S
C1167 C1172 1.363 . S
C1168 H1145 0.950 . S
C1168 C1167 1.397 . S
C1168 C1169 1.334 . S
C1169 H1146 0.950 . S
C1169 C1168 1.334 . S
C1169 C1170 1.287 . S
C1170 C1169 1.287 . S
C1170 C1171 1.524 . S
C1170 H1189 0.913 . S
C1171 H1147 0.950 . S
C1171 C1170 1.524 . S
C1171 C1172 1.415 . S
C1172 H1148 0.950 . S
C1172 C1167 1.363 . S
C1172 C1171 1.415 . S
C1173 H1149 0.951 . S
C1173 C1174 1.366 . S
C1173 C1175 1.388 . S
C1174 C1173 1.366 . S
C1174 C1178 1.385 . S
C1175 H1150 0.951 . S
C1175 C1173 1.388 . S
C1175 C1176 1.366 . S
C1176 C1175 1.366 . S
C1176 C1177 1.414 . S
C1176 C1179 1.499 . S
C1177 H1151 0.950 . S
C1177 C1176 1.414 . S
C1177 C1178 1.374 . S
C1178 H1152 0.950 . S
C1178 C1174 1.385 . S
C1178 C1177 1.374 . S
C1179 C1176 1.499 . S
C1179 C1180 1.373 . S
C1179 C1181 1.389 . S
C1180 H1153 0.950 . S
C1180 C1166 1.377 . S
C1180 C1179 1.373 . S
C1181 C1165 1.377 . S
C1181 C1179 1.389 . S
C1181 C1182 1.524 . S
C1182 C1181 1.524 . S
C1182 C1183 1.397 . S
C1182 C1187 1.363 . S
C1183 H1154 0.950 . S
C1183 C1182 1.397 . S
C1183 C1184 1.334 . S
C1184 H1155 0.950 . S
C1184 C1183 1.334 . S
C1184 C1185 1.287 . S
C1185 C1184 1.287 . S
C1185 C1186 1.524 . S
C1185 H1188 0.999 . S
C1186 H1156 0.950 . S
C1186 C1185 1.524 . S
C1186 C1187 1.415 . S
C1187 H1157 0.950 . S
C1187 C1182 1.363 . S
C1187 C1186 1.415 . S
H1188 C1185 0.999 . S
H1189 C1170 0.913 . S
H1190 C1208 0.951 . S
H1191 C1210 0.951 . S
H1192 C1212 0.950 . S
H1193 C1213 0.950 . S
H1194 C1215 0.950 . S
H1195 C1218 0.950 . S
H1196 C1219 0.950 . S
H1197 C1221 0.950 . S
H1198 C1222 0.950 . S
H1199 C1223 0.951 . S
H1200 C1225 0.951 . S
H1201 C1227 0.950 . S
H1202 C1228 0.950 . S
H1203 C1230 0.950 . S
H1204 C1233 0.950 . S
H1205 C1234 0.950 . S
H1206 C1236 0.950 . S
H1207 C1237 0.950 . S
C1208 H1190 0.951 . S
C1208 C1209 1.366 . S
C1208 C1210 1.388 . S
C1209 C1208 1.366 . S
C1209 C1213 1.385 . S
C1210 H1191 0.951 . S
C1210 C1208 1.388 . S
C1210 C1211 1.366 . S
C1211 C1210 1.366 . S
C1211 C1212 1.414 . S
C1211 C1214 1.499 . S
C1212 H1192 0.950 . S
C1212 C1211 1.414 . S
C1212 C1213 1.374 . S
C1213 H1193 0.950 . S
C1213 C1209 1.385 . S
C1213 C1212 1.374 . S
C1214 C1211 1.499 . S
C1214 C1215 1.373 . S
C1214 C1216 1.389 . S
C1215 H1194 0.950 . S
C1215 C1214 1.373 . S
C1215 C1231 1.377 . S
C1216 C1214 1.389 . S
C1216 C1217 1.524 . S
C1216 C1230 1.377 . S
C1217 C1216 1.524 . S
C1217 C1218 1.397 . S
C1217 C1222 1.363 . S
C1218 H1195 0.950 . S
C1218 C1217 1.397 . S
C1218 C1219 1.334 . S
C1219 H1196 0.950 . S
C1219 C1218 1.334 . S
C1219 C1220 1.287 . S
C1220 C1219 1.287 . S
C1220 C1221 1.524 . S
C1220 H1239 0.913 . S
C1221 H1197 0.950 . S
C1221 C1220 1.524 . S
C1221 C1222 1.415 . S
C1222 H1198 0.950 . S
C1222 C1217 1.363 . S
C1222 C1221 1.415 . S
C1223 H1199 0.951 . S
C1223 C1224 1.366 . S
C1223 C1225 1.388 . S
C1224 C1223 1.366 . S
C1224 C1228 1.385 . S
C1225 H1200 0.951 . S
C1225 C1223 1.388 . S
C1225 C1226 1.366 . S
C1226 C1225 1.366 . S
C1226 C1227 1.414 . S
C1226 C1229 1.499 . S
C1227 H1201 0.950 . S
C1227 C1226 1.414 . S
C1227 C1228 1.374 . S
C1228 H1202 0.950 . S
C1228 C1224 1.385 . S
C1228 C1227 1.374 . S
C1229 C1226 1.499 . S
C1229 C1230 1.373 . S
C1229 C1231 1.389 . S
C1230 H1203 0.950 . S
C1230 C1216 1.377 . S
C1230 C1229 1.373 . S
C1231 C1215 1.377 . S
C1231 C1229 1.389 . S
C1231 C1232 1.524 . S
C1232 C1231 1.524 . S
C1232 C1233 1.397 . S
C1232 C1237 1.363 . S
C1233 H1204 0.950 . S
C1233 C1232 1.397 . S
C1233 C1234 1.334 . S
C1234 H1205 0.950 . S
C1234 C1233 1.334 . S
C1234 C1235 1.287 . S
C1235 C1234 1.287 . S
C1235 C1236 1.524 . S
C1235 H1238 0.999 . S
C1236 H1206 0.950 . S
C1236 C1235 1.524 . S
C1236 C1237 1.415 . S
C1237 H1207 0.950 . S
C1237 C1232 1.363 . S
C1237 C1236 1.415 . S
H1238 C1235 0.999 . S
H1239 C1220 0.913 . S
H1240 C1258 0.951 . S
H1241 C1260 0.951 . S
H1242 C1262 0.950 . S
H1243 C1263 0.950 . S
H1244 C1265 0.950 . S
H1245 C1268 0.950 . S
H1246 C1269 0.950 . S
H1247 C1271 0.950 . S
H1248 C1272 0.950 . S
H1249 C1273 0.951 . S
H1250 C1275 0.951 . S
H1251 C1277 0.950 1_655 S
H1252 C1278 0.950 . S
H1253 C1280 0.914 1_655 S
H1254 C1283 0.950 . S
H1255 C1284 0.950 . S
H1256 C1286 0.950 . S
H1257 C1287 0.950 1_556 S
C1258 H1240 0.951 . S
C1258 C1259 1.366 . S
C1258 C1260 1.388 . S
C1259 C1258 1.366 . S
C1259 C1263 1.385 1_655 S
C1260 H1241 0.951 . S
C1260 C1258 1.388 . S
C1260 C1261 1.366 1_655 S
C1261 C1260 1.366 1_455 S
C1261 C1262 1.414 . S
C1261 C1264 1.499 1_554 S
C1262 H1242 0.950 . S
C1262 C1261 1.414 . S
C1262 C1263 1.374 . S
C1263 H1243 0.950 . S
C1263 C1259 1.385 1_455 S
C1263 C1262 1.374 . S
C1264 C1261 1.499 1_556 S
C1264 C1265 1.373 1_556 S
C1264 C1266 1.389 1_455 S
C1265 H1244 0.950 . S
C1265 C1264 1.373 1_554 S
C1265 C1281 1.377 1_554 S
C1266 C1264 1.389 1_655 S
C1266 C1267 1.524 . S
C1266 C1280 1.368 1_655 S
C1267 C1266 1.524 . S
C1267 C1268 1.397 . S
C1267 C1272 1.363 . S
C1268 H1245 0.950 . S
C1268 C1267 1.397 . S
C1268 C1269 1.334 . S
C1269 H1246 0.950 . S
C1269 C1268 1.334 . S
C1269 C1270 1.287 . S
C1270 C1269 1.287 . S
C1270 C1271 1.524 . S
C1270 H1289 0.913 . S
C1271 H1247 0.950 . S
C1271 C1270 1.524 . S
C1271 C1272 1.415 . S
C1272 H1248 0.950 . S
C1272 C1267 1.363 . S
C1272 C1271 1.415 . S
C1273 H1249 0.951 . S
C1273 C1274 1.366 . S
C1273 C1275 1.388 . S
C1274 C1273 1.366 . S
C1274 C1278 1.385 . S
C1275 H1250 0.951 . S
C1275 C1273 1.388 . S
C1275 C1276 1.366 . S
C1276 C1275 1.366 . S
C1276 C1277 1.414 . S
C1276 C1279 1.499 . S
C1277 H1251 0.950 1_455 S
C1277 C1276 1.414 . S
C1277 C1278 1.374 . S
C1278 H1252 0.950 . S
C1278 C1274 1.385 . S
C1278 C1277 1.374 . S
C1279 C1276 1.499 . S
C1279 C1280 1.420 . S
C1279 C1281 1.389 . S
C1280 H1253 0.914 1_455 S
C1280 C1266 1.368 1_455 S
C1280 C1279 1.420 . S
C1281 C1265 1.377 1_556 S
C1281 C1279 1.389 . S
C1281 C1282 1.524 1_556 S
C1282 C1281 1.524 1_554 S
C1282 C1283 1.397 . S
C1282 C1287 1.363 . S
C1283 H1254 0.950 . S
C1283 C1282 1.397 . S
C1283 C1284 1.334 . S
C1284 H1255 0.950 . S
C1284 C1283 1.334 . S
C1284 C1285 1.287 . S
C1285 C1284 1.287 . S
C1285 C1286 1.524 . S
C1285 H1288 0.999 . S
C1286 H1256 0.950 . S
C1286 C1285 1.524 . S
C1286 C1287 1.415 . S
C1287 H1257 0.950 1_554 S
C1287 C1282 1.363 . S
C1287 C1286 1.415 . S
H1288 C1285 0.999 . S
H1289 C1270 0.913 . S
H1290 C1308 0.951 . S
H1291 C1310 0.951 . S
H1292 C1312 0.950 1_556 S
H1293 C1313 0.939 1_545 S
H1294 C1315 0.950 . S
H1295 C1318 0.950 . S
H1296 C1319 0.950 . S
H1297 C1321 0.950 . S
H1298 C1322 0.950 . S
H1299 C1323 0.951 . S
H1300 C1325 0.951 . S
H1301 C1327 0.950 . S
H1302 C1328 0.950 . S
H1303 C1330 0.950 . S
H1304 C1333 0.958 . S
H1305 C1334 0.950 . S
H1306 C1336 0.950 . S
H1307 C1337 0.950 . S
C1308 H1290 0.951 . S
C1308 C1309 1.366 . S
C1308 C1310 1.388 . S
C1309 C1308 1.366 . S
C1309 C1313 1.385 . S
C1310 H1291 0.951 . S
C1310 C1308 1.388 . S
C1310 C1311 1.366 . S
C1311 C1310 1.366 . S
C1311 C1312 1.414 1_565 S
C1311 C1314 1.482 1_564 S
C1312 H1292 0.950 1_554 S
C1312 C1311 1.414 1_545 S
C1312 C1313 1.374 1_545 S
C1313 H1293 0.939 1_565 S
C1313 C1309 1.385 . S
C1313 C1312 1.374 1_565 S
C1314 C1311 1.482 1_546 S
C1314 C1315 1.434 . S
C1314 C1316 1.350 1_545 S
C1315 H1294 0.950 . S
C1315 C1314 1.434 . S
C1315 C1331 1.377 . S
C1316 C1314 1.350 1_565 S
C1316 C1317 1.524 . S
C1316 C1330 1.377 . S
C1317 C1316 1.524 . S
C1317 C1318 1.397 . S
C1317 C1322 1.363 1_556 S
C1318 H1295 0.950 . S
C1318 C1317 1.397 . S
C1318 C1319 1.334 . S
C1319 H1296 0.950 . S
C1319 C1318 1.334 . S
C1319 C1320 1.287 . S
C1320 C1319 1.287 . S
C1320 C1321 1.524 1_556 S
C1320 H1339 0.913 . S
C1321 H1297 0.950 . S
C1321 C1320 1.524 1_554 S
C1321 C1322 1.415 . S
C1322 H1298 0.950 . S
C1322 C1317 1.363 1_554 S
C1322 C1321 1.415 . S
C1323 H1299 0.951 . S
C1323 C1324 1.366 . S
C1323 C1325 1.388 . S
C1324 C1323 1.366 . S
C1324 C1328 1.385 . S
C1325 H1300 0.951 . S
C1325 C1323 1.388 . S
C1325 C1326 1.366 . S
C1326 C1325 1.366 . S
C1326 C1327 1.414 . S
C1326 C1329 1.499 . S
C1327 H1301 0.950 . S
C1327 C1326 1.414 . S
C1327 C1328 1.374 . S
C1328 H1302 0.950 . S
C1328 C1324 1.385 . S
C1328 C1327 1.374 . S
C1329 C1326 1.499 . S
C1329 C1330 1.373 1_545 S
C1329 C1331 1.389 . S
C1330 H1303 0.950 . S
C1330 C1316 1.377 . S
C1330 C1329 1.373 1_565 S
C1331 C1315 1.377 . S
C1331 C1329 1.389 . S
C1331 C1332 1.524 . S
C1332 C1331 1.524 . S
C1332 C1333 1.397 . S
C1332 C1337 1.363 . S
C1333 H1304 0.958 . S
C1333 C1332 1.397 . S
C1333 C1334 1.334 . S
C1334 H1305 0.950 . S
C1334 C1333 1.334 . S
C1334 C1335 1.287 . S
C1335 C1334 1.287 . S
C1335 C1336 1.524 . S
C1335 H1338 0.999 . S
C1336 H1306 0.950 . S
C1336 C1335 1.524 . S
C1336 C1337 1.415 . S
C1337 H1307 0.950 . S
C1337 C1332 1.363 . S
C1337 C1336 1.415 . S
H1338 C1335 0.999 . S
H1339 C1320 0.913 . S
H1340 C1358 0.951 . S
H1341 C1360 0.951 . S
H1342 C1362 0.950 . S
H1343 C1363 0.950 . S
H1344 C1365 0.950 . S
H1345 C1368 0.950 . S
H1346 C1369 0.950 . S
H1347 C1371 0.950 . S
H1348 C1372 0.950 . S
H1349 C1373 0.951 . S
H1350 C1375 0.951 . S
H1351 C1377 0.950 . S
H1352 C1378 0.950 . S
H1353 C1380 0.952 . S
H1354 C1383 0.950 . S
H1355 C1384 0.950 . S
H1356 C1386 0.950 . S
H1357 C1387 0.950 . S
C1358 H1340 0.951 . S
C1358 C1359 1.366 . S
C1358 C1360 1.388 . S
C1359 C1358 1.366 . S
C1359 C1363 1.385 . S
C1360 H1341 0.951 . S
C1360 C1358 1.388 . S
C1360 C1361 1.366 . S
C1361 C1360 1.366 . S
C1361 C1362 1.414 . S
C1361 C1364 1.499 . S
C1362 H1342 0.950 . S
C1362 C1361 1.414 . S
C1362 C1363 1.374 . S
C1363 H1343 0.950 . S
C1363 C1359 1.385 . S
C1363 C1362 1.374 . S
C1364 C1361 1.499 . S
C1364 C1365 1.373 1_554 S
C1364 C1366 1.389 . S
C1365 H1344 0.950 . S
C1365 C1364 1.373 1_556 S
C1365 C1381 1.377 . S
C1366 C1364 1.389 . S
C1366 C1367 1.524 . S
C1366 C1380 1.378 . S
C1367 C1366 1.524 . S
C1367 C1368 1.397 . S
C1367 C1372 1.363 . S
C1368 H1345 0.950 . S
C1368 C1367 1.397 . S
C1368 C1369 1.334 . S
C1369 H1346 0.950 . S
C1369 C1368 1.334 . S
C1369 C1370 1.287 . S
C1370 C1369 1.287 . S
C1370 C1371 1.524 . S
C1370 H1389 0.913 . S
C1371 H1347 0.950 . S
C1371 C1370 1.524 . S
C1371 C1372 1.415 . S
C1372 H1348 0.950 . S
C1372 C1367 1.363 . S
C1372 C1371 1.415 . S
C1373 H1349 0.951 . S
C1373 C1374 1.366 . S
C1373 C1375 1.388 . S
C1374 C1373 1.366 . S
C1374 C1378 1.385 . S
C1375 H1350 0.951 . S
C1375 C1373 1.388 . S
C1375 C1376 1.366 . S
C1376 C1375 1.366 . S
C1376 C1377 1.414 . S
C1376 C1379 1.499 . S
C1377 H1351 0.950 . S
C1377 C1376 1.414 . S
C1377 C1378 1.374 . S
C1378 H1352 0.950 . S
C1378 C1374 1.385 . S
C1378 C1377 1.374 . S
C1379 C1376 1.499 . S
C1379 C1380 1.370 1_556 S
C1379 C1381 1.389 . S
C1380 H1353 0.952 . S
C1380 C1366 1.378 . S
C1380 C1379 1.370 1_554 S
C1381 C1365 1.377 . S
C1381 C1379 1.389 . S
C1381 C1382 1.524 . S
C1382 C1381 1.524 . S
C1382 C1383 1.397 . S
C1382 C1387 1.363 . S
C1383 H1354 0.950 . S
C1383 C1382 1.397 . S
C1383 C1384 1.334 . S
C1384 H1355 0.950 . S
C1384 C1383 1.334 . S
C1384 C1385 1.287 . S
C1385 C1384 1.287 . S
C1385 C1386 1.524 . S
C1385 H1388 0.999 . S
C1386 H1356 0.950 . S
C1386 C1385 1.524 . S
C1386 C1387 1.415 . S
C1387 H1357 0.950 . S
C1387 C1382 1.363 . S
C1387 C1386 1.415 . S
H1388 C1385 0.999 . S
H1389 C1370 0.913 . S
H1390 C1408 0.951 . S
H1391 C1410 0.951 1_556 S
H1392 C1412 0.950 . S
H1393 C1413 0.950 . S
H1394 C1415 0.950 . S
H1395 C1418 0.950 . S
H1396 C1419 0.950 . S
H1397 C1421 0.950 . S
H1398 C1422 0.950 . S
H1399 C1423 0.951 . S
H1400 C1425 0.951 . S
H1401 C1427 0.950 . S
H1402 C1428 0.950 . S
H1403 C1430 0.950 . S
H1404 C1433 0.950 . S
H1405 C1434 0.950 . S
H1406 C1436 0.950 . S
H1407 C1437 0.950 . S
C1408 H1390 0.951 . S
C1408 C1409 1.366 . S
C1408 C1410 1.388 . S
C1409 C1408 1.366 . S
C1409 C1413 1.385 . S
C1410 H1391 0.951 1_554 S
C1410 C1408 1.388 . S
C1410 C1411 1.366 . S
C1411 C1410 1.366 . S
C1411 C1412 1.414 . S
C1411 C1414 1.499 1_554 S
C1412 H1392 0.950 . S
C1412 C1411 1.414 . S
C1412 C1413 1.374 . S
C1413 H1393 0.950 . S
C1413 C1409 1.385 . S
C1413 C1412 1.374 . S
C1414 C1411 1.499 1_556 S
C1414 C1415 1.373 1_556 S
C1414 C1416 1.389 . S
C1415 H1394 0.950 . S
C1415 C1414 1.373 1_554 S
C1415 C1431 1.377 . S
C1416 C1414 1.389 . S
C1416 C1417 1.524 . S
C1416 C1430 1.377 . S
C1417 C1416 1.524 . S
C1417 C1418 1.397 . S
C1417 C1422 1.363 . S
C1418 H1395 0.950 . S
C1418 C1417 1.397 . S
C1418 C1419 1.334 . S
C1419 H1396 0.950 . S
C1419 C1418 1.334 . S
C1419 C1420 1.287 . S
C1420 C1419 1.287 . S
C1420 C1421 1.524 . S
C1420 H1439 0.913 . S
C1421 H1397 0.950 . S
C1421 C1420 1.524 . S
C1421 C1422 1.415 . S
C1422 H1398 0.950 . S
C1422 C1417 1.363 . S
C1422 C1421 1.415 . S
C1423 H1399 0.951 . S
C1423 C1424 1.366 . S
C1423 C1425 1.388 . S
C1424 C1423 1.366 . S
C1424 C1428 1.385 . S
C1425 H1400 0.951 . S
C1425 C1423 1.388 . S
C1425 C1426 1.366 . S
C1426 C1425 1.366 . S
C1426 C1427 1.414 . S
C1426 C1429 1.499 . S
C1427 H1401 0.950 . S
C1427 C1426 1.414 . S
C1427 C1428 1.374 . S
C1428 H1402 0.950 . S
C1428 C1424 1.385 . S
C1428 C1427 1.374 . S
C1429 C1426 1.499 . S
C1429 C1430 1.373 . S
C1429 C1431 1.389 1_556 S
C1430 H1403 0.950 . S
C1430 C1416 1.377 . S
C1430 C1429 1.373 . S
C1431 C1415 1.377 . S
C1431 C1429 1.389 1_554 S
C1431 C1432 1.524 . S
C1432 C1431 1.524 . S
C1432 C1433 1.397 . S
C1432 C1437 1.363 . S
C1433 H1404 0.950 . S
C1433 C1432 1.397 . S
C1433 C1434 1.334 . S
C1434 H1405 0.950 . S
C1434 C1433 1.334 . S
C1434 C1435 1.287 . S
C1435 C1434 1.287 . S
C1435 C1436 1.524 . S
C1435 H1438 0.999 . S
C1436 H1406 0.950 . S
C1436 C1435 1.524 . S
C1436 C1437 1.415 . S
C1437 H1407 0.950 . S
C1437 C1432 1.363 . S
C1437 C1436 1.415 . S
H1438 C1435 0.999 . S
H1439 C1420 0.913 . S
H1440 C1458 0.951 . S
H1441 C1460 0.951 . S
H1442 C1462 0.950 . S
H1443 C1463 0.950 . S
H1444 C1465 0.950 . S
H1445 C1468 0.950 . S
H1446 C1469 0.950 . S
H1447 C1471 0.950 . S
H1448 C1472 0.950 . S
H1449 C1473 0.951 . S
H1450 C1475 0.951 . S
H1451 C1477 0.950 . S
H1452 C1478 0.950 . S
H1453 C1480 0.950 . S
H1454 C1483 0.950 . S
H1455 C1484 0.950 . S
H1456 C1486 0.950 . S
H1457 C1487 0.950 . S
C1458 H1440 0.951 . S
C1458 C1459 1.366 . S
C1458 C1460 1.388 . S
C1459 C1458 1.366 . S
C1459 C1463 1.385 1_455 S
C1460 H1441 0.951 . S
C1460 C1458 1.388 . S
C1460 C1461 1.366 . S
C1461 C1460 1.366 . S
C1461 C1462 1.414 1_455 S
C1461 C1464 1.499 . S
C1462 H1442 0.950 . S
C1462 C1461 1.414 1_655 S
C1462 C1463 1.374 . S
C1463 H1443 0.950 . S
C1463 C1459 1.385 1_655 S
C1463 C1462 1.374 . S
C1464 C1461 1.499 . S
C1464 C1465 1.373 1_455 S
C1464 C1466 1.389 . S
C1465 H1444 0.950 . S
C1465 C1464 1.373 1_655 S
C1465 C1481 1.377 . S
C1466 C1464 1.389 . S
C1466 C1467 1.524 . S
C1466 C1480 1.377 . S
C1467 C1466 1.524 . S
C1467 C1468 1.397 . S
C1467 C1472 1.363 . S
C1468 H1445 0.950 . S
C1468 C1467 1.397 . S
C1468 C1469 1.334 . S
C1469 H1446 0.950 . S
C1469 C1468 1.334 . S
C1469 C1470 1.287 . S
C1470 C1469 1.287 . S
C1470 C1471 1.524 . S
C1470 H1489 0.913 . S
C1471 H1447 0.950 . S
C1471 C1470 1.524 . S
C1471 C1472 1.415 . S
C1472 H1448 0.950 . S
C1472 C1467 1.363 . S
C1472 C1471 1.415 . S
C1473 H1449 0.951 . S
C1473 C1474 1.366 1_655 S
C1473 C1475 1.388 . S
C1474 C1473 1.366 1_455 S
C1474 C1478 1.385 . S
C1475 H1450 0.951 . S
C1475 C1473 1.388 . S
C1475 C1476 1.366 1_655 S
C1476 C1475 1.366 1_455 S
C1476 C1477 1.414 . S
C1476 C1479 1.499 . S
C1477 H1451 0.950 . S
C1477 C1476 1.414 . S
C1477 C1478 1.374 . S
C1478 H1452 0.950 . S
C1478 C1474 1.385 . S
C1478 C1477 1.374 . S
C1479 C1476 1.499 . S
C1479 C1480 1.373 . S
C1479 C1481 1.389 1_455 S
C1480 H1453 0.950 . S
C1480 C1466 1.377 . S
C1480 C1479 1.373 . S
C1481 C1465 1.377 . S
C1481 C1479 1.389 1_655 S
C1481 C1482 1.524 . S
C1482 C1481 1.524 . S
C1482 C1483 1.397 . S
C1482 C1487 1.363 . S
C1483 H1454 0.950 . S
C1483 C1482 1.397 . S
C1483 C1484 1.334 . S
C1484 H1455 0.950 . S
C1484 C1483 1.334 . S
C1484 C1485 1.287 . S
C1485 C1484 1.287 . S
C1485 C1486 1.524 . S
C1485 H1488 0.999 . S
C1486 H1456 0.950 . S
C1486 C1485 1.524 . S
C1486 C1487 1.415 . S
C1487 H1457 0.950 . S
C1487 C1482 1.363 . S
C1487 C1486 1.415 . S
H1488 C1485 0.999 . S
H1489 C1470 0.913 . S
H1490 C1508 0.951 . S
H1491 C1510 0.951 . S
H1492 C1512 0.950 . S
H1493 C1513 0.950 . S
H1494 C1515 0.950 . S
H1495 C1518 0.950 . S
H1496 C1519 0.950 . S
H1497 C1521 0.950 . S
H1498 C1522 0.950 . S
H1499 C1523 0.951 . S
H1500 C1525 0.951 . S
H1501 C1527 0.950 . S
H1502 C1528 0.950 . S
H1503 C1530 0.950 . S
H1504 C1533 0.950 . S
H1505 C1534 0.950 . S
H1506 C1536 0.950 . S
H1507 C1537 0.950 1_545 S
C1508 H1490 0.951 . S
C1508 C1509 1.366 . S
C1508 C1510 1.388 . S
C1509 C1508 1.366 . S
C1509 C1513 1.385 . S
C1510 H1491 0.951 . S
C1510 C1508 1.388 . S
C1510 C1511 1.366 . S
C1511 C1510 1.366 . S
C1511 C1512 1.414 . S
C1511 C1514 1.499 . S
C1512 H1492 0.950 . S
C1512 C1511 1.414 . S
C1512 C1513 1.374 . S
C1513 H1493 0.950 . S
C1513 C1509 1.385 . S
C1513 C1512 1.374 . S
C1514 C1511 1.499 . S
C1514 C1515 1.373 . S
C1514 C1516 1.389 . S
C1515 H1494 0.950 . S
C1515 C1514 1.373 . S
C1515 C1531 1.377 . S
C1516 C1514 1.389 . S
C1516 C1517 1.524 . S
C1516 C1530 1.377 . S
C1517 C1516 1.524 . S
C1517 C1518 1.397 . S
C1517 C1522 1.363 . S
C1518 H1495 0.950 . S
C1518 C1517 1.397 . S
C1518 C1519 1.334 . S
C1519 H1496 0.950 . S
C1519 C1518 1.334 . S
C1519 C1520 1.287 . S
C1520 C1519 1.287 . S
C1520 C1521 1.524 . S
C1520 H1539 0.913 . S
C1521 H1497 0.950 . S
C1521 C1520 1.524 . S
C1521 C1522 1.415 . S
C1522 H1498 0.950 . S
C1522 C1517 1.363 . S
C1522 C1521 1.415 . S
C1523 H1499 0.951 . S
C1523 C1524 1.366 . S
C1523 C1525 1.388 . S
C1524 C1523 1.366 . S
C1524 C1528 1.385 . S
C1525 H1500 0.951 . S
C1525 C1523 1.388 . S
C1525 C1526 1.366 . S
C1526 C1525 1.366 . S
C1526 C1527 1.414 . S
C1526 C1529 1.499 . S
C1527 H1501 0.950 . S
C1527 C1526 1.414 . S
C1527 C1528 1.374 . S
C1528 H1502 0.950 . S
C1528 C1524 1.385 . S
C1528 C1527 1.374 . S
C1529 C1526 1.499 . S
C1529 C1530 1.373 . S
C1529 C1531 1.389 . S
C1530 H1503 0.950 . S
C1530 C1516 1.377 . S
C1530 C1529 1.373 . S
C1531 C1515 1.377 . S
C1531 C1529 1.389 . S
C1531 C1532 1.524 1_545 S
C1532 C1531 1.524 1_565 S
C1532 C1533 1.397 . S
C1532 C1537 1.363 . S
C1533 H1504 0.950 . S
C1533 C1532 1.397 . S
C1533 C1534 1.334 . S
C1534 H1505 0.950 . S
C1534 C1533 1.334 . S
C1534 C1535 1.287 . S
C1535 C1534 1.287 . S
C1535 C1536 1.524 . S
C1535 H1538 0.999 . S
C1536 H1506 0.950 . S
C1536 C1535 1.524 . S
C1536 C1537 1.415 . S
C1537 H1507 0.950 1_565 S
C1537 C1532 1.363 . S
C1537 C1536 1.415 . S
H1538 C1535 0.999 . S
H1539 C1520 0.913 . S
H1540 C1558 0.951 . S
H1541 C1560 0.951 . S
H1542 C1562 0.950 . S
H1543 C1563 0.950 . S
H1544 C1565 0.950 . S
H1545 C1568 0.950 . S
H1546 C1569 0.950 . S
H1547 C1571 0.950 . S
H1548 C1572 0.950 . S
H1549 C1573 0.951 . S
H1550 C1575 0.951 . S
H1551 C1577 0.950 . S
H1552 C1578 0.950 . S
H1553 C1580 0.950 . S
H1554 C1583 0.950 . S
H1555 C1584 0.950 . S
H1556 C1586 0.950 . S
H1557 C1587 0.950 . S
C1558 H1540 0.951 . S
C1558 C1559 1.366 . S
C1558 C1560 1.388 . S
C1559 C1558 1.366 . S
C1559 C1563 1.385 . S
C1560 H1541 0.951 . S
C1560 C1558 1.388 . S
C1560 C1561 1.366 . S
C1561 C1560 1.366 . S
C1561 C1562 1.414 . S
C1561 C1564 1.499 . S
C1562 H1542 0.950 . S
C1562 C1561 1.414 . S
C1562 C1563 1.374 . S
C1563 H1543 0.950 . S
C1563 C1559 1.385 . S
C1563 C1562 1.374 . S
C1564 C1561 1.499 . S
C1564 C1565 1.373 . S
C1564 C1566 1.389 . S
C1565 H1544 0.950 . S
C1565 C1564 1.373 . S
C1565 C1581 1.377 . S
C1566 C1564 1.389 . S
C1566 C1567 1.524 . S
C1566 C1580 1.377 . S
C1567 C1566 1.524 . S
C1567 C1568 1.397 . S
C1567 C1572 1.363 . S
C1568 H1545 0.950 . S
C1568 C1567 1.397 . S
C1568 C1569 1.334 . S
C1569 H1546 0.950 . S
C1569 C1568 1.334 . S
C1569 C1570 1.287 . S
C1570 C1569 1.287 . S
C1570 C1571 1.524 . S
C1570 H1589 0.913 . S
C1571 H1547 0.950 . S
C1571 C1570 1.524 . S
C1571 C1572 1.415 . S
C1572 H1548 0.950 . S
C1572 C1567 1.363 . S
C1572 C1571 1.415 . S
C1573 H1549 0.951 . S
C1573 C1574 1.366 . S
C1573 C1575 1.388 . S
C1574 C1573 1.366 . S
C1574 C1578 1.385 . S
C1575 H1550 0.951 . S
C1575 C1573 1.388 . S
C1575 C1576 1.366 . S
C1576 C1575 1.366 . S
C1576 C1577 1.414 . S
C1576 C1579 1.499 . S
C1577 H1551 0.950 . S
C1577 C1576 1.414 . S
C1577 C1578 1.374 . S
C1578 H1552 0.950 . S
C1578 C1574 1.385 . S
C1578 C1577 1.374 . S
C1579 C1576 1.499 . S
C1579 C1580 1.373 . S
C1579 C1581 1.389 . S
C1580 H1553 0.950 . S
C1580 C1566 1.377 . S
C1580 C1579 1.373 . S
C1581 C1565 1.377 . S
C1581 C1579 1.389 . S
C1581 C1582 1.524 . S
C1582 C1581 1.524 . S
C1582 C1583 1.397 . S
C1582 C1587 1.363 . S
C1583 H1554 0.950 . S
C1583 C1582 1.397 . S
C1583 C1584 1.334 . S
C1584 H1555 0.950 . S
C1584 C1583 1.334 . S
C1584 C1585 1.287 . S
C1585 C1584 1.287 . S
C1585 C1586 1.524 . S
C1585 H1588 0.999 . S
C1586 H1556 0.950 . S
C1586 C1585 1.524 . S
C1586 C1587 1.415 . S
C1587 H1557 0.950 . S
C1587 C1582 1.363 . S
C1587 C1586 1.415 . S
H1588 C1585 0.999 . S
H1589 C1570 0.913 . S
H1590 C1608 0.951 . S
H1591 C1610 0.951 . S
H1592 C1612 0.950 . S
H1593 C1613 0.950 . S
H1594 C1615 0.950 . S
H1595 C1618 0.950 . S
H1596 C1619 0.950 . S
H1597 C1621 0.950 . S
H1598 C1622 0.950 . S
H1599 C1623 0.951 . S
H1600 C1625 0.951 . S
H1601 C1627 0.950 . S
H1602 C1628 0.950 . S
H1603 C1630 0.950 . S
H1604 C1633 0.950 . S
H1605 C1634 0.950 . S
H1606 C1636 0.950 . S
H1607 C1637 0.950 . S
C1608 H1590 0.951 . S
C1608 C1609 1.366 . S
C1608 C1610 1.388 . S
C1609 C1608 1.366 . S
C1609 C1613 1.385 . S
C1610 H1591 0.951 . S
C1610 C1608 1.388 . S
C1610 C1611 1.366 . S
C1611 C1610 1.366 . S
C1611 C1612 1.414 . S
C1611 C1614 1.499 . S
C1612 H1592 0.950 . S
C1612 C1611 1.414 . S
C1612 C1613 1.374 . S
C1613 H1593 0.950 . S
C1613 C1609 1.385 . S
C1613 C1612 1.374 . S
C1614 C1611 1.499 . S
C1614 C1615 1.373 . S
C1614 C1616 1.389 . S
C1615 H1594 0.950 . S
C1615 C1614 1.373 . S
C1615 C1631 1.377 . S
C1616 C1614 1.389 . S
C1616 C1617 1.524 . S
C1616 C1630 1.377 . S
C1617 C1616 1.524 . S
C1617 C1618 1.397 . S
C1617 C1622 1.363 . S
C1618 H1595 0.950 . S
C1618 C1617 1.397 . S
C1618 C1619 1.334 . S
C1619 H1596 0.950 . S
C1619 C1618 1.334 . S
C1619 C1620 1.287 . S
C1620 C1619 1.287 . S
C1620 C1621 1.524 . S
C1620 H1639 0.913 1_556 S
C1621 H1597 0.950 . S
C1621 C1620 1.524 . S
C1621 C1622 1.415 . S
C1622 H1598 0.950 . S
C1622 C1617 1.363 . S
C1622 C1621 1.415 . S
C1623 H1599 0.951 . S
C1623 C1624 1.366 . S
C1623 C1625 1.388 . S
C1624 C1623 1.366 . S
C1624 C1628 1.385 . S
C1625 H1600 0.951 . S
C1625 C1623 1.388 . S
C1625 C1626 1.366 . S
C1626 C1625 1.366 . S
C1626 C1627 1.414 . S
C1626 C1629 1.499 . S
C1627 H1601 0.950 . S
C1627 C1626 1.414 . S
C1627 C1628 1.374 . S
C1628 H1602 0.950 . S
C1628 C1624 1.385 . S
C1628 C1627 1.374 . S
C1629 C1626 1.499 . S
C1629 C1630 1.373 . S
C1629 C1631 1.389 . S
C1630 H1603 0.950 . S
C1630 C1616 1.377 . S
C1630 C1629 1.373 . S
C1631 C1615 1.377 . S
C1631 C1629 1.389 . S
C1631 C1632 1.524 . S
C1632 C1631 1.524 . S
C1632 C1633 1.397 . S
C1632 C1637 1.363 . S
C1633 H1604 0.950 . S
C1633 C1632 1.397 . S
C1633 C1634 1.334 . S
C1634 H1605 0.950 . S
C1634 C1633 1.334 . S
C1634 C1635 1.287 . S
C1635 C1634 1.287 . S
C1635 C1636 1.524 . S
C1635 H1638 0.999 . S
C1636 H1606 0.950 . S
C1636 C1635 1.524 . S
C1636 C1637 1.415 . S
C1637 H1607 0.950 . S
C1637 C1632 1.363 . S
C1637 C1636 1.415 . S
H1638 C1635 0.999 . S
H1639 C1620 0.913 1_554 S
H1640 C1658 0.951 . S
H1641 C1660 0.951 . S
H1642 C1662 0.950 . S
H1643 C1663 0.950 . S
H1644 C1665 0.950 . S
H1645 C1668 0.950 1_655 S
H1646 C1669 0.950 . S
H1647 C1671 0.950 . S
H1648 C1672 0.950 . S
H1649 C1673 0.951 . S
H1650 C1675 0.951 . S
H1651 C1677 0.950 . S
H1652 C1678 0.950 . S
H1653 C1680 0.950 . S
H1654 C1683 0.950 . S
H1655 C1684 0.950 . S
H1656 C1686 0.950 . S
H1657 C1687 0.950 . S
C1658 H1640 0.951 . S
C1658 C1659 1.366 1_455 S
C1658 C1660 1.388 . S
C1659 C1658 1.366 1_655 S
C1659 C1663 1.385 . S
C1660 H1641 0.951 . S
C1660 C1658 1.388 . S
C1660 C1661 1.366 1_455 S
C1661 C1660 1.366 1_655 S
C1661 C1662 1.414 . S
C1661 C1664 1.499 . S
C1662 H1642 0.950 . S
C1662 C1661 1.414 . S
C1662 C1663 1.374 . S
C1663 H1643 0.950 . S
C1663 C1659 1.385 . S
C1663 C1662 1.374 . S
C1664 C1661 1.499 . S
C1664 C1665 1.373 . S
C1664 C1666 1.389 1_655 S
C1665 H1644 0.950 . S
C1665 C1664 1.373 . S
C1665 C1681 1.377 . S
C1666 C1664 1.389 1_455 S
C1666 C1667 1.524 . S
C1666 C1680 1.377 . S
C1667 C1666 1.524 . S
C1667 C1668 1.397 . S
C1667 C1672 1.363 . S
C1668 H1645 0.950 1_455 S
C1668 C1667 1.397 . S
C1668 C1669 1.334 . S
C1669 H1646 0.950 . S
C1669 C1668 1.334 . S
C1669 C1670 1.287 . S
C1670 C1669 1.287 . S
C1670 C1671 1.524 . S
C1670 H1689 0.913 . S
C1671 H1647 0.950 . S
C1671 C1670 1.524 . S
C1671 C1672 1.415 . S
C1672 H1648 0.950 . S
C1672 C1667 1.363 . S
C1672 C1671 1.415 . S
C1673 H1649 0.951 . S
C1673 C1674 1.366 . S
C1673 C1675 1.388 . S
C1674 C1673 1.366 . S
C1674 C1678 1.385 1_655 S
C1675 H1650 0.951 . S
C1675 C1673 1.388 . S
C1675 C1676 1.366 . S
C1676 C1675 1.366 . S
C1676 C1677 1.414 1_655 S
C1676 C1679 1.499 . S
C1677 H1651 0.950 . S
C1677 C1676 1.414 1_455 S
C1677 C1678 1.374 . S
C1678 H1652 0.950 . S
C1678 C1674 1.385 1_455 S
C1678 C1677 1.374 . S
C1679 C1676 1.499 . S
C1679 C1680 1.373 1_655 S
C1679 C1681 1.389 . S
C1680 H1653 0.950 . S
C1680 C1666 1.377 . S
C1680 C1679 1.373 1_455 S
C1681 C1665 1.377 . S
C1681 C1679 1.389 . S
C1681 C1682 1.524 . S
C1682 C1681 1.524 . S
C1682 C1683 1.397 . S
C1682 C1687 1.363 . S
C1683 H1654 0.950 . S
C1683 C1682 1.397 . S
C1683 C1684 1.334 . S
C1684 H1655 0.950 . S
C1684 C1683 1.334 . S
C1684 C1685 1.287 . S
C1685 C1684 1.287 . S
C1685 C1686 1.524 . S
C1685 H1688 0.999 . S
C1686 H1656 0.950 . S
C1686 C1685 1.524 . S
C1686 C1687 1.415 . S
C1687 H1657 0.950 . S
C1687 C1682 1.363 . S
C1687 C1686 1.415 . S
H1688 C1685 0.999 . S
H1689 C1670 0.913 . S
H1690 C1708 0.951 . S
H1691 C1710 0.951 . S
H1692 C1712 0.950 . S
H1693 C1713 0.950 . S
H1694 C1715 0.950 . S
H1695 C1718 0.950 . S
H1696 C1719 0.950 . S
H1697 C1721 0.950 . S
H1698 C1722 0.950 . S
H1699 C1723 0.951 . S
H1700 C1725 0.951 . S
H1701 C1727 0.950 . S
H1702 C1728 0.950 . S
H1703 C1730 0.950 1_545 S
H1704 C1733 0.950 1_545 S
H1705 C1734 0.947 . S
H1706 C1736 0.950 . S
H1707 C1737 0.950 . S
C1708 H1690 0.951 . S
C1708 C1709 1.366 1_545 S
C1708 C1710 1.388 . S
C1709 C1708 1.366 1_565 S
C1709 C1713 1.385 . S
C1710 H1691 0.951 . S
C1710 C1708 1.388 . S
C1710 C1711 1.366 1_545 S
C1711 C1710 1.366 1_565 S
C1711 C1712 1.414 . S
C1711 C1714 1.499 . S
C1712 H1692 0.950 . S
C1712 C1711 1.414 . S
C1712 C1713 1.374 . S
C1713 H1693 0.950 . S
C1713 C1709 1.385 . S
C1713 C1712 1.374 . S
C1714 C1711 1.499 . S
C1714 C1715 1.373 . S
C1714 C1716 1.389 . S
C1715 H1694 0.950 . S
C1715 C1714 1.373 . S
C1715 C1731 1.377 . S
C1716 C1714 1.389 . S
C1716 C1717 1.524 1_565 S
C1716 C1730 1.377 . S
C1717 C1716 1.524 1_545 S
C1717 C1718 1.397 1_545 S
C1717 C1722 1.363 . S
C1718 H1695 0.950 . S
C1718 C1717 1.397 1_565 S
C1718 C1719 1.334 . S
C1719 H1696 0.950 . S
C1719 C1718 1.334 . S
C1719 C1720 1.287 1_565 S
C1720 C1719 1.287 1_545 S
C1720 C1721 1.524 . S
C1720 H1739 0.913 . S
C1721 H1697 0.950 . S
C1721 C1720 1.524 . S
C1721 C1722 1.415 . S
C1722 H1698 0.950 . S
C1722 C1717 1.363 . S
C1722 C1721 1.415 . S
C1723 H1699 0.951 . S
C1723 C1724 1.366 . S
C1723 C1725 1.388 . S
C1724 C1723 1.366 . S
C1724 C1728 1.385 1_565 S
C1725 H1700 0.951 . S
C1725 C1723 1.388 . S
C1725 C1726 1.366 . S
C1726 C1725 1.366 . S
C1726 C1727 1.414 1_565 S
C1726 C1729 1.499 . S
C1727 H1701 0.950 . S
C1727 C1726 1.414 1_545 S
C1727 C1728 1.374 . S
C1728 H1702 0.950 . S
C1728 C1724 1.385 1_545 S
C1728 C1727 1.374 . S
C1729 C1726 1.499 . S
C1729 C1730 1.373 . S
C1729 C1731 1.389 . S
C1730 H1703 0.950 1_565 S
C1730 C1716 1.377 . S
C1730 C1729 1.373 . S
C1731 C1715 1.377 . S
C1731 C1729 1.389 . S
C1731 C1732 1.524 . S
C1732 C1731 1.524 . S
C1732 C1733 1.397 . S
C1732 C1737 1.363 . S
C1733 H1704 0.950 1_565 S
C1733 C1732 1.397 . S
C1733 C1734 1.334 . S
C1734 H1705 0.947 . S
C1734 C1733 1.334 . S
C1734 C1735 1.287 . S
C1735 C1734 1.287 . S
C1735 C1736 1.524 . S
C1735 H1738 0.999 . S
C1736 H1706 0.950 . S
C1736 C1735 1.524 . S
C1736 C1737 1.415 . S
C1737 H1707 0.950 . S
C1737 C1732 1.363 . S
C1737 C1736 1.415 . S
H1738 C1735 0.999 . S
H1739 C1720 0.913 . S
H1740 C1758 0.951 . S
H1741 C1760 0.951 . S
H1742 C1762 0.950 . S
H1743 C1763 0.950 . S
H1744 C1765 0.950 . S
H1745 C1768 0.950 . S
H1746 C1769 0.950 . S
H1747 C1771 0.950 . S
H1748 C1772 0.950 . S
H1749 C1773 0.951 . S
H1750 C1775 0.951 . S
H1751 C1777 0.950 . S
H1752 C1778 0.950 . S
H1753 C1780 0.950 . S
H1754 C1783 0.950 . S
H1755 C1784 0.950 . S
H1756 C1786 0.950 . S
H1757 C1787 0.950 . S
C1758 H1740 0.951 . S
C1758 C1759 1.366 . S
C1758 C1760 1.388 . S
C1759 C1758 1.366 . S
C1759 C1763 1.385 . S
C1760 H1741 0.951 . S
C1760 C1758 1.388 . S
C1760 C1761 1.366 . S
C1761 C1760 1.366 . S
C1761 C1762 1.414 . S
C1761 C1764 1.499 . S
C1762 H1742 0.950 . S
C1762 C1761 1.414 . S
C1762 C1763 1.374 . S
C1763 H1743 0.950 . S
C1763 C1759 1.385 . S
C1763 C1762 1.374 . S
C1764 C1761 1.499 . S
C1764 C1765 1.373 . S
C1764 C1766 1.389 . S
C1765 H1744 0.950 . S
C1765 C1764 1.373 . S
C1765 C1781 1.377 . S
C1766 C1764 1.389 . S
C1766 C1767 1.524 . S
C1766 C1780 1.377 . S
C1767 C1766 1.524 . S
C1767 C1768 1.397 . S
C1767 C1772 1.363 . S
C1768 H1745 0.950 . S
C1768 C1767 1.397 . S
C1768 C1769 1.334 . S
C1769 H1746 0.950 . S
C1769 C1768 1.334 . S
C1769 C1770 1.287 . S
C1770 C1769 1.287 . S
C1770 C1771 1.524 . S
C1770 H1789 0.913 . S
C1771 H1747 0.950 . S
C1771 C1770 1.524 . S
C1771 C1772 1.415 . S
C1772 H1748 0.950 . S
C1772 C1767 1.363 . S
C1772 C1771 1.415 . S
C1773 H1749 0.951 . S
C1773 C1774 1.366 . S
C1773 C1775 1.388 . S
C1774 C1773 1.366 . S
C1774 C1778 1.385 . S
C1775 H1750 0.951 . S
C1775 C1773 1.388 . S
C1775 C1776 1.366 . S
C1776 C1775 1.366 . S
C1776 C1777 1.414 . S
C1776 C1779 1.499 . S
C1777 H1751 0.950 . S
C1777 C1776 1.414 . S
C1777 C1778 1.374 . S
C1778 H1752 0.950 . S
C1778 C1774 1.385 . S
C1778 C1777 1.374 . S
C1779 C1776 1.499 . S
C1779 C1780 1.373 . S
C1779 C1781 1.389 . S
C1780 H1753 0.950 . S
C1780 C1766 1.377 . S
C1780 C1779 1.373 . S
C1781 C1765 1.377 . S
C1781 C1779 1.389 . S
C1781 C1782 1.524 . S
C1782 C1781 1.524 . S
C1782 C1783 1.397 . S
C1782 C1787 1.363 . S
C1783 H1754 0.950 . S
C1783 C1782 1.397 . S
C1783 C1784 1.334 . S
C1784 H1755 0.950 . S
C1784 C1783 1.334 . S
C1784 C1785 1.287 . S
C1785 C1784 1.287 . S
C1785 C1786 1.524 . S
C1785 H1788 0.999 . S
C1786 H1756 0.950 . S
C1786 C1785 1.524 . S
C1786 C1787 1.415 . S
C1787 H1757 0.950 . S
C1787 C1782 1.363 . S
C1787 C1786 1.415 . S
H1788 C1785 0.999 . S
H1789 C1770 0.913 . S
H1790 C1808 0.951 . S
H1791 C1810 0.951 . S
H1792 C1812 0.950 . S
H1793 C1813 0.950 . S
H1794 C1815 0.950 . S
H1795 C1818 0.950 . S
H1796 C1819 0.950 . S
H1797 C1821 0.950 . S
H1798 C1822 0.950 . S
H1799 C1823 0.951 . S
H1800 C1825 0.951 . S
H1801 C1827 0.950 . S
H1802 C1828 0.950 . S
H1803 C1830 0.950 . S
H1804 C1833 0.950 . S
H1805 C1834 0.950 . S
H1806 C1836 0.950 . S
H1807 C1837 0.950 . S
C1808 H1790 0.951 . S
C1808 C1809 1.366 . S
C1808 C1810 1.388 . S
C1809 C1808 1.366 . S
C1809 C1813 1.385 . S
C1810 H1791 0.951 . S
C1810 C1808 1.388 . S
C1810 C1811 1.366 . S
C1811 C1810 1.366 . S
C1811 C1812 1.414 . S
C1811 C1814 1.499 . S
C1812 H1792 0.950 . S
C1812 C1811 1.414 . S
C1812 C1813 1.374 . S
C1813 H1793 0.950 . S
C1813 C1809 1.385 . S
C1813 C1812 1.374 . S
C1814 C1811 1.499 . S
C1814 C1815 1.373 . S
C1814 C1816 1.389 . S
C1815 H1794 0.950 . S
C1815 C1814 1.373 . S
C1815 C1831 1.377 . S
C1816 C1814 1.389 . S
C1816 C1817 1.524 . S
C1816 C1830 1.377 . S
C1817 C1816 1.524 . S
C1817 C1818 1.397 . S
C1817 C1822 1.363 . S
C1818 H1795 0.950 . S
C1818 C1817 1.397 . S
C1818 C1819 1.334 . S
C1819 H1796 0.950 . S
C1819 C1818 1.334 . S
C1819 C1820 1.287 . S
C1820 C1819 1.287 . S
C1820 C1821 1.524 . S
C1820 H1839 0.913 . S
C1821 H1797 0.950 . S
C1821 C1820 1.524 . S
C1821 C1822 1.415 . S
C1822 H1798 0.950 . S
C1822 C1817 1.363 . S
C1822 C1821 1.415 . S
C1823 H1799 0.951 . S
C1823 C1824 1.366 . S
C1823 C1825 1.388 . S
C1824 C1823 1.366 . S
C1824 C1828 1.385 . S
C1825 H1800 0.951 . S
C1825 C1823 1.388 . S
C1825 C1826 1.366 . S
C1826 C1825 1.366 . S
C1826 C1827 1.414 . S
C1826 C1829 1.499 . S
C1827 H1801 0.950 . S
C1827 C1826 1.414 . S
C1827 C1828 1.374 . S
C1828 H1802 0.950 . S
C1828 C1824 1.385 . S
C1828 C1827 1.374 . S
C1829 C1826 1.499 . S
C1829 C1830 1.373 . S
C1829 C1831 1.389 . S
C1830 H1803 0.950 . S
C1830 C1816 1.377 . S
C1830 C1829 1.373 . S
C1831 C1815 1.377 . S
C1831 C1829 1.389 . S
C1831 C1832 1.524 . S
C1832 C1831 1.524 . S
C1832 C1833 1.397 . S
C1832 C1837 1.363 . S
C1833 H1804 0.950 . S
C1833 C1832 1.397 . S
C1833 C1834 1.334 . S
C1834 H1805 0.950 . S
C1834 C1833 1.334 . S
C1834 C1835 1.287 . S
C1835 C1834 1.287 . S
C1835 C1836 1.524 . S
C1835 H1838 0.999 . S
C1836 H1806 0.950 . S
C1836 C1835 1.524 . S
C1836 C1837 1.415 . S
C1837 H1807 0.950 . S
C1837 C1832 1.363 . S
C1837 C1836 1.415 . S
H1838 C1835 0.999 . S
H1839 C1820 0.913 . S
C659 C391 1.987 . S
C674 C490 2.020 . S
C724 C530 2.012 . S
C709 C451 1.971 . S
C774 C570 2.025 . S
C759 C241 1.764 . S
C824 C610 2.004 1_455 S
C809 C331 1.756 1_455 S
C874 C499 2.024 . S
C859 C121 1.785 . S
C909 C211 1.974 . S
C924 C539 2.012 . S
C959 C31 1.974 . S
C974 C579 2.025 . S
C1009 C91 1.757 . S
C1024 C619 2.004 1_655 S
C1074 C496 0.303 . S
C1059 C301 0.505 1_455 S
C1124 C536 0.325 . S
C1109 C380 0.154 . S
C1174 C576 0.296 . S
C1159 C440 0.105 . S
C1209 C260 0.525 . S
C1224 C616 0.319 . S
C1259 C61 0.432 . S
C1274 C487 0.286 . S
C1324 C527 0.321 . S
C1309 C140 0.428 . S
C1374 C567 0.296 . S
C1359 C200 0.268 . S
C1409 C20 0.339 . S
C1424 C607 0.329 . S
C1459 C320 2.659 1_455 S
C1474 C491 2.827 . S
C1509 C361 2.306 . S
C1524 C531 2.823 . S
C1574 C571 2.818 . S
C1559 C421 2.290 . S
C1624 C611 2.839 . S
C1609 C271 2.656 . S
C1659 C80 2.650 . S
C1674 C482 2.827 . S
C1724 C522 2.823 . S
C1709 C151 2.654 . S
C1774 C562 2.818 . S
C1759 C181 2.303 . S
C1809 C1 2.314 . S
C1824 C602 2.846 . S
