# Generated by pormake.
# Topology anh, (6,3)-cn, num edge types: 1
# Building blocks:
#     Node 0, Type 0, BuildingBlock: CUKXOW_clean_sbu_0, # of connection points: 6
#     Node 1, Type 0, BuildingBlock: CUKXOW_clean_sbu_0, # of connection points: 6
#     Node 2, Type 0, BuildingBlock: CUKXOW_clean_sbu_0, # of connection points: 6
#     Node 3, Type 1, BuildingBlock: BETDAH_clean_linker_0, # of connection points: 3
#     Node 4, Type 1, BuildingBlock: BETDAH_clean_linker_0, # of connection points: 3
#     Node 5, Type 1, BuildingBlock: BETDAH_clean_linker_0, # of connection points: 3
#     Node 6, Type 1, BuildingBlock: BETDAH_clean_linker_0, # of connection points: 3
#     Node 7, Type 1, BuildingBlock: BETDAH_clean_linker_0, # of connection points: 3
#     Node 8, Type 1, BuildingBlock: BETDAH_clean_linker_0, # of connection points: 3
#     Edge 9, Type (0, 1), BuildingBlock: UVAHIK_clean_linker_0, # of connection points: 2
#     Edge 10, Type (0, 1), BuildingBlock: UVAHIK_clean_linker_0, # of connection points: 2
#     Edge 11, Type (0, 1), BuildingBlock: UVAHIK_clean_linker_0, # of connection points: 2
#     Edge 12, Type (0, 1), BuildingBlock: UVAHIK_clean_linker_0, # of connection points: 2
#     Edge 13, Type (0, 1), BuildingBlock: UVAHIK_clean_linker_0, # of connection points: 2
#     Edge 14, Type (0, 1), BuildingBlock: UVAHIK_clean_linker_0, # of connection points: 2
#     Edge 15, Type (0, 1), BuildingBlock: UVAHIK_clean_linker_0, # of connection points: 2
#     Edge 16, Type (0, 1), BuildingBlock: UVAHIK_clean_linker_0, # of connection points: 2
#     Edge 17, Type (0, 1), BuildingBlock: UVAHIK_clean_linker_0, # of connection points: 2
#     Edge 18, Type (0, 1), BuildingBlock: UVAHIK_clean_linker_0, # of connection points: 2
#     Edge 19, Type (0, 1), BuildingBlock: UVAHIK_clean_linker_0, # of connection points: 2
#     Edge 20, Type (0, 1), BuildingBlock: UVAHIK_clean_linker_0, # of connection points: 2
#     Edge 21, Type (0, 1), BuildingBlock: UVAHIK_clean_linker_0, # of connection points: 2
#     Edge 22, Type (0, 1), BuildingBlock: UVAHIK_clean_linker_0, # of connection points: 2
#     Edge 23, Type (0, 1), BuildingBlock: UVAHIK_clean_linker_0, # of connection points: 2
#     Edge 24, Type (0, 1), BuildingBlock: UVAHIK_clean_linker_0, # of connection points: 2
#     Edge 25, Type (0, 1), BuildingBlock: UVAHIK_clean_linker_0, # of connection points: 2
#     Edge 26, Type (0, 1), BuildingBlock: UVAHIK_clean_linker_0, # of connection points: 2
# Relax obj value: 0.068
# Max RMSD: 0.140
# Mean RMSD: 0.087
data_MOF--net-anh--node1-CUKXOW_clean_sbu_0--node2-BETDAH_clean_linker_0--edge1-UVAHIK_clean_linker_0
_symmetry_space_group_name_H-M    P1
_symmetry_Int_Tables_number       1
_symmetry_cell_setting            triclinic
loop_
_symmetry_equiv_pos_as_xyz
'x, y, z'
_cell_length_a     38.138064
_cell_length_b     37.441594
_cell_length_c     62.616475
_cell_angle_alpha  98.290719
_cell_angle_beta   92.369772
_cell_angle_gamma 115.29317
loop_
_atom_site_label
_atom_site_type_symbol
_atom_site_fract_x
_atom_site_fract_y
_atom_site_fract_z
_atom_type_partial_charge
Tb0 Tb 0.07536 0.54021 0.1541 0.0
C1 C 0.04625 0.50852 0.1964 0.0
Tb2 Tb 0.019 0.45284 0.1496 0.0
O3 O 0.03061 0.55854 0.16488 0.0
O4 O 0.01483 0.50505 0.14318 0.0
O5 O 0.07441 0.53688 0.1884 0.0
C6 C 0.95315 0.38684 0.1497 0.0
O7 O 0.01958 0.47547 0.18389 0.0
C8 C 0.09246 0.46611 0.14887 0.0
C9 C 0.04984 0.48376 0.10741 0.0
O10 O 0.98716 0.39389 0.15895 0.0
O11 O 0.95663 0.41645 0.14015 0.0
O12 O 0.06298 0.43302 0.13935 0.0
O13 O 0.07962 0.48783 0.16019 0.0
O14 O 0.02204 0.455 0.11538 0.0
O15 O 0.07529 0.51792 0.11974 0.0
C16 C 0.13773 0.60995 0.15501 0.0
O17 O 0.10231 0.6019 0.14778 0.0
O18 O 0.13792 0.57882 0.16163 0.0
C19 C 1.00149 0.52614 0.15456 0.0
Tb20 Tb 0.54731 0.0362 0.50719 0.0
C21 C 0.58125 0.06614 0.46541 0.0
Tb22 Tb 0.63115 0.1021 0.51206 0.0
O23 O 0.52518 0.07751 0.4976 0.0
O24 O 0.57622 0.09887 0.5189 0.0
O25 O 0.55556 0.03522 0.47307 0.0
C26 C 0.69307 0.17151 0.51153 0.0
O27 O 0.60992 0.09736 0.47816 0.0
C28 C 0.62435 0.02928 0.51099 0.0
C29 C 0.5978 0.07063 0.55382 0.0
O30 O 0.68955 0.13632 0.50285 0.0
O31 O 0.66215 0.16741 0.52079 0.0
O32 O 0.65436 0.06125 0.52107 0.0
O33 O 0.60233 0.03954 0.50049 0.0
O34 O 0.6243 0.10115 0.5462 0.0
O35 O 0.56792 0.04047 0.54113 0.0
C36 C 0.48164 0.96962 0.50655 0.0
O37 O 0.48683 0.00582 0.51417 0.0
O38 O 0.51344 0.97087 0.49931 0.0
C39 C 0.55457 0.1093 0.50823 0.0
Tb40 Tb 0.54322 0.5911 0.83341 0.0
C41 C 0.5803 0.59142 0.87868 0.0
Tb42 Tb 0.6272 0.60243 0.83722 0.0
O43 O 0.52285 0.5302 0.84023 0.0
O44 O 0.57232 0.55492 0.82434 0.0
O45 O 0.55355 0.59892 0.86855 0.0
C46 C 0.69062 0.58967 0.84009 0.0
O47 O 0.60913 0.58765 0.86886 0.0
C48 C 0.61947 0.66882 0.83813 0.0
C49 C 0.59067 0.60604 0.79261 0.0
O50 O 0.68813 0.62125 0.85013 0.0
O51 O 0.65761 0.56566 0.82875 0.0
O52 O 0.64926 0.66412 0.83138 0.0
O53 O 0.59818 0.63874 0.84608 0.0
O54 O 0.61689 0.59741 0.80233 0.0
O55 O 0.56259 0.61049 0.80284 0.0
C56 C 0.47348 0.58934 0.82478 0.0
O57 O 0.48713 0.56717 0.81369 0.0
O58 O 0.49934 0.61309 0.84088 0.0
C59 C 0.55182 0.52515 0.8327 0.0
H60 H 0.47586 0.981 0.23792 0.0
H61 H 0.56303 0.09452 0.22702 0.0
H62 H 0.47209 0.01641 0.17599 0.0
C63 C 0.48862 0.00242 0.22724 0.0
C64 C 0.47067 0.99393 0.20595 0.0
C65 C 0.5219 0.03859 0.2351 0.0
C66 C 0.53728 0.0666 0.22121 0.0
C67 C 0.51909 0.05853 0.19986 0.0
C68 C 0.48563 0.02256 0.19251 0.0
N69 N 0.53351 0.08582 0.18529 0.0
C70 C 0.57192 0.11466 0.18708 0.0
H71 H 0.59273 0.51247 0.56975 0.0
H72 H 0.58296 0.61457 0.5518 0.0
H73 H 0.57457 0.51778 0.50224 0.0
C74 C 0.58951 0.5284 0.55723 0.0
C75 C 0.58433 0.51062 0.53529 0.0
C76 C 0.58908 0.56579 0.56331 0.0
C77 C 0.58322 0.58569 0.54713 0.0
C78 C 0.57805 0.56839 0.52502 0.0
C79 C 0.57838 0.53085 0.51928 0.0
N80 N 0.5725 0.58776 0.50813 0.0
C81 C 0.57451 0.62621 0.51134 0.0
H82 H 0.99335 0.47297 0.88686 0.0
H83 H 0.04842 0.39829 0.8633 0.0
H84 H 0.97858 0.4252 0.81857 0.0
C85 C 0.99965 0.45568 0.87344 0.0
C86 C 0.98343 0.4519 0.85224 0.0
C87 C 0.02272 0.43612 0.87765 0.0
C88 C 0.03004 0.41295 0.86033 0.0
C89 C 0.01396 0.40903 0.83904 0.0
C90 C 0.9902 0.42785 0.83511 0.0
N91 N 0.024 0.38886 0.82127 0.0
C92 C 0.0629 0.40252 0.81788 0.0
H93 H 0.1155 0.62696 0.42454 0.0
H94 H 0.99643 0.55774 0.43536 0.0
H95 H 0.07848 0.64513 0.48749 0.0
C96 C 0.09306 0.61888 0.43543 0.0
C97 C 0.10187 0.63913 0.45704 0.0
C98 C 0.05507 0.58979 0.4274 0.0
C99 C 0.02581 0.58019 0.44143 0.0
C100 C 0.03444 0.60015 0.46318 0.0
C101 C 0.07215 0.62994 0.47071 0.0
N102 N 1.00579 0.59132 0.47784 0.0
C103 C 0.97485 0.55361 0.4764 0.0
H104 H 0.59602 0.16236 0.7776 0.0
H105 H 0.59257 0.05358 0.79425 0.0
H106 H 0.57636 0.13852 0.84224 0.0
C107 C 0.59288 0.14315 0.78952 0.0
C108 C 0.58571 0.1547 0.81054 0.0
C109 C 0.59567 0.10696 0.7836 0.0
C110 C 0.59073 0.08169 0.79891 0.0
C111 C 0.58408 0.09326 0.82024 0.0
C112 C 0.58193 0.12988 0.82592 0.0
N113 N 0.57911 0.06889 0.83635 0.0
C114 C 0.57982 0.03168 0.83297 0.0
H115 H 0.62701 0.51425 0.09262 0.0
H116 H 0.51726 0.51342 0.10683 0.0
H117 H 0.59212 0.50302 0.15662 0.0
C118 C 0.60561 0.51175 0.1039 0.0
C119 C 0.61362 0.50744 0.12521 0.0
C120 C 0.57111 0.514 0.09707 0.0
C121 C 0.54411 0.51223 0.11204 0.0
C122 C 0.55148 0.50833 0.1336 0.0
C123 C 0.58649 0.5063 0.14009 0.0
N124 N 0.52437 0.50603 0.14907 0.0
C125 C 0.488 0.50623 0.14509 0.0
C126 C 0.16457 0.50527 0.1626 0.0
C127 C 0.13419 0.47382 0.14827 0.0
C128 C 0.20356 0.51125 0.1619 0.0
C129 C 0.26868 0.48404 0.12626 0.0
H130 H 0.33728 0.51514 0.17985 0.0
C131 C 0.41833 0.47635 0.12928 0.0
C132 C 0.44952 0.50589 0.14389 0.0
C133 C 0.38065 0.47439 0.12937 0.0
C134 C 0.3188 0.50695 0.16465 0.0
H135 H 0.12116 0.42398 0.122 0.0
H136 H 0.1884 0.43386 0.12093 0.0
H137 H 0.27106 0.50878 0.18097 0.0
H138 H 0.46604 0.5567 0.16993 0.0
H139 H 0.40069 0.55388 0.16997 0.0
H140 H 0.3163 0.48194 0.10995 0.0
C141 C 0.18259 0.45453 0.13252 0.0
C142 C 0.2806 0.50331 0.16531 0.0
C143 C 0.14379 0.44861 0.13324 0.0
C144 C 0.44249 0.5337 0.15842 0.0
C145 C 0.40487 0.53178 0.15856 0.0
C146 C 0.30684 0.48765 0.12561 0.0
C147 C 0.21324 0.48591 0.14683 0.0
C148 C 0.25474 0.4915 0.14613 0.0
C149 C 0.37317 0.50188 0.14415 0.0
C150 C 0.33254 0.49895 0.1448 0.0
H151 H 0.15819 0.52494 0.17456 0.0
H152 H 0.22615 0.53596 0.17309 0.0
H153 H 0.25016 0.47566 0.11106 0.0
H154 H 0.42291 0.45428 0.11804 0.0
H155 H 0.35716 0.4506 0.11819 0.0
C156 C 0.72256 0.24611 0.51737 0.0
C157 C 0.72433 0.21025 0.50878 0.0
C158 C 0.74996 0.28277 0.51314 0.0
C159 C 0.84752 0.33292 0.49519 0.0
H160 H 0.80937 0.40838 0.48081 0.0
C161 C 0.94779 0.48006 0.46736 0.0
C162 C 0.94439 0.51442 0.47696 0.0
C163 C 0.9201 0.44202 0.46975 0.0
C164 C 0.82052 0.38777 0.48495 0.0
H165 H 0.75638 0.18437 0.48948 0.0
H166 H 0.80443 0.24857 0.48201 0.0
H167 H 0.76362 0.34388 0.48874 0.0
H168 H 0.91007 0.53703 0.49625 0.0
H169 H 0.86155 0.47061 0.50058 0.0
H170 H 0.90449 0.37698 0.49155 0.0
C171 C 0.78205 0.24842 0.49214 0.0
C172 C 0.79434 0.35085 0.48954 0.0
C173 C 0.75455 0.21169 0.49637 0.0
C174 C 0.9128 0.51062 0.48857 0.0
C175 C 0.88508 0.47265 0.49096 0.0
C176 C 0.87374 0.36989 0.49061 0.0
C177 C 0.7797 0.2843 0.50022 0.0
C178 C 0.80757 0.32314 0.49489 0.0
C179 C 0.88868 0.43793 0.48182 0.0
C180 C 0.86057 0.39785 0.4856 0.0
H181 H 0.69951 0.2458 0.527 0.0
H182 H 0.74776 0.30993 0.51992 0.0
H183 H 0.85868 0.31239 0.49946 0.0
H184 H 0.97223 0.48267 0.45839 0.0
H185 H 0.92342 0.41586 0.46229 0.0
C186 C 0.63662 0.73388 0.82565 0.0
C187 C 0.61223 0.70412 0.83664 0.0
C188 C 0.63033 0.7676 0.82418 0.0
C189 C 0.58437 0.82844 0.85081 0.0
H190 H 0.59836 0.87242 0.79767 0.0
C191 C 0.55289 0.96336 0.84118 0.0
C192 C 0.58011 0.993 0.83129 0.0
C193 C 0.55437 0.9266 0.8408 0.0
C194 C 0.59467 0.86072 0.81269 0.0
H195 H 0.5621 0.68606 0.8547 0.0
H196 H 0.5507 0.74491 0.85198 0.0
H197 H 0.60498 0.81076 0.79899 0.0
H198 H 0.62989 0.00821 0.81307 0.0
H199 H 0.63289 0.94395 0.81245 0.0
H200 H 0.57444 0.87856 0.8646 0.0
C201 C 0.57495 0.74237 0.84464 0.0
C202 C 0.59845 0.82536 0.81345 0.0
C203 C 0.58125 0.70855 0.84608 0.0
C204 C 0.60851 0.98546 0.8207 0.0
C205 C 0.61005 0.94866 0.82029 0.0
C206 C 0.58059 0.86379 0.85006 0.0
C207 C 0.59949 0.77236 0.8337 0.0
C208 C 0.59364 0.80894 0.83257 0.0
C209 C 0.58321 0.91891 0.83053 0.0
C210 C 0.58595 0.88053 0.83104 0.0
H211 H 0.66074 0.7312 0.81821 0.0
H212 H 0.65013 0.79034 0.81591 0.0
H213 H 0.58106 0.81698 0.8659 0.0
H214 H 0.53074 0.96879 0.84943 0.0
H215 H 0.53294 0.9042 0.84857 0.0
C216 C 0.9489 0.54453 0.16754 0.0
C217 C 0.96006 0.51999 0.153 0.0
C218 C 0.91052 0.54053 0.16574 0.0
C219 C 0.82188 0.5028 0.12596 0.0
H220 H 0.77074 0.51488 0.1769 0.0
C221 C 0.66139 0.47858 0.11713 0.0
C222 C 0.65046 0.504 0.13119 0.0
C223 C 0.69777 0.47836 0.1209 0.0
C224 C 0.78463 0.51187 0.16246 0.0
H225 H 0.93931 0.47183 0.12512 0.0
H226 H 0.87223 0.46446 0.12204 0.0
H227 H 0.83606 0.51816 0.18117 0.0
H228 H 0.6692 0.5483 0.16075 0.0
H229 H 0.73309 0.54842 0.1673 0.0
H230 H 0.77105 0.49725 0.10722 0.0
C231 C 0.89324 0.48709 0.13482 0.0
C232 C 0.82224 0.51369 0.16493 0.0
C233 C 0.93167 0.49099 0.13671 0.0
C234 C 0.67651 0.52815 0.14967 0.0
C235 C 0.71324 0.52818 0.15339 0.0
C236 C 0.78444 0.50118 0.1235 0.0
C237 C 0.88209 0.51201 0.14923 0.0
C238 C 0.84149 0.50916 0.1467 0.0
C239 C 0.7248 0.50382 0.1388 0.0
C240 C 0.76503 0.50559 0.14169 0.0
H241 H 0.97004 0.56722 0.18027 0.0
H242 H 0.90342 0.56061 0.177 0.0
H243 H 0.83584 0.49997 0.11152 0.0
H244 H 0.64186 0.45911 0.1029 0.0
H245 H 0.70474 0.45825 0.10959 0.0
C246 C 0.44182 0.89574 0.49523 0.0
C247 C 0.44465 0.93322 0.50491 0.0
C248 C 0.40599 0.86165 0.49228 0.0
C249 C 0.30683 0.82132 0.50975 0.0
H250 H 0.27787 0.7531 0.45296 0.0
C251 C 0.1481 0.70713 0.47775 0.0
C252 C 0.14198 0.67035 0.4651 0.0
C253 C 0.18594 0.73727 0.48435 0.0
C254 C 0.28569 0.77143 0.46902 0.0
H255 H 0.41289 0.96455 0.51969 0.0
H256 H 0.35018 0.9051 0.5144 0.0
H257 H 0.34263 0.80898 0.46163 0.0
H258 H 0.17065 0.63564 0.45022 0.0
H259 H 0.23672 0.68817 0.46183 0.0
H260 H 0.24956 0.78399 0.517 0.0
C261 C 0.3756 0.90186 0.50926 0.0
C262 C 0.32284 0.80347 0.47399 0.0
C263 C 0.41142 0.93593 0.51218 0.0
C264 C 0.17447 0.66395 0.45965 0.0
C265 C 0.21228 0.69403 0.46629 0.0
C266 C 0.26963 0.7892 0.50479 0.0
C267 C 0.37237 0.86445 0.499 0.0
C268 C 0.33372 0.82899 0.49434 0.0
C269 C 0.21845 0.73121 0.47849 0.0
C270 C 0.25855 0.76411 0.48429 0.0
H271 H 0.46714 0.89289 0.48958 0.0
H272 H 0.40453 0.83314 0.48459 0.0
H273 H 0.31454 0.84016 0.52567 0.0
H274 H 0.12362 0.71308 0.48199 0.0
H275 H 0.18968 0.76576 0.49349 0.0
C276 C 0.53661 0.46093 0.84574 0.0
C277 C 0.5578 0.48874 0.83281 0.0
C278 C 0.54084 0.42561 0.84551 0.0
C279 C 0.60574 0.37787 0.83229 0.0
H280 H 0.5106 0.27843 0.82456 0.0
C281 C 0.60381 0.22196 0.83381 0.0
C282 C 0.58127 0.1923 0.81592 0.0
C283 C 0.6014 0.25861 0.83772 0.0
C284 C 0.5374 0.30597 0.8268 0.0
H285 H 0.59946 0.50117 0.8092 0.0
H286 H 0.60777 0.43984 0.80922 0.0
H287 H 0.50667 0.34237 0.82779 0.0
H288 H 0.53773 0.17693 0.78854 0.0
H289 H 0.53296 0.24049 0.79557 0.0
H290 H 0.6364 0.3412 0.83106 0.0
C291 C 0.5882 0.44562 0.81972 0.0
C292 C 0.53518 0.34256 0.82878 0.0
C293 C 0.58361 0.48079 0.81977 0.0
C294 C 0.55553 0.19941 0.8024 0.0
C295 C 0.55267 0.23565 0.80648 0.0
C296 C 0.60798 0.34121 0.83059 0.0
C297 C 0.56652 0.41746 0.83241 0.0
C298 C 0.56929 0.37888 0.8313 0.0
C299 C 0.57586 0.26581 0.82403 0.0
C300 C 0.57379 0.30488 0.82755 0.0
H301 H 0.51655 0.46636 0.85598 0.0
H302 H 0.524 0.40463 0.85559 0.0
H303 H 0.6325 0.40542 0.83437 0.0
H304 H 0.62401 0.21721 0.8444 0.0
H305 H 0.61944 0.2813 0.85143 0.0
C306 C 0.58955 0.95543 0.49642 0.0
C307 C 0.61769 0.98751 0.51145 0.0
C308 C 0.58327 0.91592 0.49697 0.0
C309 C 0.59996 0.85223 0.5327 0.0
H310 H 0.58351 0.77982 0.47837 0.0
C311 C 0.60354 0.69793 0.52835 0.0
C312 C 0.57667 0.66596 0.51282 0.0
C313 C 0.60705 0.73686 0.52882 0.0
C314 C 0.58755 0.79944 0.4937 0.0
H315 H 0.6616 0.00365 0.53873 0.0
H316 H 0.65119 0.93481 0.53954 0.0
H317 H 0.59242 0.84807 0.47786 0.0
H318 H 0.532 0.64866 0.48587 0.0
H319 H 0.53762 0.71648 0.48676 0.0
H320 H 0.59534 0.80357 0.54852 0.0
C321 C 0.6334 0.93994 0.52754 0.0
C322 C 0.59266 0.83865 0.49341 0.0
C323 C 0.63963 0.97943 0.52697 0.0
C324 C 0.55294 0.67307 0.49798 0.0
C325 C 0.55641 0.71192 0.49842 0.0
C326 C 0.59487 0.81299 0.533 0.0
C327 C 0.60515 0.90764 0.51253 0.0
C328 C 0.59903 0.86562 0.5129 0.0
C329 C 0.58378 0.74443 0.51371 0.0
C330 C 0.58865 0.78609 0.5135 0.0
H331 H 0.57267 0.96089 0.48405 0.0
H332 H 0.56105 0.89183 0.48528 0.0
H333 H 0.6042 0.87196 0.54802 0.0
H334 H 0.62224 0.69293 0.53987 0.0
H335 H 0.6287 0.76118 0.54066 0.0
C336 C 0.72315 0.54652 0.82844 0.0
C337 C 0.72534 0.5821 0.84058 0.0
C338 C 0.75576 0.53881 0.82836 0.0
C339 C 0.8476 0.56297 0.86042 0.0
H340 H 0.86785 0.51154 0.80715 0.0
C341 C 0.97067 0.51265 0.85892 0.0
C342 C 0.95936 0.47305 0.8482 0.0
C343 C 0.94664 0.53162 0.85643 0.0
C344 C 0.86251 0.52584 0.82215 0.0
H345 H 0.76304 0.63765 0.86214 0.0
H346 H 0.82057 0.62411 0.86206 0.0
H347 H 0.81735 0.53512 0.80603 0.0
H348 H 0.91457 0.4227 0.82601 0.0
H349 H 0.87254 0.45582 0.82164 0.0
H350 H 0.89203 0.55272 0.87662 0.0
C351 C 0.79349 0.60217 0.85267 0.0
C352 C 0.83365 0.53933 0.82152 0.0
C353 C 0.76071 0.60995 0.8527 0.0
C354 C 0.92421 0.45334 0.83432 0.0
C355 C 0.9002 0.47235 0.8318 0.0
C356 C 0.87651 0.54949 0.86105 0.0
C357 C 0.79129 0.56654 0.84042 0.0
C358 C 0.82524 0.5571 0.84072 0.0
C359 C 0.91088 0.51144 0.8431 0.0
C360 C 0.88359 0.52994 0.84199 0.0
H361 H 0.69612 0.52446 0.81902 0.0
H362 H 0.75292 0.51073 0.81913 0.0
H363 H 0.84153 0.57623 0.8755 0.0
H364 H 0.998 0.52887 0.8694 0.0
H365 H 0.95587 0.56197 0.86508 0.0
C366 C 0.20837 0.65381 0.16598 0.0
C367 C 0.17199 0.64899 0.157 0.0
C368 C 0.24049 0.69137 0.16947 0.0
C369 C 0.28013 0.79165 0.15443 0.0
H370 H 0.34209 0.82321 0.21051 0.0
C371 C 0.40315 0.95233 0.18638 0.0
C372 C 0.43674 0.95472 0.19788 0.0
C373 C 0.37048 0.91528 0.18002 0.0
C374 C 0.3254 0.81471 0.19467 0.0
H375 H 0.14064 0.67901 0.14396 0.0
H376 H 0.19703 0.7451 0.15016 0.0
H377 H 0.28592 0.75795 0.20164 0.0
H378 H 0.46335 0.92018 0.21069 0.0
H379 H 0.40671 0.8557 0.19946 0.0
H380 H 0.31993 0.84864 0.14751 0.0
C381 C 0.20071 0.71976 0.15439 0.0
C382 C 0.2932 0.77731 0.1896 0.0
C383 C 0.16846 0.68207 0.15093 0.0
C384 C 0.43755 0.91932 0.20225 0.0
C385 C 0.40508 0.88242 0.19584 0.0
C386 C 0.31255 0.82919 0.1595 0.0
C387 C 0.23687 0.72488 0.16406 0.0
C388 C 0.27044 0.76518 0.16937 0.0
C389 C 0.37094 0.88002 0.185 0.0
C390 C 0.33575 0.8409 0.17961 0.0
H391 H 0.21189 0.62867 0.17067 0.0
H392 H 0.26816 0.69426 0.1766 0.0
H393 H 0.26317 0.78299 0.13867 0.0
H394 H 0.40172 0.97922 0.1829 0.0
H395 H 0.3445 0.91441 0.17179 0.0
C396 C 0.53639 0.15981 0.49506 0.0
C397 C 0.55941 0.15091 0.50951 0.0
C398 C 0.54033 0.19906 0.49656 0.0
C399 C 0.57699 0.29551 0.5354 0.0
H400 H 0.56869 0.33941 0.48401 0.0
C401 C 0.61151 0.46191 0.54107 0.0
C402 C 0.58463 0.47071 0.52951 0.0
C403 C 0.60966 0.42343 0.53731 0.0
C404 C 0.57079 0.32744 0.49851 0.0
H405 H 0.60406 0.17582 0.53708 0.0
H406 H 0.61217 0.24446 0.53923 0.0
H407 H 0.56338 0.2713 0.48011 0.0
H408 H 0.5356 0.4461 0.50431 0.0
H409 H 0.53261 0.37877 0.49759 0.0
H410 H 0.58462 0.35161 0.55379 0.0
C411 C 0.59065 0.22121 0.52688 0.0
C412 C 0.56767 0.28837 0.49629 0.0
C413 C 0.58648 0.18194 0.52545 0.0
C414 C 0.5569 0.44043 0.51339 0.0
C415 C 0.55515 0.40184 0.50957 0.0
C416 C 0.58033 0.33454 0.5376 0.0
C417 C 0.56742 0.23029 0.51257 0.0
C418 C 0.57081 0.27191 0.51473 0.0
C419 C 0.58102 0.39271 0.52182 0.0
C420 C 0.57738 0.35105 0.5192 0.0
H421 H 0.51514 0.13636 0.48266 0.0
H422 H 0.52155 0.20472 0.48546 0.0
H423 H 0.57866 0.28365 0.55 0.0
H424 H 0.63381 0.48474 0.55325 0.0
H425 H 0.63058 0.41765 0.54669 0.0
C426 C 0.41653 0.59927 0.83757 0.0
C427 C 0.43265 0.58273 0.82154 0.0
C428 C 0.37616 0.58677 0.83604 0.0
C429 C 0.28382 0.52895 0.79884 0.0
H430 H 0.23955 0.49777 0.85165 0.0
C431 C 0.13037 0.41424 0.82784 0.0
C432 C 0.10386 0.42279 0.81603 0.0
C433 C 0.17046 0.43719 0.82793 0.0
C434 C 0.25148 0.50613 0.83675 0.0
H435 H 0.42012 0.54254 0.79068 0.0
H436 H 0.35002 0.5206 0.78804 0.0
H437 H 0.30994 0.53525 0.85253 0.0
H438 H 0.09713 0.46123 0.79516 0.0
H439 H 0.16733 0.50165 0.79529 0.0
H440 H 0.22544 0.49823 0.78287 0.0
C441 C 0.36816 0.54328 0.80173 0.0
C442 C 0.29177 0.52822 0.83733 0.0
C443 C 0.40833 0.55567 0.80329 0.0
C444 C 0.11746 0.45398 0.8041 0.0
C445 C 0.1575 0.47701 0.80419 0.0
C446 C 0.24351 0.50679 0.79826 0.0
C447 C 0.35147 0.55771 0.81841 0.0
C448 C 0.30845 0.53925 0.8183 0.0
C449 C 0.18446 0.46917 0.81633 0.0
C450 C 0.22699 0.49452 0.81713 0.0
H451 H 0.4348 0.62026 0.85178 0.0
H452 H 0.36415 0.59882 0.84899 0.0
H453 H 0.29579 0.53731 0.78395 0.0
H454 H 0.12013 0.3904 0.83731 0.0
H455 H 0.19048 0.43 0.83716 0.0
C456 C 0.88084 0.35286 0.14294 0.0
C457 C 0.91545 0.35442 0.15256 0.0
C458 C 0.8447 0.32582 0.14769 0.0
C459 C 0.79367 0.23307 0.16944 0.0
H460 H 0.71958 0.277 0.18158 0.0
C461 C 0.64274 0.14005 0.19673 0.0
C462 C 0.61138 0.14358 0.18643 0.0
C463 C 0.68112 0.16635 0.19444 0.0
C464 C 0.7398 0.26417 0.17808 0.0
H465 H 0.93968 0.32809 0.17404 0.0
H466 H 0.87609 0.28035 0.18236 0.0
H467 H 0.78417 0.32022 0.17305 0.0
H468 H 0.5944 0.17655 0.16588 0.0
H469 H 0.66125 0.22243 0.16168 0.0
H470 H 0.74893 0.17678 0.17415 0.0
C471 C 0.87701 0.30006 0.1711 0.0
C472 C 0.77679 0.28892 0.17318 0.0
C473 C 0.91333 0.32731 0.16635 0.0
C474 C 0.61844 0.17379 0.17412 0.0
C475 C 0.65667 0.20005 0.17181 0.0
C476 C 0.7565 0.20819 0.17429 0.0
C477 C 0.84239 0.29974 0.16219 0.0
C478 C 0.80392 0.27353 0.16847 0.0
C479 C 0.68848 0.19646 0.18179 0.0
C480 C 0.72896 0.22336 0.17835 0.0
H481 H 0.88166 0.37339 0.1322 0.0
H482 H 0.8185 0.32572 0.14024 0.0
H483 H 0.81394 0.22037 0.1658 0.0
H484 H 0.63758 0.11661 0.20622 0.0
H485 H 0.70497 0.16307 0.2025 0.0
C486 C 0.03534 0.438 0.07164 0.0
C487 C 0.05297 0.47706 0.08388 0.0
C488 C 0.03798 0.43143 0.04938 0.0
C489 C 0.09122 0.48049 0.00515 0.0
H490 H 0.99817 0.40066 0.96869 0.0
C491 C 0.05588 0.47673 0.91411 0.0
C492 C 0.03762 0.43913 0.90033 0.0
C493 C 0.06431 0.47932 0.93633 0.0
C494 C 0.02463 0.42256 0.97866 0.0
H495 H 0.0875 0.5399 0.08244 0.0
H496 H 0.09086 0.52867 0.04343 0.0
H497 H 0.99904 0.40954 0.00794 0.0
H498 H 0.01563 0.37494 0.89866 0.0
H499 H 0.03009 0.37941 0.93771 0.0
H500 H 0.11589 0.49465 0.97555 0.0
C501 C 0.07585 0.50291 0.05108 0.0
C502 C 0.0252 0.42768 0.00121 0.0
C503 C 0.07366 0.50942 0.07344 0.0
C504 C 0.02986 0.40427 0.90896 0.0
C505 C 0.03786 0.40682 0.93126 0.0
C506 C 0.09046 0.47566 0.98254 0.0
C507 C 0.05782 0.46383 0.03874 0.0
C508 C 0.05834 0.45699 0.01476 0.0
C509 C 0.05423 0.44432 0.94522 0.0
C510 C 0.057 0.44689 0.9691 0.0
H511 H 0.0197 0.41235 0.07928 0.0
H512 H 0.02445 0.40086 0.04053 0.0
H513 H 0.1175 0.50283 0.01506 0.0
H514 H 0.06233 0.50405 0.90777 0.0
H515 H 0.07671 0.50859 0.94672 0.0
C516 C 0.59447 0.1017 0.4336 0.0
C517 C 0.57821 0.06571 0.44177 0.0
C518 C 0.59136 0.10123 0.41121 0.0
C519 C 0.53531 0.03462 0.35922 0.0
H520 H 0.61837 0.11213 0.33316 0.0
C521 C 0.54054 0.01556 0.2675 0.0
C522 C 0.53895 0.04684 0.25808 0.0
C523 C 0.54965 0.02068 0.28985 0.0
C524 C 0.59498 0.09047 0.34031 0.0
H525 H 0.54684 0.00097 0.43296 0.0
H526 H 0.54281 0.99985 0.39403 0.0
H527 H 0.62495 0.11464 0.37247 0.0
H528 H 0.54877 0.10909 0.26463 0.0
H529 H 0.56598 0.11834 0.30388 0.0
H530 H 0.5061 0.00971 0.32694 0.0
C531 C 0.55674 0.02868 0.40478 0.0
C532 C 0.59853 0.09196 0.36282 0.0
C533 C 0.55923 0.02923 0.42715 0.0
C534 C 0.54984 0.08445 0.27136 0.0
C535 C 0.55953 0.08973 0.2938 0.0
C536 C 0.53215 0.03272 0.33678 0.0
C537 C 0.57245 0.06468 0.39647 0.0
C538 C 0.56876 0.06389 0.37257 0.0
C539 C 0.55811 0.05741 0.30326 0.0
C540 C 0.56198 0.06047 0.32712 0.0
H541 H 0.60906 0.13034 0.44451 0.0
H542 H 0.60326 0.12961 0.40553 0.0
H543 H 0.51125 0.0132 0.36607 0.0
H544 H 0.53331 0.98653 0.25766 0.0
H545 H 0.549 0.99553 0.29678 0.0
C546 C 0.62189 0.60584 0.75817 0.0
C547 C 0.59276 0.61076 0.76953 0.0
C548 C 0.62318 0.60894 0.73623 0.0
C549 C 0.56059 0.59924 0.68738 0.0
H550 H 0.65935 0.64655 0.6637 0.0
C551 C 0.56758 0.59687 0.59527 0.0
C552 C 0.59387 0.58296 0.58672 0.0
C553 C 0.56919 0.60801 0.61775 0.0
C554 C 0.63154 0.6332 0.67007 0.0
H555 H 0.5426 0.6237 0.76675 0.0
H556 H 0.54505 0.62931 0.72846 0.0
H557 H 0.65854 0.65105 0.70293 0.0
H558 H 0.64388 0.57215 0.59478 0.0
H559 H 0.6466 0.59128 0.63387 0.0
H560 H 0.53366 0.58053 0.65449 0.0
C561 C 0.56662 0.6226 0.73651 0.0
C562 C 0.63108 0.6357 0.69253 0.0
C563 C 0.56534 0.61953 0.75849 0.0
C564 C 0.62301 0.5824 0.60095 0.0
C565 C 0.62477 0.59371 0.62334 0.0
C566 C 0.56106 0.59678 0.66491 0.0
C567 C 0.59541 0.61707 0.72508 0.0
C568 C 0.59566 0.61801 0.70142 0.0
C569 C 0.59735 0.60579 0.63205 0.0
C570 C 0.5966 0.61299 0.65597 0.0
H571 H 0.64348 0.59903 0.76612 0.0
H572 H 0.6454 0.60391 0.72785 0.0
H573 H 0.53284 0.5849 0.69365 0.0
H574 H 0.54474 0.59747 0.58467 0.0
H575 H 0.54791 0.61759 0.62397 0.0
C576 C 0.6324 0.10183 0.59142 0.0
C577 C 0.60135 0.07046 0.57746 0.0
C578 C 0.63502 0.10254 0.6138 0.0
C579 C 0.59953 0.04014 0.65621 0.0
H580 H 0.62452 0.14271 0.69262 0.0
C581 C 0.5765 0.06039 0.74766 0.0
C582 C 0.603 0.09609 0.76114 0.0
C583 C 0.57965 0.05402 0.72536 0.0
C584 C 0.61818 0.11394 0.68276 0.0
H585 H 0.54922 0.0146 0.57612 0.0
H586 H 0.55364 0.0162 0.61524 0.0
H587 H 0.62336 0.13804 0.65352 0.0
H588 H 0.65524 0.15151 0.76248 0.0
H589 H 0.6615 0.14002 0.72381 0.0
H590 H 0.59388 0.01605 0.68564 0.0
C591 C 0.57614 0.04004 0.60881 0.0
C592 C 0.61745 0.11127 0.6603 0.0
C593 C 0.57348 0.03931 0.58638 0.0
C594 C 0.6342 0.12395 0.75232 0.0
C595 C 0.63757 0.11747 0.73017 0.0
C596 C 0.60032 0.04283 0.67879 0.0
C597 C 0.60668 0.07194 0.62279 0.0
C598 C 0.60813 0.07439 0.64673 0.0
C599 C 0.60951 0.08319 0.71627 0.0
C600 C 0.60972 0.07983 0.69232 0.0
H601 H 0.65458 0.12615 0.58513 0.0
H602 H 0.65927 0.12722 0.62409 0.0
H603 H 0.59253 0.01134 0.64618 0.0
H604 H 0.55208 0.03861 0.75412 0.0
H605 H 0.55748 0.02736 0.71511 0.0
C606 C 0.55394 0.59799 0.91443 0.0
C607 C 0.57676 0.58476 0.9014 0.0
C608 C 0.54955 0.59011 0.93561 0.0
C609 C 0.55156 0.51919 0.96951 0.0
H610 H 0.57262 0.60416 0.01866 0.0
C611 C 0.57467 0.49785 0.05712 0.0
C612 C 0.56402 0.51852 0.07423 0.0
C613 C 0.57163 0.5046 0.03593 0.0
C614 C 0.56582 0.57985 0.00512 0.0
H615 H 0.61269 0.55273 0.90037 0.0
H616 H 0.60448 0.5385 0.93712 0.0
H617 H 0.57639 0.61926 0.98192 0.0
H618 H 0.54029 0.56145 0.0822 0.0
H619 H 0.53349 0.57212 0.04498 0.0
H620 H 0.54042 0.47954 0.99239 0.0
C621 C 0.59018 0.55513 0.93099 0.0
C622 C 0.5682 0.58863 0.98408 0.0
C623 C 0.59511 0.56358 0.91 0.0
C624 C 0.54863 0.5449 0.06941 0.0
C625 C 0.54525 0.55143 0.04809 0.0
C626 C 0.54861 0.51028 0.99046 0.0
C627 C 0.56727 0.56817 0.94398 0.0
C628 C 0.56185 0.55852 0.96613 0.0
C629 C 0.55729 0.53181 0.03111 0.0
C630 C 0.55653 0.54063 0.00863 0.0
H631 H 0.53945 0.61441 0.90827 0.0
H632 H 0.53165 0.6004 0.94528 0.0
H633 H 0.54587 0.49527 0.9559 0.0
H634 H 0.58597 0.47674 0.06013 0.0
H635 H 0.58169 0.48925 0.02345 0.0
C636 C 0.06611 0.55121 0.23358 0.0
C637 C 0.04407 0.51377 0.22013 0.0
C638 C 0.06339 0.55615 0.25592 0.0
C639 C 0.03855 0.50078 0.30106 0.0
H640 H 0.02887 0.59422 0.33032 0.0
C641 C 0.0708 0.55712 0.39385 0.0
C642 C 0.04613 0.57163 0.40403 0.0
C643 C 0.06583 0.54526 0.37131 0.0
C644 C 0.03115 0.56775 0.32234 0.0
H645 H 1.00211 0.45207 0.21965 0.0
H646 H 0.9978 0.46072 0.25865 0.0
H647 H 0.03027 0.58414 0.29098 0.0
H648 H 0.99611 0.58383 0.39878 0.0
H649 H 0.98747 0.5632 0.35923 0.0
H650 H 0.0401 0.48478 0.33249 0.0
C651 C 0.0171 0.4862 0.25189 0.0
C652 C 0.03238 0.56223 0.29988 0.0
C653 C 0.01948 0.48134 0.22953 0.0
C654 C 0.01536 0.5725 0.39134 0.0
C655 C 1.01066 0.56107 0.36874 0.0
C656 C 0.03776 0.50654 0.32356 0.0
C657 C 0.03891 0.52367 0.2653 0.0
C658 C 0.03637 0.52885 0.28903 0.0
C659 C 0.03634 0.54809 0.35848 0.0
C660 C 0.03429 0.54022 0.33444 0.0
H661 H 0.08525 0.57682 0.22687 0.0
H662 H 0.08083 0.5853 0.26592 0.0
H663 H 0.04185 0.47487 0.29313 0.0
H664 H 0.09466 0.55604 0.4033 0.0
H665 H 0.08621 0.53561 0.36386 0.0
loop_
_geom_bond_atom_site_label_1
_geom_bond_atom_site_label_2
_geom_bond_distance
_geom_bond_site_symmetry_2
_ccdc_geom_bond_type
Tb0 O3 2.453 1_455 S
Tb0 O4 2.596 . S
Tb0 O5 2.374 . S
Tb0 O13 2.343 . S
Tb0 O15 2.353 . S
Tb0 O17 2.427 . S
Tb0 O18 2.513 . S
C1 O5 1.251 . S
C1 O7 1.263 . S
Tb2 O4 2.343 . S
Tb2 O7 2.353 . S
Tb2 O10 2.427 1_455 S
Tb2 O11 2.513 1_455 S
Tb2 O12 2.453 . S
Tb2 O13 2.596 . S
Tb2 O14 2.374 . S
O3 Tb0 2.453 1_655 S
O3 C19 1.245 . S
O4 Tb0 2.596 . S
O4 Tb2 2.343 . S
O4 C19 1.259 1_455 S
O5 Tb0 2.374 . S
O5 C1 1.251 . S
C6 O10 1.275 . S
C6 O11 1.246 . S
O7 C1 1.263 . S
O7 Tb2 2.353 . S
C8 O12 1.245 . S
C8 O13 1.259 . S
C9 O14 1.250 . S
C9 O15 1.263 . S
O10 Tb2 2.427 1_655 S
O10 C6 1.275 . S
O11 Tb2 2.513 1_655 S
O11 C6 1.246 . S
O12 Tb2 2.453 . S
O12 C8 1.245 . S
O13 Tb0 2.343 . S
O13 Tb2 2.596 . S
O13 C8 1.259 . S
O14 Tb2 2.374 . S
O14 C9 1.250 . S
O15 Tb0 2.353 . S
O15 C9 1.263 . S
C16 O17 1.275 . S
C16 O18 1.246 . S
O17 Tb0 2.427 . S
O17 C16 1.275 . S
O18 Tb0 2.513 . S
O18 C16 1.246 . S
C19 O3 1.245 . S
C19 O4 1.259 1_655 S
Tb20 O23 2.453 . S
Tb20 O24 2.596 . S
Tb20 O25 2.374 . S
Tb20 O33 2.343 . S
Tb20 O35 2.353 . S
Tb20 O37 2.427 1_545 S
Tb20 O38 2.513 1_545 S
C21 O25 1.251 . S
C21 O27 1.263 . S
Tb22 O24 2.343 . S
Tb22 O27 2.353 . S
Tb22 O30 2.427 . S
Tb22 O31 2.513 . S
Tb22 O32 2.453 . S
Tb22 O33 2.596 . S
Tb22 O34 2.374 . S
O23 Tb20 2.453 . S
O23 C39 1.245 . S
O24 Tb20 2.596 . S
O24 Tb22 2.343 . S
O24 C39 1.259 . S
O25 Tb20 2.374 . S
O25 C21 1.251 . S
C26 O30 1.275 . S
C26 O31 1.246 . S
O27 C21 1.263 . S
O27 Tb22 2.353 . S
C28 O32 1.245 1_565 S
C28 O33 1.259 1_565 S
C29 O34 1.250 . S
C29 O35 1.263 . S
O30 Tb22 2.427 . S
O30 C26 1.275 . S
O31 Tb22 2.513 . S
O31 C26 1.246 . S
O32 Tb22 2.453 . S
O32 C28 1.245 1_545 S
O33 Tb20 2.343 . S
O33 Tb22 2.596 . S
O33 C28 1.259 1_545 S
O34 Tb22 2.374 . S
O34 C29 1.250 . S
O35 Tb20 2.353 . S
O35 C29 1.263 . S
C36 O37 1.275 . S
C36 O38 1.246 . S
O37 Tb20 2.427 1_565 S
O37 C36 1.275 . S
O38 Tb20 2.513 1_565 S
O38 C36 1.246 . S
C39 O23 1.245 . S
C39 O24 1.259 . S
Tb40 O43 2.453 . S
Tb40 O44 2.596 . S
Tb40 O45 2.374 . S
Tb40 O53 2.343 . S
Tb40 O55 2.353 . S
Tb40 O57 2.427 . S
Tb40 O58 2.513 . S
C41 O45 1.251 . S
C41 O47 1.263 . S
Tb42 O44 2.343 . S
Tb42 O47 2.353 . S
Tb42 O50 2.427 . S
Tb42 O51 2.513 . S
Tb42 O52 2.453 . S
Tb42 O53 2.596 . S
Tb42 O54 2.374 . S
O43 Tb40 2.453 . S
O43 C59 1.245 . S
O44 Tb40 2.596 . S
O44 Tb42 2.343 . S
O44 C59 1.259 . S
O45 Tb40 2.374 . S
O45 C41 1.251 . S
C46 O50 1.275 . S
C46 O51 1.246 . S
O47 C41 1.263 . S
O47 Tb42 2.353 . S
C48 O52 1.245 . S
C48 O53 1.259 . S
C49 O54 1.250 . S
C49 O55 1.263 . S
O50 Tb42 2.427 . S
O50 C46 1.275 . S
O51 Tb42 2.513 . S
O51 C46 1.246 . S
O52 Tb42 2.453 . S
O52 C48 1.245 . S
O53 Tb40 2.343 . S
O53 Tb42 2.596 . S
O53 C48 1.259 . S
O54 Tb42 2.374 . S
O54 C49 1.250 . S
O55 Tb40 2.353 . S
O55 C49 1.263 . S
C56 O57 1.275 . S
C56 O58 1.246 . S
O57 Tb40 2.427 . S
O57 C56 1.275 . S
O58 Tb40 2.513 . S
O58 C56 1.246 . S
C59 O43 1.245 . S
C59 O44 1.259 . S
H60 C63 0.929 . S
H61 C66 0.929 . S
H62 C68 0.930 . S
C63 H60 0.929 . S
C63 C64 1.398 . S
C63 C65 1.396 . S
C64 C63 1.398 . S
C64 C68 1.407 . S
C65 C63 1.396 . S
C65 C66 1.394 . S
C66 H61 0.929 . S
C66 C65 1.394 . S
C66 C67 1.382 . S
C67 C66 1.382 . S
C67 C68 1.392 . S
C67 N69 1.420 . S
C68 H62 0.930 . S
C68 C64 1.407 . S
C68 C67 1.392 . S
N69 C67 1.420 . S
N69 C70 1.244 . S
C70 N69 1.244 . S
H71 C74 0.929 . S
H72 C77 0.929 . S
H73 C79 0.930 . S
C74 H71 0.929 . S
C74 C75 1.398 . S
C74 C76 1.396 . S
C75 C74 1.398 . S
C75 C79 1.407 . S
C76 C74 1.396 . S
C76 C77 1.394 . S
C77 H72 0.929 . S
C77 C76 1.394 . S
C77 C78 1.382 . S
C78 C77 1.382 . S
C78 C79 1.392 . S
C78 N80 1.420 . S
C79 H73 0.930 . S
C79 C75 1.407 . S
C79 C78 1.392 . S
N80 C78 1.420 . S
N80 C81 1.244 . S
C81 N80 1.244 . S
H82 C85 0.929 . S
H83 C88 0.929 . S
H84 C90 0.930 . S
C85 H82 0.929 . S
C85 C86 1.398 . S
C85 C87 1.396 . S
C86 C85 1.398 . S
C86 C90 1.407 . S
C87 C85 1.396 . S
C87 C88 1.394 . S
C88 H83 0.929 . S
C88 C87 1.394 . S
C88 C89 1.382 . S
C89 C88 1.382 . S
C89 C90 1.392 . S
C89 N91 1.420 . S
C90 H84 0.930 . S
C90 C86 1.407 . S
C90 C89 1.392 . S
N91 C89 1.420 . S
N91 C92 1.244 . S
C92 N91 1.244 . S
H93 C96 0.929 . S
H94 C99 0.929 . S
H95 C101 0.930 . S
C96 H93 0.929 . S
C96 C97 1.398 . S
C96 C98 1.396 . S
C97 C96 1.398 . S
C97 C101 1.407 . S
C98 C96 1.396 . S
C98 C99 1.394 1_455 S
C99 H94 0.929 . S
C99 C98 1.394 1_655 S
C99 C100 1.382 . S
C100 C99 1.382 . S
C100 C101 1.392 1_655 S
C100 N102 1.420 . S
C101 H95 0.930 . S
C101 C97 1.407 . S
C101 C100 1.392 1_455 S
N102 C100 1.420 . S
N102 C103 1.244 . S
C103 N102 1.244 . S
H104 C107 0.929 . S
H105 C110 0.929 1_565 S
H106 C112 0.930 . S
C107 H104 0.929 . S
C107 C108 1.398 . S
C107 C109 1.396 . S
C108 C107 1.398 . S
C108 C112 1.407 . S
C109 C107 1.396 . S
C109 C110 1.394 . S
C110 H105 0.929 1_545 S
C110 C109 1.394 . S
C110 C111 1.382 . S
C111 C110 1.382 . S
C111 C112 1.392 . S
C111 N113 1.420 . S
C112 H106 0.930 . S
C112 C108 1.407 . S
C112 C111 1.392 . S
N113 C111 1.420 . S
N113 C114 1.244 1_545 S
C114 N113 1.244 1_565 S
H115 C118 0.929 . S
H116 C121 0.929 . S
H117 C123 0.930 . S
C118 H115 0.929 . S
C118 C119 1.398 . S
C118 C120 1.396 . S
C119 C118 1.398 . S
C119 C123 1.407 . S
C120 C118 1.396 . S
C120 C121 1.394 . S
C121 H116 0.929 . S
C121 C120 1.394 . S
C121 C122 1.382 . S
C122 C121 1.382 . S
C122 C123 1.392 . S
C122 N124 1.420 . S
C123 H117 0.930 . S
C123 C119 1.407 . S
C123 C122 1.392 . S
N124 C122 1.420 . S
N124 C125 1.244 . S
C125 N124 1.244 . S
C126 C127 1.349 . S
C126 C128 1.327 . S
C126 H151 0.950 . S
C127 C126 1.349 . S
C127 C143 1.349 . S
C128 C126 1.327 . S
C128 C147 1.429 . S
C128 H152 0.950 . S
C129 C146 1.574 . S
C129 C148 1.368 . S
C129 H153 0.949 . S
H130 C134 0.949 . S
C131 C132 1.349 . S
C131 C133 1.327 . S
C131 H154 0.950 . S
C132 C131 1.349 . S
C132 C144 1.349 . S
C133 C131 1.327 . S
C133 C149 1.429 . S
C133 H155 0.950 . S
C134 H130 0.949 . S
C134 C142 1.574 . S
C134 C150 1.368 . S
H135 C143 0.950 . S
H136 C141 0.950 . S
H137 C142 0.949 . S
H138 C144 0.950 . S
H139 C145 0.950 . S
H140 C146 0.949 . S
C141 H136 0.950 . S
C141 C143 1.327 . S
C141 C147 1.429 . S
C142 C134 1.574 . S
C142 H137 0.949 . S
C142 C148 1.368 . S
C143 C127 1.349 . S
C143 H135 0.950 . S
C143 C141 1.327 . S
C144 C132 1.349 . S
C144 H138 0.950 . S
C144 C145 1.327 . S
C145 H139 0.950 . S
C145 C144 1.327 . S
C145 C149 1.429 . S
C146 C129 1.574 . S
C146 H140 0.949 . S
C146 C150 1.368 . S
C147 C128 1.429 . S
C147 C141 1.429 . S
C147 C148 1.523 . S
C148 C129 1.368 . S
C148 C142 1.368 . S
C148 C147 1.523 . S
C149 C133 1.429 . S
C149 C145 1.429 . S
C149 C150 1.523 . S
C150 C134 1.368 . S
C150 C146 1.368 . S
C150 C149 1.523 . S
H151 C126 0.950 . S
H152 C128 0.950 . S
H153 C129 0.949 . S
H154 C131 0.950 . S
H155 C133 0.950 . S
C156 C157 1.349 . S
C156 C158 1.327 . S
C156 H181 0.950 . S
C157 C156 1.349 . S
C157 C173 1.349 . S
C158 C156 1.327 . S
C158 C177 1.429 . S
C158 H182 0.950 . S
C159 C176 1.574 . S
C159 C178 1.368 . S
C159 H183 0.949 . S
H160 C164 0.949 . S
C161 C162 1.349 . S
C161 C163 1.327 . S
C161 H184 0.950 . S
C162 C161 1.349 . S
C162 C174 1.349 . S
C163 C161 1.327 . S
C163 C179 1.429 . S
C163 H185 0.950 . S
C164 H160 0.949 . S
C164 C172 1.574 . S
C164 C180 1.368 . S
H165 C173 0.950 . S
H166 C171 0.950 . S
H167 C172 0.949 . S
H168 C174 0.950 . S
H169 C175 0.950 . S
H170 C176 0.949 . S
C171 H166 0.950 . S
C171 C173 1.327 . S
C171 C177 1.429 . S
C172 C164 1.574 . S
C172 H167 0.949 . S
C172 C178 1.368 . S
C173 C157 1.349 . S
C173 H165 0.950 . S
C173 C171 1.327 . S
C174 C162 1.349 . S
C174 H168 0.950 . S
C174 C175 1.327 . S
C175 H169 0.950 . S
C175 C174 1.327 . S
C175 C179 1.429 . S
C176 C159 1.574 . S
C176 H170 0.949 . S
C176 C180 1.368 . S
C177 C158 1.429 . S
C177 C171 1.429 . S
C177 C178 1.523 . S
C178 C159 1.368 . S
C178 C172 1.368 . S
C178 C177 1.523 . S
C179 C163 1.429 . S
C179 C175 1.429 . S
C179 C180 1.523 . S
C180 C164 1.368 . S
C180 C176 1.368 . S
C180 C179 1.523 . S
H181 C156 0.950 . S
H182 C158 0.950 . S
H183 C159 0.949 . S
H184 C161 0.950 . S
H185 C163 0.950 . S
C186 C187 1.349 . S
C186 C188 1.327 . S
C186 H211 0.950 . S
C187 C186 1.349 . S
C187 C203 1.349 . S
C188 C186 1.327 . S
C188 C207 1.429 . S
C188 H212 0.950 . S
C189 C206 1.574 . S
C189 C208 1.368 . S
C189 H213 0.949 . S
H190 C194 0.949 . S
C191 C192 1.349 . S
C191 C193 1.327 . S
C191 H214 0.950 . S
C192 C191 1.349 . S
C192 C204 1.349 . S
C193 C191 1.327 . S
C193 C209 1.429 . S
C193 H215 0.950 . S
C194 H190 0.949 . S
C194 C202 1.574 . S
C194 C210 1.368 . S
H195 C203 0.950 . S
H196 C201 0.950 . S
H197 C202 0.949 . S
H198 C204 0.950 . S
H199 C205 0.950 . S
H200 C206 0.949 . S
C201 H196 0.950 . S
C201 C203 1.327 . S
C201 C207 1.429 . S
C202 C194 1.574 . S
C202 H197 0.949 . S
C202 C208 1.368 . S
C203 C187 1.349 . S
C203 H195 0.950 . S
C203 C201 1.327 . S
C204 C192 1.349 . S
C204 H198 0.950 . S
C204 C205 1.327 . S
C205 H199 0.950 . S
C205 C204 1.327 . S
C205 C209 1.429 . S
C206 C189 1.574 . S
C206 H200 0.949 . S
C206 C210 1.368 . S
C207 C188 1.429 . S
C207 C201 1.429 . S
C207 C208 1.523 . S
C208 C189 1.368 . S
C208 C202 1.368 . S
C208 C207 1.523 . S
C209 C193 1.429 . S
C209 C205 1.429 . S
C209 C210 1.523 . S
C210 C194 1.368 . S
C210 C206 1.368 . S
C210 C209 1.523 . S
H211 C186 0.950 . S
H212 C188 0.950 . S
H213 C189 0.949 . S
H214 C191 0.950 . S
H215 C193 0.950 . S
C216 C217 1.349 . S
C216 C218 1.327 . S
C216 H241 0.950 . S
C217 C216 1.349 . S
C217 C233 1.349 . S
C218 C216 1.327 . S
C218 C237 1.429 . S
C218 H242 0.950 . S
C219 C236 1.574 . S
C219 C238 1.368 . S
C219 H243 0.949 . S
H220 C224 0.949 . S
C221 C222 1.349 . S
C221 C223 1.327 . S
C221 H244 0.950 . S
C222 C221 1.349 . S
C222 C234 1.349 . S
C223 C221 1.327 . S
C223 C239 1.429 . S
C223 H245 0.950 . S
C224 H220 0.949 . S
C224 C232 1.574 . S
C224 C240 1.368 . S
H225 C233 0.950 . S
H226 C231 0.950 . S
H227 C232 0.949 . S
H228 C234 0.950 . S
H229 C235 0.950 . S
H230 C236 0.949 . S
C231 H226 0.950 . S
C231 C233 1.327 . S
C231 C237 1.429 . S
C232 C224 1.574 . S
C232 H227 0.949 . S
C232 C238 1.368 . S
C233 C217 1.349 . S
C233 H225 0.950 . S
C233 C231 1.327 . S
C234 C222 1.349 . S
C234 H228 0.950 . S
C234 C235 1.327 . S
C235 H229 0.950 . S
C235 C234 1.327 . S
C235 C239 1.429 . S
C236 C219 1.574 . S
C236 H230 0.949 . S
C236 C240 1.368 . S
C237 C218 1.429 . S
C237 C231 1.429 . S
C237 C238 1.523 . S
C238 C219 1.368 . S
C238 C232 1.368 . S
C238 C237 1.523 . S
C239 C223 1.429 . S
C239 C235 1.429 . S
C239 C240 1.523 . S
C240 C224 1.368 . S
C240 C236 1.368 . S
C240 C239 1.523 . S
H241 C216 0.950 . S
H242 C218 0.950 . S
H243 C219 0.949 . S
H244 C221 0.950 . S
H245 C223 0.950 . S
C246 C247 1.349 . S
C246 C248 1.327 . S
C246 H271 0.950 . S
C247 C246 1.349 . S
C247 C263 1.349 . S
C248 C246 1.327 . S
C248 C267 1.429 . S
C248 H272 0.950 . S
C249 C266 1.574 . S
C249 C268 1.368 . S
C249 H273 0.949 . S
H250 C254 0.949 . S
C251 C252 1.349 . S
C251 C253 1.327 . S
C251 H274 0.950 . S
C252 C251 1.349 . S
C252 C264 1.349 . S
C253 C251 1.327 . S
C253 C269 1.429 . S
C253 H275 0.950 . S
C254 H250 0.949 . S
C254 C262 1.574 . S
C254 C270 1.368 . S
H255 C263 0.950 . S
H256 C261 0.950 . S
H257 C262 0.949 . S
H258 C264 0.950 . S
H259 C265 0.950 . S
H260 C266 0.949 . S
C261 H256 0.950 . S
C261 C263 1.327 . S
C261 C267 1.429 . S
C262 C254 1.574 . S
C262 H257 0.949 . S
C262 C268 1.368 . S
C263 C247 1.349 . S
C263 H255 0.950 . S
C263 C261 1.327 . S
C264 C252 1.349 . S
C264 H258 0.950 . S
C264 C265 1.327 . S
C265 H259 0.950 . S
C265 C264 1.327 . S
C265 C269 1.429 . S
C266 C249 1.574 . S
C266 H260 0.949 . S
C266 C270 1.368 . S
C267 C248 1.429 . S
C267 C261 1.429 . S
C267 C268 1.523 . S
C268 C249 1.368 . S
C268 C262 1.368 . S
C268 C267 1.523 . S
C269 C253 1.429 . S
C269 C265 1.429 . S
C269 C270 1.523 . S
C270 C254 1.368 . S
C270 C266 1.368 . S
C270 C269 1.523 . S
H271 C246 0.950 . S
H272 C248 0.950 . S
H273 C249 0.949 . S
H274 C251 0.950 . S
H275 C253 0.950 . S
C276 C277 1.349 . S
C276 C278 1.327 . S
C276 H301 0.950 . S
C277 C276 1.349 . S
C277 C293 1.349 . S
C278 C276 1.327 . S
C278 C297 1.429 . S
C278 H302 0.950 . S
C279 C296 1.574 . S
C279 C298 1.368 . S
C279 H303 0.949 . S
H280 C284 0.949 . S
C281 C282 1.349 . S
C281 C283 1.327 . S
C281 H304 0.950 . S
C282 C281 1.349 . S
C282 C294 1.349 . S
C283 C281 1.327 . S
C283 C299 1.429 . S
C283 H305 0.950 . S
C284 H280 0.949 . S
C284 C292 1.574 . S
C284 C300 1.368 . S
H285 C293 0.950 . S
H286 C291 0.950 . S
H287 C292 0.949 . S
H288 C294 0.950 . S
H289 C295 0.950 . S
H290 C296 0.949 . S
C291 H286 0.950 . S
C291 C293 1.327 . S
C291 C297 1.429 . S
C292 C284 1.574 . S
C292 H287 0.949 . S
C292 C298 1.368 . S
C293 C277 1.349 . S
C293 H285 0.950 . S
C293 C291 1.327 . S
C294 C282 1.349 . S
C294 H288 0.950 . S
C294 C295 1.327 . S
C295 H289 0.950 . S
C295 C294 1.327 . S
C295 C299 1.429 . S
C296 C279 1.574 . S
C296 H290 0.949 . S
C296 C300 1.368 . S
C297 C278 1.429 . S
C297 C291 1.429 . S
C297 C298 1.523 . S
C298 C279 1.368 . S
C298 C292 1.368 . S
C298 C297 1.523 . S
C299 C283 1.429 . S
C299 C295 1.429 . S
C299 C300 1.523 . S
C300 C284 1.368 . S
C300 C296 1.368 . S
C300 C299 1.523 . S
H301 C276 0.950 . S
H302 C278 0.950 . S
H303 C279 0.949 . S
H304 C281 0.950 . S
H305 C283 0.950 . S
C306 C307 1.349 . S
C306 C308 1.327 . S
C306 H331 0.950 . S
C307 C306 1.349 . S
C307 C323 1.349 . S
C308 C306 1.327 . S
C308 C327 1.429 . S
C308 H332 0.950 . S
C309 C326 1.574 . S
C309 C328 1.368 . S
C309 H333 0.949 . S
H310 C314 0.949 . S
C311 C312 1.349 . S
C311 C313 1.327 . S
C311 H334 0.950 . S
C312 C311 1.349 . S
C312 C324 1.349 . S
C313 C311 1.327 . S
C313 C329 1.429 . S
C313 H335 0.950 . S
C314 H310 0.949 . S
C314 C322 1.574 . S
C314 C330 1.368 . S
H315 C323 0.950 . S
H316 C321 0.950 . S
H317 C322 0.949 . S
H318 C324 0.950 . S
H319 C325 0.950 . S
H320 C326 0.949 . S
C321 H316 0.950 . S
C321 C323 1.327 . S
C321 C327 1.429 . S
C322 C314 1.574 . S
C322 H317 0.949 . S
C322 C328 1.368 . S
C323 C307 1.349 . S
C323 H315 0.950 . S
C323 C321 1.327 . S
C324 C312 1.349 . S
C324 H318 0.950 . S
C324 C325 1.327 . S
C325 H319 0.950 . S
C325 C324 1.327 . S
C325 C329 1.429 . S
C326 C309 1.574 . S
C326 H320 0.949 . S
C326 C330 1.368 . S
C327 C308 1.429 . S
C327 C321 1.429 . S
C327 C328 1.523 . S
C328 C309 1.368 . S
C328 C322 1.368 . S
C328 C327 1.523 . S
C329 C313 1.429 . S
C329 C325 1.429 . S
C329 C330 1.523 . S
C330 C314 1.368 . S
C330 C326 1.368 . S
C330 C329 1.523 . S
H331 C306 0.950 . S
H332 C308 0.950 . S
H333 C309 0.949 . S
H334 C311 0.950 . S
H335 C313 0.950 . S
C336 C337 1.349 . S
C336 C338 1.327 . S
C336 H361 0.950 . S
C337 C336 1.349 . S
C337 C353 1.349 . S
C338 C336 1.327 . S
C338 C357 1.429 . S
C338 H362 0.950 . S
C339 C356 1.574 . S
C339 C358 1.368 . S
C339 H363 0.949 . S
H340 C344 0.949 . S
C341 C342 1.349 . S
C341 C343 1.327 1_455 S
C341 H364 0.950 . S
C342 C341 1.349 . S
C342 C354 1.349 1_455 S
C343 C341 1.327 1_655 S
C343 C359 1.429 . S
C343 H365 0.950 . S
C344 H340 0.949 . S
C344 C352 1.574 . S
C344 C360 1.368 . S
H345 C353 0.950 . S
H346 C351 0.950 . S
H347 C352 0.949 . S
H348 C354 0.950 . S
H349 C355 0.950 . S
H350 C356 0.949 . S
C351 H346 0.950 . S
C351 C353 1.327 . S
C351 C357 1.429 . S
C352 C344 1.574 . S
C352 H347 0.949 . S
C352 C358 1.368 . S
C353 C337 1.349 . S
C353 H345 0.950 . S
C353 C351 1.327 . S
C354 C342 1.349 1_655 S
C354 H348 0.950 . S
C354 C355 1.327 . S
C355 H349 0.950 . S
C355 C354 1.327 . S
C355 C359 1.429 . S
C356 C339 1.574 . S
C356 H350 0.949 . S
C356 C360 1.368 . S
C357 C338 1.429 . S
C357 C351 1.429 . S
C357 C358 1.523 . S
C358 C339 1.368 . S
C358 C352 1.368 . S
C358 C357 1.523 . S
C359 C343 1.429 . S
C359 C355 1.429 . S
C359 C360 1.523 . S
C360 C344 1.368 . S
C360 C356 1.368 . S
C360 C359 1.523 . S
H361 C336 0.950 . S
H362 C338 0.950 . S
H363 C339 0.949 . S
H364 C341 0.950 . S
H365 C343 0.950 . S
C366 C367 1.349 . S
C366 C368 1.327 . S
C366 H391 0.950 . S
C367 C366 1.349 . S
C367 C383 1.349 . S
C368 C366 1.327 . S
C368 C387 1.429 . S
C368 H392 0.950 . S
C369 C386 1.574 . S
C369 C388 1.368 . S
C369 H393 0.949 . S
H370 C374 0.949 . S
C371 C372 1.349 . S
C371 C373 1.327 . S
C371 H394 0.950 . S
C372 C371 1.349 . S
C372 C384 1.349 . S
C373 C371 1.327 . S
C373 C389 1.429 . S
C373 H395 0.950 . S
C374 H370 0.949 . S
C374 C382 1.574 . S
C374 C390 1.368 . S
H375 C383 0.950 . S
H376 C381 0.950 . S
H377 C382 0.949 . S
H378 C384 0.950 . S
H379 C385 0.950 . S
H380 C386 0.949 . S
C381 H376 0.950 . S
C381 C383 1.327 . S
C381 C387 1.429 . S
C382 C374 1.574 . S
C382 H377 0.949 . S
C382 C388 1.368 . S
C383 C367 1.349 . S
C383 H375 0.950 . S
C383 C381 1.327 . S
C384 C372 1.349 . S
C384 H378 0.950 . S
C384 C385 1.327 . S
C385 H379 0.950 . S
C385 C384 1.327 . S
C385 C389 1.429 . S
C386 C369 1.574 . S
C386 H380 0.949 . S
C386 C390 1.368 . S
C387 C368 1.429 . S
C387 C381 1.429 . S
C387 C388 1.523 . S
C388 C369 1.368 . S
C388 C382 1.368 . S
C388 C387 1.523 . S
C389 C373 1.429 . S
C389 C385 1.429 . S
C389 C390 1.523 . S
C390 C374 1.368 . S
C390 C386 1.368 . S
C390 C389 1.523 . S
H391 C366 0.950 . S
H392 C368 0.950 . S
H393 C369 0.949 . S
H394 C371 0.950 . S
H395 C373 0.950 . S
C396 C397 1.349 . S
C396 C398 1.327 . S
C396 H421 0.950 . S
C397 C396 1.349 . S
C397 C413 1.349 . S
C398 C396 1.327 . S
C398 C417 1.429 . S
C398 H422 0.950 . S
C399 C416 1.574 . S
C399 C418 1.368 . S
C399 H423 0.949 . S
H400 C404 0.949 . S
C401 C402 1.349 . S
C401 C403 1.327 . S
C401 H424 0.950 . S
C402 C401 1.349 . S
C402 C414 1.349 . S
C403 C401 1.327 . S
C403 C419 1.429 . S
C403 H425 0.950 . S
C404 H400 0.949 . S
C404 C412 1.574 . S
C404 C420 1.368 . S
H405 C413 0.950 . S
H406 C411 0.950 . S
H407 C412 0.949 . S
H408 C414 0.950 . S
H409 C415 0.950 . S
H410 C416 0.949 . S
C411 H406 0.950 . S
C411 C413 1.327 . S
C411 C417 1.429 . S
C412 C404 1.574 . S
C412 H407 0.949 . S
C412 C418 1.368 . S
C413 C397 1.349 . S
C413 H405 0.950 . S
C413 C411 1.327 . S
C414 C402 1.349 . S
C414 H408 0.950 . S
C414 C415 1.327 . S
C415 H409 0.950 . S
C415 C414 1.327 . S
C415 C419 1.429 . S
C416 C399 1.574 . S
C416 H410 0.949 . S
C416 C420 1.368 . S
C417 C398 1.429 . S
C417 C411 1.429 . S
C417 C418 1.523 . S
C418 C399 1.368 . S
C418 C412 1.368 . S
C418 C417 1.523 . S
C419 C403 1.429 . S
C419 C415 1.429 . S
C419 C420 1.523 . S
C420 C404 1.368 . S
C420 C416 1.368 . S
C420 C419 1.523 . S
H421 C396 0.950 . S
H422 C398 0.950 . S
H423 C399 0.949 . S
H424 C401 0.950 . S
H425 C403 0.950 . S
C426 C427 1.349 . S
C426 C428 1.327 . S
C426 H451 0.950 . S
C427 C426 1.349 . S
C427 C443 1.349 . S
C428 C426 1.327 . S
C428 C447 1.429 . S
C428 H452 0.950 . S
C429 C446 1.574 . S
C429 C448 1.368 . S
C429 H453 0.949 . S
H430 C434 0.949 . S
C431 C432 1.349 . S
C431 C433 1.327 . S
C431 H454 0.950 . S
C432 C431 1.349 . S
C432 C444 1.349 . S
C433 C431 1.327 . S
C433 C449 1.429 . S
C433 H455 0.950 . S
C434 H430 0.949 . S
C434 C442 1.574 . S
C434 C450 1.368 . S
H435 C443 0.950 . S
H436 C441 0.950 . S
H437 C442 0.949 . S
H438 C444 0.950 . S
H439 C445 0.950 . S
H440 C446 0.949 . S
C441 H436 0.950 . S
C441 C443 1.327 . S
C441 C447 1.429 . S
C442 C434 1.574 . S
C442 H437 0.949 . S
C442 C448 1.368 . S
C443 C427 1.349 . S
C443 H435 0.950 . S
C443 C441 1.327 . S
C444 C432 1.349 . S
C444 H438 0.950 . S
C444 C445 1.327 . S
C445 H439 0.950 . S
C445 C444 1.327 . S
C445 C449 1.429 . S
C446 C429 1.574 . S
C446 H440 0.949 . S
C446 C450 1.368 . S
C447 C428 1.429 . S
C447 C441 1.429 . S
C447 C448 1.523 . S
C448 C429 1.368 . S
C448 C442 1.368 . S
C448 C447 1.523 . S
C449 C433 1.429 . S
C449 C445 1.429 . S
C449 C450 1.523 . S
C450 C434 1.368 . S
C450 C446 1.368 . S
C450 C449 1.523 . S
H451 C426 0.950 . S
H452 C428 0.950 . S
H453 C429 0.949 . S
H454 C431 0.950 . S
H455 C433 0.950 . S
C456 C457 1.349 . S
C456 C458 1.327 . S
C456 H481 0.950 . S
C457 C456 1.349 . S
C457 C473 1.349 . S
C458 C456 1.327 . S
C458 C477 1.429 . S
C458 H482 0.950 . S
C459 C476 1.574 . S
C459 C478 1.368 . S
C459 H483 0.949 . S
H460 C464 0.949 . S
C461 C462 1.349 . S
C461 C463 1.327 . S
C461 H484 0.950 . S
C462 C461 1.349 . S
C462 C474 1.349 . S
C463 C461 1.327 . S
C463 C479 1.429 . S
C463 H485 0.950 . S
C464 H460 0.949 . S
C464 C472 1.574 . S
C464 C480 1.368 . S
H465 C473 0.950 . S
H466 C471 0.950 . S
H467 C472 0.949 . S
H468 C474 0.950 . S
H469 C475 0.950 . S
H470 C476 0.949 . S
C471 H466 0.950 . S
C471 C473 1.327 . S
C471 C477 1.429 . S
C472 C464 1.574 . S
C472 H467 0.949 . S
C472 C478 1.368 . S
C473 C457 1.349 . S
C473 H465 0.950 . S
C473 C471 1.327 . S
C474 C462 1.349 . S
C474 H468 0.950 . S
C474 C475 1.327 . S
C475 H469 0.950 . S
C475 C474 1.327 . S
C475 C479 1.429 . S
C476 C459 1.574 . S
C476 H470 0.949 . S
C476 C480 1.368 . S
C477 C458 1.429 . S
C477 C471 1.429 . S
C477 C478 1.523 . S
C478 C459 1.368 . S
C478 C472 1.368 . S
C478 C477 1.523 . S
C479 C463 1.429 . S
C479 C475 1.429 . S
C479 C480 1.523 . S
C480 C464 1.368 . S
C480 C476 1.368 . S
C480 C479 1.523 . S
H481 C456 0.950 . S
H482 C458 0.950 . S
H483 C459 0.949 . S
H484 C461 0.950 . S
H485 C463 0.950 . S
C486 C487 1.349 . S
C486 C488 1.327 . S
C486 H511 0.950 . S
C487 C486 1.349 . S
C487 C503 1.349 . S
C488 C486 1.327 . S
C488 C507 1.429 . S
C488 H512 0.950 . S
C489 C506 1.574 . S
C489 C508 1.368 . S
C489 H513 0.949 . S
H490 C494 0.949 . S
C491 C492 1.349 . S
C491 C493 1.327 . S
C491 H514 0.950 . S
C492 C491 1.349 . S
C492 C504 1.349 . S
C493 C491 1.327 . S
C493 C509 1.429 . S
C493 H515 0.950 . S
C494 H490 0.949 . S
C494 C502 1.574 1_556 S
C494 C510 1.368 . S
H495 C503 0.950 . S
H496 C501 0.950 . S
H497 C502 0.949 . S
H498 C504 0.950 . S
H499 C505 0.950 . S
H500 C506 0.949 1_556 S
C501 H496 0.950 . S
C501 C503 1.327 . S
C501 C507 1.429 . S
C502 C494 1.574 1_554 S
C502 H497 0.949 . S
C502 C508 1.368 . S
C503 C487 1.349 . S
C503 H495 0.950 . S
C503 C501 1.327 . S
C504 C492 1.349 . S
C504 H498 0.950 . S
C504 C505 1.327 . S
C505 H499 0.950 . S
C505 C504 1.327 . S
C505 C509 1.429 . S
C506 C489 1.574 . S
C506 H500 0.949 1_554 S
C506 C510 1.368 1_554 S
C507 C488 1.429 . S
C507 C501 1.429 . S
C507 C508 1.523 . S
C508 C489 1.368 . S
C508 C502 1.368 . S
C508 C507 1.523 . S
C509 C493 1.429 . S
C509 C505 1.429 . S
C509 C510 1.523 . S
C510 C494 1.368 . S
C510 C506 1.368 1_556 S
C510 C509 1.523 . S
H511 C486 0.950 . S
H512 C488 0.950 . S
H513 C489 0.949 . S
H514 C491 0.950 . S
H515 C493 0.950 . S
C516 C517 1.349 . S
C516 C518 1.327 . S
C516 H541 0.950 . S
C517 C516 1.349 . S
C517 C533 1.349 . S
C518 C516 1.327 . S
C518 C537 1.429 . S
C518 H542 0.950 . S
C519 C536 1.574 . S
C519 C538 1.368 . S
C519 H543 0.949 . S
H520 C524 0.949 . S
C521 C522 1.349 . S
C521 C523 1.327 . S
C521 H544 0.950 . S
C522 C521 1.349 . S
C522 C534 1.349 . S
C523 C521 1.327 . S
C523 C539 1.429 . S
C523 H545 0.950 . S
C524 H520 0.949 . S
C524 C532 1.574 . S
C524 C540 1.368 . S
H525 C533 0.950 . S
H526 C531 0.950 . S
H527 C532 0.949 . S
H528 C534 0.950 . S
H529 C535 0.950 . S
H530 C536 0.949 . S
C531 H526 0.950 . S
C531 C533 1.327 . S
C531 C537 1.429 . S
C532 C524 1.574 . S
C532 H527 0.949 . S
C532 C538 1.368 . S
C533 C517 1.349 . S
C533 H525 0.950 . S
C533 C531 1.327 . S
C534 C522 1.349 . S
C534 H528 0.950 . S
C534 C535 1.327 . S
C535 H529 0.950 . S
C535 C534 1.327 . S
C535 C539 1.429 . S
C536 C519 1.574 . S
C536 H530 0.949 . S
C536 C540 1.368 . S
C537 C518 1.429 . S
C537 C531 1.429 . S
C537 C538 1.523 . S
C538 C519 1.368 . S
C538 C532 1.368 . S
C538 C537 1.523 . S
C539 C523 1.429 . S
C539 C535 1.429 . S
C539 C540 1.523 . S
C540 C524 1.368 . S
C540 C536 1.368 . S
C540 C539 1.523 . S
H541 C516 0.950 . S
H542 C518 0.950 . S
H543 C519 0.949 . S
H544 C521 0.950 . S
H545 C523 0.950 . S
C546 C547 1.349 . S
C546 C548 1.327 . S
C546 H571 0.950 . S
C547 C546 1.349 . S
C547 C563 1.349 . S
C548 C546 1.327 . S
C548 C567 1.429 . S
C548 H572 0.950 . S
C549 C566 1.574 . S
C549 C568 1.368 . S
C549 H573 0.949 . S
H550 C554 0.949 . S
C551 C552 1.349 . S
C551 C553 1.327 . S
C551 H574 0.950 . S
C552 C551 1.349 . S
C552 C564 1.349 . S
C553 C551 1.327 . S
C553 C569 1.429 . S
C553 H575 0.950 . S
C554 H550 0.949 . S
C554 C562 1.574 . S
C554 C570 1.368 . S
H555 C563 0.950 . S
H556 C561 0.950 . S
H557 C562 0.949 . S
H558 C564 0.950 . S
H559 C565 0.950 . S
H560 C566 0.949 . S
C561 H556 0.950 . S
C561 C563 1.327 . S
C561 C567 1.429 . S
C562 C554 1.574 . S
C562 H557 0.949 . S
C562 C568 1.368 . S
C563 C547 1.349 . S
C563 H555 0.950 . S
C563 C561 1.327 . S
C564 C552 1.349 . S
C564 H558 0.950 . S
C564 C565 1.327 . S
C565 H559 0.950 . S
C565 C564 1.327 . S
C565 C569 1.429 . S
C566 C549 1.574 . S
C566 H560 0.949 . S
C566 C570 1.368 . S
C567 C548 1.429 . S
C567 C561 1.429 . S
C567 C568 1.523 . S
C568 C549 1.368 . S
C568 C562 1.368 . S
C568 C567 1.523 . S
C569 C553 1.429 . S
C569 C565 1.429 . S
C569 C570 1.523 . S
C570 C554 1.368 . S
C570 C566 1.368 . S
C570 C569 1.523 . S
H571 C546 0.950 . S
H572 C548 0.950 . S
H573 C549 0.949 . S
H574 C551 0.950 . S
H575 C553 0.950 . S
C576 C577 1.349 . S
C576 C578 1.327 . S
C576 H601 0.950 . S
C577 C576 1.349 . S
C577 C593 1.349 . S
C578 C576 1.327 . S
C578 C597 1.429 . S
C578 H602 0.950 . S
C579 C596 1.574 . S
C579 C598 1.368 . S
C579 H603 0.949 1_545 S
H580 C584 0.949 . S
C581 C582 1.349 . S
C581 C583 1.327 . S
C581 H604 0.950 1_545 S
C582 C581 1.349 . S
C582 C594 1.349 . S
C583 C581 1.327 . S
C583 C599 1.429 . S
C583 H605 0.950 1_545 S
C584 H580 0.949 . S
C584 C592 1.574 . S
C584 C600 1.368 . S
H585 C593 0.950 1_565 S
H586 C591 0.950 1_565 S
H587 C592 0.949 . S
H588 C594 0.950 . S
H589 C595 0.950 . S
H590 C596 0.949 1_565 S
C591 H586 0.950 1_545 S
C591 C593 1.327 . S
C591 C597 1.429 . S
C592 C584 1.574 . S
C592 H587 0.949 . S
C592 C598 1.368 . S
C593 C577 1.349 . S
C593 H585 0.950 1_545 S
C593 C591 1.327 . S
C594 C582 1.349 . S
C594 H588 0.950 . S
C594 C595 1.327 . S
C595 H589 0.950 . S
C595 C594 1.327 . S
C595 C599 1.429 . S
C596 C579 1.574 . S
C596 H590 0.949 1_545 S
C596 C600 1.368 . S
C597 C578 1.429 . S
C597 C591 1.429 . S
C597 C598 1.523 . S
C598 C579 1.368 . S
C598 C592 1.368 . S
C598 C597 1.523 . S
C599 C583 1.429 . S
C599 C595 1.429 . S
C599 C600 1.523 . S
C600 C584 1.368 . S
C600 C596 1.368 . S
C600 C599 1.523 . S
H601 C576 0.950 . S
H602 C578 0.950 . S
H603 C579 0.949 1_565 S
H604 C581 0.950 1_565 S
H605 C583 0.950 1_565 S
C606 C607 1.349 . S
C606 C608 1.327 . S
C606 H631 0.950 . S
C607 C606 1.349 . S
C607 C623 1.349 . S
C608 C606 1.327 . S
C608 C627 1.429 . S
C608 H632 0.950 . S
C609 C626 1.574 . S
C609 C628 1.368 . S
C609 H633 0.949 . S
H610 C614 0.945 1_554 S
C611 C612 1.349 . S
C611 C613 1.327 . S
C611 H634 0.950 . S
C612 C611 1.349 . S
C612 C624 1.349 . S
C613 C611 1.327 . S
C613 C629 1.429 . S
C613 H635 0.950 . S
C614 H610 0.945 1_556 S
C614 C622 1.581 . S
C614 C630 1.365 1_556 S
H615 C623 0.950 . S
H616 C621 0.950 . S
H617 C622 0.949 . S
H618 C624 0.950 . S
H619 C625 0.950 . S
H620 C626 0.949 1_554 S
C621 H616 0.950 . S
C621 C623 1.327 . S
C621 C627 1.429 . S
C622 C614 1.581 . S
C622 H617 0.949 . S
C622 C628 1.368 . S
C623 C607 1.349 . S
C623 H615 0.950 . S
C623 C621 1.327 . S
C624 C612 1.349 . S
C624 H618 0.950 . S
C624 C625 1.327 . S
C625 H619 0.950 . S
C625 C624 1.327 . S
C625 C629 1.429 . S
C626 C609 1.574 . S
C626 H620 0.949 1_556 S
C626 C630 1.368 1_556 S
C627 C608 1.429 . S
C627 C621 1.429 . S
C627 C628 1.523 . S
C628 C609 1.368 . S
C628 C622 1.368 . S
C628 C627 1.523 . S
C629 C613 1.429 . S
C629 C625 1.429 . S
C629 C630 1.523 . S
C630 C614 1.365 1_554 S
C630 C626 1.368 1_554 S
C630 C629 1.523 . S
H631 C606 0.950 . S
H632 C608 0.950 . S
H633 C609 0.949 . S
H634 C611 0.950 . S
H635 C613 0.950 . S
C636 C637 1.349 . S
C636 C638 1.327 . S
C636 H661 0.950 . S
C637 C636 1.349 . S
C637 C653 1.349 . S
C638 C636 1.327 . S
C638 C657 1.429 . S
C638 H662 0.950 . S
C639 C656 1.574 . S
C639 C658 1.368 . S
C639 H663 0.949 . S
H640 C644 0.949 . S
C641 C642 1.349 . S
C641 C643 1.327 . S
C641 H664 0.950 . S
C642 C641 1.349 . S
C642 C654 1.349 . S
C643 C641 1.327 . S
C643 C659 1.429 . S
C643 H665 0.950 . S
C644 H640 0.949 . S
C644 C652 1.574 . S
C644 C660 1.368 . S
H645 C653 0.950 . S
H646 C651 0.950 . S
H647 C652 0.949 . S
H648 C654 0.950 . S
H649 C655 0.950 . S
H650 C656 0.949 . S
C651 H646 0.950 . S
C651 C653 1.327 . S
C651 C657 1.429 . S
C652 C644 1.574 . S
C652 H647 0.949 . S
C652 C658 1.368 . S
C653 C637 1.349 . S
C653 H645 0.950 . S
C653 C651 1.327 . S
C654 C642 1.349 . S
C654 H648 0.950 . S
C654 C655 1.327 . S
C655 H649 0.950 . S
C655 C654 1.327 . S
C655 C659 1.429 . S
C656 C639 1.574 . S
C656 H650 0.949 . S
C656 C660 1.368 . S
C657 C638 1.429 . S
C657 C651 1.429 . S
C657 C658 1.523 . S
C658 C639 1.368 . S
C658 C652 1.368 . S
C658 C657 1.523 . S
C659 C643 1.429 . S
C659 C655 1.429 . S
C659 C660 1.523 . S
C660 C644 1.368 . S
C660 C656 1.368 . S
C660 C659 1.523 . S
H661 C636 0.950 . S
H662 C638 0.950 . S
H663 C639 0.949 . S
H664 C641 0.950 . S
H665 C643 0.950 . S
C127 C8 2.066 . S
C132 C125 2.107 . S
C157 C26 1.366 . S
C162 C103 1.363 . S
C187 C48 1.542 . S
C192 C114 1.570 . S
C217 C19 1.643 . S
C222 C119 1.684 . S
C252 C97 1.344 . S
C247 C36 1.340 . S
C282 C108 1.544 . S
C277 C59 1.490 . S
C307 C28 1.559 . S
C312 C81 1.596 . S
C337 C46 1.101 . S
C342 C86 1.103 . S
C367 C16 1.358 . S
C372 C64 1.356 1_565 S
C402 C75 1.520 . S
C397 C39 1.480 . S
C432 C92 1.022 . S
C427 C56 1.014 . S
C457 C6 1.381 . S
C462 C70 1.372 . S
C492 C87 1.451 . S
C487 C9 1.442 . S
C517 C21 1.528 . S
C522 C65 1.539 . S
C547 C49 1.515 . S
C552 C76 1.510 . S
C582 C109 1.501 . S
C577 C29 1.507 . S
C612 C120 1.615 . S
C607 C41 1.586 . S
C637 C1 1.500 . S
C642 C98 1.506 . S
