# Generated by pormake.
# Topology pts, (4,4)-cn, num edge types: 1
# Building blocks:
#     Node 0, Type 0, BuildingBlock: MIFKUJ_clean_linker_1, # of connection points: 4
#     Node 1, Type 0, BuildingBlock: MIFKUJ_clean_linker_1, # of connection points: 4
#     Node 2, Type 1, BuildingBlock: QUQFOY_clean_sbu_1, # of connection points: 4
#     Node 3, Type 1, BuildingBlock: QUQFOY_clean_sbu_1, # of connection points: 4
#     Edge 4, Type (0, 1), BuildingBlock: MIFKUJ_clean_linker_0, # of connection points: 2
#     Edge 5, Type (0, 1), BuildingBlock: MIFKUJ_clean_linker_0, # of connection points: 2
#     Edge 6, Type (0, 1), BuildingBlock: MIFKUJ_clean_linker_0, # of connection points: 2
#     Edge 7, Type (0, 1), BuildingBlock: MIFKUJ_clean_linker_0, # of connection points: 2
#     Edge 8, Type (0, 1), BuildingBlock: MIFKUJ_clean_linker_0, # of connection points: 2
#     Edge 9, Type (0, 1), BuildingBlock: MIFKUJ_clean_linker_0, # of connection points: 2
#     Edge 10, Type (0, 1), BuildingBlock: MIFKUJ_clean_linker_0, # of connection points: 2
#     Edge 11, Type (0, 1), BuildingBlock: MIFKUJ_clean_linker_0, # of connection points: 2
# Relax obj value: 0.096
# Max RMSD: 0.260
# Mean RMSD: 0.154
data_MOF--net-pts--node1-QUQFOY_clean_sbu_1--node2-MIFKUJ_clean_linker_1--edge1-MIFKUJ_clean_linker_0
_symmetry_space_group_name_H-M    P1
_symmetry_Int_Tables_number       1
_symmetry_cell_setting            triclinic
loop_
_symmetry_equiv_pos_as_xyz
'x, y, z'
_cell_length_a     35.310751
_cell_length_b     38.822371
_cell_length_c     54.871085
_cell_angle_alpha  90.02811
_cell_angle_beta   90.008612
_cell_angle_gamma 89.981196
loop_
_atom_site_label
_atom_site_type_symbol
_atom_site_fract_x
_atom_site_fract_y
_atom_site_fract_z
_atom_type_partial_charge
H0 H 0.55459 0.95827 0.0458 0.0
H1 H 0.60989 0.95822 0.07238 0.0
H2 H 0.64863 0.05269 0.03898 0.0
H3 H 0.59219 0.05339 0.01316 0.0
H4 H 0.4995 0.00237 0.04549 0.0
H5 H 0.59001 0.96402 0.98691 0.0
H6 H 0.64515 0.96243 0.96007 0.0
H7 H 0.60785 0.05694 0.92598 0.0
H8 H 0.55411 0.05936 0.95374 0.0
H9 H 0.44139 0.06371 0.95732 0.0
H10 H 0.38584 0.06439 0.93081 0.0
H11 H 0.35009 0.96671 0.96074 0.0
H12 H 0.4064 0.96573 0.98674 0.0
H13 H 0.49754 0.01777 0.95588 0.0
H14 H 0.40738 0.05584 0.01625 0.0
H15 H 0.35181 0.05503 0.0429 0.0
H16 H 0.38821 0.95729 0.07245 0.0
H17 H 0.44287 0.95773 0.04525 0.0
C18 C 0.56925 0.00575 0.0274 0.0
C19 C 0.57509 0.97889 0.04411 0.0
C20 C 0.60695 0.97874 0.05916 0.0
C21 C 0.63377 0.00545 0.05783 0.0
C22 C 0.62833 0.03193 0.04067 0.0
C23 C 0.59629 0.03215 0.02568 0.0
C24 C 0.53358 0.00724 0.01312 0.0
C25 C 0.49913 0.00522 0.02582 0.0
C26 C 0.53304 0.01191 0.98755 0.0
C27 C 0.56804 0.01199 0.97253 0.0
C28 C 0.59421 0.98483 0.97405 0.0
C29 C 0.62547 0.9837 0.95843 0.0
C30 C 0.63093 0.00947 0.94074 0.0
C31 C 0.60495 0.03691 0.93957 0.0
C32 C 0.57394 0.03817 0.95531 0.0
C33 C 0.42796 0.01477 0.97409 0.0
C34 C 0.42141 0.04258 0.95831 0.0
C35 C 0.3895 0.04305 0.9433 0.0
C36 C 0.36355 0.01559 0.94366 0.0
C37 C 0.36974 0.98809 0.95988 0.0
C38 C 0.40169 0.98766 0.97493 0.0
C39 C 0.46366 0.01305 0.98828 0.0
C40 C 0.49806 0.01499 0.97555 0.0
C41 C 0.4642 0.00802 0.01378 0.0
C42 C 0.42913 0.00672 0.02863 0.0
C43 C 0.40298 0.03395 0.02815 0.0
C44 C 0.37147 0.03364 0.04358 0.0
C45 C 0.36563 0.00613 0.05985 0.0
C46 C 0.39156 0.97864 0.05995 0.0
C47 C 0.42299 0.97897 0.04453 0.0
H48 H 0.05149 0.44753 0.45343 0.0
H49 H 0.0488 0.39313 0.43098 0.0
H50 H 0.94544 0.36648 0.46873 0.0
H51 H 0.9486 0.42071 0.49127 0.0
H52 H 0.00224 0.50206 0.45599 0.0
H53 H 0.05879 0.42183 0.51172 0.0
H54 H 0.0616 0.36683 0.53344 0.0
H55 H 0.95642 0.3913 0.56975 0.0
H56 H 0.95357 0.44617 0.54774 0.0
H57 H 0.95455 0.55367 0.54981 0.0
H58 H 0.95519 0.60733 0.57315 0.0
H59 H 0.05541 0.63995 0.53437 0.0
H60 H 0.05485 0.58605 0.51121 0.0
H61 H 0.00399 0.50181 0.54644 0.0
H62 H 0.95154 0.58612 0.49122 0.0
H63 H 0.95114 0.64003 0.46812 0.0
H64 H 0.05193 0.60755 0.42983 0.0
H65 H 0.05228 0.55383 0.45303 0.0
C66 C 0.00043 0.43805 0.47414 0.0
C67 C 0.02819 0.43 0.45677 0.0
C68 C 0.02655 0.39892 0.44393 0.0
C69 C 0.99694 0.37537 0.4481 0.0
C70 C 0.96898 0.38371 0.46538 0.0
C71 C 0.97066 0.41478 0.4782 0.0
C72 C 0.00276 0.47058 0.48828 0.0
C73 C 0.0031 0.50208 0.47575 0.0
C74 C 0.0034 0.47053 0.51404 0.0
C75 C 0.00586 0.43796 0.52804 0.0
C76 C 0.03635 0.41532 0.52437 0.0
C77 C 0.03801 0.38401 0.53685 0.0
C78 C 0.00915 0.37471 0.55321 0.0
C79 C 0.97882 0.39759 0.55703 0.0
C80 C 0.97732 0.42904 0.54466 0.0
C81 C 0.0044 0.56595 0.52858 0.0
C82 C 0.9768 0.57227 0.54644 0.0
C83 C 0.97723 0.60293 0.55977 0.0
C84 C 0.0053 0.62791 0.55555 0.0
C85 C 0.03311 0.62143 0.53779 0.0
C86 C 0.03283 0.59062 0.52457 0.0
C87 C 0.00326 0.53355 0.51418 0.0
C88 C 0.00314 0.50196 0.52667 0.0
C89 C 0.00313 0.5336 0.48835 0.0
C90 C 0.00217 0.56605 0.47403 0.0
C91 C 0.97369 0.59073 0.47797 0.0
C92 C 0.97353 0.62155 0.46479 0.0
C93 C 0.00154 0.62809 0.44718 0.0
C94 C 0.02972 0.60313 0.44307 0.0
C95 C 0.02999 0.57243 0.45634 0.0
O96 O 0.94876 0.97435 0.24079 0.0
Cd97 Cd 0.99828 0.96614 0.25979 0.0
Cd98 Cd -0.00061 0.03741 0.26105 0.0
O99 O 0.95027 0.03116 0.24105 0.0
O100 O 0.99829 0.9159 0.26691 0.0
O101 O 0.99804 0.95552 0.29584 0.0
C102 C 0.99834 0.92335 0.28979 0.0
C103 C 0.99831 0.07938 0.2917 0.0
C104 C 0.93449 0.00314 0.23468 0.0
C105 C 0.06438 0.0017 0.23599 0.0
O106 O 0.05005 0.03007 0.24296 0.0
O107 O 0.0481 0.97338 0.24094 0.0
O108 O 0.00017 0.08741 0.26896 0.0
O109 O 0.99707 0.04708 0.29727 0.0
O110 O 0.94552 0.02951 0.75807 0.0
Cd111 Cd 0.99623 0.03867 0.74067 0.0
Cd112 Cd 0.00033 0.96754 0.74185 0.0
O113 O 0.94966 0.97295 0.76025 0.0
O114 O 0.99252 0.08831 0.73196 0.0
O115 O 0.00015 0.04729 0.70442 0.0
C116 C 0.99628 0.07961 0.70944 0.0
C117 C 0.00269 0.92442 0.7121 0.0
C118 C 0.93212 1.00075 0.76494 0.0
C119 C 0.06191 0.0072 0.76758 0.0
O120 O 0.04937 0.97796 0.76098 0.0
O121 O 0.0447 0.03465 0.76149 0.0
O122 O 0.0029 0.91727 0.73502 0.0
O123 O 0.0015 0.95649 0.70587 0.0
H124 H 0.31987 0.95239 0.07313 0.0
H125 H 0.26967 0.9524 0.10375 0.0
H126 H 0.28787 0.06083 0.11642 0.0
H127 H 0.33911 0.06073 0.08643 0.0
H128 H 0.2817 0.02681 0.15859 0.0
H129 H 0.21126 0.03271 0.08425 0.0
H130 H 0.1921 0.01526 0.04283 0.0
H131 H 0.15733 0.91643 0.06987 0.0
H132 H 0.17679 0.93312 0.11142 0.0
H133 H 0.1089 0.05673 0.22348 0.0
H134 H 0.16158 0.05742 0.19456 0.0
H135 H 0.14974 0.94787 0.18396 0.0
H136 H 0.09704 0.94687 0.21278 0.0
H137 H 0.15251 0.98336 0.1408 0.0
H138 H 0.22332 0.97829 0.21542 0.0
H139 H 0.24208 0.9967 0.2567 0.0
H140 H 0.27532 0.09551 0.22885 0.0
H141 H 0.25625 0.07785 0.18743 0.0
C142 C 0.31329 0.97622 0.08249 0.0
C143 C 0.33349 0.00657 0.07732 0.0
C144 C 0.28435 0.97626 0.09983 0.0
C145 C 0.27478 0.0067 0.11222 0.0
C146 C 0.29474 0.03707 0.10703 0.0
C147 C 0.32375 0.03705 0.08971 0.0
C148 C 0.24447 0.00662 0.13094 0.0
C149 C 0.25329 0.01779 0.15461 0.0
C150 C 0.20764 0.99416 0.12587 0.0
C151 C 0.19583 0.98406 0.10091 0.0
C152 C 0.19981 0.00715 0.08133 0.0
C153 C 0.18885 0.99741 0.05784 0.0
C154 C 0.1736 0.96472 0.05371 0.0
C155 C 0.16919 0.94173 0.07309 0.0
C156 C 0.18015 0.95133 0.09662 0.0
C157 C 0.11776 0.0327 0.21522 0.0
C158 C 0.09866 0.00175 0.22042 0.0
C159 C 0.14793 0.03314 0.19874 0.0
C160 C 0.15956 0.00268 0.18715 0.0
C161 C 0.14112 0.97166 0.19268 0.0
C162 C 0.11111 0.97114 0.20925 0.0
C163 C 0.18981 0.0034 0.16844 0.0
C164 C 0.18093 0.99239 0.14475 0.0
C165 C 0.22649 0.01617 0.17347 0.0
C166 C 0.23798 0.02686 0.19836 0.0
C167 C 0.23431 0.00405 0.21813 0.0
C168 C 0.24507 0.01433 0.24155 0.0
C169 C 0.25978 0.04729 0.24541 0.0
C170 C 0.26386 0.07001 0.22584 0.0
C171 C 0.25311 0.05986 0.20239 0.0
H172 H 0.26811 0.0552 0.26355 0.0
H173 H 0.16512 0.95724 0.03551 0.0
H174 H 0.07012 0.34595 0.57616 0.0
H175 H 0.07236 0.29179 0.59897 0.0
H176 H 0.95422 0.27436 0.58319 0.0
H177 H 0.95193 0.32829 0.56011 0.0
H178 H 0.03384 0.27523 0.6393 0.0
H179 H 0.93997 0.18679 0.57785 0.0
H180 H 0.92744 0.17802 0.53404 0.0
H181 H 0.03575 0.2216 0.51641 0.0
H182 H 0.0492 0.23012 0.56007 0.0
H183 H 0.96414 0.14299 0.71152 0.0
H184 H 0.9685 0.18926 0.68165 0.0
H185 H 0.03519 0.12384 0.63469 0.0
H186 H 0.02923 0.07662 0.66422 0.0
H187 H 0.99095 0.16191 0.60777 0.0
H188 H 0.07696 0.18568 0.6727 0.0
H189 H 0.09711 0.19322 0.71541 0.0
H190 H 0.01876 0.27701 0.72377 0.0
H191 H 0.99777 0.26967 0.6812 0.0
C192 C 0.04476 0.33034 0.5773 0.0
C193 C 0.01082 0.34138 0.56641 0.0
C194 C 0.04604 0.29952 0.59042 0.0
C195 C 0.01354 0.27895 0.59264 0.0
C196 C 0.97975 0.28964 0.58148 0.0
C197 C 0.97838 0.3206 0.56851 0.0
C198 C 0.0143 0.24732 0.60781 0.0
C199 C 0.02458 0.25043 0.63238 0.0
C200 C 0.00319 0.21479 0.5986 0.0
C201 C 0.99539 0.20942 0.57227 0.0
C202 C 0.96117 0.19438 0.56464 0.0
C203 C 0.95391 0.18946 0.53981 0.0
C204 C 0.98073 0.19934 0.52244 0.0
C205 C 0.01493 0.21407 0.52986 0.0
C206 C 0.02235 0.219 0.55465 0.0
C207 C 0.97948 0.13834 0.69474 0.0
C208 C 0.99674 0.10636 0.6903 0.0
C209 C 0.98212 0.16488 0.67771 0.0
C210 C 0.0031 0.16043 0.65619 0.0
C211 C 0.01908 0.128 0.65123 0.0
C212 C 0.01573 0.10107 0.66811 0.0
C213 C 0.00929 0.1901 0.6395 0.0
C214 C 0.00038 0.18666 0.61465 0.0
C215 C 0.02277 0.22221 0.64826 0.0
C216 C 0.03564 0.22697 0.6738 0.0
C217 C 0.0639 0.2056 0.68368 0.0
C218 C 0.07548 0.20985 0.70787 0.0
C219 C 0.05919 0.23555 0.7223 0.0
C220 C 0.03135 0.25711 0.71256 0.0
C221 C 0.01964 0.25295 0.6884 0.0
H222 H 0.06817 0.23877 0.74102 0.0
H223 H 0.97506 0.19553 0.50324 0.0
H224 H 0.67724 0.95134 0.07362 0.0
H225 H 0.72723 0.95231 0.10442 0.0
H226 H 0.71438 0.0623 0.11166 0.0
H227 H 0.66375 0.06153 0.08128 0.0
H228 H 0.78961 0.04168 0.10993 0.0
H229 H 0.67612 0.01197 0.15332 0.0
H230 H 0.6181 0.97852 0.16132 0.0
H231 H 0.68435 0.88659 0.17009 0.0
H232 H 0.74276 0.91941 0.16178 0.0
H233 H 0.89524 0.05971 0.21875 0.0
H234 H 0.84304 0.06113 0.18953 0.0
H235 H 0.84579 0.95026 0.18451 0.0
H236 H 0.89745 0.94851 0.21406 0.0
H237 H 0.77463 0.97274 0.18547 0.0
H238 H 0.88756 1.00094 0.14102 0.0
H239 H 0.9461 0.03324 0.13222 0.0
H240 H 0.88183 0.12653 0.12459 0.0
H241 H 0.82292 0.09485 0.13369 0.0
C242 C 0.68489 0.97574 0.08183 0.0
C243 C 0.66626 0.00633 0.07508 0.0
C244 C 0.71354 0.97624 0.09937 0.0
C245 C 0.72415 0.00732 0.11051 0.0
C246 C 0.70657 0.03805 0.10327 0.0
C247 C 0.67777 0.03756 0.0858 0.0
C248 C 0.7531 0.00761 0.13005 0.0
C249 C 0.78615 0.02701 0.12661 0.0
C250 C 0.74884 0.98786 0.15154 0.0
C251 C 0.71378 0.96809 0.15669 0.0
C252 C 0.67829 0.98457 0.15676 0.0
C253 C 0.64534 0.96573 0.16138 0.0
C254 C 0.64753 0.93043 0.16615 0.0
C255 C 0.68269 0.91392 0.16636 0.0
C256 C 0.71574 0.93263 0.16172 0.0
C257 C 0.88455 0.03558 0.21161 0.0
C258 C 0.90074 0.004 0.21863 0.0
C259 C 0.85482 0.03647 0.1948 0.0
C260 C 0.84098 0.00584 0.1845 0.0
C261 C 0.85613 0.97422 0.19215 0.0
C262 C 0.88572 0.97329 0.20904 0.0
C263 C 0.81133 0.00671 0.16534 0.0
C264 C 0.7781 0.98751 0.16884 0.0
C265 C 0.81554 0.0265 0.14382 0.0
C266 C 0.8509 0.04559 0.13829 0.0
C267 C 0.88595 0.0284 0.13766 0.0
C268 C 0.91919 0.04658 0.13258 0.0
C269 C 0.9177 0.08194 0.12792 0.0
C270 C 0.88294 0.09916 0.12825 0.0
C271 C 0.84962 0.0811 0.13335 0.0
H272 H 0.94346 0.09597 0.12399 0.0
H273 H 0.62198 0.91589 0.16973 0.0
H274 H 0.99442 0.63584 0.60448 0.0
H275 H 0.99323 0.68937 0.62783 0.0
H276 H 0.01562 0.74725 0.5623 0.0
H277 H 0.01713 0.69355 0.53878 0.0
H278 H 0.05688 0.77156 0.59936 0.0
H279 H 0.92673 0.74517 0.58662 0.0
H280 H 0.86928 0.7091 0.58624 0.0
H281 H 0.87663 0.69678 0.66386 0.0
H282 H 0.93447 0.73238 0.66468 0.0
H283 H 0.00949 0.92961 0.66231 0.0
H284 H 0.00955 0.88232 0.63255 0.0
H285 H 0.99691 0.80888 0.69093 0.0
H286 H 0.99687 0.85561 0.72059 0.0
H287 H 0.94744 0.797 0.65315 0.0
H288 H 0.08119 0.81998 0.66448 0.0
H289 H 0.13834 0.85647 0.66419 0.0
H290 H 0.12254 0.87666 0.58793 0.0
H291 H 0.06496 0.84063 0.58785 0.0
C292 C -0.00115 0.65997 0.595 0.0
C293 C 0.00556 0.66049 0.56976 0.0
C294 C 0.99816 0.69057 0.60836 0.0
C295 C 0.00367 0.72241 0.59675 0.0
C296 C 0.01119 0.723 0.57163 0.0
C297 C 0.01211 0.69231 0.55823 0.0
C298 C 0.00155 0.75491 0.61099 0.0
C299 C 0.03265 0.77745 0.61078 0.0
C300 C 0.97006 0.76252 0.62605 0.0
C301 C 0.93512 0.74125 0.62568 0.0
C302 C 0.91625 0.73458 0.60359 0.0
C303 C 0.88359 0.71424 0.6033 0.0
C304 C 0.86936 0.7006 0.625 0.0
C305 C 0.88771 0.70735 0.64706 0.0
C306 C 0.92041 0.72764 0.64745 0.0
C307 C 0.00678 0.90337 0.66876 0.0
C308 C 0.00322 0.89636 0.69381 0.0
C309 C 0.00692 0.87641 0.65177 0.0
C310 C 0.00334 0.8421 0.65957 0.0
C311 C -0.00038 0.83516 0.68452 0.0
C312 C -0.00025 0.86195 0.70146 0.0
C313 C 0.00311 0.8131 0.64195 0.0
C314 C 0.97146 0.79129 0.64149 0.0
C315 C 0.03393 0.80636 0.62618 0.0
C316 C 0.06853 0.82797 0.62623 0.0
C317 C 0.08971 0.83246 0.6477 0.0
C318 C 0.12222 0.853 0.64759 0.0
C319 C 0.134 0.86897 0.62607 0.0
C320 C 0.11334 0.86434 0.60459 0.0
C321 C 0.08078 0.84385 0.60461 0.0
H322 H 0.15918 0.88485 0.62603 0.0
H323 H 0.84407 0.68486 0.62473 0.0
H324 H 0.33748 0.96085 0.91715 0.0
H325 H 0.28661 0.96047 0.88697 0.0
H326 H 0.26672 0.06858 0.89991 0.0
H327 H 0.31687 0.06892 0.93071 0.0
H328 H 0.20101 0.03353 0.89629 0.0
H329 H 0.31573 0.04271 0.85029 0.0
H330 H 0.38013 0.02642 0.8373 0.0
H331 H 0.33908 0.92797 0.81332 0.0
H332 H 0.27448 0.94349 0.8265 0.0
H333 H 0.09074 0.0641 0.79049 0.0
H334 H 0.14285 0.06627 0.81977 0.0
H335 H 0.16094 0.95713 0.81083 0.0
H336 H 0.10892 0.95465 0.78146 0.0
H337 H 0.22792 0.99398 0.81202 0.0
H338 H 0.11329 0.98491 0.85893 0.0
H339 H 0.04899 0.00176 0.87179 0.0
H340 H 0.09033 0.10103 0.89379 0.0
H341 H 0.15483 0.08493 0.88073 0.0
C342 C 0.32191 0.98443 0.91386 0.0
C343 C 0.33128 0.01495 0.92629 0.0
C344 C 0.29312 0.98426 0.8964 0.0
C345 C 0.27328 0.01463 0.89092 0.0
C346 C 0.28183 0.04491 0.90376 0.0
C347 C 0.31065 0.04512 0.92123 0.0
C348 C 0.24382 0.01481 0.87165 0.0
C349 C 0.20703 0.02536 0.87778 0.0
C350 C 0.25153 0.00354 0.84761 0.0
C351 C 0.29033 0.99414 0.83961 0.0
C352 C 0.32048 0.01748 0.84243 0.0
C353 C 0.35702 0.0084 0.835 0.0
C354 C 0.36371 0.97614 0.82455 0.0
C355 C 0.33386 0.95293 0.82145 0.0
C356 C 0.29728 0.96186 0.82888 0.0
C357 C 0.10599 0.04059 0.79456 0.0
C358 C 0.09548 0.00915 0.78373 0.0
C359 C 0.13566 0.04187 0.81138 0.0
C360 C 0.1554 0.01178 0.81768 0.0
C361 C 0.14596 0.98062 0.80625 0.0
C362 C 0.11615 0.97926 0.78952 0.0
C363 C 0.18517 0.0126 0.8367 0.0
C364 C 0.22199 0.00224 0.83052 0.0
C365 C 0.17753 0.02414 0.86067 0.0
C366 C 0.1388 0.03385 0.86861 0.0
C367 C 0.10861 0.01044 0.86632 0.0
C368 C 0.07214 0.01984 0.87368 0.0
C369 C 0.06556 0.05248 0.88353 0.0
C370 C 0.09546 0.07577 0.88611 0.0
C371 C 0.13199 0.06652 0.87875 0.0
H372 H 0.03731 0.05971 0.88923 0.0
H373 H 0.39202 0.96917 0.8188 0.0
H374 H 0.97703 0.31124 0.46493 0.0
H375 H 0.9727 0.2576 0.44164 0.0
H376 H 0.00898 0.31125 0.37689 0.0
H377 H 0.01193 0.36509 0.39975 0.0
H378 H 0.94956 0.27001 0.36765 0.0
H379 H 0.07019 0.25888 0.41083 0.0
H380 H 0.10871 0.25742 0.44834 0.0
H381 H 0.04231 0.17303 0.47538 0.0
H382 H 0.00324 0.17418 0.43808 0.0
H383 H 0.01227 0.14757 0.28523 0.0
H384 H 0.00834 0.1936 0.3152 0.0
H385 H 0.97736 0.12003 0.37062 0.0
H386 H 0.98226 0.07326 0.34058 0.0
H387 H 0.0255 0.16667 0.38878 0.0
H388 H 0.91001 0.17174 0.34505 0.0
H389 H 0.868 0.17268 0.30917 0.0
H390 H 0.91866 0.26739 0.28534 0.0
H391 H 0.96138 0.26677 0.32091 0.0
C392 C 0.98378 0.31167 0.44568 0.0
C393 C 0.99493 0.34249 0.43422 0.0
C394 C 0.98164 0.2809 0.43245 0.0
C395 C 0.99089 0.28032 0.40757 0.0
C396 C 0.00181 0.31106 0.39609 0.0
C397 C 0.00384 0.34178 0.40925 0.0
C398 C 0.98898 0.24796 0.39318 0.0
C399 C 0.96641 0.24752 0.37215 0.0
C400 C 0.00955 0.21802 0.39968 0.0
C401 C 0.03366 0.21678 0.42177 0.0
C402 C 0.06376 0.24009 0.42481 0.0
C403 C 0.08569 0.2393 0.44602 0.0
C404 C 0.07792 0.21518 0.46425 0.0
C405 C 0.04831 0.19169 0.46125 0.0
C406 C 0.02631 0.19235 0.44006 0.0
C407 C 0.00467 0.14104 0.30379 0.0
C408 C 0.99722 0.10677 0.31048 0.0
C409 C 0.00227 0.16747 0.32091 0.0
C410 C 0.99171 0.16043 0.34506 0.0
C411 C 0.98529 0.1261 0.35205 0.0
C412 C 0.98804 0.09944 0.33488 0.0
C413 C 0.98727 0.18928 0.36266 0.0
C414 C 0.00836 0.189 0.38436 0.0
C415 C 0.96484 0.21847 0.357 0.0
C416 C 0.93908 0.21908 0.33559 0.0
C417 C 0.91238 0.19265 0.33208 0.0
C418 C 0.88841 0.19314 0.3118 0.0
C419 C 0.8907 0.22005 0.29497 0.0
C420 C 0.91692 0.24656 0.2984 0.0
C421 C 0.94099 0.24618 0.31863 0.0
H422 H 0.87212 0.22038 0.27928 0.0
H423 H 0.09486 0.21467 0.48069 0.0
H424 H 0.65886 0.95169 0.91823 0.0
H425 H 0.70899 0.94834 0.88763 0.0
H426 H 0.72374 0.05845 0.89134 0.0
H427 H 0.6745 0.06203 0.92253 0.0
H428 H 0.71745 0.03302 0.84358 0.0
H429 H 0.78722 0.00918 0.9172 0.0
H430 H 0.80064 0.9784 0.95554 0.0
H431 H 0.81258 0.88345 0.91611 0.0
H432 H 0.79868 0.9136 0.87755 0.0
H433 H 0.89167 0.05554 0.78234 0.0
H434 H 0.83835 0.0544 0.81052 0.0
H435 H 0.84024 0.94327 0.81008 0.0
H436 H 0.8943 0.94416 0.78224 0.0
H437 H 0.8359 0.96623 0.85519 0.0
H438 H 0.76908 0.98897 0.7815 0.0
H439 H 0.75464 0.01837 0.74278 0.0
H440 H 0.7354 0.11309 0.78127 0.0
H441 H 0.75024 0.08437 0.82022 0.0
C442 C 0.6732 0.97516 0.91292 0.0
C443 C 0.66259 0.00716 0.92291 0.0
C444 C 0.70168 0.97319 0.89529 0.0
C445 C 0.72002 0.00315 0.88726 0.0
C446 C 0.70972 0.03507 0.89722 0.0
C447 C 0.68147 0.03705 0.91498 0.0
C448 C 0.74963 0.00129 0.8682 0.0
C449 C 0.74357 0.01876 0.84617 0.0
C450 C 0.78304 0.98172 0.87136 0.0
C451 C 0.7915 0.96358 0.89452 0.0
C452 C 0.79236 0.98168 0.91673 0.0
C453 C 0.80013 0.96436 0.93849 0.0
C454 C 0.80734 0.92897 0.93827 0.0
C455 C 0.80692 0.91085 0.91626 0.0
C456 C 0.79913 0.92804 0.89444 0.0
C457 C 0.88051 0.0308 0.78797 0.0
C458 C 0.89733 0.99993 0.78002 0.0
C459 C 0.84988 0.0302 0.80404 0.0
C460 C 0.83504 0.99874 0.81227 0.0
C461 C 0.85122 0.96785 0.80398 0.0
C462 C 0.88204 0.96842 0.78798 0.0
C463 C 0.80398 0.99825 0.83051 0.0
C464 C 0.80971 0.98033 0.85243 0.0
C465 C 0.77009 0.01717 0.82715 0.0
C466 C 0.76111 0.03457 0.80376 0.0
C467 C 0.76207 0.01614 0.78169 0.0
C468 C 0.75375 0.03267 0.75971 0.0
C469 C 0.74419 0.06759 0.75956 0.0
C470 C 0.74284 0.08604 0.78141 0.0
C471 C 0.75116 0.06964 0.80346 0.0
H472 H 0.73776 0.08034 0.74252 0.0
H473 H 0.81336 0.91561 0.95514 0.0
H474 H 0.01377 0.63613 0.39837 0.0
H475 H 0.0147 0.68962 0.37503 0.0
H476 H 0.9896 0.74731 0.44028 0.0
H477 H 0.98852 0.69366 0.46381 0.0
H478 H 0.94827 0.77036 0.40272 0.0
H479 H 0.07882 0.74715 0.41679 0.0
H480 H 0.13733 0.71252 0.41781 0.0
H481 H 0.13225 0.69972 0.34015 0.0
H482 H 0.07337 0.73386 0.33869 0.0
H483 H 0.99098 0.9289 0.33952 0.0
H484 H 0.99256 0.88199 0.36953 0.0
H485 H 0.00929 0.80839 0.31161 0.0
H486 H 0.00774 0.85475 0.28171 0.0
H487 H 0.05813 0.79814 0.34991 0.0
H488 H 0.92397 0.81732 0.33717 0.0
H489 H 0.86561 0.85223 0.33668 0.0
H490 H 0.87891 0.87382 0.41297 0.0
H491 H 0.93767 0.83938 0.41382 0.0
C492 C 0.00875 0.66021 0.40781 0.0
C493 C 0.00135 0.66067 0.43298 0.0
C494 C 0.00927 0.69079 0.39444 0.0
C495 C 0.00284 0.72256 0.40597 0.0
C496 C 0.99474 0.72311 0.43102 0.0
C497 C 0.99405 0.69244 0.44442 0.0
C498 C 0.00437 0.75503 0.39169 0.0
C499 C 0.97258 0.77677 0.39153 0.0
C500 C 0.03596 0.76329 0.37691 0.0
C501 C 0.0715 0.74287 0.37766 0.0
C502 C 0.09002 0.73675 0.39994 0.0
C503 C 0.12328 0.71723 0.4006 0.0
C504 C 0.13846 0.70387 0.37906 0.0
C505 C 0.12045 0.71007 0.35682 0.0
C506 C 0.08715 0.72954 0.35606 0.0
C507 C 0.99499 0.90271 0.33323 0.0
C508 C -0.00084 0.89555 0.30824 0.0
C509 C 0.99579 0.87596 0.35036 0.0
C510 C 0.00092 0.84171 0.34276 0.0
C511 C 0.00539 0.83463 0.31787 0.0
C512 C 0.00433 0.8612 0.30079 0.0
C513 C 0.00172 0.81291 0.36051 0.0
C514 C 0.03404 0.79191 0.36135 0.0
C515 C 0.97075 0.8055 0.376 0.0
C516 C 0.93544 0.82615 0.37549 0.0
C517 C 0.91463 0.82978 0.35379 0.0
C518 C 0.88145 0.84942 0.35346 0.0
C519 C 0.86863 0.86533 0.37476 0.0
C520 C 0.88892 0.86154 0.39647 0.0
C521 C 0.92215 0.84196 0.39689 0.0
H522 H 0.84292 0.88051 0.37447 0.0
H523 H 0.16422 0.68877 0.37961 0.0
loop_
_geom_bond_atom_site_label_1
_geom_bond_atom_site_label_2
_geom_bond_distance
_geom_bond_site_symmetry_2
_ccdc_geom_bond_type
H0 C19 0.949 . S
H1 C20 0.950 . S
H2 C22 0.950 . S
H3 C23 0.950 . S
H4 C25 0.950 . S
H5 C28 0.950 . S
H6 C29 0.950 . S
H7 C31 0.951 . S
H8 C32 0.949 . S
H9 C34 0.949 . S
H10 C35 0.950 . S
H11 C37 0.950 . S
H12 C38 0.950 . S
H13 C40 0.950 . S
H14 C43 0.950 . S
H15 C44 0.950 . S
H16 C46 0.951 . S
H17 C47 0.949 . S
C18 C19 1.373 1_545 S
C18 C23 1.389 . S
C18 C24 1.483 . S
C19 H0 0.949 . S
C19 C18 1.373 1_565 S
C19 C20 1.397 . S
C20 H1 0.950 . S
C20 C19 1.397 . S
C20 C21 1.391 1_565 S
C21 C20 1.391 1_545 S
C21 C22 1.405 . S
C22 H2 0.950 . S
C22 C21 1.405 . S
C22 C23 1.367 . S
C23 H3 0.950 . S
C23 C18 1.389 . S
C23 C22 1.367 . S
C24 C18 1.483 . S
C24 C25 1.381 1_545 S
C24 C26 1.404 1_554 S
C25 H4 0.950 . S
C25 C24 1.381 1_565 S
C25 C41 1.411 1_565 S
C26 C24 1.404 1_556 S
C26 C27 1.489 . S
C26 C40 1.411 . S
C27 C26 1.489 . S
C27 C28 1.383 1_545 S
C27 C32 1.382 . S
C28 H5 0.950 . S
C28 C27 1.383 1_565 S
C28 C29 1.395 . S
C29 H6 0.950 . S
C29 C28 1.395 . S
C29 C30 1.288 1_565 S
C30 C29 1.288 1_545 S
C30 C31 1.392 . S
C31 H7 0.951 . S
C31 C30 1.392 . S
C31 C32 1.392 . S
C32 H8 0.949 . S
C32 C27 1.382 . S
C32 C31 1.392 . S
C33 C34 1.376 . S
C33 C38 1.386 1_545 S
C33 C39 1.483 . S
C34 H9 0.949 . S
C34 C33 1.376 . S
C34 C35 1.397 . S
C35 H10 0.950 . S
C35 C34 1.397 . S
C35 C36 1.391 . S
C36 C35 1.391 . S
C36 C37 1.405 1_545 S
C37 H11 0.950 . S
C37 C36 1.405 1_565 S
C37 C38 1.367 . S
C38 H12 0.950 . S
C38 C33 1.386 1_565 S
C38 C37 1.367 . S
C39 C33 1.483 . S
C39 C40 1.382 . S
C39 C41 1.403 1_556 S
C40 H13 0.950 . S
C40 C26 1.411 . S
C40 C39 1.382 . S
C41 C25 1.411 1_545 S
C41 C39 1.403 1_554 S
C41 C42 1.489 1_545 S
C42 C41 1.489 1_565 S
C42 C43 1.383 1_565 S
C42 C47 1.382 . S
C43 H14 0.950 . S
C43 C42 1.383 1_545 S
C43 C44 1.395 . S
C44 H15 0.950 . S
C44 C43 1.395 . S
C44 C45 1.281 1_545 S
C45 C44 1.281 1_565 S
C45 C46 1.398 . S
C46 H16 0.951 . S
C46 C45 1.398 . S
C46 C47 1.392 . S
C47 H17 0.949 . S
C47 C42 1.382 . S
C47 C46 1.392 . S
H48 C67 0.949 . S
H49 C68 0.950 . S
H50 C70 0.950 . S
H51 C71 0.950 . S
H52 C73 0.950 . S
H53 C76 0.950 . S
H54 C77 0.950 . S
H55 C79 0.951 . S
H56 C80 0.949 . S
H57 C82 0.949 . S
H58 C83 0.950 . S
H59 C85 0.950 . S
H60 C86 0.950 . S
H61 C88 0.950 . S
H62 C91 0.950 . S
H63 C92 0.950 . S
H64 C94 0.951 . S
H65 C95 0.949 . S
C66 C67 1.376 . S
C66 C71 1.386 1_455 S
C66 C72 1.483 . S
C67 H48 0.949 . S
C67 C66 1.376 . S
C67 C68 1.397 . S
C68 H49 0.950 . S
C68 C67 1.397 . S
C68 C69 1.391 . S
C69 C68 1.391 . S
C69 C70 1.405 1_455 S
C70 H50 0.950 . S
C70 C69 1.405 1_655 S
C70 C71 1.367 . S
C71 H51 0.950 . S
C71 C66 1.386 1_655 S
C71 C70 1.367 . S
C72 C66 1.483 . S
C72 C73 1.382 . S
C72 C74 1.403 1_455 S
C73 H52 0.950 . S
C73 C72 1.382 . S
C73 C89 1.411 . S
C74 C72 1.403 1_655 S
C74 C75 1.489 . S
C74 C88 1.411 . S
C75 C74 1.489 . S
C75 C76 1.383 1_655 S
C75 C80 1.382 . S
C76 H53 0.950 . S
C76 C75 1.383 1_455 S
C76 C77 1.395 . S
C77 H54 0.950 . S
C77 C76 1.395 . S
C77 C78 1.288 1_455 S
C78 C77 1.288 1_655 S
C78 C79 1.392 . S
C79 H55 0.951 . S
C79 C78 1.392 . S
C79 C80 1.392 . S
C80 H56 0.949 . S
C80 C75 1.382 . S
C80 C79 1.392 . S
C81 C82 1.376 . S
C81 C86 1.386 1_655 S
C81 C87 1.483 . S
C82 H57 0.949 . S
C82 C81 1.376 . S
C82 C83 1.397 . S
C83 H58 0.950 . S
C83 C82 1.397 . S
C83 C84 1.395 . S
C84 C83 1.395 . S
C84 C85 1.402 1_655 S
C85 H59 0.950 . S
C85 C84 1.402 1_455 S
C85 C86 1.367 . S
C86 H60 0.950 . S
C86 C81 1.386 1_455 S
C86 C85 1.367 . S
C87 C81 1.483 . S
C87 C88 1.382 . S
C87 C89 1.403 1_655 S
C88 H61 0.950 . S
C88 C74 1.411 . S
C88 C87 1.382 . S
C89 C73 1.411 . S
C89 C87 1.403 1_455 S
C89 C90 1.489 . S
C90 C89 1.489 . S
C90 C91 1.383 1_455 S
C90 C95 1.382 . S
C91 H62 0.950 . S
C91 C90 1.383 1_655 S
C91 C92 1.395 . S
C92 H63 0.950 . S
C92 C91 1.395 . S
C92 C93 1.288 1_655 S
C93 C92 1.288 1_455 S
C93 C94 1.392 . S
C94 H64 0.951 . S
C94 C93 1.392 . S
C94 C95 1.392 . S
C95 H65 0.949 . S
C95 C90 1.382 . S
C95 C94 1.392 . S
O96 Cd97 2.223 1_655 S
O96 C104 1.315 . S
Cd97 O96 2.223 1_455 S
Cd97 O100 2.297 1_455 S
Cd97 O101 2.439 1_455 S
Cd97 O107 2.240 1_565 S
Cd98 O99 2.240 1_545 S
Cd98 O106 2.223 1_655 S
Cd98 O108 2.297 1_655 S
Cd98 O109 2.439 1_655 S
O99 Cd98 2.240 1_565 S
O99 C104 1.279 . S
O100 Cd97 2.297 1_655 S
O100 C102 1.247 . S
O101 Cd97 2.439 1_655 S
O101 C102 1.208 . S
C102 O100 1.247 . S
C102 O101 1.208 . S
C103 O108 1.247 . S
C103 O109 1.208 . S
C104 O96 1.315 . S
C104 O99 1.279 . S
C105 O106 1.315 . S
C105 O107 1.279 . S
O106 Cd98 2.223 1_455 S
O106 C105 1.315 . S
O107 Cd97 2.240 1_545 S
O107 C105 1.279 . S
O108 Cd98 2.297 1_455 S
O108 C103 1.247 . S
O109 Cd98 2.439 1_455 S
O109 C103 1.208 . S
O110 Cd111 2.223 1_655 S
O110 C118 1.315 . S
Cd111 O110 2.223 1_455 S
Cd111 O114 2.297 1_455 S
Cd111 O115 2.439 1_455 S
Cd111 O121 2.240 1_545 S
Cd112 O113 2.240 1_565 S
Cd112 O120 2.223 1_655 S
Cd112 O122 2.297 1_655 S
Cd112 O123 2.439 1_655 S
O113 Cd112 2.240 1_545 S
O113 C118 1.279 . S
O114 Cd111 2.297 1_655 S
O114 C116 1.247 . S
O115 Cd111 2.439 1_655 S
O115 C116 1.208 . S
C116 O114 1.247 . S
C116 O115 1.208 . S
C117 O122 1.247 . S
C117 O123 1.208 . S
C118 O110 1.315 . S
C118 O113 1.279 . S
C119 O120 1.315 . S
C119 O121 1.279 . S
O120 Cd112 2.223 1_455 S
O120 C119 1.315 . S
O121 Cd111 2.240 1_565 S
O121 C119 1.279 . S
O122 Cd112 2.297 1_455 S
O122 C117 1.247 . S
O123 Cd112 2.439 1_455 S
O123 C117 1.208 . S
H124 C142 0.951 . S
H125 C144 0.951 . S
H126 C146 0.950 . S
H127 C147 0.950 . S
H128 C149 0.950 . S
H129 C152 0.950 . S
H130 C153 0.950 . S
H131 C155 0.950 1_565 S
H132 C156 0.950 1_565 S
H133 C157 0.951 . S
H134 C159 0.951 . S
H135 C161 0.950 . S
H136 C162 0.950 . S
H137 C164 0.950 . S
H138 C167 0.950 . S
H139 C168 0.950 . S
H140 C170 0.950 . S
H141 C171 0.950 . S
C142 H124 0.951 . S
C142 C143 1.366 1_565 S
C142 C144 1.388 . S
C143 C142 1.366 1_545 S
C143 C147 1.385 . S
C144 H125 0.951 . S
C144 C142 1.388 . S
C144 C145 1.366 1_565 S
C145 C144 1.366 1_545 S
C145 C146 1.414 . S
C145 C148 1.499 . S
C146 H126 0.950 . S
C146 C145 1.414 . S
C146 C147 1.374 . S
C147 H127 0.950 . S
C147 C143 1.385 . S
C147 C146 1.374 . S
C148 C145 1.499 . S
C148 C149 1.373 . S
C148 C150 1.389 . S
C149 H128 0.950 . S
C149 C148 1.373 . S
C149 C165 1.377 . S
C150 C148 1.389 . S
C150 C151 1.524 . S
C150 C164 1.377 . S
C151 C150 1.524 . S
C151 C152 1.397 . S
C151 C156 1.363 . S
C152 H129 0.950 . S
C152 C151 1.397 . S
C152 C153 1.334 . S
C153 H130 0.950 . S
C153 C152 1.334 . S
C153 C154 1.287 . S
C154 C153 1.287 . S
C154 C155 1.524 . S
C154 H173 0.913 . S
C155 H131 0.950 1_545 S
C155 C154 1.524 . S
C155 C156 1.415 . S
C156 H132 0.950 1_545 S
C156 C151 1.363 . S
C156 C155 1.415 . S
C157 H133 0.951 . S
C157 C158 1.366 . S
C157 C159 1.388 . S
C158 C157 1.366 . S
C158 C162 1.385 1_545 S
C159 H134 0.951 . S
C159 C157 1.388 . S
C159 C160 1.366 . S
C160 C159 1.366 . S
C160 C161 1.414 1_545 S
C160 C163 1.499 . S
C161 H135 0.950 . S
C161 C160 1.414 1_565 S
C161 C162 1.374 . S
C162 H136 0.950 . S
C162 C158 1.385 1_565 S
C162 C161 1.374 . S
C163 C160 1.499 . S
C163 C164 1.373 . S
C163 C165 1.389 . S
C164 H137 0.950 . S
C164 C150 1.377 . S
C164 C163 1.373 . S
C165 C149 1.377 . S
C165 C163 1.389 . S
C165 C166 1.524 . S
C166 C165 1.524 . S
C166 C167 1.397 1_545 S
C166 C171 1.363 . S
C167 H138 0.950 . S
C167 C166 1.397 1_565 S
C167 C168 1.334 . S
C168 H139 0.950 . S
C168 C167 1.334 . S
C168 C169 1.287 . S
C169 C168 1.287 . S
C169 C170 1.524 1_565 S
C169 H172 0.999 . S
C170 H140 0.950 . S
C170 C169 1.524 1_545 S
C170 C171 1.415 . S
C171 H141 0.950 . S
C171 C166 1.363 . S
C171 C170 1.415 . S
H172 C169 0.999 . S
H173 C154 0.913 . S
H174 C192 0.951 . S
H175 C194 0.951 . S
H176 C196 0.950 . S
H177 C197 0.950 . S
H178 C199 0.950 . S
H179 C202 0.950 . S
H180 C203 0.950 . S
H181 C205 0.950 . S
H182 C206 0.950 . S
H183 C207 0.951 . S
H184 C209 0.951 . S
H185 C211 0.950 . S
H186 C212 0.950 . S
H187 C214 0.954 . S
H188 C217 0.950 . S
H189 C218 0.950 . S
H190 C220 0.950 . S
H191 C221 0.950 . S
C192 H174 0.951 . S
C192 C193 1.350 1_455 S
C192 C194 1.388 . S
C193 C192 1.350 1_655 S
C193 C197 1.402 . S
C194 H175 0.951 . S
C194 C192 1.388 . S
C194 C195 1.366 1_455 S
C195 C194 1.366 1_655 S
C195 C196 1.414 . S
C195 C198 1.499 . S
C196 H176 0.950 . S
C196 C195 1.414 . S
C196 C197 1.374 . S
C197 H177 0.950 . S
C197 C193 1.402 . S
C197 C196 1.374 . S
C198 C195 1.499 . S
C198 C199 1.373 . S
C198 C200 1.389 . S
C199 H178 0.950 . S
C199 C198 1.373 . S
C199 C215 1.377 . S
C200 C198 1.389 . S
C200 C201 1.524 . S
C200 C214 1.377 . S
C201 C200 1.524 . S
C201 C202 1.395 . S
C201 C206 1.364 1_655 S
C202 H179 0.950 . S
C202 C201 1.395 . S
C202 C203 1.334 . S
C203 H180 0.950 . S
C203 C202 1.334 . S
C203 C204 1.296 . S
C204 C203 1.296 . S
C204 C205 1.514 1_655 S
C204 H223 0.912 1_655 S
C205 H181 0.950 . S
C205 C204 1.514 1_455 S
C205 C206 1.415 . S
C206 H182 0.950 . S
C206 C201 1.364 1_455 S
C206 C205 1.415 . S
C207 H183 0.951 . S
C207 C208 1.366 . S
C207 C209 1.388 . S
C208 C207 1.366 . S
C208 C212 1.385 1_655 S
C209 H184 0.951 . S
C209 C207 1.388 . S
C209 C210 1.366 . S
C210 C209 1.366 . S
C210 C211 1.414 1_655 S
C210 C213 1.499 . S
C211 H185 0.950 . S
C211 C210 1.414 1_455 S
C211 C212 1.374 . S
C212 H186 0.950 . S
C212 C208 1.385 1_455 S
C212 C211 1.374 . S
C213 C210 1.499 . S
C213 C214 1.373 . S
C213 C215 1.389 . S
C214 H187 0.954 . S
C214 C200 1.377 . S
C214 C213 1.373 . S
C215 C199 1.377 . S
C215 C213 1.389 . S
C215 C216 1.524 . S
C216 C215 1.524 . S
C216 C217 1.397 1_655 S
C216 C221 1.363 . S
C217 H188 0.950 . S
C217 C216 1.397 1_455 S
C217 C218 1.334 . S
C218 H189 0.950 . S
C218 C217 1.334 . S
C218 C219 1.287 1_455 S
C219 C218 1.287 1_655 S
C219 C220 1.524 . S
C219 H222 0.999 . S
C220 H190 0.950 . S
C220 C219 1.524 . S
C220 C221 1.415 . S
C221 H191 0.950 . S
C221 C216 1.363 . S
C221 C220 1.415 . S
H222 C219 0.999 . S
H223 C204 0.912 1_455 S
H224 C242 0.951 . S
H225 C244 0.951 . S
H226 C246 0.950 . S
H227 C247 0.950 . S
H228 C249 0.950 . S
H229 C252 0.950 1_545 S
H230 C253 0.950 1_545 S
H231 C255 0.950 . S
H232 C256 0.950 . S
H233 C257 0.951 . S
H234 C259 0.951 . S
H235 C261 0.950 . S
H236 C262 0.950 . S
H237 C264 0.950 . S
H238 C267 0.950 . S
H239 C268 0.950 1_565 S
H240 C270 0.950 . S
H241 C271 0.950 . S
C242 H224 0.951 . S
C242 C243 1.366 1_565 S
C242 C244 1.388 . S
C243 C242 1.366 1_545 S
C243 C247 1.385 . S
C244 H225 0.951 . S
C244 C242 1.388 . S
C244 C245 1.366 . S
C245 C244 1.366 . S
C245 C246 1.414 1_565 S
C245 C248 1.499 . S
C246 H226 0.950 . S
C246 C245 1.414 1_545 S
C246 C247 1.374 . S
C247 H227 0.950 . S
C247 C243 1.385 . S
C247 C246 1.374 . S
C248 C245 1.499 . S
C248 C249 1.373 1_565 S
C248 C250 1.389 . S
C249 H228 0.950 . S
C249 C248 1.373 1_545 S
C249 C265 1.377 . S
C250 C248 1.389 . S
C250 C251 1.524 . S
C250 C264 1.377 . S
C251 C250 1.524 . S
C251 C252 1.397 . S
C251 C256 1.363 . S
C252 H229 0.950 1_565 S
C252 C251 1.397 . S
C252 C253 1.334 . S
C253 H230 0.950 1_565 S
C253 C252 1.334 . S
C253 C254 1.287 . S
C254 C253 1.287 . S
C254 C255 1.524 . S
C254 H273 0.913 . S
C255 H231 0.950 . S
C255 C254 1.524 . S
C255 C256 1.415 . S
C256 H232 0.950 . S
C256 C251 1.363 . S
C256 C255 1.415 . S
C257 H233 0.951 . S
C257 C258 1.366 1_545 S
C257 C259 1.388 . S
C258 C257 1.366 1_565 S
C258 C262 1.385 . S
C259 H234 0.951 . S
C259 C257 1.388 . S
C259 C260 1.366 1_545 S
C260 C259 1.366 1_565 S
C260 C261 1.414 . S
C260 C263 1.499 . S
C261 H235 0.950 . S
C261 C260 1.414 . S
C261 C262 1.374 . S
C262 H236 0.950 . S
C262 C258 1.385 . S
C262 C261 1.374 . S
C263 C260 1.499 . S
C263 C264 1.373 . S
C263 C265 1.389 1_565 S
C264 H237 0.950 . S
C264 C250 1.377 . S
C264 C263 1.373 . S
C265 C249 1.377 . S
C265 C263 1.389 1_545 S
C265 C266 1.524 . S
C266 C265 1.524 . S
C266 C267 1.397 1_545 S
C266 C271 1.363 . S
C267 H238 0.950 . S
C267 C266 1.397 1_565 S
C267 C268 1.334 1_565 S
C268 H239 0.950 1_545 S
C268 C267 1.334 1_545 S
C268 C269 1.287 . S
C269 C268 1.287 . S
C269 C270 1.524 . S
C269 H272 0.999 . S
C270 H240 0.950 . S
C270 C269 1.524 . S
C270 C271 1.415 . S
C271 H241 0.950 . S
C271 C266 1.363 . S
C271 C270 1.415 . S
H272 C269 0.999 . S
H273 C254 0.913 . S
H274 C292 0.951 . S
H275 C294 0.951 . S
H276 C296 0.950 . S
H277 C297 0.950 . S
H278 C299 0.950 . S
H279 C302 0.950 . S
H280 C303 0.950 . S
H281 C305 0.950 . S
H282 C306 0.950 . S
H283 C307 0.951 . S
H284 C309 0.951 . S
H285 C311 0.950 . S
H286 C312 0.950 . S
H287 C314 0.950 . S
H288 C317 0.950 . S
H289 C318 0.950 . S
H290 C320 0.950 . S
H291 C321 0.950 . S
C292 H274 0.951 . S
C292 C293 1.366 1_655 S
C292 C294 1.388 . S
C293 C292 1.366 1_455 S
C293 C297 1.385 . S
C294 H275 0.951 . S
C294 C292 1.388 . S
C294 C295 1.366 1_655 S
C295 C294 1.366 1_455 S
C295 C296 1.414 . S
C295 C298 1.499 . S
C296 H276 0.950 . S
C296 C295 1.414 . S
C296 C297 1.374 . S
C297 H277 0.950 . S
C297 C293 1.385 . S
C297 C296 1.374 . S
C298 C295 1.499 . S
C298 C299 1.373 . S
C298 C300 1.389 1_455 S
C299 H278 0.950 . S
C299 C298 1.373 . S
C299 C315 1.377 . S
C300 C298 1.389 1_655 S
C300 C301 1.524 . S
C300 C314 1.377 . S
C301 C300 1.524 . S
C301 C302 1.397 . S
C301 C306 1.363 . S
C302 H279 0.950 . S
C302 C301 1.397 . S
C302 C303 1.334 . S
C303 H280 0.950 . S
C303 C302 1.334 . S
C303 C304 1.287 . S
C304 C303 1.287 . S
C304 C305 1.524 . S
C304 H323 0.913 . S
C305 H281 0.950 . S
C305 C304 1.524 . S
C305 C306 1.415 . S
C306 H282 0.950 . S
C306 C301 1.363 . S
C306 C305 1.415 . S
C307 H283 0.951 . S
C307 C308 1.366 . S
C307 C309 1.388 . S
C308 C307 1.366 . S
C308 C312 1.385 . S
C309 H284 0.951 . S
C309 C307 1.388 . S
C309 C310 1.366 . S
C310 C309 1.366 . S
C310 C311 1.414 . S
C310 C313 1.499 . S
C311 H285 0.950 . S
C311 C310 1.414 . S
C311 C312 1.374 . S
C312 H286 0.950 . S
C312 C308 1.385 . S
C312 C311 1.374 . S
C313 C310 1.499 . S
C313 C314 1.373 1_455 S
C313 C315 1.389 . S
C314 H287 0.950 . S
C314 C300 1.377 . S
C314 C313 1.373 1_655 S
C315 C299 1.377 . S
C315 C313 1.389 . S
C315 C316 1.524 . S
C316 C315 1.524 . S
C316 C317 1.397 . S
C316 C321 1.363 . S
C317 H288 0.950 . S
C317 C316 1.397 . S
C317 C318 1.334 . S
C318 H289 0.950 . S
C318 C317 1.334 . S
C318 C319 1.287 . S
C319 C318 1.287 . S
C319 C320 1.524 . S
C319 H322 0.999 . S
C320 H290 0.950 . S
C320 C319 1.524 . S
C320 C321 1.415 . S
C321 H291 0.950 . S
C321 C316 1.363 . S
C321 C320 1.415 . S
H322 C319 0.999 . S
H323 C304 0.913 . S
H324 C342 0.951 . S
H325 C344 0.951 . S
H326 C346 0.950 . S
H327 C347 0.950 . S
H328 C349 0.950 . S
H329 C352 0.950 . S
H330 C353 0.950 . S
H331 C355 0.950 1_565 S
H332 C356 0.950 . S
H333 C357 0.951 . S
H334 C359 0.951 . S
H335 C361 0.950 . S
H336 C362 0.950 . S
H337 C364 0.950 . S
H338 C367 0.950 . S
H339 C368 0.950 . S
H340 C370 0.950 . S
H341 C371 0.950 1_545 S
C342 H324 0.951 . S
C342 C343 1.366 1_565 S
C342 C344 1.388 . S
C343 C342 1.366 1_545 S
C343 C347 1.385 . S
C344 H325 0.951 . S
C344 C342 1.388 . S
C344 C345 1.366 . S
C345 C344 1.366 . S
C345 C346 1.414 1_565 S
C345 C348 1.499 . S
C346 H326 0.950 . S
C346 C345 1.414 1_545 S
C346 C347 1.374 . S
C347 H327 0.950 . S
C347 C343 1.385 . S
C347 C346 1.374 . S
C348 C345 1.499 . S
C348 C349 1.373 . S
C348 C350 1.387 1_565 S
C349 H328 0.950 . S
C349 C348 1.373 . S
C349 C365 1.377 . S
C350 C348 1.387 1_545 S
C350 C351 1.532 . S
C350 C364 1.374 1_545 S
C351 C350 1.532 . S
C351 C352 1.397 . S
C351 C356 1.363 1_545 S
C352 H329 0.950 . S
C352 C351 1.397 . S
C352 C353 1.334 . S
C353 H330 0.950 . S
C353 C352 1.334 . S
C353 C354 1.287 . S
C354 C353 1.287 . S
C354 C355 1.524 . S
C354 H373 0.913 . S
C355 H331 0.950 1_545 S
C355 C354 1.524 . S
C355 C356 1.415 1_545 S
C356 H332 0.950 . S
C356 C351 1.363 1_565 S
C356 C355 1.415 1_565 S
C357 H333 0.951 . S
C357 C358 1.366 1_545 S
C357 C359 1.388 . S
C358 C357 1.366 1_565 S
C358 C362 1.385 . S
C359 H334 0.951 . S
C359 C357 1.388 . S
C359 C360 1.366 1_545 S
C360 C359 1.366 1_565 S
C360 C361 1.414 . S
C360 C363 1.499 . S
C361 H335 0.950 . S
C361 C360 1.414 . S
C361 C362 1.374 . S
C362 H336 0.950 . S
C362 C358 1.385 . S
C362 C361 1.374 . S
C363 C360 1.499 . S
C363 C364 1.373 . S
C363 C365 1.389 . S
C364 H337 0.950 . S
C364 C350 1.374 1_565 S
C364 C363 1.373 . S
C365 C349 1.377 . S
C365 C363 1.389 . S
C365 C366 1.524 . S
C366 C365 1.524 . S
C366 C367 1.397 . S
C366 C371 1.363 . S
C367 H338 0.950 . S
C367 C366 1.397 . S
C367 C368 1.334 . S
C368 H339 0.950 . S
C368 C367 1.334 . S
C368 C369 1.287 . S
C369 C368 1.287 . S
C369 C370 1.524 . S
C369 H372 0.999 . S
C370 H340 0.950 . S
C370 C369 1.524 . S
C370 C371 1.415 . S
C371 H341 0.950 1_565 S
C371 C366 1.363 . S
C371 C370 1.415 . S
H372 C369 0.999 . S
H373 C354 0.913 . S
H374 C392 0.951 1_655 S
H375 C394 0.951 . S
H376 C396 0.950 . S
H377 C397 0.950 . S
H378 C399 0.950 . S
H379 C402 0.950 . S
H380 C403 0.950 . S
H381 C405 0.950 . S
H382 C406 0.950 . S
H383 C407 0.951 . S
H384 C409 0.951 . S
H385 C411 0.950 . S
H386 C412 0.950 . S
H387 C414 0.950 . S
H388 C417 0.950 . S
H389 C418 0.950 . S
H390 C420 0.950 . S
H391 C421 0.950 . S
C392 H374 0.951 1_455 S
C392 C393 1.366 . S
C392 C394 1.388 . S
C393 C392 1.366 . S
C393 C397 1.385 . S
C394 H375 0.951 . S
C394 C392 1.388 . S
C394 C395 1.366 . S
C395 C394 1.366 . S
C395 C396 1.414 . S
C395 C398 1.499 . S
C396 H376 0.950 . S
C396 C395 1.414 . S
C396 C397 1.374 . S
C397 H377 0.950 . S
C397 C393 1.385 . S
C397 C396 1.374 . S
C398 C395 1.499 . S
C398 C399 1.373 1_455 S
C398 C400 1.389 . S
C399 H378 0.950 . S
C399 C398 1.373 1_655 S
C399 C415 1.377 . S
C400 C398 1.389 . S
C400 C401 1.524 . S
C400 C414 1.377 . S
C401 C400 1.524 . S
C401 C402 1.397 . S
C401 C406 1.363 . S
C402 H379 0.950 . S
C402 C401 1.397 . S
C402 C403 1.334 . S
C403 H380 0.950 . S
C403 C402 1.334 . S
C403 C404 1.287 . S
C404 C403 1.287 . S
C404 C405 1.524 . S
C404 H423 0.913 . S
C405 H381 0.950 . S
C405 C404 1.524 . S
C405 C406 1.415 . S
C406 H382 0.950 . S
C406 C401 1.363 . S
C406 C405 1.415 . S
C407 H383 0.951 . S
C407 C408 1.366 . S
C407 C409 1.388 . S
C408 C407 1.366 . S
C408 C412 1.385 . S
C409 H384 0.951 . S
C409 C407 1.388 . S
C409 C410 1.366 . S
C410 C409 1.366 . S
C410 C411 1.414 . S
C410 C413 1.499 . S
C411 H385 0.950 . S
C411 C410 1.414 . S
C411 C412 1.374 . S
C412 H386 0.950 . S
C412 C408 1.385 . S
C412 C411 1.374 . S
C413 C410 1.499 . S
C413 C414 1.373 . S
C413 C415 1.389 1_455 S
C414 H387 0.950 . S
C414 C400 1.377 . S
C414 C413 1.373 . S
C415 C399 1.377 . S
C415 C413 1.389 1_655 S
C415 C416 1.524 . S
C416 C415 1.524 . S
C416 C417 1.397 . S
C416 C421 1.363 . S
C417 H388 0.950 . S
C417 C416 1.397 . S
C417 C418 1.334 . S
C418 H389 0.950 . S
C418 C417 1.334 . S
C418 C419 1.287 . S
C419 C418 1.287 . S
C419 C420 1.524 . S
C419 H422 0.999 . S
C420 H390 0.950 . S
C420 C419 1.524 . S
C420 C421 1.415 . S
C421 H391 0.950 . S
C421 C416 1.363 . S
C421 C420 1.415 . S
H422 C419 0.999 . S
H423 C404 0.913 . S
H424 C442 0.951 . S
H425 C444 0.951 . S
H426 C446 0.950 . S
H427 C447 0.950 . S
H428 C449 0.950 . S
H429 C452 0.950 . S
H430 C453 0.950 . S
H431 C455 0.950 . S
H432 C456 0.950 . S
H433 C457 0.951 . S
H434 C459 0.951 . S
H435 C461 0.950 . S
H436 C462 0.950 . S
H437 C464 0.956 . S
H438 C467 0.950 . S
H439 C468 0.950 . S
H440 C470 0.950 . S
H441 C471 0.950 . S
C442 H424 0.951 . S
C442 C443 1.366 1_565 S
C442 C444 1.388 . S
C443 C442 1.366 1_545 S
C443 C447 1.385 . S
C444 H425 0.951 . S
C444 C442 1.388 . S
C444 C445 1.366 1_565 S
C445 C444 1.366 1_545 S
C445 C446 1.414 . S
C445 C448 1.499 . S
C446 H426 0.950 . S
C446 C445 1.414 . S
C446 C447 1.374 . S
C447 H427 0.950 . S
C447 C443 1.385 . S
C447 C446 1.374 . S
C448 C445 1.499 . S
C448 C449 1.373 . S
C448 C450 1.389 . S
C449 H428 0.950 . S
C449 C448 1.373 . S
C449 C465 1.377 . S
C450 C448 1.389 . S
C450 C451 1.529 . S
C450 C464 1.377 . S
C451 C450 1.529 . S
C451 C452 1.419 . S
C451 C456 1.339 1_545 S
C452 H429 0.950 . S
C452 C451 1.419 . S
C452 C453 1.334 . S
C453 H430 0.950 . S
C453 C452 1.334 . S
C453 C454 1.310 . S
C454 C453 1.310 . S
C454 C455 1.500 1_545 S
C454 H473 0.911 1_545 S
C455 H431 0.950 . S
C455 C454 1.500 1_565 S
C455 C456 1.415 . S
C456 H432 0.950 . S
C456 C451 1.339 1_565 S
C456 C455 1.415 . S
C457 H433 0.951 . S
C457 C458 1.366 . S
C457 C459 1.388 . S
C458 C457 1.366 . S
C458 C462 1.385 1_545 S
C459 H434 0.951 . S
C459 C457 1.388 . S
C459 C460 1.366 . S
C460 C459 1.366 . S
C460 C461 1.414 1_545 S
C460 C463 1.499 . S
C461 H435 0.950 . S
C461 C460 1.414 1_565 S
C461 C462 1.374 . S
C462 H436 0.950 . S
C462 C458 1.385 1_565 S
C462 C461 1.374 . S
C463 C460 1.499 . S
C463 C464 1.373 . S
C463 C465 1.389 . S
C464 H437 0.956 . S
C464 C450 1.377 . S
C464 C463 1.373 . S
C465 C449 1.377 . S
C465 C463 1.389 . S
C465 C466 1.524 . S
C466 C465 1.524 . S
C466 C467 1.397 1_545 S
C466 C471 1.363 . S
C467 H438 0.950 . S
C467 C466 1.397 1_565 S
C467 C468 1.334 . S
C468 H439 0.950 . S
C468 C467 1.334 . S
C468 C469 1.287 1_565 S
C469 C468 1.287 1_545 S
C469 C470 1.524 . S
C469 H472 0.999 . S
C470 H440 0.950 . S
C470 C469 1.524 . S
C470 C471 1.415 . S
C471 H441 0.950 . S
C471 C466 1.363 . S
C471 C470 1.415 . S
H472 C469 0.999 . S
H473 C454 0.911 1_565 S
H474 C492 0.951 . S
H475 C494 0.951 . S
H476 C496 0.950 . S
H477 C497 0.950 . S
H478 C499 0.950 . S
H479 C502 0.950 . S
H480 C503 0.950 . S
H481 C505 0.950 . S
H482 C506 0.950 . S
H483 C507 0.951 . S
H484 C509 0.951 . S
H485 C511 0.950 1_455 S
H486 C512 0.950 1_455 S
H487 C514 0.950 . S
H488 C517 0.950 . S
H489 C518 0.950 . S
H490 C520 0.950 . S
H491 C521 0.950 . S
C492 H474 0.951 . S
C492 C493 1.357 1_455 S
C492 C494 1.388 . S
C493 C492 1.357 1_655 S
C493 C497 1.395 . S
C494 H475 0.951 . S
C494 C492 1.388 . S
C494 C495 1.366 1_455 S
C495 C494 1.366 1_655 S
C495 C496 1.414 . S
C495 C498 1.499 . S
C496 H476 0.950 . S
C496 C495 1.414 . S
C496 C497 1.374 . S
C497 H477 0.950 . S
C497 C493 1.395 . S
C497 C496 1.374 . S
C498 C495 1.499 . S
C498 C499 1.373 . S
C498 C500 1.389 1_655 S
C499 H478 0.950 . S
C499 C498 1.373 . S
C499 C515 1.377 . S
C500 C498 1.389 1_455 S
C500 C501 1.524 . S
C500 C514 1.377 . S
C501 C500 1.524 . S
C501 C502 1.397 . S
C501 C506 1.363 . S
C502 H479 0.950 . S
C502 C501 1.397 . S
C502 C503 1.334 . S
C503 H480 0.950 . S
C503 C502 1.334 . S
C503 C504 1.287 . S
C504 C503 1.287 . S
C504 C505 1.524 . S
C504 H523 0.913 . S
C505 H481 0.950 . S
C505 C504 1.524 . S
C505 C506 1.415 . S
C506 H482 0.950 . S
C506 C501 1.363 . S
C506 C505 1.415 . S
C507 H483 0.951 . S
C507 C508 1.366 . S
C507 C509 1.388 . S
C508 C507 1.366 . S
C508 C512 1.385 . S
C509 H484 0.951 . S
C509 C507 1.388 . S
C509 C510 1.366 . S
C510 C509 1.366 . S
C510 C511 1.414 . S
C510 C513 1.499 . S
C511 H485 0.950 1_655 S
C511 C510 1.414 . S
C511 C512 1.374 . S
C512 H486 0.950 1_655 S
C512 C508 1.385 . S
C512 C511 1.374 . S
C513 C510 1.499 . S
C513 C514 1.373 1_655 S
C513 C515 1.389 . S
C514 H487 0.950 . S
C514 C500 1.377 . S
C514 C513 1.373 1_455 S
C515 C499 1.377 . S
C515 C513 1.389 . S
C515 C516 1.524 . S
C516 C515 1.524 . S
C516 C517 1.397 . S
C516 C521 1.363 . S
C517 H488 0.950 . S
C517 C516 1.397 . S
C517 C518 1.334 . S
C518 H489 0.950 . S
C518 C517 1.334 . S
C518 C519 1.287 . S
C519 C518 1.287 . S
C519 C520 1.524 . S
C519 H522 0.999 . S
C520 H490 0.950 . S
C520 C519 1.524 . S
C520 C521 1.415 . S
C521 H491 0.950 . S
C521 C516 1.363 . S
C521 C520 1.415 . S
H522 C519 0.999 . S
H523 C504 0.913 . S
C158 C105 1.637 . S
C143 C45 1.633 1_545 S
C208 C116 1.558 . S
C193 C78 1.615 . S
C258 C104 1.637 . S
C243 C21 1.637 . S
C308 C117 1.557 . S
C293 C84 1.625 1_455 S
C358 C119 1.637 . S
C343 C36 1.641 . S
C408 C103 1.558 . S
C393 C69 1.622 . S
C458 C118 1.637 . S
C443 C30 1.628 . S
C493 C93 1.620 1_655 S
C508 C102 1.557 . S
