# Generated by pormake.
# Topology wbl, (4,4)-cn, num edge types: 1
# Building blocks:
#     Node 0, Type 0, BuildingBlock: MIFKUJ_clean_linker_1, # of connection points: 4
#     Node 1, Type 0, BuildingBlock: MIFKUJ_clean_linker_1, # of connection points: 4
#     Node 2, Type 0, BuildingBlock: MIFKUJ_clean_linker_1, # of connection points: 4
#     Node 3, Type 0, BuildingBlock: MIFKUJ_clean_linker_1, # of connection points: 4
#     Node 4, Type 0, BuildingBlock: MIFKUJ_clean_linker_1, # of connection points: 4
#     Node 5, Type 0, BuildingBlock: MIFKUJ_clean_linker_1, # of connection points: 4
#     Node 6, Type 0, BuildingBlock: MIFKUJ_clean_linker_1, # of connection points: 4
#     Node 7, Type 0, BuildingBlock: MIFKUJ_clean_linker_1, # of connection points: 4
#     Node 8, Type 1, BuildingBlock: GALJAG_clean_sbu_0, # of connection points: 4
#     Node 9, Type 1, BuildingBlock: GALJAG_clean_sbu_0, # of connection points: 4
#     Node 10, Type 1, BuildingBlock: GALJAG_clean_sbu_0, # of connection points: 4
#     Node 11, Type 1, BuildingBlock: GALJAG_clean_sbu_0, # of connection points: 4
#     Node 12, Type 1, BuildingBlock: GALJAG_clean_sbu_0, # of connection points: 4
#     Node 13, Type 1, BuildingBlock: GALJAG_clean_sbu_0, # of connection points: 4
#     Node 14, Type 1, BuildingBlock: GALJAG_clean_sbu_0, # of connection points: 4
#     Node 15, Type 1, BuildingBlock: GALJAG_clean_sbu_0, # of connection points: 4
#     Edge 16, Type (0, 1), BuildingBlock: MIFKUJ_clean_linker_0, # of connection points: 2
#     Edge 17, Type (0, 1), BuildingBlock: MIFKUJ_clean_linker_0, # of connection points: 2
#     Edge 18, Type (0, 1), BuildingBlock: MIFKUJ_clean_linker_0, # of connection points: 2
#     Edge 19, Type (0, 1), BuildingBlock: MIFKUJ_clean_linker_0, # of connection points: 2
#     Edge 20, Type (0, 1), BuildingBlock: MIFKUJ_clean_linker_0, # of connection points: 2
#     Edge 21, Type (0, 1), BuildingBlock: MIFKUJ_clean_linker_0, # of connection points: 2
#     Edge 22, Type (0, 1), BuildingBlock: MIFKUJ_clean_linker_0, # of connection points: 2
#     Edge 23, Type (0, 1), BuildingBlock: MIFKUJ_clean_linker_0, # of connection points: 2
#     Edge 24, Type (0, 1), BuildingBlock: MIFKUJ_clean_linker_0, # of connection points: 2
#     Edge 25, Type (0, 1), BuildingBlock: MIFKUJ_clean_linker_0, # of connection points: 2
#     Edge 26, Type (0, 1), BuildingBlock: MIFKUJ_clean_linker_0, # of connection points: 2
#     Edge 27, Type (0, 1), BuildingBlock: MIFKUJ_clean_linker_0, # of connection points: 2
#     Edge 28, Type (0, 1), BuildingBlock: MIFKUJ_clean_linker_0, # of connection points: 2
#     Edge 29, Type (0, 1), BuildingBlock: MIFKUJ_clean_linker_0, # of connection points: 2
#     Edge 30, Type (0, 1), BuildingBlock: MIFKUJ_clean_linker_0, # of connection points: 2
#     Edge 31, Type (0, 1), BuildingBlock: MIFKUJ_clean_linker_0, # of connection points: 2
#     Edge 32, Type (0, 1), BuildingBlock: MIFKUJ_clean_linker_0, # of connection points: 2
#     Edge 33, Type (0, 1), BuildingBlock: MIFKUJ_clean_linker_0, # of connection points: 2
#     Edge 34, Type (0, 1), BuildingBlock: MIFKUJ_clean_linker_0, # of connection points: 2
#     Edge 35, Type (0, 1), BuildingBlock: MIFKUJ_clean_linker_0, # of connection points: 2
#     Edge 36, Type (0, 1), BuildingBlock: MIFKUJ_clean_linker_0, # of connection points: 2
#     Edge 37, Type (0, 1), BuildingBlock: MIFKUJ_clean_linker_0, # of connection points: 2
#     Edge 38, Type (0, 1), BuildingBlock: MIFKUJ_clean_linker_0, # of connection points: 2
#     Edge 39, Type (0, 1), BuildingBlock: MIFKUJ_clean_linker_0, # of connection points: 2
#     Edge 40, Type (0, 1), BuildingBlock: MIFKUJ_clean_linker_0, # of connection points: 2
#     Edge 41, Type (0, 1), BuildingBlock: MIFKUJ_clean_linker_0, # of connection points: 2
#     Edge 42, Type (0, 1), BuildingBlock: MIFKUJ_clean_linker_0, # of connection points: 2
#     Edge 43, Type (0, 1), BuildingBlock: MIFKUJ_clean_linker_0, # of connection points: 2
#     Edge 44, Type (0, 1), BuildingBlock: MIFKUJ_clean_linker_0, # of connection points: 2
#     Edge 45, Type (0, 1), BuildingBlock: MIFKUJ_clean_linker_0, # of connection points: 2
#     Edge 46, Type (0, 1), BuildingBlock: MIFKUJ_clean_linker_0, # of connection points: 2
#     Edge 47, Type (0, 1), BuildingBlock: MIFKUJ_clean_linker_0, # of connection points: 2
# Relax obj value: 0.140
# Max RMSD: 0.144
# Mean RMSD: 0.131
data_MOF--net-wbl--node1-GALJAG_clean_sbu_0--node2-MIFKUJ_clean_linker_1--edge1-MIFKUJ_clean_linker_0
_symmetry_space_group_name_H-M    P1
_symmetry_Int_Tables_number       1
_symmetry_cell_setting            triclinic
loop_
_symmetry_equiv_pos_as_xyz
'x, y, z'
_cell_length_a     55.887224
_cell_length_b     56.029759
_cell_length_c     102.55879
_cell_angle_alpha  90.055638
_cell_angle_beta   90.012983
_cell_angle_gamma 90.008869
loop_
_atom_site_label
_atom_site_type_symbol
_atom_site_fract_x
_atom_site_fract_y
_atom_site_fract_z
_atom_type_partial_charge
H0 H 0.00164 0.0612 0.3599 0.0
H1 H 0.97454 0.08439 0.37373 0.0
H2 H 0.91472 0.04297 0.35959 0.0
H3 H 0.94197 0.0199 0.34564 0.0
H4 H 0.00679 0.01099 0.36208 0.0
H5 H 0.98315 0.07016 0.33131 0.0
H6 H 0.95453 0.09354 0.31881 0.0
H7 H 0.93317 0.0298 0.29799 0.0
H8 H 0.96038 0.00625 0.31133 0.0
H9 H 0.01198 0.95625 0.31454 0.0
H10 H 0.04036 0.93088 0.30269 0.0
H11 H 0.09919 0.96836 0.32084 0.0
H12 H 0.07079 0.99383 0.33248 0.0
H13 H 0.00586 0.00471 0.31385 0.0
H14 H 0.02675 0.94526 0.34532 0.0
H15 H 0.05 0.92061 0.36043 0.0
H16 H 0.07611 0.98431 0.37943 0.0
H17 H 0.05321 0.00888 0.36422 0.0
C18 C 0.97376 0.03892 0.35175 0.0
C19 C 0.98264 0.05735 0.35965 0.0
C20 C 0.96715 0.07065 0.36747 0.0
C21 C 0.94256 0.06545 0.3677 0.0
C22 C 0.93362 0.04726 0.3596 0.0
C23 C 0.94911 0.03418 0.35162 0.0
C24 C 0.99057 0.02364 0.34438 0.0
C25 C 0.00687 0.00986 0.35151 0.0
C26 C 0.99001 0.02174 0.33063 0.0
C27 C 0.97351 0.0363 0.32254 0.0
C28 C 0.97197 0.06113 0.32424 0.0
C29 C 0.95585 0.07459 0.31688 0.0
C30 C 0.94133 0.0636 0.3074 0.0
C31 C 0.94359 0.03884 0.3054 0.0
C32 C 0.95938 0.02534 0.31293 0.0
C33 C 0.0393 0.97679 0.32443 0.0
C34 C 0.031 0.959 0.31592 0.0
C35 C 0.04719 0.94444 0.30924 0.0
C36 C 0.07196 0.94766 0.31085 0.0
C37 C 0.0802 0.96562 0.31932 0.0
C38 C 0.06402 0.98005 0.32604 0.0
C39 C 0.02217 0.99211 0.33158 0.0
C40 C 0.00581 0.00588 0.32441 0.0
C41 C 0.02256 0.99397 0.34532 0.0
C42 C 0.0383 0.97895 0.3536 0.0
C43 C 0.03791 0.95394 0.35254 0.0
C44 C 0.05115 0.93986 0.36119 0.0
C45 C 0.06469 0.95057 0.37114 0.0
C46 C 0.06556 0.9756 0.37195 0.0
C47 C 0.05252 0.98963 0.36326 0.0
H48 H 0.99919 0.45501 0.56359 0.0
H49 H 0.97677 0.42689 0.5502 0.0
H50 H 0.91114 0.4495 0.56886 0.0
H51 H 0.93344 0.47898 0.58135 0.0
H52 H 0.00085 0.50056 0.56559 0.0
H53 H 0.98234 0.43829 0.59742 0.0
H54 H 0.95779 0.4114 0.61078 0.0
H55 H 0.91495 0.47134 0.62328 0.0
H56 H 0.93961 0.4981 0.61004 0.0
H57 H 0.99239 0.55166 0.61439 0.0
H58 H 0.0158 0.57397 0.63041 0.0
H59 H 0.08061 0.54186 0.61551 0.0
H60 H 0.05706 0.51991 0.59936 0.0
H61 H 0.98958 0.50367 0.61353 0.0
H62 H 0.00984 0.56599 0.58376 0.0
H63 H 0.03544 0.59394 0.57191 0.0
H64 H 0.07505 0.53476 0.55566 0.0
H65 H 0.04942 0.50681 0.56765 0.0
C66 C 0.96812 0.4688 0.5737 0.0
C67 C 0.97992 0.45412 0.56467 0.0
C68 C 0.96706 0.43781 0.55712 0.0
C69 C 0.9421 0.4356 0.55853 0.0
C70 C 0.93027 0.45076 0.56738 0.0
C71 C 0.9431 0.46738 0.57474 0.0
C72 C 0.98199 0.48556 0.58201 0.0
C73 C 0.99861 0.50097 0.5761 0.0
C74 C 0.97869 0.48671 0.59567 0.0
C75 C 0.96271 0.47013 0.60276 0.0
C76 C 0.96745 0.44554 0.60291 0.0
C77 C 0.95351 0.43025 0.61055 0.0
C78 C 0.93447 0.43932 0.618 0.0
C79 C 0.92934 0.46385 0.6175 0.0
C80 C 0.94348 0.47915 0.61003 0.0
C81 C 0.02298 0.53417 0.60568 0.0
C82 C 0.01168 0.5497 0.61447 0.0
C83 C 0.02507 0.56231 0.62366 0.0
C84 C 0.05005 0.55948 0.62433 0.0
C85 C 0.06144 0.54462 0.61517 0.0
C86 C 0.04801 0.53205 0.60593 0.0
C87 C 0.00843 0.51852 0.59713 0.0
C88 C 0.99177 0.50326 0.60301 0.0
C89 C 0.01178 0.51751 0.58349 0.0
C90 C 0.02784 0.53435 0.57663 0.0
C91 C 0.02417 0.55904 0.57774 0.0
C92 C 0.03867 0.57496 0.57089 0.0
C93 C 0.05717 0.56649 0.56284 0.0
C94 C 0.06103 0.54177 0.56187 0.0
C95 C 0.04635 0.52581 0.56864 0.0
H96 H 0.50773 0.5523 0.8656 0.0
H97 H 0.48462 0.57896 0.87935 0.0
H98 H 0.41948 0.55483 0.86072 0.0
H99 H 0.44275 0.5267 0.84766 0.0
H100 H 0.50747 0.50642 0.86574 0.0
H101 H 0.48708 0.56614 0.83359 0.0
H102 H 0.45891 0.59027 0.82105 0.0
H103 H 0.43075 0.52611 0.80326 0.0
H104 H 0.4577 0.50212 0.8165 0.0
H105 H 0.50763 0.44935 0.81881 0.0
H106 H 0.53452 0.42347 0.80622 0.0
H107 H 0.59551 0.45963 0.82296 0.0
H108 H 0.56864 0.48547 0.83542 0.0
H109 H 0.50374 0.49832 0.81766 0.0
H110 H 0.52258 0.43895 0.84953 0.0
H111 H 0.54552 0.41358 0.86435 0.0
H112 H 0.57561 0.47651 0.88246 0.0
H113 H 0.55356 0.50162 0.86726 0.0
C114 C 0.47705 0.53753 0.85553 0.0
C115 C 0.48845 0.55274 0.86446 0.0
C116 C 0.47517 0.56828 0.87222 0.0
C117 C 0.45008 0.56928 0.87114 0.0
C118 C 0.43871 0.5544 0.86195 0.0
C119 C 0.45204 0.5385 0.85433 0.0
C120 C 0.49147 0.51985 0.84812 0.0
C121 C 0.50691 0.50495 0.8552 0.0
C122 C 0.49005 0.51725 0.83439 0.0
C123 C 0.47414 0.53226 0.82622 0.0
C124 C 0.47462 0.55728 0.82711 0.0
C125 C 0.45871 0.57109 0.81978 0.0
C126 C 0.44233 0.56015 0.81122 0.0
C127 C 0.44265 0.53514 0.80998 0.0
C128 C 0.45827 0.52137 0.81744 0.0
C129 C 0.53618 0.4692 0.82808 0.0
C130 C 0.5268 0.4516 0.81978 0.0
C131 C 0.54213 0.43679 0.81266 0.0
C132 C 0.56705 0.43963 0.8136 0.0
C133 C 0.57636 0.45721 0.82196 0.0
C134 C 0.56106 0.47185 0.82915 0.0
C135 C 0.52004 0.48544 0.83531 0.0
C136 C 0.5043 0.49996 0.8282 0.0
C137 C 0.52118 0.48778 0.849 0.0
C138 C 0.53645 0.4722 0.85723 0.0
C139 C 0.53456 0.44725 0.85649 0.0
C140 C 0.54747 0.43277 0.86507 0.0
C141 C 0.56237 0.443 0.87463 0.0
C142 C 0.56462 0.46799 0.87511 0.0
C143 C 0.55182 0.48241 0.8665 0.0
H144 H 0.49129 0.95353 0.06555 0.0
H145 H 0.46408 0.92596 0.05449 0.0
H146 H 0.40373 0.96125 0.07247 0.0
H147 H 0.43104 0.98863 0.08356 0.0
H148 H 0.49676 0.00131 0.06501 0.0
H149 H 0.48071 0.94279 0.09813 0.0
H150 H 0.45805 0.91707 0.11301 0.0
H151 H 0.42077 0.97883 0.12793 0.0
H152 H 0.44353 0.00448 0.11308 0.0
H153 H 0.49914 0.0588 0.11131 0.0
H154 H 0.52635 0.08175 0.12525 0.0
H155 H 0.58612 0.04092 0.11057 0.0
H156 H 0.55882 0.01808 0.09659 0.0
H157 H 0.49348 0.00891 0.1132 0.0
H158 H 0.51196 0.06736 0.08071 0.0
H159 H 0.53859 0.09274 0.0679 0.0
H160 H 0.57329 0.03007 0.05223 0.0
H161 H 0.54664 0.00466 0.06524 0.0
C162 C 0.46321 0.97291 0.0755 0.0
C163 C 0.47219 0.95542 0.06703 0.0
C164 C 0.4566 0.93974 0.06067 0.0
C165 C 0.43174 0.94137 0.06264 0.0
C166 C 0.4228 0.95928 0.07092 0.0
C167 C 0.43838 0.97494 0.07725 0.0
C168 C 0.47977 0.98894 0.08263 0.0
C169 C 0.49624 0.00273 0.07556 0.0
C170 C 0.47884 0.99118 0.09636 0.0
C171 C 0.46371 0.97549 0.1045 0.0
C172 C 0.46741 0.95072 0.10448 0.0
C173 C 0.45458 0.93609 0.11301 0.0
C174 C 0.4377 0.94601 0.12159 0.0
C175 C 0.43351 0.97073 0.12132 0.0
C176 C 0.44657 0.98538 0.11291 0.0
C177 C 0.527 0.03681 0.10293 0.0
C178 C 0.51815 0.05506 0.11096 0.0
C179 C 0.5337 0.06823 0.11884 0.0
C180 C 0.55831 0.06306 0.11897 0.0
C181 C 0.56721 0.04517 0.11067 0.0
C182 C 0.55168 0.03223 0.10266 0.0
C183 C 0.51028 0.02134 0.09559 0.0
C184 C 0.49387 0.00756 0.10264 0.0
C185 C 0.51144 0.01898 0.08189 0.0
C186 C 0.52746 0.03417 0.07398 0.0
C187 C 0.52535 0.05909 0.07456 0.0
C188 C 0.54044 0.07354 0.06716 0.0
C189 C 0.55795 0.06335 0.05905 0.0
C190 C 0.56005 0.03837 0.05847 0.0
C191 C 0.54479 0.02388 0.06582 0.0
H192 H 0.99074 0.56608 0.89726 0.0
H193 H 0.01358 0.59094 0.8822 0.0
H194 H 0.0779 0.55215 0.89214 0.0
H195 H 0.05491 0.52759 0.9074 0.0
H196 H 0.98645 0.51774 0.89416 0.0
H197 H 0.01618 0.57245 0.92608 0.0
H198 H 0.04683 0.59438 0.93803 0.0
H199 H 0.07421 0.52787 0.95336 0.0
H200 H 0.04459 0.506 0.94065 0.0
H201 H 0.99177 0.45573 0.93925 0.0
H202 H 0.96549 0.4275 0.95062 0.0
H203 H 0.90384 0.4677 0.93777 0.0
H204 H 0.93007 0.49551 0.92639 0.0
H205 H 0.99856 0.50405 0.94147 0.0
H206 H 0.97413 0.44954 0.90796 0.0
H207 H 0.94899 0.42634 0.89313 0.0
H208 H 0.91267 0.49099 0.88142 0.0
H209 H 0.93823 0.51409 0.89608 0.0
C210 C 0.02112 0.54499 0.90343 0.0
C211 C 0.00983 0.56318 0.89633 0.0
C212 C 0.02289 0.57727 0.88768 0.0
C213 C 0.0475 0.57332 0.88584 0.0
C214 C 0.05901 0.55578 0.8934 0.0
C215 C 0.0459 0.5417 0.90211 0.0
C216 C 0.00648 0.52812 0.91117 0.0
C217 C 0.98887 0.51506 0.90455 0.0
C218 C 0.01029 0.52398 0.92462 0.0
C219 C 0.02837 0.53751 0.93223 0.0
C220 C 0.02904 0.56256 0.93184 0.0
C221 C 0.04637 0.57512 0.93886 0.0
C222 C 0.06312 0.56292 0.94664 0.0
C223 C 0.06196 0.53786 0.94727 0.0
C224 C 0.04484 0.52531 0.94011 0.0
C225 C 0.96283 0.47747 0.93183 0.0
C226 C 0.97259 0.45845 0.93896 0.0
C227 C 0.95757 0.44239 0.94546 0.0
C228 C 0.93258 0.44521 0.94496 0.0
C229 C 0.92298 0.46469 0.93809 0.0
C230 C 0.93794 0.48066 0.93162 0.0
C231 C 0.97846 0.49395 0.92443 0.0
C232 C 0.9962 0.50686 0.93108 0.0
C233 C 0.97501 0.49789 0.91096 0.0
C234 C 0.95805 0.48353 0.9031 0.0
C235 C 0.96047 0.45863 0.90236 0.0
C236 C 0.94603 0.44539 0.89389 0.0
C237 C 0.92894 0.45684 0.88601 0.0
C238 C 0.92596 0.48168 0.88717 0.0
C239 C 0.94047 0.4949 0.89558 0.0
H240 H 0.49726 0.55019 0.18826 0.0
H241 H 0.46979 0.57684 0.19968 0.0
H242 H 0.40981 0.53601 0.18499 0.0
H243 H 0.43751 0.5101 0.17316 0.0
H244 H 0.5028 0.49985 0.19008 0.0
H245 H 0.4813 0.55978 0.15846 0.0
H246 H 0.45687 0.58407 0.1438 0.0
H247 H 0.42979 0.51985 0.12563 0.0
H248 H 0.45345 0.49576 0.14064 0.0
H249 H 0.50708 0.44573 0.14242 0.0
H250 H 0.53493 0.42393 0.12834 0.0
H251 H 0.59406 0.46296 0.14513 0.0
H252 H 0.56609 0.48467 0.15925 0.0
H253 H 0.50091 0.49466 0.14179 0.0
H254 H 0.51751 0.4347 0.17282 0.0
H255 H 0.5415 0.40747 0.18603 0.0
H256 H 0.57598 0.46765 0.20453 0.0
H257 H 0.55198 0.49495 0.19112 0.0
C258 C 0.46938 0.52834 0.17981 0.0
C259 C 0.47818 0.54699 0.18756 0.0
C260 C 0.46241 0.5621 0.19415 0.0
C261 C 0.4375 0.55861 0.1933 0.0
C262 C 0.42882 0.53953 0.1857 0.0
C263 C 0.44461 0.52461 0.17899 0.0
C264 C 0.48614 0.51288 0.17252 0.0
C265 C 0.50263 0.49897 0.17951 0.0
C266 C 0.48532 0.51113 0.15877 0.0
C267 C 0.46906 0.52594 0.15071 0.0
C268 C 0.46965 0.55095 0.15153 0.0
C269 C 0.45589 0.56481 0.14304 0.0
C270 C 0.44141 0.55391 0.13352 0.0
C271 C 0.44044 0.52885 0.13296 0.0
C272 C 0.45413 0.51503 0.14146 0.0
C273 C 0.53455 0.46674 0.15188 0.0
C274 C 0.52608 0.44932 0.1432 0.0
C275 C 0.54199 0.43682 0.13523 0.0
C276 C 0.56663 0.4418 0.13566 0.0
C277 C 0.57515 0.45887 0.14458 0.0
C278 C 0.55923 0.47115 0.15268 0.0
C279 C 0.51747 0.48163 0.15933 0.0
C280 C 0.50103 0.49552 0.15237 0.0
C281 C 0.51806 0.48309 0.17307 0.0
C282 C 0.53313 0.46682 0.18092 0.0
C283 C 0.53038 0.44205 0.17964 0.0
C284 C 0.54393 0.42652 0.18727 0.0
C285 C 0.56051 0.43547 0.19634 0.0
C286 C 0.56342 0.4603 0.19755 0.0
C287 C 0.54967 0.47587 0.18997 0.0
H288 H 0.50538 0.94541 0.39378 0.0
H289 H 0.48186 0.92092 0.3788 0.0
H290 H 0.41703 0.95406 0.39283 0.0
H291 H 0.44072 0.97893 0.40772 0.0
H292 H 0.50879 0.99219 0.3926 0.0
H293 H 0.48045 0.93546 0.42406 0.0
H294 H 0.45 0.9132 0.43597 0.0
H295 H 0.42398 0.97913 0.45275 0.0
H296 H 0.45332 0.00136 0.44008 0.0
H297 H 0.50654 0.05136 0.43873 0.0
H298 H 0.53345 0.07701 0.45145 0.0
H299 H 0.59408 0.0367 0.43738 0.0
H300 H 0.56718 0.01107 0.42483 0.0
H301 H 0.4994 0.00276 0.44031 0.0
H302 H 0.52548 0.05936 0.40842 0.0
H303 H 0.55047 0.08271 0.39353 0.0
H304 H 0.58025 0.01752 0.37796 0.0
H305 H 0.55545 0.99428 0.3929 0.0
C306 C 0.47484 0.96403 0.40187 0.0
C307 C 0.48608 0.94728 0.39373 0.0
C308 C 0.47265 0.93332 0.38518 0.0
C309 C 0.44767 0.93574 0.38461 0.0
C310 C 0.43626 0.95173 0.39315 0.0
C311 C 0.44976 0.96592 0.40166 0.0
C312 C 0.48967 0.98071 0.40969 0.0
C313 C 0.50699 0.99418 0.40308 0.0
C314 C 0.48664 0.984 0.42328 0.0
C315 C 0.46887 0.97017 0.43094 0.0
C316 C 0.46794 0.94515 0.43015 0.0
C317 C 0.45072 0.93239 0.43714 0.0
C318 C 0.43437 0.94434 0.44529 0.0
C319 C 0.43588 0.96934 0.44636 0.0
C320 C 0.45285 0.98209 0.43922 0.0
C321 C 0.53491 0.02944 0.43079 0.0
C322 C 0.52563 0.04808 0.43842 0.0
C323 C 0.54099 0.06277 0.4456 0.0
C324 C 0.56582 0.05878 0.44542 0.0
C325 C 0.575 0.04002 0.43781 0.0
C326 C 0.55969 0.0255 0.43056 0.0
C327 C 0.51875 0.01378 0.4232 0.0
C328 C 0.50119 0.00061 0.42984 0.0
C329 C 0.5215 0.01071 0.40961 0.0
C330 C 0.53859 0.02505 0.40178 0.0
C331 C 0.53781 0.05012 0.40202 0.0
C332 C 0.55207 0.06345 0.3935 0.0
C333 C 0.56712 0.0519 0.38451 0.0
C334 C 0.56854 0.02687 0.38465 0.0
C335 C 0.55443 0.01359 0.3932 0.0
H336 H 0.00261 0.04623 0.69312 0.0
H337 H 0.98021 0.07504 0.70609 0.0
H338 H 0.91477 0.05261 0.68714 0.0
H339 H 0.937 0.02253 0.67508 0.0
H340 H 0.00308 0.0003 0.6919 0.0
H341 H 0.98797 0.06122 0.65822 0.0
H342 H 0.96454 0.08759 0.64394 0.0
H343 H 0.91937 0.02814 0.63329 0.0
H344 H 0.94302 0.00187 0.64736 0.0
H345 H 0.99379 0.94747 0.64373 0.0
H346 H 0.01641 0.92185 0.62891 0.0
H347 H 0.08255 0.94983 0.64451 0.0
H348 H 0.05978 0.97539 0.65938 0.0
H349 H 0.99347 0.99493 0.6439 0.0
H350 H 0.0106 0.93355 0.67445 0.0
H351 H 0.0363 0.90505 0.6857 0.0
H352 H 0.0769 0.96332 0.70226 0.0
H353 H 0.05094 0.99188 0.69095 0.0
C354 C 0.97161 0.03251 0.6829 0.0
C355 C 0.9834 0.04737 0.69186 0.0
C356 C 0.97055 0.06406 0.69917 0.0
C357 C 0.94564 0.06644 0.69759 0.0
C358 C 0.93386 0.05122 0.68875 0.0
C359 C 0.94666 0.03425 0.68163 0.0
C360 C 0.98539 0.01502 0.67502 0.0
C361 C 0.00124 0.9994 0.68138 0.0
C362 C 0.98254 0.01322 0.66135 0.0
C363 C 0.96715 0.02966 0.65382 0.0
C364 C 0.97283 0.054 0.65293 0.0
C365 C 0.95952 0.06897 0.64477 0.0
C366 C 0.94016 0.05985 0.63758 0.0
C367 C 0.93405 0.03565 0.63885 0.0
C368 C 0.94759 0.02063 0.64681 0.0
C369 C 0.02508 0.96333 0.65266 0.0
C370 C 0.01317 0.94795 0.64403 0.0
C371 C 0.02611 0.93337 0.63555 0.0
C372 C 0.05126 0.93396 0.63547 0.0
C373 C 0.0632 0.9488 0.64443 0.0
C374 C 0.05021 0.96343 0.65292 0.0
C375 C 0.01116 0.98033 0.66075 0.0
C376 C 0.99535 0.99588 0.65442 0.0
C377 C 0.01398 0.98194 0.67443 0.0
C378 C 0.0291 0.96481 0.6817 0.0
C379 C 0.02511 0.9402 0.68044 0.0
C380 C 0.03985 0.92394 0.68686 0.0
C381 C 0.05881 0.93195 0.69474 0.0
C382 C 0.06238 0.95663 0.6963 0.0
C383 C 0.04761 0.97294 0.68983 0.0
In384 In 0.31486 0.69251 0.00259 0.0
O385 O 0.30614 0.72434 0.01565 0.0
O386 O 0.32443 0.7312 0.99793 0.0
C387 C 0.27048 0.67531 0.99889 0.0
C388 C 0.3349 0.67033 0.02333 0.0
C389 C 0.33681 0.68151 0.97987 0.0
O390 O 0.2744 0.69735 0.0005 0.0
O391 O 0.28884 0.66222 0.99931 0.0
O392 O 0.34766 0.68136 0.99065 0.0
O393 O 0.31515 0.68757 0.98052 0.0
C394 C 0.31599 0.73956 0.00837 0.0
O395 O 0.31386 0.66619 0.01956 0.0
O396 O 0.34601 0.68545 0.01655 0.0
In397 In 0.31538 0.80656 0.25303 0.0
O398 O 0.3052 0.77116 0.24334 0.0
O399 O 0.33489 0.77136 0.25621 0.0
C400 C 0.27099 0.82328 0.25761 0.0
C401 C 0.33311 0.82497 0.2307 0.0
C402 C 0.33598 0.82246 0.27521 0.0
O403 O 0.27604 0.80137 0.25857 0.0
O404 O 0.28818 0.83644 0.2542 0.0
O405 O 0.34168 0.83011 0.26407 0.0
O406 O 0.32012 0.80643 0.27518 0.0
C407 C 0.32197 0.75947 0.24852 0.0
O408 O 0.34631 0.81751 0.2398 0.0
O409 O 0.31098 0.82308 0.23284 0.0
In410 In 0.18477 0.81223 0.50274 0.0
O411 O 0.15797 0.83264 0.51507 0.0
O412 O 0.1879 0.81777 0.52486 0.0
C413 C 0.1657 0.82744 0.48008 0.0
C414 C 0.17211 0.76604 0.50578 0.0
C415 C 0.22944 0.82923 0.49907 0.0
O416 O 0.16064 0.83649 0.49099 0.0
O417 O 0.18032 0.81026 0.48053 0.0
O418 O 0.22461 0.80728 0.49816 0.0
O419 O 0.21194 0.8423 0.50208 0.0
C420 C 0.16872 0.82954 0.52573 0.0
O421 O 0.19302 0.7734 0.50812 0.0
O422 O 0.15798 0.7818 0.50161 0.0
In423 In 0.19208 0.68678 0.75378 0.0
O424 O 0.1587 0.67656 0.76524 0.0
O425 O 0.19088 0.68201 0.77589 0.0
C426 C 0.17431 0.66086 0.7338 0.0
C427 C 0.23733 0.67181 0.75779 0.0
C428 C 0.18423 0.73292 0.74703 0.0
O429 O 0.16304 0.66403 0.74431 0.0
O430 O 0.19477 0.67035 0.73345 0.0
O431 O 0.18306 0.72589 0.75867 0.0
O432 O 0.1901 0.717 0.73901 0.0
C433 C 0.169 0.67646 0.7762 0.0
O434 O 0.23217 0.69365 0.75666 0.0
O435 O 0.21978 0.65779 0.75677 0.0
In436 In 0.81437 0.18343 0.50297 0.0
O437 O 0.80733 0.22259 0.50821 0.0
O438 O 0.84296 0.21198 0.5038 0.0
C439 C 0.76782 0.17248 0.49956 0.0
C440 C 0.83095 0.16516 0.52557 0.0
C441 C 0.83092 0.16702 0.47989 0.0
O442 O 0.77601 0.19299 0.49709 0.0
O443 O 0.78297 0.15788 0.50395 0.0
O444 O 0.8288 0.15391 0.4898 0.0
O445 O 0.82484 0.18845 0.48162 0.0
C446 C 0.82904 0.22859 0.50714 0.0
O447 O 0.8429 0.16487 0.51515 0.0
O448 O 0.81043 0.17438 0.52459 0.0
In449 In 0.81373 0.31653 0.75326 0.0
O450 O 0.8415 0.33349 0.73996 0.0
O451 O 0.80768 0.32501 0.73171 0.0
C452 C 0.83041 0.3353 0.77574 0.0
C453 C 0.82962 0.27147 0.75022 0.0
C454 C 0.76736 0.32766 0.75695 0.0
O455 O 0.83126 0.34625 0.76501 0.0
O456 O 0.82134 0.3147 0.77513 0.0
O457 O 0.77529 0.30683 0.75884 0.0
O458 O 0.78271 0.34249 0.75299 0.0
C459 C 0.82839 0.33338 0.72996 0.0
O460 O 0.80797 0.27701 0.74841 0.0
O461 O 0.84284 0.28844 0.75383 0.0
In462 In 0.69394 0.30775 0.00496 0.0
O463 O 0.70169 0.26846 0.00948 0.0
O464 O 0.66579 0.27877 0.00552 0.0
C465 C 0.74078 0.31351 0.99891 0.0
C466 C 0.68177 0.33038 0.02728 0.0
C467 C 0.66882 0.32627 0.98486 0.0
O468 O 0.73324 0.31478 0.01047 0.0
O469 O 0.72494 0.30859 0.99063 0.0
O470 O 0.672 0.33743 0.9954 0.0
O471 O 0.678 0.30573 0.98454 0.0
C472 C 0.68007 0.26215 0.00837 0.0
O473 O 0.68938 0.34139 0.01739 0.0
O474 O 0.68052 0.30804 0.02594 0.0
In475 In 0.68891 0.18696 0.25213 0.0
O476 O 0.66125 0.16586 0.26363 0.0
O477 O 0.68647 0.18615 0.27443 0.0
C478 C 0.67542 0.16816 0.22898 0.0
C479 C 0.73536 0.17422 0.25455 0.0
C480 C 0.67385 0.23238 0.24984 0.0
O481 O 0.67492 0.15655 0.23949 0.0
O482 O 0.68293 0.18928 0.23006 0.0
O483 O 0.69544 0.22646 0.24815 0.0
O484 O 0.66002 0.21543 0.25285 0.0
C485 C 0.66893 0.17199 0.27469 0.0
O486 O 0.72841 0.19539 0.25633 0.0
O487 O 0.71906 0.15987 0.25134 0.0
H488 H 0.11212 0.96183 0.29792 0.0
H489 H 0.14153 0.93669 0.28686 0.0
H490 H 0.10024 0.87406 0.29646 0.0
H491 H 0.07084 0.89917 0.30775 0.0
H492 H 0.14806 0.86896 0.30214 0.0
H493 H 0.10078 0.89296 0.26572 0.0
H494 H 0.07947 0.92125 0.25145 0.0
H495 H 0.1456 0.95698 0.24291 0.0
H496 H 0.16728 0.92911 0.25729 0.0
H497 H 0.23102 0.79911 0.26566 0.0
H498 H 0.19274 0.81636 0.27258 0.0
H499 H 0.21957 0.88692 0.26417 0.0
H500 H 0.25748 0.86984 0.25702 0.0
H501 H 0.17424 0.88299 0.25656 0.0
H502 H 0.22009 0.86386 0.29522 0.0
H503 H 0.24218 0.83713 0.31005 0.0
H504 H 0.17943 0.79376 0.31478 0.0
H505 H 0.15705 0.82009 0.29984 0.0
C506 C 0.10932 0.9427 0.29768 0.0
C507 C 0.08923 0.93244 0.30371 0.0
C508 C 0.126 0.92839 0.29126 0.0
C509 C 0.12291 0.90355 0.29073 0.0
C510 C 0.10285 0.89322 0.29671 0.0
C511 C 0.08604 0.90757 0.30308 0.0
C512 C 0.14131 0.88845 0.28443 0.0
C513 C 0.15345 0.87162 0.29208 0.0
C514 C 0.14858 0.89229 0.27139 0.0
C515 C 0.13563 0.90902 0.26266 0.0
C516 C 0.11076 0.90695 0.26087 0.0
C517 C 0.09862 0.9229 0.25275 0.0
C518 C 0.11117 0.94092 0.24629 0.0
C519 C 0.1359 0.94301 0.24792 0.0
C520 C 0.14813 0.92712 0.25605 0.0
C521 C 0.22862 0.81827 0.26516 0.0
C522 C 0.24727 0.83316 0.26089 0.0
C523 C 0.2068 0.8281 0.26915 0.0
C524 C 0.20342 0.85295 0.26904 0.0
C525 C 0.22176 0.8677 0.26433 0.0
C526 C 0.24347 0.85792 0.2603 0.0
C527 C 0.18136 0.86391 0.27437 0.0
C528 C 0.16855 0.87999 0.26654 0.0
C529 C 0.17359 0.85954 0.28729 0.0
C530 C 0.18699 0.84376 0.29629 0.0
C531 C 0.21106 0.84852 0.29935 0.0
C532 C 0.22363 0.83346 0.30778 0.0
C533 C 0.21224 0.81371 0.31332 0.0
C534 C 0.18824 0.80903 0.31046 0.0
C535 C 0.17561 0.82401 0.30201 0.0
H536 H 0.22199 0.80208 0.31985 0.0
H537 H 0.10173 0.95326 0.24001 0.0
H538 H 0.04185 0.60413 0.54829 0.0
H539 H 0.06621 0.63306 0.5364 0.0
H540 H 0.13031 0.5962 0.54835 0.0
H541 H 0.10593 0.56716 0.56038 0.0
H542 H 0.13221 0.64535 0.55241 0.0
H543 H 0.11384 0.59177 0.51763 0.0
H544 H 0.08786 0.56686 0.50375 0.0
H545 H 0.04884 0.62907 0.49173 0.0
H546 H 0.07436 0.65434 0.50569 0.0
H547 H 0.19879 0.72882 0.51514 0.0
H548 H 0.18403 0.68988 0.52247 0.0
H549 H 0.11242 0.70964 0.51101 0.0
H550 H 0.1271 0.74816 0.5034 0.0
H551 H 0.12005 0.66413 0.5056 0.0
H552 H 0.13248 0.71608 0.54274 0.0
H553 H 0.15627 0.74208 0.5572 0.0
H554 H 0.20416 0.68401 0.56529 0.0
H555 H 0.18078 0.65774 0.55073 0.0
C556 C 0.06113 0.60219 0.54838 0.0
C557 C 0.07202 0.58347 0.55529 0.0
C558 C 0.075 0.61859 0.5415 0.0
C559 C 0.10003 0.61661 0.5414 0.0
C560 C 0.111 0.59791 0.54826 0.0
C561 C 0.09709 0.58133 0.55507 0.0
C562 C 0.11458 0.63488 0.53463 0.0
C563 C 0.13001 0.64912 0.5421 0.0
C564 C 0.11127 0.64005 0.52126 0.0
C565 C 0.09594 0.62493 0.51278 0.0
C566 C 0.09961 0.60013 0.5121 0.0
C567 C 0.08498 0.58594 0.50421 0.0
C568 C 0.06669 0.59637 0.49688 0.0
C569 C 0.06301 0.62102 0.49741 0.0
C570 C 0.07758 0.63528 0.5053 0.0
C571 C 0.17997 0.72467 0.51401 0.0
C572 C 0.16405 0.74158 0.50881 0.0
C573 C 0.17155 0.70248 0.51824 0.0
C574 C 0.14705 0.69701 0.51749 0.0
C575 C 0.13138 0.71346 0.51171 0.0
C576 C 0.1398 0.73552 0.5074 0.0
C577 C 0.13725 0.67496 0.52345 0.0
C578 C 0.12266 0.66004 0.51584 0.0
C579 C 0.14109 0.66932 0.53675 0.0
C580 C 0.15508 0.68505 0.54553 0.0
C581 C 0.14819 0.70891 0.54753 0.0
C582 C 0.16158 0.72369 0.55575 0.0
C583 C 0.18176 0.71472 0.56212 0.0
C584 C 0.18855 0.69094 0.56032 0.0
C585 C 0.17524 0.6761 0.55209 0.0
H586 H 0.19211 0.72619 0.56849 0.0
H587 H 0.05538 0.58535 0.49077 0.0
H588 H 0.39576 0.54869 0.806 0.0
H589 H 0.36646 0.57177 0.7938 0.0
H590 H 0.41814 0.62794 0.78822 0.0
H591 H 0.44818 0.60446 0.80001 0.0
H592 H 0.37136 0.64304 0.79734 0.0
H593 H 0.40659 0.59775 0.76295 0.0
H594 H 0.42203 0.56148 0.75225 0.0
H595 H 0.35225 0.52959 0.75408 0.0
H596 H 0.33646 0.56553 0.76499 0.0
H597 H 0.27885 0.69774 0.75932 0.0
H598 H 0.31868 0.68301 0.76537 0.0
H599 H 0.29005 0.61182 0.76931 0.0
H600 H 0.25066 0.62623 0.76294 0.0
H601 H 0.33192 0.60988 0.75793 0.0
H602 H 0.29894 0.65025 0.79588 0.0
H603 H 0.28257 0.68484 0.80781 0.0
H604 H 0.34695 0.72435 0.80028 0.0
H605 H 0.36357 0.69005 0.78817 0.0
C606 C 0.40117 0.56573 0.80199 0.0
C607 C 0.42448 0.57456 0.80389 0.0
C608 C 0.38431 0.57896 0.79508 0.0
C609 C 0.39026 0.6014 0.79002 0.0
C610 C 0.4133 0.61059 0.79205 0.0
C611 C 0.43035 0.5972 0.79885 0.0
C612 C 0.37195 0.6152 0.78287 0.0
C613 C 0.36307 0.63618 0.78853 0.0
C614 C 0.36101 0.60594 0.77151 0.0
C615 C 0.37037 0.58432 0.76486 0.0
C616 C 0.39457 0.58294 0.76116 0.0
C617 C 0.40338 0.56245 0.75504 0.0
C618 C 0.38813 0.54323 0.7525 0.0
C619 C 0.36403 0.54449 0.75605 0.0
C620 C 0.35514 0.56494 0.76219 0.0
C621 C 0.28118 0.67893 0.76137 0.0
C622 C 0.26166 0.66314 0.76072 0.0
C623 C 0.30389 0.67055 0.76487 0.0
C624 C 0.30729 0.64635 0.76794 0.0
C625 C 0.28789 0.63054 0.76695 0.0
C626 C 0.26534 0.63883 0.76336 0.0
C627 C 0.33065 0.63727 0.77268 0.0
C628 C 0.34053 0.61714 0.76655 0.0
C629 C 0.34232 0.64716 0.7837 0.0
C630 C 0.33235 0.66773 0.79099 0.0
C631 C 0.30952 0.66638 0.79669 0.0
C632 C 0.30021 0.68592 0.80349 0.0
C633 C 0.31368 0.70681 0.80476 0.0
C634 C 0.33651 0.70818 0.79926 0.0
C635 C 0.34589 0.6887 0.79243 0.0
H636 H 0.30644 0.72191 0.81004 0.0
H637 H 0.39499 0.52737 0.74776 0.0
H638 H 0.3931 0.91915 0.07358 0.0
H639 H 0.3674 0.8888 0.06375 0.0
H640 H 0.40783 0.8932 0.02801 0.0
H641 H 0.43319 0.92417 0.03764 0.0
H642 H 0.35962 0.88891 0.02338 0.0
H643 H 0.41979 0.85007 0.04954 0.0
H644 H 0.44265 0.84221 0.06965 0.0
H645 H 0.37799 0.82197 0.08936 0.0
H646 H 0.35468 0.83005 0.0694 0.0
H647 H 0.3414 0.77395 0.99565 0.0
H648 H 0.3545 0.81232 0.00442 0.0
H649 H 0.31356 0.79964 0.0394 0.0
H650 H 0.30075 0.76099 0.03077 0.0
H651 H 0.35839 0.80986 0.04512 0.0
H652 H 0.29863 0.84475 0.01797 0.0
H653 H 0.27627 0.85215 0.99765 0.0
H654 H 0.33998 0.87919 0.97952 0.0
H655 H 0.36283 0.87164 0.99968 0.0
C656 C 0.39627 0.914 0.06355 0.0
C657 C 0.41529 0.92396 0.05641 0.0
C658 C 0.38166 0.89653 0.05798 0.0
C659 C 0.3859 0.88857 0.04521 0.0
C660 C 0.4043 0.89908 0.03789 0.0
C661 C 0.41892 0.91657 0.04345 0.0
C662 C 0.37209 0.86833 0.03974 0.0
C663 C 0.35943 0.87155 0.02806 0.0
C664 C 0.37146 0.84588 0.04604 0.0
C665 C 0.38546 0.84094 0.05803 0.0
C666 C 0.41042 0.84414 0.05819 0.0
C667 C 0.42346 0.83961 0.06956 0.0
C668 C 0.41177 0.83167 0.08078 0.0
C669 C 0.38701 0.82817 0.08066 0.0
C670 C 0.37388 0.83271 0.06933 0.0
C671 C 0.33475 0.77958 0.00508 0.0
C672 C 0.3202 0.76442 0.01257 0.0
C673 C 0.34217 0.80158 0.01007 0.0
C674 C 0.33496 0.8089 0.02256 0.0
C675 C 0.31936 0.79433 0.02975 0.0
C676 C 0.312 0.77229 0.02479 0.0
C677 C 0.34586 0.8303 0.02868 0.0
C678 C 0.35816 0.82727 0.04049 0.0
C679 C 0.34617 0.85285 0.02247 0.0
C680 C 0.33249 0.85745 0.01032 0.0
C681 C 0.30793 0.8521 0.00962 0.0
C682 C 0.29516 0.85635 0.99813 0.0
C683 C 0.30671 0.86608 0.98729 0.0
C684 C 0.33106 0.87163 0.98793 0.0
C685 C 0.34392 0.8674 0.99939 0.0
H686 H 0.29679 0.86936 0.97841 0.0
H687 H 0.4219 0.82817 0.08957 0.0
H688 H 0.10976 0.54977 0.95052 0.0
H689 H 0.14073 0.57139 0.96239 0.0
H690 H 0.09095 0.62825 0.9705 0.0
H691 H 0.05938 0.60629 0.95908 0.0
H692 H 0.13623 0.6433 0.96034 0.0
H693 H 0.1047 0.59502 0.99466 0.0
H694 H 0.09084 0.55775 0.00495 0.0
H695 H 0.16081 0.52721 0.00042 0.0
H696 H 0.175 0.56417 0.98991 0.0
H697 H 0.22756 0.69896 0.99838 0.0
H698 H 0.18842 0.68252 0.99234 0.0
H699 H 0.22067 0.61332 0.98655 0.0
H700 H 0.25945 0.62941 0.9929 0.0
H701 H 0.17918 0.60831 0.99812 0.0
H702 H 0.20897 0.65236 0.96093 0.0
H703 H 0.22377 0.68809 0.94944 0.0
H704 H 0.15836 0.72496 0.95822 0.0
H705 H 0.1433 0.68951 0.9699 0.0
C706 C 0.10517 0.56665 0.95502 0.0
C707 C 0.08197 0.57618 0.95389 0.0
C708 C 0.12296 0.57904 0.96174 0.0
C709 C 0.11802 0.60129 0.96739 0.0
C710 C 0.09504 0.61107 0.9662 0.0
C711 C 0.0771 0.59854 0.9596 0.0
C712 C 0.13724 0.61447 0.97419 0.0
C713 C 0.14533 0.63598 0.96879 0.0
C714 C 0.14929 0.60457 0.98503 0.0
C715 C 0.14087 0.58233 0.99141 0.0
C716 C 0.11709 0.58029 0.99576 0.0
C717 C 0.10918 0.55923 0.00165 0.0
C718 C 0.12492 0.54011 0.00332 0.0
C719 C 0.14863 0.54203 0.99912 0.0
C720 C 0.15662 0.56305 0.99321 0.0
C721 C 0.2262 0.68021 0.99593 0.0
C722 C 0.24655 0.66548 0.99604 0.0
C723 C 0.20387 0.67086 0.99244 0.0
C724 C 0.20168 0.64675 0.98883 0.0
C725 C 0.2219 0.63195 0.98931 0.0
C726 C 0.2441 0.6412 0.9929 0.0
C727 C 0.17867 0.63686 0.98406 0.0
C728 C 0.16984 0.61593 0.98984 0.0
C729 C 0.16612 0.64713 0.97345 0.0
C730 C 0.17514 0.66841 0.96642 0.0
C731 C 0.19783 0.66816 0.96049 0.0
C732 C 0.20625 0.68834 0.95394 0.0
C733 C 0.19205 0.70881 0.95314 0.0
C734 C 0.16936 0.70911 0.95887 0.0
C735 C 0.16087 0.68898 0.96546 0.0
H736 H 0.19859 0.72442 0.94806 0.0
H737 H 0.11877 0.52382 0.00788 0.0
H738 H 0.44302 0.57997 0.21721 0.0
H739 H 0.41727 0.60969 0.22734 0.0
H740 H 0.36742 0.60349 0.19538 0.0
H741 H 0.39397 0.57501 0.18469 0.0
H742 H 0.37415 0.64749 0.19999 0.0
H743 H 0.35502 0.58183 0.22716 0.0
H744 H 0.36218 0.54709 0.24137 0.0
H745 H 0.39799 0.59199 0.26915 0.0
H746 H 0.39136 0.62697 0.25503 0.0
H747 H 0.29805 0.73077 0.23131 0.0
H748 H 0.31089 0.69175 0.22309 0.0
H749 H 0.37188 0.69353 0.24887 0.0
H750 H 0.35893 0.73221 0.25729 0.0
H751 H 0.35314 0.64869 0.24698 0.0
H752 H 0.37569 0.71311 0.21699 0.0
H753 H 0.36627 0.74695 0.20245 0.0
H754 H 0.3203 0.70185 0.17965 0.0
H755 H 0.32928 0.66784 0.19411 0.0
C756 C 0.42666 0.58499 0.21227 0.0
C757 C 0.42072 0.57514 0.20006 0.0
C758 C 0.4117 0.60172 0.21821 0.0
C759 C 0.39016 0.60862 0.21224 0.0
C760 C 0.38388 0.59839 0.20021 0.0
C761 C 0.39901 0.5819 0.19417 0.0
C762 C 0.37524 0.62784 0.21806 0.0
C763 C 0.36912 0.64743 0.21021 0.0
C764 C 0.3688 0.628 0.23142 0.0
C765 C 0.37283 0.60701 0.23998 0.0
C766 C 0.36458 0.58428 0.23625 0.0
C767 C 0.36852 0.56455 0.2443 0.0
C768 C 0.38057 0.56733 0.25614 0.0
C769 C 0.38867 0.58986 0.25997 0.0
C770 C 0.38479 0.60966 0.25196 0.0
C771 C 0.31396 0.72262 0.23539 0.0
C772 C 0.32764 0.73462 0.24484 0.0
C773 C 0.3213 0.70039 0.23066 0.0
C774 C 0.34256 0.68995 0.23522 0.0
C775 C 0.35545 0.70129 0.2452 0.0
C776 C 0.34807 0.72343 0.24997 0.0
C777 C 0.35258 0.6683 0.22895 0.0
C778 C 0.35784 0.64838 0.23672 0.0
C779 C 0.35794 0.66763 0.21547 0.0
C780 C 0.35295 0.68804 0.2067 0.0
C781 C 0.36349 0.71047 0.20891 0.0
C782 C 0.35824 0.72966 0.20068 0.0
C783 C 0.34261 0.72655 0.19017 0.0
C784 C 0.33235 0.70423 0.18781 0.0
C785 C 0.33753 0.685 0.196 0.0
H786 H 0.33842 0.74139 0.18385 0.0
H787 H 0.3836 0.55202 0.26236 0.0
H788 H 0.43778 0.90012 0.45683 0.0
H789 H 0.4062 0.87787 0.46803 0.0
H790 H 0.35714 0.93607 0.46167 0.0
H791 H 0.3881 0.95801 0.44999 0.0
H792 H 0.35751 0.9173 0.48778 0.0
H793 H 0.35314 0.89074 0.4426 0.0
H794 H 0.37008 0.87305 0.4226 0.0
H795 H 0.38673 0.80878 0.44349 0.0
H796 H 0.37019 0.82625 0.46367 0.0
H797 H 0.2406 0.87583 0.49525 0.0
H798 H 0.27883 0.89252 0.48852 0.0
H799 H 0.31048 0.82225 0.48942 0.0
H800 H 0.27168 0.80524 0.49565 0.0
H801 H 0.32379 0.84339 0.46843 0.0
H802 H 0.324 0.86665 0.51288 0.0
H803 H 0.3083 0.88349 0.53338 0.0
H804 H 0.30169 0.95227 0.51532 0.0
H805 H 0.31703 0.93579 0.49465 0.0
C806 C 0.42022 0.90812 0.45768 0.0
C807 C 0.41554 0.93091 0.45248 0.0
C808 C 0.40227 0.89544 0.46417 0.0
C809 C 0.37942 0.90539 0.46567 0.0
C810 C 0.37477 0.9282 0.46069 0.0
C811 C 0.39256 0.94076 0.45407 0.0
C812 C 0.35998 0.89192 0.4721 0.0
C813 C 0.35 0.90118 0.48357 0.0
C814 C 0.35092 0.87044 0.46682 0.0
C815 C 0.3607 0.8599 0.45467 0.0
C816 C 0.36061 0.87292 0.44295 0.0
C817 C 0.3701 0.86292 0.43158 0.0
C818 C 0.37955 0.83983 0.43179 0.0
C819 C 0.37946 0.82668 0.44336 0.0
C820 C 0.37002 0.83661 0.45476 0.0
C821 C 0.25575 0.86393 0.49416 0.0
C822 C 0.2532 0.83924 0.49601 0.0
C823 C 0.27769 0.87353 0.49039 0.0
C824 C 0.29774 0.85874 0.4887 0.0
C825 C 0.29531 0.83404 0.49072 0.0
C826 C 0.27318 0.82435 0.49431 0.0
C827 C 0.3207 0.86905 0.48404 0.0
C828 C 0.33144 0.85922 0.47288 0.0
C829 C 0.33069 0.88986 0.48973 0.0
C830 C 0.32155 0.89993 0.50218 0.0
C831 C 0.31906 0.88534 0.51325 0.0
C832 C 0.31024 0.89482 0.52491 0.0
C833 C 0.30397 0.91892 0.52565 0.0
C834 C 0.30655 0.9336 0.51474 0.0
C835 C 0.31535 0.92421 0.50305 0.0
H836 H 0.29713 0.92623 0.53468 0.0
H837 H 0.38689 0.83212 0.42297 0.0
H838 H 0.07784 0.89163 0.68414 0.0
H839 H 0.10165 0.86107 0.69502 0.0
H840 H 0.10029 0.90205 0.73063 0.0
H841 H 0.07616 0.9328 0.71979 0.0
H842 H 0.14499 0.88133 0.72578 0.0
H843 H 0.06362 0.85727 0.72845 0.0
H844 H 0.02279 0.84922 0.72048 0.0
H845 H 0.04998 0.79542 0.69459 0.0
H846 H 0.09106 0.80342 0.70225 0.0
H847 H 0.17303 0.77156 0.76229 0.0
H848 H 0.15504 0.80931 0.75501 0.0
H849 H 0.15917 0.78544 0.7151 0.0
H850 H 0.17748 0.74811 0.72219 0.0
H851 H 0.11169 0.79921 0.72515 0.0
H852 H 0.19389 0.82621 0.72207 0.0
H853 H 0.23416 0.83454 0.73077 0.0
H854 H 0.20412 0.88269 0.75895 0.0
H855 H 0.16359 0.87436 0.75053 0.0
C856 C 0.08254 0.89414 0.6943 0.0
C857 C 0.07481 0.91443 0.70117 0.0
C858 C 0.09623 0.87673 0.70048 0.0
C859 C 0.1024 0.87916 0.71367 0.0
C860 C 0.09565 0.89986 0.72045 0.0
C861 C 0.08191 0.91737 0.71424 0.0
C862 C 0.11489 0.85939 0.7204 0.0
C863 C 0.13757 0.86345 0.72586 0.0
C864 C 0.10516 0.83608 0.72046 0.0
C865 C 0.08046 0.83109 0.71585 0.0
C866 C 0.06093 0.84386 0.72098 0.0
C867 C 0.03773 0.83928 0.71653 0.0
C868 C 0.0338 0.82185 0.70702 0.0
C869 C 0.05306 0.80893 0.70195 0.0
C870 C 0.0763 0.81346 0.70635 0.0
C871 C 0.17052 0.77461 0.75195 0.0
C872 C 0.17654 0.75689 0.74281 0.0
C873 C 0.16029 0.79613 0.74782 0.0
C874 C 0.15576 0.8 0.73454 0.0
C875 C 0.16255 0.7827 0.72539 0.0
C876 C 0.17306 0.76142 0.72947 0.0
C877 C 0.14205 0.82102 0.73014 0.0
C878 C 0.119 0.81716 0.72519 0.0
C879 C 0.15135 0.84444 0.73071 0.0
C880 C 0.17568 0.84941 0.73579 0.0
C881 C 0.19583 0.83836 0.73022 0.0
C882 C 0.21872 0.84313 0.73507 0.0
C883 C 0.22169 0.85907 0.74544 0.0
C884 C 0.20178 0.87031 0.75094 0.0
C885 C 0.17885 0.86558 0.74613 0.0
H886 H 0.23942 0.86275 0.74918 0.0
H887 H 0.01582 0.81833 0.70359 0.0
H888 H 0.56601 0.39116 0.8103 0.0
H889 H 0.59464 0.36651 0.7981 0.0
H890 H 0.63347 0.42987 0.78702 0.0
H891 H 0.60494 0.4545 0.79908 0.0
H892 H 0.62785 0.39734 0.76651 0.0
H893 H 0.65219 0.39814 0.81216 0.0
H894 H 0.64577 0.39099 0.83563 0.0
H895 H 0.63273 0.31675 0.82799 0.0
H896 H 0.63876 0.32355 0.80443 0.0
H897 H 0.74802 0.37194 0.75482 0.0
H898 H 0.70853 0.38496 0.76181 0.0
H899 H 0.69086 0.31277 0.77286 0.0
H900 H 0.73088 0.29965 0.76612 0.0
H901 H 0.67978 0.34239 0.79174 0.0
H902 H 0.66315 0.34006 0.74652 0.0
H903 H 0.66968 0.34696 0.72305 0.0
H904 H 0.66747 0.42271 0.72932 0.0
H905 H 0.66127 0.41629 0.75285 0.0
C906 C 0.58051 0.39978 0.80512 0.0
C907 C 0.58343 0.42469 0.80571 0.0
C908 C 0.59684 0.38572 0.79821 0.0
C909 C 0.6162 0.3964 0.79173 0.0
C910 C 0.61863 0.42131 0.79194 0.0
C911 C 0.60247 0.43532 0.79893 0.0
C912 C 0.63484 0.3818 0.7853 0.0
C913 C 0.63926 0.38531 0.77198 0.0
C914 C 0.6491 0.3655 0.79239 0.0
C915 C 0.64562 0.36141 0.80654 0.0
C916 C 0.64776 0.38033 0.81548 0.0
C917 C 0.64423 0.37634 0.82879 0.0
C918 C 0.63877 0.35344 0.83329 0.0
C919 C 0.63691 0.33448 0.82449 0.0
C920 C 0.64038 0.3384 0.81116 0.0
C921 C 0.73564 0.35873 0.75857 0.0
C922 C 0.74254 0.33477 0.75995 0.0
C923 C 0.71296 0.36619 0.76248 0.0
C924 C 0.69656 0.3498 0.76769 0.0
C925 C 0.70319 0.3257 0.7688 0.0
C926 C 0.72601 0.31822 0.76493 0.0
C927 C 0.6734 0.35845 0.77296 0.0
C928 C 0.66809 0.35388 0.7861 0.0
C929 C 0.65823 0.37367 0.76567 0.0
C930 C 0.66185 0.37767 0.75148 0.0
C931 C 0.6642 0.3582 0.74291 0.0
C932 C 0.66783 0.36202 0.72959 0.0
C933 C 0.66901 0.38526 0.7247 0.0
C934 C 0.66654 0.40472 0.73312 0.0
C935 C 0.66292 0.40099 0.74645 0.0
H936 H 0.67183 0.38818 0.71438 0.0
H937 H 0.63604 0.35038 0.8436 0.0
H938 H 0.54536 0.10182 0.04438 0.0
H939 H 0.57182 0.12945 0.03296 0.0
H940 H 0.63305 0.08775 0.04465 0.0
H941 H 0.60655 0.06011 0.05632 0.0
H942 H 0.63867 0.13522 0.04985 0.0
H943 H 0.61706 0.08802 0.01316 0.0
H944 H 0.58994 0.06647 0.99829 0.0
H945 H 0.55457 0.13217 0.98868 0.0
H946 H 0.58125 0.15409 0.00364 0.0
H947 H 0.70659 0.22325 0.01572 0.0
H948 H 0.69151 0.18348 0.02146 0.0
H949 H 0.61957 0.2064 0.01269 0.0
H950 H 0.63448 0.24575 0.00674 0.0
H951 H 0.62672 0.16194 0.0042 0.0
H952 H 0.64181 0.2068 0.04399 0.0
H953 H 0.66711 0.2291 0.0595 0.0
H954 H 0.71311 0.16819 0.06365 0.0
H955 H 0.68822 0.14564 0.04801 0.0
C956 C 0.56445 0.09847 0.04446 0.0
C957 C 0.57393 0.0789 0.05128 0.0
C958 C 0.57953 0.11412 0.03783 0.0
C959 C 0.60437 0.11049 0.03785 0.0
C960 C 0.6139 0.09074 0.04446 0.0
C961 C 0.59877 0.07495 0.05105 0.0
C962 C 0.62025 0.12846 0.03176 0.0
C963 C 0.63654 0.14066 0.03976 0.0
C964 C 0.61715 0.13577 0.01867 0.0
C965 C 0.60112 0.12269 0.00958 0.0
C966 C 0.6034 0.09786 0.00795 0.0
C967 C 0.58812 0.08558 0.99949 0.0
C968 C 0.57053 0.09794 0.99256 0.0
C969 C 0.56821 0.12262 0.99405 0.0
C970 C 0.58345 0.13499 0.0025 0.0
C971 C 0.6876 0.21966 0.01488 0.0
C972 C 0.67167 0.23762 0.01088 0.0
C973 C 0.67902 0.19699 0.01819 0.0
C974 C 0.65438 0.19207 0.01763 0.0
C975 C 0.63864 0.20977 0.01317 0.0
C976 C 0.64718 0.23231 0.00983 0.0
C977 C 0.64448 0.16916 0.02242 0.0
C978 C 0.62932 0.15606 0.01418 0.0
C979 C 0.64844 0.16113 0.03532 0.0
C980 C 0.66337 0.17466 0.04472 0.0
C981 C 0.65743 0.19824 0.04813 0.0
C982 C 0.67167 0.21091 0.05696 0.0
C983 C 0.69175 0.2001 0.06252 0.0
C984 C 0.69759 0.17656 0.0593 0.0
C985 C 0.68343 0.16383 0.05046 0.0
H986 H 0.70275 0.20993 0.06936 0.0
H987 H 0.55871 0.08839 0.98601 0.0
H988 H 0.89667 0.04965 0.29938 0.0
H989 H 0.86721 0.07285 0.28733 0.0
H990 H 0.91492 0.13327 0.28696 0.0
H991 H 0.94525 0.10981 0.29845 0.0
H992 H 0.86558 0.14191 0.29606 0.0
H993 H 0.9087 0.1093 0.2599 0.0
H994 H 0.92811 0.07736 0.24718 0.0
H995 H 0.8609 0.04077 0.24368 0.0
H996 H 0.84114 0.07232 0.25656 0.0
H997 H 0.77478 0.20163 0.25996 0.0
H998 H 0.81483 0.18747 0.26594 0.0
H999 H 0.79114 0.11461 0.26128 0.0
H1000 H 0.75165 0.12862 0.25486 0.0
H1001 H 0.83442 0.11806 0.25265 0.0
H1002 H 0.79312 0.14425 0.29167 0.0
H1003 H 0.77225 0.17337 0.30569 0.0
H1004 H 0.83402 0.21894 0.30514 0.0
H1005 H 0.85515 0.19019 0.29097 0.0
C1006 C 0.90126 0.06767 0.29651 0.0
C1007 C 0.9235 0.07775 0.29987 0.0
C1008 C 0.88428 0.08095 0.28969 0.0
C1009 C 0.88901 0.10467 0.28622 0.0
C1010 C 0.91102 0.11495 0.28958 0.0
C1011 C 0.92823 0.10154 0.29623 0.0
C1012 C 0.87037 0.11876 0.27952 0.0
C1013 C 0.85908 0.13715 0.28643 0.0
C1014 C 0.86169 0.11207 0.2671 0.0
C1015 C 0.87347 0.09312 0.25927 0.0
C1016 C 0.89809 0.09435 0.25651 0.0
C1017 C 0.90915 0.07633 0.24925 0.0
C1018 C 0.89576 0.05703 0.24464 0.0
C1019 C 0.87126 0.05573 0.24726 0.0
C1020 C 0.86011 0.0737 0.25452 0.0
C1021 C 0.77828 0.18262 0.26006 0.0
C1022 C 0.76008 0.16622 0.25704 0.0
C1023 C 0.80111 0.17455 0.26352 0.0
C1024 C 0.8059 0.14995 0.26427 0.0
C1025 C 0.78793 0.13366 0.26077 0.0
C1026 C 0.7653 0.1417 0.25714 0.0
C1027 C 0.82903 0.14082 0.26936 0.0
C1028 C 0.8412 0.12329 0.26215 0.0
C1029 C 0.83824 0.14799 0.28162 0.0
C1030 C 0.82558 0.16525 0.29014 0.0
C1031 C 0.80217 0.16057 0.29446 0.0
C1032 C 0.79031 0.17699 0.30244 0.0
C1033 C 0.80177 0.19803 0.30626 0.0
C1034 C 0.82515 0.20267 0.30214 0.0
C1035 C 0.83708 0.18632 0.29414 0.0
H1036 H 0.79256 0.21072 0.31245 0.0
H1037 H 0.90435 0.04309 0.23903 0.0
H1038 H 0.89647 0.43841 0.54846 0.0
H1039 H 0.8737 0.40682 0.53761 0.0
H1040 H 0.93444 0.35974 0.54043 0.0
H1041 H 0.95693 0.39054 0.55189 0.0
H1042 H 0.91009 0.36159 0.51491 0.0
H1043 H 0.89477 0.35221 0.56148 0.0
H1044 H 0.88116 0.36678 0.58293 0.0
H1045 H 0.81169 0.38177 0.56703 0.0
H1046 H 0.82504 0.3676 0.54542 0.0
H1047 H 0.87534 0.24286 0.50863 0.0
H1048 H 0.8906 0.2819 0.51484 0.0
H1049 H 0.81837 0.30836 0.51848 0.0
H1050 H 0.80289 0.26876 0.51265 0.0
H1051 H 0.8434 0.32217 0.5385 0.0
H1052 H 0.85558 0.32614 0.49292 0.0
H1053 H 0.86814 0.31275 0.47107 0.0
H1054 H 0.94129 0.31013 0.48379 0.0
H1055 H 0.92915 0.32317 0.50579 0.0
C1056 C 0.90497 0.42129 0.5469 0.0
C1057 C 0.92859 0.41709 0.55113 0.0
C1058 C 0.89197 0.40336 0.54059 0.0
C1059 C 0.90246 0.38106 0.53824 0.0
C1060 C 0.92615 0.37696 0.54208 0.0
C1061 C 0.93902 0.39469 0.54858 0.0
C1062 C 0.88855 0.36146 0.53228 0.0
C1063 C 0.89554 0.35286 0.52003 0.0
C1064 C 0.86903 0.35081 0.53881 0.0
C1065 C 0.86099 0.35915 0.55181 0.0
C1066 C 0.87667 0.35883 0.56253 0.0
C1067 C 0.86899 0.36697 0.57472 0.0
C1068 C 0.8456 0.37527 0.57633 0.0
C1069 C 0.82982 0.37538 0.56576 0.0
C1070 C 0.83743 0.3673 0.55354 0.0
C1071 C 0.86266 0.25703 0.51063 0.0
C1072 C 0.83792 0.2528 0.51012 0.0
C1073 C 0.87143 0.27943 0.5141 0.0
C1074 C 0.85566 0.29825 0.51689 0.0
C1075 C 0.83088 0.29414 0.51629 0.0
C1076 C 0.82206 0.27157 0.51294 0.0
C1077 C 0.86532 0.32166 0.52118 0.0
C1078 C 0.85758 0.33108 0.53316 0.0
C1079 C 0.88394 0.33328 0.51429 0.0
C1080 C 0.89141 0.32552 0.50104 0.0
C1081 C 0.87433 0.32256 0.49109 0.0
C1082 C 0.88138 0.31505 0.47867 0.0
C1083 C 0.90549 0.31056 0.47605 0.0
C1084 C 0.92261 0.31362 0.48584 0.0
C1085 C 0.91566 0.32111 0.49828 0.0
H1086 H 0.91091 0.30474 0.46643 0.0
H1087 H 0.83969 0.38156 0.58578 0.0
H1088 H 0.56618 0.10752 0.4472 0.0
H1089 H 0.59521 0.13254 0.45887 0.0
H1090 H 0.6315 0.06936 0.4725 0.0
H1091 H 0.60248 0.04434 0.46102 0.0
H1092 H 0.62711 0.10418 0.4917 0.0
H1093 H 0.65169 0.0977 0.44628 0.0
H1094 H 0.64568 0.10232 0.42259 0.0
H1095 H 0.63477 0.17763 0.42763 0.0
H1096 H 0.6404 0.17337 0.45139 0.0
H1097 H 0.74781 0.12877 0.50306 0.0
H1098 H 0.7082 0.11555 0.49633 0.0
H1099 H 0.69172 0.18664 0.48288 0.0
H1100 H 0.73183 0.19991 0.48936 0.0
H1101 H 0.68056 0.15507 0.46491 0.0
H1102 H 0.66339 0.16268 0.50995 0.0
H1103 H 0.66955 0.15815 0.53362 0.0
H1104 H 0.666 0.08193 0.52974 0.0
H1105 H 0.66016 0.08595 0.50602 0.0
C1106 C 0.58016 0.09902 0.45285 0.0
C1107 C 0.58224 0.07401 0.45313 0.0
C1108 C 0.59674 0.1133 0.45945 0.0
C1109 C 0.61556 0.10277 0.46646 0.0
C1110 C 0.61709 0.07782 0.46715 0.0
C1111 C 0.60066 0.06357 0.46049 0.0
C1112 C 0.63461 0.11749 0.47246 0.0
C1113 C 0.63885 0.11532 0.48588 0.0
C1114 C 0.64936 0.13261 0.4649 0.0
C1115 C 0.64616 0.13517 0.45062 0.0
C1116 C 0.64782 0.11521 0.44235 0.0
C1117 C 0.64451 0.11776 0.42891 0.0
C1118 C 0.63977 0.14024 0.42362 0.0
C1119 C 0.63839 0.16022 0.43175 0.0
C1120 C 0.64164 0.15775 0.4452 0.0
C1121 C 0.73565 0.14171 0.49884 0.0
C1122 C 0.74292 0.16538 0.49671 0.0
C1123 C 0.71292 0.13414 0.49507 0.0
C1124 C 0.69682 0.15016 0.48925 0.0
C1125 C 0.70381 0.174 0.4874 0.0
C1126 C 0.72668 0.18158 0.49113 0.0
C1127 C 0.6736 0.14128 0.48416 0.0
C1128 C 0.66854 0.14448 0.47087 0.0
C1129 C 0.65805 0.12719 0.49188 0.0
C1130 C 0.66144 0.12464 0.50617 0.0
C1131 C 0.66407 0.14494 0.51413 0.0
C1132 C 0.66749 0.14246 0.52756 0.0
C1133 C 0.66819 0.11977 0.53318 0.0
C1134 C 0.66544 0.0995 0.52538 0.0
C1135 C 0.66203 0.10187 0.51194 0.0
H1136 H 0.67085 0.11789 0.54359 0.0
H1137 H 0.63721 0.14219 0.41321 0.0
H1138 H 0.96048 0.11153 0.70423 0.0
H1139 H 0.93801 0.14225 0.7158 0.0
H1140 H 0.87718 0.09524 0.7184 0.0
H1141 H 0.8999 0.06374 0.70746 0.0
H1142 H 0.86904 0.14415 0.70772 0.0
H1143 H 0.90261 0.10299 0.74465 0.0
H1144 H 0.93532 0.08487 0.75737 0.0
H1145 H 0.97118 0.15257 0.75923 0.0
H1146 H 0.93885 0.17103 0.74634 0.0
H1147 H 0.80489 0.23074 0.74414 0.0
H1148 H 0.82174 0.19213 0.73763 0.0
H1149 H 0.89305 0.22026 0.74277 0.0
H1150 H 0.87637 0.25837 0.7497 0.0
H1151 H 0.89236 0.17669 0.75092 0.0
H1152 H 0.8653 0.21693 0.71222 0.0
H1153 H 0.83613 0.2372 0.69799 0.0
H1154 H 0.79208 0.17438 0.69772 0.0
H1155 H 0.82092 0.15382 0.71208 0.0
C1156 C 0.94253 0.1074 0.70749 0.0
C1157 C 0.93209 0.08503 0.7049 0.0
C1158 C 0.92967 0.12509 0.71402 0.0
C1159 C 0.90603 0.1209 0.71794 0.0
C1160 C 0.89543 0.09873 0.71539 0.0
C1161 C 0.90842 0.08085 0.70905 0.0
C1162 C 0.89226 0.14013 0.72432 0.0
C1163 C 0.87372 0.15099 0.71729 0.0
C1164 C 0.89899 0.14937 0.7366 0.0
C1165 C 0.91838 0.13835 0.74444 0.0
C1166 C 0.91757 0.11398 0.74767 0.0
C1167 C 0.93602 0.10365 0.75494 0.0
C1168 C 0.95534 0.11755 0.75909 0.0
C1169 C 0.95622 0.14182 0.756 0.0
C1170 C 0.93781 0.15223 0.74873 0.0
C1171 C 0.82415 0.22852 0.74402 0.0
C1172 C 0.83933 0.24756 0.74735 0.0
C1173 C 0.83375 0.20653 0.74024 0.0
C1174 C 0.85868 0.20341 0.7395 0.0
C1175 C 0.87378 0.2222 0.74327 0.0
C1176 C 0.86421 0.24402 0.7472 0.0
C1177 C 0.86924 0.18108 0.73425 0.0
C1178 C 0.88728 0.16964 0.74145 0.0
C1179 C 0.86245 0.17166 0.72197 0.0
C1180 C 0.8451 0.18396 0.71335 0.0
C1181 C 0.8493 0.20751 0.70921 0.0
C1182 C 0.83285 0.21904 0.7011 0.0
C1183 C 0.81221 0.20711 0.69699 0.0
C1184 C 0.80804 0.18361 0.70094 0.0
C1185 C 0.82444 0.17201 0.70905 0.0
H1186 H 0.7995 0.21606 0.69072 0.0
H1187 H 0.96962 0.10953 0.76471 0.0
H1188 H 0.93744 0.42458 0.96911 0.0
H1189 H 0.90897 0.39808 0.98014 0.0
H1190 H 0.8627 0.40057 0.9465 0.0
H1191 H 0.89105 0.42663 0.9354 0.0
H1192 H 0.83884 0.41057 0.96876 0.0
H1193 H 0.89427 0.35135 0.9532 0.0
H1194 H 0.93366 0.33211 0.95064 0.0
H1195 H 0.93832 0.32224 0.99208 0.0
H1196 H 0.89907 0.34175 0.9949 0.0
H1197 H 0.7583 0.31694 0.97431 0.0
H1198 H 0.79583 0.33538 0.96757 0.0
H1199 H 0.81626 0.34433 0.00781 0.0
H1200 H 0.7783 0.32615 0.01473 0.0
H1201 H 0.85499 0.32892 0.98535 0.0
H1202 H 0.79853 0.38925 0.00041 0.0
H1203 H 0.75802 0.4065 0.0019 0.0
H1204 H 0.7552 0.4129 0.96021 0.0
H1205 H 0.79559 0.39532 0.95847 0.0
C1206 C 0.92137 0.41916 0.964 0.0
C1207 C 0.91636 0.42791 0.95144 0.0
C1208 C 0.90513 0.40407 0.97032 0.0
C1209 C 0.88371 0.39744 0.96414 0.0
C1210 C 0.87903 0.40564 0.95148 0.0
C1211 C 0.8952 0.42063 0.94518 0.0
C1212 C 0.86544 0.383 0.97099 0.0
C1213 C 0.84245 0.39273 0.97237 0.0
C1214 C 0.87024 0.3599 0.97595 0.0
C1215 C 0.89388 0.34829 0.97428 0.0
C1216 C 0.90381 0.34531 0.96178 0.0
C1217 C 0.92608 0.3343 0.96028 0.0
C1218 C 0.93853 0.32603 0.97119 0.0
C1219 C 0.92869 0.3287 0.98363 0.0
C1220 C 0.90642 0.33972 0.98519 0.0
C1221 C 0.77097 0.3223 0.98175 0.0
C1222 C 0.76527 0.32035 0.99505 0.0
C1223 C 0.79242 0.33276 0.97787 0.0
C1224 C 0.80865 0.34121 0.98721 0.0
C1225 C 0.80391 0.33775 0.0005 0.0
C1226 C 0.78224 0.32747 0.00441 0.0
C1227 C 0.82862 0.35653 0.98292 0.0
C1228 C 0.85172 0.34698 0.98198 0.0
C1229 C 0.82403 0.37981 0.9783 0.0
C1230 C 0.79995 0.39078 0.97931 0.0
C1231 C 0.78918 0.39416 0.99156 0.0
C1232 C 0.76627 0.40403 0.99245 0.0
C1233 C 0.75402 0.41074 0.98116 0.0
C1234 C 0.76471 0.40767 0.96895 0.0
C1235 C 0.78761 0.39778 0.96801 0.0
H1236 H 0.73628 0.41837 0.98186 0.0
H1237 H 0.95576 0.3175 0.97001 0.0
H1238 H 0.54406 0.39677 0.20964 0.0
H1239 H 0.56743 0.36738 0.22175 0.0
H1240 H 0.63197 0.40695 0.21368 0.0
H1241 H 0.6086 0.43638 0.20135 0.0
H1242 H 0.63614 0.35943 0.20783 0.0
H1243 H 0.61083 0.40597 0.24417 0.0
H1244 H 0.58221 0.42767 0.25811 0.0
H1245 H 0.54374 0.36265 0.26523 0.0
H1246 H 0.57191 0.3406 0.25117 0.0
H1247 H 0.70002 0.27203 0.24367 0.0
H1248 H 0.6847 0.31149 0.23768 0.0
H1249 H 0.61251 0.28703 0.24435 0.0
H1250 H 0.62771 0.24786 0.25063 0.0
H1251 H 0.61752 0.33182 0.25265 0.0
H1252 H 0.63759 0.28725 0.2137 0.0
H1253 H 0.66449 0.26476 0.19911 0.0
H1254 H 0.71106 0.32552 0.19635 0.0
H1255 H 0.68456 0.34827 0.21107 0.0
C1256 C 0.56322 0.39927 0.2105 0.0
C1257 C 0.57455 0.41877 0.20451 0.0
C1258 C 0.57652 0.3826 0.21752 0.0
C1259 C 0.6014 0.38512 0.21871 0.0
C1260 C 0.61276 0.40479 0.21293 0.0
C1261 C 0.59941 0.4216 0.20595 0.0
C1262 C 0.61554 0.36617 0.22519 0.0
C1263 C 0.63251 0.35375 0.21774 0.0
C1264 C 0.61038 0.35848 0.23802 0.0
C1265 C 0.59343 0.37165 0.24654 0.0
C1266 C 0.59617 0.39632 0.24863 0.0
C1267 C 0.58004 0.40868 0.25656 0.0
C1268 C 0.56115 0.39655 0.26253 0.0
C1269 C 0.55838 0.37202 0.2606 0.0
C1270 C 0.57445 0.35957 0.25266 0.0
C1271 C 0.68091 0.2752 0.24402 0.0
C1272 C 0.66503 0.25683 0.2475 0.0
C1273 C 0.67219 0.29771 0.24057 0.0
C1274 C 0.64744 0.30209 0.24038 0.0
C1275 C 0.63167 0.28406 0.24442 0.0
C1276 C 0.64037 0.26164 0.24796 0.0
C1277 C 0.6377 0.32478 0.23518 0.0
C1278 C 0.62153 0.33785 0.24284 0.0
C1279 C 0.6434 0.33296 0.22249 0.0
C1280 C 0.65927 0.31934 0.21361 0.0
C1281 C 0.65367 0.29574 0.21006 0.0
C1282 C 0.66882 0.28297 0.20175 0.0
C1283 C 0.68952 0.29368 0.19684 0.0
C1284 C 0.69506 0.31723 0.20019 0.0
C1285 C 0.67998 0.33007 0.20851 0.0
H1286 H 0.70122 0.28376 0.19041 0.0
H1287 H 0.54868 0.40616 0.26868 0.0
H1288 H 0.06301 0.9566 0.39739 0.0
H1289 H 0.08285 0.93295 0.41414 0.0
H1290 H 0.1133 0.88751 0.38447 0.0
H1291 H 0.09294 0.91105 0.36757 0.0
H1292 H 0.09792 0.86153 0.4047 0.0
H1293 H 0.14775 0.92976 0.39966 0.0
H1294 H 0.15733 0.97258 0.39778 0.0
H1295 H 0.13047 0.98471 0.43645 0.0
H1296 H 0.1204 0.94202 0.43849 0.0
H1297 H 0.17517 0.81286 0.45505 0.0
H1298 H 0.16043 0.831 0.43479 0.0
H1299 H 0.1196 0.88183 0.45725 0.0
H1300 H 0.13429 0.86403 0.47739 0.0
H1301 H 0.14614 0.90319 0.43838 0.0
H1302 H 0.09273 0.83508 0.44208 0.0
H1303 H 0.08348 0.79213 0.44365 0.0
H1304 H 0.11883 0.77962 0.4071 0.0
H1305 H 0.12855 0.82247 0.40541 0.0
C1306 C 0.07408 0.94169 0.39442 0.0
C1307 C 0.07673 0.93585 0.38118 0.0
C1308 C 0.08542 0.92818 0.40399 0.0
C1309 C 0.1 0.90877 0.40054 0.0
C1310 C 0.10226 0.90251 0.38734 0.0
C1311 C 0.09066 0.91593 0.37771 0.0
C1312 C 0.11273 0.89523 0.41085 0.0
C1313 C 0.10886 0.87055 0.41193 0.0
C1314 C 0.12693 0.90701 0.42031 0.0
C1315 C 0.1332 0.93269 0.41919 0.0
C1316 C 0.14376 0.94158 0.40773 0.0
C1317 C 0.14929 0.96583 0.40664 0.0
C1318 C 0.14448 0.98136 0.41698 0.0
C1319 C 0.13418 0.97266 0.42845 0.0
C1320 C 0.1286 0.94843 0.42958 0.0
C1321 C 0.16291 0.82778 0.45563 0.0
C1322 C 0.15592 0.83708 0.46779 0.0
C1323 C 0.15448 0.83808 0.44407 0.0
C1324 C 0.13892 0.85775 0.44453 0.0
C1325 C 0.13168 0.86674 0.45667 0.0
C1326 C 0.14004 0.85649 0.46818 0.0
C1327 C 0.1306 0.86972 0.43248 0.0
C1328 C 0.13547 0.89413 0.43105 0.0
C1329 C 0.11752 0.85764 0.42268 0.0
C1330 C 0.11161 0.83192 0.42369 0.0
C1331 C 0.09871 0.82313 0.43444 0.0
C1332 C 0.09334 0.79882 0.43534 0.0
C1333 C 0.10063 0.78314 0.4255 0.0
C1334 C 0.11324 0.79177 0.41473 0.0
C1335 C 0.11867 0.81607 0.41379 0.0
H1336 H 0.09646 0.76433 0.42622 0.0
H1337 H 0.14876 0.00013 0.41612 0.0
H1338 H 0.09425 0.58088 0.62309 0.0
H1339 H 0.11727 0.59816 0.64113 0.0
H1340 H 0.0602 0.58071 0.66778 0.0
H1341 H 0.03729 0.56326 0.64993 0.0
H1342 H 0.07635 0.62559 0.67159 0.0
H1343 H 0.1106 0.54701 0.66629 0.0
H1344 H 0.13012 0.5145 0.65404 0.0
H1345 H 0.19013 0.56003 0.64599 0.0
H1346 H 0.1708 0.59292 0.65804 0.0
H1347 H 0.13139 0.63785 0.73265 0.0
H1348 H 0.11224 0.62044 0.71345 0.0
H1349 H 0.17362 0.63913 0.69008 0.0
H1350 H 0.19311 0.6562 0.70934 0.0
H1351 H 0.15694 0.59558 0.68359 0.0
H1352 H 0.12394 0.6736 0.68941 0.0
H1353 H 0.10478 0.70651 0.7015 0.0
H1354 H 0.04279 0.66291 0.70815 0.0
H1355 H 0.06173 0.6296 0.69625 0.0
C1356 C 0.08668 0.58064 0.63281 0.0
C1357 C 0.0639 0.57077 0.63506 0.0
C1358 C 0.09983 0.59053 0.64309 0.0
C1359 C 0.09049 0.59057 0.65581 0.0
C1360 C 0.06769 0.58096 0.65804 0.0
C1361 C 0.05457 0.5711 0.6478 0.0
C1362 C 0.10432 0.6006 0.66686 0.0
C1363 C 0.09387 0.61886 0.67429 0.0
C1364 C 0.12746 0.59229 0.67015 0.0
C1365 C 0.13913 0.5725 0.66295 0.0
C1366 C 0.12787 0.55014 0.66182 0.0
C1367 C 0.13892 0.53164 0.65493 0.0
C1368 C 0.16132 0.53522 0.64921 0.0
C1369 C 0.17276 0.55729 0.6504 0.0
C1370 C 0.16177 0.57587 0.65727 0.0
C1371 C 0.14091 0.63806 0.72345 0.0
C1372 C 0.16367 0.64853 0.72247 0.0
C1373 C 0.1299 0.6282 0.71248 0.0
C1374 C 0.14133 0.6289 0.70029 0.0
C1375 C 0.16446 0.63851 0.69938 0.0
C1376 C 0.17554 0.64827 0.71038 0.0
C1377 C 0.12876 0.62027 0.68845 0.0
C1378 C 0.13947 0.60237 0.68085 0.0
C1379 C 0.10587 0.62898 0.68495 0.0
C1380 C 0.09434 0.64904 0.69203 0.0
C1381 C 0.10629 0.67097 0.69353 0.0
C1382 C 0.09546 0.6897 0.70034 0.0
C1383 C 0.07261 0.68678 0.70562 0.0
C1384 C 0.06051 0.66514 0.70407 0.0
C1385 C 0.07127 0.64633 0.69728 0.0
H1386 H 0.06425 0.7013 0.71089 0.0
H1387 H 0.16985 0.52087 0.64388 0.0
H1388 H 0.46206 0.61357 0.88074 0.0
H1389 H 0.44175 0.63594 0.89794 0.0
H1390 H 0.38532 0.5836 0.89869 0.0
H1391 H 0.40612 0.56016 0.88212 0.0
H1392 H 0.3762 0.64279 0.89938 0.0
H1393 H 0.41231 0.57109 0.92007 0.0
H1394 H 0.44693 0.54449 0.92348 0.0
H1395 H 0.48929 0.60418 0.93607 0.0
H1396 H 0.45497 0.63117 0.93252 0.0
H1397 H 0.31474 0.66362 0.9584 0.0
H1398 H 0.33342 0.64814 0.93864 0.0
H1399 H 0.40297 0.66782 0.95357 0.0
H1400 H 0.3843 0.68184 0.97377 0.0
H1401 H 0.40709 0.62736 0.94395 0.0
H1402 H 0.3722 0.69844 0.92724 0.0
H1403 H 0.34071 0.72826 0.923 0.0
H1404 H 0.29983 0.67591 0.90202 0.0
H1405 H 0.33093 0.64567 0.90628 0.0
C1406 C 0.44537 0.60668 0.88456 0.0
C1407 C 0.43599 0.58477 0.88013 0.0
C1408 C 0.43368 0.61968 0.89427 0.0
C1409 C 0.41215 0.61132 0.89953 0.0
C1410 C 0.40191 0.59033 0.89464 0.0
C1411 C 0.41381 0.57703 0.88511 0.0
C1412 C 0.40155 0.62329 0.91097 0.0
C1413 C 0.38265 0.63935 0.90917 0.0
C1414 C 0.41076 0.61939 0.92359 0.0
C1415 C 0.43122 0.60314 0.92589 0.0
C1416 C 0.42908 0.57855 0.92344 0.0
C1417 C 0.44862 0.56341 0.92542 0.0
C1418 C 0.47032 0.57265 0.92995 0.0
C1419 C 0.47249 0.59705 0.93254 0.0
C1420 C 0.453 0.61227 0.93055 0.0
C1421 C 0.334 0.66481 0.9574 0.0
C1422 C 0.34812 0.67393 0.96757 0.0
C1423 C 0.34468 0.65612 0.94604 0.0
C1424 C 0.36964 0.65717 0.94443 0.0
C1425 C 0.3837 0.66677 0.95454 0.0
C1426 C 0.37305 0.67485 0.96606 0.0
C1427 C 0.38114 0.64694 0.93258 0.0
C1428 C 0.40042 0.63113 0.93424 0.0
C1429 C 0.37256 0.65158 0.9198 0.0
C1430 C 0.35382 0.66973 0.91718 0.0
C1431 C 0.35642 0.69324 0.9218 0.0
C1432 C 0.33865 0.71022 0.91938 0.0
C1433 C 0.31826 0.70397 0.91227 0.0
C1434 C 0.31562 0.68073 0.90754 0.0
C1435 C 0.33333 0.66366 0.90994 0.0
H1436 H 0.30452 0.71715 0.91041 0.0
H1437 H 0.48543 0.5609 0.93148 0.0
H1438 H 0.39 0.94444 0.12733 0.0
H1439 H 0.37051 0.92155 0.14467 0.0
H1440 H 0.43875 0.8915 0.15559 0.0
H1441 H 0.4581 0.91376 0.13801 0.0
H1442 H 0.40603 0.85861 0.15733 0.0
H1443 H 0.41289 0.93969 0.17215 0.0
H1444 H 0.40748 0.98332 0.17099 0.0
H1445 H 0.3312 0.97423 0.17028 0.0
H1446 H 0.33617 0.9305 0.17126 0.0
H1447 H 0.37979 0.82709 0.22303 0.0
H1448 H 0.39589 0.84564 0.2033 0.0
H1449 H 0.32454 0.86544 0.19147 0.0
H1450 H 0.30829 0.84689 0.21119 0.0
H1451 H 0.35706 0.90272 0.18973 0.0
H1452 H 0.35128 0.82095 0.17597 0.0
H1453 H 0.35783 0.77767 0.17797 0.0
H1454 H 0.43387 0.7886 0.17783 0.0
H1455 H 0.42775 0.83209 0.17592 0.0
C1456 C 0.40075 0.9328 0.13339 0.0
C1457 C 0.42553 0.93091 0.13139 0.0
C1458 C 0.38965 0.91981 0.14332 0.0
C1459 C 0.40324 0.90515 0.15161 0.0
C1460 C 0.42789 0.90269 0.14933 0.0
C1461 C 0.43893 0.9154 0.13929 0.0
C1462 C 0.392 0.89298 0.16291 0.0
C1463 C 0.39553 0.86833 0.16447 0.0
C1464 C 0.37795 0.90554 0.17215 0.0
C1465 C 0.37491 0.93183 0.17164 0.0
C1466 C 0.39497 0.94699 0.17166 0.0
C1467 C 0.39198 0.97174 0.17104 0.0
C1468 C 0.36901 0.98154 0.17052 0.0
C1469 C 0.34898 0.96661 0.17066 0.0
C1470 C 0.35187 0.94185 0.17125 0.0
C1471 C 0.36753 0.8353 0.21619 0.0
C1472 C 0.34279 0.83555 0.21863 0.0
C1473 C 0.37674 0.84581 0.20491 0.0
C1474 C 0.36137 0.85676 0.1959 0.0
C1475 C 0.33667 0.85704 0.19831 0.0
C1476 C 0.32743 0.84639 0.20955 0.0
C1477 C 0.37119 0.86848 0.18412 0.0
C1478 C 0.36744 0.89304 0.18251 0.0
C1479 C 0.38526 0.85592 0.17494 0.0
C1480 C 0.38905 0.82978 0.17592 0.0
C1481 C 0.3694 0.81415 0.17645 0.0
C1482 C 0.37304 0.78956 0.17756 0.0
C1483 C 0.39625 0.78036 0.17809 0.0
C1484 C 0.41589 0.79575 0.17744 0.0
C1485 C 0.41235 0.82037 0.17631 0.0
H1486 H 0.399 0.7613 0.17897 0.0
H1487 H 0.36673 0.0007 0.17005 0.0
H1488 H 0.09299 0.59204 0.88661 0.0
H1489 H 0.11483 0.61138 0.86878 0.0
H1490 H 0.05336 0.60313 0.84373 0.0
H1491 H 0.0318 0.58322 0.86127 0.0
H1492 H 0.09337 0.58909 0.83173 0.0
H1493 H 0.068 0.65721 0.85688 0.0
H1494 H 0.06438 0.68182 0.87673 0.0
H1495 H 0.14089 0.68758 0.87902 0.0
H1496 H 0.14497 0.66272 0.85927 0.0
H1497 H 0.12239 0.66312 0.77896 0.0
H1498 H 0.1029 0.64767 0.79854 0.0
H1499 H 0.16837 0.65703 0.82025 0.0
H1500 H 0.18795 0.6728 0.80069 0.0
H1501 H 0.1289 0.67011 0.83454 0.0
H1502 H 0.15428 0.60298 0.80912 0.0
H1503 H 0.15801 0.57845 0.78925 0.0
H1504 H 0.08164 0.57056 0.78762 0.0
H1505 H 0.07743 0.59535 0.80738 0.0
C1506 C 0.08417 0.59434 0.8773 0.0
C1507 C 0.06061 0.58621 0.87539 0.0
C1508 C 0.09659 0.60556 0.86716 0.0
C1509 C 0.08564 0.60886 0.85496 0.0
C1510 C 0.06213 0.60083 0.85307 0.0
C1511 C 0.04974 0.58966 0.86316 0.0
C1512 C 0.09878 0.61993 0.84395 0.0
C1513 C 0.1009 0.60692 0.83231 0.0
C1514 C 0.10921 0.64289 0.84483 0.0
C1515 C 0.10679 0.65789 0.85668 0.0
C1516 C 0.08406 0.66356 0.86168 0.0
C1517 C 0.08192 0.67758 0.8729 0.0
C1518 C 0.10239 0.6862 0.87915 0.0
C1519 C 0.12504 0.68086 0.87418 0.0
C1520 C 0.12728 0.66682 0.86296 0.0
C1521 C 0.13258 0.6621 0.78793 0.0
C1522 C 0.15674 0.669 0.78828 0.0
C1523 C 0.12145 0.6532 0.7991 0.0
C1524 C 0.13431 0.65086 0.81079 0.0
C1525 C 0.15816 0.65862 0.81131 0.0
C1526 C 0.16932 0.66756 0.80013 0.0
C1527 C 0.12305 0.63942 0.82228 0.0
C1528 C 0.12141 0.65227 0.834 0.0
C1529 C 0.11305 0.61626 0.82151 0.0
C1530 C 0.11553 0.6012 0.80967 0.0
C1531 C 0.13827 0.59616 0.80447 0.0
C1532 C 0.14047 0.58219 0.79324 0.0
C1533 C 0.12007 0.573 0.78716 0.0
C1534 C 0.09743 0.57771 0.79233 0.0
C1535 C 0.09512 0.5917 0.80355 0.0
H1536 H 0.12182 0.56219 0.77846 0.0
H1537 H 0.1007 0.69706 0.88784 0.0
H1538 H 0.39632 0.54681 0.12375 0.0
H1539 H 0.37715 0.56804 0.10574 0.0
H1540 H 0.43802 0.61507 0.10294 0.0
H1541 H 0.45751 0.59373 0.1208 0.0
H1542 H 0.39509 0.63903 0.10005 0.0
H1543 H 0.43416 0.56978 0.08261 0.0
H1544 H 0.44379 0.52693 0.08108 0.0
H1545 H 0.37015 0.51101 0.07287 0.0
H1546 H 0.36001 0.55378 0.07455 0.0
H1547 H 0.37747 0.68061 0.03512 0.0
H1548 H 0.39428 0.66207 0.0547 0.0
H1549 H 0.33287 0.61566 0.05729 0.0
H1550 H 0.31594 0.63413 0.03774 0.0
H1551 H 0.37555 0.5917 0.06052 0.0
H1552 H 0.33686 0.66161 0.07739 0.0
H1553 H 0.32779 0.70459 0.07876 0.0
H1554 H 0.40132 0.71951 0.08777 0.0
H1555 H 0.41092 0.67661 0.08626 0.0
C1556 C 0.40561 0.5617 0.11932 0.0
C1557 C 0.42854 0.56843 0.12364 0.0
C1558 C 0.39461 0.57385 0.10907 0.0
C1559 C 0.40633 0.59291 0.10291 0.0
C1560 C 0.42869 0.60041 0.10758 0.0
C1561 C 0.43975 0.58823 0.11782 0.0
C1562 C 0.39583 0.60419 0.09118 0.0
C1563 C 0.39104 0.62876 0.09135 0.0
C1564 C 0.39023 0.59066 0.07992 0.0
C1565 C 0.39628 0.56495 0.07885 0.0
C1566 C 0.41998 0.55712 0.08059 0.0
C1567 C 0.42554 0.53286 0.07968 0.0
C1568 C 0.40758 0.51625 0.07692 0.0
C1569 C 0.38403 0.52389 0.07503 0.0
C1570 C 0.37837 0.54815 0.07595 0.0
C1571 C 0.36759 0.66643 0.03986 0.0
C1572 C 0.3454 0.65881 0.03493 0.0
C1573 C 0.37714 0.65595 0.05106 0.0
C1574 C 0.36469 0.63766 0.0575 0.0
C1575 C 0.34271 0.62979 0.05248 0.0
C1576 C 0.33307 0.64037 0.04133 0.0
C1577 C 0.37472 0.62654 0.06939 0.0
C1578 C 0.3795 0.60198 0.06923 0.0
C1579 C 0.38037 0.64011 0.08063 0.0
C1580 C 0.37466 0.66591 0.08158 0.0
C1581 C 0.35115 0.67407 0.07955 0.0
C1582 C 0.3459 0.69842 0.08037 0.0
C1583 C 0.36398 0.71478 0.08331 0.0
C1584 C 0.38734 0.70682 0.08547 0.0
C1585 C 0.39269 0.68248 0.08465 0.0
H1586 H 0.35988 0.73363 0.08395 0.0
H1587 H 0.41192 0.49747 0.07621 0.0
H1588 H 0.45803 0.93306 0.35882 0.0
H1589 H 0.43548 0.91267 0.34172 0.0
H1590 H 0.38371 0.88922 0.37013 0.0
H1591 H 0.40631 0.90982 0.38741 0.0
H1592 H 0.40047 0.85274 0.3518 0.0
H1593 H 0.36647 0.93108 0.35214 0.0
H1594 H 0.3673 0.97507 0.35229 0.0
H1595 H 0.40352 0.97514 0.31537 0.0
H1596 H 0.40325 0.93111 0.3151 0.0
H1597 H 0.32282 0.81296 0.30036 0.0
H1598 H 0.33888 0.83105 0.32028 0.0
H1599 H 0.38879 0.87197 0.29724 0.0
H1600 H 0.37246 0.85439 0.27735 0.0
H1601 H 0.36813 0.89955 0.31472 0.0
H1602 H 0.40596 0.82224 0.31509 0.0
H1603 H 0.40717 0.77825 0.31483 0.0
H1604 H 0.36566 0.77606 0.35003 0.0
H1605 H 0.36395 0.82007 0.35041 0.0
C1606 C 0.44194 0.92341 0.36145 0.0
C1607 C 0.43394 0.92292 0.37443 0.0
C1608 C 0.42903 0.9119 0.35167 0.0
C1609 C 0.40791 0.89957 0.35468 0.0
C1610 C 0.39998 0.89869 0.36765 0.0
C1611 C 0.41279 0.91052 0.37746 0.0
C1612 C 0.39425 0.8879 0.34409 0.0
C1613 C 0.39292 0.86292 0.3438 0.0
C1614 C 0.38492 0.90127 0.33358 0.0
C1615 C 0.385 0.92777 0.33365 0.0
C1616 C 0.37479 0.94046 0.3441 0.0
C1617 C 0.37513 0.96541 0.3442 0.0
C1618 C 0.3855 0.97789 0.33385 0.0
C1619 C 0.3955 0.96544 0.32338 0.0
C1620 C 0.39524 0.94049 0.32324 0.0
C1621 C 0.33732 0.8257 0.29957 0.0
C1622 C 0.34642 0.83226 0.28731 0.0
C1623 C 0.34652 0.83598 0.31096 0.0
C1624 C 0.36515 0.85277 0.31027 0.0
C1625 C 0.37436 0.85913 0.29802 0.0
C1626 C 0.36509 0.849 0.28665 0.0
C1627 C 0.37481 0.86424 0.32221 0.0
C1628 C 0.37536 0.88927 0.32277 0.0
C1629 C 0.38357 0.85087 0.33291 0.0
C1630 C 0.38458 0.82443 0.33269 0.0
C1631 C 0.39692 0.81237 0.32271 0.0
C1632 C 0.39773 0.78744 0.32255 0.0
C1633 C 0.38643 0.77436 0.33238 0.0
C1634 C 0.37436 0.78621 0.34241 0.0
C1635 C 0.37347 0.81114 0.34261 0.0
H1636 H 0.38709 0.75506 0.33224 0.0
H1637 H 0.38574 0.99721 0.33394 0.0
H1638 H 0.09244 0.90783 0.63875 0.0
H1639 H 0.11503 0.88626 0.62194 0.0
H1640 H 0.06345 0.90813 0.59301 0.0
H1641 H 0.04092 0.92953 0.60965 0.0
H1642 H 0.07423 0.86209 0.59024 0.0
H1643 H 0.11828 0.93599 0.59656 0.0
H1644 H 0.14091 0.96546 0.60951 0.0
H1645 H 0.19283 0.91191 0.61932 0.0
H1646 H 0.17033 0.88205 0.60654 0.0
H1647 H 0.12842 0.85579 0.52928 0.0
H1648 H 0.11132 0.86967 0.54979 0.0
H1649 H 0.16973 0.83753 0.57095 0.0
H1650 H 0.18721 0.82369 0.5503 0.0
H1651 H 0.15854 0.88266 0.58005 0.0
H1652 H 0.11707 0.81019 0.57112 0.0
H1653 H 0.09473 0.78127 0.55768 0.0
H1654 H 0.03795 0.83207 0.5527 0.0
H1655 H 0.06012 0.86144 0.56594 0.0
C1656 C 0.08599 0.90804 0.62879 0.0
C1657 C 0.06485 0.92029 0.62553 0.0
C1658 C 0.09889 0.89572 0.61921 0.0
C1659 C 0.09098 0.89569 0.6062 0.0
C1660 C 0.0698 0.90776 0.60299 0.0
C1661 C 0.05689 0.91994 0.61253 0.0
C1662 C 0.10466 0.88341 0.59578 0.0
C1663 C 0.09263 0.86667 0.58799 0.0
C1664 C 0.12893 0.88877 0.59311 0.0
C1665 C 0.14248 0.90674 0.60073 0.0
C1666 C 0.13443 0.93046 0.60156 0.0
C1667 C 0.14724 0.94724 0.60886 0.0
C1668 C 0.16825 0.94054 0.61527 0.0
C1669 C 0.17653 0.91706 0.61437 0.0
C1670 C 0.16376 0.90021 0.6071 0.0
C1671 C 0.13769 0.85169 0.53828 0.0
C1672 C 0.15908 0.83854 0.5382 0.0
C1673 C 0.12784 0.85956 0.55 0.0
C1674 C 0.13906 0.85429 0.5619 0.0
C1675 C 0.16075 0.84166 0.56187 0.0
C1676 C 0.17067 0.83376 0.55009 0.0
C1677 C 0.12779 0.86202 0.57428 0.0
C1678 C 0.14027 0.8778 0.58245 0.0
C1679 C 0.1039 0.8558 0.57732 0.0
C1680 C 0.09034 0.83807 0.56947 0.0
C1681 C 0.09989 0.81525 0.5671 0.0
C1682 C 0.08724 0.79877 0.55952 0.0
C1683 C 0.06495 0.80484 0.55432 0.0
C1684 C 0.05522 0.82739 0.55673 0.0
C1685 C 0.0678 0.84395 0.56429 0.0
H1686 H 0.05519 0.79205 0.54845 0.0
H1687 H 0.17815 0.95356 0.62091 0.0
H1688 H 0.54447 0.40366 0.88714 0.0
H1689 H 0.56275 0.38135 0.90498 0.0
H1690 H 0.62507 0.42666 0.90307 0.0
H1691 H 0.60744 0.44829 0.88478 0.0
H1692 H 0.63822 0.38239 0.90783 0.0
H1693 H 0.57999 0.43686 0.9253 0.0
H1694 H 0.54001 0.45509 0.92744 0.0
H1695 H 0.51064 0.38744 0.93886 0.0
H1696 H 0.55041 0.36874 0.93661 0.0
H1697 H 0.64909 0.37069 0.98291 0.0
H1698 H 0.63074 0.38883 0.96364 0.0
H1699 H 0.64189 0.32363 0.94207 0.0
H1700 H 0.66052 0.30551 0.96123 0.0
H1701 H 0.59221 0.37808 0.94915 0.0
H1702 H 0.65664 0.33808 0.91074 0.0
H1703 H 0.69828 0.32364 0.90931 0.0
H1704 H 0.71829 0.36929 0.94116 0.0
H1705 H 0.67688 0.38423 0.94265 0.0
C1706 C 0.56231 0.40854 0.89029 0.0
C1707 C 0.5744 0.42793 0.88459 0.0
C1708 C 0.57262 0.39593 0.9006 0.0
C1709 C 0.59507 0.40265 0.90554 0.0
C1710 C 0.60766 0.42126 0.89948 0.0
C1711 C 0.59745 0.43376 0.88911 0.0
C1712 C 0.605 0.39108 0.91737 0.0
C1713 C 0.62811 0.38134 0.91684 0.0
C1714 C 0.592 0.39012 0.92921 0.0
C1715 C 0.56812 0.40136 0.93067 0.0
C1716 C 0.56497 0.42584 0.92818 0.0
C1717 C 0.54236 0.43626 0.92943 0.0
C1718 C 0.52279 0.42242 0.93325 0.0
C1719 C 0.52581 0.39813 0.93588 0.0
C1720 C 0.54838 0.38762 0.93463 0.0
C1721 C 0.6475 0.3602 0.97408 0.0
C1722 C 0.65635 0.33675 0.97354 0.0
C1723 C 0.63697 0.37055 0.9631 0.0
C1724 C 0.63521 0.35767 0.95139 0.0
C1725 C 0.6434 0.334 0.95095 0.0
C1726 C 0.65395 0.32365 0.96192 0.0
C1727 C 0.62532 0.3692 0.93956 0.0
C1728 C 0.60223 0.37894 0.9401 0.0
C1729 C 0.63855 0.37068 0.92782 0.0
C1730 C 0.6636 0.36206 0.92689 0.0
C1731 C 0.66995 0.34509 0.9174 0.0
C1732 C 0.69351 0.33681 0.91659 0.0
C1733 C 0.71089 0.34547 0.92517 0.0
C1734 C 0.70478 0.36251 0.93455 0.0
C1735 C 0.68127 0.37087 0.93539 0.0
H1736 H 0.72911 0.33902 0.92453 0.0
H1737 H 0.50529 0.43051 0.93421 0.0
H1738 H 0.56213 0.11081 0.12421 0.0
H1739 H 0.58565 0.12969 0.14164 0.0
H1740 H 0.61298 0.0608 0.15297 0.0
H1741 H 0.58977 0.04189 0.13554 0.0
H1742 H 0.59082 0.08862 0.17338 0.0
H1743 H 0.64979 0.09591 0.13917 0.0
H1744 H 0.66417 0.10825 0.11748 0.0
H1745 H 0.64912 0.18148 0.12674 0.0
H1746 H 0.6343 0.16952 0.14843 0.0
H1747 H 0.6703 0.12125 0.22283 0.0
H1748 H 0.65376 0.1043 0.20282 0.0
H1749 H 0.64363 0.17521 0.18733 0.0
H1750 H 0.66135 0.19218 0.20714 0.0
H1751 H 0.65668 0.14734 0.1685 0.0
H1752 H 0.59689 0.14242 0.20157 0.0
H1753 H 0.57982 0.1323 0.22304 0.0
H1754 H 0.59236 0.05787 0.21575 0.0
H1755 H 0.60981 0.06757 0.1943 0.0
C1756 C 0.57341 0.09979 0.13034 0.0
C1757 C 0.57419 0.07492 0.12854 0.0
C1758 C 0.58686 0.11057 0.14022 0.0
C1759 C 0.60103 0.09659 0.14853 0.0
C1760 C 0.60219 0.07184 0.1466 0.0
C1761 C 0.58905 0.06112 0.13661 0.0
C1762 C 0.61331 0.10748 0.15984 0.0
C1763 C 0.60547 0.10121 0.17235 0.0
C1764 C 0.63171 0.12458 0.1584 0.0
C1765 C 0.6407 0.13178 0.14538 0.0
C1766 C 0.64933 0.11462 0.13654 0.0
C1767 C 0.65761 0.12155 0.12425 0.0
C1768 C 0.6575 0.14562 0.12072 0.0
C1769 C 0.64916 0.16283 0.12948 0.0
C1770 C 0.64084 0.15599 0.14178 0.0
C1771 C 0.66473 0.13319 0.2151 0.0
C1772 C 0.66688 0.15801 0.21655 0.0
C1773 C 0.65515 0.12351 0.2037 0.0
C1774 C 0.64685 0.13848 0.19368 0.0
C1775 C 0.64978 0.16329 0.19494 0.0
C1776 C 0.65985 0.17297 0.20626 0.0
C1777 C 0.63444 0.12824 0.18215 0.0
C1778 C 0.6421 0.13472 0.16959 0.0
C1779 C 0.61544 0.11167 0.18351 0.0
C1780 C 0.60486 0.10574 0.19638 0.0
C1781 C 0.59616 0.1239 0.20459 0.0
C1782 C 0.5864 0.11825 0.21675 0.0
C1783 C 0.58506 0.09446 0.22077 0.0
C1784 C 0.59343 0.07629 0.21263 0.0
C1785 C 0.60324 0.08185 0.20046 0.0
H1786 H 0.5775 0.09012 0.23019 0.0
H1787 H 0.66392 0.15096 0.1112 0.0
H1788 H 0.91119 0.04534 0.38472 0.0
H1789 H 0.88874 0.06517 0.40203 0.0
H1790 H 0.91581 0.13341 0.38922 0.0
H1791 H 0.93897 0.11341 0.37212 0.0
H1792 H 0.92071 0.13064 0.41394 0.0
H1793 H 0.85528 0.11604 0.38543 0.0
H1794 H 0.82879 0.09291 0.37094 0.0
H1795 H 0.80965 0.04704 0.40278 0.0
H1796 H 0.8363 0.06968 0.41744 0.0
H1797 H 0.84493 0.19305 0.45875 0.0
H1798 H 0.86084 0.17794 0.43805 0.0
H1799 H 0.85266 0.10569 0.45181 0.0
H1800 H 0.83704 0.12065 0.47259 0.0
H1801 H 0.83615 0.11394 0.4255 0.0
H1802 H 0.90522 0.12808 0.45314 0.0
H1803 H 0.93103 0.15283 0.46722 0.0
H1804 H 0.94184 0.20221 0.43577 0.0
H1805 H 0.91579 0.1779 0.42156 0.0
C1806 C 0.91195 0.06461 0.38544 0.0
C1807 C 0.92675 0.07787 0.37709 0.0
C1808 C 0.89906 0.07597 0.39532 0.0
C1809 C 0.90032 0.10087 0.39687 0.0
C1810 C 0.91456 0.1142 0.38824 0.0
C1811 C 0.92774 0.10279 0.37848 0.0
C1812 C 0.88828 0.11267 0.40807 0.0
C1813 C 0.90206 0.12734 0.41627 0.0
C1814 C 0.86405 0.10814 0.4113 0.0
C1815 C 0.84795 0.09446 0.40252 0.0
C1816 C 0.84557 0.10091 0.38933 0.0
C1817 C 0.8305 0.0879 0.38108 0.0
C1818 C 0.81758 0.06849 0.38593 0.0
C1819 C 0.81968 0.06207 0.39904 0.0
C1820 C 0.83474 0.07501 0.40733 0.0
C1821 C 0.84645 0.17395 0.45733 0.0
C1822 C 0.83988 0.158 0.46728 0.0
C1823 C 0.85553 0.16537 0.44553 0.0
C1824 C 0.85794 0.14073 0.44346 0.0
C1825 C 0.85086 0.12477 0.45325 0.0
C1826 C 0.84208 0.13333 0.46511 0.0
C1827 C 0.86868 0.13154 0.43127 0.0
C1828 C 0.85468 0.11739 0.42296 0.0
C1829 C 0.89259 0.13679 0.42783 0.0
C1830 C 0.90835 0.15132 0.43634 0.0
C1831 C 0.91293 0.14432 0.44927 0.0
C1832 C 0.92764 0.15825 0.45726 0.0
C1833 C 0.93801 0.17912 0.4524 0.0
C1834 C 0.93376 0.18606 0.43953 0.0
C1835 C 0.91904 0.17221 0.4315 0.0
H1836 H 0.94939 0.18987 0.45861 0.0
H1837 H 0.80592 0.05844 0.37953 0.0
H1838 H 0.88601 0.43547 0.62081 0.0
H1839 H 0.8643 0.41332 0.63766 0.0
H1840 H 0.93128 0.38703 0.65291 0.0
H1841 H 0.95289 0.40847 0.63583 0.0
H1842 H 0.8991 0.35355 0.65488 0.0
H1843 H 0.90226 0.43718 0.66569 0.0
H1844 H 0.89585 0.48021 0.66201 0.0
H1845 H 0.82012 0.46848 0.65895 0.0
H1846 H 0.82614 0.4253 0.66243 0.0
H1847 H 0.8744 0.34112 0.72249 0.0
H1848 H 0.88866 0.35529 0.7013 0.0
H1849 H 0.8159 0.35971 0.68751 0.0
H1850 H 0.80147 0.34501 0.70865 0.0
H1851 H 0.84637 0.40202 0.68345 0.0
H1852 H 0.84481 0.3176 0.67585 0.0
H1853 H 0.8534 0.27555 0.68112 0.0
H1854 H 0.92883 0.28992 0.67979 0.0
H1855 H 0.92069 0.33218 0.67473 0.0
C1856 C 0.896 0.42467 0.62767 0.0
C1857 C 0.9211 0.42377 0.6271 0.0
C1858 C 0.88363 0.4121 0.6373 0.0
C1859 C 0.89619 0.39891 0.64673 0.0
C1860 C 0.92119 0.39709 0.64577 0.0
C1861 C 0.93353 0.40934 0.63601 0.0
C1862 C 0.88361 0.3883 0.65809 0.0
C1863 C 0.88765 0.36419 0.66114 0.0
C1864 C 0.86834 0.40205 0.66619 0.0
C1865 C 0.86468 0.428 0.66416 0.0
C1866 C 0.88426 0.44377 0.66413 0.0
C1867 C 0.8807 0.46817 0.6621 0.0
C1868 C 0.8576 0.47706 0.66021 0.0
C1869 C 0.83801 0.46156 0.66038 0.0
C1870 C 0.84148 0.43712 0.66239 0.0
C1871 C 0.86144 0.34507 0.71494 0.0
C1872 C 0.83684 0.34201 0.71719 0.0
C1873 C 0.86961 0.35305 0.70285 0.0
C1874 C 0.85331 0.35838 0.69287 0.0
C1875 C 0.82871 0.35558 0.69511 0.0
C1876 C 0.82053 0.34718 0.70715 0.0
C1877 C 0.86215 0.36749 0.68025 0.0
C1878 C 0.85748 0.39132 0.67702 0.0
C1879 C 0.87714 0.35361 0.67214 0.0
C1880 C 0.88212 0.32812 0.67501 0.0
C1881 C 0.86323 0.31185 0.67678 0.0
C1882 C 0.86802 0.28796 0.67972 0.0
C1883 C 0.89165 0.28008 0.68082 0.0
C1884 C 0.91053 0.29605 0.67894 0.0
C1885 C 0.90584 0.31998 0.67602 0.0
H1886 H 0.89532 0.26158 0.6831 0.0
H1887 H 0.85487 0.49596 0.65864 0.0
H1888 H 0.56925 0.04215 0.3586 0.0
H1889 H 0.58945 0.06479 0.34159 0.0
H1890 H 0.61399 0.11565 0.37026 0.0
H1891 H 0.59328 0.09308 0.38741 0.0
H1892 H 0.59865 0.1382 0.34917 0.0
H1893 H 0.65271 0.07455 0.35691 0.0
H1894 H 0.66571 0.03294 0.36021 0.0
H1895 H 0.64247 0.01493 0.32153 0.0
H1896 H 0.629 0.05635 0.31805 0.0
H1897 H 0.67853 0.18612 0.29971 0.0
H1898 H 0.66338 0.16814 0.31992 0.0
H1899 H 0.62235 0.11763 0.29737 0.0
H1900 H 0.63709 0.13562 0.27722 0.0
H1901 H 0.6513 0.09708 0.31733 0.0
H1902 H 0.59403 0.16121 0.31107 0.0
H1903 H 0.58231 0.20332 0.30824 0.0
H1904 H 0.61457 0.221 0.345 0.0
H1905 H 0.62678 0.17902 0.34796 0.0
C1906 C 0.57919 0.05799 0.36132 0.0
C1907 C 0.57995 0.06569 0.37435 0.0
C1908 C 0.59075 0.07093 0.35159 0.0
C1909 C 0.60367 0.09167 0.35468 0.0
C1910 C 0.60424 0.09963 0.36767 0.0
C1911 C 0.59243 0.08675 0.37744 0.0
C1912 C 0.61605 0.10508 0.34418 0.0
C1913 C 0.61055 0.12932 0.34237 0.0
C1914 C 0.63151 0.0935 0.33525 0.0
C1915 C 0.6397 0.06855 0.33725 0.0
C1916 C 0.65022 0.06168 0.34913 0.0
C1917 C 0.65769 0.03813 0.35103 0.0
C1918 C 0.65488 0.0213 0.34109 0.0
C1919 C 0.64463 0.02799 0.32922 0.0
C1920 C 0.6371 0.05151 0.32727 0.0
C1921 C 0.66613 0.17131 0.29909 0.0
C1922 C 0.65897 0.16225 0.28691 0.0
C1923 C 0.6575 0.1611 0.31062 0.0
C1924 C 0.6418 0.14157 0.3101 0.0
C1925 C 0.63451 0.13266 0.29795 0.0
C1926 C 0.64287 0.14302 0.28646 0.0
C1927 C 0.63331 0.12985 0.32216 0.0
C1928 C 0.63966 0.10597 0.32427 0.0
C1929 C 0.61895 0.14185 0.33143 0.0
C1930 C 0.61158 0.16705 0.32966 0.0
C1931 C 0.59883 0.17412 0.31849 0.0
C1932 C 0.59205 0.19795 0.31687 0.0
C1933 C 0.59777 0.21484 0.32641 0.0
C1934 C 0.6102 0.20791 0.33761 0.0
C1935 C 0.61704 0.1841 0.33926 0.0
H1936 H 0.5925 0.23328 0.32515 0.0
H1937 H 0.66067 0.00307 0.34258 0.0
H1938 H 0.89194 0.06603 0.63501 0.0
H1939 H 0.87091 0.0875 0.61765 0.0
H1940 H 0.93873 0.10781 0.60083 0.0
H1941 H 0.95969 0.08719 0.61846 0.0
H1942 H 0.90922 0.14291 0.59817 0.0
H1943 H 0.90503 0.05857 0.5898 0.0
H1944 H 0.89565 0.01654 0.59477 0.0
H1945 H 0.82127 0.03425 0.59884 0.0
H1946 H 0.83027 0.07648 0.59407 0.0
H1947 H 0.87727 0.15447 0.53129 0.0
H1948 H 0.89335 0.13982 0.55199 0.0
H1949 H 0.82242 0.14004 0.56853 0.0
H1950 H 0.8062 0.15516 0.54787 0.0
H1951 H 0.85026 0.09653 0.57229 0.0
H1952 H 0.85613 0.18148 0.57809 0.0
H1953 H 0.86755 0.22235 0.57173 0.0
H1954 H 0.94154 0.20177 0.57084 0.0
H1955 H 0.93053 0.16065 0.577 0.0
C1956 C 0.90227 0.07537 0.62768 0.0
C1957 C 0.92739 0.07491 0.628 0.0
C1958 C 0.89029 0.08752 0.61774 0.0
C1959 C 0.90323 0.09883 0.60775 0.0
C1960 C 0.92833 0.0992 0.6084 0.0
C1961 C 0.94031 0.08743 0.61847 0.0
C1962 C 0.89079 0.10927 0.59628 0.0
C1963 C 0.89646 0.13268 0.59248 0.0
C1964 C 0.87383 0.0961 0.58892 0.0
C1965 C 0.86836 0.07071 0.59173 0.0
C1966 C 0.8867 0.05352 0.59185 0.0
C1967 C 0.88145 0.02967 0.59462 0.0
C1968 C 0.85789 0.02274 0.59716 0.0
C1969 C 0.83952 0.03965 0.59689 0.0
C1970 C 0.84468 0.06354 0.59415 0.0
C1971 C 0.8651 0.1514 0.53933 0.0
C1972 C 0.8405 0.15593 0.538 0.0
C1973 C 0.87432 0.14314 0.55115 0.0
C1974 C 0.85906 0.13902 0.56177 0.0
C1975 C 0.83444 0.1432 0.56042 0.0
C1976 C 0.82524 0.15184 0.54866 0.0
C1977 C 0.86893 0.12994 0.57418 0.0
C1978 C 0.86281 0.10679 0.57811 0.0
C1979 C 0.88578 0.14316 0.5815 0.0
C1980 C 0.89247 0.16792 0.5779 0.0
C1981 C 0.87482 0.18561 0.57643 0.0
C1982 C 0.88122 0.20883 0.57288 0.0
C1983 C 0.90525 0.21464 0.57086 0.0
C1984 C 0.92293 0.19724 0.57241 0.0
C1985 C 0.91662 0.17398 0.57594 0.0
H1986 H 0.91017 0.23263 0.56811 0.0
H1987 H 0.85386 0.00426 0.5993 0.0
H1988 H 0.90889 0.41219 0.8881 0.0
H1989 H 0.88887 0.38918 0.87093 0.0
H1990 H 0.89862 0.44768 0.84414 0.0
H1991 H 0.91881 0.47057 0.86109 0.0
H1992 H 0.85404 0.42884 0.84231 0.0
H1993 H 0.93575 0.40007 0.84368 0.0
H1994 H 0.97116 0.38234 0.85426 0.0
H1995 H 0.93075 0.3193 0.86331 0.0
H1996 H 0.89499 0.33683 0.85293 0.0
H1997 H 0.84785 0.38016 0.77938 0.0
H1998 H 0.86111 0.39837 0.79978 0.0
H1999 H 0.84528 0.33312 0.82035 0.0
H2000 H 0.83205 0.31467 0.79988 0.0
H2001 H 0.88877 0.35202 0.82736 0.0
H2002 H 0.80827 0.37901 0.82365 0.0
H2003 H 0.77312 0.39664 0.8128 0.0
H2004 H 0.81089 0.46282 0.80811 0.0
H2005 H 0.84643 0.44547 0.81877 0.0
C2006 C 0.90678 0.42012 0.87855 0.0
C2007 C 0.91544 0.44323 0.87598 0.0
C2008 C 0.8953 0.40698 0.86877 0.0
C2009 C 0.89241 0.41669 0.85625 0.0
C2010 C 0.90054 0.43991 0.85376 0.0
C2011 C 0.91201 0.45301 0.86349 0.0
C2012 C 0.88156 0.40261 0.84554 0.0
C2013 C 0.86169 0.4121 0.83899 0.0
C2014 C 0.89114 0.38043 0.84148 0.0
C2015 C 0.91264 0.36987 0.84768 0.0
C2016 C 0.93437 0.38251 0.84803 0.0
C2017 C 0.95451 0.37249 0.85397 0.0
C2018 C 0.95319 0.34974 0.85949 0.0
C2019 C 0.93174 0.33694 0.85905 0.0
C2020 C 0.91153 0.34691 0.85314 0.0
C2021 C 0.8472 0.36967 0.78824 0.0
C2022 C 0.83886 0.34603 0.78805 0.0
C2023 C 0.85467 0.38013 0.79989 0.0
C2024 C 0.85386 0.36719 0.8116 0.0
C2025 C 0.84593 0.34343 0.81142 0.0
C2026 C 0.83836 0.33295 0.79975 0.0
C2027 C 0.86162 0.37857 0.82393 0.0
C2028 C 0.88087 0.36857 0.83079 0.0
C2029 C 0.85147 0.40029 0.82829 0.0
C2030 C 0.83009 0.41087 0.82193 0.0
C2031 C 0.80916 0.39727 0.82022 0.0
C2032 C 0.78915 0.40722 0.81412 0.0
C2033 C 0.78979 0.43082 0.80975 0.0
C2034 C 0.81043 0.44453 0.8115 0.0
C2035 C 0.8305 0.43466 0.81758 0.0
H2036 H 0.77428 0.4385 0.80502 0.0
H2037 H 0.9688 0.342 0.86408 0.0
H2038 H 0.59978 0.46358 0.12027 0.0
H2039 H 0.62381 0.44546 0.10291 0.0
H2040 H 0.59422 0.37642 0.11212 0.0
H2041 H 0.57002 0.39447 0.12948 0.0
H2042 H 0.64522 0.37674 0.1068 0.0
H2043 H 0.57017 0.40398 0.08856 0.0
H2044 H 0.53892 0.43395 0.08413 0.0
H2045 H 0.59028 0.47798 0.06437 0.0
H2046 H 0.62195 0.44841 0.06887 0.0
H2047 H 0.66252 0.3102 0.04903 0.0
H2048 H 0.64755 0.33046 0.06846 0.0
H2049 H 0.66865 0.39837 0.0523 0.0
H2050 H 0.68323 0.37816 0.03265 0.0
H2051 H 0.62486 0.40096 0.0616 0.0
H2052 H 0.69939 0.37304 0.07795 0.0
H2053 H 0.73144 0.34399 0.0825 0.0
H2054 H 0.68307 0.30257 0.10584 0.0
H2055 H 0.65061 0.3312 0.10128 0.0
C2056 C 0.59874 0.44447 0.11875 0.0
C2057 C 0.58302 0.4304 0.12618 0.0
C2058 C 0.61238 0.43419 0.10881 0.0
C2059 C 0.61064 0.40966 0.10622 0.0
C2060 C 0.59578 0.39538 0.114 0.0
C2061 C 0.58191 0.40571 0.12384 0.0
C2062 C 0.62303 0.39918 0.09483 0.0
C2063 C 0.6407 0.38183 0.0969 0.0
C2064 C 0.61752 0.40641 0.08197 0.0
C2065 C 0.59848 0.42412 0.07919 0.0
C2066 C 0.57485 0.42016 0.08338 0.0
C2067 C 0.55705 0.43705 0.08083 0.0
C2068 C 0.56262 0.45789 0.07401 0.0
C2069 C 0.586 0.46185 0.06968 0.0
C2070 C 0.60388 0.44502 0.07222 0.0
C2071 C 0.66415 0.32943 0.04966 0.0
C2072 C 0.67404 0.34261 0.03933 0.0
C2073 C 0.65571 0.34099 0.06081 0.0
C2074 C 0.65723 0.36593 0.06192 0.0
C2075 C 0.66734 0.37911 0.05166 0.0
C2076 C 0.67571 0.36755 0.04047 0.0
C2077 C 0.64707 0.37824 0.07349 0.0
C2078 C 0.6297 0.39595 0.07147 0.0
C2079 C 0.65303 0.37146 0.08639 0.0
C2080 C 0.6725 0.35418 0.08918 0.0
C2081 C 0.69553 0.35764 0.08397 0.0
C2082 C 0.71378 0.34126 0.08657 0.0
C2083 C 0.70928 0.32142 0.09443 0.0
C2084 C 0.68652 0.31794 0.09974 0.0
C2085 C 0.6682 0.33426 0.09717 0.0
H2086 H 0.72344 0.30876 0.09643 0.0
H2087 H 0.54882 0.47095 0.07204 0.0
loop_
_geom_bond_atom_site_label_1
_geom_bond_atom_site_label_2
_geom_bond_distance
_geom_bond_site_symmetry_2
_ccdc_geom_bond_type
H0 C19 0.949 . S
H1 C20 0.950 . S
H2 C22 0.950 . S
H3 C23 0.950 . S
H4 C25 0.950 . S
H5 C28 0.950 . S
H6 C29 0.950 . S
H7 C31 0.951 . S
H8 C32 0.949 1_565 S
H9 C34 0.949 . S
H10 C35 0.950 . S
H11 C37 0.950 . S
H12 C38 0.950 . S
H13 C40 0.950 . S
H14 C43 0.950 . S
H15 C44 0.950 . S
H16 C46 0.951 . S
H17 C47 0.949 1_545 S
C18 C19 1.376 . S
C18 C23 1.386 . S
C18 C24 1.483 . S
C19 H0 0.949 . S
C19 C18 1.376 . S
C19 C20 1.397 . S
C20 H1 0.950 . S
C20 C19 1.397 . S
C20 C21 1.391 . S
C21 C20 1.391 . S
C21 C22 1.405 . S
C22 H2 0.950 . S
C22 C21 1.405 . S
C22 C23 1.367 . S
C23 H3 0.950 . S
C23 C18 1.386 . S
C23 C22 1.367 . S
C24 C18 1.483 . S
C24 C25 1.382 1_655 S
C24 C26 1.403 . S
C25 H4 0.950 . S
C25 C24 1.382 1_455 S
C25 C41 1.411 1_545 S
C26 C24 1.403 . S
C26 C27 1.489 . S
C26 C40 1.414 1_545 S
C27 C26 1.489 . S
C27 C28 1.383 . S
C27 C32 1.382 . S
C28 H5 0.950 . S
C28 C27 1.383 . S
C28 C29 1.395 . S
C29 H6 0.950 . S
C29 C28 1.395 . S
C29 C30 1.288 . S
C30 C29 1.288 . S
C30 C31 1.392 . S
C31 H7 0.951 . S
C31 C30 1.392 . S
C31 C32 1.392 . S
C32 H8 0.949 1_545 S
C32 C27 1.382 . S
C32 C31 1.392 . S
C33 C34 1.376 . S
C33 C38 1.386 . S
C33 C39 1.483 . S
C34 H9 0.949 . S
C34 C33 1.376 . S
C34 C35 1.397 . S
C35 H10 0.950 . S
C35 C34 1.397 . S
C35 C36 1.391 . S
C36 C35 1.391 . S
C36 C37 1.405 . S
C37 H11 0.950 . S
C37 C36 1.405 . S
C37 C38 1.367 . S
C38 H12 0.950 . S
C38 C33 1.386 . S
C38 C37 1.367 . S
C39 C33 1.483 . S
C39 C40 1.379 1_455 S
C39 C41 1.403 . S
C40 H13 0.950 . S
C40 C26 1.414 1_565 S
C40 C39 1.379 1_655 S
C41 C25 1.411 1_565 S
C41 C39 1.403 . S
C41 C42 1.489 . S
C42 C41 1.489 . S
C42 C43 1.383 . S
C42 C47 1.382 . S
C43 H14 0.950 . S
C43 C42 1.383 . S
C43 C44 1.395 . S
C44 H15 0.950 . S
C44 C43 1.395 . S
C44 C45 1.288 . S
C45 C44 1.288 . S
C45 C46 1.392 . S
C46 H16 0.951 . S
C46 C45 1.392 . S
C46 C47 1.392 . S
C47 H17 0.949 1_565 S
C47 C42 1.382 . S
C47 C46 1.392 . S
H48 C67 0.949 1_455 S
H49 C68 0.950 . S
H50 C70 0.950 . S
H51 C71 0.950 . S
H52 C73 0.950 . S
H53 C76 0.950 . S
H54 C77 0.950 . S
H55 C79 0.951 . S
H56 C80 0.949 . S
H57 C82 0.949 1_655 S
H58 C83 0.950 . S
H59 C85 0.950 . S
H60 C86 0.950 . S
H61 C88 0.950 . S
H62 C91 0.950 . S
H63 C92 0.950 . S
H64 C94 0.951 . S
H65 C95 0.949 . S
C66 C67 1.376 . S
C66 C71 1.386 . S
C66 C72 1.483 . S
C67 H48 0.949 1_655 S
C67 C66 1.376 . S
C67 C68 1.397 . S
C68 H49 0.950 . S
C68 C67 1.397 . S
C68 C69 1.391 . S
C69 C68 1.391 . S
C69 C70 1.405 . S
C70 H50 0.950 . S
C70 C69 1.405 . S
C70 C71 1.367 . S
C71 H51 0.950 . S
C71 C66 1.386 . S
C71 C70 1.367 . S
C72 C66 1.483 . S
C72 C73 1.382 1_655 S
C72 C74 1.403 . S
C73 H52 0.950 . S
C73 C72 1.382 1_455 S
C73 C89 1.411 . S
C74 C72 1.403 . S
C74 C75 1.489 . S
C74 C88 1.411 . S
C75 C74 1.489 . S
C75 C76 1.383 . S
C75 C80 1.382 . S
C76 H53 0.950 . S
C76 C75 1.383 . S
C76 C77 1.395 . S
C77 H54 0.950 . S
C77 C76 1.395 . S
C77 C78 1.288 . S
C78 C77 1.288 . S
C78 C79 1.392 . S
C79 H55 0.951 . S
C79 C78 1.392 . S
C79 C80 1.392 . S
C80 H56 0.949 . S
C80 C75 1.382 . S
C80 C79 1.392 . S
C81 C82 1.376 . S
C81 C86 1.386 . S
C81 C87 1.483 . S
C82 H57 0.949 1_455 S
C82 C81 1.376 . S
C82 C83 1.397 . S
C83 H58 0.950 . S
C83 C82 1.397 . S
C83 C84 1.391 . S
C84 C83 1.391 . S
C84 C85 1.405 . S
C85 H59 0.950 . S
C85 C84 1.405 . S
C85 C86 1.367 . S
C86 H60 0.950 . S
C86 C81 1.386 . S
C86 C85 1.367 . S
C87 C81 1.483 . S
C87 C88 1.382 1_455 S
C87 C89 1.403 . S
C88 H61 0.950 . S
C88 C74 1.411 . S
C88 C87 1.382 1_655 S
C89 C73 1.411 . S
C89 C87 1.403 . S
C89 C90 1.489 . S
C90 C89 1.489 . S
C90 C91 1.383 . S
C90 C95 1.382 . S
C91 H62 0.950 . S
C91 C90 1.383 . S
C91 C92 1.395 . S
C92 H63 0.950 . S
C92 C91 1.395 . S
C92 C93 1.288 . S
C93 C92 1.288 . S
C93 C94 1.392 . S
C94 H64 0.951 . S
C94 C93 1.392 . S
C94 C95 1.392 . S
C95 H65 0.949 . S
C95 C90 1.382 . S
C95 C94 1.392 . S
H96 C115 0.949 . S
H97 C116 0.950 . S
H98 C118 0.950 . S
H99 C119 0.950 . S
H100 C121 0.950 . S
H101 C124 0.950 . S
H102 C125 0.950 . S
H103 C127 0.951 . S
H104 C128 0.949 . S
H105 C130 0.949 . S
H106 C131 0.950 . S
H107 C133 0.950 . S
H108 C134 0.950 . S
H109 C136 0.950 . S
H110 C139 0.950 . S
H111 C140 0.950 . S
H112 C142 0.951 . S
H113 C143 0.949 . S
C114 C115 1.376 . S
C114 C119 1.386 . S
C114 C120 1.483 . S
C115 H96 0.949 . S
C115 C114 1.376 . S
C115 C116 1.397 . S
C116 H97 0.950 . S
C116 C115 1.397 . S
C116 C117 1.391 . S
C117 C116 1.391 . S
C117 C118 1.405 . S
C118 H98 0.950 . S
C118 C117 1.405 . S
C118 C119 1.367 . S
C119 H99 0.950 . S
C119 C114 1.386 . S
C119 C118 1.367 . S
C120 C114 1.483 . S
C120 C121 1.382 . S
C120 C122 1.403 . S
C121 H100 0.950 . S
C121 C120 1.382 . S
C121 C137 1.411 . S
C122 C120 1.403 . S
C122 C123 1.489 . S
C122 C136 1.411 . S
C123 C122 1.489 . S
C123 C124 1.383 . S
C123 C128 1.382 . S
C124 H101 0.950 . S
C124 C123 1.383 . S
C124 C125 1.395 . S
C125 H102 0.950 . S
C125 C124 1.395 . S
C125 C126 1.288 . S
C126 C125 1.288 . S
C126 C127 1.392 . S
C127 H103 0.951 . S
C127 C126 1.392 . S
C127 C128 1.392 . S
C128 H104 0.949 . S
C128 C123 1.382 . S
C128 C127 1.392 . S
C129 C130 1.376 . S
C129 C134 1.386 . S
C129 C135 1.483 . S
C130 H105 0.949 . S
C130 C129 1.376 . S
C130 C131 1.397 . S
C131 H106 0.950 . S
C131 C130 1.397 . S
C131 C132 1.391 . S
C132 C131 1.391 . S
C132 C133 1.405 . S
C133 H107 0.950 . S
C133 C132 1.405 . S
C133 C134 1.367 . S
C134 H108 0.950 . S
C134 C129 1.386 . S
C134 C133 1.367 . S
C135 C129 1.483 . S
C135 C136 1.382 . S
C135 C137 1.403 . S
C136 H109 0.950 . S
C136 C122 1.411 . S
C136 C135 1.382 . S
C137 C121 1.411 . S
C137 C135 1.403 . S
C137 C138 1.489 . S
C138 C137 1.489 . S
C138 C139 1.383 . S
C138 C143 1.382 . S
C139 H110 0.950 . S
C139 C138 1.383 . S
C139 C140 1.395 . S
C140 H111 0.950 . S
C140 C139 1.395 . S
C140 C141 1.288 . S
C141 C140 1.288 . S
C141 C142 1.392 . S
C142 H112 0.951 . S
C142 C141 1.392 . S
C142 C143 1.392 . S
C143 H113 0.949 . S
C143 C138 1.382 . S
C143 C142 1.392 . S
H144 C163 0.949 . S
H145 C164 0.950 . S
H146 C166 0.950 . S
H147 C167 0.950 . S
H148 C169 0.950 . S
H149 C172 0.950 . S
H150 C173 0.950 . S
H151 C175 0.951 . S
H152 C176 0.949 . S
H153 C178 0.949 . S
H154 C179 0.950 . S
H155 C181 0.950 . S
H156 C182 0.950 . S
H157 C184 0.950 . S
H158 C187 0.950 . S
H159 C188 0.950 . S
H160 C190 0.951 . S
H161 C191 0.949 . S
C162 C163 1.376 . S
C162 C167 1.386 . S
C162 C168 1.483 . S
C163 H144 0.949 . S
C163 C162 1.376 . S
C163 C164 1.397 . S
C164 H145 0.950 . S
C164 C163 1.397 . S
C164 C165 1.391 . S
C165 C164 1.391 . S
C165 C166 1.405 . S
C166 H146 0.950 . S
C166 C165 1.405 . S
C166 C167 1.367 . S
C167 H147 0.950 . S
C167 C162 1.386 . S
C167 C166 1.367 . S
C168 C162 1.483 . S
C168 C169 1.382 . S
C168 C170 1.403 . S
C169 H148 0.950 . S
C169 C168 1.382 . S
C169 C185 1.411 1_565 S
C170 C168 1.403 . S
C170 C171 1.489 . S
C170 C184 1.411 1_565 S
C171 C170 1.489 . S
C171 C172 1.383 . S
C171 C176 1.382 . S
C172 H149 0.950 . S
C172 C171 1.383 . S
C172 C173 1.395 . S
C173 H150 0.950 . S
C173 C172 1.395 . S
C173 C174 1.288 . S
C174 C173 1.288 . S
C174 C175 1.392 . S
C175 H151 0.951 . S
C175 C174 1.392 . S
C175 C176 1.392 . S
C176 H152 0.949 . S
C176 C171 1.382 . S
C176 C175 1.392 . S
C177 C178 1.376 . S
C177 C182 1.386 . S
C177 C183 1.483 . S
C178 H153 0.949 . S
C178 C177 1.376 . S
C178 C179 1.397 . S
C179 H154 0.950 . S
C179 C178 1.397 . S
C179 C180 1.391 . S
C180 C179 1.391 . S
C180 C181 1.405 . S
C181 H155 0.950 . S
C181 C180 1.405 . S
C181 C182 1.367 . S
C182 H156 0.950 . S
C182 C177 1.386 . S
C182 C181 1.367 . S
C183 C177 1.483 . S
C183 C184 1.382 . S
C183 C185 1.403 . S
C184 H157 0.950 . S
C184 C170 1.411 1_545 S
C184 C183 1.382 . S
C185 C169 1.411 1_545 S
C185 C183 1.403 . S
C185 C186 1.489 . S
C186 C185 1.489 . S
C186 C187 1.383 . S
C186 C191 1.382 . S
C187 H158 0.950 . S
C187 C186 1.383 . S
C187 C188 1.395 . S
C188 H159 0.950 . S
C188 C187 1.395 . S
C188 C189 1.288 . S
C189 C188 1.288 . S
C189 C190 1.392 . S
C190 H160 0.951 . S
C190 C189 1.392 . S
C190 C191 1.392 . S
C191 H161 0.949 . S
C191 C186 1.382 . S
C191 C190 1.392 . S
H192 C211 0.949 . S
H193 C212 0.950 . S
H194 C214 0.950 . S
H195 C215 0.950 . S
H196 C217 0.950 . S
H197 C220 0.950 . S
H198 C221 0.950 . S
H199 C223 0.951 . S
H200 C224 0.949 . S
H201 C226 0.949 . S
H202 C227 0.950 . S
H203 C229 0.950 . S
H204 C230 0.950 . S
H205 C232 0.950 . S
H206 C235 0.950 . S
H207 C236 0.950 . S
H208 C238 0.951 . S
H209 C239 0.949 . S
C210 C211 1.376 . S
C210 C215 1.386 . S
C210 C216 1.483 . S
C211 H192 0.949 . S
C211 C210 1.376 . S
C211 C212 1.397 . S
C212 H193 0.950 . S
C212 C211 1.397 . S
C212 C213 1.391 . S
C213 C212 1.391 . S
C213 C214 1.405 . S
C214 H194 0.950 . S
C214 C213 1.405 . S
C214 C215 1.367 . S
C215 H195 0.950 . S
C215 C210 1.386 . S
C215 C214 1.367 . S
C216 C210 1.483 . S
C216 C217 1.382 1_455 S
C216 C218 1.403 . S
C217 H196 0.950 . S
C217 C216 1.382 1_655 S
C217 C233 1.411 . S
C218 C216 1.403 . S
C218 C219 1.489 . S
C218 C232 1.411 . S
C219 C218 1.489 . S
C219 C220 1.383 . S
C219 C224 1.382 . S
C220 H197 0.950 . S
C220 C219 1.383 . S
C220 C221 1.395 . S
C221 H198 0.950 . S
C221 C220 1.395 . S
C221 C222 1.288 . S
C222 C221 1.288 . S
C222 C223 1.392 . S
C223 H199 0.951 . S
C223 C222 1.392 . S
C223 C224 1.392 . S
C224 H200 0.949 . S
C224 C219 1.382 . S
C224 C223 1.392 . S
C225 C226 1.376 . S
C225 C230 1.386 . S
C225 C231 1.483 . S
C226 H201 0.949 . S
C226 C225 1.376 . S
C226 C227 1.397 . S
C227 H202 0.950 . S
C227 C226 1.397 . S
C227 C228 1.391 . S
C228 C227 1.391 . S
C228 C229 1.405 . S
C229 H203 0.950 . S
C229 C228 1.405 . S
C229 C230 1.367 . S
C230 H204 0.950 . S
C230 C225 1.386 . S
C230 C229 1.367 . S
C231 C225 1.483 . S
C231 C232 1.382 1_655 S
C231 C233 1.403 . S
C232 H205 0.950 . S
C232 C218 1.411 . S
C232 C231 1.382 1_455 S
C233 C217 1.411 . S
C233 C231 1.403 . S
C233 C234 1.489 . S
C234 C233 1.489 . S
C234 C235 1.383 . S
C234 C239 1.382 . S
C235 H206 0.950 . S
C235 C234 1.383 . S
C235 C236 1.395 . S
C236 H207 0.950 . S
C236 C235 1.395 . S
C236 C237 1.288 . S
C237 C236 1.288 . S
C237 C238 1.392 . S
C238 H208 0.951 . S
C238 C237 1.392 . S
C238 C239 1.392 . S
C239 H209 0.949 . S
C239 C234 1.382 . S
C239 C238 1.392 . S
H240 C259 0.949 . S
H241 C260 0.950 . S
H242 C262 0.950 . S
H243 C263 0.950 . S
H244 C265 0.950 . S
H245 C268 0.950 . S
H246 C269 0.950 . S
H247 C271 0.951 . S
H248 C272 0.949 . S
H249 C274 0.949 . S
H250 C275 0.950 . S
H251 C277 0.950 . S
H252 C278 0.950 . S
H253 C280 0.950 . S
H254 C283 0.950 . S
H255 C284 0.950 . S
H256 C286 0.951 . S
H257 C287 0.949 . S
C258 C259 1.376 . S
C258 C263 1.386 . S
C258 C264 1.483 . S
C259 H240 0.949 . S
C259 C258 1.376 . S
C259 C260 1.397 . S
C260 H241 0.950 . S
C260 C259 1.397 . S
C260 C261 1.391 . S
C261 C260 1.391 . S
C261 C262 1.405 . S
C262 H242 0.950 . S
C262 C261 1.405 . S
C262 C263 1.367 . S
C263 H243 0.950 . S
C263 C258 1.386 . S
C263 C262 1.367 . S
C264 C258 1.483 . S
C264 C265 1.382 . S
C264 C266 1.403 . S
C265 H244 0.950 . S
C265 C264 1.382 . S
C265 C281 1.411 . S
C266 C264 1.403 . S
C266 C267 1.489 . S
C266 C280 1.411 . S
C267 C266 1.489 . S
C267 C268 1.383 . S
C267 C272 1.382 . S
C268 H245 0.950 . S
C268 C267 1.383 . S
C268 C269 1.395 . S
C269 H246 0.950 . S
C269 C268 1.395 . S
C269 C270 1.288 . S
C270 C269 1.288 . S
C270 C271 1.392 . S
C271 H247 0.951 . S
C271 C270 1.392 . S
C271 C272 1.392 . S
C272 H248 0.949 . S
C272 C267 1.382 . S
C272 C271 1.392 . S
C273 C274 1.376 . S
C273 C278 1.386 . S
C273 C279 1.483 . S
C274 H249 0.949 . S
C274 C273 1.376 . S
C274 C275 1.397 . S
C275 H250 0.950 . S
C275 C274 1.397 . S
C275 C276 1.391 . S
C276 C275 1.391 . S
C276 C277 1.405 . S
C277 H251 0.950 . S
C277 C276 1.405 . S
C277 C278 1.367 . S
C278 H252 0.950 . S
C278 C273 1.386 . S
C278 C277 1.367 . S
C279 C273 1.483 . S
C279 C280 1.382 . S
C279 C281 1.403 . S
C280 H253 0.950 . S
C280 C266 1.411 . S
C280 C279 1.382 . S
C281 C265 1.411 . S
C281 C279 1.403 . S
C281 C282 1.489 . S
C282 C281 1.489 . S
C282 C283 1.383 . S
C282 C287 1.382 . S
C283 H254 0.950 . S
C283 C282 1.383 . S
C283 C284 1.395 . S
C284 H255 0.950 . S
C284 C283 1.395 . S
C284 C285 1.288 . S
C285 C284 1.288 . S
C285 C286 1.392 . S
C286 H256 0.951 . S
C286 C285 1.392 . S
C286 C287 1.392 . S
C287 H257 0.949 . S
C287 C282 1.382 . S
C287 C286 1.392 . S
H288 C307 0.949 . S
H289 C308 0.950 . S
H290 C310 0.950 . S
H291 C311 0.950 . S
H292 C313 0.950 . S
H293 C316 0.950 . S
H294 C317 0.950 . S
H295 C319 0.951 . S
H296 C320 0.949 1_545 S
H297 C322 0.949 . S
H298 C323 0.950 . S
H299 C325 0.950 . S
H300 C326 0.950 . S
H301 C328 0.950 . S
H302 C331 0.950 . S
H303 C332 0.950 . S
H304 C334 0.951 . S
H305 C335 0.949 1_565 S
C306 C307 1.376 . S
C306 C311 1.386 . S
C306 C312 1.483 . S
C307 H288 0.949 . S
C307 C306 1.376 . S
C307 C308 1.397 . S
C308 H289 0.950 . S
C308 C307 1.397 . S
C308 C309 1.391 . S
C309 C308 1.391 . S
C309 C310 1.405 . S
C310 H290 0.950 . S
C310 C309 1.405 . S
C310 C311 1.367 . S
C311 H291 0.950 . S
C311 C306 1.386 . S
C311 C310 1.367 . S
C312 C306 1.483 . S
C312 C313 1.382 . S
C312 C314 1.403 . S
C313 H292 0.950 . S
C313 C312 1.382 . S
C313 C329 1.411 1_565 S
C314 C312 1.403 . S
C314 C315 1.489 . S
C314 C328 1.411 1_565 S
C315 C314 1.489 . S
C315 C316 1.383 . S
C315 C320 1.382 . S
C316 H293 0.950 . S
C316 C315 1.383 . S
C316 C317 1.395 . S
C317 H294 0.950 . S
C317 C316 1.395 . S
C317 C318 1.288 . S
C318 C317 1.288 . S
C318 C319 1.392 . S
C319 H295 0.951 . S
C319 C318 1.392 . S
C319 C320 1.392 . S
C320 H296 0.949 1_565 S
C320 C315 1.382 . S
C320 C319 1.392 . S
C321 C322 1.376 . S
C321 C326 1.386 . S
C321 C327 1.483 . S
C322 H297 0.949 . S
C322 C321 1.376 . S
C322 C323 1.397 . S
C323 H298 0.950 . S
C323 C322 1.397 . S
C323 C324 1.391 . S
C324 C323 1.391 . S
C324 C325 1.405 . S
C325 H299 0.950 . S
C325 C324 1.405 . S
C325 C326 1.367 . S
C326 H300 0.950 . S
C326 C321 1.386 . S
C326 C325 1.367 . S
C327 C321 1.483 . S
C327 C328 1.382 . S
C327 C329 1.403 . S
C328 H301 0.950 . S
C328 C314 1.411 1_545 S
C328 C327 1.382 . S
C329 C313 1.411 1_545 S
C329 C327 1.403 . S
C329 C330 1.489 . S
C330 C329 1.489 . S
C330 C331 1.383 . S
C330 C335 1.382 . S
C331 H302 0.950 . S
C331 C330 1.383 . S
C331 C332 1.395 . S
C332 H303 0.950 . S
C332 C331 1.395 . S
C332 C333 1.288 . S
C333 C332 1.288 . S
C333 C334 1.392 . S
C334 H304 0.951 . S
C334 C333 1.392 . S
C334 C335 1.392 . S
C335 H305 0.949 1_545 S
C335 C330 1.382 . S
C335 C334 1.392 . S
H336 C355 0.949 1_455 S
H337 C356 0.950 . S
H338 C358 0.950 . S
H339 C359 0.950 . S
H340 C361 0.950 . S
H341 C364 0.950 . S
H342 C365 0.950 . S
H343 C367 0.951 . S
H344 C368 0.949 . S
H345 C370 0.949 1_655 S
H346 C371 0.950 . S
H347 C373 0.950 . S
H348 C374 0.950 . S
H349 C376 0.950 . S
H350 C379 0.950 . S
H351 C380 0.950 . S
H352 C382 0.951 . S
H353 C383 0.949 . S
C354 C355 1.376 . S
C354 C359 1.386 . S
C354 C360 1.483 . S
C355 H336 0.949 1_655 S
C355 C354 1.376 . S
C355 C356 1.397 . S
C356 H337 0.950 . S
C356 C355 1.397 . S
C356 C357 1.391 . S
C357 C356 1.391 . S
C357 C358 1.405 . S
C358 H338 0.950 . S
C358 C357 1.405 . S
C358 C359 1.367 . S
C359 H339 0.950 . S
C359 C354 1.386 . S
C359 C358 1.367 . S
C360 C354 1.483 . S
C360 C361 1.382 1_655 S
C360 C362 1.403 . S
C361 H340 0.950 . S
C361 C360 1.382 1_455 S
C361 C377 1.411 1_545 S
C362 C360 1.403 . S
C362 C363 1.489 . S
C362 C376 1.411 1_545 S
C363 C362 1.489 . S
C363 C364 1.383 . S
C363 C368 1.382 . S
C364 H341 0.950 . S
C364 C363 1.383 . S
C364 C365 1.395 . S
C365 H342 0.950 . S
C365 C364 1.395 . S
C365 C366 1.288 . S
C366 C365 1.288 . S
C366 C367 1.392 . S
C367 H343 0.951 . S
C367 C366 1.392 . S
C367 C368 1.392 . S
C368 H344 0.949 . S
C368 C363 1.382 . S
C368 C367 1.392 . S
C369 C370 1.376 . S
C369 C374 1.386 . S
C369 C375 1.483 . S
C370 H345 0.949 1_455 S
C370 C369 1.376 . S
C370 C371 1.397 . S
C371 H346 0.950 . S
C371 C370 1.397 . S
C371 C372 1.391 . S
C372 C371 1.391 . S
C372 C373 1.405 . S
C373 H347 0.950 . S
C373 C372 1.405 . S
C373 C374 1.367 . S
C374 H348 0.950 . S
C374 C369 1.386 . S
C374 C373 1.367 . S
C375 C369 1.483 . S
C375 C376 1.382 1_455 S
C375 C377 1.403 . S
C376 H349 0.950 . S
C376 C362 1.411 1_565 S
C376 C375 1.382 1_655 S
C377 C361 1.411 1_565 S
C377 C375 1.403 . S
C377 C378 1.489 . S
C378 C377 1.489 . S
C378 C379 1.383 . S
C378 C383 1.382 . S
C379 H350 0.950 . S
C379 C378 1.383 . S
C379 C380 1.395 . S
C380 H351 0.950 . S
C380 C379 1.395 . S
C380 C381 1.288 . S
C381 C380 1.288 . S
C381 C382 1.392 . S
C382 H352 0.951 . S
C382 C381 1.392 . S
C382 C383 1.392 . S
C383 H353 0.949 . S
C383 C378 1.382 . S
C383 C382 1.392 . S
In384 O385 2.294 . S
In384 O386 2.326 . S
In384 O390 2.266 1_554 S
In384 O391 2.326 1_554 S
In384 O392 2.266 1_554 S
In384 O393 2.326 1_554 S
In384 O395 2.294 . S
In384 O396 2.326 . S
O385 In384 2.294 . S
O385 C394 1.240 . S
O386 In384 2.326 . S
O386 C394 1.252 . S
C387 O390 1.252 . S
C387 O391 1.260 . S
C388 O395 1.240 . S
C388 O396 1.252 . S
C389 O392 1.252 . S
C389 O393 1.260 . S
O390 In384 2.266 1_556 S
O390 C387 1.252 . S
O391 In384 2.326 1_556 S
O391 C387 1.260 . S
O392 In384 2.266 1_556 S
O392 C389 1.252 . S
O393 In384 2.326 1_556 S
O393 C389 1.260 . S
C394 O385 1.240 . S
C394 O386 1.252 . S
O395 In384 2.294 . S
O395 C388 1.240 . S
O396 In384 2.326 . S
O396 C388 1.252 . S
In397 O398 2.294 . S
In397 O399 2.326 . S
In397 O403 2.266 . S
In397 O404 2.326 . S
In397 O405 2.266 . S
In397 O406 2.326 . S
In397 O408 2.294 . S
In397 O409 2.326 . S
O398 In397 2.294 . S
O398 C407 1.240 . S
O399 In397 2.326 . S
O399 C407 1.252 . S
C400 O403 1.252 . S
C400 O404 1.260 . S
C401 O408 1.240 . S
C401 O409 1.252 . S
C402 O405 1.252 . S
C402 O406 1.260 . S
O403 In397 2.266 . S
O403 C400 1.252 . S
O404 In397 2.326 . S
O404 C400 1.260 . S
O405 In397 2.266 . S
O405 C402 1.252 . S
O406 In397 2.326 . S
O406 C402 1.260 . S
C407 O398 1.240 . S
C407 O399 1.252 . S
O408 In397 2.294 . S
O408 C401 1.240 . S
O409 In397 2.326 . S
O409 C401 1.252 . S
In410 O411 2.294 . S
In410 O412 2.326 . S
In410 O416 2.266 . S
In410 O417 2.326 . S
In410 O418 2.266 . S
In410 O419 2.326 . S
In410 O421 2.294 . S
In410 O422 2.326 . S
O411 In410 2.294 . S
O411 C420 1.240 . S
O412 In410 2.326 . S
O412 C420 1.252 . S
C413 O416 1.252 . S
C413 O417 1.260 . S
C414 O421 1.240 . S
C414 O422 1.252 . S
C415 O418 1.252 . S
C415 O419 1.260 . S
O416 In410 2.266 . S
O416 C413 1.252 . S
O417 In410 2.326 . S
O417 C413 1.260 . S
O418 In410 2.266 . S
O418 C415 1.252 . S
O419 In410 2.326 . S
O419 C415 1.260 . S
C420 O411 1.240 . S
C420 O412 1.252 . S
O421 In410 2.294 . S
O421 C414 1.240 . S
O422 In410 2.326 . S
O422 C414 1.252 . S
In423 O424 2.294 . S
In423 O425 2.326 . S
In423 O429 2.266 . S
In423 O430 2.326 . S
In423 O431 2.266 . S
In423 O432 2.326 . S
In423 O434 2.294 . S
In423 O435 2.326 . S
O424 In423 2.294 . S
O424 C433 1.240 . S
O425 In423 2.326 . S
O425 C433 1.252 . S
C426 O429 1.252 . S
C426 O430 1.260 . S
C427 O434 1.240 . S
C427 O435 1.252 . S
C428 O431 1.252 . S
C428 O432 1.260 . S
O429 In423 2.266 . S
O429 C426 1.252 . S
O430 In423 2.326 . S
O430 C426 1.260 . S
O431 In423 2.266 . S
O431 C428 1.252 . S
O432 In423 2.326 . S
O432 C428 1.260 . S
C433 O424 1.240 . S
C433 O425 1.252 . S
O434 In423 2.294 . S
O434 C427 1.240 . S
O435 In423 2.326 . S
O435 C427 1.252 . S
In436 O437 2.294 . S
In436 O438 2.326 . S
In436 O442 2.266 . S
In436 O443 2.326 . S
In436 O444 2.266 . S
In436 O445 2.326 . S
In436 O447 2.294 . S
In436 O448 2.326 . S
O437 In436 2.294 . S
O437 C446 1.240 . S
O438 In436 2.326 . S
O438 C446 1.252 . S
C439 O442 1.252 . S
C439 O443 1.260 . S
C440 O447 1.240 . S
C440 O448 1.252 . S
C441 O444 1.252 . S
C441 O445 1.260 . S
O442 In436 2.266 . S
O442 C439 1.252 . S
O443 In436 2.326 . S
O443 C439 1.260 . S
O444 In436 2.266 . S
O444 C441 1.252 . S
O445 In436 2.326 . S
O445 C441 1.260 . S
C446 O437 1.240 . S
C446 O438 1.252 . S
O447 In436 2.294 . S
O447 C440 1.240 . S
O448 In436 2.326 . S
O448 C440 1.252 . S
In449 O450 2.294 . S
In449 O451 2.326 . S
In449 O455 2.266 . S
In449 O456 2.326 . S
In449 O457 2.266 . S
In449 O458 2.326 . S
In449 O460 2.294 . S
In449 O461 2.326 . S
O450 In449 2.294 . S
O450 C459 1.240 . S
O451 In449 2.326 . S
O451 C459 1.252 . S
C452 O455 1.252 . S
C452 O456 1.260 . S
C453 O460 1.240 . S
C453 O461 1.252 . S
C454 O457 1.252 . S
C454 O458 1.260 . S
O455 In449 2.266 . S
O455 C452 1.252 . S
O456 In449 2.326 . S
O456 C452 1.260 . S
O457 In449 2.266 . S
O457 C454 1.252 . S
O458 In449 2.326 . S
O458 C454 1.260 . S
C459 O450 1.240 . S
C459 O451 1.252 . S
O460 In449 2.294 . S
O460 C453 1.240 . S
O461 In449 2.326 . S
O461 C453 1.252 . S
In462 O463 2.294 . S
In462 O464 2.326 . S
In462 O468 2.266 1_554 S
In462 O469 2.326 1_554 S
In462 O470 2.266 1_554 S
In462 O471 2.326 1_554 S
In462 O473 2.294 . S
In462 O474 2.326 . S
O463 In462 2.294 . S
O463 C472 1.240 . S
O464 In462 2.326 . S
O464 C472 1.252 . S
C465 O468 1.252 . S
C465 O469 1.260 . S
C466 O473 1.240 . S
C466 O474 1.252 . S
C467 O470 1.252 . S
C467 O471 1.260 . S
O468 In462 2.266 1_556 S
O468 C465 1.252 . S
O469 In462 2.326 1_556 S
O469 C465 1.260 . S
O470 In462 2.266 1_556 S
O470 C467 1.252 . S
O471 In462 2.326 1_556 S
O471 C467 1.260 . S
C472 O463 1.240 . S
C472 O464 1.252 . S
O473 In462 2.294 . S
O473 C466 1.240 . S
O474 In462 2.326 . S
O474 C466 1.252 . S
In475 O476 2.294 . S
In475 O477 2.326 . S
In475 O481 2.266 . S
In475 O482 2.326 . S
In475 O483 2.266 . S
In475 O484 2.326 . S
In475 O486 2.294 . S
In475 O487 2.326 . S
O476 In475 2.294 . S
O476 C485 1.240 . S
O477 In475 2.326 . S
O477 C485 1.252 . S
C478 O481 1.252 . S
C478 O482 1.260 . S
C479 O486 1.240 . S
C479 O487 1.252 . S
C480 O483 1.252 . S
C480 O484 1.260 . S
O481 In475 2.266 . S
O481 C478 1.252 . S
O482 In475 2.326 . S
O482 C478 1.260 . S
O483 In475 2.266 . S
O483 C480 1.252 . S
O484 In475 2.326 . S
O484 C480 1.260 . S
C485 O476 1.240 . S
C485 O477 1.252 . S
O486 In475 2.294 . S
O486 C479 1.240 . S
O487 In475 2.326 . S
O487 C479 1.252 . S
H488 C506 0.951 . S
H489 C508 0.951 . S
H490 C510 0.950 . S
H491 C511 0.950 . S
H492 C513 0.950 . S
H493 C516 0.950 . S
H494 C517 0.950 . S
H495 C519 0.950 . S
H496 C520 0.950 . S
H497 C521 0.951 . S
H498 C523 0.951 . S
H499 C525 0.950 . S
H500 C526 0.950 . S
H501 C528 0.950 . S
H502 C531 0.950 . S
H503 C532 0.950 . S
H504 C534 0.950 . S
H505 C535 0.950 . S
C506 H488 0.951 . S
C506 C507 1.366 . S
C506 C508 1.388 . S
C507 C506 1.366 . S
C507 C511 1.385 . S
C508 H489 0.951 . S
C508 C506 1.388 . S
C508 C509 1.366 . S
C509 C508 1.366 . S
C509 C510 1.414 . S
C509 C512 1.499 . S
C510 H490 0.950 . S
C510 C509 1.414 . S
C510 C511 1.374 . S
C511 H491 0.950 . S
C511 C507 1.385 . S
C511 C510 1.374 . S
C512 C509 1.499 . S
C512 C513 1.373 . S
C512 C514 1.389 . S
C513 H492 0.950 . S
C513 C512 1.373 . S
C513 C529 1.377 . S
C514 C512 1.389 . S
C514 C515 1.524 . S
C514 C528 1.377 . S
C515 C514 1.524 . S
C515 C516 1.397 . S
C515 C520 1.363 . S
C516 H493 0.950 . S
C516 C515 1.397 . S
C516 C517 1.334 . S
C517 H494 0.950 . S
C517 C516 1.334 . S
C517 C518 1.287 . S
C518 C517 1.287 . S
C518 C519 1.524 . S
C518 H537 0.913 . S
C519 H495 0.950 . S
C519 C518 1.524 . S
C519 C520 1.415 . S
C520 H496 0.950 . S
C520 C515 1.363 . S
C520 C519 1.415 . S
C521 H497 0.951 . S
C521 C522 1.366 . S
C521 C523 1.388 . S
C522 C521 1.366 . S
C522 C526 1.385 . S
C523 H498 0.951 . S
C523 C521 1.388 . S
C523 C524 1.366 . S
C524 C523 1.366 . S
C524 C525 1.414 . S
C524 C527 1.499 . S
C525 H499 0.950 . S
C525 C524 1.414 . S
C525 C526 1.374 . S
C526 H500 0.950 . S
C526 C522 1.385 . S
C526 C525 1.374 . S
C527 C524 1.499 . S
C527 C528 1.373 . S
C527 C529 1.389 . S
C528 H501 0.950 . S
C528 C514 1.377 . S
C528 C527 1.373 . S
C529 C513 1.377 . S
C529 C527 1.389 . S
C529 C530 1.524 . S
C530 C529 1.524 . S
C530 C531 1.397 . S
C530 C535 1.363 . S
C531 H502 0.950 . S
C531 C530 1.397 . S
C531 C532 1.334 . S
C532 H503 0.950 . S
C532 C531 1.334 . S
C532 C533 1.287 . S
C533 C532 1.287 . S
C533 C534 1.524 . S
C533 H536 0.999 . S
C534 H504 0.950 . S
C534 C533 1.524 . S
C534 C535 1.415 . S
C535 H505 0.950 . S
C535 C530 1.363 . S
C535 C534 1.415 . S
H536 C533 0.999 . S
H537 C518 0.913 . S
H538 C556 0.951 . S
H539 C558 0.951 . S
H540 C560 0.950 . S
H541 C561 0.950 . S
H542 C563 0.950 . S
H543 C566 0.950 . S
H544 C567 0.950 . S
H545 C569 0.950 . S
H546 C570 0.950 . S
H547 C571 0.951 . S
H548 C573 0.951 . S
H549 C575 0.950 . S
H550 C576 0.950 . S
H551 C578 0.950 . S
H552 C581 0.950 . S
H553 C582 0.950 . S
H554 C584 0.950 . S
H555 C585 0.950 . S
C556 H538 0.951 . S
C556 C557 1.366 . S
C556 C558 1.388 . S
C557 C556 1.366 . S
C557 C561 1.385 . S
C558 H539 0.951 . S
C558 C556 1.388 . S
C558 C559 1.366 . S
C559 C558 1.366 . S
C559 C560 1.414 . S
C559 C562 1.499 . S
C560 H540 0.950 . S
C560 C559 1.414 . S
C560 C561 1.374 . S
C561 H541 0.950 . S
C561 C557 1.385 . S
C561 C560 1.374 . S
C562 C559 1.499 . S
C562 C563 1.373 . S
C562 C564 1.389 . S
C563 H542 0.950 . S
C563 C562 1.373 . S
C563 C579 1.377 . S
C564 C562 1.389 . S
C564 C565 1.524 . S
C564 C578 1.377 . S
C565 C564 1.524 . S
C565 C566 1.397 . S
C565 C570 1.363 . S
C566 H543 0.950 . S
C566 C565 1.397 . S
C566 C567 1.334 . S
C567 H544 0.950 . S
C567 C566 1.334 . S
C567 C568 1.287 . S
C568 C567 1.287 . S
C568 C569 1.524 . S
C568 H587 0.913 . S
C569 H545 0.950 . S
C569 C568 1.524 . S
C569 C570 1.415 . S
C570 H546 0.950 . S
C570 C565 1.363 . S
C570 C569 1.415 . S
C571 H547 0.951 . S
C571 C572 1.366 . S
C571 C573 1.388 . S
C572 C571 1.366 . S
C572 C576 1.385 . S
C573 H548 0.951 . S
C573 C571 1.388 . S
C573 C574 1.366 . S
C574 C573 1.366 . S
C574 C575 1.414 . S
C574 C577 1.499 . S
C575 H549 0.950 . S
C575 C574 1.414 . S
C575 C576 1.374 . S
C576 H550 0.950 . S
C576 C572 1.385 . S
C576 C575 1.374 . S
C577 C574 1.499 . S
C577 C578 1.373 . S
C577 C579 1.389 . S
C578 H551 0.950 . S
C578 C564 1.377 . S
C578 C577 1.373 . S
C579 C563 1.377 . S
C579 C577 1.389 . S
C579 C580 1.524 . S
C580 C579 1.524 . S
C580 C581 1.397 . S
C580 C585 1.363 . S
C581 H552 0.950 . S
C581 C580 1.397 . S
C581 C582 1.334 . S
C582 H553 0.950 . S
C582 C581 1.334 . S
C582 C583 1.287 . S
C583 C582 1.287 . S
C583 C584 1.524 . S
C583 H586 0.999 . S
C584 H554 0.950 . S
C584 C583 1.524 . S
C584 C585 1.415 . S
C585 H555 0.950 . S
C585 C580 1.363 . S
C585 C584 1.415 . S
H586 C583 0.999 . S
H587 C568 0.913 . S
H588 C606 0.951 . S
H589 C608 0.951 . S
H590 C610 0.950 . S
H591 C611 0.950 . S
H592 C613 0.950 . S
H593 C616 0.950 . S
H594 C617 0.950 . S
H595 C619 0.950 . S
H596 C620 0.950 . S
H597 C621 0.951 . S
H598 C623 0.951 . S
H599 C625 0.950 . S
H600 C626 0.950 . S
H601 C628 0.950 . S
H602 C631 0.950 . S
H603 C632 0.950 . S
H604 C634 0.950 . S
H605 C635 0.950 . S
C606 H588 0.951 . S
C606 C607 1.366 . S
C606 C608 1.388 . S
C607 C606 1.366 . S
C607 C611 1.385 . S
C608 H589 0.951 . S
C608 C606 1.388 . S
C608 C609 1.366 . S
C609 C608 1.366 . S
C609 C610 1.414 . S
C609 C612 1.499 . S
C610 H590 0.950 . S
C610 C609 1.414 . S
C610 C611 1.374 . S
C611 H591 0.950 . S
C611 C607 1.385 . S
C611 C610 1.374 . S
C612 C609 1.499 . S
C612 C613 1.373 . S
C612 C614 1.389 . S
C613 H592 0.950 . S
C613 C612 1.373 . S
C613 C629 1.377 . S
C614 C612 1.389 . S
C614 C615 1.524 . S
C614 C628 1.377 . S
C615 C614 1.524 . S
C615 C616 1.397 . S
C615 C620 1.363 . S
C616 H593 0.950 . S
C616 C615 1.397 . S
C616 C617 1.334 . S
C617 H594 0.950 . S
C617 C616 1.334 . S
C617 C618 1.287 . S
C618 C617 1.287 . S
C618 C619 1.524 . S
C618 H637 0.913 . S
C619 H595 0.950 . S
C619 C618 1.524 . S
C619 C620 1.415 . S
C620 H596 0.950 . S
C620 C615 1.363 . S
C620 C619 1.415 . S
C621 H597 0.951 . S
C621 C622 1.366 . S
C621 C623 1.388 . S
C622 C621 1.366 . S
C622 C626 1.385 . S
C623 H598 0.951 . S
C623 C621 1.388 . S
C623 C624 1.366 . S
C624 C623 1.366 . S
C624 C625 1.414 . S
C624 C627 1.499 . S
C625 H599 0.950 . S
C625 C624 1.414 . S
C625 C626 1.374 . S
C626 H600 0.950 . S
C626 C622 1.385 . S
C626 C625 1.374 . S
C627 C624 1.499 . S
C627 C628 1.373 . S
C627 C629 1.389 . S
C628 H601 0.950 . S
C628 C614 1.377 . S
C628 C627 1.373 . S
C629 C613 1.377 . S
C629 C627 1.389 . S
C629 C630 1.524 . S
C630 C629 1.524 . S
C630 C631 1.397 . S
C630 C635 1.363 . S
C631 H602 0.950 . S
C631 C630 1.397 . S
C631 C632 1.334 . S
C632 H603 0.950 . S
C632 C631 1.334 . S
C632 C633 1.287 . S
C633 C632 1.287 . S
C633 C634 1.524 . S
C633 H636 0.999 . S
C634 H604 0.950 . S
C634 C633 1.524 . S
C634 C635 1.415 . S
C635 H605 0.950 . S
C635 C630 1.363 . S
C635 C634 1.415 . S
H636 C633 0.999 . S
H637 C618 0.913 . S
H638 C656 0.951 . S
H639 C658 0.951 . S
H640 C660 0.950 . S
H641 C661 0.950 . S
H642 C663 0.950 . S
H643 C666 0.950 . S
H644 C667 0.950 . S
H645 C669 0.950 . S
H646 C670 0.950 . S
H647 C671 0.951 1_556 S
H648 C673 0.951 . S
H649 C675 0.950 . S
H650 C676 0.950 . S
H651 C678 0.950 . S
H652 C681 0.950 . S
H653 C682 0.950 . S
H654 C684 0.950 1_556 S
H655 C685 0.950 . S
C656 H638 0.951 . S
C656 C657 1.366 . S
C656 C658 1.388 . S
C657 C656 1.366 . S
C657 C661 1.385 . S
C658 H639 0.951 . S
C658 C656 1.388 . S
C658 C659 1.366 . S
C659 C658 1.366 . S
C659 C660 1.414 . S
C659 C662 1.499 . S
C660 H640 0.950 . S
C660 C659 1.414 . S
C660 C661 1.374 . S
C661 H641 0.950 . S
C661 C657 1.385 . S
C661 C660 1.374 . S
C662 C659 1.499 . S
C662 C663 1.373 . S
C662 C664 1.389 . S
C663 H642 0.950 . S
C663 C662 1.373 . S
C663 C679 1.377 . S
C664 C662 1.389 . S
C664 C665 1.524 . S
C664 C678 1.377 . S
C665 C664 1.524 . S
C665 C666 1.397 . S
C665 C670 1.363 . S
C666 H643 0.950 . S
C666 C665 1.397 . S
C666 C667 1.334 . S
C667 H644 0.950 . S
C667 C666 1.334 . S
C667 C668 1.287 . S
C668 C667 1.287 . S
C668 C669 1.524 . S
C668 H687 0.913 . S
C669 H645 0.950 . S
C669 C668 1.524 . S
C669 C670 1.415 . S
C670 H646 0.950 . S
C670 C665 1.363 . S
C670 C669 1.415 . S
C671 H647 0.951 1_554 S
C671 C672 1.366 . S
C671 C673 1.388 . S
C672 C671 1.366 . S
C672 C676 1.385 . S
C673 H648 0.951 . S
C673 C671 1.388 . S
C673 C674 1.366 . S
C674 C673 1.366 . S
C674 C675 1.414 . S
C674 C677 1.499 . S
C675 H649 0.950 . S
C675 C674 1.414 . S
C675 C676 1.374 . S
C676 H650 0.950 . S
C676 C672 1.385 . S
C676 C675 1.374 . S
C677 C674 1.499 . S
C677 C678 1.373 . S
C677 C679 1.389 . S
C678 H651 0.950 . S
C678 C664 1.377 . S
C678 C677 1.373 . S
C679 C663 1.377 . S
C679 C677 1.389 . S
C679 C680 1.524 . S
C680 C679 1.524 . S
C680 C681 1.397 . S
C680 C685 1.363 . S
C681 H652 0.950 . S
C681 C680 1.397 . S
C681 C682 1.334 . S
C682 H653 0.950 . S
C682 C681 1.334 . S
C682 C683 1.287 . S
C683 C682 1.287 . S
C683 C684 1.524 . S
C683 H686 0.999 . S
C684 H654 0.950 1_554 S
C684 C683 1.524 . S
C684 C685 1.415 . S
C685 H655 0.950 . S
C685 C680 1.363 . S
C685 C684 1.415 . S
H686 C683 0.999 . S
H687 C668 0.913 . S
H688 C706 0.951 . S
H689 C708 0.951 . S
H690 C710 0.950 . S
H691 C711 0.950 . S
H692 C713 0.950 . S
H693 C716 0.950 . S
H694 C717 0.950 . S
H695 C719 0.950 . S
H696 C720 0.950 . S
H697 C721 0.951 1_554 S
H698 C723 0.951 . S
H699 C725 0.950 . S
H700 C726 0.950 . S
H701 C728 0.950 . S
H702 C731 0.950 . S
H703 C732 0.950 . S
H704 C734 0.950 . S
H705 C735 0.950 . S
C706 H688 0.951 . S
C706 C707 1.366 . S
C706 C708 1.388 . S
C707 C706 1.366 . S
C707 C711 1.385 . S
C708 H689 0.951 . S
C708 C706 1.388 . S
C708 C709 1.366 . S
C709 C708 1.366 . S
C709 C710 1.414 . S
C709 C712 1.499 . S
C710 H690 0.950 . S
C710 C709 1.414 . S
C710 C711 1.374 . S
C711 H691 0.950 . S
C711 C707 1.385 . S
C711 C710 1.374 . S
C712 C709 1.499 . S
C712 C713 1.373 . S
C712 C714 1.389 . S
C713 H692 0.950 . S
C713 C712 1.373 . S
C713 C729 1.377 . S
C714 C712 1.389 . S
C714 C715 1.524 . S
C714 C728 1.377 . S
C715 C714 1.524 . S
C715 C716 1.397 . S
C715 C720 1.363 . S
C716 H693 0.950 . S
C716 C715 1.397 . S
C716 C717 1.334 . S
C717 H694 0.950 . S
C717 C716 1.334 . S
C717 C718 1.287 . S
C718 C717 1.287 . S
C718 C719 1.524 . S
C718 H737 0.913 . S
C719 H695 0.950 . S
C719 C718 1.524 . S
C719 C720 1.415 . S
C720 H696 0.950 . S
C720 C715 1.363 . S
C720 C719 1.415 . S
C721 H697 0.951 1_556 S
C721 C722 1.366 . S
C721 C723 1.388 . S
C722 C721 1.366 . S
C722 C726 1.385 . S
C723 H698 0.951 . S
C723 C721 1.388 . S
C723 C724 1.366 . S
C724 C723 1.366 . S
C724 C725 1.414 . S
C724 C727 1.499 . S
C725 H699 0.950 . S
C725 C724 1.414 . S
C725 C726 1.374 . S
C726 H700 0.950 . S
C726 C722 1.385 . S
C726 C725 1.374 . S
C727 C724 1.499 . S
C727 C728 1.373 . S
C727 C729 1.389 . S
C728 H701 0.950 . S
C728 C714 1.377 . S
C728 C727 1.373 . S
C729 C713 1.377 . S
C729 C727 1.389 . S
C729 C730 1.524 . S
C730 C729 1.524 . S
C730 C731 1.397 . S
C730 C735 1.363 . S
C731 H702 0.950 . S
C731 C730 1.397 . S
C731 C732 1.334 . S
C732 H703 0.950 . S
C732 C731 1.334 . S
C732 C733 1.287 . S
C733 C732 1.287 . S
C733 C734 1.524 . S
C733 H736 0.999 . S
C734 H704 0.950 . S
C734 C733 1.524 . S
C734 C735 1.415 . S
C735 H705 0.950 . S
C735 C730 1.363 . S
C735 C734 1.415 . S
H736 C733 0.999 . S
H737 C718 0.913 . S
H738 C756 0.951 . S
H739 C758 0.951 . S
H740 C760 0.950 . S
H741 C761 0.950 . S
H742 C763 0.950 . S
H743 C766 0.950 . S
H744 C767 0.950 . S
H745 C769 0.950 . S
H746 C770 0.950 . S
H747 C771 0.951 . S
H748 C773 0.951 . S
H749 C775 0.950 . S
H750 C776 0.950 . S
H751 C778 0.950 . S
H752 C781 0.950 . S
H753 C782 0.950 . S
H754 C784 0.950 . S
H755 C785 0.950 . S
C756 H738 0.951 . S
C756 C757 1.366 . S
C756 C758 1.388 . S
C757 C756 1.366 . S
C757 C761 1.385 . S
C758 H739 0.951 . S
C758 C756 1.388 . S
C758 C759 1.366 . S
C759 C758 1.366 . S
C759 C760 1.414 . S
C759 C762 1.499 . S
C760 H740 0.950 . S
C760 C759 1.414 . S
C760 C761 1.374 . S
C761 H741 0.950 . S
C761 C757 1.385 . S
C761 C760 1.374 . S
C762 C759 1.499 . S
C762 C763 1.373 . S
C762 C764 1.389 . S
C763 H742 0.950 . S
C763 C762 1.373 . S
C763 C779 1.377 . S
C764 C762 1.389 . S
C764 C765 1.524 . S
C764 C778 1.377 . S
C765 C764 1.524 . S
C765 C766 1.397 . S
C765 C770 1.363 . S
C766 H743 0.950 . S
C766 C765 1.397 . S
C766 C767 1.334 . S
C767 H744 0.950 . S
C767 C766 1.334 . S
C767 C768 1.287 . S
C768 C767 1.287 . S
C768 C769 1.524 . S
C768 H787 0.913 . S
C769 H745 0.950 . S
C769 C768 1.524 . S
C769 C770 1.415 . S
C770 H746 0.950 . S
C770 C765 1.363 . S
C770 C769 1.415 . S
C771 H747 0.951 . S
C771 C772 1.366 . S
C771 C773 1.388 . S
C772 C771 1.366 . S
C772 C776 1.385 . S
C773 H748 0.951 . S
C773 C771 1.388 . S
C773 C774 1.366 . S
C774 C773 1.366 . S
C774 C775 1.414 . S
C774 C777 1.499 . S
C775 H749 0.950 . S
C775 C774 1.414 . S
C775 C776 1.374 . S
C776 H750 0.950 . S
C776 C772 1.385 . S
C776 C775 1.374 . S
C777 C774 1.499 . S
C777 C778 1.373 . S
C777 C779 1.389 . S
C778 H751 0.950 . S
C778 C764 1.377 . S
C778 C777 1.373 . S
C779 C763 1.377 . S
C779 C777 1.389 . S
C779 C780 1.524 . S
C780 C779 1.524 . S
C780 C781 1.397 . S
C780 C785 1.363 . S
C781 H752 0.950 . S
C781 C780 1.397 . S
C781 C782 1.334 . S
C782 H753 0.950 . S
C782 C781 1.334 . S
C782 C783 1.287 . S
C783 C782 1.287 . S
C783 C784 1.524 . S
C783 H786 0.999 . S
C784 H754 0.950 . S
C784 C783 1.524 . S
C784 C785 1.415 . S
C785 H755 0.950 . S
C785 C780 1.363 . S
C785 C784 1.415 . S
H786 C783 0.999 . S
H787 C768 0.913 . S
H788 C806 0.951 . S
H789 C808 0.951 . S
H790 C810 0.950 . S
H791 C811 0.950 . S
H792 C813 0.950 . S
H793 C816 0.950 . S
H794 C817 0.950 . S
H795 C819 0.950 . S
H796 C820 0.950 . S
H797 C821 0.951 . S
H798 C823 0.951 . S
H799 C825 0.950 . S
H800 C826 0.950 . S
H801 C828 0.950 . S
H802 C831 0.950 . S
H803 C832 0.950 . S
H804 C834 0.950 . S
H805 C835 0.950 . S
C806 H788 0.951 . S
C806 C807 1.366 . S
C806 C808 1.388 . S
C807 C806 1.366 . S
C807 C811 1.385 . S
C808 H789 0.951 . S
C808 C806 1.388 . S
C808 C809 1.366 . S
C809 C808 1.366 . S
C809 C810 1.414 . S
C809 C812 1.499 . S
C810 H790 0.950 . S
C810 C809 1.414 . S
C810 C811 1.374 . S
C811 H791 0.950 . S
C811 C807 1.385 . S
C811 C810 1.374 . S
C812 C809 1.499 . S
C812 C813 1.373 . S
C812 C814 1.389 . S
C813 H792 0.950 . S
C813 C812 1.373 . S
C813 C829 1.377 . S
C814 C812 1.389 . S
C814 C815 1.524 . S
C814 C828 1.377 . S
C815 C814 1.524 . S
C815 C816 1.397 . S
C815 C820 1.363 . S
C816 H793 0.950 . S
C816 C815 1.397 . S
C816 C817 1.334 . S
C817 H794 0.950 . S
C817 C816 1.334 . S
C817 C818 1.287 . S
C818 C817 1.287 . S
C818 C819 1.524 . S
C818 H837 0.913 . S
C819 H795 0.950 . S
C819 C818 1.524 . S
C819 C820 1.415 . S
C820 H796 0.950 . S
C820 C815 1.363 . S
C820 C819 1.415 . S
C821 H797 0.951 . S
C821 C822 1.366 . S
C821 C823 1.388 . S
C822 C821 1.366 . S
C822 C826 1.385 . S
C823 H798 0.951 . S
C823 C821 1.388 . S
C823 C824 1.366 . S
C824 C823 1.366 . S
C824 C825 1.414 . S
C824 C827 1.499 . S
C825 H799 0.950 . S
C825 C824 1.414 . S
C825 C826 1.374 . S
C826 H800 0.950 . S
C826 C822 1.385 . S
C826 C825 1.374 . S
C827 C824 1.499 . S
C827 C828 1.373 . S
C827 C829 1.389 . S
C828 H801 0.950 . S
C828 C814 1.377 . S
C828 C827 1.373 . S
C829 C813 1.377 . S
C829 C827 1.389 . S
C829 C830 1.524 . S
C830 C829 1.524 . S
C830 C831 1.397 . S
C830 C835 1.363 . S
C831 H802 0.950 . S
C831 C830 1.397 . S
C831 C832 1.334 . S
C832 H803 0.950 . S
C832 C831 1.334 . S
C832 C833 1.287 . S
C833 C832 1.287 . S
C833 C834 1.524 . S
C833 H836 0.999 . S
C834 H804 0.950 . S
C834 C833 1.524 . S
C834 C835 1.415 . S
C835 H805 0.950 . S
C835 C830 1.363 . S
C835 C834 1.415 . S
H836 C833 0.999 . S
H837 C818 0.913 . S
H838 C856 0.951 . S
H839 C858 0.951 . S
H840 C860 0.950 . S
H841 C861 0.950 . S
H842 C863 0.950 . S
H843 C866 0.950 . S
H844 C867 0.950 . S
H845 C869 0.950 . S
H846 C870 0.950 . S
H847 C871 0.951 . S
H848 C873 0.951 . S
H849 C875 0.950 . S
H850 C876 0.950 . S
H851 C878 0.950 . S
H852 C881 0.950 . S
H853 C882 0.950 . S
H854 C884 0.950 . S
H855 C885 0.950 . S
C856 H838 0.951 . S
C856 C857 1.366 . S
C856 C858 1.388 . S
C857 C856 1.366 . S
C857 C861 1.385 . S
C858 H839 0.951 . S
C858 C856 1.388 . S
C858 C859 1.366 . S
C859 C858 1.366 . S
C859 C860 1.414 . S
C859 C862 1.499 . S
C860 H840 0.950 . S
C860 C859 1.414 . S
C860 C861 1.374 . S
C861 H841 0.950 . S
C861 C857 1.385 . S
C861 C860 1.374 . S
C862 C859 1.499 . S
C862 C863 1.373 . S
C862 C864 1.389 . S
C863 H842 0.950 . S
C863 C862 1.373 . S
C863 C879 1.377 . S
C864 C862 1.389 . S
C864 C865 1.524 . S
C864 C878 1.377 . S
C865 C864 1.524 . S
C865 C866 1.397 . S
C865 C870 1.363 . S
C866 H843 0.950 . S
C866 C865 1.397 . S
C866 C867 1.334 . S
C867 H844 0.950 . S
C867 C866 1.334 . S
C867 C868 1.287 . S
C868 C867 1.287 . S
C868 C869 1.524 . S
C868 H887 0.913 . S
C869 H845 0.950 . S
C869 C868 1.524 . S
C869 C870 1.415 . S
C870 H846 0.950 . S
C870 C865 1.363 . S
C870 C869 1.415 . S
C871 H847 0.951 . S
C871 C872 1.366 . S
C871 C873 1.388 . S
C872 C871 1.366 . S
C872 C876 1.385 . S
C873 H848 0.951 . S
C873 C871 1.388 . S
C873 C874 1.366 . S
C874 C873 1.366 . S
C874 C875 1.414 . S
C874 C877 1.499 . S
C875 H849 0.950 . S
C875 C874 1.414 . S
C875 C876 1.374 . S
C876 H850 0.950 . S
C876 C872 1.385 . S
C876 C875 1.374 . S
C877 C874 1.499 . S
C877 C878 1.373 . S
C877 C879 1.389 . S
C878 H851 0.950 . S
C878 C864 1.377 . S
C878 C877 1.373 . S
C879 C863 1.377 . S
C879 C877 1.389 . S
C879 C880 1.524 . S
C880 C879 1.524 . S
C880 C881 1.397 . S
C880 C885 1.363 . S
C881 H852 0.950 . S
C881 C880 1.397 . S
C881 C882 1.334 . S
C882 H853 0.950 . S
C882 C881 1.334 . S
C882 C883 1.287 . S
C883 C882 1.287 . S
C883 C884 1.524 . S
C883 H886 0.999 . S
C884 H854 0.950 . S
C884 C883 1.524 . S
C884 C885 1.415 . S
C885 H855 0.950 . S
C885 C880 1.363 . S
C885 C884 1.415 . S
H886 C883 0.999 . S
H887 C868 0.913 . S
H888 C906 0.951 . S
H889 C908 0.951 . S
H890 C910 0.950 . S
H891 C911 0.950 . S
H892 C913 0.950 . S
H893 C916 0.950 . S
H894 C917 0.950 . S
H895 C919 0.950 . S
H896 C920 0.950 . S
H897 C921 0.951 . S
H898 C923 0.951 . S
H899 C925 0.950 . S
H900 C926 0.950 . S
H901 C928 0.950 . S
H902 C931 0.950 . S
H903 C932 0.950 . S
H904 C934 0.950 . S
H905 C935 0.950 . S
C906 H888 0.951 . S
C906 C907 1.366 . S
C906 C908 1.388 . S
C907 C906 1.366 . S
C907 C911 1.385 . S
C908 H889 0.951 . S
C908 C906 1.388 . S
C908 C909 1.366 . S
C909 C908 1.366 . S
C909 C910 1.414 . S
C909 C912 1.499 . S
C910 H890 0.950 . S
C910 C909 1.414 . S
C910 C911 1.374 . S
C911 H891 0.950 . S
C911 C907 1.385 . S
C911 C910 1.374 . S
C912 C909 1.499 . S
C912 C913 1.373 . S
C912 C914 1.389 . S
C913 H892 0.950 . S
C913 C912 1.373 . S
C913 C929 1.377 . S
C914 C912 1.389 . S
C914 C915 1.524 . S
C914 C928 1.377 . S
C915 C914 1.524 . S
C915 C916 1.397 . S
C915 C920 1.363 . S
C916 H893 0.950 . S
C916 C915 1.397 . S
C916 C917 1.334 . S
C917 H894 0.950 . S
C917 C916 1.334 . S
C917 C918 1.287 . S
C918 C917 1.287 . S
C918 C919 1.524 . S
C918 H937 0.913 . S
C919 H895 0.950 . S
C919 C918 1.524 . S
C919 C920 1.415 . S
C920 H896 0.950 . S
C920 C915 1.363 . S
C920 C919 1.415 . S
C921 H897 0.951 . S
C921 C922 1.366 . S
C921 C923 1.388 . S
C922 C921 1.366 . S
C922 C926 1.385 . S
C923 H898 0.951 . S
C923 C921 1.388 . S
C923 C924 1.366 . S
C924 C923 1.366 . S
C924 C925 1.414 . S
C924 C927 1.499 . S
C925 H899 0.950 . S
C925 C924 1.414 . S
C925 C926 1.374 . S
C926 H900 0.950 . S
C926 C922 1.385 . S
C926 C925 1.374 . S
C927 C924 1.499 . S
C927 C928 1.373 . S
C927 C929 1.389 . S
C928 H901 0.950 . S
C928 C914 1.377 . S
C928 C927 1.373 . S
C929 C913 1.377 . S
C929 C927 1.389 . S
C929 C930 1.524 . S
C930 C929 1.524 . S
C930 C931 1.397 . S
C930 C935 1.363 . S
C931 H902 0.950 . S
C931 C930 1.397 . S
C931 C932 1.334 . S
C932 H903 0.950 . S
C932 C931 1.334 . S
C932 C933 1.287 . S
C933 C932 1.287 . S
C933 C934 1.524 . S
C933 H936 0.999 . S
C934 H904 0.950 . S
C934 C933 1.524 . S
C934 C935 1.415 . S
C935 H905 0.950 . S
C935 C930 1.363 . S
C935 C934 1.415 . S
H936 C933 0.999 . S
H937 C918 0.913 . S
H938 C956 0.951 . S
H939 C958 0.951 . S
H940 C960 0.950 . S
H941 C961 0.950 . S
H942 C963 0.950 . S
H943 C966 0.950 . S
H944 C967 0.974 . S
H945 C969 0.931 1_556 S
H946 C970 0.950 . S
H947 C971 0.951 . S
H948 C973 0.951 . S
H949 C975 0.950 . S
H950 C976 0.950 . S
H951 C978 0.950 . S
H952 C981 0.950 . S
H953 C982 0.950 . S
H954 C984 0.950 . S
H955 C985 0.950 . S
C956 H938 0.951 . S
C956 C957 1.366 . S
C956 C958 1.388 . S
C957 C956 1.366 . S
C957 C961 1.385 . S
C958 H939 0.951 . S
C958 C956 1.388 . S
C958 C959 1.366 . S
C959 C958 1.366 . S
C959 C960 1.414 . S
C959 C962 1.499 . S
C960 H940 0.950 . S
C960 C959 1.414 . S
C960 C961 1.374 . S
C961 H941 0.950 . S
C961 C957 1.385 . S
C961 C960 1.374 . S
C962 C959 1.499 . S
C962 C963 1.373 . S
C962 C964 1.389 . S
C963 H942 0.950 . S
C963 C962 1.373 . S
C963 C979 1.377 . S
C964 C962 1.389 . S
C964 C965 1.524 . S
C964 C978 1.377 . S
C965 C964 1.524 . S
C965 C966 1.397 . S
C965 C970 1.363 . S
C966 H943 0.950 . S
C966 C965 1.397 . S
C966 C967 1.334 . S
C967 H944 0.974 . S
C967 C966 1.334 . S
C967 C968 1.287 1_554 S
C968 C967 1.287 1_556 S
C968 C969 1.524 1_556 S
C968 H987 0.913 . S
C969 H945 0.931 1_554 S
C969 C968 1.524 1_554 S
C969 C970 1.415 . S
C970 H946 0.950 . S
C970 C965 1.363 . S
C970 C969 1.415 . S
C971 H947 0.951 . S
C971 C972 1.366 . S
C971 C973 1.388 . S
C972 C971 1.366 . S
C972 C976 1.385 . S
C973 H948 0.951 . S
C973 C971 1.388 . S
C973 C974 1.366 . S
C974 C973 1.366 . S
C974 C975 1.414 . S
C974 C977 1.499 . S
C975 H949 0.950 . S
C975 C974 1.414 . S
C975 C976 1.374 . S
C976 H950 0.950 . S
C976 C972 1.385 . S
C976 C975 1.374 . S
C977 C974 1.499 . S
C977 C978 1.373 . S
C977 C979 1.389 . S
C978 H951 0.950 . S
C978 C964 1.377 . S
C978 C977 1.373 . S
C979 C963 1.377 . S
C979 C977 1.389 . S
C979 C980 1.524 . S
C980 C979 1.524 . S
C980 C981 1.397 . S
C980 C985 1.363 . S
C981 H952 0.950 . S
C981 C980 1.397 . S
C981 C982 1.334 . S
C982 H953 0.950 . S
C982 C981 1.334 . S
C982 C983 1.287 . S
C983 C982 1.287 . S
C983 C984 1.524 . S
C983 H986 0.999 . S
C984 H954 0.950 . S
C984 C983 1.524 . S
C984 C985 1.415 . S
C985 H955 0.950 . S
C985 C980 1.363 . S
C985 C984 1.415 . S
H986 C983 0.999 . S
H987 C968 0.913 . S
H988 C1006 0.951 . S
H989 C1008 0.951 . S
H990 C1010 0.950 . S
H991 C1011 0.950 . S
H992 C1013 0.950 . S
H993 C1016 0.950 . S
H994 C1017 0.950 . S
H995 C1019 0.950 . S
H996 C1020 0.950 . S
H997 C1021 0.951 . S
H998 C1023 0.951 . S
H999 C1025 0.950 . S
H1000 C1026 0.950 . S
H1001 C1028 0.950 . S
H1002 C1031 0.950 . S
H1003 C1032 0.950 . S
H1004 C1034 0.950 . S
H1005 C1035 0.950 . S
C1006 H988 0.951 . S
C1006 C1007 1.366 . S
C1006 C1008 1.388 . S
C1007 C1006 1.366 . S
C1007 C1011 1.385 . S
C1008 H989 0.951 . S
C1008 C1006 1.388 . S
C1008 C1009 1.366 . S
C1009 C1008 1.366 . S
C1009 C1010 1.414 . S
C1009 C1012 1.499 . S
C1010 H990 0.950 . S
C1010 C1009 1.414 . S
C1010 C1011 1.374 . S
C1011 H991 0.950 . S
C1011 C1007 1.385 . S
C1011 C1010 1.374 . S
C1012 C1009 1.499 . S
C1012 C1013 1.373 . S
C1012 C1014 1.389 . S
C1013 H992 0.950 . S
C1013 C1012 1.373 . S
C1013 C1029 1.377 . S
C1014 C1012 1.389 . S
C1014 C1015 1.524 . S
C1014 C1028 1.377 . S
C1015 C1014 1.524 . S
C1015 C1016 1.397 . S
C1015 C1020 1.363 . S
C1016 H993 0.950 . S
C1016 C1015 1.397 . S
C1016 C1017 1.334 . S
C1017 H994 0.950 . S
C1017 C1016 1.334 . S
C1017 C1018 1.287 . S
C1018 C1017 1.287 . S
C1018 C1019 1.524 . S
C1018 H1037 0.913 . S
C1019 H995 0.950 . S
C1019 C1018 1.524 . S
C1019 C1020 1.415 . S
C1020 H996 0.950 . S
C1020 C1015 1.363 . S
C1020 C1019 1.415 . S
C1021 H997 0.951 . S
C1021 C1022 1.366 . S
C1021 C1023 1.388 . S
C1022 C1021 1.366 . S
C1022 C1026 1.385 . S
C1023 H998 0.951 . S
C1023 C1021 1.388 . S
C1023 C1024 1.366 . S
C1024 C1023 1.366 . S
C1024 C1025 1.414 . S
C1024 C1027 1.499 . S
C1025 H999 0.950 . S
C1025 C1024 1.414 . S
C1025 C1026 1.374 . S
C1026 H1000 0.950 . S
C1026 C1022 1.385 . S
C1026 C1025 1.374 . S
C1027 C1024 1.499 . S
C1027 C1028 1.373 . S
C1027 C1029 1.389 . S
C1028 H1001 0.950 . S
C1028 C1014 1.377 . S
C1028 C1027 1.373 . S
C1029 C1013 1.377 . S
C1029 C1027 1.389 . S
C1029 C1030 1.524 . S
C1030 C1029 1.524 . S
C1030 C1031 1.397 . S
C1030 C1035 1.363 . S
C1031 H1002 0.950 . S
C1031 C1030 1.397 . S
C1031 C1032 1.334 . S
C1032 H1003 0.950 . S
C1032 C1031 1.334 . S
C1032 C1033 1.287 . S
C1033 C1032 1.287 . S
C1033 C1034 1.524 . S
C1033 H1036 0.999 . S
C1034 H1004 0.950 . S
C1034 C1033 1.524 . S
C1034 C1035 1.415 . S
C1035 H1005 0.950 . S
C1035 C1030 1.363 . S
C1035 C1034 1.415 . S
H1036 C1033 0.999 . S
H1037 C1018 0.913 . S
H1038 C1056 0.951 . S
H1039 C1058 0.951 . S
H1040 C1060 0.950 . S
H1041 C1061 0.950 . S
H1042 C1063 0.950 . S
H1043 C1066 0.950 . S
H1044 C1067 0.950 . S
H1045 C1069 0.950 . S
H1046 C1070 0.950 . S
H1047 C1071 0.951 . S
H1048 C1073 0.951 . S
H1049 C1075 0.950 . S
H1050 C1076 0.950 . S
H1051 C1078 0.950 . S
H1052 C1081 0.950 . S
H1053 C1082 0.950 . S
H1054 C1084 0.950 . S
H1055 C1085 0.950 . S
C1056 H1038 0.951 . S
C1056 C1057 1.366 . S
C1056 C1058 1.388 . S
C1057 C1056 1.366 . S
C1057 C1061 1.385 . S
C1058 H1039 0.951 . S
C1058 C1056 1.388 . S
C1058 C1059 1.366 . S
C1059 C1058 1.366 . S
C1059 C1060 1.414 . S
C1059 C1062 1.499 . S
C1060 H1040 0.950 . S
C1060 C1059 1.414 . S
C1060 C1061 1.374 . S
C1061 H1041 0.950 . S
C1061 C1057 1.385 . S
C1061 C1060 1.374 . S
C1062 C1059 1.499 . S
C1062 C1063 1.373 . S
C1062 C1064 1.389 . S
C1063 H1042 0.950 . S
C1063 C1062 1.373 . S
C1063 C1079 1.377 . S
C1064 C1062 1.389 . S
C1064 C1065 1.524 . S
C1064 C1078 1.377 . S
C1065 C1064 1.524 . S
C1065 C1066 1.397 . S
C1065 C1070 1.363 . S
C1066 H1043 0.950 . S
C1066 C1065 1.397 . S
C1066 C1067 1.334 . S
C1067 H1044 0.950 . S
C1067 C1066 1.334 . S
C1067 C1068 1.287 . S
C1068 C1067 1.287 . S
C1068 C1069 1.524 . S
C1068 H1087 0.913 . S
C1069 H1045 0.950 . S
C1069 C1068 1.524 . S
C1069 C1070 1.415 . S
C1070 H1046 0.950 . S
C1070 C1065 1.363 . S
C1070 C1069 1.415 . S
C1071 H1047 0.951 . S
C1071 C1072 1.366 . S
C1071 C1073 1.388 . S
C1072 C1071 1.366 . S
C1072 C1076 1.385 . S
C1073 H1048 0.951 . S
C1073 C1071 1.388 . S
C1073 C1074 1.366 . S
C1074 C1073 1.366 . S
C1074 C1075 1.414 . S
C1074 C1077 1.499 . S
C1075 H1049 0.950 . S
C1075 C1074 1.414 . S
C1075 C1076 1.374 . S
C1076 H1050 0.950 . S
C1076 C1072 1.385 . S
C1076 C1075 1.374 . S
C1077 C1074 1.499 . S
C1077 C1078 1.373 . S
C1077 C1079 1.389 . S
C1078 H1051 0.950 . S
C1078 C1064 1.377 . S
C1078 C1077 1.373 . S
C1079 C1063 1.377 . S
C1079 C1077 1.389 . S
C1079 C1080 1.524 . S
C1080 C1079 1.524 . S
C1080 C1081 1.397 . S
C1080 C1085 1.363 . S
C1081 H1052 0.950 . S
C1081 C1080 1.397 . S
C1081 C1082 1.334 . S
C1082 H1053 0.950 . S
C1082 C1081 1.334 . S
C1082 C1083 1.287 . S
C1083 C1082 1.287 . S
C1083 C1084 1.524 . S
C1083 H1086 0.999 . S
C1084 H1054 0.950 . S
C1084 C1083 1.524 . S
C1084 C1085 1.415 . S
C1085 H1055 0.950 . S
C1085 C1080 1.363 . S
C1085 C1084 1.415 . S
H1086 C1083 0.999 . S
H1087 C1068 0.913 . S
H1088 C1106 0.951 . S
H1089 C1108 0.951 . S
H1090 C1110 0.950 . S
H1091 C1111 0.950 . S
H1092 C1113 0.950 . S
H1093 C1116 0.950 . S
H1094 C1117 0.950 . S
H1095 C1119 0.950 . S
H1096 C1120 0.950 . S
H1097 C1121 0.951 . S
H1098 C1123 0.951 . S
H1099 C1125 0.950 . S
H1100 C1126 0.950 . S
H1101 C1128 0.950 . S
H1102 C1131 0.950 . S
H1103 C1132 0.950 . S
H1104 C1134 0.950 . S
H1105 C1135 0.950 . S
C1106 H1088 0.951 . S
C1106 C1107 1.366 . S
C1106 C1108 1.388 . S
C1107 C1106 1.366 . S
C1107 C1111 1.385 . S
C1108 H1089 0.951 . S
C1108 C1106 1.388 . S
C1108 C1109 1.366 . S
C1109 C1108 1.366 . S
C1109 C1110 1.414 . S
C1109 C1112 1.499 . S
C1110 H1090 0.950 . S
C1110 C1109 1.414 . S
C1110 C1111 1.374 . S
C1111 H1091 0.950 . S
C1111 C1107 1.385 . S
C1111 C1110 1.374 . S
C1112 C1109 1.499 . S
C1112 C1113 1.373 . S
C1112 C1114 1.389 . S
C1113 H1092 0.950 . S
C1113 C1112 1.373 . S
C1113 C1129 1.377 . S
C1114 C1112 1.389 . S
C1114 C1115 1.524 . S
C1114 C1128 1.377 . S
C1115 C1114 1.524 . S
C1115 C1116 1.397 . S
C1115 C1120 1.363 . S
C1116 H1093 0.950 . S
C1116 C1115 1.397 . S
C1116 C1117 1.334 . S
C1117 H1094 0.950 . S
C1117 C1116 1.334 . S
C1117 C1118 1.287 . S
C1118 C1117 1.287 . S
C1118 C1119 1.524 . S
C1118 H1137 0.913 . S
C1119 H1095 0.950 . S
C1119 C1118 1.524 . S
C1119 C1120 1.415 . S
C1120 H1096 0.950 . S
C1120 C1115 1.363 . S
C1120 C1119 1.415 . S
C1121 H1097 0.951 . S
C1121 C1122 1.366 . S
C1121 C1123 1.388 . S
C1122 C1121 1.366 . S
C1122 C1126 1.385 . S
C1123 H1098 0.951 . S
C1123 C1121 1.388 . S
C1123 C1124 1.366 . S
C1124 C1123 1.366 . S
C1124 C1125 1.414 . S
C1124 C1127 1.499 . S
C1125 H1099 0.950 . S
C1125 C1124 1.414 . S
C1125 C1126 1.374 . S
C1126 H1100 0.950 . S
C1126 C1122 1.385 . S
C1126 C1125 1.374 . S
C1127 C1124 1.499 . S
C1127 C1128 1.373 . S
C1127 C1129 1.389 . S
C1128 H1101 0.950 . S
C1128 C1114 1.377 . S
C1128 C1127 1.373 . S
C1129 C1113 1.377 . S
C1129 C1127 1.389 . S
C1129 C1130 1.524 . S
C1130 C1129 1.524 . S
C1130 C1131 1.397 . S
C1130 C1135 1.363 . S
C1131 H1102 0.950 . S
C1131 C1130 1.397 . S
C1131 C1132 1.334 . S
C1132 H1103 0.950 . S
C1132 C1131 1.334 . S
C1132 C1133 1.287 . S
C1133 C1132 1.287 . S
C1133 C1134 1.524 . S
C1133 H1136 0.999 . S
C1134 H1104 0.950 . S
C1134 C1133 1.524 . S
C1134 C1135 1.415 . S
C1135 H1105 0.950 . S
C1135 C1130 1.363 . S
C1135 C1134 1.415 . S
H1136 C1133 0.999 . S
H1137 C1118 0.913 . S
H1138 C1156 0.951 . S
H1139 C1158 0.951 . S
H1140 C1160 0.950 . S
H1141 C1161 0.950 . S
H1142 C1163 0.950 . S
H1143 C1166 0.950 . S
H1144 C1167 0.950 . S
H1145 C1169 0.950 . S
H1146 C1170 0.950 . S
H1147 C1171 0.951 . S
H1148 C1173 0.951 . S
H1149 C1175 0.950 . S
H1150 C1176 0.950 . S
H1151 C1178 0.950 . S
H1152 C1181 0.950 . S
H1153 C1182 0.950 . S
H1154 C1184 0.950 . S
H1155 C1185 0.950 . S
C1156 H1138 0.951 . S
C1156 C1157 1.366 . S
C1156 C1158 1.388 . S
C1157 C1156 1.366 . S
C1157 C1161 1.385 . S
C1158 H1139 0.951 . S
C1158 C1156 1.388 . S
C1158 C1159 1.366 . S
C1159 C1158 1.366 . S
C1159 C1160 1.414 . S
C1159 C1162 1.499 . S
C1160 H1140 0.950 . S
C1160 C1159 1.414 . S
C1160 C1161 1.374 . S
C1161 H1141 0.950 . S
C1161 C1157 1.385 . S
C1161 C1160 1.374 . S
C1162 C1159 1.499 . S
C1162 C1163 1.373 . S
C1162 C1164 1.389 . S
C1163 H1142 0.950 . S
C1163 C1162 1.373 . S
C1163 C1179 1.377 . S
C1164 C1162 1.389 . S
C1164 C1165 1.524 . S
C1164 C1178 1.377 . S
C1165 C1164 1.524 . S
C1165 C1166 1.397 . S
C1165 C1170 1.363 . S
C1166 H1143 0.950 . S
C1166 C1165 1.397 . S
C1166 C1167 1.334 . S
C1167 H1144 0.950 . S
C1167 C1166 1.334 . S
C1167 C1168 1.287 . S
C1168 C1167 1.287 . S
C1168 C1169 1.524 . S
C1168 H1187 0.913 . S
C1169 H1145 0.950 . S
C1169 C1168 1.524 . S
C1169 C1170 1.415 . S
C1170 H1146 0.950 . S
C1170 C1165 1.363 . S
C1170 C1169 1.415 . S
C1171 H1147 0.951 . S
C1171 C1172 1.366 . S
C1171 C1173 1.388 . S
C1172 C1171 1.366 . S
C1172 C1176 1.385 . S
C1173 H1148 0.951 . S
C1173 C1171 1.388 . S
C1173 C1174 1.366 . S
C1174 C1173 1.366 . S
C1174 C1175 1.414 . S
C1174 C1177 1.499 . S
C1175 H1149 0.950 . S
C1175 C1174 1.414 . S
C1175 C1176 1.374 . S
C1176 H1150 0.950 . S
C1176 C1172 1.385 . S
C1176 C1175 1.374 . S
C1177 C1174 1.499 . S
C1177 C1178 1.373 . S
C1177 C1179 1.389 . S
C1178 H1151 0.950 . S
C1178 C1164 1.377 . S
C1178 C1177 1.373 . S
C1179 C1163 1.377 . S
C1179 C1177 1.389 . S
C1179 C1180 1.524 . S
C1180 C1179 1.524 . S
C1180 C1181 1.397 . S
C1180 C1185 1.363 . S
C1181 H1152 0.950 . S
C1181 C1180 1.397 . S
C1181 C1182 1.334 . S
C1182 H1153 0.950 . S
C1182 C1181 1.334 . S
C1182 C1183 1.287 . S
C1183 C1182 1.287 . S
C1183 C1184 1.524 . S
C1183 H1186 0.999 . S
C1184 H1154 0.950 . S
C1184 C1183 1.524 . S
C1184 C1185 1.415 . S
C1185 H1155 0.950 . S
C1185 C1180 1.363 . S
C1185 C1184 1.415 . S
H1186 C1183 0.999 . S
H1187 C1168 0.913 . S
H1188 C1206 0.951 . S
H1189 C1208 0.951 . S
H1190 C1210 0.950 . S
H1191 C1211 0.950 . S
H1192 C1213 0.950 . S
H1193 C1216 0.950 . S
H1194 C1217 0.950 . S
H1195 C1219 0.950 . S
H1196 C1220 0.950 . S
H1197 C1221 0.951 . S
H1198 C1223 0.951 . S
H1199 C1225 0.950 . S
H1200 C1226 0.950 1_554 S
H1201 C1228 0.950 . S
H1202 C1231 0.965 . S
H1203 C1232 0.872 1_554 S
H1204 C1234 0.950 . S
H1205 C1235 0.950 . S
C1206 H1188 0.951 . S
C1206 C1207 1.366 . S
C1206 C1208 1.388 . S
C1207 C1206 1.366 . S
C1207 C1211 1.385 . S
C1208 H1189 0.951 . S
C1208 C1206 1.388 . S
C1208 C1209 1.366 . S
C1209 C1208 1.366 . S
C1209 C1210 1.414 . S
C1209 C1212 1.499 . S
C1210 H1190 0.950 . S
C1210 C1209 1.414 . S
C1210 C1211 1.374 . S
C1211 H1191 0.950 . S
C1211 C1207 1.385 . S
C1211 C1210 1.374 . S
C1212 C1209 1.499 . S
C1212 C1213 1.373 . S
C1212 C1214 1.389 . S
C1213 H1192 0.950 . S
C1213 C1212 1.373 . S
C1213 C1229 1.377 . S
C1214 C1212 1.389 . S
C1214 C1215 1.524 . S
C1214 C1228 1.377 . S
C1215 C1214 1.524 . S
C1215 C1216 1.397 . S
C1215 C1220 1.363 . S
C1216 H1193 0.950 . S
C1216 C1215 1.397 . S
C1216 C1217 1.334 . S
C1217 H1194 0.950 . S
C1217 C1216 1.334 . S
C1217 C1218 1.287 . S
C1218 C1217 1.287 . S
C1218 C1219 1.524 . S
C1218 H1237 0.913 . S
C1219 H1195 0.950 . S
C1219 C1218 1.524 . S
C1219 C1220 1.415 . S
C1220 H1196 0.950 . S
C1220 C1215 1.363 . S
C1220 C1219 1.415 . S
C1221 H1197 0.951 . S
C1221 C1222 1.366 . S
C1221 C1223 1.388 . S
C1222 C1221 1.366 . S
C1222 C1226 1.385 . S
C1223 H1198 0.951 . S
C1223 C1221 1.388 . S
C1223 C1224 1.366 . S
C1224 C1223 1.366 . S
C1224 C1225 1.414 . S
C1224 C1227 1.499 . S
C1225 H1199 0.950 . S
C1225 C1224 1.414 . S
C1225 C1226 1.374 . S
C1226 H1200 0.950 1_556 S
C1226 C1222 1.385 . S
C1226 C1225 1.374 . S
C1227 C1224 1.499 . S
C1227 C1228 1.373 . S
C1227 C1229 1.389 . S
C1228 H1201 0.950 . S
C1228 C1214 1.377 . S
C1228 C1227 1.373 . S
C1229 C1213 1.377 . S
C1229 C1227 1.389 . S
C1229 C1230 1.524 . S
C1230 C1229 1.524 . S
C1230 C1231 1.397 . S
C1230 C1235 1.363 . S
C1231 H1202 0.965 . S
C1231 C1230 1.397 . S
C1231 C1232 1.368 . S
C1232 H1203 0.872 1_556 S
C1232 C1231 1.368 . S
C1232 C1233 1.338 . S
C1233 C1232 1.338 . S
C1233 C1234 1.524 . S
C1233 H1236 0.999 . S
C1234 H1204 0.950 . S
C1234 C1233 1.524 . S
C1234 C1235 1.415 . S
C1235 H1205 0.950 . S
C1235 C1230 1.363 . S
C1235 C1234 1.415 . S
H1236 C1233 0.999 . S
H1237 C1218 0.913 . S
H1238 C1256 0.951 . S
H1239 C1258 0.951 . S
H1240 C1260 0.950 . S
H1241 C1261 0.950 . S
H1242 C1263 0.950 . S
H1243 C1266 0.950 . S
H1244 C1267 0.950 . S
H1245 C1269 0.950 . S
H1246 C1270 0.950 . S
H1247 C1271 0.951 . S
H1248 C1273 0.951 . S
H1249 C1275 0.950 . S
H1250 C1276 0.950 . S
H1251 C1278 0.950 . S
H1252 C1281 0.950 . S
H1253 C1282 0.950 . S
H1254 C1284 0.950 . S
H1255 C1285 0.950 . S
C1256 H1238 0.951 . S
C1256 C1257 1.366 . S
C1256 C1258 1.388 . S
C1257 C1256 1.366 . S
C1257 C1261 1.385 . S
C1258 H1239 0.951 . S
C1258 C1256 1.388 . S
C1258 C1259 1.366 . S
C1259 C1258 1.366 . S
C1259 C1260 1.414 . S
C1259 C1262 1.499 . S
C1260 H1240 0.950 . S
C1260 C1259 1.414 . S
C1260 C1261 1.374 . S
C1261 H1241 0.950 . S
C1261 C1257 1.385 . S
C1261 C1260 1.374 . S
C1262 C1259 1.499 . S
C1262 C1263 1.373 . S
C1262 C1264 1.389 . S
C1263 H1242 0.950 . S
C1263 C1262 1.373 . S
C1263 C1279 1.377 . S
C1264 C1262 1.389 . S
C1264 C1265 1.524 . S
C1264 C1278 1.377 . S
C1265 C1264 1.524 . S
C1265 C1266 1.397 . S
C1265 C1270 1.363 . S
C1266 H1243 0.950 . S
C1266 C1265 1.397 . S
C1266 C1267 1.334 . S
C1267 H1244 0.950 . S
C1267 C1266 1.334 . S
C1267 C1268 1.287 . S
C1268 C1267 1.287 . S
C1268 C1269 1.524 . S
C1268 H1287 0.913 . S
C1269 H1245 0.950 . S
C1269 C1268 1.524 . S
C1269 C1270 1.415 . S
C1270 H1246 0.950 . S
C1270 C1265 1.363 . S
C1270 C1269 1.415 . S
C1271 H1247 0.951 . S
C1271 C1272 1.366 . S
C1271 C1273 1.388 . S
C1272 C1271 1.366 . S
C1272 C1276 1.385 . S
C1273 H1248 0.951 . S
C1273 C1271 1.388 . S
C1273 C1274 1.366 . S
C1274 C1273 1.366 . S
C1274 C1275 1.414 . S
C1274 C1277 1.499 . S
C1275 H1249 0.950 . S
C1275 C1274 1.414 . S
C1275 C1276 1.374 . S
C1276 H1250 0.950 . S
C1276 C1272 1.385 . S
C1276 C1275 1.374 . S
C1277 C1274 1.499 . S
C1277 C1278 1.373 . S
C1277 C1279 1.389 . S
C1278 H1251 0.950 . S
C1278 C1264 1.377 . S
C1278 C1277 1.373 . S
C1279 C1263 1.377 . S
C1279 C1277 1.389 . S
C1279 C1280 1.524 . S
C1280 C1279 1.524 . S
C1280 C1281 1.397 . S
C1280 C1285 1.363 . S
C1281 H1252 0.950 . S
C1281 C1280 1.397 . S
C1281 C1282 1.334 . S
C1282 H1253 0.950 . S
C1282 C1281 1.334 . S
C1282 C1283 1.287 . S
C1283 C1282 1.287 . S
C1283 C1284 1.524 . S
C1283 H1286 0.999 . S
C1284 H1254 0.950 . S
C1284 C1283 1.524 . S
C1284 C1285 1.415 . S
C1285 H1255 0.950 . S
C1285 C1280 1.363 . S
C1285 C1284 1.415 . S
H1286 C1283 0.999 . S
H1287 C1268 0.913 . S
H1288 C1306 0.951 . S
H1289 C1308 0.951 . S
H1290 C1310 0.950 . S
H1291 C1311 0.950 . S
H1292 C1313 0.950 . S
H1293 C1316 0.950 . S
H1294 C1317 0.950 . S
H1295 C1319 0.950 . S
H1296 C1320 0.950 . S
H1297 C1321 0.951 . S
H1298 C1323 0.951 . S
H1299 C1325 0.950 . S
H1300 C1326 0.950 . S
H1301 C1328 0.950 . S
H1302 C1331 0.950 . S
H1303 C1332 0.950 . S
H1304 C1334 0.950 . S
H1305 C1335 0.950 . S
C1306 H1288 0.951 . S
C1306 C1307 1.366 . S
C1306 C1308 1.388 . S
C1307 C1306 1.366 . S
C1307 C1311 1.385 . S
C1308 H1289 0.951 . S
C1308 C1306 1.388 . S
C1308 C1309 1.366 . S
C1309 C1308 1.366 . S
C1309 C1310 1.414 . S
C1309 C1312 1.499 . S
C1310 H1290 0.950 . S
C1310 C1309 1.414 . S
C1310 C1311 1.374 . S
C1311 H1291 0.950 . S
C1311 C1307 1.385 . S
C1311 C1310 1.374 . S
C1312 C1309 1.499 . S
C1312 C1313 1.373 . S
C1312 C1314 1.389 . S
C1313 H1292 0.950 . S
C1313 C1312 1.373 . S
C1313 C1329 1.377 . S
C1314 C1312 1.389 . S
C1314 C1315 1.524 . S
C1314 C1328 1.377 . S
C1315 C1314 1.524 . S
C1315 C1316 1.397 . S
C1315 C1320 1.363 . S
C1316 H1293 0.950 . S
C1316 C1315 1.397 . S
C1316 C1317 1.334 . S
C1317 H1294 0.950 . S
C1317 C1316 1.334 . S
C1317 C1318 1.287 . S
C1318 C1317 1.287 . S
C1318 C1319 1.524 . S
C1318 H1337 0.913 . S
C1319 H1295 0.950 . S
C1319 C1318 1.524 . S
C1319 C1320 1.415 . S
C1320 H1296 0.950 . S
C1320 C1315 1.363 . S
C1320 C1319 1.415 . S
C1321 H1297 0.951 . S
C1321 C1322 1.366 . S
C1321 C1323 1.388 . S
C1322 C1321 1.366 . S
C1322 C1326 1.385 . S
C1323 H1298 0.951 . S
C1323 C1321 1.388 . S
C1323 C1324 1.366 . S
C1324 C1323 1.366 . S
C1324 C1325 1.414 . S
C1324 C1327 1.499 . S
C1325 H1299 0.950 . S
C1325 C1324 1.414 . S
C1325 C1326 1.374 . S
C1326 H1300 0.950 . S
C1326 C1322 1.385 . S
C1326 C1325 1.374 . S
C1327 C1324 1.499 . S
C1327 C1328 1.373 . S
C1327 C1329 1.389 . S
C1328 H1301 0.950 . S
C1328 C1314 1.377 . S
C1328 C1327 1.373 . S
C1329 C1313 1.377 . S
C1329 C1327 1.389 . S
C1329 C1330 1.524 . S
C1330 C1329 1.524 . S
C1330 C1331 1.397 . S
C1330 C1335 1.363 . S
C1331 H1302 0.950 . S
C1331 C1330 1.397 . S
C1331 C1332 1.334 . S
C1332 H1303 0.950 . S
C1332 C1331 1.334 . S
C1332 C1333 1.287 . S
C1333 C1332 1.287 . S
C1333 C1334 1.524 . S
C1333 H1336 0.999 . S
C1334 H1304 0.950 . S
C1334 C1333 1.524 . S
C1334 C1335 1.415 . S
C1335 H1305 0.950 . S
C1335 C1330 1.363 . S
C1335 C1334 1.415 . S
H1336 C1333 0.999 . S
H1337 C1318 0.913 . S
H1338 C1356 0.951 . S
H1339 C1358 0.951 . S
H1340 C1360 0.950 . S
H1341 C1361 0.950 . S
H1342 C1363 0.950 . S
H1343 C1366 0.950 . S
H1344 C1367 0.950 . S
H1345 C1369 0.950 . S
H1346 C1370 0.950 . S
H1347 C1371 0.951 . S
H1348 C1373 0.951 . S
H1349 C1375 0.950 . S
H1350 C1376 0.950 . S
H1351 C1378 0.950 . S
H1352 C1381 0.950 . S
H1353 C1382 0.950 . S
H1354 C1384 0.950 . S
H1355 C1385 0.950 . S
C1356 H1338 0.951 . S
C1356 C1357 1.366 . S
C1356 C1358 1.388 . S
C1357 C1356 1.366 . S
C1357 C1361 1.385 . S
C1358 H1339 0.951 . S
C1358 C1356 1.388 . S
C1358 C1359 1.366 . S
C1359 C1358 1.366 . S
C1359 C1360 1.414 . S
C1359 C1362 1.499 . S
C1360 H1340 0.950 . S
C1360 C1359 1.414 . S
C1360 C1361 1.374 . S
C1361 H1341 0.950 . S
C1361 C1357 1.385 . S
C1361 C1360 1.374 . S
C1362 C1359 1.499 . S
C1362 C1363 1.373 . S
C1362 C1364 1.389 . S
C1363 H1342 0.950 . S
C1363 C1362 1.373 . S
C1363 C1379 1.377 . S
C1364 C1362 1.389 . S
C1364 C1365 1.524 . S
C1364 C1378 1.377 . S
C1365 C1364 1.524 . S
C1365 C1366 1.397 . S
C1365 C1370 1.363 . S
C1366 H1343 0.950 . S
C1366 C1365 1.397 . S
C1366 C1367 1.334 . S
C1367 H1344 0.950 . S
C1367 C1366 1.334 . S
C1367 C1368 1.287 . S
C1368 C1367 1.287 . S
C1368 C1369 1.524 . S
C1368 H1387 0.913 . S
C1369 H1345 0.950 . S
C1369 C1368 1.524 . S
C1369 C1370 1.415 . S
C1370 H1346 0.950 . S
C1370 C1365 1.363 . S
C1370 C1369 1.415 . S
C1371 H1347 0.951 . S
C1371 C1372 1.366 . S
C1371 C1373 1.388 . S
C1372 C1371 1.366 . S
C1372 C1376 1.385 . S
C1373 H1348 0.951 . S
C1373 C1371 1.388 . S
C1373 C1374 1.366 . S
C1374 C1373 1.366 . S
C1374 C1375 1.414 . S
C1374 C1377 1.499 . S
C1375 H1349 0.950 . S
C1375 C1374 1.414 . S
C1375 C1376 1.374 . S
C1376 H1350 0.950 . S
C1376 C1372 1.385 . S
C1376 C1375 1.374 . S
C1377 C1374 1.499 . S
C1377 C1378 1.373 . S
C1377 C1379 1.389 . S
C1378 H1351 0.950 . S
C1378 C1364 1.377 . S
C1378 C1377 1.373 . S
C1379 C1363 1.377 . S
C1379 C1377 1.389 . S
C1379 C1380 1.524 . S
C1380 C1379 1.524 . S
C1380 C1381 1.397 . S
C1380 C1385 1.363 . S
C1381 H1352 0.950 . S
C1381 C1380 1.397 . S
C1381 C1382 1.334 . S
C1382 H1353 0.950 . S
C1382 C1381 1.334 . S
C1382 C1383 1.287 . S
C1383 C1382 1.287 . S
C1383 C1384 1.524 . S
C1383 H1386 0.999 . S
C1384 H1354 0.950 . S
C1384 C1383 1.524 . S
C1384 C1385 1.415 . S
C1385 H1355 0.950 . S
C1385 C1380 1.363 . S
C1385 C1384 1.415 . S
H1386 C1383 0.999 . S
H1387 C1368 0.913 . S
H1388 C1406 0.951 . S
H1389 C1408 0.951 . S
H1390 C1410 0.950 . S
H1391 C1411 0.950 . S
H1392 C1413 0.950 . S
H1393 C1416 0.950 . S
H1394 C1417 0.950 . S
H1395 C1419 0.950 . S
H1396 C1420 0.950 . S
H1397 C1421 0.951 . S
H1398 C1423 0.951 . S
H1399 C1425 0.950 . S
H1400 C1426 0.950 . S
H1401 C1428 0.950 . S
H1402 C1431 0.950 . S
H1403 C1432 0.950 . S
H1404 C1434 0.950 . S
H1405 C1435 0.950 . S
C1406 H1388 0.951 . S
C1406 C1407 1.366 . S
C1406 C1408 1.388 . S
C1407 C1406 1.366 . S
C1407 C1411 1.385 . S
C1408 H1389 0.951 . S
C1408 C1406 1.388 . S
C1408 C1409 1.366 . S
C1409 C1408 1.366 . S
C1409 C1410 1.414 . S
C1409 C1412 1.499 . S
C1410 H1390 0.950 . S
C1410 C1409 1.414 . S
C1410 C1411 1.374 . S
C1411 H1391 0.950 . S
C1411 C1407 1.385 . S
C1411 C1410 1.374 . S
C1412 C1409 1.499 . S
C1412 C1413 1.373 . S
C1412 C1414 1.389 . S
C1413 H1392 0.950 . S
C1413 C1412 1.373 . S
C1413 C1429 1.377 . S
C1414 C1412 1.389 . S
C1414 C1415 1.524 . S
C1414 C1428 1.377 . S
C1415 C1414 1.524 . S
C1415 C1416 1.397 . S
C1415 C1420 1.363 . S
C1416 H1393 0.950 . S
C1416 C1415 1.397 . S
C1416 C1417 1.334 . S
C1417 H1394 0.950 . S
C1417 C1416 1.334 . S
C1417 C1418 1.287 . S
C1418 C1417 1.287 . S
C1418 C1419 1.524 . S
C1418 H1437 0.913 . S
C1419 H1395 0.950 . S
C1419 C1418 1.524 . S
C1419 C1420 1.415 . S
C1420 H1396 0.950 . S
C1420 C1415 1.363 . S
C1420 C1419 1.415 . S
C1421 H1397 0.951 . S
C1421 C1422 1.366 . S
C1421 C1423 1.388 . S
C1422 C1421 1.366 . S
C1422 C1426 1.385 . S
C1423 H1398 0.951 . S
C1423 C1421 1.388 . S
C1423 C1424 1.366 . S
C1424 C1423 1.366 . S
C1424 C1425 1.414 . S
C1424 C1427 1.499 . S
C1425 H1399 0.950 . S
C1425 C1424 1.414 . S
C1425 C1426 1.374 . S
C1426 H1400 0.950 . S
C1426 C1422 1.385 . S
C1426 C1425 1.374 . S
C1427 C1424 1.499 . S
C1427 C1428 1.373 . S
C1427 C1429 1.389 . S
C1428 H1401 0.950 . S
C1428 C1414 1.377 . S
C1428 C1427 1.373 . S
C1429 C1413 1.377 . S
C1429 C1427 1.389 . S
C1429 C1430 1.524 . S
C1430 C1429 1.524 . S
C1430 C1431 1.397 . S
C1430 C1435 1.363 . S
C1431 H1402 0.950 . S
C1431 C1430 1.397 . S
C1431 C1432 1.334 . S
C1432 H1403 0.950 . S
C1432 C1431 1.334 . S
C1432 C1433 1.287 . S
C1433 C1432 1.287 . S
C1433 C1434 1.524 . S
C1433 H1436 0.999 . S
C1434 H1404 0.950 . S
C1434 C1433 1.524 . S
C1434 C1435 1.415 . S
C1435 H1405 0.950 . S
C1435 C1430 1.363 . S
C1435 C1434 1.415 . S
H1436 C1433 0.999 . S
H1437 C1418 0.913 . S
H1438 C1456 0.951 . S
H1439 C1458 0.951 . S
H1440 C1460 0.950 . S
H1441 C1461 0.950 . S
H1442 C1463 0.950 . S
H1443 C1466 0.950 . S
H1444 C1467 0.950 . S
H1445 C1469 0.950 . S
H1446 C1470 0.950 . S
H1447 C1471 0.951 . S
H1448 C1473 0.951 . S
H1449 C1475 0.950 . S
H1450 C1476 0.950 . S
H1451 C1478 0.950 . S
H1452 C1481 0.950 . S
H1453 C1482 0.950 . S
H1454 C1484 0.950 . S
H1455 C1485 0.950 . S
C1456 H1438 0.951 . S
C1456 C1457 1.366 . S
C1456 C1458 1.388 . S
C1457 C1456 1.366 . S
C1457 C1461 1.385 . S
C1458 H1439 0.951 . S
C1458 C1456 1.388 . S
C1458 C1459 1.366 . S
C1459 C1458 1.366 . S
C1459 C1460 1.414 . S
C1459 C1462 1.499 . S
C1460 H1440 0.950 . S
C1460 C1459 1.414 . S
C1460 C1461 1.374 . S
C1461 H1441 0.950 . S
C1461 C1457 1.385 . S
C1461 C1460 1.374 . S
C1462 C1459 1.499 . S
C1462 C1463 1.373 . S
C1462 C1464 1.389 . S
C1463 H1442 0.950 . S
C1463 C1462 1.373 . S
C1463 C1479 1.377 . S
C1464 C1462 1.389 . S
C1464 C1465 1.524 . S
C1464 C1478 1.377 . S
C1465 C1464 1.524 . S
C1465 C1466 1.397 . S
C1465 C1470 1.363 . S
C1466 H1443 0.950 . S
C1466 C1465 1.397 . S
C1466 C1467 1.334 . S
C1467 H1444 0.950 . S
C1467 C1466 1.334 . S
C1467 C1468 1.287 . S
C1468 C1467 1.287 . S
C1468 C1469 1.524 . S
C1468 H1487 0.913 . S
C1469 H1445 0.950 . S
C1469 C1468 1.524 . S
C1469 C1470 1.415 . S
C1470 H1446 0.950 . S
C1470 C1465 1.363 . S
C1470 C1469 1.415 . S
C1471 H1447 0.951 . S
C1471 C1472 1.366 . S
C1471 C1473 1.388 . S
C1472 C1471 1.366 . S
C1472 C1476 1.385 . S
C1473 H1448 0.951 . S
C1473 C1471 1.388 . S
C1473 C1474 1.366 . S
C1474 C1473 1.366 . S
C1474 C1475 1.414 . S
C1474 C1477 1.499 . S
C1475 H1449 0.950 . S
C1475 C1474 1.414 . S
C1475 C1476 1.374 . S
C1476 H1450 0.950 . S
C1476 C1472 1.385 . S
C1476 C1475 1.374 . S
C1477 C1474 1.499 . S
C1477 C1478 1.373 . S
C1477 C1479 1.389 . S
C1478 H1451 0.950 . S
C1478 C1464 1.377 . S
C1478 C1477 1.373 . S
C1479 C1463 1.377 . S
C1479 C1477 1.389 . S
C1479 C1480 1.524 . S
C1480 C1479 1.524 . S
C1480 C1481 1.397 . S
C1480 C1485 1.363 . S
C1481 H1452 0.950 . S
C1481 C1480 1.397 . S
C1481 C1482 1.334 . S
C1482 H1453 0.950 . S
C1482 C1481 1.334 . S
C1482 C1483 1.287 . S
C1483 C1482 1.287 . S
C1483 C1484 1.524 . S
C1483 H1486 0.999 . S
C1484 H1454 0.950 . S
C1484 C1483 1.524 . S
C1484 C1485 1.415 . S
C1485 H1455 0.950 . S
C1485 C1480 1.363 . S
C1485 C1484 1.415 . S
H1486 C1483 0.999 . S
H1487 C1468 0.913 . S
H1488 C1506 0.951 . S
H1489 C1508 0.951 . S
H1490 C1510 0.950 . S
H1491 C1511 0.950 . S
H1492 C1513 0.950 . S
H1493 C1516 0.950 . S
H1494 C1517 0.950 . S
H1495 C1519 0.950 . S
H1496 C1520 0.950 . S
H1497 C1521 0.951 . S
H1498 C1523 0.951 . S
H1499 C1525 0.950 . S
H1500 C1526 0.950 . S
H1501 C1528 0.950 . S
H1502 C1531 0.950 . S
H1503 C1532 0.950 . S
H1504 C1534 0.950 . S
H1505 C1535 0.950 . S
C1506 H1488 0.951 . S
C1506 C1507 1.366 . S
C1506 C1508 1.388 . S
C1507 C1506 1.366 . S
C1507 C1511 1.385 . S
C1508 H1489 0.951 . S
C1508 C1506 1.388 . S
C1508 C1509 1.366 . S
C1509 C1508 1.366 . S
C1509 C1510 1.414 . S
C1509 C1512 1.499 . S
C1510 H1490 0.950 . S
C1510 C1509 1.414 . S
C1510 C1511 1.374 . S
C1511 H1491 0.950 . S
C1511 C1507 1.385 . S
C1511 C1510 1.374 . S
C1512 C1509 1.499 . S
C1512 C1513 1.373 . S
C1512 C1514 1.389 . S
C1513 H1492 0.950 . S
C1513 C1512 1.373 . S
C1513 C1529 1.377 . S
C1514 C1512 1.389 . S
C1514 C1515 1.524 . S
C1514 C1528 1.377 . S
C1515 C1514 1.524 . S
C1515 C1516 1.397 . S
C1515 C1520 1.363 . S
C1516 H1493 0.950 . S
C1516 C1515 1.397 . S
C1516 C1517 1.334 . S
C1517 H1494 0.950 . S
C1517 C1516 1.334 . S
C1517 C1518 1.287 . S
C1518 C1517 1.287 . S
C1518 C1519 1.524 . S
C1518 H1537 0.913 . S
C1519 H1495 0.950 . S
C1519 C1518 1.524 . S
C1519 C1520 1.415 . S
C1520 H1496 0.950 . S
C1520 C1515 1.363 . S
C1520 C1519 1.415 . S
C1521 H1497 0.951 . S
C1521 C1522 1.366 . S
C1521 C1523 1.388 . S
C1522 C1521 1.366 . S
C1522 C1526 1.385 . S
C1523 H1498 0.951 . S
C1523 C1521 1.388 . S
C1523 C1524 1.366 . S
C1524 C1523 1.366 . S
C1524 C1525 1.414 . S
C1524 C1527 1.499 . S
C1525 H1499 0.950 . S
C1525 C1524 1.414 . S
C1525 C1526 1.374 . S
C1526 H1500 0.950 . S
C1526 C1522 1.385 . S
C1526 C1525 1.374 . S
C1527 C1524 1.499 . S
C1527 C1528 1.373 . S
C1527 C1529 1.389 . S
C1528 H1501 0.950 . S
C1528 C1514 1.377 . S
C1528 C1527 1.373 . S
C1529 C1513 1.377 . S
C1529 C1527 1.389 . S
C1529 C1530 1.524 . S
C1530 C1529 1.524 . S
C1530 C1531 1.397 . S
C1530 C1535 1.363 . S
C1531 H1502 0.950 . S
C1531 C1530 1.397 . S
C1531 C1532 1.334 . S
C1532 H1503 0.950 . S
C1532 C1531 1.334 . S
C1532 C1533 1.287 . S
C1533 C1532 1.287 . S
C1533 C1534 1.524 . S
C1533 H1536 0.999 . S
C1534 H1504 0.950 . S
C1534 C1533 1.524 . S
C1534 C1535 1.415 . S
C1535 H1505 0.950 . S
C1535 C1530 1.363 . S
C1535 C1534 1.415 . S
H1536 C1533 0.999 . S
H1537 C1518 0.913 . S
H1538 C1556 0.951 . S
H1539 C1558 0.951 . S
H1540 C1560 0.950 . S
H1541 C1561 0.950 . S
H1542 C1563 0.950 . S
H1543 C1566 0.950 . S
H1544 C1567 0.950 . S
H1545 C1569 0.950 . S
H1546 C1570 0.950 . S
H1547 C1571 0.951 . S
H1548 C1573 0.951 . S
H1549 C1575 0.950 . S
H1550 C1576 0.950 . S
H1551 C1578 0.950 . S
H1552 C1581 0.950 . S
H1553 C1582 0.950 . S
H1554 C1584 0.950 . S
H1555 C1585 0.950 . S
C1556 H1538 0.951 . S
C1556 C1557 1.366 . S
C1556 C1558 1.388 . S
C1557 C1556 1.366 . S
C1557 C1561 1.385 . S
C1558 H1539 0.951 . S
C1558 C1556 1.388 . S
C1558 C1559 1.366 . S
C1559 C1558 1.366 . S
C1559 C1560 1.414 . S
C1559 C1562 1.499 . S
C1560 H1540 0.950 . S
C1560 C1559 1.414 . S
C1560 C1561 1.374 . S
C1561 H1541 0.950 . S
C1561 C1557 1.385 . S
C1561 C1560 1.374 . S
C1562 C1559 1.499 . S
C1562 C1563 1.373 . S
C1562 C1564 1.389 . S
C1563 H1542 0.950 . S
C1563 C1562 1.373 . S
C1563 C1579 1.377 . S
C1564 C1562 1.389 . S
C1564 C1565 1.524 . S
C1564 C1578 1.377 . S
C1565 C1564 1.524 . S
C1565 C1566 1.397 . S
C1565 C1570 1.363 . S
C1566 H1543 0.950 . S
C1566 C1565 1.397 . S
C1566 C1567 1.334 . S
C1567 H1544 0.950 . S
C1567 C1566 1.334 . S
C1567 C1568 1.287 . S
C1568 C1567 1.287 . S
C1568 C1569 1.524 . S
C1568 H1587 0.913 . S
C1569 H1545 0.950 . S
C1569 C1568 1.524 . S
C1569 C1570 1.415 . S
C1570 H1546 0.950 . S
C1570 C1565 1.363 . S
C1570 C1569 1.415 . S
C1571 H1547 0.951 . S
C1571 C1572 1.366 . S
C1571 C1573 1.388 . S
C1572 C1571 1.366 . S
C1572 C1576 1.385 . S
C1573 H1548 0.951 . S
C1573 C1571 1.388 . S
C1573 C1574 1.366 . S
C1574 C1573 1.366 . S
C1574 C1575 1.414 . S
C1574 C1577 1.499 . S
C1575 H1549 0.950 . S
C1575 C1574 1.414 . S
C1575 C1576 1.374 . S
C1576 H1550 0.950 . S
C1576 C1572 1.385 . S
C1576 C1575 1.374 . S
C1577 C1574 1.499 . S
C1577 C1578 1.373 . S
C1577 C1579 1.389 . S
C1578 H1551 0.950 . S
C1578 C1564 1.377 . S
C1578 C1577 1.373 . S
C1579 C1563 1.377 . S
C1579 C1577 1.389 . S
C1579 C1580 1.524 . S
C1580 C1579 1.524 . S
C1580 C1581 1.397 . S
C1580 C1585 1.363 . S
C1581 H1552 0.950 . S
C1581 C1580 1.397 . S
C1581 C1582 1.334 . S
C1582 H1553 0.950 . S
C1582 C1581 1.334 . S
C1582 C1583 1.287 . S
C1583 C1582 1.287 . S
C1583 C1584 1.524 . S
C1583 H1586 0.999 . S
C1584 H1554 0.950 . S
C1584 C1583 1.524 . S
C1584 C1585 1.415 . S
C1585 H1555 0.950 . S
C1585 C1580 1.363 . S
C1585 C1584 1.415 . S
H1586 C1583 0.999 . S
H1587 C1568 0.913 . S
H1588 C1606 0.951 . S
H1589 C1608 0.951 . S
H1590 C1610 0.950 . S
H1591 C1611 0.950 . S
H1592 C1613 0.950 . S
H1593 C1616 0.950 . S
H1594 C1617 0.950 . S
H1595 C1619 0.950 . S
H1596 C1620 0.950 . S
H1597 C1621 0.951 . S
H1598 C1623 0.951 . S
H1599 C1625 0.950 . S
H1600 C1626 0.950 . S
H1601 C1628 0.950 . S
H1602 C1631 0.950 . S
H1603 C1632 0.950 . S
H1604 C1634 0.950 . S
H1605 C1635 0.950 . S
C1606 H1588 0.951 . S
C1606 C1607 1.366 . S
C1606 C1608 1.388 . S
C1607 C1606 1.366 . S
C1607 C1611 1.385 . S
C1608 H1589 0.951 . S
C1608 C1606 1.388 . S
C1608 C1609 1.366 . S
C1609 C1608 1.366 . S
C1609 C1610 1.414 . S
C1609 C1612 1.499 . S
C1610 H1590 0.950 . S
C1610 C1609 1.414 . S
C1610 C1611 1.374 . S
C1611 H1591 0.950 . S
C1611 C1607 1.385 . S
C1611 C1610 1.374 . S
C1612 C1609 1.499 . S
C1612 C1613 1.373 . S
C1612 C1614 1.389 . S
C1613 H1592 0.950 . S
C1613 C1612 1.373 . S
C1613 C1629 1.377 . S
C1614 C1612 1.389 . S
C1614 C1615 1.524 . S
C1614 C1628 1.377 . S
C1615 C1614 1.524 . S
C1615 C1616 1.397 . S
C1615 C1620 1.363 . S
C1616 H1593 0.950 . S
C1616 C1615 1.397 . S
C1616 C1617 1.334 . S
C1617 H1594 0.950 . S
C1617 C1616 1.334 . S
C1617 C1618 1.287 . S
C1618 C1617 1.287 . S
C1618 C1619 1.524 . S
C1618 H1637 0.913 . S
C1619 H1595 0.950 . S
C1619 C1618 1.524 . S
C1619 C1620 1.415 . S
C1620 H1596 0.950 . S
C1620 C1615 1.363 . S
C1620 C1619 1.415 . S
C1621 H1597 0.951 . S
C1621 C1622 1.366 . S
C1621 C1623 1.388 . S
C1622 C1621 1.366 . S
C1622 C1626 1.385 . S
C1623 H1598 0.951 . S
C1623 C1621 1.388 . S
C1623 C1624 1.366 . S
C1624 C1623 1.366 . S
C1624 C1625 1.414 . S
C1624 C1627 1.499 . S
C1625 H1599 0.950 . S
C1625 C1624 1.414 . S
C1625 C1626 1.374 . S
C1626 H1600 0.950 . S
C1626 C1622 1.385 . S
C1626 C1625 1.374 . S
C1627 C1624 1.499 . S
C1627 C1628 1.373 . S
C1627 C1629 1.389 . S
C1628 H1601 0.950 . S
C1628 C1614 1.377 . S
C1628 C1627 1.373 . S
C1629 C1613 1.377 . S
C1629 C1627 1.389 . S
C1629 C1630 1.524 . S
C1630 C1629 1.524 . S
C1630 C1631 1.397 . S
C1630 C1635 1.363 . S
C1631 H1602 0.950 . S
C1631 C1630 1.397 . S
C1631 C1632 1.334 . S
C1632 H1603 0.950 . S
C1632 C1631 1.334 . S
C1632 C1633 1.287 . S
C1633 C1632 1.287 . S
C1633 C1634 1.524 . S
C1633 H1636 0.999 . S
C1634 H1604 0.950 . S
C1634 C1633 1.524 . S
C1634 C1635 1.415 . S
C1635 H1605 0.950 . S
C1635 C1630 1.363 . S
C1635 C1634 1.415 . S
H1636 C1633 0.999 . S
H1637 C1618 0.913 . S
H1638 C1656 0.951 . S
H1639 C1658 0.951 . S
H1640 C1660 0.950 . S
H1641 C1661 0.950 . S
H1642 C1663 0.950 . S
H1643 C1666 0.950 . S
H1644 C1667 0.950 . S
H1645 C1669 0.950 . S
H1646 C1670 0.950 . S
H1647 C1671 0.951 . S
H1648 C1673 0.951 . S
H1649 C1675 0.950 . S
H1650 C1676 0.950 . S
H1651 C1678 0.950 . S
H1652 C1681 0.950 . S
H1653 C1682 0.950 . S
H1654 C1684 0.950 . S
H1655 C1685 0.950 . S
C1656 H1638 0.951 . S
C1656 C1657 1.366 . S
C1656 C1658 1.388 . S
C1657 C1656 1.366 . S
C1657 C1661 1.385 . S
C1658 H1639 0.951 . S
C1658 C1656 1.388 . S
C1658 C1659 1.366 . S
C1659 C1658 1.366 . S
C1659 C1660 1.414 . S
C1659 C1662 1.499 . S
C1660 H1640 0.950 . S
C1660 C1659 1.414 . S
C1660 C1661 1.374 . S
C1661 H1641 0.950 . S
C1661 C1657 1.385 . S
C1661 C1660 1.374 . S
C1662 C1659 1.499 . S
C1662 C1663 1.373 . S
C1662 C1664 1.389 . S
C1663 H1642 0.950 . S
C1663 C1662 1.373 . S
C1663 C1679 1.377 . S
C1664 C1662 1.389 . S
C1664 C1665 1.524 . S
C1664 C1678 1.377 . S
C1665 C1664 1.524 . S
C1665 C1666 1.397 . S
C1665 C1670 1.363 . S
C1666 H1643 0.950 . S
C1666 C1665 1.397 . S
C1666 C1667 1.334 . S
C1667 H1644 0.950 . S
C1667 C1666 1.334 . S
C1667 C1668 1.287 . S
C1668 C1667 1.287 . S
C1668 C1669 1.524 . S
C1668 H1687 0.913 . S
C1669 H1645 0.950 . S
C1669 C1668 1.524 . S
C1669 C1670 1.415 . S
C1670 H1646 0.950 . S
C1670 C1665 1.363 . S
C1670 C1669 1.415 . S
C1671 H1647 0.951 . S
C1671 C1672 1.366 . S
C1671 C1673 1.388 . S
C1672 C1671 1.366 . S
C1672 C1676 1.385 . S
C1673 H1648 0.951 . S
C1673 C1671 1.388 . S
C1673 C1674 1.366 . S
C1674 C1673 1.366 . S
C1674 C1675 1.414 . S
C1674 C1677 1.499 . S
C1675 H1649 0.950 . S
C1675 C1674 1.414 . S
C1675 C1676 1.374 . S
C1676 H1650 0.950 . S
C1676 C1672 1.385 . S
C1676 C1675 1.374 . S
C1677 C1674 1.499 . S
C1677 C1678 1.373 . S
C1677 C1679 1.389 . S
C1678 H1651 0.950 . S
C1678 C1664 1.377 . S
C1678 C1677 1.373 . S
C1679 C1663 1.377 . S
C1679 C1677 1.389 . S
C1679 C1680 1.524 . S
C1680 C1679 1.524 . S
C1680 C1681 1.397 . S
C1680 C1685 1.363 . S
C1681 H1652 0.950 . S
C1681 C1680 1.397 . S
C1681 C1682 1.334 . S
C1682 H1653 0.950 . S
C1682 C1681 1.334 . S
C1682 C1683 1.287 . S
C1683 C1682 1.287 . S
C1683 C1684 1.524 . S
C1683 H1686 0.999 . S
C1684 H1654 0.950 . S
C1684 C1683 1.524 . S
C1684 C1685 1.415 . S
C1685 H1655 0.950 . S
C1685 C1680 1.363 . S
C1685 C1684 1.415 . S
H1686 C1683 0.999 . S
H1687 C1668 0.913 . S
H1688 C1706 0.951 . S
H1689 C1708 0.951 . S
H1690 C1710 0.950 . S
H1691 C1711 0.950 . S
H1692 C1713 0.950 . S
H1693 C1716 0.950 . S
H1694 C1717 0.950 . S
H1695 C1719 0.950 . S
H1696 C1720 0.950 . S
H1697 C1721 0.951 . S
H1698 C1723 0.951 . S
H1699 C1725 0.950 . S
H1700 C1726 0.950 . S
H1701 C1728 0.950 . S
H1702 C1731 0.950 . S
H1703 C1732 0.950 . S
H1704 C1734 0.950 . S
H1705 C1735 0.950 . S
C1706 H1688 0.951 . S
C1706 C1707 1.366 . S
C1706 C1708 1.388 . S
C1707 C1706 1.366 . S
C1707 C1711 1.385 . S
C1708 H1689 0.951 . S
C1708 C1706 1.388 . S
C1708 C1709 1.366 . S
C1709 C1708 1.366 . S
C1709 C1710 1.414 . S
C1709 C1712 1.499 . S
C1710 H1690 0.950 . S
C1710 C1709 1.414 . S
C1710 C1711 1.374 . S
C1711 H1691 0.950 . S
C1711 C1707 1.385 . S
C1711 C1710 1.374 . S
C1712 C1709 1.499 . S
C1712 C1713 1.373 . S
C1712 C1714 1.389 . S
C1713 H1692 0.950 . S
C1713 C1712 1.373 . S
C1713 C1729 1.377 . S
C1714 C1712 1.389 . S
C1714 C1715 1.524 . S
C1714 C1728 1.377 . S
C1715 C1714 1.524 . S
C1715 C1716 1.397 . S
C1715 C1720 1.363 . S
C1716 H1693 0.950 . S
C1716 C1715 1.397 . S
C1716 C1717 1.334 . S
C1717 H1694 0.950 . S
C1717 C1716 1.334 . S
C1717 C1718 1.287 . S
C1718 C1717 1.287 . S
C1718 C1719 1.524 . S
C1718 H1737 0.913 . S
C1719 H1695 0.950 . S
C1719 C1718 1.524 . S
C1719 C1720 1.415 . S
C1720 H1696 0.950 . S
C1720 C1715 1.363 . S
C1720 C1719 1.415 . S
C1721 H1697 0.951 . S
C1721 C1722 1.366 . S
C1721 C1723 1.388 . S
C1722 C1721 1.366 . S
C1722 C1726 1.385 . S
C1723 H1698 0.951 . S
C1723 C1721 1.388 . S
C1723 C1724 1.366 . S
C1724 C1723 1.366 . S
C1724 C1725 1.414 . S
C1724 C1727 1.499 . S
C1725 H1699 0.950 . S
C1725 C1724 1.414 . S
C1725 C1726 1.374 . S
C1726 H1700 0.950 . S
C1726 C1722 1.385 . S
C1726 C1725 1.374 . S
C1727 C1724 1.499 . S
C1727 C1728 1.373 . S
C1727 C1729 1.389 . S
C1728 H1701 0.950 . S
C1728 C1714 1.377 . S
C1728 C1727 1.373 . S
C1729 C1713 1.377 . S
C1729 C1727 1.389 . S
C1729 C1730 1.524 . S
C1730 C1729 1.524 . S
C1730 C1731 1.397 . S
C1730 C1735 1.363 . S
C1731 H1702 0.950 . S
C1731 C1730 1.397 . S
C1731 C1732 1.334 . S
C1732 H1703 0.950 . S
C1732 C1731 1.334 . S
C1732 C1733 1.287 . S
C1733 C1732 1.287 . S
C1733 C1734 1.524 . S
C1733 H1736 0.999 . S
C1734 H1704 0.950 . S
C1734 C1733 1.524 . S
C1734 C1735 1.415 . S
C1735 H1705 0.950 . S
C1735 C1730 1.363 . S
C1735 C1734 1.415 . S
H1736 C1733 0.999 . S
H1737 C1718 0.913 . S
H1738 C1756 0.951 . S
H1739 C1758 0.951 . S
H1740 C1760 0.950 . S
H1741 C1761 0.950 . S
H1742 C1763 0.950 . S
H1743 C1766 0.950 . S
H1744 C1767 0.950 . S
H1745 C1769 0.950 . S
H1746 C1770 0.950 . S
H1747 C1771 0.951 . S
H1748 C1773 0.951 . S
H1749 C1775 0.950 . S
H1750 C1776 0.950 . S
H1751 C1778 0.950 . S
H1752 C1781 0.950 . S
H1753 C1782 0.950 . S
H1754 C1784 0.950 . S
H1755 C1785 0.950 . S
C1756 H1738 0.951 . S
C1756 C1757 1.366 . S
C1756 C1758 1.388 . S
C1757 C1756 1.366 . S
C1757 C1761 1.385 . S
C1758 H1739 0.951 . S
C1758 C1756 1.388 . S
C1758 C1759 1.366 . S
C1759 C1758 1.366 . S
C1759 C1760 1.414 . S
C1759 C1762 1.499 . S
C1760 H1740 0.950 . S
C1760 C1759 1.414 . S
C1760 C1761 1.374 . S
C1761 H1741 0.950 . S
C1761 C1757 1.385 . S
C1761 C1760 1.374 . S
C1762 C1759 1.499 . S
C1762 C1763 1.373 . S
C1762 C1764 1.389 . S
C1763 H1742 0.950 . S
C1763 C1762 1.373 . S
C1763 C1779 1.377 . S
C1764 C1762 1.389 . S
C1764 C1765 1.524 . S
C1764 C1778 1.377 . S
C1765 C1764 1.524 . S
C1765 C1766 1.397 . S
C1765 C1770 1.363 . S
C1766 H1743 0.950 . S
C1766 C1765 1.397 . S
C1766 C1767 1.334 . S
C1767 H1744 0.950 . S
C1767 C1766 1.334 . S
C1767 C1768 1.287 . S
C1768 C1767 1.287 . S
C1768 C1769 1.524 . S
C1768 H1787 0.913 . S
C1769 H1745 0.950 . S
C1769 C1768 1.524 . S
C1769 C1770 1.415 . S
C1770 H1746 0.950 . S
C1770 C1765 1.363 . S
C1770 C1769 1.415 . S
C1771 H1747 0.951 . S
C1771 C1772 1.366 . S
C1771 C1773 1.388 . S
C1772 C1771 1.366 . S
C1772 C1776 1.385 . S
C1773 H1748 0.951 . S
C1773 C1771 1.388 . S
C1773 C1774 1.366 . S
C1774 C1773 1.366 . S
C1774 C1775 1.414 . S
C1774 C1777 1.499 . S
C1775 H1749 0.950 . S
C1775 C1774 1.414 . S
C1775 C1776 1.374 . S
C1776 H1750 0.950 . S
C1776 C1772 1.385 . S
C1776 C1775 1.374 . S
C1777 C1774 1.499 . S
C1777 C1778 1.373 . S
C1777 C1779 1.389 . S
C1778 H1751 0.950 . S
C1778 C1764 1.377 . S
C1778 C1777 1.373 . S
C1779 C1763 1.377 . S
C1779 C1777 1.389 . S
C1779 C1780 1.524 . S
C1780 C1779 1.524 . S
C1780 C1781 1.397 . S
C1780 C1785 1.363 . S
C1781 H1752 0.950 . S
C1781 C1780 1.397 . S
C1781 C1782 1.334 . S
C1782 H1753 0.950 . S
C1782 C1781 1.334 . S
C1782 C1783 1.287 . S
C1783 C1782 1.287 . S
C1783 C1784 1.524 . S
C1783 H1786 0.999 . S
C1784 H1754 0.950 . S
C1784 C1783 1.524 . S
C1784 C1785 1.415 . S
C1785 H1755 0.950 . S
C1785 C1780 1.363 . S
C1785 C1784 1.415 . S
H1786 C1783 0.999 . S
H1787 C1768 0.913 . S
H1788 C1806 0.951 . S
H1789 C1808 0.951 . S
H1790 C1810 0.950 . S
H1791 C1811 0.950 . S
H1792 C1813 0.950 . S
H1793 C1816 0.950 . S
H1794 C1817 0.950 . S
H1795 C1819 0.950 . S
H1796 C1820 0.950 . S
H1797 C1821 0.951 . S
H1798 C1823 0.951 . S
H1799 C1825 0.950 . S
H1800 C1826 0.950 . S
H1801 C1828 0.950 . S
H1802 C1831 0.950 . S
H1803 C1832 0.950 . S
H1804 C1834 0.950 . S
H1805 C1835 0.950 . S
C1806 H1788 0.951 . S
C1806 C1807 1.366 . S
C1806 C1808 1.388 . S
C1807 C1806 1.366 . S
C1807 C1811 1.385 . S
C1808 H1789 0.951 . S
C1808 C1806 1.388 . S
C1808 C1809 1.366 . S
C1809 C1808 1.366 . S
C1809 C1810 1.414 . S
C1809 C1812 1.499 . S
C1810 H1790 0.950 . S
C1810 C1809 1.414 . S
C1810 C1811 1.374 . S
C1811 H1791 0.950 . S
C1811 C1807 1.385 . S
C1811 C1810 1.374 . S
C1812 C1809 1.499 . S
C1812 C1813 1.373 . S
C1812 C1814 1.389 . S
C1813 H1792 0.950 . S
C1813 C1812 1.373 . S
C1813 C1829 1.377 . S
C1814 C1812 1.389 . S
C1814 C1815 1.524 . S
C1814 C1828 1.377 . S
C1815 C1814 1.524 . S
C1815 C1816 1.397 . S
C1815 C1820 1.363 . S
C1816 H1793 0.950 . S
C1816 C1815 1.397 . S
C1816 C1817 1.334 . S
C1817 H1794 0.950 . S
C1817 C1816 1.334 . S
C1817 C1818 1.287 . S
C1818 C1817 1.287 . S
C1818 C1819 1.524 . S
C1818 H1837 0.913 . S
C1819 H1795 0.950 . S
C1819 C1818 1.524 . S
C1819 C1820 1.415 . S
C1820 H1796 0.950 . S
C1820 C1815 1.363 . S
C1820 C1819 1.415 . S
C1821 H1797 0.951 . S
C1821 C1822 1.366 . S
C1821 C1823 1.388 . S
C1822 C1821 1.366 . S
C1822 C1826 1.385 . S
C1823 H1798 0.951 . S
C1823 C1821 1.388 . S
C1823 C1824 1.366 . S
C1824 C1823 1.366 . S
C1824 C1825 1.414 . S
C1824 C1827 1.499 . S
C1825 H1799 0.950 . S
C1825 C1824 1.414 . S
C1825 C1826 1.374 . S
C1826 H1800 0.950 . S
C1826 C1822 1.385 . S
C1826 C1825 1.374 . S
C1827 C1824 1.499 . S
C1827 C1828 1.373 . S
C1827 C1829 1.389 . S
C1828 H1801 0.950 . S
C1828 C1814 1.377 . S
C1828 C1827 1.373 . S
C1829 C1813 1.377 . S
C1829 C1827 1.389 . S
C1829 C1830 1.524 . S
C1830 C1829 1.524 . S
C1830 C1831 1.397 . S
C1830 C1835 1.363 . S
C1831 H1802 0.950 . S
C1831 C1830 1.397 . S
C1831 C1832 1.334 . S
C1832 H1803 0.950 . S
C1832 C1831 1.334 . S
C1832 C1833 1.287 . S
C1833 C1832 1.287 . S
C1833 C1834 1.524 . S
C1833 H1836 0.999 . S
C1834 H1804 0.950 . S
C1834 C1833 1.524 . S
C1834 C1835 1.415 . S
C1835 H1805 0.950 . S
C1835 C1830 1.363 . S
C1835 C1834 1.415 . S
H1836 C1833 0.999 . S
H1837 C1818 0.913 . S
H1838 C1856 0.951 . S
H1839 C1858 0.951 . S
H1840 C1860 0.950 . S
H1841 C1861 0.950 . S
H1842 C1863 0.950 . S
H1843 C1866 0.950 . S
H1844 C1867 0.950 . S
H1845 C1869 0.950 . S
H1846 C1870 0.950 . S
H1847 C1871 0.951 . S
H1848 C1873 0.951 . S
H1849 C1875 0.950 . S
H1850 C1876 0.950 . S
H1851 C1878 0.950 . S
H1852 C1881 0.950 . S
H1853 C1882 0.950 . S
H1854 C1884 0.950 . S
H1855 C1885 0.950 . S
C1856 H1838 0.951 . S
C1856 C1857 1.366 . S
C1856 C1858 1.388 . S
C1857 C1856 1.366 . S
C1857 C1861 1.385 . S
C1858 H1839 0.951 . S
C1858 C1856 1.388 . S
C1858 C1859 1.366 . S
C1859 C1858 1.366 . S
C1859 C1860 1.414 . S
C1859 C1862 1.499 . S
C1860 H1840 0.950 . S
C1860 C1859 1.414 . S
C1860 C1861 1.374 . S
C1861 H1841 0.950 . S
C1861 C1857 1.385 . S
C1861 C1860 1.374 . S
C1862 C1859 1.499 . S
C1862 C1863 1.373 . S
C1862 C1864 1.389 . S
C1863 H1842 0.950 . S
C1863 C1862 1.373 . S
C1863 C1879 1.377 . S
C1864 C1862 1.389 . S
C1864 C1865 1.524 . S
C1864 C1878 1.377 . S
C1865 C1864 1.524 . S
C1865 C1866 1.397 . S
C1865 C1870 1.363 . S
C1866 H1843 0.950 . S
C1866 C1865 1.397 . S
C1866 C1867 1.334 . S
C1867 H1844 0.950 . S
C1867 C1866 1.334 . S
C1867 C1868 1.287 . S
C1868 C1867 1.287 . S
C1868 C1869 1.524 . S
C1868 H1887 0.913 . S
C1869 H1845 0.950 . S
C1869 C1868 1.524 . S
C1869 C1870 1.415 . S
C1870 H1846 0.950 . S
C1870 C1865 1.363 . S
C1870 C1869 1.415 . S
C1871 H1847 0.951 . S
C1871 C1872 1.366 . S
C1871 C1873 1.388 . S
C1872 C1871 1.366 . S
C1872 C1876 1.385 . S
C1873 H1848 0.951 . S
C1873 C1871 1.388 . S
C1873 C1874 1.366 . S
C1874 C1873 1.366 . S
C1874 C1875 1.414 . S
C1874 C1877 1.499 . S
C1875 H1849 0.950 . S
C1875 C1874 1.414 . S
C1875 C1876 1.374 . S
C1876 H1850 0.950 . S
C1876 C1872 1.385 . S
C1876 C1875 1.374 . S
C1877 C1874 1.499 . S
C1877 C1878 1.373 . S
C1877 C1879 1.389 . S
C1878 H1851 0.950 . S
C1878 C1864 1.377 . S
C1878 C1877 1.373 . S
C1879 C1863 1.377 . S
C1879 C1877 1.389 . S
C1879 C1880 1.524 . S
C1880 C1879 1.524 . S
C1880 C1881 1.397 . S
C1880 C1885 1.363 . S
C1881 H1852 0.950 . S
C1881 C1880 1.397 . S
C1881 C1882 1.334 . S
C1882 H1853 0.950 . S
C1882 C1881 1.334 . S
C1882 C1883 1.287 . S
C1883 C1882 1.287 . S
C1883 C1884 1.524 . S
C1883 H1886 0.999 . S
C1884 H1854 0.950 . S
C1884 C1883 1.524 . S
C1884 C1885 1.415 . S
C1885 H1855 0.950 . S
C1885 C1880 1.363 . S
C1885 C1884 1.415 . S
H1886 C1883 0.999 . S
H1887 C1868 0.913 . S
H1888 C1906 0.951 . S
H1889 C1908 0.951 . S
H1890 C1910 0.950 . S
H1891 C1911 0.950 . S
H1892 C1913 0.950 . S
H1893 C1916 0.950 . S
H1894 C1917 0.950 . S
H1895 C1919 0.950 . S
H1896 C1920 0.950 . S
H1897 C1921 0.951 . S
H1898 C1923 0.951 . S
H1899 C1925 0.950 . S
H1900 C1926 0.950 . S
H1901 C1928 0.950 . S
H1902 C1931 0.950 . S
H1903 C1932 0.950 . S
H1904 C1934 0.950 . S
H1905 C1935 0.950 . S
C1906 H1888 0.951 . S
C1906 C1907 1.366 . S
C1906 C1908 1.388 . S
C1907 C1906 1.366 . S
C1907 C1911 1.385 . S
C1908 H1889 0.951 . S
C1908 C1906 1.388 . S
C1908 C1909 1.366 . S
C1909 C1908 1.366 . S
C1909 C1910 1.414 . S
C1909 C1912 1.499 . S
C1910 H1890 0.950 . S
C1910 C1909 1.414 . S
C1910 C1911 1.374 . S
C1911 H1891 0.950 . S
C1911 C1907 1.385 . S
C1911 C1910 1.374 . S
C1912 C1909 1.499 . S
C1912 C1913 1.373 . S
C1912 C1914 1.389 . S
C1913 H1892 0.950 . S
C1913 C1912 1.373 . S
C1913 C1929 1.377 . S
C1914 C1912 1.389 . S
C1914 C1915 1.524 . S
C1914 C1928 1.377 . S
C1915 C1914 1.524 . S
C1915 C1916 1.397 . S
C1915 C1920 1.363 . S
C1916 H1893 0.950 . S
C1916 C1915 1.397 . S
C1916 C1917 1.334 . S
C1917 H1894 0.950 . S
C1917 C1916 1.334 . S
C1917 C1918 1.287 . S
C1918 C1917 1.287 . S
C1918 C1919 1.524 . S
C1918 H1937 0.913 . S
C1919 H1895 0.950 . S
C1919 C1918 1.524 . S
C1919 C1920 1.415 . S
C1920 H1896 0.950 . S
C1920 C1915 1.363 . S
C1920 C1919 1.415 . S
C1921 H1897 0.951 . S
C1921 C1922 1.366 . S
C1921 C1923 1.388 . S
C1922 C1921 1.366 . S
C1922 C1926 1.385 . S
C1923 H1898 0.951 . S
C1923 C1921 1.388 . S
C1923 C1924 1.366 . S
C1924 C1923 1.366 . S
C1924 C1925 1.414 . S
C1924 C1927 1.499 . S
C1925 H1899 0.950 . S
C1925 C1924 1.414 . S
C1925 C1926 1.374 . S
C1926 H1900 0.950 . S
C1926 C1922 1.385 . S
C1926 C1925 1.374 . S
C1927 C1924 1.499 . S
C1927 C1928 1.373 . S
C1927 C1929 1.389 . S
C1928 H1901 0.950 . S
C1928 C1914 1.377 . S
C1928 C1927 1.373 . S
C1929 C1913 1.377 . S
C1929 C1927 1.389 . S
C1929 C1930 1.524 . S
C1930 C1929 1.524 . S
C1930 C1931 1.397 . S
C1930 C1935 1.363 . S
C1931 H1902 0.950 . S
C1931 C1930 1.397 . S
C1931 C1932 1.334 . S
C1932 H1903 0.950 . S
C1932 C1931 1.334 . S
C1932 C1933 1.287 . S
C1933 C1932 1.287 . S
C1933 C1934 1.524 . S
C1933 H1936 0.999 . S
C1934 H1904 0.950 . S
C1934 C1933 1.524 . S
C1934 C1935 1.415 . S
C1935 H1905 0.950 . S
C1935 C1930 1.363 . S
C1935 C1934 1.415 . S
H1936 C1933 0.999 . S
H1937 C1918 0.913 . S
H1938 C1956 0.951 . S
H1939 C1958 0.951 . S
H1940 C1960 0.950 . S
H1941 C1961 0.950 . S
H1942 C1963 0.950 . S
H1943 C1966 0.950 . S
H1944 C1967 0.950 . S
H1945 C1969 0.950 . S
H1946 C1970 0.950 . S
H1947 C1971 0.951 . S
H1948 C1973 0.951 . S
H1949 C1975 0.950 . S
H1950 C1976 0.950 . S
H1951 C1978 0.950 . S
H1952 C1981 0.950 . S
H1953 C1982 0.950 . S
H1954 C1984 0.950 . S
H1955 C1985 0.950 . S
C1956 H1938 0.951 . S
C1956 C1957 1.366 . S
C1956 C1958 1.388 . S
C1957 C1956 1.366 . S
C1957 C1961 1.385 . S
C1958 H1939 0.951 . S
C1958 C1956 1.388 . S
C1958 C1959 1.366 . S
C1959 C1958 1.366 . S
C1959 C1960 1.414 . S
C1959 C1962 1.499 . S
C1960 H1940 0.950 . S
C1960 C1959 1.414 . S
C1960 C1961 1.374 . S
C1961 H1941 0.950 . S
C1961 C1957 1.385 . S
C1961 C1960 1.374 . S
C1962 C1959 1.499 . S
C1962 C1963 1.373 . S
C1962 C1964 1.389 . S
C1963 H1942 0.950 . S
C1963 C1962 1.373 . S
C1963 C1979 1.377 . S
C1964 C1962 1.389 . S
C1964 C1965 1.524 . S
C1964 C1978 1.377 . S
C1965 C1964 1.524 . S
C1965 C1966 1.397 . S
C1965 C1970 1.363 . S
C1966 H1943 0.950 . S
C1966 C1965 1.397 . S
C1966 C1967 1.334 . S
C1967 H1944 0.950 . S
C1967 C1966 1.334 . S
C1967 C1968 1.287 . S
C1968 C1967 1.287 . S
C1968 C1969 1.524 . S
C1968 H1987 0.913 . S
C1969 H1945 0.950 . S
C1969 C1968 1.524 . S
C1969 C1970 1.415 . S
C1970 H1946 0.950 . S
C1970 C1965 1.363 . S
C1970 C1969 1.415 . S
C1971 H1947 0.951 . S
C1971 C1972 1.366 . S
C1971 C1973 1.388 . S
C1972 C1971 1.366 . S
C1972 C1976 1.385 . S
C1973 H1948 0.951 . S
C1973 C1971 1.388 . S
C1973 C1974 1.366 . S
C1974 C1973 1.366 . S
C1974 C1975 1.414 . S
C1974 C1977 1.499 . S
C1975 H1949 0.950 . S
C1975 C1974 1.414 . S
C1975 C1976 1.374 . S
C1976 H1950 0.950 . S
C1976 C1972 1.385 . S
C1976 C1975 1.374 . S
C1977 C1974 1.499 . S
C1977 C1978 1.373 . S
C1977 C1979 1.389 . S
C1978 H1951 0.950 . S
C1978 C1964 1.377 . S
C1978 C1977 1.373 . S
C1979 C1963 1.377 . S
C1979 C1977 1.389 . S
C1979 C1980 1.524 . S
C1980 C1979 1.524 . S
C1980 C1981 1.397 . S
C1980 C1985 1.363 . S
C1981 H1952 0.950 . S
C1981 C1980 1.397 . S
C1981 C1982 1.334 . S
C1982 H1953 0.950 . S
C1982 C1981 1.334 . S
C1982 C1983 1.287 . S
C1983 C1982 1.287 . S
C1983 C1984 1.524 . S
C1983 H1986 0.999 . S
C1984 H1954 0.950 . S
C1984 C1983 1.524 . S
C1984 C1985 1.415 . S
C1985 H1955 0.950 . S
C1985 C1980 1.363 . S
C1985 C1984 1.415 . S
H1986 C1983 0.999 . S
H1987 C1968 0.913 . S
H1988 C2006 0.951 . S
H1989 C2008 0.951 . S
H1990 C2010 0.950 . S
H1991 C2011 0.950 . S
H1992 C2013 0.950 . S
H1993 C2016 0.950 . S
H1994 C2017 0.950 . S
H1995 C2019 0.950 . S
H1996 C2020 0.950 . S
H1997 C2021 0.951 . S
H1998 C2023 0.951 . S
H1999 C2025 0.950 . S
H2000 C2026 0.950 . S
H2001 C2028 0.950 . S
H2002 C2031 0.950 . S
H2003 C2032 0.950 . S
H2004 C2034 0.950 . S
H2005 C2035 0.950 . S
C2006 H1988 0.951 . S
C2006 C2007 1.366 . S
C2006 C2008 1.388 . S
C2007 C2006 1.366 . S
C2007 C2011 1.385 . S
C2008 H1989 0.951 . S
C2008 C2006 1.388 . S
C2008 C2009 1.366 . S
C2009 C2008 1.366 . S
C2009 C2010 1.414 . S
C2009 C2012 1.499 . S
C2010 H1990 0.950 . S
C2010 C2009 1.414 . S
C2010 C2011 1.374 . S
C2011 H1991 0.950 . S
C2011 C2007 1.385 . S
C2011 C2010 1.374 . S
C2012 C2009 1.499 . S
C2012 C2013 1.373 . S
C2012 C2014 1.389 . S
C2013 H1992 0.950 . S
C2013 C2012 1.373 . S
C2013 C2029 1.377 . S
C2014 C2012 1.389 . S
C2014 C2015 1.524 . S
C2014 C2028 1.377 . S
C2015 C2014 1.524 . S
C2015 C2016 1.397 . S
C2015 C2020 1.363 . S
C2016 H1993 0.950 . S
C2016 C2015 1.397 . S
C2016 C2017 1.334 . S
C2017 H1994 0.950 . S
C2017 C2016 1.334 . S
C2017 C2018 1.287 . S
C2018 C2017 1.287 . S
C2018 C2019 1.524 . S
C2018 H2037 0.913 . S
C2019 H1995 0.950 . S
C2019 C2018 1.524 . S
C2019 C2020 1.415 . S
C2020 H1996 0.950 . S
C2020 C2015 1.363 . S
C2020 C2019 1.415 . S
C2021 H1997 0.951 . S
C2021 C2022 1.366 . S
C2021 C2023 1.388 . S
C2022 C2021 1.366 . S
C2022 C2026 1.385 . S
C2023 H1998 0.951 . S
C2023 C2021 1.388 . S
C2023 C2024 1.366 . S
C2024 C2023 1.366 . S
C2024 C2025 1.414 . S
C2024 C2027 1.499 . S
C2025 H1999 0.950 . S
C2025 C2024 1.414 . S
C2025 C2026 1.374 . S
C2026 H2000 0.950 . S
C2026 C2022 1.385 . S
C2026 C2025 1.374 . S
C2027 C2024 1.499 . S
C2027 C2028 1.373 . S
C2027 C2029 1.389 . S
C2028 H2001 0.950 . S
C2028 C2014 1.377 . S
C2028 C2027 1.373 . S
C2029 C2013 1.377 . S
C2029 C2027 1.389 . S
C2029 C2030 1.524 . S
C2030 C2029 1.524 . S
C2030 C2031 1.397 . S
C2030 C2035 1.363 . S
C2031 H2002 0.950 . S
C2031 C2030 1.397 . S
C2031 C2032 1.334 . S
C2032 H2003 0.950 . S
C2032 C2031 1.334 . S
C2032 C2033 1.287 . S
C2033 C2032 1.287 . S
C2033 C2034 1.524 . S
C2033 H2036 0.999 . S
C2034 H2004 0.950 . S
C2034 C2033 1.524 . S
C2034 C2035 1.415 . S
C2035 H2005 0.950 . S
C2035 C2030 1.363 . S
C2035 C2034 1.415 . S
H2036 C2033 0.999 . S
H2037 C2018 0.913 . S
H2038 C2056 0.951 . S
H2039 C2058 0.951 . S
H2040 C2060 0.950 . S
H2041 C2061 0.950 . S
H2042 C2063 0.950 . S
H2043 C2066 0.950 . S
H2044 C2067 0.950 . S
H2045 C2069 0.950 . S
H2046 C2070 0.950 . S
H2047 C2071 0.951 . S
H2048 C2073 0.951 . S
H2049 C2075 0.950 . S
H2050 C2076 0.950 . S
H2051 C2078 0.950 . S
H2052 C2081 0.950 . S
H2053 C2082 0.950 . S
H2054 C2084 0.950 . S
H2055 C2085 0.950 . S
C2056 H2038 0.951 . S
C2056 C2057 1.366 . S
C2056 C2058 1.388 . S
C2057 C2056 1.366 . S
C2057 C2061 1.385 . S
C2058 H2039 0.951 . S
C2058 C2056 1.388 . S
C2058 C2059 1.366 . S
C2059 C2058 1.366 . S
C2059 C2060 1.414 . S
C2059 C2062 1.499 . S
C2060 H2040 0.950 . S
C2060 C2059 1.414 . S
C2060 C2061 1.374 . S
C2061 H2041 0.950 . S
C2061 C2057 1.385 . S
C2061 C2060 1.374 . S
C2062 C2059 1.499 . S
C2062 C2063 1.373 . S
C2062 C2064 1.389 . S
C2063 H2042 0.950 . S
C2063 C2062 1.373 . S
C2063 C2079 1.377 . S
C2064 C2062 1.389 . S
C2064 C2065 1.524 . S
C2064 C2078 1.377 . S
C2065 C2064 1.524 . S
C2065 C2066 1.397 . S
C2065 C2070 1.363 . S
C2066 H2043 0.950 . S
C2066 C2065 1.397 . S
C2066 C2067 1.334 . S
C2067 H2044 0.950 . S
C2067 C2066 1.334 . S
C2067 C2068 1.287 . S
C2068 C2067 1.287 . S
C2068 C2069 1.524 . S
C2068 H2087 0.913 . S
C2069 H2045 0.950 . S
C2069 C2068 1.524 . S
C2069 C2070 1.415 . S
C2070 H2046 0.950 . S
C2070 C2065 1.363 . S
C2070 C2069 1.415 . S
C2071 H2047 0.951 . S
C2071 C2072 1.366 . S
C2071 C2073 1.388 . S
C2072 C2071 1.366 . S
C2072 C2076 1.385 . S
C2073 H2048 0.951 . S
C2073 C2071 1.388 . S
C2073 C2074 1.366 . S
C2074 C2073 1.366 . S
C2074 C2075 1.414 . S
C2074 C2077 1.499 . S
C2075 H2049 0.950 . S
C2075 C2074 1.414 . S
C2075 C2076 1.374 . S
C2076 H2050 0.950 . S
C2076 C2072 1.385 . S
C2076 C2075 1.374 . S
C2077 C2074 1.499 . S
C2077 C2078 1.373 . S
C2077 C2079 1.389 . S
C2078 H2051 0.950 . S
C2078 C2064 1.377 . S
C2078 C2077 1.373 . S
C2079 C2063 1.377 . S
C2079 C2077 1.389 . S
C2079 C2080 1.524 . S
C2080 C2079 1.524 . S
C2080 C2081 1.397 . S
C2080 C2085 1.363 . S
C2081 H2052 0.950 . S
C2081 C2080 1.397 . S
C2081 C2082 1.334 . S
C2082 H2053 0.950 . S
C2082 C2081 1.334 . S
C2082 C2083 1.287 . S
C2083 C2082 1.287 . S
C2083 C2084 1.524 . S
C2083 H2086 0.999 . S
C2084 H2054 0.950 . S
C2084 C2083 1.524 . S
C2084 C2085 1.415 . S
C2085 H2055 0.950 . S
C2085 C2080 1.363 . S
C2085 C2084 1.415 . S
H2086 C2083 0.999 . S
H2087 C2068 0.913 . S
C522 C400 1.285 . S
C507 C36 1.276 . S
C572 C414 1.279 . S
C557 C93 1.278 . S
C622 C427 1.285 . S
C607 C126 1.275 . S
C657 C165 1.275 . S
C672 C394 1.287 . S
C707 C222 1.285 . S
C722 C387 1.296 . S
C757 C261 1.276 . S
C772 C407 1.290 . S
C822 C415 1.286 . S
C807 C318 1.276 . S
C872 C428 1.290 . S
C857 C381 1.289 . S
C907 C132 1.277 . S
C922 C454 1.284 . S
C972 C472 1.279 . S
C957 C189 1.278 . S
C1007 C30 1.274 . S
C1022 C479 1.284 . S
C1072 C446 1.287 . S
C1057 C69 1.275 . S
C1107 C324 1.287 . S
C1122 C439 1.296 . S
C1157 C357 1.277 . S
C1172 C453 1.289 . S
C1222 C465 1.285 . S
C1207 C228 1.277 . S
C1257 C285 1.289 . S
C1272 C480 1.290 . S
C1322 C413 1.803 . S
C1307 C45 1.809 . S
C1372 C426 1.808 . S
C1357 C84 1.823 . S
C1407 C117 1.808 . S
C1422 C389 1.799 . S
C1457 C174 1.781 . S
C1472 C401 1.789 . S
C1507 C213 1.797 . S
C1522 C433 1.783 . S
C1572 C388 1.785 . S
C1557 C270 1.777 . S
C1622 C402 1.800 . S
C1607 C309 1.808 . S
C1672 C420 1.790 . S
C1657 C372 1.811 . S
C1722 C467 1.803 . S
C1707 C141 1.809 . S
C1772 C478 1.807 . S
C1757 C180 1.822 . S
C1807 C21 1.808 . S
C1822 C441 1.800 . S
C1872 C459 1.789 . S
C1857 C78 1.780 . S
C1922 C485 1.782 . S
C1907 C333 1.794 . S
C1957 C366 1.776 . S
C1972 C440 1.785 . S
C2022 C452 1.799 . S
C2007 C237 1.805 . S
C2072 C466 1.789 . S
C2057 C276 1.811 . S
