# Generated by pormake.
# Topology ctn, (3,4)-cn, num edge types: 1
# Building blocks:
#     Node 0, Type 0, BuildingBlock: BETDIP_clean_linker_0, # of connection points: 3
#     Node 1, Type 0, BuildingBlock: BETDIP_clean_linker_0, # of connection points: 3
#     Node 2, Type 0, BuildingBlock: BETDIP_clean_linker_0, # of connection points: 3
#     Node 3, Type 0, BuildingBlock: BETDIP_clean_linker_0, # of connection points: 3
#     Node 4, Type 0, BuildingBlock: BETDIP_clean_linker_0, # of connection points: 3
#     Node 5, Type 0, BuildingBlock: BETDIP_clean_linker_0, # of connection points: 3
#     Node 6, Type 0, BuildingBlock: BETDIP_clean_linker_0, # of connection points: 3
#     Node 7, Type 0, BuildingBlock: BETDIP_clean_linker_0, # of connection points: 3
#     Node 8, Type 0, BuildingBlock: BETDIP_clean_linker_0, # of connection points: 3
#     Node 9, Type 0, BuildingBlock: BETDIP_clean_linker_0, # of connection points: 3
#     Node 10, Type 0, BuildingBlock: BETDIP_clean_linker_0, # of connection points: 3
#     Node 11, Type 0, BuildingBlock: BETDIP_clean_linker_0, # of connection points: 3
#     Node 12, Type 0, BuildingBlock: BETDIP_clean_linker_0, # of connection points: 3
#     Node 13, Type 0, BuildingBlock: BETDIP_clean_linker_0, # of connection points: 3
#     Node 14, Type 0, BuildingBlock: BETDIP_clean_linker_0, # of connection points: 3
#     Node 15, Type 0, BuildingBlock: BETDIP_clean_linker_0, # of connection points: 3
#     Node 16, Type 1, BuildingBlock: AZAVOO_clean_sbu_0, # of connection points: 4
#     Node 17, Type 1, BuildingBlock: AZAVOO_clean_sbu_0, # of connection points: 4
#     Node 18, Type 1, BuildingBlock: AZAVOO_clean_sbu_0, # of connection points: 4
#     Node 19, Type 1, BuildingBlock: AZAVOO_clean_sbu_0, # of connection points: 4
#     Node 20, Type 1, BuildingBlock: AZAVOO_clean_sbu_0, # of connection points: 4
#     Node 21, Type 1, BuildingBlock: AZAVOO_clean_sbu_0, # of connection points: 4
#     Node 22, Type 1, BuildingBlock: AZAVOO_clean_sbu_0, # of connection points: 4
#     Node 23, Type 1, BuildingBlock: AZAVOO_clean_sbu_0, # of connection points: 4
#     Node 24, Type 1, BuildingBlock: AZAVOO_clean_sbu_0, # of connection points: 4
#     Node 25, Type 1, BuildingBlock: AZAVOO_clean_sbu_0, # of connection points: 4
#     Node 26, Type 1, BuildingBlock: AZAVOO_clean_sbu_0, # of connection points: 4
#     Node 27, Type 1, BuildingBlock: AZAVOO_clean_sbu_0, # of connection points: 4
#     Edge 28, Type (0, 1), BuildingBlock: UVAHIK_clean_linker_0, # of connection points: 2
#     Edge 29, Type (0, 1), BuildingBlock: UVAHIK_clean_linker_0, # of connection points: 2
#     Edge 30, Type (0, 1), BuildingBlock: UVAHIK_clean_linker_0, # of connection points: 2
#     Edge 31, Type (0, 1), BuildingBlock: UVAHIK_clean_linker_0, # of connection points: 2
#     Edge 32, Type (0, 1), BuildingBlock: UVAHIK_clean_linker_0, # of connection points: 2
#     Edge 33, Type (0, 1), BuildingBlock: UVAHIK_clean_linker_0, # of connection points: 2
#     Edge 34, Type (0, 1), BuildingBlock: UVAHIK_clean_linker_0, # of connection points: 2
#     Edge 35, Type (0, 1), BuildingBlock: UVAHIK_clean_linker_0, # of connection points: 2
#     Edge 36, Type (0, 1), BuildingBlock: UVAHIK_clean_linker_0, # of connection points: 2
#     Edge 37, Type (0, 1), BuildingBlock: UVAHIK_clean_linker_0, # of connection points: 2
#     Edge 38, Type (0, 1), BuildingBlock: UVAHIK_clean_linker_0, # of connection points: 2
#     Edge 39, Type (0, 1), BuildingBlock: UVAHIK_clean_linker_0, # of connection points: 2
#     Edge 40, Type (0, 1), BuildingBlock: UVAHIK_clean_linker_0, # of connection points: 2
#     Edge 41, Type (0, 1), BuildingBlock: UVAHIK_clean_linker_0, # of connection points: 2
#     Edge 42, Type (0, 1), BuildingBlock: UVAHIK_clean_linker_0, # of connection points: 2
#     Edge 43, Type (0, 1), BuildingBlock: UVAHIK_clean_linker_0, # of connection points: 2
#     Edge 44, Type (0, 1), BuildingBlock: UVAHIK_clean_linker_0, # of connection points: 2
#     Edge 45, Type (0, 1), BuildingBlock: UVAHIK_clean_linker_0, # of connection points: 2
#     Edge 46, Type (0, 1), BuildingBlock: UVAHIK_clean_linker_0, # of connection points: 2
#     Edge 47, Type (0, 1), BuildingBlock: UVAHIK_clean_linker_0, # of connection points: 2
#     Edge 48, Type (0, 1), BuildingBlock: UVAHIK_clean_linker_0, # of connection points: 2
#     Edge 49, Type (0, 1), BuildingBlock: UVAHIK_clean_linker_0, # of connection points: 2
#     Edge 50, Type (0, 1), BuildingBlock: UVAHIK_clean_linker_0, # of connection points: 2
#     Edge 51, Type (0, 1), BuildingBlock: UVAHIK_clean_linker_0, # of connection points: 2
#     Edge 52, Type (0, 1), BuildingBlock: UVAHIK_clean_linker_0, # of connection points: 2
#     Edge 53, Type (0, 1), BuildingBlock: UVAHIK_clean_linker_0, # of connection points: 2
#     Edge 54, Type (0, 1), BuildingBlock: UVAHIK_clean_linker_0, # of connection points: 2
#     Edge 55, Type (0, 1), BuildingBlock: UVAHIK_clean_linker_0, # of connection points: 2
#     Edge 56, Type (0, 1), BuildingBlock: UVAHIK_clean_linker_0, # of connection points: 2
#     Edge 57, Type (0, 1), BuildingBlock: UVAHIK_clean_linker_0, # of connection points: 2
#     Edge 58, Type (0, 1), BuildingBlock: UVAHIK_clean_linker_0, # of connection points: 2
#     Edge 59, Type (0, 1), BuildingBlock: UVAHIK_clean_linker_0, # of connection points: 2
#     Edge 60, Type (0, 1), BuildingBlock: UVAHIK_clean_linker_0, # of connection points: 2
#     Edge 61, Type (0, 1), BuildingBlock: UVAHIK_clean_linker_0, # of connection points: 2
#     Edge 62, Type (0, 1), BuildingBlock: UVAHIK_clean_linker_0, # of connection points: 2
#     Edge 63, Type (0, 1), BuildingBlock: UVAHIK_clean_linker_0, # of connection points: 2
#     Edge 64, Type (0, 1), BuildingBlock: UVAHIK_clean_linker_0, # of connection points: 2
#     Edge 65, Type (0, 1), BuildingBlock: UVAHIK_clean_linker_0, # of connection points: 2
#     Edge 66, Type (0, 1), BuildingBlock: UVAHIK_clean_linker_0, # of connection points: 2
#     Edge 67, Type (0, 1), BuildingBlock: UVAHIK_clean_linker_0, # of connection points: 2
#     Edge 68, Type (0, 1), BuildingBlock: UVAHIK_clean_linker_0, # of connection points: 2
#     Edge 69, Type (0, 1), BuildingBlock: UVAHIK_clean_linker_0, # of connection points: 2
#     Edge 70, Type (0, 1), BuildingBlock: UVAHIK_clean_linker_0, # of connection points: 2
#     Edge 71, Type (0, 1), BuildingBlock: UVAHIK_clean_linker_0, # of connection points: 2
#     Edge 72, Type (0, 1), BuildingBlock: UVAHIK_clean_linker_0, # of connection points: 2
#     Edge 73, Type (0, 1), BuildingBlock: UVAHIK_clean_linker_0, # of connection points: 2
#     Edge 74, Type (0, 1), BuildingBlock: UVAHIK_clean_linker_0, # of connection points: 2
#     Edge 75, Type (0, 1), BuildingBlock: UVAHIK_clean_linker_0, # of connection points: 2
# Relax obj value: 0.064
# Max RMSD: 0.202
# Mean RMSD: 0.115
data_MOF--net-ctn--node1-AZAVOO_clean_sbu_0--node2-BETDIP_clean_linker_0--edge1-UVAHIK_clean_linker_0
_symmetry_space_group_name_H-M    P1
_symmetry_Int_Tables_number       1
_symmetry_cell_setting            triclinic
loop_
_symmetry_equiv_pos_as_xyz
'x, y, z'
_cell_length_a     67.160039
_cell_length_b     68.602869
_cell_length_c     74.857573
_cell_angle_alpha  93.476783
_cell_angle_beta   96.355936
_cell_angle_gamma 95.87873
loop_
_atom_site_label
_atom_site_type_symbol
_atom_site_fract_x
_atom_site_fract_y
_atom_site_fract_z
_atom_type_partial_charge
H0 H 0.00864 0.03171 0.03078 0.0
H1 H 0.051 0.00988 0.99788 0.0
H2 H 0.0475 0.9894 0.05055 0.0
H3 H 0.0331 0.02283 0.97571 0.0
C4 C 0.02769 0.03559 0.98206 0.0
C5 C 0.02043 0.02233 0.02909 0.0
C6 C 0.02696 0.01066 0.04296 0.0
C7 C 0.02893 0.02221 0.01286 0.0
C8 C 0.04407 0.01001 0.01025 0.0
C9 C 0.05051 0.99784 0.02367 0.0
C10 C 0.04194 0.99827 0.03999 0.0
N11 N 0.02268 0.03546 1e-05 0.0
H12 H 0.29095 0.70553 0.2088 0.0
H13 H 0.34411 0.7437 0.23014 0.0
H14 H 0.32236 0.69625 0.26037 0.0
H15 H 0.32642 0.76611 0.21396 0.0
C16 C 0.32037 0.75719 0.2017 0.0
C17 C 0.30319 0.70973 0.21948 0.0
C18 C 0.3049 0.699 0.23483 0.0
C19 C 0.31677 0.72624 0.21798 0.0
C20 C 0.33296 0.73148 0.23154 0.0
C21 C 0.33503 0.72067 0.24685 0.0
C22 C 0.32069 0.70473 0.24863 0.0
N23 N 0.31395 0.73691 0.20242 0.0
H24 H 0.95798 0.50315 0.02103 0.0
H25 H 0.00937 0.48535 0.05264 0.0
H26 H 0.97245 0.52445 0.07691 0.0
H27 H 0.01979 0.48209 0.02345 0.0
C28 C 0.00586 0.47403 0.01689 0.0
C29 C 0.96737 0.50371 0.03382 0.0
C30 C 0.96312 0.51545 0.04872 0.0
C31 C 0.98405 0.49302 0.03503 0.0
C32 C 0.99668 0.49392 0.05138 0.0
C33 C 0.99247 0.50519 0.06649 0.0
C34 C 0.97566 0.51585 0.06516 0.0
N35 N 0.98706 0.48061 0.01989 0.0
H36 H 0.70776 0.81181 0.19939 0.0
H37 H 0.73085 0.86248 0.23538 0.0
H38 H 0.76686 0.84084 0.1962 0.0
H39 H 0.70038 0.86124 0.24354 0.0
C40 C 0.69283 0.84651 0.24024 0.0
C41 C 0.71959 0.82357 0.20401 0.0
C42 C 0.7377 0.82474 0.19628 0.0
C43 C 0.71684 0.83704 0.21813 0.0
C44 C 0.73239 0.85216 0.22427 0.0
C45 C 0.75052 0.85364 0.21641 0.0
C46 C 0.75304 0.83976 0.2025 0.0
N47 N 0.69878 0.83406 0.22637 0.0
H48 H 0.03489 0.98964 0.46633 0.0
H49 H 0.0848 0.01234 0.50577 0.0
H50 H 0.07369 0.0408 0.45666 0.0
H51 H 0.08452 0.97961 0.51012 0.0
C52 C 0.06858 0.97457 0.50955 0.0
C53 C 0.04761 0.00055 0.47075 0.0
C54 C 0.0529 0.01547 0.45957 0.0
C55 C 0.0594 0.99889 0.48716 0.0
C56 C 0.07604 0.01299 0.49283 0.0
C57 C 0.0811 0.02833 0.482 0.0
C58 C 0.06956 0.02932 0.46533 0.0
N59 N 0.05436 0.98277 0.49751 0.0
H60 H 0.20507 0.72775 0.78407 0.0
H61 H 0.23313 0.68944 0.74944 0.0
H62 H 0.26152 0.70699 0.80296 0.0
H63 H 0.21415 0.70118 0.72744 0.0
C64 C 0.20094 0.70597 0.73276 0.0
C65 C 0.21752 0.71938 0.78186 0.0
C66 C 0.23324 0.71862 0.79575 0.0
C67 C 0.21754 0.7094 0.765 0.0
C68 C 0.23327 0.69792 0.76211 0.0
C69 C 0.24904 0.69678 0.77588 0.0
C70 C 0.24898 0.70729 0.79257 0.0
N71 N 0.20129 0.71109 0.75149 0.0
H72 H 0.99011 0.53855 0.45896 0.0
H73 H 0.95118 0.48517 0.44359 0.0
H74 H 0.94081 0.52253 0.48905 0.0
H75 H 0.97035 0.48015 0.42243 0.0
C76 C 0.98222 0.49212 0.42255 0.0
C77 C 0.97722 0.52851 0.46118 0.0
C78 C 0.96583 0.53283 0.47524 0.0
C79 C 0.97228 0.51135 0.44981 0.0
C80 C 0.95556 0.49819 0.45255 0.0
C81 C 0.94407 0.50204 0.46677 0.0
C82 C 0.94949 0.51936 0.47808 0.0
N83 N 0.98447 0.50827 0.43573 0.0
H84 H 0.79436 0.79987 0.76039 0.0
H85 H 0.8238 0.76403 0.79789 0.0
H86 H 0.76564 0.78163 0.80604 0.0
H87 H 0.84903 0.76686 0.78142 0.0
C88 C 0.84495 0.77392 0.76917 0.0
C89 C 0.79416 0.79177 0.77236 0.0
C90 C 0.77801 0.79223 0.78271 0.0
C91 C 0.81059 0.78152 0.7775 0.0
C92 C 0.81102 0.77161 0.79347 0.0
C93 C 0.79497 0.77188 0.8041 0.0
C94 C 0.77839 0.7819 0.79834 0.0
N95 N 0.82628 0.78195 0.76617 0.0
H96 H 0.29898 0.3011 0.26128 0.0
H97 H 0.32486 0.25936 0.29481 0.0
H98 H 0.27115 0.2836 0.30766 0.0
H99 H 0.3517 0.26513 0.28008 0.0
C100 C 0.34728 0.27156 0.26756 0.0
C101 C 0.29843 0.29236 0.27284 0.0
C102 C 0.28295 0.29366 0.28386 0.0
C103 C 0.31373 0.28035 0.27674 0.0
C104 C 0.31348 0.26914 0.29188 0.0
C105 C 0.29806 0.27017 0.30313 0.0
C106 C 0.28295 0.28254 0.299 0.0
N107 N 0.3288 0.27997 0.26483 0.0
H108 H 0.45472 0.00092 0.52096 0.0
H109 H 0.50625 0.98467 0.55361 0.0
H110 H 0.46875 0.02442 0.57623 0.0
H111 H 0.51749 0.98271 0.52433 0.0
C112 C 0.50404 0.97388 0.51769 0.0
C113 C 0.46425 0.00217 0.53373 0.0
C114 C 0.45976 0.01428 0.54825 0.0
C115 C 0.48108 0.99169 0.53544 0.0
C116 C 0.49341 0.99303 0.55198 0.0
C117 C 0.4888 0.00459 0.56675 0.0
C118 C 0.47195 0.01513 0.5649 0.0
N119 N 0.4847 0.97921 0.52059 0.0
H120 H 0.20817 0.31565 0.70023 0.0
H121 H 0.22912 0.37049 0.73089 0.0
H122 H 0.25652 0.35396 0.68393 0.0
H123 H 0.20441 0.3638 0.74677 0.0
C124 C 0.19723 0.34894 0.74354 0.0
C125 C 0.21818 0.32924 0.70223 0.0
C126 C 0.23234 0.33336 0.69016 0.0
C127 C 0.21664 0.34251 0.71686 0.0
C128 C 0.22978 0.36011 0.71959 0.0
C129 C 0.24406 0.36445 0.7076 0.0
C130 C 0.24511 0.35103 0.69289 0.0
N131 N 0.20196 0.33726 0.72856 0.0
H132 H 0.7952 0.19876 0.7045 0.0
H133 H 0.84914 0.23622 0.72498 0.0
H134 H 0.82583 0.19095 0.75679 0.0
H135 H 0.83202 0.25843 0.70822 0.0
C136 C 0.82582 0.24932 0.6961 0.0
C137 C 0.80747 0.20303 0.71514 0.0
C138 C 0.80872 0.19298 0.73093 0.0
C139 C 0.82151 0.21903 0.71315 0.0
C140 C 0.83769 0.2244 0.7267 0.0
C141 C 0.83929 0.21429 0.74247 0.0
C142 C 0.82452 0.19889 0.74469 0.0
N143 N 0.81907 0.22918 0.69724 0.0
H144 H 0.50988 0.52931 0.52899 0.0
H145 H 0.5542 0.51032 0.49684 0.0
H146 H 0.55559 0.49528 0.55178 0.0
H147 H 0.53646 0.5226 0.47424 0.0
C148 C 0.5293 0.53432 0.48045 0.0
C149 C 0.52294 0.52147 0.5278 0.0
C150 C 0.53154 0.51219 0.54256 0.0
C151 C 0.53111 0.52117 0.51143 0.0
C152 C 0.54782 0.51081 0.50946 0.0
C153 C 0.55652 0.50105 0.52386 0.0
C154 C 0.54836 0.50197 0.5404 0.0
N155 N 0.52304 0.5328 0.49789 0.0
H156 H 0.53431 0.48442 0.96294 0.0
H157 H 0.58615 0.5067 0.00039 0.0
H158 H 0.57023 0.53762 0.9537 0.0
H159 H 0.57518 0.48503 0.01802 0.0
C160 C 0.56404 0.47406 0.01065 0.0
C161 C 0.54701 0.49544 0.96704 0.0
C162 C 0.55065 0.51135 0.95646 0.0
C163 C 0.55943 0.49368 0.98306 0.0
C164 C 0.57609 0.50788 0.98831 0.0
C165 C 0.57994 0.52391 0.97787 0.0
C166 C 0.56705 0.52558 0.96206 0.0
N167 N 0.55475 0.47725 0.9932 0.0
H168 H 0.70627 0.22915 0.28215 0.0
H169 H 0.73282 0.18723 0.24992 0.0
H170 H 0.75901 0.204 0.3043 0.0
H171 H 0.71506 0.19895 0.22698 0.0
C172 C 0.70198 0.20453 0.23189 0.0
C173 C 0.71773 0.21927 0.2809 0.0
C174 C 0.73256 0.2179 0.29541 0.0
C175 C 0.71776 0.20853 0.26442 0.0
C176 C 0.73282 0.19602 0.2624 0.0
C177 C 0.74782 0.19439 0.27675 0.0
C178 C 0.74748 0.20526 0.29323 0.0
N179 N 0.7022 0.21064 0.2504 0.0
H180 H 0.48962 0.03528 0.95711 0.0
H181 H 0.44901 0.98342 0.93992 0.0
H182 H 0.4387 0.02053 0.98566 0.0
H183 H 0.46257 0.98576 0.91392 0.0
C184 C 0.47799 0.99238 0.91752 0.0
C185 C 0.47615 0.02573 0.95875 0.0
C186 C 0.46458 0.03015 0.97266 0.0
C187 C 0.47063 0.00906 0.94684 0.0
C188 C 0.45334 0.99638 0.949 0.0
C189 C 0.44164 0.00036 0.96304 0.0
C190 C 0.4475 0.01728 0.97479 0.0
N191 N 0.48323 0.00538 0.93324 0.0
Mg192 Mg 0.23382 0.84406 0.00575 0.0
O193 O 0.26313 0.86357 0.00281 0.0
O194 O 0.28848 0.84503 0.00796 0.0
Mg195 Mg 0.27564 0.81391 0.01282 0.0
C196 C 0.2819 0.86132 0.00428 0.0
C197 C 0.19577 0.86224 0.99783 0.0
O198 O 0.19099 0.84488 0.00368 0.0
O199 O 0.23494 0.82941 0.9776 0.0
O200 O 0.25969 0.8105 0.98387 0.0
O201 O 0.23775 0.851 0.03571 0.0
O202 O 0.24954 0.826 0.02204 0.0
C203 C 0.2461 0.81646 0.97282 0.0
C204 C 0.24798 0.83604 0.03677 0.0
O205 O 0.21405 0.8671 0.99556 0.0
Mg206 Mg 0.15384 0.495 0.26527 0.0
O207 O 0.13324 0.49338 0.23821 0.0
O208 O 0.15367 0.49243 0.21653 0.0
Mg209 Mg 0.18643 0.49552 0.22912 0.0
C210 C 0.13611 0.4922 0.22159 0.0
C211 C 0.12785 0.49758 0.29541 0.0
O212 O 0.14346 0.51082 0.29989 0.0
O213 O 0.15984 0.46292 0.26083 0.0
O214 O 0.18099 0.46496 0.23976 0.0
O215 O 0.15674 0.5277 0.26662 0.0
O216 O 0.17731 0.50978 0.25359 0.0
C217 C 0.17129 0.4551 0.25059 0.0
C218 C 0.17199 0.52689 0.25754 0.0
O219 O 0.12701 0.48705 0.28071 0.0
Mg220 Mg 0.79789 0.68857 0.01876 0.0
O221 O 0.76654 0.67063 0.01521 0.0
O222 O 0.74374 0.69221 0.01323 0.0
Mg223 Mg 0.75991 0.72335 0.01587 0.0
C224 C 0.74825 0.67457 0.01331 0.0
C225 C 0.81091 0.64747 0.02452 0.0
O226 O 0.79854 0.64953 0.03676 0.0
O227 O 0.79414 0.69457 0.98883 0.0
O228 O 0.77226 0.71699 0.98897 0.0
O229 O 0.79817 0.69092 0.04866 0.0
O230 O 0.78584 0.71235 0.03089 0.0
C231 C 0.78372 0.7067 0.98075 0.0
C232 C 0.78886 0.7064 0.04687 0.0
O233 O 0.81324 0.66086 0.01367 0.0
Mg234 Mg 0.93982 0.04853 0.24447 0.0
O235 O 0.91828 0.02002 0.2411 0.0
O236 O 0.93672 0.99517 0.23685 0.0
Mg237 Mg 0.96956 0.00769 0.23622 0.0
C238 C 0.91984 0.00167 0.23863 0.0
C239 C 0.91125 0.08032 0.24664 0.0
O240 O 0.92154 0.08505 0.2333 0.0
O241 O 0.9517 0.04084 0.27274 0.0
O242 O 0.97159 0.01776 0.26632 0.0
O243 O 0.93569 0.0517 0.21481 0.0
O244 O 0.95915 0.03557 0.22824 0.0
C245 C 0.96442 0.029 0.27766 0.0
C246 C 0.95027 0.04095 0.21349 0.0
O247 O 0.91534 0.06539 0.25506 0.0
Mg248 Mg 0.29959 0.19194 0.51982 0.0
O249 O 0.26802 0.17444 0.51614 0.0
O250 O 0.24534 0.19608 0.51344 0.0
Mg251 Mg 0.26196 0.22688 0.51447 0.0
C252 C 0.24977 0.17846 0.51411 0.0
C253 C 0.31171 0.15063 0.52723 0.0
O254 O 0.29967 0.15345 0.53961 0.0
O255 O 0.29699 0.19673 0.48968 0.0
O256 O 0.27396 0.21815 0.48782 0.0
O257 O 0.29829 0.19553 0.54947 0.0
O258 O 0.28776 0.21657 0.53032 0.0
C259 C 0.28597 0.20762 0.48058 0.0
C260 C 0.28954 0.21117 0.54655 0.0
O261 O 0.31427 0.16363 0.51603 0.0
Mg262 Mg 0.44194 0.55203 0.74281 0.0
O263 O 0.4185 0.52487 0.73704 0.0
O264 O 0.43492 0.49876 0.73183 0.0
Mg265 Mg 0.46865 0.50896 0.73462 0.0
C266 C 0.4186 0.50647 0.73324 0.0
C267 C 0.41322 0.58425 0.7436 0.0
O268 O 0.42304 0.58832 0.72981 0.0
O269 O 0.45102 0.54249 0.77098 0.0
O270 O 0.46793 0.51693 0.76491 0.0
O271 O 0.44038 0.55649 0.71349 0.0
O272 O 0.46168 0.53839 0.72743 0.0
C273 C 0.46126 0.52872 0.77613 0.0
C274 C 0.45425 0.54482 0.71257 0.0
O275 O 0.41772 0.56986 0.75262 0.0
Mg276 Mg 0.73567 0.34422 0.50474 0.0
O277 O 0.76567 0.36317 0.50293 0.0
O278 O 0.79057 0.3439 0.50651 0.0
Mg279 Mg 0.77648 0.31246 0.50813 0.0
C280 C 0.78436 0.36064 0.50418 0.0
C281 C 0.72074 0.3851 0.50719 0.0
O282 O 0.73544 0.38657 0.52049 0.0
O283 O 0.73588 0.33219 0.47563 0.0
O284 O 0.76111 0.31327 0.47919 0.0
O285 O 0.74029 0.34821 0.53486 0.0
O286 O 0.75076 0.32392 0.51898 0.0
C287 C 0.74735 0.32043 0.46923 0.0
C288 C 0.74995 0.33284 0.53444 0.0
O289 O 0.71761 0.36947 0.49678 0.0
Mg290 Mg 0.65228 0.99329 0.76374 0.0
O291 O 0.63163 0.99274 0.73681 0.0
O292 O 0.65194 0.99177 0.71504 0.0
Mg293 Mg 0.68468 0.99377 0.72746 0.0
C294 C 0.63443 0.99184 0.72017 0.0
C295 C 0.62869 0.99048 0.79585 0.0
O296 O 0.64659 0.99918 0.80239 0.0
O297 O 0.6573 0.96106 0.75845 0.0
O298 O 0.67839 0.96296 0.73733 0.0
O299 O 0.65618 0.02605 0.76591 0.0
O300 O 0.67597 0.00777 0.75222 0.0
C301 C 0.66841 0.95309 0.74797 0.0
C302 C 0.67124 0.02501 0.75661 0.0
O303 O 0.62544 0.98529 0.7791 0.0
Mg304 Mg 0.05004 0.25914 0.90182 0.0
O305 O 0.01985 0.25232 0.88363 0.0
O306 O 0.99685 0.2396 0.9004 0.0
Mg307 Mg 0.01153 0.24058 0.92945 0.0
C308 C 0.002 0.24482 0.88534 0.0
C309 C 0.06442 0.26678 0.86451 0.0
O310 O 0.05626 0.24847 0.86151 0.0
O311 O 0.03918 0.28686 0.91379 0.0
O312 O 0.0159 0.27446 0.93042 0.0
O313 O 0.05673 0.2282 0.8968 0.0
O314 O 0.0407 0.23838 0.91923 0.0
C315 C 0.02588 0.28908 0.92447 0.0
C316 C 0.04703 0.22406 0.91034 0.0
O317 O 0.06379 0.27568 0.87981 0.0
Mg318 Mg 0.54973 0.75979 0.40151 0.0
O319 O 0.51892 0.75329 0.38432 0.0
O320 O 0.49638 0.74157 0.40198 0.0
Mg321 Mg 0.5122 0.74271 0.43067 0.0
C322 C 0.50107 0.74636 0.38665 0.0
C323 C 0.56218 0.76671 0.36331 0.0
O324 O 0.55353 0.74855 0.36059 0.0
O325 O 0.53987 0.78799 0.41348 0.0
O326 O 0.51722 0.77655 0.43113 0.0
O327 O 0.55573 0.72858 0.39673 0.0
O328 O 0.54077 0.73959 0.41955 0.0
C329 C 0.52718 0.79078 0.42461 0.0
C330 C 0.5466 0.72494 0.41071 0.0
O331 O 0.56266 0.77567 0.37875 0.0
Mg332 Mg 0.98829 0.75291 0.59456 0.0
O333 O 0.01898 0.74601 0.60823 0.0
O334 O 0.03774 0.73812 0.58658 0.0
Mg335 Mg 0.01988 0.74116 0.55935 0.0
C336 C 0.03528 0.74062 0.6032 0.0
C337 C 0.96373 0.77256 0.62176 0.0
O338 O 0.95352 0.77538 0.60629 0.0
O339 O 0.00234 0.78311 0.58804 0.0
O340 O 0.02109 0.77438 0.56657 0.0
O341 O 0.97696 0.72108 0.593 0.0
O342 O 0.99182 0.73541 0.57158 0.0
C343 C 0.01459 0.78747 0.57662 0.0
C344 C 0.98414 0.71954 0.57769 0.0
O345 O 0.97991 0.76447 0.62165 0.0
Mg346 Mg 0.48993 0.24949 0.09249 0.0
O347 O 0.52072 0.24284 0.10598 0.0
O348 O 0.53934 0.23492 0.08422 0.0
Mg349 Mg 0.52101 0.23734 0.05702 0.0
C350 C 0.53702 0.23756 0.10087 0.0
C351 C 0.46538 0.26923 0.11954 0.0
O352 O 0.45498 0.27153 0.10402 0.0
O353 O 0.50389 0.27951 0.08556 0.0
O354 O 0.52182 0.27068 0.06354 0.0
O355 O 0.47868 0.21773 0.09151 0.0
O356 O 0.49325 0.23156 0.06969 0.0
C357 C 0.51556 0.28387 0.07367 0.0
C358 C 0.48574 0.21584 0.07618 0.0
O359 O 0.48176 0.26145 0.11952 0.0
C360 C 0.22673 0.74857 0.81453 0.0
C361 C 0.23339 0.72976 0.81348 0.0
C362 C 0.22735 0.75916 0.83119 0.0
C363 C 0.25437 0.76414 0.8765 0.0
H364 H 0.2081 0.78752 0.89139 0.0
C365 C 0.25215 0.79046 0.94993 0.0
C366 C 0.24346 0.80774 0.954 0.0
C367 C 0.25042 0.78221 0.9323 0.0
C368 C 0.22126 0.78137 0.88733 0.0
H369 H 0.24529 0.70717 0.82933 0.0
H370 H 0.2469 0.7259 0.85825 0.0
H371 H 0.20597 0.77076 0.86131 0.0
H372 H 0.22584 0.82976 0.94267 0.0
H373 H 0.22315 0.81547 0.91158 0.0
H374 H 0.26984 0.77482 0.90222 0.0
C375 C 0.24132 0.73244 0.84613 0.0
C376 C 0.22 0.77172 0.87014 0.0
C377 C 0.24047 0.72176 0.82954 0.0
C378 C 0.2327 0.81643 0.93997 0.0
C379 C 0.2311 0.80821 0.92218 0.0
C380 C 0.25572 0.77393 0.89353 0.0
C381 C 0.23487 0.75127 0.84711 0.0
C382 C 0.23643 0.76268 0.86474 0.0
C383 C 0.24014 0.79108 0.91814 0.0
C384 C 0.23905 0.78229 0.89934 0.0
H385 H 0.22145 0.75533 0.80245 0.0
H386 H 0.22242 0.77371 0.83158 0.0
H387 H 0.2674 0.75764 0.87253 0.0
H388 H 0.2603 0.78317 0.96041 0.0
H389 H 0.25708 0.76872 0.92982 0.0
C390 C 0.99342 0.47625 0.39494 0.0
C391 C 0.99607 0.49168 0.40848 0.0
C392 C 0.0063 0.47591 0.38145 0.0
C393 C 0.04221 0.50872 0.3597 0.0
H394 H 0.06307 0.46056 0.34434 0.0
C395 C 0.1119 0.5092 0.32208 0.0
C396 C 0.11152 0.49563 0.30718 0.0
C397 C 0.09654 0.50789 0.33318 0.0
C398 C 0.05715 0.47406 0.34832 0.0
H399 H 0.01452 0.51875 0.4187 0.0
H400 H 0.03702 0.51803 0.39547 0.0
H401 H 0.03857 0.45978 0.36625 0.0
H402 H 0.09477 0.46982 0.29239 0.0
H403 H 0.06782 0.46745 0.31202 0.0
H404 H 0.06105 0.52308 0.34212 0.0
C405 C 0.02479 0.50635 0.39498 0.0
C406 C 0.04311 0.47363 0.36086 0.0
C407 C 0.01194 0.50669 0.4084 0.0
C408 C 0.09547 0.48053 0.30375 0.0
C409 C 0.0801 0.47912 0.31501 0.0
C410 C 0.05624 0.50916 0.34727 0.0
C411 C 0.02207 0.49105 0.38126 0.0
C412 C 0.03577 0.49104 0.36694 0.0
C413 C 0.08042 0.49292 0.32975 0.0
C414 C 0.06415 0.49192 0.34169 0.0
H415 H 0.98129 0.46451 0.39471 0.0
H416 H 0.00372 0.46398 0.37103 0.0
H417 H 0.03649 0.52231 0.36374 0.0
H418 H 0.12404 0.521 0.32516 0.0
H419 H 0.09739 0.51856 0.3446 0.0
C420 C 0.78767 0.77128 0.83622 0.0
C421 C 0.79551 0.76233 0.8215 0.0
C422 C 0.78686 0.76203 0.85223 0.0
C423 C 0.80934 0.72843 0.88134 0.0
H424 H 0.75722 0.7233 0.89935 0.0
C425 C 0.79725 0.69878 0.95126 0.0
C426 C 0.78501 0.70948 0.96137 0.0
C427 C 0.79856 0.70211 0.93308 0.0
C428 C 0.77192 0.7247 0.8946 0.0
H429 H 0.80941 0.73684 0.8125 0.0
H430 H 0.80862 0.72097 0.84098 0.0
H431 H 0.76019 0.73542 0.86975 0.0
H432 H 0.76459 0.7321 0.96017 0.0
H433 H 0.76715 0.73805 0.92901 0.0
H434 H 0.82127 0.71866 0.90663 0.0
C435 C 0.80284 0.73507 0.83979 0.0
C436 C 0.77357 0.73154 0.87761 0.0
C437 C 0.80335 0.74421 0.82355 0.0
C438 C 0.77408 0.72345 0.95287 0.0
C439 C 0.77542 0.72678 0.93485 0.0
C440 C 0.80774 0.72178 0.89853 0.0
C441 C 0.79422 0.74377 0.85411 0.0
C442 C 0.79235 0.73395 0.87102 0.0
C443 C 0.78761 0.71616 0.92468 0.0
C444 C 0.78908 0.7204 0.90556 0.0
H445 H 0.78208 0.78549 0.8354 0.0
H446 H 0.7805 0.76921 0.86322 0.0
H447 H 0.824 0.73021 0.87652 0.0
H448 H 0.80588 0.68791 0.95737 0.0
H449 H 0.80803 0.69362 0.9256 0.0
C450 C 0.05265 0.01687 0.42638 0.0
C451 C 0.0419 0.01621 0.4414 0.0
C452 C 0.0428 0.01871 0.40927 0.0
C453 C 0.99222 0.01443 0.38247 0.0
H454 H 0.02214 0.04473 0.35014 0.0
C455 C 0.96017 0.03456 0.31054 0.0
C456 C 0.97164 0.02844 0.29702 0.0
C457 C 0.96729 0.03378 0.32879 0.0
C458 C 0.01361 0.03627 0.35905 0.0
H459 H 0.01241 0.01663 0.45039 0.0
H460 H 0.99509 0.0205 0.42044 0.0
H461 H 0.0371 0.04219 0.38091 0.0
H462 H 0.99962 0.01696 0.29207 0.0
H463 H 0.01217 0.01616 0.32379 0.0
H464 H 0.96856 0.00895 0.36039 0.0
C465 C 0.01111 0.0192 0.4218 0.0
C466 C 0.02221 0.03464 0.37666 0.0
C467 C 0.02099 0.01704 0.43896 0.0
C468 C 0.99037 0.0217 0.30213 0.0
C469 C 0.99762 0.02131 0.32028 0.0
C470 C 0.98346 0.01636 0.36488 0.0
C471 C 0.02196 0.02031 0.40676 0.0
C472 C 0.01188 0.02328 0.38849 0.0
C473 C 0.98617 0.02732 0.33377 0.0
C474 C 0.99429 0.02694 0.35293 0.0
H475 H 0.06876 0.01595 0.42789 0.0
H476 H 0.0516 0.01887 0.398 0.0
H477 H 0.98384 0.00547 0.39112 0.0
H478 H 0.94565 0.03975 0.30701 0.0
H479 H 0.95823 0.03852 0.339 0.0
C480 C 0.23627 0.32533 0.65773 0.0
C481 C 0.23443 0.31901 0.67504 0.0
C482 C 0.23969 0.31212 0.64375 0.0
C483 C 0.26202 0.26652 0.63587 0.0
H484 H 0.23523 0.26686 0.58729 0.0
C485 C 0.2797 0.21404 0.57785 0.0
C486 C 0.28106 0.22197 0.5611 0.0
C487 C 0.27212 0.22452 0.59172 0.0
C488 C 0.24299 0.2667 0.60074 0.0
H489 H 0.23442 0.29388 0.69123 0.0
H490 H 0.24048 0.27073 0.66675 0.0
H491 H 0.22514 0.28769 0.61154 0.0
H492 H 0.27559 0.24711 0.54577 0.0
H493 H 0.26283 0.26554 0.57001 0.0
H494 H 0.28034 0.24607 0.62508 0.0
C495 C 0.23928 0.28593 0.66404 0.0
C496 C 0.23715 0.27858 0.61463 0.0
C497 C 0.23564 0.29911 0.67799 0.0
C498 C 0.27457 0.24051 0.55846 0.0
C499 C 0.26713 0.25104 0.57236 0.0
C500 C 0.26799 0.25476 0.62196 0.0
C501 C 0.24153 0.29235 0.64683 0.0
C502 C 0.24673 0.27875 0.63231 0.0
C503 C 0.26588 0.24323 0.58919 0.0
C504 C 0.2587 0.25485 0.60418 0.0
H505 H 0.23526 0.34057 0.65506 0.0
H506 H 0.24153 0.31753 0.63067 0.0
H507 H 0.26987 0.26654 0.64932 0.0
H508 H 0.28448 0.19973 0.58025 0.0
H509 H 0.27111 0.21792 0.60441 0.0
C510 C 0.5232 0.49818 0.57167 0.0
C511 C 0.52332 0.5138 0.56027 0.0
C512 C 0.51538 0.49983 0.58821 0.0
C513 C 0.47906 0.5244 0.61122 0.0
H514 H 0.51182 0.51737 0.65586 0.0
C515 C 0.45569 0.54937 0.67986 0.0
C516 C 0.46104 0.5391 0.69502 0.0
C517 C 0.4627 0.54476 0.66341 0.0
C518 C 0.50225 0.519 0.64354 0.0
H519 H 0.51577 0.54369 0.5579 0.0
H520 H 0.50134 0.54606 0.58624 0.0
H521 H 0.52506 0.51161 0.62715 0.0
H522 H 0.47776 0.51566 0.70465 0.0
H523 H 0.48925 0.50697 0.67581 0.0
H524 H 0.45605 0.53133 0.6273 0.0
C525 C 0.5073 0.53257 0.58227 0.0
C526 C 0.50993 0.51579 0.62711 0.0
C527 C 0.51545 0.5311 0.56595 0.0
C528 C 0.47333 0.52387 0.69327 0.0
C529 C 0.48009 0.51901 0.67671 0.0
C530 C 0.47123 0.52726 0.62759 0.0
C531 C 0.50718 0.51697 0.59354 0.0
C532 C 0.49853 0.5188 0.61084 0.0
C533 C 0.47501 0.5295 0.66156 0.0
C534 C 0.48284 0.52498 0.64403 0.0
H535 H 0.52886 0.48453 0.56771 0.0
H536 H 0.51537 0.48757 0.59668 0.0
H537 H 0.46989 0.52659 0.59881 0.0
H538 H 0.44641 0.56133 0.68078 0.0
H539 H 0.4588 0.55352 0.65226 0.0
C540 C 0.82032 0.27922 0.67966 0.0
C541 C 0.82071 0.2588 0.67927 0.0
C542 C 0.81394 0.28812 0.66401 0.0
C543 C 0.78431 0.2757 0.61918 0.0
H544 H 0.80698 0.32754 0.60886 0.0
C545 C 0.76647 0.30698 0.55063 0.0
C546 C 0.76 0.32582 0.55101 0.0
C547 C 0.77486 0.29966 0.56639 0.0
C548 C 0.80046 0.31311 0.61167 0.0
H549 H 0.81589 0.23172 0.66213 0.0
H550 H 0.80551 0.2472 0.63476 0.0
H551 H 0.8204 0.31291 0.63603 0.0
H552 H 0.75778 0.35201 0.56809 0.0
H553 H 0.77279 0.3392 0.59573 0.0
H554 H 0.76471 0.27576 0.59463 0.0
C555 C 0.80934 0.25637 0.6472 0.0
C556 C 0.80808 0.30473 0.62724 0.0
C557 C 0.81543 0.24748 0.66287 0.0
C558 C 0.76259 0.33742 0.56741 0.0
C559 C 0.77125 0.33015 0.58318 0.0
C560 C 0.77692 0.28396 0.60356 0.0
C561 C 0.8081 0.27674 0.64762 0.0
C562 C 0.80014 0.28587 0.63114 0.0
C563 C 0.77715 0.31108 0.58284 0.0
C564 C 0.78496 0.30269 0.59962 0.0
H565 H 0.82433 0.28824 0.69218 0.0
H566 H 0.81302 0.3038 0.6649 0.0
H567 H 0.77743 0.2614 0.62194 0.0
H568 H 0.76462 0.29766 0.53823 0.0
H569 H 0.77946 0.28497 0.56574 0.0
C570 C 0.49532 0.99588 0.59862 0.0
C571 C 0.50187 0.00559 0.58403 0.0
C572 C 0.50855 0.99504 0.6143 0.0
C573 C 0.56357 0.00034 0.62973 0.0
H574 H 0.54571 0.9974 0.67708 0.0
C575 C 0.61768 0.98173 0.68917 0.0
C576 C 0.61709 0.99144 0.70611 0.0
C577 C 0.60242 0.98281 0.67514 0.0
C578 C 0.55102 0.99841 0.664 0.0
H579 H 0.52677 0.02273 0.57439 0.0
H580 H 0.54964 0.02223 0.60201 0.0
H581 H 0.52168 0.00243 0.65136 0.0
H582 H 0.59981 0.00947 0.72187 0.0
H583 H 0.57347 0.01211 0.69711 0.0
H584 H 0.59301 0.99732 0.64233 0.0
C585 C 0.53462 0.01459 0.60129 0.0
C586 C 0.53715 0.00103 0.64916 0.0
C587 C 0.52151 0.0151 0.58552 0.0
C588 C 0.60057 0.00176 0.70894 0.0
C589 C 0.58545 0.00321 0.69474 0.0
C590 C 0.57744 0.99803 0.64454 0.0
C591 C 0.52852 0.00413 0.61575 0.0
C592 C 0.54323 0.00195 0.63179 0.0
C593 C 0.5864 0.99405 0.67752 0.0
C594 C 0.57137 0.99681 0.66188 0.0
H595 H 0.48021 0.98832 0.5976 0.0
H596 H 0.50332 0.98665 0.62499 0.0
H597 H 0.56886 0.00058 0.6166 0.0
H598 H 0.63009 0.97341 0.68669 0.0
H599 H 0.60339 0.97498 0.66232 0.0
C600 C 0.87644 0.21826 0.75159 0.0
C601 C 0.85687 0.21922 0.75626 0.0
C602 C 0.89307 0.22186 0.76477 0.0
C603 C 0.9119 0.24773 0.80762 0.0
H604 H 0.94554 0.20564 0.81588 0.0
C605 C 0.98757 0.25469 0.85531 0.0
C606 C 0.98666 0.24209 0.8694 0.0
C607 C 0.97244 0.25252 0.84067 0.0
C608 C 0.93633 0.21752 0.81358 0.0
H609 H 0.83919 0.2251 0.77807 0.0
H610 H 0.86848 0.2321 0.80114 0.0
H611 H 0.91747 0.20125 0.79153 0.0
H612 H 0.96963 0.21702 0.87896 0.0
H613 H 0.94362 0.21286 0.85302 0.0
H614 H 0.93093 0.26407 0.82958 0.0
C615 C 0.87086 0.22833 0.78733 0.0
C616 C 0.92038 0.21505 0.7997 0.0
C617 C 0.85418 0.22428 0.77422 0.0
C618 C 0.97065 0.22701 0.86835 0.0
C619 C 0.95584 0.22456 0.85352 0.0
C620 C 0.92816 0.25038 0.82125 0.0
C621 C 0.8904 0.22692 0.78273 0.0
C622 C 0.90789 0.23003 0.79678 0.0
C623 C 0.95651 0.23742 0.83968 0.0
C624 C 0.94031 0.23519 0.82446 0.0
H625 H 0.87881 0.21425 0.73782 0.0
H626 H 0.90803 0.22071 0.76096 0.0
H627 H 0.90245 0.25947 0.80554 0.0
H628 H 0.9997 0.26647 0.85582 0.0
H629 H 0.97321 0.26257 0.83008 0.0
C630 C 0.52501 0.95422 0.49971 0.0
C631 C 0.50615 0.95685 0.50527 0.0
C632 C 0.52744 0.93773 0.48858 0.0
C633 C 0.49839 0.89591 0.45925 0.0
H634 H 0.54777 0.87161 0.46881 0.0
C635 C 0.50689 0.81497 0.43853 0.0
C636 C 0.52432 0.81111 0.43074 0.0
C637 C 0.50466 0.83392 0.44534 0.0
C638 C 0.53401 0.87838 0.46584 0.0
H639 H 0.47496 0.94434 0.50364 0.0
H640 H 0.47926 0.91525 0.48485 0.0
H641 H 0.54395 0.90246 0.48527 0.0
H642 H 0.55295 0.82422 0.42371 0.0
H643 H 0.5492 0.85734 0.43603 0.0
H644 H 0.4882 0.87115 0.44042 0.0
C645 C 0.49213 0.92615 0.48852 0.0
C646 C 0.53181 0.89612 0.47522 0.0
C647 C 0.48967 0.94279 0.49942 0.0
C648 C 0.53932 0.82672 0.4296 0.0
C649 C 0.53724 0.84564 0.43671 0.0
C650 C 0.50049 0.87801 0.45008 0.0
C651 C 0.51108 0.92331 0.48303 0.0
C652 C 0.51389 0.90505 0.47219 0.0
C653 C 0.51996 0.84936 0.44476 0.0
C654 C 0.51825 0.86901 0.45341 0.0
H655 H 0.53793 0.96493 0.504 0.0
H656 H 0.54216 0.93628 0.48438 0.0
H657 H 0.48455 0.90251 0.45624 0.0
H658 H 0.49501 0.80328 0.43952 0.0
H659 H 0.49125 0.83638 0.4516 0.0
C660 C 0.17847 0.35219 0.77035 0.0
C661 C 0.18229 0.34093 0.75507 0.0
C662 C 0.16467 0.34466 0.78157 0.0
C663 C 0.13968 0.29761 0.79385 0.0
H664 H 0.1037 0.33074 0.81497 0.0
C665 C 0.07761 0.26585 0.83449 0.0
C666 C 0.07566 0.27629 0.85084 0.0
C667 C 0.08949 0.2742 0.82215 0.0
C668 C 0.11376 0.32135 0.80928 0.0
H669 H 0.1744 0.31303 0.73933 0.0
H670 H 0.15019 0.30002 0.75871 0.0
H671 H 0.12672 0.34441 0.79471 0.0
H672 H 0.08419 0.30397 0.86677 0.0
H673 H 0.105 0.31851 0.84525 0.0
H674 H 0.1268 0.27458 0.80843 0.0
C675 C 0.15808 0.31454 0.76225 0.0
C676 C 0.12697 0.32918 0.79769 0.0
C677 C 0.1719 0.32206 0.75108 0.0
C678 C 0.08538 0.29552 0.85431 0.0
C679 C 0.09723 0.30389 0.84194 0.0
C680 C 0.12646 0.28978 0.80538 0.0
C681 C 0.15438 0.32569 0.7777 0.0
C682 C 0.14012 0.3174 0.78986 0.0
C683 C 0.09967 0.29321 0.82584 0.0
C684 C 0.11336 0.30155 0.81325 0.0
H685 H 0.18632 0.36677 0.77373 0.0
H686 H 0.16237 0.35355 0.79346 0.0
H687 H 0.14985 0.28821 0.78834 0.0
H688 H 0.07025 0.25105 0.83133 0.0
H689 H 0.0908 0.26571 0.80974 0.0
C690 C 0.51921 0.56845 0.47923 0.0
C691 C 0.52779 0.55272 0.47131 0.0
C692 C 0.51957 0.58641 0.4714 0.0
C693 C 0.53638 0.62558 0.4599 0.0
H694 H 0.52543 0.6307 0.40854 0.0
C695 C 0.53331 0.70123 0.43179 0.0
C696 C 0.54255 0.70466 0.41616 0.0
C697 C 0.53029 0.68228 0.4375 0.0
C698 C 0.52873 0.62948 0.42289 0.0
H699 H 0.54276 0.54315 0.44869 0.0
H700 H 0.54347 0.57469 0.43495 0.0
H701 H 0.52206 0.59811 0.4202 0.0
H702 H 0.55564 0.69078 0.39412 0.0
H703 H 0.5507 0.65765 0.4043 0.0
H704 H 0.54334 0.65676 0.46268 0.0
C705 C 0.53638 0.57307 0.44717 0.0
C706 C 0.52676 0.61083 0.42956 0.0
C707 C 0.53605 0.55507 0.45504 0.0
C708 C 0.54845 0.68863 0.40621 0.0
C709 C 0.5455 0.66962 0.41198 0.0
C710 C 0.53841 0.64415 0.45325 0.0
C711 C 0.52851 0.58906 0.45547 0.0
C712 C 0.53047 0.60872 0.44816 0.0
C713 C 0.5366 0.66628 0.42783 0.0
C714 C 0.5345 0.64637 0.43469 0.0
H715 H 0.51258 0.56709 0.4917 0.0
H716 H 0.51305 0.59834 0.47794 0.0
H717 H 0.53978 0.62442 0.47425 0.0
H718 H 0.52866 0.71321 0.43984 0.0
H719 H 0.52308 0.6802 0.44959 0.0
C720 C 0.85453 0.78455 0.73948 0.0
C721 C 0.85934 0.77555 0.75554 0.0
C722 C 0.86806 0.78591 0.72661 0.0
C723 C 0.91114 0.76327 0.71102 0.0
H724 H 0.91648 0.80972 0.68411 0.0
C725 C 0.96381 0.76998 0.65511 0.0
C726 C 0.95511 0.77644 0.63886 0.0
C727 C 0.95433 0.77167 0.67078 0.0
C728 C 0.9151 0.79662 0.69146 0.0
H729 H 0.88208 0.76106 0.77078 0.0
H730 H 0.9059 0.76355 0.74828 0.0
H731 H 0.89578 0.80902 0.70889 0.0
H732 H 0.93006 0.7905 0.62655 0.0
H733 H 0.91357 0.79343 0.6538 0.0
H734 H 0.93023 0.75077 0.69339 0.0
C735 C 0.89157 0.76938 0.74558 0.0
C736 C 0.90321 0.7962 0.70565 0.0
C737 C 0.87799 0.76802 0.75849 0.0
C738 C 0.93717 0.78535 0.63882 0.0
C739 C 0.92776 0.78713 0.65448 0.0
C740 C 0.92308 0.76371 0.69685 0.0
C741 C 0.88674 0.77834 0.72947 0.0
C742 C 0.90078 0.77939 0.7154 0.0
C743 C 0.93602 0.77998 0.67057 0.0
C744 C 0.92492 0.78026 0.6867 0.0
H745 H 0.84025 0.79045 0.73672 0.0
H746 H 0.86368 0.79258 0.71423 0.0
H747 H 0.90943 0.75001 0.71811 0.0
H748 H 0.97765 0.76308 0.65562 0.0
H749 H 0.9612 0.76626 0.68301 0.0
C750 C 0.0424 0.95076 0.52058 0.0
C751 C 0.06269 0.95684 0.51885 0.0
C752 C 0.03719 0.9335 0.52888 0.0
C753 C 0.05402 0.88585 0.5359 0.0
H754 H 0.02035 0.88281 0.57473 0.0
C755 C 0.04021 0.8136 0.56912 0.0
C756 C 0.02097 0.80826 0.57407 0.0
C757 C 0.04565 0.83262 0.56443 0.0
C758 C 0.02955 0.88331 0.56373 0.0
H759 H 0.0934 0.95001 0.52469 0.0
H760 H 0.08425 0.91959 0.53875 0.0
H761 H 0.02852 0.91438 0.56218 0.0
H762 H 0.99248 0.81875 0.57857 0.0
H763 H 0.00158 0.85184 0.56959 0.0
H764 H 0.0545 0.85492 0.53665 0.0
C765 C 0.07243 0.9282 0.53379 0.0
C766 C 0.03427 0.90143 0.55662 0.0
C767 C 0.07765 0.94558 0.5258 0.0
C768 C 0.00748 0.82254 0.5749 0.0
C769 C 0.01275 0.84153 0.56978 0.0
C770 C 0.04903 0.86775 0.54273 0.0
C771 C 0.05215 0.92192 0.5353 0.0
C772 C 0.0467 0.90285 0.54275 0.0
C773 C 0.03178 0.84669 0.56407 0.0
C774 C 0.0369 0.8662 0.55688 0.0
H775 H 0.03056 0.95924 0.51544 0.0
H776 H 0.02144 0.92891 0.52982 0.0
H777 H 0.06336 0.88651 0.525 0.0
H778 H 0.05101 0.80293 0.5686 0.0
H779 H 0.06068 0.83614 0.56076 0.0
C780 C 0.18399 0.70558 0.70138 0.0
C781 C 0.18332 0.70906 0.71995 0.0
C782 C 0.16772 0.70893 0.68905 0.0
C783 C 0.11326 0.71433 0.68493 0.0
H784 H 0.12428 0.74009 0.64183 0.0
C785 C 0.05031 0.74023 0.63549 0.0
C786 C 0.05193 0.73711 0.61698 0.0
C787 C 0.06614 0.73694 0.64836 0.0
C788 C 0.12094 0.73269 0.6537 0.0
H789 H 0.16498 0.71854 0.74026 0.0
H790 H 0.13663 0.7245 0.71874 0.0
H791 H 0.15218 0.73379 0.6636 0.0
H792 H 0.07149 0.72788 0.59757 0.0
H793 H 0.09884 0.72197 0.61995 0.0
H794 H 0.08199 0.71318 0.67496 0.0
C795 C 0.14966 0.71904 0.71368 0.0
C796 C 0.13694 0.72908 0.66618 0.0
C797 C 0.16596 0.71572 0.72602 0.0
C798 C 0.06971 0.73055 0.61168 0.0
C799 C 0.08548 0.72726 0.62453 0.0
C800 C 0.09723 0.71793 0.67242 0.0
C801 C 0.1504 0.7158 0.69505 0.0
C802 C 0.13331 0.71977 0.6819 0.0
C803 C 0.08394 0.73047 0.64302 0.0
C804 C 0.10089 0.72706 0.6566 0.0
H805 H 0.19718 0.70036 0.69638 0.0
H806 H 0.16865 0.70601 0.6748 0.0
H807 H 0.10997 0.70694 0.69682 0.0
H808 H 0.03686 0.74531 0.64006 0.0
H809 H 0.06455 0.73974 0.6625 0.0
C810 C 0.96878 0.55261 0.50508 0.0
C811 C 0.97043 0.55175 0.48649 0.0
C812 C 0.97178 0.57062 0.51533 0.0
C813 C 0.97105 0.62384 0.51016 0.0
H814 H 0.99666 0.62917 0.55951 0.0
C815 C 0.9895 0.69905 0.55021 0.0
C816 C 0.98428 0.70019 0.56788 0.0
C817 C 0.98893 0.68085 0.54063 0.0
C818 C 0.98936 0.62785 0.54578 0.0
H819 H 0.97692 0.56924 0.4642 0.0
H820 H 0.98286 0.60046 0.48214 0.0
H821 H 0.9941 0.59755 0.54208 0.0
H822 H 0.97469 0.68313 0.58947 0.0
H823 H 0.97373 0.65129 0.57269 0.0
H824 H 0.9664 0.65414 0.51383 0.0
C825 C 0.97883 0.58726 0.48876 0.0
C826 C 0.98785 0.60974 0.5358 0.0
C827 C 0.97571 0.56929 0.47851 0.0
C828 C 0.97879 0.68273 0.57587 0.0
C829 C 0.97835 0.66449 0.56631 0.0
C830 C 0.97267 0.64194 0.52009 0.0
C831 C 0.97661 0.5882 0.50725 0.0
C832 C 0.97865 0.6075 0.51786 0.0
C833 C 0.98322 0.66339 0.54852 0.0
C834 C 0.98181 0.64414 0.53801 0.0
H835 H 0.96503 0.53936 0.51173 0.0
H836 H 0.9698 0.57078 0.5295 0.0
H837 H 0.96347 0.62258 0.49653 0.0
H838 H 0.99373 0.71223 0.54363 0.0
H839 H 0.99297 0.68045 0.527 0.0
C840 C 0.76268 0.88916 0.22523 0.0
C841 C 0.76692 0.86963 0.22252 0.0
C842 C 0.77835 0.90439 0.22938 0.0
C843 C 0.83305 0.91443 0.24534 0.0
H844 H 0.82996 0.96076 0.21837 0.0
C845 C 0.90313 0.9671 0.23693 0.0
C846 C 0.90158 0.98742 0.23813 0.0
C847 C 0.88604 0.95362 0.2367 0.0
C848 C 0.83094 0.94806 0.22621 0.0
H849 H 0.79084 0.85065 0.22291 0.0
H850 H 0.81811 0.87712 0.22983 0.0
H851 H 0.80112 0.93564 0.21564 0.0
H852 H 0.88072 0.00944 0.23999 0.0
H853 H 0.85087 0.98581 0.23956 0.0
H854 H 0.86304 0.92665 0.25557 0.0
C855 C 0.80273 0.88075 0.22887 0.0
C856 C 0.8144 0.93367 0.22467 0.0
C857 C 0.7871 0.86558 0.2247 0.0
C858 C 0.88248 0.9939 0.23903 0.0
C859 C 0.86535 0.98038 0.23872 0.0
C860 C 0.84959 0.92878 0.24683 0.0
C861 C 0.79857 0.90037 0.231 0.0
C862 C 0.81538 0.91653 0.23399 0.0
C863 C 0.86697 0.96008 0.2376 0.0
C864 C 0.84885 0.9456 0.23705 0.0
H865 H 0.74728 0.89275 0.22356 0.0
H866 H 0.77465 0.91933 0.23114 0.0
H867 H 0.83417 0.90158 0.25296 0.0
H868 H 0.91756 0.96155 0.23619 0.0
H869 H 0.88775 0.93808 0.23554 0.0
C870 C 0.77021 0.16928 0.28765 0.0
C871 C 0.76422 0.18183 0.27437 0.0
C872 C 0.78613 0.15798 0.2856 0.0
C873 C 0.83158 0.15675 0.26265 0.0
H874 H 0.82725 0.10139 0.27128 0.0
C875 C 0.88919 0.10686 0.24028 0.0
C876 C 0.89484 0.09193 0.2512 0.0
C877 C 0.87355 0.11774 0.24414 0.0
C878 C 0.82885 0.1169 0.26909 0.0
H879 H 0.77021 0.19241 0.24858 0.0
H880 H 0.79797 0.1727 0.245 0.0
H881 H 0.79922 0.12043 0.27606 0.0
H882 H 0.8885 0.07679 0.27488 0.0
H883 H 0.86135 0.09612 0.28189 0.0
H884 H 0.86117 0.15344 0.25586 0.0
C885 C 0.79039 0.17162 0.25701 0.0
C886 C 0.81275 0.12778 0.27177 0.0
C887 C 0.77438 0.18276 0.25897 0.0
C888 C 0.88449 0.08818 0.26618 0.0
C889 C 0.86885 0.09918 0.27012 0.0
C890 C 0.8477 0.14595 0.26011 0.0
C891 C 0.79651 0.15919 0.27034 0.0
C892 C 0.81385 0.14775 0.26833 0.0
C893 C 0.86319 0.11412 0.25914 0.0
C894 C 0.84645 0.12581 0.26303 0.0
H895 H 0.76256 0.16817 0.29961 0.0
H896 H 0.79057 0.14859 0.29612 0.0
H897 H 0.83302 0.17221 0.26022 0.0
H898 H 0.89671 0.11006 0.22855 0.0
H899 H 0.86937 0.12881 0.23515 0.0
C900 C 0.40655 0.99434 0.972 0.0
C901 C 0.42347 0.98686 0.96569 0.0
C902 C 0.39012 0.98168 0.97573 0.0
C903 C 0.36213 0.93404 0.96458 0.0
H904 H 0.34888 0.93617 0.01379 0.0
C905 C 0.2914 0.89121 0.98812 0.0
C906 C 0.29662 0.87779 0.00085 0.0
C907 C 0.30597 0.90561 0.98367 0.0
C908 C 0.35236 0.93556 -1e-05 0.0
H909 H 0.4359 0.95997 0.95798 0.0
H910 H 0.40667 0.93801 0.96369 0.0
H911 H 0.3761 0.95929 0.00545 0.0
H912 H 0.32086 0.86938 0.0194 0.0
H913 H 0.3461 0.89509 0.01209 0.0
H914 H 0.33822 0.91045 0.95908 0.0
C915 C 0.40644 0.95373 0.96592 0.0
C916 C 0.36784 0.94875 0.99523 0.0
C917 C 0.4231 0.96636 0.96256 0.0
C918 C 0.31645 0.8795 0.00951 0.0
C919 C 0.33085 0.8942 0.00539 0.0
C920 C 0.34633 0.92116 0.96924 0.0
C921 C 0.38998 0.9613 0.97281 0.0
C922 C 0.37299 0.94792 0.97754 0.0
C923 C 0.32581 0.90713 0.99222 0.0
C924 C 0.3415 0.92168 0.98703 0.0
H925 H 0.40596 0.01 0.97413 0.0
H926 H 0.37746 0.98782 0.98087 0.0
H927 H 0.36586 0.9332 0.95085 0.0
H928 H 0.27626 0.89012 0.98116 0.0
H929 H 0.30179 0.9155 0.97349 0.0
C930 C 0.25936 0.30907 0.26181 0.0
C931 C 0.26714 0.307 0.27975 0.0
C932 C 0.24552 0.32252 0.25783 0.0
C933 C 0.20913 0.35223 0.27678 0.0
H934 H 0.22332 0.38803 0.24095 0.0
C935 C 0.17619 0.42653 0.26926 0.0
C936 C 0.17532 0.4345 0.25239 0.0
C937 C 0.18406 0.40861 0.27168 0.0
C938 C 0.21874 0.37794 0.25069 0.0
H939 H 0.26599 0.31724 0.30759 0.0
H940 H 0.24154 0.34045 0.3006 0.0
H941 H 0.24319 0.36104 0.24689 0.0
H942 H 0.18018 0.42922 0.22446 0.0
H943 H 0.19286 0.39759 0.22838 0.0
H944 H 0.18463 0.36914 0.28058 0.0
C945 C 0.24615 0.33156 0.28966 0.0
C946 C 0.23027 0.36249 0.25415 0.0
C947 C 0.26015 0.31824 0.29364 0.0
C948 C 0.18094 0.42353 0.23768 0.0
C949 C 0.1884 0.40548 0.24 0.0
C950 C 0.19739 0.36759 0.27316 0.0
C951 C 0.23897 0.33408 0.27169 0.0
C952 C 0.22574 0.34961 0.26735 0.0
C953 C 0.1909 0.39817 0.25718 0.0
C954 C 0.20219 0.38079 0.26019 0.0
H955 H 0.26405 0.30036 0.25079 0.0
H956 H 0.24004 0.32398 0.24386 0.0
H957 H 0.20522 0.3424 0.28695 0.0
H958 H 0.17208 0.43474 0.28087 0.0
H959 H 0.18583 0.40358 0.28513 0.0
C960 C 0.11744 0.03761 0.4943 0.0
C961 C 0.09862 0.04324 0.48772 0.0
C962 C 0.13429 0.05164 0.49814 0.0
C963 C 0.15279 0.10136 0.48643 0.0
H964 H 0.19343 0.10003 0.52727 0.0
C965 C 0.21305 0.16632 0.50795 0.0
C966 C 0.23308 0.16226 0.51212 0.0
C967 C 0.19726 0.1512 0.50551 0.0
C968 C 0.18229 0.10045 0.51571 0.0
H969 H 0.08241 0.06803 0.48096 0.0
H970 H 0.1116 0.09249 0.48792 0.0
H971 H 0.16444 0.07481 0.52248 0.0
H972 H 0.25208 0.13899 0.51735 0.0
H973 H 0.22431 0.11248 0.51309 0.0
H974 H 0.17043 0.12705 0.47975 0.0
C975 C 0.11356 0.07722 0.48964 0.0
C976 C 0.1657 0.08602 0.51296 0.0
C977 C 0.09681 0.06322 0.48571 0.0
C978 C 0.23685 0.14265 0.5141 0.0
C979 C 0.22096 0.12747 0.51176 0.0
C980 C 0.16926 0.11578 0.48923 0.0
C981 C 0.13261 0.07158 0.49555 0.0
C982 C 0.15063 0.08645 0.49838 0.0
C983 C 0.20102 0.1316 0.50724 0.0
C984 C 0.18408 0.11562 0.50399 0.0
H985 H 0.11929 0.02228 0.49586 0.0
H986 H 0.14875 0.04677 0.50256 0.0
H987 H 0.14177 0.10187 0.4748 0.0
H988 H 0.20952 0.18122 0.50638 0.0
H989 H 0.18202 0.15487 0.50231 0.0
C990 C 0.78927 0.16089 0.71912 0.0
C991 C 0.7937 0.17611 0.73284 0.0
C992 C 0.77522 0.14486 0.72092 0.0
C993 C 0.73109 0.12952 0.74288 0.0
H994 H 0.74678 0.07698 0.7362 0.0
C995 C 0.68248 0.06098 0.76164 0.0
C996 C 0.68295 0.04298 0.7518 0.0
C997 C 0.69505 0.07761 0.7584 0.0
C998 C 0.74193 0.09149 0.73776 0.0
H999 H 0.78677 0.18675 0.75904 0.0
H1000 H 0.76182 0.15879 0.76204 0.0
H1001 H 0.77048 0.10525 0.73225 0.0
H1002 H 0.6962 0.02858 0.73016 0.0
H1003 H 0.71738 0.05764 0.72392 0.0
H1004 H 0.70238 0.1159 0.74795 0.0
C1005 C 0.76935 0.15926 0.74998 0.0
C1006 C 0.75561 0.10768 0.73561 0.0
C1007 C 0.78368 0.17513 0.74832 0.0
C1008 C 0.69563 0.04214 0.73814 0.0
C1009 C 0.70793 0.05883 0.73466 0.0
C1010 C 0.71725 0.1133 0.74474 0.0
C1011 C 0.76509 0.14393 0.73633 0.0
C1012 C 0.75037 0.12683 0.73827 0.0
C1013 C 0.70815 0.0767 0.74501 0.0
C1014 C 0.72253 0.09405 0.74233 0.0
H1015 H 0.79689 0.16127 0.7071 0.0
H1016 H 0.77213 0.13326 0.71018 0.0
H1017 H 0.72664 0.14416 0.74482 0.0
H1018 H 0.67296 0.06206 0.77236 0.0
H1019 H 0.69494 0.09097 0.76684 0.0
C1020 C 0.43994 0.03685 0.5302 0.0
C1021 C 0.44277 0.02649 0.54575 0.0
C1022 C 0.42422 0.04863 0.52781 0.0
C1023 C 0.38963 0.07487 0.55319 0.0
H1024 H 0.36153 0.07851 0.50556 0.0
C1025 C 0.323 0.12107 0.54174 0.0
C1026 C 0.32385 0.13378 0.52773 0.0
C1027 C 0.33591 0.10639 0.54338 0.0
C1028 C 0.36931 0.07771 0.51892 0.0
H1029 H 0.43114 0.02012 0.57087 0.0
H1030 H 0.40347 0.04053 0.56664 0.0
H1031 H 0.38703 0.05576 0.50975 0.0
H1032 H 0.33838 0.14048 0.50401 0.0
H1033 H 0.3609 0.11478 0.50687 0.0
H1034 H 0.37191 0.09685 0.56233 0.0
C1035 C 0.41363 0.03981 0.55641 0.0
C1036 C 0.38396 0.06471 0.52134 0.0
C1037 C 0.42945 0.0281 0.55884 0.0
C1038 C 0.33736 0.13096 0.51498 0.0
C1039 C 0.3502 0.11618 0.51657 0.0
C1040 C 0.3749 0.08777 0.55079 0.0
C1041 C 0.41086 0.05029 0.54088 0.0
C1042 C 0.39447 0.06329 0.53847 0.0
C1043 C 0.34988 0.10399 0.53099 0.0
C1044 C 0.36471 0.08947 0.5336 0.0
H1045 H 0.45016 0.03618 0.52001 0.0
H1046 H 0.42284 0.05678 0.51588 0.0
H1047 H 0.39762 0.07442 0.56651 0.0
H1048 H 0.31271 0.12276 0.55175 0.0
H1049 H 0.33511 0.09703 0.55449 0.0
C1050 C 0.5761 0.47219 0.52944 0.0
C1051 C 0.57433 0.49019 0.52169 0.0
C1052 C 0.59268 0.46189 0.52723 0.0
C1053 C 0.63205 0.45555 0.49769 0.0
H1054 H 0.65926 0.43365 0.53901 0.0
C1055 C 0.6892 0.39772 0.49324 0.0
C1056 C 0.70614 0.39992 0.50633 0.0
C1057 C 0.67406 0.41023 0.49408 0.0
C1058 C 0.65192 0.4398 0.52736 0.0
H1059 H 0.58898 0.51163 0.50581 0.0
H1060 H 0.61765 0.4934 0.50166 0.0
H1061 H 0.63079 0.4523 0.54285 0.0
H1062 H 0.72097 0.41771 0.52998 0.0
H1063 H 0.69459 0.43942 0.53142 0.0
H1064 H 0.65316 0.44288 0.4822 0.0
C1065 C 0.60608 0.48722 0.50933 0.0
C1066 C 0.63549 0.4503 0.52954 0.0
C1067 C 0.5896 0.49763 0.51168 0.0
C1068 C 0.70807 0.41549 0.51974 0.0
C1069 C 0.6929 0.42788 0.52065 0.0
C1070 C 0.64837 0.44484 0.49548 0.0
C1071 C 0.6078 0.46926 0.51709 0.0
C1072 C 0.62537 0.45827 0.51473 0.0
C1073 C 0.67552 0.4251 0.50809 0.0
C1074 C 0.65849 0.43688 0.51031 0.0
H1075 H 0.5645 0.46586 0.53699 0.0
H1076 H 0.59349 0.44796 0.53321 0.0
H1077 H 0.62444 0.46143 0.48602 0.0
H1078 H 0.68726 0.3859 0.48271 0.0
H1079 H 0.6608 0.40771 0.48424 0.0
C1080 C 0.71465 0.23368 0.31938 0.0
C1081 C 0.73276 0.23012 0.31259 0.0
C1082 C 0.71485 0.24566 0.3352 0.0
C1083 C 0.74808 0.2831 0.36611 0.0
H1084 H 0.71063 0.26867 0.40021 0.0
C1085 C 0.76089 0.30814 0.44151 0.0
C1086 C 0.74457 0.31426 0.44978 0.0
C1087 C 0.75819 0.3006 0.42359 0.0
C1088 C 0.72096 0.27305 0.39068 0.0
H1089 H 0.76532 0.23656 0.31721 0.0
H1090 H 0.76572 0.25656 0.34516 0.0
H1091 H 0.70849 0.24946 0.37143 0.0
H1092 H 0.71271 0.31774 0.44567 0.0
H1093 H 0.70787 0.30401 0.41423 0.0
H1094 H 0.76112 0.30612 0.38584 0.0
C1095 C 0.75129 0.25052 0.33804 0.0
C1096 C 0.71975 0.26206 0.37416 0.0
C1097 C 0.75108 0.23872 0.32213 0.0
C1098 C 0.72556 0.31318 0.4396 0.0
C1099 C 0.72277 0.30526 0.4217 0.0
C1100 C 0.74944 0.2939 0.3827 0.0
C1101 C 0.73318 0.25425 0.34474 0.0
C1102 C 0.73351 0.26675 0.36178 0.0
C1103 C 0.73905 0.29873 0.41361 0.0
C1104 C 0.73609 0.2888 0.39524 0.0
H1105 H 0.70026 0.22713 0.31252 0.0
H1106 H 0.70059 0.24833 0.33983 0.0
H1107 H 0.75861 0.28746 0.35675 0.0
H1108 H 0.77575 0.3089 0.44899 0.0
H1109 H 0.77096 0.29553 0.41773 0.0
C1110 C 0.51337 0.9968 0.90944 0.0
C1111 C 0.49302 0.98946 0.90483 0.0
C1112 C 0.52739 0.99434 0.89726 0.0
C1113 C 0.53165 0.98651 0.84898 0.0
H1114 H 0.58505 0.97358 0.86589 0.0
C1115 C 0.59318 0.9788 0.80111 0.0
C1116 C 0.61264 0.98756 0.80781 0.0
C1117 C 0.57802 0.97675 0.81251 0.0
C1118 C 0.57026 0.97734 0.86096 0.0
H1119 H 0.47141 0.97362 0.88402 0.0
H1120 H 0.49598 0.96937 0.86258 0.0
H1121 H 0.5596 0.97426 0.88666 0.0
H1122 H 0.63142 0.00087 0.83179 0.0
H1123 H 0.60508 0.99756 0.85147 0.0
H1124 H 0.54246 0.99008 0.82338 0.0
C1125 C 0.50103 0.97711 0.8756 0.0
C1126 C 0.55567 0.9777 0.87287 0.0
C1127 C 0.48701 0.97946 0.88786 0.0
C1128 C 0.61664 0.994 0.82616 0.0
C1129 C 0.60153 0.99197 0.83751 0.0
C1130 C 0.54629 0.98623 0.83706 0.0
C1131 C 0.52137 0.98455 0.88016 0.0
C1132 C 0.53631 0.98261 0.8671 0.0
C1133 C 0.58201 0.98338 0.83085 0.0
C1134 C 0.56588 0.98197 0.843 0.0
H1135 H 0.51852 0.00454 0.92243 0.0
H1136 H 0.54289 0.00045 0.9011 0.0
H1137 H 0.51692 0.99051 0.84417 0.0
H1138 H 0.58963 0.97364 0.78704 0.0
H1139 H 0.56319 0.9699 0.80698 0.0
C1140 C 0.31561 0.25729 0.33085 0.0
C1141 C 0.29776 0.25882 0.31947 0.0
C1142 C 0.31488 0.24854 0.34723 0.0
C1143 C 0.28154 0.24244 0.3817 0.0
H1144 H 0.31487 0.20349 0.40006 0.0
C1145 C 0.2702 0.21215 0.44964 0.0
C1146 C 0.28731 0.20881 0.46111 0.0
C1147 C 0.27161 0.21554 0.43162 0.0
C1148 C 0.30562 0.21455 0.39524 0.0
H1149 H 0.26536 0.25092 0.31583 0.0
H1150 H 0.2641 0.23627 0.34458 0.0
H1151 H 0.31769 0.21446 0.3698 0.0
H1152 H 0.3192 0.20572 0.46261 0.0
H1153 H 0.32195 0.21254 0.43123 0.0
H1154 H 0.27003 0.24344 0.40708 0.0
C1155 C 0.2786 0.242 0.34087 0.0
C1156 C 0.3072 0.22073 0.37788 0.0
C1157 C 0.27933 0.2505 0.32446 0.0
C1158 C 0.30576 0.20819 0.45402 0.0
C1159 C 0.30728 0.21204 0.43601 0.0
C1160 C 0.28019 0.23655 0.39906 0.0
C1161 C 0.29629 0.24134 0.3526 0.0
C1162 C 0.29501 0.23461 0.37092 0.0
C1163 C 0.29029 0.21623 0.42467 0.0
C1164 C 0.29204 0.22236 0.40606 0.0
H1165 H 0.33004 0.26363 0.3275 0.0
H1166 H 0.32873 0.24828 0.35609 0.0
H1167 H 0.27226 0.25346 0.3768 0.0
H1168 H 0.25571 0.2124 0.45469 0.0
H1169 H 0.25803 0.21799 0.42323 0.0
C1170 C 0.53092 0.53095 0.93503 0.0
C1171 C 0.53777 0.51293 0.93928 0.0
C1172 C 0.51982 0.53276 0.91839 0.0
C1173 C 0.49138 0.50349 0.8782 0.0
H1174 H 0.5038 0.55116 0.85439 0.0
C1175 C 0.47372 0.50941 0.80161 0.0
C1176 C 0.4663 0.52664 0.79566 0.0
C1177 C 0.47981 0.50782 0.81987 0.0
C1178 C 0.49994 0.53788 0.86096 0.0
H1179 H 0.53826 0.48263 0.92952 0.0
H1180 H 0.51932 0.48581 0.90033 0.0
H1181 H 0.51951 0.54819 0.88486 0.0
H1182 H 0.45907 0.55556 0.80436 0.0
H1183 H 0.46998 0.55283 0.83631 0.0
H1184 H 0.47238 0.49297 0.8539 0.0
C1185 C 0.52205 0.49848 0.90997 0.0
C1186 C 0.50892 0.53616 0.87848 0.0
C1187 C 0.53297 0.49665 0.92669 0.0
C1188 C 0.4647 0.54208 0.80848 0.0
C1189 C 0.47104 0.54057 0.82676 0.0
C1190 C 0.48256 0.50515 0.86061 0.0
C1191 C 0.51549 0.51662 0.90551 0.0
C1192 C 0.50493 0.51886 0.88727 0.0
C1193 C 0.47884 0.52349 0.83261 0.0
C1194 C 0.48691 0.52228 0.85175 0.0
H1195 H 0.53418 0.54369 0.94458 0.0
H1196 H 0.51469 0.54684 0.91561 0.0
H1197 H 0.48762 0.49011 0.88464 0.0
H1198 H 0.47508 0.49719 0.79213 0.0
H1199 H 0.48591 0.49454 0.82395 0.0
C1200 C 0.75739 0.79917 0.18406 0.0
C1201 C 0.74092 0.81016 0.18184 0.0
C1202 C 0.76129 0.78622 0.17009 0.0
C1203 C 0.73903 0.76157 0.12532 0.0
H1204 H 0.79519 0.75731 0.11974 0.0
C1205 C 0.76819 0.73078 0.06027 0.0
C1206 C 0.78174 0.71657 0.06258 0.0
C1207 C 0.76207 0.74075 0.0752 0.0
C1208 C 0.77945 0.75824 0.12124 0.0
H1209 H 0.71549 0.8163 0.16351 0.0
H1210 H 0.72273 0.79437 0.13868 0.0
H1211 H 0.78668 0.77767 0.14492 0.0
H1212 H 0.79948 0.70168 0.08241 0.0
H1213 H 0.78919 0.71956 0.1085 0.0
H1214 H 0.73205 0.74277 0.10096 0.0
C1215 C 0.73233 0.79516 0.15136 0.0
C1216 C 0.77451 0.76981 0.13574 0.0
C1217 C 0.7282 0.80782 0.16552 0.0
C1218 C 0.78897 0.7125 0.08016 0.0
C1219 C 0.78315 0.72274 0.09509 0.0
C1220 C 0.74402 0.75028 0.1106 0.0
C1221 C 0.74908 0.78432 0.15339 0.0
C1222 C 0.75422 0.77163 0.13803 0.0
C1223 C 0.76969 0.73699 0.09273 0.0
C1224 C 0.76427 0.7485 0.10848 0.0
H1225 H 0.76727 0.80064 0.19665 0.0
H1226 H 0.77399 0.77779 0.1724 0.0
H1227 H 0.72325 0.76228 0.12674 0.0
H1228 H 0.76238 0.73437 0.04698 0.0
H1229 H 0.7518 0.7518 0.07306 0.0
C1230 C 0.01273 0.02981 0.06746 0.0
C1231 C 0.01844 0.01189 0.06058 0.0
C1232 C 0.00434 0.03101 0.08369 0.0
C1233 C 0.00392 0.01155 0.12698 0.0
H1234 H 0.95164 0.0307 0.12775 0.0
C1235 C 0.96774 0.01941 0.19331 0.0
C1236 C 0.95645 0.0353 0.19568 0.0
C1237 C 0.97415 0.01472 0.17656 0.0
C1238 C 0.96639 0.02561 0.1279 0.0
H1239 H 0.0198 0.9812 0.06579 0.0
H1240 H 0.00604 0.98371 0.09466 0.0
H1241 H 0.96555 0.02638 0.09923 0.0
H1242 H 0.9431 0.05883 0.18238 0.0
H1243 H 0.95498 0.05137 0.15355 0.0
H1244 H 0.00548 0.01177 0.15565 0.0
C1245 C 0.00789 0.99667 0.08716 0.0
C1246 C 0.97424 0.02299 0.1115 0.0
C1247 C 0.0159 0.99532 0.07068 0.0
C1248 C 0.95162 0.04636 0.18094 0.0
C1249 C 0.95835 0.04195 0.16432 0.0
C1250 C 0.99629 0.01457 0.14346 0.0
C1251 C 0.00187 0.01449 0.09368 0.0
C1252 C 0.99311 0.01607 0.11092 0.0
C1253 C 0.96976 0.02608 0.16185 0.0
C1254 C 0.97747 0.02182 0.14419 0.0
H1255 H 0.01495 0.04307 0.06047 0.0
H1256 H 1.00006 0.04499 0.0886 0.0
H1257 H 0.0186 0.00635 0.12685 0.0
H1258 H 0.97159 0.01049 0.20432 0.0
H1259 H 0.98251 0.00215 0.17518 0.0
C1260 C 0.31451 0.7873 0.18559 0.0
C1261 C 0.31519 0.7669 0.185 0.0
C1262 C 0.30804 0.79631 0.17002 0.0
C1263 C 0.27854 0.78389 0.12518 0.0
H1264 H 0.30182 0.83522 0.11406 0.0
C1265 C 0.26451 0.81184 0.05513 0.0
C1266 C 0.2575 0.83039 0.05416 0.0
C1267 C 0.27213 0.80557 0.07161 0.0
C1268 C 0.29511 0.82095 0.11713 0.0
H1269 H 0.31081 0.74001 0.16759 0.0
H1270 H 0.30022 0.75567 0.14041 0.0
H1271 H 0.31456 0.82122 0.14188 0.0
H1272 H 0.25359 0.85721 0.06963 0.0
H1273 H 0.26733 0.84623 0.09864 0.0
H1274 H 0.25953 0.78339 0.10024 0.0
C1275 C 0.3039 0.76473 0.15294 0.0
C1276 C 0.30234 0.81294 0.13304 0.0
C1277 C 0.31011 0.75574 0.1685 0.0
C1278 C 0.25886 0.84282 0.06999 0.0
C1279 C 0.26676 0.8366 0.08654 0.0
C1280 C 0.27154 0.79177 0.10926 0.0
C1281 C 0.30235 0.78505 0.15355 0.0
C1282 C 0.29431 0.79418 0.13712 0.0
C1283 C 0.2731 0.81776 0.08749 0.0
C1284 C 0.2799 0.81024 0.10497 0.0
H1285 H 0.31838 0.79619 0.1982 0.0
H1286 H 0.30693 0.81196 0.17101 0.0
H1287 H 0.27157 0.76968 0.1281 0.0
H1288 H 0.26361 0.80186 0.04321 0.0
H1289 H 0.27711 0.79105 0.07198 0.0
C1290 C 0.02602 0.51296 0.0847 0.0
C1291 C 0.00568 0.50554 0.08367 0.0
C1292 C 0.03898 0.51205 0.1005 0.0
C1293 C 0.04017 0.50149 0.14916 0.0
H1294 H 0.09523 0.49315 0.14292 0.0
C1295 C 0.10269 0.50241 0.20959 0.0
C1296 C 0.11879 0.49129 0.20746 0.0
C1297 C 0.08777 0.50353 0.19515 0.0
C1298 C 0.07985 0.49512 0.14501 0.0
H1299 H 0.98269 0.49151 0.09812 0.0
H1300 H 0.00543 0.489 0.12554 0.0
H1301 H 0.07162 0.49629 0.11682 0.0
H1302 H 0.13125 0.47152 0.18911 0.0
H1303 H 0.10476 0.4724 0.16438 0.0
H1304 H 0.04827 0.49917 0.17736 0.0
C1305 C 0.0114 0.49614 0.11445 0.0
C1306 C 0.06631 0.49739 0.12994 0.0
C1307 C 0.99835 0.49745 0.09874 0.0
C1308 C 0.11912 0.48043 0.19103 0.0
C1309 C 0.10401 0.48113 0.17678 0.0
C1310 C 0.05367 0.49884 0.16426 0.0
C1311 C 0.03199 0.50321 0.11548 0.0
C1312 C 0.0463 0.50076 0.13176 0.0
C1313 C 0.08846 0.4932 0.17839 0.0
C1314 C 0.07374 0.49565 0.1624 0.0
H1315 H 0.03192 0.51938 0.07323 0.0
H1316 H 0.05453 0.5182 0.10085 0.0
H1317 H 0.02498 0.50427 0.1512 0.0
H1318 H 0.10218 0.51103 0.22212 0.0
H1319 H 0.07621 0.51311 0.19695 0.0
C1320 C 0.37224 0.72476 0.25546 0.0
C1321 C 0.35277 0.72528 0.2605 0.0
C1322 C 0.38905 0.72785 0.26848 0.0
C1323 C 0.40872 0.75179 0.3118 0.0
H1324 H 0.44204 0.70912 0.31803 0.0
C1325 C 0.48602 0.75643 0.35695 0.0
C1326 C 0.48516 0.744 0.37116 0.0
C1327 C 0.47039 0.75472 0.34275 0.0
C1328 C 0.43291 0.72115 0.3163 0.0
H1329 H 0.33544 0.72986 0.28282 0.0
H1330 H 0.36506 0.73599 0.30564 0.0
H1331 H 0.41345 0.70568 0.29416 0.0
H1332 H 0.46767 0.71969 0.38142 0.0
H1333 H 0.44073 0.71628 0.35621 0.0
H1334 H 0.42839 0.76735 0.33378 0.0
C1335 C 0.36721 0.73296 0.29165 0.0
C1336 C 0.41667 0.71922 0.3027 0.0
C1337 C 0.35036 0.72941 0.27868 0.0
C1338 C 0.46866 0.72953 0.37069 0.0
C1339 C 0.45332 0.72752 0.35629 0.0
C1340 C 0.42526 0.7539 0.32512 0.0
C1341 C 0.38664 0.73194 0.28666 0.0
C1342 C 0.40433 0.73443 0.30049 0.0
C1343 C 0.45398 0.74023 0.34234 0.0
C1344 C 0.43731 0.7385 0.32757 0.0
H1345 H 0.3744 0.72146 0.24151 0.0
H1346 H 0.40393 0.72702 0.26438 0.0
H1347 H 0.39937 0.76369 0.31027 0.0
H1348 H 0.49852 0.76776 0.35701 0.0
H1349 H 0.47114 0.76464 0.33206 0.0
C1350 C 0.02534 0.45194 -0.00036 0.0
C1351 C 0.00676 0.45638 0.00479 0.0
C1352 C 0.02656 0.43474 0.98898 0.0
C1353 C 0.002 0.385 0.97936 0.0
H1354 H 0.03081 0.38378 0.93726 0.0
C1355 C 0.00424 0.31243 0.9376 0.0
C1356 C 0.02239 0.30913 0.93085 0.0
C1357 C 0.0014 0.33104 0.94486 0.0
C1358 C 0.02292 0.3838 0.94911 0.0
H1359 H 0.97479 0.44645 0.00273 0.0
H1360 H 0.97701 0.41624 0.98439 0.0
H1361 H 0.02798 0.41522 0.95342 0.0
H1362 H 0.05167 0.32285 0.92607 0.0
H1363 H 0.04709 0.35514 0.93938 0.0
H1364 H 0.99758 0.35372 0.97571 0.0
C1365 C 0.9906 0.42613 0.9885 0.0
C1366 C 0.02124 0.40184 0.95829 0.0
C1367 C 0.98934 0.44346 0.99893 0.0
C1368 C 0.03747 0.32496 0.9311 0.0
C1369 C 0.03478 0.34353 0.93866 0.0
C1370 C 0.00393 0.36699 0.97038 0.0
C1371 C 0.00924 0.42154 0.98355 0.0
C1372 C 0.01074 0.40258 0.97348 0.0
C1373 C 0.0168 0.34675 0.94588 0.0
C1374 C 0.0144 0.36611 0.95511 0.0
H1375 H 0.03897 0.46168 0.00403 0.0
H1376 H 0.04114 0.43146 0.98546 0.0
H1377 H 0.99409 0.38515 0.99121 0.0
H1378 H 0.99222 0.30058 0.93737 0.0
H1379 H 0.98714 0.33302 0.94981 0.0
C1380 C 0.67281 0.85066 0.2661 0.0
C1381 C 0.67683 0.8392 0.25102 0.0
C1382 C 0.65859 0.84344 0.27706 0.0
C1383 C 0.63338 0.79655 0.28932 0.0
H1384 H 0.59852 0.83006 0.31156 0.0
C1385 C 0.57348 0.76548 0.33251 0.0
C1386 C 0.57258 0.77603 0.34904 0.0
C1387 C 0.58456 0.77368 0.31954 0.0
C1388 C 0.60825 0.82055 0.30553 0.0
H1389 H 0.66861 0.81141 0.23518 0.0
H1390 H 0.64362 0.79895 0.25408 0.0
H1391 H 0.62083 0.8435 0.29061 0.0
H1392 H 0.58205 0.80377 0.36464 0.0
H1393 H 0.60145 0.81804 0.34202 0.0
H1394 H 0.62093 0.77366 0.30429 0.0
C1395 C 0.65172 0.81337 0.2577 0.0
C1396 C 0.62105 0.82825 0.29355 0.0
C1397 C 0.66598 0.82056 0.2468 0.0
C1398 C 0.58247 0.79523 0.35207 0.0
C1399 C 0.5935 0.80346 0.33906 0.0
C1400 C 0.62055 0.78885 0.30123 0.0
C1401 C 0.64805 0.82459 0.27312 0.0
C1402 C 0.63385 0.81636 0.28537 0.0
C1403 C 0.59493 0.79265 0.32277 0.0
C1404 C 0.60791 0.80078 0.30955 0.0
H1405 H 0.681 0.86507 0.26964 0.0
H1406 H 0.65631 0.8524 0.28892 0.0
H1407 H 0.6433 0.78705 0.28356 0.0
H1408 H 0.56596 0.7507 0.32969 0.0
H1409 H 0.58511 0.7651 0.30701 0.0
C1410 C 0.01926 0.0702 0.97967 0.0
C1411 C 0.02639 0.05343 0.97204 0.0
C1412 C 0.01931 0.08738 0.97057 0.0
C1413 C 0.04522 0.1132 0.93675 0.0
H1414 H 0.00237 0.14686 0.93854 0.0
C1415 C 0.04792 0.18779 0.90434 0.0
C1416 C 0.04262 0.20355 0.91505 0.0
C1417 C 0.04426 0.16848 0.9092 0.0
C1418 C 0.0145 0.13766 0.93799 0.0
H1419 H 0.03864 0.04124 0.9488 0.0
H1420 H 0.03867 0.07132 0.93278 0.0
H1421 H 0.99871 0.11466 0.9507 0.0
H1422 H 0.02939 0.21139 0.93929 0.0
H1423 H 0.02308 0.17788 0.94774 0.0
H1424 H 0.0612 0.13637 0.9244 0.0
C1425 C 0.03323 0.07123 0.94587 0.0
C1426 C 0.0124 0.11922 0.94495 0.0
C1427 C 0.03312 0.05401 0.95497 0.0
C1428 C 0.03343 0.19959 0.9306 0.0
C1429 C 0.02974 0.18034 0.93543 0.0
C1430 C 0.04732 0.13166 0.92979 0.0
C1431 C 0.02652 0.08818 0.95367 0.0
C1432 C 0.02789 0.10693 0.94471 0.0
C1433 C 0.0352 0.16456 0.92485 0.0
C1434 C 0.03215 0.14424 0.93064 0.0
H1435 H 0.01397 0.07024 0.99282 0.0
H1436 H 0.01429 0.10024 0.97706 0.0
H1437 H 0.05753 0.10418 0.93654 0.0
H1438 H 0.055 0.19035 0.89225 0.0
H1439 H 0.04849 0.15662 0.90069 0.0
C1440 C 0.3562 0.28117 0.23736 0.0
C1441 C 0.36137 0.27274 0.25366 0.0
C1442 C 0.36956 0.28235 0.22435 0.0
C1443 C 0.41309 0.26028 0.20901 0.0
H1444 H 0.41743 0.30628 0.18141 0.0
C1445 C 0.46562 0.26713 0.15297 0.0
C1446 C 0.45674 0.27321 0.13662 0.0
C1447 C 0.45611 0.26885 0.16862 0.0
C1448 C 0.41633 0.2933 0.18895 0.0
H1449 H 0.38453 0.25898 0.26911 0.0
H1450 H 0.40805 0.26115 0.24634 0.0
H1451 H 0.39675 0.30556 0.20621 0.0
H1452 H 0.43135 0.28664 0.12411 0.0
H1453 H 0.41483 0.28961 0.15132 0.0
H1454 H 0.43245 0.24791 0.19155 0.0
C1455 C 0.39358 0.26669 0.24358 0.0
C1456 C 0.40445 0.29287 0.20315 0.0
C1457 C 0.38017 0.2655 0.25664 0.0
C1458 C 0.4386 0.28179 0.13646 0.0
C1459 C 0.42916 0.28359 0.1521 0.0
C1460 C 0.42502 0.26072 0.19482 0.0
C1461 C 0.38843 0.27517 0.22728 0.0
C1462 C 0.40239 0.27621 0.21315 0.0
C1463 C 0.4376 0.27681 0.1683 0.0
C1464 C 0.4265 0.27711 0.18443 0.0
H1465 H 0.34179 0.28681 0.23456 0.0
H1466 H 0.36493 0.28864 0.21182 0.0
H1467 H 0.41168 0.24714 0.2163 0.0
H1468 H 0.47961 0.26049 0.15357 0.0
H1469 H 0.46313 0.26373 0.18094 0.0
C1470 C 0.54304 0.44159 0.01104 0.0
C1471 C 0.55849 0.45572 0.01926 0.0
C1472 C 0.53822 0.42422 0.01923 0.0
C1473 C 0.56002 0.39128 0.051 0.0
H1474 H 0.5045 0.36896 0.05057 0.0
C1475 C 0.5374 0.30974 0.06057 0.0
C1476 C 0.52158 0.30477 0.07086 0.0
C1477 C 0.54231 0.32916 0.05668 0.0
C1478 C 0.52007 0.37511 0.051 0.0
H1479 H 0.58081 0.46291 0.04251 0.0
H1480 H 0.57246 0.43247 0.05682 0.0
H1481 H 0.51181 0.40122 0.03913 0.0
H1482 H 0.49881 0.31649 0.08551 0.0
H1483 H 0.50734 0.35055 0.07856 0.0
H1484 H 0.56829 0.36507 0.06263 0.0
C1485 C 0.56416 0.43478 0.04401 0.0
C1486 C 0.52426 0.39348 0.04427 0.0
C1487 C 0.56888 0.45222 0.03587 0.0
C1488 C 0.51108 0.31982 0.07755 0.0
C1489 C 0.51588 0.33929 0.07349 0.0
C1490 C 0.55584 0.37286 0.0576 0.0
C1491 C 0.54881 0.42055 0.03575 0.0
C1492 C 0.54429 0.40166 0.04398 0.0
C1493 C 0.53143 0.34412 0.06287 0.0
C1494 C 0.53583 0.36446 0.05745 0.0
H1495 H 0.53472 0.44386 0.99823 0.0
H1496 H 0.52649 0.41344 0.01242 0.0
H1497 H 0.57561 0.39711 0.05086 0.0
H1498 H 0.54588 0.29855 0.05525 0.0
H1499 H 0.55423 0.33236 0.04831 0.0
C1500 C 0.68531 0.20314 0.20029 0.0
C1501 C 0.68458 0.20742 0.21875 0.0
C1502 C 0.66912 0.20612 0.1877 0.0
C1503 C 0.6245 0.23362 0.18204 0.0
H1504 H 0.60792 0.19607 0.14094 0.0
C1505 C 0.55224 0.23759 0.13311 0.0
C1506 C 0.55375 0.23416 0.11461 0.0
C1507 C 0.56801 0.23421 0.14599 0.0
C1508 C 0.61249 0.20679 0.15226 0.0
H1509 H 0.66617 0.21792 0.2386 0.0
H1510 H 0.63787 0.22289 0.21669 0.0
H1511 H 0.63575 0.19023 0.16306 0.0
H1512 H 0.57315 0.22454 0.09522 0.0
H1513 H 0.60058 0.21879 0.11767 0.0
H1514 H 0.6012 0.25015 0.17123 0.0
C1515 C 0.65107 0.21754 0.21186 0.0
C1516 C 0.62846 0.20345 0.16492 0.0
C1517 C 0.66727 0.21458 0.22444 0.0
C1518 C 0.57141 0.22731 0.10934 0.0
C1519 C 0.58712 0.22388 0.12221 0.0
C1520 C 0.6085 0.23693 0.16939 0.0
C1521 C 0.65183 0.21342 0.19333 0.0
C1522 C 0.6347 0.21686 0.17994 0.0
C1523 C 0.5856 0.22726 0.14068 0.0
C1524 C 0.60236 0.22358 0.15432 0.0
H1525 H 0.69851 0.19763 0.19558 0.0
H1526 H 0.67031 0.20302 0.17352 0.0
H1527 H 0.62912 0.24439 0.1933 0.0
H1528 H 0.53886 0.24284 0.13768 0.0
H1529 H 0.56631 0.23677 0.16014 0.0
C1530 C 0.47615 0.06628 0.97746 0.0
C1531 C 0.46993 0.04848 0.98464 0.0
C1532 C 0.47995 0.08376 0.98846 0.0
C1533 C 0.46618 0.10666 0.03021 0.0
H1534 H 0.51082 0.14581 0.02542 0.0
C1535 C 0.4806 0.1791 0.0753 0.0
C1536 C 0.48599 0.19626 0.06683 0.0
C1537 C 0.48026 0.16061 0.06626 0.0
C1538 C 0.49818 0.1351 0.02681 0.0
H1539 H 0.46369 0.03503 0.00921 0.0
H1540 H 0.47011 0.06561 0.02836 0.0
H1541 H 0.50752 0.11427 0.00783 0.0
H1542 H 0.4953 0.20749 0.04223 0.0
H1543 H 0.49441 0.17532 0.02636 0.0
H1544 H 0.45653 0.12756 0.04884 0.0
C1545 C 0.47179 0.06603 0.01415 0.0
C1546 C 0.49632 0.11702 0.01676 0.0
C1547 C 0.46808 0.04853 0.00317 0.0
C1548 C 0.49124 0.19455 0.0492 0.0
C1549 C 0.49082 0.17608 0.04012 0.0
C1550 C 0.46798 0.12475 0.04019 0.0
C1551 C 0.47754 0.08387 0.00688 0.0
C1552 C 0.48021 0.10266 0.01825 0.0
C1553 C 0.48521 0.15887 0.04849 0.0
C1554 C 0.48391 0.13927 0.03851 0.0
H1555 H 0.47746 0.06683 0.9632 0.0
H1556 H 0.48412 0.0973 0.9824 0.0
H1557 H 0.45344 0.096 0.03146 0.0
H1558 H 0.47658 0.17992 0.08893 0.0
H1559 H 0.47616 0.14767 0.07321 0.0
C1560 C 0.26344 0.39336 0.69614 0.0
C1561 C 0.25864 0.38247 0.71069 0.0
C1562 C 0.27886 0.40888 0.69855 0.0
C1563 C 0.31183 0.44241 0.73278 0.0
H1564 H 0.34935 0.44175 0.69697 0.0
C1565 C 0.39877 0.47366 0.72455 0.0
C1566 C 0.39922 0.49357 0.73043 0.0
C1567 C 0.38063 0.4614 0.72193 0.0
C1568 C 0.33904 0.44211 0.7071 0.0
H1569 H 0.26575 0.37985 0.73934 0.0
H1570 H 0.29273 0.407 0.74358 0.0
H1571 H 0.31902 0.41851 0.69309 0.0
H1572 H 0.38082 0.51616 0.73825 0.0
H1573 H 0.34908 0.49465 0.73365 0.0
H1574 H 0.33226 0.46574 0.74701 0.0
C1575 C 0.28443 0.40362 0.73032 0.0
C1576 C 0.32153 0.42895 0.70478 0.0
C1577 C 0.26897 0.38806 0.7279 0.0
C1578 C 0.38104 0.50091 0.73369 0.0
C1579 C 0.36286 0.48857 0.73116 0.0
C1580 C 0.32935 0.45568 0.73507 0.0
C1581 C 0.28987 0.41389 0.71558 0.0
C1582 C 0.3078 0.42881 0.71767 0.0
C1583 C 0.36247 0.4687 0.72519 0.0
C1584 C 0.34327 0.45549 0.72235 0.0
H1585 H 0.2555 0.38962 0.68277 0.0
H1586 H 0.28242 0.41676 0.687 0.0
H1587 H 0.30147 0.44275 0.74288 0.0
H1588 H 0.41246 0.46746 0.72194 0.0
H1589 H 0.38087 0.44608 0.71757 0.0
C1590 C 0.27264 0.67245 0.78605 0.0
C1591 C 0.2657 0.68473 0.77289 0.0
C1592 C 0.28859 0.66141 0.78342 0.0
C1593 C 0.33255 0.66013 0.75838 0.0
H1594 H 0.32972 0.60532 0.76891 0.0
C1595 C 0.39057 0.61016 0.73651 0.0
C1596 C 0.39678 0.59591 0.74799 0.0
C1597 C 0.37482 0.62099 0.74022 0.0
C1598 C 0.3309 0.62069 0.76616 0.0
H1599 H 0.27007 0.69509 0.74667 0.0
H1600 H 0.29794 0.67579 0.74206 0.0
H1601 H 0.30164 0.62411 0.77399 0.0
H1602 H 0.3914 0.58197 0.7725 0.0
H1603 H 0.36411 0.60121 0.77922 0.0
H1604 H 0.36183 0.65689 0.75073 0.0
C1605 C 0.29106 0.67476 0.75444 0.0
C1606 C 0.31477 0.63142 0.76902 0.0
C1607 C 0.27499 0.68566 0.757 0.0
C1608 C 0.38694 0.59282 0.76336 0.0
C1609 C 0.37121 0.60376 0.76714 0.0
C1610 C 0.34872 0.64945 0.75565 0.0
C1611 C 0.29808 0.66255 0.76764 0.0
C1612 C 0.31535 0.65121 0.76501 0.0
C1613 C 0.36494 0.61798 0.75559 0.0
C1614 C 0.34804 0.62954 0.75932 0.0
H1615 H 0.26565 0.67131 0.79837 0.0
H1616 H 0.29374 0.65224 0.79388 0.0
H1617 H 0.33359 0.67545 0.75547 0.0
H1618 H 0.39771 0.61285 0.72447 0.0
H1619 H 0.37018 0.63152 0.73082 0.0
C1620 C 0.90928 0.49522 0.47621 0.0
C1621 C 0.92637 0.48815 0.46984 0.0
C1622 C 0.89313 0.48223 0.48 0.0
C1623 C 0.86555 0.43497 0.46806 0.0
H1624 H 0.8526 0.4348 0.51734 0.0
C1625 C 0.79429 0.39196 0.49035 0.0
C1626 C 0.79935 0.37731 0.50184 0.0
C1627 C 0.80909 0.40655 0.48664 0.0
C1628 C 0.85601 0.43484 0.50353 0.0
H1629 H 0.93946 0.46162 0.46221 0.0
H1630 H 0.91069 0.43905 0.46798 0.0
H1631 H 0.87997 0.45829 0.50973 0.0
H1632 H 0.82354 0.36692 0.51909 0.0
H1633 H 0.84922 0.39295 0.51314 0.0
H1634 H 0.84137 0.41173 0.46181 0.0
C1635 C 0.91013 0.45473 0.47023 0.0
C1636 C 0.87157 0.44821 0.49919 0.0
C1637 C 0.92651 0.46769 0.46682 0.0
C1638 C 0.81926 0.378 0.51014 0.0
C1639 C 0.83391 0.39286 0.50679 0.0
C1640 C 0.84967 0.42192 0.47232 0.0
C1641 C 0.89346 0.46191 0.47706 0.0
C1642 C 0.87658 0.44822 0.48147 0.0
C1643 C 0.82901 0.407 0.49475 0.0
C1644 C 0.84493 0.42164 0.49011 0.0
H1645 H 0.90827 0.51083 0.47825 0.0
H1646 H 0.88029 0.48806 0.4851 0.0
H1647 H 0.86917 0.4348 0.45431 0.0
H1648 H 0.77909 0.3917 0.48368 0.0
H1649 H 0.80504 0.41738 0.47733 0.0
C1650 C 0.75325 0.81536 0.79112 0.0
C1651 C 0.76134 0.80436 0.77772 0.0
C1652 C 0.73886 0.82807 0.78643 0.0
C1653 C 0.72414 0.85848 0.75028 0.0
H1654 H 0.67781 0.86545 0.7757 0.0
C1655 C 0.67717 0.92144 0.73438 0.0
C1656 C 0.67166 0.93222 0.74925 0.0
C1657 C 0.68384 0.90298 0.73628 0.0
C1658 C 0.69075 0.86379 0.76854 0.0
H1659 H 0.75971 0.7974 0.74889 0.0
H1660 H 0.73495 0.82001 0.74074 0.0
H1661 H 0.6978 0.83834 0.78226 0.0
H1662 H 0.66773 0.93171 0.77756 0.0
H1663 H 0.68012 0.89984 0.78112 0.0
H1664 H 0.71802 0.88434 0.73725 0.0
C1665 C 0.73989 0.81879 0.75486 0.0
C1666 C 0.70213 0.84821 0.77226 0.0
C1667 C 0.75414 0.80593 0.75954 0.0
C1668 C 0.6718 0.92368 0.76583 0.0
C1669 C 0.67887 0.90534 0.76784 0.0
C1670 C 0.71296 0.87415 0.74672 0.0
C1671 C 0.73235 0.83024 0.76825 0.0
C1672 C 0.71907 0.84554 0.76329 0.0
C1673 C 0.68562 0.89504 0.75321 0.0
C1674 C 0.69623 0.87719 0.75594 0.0
H1675 H 0.75862 0.81478 0.80524 0.0
H1676 H 0.73352 0.83689 0.79703 0.0
H1677 H 0.73731 0.857 0.74337 0.0
H1678 H 0.67695 0.92757 0.72136 0.0
H1679 H 0.68827 0.89525 0.72457 0.0
C1680 C 0.59552 0.5589 0.98215 0.0
C1681 C 0.59759 0.53882 0.98317 0.0
C1682 C 0.61226 0.57295 0.9861 0.0
C1683 C 0.66482 0.58106 0.00845 0.0
H1684 H 0.6684 0.6245 0.97772 0.0
C1685 C 0.73549 0.63857 0.01157 0.0
C1686 C 0.73162 0.6583 0.01071 0.0
C1687 C 0.71964 0.62336 0.00862 0.0
C1688 C 0.66755 0.61255 0.98652 0.0
H1689 H 0.61881 0.51772 0.98935 0.0
H1690 H 0.64815 0.54228 0.99613 0.0
H1691 H 0.63984 0.59923 0.97201 0.0
H1692 H 0.70792 0.6774 0.00634 0.0
H1693 H 0.68051 0.651 0.00126 0.0
H1694 H 0.69272 0.59449 0.02288 0.0
C1695 C 0.63352 0.54719 0.9925 0.0
C1696 C 0.65115 0.59807 0.98328 0.0
C1697 C 0.61672 0.53311 0.98862 0.0
C1698 C 0.71154 0.66242 0.00704 0.0
C1699 C 0.69579 0.64726 0.00401 0.0
C1700 C 0.68133 0.59555 0.01165 0.0
C1701 C 0.63152 0.56726 0.99107 0.0
C1702 C 0.64943 0.58226 0.99432 0.0
C1703 C 0.69964 0.62756 0.00463 0.0
C1704 C 0.68273 0.61158 0.00084 0.0
H1705 H 0.58092 0.56377 0.97828 0.0
H1706 H 0.61008 0.5883 0.98525 0.0
H1707 H 0.6639 0.56917 0.0173 0.0
H1708 H 0.75076 0.63486 0.0144 0.0
H1709 H 0.72307 0.6083 0.00909 0.0
C1710 C 0.28012 0.67974 0.25144 0.0
C1711 C 0.29043 0.68155 0.2362 0.0
C1712 C 0.26624 0.66334 0.25255 0.0
C1713 C 0.25455 0.61189 0.23755 0.0
H1714 H 0.20017 0.6181 0.24793 0.0
C1715 C 0.19661 0.54437 0.23947 0.0
C1716 C 0.18331 0.54502 0.25264 0.0
C1717 C 0.20848 0.56136 0.23599 0.0
C1718 C 0.21536 0.61605 0.24528 0.0
H1719 H 0.29466 0.66767 0.21032 0.0
H1720 H 0.27074 0.63868 0.21249 0.0
H1721 H 0.2237 0.64711 0.2455 0.0
H1722 H 0.1718 0.56403 0.27234 0.0
H1723 H 0.19301 0.5934 0.26689 0.0
H1724 H 0.24678 0.58101 0.2381 0.0
C1725 C 0.27323 0.65006 0.22343 0.0
C1726 C 0.22877 0.63269 0.2438 0.0
C1727 C 0.2868 0.66662 0.22217 0.0
C1728 C 0.18181 0.56308 0.26199 0.0
C1729 C 0.19394 0.57999 0.25877 0.0
C1730 C 0.24129 0.59526 0.23935 0.0
C1731 C 0.26277 0.64833 0.23859 0.0
C1732 C 0.24847 0.63074 0.23995 0.0
C1733 C 0.20763 0.57933 0.24586 0.0
C1734 C 0.2215 0.59709 0.24327 0.0
H1735 H 0.28263 0.69112 0.26238 0.0
H1736 H 0.25843 0.66224 0.26442 0.0
H1737 H 0.26975 0.61005 0.23473 0.0
H1738 H 0.198 0.53074 0.23191 0.0
H1739 H 0.21844 0.56031 0.22563 0.0
C1740 C 0.92776 0.52045 0.03626 0.0
C1741 C 0.94596 0.52761 0.04686 0.0
C1742 C 0.91214 0.53233 0.03359 0.0
C1743 C 0.89218 0.5759 0.05277 0.0
H1744 H 0.86575 0.57856 0.00432 0.0
C1745 C 0.82314 0.61825 0.03891 0.0
C1746 C 0.82389 0.63125 0.02512 0.0
C1747 C 0.83691 0.60438 0.04093 0.0
C1748 C 0.87301 0.57797 0.01791 0.0
H1749 H 0.96184 0.55295 0.06308 0.0
H1750 H 0.93441 0.5735 0.05872 0.0
H1751 H 0.89226 0.55692 0.00961 0.0
H1752 H 0.83914 0.63924 0.00211 0.0
H1753 H 0.86314 0.61486 0.00559 0.0
H1754 H 0.87314 0.59708 0.06106 0.0
C1755 C 0.93225 0.55864 0.05252 0.0
C1756 C 0.88806 0.56548 0.02097 0.0
C1757 C 0.94795 0.54681 0.05507 0.0
C1758 C 0.83816 0.62946 0.01289 0.0
C1759 C 0.85188 0.61546 0.01485 0.0
C1760 C 0.87703 0.58823 0.04975 0.0
C1761 C 0.91426 0.55159 0.04161 0.0
C1762 C 0.89788 0.56441 0.03842 0.0
C1763 C 0.85166 0.60307 0.02913 0.0
C1764 C 0.86733 0.58948 0.03228 0.0
H1765 H 0.92554 0.50562 0.03 0.0
H1766 H 0.89832 0.5264 0.02534 0.0
H1767 H 0.89937 0.57528 0.06638 0.0
H1768 H 0.81229 0.61914 0.04853 0.0
H1769 H 0.83617 0.59482 0.05189 0.0
C1770 C 0.08375 0.99178 0.01323 0.0
C1771 C 0.0662 0.9847 0.02051 0.0
C1772 C 0.09804 0.97916 0.00939 0.0
C1773 C 0.10321 0.92711 0.99895 0.0
H1774 H 0.16025 0.94191 0.01352 0.0
C1775 C 0.16084 0.87075 7e-05 0.0
C1776 C 0.18059 0.87647 0.99641 0.0
C1777 C 0.14692 0.88444 0.0009 0.0
C1778 C 0.14442 0.93767 0.00903 0.0
H1779 H 0.04994 0.95894 0.02959 0.0
H1780 H 0.07493 0.93685 0.02285 0.0
H1781 H 0.13608 0.96497 0.01974 0.0
H1782 H 0.20094 0.90096 0.98995 0.0
H1783 H 0.17642 0.92491 0.99103 0.0
H1784 H 0.11142 0.89989 0.98816 0.0
C1785 C 0.07756 0.95215 0.02006 0.0
C1786 C 0.13058 0.95087 0.01269 0.0
C1787 C 0.06337 0.96481 0.02408 0.0
C1788 C 0.18586 0.8961 0.99285 0.0
C1789 C 0.17185 0.90984 0.99363 0.0
C1790 C 0.11704 0.914 0.99514 0.0
C1791 C 0.09498 0.95916 0.01256 0.0
C1792 C 0.1098 0.94559 0.00795 0.0
C1793 C 0.1523 0.90423 0.99798 0.0
C1794 C 0.13781 0.91896 0.00041 0.0
H1795 H 0.08639 0.00709 0.01048 0.0
H1796 H 0.11128 0.98497 0.00357 0.0
H1797 H 0.08732 0.92279 0.99482 0.0
H1798 H 0.15624 0.85576 0.00289 0.0
H1799 H 0.13215 0.87958 0.00454 0.0
loop_
_geom_bond_atom_site_label_1
_geom_bond_atom_site_label_2
_geom_bond_distance
_geom_bond_site_symmetry_2
_ccdc_geom_bond_type
H0 C5 0.930 . S
H1 C8 0.930 . S
H2 C10 0.930 . S
H3 C4 1.016 . S
C4 H3 1.016 . S
C4 N11 1.286 1_556 S
C5 H0 0.930 . S
C5 C6 1.397 . S
C5 C7 1.361 . S
C6 C5 1.397 . S
C6 C10 1.390 . S
C7 C5 1.361 . S
C7 C8 1.393 . S
C7 N11 1.413 . S
C8 H1 0.930 . S
C8 C7 1.393 . S
C8 C9 1.399 . S
C9 C8 1.399 . S
C9 C10 1.381 . S
C10 H2 0.930 . S
C10 C6 1.390 . S
C10 C9 1.381 . S
N11 C4 1.286 1_554 S
N11 C7 1.413 . S
H12 C17 0.930 . S
H13 C20 0.930 . S
H14 C22 0.930 . S
H15 C16 1.016 . S
C16 H15 1.016 . S
C16 N23 1.286 . S
C17 H12 0.930 . S
C17 C18 1.397 . S
C17 C19 1.361 . S
C18 C17 1.397 . S
C18 C22 1.390 . S
C19 C17 1.361 . S
C19 C20 1.393 . S
C19 N23 1.413 . S
C20 H13 0.930 . S
C20 C19 1.393 . S
C20 C21 1.399 . S
C21 C20 1.399 . S
C21 C22 1.381 . S
C22 H14 0.930 . S
C22 C18 1.390 . S
C22 C21 1.381 . S
N23 C16 1.286 . S
N23 C19 1.413 . S
H24 C29 0.930 . S
H25 C32 0.930 . S
H26 C34 0.930 . S
H27 C28 1.016 1_455 S
C28 H27 1.016 1_655 S
C28 N35 1.286 . S
C29 H24 0.930 . S
C29 C30 1.397 . S
C29 C31 1.361 . S
C30 C29 1.397 . S
C30 C34 1.390 . S
C31 C29 1.361 . S
C31 C32 1.393 . S
C31 N35 1.413 . S
C32 H25 0.930 . S
C32 C31 1.393 . S
C32 C33 1.399 . S
C33 C32 1.399 . S
C33 C34 1.381 . S
C34 H26 0.930 . S
C34 C30 1.390 . S
C34 C33 1.381 . S
N35 C28 1.286 . S
N35 C31 1.413 . S
H36 C41 0.930 . S
H37 C44 0.930 . S
H38 C46 0.930 . S
H39 C40 1.016 . S
C40 H39 1.016 . S
C40 N47 1.286 . S
C41 H36 0.930 . S
C41 C42 1.397 . S
C41 C43 1.361 . S
C42 C41 1.397 . S
C42 C46 1.390 . S
C43 C41 1.361 . S
C43 C44 1.393 . S
C43 N47 1.413 . S
C44 H37 0.930 . S
C44 C43 1.393 . S
C44 C45 1.399 . S
C45 C44 1.399 . S
C45 C46 1.381 . S
C46 H38 0.930 . S
C46 C42 1.390 . S
C46 C45 1.381 . S
N47 C40 1.286 . S
N47 C43 1.413 . S
H48 C53 0.930 . S
H49 C56 0.930 . S
H50 C58 0.947 . S
H51 C52 1.016 . S
C52 H51 1.016 . S
C52 N59 1.286 . S
C53 H48 0.930 . S
C53 C54 1.397 . S
C53 C55 1.361 . S
C54 C53 1.397 . S
C54 C58 1.380 1_565 S
C55 C53 1.361 . S
C55 C56 1.393 . S
C55 N59 1.413 . S
C56 H49 0.930 . S
C56 C55 1.393 . S
C56 C57 1.399 . S
C57 C56 1.399 . S
C57 C58 1.375 1_565 S
C58 H50 0.947 . S
C58 C54 1.380 1_545 S
C58 C57 1.375 1_545 S
N59 C52 1.286 . S
N59 C55 1.413 . S
H60 C65 0.930 . S
H61 C68 0.930 . S
H62 C70 0.930 . S
H63 C64 1.016 . S
C64 H63 1.016 . S
C64 N71 1.286 . S
C65 H60 0.930 . S
C65 C66 1.397 . S
C65 C67 1.361 . S
C66 C65 1.397 . S
C66 C70 1.390 . S
C67 C65 1.361 . S
C67 C68 1.393 . S
C67 N71 1.413 . S
C68 H61 0.930 . S
C68 C67 1.393 . S
C68 C69 1.399 . S
C69 C68 1.399 . S
C69 C70 1.381 . S
C70 H62 0.930 . S
C70 C66 1.390 . S
C70 C69 1.381 . S
N71 C64 1.286 . S
N71 C67 1.413 . S
H72 C77 0.930 . S
H73 C80 0.930 . S
H74 C82 0.930 . S
H75 C76 1.016 1_655 S
C76 H75 1.016 1_455 S
C76 N83 1.286 1_455 S
C77 H72 0.930 . S
C77 C78 1.397 . S
C77 C79 1.361 . S
C78 C77 1.397 . S
C78 C82 1.390 . S
C79 C77 1.361 . S
C79 C80 1.393 . S
C79 N83 1.413 . S
C80 H73 0.930 . S
C80 C79 1.393 . S
C80 C81 1.399 . S
C81 C80 1.399 . S
C81 C82 1.381 . S
C82 H74 0.930 . S
C82 C78 1.390 . S
C82 C81 1.381 . S
N83 C76 1.286 1_655 S
N83 C79 1.413 . S
H84 C89 0.930 . S
H85 C92 0.930 . S
H86 C94 0.930 . S
H87 C88 1.016 . S
C88 H87 1.016 . S
C88 N95 1.286 . S
C89 H84 0.930 . S
C89 C90 1.397 . S
C89 C91 1.361 . S
C90 C89 1.397 . S
C90 C94 1.390 . S
C91 C89 1.361 . S
C91 C92 1.393 . S
C91 N95 1.413 . S
C92 H85 0.930 . S
C92 C91 1.393 . S
C92 C93 1.399 . S
C93 C92 1.399 . S
C93 C94 1.381 . S
C94 H86 0.930 . S
C94 C90 1.390 . S
C94 C93 1.381 . S
N95 C88 1.286 . S
N95 C91 1.413 . S
H96 C101 0.930 . S
H97 C104 0.930 . S
H98 C106 0.930 . S
H99 C100 1.016 . S
C100 H99 1.016 . S
C100 N107 1.286 . S
C101 H96 0.930 . S
C101 C102 1.397 . S
C101 C103 1.361 . S
C102 C101 1.397 . S
C102 C106 1.390 . S
C103 C101 1.361 . S
C103 C104 1.393 . S
C103 N107 1.413 . S
C104 H97 0.930 . S
C104 C103 1.393 . S
C104 C105 1.399 . S
C105 C104 1.399 . S
C105 C106 1.381 . S
C106 H98 0.930 . S
C106 C102 1.390 . S
C106 C105 1.381 . S
N107 C100 1.286 . S
N107 C103 1.413 . S
H108 C113 0.930 . S
H109 C116 0.930 . S
H110 C118 0.930 1_545 S
H111 C112 1.016 . S
C112 H111 1.016 . S
C112 N119 1.286 . S
C113 H108 0.930 . S
C113 C114 1.397 . S
C113 C115 1.361 . S
C114 C113 1.397 . S
C114 C118 1.390 . S
C115 C113 1.361 . S
C115 C116 1.393 . S
C115 N119 1.413 . S
C116 H109 0.930 . S
C116 C115 1.393 . S
C116 C117 1.399 . S
C117 C116 1.399 . S
C117 C118 1.381 . S
C118 H110 0.930 1_565 S
C118 C114 1.390 . S
C118 C117 1.381 . S
N119 C112 1.286 . S
N119 C115 1.413 . S
H120 C125 0.930 . S
H121 C128 0.930 . S
H122 C130 0.930 . S
H123 C124 1.016 . S
C124 H123 1.016 . S
C124 N131 1.286 . S
C125 H120 0.930 . S
C125 C126 1.397 . S
C125 C127 1.361 . S
C126 C125 1.397 . S
C126 C130 1.390 . S
C127 C125 1.361 . S
C127 C128 1.393 . S
C127 N131 1.413 . S
C128 H121 0.930 . S
C128 C127 1.393 . S
C128 C129 1.399 . S
C129 C128 1.399 . S
C129 C130 1.381 . S
C130 H122 0.930 . S
C130 C126 1.390 . S
C130 C129 1.381 . S
N131 C124 1.286 . S
N131 C127 1.413 . S
H132 C137 0.930 . S
H133 C140 0.930 . S
H134 C142 0.930 . S
H135 C136 1.016 . S
C136 H135 1.016 . S
C136 N143 1.286 . S
C137 H132 0.930 . S
C137 C138 1.397 . S
C137 C139 1.361 . S
C138 C137 1.397 . S
C138 C142 1.390 . S
C139 C137 1.361 . S
C139 C140 1.393 . S
C139 N143 1.413 . S
C140 H133 0.930 . S
C140 C139 1.393 . S
C140 C141 1.399 . S
C141 C140 1.399 . S
C141 C142 1.381 . S
C142 H134 0.930 . S
C142 C138 1.390 . S
C142 C141 1.381 . S
N143 C136 1.286 . S
N143 C139 1.413 . S
H144 C149 0.930 . S
H145 C152 0.930 . S
H146 C154 0.930 . S
H147 C148 1.016 . S
C148 H147 1.016 . S
C148 N155 1.286 . S
C149 H144 0.930 . S
C149 C150 1.397 . S
C149 C151 1.361 . S
C150 C149 1.397 . S
C150 C154 1.390 . S
C151 C149 1.361 . S
C151 C152 1.393 . S
C151 N155 1.413 . S
C152 H145 0.930 . S
C152 C151 1.393 . S
C152 C153 1.399 . S
C153 C152 1.399 . S
C153 C154 1.381 . S
C154 H146 0.930 . S
C154 C150 1.390 . S
C154 C153 1.381 . S
N155 C148 1.286 . S
N155 C151 1.413 . S
H156 C161 0.930 . S
H157 C164 0.930 . S
H158 C166 0.930 . S
H159 C160 1.034 . S
C160 H159 1.034 . S
C160 N167 1.286 . S
C161 H156 0.930 . S
C161 C162 1.397 . S
C161 C163 1.361 . S
C162 C161 1.397 . S
C162 C166 1.390 . S
C163 C161 1.361 . S
C163 C164 1.393 . S
C163 N167 1.413 . S
C164 H157 0.930 . S
C164 C163 1.393 . S
C164 C165 1.399 . S
C165 C164 1.399 . S
C165 C166 1.381 . S
C166 H158 0.930 . S
C166 C162 1.390 . S
C166 C165 1.381 . S
N167 C160 1.286 . S
N167 C163 1.413 . S
H168 C173 0.930 . S
H169 C176 0.930 . S
H170 C178 0.930 . S
H171 C172 1.016 . S
C172 H171 1.016 . S
C172 N179 1.286 . S
C173 H168 0.930 . S
C173 C174 1.397 . S
C173 C175 1.361 . S
C174 C173 1.397 . S
C174 C178 1.390 . S
C175 C173 1.361 . S
C175 C176 1.393 . S
C175 N179 1.413 . S
C176 H169 0.930 . S
C176 C175 1.393 . S
C176 C177 1.399 . S
C177 C176 1.399 . S
C177 C178 1.381 . S
C178 H170 0.930 . S
C178 C174 1.390 . S
C178 C177 1.381 . S
N179 C172 1.286 . S
N179 C175 1.413 . S
H180 C185 0.930 . S
H181 C188 0.930 . S
H182 C190 0.930 . S
H183 C184 1.016 . S
C184 H183 1.016 . S
C184 N191 1.286 . S
C185 H180 0.930 . S
C185 C186 1.397 . S
C185 C187 1.361 . S
C186 C185 1.397 . S
C186 C190 1.390 . S
C187 C185 1.361 . S
C187 C188 1.393 . S
C187 N191 1.413 . S
C188 H181 0.930 . S
C188 C187 1.393 . S
C188 C189 1.399 . S
C189 C188 1.399 . S
C189 C190 1.381 . S
C190 H182 0.930 . S
C190 C186 1.390 . S
C190 C189 1.381 . S
N191 C184 1.286 . S
N191 C187 1.413 . S
Mg192 O193 2.028 . S
Mg192 O199 1.986 1_554 S
Mg192 O201 2.114 . S
Mg192 O202 2.251 . S
Mg192 O205 2.010 . S
O193 Mg192 2.028 . S
O193 C196 1.250 . S
O194 Mg195 2.028 . S
O194 C196 1.248 . S
Mg195 O194 2.028 . S
Mg195 O200 2.032 1_554 S
Mg195 O202 2.079 . S
C196 O193 1.250 . S
C196 O194 1.248 . S
C197 O198 1.264 . S
C197 O205 1.249 . S
O198 C197 1.264 . S
O199 Mg192 1.986 1_556 S
O199 C203 1.246 . S
O200 Mg195 2.032 1_556 S
O200 C203 1.259 . S
O201 Mg192 2.114 . S
O201 C204 1.252 . S
O202 Mg192 2.251 . S
O202 Mg195 2.079 . S
O202 C204 1.273 . S
C203 O199 1.246 . S
C203 O200 1.259 . S
C204 O201 1.252 . S
C204 O202 1.273 . S
O205 Mg192 2.010 . S
O205 C197 1.249 . S
Mg206 O207 2.028 . S
Mg206 O213 1.986 . S
Mg206 O215 2.114 . S
Mg206 O216 2.251 . S
Mg206 O219 2.010 . S
O207 Mg206 2.028 . S
O207 C210 1.250 . S
O208 Mg209 2.028 . S
O208 C210 1.248 . S
Mg209 O208 2.028 . S
Mg209 O214 2.032 . S
Mg209 O216 2.079 . S
C210 O207 1.250 . S
C210 O208 1.248 . S
C211 O212 1.264 . S
C211 O219 1.249 . S
O212 C211 1.264 . S
O213 Mg206 1.986 . S
O213 C217 1.246 . S
O214 Mg209 2.032 . S
O214 C217 1.259 . S
O215 Mg206 2.114 . S
O215 C218 1.252 . S
O216 Mg206 2.251 . S
O216 Mg209 2.079 . S
O216 C218 1.273 . S
C217 O213 1.246 . S
C217 O214 1.259 . S
C218 O215 1.252 . S
C218 O216 1.273 . S
O219 Mg206 2.010 . S
O219 C211 1.249 . S
Mg220 O221 2.028 . S
Mg220 O227 1.986 1_554 S
Mg220 O229 2.114 . S
Mg220 O230 2.251 . S
Mg220 O233 2.010 . S
O221 Mg220 2.028 . S
O221 C224 1.250 . S
O222 Mg223 2.035 . S
O222 C224 1.243 1_556 S
Mg223 O222 2.035 . S
Mg223 O228 2.032 . S
Mg223 O230 2.079 1_556 S
C224 O221 1.250 . S
C224 O222 1.243 1_554 S
C225 O226 1.264 . S
C225 O233 1.249 . S
O226 C225 1.264 . S
O227 Mg220 1.986 1_556 S
O227 C231 1.246 . S
O228 Mg223 2.032 . S
O228 C231 1.259 . S
O229 Mg220 2.114 . S
O229 C232 1.252 . S
O230 Mg220 2.251 . S
O230 Mg223 2.079 1_554 S
O230 C232 1.273 . S
C231 O227 1.246 . S
C231 O228 1.259 . S
C232 O229 1.252 . S
C232 O230 1.273 . S
O233 Mg220 2.010 . S
O233 C225 1.249 . S
Mg234 O235 2.028 . S
Mg234 O241 1.986 . S
Mg234 O243 2.114 . S
Mg234 O244 2.251 . S
Mg234 O247 2.010 . S
O235 Mg234 2.028 . S
O235 C238 1.250 . S
O236 Mg237 2.027 1_565 S
O236 C238 1.248 1_565 S
Mg237 O236 2.027 1_545 S
Mg237 O242 2.044 . S
Mg237 O244 2.112 . S
C238 O235 1.250 . S
C238 O236 1.248 1_545 S
C239 O240 1.264 . S
C239 O247 1.249 . S
O240 C239 1.264 . S
O241 Mg234 1.986 . S
O241 C245 1.246 . S
O242 Mg237 2.044 . S
O242 C245 1.259 . S
O243 Mg234 2.114 . S
O243 C246 1.252 . S
O244 Mg234 2.251 . S
O244 Mg237 2.112 . S
O244 C246 1.273 . S
C245 O241 1.246 . S
C245 O242 1.259 . S
C246 O243 1.252 . S
C246 O244 1.273 . S
O247 Mg234 2.010 . S
O247 C239 1.249 . S
Mg248 O249 2.028 . S
Mg248 O255 1.986 . S
Mg248 O257 2.114 . S
Mg248 O258 2.251 . S
Mg248 O261 2.010 . S
O249 Mg248 2.028 . S
O249 C252 1.250 . S
O250 Mg251 2.028 . S
O250 C252 1.248 . S
Mg251 O250 2.028 . S
Mg251 O256 2.032 . S
Mg251 O258 2.079 . S
C252 O249 1.250 . S
C252 O250 1.248 . S
C253 O254 1.264 . S
C253 O261 1.249 . S
O254 C253 1.264 . S
O255 Mg248 1.986 . S
O255 C259 1.246 . S
O256 Mg251 2.032 . S
O256 C259 1.259 . S
O257 Mg248 2.114 . S
O257 C260 1.252 . S
O258 Mg248 2.251 . S
O258 Mg251 2.079 . S
O258 C260 1.273 . S
C259 O255 1.246 . S
C259 O256 1.259 . S
C260 O257 1.252 . S
C260 O258 1.273 . S
O261 Mg248 2.010 . S
O261 C253 1.249 . S
Mg262 O263 2.028 . S
Mg262 O269 1.986 . S
Mg262 O271 2.114 . S
Mg262 O272 2.251 . S
Mg262 O275 2.010 . S
O263 Mg262 2.028 . S
O263 C266 1.250 . S
O264 Mg265 2.028 . S
O264 C266 1.248 . S
Mg265 O264 2.028 . S
Mg265 O270 2.032 . S
Mg265 O272 2.079 . S
C266 O263 1.250 . S
C266 O264 1.248 . S
C267 O268 1.264 . S
C267 O275 1.249 . S
O268 C267 1.264 . S
O269 Mg262 1.986 . S
O269 C273 1.246 . S
O270 Mg265 2.032 . S
O270 C273 1.259 . S
O271 Mg262 2.114 . S
O271 C274 1.252 . S
O272 Mg262 2.251 . S
O272 Mg265 2.079 . S
O272 C274 1.273 . S
C273 O269 1.246 . S
C273 O270 1.259 . S
C274 O271 1.252 . S
C274 O272 1.273 . S
O275 Mg262 2.010 . S
O275 C267 1.249 . S
Mg276 O277 2.028 . S
Mg276 O283 1.986 . S
Mg276 O285 2.114 . S
Mg276 O286 2.251 . S
Mg276 O289 2.010 . S
O277 Mg276 2.028 . S
O277 C280 1.250 . S
O278 Mg279 2.028 . S
O278 C280 1.248 . S
Mg279 O278 2.028 . S
Mg279 O284 2.032 . S
Mg279 O286 2.079 . S
C280 O277 1.250 . S
C280 O278 1.248 . S
C281 O282 1.264 . S
C281 O289 1.249 . S
O282 C281 1.264 . S
O283 Mg276 1.986 . S
O283 C287 1.246 . S
O284 Mg279 2.032 . S
O284 C287 1.259 . S
O285 Mg276 2.114 . S
O285 C288 1.252 . S
O286 Mg276 2.251 . S
O286 Mg279 2.079 . S
O286 C288 1.273 . S
C287 O283 1.246 . S
C287 O284 1.259 . S
C288 O285 1.252 . S
C288 O286 1.273 . S
O289 Mg276 2.010 . S
O289 C281 1.249 . S
Mg290 O291 2.028 1_545 S
Mg290 O297 1.986 1_545 S
Mg290 O299 2.114 . S
Mg290 O300 2.251 . S
Mg290 O303 2.010 . S
O291 Mg290 2.028 1_565 S
O291 C294 1.250 . S
O292 Mg293 2.028 . S
O292 C294 1.248 . S
Mg293 O292 2.028 . S
Mg293 O298 2.032 . S
Mg293 O300 2.079 1_565 S
C294 O291 1.250 . S
C294 O292 1.248 . S
C295 O296 1.264 . S
C295 O303 1.249 . S
O296 C295 1.264 . S
O297 Mg290 1.986 1_565 S
O297 C301 1.246 . S
O298 Mg293 2.032 . S
O298 C301 1.259 . S
O299 Mg290 2.114 . S
O299 C302 1.252 . S
O300 Mg290 2.251 . S
O300 Mg293 2.079 1_545 S
O300 C302 1.273 . S
C301 O297 1.246 . S
C301 O298 1.259 . S
C302 O299 1.252 . S
C302 O300 1.273 . S
O303 Mg290 2.010 . S
O303 C295 1.249 . S
Mg304 O305 2.028 . S
Mg304 O311 1.986 . S
Mg304 O313 2.114 . S
Mg304 O314 2.251 . S
Mg304 O317 2.010 . S
O305 Mg304 2.028 . S
O305 C308 1.250 1_455 S
O306 Mg307 2.028 . S
O306 C308 1.248 . S
Mg307 O306 2.028 . S
Mg307 O312 2.032 . S
Mg307 O314 2.079 1_655 S
C308 O305 1.250 1_655 S
C308 O306 1.248 . S
C309 O310 1.264 . S
C309 O317 1.249 . S
O310 C309 1.264 . S
O311 Mg304 1.986 . S
O311 C315 1.246 . S
O312 Mg307 2.032 . S
O312 C315 1.259 1_655 S
O313 Mg304 2.114 . S
O313 C316 1.252 . S
O314 Mg304 2.251 . S
O314 Mg307 2.079 1_455 S
O314 C316 1.273 . S
C315 O311 1.246 . S
C315 O312 1.259 1_455 S
C316 O313 1.252 . S
C316 O314 1.273 . S
O317 Mg304 2.010 . S
O317 C309 1.249 . S
Mg318 O319 2.028 . S
Mg318 O325 1.986 . S
Mg318 O327 2.114 . S
Mg318 O328 2.251 . S
Mg318 O331 2.010 . S
O319 Mg318 2.028 . S
O319 C322 1.250 . S
O320 Mg321 2.028 . S
O320 C322 1.248 . S
Mg321 O320 2.028 . S
Mg321 O326 2.032 . S
Mg321 O328 2.079 . S
C322 O319 1.250 . S
C322 O320 1.248 . S
C323 O324 1.264 . S
C323 O331 1.249 . S
O324 C323 1.264 . S
O325 Mg318 1.986 . S
O325 C329 1.246 . S
O326 Mg321 2.032 . S
O326 C329 1.259 . S
O327 Mg318 2.114 . S
O327 C330 1.252 . S
O328 Mg318 2.251 . S
O328 Mg321 2.079 . S
O328 C330 1.273 . S
C329 O325 1.246 . S
C329 O326 1.259 . S
C330 O327 1.252 . S
C330 O328 1.273 . S
O331 Mg318 2.010 . S
O331 C323 1.249 . S
Mg332 O333 2.028 1_655 S
Mg332 O339 1.991 . S
Mg332 O341 2.114 . S
Mg332 O342 2.251 1_655 S
Mg332 O345 2.010 . S
O333 Mg332 2.028 1_455 S
O333 C336 1.250 . S
O334 Mg335 2.028 . S
O334 C336 1.248 . S
Mg335 O334 2.028 . S
Mg335 O340 2.032 . S
Mg335 O342 2.079 . S
C336 O333 1.250 . S
C336 O334 1.248 . S
C337 O338 1.264 . S
C337 O345 1.249 . S
O338 C337 1.264 . S
O339 Mg332 1.991 . S
O339 C343 1.232 1_655 S
O340 Mg335 2.032 . S
O340 C343 1.259 . S
O341 Mg332 2.114 . S
O341 C344 1.252 . S
O342 Mg332 2.251 1_455 S
O342 Mg335 2.079 . S
O342 C344 1.273 1_455 S
C343 O339 1.232 1_455 S
C343 O340 1.259 . S
C344 O341 1.252 . S
C344 O342 1.273 1_655 S
O345 Mg332 2.010 . S
O345 C337 1.249 . S
Mg346 O347 2.028 . S
Mg346 O353 1.986 . S
Mg346 O355 2.114 . S
Mg346 O356 2.251 . S
Mg346 O359 2.010 . S
O347 Mg346 2.028 . S
O347 C350 1.250 . S
O348 Mg349 2.028 . S
O348 C350 1.248 . S
Mg349 O348 2.028 . S
Mg349 O354 2.032 . S
Mg349 O356 2.079 . S
C350 O347 1.250 . S
C350 O348 1.248 . S
C351 O352 1.264 . S
C351 O359 1.249 . S
O352 C351 1.264 . S
O353 Mg346 1.986 . S
O353 C357 1.246 . S
O354 Mg349 2.032 . S
O354 C357 1.259 . S
O355 Mg346 2.114 . S
O355 C358 1.252 . S
O356 Mg346 2.251 . S
O356 Mg349 2.079 . S
O356 C358 1.273 . S
C357 O353 1.246 . S
C357 O354 1.259 . S
C358 O355 1.252 . S
C358 O356 1.273 . S
O359 Mg346 2.010 . S
O359 C351 1.249 . S
C360 C361 1.349 . S
C360 C362 1.327 . S
C360 H385 0.950 . S
C361 C360 1.349 . S
C361 C377 1.349 . S
C362 C360 1.327 . S
C362 C381 1.429 . S
C362 H386 0.950 . S
C363 C380 1.574 . S
C363 C382 1.368 . S
C363 H387 0.949 . S
H364 C368 0.949 . S
C365 C366 1.349 . S
C365 C367 1.327 . S
C365 H388 0.950 . S
C366 C365 1.349 . S
C366 C378 1.349 . S
C367 C365 1.327 . S
C367 C383 1.429 . S
C367 H389 0.950 . S
C368 H364 0.949 . S
C368 C376 1.574 . S
C368 C384 1.368 . S
H369 C377 0.950 . S
H370 C375 0.950 . S
H371 C376 0.949 . S
H372 C378 0.950 . S
H373 C379 0.950 . S
H374 C380 0.949 . S
C375 H370 0.950 . S
C375 C377 1.327 . S
C375 C381 1.429 . S
C376 C368 1.574 . S
C376 H371 0.949 . S
C376 C382 1.368 . S
C377 C361 1.349 . S
C377 H369 0.950 . S
C377 C375 1.327 . S
C378 C366 1.349 . S
C378 H372 0.950 . S
C378 C379 1.327 . S
C379 H373 0.950 . S
C379 C378 1.327 . S
C379 C383 1.429 . S
C380 C363 1.574 . S
C380 H374 0.949 . S
C380 C384 1.368 . S
C381 C362 1.429 . S
C381 C375 1.429 . S
C381 C382 1.523 . S
C382 C363 1.368 . S
C382 C376 1.368 . S
C382 C381 1.523 . S
C383 C367 1.429 . S
C383 C379 1.429 . S
C383 C384 1.523 . S
C384 C368 1.368 . S
C384 C380 1.368 . S
C384 C383 1.523 . S
H385 C360 0.950 . S
H386 C362 0.950 . S
H387 C363 0.949 . S
H388 C365 0.950 . S
H389 C367 0.950 . S
C390 C391 1.349 . S
C390 C392 1.327 . S
C390 H415 0.950 . S
C391 C390 1.349 . S
C391 C407 1.349 . S
C392 C390 1.327 . S
C392 C411 1.429 . S
C392 H416 0.950 . S
C393 C410 1.574 . S
C393 C412 1.368 . S
C393 H417 0.949 . S
H394 C398 0.949 . S
C395 C396 1.349 . S
C395 C397 1.327 . S
C395 H418 0.950 . S
C396 C395 1.349 . S
C396 C408 1.349 . S
C397 C395 1.327 . S
C397 C413 1.429 . S
C397 H419 0.950 . S
C398 H394 0.949 . S
C398 C406 1.574 . S
C398 C414 1.368 . S
H399 C407 0.950 . S
H400 C405 0.950 . S
H401 C406 0.949 . S
H402 C408 0.950 . S
H403 C409 0.950 . S
H404 C410 0.949 . S
C405 H400 0.950 . S
C405 C407 1.327 . S
C405 C411 1.429 . S
C406 C398 1.574 . S
C406 H401 0.949 . S
C406 C412 1.368 . S
C407 C391 1.349 . S
C407 H399 0.950 . S
C407 C405 1.327 . S
C408 C396 1.349 . S
C408 H402 0.950 . S
C408 C409 1.327 . S
C409 H403 0.950 . S
C409 C408 1.327 . S
C409 C413 1.429 . S
C410 C393 1.574 . S
C410 H404 0.949 . S
C410 C414 1.368 . S
C411 C392 1.429 . S
C411 C405 1.429 . S
C411 C412 1.523 . S
C412 C393 1.368 . S
C412 C406 1.368 . S
C412 C411 1.523 . S
C413 C397 1.429 . S
C413 C409 1.429 . S
C413 C414 1.523 . S
C414 C398 1.368 . S
C414 C410 1.368 . S
C414 C413 1.523 . S
H415 C390 0.950 . S
H416 C392 0.950 . S
H417 C393 0.949 . S
H418 C395 0.950 . S
H419 C397 0.950 . S
C420 C421 1.349 . S
C420 C422 1.327 . S
C420 H445 0.950 . S
C421 C420 1.349 . S
C421 C437 1.349 . S
C422 C420 1.327 . S
C422 C441 1.429 . S
C422 H446 0.950 . S
C423 C440 1.574 . S
C423 C442 1.368 . S
C423 H447 0.949 . S
H424 C428 0.949 . S
C425 C426 1.349 . S
C425 C427 1.327 . S
C425 H448 0.950 . S
C426 C425 1.349 . S
C426 C438 1.349 . S
C427 C425 1.327 . S
C427 C443 1.429 . S
C427 H449 0.950 . S
C428 H424 0.949 . S
C428 C436 1.574 . S
C428 C444 1.368 . S
H429 C437 0.950 . S
H430 C435 0.950 . S
H431 C436 0.949 . S
H432 C438 0.950 . S
H433 C439 0.950 . S
H434 C440 0.949 . S
C435 H430 0.950 . S
C435 C437 1.327 . S
C435 C441 1.429 . S
C436 C428 1.574 . S
C436 H431 0.949 . S
C436 C442 1.368 . S
C437 C421 1.349 . S
C437 H429 0.950 . S
C437 C435 1.327 . S
C438 C426 1.349 . S
C438 H432 0.950 . S
C438 C439 1.327 . S
C439 H433 0.950 . S
C439 C438 1.327 . S
C439 C443 1.429 . S
C440 C423 1.574 . S
C440 H434 0.949 . S
C440 C444 1.368 . S
C441 C422 1.429 . S
C441 C435 1.429 . S
C441 C442 1.523 . S
C442 C423 1.368 . S
C442 C436 1.368 . S
C442 C441 1.523 . S
C443 C427 1.429 . S
C443 C439 1.429 . S
C443 C444 1.523 . S
C444 C428 1.368 . S
C444 C440 1.368 . S
C444 C443 1.523 . S
H445 C420 0.950 . S
H446 C422 0.950 . S
H447 C423 0.949 . S
H448 C425 0.950 . S
H449 C427 0.950 . S
C450 C451 1.349 . S
C450 C452 1.338 . S
C450 H475 0.950 . S
C451 C450 1.349 . S
C451 C467 1.349 . S
C452 C450 1.338 . S
C452 C471 1.421 1_565 S
C452 H476 0.947 1_565 S
C453 C470 1.574 . S
C453 C472 1.368 1_655 S
C453 H477 0.949 . S
H454 C458 0.949 . S
C455 C456 1.349 . S
C455 C457 1.327 . S
C455 H478 0.950 . S
C456 C455 1.349 . S
C456 C468 1.349 . S
C457 C455 1.327 . S
C457 C473 1.429 . S
C457 H479 0.950 . S
C458 H454 0.949 . S
C458 C466 1.574 . S
C458 C474 1.368 1_455 S
H459 C467 0.950 . S
H460 C465 0.950 1_545 S
H461 C466 0.949 . S
H462 C468 0.950 . S
H463 C469 0.950 1_455 S
H464 C470 0.949 . S
C465 H460 0.950 1_565 S
C465 C467 1.326 . S
C465 C471 1.429 1_565 S
C466 C458 1.574 . S
C466 H461 0.949 . S
C466 C472 1.368 . S
C467 C451 1.349 . S
C467 H459 0.950 . S
C467 C465 1.326 . S
C468 C456 1.349 . S
C468 H462 0.950 . S
C468 C469 1.327 . S
C469 H463 0.950 1_655 S
C469 C468 1.327 . S
C469 C473 1.429 . S
C470 C453 1.574 . S
C470 H464 0.949 . S
C470 C474 1.368 . S
C471 C452 1.421 1_545 S
C471 C465 1.429 1_545 S
C471 C472 1.523 . S
C472 C453 1.368 1_455 S
C472 C466 1.368 . S
C472 C471 1.523 . S
C473 C457 1.429 . S
C473 C469 1.429 . S
C473 C474 1.523 . S
C474 C458 1.368 1_655 S
C474 C470 1.368 . S
C474 C473 1.523 . S
H475 C450 0.950 . S
H476 C452 0.947 1_545 S
H477 C453 0.949 . S
H478 C455 0.950 . S
H479 C457 0.950 . S
C480 C481 1.349 . S
C480 C482 1.327 . S
C480 H505 0.950 . S
C481 C480 1.349 . S
C481 C497 1.349 . S
C482 C480 1.327 . S
C482 C501 1.429 . S
C482 H506 0.950 . S
C483 C500 1.574 . S
C483 C502 1.368 . S
C483 H507 0.949 . S
H484 C488 0.949 . S
C485 C486 1.349 . S
C485 C487 1.327 . S
C485 H508 0.950 . S
C486 C485 1.349 . S
C486 C498 1.349 . S
C487 C485 1.327 . S
C487 C503 1.429 . S
C487 H509 0.950 . S
C488 H484 0.949 . S
C488 C496 1.574 . S
C488 C504 1.368 . S
H489 C497 0.950 . S
H490 C495 0.950 . S
H491 C496 0.949 . S
H492 C498 0.950 . S
H493 C499 0.950 . S
H494 C500 0.949 . S
C495 H490 0.950 . S
C495 C497 1.327 . S
C495 C501 1.429 . S
C496 C488 1.574 . S
C496 H491 0.949 . S
C496 C502 1.368 . S
C497 C481 1.349 . S
C497 H489 0.950 . S
C497 C495 1.327 . S
C498 C486 1.349 . S
C498 H492 0.950 . S
C498 C499 1.327 . S
C499 H493 0.950 . S
C499 C498 1.327 . S
C499 C503 1.429 . S
C500 C483 1.574 . S
C500 H494 0.949 . S
C500 C504 1.368 . S
C501 C482 1.429 . S
C501 C495 1.429 . S
C501 C502 1.523 . S
C502 C483 1.368 . S
C502 C496 1.368 . S
C502 C501 1.523 . S
C503 C487 1.429 . S
C503 C499 1.429 . S
C503 C504 1.523 . S
C504 C488 1.368 . S
C504 C500 1.368 . S
C504 C503 1.523 . S
H505 C480 0.950 . S
H506 C482 0.950 . S
H507 C483 0.949 . S
H508 C485 0.950 . S
H509 C487 0.950 . S
C510 C511 1.349 . S
C510 C512 1.327 . S
C510 H535 0.950 . S
C511 C510 1.349 . S
C511 C527 1.349 . S
C512 C510 1.327 . S
C512 C531 1.429 . S
C512 H536 0.950 . S
C513 C530 1.574 . S
C513 C532 1.368 . S
C513 H537 0.949 . S
H514 C518 0.949 . S
C515 C516 1.349 . S
C515 C517 1.327 . S
C515 H538 0.950 . S
C516 C515 1.349 . S
C516 C528 1.349 . S
C517 C515 1.327 . S
C517 C533 1.429 . S
C517 H539 0.950 . S
C518 H514 0.949 . S
C518 C526 1.574 . S
C518 C534 1.368 . S
H519 C527 0.950 . S
H520 C525 0.950 . S
H521 C526 0.949 . S
H522 C528 0.950 . S
H523 C529 0.950 . S
H524 C530 0.949 . S
C525 H520 0.950 . S
C525 C527 1.327 . S
C525 C531 1.429 . S
C526 C518 1.574 . S
C526 H521 0.949 . S
C526 C532 1.368 . S
C527 C511 1.349 . S
C527 H519 0.950 . S
C527 C525 1.327 . S
C528 C516 1.349 . S
C528 H522 0.950 . S
C528 C529 1.327 . S
C529 H523 0.950 . S
C529 C528 1.327 . S
C529 C533 1.429 . S
C530 C513 1.574 . S
C530 H524 0.949 . S
C530 C534 1.368 . S
C531 C512 1.429 . S
C531 C525 1.429 . S
C531 C532 1.523 . S
C532 C513 1.368 . S
C532 C526 1.368 . S
C532 C531 1.523 . S
C533 C517 1.429 . S
C533 C529 1.429 . S
C533 C534 1.523 . S
C534 C518 1.368 . S
C534 C530 1.368 . S
C534 C533 1.523 . S
H535 C510 0.950 . S
H536 C512 0.950 . S
H537 C513 0.949 . S
H538 C515 0.950 . S
H539 C517 0.950 . S
C540 C541 1.349 . S
C540 C542 1.327 . S
C540 H565 0.950 . S
C541 C540 1.349 . S
C541 C557 1.349 . S
C542 C540 1.327 . S
C542 C561 1.429 . S
C542 H566 0.950 . S
C543 C560 1.574 . S
C543 C562 1.368 . S
C543 H567 0.949 . S
H544 C548 0.949 . S
C545 C546 1.349 . S
C545 C547 1.327 . S
C545 H568 0.950 . S
C546 C545 1.349 . S
C546 C558 1.349 . S
C547 C545 1.327 . S
C547 C563 1.429 . S
C547 H569 0.950 . S
C548 H544 0.949 . S
C548 C556 1.574 . S
C548 C564 1.368 . S
H549 C557 0.950 . S
H550 C555 0.950 . S
H551 C556 0.949 . S
H552 C558 0.950 . S
H553 C559 0.950 . S
H554 C560 0.949 . S
C555 H550 0.950 . S
C555 C557 1.327 . S
C555 C561 1.429 . S
C556 C548 1.574 . S
C556 H551 0.949 . S
C556 C562 1.368 . S
C557 C541 1.349 . S
C557 H549 0.950 . S
C557 C555 1.327 . S
C558 C546 1.349 . S
C558 H552 0.950 . S
C558 C559 1.327 . S
C559 H553 0.950 . S
C559 C558 1.327 . S
C559 C563 1.429 . S
C560 C543 1.574 . S
C560 H554 0.949 . S
C560 C564 1.368 . S
C561 C542 1.429 . S
C561 C555 1.429 . S
C561 C562 1.523 . S
C562 C543 1.368 . S
C562 C556 1.368 . S
C562 C561 1.523 . S
C563 C547 1.429 . S
C563 C559 1.429 . S
C563 C564 1.523 . S
C564 C548 1.368 . S
C564 C560 1.368 . S
C564 C563 1.523 . S
H565 C540 0.950 . S
H566 C542 0.950 . S
H567 C543 0.949 . S
H568 C545 0.950 . S
H569 C547 0.950 . S
C570 C571 1.349 . S
C570 C572 1.327 . S
C570 H595 0.950 1_565 S
C571 C570 1.349 . S
C571 C587 1.349 . S
C572 C570 1.327 . S
C572 C591 1.429 . S
C572 H596 0.950 1_565 S
C573 C590 1.574 . S
C573 C592 1.368 . S
C573 H597 0.949 . S
H574 C578 0.949 . S
C575 C576 1.349 . S
C575 C577 1.327 . S
C575 H598 0.950 . S
C576 C575 1.349 . S
C576 C588 1.349 1_565 S
C577 C575 1.327 . S
C577 C593 1.429 . S
C577 H599 0.950 . S
C578 H574 0.949 . S
C578 C586 1.573 . S
C578 C594 1.368 1_545 S
H579 C587 0.950 . S
H580 C585 0.950 . S
H581 C586 0.956 . S
H582 C588 0.950 . S
H583 C589 0.950 . S
H584 C590 0.949 . S
C585 H580 0.950 . S
C585 C587 1.327 . S
C585 C591 1.429 . S
C586 C578 1.573 . S
C586 H581 0.956 . S
C586 C592 1.361 1_545 S
C587 C571 1.349 . S
C587 H579 0.950 . S
C587 C585 1.327 . S
C588 C576 1.349 1_545 S
C588 H582 0.950 . S
C588 C589 1.327 . S
C589 H583 0.950 . S
C589 C588 1.327 . S
C589 C593 1.429 1_545 S
C590 C573 1.574 . S
C590 H584 0.949 . S
C590 C594 1.368 . S
C591 C572 1.429 . S
C591 C585 1.429 . S
C591 C592 1.523 . S
C592 C573 1.368 . S
C592 C586 1.361 1_565 S
C592 C591 1.523 . S
C593 C577 1.429 . S
C593 C589 1.429 1_565 S
C593 C594 1.523 . S
C594 C578 1.368 1_565 S
C594 C590 1.368 . S
C594 C593 1.523 . S
H595 C570 0.950 1_545 S
H596 C572 0.950 1_545 S
H597 C573 0.949 . S
H598 C575 0.950 . S
H599 C577 0.950 . S
C600 C601 1.349 . S
C600 C602 1.327 . S
C600 H625 0.950 . S
C601 C600 1.349 . S
C601 C617 1.349 . S
C602 C600 1.327 . S
C602 C621 1.429 . S
C602 H626 0.950 . S
C603 C620 1.574 . S
C603 C622 1.368 . S
C603 H627 0.949 . S
H604 C608 0.949 . S
C605 C606 1.349 . S
C605 C607 1.327 . S
C605 H628 0.950 . S
C606 C605 1.349 . S
C606 C618 1.349 . S
C607 C605 1.327 . S
C607 C623 1.429 . S
C607 H629 0.950 . S
C608 H604 0.949 . S
C608 C616 1.574 . S
C608 C624 1.368 . S
H609 C617 0.950 . S
H610 C615 0.950 . S
H611 C616 0.949 . S
H612 C618 0.950 . S
H613 C619 0.950 . S
H614 C620 0.949 . S
C615 H610 0.950 . S
C615 C617 1.327 . S
C615 C621 1.429 . S
C616 C608 1.574 . S
C616 H611 0.949 . S
C616 C622 1.368 . S
C617 C601 1.349 . S
C617 H609 0.950 . S
C617 C615 1.327 . S
C618 C606 1.349 . S
C618 H612 0.950 . S
C618 C619 1.327 . S
C619 H613 0.950 . S
C619 C618 1.327 . S
C619 C623 1.429 . S
C620 C603 1.574 . S
C620 H614 0.949 . S
C620 C624 1.368 . S
C621 C602 1.429 . S
C621 C615 1.429 . S
C621 C622 1.523 . S
C622 C603 1.368 . S
C622 C616 1.368 . S
C622 C621 1.523 . S
C623 C607 1.429 . S
C623 C619 1.429 . S
C623 C624 1.523 . S
C624 C608 1.368 . S
C624 C620 1.368 . S
C624 C623 1.523 . S
H625 C600 0.950 . S
H626 C602 0.950 . S
H627 C603 0.949 . S
H628 C605 0.950 . S
H629 C607 0.950 . S
C630 C631 1.349 . S
C630 C632 1.327 . S
C630 H655 0.950 . S
C631 C630 1.349 . S
C631 C647 1.349 . S
C632 C630 1.327 . S
C632 C651 1.429 . S
C632 H656 0.950 . S
C633 C650 1.574 . S
C633 C652 1.368 . S
C633 H657 0.949 . S
H634 C638 0.949 . S
C635 C636 1.349 . S
C635 C637 1.327 . S
C635 H658 0.950 . S
C636 C635 1.349 . S
C636 C648 1.349 . S
C637 C635 1.327 . S
C637 C653 1.429 . S
C637 H659 0.950 . S
C638 H634 0.949 . S
C638 C646 1.574 . S
C638 C654 1.368 . S
H639 C647 0.950 . S
H640 C645 0.950 . S
H641 C646 0.949 . S
H642 C648 0.950 . S
H643 C649 0.950 . S
H644 C650 0.949 . S
C645 H640 0.950 . S
C645 C647 1.327 . S
C645 C651 1.429 . S
C646 C638 1.574 . S
C646 H641 0.949 . S
C646 C652 1.368 . S
C647 C631 1.349 . S
C647 H639 0.950 . S
C647 C645 1.327 . S
C648 C636 1.349 . S
C648 H642 0.950 . S
C648 C649 1.327 . S
C649 H643 0.950 . S
C649 C648 1.327 . S
C649 C653 1.429 . S
C650 C633 1.574 . S
C650 H644 0.949 . S
C650 C654 1.368 . S
C651 C632 1.429 . S
C651 C645 1.429 . S
C651 C652 1.523 . S
C652 C633 1.368 . S
C652 C646 1.368 . S
C652 C651 1.523 . S
C653 C637 1.429 . S
C653 C649 1.429 . S
C653 C654 1.523 . S
C654 C638 1.368 . S
C654 C650 1.368 . S
C654 C653 1.523 . S
H655 C630 0.950 . S
H656 C632 0.950 . S
H657 C633 0.949 . S
H658 C635 0.950 . S
H659 C637 0.950 . S
C660 C661 1.349 . S
C660 C662 1.327 . S
C660 H685 0.950 . S
C661 C660 1.349 . S
C661 C677 1.349 . S
C662 C660 1.327 . S
C662 C681 1.429 . S
C662 H686 0.950 . S
C663 C680 1.574 . S
C663 C682 1.368 . S
C663 H687 0.949 . S
H664 C668 0.949 . S
C665 C666 1.349 . S
C665 C667 1.327 . S
C665 H688 0.950 . S
C666 C665 1.349 . S
C666 C678 1.349 . S
C667 C665 1.327 . S
C667 C683 1.429 . S
C667 H689 0.950 . S
C668 H664 0.949 . S
C668 C676 1.574 . S
C668 C684 1.368 . S
H669 C677 0.950 . S
H670 C675 0.950 . S
H671 C676 0.949 . S
H672 C678 0.950 . S
H673 C679 0.950 . S
H674 C680 0.949 . S
C675 H670 0.950 . S
C675 C677 1.327 . S
C675 C681 1.429 . S
C676 C668 1.574 . S
C676 H671 0.949 . S
C676 C682 1.368 . S
C677 C661 1.349 . S
C677 H669 0.950 . S
C677 C675 1.327 . S
C678 C666 1.349 . S
C678 H672 0.950 . S
C678 C679 1.327 . S
C679 H673 0.950 . S
C679 C678 1.327 . S
C679 C683 1.429 . S
C680 C663 1.574 . S
C680 H674 0.949 . S
C680 C684 1.368 . S
C681 C662 1.429 . S
C681 C675 1.429 . S
C681 C682 1.523 . S
C682 C663 1.368 . S
C682 C676 1.368 . S
C682 C681 1.523 . S
C683 C667 1.429 . S
C683 C679 1.429 . S
C683 C684 1.523 . S
C684 C668 1.368 . S
C684 C680 1.368 . S
C684 C683 1.523 . S
H685 C660 0.950 . S
H686 C662 0.950 . S
H687 C663 0.949 . S
H688 C665 0.950 . S
H689 C667 0.950 . S
C690 C691 1.349 . S
C690 C692 1.327 . S
C690 H715 0.950 . S
C691 C690 1.349 . S
C691 C707 1.349 . S
C692 C690 1.327 . S
C692 C711 1.429 . S
C692 H716 0.950 . S
C693 C710 1.574 . S
C693 C712 1.368 . S
C693 H717 0.949 . S
H694 C698 0.949 . S
C695 C696 1.349 . S
C695 C697 1.327 . S
C695 H718 0.950 . S
C696 C695 1.349 . S
C696 C708 1.349 . S
C697 C695 1.327 . S
C697 C713 1.429 . S
C697 H719 0.950 . S
C698 H694 0.949 . S
C698 C706 1.574 . S
C698 C714 1.368 . S
H699 C707 0.950 . S
H700 C705 0.950 . S
H701 C706 0.949 . S
H702 C708 0.950 . S
H703 C709 0.950 . S
H704 C710 0.949 . S
C705 H700 0.950 . S
C705 C707 1.327 . S
C705 C711 1.429 . S
C706 C698 1.574 . S
C706 H701 0.949 . S
C706 C712 1.368 . S
C707 C691 1.349 . S
C707 H699 0.950 . S
C707 C705 1.327 . S
C708 C696 1.349 . S
C708 H702 0.950 . S
C708 C709 1.327 . S
C709 H703 0.950 . S
C709 C708 1.327 . S
C709 C713 1.429 . S
C710 C693 1.574 . S
C710 H704 0.949 . S
C710 C714 1.368 . S
C711 C692 1.429 . S
C711 C705 1.429 . S
C711 C712 1.523 . S
C712 C693 1.368 . S
C712 C706 1.368 . S
C712 C711 1.523 . S
C713 C697 1.429 . S
C713 C709 1.429 . S
C713 C714 1.523 . S
C714 C698 1.368 . S
C714 C710 1.368 . S
C714 C713 1.523 . S
H715 C690 0.950 . S
H716 C692 0.950 . S
H717 C693 0.949 . S
H718 C695 0.950 . S
H719 C697 0.950 . S
C720 C721 1.349 . S
C720 C722 1.327 . S
C720 H745 0.950 . S
C721 C720 1.349 . S
C721 C737 1.349 . S
C722 C720 1.327 . S
C722 C741 1.429 . S
C722 H746 0.950 . S
C723 C740 1.574 . S
C723 C742 1.368 . S
C723 H747 0.949 . S
H724 C728 0.949 . S
C725 C726 1.349 . S
C725 C727 1.327 . S
C725 H748 0.950 . S
C726 C725 1.349 . S
C726 C738 1.349 . S
C727 C725 1.327 . S
C727 C743 1.429 . S
C727 H749 0.950 . S
C728 H724 0.949 . S
C728 C736 1.574 . S
C728 C744 1.368 . S
H729 C737 0.950 . S
H730 C735 0.950 . S
H731 C736 0.949 . S
H732 C738 0.950 . S
H733 C739 0.950 . S
H734 C740 0.949 . S
C735 H730 0.950 . S
C735 C737 1.327 . S
C735 C741 1.429 . S
C736 C728 1.574 . S
C736 H731 0.949 . S
C736 C742 1.368 . S
C737 C721 1.349 . S
C737 H729 0.950 . S
C737 C735 1.327 . S
C738 C726 1.349 . S
C738 H732 0.950 . S
C738 C739 1.327 . S
C739 H733 0.950 . S
C739 C738 1.327 . S
C739 C743 1.429 . S
C740 C723 1.574 . S
C740 H734 0.949 . S
C740 C744 1.368 . S
C741 C722 1.429 . S
C741 C735 1.429 . S
C741 C742 1.523 . S
C742 C723 1.368 . S
C742 C736 1.368 . S
C742 C741 1.523 . S
C743 C727 1.429 . S
C743 C739 1.429 . S
C743 C744 1.523 . S
C744 C728 1.368 . S
C744 C740 1.368 . S
C744 C743 1.523 . S
H745 C720 0.950 . S
H746 C722 0.950 . S
H747 C723 0.949 . S
H748 C725 0.950 . S
H749 C727 0.950 . S
C750 C751 1.349 . S
C750 C752 1.327 . S
C750 H775 0.950 . S
C751 C750 1.349 . S
C751 C767 1.349 . S
C752 C750 1.327 . S
C752 C771 1.429 . S
C752 H776 0.950 . S
C753 C770 1.574 . S
C753 C772 1.368 . S
C753 H777 0.949 . S
H754 C758 0.949 . S
C755 C756 1.349 . S
C755 C757 1.327 . S
C755 H778 0.950 . S
C756 C755 1.349 . S
C756 C768 1.349 . S
C757 C755 1.327 . S
C757 C773 1.429 . S
C757 H779 0.950 . S
C758 H754 0.949 . S
C758 C766 1.574 . S
C758 C774 1.368 . S
H759 C767 0.950 . S
H760 C765 0.950 . S
H761 C766 0.949 . S
H762 C768 0.950 1_655 S
H763 C769 0.950 . S
H764 C770 0.949 . S
C765 H760 0.950 . S
C765 C767 1.327 . S
C765 C771 1.429 . S
C766 C758 1.574 . S
C766 H761 0.949 . S
C766 C772 1.368 . S
C767 C751 1.349 . S
C767 H759 0.950 . S
C767 C765 1.327 . S
C768 C756 1.349 . S
C768 H762 0.950 1_455 S
C768 C769 1.327 . S
C769 H763 0.950 . S
C769 C768 1.327 . S
C769 C773 1.429 . S
C770 C753 1.574 . S
C770 H764 0.949 . S
C770 C774 1.368 . S
C771 C752 1.429 . S
C771 C765 1.429 . S
C771 C772 1.523 . S
C772 C753 1.368 . S
C772 C766 1.368 . S
C772 C771 1.523 . S
C773 C757 1.429 . S
C773 C769 1.429 . S
C773 C774 1.523 . S
C774 C758 1.368 . S
C774 C770 1.368 . S
C774 C773 1.523 . S
H775 C750 0.950 . S
H776 C752 0.950 . S
H777 C753 0.949 . S
H778 C755 0.950 . S
H779 C757 0.950 . S
C780 C781 1.349 . S
C780 C782 1.327 . S
C780 H805 0.950 . S
C781 C780 1.349 . S
C781 C797 1.349 . S
C782 C780 1.327 . S
C782 C801 1.429 . S
C782 H806 0.950 . S
C783 C800 1.574 . S
C783 C802 1.368 . S
C783 H807 0.949 . S
H784 C788 0.949 . S
C785 C786 1.349 . S
C785 C787 1.327 . S
C785 H808 0.950 . S
C786 C785 1.349 . S
C786 C798 1.349 . S
C787 C785 1.327 . S
C787 C803 1.429 . S
C787 H809 0.950 . S
C788 H784 0.949 . S
C788 C796 1.574 . S
C788 C804 1.368 . S
H789 C797 0.950 . S
H790 C795 0.950 . S
H791 C796 0.949 . S
H792 C798 0.950 . S
H793 C799 0.950 . S
H794 C800 0.949 . S
C795 H790 0.950 . S
C795 C797 1.327 . S
C795 C801 1.429 . S
C796 C788 1.574 . S
C796 H791 0.949 . S
C796 C802 1.368 . S
C797 C781 1.349 . S
C797 H789 0.950 . S
C797 C795 1.327 . S
C798 C786 1.349 . S
C798 H792 0.950 . S
C798 C799 1.327 . S
C799 H793 0.950 . S
C799 C798 1.327 . S
C799 C803 1.429 . S
C800 C783 1.574 . S
C800 H794 0.949 . S
C800 C804 1.368 . S
C801 C782 1.429 . S
C801 C795 1.429 . S
C801 C802 1.523 . S
C802 C783 1.368 . S
C802 C796 1.368 . S
C802 C801 1.523 . S
C803 C787 1.429 . S
C803 C799 1.429 . S
C803 C804 1.523 . S
C804 C788 1.368 . S
C804 C800 1.368 . S
C804 C803 1.523 . S
H805 C780 0.950 . S
H806 C782 0.950 . S
H807 C783 0.949 . S
H808 C785 0.950 . S
H809 C787 0.950 . S
C810 C811 1.349 . S
C810 C812 1.327 . S
C810 H835 0.950 1_655 S
C811 C810 1.349 . S
C811 C827 1.349 . S
C812 C810 1.327 . S
C812 C831 1.429 . S
C812 H836 0.950 1_655 S
C813 C830 1.574 . S
C813 C832 1.368 . S
C813 H837 0.949 . S
H814 C818 0.949 . S
C815 C816 1.349 . S
C815 C817 1.327 . S
C815 H838 0.950 . S
C816 C815 1.349 . S
C816 C828 1.349 1_655 S
C817 C815 1.327 . S
C817 C833 1.429 . S
C817 H839 0.950 . S
C818 H814 0.949 . S
C818 C826 1.575 1_455 S
C818 C834 1.368 1_455 S
H819 C827 0.950 . S
H820 C825 0.950 . S
H821 C826 0.942 1_455 S
H822 C828 0.950 . S
H823 C829 0.950 . S
H824 C830 0.949 . S
C825 H820 0.950 . S
C825 C827 1.327 . S
C825 C831 1.429 . S
C826 C818 1.575 1_655 S
C826 H821 0.942 1_655 S
C826 C832 1.375 . S
C827 C811 1.349 . S
C827 H819 0.950 . S
C827 C825 1.327 . S
C828 C816 1.349 1_455 S
C828 H822 0.950 . S
C828 C829 1.327 . S
C829 H823 0.950 . S
C829 C828 1.327 . S
C829 C833 1.429 1_455 S
C830 C813 1.574 . S
C830 H824 0.949 . S
C830 C834 1.368 . S
C831 C812 1.429 . S
C831 C825 1.429 . S
C831 C832 1.523 . S
C832 C813 1.368 . S
C832 C826 1.375 . S
C832 C831 1.523 . S
C833 C817 1.429 . S
C833 C829 1.429 1_655 S
C833 C834 1.523 . S
C834 C818 1.368 1_655 S
C834 C830 1.368 . S
C834 C833 1.523 . S
H835 C810 0.950 1_455 S
H836 C812 0.950 1_455 S
H837 C813 0.949 . S
H838 C815 0.950 . S
H839 C817 0.950 . S
C840 C841 1.349 . S
C840 C842 1.327 . S
C840 H865 0.950 . S
C841 C840 1.349 . S
C841 C857 1.349 . S
C842 C840 1.327 . S
C842 C861 1.429 . S
C842 H866 0.950 . S
C843 C860 1.574 . S
C843 C862 1.368 . S
C843 H867 0.949 . S
H844 C848 0.949 . S
C845 C846 1.349 . S
C845 C847 1.327 . S
C845 H868 0.950 . S
C846 C845 1.349 . S
C846 C858 1.349 . S
C847 C845 1.327 . S
C847 C863 1.429 . S
C847 H869 0.950 . S
C848 H844 0.949 . S
C848 C856 1.574 . S
C848 C864 1.368 . S
H849 C857 0.950 . S
H850 C855 0.950 . S
H851 C856 0.949 . S
H852 C858 0.989 . S
H853 C859 0.950 . S
H854 C860 0.949 . S
C855 H850 0.950 . S
C855 C857 1.327 . S
C855 C861 1.429 . S
C856 C848 1.574 . S
C856 H851 0.949 . S
C856 C862 1.368 . S
C857 C841 1.349 . S
C857 H849 0.950 . S
C857 C855 1.327 . S
C858 C846 1.349 . S
C858 H852 0.989 . S
C858 C859 1.327 . S
C859 H853 0.950 . S
C859 C858 1.327 . S
C859 C863 1.429 . S
C860 C843 1.574 . S
C860 H854 0.949 . S
C860 C864 1.368 . S
C861 C842 1.429 . S
C861 C855 1.429 . S
C861 C862 1.523 . S
C862 C843 1.368 . S
C862 C856 1.368 . S
C862 C861 1.523 . S
C863 C847 1.429 . S
C863 C859 1.429 . S
C863 C864 1.523 . S
C864 C848 1.368 . S
C864 C860 1.368 . S
C864 C863 1.523 . S
H865 C840 0.950 . S
H866 C842 0.950 . S
H867 C843 0.949 . S
H868 C845 0.950 . S
H869 C847 0.950 . S
C870 C871 1.349 . S
C870 C872 1.327 . S
C870 H895 0.950 . S
C871 C870 1.349 . S
C871 C887 1.349 . S
C872 C870 1.327 . S
C872 C891 1.429 . S
C872 H896 0.950 . S
C873 C890 1.574 . S
C873 C892 1.368 . S
C873 H897 0.949 . S
H874 C878 0.949 . S
C875 C876 1.349 . S
C875 C877 1.327 . S
C875 H898 0.950 . S
C876 C875 1.349 . S
C876 C888 1.349 . S
C877 C875 1.327 . S
C877 C893 1.429 . S
C877 H899 0.950 . S
C878 H874 0.949 . S
C878 C886 1.574 . S
C878 C894 1.368 . S
H879 C887 0.950 . S
H880 C885 0.950 . S
H881 C886 0.949 . S
H882 C888 0.950 . S
H883 C889 0.950 . S
H884 C890 0.949 . S
C885 H880 0.950 . S
C885 C887 1.327 . S
C885 C891 1.429 . S
C886 C878 1.574 . S
C886 H881 0.949 . S
C886 C892 1.368 . S
C887 C871 1.349 . S
C887 H879 0.950 . S
C887 C885 1.327 . S
C888 C876 1.349 . S
C888 H882 0.950 . S
C888 C889 1.327 . S
C889 H883 0.950 . S
C889 C888 1.327 . S
C889 C893 1.429 . S
C890 C873 1.574 . S
C890 H884 0.949 . S
C890 C894 1.368 . S
C891 C872 1.429 . S
C891 C885 1.429 . S
C891 C892 1.523 . S
C892 C873 1.368 . S
C892 C886 1.368 . S
C892 C891 1.523 . S
C893 C877 1.429 . S
C893 C889 1.429 . S
C893 C894 1.523 . S
C894 C878 1.368 . S
C894 C890 1.368 . S
C894 C893 1.523 . S
H895 C870 0.950 . S
H896 C872 0.950 . S
H897 C873 0.949 . S
H898 C875 0.950 . S
H899 C877 0.950 . S
C900 C901 1.349 . S
C900 C902 1.327 1_545 S
C900 H925 0.950 . S
C901 C900 1.349 . S
C901 C917 1.349 1_545 S
C902 C900 1.327 1_565 S
C902 C921 1.429 . S
C902 H926 0.910 1_566 S
C903 C920 1.574 . S
C903 C922 1.368 . S
C903 H927 0.949 . S
H904 C908 0.949 . S
C905 C906 1.349 1_556 S
C905 C907 1.327 . S
C905 H928 0.950 . S
C906 C905 1.349 1_554 S
C906 C918 1.349 . S
C907 C905 1.327 . S
C907 C923 1.429 . S
C907 H929 0.950 . S
C908 H904 0.949 . S
C908 C916 1.580 . S
C908 C924 1.368 1_554 S
H909 C917 0.950 . S
H910 C915 0.950 . S
H911 C916 0.956 . S
H912 C918 0.950 . S
H913 C919 0.950 . S
H914 C920 0.949 . S
C915 H910 0.950 . S
C915 C917 1.327 . S
C915 C921 1.429 . S
C916 C908 1.580 . S
C916 H911 0.956 . S
C916 C922 1.355 1_554 S
C917 C901 1.349 1_565 S
C917 H909 0.950 . S
C917 C915 1.327 . S
C918 C906 1.349 . S
C918 H912 0.950 . S
C918 C919 1.327 . S
C919 H913 0.950 . S
C919 C918 1.327 . S
C919 C923 1.429 1_554 S
C920 C903 1.574 . S
C920 H914 0.949 . S
C920 C924 1.368 . S
C921 C902 1.429 . S
C921 C915 1.429 . S
C921 C922 1.523 . S
C922 C903 1.368 . S
C922 C916 1.355 1_556 S
C922 C921 1.523 . S
C923 C907 1.429 . S
C923 C919 1.429 1_556 S
C923 C924 1.523 . S
C924 C908 1.368 1_556 S
C924 C920 1.368 . S
C924 C923 1.523 . S
H925 C900 0.950 . S
H926 C902 0.910 1_544 S
H927 C903 0.949 . S
H928 C905 0.950 . S
H929 C907 0.950 . S
C930 C931 1.349 . S
C930 C932 1.327 . S
C930 H955 0.950 . S
C931 C930 1.349 . S
C931 C947 1.349 . S
C932 C930 1.327 . S
C932 C951 1.429 . S
C932 H956 0.950 . S
C933 C950 1.574 . S
C933 C952 1.368 . S
C933 H957 0.949 . S
H934 C938 0.949 . S
C935 C936 1.349 . S
C935 C937 1.327 . S
C935 H958 0.950 . S
C936 C935 1.349 . S
C936 C948 1.349 . S
C937 C935 1.327 . S
C937 C953 1.429 . S
C937 H959 0.950 . S
C938 H934 0.949 . S
C938 C946 1.574 . S
C938 C954 1.368 . S
H939 C947 0.950 . S
H940 C945 0.950 . S
H941 C946 0.949 . S
H942 C948 0.950 . S
H943 C949 0.950 . S
H944 C950 0.949 . S
C945 H940 0.950 . S
C945 C947 1.327 . S
C945 C951 1.429 . S
C946 C938 1.574 . S
C946 H941 0.949 . S
C946 C952 1.368 . S
C947 C931 1.349 . S
C947 H939 0.950 . S
C947 C945 1.327 . S
C948 C936 1.349 . S
C948 H942 0.950 . S
C948 C949 1.327 . S
C949 H943 0.950 . S
C949 C948 1.327 . S
C949 C953 1.429 . S
C950 C933 1.574 . S
C950 H944 0.949 . S
C950 C954 1.368 . S
C951 C932 1.429 . S
C951 C945 1.429 . S
C951 C952 1.523 . S
C952 C933 1.368 . S
C952 C946 1.368 . S
C952 C951 1.523 . S
C953 C937 1.429 . S
C953 C949 1.429 . S
C953 C954 1.523 . S
C954 C938 1.368 . S
C954 C950 1.368 . S
C954 C953 1.523 . S
H955 C930 0.950 . S
H956 C932 0.950 . S
H957 C933 0.949 . S
H958 C935 0.950 . S
H959 C937 0.950 . S
C960 C961 1.349 . S
C960 C962 1.327 . S
C960 H985 0.950 . S
C961 C960 1.349 . S
C961 C977 1.349 . S
C962 C960 1.327 . S
C962 C981 1.429 . S
C962 H986 0.950 . S
C963 C980 1.574 . S
C963 C982 1.368 . S
C963 H987 0.949 . S
H964 C968 0.949 . S
C965 C966 1.349 . S
C965 C967 1.327 . S
C965 H988 0.950 . S
C966 C965 1.349 . S
C966 C978 1.349 . S
C967 C965 1.327 . S
C967 C983 1.429 . S
C967 H989 0.950 . S
C968 H964 0.949 . S
C968 C976 1.574 . S
C968 C984 1.368 . S
H969 C977 0.950 . S
H970 C975 0.950 . S
H971 C976 0.949 . S
H972 C978 0.950 . S
H973 C979 0.950 . S
H974 C980 0.949 . S
C975 H970 0.950 . S
C975 C977 1.327 . S
C975 C981 1.429 . S
C976 C968 1.574 . S
C976 H971 0.949 . S
C976 C982 1.368 . S
C977 C961 1.349 . S
C977 H969 0.950 . S
C977 C975 1.327 . S
C978 C966 1.349 . S
C978 H972 0.950 . S
C978 C979 1.327 . S
C979 H973 0.950 . S
C979 C978 1.327 . S
C979 C983 1.429 . S
C980 C963 1.574 . S
C980 H974 0.949 . S
C980 C984 1.368 . S
C981 C962 1.429 . S
C981 C975 1.429 . S
C981 C982 1.523 . S
C982 C963 1.368 . S
C982 C976 1.368 . S
C982 C981 1.523 . S
C983 C967 1.429 . S
C983 C979 1.429 . S
C983 C984 1.523 . S
C984 C968 1.368 . S
C984 C980 1.368 . S
C984 C983 1.523 . S
H985 C960 0.950 . S
H986 C962 0.950 . S
H987 C963 0.949 . S
H988 C965 0.950 . S
H989 C967 0.950 . S
C990 C991 1.349 . S
C990 C992 1.327 . S
C990 H1015 0.950 . S
C991 C990 1.349 . S
C991 C1007 1.349 . S
C992 C990 1.327 . S
C992 C1011 1.429 . S
C992 H1016 0.950 . S
C993 C1010 1.574 . S
C993 C1012 1.368 . S
C993 H1017 0.949 . S
H994 C998 0.949 . S
C995 C996 1.349 . S
C995 C997 1.327 . S
C995 H1018 0.950 . S
C996 C995 1.349 . S
C996 C1008 1.349 . S
C997 C995 1.327 . S
C997 C1013 1.429 . S
C997 H1019 0.950 . S
C998 H994 0.949 . S
C998 C1006 1.574 . S
C998 C1014 1.368 . S
H999 C1007 0.950 . S
H1000 C1005 0.950 . S
H1001 C1006 0.949 . S
H1002 C1008 0.950 . S
H1003 C1009 0.950 . S
H1004 C1010 0.949 . S
C1005 H1000 0.950 . S
C1005 C1007 1.327 . S
C1005 C1011 1.429 . S
C1006 C998 1.574 . S
C1006 H1001 0.949 . S
C1006 C1012 1.368 . S
C1007 C991 1.349 . S
C1007 H999 0.950 . S
C1007 C1005 1.327 . S
C1008 C996 1.349 . S
C1008 H1002 0.950 . S
C1008 C1009 1.327 . S
C1009 H1003 0.950 . S
C1009 C1008 1.327 . S
C1009 C1013 1.429 . S
C1010 C993 1.574 . S
C1010 H1004 0.949 . S
C1010 C1014 1.368 . S
C1011 C992 1.429 . S
C1011 C1005 1.429 . S
C1011 C1012 1.523 . S
C1012 C993 1.368 . S
C1012 C1006 1.368 . S
C1012 C1011 1.523 . S
C1013 C997 1.429 . S
C1013 C1009 1.429 . S
C1013 C1014 1.523 . S
C1014 C998 1.368 . S
C1014 C1010 1.368 . S
C1014 C1013 1.523 . S
H1015 C990 0.950 . S
H1016 C992 0.950 . S
H1017 C993 0.949 . S
H1018 C995 0.950 . S
H1019 C997 0.950 . S
C1020 C1021 1.349 . S
C1020 C1022 1.327 . S
C1020 H1045 0.950 1_545 S
C1021 C1020 1.349 . S
C1021 C1037 1.349 . S
C1022 C1020 1.327 . S
C1022 C1041 1.429 . S
C1022 H1046 0.950 . S
C1023 C1040 1.574 . S
C1023 C1042 1.368 . S
C1023 H1047 0.949 . S
H1024 C1028 0.949 . S
C1025 C1026 1.349 . S
C1025 C1027 1.327 . S
C1025 H1048 0.950 . S
C1026 C1025 1.349 . S
C1026 C1038 1.349 . S
C1027 C1025 1.327 . S
C1027 C1043 1.429 . S
C1027 H1049 0.950 . S
C1028 H1024 0.949 . S
C1028 C1036 1.574 . S
C1028 C1044 1.368 . S
H1029 C1037 0.950 . S
H1030 C1035 0.950 . S
H1031 C1036 0.949 . S
H1032 C1038 0.950 . S
H1033 C1039 0.950 . S
H1034 C1040 0.949 . S
C1035 H1030 0.950 . S
C1035 C1037 1.327 . S
C1035 C1041 1.429 . S
C1036 C1028 1.574 . S
C1036 H1031 0.949 . S
C1036 C1042 1.368 . S
C1037 C1021 1.349 . S
C1037 H1029 0.950 . S
C1037 C1035 1.327 . S
C1038 C1026 1.349 . S
C1038 H1032 0.950 . S
C1038 C1039 1.327 . S
C1039 H1033 0.950 . S
C1039 C1038 1.327 . S
C1039 C1043 1.429 . S
C1040 C1023 1.574 . S
C1040 H1034 0.949 . S
C1040 C1044 1.368 . S
C1041 C1022 1.429 . S
C1041 C1035 1.429 . S
C1041 C1042 1.523 . S
C1042 C1023 1.368 . S
C1042 C1036 1.368 . S
C1042 C1041 1.523 . S
C1043 C1027 1.429 . S
C1043 C1039 1.429 . S
C1043 C1044 1.523 . S
C1044 C1028 1.368 . S
C1044 C1040 1.368 . S
C1044 C1043 1.523 . S
H1045 C1020 0.950 1_565 S
H1046 C1022 0.950 . S
H1047 C1023 0.949 . S
H1048 C1025 0.950 . S
H1049 C1027 0.950 . S
C1050 C1051 1.349 . S
C1050 C1052 1.327 . S
C1050 H1075 0.950 . S
C1051 C1050 1.349 . S
C1051 C1067 1.349 . S
C1052 C1050 1.327 . S
C1052 C1071 1.429 . S
C1052 H1076 0.950 . S
C1053 C1070 1.574 . S
C1053 C1072 1.368 . S
C1053 H1077 0.949 . S
H1054 C1058 0.949 . S
C1055 C1056 1.349 . S
C1055 C1057 1.327 . S
C1055 H1078 0.950 . S
C1056 C1055 1.349 . S
C1056 C1068 1.349 . S
C1057 C1055 1.327 . S
C1057 C1073 1.429 . S
C1057 H1079 0.950 . S
C1058 H1054 0.949 . S
C1058 C1066 1.574 . S
C1058 C1074 1.368 . S
H1059 C1067 0.950 . S
H1060 C1065 0.950 . S
H1061 C1066 0.949 . S
H1062 C1068 0.950 . S
H1063 C1069 0.950 . S
H1064 C1070 0.949 . S
C1065 H1060 0.950 . S
C1065 C1067 1.327 . S
C1065 C1071 1.429 . S
C1066 C1058 1.574 . S
C1066 H1061 0.949 . S
C1066 C1072 1.368 . S
C1067 C1051 1.349 . S
C1067 H1059 0.950 . S
C1067 C1065 1.327 . S
C1068 C1056 1.349 . S
C1068 H1062 0.950 . S
C1068 C1069 1.327 . S
C1069 H1063 0.950 . S
C1069 C1068 1.327 . S
C1069 C1073 1.429 . S
C1070 C1053 1.574 . S
C1070 H1064 0.949 . S
C1070 C1074 1.368 . S
C1071 C1052 1.429 . S
C1071 C1065 1.429 . S
C1071 C1072 1.523 . S
C1072 C1053 1.368 . S
C1072 C1066 1.368 . S
C1072 C1071 1.523 . S
C1073 C1057 1.429 . S
C1073 C1069 1.429 . S
C1073 C1074 1.523 . S
C1074 C1058 1.368 . S
C1074 C1070 1.368 . S
C1074 C1073 1.523 . S
H1075 C1050 0.950 . S
H1076 C1052 0.950 . S
H1077 C1053 0.949 . S
H1078 C1055 0.950 . S
H1079 C1057 0.950 . S
C1080 C1081 1.349 . S
C1080 C1082 1.327 . S
C1080 H1105 0.950 . S
C1081 C1080 1.349 . S
C1081 C1097 1.349 . S
C1082 C1080 1.327 . S
C1082 C1101 1.429 . S
C1082 H1106 0.950 . S
C1083 C1100 1.574 . S
C1083 C1102 1.368 . S
C1083 H1107 0.949 . S
H1084 C1088 0.949 . S
C1085 C1086 1.349 . S
C1085 C1087 1.327 . S
C1085 H1108 0.950 . S
C1086 C1085 1.349 . S
C1086 C1098 1.349 . S
C1087 C1085 1.327 . S
C1087 C1103 1.429 . S
C1087 H1109 0.950 . S
C1088 H1084 0.949 . S
C1088 C1096 1.574 . S
C1088 C1104 1.368 . S
H1089 C1097 0.950 . S
H1090 C1095 0.950 . S
H1091 C1096 0.949 . S
H1092 C1098 0.950 . S
H1093 C1099 0.950 . S
H1094 C1100 0.949 . S
C1095 H1090 0.950 . S
C1095 C1097 1.327 . S
C1095 C1101 1.429 . S
C1096 C1088 1.574 . S
C1096 H1091 0.949 . S
C1096 C1102 1.368 . S
C1097 C1081 1.349 . S
C1097 H1089 0.950 . S
C1097 C1095 1.327 . S
C1098 C1086 1.349 . S
C1098 H1092 0.950 . S
C1098 C1099 1.327 . S
C1099 H1093 0.950 . S
C1099 C1098 1.327 . S
C1099 C1103 1.429 . S
C1100 C1083 1.574 . S
C1100 H1094 0.949 . S
C1100 C1104 1.368 . S
C1101 C1082 1.429 . S
C1101 C1095 1.429 . S
C1101 C1102 1.523 . S
C1102 C1083 1.368 . S
C1102 C1096 1.368 . S
C1102 C1101 1.523 . S
C1103 C1087 1.429 . S
C1103 C1099 1.429 . S
C1103 C1104 1.523 . S
C1104 C1088 1.368 . S
C1104 C1100 1.368 . S
C1104 C1103 1.523 . S
H1105 C1080 0.950 . S
H1106 C1082 0.950 . S
H1107 C1083 0.949 . S
H1108 C1085 0.950 . S
H1109 C1087 0.950 . S
C1110 C1111 1.349 . S
C1110 C1112 1.327 . S
C1110 H1135 0.950 . S
C1111 C1110 1.349 . S
C1111 C1127 1.362 . S
C1112 C1110 1.327 . S
C1112 C1131 1.429 . S
C1112 H1136 0.950 . S
C1113 C1130 1.574 . S
C1113 C1132 1.368 1_565 S
C1113 H1137 0.949 . S
H1114 C1118 0.949 . S
C1115 C1116 1.349 1_565 S
C1115 C1117 1.327 . S
C1115 H1138 0.950 . S
C1116 C1115 1.349 1_545 S
C1116 C1128 1.349 . S
C1117 C1115 1.327 . S
C1117 C1133 1.429 1_565 S
C1117 H1139 0.950 . S
C1118 H1114 0.949 . S
C1118 C1126 1.574 . S
C1118 C1134 1.368 . S
H1119 C1127 0.938 1_565 S
H1120 C1125 0.950 . S
H1121 C1126 0.949 . S
H1122 C1128 0.950 . S
H1123 C1129 0.950 . S
H1124 C1130 0.949 . S
C1125 H1120 0.950 . S
C1125 C1127 1.326 1_565 S
C1125 C1131 1.429 1_565 S
C1126 C1118 1.574 . S
C1126 H1121 0.949 . S
C1126 C1132 1.368 . S
C1127 C1111 1.362 . S
C1127 H1119 0.938 1_545 S
C1127 C1125 1.326 1_545 S
C1128 C1116 1.349 . S
C1128 H1122 0.950 . S
C1128 C1129 1.327 . S
C1129 H1123 0.950 . S
C1129 C1128 1.327 . S
C1129 C1133 1.429 . S
C1130 C1113 1.574 . S
C1130 H1124 0.949 . S
C1130 C1134 1.368 1_565 S
C1131 C1112 1.429 . S
C1131 C1125 1.429 1_545 S
C1131 C1132 1.523 . S
C1132 C1113 1.368 1_545 S
C1132 C1126 1.368 . S
C1132 C1131 1.523 . S
C1133 C1117 1.429 1_545 S
C1133 C1129 1.429 . S
C1133 C1134 1.523 . S
C1134 C1118 1.368 . S
C1134 C1130 1.368 1_545 S
C1134 C1133 1.523 . S
H1135 C1110 0.950 . S
H1136 C1112 0.950 . S
H1137 C1113 0.949 . S
H1138 C1115 0.950 . S
H1139 C1117 0.950 . S
C1140 C1141 1.349 . S
C1140 C1142 1.327 . S
C1140 H1165 0.950 . S
C1141 C1140 1.349 . S
C1141 C1157 1.349 . S
C1142 C1140 1.327 . S
C1142 C1161 1.429 . S
C1142 H1166 0.950 . S
C1143 C1160 1.574 . S
C1143 C1162 1.368 . S
C1143 H1167 0.949 . S
H1144 C1148 0.949 . S
C1145 C1146 1.349 . S
C1145 C1147 1.327 . S
C1145 H1168 0.950 . S
C1146 C1145 1.349 . S
C1146 C1158 1.349 . S
C1147 C1145 1.327 . S
C1147 C1163 1.429 . S
C1147 H1169 0.950 . S
C1148 H1144 0.949 . S
C1148 C1156 1.574 . S
C1148 C1164 1.368 . S
H1149 C1157 0.950 . S
H1150 C1155 0.950 . S
H1151 C1156 0.949 . S
H1152 C1158 0.950 . S
H1153 C1159 0.950 . S
H1154 C1160 0.949 . S
C1155 H1150 0.950 . S
C1155 C1157 1.327 . S
C1155 C1161 1.429 . S
C1156 C1148 1.574 . S
C1156 H1151 0.949 . S
C1156 C1162 1.368 . S
C1157 C1141 1.349 . S
C1157 H1149 0.950 . S
C1157 C1155 1.327 . S
C1158 C1146 1.349 . S
C1158 H1152 0.950 . S
C1158 C1159 1.327 . S
C1159 H1153 0.950 . S
C1159 C1158 1.327 . S
C1159 C1163 1.429 . S
C1160 C1143 1.574 . S
C1160 H1154 0.949 . S
C1160 C1164 1.368 . S
C1161 C1142 1.429 . S
C1161 C1155 1.429 . S
C1161 C1162 1.523 . S
C1162 C1143 1.368 . S
C1162 C1156 1.368 . S
C1162 C1161 1.523 . S
C1163 C1147 1.429 . S
C1163 C1159 1.429 . S
C1163 C1164 1.523 . S
C1164 C1148 1.368 . S
C1164 C1160 1.368 . S
C1164 C1163 1.523 . S
H1165 C1140 0.950 . S
H1166 C1142 0.950 . S
H1167 C1143 0.949 . S
H1168 C1145 0.950 . S
H1169 C1147 0.950 . S
C1170 C1171 1.349 . S
C1170 C1172 1.327 . S
C1170 H1195 0.950 . S
C1171 C1170 1.349 . S
C1171 C1187 1.349 . S
C1172 C1170 1.327 . S
C1172 C1191 1.429 . S
C1172 H1196 0.950 . S
C1173 C1190 1.574 . S
C1173 C1192 1.368 . S
C1173 H1197 0.949 . S
H1174 C1178 0.949 . S
C1175 C1176 1.349 . S
C1175 C1177 1.327 . S
C1175 H1198 0.950 . S
C1176 C1175 1.349 . S
C1176 C1188 1.349 . S
C1177 C1175 1.327 . S
C1177 C1193 1.429 . S
C1177 H1199 0.950 . S
C1178 H1174 0.949 . S
C1178 C1186 1.574 . S
C1178 C1194 1.368 . S
H1179 C1187 0.950 . S
H1180 C1185 0.950 . S
H1181 C1186 0.949 . S
H1182 C1188 0.950 . S
H1183 C1189 0.950 . S
H1184 C1190 0.949 . S
C1185 H1180 0.950 . S
C1185 C1187 1.327 . S
C1185 C1191 1.429 . S
C1186 C1178 1.574 . S
C1186 H1181 0.949 . S
C1186 C1192 1.368 . S
C1187 C1171 1.349 . S
C1187 H1179 0.950 . S
C1187 C1185 1.327 . S
C1188 C1176 1.349 . S
C1188 H1182 0.950 . S
C1188 C1189 1.327 . S
C1189 H1183 0.950 . S
C1189 C1188 1.327 . S
C1189 C1193 1.429 . S
C1190 C1173 1.574 . S
C1190 H1184 0.949 . S
C1190 C1194 1.368 . S
C1191 C1172 1.429 . S
C1191 C1185 1.429 . S
C1191 C1192 1.523 . S
C1192 C1173 1.368 . S
C1192 C1186 1.368 . S
C1192 C1191 1.523 . S
C1193 C1177 1.429 . S
C1193 C1189 1.429 . S
C1193 C1194 1.523 . S
C1194 C1178 1.368 . S
C1194 C1190 1.368 . S
C1194 C1193 1.523 . S
H1195 C1170 0.950 . S
H1196 C1172 0.950 . S
H1197 C1173 0.949 . S
H1198 C1175 0.950 . S
H1199 C1177 0.950 . S
C1200 C1201 1.349 . S
C1200 C1202 1.327 . S
C1200 H1225 0.950 . S
C1201 C1200 1.349 . S
C1201 C1217 1.349 . S
C1202 C1200 1.327 . S
C1202 C1221 1.429 . S
C1202 H1226 0.950 . S
C1203 C1220 1.574 . S
C1203 C1222 1.368 . S
C1203 H1227 0.949 . S
H1204 C1208 0.949 . S
C1205 C1206 1.349 . S
C1205 C1207 1.327 . S
C1205 H1228 0.950 . S
C1206 C1205 1.349 . S
C1206 C1218 1.349 . S
C1207 C1205 1.327 . S
C1207 C1223 1.429 . S
C1207 H1229 0.950 . S
C1208 H1204 0.949 . S
C1208 C1216 1.574 . S
C1208 C1224 1.368 . S
H1209 C1217 0.950 . S
H1210 C1215 0.950 . S
H1211 C1216 0.949 . S
H1212 C1218 0.950 . S
H1213 C1219 0.950 . S
H1214 C1220 0.949 . S
C1215 H1210 0.950 . S
C1215 C1217 1.327 . S
C1215 C1221 1.429 . S
C1216 C1208 1.574 . S
C1216 H1211 0.949 . S
C1216 C1222 1.368 . S
C1217 C1201 1.349 . S
C1217 H1209 0.950 . S
C1217 C1215 1.327 . S
C1218 C1206 1.349 . S
C1218 H1212 0.950 . S
C1218 C1219 1.327 . S
C1219 H1213 0.950 . S
C1219 C1218 1.327 . S
C1219 C1223 1.429 . S
C1220 C1203 1.574 . S
C1220 H1214 0.949 . S
C1220 C1224 1.368 . S
C1221 C1202 1.429 . S
C1221 C1215 1.429 . S
C1221 C1222 1.523 . S
C1222 C1203 1.368 . S
C1222 C1216 1.368 . S
C1222 C1221 1.523 . S
C1223 C1207 1.429 . S
C1223 C1219 1.429 . S
C1223 C1224 1.523 . S
C1224 C1208 1.368 . S
C1224 C1220 1.368 . S
C1224 C1223 1.523 . S
H1225 C1200 0.950 . S
H1226 C1202 0.950 . S
H1227 C1203 0.949 . S
H1228 C1205 0.950 . S
H1229 C1207 0.950 . S
C1230 C1231 1.349 . S
C1230 C1232 1.327 . S
C1230 H1255 0.950 . S
C1231 C1230 1.349 . S
C1231 C1247 1.349 . S
C1232 C1230 1.327 . S
C1232 C1251 1.429 . S
C1232 H1256 0.950 1_455 S
C1233 C1250 1.574 1_455 S
C1233 C1252 1.368 1_455 S
C1233 H1257 0.949 . S
H1234 C1238 0.949 . S
C1235 C1236 1.349 . S
C1235 C1237 1.327 . S
C1235 H1258 0.950 . S
C1236 C1235 1.349 . S
C1236 C1248 1.349 . S
C1237 C1235 1.327 . S
C1237 C1253 1.429 . S
C1237 H1259 0.950 . S
C1238 H1234 0.949 . S
C1238 C1246 1.574 . S
C1238 C1254 1.368 . S
H1239 C1247 0.950 . S
H1240 C1245 0.950 . S
H1241 C1246 0.949 . S
H1242 C1248 0.950 . S
H1243 C1249 0.950 . S
H1244 C1250 0.949 . S
C1245 H1240 0.950 . S
C1245 C1247 1.327 . S
C1245 C1251 1.429 . S
C1246 C1238 1.574 . S
C1246 H1241 0.949 . S
C1246 C1252 1.368 . S
C1247 C1231 1.349 . S
C1247 H1239 0.950 . S
C1247 C1245 1.327 . S
C1248 C1236 1.349 . S
C1248 H1242 0.950 . S
C1248 C1249 1.327 . S
C1249 H1243 0.950 . S
C1249 C1248 1.327 . S
C1249 C1253 1.429 . S
C1250 C1233 1.574 1_655 S
C1250 H1244 0.949 . S
C1250 C1254 1.368 . S
C1251 C1232 1.429 . S
C1251 C1245 1.429 . S
C1251 C1252 1.523 1_455 S
C1252 C1233 1.368 1_655 S
C1252 C1246 1.368 . S
C1252 C1251 1.523 1_655 S
C1253 C1237 1.429 . S
C1253 C1249 1.429 . S
C1253 C1254 1.523 . S
C1254 C1238 1.368 . S
C1254 C1250 1.368 . S
C1254 C1253 1.523 . S
H1255 C1230 0.950 . S
H1256 C1232 0.950 1_655 S
H1257 C1233 0.949 . S
H1258 C1235 0.950 . S
H1259 C1237 0.950 . S
C1260 C1261 1.349 . S
C1260 C1262 1.327 . S
C1260 H1285 0.950 . S
C1261 C1260 1.349 . S
C1261 C1277 1.349 . S
C1262 C1260 1.327 . S
C1262 C1281 1.429 . S
C1262 H1286 0.950 . S
C1263 C1280 1.574 . S
C1263 C1282 1.368 . S
C1263 H1287 0.949 . S
H1264 C1268 0.949 . S
C1265 C1266 1.349 . S
C1265 C1267 1.327 . S
C1265 H1288 0.950 . S
C1266 C1265 1.349 . S
C1266 C1278 1.349 . S
C1267 C1265 1.327 . S
C1267 C1283 1.429 . S
C1267 H1289 0.950 . S
C1268 H1264 0.949 . S
C1268 C1276 1.574 . S
C1268 C1284 1.368 . S
H1269 C1277 0.950 . S
H1270 C1275 0.950 . S
H1271 C1276 0.949 . S
H1272 C1278 0.950 . S
H1273 C1279 0.950 . S
H1274 C1280 0.949 . S
C1275 H1270 0.950 . S
C1275 C1277 1.327 . S
C1275 C1281 1.429 . S
C1276 C1268 1.574 . S
C1276 H1271 0.949 . S
C1276 C1282 1.368 . S
C1277 C1261 1.349 . S
C1277 H1269 0.950 . S
C1277 C1275 1.327 . S
C1278 C1266 1.349 . S
C1278 H1272 0.950 . S
C1278 C1279 1.327 . S
C1279 H1273 0.950 . S
C1279 C1278 1.327 . S
C1279 C1283 1.429 . S
C1280 C1263 1.574 . S
C1280 H1274 0.949 . S
C1280 C1284 1.368 . S
C1281 C1262 1.429 . S
C1281 C1275 1.429 . S
C1281 C1282 1.523 . S
C1282 C1263 1.368 . S
C1282 C1276 1.368 . S
C1282 C1281 1.523 . S
C1283 C1267 1.429 . S
C1283 C1279 1.429 . S
C1283 C1284 1.523 . S
C1284 C1268 1.368 . S
C1284 C1280 1.368 . S
C1284 C1283 1.523 . S
H1285 C1260 0.950 . S
H1286 C1262 0.950 . S
H1287 C1263 0.949 . S
H1288 C1265 0.950 . S
H1289 C1267 0.950 . S
C1290 C1291 1.349 . S
C1290 C1292 1.327 . S
C1290 H1315 0.950 . S
C1291 C1290 1.349 . S
C1291 C1307 1.349 . S
C1292 C1290 1.327 . S
C1292 C1311 1.429 . S
C1292 H1316 0.950 . S
C1293 C1310 1.574 . S
C1293 C1312 1.368 . S
C1293 H1317 0.949 . S
H1294 C1298 0.949 . S
C1295 C1296 1.349 . S
C1295 C1297 1.327 . S
C1295 H1318 0.950 . S
C1296 C1295 1.349 . S
C1296 C1308 1.349 . S
C1297 C1295 1.327 . S
C1297 C1313 1.429 . S
C1297 H1319 0.950 . S
C1298 H1294 0.949 . S
C1298 C1306 1.574 . S
C1298 C1314 1.368 . S
H1299 C1307 0.950 1_655 S
H1300 C1305 0.950 . S
H1301 C1306 0.949 . S
H1302 C1308 0.950 . S
H1303 C1309 0.950 . S
H1304 C1310 0.949 . S
C1305 H1300 0.950 . S
C1305 C1307 1.327 . S
C1305 C1311 1.429 . S
C1306 C1298 1.574 . S
C1306 H1301 0.949 . S
C1306 C1312 1.368 . S
C1307 C1291 1.349 . S
C1307 H1299 0.950 1_455 S
C1307 C1305 1.327 . S
C1308 C1296 1.349 . S
C1308 H1302 0.950 . S
C1308 C1309 1.327 . S
C1309 H1303 0.950 . S
C1309 C1308 1.327 . S
C1309 C1313 1.429 . S
C1310 C1293 1.574 . S
C1310 H1304 0.949 . S
C1310 C1314 1.368 . S
C1311 C1292 1.429 . S
C1311 C1305 1.429 . S
C1311 C1312 1.523 . S
C1312 C1293 1.368 . S
C1312 C1306 1.368 . S
C1312 C1311 1.523 . S
C1313 C1297 1.429 . S
C1313 C1309 1.429 . S
C1313 C1314 1.523 . S
C1314 C1298 1.368 . S
C1314 C1310 1.368 . S
C1314 C1313 1.523 . S
H1315 C1290 0.950 . S
H1316 C1292 0.950 . S
H1317 C1293 0.949 . S
H1318 C1295 0.950 . S
H1319 C1297 0.950 . S
C1320 C1321 1.349 . S
C1320 C1322 1.327 . S
C1320 H1345 0.950 . S
C1321 C1320 1.349 . S
C1321 C1337 1.349 . S
C1322 C1320 1.327 . S
C1322 C1341 1.429 . S
C1322 H1346 0.950 . S
C1323 C1340 1.574 . S
C1323 C1342 1.368 . S
C1323 H1347 0.949 . S
H1324 C1328 0.949 . S
C1325 C1326 1.349 . S
C1325 C1327 1.327 . S
C1325 H1348 0.950 . S
C1326 C1325 1.349 . S
C1326 C1338 1.349 . S
C1327 C1325 1.327 . S
C1327 C1343 1.429 . S
C1327 H1349 0.950 . S
C1328 H1324 0.949 . S
C1328 C1336 1.574 . S
C1328 C1344 1.368 . S
H1329 C1337 0.950 . S
H1330 C1335 0.950 . S
H1331 C1336 0.949 . S
H1332 C1338 0.950 . S
H1333 C1339 0.950 . S
H1334 C1340 0.949 . S
C1335 H1330 0.950 . S
C1335 C1337 1.327 . S
C1335 C1341 1.429 . S
C1336 C1328 1.574 . S
C1336 H1331 0.949 . S
C1336 C1342 1.368 . S
C1337 C1321 1.349 . S
C1337 H1329 0.950 . S
C1337 C1335 1.327 . S
C1338 C1326 1.349 . S
C1338 H1332 0.950 . S
C1338 C1339 1.327 . S
C1339 H1333 0.950 . S
C1339 C1338 1.327 . S
C1339 C1343 1.429 . S
C1340 C1323 1.574 . S
C1340 H1334 0.949 . S
C1340 C1344 1.368 . S
C1341 C1322 1.429 . S
C1341 C1335 1.429 . S
C1341 C1342 1.523 . S
C1342 C1323 1.368 . S
C1342 C1336 1.368 . S
C1342 C1341 1.523 . S
C1343 C1327 1.429 . S
C1343 C1339 1.429 . S
C1343 C1344 1.523 . S
C1344 C1328 1.368 . S
C1344 C1340 1.368 . S
C1344 C1343 1.523 . S
H1345 C1320 0.950 . S
H1346 C1322 0.950 . S
H1347 C1323 0.949 . S
H1348 C1325 0.950 . S
H1349 C1327 0.950 . S
C1350 C1351 1.349 1_456 S
C1350 C1352 1.327 . S
C1350 H1375 0.950 . S
C1351 C1350 1.349 1_654 S
C1351 C1367 1.349 . S
C1352 C1350 1.327 . S
C1352 C1371 1.429 1_455 S
C1352 H1376 0.950 . S
C1353 C1370 1.574 . S
C1353 C1372 1.368 . S
C1353 H1377 0.949 . S
H1354 C1358 0.949 . S
C1355 C1356 1.349 1_655 S
C1355 C1357 1.327 . S
C1355 H1378 0.950 . S
C1356 C1355 1.349 1_455 S
C1356 C1368 1.349 . S
C1357 C1355 1.327 . S
C1357 C1373 1.429 1_655 S
C1357 H1379 0.950 . S
C1358 H1354 0.949 . S
C1358 C1366 1.574 . S
C1358 C1374 1.368 . S
H1359 C1367 0.950 . S
H1360 C1365 0.950 . S
H1361 C1366 0.949 . S
H1362 C1368 0.950 . S
H1363 C1369 0.950 . S
H1364 C1370 0.949 . S
C1365 H1360 0.950 . S
C1365 C1367 1.327 1_556 S
C1365 C1371 1.429 . S
C1366 C1358 1.574 . S
C1366 H1361 0.949 . S
C1366 C1372 1.368 1_455 S
C1367 C1351 1.349 . S
C1367 H1359 0.950 . S
C1367 C1365 1.327 1_554 S
C1368 C1356 1.349 . S
C1368 H1362 0.950 . S
C1368 C1369 1.327 . S
C1369 H1363 0.950 . S
C1369 C1368 1.327 . S
C1369 C1373 1.429 . S
C1370 C1353 1.574 . S
C1370 H1364 0.949 . S
C1370 C1374 1.368 1_655 S
C1371 C1352 1.429 1_655 S
C1371 C1365 1.429 . S
C1371 C1372 1.523 . S
C1372 C1353 1.368 . S
C1372 C1366 1.368 1_655 S
C1372 C1371 1.523 . S
C1373 C1357 1.429 1_455 S
C1373 C1369 1.429 . S
C1373 C1374 1.523 . S
C1374 C1358 1.368 . S
C1374 C1370 1.368 1_455 S
C1374 C1373 1.523 . S
H1375 C1350 0.950 . S
H1376 C1352 0.950 . S
H1377 C1353 0.949 . S
H1378 C1355 0.950 . S
H1379 C1357 0.950 . S
C1380 C1381 1.349 . S
C1380 C1382 1.327 . S
C1380 H1405 0.950 . S
C1381 C1380 1.349 . S
C1381 C1397 1.349 . S
C1382 C1380 1.327 . S
C1382 C1401 1.429 . S
C1382 H1406 0.950 . S
C1383 C1400 1.574 . S
C1383 C1402 1.368 . S
C1383 H1407 0.949 . S
H1384 C1388 0.949 . S
C1385 C1386 1.349 . S
C1385 C1387 1.327 . S
C1385 H1408 0.950 . S
C1386 C1385 1.349 . S
C1386 C1398 1.349 . S
C1387 C1385 1.327 . S
C1387 C1403 1.429 . S
C1387 H1409 0.950 . S
C1388 H1384 0.949 . S
C1388 C1396 1.574 . S
C1388 C1404 1.368 . S
H1389 C1397 0.950 . S
H1390 C1395 0.950 . S
H1391 C1396 0.949 . S
H1392 C1398 0.950 . S
H1393 C1399 0.950 . S
H1394 C1400 0.949 . S
C1395 H1390 0.950 . S
C1395 C1397 1.327 . S
C1395 C1401 1.429 . S
C1396 C1388 1.574 . S
C1396 H1391 0.949 . S
C1396 C1402 1.368 . S
C1397 C1381 1.349 . S
C1397 H1389 0.950 . S
C1397 C1395 1.327 . S
C1398 C1386 1.349 . S
C1398 H1392 0.950 . S
C1398 C1399 1.327 . S
C1399 H1393 0.950 . S
C1399 C1398 1.327 . S
C1399 C1403 1.429 . S
C1400 C1383 1.574 . S
C1400 H1394 0.949 . S
C1400 C1404 1.368 . S
C1401 C1382 1.429 . S
C1401 C1395 1.429 . S
C1401 C1402 1.523 . S
C1402 C1383 1.368 . S
C1402 C1396 1.368 . S
C1402 C1401 1.523 . S
C1403 C1387 1.429 . S
C1403 C1399 1.429 . S
C1403 C1404 1.523 . S
C1404 C1388 1.368 . S
C1404 C1400 1.368 . S
C1404 C1403 1.523 . S
H1405 C1380 0.950 . S
H1406 C1382 0.950 . S
H1407 C1383 0.949 . S
H1408 C1385 0.950 . S
H1409 C1387 0.950 . S
C1410 C1411 1.349 . S
C1410 C1412 1.327 . S
C1410 H1435 0.950 . S
C1411 C1410 1.349 . S
C1411 C1427 1.349 . S
C1412 C1410 1.327 . S
C1412 C1431 1.429 . S
C1412 H1436 0.950 . S
C1413 C1430 1.574 . S
C1413 C1432 1.368 . S
C1413 H1437 0.949 . S
H1414 C1418 0.917 1_655 S
C1415 C1416 1.349 . S
C1415 C1417 1.327 . S
C1415 H1438 0.950 . S
C1416 C1415 1.349 . S
C1416 C1428 1.349 . S
C1417 C1415 1.327 . S
C1417 C1433 1.429 . S
C1417 H1439 0.950 . S
C1418 H1414 0.917 1_455 S
C1418 C1426 1.574 . S
C1418 C1434 1.368 . S
H1419 C1427 0.950 . S
H1420 C1425 0.950 . S
H1421 C1426 0.949 . S
H1422 C1428 0.950 1_655 S
H1423 C1429 0.950 1_655 S
H1424 C1430 0.949 . S
C1425 H1420 0.950 . S
C1425 C1427 1.327 . S
C1425 C1431 1.429 . S
C1426 C1418 1.574 . S
C1426 H1421 0.949 . S
C1426 C1432 1.368 . S
C1427 C1411 1.349 . S
C1427 H1419 0.950 . S
C1427 C1425 1.327 . S
C1428 C1416 1.349 . S
C1428 H1422 0.950 1_455 S
C1428 C1429 1.327 . S
C1429 H1423 0.950 1_455 S
C1429 C1428 1.327 . S
C1429 C1433 1.429 . S
C1430 C1413 1.574 . S
C1430 H1424 0.949 . S
C1430 C1434 1.368 . S
C1431 C1412 1.429 . S
C1431 C1425 1.429 . S
C1431 C1432 1.523 . S
C1432 C1413 1.368 . S
C1432 C1426 1.368 . S
C1432 C1431 1.523 . S
C1433 C1417 1.429 . S
C1433 C1429 1.429 . S
C1433 C1434 1.523 . S
C1434 C1418 1.368 . S
C1434 C1430 1.368 . S
C1434 C1433 1.523 . S
H1435 C1410 0.950 . S
H1436 C1412 0.950 . S
H1437 C1413 0.949 . S
H1438 C1415 0.950 . S
H1439 C1417 0.950 . S
C1440 C1441 1.349 . S
C1440 C1442 1.327 . S
C1440 H1465 0.950 . S
C1441 C1440 1.349 . S
C1441 C1457 1.349 . S
C1442 C1440 1.327 . S
C1442 C1461 1.429 . S
C1442 H1466 0.950 . S
C1443 C1460 1.574 . S
C1443 C1462 1.368 . S
C1443 H1467 0.949 . S
H1444 C1448 0.949 . S
C1445 C1446 1.349 . S
C1445 C1447 1.327 . S
C1445 H1468 0.950 . S
C1446 C1445 1.349 . S
C1446 C1458 1.349 . S
C1447 C1445 1.327 . S
C1447 C1463 1.429 . S
C1447 H1469 0.950 . S
C1448 H1444 0.949 . S
C1448 C1456 1.574 . S
C1448 C1464 1.368 . S
H1449 C1457 0.950 . S
H1450 C1455 0.950 . S
H1451 C1456 0.949 . S
H1452 C1458 0.950 . S
H1453 C1459 0.950 . S
H1454 C1460 0.949 . S
C1455 H1450 0.950 . S
C1455 C1457 1.327 . S
C1455 C1461 1.429 . S
C1456 C1448 1.574 . S
C1456 H1451 0.949 . S
C1456 C1462 1.368 . S
C1457 C1441 1.349 . S
C1457 H1449 0.950 . S
C1457 C1455 1.327 . S
C1458 C1446 1.349 . S
C1458 H1452 0.950 . S
C1458 C1459 1.327 . S
C1459 H1453 0.950 . S
C1459 C1458 1.327 . S
C1459 C1463 1.429 . S
C1460 C1443 1.574 . S
C1460 H1454 0.949 . S
C1460 C1464 1.368 . S
C1461 C1442 1.429 . S
C1461 C1455 1.429 . S
C1461 C1462 1.523 . S
C1462 C1443 1.368 . S
C1462 C1456 1.368 . S
C1462 C1461 1.523 . S
C1463 C1447 1.429 . S
C1463 C1459 1.429 . S
C1463 C1464 1.523 . S
C1464 C1448 1.368 . S
C1464 C1460 1.368 . S
C1464 C1463 1.523 . S
H1465 C1440 0.950 . S
H1466 C1442 0.950 . S
H1467 C1443 0.949 . S
H1468 C1445 0.950 . S
H1469 C1447 0.950 . S
C1470 C1471 1.349 . S
C1470 C1472 1.327 . S
C1470 H1495 0.950 . S
C1471 C1470 1.349 . S
C1471 C1487 1.349 1_554 S
C1472 C1470 1.327 . S
C1472 C1491 1.429 . S
C1472 H1496 0.950 . S
C1473 C1490 1.574 . S
C1473 C1492 1.368 . S
C1473 H1497 0.949 . S
H1474 C1478 0.949 . S
C1475 C1476 1.349 . S
C1475 C1477 1.327 . S
C1475 H1498 0.950 . S
C1476 C1475 1.349 . S
C1476 C1488 1.349 . S
C1477 C1475 1.327 . S
C1477 C1493 1.429 . S
C1477 H1499 0.950 . S
C1478 H1474 0.949 . S
C1478 C1486 1.574 . S
C1478 C1494 1.368 . S
H1479 C1487 0.950 . S
H1480 C1485 0.950 . S
H1481 C1486 0.949 . S
H1482 C1488 0.950 . S
H1483 C1489 0.950 . S
H1484 C1490 0.949 . S
C1485 H1480 0.950 . S
C1485 C1487 1.327 1_554 S
C1485 C1491 1.429 . S
C1486 C1478 1.574 . S
C1486 H1481 0.949 . S
C1486 C1492 1.368 . S
C1487 C1471 1.349 1_556 S
C1487 H1479 0.950 . S
C1487 C1485 1.327 1_556 S
C1488 C1476 1.349 . S
C1488 H1482 0.950 . S
C1488 C1489 1.327 . S
C1489 H1483 0.950 . S
C1489 C1488 1.327 . S
C1489 C1493 1.429 . S
C1490 C1473 1.574 . S
C1490 H1484 0.949 . S
C1490 C1494 1.368 . S
C1491 C1472 1.429 . S
C1491 C1485 1.429 . S
C1491 C1492 1.523 . S
C1492 C1473 1.368 . S
C1492 C1486 1.368 . S
C1492 C1491 1.523 . S
C1493 C1477 1.429 . S
C1493 C1489 1.429 . S
C1493 C1494 1.523 . S
C1494 C1478 1.368 . S
C1494 C1490 1.368 . S
C1494 C1493 1.523 . S
H1495 C1470 0.950 . S
H1496 C1472 0.950 . S
H1497 C1473 0.949 . S
H1498 C1475 0.950 . S
H1499 C1477 0.950 . S
C1500 C1501 1.349 . S
C1500 C1502 1.327 . S
C1500 H1525 0.950 . S
C1501 C1500 1.349 . S
C1501 C1517 1.349 . S
C1502 C1500 1.327 . S
C1502 C1521 1.429 . S
C1502 H1526 0.950 . S
C1503 C1520 1.574 . S
C1503 C1522 1.368 . S
C1503 H1527 0.949 . S
H1504 C1508 0.949 . S
C1505 C1506 1.349 . S
C1505 C1507 1.327 . S
C1505 H1528 0.950 . S
C1506 C1505 1.349 . S
C1506 C1518 1.349 . S
C1507 C1505 1.327 . S
C1507 C1523 1.429 . S
C1507 H1529 0.950 . S
C1508 H1504 0.949 . S
C1508 C1516 1.574 . S
C1508 C1524 1.368 . S
H1509 C1517 0.950 . S
H1510 C1515 0.950 . S
H1511 C1516 0.949 . S
H1512 C1518 0.950 . S
H1513 C1519 0.950 . S
H1514 C1520 0.949 . S
C1515 H1510 0.950 . S
C1515 C1517 1.327 . S
C1515 C1521 1.429 . S
C1516 C1508 1.574 . S
C1516 H1511 0.949 . S
C1516 C1522 1.368 . S
C1517 C1501 1.349 . S
C1517 H1509 0.950 . S
C1517 C1515 1.327 . S
C1518 C1506 1.349 . S
C1518 H1512 0.950 . S
C1518 C1519 1.327 . S
C1519 H1513 0.950 . S
C1519 C1518 1.327 . S
C1519 C1523 1.429 . S
C1520 C1503 1.574 . S
C1520 H1514 0.949 . S
C1520 C1524 1.368 . S
C1521 C1502 1.429 . S
C1521 C1515 1.429 . S
C1521 C1522 1.523 . S
C1522 C1503 1.368 . S
C1522 C1516 1.368 . S
C1522 C1521 1.523 . S
C1523 C1507 1.429 . S
C1523 C1519 1.429 . S
C1523 C1524 1.523 . S
C1524 C1508 1.368 . S
C1524 C1520 1.368 . S
C1524 C1523 1.523 . S
H1525 C1500 0.950 . S
H1526 C1502 0.950 . S
H1527 C1503 0.949 . S
H1528 C1505 0.950 . S
H1529 C1507 0.950 . S
C1530 C1531 1.349 . S
C1530 C1532 1.327 . S
C1530 H1555 0.950 . S
C1531 C1530 1.349 . S
C1531 C1547 1.349 1_556 S
C1532 C1530 1.327 . S
C1532 C1551 1.429 1_556 S
C1532 H1556 0.950 . S
C1533 C1550 1.574 . S
C1533 C1552 1.368 . S
C1533 H1557 0.949 . S
H1534 C1538 0.949 . S
C1535 C1536 1.349 . S
C1535 C1537 1.327 . S
C1535 H1558 0.950 . S
C1536 C1535 1.349 . S
C1536 C1548 1.349 . S
C1537 C1535 1.327 . S
C1537 C1553 1.429 . S
C1537 H1559 0.950 . S
C1538 H1534 0.949 . S
C1538 C1546 1.574 . S
C1538 C1554 1.368 . S
H1539 C1547 0.950 . S
H1540 C1545 0.950 . S
H1541 C1546 0.949 . S
H1542 C1548 0.950 . S
H1543 C1549 0.950 . S
H1544 C1550 0.949 . S
C1545 H1540 0.950 . S
C1545 C1547 1.327 . S
C1545 C1551 1.429 . S
C1546 C1538 1.574 . S
C1546 H1541 0.949 . S
C1546 C1552 1.368 . S
C1547 C1531 1.349 1_554 S
C1547 H1539 0.950 . S
C1547 C1545 1.327 . S
C1548 C1536 1.349 . S
C1548 H1542 0.950 . S
C1548 C1549 1.327 . S
C1549 H1543 0.950 . S
C1549 C1548 1.327 . S
C1549 C1553 1.429 . S
C1550 C1533 1.574 . S
C1550 H1544 0.949 . S
C1550 C1554 1.368 . S
C1551 C1532 1.429 1_554 S
C1551 C1545 1.429 . S
C1551 C1552 1.523 . S
C1552 C1533 1.368 . S
C1552 C1546 1.368 . S
C1552 C1551 1.523 . S
C1553 C1537 1.429 . S
C1553 C1549 1.429 . S
C1553 C1554 1.523 . S
C1554 C1538 1.368 . S
C1554 C1550 1.368 . S
C1554 C1553 1.523 . S
H1555 C1530 0.950 . S
H1556 C1532 0.950 . S
H1557 C1533 0.949 . S
H1558 C1535 0.950 . S
H1559 C1537 0.950 . S
C1560 C1561 1.349 . S
C1560 C1562 1.327 . S
C1560 H1585 0.950 . S
C1561 C1560 1.349 . S
C1561 C1577 1.349 . S
C1562 C1560 1.327 . S
C1562 C1581 1.429 . S
C1562 H1586 0.950 . S
C1563 C1580 1.574 . S
C1563 C1582 1.368 . S
C1563 H1587 0.949 . S
H1564 C1568 0.949 . S
C1565 C1566 1.349 . S
C1565 C1567 1.327 . S
C1565 H1588 0.950 . S
C1566 C1565 1.349 . S
C1566 C1578 1.349 . S
C1567 C1565 1.327 . S
C1567 C1583 1.429 . S
C1567 H1589 0.950 . S
C1568 H1564 0.949 . S
C1568 C1576 1.574 . S
C1568 C1584 1.368 . S
H1569 C1577 0.950 . S
H1570 C1575 0.950 . S
H1571 C1576 0.949 . S
H1572 C1578 0.950 . S
H1573 C1579 0.950 . S
H1574 C1580 0.949 . S
C1575 H1570 0.950 . S
C1575 C1577 1.327 . S
C1575 C1581 1.429 . S
C1576 C1568 1.574 . S
C1576 H1571 0.949 . S
C1576 C1582 1.368 . S
C1577 C1561 1.349 . S
C1577 H1569 0.950 . S
C1577 C1575 1.327 . S
C1578 C1566 1.349 . S
C1578 H1572 0.950 . S
C1578 C1579 1.327 . S
C1579 H1573 0.950 . S
C1579 C1578 1.327 . S
C1579 C1583 1.429 . S
C1580 C1563 1.574 . S
C1580 H1574 0.949 . S
C1580 C1584 1.368 . S
C1581 C1562 1.429 . S
C1581 C1575 1.429 . S
C1581 C1582 1.523 . S
C1582 C1563 1.368 . S
C1582 C1576 1.368 . S
C1582 C1581 1.523 . S
C1583 C1567 1.429 . S
C1583 C1579 1.429 . S
C1583 C1584 1.523 . S
C1584 C1568 1.368 . S
C1584 C1580 1.368 . S
C1584 C1583 1.523 . S
H1585 C1560 0.950 . S
H1586 C1562 0.950 . S
H1587 C1563 0.949 . S
H1588 C1565 0.950 . S
H1589 C1567 0.950 . S
C1590 C1591 1.349 . S
C1590 C1592 1.327 . S
C1590 H1615 0.950 . S
C1591 C1590 1.349 . S
C1591 C1607 1.349 . S
C1592 C1590 1.327 . S
C1592 C1611 1.429 . S
C1592 H1616 0.950 . S
C1593 C1610 1.574 . S
C1593 C1612 1.368 . S
C1593 H1617 0.949 . S
H1594 C1598 0.949 . S
C1595 C1596 1.349 . S
C1595 C1597 1.327 . S
C1595 H1618 0.950 . S
C1596 C1595 1.349 . S
C1596 C1608 1.349 . S
C1597 C1595 1.327 . S
C1597 C1613 1.429 . S
C1597 H1619 0.950 . S
C1598 H1594 0.949 . S
C1598 C1606 1.574 . S
C1598 C1614 1.368 . S
H1599 C1607 0.950 . S
H1600 C1605 0.950 . S
H1601 C1606 0.949 . S
H1602 C1608 0.950 . S
H1603 C1609 0.950 . S
H1604 C1610 0.949 . S
C1605 H1600 0.950 . S
C1605 C1607 1.327 . S
C1605 C1611 1.429 . S
C1606 C1598 1.574 . S
C1606 H1601 0.949 . S
C1606 C1612 1.368 . S
C1607 C1591 1.349 . S
C1607 H1599 0.950 . S
C1607 C1605 1.327 . S
C1608 C1596 1.349 . S
C1608 H1602 0.950 . S
C1608 C1609 1.327 . S
C1609 H1603 0.950 . S
C1609 C1608 1.327 . S
C1609 C1613 1.429 . S
C1610 C1593 1.574 . S
C1610 H1604 0.949 . S
C1610 C1614 1.368 . S
C1611 C1592 1.429 . S
C1611 C1605 1.429 . S
C1611 C1612 1.523 . S
C1612 C1593 1.368 . S
C1612 C1606 1.368 . S
C1612 C1611 1.523 . S
C1613 C1597 1.429 . S
C1613 C1609 1.429 . S
C1613 C1614 1.523 . S
C1614 C1598 1.368 . S
C1614 C1610 1.368 . S
C1614 C1613 1.523 . S
H1615 C1590 0.950 . S
H1616 C1592 0.950 . S
H1617 C1593 0.949 . S
H1618 C1595 0.950 . S
H1619 C1597 0.950 . S
C1620 C1621 1.349 . S
C1620 C1622 1.327 . S
C1620 H1645 0.950 . S
C1621 C1620 1.349 . S
C1621 C1637 1.349 . S
C1622 C1620 1.327 . S
C1622 C1641 1.429 . S
C1622 H1646 0.950 . S
C1623 C1640 1.574 . S
C1623 C1642 1.368 . S
C1623 H1647 0.949 . S
H1624 C1628 0.949 . S
C1625 C1626 1.349 . S
C1625 C1627 1.327 . S
C1625 H1648 0.950 . S
C1626 C1625 1.349 . S
C1626 C1638 1.349 . S
C1627 C1625 1.327 . S
C1627 C1643 1.429 . S
C1627 H1649 0.950 . S
C1628 H1624 0.949 . S
C1628 C1636 1.574 . S
C1628 C1644 1.368 . S
H1629 C1637 0.950 . S
H1630 C1635 0.950 . S
H1631 C1636 0.949 . S
H1632 C1638 0.950 . S
H1633 C1639 0.950 . S
H1634 C1640 0.949 . S
C1635 H1630 0.950 . S
C1635 C1637 1.327 . S
C1635 C1641 1.429 . S
C1636 C1628 1.574 . S
C1636 H1631 0.949 . S
C1636 C1642 1.368 . S
C1637 C1621 1.349 . S
C1637 H1629 0.950 . S
C1637 C1635 1.327 . S
C1638 C1626 1.349 . S
C1638 H1632 0.950 . S
C1638 C1639 1.327 . S
C1639 H1633 0.950 . S
C1639 C1638 1.327 . S
C1639 C1643 1.429 . S
C1640 C1623 1.574 . S
C1640 H1634 0.949 . S
C1640 C1644 1.368 . S
C1641 C1622 1.429 . S
C1641 C1635 1.429 . S
C1641 C1642 1.523 . S
C1642 C1623 1.368 . S
C1642 C1636 1.368 . S
C1642 C1641 1.523 . S
C1643 C1627 1.429 . S
C1643 C1639 1.429 . S
C1643 C1644 1.523 . S
C1644 C1628 1.368 . S
C1644 C1640 1.368 . S
C1644 C1643 1.523 . S
H1645 C1620 0.950 . S
H1646 C1622 0.950 . S
H1647 C1623 0.949 . S
H1648 C1625 0.950 . S
H1649 C1627 0.950 . S
C1650 C1651 1.349 . S
C1650 C1652 1.327 . S
C1650 H1675 0.950 . S
C1651 C1650 1.349 . S
C1651 C1667 1.349 . S
C1652 C1650 1.327 . S
C1652 C1671 1.429 . S
C1652 H1676 0.950 . S
C1653 C1670 1.574 . S
C1653 C1672 1.368 . S
C1653 H1677 0.949 . S
H1654 C1658 0.949 . S
C1655 C1656 1.349 . S
C1655 C1657 1.327 . S
C1655 H1678 0.950 . S
C1656 C1655 1.349 . S
C1656 C1668 1.349 . S
C1657 C1655 1.327 . S
C1657 C1673 1.429 . S
C1657 H1679 0.950 . S
C1658 H1654 0.949 . S
C1658 C1666 1.574 . S
C1658 C1674 1.368 . S
H1659 C1667 0.950 . S
H1660 C1665 0.950 . S
H1661 C1666 0.949 . S
H1662 C1668 0.950 . S
H1663 C1669 0.950 . S
H1664 C1670 0.949 . S
C1665 H1660 0.950 . S
C1665 C1667 1.327 . S
C1665 C1671 1.429 . S
C1666 C1658 1.574 . S
C1666 H1661 0.949 . S
C1666 C1672 1.368 . S
C1667 C1651 1.349 . S
C1667 H1659 0.950 . S
C1667 C1665 1.327 . S
C1668 C1656 1.349 . S
C1668 H1662 0.950 . S
C1668 C1669 1.327 . S
C1669 H1663 0.950 . S
C1669 C1668 1.327 . S
C1669 C1673 1.429 . S
C1670 C1653 1.574 . S
C1670 H1664 0.949 . S
C1670 C1674 1.368 . S
C1671 C1652 1.429 . S
C1671 C1665 1.429 . S
C1671 C1672 1.523 . S
C1672 C1653 1.368 . S
C1672 C1666 1.368 . S
C1672 C1671 1.523 . S
C1673 C1657 1.429 . S
C1673 C1669 1.429 . S
C1673 C1674 1.523 . S
C1674 C1658 1.368 . S
C1674 C1670 1.368 . S
C1674 C1673 1.523 . S
H1675 C1650 0.950 . S
H1676 C1652 0.950 . S
H1677 C1653 0.949 . S
H1678 C1655 0.950 . S
H1679 C1657 0.950 . S
C1680 C1681 1.349 . S
C1680 C1682 1.327 . S
C1680 H1705 0.950 . S
C1681 C1680 1.349 . S
C1681 C1697 1.349 . S
C1682 C1680 1.327 . S
C1682 C1701 1.429 . S
C1682 H1706 0.950 . S
C1683 C1700 1.574 1_556 S
C1683 C1702 1.368 . S
C1683 H1707 0.949 1_556 S
H1684 C1688 0.949 . S
C1685 C1686 1.349 1_554 S
C1685 C1687 1.327 . S
C1685 H1708 0.950 . S
C1686 C1685 1.349 1_556 S
C1686 C1698 1.349 . S
C1687 C1685 1.327 . S
C1687 C1703 1.429 1_554 S
C1687 H1709 0.950 . S
C1688 H1684 0.949 . S
C1688 C1696 1.574 . S
C1688 C1704 1.368 . S
H1689 C1697 0.950 . S
H1690 C1695 0.911 1_554 S
H1691 C1696 0.949 . S
H1692 C1698 0.950 . S
H1693 C1699 0.950 . S
H1694 C1700 0.949 . S
C1695 H1690 0.911 1_556 S
C1695 C1697 1.327 . S
C1695 C1701 1.429 . S
C1696 C1688 1.574 . S
C1696 H1691 0.949 . S
C1696 C1702 1.368 . S
C1697 C1681 1.349 . S
C1697 H1689 0.950 . S
C1697 C1695 1.327 . S
C1698 C1686 1.349 . S
C1698 H1692 0.950 . S
C1698 C1699 1.327 . S
C1699 H1693 0.950 . S
C1699 C1698 1.327 . S
C1699 C1703 1.429 . S
C1700 C1683 1.574 1_554 S
C1700 H1694 0.949 . S
C1700 C1704 1.368 1_554 S
C1701 C1682 1.429 . S
C1701 C1695 1.429 . S
C1701 C1702 1.523 . S
C1702 C1683 1.368 . S
C1702 C1696 1.368 . S
C1702 C1701 1.523 . S
C1703 C1687 1.429 1_556 S
C1703 C1699 1.429 . S
C1703 C1704 1.523 . S
C1704 C1688 1.368 . S
C1704 C1700 1.368 1_556 S
C1704 C1703 1.523 . S
H1705 C1680 0.950 . S
H1706 C1682 0.950 . S
H1707 C1683 0.949 1_554 S
H1708 C1685 0.950 . S
H1709 C1687 0.950 . S
C1710 C1711 1.349 . S
C1710 C1712 1.327 . S
C1710 H1735 0.950 . S
C1711 C1710 1.349 . S
C1711 C1727 1.349 . S
C1712 C1710 1.327 . S
C1712 C1731 1.429 . S
C1712 H1736 0.950 . S
C1713 C1730 1.574 . S
C1713 C1732 1.368 . S
C1713 H1737 0.949 . S
H1714 C1718 0.949 . S
C1715 C1716 1.349 . S
C1715 C1717 1.327 . S
C1715 H1738 0.950 . S
C1716 C1715 1.349 . S
C1716 C1728 1.349 . S
C1717 C1715 1.327 . S
C1717 C1733 1.429 . S
C1717 H1739 0.950 . S
C1718 H1714 0.949 . S
C1718 C1726 1.574 . S
C1718 C1734 1.368 . S
H1719 C1727 0.950 . S
H1720 C1725 0.950 . S
H1721 C1726 0.949 . S
H1722 C1728 0.950 . S
H1723 C1729 0.950 . S
H1724 C1730 0.949 . S
C1725 H1720 0.950 . S
C1725 C1727 1.327 . S
C1725 C1731 1.429 . S
C1726 C1718 1.574 . S
C1726 H1721 0.949 . S
C1726 C1732 1.368 . S
C1727 C1711 1.349 . S
C1727 H1719 0.950 . S
C1727 C1725 1.327 . S
C1728 C1716 1.349 . S
C1728 H1722 0.950 . S
C1728 C1729 1.327 . S
C1729 H1723 0.950 . S
C1729 C1728 1.327 . S
C1729 C1733 1.429 . S
C1730 C1713 1.574 . S
C1730 H1724 0.949 . S
C1730 C1734 1.368 . S
C1731 C1712 1.429 . S
C1731 C1725 1.429 . S
C1731 C1732 1.523 . S
C1732 C1713 1.368 . S
C1732 C1726 1.368 . S
C1732 C1731 1.523 . S
C1733 C1717 1.429 . S
C1733 C1729 1.429 . S
C1733 C1734 1.523 . S
C1734 C1718 1.368 . S
C1734 C1730 1.368 . S
C1734 C1733 1.523 . S
H1735 C1710 0.950 . S
H1736 C1712 0.950 . S
H1737 C1713 0.949 . S
H1738 C1715 0.950 . S
H1739 C1717 0.950 . S
C1740 C1741 1.349 . S
C1740 C1742 1.327 . S
C1740 H1765 0.950 . S
C1741 C1740 1.349 . S
C1741 C1757 1.349 . S
C1742 C1740 1.327 . S
C1742 C1761 1.429 . S
C1742 H1766 0.950 . S
C1743 C1760 1.574 . S
C1743 C1762 1.368 . S
C1743 H1767 0.949 . S
H1744 C1748 0.949 . S
C1745 C1746 1.349 . S
C1745 C1747 1.327 . S
C1745 H1768 0.950 . S
C1746 C1745 1.349 . S
C1746 C1758 1.349 . S
C1747 C1745 1.327 . S
C1747 C1763 1.429 . S
C1747 H1769 0.950 . S
C1748 H1744 0.949 . S
C1748 C1756 1.574 . S
C1748 C1764 1.368 . S
H1749 C1757 0.950 . S
H1750 C1755 0.950 . S
H1751 C1756 0.949 . S
H1752 C1758 0.950 1_556 S
H1753 C1759 0.950 . S
H1754 C1760 0.949 . S
C1755 H1750 0.950 . S
C1755 C1757 1.327 . S
C1755 C1761 1.429 . S
C1756 C1748 1.574 . S
C1756 H1751 0.949 . S
C1756 C1762 1.368 . S
C1757 C1741 1.349 . S
C1757 H1749 0.950 . S
C1757 C1755 1.327 . S
C1758 C1746 1.349 . S
C1758 H1752 0.950 1_554 S
C1758 C1759 1.327 . S
C1759 H1753 0.950 . S
C1759 C1758 1.327 . S
C1759 C1763 1.429 . S
C1760 C1743 1.574 . S
C1760 H1754 0.949 . S
C1760 C1764 1.368 . S
C1761 C1742 1.429 . S
C1761 C1755 1.429 . S
C1761 C1762 1.523 . S
C1762 C1743 1.368 . S
C1762 C1756 1.368 . S
C1762 C1761 1.523 . S
C1763 C1747 1.429 . S
C1763 C1759 1.429 . S
C1763 C1764 1.523 . S
C1764 C1748 1.368 . S
C1764 C1760 1.368 . S
C1764 C1763 1.523 . S
H1765 C1740 0.950 . S
H1766 C1742 0.950 . S
H1767 C1743 0.949 . S
H1768 C1745 0.950 . S
H1769 C1747 0.950 . S
C1770 C1771 1.349 . S
C1770 C1772 1.327 . S
C1770 H1795 0.950 . S
C1771 C1770 1.349 . S
C1771 C1787 1.349 1_545 S
C1772 C1770 1.327 . S
C1772 C1791 1.429 1_545 S
C1772 H1796 0.950 . S
C1773 C1790 1.574 . S
C1773 C1792 1.368 . S
C1773 H1797 0.949 . S
H1774 C1778 0.984 . S
C1775 C1776 1.349 . S
C1775 C1777 1.327 . S
C1775 H1798 0.950 . S
C1776 C1775 1.349 . S
C1776 C1788 1.349 . S
C1777 C1775 1.327 . S
C1777 C1793 1.429 . S
C1777 H1799 0.950 . S
C1778 H1774 0.984 . S
C1778 C1786 1.574 . S
C1778 C1794 1.368 . S
H1779 C1787 0.950 . S
H1780 C1785 0.950 . S
H1781 C1786 0.949 . S
H1782 C1788 0.950 1_556 S
H1783 C1789 0.914 1_556 S
H1784 C1790 0.949 . S
C1785 H1780 0.950 . S
C1785 C1787 1.327 . S
C1785 C1791 1.429 . S
C1786 C1778 1.574 . S
C1786 H1781 0.949 . S
C1786 C1792 1.368 . S
C1787 C1771 1.349 1_565 S
C1787 H1779 0.950 . S
C1787 C1785 1.327 . S
C1788 C1776 1.349 . S
C1788 H1782 0.950 1_554 S
C1788 C1789 1.327 . S
C1789 H1783 0.914 1_554 S
C1789 C1788 1.327 . S
C1789 C1793 1.429 . S
C1790 C1773 1.574 . S
C1790 H1784 0.949 . S
C1790 C1794 1.368 . S
C1791 C1772 1.429 1_565 S
C1791 C1785 1.429 . S
C1791 C1792 1.523 . S
C1792 C1773 1.368 . S
C1792 C1786 1.368 . S
C1792 C1791 1.523 . S
C1793 C1777 1.429 . S
C1793 C1789 1.429 . S
C1793 C1794 1.523 . S
C1794 C1778 1.368 . S
C1794 C1790 1.368 . S
C1794 C1793 1.523 . S
H1795 C1770 0.950 . S
H1796 C1772 0.950 . S
H1797 C1773 0.949 . S
H1798 C1775 0.950 . S
H1799 C1777 0.950 . S
C366 C203 1.706 . S
C361 C66 1.738 . S
C396 C211 0.951 . S
C391 C76 1.121 . S
C421 C93 1.823 . S
C426 C231 1.798 . S
C456 C245 1.454 . S
C451 C54 1.479 . S
C486 C260 1.494 . S
C481 C126 1.495 . S
C516 C274 1.888 . S
C511 C150 1.890 . S
C541 C136 1.170 . S
C546 C288 1.174 . S
C576 C294 1.733 . S
C571 C117 1.801 . S
C601 C141 1.270 . S
C606 C308 1.248 . S
C636 C329 1.331 . S
C631 C112 1.349 . S
C661 C124 1.485 . S
C666 C309 1.259 . S
C696 C330 1.243 . S
C691 C148 1.237 . S
C721 C88 1.221 . S
C726 C337 1.068 . S
C751 C52 1.623 . S
C756 C343 1.597 . S
C781 C64 1.227 . S
C786 C336 1.196 . S
C811 C78 1.109 . S
C816 C344 1.113 . S
C841 C45 1.743 . S
C846 C238 1.717 1_565 S
C871 C177 1.943 . S
C876 C239 1.720 . S
C906 C196 1.371 . S
C901 C189 1.406 . S
C936 C217 1.541 . S
C931 C102 1.563 . S
C961 C57 1.769 1_545 S
C966 C252 1.753 . S
C996 C302 1.454 . S
C991 C138 1.450 . S
C1026 C253 1.571 . S
C1021 C114 1.776 1_545 S
C1056 C281 1.478 . S
C1051 C153 1.787 . S
C1086 C287 1.706 . S
C1081 C174 1.738 . S
C1111 C184 1.121 . S
C1116 C295 0.951 . S
C1141 C105 1.823 . S
C1146 C259 1.797 . S
C1176 C273 1.454 . S
C1171 C162 1.480 . S
C1201 C42 1.494 . S
C1206 C232 1.493 . S
C1236 C246 1.888 . S
C1231 C6 1.890 . S
C1266 C204 1.175 . S
C1261 C16 1.170 . S
C1296 C210 1.733 . S
C1291 C33 1.801 1_455 S
C1321 C21 1.270 . S
C1326 C322 1.248 . S
C1351 C28 1.350 . S
C1356 C315 1.331 . S
C1381 C40 1.486 . S
C1386 C323 1.260 . S
C1411 C4 1.237 . S
C1416 C316 1.243 . S
C1446 C351 1.066 . S
C1441 C100 1.221 . S
C1476 C357 1.598 . S
C1471 C160 1.623 1_554 S
C1506 C350 1.199 . S
C1501 C172 1.227 . S
C1531 C186 1.109 . S
C1536 C358 1.113 . S
C1561 C129 1.743 . S
C1566 C266 1.717 . S
C1596 C267 1.720 . S
C1591 C69 1.943 . S
C1626 C280 1.371 . S
C1621 C81 1.406 . S
C1656 C301 1.541 . S
C1651 C90 1.567 . S
C1681 C165 1.769 . S
C1686 C224 1.753 1_556 S
C1716 C218 1.454 . S
C1711 C18 1.453 . S
C1741 C30 1.776 . S
C1746 C225 1.571 . S
C1776 C197 1.478 . S
C1771 C9 1.787 . S
