# Generated by pormake.
# Topology anh, (6,3)-cn, num edge types: 1
# Building blocks:
#     Node 0, Type 0, BuildingBlock: HISSIN_clean_sbu_0, # of connection points: 6
#     Node 1, Type 0, BuildingBlock: HISSIN_clean_sbu_0, # of connection points: 6
#     Node 2, Type 0, BuildingBlock: HISSIN_clean_sbu_0, # of connection points: 6
#     Node 3, Type 1, BuildingBlock: PAMTOO_clean_linker_0, # of connection points: 3
#     Node 4, Type 1, BuildingBlock: PAMTOO_clean_linker_0, # of connection points: 3
#     Node 5, Type 1, BuildingBlock: PAMTOO_clean_linker_0, # of connection points: 3
#     Node 6, Type 1, BuildingBlock: PAMTOO_clean_linker_0, # of connection points: 3
#     Node 7, Type 1, BuildingBlock: PAMTOO_clean_linker_0, # of connection points: 3
#     Node 8, Type 1, BuildingBlock: PAMTOO_clean_linker_0, # of connection points: 3
#     Edge 9, Type (0, 1), BuildingBlock: ZUJKAS_clean_linker_0, # of connection points: 2
#     Edge 10, Type (0, 1), BuildingBlock: ZUJKAS_clean_linker_0, # of connection points: 2
#     Edge 11, Type (0, 1), BuildingBlock: ZUJKAS_clean_linker_0, # of connection points: 2
#     Edge 12, Type (0, 1), BuildingBlock: ZUJKAS_clean_linker_0, # of connection points: 2
#     Edge 13, Type (0, 1), BuildingBlock: ZUJKAS_clean_linker_0, # of connection points: 2
#     Edge 14, Type (0, 1), BuildingBlock: ZUJKAS_clean_linker_0, # of connection points: 2
#     Edge 15, Type (0, 1), BuildingBlock: ZUJKAS_clean_linker_0, # of connection points: 2
#     Edge 16, Type (0, 1), BuildingBlock: ZUJKAS_clean_linker_0, # of connection points: 2
#     Edge 17, Type (0, 1), BuildingBlock: ZUJKAS_clean_linker_0, # of connection points: 2
#     Edge 18, Type (0, 1), BuildingBlock: ZUJKAS_clean_linker_0, # of connection points: 2
#     Edge 19, Type (0, 1), BuildingBlock: ZUJKAS_clean_linker_0, # of connection points: 2
#     Edge 20, Type (0, 1), BuildingBlock: ZUJKAS_clean_linker_0, # of connection points: 2
#     Edge 21, Type (0, 1), BuildingBlock: ZUJKAS_clean_linker_0, # of connection points: 2
#     Edge 22, Type (0, 1), BuildingBlock: ZUJKAS_clean_linker_0, # of connection points: 2
#     Edge 23, Type (0, 1), BuildingBlock: ZUJKAS_clean_linker_0, # of connection points: 2
#     Edge 24, Type (0, 1), BuildingBlock: ZUJKAS_clean_linker_0, # of connection points: 2
#     Edge 25, Type (0, 1), BuildingBlock: ZUJKAS_clean_linker_0, # of connection points: 2
#     Edge 26, Type (0, 1), BuildingBlock: ZUJKAS_clean_linker_0, # of connection points: 2
# Relax obj value: 0.184
# Max RMSD: 0.144
# Mean RMSD: 0.114
data_MOF--net-anh--node1-HISSIN_clean_sbu_0--node2-PAMTOO_clean_linker_0--edge1-ZUJKAS_clean_linker_0
_symmetry_space_group_name_H-M    P1
_symmetry_Int_Tables_number       1
_symmetry_cell_setting            triclinic
loop_
_symmetry_equiv_pos_as_xyz
'x, y, z'
_cell_length_a     39.7807
_cell_length_b     39.834072
_cell_length_c     64.361677
_cell_angle_alpha  88.177794
_cell_angle_beta   92.921362
_cell_angle_gamma 119.79523
loop_
_atom_site_label
_atom_site_type_symbol
_atom_site_fract_x
_atom_site_fract_y
_atom_site_fract_z
_atom_type_partial_charge
Eu0 Eu 0.12702 0.50173 0.15778 0.0
Eu1 Eu 0.17211 0.59249 0.16759 0.0
C2 C 0.13746 0.53222 0.205 0.0
C3 C 1.0407 0.40617 0.15545 0.0
C4 C 1.02902 0.40327 0.17601 0.0
C5 C 0.97483 0.3865 0.14295 0.0
C6 C 0.99113 0.39377 0.17991 0.0
C7 C 1.01273 0.39576 0.13904 0.0
C8 C 0.96416 0.38699 0.16336 0.0
C9 C 1.08226 0.42853 0.15086 0.0
O10 O 0.22061 0.57994 0.15921 0.0
O11 O 0.18946 0.51419 0.16412 0.0
C12 C 0.22179 0.5473 0.16123 0.0
O13 O 0.15804 0.53035 0.1284 0.0
O14 O 0.22087 0.6435 0.18201 0.0
O15 O 0.17534 0.64857 0.16483 0.0
O16 O 0.16128 0.58838 0.13304 0.0
C17 C 0.16328 0.56361 0.12104 0.0
O18 O 1.08145 0.52049 0.15122 0.0
O19 O 0.10791 0.57395 0.17168 0.0
O20 O 0.16678 0.56487 0.19899 0.0
O21 O 0.09052 0.45492 0.13642 0.0
O22 O 0.10684 0.44156 0.16685 0.0
O23 O 0.11429 0.50619 0.19132 0.0
C24 C 0.2384 0.70209 0.16427 0.0
C25 C 0.24342 0.70366 0.14274 0.0
C26 C 0.28793 0.76938 0.16706 0.0
C27 C 0.27033 0.73829 0.13336 0.0
C28 C 0.26101 0.73496 0.17635 0.0
C29 C 0.29275 0.77153 0.14545 0.0
C30 C 0.20923 0.66686 0.1744 0.0
C31 C 1.07777 0.54707 0.16094 0.0
H32 H 1.04974 0.41118 0.18907 0.0
H33 H 0.95434 0.3806 0.12993 0.0
H34 H 0.98379 0.39442 0.19581 0.0
H35 H 1.02091 0.39773 0.12306 0.0
H36 H 0.22623 0.67832 0.13319 0.0
H37 H 0.30418 0.79466 0.17675 0.0
H38 H 0.27354 0.73912 0.11671 0.0
H39 H 0.25738 0.73418 0.19297 0.0
Eu40 Eu 0.62653 1.02162 0.48691 0.0
Eu41 Eu 0.58016 0.06733 0.49416 0.0
C42 C 0.61149 1.03819 0.53299 0.0
C43 C 0.661 0.95032 0.47162 0.0
C44 C 0.62782 0.91395 0.47402 0.0
C45 C 0.69289 0.91967 0.45584 0.0
C46 C 0.62774 0.88047 0.46798 0.0
C47 C 0.69296 0.95301 0.46191 0.0
C48 C 0.66079 0.88293 0.45944 0.0
C49 C 0.6647 0.9854 0.48075 0.0
O50 O 0.64414 0.11621 0.49677 0.0
O51 O 0.67374 0.08528 0.48339 0.0
C52 C 0.67541 0.11737 0.48968 0.0
O53 O 0.59742 1.0229 0.45598 0.0
O54 O 0.56567 0.10162 0.51369 0.0
O55 O 0.53915 0.08561 0.48266 0.0
O56 O 0.60133 0.08057 0.4618 0.0
C57 C 0.59749 1.05415 0.44889 0.0
O58 O 0.56422 0.9719 0.49097 0.0
O59 O 0.53114 1.00535 0.48639 0.0
O60 O 0.58138 1.0397 0.52495 0.0
O61 O 0.66466 1.01144 0.46797 0.0
O62 O 0.64559 0.98114 0.49744 0.0
O63 O 0.63743 1.03889 0.52089 0.0
C64 C 0.55678 0.14775 0.49477 0.0
C65 C 0.5851 0.16944 0.48028 0.0
C66 C 0.55922 0.20639 0.50606 0.0
C67 C 0.60087 0.20953 0.47895 0.0
C68 C 0.54324 0.16629 0.50726 0.0
C69 C 0.58892 0.22846 0.4923 0.0
C70 C 0.54521 0.10708 0.49888 0.0
C71 C 0.53112 0.97208 0.48809 0.0
H72 H 0.60264 0.91127 0.48132 0.0
H73 H 0.71902 0.92267 0.44959 0.0
H74 H 0.60244 0.85259 0.47075 0.0
H75 H 0.71882 0.98086 0.45993 0.0
H76 H 0.59632 0.15565 0.4707 0.0
H77 H 0.54944 0.22037 0.51645 0.0
H78 H 0.62405 0.22592 0.46842 0.0
H79 H 0.52163 0.15 0.51862 0.0
Eu80 Eu 0.60692 0.52963 0.82484 0.0
Eu81 Eu 0.7003 0.57449 0.82995 0.0
C82 C 0.6497 0.54849 0.87006 0.0
C83 C 0.50629 0.51365 0.81535 0.0
C84 C 0.52208 0.55145 0.80738 0.0
C85 C 0.44534 0.51213 0.8197 0.0
C86 C 0.49993 0.56981 0.80602 0.0
C87 C 0.46757 0.49376 0.82104 0.0
C88 C 0.46165 0.55074 0.81272 0.0
C89 C 0.5316 0.49728 0.82041 0.0
O90 O 0.68401 0.51027 0.83251 0.0
O91 O 0.62111 0.48122 0.81941 0.0
C92 C 0.65239 0.47913 0.82537 0.0
O93 O 0.63116 0.55832 0.79406 0.0
O94 O 0.75402 0.58663 0.84684 0.0
O95 O 0.75603 0.61769 0.81817 0.0
O96 O 0.6843 0.55139 0.79757 0.0
C97 C 0.65958 0.55651 0.78573 0.0
O98 O 0.62164 0.59247 0.82959 0.0
O99 O 0.68621 0.62345 0.82273 0.0
O100 O 0.6797 0.57715 0.86138 0.0
O101 O 0.55356 0.49845 0.80569 0.0
O102 O 0.55063 0.50828 0.83825 0.0
O103 O 0.62136 0.5218 0.85855 0.0
C104 C 0.80887 0.6068 0.82595 0.0
C105 C 0.83127 0.62997 0.80956 0.0
C106 C 0.85376 0.58231 0.83162 0.0
C107 C 0.86484 0.62972 0.80444 0.0
C108 C 0.82011 0.58247 0.83671 0.0
C109 C 0.87696 0.60655 0.81573 0.0
C110 C 0.77595 0.61067 0.83265 0.0
C111 C 0.65406 0.62466 0.82549 0.0
H112 H 0.55214 0.56745 0.80317 0.0
H113 H 0.41584 0.49661 0.82481 0.0
H114 H 0.51358 0.59972 0.8009 0.0
H115 H 0.45507 0.46468 0.82737 0.0
H116 H 0.82343 0.64915 0.80105 0.0
H117 H 0.86254 0.56454 0.84084 0.0
H118 H 0.88185 0.64842 0.79197 0.0
H119 H 0.80366 0.56444 0.84951 0.0
H120 H 0.60857 0.22993 0.25398 0.0
H121 H 0.51893 0.12515 0.22531 0.0
H122 H 0.58453 0.22534 0.18781 0.0
H123 H 0.50166 0.17432 0.16981 0.0
C124 C 0.49637 0.14816 0.17902 0.0
O125 O 0.53117 0.15353 0.18754 0.0
H126 H 0.47598 0.14348 0.19145 0.0
C127 C 0.59104 0.21458 0.24038 0.0
C128 C 0.59973 0.23304 0.22081 0.0
C129 C 0.56216 0.17552 0.24229 0.0
C130 C 0.54076 0.15546 0.22437 0.0
C131 C 0.54841 0.17402 0.20494 0.0
C132 C 0.57749 0.21256 0.2032 0.0
H133 H 0.77606 0.68397 0.5679 0.0
H134 H 0.84515 0.63566 0.59319 0.0
H135 H 0.84589 0.66124 0.52789 0.0
H136 H 0.84645 0.58329 0.57618 0.0
C137 C 0.85995 0.59298 0.56084 0.0
O138 O 0.87127 0.6316 0.5573 0.0
H139 H 0.8867 0.59069 0.56207 0.0
C140 C 0.79666 0.67413 0.56584 0.0
C141 C 0.81045 0.67561 0.54598 0.0
C142 C 0.80851 0.65929 0.58297 0.0
C143 C 0.83576 0.64736 0.58018 0.0
C144 C 0.84827 0.64698 0.56025 0.0
C145 C 0.83573 0.66123 0.5432 0.0
H146 H 0.2179 0.67511 0.90138 0.0
H147 H 0.32015 0.77368 0.92698 0.0
H148 H 0.28496 0.77498 0.863 0.0
H149 H 0.38898 0.82713 0.90556 0.0
C150 C 0.37437 0.82361 0.88994 0.0
O151 O 0.33629 0.81425 0.89237 0.0
H152 H 0.38966 0.8522 0.882 0.0
C153 C 0.24301 0.70351 0.89936 0.0
C154 C 0.24831 0.72255 0.88005 0.0
C155 C 0.26868 0.72156 0.91643 0.0
C156 C 0.30043 0.7589 0.91391 0.0
C157 C 0.30639 0.7778 0.8946 0.0
C158 C 0.28048 0.75966 0.87772 0.0
H159 H 1.02935 0.45792 0.42651 0.0
H160 H 0.13212 0.56969 0.43009 0.0
H161 H 1.07231 0.51443 0.48596 0.0
H162 H 0.18199 0.57476 0.46147 0.0
C163 C 0.1729 0.5865 0.47414 0.0
O164 O 0.13469 0.57877 0.4698 0.0
H165 H 0.17271 0.57024 0.48853 0.0
C166 C 1.05036 0.48221 0.43581 0.0
C167 C 1.04597 0.48138 0.45745 0.0
C168 C 1.08121 0.5135 0.42585 0.0
C169 C 0.10869 0.54519 0.43772 0.0
C170 C 0.10667 0.54614 0.45936 0.0
C171 C 1.0747 0.51401 0.46931 0.0
H172 H 0.6523 0.97495 0.75959 0.0
H173 H 0.63948 0.07591 0.76247 0.0
H174 H 0.65157 1.02148 0.81907 0.0
H175 H 0.69114 0.12934 0.78976 0.0
C176 C 0.67501 0.12034 0.80438 0.0
O177 O 0.64438 0.08203 0.8025 0.0
H178 H 0.69561 0.1207 0.81683 0.0
C179 C 0.65018 0.99624 0.76865 0.0
C180 C 0.65175 0.9934 0.7905 0.0
C181 C 0.64576 1.02562 0.75827 0.0
C182 C 0.64371 1.05362 0.77016 0.0
C183 C 0.64678 1.05352 0.79199 0.0
C184 C 0.65021 1.02267 0.80225 0.0
H185 H 0.72024 0.54123 0.09608 0.0
H186 H 0.60994 0.53562 0.10068 0.0
H187 H 0.6773 0.54104 0.15632 0.0
H188 H 0.61209 0.58685 0.12925 0.0
C189 C 0.60219 0.56725 0.14304 0.0
O190 O 0.60991 0.53681 0.1407 0.0
H191 H 0.62012 0.58479 0.15656 0.0
C192 C 0.69789 0.54008 0.10551 0.0
C193 C 0.7032 0.54032 0.12734 0.0
C194 C 0.66486 0.53889 0.09562 0.0
C195 C 0.63619 0.53801 0.10796 0.0
C196 C 0.64028 0.53966 0.12974 0.0
C197 C 0.67427 0.54102 0.13952 0.0
H198 H 0.29591 0.60961 0.15559 0.0
H199 H 0.35722 0.60981 0.15272 0.0
H200 H 0.2974 0.48586 0.15979 0.0
H201 H 0.23616 0.48563 0.16313 0.0
H202 H 0.36344 0.51278 0.18092 0.0
H203 H 0.40119 0.58706 0.10476 0.0
H204 H 0.3954 0.61567 0.12368 0.0
H205 H 0.35444 0.57027 0.1155 0.0
C206 C 0.29554 0.58224 0.1565 0.0
C207 C 0.26022 0.54758 0.15954 0.0
C208 C 0.33102 0.58233 0.15463 0.0
C209 C 0.3329 0.54774 0.15551 0.0
C210 C 0.29768 0.51319 0.15887 0.0
H211 H 0.5396 0.53817 0.11397 0.0
H212 H 0.4749 0.53116 0.11703 0.0
C213 C 0.26222 0.51308 0.16077 0.0
C214 C 0.37116 0.5475 0.15337 0.0
H215 H 0.45101 0.58038 0.12321 0.0
C216 C 0.38235 0.52759 0.1682 0.0
C217 C 0.39649 0.56593 0.13668 0.0
C218 C 0.38615 0.58558 0.11913 0.0
C219 C 0.41743 0.52632 0.16713 0.0
C220 C 0.4436 0.5462 0.15095 0.0
C221 C 0.43198 0.56536 0.13585 0.0
C222 C 0.48283 0.54767 0.14942 0.0
C223 C 0.42537 0.50254 0.18324 0.0
C224 C 0.50999 0.55888 0.16645 0.0
C225 C 0.54697 0.56231 0.16474 0.0
C226 C 0.55888 0.55503 0.14588 0.0
C227 C 0.5316 0.54321 0.1289 0.0
C228 C 0.49445 0.53968 0.13062 0.0
H229 H 0.39807 0.47926 0.18973 0.0
H230 H 0.44108 0.48908 0.17666 0.0
H231 H 0.44334 0.52149 0.19631 0.0
H232 H 0.50329 0.56653 0.18104 0.0
H233 H 0.56708 0.57245 0.1781 0.0
H234 H 0.69299 0.19233 0.50009 0.0
H235 H 0.75429 0.25367 0.49665 0.0
H236 H 0.80699 0.19195 0.47263 0.0
H237 H 0.74606 0.13102 0.47578 0.0
H238 H 0.8284 0.28423 0.51303 0.0
H239 H 0.83676 0.27339 0.42837 0.0
H240 H 0.79368 0.24151 0.4421 0.0
H241 H 0.83364 0.23224 0.44222 0.0
C242 C 0.71753 0.19162 0.49404 0.0
C243 C 0.71363 0.15585 0.48816 0.0
C244 C 0.753 0.22712 0.49207 0.0
C245 C 0.78612 0.22861 0.48392 0.0
C246 C 0.78235 0.19278 0.47842 0.0
H247 H 1.02462 0.40493 0.45254 0.0
H248 H 0.96349 0.34667 0.46006 0.0
C249 C 0.74705 0.1574 0.48041 0.0
C250 C 0.8243 0.26702 0.48125 0.0
H251 H 0.89357 0.32177 0.44584 0.0
C252 C 0.84236 0.29237 0.49824 0.0
C253 C 0.84353 0.27882 0.46208 0.0
C254 C 0.82577 0.25531 0.4426 0.0
C255 C 0.87869 0.32742 0.49683 0.0
C256 C 0.89816 0.33895 0.47769 0.0
C257 C 0.87973 0.31378 0.46067 0.0
C258 C 0.93769 0.37592 0.47488 0.0
C259 C 0.89649 0.35097 0.51628 0.0
C260 C 0.9456 0.41325 0.48085 0.0
C261 C 0.98151 0.44722 0.47673 0.0
C262 C 1.01098 0.44542 0.46628 0.0
C263 C 1.00328 0.40804 0.46079 0.0
C264 C 0.96772 0.37431 0.46497 0.0
H265 H 0.88485 0.33318 0.53053 0.0
H266 H 0.92851 0.36399 0.51698 0.0
H267 H 0.88945 0.37465 0.51636 0.0
H268 H 0.92338 0.41654 0.488 0.0
H269 H 0.98537 0.47513 0.48077 0.0
H270 H 0.59431 0.64037 0.83152 0.0
H271 H 0.59422 0.70189 0.82757 0.0
H272 H 0.71358 0.7589 0.81077 0.0
H273 H 0.71384 0.69758 0.81466 0.0
H274 H 0.63558 0.7736 0.84669 0.0
H275 H 0.66825 0.79473 0.76327 0.0
H276 H 0.65425 0.74939 0.77656 0.0
H277 H 0.70333 0.78873 0.77915 0.0
C278 C 0.6207 0.6659 0.82699 0.0
C279 C 0.6541 0.66316 0.82342 0.0
C280 C 0.62061 0.70148 0.82473 0.0
C281 C 0.65369 0.73591 0.81849 0.0
C282 C 0.68717 0.73327 0.81514 0.0
H283 H 0.7099 0.97608 0.78636 0.0
H284 H 0.70998 0.91559 0.79436 0.0
C285 C 0.68737 0.69779 0.81754 0.0
C286 C 0.65329 0.77422 0.81562 0.0
H287 H 0.67047 0.84752 0.78042 0.0
C288 C 0.64309 0.78955 0.83212 0.0
C289 C 0.66302 0.79599 0.79673 0.0
C290 C 0.67248 0.7813 0.77783 0.0
C291 C 0.64348 0.82561 0.83053 0.0
C292 C 0.65325 0.84748 0.8116 0.0
C293 C 0.66309 0.83181 0.79507 0.0
C294 C 0.65415 0.88651 0.80852 0.0
C295 C 0.63479 0.84045 0.84963 0.0
C296 C 0.62326 0.89228 0.81393 0.0
C297 C 0.62369 0.92783 0.80972 0.0
C298 C 0.65481 0.95905 0.7997 0.0
C299 C 0.68577 0.95341 0.79453 0.0
C300 C 0.68555 0.91821 0.79892 0.0
H301 H 0.64064 0.82788 0.86409 0.0
H302 H 0.65228 0.87245 0.85059 0.0
H303 H 0.60362 0.83186 0.84904 0.0
H304 H 0.59778 0.86873 0.82067 0.0
H305 H 0.59859 0.93008 0.81331 0.0
H306 H 1.00768 0.49341 0.14194 0.0
H307 H 0.94584 0.49313 0.13892 0.0
H308 H 0.99605 0.59828 0.17424 0.0
H309 H 1.05825 0.59917 0.17691 0.0
H310 H 0.89381 0.48728 0.16524 0.0
H311 H 0.94865 0.63082 0.12767 0.0
H312 H 0.97789 0.6079 0.131 0.0
H313 H 0.97274 0.63299 0.15232 0.0
C314 C 1.00591 0.51677 0.149 0.0
C315 C 1.03895 0.54659 0.15952 0.0
C316 C 0.97004 0.51648 0.14731 0.0
C317 C 0.9654 0.54608 0.15591 0.0
C318 C 0.99819 0.57548 0.16679 0.0
H319 H 0.76428 0.59035 0.1544 0.0
H320 H 0.82619 0.5915 0.16271 0.0
C321 C 1.03412 0.5758 0.1685 0.0
C322 C 0.92645 0.54562 0.15373 0.0
H323 H 0.88366 0.59989 0.13815 0.0
C324 C 0.89188 0.51199 0.15917 0.0
C325 C 0.9227 0.57763 0.14603 0.0
C326 C 0.95736 0.61425 0.13872 0.0
C327 C 0.85486 0.50957 0.15736 0.0
C328 C 0.85107 0.54144 0.14948 0.0
C329 C 0.88566 0.57525 0.14428 0.0
C330 C 0.81174 0.53972 0.14565 0.0
C331 C 0.82021 0.47278 0.16451 0.0
C332 C 0.78182 0.51034 0.13335 0.0
C333 C 0.74634 0.50965 0.12867 0.0
C334 C 0.73871 0.53822 0.13605 0.0
C335 C 0.76822 0.56728 0.14874 0.0
C336 C 0.80411 0.56816 0.15331 0.0
H337 H 0.82883 0.45823 0.17692 0.0
H338 H 0.79777 0.47828 0.17057 0.0
H339 H 0.80726 0.45255 0.15123 0.0
H340 H 0.78629 0.48833 0.12668 0.0
H341 H 0.72498 0.48705 0.1186 0.0
H342 H 0.45722 0.95781 0.47498 0.0
H343 H 0.39605 0.89582 0.4725 0.0
H344 H 0.45558 0.83597 0.49546 0.0
H345 H 0.51683 0.89763 0.49765 0.0
H346 H 0.3749 0.82427 0.44952 0.0
H347 H 0.36226 0.79592 0.53441 0.0
H348 H 0.39336 0.84346 0.52375 0.0
H349 H 0.40814 0.80755 0.52427 0.0
C350 C 0.45753 0.93157 0.47956 0.0
C351 C 0.49278 0.93358 0.48663 0.0
C352 C 0.42216 0.89575 0.47806 0.0
C353 C 0.4202 0.86034 0.48395 0.0
C354 C 0.45537 0.8623 0.491 0.0
H355 H 0.24025 0.61541 0.49793 0.0
H356 H 0.29682 0.68008 0.49939 0.0
C357 C 0.49082 0.89799 0.49219 0.0
C358 C 0.38185 0.8217 0.48274 0.0
H359 H 0.31715 0.74567 0.51255 0.0
C360 C 0.36225 0.80725 0.46337 0.0
C361 C 0.36461 0.79858 0.50057 0.0
C362 C 0.38284 0.8121 0.52199 0.0
C363 C 0.32751 0.77066 0.4613 0.0
C364 C 0.30997 0.74745 0.4792 0.0
C365 C 0.32952 0.76242 0.4986 0.0
C366 C 0.27305 0.70712 0.47831 0.0
C367 C 0.31117 0.75668 0.43964 0.0
C368 C 0.23887 0.69888 0.46626 0.0
C369 C 0.20585 0.66091 0.46527 0.0
C370 C 0.20502 0.62979 0.47687 0.0
C371 C 0.23879 0.63836 0.48917 0.0
C372 C 0.27171 0.67586 0.48995 0.0
H373 H 0.33363 0.7711 0.42786 0.0
H374 H 0.29888 0.72494 0.4384 0.0
H375 H 0.28788 0.76372 0.43572 0.0
H376 H 0.23751 0.72178 0.45746 0.0
H377 H 0.18117 0.65586 0.4552 0.0
H378 H 0.70614 0.45846 0.84132 0.0
H379 H 0.70579 0.39692 0.8382 0.0
H380 H 0.59822 0.35016 0.80212 0.0
H381 H 0.59818 0.41138 0.80536 0.0
H382 H 0.65087 0.31951 0.85064 0.0
H383 H 0.66422 0.32491 0.76517 0.0
H384 H 0.67456 0.36698 0.77997 0.0
H385 H 0.62525 0.3308 0.77387 0.0
C386 C 0.6823 0.43521 0.83267 0.0
C387 C 0.65221 0.44073 0.82361 0.0
C388 C 0.68211 0.39964 0.8309 0.0
C389 C 0.65227 0.36814 0.81964 0.0
C390 C 0.62215 0.37357 0.81062 0.0
H391 H 0.61994 0.13691 0.78433 0.0
H392 H 0.61208 0.19403 0.7885 0.0
C393 C 0.62203 0.40893 0.81262 0.0
C394 C 0.65237 0.32984 0.81766 0.0
H395 H 0.65445 0.26764 0.78231 0.0
C396 C 0.65177 0.3084 0.83564 0.0
C397 C 0.653 0.31413 0.79821 0.0
C398 C 0.65461 0.3354 0.77816 0.0
C399 C 0.65126 0.2724 0.83478 0.0
C400 C 0.65296 0.25705 0.81535 0.0
C401 C 0.65321 0.27845 0.79733 0.0
C402 C 0.6557 0.21996 0.81346 0.0
C403 C 0.64742 0.25062 0.85493 0.0
C404 C 0.68269 0.21406 0.82585 0.0
C405 C 0.6865 0.18085 0.82374 0.0
C406 C 0.66381 0.1517 0.80902 0.0
C407 C 0.637 0.15755 0.7964 0.0
C408 C 0.63291 0.19085 0.79864 0.0
H409 H 0.63208 0.25773 0.86647 0.0
H410 H 0.63137 0.21885 0.85255 0.0
H411 H 0.67674 0.25921 0.86174 0.0
H412 H 0.70214 0.23594 0.83682 0.0
H413 H 0.70866 0.17877 0.83325 0.0
H414 H 0.69344 0.86529 0.42791 0.0
H415 H 0.71331 0.81606 0.42905 0.0
H416 H 0.65796 0.77375 0.48754 0.0
H417 H 0.63806 0.82229 0.48646 0.0
H418 H 0.76321 0.81849 0.45785 0.0
H419 H 0.635 0.67387 0.46257 0.0
H420 H 0.63159 0.71529 0.45304 0.0
H421 H 0.63046 0.70461 0.48055 0.0
C422 C 0.68456 0.84469 0.44069 0.0
C423 C 0.66442 0.84789 0.45718 0.0
C424 C 0.69577 0.81648 0.44126 0.0
C425 C 0.68685 0.79089 0.45827 0.0
C426 C 0.66428 0.7923 0.47394 0.0
H427 H 0.81089 0.74382 0.54474 0.0
H428 H 0.78427 0.76838 0.51721 0.0
C429 C 0.65298 0.82032 0.47334 0.0
C430 C 0.70698 0.76821 0.462 0.0
H431 H 0.69266 0.68344 0.48419 0.0
C432 C 0.74771 0.78851 0.46291 0.0
C433 C 0.68707 0.72887 0.46822 0.0
C434 C 0.6436 0.7044 0.46579 0.0
C435 C 0.76876 0.77194 0.47212 0.0
C436 C 0.74854 0.73448 0.48093 0.0
C437 C 0.70814 0.71254 0.47782 0.0
C438 C 0.76779 0.72057 0.49635 0.0
C439 C 0.81241 0.79561 0.4735 0.0
C440 C 0.76698 0.6853 0.49384 0.0
C441 C 0.78221 0.67114 0.50967 0.0
C442 C 0.7977 0.69178 0.5283 0.0
C443 C 0.79897 0.72732 0.53056 0.0
C444 C 0.78413 0.74153 0.51476 0.0
H445 H 0.82354 0.81607 0.46015 0.0
H446 H 0.82167 0.81295 0.48796 0.0
H447 H 0.8258 0.77688 0.47386 0.0
H448 H 0.75404 0.66852 0.47984 0.0
H449 H 0.7806 0.64346 0.50768 0.0
H450 H 0.94498 0.67301 0.80917 0.0
H451 H 1.00974 0.68116 0.80941 0.0
H452 H 0.96179 0.55779 0.81594 0.0
H453 H 0.89638 0.54928 0.8156 0.0
H454 H 1.01423 0.59743 0.84651 0.0
H455 H 1.07718 0.6635 0.77145 0.0
H456 H 1.05556 0.6885 0.78267 0.0
H457 H 1.02556 0.63867 0.77513 0.0
C458 C 0.94795 0.64741 0.8099 0.0
C459 C 0.91546 0.61048 0.81244 0.0
C460 C 0.98512 0.65213 0.80995 0.0
C461 C 0.99064 0.62005 0.81238 0.0
C462 C 0.95815 0.58291 0.81388 0.0
H463 H 0.21084 0.64807 0.86576 0.0
H464 H 0.15039 0.61706 0.84441 0.0
C465 C 0.92086 0.57814 0.81385 0.0
C466 C 1.03024 0.62629 0.81683 0.0
H467 H 0.12324 0.67881 0.80103 0.0
C468 C 1.03797 0.61425 0.83633 0.0
C469 C 1.06114 0.64831 0.80354 0.0
C470 C 1.05434 0.66012 0.78194 0.0
C471 C 1.07604 0.62633 0.84363 0.0
C472 C 0.10719 0.65043 0.83085 0.0
C473 C 0.09932 0.66039 0.81079 0.0
C474 C 0.14774 0.66966 0.83926 0.0
C475 C 1.08263 0.6156 0.86558 0.0
C476 C 0.16749 0.70983 0.84219 0.0
C477 C 0.20208 0.72761 0.85417 0.0
C478 C 0.21739 0.70542 0.86347 0.0
C479 C 0.19931 0.66571 0.85901 0.0
C480 C 0.16483 0.64799 0.84687 0.0
H481 H 1.05576 0.60237 0.87451 0.0
H482 H 0.0929 0.59434 0.8651 0.0
H483 H 0.10514 0.64147 0.8741 0.0
H484 H 0.15479 0.72707 0.83642 0.0
H485 H 0.21521 0.75819 0.85742 0.0
H486 H 0.36571 0.82386 0.15927 0.0
H487 H 0.40304 0.89143 0.14879 0.0
H488 H 0.31905 0.87209 0.09877 0.0
H489 H 0.28029 0.80445 0.10994 0.0
H490 H 0.43711 0.93567 0.11446 0.0
H491 H 0.30843 0.94737 0.13474 0.0
H492 H 0.31059 0.90378 0.13995 0.0
H493 H 0.30271 0.91608 0.11374 0.0
C494 C 0.35539 0.83385 0.14588 0.0
C495 C 0.31955 0.80923 0.13581 0.0
C496 C 0.37695 0.87239 0.13975 0.0
C497 C 0.36327 0.88703 0.12334 0.0
C498 C 0.3296 0.86156 0.1118 0.0
H499 H 0.4593 0.13778 0.14044 0.0
H500 H 0.42879 0.07881 0.11914 0.0
C501 C 0.3077 0.82286 0.11808 0.0
C502 C 0.38166 0.92953 0.12082 0.0
H503 H 0.36818 1.00377 0.13494 0.0
C504 C 0.42184 0.95075 0.11826 0.0
C505 C 0.36163 0.94927 0.12563 0.0
C506 C 0.31852 0.92814 0.12878 0.0
C507 C 0.44304 0.99041 0.12257 0.0
C508 C 0.42347 1.00909 0.12954 0.0
C509 C 0.38293 0.98906 0.12968 0.0
C510 C 0.44443 1.04591 0.14094 0.0
C511 C 0.48652 1.01143 0.1212 0.0
C512 C 0.46223 1.0463 0.16038 0.0
C513 C 0.47881 0.07932 0.17262 0.0
C514 C 0.47857 0.11289 0.16548 0.0
C515 C 0.46044 0.11244 0.14608 0.0
C516 C 0.44325 0.07901 0.1339 0.0
H517 H 0.49573 0.99754 0.1098 0.0
H518 H 0.49775 1.04222 0.11669 0.0
H519 H 0.4998 1.01054 0.13665 0.0
H520 H 0.46232 1.0206 0.16634 0.0
H521 H 0.49175 0.0786 0.18773 0.0
H522 H 0.61915 0.27071 0.52727 0.0
H523 H 0.65955 0.34049 0.53022 0.0
H524 H 0.64894 0.35286 0.46371 0.0
H525 H 0.60931 0.28211 0.46063 0.0
H526 H 0.72066 0.39714 0.47619 0.0
H527 H 0.63194 0.42316 0.52877 0.0
H528 H 0.64037 0.38643 0.54035 0.0
H529 H 0.6135 0.37754 0.51573 0.0
C530 C 0.62474 0.28832 0.51331 0.0
C531 C 0.61061 0.27114 0.49377 0.0
C532 C 0.64772 0.32828 0.51501 0.0
C533 C 0.65635 0.35213 0.49727 0.0
C534 C 0.64225 0.33507 0.47764 0.0
H535 H 0.7884 0.5832 0.54664 0.0
H536 H 0.7407 0.53393 0.52367 0.0
C537 C 0.61964 0.29479 0.47589 0.0
C538 C 0.68232 0.39447 0.49951 0.0
H539 H 0.70205 0.46729 0.53269 0.0
C540 C 0.71622 0.41293 0.48817 0.0
C541 C 0.67601 0.41577 0.51447 0.0
C542 C 0.63818 0.3997 0.52528 0.0
C543 C 0.7455 0.45088 0.49281 0.0
C544 C 0.74153 0.47006 0.50991 0.0
C545 C 0.70602 0.45273 0.51988 0.0
C546 C 0.77448 0.50582 0.51918 0.0
C547 C 0.78035 0.46957 0.47942 0.0
C548 C 0.81048 0.50805 0.52372 0.0
C549 C 0.83918 0.5382 0.53575 0.0
C550 C 0.83216 0.56616 0.54416 0.0
C551 C 0.7962 0.56401 0.53953 0.0
C552 C 0.76824 0.53496 0.52668 0.0
H553 H 0.77171 0.46046 0.46296 0.0
H554 H 0.79518 0.50162 0.48001 0.0
H555 H 0.80111 0.45981 0.48473 0.0
H556 H 0.81577 0.48526 0.5191 0.0
H557 H 0.86601 0.53819 0.53959 0.0
H558 H 0.41998 0.5495 0.84531 0.0
H559 H 0.39451 0.59251 0.8513 0.0
H560 H 0.43162 0.64574 0.79115 0.0
H561 H 0.45754 0.60263 0.78506 0.0
H562 H 0.45846 0.69814 0.82144 0.0
H563 H 0.30189 0.60123 0.83126 0.0
H564 H 0.32975 0.58587 0.8475 0.0
H565 H 0.33183 0.58524 0.81962 0.0
C566 C 0.42162 0.56944 0.83303 0.0
C567 C 0.44074 0.5726 0.81468 0.0
C568 C 0.40692 0.59402 0.83647 0.0
C569 C 0.41059 0.62198 0.82155 0.0
C570 C 0.42826 0.6242 0.80282 0.0
H571 H 0.37574 0.81901 0.8475 0.0
H572 H 0.38119 0.77027 0.82759 0.0
C573 C 0.44316 0.59967 0.7994 0.0
C574 C 0.40056 0.65183 0.8268 0.0
H575 H 0.33052 0.66357 0.84848 0.0
C576 C 0.43018 0.69071 0.82685 0.0
C577 C 0.36365 0.64212 0.83383 0.0
C578 C 0.3299 0.60135 0.83284 0.0
C579 C 0.42465 0.71973 0.83504 0.0
C580 C 0.38854 0.70956 0.84328 0.0
C581 C 0.35827 0.67111 0.84226 0.0
C582 C 0.38307 0.73783 0.85479 0.0
C583 C 0.45805 0.76073 0.83595 0.0
C584 C 0.38177 0.73516 0.87654 0.0
C585 C 0.37914 0.76301 0.88784 0.0
C586 C 0.37766 0.79387 0.87755 0.0
C587 C 0.37766 0.79583 0.85572 0.0
C588 C 0.38059 0.76806 0.8444 0.0
H589 H 0.48527 0.76319 0.83053 0.0
H590 H 0.45072 0.77966 0.82601 0.0
H591 H 0.46324 0.77168 0.85212 0.0
H592 H 0.38351 0.71189 0.88478 0.0
H593 H 0.37842 0.76059 0.90465 0.0
H594 H 0.91494 0.34546 0.19407 0.0
H595 H 0.85453 0.34333 0.20204 0.0
H596 H 0.86782 0.41966 0.15016 0.0
H597 H 0.92855 0.42201 0.14209 0.0
H598 H 0.84219 0.40736 0.21087 0.0
H599 H 0.75891 0.32502 0.13998 0.0
H600 H 0.80441 0.32815 0.14825 0.0
H601 H 0.80375 0.36953 0.13687 0.0
C602 C 0.90504 0.36181 0.18437 0.0
C603 C 0.9263 0.38366 0.16739 0.0
C604 C 0.87065 0.3607 0.18897 0.0
C605 C 0.85683 0.38136 0.17669 0.0
C606 C 0.87791 0.40329 0.15971 0.0
H607 H 0.61201 0.29343 0.1943 0.0
H608 H 0.67509 0.34614 0.18379 0.0
C609 C 0.91237 0.40435 0.15506 0.0
C610 C 0.81952 0.37824 0.18156 0.0
H611 H 0.72373 0.32826 0.16696 0.0
C612 C 0.8163 0.39086 0.20109 0.0
C613 C 0.78604 0.35774 0.16851 0.0
C614 C 0.78809 0.34412 0.14724 0.0
C615 C 0.77995 0.38036 0.20869 0.0
C616 C 0.74617 0.35575 0.19669 0.0
C617 C 0.74967 0.34686 0.17624 0.0
C618 C 0.70834 0.33182 0.20634 0.0
C619 C 0.77803 0.39392 0.22997 0.0
C620 C 0.70607 0.3071 0.22289 0.0
C621 C 0.67035 0.27686 0.22873 0.0
C622 C 0.63597 0.27053 0.21808 0.0
C623 C 0.63802 0.29725 0.20263 0.0
C624 C 0.67398 0.32753 0.19671 0.0
H625 H 0.8025 0.42366 0.23282 0.0
H626 H 0.75031 0.39366 0.23185 0.0
H627 H 0.78074 0.37466 0.24196 0.0
H628 H 0.73211 0.30898 0.23017 0.0
H629 H 0.67017 0.25657 0.24039 0.0
H630 H 0.16396 0.6239 0.09961 0.0
H631 H 0.18464 0.64546 0.06437 0.0
H632 H 0.20838 0.55186 0.05779 0.0
H633 H 0.18673 0.52938 0.09312 0.0
H634 H 0.25583 0.67012 0.0494 0.0
H635 H 0.14392 0.54275 0.00496 0.0
H636 H 0.13944 0.54982 0.03202 0.0
H637 H 0.17101 0.53235 0.02476 0.0
C638 C 0.17319 0.60757 0.09065 0.0
C639 C 0.17357 0.57481 0.09916 0.0
C640 C 0.18511 0.62003 0.0705 0.0
C641 C 0.1978 0.60015 0.05839 0.0
C642 C 0.19802 0.56723 0.06673 0.0
H643 H 0.31932 0.71401 0.94402 0.0
H644 H 0.30524 0.68234 0.97834 0.0
C645 C 0.18574 0.55448 0.08692 0.0
C646 C 0.21178 0.61505 0.03732 0.0
H647 H 0.19219 0.5937 0.98565 0.0
C648 C 0.24211 0.65335 0.03544 0.0
C649 C 0.19367 0.59312 0.01918 0.0
C650 C 0.15999 0.55234 0.02021 0.0
C651 C 0.25408 0.67078 0.0159 0.0
C652 C 0.23585 0.64894 -0.00227 0.0
C653 C 0.20626 0.61027 -0.00038 0.0
C654 C 0.24466 0.66661 0.97668 0.0
C655 C 0.28482 0.71294 0.01492 0.0
C656 C 0.21511 0.66737 0.96417 0.0
C657 C 0.22298 0.68502 0.9446 0.0
C658 C 0.26061 0.70233 0.93712 0.0
C659 C 0.29018 0.70127 0.94954 0.0
C660 C 0.28218 0.68326 0.96911 0.0
H661 H 0.28936 0.72764 0.03003 0.0
H662 H 0.31272 0.71526 0.01095 0.0
H663 H 0.27698 0.72853 0.00275 0.0
H664 H 0.186 0.65483 0.96972 0.0
H665 H 0.19972 0.68579 0.93548 0.0
H666 H 0.59993 0.11748 0.43031 0.0
H667 H 0.59113 0.12829 0.39357 0.0
H668 H 0.57596 1.01645 0.37924 0.0
H669 H 0.58448 1.00499 0.41643 0.0
H670 H 0.63645 0.12834 0.36076 0.0
H671 H 0.48021 1.01754 0.35017 0.0
H672 H 0.50304 1.03437 0.37558 0.0
H673 H 0.51261 1.00205 0.36154 0.0
C674 C 0.59468 0.09499 0.41945 0.0
C675 C 0.59285 0.06027 0.42635 0.0
C676 C 0.58967 0.1013 0.39841 0.0
C677 C 0.58254 0.07307 0.38373 0.0
C678 C 0.58091 1.03838 0.3904 0.0
H679 H 0.55405 0.10366 0.2493 0.0
H680 H 0.55676 0.07426 0.28291 0.0
C681 C 0.58601 1.03199 0.41161 0.0
C682 C 0.57774 0.08111 0.36149 0.0
H683 H 0.50996 0.05862 0.32166 0.0
C684 C 0.60894 0.1128 0.35212 0.0
C685 C 0.54182 0.0607 0.35028 0.0
C686 C 0.5073 1.02686 0.35983 0.0
C687 C 0.60483 0.12545 0.33208 0.0
C688 C 0.56845 0.10621 0.32125 0.0
C689 C 0.53769 0.07341 0.33016 0.0
C690 C 0.56174 0.1213 0.30112 0.0
C691 C 0.63926 0.15981 0.32276 0.0
C692 C 0.56225 0.15677 0.30036 0.0
C693 C 0.56037 0.17349 0.28126 0.0
C694 C 0.55799 0.15504 0.26253 0.0
C695 C 0.55545 0.11846 0.26341 0.0
C696 C 0.55722 0.10169 0.28258 0.0
H697 H 0.66696 0.16575 0.3309 0.0
H698 H 0.64082 0.1551 0.306 0.0
H699 H 0.63613 0.18583 0.32408 0.0
H700 H 0.56524 0.17206 0.31457 0.0
H701 H 0.56181 0.20138 0.28112 0.0
H702 H 0.63003 0.58969 0.75786 0.0
H703 H 0.6475 0.60738 0.72147 0.0
H704 H 0.72248 0.55793 0.72685 0.0
H705 H 0.70546 0.54036 0.76301 0.0
H706 H 0.72815 0.65679 0.70868 0.0
H707 H 0.65446 0.51166 0.67228 0.0
H708 H 0.64014 0.52116 0.69664 0.0
H709 H 0.68193 0.51513 0.69597 0.0
C710 C 0.64973 0.58206 0.75116 0.0
C711 C 0.6664 0.56366 0.76327 0.0
C712 C 0.65978 0.5923 0.73044 0.0
C713 C 0.68602 0.58366 0.72151 0.0
C714 C 0.70181 0.5644 0.73341 0.0
H715 H 0.84299 0.67382 0.62215 0.0
H716 H 0.81081 0.65804 0.6554 0.0
C717 C 0.69215 0.55454 0.75409 0.0
C718 C 0.69908 0.59667 0.70018 0.0
H719 H 0.70365 0.56322 0.65288 0.0
C720 C 0.72239 0.63644 0.69635 0.0
C721 C 0.6913 0.57001 0.68418 0.0
C722 C 0.66531 0.52709 0.68734 0.0
C723 C 0.73952 0.65017 0.6771 0.0
C724 C 0.73332 0.62335 0.66145 0.0
C725 C 0.70862 0.58369 0.665 0.0
C726 C 0.75303 0.63557 0.64148 0.0
C727 C 0.76439 0.69317 0.67371 0.0
C728 C 0.73114 0.62788 0.6227 0.0
C729 C 0.74939 0.63668 0.60374 0.0
C730 C 0.78987 0.65306 0.60321 0.0
C731 C 0.81178 0.66116 0.62207 0.0
C732 C 0.79349 0.65249 0.64106 0.0
H733 H 0.75832 0.70992 0.68494 0.0
H734 H 0.79538 0.70134 0.67589 0.0
H735 H 0.75972 0.70153 0.65765 0.0
H736 H 0.69986 0.6145 0.62272 0.0
H737 H 0.73161 0.62944 0.58948 0.0
H738 H 0.66019 1.01941 0.55598 0.0
H739 H 0.66637 1.01555 0.594 0.0
H740 H 0.58125 1.05126 0.60007 0.0
H741 H 0.57392 1.05375 0.56231 0.0
H742 H 0.68909 0.06717 0.62391 0.0
H743 H 0.53638 0.95762 0.63648 0.0
H744 H 0.55592 0.96953 0.61092 0.0
H745 H 0.54001 0.99922 0.62293 0.0
C746 C 0.64263 1.0262 0.56543 0.0
C747 C 0.61621 1.03641 0.55604 0.0
C748 C 0.64621 1.02404 0.58719 0.0
C749 C 0.62361 1.03221 0.60003 0.0
C750 C 0.59808 1.0435 0.59063 0.0
H751 H 0.67472 0.08944 0.73217 0.0
H752 H 0.66946 0.09093 0.69425 0.0
C753 C 0.59411 1.04516 0.56894 0.0
C754 C 0.62717 1.02972 0.62321 0.0
H755 H 0.57419 0.99166 0.66662 0.0
C756 C 0.66397 1.0504 0.63323 0.0
C757 C 0.59459 1.00734 0.6355 0.0
C758 C 0.5546 0.98185 0.62589 0.0
C759 C 0.66897 1.05003 0.65505 0.0
C760 C 0.63609 1.02934 0.66738 0.0
C761 C 0.59942 1.00801 0.65732 0.0
C762 C 0.63896 1.0287 0.69065 0.0
C763 C 0.70961 0.07114 0.66456 0.0
C764 C 0.62215 0.99331 0.70155 0.0
C765 C 0.62405 0.99233 0.72334 0.0
C766 C 0.64309 1.02678 0.73492 0.0
C767 C 0.65958 0.06225 0.72395 0.0
C768 C 0.6572 0.06317 0.70213 0.0
H769 H 0.73134 0.07449 0.65329 0.0
H770 H 0.71647 0.10055 0.66917 0.0
H771 H 0.71271 1.05577 0.67858 0.0
H772 H 0.60752 0.96624 0.69317 0.0
H773 H 0.61014 0.96442 0.73107 0.0
H774 H 0.71004 0.58667 0.89818 0.0
H775 H 0.70924 0.58263 0.93606 0.0
H776 H 0.58619 0.50246 0.93242 0.0
H777 H 0.58714 0.50518 0.89434 0.0
H778 H 0.67566 0.60212 0.96295 0.0
H779 H 0.61945 0.44457 0.97188 0.0
H780 H 0.63447 0.46927 0.94726 0.0
H781 H 0.58727 0.45552 0.95644 0.0
C782 C 0.68277 0.56799 0.9054 0.0
C783 C 0.64867 0.54606 0.89317 0.0
C784 C 0.68235 0.56573 0.92713 0.0
C785 C 0.6478 0.54174 0.93728 0.0
C786 C 0.61349 0.52033 0.92509 0.0
H787 H 0.63218 0.57323 0.07035 0.0
H788 H 0.62528 0.57251 0.03246 0.0
C789 C 0.614 0.52212 0.90327 0.0
C790 C 0.64794 0.54013 0.96054 0.0
H791 H 0.62399 0.47865 0.00245 0.0
C792 C 0.66441 0.57507 0.97155 0.0
C793 C 0.63378 0.50495 0.97192 0.0
C794 C 0.61812 0.4665 0.96129 0.0
C795 C 0.66725 0.57589 -0.00656 0.0
C796 C 0.65192 0.54064 0.00483 0.0
C797 C 0.63539 0.50569 -0.00617 0.0
C798 C 0.65409 0.53942 0.02809 0.0
C799 C 0.68796 0.61472 0.00403 0.0
C800 C 0.67085 0.51946 0.03852 0.0
C801 C 0.67379 0.51878 0.0603 0.0
C802 C 0.6603 0.53833 0.07231 0.0
C803 C 0.64278 0.55764 0.06179 0.0
C804 C 0.63936 0.55782 0.04 0.0
H805 H 0.70786 0.63792 -0.00658 0.0
H806 H 0.66628 0.62245 0.00882 0.0
H807 H 0.70504 0.61413 0.01808 0.0
H808 H 0.6821 0.50464 0.02979 0.0
H809 H 0.68654 0.50271 0.06768 0.0
H810 H 0.17646 0.58323 0.2365 0.0
H811 H 0.16315 0.57526 0.2734 0.0
H812 H 1.06773 0.46023 0.26218 0.0
H813 H 1.0808 0.46791 0.22489 0.0
H814 H 0.09133 0.55833 0.29141 0.0
H815 H 0.1349 0.44784 0.31105 0.0
H816 H 0.15017 0.47753 0.28785 0.0
H817 H 0.10145 0.438 0.28912 0.0
C818 C 0.15272 0.55604 0.24177 0.0
C819 C 0.12977 0.52614 0.22762 0.0
C820 C 0.14512 0.55162 0.26294 0.0
C821 C 0.11464 0.51711 0.2706 0.0
C822 C 0.09171 0.48698 0.25664 0.0
H823 H 1.02392 0.49186 0.39512 0.0
H824 H 1.03006 0.49085 0.35748 0.0
C825 C 0.09916 0.49146 0.23532 0.0
C826 C 0.10668 0.51355 0.29316 0.0
H827 H 0.11168 0.46812 0.33825 0.0
C828 C 0.09547 0.53839 0.30163 0.0
C829 C 0.11254 0.48785 0.30651 0.0
C830 C 0.12568 0.46138 0.29832 0.0
C831 C 0.09011 0.53834 0.32307 0.0
C832 C 0.09592 0.51262 0.33643 0.0
C833 C 0.10703 0.48767 0.32797 0.0
C834 C 0.09185 0.51218 0.35932 0.0
C835 C 1.07933 0.56658 0.33138 0.0
C836 C 0.12441 0.52394 0.37292 0.0
C837 C 0.121 0.52454 0.39445 0.0
C838 C 1.08483 0.51298 0.40288 0.0
C839 C 1.05215 0.50072 0.3892 0.0
C840 C 1.05565 0.50037 0.36765 0.0
H841 H 1.08328 0.58939 0.31978 0.0
H842 H 1.04842 0.55078 0.33549 0.0
H843 H 0.09704 0.58066 0.34569 0.0
H844 H 0.15261 0.53306 0.36684 0.0
H845 H 0.14665 0.53366 0.40453 0.0
loop_
_geom_bond_atom_site_label_1
_geom_bond_atom_site_label_2
_geom_bond_distance
_geom_bond_site_symmetry_2
_ccdc_geom_bond_type
Eu0 C9 2.828 . S
Eu0 O11 2.392 1_655 S
Eu0 O13 2.418 . S
Eu0 O18 2.373 . S
Eu0 O21 2.488 . S
Eu0 O22 2.471 . S
Eu0 O23 2.349 . S
Eu1 O10 2.373 . S
Eu1 O14 2.488 . S
Eu1 O15 2.471 . S
Eu1 O16 2.349 . S
Eu1 O19 2.392 1_455 S
Eu1 O20 2.418 . S
Eu1 C30 2.828 . S
C2 O20 1.244 . S
C2 O23 1.265 1_455 S
C3 C4 1.379 . S
C3 C7 1.373 . S
C3 C9 1.505 . S
C4 C3 1.379 . S
C4 C6 1.369 . S
C4 H32 0.930 . S
C5 C7 1.383 . S
C5 C8 1.382 . S
C5 H33 0.930 . S
C6 C4 1.369 . S
C6 C8 1.392 . S
C6 H34 0.930 . S
C7 C3 1.373 . S
C7 C5 1.383 . S
C7 H35 0.931 . S
C8 C5 1.382 . S
C8 C6 1.392 . S
C9 Eu0 2.828 . S
C9 C3 1.505 . S
C9 O21 1.249 . S
C9 O22 1.244 . S
O10 Eu1 2.373 . S
O10 C12 1.258 . S
O11 Eu0 2.392 1_455 S
O11 C12 1.242 . S
C12 O10 1.258 . S
C12 O11 1.242 . S
O13 Eu0 2.418 . S
O13 C17 1.244 1_655 S
O14 Eu1 2.488 . S
O14 C30 1.249 . S
O15 Eu1 2.471 . S
O15 C30 1.244 . S
O16 Eu1 2.349 . S
O16 C17 1.265 . S
C17 O13 1.244 1_455 S
C17 O16 1.265 . S
O18 Eu0 2.373 . S
O18 C31 1.258 . S
O19 Eu1 2.392 1_655 S
O19 C31 1.242 . S
O20 Eu1 2.418 . S
O20 C2 1.244 . S
O21 Eu0 2.488 . S
O21 C9 1.249 . S
O22 Eu0 2.471 . S
O22 C9 1.244 . S
O23 Eu0 2.349 . S
O23 C2 1.265 1_655 S
C24 C25 1.379 . S
C24 C28 1.373 . S
C24 C30 1.505 . S
C25 C24 1.379 . S
C25 C27 1.369 . S
C25 H36 0.930 . S
C26 C28 1.383 . S
C26 C29 1.382 . S
C26 H37 0.930 . S
C27 C25 1.369 . S
C27 C29 1.392 . S
C27 H38 0.930 . S
C28 C24 1.373 . S
C28 C26 1.383 . S
C28 H39 0.931 . S
C29 C26 1.382 . S
C29 C27 1.392 . S
C30 Eu1 2.828 . S
C30 O14 1.249 . S
C30 O15 1.244 . S
C30 C24 1.505 . S
C31 O18 1.258 . S
C31 O19 1.242 . S
H32 C4 0.930 . S
H33 C5 0.930 . S
H34 C6 0.930 . S
H35 C7 0.931 . S
H36 C25 0.930 . S
H37 C26 0.930 . S
H38 C27 0.930 . S
H39 C28 0.931 . S
Eu40 C49 2.828 . S
Eu40 O51 2.392 1_565 S
Eu40 O53 2.412 1_565 S
Eu40 O58 2.373 . S
Eu40 O61 2.488 . S
Eu40 O62 2.471 . S
Eu40 O63 2.349 1_565 S
Eu41 O50 2.373 . S
Eu41 O54 2.488 . S
Eu41 O55 2.471 . S
Eu41 O56 2.349 . S
Eu41 O59 2.392 1_545 S
Eu41 O60 2.418 . S
Eu41 C70 2.828 . S
C42 O60 1.244 . S
C42 O63 1.265 . S
C43 C44 1.379 . S
C43 C47 1.373 . S
C43 C49 1.505 . S
C44 C43 1.379 . S
C44 C46 1.369 . S
C44 H72 0.930 . S
C45 C47 1.383 . S
C45 C48 1.382 . S
C45 H73 0.930 . S
C46 C44 1.369 . S
C46 C48 1.392 . S
C46 H74 0.930 . S
C47 C43 1.373 . S
C47 C45 1.383 . S
C47 H75 0.931 . S
C48 C45 1.382 . S
C48 C46 1.392 . S
C49 Eu40 2.828 . S
C49 C43 1.505 . S
C49 O61 1.249 . S
C49 O62 1.244 . S
O50 Eu41 2.373 . S
O50 C52 1.258 . S
O51 Eu40 2.392 1_545 S
O51 C52 1.242 . S
C52 O50 1.258 . S
C52 O51 1.242 . S
O53 Eu40 2.412 1_545 S
O53 C57 1.276 . S
O54 Eu41 2.488 . S
O54 C70 1.249 . S
O55 Eu41 2.471 . S
O55 C70 1.244 . S
O56 Eu41 2.349 . S
O56 C57 1.265 . S
C57 O53 1.276 . S
C57 O56 1.265 . S
O58 Eu40 2.373 . S
O58 C71 1.258 . S
O59 Eu41 2.392 1_565 S
O59 C71 1.242 . S
O60 Eu41 2.418 . S
O60 C42 1.244 . S
O61 Eu40 2.488 . S
O61 C49 1.249 . S
O62 Eu40 2.471 . S
O62 C49 1.244 . S
O63 Eu40 2.349 1_545 S
O63 C42 1.265 . S
C64 C65 1.379 . S
C64 C68 1.373 . S
C64 C70 1.505 . S
C65 C64 1.379 . S
C65 C67 1.369 . S
C65 H76 0.930 . S
C66 C68 1.383 . S
C66 C69 1.382 . S
C66 H77 0.930 . S
C67 C65 1.369 . S
C67 C69 1.392 . S
C67 H78 0.930 . S
C68 C64 1.373 . S
C68 C66 1.383 . S
C68 H79 0.931 . S
C69 C66 1.382 . S
C69 C67 1.392 . S
C70 Eu41 2.828 . S
C70 O54 1.249 . S
C70 O55 1.244 . S
C70 C64 1.505 . S
C71 O58 1.258 . S
C71 O59 1.242 . S
H72 C44 0.930 . S
H73 C45 0.930 . S
H74 C46 0.930 . S
H75 C47 0.931 . S
H76 C65 0.930 . S
H77 C66 0.930 . S
H78 C67 0.930 . S
H79 C68 0.931 . S
Eu80 C89 2.828 . S
Eu80 O91 2.392 . S
Eu80 O93 2.418 . S
Eu80 O98 2.373 . S
Eu80 O101 2.488 . S
Eu80 O102 2.471 . S
Eu80 O103 2.349 . S
Eu81 O90 2.373 . S
Eu81 O94 2.488 . S
Eu81 O95 2.471 . S
Eu81 O96 2.349 . S
Eu81 O99 2.392 . S
Eu81 O100 2.418 . S
Eu81 C110 2.828 . S
C82 O100 1.244 . S
C82 O103 1.265 . S
C83 C84 1.379 . S
C83 C87 1.373 . S
C83 C89 1.505 . S
C84 C83 1.379 . S
C84 C86 1.369 . S
C84 H112 0.930 . S
C85 C87 1.383 . S
C85 C88 1.382 . S
C85 H113 0.930 . S
C86 C84 1.369 . S
C86 C88 1.392 . S
C86 H114 0.930 . S
C87 C83 1.373 . S
C87 C85 1.383 . S
C87 H115 0.931 . S
C88 C85 1.382 . S
C88 C86 1.392 . S
C89 Eu80 2.828 . S
C89 C83 1.505 . S
C89 O101 1.249 . S
C89 O102 1.244 . S
O90 Eu81 2.373 . S
O90 C92 1.258 . S
O91 Eu80 2.392 . S
O91 C92 1.242 . S
C92 O90 1.258 . S
C92 O91 1.242 . S
O93 Eu80 2.418 . S
O93 C97 1.244 . S
O94 Eu81 2.488 . S
O94 C110 1.249 . S
O95 Eu81 2.471 . S
O95 C110 1.244 . S
O96 Eu81 2.349 . S
O96 C97 1.265 . S
C97 O93 1.244 . S
C97 O96 1.265 . S
O98 Eu80 2.373 . S
O98 C111 1.258 . S
O99 Eu81 2.392 . S
O99 C111 1.242 . S
O100 Eu81 2.418 . S
O100 C82 1.244 . S
O101 Eu80 2.488 . S
O101 C89 1.249 . S
O102 Eu80 2.471 . S
O102 C89 1.244 . S
O103 Eu80 2.349 . S
O103 C82 1.265 . S
C104 C105 1.379 . S
C104 C108 1.373 . S
C104 C110 1.505 . S
C105 C104 1.379 . S
C105 C107 1.369 . S
C105 H116 0.930 . S
C106 C108 1.383 . S
C106 C109 1.382 . S
C106 H117 0.930 . S
C107 C105 1.369 . S
C107 C109 1.392 . S
C107 H118 0.930 . S
C108 C104 1.373 . S
C108 C106 1.383 . S
C108 H119 0.931 . S
C109 C106 1.382 . S
C109 C107 1.392 . S
C110 Eu81 2.828 . S
C110 O94 1.249 . S
C110 O95 1.244 . S
C110 C104 1.505 . S
C111 O98 1.258 . S
C111 O99 1.242 . S
H112 C84 0.930 . S
H113 C85 0.930 . S
H114 C86 0.930 . S
H115 C87 0.931 . S
H116 C105 0.930 . S
H117 C106 0.930 . S
H118 C107 0.930 . S
H119 C108 0.931 . S
H120 C127 0.929 . S
H121 C130 0.930 1_565 S
H122 C132 0.929 . S
H123 C124 0.969 . S
C124 H123 0.969 . S
C124 O125 1.550 . S
C124 H126 0.973 . S
O125 C124 1.550 . S
O125 C131 1.412 1_565 S
H126 C124 0.973 . S
C127 H120 0.929 . S
C127 C128 1.400 . S
C127 C129 1.364 . S
C128 C127 1.400 . S
C128 C132 1.377 . S
C129 C127 1.364 . S
C129 C130 1.374 . S
C130 H121 0.930 1_545 S
C130 C129 1.374 . S
C130 C131 1.383 . S
C131 O125 1.412 1_545 S
C131 C130 1.383 . S
C131 C132 1.394 . S
C132 H122 0.929 . S
C132 C128 1.377 . S
C132 C131 1.394 . S
H133 C140 0.929 . S
H134 C143 0.930 . S
H135 C145 0.929 . S
H136 C137 0.969 . S
C137 H136 0.969 . S
C137 O138 1.550 . S
C137 H139 0.973 . S
O138 C137 1.550 . S
O138 C144 1.412 . S
H139 C137 0.973 . S
C140 H133 0.929 . S
C140 C141 1.400 . S
C140 C142 1.364 . S
C141 C140 1.400 . S
C141 C145 1.377 . S
C142 C140 1.364 . S
C142 C143 1.374 . S
C143 H134 0.930 . S
C143 C142 1.374 . S
C143 C144 1.383 . S
C144 O138 1.412 . S
C144 C143 1.383 . S
C144 C145 1.394 . S
C145 H135 0.929 . S
C145 C141 1.377 . S
C145 C144 1.394 . S
H146 C153 0.929 . S
H147 C156 0.930 . S
H148 C158 0.929 . S
H149 C150 0.969 . S
C150 H149 0.969 . S
C150 O151 1.550 . S
C150 H152 0.973 . S
O151 C150 1.550 . S
O151 C157 1.412 . S
H152 C150 0.973 . S
C153 H146 0.929 . S
C153 C154 1.400 . S
C153 C155 1.364 . S
C154 C153 1.400 . S
C154 C158 1.377 . S
C155 C153 1.364 . S
C155 C156 1.374 . S
C156 H147 0.930 . S
C156 C155 1.374 . S
C156 C157 1.383 . S
C157 O151 1.412 . S
C157 C156 1.383 . S
C157 C158 1.394 . S
C158 H148 0.929 . S
C158 C154 1.377 . S
C158 C157 1.394 . S
H159 C166 0.929 . S
H160 C169 0.930 . S
H161 C171 0.929 . S
H162 C163 0.969 . S
C163 H162 0.969 . S
C163 O164 1.550 . S
C163 H165 0.973 . S
O164 C163 1.550 . S
O164 C170 1.412 . S
H165 C163 0.973 . S
C166 H159 0.929 . S
C166 C167 1.400 . S
C166 C168 1.364 . S
C167 C166 1.400 . S
C167 C171 1.377 . S
C168 C166 1.364 . S
C168 C169 1.374 . S
C169 H160 0.930 . S
C169 C168 1.374 . S
C169 C170 1.383 . S
C170 O164 1.412 . S
C170 C169 1.383 . S
C170 C171 1.394 . S
C171 H161 0.929 . S
C171 C167 1.377 . S
C171 C170 1.394 . S
H172 C179 0.929 1_565 S
H173 C182 0.930 . S
H174 C184 0.929 . S
H175 C176 0.969 . S
C176 H175 0.969 . S
C176 O177 1.550 . S
C176 H178 0.973 . S
O177 C176 1.550 . S
O177 C183 1.412 . S
H178 C176 0.973 . S
C179 H172 0.929 1_545 S
C179 C180 1.400 . S
C179 C181 1.364 . S
C180 C179 1.400 . S
C180 C184 1.377 . S
C181 C179 1.364 . S
C181 C182 1.374 . S
C182 H173 0.930 . S
C182 C181 1.374 . S
C182 C183 1.383 . S
C183 O177 1.412 . S
C183 C182 1.383 . S
C183 C184 1.394 . S
C184 H174 0.929 . S
C184 C180 1.377 . S
C184 C183 1.394 . S
H185 C192 0.929 . S
H186 C195 0.930 . S
H187 C197 0.929 . S
H188 C189 0.969 . S
C189 H188 0.969 . S
C189 O190 1.550 . S
C189 H191 0.973 . S
O190 C189 1.550 . S
O190 C196 1.412 . S
H191 C189 0.973 . S
C192 H185 0.929 . S
C192 C193 1.400 . S
C192 C194 1.364 . S
C193 C192 1.400 . S
C193 C197 1.377 . S
C194 C192 1.364 . S
C194 C195 1.374 . S
C195 H186 0.930 . S
C195 C194 1.374 . S
C195 C196 1.383 . S
C196 O190 1.412 . S
C196 C195 1.383 . S
C196 C197 1.394 . S
C197 H187 0.929 . S
C197 C193 1.377 . S
C197 C196 1.394 . S
H198 C206 0.929 . S
H199 C208 0.930 . S
H200 C210 0.930 . S
H201 C213 0.929 . S
H202 C216 0.930 . S
H203 C218 0.960 . S
H204 C218 0.960 . S
H205 C218 0.960 . S
C206 H198 0.929 . S
C206 C207 1.377 . S
C206 C208 1.384 . S
C207 C206 1.377 . S
C207 C213 1.390 . S
C208 H199 0.930 . S
C208 C206 1.384 . S
C208 C209 1.372 . S
C209 C208 1.372 . S
C209 C210 1.400 . S
C209 C214 1.490 . S
C210 H200 0.930 . S
C210 C209 1.400 . S
C210 C213 1.386 . S
H211 C227 0.930 . S
H212 C228 0.931 . S
C213 H201 0.929 . S
C213 C207 1.390 . S
C213 C210 1.386 . S
C214 C209 1.490 . S
C214 C216 1.395 . S
C214 C217 1.403 . S
H215 C221 0.930 . S
C216 H202 0.930 . S
C216 C214 1.395 . S
C216 C219 1.403 . S
C217 C214 1.403 . S
C217 C218 1.524 . S
C217 C221 1.400 . S
C218 H203 0.960 . S
C218 H204 0.960 . S
C218 H205 0.960 . S
C218 C217 1.524 . S
C219 C216 1.403 . S
C219 C220 1.392 . S
C219 C223 1.495 . S
C220 C219 1.392 . S
C220 C221 1.385 . S
C220 C222 1.478 . S
C221 H215 0.930 . S
C221 C217 1.400 . S
C221 C220 1.385 . S
C222 C220 1.478 . S
C222 C224 1.381 . S
C222 C228 1.383 . S
C223 C219 1.495 . S
C223 H229 0.959 . S
C223 H230 0.961 . S
C223 H231 0.960 . S
C224 C222 1.381 . S
C224 C225 1.394 . S
C224 H232 0.930 . S
C225 C224 1.394 . S
C225 C226 1.383 . S
C225 H233 0.929 . S
C226 C225 1.383 . S
C226 C227 1.377 . S
C227 H211 0.930 . S
C227 C226 1.377 . S
C227 C228 1.379 . S
C228 H212 0.931 . S
C228 C222 1.383 . S
C228 C227 1.379 . S
H229 C223 0.959 . S
H230 C223 0.961 . S
H231 C223 0.960 . S
H232 C224 0.930 . S
H233 C225 0.929 . S
H234 C242 0.929 . S
H235 C244 0.930 . S
H236 C246 0.930 . S
H237 C249 0.929 . S
H238 C252 0.930 . S
H239 C254 0.960 . S
H240 C254 0.960 . S
H241 C254 0.960 . S
C242 H234 0.929 . S
C242 C243 1.377 . S
C242 C244 1.384 . S
C243 C242 1.377 . S
C243 C249 1.390 . S
C244 H235 0.930 . S
C244 C242 1.384 . S
C244 C245 1.372 . S
C245 C244 1.372 . S
C245 C246 1.400 . S
C245 C250 1.490 . S
C246 H236 0.930 . S
C246 C245 1.400 . S
C246 C249 1.386 . S
H247 C263 0.930 . S
H248 C264 0.931 . S
C249 H237 0.929 . S
C249 C243 1.390 . S
C249 C246 1.386 . S
C250 C245 1.490 . S
C250 C252 1.395 . S
C250 C253 1.403 . S
H251 C257 0.930 . S
C252 H238 0.930 . S
C252 C250 1.395 . S
C252 C255 1.403 . S
C253 C250 1.403 . S
C253 C254 1.524 . S
C253 C257 1.400 . S
C254 H239 0.960 . S
C254 H240 0.960 . S
C254 H241 0.960 . S
C254 C253 1.524 . S
C255 C252 1.403 . S
C255 C256 1.392 . S
C255 C259 1.495 . S
C256 C255 1.392 . S
C256 C257 1.385 . S
C256 C258 1.478 . S
C257 H251 0.930 . S
C257 C253 1.400 . S
C257 C256 1.385 . S
C258 C256 1.478 . S
C258 C260 1.381 . S
C258 C264 1.383 . S
C259 C255 1.495 . S
C259 H265 0.959 . S
C259 H266 0.961 . S
C259 H267 0.960 . S
C260 C258 1.381 . S
C260 C261 1.394 . S
C260 H268 0.930 . S
C261 C260 1.394 . S
C261 C262 1.383 . S
C261 H269 0.929 . S
C262 C261 1.383 . S
C262 C263 1.377 . S
C263 H247 0.930 . S
C263 C262 1.377 . S
C263 C264 1.379 . S
C264 H248 0.931 . S
C264 C258 1.383 . S
C264 C263 1.379 . S
H265 C259 0.959 . S
H266 C259 0.961 . S
H267 C259 0.960 . S
H268 C260 0.930 . S
H269 C261 0.929 . S
H270 C278 0.929 . S
H271 C280 0.930 . S
H272 C282 0.930 . S
H273 C285 0.929 . S
H274 C288 0.930 . S
H275 C290 0.960 . S
H276 C290 0.960 . S
H277 C290 0.960 . S
C278 H270 0.929 . S
C278 C279 1.377 . S
C278 C280 1.384 . S
C279 C278 1.377 . S
C279 C285 1.390 . S
C280 H271 0.930 . S
C280 C278 1.384 . S
C280 C281 1.372 . S
C281 C280 1.372 . S
C281 C282 1.400 . S
C281 C286 1.490 . S
C282 H272 0.930 . S
C282 C281 1.400 . S
C282 C285 1.386 . S
H283 C299 0.930 . S
H284 C300 0.931 . S
C285 H273 0.929 . S
C285 C279 1.390 . S
C285 C282 1.386 . S
C286 C281 1.490 . S
C286 C288 1.395 . S
C286 C289 1.403 . S
H287 C293 0.930 . S
C288 H274 0.930 . S
C288 C286 1.395 . S
C288 C291 1.403 . S
C289 C286 1.403 . S
C289 C290 1.524 . S
C289 C293 1.400 . S
C290 H275 0.960 . S
C290 H276 0.960 . S
C290 H277 0.960 . S
C290 C289 1.524 . S
C291 C288 1.403 . S
C291 C292 1.392 . S
C291 C295 1.495 . S
C292 C291 1.392 . S
C292 C293 1.385 . S
C292 C294 1.478 . S
C293 H287 0.930 . S
C293 C289 1.400 . S
C293 C292 1.385 . S
C294 C292 1.478 . S
C294 C296 1.381 . S
C294 C300 1.383 . S
C295 C291 1.495 . S
C295 H301 0.959 . S
C295 H302 0.961 . S
C295 H303 0.960 . S
C296 C294 1.381 . S
C296 C297 1.394 . S
C296 H304 0.930 . S
C297 C296 1.394 . S
C297 C298 1.383 . S
C297 H305 0.929 . S
C298 C297 1.383 . S
C298 C299 1.377 . S
C299 H283 0.930 . S
C299 C298 1.377 . S
C299 C300 1.379 . S
C300 H284 0.931 . S
C300 C294 1.383 . S
C300 C299 1.379 . S
H301 C295 0.959 . S
H302 C295 0.961 . S
H303 C295 0.960 . S
H304 C296 0.930 . S
H305 C297 0.929 . S
H306 C314 0.929 . S
H307 C316 0.930 . S
H308 C318 0.930 . S
H309 C321 0.929 . S
H310 C324 0.930 . S
H311 C326 0.960 . S
H312 C326 0.960 . S
H313 C326 0.960 . S
C314 H306 0.929 . S
C314 C315 1.377 . S
C314 C316 1.384 . S
C315 C314 1.377 . S
C315 C321 1.390 . S
C316 H307 0.930 . S
C316 C314 1.384 . S
C316 C317 1.372 . S
C317 C316 1.372 . S
C317 C318 1.400 . S
C317 C322 1.490 . S
C318 H308 0.930 . S
C318 C317 1.400 . S
C318 C321 1.386 . S
H319 C335 0.930 . S
H320 C336 0.931 . S
C321 H309 0.929 . S
C321 C315 1.390 . S
C321 C318 1.386 . S
C322 C317 1.490 . S
C322 C324 1.395 . S
C322 C325 1.403 . S
H323 C329 0.930 . S
C324 H310 0.930 . S
C324 C322 1.395 . S
C324 C327 1.403 . S
C325 C322 1.403 . S
C325 C326 1.524 . S
C325 C329 1.400 . S
C326 H311 0.960 . S
C326 H312 0.960 . S
C326 H313 0.960 . S
C326 C325 1.524 . S
C327 C324 1.403 . S
C327 C328 1.392 . S
C327 C331 1.495 . S
C328 C327 1.392 . S
C328 C329 1.385 . S
C328 C330 1.478 . S
C329 H323 0.930 . S
C329 C325 1.400 . S
C329 C328 1.385 . S
C330 C328 1.478 . S
C330 C332 1.381 . S
C330 C336 1.383 . S
C331 C327 1.495 . S
C331 H337 0.959 . S
C331 H338 0.961 . S
C331 H339 0.960 . S
C332 C330 1.381 . S
C332 C333 1.394 . S
C332 H340 0.930 . S
C333 C332 1.394 . S
C333 C334 1.383 . S
C333 H341 0.929 . S
C334 C333 1.383 . S
C334 C335 1.377 . S
C335 H319 0.930 . S
C335 C334 1.377 . S
C335 C336 1.379 . S
C336 H320 0.931 . S
C336 C330 1.383 . S
C336 C335 1.379 . S
H337 C331 0.959 . S
H338 C331 0.961 . S
H339 C331 0.960 . S
H340 C332 0.930 . S
H341 C333 0.929 . S
H342 C350 0.929 . S
H343 C352 0.930 . S
H344 C354 0.930 . S
H345 C357 0.929 . S
H346 C360 0.930 . S
H347 C362 0.960 . S
H348 C362 0.960 . S
H349 C362 0.960 . S
C350 H342 0.929 . S
C350 C351 1.377 . S
C350 C352 1.384 . S
C351 C350 1.377 . S
C351 C357 1.390 . S
C352 H343 0.930 . S
C352 C350 1.384 . S
C352 C353 1.372 . S
C353 C352 1.372 . S
C353 C354 1.400 . S
C353 C358 1.490 . S
C354 H344 0.930 . S
C354 C353 1.400 . S
C354 C357 1.386 . S
H355 C371 0.930 . S
H356 C372 0.931 . S
C357 H345 0.929 . S
C357 C351 1.390 . S
C357 C354 1.386 . S
C358 C353 1.490 . S
C358 C360 1.395 . S
C358 C361 1.403 . S
H359 C365 0.930 . S
C360 H346 0.930 . S
C360 C358 1.395 . S
C360 C363 1.403 . S
C361 C358 1.403 . S
C361 C362 1.524 . S
C361 C365 1.400 . S
C362 H347 0.960 . S
C362 H348 0.960 . S
C362 H349 0.960 . S
C362 C361 1.524 . S
C363 C360 1.403 . S
C363 C364 1.392 . S
C363 C367 1.495 . S
C364 C363 1.392 . S
C364 C365 1.385 . S
C364 C366 1.478 . S
C365 H359 0.930 . S
C365 C361 1.400 . S
C365 C364 1.385 . S
C366 C364 1.478 . S
C366 C368 1.381 . S
C366 C372 1.383 . S
C367 C363 1.495 . S
C367 H373 0.959 . S
C367 H374 0.961 . S
C367 H375 0.960 . S
C368 C366 1.381 . S
C368 C369 1.394 . S
C368 H376 0.930 . S
C369 C368 1.394 . S
C369 C370 1.383 . S
C369 H377 0.929 . S
C370 C369 1.383 . S
C370 C371 1.377 . S
C371 H355 0.930 . S
C371 C370 1.377 . S
C371 C372 1.379 . S
C372 H356 0.931 . S
C372 C366 1.383 . S
C372 C371 1.379 . S
H373 C367 0.959 . S
H374 C367 0.961 . S
H375 C367 0.960 . S
H376 C368 0.930 . S
H377 C369 0.929 . S
H378 C386 0.929 . S
H379 C388 0.930 . S
H380 C390 0.930 . S
H381 C393 0.929 . S
H382 C396 0.930 . S
H383 C398 0.960 . S
H384 C398 0.960 . S
H385 C398 0.960 . S
C386 H378 0.929 . S
C386 C387 1.377 . S
C386 C388 1.384 . S
C387 C386 1.377 . S
C387 C393 1.390 . S
C388 H379 0.930 . S
C388 C386 1.384 . S
C388 C389 1.372 . S
C389 C388 1.372 . S
C389 C390 1.400 . S
C389 C394 1.490 . S
C390 H380 0.930 . S
C390 C389 1.400 . S
C390 C393 1.386 . S
H391 C407 0.930 . S
H392 C408 0.931 . S
C393 H381 0.929 . S
C393 C387 1.390 . S
C393 C390 1.386 . S
C394 C389 1.490 . S
C394 C396 1.395 . S
C394 C397 1.403 . S
H395 C401 0.930 . S
C396 H382 0.930 . S
C396 C394 1.395 . S
C396 C399 1.403 . S
C397 C394 1.403 . S
C397 C398 1.524 . S
C397 C401 1.400 . S
C398 H383 0.960 . S
C398 H384 0.960 . S
C398 H385 0.960 . S
C398 C397 1.524 . S
C399 C396 1.403 . S
C399 C400 1.392 . S
C399 C403 1.495 . S
C400 C399 1.392 . S
C400 C401 1.385 . S
C400 C402 1.478 . S
C401 H395 0.930 . S
C401 C397 1.400 . S
C401 C400 1.385 . S
C402 C400 1.478 . S
C402 C404 1.381 . S
C402 C408 1.383 . S
C403 C399 1.495 . S
C403 H409 0.959 . S
C403 H410 0.961 . S
C403 H411 0.960 . S
C404 C402 1.381 . S
C404 C405 1.394 . S
C404 H412 0.930 . S
C405 C404 1.394 . S
C405 C406 1.383 . S
C405 H413 0.929 . S
C406 C405 1.383 . S
C406 C407 1.377 . S
C407 H391 0.930 . S
C407 C406 1.377 . S
C407 C408 1.379 . S
C408 H392 0.931 . S
C408 C402 1.383 . S
C408 C407 1.379 . S
H409 C403 0.959 . S
H410 C403 0.961 . S
H411 C403 0.960 . S
H412 C404 0.930 . S
H413 C405 0.929 . S
H414 C422 0.929 . S
H415 C424 0.930 . S
H416 C426 0.930 . S
H417 C429 0.929 . S
H418 C432 0.930 . S
H419 C434 0.960 . S
H420 C434 0.960 . S
H421 C434 0.960 . S
C422 H414 0.929 . S
C422 C423 1.377 . S
C422 C424 1.384 . S
C423 C422 1.377 . S
C423 C429 1.390 . S
C424 H415 0.930 . S
C424 C422 1.384 . S
C424 C425 1.372 . S
C425 C424 1.372 . S
C425 C426 1.400 . S
C425 C430 1.490 . S
C426 H416 0.930 . S
C426 C425 1.400 . S
C426 C429 1.386 . S
H427 C443 0.930 . S
H428 C444 0.931 . S
C429 H417 0.929 . S
C429 C423 1.390 . S
C429 C426 1.386 . S
C430 C425 1.490 . S
C430 C432 1.395 . S
C430 C433 1.403 . S
H431 C437 0.930 . S
C432 H418 0.930 . S
C432 C430 1.395 . S
C432 C435 1.403 . S
C433 C430 1.403 . S
C433 C434 1.524 . S
C433 C437 1.400 . S
C434 H419 0.960 . S
C434 H420 0.960 . S
C434 H421 0.960 . S
C434 C433 1.524 . S
C435 C432 1.403 . S
C435 C436 1.392 . S
C435 C439 1.495 . S
C436 C435 1.392 . S
C436 C437 1.385 . S
C436 C438 1.478 . S
C437 H431 0.930 . S
C437 C433 1.400 . S
C437 C436 1.385 . S
C438 C436 1.478 . S
C438 C440 1.381 . S
C438 C444 1.383 . S
C439 C435 1.495 . S
C439 H445 0.959 . S
C439 H446 0.961 . S
C439 H447 0.960 . S
C440 C438 1.381 . S
C440 C441 1.394 . S
C440 H448 0.930 . S
C441 C440 1.394 . S
C441 C442 1.383 . S
C441 H449 0.929 . S
C442 C441 1.383 . S
C442 C443 1.377 . S
C443 H427 0.930 . S
C443 C442 1.377 . S
C443 C444 1.379 . S
C444 H428 0.931 . S
C444 C438 1.383 . S
C444 C443 1.379 . S
H445 C439 0.959 . S
H446 C439 0.961 . S
H447 C439 0.960 . S
H448 C440 0.930 . S
H449 C441 0.929 . S
H450 C458 0.929 . S
H451 C460 0.930 . S
H452 C462 0.930 . S
H453 C465 0.929 . S
H454 C468 0.930 . S
H455 C470 0.960 . S
H456 C470 0.960 . S
H457 C470 0.960 . S
C458 H450 0.929 . S
C458 C459 1.377 . S
C458 C460 1.384 . S
C459 C458 1.377 . S
C459 C465 1.390 . S
C460 H451 0.930 . S
C460 C458 1.384 . S
C460 C461 1.372 . S
C461 C460 1.372 . S
C461 C462 1.400 . S
C461 C466 1.490 . S
C462 H452 0.930 . S
C462 C461 1.400 . S
C462 C465 1.386 . S
H463 C479 0.930 . S
H464 C480 0.931 . S
C465 H453 0.929 . S
C465 C459 1.390 . S
C465 C462 1.386 . S
C466 C461 1.490 . S
C466 C468 1.395 . S
C466 C469 1.403 . S
H467 C473 0.930 . S
C468 H454 0.930 . S
C468 C466 1.395 . S
C468 C471 1.403 . S
C469 C466 1.403 . S
C469 C470 1.524 . S
C469 C473 1.400 . S
C470 H455 0.960 . S
C470 H456 0.960 . S
C470 H457 0.960 . S
C470 C469 1.524 . S
C471 C468 1.403 . S
C471 C472 1.392 . S
C471 C475 1.495 . S
C472 C471 1.392 . S
C472 C473 1.385 . S
C472 C474 1.478 . S
C473 H467 0.930 . S
C473 C469 1.400 . S
C473 C472 1.385 . S
C474 C472 1.478 . S
C474 C476 1.381 1_655 S
C474 C480 1.383 . S
C475 C471 1.495 . S
C475 H481 0.959 . S
C475 H482 0.961 . S
C475 H483 0.960 . S
C476 C474 1.381 1_455 S
C476 C477 1.394 . S
C476 H484 0.930 . S
C477 C476 1.394 . S
C477 C478 1.383 . S
C477 H485 0.929 . S
C478 C477 1.383 . S
C478 C479 1.377 . S
C479 H463 0.930 . S
C479 C478 1.377 . S
C479 C480 1.379 1_455 S
C480 H464 0.931 . S
C480 C474 1.383 . S
C480 C479 1.379 1_655 S
H481 C475 0.959 . S
H482 C475 0.961 . S
H483 C475 0.960 . S
H484 C476 0.930 . S
H485 C477 0.929 . S
H486 C494 0.929 . S
H487 C496 0.930 . S
H488 C498 0.930 . S
H489 C501 0.929 . S
H490 C504 0.930 . S
H491 C506 0.960 . S
H492 C506 0.960 . S
H493 C506 0.960 . S
C494 H486 0.929 . S
C494 C495 1.377 . S
C494 C496 1.384 . S
C495 C494 1.377 . S
C495 C501 1.390 . S
C496 H487 0.930 . S
C496 C494 1.384 . S
C496 C497 1.372 . S
C497 C496 1.372 . S
C497 C498 1.400 . S
C497 C502 1.490 . S
C498 H488 0.930 . S
C498 C497 1.400 . S
C498 C501 1.386 . S
H499 C515 0.930 . S
H500 C516 0.931 . S
C501 H489 0.929 . S
C501 C495 1.390 . S
C501 C498 1.386 . S
C502 C497 1.490 . S
C502 C504 1.395 . S
C502 C505 1.403 . S
H503 C509 0.930 . S
C504 H490 0.930 . S
C504 C502 1.395 . S
C504 C507 1.403 . S
C505 C502 1.403 . S
C505 C506 1.524 . S
C505 C509 1.400 . S
C506 H491 0.960 . S
C506 H492 0.960 . S
C506 H493 0.960 . S
C506 C505 1.524 . S
C507 C504 1.403 . S
C507 C508 1.392 . S
C507 C511 1.495 . S
C508 C507 1.392 . S
C508 C509 1.385 . S
C508 C510 1.478 . S
C509 H503 0.930 . S
C509 C505 1.400 . S
C509 C508 1.385 . S
C510 C508 1.478 . S
C510 C512 1.381 . S
C510 C516 1.383 . S
C511 C507 1.495 . S
C511 H517 0.959 . S
C511 H518 0.961 . S
C511 H519 0.960 . S
C512 C510 1.381 . S
C512 C513 1.394 . S
C512 H520 0.930 . S
C513 C512 1.394 . S
C513 C514 1.383 . S
C513 H521 0.929 . S
C514 C513 1.383 . S
C514 C515 1.377 . S
C515 H499 0.930 . S
C515 C514 1.377 . S
C515 C516 1.379 . S
C516 H500 0.931 . S
C516 C510 1.383 . S
C516 C515 1.379 . S
H517 C511 0.959 . S
H518 C511 0.961 . S
H519 C511 0.960 . S
H520 C512 0.930 . S
H521 C513 0.929 . S
H522 C530 0.929 . S
H523 C532 0.930 . S
H524 C534 0.930 . S
H525 C537 0.929 . S
H526 C540 0.930 . S
H527 C542 0.960 . S
H528 C542 0.960 . S
H529 C542 0.960 . S
C530 H522 0.929 . S
C530 C531 1.377 . S
C530 C532 1.384 . S
C531 C530 1.377 . S
C531 C537 1.390 . S
C532 H523 0.930 . S
C532 C530 1.384 . S
C532 C533 1.372 . S
C533 C532 1.372 . S
C533 C534 1.400 . S
C533 C538 1.490 . S
C534 H524 0.930 . S
C534 C533 1.400 . S
C534 C537 1.386 . S
H535 C551 0.930 . S
H536 C552 0.931 . S
C537 H525 0.929 . S
C537 C531 1.390 . S
C537 C534 1.386 . S
C538 C533 1.490 . S
C538 C540 1.395 . S
C538 C541 1.403 . S
H539 C545 0.930 . S
C540 H526 0.930 . S
C540 C538 1.395 . S
C540 C543 1.403 . S
C541 C538 1.403 . S
C541 C542 1.524 . S
C541 C545 1.400 . S
C542 H527 0.960 . S
C542 H528 0.960 . S
C542 H529 0.960 . S
C542 C541 1.524 . S
C543 C540 1.403 . S
C543 C544 1.392 . S
C543 C547 1.495 . S
C544 C543 1.392 . S
C544 C545 1.385 . S
C544 C546 1.478 . S
C545 H539 0.930 . S
C545 C541 1.400 . S
C545 C544 1.385 . S
C546 C544 1.478 . S
C546 C548 1.381 . S
C546 C552 1.383 . S
C547 C543 1.495 . S
C547 H553 0.959 . S
C547 H554 0.961 . S
C547 H555 0.960 . S
C548 C546 1.381 . S
C548 C549 1.394 . S
C548 H556 0.930 . S
C549 C548 1.394 . S
C549 C550 1.383 . S
C549 H557 0.929 . S
C550 C549 1.383 . S
C550 C551 1.377 . S
C551 H535 0.930 . S
C551 C550 1.377 . S
C551 C552 1.379 . S
C552 H536 0.931 . S
C552 C546 1.383 . S
C552 C551 1.379 . S
H553 C547 0.959 . S
H554 C547 0.961 . S
H555 C547 0.960 . S
H556 C548 0.930 . S
H557 C549 0.929 . S
H558 C566 0.929 . S
H559 C568 0.930 . S
H560 C570 0.930 . S
H561 C573 0.929 . S
H562 C576 0.930 . S
H563 C578 0.960 . S
H564 C578 0.960 . S
H565 C578 0.960 . S
C566 H558 0.929 . S
C566 C567 1.377 . S
C566 C568 1.384 . S
C567 C566 1.377 . S
C567 C573 1.390 . S
C568 H559 0.930 . S
C568 C566 1.384 . S
C568 C569 1.372 . S
C569 C568 1.372 . S
C569 C570 1.400 . S
C569 C574 1.490 . S
C570 H560 0.930 . S
C570 C569 1.400 . S
C570 C573 1.386 . S
H571 C587 0.930 . S
H572 C588 0.931 . S
C573 H561 0.929 . S
C573 C567 1.390 . S
C573 C570 1.386 . S
C574 C569 1.490 . S
C574 C576 1.395 . S
C574 C577 1.403 . S
H575 C581 0.930 . S
C576 H562 0.930 . S
C576 C574 1.395 . S
C576 C579 1.403 . S
C577 C574 1.403 . S
C577 C578 1.524 . S
C577 C581 1.400 . S
C578 H563 0.960 . S
C578 H564 0.960 . S
C578 H565 0.960 . S
C578 C577 1.524 . S
C579 C576 1.403 . S
C579 C580 1.392 . S
C579 C583 1.495 . S
C580 C579 1.392 . S
C580 C581 1.385 . S
C580 C582 1.478 . S
C581 H575 0.930 . S
C581 C577 1.400 . S
C581 C580 1.385 . S
C582 C580 1.478 . S
C582 C584 1.381 . S
C582 C588 1.383 . S
C583 C579 1.495 . S
C583 H589 0.959 . S
C583 H590 0.961 . S
C583 H591 0.960 . S
C584 C582 1.381 . S
C584 C585 1.394 . S
C584 H592 0.930 . S
C585 C584 1.394 . S
C585 C586 1.383 . S
C585 H593 0.929 . S
C586 C585 1.383 . S
C586 C587 1.377 . S
C587 H571 0.930 . S
C587 C586 1.377 . S
C587 C588 1.379 . S
C588 H572 0.931 . S
C588 C582 1.383 . S
C588 C587 1.379 . S
H589 C583 0.959 . S
H590 C583 0.961 . S
H591 C583 0.960 . S
H592 C584 0.930 . S
H593 C585 0.929 . S
H594 C602 0.929 . S
H595 C604 0.930 . S
H596 C606 0.930 . S
H597 C609 0.929 . S
H598 C612 0.930 . S
H599 C614 0.960 . S
H600 C614 0.960 . S
H601 C614 0.960 . S
C602 H594 0.929 . S
C602 C603 1.377 . S
C602 C604 1.384 . S
C603 C602 1.377 . S
C603 C609 1.390 . S
C604 H595 0.930 . S
C604 C602 1.384 . S
C604 C605 1.372 . S
C605 C604 1.372 . S
C605 C606 1.400 . S
C605 C610 1.490 . S
C606 H596 0.930 . S
C606 C605 1.400 . S
C606 C609 1.386 . S
H607 C623 0.930 . S
H608 C624 0.931 . S
C609 H597 0.929 . S
C609 C603 1.390 . S
C609 C606 1.386 . S
C610 C605 1.490 . S
C610 C612 1.395 . S
C610 C613 1.403 . S
H611 C617 0.930 . S
C612 H598 0.930 . S
C612 C610 1.395 . S
C612 C615 1.403 . S
C613 C610 1.403 . S
C613 C614 1.524 . S
C613 C617 1.400 . S
C614 H599 0.960 . S
C614 H600 0.960 . S
C614 H601 0.960 . S
C614 C613 1.524 . S
C615 C612 1.403 . S
C615 C616 1.392 . S
C615 C619 1.495 . S
C616 C615 1.392 . S
C616 C617 1.385 . S
C616 C618 1.478 . S
C617 H611 0.930 . S
C617 C613 1.400 . S
C617 C616 1.385 . S
C618 C616 1.478 . S
C618 C620 1.381 . S
C618 C624 1.383 . S
C619 C615 1.495 . S
C619 H625 0.959 . S
C619 H626 0.961 . S
C619 H627 0.960 . S
C620 C618 1.381 . S
C620 C621 1.394 . S
C620 H628 0.930 . S
C621 C620 1.394 . S
C621 C622 1.383 . S
C621 H629 0.929 . S
C622 C621 1.383 . S
C622 C623 1.377 . S
C623 H607 0.930 . S
C623 C622 1.377 . S
C623 C624 1.379 . S
C624 H608 0.931 . S
C624 C618 1.383 . S
C624 C623 1.379 . S
H625 C619 0.959 . S
H626 C619 0.961 . S
H627 C619 0.960 . S
H628 C620 0.930 . S
H629 C621 0.929 . S
H630 C638 0.929 . S
H631 C640 0.930 . S
H632 C642 0.930 . S
H633 C645 0.929 . S
H634 C648 0.930 . S
H635 C650 0.960 . S
H636 C650 0.960 1_655 S
H637 C650 0.960 . S
C638 H630 0.929 . S
C638 C639 1.377 1_655 S
C638 C640 1.384 . S
C639 C638 1.377 1_455 S
C639 C645 1.390 . S
C640 H631 0.930 . S
C640 C638 1.384 . S
C640 C641 1.372 1_655 S
C641 C640 1.372 1_455 S
C641 C642 1.400 . S
C641 C646 1.490 . S
C642 H632 0.930 . S
C642 C641 1.400 . S
C642 C645 1.386 . S
H643 C659 0.930 . S
H644 C660 0.931 . S
C645 H633 0.929 . S
C645 C639 1.390 . S
C645 C642 1.386 . S
C646 C641 1.490 . S
C646 C648 1.395 . S
C646 C649 1.403 . S
H647 C653 0.917 1_556 S
C648 H634 0.930 . S
C648 C646 1.395 . S
C648 C651 1.403 . S
C649 C646 1.403 . S
C649 C650 1.524 . S
C649 C653 1.421 . S
C650 H635 0.960 . S
C650 H636 0.960 1_455 S
C650 H637 0.960 . S
C650 C649 1.524 . S
C651 C648 1.403 . S
C651 C652 1.392 1_554 S
C651 C655 1.495 1_554 S
C652 C651 1.392 1_556 S
C652 C653 1.377 1_556 S
C652 C654 1.478 . S
C653 H647 0.917 1_554 S
C653 C649 1.421 . S
C653 C652 1.377 1_554 S
C654 C652 1.478 . S
C654 C656 1.381 . S
C654 C660 1.383 . S
C655 C651 1.495 1_556 S
C655 H661 0.959 1_556 S
C655 H662 0.961 . S
C655 H663 0.960 . S
C656 C654 1.381 . S
C656 C657 1.394 . S
C656 H664 0.930 . S
C657 C656 1.394 . S
C657 C658 1.383 . S
C657 H665 0.929 . S
C658 C657 1.383 . S
C658 C659 1.377 . S
C659 H643 0.930 . S
C659 C658 1.377 . S
C659 C660 1.379 . S
C660 H644 0.931 . S
C660 C654 1.383 . S
C660 C659 1.379 . S
H661 C655 0.959 1_554 S
H662 C655 0.961 . S
H663 C655 0.960 . S
H664 C656 0.930 . S
H665 C657 0.929 . S
H666 C674 0.929 . S
H667 C676 0.930 . S
H668 C678 0.930 1_565 S
H669 C681 0.929 1_565 S
H670 C684 0.930 . S
H671 C686 0.960 . S
H672 C686 0.960 . S
H673 C686 0.960 . S
C674 H666 0.929 . S
C674 C675 1.377 . S
C674 C676 1.384 . S
C675 C674 1.377 . S
C675 C681 1.390 . S
C676 H667 0.930 . S
C676 C674 1.384 . S
C676 C677 1.372 . S
C677 C676 1.372 . S
C677 C678 1.400 . S
C677 C682 1.490 . S
C678 H668 0.930 1_545 S
C678 C677 1.400 . S
C678 C681 1.386 . S
H679 C695 0.930 . S
H680 C696 0.931 . S
C681 H669 0.929 1_545 S
C681 C675 1.390 . S
C681 C678 1.386 . S
C682 C677 1.490 . S
C682 C684 1.395 . S
C682 C685 1.403 1_545 S
H683 C689 0.918 1_565 S
C684 H670 0.930 . S
C684 C682 1.395 . S
C684 C687 1.403 . S
C685 C682 1.403 1_565 S
C685 C686 1.524 . S
C685 C689 1.396 1_565 S
C686 H671 0.960 . S
C686 H672 0.960 . S
C686 H673 0.960 . S
C686 C685 1.524 . S
C687 C684 1.403 . S
C687 C688 1.392 . S
C687 C691 1.495 . S
C688 C687 1.392 . S
C688 C689 1.401 . S
C688 C690 1.478 . S
C689 H683 0.918 1_545 S
C689 C685 1.396 1_545 S
C689 C688 1.401 . S
C690 C688 1.478 . S
C690 C692 1.381 . S
C690 C696 1.383 . S
C691 C687 1.495 . S
C691 H697 0.959 . S
C691 H698 0.961 . S
C691 H699 0.960 . S
C692 C690 1.381 . S
C692 C693 1.394 . S
C692 H700 0.930 . S
C693 C692 1.394 . S
C693 C694 1.383 . S
C693 H701 0.929 . S
C694 C693 1.383 . S
C694 C695 1.377 . S
C695 H679 0.930 . S
C695 C694 1.377 . S
C695 C696 1.379 . S
C696 H680 0.931 . S
C696 C690 1.383 . S
C696 C695 1.379 . S
H697 C691 0.959 . S
H698 C691 0.961 . S
H699 C691 0.960 . S
H700 C692 0.930 . S
H701 C693 0.929 . S
H702 C710 0.929 . S
H703 C712 0.930 . S
H704 C714 0.930 . S
H705 C717 0.929 . S
H706 C720 0.930 . S
H707 C722 0.960 . S
H708 C722 0.960 . S
H709 C722 0.960 . S
C710 H702 0.929 . S
C710 C711 1.377 . S
C710 C712 1.384 . S
C711 C710 1.377 . S
C711 C717 1.390 . S
C712 H703 0.930 . S
C712 C710 1.384 . S
C712 C713 1.372 . S
C713 C712 1.372 . S
C713 C714 1.400 . S
C713 C718 1.490 . S
C714 H704 0.930 . S
C714 C713 1.400 . S
C714 C717 1.386 . S
H715 C731 0.930 . S
H716 C732 0.931 . S
C717 H705 0.929 . S
C717 C711 1.390 . S
C717 C714 1.386 . S
C718 C713 1.490 . S
C718 C720 1.395 . S
C718 C721 1.403 . S
H719 C725 0.930 . S
C720 H706 0.930 . S
C720 C718 1.395 . S
C720 C723 1.403 . S
C721 C718 1.403 . S
C721 C722 1.524 . S
C721 C725 1.400 . S
C722 H707 0.960 . S
C722 H708 0.960 . S
C722 H709 0.960 . S
C722 C721 1.524 . S
C723 C720 1.403 . S
C723 C724 1.392 . S
C723 C727 1.495 . S
C724 C723 1.392 . S
C724 C725 1.385 . S
C724 C726 1.478 . S
C725 H719 0.930 . S
C725 C721 1.400 . S
C725 C724 1.385 . S
C726 C724 1.478 . S
C726 C728 1.381 . S
C726 C732 1.383 . S
C727 C723 1.495 . S
C727 H733 0.959 . S
C727 H734 0.961 . S
C727 H735 0.960 . S
C728 C726 1.381 . S
C728 C729 1.394 . S
C728 H736 0.930 . S
C729 C728 1.394 . S
C729 C730 1.383 . S
C729 H737 0.929 . S
C730 C729 1.383 . S
C730 C731 1.377 . S
C731 H715 0.930 . S
C731 C730 1.377 . S
C731 C732 1.379 . S
C732 H716 0.931 . S
C732 C726 1.383 . S
C732 C731 1.379 . S
H733 C727 0.959 . S
H734 C727 0.961 . S
H735 C727 0.960 . S
H736 C728 0.930 . S
H737 C729 0.929 . S
H738 C746 0.929 . S
H739 C748 0.930 . S
H740 C750 0.930 . S
H741 C753 0.929 . S
H742 C756 0.930 . S
H743 C758 0.960 . S
H744 C758 0.960 . S
H745 C758 0.960 . S
C746 H738 0.929 . S
C746 C747 1.377 1_565 S
C746 C748 1.384 . S
C747 C746 1.377 1_545 S
C747 C753 1.390 . S
C748 H739 0.930 . S
C748 C746 1.384 . S
C748 C749 1.372 1_565 S
C749 C748 1.372 1_545 S
C749 C750 1.400 . S
C749 C754 1.490 . S
C750 H740 0.930 . S
C750 C749 1.400 . S
C750 C753 1.386 . S
H751 C767 0.930 . S
H752 C768 0.931 . S
C753 H741 0.929 . S
C753 C747 1.390 . S
C753 C750 1.386 . S
C754 C749 1.490 . S
C754 C756 1.395 . S
C754 C757 1.403 . S
H755 C761 0.930 . S
C756 H742 0.930 . S
C756 C754 1.395 . S
C756 C759 1.403 . S
C757 C754 1.403 . S
C757 C758 1.524 . S
C757 C761 1.400 . S
C758 H743 0.960 . S
C758 H744 0.960 . S
C758 H745 0.960 . S
C758 C757 1.524 . S
C759 C756 1.403 . S
C759 C760 1.392 . S
C759 C763 1.495 . S
C760 C759 1.392 . S
C760 C761 1.385 . S
C760 C762 1.478 . S
C761 H755 0.930 . S
C761 C757 1.400 . S
C761 C760 1.385 . S
C762 C760 1.478 . S
C762 C764 1.381 . S
C762 C768 1.383 . S
C763 C759 1.495 . S
C763 H769 0.959 . S
C763 H770 0.961 . S
C763 H771 0.960 1_545 S
C764 C762 1.381 . S
C764 C765 1.394 . S
C764 H772 0.930 1_545 S
C765 C764 1.394 . S
C765 C766 1.383 . S
C765 H773 0.929 1_545 S
C766 C765 1.383 . S
C766 C767 1.377 . S
C767 H751 0.930 . S
C767 C766 1.377 . S
C767 C768 1.379 . S
C768 H752 0.931 . S
C768 C762 1.383 . S
C768 C767 1.379 . S
H769 C763 0.959 . S
H770 C763 0.961 . S
H771 C763 0.960 1_565 S
H772 C764 0.930 1_565 S
H773 C765 0.929 1_565 S
H774 C782 0.929 . S
H775 C784 0.930 . S
H776 C786 0.930 . S
H777 C789 0.929 . S
H778 C792 0.930 . S
H779 C794 0.960 . S
H780 C794 0.960 . S
H781 C794 0.960 . S
C782 H774 0.929 . S
C782 C783 1.377 . S
C782 C784 1.384 . S
C783 C782 1.377 . S
C783 C789 1.390 . S
C784 H775 0.930 . S
C784 C782 1.384 . S
C784 C785 1.372 . S
C785 C784 1.372 . S
C785 C786 1.400 . S
C785 C790 1.490 . S
C786 H776 0.930 . S
C786 C785 1.400 . S
C786 C789 1.386 . S
H787 C803 0.930 . S
H788 C804 0.931 . S
C789 H777 0.929 . S
C789 C783 1.390 . S
C789 C786 1.386 . S
C790 C785 1.490 . S
C790 C792 1.395 . S
C790 C793 1.403 . S
H791 C797 0.930 . S
C792 H778 0.930 . S
C792 C790 1.395 . S
C792 C795 1.403 . S
C793 C790 1.403 . S
C793 C794 1.524 . S
C793 C797 1.400 . S
C794 H779 0.960 . S
C794 H780 0.960 . S
C794 H781 0.960 . S
C794 C793 1.524 . S
C795 C792 1.403 . S
C795 C796 1.392 1_556 S
C795 C799 1.495 1_556 S
C796 C795 1.392 1_554 S
C796 C797 1.385 1_554 S
C796 C798 1.478 . S
C797 H791 0.930 . S
C797 C793 1.400 . S
C797 C796 1.385 1_556 S
C798 C796 1.478 . S
C798 C800 1.381 . S
C798 C804 1.383 . S
C799 C795 1.495 1_554 S
C799 H805 0.959 . S
C799 H806 0.961 . S
C799 H807 0.960 . S
C800 C798 1.381 . S
C800 C801 1.394 . S
C800 H808 0.930 . S
C801 C800 1.394 . S
C801 C802 1.383 . S
C801 H809 0.929 . S
C802 C801 1.383 . S
C802 C803 1.377 . S
C803 H787 0.930 . S
C803 C802 1.377 . S
C803 C804 1.379 . S
C804 H788 0.931 . S
C804 C798 1.383 . S
C804 C803 1.379 . S
H805 C799 0.959 . S
H806 C799 0.961 . S
H807 C799 0.960 . S
H808 C800 0.930 . S
H809 C801 0.929 . S
H810 C818 0.929 . S
H811 C820 0.930 . S
H812 C822 0.930 . S
H813 C825 0.929 . S
H814 C828 0.930 . S
H815 C830 0.960 1_655 S
H816 C830 0.960 . S
H817 C830 0.960 1_655 S
C818 H810 0.929 . S
C818 C819 1.377 . S
C818 C820 1.384 . S
C819 C818 1.377 . S
C819 C825 1.390 1_455 S
C820 H811 0.930 . S
C820 C818 1.384 . S
C820 C821 1.372 . S
C821 C820 1.372 . S
C821 C822 1.400 1_455 S
C821 C826 1.490 . S
C822 H812 0.930 . S
C822 C821 1.400 1_655 S
C822 C825 1.386 . S
H823 C839 0.930 . S
H824 C840 0.931 1_655 S
C825 H813 0.929 . S
C825 C819 1.390 1_655 S
C825 C822 1.386 . S
C826 C821 1.490 . S
C826 C828 1.395 . S
C826 C829 1.403 . S
H827 C833 0.930 . S
C828 H814 0.930 . S
C828 C826 1.395 . S
C828 C831 1.403 . S
C829 C826 1.403 . S
C829 C830 1.524 . S
C829 C833 1.400 . S
C830 H815 0.960 1_455 S
C830 H816 0.960 . S
C830 H817 0.960 1_455 S
C830 C829 1.524 . S
C831 C828 1.403 . S
C831 C832 1.392 . S
C831 C835 1.495 . S
C832 C831 1.392 . S
C832 C833 1.385 . S
C832 C834 1.478 . S
C833 H827 0.930 . S
C833 C829 1.400 . S
C833 C832 1.385 . S
C834 C832 1.478 . S
C834 C836 1.381 . S
C834 C840 1.383 . S
C835 C831 1.495 . S
C835 H841 0.959 . S
C835 H842 0.961 . S
C835 H843 0.960 . S
C836 C834 1.381 . S
C836 C837 1.394 . S
C836 H844 0.930 . S
C837 C836 1.394 . S
C837 C838 1.383 . S
C837 H845 0.929 . S
C838 C837 1.383 . S
C838 C839 1.377 . S
C839 H823 0.930 . S
C839 C838 1.377 . S
C839 C840 1.379 . S
C840 H824 0.931 1_455 S
C840 C834 1.383 . S
C840 C839 1.379 . S
H841 C835 0.959 . S
H842 C835 0.961 . S
H843 C835 0.960 . S
H844 C836 0.930 . S
H845 C837 0.929 . S
C207 C12 2.981 . S
C226 C189 2.810 . S
C243 C52 2.822 . S
C262 C167 2.786 1_655 S
C279 C111 2.870 . S
C298 C180 2.837 1_565 S
C315 C31 3.002 . S
C334 C193 2.955 . S
C370 C163 2.944 . S
C351 C71 3.171 . S
C406 C176 2.927 . S
C387 C92 3.114 . S
C423 C48 0.256 . S
C442 C141 0.333 . S
C459 C109 0.282 . S
C478 C154 0.110 . S
C495 C29 0.411 . S
C514 C124 0.568 . S
C550 C137 0.481 . S
C531 C69 0.362 . S
C586 C150 0.401 . S
C567 C88 0.344 . S
C603 C8 0.174 . S
C622 C128 0.195 . S
C658 C155 1.289 . S
C639 C17 1.270 . S
C675 C57 1.312 . S
C694 C129 1.313 . S
C711 C97 1.245 . S
C730 C142 1.280 . S
C766 C181 1.778 . S
C747 C42 1.697 . S
C802 C194 1.729 . S
C783 C82 1.720 . S
C819 C2 1.707 . S
C838 C168 1.775 . S
