# Generated by pormake.
# Topology tbo, (3,4)-cn, num edge types: 1
# Building blocks:
#     Node 0, Type 0, BuildingBlock: ESEHIV_clean_linker_0, # of connection points: 3
#     Node 1, Type 0, BuildingBlock: ESEHIV_clean_linker_0, # of connection points: 3
#     Node 2, Type 0, BuildingBlock: ESEHIV_clean_linker_0, # of connection points: 3
#     Node 3, Type 0, BuildingBlock: ESEHIV_clean_linker_0, # of connection points: 3
#     Node 4, Type 0, BuildingBlock: ESEHIV_clean_linker_0, # of connection points: 3
#     Node 5, Type 0, BuildingBlock: ESEHIV_clean_linker_0, # of connection points: 3
#     Node 6, Type 0, BuildingBlock: ESEHIV_clean_linker_0, # of connection points: 3
#     Node 7, Type 0, BuildingBlock: ESEHIV_clean_linker_0, # of connection points: 3
#     Node 8, Type 0, BuildingBlock: ESEHIV_clean_linker_0, # of connection points: 3
#     Node 9, Type 0, BuildingBlock: ESEHIV_clean_linker_0, # of connection points: 3
#     Node 10, Type 0, BuildingBlock: ESEHIV_clean_linker_0, # of connection points: 3
#     Node 11, Type 0, BuildingBlock: ESEHIV_clean_linker_0, # of connection points: 3
#     Node 12, Type 0, BuildingBlock: ESEHIV_clean_linker_0, # of connection points: 3
#     Node 13, Type 0, BuildingBlock: ESEHIV_clean_linker_0, # of connection points: 3
#     Node 14, Type 0, BuildingBlock: ESEHIV_clean_linker_0, # of connection points: 3
#     Node 15, Type 0, BuildingBlock: ESEHIV_clean_linker_0, # of connection points: 3
#     Node 16, Type 0, BuildingBlock: ESEHIV_clean_linker_0, # of connection points: 3
#     Node 17, Type 0, BuildingBlock: ESEHIV_clean_linker_0, # of connection points: 3
#     Node 18, Type 0, BuildingBlock: ESEHIV_clean_linker_0, # of connection points: 3
#     Node 19, Type 0, BuildingBlock: ESEHIV_clean_linker_0, # of connection points: 3
#     Node 20, Type 0, BuildingBlock: ESEHIV_clean_linker_0, # of connection points: 3
#     Node 21, Type 0, BuildingBlock: ESEHIV_clean_linker_0, # of connection points: 3
#     Node 22, Type 0, BuildingBlock: ESEHIV_clean_linker_0, # of connection points: 3
#     Node 23, Type 0, BuildingBlock: ESEHIV_clean_linker_0, # of connection points: 3
#     Node 24, Type 0, BuildingBlock: ESEHIV_clean_linker_0, # of connection points: 3
#     Node 25, Type 0, BuildingBlock: ESEHIV_clean_linker_0, # of connection points: 3
#     Node 26, Type 0, BuildingBlock: ESEHIV_clean_linker_0, # of connection points: 3
#     Node 27, Type 0, BuildingBlock: ESEHIV_clean_linker_0, # of connection points: 3
#     Node 28, Type 0, BuildingBlock: ESEHIV_clean_linker_0, # of connection points: 3
#     Node 29, Type 0, BuildingBlock: ESEHIV_clean_linker_0, # of connection points: 3
#     Node 30, Type 0, BuildingBlock: ESEHIV_clean_linker_0, # of connection points: 3
#     Node 31, Type 0, BuildingBlock: ESEHIV_clean_linker_0, # of connection points: 3
#     Node 32, Type 1, BuildingBlock: ESEHIV_clean_sbu_0, # of connection points: 4
#     Node 33, Type 1, BuildingBlock: ESEHIV_clean_sbu_0, # of connection points: 4
#     Node 34, Type 1, BuildingBlock: ESEHIV_clean_sbu_0, # of connection points: 4
#     Node 35, Type 1, BuildingBlock: ESEHIV_clean_sbu_0, # of connection points: 4
#     Node 36, Type 1, BuildingBlock: ESEHIV_clean_sbu_0, # of connection points: 4
#     Node 37, Type 1, BuildingBlock: ESEHIV_clean_sbu_0, # of connection points: 4
#     Node 38, Type 1, BuildingBlock: ESEHIV_clean_sbu_0, # of connection points: 4
#     Node 39, Type 1, BuildingBlock: ESEHIV_clean_sbu_0, # of connection points: 4
#     Node 40, Type 1, BuildingBlock: ESEHIV_clean_sbu_0, # of connection points: 4
#     Node 41, Type 1, BuildingBlock: ESEHIV_clean_sbu_0, # of connection points: 4
#     Node 42, Type 1, BuildingBlock: ESEHIV_clean_sbu_0, # of connection points: 4
#     Node 43, Type 1, BuildingBlock: ESEHIV_clean_sbu_0, # of connection points: 4
#     Node 44, Type 1, BuildingBlock: ESEHIV_clean_sbu_0, # of connection points: 4
#     Node 45, Type 1, BuildingBlock: ESEHIV_clean_sbu_0, # of connection points: 4
#     Node 46, Type 1, BuildingBlock: ESEHIV_clean_sbu_0, # of connection points: 4
#     Node 47, Type 1, BuildingBlock: ESEHIV_clean_sbu_0, # of connection points: 4
#     Node 48, Type 1, BuildingBlock: ESEHIV_clean_sbu_0, # of connection points: 4
#     Node 49, Type 1, BuildingBlock: ESEHIV_clean_sbu_0, # of connection points: 4
#     Node 50, Type 1, BuildingBlock: ESEHIV_clean_sbu_0, # of connection points: 4
#     Node 51, Type 1, BuildingBlock: ESEHIV_clean_sbu_0, # of connection points: 4
#     Node 52, Type 1, BuildingBlock: ESEHIV_clean_sbu_0, # of connection points: 4
#     Node 53, Type 1, BuildingBlock: ESEHIV_clean_sbu_0, # of connection points: 4
#     Node 54, Type 1, BuildingBlock: ESEHIV_clean_sbu_0, # of connection points: 4
#     Node 55, Type 1, BuildingBlock: ESEHIV_clean_sbu_0, # of connection points: 4
#     Edge 56, Type (0, 1), BuildingBlock: AJUNOK_clean_linker_0, # of connection points: 2
#     Edge 57, Type (0, 1), BuildingBlock: AJUNOK_clean_linker_0, # of connection points: 2
#     Edge 58, Type (0, 1), BuildingBlock: AJUNOK_clean_linker_0, # of connection points: 2
#     Edge 59, Type (0, 1), BuildingBlock: AJUNOK_clean_linker_0, # of connection points: 2
#     Edge 60, Type (0, 1), BuildingBlock: AJUNOK_clean_linker_0, # of connection points: 2
#     Edge 61, Type (0, 1), BuildingBlock: AJUNOK_clean_linker_0, # of connection points: 2
#     Edge 62, Type (0, 1), BuildingBlock: AJUNOK_clean_linker_0, # of connection points: 2
#     Edge 63, Type (0, 1), BuildingBlock: AJUNOK_clean_linker_0, # of connection points: 2
#     Edge 64, Type (0, 1), BuildingBlock: AJUNOK_clean_linker_0, # of connection points: 2
#     Edge 65, Type (0, 1), BuildingBlock: AJUNOK_clean_linker_0, # of connection points: 2
#     Edge 66, Type (0, 1), BuildingBlock: AJUNOK_clean_linker_0, # of connection points: 2
#     Edge 67, Type (0, 1), BuildingBlock: AJUNOK_clean_linker_0, # of connection points: 2
#     Edge 68, Type (0, 1), BuildingBlock: AJUNOK_clean_linker_0, # of connection points: 2
#     Edge 69, Type (0, 1), BuildingBlock: AJUNOK_clean_linker_0, # of connection points: 2
#     Edge 70, Type (0, 1), BuildingBlock: AJUNOK_clean_linker_0, # of connection points: 2
#     Edge 71, Type (0, 1), BuildingBlock: AJUNOK_clean_linker_0, # of connection points: 2
#     Edge 72, Type (0, 1), BuildingBlock: AJUNOK_clean_linker_0, # of connection points: 2
#     Edge 73, Type (0, 1), BuildingBlock: AJUNOK_clean_linker_0, # of connection points: 2
#     Edge 74, Type (0, 1), BuildingBlock: AJUNOK_clean_linker_0, # of connection points: 2
#     Edge 75, Type (0, 1), BuildingBlock: AJUNOK_clean_linker_0, # of connection points: 2
#     Edge 76, Type (0, 1), BuildingBlock: AJUNOK_clean_linker_0, # of connection points: 2
#     Edge 77, Type (0, 1), BuildingBlock: AJUNOK_clean_linker_0, # of connection points: 2
#     Edge 78, Type (0, 1), BuildingBlock: AJUNOK_clean_linker_0, # of connection points: 2
#     Edge 79, Type (0, 1), BuildingBlock: AJUNOK_clean_linker_0, # of connection points: 2
#     Edge 80, Type (0, 1), BuildingBlock: AJUNOK_clean_linker_0, # of connection points: 2
#     Edge 81, Type (0, 1), BuildingBlock: AJUNOK_clean_linker_0, # of connection points: 2
#     Edge 82, Type (0, 1), BuildingBlock: AJUNOK_clean_linker_0, # of connection points: 2
#     Edge 83, Type (0, 1), BuildingBlock: AJUNOK_clean_linker_0, # of connection points: 2
#     Edge 84, Type (0, 1), BuildingBlock: AJUNOK_clean_linker_0, # of connection points: 2
#     Edge 85, Type (0, 1), BuildingBlock: AJUNOK_clean_linker_0, # of connection points: 2
#     Edge 86, Type (0, 1), BuildingBlock: AJUNOK_clean_linker_0, # of connection points: 2
#     Edge 87, Type (0, 1), BuildingBlock: AJUNOK_clean_linker_0, # of connection points: 2
#     Edge 88, Type (0, 1), BuildingBlock: AJUNOK_clean_linker_0, # of connection points: 2
#     Edge 89, Type (0, 1), BuildingBlock: AJUNOK_clean_linker_0, # of connection points: 2
#     Edge 90, Type (0, 1), BuildingBlock: AJUNOK_clean_linker_0, # of connection points: 2
#     Edge 91, Type (0, 1), BuildingBlock: AJUNOK_clean_linker_0, # of connection points: 2
#     Edge 92, Type (0, 1), BuildingBlock: AJUNOK_clean_linker_0, # of connection points: 2
#     Edge 93, Type (0, 1), BuildingBlock: AJUNOK_clean_linker_0, # of connection points: 2
#     Edge 94, Type (0, 1), BuildingBlock: AJUNOK_clean_linker_0, # of connection points: 2
#     Edge 95, Type (0, 1), BuildingBlock: AJUNOK_clean_linker_0, # of connection points: 2
#     Edge 96, Type (0, 1), BuildingBlock: AJUNOK_clean_linker_0, # of connection points: 2
#     Edge 97, Type (0, 1), BuildingBlock: AJUNOK_clean_linker_0, # of connection points: 2
#     Edge 98, Type (0, 1), BuildingBlock: AJUNOK_clean_linker_0, # of connection points: 2
#     Edge 99, Type (0, 1), BuildingBlock: AJUNOK_clean_linker_0, # of connection points: 2
#     Edge 100, Type (0, 1), BuildingBlock: AJUNOK_clean_linker_0, # of connection points: 2
#     Edge 101, Type (0, 1), BuildingBlock: AJUNOK_clean_linker_0, # of connection points: 2
#     Edge 102, Type (0, 1), BuildingBlock: AJUNOK_clean_linker_0, # of connection points: 2
#     Edge 103, Type (0, 1), BuildingBlock: AJUNOK_clean_linker_0, # of connection points: 2
#     Edge 104, Type (0, 1), BuildingBlock: AJUNOK_clean_linker_0, # of connection points: 2
#     Edge 105, Type (0, 1), BuildingBlock: AJUNOK_clean_linker_0, # of connection points: 2
#     Edge 106, Type (0, 1), BuildingBlock: AJUNOK_clean_linker_0, # of connection points: 2
#     Edge 107, Type (0, 1), BuildingBlock: AJUNOK_clean_linker_0, # of connection points: 2
#     Edge 108, Type (0, 1), BuildingBlock: AJUNOK_clean_linker_0, # of connection points: 2
#     Edge 109, Type (0, 1), BuildingBlock: AJUNOK_clean_linker_0, # of connection points: 2
#     Edge 110, Type (0, 1), BuildingBlock: AJUNOK_clean_linker_0, # of connection points: 2
#     Edge 111, Type (0, 1), BuildingBlock: AJUNOK_clean_linker_0, # of connection points: 2
#     Edge 112, Type (0, 1), BuildingBlock: AJUNOK_clean_linker_0, # of connection points: 2
#     Edge 113, Type (0, 1), BuildingBlock: AJUNOK_clean_linker_0, # of connection points: 2
#     Edge 114, Type (0, 1), BuildingBlock: AJUNOK_clean_linker_0, # of connection points: 2
#     Edge 115, Type (0, 1), BuildingBlock: AJUNOK_clean_linker_0, # of connection points: 2
#     Edge 116, Type (0, 1), BuildingBlock: AJUNOK_clean_linker_0, # of connection points: 2
#     Edge 117, Type (0, 1), BuildingBlock: AJUNOK_clean_linker_0, # of connection points: 2
#     Edge 118, Type (0, 1), BuildingBlock: AJUNOK_clean_linker_0, # of connection points: 2
#     Edge 119, Type (0, 1), BuildingBlock: AJUNOK_clean_linker_0, # of connection points: 2
#     Edge 120, Type (0, 1), BuildingBlock: AJUNOK_clean_linker_0, # of connection points: 2
#     Edge 121, Type (0, 1), BuildingBlock: AJUNOK_clean_linker_0, # of connection points: 2
#     Edge 122, Type (0, 1), BuildingBlock: AJUNOK_clean_linker_0, # of connection points: 2
#     Edge 123, Type (0, 1), BuildingBlock: AJUNOK_clean_linker_0, # of connection points: 2
#     Edge 124, Type (0, 1), BuildingBlock: AJUNOK_clean_linker_0, # of connection points: 2
#     Edge 125, Type (0, 1), BuildingBlock: AJUNOK_clean_linker_0, # of connection points: 2
#     Edge 126, Type (0, 1), BuildingBlock: AJUNOK_clean_linker_0, # of connection points: 2
#     Edge 127, Type (0, 1), BuildingBlock: AJUNOK_clean_linker_0, # of connection points: 2
#     Edge 128, Type (0, 1), BuildingBlock: AJUNOK_clean_linker_0, # of connection points: 2
#     Edge 129, Type (0, 1), BuildingBlock: AJUNOK_clean_linker_0, # of connection points: 2
#     Edge 130, Type (0, 1), BuildingBlock: AJUNOK_clean_linker_0, # of connection points: 2
#     Edge 131, Type (0, 1), BuildingBlock: AJUNOK_clean_linker_0, # of connection points: 2
#     Edge 132, Type (0, 1), BuildingBlock: AJUNOK_clean_linker_0, # of connection points: 2
#     Edge 133, Type (0, 1), BuildingBlock: AJUNOK_clean_linker_0, # of connection points: 2
#     Edge 134, Type (0, 1), BuildingBlock: AJUNOK_clean_linker_0, # of connection points: 2
#     Edge 135, Type (0, 1), BuildingBlock: AJUNOK_clean_linker_0, # of connection points: 2
#     Edge 136, Type (0, 1), BuildingBlock: AJUNOK_clean_linker_0, # of connection points: 2
#     Edge 137, Type (0, 1), BuildingBlock: AJUNOK_clean_linker_0, # of connection points: 2
#     Edge 138, Type (0, 1), BuildingBlock: AJUNOK_clean_linker_0, # of connection points: 2
#     Edge 139, Type (0, 1), BuildingBlock: AJUNOK_clean_linker_0, # of connection points: 2
#     Edge 140, Type (0, 1), BuildingBlock: AJUNOK_clean_linker_0, # of connection points: 2
#     Edge 141, Type (0, 1), BuildingBlock: AJUNOK_clean_linker_0, # of connection points: 2
#     Edge 142, Type (0, 1), BuildingBlock: AJUNOK_clean_linker_0, # of connection points: 2
#     Edge 143, Type (0, 1), BuildingBlock: AJUNOK_clean_linker_0, # of connection points: 2
#     Edge 144, Type (0, 1), BuildingBlock: AJUNOK_clean_linker_0, # of connection points: 2
#     Edge 145, Type (0, 1), BuildingBlock: AJUNOK_clean_linker_0, # of connection points: 2
#     Edge 146, Type (0, 1), BuildingBlock: AJUNOK_clean_linker_0, # of connection points: 2
#     Edge 147, Type (0, 1), BuildingBlock: AJUNOK_clean_linker_0, # of connection points: 2
#     Edge 148, Type (0, 1), BuildingBlock: AJUNOK_clean_linker_0, # of connection points: 2
#     Edge 149, Type (0, 1), BuildingBlock: AJUNOK_clean_linker_0, # of connection points: 2
#     Edge 150, Type (0, 1), BuildingBlock: AJUNOK_clean_linker_0, # of connection points: 2
#     Edge 151, Type (0, 1), BuildingBlock: AJUNOK_clean_linker_0, # of connection points: 2
# Relax obj value: 0.005
# Max RMSD: 0.133
# Mean RMSD: 0.052
data_MOF--net-tbo--node1-ESEHIV_clean_sbu_0--node2-ESEHIV_clean_linker_0--edge1-AJUNOK_clean_linker_0
_symmetry_space_group_name_H-M    P1
_symmetry_Int_Tables_number       1
_symmetry_cell_setting            triclinic
loop_
_symmetry_equiv_pos_as_xyz
'x, y, z'
_cell_length_a     50.405076
_cell_length_b     50.384412
_cell_length_c     50.36614
_cell_angle_alpha  90.098303
_cell_angle_beta   93.501088
_cell_angle_gamma 91.28491
loop_
_atom_site_label
_atom_site_type_symbol
_atom_site_fract_x
_atom_site_fract_y
_atom_site_fract_z
_atom_type_partial_charge
H0 H 0.17467 0.20731 0.19345 0.0
H1 H 0.23642 0.15253 0.17795 0.0
H2 H 0.17926 0.13339 0.23557 0.0
C3 C 0.18435 0.18859 0.19731 0.0
C4 C 0.17414 0.1711 0.21599 0.0
C5 C 0.20655 0.18206 0.18318 0.0
C6 C 0.21938 0.15788 0.18878 0.0
C7 C 0.20943 0.14005 0.20752 0.0
C8 C 0.18682 0.1469 0.22095 0.0
H9 H 0.89675 0.18752 0.19787 0.0
H10 H 0.89121 0.24864 0.1389 0.0
H11 H 0.82782 0.18974 0.14317 0.0
C12 C 0.88585 0.19661 0.18114 0.0
C13 C 0.86113 0.18575 0.17193 0.0
C14 C 0.89678 0.21915 0.16943 0.0
C15 C 0.88255 0.23134 0.14811 0.0
C16 C 0.8576 0.22078 0.13814 0.0
C17 C 0.84698 0.19794 0.15035 0.0
H18 H 0.81441 0.89792 0.16049 0.0
H19 H 0.87434 0.83962 0.17614 0.0
H20 H 0.86445 0.90216 0.23285 0.0
C21 C 0.83055 0.89023 0.17324 0.0
C22 C 0.83802 0.90315 0.1974 0.0
C23 C 0.84349 0.86723 0.16552 0.0
C24 C 0.86427 0.85723 0.18216 0.0
C25 C 0.87175 0.86947 0.20672 0.0
C26 C 0.85867 0.89255 0.21404 0.0
H27 H 0.13716 0.8551 0.22816 0.0
H28 H 0.19753 0.85945 0.17154 0.0
H29 H 0.13583 0.79886 0.16393 0.0
C30 C 0.14574 0.84773 0.21044 0.0
C31 C 0.13332 0.82604 0.19664 0.0
C32 C 0.16922 0.85974 0.20197 0.0
C33 C 0.18026 0.84958 0.1791 0.0
C34 C 0.16879 0.82717 0.16555 0.0
C35 C 0.14515 0.81574 0.17442 0.0
H36 H 0.18814 0.90386 0.83068 0.0
H37 H 0.18034 0.83402 0.879 0.0
H38 H 0.24491 0.88956 0.8963 0.0
C39 C 0.19548 0.8915 0.84698 0.0
C40 C 0.21828 0.89972 0.86295 0.0
C41 C 0.18141 0.86792 0.85289 0.0
C42 C 0.19092 0.85227 0.87449 0.0
C43 C 0.2139 0.85985 0.89024 0.0
C44 C 0.22736 0.88349 0.88414 0.0
H45 H 0.20597 0.23414 0.92758 0.0
H46 H 0.26464 0.17582 0.91407 0.0
H47 H 0.19937 0.18676 0.85621 0.0
C48 C 0.21364 0.21897 0.91502 0.0
C49 C 0.19977 0.21218 0.89074 0.0
C50 C 0.2372 0.20613 0.92345 0.0
C51 C 0.24676 0.18606 0.90742 0.0
C52 C 0.23297 0.17871 0.88318 0.0
C53 C 0.20983 0.19219 0.87491 0.0
H54 H 0.84768 0.19297 0.86924 0.0
H55 H 0.90371 0.17532 0.81065 0.0
H56 H 0.91307 0.247 0.85715 0.0
C57 C 0.86519 0.19837 0.85881 0.0
C58 C 0.87924 0.22215 0.8655 0.0
C59 C 0.87371 0.18135 0.83894 0.0
C60 C 0.89668 0.18841 0.82569 0.0
C61 C 0.91086 0.21217 0.83216 0.0
C62 C 0.90198 0.22884 0.85199 0.0
H63 H 0.83774 0.90571 0.8538 0.0
H64 H 0.89443 0.84664 0.87747 0.0
H65 H 0.90371 0.89186 0.80572 0.0
C66 C 0.85584 0.89528 0.85046 0.0
C67 C 0.86962 0.90109 0.82768 0.0
C68 C 0.86489 0.8761 0.86881 0.0
C69 C 0.88786 0.86205 0.86378 0.0
C70 C 0.90228 0.86761 0.8412 0.0
C71 C 0.89298 0.88736 0.82322 0.0
H72 H 0.19092 0.73172 0.66489 0.0
H73 H 0.25447 0.67764 0.65505 0.0
H74 H 0.20143 0.66492 0.71749 0.0
C75 C 0.20162 0.71415 0.6711 0.0
C76 C 0.19301 0.69906 0.6927 0.0
C77 C 0.22369 0.70638 0.65715 0.0
C78 C 0.2372 0.68348 0.66524 0.0
C79 C 0.22894 0.66808 0.68648 0.0
C80 C 0.20708 0.67616 0.70032 0.0
H81 H 0.90606 0.69776 0.70826 0.0
H82 H 0.91113 0.76302 0.65312 0.0
H83 H 0.84334 0.70964 0.64795 0.0
C84 C 0.89773 0.70906 0.6916 0.0
C85 C 0.87317 0.70065 0.67897 0.0
C86 C 0.91179 0.73162 0.6824 0.0
C87 C 0.90049 0.746 0.66072 0.0
C88 C 0.87572 0.7383 0.64845 0.0
C89 C 0.86227 0.71576 0.65773 0.0
H90 H 0.84383 0.40813 0.68043 0.0
H91 H 0.90689 0.35279 0.69388 0.0
H92 H 0.90191 0.41986 0.74602 0.0
C93 C 0.86118 0.40156 0.69214 0.0
C94 C 0.87075 0.41639 0.71479 0.0
C95 C 0.87433 0.37867 0.68417 0.0
C96 C 0.89729 0.37092 0.69916 0.0
C97 C 0.90772 0.38589 0.7211 0.0
C98 C 0.8942 0.40847 0.72886 0.0
H99 H 0.173 0.38794 0.73324 0.0
H100 H 0.22335 0.40354 0.66921 0.0
H101 H 0.175 0.33201 0.66847 0.0
C102 C 0.1806 0.38207 0.71448 0.0
C103 C 0.17193 0.35784 0.70253 0.0
C104 C 0.19897 0.39871 0.70252 0.0
C105 C 0.20832 0.39123 0.67801 0.0
C106 C 0.19953 0.36759 0.66521 0.0
C107 C 0.18139 0.35069 0.67773 0.0
H108 H 0.15656 0.37771 0.31555 0.0
H109 H 0.16299 0.3186 0.37683 0.0
H110 H 0.22327 0.38017 0.37326 0.0
C111 C 0.1673 0.36946 0.33281 0.0
C112 C 0.1914 0.38159 0.3426 0.0
C113 C 0.15653 0.34723 0.3455 0.0
C114 C 0.17052 0.33661 0.36795 0.0
C115 C 0.19437 0.34846 0.37858 0.0
C116 C 0.20472 0.37099 0.36559 0.0
H117 H 0.16746 0.7147 0.3818 0.0
H118 H 0.24034 0.6722 0.38403 0.0
H119 H 0.17673 0.65221 0.32522 0.0
C120 C 0.17943 0.6992 0.37396 0.0
C121 C 0.16896 0.68384 0.35257 0.0
C122 C 0.20502 0.69543 0.38524 0.0
C123 C 0.22047 0.6752 0.37523 0.0
C124 C 0.21049 0.65909 0.35366 0.0
C125 C 0.18456 0.66379 0.34219 0.0
H126 H 0.81449 0.65323 0.37473 0.0
H127 H 0.87658 0.65363 0.31962 0.0
H128 H 0.8759 0.71383 0.38026 0.0
C129 C 0.83267 0.66175 0.36765 0.0
C130 C 0.84422 0.68435 0.38036 0.0
C131 C 0.844 0.65065 0.34551 0.0
C132 C 0.86726 0.66246 0.33624 0.0
C133 C 0.87906 0.68514 0.34858 0.0
C134 C 0.8672 0.69618 0.37059 0.0
H135 H 0.82324 0.38042 0.38242 0.0
H136 H 0.87852 0.31853 0.40248 0.0
H137 H 0.88203 0.3594 0.32797 0.0
C138 C 0.83957 0.36817 0.37725 0.0
C139 C 0.85128 0.37202 0.35279 0.0
C140 C 0.84927 0.34885 0.39529 0.0
C141 C 0.87081 0.33329 0.38858 0.0
C142 C 0.88279 0.33701 0.36433 0.0
C143 C 0.87277 0.35632 0.34661 0.0
H144 H 0.68208 0.22608 0.6589 0.0
H145 H 0.7436 0.16962 0.64776 0.0
H146 H 0.68863 0.15709 0.70875 0.0
C147 C 0.69227 0.20811 0.66477 0.0
C148 C 0.68295 0.19262 0.68564 0.0
C149 C 0.71388 0.19976 0.65061 0.0
C150 C 0.7268 0.17611 0.65832 0.0
C151 C 0.71775 0.16049 0.6792 0.0
C152 C 0.69574 0.16893 0.69257 0.0
H153 H 0.40681 0.19879 0.71229 0.0
H154 H 0.38873 0.25158 0.64746 0.0
H155 H 0.33294 0.18864 0.66516 0.0
C156 C 0.39347 0.20461 0.6957 0.0
C157 C 0.36939 0.19052 0.69029 0.0
C158 C 0.40055 0.22641 0.68032 0.0
C159 C 0.38312 0.23466 0.65933 0.0
C160 C 0.35854 0.22118 0.65358 0.0
C161 C 0.35182 0.19902 0.6692 0.0
H162 H 0.32288 0.92215 0.68117 0.0
H163 H 0.38035 0.86035 0.68558 0.0
H164 H 0.37911 0.91859 0.74844 0.0
C165 C 0.33982 0.91289 0.6914 0.0
C166 C 0.34942 0.92274 0.71615 0.0
C167 C 0.35119 0.89084 0.67998 0.0
C168 C 0.37225 0.87797 0.69404 0.0
C169 C 0.38271 0.88781 0.71894 0.0
C170 C 0.37106 0.91035 0.72968 0.0
H171 H 0.64902 0.87296 0.73076 0.0
H172 H 0.70825 0.87169 0.67291 0.0
H173 H 0.64635 0.81112 0.67178 0.0
C174 C 0.65713 0.86395 0.71355 0.0
C175 C 0.64513 0.84054 0.7027 0.0
C176 C 0.67965 0.87566 0.70273 0.0
C177 C 0.69062 0.8631 0.68106 0.0
C178 C 0.67875 0.83975 0.66965 0.0
C179 C 0.65604 0.82864 0.68075 0.0
H180 H 0.68258 0.89277 0.31856 0.0
H181 H 0.67439 0.82971 0.37524 0.0
H182 H 0.73831 0.88713 0.38663 0.0
C183 C 0.68918 0.88306 0.3369 0.0
C184 C 0.71208 0.89281 0.35169 0.0
C185 C 0.67562 0.86 0.34508 0.0
C186 C 0.68499 0.84718 0.36857 0.0
C187 C 0.7078 0.85658 0.38353 0.0
C188 C 0.72085 0.87965 0.37512 0.0
H189 H 0.68231 0.22659 0.38331 0.0
H190 H 0.73969 0.16638 0.37079 0.0
H191 H 0.67025 0.17179 0.31758 0.0
C192 C 0.68913 0.21016 0.3718 0.0
C193 C 0.67346 0.20089 0.34936 0.0
C194 C 0.71287 0.19739 0.38014 0.0
C195 C 0.72109 0.17582 0.3651 0.0
C196 C 0.70568 0.1662 0.34277 0.0
C197 C 0.68216 0.17911 0.33481 0.0
H198 H 0.33 0.17435 0.3908 0.0
H199 H 0.37664 0.15577 0.32467 0.0
H200 H 0.39386 0.22702 0.37028 0.0
C201 C 0.34602 0.17934 0.37816 0.0
C202 C 0.36139 0.20271 0.38319 0.0
C203 C 0.35163 0.16202 0.35736 0.0
C204 C 0.37259 0.16862 0.34115 0.0
C205 C 0.38774 0.19221 0.34547 0.0
C206 C 0.38213 0.20893 0.3667 0.0
H207 H 0.33353 0.88575 0.39058 0.0
H208 H 0.39009 0.82316 0.3963 0.0
H209 H 0.39421 0.8816 0.33426 0.0
C210 C 0.35071 0.87613 0.38332 0.0
C211 C 0.36261 0.88653 0.36083 0.0
C212 C 0.36066 0.85345 0.39651 0.0
C213 C 0.38277 0.8411 0.38685 0.0
C214 C 0.39502 0.85105 0.36449 0.0
C215 C 0.38469 0.87365 0.35135 0.0
H216 H 0.66973 0.73418 0.16656 0.0
H217 H 0.73248 0.68349 0.14433 0.0
H218 H 0.68857 0.66447 0.21261 0.0
C219 C 0.68144 0.71658 0.16989 0.0
C220 C 0.67663 0.69993 0.19157 0.0
C221 C 0.70156 0.71084 0.15272 0.0
C222 C 0.71682 0.68805 0.15734 0.0
C223 C 0.71222 0.67133 0.17892 0.0
C224 C 0.69205 0.67731 0.19585 0.0
H225 H 0.39455 0.68238 0.21807 0.0
H226 H 0.39976 0.74529 0.1605 0.0
H227 H 0.33713 0.68606 0.15148 0.0
C228 C 0.38709 0.69195 0.19996 0.0
C229 C 0.36412 0.68135 0.18596 0.0
C230 C 0.40014 0.71516 0.19099 0.0
C231 C 0.39021 0.7273 0.16739 0.0
C232 C 0.36727 0.71718 0.15329 0.0
C233 C 0.35454 0.69418 0.16262 0.0
H234 H 0.34426 0.39662 0.19686 0.0
H235 H 0.40775 0.34129 0.19627 0.0
H236 H 0.41003 0.40294 0.25572 0.0
C237 C 0.36282 0.38925 0.20561 0.0
C238 C 0.37535 0.4025 0.22797 0.0
C239 C 0.3742 0.36698 0.19407 0.0
C240 C 0.39887 0.3585 0.2048 0.0
C241 C 0.41207 0.3714 0.22681 0.0
C242 C 0.4001 0.39324 0.23854 0.0
H243 H 0.66917 0.38117 0.21442 0.0
H244 H 0.72781 0.40778 0.16159 0.0
H245 H 0.68793 0.33184 0.14853 0.0
C246 C 0.68063 0.37764 0.19728 0.0
C247 C 0.67659 0.35401 0.18259 0.0
C248 C 0.69876 0.39714 0.18952 0.0
C249 C 0.71336 0.39284 0.16713 0.0
C250 C 0.71008 0.36915 0.1524 0.0
C251 C 0.69121 0.34995 0.16003 0.0
H252 H 0.66882 0.389 0.80075 0.0
H253 H 0.678 0.33416 0.86552 0.0
H254 H 0.7337 0.39967 0.85996 0.0
C255 C 0.6799 0.3826 0.81862 0.0
C256 C 0.70253 0.3973 0.82849 0.0
C257 C 0.67155 0.35937 0.83133 0.0
C258 C 0.6851 0.35152 0.85516 0.0
C259 C 0.70727 0.36604 0.86607 0.0
C260 C 0.71604 0.38883 0.85237 0.0
H261 H 0.69669 0.73278 0.89572 0.0
H262 H 0.75837 0.67895 0.87915 0.0
H263 H 0.68443 0.67734 0.83086 0.0
C264 C 0.70352 0.71642 0.88408 0.0
C265 C 0.68711 0.70598 0.86289 0.0
C266 C 0.72899 0.70658 0.89011 0.0
C267 C 0.73842 0.68598 0.87477 0.0
C268 C 0.72272 0.67542 0.85299 0.0
C269 C 0.69694 0.68554 0.84725 0.0
H270 H 0.33462 0.64969 0.8814 0.0
H271 H 0.39471 0.65856 0.82494 0.0
H272 H 0.38955 0.71601 0.88792 0.0
C273 C 0.35191 0.66015 0.8745 0.0
C274 C 0.36102 0.6835 0.88752 0.0
C275 C 0.36422 0.65071 0.85227 0.0
C276 C 0.38568 0.6654 0.8426 0.0
C277 C 0.39519 0.68905 0.85517 0.0
C278 C 0.38252 0.698 0.87773 0.0
H279 H 0.34708 0.38004 0.88905 0.0
H280 H 0.39781 0.31449 0.90977 0.0
H281 H 0.40807 0.35848 0.83779 0.0
C282 C 0.3631 0.36711 0.8845 0.0
C283 C 0.37669 0.37156 0.86133 0.0
C284 C 0.37054 0.34664 0.90225 0.0
C285 C 0.39192 0.33037 0.89636 0.0
C286 C 0.40578 0.3347 0.87319 0.0
C287 C 0.39791 0.35533 0.85593 0.0
Cu288 Cu 0.29776 0.28691 0.05956 0.0
N289 N 0.29765 0.31426 0.03439 0.0
N290 N 0.31148 0.33307 0.99717 0.0
C291 C 0.31723 0.31621 0.01738 0.0
C292 C 0.28711 0.34213 1.00164 0.0
C293 C 0.2786 0.33048 0.02462 0.0
O294 O 0.29875 0.25568 0.03614 0.0
C295 C 0.31951 0.31662 0.10058 0.0
O296 O 0.29771 0.32902 0.09295 0.0
H297 H 0.33438 0.30363 0.01865 0.0
H298 H 0.25926 0.33239 0.0325 0.0
N299 N 0.26743 0.2812 0.07895 0.0
N300 N 0.24173 0.25955 0.10692 0.0
C301 C 0.26489 0.25993 0.09488 0.0
C302 C 0.24513 0.29505 0.08117 0.0
C303 C 0.2292 0.28168 0.09842 0.0
C304 C 0.2766 0.25286 0.02239 0.0
O305 O 0.25736 0.26915 0.02677 0.0
H306 H 0.27977 0.24482 0.09735 0.0
H307 H 0.24082 0.31357 0.07122 0.0
O308 O 0.32576 0.29621 0.08728 0.0
H309 H 0.27577 0.35535 0.98864 0.0
H310 H 0.21016 0.28806 0.1046 0.0
Cu311 Cu 0.79314 0.30513 1.00342 0.0
N312 N 0.79013 0.33362 0.02695 0.0
N313 N 0.77444 0.35347 0.06232 0.0
C314 C 0.77381 0.33152 0.04702 0.0
C315 C 0.79164 0.37044 0.05122 0.0
C316 C 0.80155 0.358 0.02943 0.0
O317 O 0.79614 0.27472 0.02817 0.0
C318 C 0.76575 0.33123 0.96354 0.0
O319 O 0.78552 0.34757 0.97086 0.0
H320 H 0.76147 0.31408 0.0502 0.0
H321 H 0.816 0.36612 0.01647 0.0
N322 N 0.82327 0.30429 0.98359 0.0
N323 N 0.84745 0.28943 0.95108 0.0
C324 C 0.82453 0.28699 0.96337 0.0
C325 C 0.84639 0.31824 0.98445 0.0
C326 C 0.86149 0.30892 0.96444 0.0
C327 C 0.81586 0.27854 0.04519 0.0
O328 O 0.83129 0.29957 0.04235 0.0
H329 H 0.80891 0.27248 0.95815 0.0
H330 H 0.85189 0.33393 0.99854 0.0
O331 O 0.76391 0.30901 0.97579 0.0
H332 H 0.79694 0.39018 0.05855 0.0
H333 H 0.88111 0.31608 0.95991 0.0
Cu334 Cu 0.78619 0.801 0.0184 0.0
N335 N 0.78893 0.8298 0.99505 0.0
N336 N 0.80436 0.85245 0.96075 0.0
C337 C 0.80678 0.83069 0.9762 0.0
C338 C 0.784 0.86583 0.97026 0.0
C339 C 0.77452 0.85181 0.99144 0.0
O340 O 0.78854 0.76976 0.99576 0.0
C341 C 0.80595 0.82699 0.06207 0.0
O342 O 0.7862 0.84163 0.05296 0.0
H343 H 0.82118 0.81538 0.97374 0.0
H344 H 0.75802 0.85707 1.00298 0.0
N345 N 0.75413 0.79655 0.03493 0.0
N346 N 0.72838 0.77937 0.06557 0.0
C347 C 0.752 0.77862 0.05446 0.0
C348 C 0.73089 0.80928 0.03339 0.0
C349 C 0.7149 0.79867 0.05234 0.0
C350 C 0.77003 0.76986 0.9773 0.0
O351 O 0.75278 0.78903 0.97683 0.0
H352 H 0.76786 0.76543 0.06065 0.0
H353 H 0.72612 0.82548 0.02002 0.0
O354 O 0.81203 0.80681 0.04851 0.0
H355 H 0.7759 0.88395 0.962 0.0
H356 H 0.69536 0.80534 0.05663 0.0
Cu357 Cu 0.27294 0.77039 0.0241 0.0
N358 N 0.24252 0.76771 0.04363 0.0
N359 N 0.21508 0.77792 0.07527 0.0
C360 C 0.23814 0.78393 0.06413 0.0
C361 C 0.20438 0.75719 0.06101 0.0
C362 C 0.22143 0.7508 0.04159 0.0
O363 O 0.3014 0.77475 0.05209 0.0
C364 C 0.24575 0.79663 0.98352 0.0
O365 O 0.22918 0.77691 0.98804 0.0
H366 H 0.25155 0.80011 0.07046 0.0
H367 H 0.21857 0.73508 0.02699 0.0
N368 N 0.27929 0.74 1.00432 0.0
N369 N 0.29841 0.71484 0.9745 0.0
C370 C 0.29509 0.73966 0.98368 0.0
C371 C 0.27192 0.71456 1.00817 0.0
C372 C 0.28352 0.699 0.98967 0.0
C373 C 0.32255 0.76126 0.05389 0.0
O374 O 0.33027 0.74901 0.03278 0.0
H375 H 0.30496 0.75725 0.97637 0.0
H376 H 0.25951 0.70773 0.02366 0.0
O377 O 0.26743 0.79881 0.99798 0.0
H378 H 0.18573 0.74714 0.06459 0.0
H379 H 0.28108 0.6777 0.98765 0.0
Cu380 Cu 0.02433 0.25822 0.2779 0.0
N381 N 0.0454 0.22785 0.27712 0.0
N382 N 0.07877 0.20209 0.26612 0.0
C383 C 0.0683 0.22654 0.26468 0.0
C384 C 0.06191 0.18748 0.2803 0.0
C385 C 0.04135 0.20336 0.28699 0.0
O386 O 0.04982 0.28766 0.28504 0.0
C387 C 0.9933 0.23915 0.23333 0.0
O388 O 1.0012 0.21649 0.24346 0.0
H389 H 0.07675 0.2431 0.25417 0.0
H390 H 0.02431 0.19716 0.29761 0.0
N391 N 1.00063 0.25812 0.30535 0.0
N392 N 0.96864 0.27289 0.33024 0.0
C393 C 0.98238 0.27688 0.30833 0.0
C394 C 0.99833 0.24162 0.32615 0.0
C395 C 0.97845 0.25057 0.3414 0.0
C396 C 0.06108 0.28774 0.30845 0.0
O397 O 0.05427 0.26912 0.32511 0.0
H398 H 0.97922 0.29314 0.29455 0.0
H399 H 1.01063 0.22472 0.33046 0.0
O400 O 1.00186 0.26069 0.24458 0.0
H401 H 0.06424 0.16681 0.28558 0.0
H402 H 0.97219 0.24178 0.35966 0.0
Cu403 Cu 0.78003 0.04206 0.26468 0.0
N404 N 0.80863 0.06518 0.25832 0.0
N405 N 0.83041 0.09768 0.23781 0.0
C406 C 0.80702 0.08452 0.23984 0.0
C407 C 0.84748 0.08609 0.25571 0.0
C408 C 0.83398 0.06613 0.26843 0.0
O409 O 0.75032 0.06548 0.27054 0.0
C410 C 0.79976 1.00131 0.23803 0.0
O411 O 0.819 1.00829 0.25554 0.0
H412 H 0.78916 0.08822 0.22749 0.0
H413 H 0.84227 0.05293 0.28348 0.0
N414 N 0.78286 0.02088 0.29523 0.0
N415 N 0.77131 0.9864 0.32028 0.0
C416 C 0.76442 1.00182 0.2993 0.0
C417 C 0.80213 0.01769 0.31461 0.0
C418 C 0.79502 0.99633 0.33013 0.0
C419 C 0.75515 0.07892 0.29194 0.0
O420 O 0.77786 0.07555 0.3056 0.0
H421 H 0.74685 0.99847 0.28616 0.0
H422 H 0.82034 0.0294 0.31686 0.0
O423 O 0.77857 1.01493 0.23654 0.0
H424 H 0.86829 0.09158 0.25925 0.0
H425 H 0.80656 0.98849 0.34705 0.0
Cu426 Cu 1.00921 0.76456 0.28254 0.0
N427 N 0.98968 0.79575 0.28507 0.0
N428 N 0.95753 0.82404 0.27277 0.0
C429 C 0.9687 0.80055 0.26804 0.0
C430 C 0.97233 0.8347 0.29354 0.0
C431 C 0.99208 0.81708 0.30126 0.0
O432 O 0.9825 0.73637 0.28735 0.0
C433 C 0.0416 0.78934 0.24986 0.0
O434 O 0.04059 0.80545 0.27027 0.0
H435 H 0.96221 0.78718 0.25198 0.0
H436 H 1.00722 0.81981 0.31724 0.0
N437 N 0.03718 0.75887 0.30815 0.0
N438 N 0.07306 0.73869 0.32626 0.0
C439 C 0.05663 0.74149 0.30435 0.0
C440 C 0.04165 0.76761 0.33333 0.0
C441 C 0.06367 0.75502 0.34461 0.0
C442 C 0.97349 0.73767 0.31052 0.0
O443 O 0.98312 0.7563 0.32686 0.0
H444 H 0.05807 0.73034 0.28611 0.0
H445 H 0.02938 0.78152 0.34307 0.0
O446 O 0.02769 0.76779 0.2496 0.0
H447 H 0.96906 0.85378 0.30255 0.0
H448 H 0.07204 0.75749 0.3648 0.0
Cu449 Cu 0.27048 1.00589 0.28384 0.0
N450 N 0.27097 0.03092 0.31158 0.0
N451 N 0.28632 0.06738 0.33374 0.0
C452 C 0.29183 0.04777 0.31671 0.0
C453 C 0.26079 0.06271 0.33941 0.0
C454 C 0.25133 0.04032 0.32565 0.0
O455 O 0.26793 0.02939 0.25265 0.0
C456 C 0.30308 0.97407 0.31444 0.0
O457 O 0.28459 0.98038 0.33047 0.0
H458 H 0.30996 0.04679 0.30638 0.0
H459 H 0.23111 0.03269 0.32465 0.0
N460 N 0.24144 0.98151 0.28151 0.0
N461 N 0.21517 0.94798 0.26531 0.0
C462 C 0.23729 0.96302 0.26214 0.0
C463 C 0.22132 0.97784 0.29762 0.0
C464 C 0.20497 0.95738 0.28753 0.0
C465 C 0.24474 0.03876 0.24779 0.0
O466 O 0.22505 0.02919 0.26103 0.0
H467 H 0.25013 0.96089 0.24585 0.0
H468 H 0.21875 0.98899 0.31557 0.0
O469 O 0.30182 0.98369 0.2909 0.0
H470 H 0.24938 0.07522 0.35174 0.0
H471 H 0.1872 0.94967 0.29611 0.0
Cu472 Cu 0.05115 0.78718 0.7709 0.0
N473 N 0.07323 0.75756 0.76939 0.0
N474 N 0.10515 0.7323 0.75408 0.0
C475 C 0.09232 0.75552 0.75186 0.0
C476 C 0.09381 0.71927 0.77406 0.0
C477 C 0.07415 0.73489 0.78347 0.0
O478 O 0.07646 0.8175 0.77719 0.0
C479 C 1.01235 0.76221 0.73948 0.0
O480 O 0.01827 0.745 0.75835 0.0
H481 H 0.09645 0.77073 0.73743 0.0
H482 H 0.0614 0.72996 0.79932 0.0
N483 N 0.02809 0.78866 0.79881 0.0
N484 N 0.99413 0.80449 0.8204 0.0
C485 C 1.00761 0.80548 0.79809 0.0
C486 C 0.02747 0.77628 0.82244 0.0
C487 C 1.00653 0.78605 0.83583 0.0
C488 C 0.0895 0.81547 0.79975 0.0
O489 O 0.08462 0.7947 0.81454 0.0
H490 H 1.00303 0.81869 0.78158 0.0
H491 H 0.04136 0.7615 0.82961 0.0
O492 O 0.02554 0.7843 0.73963 0.0
H493 H 0.09954 0.70002 0.78165 0.0
H494 H 1.00077 0.77989 0.85527 0.0
Cu495 Cu 0.29589 0.0551 0.79491 0.0
N496 N 0.32507 0.07757 0.78921 0.0
N497 N 0.34709 0.10855 0.76695 0.0
C498 C 0.32387 0.09528 0.7692 0.0
C499 C 0.36366 0.09899 0.7866 0.0
C500 C 0.34995 0.07985 0.80041 0.0
O501 O 0.26841 0.07959 0.80405 0.0
C502 C 0.31405 0.01826 0.76375 0.0
O503 O 0.33387 0.02432 0.78094 0.0
H504 H 0.30635 0.09782 0.756 0.0
H505 H 0.3577 0.06817 0.81701 0.0
N506 N 0.29742 0.02999 0.82234 0.0
N507 N 0.28243 0.99386 0.84295 0.0
C508 C 0.27831 1.01092 0.82271 0.0
C509 C 0.31455 0.02482 0.84315 0.0
C510 C 0.3052 1.00249 0.85605 0.0
C511 C 0.2746 0.08983 0.82691 0.0
O512 O 0.29651 0.08233 0.83995 0.0
H513 H 0.26166 1.00951 0.80811 0.0
H514 H 0.33258 0.03617 0.84837 0.0
O515 O 0.29266 0.03142 0.76418 0.0
H516 H 0.38413 0.1054 0.79075 0.0
H517 H 0.31474 0.99297 0.87324 0.0
Cu518 Cu 0.0523 0.28938 0.79372 0.0
N519 N 0.03315 0.32067 0.79392 0.0
N520 N 1.00128 0.34859 0.78063 0.0
C521 C 1.0124 0.32502 0.77652 0.0
C522 C 1.0155 0.35969 0.80147 0.0
C523 C 0.03545 0.3425 0.80947 0.0
O524 O 0.02454 0.2616 0.78892 0.0
C525 C 0.09637 0.30897 0.77015 0.0
O526 O 0.09873 0.32044 0.79364 0.0
H527 H 1.00538 0.31095 0.76125 0.0
H528 H 0.05063 0.34595 0.82524 0.0
N529 N 0.07312 0.2837 0.82548 0.0
N530 N 0.10572 0.26823 0.85292 0.0
C531 C 0.09332 0.26663 0.82843 0.0
C532 C 0.07263 0.29627 0.84909 0.0
C533 C 0.0929 0.28693 0.86596 0.0
C534 C 1.01391 0.25272 0.80958 0.0
O535 O 0.02372 0.26031 0.83317 0.0
H536 H 0.09934 0.25389 0.81265 0.0
H537 H 0.05858 0.31115 0.85382 0.0
O538 O 0.07654 0.29322 0.76488 0.0
H539 H 1.01199 0.37897 0.80992 0.0
H540 H 0.0978 0.29327 0.88626 0.0
Cu541 Cu 0.78534 0.02866 0.75927 0.0
N542 N 0.79205 0.0516 0.78854 0.0
N543 N 0.81082 0.08571 0.81218 0.0
C544 C 0.80947 0.07237 0.78879 0.0
C545 C 0.79327 0.07285 0.82715 0.0
C546 C 0.78187 0.05179 0.81261 0.0
O547 O 0.77998 0.05278 0.72885 0.0
C548 C 0.81421 0.98826 0.78023 0.0
O549 O 0.79596 0.99171 0.79735 0.0
H550 H 0.82115 0.07742 0.77211 0.0
H551 H 0.76725 0.03768 0.81921 0.0
N552 N 0.75446 1.00675 0.76044 0.0
N553 N 0.72592 0.97291 0.75003 0.0
C554 C 0.74951 0.98476 0.74535 0.0
C555 C 0.73335 1.00868 0.77541 0.0
C556 C 0.71577 0.98789 0.76905 0.0
C557 C 0.7584 0.0656 0.72938 0.0
O558 O 0.74255 0.06063 0.74858 0.0
H559 H 0.76288 0.97775 0.731 0.0
H560 H 0.73075 0.02417 0.78982 0.0
O561 O 0.81466 1.00361 0.76006 0.0
H562 H 0.78846 0.07849 0.84699 0.0
H563 H 0.69715 0.98391 0.77806 0.0
Cu564 Cu 0.2805 0.79634 0.52916 0.0
N565 N 0.28188 0.82794 0.54863 0.0
N566 N 0.29686 0.8549 0.58172 0.0
C567 C 0.29868 0.83095 0.57025 0.0
C568 C 0.27801 0.86762 0.56671 0.0
C569 C 0.26875 0.85087 0.54621 0.0
O570 O 0.27931 0.76857 0.5561 0.0
C571 C 0.30376 0.81747 0.48738 0.0
O572 O 0.28224 0.8313 0.4896 0.0
H573 H 0.31212 0.81571 0.57739 0.0
H574 H 0.25351 0.85507 0.53086 0.0
N575 N 0.25047 0.78912 0.50673 0.0
N576 N 0.22863 0.7673 0.47323 0.0
C577 C 0.24979 0.76766 0.49081 0.0
C578 C 0.22879 0.80299 0.49917 0.0
C579 C 0.21531 0.78956 0.47826 0.0
C580 C 0.25999 0.77209 0.571 0.0
O581 O 0.24451 0.79239 0.56632 0.0
H582 H 0.26565 0.7535 0.49097 0.0
H583 H 0.22389 0.82202 0.50726 0.0
O584 O 0.30909 0.79939 0.50459 0.0
H585 H 0.27099 0.88731 0.5706 0.0
H586 H 0.19762 0.79606 0.46708 0.0
Cu587 Cu 0.77327 0.78075 0.52294 0.0
N588 N 0.77997 0.74911 0.50508 0.0
N589 N 0.79442 0.72276 0.47334 0.0
C590 C 0.79211 0.74796 0.482 0.0
C591 C 0.78348 0.70748 0.49201 0.0
C592 C 0.77461 0.72376 0.51154 0.0
O593 O 0.76466 0.80678 0.49508 0.0
C594 C 0.82482 0.77649 0.54991 0.0
O595 O 0.83126 0.76261 0.52928 0.0
H596 H 0.79981 0.76539 0.47234 0.0
H597 H 0.76517 0.71752 0.52927 0.0
N598 N 0.74422 0.77794 0.54427 0.0
N599 N 0.71866 0.78793 0.57753 0.0
C600 C 0.73969 0.79536 0.56373 0.0
C601 C 0.72535 0.75875 0.54577 0.0
C602 C 0.70964 0.7648 0.56642 0.0
C603 C 0.74619 0.79882 0.47825 0.0
O604 O 0.73432 0.77582 0.48223 0.0
H605 H 0.75223 0.8127 0.56826 0.0
H606 H 0.72338 0.74141 0.53307 0.0
O607 O 0.803 0.78887 0.54863 0.0
H608 H 0.78191 0.68602 0.4916 0.0
H609 H 0.69293 0.7531 0.57282 0.0
Cu610 Cu 0.79137 0.28529 0.53281 0.0
N611 N 0.79254 0.25634 0.5093 0.0
N612 N 0.77799 0.2315 0.47411 0.0
C613 C 0.77449 0.2536 0.48851 0.0
C614 C 0.79937 0.21987 0.48624 0.0
C615 C 0.80836 0.23527 0.50794 0.0
O616 O 0.79222 0.31482 0.50743 0.0
C617 C 0.76403 0.25532 0.56624 0.0
O618 O 0.78577 0.24215 0.56292 0.0
H619 H 0.75871 0.26749 0.48429 0.0
H620 H 0.82505 0.23124 0.52171 0.0
N621 N 0.8196 0.29092 0.5588 0.0
N622 N 0.84187 0.31028 0.59397 0.0
C623 C 0.81961 0.31014 0.57756 0.0
C624 C 0.84269 0.27835 0.56352 0.0
C625 C 0.85651 0.29037 0.58505 0.0
C626 C 0.81523 0.31754 0.49819 0.0
O627 O 0.8347 0.30348 0.50888 0.0
H628 H 0.80372 0.32411 0.57873 0.0
H629 H 0.84914 0.26181 0.55205 0.0
O630 O 0.76076 0.27736 0.55399 0.0
H631 H 0.80813 0.20173 0.47976 0.0
H632 H 0.87579 0.28474 0.59362 0.0
Cu633 Cu 0.27952 0.29148 0.51863 0.0
N634 N 0.27445 0.32161 0.53937 0.0
N635 N 0.25638 0.3443 0.57171 0.0
C636 C 0.25775 0.32076 0.55924 0.0
C637 C 0.27309 0.36077 0.55921 0.0
C638 C 0.28425 0.34667 0.5392 0.0
O639 O 0.28413 0.2633 0.54574 0.0
C640 C 0.25485 0.31145 0.47375 0.0
O641 O 0.27564 0.32727 0.47862 0.0
H642 H 0.24657 0.30307 0.56432 0.0
H643 H 0.29849 0.35411 0.52566 0.0
N644 N 0.31025 0.28988 0.49963 0.0
N645 N 0.33505 0.27315 0.46852 0.0
C646 C 0.3123 0.27091 0.4811 0.0
C647 C 0.33261 0.3049 0.49892 0.0
C648 C 0.34804 0.29455 0.47967 0.0
C649 C 0.30373 0.26966 0.56216 0.0
O650 O 0.31727 0.29163 0.55777 0.0
H651 H 0.29708 0.25572 0.47684 0.0
H652 H 0.33714 0.32233 0.51108 0.0
O653 O 0.25083 0.29239 0.49003 0.0
H654 H 0.27735 0.38132 0.56446 0.0
H655 H 0.36687 0.30264 0.47382 0.0
Cu656 Cu 0.78771 0.5523 0.76195 0.0
N657 N 0.7928 0.57454 0.7323 0.0
N658 N 0.81084 0.60749 0.70861 0.0
C659 C 0.81143 0.59432 0.73205 0.0
C660 C 0.79075 0.59563 0.69365 0.0
C661 C 0.77978 0.57536 0.7082 0.0
O662 O 0.78269 0.57723 0.79129 0.0
C663 C 0.81432 0.51135 0.74249 0.0
O664 O 0.79553 0.51605 0.72399 0.0
H665 H 0.82529 0.59884 0.74879 0.0
H666 H 0.76338 0.56233 0.70162 0.0
N667 N 0.75755 0.52927 0.76096 0.0
N668 N 0.73388 0.49321 0.77246 0.0
C669 C 0.75517 0.50928 0.7786 0.0
C670 C 0.73671 0.52593 0.74315 0.0
C671 C 0.72212 0.50368 0.75018 0.0
C672 C 0.76297 0.59225 0.78564 0.0
O673 O 0.74903 0.58808 0.76307 0.0
H674 H 0.76959 0.50586 0.79499 0.0
H675 H 0.73272 0.53825 0.7259 0.0
O676 O 0.81674 0.52675 0.76283 0.0
H677 H 0.78393 0.60152 0.67379 0.0
H678 H 0.70438 0.4957 0.73956 0.0
Cu679 Cu 0.30202 0.51678 0.76723 0.0
N680 N 0.32832 0.49126 0.77002 0.0
N681 N 0.34918 0.45619 0.78775 0.0
C682 C 0.3276 0.47149 0.78789 0.0
C683 C 0.36429 0.46693 0.76912 0.0
C684 C 0.3513 0.48855 0.75811 0.0
O685 O 0.26842 0.49679 0.76473 0.0
C686 C 0.32977 0.55469 0.79514 0.0
O687 O 0.3453 0.54909 0.77599 0.0
H688 H 0.31194 0.46914 0.80155 0.0
H689 H 0.35854 0.50164 0.74309 0.0
N690 N 0.30184 0.53915 0.73762 0.0
N691 N 0.28758 0.57356 0.7133 0.0
C692 C 0.28274 0.55713 0.73354 0.0
C693 C 0.31955 0.54431 0.71922 0.0
C694 C 0.31083 0.56576 0.70425 0.0
C695 C 0.26255 0.48737 0.74153 0.0
O696 O 0.27857 0.4925 0.7225 0.0
H697 H 0.26635 0.55906 0.74629 0.0
H698 H 0.33798 0.53414 0.71749 0.0
O699 O 0.30826 0.54118 0.79697 0.0
H700 H 0.38347 0.45988 0.76407 0.0
H701 H 0.32109 0.57533 0.68846 0.0
Cu702 Cu 0.28385 0.53347 0.27484 0.0
N703 N 0.2554 0.50839 0.27237 0.0
N704 N 0.23086 0.47312 0.28464 0.0
C705 C 0.25076 0.49067 0.29178 0.0
C706 C 0.22279 0.48005 0.25958 0.0
C707 C 0.23789 0.50173 0.25208 0.0
O708 O 0.31519 0.5103 0.27702 0.0
C709 C 0.27945 0.58152 0.30629 0.0
O710 O 0.29744 0.59199 0.29146 0.0
H711 H 0.26273 0.48997 0.31033 0.0
H712 H 0.23677 0.51124 0.23284 0.0
N713 N 0.28654 0.55597 0.24495 0.0
N714 N 0.30207 0.58968 0.22043 0.0
C715 C 0.30789 0.57148 0.23962 0.0
C716 C 0.26666 0.56442 0.22829 0.0
C717 C 0.27614 0.58496 0.21316 0.0
C718 C 0.31575 0.4949 0.25675 0.0
O719 O 0.29769 0.49781 0.23712 0.0
H720 H 0.32657 0.57099 0.25136 0.0
H721 H 0.24623 0.55748 0.22838 0.0
O722 O 0.27452 0.55652 0.30473 0.0
H723 H 0.2073 0.46993 0.24734 0.0
H724 H 0.26441 0.59636 0.19874 0.0
Cu725 Cu 0.77743 0.51836 0.26042 0.0
N726 N 0.80424 0.49352 0.26346 0.0
N727 N 0.82467 0.458 0.28061 0.0
C728 C 0.80685 0.47696 0.28434 0.0
C729 C 0.83394 0.46297 0.25647 0.0
C730 C 0.82122 0.48495 0.24587 0.0
O731 O 0.74519 0.49656 0.26054 0.0
C732 C 0.80525 0.55706 0.28692 0.0
O733 O 0.82012 0.55147 0.2672 0.0
H734 H 0.79477 0.47794 0.30136 0.0
H735 H 0.82353 0.49341 0.22642 0.0
N736 N 0.77697 0.53907 0.22952 0.0
N737 N 0.7674 0.57476 0.20463 0.0
C738 C 0.76764 0.56387 0.22909 0.0
C739 C 0.78266 0.53376 0.20432 0.0
C740 C 0.77666 0.5558 0.18887 0.0
C741 C 0.72731 0.49702 0.2416 0.0
O742 O 0.72533 0.51834 0.22672 0.0
H743 H 0.75981 0.57312 0.24621 0.0
H744 H 0.78973 0.515 0.19748 0.0
O745 O 0.78395 0.54346 0.28948 0.0
H746 H 0.8485 0.45133 0.24701 0.0
H747 H 0.77847 0.55752 0.16761 0.0
Cu748 Cu 0.53707 0.26929 0.76972 0.0
N749 N 0.51891 0.26467 0.80085 0.0
N750 N 0.4899 0.27414 0.83128 0.0
C751 C 0.50119 0.2821 0.80893 0.0
C752 C 0.50106 0.25073 0.83769 0.0
C753 C 0.51905 0.24495 0.81889 0.0
O754 O 0.50876 0.27473 0.74191 0.0
C755 C 0.58098 0.29274 0.79413 0.0
O756 O 0.57938 0.26973 0.80624 0.0
H757 H 0.49629 0.30016 0.79825 0.0
H758 H 0.53132 0.22766 0.81852 0.0
N759 N 0.55757 0.24019 0.76102 0.0
N760 N 0.59075 0.21838 0.7436 0.0
C761 C 0.57958 0.24215 0.74714 0.0
C762 C 0.55444 0.21419 0.7663 0.0
C763 C 0.57485 0.20069 0.75558 0.0
C764 C 0.50551 0.26044 0.72098 0.0
O765 O 0.52475 0.24491 0.71469 0.0
H766 H 0.58669 0.26074 0.73913 0.0
H767 H 0.53835 0.20559 0.7769 0.0
O768 O 0.56273 0.29853 0.77654 0.0
H769 H 0.49683 0.23885 0.85487 0.0
H770 H 0.57776 0.17951 0.75658 0.0
Cu771 Cu 0.52307 0.78037 0.79443 0.0
N772 N 0.55003 0.77653 0.82174 0.0
N773 N 0.58704 0.76016 0.84228 0.0
C774 C 0.57108 0.7606 0.8197 0.0
C775 C 0.57566 0.7768 0.8591 0.0
C776 C 0.55284 0.78673 0.84647 0.0
O777 O 0.54312 0.78266 0.76237 0.0
C778 C 0.48292 0.75447 0.81857 0.0
O779 O 0.488 0.7752 0.83402 0.0
H780 H 0.57429 0.74908 0.80208 0.0
H781 H 0.53922 0.80018 0.85491 0.0
N782 N 0.50266 0.81149 0.79445 0.0
N783 N 0.47091 0.83965 0.78027 0.0
C784 C 0.4843 0.81753 0.77483 0.0
C785 C 0.50088 0.83059 0.81296 0.0
C786 C 0.48121 0.84784 0.80435 0.0
C787 C 0.55609 0.80472 0.76144 0.0
O788 O 0.55355 0.82227 0.78037 0.0
H789 H 0.4802 0.80532 0.75729 0.0
H790 H 0.51256 0.83163 0.83166 0.0
O791 O 0.49702 0.75125 0.79855 0.0
H792 H 0.58336 0.78179 0.87905 0.0
H793 H 0.47485 0.86501 0.81502 0.0
Cu794 Cu 0.53833 0.77778 0.27799 0.0
N795 N 0.51919 0.78007 0.30846 0.0
N796 N 0.48637 0.79411 0.33246 0.0
C797 C 0.49858 0.79645 0.30952 0.0
C798 C 0.50018 0.77576 0.34672 0.0
C799 C 0.5204 0.76695 0.33174 0.0
O800 O 0.5103 0.77442 0.24901 0.0
C801 C 0.58189 0.80392 0.29987 0.0
O802 O 0.57886 0.78312 0.31516 0.0
H803 H 0.49277 0.80991 0.29359 0.0
H804 H 0.53465 0.7519 0.33727 0.0
N805 N 0.55922 0.74784 0.27525 0.0
N806 N 0.59236 0.72473 0.25984 0.0
C807 C 0.57929 0.74774 0.25889 0.0
C808 C 0.55924 0.72381 0.28692 0.0
C809 C 0.57967 0.70937 0.27723 0.0
C810 C 0.49435 0.75486 0.25307 0.0
O811 O 0.49947 0.73971 0.27386 0.0
H812 H 0.58391 0.7643 0.24618 0.0
H813 H 0.54548 0.71726 0.30133 0.0
O814 O 0.56469 0.80745 0.28045 0.0
H815 H 0.49565 0.76883 0.3663 0.0
H816 H 0.58493 0.68931 0.28269 0.0
Cu817 Cu 0.5387 0.2716 0.27242 0.0
N818 N 0.51306 0.24395 0.27168 0.0
N819 N 0.477 0.22118 0.28348 0.0
C820 C 0.49165 0.24386 0.28646 0.0
C821 C 0.48976 0.20627 0.26624 0.0
C822 C 0.5119 0.22044 0.25883 0.0
O823 O 0.51799 0.30422 0.27384 0.0
C824 C 0.57636 0.24241 0.30005 0.0
O825 O 0.56857 0.22658 0.28023 0.0
H826 H 0.48746 0.25983 0.29988 0.0
H827 H 0.52644 0.21372 0.24556 0.0
N828 N 0.55853 0.27307 0.24212 0.0
N829 N 0.59131 0.28621 0.21676 0.0
C830 C 0.5804 0.28865 0.24043 0.0
C831 C 0.5553 0.26034 0.21857 0.0
C832 C 0.57543 0.26856 0.20281 0.0
C833 C 0.50528 0.30999 0.25194 0.0
O834 O 0.50845 0.29508 0.23102 0.0
H835 H 0.58768 0.30208 0.25616 0.0
H836 H 0.53927 0.24642 0.21306 0.0
O837 O 0.56531 0.2649 0.30175 0.0
H838 H 0.48363 0.18649 0.25965 0.0
H839 H 0.57816 0.26208 0.18268 0.0
C840 C 0.24249 0.20905 0.16232 0.0
C841 C 0.21568 0.20063 0.16234 0.0
C842 C 0.25088 0.22817 0.14409 0.0
C843 C 0.23278 0.23967 0.12525 0.0
H844 H 0.25696 0.20133 0.17694 0.0
H845 H 0.2716 0.23446 0.14513 0.0
S846 S 0.16111 0.22195 0.11477 0.0
N847 N 0.17157 0.20353 0.14022 0.0
N848 N 0.18733 0.23948 0.10631 0.0
C849 C 0.20612 0.2308 0.12453 0.0
C850 C 0.19761 0.21128 0.14294 0.0
C851 C 0.84065 0.26187 0.11543 0.0
C852 C 0.84291 0.23411 0.11522 0.0
C853 C 0.83007 0.27557 0.09316 0.0
C854 C 0.82109 0.26226 0.06955 0.0
H855 H 0.84783 0.27326 0.13278 0.0
H856 H 0.82978 0.29706 0.09416 0.0
S857 S 0.82093 0.1895 0.05889 0.0
N858 N 0.83393 0.19353 0.0896 0.0
N859 N 0.81383 0.21952 0.04775 0.0
C860 C 0.82178 0.2344 0.06941 0.0
C861 C 0.83274 0.2203 0.09221 0.0
C862 C 0.85264 0.8488 0.12044 0.0
C863 C 0.83468 0.85335 0.14029 0.0
C864 C 0.84378 0.83833 0.09537 0.0
C865 C 0.81674 0.832 0.08959 0.0
H866 H 0.87341 0.85452 0.12388 0.0
H867 H 0.85782 0.83657 0.08006 0.0
S868 S 0.76266 0.83608 0.13605 0.0
N869 N 0.78931 0.8477 0.15336 0.0
N870 N 0.77273 0.82823 0.10652 0.0
C871 C 0.79903 0.83487 0.10984 0.0
C872 C 0.80796 0.84549 0.13514 0.0
C873 C 0.16541 0.80681 0.11962 0.0
C874 C 0.18132 0.81548 0.14213 0.0
C875 C 0.17655 0.79461 0.09794 0.0
C876 C 0.2041 0.79091 0.09762 0.0
H877 H 0.14412 0.80951 0.11868 0.0
H878 H 0.16352 0.78826 0.08113 0.0
S879 S 0.25454 0.80903 0.15177 0.0
N880 N 0.22612 0.8184 0.16301 0.0
N881 N 0.24701 0.79652 0.12188 0.0
C882 C 0.22029 0.79971 0.11979 0.0
C883 C 0.20893 0.81174 0.14208 0.0
C884 C 0.20426 0.83457 0.93165 0.0
C885 C 0.22298 0.844 0.9141 0.0
C886 C 0.21207 0.82005 0.95444 0.0
C887 C 0.23897 0.81466 0.96096 0.0
H888 H 0.18334 0.83853 0.92786 0.0
H889 H 0.19681 0.81288 0.96705 0.0
S890 S 0.29585 0.8335 0.92117 0.0
N891 N 0.26975 0.84571 0.90437 0.0
N892 N 0.28433 0.81919 0.94775 0.0
C893 C 0.25799 0.82412 0.94386 0.0
C894 C 0.25002 0.83857 0.92033 0.0
C895 C 0.23671 0.21036 0.97284 0.0
C896 C 0.25078 0.2131 0.94974 0.0
C897 C 0.24701 0.22069 0.99731 0.0
C898 C 0.27179 0.23423 0.99974 0.0
H899 H 0.21698 0.20128 0.97172 0.0
H900 H 0.23459 0.2197 1.01413 0.0
S901 S 0.31709 0.24567 0.94547 0.0
N902 N 0.29148 0.22901 0.93104 0.0
N903 N 0.31066 0.24883 0.9771 0.0
C904 C 0.28683 0.23571 0.97717 0.0
C905 C 0.27634 0.22506 0.95214 0.0
C906 C 0.88925 0.2488 0.90736 0.0
C907 C 0.87072 0.23984 0.88703 0.0
C908 C 0.88169 0.2654 0.92793 0.0
C909 C 0.8553 0.27367 0.92898 0.0
H910 H 0.90969 0.24257 0.90763 0.0
H911 H 0.89644 0.2713 0.94346 0.0
S912 S 0.79988 0.25829 0.87893 0.0
N913 N 0.8253 0.2421 0.86823 0.0
N914 N 0.81113 0.27338 0.90664 0.0
C915 C 0.83676 0.26544 0.90836 0.0
C916 C 0.84445 0.24851 0.88749 0.0
C917 C 0.84308 0.84417 0.89956 0.0
C918 C 0.84989 0.87046 0.89291 0.0
C919 C 0.82828 0.83849 0.92169 0.0
C920 C 0.81956 0.85886 0.93806 0.0
H921 H 0.84886 0.82784 0.88731 0.0
H922 H 0.82332 0.81797 0.92579 0.0
S923 S 0.83432 0.93086 0.93078 0.0
N924 N 0.84827 0.91696 0.90556 0.0
N925 N 0.82038 0.90628 0.94698 0.0
C926 C 0.82663 0.8852 0.9319 0.0
C927 C 0.84179 0.89099 0.90942 0.0
C928 C 0.14791 0.20343 0.24137 0.0
C929 C 0.14985 0.17813 0.2298 0.0
C930 C 0.12478 0.21099 0.25337 0.0
C931 C 0.10264 0.19356 0.25434 0.0
H932 H 0.16444 0.21753 0.24117 0.0
H933 H 0.12426 0.23061 0.26208 0.0
S934 S 0.09682 0.12576 0.22528 0.0
N935 N 0.12714 0.13608 0.21908 0.0
N936 N 0.08376 0.15024 0.24157 0.0
C937 C 0.10428 0.16822 0.24279 0.0
C938 C 0.12784 0.16053 0.23056 0.0
C939 C 0.86794 0.14029 0.19087 0.0
C940 C 0.85088 0.1617 0.18561 0.0
C941 C 0.86092 0.11933 0.20753 0.0
C942 C 0.83644 0.1187 0.21947 0.0
H943 H 0.88729 0.14013 0.18261 0.0
H944 H 0.8749 0.10357 0.2113 0.0
S945 S 0.78441 0.16957 0.21197 0.0
N946 N 0.8082 0.18073 0.19348 0.0
N947 N 0.79484 0.14113 0.22457 0.0
C948 C 0.81875 0.13946 0.21368 0.0
C949 C 0.82598 0.16096 0.19678 0.0
C950 C 0.91438 0.87374 0.23558 0.0
C951 C 0.89297 0.85784 0.22486 0.0
C952 C 0.93511 0.86276 0.25175 0.0
C953 C 0.93521 0.83548 0.2578 0.0
H954 H 0.91545 0.8947 0.2309 0.0
H955 H 0.95155 0.87555 0.25894 0.0
S956 S 0.88195 0.78608 0.23783 0.0
N957 N 0.87197 0.81394 0.22361 0.0
N958 N 0.9107 0.79344 0.25393 0.0
C959 C 0.91339 0.81963 0.24806 0.0
C960 C 0.89237 0.83076 0.23163 0.0
C961 C 0.16586 0.90298 0.22681 0.0
C962 C 0.18184 0.8829 0.21715 0.0
C963 C 0.17688 0.92416 0.24234 0.0
C964 C 0.20441 0.92645 0.2486 0.0
H965 H 0.14456 0.90236 0.22236 0.0
H966 H 0.16378 0.939 0.2494 0.0
S967 S 0.25507 0.87889 0.22953 0.0
N968 N 0.22678 0.8664 0.2161 0.0
N969 N 0.2474 0.90657 0.2446 0.0
C970 C 0.22071 0.90678 0.23895 0.0
C971 C 0.20948 0.88498 0.22339 0.0
C972 C 0.15542 0.85384 0.81013 0.0
C973 C 0.1561 0.85969 0.8376 0.0
C974 C 0.13272 0.84165 0.79683 0.0
C975 C 0.10995 0.83511 0.81057 0.0
H976 H 0.17306 0.85722 0.79925 0.0
H977 H 0.13372 0.83567 0.77626 0.0
S978 S 0.10024 0.84998 0.88147 0.0
N979 N 0.13083 0.86074 0.87707 0.0
N980 N 0.08864 0.83804 0.85238 0.0
C981 C 0.10985 0.84267 0.83748 0.0
C982 C 0.13277 0.8549 0.85091 0.0
C983 C 0.24801 0.13187 0.88061 0.0
C984 C 0.24162 0.15568 0.86747 0.0
C985 C 0.25685 0.10999 0.86674 0.0
C986 C 0.25938 0.11084 0.83909 0.0
H987 H 0.24647 0.13018 0.90191 0.0
H988 H 0.26256 0.09245 0.87793 0.0
S989 S 0.24523 0.16822 0.79508 0.0
N990 N 0.23839 0.17873 0.82495 0.0
N991 N 0.25464 0.13719 0.7989 0.0
C992 C 0.25222 0.13408 0.82543 0.0
C993 C 0.24344 0.1566 0.83962 0.0
C994 C 0.95911 0.20482 0.82687 0.0
C995 C 0.93616 0.21925 0.81998 0.0
C996 C 0.98446 0.21474 0.82129 0.0
C997 C 0.98764 0.23902 0.80799 0.0
H998 H 0.95763 0.18677 0.83841 0.0
H999 H 1.00179 0.20411 0.82879 0.0
S1000 S 0.93365 0.28341 0.78408 0.0
N1001 N 0.91808 0.25836 0.79807 0.0
N1002 N 0.96561 0.27654 0.78687 0.0
C1003 C 0.96471 0.25271 0.7994 0.0
C1004 C 0.93897 0.24293 0.80558 0.0
C1005 C 0.83214 0.91865 0.79867 0.0
C1006 C 0.85866 0.92149 0.8089 0.0
C1007 C 0.81874 0.93996 0.7866 0.0
C1008 C 0.83132 0.96494 0.78408 0.0
H1009 H 0.82114 0.90027 0.80162 0.0
H1010 H 0.79775 0.9374 0.78086 0.0
S1011 S 0.90119 0.98222 0.80542 0.0
N1012 N 0.89765 0.95071 0.81389 0.0
N1013 N 0.8723 0.99087 0.79107 0.0
C1014 C 0.85837 0.96757 0.79235 0.0
C1015 C 0.8721 0.94578 0.80477 0.0
C1016 C 0.20509 0.09061 0.21001 0.0
C1017 C 0.22141 0.11357 0.21271 0.0
C1018 C 0.21397 0.0659 0.2192 0.0
C1019 C 0.23957 0.06298 0.23155 0.0
H1020 H 0.18478 0.092 0.20182 0.0
H1021 H 0.20005 0.04917 0.21798 0.0
S1022 S 0.29072 0.11665 0.24202 0.0
N1023 N 0.26503 0.1316 0.22716 0.0
N1024 N 0.28171 0.08506 0.24465 0.0
C1025 C 0.25675 0.08542 0.23288 0.0
C1026 C 0.24766 0.11074 0.22343 0.0
C1027 C 0.23983 0.9318 0.83199 0.0
C1028 C 0.23306 0.92513 0.85789 0.0
C1029 C 0.25581 0.95434 0.82727 0.0
C1030 C 0.26606 0.97082 0.84828 0.0
H1031 H 0.23329 0.91918 0.81532 0.0
H1032 H 0.26062 0.95863 0.80705 0.0
S1033 S 0.25131 0.96444 0.91912 0.0
N1034 N 0.23545 0.93887 0.9044 0.0
N1035 N 0.26636 0.98037 0.89545 0.0
C1036 C 0.25884 0.96489 0.87407 0.0
C1037 C 0.24214 0.94231 0.87888 0.0
C1038 C 0.17358 0.25389 0.88412 0.0
C1039 C 0.17489 0.22607 0.88179 0.0
C1040 C 0.1508 0.26752 0.87495 0.0
C1041 C 0.12866 0.2539 0.86275 0.0
H1042 H 0.19046 0.26533 0.89264 0.0
H1043 H 0.15068 0.28892 0.87687 0.0
S1044 S 0.12048 0.18114 0.85422 0.0
N1045 N 0.15068 0.18531 0.86846 0.0
N1046 N 0.10854 0.21123 0.85026 0.0
C1047 C 0.12941 0.22619 0.86066 0.0
C1048 C 0.15234 0.21221 0.87042 0.0
C1049 C 0.84893 0.15076 0.80595 0.0
C1050 C 0.85855 0.15617 0.83227 0.0
C1051 C 0.83349 0.12774 0.79955 0.0
C1052 C 0.82716 0.10908 0.81918 0.0
H1053 H 0.85288 0.16474 0.79028 0.0
H1054 H 0.82602 0.12483 0.77912 0.0
S1055 S 0.85028 0.1126 0.89059 0.0
N1056 N 0.86223 0.14018 0.87774 0.0
N1057 N 0.83383 0.09679 0.86576 0.0
C1058 C 0.83739 0.11395 0.84545 0.0
C1059 C 0.85292 0.13747 0.85196 0.0
C1060 C 0.92983 0.84133 0.81076 0.0
C1061 C 0.92652 0.85213 0.83614 0.0
C1062 C 0.95185 0.82578 0.80583 0.0
C1063 C 0.97144 0.8202 0.8261 0.0
H1064 H 0.91502 0.84451 0.79464 0.0
H1065 H 0.95338 0.81769 0.78607 0.0
S1066 S 0.97371 0.84583 0.89528 0.0
N1067 N 0.94595 0.85763 0.88128 0.0
N1068 N 0.98697 0.82818 0.87204 0.0
C1069 C 0.96865 0.83121 0.85141 0.0
C1070 C 0.94634 0.8472 0.85641 0.0
C1071 C 0.81516 0.92918 0.23157 0.0
C1072 C 0.824 0.9274 0.20567 0.0
C1073 C 0.80455 0.95271 0.24093 0.0
C1074 C 0.80214 0.97538 0.22476 0.0
H1075 H 0.81728 0.91253 0.24505 0.0
H1076 H 0.7996 0.95366 0.26155 0.0
S1077 S 0.82138 0.98109 0.15521 0.0
N1078 N 0.82865 0.95029 0.16364 0.0
N1079 N 0.80871 0.99448 0.18147 0.0
C1080 C 0.80967 0.97359 0.19848 0.0
C1081 C 0.82053 0.94959 0.18886 0.0
C1082 C 0.0876 0.83227 0.2118 0.0
C1083 C 0.10768 0.81482 0.20552 0.0
C1084 C 0.06486 0.82316 0.22386 0.0
C1085 C 0.06104 0.79617 0.22998 0.0
H1086 H 0.08996 0.85339 0.20835 0.0
H1087 H 0.05078 0.83765 0.2298 0.0
S1088 S 0.10599 0.74173 0.21494 0.0
N1089 N 0.12116 0.76874 0.20429 0.0
N1090 N 0.07802 0.75165 0.22682 0.0
C1091 C 0.07986 0.77812 0.22201 0.0
C1092 C 0.10328 0.78745 0.20981 0.0
C1093 C 0.92668 0.25128 0.19619 0.0
C1094 C 0.92361 0.22865 0.17973 0.0
C1095 C 0.95044 0.25621 0.21193 0.0
C1096 C 0.9717 0.23849 0.21183 0.0
H1097 H 0.91001 0.26414 0.19835 0.0
H1098 H 0.95133 0.27275 0.22574 0.0
S1099 S 0.97469 0.17863 0.16914 0.0
N1100 N 0.94472 0.19024 0.16204 0.0
N1101 N 0.98909 0.1993 0.19137 0.0
C1102 C 0.96947 0.21706 0.1938 0.0
C1103 C 0.94549 0.21217 0.17784 0.0
C1104 C 0.23619 0.75026 0.63739 0.0
C1105 C 0.23351 0.72253 0.63476 0.0
C1106 C 0.24601 0.76588 0.61701 0.0
C1107 C 0.25396 0.75444 0.59333 0.0
H1108 H 0.23072 0.76002 0.65538 0.0
H1109 H 0.24712 0.78723 0.6197 0.0
S1110 S 0.24974 0.6831 0.57562 0.0
N1111 N 0.23857 0.68441 0.60575 0.0
N1112 N 0.25787 0.71396 0.56794 0.0
C1113 C 0.25175 0.72681 0.59042 0.0
C1114 C 0.2413 0.71083 0.611 0.0
C1115 C 0.87773 0.75303 0.60108 0.0
C1116 C 0.86429 0.75255 0.62473 0.0
C1117 C 0.86539 0.76237 0.5772 0.0
C1118 C 0.8393 0.77201 0.57617 0.0
H1119 H 0.89737 0.74478 0.60071 0.0
H1120 H 0.87601 0.76104 0.5592 0.0
S1121 S 0.7967 0.77737 0.63356 0.0
N1122 N 0.82435 0.76415 0.64624 0.0
N1123 N 0.80128 0.78221 0.60173 0.0
C1124 C 0.82634 0.77317 0.60018 0.0
C1125 C 0.83877 0.76326 0.62434 0.0
C1126 C 0.88331 0.35386 0.64228 0.0
C1127 C 0.86484 0.36262 0.66015 0.0
C1128 C 0.87563 0.33703 0.62074 0.0
C1129 C 0.84906 0.32829 0.61589 0.0
H1130 H 0.90405 0.35995 0.64504 0.0
H1131 H 0.89064 0.33086 0.60769 0.0
S1132 S 0.79293 0.34451 0.65706 0.0
N1133 N 0.81872 0.36064 0.6717 0.0
N1134 N 0.80427 0.32925 0.63115 0.0
C1135 C 0.83026 0.33709 0.63336 0.0
C1136 C 0.83813 0.35419 0.65543 0.0
C1137 C 0.22346 0.33606 0.63665 0.0
C1138 C 0.21106 0.36053 0.63959 0.0
C1139 C 0.23798 0.33081 0.61431 0.0
C1140 C 0.24078 0.34988 0.59413 0.0
H1141 H 0.22285 0.32128 0.65221 0.0
H1142 H 0.2478 0.31199 0.6132 0.0
S1143 S 0.20928 0.41566 0.59071 0.0
N1144 N 0.20044 0.403 0.61916 0.0
N1145 N 0.22785 0.39317 0.57746 0.0
C1146 C 0.22761 0.37397 0.59635 0.0
C1147 C 0.21269 0.37925 0.61894 0.0
C1148 C 0.23661 0.33434 0.40348 0.0
C1149 C 0.20883 0.33683 0.40272 0.0
C1150 C 0.25087 0.32453 0.42606 0.0
C1151 C 0.2381 0.31641 0.44893 0.0
H1152 H 0.24757 0.34026 0.38654 0.0
H1153 H 0.27233 0.32388 0.42583 0.0
S1154 S 0.16579 0.31873 0.45768 0.0
N1155 N 0.16904 0.33028 0.42734 0.0
N1156 N 0.19603 0.31128 0.46942 0.0
C1157 C 0.21031 0.31791 0.44831 0.0
C1158 C 0.19567 0.32825 0.42534 0.0
C1159 C 0.21182 0.74105 0.4043 0.0
C1160 C 0.21473 0.71342 0.40732 0.0
C1161 C 0.2162 0.75847 0.4259 0.0
C1162 C 0.22392 0.74901 0.45134 0.0
H1163 H 0.20541 0.74919 0.38513 0.0
H1164 H 0.2136 0.77952 0.42268 0.0
S1165 S 0.23447 0.67864 0.46995 0.0
N1166 N 0.22593 0.6775 0.43776 0.0
N1167 N 0.2346 0.71034 0.4784 0.0
C1168 C 0.22764 0.72156 0.45455 0.0
C1169 C 0.22301 0.70375 0.43253 0.0
C1170 C 0.83152 0.67977 0.42736 0.0
C1171 C 0.83221 0.69515 0.40417 0.0
C1172 C 0.81931 0.68898 0.44983 0.0
C1173 C 0.80699 0.71383 0.44989 0.0
H1174 H 0.84058 0.66046 0.42815 0.0
H1175 H 0.81973 0.67658 0.46736 0.0
S1176 S 0.8016 0.76061 0.39288 0.0
N1177 N 0.8189 0.73581 0.38198 0.0
N1178 N 0.79508 0.75291 0.42371 0.0
C1179 C 0.80727 0.72922 0.42651 0.0
C1180 C 0.82007 0.71993 0.40378 0.0
C1181 C 0.85515 0.34807 0.44485 0.0
C1182 C 0.8381 0.34554 0.42183 0.0
C1183 C 0.84647 0.34146 0.46994 0.0
C1184 C 0.8204 0.33183 0.47317 0.0
H1185 H 0.87573 0.35426 0.44331 0.0
H1186 H 0.86085 0.34244 0.48684 0.0
S1187 S 0.76736 0.32327 0.41931 0.0
N1188 N 0.79336 0.33451 0.40391 0.0
N1189 N 0.7771 0.32161 0.4512 0.0
C1190 C 0.8026 0.33075 0.45054 0.0
C1191 C 0.81147 0.33767 0.42484 0.0
C1192 C 0.16737 0.73397 0.71572 0.0
C1193 C 0.16974 0.70736 0.7077 0.0
C1194 C 0.14623 0.74196 0.73071 0.0
C1195 C 0.12662 0.72367 0.73846 0.0
H1196 H 0.18226 0.7487 0.71082 0.0
H1197 H 0.14551 0.76255 0.73673 0.0
S1198 S 0.12189 0.65228 0.72017 0.0
N1199 N 0.14927 0.66316 0.70697 0.0
N1200 N 0.10992 0.67813 0.73527 0.0
C1201 C 0.1284 0.69714 0.7301 0.0
C1202 C 0.14982 0.68903 0.71472 0.0
C1203 C 0.85214 0.67152 0.71336 0.0
C1204 C 0.85896 0.67567 0.68694 0.0
C1205 C 0.83679 0.64908 0.72041 0.0
C1206 C 0.82768 0.62985 0.70135 0.0
H1207 H 0.85804 0.6861 0.72854 0.0
H1208 H 0.83143 0.64717 0.74081 0.0
S1209 S 0.84335 0.62962 0.63024 0.0
N1210 N 0.85745 0.65737 0.64223 0.0
N1211 N 0.82912 0.6154 0.6554 0.0
C1212 C 0.83535 0.63331 0.67512 0.0
C1213 C 0.85085 0.6561 0.66797 0.0
C1214 C 0.9341 0.37729 0.76424 0.0
C1215 C 0.93255 0.37757 0.73618 0.0
C1216 C 0.9569 0.36846 0.77874 0.0
C1217 C 0.97879 0.3593 0.7657 0.0
H1218 H 0.91733 0.38335 0.77508 0.0
H1219 H 0.95717 0.36802 0.80025 0.0
S1220 S 0.98625 0.3585 0.69303 0.0
N1221 N 0.9562 0.37006 0.69619 0.0
N1222 N 0.99847 0.35259 0.72356 0.0
C1223 C 0.97784 0.36001 0.73784 0.0
C1224 C 0.95488 0.36936 0.72305 0.0
C1225 C 0.21233 0.44663 0.70039 0.0
C1226 C 0.20968 0.4235 0.71568 0.0
C1227 C 0.22756 0.46845 0.71014 0.0
C1228 C 0.24045 0.46818 0.73568 0.0
H1229 H 0.20384 0.44727 0.68011 0.0
H1230 H 0.2306 0.48507 0.69694 0.0
S1231 S 0.23676 0.41415 0.78514 0.0
N1232 N 0.21901 0.40274 0.75874 0.0
N1233 N 0.24725 0.44424 0.77723 0.0
C1234 C 0.23595 0.44631 0.75216 0.0
C1235 C 0.22062 0.42383 0.74211 0.0
C1236 C 0.12565 0.32847 0.30832 0.0
C1237 C 0.1306 0.33489 0.33548 0.0
C1238 C 0.10228 0.31454 0.29916 0.0
C1239 C 0.08314 0.30651 0.31688 0.0
H1240 H 0.14042 0.33327 0.29423 0.0
H1241 H 0.09986 0.30888 0.27838 0.0
S1242 S 0.08458 0.32214 0.38902 0.0
N1243 N 0.11276 0.33498 0.37922 0.0
N1244 N 0.06936 0.30852 0.36224 0.0
C1245 C 0.08719 0.31415 0.34373 0.0
C1246 C 0.11077 0.32839 0.35297 0.0
C1247 C 0.25412 0.64499 0.33674 0.0
C1248 C 0.22784 0.63835 0.34267 0.0
C1249 C 0.27082 0.62624 0.32601 0.0
C1250 C 0.26225 0.59974 0.32102 0.0
H1251 H 0.26172 0.66511 0.33982 0.0
H1252 H 0.29057 0.63277 0.32119 0.0
S1253 S 0.19564 0.5716 0.3345 0.0
N1254 N 0.19436 0.603 0.34374 0.0
N1255 N 0.22566 0.56774 0.32382 0.0
C1256 C 0.23623 0.5926 0.3276 0.0
C1257 C 0.21907 0.61186 0.33824 0.0
C1258 C 0.90625 0.70183 0.31127 0.0
C1259 C 0.90406 0.69678 0.33864 0.0
C1260 C 0.92943 0.71362 0.30174 0.0
C1261 C 0.95122 0.72072 0.31927 0.0
H1262 H 0.8896 0.69739 0.29722 0.0
H1263 H 0.9298 0.7183 0.28078 0.0
S1264 S 0.95703 0.70826 0.39205 0.0
N1265 N 0.92684 0.69728 0.38254 0.0
N1266 N 0.97008 0.71952 0.36486 0.0
C1267 C 0.94971 0.71457 0.34643 0.0
C1268 C 0.92623 0.70263 0.35606 0.0
C1269 C 0.83988 0.41953 0.3435 0.0
C1270 C 0.8424 0.39343 0.33412 0.0
C1271 C 0.83404 0.44048 0.3259 0.0
C1272 C 0.83075 0.43618 0.29826 0.0
H1273 H 0.84316 0.42393 0.36452 0.0
H1274 H 0.83262 0.46034 0.33387 0.0
S1275 S 0.83198 0.37118 0.26388 0.0
N1276 N 0.83871 0.36415 0.29556 0.0
N1277 N 0.82812 0.40362 0.26258 0.0
C1278 C 0.83242 0.41012 0.2887 0.0
C1279 C 0.83813 0.38874 0.30659 0.0
C1280 C 0.27156 0.64408 0.69594 0.0
C1281 C 0.24353 0.64359 0.69396 0.0
C1282 C 0.28586 0.62101 0.70163 0.0
C1283 C 0.27268 0.59667 0.70578 0.0
H1284 H 0.28257 0.66249 0.69325 0.0
H1285 H 0.30737 0.62232 0.70339 0.0
S1286 S 0.19978 0.58419 0.70121 0.0
N1287 N 0.20325 0.61627 0.69532 0.0
N1288 N 0.23021 0.57306 0.70654 0.0
C1289 C 0.24474 0.5958 0.70373 0.0
C1290 C 0.23015 0.61923 0.69774 0.0
C1291 C 0.20365 0.40473 0.30052 0.0
C1292 C 0.20245 0.40519 0.32841 0.0
C1293 C 0.21296 0.42684 0.28648 0.0
C1294 C 0.22152 0.4505 0.29965 0.0
H1295 H 0.19745 0.38701 0.28939 0.0
H1296 H 0.21371 0.42526 0.26511 0.0
S1297 S 0.22069 0.46281 0.37233 0.0
N1298 N 0.20964 0.43185 0.36855 0.0
N1299 N 0.22698 0.47333 0.34227 0.0
C1300 C 0.22031 0.45131 0.32754 0.0
C1301 C 0.21085 0.42873 0.34185 0.0
C1302 C 0.12093 0.69067 0.35868 0.0
C1303 C 0.14198 0.69086 0.34148 0.0
C1304 C 0.09806 0.70558 0.3531 0.0
C1305 C 0.09514 0.721 0.32993 0.0
H1306 H 0.12307 0.68048 0.37759 0.0
H1307 H 0.08294 0.70583 0.36747 0.0
S1308 S 0.14363 0.72719 0.27772 0.0
N1309 N 0.15784 0.70696 0.29982 0.0
N1310 N 0.1145 0.73442 0.28893 0.0
C1311 C 0.11517 0.72 0.31169 0.0
C1312 C 0.13865 0.70502 0.31754 0.0
C1313 C 0.82974 0.62659 0.30347 0.0
C1314 C 0.83155 0.62707 0.33145 0.0
C1315 C 0.82038 0.60401 0.28942 0.0
C1316 C 0.8118 0.58119 0.3027 0.0
H1317 H 0.83606 0.64369 0.29226 0.0
H1318 H 0.82019 0.60431 0.2679 0.0
S1319 S 0.8116 0.57201 0.37556 0.0
N1320 N 0.82371 0.60246 0.37196 0.0
N1321 N 0.80488 0.56034 0.34515 0.0
C1322 C 0.81233 0.58157 0.33055 0.0
C1323 C 0.82246 0.60446 0.34502 0.0
C1324 C 0.90462 0.29299 0.35892 0.0
C1325 C 0.90583 0.32088 0.35726 0.0
C1326 C 0.92536 0.27743 0.35044 0.0
C1327 C 0.94802 0.28918 0.33988 0.0
H1328 H 0.88719 0.28308 0.36615 0.0
H1329 H 0.92336 0.25603 0.3515 0.0
S1330 S 0.96258 0.36141 0.33473 0.0
N1331 N 0.93282 0.3596 0.34669 0.0
N1332 N 0.97154 0.33041 0.33065 0.0
C1333 C 0.9499 0.31704 0.33903 0.0
C1334 C 0.9289 0.33286 0.34776 0.0
C1335 C 0.87038 0.46401 0.73118 0.0
C1336 C 0.8564 0.44015 0.724 0.0
C1337 C 0.85704 0.48679 0.73907 0.0
C1338 C 0.82924 0.48649 0.74009 0.0
H1339 H 0.89173 0.46538 0.72985 0.0
H1340 H 0.86837 0.50503 0.74312 0.0
S1341 S 0.78369 0.42849 0.72674 0.0
N1342 N 0.81337 0.41727 0.72119 0.0
N1343 N 0.78842 0.45994 0.73537 0.0
C1344 C 0.81522 0.46254 0.7341 0.0
C1345 C 0.82873 0.43944 0.72622 0.0
C1346 C 0.16071 0.33451 0.74411 0.0
C1347 C 0.15387 0.34016 0.71726 0.0
C1348 C 0.14235 0.32273 0.76045 0.0
C1349 C 0.11636 0.31584 0.75067 0.0
H1350 H 0.1801 0.34044 0.75292 0.0
H1351 H 0.14827 0.32 0.7813 0.0
S1352 S 0.08914 0.32412 0.6812 0.0
N1353 N 0.11987 0.33625 0.68104 0.0
N1354 N 0.08529 0.31367 0.71185 0.0
C1355 C 0.10976 0.31959 0.72341 0.0
C1356 C 0.12854 0.33185 0.70668 0.0
C1357 C 0.94456 0.76666 0.7017 0.0
C1358 C 0.93859 0.73986 0.69481 0.0
C1359 C 0.96927 0.77446 0.7145 0.0
C1360 C 0.98897 0.75574 0.72081 0.0
H1361 H 0.92966 0.78159 0.69803 0.0
H1362 H 0.97238 0.79494 0.7207 0.0
S1363 S 0.98498 0.68397 0.70366 0.0
N1364 N 0.95585 0.69534 0.69276 0.0
N1365 N 1.00174 0.70975 0.71692 0.0
C1366 C 0.98372 0.72923 0.71279 0.0
C1367 C 0.95873 0.72134 0.69981 0.0
C1368 C 0.72851 0.24269 0.62928 0.0
C1369 C 0.72255 0.21521 0.62724 0.0
C1370 C 0.73969 0.2567 0.60826 0.0
C1371 C 0.74502 0.2437 0.5845 0.0
H1372 H 0.72586 0.25309 0.64774 0.0
H1373 H 0.74586 0.27727 0.61134 0.0
S1374 S 0.7293 0.17322 0.56756 0.0
N1375 N 0.71986 0.17657 0.59819 0.0
N1376 N 0.74109 0.20267 0.55915 0.0
C1377 C 0.73747 0.21679 0.58163 0.0
C1378 C 0.72618 0.2026 0.60285 0.0
C1379 C 0.33388 0.25847 0.63149 0.0
C1380 C 0.33992 0.23137 0.63182 0.0
C1381 C 0.32 0.26991 0.6096 0.0
C1382 C 0.31147 0.25488 0.58691 0.0
H1383 H 0.34085 0.27121 0.64793 0.0
H1384 H 0.31706 0.29115 0.60993 0.0
S1385 S 0.32029 0.18262 0.57845 0.0
N1386 N 0.33462 0.18926 0.60821 0.0
N1387 N 0.30856 0.211 0.56685 0.0
C1388 C 0.31581 0.22742 0.58756 0.0
C1389 C 0.33004 0.21563 0.61005 0.0
C1390 C 0.33084 0.85474 0.65044 0.0
C1391 C 0.33991 0.88119 0.65367 0.0
C1392 C 0.31693 0.84629 0.62681 0.0
C1393 C 0.31153 0.86399 0.60562 0.0
H1394 H 0.33365 0.84074 0.66661 0.0
H1395 H 0.30971 0.82591 0.62538 0.0
S1396 S 0.33386 0.93445 0.60297 0.0
N1397 N 0.34456 0.92443 0.63285 0.0
N1398 N 0.31834 0.9085 0.58859 0.0
C1399 C 0.32131 0.89021 0.60826 0.0
C1400 C 0.33557 0.89879 0.63222 0.0
C1401 C 0.69214 0.79918 0.64489 0.0
C1402 C 0.68961 0.82698 0.64591 0.0
C1403 C 0.70146 0.78656 0.62248 0.0
C1404 C 0.70886 0.80121 0.60027 0.0
H1405 H 0.68702 0.78705 0.66164 0.0
H1406 H 0.70326 0.76518 0.62266 0.0
S1407 S 0.70424 0.87408 0.5918 0.0
N1408 N 0.69392 0.86852 0.62182 0.0
N1409 N 0.71195 0.84479 0.58009 0.0
C1410 C 0.70635 0.82893 0.6009 0.0
C1411 C 0.69663 0.8418 0.6236 0.0
C1412 C 0.72685 0.85535 0.43118 0.0
C1413 C 0.71864 0.84181 0.4074 0.0
C1414 C 0.73674 0.8416 0.4539 0.0
C1415 C 0.73854 0.8138 0.45371 0.0
H1416 H 0.72509 0.8767 0.43242 0.0
H1417 H 0.74217 0.85269 0.47194 0.0
S1418 S 0.72321 0.76934 0.39567 0.0
N1419 N 0.71585 0.79922 0.3845 0.0
N1420 N 0.73352 0.77346 0.42717 0.0
C1421 C 0.73128 0.80016 0.42986 0.0
C1422 C 0.72155 0.81412 0.40674 0.0
C1423 C 0.73559 0.23291 0.40952 0.0
C1424 C 0.72899 0.20593 0.40482 0.0
C1425 C 0.75164 0.24106 0.43207 0.0
C1426 C 0.76186 0.22259 0.45083 0.0
H1427 H 0.72869 0.24782 0.39542 0.0
H1428 H 0.75642 0.26199 0.43468 0.0
S1429 S 0.74813 0.14996 0.44945 0.0
N1430 N 0.73233 0.16098 0.42212 0.0
N1431 N 0.76259 0.17632 0.4641 0.0
C1432 C 0.75499 0.19565 0.44667 0.0
C1433 C 0.73854 0.18735 0.42383 0.0
C1434 C 0.32907 0.22903 0.40788 0.0
C1435 C 0.35533 0.22103 0.40522 0.0
C1436 C 0.32279 0.2464 0.42825 0.0
C1437 C 0.34248 0.25651 0.44689 0.0
H1438 H 0.31325 0.22201 0.39392 0.0
H1439 H 0.30231 0.2521 0.42934 0.0
S1440 S 0.41405 0.24059 0.44961 0.0
N1441 N 0.40109 0.22387 0.42354 0.0
N1442 N 0.3892 0.25652 0.46182 0.0
C1443 C 0.36882 0.24871 0.44448 0.0
C1444 C 0.37525 0.23096 0.4237 0.0
C1445 C 0.31933 0.83947 0.41835 0.0
C1446 C 0.34719 0.8421 0.41968 0.0
C1447 C 0.30582 0.83013 0.44004 0.0
C1448 C 0.31952 0.82275 0.46401 0.0
H1449 H 0.30776 0.84493 0.40043 0.0
H1450 H 0.28428 0.82917 0.43817 0.0
S1451 S 0.3925 0.82526 0.47792 0.0
N1452 N 0.38815 0.83617 0.44707 0.0
N1453 N 0.36248 0.81806 0.48773 0.0
C1454 C 0.34738 0.82427 0.46545 0.0
C1455 C 0.36127 0.83409 0.44333 0.0
C1456 C 0.63763 0.18222 0.70129 0.0
C1457 C 0.65917 0.2003 0.6998 0.0
C1458 C 0.61543 0.18833 0.71549 0.0
C1459 C 0.61388 0.21269 0.72899 0.0
H1460 H 0.63792 0.16319 0.69129 0.0
H1461 H 0.59923 0.17387 0.71567 0.0
S1462 S 0.66614 0.26604 0.73291 0.0
N1463 N 0.67814 0.24314 0.71374 0.0
N1464 N 0.63681 0.25447 0.741 0.0
C1465 C 0.6355 0.23088 0.72786 0.0
C1466 C 0.65801 0.22471 0.71313 0.0
C1467 C 0.33853 0.16668 0.72024 0.0
C1468 C 0.36277 0.16772 0.70779 0.0
C1469 C 0.33351 0.14723 0.73944 0.0
C1470 C 0.35261 0.12823 0.74706 0.0
H1471 H 0.3237 0.18152 0.7158 0.0
H1472 H 0.3148 0.14746 0.74892 0.0
S1473 S 0.41771 0.12018 0.71792 0.0
N1474 N 0.40496 0.14636 0.70262 0.0
N1475 N 0.3956 0.11022 0.73886 0.0
C1476 C 0.37648 0.12847 0.73408 0.0
C1477 C 0.38151 0.14806 0.7144 0.0
C1478 C 0.40524 0.87153 0.7619 0.0
C1479 C 0.40551 0.87472 0.73407 0.0
C1480 C 0.42662 0.86019 0.7768 0.0
C1481 C 0.4491 0.85119 0.76454 0.0
H1482 H 0.38826 0.87771 0.77235 0.0
H1483 H 0.42541 0.85813 0.79808 0.0
S1484 S 0.46091 0.85624 0.69276 0.0
N1485 N 0.43126 0.86901 0.6952 0.0
N1486 N 0.47089 0.84707 0.72314 0.0
C1487 C 0.44974 0.85416 0.73682 0.0
C1488 C 0.42812 0.86602 0.72163 0.0
C1489 C 0.71901 0.90401 0.72012 0.0
C1490 C 0.69142 0.90113 0.71403 0.0
C1491 C 0.73019 0.92755 0.73161 0.0
C1492 C 0.71423 0.94913 0.73754 0.0
H1493 H 0.73202 0.88775 0.71647 0.0
H1494 H 0.75142 0.92867 0.73641 0.0
S1495 S 0.64143 0.95302 0.72255 0.0
N1496 N 0.64881 0.92292 0.71278 0.0
N1497 N 0.66973 0.96682 0.73442 0.0
C1498 C 0.68676 0.94677 0.73089 0.0
C1499 C 0.67541 0.92291 0.71913 0.0
C1500 C 0.6529 0.82051 0.32277 0.0
C1501 C 0.65266 0.84779 0.32875 0.0
C1502 C 0.63036 0.80717 0.31125 0.0
C1503 C 0.60651 0.82043 0.30496 0.0
H1504 H 0.6704 0.8091 0.32805 0.0
H1505 H 0.63124 0.78588 0.30839 0.0
S1506 S 0.59583 0.89224 0.31448 0.0
N1507 N 0.62695 0.88806 0.32579 0.0
N1508 N 0.58447 0.86277 0.30398 0.0
C1509 C 0.60637 0.84801 0.30916 0.0
C1510 C 0.62948 0.86173 0.32106 0.0
C1511 C 0.71718 0.14218 0.30092 0.0
C1512 C 0.71395 0.14199 0.32856 0.0
C1513 C 0.72841 0.12049 0.28816 0.0
C1514 C 0.73652 0.09794 0.30268 0.0
H1515 H 0.71238 0.15974 0.28938 0.0
H1516 H 0.73238 0.12214 0.26733 0.0
S1517 S 0.72844 0.08591 0.37439 0.0
N1518 N 0.71677 0.11593 0.36912 0.0
N1519 N 0.73798 0.07563 0.34539 0.0
C1520 C 0.73164 0.09687 0.32984 0.0
C1521 C 0.72031 0.11875 0.34272 0.0
C1522 C 0.42907 0.18092 0.3226 0.0
C1523 C 0.4096 0.19947 0.32799 0.0
C1524 C 0.45073 0.18794 0.30754 0.0
C1525 C 0.45377 0.21378 0.29741 0.0
H1526 H 0.42795 0.16104 0.33068 0.0
H1527 H 0.46564 0.17329 0.30447 0.0
S1528 S 0.40644 0.26854 0.3027 0.0
N1529 N 0.39346 0.24399 0.3197 0.0
N1530 N 0.43422 0.25715 0.29169 0.0
C1531 C 0.43396 0.23218 0.30182 0.0
C1532 C 0.41187 0.22503 0.31701 0.0
C1533 C 0.34359 0.91107 0.32032 0.0
C1534 C 0.35169 0.91092 0.34766 0.0
C1535 C 0.32957 0.9326 0.30877 0.0
C1536 C 0.32327 0.95467 0.3242 0.0
H1537 H 0.34682 0.89384 0.30813 0.0
H1538 H 0.3222 0.93117 0.28815 0.0
S1539 S 0.34397 0.96595 0.39538 0.0
N1540 N 0.35533 0.93633 0.38877 0.0
N1541 N 0.32902 0.97633 0.36734 0.0
C1542 C 0.33295 0.95546 0.351 0.0
C1543 C 0.34714 0.93374 0.36265 0.0
C1544 C 0.71397 0.11213 0.68997 0.0
C1545 C 0.7303 0.13482 0.687 0.0
C1546 C 0.72402 0.08891 0.70162 0.0
C1547 C 0.75091 0.08717 0.71057 0.0
H1548 H 0.6929 0.11274 0.68433 0.0
H1549 H 0.71026 0.07257 0.70493 0.0
S1550 S 0.80254 0.14019 0.70597 0.0
N1551 N 0.77518 0.15355 0.69268 0.0
N1552 N 0.79409 0.1096 0.71443 0.0
C1553 C 0.76792 0.109 0.7062 0.0
C1554 C 0.75761 0.13288 0.69442 0.0
C1555 C 0.71457 0.94014 0.3359 0.0
C1556 C 0.72749 0.91641 0.34268 0.0
C1557 C 0.72904 0.96298 0.32884 0.0
C1558 C 0.75696 0.96299 0.32846 0.0
H1559 H 0.69317 0.94122 0.33651 0.0
H1560 H 0.71837 0.9809 0.32393 0.0
S1561 S 0.79997 0.90516 0.34138 0.0
N1562 N 0.76969 0.89378 0.34629 0.0
N1563 N 0.79672 0.93673 0.33337 0.0
C1564 C 0.77005 0.93927 0.33458 0.0
C1565 C 0.75535 0.91599 0.34156 0.0
C1566 C 0.64532 0.24003 0.33516 0.0
C1567 C 0.6473 0.21283 0.34141 0.0
C1568 C 0.62145 0.2504 0.32369 0.0
C1569 C 0.59886 0.23386 0.31821 0.0
H1570 H 0.66269 0.25303 0.33775 0.0
H1571 H 0.62123 0.27098 0.31749 0.0
S1572 S 0.59253 0.16241 0.33491 0.0
N1573 N 0.62359 0.17056 0.34437 0.0
N1574 N 0.5792 0.18979 0.32271 0.0
C1575 C 0.60018 0.20716 0.32614 0.0
C1576 C 0.62425 0.19671 0.33777 0.0
C1577 C 0.30728 0.13841 0.34961 0.0
C1578 C 0.33521 0.1373 0.35224 0.0
C1579 C 0.29145 0.11551 0.344 0.0
C1580 C 0.30288 0.09049 0.34092 0.0
H1581 H 0.2976 0.15727 0.35133 0.0
H1582 H 0.27013 0.11757 0.34141 0.0
S1583 S 0.37492 0.07642 0.34885 0.0
N1584 N 0.37351 0.10884 0.35315 0.0
N1585 N 0.34386 0.06583 0.34305 0.0
C1586 C 0.33075 0.08902 0.34429 0.0
C1587 C 0.34686 0.11237 0.34983 0.0
C1588 C 0.43987 0.83142 0.37385 0.0
C1589 C 0.41875 0.83746 0.35537 0.0
C1590 C 0.46177 0.81712 0.36629 0.0
C1591 C 0.46345 0.80838 0.33995 0.0
H1592 H 0.43944 0.83781 0.39437 0.0
H1593 H 0.47767 0.81314 0.38108 0.0
S1594 S 0.41243 0.81712 0.28447 0.0
N1595 N 0.40028 0.83243 0.30993 0.0
N1596 N 0.44138 0.80555 0.29568 0.0
C1597 C 0.44236 0.81409 0.32132 0.0
C1598 C 0.42006 0.82866 0.32903 0.0
C1599 C 0.33245 0.96923 0.71209 0.0
C1600 C 0.33673 0.94619 0.72755 0.0
C1601 C 0.32225 0.99227 0.72309 0.0
C1602 C 0.31567 0.99281 0.74974 0.0
H1603 H 0.33824 0.96986 0.69173 0.0
H1604 H 0.32115 1.01017 0.71123 0.0
S1605 S 0.32041 0.93716 0.79777 0.0
N1606 N 0.33128 0.92483 0.77014 0.0
N1607 N 0.31263 0.96815 0.79084 0.0
C1608 C 0.3185 0.96953 0.76489 0.0
C1609 C 0.32891 0.94621 0.75381 0.0
C1610 C 0.5997 0.84626 0.71901 0.0
C1611 C 0.62062 0.8293 0.71402 0.0
C1612 C 0.57776 0.83729 0.73251 0.0
C1613 C 0.57562 0.81093 0.74143 0.0
H1614 H 0.6007 0.86694 0.71318 0.0
H1615 H 0.56283 0.85149 0.73706 0.0
S1616 S 0.6243 0.75813 0.73254 0.0
N1617 N 0.63729 0.78446 0.7182 0.0
N1618 N 0.59575 0.76761 0.7435 0.0
C1619 C 0.5956 0.7933 0.73537 0.0
C1620 C 0.61816 0.80249 0.72168 0.0
C1621 C 0.4495 0.23 0.67602 0.0
C1622 C 0.4266 0.23992 0.68663 0.0
C1623 C 0.47498 0.23831 0.68598 0.0
C1624 C 0.47857 0.25666 0.70719 0.0
H1625 H 0.44771 0.21467 0.66086 0.0
H1626 H 0.49196 0.22912 0.67787 0.0
S1627 S 0.42436 0.29022 0.74008 0.0
N1628 N 0.40869 0.27029 0.71794 0.0
N1629 N 0.45643 0.28611 0.7368 0.0
C1630 C 0.45561 0.26791 0.71681 0.0
C1631 C 0.42968 0.25941 0.70658 0.0
C1632 C 0.73359 0.73901 0.12844 0.0
C1633 C 0.7075 0.7292 0.13064 0.0
C1634 C 0.74 0.7559 0.10758 0.0
C1635 C 0.72063 0.76355 0.08786 0.0
H1636 H 0.74921 0.73365 0.14307 0.0
H1637 H 0.76036 0.76304 0.1069 0.0
S1638 S 0.64942 0.74275 0.08425 0.0
N1639 N 0.66211 0.72822 0.11138 0.0
N1640 N 0.67423 0.75965 0.07184 0.0
C1641 C 0.69436 0.7541 0.08999 0.0
C1642 C 0.6878 0.73699 0.11141 0.0
C1643 C 0.37223 0.73642 0.10767 0.0
C1644 C 0.35616 0.73089 0.12898 0.0
C1645 C 0.36147 0.74732 0.08376 0.0
C1646 C 0.33441 0.75372 0.0805 0.0
H1647 H 0.39304 0.73135 0.10912 0.0
H1648 H 0.37432 0.75023 0.06748 0.0
S1649 S 0.28417 0.74379 0.13075 0.0
N1650 N 0.31208 0.73332 0.1456 0.0
N1651 N 0.29191 0.75393 0.10098 0.0
C1652 C 0.31838 0.74913 0.10207 0.0
C1653 C 0.32924 0.73767 0.12619 0.0
C1654 C 0.37461 0.34435 0.14896 0.0
C1655 C 0.36042 0.35237 0.1709 0.0
C1656 C 0.36179 0.33128 0.12671 0.0
C1657 C 0.33427 0.32586 0.12552 0.0
H1658 H 0.39569 0.34889 0.14861 0.0
H1659 H 0.37325 0.32648 0.10991 0.0
S1660 S 0.28856 0.33931 0.17878 0.0
N1661 N 0.31767 0.35113 0.19078 0.0
N1662 N 0.29366 0.32744 0.149 0.0
C1663 C 0.32011 0.33279 0.14767 0.0
C1664 C 0.33311 0.34582 0.1703 0.0
C1665 C 0.73014 0.38492 0.11046 0.0
C1666 C 0.7267 0.36466 0.12933 0.0
C1667 C 0.74625 0.38143 0.08895 0.0
C1668 C 0.75939 0.3575 0.0854 0.0
H1669 H 0.72006 0.40355 0.11216 0.0
H1670 H 0.74797 0.39731 0.07465 0.0
S1671 S 0.75944 0.29937 0.1305 0.0
N1672 N 0.73959 0.32056 0.14396 0.0
N1673 N 0.76951 0.31398 0.10345 0.0
C1674 C 0.75661 0.33732 0.10436 0.0
C1675 C 0.74034 0.34088 0.1263 0.0
C1676 C 0.72645 0.32992 0.8962 0.0
C1677 C 0.72101 0.35705 0.89174 0.0
C1678 C 0.7395 0.32114 0.92011 0.0
C1679 C 0.74768 0.33917 0.94049 0.0
H1680 H 0.7212 0.31538 0.88079 0.0
H1681 H 0.74423 0.30035 0.92213 0.0
S1682 S 0.73558 0.41165 0.94035 0.0
N1683 N 0.72284 0.40129 0.91108 0.0
N1684 N 0.74763 0.38506 0.95544 0.0
C1685 C 0.74152 0.36612 0.93666 0.0
C1686 C 0.7282 0.37499 0.91249 0.0
C1687 C 0.74784 0.70928 0.93734 0.0
C1688 C 0.74612 0.7197 0.91139 0.0
C1689 C 0.75868 0.72465 0.95894 0.0
C1690 C 0.76802 0.75078 0.95504 0.0
H1691 H 0.73911 0.68993 0.94119 0.0
H1692 H 0.7577 0.71689 0.97891 0.0
S1693 S 0.7703 0.78594 0.89064 0.0
N1694 N 0.75666 0.75664 0.88278 0.0
N1695 N 0.77675 0.78548 0.92318 0.0
C1696 C 0.76804 0.76055 0.92895 0.0
C1697 C 0.75713 0.74501 0.90713 0.0
C1698 C 0.33472 0.71709 0.91107 0.0
C1699 C 0.34731 0.69248 0.91114 0.0
C1700 C 0.31894 0.72431 0.93189 0.0
C1701 C 0.31522 0.70722 0.95359 0.0
H1702 H 0.33634 0.73044 0.89438 0.0
H1703 H 0.30901 0.74313 0.93064 0.0
S1704 S 0.34682 0.64192 0.9645 0.0
N1705 N 0.35676 0.6519 0.93545 0.0
N1706 N 0.32776 0.66561 0.97481 0.0
C1707 C 0.32865 0.683 0.9543 0.0
C1708 C 0.34454 0.67563 0.93305 0.0
C1709 C 0.32782 0.34215 0.92551 0.0
C1710 C 0.35585 0.34269 0.92692 0.0
C1711 C 0.31347 0.3394 0.94848 0.0
C1712 C 0.32654 0.33707 0.97385 0.0
H1713 H 0.31683 0.34365 0.90642 0.0
H1714 H 0.29197 0.33859 0.94628 0.0
S1715 S 0.3996 0.33952 0.98874 0.0
N1716 N 0.39607 0.34206 0.95604 0.0
N1717 N 0.3692 0.33693 0.99909 0.0
C1718 C 0.35455 0.33791 0.97558 0.0
C1719 C 0.36915 0.34069 0.95219 0.0
C1720 C 0.6362 0.68706 0.21582 0.0
C1721 C 0.65575 0.70627 0.21004 0.0
C1722 C 0.61593 0.69291 0.23274 0.0
C1723 C 0.61454 0.71814 0.24448 0.0
H1724 H 0.63626 0.66757 0.20672 0.0
H1725 H 0.60081 0.67788 0.23603 0.0
S1726 S 0.66305 0.77404 0.23876 0.0
N1727 N 0.67382 0.75064 0.21937 0.0
N1728 N 0.63597 0.76153 0.25128 0.0
C1729 C 0.63459 0.73712 0.2397 0.0
C1730 C 0.65511 0.73122 0.22245 0.0
C1731 C 0.32129 0.65853 0.19723 0.0
C1732 C 0.3491 0.65764 0.19594 0.0
C1733 C 0.30629 0.63645 0.20532 0.0
C1734 C 0.31829 0.61224 0.21247 0.0
H1735 H 0.31094 0.67658 0.19201 0.0
H1736 H 0.28505 0.63853 0.20621 0.0
S1737 S 0.39042 0.59898 0.21156 0.0
N1738 N 0.38804 0.63025 0.20207 0.0
N1739 N 0.3599 0.58871 0.21706 0.0
C1740 C 0.34614 0.61106 0.21139 0.0
C1741 C 0.36148 0.6337 0.20321 0.0
C1742 C 0.45824 0.35838 0.21825 0.0
C1743 C 0.43858 0.36143 0.23659 0.0
C1744 C 0.48093 0.34351 0.22446 0.0
C1745 C 0.48511 0.3311 0.24933 0.0
H1746 H 0.45531 0.3663 0.19832 0.0
H1747 H 0.49464 0.34051 0.20903 0.0
S1748 S 0.44111 0.33535 0.30548 0.0
N1749 N 0.42582 0.35272 0.28155 0.0
N1750 N 0.46874 0.3248 0.29333 0.0
C1751 C 0.46669 0.33568 0.26866 0.0
C1752 C 0.44336 0.35084 0.26225 0.0
C1753 C 0.69697 0.44647 0.19227 0.0
C1754 C 0.70265 0.4222 0.20474 0.0
C1755 C 0.70301 0.47064 0.2053 0.0
C1756 C 0.71548 0.47147 0.23115 0.0
H1757 H 0.68842 0.44675 0.17201 0.0
H1758 H 0.69913 0.48878 0.19438 0.0
S1759 S 0.73272 0.41283 0.27293 0.0
N1760 N 0.71967 0.40003 0.24474 0.0
N1761 N 0.73153 0.44537 0.26933 0.0
C1762 C 0.72002 0.44712 0.2443 0.0
C1763 C 0.71355 0.42251 0.23104 0.0
C1764 C 0.62429 0.35394 0.8119 0.0
C1765 C 0.649 0.34274 0.8195 0.0
C1766 C 0.60241 0.33793 0.80246 0.0
C1767 C 0.60456 0.31022 0.80048 0.0
H1768 H 0.62162 0.37509 0.81407 0.0
H1769 H 0.58349 0.34714 0.79775 0.0
S1770 S 0.66592 0.27177 0.81369 0.0
N1771 N 0.675 0.30269 0.82123 0.0
N1772 N 0.63405 0.2727 0.80409 0.0
C1773 C 0.6295 0.29905 0.80672 0.0
C1774 C 0.65166 0.31526 0.81609 0.0
C1775 C 0.74703 0.63247 0.847 0.0
C1776 C 0.73385 0.65464 0.83575 0.0
C1777 C 0.7575 0.61273 0.83094 0.0
C1778 C 0.75514 0.61441 0.80302 0.0
H1779 H 0.74878 0.63007 0.8684 0.0
H1780 H 0.76669 0.59567 0.84041 0.0
S1781 S 0.72586 0.67016 0.76377 0.0
N1782 N 0.72161 0.6782 0.79498 0.0
N1783 N 0.74079 0.64133 0.76496 0.0
C1784 C 0.74294 0.63699 0.79164 0.0
C1785 C 0.73241 0.65699 0.80791 0.0
C1786 C 0.41624 0.73272 0.84292 0.0
C1787 C 0.41763 0.70488 0.84424 0.0
C1788 C 0.43708 0.74828 0.83353 0.0
C1789 C 0.46012 0.73677 0.82455 0.0
H1790 H 0.39891 0.7427 0.84931 0.0
H1791 H 0.43525 0.76967 0.83357 0.0
S1792 S 0.47438 0.66502 0.82408 0.0
N1793 N 0.4447 0.66651 0.83616 0.0
N1794 N 0.4833 0.69596 0.81755 0.0
C1795 C 0.46168 0.70902 0.82503 0.0
C1796 C 0.4406 0.69305 0.83509 0.0
C1797 C 0.38862 0.41107 0.83387 0.0
C1798 C 0.36907 0.39326 0.84259 0.0
C1799 C 0.38206 0.43133 0.8157 0.0
C1800 C 0.35571 0.43456 0.80556 0.0
H1801 H 0.40913 0.40949 0.84136 0.0
H1802 H 0.39765 0.44487 0.80994 0.0
S1803 S 0.29767 0.39158 0.82016 0.0
N1804 N 0.32263 0.37917 0.83852 0.0
N1805 N 0.31027 0.41713 0.8043 0.0
C1806 C 0.33606 0.41658 0.81377 0.0
C1807 C 0.34275 0.396 0.8323 0.0
C1808 C 0.7282 0.6265 0.16627 0.0
C1809 C 0.72878 0.64778 0.1844 0.0
C1810 C 0.74173 0.60298 0.17249 0.0
C1811 C 0.75639 0.60007 0.19701 0.0
H1812 H 0.71641 0.62767 0.1476 0.0
H1813 H 0.7398 0.58662 0.15852 0.0
S1814 S 0.76734 0.65184 0.24935 0.0
N1815 N 0.74711 0.66559 0.22656 0.0
N1816 N 0.77313 0.6219 0.23799 0.0
C1817 C 0.75829 0.62192 0.21455 0.0
C1818 C 0.74433 0.64564 0.20833 0.0
C1819 C 0.71967 0.445 0.82764 0.0
C1820 C 0.71177 0.42147 0.81379 0.0
C1821 C 0.72703 0.46824 0.81408 0.0
C1822 C 0.72647 0.46909 0.78609 0.0
H1823 H 0.71965 0.44567 0.84913 0.0
H1824 H 0.7327 0.48589 0.82554 0.0
S1825 S 0.71063 0.41238 0.74043 0.0
N1826 N 0.70664 0.40009 0.77032 0.0
N1827 N 0.71937 0.4439 0.74512 0.0
C1828 C 0.71926 0.44566 0.77203 0.0
C1829 C 0.71222 0.42188 0.78578 0.0
C1830 C 0.6525 0.72717 0.83161 0.0
C1831 C 0.66014 0.7174 0.85707 0.0
C1832 C 0.62846 0.74072 0.82678 0.0
C1833 C 0.61109 0.74507 0.84723 0.0
H1834 H 0.66562 0.72516 0.81551 0.0
H1835 H 0.62383 0.74853 0.80707 0.0
S1836 S 0.62011 0.72006 0.91644 0.0
N1837 N 0.64712 0.71083 0.90227 0.0
N1838 N 0.60217 0.73589 0.89324 0.0
C1839 C 0.61801 0.73434 0.87245 0.0
C1840 C 0.64241 0.72062 0.87733 0.0
C1841 C 0.35101 0.62544 0.81053 0.0
C1842 C 0.35397 0.62603 0.83847 0.0
C1843 C 0.34225 0.60237 0.79688 0.0
C1844 C 0.33561 0.57913 0.8106 0.0
H1845 H 0.35559 0.64292 0.79903 0.0
H1846 H 0.34087 0.60266 0.77532 0.0
S1847 S 0.33991 0.56974 0.88354 0.0
N1848 N 0.34991 0.60083 0.87938 0.0
N1849 N 0.33234 0.55778 0.85339 0.0
C1850 C 0.3377 0.57944 0.83844 0.0
C1851 C 0.34714 0.60283 0.85246 0.0
C1852 C 0.45182 0.33066 0.85772 0.0
C1853 C 0.42857 0.31813 0.86626 0.0
C1854 C 0.47206 0.31605 0.84715 0.0
C1855 C 0.47011 0.28826 0.84491 0.0
H1856 H 0.45407 0.35209 0.85852 0.0
H1857 H 0.48924 0.32663 0.84024 0.0
S1858 S 0.41386 0.24566 0.865 0.0
N1859 N 0.40512 0.2761 0.87227 0.0
N1860 N 0.44345 0.2486 0.85274 0.0
C1861 C 0.44755 0.2753 0.85438 0.0
C1862 C 0.42675 0.29024 0.86501 0.0
C1863 C 0.33439 0.42403 0.24351 0.0
C1864 C 0.36189 0.4257 0.23994 0.0
C1865 C 0.3202 0.44623 0.25108 0.0
C1866 C 0.33279 0.47115 0.25584 0.0
H1867 H 0.32346 0.40555 0.23953 0.0
H1868 H 0.29884 0.44412 0.25212 0.0
S1869 S 0.40451 0.48639 0.25055 0.0
N1870 N 0.40136 0.45454 0.2428 0.0
N1871 N 0.37455 0.49609 0.25735 0.0
C1872 C 0.36045 0.47296 0.25372 0.0
C1873 C 0.37501 0.45029 0.24578 0.0
C1874 C 0.63523 0.32608 0.17294 0.0
C1875 C 0.65648 0.33411 0.19076 0.0
C1876 C 0.61437 0.30975 0.18132 0.0
C1877 C 0.61406 0.30084 0.2078 0.0
H1878 H 0.63419 0.33333 0.15267 0.0
H1879 H 0.59787 0.30491 0.16725 0.0
S1880 S 0.66723 0.31297 0.261 0.0
N1881 N 0.67735 0.3298 0.23524 0.0
N1882 N 0.63851 0.29881 0.25087 0.0
C1883 C 0.63597 0.3076 0.22538 0.0
C1884 C 0.65707 0.32429 0.21688 0.0
C1885 C 0.4467 0.7356 0.19409 0.0
C1886 C 0.42355 0.72743 0.20665 0.0
C1887 C 0.46925 0.74624 0.20879 0.0
C1888 C 0.46942 0.74908 0.23657 0.0
H1889 H 0.44771 0.73295 0.17283 0.0
H1890 H 0.48701 0.75104 0.19855 0.0
S1891 S 0.41283 0.73459 0.27853 0.0
N1892 N 0.40149 0.72601 0.24821 0.0
N1893 N 0.44374 0.74523 0.2757 0.0
C1894 C 0.44602 0.74221 0.24911 0.0
C1895 C 0.42316 0.73159 0.23423 0.0
loop_
_geom_bond_atom_site_label_1
_geom_bond_atom_site_label_2
_geom_bond_distance
_geom_bond_site_symmetry_2
_ccdc_geom_bond_type
H0 C3 0.931 . S
H1 C6 0.928 . S
H2 C8 0.930 . S
C3 H0 0.931 . S
C3 C4 1.413 . S
C3 C5 1.360 . S
C4 C3 1.413 . S
C4 C8 1.429 . S
C5 C3 1.360 . S
C5 C6 1.372 . S
C6 H1 0.928 . S
C6 C5 1.372 . S
C6 C7 1.404 . S
C7 C6 1.404 . S
C7 C8 1.391 . S
C8 H2 0.930 . S
C8 C4 1.429 . S
C8 C7 1.391 . S
H9 C12 0.931 . S
H10 C15 0.928 . S
H11 C17 0.930 . S
C12 H9 0.931 . S
C12 C13 1.413 . S
C12 C14 1.360 . S
C13 C12 1.413 . S
C13 C17 1.429 . S
C14 C12 1.360 . S
C14 C15 1.372 . S
C15 H10 0.928 . S
C15 C14 1.372 . S
C15 C16 1.404 . S
C16 C15 1.404 . S
C16 C17 1.391 . S
C17 H11 0.930 . S
C17 C13 1.429 . S
C17 C16 1.391 . S
H18 C21 0.931 . S
H19 C24 0.928 . S
H20 C26 0.930 . S
C21 H18 0.931 . S
C21 C22 1.413 . S
C21 C23 1.360 . S
C22 C21 1.413 . S
C22 C26 1.429 . S
C23 C21 1.360 . S
C23 C24 1.372 . S
C24 H19 0.928 . S
C24 C23 1.372 . S
C24 C25 1.404 . S
C25 C24 1.404 . S
C25 C26 1.391 . S
C26 H20 0.930 . S
C26 C22 1.429 . S
C26 C25 1.391 . S
H27 C30 0.931 . S
H28 C33 0.928 . S
H29 C35 0.930 . S
C30 H27 0.931 . S
C30 C31 1.413 . S
C30 C32 1.360 . S
C31 C30 1.413 . S
C31 C35 1.429 . S
C32 C30 1.360 . S
C32 C33 1.372 . S
C33 H28 0.928 . S
C33 C32 1.372 . S
C33 C34 1.404 . S
C34 C33 1.404 . S
C34 C35 1.391 . S
C35 H29 0.930 . S
C35 C31 1.429 . S
C35 C34 1.391 . S
H36 C39 0.931 . S
H37 C42 0.928 . S
H38 C44 0.930 . S
C39 H36 0.931 . S
C39 C40 1.413 . S
C39 C41 1.360 . S
C40 C39 1.413 . S
C40 C44 1.429 . S
C41 C39 1.360 . S
C41 C42 1.372 . S
C42 H37 0.928 . S
C42 C41 1.372 . S
C42 C43 1.404 . S
C43 C42 1.404 . S
C43 C44 1.391 . S
C44 H38 0.930 . S
C44 C40 1.429 . S
C44 C43 1.391 . S
H45 C48 0.931 . S
H46 C51 0.928 . S
H47 C53 0.930 . S
C48 H45 0.931 . S
C48 C49 1.413 . S
C48 C50 1.360 . S
C49 C48 1.413 . S
C49 C53 1.429 . S
C50 C48 1.360 . S
C50 C51 1.372 . S
C51 H46 0.928 . S
C51 C50 1.372 . S
C51 C52 1.404 . S
C52 C51 1.404 . S
C52 C53 1.391 . S
C53 H47 0.930 . S
C53 C49 1.429 . S
C53 C52 1.391 . S
H54 C57 0.931 . S
H55 C60 0.928 . S
H56 C62 0.930 . S
C57 H54 0.931 . S
C57 C58 1.413 . S
C57 C59 1.360 . S
C58 C57 1.413 . S
C58 C62 1.429 . S
C59 C57 1.360 . S
C59 C60 1.372 . S
C60 H55 0.928 . S
C60 C59 1.372 . S
C60 C61 1.404 . S
C61 C60 1.404 . S
C61 C62 1.391 . S
C62 H56 0.930 . S
C62 C58 1.429 . S
C62 C61 1.391 . S
H63 C66 0.931 . S
H64 C69 0.928 . S
H65 C71 0.930 . S
C66 H63 0.931 . S
C66 C67 1.413 . S
C66 C68 1.360 . S
C67 C66 1.413 . S
C67 C71 1.429 . S
C68 C66 1.360 . S
C68 C69 1.372 . S
C69 H64 0.928 . S
C69 C68 1.372 . S
C69 C70 1.404 . S
C70 C69 1.404 . S
C70 C71 1.391 . S
C71 H65 0.930 . S
C71 C67 1.429 . S
C71 C70 1.391 . S
H72 C75 0.931 . S
H73 C78 0.928 . S
H74 C80 0.930 . S
C75 H72 0.931 . S
C75 C76 1.413 . S
C75 C77 1.360 . S
C76 C75 1.413 . S
C76 C80 1.429 . S
C77 C75 1.360 . S
C77 C78 1.372 . S
C78 H73 0.928 . S
C78 C77 1.372 . S
C78 C79 1.404 . S
C79 C78 1.404 . S
C79 C80 1.391 . S
C80 H74 0.930 . S
C80 C76 1.429 . S
C80 C79 1.391 . S
H81 C84 0.931 . S
H82 C87 0.928 . S
H83 C89 0.930 . S
C84 H81 0.931 . S
C84 C85 1.413 . S
C84 C86 1.360 . S
C85 C84 1.413 . S
C85 C89 1.429 . S
C86 C84 1.360 . S
C86 C87 1.372 . S
C87 H82 0.928 . S
C87 C86 1.372 . S
C87 C88 1.404 . S
C88 C87 1.404 . S
C88 C89 1.391 . S
C89 H83 0.930 . S
C89 C85 1.429 . S
C89 C88 1.391 . S
H90 C93 0.931 . S
H91 C96 0.928 . S
H92 C98 0.930 . S
C93 H90 0.931 . S
C93 C94 1.413 . S
C93 C95 1.360 . S
C94 C93 1.413 . S
C94 C98 1.429 . S
C95 C93 1.360 . S
C95 C96 1.372 . S
C96 H91 0.928 . S
C96 C95 1.372 . S
C96 C97 1.404 . S
C97 C96 1.404 . S
C97 C98 1.391 . S
C98 H92 0.930 . S
C98 C94 1.429 . S
C98 C97 1.391 . S
H99 C102 0.931 . S
H100 C105 0.928 . S
H101 C107 0.930 . S
C102 H99 0.931 . S
C102 C103 1.413 . S
C102 C104 1.360 . S
C103 C102 1.413 . S
C103 C107 1.429 . S
C104 C102 1.360 . S
C104 C105 1.372 . S
C105 H100 0.928 . S
C105 C104 1.372 . S
C105 C106 1.404 . S
C106 C105 1.404 . S
C106 C107 1.391 . S
C107 H101 0.930 . S
C107 C103 1.429 . S
C107 C106 1.391 . S
H108 C111 0.931 . S
H109 C114 0.928 . S
H110 C116 0.930 . S
C111 H108 0.931 . S
C111 C112 1.413 . S
C111 C113 1.360 . S
C112 C111 1.413 . S
C112 C116 1.429 . S
C113 C111 1.360 . S
C113 C114 1.372 . S
C114 H109 0.928 . S
C114 C113 1.372 . S
C114 C115 1.404 . S
C115 C114 1.404 . S
C115 C116 1.391 . S
C116 H110 0.930 . S
C116 C112 1.429 . S
C116 C115 1.391 . S
H117 C120 0.931 . S
H118 C123 0.928 . S
H119 C125 0.930 . S
C120 H117 0.931 . S
C120 C121 1.413 . S
C120 C122 1.360 . S
C121 C120 1.413 . S
C121 C125 1.429 . S
C122 C120 1.360 . S
C122 C123 1.372 . S
C123 H118 0.928 . S
C123 C122 1.372 . S
C123 C124 1.404 . S
C124 C123 1.404 . S
C124 C125 1.391 . S
C125 H119 0.930 . S
C125 C121 1.429 . S
C125 C124 1.391 . S
H126 C129 0.931 . S
H127 C132 0.928 . S
H128 C134 0.930 . S
C129 H126 0.931 . S
C129 C130 1.413 . S
C129 C131 1.360 . S
C130 C129 1.413 . S
C130 C134 1.429 . S
C131 C129 1.360 . S
C131 C132 1.372 . S
C132 H127 0.928 . S
C132 C131 1.372 . S
C132 C133 1.404 . S
C133 C132 1.404 . S
C133 C134 1.391 . S
C134 H128 0.930 . S
C134 C130 1.429 . S
C134 C133 1.391 . S
H135 C138 0.931 . S
H136 C141 0.928 . S
H137 C143 0.930 . S
C138 H135 0.931 . S
C138 C139 1.413 . S
C138 C140 1.360 . S
C139 C138 1.413 . S
C139 C143 1.429 . S
C140 C138 1.360 . S
C140 C141 1.372 . S
C141 H136 0.928 . S
C141 C140 1.372 . S
C141 C142 1.404 . S
C142 C141 1.404 . S
C142 C143 1.391 . S
C143 H137 0.930 . S
C143 C139 1.429 . S
C143 C142 1.391 . S
H144 C147 0.931 . S
H145 C150 0.928 . S
H146 C152 0.930 . S
C147 H144 0.931 . S
C147 C148 1.413 . S
C147 C149 1.360 . S
C148 C147 1.413 . S
C148 C152 1.429 . S
C149 C147 1.360 . S
C149 C150 1.372 . S
C150 H145 0.928 . S
C150 C149 1.372 . S
C150 C151 1.404 . S
C151 C150 1.404 . S
C151 C152 1.391 . S
C152 H146 0.930 . S
C152 C148 1.429 . S
C152 C151 1.391 . S
H153 C156 0.931 . S
H154 C159 0.928 . S
H155 C161 0.930 . S
C156 H153 0.931 . S
C156 C157 1.413 . S
C156 C158 1.360 . S
C157 C156 1.413 . S
C157 C161 1.429 . S
C158 C156 1.360 . S
C158 C159 1.372 . S
C159 H154 0.928 . S
C159 C158 1.372 . S
C159 C160 1.404 . S
C160 C159 1.404 . S
C160 C161 1.391 . S
C161 H155 0.930 . S
C161 C157 1.429 . S
C161 C160 1.391 . S
H162 C165 0.931 . S
H163 C168 0.928 . S
H164 C170 0.930 . S
C165 H162 0.931 . S
C165 C166 1.413 . S
C165 C167 1.360 . S
C166 C165 1.413 . S
C166 C170 1.429 . S
C167 C165 1.360 . S
C167 C168 1.372 . S
C168 H163 0.928 . S
C168 C167 1.372 . S
C168 C169 1.404 . S
C169 C168 1.404 . S
C169 C170 1.391 . S
C170 H164 0.930 . S
C170 C166 1.429 . S
C170 C169 1.391 . S
H171 C174 0.931 . S
H172 C177 0.928 . S
H173 C179 0.930 . S
C174 H171 0.931 . S
C174 C175 1.413 . S
C174 C176 1.360 . S
C175 C174 1.413 . S
C175 C179 1.429 . S
C176 C174 1.360 . S
C176 C177 1.372 . S
C177 H172 0.928 . S
C177 C176 1.372 . S
C177 C178 1.404 . S
C178 C177 1.404 . S
C178 C179 1.391 . S
C179 H173 0.930 . S
C179 C175 1.429 . S
C179 C178 1.391 . S
H180 C183 0.931 . S
H181 C186 0.928 . S
H182 C188 0.930 . S
C183 H180 0.931 . S
C183 C184 1.413 . S
C183 C185 1.360 . S
C184 C183 1.413 . S
C184 C188 1.429 . S
C185 C183 1.360 . S
C185 C186 1.372 . S
C186 H181 0.928 . S
C186 C185 1.372 . S
C186 C187 1.404 . S
C187 C186 1.404 . S
C187 C188 1.391 . S
C188 H182 0.930 . S
C188 C184 1.429 . S
C188 C187 1.391 . S
H189 C192 0.931 . S
H190 C195 0.928 . S
H191 C197 0.930 . S
C192 H189 0.931 . S
C192 C193 1.413 . S
C192 C194 1.360 . S
C193 C192 1.413 . S
C193 C197 1.429 . S
C194 C192 1.360 . S
C194 C195 1.372 . S
C195 H190 0.928 . S
C195 C194 1.372 . S
C195 C196 1.404 . S
C196 C195 1.404 . S
C196 C197 1.391 . S
C197 H191 0.930 . S
C197 C193 1.429 . S
C197 C196 1.391 . S
H198 C201 0.931 . S
H199 C204 0.928 . S
H200 C206 0.930 . S
C201 H198 0.931 . S
C201 C202 1.413 . S
C201 C203 1.360 . S
C202 C201 1.413 . S
C202 C206 1.429 . S
C203 C201 1.360 . S
C203 C204 1.372 . S
C204 H199 0.928 . S
C204 C203 1.372 . S
C204 C205 1.404 . S
C205 C204 1.404 . S
C205 C206 1.391 . S
C206 H200 0.930 . S
C206 C202 1.429 . S
C206 C205 1.391 . S
H207 C210 0.931 . S
H208 C213 0.928 . S
H209 C215 0.930 . S
C210 H207 0.931 . S
C210 C211 1.413 . S
C210 C212 1.360 . S
C211 C210 1.413 . S
C211 C215 1.429 . S
C212 C210 1.360 . S
C212 C213 1.372 . S
C213 H208 0.928 . S
C213 C212 1.372 . S
C213 C214 1.404 . S
C214 C213 1.404 . S
C214 C215 1.391 . S
C215 H209 0.930 . S
C215 C211 1.429 . S
C215 C214 1.391 . S
H216 C219 0.931 . S
H217 C222 0.928 . S
H218 C224 0.930 . S
C219 H216 0.931 . S
C219 C220 1.413 . S
C219 C221 1.360 . S
C220 C219 1.413 . S
C220 C224 1.429 . S
C221 C219 1.360 . S
C221 C222 1.372 . S
C222 H217 0.928 . S
C222 C221 1.372 . S
C222 C223 1.404 . S
C223 C222 1.404 . S
C223 C224 1.391 . S
C224 H218 0.930 . S
C224 C220 1.429 . S
C224 C223 1.391 . S
H225 C228 0.931 . S
H226 C231 0.928 . S
H227 C233 0.930 . S
C228 H225 0.931 . S
C228 C229 1.413 . S
C228 C230 1.360 . S
C229 C228 1.413 . S
C229 C233 1.429 . S
C230 C228 1.360 . S
C230 C231 1.372 . S
C231 H226 0.928 . S
C231 C230 1.372 . S
C231 C232 1.404 . S
C232 C231 1.404 . S
C232 C233 1.391 . S
C233 H227 0.930 . S
C233 C229 1.429 . S
C233 C232 1.391 . S
H234 C237 0.931 . S
H235 C240 0.928 . S
H236 C242 0.930 . S
C237 H234 0.931 . S
C237 C238 1.413 . S
C237 C239 1.360 . S
C238 C237 1.413 . S
C238 C242 1.429 . S
C239 C237 1.360 . S
C239 C240 1.372 . S
C240 H235 0.928 . S
C240 C239 1.372 . S
C240 C241 1.404 . S
C241 C240 1.404 . S
C241 C242 1.391 . S
C242 H236 0.930 . S
C242 C238 1.429 . S
C242 C241 1.391 . S
H243 C246 0.931 . S
H244 C249 0.928 . S
H245 C251 0.930 . S
C246 H243 0.931 . S
C246 C247 1.413 . S
C246 C248 1.360 . S
C247 C246 1.413 . S
C247 C251 1.429 . S
C248 C246 1.360 . S
C248 C249 1.372 . S
C249 H244 0.928 . S
C249 C248 1.372 . S
C249 C250 1.404 . S
C250 C249 1.404 . S
C250 C251 1.391 . S
C251 H245 0.930 . S
C251 C247 1.429 . S
C251 C250 1.391 . S
H252 C255 0.931 . S
H253 C258 0.928 . S
H254 C260 0.930 . S
C255 H252 0.931 . S
C255 C256 1.413 . S
C255 C257 1.360 . S
C256 C255 1.413 . S
C256 C260 1.429 . S
C257 C255 1.360 . S
C257 C258 1.372 . S
C258 H253 0.928 . S
C258 C257 1.372 . S
C258 C259 1.404 . S
C259 C258 1.404 . S
C259 C260 1.391 . S
C260 H254 0.930 . S
C260 C256 1.429 . S
C260 C259 1.391 . S
H261 C264 0.931 . S
H262 C267 0.928 . S
H263 C269 0.930 . S
C264 H261 0.931 . S
C264 C265 1.413 . S
C264 C266 1.360 . S
C265 C264 1.413 . S
C265 C269 1.429 . S
C266 C264 1.360 . S
C266 C267 1.372 . S
C267 H262 0.928 . S
C267 C266 1.372 . S
C267 C268 1.404 . S
C268 C267 1.404 . S
C268 C269 1.391 . S
C269 H263 0.930 . S
C269 C265 1.429 . S
C269 C268 1.391 . S
H270 C273 0.931 . S
H271 C276 0.928 . S
H272 C278 0.930 . S
C273 H270 0.931 . S
C273 C274 1.413 . S
C273 C275 1.360 . S
C274 C273 1.413 . S
C274 C278 1.429 . S
C275 C273 1.360 . S
C275 C276 1.372 . S
C276 H271 0.928 . S
C276 C275 1.372 . S
C276 C277 1.404 . S
C277 C276 1.404 . S
C277 C278 1.391 . S
C278 H272 0.930 . S
C278 C274 1.429 . S
C278 C277 1.391 . S
H279 C282 0.931 . S
H280 C285 0.928 . S
H281 C287 0.930 . S
C282 H279 0.931 . S
C282 C283 1.413 . S
C282 C284 1.360 . S
C283 C282 1.413 . S
C283 C287 1.429 . S
C284 C282 1.360 . S
C284 C285 1.372 . S
C285 H280 0.928 . S
C285 C284 1.372 . S
C285 C286 1.404 . S
C286 C285 1.404 . S
C286 C287 1.391 . S
C287 H281 0.930 . S
C287 C283 1.429 . S
C287 C286 1.391 . S
Cu288 N289 1.999 . S
Cu288 O294 1.974 1_554 S
Cu288 N299 1.985 . S
Cu288 O308 1.959 . S
N289 Cu288 1.999 . S
N289 C291 1.263 1_554 S
N289 C293 1.389 . S
N290 C291 1.358 . S
N290 C292 1.400 . S
C291 N289 1.263 1_556 S
C291 N290 1.358 . S
C291 H297 0.930 . S
C292 N290 1.400 . S
C292 C293 1.351 1_556 S
C292 H309 0.930 . S
C293 N289 1.389 . S
C293 C292 1.351 1_554 S
C293 H298 0.930 . S
O294 Cu288 1.974 1_556 S
O294 C304 1.282 . S
C295 O296 1.261 . S
C295 O308 1.251 . S
O296 C295 1.261 . S
H297 C291 0.930 . S
H298 C293 0.930 . S
N299 Cu288 1.985 . S
N299 C301 1.335 . S
N299 C302 1.390 . S
N300 C301 1.345 . S
N300 C303 1.336 . S
C301 N299 1.335 . S
C301 N300 1.345 . S
C301 H306 0.930 . S
C302 N299 1.390 . S
C302 C303 1.346 . S
C302 H307 0.930 . S
C303 N300 1.336 . S
C303 C302 1.346 . S
C303 H310 0.929 . S
C304 O294 1.282 . S
C304 O305 1.216 . S
O305 C304 1.216 . S
H306 C301 0.930 . S
H307 C302 0.930 . S
O308 Cu288 1.959 . S
O308 C295 1.251 . S
H309 C292 0.930 . S
H310 C303 0.929 . S
Cu311 N312 1.999 . S
Cu311 O317 1.974 . S
Cu311 N322 1.985 1_554 S
Cu311 O331 1.959 1_554 S
N312 Cu311 1.999 . S
N312 C314 1.263 . S
N312 C316 1.389 . S
N313 C314 1.358 . S
N313 C315 1.400 . S
C314 N312 1.263 . S
C314 N313 1.358 . S
C314 H320 0.930 . S
C315 N313 1.400 . S
C315 C316 1.351 . S
C315 H332 0.930 . S
C316 N312 1.389 . S
C316 C315 1.351 . S
C316 H321 0.930 . S
O317 Cu311 1.974 . S
O317 C327 1.282 . S
C318 O319 1.261 . S
C318 O331 1.251 . S
O319 C318 1.261 . S
H320 C314 0.930 . S
H321 C316 0.930 . S
N322 Cu311 1.985 1_556 S
N322 C324 1.335 . S
N322 C325 1.390 . S
N323 C324 1.345 . S
N323 C326 1.336 . S
C324 N322 1.335 . S
C324 N323 1.345 . S
C324 H329 0.930 . S
C325 N322 1.390 . S
C325 C326 1.346 . S
C325 H330 0.930 1_556 S
C326 N323 1.336 . S
C326 C325 1.346 . S
C326 H333 0.929 . S
C327 O317 1.282 . S
C327 O328 1.216 . S
O328 C327 1.216 . S
H329 C324 0.930 . S
H330 C325 0.930 1_554 S
O331 Cu311 1.959 1_556 S
O331 C318 1.251 . S
H332 C315 0.930 . S
H333 C326 0.929 . S
Cu334 N335 1.999 1_554 S
Cu334 O340 1.974 1_554 S
Cu334 N345 1.985 . S
Cu334 O354 1.959 . S
N335 Cu334 1.999 1_556 S
N335 C337 1.263 . S
N335 C339 1.389 . S
N336 C337 1.358 . S
N336 C338 1.400 . S
C337 N335 1.263 . S
C337 N336 1.358 . S
C337 H343 0.930 . S
C338 N336 1.400 . S
C338 C339 1.351 . S
C338 H355 0.930 . S
C339 N335 1.389 . S
C339 C338 1.351 . S
C339 H344 0.930 1_556 S
O340 Cu334 1.974 1_556 S
O340 C350 1.282 . S
C341 O342 1.261 . S
C341 O354 1.251 . S
O342 C341 1.261 . S
H343 C337 0.930 . S
H344 C339 0.930 1_554 S
N345 Cu334 1.985 . S
N345 C347 1.335 . S
N345 C348 1.390 . S
N346 C347 1.345 . S
N346 C349 1.336 . S
C347 N345 1.335 . S
C347 N346 1.345 . S
C347 H352 0.930 . S
C348 N345 1.390 . S
C348 C349 1.346 . S
C348 H353 0.909 1_554 S
C349 N346 1.336 . S
C349 C348 1.346 . S
C349 H356 0.929 . S
C350 O340 1.282 . S
C350 O351 1.216 . S
O351 C350 1.216 . S
H352 C347 0.930 . S
H353 C348 0.909 1_556 S
O354 Cu334 1.959 . S
O354 C341 1.251 . S
H355 C338 0.930 . S
H356 C349 0.929 . S
Cu357 N358 2.004 . S
Cu357 O363 1.979 . S
Cu357 N368 1.980 1_554 S
Cu357 O377 1.954 1_554 S
N358 Cu357 2.004 . S
N358 C360 1.263 . S
N358 C362 1.389 . S
N359 C360 1.358 . S
N359 C361 1.400 . S
C360 N358 1.263 . S
C360 N359 1.358 . S
C360 H366 0.930 . S
C361 N359 1.400 . S
C361 C362 1.351 . S
C361 H378 0.930 . S
C362 N358 1.389 . S
C362 C361 1.351 . S
C362 H367 0.930 . S
O363 Cu357 1.979 . S
O363 C373 1.282 . S
C364 O365 1.261 . S
C364 O377 1.251 . S
O365 C364 1.261 . S
H366 C360 0.930 . S
H367 C362 0.930 . S
N368 Cu357 1.980 1_556 S
N368 C370 1.335 . S
N368 C371 1.390 . S
N369 C370 1.345 . S
N369 C372 1.336 . S
C370 N368 1.335 . S
C370 N369 1.345 . S
C370 H375 0.930 . S
C371 N368 1.390 . S
C371 C372 1.346 . S
C371 H376 0.930 1_556 S
C372 N369 1.336 . S
C372 C371 1.346 . S
C372 H379 0.929 . S
C373 O363 1.282 . S
C373 O374 1.216 . S
O374 C373 1.216 . S
H375 C370 0.930 . S
H376 C371 0.930 1_554 S
O377 Cu357 1.954 1_556 S
O377 C364 1.251 . S
H378 C361 0.930 . S
H379 C372 0.929 . S
Cu380 N381 1.999 . S
Cu380 O386 1.974 . S
Cu380 N391 1.985 1_455 S
Cu380 O400 1.959 1_455 S
N381 Cu380 1.999 . S
N381 C383 1.263 . S
N381 C385 1.389 . S
N382 C383 1.358 . S
N382 C384 1.400 . S
C383 N381 1.263 . S
C383 N382 1.358 . S
C383 H389 0.930 . S
C384 N382 1.400 . S
C384 C385 1.351 . S
C384 H401 0.930 . S
C385 N381 1.389 . S
C385 C384 1.351 . S
C385 H390 0.930 . S
O386 Cu380 1.974 . S
O386 C396 1.282 . S
C387 O388 1.261 . S
C387 O400 1.251 . S
O388 C387 1.261 . S
H389 C383 0.930 . S
H390 C385 0.930 . S
N391 Cu380 1.985 1_655 S
N391 C393 1.335 . S
N391 C394 1.390 1_655 S
N392 C393 1.345 . S
N392 C395 1.336 . S
C393 N391 1.335 . S
C393 N392 1.345 . S
C393 H398 0.930 . S
C394 N391 1.390 1_455 S
C394 C395 1.346 1_455 S
C394 H399 0.930 . S
C395 N392 1.336 . S
C395 C394 1.346 1_655 S
C395 H402 0.929 . S
C396 O386 1.282 . S
C396 O397 1.216 . S
O397 C396 1.216 . S
H398 C393 0.930 . S
H399 C394 0.930 . S
O400 Cu380 1.959 1_655 S
O400 C387 1.251 . S
H401 C384 0.930 . S
H402 C395 0.929 . S
Cu403 N404 1.999 . S
Cu403 O409 1.974 . S
Cu403 N414 1.985 1_545 S
Cu403 O423 1.959 1_545 S
N404 Cu403 1.999 . S
N404 C406 1.263 . S
N404 C408 1.389 . S
N405 C406 1.358 . S
N405 C407 1.400 . S
C406 N404 1.263 . S
C406 N405 1.358 . S
C406 H412 0.930 . S
C407 N405 1.400 . S
C407 C408 1.351 . S
C407 H424 0.930 . S
C408 N404 1.389 . S
C408 C407 1.351 . S
C408 H413 0.930 . S
O409 Cu403 1.974 . S
O409 C419 1.282 . S
C410 O411 1.261 . S
C410 O423 1.251 . S
O411 C410 1.261 . S
H412 C406 0.930 . S
H413 C408 0.930 . S
N414 Cu403 1.985 1_565 S
N414 C416 1.335 . S
N414 C417 1.390 . S
N415 C416 1.345 . S
N415 C418 1.336 . S
C416 N414 1.335 . S
C416 N415 1.345 . S
C416 H421 0.930 . S
C417 N414 1.390 . S
C417 C418 1.346 . S
C417 H422 0.930 1_565 S
C418 N415 1.336 . S
C418 C417 1.346 . S
C418 H425 0.929 . S
C419 O409 1.282 . S
C419 O420 1.216 . S
O420 C419 1.216 . S
H421 C416 0.930 . S
H422 C417 0.930 1_545 S
O423 Cu403 1.959 1_565 S
O423 C410 1.251 . S
H424 C407 0.930 . S
H425 C418 0.929 . S
Cu426 N427 2.015 . S
Cu426 O432 1.993 . S
Cu426 N437 1.969 1_655 S
Cu426 O446 1.940 1_655 S
N427 Cu426 2.015 . S
N427 C429 1.263 . S
N427 C431 1.389 . S
N428 C429 1.358 . S
N428 C430 1.400 . S
C429 N427 1.263 . S
C429 N428 1.358 . S
C429 H435 0.930 . S
C430 N428 1.400 . S
C430 C431 1.351 . S
C430 H447 0.930 . S
C431 N427 1.389 . S
C431 C430 1.351 . S
C431 H436 0.930 . S
O432 Cu426 1.993 . S
O432 C442 1.282 . S
C433 O434 1.261 . S
C433 O446 1.251 . S
O434 C433 1.261 . S
H435 C429 0.930 . S
H436 C431 0.930 . S
N437 Cu426 1.969 1_455 S
N437 C439 1.335 . S
N437 C440 1.390 . S
N438 C439 1.345 . S
N438 C441 1.336 . S
C439 N437 1.335 . S
C439 N438 1.345 . S
C439 H444 0.930 . S
C440 N437 1.390 . S
C440 C441 1.346 . S
C440 H445 0.930 . S
C441 N438 1.336 . S
C441 C440 1.346 . S
C441 H448 0.929 . S
C442 O432 1.282 . S
C442 O443 1.216 . S
O443 C442 1.216 . S
H444 C439 0.930 . S
H445 C440 0.930 . S
O446 Cu426 1.940 1_455 S
O446 C433 1.251 . S
H447 C430 0.930 . S
H448 C441 0.929 . S
Cu449 N450 1.980 1_565 S
Cu449 O455 1.949 1_565 S
Cu449 N460 2.003 . S
Cu449 O469 1.984 . S
N450 Cu449 1.980 1_545 S
N450 C452 1.263 . S
N450 C454 1.389 . S
N451 C452 1.358 . S
N451 C453 1.400 . S
C452 N450 1.263 . S
C452 N451 1.358 . S
C452 H458 0.930 . S
C453 N451 1.400 . S
C453 C454 1.351 . S
C453 H470 0.930 . S
C454 N450 1.389 . S
C454 C453 1.351 . S
C454 H459 0.930 . S
O455 Cu449 1.949 1_545 S
O455 C465 1.282 . S
C456 O457 1.261 . S
C456 O469 1.251 . S
O457 C456 1.261 . S
H458 C452 0.930 . S
H459 C454 0.930 . S
N460 Cu449 2.003 . S
N460 C462 1.335 . S
N460 C463 1.390 . S
N461 C462 1.345 . S
N461 C464 1.336 . S
C462 N460 1.335 . S
C462 N461 1.345 . S
C462 H467 0.930 . S
C463 N460 1.390 . S
C463 C464 1.346 . S
C463 H468 0.930 . S
C464 N461 1.336 . S
C464 C463 1.346 . S
C464 H471 0.929 . S
C465 O455 1.282 . S
C465 O466 1.216 . S
O466 C465 1.216 . S
H467 C462 0.930 . S
H468 C463 0.930 . S
O469 Cu449 1.984 . S
O469 C456 1.251 . S
H470 C453 0.930 . S
H471 C464 0.929 . S
Cu472 N473 1.999 . S
Cu472 O478 1.974 . S
Cu472 N483 1.985 1_455 S
Cu472 O492 1.959 1_455 S
N473 Cu472 1.999 . S
N473 C475 1.263 . S
N473 C477 1.389 . S
N474 C475 1.358 . S
N474 C476 1.400 . S
C475 N473 1.263 . S
C475 N474 1.358 . S
C475 H481 0.930 . S
C476 N474 1.400 . S
C476 C477 1.351 . S
C476 H493 0.930 . S
C477 N473 1.389 . S
C477 C476 1.351 . S
C477 H482 0.930 . S
O478 Cu472 1.974 . S
O478 C488 1.282 . S
C479 O480 1.261 . S
C479 O492 1.251 . S
O480 C479 1.261 . S
H481 C475 0.930 . S
H482 C477 0.930 . S
N483 Cu472 1.985 1_655 S
N483 C485 1.335 . S
N483 C486 1.389 1_655 S
N484 C485 1.345 . S
N484 C487 1.336 . S
C485 N483 1.335 . S
C485 N484 1.345 . S
C485 H490 0.930 . S
C486 N483 1.389 1_455 S
C486 C487 1.339 1_455 S
C486 H491 0.937 . S
C487 N484 1.336 . S
C487 C486 1.339 1_655 S
C487 H494 0.929 . S
C488 O478 1.282 . S
C488 O489 1.216 . S
O489 C488 1.216 . S
H490 C485 0.930 . S
H491 C486 0.937 . S
O492 Cu472 1.959 1_655 S
O492 C479 1.251 . S
H493 C476 0.930 . S
H494 C487 0.929 . S
Cu495 N496 1.999 . S
Cu495 O501 1.974 . S
Cu495 N506 1.985 1_545 S
Cu495 O515 1.959 1_545 S
N496 Cu495 1.999 . S
N496 C498 1.263 . S
N496 C500 1.389 . S
N497 C498 1.358 . S
N497 C499 1.400 . S
C498 N496 1.263 . S
C498 N497 1.358 . S
C498 H504 0.930 . S
C499 N497 1.400 . S
C499 C500 1.351 . S
C499 H516 0.930 . S
C500 N496 1.389 . S
C500 C499 1.351 . S
C500 H505 0.930 . S
O501 Cu495 1.974 . S
O501 C511 1.282 . S
C502 O503 1.261 . S
C502 O515 1.251 . S
O503 C502 1.261 . S
H504 C498 0.930 . S
H505 C500 0.930 . S
N506 Cu495 1.985 1_565 S
N506 C508 1.335 . S
N506 C509 1.390 1_565 S
N507 C508 1.345 . S
N507 C510 1.336 . S
C508 N506 1.335 . S
C508 N507 1.345 . S
C508 H513 0.930 . S
C509 N506 1.390 1_545 S
C509 C510 1.346 1_545 S
C509 H514 0.930 . S
C510 N507 1.336 . S
C510 C509 1.346 1_565 S
C510 H517 0.929 . S
C511 O501 1.282 . S
C511 O512 1.216 . S
O512 C511 1.216 . S
H513 C508 0.930 . S
H514 C509 0.930 . S
O515 Cu495 1.959 1_565 S
O515 C502 1.251 . S
H516 C499 0.930 . S
H517 C510 0.929 . S
Cu518 N519 1.999 . S
Cu518 O524 1.974 . S
Cu518 N529 1.985 . S
Cu518 O538 1.959 . S
N519 Cu518 1.999 . S
N519 C521 1.263 1_455 S
N519 C523 1.389 . S
N520 C521 1.358 . S
N520 C522 1.400 . S
C521 N519 1.263 1_655 S
C521 N520 1.358 . S
C521 H527 0.930 . S
C522 N520 1.400 . S
C522 C523 1.351 1_655 S
C522 H539 0.930 . S
C523 N519 1.389 . S
C523 C522 1.351 1_455 S
C523 H528 0.930 . S
O524 Cu518 1.974 . S
O524 C534 1.282 1_455 S
C525 O526 1.261 . S
C525 O538 1.251 . S
O526 C525 1.261 . S
H527 C521 0.930 . S
H528 C523 0.930 . S
N529 Cu518 1.985 . S
N529 C531 1.335 . S
N529 C532 1.390 . S
N530 C531 1.345 . S
N530 C533 1.336 . S
C531 N529 1.335 . S
C531 N530 1.345 . S
C531 H536 0.930 . S
C532 N529 1.390 . S
C532 C533 1.346 . S
C532 H537 0.930 . S
C533 N530 1.336 . S
C533 C532 1.346 . S
C533 H540 0.929 . S
C534 O524 1.282 1_655 S
C534 O535 1.216 1_655 S
O535 C534 1.216 1_455 S
H536 C531 0.930 . S
H537 C532 0.930 . S
O538 Cu518 1.959 . S
O538 C525 1.251 . S
H539 C522 0.930 . S
H540 C533 0.929 . S
Cu541 N542 1.999 . S
Cu541 O547 1.974 . S
Cu541 N552 1.985 . S
Cu541 O561 1.959 1_545 S
N542 Cu541 1.999 . S
N542 C544 1.263 . S
N542 C546 1.389 . S
N543 C544 1.358 . S
N543 C545 1.400 . S
C544 N542 1.263 . S
C544 N543 1.358 . S
C544 H550 0.930 . S
C545 N543 1.400 . S
C545 C546 1.351 . S
C545 H562 0.930 . S
C546 N542 1.389 . S
C546 C545 1.351 . S
C546 H551 0.930 . S
O547 Cu541 1.974 . S
O547 C557 1.282 . S
C548 O549 1.261 1_565 S
C548 O561 1.251 . S
O549 C548 1.261 1_545 S
H550 C544 0.930 . S
H551 C546 0.930 . S
N552 Cu541 1.985 . S
N552 C554 1.335 1_545 S
N552 C555 1.390 . S
N553 C554 1.345 . S
N553 C556 1.336 . S
C554 N552 1.335 1_565 S
C554 N553 1.345 . S
C554 H559 0.930 . S
C555 N552 1.390 . S
C555 C556 1.346 1_545 S
C555 H560 0.930 . S
C556 N553 1.336 . S
C556 C555 1.346 1_565 S
C556 H563 0.929 . S
C557 O547 1.282 . S
C557 O558 1.216 . S
O558 C557 1.216 . S
H559 C554 0.930 . S
H560 C555 0.930 . S
O561 Cu541 1.959 1_565 S
O561 C548 1.251 . S
H562 C545 0.930 . S
H563 C556 0.929 . S
Cu564 N565 1.999 . S
Cu564 O570 1.974 . S
Cu564 N575 1.985 . S
Cu564 O584 1.959 . S
N565 Cu564 1.999 . S
N565 C567 1.263 . S
N565 C569 1.389 . S
N566 C567 1.358 . S
N566 C568 1.400 . S
C567 N565 1.263 . S
C567 N566 1.358 . S
C567 H573 0.930 . S
C568 N566 1.400 . S
C568 C569 1.351 . S
C568 H585 0.930 . S
C569 N565 1.389 . S
C569 C568 1.351 . S
C569 H574 0.930 . S
O570 Cu564 1.974 . S
O570 C580 1.282 . S
C571 O572 1.261 . S
C571 O584 1.251 . S
O572 C571 1.261 . S
H573 C567 0.930 . S
H574 C569 0.930 . S
N575 Cu564 1.985 . S
N575 C577 1.335 . S
N575 C578 1.390 . S
N576 C577 1.345 . S
N576 C579 1.336 . S
C577 N575 1.335 . S
C577 N576 1.345 . S
C577 H582 0.930 . S
C578 N575 1.390 . S
C578 C579 1.346 . S
C578 H583 0.930 . S
C579 N576 1.336 . S
C579 C578 1.346 . S
C579 H586 0.929 . S
C580 O570 1.282 . S
C580 O581 1.216 . S
O581 C580 1.216 . S
H582 C577 0.930 . S
H583 C578 0.930 . S
O584 Cu564 1.959 . S
O584 C571 1.251 . S
H585 C568 0.930 . S
H586 C579 0.929 . S
Cu587 N588 1.999 . S
Cu587 O593 1.974 . S
Cu587 N598 1.985 . S
Cu587 O607 1.959 . S
N588 Cu587 1.999 . S
N588 C590 1.263 . S
N588 C592 1.389 . S
N589 C590 1.358 . S
N589 C591 1.400 . S
C590 N588 1.263 . S
C590 N589 1.358 . S
C590 H596 0.930 . S
C591 N589 1.400 . S
C591 C592 1.351 . S
C591 H608 0.930 . S
C592 N588 1.389 . S
C592 C591 1.351 . S
C592 H597 0.930 . S
O593 Cu587 1.974 . S
O593 C603 1.282 . S
C594 O595 1.261 . S
C594 O607 1.251 . S
O595 C594 1.261 . S
H596 C590 0.930 . S
H597 C592 0.930 . S
N598 Cu587 1.985 . S
N598 C600 1.335 . S
N598 C601 1.390 . S
N599 C600 1.345 . S
N599 C602 1.336 . S
C600 N598 1.335 . S
C600 N599 1.345 . S
C600 H605 0.930 . S
C601 N598 1.390 . S
C601 C602 1.346 . S
C601 H606 0.930 . S
C602 N599 1.336 . S
C602 C601 1.346 . S
C602 H609 0.929 . S
C603 O593 1.282 . S
C603 O604 1.216 . S
O604 C603 1.216 . S
H605 C600 0.930 . S
H606 C601 0.930 . S
O607 Cu587 1.959 . S
O607 C594 1.251 . S
H608 C591 0.930 . S
H609 C602 0.929 . S
Cu610 N611 1.999 . S
Cu610 O616 1.974 . S
Cu610 N621 1.985 . S
Cu610 O630 1.959 . S
N611 Cu610 1.999 . S
N611 C613 1.263 . S
N611 C615 1.389 . S
N612 C613 1.358 . S
N612 C614 1.400 . S
C613 N611 1.263 . S
C613 N612 1.358 . S
C613 H619 0.930 . S
C614 N612 1.400 . S
C614 C615 1.351 . S
C614 H631 0.930 . S
C615 N611 1.389 . S
C615 C614 1.351 . S
C615 H620 0.930 . S
O616 Cu610 1.974 . S
O616 C626 1.282 . S
C617 O618 1.261 . S
C617 O630 1.251 . S
O618 C617 1.261 . S
H619 C613 0.930 . S
H620 C615 0.930 . S
N621 Cu610 1.985 . S
N621 C623 1.335 . S
N621 C624 1.390 . S
N622 C623 1.345 . S
N622 C625 1.336 . S
C623 N621 1.335 . S
C623 N622 1.345 . S
C623 H628 0.930 . S
C624 N621 1.390 . S
C624 C625 1.346 . S
C624 H629 0.930 . S
C625 N622 1.336 . S
C625 C624 1.346 . S
C625 H632 0.929 . S
C626 O616 1.282 . S
C626 O627 1.216 . S
O627 C626 1.216 . S
H628 C623 0.930 . S
H629 C624 0.930 . S
O630 Cu610 1.959 . S
O630 C617 1.251 . S
H631 C614 0.930 . S
H632 C625 0.929 . S
Cu633 N634 1.999 . S
Cu633 O639 1.974 . S
Cu633 N644 1.985 . S
Cu633 O653 1.959 . S
N634 Cu633 1.999 . S
N634 C636 1.263 . S
N634 C638 1.389 . S
N635 C636 1.358 . S
N635 C637 1.400 . S
C636 N634 1.263 . S
C636 N635 1.358 . S
C636 H642 0.930 . S
C637 N635 1.400 . S
C637 C638 1.351 . S
C637 H654 0.930 . S
C638 N634 1.389 . S
C638 C637 1.351 . S
C638 H643 0.930 . S
O639 Cu633 1.974 . S
O639 C649 1.282 . S
C640 O641 1.261 . S
C640 O653 1.251 . S
O641 C640 1.261 . S
H642 C636 0.930 . S
H643 C638 0.930 . S
N644 Cu633 1.985 . S
N644 C646 1.335 . S
N644 C647 1.390 . S
N645 C646 1.345 . S
N645 C648 1.336 . S
C646 N644 1.335 . S
C646 N645 1.345 . S
C646 H651 0.930 . S
C647 N644 1.390 . S
C647 C648 1.346 . S
C647 H652 0.930 . S
C648 N645 1.336 . S
C648 C647 1.346 . S
C648 H655 0.929 . S
C649 O639 1.282 . S
C649 O650 1.216 . S
O650 C649 1.216 . S
H651 C646 0.930 . S
H652 C647 0.930 . S
O653 Cu633 1.959 . S
O653 C640 1.251 . S
H654 C637 0.930 . S
H655 C648 0.929 . S
Cu656 N657 1.999 . S
Cu656 O662 1.974 . S
Cu656 N667 1.985 . S
Cu656 O676 1.959 . S
N657 Cu656 1.999 . S
N657 C659 1.263 . S
N657 C661 1.389 . S
N658 C659 1.358 . S
N658 C660 1.400 . S
C659 N657 1.263 . S
C659 N658 1.358 . S
C659 H665 0.930 . S
C660 N658 1.400 . S
C660 C661 1.351 . S
C660 H677 0.930 . S
C661 N657 1.389 . S
C661 C660 1.351 . S
C661 H666 0.930 . S
O662 Cu656 1.974 . S
O662 C672 1.282 . S
C663 O664 1.261 . S
C663 O676 1.251 . S
O664 C663 1.261 . S
H665 C659 0.930 . S
H666 C661 0.930 . S
N667 Cu656 1.985 . S
N667 C669 1.335 . S
N667 C670 1.390 . S
N668 C669 1.345 . S
N668 C671 1.336 . S
C669 N667 1.335 . S
C669 N668 1.345 . S
C669 H674 0.930 . S
C670 N667 1.390 . S
C670 C671 1.346 . S
C670 H675 0.930 . S
C671 N668 1.336 . S
C671 C670 1.346 . S
C671 H678 0.929 . S
C672 O662 1.282 . S
C672 O673 1.216 . S
O673 C672 1.216 . S
H674 C669 0.930 . S
H675 C670 0.930 . S
O676 Cu656 1.959 . S
O676 C663 1.251 . S
H677 C660 0.930 . S
H678 C671 0.929 . S
Cu679 N680 1.999 . S
Cu679 O685 1.974 . S
Cu679 N690 1.985 . S
Cu679 O699 1.959 . S
N680 Cu679 1.999 . S
N680 C682 1.263 . S
N680 C684 1.389 . S
N681 C682 1.358 . S
N681 C683 1.400 . S
C682 N680 1.263 . S
C682 N681 1.358 . S
C682 H688 0.930 . S
C683 N681 1.400 . S
C683 C684 1.351 . S
C683 H700 0.930 . S
C684 N680 1.389 . S
C684 C683 1.351 . S
C684 H689 0.930 . S
O685 Cu679 1.974 . S
O685 C695 1.282 . S
C686 O687 1.261 . S
C686 O699 1.251 . S
O687 C686 1.261 . S
H688 C682 0.930 . S
H689 C684 0.930 . S
N690 Cu679 1.985 . S
N690 C692 1.335 . S
N690 C693 1.390 . S
N691 C692 1.345 . S
N691 C694 1.336 . S
C692 N690 1.335 . S
C692 N691 1.345 . S
C692 H697 0.930 . S
C693 N690 1.390 . S
C693 C694 1.346 . S
C693 H698 0.930 . S
C694 N691 1.336 . S
C694 C693 1.346 . S
C694 H701 0.929 . S
C695 O685 1.282 . S
C695 O696 1.216 . S
O696 C695 1.216 . S
H697 C692 0.930 . S
H698 C693 0.930 . S
O699 Cu679 1.959 . S
O699 C686 1.251 . S
H700 C683 0.930 . S
H701 C694 0.929 . S
Cu702 N703 1.999 . S
Cu702 O708 1.974 . S
Cu702 N713 1.985 . S
Cu702 O722 1.959 . S
N703 Cu702 1.999 . S
N703 C705 1.263 . S
N703 C707 1.389 . S
N704 C705 1.358 . S
N704 C706 1.400 . S
C705 N703 1.263 . S
C705 N704 1.358 . S
C705 H711 0.930 . S
C706 N704 1.400 . S
C706 C707 1.351 . S
C706 H723 0.930 . S
C707 N703 1.389 . S
C707 C706 1.351 . S
C707 H712 0.930 . S
O708 Cu702 1.974 . S
O708 C718 1.282 . S
C709 O710 1.261 . S
C709 O722 1.251 . S
O710 C709 1.261 . S
H711 C705 0.930 . S
H712 C707 0.930 . S
N713 Cu702 1.985 . S
N713 C715 1.335 . S
N713 C716 1.390 . S
N714 C715 1.345 . S
N714 C717 1.336 . S
C715 N713 1.335 . S
C715 N714 1.345 . S
C715 H720 0.930 . S
C716 N713 1.390 . S
C716 C717 1.346 . S
C716 H721 0.930 . S
C717 N714 1.336 . S
C717 C716 1.346 . S
C717 H724 0.929 . S
C718 O708 1.282 . S
C718 O719 1.216 . S
O719 C718 1.216 . S
H720 C715 0.930 . S
H721 C716 0.930 . S
O722 Cu702 1.959 . S
O722 C709 1.251 . S
H723 C706 0.930 . S
H724 C717 0.929 . S
Cu725 N726 1.999 . S
Cu725 O731 1.974 . S
Cu725 N736 1.985 . S
Cu725 O745 1.959 . S
N726 Cu725 1.999 . S
N726 C728 1.263 . S
N726 C730 1.389 . S
N727 C728 1.358 . S
N727 C729 1.400 . S
C728 N726 1.263 . S
C728 N727 1.358 . S
C728 H734 0.930 . S
C729 N727 1.400 . S
C729 C730 1.351 . S
C729 H746 0.930 . S
C730 N726 1.389 . S
C730 C729 1.351 . S
C730 H735 0.930 . S
O731 Cu725 1.974 . S
O731 C741 1.282 . S
C732 O733 1.261 . S
C732 O745 1.251 . S
O733 C732 1.261 . S
H734 C728 0.930 . S
H735 C730 0.930 . S
N736 Cu725 1.985 . S
N736 C738 1.335 . S
N736 C739 1.390 . S
N737 C738 1.345 . S
N737 C740 1.336 . S
C738 N736 1.335 . S
C738 N737 1.345 . S
C738 H743 0.930 . S
C739 N736 1.390 . S
C739 C740 1.346 . S
C739 H744 0.930 . S
C740 N737 1.336 . S
C740 C739 1.346 . S
C740 H747 0.929 . S
C741 O731 1.282 . S
C741 O742 1.216 . S
O742 C741 1.216 . S
H743 C738 0.930 . S
H744 C739 0.930 . S
O745 Cu725 1.959 . S
O745 C732 1.251 . S
H746 C729 0.930 . S
H747 C740 0.929 . S
Cu748 N749 1.999 . S
Cu748 O754 1.974 . S
Cu748 N759 1.985 . S
Cu748 O768 1.959 . S
N749 Cu748 1.999 . S
N749 C751 1.263 . S
N749 C753 1.389 . S
N750 C751 1.358 . S
N750 C752 1.400 . S
C751 N749 1.263 . S
C751 N750 1.358 . S
C751 H757 0.930 . S
C752 N750 1.400 . S
C752 C753 1.351 . S
C752 H769 0.930 . S
C753 N749 1.389 . S
C753 C752 1.351 . S
C753 H758 0.930 . S
O754 Cu748 1.974 . S
O754 C764 1.282 . S
C755 O756 1.261 . S
C755 O768 1.251 . S
O756 C755 1.261 . S
H757 C751 0.930 . S
H758 C753 0.930 . S
N759 Cu748 1.985 . S
N759 C761 1.335 . S
N759 C762 1.390 . S
N760 C761 1.345 . S
N760 C763 1.336 . S
C761 N759 1.335 . S
C761 N760 1.345 . S
C761 H766 0.930 . S
C762 N759 1.390 . S
C762 C763 1.346 . S
C762 H767 0.930 . S
C763 N760 1.336 . S
C763 C762 1.346 . S
C763 H770 0.929 . S
C764 O754 1.282 . S
C764 O765 1.216 . S
O765 C764 1.216 . S
H766 C761 0.930 . S
H767 C762 0.930 . S
O768 Cu748 1.959 . S
O768 C755 1.251 . S
H769 C752 0.930 . S
H770 C763 0.929 . S
Cu771 N772 1.999 . S
Cu771 O777 1.974 . S
Cu771 N782 1.985 . S
Cu771 O791 1.959 . S
N772 Cu771 1.999 . S
N772 C774 1.263 . S
N772 C776 1.389 . S
N773 C774 1.358 . S
N773 C775 1.400 . S
C774 N772 1.263 . S
C774 N773 1.358 . S
C774 H780 0.930 . S
C775 N773 1.400 . S
C775 C776 1.351 . S
C775 H792 0.930 . S
C776 N772 1.389 . S
C776 C775 1.351 . S
C776 H781 0.930 . S
O777 Cu771 1.974 . S
O777 C787 1.282 . S
C778 O779 1.261 . S
C778 O791 1.251 . S
O779 C778 1.261 . S
H780 C774 0.930 . S
H781 C776 0.930 . S
N782 Cu771 1.985 . S
N782 C784 1.335 . S
N782 C785 1.390 . S
N783 C784 1.345 . S
N783 C786 1.336 . S
C784 N782 1.335 . S
C784 N783 1.345 . S
C784 H789 0.930 . S
C785 N782 1.390 . S
C785 C786 1.346 . S
C785 H790 0.930 . S
C786 N783 1.336 . S
C786 C785 1.346 . S
C786 H793 0.929 . S
C787 O777 1.282 . S
C787 O788 1.216 . S
O788 C787 1.216 . S
H789 C784 0.930 . S
H790 C785 0.930 . S
O791 Cu771 1.959 . S
O791 C778 1.251 . S
H792 C775 0.930 . S
H793 C786 0.929 . S
Cu794 N795 1.999 . S
Cu794 O800 1.974 . S
Cu794 N805 1.985 . S
Cu794 O814 1.959 . S
N795 Cu794 1.999 . S
N795 C797 1.263 . S
N795 C799 1.389 . S
N796 C797 1.358 . S
N796 C798 1.400 . S
C797 N795 1.263 . S
C797 N796 1.358 . S
C797 H803 0.930 . S
C798 N796 1.400 . S
C798 C799 1.351 . S
C798 H815 0.930 . S
C799 N795 1.389 . S
C799 C798 1.351 . S
C799 H804 0.930 . S
O800 Cu794 1.974 . S
O800 C810 1.282 . S
C801 O802 1.261 . S
C801 O814 1.251 . S
O802 C801 1.261 . S
H803 C797 0.930 . S
H804 C799 0.930 . S
N805 Cu794 1.985 . S
N805 C807 1.335 . S
N805 C808 1.390 . S
N806 C807 1.345 . S
N806 C809 1.336 . S
C807 N805 1.335 . S
C807 N806 1.345 . S
C807 H812 0.930 . S
C808 N805 1.390 . S
C808 C809 1.346 . S
C808 H813 0.930 . S
C809 N806 1.336 . S
C809 C808 1.346 . S
C809 H816 0.929 . S
C810 O800 1.282 . S
C810 O811 1.216 . S
O811 C810 1.216 . S
H812 C807 0.930 . S
H813 C808 0.930 . S
O814 Cu794 1.959 . S
O814 C801 1.251 . S
H815 C798 0.930 . S
H816 C809 0.929 . S
Cu817 N818 1.999 . S
Cu817 O823 1.974 . S
Cu817 N828 1.985 . S
Cu817 O837 1.959 . S
N818 Cu817 1.999 . S
N818 C820 1.263 . S
N818 C822 1.389 . S
N819 C820 1.358 . S
N819 C821 1.400 . S
C820 N818 1.263 . S
C820 N819 1.358 . S
C820 H826 0.930 . S
C821 N819 1.400 . S
C821 C822 1.351 . S
C821 H838 0.930 . S
C822 N818 1.389 . S
C822 C821 1.351 . S
C822 H827 0.930 . S
O823 Cu817 1.974 . S
O823 C833 1.282 . S
C824 O825 1.261 . S
C824 O837 1.251 . S
O825 C824 1.261 . S
H826 C820 0.930 . S
H827 C822 0.930 . S
N828 Cu817 1.985 . S
N828 C830 1.335 . S
N828 C831 1.390 . S
N829 C830 1.345 . S
N829 C832 1.336 . S
C830 N828 1.335 . S
C830 N829 1.345 . S
C830 H835 0.930 . S
C831 N828 1.390 . S
C831 C832 1.346 . S
C831 H836 0.930 . S
C832 N829 1.336 . S
C832 C831 1.346 . S
C832 H839 0.929 . S
C833 O823 1.282 . S
C833 O834 1.216 . S
O834 C833 1.216 . S
H835 C830 0.930 . S
H836 C831 0.930 . S
O837 Cu817 1.959 . S
O837 C824 1.251 . S
H838 C821 0.930 . S
H839 C832 0.929 . S
C840 C841 1.369 . S
C840 C842 1.419 . S
C840 H844 0.930 . S
C841 C840 1.369 . S
C841 C850 1.429 . S
C842 C840 1.419 . S
C842 C843 1.363 . S
C842 H845 0.929 . S
C843 C842 1.363 . S
C843 C849 1.428 . S
H844 C840 0.930 . S
H845 C842 0.929 . S
S846 N847 1.613 . S
S846 N848 1.610 . S
N847 S846 1.613 . S
N847 C850 1.350 . S
N848 S846 1.610 . S
N848 C849 1.351 . S
C849 C843 1.428 . S
C849 N848 1.351 . S
C849 C850 1.434 . S
C850 C841 1.429 . S
C850 N847 1.350 . S
C850 C849 1.434 . S
C851 C852 1.369 . S
C851 C853 1.419 . S
C851 H855 0.930 . S
C852 C851 1.369 . S
C852 C861 1.429 . S
C853 C851 1.419 . S
C853 C854 1.363 . S
C853 H856 0.929 . S
C854 C853 1.363 . S
C854 C860 1.428 . S
H855 C851 0.930 . S
H856 C853 0.929 . S
S857 N858 1.613 . S
S857 N859 1.610 . S
N858 S857 1.613 . S
N858 C861 1.350 . S
N859 S857 1.610 . S
N859 C860 1.351 . S
C860 C854 1.428 . S
C860 N859 1.351 . S
C860 C861 1.434 . S
C861 C852 1.429 . S
C861 N858 1.350 . S
C861 C860 1.434 . S
C862 C863 1.369 . S
C862 C864 1.419 . S
C862 H866 0.930 . S
C863 C862 1.369 . S
C863 C872 1.429 . S
C864 C862 1.419 . S
C864 C865 1.363 . S
C864 H867 0.929 . S
C865 C864 1.363 . S
C865 C871 1.428 . S
H866 C862 0.930 . S
H867 C864 0.929 . S
S868 N869 1.613 . S
S868 N870 1.610 . S
N869 S868 1.613 . S
N869 C872 1.350 . S
N870 S868 1.610 . S
N870 C871 1.351 . S
C871 C865 1.428 . S
C871 N870 1.351 . S
C871 C872 1.434 . S
C872 C863 1.429 . S
C872 N869 1.350 . S
C872 C871 1.434 . S
C873 C874 1.369 . S
C873 C875 1.419 . S
C873 H877 0.930 . S
C874 C873 1.369 . S
C874 C883 1.429 . S
C875 C873 1.419 . S
C875 C876 1.363 . S
C875 H878 0.929 . S
C876 C875 1.363 . S
C876 C882 1.428 . S
H877 C873 0.930 . S
H878 C875 0.929 . S
S879 N880 1.613 . S
S879 N881 1.610 . S
N880 S879 1.613 . S
N880 C883 1.350 . S
N881 S879 1.610 . S
N881 C882 1.351 . S
C882 C876 1.428 . S
C882 N881 1.351 . S
C882 C883 1.434 . S
C883 C874 1.429 . S
C883 N880 1.350 . S
C883 C882 1.434 . S
C884 C885 1.369 . S
C884 C886 1.419 . S
C884 H888 0.930 . S
C885 C884 1.369 . S
C885 C894 1.429 . S
C886 C884 1.419 . S
C886 C887 1.363 . S
C886 H889 0.929 . S
C887 C886 1.363 . S
C887 C893 1.428 . S
H888 C884 0.930 . S
H889 C886 0.929 . S
S890 N891 1.613 . S
S890 N892 1.610 . S
N891 S890 1.613 . S
N891 C894 1.350 . S
N892 S890 1.610 . S
N892 C893 1.351 . S
C893 C887 1.428 . S
C893 N892 1.351 . S
C893 C894 1.434 . S
C894 C885 1.429 . S
C894 N891 1.350 . S
C894 C893 1.434 . S
C895 C896 1.369 . S
C895 C897 1.419 . S
C895 H899 0.930 . S
C896 C895 1.369 . S
C896 C905 1.429 . S
C897 C895 1.419 . S
C897 C898 1.363 . S
C897 H900 0.929 . S
C898 C897 1.363 . S
C898 C904 1.428 . S
H899 C895 0.930 . S
H900 C897 0.929 . S
S901 N902 1.613 . S
S901 N903 1.610 . S
N902 S901 1.613 . S
N902 C905 1.350 . S
N903 S901 1.610 . S
N903 C904 1.351 . S
C904 C898 1.428 . S
C904 N903 1.351 . S
C904 C905 1.434 . S
C905 C896 1.429 . S
C905 N902 1.350 . S
C905 C904 1.434 . S
C906 C907 1.369 . S
C906 C908 1.419 . S
C906 H910 0.930 . S
C907 C906 1.369 . S
C907 C916 1.429 . S
C908 C906 1.419 . S
C908 C909 1.363 . S
C908 H911 0.929 . S
C909 C908 1.363 . S
C909 C915 1.428 . S
H910 C906 0.930 . S
H911 C908 0.929 . S
S912 N913 1.613 . S
S912 N914 1.610 . S
N913 S912 1.613 . S
N913 C916 1.350 . S
N914 S912 1.610 . S
N914 C915 1.351 . S
C915 C909 1.428 . S
C915 N914 1.351 . S
C915 C916 1.434 . S
C916 C907 1.429 . S
C916 N913 1.350 . S
C916 C915 1.434 . S
C917 C918 1.369 . S
C917 C919 1.419 . S
C917 H921 0.930 . S
C918 C917 1.369 . S
C918 C927 1.429 . S
C919 C917 1.419 . S
C919 C920 1.363 . S
C919 H922 0.929 . S
C920 C919 1.363 . S
C920 C926 1.428 . S
H921 C917 0.930 . S
H922 C919 0.929 . S
S923 N924 1.613 . S
S923 N925 1.610 . S
N924 S923 1.613 . S
N924 C927 1.350 . S
N925 S923 1.610 . S
N925 C926 1.351 . S
C926 C920 1.428 . S
C926 N925 1.351 . S
C926 C927 1.434 . S
C927 C918 1.429 . S
C927 N924 1.350 . S
C927 C926 1.434 . S
C928 C929 1.369 . S
C928 C930 1.419 . S
C928 H932 0.930 . S
C929 C928 1.369 . S
C929 C938 1.429 . S
C930 C928 1.419 . S
C930 C931 1.363 . S
C930 H933 0.929 . S
C931 C930 1.363 . S
C931 C937 1.428 . S
H932 C928 0.930 . S
H933 C930 0.929 . S
S934 N935 1.613 . S
S934 N936 1.610 . S
N935 S934 1.613 . S
N935 C938 1.350 . S
N936 S934 1.610 . S
N936 C937 1.351 . S
C937 C931 1.428 . S
C937 N936 1.351 . S
C937 C938 1.434 . S
C938 C929 1.429 . S
C938 N935 1.350 . S
C938 C937 1.434 . S
C939 C940 1.369 . S
C939 C941 1.419 . S
C939 H943 0.930 . S
C940 C939 1.369 . S
C940 C949 1.429 . S
C941 C939 1.419 . S
C941 C942 1.363 . S
C941 H944 0.929 . S
C942 C941 1.363 . S
C942 C948 1.428 . S
H943 C939 0.930 . S
H944 C941 0.929 . S
S945 N946 1.613 . S
S945 N947 1.610 . S
N946 S945 1.613 . S
N946 C949 1.350 . S
N947 S945 1.610 . S
N947 C948 1.351 . S
C948 C942 1.428 . S
C948 N947 1.351 . S
C948 C949 1.434 . S
C949 C940 1.429 . S
C949 N946 1.350 . S
C949 C948 1.434 . S
C950 C951 1.369 . S
C950 C952 1.419 . S
C950 H954 0.930 . S
C951 C950 1.369 . S
C951 C960 1.429 . S
C952 C950 1.419 . S
C952 C953 1.363 . S
C952 H955 0.929 . S
C953 C952 1.363 . S
C953 C959 1.428 . S
H954 C950 0.930 . S
H955 C952 0.929 . S
S956 N957 1.613 . S
S956 N958 1.610 . S
N957 S956 1.613 . S
N957 C960 1.350 . S
N958 S956 1.610 . S
N958 C959 1.351 . S
C959 C953 1.428 . S
C959 N958 1.351 . S
C959 C960 1.434 . S
C960 C951 1.429 . S
C960 N957 1.350 . S
C960 C959 1.434 . S
C961 C962 1.369 . S
C961 C963 1.419 . S
C961 H965 0.930 . S
C962 C961 1.369 . S
C962 C971 1.429 . S
C963 C961 1.419 . S
C963 C964 1.363 . S
C963 H966 0.929 . S
C964 C963 1.363 . S
C964 C970 1.428 . S
H965 C961 0.930 . S
H966 C963 0.929 . S
S967 N968 1.613 . S
S967 N969 1.610 . S
N968 S967 1.613 . S
N968 C971 1.350 . S
N969 S967 1.610 . S
N969 C970 1.351 . S
C970 C964 1.428 . S
C970 N969 1.351 . S
C970 C971 1.434 . S
C971 C962 1.429 . S
C971 N968 1.350 . S
C971 C970 1.434 . S
C972 C973 1.369 . S
C972 C974 1.419 . S
C972 H976 0.930 . S
C973 C972 1.369 . S
C973 C982 1.429 . S
C974 C972 1.419 . S
C974 C975 1.363 . S
C974 H977 0.929 . S
C975 C974 1.363 . S
C975 C981 1.428 . S
H976 C972 0.930 . S
H977 C974 0.929 . S
S978 N979 1.613 . S
S978 N980 1.610 . S
N979 S978 1.613 . S
N979 C982 1.350 . S
N980 S978 1.610 . S
N980 C981 1.351 . S
C981 C975 1.428 . S
C981 N980 1.351 . S
C981 C982 1.434 . S
C982 C973 1.429 . S
C982 N979 1.350 . S
C982 C981 1.434 . S
C983 C984 1.369 . S
C983 C985 1.419 . S
C983 H987 0.930 . S
C984 C983 1.369 . S
C984 C993 1.429 . S
C985 C983 1.419 . S
C985 C986 1.363 . S
C985 H988 0.929 . S
C986 C985 1.363 . S
C986 C992 1.428 . S
H987 C983 0.930 . S
H988 C985 0.929 . S
S989 N990 1.613 . S
S989 N991 1.610 . S
N990 S989 1.613 . S
N990 C993 1.350 . S
N991 S989 1.610 . S
N991 C992 1.351 . S
C992 C986 1.428 . S
C992 N991 1.351 . S
C992 C993 1.434 . S
C993 C984 1.429 . S
C993 N990 1.350 . S
C993 C992 1.434 . S
C994 C995 1.369 . S
C994 C996 1.419 . S
C994 H998 0.930 . S
C995 C994 1.369 . S
C995 C1004 1.429 . S
C996 C994 1.419 . S
C996 C997 1.363 . S
C996 H999 0.929 . S
C997 C996 1.363 . S
C997 C1003 1.428 . S
H998 C994 0.930 . S
H999 C996 0.929 . S
S1000 N1001 1.613 . S
S1000 N1002 1.610 . S
N1001 S1000 1.613 . S
N1001 C1004 1.350 . S
N1002 S1000 1.610 . S
N1002 C1003 1.351 . S
C1003 C997 1.428 . S
C1003 N1002 1.351 . S
C1003 C1004 1.434 . S
C1004 C995 1.429 . S
C1004 N1001 1.350 . S
C1004 C1003 1.434 . S
C1005 C1006 1.369 . S
C1005 C1007 1.419 . S
C1005 H1009 0.930 . S
C1006 C1005 1.369 . S
C1006 C1015 1.429 . S
C1007 C1005 1.419 . S
C1007 C1008 1.363 . S
C1007 H1010 0.929 . S
C1008 C1007 1.363 . S
C1008 C1014 1.428 . S
H1009 C1005 0.930 . S
H1010 C1007 0.929 . S
S1011 N1012 1.613 . S
S1011 N1013 1.610 . S
N1012 S1011 1.613 . S
N1012 C1015 1.350 . S
N1013 S1011 1.610 . S
N1013 C1014 1.351 . S
C1014 C1008 1.428 . S
C1014 N1013 1.351 . S
C1014 C1015 1.434 . S
C1015 C1006 1.429 . S
C1015 N1012 1.350 . S
C1015 C1014 1.434 . S
C1016 C1017 1.369 . S
C1016 C1018 1.419 . S
C1016 H1020 0.930 . S
C1017 C1016 1.369 . S
C1017 C1026 1.429 . S
C1018 C1016 1.419 . S
C1018 C1019 1.363 . S
C1018 H1021 0.929 . S
C1019 C1018 1.363 . S
C1019 C1025 1.428 . S
H1020 C1016 0.930 . S
H1021 C1018 0.929 . S
S1022 N1023 1.613 . S
S1022 N1024 1.610 . S
N1023 S1022 1.613 . S
N1023 C1026 1.350 . S
N1024 S1022 1.610 . S
N1024 C1025 1.351 . S
C1025 C1019 1.428 . S
C1025 N1024 1.351 . S
C1025 C1026 1.434 . S
C1026 C1017 1.429 . S
C1026 N1023 1.350 . S
C1026 C1025 1.434 . S
C1027 C1028 1.369 . S
C1027 C1029 1.419 . S
C1027 H1031 0.930 . S
C1028 C1027 1.369 . S
C1028 C1037 1.429 . S
C1029 C1027 1.419 . S
C1029 C1030 1.363 . S
C1029 H1032 0.929 . S
C1030 C1029 1.363 . S
C1030 C1036 1.428 . S
H1031 C1027 0.930 . S
H1032 C1029 0.929 . S
S1033 N1034 1.613 . S
S1033 N1035 1.610 . S
N1034 S1033 1.613 . S
N1034 C1037 1.350 . S
N1035 S1033 1.610 . S
N1035 C1036 1.351 . S
C1036 C1030 1.428 . S
C1036 N1035 1.351 . S
C1036 C1037 1.434 . S
C1037 C1028 1.429 . S
C1037 N1034 1.350 . S
C1037 C1036 1.434 . S
C1038 C1039 1.369 . S
C1038 C1040 1.419 . S
C1038 H1042 0.930 . S
C1039 C1038 1.369 . S
C1039 C1048 1.429 . S
C1040 C1038 1.419 . S
C1040 C1041 1.363 . S
C1040 H1043 0.929 . S
C1041 C1040 1.363 . S
C1041 C1047 1.428 . S
H1042 C1038 0.930 . S
H1043 C1040 0.929 . S
S1044 N1045 1.613 . S
S1044 N1046 1.610 . S
N1045 S1044 1.613 . S
N1045 C1048 1.350 . S
N1046 S1044 1.610 . S
N1046 C1047 1.351 . S
C1047 C1041 1.428 . S
C1047 N1046 1.351 . S
C1047 C1048 1.434 . S
C1048 C1039 1.429 . S
C1048 N1045 1.350 . S
C1048 C1047 1.434 . S
C1049 C1050 1.369 . S
C1049 C1051 1.419 . S
C1049 H1053 0.930 . S
C1050 C1049 1.369 . S
C1050 C1059 1.429 . S
C1051 C1049 1.419 . S
C1051 C1052 1.363 . S
C1051 H1054 0.929 . S
C1052 C1051 1.363 . S
C1052 C1058 1.428 . S
H1053 C1049 0.930 . S
H1054 C1051 0.929 . S
S1055 N1056 1.613 . S
S1055 N1057 1.610 . S
N1056 S1055 1.613 . S
N1056 C1059 1.350 . S
N1057 S1055 1.610 . S
N1057 C1058 1.351 . S
C1058 C1052 1.428 . S
C1058 N1057 1.351 . S
C1058 C1059 1.434 . S
C1059 C1050 1.429 . S
C1059 N1056 1.350 . S
C1059 C1058 1.434 . S
C1060 C1061 1.369 . S
C1060 C1062 1.419 . S
C1060 H1064 0.930 . S
C1061 C1060 1.369 . S
C1061 C1070 1.429 . S
C1062 C1060 1.419 . S
C1062 C1063 1.363 . S
C1062 H1065 0.929 . S
C1063 C1062 1.363 . S
C1063 C1069 1.428 . S
H1064 C1060 0.930 . S
H1065 C1062 0.929 . S
S1066 N1067 1.613 . S
S1066 N1068 1.610 . S
N1067 S1066 1.613 . S
N1067 C1070 1.350 . S
N1068 S1066 1.610 . S
N1068 C1069 1.351 . S
C1069 C1063 1.428 . S
C1069 N1068 1.351 . S
C1069 C1070 1.434 . S
C1070 C1061 1.429 . S
C1070 N1067 1.350 . S
C1070 C1069 1.434 . S
C1071 C1072 1.369 . S
C1071 C1073 1.419 . S
C1071 H1075 0.930 . S
C1072 C1071 1.369 . S
C1072 C1081 1.429 . S
C1073 C1071 1.419 . S
C1073 C1074 1.363 . S
C1073 H1076 0.929 . S
C1074 C1073 1.363 . S
C1074 C1080 1.428 . S
H1075 C1071 0.930 . S
H1076 C1073 0.929 . S
S1077 N1078 1.613 . S
S1077 N1079 1.610 . S
N1078 S1077 1.613 . S
N1078 C1081 1.350 . S
N1079 S1077 1.610 . S
N1079 C1080 1.351 . S
C1080 C1074 1.428 . S
C1080 N1079 1.351 . S
C1080 C1081 1.434 . S
C1081 C1072 1.429 . S
C1081 N1078 1.350 . S
C1081 C1080 1.434 . S
C1082 C1083 1.369 . S
C1082 C1084 1.419 . S
C1082 H1086 0.930 . S
C1083 C1082 1.369 . S
C1083 C1092 1.429 . S
C1084 C1082 1.419 . S
C1084 C1085 1.363 . S
C1084 H1087 0.929 . S
C1085 C1084 1.363 . S
C1085 C1091 1.428 . S
H1086 C1082 0.930 . S
H1087 C1084 0.929 . S
S1088 N1089 1.613 . S
S1088 N1090 1.610 . S
N1089 S1088 1.613 . S
N1089 C1092 1.350 . S
N1090 S1088 1.610 . S
N1090 C1091 1.351 . S
C1091 C1085 1.428 . S
C1091 N1090 1.351 . S
C1091 C1092 1.434 . S
C1092 C1083 1.429 . S
C1092 N1089 1.350 . S
C1092 C1091 1.434 . S
C1093 C1094 1.369 . S
C1093 C1095 1.419 . S
C1093 H1097 0.930 . S
C1094 C1093 1.369 . S
C1094 C1103 1.429 . S
C1095 C1093 1.419 . S
C1095 C1096 1.363 . S
C1095 H1098 0.929 . S
C1096 C1095 1.363 . S
C1096 C1102 1.428 . S
H1097 C1093 0.930 . S
H1098 C1095 0.929 . S
S1099 N1100 1.613 . S
S1099 N1101 1.610 . S
N1100 S1099 1.613 . S
N1100 C1103 1.350 . S
N1101 S1099 1.610 . S
N1101 C1102 1.351 . S
C1102 C1096 1.428 . S
C1102 N1101 1.351 . S
C1102 C1103 1.434 . S
C1103 C1094 1.429 . S
C1103 N1100 1.350 . S
C1103 C1102 1.434 . S
C1104 C1105 1.369 . S
C1104 C1106 1.419 . S
C1104 H1108 0.930 . S
C1105 C1104 1.369 . S
C1105 C1114 1.429 . S
C1106 C1104 1.419 . S
C1106 C1107 1.363 . S
C1106 H1109 0.929 . S
C1107 C1106 1.363 . S
C1107 C1113 1.428 . S
H1108 C1104 0.930 . S
H1109 C1106 0.929 . S
S1110 N1111 1.613 . S
S1110 N1112 1.610 . S
N1111 S1110 1.613 . S
N1111 C1114 1.350 . S
N1112 S1110 1.610 . S
N1112 C1113 1.351 . S
C1113 C1107 1.428 . S
C1113 N1112 1.351 . S
C1113 C1114 1.434 . S
C1114 C1105 1.429 . S
C1114 N1111 1.350 . S
C1114 C1113 1.434 . S
C1115 C1116 1.369 . S
C1115 C1117 1.419 . S
C1115 H1119 0.930 . S
C1116 C1115 1.369 . S
C1116 C1125 1.429 . S
C1117 C1115 1.419 . S
C1117 C1118 1.363 . S
C1117 H1120 0.929 . S
C1118 C1117 1.363 . S
C1118 C1124 1.428 . S
H1119 C1115 0.930 . S
H1120 C1117 0.929 . S
S1121 N1122 1.613 . S
S1121 N1123 1.610 . S
N1122 S1121 1.613 . S
N1122 C1125 1.350 . S
N1123 S1121 1.610 . S
N1123 C1124 1.351 . S
C1124 C1118 1.428 . S
C1124 N1123 1.351 . S
C1124 C1125 1.434 . S
C1125 C1116 1.429 . S
C1125 N1122 1.350 . S
C1125 C1124 1.434 . S
C1126 C1127 1.369 . S
C1126 C1128 1.419 . S
C1126 H1130 0.930 . S
C1127 C1126 1.369 . S
C1127 C1136 1.429 . S
C1128 C1126 1.419 . S
C1128 C1129 1.363 . S
C1128 H1131 0.929 . S
C1129 C1128 1.363 . S
C1129 C1135 1.428 . S
H1130 C1126 0.930 . S
H1131 C1128 0.929 . S
S1132 N1133 1.613 . S
S1132 N1134 1.610 . S
N1133 S1132 1.613 . S
N1133 C1136 1.350 . S
N1134 S1132 1.610 . S
N1134 C1135 1.351 . S
C1135 C1129 1.428 . S
C1135 N1134 1.351 . S
C1135 C1136 1.434 . S
C1136 C1127 1.429 . S
C1136 N1133 1.350 . S
C1136 C1135 1.434 . S
C1137 C1138 1.369 . S
C1137 C1139 1.419 . S
C1137 H1141 0.930 . S
C1138 C1137 1.369 . S
C1138 C1147 1.429 . S
C1139 C1137 1.419 . S
C1139 C1140 1.363 . S
C1139 H1142 0.929 . S
C1140 C1139 1.363 . S
C1140 C1146 1.428 . S
H1141 C1137 0.930 . S
H1142 C1139 0.929 . S
S1143 N1144 1.613 . S
S1143 N1145 1.610 . S
N1144 S1143 1.613 . S
N1144 C1147 1.350 . S
N1145 S1143 1.610 . S
N1145 C1146 1.351 . S
C1146 C1140 1.428 . S
C1146 N1145 1.351 . S
C1146 C1147 1.434 . S
C1147 C1138 1.429 . S
C1147 N1144 1.350 . S
C1147 C1146 1.434 . S
C1148 C1149 1.369 . S
C1148 C1150 1.419 . S
C1148 H1152 0.930 . S
C1149 C1148 1.369 . S
C1149 C1158 1.429 . S
C1150 C1148 1.419 . S
C1150 C1151 1.363 . S
C1150 H1153 0.929 . S
C1151 C1150 1.363 . S
C1151 C1157 1.428 . S
H1152 C1148 0.930 . S
H1153 C1150 0.929 . S
S1154 N1155 1.613 . S
S1154 N1156 1.610 . S
N1155 S1154 1.613 . S
N1155 C1158 1.350 . S
N1156 S1154 1.610 . S
N1156 C1157 1.351 . S
C1157 C1151 1.428 . S
C1157 N1156 1.351 . S
C1157 C1158 1.434 . S
C1158 C1149 1.429 . S
C1158 N1155 1.350 . S
C1158 C1157 1.434 . S
C1159 C1160 1.369 . S
C1159 C1161 1.419 . S
C1159 H1163 0.930 . S
C1160 C1159 1.369 . S
C1160 C1169 1.429 . S
C1161 C1159 1.419 . S
C1161 C1162 1.363 . S
C1161 H1164 0.929 . S
C1162 C1161 1.363 . S
C1162 C1168 1.428 . S
H1163 C1159 0.930 . S
H1164 C1161 0.929 . S
S1165 N1166 1.613 . S
S1165 N1167 1.610 . S
N1166 S1165 1.613 . S
N1166 C1169 1.350 . S
N1167 S1165 1.610 . S
N1167 C1168 1.351 . S
C1168 C1162 1.428 . S
C1168 N1167 1.351 . S
C1168 C1169 1.434 . S
C1169 C1160 1.429 . S
C1169 N1166 1.350 . S
C1169 C1168 1.434 . S
C1170 C1171 1.369 . S
C1170 C1172 1.419 . S
C1170 H1174 0.930 . S
C1171 C1170 1.369 . S
C1171 C1180 1.429 . S
C1172 C1170 1.419 . S
C1172 C1173 1.363 . S
C1172 H1175 0.929 . S
C1173 C1172 1.363 . S
C1173 C1179 1.428 . S
H1174 C1170 0.930 . S
H1175 C1172 0.929 . S
S1176 N1177 1.613 . S
S1176 N1178 1.610 . S
N1177 S1176 1.613 . S
N1177 C1180 1.350 . S
N1178 S1176 1.610 . S
N1178 C1179 1.351 . S
C1179 C1173 1.428 . S
C1179 N1178 1.351 . S
C1179 C1180 1.434 . S
C1180 C1171 1.429 . S
C1180 N1177 1.350 . S
C1180 C1179 1.434 . S
C1181 C1182 1.369 . S
C1181 C1183 1.419 . S
C1181 H1185 0.930 . S
C1182 C1181 1.369 . S
C1182 C1191 1.429 . S
C1183 C1181 1.419 . S
C1183 C1184 1.363 . S
C1183 H1186 0.929 . S
C1184 C1183 1.363 . S
C1184 C1190 1.428 . S
H1185 C1181 0.930 . S
H1186 C1183 0.929 . S
S1187 N1188 1.613 . S
S1187 N1189 1.610 . S
N1188 S1187 1.613 . S
N1188 C1191 1.350 . S
N1189 S1187 1.610 . S
N1189 C1190 1.351 . S
C1190 C1184 1.428 . S
C1190 N1189 1.351 . S
C1190 C1191 1.434 . S
C1191 C1182 1.429 . S
C1191 N1188 1.350 . S
C1191 C1190 1.434 . S
C1192 C1193 1.369 . S
C1192 C1194 1.419 . S
C1192 H1196 0.930 . S
C1193 C1192 1.369 . S
C1193 C1202 1.429 . S
C1194 C1192 1.419 . S
C1194 C1195 1.363 . S
C1194 H1197 0.929 . S
C1195 C1194 1.363 . S
C1195 C1201 1.428 . S
H1196 C1192 0.930 . S
H1197 C1194 0.929 . S
S1198 N1199 1.613 . S
S1198 N1200 1.610 . S
N1199 S1198 1.613 . S
N1199 C1202 1.350 . S
N1200 S1198 1.610 . S
N1200 C1201 1.351 . S
C1201 C1195 1.428 . S
C1201 N1200 1.351 . S
C1201 C1202 1.434 . S
C1202 C1193 1.429 . S
C1202 N1199 1.350 . S
C1202 C1201 1.434 . S
C1203 C1204 1.369 . S
C1203 C1205 1.419 . S
C1203 H1207 0.930 . S
C1204 C1203 1.369 . S
C1204 C1213 1.429 . S
C1205 C1203 1.419 . S
C1205 C1206 1.363 . S
C1205 H1208 0.929 . S
C1206 C1205 1.363 . S
C1206 C1212 1.428 . S
H1207 C1203 0.930 . S
H1208 C1205 0.929 . S
S1209 N1210 1.613 . S
S1209 N1211 1.610 . S
N1210 S1209 1.613 . S
N1210 C1213 1.350 . S
N1211 S1209 1.610 . S
N1211 C1212 1.351 . S
C1212 C1206 1.428 . S
C1212 N1211 1.351 . S
C1212 C1213 1.434 . S
C1213 C1204 1.429 . S
C1213 N1210 1.350 . S
C1213 C1212 1.434 . S
C1214 C1215 1.369 . S
C1214 C1216 1.419 . S
C1214 H1218 0.930 . S
C1215 C1214 1.369 . S
C1215 C1224 1.429 . S
C1216 C1214 1.419 . S
C1216 C1217 1.363 . S
C1216 H1219 0.929 . S
C1217 C1216 1.363 . S
C1217 C1223 1.428 . S
H1218 C1214 0.930 . S
H1219 C1216 0.929 . S
S1220 N1221 1.613 . S
S1220 N1222 1.610 . S
N1221 S1220 1.613 . S
N1221 C1224 1.350 . S
N1222 S1220 1.610 . S
N1222 C1223 1.351 . S
C1223 C1217 1.428 . S
C1223 N1222 1.351 . S
C1223 C1224 1.434 . S
C1224 C1215 1.429 . S
C1224 N1221 1.350 . S
C1224 C1223 1.434 . S
C1225 C1226 1.369 . S
C1225 C1227 1.419 . S
C1225 H1229 0.930 . S
C1226 C1225 1.369 . S
C1226 C1235 1.429 . S
C1227 C1225 1.419 . S
C1227 C1228 1.363 . S
C1227 H1230 0.929 . S
C1228 C1227 1.363 . S
C1228 C1234 1.428 . S
H1229 C1225 0.930 . S
H1230 C1227 0.929 . S
S1231 N1232 1.613 . S
S1231 N1233 1.610 . S
N1232 S1231 1.613 . S
N1232 C1235 1.350 . S
N1233 S1231 1.610 . S
N1233 C1234 1.351 . S
C1234 C1228 1.428 . S
C1234 N1233 1.351 . S
C1234 C1235 1.434 . S
C1235 C1226 1.429 . S
C1235 N1232 1.350 . S
C1235 C1234 1.434 . S
C1236 C1237 1.369 . S
C1236 C1238 1.419 . S
C1236 H1240 0.930 . S
C1237 C1236 1.369 . S
C1237 C1246 1.429 . S
C1238 C1236 1.419 . S
C1238 C1239 1.363 . S
C1238 H1241 0.929 . S
C1239 C1238 1.363 . S
C1239 C1245 1.428 . S
H1240 C1236 0.930 . S
H1241 C1238 0.929 . S
S1242 N1243 1.613 . S
S1242 N1244 1.610 . S
N1243 S1242 1.613 . S
N1243 C1246 1.350 . S
N1244 S1242 1.610 . S
N1244 C1245 1.351 . S
C1245 C1239 1.428 . S
C1245 N1244 1.351 . S
C1245 C1246 1.434 . S
C1246 C1237 1.429 . S
C1246 N1243 1.350 . S
C1246 C1245 1.434 . S
C1247 C1248 1.369 . S
C1247 C1249 1.419 . S
C1247 H1251 0.930 . S
C1248 C1247 1.369 . S
C1248 C1257 1.429 . S
C1249 C1247 1.419 . S
C1249 C1250 1.363 . S
C1249 H1252 0.929 . S
C1250 C1249 1.363 . S
C1250 C1256 1.428 . S
H1251 C1247 0.930 . S
H1252 C1249 0.929 . S
S1253 N1254 1.613 . S
S1253 N1255 1.610 . S
N1254 S1253 1.613 . S
N1254 C1257 1.350 . S
N1255 S1253 1.610 . S
N1255 C1256 1.351 . S
C1256 C1250 1.428 . S
C1256 N1255 1.351 . S
C1256 C1257 1.434 . S
C1257 C1248 1.429 . S
C1257 N1254 1.350 . S
C1257 C1256 1.434 . S
C1258 C1259 1.369 . S
C1258 C1260 1.419 . S
C1258 H1262 0.930 . S
C1259 C1258 1.369 . S
C1259 C1268 1.429 . S
C1260 C1258 1.419 . S
C1260 C1261 1.363 . S
C1260 H1263 0.929 . S
C1261 C1260 1.363 . S
C1261 C1267 1.428 . S
H1262 C1258 0.930 . S
H1263 C1260 0.929 . S
S1264 N1265 1.613 . S
S1264 N1266 1.610 . S
N1265 S1264 1.613 . S
N1265 C1268 1.350 . S
N1266 S1264 1.610 . S
N1266 C1267 1.351 . S
C1267 C1261 1.428 . S
C1267 N1266 1.351 . S
C1267 C1268 1.434 . S
C1268 C1259 1.429 . S
C1268 N1265 1.350 . S
C1268 C1267 1.434 . S
C1269 C1270 1.369 . S
C1269 C1271 1.419 . S
C1269 H1273 0.930 . S
C1270 C1269 1.369 . S
C1270 C1279 1.429 . S
C1271 C1269 1.419 . S
C1271 C1272 1.363 . S
C1271 H1274 0.929 . S
C1272 C1271 1.363 . S
C1272 C1278 1.428 . S
H1273 C1269 0.930 . S
H1274 C1271 0.929 . S
S1275 N1276 1.613 . S
S1275 N1277 1.610 . S
N1276 S1275 1.613 . S
N1276 C1279 1.350 . S
N1277 S1275 1.610 . S
N1277 C1278 1.351 . S
C1278 C1272 1.428 . S
C1278 N1277 1.351 . S
C1278 C1279 1.434 . S
C1279 C1270 1.429 . S
C1279 N1276 1.350 . S
C1279 C1278 1.434 . S
C1280 C1281 1.369 . S
C1280 C1282 1.419 . S
C1280 H1284 0.930 . S
C1281 C1280 1.369 . S
C1281 C1290 1.429 . S
C1282 C1280 1.419 . S
C1282 C1283 1.363 . S
C1282 H1285 0.929 . S
C1283 C1282 1.363 . S
C1283 C1289 1.428 . S
H1284 C1280 0.930 . S
H1285 C1282 0.929 . S
S1286 N1287 1.613 . S
S1286 N1288 1.610 . S
N1287 S1286 1.613 . S
N1287 C1290 1.350 . S
N1288 S1286 1.610 . S
N1288 C1289 1.351 . S
C1289 C1283 1.428 . S
C1289 N1288 1.351 . S
C1289 C1290 1.434 . S
C1290 C1281 1.429 . S
C1290 N1287 1.350 . S
C1290 C1289 1.434 . S
C1291 C1292 1.369 . S
C1291 C1293 1.419 . S
C1291 H1295 0.930 . S
C1292 C1291 1.369 . S
C1292 C1301 1.429 . S
C1293 C1291 1.419 . S
C1293 C1294 1.363 . S
C1293 H1296 0.929 . S
C1294 C1293 1.363 . S
C1294 C1300 1.428 . S
H1295 C1291 0.930 . S
H1296 C1293 0.929 . S
S1297 N1298 1.613 . S
S1297 N1299 1.610 . S
N1298 S1297 1.613 . S
N1298 C1301 1.350 . S
N1299 S1297 1.610 . S
N1299 C1300 1.351 . S
C1300 C1294 1.428 . S
C1300 N1299 1.351 . S
C1300 C1301 1.434 . S
C1301 C1292 1.429 . S
C1301 N1298 1.350 . S
C1301 C1300 1.434 . S
C1302 C1303 1.369 . S
C1302 C1304 1.419 . S
C1302 H1306 0.930 . S
C1303 C1302 1.369 . S
C1303 C1312 1.429 . S
C1304 C1302 1.419 . S
C1304 C1305 1.363 . S
C1304 H1307 0.929 . S
C1305 C1304 1.363 . S
C1305 C1311 1.428 . S
H1306 C1302 0.930 . S
H1307 C1304 0.929 . S
S1308 N1309 1.613 . S
S1308 N1310 1.610 . S
N1309 S1308 1.613 . S
N1309 C1312 1.350 . S
N1310 S1308 1.610 . S
N1310 C1311 1.351 . S
C1311 C1305 1.428 . S
C1311 N1310 1.351 . S
C1311 C1312 1.434 . S
C1312 C1303 1.429 . S
C1312 N1309 1.350 . S
C1312 C1311 1.434 . S
C1313 C1314 1.369 . S
C1313 C1315 1.419 . S
C1313 H1317 0.930 . S
C1314 C1313 1.369 . S
C1314 C1323 1.429 . S
C1315 C1313 1.419 . S
C1315 C1316 1.363 . S
C1315 H1318 0.929 . S
C1316 C1315 1.363 . S
C1316 C1322 1.428 . S
H1317 C1313 0.930 . S
H1318 C1315 0.929 . S
S1319 N1320 1.613 . S
S1319 N1321 1.610 . S
N1320 S1319 1.613 . S
N1320 C1323 1.350 . S
N1321 S1319 1.610 . S
N1321 C1322 1.351 . S
C1322 C1316 1.428 . S
C1322 N1321 1.351 . S
C1322 C1323 1.434 . S
C1323 C1314 1.429 . S
C1323 N1320 1.350 . S
C1323 C1322 1.434 . S
C1324 C1325 1.369 . S
C1324 C1326 1.419 . S
C1324 H1328 0.930 . S
C1325 C1324 1.369 . S
C1325 C1334 1.429 . S
C1326 C1324 1.419 . S
C1326 C1327 1.363 . S
C1326 H1329 0.929 . S
C1327 C1326 1.363 . S
C1327 C1333 1.428 . S
H1328 C1324 0.930 . S
H1329 C1326 0.929 . S
S1330 N1331 1.613 . S
S1330 N1332 1.610 . S
N1331 S1330 1.613 . S
N1331 C1334 1.350 . S
N1332 S1330 1.610 . S
N1332 C1333 1.351 . S
C1333 C1327 1.428 . S
C1333 N1332 1.351 . S
C1333 C1334 1.434 . S
C1334 C1325 1.429 . S
C1334 N1331 1.350 . S
C1334 C1333 1.434 . S
C1335 C1336 1.369 . S
C1335 C1337 1.419 . S
C1335 H1339 0.930 . S
C1336 C1335 1.369 . S
C1336 C1345 1.429 . S
C1337 C1335 1.419 . S
C1337 C1338 1.363 . S
C1337 H1340 0.929 . S
C1338 C1337 1.363 . S
C1338 C1344 1.428 . S
H1339 C1335 0.930 . S
H1340 C1337 0.929 . S
S1341 N1342 1.613 . S
S1341 N1343 1.610 . S
N1342 S1341 1.613 . S
N1342 C1345 1.350 . S
N1343 S1341 1.610 . S
N1343 C1344 1.351 . S
C1344 C1338 1.428 . S
C1344 N1343 1.351 . S
C1344 C1345 1.434 . S
C1345 C1336 1.429 . S
C1345 N1342 1.350 . S
C1345 C1344 1.434 . S
C1346 C1347 1.369 . S
C1346 C1348 1.419 . S
C1346 H1350 0.930 . S
C1347 C1346 1.369 . S
C1347 C1356 1.429 . S
C1348 C1346 1.419 . S
C1348 C1349 1.363 . S
C1348 H1351 0.929 . S
C1349 C1348 1.363 . S
C1349 C1355 1.428 . S
H1350 C1346 0.930 . S
H1351 C1348 0.929 . S
S1352 N1353 1.613 . S
S1352 N1354 1.610 . S
N1353 S1352 1.613 . S
N1353 C1356 1.350 . S
N1354 S1352 1.610 . S
N1354 C1355 1.351 . S
C1355 C1349 1.428 . S
C1355 N1354 1.351 . S
C1355 C1356 1.434 . S
C1356 C1347 1.429 . S
C1356 N1353 1.350 . S
C1356 C1355 1.434 . S
C1357 C1358 1.369 . S
C1357 C1359 1.419 . S
C1357 H1361 0.930 . S
C1358 C1357 1.369 . S
C1358 C1367 1.429 . S
C1359 C1357 1.419 . S
C1359 C1360 1.363 . S
C1359 H1362 0.929 . S
C1360 C1359 1.363 . S
C1360 C1366 1.428 . S
H1361 C1357 0.930 . S
H1362 C1359 0.929 . S
S1363 N1364 1.613 . S
S1363 N1365 1.610 . S
N1364 S1363 1.613 . S
N1364 C1367 1.350 . S
N1365 S1363 1.610 . S
N1365 C1366 1.351 . S
C1366 C1360 1.428 . S
C1366 N1365 1.351 . S
C1366 C1367 1.434 . S
C1367 C1358 1.429 . S
C1367 N1364 1.350 . S
C1367 C1366 1.434 . S
C1368 C1369 1.369 . S
C1368 C1370 1.419 . S
C1368 H1372 0.930 . S
C1369 C1368 1.369 . S
C1369 C1378 1.429 . S
C1370 C1368 1.419 . S
C1370 C1371 1.363 . S
C1370 H1373 0.929 . S
C1371 C1370 1.363 . S
C1371 C1377 1.428 . S
H1372 C1368 0.930 . S
H1373 C1370 0.929 . S
S1374 N1375 1.613 . S
S1374 N1376 1.610 . S
N1375 S1374 1.613 . S
N1375 C1378 1.350 . S
N1376 S1374 1.610 . S
N1376 C1377 1.351 . S
C1377 C1371 1.428 . S
C1377 N1376 1.351 . S
C1377 C1378 1.434 . S
C1378 C1369 1.429 . S
C1378 N1375 1.350 . S
C1378 C1377 1.434 . S
C1379 C1380 1.369 . S
C1379 C1381 1.419 . S
C1379 H1383 0.930 . S
C1380 C1379 1.369 . S
C1380 C1389 1.429 . S
C1381 C1379 1.419 . S
C1381 C1382 1.363 . S
C1381 H1384 0.929 . S
C1382 C1381 1.363 . S
C1382 C1388 1.428 . S
H1383 C1379 0.930 . S
H1384 C1381 0.929 . S
S1385 N1386 1.613 . S
S1385 N1387 1.610 . S
N1386 S1385 1.613 . S
N1386 C1389 1.350 . S
N1387 S1385 1.610 . S
N1387 C1388 1.351 . S
C1388 C1382 1.428 . S
C1388 N1387 1.351 . S
C1388 C1389 1.434 . S
C1389 C1380 1.429 . S
C1389 N1386 1.350 . S
C1389 C1388 1.434 . S
C1390 C1391 1.369 . S
C1390 C1392 1.419 . S
C1390 H1394 0.930 . S
C1391 C1390 1.369 . S
C1391 C1400 1.429 . S
C1392 C1390 1.419 . S
C1392 C1393 1.363 . S
C1392 H1395 0.929 . S
C1393 C1392 1.363 . S
C1393 C1399 1.428 . S
H1394 C1390 0.930 . S
H1395 C1392 0.929 . S
S1396 N1397 1.613 . S
S1396 N1398 1.610 . S
N1397 S1396 1.613 . S
N1397 C1400 1.350 . S
N1398 S1396 1.610 . S
N1398 C1399 1.351 . S
C1399 C1393 1.428 . S
C1399 N1398 1.351 . S
C1399 C1400 1.434 . S
C1400 C1391 1.429 . S
C1400 N1397 1.350 . S
C1400 C1399 1.434 . S
C1401 C1402 1.369 . S
C1401 C1403 1.419 . S
C1401 H1405 0.930 . S
C1402 C1401 1.369 . S
C1402 C1411 1.429 . S
C1403 C1401 1.419 . S
C1403 C1404 1.363 . S
C1403 H1406 0.929 . S
C1404 C1403 1.363 . S
C1404 C1410 1.428 . S
H1405 C1401 0.930 . S
H1406 C1403 0.929 . S
S1407 N1408 1.613 . S
S1407 N1409 1.610 . S
N1408 S1407 1.613 . S
N1408 C1411 1.350 . S
N1409 S1407 1.610 . S
N1409 C1410 1.351 . S
C1410 C1404 1.428 . S
C1410 N1409 1.351 . S
C1410 C1411 1.434 . S
C1411 C1402 1.429 . S
C1411 N1408 1.350 . S
C1411 C1410 1.434 . S
C1412 C1413 1.369 . S
C1412 C1414 1.419 . S
C1412 H1416 0.930 . S
C1413 C1412 1.369 . S
C1413 C1422 1.429 . S
C1414 C1412 1.419 . S
C1414 C1415 1.363 . S
C1414 H1417 0.929 . S
C1415 C1414 1.363 . S
C1415 C1421 1.428 . S
H1416 C1412 0.930 . S
H1417 C1414 0.929 . S
S1418 N1419 1.613 . S
S1418 N1420 1.610 . S
N1419 S1418 1.613 . S
N1419 C1422 1.350 . S
N1420 S1418 1.610 . S
N1420 C1421 1.351 . S
C1421 C1415 1.428 . S
C1421 N1420 1.351 . S
C1421 C1422 1.434 . S
C1422 C1413 1.429 . S
C1422 N1419 1.350 . S
C1422 C1421 1.434 . S
C1423 C1424 1.369 . S
C1423 C1425 1.419 . S
C1423 H1427 0.930 . S
C1424 C1423 1.369 . S
C1424 C1433 1.429 . S
C1425 C1423 1.419 . S
C1425 C1426 1.363 . S
C1425 H1428 0.929 . S
C1426 C1425 1.363 . S
C1426 C1432 1.428 . S
H1427 C1423 0.930 . S
H1428 C1425 0.929 . S
S1429 N1430 1.613 . S
S1429 N1431 1.610 . S
N1430 S1429 1.613 . S
N1430 C1433 1.350 . S
N1431 S1429 1.610 . S
N1431 C1432 1.351 . S
C1432 C1426 1.428 . S
C1432 N1431 1.351 . S
C1432 C1433 1.434 . S
C1433 C1424 1.429 . S
C1433 N1430 1.350 . S
C1433 C1432 1.434 . S
C1434 C1435 1.369 . S
C1434 C1436 1.419 . S
C1434 H1438 0.930 . S
C1435 C1434 1.369 . S
C1435 C1444 1.429 . S
C1436 C1434 1.419 . S
C1436 C1437 1.363 . S
C1436 H1439 0.929 . S
C1437 C1436 1.363 . S
C1437 C1443 1.428 . S
H1438 C1434 0.930 . S
H1439 C1436 0.929 . S
S1440 N1441 1.613 . S
S1440 N1442 1.610 . S
N1441 S1440 1.613 . S
N1441 C1444 1.350 . S
N1442 S1440 1.610 . S
N1442 C1443 1.351 . S
C1443 C1437 1.428 . S
C1443 N1442 1.351 . S
C1443 C1444 1.434 . S
C1444 C1435 1.429 . S
C1444 N1441 1.350 . S
C1444 C1443 1.434 . S
C1445 C1446 1.369 . S
C1445 C1447 1.419 . S
C1445 H1449 0.930 . S
C1446 C1445 1.369 . S
C1446 C1455 1.429 . S
C1447 C1445 1.419 . S
C1447 C1448 1.363 . S
C1447 H1450 0.929 . S
C1448 C1447 1.363 . S
C1448 C1454 1.428 . S
H1449 C1445 0.930 . S
H1450 C1447 0.929 . S
S1451 N1452 1.613 . S
S1451 N1453 1.610 . S
N1452 S1451 1.613 . S
N1452 C1455 1.350 . S
N1453 S1451 1.610 . S
N1453 C1454 1.351 . S
C1454 C1448 1.428 . S
C1454 N1453 1.351 . S
C1454 C1455 1.434 . S
C1455 C1446 1.429 . S
C1455 N1452 1.350 . S
C1455 C1454 1.434 . S
C1456 C1457 1.369 . S
C1456 C1458 1.419 . S
C1456 H1460 0.930 . S
C1457 C1456 1.369 . S
C1457 C1466 1.429 . S
C1458 C1456 1.419 . S
C1458 C1459 1.363 . S
C1458 H1461 0.929 . S
C1459 C1458 1.363 . S
C1459 C1465 1.428 . S
H1460 C1456 0.930 . S
H1461 C1458 0.929 . S
S1462 N1463 1.613 . S
S1462 N1464 1.610 . S
N1463 S1462 1.613 . S
N1463 C1466 1.350 . S
N1464 S1462 1.610 . S
N1464 C1465 1.351 . S
C1465 C1459 1.428 . S
C1465 N1464 1.351 . S
C1465 C1466 1.434 . S
C1466 C1457 1.429 . S
C1466 N1463 1.350 . S
C1466 C1465 1.434 . S
C1467 C1468 1.369 . S
C1467 C1469 1.419 . S
C1467 H1471 0.930 . S
C1468 C1467 1.369 . S
C1468 C1477 1.429 . S
C1469 C1467 1.419 . S
C1469 C1470 1.363 . S
C1469 H1472 0.929 . S
C1470 C1469 1.363 . S
C1470 C1476 1.428 . S
H1471 C1467 0.930 . S
H1472 C1469 0.929 . S
S1473 N1474 1.613 . S
S1473 N1475 1.610 . S
N1474 S1473 1.613 . S
N1474 C1477 1.350 . S
N1475 S1473 1.610 . S
N1475 C1476 1.351 . S
C1476 C1470 1.428 . S
C1476 N1475 1.351 . S
C1476 C1477 1.434 . S
C1477 C1468 1.429 . S
C1477 N1474 1.350 . S
C1477 C1476 1.434 . S
C1478 C1479 1.369 . S
C1478 C1480 1.419 . S
C1478 H1482 0.930 . S
C1479 C1478 1.369 . S
C1479 C1488 1.429 . S
C1480 C1478 1.419 . S
C1480 C1481 1.363 . S
C1480 H1483 0.929 . S
C1481 C1480 1.363 . S
C1481 C1487 1.428 . S
H1482 C1478 0.930 . S
H1483 C1480 0.929 . S
S1484 N1485 1.613 . S
S1484 N1486 1.610 . S
N1485 S1484 1.613 . S
N1485 C1488 1.350 . S
N1486 S1484 1.610 . S
N1486 C1487 1.351 . S
C1487 C1481 1.428 . S
C1487 N1486 1.351 . S
C1487 C1488 1.434 . S
C1488 C1479 1.429 . S
C1488 N1485 1.350 . S
C1488 C1487 1.434 . S
C1489 C1490 1.369 . S
C1489 C1491 1.419 . S
C1489 H1493 0.930 . S
C1490 C1489 1.369 . S
C1490 C1499 1.429 . S
C1491 C1489 1.419 . S
C1491 C1492 1.363 . S
C1491 H1494 0.929 . S
C1492 C1491 1.363 . S
C1492 C1498 1.428 . S
H1493 C1489 0.930 . S
H1494 C1491 0.929 . S
S1495 N1496 1.613 . S
S1495 N1497 1.610 . S
N1496 S1495 1.613 . S
N1496 C1499 1.350 . S
N1497 S1495 1.610 . S
N1497 C1498 1.351 . S
C1498 C1492 1.428 . S
C1498 N1497 1.351 . S
C1498 C1499 1.434 . S
C1499 C1490 1.429 . S
C1499 N1496 1.350 . S
C1499 C1498 1.434 . S
C1500 C1501 1.369 . S
C1500 C1502 1.419 . S
C1500 H1504 0.930 . S
C1501 C1500 1.369 . S
C1501 C1510 1.429 . S
C1502 C1500 1.419 . S
C1502 C1503 1.363 . S
C1502 H1505 0.929 . S
C1503 C1502 1.363 . S
C1503 C1509 1.428 . S
H1504 C1500 0.930 . S
H1505 C1502 0.929 . S
S1506 N1507 1.613 . S
S1506 N1508 1.610 . S
N1507 S1506 1.613 . S
N1507 C1510 1.350 . S
N1508 S1506 1.610 . S
N1508 C1509 1.351 . S
C1509 C1503 1.428 . S
C1509 N1508 1.351 . S
C1509 C1510 1.434 . S
C1510 C1501 1.429 . S
C1510 N1507 1.350 . S
C1510 C1509 1.434 . S
C1511 C1512 1.369 . S
C1511 C1513 1.419 . S
C1511 H1515 0.930 . S
C1512 C1511 1.369 . S
C1512 C1521 1.429 . S
C1513 C1511 1.419 . S
C1513 C1514 1.363 . S
C1513 H1516 0.929 . S
C1514 C1513 1.363 . S
C1514 C1520 1.428 . S
H1515 C1511 0.930 . S
H1516 C1513 0.929 . S
S1517 N1518 1.613 . S
S1517 N1519 1.610 . S
N1518 S1517 1.613 . S
N1518 C1521 1.350 . S
N1519 S1517 1.610 . S
N1519 C1520 1.351 . S
C1520 C1514 1.428 . S
C1520 N1519 1.351 . S
C1520 C1521 1.434 . S
C1521 C1512 1.429 . S
C1521 N1518 1.350 . S
C1521 C1520 1.434 . S
C1522 C1523 1.369 . S
C1522 C1524 1.419 . S
C1522 H1526 0.930 . S
C1523 C1522 1.369 . S
C1523 C1532 1.429 . S
C1524 C1522 1.419 . S
C1524 C1525 1.363 . S
C1524 H1527 0.929 . S
C1525 C1524 1.363 . S
C1525 C1531 1.428 . S
H1526 C1522 0.930 . S
H1527 C1524 0.929 . S
S1528 N1529 1.613 . S
S1528 N1530 1.610 . S
N1529 S1528 1.613 . S
N1529 C1532 1.350 . S
N1530 S1528 1.610 . S
N1530 C1531 1.351 . S
C1531 C1525 1.428 . S
C1531 N1530 1.351 . S
C1531 C1532 1.434 . S
C1532 C1523 1.429 . S
C1532 N1529 1.350 . S
C1532 C1531 1.434 . S
C1533 C1534 1.369 . S
C1533 C1535 1.419 . S
C1533 H1537 0.930 . S
C1534 C1533 1.369 . S
C1534 C1543 1.429 . S
C1535 C1533 1.419 . S
C1535 C1536 1.363 . S
C1535 H1538 0.929 . S
C1536 C1535 1.363 . S
C1536 C1542 1.428 . S
H1537 C1533 0.930 . S
H1538 C1535 0.929 . S
S1539 N1540 1.613 . S
S1539 N1541 1.610 . S
N1540 S1539 1.613 . S
N1540 C1543 1.350 . S
N1541 S1539 1.610 . S
N1541 C1542 1.351 . S
C1542 C1536 1.428 . S
C1542 N1541 1.351 . S
C1542 C1543 1.434 . S
C1543 C1534 1.429 . S
C1543 N1540 1.350 . S
C1543 C1542 1.434 . S
C1544 C1545 1.369 . S
C1544 C1546 1.419 . S
C1544 H1548 0.930 . S
C1545 C1544 1.369 . S
C1545 C1554 1.429 . S
C1546 C1544 1.419 . S
C1546 C1547 1.363 . S
C1546 H1549 0.929 . S
C1547 C1546 1.363 . S
C1547 C1553 1.428 . S
H1548 C1544 0.930 . S
H1549 C1546 0.929 . S
S1550 N1551 1.613 . S
S1550 N1552 1.610 . S
N1551 S1550 1.613 . S
N1551 C1554 1.350 . S
N1552 S1550 1.610 . S
N1552 C1553 1.351 . S
C1553 C1547 1.428 . S
C1553 N1552 1.351 . S
C1553 C1554 1.434 . S
C1554 C1545 1.429 . S
C1554 N1551 1.350 . S
C1554 C1553 1.434 . S
C1555 C1556 1.369 . S
C1555 C1557 1.419 . S
C1555 H1559 0.930 . S
C1556 C1555 1.369 . S
C1556 C1565 1.429 . S
C1557 C1555 1.419 . S
C1557 C1558 1.363 . S
C1557 H1560 0.929 . S
C1558 C1557 1.363 . S
C1558 C1564 1.428 . S
H1559 C1555 0.930 . S
H1560 C1557 0.929 . S
S1561 N1562 1.613 . S
S1561 N1563 1.610 . S
N1562 S1561 1.613 . S
N1562 C1565 1.350 . S
N1563 S1561 1.610 . S
N1563 C1564 1.351 . S
C1564 C1558 1.428 . S
C1564 N1563 1.351 . S
C1564 C1565 1.434 . S
C1565 C1556 1.429 . S
C1565 N1562 1.350 . S
C1565 C1564 1.434 . S
C1566 C1567 1.369 . S
C1566 C1568 1.419 . S
C1566 H1570 0.930 . S
C1567 C1566 1.369 . S
C1567 C1576 1.429 . S
C1568 C1566 1.419 . S
C1568 C1569 1.363 . S
C1568 H1571 0.929 . S
C1569 C1568 1.363 . S
C1569 C1575 1.428 . S
H1570 C1566 0.930 . S
H1571 C1568 0.929 . S
S1572 N1573 1.613 . S
S1572 N1574 1.610 . S
N1573 S1572 1.613 . S
N1573 C1576 1.350 . S
N1574 S1572 1.610 . S
N1574 C1575 1.351 . S
C1575 C1569 1.428 . S
C1575 N1574 1.351 . S
C1575 C1576 1.434 . S
C1576 C1567 1.429 . S
C1576 N1573 1.350 . S
C1576 C1575 1.434 . S
C1577 C1578 1.369 . S
C1577 C1579 1.419 . S
C1577 H1581 0.930 . S
C1578 C1577 1.369 . S
C1578 C1587 1.429 . S
C1579 C1577 1.419 . S
C1579 C1580 1.363 . S
C1579 H1582 0.929 . S
C1580 C1579 1.363 . S
C1580 C1586 1.428 . S
H1581 C1577 0.930 . S
H1582 C1579 0.929 . S
S1583 N1584 1.613 . S
S1583 N1585 1.610 . S
N1584 S1583 1.613 . S
N1584 C1587 1.350 . S
N1585 S1583 1.610 . S
N1585 C1586 1.351 . S
C1586 C1580 1.428 . S
C1586 N1585 1.351 . S
C1586 C1587 1.434 . S
C1587 C1578 1.429 . S
C1587 N1584 1.350 . S
C1587 C1586 1.434 . S
C1588 C1589 1.369 . S
C1588 C1590 1.419 . S
C1588 H1592 0.930 . S
C1589 C1588 1.369 . S
C1589 C1598 1.429 . S
C1590 C1588 1.419 . S
C1590 C1591 1.363 . S
C1590 H1593 0.929 . S
C1591 C1590 1.363 . S
C1591 C1597 1.428 . S
H1592 C1588 0.930 . S
H1593 C1590 0.929 . S
S1594 N1595 1.613 . S
S1594 N1596 1.610 . S
N1595 S1594 1.613 . S
N1595 C1598 1.350 . S
N1596 S1594 1.610 . S
N1596 C1597 1.351 . S
C1597 C1591 1.428 . S
C1597 N1596 1.351 . S
C1597 C1598 1.434 . S
C1598 C1589 1.429 . S
C1598 N1595 1.350 . S
C1598 C1597 1.434 . S
C1599 C1600 1.369 . S
C1599 C1601 1.419 . S
C1599 H1603 0.930 . S
C1600 C1599 1.369 . S
C1600 C1609 1.429 . S
C1601 C1599 1.419 . S
C1601 C1602 1.363 . S
C1601 H1604 0.929 . S
C1602 C1601 1.363 . S
C1602 C1608 1.428 . S
H1603 C1599 0.930 . S
H1604 C1601 0.929 . S
S1605 N1606 1.613 . S
S1605 N1607 1.610 . S
N1606 S1605 1.613 . S
N1606 C1609 1.350 . S
N1607 S1605 1.610 . S
N1607 C1608 1.351 . S
C1608 C1602 1.428 . S
C1608 N1607 1.351 . S
C1608 C1609 1.434 . S
C1609 C1600 1.429 . S
C1609 N1606 1.350 . S
C1609 C1608 1.434 . S
C1610 C1611 1.369 . S
C1610 C1612 1.419 . S
C1610 H1614 0.930 . S
C1611 C1610 1.369 . S
C1611 C1620 1.429 . S
C1612 C1610 1.419 . S
C1612 C1613 1.363 . S
C1612 H1615 0.929 . S
C1613 C1612 1.363 . S
C1613 C1619 1.428 . S
H1614 C1610 0.930 . S
H1615 C1612 0.929 . S
S1616 N1617 1.613 . S
S1616 N1618 1.610 . S
N1617 S1616 1.613 . S
N1617 C1620 1.350 . S
N1618 S1616 1.610 . S
N1618 C1619 1.351 . S
C1619 C1613 1.428 . S
C1619 N1618 1.351 . S
C1619 C1620 1.434 . S
C1620 C1611 1.429 . S
C1620 N1617 1.350 . S
C1620 C1619 1.434 . S
C1621 C1622 1.369 . S
C1621 C1623 1.419 . S
C1621 H1625 0.930 . S
C1622 C1621 1.369 . S
C1622 C1631 1.429 . S
C1623 C1621 1.419 . S
C1623 C1624 1.363 . S
C1623 H1626 0.929 . S
C1624 C1623 1.363 . S
C1624 C1630 1.428 . S
H1625 C1621 0.930 . S
H1626 C1623 0.929 . S
S1627 N1628 1.613 . S
S1627 N1629 1.610 . S
N1628 S1627 1.613 . S
N1628 C1631 1.350 . S
N1629 S1627 1.610 . S
N1629 C1630 1.351 . S
C1630 C1624 1.428 . S
C1630 N1629 1.351 . S
C1630 C1631 1.434 . S
C1631 C1622 1.429 . S
C1631 N1628 1.350 . S
C1631 C1630 1.434 . S
C1632 C1633 1.369 . S
C1632 C1634 1.419 . S
C1632 H1636 0.930 . S
C1633 C1632 1.369 . S
C1633 C1642 1.429 . S
C1634 C1632 1.419 . S
C1634 C1635 1.363 . S
C1634 H1637 0.929 . S
C1635 C1634 1.363 . S
C1635 C1641 1.428 . S
H1636 C1632 0.930 . S
H1637 C1634 0.929 . S
S1638 N1639 1.613 . S
S1638 N1640 1.610 . S
N1639 S1638 1.613 . S
N1639 C1642 1.350 . S
N1640 S1638 1.610 . S
N1640 C1641 1.351 . S
C1641 C1635 1.428 . S
C1641 N1640 1.351 . S
C1641 C1642 1.434 . S
C1642 C1633 1.429 . S
C1642 N1639 1.350 . S
C1642 C1641 1.434 . S
C1643 C1644 1.369 . S
C1643 C1645 1.419 . S
C1643 H1647 0.930 . S
C1644 C1643 1.369 . S
C1644 C1653 1.429 . S
C1645 C1643 1.419 . S
C1645 C1646 1.363 . S
C1645 H1648 0.929 . S
C1646 C1645 1.363 . S
C1646 C1652 1.428 . S
H1647 C1643 0.930 . S
H1648 C1645 0.929 . S
S1649 N1650 1.613 . S
S1649 N1651 1.610 . S
N1650 S1649 1.613 . S
N1650 C1653 1.350 . S
N1651 S1649 1.610 . S
N1651 C1652 1.351 . S
C1652 C1646 1.428 . S
C1652 N1651 1.351 . S
C1652 C1653 1.434 . S
C1653 C1644 1.429 . S
C1653 N1650 1.350 . S
C1653 C1652 1.434 . S
C1654 C1655 1.369 . S
C1654 C1656 1.419 . S
C1654 H1658 0.930 . S
C1655 C1654 1.369 . S
C1655 C1664 1.429 . S
C1656 C1654 1.419 . S
C1656 C1657 1.363 . S
C1656 H1659 0.929 . S
C1657 C1656 1.363 . S
C1657 C1663 1.428 . S
H1658 C1654 0.930 . S
H1659 C1656 0.929 . S
S1660 N1661 1.613 . S
S1660 N1662 1.610 . S
N1661 S1660 1.613 . S
N1661 C1664 1.350 . S
N1662 S1660 1.610 . S
N1662 C1663 1.351 . S
C1663 C1657 1.428 . S
C1663 N1662 1.351 . S
C1663 C1664 1.434 . S
C1664 C1655 1.429 . S
C1664 N1661 1.350 . S
C1664 C1663 1.434 . S
C1665 C1666 1.369 . S
C1665 C1667 1.419 . S
C1665 H1669 0.930 . S
C1666 C1665 1.369 . S
C1666 C1675 1.429 . S
C1667 C1665 1.419 . S
C1667 C1668 1.363 . S
C1667 H1670 0.929 . S
C1668 C1667 1.363 . S
C1668 C1674 1.428 . S
H1669 C1665 0.930 . S
H1670 C1667 0.929 . S
S1671 N1672 1.613 . S
S1671 N1673 1.610 . S
N1672 S1671 1.613 . S
N1672 C1675 1.350 . S
N1673 S1671 1.610 . S
N1673 C1674 1.351 . S
C1674 C1668 1.428 . S
C1674 N1673 1.351 . S
C1674 C1675 1.434 . S
C1675 C1666 1.429 . S
C1675 N1672 1.350 . S
C1675 C1674 1.434 . S
C1676 C1677 1.369 . S
C1676 C1678 1.419 . S
C1676 H1680 0.930 . S
C1677 C1676 1.369 . S
C1677 C1686 1.429 . S
C1678 C1676 1.419 . S
C1678 C1679 1.363 . S
C1678 H1681 0.929 . S
C1679 C1678 1.363 . S
C1679 C1685 1.428 . S
H1680 C1676 0.930 . S
H1681 C1678 0.929 . S
S1682 N1683 1.613 . S
S1682 N1684 1.610 . S
N1683 S1682 1.613 . S
N1683 C1686 1.350 . S
N1684 S1682 1.610 . S
N1684 C1685 1.351 . S
C1685 C1679 1.428 . S
C1685 N1684 1.351 . S
C1685 C1686 1.434 . S
C1686 C1677 1.429 . S
C1686 N1683 1.350 . S
C1686 C1685 1.434 . S
C1687 C1688 1.369 . S
C1687 C1689 1.419 . S
C1687 H1691 0.930 . S
C1688 C1687 1.369 . S
C1688 C1697 1.429 . S
C1689 C1687 1.419 . S
C1689 C1690 1.363 . S
C1689 H1692 0.929 . S
C1690 C1689 1.363 . S
C1690 C1696 1.428 . S
H1691 C1687 0.930 . S
H1692 C1689 0.929 . S
S1693 N1694 1.613 . S
S1693 N1695 1.610 . S
N1694 S1693 1.613 . S
N1694 C1697 1.350 . S
N1695 S1693 1.610 . S
N1695 C1696 1.351 . S
C1696 C1690 1.428 . S
C1696 N1695 1.351 . S
C1696 C1697 1.434 . S
C1697 C1688 1.429 . S
C1697 N1694 1.350 . S
C1697 C1696 1.434 . S
C1698 C1699 1.369 . S
C1698 C1700 1.419 . S
C1698 H1702 0.930 . S
C1699 C1698 1.369 . S
C1699 C1708 1.429 . S
C1700 C1698 1.419 . S
C1700 C1701 1.363 . S
C1700 H1703 0.929 . S
C1701 C1700 1.363 . S
C1701 C1707 1.428 . S
H1702 C1698 0.930 . S
H1703 C1700 0.929 . S
S1704 N1705 1.613 . S
S1704 N1706 1.610 . S
N1705 S1704 1.613 . S
N1705 C1708 1.350 . S
N1706 S1704 1.610 . S
N1706 C1707 1.351 . S
C1707 C1701 1.428 . S
C1707 N1706 1.351 . S
C1707 C1708 1.434 . S
C1708 C1699 1.429 . S
C1708 N1705 1.350 . S
C1708 C1707 1.434 . S
C1709 C1710 1.369 . S
C1709 C1711 1.419 . S
C1709 H1713 0.930 . S
C1710 C1709 1.369 . S
C1710 C1719 1.429 . S
C1711 C1709 1.419 . S
C1711 C1712 1.363 . S
C1711 H1714 0.929 . S
C1712 C1711 1.363 . S
C1712 C1718 1.428 . S
H1713 C1709 0.930 . S
H1714 C1711 0.929 . S
S1715 N1716 1.613 . S
S1715 N1717 1.610 . S
N1716 S1715 1.613 . S
N1716 C1719 1.350 . S
N1717 S1715 1.610 . S
N1717 C1718 1.351 . S
C1718 C1712 1.428 . S
C1718 N1717 1.351 . S
C1718 C1719 1.434 . S
C1719 C1710 1.429 . S
C1719 N1716 1.350 . S
C1719 C1718 1.434 . S
C1720 C1721 1.369 . S
C1720 C1722 1.419 . S
C1720 H1724 0.930 . S
C1721 C1720 1.369 . S
C1721 C1730 1.429 . S
C1722 C1720 1.419 . S
C1722 C1723 1.363 . S
C1722 H1725 0.929 . S
C1723 C1722 1.363 . S
C1723 C1729 1.428 . S
H1724 C1720 0.930 . S
H1725 C1722 0.929 . S
S1726 N1727 1.613 . S
S1726 N1728 1.610 . S
N1727 S1726 1.613 . S
N1727 C1730 1.350 . S
N1728 S1726 1.610 . S
N1728 C1729 1.351 . S
C1729 C1723 1.428 . S
C1729 N1728 1.351 . S
C1729 C1730 1.434 . S
C1730 C1721 1.429 . S
C1730 N1727 1.350 . S
C1730 C1729 1.434 . S
C1731 C1732 1.369 . S
C1731 C1733 1.419 . S
C1731 H1735 0.930 . S
C1732 C1731 1.369 . S
C1732 C1741 1.429 . S
C1733 C1731 1.419 . S
C1733 C1734 1.363 . S
C1733 H1736 0.929 . S
C1734 C1733 1.363 . S
C1734 C1740 1.428 . S
H1735 C1731 0.930 . S
H1736 C1733 0.929 . S
S1737 N1738 1.613 . S
S1737 N1739 1.610 . S
N1738 S1737 1.613 . S
N1738 C1741 1.350 . S
N1739 S1737 1.610 . S
N1739 C1740 1.351 . S
C1740 C1734 1.428 . S
C1740 N1739 1.351 . S
C1740 C1741 1.434 . S
C1741 C1732 1.429 . S
C1741 N1738 1.350 . S
C1741 C1740 1.434 . S
C1742 C1743 1.369 . S
C1742 C1744 1.419 . S
C1742 H1746 0.930 . S
C1743 C1742 1.369 . S
C1743 C1752 1.429 . S
C1744 C1742 1.419 . S
C1744 C1745 1.363 . S
C1744 H1747 0.929 . S
C1745 C1744 1.363 . S
C1745 C1751 1.428 . S
H1746 C1742 0.930 . S
H1747 C1744 0.929 . S
S1748 N1749 1.613 . S
S1748 N1750 1.610 . S
N1749 S1748 1.613 . S
N1749 C1752 1.350 . S
N1750 S1748 1.610 . S
N1750 C1751 1.351 . S
C1751 C1745 1.428 . S
C1751 N1750 1.351 . S
C1751 C1752 1.434 . S
C1752 C1743 1.429 . S
C1752 N1749 1.350 . S
C1752 C1751 1.434 . S
C1753 C1754 1.369 . S
C1753 C1755 1.419 . S
C1753 H1757 0.930 . S
C1754 C1753 1.369 . S
C1754 C1763 1.429 . S
C1755 C1753 1.419 . S
C1755 C1756 1.363 . S
C1755 H1758 0.929 . S
C1756 C1755 1.363 . S
C1756 C1762 1.428 . S
H1757 C1753 0.930 . S
H1758 C1755 0.929 . S
S1759 N1760 1.613 . S
S1759 N1761 1.610 . S
N1760 S1759 1.613 . S
N1760 C1763 1.350 . S
N1761 S1759 1.610 . S
N1761 C1762 1.351 . S
C1762 C1756 1.428 . S
C1762 N1761 1.351 . S
C1762 C1763 1.434 . S
C1763 C1754 1.429 . S
C1763 N1760 1.350 . S
C1763 C1762 1.434 . S
C1764 C1765 1.369 . S
C1764 C1766 1.419 . S
C1764 H1768 0.930 . S
C1765 C1764 1.369 . S
C1765 C1774 1.429 . S
C1766 C1764 1.419 . S
C1766 C1767 1.363 . S
C1766 H1769 0.929 . S
C1767 C1766 1.363 . S
C1767 C1773 1.428 . S
H1768 C1764 0.930 . S
H1769 C1766 0.929 . S
S1770 N1771 1.613 . S
S1770 N1772 1.610 . S
N1771 S1770 1.613 . S
N1771 C1774 1.350 . S
N1772 S1770 1.610 . S
N1772 C1773 1.351 . S
C1773 C1767 1.428 . S
C1773 N1772 1.351 . S
C1773 C1774 1.434 . S
C1774 C1765 1.429 . S
C1774 N1771 1.350 . S
C1774 C1773 1.434 . S
C1775 C1776 1.369 . S
C1775 C1777 1.419 . S
C1775 H1779 0.930 . S
C1776 C1775 1.369 . S
C1776 C1785 1.429 . S
C1777 C1775 1.419 . S
C1777 C1778 1.363 . S
C1777 H1780 0.929 . S
C1778 C1777 1.363 . S
C1778 C1784 1.428 . S
H1779 C1775 0.930 . S
H1780 C1777 0.929 . S
S1781 N1782 1.613 . S
S1781 N1783 1.610 . S
N1782 S1781 1.613 . S
N1782 C1785 1.350 . S
N1783 S1781 1.610 . S
N1783 C1784 1.351 . S
C1784 C1778 1.428 . S
C1784 N1783 1.351 . S
C1784 C1785 1.434 . S
C1785 C1776 1.429 . S
C1785 N1782 1.350 . S
C1785 C1784 1.434 . S
C1786 C1787 1.369 . S
C1786 C1788 1.419 . S
C1786 H1790 0.930 . S
C1787 C1786 1.369 . S
C1787 C1796 1.429 . S
C1788 C1786 1.419 . S
C1788 C1789 1.363 . S
C1788 H1791 0.929 . S
C1789 C1788 1.363 . S
C1789 C1795 1.428 . S
H1790 C1786 0.930 . S
H1791 C1788 0.929 . S
S1792 N1793 1.613 . S
S1792 N1794 1.610 . S
N1793 S1792 1.613 . S
N1793 C1796 1.350 . S
N1794 S1792 1.610 . S
N1794 C1795 1.351 . S
C1795 C1789 1.428 . S
C1795 N1794 1.351 . S
C1795 C1796 1.434 . S
C1796 C1787 1.429 . S
C1796 N1793 1.350 . S
C1796 C1795 1.434 . S
C1797 C1798 1.369 . S
C1797 C1799 1.419 . S
C1797 H1801 0.930 . S
C1798 C1797 1.369 . S
C1798 C1807 1.429 . S
C1799 C1797 1.419 . S
C1799 C1800 1.363 . S
C1799 H1802 0.929 . S
C1800 C1799 1.363 . S
C1800 C1806 1.428 . S
H1801 C1797 0.930 . S
H1802 C1799 0.929 . S
S1803 N1804 1.613 . S
S1803 N1805 1.610 . S
N1804 S1803 1.613 . S
N1804 C1807 1.350 . S
N1805 S1803 1.610 . S
N1805 C1806 1.351 . S
C1806 C1800 1.428 . S
C1806 N1805 1.351 . S
C1806 C1807 1.434 . S
C1807 C1798 1.429 . S
C1807 N1804 1.350 . S
C1807 C1806 1.434 . S
C1808 C1809 1.369 . S
C1808 C1810 1.419 . S
C1808 H1812 0.930 . S
C1809 C1808 1.369 . S
C1809 C1818 1.429 . S
C1810 C1808 1.419 . S
C1810 C1811 1.363 . S
C1810 H1813 0.929 . S
C1811 C1810 1.363 . S
C1811 C1817 1.428 . S
H1812 C1808 0.930 . S
H1813 C1810 0.929 . S
S1814 N1815 1.613 . S
S1814 N1816 1.610 . S
N1815 S1814 1.613 . S
N1815 C1818 1.350 . S
N1816 S1814 1.610 . S
N1816 C1817 1.351 . S
C1817 C1811 1.428 . S
C1817 N1816 1.351 . S
C1817 C1818 1.434 . S
C1818 C1809 1.429 . S
C1818 N1815 1.350 . S
C1818 C1817 1.434 . S
C1819 C1820 1.369 . S
C1819 C1821 1.419 . S
C1819 H1823 0.930 . S
C1820 C1819 1.369 . S
C1820 C1829 1.429 . S
C1821 C1819 1.419 . S
C1821 C1822 1.363 . S
C1821 H1824 0.929 . S
C1822 C1821 1.363 . S
C1822 C1828 1.428 . S
H1823 C1819 0.930 . S
H1824 C1821 0.929 . S
S1825 N1826 1.613 . S
S1825 N1827 1.610 . S
N1826 S1825 1.613 . S
N1826 C1829 1.350 . S
N1827 S1825 1.610 . S
N1827 C1828 1.351 . S
C1828 C1822 1.428 . S
C1828 N1827 1.351 . S
C1828 C1829 1.434 . S
C1829 C1820 1.429 . S
C1829 N1826 1.350 . S
C1829 C1828 1.434 . S
C1830 C1831 1.369 . S
C1830 C1832 1.419 . S
C1830 H1834 0.930 . S
C1831 C1830 1.369 . S
C1831 C1840 1.429 . S
C1832 C1830 1.419 . S
C1832 C1833 1.363 . S
C1832 H1835 0.929 . S
C1833 C1832 1.363 . S
C1833 C1839 1.428 . S
H1834 C1830 0.930 . S
H1835 C1832 0.929 . S
S1836 N1837 1.613 . S
S1836 N1838 1.610 . S
N1837 S1836 1.613 . S
N1837 C1840 1.350 . S
N1838 S1836 1.610 . S
N1838 C1839 1.351 . S
C1839 C1833 1.428 . S
C1839 N1838 1.351 . S
C1839 C1840 1.434 . S
C1840 C1831 1.429 . S
C1840 N1837 1.350 . S
C1840 C1839 1.434 . S
C1841 C1842 1.369 . S
C1841 C1843 1.419 . S
C1841 H1845 0.930 . S
C1842 C1841 1.369 . S
C1842 C1851 1.429 . S
C1843 C1841 1.419 . S
C1843 C1844 1.363 . S
C1843 H1846 0.929 . S
C1844 C1843 1.363 . S
C1844 C1850 1.428 . S
H1845 C1841 0.930 . S
H1846 C1843 0.929 . S
S1847 N1848 1.613 . S
S1847 N1849 1.610 . S
N1848 S1847 1.613 . S
N1848 C1851 1.350 . S
N1849 S1847 1.610 . S
N1849 C1850 1.351 . S
C1850 C1844 1.428 . S
C1850 N1849 1.351 . S
C1850 C1851 1.434 . S
C1851 C1842 1.429 . S
C1851 N1848 1.350 . S
C1851 C1850 1.434 . S
C1852 C1853 1.369 . S
C1852 C1854 1.419 . S
C1852 H1856 0.930 . S
C1853 C1852 1.369 . S
C1853 C1862 1.429 . S
C1854 C1852 1.419 . S
C1854 C1855 1.363 . S
C1854 H1857 0.929 . S
C1855 C1854 1.363 . S
C1855 C1861 1.428 . S
H1856 C1852 0.930 . S
H1857 C1854 0.929 . S
S1858 N1859 1.613 . S
S1858 N1860 1.610 . S
N1859 S1858 1.613 . S
N1859 C1862 1.350 . S
N1860 S1858 1.610 . S
N1860 C1861 1.351 . S
C1861 C1855 1.428 . S
C1861 N1860 1.351 . S
C1861 C1862 1.434 . S
C1862 C1853 1.429 . S
C1862 N1859 1.350 . S
C1862 C1861 1.434 . S
C1863 C1864 1.369 . S
C1863 C1865 1.419 . S
C1863 H1867 0.930 . S
C1864 C1863 1.369 . S
C1864 C1873 1.429 . S
C1865 C1863 1.419 . S
C1865 C1866 1.363 . S
C1865 H1868 0.929 . S
C1866 C1865 1.363 . S
C1866 C1872 1.428 . S
H1867 C1863 0.930 . S
H1868 C1865 0.929 . S
S1869 N1870 1.613 . S
S1869 N1871 1.610 . S
N1870 S1869 1.613 . S
N1870 C1873 1.350 . S
N1871 S1869 1.610 . S
N1871 C1872 1.351 . S
C1872 C1866 1.428 . S
C1872 N1871 1.351 . S
C1872 C1873 1.434 . S
C1873 C1864 1.429 . S
C1873 N1870 1.350 . S
C1873 C1872 1.434 . S
C1874 C1875 1.369 . S
C1874 C1876 1.419 . S
C1874 H1878 0.930 . S
C1875 C1874 1.369 . S
C1875 C1884 1.429 . S
C1876 C1874 1.419 . S
C1876 C1877 1.363 . S
C1876 H1879 0.929 . S
C1877 C1876 1.363 . S
C1877 C1883 1.428 . S
H1878 C1874 0.930 . S
H1879 C1876 0.929 . S
S1880 N1881 1.613 . S
S1880 N1882 1.610 . S
N1881 S1880 1.613 . S
N1881 C1884 1.350 . S
N1882 S1880 1.610 . S
N1882 C1883 1.351 . S
C1883 C1877 1.428 . S
C1883 N1882 1.351 . S
C1883 C1884 1.434 . S
C1884 C1875 1.429 . S
C1884 N1881 1.350 . S
C1884 C1883 1.434 . S
C1885 C1886 1.369 . S
C1885 C1887 1.419 . S
C1885 H1889 0.930 . S
C1886 C1885 1.369 . S
C1886 C1895 1.429 . S
C1887 C1885 1.419 . S
C1887 C1888 1.363 . S
C1887 H1890 0.929 . S
C1888 C1887 1.363 . S
C1888 C1894 1.428 . S
H1889 C1885 0.930 . S
H1890 C1887 0.929 . S
S1891 N1892 1.613 . S
S1891 N1893 1.610 . S
N1892 S1891 1.613 . S
N1892 C1895 1.350 . S
N1893 S1891 1.610 . S
N1893 C1894 1.351 . S
C1894 C1888 1.428 . S
C1894 N1893 1.351 . S
C1894 C1895 1.434 . S
C1895 C1886 1.429 . S
C1895 N1892 1.350 . S
C1895 C1894 1.434 . S
C843 N300 1.467 . S
C841 C5 1.520 . S
C854 C327 1.610 . S
C852 C16 1.611 . S
C863 C23 1.534 . S
C865 C341 1.530 . S
C876 N359 1.456 . S
C874 C34 1.485 . S
C885 C43 1.580 . S
C887 C364 1.579 . S
C896 C50 1.519 . S
C898 C304 1.521 . S
C907 C58 1.435 . S
C909 N323 1.402 . S
C920 N336 1.455 . S
C918 C68 1.491 . S
C931 N382 1.414 . S
C929 C4 1.452 . S
C940 C13 1.551 . S
C942 N405 1.533 . S
C951 C25 1.562 . S
C953 N428 1.558 . S
C964 N461 1.418 . S
C962 C32 1.457 . S
C973 C41 1.561 . S
C975 C488 1.545 . S
C986 C511 1.589 . S
C984 C52 1.590 . S
C995 C61 1.509 . S
C997 C534 1.512 . S
C1008 C548 1.445 . S
C1006 C67 1.447 . S
C1017 C7 1.472 . S
C1019 C465 1.470 . S
C1028 C40 1.494 . S
C1030 N507 1.458 . S
C1041 N530 1.447 . S
C1039 C49 1.490 . S
C1050 C59 1.491 . S
C1052 N543 1.456 . S
C1063 N484 1.413 . S
C1061 C70 1.465 . S
C1074 C410 1.666 . S
C1072 C22 1.671 . S
C1083 C31 1.508 . S
C1085 C433 1.504 . S
C1096 C387 1.614 . S
C1094 C14 1.616 . S
C1107 C580 1.468 . S
C1105 C77 1.472 . S
C1116 C88 1.599 . S
C1118 C594 1.600 . S
C1127 C95 1.509 . S
C1129 N622 1.464 . S
C1140 N635 1.435 . S
C1138 C106 1.469 . S
C1149 C115 1.593 . S
C1151 C640 1.593 . S
C1160 C122 1.511 . S
C1162 N576 1.457 . S
C1171 C130 1.516 . S
C1173 N589 1.493 . S
C1182 C140 1.465 . S
C1184 C626 1.457 . S
C1195 N474 1.426 . S
C1193 C76 1.455 . S
C1204 C85 1.511 . S
C1206 N658 1.464 . S
C1217 N520 1.450 . S
C1215 C97 1.478 . S
C1226 C104 1.515 . S
C1228 C695 1.519 . S
C1237 C113 1.606 . S
C1239 C396 1.604 . S
C1250 C709 1.604 . S
C1248 C124 1.606 . S
C1259 C133 1.537 . S
C1261 C442 1.528 . S
C1272 N727 1.415 . S
C1270 C139 1.447 . S
C1281 C79 1.477 . S
C1283 N691 1.434 . S
C1294 N704 1.490 . S
C1292 C112 1.528 . S
C1303 C121 1.506 . S
C1305 N438 1.455 . S
C1316 C732 1.435 . S
C1314 C131 1.436 . S
C1325 C142 1.450 . S
C1327 N392 1.409 . S
C1336 C94 1.573 . S
C1338 C663 1.571 . S
C1347 C103 1.567 . S
C1349 C525 1.559 . S
C1358 C86 1.590 . S
C1360 C479 1.591 . S
C1369 C149 1.535 . S
C1371 C617 1.533 . S
C1382 C649 1.549 . S
C1380 C160 1.557 . S
C1391 C167 1.491 . S
C1393 N566 1.464 . S
C1402 C178 1.467 . S
C1404 N599 1.420 . S
C1413 C187 1.596 . S
C1415 C603 1.587 . S
C1424 C194 1.551 . S
C1426 N612 1.525 . S
C1437 N645 1.361 . S
C1435 C202 1.407 . S
C1446 C212 1.502 . S
C1448 C571 1.501 . S
C1459 N760 1.440 . S
C1457 C148 1.477 . S
C1468 C157 1.481 . S
C1470 N497 1.445 . S
C1481 N783 1.388 . S
C1479 C169 1.436 . S
C1490 C176 1.501 . S
C1492 N553 1.459 . S
C1501 C185 1.569 . S
C1503 C801 1.568 . S
C1512 C196 1.665 . S
C1514 C419 1.664 . S
C1525 N819 1.377 . S
C1523 C205 1.417 . S
C1534 C211 1.500 . S
C1536 C456 1.497 . S
C1547 C557 1.502 . S
C1545 C151 1.503 . S
C1558 N415 1.499 . S
C1556 C184 1.558 . S
C1567 C193 1.581 . S
C1569 C824 1.580 . S
C1578 C203 1.399 . S
C1580 N451 1.353 . S
C1591 N796 1.482 . S
C1589 C214 1.506 . S
C1602 C502 1.573 . S
C1600 C166 1.570 . S
C1613 C787 1.580 . S
C1611 C175 1.581 . S
C1624 C764 1.583 . S
C1622 C158 1.582 . S
C1633 C221 1.429 . S
C1635 N346 1.386 . S
C1644 C232 1.572 . S
C1646 C373 1.566 . S
C1657 C295 1.556 . S
C1655 C239 1.557 . S
C1668 N313 1.389 . S
C1666 C250 1.421 . S
C1679 C318 1.603 . S
C1677 C259 1.607 . S
C1690 C350 1.544 . S
C1688 C266 1.530 . S
C1701 N369 1.478 . S
C1699 C274 1.525 . S
C1710 C284 1.513 . S
C1712 N290 1.489 . S
C1721 C220 1.404 . S
C1723 N806 1.366 . S
C1734 N714 1.479 . S
C1732 C229 1.514 . S
C1745 C833 1.601 . S
C1743 C241 1.595 . S
C1756 C741 1.381 . S
C1754 C248 1.386 . S
C1765 C257 1.588 . S
C1767 C755 1.585 . S
C1778 C672 1.590 . S
C1776 C268 1.594 . S
C1789 C778 1.638 . S
C1787 C277 1.644 . S
C1798 C283 1.479 . S
C1800 N681 1.446 . S
C1811 N737 1.369 . S
C1809 C223 1.403 . S
C1822 N668 1.467 . S
C1820 C256 1.495 . S
C1833 N773 1.424 . S
C1831 C265 1.445 . S
C1842 C275 1.513 . S
C1844 C686 1.508 . S
C1853 C286 1.439 . S
C1855 N750 1.410 . S
C1864 C238 1.682 . S
C1866 C718 1.677 . S
C1875 C247 1.431 . S
C1877 N829 1.401 . S
C1888 C810 1.551 . S
C1886 C230 1.555 . S
