# Generated by pormake.
# Topology pyr, (3,6)-cn, num edge types: 1
# Building blocks:
#     Node 0, Type 0, BuildingBlock: KAKCAD_clean_linker_0, # of connection points: 3
#     Node 1, Type 0, BuildingBlock: KAKCAD_clean_linker_0, # of connection points: 3
#     Node 2, Type 0, BuildingBlock: KAKCAD_clean_linker_0, # of connection points: 3
#     Node 3, Type 0, BuildingBlock: KAKCAD_clean_linker_0, # of connection points: 3
#     Node 4, Type 0, BuildingBlock: KAKCAD_clean_linker_0, # of connection points: 3
#     Node 5, Type 0, BuildingBlock: KAKCAD_clean_linker_0, # of connection points: 3
#     Node 6, Type 0, BuildingBlock: KAKCAD_clean_linker_0, # of connection points: 3
#     Node 7, Type 0, BuildingBlock: KAKCAD_clean_linker_0, # of connection points: 3
#     Node 8, Type 1, BuildingBlock: INOVEN_clean_sbu_0, # of connection points: 6
#     Node 9, Type 1, BuildingBlock: INOVEN_clean_sbu_0, # of connection points: 6
#     Node 10, Type 1, BuildingBlock: INOVEN_clean_sbu_0, # of connection points: 6
#     Node 11, Type 1, BuildingBlock: INOVEN_clean_sbu_0, # of connection points: 6
#     Edge 12, Type (0, 1), BuildingBlock: UVAHIK_clean_linker_0, # of connection points: 2
#     Edge 13, Type (0, 1), BuildingBlock: UVAHIK_clean_linker_0, # of connection points: 2
#     Edge 14, Type (0, 1), BuildingBlock: UVAHIK_clean_linker_0, # of connection points: 2
#     Edge 15, Type (0, 1), BuildingBlock: UVAHIK_clean_linker_0, # of connection points: 2
#     Edge 16, Type (0, 1), BuildingBlock: UVAHIK_clean_linker_0, # of connection points: 2
#     Edge 17, Type (0, 1), BuildingBlock: UVAHIK_clean_linker_0, # of connection points: 2
#     Edge 18, Type (0, 1), BuildingBlock: UVAHIK_clean_linker_0, # of connection points: 2
#     Edge 19, Type (0, 1), BuildingBlock: UVAHIK_clean_linker_0, # of connection points: 2
#     Edge 20, Type (0, 1), BuildingBlock: UVAHIK_clean_linker_0, # of connection points: 2
#     Edge 21, Type (0, 1), BuildingBlock: UVAHIK_clean_linker_0, # of connection points: 2
#     Edge 22, Type (0, 1), BuildingBlock: UVAHIK_clean_linker_0, # of connection points: 2
#     Edge 23, Type (0, 1), BuildingBlock: UVAHIK_clean_linker_0, # of connection points: 2
#     Edge 24, Type (0, 1), BuildingBlock: UVAHIK_clean_linker_0, # of connection points: 2
#     Edge 25, Type (0, 1), BuildingBlock: UVAHIK_clean_linker_0, # of connection points: 2
#     Edge 26, Type (0, 1), BuildingBlock: UVAHIK_clean_linker_0, # of connection points: 2
#     Edge 27, Type (0, 1), BuildingBlock: UVAHIK_clean_linker_0, # of connection points: 2
#     Edge 28, Type (0, 1), BuildingBlock: UVAHIK_clean_linker_0, # of connection points: 2
#     Edge 29, Type (0, 1), BuildingBlock: UVAHIK_clean_linker_0, # of connection points: 2
#     Edge 30, Type (0, 1), BuildingBlock: UVAHIK_clean_linker_0, # of connection points: 2
#     Edge 31, Type (0, 1), BuildingBlock: UVAHIK_clean_linker_0, # of connection points: 2
#     Edge 32, Type (0, 1), BuildingBlock: UVAHIK_clean_linker_0, # of connection points: 2
#     Edge 33, Type (0, 1), BuildingBlock: UVAHIK_clean_linker_0, # of connection points: 2
#     Edge 34, Type (0, 1), BuildingBlock: UVAHIK_clean_linker_0, # of connection points: 2
#     Edge 35, Type (0, 1), BuildingBlock: UVAHIK_clean_linker_0, # of connection points: 2
# Relax obj value: 0.071
# Max RMSD: 0.119
# Mean RMSD: 0.055
data_MOF--net-pyr--node1-INOVEN_clean_sbu_0--node2-KAKCAD_clean_linker_0--edge1-UVAHIK_clean_linker_0
_symmetry_space_group_name_H-M    P1
_symmetry_Int_Tables_number       1
_symmetry_cell_setting            triclinic
loop_
_symmetry_equiv_pos_as_xyz
'x, y, z'
_cell_length_a     57.52587
_cell_length_b     61.264245
_cell_length_c     55.460892
_cell_angle_alpha  91.407655
_cell_angle_beta   88.892905
_cell_angle_gamma 98.828595
loop_
_atom_site_label
_atom_site_type_symbol
_atom_site_fract_x
_atom_site_fract_y
_atom_site_fract_z
_atom_type_partial_charge
C0 C 0.25312 0.2453 0.28034 0.0
C1 C 0.26535 0.23853 0.29975 0.0
C2 C 0.26497 0.25231 0.25912 0.0
C3 C 0.28949 0.25308 0.25682 0.0
C4 C 0.30186 0.24678 0.27652 0.0
C5 C 0.28986 0.23942 0.29773 0.0
C6 C 0.30162 0.25942 0.23348 0.0
C7 C 0.29362 0.27524 0.21917 0.0
C8 C 0.30242 0.27917 0.19572 0.0
C9 C 0.32048 0.26809 0.18682 0.0
C10 C 0.32904 0.25231 0.20091 0.0
C11 C 0.31951 0.24816 0.22424 0.0
C12 C 0.34612 0.23852 0.19055 0.0
C13 C 0.34391 0.23035 0.16665 0.0
C14 C 0.36383 0.23228 0.20487 0.0
C15 C 0.37853 0.21776 0.19571 0.0
C16 C 0.37595 0.20926 0.17199 0.0
C17 C 0.29026 0.29253 0.17973 0.0
C18 C 0.26611 0.2862 0.17588 0.0
C19 C 0.30209 0.31164 0.16888 0.0
C20 C 0.28966 0.3246 0.15489 0.0
C21 C 0.26541 0.31826 0.15118 0.0
C22 C 0.25385 0.29885 0.16166 0.0
C23 C 0.35868 0.21595 0.15747 0.0
H24 H 0.23415 0.24427 0.28115 0.0
H25 H 0.25465 0.25635 0.2442 0.0
H26 H 0.32076 0.24737 0.27549 0.0
H27 H 0.29969 0.23424 0.31247 0.0
H28 H 0.27983 0.28411 0.22591 0.0
H29 H 0.32498 0.23513 0.23461 0.0
H30 H 0.3271 0.27109 0.16858 0.0
H31 H 0.33019 0.23441 0.15524 0.0
H32 H 0.36621 0.23849 0.22325 0.0
H33 H 0.39188 0.21314 0.20723 0.0
H34 H 0.25667 0.27145 0.18401 0.0
H35 H 0.32073 0.31678 0.17169 0.0
H36 H 0.35602 0.20943 0.13923 0.0
H37 H 0.23514 0.29371 0.15934 0.0
H38 H 0.29896 0.33949 0.14695 0.0
C39 C 0.31266 0.85258 0.70196 0.0
C40 C 0.33606 0.86252 0.69796 0.0
C41 C 0.29875 0.8437 0.68268 0.0
C42 C 0.30802 0.84445 0.65905 0.0
C43 C 0.33149 0.85422 0.65507 0.0
C44 C 0.34534 0.86324 0.67433 0.0
C45 C 0.29323 0.83522 0.63855 0.0
C46 C 0.2702 0.83983 0.63654 0.0
C47 C 0.25626 0.83152 0.61686 0.0
C48 C 0.26567 0.81836 0.59919 0.0
C49 C 0.28873 0.81376 0.6008 0.0
C50 C 0.30232 0.82214 0.62068 0.0
C51 C 0.2987 0.80034 0.58167 0.0
C52 C 0.2848 0.78193 0.5709 0.0
C53 C 0.32234 0.80572 0.57425 0.0
C54 C 0.33211 0.79251 0.55721 0.0
C55 C 0.31841 0.77371 0.54694 0.0
C56 C 0.23233 0.83736 0.61407 0.0
C57 C 0.21737 0.83911 0.63421 0.0
C58 C 0.22446 0.84172 0.5911 0.0
C59 C 0.20226 0.84759 0.58828 0.0
C60 C 0.18749 0.84961 0.60837 0.0
C61 C 0.1952 0.84537 0.6314 0.0
C62 C 0.29451 0.76886 0.55362 0.0
H63 H 0.30497 0.852 0.71995 0.0
H64 H 0.28077 0.83613 0.68627 0.0
H65 H 0.33902 0.8552 0.63701 0.0
H66 H 0.36336 0.87068 0.67075 0.0
H67 H 0.26347 0.85058 0.64987 0.0
H68 H 0.31992 0.81817 0.62252 0.0
H69 H 0.25509 0.81191 0.58393 0.0
H70 H 0.26656 0.7772 0.57627 0.0
H71 H 0.33344 0.82005 0.58179 0.0
H72 H 0.35066 0.79663 0.5528 0.0
H73 H 0.22276 0.83563 0.65214 0.0
H74 H 0.23566 0.84115 0.57525 0.0
H75 H 0.28335 0.75469 0.54585 0.0
H76 H 0.18409 0.84687 0.64716 0.0
H77 H 0.19694 0.8513 0.57038 0.0
C78 C 0.73217 0.40059 0.8735 0.0
C79 C 0.75035 0.38884 0.87982 0.0
C80 C 0.7114 0.38976 0.86276 0.0
C81 C 0.70791 0.36674 0.85822 0.0
C82 C 0.72606 0.355 0.86459 0.0
C83 C 0.74692 0.36586 0.87508 0.0
C84 C 0.68546 0.35499 0.84711 0.0
C85 C 0.67482 0.36434 0.82792 0.0
C86 C 0.65385 0.35353 0.81721 0.0
C87 C 0.64355 0.3327 0.82633 0.0
C88 C 0.65376 0.32279 0.84562 0.0
C89 C 0.67466 0.33431 0.85571 0.0
C90 C 0.64279 0.30059 0.85561 0.0
C91 C 0.61818 0.29428 0.85752 0.0
C92 C 0.65698 0.28563 0.86414 0.0
C93 C 0.64707 0.26549 0.87454 0.0
C94 C 0.62248 0.25928 0.8768 0.0
C95 C 0.64306 0.36413 0.79646 0.0
C96 C 0.64409 0.38728 0.79555 0.0
C97 C 0.63213 0.35145 0.77703 0.0
C98 C 0.62291 0.36153 0.75744 0.0
C99 C 0.62415 0.38472 0.75647 0.0
C100 C 0.63489 0.39734 0.77602 0.0
C101 C 0.60824 0.27407 0.86791 0.0
H102 H 0.73409 0.41829 0.8766 0.0
H103 H 0.69787 0.39943 0.85834 0.0
H104 H 0.72426 0.33734 0.86125 0.0
H105 H 0.76028 0.35611 0.87981 0.0
H106 H 0.68339 0.37989 0.82083 0.0
H107 H 0.68233 0.32745 0.87092 0.0
H108 H 0.62755 0.32416 0.8184 0.0
H109 H 0.60648 0.30518 0.85143 0.0
H110 H 0.67596 0.28941 0.86278 0.0
H111 H 0.65889 0.25498 0.88125 0.0
H112 H 0.65196 0.39782 0.8101 0.0
H113 H 0.63103 0.33365 0.77667 0.0
H114 H 0.58926 0.27003 0.86884 0.0
H115 H 0.6366 0.41518 0.77617 0.0
H116 H 0.6146 0.35101 0.7431 0.0
C117 C 0.86938 0.63726 0.25948 0.0
C118 C 0.89387 0.63934 0.25543 0.0
C119 C 0.85996 0.64761 0.27948 0.0
C120 C 0.87464 0.6604 0.29631 0.0
C121 C 0.89916 0.66271 0.29214 0.0
C122 C 0.9086 0.65238 0.27204 0.0
C123 C 0.86432 0.671 0.31808 0.0
C124 C 0.84404 0.65997 0.32993 0.0
C125 C 0.83343 0.6697 0.34981 0.0
C126 C 0.84392 0.69086 0.35808 0.0
C127 C 0.86448 0.70225 0.34707 0.0
C128 C 0.87444 0.6921 0.32702 0.0
C129 C 0.87536 0.72474 0.35667 0.0
C130 C 0.86121 0.73997 0.36589 0.0
C131 C 0.89997 0.73102 0.35737 0.0
C132 C 0.91003 0.75164 0.36724 0.0
C133 C 0.89584 0.76672 0.37682 0.0
C134 C 0.81137 0.65786 0.36185 0.0
C135 C 0.79443 0.64354 0.34857 0.0
C136 C 0.80681 0.66091 0.38672 0.0
C137 C 0.78599 0.6504 0.39773 0.0
C138 C 0.76925 0.63611 0.38441 0.0
C139 C 0.77385 0.63269 0.35972 0.0
C140 C 0.87124 0.7605 0.37584 0.0
H141 H 0.85734 0.6278 0.24697 0.0
H142 H 0.84101 0.64575 0.28156 0.0
H143 H 0.91117 0.67213 0.30469 0.0
H144 H 0.92754 0.65426 0.26982 0.0
H145 H 0.83679 0.64343 0.32391 0.0
H146 H 0.88971 0.70094 0.31788 0.0
H147 H 0.83606 0.69858 0.37326 0.0
H148 H 0.84222 0.73611 0.3654 0.0
H149 H 0.91159 0.71983 0.35069 0.0
H150 H 0.92901 0.75575 0.36722 0.0
H151 H 0.79676 0.64094 0.32936 0.0
H152 H 0.81941 0.67124 0.39793 0.0
H153 H 0.85954 0.77132 0.38318 0.0
H154 H 0.76122 0.62196 0.34885 0.0
H155 H 0.78317 0.6532 0.41685 0.0
C156 C 0.75654 0.79122 0.74431 0.0
C157 C 0.76388 0.8141 0.74688 0.0
C158 C 0.7409 0.78007 0.7612 0.0
C159 C 0.73216 0.79171 0.78068 0.0
C160 C 0.73878 0.81475 0.78246 0.0
C161 C 0.75441 0.82579 0.76577 0.0
C162 C 0.71808 0.78006 0.80053 0.0
C163 C 0.72541 0.76169 0.81096 0.0
C164 C 0.71558 0.75354 0.833 0.0
C165 C 0.69784 0.76377 0.84438 0.0
C166 C 0.69018 0.78204 0.83394 0.0
C167 C 0.69986 0.78954 0.81168 0.0
C168 C 0.67479 0.79548 0.84757 0.0
C169 C 0.65373 0.78583 0.85882 0.0
C170 C 0.68149 0.81849 0.84938 0.0
C171 C 0.66743 0.83164 0.86189 0.0
C172 C 0.64629 0.82215 0.87302 0.0
C173 C 0.7267 0.73676 0.84555 0.0
C174 C 0.73292 0.71836 0.83274 0.0
C175 C 0.73397 0.74059 0.86953 0.0
C176 C 0.74839 0.72715 0.87995 0.0
C177 C 0.75572 0.70951 0.86667 0.0
C178 C 0.7472 0.70481 0.84324 0.0
C179 C 0.63946 0.79911 0.87129 0.0
H180 H 0.76365 0.78187 0.72987 0.0
H181 H 0.73604 0.76232 0.75935 0.0
H182 H 0.73273 0.82421 0.79743 0.0
H183 H 0.75961 0.84347 0.768 0.0
H184 H 0.74024 0.75495 0.80305 0.0
H185 H 0.69409 0.80373 0.80366 0.0
H186 H 0.69097 0.7583 0.86192 0.0
H187 H 0.64821 0.76813 0.8577 0.0
H188 H 0.69781 0.82639 0.84121 0.0
H189 H 0.67305 0.84935 0.86265 0.0
H190 H 0.72749 0.71499 0.81426 0.0
H191 H 0.72968 0.75476 0.87977 0.0
H192 H 0.62328 0.79137 0.87981 0.0
H193 H 0.75263 0.6914 0.83252 0.0
H194 H 0.75447 0.731 0.89815 0.0
C195 C 0.69252 0.16991 0.34049 0.0
C196 C 0.68342 0.1858 0.32718 0.0
C197 C 0.70794 0.17632 0.35932 0.0
C198 C 0.71463 0.19878 0.3653 0.0
C199 C 0.70555 0.21474 0.35204 0.0
C200 C 0.69017 0.2083 0.33302 0.0
C201 C 0.73055 0.20525 0.3858 0.0
C202 C 0.75025 0.19473 0.3889 0.0
C203 C 0.76409 0.19898 0.40955 0.0
C204 C 0.75827 0.21427 0.42707 0.0
C205 C 0.73883 0.22519 0.42401 0.0
C206 C 0.72516 0.22072 0.40325 0.0
C207 C 0.73161 0.24011 0.44315 0.0
C208 C 0.72905 0.23329 0.46719 0.0
C209 C 0.72539 0.26052 0.43712 0.0
C210 C 0.71579 0.27345 0.45455 0.0
C211 C 0.71208 0.26616 0.47836 0.0
C212 C 0.78383 0.18655 0.41333 0.0
C213 C 0.78109 0.16374 0.4081 0.0
C214 C 0.80532 0.1972 0.42252 0.0
C215 C 0.82363 0.18523 0.42653 0.0
C216 C 0.8208 0.16239 0.42143 0.0
C217 C 0.79937 0.15181 0.41207 0.0
C218 C 0.71924 0.24616 0.48464 0.0
H219 H 0.68792 0.15246 0.33618 0.0
H220 H 0.7144 0.16364 0.36942 0.0
H221 H 0.71049 0.23217 0.35625 0.0
H222 H 0.68337 0.22088 0.32308 0.0
H223 H 0.75473 0.18306 0.37522 0.0
H224 H 0.70956 0.22842 0.40131 0.0
H225 H 0.76852 0.21735 0.44333 0.0
H226 H 0.73359 0.21752 0.47225 0.0
H227 H 0.72732 0.26619 0.41873 0.0
H228 H 0.71017 0.28863 0.44905 0.0
H229 H 0.76459 0.15498 0.40142 0.0
H230 H 0.80802 0.2148 0.42645 0.0
H231 H 0.71665 0.2402 0.50287 0.0
H232 H 0.7965 0.13416 0.4084 0.0
H233 H 0.84005 0.19386 0.43353 0.0
C234 C 0.27801 0.6414 0.17114 0.0
C235 C 0.27421 0.64327 0.14624 0.0
C236 C 0.29866 0.65222 0.18214 0.0
C237 C 0.31645 0.66527 0.16869 0.0
C238 C 0.31274 0.66695 0.14376 0.0
C239 C 0.29205 0.65628 0.13281 0.0
C240 C 0.33854 0.67726 0.18053 0.0
C241 C 0.34878 0.6681 0.20017 0.0
C242 C 0.36918 0.67924 0.21172 0.0
C243 C 0.37965 0.70003 0.20259 0.0
C244 C 0.37015 0.70953 0.18261 0.0
C245 C 0.34946 0.698 0.17216 0.0
C246 C 0.38151 0.73145 0.17231 0.0
C247 C 0.39142 0.74936 0.18719 0.0
C248 C 0.38195 0.73486 0.14721 0.0
C249 C 0.39147 0.75536 0.1374 0.0
C250 C 0.40099 0.77344 0.15224 0.0
C251 C 0.37939 0.66891 0.2331 0.0
C252 C 0.36476 0.65535 0.24928 0.0
C253 C 0.4038 0.67209 0.2375 0.0
C254 C 0.41312 0.66203 0.25706 0.0
C255 C 0.39847 0.64822 0.27305 0.0
C256 C 0.37406 0.64516 0.26867 0.0
C257 C 0.40093 0.76996 0.17736 0.0
H258 H 0.26511 0.63137 0.18228 0.0
H259 H 0.30044 0.65054 0.20137 0.0
H260 H 0.32595 0.67645 0.13247 0.0
H261 H 0.28999 0.65858 0.11373 0.0
H262 H 0.34112 0.65184 0.20608 0.0
H263 H 0.34144 0.70558 0.15768 0.0
H264 H 0.39526 0.70886 0.21097 0.0
H265 H 0.3913 0.74768 0.20658 0.0
H266 H 0.37506 0.72152 0.13493 0.0
H267 H 0.39158 0.75687 0.118 0.0
H268 H 0.34587 0.65259 0.24717 0.0
H269 H 0.41594 0.68212 0.22561 0.0
H270 H 0.40777 0.78332 0.18962 0.0
H271 H 0.36191 0.63456 0.28001 0.0
H272 H 0.43193 0.66531 0.25966 0.0
C273 C 0.15661 0.27579 0.65562 0.0
C274 C 0.13263 0.27064 0.64967 0.0
C275 C 0.16574 0.29627 0.66624 0.0
C276 C 0.15123 0.31233 0.67165 0.0
C277 C 0.12715 0.30711 0.66637 0.0
C278 C 0.11802 0.28667 0.65542 0.0
C279 C 0.16157 0.33454 0.68205 0.0
C280 C 0.18284 0.34572 0.67241 0.0
C281 C 0.19382 0.36612 0.68222 0.0
C282 C 0.18287 0.37531 0.70227 0.0
C283 C 0.16129 0.36478 0.71211 0.0
C284 C 0.15071 0.34445 0.70164 0.0
C285 C 0.15001 0.37499 0.73344 0.0
C286 C 0.16351 0.38395 0.75328 0.0
C287 C 0.12575 0.37622 0.73407 0.0
C288 C 0.11542 0.38643 0.75369 0.0
C289 C 0.12893 0.39539 0.77352 0.0
C290 C 0.21654 0.3777 0.6713 0.0
C291 C 0.23317 0.36554 0.66065 0.0
C292 C 0.22171 0.40098 0.67084 0.0
C293 C 0.24255 0.41162 0.65991 0.0
C294 C 0.25872 0.39936 0.64877 0.0
C295 C 0.25375 0.37618 0.6494 0.0
C296 C 0.15312 0.39383 0.77306 0.0
H297 H 0.16848 0.26392 0.65226 0.0
H298 H 0.18429 0.29949 0.67041 0.0
H299 H 0.11546 0.3191 0.67009 0.0
H300 H 0.09956 0.2837 0.65097 0.0
H301 H 0.19056 0.33859 0.65671 0.0
H302 H 0.13442 0.33596 0.70928 0.0
H303 H 0.19112 0.39078 0.71031 0.0
H304 H 0.18219 0.38319 0.75361 0.0
H305 H 0.11478 0.36965 0.71913 0.0
H306 H 0.09673 0.38713 0.75341 0.0
H307 H 0.23043 0.34768 0.66106 0.0
H308 H 0.20941 0.41109 0.67841 0.0
H309 H 0.16418 0.40065 0.78784 0.0
H310 H 0.26597 0.36619 0.64136 0.0
H311 H 0.24569 0.42951 0.65961 0.0
Gd312 Gd 0.03118 0.02391 0.48798 0.0
Gd313 Gd 0.00942 1.00939 0.53681 0.0
C314 C 0.04269 0.05735 0.53453 0.0
C315 C 0.04687 0.04201 0.44817 0.0
C316 C 0.0569 0.0636 0.43877 0.0
C317 C 0.06597 0.0646 0.4152 0.0
C318 C 0.06028 0.08253 0.45379 0.0
C319 C 0.08388 0.10279 0.42229 0.0
C320 C 0.07372 0.10203 0.44561 0.0
C321 C 0.07933 0.084 0.40699 0.0
C322 C 0.05135 0.99344 0.5107 0.0
C323 C 0.99666 0.97747 0.49032 0.0
C324 C 0.9991 0.99576 0.57982 0.0
C325 C 0.98052 0.97993 0.59105 0.0
C326 C 0.97169 0.98489 0.61389 0.0
C327 C 0.97121 0.96012 0.57912 0.0
C328 C 0.94464 0.95016 0.61313 0.0
C329 C 0.9535 0.94531 0.59011 0.0
C330 C 0.95387 0.9702 0.62481 0.0
C331 C 0.98099 0.02691 0.50708 0.0
O332 O 0.04469 0.05438 0.51084 0.0
O333 O 0.03096 0.04191 0.54832 0.0
O334 O 0.06011 0.03388 0.46351 0.0
O335 O 0.02446 0.03887 0.45422 0.0
O336 O 0.0482 0.99314 0.48766 0.0
O337 O 0.04435 1.01003 0.52044 0.0
O338 O 1.00026 0.97818 0.5139 0.0
O339 O 1.00355 0.99504 0.47692 0.0
O340 O 0.99242 1.01358 0.57144 0.0
O341 O 0.01401 0.98735 0.5655 0.0
O342 O 0.97353 1.01085 0.52145 0.0
O343 O 1.00249 0.03351 0.5102 0.0
H344 H 0.0637 0.05004 0.40348 0.0
H345 H 0.05332 0.08195 0.47205 0.0
H346 H 0.07669 0.11628 0.45773 0.0
H347 H 0.08716 0.08383 0.38909 0.0
H348 H 0.97851 1.00021 0.62324 0.0
H349 H 0.97767 0.95605 0.56135 0.0
H350 H 0.94696 0.92996 0.58071 0.0
H351 H 0.94714 0.97469 0.64231 0.0
Gd352 Gd 0.53214 0.02126 0.02927 0.0
Gd353 Gd 0.48874 0.01487 1.00508 0.0
C354 C 0.48888 0.04305 0.05237 0.0
C355 C 0.56965 0.03645 0.05304 0.0
C356 C 0.57499 0.05124 0.07419 0.0
C357 C 0.58599 0.04359 0.09394 0.0
C358 C 0.5685 0.07248 0.0754 0.0
C359 C 0.58362 0.07792 0.11606 0.0
C360 C 0.57295 0.08578 0.09614 0.0
C361 C 0.59016 0.05676 0.11474 0.0
C362 C 0.50539 0.98183 0.04045 0.0
C363 C 0.532 0.99222 0.98257 0.0
C364 C 0.45107 1.00041 0.98114 0.0
C365 C 0.44574 0.98854 0.95802 0.0
C366 C 0.43234 0.99757 0.94109 0.0
C367 C 0.45427 0.9687 0.9523 0.0
C368 C 0.43609 0.96721 0.91296 0.0
C369 C 0.44938 0.95807 0.92998 0.0
C370 C 0.42763 0.98706 0.91873 0.0
C371 C 0.51587 0.05409 0.99373 0.0
O372 O 0.51188 0.04496 0.04951 0.0
O373 O 0.47498 0.02886 0.03898 0.0
O374 O 0.55678 0.01747 0.05736 0.0
O375 O 0.56369 0.0453 0.03333 0.0
O376 O 0.52771 0.98462 0.0354 0.0
O377 O 0.49783 1.00021 0.03919 0.0
O378 O 0.50898 0.99131 0.98434 0.0
O379 O 0.54596 1.00593 0.99639 0.0
O380 O 0.46227 0.02052 0.97961 0.0
O381 O 0.45883 0.98947 0.99841 0.0
O382 O 0.49361 0.05159 0.99898 0.0
O383 O 0.52311 0.03559 0.99498 0.0
H384 H 0.59113 0.02729 0.09338 0.0
H385 H 0.55977 0.07872 0.06048 0.0
H386 H 0.56765 0.10201 0.09681 0.0
H387 H 0.59867 0.05045 0.12978 0.0
H388 H 0.4256 1.01284 0.94515 0.0
H389 H 0.4648 0.96144 0.96497 0.0
H390 H 0.45624 0.94287 0.9259 0.0
H391 H 0.41708 0.99431 0.90606 0.0
Gd392 Gd 0.51434 0.49694 0.49779 0.0
Gd393 Gd 0.51231 0.53481 0.52876 0.0
C394 C 0.53327 0.49625 0.55375 0.0
C395 C 0.52775 0.46356 0.4753 0.0
C396 C 0.5384 0.44478 0.48369 0.0
C397 C 0.52838 0.42314 0.47733 0.0
C398 C 0.55783 0.44819 0.49904 0.0
C399 C 0.55729 0.40853 0.50128 0.0
C400 C 0.5672 0.43026 0.50769 0.0
C401 C 0.5377 0.40516 0.48606 0.0
C402 C 0.47187 0.49523 0.52047 0.0
C403 C 0.49285 0.53527 0.47318 0.0
C404 C 0.49888 0.56836 0.55083 0.0
C405 C 0.48425 0.58431 0.54255 0.0
C406 C 0.49135 0.60699 0.54668 0.0
C407 C 0.46404 0.57712 0.52894 0.0
C408 C 0.45813 0.61511 0.52381 0.0
C409 C 0.45109 0.59238 0.51972 0.0
C410 C 0.4784 0.6223 0.53736 0.0
C411 C 0.55453 0.53616 0.50577 0.0
O412 O 0.53323 0.48781 0.53148 0.0
O413 O 0.52412 0.51445 0.55817 0.0
O414 O 0.50598 0.46389 0.4822 0.0
O415 O 0.54076 0.48302 0.47679 0.0
O416 O 0.47478 0.48977 0.498 0.0
O417 O 0.4917 0.50133 0.53003 0.0
O418 O 0.49197 0.54297 0.49568 0.0
O419 O 0.50322 0.51782 0.46843 0.0
O420 O 0.51943 0.5693 0.54017 0.0
O421 O 0.4882 0.5481 0.55344 0.0
O422 O 0.55199 0.54102 0.52848 0.0
O423 O 0.53458 0.53054 0.49635 0.0
H424 H 0.51322 0.42015 0.46573 0.0
H425 H 0.56583 0.46471 0.50446 0.0
H426 H 0.58252 0.43349 0.51902 0.0
H427 H 0.5295 0.38862 0.48099 0.0
H428 H 0.50701 0.61285 0.55694 0.0
H429 H 0.45836 0.55972 0.52512 0.0
H430 H 0.4357 0.58639 0.50911 0.0
H431 H 0.48406 0.63973 0.54103 0.0
Gd432 Gd 0.01362 0.49541 0.02621 0.0
Gd433 Gd 1.0078 0.54052 1.00399 0.0
C434 C 0.0561 0.5378 0.03238 0.0
C435 C 0.02652 0.45886 0.03918 0.0
C436 C 0.04792 0.44994 0.04504 0.0
C437 C 0.04601 0.42772 0.05119 0.0
C438 C 0.07008 0.46322 0.04486 0.0
C439 C 0.08829 0.43194 0.05709 0.0
C440 C 0.09014 0.4543 0.05093 0.0
C441 C 0.06598 0.41878 0.05716 0.0
C442 C 0.98808 0.52126 0.053 0.0
C443 C 0.96765 0.497 0.99403 0.0
C444 C 0.99296 0.57792 1.00013 0.0
C445 C 0.97704 0.588 0.98502 0.0
C446 C 0.96663 0.57685 0.96463 0.0
C447 C 0.97078 0.60837 0.99226 0.0
C448 C 0.9432 0.6063 0.9592 0.0
C449 C 0.95402 0.61744 0.97952 0.0
C450 C 0.94988 0.58596 0.95176 0.0
C451 C 0.02672 0.51514 0.96972 0.0
O452 O 0.04931 0.51611 0.0339 0.0
O453 O 0.04255 0.55082 0.02267 0.0
O454 O 0.0201 0.4735 0.05447 0.0
O455 O 0.02421 0.46386 0.01663 0.0
O456 O 0.98297 0.49989 0.05111 0.0
O457 O 1.00664 0.5277 0.04095 0.0
O458 O 0.97318 0.51888 0.99424 0.0
O459 O 0.98156 0.48425 1.00358 0.0
O460 O 0.01267 0.5737 0.99006 0.0
O461 O 0.98268 0.56204 0.01386 0.0
O462 O 0.0219 0.53481 0.96599 0.0
O463 O 0.02103 0.51044 0.99128 0.0
H464 H 0.029 0.41728 0.05151 0.0
H465 H 0.07185 0.48042 0.04005 0.0
H466 H 0.10709 0.46481 0.05054 0.0
H467 H 0.06388 0.40161 0.0622 0.0
H468 H 0.97116 0.56096 0.95894 0.0
H469 H 0.97844 0.61703 1.00818 0.0
H470 H 0.94903 0.63289 0.98608 0.0
H471 H 0.9421 0.57704 0.93607 0.0
C472 C 0.23342 0.23856 0.33107 0.0
C473 C 0.25191 0.22866 0.32089 0.0
C474 C 0.21757 0.2271 0.34744 0.0
C475 C 0.19138 0.17065 0.35687 0.0
H476 H 0.16089 0.19358 0.41297 0.0
C477 C 0.10179 0.12869 0.39034 0.0
C478 C 0.101 0.1221 0.41447 0.0
C479 C 0.12048 0.1439 0.38178 0.0
C480 C 0.16935 0.18702 0.39737 0.0
H481 H 0.26938 0.19975 0.32113 0.0
H482 H 0.24162 0.17969 0.34975 0.0
H483 H 0.19573 0.2158 0.39468 0.0
H484 H 0.11844 0.12756 0.44896 0.0
H485 H 0.15086 0.15463 0.43399 0.0
H486 H 0.16484 0.14221 0.35904 0.0
C487 C 0.23936 0.19626 0.34497 0.0
C488 C 0.18919 0.19967 0.38694 0.0
C489 C 0.25533 0.2078 0.32876 0.0
C490 C 0.1184 0.13238 0.4303 0.0
C491 C 0.13703 0.1478 0.42176 0.0
C492 C 0.17145 0.15822 0.36703 0.0
C493 C 0.21984 0.20548 0.35373 0.0
C494 C 0.2003 0.19161 0.3665 0.0
C495 C 0.13864 0.15304 0.39723 0.0
C496 C 0.16009 0.16637 0.38718 0.0
H497 H 0.23054 0.25473 0.32544 0.0
H498 H 0.20265 0.23458 0.35384 0.0
H499 H 0.19935 0.16414 0.34093 0.0
H500 H 0.08839 0.12147 0.37781 0.0
H501 H 0.12115 0.14801 0.36287 0.0
C502 C 0.36403 0.8936 0.71626 0.0
C503 C 0.35052 0.87257 0.71834 0.0
C504 C 0.37664 0.90361 0.7359 0.0
C505 C 0.40099 0.89255 0.79459 0.0
H506 H 0.39245 0.95282 0.81048 0.0
C507 C 0.42224 0.93322 0.88809 0.0
C508 C 0.43064 0.95597 0.88937 0.0
C509 C 0.41545 0.92294 0.86603 0.0
C510 C 0.39543 0.93614 0.8061 0.0
H511 H 0.34029 0.84517 0.74226 0.0
H512 H 0.36223 0.86273 0.77666 0.0
H513 H 0.37543 0.935 0.77387 0.0
H514 H 0.43971 0.9856 0.86852 0.0
H515 H 0.42828 0.96762 0.8299 0.0
H516 H 0.4209 0.89365 0.82692 0.0
C517 C 0.36311 0.87143 0.75983 0.0
C518 C 0.38562 0.92592 0.78512 0.0
C519 C 0.35037 0.86149 0.74024 0.0
C520 C 0.43292 0.9681 0.86807 0.0
C521 C 0.42632 0.9578 0.84599 0.0
C522 C 0.41097 0.90284 0.81552 0.0
C523 C 0.37611 0.89271 0.75795 0.0
C524 C 0.38804 0.90394 0.77931 0.0
C525 C 0.41709 0.93518 0.84477 0.0
C526 C 0.40804 0.92467 0.82168 0.0
H527 H 0.36435 0.90258 0.69965 0.0
H528 H 0.38666 0.91996 0.73391 0.0
H529 H 0.40336 0.87567 0.79038 0.0
H530 H 0.42012 0.92352 0.90428 0.0
H531 H 0.40812 0.90557 0.86582 0.0
C532 C 0.60455 0.41534 0.73857 0.0
C533 C 0.61446 0.39574 0.73531 0.0
C534 C 0.59589 0.42579 0.71897 0.0
C535 C 0.59779 0.42814 0.65081 0.0
H536 H 0.54437 0.45905 0.66072 0.0
C537 C 0.55244 0.46491 0.57028 0.0
C538 C 0.54315 0.48475 0.57418 0.0
C539 C 0.56117 0.45397 0.5895 0.0
C540 C 0.5595 0.45078 0.65752 0.0
H541 H 0.62283 0.37214 0.70792 0.0
H542 H 0.60736 0.3899 0.67415 0.0
H543 H 0.55899 0.44044 0.69423 0.0
H544 H 0.53614 0.50847 0.60197 0.0
H545 H 0.5514 0.48975 0.63514 0.0
H546 H 0.59819 0.43846 0.61403 0.0
C547 C 0.60653 0.39746 0.69193 0.0
C548 C 0.56799 0.43999 0.67695 0.0
C549 C 0.6152 0.387 0.71155 0.0
C550 C 0.54303 0.49326 0.59803 0.0
C551 C 0.5517 0.48233 0.61724 0.0
C552 C 0.58926 0.43892 0.63135 0.0
C553 C 0.59669 0.41711 0.69519 0.0
C554 C 0.58739 0.42849 0.67409 0.0
C555 C 0.56089 0.4624 0.61345 0.0
C556 C 0.56998 0.45055 0.63429 0.0
H557 H 0.60322 0.42265 0.7564 0.0
H558 H 0.58882 0.44095 0.72256 0.0
H559 H 0.61293 0.41988 0.64762 0.0
H560 H 0.5528 0.45763 0.55232 0.0
H561 H 0.56774 0.43861 0.58556 0.0
C562 C 0.89339 0.60659 0.22637 0.0
C563 C 0.90385 0.62786 0.23412 0.0
C564 C 0.90243 0.59589 0.20637 0.0
C565 C 0.95609 0.59705 0.16635 0.0
H566 H 0.91292 0.55938 0.12475 0.0
C567 C 0.98757 0.55682 0.07719 0.0
C568 C 0.97758 0.53483 0.07189 0.0
C569 C 0.97851 0.56889 0.09618 0.0
C570 C 0.92533 0.56965 0.13625 0.0
H571 H 0.93223 0.65445 0.22627 0.0
H572 H 0.94784 0.63598 0.19144 0.0
H573 H 0.89768 0.5787 0.15902 0.0
H574 H 0.94989 0.50852 0.08225 0.0
H575 H 0.93414 0.52938 0.11511 0.0
H576 H 0.98374 0.588 0.14342 0.0
C577 C 0.9328 0.62733 0.20109 0.0
C578 C 0.91654 0.58078 0.15608 0.0
C579 C 0.92379 0.638 0.22118 0.0
C580 C 0.95801 0.52542 0.08575 0.0
C581 C 0.94889 0.53748 0.1046 0.0
C582 C 0.96488 0.58597 0.14644 0.0
C583 C 0.92225 0.60608 0.19326 0.0
C584 C 0.93175 0.59457 0.17163 0.0
C585 C 0.95908 0.55938 0.11032 0.0
C586 C 0.94967 0.57194 0.13113 0.0
H587 H 0.87833 0.59795 0.23601 0.0
H588 H 0.89399 0.57941 0.20143 0.0
H589 H 0.96853 0.6072 0.17792 0.0
H590 H 1.00265 0.56462 0.0669 0.0
H591 H 0.98672 0.58575 0.0997 0.0
C592 C 0.39982 0.19413 0.13898 0.0
C593 C 0.39053 0.19279 0.16261 0.0
C594 C 0.41233 0.1779 0.12967 0.0
C595 C 0.41859 0.1197 0.13694 0.0
H596 H 0.47392 0.13471 0.09608 0.0
C597 C 0.49344 0.07529 0.08149 0.0
C598 C 0.47872 0.05832 0.06921 0.0
C599 C 0.48384 0.09106 0.09552 0.0
C600 C 0.45865 0.13023 0.10768 0.0
H601 H 0.38727 0.17346 0.19508 0.0
H602 H 0.40929 0.14519 0.17885 0.0
H603 H 0.45575 0.16409 0.11569 0.0
H604 H 0.44238 0.04414 0.06281 0.0
H605 H 0.42567 0.07167 0.08724 0.0
H606 H 0.4214 0.08583 0.12878 0.0
C607 C 0.40678 0.15875 0.1675 0.0
C608 C 0.4481 0.14707 0.1187 0.0
C609 C 0.39439 0.17506 0.17687 0.0
C610 C 0.45422 0.057 0.07201 0.0
C611 C 0.44463 0.07272 0.08611 0.0
C612 C 0.42907 0.10285 0.12581 0.0
C613 C 0.41572 0.15989 0.14372 0.0
C614 C 0.4278 0.14201 0.13325 0.0
C615 C 0.45932 0.09016 0.09767 0.0
C616 C 0.44908 0.10793 0.11086 0.0
H617 H 0.39731 0.20768 0.12762 0.0
H618 H 0.4188 0.17915 0.11121 0.0
H619 H 0.40286 0.11526 0.1479 0.0
H620 H 0.5124 0.07676 0.07983 0.0
H621 H 0.49562 0.10412 0.10447 0.0
C622 C 0.15967 0.87624 0.61813 0.0
C623 C 0.16487 0.85765 0.60501 0.0
C624 C 0.14111 0.88689 0.61123 0.0
C625 C 0.11315 0.89618 0.55521 0.0
H626 H 0.07377 0.9287 0.59535 0.0
C627 C 0.05832 0.95453 0.51238 0.0
C628 C 0.0588 0.97524 0.52382 0.0
C629 C 0.06626 0.93737 0.52428 0.0
C630 C 0.08474 0.91977 0.58393 0.0
H631 H 0.15344 0.83415 0.57623 0.0
H632 H 0.1208 0.85253 0.56437 0.0
H633 H 0.09592 0.90253 0.6138 0.0
H634 H 0.06702 0.99426 0.55681 0.0
H635 H 0.0819 0.96451 0.57739 0.0
H636 H 0.10314 0.91393 0.52557 0.0
C637 C 0.13136 0.85921 0.57957 0.0
C638 C 0.09731 0.90474 0.59448 0.0
C639 C 0.14996 0.84869 0.58636 0.0
C640 C 0.06662 0.97839 0.54762 0.0
C641 C 0.07491 0.96129 0.55945 0.0
C642 C 0.10078 0.91122 0.54474 0.0
C643 C 0.12747 0.87901 0.59117 0.0
C644 C 0.11184 0.89299 0.58022 0.0
C645 C 0.07523 0.9407 0.54772 0.0
C646 C 0.08664 0.9234 0.55896 0.0
H647 H 0.171 0.8835 0.63253 0.0
H648 H 0.13861 0.90217 0.62044 0.0
H649 H 0.12464 0.88781 0.54378 0.0
H650 H 0.05192 0.9516 0.49416 0.0
H651 H 0.06572 0.92158 0.51492 0.0
C652 C 0.79478 0.39453 0.88494 0.0
C653 C 0.77268 0.40041 0.89131 0.0
C654 C 0.81559 0.40519 0.89572 0.0
C655 C 0.84017 0.45557 0.93335 0.0
H656 H 0.8917 0.4227 0.94174 0.0
C657 C 0.93151 0.49855 0.96876 0.0
C658 C 0.94509 0.4863 0.98252 0.0
C659 C 0.91066 0.48836 0.95765 0.0
C660 C 0.8775 0.43221 0.93988 0.0
H661 H 0.75559 0.42224 0.91461 0.0
H662 H 0.79149 0.4404 0.93367 0.0
H663 H 0.85558 0.40462 0.92349 0.0
H664 H 0.9467 0.45347 0.99546 0.0
H665 H 0.91037 0.43597 0.97689 0.0
H666 H 0.86178 0.48293 0.9506 0.0
C667 C 0.79297 0.4279 0.91984 0.0
C668 C 0.85668 0.42183 0.92892 0.0
C669 C 0.77219 0.41737 0.90888 0.0
C670 C 0.93696 0.46355 0.98494 0.0
C671 C 0.91602 0.4534 0.97401 0.0
C672 C 0.86094 0.46592 0.94448 0.0
C673 C 0.81514 0.42204 0.9135 0.0
C674 C 0.83755 0.43327 0.92537 0.0
C675 C 0.90246 0.46555 0.96002 0.0
C676 C 0.88007 0.45447 0.94799 0.0
H677 H 0.7961 0.38185 0.87125 0.0
H678 H 0.8321 0.40033 0.88975 0.0
H679 H 0.82622 0.46527 0.9308 0.0
H680 H 0.93714 0.51606 0.96628 0.0
H681 H 0.9012 0.49843 0.94682 0.0
C682 C 0.73316 0.63706 0.41096 0.0
C683 C 0.74703 0.62495 0.3962 0.0
C684 C 0.71222 0.62668 0.42183 0.0
C685 C 0.68235 0.57326 0.44365 0.0
H686 H 0.6249 0.5987 0.43913 0.0
C687 C 0.59844 0.54743 0.50364 0.0
C688 C 0.57668 0.5437 0.49191 0.0
C689 C 0.61918 0.55606 0.49117 0.0
C690 C 0.64077 0.59133 0.4405 0.0
H691 H 0.74977 0.59229 0.38169 0.0
H692 H 0.71355 0.57406 0.40124 0.0
H693 H 0.66107 0.61653 0.41924 0.0
H694 H 0.55975 0.54602 0.45771 0.0
H695 H 0.59588 0.56166 0.43609 0.0
H696 H 0.66219 0.54838 0.46545 0.0
C697 C 0.71879 0.59166 0.40414 0.0
C698 C 0.66154 0.60164 0.42923 0.0
C699 C 0.73948 0.60213 0.39283 0.0
C700 C 0.57622 0.5486 0.46728 0.0
C701 C 0.5969 0.5577 0.45493 0.0
C702 C 0.6617 0.56322 0.45536 0.0
C703 C 0.7048 0.60381 0.41869 0.0
C704 C 0.68262 0.59273 0.43061 0.0
C705 C 0.61866 0.56165 0.46674 0.0
C706 C 0.6406 0.57208 0.4539 0.0
H707 H 0.73837 0.65466 0.41384 0.0
H708 H 0.70196 0.63652 0.43302 0.0
H709 H 0.69827 0.56601 0.44519 0.0
H710 H 0.5994 0.54386 0.5226 0.0
H711 H 0.63557 0.55898 0.50086 0.0
C712 C 0.23566 0.32194 0.11993 0.0
C713 C 0.25165 0.33196 0.13718 0.0
C714 C 0.22024 0.33404 0.10906 0.0
C715 C 0.20718 0.39063 0.09913 0.0
H716 H 0.14325 0.35982 0.09434 0.0
C717 C 0.12645 0.43372 0.07904 0.0
C718 C 0.10937 0.42222 0.06368 0.0
C719 C 0.14533 0.42376 0.08657 0.0
C720 C 0.16106 0.3686 0.09525 0.0
H721 H 0.26477 0.3627 0.15589 0.0
H722 H 0.23752 0.38392 0.13709 0.0
H723 H 0.17369 0.34071 0.10964 0.0
H724 H 0.09944 0.39175 0.04312 0.0
H725 H 0.13226 0.37442 0.05624 0.0
H726 H 0.19421 0.41869 0.08503 0.0
C727 C 0.23711 0.36675 0.13173 0.0
C728 C 0.17856 0.35762 0.10399 0.0
C729 C 0.25271 0.35463 0.14251 0.0
C730 C 0.11202 0.40087 0.05537 0.0
C731 C 0.13083 0.39094 0.06288 0.0
C732 C 0.18957 0.40168 0.09042 0.0
C733 C 0.22028 0.35643 0.11534 0.0
C734 C 0.20188 0.36842 0.10589 0.0
C735 C 0.14748 0.4021 0.07889 0.0
C736 C 0.16635 0.39071 0.08825 0.0
H737 H 0.23472 0.30455 0.11526 0.0
H738 H 0.20793 0.32571 0.09605 0.0
H739 H 0.22498 0.39939 0.10025 0.0
H740 H 0.12479 0.45012 0.08591 0.0
H741 H 0.15777 0.43271 0.09906 0.0
C742 C 0.59073 0.23593 0.90219 0.0
C743 C 0.61192 0.23773 0.88858 0.0
C744 C 0.58123 0.2161 0.91355 0.0
C745 C 0.58509 0.1549 0.91464 0.0
H746 H 0.55085 0.158 0.97513 0.0
C747 C 0.55104 0.07582 0.97141 0.0
C748 C 0.52876 0.07483 0.98269 0.0
C749 C 0.56204 0.09537 0.96025 0.0
C750 C 0.56013 0.15666 0.95812 0.0
H751 H 0.63917 0.21901 0.87625 0.0
H752 H 0.62313 0.18504 0.89641 0.0
H753 H 0.56769 0.19189 0.95528 0.0
H754 H 0.50091 0.09402 0.99118 0.0
H755 H 0.51978 0.12762 0.97205 0.0
H756 H 0.57758 0.11957 0.91771 0.0
C757 C 0.61359 0.19892 0.89814 0.0
C758 C 0.56984 0.17631 0.94657 0.0
C759 C 0.62306 0.21873 0.88673 0.0
C760 C 0.51805 0.09403 0.98275 0.0
C761 C 0.52904 0.1135 0.97182 0.0
C762 C 0.57544 0.13522 0.92627 0.0
C763 C 0.5925 0.19717 0.91189 0.0
C764 C 0.58239 0.1759 0.92448 0.0
C765 C 0.55121 0.11462 0.96024 0.0
C766 C 0.56258 0.13569 0.94816 0.0
H767 H 0.58154 0.25 0.90448 0.0
H768 H 0.56482 0.21565 0.92353 0.0
H769 H 0.59425 0.15354 0.89758 0.0
H770 H 0.55987 0.06142 0.97096 0.0
H771 H 0.57917 0.09544 0.9518 0.0
C772 C 0.89547 0.80758 0.38618 0.0
C773 C 0.90652 0.78867 0.38796 0.0
C774 C 0.90508 0.82788 0.397 0.0
C775 C 0.94861 0.85274 0.44363 0.0
H776 H 0.9408 0.90758 0.41372 0.0
C777 C 0.97645 0.93781 0.49243 0.0
C778 C 0.98552 0.95621 0.47853 0.0
C779 C 0.96668 0.91765 0.48141 0.0
C780 C 0.94343 0.8925 0.42231 0.0
H781 H 0.93676 0.77688 0.40295 0.0
H782 H 0.95384 0.81219 0.42094 0.0
H783 H 0.92519 0.87254 0.39427 0.0
H784 H 0.99133 0.96748 0.44185 0.0
H785 H 0.97485 0.93244 0.4227 0.0
H786 H 0.96755 0.87269 0.47125 0.0
C787 C 0.9374 0.81128 0.41152 0.0
C788 C 0.93409 0.87222 0.41125 0.0
C789 C 0.92771 0.79094 0.4008 0.0
C790 C 0.98441 0.95381 0.45324 0.0
C791 C 0.97477 0.9336 0.44221 0.0
C792 C 0.95806 0.87302 0.45463 0.0
C793 C 0.92622 0.83014 0.40993 0.0
C794 C 0.93645 0.85193 0.42171 0.0
C795 C 0.96576 0.9151 0.45607 0.0
C796 C 0.95562 0.89331 0.44422 0.0
H797 H 0.87935 0.80683 0.37623 0.0
H798 H 0.89564 0.84175 0.39547 0.0
H799 H 0.95066 0.83767 0.45258 0.0
H800 H 0.97686 0.93893 0.51194 0.0
H801 H 0.95962 0.9041 0.49289 0.0
C802 C 0.32332 0.73529 0.53368 0.0
C803 C 0.32963 0.75822 0.53116 0.0
C804 C 0.33629 0.72065 0.52195 0.0
C805 C 0.39649 0.71892 0.5055 0.0
H806 H 0.37181 0.6596 0.48309 0.0
C807 C 0.4546 0.65077 0.50391 0.0
C808 C 0.44385 0.63119 0.51472 0.0
C809 C 0.44107 0.66654 0.49688 0.0
C810 C 0.379 0.67613 0.48923 0.0
H811 H 0.35328 0.78361 0.51249 0.0
H812 H 0.37646 0.75793 0.4926 0.0
H813 H 0.34583 0.6876 0.48622 0.0
H814 H 0.41054 0.6125 0.52612 0.0
H815 H 0.38704 0.64008 0.51446 0.0
H816 H 0.42913 0.70723 0.51032 0.0
C817 C 0.36146 0.7514 0.50376 0.0
C818 C 0.36416 0.69215 0.49088 0.0
C819 C 0.34829 0.76607 0.5153 0.0
C820 C 0.41928 0.62734 0.51761 0.0
C821 C 0.40579 0.64313 0.51075 0.0
C822 C 0.41127 0.70287 0.50406 0.0
C823 C 0.356 0.72861 0.50759 0.0
C824 C 0.37256 0.71343 0.49998 0.0
C825 C 0.41654 0.6631 0.50071 0.0
C826 C 0.40242 0.68105 0.49692 0.0
H827 H 0.30931 0.72859 0.54596 0.0
H828 H 0.33188 0.70319 0.52553 0.0
H829 H 0.4034 0.73513 0.5128 0.0
H830 H 0.4735 0.65397 0.50112 0.0
H831 H 0.44986 0.68163 0.48892 0.0
C832 C 0.80144 0.83978 0.74159 0.0
C833 C 0.7825 0.82583 0.73112 0.0
C834 C 0.81845 0.85209 0.7272 0.0
C835 C 0.84373 0.8573 0.66553 0.0
H836 H 0.8658 0.91712 0.68841 0.0
C837 C 0.90721 0.9228 0.61166 0.0
C838 C 0.92588 0.93447 0.62502 0.0
C839 C 0.88919 0.90867 0.62316 0.0
C840 C 0.8599 0.90041 0.68187 0.0
H841 H 0.76683 0.81317 0.69741 0.0
H842 H 0.79658 0.83514 0.67196 0.0
H843 H 0.835 0.89406 0.71081 0.0
H844 H 0.94071 0.93961 0.66078 0.0
H845 H 0.90906 0.91541 0.6808 0.0
H846 H 0.86871 0.864 0.63636 0.0
C847 C 0.79832 0.83637 0.69137 0.0
C848 C 0.8423 0.88716 0.69471 0.0
C849 C 0.7813 0.82384 0.70587 0.0
C850 C 0.92634 0.93133 0.65002 0.0
C851 C 0.90826 0.9174 0.66149 0.0
C852 C 0.86129 0.8707 0.65251 0.0
C853 C 0.81686 0.85092 0.70194 0.0
C854 C 0.83434 0.8653 0.68701 0.0
C855 C 0.88941 0.90611 0.64823 0.0
C856 C 0.86981 0.89223 0.66086 0.0
H857 H 0.80305 0.84123 0.76102 0.0
H858 H 0.83285 0.86262 0.73593 0.0
H859 H 0.83805 0.84051 0.65918 0.0
H860 H 0.90618 0.925 0.59242 0.0
H861 H 0.87476 0.90024 0.61257 0.0
C862 C 0.64951 0.16039 0.30959 0.0
C863 C 0.66736 0.17861 0.30698 0.0
C864 C 0.6363 0.1517 0.28982 0.0
C865 C 0.62043 0.16171 0.22725 0.0
H866 H 0.61831 0.09833 0.21991 0.0
C867 C 0.59987 0.11344 0.13713 0.0
C868 C 0.5881 0.09164 0.13825 0.0
C869 C 0.60618 0.12554 0.15833 0.0
C870 C 0.61827 0.11595 0.22183 0.0
H871 H 0.68451 0.20282 0.28194 0.0
H872 H 0.66136 0.18756 0.24724 0.0
H873 H 0.63485 0.11718 0.25603 0.0
H874 H 0.57221 0.06589 0.1621 0.0
H875 H 0.58262 0.08713 0.19909 0.0
H876 H 0.604 0.1604 0.19278 0.0
C877 C 0.65754 0.18009 0.26465 0.0
C878 C 0.62781 0.12678 0.24256 0.0
C879 C 0.67079 0.18881 0.28449 0.0
C880 C 0.58166 0.08254 0.16082 0.0
C881 C 0.5877 0.0947 0.18196 0.0
C882 C 0.6107 0.15082 0.20647 0.0
C883 C 0.64064 0.16106 0.267 0.0
C884 C 0.62914 0.14976 0.24546 0.0
C885 C 0.60061 0.11611 0.18099 0.0
C886 C 0.60964 0.12781 0.20348 0.0
H887 H 0.64614 0.15249 0.32684 0.0
H888 H 0.62306 0.13728 0.29226 0.0
H889 H 0.62113 0.17944 0.22909 0.0
H890 H 0.60509 0.12076 0.1199 0.0
H891 H 0.6163 0.1419 0.15692 0.0
C892 C 0.43118 0.63099 0.29279 0.0
C893 C 0.40843 0.63703 0.29398 0.0
C894 C 0.44025 0.62041 0.31208 0.0
C895 C 0.42956 0.6068 0.37837 0.0
H896 H 0.47464 0.56706 0.3649 0.0
C897 C 0.47532 0.56755 0.45669 0.0
C898 C 0.48262 0.54675 0.45298 0.0
C899 C 0.4664 0.57855 0.43765 0.0
C900 C 0.46185 0.57785 0.36923 0.0
H901 H 0.37785 0.63651 0.31767 0.0
H902 H 0.39301 0.61746 0.35033 0.0
H903 H 0.4588 0.5852 0.33194 0.0
H904 H 0.48568 0.5213 0.42583 0.0
H905 H 0.4696 0.53987 0.3931 0.0
H906 H 0.43188 0.59874 0.41558 0.0
C907 C 0.40422 0.62125 0.33463 0.0
C908 C 0.45295 0.58871 0.35008 0.0
C909 C 0.39524 0.632 0.31544 0.0
C910 C 0.48043 0.53729 0.42955 0.0
C911 C 0.4713 0.54818 0.41056 0.0
C912 C 0.43831 0.59579 0.39751 0.0
C913 C 0.42695 0.61519 0.33344 0.0
C914 C 0.4366 0.60348 0.35417 0.0
C915 C 0.46419 0.56914 0.41409 0.0
C916 C 0.45469 0.58104 0.39342 0.0
H917 H 0.44206 0.63413 0.27675 0.0
H918 H 0.45792 0.61653 0.31018 0.0
H919 H 0.41737 0.61816 0.38277 0.0
H920 H 0.47685 0.57559 0.47431 0.0
H921 H 0.46166 0.59472 0.44146 0.0
C922 C 0.12366 0.40294 0.81843 0.0
C923 C 0.11799 0.4066 0.79439 0.0
C924 C 0.11362 0.41364 0.83788 0.0
C925 C 0.08645 0.46344 0.85321 0.0
H926 H 0.06227 0.43204 0.91045 0.0
C927 C 0.03534 0.50652 0.92642 0.0
C928 C 0.03638 0.50101 0.95079 0.0
C929 C 0.04499 0.49433 0.90809 0.0
C930 C 0.06923 0.44127 0.89483 0.0
H931 H 0.09725 0.42474 0.77227 0.0
H932 H 0.08007 0.44356 0.80602 0.0
H933 H 0.07971 0.4124 0.87754 0.0
H934 H 0.04855 0.47815 0.97494 0.0
H935 H 0.06616 0.45715 0.94308 0.0
H936 H 0.07685 0.4924 0.87043 0.0
C937 C 0.09223 0.43229 0.80987 0.0
C938 C 0.07919 0.42989 0.87582 0.0
C939 C 0.10196 0.42133 0.79046 0.0
C940 C 0.04725 0.48274 0.95635 0.0
C941 C 0.05731 0.47065 0.93794 0.0
C942 C 0.07684 0.47486 0.87228 0.0
C943 C 0.0979 0.42865 0.83391 0.0
C944 C 0.08774 0.44076 0.85459 0.0
C945 C 0.05653 0.47635 0.91341 0.0
C946 C 0.06773 0.46399 0.8934 0.0
H947 H 0.13578 0.39162 0.82226 0.0
H948 H 0.11856 0.41048 0.85607 0.0
H949 H 0.09323 0.47253 0.83742 0.0
H950 H 0.02691 0.52035 0.92139 0.0
H951 H 0.04318 0.49907 0.88964 0.0
C952 C 0.64251 0.8537 0.90148 0.0
C953 C 0.6317 0.83662 0.88625 0.0
C954 C 0.6295 0.86885 0.91215 0.0
C955 C 0.57578 0.89343 0.90425 0.0
H956 H 0.59065 0.9173 0.96847 0.0
C957 C 0.52753 0.95885 0.95479 0.0
C958 C 0.54214 0.97563 0.9675 0.0
C959 C 0.53692 0.94125 0.94377 0.0
C960 C 0.58642 0.9109 0.95044 0.0
H961 H 0.59857 0.82159 0.87084 0.0
H962 H 0.57557 0.84804 0.88989 0.0
H963 H 0.60885 0.88634 0.95304 0.0
H964 H 0.57827 0.98772 0.9773 0.0
H965 H 0.59452 0.95719 0.95806 0.0
H966 H 0.55329 0.91818 0.90182 0.0
C967 C 0.59425 0.84981 0.89327 0.0
C968 C 0.59682 0.89314 0.9416 0.0
C969 C 0.60734 0.83454 0.8826 0.0
C970 C 0.56646 0.97503 0.96784 0.0
C971 C 0.57577 0.95743 0.95697 0.0
C972 C 0.56522 0.91118 0.91319 0.0
C973 C 0.60527 0.8673 0.90795 0.0
C974 C 0.59205 0.88449 0.91821 0.0
C975 C 0.56104 0.94007 0.9454 0.0
C976 C 0.57086 0.92038 0.93619 0.0
H977 H 0.66121 0.85558 0.90484 0.0
H978 H 0.63864 0.88223 0.9231 0.0
H979 H 0.57187 0.88728 0.88607 0.0
H980 H 0.50873 0.95884 0.95414 0.0
H981 H 0.52517 0.92811 0.93492 0.0
C982 C 0.84495 0.13275 0.41044 0.0
C983 C 0.83975 0.1494 0.42663 0.0
C984 C 0.86176 0.11957 0.41609 0.0
C985 C 0.88531 0.08512 0.44068 0.0
H986 H 0.94254 0.10994 0.47355 0.0
C987 C 0.94129 0.03275 0.49368 0.0
C988 C 0.96577 0.03905 0.49327 0.0
C989 C 0.92681 0.0456 0.48238 0.0
C990 C 0.9268 0.10276 0.46409 0.0
H991 H 0.84819 0.16542 0.46134 0.0
H992 H 0.87751 0.14244 0.47123 0.0
H993 H 0.91633 0.13439 0.45944 0.0
H994 H 0.99452 0.06306 0.47995 0.0
H995 H 0.96932 0.08524 0.45981 0.0
H996 H 0.89585 0.05347 0.4453 0.0
C997 C 0.86885 0.13976 0.454 0.0
C998 C 0.91165 0.11675 0.45627 0.0
C999 C 0.85206 0.15293 0.44835 0.0
C1000 C 0.97565 0.05788 0.48059 0.0
C1001 C 0.96122 0.07066 0.46922 0.0
C1002 C 0.90049 0.0711 0.4485 0.0
C1003 C 0.87372 0.1228 0.43805 0.0
C1004 C 0.8906 0.10807 0.44477 0.0
C1005 C 0.93662 0.06492 0.47041 0.0
C1006 C 0.92126 0.07976 0.46054 0.0
H1007 H 0.83597 0.12986 0.3934 0.0
H1008 H 0.86539 0.10684 0.40328 0.0
H1009 H 0.86911 0.07791 0.43204 0.0
H1010 H 0.93328 0.01828 0.50335 0.0
H1011 H 0.90792 0.04085 0.48381 0.0
C1012 C 0.23014 0.62843 0.1471 0.0
C1013 C 0.25186 0.63186 0.13438 0.0
C1014 C 0.2094 0.61796 0.13601 0.0
C1015 C 0.18226 0.60425 0.07567 0.0
H1016 H 0.13738 0.56283 0.11119 0.0
C1017 C 0.08846 0.57043 0.03933 0.0
C1018 C 0.07925 0.54805 0.04302 0.0
C1019 C 0.10965 0.58028 0.05001 0.0
C1020 C 0.14973 0.57425 0.10089 0.0
H1021 H 0.2681 0.62611 0.09959 0.0
H1022 H 0.23213 0.60847 0.08035 0.0
H1023 H 0.17356 0.58035 0.13051 0.0
H1024 H 0.08567 0.51864 0.06116 0.0
H1025 H 0.12238 0.53576 0.07977 0.0
H1026 H 0.15844 0.59815 0.04605 0.0
C1027 C 0.23111 0.61409 0.09895 0.0
C1028 C 0.17048 0.58453 0.11211 0.0
C1029 C 0.2519 0.62437 0.11009 0.0
C1030 C 0.09207 0.53586 0.05773 0.0
C1031 C 0.11314 0.54578 0.06862 0.0
C1032 C 0.16139 0.59416 0.06454 0.0
C1033 C 0.20947 0.61068 0.1117 0.0
C1034 C 0.18716 0.59969 0.0997 0.0
C1035 C 0.1223 0.56819 0.065 0.0
C1036 C 0.14475 0.57894 0.07692 0.0
H1037 H 0.22894 0.63419 0.16561 0.0
H1038 H 0.19313 0.61598 0.14644 0.0
H1039 H 0.19444 0.61592 0.06548 0.0
H1040 H 0.07921 0.58048 0.02822 0.0
H1041 H 0.11585 0.59759 0.04689 0.0
C1042 C 0.28704 0.40317 0.61316 0.0
C1043 C 0.28049 0.41059 0.63618 0.0
C1044 C 0.30732 0.41362 0.60122 0.0
C1045 C 0.3653 0.44746 0.61114 0.0
H1046 H 0.36187 0.46172 0.54377 0.0
C1047 C 0.44713 0.49299 0.55888 0.0
C1048 C 0.44959 0.4878 0.53421 0.0
C1049 C 0.42633 0.48498 0.57174 0.0
C1050 C 0.36343 0.45758 0.56246 0.0
H1051 H 0.29055 0.43477 0.66472 0.0
H1052 H 0.32626 0.45274 0.64405 0.0
H1053 H 0.32664 0.44464 0.5651 0.0
H1054 H 0.43199 0.47003 0.50381 0.0
H1055 H 0.39651 0.45548 0.52605 0.0
H1056 H 0.40221 0.45961 0.60843 0.0
C1057 C 0.31552 0.4389 0.6352 0.0
C1058 C 0.34304 0.44784 0.57476 0.0
C1059 C 0.29496 0.42869 0.64697 0.0
C1060 C 0.43071 0.47452 0.52274 0.0
C1061 C 0.41012 0.46627 0.5356 0.0
C1062 C 0.38584 0.45688 0.59873 0.0
C1063 C 0.32193 0.43158 0.61208 0.0
C1064 C 0.34367 0.44254 0.59925 0.0
C1065 C 0.40747 0.4713 0.56036 0.0
C1066 C 0.38534 0.462 0.57408 0.0
H1067 H 0.27627 0.3894 0.60421 0.0
H1068 H 0.31176 0.40743 0.58353 0.0
H1069 H 0.3665 0.44345 0.62994 0.0
H1070 H 0.46132 0.50323 0.56827 0.0
H1071 H 0.42507 0.48966 0.5906 0.0
C1072 C 0.79407 0.7092 0.88707 0.0
C1073 C 0.77386 0.6974 0.87634 0.0
C1074 C 0.81208 0.69823 0.89467 0.0
C1075 C 0.82538 0.64463 0.9132 0.0
H1076 H 0.88955 0.66934 0.89604 0.0
C1077 C 0.90425 0.6018 0.93824 0.0
C1078 C 0.92447 0.6156 0.94651 0.0
C1079 C 0.88596 0.61076 0.92781 0.0
C1080 C 0.87178 0.66232 0.90123 0.0
H1081 H 0.75647 0.6648 0.86562 0.0
H1082 H 0.788 0.6455 0.87921 0.0
H1083 H 0.8571 0.68692 0.88234 0.0
H1084 H 0.94162 0.64965 0.94942 0.0
H1085 H 0.90955 0.66527 0.93212 0.0
H1086 H 0.84001 0.62039 0.93268 0.0
C1087 C 0.78983 0.66327 0.88164 0.0
C1088 C 0.85318 0.67239 0.89331 0.0
C1089 C 0.77187 0.67431 0.87378 0.0
C1090 C 0.92617 0.63853 0.94359 0.0
C1091 C 0.90786 0.64748 0.93333 0.0
C1092 C 0.84401 0.63466 0.92134 0.0
C1093 C 0.81025 0.67518 0.89188 0.0
C1094 C 0.82981 0.66379 0.89942 0.0
C1095 C 0.88741 0.63375 0.9255 0.0
C1096 C 0.86748 0.64352 0.91566 0.0
H1097 H 0.79626 0.72703 0.88901 0.0
H1098 H 0.8275 0.70781 0.90273 0.0
H1099 H 0.80754 0.63774 0.91832 0.0
H1100 H 0.90221 0.58409 0.94039 0.0
H1101 H 0.87063 0.59965 0.92168 0.0
C1102 C 0.40097 0.80323 0.12069 0.0
C1103 C 0.41079 0.79565 0.14149 0.0
C1104 C 0.41026 0.82362 0.11039 0.0
C1105 C 0.46453 0.86689 0.10946 0.0
H1106 H 0.42407 0.90154 0.07704 0.0
C1107 C 0.50414 0.94216 0.05199 0.0
C1108 C 0.49277 0.96094 0.0514 0.0
C1109 C 0.49351 0.92261 0.06299 0.0
C1110 C 0.43572 0.89227 0.08616 0.0
H1111 H 0.43853 0.80447 0.16749 0.0
H1112 H 0.45424 0.83992 0.15004 0.0
H1113 H 0.40706 0.86731 0.0965 0.0
H1114 H 0.46075 0.9734 0.06183 0.0
H1115 H 0.44215 0.93933 0.0813 0.0
H1116 H 0.4931 0.89199 0.09965 0.0
C1117 C 0.43946 0.82991 0.14136 0.0
C1118 C 0.42593 0.8723 0.09715 0.0
C1119 C 0.43017 0.80951 0.15167 0.0
C1120 C 0.47009 0.95934 0.06188 0.0
C1121 C 0.45938 0.93966 0.07301 0.0
C1122 C 0.47429 0.8868 0.09849 0.0
C1123 C 0.42978 0.83738 0.12042 0.0
C1124 C 0.44014 0.85912 0.10896 0.0
C1125 C 0.47102 0.92095 0.074 0.0
C1126 C 0.46015 0.89987 0.08644 0.0
H1127 H 0.38586 0.79347 0.11231 0.0
H1128 H 0.40226 0.82837 0.09421 0.0
H1129 H 0.47633 0.85739 0.118 0.0
H1130 H 0.5215 0.94256 0.04394 0.0
H1131 H 0.50302 0.90867 0.06264 0.0
C1132 C 0.13736 0.23814 0.62145 0.0
C1133 C 0.12313 0.24883 0.63743 0.0
C1134 C 0.1288 0.2177 0.61035 0.0
C1135 C 0.07956 0.1695 0.61409 0.0
H1136 H 0.10369 0.15494 0.55101 0.0
C1137 C 0.05491 0.08144 0.57125 0.0
C1138 C 0.05304 0.07903 0.54601 0.0
C1139 C 0.0637 0.10194 0.58216 0.0
C1140 C 0.09645 0.15867 0.56851 0.0
H1141 H 0.08826 0.24566 0.65387 0.0
H1142 H 0.07311 0.2108 0.6338 0.0
H1143 H 0.11728 0.19078 0.56958 0.0
H1144 H 0.05903 0.09677 0.5126 0.0
H1145 H 0.07359 0.13242 0.53142 0.0
H1146 H 0.05794 0.13779 0.61256 0.0
C1147 C 0.09121 0.21796 0.63026 0.0
C1148 C 0.10462 0.17931 0.57946 0.0
C1149 C 0.09986 0.23833 0.64158 0.0
C1150 C 0.06036 0.0978 0.53203 0.0
C1151 C 0.06888 0.11838 0.54295 0.0
C1152 C 0.0712 0.14896 0.60304 0.0
C1153 C 0.10555 0.20717 0.61449 0.0
C1154 C 0.09643 0.18512 0.60253 0.0
C1155 C 0.07067 0.12089 0.56825 0.0
C1156 C 0.07955 0.14307 0.58006 0.0
H1157 H 0.15521 0.24562 0.61724 0.0
H1158 H 0.14069 0.21005 0.5987 0.0
H1159 H 0.0729 0.17295 0.63194 0.0
H1160 H 0.04962 0.06742 0.5827 0.0
H1161 H 0.06517 0.10278 0.60159 0.0
C1162 C 0.70232 0.30153 0.49641 0.0
C1163 C 0.69847 0.27834 0.49555 0.0
C1164 C 0.68623 0.31311 0.50823 0.0
C1165 C 0.62324 0.30515 0.51905 0.0
H1166 H 0.63728 0.36563 0.543 0.0
C1167 C 0.57084 0.37209 0.49325 0.0
C1168 C 0.56826 0.38962 0.50938 0.0
C1169 C 0.58353 0.35557 0.49974 0.0
C1170 C 0.63289 0.34859 0.53687 0.0
H1171 H 0.67594 0.24908 0.50827 0.0
H1172 H 0.64799 0.26935 0.52927 0.0
H1173 H 0.66796 0.34222 0.5423 0.0
H1174 H 0.57563 0.40272 0.54562 0.0
H1175 H 0.59825 0.37393 0.55679 0.0
H1176 H 0.58846 0.31178 0.51271 0.0
C1177 C 0.66327 0.27857 0.52049 0.0
C1178 C 0.65054 0.33526 0.53627 0.0
C1179 C 0.67939 0.26697 0.50863 0.0
C1180 C 0.57771 0.38966 0.5326 0.0
C1181 C 0.59056 0.37315 0.53906 0.0
C1182 C 0.60561 0.31846 0.51969 0.0
C1183 C 0.66596 0.30172 0.51946 0.0
C1184 C 0.6462 0.31375 0.52625 0.0
C1185 C 0.59401 0.3562 0.52248 0.0
C1186 C 0.61058 0.34064 0.52748 0.0
H1187 H 0.71708 0.31071 0.48676 0.0
H1188 H 0.68882 0.33093 0.50693 0.0
H1189 H 0.61927 0.2887 0.51112 0.0
H1190 H 0.5641 0.37169 0.47512 0.0
H1191 H 0.58623 0.34297 0.48638 0.0
loop_
_geom_bond_atom_site_label_1
_geom_bond_atom_site_label_2
_geom_bond_distance
_geom_bond_site_symmetry_2
_ccdc_geom_bond_type
C0 C1 1.386 . S
C0 C2 1.397 . S
C0 H24 0.931 . S
C1 C0 1.386 . S
C1 C5 1.397 . S
C2 C0 1.397 . S
C2 C3 1.384 . S
C2 H25 0.930 . S
C3 C2 1.384 . S
C3 C4 1.377 . S
C3 C6 1.481 . S
C4 C3 1.377 . S
C4 C5 1.389 . S
C4 H26 0.929 . S
C5 C1 1.397 . S
C5 C4 1.389 . S
C5 H27 0.931 . S
C6 C3 1.481 . S
C6 C7 1.387 . S
C6 C11 1.390 . S
C7 C6 1.387 . S
C7 C8 1.401 . S
C7 H28 0.930 . S
C8 C7 1.401 . S
C8 C9 1.376 . S
C8 C17 1.511 . S
C9 C8 1.376 . S
C9 C10 1.392 . S
C9 H30 0.931 . S
C10 C9 1.392 . S
C10 C11 1.361 . S
C10 C12 1.500 . S
C11 C6 1.390 . S
C11 C10 1.361 . S
C11 H29 0.931 . S
C12 C10 1.500 . S
C12 C13 1.371 . S
C12 C14 1.365 . S
C13 C12 1.371 . S
C13 C23 1.386 . S
C13 H31 0.931 . S
C14 C12 1.365 . S
C14 C15 1.409 . S
C14 H32 0.929 . S
C15 C14 1.409 . S
C15 C16 1.380 . S
C15 H33 0.930 . S
C16 C15 1.380 . S
C16 C23 1.357 . S
C17 C8 1.511 . S
C17 C18 1.341 . S
C17 C19 1.371 . S
C18 C17 1.341 . S
C18 C22 1.394 . S
C18 H34 0.930 . S
C19 C17 1.371 . S
C19 C20 1.392 . S
C19 H35 0.931 . S
C20 C19 1.392 . S
C20 C21 1.331 . S
C20 H38 0.932 . S
C21 C20 1.331 . S
C21 C22 1.336 . S
C22 C18 1.394 . S
C22 C21 1.336 . S
C22 H37 0.929 . S
C23 C13 1.386 . S
C23 C16 1.357 . S
C23 H36 0.928 . S
H24 C0 0.931 . S
H25 C2 0.930 . S
H26 C4 0.929 . S
H27 C5 0.931 . S
H28 C7 0.930 . S
H29 C11 0.931 . S
H30 C9 0.931 . S
H31 C13 0.931 . S
H32 C14 0.929 . S
H33 C15 0.930 . S
H34 C18 0.930 . S
H35 C19 0.931 . S
H36 C23 0.928 . S
H37 C22 0.929 . S
H38 C20 0.932 . S
C39 C40 1.386 . S
C39 C41 1.397 . S
C39 H63 0.931 . S
C40 C39 1.386 . S
C40 C44 1.397 . S
C41 C39 1.397 . S
C41 C42 1.384 . S
C41 H64 0.930 . S
C42 C41 1.384 . S
C42 C43 1.377 . S
C42 C45 1.481 . S
C43 C42 1.377 . S
C43 C44 1.389 . S
C43 H65 0.929 . S
C44 C40 1.397 . S
C44 C43 1.389 . S
C44 H66 0.931 . S
C45 C42 1.481 . S
C45 C46 1.387 . S
C45 C50 1.390 . S
C46 C45 1.387 . S
C46 C47 1.401 . S
C46 H67 0.930 . S
C47 C46 1.401 . S
C47 C48 1.376 . S
C47 C56 1.511 . S
C48 C47 1.376 . S
C48 C49 1.392 . S
C48 H69 0.931 . S
C49 C48 1.392 . S
C49 C50 1.361 . S
C49 C51 1.500 . S
C50 C45 1.390 . S
C50 C49 1.361 . S
C50 H68 0.931 . S
C51 C49 1.500 . S
C51 C52 1.371 . S
C51 C53 1.365 . S
C52 C51 1.371 . S
C52 C62 1.386 . S
C52 H70 0.931 . S
C53 C51 1.365 . S
C53 C54 1.409 . S
C53 H71 0.929 . S
C54 C53 1.409 . S
C54 C55 1.380 . S
C54 H72 0.930 . S
C55 C54 1.380 . S
C55 C62 1.357 . S
C56 C47 1.511 . S
C56 C57 1.341 . S
C56 C58 1.371 . S
C57 C56 1.341 . S
C57 C61 1.394 . S
C57 H73 0.930 . S
C58 C56 1.371 . S
C58 C59 1.392 . S
C58 H74 0.931 . S
C59 C58 1.392 . S
C59 C60 1.331 . S
C59 H77 0.932 . S
C60 C59 1.331 . S
C60 C61 1.336 . S
C61 C57 1.394 . S
C61 C60 1.336 . S
C61 H76 0.929 . S
C62 C52 1.386 . S
C62 C55 1.357 . S
C62 H75 0.928 . S
H63 C39 0.931 . S
H64 C41 0.930 . S
H65 C43 0.929 . S
H66 C44 0.931 . S
H67 C46 0.930 . S
H68 C50 0.931 . S
H69 C48 0.931 . S
H70 C52 0.931 . S
H71 C53 0.929 . S
H72 C54 0.930 . S
H73 C57 0.930 . S
H74 C58 0.931 . S
H75 C62 0.928 . S
H76 C61 0.929 . S
H77 C59 0.932 . S
C78 C79 1.386 . S
C78 C80 1.397 . S
C78 H102 0.931 . S
C79 C78 1.386 . S
C79 C83 1.397 . S
C80 C78 1.397 . S
C80 C81 1.384 . S
C80 H103 0.930 . S
C81 C80 1.384 . S
C81 C82 1.377 . S
C81 C84 1.481 . S
C82 C81 1.377 . S
C82 C83 1.389 . S
C82 H104 0.929 . S
C83 C79 1.397 . S
C83 C82 1.389 . S
C83 H105 0.931 . S
C84 C81 1.481 . S
C84 C85 1.387 . S
C84 C89 1.390 . S
C85 C84 1.387 . S
C85 C86 1.401 . S
C85 H106 0.930 . S
C86 C85 1.401 . S
C86 C87 1.376 . S
C86 C95 1.511 . S
C87 C86 1.376 . S
C87 C88 1.392 . S
C87 H108 0.931 . S
C88 C87 1.392 . S
C88 C89 1.361 . S
C88 C90 1.500 . S
C89 C84 1.390 . S
C89 C88 1.361 . S
C89 H107 0.931 . S
C90 C88 1.500 . S
C90 C91 1.371 . S
C90 C92 1.365 . S
C91 C90 1.371 . S
C91 C101 1.386 . S
C91 H109 0.931 . S
C92 C90 1.365 . S
C92 C93 1.409 . S
C92 H110 0.929 . S
C93 C92 1.409 . S
C93 C94 1.380 . S
C93 H111 0.930 . S
C94 C93 1.380 . S
C94 C101 1.357 . S
C95 C86 1.511 . S
C95 C96 1.341 . S
C95 C97 1.371 . S
C96 C95 1.341 . S
C96 C100 1.394 . S
C96 H112 0.930 . S
C97 C95 1.371 . S
C97 C98 1.392 . S
C97 H113 0.931 . S
C98 C97 1.392 . S
C98 C99 1.331 . S
C98 H116 0.932 . S
C99 C98 1.331 . S
C99 C100 1.336 . S
C100 C96 1.394 . S
C100 C99 1.336 . S
C100 H115 0.929 . S
C101 C91 1.386 . S
C101 C94 1.357 . S
C101 H114 0.928 . S
H102 C78 0.931 . S
H103 C80 0.930 . S
H104 C82 0.929 . S
H105 C83 0.931 . S
H106 C85 0.930 . S
H107 C89 0.931 . S
H108 C87 0.931 . S
H109 C91 0.931 . S
H110 C92 0.929 . S
H111 C93 0.930 . S
H112 C96 0.930 . S
H113 C97 0.931 . S
H114 C101 0.928 . S
H115 C100 0.929 . S
H116 C98 0.932 . S
C117 C118 1.386 . S
C117 C119 1.397 . S
C117 H141 0.931 . S
C118 C117 1.386 . S
C118 C122 1.397 . S
C119 C117 1.397 . S
C119 C120 1.384 . S
C119 H142 0.930 . S
C120 C119 1.384 . S
C120 C121 1.377 . S
C120 C123 1.481 . S
C121 C120 1.377 . S
C121 C122 1.389 . S
C121 H143 0.929 . S
C122 C118 1.397 . S
C122 C121 1.389 . S
C122 H144 0.931 . S
C123 C120 1.481 . S
C123 C124 1.387 . S
C123 C128 1.390 . S
C124 C123 1.387 . S
C124 C125 1.401 . S
C124 H145 0.930 . S
C125 C124 1.401 . S
C125 C126 1.376 . S
C125 C134 1.511 . S
C126 C125 1.376 . S
C126 C127 1.392 . S
C126 H147 0.931 . S
C127 C126 1.392 . S
C127 C128 1.361 . S
C127 C129 1.500 . S
C128 C123 1.390 . S
C128 C127 1.361 . S
C128 H146 0.931 . S
C129 C127 1.500 . S
C129 C130 1.371 . S
C129 C131 1.365 . S
C130 C129 1.371 . S
C130 C140 1.386 . S
C130 H148 0.931 . S
C131 C129 1.365 . S
C131 C132 1.409 . S
C131 H149 0.929 . S
C132 C131 1.409 . S
C132 C133 1.380 . S
C132 H150 0.930 . S
C133 C132 1.380 . S
C133 C140 1.357 . S
C134 C125 1.511 . S
C134 C135 1.341 . S
C134 C136 1.371 . S
C135 C134 1.341 . S
C135 C139 1.394 . S
C135 H151 0.930 . S
C136 C134 1.371 . S
C136 C137 1.392 . S
C136 H152 0.931 . S
C137 C136 1.392 . S
C137 C138 1.331 . S
C137 H155 0.932 . S
C138 C137 1.331 . S
C138 C139 1.336 . S
C139 C135 1.394 . S
C139 C138 1.336 . S
C139 H154 0.929 . S
C140 C130 1.386 . S
C140 C133 1.357 . S
C140 H153 0.928 . S
H141 C117 0.931 . S
H142 C119 0.930 . S
H143 C121 0.929 . S
H144 C122 0.931 . S
H145 C124 0.930 . S
H146 C128 0.931 . S
H147 C126 0.931 . S
H148 C130 0.931 . S
H149 C131 0.929 . S
H150 C132 0.930 . S
H151 C135 0.930 . S
H152 C136 0.931 . S
H153 C140 0.928 . S
H154 C139 0.929 . S
H155 C137 0.932 . S
C156 C157 1.386 . S
C156 C158 1.397 . S
C156 H180 0.931 . S
C157 C156 1.386 . S
C157 C161 1.397 . S
C158 C156 1.397 . S
C158 C159 1.384 . S
C158 H181 0.930 . S
C159 C158 1.384 . S
C159 C160 1.377 . S
C159 C162 1.481 . S
C160 C159 1.377 . S
C160 C161 1.389 . S
C160 H182 0.929 . S
C161 C157 1.397 . S
C161 C160 1.389 . S
C161 H183 0.931 . S
C162 C159 1.481 . S
C162 C163 1.387 . S
C162 C167 1.390 . S
C163 C162 1.387 . S
C163 C164 1.401 . S
C163 H184 0.930 . S
C164 C163 1.401 . S
C164 C165 1.376 . S
C164 C173 1.511 . S
C165 C164 1.376 . S
C165 C166 1.392 . S
C165 H186 0.931 . S
C166 C165 1.392 . S
C166 C167 1.361 . S
C166 C168 1.500 . S
C167 C162 1.390 . S
C167 C166 1.361 . S
C167 H185 0.931 . S
C168 C166 1.500 . S
C168 C169 1.371 . S
C168 C170 1.365 . S
C169 C168 1.371 . S
C169 C179 1.386 . S
C169 H187 0.931 . S
C170 C168 1.365 . S
C170 C171 1.409 . S
C170 H188 0.929 . S
C171 C170 1.409 . S
C171 C172 1.380 . S
C171 H189 0.930 . S
C172 C171 1.380 . S
C172 C179 1.357 . S
C173 C164 1.511 . S
C173 C174 1.341 . S
C173 C175 1.371 . S
C174 C173 1.341 . S
C174 C178 1.394 . S
C174 H190 0.930 . S
C175 C173 1.371 . S
C175 C176 1.392 . S
C175 H191 0.931 . S
C176 C175 1.392 . S
C176 C177 1.331 . S
C176 H194 0.932 . S
C177 C176 1.331 . S
C177 C178 1.336 . S
C178 C174 1.394 . S
C178 C177 1.336 . S
C178 H193 0.929 . S
C179 C169 1.386 . S
C179 C172 1.357 . S
C179 H192 0.928 . S
H180 C156 0.931 . S
H181 C158 0.930 . S
H182 C160 0.929 . S
H183 C161 0.931 . S
H184 C163 0.930 . S
H185 C167 0.931 . S
H186 C165 0.931 . S
H187 C169 0.931 . S
H188 C170 0.929 . S
H189 C171 0.930 . S
H190 C174 0.930 . S
H191 C175 0.931 . S
H192 C179 0.928 . S
H193 C178 0.929 . S
H194 C176 0.932 . S
C195 C196 1.386 . S
C195 C197 1.397 . S
C195 H219 0.931 . S
C196 C195 1.386 . S
C196 C200 1.397 . S
C197 C195 1.397 . S
C197 C198 1.384 . S
C197 H220 0.930 . S
C198 C197 1.384 . S
C198 C199 1.377 . S
C198 C201 1.481 . S
C199 C198 1.377 . S
C199 C200 1.389 . S
C199 H221 0.929 . S
C200 C196 1.397 . S
C200 C199 1.389 . S
C200 H222 0.931 . S
C201 C198 1.481 . S
C201 C202 1.387 . S
C201 C206 1.390 . S
C202 C201 1.387 . S
C202 C203 1.401 . S
C202 H223 0.930 . S
C203 C202 1.401 . S
C203 C204 1.376 . S
C203 C212 1.511 . S
C204 C203 1.376 . S
C204 C205 1.392 . S
C204 H225 0.931 . S
C205 C204 1.392 . S
C205 C206 1.361 . S
C205 C207 1.500 . S
C206 C201 1.390 . S
C206 C205 1.361 . S
C206 H224 0.931 . S
C207 C205 1.500 . S
C207 C208 1.371 . S
C207 C209 1.365 . S
C208 C207 1.371 . S
C208 C218 1.386 . S
C208 H226 0.931 . S
C209 C207 1.365 . S
C209 C210 1.409 . S
C209 H227 0.929 . S
C210 C209 1.409 . S
C210 C211 1.380 . S
C210 H228 0.930 . S
C211 C210 1.380 . S
C211 C218 1.357 . S
C212 C203 1.511 . S
C212 C213 1.341 . S
C212 C214 1.371 . S
C213 C212 1.341 . S
C213 C217 1.394 . S
C213 H229 0.930 . S
C214 C212 1.371 . S
C214 C215 1.392 . S
C214 H230 0.931 . S
C215 C214 1.392 . S
C215 C216 1.331 . S
C215 H233 0.932 . S
C216 C215 1.331 . S
C216 C217 1.336 . S
C217 C213 1.394 . S
C217 C216 1.336 . S
C217 H232 0.929 . S
C218 C208 1.386 . S
C218 C211 1.357 . S
C218 H231 0.928 . S
H219 C195 0.931 . S
H220 C197 0.930 . S
H221 C199 0.929 . S
H222 C200 0.931 . S
H223 C202 0.930 . S
H224 C206 0.931 . S
H225 C204 0.931 . S
H226 C208 0.931 . S
H227 C209 0.929 . S
H228 C210 0.930 . S
H229 C213 0.930 . S
H230 C214 0.931 . S
H231 C218 0.928 . S
H232 C217 0.929 . S
H233 C215 0.932 . S
C234 C235 1.386 . S
C234 C236 1.397 . S
C234 H258 0.931 . S
C235 C234 1.386 . S
C235 C239 1.397 . S
C236 C234 1.397 . S
C236 C237 1.384 . S
C236 H259 0.930 . S
C237 C236 1.384 . S
C237 C238 1.377 . S
C237 C240 1.481 . S
C238 C237 1.377 . S
C238 C239 1.389 . S
C238 H260 0.929 . S
C239 C235 1.397 . S
C239 C238 1.389 . S
C239 H261 0.931 . S
C240 C237 1.481 . S
C240 C241 1.387 . S
C240 C245 1.390 . S
C241 C240 1.387 . S
C241 C242 1.401 . S
C241 H262 0.930 . S
C242 C241 1.401 . S
C242 C243 1.376 . S
C242 C251 1.511 . S
C243 C242 1.376 . S
C243 C244 1.392 . S
C243 H264 0.931 . S
C244 C243 1.392 . S
C244 C245 1.361 . S
C244 C246 1.500 . S
C245 C240 1.390 . S
C245 C244 1.361 . S
C245 H263 0.931 . S
C246 C244 1.500 . S
C246 C247 1.371 . S
C246 C248 1.365 . S
C247 C246 1.371 . S
C247 C257 1.386 . S
C247 H265 0.931 . S
C248 C246 1.365 . S
C248 C249 1.409 . S
C248 H266 0.929 . S
C249 C248 1.409 . S
C249 C250 1.380 . S
C249 H267 0.930 . S
C250 C249 1.380 . S
C250 C257 1.357 . S
C251 C242 1.511 . S
C251 C252 1.341 . S
C251 C253 1.371 . S
C252 C251 1.341 . S
C252 C256 1.394 . S
C252 H268 0.930 . S
C253 C251 1.371 . S
C253 C254 1.392 . S
C253 H269 0.931 . S
C254 C253 1.392 . S
C254 C255 1.331 . S
C254 H272 0.932 . S
C255 C254 1.331 . S
C255 C256 1.336 . S
C256 C252 1.394 . S
C256 C255 1.336 . S
C256 H271 0.929 . S
C257 C247 1.386 . S
C257 C250 1.357 . S
C257 H270 0.928 . S
H258 C234 0.931 . S
H259 C236 0.930 . S
H260 C238 0.929 . S
H261 C239 0.931 . S
H262 C241 0.930 . S
H263 C245 0.931 . S
H264 C243 0.931 . S
H265 C247 0.931 . S
H266 C248 0.929 . S
H267 C249 0.930 . S
H268 C252 0.930 . S
H269 C253 0.931 . S
H270 C257 0.928 . S
H271 C256 0.929 . S
H272 C254 0.932 . S
C273 C274 1.386 . S
C273 C275 1.397 . S
C273 H297 0.931 . S
C274 C273 1.386 . S
C274 C278 1.397 . S
C275 C273 1.397 . S
C275 C276 1.384 . S
C275 H298 0.930 . S
C276 C275 1.384 . S
C276 C277 1.377 . S
C276 C279 1.481 . S
C277 C276 1.377 . S
C277 C278 1.389 . S
C277 H299 0.929 . S
C278 C274 1.397 . S
C278 C277 1.389 . S
C278 H300 0.931 . S
C279 C276 1.481 . S
C279 C280 1.387 . S
C279 C284 1.390 . S
C280 C279 1.387 . S
C280 C281 1.401 . S
C280 H301 0.930 . S
C281 C280 1.401 . S
C281 C282 1.376 . S
C281 C290 1.511 . S
C282 C281 1.376 . S
C282 C283 1.392 . S
C282 H303 0.931 . S
C283 C282 1.392 . S
C283 C284 1.361 . S
C283 C285 1.500 . S
C284 C279 1.390 . S
C284 C283 1.361 . S
C284 H302 0.931 . S
C285 C283 1.500 . S
C285 C286 1.371 . S
C285 C287 1.365 . S
C286 C285 1.371 . S
C286 C296 1.386 . S
C286 H304 0.931 . S
C287 C285 1.365 . S
C287 C288 1.409 . S
C287 H305 0.929 . S
C288 C287 1.409 . S
C288 C289 1.380 . S
C288 H306 0.930 . S
C289 C288 1.380 . S
C289 C296 1.357 . S
C290 C281 1.511 . S
C290 C291 1.341 . S
C290 C292 1.371 . S
C291 C290 1.341 . S
C291 C295 1.394 . S
C291 H307 0.930 . S
C292 C290 1.371 . S
C292 C293 1.392 . S
C292 H308 0.931 . S
C293 C292 1.392 . S
C293 C294 1.331 . S
C293 H311 0.932 . S
C294 C293 1.331 . S
C294 C295 1.336 . S
C295 C291 1.394 . S
C295 C294 1.336 . S
C295 H310 0.929 . S
C296 C286 1.386 . S
C296 C289 1.357 . S
C296 H309 0.928 . S
H297 C273 0.931 . S
H298 C275 0.930 . S
H299 C277 0.929 . S
H300 C278 0.931 . S
H301 C280 0.930 . S
H302 C284 0.931 . S
H303 C282 0.931 . S
H304 C286 0.931 . S
H305 C287 0.929 . S
H306 C288 0.930 . S
H307 C291 0.930 . S
H308 C292 0.931 . S
H309 C296 0.928 . S
H310 C295 0.929 . S
H311 C293 0.932 . S
Gd312 C315 2.818 . S
Gd312 O332 2.377 . S
Gd312 O334 2.448 . S
Gd312 O335 2.506 . S
Gd312 O336 2.435 1_545 S
Gd312 O337 2.717 1_545 S
Gd312 O339 2.395 1_445 S
Gd312 O343 2.327 1_455 S
Gd313 C324 2.819 . S
Gd313 O333 2.394 1_665 S
Gd313 O337 2.328 1_655 S
Gd313 O338 2.378 . S
Gd313 O340 2.449 . S
Gd313 O341 2.507 . S
Gd313 O342 2.435 1_565 S
Gd313 O343 2.717 1_565 S
C314 O332 1.240 . S
C314 O333 1.240 . S
C315 Gd312 2.818 . S
C315 C316 1.510 . S
C315 O334 1.249 . S
C315 O335 1.252 . S
C316 C315 1.510 . S
C316 C317 1.404 . S
C316 C318 1.352 . S
C317 C316 1.404 . S
C317 C321 1.389 . S
C317 H344 0.930 . S
C318 C316 1.352 . S
C318 C320 1.374 . S
C318 H345 0.931 . S
C319 C320 1.359 . S
C319 C321 1.364 . S
C320 C318 1.374 . S
C320 C319 1.359 . S
C320 H346 0.931 . S
C321 C317 1.389 . S
C321 C319 1.364 . S
C321 H347 0.931 . S
C322 O336 1.256 . S
C322 O337 1.257 . S
C323 O338 1.240 . S
C323 O339 1.240 . S
C324 Gd313 2.819 . S
C324 C325 1.510 . S
C324 O340 1.249 . S
C324 O341 1.252 . S
C325 C324 1.510 . S
C325 C326 1.404 . S
C325 C327 1.352 . S
C326 C325 1.404 . S
C326 C330 1.389 . S
C326 H348 0.930 . S
C327 C325 1.352 . S
C327 C329 1.374 . S
C327 H349 0.931 . S
C328 C329 1.359 . S
C328 C330 1.364 . S
C329 C327 1.374 . S
C329 C328 1.359 . S
C329 H350 0.931 . S
C330 C326 1.389 . S
C330 C328 1.364 . S
C330 H351 0.931 . S
C331 O342 1.256 . S
C331 O343 1.257 . S
O332 Gd312 2.377 . S
O332 C314 1.240 . S
O333 Gd313 2.394 1_445 S
O333 C314 1.240 . S
O334 Gd312 2.448 . S
O334 C315 1.249 . S
O335 Gd312 2.506 . S
O335 C315 1.252 . S
O336 Gd312 2.435 1_565 S
O336 C322 1.256 . S
O337 Gd312 2.717 1_565 S
O337 Gd313 2.328 1_455 S
O337 C322 1.257 . S
O338 Gd313 2.378 . S
O338 C323 1.240 . S
O339 Gd312 2.395 1_665 S
O339 C323 1.240 . S
O340 Gd313 2.449 . S
O340 C324 1.249 . S
O341 Gd313 2.507 . S
O341 C324 1.252 . S
O342 Gd313 2.435 1_545 S
O342 C331 1.256 . S
O343 Gd312 2.327 1_655 S
O343 Gd313 2.717 1_545 S
O343 C331 1.257 . S
H344 C317 0.930 . S
H345 C318 0.931 . S
H346 C320 0.931 . S
H347 C321 0.931 . S
H348 C326 0.930 . S
H349 C327 0.931 . S
H350 C329 0.931 . S
H351 C330 0.931 . S
Gd352 C355 2.818 . S
Gd352 O372 2.377 . S
Gd352 O374 2.448 . S
Gd352 O375 2.506 . S
Gd352 O376 2.435 1_545 S
Gd352 O377 2.717 1_545 S
Gd352 O379 2.395 1_544 S
Gd352 O383 2.327 1_554 S
Gd353 C364 2.818 1_545 S
Gd353 O373 2.395 1_556 S
Gd353 O377 2.327 1_546 S
Gd353 O378 2.377 1_545 S
Gd353 O380 2.448 1_545 S
Gd353 O381 2.506 1_545 S
Gd353 O382 2.435 . S
Gd353 O383 2.717 . S
C354 O372 1.240 . S
C354 O373 1.240 . S
C355 Gd352 2.818 . S
C355 C356 1.510 . S
C355 O374 1.249 . S
C355 O375 1.252 . S
C356 C355 1.510 . S
C356 C357 1.404 . S
C356 C358 1.352 . S
C357 C356 1.404 . S
C357 C361 1.389 . S
C357 H384 0.930 . S
C358 C356 1.352 . S
C358 C360 1.374 . S
C358 H385 0.931 . S
C359 C360 1.359 . S
C359 C361 1.364 . S
C360 C358 1.374 . S
C360 C359 1.359 . S
C360 H386 0.931 . S
C361 C357 1.389 . S
C361 C359 1.364 . S
C361 H387 0.931 . S
C362 O376 1.256 . S
C362 O377 1.257 . S
C363 O378 1.240 . S
C363 O379 1.240 . S
C364 Gd353 2.818 1_565 S
C364 C365 1.510 . S
C364 O380 1.249 . S
C364 O381 1.252 . S
C365 C364 1.510 . S
C365 C366 1.404 . S
C365 C367 1.352 . S
C366 C365 1.404 . S
C366 C370 1.389 . S
C366 H388 0.930 . S
C367 C365 1.352 . S
C367 C369 1.374 . S
C367 H389 0.931 . S
C368 C369 1.359 . S
C368 C370 1.364 . S
C369 C367 1.374 . S
C369 C368 1.359 . S
C369 H390 0.931 . S
C370 C366 1.389 . S
C370 C368 1.364 . S
C370 H391 0.931 . S
C371 O382 1.256 . S
C371 O383 1.257 . S
O372 Gd352 2.377 . S
O372 C354 1.240 . S
O373 Gd353 2.395 1_554 S
O373 C354 1.240 . S
O374 Gd352 2.448 . S
O374 C355 1.249 . S
O375 Gd352 2.506 . S
O375 C355 1.252 . S
O376 Gd352 2.435 1_565 S
O376 C362 1.256 . S
O377 Gd352 2.717 1_565 S
O377 Gd353 2.327 1_564 S
O377 C362 1.257 . S
O378 Gd353 2.377 1_565 S
O378 C363 1.240 . S
O379 Gd352 2.395 1_566 S
O379 C363 1.240 . S
O380 Gd353 2.448 1_565 S
O380 C364 1.249 . S
O381 Gd353 2.506 1_565 S
O381 C364 1.252 . S
O382 Gd353 2.435 . S
O382 C371 1.256 . S
O383 Gd352 2.327 1_556 S
O383 Gd353 2.717 . S
O383 C371 1.257 . S
H384 C357 0.930 . S
H385 C358 0.931 . S
H386 C360 0.931 . S
H387 C361 0.931 . S
H388 C366 0.930 . S
H389 C367 0.931 . S
H390 C369 0.931 . S
H391 C370 0.931 . S
Gd392 C395 2.818 . S
Gd392 O412 2.377 . S
Gd392 O414 2.448 . S
Gd392 O415 2.506 . S
Gd392 O416 2.435 . S
Gd392 O417 2.717 . S
Gd392 O419 2.395 . S
Gd392 O423 2.327 . S
Gd393 C404 2.818 . S
Gd393 O413 2.395 . S
Gd393 O417 2.327 . S
Gd393 O418 2.377 . S
Gd393 O420 2.448 . S
Gd393 O421 2.506 . S
Gd393 O422 2.435 . S
Gd393 O423 2.717 . S
C394 O412 1.240 . S
C394 O413 1.240 . S
C395 Gd392 2.818 . S
C395 C396 1.510 . S
C395 O414 1.249 . S
C395 O415 1.252 . S
C396 C395 1.510 . S
C396 C397 1.404 . S
C396 C398 1.352 . S
C397 C396 1.404 . S
C397 C401 1.389 . S
C397 H424 0.930 . S
C398 C396 1.352 . S
C398 C400 1.374 . S
C398 H425 0.931 . S
C399 C400 1.359 . S
C399 C401 1.364 . S
C400 C398 1.374 . S
C400 C399 1.359 . S
C400 H426 0.931 . S
C401 C397 1.389 . S
C401 C399 1.364 . S
C401 H427 0.931 . S
C402 O416 1.256 . S
C402 O417 1.257 . S
C403 O418 1.240 . S
C403 O419 1.240 . S
C404 Gd393 2.818 . S
C404 C405 1.510 . S
C404 O420 1.249 . S
C404 O421 1.252 . S
C405 C404 1.510 . S
C405 C406 1.404 . S
C405 C407 1.352 . S
C406 C405 1.404 . S
C406 C410 1.389 . S
C406 H428 0.930 . S
C407 C405 1.352 . S
C407 C409 1.374 . S
C407 H429 0.931 . S
C408 C409 1.359 . S
C408 C410 1.364 . S
C409 C407 1.374 . S
C409 C408 1.359 . S
C409 H430 0.931 . S
C410 C406 1.389 . S
C410 C408 1.364 . S
C410 H431 0.931 . S
C411 O422 1.256 . S
C411 O423 1.257 . S
O412 Gd392 2.377 . S
O412 C394 1.240 . S
O413 Gd393 2.395 . S
O413 C394 1.240 . S
O414 Gd392 2.448 . S
O414 C395 1.249 . S
O415 Gd392 2.506 . S
O415 C395 1.252 . S
O416 Gd392 2.435 . S
O416 C402 1.256 . S
O417 Gd392 2.717 . S
O417 Gd393 2.327 . S
O417 C402 1.257 . S
O418 Gd393 2.377 . S
O418 C403 1.240 . S
O419 Gd392 2.395 . S
O419 C403 1.240 . S
O420 Gd393 2.448 . S
O420 C404 1.249 . S
O421 Gd393 2.506 . S
O421 C404 1.252 . S
O422 Gd393 2.435 . S
O422 C411 1.256 . S
O423 Gd392 2.327 . S
O423 Gd393 2.717 . S
O423 C411 1.257 . S
H424 C397 0.930 . S
H425 C398 0.931 . S
H426 C400 0.931 . S
H427 C401 0.931 . S
H428 C406 0.930 . S
H429 C407 0.931 . S
H430 C409 0.931 . S
H431 C410 0.931 . S
Gd432 C435 2.818 . S
Gd432 O452 2.377 . S
Gd432 O454 2.448 . S
Gd432 O455 2.506 . S
Gd432 O456 2.435 1_455 S
Gd432 O457 2.717 1_455 S
Gd432 O459 2.375 1_454 S
Gd432 O463 2.327 1_554 S
Gd433 C444 2.820 1_455 S
Gd433 O453 2.393 1_556 S
Gd433 O457 2.328 1_456 S
Gd433 O458 2.378 1_455 S
Gd433 O460 2.449 1_455 S
Gd433 O461 2.508 1_455 S
Gd433 O462 2.434 . S
Gd433 O463 2.716 . S
C434 O452 1.240 . S
C434 O453 1.240 . S
C435 Gd432 2.818 . S
C435 C436 1.510 . S
C435 O454 1.249 . S
C435 O455 1.252 . S
C436 C435 1.510 . S
C436 C437 1.404 . S
C436 C438 1.352 . S
C437 C436 1.404 . S
C437 C441 1.389 . S
C437 H464 0.930 . S
C438 C436 1.352 . S
C438 C440 1.374 . S
C438 H465 0.931 . S
C439 C440 1.359 . S
C439 C441 1.364 . S
C440 C438 1.374 . S
C440 C439 1.359 . S
C440 H466 0.931 . S
C441 C437 1.389 . S
C441 C439 1.364 . S
C441 H467 0.931 . S
C442 O456 1.256 . S
C442 O457 1.257 . S
C443 O458 1.240 . S
C443 O459 1.271 . S
C444 Gd433 2.820 1_655 S
C444 C445 1.510 . S
C444 O460 1.249 . S
C444 O461 1.252 . S
C445 C444 1.510 . S
C445 C446 1.404 . S
C445 C447 1.352 . S
C446 C445 1.404 . S
C446 C450 1.389 . S
C446 H468 0.930 . S
C447 C445 1.352 . S
C447 C449 1.374 . S
C447 H469 0.931 . S
C448 C449 1.359 . S
C448 C450 1.364 . S
C449 C447 1.374 . S
C449 C448 1.359 . S
C449 H470 0.931 . S
C450 C446 1.389 . S
C450 C448 1.364 . S
C450 H471 0.931 . S
C451 O462 1.256 . S
C451 O463 1.257 . S
O452 Gd432 2.377 . S
O452 C434 1.240 . S
O453 Gd433 2.393 1_554 S
O453 C434 1.240 . S
O454 Gd432 2.448 . S
O454 C435 1.249 . S
O455 Gd432 2.506 . S
O455 C435 1.252 . S
O456 Gd432 2.435 1_655 S
O456 C442 1.256 . S
O457 Gd432 2.717 1_655 S
O457 Gd433 2.328 1_654 S
O457 C442 1.257 . S
O458 Gd433 2.378 1_655 S
O458 C443 1.240 . S
O459 Gd432 2.375 1_656 S
O459 C443 1.271 . S
O460 Gd433 2.449 1_655 S
O460 C444 1.249 . S
O461 Gd433 2.508 1_655 S
O461 C444 1.252 . S
O462 Gd433 2.434 . S
O462 C451 1.256 . S
O463 Gd432 2.327 1_556 S
O463 Gd433 2.716 . S
O463 C451 1.257 . S
H464 C437 0.930 . S
H465 C438 0.931 . S
H466 C440 0.931 . S
H467 C441 0.931 . S
H468 C446 0.930 . S
H469 C447 0.931 . S
H470 C449 0.931 . S
H471 C450 0.931 . S
C472 C473 1.349 . S
C472 C474 1.327 . S
C472 H497 0.950 . S
C473 C472 1.349 . S
C473 C489 1.349 . S
C474 C472 1.327 . S
C474 C493 1.429 . S
C474 H498 0.950 . S
C475 C492 1.574 . S
C475 C494 1.368 . S
C475 H499 0.949 . S
H476 C480 0.949 . S
C477 C478 1.349 . S
C477 C479 1.327 . S
C477 H500 0.950 . S
C478 C477 1.349 . S
C478 C490 1.349 . S
C479 C477 1.327 . S
C479 C495 1.429 . S
C479 H501 0.950 . S
C480 H476 0.949 . S
C480 C488 1.574 . S
C480 C496 1.368 . S
H481 C489 0.950 . S
H482 C487 0.950 . S
H483 C488 0.949 . S
H484 C490 0.950 . S
H485 C491 0.950 . S
H486 C492 0.949 . S
C487 H482 0.950 . S
C487 C489 1.327 . S
C487 C493 1.429 . S
C488 C480 1.574 . S
C488 H483 0.949 . S
C488 C494 1.368 . S
C489 C473 1.349 . S
C489 H481 0.950 . S
C489 C487 1.327 . S
C490 C478 1.349 . S
C490 H484 0.950 . S
C490 C491 1.327 . S
C491 H485 0.950 . S
C491 C490 1.327 . S
C491 C495 1.429 . S
C492 C475 1.574 . S
C492 H486 0.949 . S
C492 C496 1.368 . S
C493 C474 1.429 . S
C493 C487 1.429 . S
C493 C494 1.523 . S
C494 C475 1.368 . S
C494 C488 1.368 . S
C494 C493 1.523 . S
C495 C479 1.429 . S
C495 C491 1.429 . S
C495 C496 1.523 . S
C496 C480 1.368 . S
C496 C492 1.368 . S
C496 C495 1.523 . S
H497 C472 0.950 . S
H498 C474 0.950 . S
H499 C475 0.949 . S
H500 C477 0.950 . S
H501 C479 0.950 . S
C502 C503 1.349 . S
C502 C504 1.327 . S
C502 H527 0.950 . S
C503 C502 1.349 . S
C503 C519 1.349 . S
C504 C502 1.327 . S
C504 C523 1.429 . S
C504 H528 0.950 . S
C505 C522 1.574 . S
C505 C524 1.368 . S
C505 H529 0.949 . S
H506 C510 0.949 . S
C507 C508 1.349 . S
C507 C509 1.327 . S
C507 H530 0.950 . S
C508 C507 1.349 . S
C508 C520 1.349 . S
C509 C507 1.327 . S
C509 C525 1.429 . S
C509 H531 0.950 . S
C510 H506 0.949 . S
C510 C518 1.574 . S
C510 C526 1.368 . S
H511 C519 0.950 . S
H512 C517 0.950 . S
H513 C518 0.949 . S
H514 C520 0.950 . S
H515 C521 0.950 . S
H516 C522 0.949 . S
C517 H512 0.950 . S
C517 C519 1.327 . S
C517 C523 1.429 . S
C518 C510 1.574 . S
C518 H513 0.949 . S
C518 C524 1.368 . S
C519 C503 1.349 . S
C519 H511 0.950 . S
C519 C517 1.327 . S
C520 C508 1.349 . S
C520 H514 0.950 . S
C520 C521 1.327 . S
C521 H515 0.950 . S
C521 C520 1.327 . S
C521 C525 1.429 . S
C522 C505 1.574 . S
C522 H516 0.949 . S
C522 C526 1.368 . S
C523 C504 1.429 . S
C523 C517 1.429 . S
C523 C524 1.523 . S
C524 C505 1.368 . S
C524 C518 1.368 . S
C524 C523 1.523 . S
C525 C509 1.429 . S
C525 C521 1.429 . S
C525 C526 1.523 . S
C526 C510 1.368 . S
C526 C522 1.368 . S
C526 C525 1.523 . S
H527 C502 0.950 . S
H528 C504 0.950 . S
H529 C505 0.949 . S
H530 C507 0.950 . S
H531 C509 0.950 . S
C532 C533 1.349 . S
C532 C534 1.327 . S
C532 H557 0.950 . S
C533 C532 1.349 . S
C533 C549 1.349 . S
C534 C532 1.327 . S
C534 C553 1.429 . S
C534 H558 0.950 . S
C535 C552 1.574 . S
C535 C554 1.368 . S
C535 H559 0.949 . S
H536 C540 0.949 . S
C537 C538 1.349 . S
C537 C539 1.327 . S
C537 H560 0.950 . S
C538 C537 1.349 . S
C538 C550 1.349 . S
C539 C537 1.327 . S
C539 C555 1.429 . S
C539 H561 0.950 . S
C540 H536 0.949 . S
C540 C548 1.574 . S
C540 C556 1.368 . S
H541 C549 0.950 . S
H542 C547 0.950 . S
H543 C548 0.949 . S
H544 C550 0.950 . S
H545 C551 0.950 . S
H546 C552 0.949 . S
C547 H542 0.950 . S
C547 C549 1.327 . S
C547 C553 1.429 . S
C548 C540 1.574 . S
C548 H543 0.949 . S
C548 C554 1.368 . S
C549 C533 1.349 . S
C549 H541 0.950 . S
C549 C547 1.327 . S
C550 C538 1.349 . S
C550 H544 0.950 . S
C550 C551 1.327 . S
C551 H545 0.950 . S
C551 C550 1.327 . S
C551 C555 1.429 . S
C552 C535 1.574 . S
C552 H546 0.949 . S
C552 C556 1.368 . S
C553 C534 1.429 . S
C553 C547 1.429 . S
C553 C554 1.523 . S
C554 C535 1.368 . S
C554 C548 1.368 . S
C554 C553 1.523 . S
C555 C539 1.429 . S
C555 C551 1.429 . S
C555 C556 1.523 . S
C556 C540 1.368 . S
C556 C552 1.368 . S
C556 C555 1.523 . S
H557 C532 0.950 . S
H558 C534 0.950 . S
H559 C535 0.949 . S
H560 C537 0.950 . S
H561 C539 0.950 . S
C562 C563 1.349 . S
C562 C564 1.327 . S
C562 H587 0.950 . S
C563 C562 1.349 . S
C563 C579 1.349 . S
C564 C562 1.327 . S
C564 C583 1.429 . S
C564 H588 0.950 . S
C565 C582 1.574 . S
C565 C584 1.368 . S
C565 H589 0.949 . S
H566 C570 0.949 . S
C567 C568 1.349 . S
C567 C569 1.327 . S
C567 H590 0.950 . S
C568 C567 1.349 . S
C568 C580 1.349 . S
C569 C567 1.327 . S
C569 C585 1.429 . S
C569 H591 0.950 . S
C570 H566 0.949 . S
C570 C578 1.574 . S
C570 C586 1.368 . S
H571 C579 0.950 . S
H572 C577 0.950 . S
H573 C578 0.949 . S
H574 C580 0.950 . S
H575 C581 0.950 . S
H576 C582 0.949 . S
C577 H572 0.950 . S
C577 C579 1.327 . S
C577 C583 1.429 . S
C578 C570 1.574 . S
C578 H573 0.949 . S
C578 C584 1.368 . S
C579 C563 1.349 . S
C579 H571 0.950 . S
C579 C577 1.327 . S
C580 C568 1.349 . S
C580 H574 0.950 . S
C580 C581 1.327 . S
C581 H575 0.950 . S
C581 C580 1.327 . S
C581 C585 1.429 . S
C582 C565 1.574 . S
C582 H576 0.949 . S
C582 C586 1.368 . S
C583 C564 1.429 . S
C583 C577 1.429 . S
C583 C584 1.523 . S
C584 C565 1.368 . S
C584 C578 1.368 . S
C584 C583 1.523 . S
C585 C569 1.429 . S
C585 C581 1.429 . S
C585 C586 1.523 . S
C586 C570 1.368 . S
C586 C582 1.368 . S
C586 C585 1.523 . S
H587 C562 0.950 . S
H588 C564 0.950 . S
H589 C565 0.949 . S
H590 C567 0.950 . S
H591 C569 0.950 . S
C592 C593 1.349 . S
C592 C594 1.327 . S
C592 H617 0.950 . S
C593 C592 1.349 . S
C593 C609 1.349 . S
C594 C592 1.327 . S
C594 C613 1.429 . S
C594 H618 0.950 . S
C595 C612 1.574 . S
C595 C614 1.368 . S
C595 H619 0.949 . S
H596 C600 0.949 . S
C597 C598 1.349 . S
C597 C599 1.327 . S
C597 H620 0.950 . S
C598 C597 1.349 . S
C598 C610 1.349 . S
C599 C597 1.327 . S
C599 C615 1.429 . S
C599 H621 0.950 . S
C600 H596 0.949 . S
C600 C608 1.574 . S
C600 C616 1.368 . S
H601 C609 0.950 . S
H602 C607 0.950 . S
H603 C608 0.949 . S
H604 C610 0.950 . S
H605 C611 0.950 . S
H606 C612 0.949 . S
C607 H602 0.950 . S
C607 C609 1.327 . S
C607 C613 1.429 . S
C608 C600 1.574 . S
C608 H603 0.949 . S
C608 C614 1.368 . S
C609 C593 1.349 . S
C609 H601 0.950 . S
C609 C607 1.327 . S
C610 C598 1.349 . S
C610 H604 0.950 . S
C610 C611 1.327 . S
C611 H605 0.950 . S
C611 C610 1.327 . S
C611 C615 1.429 . S
C612 C595 1.574 . S
C612 H606 0.949 . S
C612 C616 1.368 . S
C613 C594 1.429 . S
C613 C607 1.429 . S
C613 C614 1.523 . S
C614 C595 1.368 . S
C614 C608 1.368 . S
C614 C613 1.523 . S
C615 C599 1.429 . S
C615 C611 1.429 . S
C615 C616 1.523 . S
C616 C600 1.368 . S
C616 C612 1.368 . S
C616 C615 1.523 . S
H617 C592 0.950 . S
H618 C594 0.950 . S
H619 C595 0.949 . S
H620 C597 0.950 . S
H621 C599 0.950 . S
C622 C623 1.349 . S
C622 C624 1.327 . S
C622 H647 0.950 . S
C623 C622 1.349 . S
C623 C639 1.349 . S
C624 C622 1.327 . S
C624 C643 1.429 . S
C624 H648 0.950 . S
C625 C642 1.574 . S
C625 C644 1.368 . S
C625 H649 0.949 . S
H626 C630 0.949 . S
C627 C628 1.349 . S
C627 C629 1.327 . S
C627 H650 0.950 . S
C628 C627 1.349 . S
C628 C640 1.349 . S
C629 C627 1.327 . S
C629 C645 1.429 . S
C629 H651 0.950 . S
C630 H626 0.949 . S
C630 C638 1.574 . S
C630 C646 1.368 . S
H631 C639 0.950 . S
H632 C637 0.950 . S
H633 C638 0.949 . S
H634 C640 0.946 1_545 S
H635 C641 0.950 . S
H636 C642 0.949 . S
C637 H632 0.950 . S
C637 C639 1.327 . S
C637 C643 1.429 . S
C638 C630 1.574 . S
C638 H633 0.949 . S
C638 C644 1.368 . S
C639 C623 1.349 . S
C639 H631 0.950 . S
C639 C637 1.327 . S
C640 C628 1.349 . S
C640 H634 0.946 1_565 S
C640 C641 1.327 . S
C641 H635 0.950 . S
C641 C640 1.327 . S
C641 C645 1.429 . S
C642 C625 1.574 . S
C642 H636 0.949 . S
C642 C646 1.368 . S
C643 C624 1.429 . S
C643 C637 1.429 . S
C643 C644 1.523 . S
C644 C625 1.368 . S
C644 C638 1.368 . S
C644 C643 1.523 . S
C645 C629 1.429 . S
C645 C641 1.429 . S
C645 C646 1.523 . S
C646 C630 1.368 . S
C646 C642 1.368 . S
C646 C645 1.523 . S
H647 C622 0.950 . S
H648 C624 0.950 . S
H649 C625 0.949 . S
H650 C627 0.950 . S
H651 C629 0.950 . S
C652 C653 1.349 . S
C652 C654 1.327 . S
C652 H677 0.950 . S
C653 C652 1.349 . S
C653 C669 1.349 . S
C654 C652 1.327 . S
C654 C673 1.429 . S
C654 H678 0.950 . S
C655 C672 1.574 . S
C655 C674 1.368 . S
C655 H679 0.949 . S
H656 C660 0.949 . S
C657 C658 1.349 . S
C657 C659 1.327 . S
C657 H680 0.950 . S
C658 C657 1.349 . S
C658 C670 1.349 . S
C659 C657 1.327 . S
C659 C675 1.429 . S
C659 H681 0.950 . S
C660 H656 0.949 . S
C660 C668 1.574 . S
C660 C676 1.368 . S
H661 C669 0.950 . S
H662 C667 0.950 . S
H663 C668 0.949 . S
H664 C670 0.950 . S
H665 C671 0.950 . S
H666 C672 0.949 . S
C667 H662 0.950 . S
C667 C669 1.327 . S
C667 C673 1.429 . S
C668 C660 1.574 . S
C668 H663 0.949 . S
C668 C674 1.368 . S
C669 C653 1.349 . S
C669 H661 0.950 . S
C669 C667 1.327 . S
C670 C658 1.349 . S
C670 H664 0.950 . S
C670 C671 1.327 . S
C671 H665 0.950 . S
C671 C670 1.327 . S
C671 C675 1.429 . S
C672 C655 1.574 . S
C672 H666 0.949 . S
C672 C676 1.368 . S
C673 C654 1.429 . S
C673 C667 1.429 . S
C673 C674 1.523 . S
C674 C655 1.368 . S
C674 C668 1.368 . S
C674 C673 1.523 . S
C675 C659 1.429 . S
C675 C671 1.429 . S
C675 C676 1.523 . S
C676 C660 1.368 . S
C676 C672 1.368 . S
C676 C675 1.523 . S
H677 C652 0.950 . S
H678 C654 0.950 . S
H679 C655 0.949 . S
H680 C657 0.950 . S
H681 C659 0.950 . S
C682 C683 1.349 . S
C682 C684 1.327 . S
C682 H707 0.950 . S
C683 C682 1.349 . S
C683 C699 1.349 . S
C684 C682 1.327 . S
C684 C703 1.429 . S
C684 H708 0.950 . S
C685 C702 1.574 . S
C685 C704 1.368 . S
C685 H709 0.949 . S
H686 C690 0.949 . S
C687 C688 1.349 . S
C687 C689 1.327 . S
C687 H710 0.950 . S
C688 C687 1.349 . S
C688 C700 1.349 . S
C689 C687 1.327 . S
C689 C705 1.429 . S
C689 H711 0.950 . S
C690 H686 0.949 . S
C690 C698 1.574 . S
C690 C706 1.368 . S
H691 C699 0.950 . S
H692 C697 0.950 . S
H693 C698 0.949 . S
H694 C700 0.950 . S
H695 C701 0.950 . S
H696 C702 0.949 . S
C697 H692 0.950 . S
C697 C699 1.327 . S
C697 C703 1.429 . S
C698 C690 1.574 . S
C698 H693 0.949 . S
C698 C704 1.368 . S
C699 C683 1.349 . S
C699 H691 0.950 . S
C699 C697 1.327 . S
C700 C688 1.349 . S
C700 H694 0.950 . S
C700 C701 1.327 . S
C701 H695 0.950 . S
C701 C700 1.327 . S
C701 C705 1.429 . S
C702 C685 1.574 . S
C702 H696 0.949 . S
C702 C706 1.368 . S
C703 C684 1.429 . S
C703 C697 1.429 . S
C703 C704 1.523 . S
C704 C685 1.368 . S
C704 C698 1.368 . S
C704 C703 1.523 . S
C705 C689 1.429 . S
C705 C701 1.429 . S
C705 C706 1.523 . S
C706 C690 1.368 . S
C706 C702 1.368 . S
C706 C705 1.523 . S
H707 C682 0.950 . S
H708 C684 0.950 . S
H709 C685 0.949 . S
H710 C687 0.950 . S
H711 C689 0.950 . S
C712 C713 1.349 . S
C712 C714 1.327 . S
C712 H737 0.950 . S
C713 C712 1.349 . S
C713 C729 1.349 . S
C714 C712 1.327 . S
C714 C733 1.429 . S
C714 H738 0.950 . S
C715 C732 1.574 . S
C715 C734 1.368 . S
C715 H739 0.949 . S
H716 C720 0.949 . S
C717 C718 1.349 . S
C717 C719 1.327 . S
C717 H740 0.950 . S
C718 C717 1.349 . S
C718 C730 1.349 . S
C719 C717 1.327 . S
C719 C735 1.429 . S
C719 H741 0.950 . S
C720 H716 0.949 . S
C720 C728 1.574 . S
C720 C736 1.368 . S
H721 C729 0.950 . S
H722 C727 0.950 . S
H723 C728 0.949 . S
H724 C730 0.950 . S
H725 C731 0.950 . S
H726 C732 0.949 . S
C727 H722 0.950 . S
C727 C729 1.327 . S
C727 C733 1.429 . S
C728 C720 1.574 . S
C728 H723 0.949 . S
C728 C734 1.368 . S
C729 C713 1.349 . S
C729 H721 0.950 . S
C729 C727 1.327 . S
C730 C718 1.349 . S
C730 H724 0.950 . S
C730 C731 1.327 . S
C731 H725 0.950 . S
C731 C730 1.327 . S
C731 C735 1.429 . S
C732 C715 1.574 . S
C732 H726 0.949 . S
C732 C736 1.368 . S
C733 C714 1.429 . S
C733 C727 1.429 . S
C733 C734 1.523 . S
C734 C715 1.368 . S
C734 C728 1.368 . S
C734 C733 1.523 . S
C735 C719 1.429 . S
C735 C731 1.429 . S
C735 C736 1.523 . S
C736 C720 1.368 . S
C736 C732 1.368 . S
C736 C735 1.523 . S
H737 C712 0.950 . S
H738 C714 0.950 . S
H739 C715 0.949 . S
H740 C717 0.950 . S
H741 C719 0.950 . S
C742 C743 1.349 . S
C742 C744 1.327 . S
C742 H767 0.950 . S
C743 C742 1.349 . S
C743 C759 1.349 . S
C744 C742 1.327 . S
C744 C763 1.429 . S
C744 H768 0.950 . S
C745 C762 1.574 . S
C745 C764 1.368 . S
C745 H769 0.949 . S
H746 C750 0.949 . S
C747 C748 1.349 . S
C747 C749 1.327 . S
C747 H770 0.950 . S
C748 C747 1.349 . S
C748 C760 1.349 . S
C749 C747 1.327 . S
C749 C765 1.429 . S
C749 H771 0.950 . S
C750 H746 0.949 . S
C750 C758 1.574 . S
C750 C766 1.368 . S
H751 C759 0.950 . S
H752 C757 0.950 . S
H753 C758 0.949 . S
H754 C760 0.950 . S
H755 C761 0.950 . S
H756 C762 0.949 . S
C757 H752 0.950 . S
C757 C759 1.327 . S
C757 C763 1.429 . S
C758 C750 1.574 . S
C758 H753 0.949 . S
C758 C764 1.368 . S
C759 C743 1.349 . S
C759 H751 0.950 . S
C759 C757 1.327 . S
C760 C748 1.349 . S
C760 H754 0.950 . S
C760 C761 1.327 . S
C761 H755 0.950 . S
C761 C760 1.327 . S
C761 C765 1.429 . S
C762 C745 1.574 . S
C762 H756 0.949 . S
C762 C766 1.368 . S
C763 C744 1.429 . S
C763 C757 1.429 . S
C763 C764 1.523 . S
C764 C745 1.368 . S
C764 C758 1.368 . S
C764 C763 1.523 . S
C765 C749 1.429 . S
C765 C761 1.429 . S
C765 C766 1.523 . S
C766 C750 1.368 . S
C766 C762 1.368 . S
C766 C765 1.523 . S
H767 C742 0.950 . S
H768 C744 0.950 . S
H769 C745 0.949 . S
H770 C747 0.950 . S
H771 C749 0.950 . S
C772 C773 1.349 . S
C772 C774 1.327 . S
C772 H797 0.950 . S
C773 C772 1.349 . S
C773 C789 1.349 . S
C774 C772 1.327 . S
C774 C793 1.429 . S
C774 H798 0.950 . S
C775 C792 1.574 . S
C775 C794 1.368 . S
C775 H799 0.949 . S
H776 C780 0.949 . S
C777 C778 1.349 . S
C777 C779 1.327 . S
C777 H800 0.950 . S
C778 C777 1.349 . S
C778 C790 1.349 . S
C779 C777 1.327 . S
C779 C795 1.429 . S
C779 H801 0.950 . S
C780 H776 0.949 . S
C780 C788 1.574 . S
C780 C796 1.368 . S
H781 C789 0.950 . S
H782 C787 0.950 . S
H783 C788 0.949 . S
H784 C790 0.950 . S
H785 C791 0.950 . S
H786 C792 0.949 . S
C787 H782 0.950 . S
C787 C789 1.327 . S
C787 C793 1.429 . S
C788 C780 1.574 . S
C788 H783 0.949 . S
C788 C794 1.368 . S
C789 C773 1.349 . S
C789 H781 0.950 . S
C789 C787 1.327 . S
C790 C778 1.349 . S
C790 H784 0.950 . S
C790 C791 1.327 . S
C791 H785 0.950 . S
C791 C790 1.327 . S
C791 C795 1.429 . S
C792 C775 1.574 . S
C792 H786 0.949 . S
C792 C796 1.368 . S
C793 C774 1.429 . S
C793 C787 1.429 . S
C793 C794 1.523 . S
C794 C775 1.368 . S
C794 C788 1.368 . S
C794 C793 1.523 . S
C795 C779 1.429 . S
C795 C791 1.429 . S
C795 C796 1.523 . S
C796 C780 1.368 . S
C796 C792 1.368 . S
C796 C795 1.523 . S
H797 C772 0.950 . S
H798 C774 0.950 . S
H799 C775 0.949 . S
H800 C777 0.950 . S
H801 C779 0.950 . S
C802 C803 1.349 . S
C802 C804 1.327 . S
C802 H827 0.950 . S
C803 C802 1.349 . S
C803 C819 1.349 . S
C804 C802 1.327 . S
C804 C823 1.429 . S
C804 H828 0.950 . S
C805 C822 1.574 . S
C805 C824 1.368 . S
C805 H829 0.949 . S
H806 C810 0.949 . S
C807 C808 1.349 . S
C807 C809 1.327 . S
C807 H830 0.950 . S
C808 C807 1.349 . S
C808 C820 1.349 . S
C809 C807 1.327 . S
C809 C825 1.429 . S
C809 H831 0.950 . S
C810 H806 0.949 . S
C810 C818 1.574 . S
C810 C826 1.368 . S
H811 C819 0.950 . S
H812 C817 0.950 . S
H813 C818 0.949 . S
H814 C820 0.950 . S
H815 C821 0.950 . S
H816 C822 0.949 . S
C817 H812 0.950 . S
C817 C819 1.327 . S
C817 C823 1.429 . S
C818 C810 1.574 . S
C818 H813 0.949 . S
C818 C824 1.368 . S
C819 C803 1.349 . S
C819 H811 0.950 . S
C819 C817 1.327 . S
C820 C808 1.349 . S
C820 H814 0.950 . S
C820 C821 1.327 . S
C821 H815 0.950 . S
C821 C820 1.327 . S
C821 C825 1.429 . S
C822 C805 1.574 . S
C822 H816 0.949 . S
C822 C826 1.368 . S
C823 C804 1.429 . S
C823 C817 1.429 . S
C823 C824 1.523 . S
C824 C805 1.368 . S
C824 C818 1.368 . S
C824 C823 1.523 . S
C825 C809 1.429 . S
C825 C821 1.429 . S
C825 C826 1.523 . S
C826 C810 1.368 . S
C826 C822 1.368 . S
C826 C825 1.523 . S
H827 C802 0.950 . S
H828 C804 0.950 . S
H829 C805 0.949 . S
H830 C807 0.950 . S
H831 C809 0.950 . S
C832 C833 1.349 . S
C832 C834 1.327 . S
C832 H857 0.950 . S
C833 C832 1.349 . S
C833 C849 1.349 . S
C834 C832 1.327 . S
C834 C853 1.429 . S
C834 H858 0.950 . S
C835 C852 1.574 . S
C835 C854 1.368 . S
C835 H859 0.949 . S
H836 C840 0.949 . S
C837 C838 1.349 . S
C837 C839 1.327 . S
C837 H860 0.950 . S
C838 C837 1.349 . S
C838 C850 1.349 . S
C839 C837 1.327 . S
C839 C855 1.429 . S
C839 H861 0.950 . S
C840 H836 0.949 . S
C840 C848 1.574 . S
C840 C856 1.368 . S
H841 C849 0.950 . S
H842 C847 0.950 . S
H843 C848 0.949 . S
H844 C850 0.950 . S
H845 C851 0.950 . S
H846 C852 0.949 . S
C847 H842 0.950 . S
C847 C849 1.327 . S
C847 C853 1.429 . S
C848 C840 1.574 . S
C848 H843 0.949 . S
C848 C854 1.368 . S
C849 C833 1.349 . S
C849 H841 0.950 . S
C849 C847 1.327 . S
C850 C838 1.349 . S
C850 H844 0.950 . S
C850 C851 1.327 . S
C851 H845 0.950 . S
C851 C850 1.327 . S
C851 C855 1.429 . S
C852 C835 1.574 . S
C852 H846 0.949 . S
C852 C856 1.368 . S
C853 C834 1.429 . S
C853 C847 1.429 . S
C853 C854 1.523 . S
C854 C835 1.368 . S
C854 C848 1.368 . S
C854 C853 1.523 . S
C855 C839 1.429 . S
C855 C851 1.429 . S
C855 C856 1.523 . S
C856 C840 1.368 . S
C856 C852 1.368 . S
C856 C855 1.523 . S
H857 C832 0.950 . S
H858 C834 0.950 . S
H859 C835 0.949 . S
H860 C837 0.950 . S
H861 C839 0.950 . S
C862 C863 1.349 . S
C862 C864 1.327 . S
C862 H887 0.950 . S
C863 C862 1.349 . S
C863 C879 1.349 . S
C864 C862 1.327 . S
C864 C883 1.429 . S
C864 H888 0.950 . S
C865 C882 1.574 . S
C865 C884 1.368 . S
C865 H889 0.949 . S
H866 C870 0.949 . S
C867 C868 1.349 . S
C867 C869 1.327 . S
C867 H890 0.950 . S
C868 C867 1.349 . S
C868 C880 1.349 . S
C869 C867 1.327 . S
C869 C885 1.429 . S
C869 H891 0.950 . S
C870 H866 0.949 . S
C870 C878 1.574 . S
C870 C886 1.368 . S
H871 C879 0.950 . S
H872 C877 0.950 . S
H873 C878 0.949 . S
H874 C880 0.950 . S
H875 C881 0.950 . S
H876 C882 0.949 . S
C877 H872 0.950 . S
C877 C879 1.327 . S
C877 C883 1.429 . S
C878 C870 1.574 . S
C878 H873 0.949 . S
C878 C884 1.368 . S
C879 C863 1.349 . S
C879 H871 0.950 . S
C879 C877 1.327 . S
C880 C868 1.349 . S
C880 H874 0.950 . S
C880 C881 1.327 . S
C881 H875 0.950 . S
C881 C880 1.327 . S
C881 C885 1.429 . S
C882 C865 1.574 . S
C882 H876 0.949 . S
C882 C886 1.368 . S
C883 C864 1.429 . S
C883 C877 1.429 . S
C883 C884 1.523 . S
C884 C865 1.368 . S
C884 C878 1.368 . S
C884 C883 1.523 . S
C885 C869 1.429 . S
C885 C881 1.429 . S
C885 C886 1.523 . S
C886 C870 1.368 . S
C886 C882 1.368 . S
C886 C885 1.523 . S
H887 C862 0.950 . S
H888 C864 0.950 . S
H889 C865 0.949 . S
H890 C867 0.950 . S
H891 C869 0.950 . S
C892 C893 1.349 . S
C892 C894 1.327 . S
C892 H917 0.950 . S
C893 C892 1.349 . S
C893 C909 1.349 . S
C894 C892 1.327 . S
C894 C913 1.429 . S
C894 H918 0.950 . S
C895 C912 1.574 . S
C895 C914 1.368 . S
C895 H919 0.949 . S
H896 C900 0.949 . S
C897 C898 1.349 . S
C897 C899 1.327 . S
C897 H920 0.950 . S
C898 C897 1.349 . S
C898 C910 1.349 . S
C899 C897 1.327 . S
C899 C915 1.429 . S
C899 H921 0.950 . S
C900 H896 0.949 . S
C900 C908 1.574 . S
C900 C916 1.368 . S
H901 C909 0.950 . S
H902 C907 0.950 . S
H903 C908 0.949 . S
H904 C910 0.950 . S
H905 C911 0.950 . S
H906 C912 0.949 . S
C907 H902 0.950 . S
C907 C909 1.327 . S
C907 C913 1.429 . S
C908 C900 1.574 . S
C908 H903 0.949 . S
C908 C914 1.368 . S
C909 C893 1.349 . S
C909 H901 0.950 . S
C909 C907 1.327 . S
C910 C898 1.349 . S
C910 H904 0.950 . S
C910 C911 1.327 . S
C911 H905 0.950 . S
C911 C910 1.327 . S
C911 C915 1.429 . S
C912 C895 1.574 . S
C912 H906 0.949 . S
C912 C916 1.368 . S
C913 C894 1.429 . S
C913 C907 1.429 . S
C913 C914 1.523 . S
C914 C895 1.368 . S
C914 C908 1.368 . S
C914 C913 1.523 . S
C915 C899 1.429 . S
C915 C911 1.429 . S
C915 C916 1.523 . S
C916 C900 1.368 . S
C916 C912 1.368 . S
C916 C915 1.523 . S
H917 C892 0.950 . S
H918 C894 0.950 . S
H919 C895 0.949 . S
H920 C897 0.950 . S
H921 C899 0.950 . S
C922 C923 1.349 . S
C922 C924 1.327 . S
C922 H947 0.950 . S
C923 C922 1.349 . S
C923 C939 1.349 . S
C924 C922 1.327 . S
C924 C943 1.429 . S
C924 H948 0.950 . S
C925 C942 1.574 . S
C925 C944 1.368 . S
C925 H949 0.949 . S
H926 C930 0.949 . S
C927 C928 1.349 . S
C927 C929 1.327 . S
C927 H950 0.950 . S
C928 C927 1.349 . S
C928 C940 1.349 . S
C929 C927 1.327 . S
C929 C945 1.429 . S
C929 H951 0.950 . S
C930 H926 0.949 . S
C930 C938 1.574 . S
C930 C946 1.368 . S
H931 C939 0.950 . S
H932 C937 0.950 . S
H933 C938 0.949 . S
H934 C940 0.950 . S
H935 C941 0.950 . S
H936 C942 0.949 . S
C937 H932 0.950 . S
C937 C939 1.327 . S
C937 C943 1.429 . S
C938 C930 1.574 . S
C938 H933 0.949 . S
C938 C944 1.368 . S
C939 C923 1.349 . S
C939 H931 0.950 . S
C939 C937 1.327 . S
C940 C928 1.349 . S
C940 H934 0.950 . S
C940 C941 1.327 . S
C941 H935 0.950 . S
C941 C940 1.327 . S
C941 C945 1.429 . S
C942 C925 1.574 . S
C942 H936 0.949 . S
C942 C946 1.368 . S
C943 C924 1.429 . S
C943 C937 1.429 . S
C943 C944 1.523 . S
C944 C925 1.368 . S
C944 C938 1.368 . S
C944 C943 1.523 . S
C945 C929 1.429 . S
C945 C941 1.429 . S
C945 C946 1.523 . S
C946 C930 1.368 . S
C946 C942 1.368 . S
C946 C945 1.523 . S
H947 C922 0.950 . S
H948 C924 0.950 . S
H949 C925 0.949 . S
H950 C927 0.950 . S
H951 C929 0.950 . S
C952 C953 1.349 . S
C952 C954 1.327 . S
C952 H977 0.950 . S
C953 C952 1.349 . S
C953 C969 1.349 . S
C954 C952 1.327 . S
C954 C973 1.429 . S
C954 H978 0.950 . S
C955 C972 1.574 . S
C955 C974 1.368 . S
C955 H979 0.949 . S
H956 C960 0.949 . S
C957 C958 1.349 . S
C957 C959 1.327 . S
C957 H980 0.950 . S
C958 C957 1.349 . S
C958 C970 1.349 . S
C959 C957 1.327 . S
C959 C975 1.429 . S
C959 H981 0.950 . S
C960 H956 0.949 . S
C960 C968 1.574 . S
C960 C976 1.368 . S
H961 C969 0.950 . S
H962 C967 0.950 . S
H963 C968 0.949 . S
H964 C970 0.950 . S
H965 C971 0.950 . S
H966 C972 0.949 . S
C967 H962 0.950 . S
C967 C969 1.327 . S
C967 C973 1.429 . S
C968 C960 1.574 . S
C968 H963 0.949 . S
C968 C974 1.368 . S
C969 C953 1.349 . S
C969 H961 0.950 . S
C969 C967 1.327 . S
C970 C958 1.349 . S
C970 H964 0.950 . S
C970 C971 1.327 . S
C971 H965 0.950 . S
C971 C970 1.327 . S
C971 C975 1.429 . S
C972 C955 1.574 . S
C972 H966 0.949 . S
C972 C976 1.368 . S
C973 C954 1.429 . S
C973 C967 1.429 . S
C973 C974 1.523 . S
C974 C955 1.368 . S
C974 C968 1.368 . S
C974 C973 1.523 . S
C975 C959 1.429 . S
C975 C971 1.429 . S
C975 C976 1.523 . S
C976 C960 1.368 . S
C976 C972 1.368 . S
C976 C975 1.523 . S
H977 C952 0.950 . S
H978 C954 0.950 . S
H979 C955 0.949 . S
H980 C957 0.950 . S
H981 C959 0.950 . S
C982 C983 1.349 . S
C982 C984 1.327 . S
C982 H1007 0.950 . S
C983 C982 1.349 . S
C983 C999 1.349 . S
C984 C982 1.327 . S
C984 C1003 1.429 . S
C984 H1008 0.950 . S
C985 C1002 1.574 . S
C985 C1004 1.368 . S
C985 H1009 0.949 . S
H986 C990 0.949 . S
C987 C988 1.349 . S
C987 C989 1.327 . S
C987 H1010 0.950 . S
C988 C987 1.349 . S
C988 C1000 1.349 . S
C989 C987 1.327 . S
C989 C1005 1.429 . S
C989 H1011 0.950 . S
C990 H986 0.949 . S
C990 C998 1.574 . S
C990 C1006 1.368 . S
H991 C999 0.950 . S
H992 C997 0.950 . S
H993 C998 0.949 . S
H994 C1000 0.950 . S
H995 C1001 0.950 . S
H996 C1002 0.949 . S
C997 H992 0.950 . S
C997 C999 1.327 . S
C997 C1003 1.429 . S
C998 C990 1.574 . S
C998 H993 0.949 . S
C998 C1004 1.368 . S
C999 C983 1.349 . S
C999 H991 0.950 . S
C999 C997 1.327 . S
C1000 C988 1.349 . S
C1000 H994 0.950 . S
C1000 C1001 1.327 . S
C1001 H995 0.950 . S
C1001 C1000 1.327 . S
C1001 C1005 1.429 . S
C1002 C985 1.574 . S
C1002 H996 0.949 . S
C1002 C1006 1.368 . S
C1003 C984 1.429 . S
C1003 C997 1.429 . S
C1003 C1004 1.523 . S
C1004 C985 1.368 . S
C1004 C998 1.368 . S
C1004 C1003 1.523 . S
C1005 C989 1.429 . S
C1005 C1001 1.429 . S
C1005 C1006 1.523 . S
C1006 C990 1.368 . S
C1006 C1002 1.368 . S
C1006 C1005 1.523 . S
H1007 C982 0.950 . S
H1008 C984 0.950 . S
H1009 C985 0.949 . S
H1010 C987 0.950 . S
H1011 C989 0.950 . S
C1012 C1013 1.349 . S
C1012 C1014 1.327 . S
C1012 H1037 0.950 . S
C1013 C1012 1.349 . S
C1013 C1029 1.349 . S
C1014 C1012 1.327 . S
C1014 C1033 1.429 . S
C1014 H1038 0.950 . S
C1015 C1032 1.574 . S
C1015 C1034 1.368 . S
C1015 H1039 0.949 . S
H1016 C1020 0.949 . S
C1017 C1018 1.349 . S
C1017 C1019 1.327 . S
C1017 H1040 0.950 . S
C1018 C1017 1.349 . S
C1018 C1030 1.349 . S
C1019 C1017 1.327 . S
C1019 C1035 1.429 . S
C1019 H1041 0.950 . S
C1020 H1016 0.949 . S
C1020 C1028 1.574 . S
C1020 C1036 1.368 . S
H1021 C1029 0.950 . S
H1022 C1027 0.950 . S
H1023 C1028 0.949 . S
H1024 C1030 0.950 . S
H1025 C1031 0.950 . S
H1026 C1032 0.949 . S
C1027 H1022 0.950 . S
C1027 C1029 1.327 . S
C1027 C1033 1.429 . S
C1028 C1020 1.574 . S
C1028 H1023 0.949 . S
C1028 C1034 1.368 . S
C1029 C1013 1.349 . S
C1029 H1021 0.950 . S
C1029 C1027 1.327 . S
C1030 C1018 1.349 . S
C1030 H1024 0.950 . S
C1030 C1031 1.327 . S
C1031 H1025 0.950 . S
C1031 C1030 1.327 . S
C1031 C1035 1.429 . S
C1032 C1015 1.574 . S
C1032 H1026 0.949 . S
C1032 C1036 1.368 . S
C1033 C1014 1.429 . S
C1033 C1027 1.429 . S
C1033 C1034 1.523 . S
C1034 C1015 1.368 . S
C1034 C1028 1.368 . S
C1034 C1033 1.523 . S
C1035 C1019 1.429 . S
C1035 C1031 1.429 . S
C1035 C1036 1.523 . S
C1036 C1020 1.368 . S
C1036 C1032 1.368 . S
C1036 C1035 1.523 . S
H1037 C1012 0.950 . S
H1038 C1014 0.950 . S
H1039 C1015 0.949 . S
H1040 C1017 0.950 . S
H1041 C1019 0.950 . S
C1042 C1043 1.349 . S
C1042 C1044 1.327 . S
C1042 H1067 0.950 . S
C1043 C1042 1.349 . S
C1043 C1059 1.349 . S
C1044 C1042 1.327 . S
C1044 C1063 1.429 . S
C1044 H1068 0.950 . S
C1045 C1062 1.574 . S
C1045 C1064 1.368 . S
C1045 H1069 0.949 . S
H1046 C1050 0.949 . S
C1047 C1048 1.349 . S
C1047 C1049 1.327 . S
C1047 H1070 0.950 . S
C1048 C1047 1.349 . S
C1048 C1060 1.349 . S
C1049 C1047 1.327 . S
C1049 C1065 1.429 . S
C1049 H1071 0.950 . S
C1050 H1046 0.949 . S
C1050 C1058 1.574 . S
C1050 C1066 1.368 . S
H1051 C1059 0.950 . S
H1052 C1057 0.950 . S
H1053 C1058 0.949 . S
H1054 C1060 0.950 . S
H1055 C1061 0.950 . S
H1056 C1062 0.949 . S
C1057 H1052 0.950 . S
C1057 C1059 1.327 . S
C1057 C1063 1.429 . S
C1058 C1050 1.574 . S
C1058 H1053 0.949 . S
C1058 C1064 1.368 . S
C1059 C1043 1.349 . S
C1059 H1051 0.950 . S
C1059 C1057 1.327 . S
C1060 C1048 1.349 . S
C1060 H1054 0.950 . S
C1060 C1061 1.327 . S
C1061 H1055 0.950 . S
C1061 C1060 1.327 . S
C1061 C1065 1.429 . S
C1062 C1045 1.574 . S
C1062 H1056 0.949 . S
C1062 C1066 1.368 . S
C1063 C1044 1.429 . S
C1063 C1057 1.429 . S
C1063 C1064 1.523 . S
C1064 C1045 1.368 . S
C1064 C1058 1.368 . S
C1064 C1063 1.523 . S
C1065 C1049 1.429 . S
C1065 C1061 1.429 . S
C1065 C1066 1.523 . S
C1066 C1050 1.368 . S
C1066 C1062 1.368 . S
C1066 C1065 1.523 . S
H1067 C1042 0.950 . S
H1068 C1044 0.950 . S
H1069 C1045 0.949 . S
H1070 C1047 0.950 . S
H1071 C1049 0.950 . S
C1072 C1073 1.349 . S
C1072 C1074 1.327 . S
C1072 H1097 0.950 . S
C1073 C1072 1.349 . S
C1073 C1089 1.349 . S
C1074 C1072 1.327 . S
C1074 C1093 1.429 . S
C1074 H1098 0.950 . S
C1075 C1092 1.574 . S
C1075 C1094 1.368 . S
C1075 H1099 0.949 . S
H1076 C1080 0.949 . S
C1077 C1078 1.349 . S
C1077 C1079 1.327 . S
C1077 H1100 0.950 . S
C1078 C1077 1.349 . S
C1078 C1090 1.349 . S
C1079 C1077 1.327 . S
C1079 C1095 1.429 . S
C1079 H1101 0.950 . S
C1080 H1076 0.949 . S
C1080 C1088 1.574 . S
C1080 C1096 1.368 . S
H1081 C1089 0.950 . S
H1082 C1087 0.950 . S
H1083 C1088 0.949 . S
H1084 C1090 0.950 . S
H1085 C1091 0.950 . S
H1086 C1092 0.949 . S
C1087 H1082 0.950 . S
C1087 C1089 1.327 . S
C1087 C1093 1.429 . S
C1088 C1080 1.574 . S
C1088 H1083 0.949 . S
C1088 C1094 1.368 . S
C1089 C1073 1.349 . S
C1089 H1081 0.950 . S
C1089 C1087 1.327 . S
C1090 C1078 1.349 . S
C1090 H1084 0.950 . S
C1090 C1091 1.327 . S
C1091 H1085 0.950 . S
C1091 C1090 1.327 . S
C1091 C1095 1.429 . S
C1092 C1075 1.574 . S
C1092 H1086 0.949 . S
C1092 C1096 1.368 . S
C1093 C1074 1.429 . S
C1093 C1087 1.429 . S
C1093 C1094 1.523 . S
C1094 C1075 1.368 . S
C1094 C1088 1.368 . S
C1094 C1093 1.523 . S
C1095 C1079 1.429 . S
C1095 C1091 1.429 . S
C1095 C1096 1.523 . S
C1096 C1080 1.368 . S
C1096 C1092 1.368 . S
C1096 C1095 1.523 . S
H1097 C1072 0.950 . S
H1098 C1074 0.950 . S
H1099 C1075 0.949 . S
H1100 C1077 0.950 . S
H1101 C1079 0.950 . S
C1102 C1103 1.349 . S
C1102 C1104 1.327 . S
C1102 H1127 0.950 . S
C1103 C1102 1.349 . S
C1103 C1119 1.349 . S
C1104 C1102 1.327 . S
C1104 C1123 1.429 . S
C1104 H1128 0.950 . S
C1105 C1122 1.574 . S
C1105 C1124 1.368 . S
C1105 H1129 0.949 . S
H1106 C1110 0.949 . S
C1107 C1108 1.349 . S
C1107 C1109 1.327 . S
C1107 H1130 0.950 . S
C1108 C1107 1.349 . S
C1108 C1120 1.349 . S
C1109 C1107 1.327 . S
C1109 C1125 1.429 . S
C1109 H1131 0.950 . S
C1110 H1106 0.949 . S
C1110 C1118 1.574 . S
C1110 C1126 1.368 . S
H1111 C1119 0.950 . S
H1112 C1117 0.950 . S
H1113 C1118 0.949 . S
H1114 C1120 0.950 . S
H1115 C1121 0.950 . S
H1116 C1122 0.949 . S
C1117 H1112 0.950 . S
C1117 C1119 1.327 . S
C1117 C1123 1.429 . S
C1118 C1110 1.574 . S
C1118 H1113 0.949 . S
C1118 C1124 1.368 . S
C1119 C1103 1.349 . S
C1119 H1111 0.950 . S
C1119 C1117 1.327 . S
C1120 C1108 1.349 . S
C1120 H1114 0.950 . S
C1120 C1121 1.327 . S
C1121 H1115 0.950 . S
C1121 C1120 1.327 . S
C1121 C1125 1.429 . S
C1122 C1105 1.574 . S
C1122 H1116 0.949 . S
C1122 C1126 1.368 . S
C1123 C1104 1.429 . S
C1123 C1117 1.429 . S
C1123 C1124 1.523 . S
C1124 C1105 1.368 . S
C1124 C1118 1.368 . S
C1124 C1123 1.523 . S
C1125 C1109 1.429 . S
C1125 C1121 1.429 . S
C1125 C1126 1.523 . S
C1126 C1110 1.368 . S
C1126 C1122 1.368 . S
C1126 C1125 1.523 . S
H1127 C1102 0.950 . S
H1128 C1104 0.950 . S
H1129 C1105 0.949 . S
H1130 C1107 0.950 . S
H1131 C1109 0.950 . S
C1132 C1133 1.349 . S
C1132 C1134 1.327 . S
C1132 H1157 0.950 . S
C1133 C1132 1.349 . S
C1133 C1149 1.349 . S
C1134 C1132 1.327 . S
C1134 C1153 1.429 . S
C1134 H1158 0.950 . S
C1135 C1152 1.574 . S
C1135 C1154 1.368 . S
C1135 H1159 0.949 . S
H1136 C1140 0.949 . S
C1137 C1138 1.349 . S
C1137 C1139 1.327 . S
C1137 H1160 0.950 . S
C1138 C1137 1.349 . S
C1138 C1150 1.349 . S
C1139 C1137 1.327 . S
C1139 C1155 1.429 . S
C1139 H1161 0.950 . S
C1140 H1136 0.949 . S
C1140 C1148 1.574 . S
C1140 C1156 1.368 . S
H1141 C1149 0.950 . S
H1142 C1147 0.950 . S
H1143 C1148 0.949 . S
H1144 C1150 0.950 . S
H1145 C1151 0.950 . S
H1146 C1152 0.949 . S
C1147 H1142 0.950 . S
C1147 C1149 1.327 . S
C1147 C1153 1.429 . S
C1148 C1140 1.574 . S
C1148 H1143 0.949 . S
C1148 C1154 1.368 . S
C1149 C1133 1.349 . S
C1149 H1141 0.950 . S
C1149 C1147 1.327 . S
C1150 C1138 1.349 . S
C1150 H1144 0.950 . S
C1150 C1151 1.327 . S
C1151 H1145 0.950 . S
C1151 C1150 1.327 . S
C1151 C1155 1.429 . S
C1152 C1135 1.574 . S
C1152 H1146 0.949 . S
C1152 C1156 1.368 . S
C1153 C1134 1.429 . S
C1153 C1147 1.429 . S
C1153 C1154 1.523 . S
C1154 C1135 1.368 . S
C1154 C1148 1.368 . S
C1154 C1153 1.523 . S
C1155 C1139 1.429 . S
C1155 C1151 1.429 . S
C1155 C1156 1.523 . S
C1156 C1140 1.368 . S
C1156 C1152 1.368 . S
C1156 C1155 1.523 . S
H1157 C1132 0.950 . S
H1158 C1134 0.950 . S
H1159 C1135 0.949 . S
H1160 C1137 0.950 . S
H1161 C1139 0.950 . S
C1162 C1163 1.349 . S
C1162 C1164 1.327 . S
C1162 H1187 0.950 . S
C1163 C1162 1.349 . S
C1163 C1179 1.349 . S
C1164 C1162 1.327 . S
C1164 C1183 1.429 . S
C1164 H1188 0.950 . S
C1165 C1182 1.574 . S
C1165 C1184 1.368 . S
C1165 H1189 0.949 . S
H1166 C1170 0.949 . S
C1167 C1168 1.349 . S
C1167 C1169 1.327 . S
C1167 H1190 0.950 . S
C1168 C1167 1.349 . S
C1168 C1180 1.349 . S
C1169 C1167 1.327 . S
C1169 C1185 1.429 . S
C1169 H1191 0.950 . S
C1170 H1166 0.949 . S
C1170 C1178 1.574 . S
C1170 C1186 1.368 . S
H1171 C1179 0.950 . S
H1172 C1177 0.950 . S
H1173 C1178 0.949 . S
H1174 C1180 0.950 . S
H1175 C1181 0.950 . S
H1176 C1182 0.949 . S
C1177 H1172 0.950 . S
C1177 C1179 1.327 . S
C1177 C1183 1.429 . S
C1178 C1170 1.574 . S
C1178 H1173 0.949 . S
C1178 C1184 1.368 . S
C1179 C1163 1.349 . S
C1179 H1171 0.950 . S
C1179 C1177 1.327 . S
C1180 C1168 1.349 . S
C1180 H1174 0.950 . S
C1180 C1181 1.327 . S
C1181 H1175 0.950 . S
C1181 C1180 1.327 . S
C1181 C1185 1.429 . S
C1182 C1165 1.574 . S
C1182 H1176 0.949 . S
C1182 C1186 1.368 . S
C1183 C1164 1.429 . S
C1183 C1177 1.429 . S
C1183 C1184 1.523 . S
C1184 C1165 1.368 . S
C1184 C1178 1.368 . S
C1184 C1183 1.523 . S
C1185 C1169 1.429 . S
C1185 C1181 1.429 . S
C1185 C1186 1.523 . S
C1186 C1170 1.368 . S
C1186 C1182 1.368 . S
C1186 C1185 1.523 . S
H1187 C1162 0.950 . S
H1188 C1164 0.950 . S
H1189 C1165 0.949 . S
H1190 C1167 0.950 . S
H1191 C1169 0.950 . S
C473 C1 1.250 . S
C478 C319 1.292 . S
C503 C40 0.967 . S
C508 C368 0.963 . S
C538 C394 2.413 . S
C533 C99 2.440 . S
C563 C118 2.306 . S
C568 C442 2.248 . S
C598 C354 2.529 . S
C593 C16 2.445 . S
C628 C322 0.917 . S
C623 C60 0.939 . S
C658 C443 1.867 . S
C653 C79 1.894 . S
C688 C411 1.450 . S
C683 C138 1.474 . S
C713 C21 1.743 . S
C718 C439 1.802 . S
C748 C371 2.320 . S
C743 C94 2.387 . S
C773 C133 2.307 . S
C778 C323 2.301 . S
C803 C55 0.753 . S
C808 C408 0.753 . S
C838 C328 1.296 . S
C833 C157 1.260 . S
C863 C196 0.968 . S
C868 C359 0.964 . S
C893 C255 2.438 . S
C898 C403 2.411 . S
C923 C289 2.301 . S
C928 C451 2.242 . S
C953 C172 2.436 . S
C958 C363 2.527 . S
C988 C331 0.918 . S
C983 C216 0.940 . S
C1018 C434 1.867 . S
C1013 C235 1.896 . S
C1048 C402 1.449 . S
C1043 C294 1.474 . S
C1073 C177 1.758 . S
C1078 C448 1.801 . S
C1108 C362 2.322 . S
C1103 C250 2.389 . S
C1138 C314 2.306 . S
C1133 C274 2.311 . S
C1163 C211 0.750 . S
C1168 C399 0.750 . S
