# Generated by pormake.
# Topology ctn, (3,4)-cn, num edge types: 1
# Building blocks:
#     Node 0, Type 0, BuildingBlock: BETDIP_clean_linker_0, # of connection points: 3
#     Node 1, Type 0, BuildingBlock: BETDIP_clean_linker_0, # of connection points: 3
#     Node 2, Type 0, BuildingBlock: BETDIP_clean_linker_0, # of connection points: 3
#     Node 3, Type 0, BuildingBlock: BETDIP_clean_linker_0, # of connection points: 3
#     Node 4, Type 0, BuildingBlock: BETDIP_clean_linker_0, # of connection points: 3
#     Node 5, Type 0, BuildingBlock: BETDIP_clean_linker_0, # of connection points: 3
#     Node 6, Type 0, BuildingBlock: BETDIP_clean_linker_0, # of connection points: 3
#     Node 7, Type 0, BuildingBlock: BETDIP_clean_linker_0, # of connection points: 3
#     Node 8, Type 0, BuildingBlock: BETDIP_clean_linker_0, # of connection points: 3
#     Node 9, Type 0, BuildingBlock: BETDIP_clean_linker_0, # of connection points: 3
#     Node 10, Type 0, BuildingBlock: BETDIP_clean_linker_0, # of connection points: 3
#     Node 11, Type 0, BuildingBlock: BETDIP_clean_linker_0, # of connection points: 3
#     Node 12, Type 0, BuildingBlock: BETDIP_clean_linker_0, # of connection points: 3
#     Node 13, Type 0, BuildingBlock: BETDIP_clean_linker_0, # of connection points: 3
#     Node 14, Type 0, BuildingBlock: BETDIP_clean_linker_0, # of connection points: 3
#     Node 15, Type 0, BuildingBlock: BETDIP_clean_linker_0, # of connection points: 3
#     Node 16, Type 1, BuildingBlock: KUFVIS_clean_sbu_0, # of connection points: 4
#     Node 17, Type 1, BuildingBlock: KUFVIS_clean_sbu_0, # of connection points: 4
#     Node 18, Type 1, BuildingBlock: KUFVIS_clean_sbu_0, # of connection points: 4
#     Node 19, Type 1, BuildingBlock: KUFVIS_clean_sbu_0, # of connection points: 4
#     Node 20, Type 1, BuildingBlock: KUFVIS_clean_sbu_0, # of connection points: 4
#     Node 21, Type 1, BuildingBlock: KUFVIS_clean_sbu_0, # of connection points: 4
#     Node 22, Type 1, BuildingBlock: KUFVIS_clean_sbu_0, # of connection points: 4
#     Node 23, Type 1, BuildingBlock: KUFVIS_clean_sbu_0, # of connection points: 4
#     Node 24, Type 1, BuildingBlock: KUFVIS_clean_sbu_0, # of connection points: 4
#     Node 25, Type 1, BuildingBlock: KUFVIS_clean_sbu_0, # of connection points: 4
#     Node 26, Type 1, BuildingBlock: KUFVIS_clean_sbu_0, # of connection points: 4
#     Node 27, Type 1, BuildingBlock: KUFVIS_clean_sbu_0, # of connection points: 4
#     Edge 28, Type (0, 1), BuildingBlock: MIFKUJ_clean_linker_0, # of connection points: 2
#     Edge 29, Type (0, 1), BuildingBlock: MIFKUJ_clean_linker_0, # of connection points: 2
#     Edge 30, Type (0, 1), BuildingBlock: MIFKUJ_clean_linker_0, # of connection points: 2
#     Edge 31, Type (0, 1), BuildingBlock: MIFKUJ_clean_linker_0, # of connection points: 2
#     Edge 32, Type (0, 1), BuildingBlock: MIFKUJ_clean_linker_0, # of connection points: 2
#     Edge 33, Type (0, 1), BuildingBlock: MIFKUJ_clean_linker_0, # of connection points: 2
#     Edge 34, Type (0, 1), BuildingBlock: MIFKUJ_clean_linker_0, # of connection points: 2
#     Edge 35, Type (0, 1), BuildingBlock: MIFKUJ_clean_linker_0, # of connection points: 2
#     Edge 36, Type (0, 1), BuildingBlock: MIFKUJ_clean_linker_0, # of connection points: 2
#     Edge 37, Type (0, 1), BuildingBlock: MIFKUJ_clean_linker_0, # of connection points: 2
#     Edge 38, Type (0, 1), BuildingBlock: MIFKUJ_clean_linker_0, # of connection points: 2
#     Edge 39, Type (0, 1), BuildingBlock: MIFKUJ_clean_linker_0, # of connection points: 2
#     Edge 40, Type (0, 1), BuildingBlock: MIFKUJ_clean_linker_0, # of connection points: 2
#     Edge 41, Type (0, 1), BuildingBlock: MIFKUJ_clean_linker_0, # of connection points: 2
#     Edge 42, Type (0, 1), BuildingBlock: MIFKUJ_clean_linker_0, # of connection points: 2
#     Edge 43, Type (0, 1), BuildingBlock: MIFKUJ_clean_linker_0, # of connection points: 2
#     Edge 44, Type (0, 1), BuildingBlock: MIFKUJ_clean_linker_0, # of connection points: 2
#     Edge 45, Type (0, 1), BuildingBlock: MIFKUJ_clean_linker_0, # of connection points: 2
#     Edge 46, Type (0, 1), BuildingBlock: MIFKUJ_clean_linker_0, # of connection points: 2
#     Edge 47, Type (0, 1), BuildingBlock: MIFKUJ_clean_linker_0, # of connection points: 2
#     Edge 48, Type (0, 1), BuildingBlock: MIFKUJ_clean_linker_0, # of connection points: 2
#     Edge 49, Type (0, 1), BuildingBlock: MIFKUJ_clean_linker_0, # of connection points: 2
#     Edge 50, Type (0, 1), BuildingBlock: MIFKUJ_clean_linker_0, # of connection points: 2
#     Edge 51, Type (0, 1), BuildingBlock: MIFKUJ_clean_linker_0, # of connection points: 2
#     Edge 52, Type (0, 1), BuildingBlock: MIFKUJ_clean_linker_0, # of connection points: 2
#     Edge 53, Type (0, 1), BuildingBlock: MIFKUJ_clean_linker_0, # of connection points: 2
#     Edge 54, Type (0, 1), BuildingBlock: MIFKUJ_clean_linker_0, # of connection points: 2
#     Edge 55, Type (0, 1), BuildingBlock: MIFKUJ_clean_linker_0, # of connection points: 2
#     Edge 56, Type (0, 1), BuildingBlock: MIFKUJ_clean_linker_0, # of connection points: 2
#     Edge 57, Type (0, 1), BuildingBlock: MIFKUJ_clean_linker_0, # of connection points: 2
#     Edge 58, Type (0, 1), BuildingBlock: MIFKUJ_clean_linker_0, # of connection points: 2
#     Edge 59, Type (0, 1), BuildingBlock: MIFKUJ_clean_linker_0, # of connection points: 2
#     Edge 60, Type (0, 1), BuildingBlock: MIFKUJ_clean_linker_0, # of connection points: 2
#     Edge 61, Type (0, 1), BuildingBlock: MIFKUJ_clean_linker_0, # of connection points: 2
#     Edge 62, Type (0, 1), BuildingBlock: MIFKUJ_clean_linker_0, # of connection points: 2
#     Edge 63, Type (0, 1), BuildingBlock: MIFKUJ_clean_linker_0, # of connection points: 2
#     Edge 64, Type (0, 1), BuildingBlock: MIFKUJ_clean_linker_0, # of connection points: 2
#     Edge 65, Type (0, 1), BuildingBlock: MIFKUJ_clean_linker_0, # of connection points: 2
#     Edge 66, Type (0, 1), BuildingBlock: MIFKUJ_clean_linker_0, # of connection points: 2
#     Edge 67, Type (0, 1), BuildingBlock: MIFKUJ_clean_linker_0, # of connection points: 2
#     Edge 68, Type (0, 1), BuildingBlock: MIFKUJ_clean_linker_0, # of connection points: 2
#     Edge 69, Type (0, 1), BuildingBlock: MIFKUJ_clean_linker_0, # of connection points: 2
#     Edge 70, Type (0, 1), BuildingBlock: MIFKUJ_clean_linker_0, # of connection points: 2
#     Edge 71, Type (0, 1), BuildingBlock: MIFKUJ_clean_linker_0, # of connection points: 2
#     Edge 72, Type (0, 1), BuildingBlock: MIFKUJ_clean_linker_0, # of connection points: 2
#     Edge 73, Type (0, 1), BuildingBlock: MIFKUJ_clean_linker_0, # of connection points: 2
#     Edge 74, Type (0, 1), BuildingBlock: MIFKUJ_clean_linker_0, # of connection points: 2
#     Edge 75, Type (0, 1), BuildingBlock: MIFKUJ_clean_linker_0, # of connection points: 2
# Relax obj value: 0.077
# Max RMSD: 0.189
# Mean RMSD: 0.123
data_MOF--net-ctn--node1-KUFVIS_clean_sbu_0--node2-BETDIP_clean_linker_0--edge1-MIFKUJ_clean_linker_0
_symmetry_space_group_name_H-M    P1
_symmetry_Int_Tables_number       1
_symmetry_cell_setting            triclinic
loop_
_symmetry_equiv_pos_as_xyz
'x, y, z'
_cell_length_a     67.644395
_cell_length_b     67.787262
_cell_length_c     74.48105
_cell_angle_alpha  94.331418
_cell_angle_beta   93.964207
_cell_angle_gamma 94.361997
loop_
_atom_site_label
_atom_site_type_symbol
_atom_site_fract_x
_atom_site_fract_y
_atom_site_fract_z
_atom_type_partial_charge
H0 H 0.0399 0.06593 0.06854 0.0
H1 H 0.08401 0.04777 0.03359 0.0
H2 H 0.07733 0.02004 0.08307 0.0
H3 H 0.0846 0.07948 0.02664 0.0
C4 C 0.06912 0.08274 0.02649 0.0
C5 C 0.05195 0.05673 0.06584 0.0
C6 C 0.05714 0.04245 0.07774 0.0
C7 C 0.06209 0.0593 0.05032 0.0
C8 C 0.07707 0.0468 0.04618 0.0
C9 C 0.0827 0.03249 0.05785 0.0
C10 C 0.07273 0.03057 0.0737 0.0
N11 N 0.05656 0.07424 0.03892 0.0
H12 H 0.2997 0.68313 0.17457 0.0
H13 H 0.35393 0.71692 0.19512 0.0
H14 H 0.3319 0.66698 0.22237 0.0
H15 H 0.35488 0.7223 0.1644 0.0
C16 C 0.33945 0.72502 0.16123 0.0
C17 C 0.3123 0.68553 0.18451 0.0
C18 C 0.3141 0.67299 0.1986 0.0
C19 C 0.32683 0.70101 0.18285 0.0
C20 C 0.34316 0.70439 0.1958 0.0
C21 C 0.34499 0.69226 0.21024 0.0
C22 C 0.33054 0.67645 0.21133 0.0
N23 N 0.324 0.7135 0.16856 0.0
H24 H 0.96379 0.49313 0.01095 0.0
H25 H 0.0068 0.47267 0.04857 0.0
H26 H 0.97533 0.52334 0.06408 0.0
H27 H 0.02098 0.46363 0.02201 0.0
C28 C 0.00777 0.45722 0.01388 0.0
C29 C 0.97161 0.49467 0.02424 0.0
C30 C 0.96748 0.50978 0.03712 0.0
C31 C 0.98617 0.4817 0.02809 0.0
C32 C 0.99642 0.48345 0.04525 0.0
C33 C 0.9928 0.49853 0.05839 0.0
C34 C 0.9783 0.51168 0.05412 0.0
N35 N 0.98968 0.46658 0.01464 0.0
H36 H 0.70659 0.7924 0.18832 0.0
H37 H 0.72352 0.84699 0.22081 0.0
H38 H 0.75285 0.8331 0.17251 0.0
H39 H 0.68922 0.84309 0.22499 0.0
C40 C 0.68826 0.82762 0.228 0.0
C41 C 0.71582 0.80626 0.19073 0.0
C42 C 0.72976 0.81148 0.17842 0.0
C43 C 0.71312 0.81922 0.20577 0.0
C44 C 0.72521 0.83716 0.20897 0.0
C45 C 0.73968 0.84232 0.19707 0.0
C46 C 0.74161 0.82947 0.18169 0.0
N47 N 0.69845 0.8137 0.21765 0.0
H48 H 0.03132 0.96564 0.45923 0.0
H49 H 0.08326 0.98194 0.49561 0.0
H50 H 0.07095 0.01624 0.45063 0.0
H51 H 0.06447 0.96803 0.51549 0.0
C52 C 0.05632 0.95529 0.50792 0.0
C53 C 0.04455 0.97543 0.46331 0.0
C54 C 0.04967 0.99144 0.45311 0.0
C55 C 0.05612 0.97226 0.47905 0.0
C56 C 0.07362 0.98466 0.48401 0.0
C57 C 0.07894 1.00066 0.47392 0.0
C58 C 0.06672 0.00412 0.45866 0.0
N59 N 0.05002 0.95634 0.4894 0.0
H60 H 0.21333 0.71832 0.82733 0.0
H61 H 0.24206 0.6778 0.7927 0.0
H62 H 0.26949 0.6978 0.84547 0.0
H63 H 0.2271 0.69799 0.77132 0.0
C64 C 0.21237 0.69825 0.77626 0.0
C65 C 0.22565 0.70932 0.82511 0.0
C66 C 0.24136 0.70947 0.8385 0.0
C67 C 0.22608 0.69846 0.80845 0.0
C68 C 0.24194 0.68673 0.80538 0.0
C69 C 0.25763 0.68636 0.81873 0.0
C70 C 0.25744 0.69806 0.83513 0.0
N71 N 0.21023 0.69957 0.79514 0.0
H72 H 0.01536 0.56383 0.4679 0.0
H73 H 0.97547 0.51125 0.457 0.0
H74 H 0.97007 0.55067 0.50401 0.0
H75 H 0.99864 0.50059 0.43955 0.0
C76 C 0.00664 0.51361 0.43511 0.0
C77 C 1.00318 0.55417 0.47184 0.0
C78 C 0.99328 0.55961 0.4872 0.0
C79 C 0.99732 0.53651 0.46118 0.0
C80 C 0.98089 0.52431 0.46568 0.0
C81 C 0.97074 0.52949 0.48101 0.0
C82 C 0.97734 0.54695 0.49183 0.0
N83 N 0.00779 0.53213 0.44563 0.0
H84 H 0.82367 0.84833 0.79339 0.0
H85 H 0.84754 0.80287 0.82369 0.0
H86 H 0.79364 0.82742 0.83823 0.0
H87 H 0.87296 0.80588 0.80792 0.0
C88 C 0.87004 0.81435 0.7964 0.0
C89 C 0.82286 0.83883 0.80444 0.0
C90 C 0.80681 0.83935 0.81541 0.0
C91 C 0.83773 0.82588 0.80725 0.0
C92 C 0.83656 0.81334 0.82147 0.0
C93 C 0.82074 0.81381 0.83279 0.0
C94 C 0.8058 0.82675 0.82951 0.0
N95 N 0.85317 0.82562 0.79515 0.0
H96 H 0.31496 0.33747 0.29013 0.0
H97 H 0.34339 0.29903 0.3251 0.0
H98 H 0.29337 0.32961 0.34222 0.0
H99 H 0.37127 0.31181 0.31072 0.0
C100 C 0.36491 0.31087 0.29685 0.0
C101 C 0.31591 0.33076 0.30289 0.0
C102 C 0.30226 0.33487 0.31574 0.0
C103 C 0.33124 0.3186 0.30652 0.0
C104 C 0.33232 0.30947 0.32287 0.0
C105 C 0.31852 0.31301 0.33587 0.0
C106 C 0.30385 0.32624 0.33229 0.0
N107 N 0.34491 0.31534 0.29315 0.0
H108 H 0.45788 0.99093 0.51602 0.0
H109 H 0.50188 0.97096 0.55302 0.0
H110 H 0.47719 0.02639 0.5656 0.0
H111 H 0.48942 0.94099 0.5395 0.0
C112 C 0.48858 0.94428 0.52543 0.0
C113 C 0.46713 0.99352 0.52857 0.0
C114 C 0.46555 0.01054 0.54032 0.0
C115 C 0.48011 0.97923 0.53305 0.0
C116 C 0.49183 0.98195 0.5495 0.0
C117 C 0.4907 0.99881 0.56147 0.0
C118 C 0.47764 0.01309 0.55669 0.0
N119 N 0.48152 0.96253 0.52055 0.0
H120 H 0.19978 0.29474 0.68862 0.0
H121 H 0.22313 0.34671 0.72247 0.0
H122 H 0.25317 0.32837 0.67617 0.0
H123 H 0.20727 0.33293 0.7435 0.0
C124 C 0.19451 0.32369 0.73719 0.0
C125 C 0.21108 0.30695 0.69172 0.0
C126 C 0.22644 0.31004 0.68011 0.0
C127 C 0.21003 0.31963 0.70739 0.0
C128 C 0.22407 0.33615 0.71101 0.0
C129 C 0.23963 0.33923 0.69978 0.0
C130 C 0.24092 0.32599 0.6846 0.0
N131 N 0.19462 0.31545 0.71903 0.0
H132 H 0.80537 0.1799 0.66943 0.0
H133 H 0.86196 0.20985 0.68902 0.0
H134 H 0.83864 0.15964 0.71491 0.0
H135 H 0.85106 0.23504 0.67537 0.0
C136 C 0.84059 0.22929 0.66417 0.0
C137 C 0.8184 0.18122 0.6789 0.0
C138 C 0.82029 0.16763 0.69216 0.0
C139 C 0.83307 0.19674 0.67782 0.0
C140 C 0.85015 0.19839 0.68995 0.0
C141 C 0.85232 0.18493 0.70326 0.0
C142 C 0.83735 0.16959 0.70423 0.0
N143 N 0.83009 0.21031 0.66438 0.0
H144 H 0.5376 0.56438 0.56569 0.0
H145 H 0.58372 0.54686 0.53256 0.0
H146 H 0.57216 0.51604 0.57941 0.0
H147 H 0.56708 0.56066 0.51138 0.0
C148 C 0.55984 0.57275 0.51783 0.0
C149 C 0.54938 0.55483 0.56303 0.0
C150 C 0.55379 0.54014 0.57476 0.0
C151 C 0.55963 0.55702 0.54749 0.0
C152 C 0.57489 0.54464 0.54389 0.0
C153 C 0.57932 0.52957 0.55514 0.0
C154 C 0.56875 0.52751 0.5706 0.0
N155 N 0.55434 0.57191 0.5359 0.0
H156 H 0.53548 0.46358 0.95779 0.0
H157 H 0.58862 0.4773 0.99299 0.0
H158 H 0.57951 0.50854 0.94535 0.0
H159 H 0.56934 0.46677 0.01394 0.0
C160 C 0.56002 0.45435 0.00704 0.0
C161 C 0.54956 0.47223 0.96118 0.0
C162 C 0.55651 0.4861 0.94951 0.0
C163 C 0.56079 0.46929 0.97715 0.0
C164 C 0.57932 0.48022 0.98126 0.0
C165 C 0.58626 0.49461 0.97001 0.0
C166 C 0.5747 0.49732 0.95408 0.0
N167 N 0.55336 0.4549 0.98854 0.0
H168 H 0.70726 0.21565 0.32716 0.0
H169 H 0.73548 0.17457 0.29268 0.0
H170 H 0.76505 0.19769 0.3438 0.0
H171 H 0.71821 0.19162 0.27086 0.0
C172 C 0.704 0.19315 0.27657 0.0
C173 C 0.7199 0.2072 0.32465 0.0
C174 C 0.73624 0.20833 0.33751 0.0
C175 C 0.71973 0.19556 0.30834 0.0
C176 C 0.73572 0.18404 0.30509 0.0
C177 C 0.75206 0.18463 0.31793 0.0
C178 C 0.75233 0.19697 0.33402 0.0
N179 N 0.70315 0.19579 0.29559 0.0
H180 H 0.51809 0.06054 0.97097 0.0
H181 H 0.48014 0.00651 0.95899 0.0
H182 H 0.46959 0.04716 1.00367 0.0
H183 H 0.50625 0.99664 0.94381 0.0
C184 C 0.51256 0.01004 0.93853 0.0
C185 C 0.5056 0.05074 0.97408 0.0
C186 C 0.49465 0.05587 0.98884 0.0
C187 C 0.50081 0.03283 0.96343 0.0
C188 C 0.48454 0.02005 0.96741 0.0
C189 C 0.47316 0.02531 0.98186 0.0
C190 C 0.4784 0.04311 0.99253 0.0
N191 N 0.5121 0.0288 0.94836 0.0
Mn192 Mn 0.26423 0.87745 0.00997 0.0
Mn193 Mn 0.2609 0.89948 0.97089 0.0
C194 C 0.24848 0.8602 0.98414 0.0
C195 C 0.28037 0.85897 0.03081 0.0
C196 C 0.2363 0.90964 1.00231 0.0
O197 O 0.28591 0.90043 0.014 0.0
O198 O 0.28411 0.91227 0.98638 0.0
C199 C 0.29758 0.88732 0.95514 0.0
N200 N 0.27747 0.88803 0.95385 0.0
C201 C 0.27465 0.87134 0.92398 0.0
C202 C 0.29533 0.87052 0.92495 0.0
C203 C 0.30681 0.87839 0.94065 0.0
C204 C 0.26624 0.88023 0.9389 0.0
H205 H 0.30646 0.89341 0.96718 0.0
C206 C 0.2921 0.91211 1.00248 0.0
O207 O 0.26742 0.87114 0.03551 0.0
O208 O 0.28447 0.85788 0.01399 0.0
N209 N 0.23909 0.88817 0.95475 0.0
C210 C 0.21923 0.8885 0.95667 0.0
C211 C 0.2056 0.88062 0.9424 0.0
C212 C 0.21254 0.87258 0.92631 0.0
C213 C 0.23304 0.87218 0.92473 0.0
C214 C 0.24591 0.88036 0.93937 0.0
H215 H 0.21382 0.89485 0.96894 0.0
O216 O 0.24433 0.85521 1.00004 0.0
O217 O 0.26142 0.87536 0.98393 0.0
O218 O 0.24228 0.8964 0.01213 0.0
O219 O 0.2429 0.91252 0.98701 0.0
C220 C 0.24123 0.86394 0.90926 0.0
C221 C 0.262 0.86332 0.90895 0.0
H222 H 0.30253 0.86365 0.91382 0.0
H223 H 0.32273 0.8775 0.94156 0.0
H224 H 0.18979 0.88089 0.94373 0.0
H225 H 0.20196 0.86681 0.91528 0.0
H226 H 0.2317 0.8579 0.89757 0.0
H227 H 0.26808 0.85652 0.89714 0.0
Mn228 Mn 0.14584 0.49872 0.25122 0.0
Mn229 Mn 0.13214 0.54561 0.25342 0.0
C230 C 0.16512 0.52345 0.2392 0.0
C231 C 0.16239 0.47371 0.26431 0.0
C232 C 0.11227 0.51249 0.227 0.0
O233 O 0.12518 0.49862 0.27006 0.0
O234 O 0.12047 0.53125 0.27291 0.0
C235 C 0.1534 0.56103 0.28833 0.0
N236 N 0.14973 0.56234 0.27027 0.0
C237 C 0.1717 0.59208 0.27114 0.0
C238 C 0.17562 0.59114 0.28978 0.0
C239 C 0.16649 0.5755 0.29839 0.0
C240 C 0.15861 0.57719 0.26181 0.0
H241 H 0.14639 0.54904 0.29499 0.0
C242 C 0.11778 0.51357 0.27777 0.0
O243 O 0.14801 0.46958 0.2518 0.0
O244 O 0.16676 0.49231 0.26954 0.0
N245 N 0.14261 0.56127 0.23539 0.0
C246 C 0.13797 0.55952 0.2172 0.0
C247 C 0.14633 0.5737 0.20651 0.0
C248 C 0.1591 0.58967 0.21464 0.0
C249 C 0.16342 0.59131 0.2334 0.0
C250 C 0.15473 0.5767 0.24336 0.0
H251 H 0.12801 0.5474 0.21087 0.0
O252 O 0.16674 0.50492 0.23421 0.0
O253 O 0.15264 0.52688 0.25132 0.0
O254 O 0.12401 0.49929 0.2308 0.0
O255 O 0.11337 0.52976 0.23534 0.0
C256 C 0.17611 0.60681 0.2426 0.0
C257 C 0.18039 0.60711 0.26143 0.0
H258 H 0.18569 0.60228 0.2976 0.0
H259 H 0.16951 0.57462 0.31276 0.0
H260 H 0.14292 0.57233 0.19204 0.0
H261 H 0.16555 0.60056 0.20635 0.0
H262 H 0.18287 0.61842 0.23527 0.0
H263 H 0.19049 0.61891 0.26828 0.0
Mn264 Mn 0.78448 0.65704 1.0002 0.0
Mn265 Mn 0.7429 0.67372 0.9808 0.0
C266 C 0.75408 0.63885 1.00067 0.0
C267 C 0.81299 0.63959 0.99993 0.0
C268 C 0.76071 0.68934 0.0178 0.0
O269 O 0.79587 0.67758 0.9841 0.0
O270 O 0.76705 0.68816 0.97316 0.0
C271 C 0.74915 0.65851 0.94344 0.0
N272 N 0.73731 0.65989 0.95747 0.0
C273 C 0.71029 0.64058 0.94007 0.0
C274 C 0.72214 0.63906 0.92538 0.0
C275 C 0.7417 0.64792 0.92713 0.0
C276 C 0.71862 0.65108 0.95605 0.0
H277 H 0.76417 0.66539 0.94469 0.0
C278 C 0.78603 0.68889 0.97459 0.0
O279 O 0.81134 0.65423 0.01183 0.0
O280 O 0.79831 0.63545 0.9877 0.0
N281 N 0.71798 0.66152 0.98649 0.0
C282 C 0.70884 0.66365 1.00218 0.0
C283 C 0.68906 0.65591 1.00265 0.0
C284 C 0.67888 0.64622 0.98697 0.0
C285 C 0.68868 0.64392 0.97109 0.0
C286 C 0.70825 0.65228 0.97133 0.0
H287 H 0.71648 0.67149 0.01414 0.0
O288 O 0.76869 0.6367 0.0124 0.0
O289 O 0.75767 0.65144 0.98866 0.0
O290 O 0.77564 0.67894 0.01767 0.0
O291 O 0.74729 0.68852 0.00479 0.0
C292 C 0.67977 0.63372 0.95502 0.0
C293 C 0.69064 0.63188 0.93956 0.0
H294 H 0.71642 0.63098 0.91276 0.0
H295 H 0.751 0.64662 0.91592 0.0
H296 H 0.68157 0.65773 0.01497 0.0
H297 H 0.66346 0.64087 0.98713 0.0
H298 H 0.66466 0.62703 0.95447 0.0
H299 H 0.68376 0.62374 0.92737 0.0
Mn300 Mn 0.91309 0.02472 0.25751 0.0
Mn301 Mn 0.92527 0.97735 0.25221 0.0
C302 C 0.89169 1.00068 0.24096 0.0
C303 C 0.89771 0.04975 0.27318 0.0
C304 C 0.9432 0.01034 0.23148 0.0
O305 O 0.93492 0.02376 0.27773 0.0
O306 O 0.94096 0.99152 0.27354 0.0
C307 C 0.90964 0.96278 0.28538 0.0
N308 N 0.90992 0.96131 0.26707 0.0
C309 C 0.88581 0.93303 0.2642 0.0
C310 C 0.88536 0.93418 0.28304 0.0
C311 C 0.8973 0.94915 0.29367 0.0
C312 C 0.89846 0.94698 0.2567 0.0
H313 H 0.91873 0.9743 0.29361 0.0
C314 C 0.94388 0.00871 0.2822 0.0
O315 O 0.91167 0.05394 0.26261 0.0
O316 O 0.89344 0.03114 0.27528 0.0
N317 N 0.91085 0.96193 0.23222 0.0
C318 C 0.91217 0.96356 0.21421 0.0
C319 C 0.90079 0.94997 0.2017 0.0
C320 C 0.88826 0.93482 0.20782 0.0
C321 C 0.88721 0.9334 0.22642 0.0
C322 C 0.89904 0.94724 0.23825 0.0
H323 H 0.92176 0.97517 0.20941 0.0
O324 O 0.89066 0.01927 0.23828 0.0
O325 O 0.90533 0.99677 0.25299 0.0
O326 O 0.93359 0.02416 0.23839 0.0
O327 O 0.94141 0.99251 0.23598 0.0
C328 C 0.87464 0.91899 0.23367 0.0
C329 C 0.8739 0.91884 0.25254 0.0
H330 H 0.87578 0.92376 0.28948 0.0
H331 H 0.89696 0.95019 0.30822 0.0
H332 H 0.90164 0.9512 0.18737 0.0
H333 H 0.87943 0.92444 0.19812 0.0
H334 H 0.86527 0.90813 0.22485 0.0
H335 H 0.86395 0.90788 0.25795 0.0
Mn336 Mn 0.28296 0.157 0.50192 0.0
Mn337 Mn 0.23984 0.16941 0.48173 0.0
C338 C 0.25426 0.13583 0.50115 0.0
C339 C 0.3131 0.14222 0.50247 0.0
C340 C 0.25523 0.18581 0.51925 0.0
O341 O 0.29279 0.17894 0.48648 0.0
O342 O 0.26288 0.18662 0.4753 0.0
C343 C 0.24882 0.15726 0.44432 0.0
N344 N 0.23657 0.1561 0.45803 0.0
C345 C 0.21226 0.13462 0.43929 0.0
C346 C 0.22457 0.13564 0.42494 0.0
C347 C 0.24299 0.14692 0.4275 0.0
C348 C 0.21901 0.14499 0.45582 0.0
H349 H 0.26291 0.16603 0.44615 0.0
C350 C 0.28187 0.18938 0.47697 0.0
O351 O 0.30979 0.15626 0.51443 0.0
O352 O 0.29925 0.13738 0.48959 0.0
N353 N 0.21595 0.15417 0.48619 0.0
C354 C 0.20581 0.15469 0.50139 0.0
C355 C 0.18715 0.14401 0.50112 0.0
C356 C 0.17886 0.13336 0.48511 0.0
C357 C 0.18932 0.13348 0.46951 0.0
C358 C 0.20796 0.14419 0.47065 0.0
H359 H 0.21198 0.1631 0.51365 0.0
O360 O 0.26869 0.13489 0.51337 0.0
O361 O 0.25698 0.14899 0.48952 0.0
O362 O 0.27154 0.17754 0.51914 0.0
O363 O 0.24182 0.18338 0.50615 0.0
C364 C 0.18196 0.12348 0.45284 0.0
C365 C 0.19352 0.12383 0.43781 0.0
H366 H 0.22004 0.12783 0.41191 0.0
H367 H 0.2526 0.14776 0.41651 0.0
H368 H 0.17912 0.14409 0.51319 0.0
H369 H 0.16444 0.12518 0.48494 0.0
H370 H 0.16745 0.11539 0.45142 0.0
H371 H 0.18779 0.11584 0.42514 0.0
Mn372 Mn 0.41406 0.52196 0.7574 0.0
Mn373 Mn 0.42735 0.47493 0.7522 0.0
C374 C 0.39291 0.4974 0.74137 0.0
C375 C 0.39867 0.54698 0.77301 0.0
C376 C 0.44389 0.50797 0.73085 0.0
O377 O 0.43606 0.52156 0.77746 0.0
O378 O 0.44346 0.48969 0.77308 0.0
C379 C 0.41331 0.46042 0.78601 0.0
N380 N 0.41297 0.45875 0.76765 0.0
C381 C 0.38954 0.42997 0.76567 0.0
C382 C 0.38974 0.43131 0.78456 0.0
C383 C 0.40166 0.44663 0.79476 0.0
C384 C 0.40157 0.44405 0.75769 0.0
H385 H 0.42237 0.47222 0.79391 0.0
C386 C 0.44579 0.50693 0.7817 0.0
O387 O 0.41239 0.55113 0.7622 0.0
O388 O 0.39453 0.52839 0.7753 0.0
N389 N 0.41262 0.45899 0.73269 0.0
C390 C 0.41307 0.46056 0.71458 0.0
C391 C 0.40145 0.44673 0.70247 0.0
C392 C 0.38956 0.43141 0.70907 0.0
C393 C 0.38941 0.43004 0.72775 0.0
C394 C 0.40144 0.44414 0.73918 0.0
H395 H 0.42211 0.47235 0.70942 0.0
O396 O 0.39149 0.5159 0.73845 0.0
O397 O 0.40686 0.49387 0.75328 0.0
O398 O 0.4343 0.52163 0.73805 0.0
O399 O 0.44251 0.49014 0.73536 0.0
C400 C 0.37746 0.4155 0.73548 0.0
C401 C 0.37751 0.41547 0.75443 0.0
H402 H 0.38067 0.42079 0.79136 0.0
H403 H 0.40181 0.44783 0.80935 0.0
H404 H 0.40159 0.44793 0.68807 0.0
H405 H 0.38048 0.42088 0.69969 0.0
H406 H 0.36793 0.40448 0.72699 0.0
H407 H 0.36803 0.40442 0.76021 0.0
Mn408 Mn 0.76431 0.37765 0.51003 0.0
Mn409 Mn 0.75766 0.39604 0.46933 0.0
C410 C 0.74822 0.35784 0.48574 0.0
C411 C 0.78184 0.36126 0.53168 0.0
C412 C 0.73335 0.40683 0.5007 0.0
O413 O 0.78522 0.40123 0.51202 0.0
O414 O 0.77953 0.4119 0.48431 0.0
C415 C 0.79602 0.38744 0.45474 0.0
N416 N 0.77577 0.38569 0.45316 0.0
C417 C 0.77518 0.36797 0.42386 0.0
C418 C 0.79603 0.36963 0.42515 0.0
C419 C 0.80649 0.37935 0.44069 0.0
C420 C 0.76557 0.37632 0.43829 0.0
H421 H 0.80413 0.39494 0.46664 0.0
C422 C 0.7891 0.41301 0.49987 0.0
O423 O 0.76891 0.3736 0.53603 0.0
O424 O 0.78518 0.35891 0.5147 0.0
N425 N 0.73721 0.38188 0.45333 0.0
C426 C 0.71718 0.38052 0.45469 0.0
C427 C 0.70455 0.37126 0.44025 0.0
C428 C 0.71265 0.36354 0.4246 0.0
C429 C 0.73331 0.36468 0.42369 0.0
C430 C 0.74514 0.3744 0.43835 0.0
H431 H 0.71089 0.38669 0.4666 0.0
O432 O 0.7448 0.35438 0.5022 0.0
O433 O 0.76043 0.37324 0.48397 0.0
O434 O 0.74197 0.39625 0.51175 0.0
O435 O 0.73798 0.40772 0.48446 0.0
C436 C 0.74264 0.35654 0.40882 0.0
C437 C 0.76357 0.35807 0.40896 0.0
H438 H 0.80416 0.36337 0.41436 0.0
H439 H 0.82258 0.38064 0.44181 0.0
H440 H 0.6886 0.37027 0.44109 0.0
H441 H 0.70288 0.35678 0.41333 0.0
H442 H 0.73386 0.34886 0.39732 0.0
H443 H 0.77058 0.35149 0.39758 0.0
Mn444 Mn 0.6482 1.00224 0.75211 0.0
Mn445 Mn 0.63187 0.04819 0.75439 0.0
C446 C 0.66526 0.02737 0.73848 0.0
C447 C 0.66682 0.97835 0.7647 0.0
C448 C 0.6129 0.01416 0.72857 0.0
O449 O 0.62903 1.00129 0.77212 0.0
O450 O 0.6212 0.03297 0.7738 0.0
C451 C 0.65281 0.06395 0.78935 0.0
N452 N 0.64857 0.06559 0.77141 0.0
C453 C 0.66757 0.09721 0.77287 0.0
C454 C 0.67208 0.09594 0.79138 0.0
C455 C 0.66474 0.07919 0.79964 0.0
C456 C 0.65568 0.08154 0.76331 0.0
H457 H 0.64712 0.05114 0.79575 0.0
C458 C 0.62027 0.01554 0.77936 0.0
O459 O 0.65172 0.97336 0.7531 0.0
O460 O 0.67081 0.99716 0.76926 0.0
N461 N 0.64093 0.06497 0.73665 0.0
C462 C 0.63608 0.06339 0.7185 0.0
C463 C 0.64218 0.07895 0.70823 0.0
C464 C 0.65303 0.09601 0.71672 0.0
C465 C 0.65819 0.09713 0.73533 0.0
C466 C 0.65143 0.08131 0.74492 0.0
H467 H 0.62738 0.05048 0.71196 0.0
O468 O 0.66724 0.00884 0.73379 0.0
O469 O 0.65364 0.03076 0.75145 0.0
O470 O 0.62494 1.00135 0.73275 0.0
O471 O 0.61382 0.03172 0.73627 0.0
C472 C 0.66979 0.11331 0.74472 0.0
C473 C 0.6746 0.11328 0.76346 0.0
H474 H 0.68127 0.10765 0.79937 0.0
H475 H 0.66821 0.07806 0.81391 0.0
H476 H 0.63832 0.07792 0.69384 0.0
H477 H 0.65722 0.10823 0.70886 0.0
H478 H 0.67528 0.12574 0.73763 0.0
H479 H 0.68378 0.12566 0.7705 0.0
Mn480 Mn 0.0204 0.24813 0.87073 0.0
Mn481 Mn 0.9742 0.24347 0.88515 0.0
C482 C 0.99524 0.22854 0.85351 0.0
C483 C 0.04473 0.26419 0.85498 0.0
C484 C 0.0087 0.22264 0.90107 0.0
O485 O 0.02069 0.27155 0.88982 0.0
O486 O 0.98866 0.26831 0.89657 0.0
C487 C 0.95711 0.27759 0.86898 0.0
N488 N 0.95639 0.25777 0.87107 0.0
C489 C 0.92563 0.25185 0.85252 0.0
C490 C 0.92597 0.27222 0.85026 0.0
C491 C 0.94182 0.28513 0.85847 0.0
C492 C 0.94127 0.24521 0.86315 0.0
H493 H 0.96927 0.28755 0.87527 0.0
C494 C 0.00601 0.27758 0.89805 0.0
O495 O 0.04933 0.25323 0.86795 0.0
O496 O 0.02598 0.26641 0.85157 0.0
N497 N 0.95862 0.22015 0.87489 0.0
C498 C 0.96133 0.20079 0.87733 0.0
C499 C 0.94703 0.1859 0.86968 0.0
C500 C 0.93011 0.19109 0.8597 0.0
C501 C 0.92778 0.21108 0.85715 0.0
C502 C 0.94243 0.22528 0.86523 0.0
H503 H 0.97422 0.19675 0.88515 0.0
O504 O 0.01377 0.2257 0.85164 0.0
O505 O 0.99201 0.24269 0.86546 0.0
O506 O 0.02138 0.22867 0.89041 0.0
O507 O 0.99093 0.22778 0.90053 0.0
C508 C 0.91157 0.21748 0.84684 0.0
C509 C 0.91057 0.23784 0.84442 0.0
H510 H 0.91424 0.27809 0.84213 0.0
H511 H 0.94224 0.30086 0.85672 0.0
H512 H 0.94895 0.17048 0.8716 0.0
H513 H 0.91899 0.1796 0.85418 0.0
H514 H 0.89988 0.20687 0.84059 0.0
H515 H 0.89822 0.24254 0.83621 0.0
Mn516 Mn 0.52516 0.7522 0.37196 0.0
Mn517 Mn 0.48045 0.75192 0.38964 0.0
C518 C 0.49736 0.73591 0.3558 0.0
C519 C 0.54968 0.76631 0.35518 0.0
C520 C 0.51249 0.72592 0.40167 0.0
O521 O 0.52946 0.77505 0.39165 0.0
O522 O 0.49884 0.77368 0.40201 0.0
C523 C 0.46852 0.79008 0.37726 0.0
N524 N 0.46459 0.77019 0.3782 0.0
C525 C 0.4326 0.77063 0.36203 0.0
C526 C 0.43625 0.79114 0.36097 0.0
C527 C 0.45435 0.80087 0.3685 0.0
C528 C 0.44734 0.76064 0.37082 0.0
H529 H 0.48239 0.79762 0.38307 0.0
C530 C 0.51675 0.78129 0.40216 0.0
O531 O 0.55383 0.75415 0.36728 0.0
O532 O 0.53136 0.77072 0.35315 0.0
N533 N 0.46093 0.7318 0.37901 0.0
C534 C 0.46037 0.7118 0.38011 0.0
C535 C 0.44331 0.69982 0.37317 0.0
C536 C 0.42703 0.70855 0.36522 0.0
C537 C 0.42812 0.7291 0.36391 0.0
C538 C 0.44534 0.74032 0.3714 0.0
H539 H 0.47273 0.70509 0.38647 0.0
O540 O 0.5151 0.73114 0.35268 0.0
O541 O 0.49635 0.7501 0.36845 0.0
O542 O 0.52519 0.73175 0.39092 0.0
O543 O 0.49535 0.73249 0.40228 0.0
C544 C 0.41283 0.73889 0.35544 0.0
C545 C 0.41513 0.75963 0.35438 0.0
H546 H 0.42536 0.79952 0.35421 0.0
H547 H 0.45738 0.81663 0.36751 0.0
H548 H 0.44261 0.68394 0.37413 0.0
H549 H 0.41373 0.69936 0.36022 0.0
H550 H 0.39937 0.73057 0.34946 0.0
H551 H 0.40344 0.76694 0.34754 0.0
Mn552 Mn 0.02487 0.76076 0.63039 0.0
Mn553 Mn 1.00302 0.71939 0.64571 0.0
C554 C 0.02539 0.7304 0.61395 0.0
C555 C 0.02409 0.78911 0.61445 0.0
C556 C 0.04377 0.73739 0.66001 0.0
O557 O 0.00752 0.77218 0.64933 0.0
O558 O 0.99432 0.74355 0.65849 0.0
C559 C 0.96193 0.7248 0.63164 0.0
N560 N 0.97755 0.71332 0.63295 0.0
C561 C 0.95875 0.68584 0.61574 0.0
C562 C 0.9424 0.69731 0.61427 0.0
C563 C 0.94404 0.71691 0.62219 0.0
C564 C 0.97623 0.69456 0.6252 0.0
H565 H 0.96311 0.73983 0.63779 0.0
C566 C 0.99648 0.7625 0.65938 0.0
O567 O 0.0375 0.78767 0.62749 0.0
O568 O 0.01073 0.77426 0.61094 0.0
N569 N 0.00965 0.69449 0.63501 0.0
C570 C 0.02695 0.68561 0.63733 0.0
C571 C 0.02771 0.66581 0.63061 0.0
C572 C 0.01065 0.65533 0.62171 0.0
C573 C 0.99311 0.66484 0.61928 0.0
C574 C 0.99313 0.68447 0.62657 0.0
H575 H 0.03996 0.69348 0.64452 0.0
O576 O 0.0382 0.7451 0.61178 0.0
O577 O 0.01211 0.73395 0.62543 0.0
O578 O 0.04417 0.75206 0.65022 0.0
O579 O 0.02915 0.72423 0.65936 0.0
C580 C 0.97557 0.65558 0.61002 0.0
C581 C 0.95845 0.66614 0.60811 0.0
H582 H 0.92856 0.69126 0.60704 0.0
H583 H 0.93151 0.72589 0.62107 0.0
H584 H 0.0413 0.65855 0.6326 0.0
H585 H 0.01103 0.63989 0.61706 0.0
H586 H 0.97514 0.64042 0.60417 0.0
H587 H 0.94512 0.65896 0.60077 0.0
Mn588 Mn 0.5216 0.26079 0.12927 0.0
Mn589 Mn 0.49727 0.21947 0.1421 0.0
C590 C 0.52069 0.23124 0.11134 0.0
C591 C 0.52173 0.29017 0.11478 0.0
C592 C 0.53773 0.23655 0.15895 0.0
O593 O 0.50465 0.27141 0.14902 0.0
O594 O 0.4861 0.24325 0.15336 0.0
C595 C 0.45748 0.22298 0.12398 0.0
N596 N 0.47356 0.21238 0.1268 0.0
C597 C 0.45822 0.18465 0.10737 0.0
C598 C 0.4414 0.19519 0.1044 0.0
C599 C 0.44108 0.21449 0.11266 0.0
C600 C 0.47416 0.19395 0.11869 0.0
H601 H 0.4572 0.2378 0.1303 0.0
C602 C 0.49044 0.26201 0.15609 0.0
O603 O 0.53513 0.28762 0.12755 0.0
O604 O 0.50784 0.2759 0.11084 0.0
N605 N 0.5064 0.19528 0.13207 0.0
C606 C 0.52411 0.18749 0.13564 0.0
C607 C 0.5271 0.16849 0.12795 0.0
C608 C 0.51176 0.15757 0.11692 0.0
C609 C 0.49358 0.16579 0.11365 0.0
C610 C 0.4915 0.18483 0.12159 0.0
H611 H 0.53589 0.19569 0.14427 0.0
O612 O 0.53412 0.24554 0.10959 0.0
O613 O 0.50793 0.23485 0.12318 0.0
O614 O 0.54031 0.25015 0.14824 0.0
O615 O 0.52175 0.22511 0.15852 0.0
C616 C 0.47746 0.15587 0.10278 0.0
C617 C 0.45987 0.16535 0.09947 0.0
H618 H 0.42871 0.18867 0.09571 0.0
H619 H 0.42821 0.22276 0.11035 0.0
H620 H 0.54116 0.16224 0.13057 0.0
H621 H 0.51411 0.14293 0.11099 0.0
H622 H 0.47855 0.14102 0.09671 0.0
H623 H 0.44774 0.1577 0.09078 0.0
H624 H 0.27149 0.73447 0.85579 0.0
H625 H 0.26987 0.75749 0.88246 0.0
H626 H 0.20883 0.73583 0.88668 0.0
H627 H 0.21032 0.71301 0.85982 0.0
H628 H 0.21169 0.77437 0.88941 0.0
H629 H 0.24708 0.72562 0.91767 0.0
H630 H 0.27323 0.70259 0.92177 0.0
H631 H 0.31794 0.75157 0.92716 0.0
H632 H 0.29208 0.77489 0.92283 0.0
H633 H 0.21402 0.83693 0.97446 0.0
H634 H 0.20924 0.80883 0.95143 0.0
H635 H 0.26871 0.8221 0.93576 0.0
H636 H 0.27413 0.84852 0.96001 0.0
H637 H 0.26238 0.7843 0.94128 0.0
H638 H 0.2219 0.82181 0.89135 0.0
H639 H 0.19451 0.84275 0.88418 0.0
H640 H 0.15884 0.81334 0.92126 0.0
H641 H 0.18582 0.79184 0.92809 0.0
C642 C 0.25785 0.73438 0.86261 0.0
C643 C 0.24102 0.72199 0.8557 0.0
C644 C 0.25693 0.74752 0.87788 0.0
C645 C 0.23926 0.7483 0.88672 0.0
C646 C 0.22261 0.73554 0.88009 0.0
C647 C 0.22347 0.72253 0.86474 0.0
C648 C 0.2378 0.76334 0.90208 0.0
C649 C 0.2226 0.77627 0.90093 0.0
C650 C 0.25202 0.76597 0.91709 0.0
C651 C 0.26763 0.752 0.9198 0.0
C652 C 0.2625 0.73148 0.91961 0.0
C653 C 0.27727 0.71837 0.92199 0.0
C654 C 0.29723 0.7256 0.92469 0.0
C655 C 0.30247 0.74598 0.92506 0.0
C656 C 0.28775 0.75916 0.92267 0.0
C657 C 0.22584 0.83405 0.96576 0.0
C658 C 0.24412 0.84554 0.9684 0.0
C659 C 0.22301 0.81815 0.9524 0.0
C660 C 0.23833 0.81368 0.94128 0.0
C661 C 0.2565 0.82539 0.94388 0.0
C662 C 0.25948 0.84079 0.95753 0.0
C663 C 0.23664 0.7957 0.92831 0.0
C664 C 0.25131 0.78216 0.92991 0.0
C665 C 0.2218 0.79231 0.91384 0.0
C666 C 0.20612 0.80592 0.9108 0.0
C667 C 0.20831 0.8201 0.89815 0.0
C668 C 0.19277 0.83183 0.89396 0.0
C669 C 0.17504 0.82957 0.90245 0.0
C670 C 0.17267 0.81528 0.91488 0.0
C671 C 0.18805 0.80327 0.91886 0.0
H672 H 0.16308 0.83877 0.89928 0.0
H673 H 0.30865 0.71543 0.92653 0.0
H674 H 0.02891 0.54243 0.41969 0.0
H675 H 0.04606 0.53882 0.39203 0.0
H676 H 0.02567 0.47667 0.38496 0.0
H677 H 0.00854 0.48017 0.41293 0.0
H678 H 0.0649 0.48298 0.37809 0.0
H679 H 1.0035 0.50864 0.35957 0.0
H680 H 0.97679 0.53139 0.36101 0.0
H681 H 0.01838 0.58046 0.35307 0.0
H682 H 0.04541 0.55805 0.35184 0.0
H683 H 0.09976 0.47891 0.28845 0.0
H684 H 0.07905 0.47541 0.31401 0.0
H685 H 0.08852 0.53849 0.32823 0.0
H686 H 0.1085 0.54217 0.30268 0.0
H687 H 0.05115 0.52734 0.32951 0.0
H688 H 0.1131 0.5024 0.35137 0.0
H689 H 0.14 0.47984 0.34992 0.0
H690 H 0.09758 0.42967 0.3515 0.0
H691 H 0.07039 0.45193 0.35273 0.0
C692 C 0.02805 0.52798 0.4123 0.0
C693 C 0.01729 0.51156 0.41843 0.0
C694 C 0.03783 0.52594 0.39643 0.0
C695 C 0.03694 0.50752 0.38629 0.0
C696 C 0.0265 0.49102 0.39255 0.0
C697 C 0.01669 0.49305 0.40846 0.0
C698 C 0.04685 0.50572 0.36912 0.0
C699 C 0.06168 0.49244 0.36732 0.0
C700 C 0.04277 0.51816 0.35513 0.0
C701 C 0.02651 0.53167 0.35573 0.0
C702 C 0.00698 0.5243 0.35825 0.0
C703 C 0.99177 0.53713 0.35901 0.0
C704 C 0.99589 0.55736 0.35716 0.0
C705 C 0.01521 0.56479 0.35451 0.0
C706 C 0.03048 0.55203 0.35375 0.0
C707 C 0.09744 0.492 0.29708 0.0
C708 C 0.10573 0.51082 0.29344 0.0
C709 C 0.08565 0.48998 0.31171 0.0
C710 C 0.08227 0.50669 0.32313 0.0
C711 C 0.09075 0.52539 0.31958 0.0
C712 C 0.10225 0.52745 0.30492 0.0
C713 C 0.06976 0.50514 0.33871 0.0
C714 C 0.05429 0.51773 0.34018 0.0
C715 C 0.07333 0.49212 0.35238 0.0
C716 C 0.0897 0.4788 0.35193 0.0
C717 C 0.10951 0.48655 0.3513 0.0
C718 C 0.1248 0.47382 0.35053 0.0
C719 C 0.12049 0.45333 0.35055 0.0
C720 C 0.10089 0.44554 0.35144 0.0
C721 C 0.08554 0.4582 0.35219 0.0
H722 H 0.13233 0.4435 0.34989 0.0
H723 H 0.9841 0.56727 0.35776 0.0
H724 H 0.78832 0.79223 0.8435 0.0
H725 H 0.78698 0.77132 0.86884 0.0
H726 H 0.84998 0.78459 0.88161 0.0
H727 H 0.85133 0.80594 0.8566 0.0
H728 H 0.80462 0.73825 0.87602 0.0
H729 H 0.85895 0.78601 0.92793 0.0
H730 H 0.87146 0.82108 0.93505 0.0
H731 H 0.81738 0.83981 0.91062 0.0
H732 H 0.80446 0.80487 0.90358 0.0
H733 H 0.81662 0.68289 0.95305 0.0
H734 H 0.82797 0.70458 0.9301 0.0
H735 H 0.78938 0.74847 0.94848 0.0
H736 H 0.77785 0.72683 0.97107 0.0
H737 H 0.82572 0.76551 0.93872 0.0
H738 H 0.77168 0.71757 0.91506 0.0
H739 H 0.75528 0.68385 0.90827 0.0
H740 H 0.80332 0.66764 0.87685 0.0
H741 H 0.82002 0.70134 0.88353 0.0
C742 C 0.80186 0.79083 0.85179 0.0
C743 C 0.81992 0.80082 0.84804 0.0
C744 C 0.80111 0.77872 0.86617 0.0
C745 C 0.81836 0.77645 0.8772 0.0
C746 C 0.83645 0.78623 0.87339 0.0
C747 C 0.83722 0.79832 0.859 0.0
C748 C 0.81725 0.76405 0.8928 0.0
C749 C 0.80944 0.7442 0.88968 0.0
C750 C 0.82335 0.77177 0.91071 0.0
C751 C 0.83086 0.79283 0.91504 0.0
C752 C 0.84972 0.79762 0.92413 0.0
C753 C 0.85688 0.81748 0.92814 0.0
C754 C 0.84525 0.83266 0.92323 0.0
C755 C 0.82641 0.82803 0.91435 0.0
C756 C 0.81917 0.80821 0.91032 0.0
C757 C 0.81108 0.69743 0.95251 0.0
C758 C 0.79639 0.70323 0.96378 0.0
C759 C 0.81745 0.70974 0.93935 0.0
C760 C 0.8094 0.72808 0.93752 0.0
C761 C 0.79583 0.73443 0.94968 0.0
C762 C 0.78924 0.72205 0.96256 0.0
C763 C 0.81322 0.73977 0.92186 0.0
C764 C 0.82142 0.75948 0.92498 0.0
C765 C 0.80714 0.73207 0.90399 0.0
C766 C 0.79719 0.71185 0.89996 0.0
C767 C 0.77881 0.70675 0.90682 0.0
C768 C 0.76945 0.68766 0.90297 0.0
C769 C 0.7783 0.67355 0.89221 0.0
C770 C 0.7965 0.67856 0.88522 0.0
C771 C 0.80591 0.69766 0.889 0.0
H772 H 0.77103 0.65878 0.88923 0.0
H773 H 0.85083 0.84802 0.92634 0.0
H774 H 0.03848 0.96468 0.42435 0.0
H775 H 0.02132 0.97093 0.39546 0.0
H776 H 0.01684 0.03179 0.41508 0.0
H777 H 0.03434 0.02571 0.4439 0.0
H778 H 0.98049 0.01068 0.39588 0.0
H779 H 0.04983 0.02662 0.38934 0.0
H780 H 0.08534 0.02047 0.39112 0.0
H781 H 0.0727 0.96918 0.35343 0.0
H782 H 0.03703 0.97484 0.35167 0.0
H783 H 0.94906 0.03935 0.30903 0.0
H784 H 0.96826 0.03984 0.33822 0.0
H785 H 0.98774 0.98226 0.32279 0.0
H786 H 0.96899 0.98175 0.29366 0.0
H787 H 0.0175 0.00532 0.34067 0.0
H788 H 0.94864 0.98719 0.34875 0.0
H789 H 0.91276 0.99176 0.34719 0.0
H790 H 0.92397 0.04547 0.38202 0.0
H791 H 0.95998 0.04136 0.38357 0.0
C792 C 0.03361 0.97931 0.42256 0.0
C793 C 0.03772 0.99472 0.43631 0.0
C794 C 0.02392 0.98289 0.40606 0.0
C795 C 0.01792 1.00184 0.40314 0.0
C796 C 0.02136 0.01708 0.41709 0.0
C797 C 0.03138 0.01361 0.43347 0.0
C798 C 0.00868 0.00583 0.38529 0.0
C799 C 0.98863 0.00987 0.38383 0.0
C800 C 0.01927 0.00442 0.36959 0.0
C801 C 0.04073 1.00104 0.37051 0.0
C802 C 0.05459 0.01392 0.38156 0.0
C803 C 0.07475 0.01055 0.38254 0.0
C804 C 0.08127 0.99442 0.37242 0.0
C805 C 0.06763 0.98166 0.36127 0.0
C806 C 0.04744 0.98495 0.36027 0.0
C807 C 0.95769 0.02694 0.31173 0.0
C808 C 0.95731 0.01045 0.299 0.0
C809 C 0.96857 0.02719 0.32848 0.0
C810 C 0.97921 0.01094 0.33281 0.0
C811 C 0.97962 0.99494 0.31979 0.0
C812 C 0.96878 0.99467 0.30313 0.0
C813 C 0.98915 0.00995 0.35113 0.0
C814 C 0.00936 0.00642 0.35271 0.0
C815 C 0.97864 0.01166 0.36692 0.0
C816 C 0.95701 0.0141 0.3661 0.0
C817 C 0.94346 1.00006 0.35596 0.0
C818 C 0.9231 1.00255 0.35509 0.0
C819 C 0.91609 0.01893 0.36445 0.0
C820 C 0.92943 0.03282 0.37475 0.0
C821 C 0.94981 0.03041 0.37563 0.0
H822 H 0.90032 0.02084 0.36377 0.0
H823 H 0.09688 0.99183 0.37319 0.0
H824 H 0.21727 0.26959 0.67442 0.0
H825 H 0.22021 0.24829 0.64692 0.0
H826 H 0.24204 0.29918 0.62046 0.0
H827 H 0.23774 0.32068 0.6473 0.0
H828 H 0.21946 0.27727 0.5975 0.0
H829 H 0.27338 0.26491 0.63913 0.0
H830 H 0.28932 0.25584 0.6678 0.0
H831 H 0.25739 0.19825 0.66025 0.0
H832 H 0.24106 0.20708 0.63163 0.0
H833 H 0.28236 0.20175 0.54645 0.0
H834 H 0.27639 0.22272 0.5733 0.0
H835 H 0.21382 0.21916 0.55637 0.0
H836 H 0.2198 0.19879 0.52913 0.0
H837 H 0.25686 0.21735 0.601 0.0
H838 H 0.19329 0.26067 0.57089 0.0
H839 H 0.18221 0.27283 0.54175 0.0
H840 H 0.24191 0.27389 0.52542 0.0
H841 H 0.25337 0.26199 0.55454 0.0
C842 C 0.22236 0.27632 0.66266 0.0
C843 C 0.2275 0.29689 0.66324 0.0
C844 C 0.2243 0.26405 0.64698 0.0
C845 C 0.23175 0.27202 0.63167 0.0
C846 C 0.23636 0.29259 0.63208 0.0
C847 C 0.23415 0.30487 0.6476 0.0
C848 C 0.23508 0.25904 0.61526 0.0
C849 C 0.22758 0.26413 0.59831 0.0
C850 C 0.24606 0.2421 0.61615 0.0
C851 C 0.25585 0.23674 0.63334 0.0
C852 C 0.26965 0.25037 0.64365 0.0
C853 C 0.27877 0.24526 0.65988 0.0
C854 C 0.27433 0.2265 0.66587 0.0
C855 C 0.26079 0.21279 0.65561 0.0
C856 C 0.25161 0.21783 0.63938 0.0
C857 C 0.26732 0.20548 0.54838 0.0
C858 C 0.25158 0.19864 0.53555 0.0
C859 C 0.26392 0.21743 0.56381 0.0
C860 C 0.24468 0.22272 0.56685 0.0
C861 C 0.22887 0.21566 0.5542 0.0
C862 C 0.23231 0.20393 0.53862 0.0
C863 C 0.24123 0.23559 0.58327 0.0
C864 C 0.24864 0.23043 0.60022 0.0
C865 C 0.23085 0.25291 0.58231 0.0
C866 C 0.22412 0.26022 0.56482 0.0
C867 C 0.20405 0.26356 0.5611 0.0
C868 C 0.19771 0.2704 0.54459 0.0
C869 C 0.21133 0.27406 0.53172 0.0
C870 C 0.23135 0.27097 0.53537 0.0
C871 C 0.23777 0.26415 0.55186 0.0
H872 H 0.20639 0.27934 0.51894 0.0
H873 H 0.28141 0.22257 0.67844 0.0
H874 H 0.54077 0.50555 0.58878 0.0
H875 H 0.52278 0.50171 0.61571 0.0
H876 H 0.52242 0.5653 0.62448 0.0
H877 H 0.54141 0.56933 0.59804 0.0
H878 H 0.53005 0.55035 0.65554 0.0
H879 H 0.48058 0.53556 0.60656 0.0
H880 H 0.46545 0.5191 0.57767 0.0
H881 H 0.46585 0.46242 0.59977 0.0
H882 H 0.48123 0.47851 0.62873 0.0
H883 H 0.45377 0.54438 0.71835 0.0
H884 H 0.47283 0.55126 0.6924 0.0
H885 H 0.48125 0.489 0.68325 0.0
H886 H 0.46233 0.48194 0.70903 0.0
H887 H 0.46847 0.50513 0.65226 0.0
H888 H 0.51896 0.52094 0.70132 0.0
H889 H 0.53333 0.5383 0.7301 0.0
H890 H 0.52965 0.59446 0.70751 0.0
H891 H 0.51499 0.57743 0.67866 0.0
C892 C 0.53713 0.51877 0.59653 0.0
C893 C 0.54258 0.53777 0.59115 0.0
C894 C 0.52658 0.51653 0.61184 0.0
C895 C 0.52092 0.5332 0.62201 0.0
C896 C 0.52651 0.5522 0.61683 0.0
C897 C 0.5372 0.55447 0.60157 0.0
C898 C 0.50922 0.53074 0.63805 0.0
C899 C 0.51642 0.5407 0.65474 0.0
C900 C 0.49154 0.51797 0.63715 0.0
C901 C 0.48222 0.50823 0.61977 0.0
C902 C 0.47757 0.51957 0.60522 0.0
C903 C 0.46893 0.51031 0.58884 0.0
C904 C 0.46474 0.48972 0.58687 0.0
C905 C 0.46913 0.47836 0.60131 0.0
C906 C 0.47779 0.48755 0.61771 0.0
C907 C 0.4598 0.53215 0.71091 0.0
C908 C 0.45647 0.51259 0.71585 0.0
C909 C 0.47073 0.53613 0.69609 0.0
C910 C 0.47851 0.52064 0.68591 0.0
C911 C 0.47536 0.50117 0.69089 0.0
C912 C 0.46459 0.4972 0.70573 0.0
C913 C 0.48945 0.5245 0.66972 0.0
C914 C 0.48206 0.51485 0.653 0.0
C915 C 0.50681 0.53769 0.67058 0.0
C916 C 0.51567 0.54792 0.6879 0.0
C917 C 0.52105 0.537 0.70254 0.0
C918 C 0.52928 0.54677 0.71886 0.0
C919 C 0.53235 0.56747 0.72065 0.0
C920 C 0.52724 0.57843 0.70611 0.0
C921 C 0.51898 0.56872 0.68977 0.0
H922 H 0.53872 0.57501 0.73329 0.0
H923 H 0.45804 0.48258 0.57418 0.0
H924 H 0.85613 0.26694 0.662 0.0
H925 H 0.84784 0.28975 0.63914 0.0
H926 H 0.80672 0.24416 0.61088 0.0
H927 H 0.81473 0.22143 0.63384 0.0
H928 H 0.851 0.28936 0.60354 0.0
H929 H 0.76686 0.26571 0.59295 0.0
H930 H 0.73989 0.25131 0.60981 0.0
H931 H 0.77098 0.27522 0.65988 0.0
H932 H 0.79799 0.28997 0.64331 0.0
H933 H 0.80611 0.33104 0.52635 0.0
H934 H 0.81806 0.30913 0.54873 0.0
H935 H 0.79006 0.34246 0.59014 0.0
H936 H 0.77791 0.36418 0.5679 0.0
H937 H 0.7808 0.30394 0.5913 0.0
H938 H 0.84046 0.34614 0.58844 0.0
H939 H 0.86773 0.36299 0.57359 0.0
H940 H 0.8862 0.30657 0.5541 0.0
H941 H 0.85886 0.28937 0.56863 0.0
C942 C 0.84536 0.2618 0.65087 0.0
C943 C 0.83597 0.2425 0.64978 0.0
C944 C 0.8407 0.2748 0.63779 0.0
C945 C 0.82652 0.26874 0.62339 0.0
C946 C 0.81749 0.24926 0.62201 0.0
C947 C 0.82212 0.23627 0.63513 0.0
C948 C 0.82079 0.28301 0.61014 0.0
C949 C 0.83565 0.29251 0.60081 0.0
C950 C 0.8008 0.28737 0.60678 0.0
C951 C 0.78454 0.27874 0.61688 0.0
C952 C 0.7679 0.26793 0.60755 0.0
C953 C 0.75261 0.25971 0.61706 0.0
C954 C 0.75375 0.26229 0.63591 0.0
C955 C 0.77015 0.27316 0.64528 0.0
C956 C 0.78547 0.28144 0.63584 0.0
C957 C 0.80273 0.33385 0.54028 0.0
C958 C 0.79103 0.34932 0.54535 0.0
C959 C 0.80958 0.32133 0.55305 0.0
C960 C 0.80495 0.32415 0.57113 0.0
C961 C 0.79372 0.33993 0.57627 0.0
C962 C 0.78686 0.35239 0.56353 0.0
C963 C 0.81099 0.31023 0.58459 0.0
C964 C 0.79615 0.30074 0.59393 0.0
C965 C 0.83103 0.30618 0.58819 0.0
C966 C 0.84749 0.31648 0.57947 0.0
C967 C 0.85024 0.33733 0.58086 0.0
C968 C 0.86572 0.34694 0.57253 0.0
C969 C 0.87866 0.33586 0.56287 0.0
C970 C 0.87616 0.31513 0.56156 0.0
C971 C 0.86068 0.30545 0.56986 0.0
H972 H 0.89064 0.34333 0.55643 0.0
H973 H 0.74191 0.2559 0.64324 0.0
H974 H 0.52921 0.98956 0.56837 0.0
H975 H 0.54822 0.99083 0.59757 0.0
H976 H 0.4996 0.0153 0.62367 0.0
H977 H 0.48005 0.01334 0.59459 0.0
H978 H 0.53837 0.035 0.63453 0.0
H979 H 0.50495 0.96904 0.62733 0.0
H980 H 0.49533 0.93636 0.61097 0.0
H981 H 0.55675 0.92452 0.61036 0.0
H982 H 0.56677 0.95727 0.62649 0.0
H983 H 0.5764 0.0282 0.72351 0.0
H984 H 0.55397 0.02398 0.69611 0.0
H985 H 0.59425 0.98629 0.67049 0.0
H986 H 0.61622 0.98966 0.69826 0.0
H987 H 0.55863 0.97303 0.65935 0.0
H988 H 0.59325 0.03767 0.66386 0.0
H989 H 0.60517 0.07075 0.67829 0.0
H990 H 0.54494 0.08568 0.68185 0.0
H991 H 0.53263 0.0526 0.66753 0.0
C992 C 0.52241 0.99503 0.5803 0.0
C993 C 0.50295 1.00114 0.57908 0.0
C994 C 0.53337 0.99584 0.59698 0.0
C995 C 0.52523 1.00295 0.61278 0.0
C996 C 0.50613 0.00973 0.61161 0.0
C997 C 0.49503 0.00871 0.59494 0.0
C998 C 0.53664 0.00314 0.63053 0.0
C999 C 0.54255 0.02146 0.64013 0.0
C1000 C 0.54263 0.98549 0.63748 0.0
C1001 C 0.53661 0.96569 0.62798 0.0
C1002 C 0.51642 0.95953 0.62359 0.0
C1003 C 0.51089 0.94098 0.61438 0.0
C1004 C 0.52542 0.92839 0.60959 0.0
C1005 C 0.54551 0.9343 0.61406 0.0
C1006 C 0.55112 0.95284 0.62326 0.0
C1007 C 0.58029 0.01874 0.71212 0.0
C1008 C 0.59811 0.00934 0.71298 0.0
C1009 C 0.56755 0.01647 0.6964 0.0
C1010 C 0.57266 0.00529 0.68098 0.0
C1011 C 0.58999 0.99509 0.68213 0.0
C1012 C 0.60253 0.99699 0.69803 0.0
C1013 C 0.56044 0.00496 0.6635 0.0
C1014 C 0.55441 0.98662 0.65388 0.0
C1015 C 0.55469 0.02264 0.65631 0.0
C1016 C 0.56202 0.0426 0.66479 0.0
C1017 C 0.58254 0.04797 0.66782 0.0
C1018 C 0.58937 0.06672 0.67598 0.0
C1019 C 0.57583 0.08028 0.68107 0.0
C1020 C 0.55542 0.07515 0.67793 0.0
C1021 C 0.5485 0.05641 0.66977 0.0
H1022 H 0.58116 0.09478 0.6874 0.0
H1023 H 0.52112 0.91404 0.60245 0.0
H1024 H 0.86827 0.21905 0.72233 0.0
H1025 H 0.89515 0.22271 0.74626 0.0
H1026 H 0.90252 0.16001 0.73871 0.0
H1027 H 0.87532 0.15624 0.71492 0.0
H1028 H 0.90151 0.17031 0.77281 0.0
H1029 H 0.93771 0.19593 0.72603 0.0
H1030 H 0.94444 0.21674 0.70103 0.0
H1031 H 0.94448 0.26935 0.73697 0.0
H1032 H 0.93746 0.24888 0.76213 0.0
H1033 H 0.9903 0.19075 0.83743 0.0
H1034 H 0.96824 0.17878 0.81072 0.0
H1035 H 0.94401 0.23581 0.81073 0.0
H1036 H 0.96757 0.24832 0.83603 0.0
H1037 H 0.957 0.22303 0.77836 0.0
H1038 H 0.89492 0.18607 0.81051 0.0
H1039 H 0.88442 0.16222 0.83216 0.0
H1040 H 0.93529 0.12975 0.82266 0.0
H1041 H 0.94537 0.15279 0.80023 0.0
C1042 C 0.87586 0.20611 0.72555 0.0
C1043 C 0.86972 0.18736 0.71675 0.0
C1044 C 0.89127 0.20822 0.73921 0.0
C1045 C 0.90108 0.19168 0.74416 0.0
C1046 C 0.89521 0.17299 0.73513 0.0
C1047 C 0.87966 0.17085 0.72157 0.0
C1048 C 0.91645 0.19371 0.75959 0.0
C1049 C 0.91387 0.18162 0.77386 0.0
C1050 C 0.93257 0.20845 0.76103 0.0
C1051 C 0.93694 0.22085 0.74596 0.0
C1052 C 0.93903 0.21194 0.72858 0.0
C1053 C 0.94291 0.22368 0.71438 0.0
C1054 C 0.94486 0.24436 0.7174 0.0
C1055 C 0.94297 0.25333 0.73465 0.0
C1056 C 0.93907 0.24167 0.74889 0.0
C1057 C 0.97989 0.20051 0.83193 0.0
C1058 C 0.97991 0.22019 0.83933 0.0
C1059 C 0.967 0.19354 0.81684 0.0
C1060 C 0.9537 0.20605 0.80912 0.0
C1061 C 0.95373 0.22567 0.81667 0.0
C1062 C 0.96699 0.23277 0.83133 0.0
C1063 C 0.94169 0.20002 0.79182 0.0
C1064 C 0.94486 0.21147 0.77715 0.0
C1065 C 0.92627 0.18451 0.7899 0.0
C1066 C 0.92152 0.17179 0.80452 0.0
C1067 C 0.90404 0.17404 0.81332 0.0
C1068 C 0.89793 0.16044 0.82544 0.0
C1069 C 0.90934 0.14464 0.82899 0.0
C1070 C 0.92666 0.1422 0.82015 0.0
C1071 C 0.93255 0.15552 0.80771 0.0
H1072 H 0.90468 0.13421 0.83848 0.0
H1073 H 0.94786 0.25342 0.70639 0.0
H1074 H 0.49961 0.9077 0.5312 0.0
H1075 H 0.50916 0.88231 0.50911 0.0
H1076 H 0.50025 0.9215 0.46674 0.0
H1077 H 0.49023 0.94681 0.4888 0.0
H1078 H 0.48449 0.88557 0.45593 0.0
H1079 H 0.54745 0.91213 0.48307 0.0
H1080 H 0.57284 0.92346 0.50779 0.0
H1081 H 0.57145 0.86456 0.52547 0.0
H1082 H 0.54582 0.85292 0.50101 0.0
H1083 H 0.52649 0.81875 0.39345 0.0
H1084 H 0.52665 0.84928 0.41357 0.0
H1085 H 0.51803 0.81412 0.45873 0.0
H1086 H 0.51719 0.78369 0.43855 0.0
H1087 H 0.5458 0.85075 0.46581 0.0
H1088 H 0.47967 0.82608 0.44024 0.0
H1089 H 0.45423 0.81545 0.41538 0.0
H1090 H 0.46251 0.87242 0.39418 0.0
H1091 H 0.48837 0.88323 0.4187 0.0
C1092 C 0.4997 0.91088 0.51716 0.0
C1093 C 0.49417 0.92918 0.51172 0.0
C1094 C 0.50532 0.89643 0.50457 0.0
C1095 C 0.50578 0.9001 0.48628 0.0
C1096 C 0.50011 0.91837 0.48078 0.0
C1097 C 0.49438 0.93281 0.4934 0.0
C1098 C 0.51146 0.88452 0.4729 0.0
C1099 C 0.49812 0.87829 0.45791 0.0
C1100 C 0.52913 0.87478 0.47555 0.0
C1101 C 0.54459 0.88169 0.49028 0.0
C1102 C 0.55244 0.90162 0.49231 0.0
C1103 C 0.5669 0.90809 0.50626 0.0
C1104 C 0.57373 0.89475 0.51821 0.0
C1105 C 0.56614 0.87488 0.51621 0.0
C1106 C 0.55166 0.86833 0.50229 0.0
C1107 C 0.52533 0.81764 0.40779 0.0
C1108 C 0.52206 0.79902 0.4146 0.0
C1109 C 0.52529 0.83501 0.41921 0.0
C1110 C 0.5223 0.83388 0.43759 0.0
C1111 C 0.52048 0.81526 0.4446 0.0
C1112 C 0.52004 0.79793 0.43313 0.0
C1113 C 0.51873 0.85183 0.44912 0.0
C1114 C 0.5324 0.85839 0.46374 0.0
C1115 C 0.50146 0.86199 0.44606 0.0
C1116 C 0.48616 0.85536 0.43116 0.0
C1117 C 0.47629 0.83624 0.43014 0.0
C1118 C 0.46174 0.8302 0.41614 0.0
C1119 C 0.45676 0.84325 0.40322 0.0
C1120 C 0.4664 0.86232 0.4042 0.0
C1121 C 0.48102 0.8684 0.41812 0.0
H1122 H 0.44536 0.83864 0.3925 0.0
H1123 H 0.58492 0.89979 0.529 0.0
H1124 H 0.19151 0.33709 0.77189 0.0
H1125 H 0.16542 0.32823 0.7917 0.0
H1126 H 0.13419 0.29015 0.74813 0.0
H1127 H 0.16041 0.29885 0.72828 0.0
H1128 H 0.12629 0.33252 0.79083 0.0
H1129 H 0.11242 0.24954 0.76613 0.0
H1130 H 0.13029 0.22271 0.75205 0.0
H1131 H 0.18595 0.25152 0.7752 0.0
H1132 H 0.16839 0.27837 0.7896 0.0
H1133 H 0.0397 0.28783 0.82702 0.0
H1134 H 0.06475 0.29926 0.80707 0.0
H1135 H 0.10935 0.27061 0.83745 0.0
H1136 H 0.08444 0.25909 0.85737 0.0
H1137 H 0.11064 0.26188 0.80157 0.0
H1138 H 0.10871 0.32016 0.8419 0.0
H1139 H 0.09267 0.34694 0.85813 0.0
H1140 H 0.07232 0.36788 0.80765 0.0
H1141 H 0.08798 0.34103 0.79111 0.0
C1142 C 0.17903 0.32688 0.76653 0.0
C1143 C 0.17806 0.31858 0.7486 0.0
C1144 C 0.1641 0.32189 0.77783 0.0
C1145 C 0.14791 0.30841 0.77147 0.0
C1146 C 0.14666 0.30041 0.75341 0.0
C1147 C 0.16163 0.30542 0.74206 0.0
C1148 C 0.13275 0.30235 0.78396 0.0
C1149 C 0.12279 0.31707 0.79311 0.0
C1150 C 0.12839 0.28222 0.78719 0.0
C1151 C 0.1391 0.26606 0.77876 0.0
C1152 C 0.12846 0.25011 0.76825 0.0
C1153 C 0.13854 0.2349 0.76021 0.0
C1154 C 0.15925 0.23545 0.76267 0.0
C1155 C 0.16992 0.25116 0.77324 0.0
C1156 C 0.15992 0.26638 0.78132 0.0
C1157 C 0.05489 0.28413 0.82956 0.0
C1158 C 0.06008 0.27256 0.84379 0.0
C1159 C 0.06919 0.29068 0.81815 0.0
C1160 C 0.08894 0.2858 0.82077 0.0
C1161 C 0.09419 0.27449 0.83513 0.0
C1162 C 0.07994 0.268 0.84657 0.0
C1163 C 0.10406 0.29203 0.80833 0.0
C1164 C 0.114 0.27733 0.79918 0.0
C1165 C 0.10864 0.31219 0.80535 0.0
C1166 C 0.09935 0.32845 0.81526 0.0
C1167 C 0.10068 0.33038 0.83426 0.0
C1168 C 0.09168 0.34558 0.84352 0.0
C1169 C 0.08144 0.35907 0.83393 0.0
C1170 C 0.08023 0.35741 0.81506 0.0
C1171 C 0.08918 0.3422 0.80574 0.0
H1172 H 0.07447 0.37082 0.84112 0.0
H1173 H 0.16702 0.22367 0.75642 0.0
H1174 H 0.53758 0.60413 0.52644 0.0
H1175 H 0.52978 0.63105 0.50754 0.0
H1176 H 0.56373 0.60586 0.46586 0.0
H1177 H 0.57148 0.57893 0.48464 0.0
H1178 H 0.5718 0.64665 0.47239 0.0
H1179 H 0.51444 0.59901 0.46154 0.0
H1180 H 0.48622 0.57775 0.47061 0.0
H1181 H 0.46125 0.62904 0.49433 0.0
H1182 H 0.48948 0.65058 0.4856 0.0
H1183 H 0.54031 0.69881 0.39813 0.0
H1184 H 0.54843 0.67356 0.41858 0.0
H1185 H 0.50534 0.69412 0.45426 0.0
H1186 H 0.49652 0.71874 0.43345 0.0
H1187 H 0.50208 0.65643 0.4521 0.0
H1188 H 0.55797 0.70454 0.46302 0.0
H1189 H 0.58621 0.72663 0.45519 0.0
H1190 H 0.61416 0.67627 0.43335 0.0
H1191 H 0.58596 0.6539 0.44084 0.0
C1192 C 0.5434 0.60436 0.51327 0.0
C1193 C 0.55511 0.58942 0.50696 0.0
C1194 C 0.5389 0.61971 0.50247 0.0
C1195 C 0.5461 0.62039 0.48525 0.0
C1196 C 0.55804 0.60564 0.4791 0.0
C1197 C 0.5624 0.59025 0.4898 0.0
C1198 C 0.54107 0.6363 0.47348 0.0
C1199 C 0.55657 0.64871 0.4678 0.0
C1200 C 0.52118 0.6393 0.46792 0.0
C1201 C 0.50417 0.62637 0.47309 0.0
C1202 C 0.50301 0.60573 0.46881 0.0
C1203 C 0.487 0.59364 0.47387 0.0
C1204 C 0.47198 0.60203 0.48308 0.0
C1205 C 0.47291 0.62255 0.48722 0.0
C1206 C 0.4889 0.63471 0.48221 0.0
C1207 C 0.53261 0.69798 0.41036 0.0
C1208 C 0.5178 0.71082 0.41418 0.0
C1209 C 0.53735 0.6836 0.42212 0.0
C1210 C 0.52777 0.6821 0.4382 0.0
C1211 C 0.51297 0.69492 0.44199 0.0
C1212 C 0.50796 0.70904 0.43007 0.0
C1213 C 0.53283 0.66692 0.45088 0.0
C1214 C 0.51733 0.65456 0.45674 0.0
C1215 C 0.55274 0.66415 0.45681 0.0
C1216 C 0.56976 0.67756 0.45235 0.0
C1217 C 0.57008 0.69819 0.45644 0.0
C1218 C 0.58609 0.71076 0.45207 0.0
C1219 C 0.60195 0.70286 0.44374 0.0
C1220 C 0.60186 0.68237 0.43979 0.0
C1221 C 0.58587 0.66974 0.44411 0.0
H1222 H 0.61433 0.71262 0.44037 0.0
H1223 H 0.4596 0.59265 0.48699 0.0
H1224 H 0.87117 0.83611 0.76659 0.0
H1225 H 0.89422 0.83378 0.74269 0.0
H1226 H 0.92279 0.78796 0.76933 0.0
H1227 H 0.90021 0.79071 0.79347 0.0
H1228 H 0.94983 0.81223 0.75786 0.0
H1229 H 0.88779 0.77826 0.73166 0.0
H1230 H 0.852 0.77533 0.72195 0.0
H1231 H 0.86126 0.82233 0.68713 0.0
H1232 H 0.89709 0.82569 0.6968 0.0
H1233 H 0.98679 0.74976 0.69142 0.0
H1234 H 0.9673 0.76574 0.71376 0.0
H1235 H 0.96168 0.81518 0.68109 0.0
H1236 H 0.98169 0.79925 0.65853 0.0
H1237 H 0.92452 0.79691 0.69381 0.0
H1238 H 0.98874 0.82539 0.71691 0.0
H1239 H 0.02443 0.82527 0.72616 0.0
H1240 H 0.01084 0.78558 0.7667 0.0
H1241 H 0.97508 0.78522 0.75752 0.0
C1242 C 0.88241 0.82559 0.76736 0.0
C1243 C 0.88388 0.8135 0.78185 0.0
C1244 C 0.89553 0.82422 0.75365 0.0
C1245 C 0.91014 0.81054 0.75407 0.0
C1246 C 0.91171 0.79867 0.7687 0.0
C1247 C 0.89876 0.80018 0.78245 0.0
C1248 C 0.9237 0.80818 0.73928 0.0
C1249 C 0.94425 0.80886 0.74387 0.0
C1250 C 0.91657 0.80437 0.72089 0.0
C1251 C 0.89505 0.8024 0.71513 0.0
C1252 C 0.88215 0.78808 0.72205 0.0
C1253 C 0.86188 0.78632 0.71653 0.0
C1254 C 0.85435 0.79868 0.70398 0.0
C1255 C 0.8671 0.8128 0.69688 0.0
C1256 C 0.88739 0.81463 0.70237 0.0
C1257 C 0.98154 0.76411 0.68898 0.0
C1258 C 0.98572 0.77324 0.67319 0.0
C1259 C 0.97048 0.77325 0.70182 0.0
C1260 C 0.96313 0.79165 0.69911 0.0
C1261 C 0.96731 0.80098 0.68342 0.0
C1262 C 0.97877 0.79194 0.67062 0.0
C1263 C 0.95044 0.80036 0.71256 0.0
C1264 C 0.93008 0.80082 0.70774 0.0
C1265 C 0.9577 0.80493 0.73077 0.0
C1266 C 0.97921 0.80521 0.73646 0.0
C1267 C 0.99336 0.81653 0.72772 0.0
C1268 C 0.01361 0.81656 0.73296 0.0
C1269 C 0.0199 0.80541 0.747 0.0
C1270 C 0.00595 0.79422 0.75584 0.0
C1271 C 0.98568 0.79413 0.75064 0.0
H1272 H 0.03559 0.80545 0.75103 0.0
H1273 H 0.83865 0.79729 0.69972 0.0
H1274 H 0.06836 0.94959 0.54226 0.0
H1275 H 0.06124 0.92045 0.5589 0.0
H1276 H 0.02618 0.89165 0.51233 0.0
H1277 H 0.03329 0.92091 0.49555 0.0
H1278 H 0.00794 0.8877 0.54478 0.0
H1279 H 0.07087 0.87734 0.52145 0.0
H1280 H 0.10563 0.88638 0.51538 0.0
H1281 H 0.12205 0.89475 0.57233 0.0
H1282 H 0.08732 0.88603 0.57875 0.0
H1283 H 1.00346 0.79304 0.58212 0.0
H1284 H 0.00719 0.82053 0.56278 0.0
H1285 H 0.04996 0.85182 0.60268 0.0
H1286 H 0.04675 0.82417 0.62174 0.0
H1287 H 0.06363 0.85292 0.57106 0.0
H1288 H 1.00085 0.86529 0.5947 0.0
H1289 H 0.96608 0.85706 0.60124 0.0
H1290 H 0.94932 0.84563 0.54453 0.0
H1291 H 0.98406 0.85355 0.53766 0.0
C1292 C 0.05913 0.93704 0.53557 0.0
C1293 C 0.05147 0.93747 0.51762 0.0
C1294 C 0.05511 0.92039 0.54507 0.0
C1295 C 0.04334 0.9038 0.5368 0.0
C1296 C 0.03533 0.90429 0.51894 0.0
C1297 C 0.03946 0.92097 0.50936 0.0
C1298 C 0.03965 0.88599 0.54691 0.0
C1299 C 0.02006 0.87986 0.55029 0.0
C1300 C 0.05551 0.87603 0.55439 0.0
C1301 C 0.07645 0.88118 0.55057 0.0
C1302 C 0.08186 0.88125 0.53268 0.0
C1303 C 0.10157 0.8863 0.52918 0.0
C1304 C 0.11603 0.89118 0.54346 0.0
C1305 C 0.11083 0.89098 0.56128 0.0
C1306 C 0.09114 0.88597 0.56486 0.0
C1307 C 0.01349 0.80588 0.58684 0.0
C1308 C 0.02482 0.80643 0.60345 0.0
C1309 C 0.01557 0.82163 0.57579 0.0
C1310 C 0.02877 0.83837 0.58129 0.0
C1311 C 0.03974 0.83907 0.59808 0.0
C1312 C 0.03784 0.82327 0.60901 0.0
C1313 C 0.0319 0.85481 0.56934 0.0
C1314 C 0.05143 0.86065 0.56552 0.0
C1315 C 0.01598 0.86455 0.56157 0.0
C1316 C 0.99509 0.8598 0.56568 0.0
C1317 C 0.98978 0.86087 0.58363 0.0
C1318 C 0.97007 0.85629 0.5874 0.0
C1319 C 0.95551 0.85077 0.57331 0.0
C1320 C 0.96062 0.84987 0.55543 0.0
C1321 C 0.98031 0.85442 0.55159 0.0
H1322 H 0.94026 0.84723 0.57626 0.0
H1323 H 0.13128 0.89508 0.54072 0.0
H1324 H 0.21366 0.71052 0.74248 0.0
H1325 H 0.18553 0.71744 0.72186 0.0
H1326 H 0.14469 0.6992 0.76056 0.0
H1327 H 0.17271 0.69275 0.78139 0.0
H1328 H 0.13555 0.68311 0.72186 0.0
H1329 H 0.15203 0.74443 0.76012 0.0
H1330 H 0.175 0.77241 0.77372 0.0
H1331 H 0.18737 0.78916 0.72092 0.0
H1332 H 0.16468 0.76108 0.707 0.0
H1333 H 0.04532 0.71622 0.68972 0.0
H1334 H 0.07464 0.71009 0.70876 0.0
H1335 H 0.11162 0.74593 0.67673 0.0
H1336 H 0.08213 0.75277 0.65799 0.0
H1337 H 0.12438 0.75276 0.71046 0.0
H1338 H 0.10794 0.69436 0.67136 0.0
H1339 H 0.08624 0.66643 0.65589 0.0
H1340 H 0.0761 0.64339 0.7069 0.0
H1341 H 0.09747 0.67139 0.72271 0.0
C1342 C 0.19866 0.70793 0.74652 0.0
C1343 C 0.19532 0.70125 0.76353 0.0
C1344 C 0.18266 0.71189 0.73477 0.0
C1345 C 0.16311 0.70888 0.73976 0.0
C1346 C 0.15971 0.70161 0.75651 0.0
C1347 C 0.1757 0.69802 0.7684 0.0
C1348 C 0.14617 0.7138 0.72773 0.0
C1349 C 0.13293 0.69832 0.71947 0.0
C1350 C 0.14329 0.73361 0.72416 0.0
C1351 C 0.15685 0.75052 0.73253 0.0
C1352 C 0.1598 0.75396 0.75141 0.0
C1353 C 0.17273 0.76986 0.75918 0.0
C1354 C 0.18269 0.78252 0.7482 0.0
C1355 C 0.17968 0.77933 0.72942 0.0
C1356 C 0.16678 0.76343 0.72158 0.0
C1357 C 0.05967 0.72291 0.68677 0.0
C1358 C 0.06142 0.73487 0.67226 0.0
C1359 C 0.07646 0.71929 0.69762 0.0
C1360 C 0.09543 0.72714 0.69393 0.0
C1361 C 0.09716 0.73962 0.67979 0.0
C1362 C 0.08029 0.74352 0.66909 0.0
C1363 C 0.1134 0.72207 0.7047 0.0
C1364 C 0.12693 0.7375 0.7127 0.0
C1365 C 0.1168 0.70215 0.70771 0.0
C1366 C 0.10419 0.68508 0.69824 0.0
C1367 C 0.10099 0.68341 0.67929 0.0
C1368 C 0.08875 0.66756 0.67046 0.0
C1369 C 0.07977 0.65317 0.68041 0.0
C1370 C 0.08306 0.65457 0.69921 0.0
C1371 C 0.09524 0.67041 0.70812 0.0
H1372 H 0.07028 0.64093 0.67355 0.0
H1373 H 0.19269 0.79482 0.75424 0.0
H1374 H 0.96901 0.58541 0.50276 0.0
H1375 H 0.97858 0.61556 0.52222 0.0
H1376 H 0.04045 0.60792 0.51549 0.0
H1377 H 0.031 0.57698 0.49675 0.0
H1378 H 0.03599 0.61703 0.54924 0.0
H1379 H 0.01579 0.64509 0.4953 0.0
H1380 H 0.99425 0.65 0.46819 0.0
H1381 H 0.94844 0.66796 0.50154 0.0
H1382 H 0.96958 0.66289 0.52886 0.0
H1383 H 0.05657 0.71166 0.60197 0.0
H1384 H 0.05572 0.68467 0.57829 0.0
H1385 H 0.99158 0.68119 0.5743 0.0
H1386 H 0.9927 0.71015 0.59607 0.0
H1387 H 1.00337 0.67943 0.54287 0.0
H1388 H 0.02237 0.62679 0.59001 0.0
H1389 H 0.0444 0.61922 0.6161 0.0
H1390 H 0.09443 0.64806 0.59333 0.0
H1391 H 0.07261 0.65556 0.56714 0.0
C1392 C 0.98468 0.59001 0.5055 0.0
C1393 C 0.99923 0.57864 0.49827 0.0
C1394 C 0.99013 0.60749 0.51642 0.0
C1395 C 0.01024 0.61425 0.52011 0.0
C1396 C 0.02483 0.60308 0.51275 0.0
C1397 C 0.01939 0.58546 0.50193 0.0
C1398 C 0.01591 0.63231 0.53255 0.0
C1399 C 0.02912 0.63081 0.54765 0.0
C1400 C 0.00702 0.65033 0.53054 0.0
C1401 C 0.99426 0.6535 0.51414 0.0
C1402 C 1.00108 0.64996 0.49686 0.0
C1403 C 0.98894 0.65279 0.48145 0.0
C1404 C 0.96998 0.65926 0.48314 0.0
C1405 C 0.96313 0.66295 0.50025 0.0
C1406 C 0.9752 0.66013 0.51571 0.0
C1407 C 0.0423 0.70484 0.59622 0.0
C1408 C 0.0246 0.71224 0.60158 0.0
C1409 C 0.04181 0.68906 0.5829 0.0
C1410 C 0.02358 0.67997 0.57501 0.0
C1411 C 0.00589 0.68756 0.58035 0.0
C1412 C 0.00645 0.70386 0.5931 0.0
C1413 C 0.02264 0.66382 0.5601 0.0
C1414 C 0.01041 0.66573 0.54437 0.0
C1415 C 0.03269 0.6463 0.56135 0.0
C1416 C 0.04572 0.64269 0.57728 0.0
C1417 C 0.03799 0.63191 0.59089 0.0
C1418 C 0.05046 0.62741 0.60554 0.0
C1419 C 0.07075 0.63347 0.60654 0.0
C1420 C 0.07866 0.64366 0.5927 0.0
C1421 C 0.06625 0.648 0.57796 0.0
H1422 H 0.08037 0.63006 0.61792 0.0
H1423 H 0.96061 0.66144 0.4712 0.0
H1424 H 0.75254 0.86844 0.17312 0.0
H1425 H 0.77672 0.89728 0.1792 0.0
H1426 H 0.78153 0.88693 0.23569 0.0
H1427 H 0.75769 0.85784 0.22971 0.0
H1428 H 0.77924 0.92641 0.23038 0.0
H1429 H 0.81653 0.87269 0.20942 0.0
H1430 H 0.82453 0.84517 0.18828 0.0
H1431 H 0.83211 0.88542 0.14698 0.0
H1432 H 0.82386 0.91314 0.16782 0.0
H1433 H 0.8703 0.97835 0.26221 0.0
H1434 H 0.84241 0.95383 0.25313 0.0
H1435 H 0.84582 0.96727 0.19762 0.0
H1436 H 0.8743 0.99165 0.2068 0.0
H1437 H 0.8424 0.92808 0.20018 0.0
H1438 H 0.80789 0.98253 0.2225 0.0
H1439 H 0.8008 0.00984 0.24428 0.0
H1440 H 0.78868 0.96823 0.2836 0.0
H1441 H 0.79598 0.94067 0.26214 0.0
C1442 C 0.75879 0.87224 0.18684 0.0
C1443 C 0.75324 0.86073 0.20091 0.0
C1444 C 0.77256 0.88877 0.19028 0.0
C1445 C 0.78105 0.89412 0.20786 0.0
C1446 C 0.77512 0.88307 0.22203 0.0
C1447 C 0.76141 0.86649 0.21859 0.0
C1448 C 0.79649 0.91097 0.21146 0.0
C1449 C 0.79313 0.92672 0.2239 0.0
C1450 C 0.81439 0.91158 0.20265 0.0
C1451 C 0.81931 0.89493 0.1901 0.0
C1452 C 0.81971 0.87564 0.19578 0.0
C1453 C 0.82432 0.86001 0.18386 0.0
C1454 C 0.82875 0.86353 0.16628 0.0
C1455 C 0.82863 0.8827 0.16059 0.0
C1456 C 0.82399 0.89838 0.17245 0.0
C1457 C 0.86514 0.97596 0.24806 0.0
C1458 C 0.87471 0.9863 0.23508 0.0
C1459 C 0.84904 0.96216 0.2429 0.0
C1460 C 0.84189 0.95881 0.2247 0.0
C1461 C 0.85112 0.96961 0.21174 0.0
C1462 C 0.8673 0.98348 0.21694 0.0
C1463 C 0.82531 0.94345 0.2193 0.0
C1464 C 0.82844 0.92793 0.20652 0.0
C1465 C 0.80724 0.94303 0.22786 0.0
C1466 C 0.8026 0.95954 0.24073 0.0
C1467 C 0.80382 0.97921 0.23583 0.0
C1468 C 0.79976 0.99474 0.24811 0.0
C1469 C 0.79433 0.99078 0.26532 0.0
C1470 C 0.7929 0.97127 0.27026 0.0
C1471 C 0.79696 0.95569 0.25803 0.0
H1472 H 0.7912 1.00282 0.27482 0.0
H1473 H 0.83234 0.85141 0.15707 0.0
H1474 H 0.75 0.14474 0.30933 0.0
H1475 H 0.77758 0.12401 0.30411 0.0
H1476 H 0.81921 0.17579 0.31336 0.0
H1477 H 0.79166 0.19656 0.31904 0.0
H1478 H 0.82216 0.14761 0.27985 0.0
H1479 H 0.82069 0.15027 0.34468 0.0
H1480 H 0.80426 0.14735 0.373 0.0
H1481 H 0.7862 0.08605 0.35715 0.0
H1482 H 0.80226 0.0887 0.32859 0.0
H1483 H 0.9054 0.09023 0.27516 0.0
H1484 H 0.88355 0.11537 0.28531 0.0
H1485 H 0.84047 0.06906 0.29779 0.0
H1486 H 0.86257 0.04408 0.28851 0.0
H1487 H 0.84043 0.09751 0.32198 0.0
H1488 H 0.83755 0.09392 0.25713 0.0
H1489 H 0.8509 0.09522 0.22721 0.0
H1490 H 0.87365 0.15577 0.24085 0.0
H1491 H 0.86063 0.15474 0.27095 0.0
C1492 C 0.76504 0.15167 0.31023 0.0
C1493 C 0.76875 0.17221 0.31459 0.0
C1494 C 0.78074 0.13985 0.30729 0.0
C1495 C 0.80039 0.1484 0.30839 0.0
C1496 C 0.80414 0.16895 0.31247 0.0
C1497 C 0.78845 0.18074 0.31577 0.0
C1498 C 0.81692 0.13574 0.30523 0.0
C1499 C 0.82647 0.13689 0.28918 0.0
C1500 C 0.82205 0.12142 0.31719 0.0
C1501 C 0.81252 0.11974 0.33442 0.0
C1502 C 0.81306 0.13622 0.34716 0.0
C1503 C 0.80385 0.1346 0.36327 0.0
C1504 C 0.79415 0.11653 0.36686 0.0
C1505 C 0.7937 0.10004 0.35435 0.0
C1506 C 0.80287 0.10159 0.3382 0.0
C1507 C 0.89139 0.08547 0.28032 0.0
C1508 C 0.88569 0.06517 0.28097 0.0
C1509 C 0.87882 0.09984 0.28598 0.0
C1510 C 0.86009 0.09416 0.29197 0.0
C1511 C 0.85477 0.0739 0.29322 0.0
C1512 C 0.86745 0.05959 0.28788 0.0
C1513 C 0.84568 0.10908 0.29638 0.0
C1514 C 0.83641 0.10836 0.31267 0.0
C1515 C 0.8405 0.12352 0.28443 0.0
C1516 C 0.84834 0.12417 0.26636 0.0
C1517 C 0.84554 0.10746 0.25379 0.0
C1518 C 0.85302 0.10815 0.2368 0.0
C1519 C 0.86317 0.12555 0.23216 0.0
C1520 C 0.86582 0.1423 0.24448 0.0
C1521 C 0.85839 0.14167 0.26151 0.0
H1522 H 0.86895 0.12606 0.21899 0.0
H1523 H 0.78703 0.11531 0.37934 0.0
H1524 H 0.43576 0.03653 0.98456 0.0
H1525 H 0.4065 0.01662 0.99245 0.0
H1526 H 0.44126 0.96607 0.99656 0.0
H1527 H 0.47046 0.98592 0.98785 0.0
H1528 H 0.40719 0.95407 0.9809 0.0
H1529 H 0.42706 0.99445 0.03484 0.0
H1530 H 0.43749 0.0253 0.05391 0.0
H1531 H 0.38147 0.04825 0.04014 0.0
H1532 H 0.37079 0.01765 0.02075 0.0
H1533 H 0.32634 0.90307 0.02045 0.0
H1534 H 0.35894 0.92207 0.02183 0.0
H1535 H 0.33203 0.9691 0.99574 0.0
H1536 H 0.29964 0.94996 0.9938 0.0
H1537 H 0.36431 0.98053 0.02698 0.0
H1538 H 0.34944 0.94231 0.96807 0.0
H1539 H 0.33995 0.91137 0.94889 0.0
H1540 H 0.38807 0.88356 0.9747 0.0
H1541 H 0.39785 0.91448 0.99403 0.0
C1542 C 0.43711 0.02115 0.98712 0.0
C1543 C 0.45533 0.01274 0.9857 0.0
C1544 C 0.42044 0.00982 0.9918 0.0
C1545 C 0.42175 0.98996 0.99563 0.0
C1546 C 0.43989 0.9814 0.99382 0.0
C1547 C 0.45653 0.99268 0.98881 0.0
C1548 C 0.40397 0.97808 1.00094 0.0
C1549 C 0.39814 0.95973 0.99129 0.0
C1550 C 0.39193 0.9854 0.01441 0.0
C1551 C 0.39817 0.00377 0.02624 0.0
C1552 C 0.417 0.00611 0.03579 0.0
C1553 C 0.42295 0.02356 0.04666 0.0
C1554 C 0.41016 0.03873 0.04822 0.0
C1555 C 0.39136 0.03648 0.03892 0.0
C1556 C 0.38534 0.01907 0.028 0.0
C1557 C 0.32733 0.91772 0.01551 0.0
C1558 C 0.31053 0.92511 0.00704 0.0
C1559 C 0.34592 0.92849 0.01623 0.0
C1560 C 0.34782 0.94695 0.00887 0.0
C1561 C 0.33081 0.95494 1.00158 0.0
C1562 C 0.31236 0.944 1.00046 0.0
C1563 C 0.36766 0.95691 0.00676 0.0
C1564 C 0.37375 0.97484 0.01694 0.0
C1565 C 0.38014 0.94914 0.99401 0.0
C1566 C 0.3742 0.93055 0.9826 0.0
C1567 C 0.35786 0.92952 0.96975 0.0
C1568 C 0.35247 0.91201 0.95883 0.0
C1569 C 0.36332 0.89543 0.96064 0.0
C1570 C 0.37964 0.89639 0.97334 0.0
C1571 C 0.38515 0.91391 0.98425 0.0
H1572 H 0.35916 0.88188 0.95216 0.0
H1573 H 0.4148 0.05221 0.05666 0.0
H1574 H 0.27626 0.33231 0.28589 0.0
H1575 H 0.25075 0.3547 0.27851 0.0
H1576 H 0.26713 0.39001 0.32876 0.0
H1577 H 0.29218 0.36709 0.33647 0.0
H1578 H 0.22899 0.38802 0.323 0.0
H1579 H 0.28258 0.40377 0.28683 0.0
H1580 H 0.30787 0.3974 0.26526 0.0
H1581 H 0.26195 0.37644 0.22406 0.0
H1582 H 0.23637 0.38242 0.24546 0.0
H1583 H 0.18874 0.47695 0.29412 0.0
H1584 H 0.21042 0.452 0.30429 0.0
H1585 H 0.18497 0.41054 0.26053 0.0
H1586 H 0.16304 0.43531 0.25042 0.0
H1587 H 0.22724 0.41585 0.26325 0.0
H1588 H 0.1736 0.40278 0.30126 0.0
H1589 H 0.15002 0.41134 0.32388 0.0
H1590 H 0.19869 0.43078 0.36283 0.0
H1591 H 0.22257 0.42267 0.34036 0.0
C1592 C 0.27437 0.34484 0.29536 0.0
C1593 C 0.28629 0.34808 0.31168 0.0
C1594 C 0.25984 0.35769 0.29111 0.0
C1595 C 0.25726 0.37436 0.30287 0.0
C1596 C 0.26884 0.37732 0.31941 0.0
C1597 C 0.28316 0.36424 0.32382 0.0
C1598 C 0.24271 0.38882 0.29776 0.0
C1599 C 0.2288 0.39428 0.31002 0.0
C1600 C 0.24224 0.39692 0.28074 0.0
C1601 C 0.25757 0.39336 0.26781 0.0
C1602 C 0.27788 0.39767 0.2732 0.0
C1603 C 0.29226 0.39415 0.26101 0.0
C1604 C 0.28652 0.38647 0.24332 0.0
C1605 C 0.26637 0.38235 0.23778 0.0
C1606 C 0.25192 0.38582 0.24993 0.0
C1607 C 0.18758 0.46243 0.2868 0.0
C1608 C 0.17419 0.4581 0.27145 0.0
C1609 C 0.19994 0.44819 0.29265 0.0
C1610 C 0.19928 0.42942 0.28318 0.0
C1611 C 0.1857 0.42494 0.26804 0.0
C1612 C 0.17313 0.43908 0.26232 0.0
C1613 C 0.21353 0.41488 0.28842 0.0
C1614 C 0.22744 0.4095 0.2762 0.0
C1615 C 0.21427 0.40725 0.3056 0.0
C1616 C 0.19988 0.41229 0.31906 0.0
C1617 C 0.17928 0.40908 0.31459 0.0
C1618 C 0.16586 0.41381 0.3274 0.0
C1619 C 0.17286 0.42162 0.34477 0.0
C1620 C 0.19329 0.42475 0.34936 0.0
C1621 C 0.20678 0.42008 0.3366 0.0
H1622 H 0.16247 0.42517 0.35471 0.0
H1623 H 0.29768 0.38376 0.23389 0.0
H1624 H 0.08354 0.04109 0.47756 0.0
H1625 H 0.11451 0.06231 0.4839 0.0
H1626 H 0.14732 0.01039 0.48741 0.0
H1627 H 0.11622 0.98912 0.48158 0.0
H1628 H 0.16283 0.03834 0.51195 0.0
H1629 H 0.14545 0.0351 0.44825 0.0
H1630 H 0.12327 0.03727 0.42086 0.0
H1631 H 0.11698 0.09864 0.43644 0.0
H1632 H 0.13882 0.0967 0.4641 0.0
H1633 H 0.24142 0.11204 0.4711 0.0
H1634 H 0.21377 0.08624 0.46762 0.0
H1635 H 0.2018 0.09951 0.5233 0.0
H1636 H 0.23024 0.12448 0.52693 0.0
H1637 H 0.17749 0.08772 0.46793 0.0
H1638 H 0.17735 0.06138 0.54066 0.0
H1639 H 0.20151 0.05607 0.56584 0.0
H1640 H 0.24685 0.0491 0.52879 0.0
H1641 H 0.22291 0.0541 0.50337 0.0
C1642 C 0.09736 0.03424 0.47978 0.0
C1643 C 0.09753 0.01349 0.47894 0.0
C1644 C 0.11505 0.04635 0.48338 0.0
C1645 C 0.13331 0.03794 0.48579 0.0
C1646 C 0.13343 0.01722 0.48558 0.0
C1647 C 0.11568 0.00509 0.48223 0.0
C1648 C 0.15229 0.05075 0.48764 0.0
C1649 C 0.16603 0.04925 0.5024 0.0
C1650 C 0.1568 0.06452 0.47487 0.0
C1651 C 0.14375 0.06576 0.45822 0.0
C1652 C 0.13927 0.04903 0.44585 0.0
C1653 C 0.12675 0.05021 0.4303 0.0
C1654 C 0.11873 0.06808 0.42691 0.0
C1655 C 0.12322 0.08481 0.43907 0.0
C1656 C 0.13568 0.08369 0.45468 0.0
C1657 C 0.23288 0.1093 0.48257 0.0
C1658 C 0.23752 0.12046 0.49914 0.0
C1659 C 0.21711 0.09455 0.48062 0.0
C1660 C 0.20564 0.09073 0.49521 0.0
C1661 C 0.2106 0.10174 0.51191 0.0
C1662 C 0.2267 0.11616 0.51396 0.0
C1663 C 0.18789 0.07605 0.49264 0.0
C1664 C 0.17434 0.07707 0.47765 0.0
C1665 C 0.1839 0.06153 0.50494 0.0
C1666 C 0.19836 0.0583 0.52013 0.0
C1667 C 0.19245 0.05863 0.53788 0.0
C1668 C 0.20611 0.05569 0.55219 0.0
C1669 C 0.22572 0.05231 0.54892 0.0
C1670 C 0.23168 0.05179 0.53132 0.0
C1671 C 0.21808 0.0547 0.51695 0.0
H1672 H 0.23627 0.05006 0.56003 0.0
H1673 H 0.10904 0.06896 0.41486 0.0
H1674 H 0.78019 0.17124 0.69008 0.0
H1675 H 0.75372 0.14635 0.6956 0.0
H1676 H 0.79709 0.10394 0.70444 0.0
H1677 H 0.82368 0.12877 0.69884 0.0
H1678 H 0.7405 0.11017 0.68003 0.0
H1679 H 0.78248 0.07595 0.73835 0.0
H1680 H 0.80998 0.0852 0.76172 0.0
H1681 H 0.79804 0.14648 0.7613 0.0
H1682 H 0.77032 0.13757 0.73813 0.0
H1683 H 0.67734 0.02864 0.70456 0.0
H1684 H 0.70372 0.05071 0.69449 0.0
H1685 H 0.70993 0.08311 0.74709 0.0
H1686 H 0.68605 0.05879 0.75779 0.0
H1687 H 0.74301 0.08094 0.7391 0.0
H1688 H 0.68896 0.10536 0.69878 0.0
H1689 H 0.66053 0.10026 0.67557 0.0
H1690 H 0.69476 0.06433 0.64162 0.0
H1691 H 0.72326 0.06946 0.66455 0.0
C1692 C 0.78408 0.15652 0.69289 0.0
C1693 C 0.80407 0.15202 0.69411 0.0
C1694 C 0.76893 0.14232 0.6961 0.0
C1695 C 0.77344 0.12336 0.70064 0.0
C1696 C 0.7933 0.11858 0.70124 0.0
C1697 C 0.80847 0.13279 0.69807 0.0
C1698 C 0.7574 0.10893 0.70541 0.0
C1699 C 0.74099 0.10378 0.69297 0.0
C1700 C 0.75801 0.1006 0.72226 0.0
C1701 C 0.7745 0.1061 0.73636 0.0
C1702 C 0.7857 0.09139 0.74329 0.0
C1703 C 0.80132 0.09657 0.7565 0.0
C1704 C 0.8058 0.11642 0.76294 0.0
C1705 C 0.79461 0.13112 0.75625 0.0
C1706 C 0.77896 0.12602 0.74306 0.0
C1707 C 0.6842 0.0407 0.71384 0.0
C1708 C 0.6788 0.04277 0.73171 0.0
C1709 C 0.69913 0.0536 0.70798 0.0
C1710 C 0.70857 0.06932 0.71969 0.0
C1711 C 0.70296 0.07135 0.73757 0.0
C1712 C 0.68879 0.05782 0.74363 0.0
C1713 C 0.72534 0.08265 0.71403 0.0
C1714 C 0.74222 0.08736 0.72619 0.0
C1715 C 0.72499 0.09089 0.69705 0.0
C1716 C 0.70785 0.08736 0.6835 0.0
C1717 C 0.69014 0.09612 0.68647 0.0
C1718 C 0.67414 0.09334 0.67335 0.0
C1719 C 0.67575 0.08176 0.65726 0.0
C1720 C 0.69347 0.07317 0.65414 0.0
C1721 C 0.70956 0.0761 0.66715 0.0
H1722 H 0.66333 0.07958 0.64715 0.0
H1723 H 0.81791 0.1204 0.77315 0.0
H1724 H 0.4443 0.03292 0.56338 0.0
H1725 H 0.42034 0.0565 0.55582 0.0
H1726 H 0.42818 0.04421 0.49919 0.0
H1727 H 0.45364 0.02201 0.50671 0.0
H1728 H 0.42405 0.08086 0.50416 0.0
H1729 H 0.38667 0.02386 0.52142 0.0
H1730 H 0.37708 0.99713 0.54059 0.0
H1731 H 0.3648 0.04041 0.58261 0.0
H1732 H 0.37457 0.06742 0.56379 0.0
H1733 H 0.32748 0.11594 0.4777 0.0
H1734 H 0.35496 0.09479 0.4828 0.0
H1735 H 0.36558 0.12102 0.53749 0.0
H1736 H 0.33861 0.14247 0.53242 0.0
H1737 H 0.35948 0.07681 0.532 0.0
H1738 H 0.39761 0.13373 0.51231 0.0
H1739 H 0.40542 0.15868 0.49086 0.0
H1740 H 0.41358 0.1123 0.45015 0.0
H1741 H 0.40553 0.08705 0.4713 0.0
C1742 C 0.44134 0.03547 0.54931 0.0
C1743 C 0.451 0.02531 0.53569 0.0
C1744 C 0.42727 0.04877 0.54497 0.0
C1745 C 0.42194 0.05182 0.52687 0.0
C1746 C 0.43182 0.04205 0.51326 0.0
C1747 C 0.44625 0.02907 0.51761 0.0
C1748 C 0.40608 0.06513 0.52217 0.0
C1749 C 0.40985 0.07972 0.51009 0.0
C1750 C 0.38747 0.06386 0.52989 0.0
C1751 C 0.38153 0.04766 0.54125 0.0
C1752 C 0.38206 0.02768 0.5348 0.0
C1753 C 0.37657 0.01248 0.5456 0.0
C1754 C 0.37038 0.01707 0.56283 0.0
C1755 C 0.36962 0.03688 0.56927 0.0
C1756 C 0.37511 0.05214 0.55854 0.0
C1757 C 0.33589 0.1174 0.49071 0.0
C1758 C 0.33089 0.13089 0.50464 0.0
C1759 C 0.35154 0.10532 0.4936 0.0
C1760 C 0.36222 0.10634 0.51054 0.0
C1761 C 0.35749 0.12002 0.52434 0.0
C1762 C 0.34213 0.13233 0.52136 0.0
C1763 C 0.37766 0.09248 0.51427 0.0
C1764 C 0.37372 0.07778 0.5261 0.0
C1765 C 0.39585 0.09334 0.506 0.0
C1766 C 0.40074 0.10851 0.49332 0.0
C1767 C 0.40087 0.12885 0.49873 0.0
C1768 C 0.40539 0.14304 0.48664 0.0
C1769 C 0.40993 0.13708 0.46913 0.0
C1770 C 0.41003 0.1169 0.4637 0.0
C1771 C 0.4055 0.10264 0.47574 0.0
H1772 H 0.41343 0.14809 0.45979 0.0
H1773 H 0.36614 0.00528 0.57116 0.0
H1774 H 0.607 0.51431 0.57802 0.0
H1775 H 0.63244 0.49215 0.56998 0.0
H1776 H 0.61286 0.49247 0.51364 0.0
H1777 H 0.5867 0.51357 0.52162 0.0
H1778 H 0.62034 0.45676 0.52015 0.0
H1779 H 0.65546 0.52103 0.53383 0.0
H1780 H 0.66639 0.5521 0.55243 0.0
H1781 H 0.69316 0.51887 0.59314 0.0
H1782 H 0.68215 0.48756 0.57487 0.0
H1783 H 0.70642 0.42556 0.48024 0.0
H1784 H 0.68001 0.44523 0.49071 0.0
H1785 H 0.69726 0.43484 0.5458 0.0
H1786 H 0.72374 0.41511 0.53549 0.0
H1787 H 0.69109 0.47448 0.54126 0.0
H1788 H 0.65698 0.41004 0.5257 0.0
H1789 H 0.64675 0.37971 0.50582 0.0
H1790 H 0.61869 0.41447 0.46706 0.0
H1791 H 0.62901 0.44506 0.4866 0.0
C1792 C 0.60791 0.50946 0.56393 0.0
C1793 C 0.59484 0.51591 0.55047 0.0
C1794 C 0.62265 0.49696 0.55933 0.0
C1795 C 0.62484 0.49088 0.54116 0.0
C1796 C 0.61158 0.49701 0.52775 0.0
C1797 C 0.59674 0.5093 0.53234 0.0
C1798 C 0.64092 0.4782 0.53599 0.0
C1799 C 0.63582 0.46079 0.52463 0.0
C1800 C 0.66113 0.48316 0.54209 0.0
C1801 C 0.66779 0.50195 0.55308 0.0
C1802 C 0.66354 0.52035 0.54681 0.0
C1803 C 0.66977 0.538 0.55728 0.0
C1804 C 0.68041 0.53746 0.57398 0.0
C1805 C 0.68488 0.51926 0.58022 0.0
C1806 C 0.67867 0.50156 0.56981 0.0
C1807 C 0.70464 0.42743 0.49459 0.0
C1808 C 0.71722 0.41869 0.50701 0.0
C1809 C 0.68947 0.43863 0.50054 0.0
C1810 C 0.68659 0.44138 0.51902 0.0
C1811 C 0.69922 0.43288 0.53147 0.0
C1812 C 0.71429 0.42153 0.52553 0.0
C1813 C 0.67047 0.45325 0.52533 0.0
C1814 C 0.67557 0.47047 0.53689 0.0
C1815 C 0.65031 0.44825 0.51925 0.0
C1816 C 0.64392 0.42986 0.50755 0.0
C1817 C 0.64876 0.41123 0.51288 0.0
C1818 C 0.64292 0.394 0.50168 0.0
C1819 C 0.63212 0.39517 0.48517 0.0
C1820 C 0.62708 0.41359 0.47985 0.0
C1821 C 0.6329 0.43088 0.49099 0.0
H1822 H 0.62762 0.38181 0.47651 0.0
H1823 H 0.68522 0.55114 0.58206 0.0
H1824 H 0.72475 0.24608 0.34079 0.0
H1825 H 0.72453 0.26808 0.36822 0.0
H1826 H 0.74815 0.2232 0.39972 0.0
H1827 H 0.74829 0.20094 0.3722 0.0
H1828 H 0.70546 0.2648 0.39872 0.0
H1829 H 0.77883 0.24742 0.43482 0.0
H1830 H 0.81087 0.2346 0.42783 0.0
H1831 H 0.80571 0.25709 0.37547 0.0
H1832 H 0.77379 0.27024 0.38225 0.0
H1833 H 0.71642 0.32985 0.48062 0.0
H1834 H 0.71244 0.30069 0.45881 0.0
H1835 H 0.76691 0.32073 0.43619 0.0
H1836 H 0.7725 0.34721 0.46006 0.0
H1837 H 0.76821 0.28616 0.43569 0.0
H1838 H 0.70848 0.32151 0.4157 0.0
H1839 H 0.67594 0.33476 0.42092 0.0
H1840 H 0.65426 0.27871 0.43817 0.0
H1841 H 0.68649 0.26524 0.43304 0.0
C1842 C 0.72971 0.24077 0.35356 0.0
C1843 C 0.73649 0.22172 0.3543 0.0
C1844 C 0.72958 0.25338 0.36924 0.0
C1845 C 0.73632 0.24731 0.38602 0.0
C1846 C 0.74303 0.22826 0.38688 0.0
C1847 C 0.7432 0.2156 0.37115 0.0
C1848 C 0.73679 0.26132 0.4024 0.0
C1849 C 0.71919 0.26957 0.40681 0.0
C1850 C 0.75458 0.26725 0.41314 0.0
C1851 C 0.77382 0.25956 0.40897 0.0
C1852 C 0.78457 0.24964 0.42183 0.0
C1853 C 0.8027 0.24233 0.41791 0.0
C1854 C 0.81028 0.24496 0.40119 0.0
C1855 C 0.79978 0.25498 0.38839 0.0
C1856 C 0.78166 0.26234 0.39226 0.0
C1857 C 0.72738 0.32799 0.47082 0.0
C1858 C 0.74413 0.34163 0.47121 0.0
C1859 C 0.72498 0.31141 0.45813 0.0
C1860 C 0.73895 0.30858 0.44515 0.0
C1861 C 0.7557 0.32232 0.44578 0.0
C1862 C 0.7586 0.33806 0.45906 0.0
C1863 C 0.73709 0.29112 0.43134 0.0
C1864 C 0.7544 0.2817 0.42763 0.0
C1865 C 0.71907 0.28436 0.42105 0.0
C1866 C 0.69989 0.29258 0.42427 0.0
C1867 C 0.69677 0.31219 0.42076 0.0
C1868 C 0.67844 0.31968 0.42366 0.0
C1869 C 0.66317 0.30765 0.42999 0.0
C1870 C 0.66613 0.28804 0.43333 0.0
C1871 C 0.68438 0.28047 0.4304 0.0
H1872 H 0.64901 0.31349 0.43223 0.0
H1873 H 0.8243 0.23928 0.39817 0.0
H1874 H 0.52762 0.04013 0.91953 0.0
H1875 H 0.54454 0.03712 0.89166 0.0
H1876 H 0.53813 0.97331 0.8915 0.0
H1877 H 0.52104 0.97624 0.91955 0.0
H1878 H 0.57635 0.98821 0.88393 0.0
H1879 H 0.50876 0.99402 0.86308 0.0
H1880 H 0.47646 0.00863 0.86211 0.0
H1881 H 0.50439 0.06347 0.84732 0.0
H1882 H 0.53692 0.04928 0.84846 0.0
H1883 H 0.61028 0.98033 0.79417 0.0
H1884 H 0.59075 0.97566 0.82031 0.0
H1885 H 0.58485 0.03867 0.82671 0.0
H1886 H 0.60383 0.04343 0.80067 0.0
H1887 H 0.55037 0.01919 0.8298 0.0
H1888 H 0.61806 0.01521 0.85392 0.0
H1889 H 0.65086 1.00157 0.85556 0.0
H1890 H 0.62331 0.94435 0.86463 0.0
H1891 H 0.59031 0.95761 0.86281 0.0
C1892 C 0.52981 0.02544 0.91362 0.0
C1893 C 0.523 0.00838 0.92171 0.0
C1894 C 0.53943 0.02375 0.89764 0.0
C1895 C 0.54244 0.00499 0.88943 0.0
C1896 C 0.53592 0.98792 0.89761 0.0
C1897 C 0.52614 0.98961 0.91356 0.0
C1898 C 0.55238 0.00341 0.87228 0.0
C1899 C 0.57051 0.99464 0.87196 0.0
C1900 C 0.54488 0.01205 0.85677 0.0
C1901 C 0.52531 0.02062 0.85599 0.0
C1902 C 0.50805 0.00924 0.85975 0.0
C1903 C 0.48969 0.01744 0.85915 0.0
C1904 C 0.48838 0.03698 0.85469 0.0
C1905 C 0.50542 0.04834 0.85078 0.0
C1906 C 0.52382 0.04022 0.85139 0.0
C1907 C 0.60481 0.99318 0.80115 0.0
C1908 C 0.60862 0.01224 0.79523 0.0
C1909 C 0.5937 0.99049 0.81613 0.0
C1910 C 0.58639 0.00684 0.82555 0.0
C1911 C 0.5902 0.02581 0.81963 0.0
C1912 C 0.60114 0.02849 0.80469 0.0
C1913 C 0.57469 0.00452 0.84156 0.0
C1914 C 0.55613 0.01252 0.84166 0.0
C1915 C 0.58189 0.9953 0.85688 0.0
C1916 C 0.60171 0.98734 0.858 0.0
C1917 C 0.61899 0.99968 0.85611 0.0
C1918 C 0.63762 0.99203 0.8571 0.0
C1919 C 0.63916 0.97209 0.86013 0.0
C1920 C 0.62209 0.95978 0.86224 0.0
C1921 C 0.60342 0.96736 0.86124 0.0
H1922 H 0.6536 0.96619 0.8609 0.0
H1923 H 0.47415 0.0433 0.85423 0.0
H1924 H 0.35098 0.30174 0.35613 0.0
H1925 H 0.35094 0.28271 0.38279 0.0
H1926 H 0.28708 0.28166 0.38109 0.0
H1927 H 0.28674 0.29954 0.35395 0.0
H1928 H 0.30847 0.2929 0.41652 0.0
H1929 H 0.30442 0.24268 0.36556 0.0
H1930 H 0.31677 0.22662 0.33818 0.0
H1931 H 0.37118 0.21688 0.3682 0.0
H1932 H 0.35924 0.23317 0.39572 0.0
H1933 H 0.26319 0.21835 0.46106 0.0
H1934 H 0.27621 0.2415 0.4408 0.0
H1935 H 0.33418 0.21952 0.44812 0.0
H1936 H 0.32094 0.19553 0.46839 0.0
H1937 H 0.32426 0.22247 0.41307 0.0
H1938 H 0.32619 0.26667 0.46531 0.0
H1939 H 0.31452 0.28267 0.49302 0.0
H1940 H 0.26636 0.30468 0.46189 0.0
H1941 H 0.27753 0.28856 0.43401 0.0
C1942 C 0.33687 0.2973 0.36125 0.0
C1943 C 0.31885 0.30231 0.35274 0.0
C1944 C 0.33693 0.28655 0.3766 0.0
C1945 C 0.31901 0.28085 0.38392 0.0
C1946 C 0.30108 0.28609 0.37574 0.0
C1947 C 0.30096 0.29649 0.36025 0.0
C1948 C 0.31864 0.269 0.39986 0.0
C1949 C 0.31191 0.2775 0.41583 0.0
C1950 C 0.32393 0.24918 0.39914 0.0
C1951 C 0.33107 0.23939 0.38262 0.0
C1952 C 0.3191 0.23731 0.36627 0.0
C1953 C 0.32601 0.22812 0.35074 0.0
C1954 C 0.34478 0.2208 0.35143 0.0
C1955 C 0.35667 0.2226 0.36768 0.0
C1956 C 0.34984 0.23181 0.38324 0.0
C1957 C 0.27879 0.21844 0.4586 0.0
C1958 C 0.29099 0.20496 0.46639 0.0
C1959 C 0.28628 0.2319 0.44705 0.0
C1960 C 0.30627 0.23253 0.44309 0.0
C1961 C 0.31872 0.21939 0.45107 0.0
C1962 C 0.31117 0.20577 0.46273 0.0
C1963 C 0.31336 0.24613 0.42965 0.0
C1964 C 0.32133 0.23801 0.41408 0.0
C1965 C 0.30944 0.26643 0.43083 0.0
C1966 C 0.30269 0.27632 0.44755 0.0
C1967 C 0.31304 0.27482 0.46437 0.0
C1968 C 0.30652 0.28393 0.48012 0.0
C1969 C 0.2897 0.29467 0.47922 0.0
C1970 C 0.27939 0.29636 0.46257 0.0
C1971 C 0.28584 0.28727 0.44678 0.0
H1972 H 0.28467 0.3017 0.49143 0.0
H1973 H 0.3501 0.21368 0.3394 0.0
H1974 H 0.51834 0.49638 0.94526 0.0
H1975 H 0.49983 0.50285 0.91713 0.0
H1976 H 0.54994 0.48811 0.88726 0.0
H1977 H 0.56874 0.48279 0.91551 0.0
H1978 H 0.53637 0.51778 0.87403 0.0
H1979 H 0.50516 0.45594 0.88869 0.0
H1980 H 0.48814 0.43252 0.90747 0.0
H1981 H 0.43957 0.46958 0.91069 0.0
H1982 H 0.45643 0.49336 0.89211 0.0
H1983 H 0.47946 0.48824 0.78859 0.0
H1984 H 0.49892 0.48822 0.8176 0.0
H1985 H 0.46106 0.52934 0.84192 0.0
H1986 H 0.44186 0.52994 0.81277 0.0
H1987 H 0.46742 0.4884 0.85803 0.0
H1988 H 0.50038 0.5492 0.84054 0.0
H1989 H 0.51816 0.5694 0.81963 0.0
H1990 H 0.56457 0.52958 0.81935 0.0
H1991 H 0.5469 0.50895 0.84006 0.0
C1992 C 0.52528 0.49446 0.93263 0.0
C1993 C 0.54488 0.48901 0.93246 0.0
C1994 C 0.5147 0.49807 0.91654 0.0
C1995 C 0.52331 0.49568 0.89992 0.0
C1996 C 0.54291 0.49013 0.89983 0.0
C1997 C 0.55363 0.48699 0.91595 0.0
C1998 C 0.51207 0.49915 0.88263 0.0
C1999 C 0.52136 0.51116 0.87054 0.0
C2000 C 0.49234 0.49079 0.878 0.0
C2001 C 0.48217 0.47653 0.88918 0.0
C2002 C 0.49092 0.45917 0.89352 0.0
C2003 C 0.48129 0.44582 0.90411 0.0
C2004 C 0.46281 0.44959 0.91031 0.0
C2005 C 0.4539 0.4667 0.9059 0.0
C2006 C 0.46348 0.48011 0.89534 0.0
C2007 C 0.47554 0.49759 0.80003 0.0
C2008 C 0.45919 0.50915 0.79841 0.0
C2009 C 0.48664 0.49755 0.81656 0.0
C2010 C 0.48136 0.50874 0.83184 0.0
C2011 C 0.46535 0.52065 0.83022 0.0
C2012 C 0.45451 0.52108 0.81356 0.0
C2013 C 0.4918 0.50688 0.84968 0.0
C2014 C 0.48237 0.49509 0.86175 0.0
C2015 C 0.51153 0.515 0.85409 0.0
C2016 C 0.52221 0.52742 0.8417 0.0
C2017 C 0.51427 0.54463 0.83587 0.0
C2018 C 0.52435 0.55619 0.82409 0.0
C2019 C 0.54245 0.55075 0.81812 0.0
C2020 C 0.55054 0.53376 0.82396 0.0
C2021 C 0.5405 0.52214 0.83574 0.0
H2022 H 0.55024 0.55972 0.809 0.0
H2023 H 0.45538 0.43923 0.9185 0.0
H2024 H 0.72869 0.82132 0.14366 0.0
H2025 H 0.73353 0.79993 0.11652 0.0
H2026 H 0.74139 0.75079 0.14913 0.0
H2027 H 0.73616 0.77208 0.17634 0.0
H2028 H 0.77194 0.75937 0.12292 0.0
H2029 H 0.70089 0.74815 0.1268 0.0
H2030 H 0.66712 0.75891 0.12938 0.0
H2031 H 0.67096 0.7879 0.08029 0.0
H2032 H 0.70489 0.77756 0.07756 0.0
H2033 H 0.77279 0.68357 0.05252 0.0
H2034 H 0.76723 0.70389 0.07988 0.0
H2035 H 0.73832 0.74519 0.04756 0.0
H2036 H 0.7428 0.72414 0.02021 0.0
H2037 H 0.71838 0.74079 0.07433 0.0
H2038 H 0.78807 0.75416 0.06948 0.0
H2039 H 0.82276 0.74651 0.06621 0.0
H2040 H 0.82326 0.71771 0.11563 0.0
H2041 H 0.78847 0.72497 0.11908 0.0
C2042 C 0.73138 0.80593 0.145 0.0
C2043 C 0.73204 0.7983 0.16203 0.0
C2044 C 0.73409 0.79375 0.12953 0.0
C2045 C 0.73779 0.77382 0.13087 0.0
C2046 C 0.73854 0.76615 0.14787 0.0
C2047 C 0.73545 0.77825 0.16333 0.0
C2048 C 0.74112 0.76111 0.11449 0.0
C2049 C 0.76021 0.75501 0.11237 0.0
C2050 C 0.72595 0.75615 0.10052 0.0
C2051 C 0.7055 0.76225 0.10208 0.0
C2052 C 0.6946 0.75697 0.11664 0.0
C2053 C 0.67541 0.76296 0.11811 0.0
C2054 C 0.66692 0.77413 0.10503 0.0
C2055 C 0.67757 0.77927 0.09042 0.0
C2056 C 0.69677 0.77334 0.0889 0.0
C2057 C 0.76538 0.69707 0.05126 0.0
C2058 C 0.75835 0.70235 0.03423 0.0
C2059 C 0.76229 0.70876 0.06692 0.0
C2060 C 0.75269 0.72637 0.06587 0.0
C2061 C 0.74577 0.73171 0.04881 0.0
C2062 C 0.7484 0.71973 0.03316 0.0
C2063 C 0.74936 0.7389 0.08255 0.0
C2064 C 0.73023 0.74504 0.08479 0.0
C2065 C 0.76466 0.74431 0.09646 0.0
C2066 C 0.7856 0.73994 0.09444 0.0
C2067 C 0.79553 0.74607 0.07959 0.0
C2068 C 0.81522 0.74182 0.07771 0.0
C2069 C 0.82519 0.73158 0.09068 0.0
C2070 C 0.81551 0.72562 0.10558 0.0
C2071 C 0.79581 0.72981 0.10751 0.0
H2072 H 0.84043 0.72831 0.0892 0.0
H2073 H 0.65206 0.77875 0.1062 0.0
H2074 H 0.04625 0.00775 0.09261 0.0
H2075 H 0.028 0.0035 0.11935 0.0
H2076 H 0.02398 0.06676 0.12666 0.0
H2077 H 0.04321 0.07126 0.10048 0.0
H2078 H 0.0315 0.05307 0.15817 0.0
H2079 H 0.98411 0.03435 0.10804 0.0
H2080 H 0.97078 0.01629 0.07924 0.0
H2081 H 0.97353 0.96083 0.10324 0.0
H2082 H 0.98714 0.97855 0.13213 0.0
H2083 H 0.95285 0.04641 0.21823 0.0
H2084 H 0.97294 0.05292 0.19288 0.0
H2085 H 0.98328 0.99091 0.18606 0.0
H2086 H 0.96325 0.98421 0.21122 0.0
H2087 H 0.97183 0.0052 0.15422 0.0
H2088 H 0.01968 0.02498 0.20461 0.0
H2089 H 0.03221 0.04389 0.23324 0.0
H2090 H 0.02724 0.0986 0.20838 0.0
H2091 H 0.01441 0.08001 0.17965 0.0
C2092 C 0.04176 0.02082 0.10002 0.0
C2093 C 0.04618 0.03986 0.09425 0.0
C2094 C 0.03107 0.01834 0.11522 0.0
C2095 C 0.02425 0.03477 0.12488 0.0
C2096 C 0.02895 0.05382 0.11939 0.0
C2097 C 0.03979 0.05635 0.10427 0.0
C2098 C 0.01216 0.03205 0.14064 0.0
C2099 C 0.01829 0.0428 0.15722 0.0
C2100 C 0.99505 0.01848 0.13954 0.0
C2101 C 0.98682 0.00777 0.1222 0.0
C2102 C 0.98201 0.01829 0.10714 0.0
C2103 C 0.97439 0.00812 0.0908 0.0
C2104 C 0.97136 0.98742 0.08939 0.0
C2105 C 0.97591 0.97686 0.10434 0.0
C2106 C 0.98356 0.98696 0.1207 0.0
C2107 C 0.95951 0.03416 0.21144 0.0
C2108 C 0.95638 0.01477 0.21684 0.0
C2109 C 0.97104 0.03793 0.19696 0.0
C2110 C 0.97969 0.02241 0.1876 0.0
C2111 C 0.97674 0.00312 0.19306 0.0
C2112 C 0.96532 0.99934 0.20754 0.0
C2113 C 0.9913 0.02603 0.17175 0.0
C2114 C 0.98503 0.01548 0.15513 0.0
C2115 C 0.00814 0.03992 0.17279 0.0
C2116 C 0.01589 0.05111 0.19004 0.0
C2117 C 0.0211 0.04105 0.20529 0.0
C2118 C 0.02829 0.05171 0.22153 0.0
C2119 C 0.03047 0.07244 0.22264 0.0
C2120 C 0.02551 0.08255 0.20751 0.0
C2121 C 0.0183 0.07196 0.19124 0.0
H2122 H 0.03604 0.08066 0.23522 0.0
H2123 H 0.96545 0.97957 0.07674 0.0
H2124 H 0.36414 0.74089 0.13791 0.0
H2125 H 0.35625 0.76349 0.11475 0.0
H2126 H 0.29634 0.76397 0.13129 0.0
H2127 H 0.30396 0.74074 0.15381 0.0
H2128 H 0.29445 0.76124 0.09698 0.0
H2129 H 0.33388 0.80371 0.14236 0.0
H2130 H 0.36314 0.81475 0.1633 0.0
H2131 H 0.39981 0.81787 0.11863 0.0
H2132 H 0.37079 0.8066 0.09742 0.0
H2133 H 0.26719 0.85138 0.06343 0.0
H2134 H 0.27964 0.82836 0.08439 0.0
H2135 H 0.3255 0.81444 0.04921 0.0
H2136 H 0.31279 0.83722 0.02778 0.0
H2137 H 0.33619 0.82345 0.09085 0.0
H2138 H 0.29375 0.78191 0.04566 0.0
H2139 H 0.26269 0.77326 0.02643 0.0
H2140 H 0.22969 0.77109 0.07356 0.0
H2141 H 0.26054 0.78005 0.09307 0.0
C2142 C 0.3493 0.74586 0.13655 0.0
C2143 C 0.33466 0.73904 0.14758 0.0
C2144 C 0.34482 0.75887 0.1234 0.0
C2145 C 0.32574 0.7657 0.12137 0.0
C2146 C 0.31114 0.75891 0.1325 0.0
C2147 C 0.31552 0.74565 0.14542 0.0
C2148 C 0.32077 0.77961 0.10748 0.0
C2149 C 0.30355 0.77489 0.0958 0.0
C2150 C 0.33274 0.79734 0.10562 0.0
C2151 C 0.35022 0.80409 0.11833 0.0
C2152 C 0.34822 0.8066 0.13702 0.0
C2153 C 0.36475 0.81292 0.14893 0.0
C2154 C 0.38333 0.81695 0.1423 0.0
C2155 C 0.38541 0.81471 0.12374 0.0
C2156 C 0.36893 0.80837 0.11177 0.0
C2157 C 0.28003 0.84356 0.06018 0.0
C2158 C 0.289 0.84607 0.04393 0.0
C2159 C 0.28709 0.83041 0.07216 0.0
C2160 C 0.30342 0.81972 0.06829 0.0
C2161 C 0.31287 0.82262 0.0524 0.0
C2162 C 0.30557 0.83555 0.04018 0.0
C2163 C 0.30995 0.80501 0.08066 0.0
C2164 C 0.32734 0.80964 0.09202 0.0
C2165 C 0.29796 0.7874 0.08251 0.0
C2166 C 0.27943 0.78184 0.07081 0.0
C2167 C 0.27985 0.77977 0.05191 0.0
C2168 C 0.26228 0.77477 0.04096 0.0
C2169 C 0.24422 0.77168 0.04876 0.0
C2170 C 0.24369 0.77352 0.06753 0.0
C2171 C 0.26121 0.77854 0.07854 0.0
H2172 H 0.23064 0.76781 0.04026 0.0
H2173 H 0.39611 0.82185 0.15155 0.0
H2174 H 0.03176 0.49135 0.06649 0.0
H2175 H 0.0496 0.49234 0.09618 0.0
H2176 H 0.99815 0.51181 0.1212 0.0
H2177 H 0.97959 0.5097 0.09164 0.0
H2178 H 0.03942 0.53434 0.13177 0.0
H2179 H 1.0031 0.46938 0.12665 0.0
H2180 H 0.99232 0.43658 0.111 0.0
H2181 H 0.05313 0.42259 0.11021 0.0
H2182 H 0.06429 0.45547 0.12562 0.0
H2183 H 0.07689 0.52873 0.22135 0.0
H2184 H 0.05447 0.52494 0.19394 0.0
H2185 H 0.09261 0.48428 0.16915 0.0
H2186 H 0.11456 0.4873 0.1969 0.0
H2187 H 0.05652 0.47237 0.15852 0.0
H2188 H 0.09417 0.53516 0.16149 0.0
H2189 H 0.10777 0.56805 0.17523 0.0
H2190 H 0.04868 0.58672 0.17754 0.0
H2191 H 0.0347 0.5538 0.16404 0.0
C2192 C 0.02401 0.49555 0.07825 0.0
C2193 C 0.00406 0.50026 0.07652 0.0
C2194 C 0.03435 0.49626 0.09522 0.0
C2195 C 0.02515 0.50207 0.11083 0.0
C2196 C 0.0055 0.50733 0.10925 0.0
C2197 C 0.99497 0.50625 0.09229 0.0
C2198 C 0.03613 0.50244 0.12877 0.0
C2199 C 0.04289 0.52084 0.13783 0.0
C2200 C 0.04124 0.48478 0.13623 0.0
C2201 C 0.03454 0.46496 0.12712 0.0
C2202 C 0.01419 0.45939 0.12299 0.0
C2203 C 0.008 0.44076 0.11419 0.0
C2204 C 0.02203 0.42753 0.10957 0.0
C2205 C 0.04228 0.43287 0.11378 0.0
C2206 C 0.04854 0.45149 0.12256 0.0
C2207 C 0.08034 0.51877 0.21014 0.0
C2208 C 0.09755 0.5084 0.21124 0.0
C2209 C 0.06759 0.51671 0.19441 0.0
C2210 C 0.07209 0.50474 0.17924 0.0
C2211 C 0.08882 0.49369 0.18061 0.0
C2212 C 0.10137 0.49541 0.19649 0.0
C2213 C 0.05986 0.50436 0.16176 0.0
C2214 C 0.05295 0.48595 0.15266 0.0
C2215 C 0.05503 0.52205 0.15403 0.0
C2216 C 0.06338 0.54195 0.16193 0.0
C2217 C 0.08407 0.54623 0.16503 0.0
C2218 C 0.09185 0.56488 0.17277 0.0
C2219 C 0.0791 0.57944 0.17731 0.0
C2220 C 0.05854 0.57541 0.17405 0.0
C2221 C 0.05068 0.55676 0.16634 0.0
H2222 H 0.08515 0.59387 0.18331 0.0
H2223 H 0.01722 0.41312 0.10276 0.0
H2224 H 0.34274 0.69133 0.24664 0.0
H2225 H 0.36968 0.69724 0.27037 0.0
H2226 H 0.41145 0.70894 0.2305 0.0
H2227 H 0.38447 0.70275 0.20651 0.0
H2228 H 0.40304 0.67817 0.27614 0.0
H2229 H 0.4474 0.74464 0.25055 0.0
H2230 H 0.44214 0.77236 0.23155 0.0
H2231 H 0.38133 0.77176 0.24482 0.0
H2232 H 0.38631 0.74424 0.26407 0.0
H2233 H 0.49021 0.69986 0.3368 0.0
H2234 H 0.46625 0.69094 0.3109 0.0
H2235 H 0.44297 0.74839 0.31847 0.0
H2236 H 0.46925 0.75823 0.34209 0.0
H2237 H 0.4436 0.74255 0.2867 0.0
H2238 H 0.4161 0.6943 0.32801 0.0
H2239 H 0.41839 0.6662 0.34738 0.0
H2240 H 0.44153 0.63142 0.30434 0.0
H2241 H 0.43918 0.65914 0.28481 0.0
C2242 C 0.35768 0.69495 0.24285 0.0
C2243 C 0.36147 0.69642 0.22464 0.0
C2244 C 0.37306 0.69838 0.25646 0.0
C2245 C 0.39256 0.70352 0.25222 0.0
C2246 C 0.39646 0.70514 0.23408 0.0
C2247 C 0.38104 0.70167 0.2204 0.0
C2248 C 0.40865 0.70726 0.26695 0.0
C2249 C 0.41191 0.69227 0.27852 0.0
C2250 C 0.4203 0.72556 0.26995 0.0
C2251 C 0.41718 0.74223 0.25855 0.0
C2252 C 0.43292 0.75046 0.24943 0.0
C2253 C 0.42999 0.76614 0.23862 0.0
C2254 C 0.41139 0.77376 0.23692 0.0
C2255 C 0.39571 0.76579 0.24608 0.0
C2256 C 0.39857 0.75013 0.25692 0.0
C2257 C 0.47973 0.71042 0.33302 0.0
C2258 C 0.48074 0.72936 0.34223 0.0
C2259 C 0.46578 0.70522 0.31831 0.0
C2260 C 0.45205 0.71863 0.31288 0.0
C2261 C 0.45311 0.73755 0.32227 0.0
C2262 C 0.46773 0.74304 0.33629 0.0
C2263 C 0.43747 0.71379 0.29678 0.0
C2264 C 0.43471 0.72846 0.2846 0.0
C2265 C 0.42605 0.69527 0.29337 0.0
C2266 C 0.4278 0.67884 0.30519 0.0
C2267 C 0.42188 0.6807 0.32287 0.0
C2268 C 0.42311 0.66487 0.3338 0.0
C2269 C 0.43029 0.64717 0.32716 0.0
C2270 C 0.43607 0.64517 0.30951 0.0
C2271 C 0.43471 0.66089 0.29849 0.0
H2272 H 0.43126 0.63495 0.33565 0.0
H2273 H 0.40915 0.78588 0.22854 0.0
H2274 H 0.9778 0.43502 0.99296 0.0
H2275 H 0.98059 0.40475 0.97356 0.0
H2276 H 0.0438 0.40864 0.98748 0.0
H2277 H 0.04109 0.43902 0.007 0.0
H2278 H 0.03369 0.39875 0.95043 0.0
H2279 H 0.0158 0.3769 0.00735 0.0
H2280 H 0.99595 0.37565 0.03385 0.0
H2281 H 0.94388 0.35474 0.99941 0.0
H2282 H 0.96336 0.35615 0.97266 0.0
H2283 H 0.04085 0.2987 0.91215 0.0
H2284 H 0.04419 0.32939 0.93224 0.0
H2285 H 0.98031 0.32998 0.92983 0.0
H2286 H 0.97687 0.29937 0.91039 0.0
H2287 H 0.99452 0.33713 0.96307 0.0
H2288 H 0.01111 0.36125 0.90607 0.0
H2289 H 0.03027 0.36276 0.87913 0.0
H2290 H 0.08384 0.37955 0.91292 0.0
H2291 H 0.06502 0.37789 0.94008 0.0
C2292 C 0.99231 0.42951 0.99183 0.0
C2293 C 0.00925 0.43933 1.00152 0.0
C2294 C 0.99388 0.41219 0.98077 0.0
C2295 C 0.01239 0.40437 0.97919 0.0
C2296 C 0.0294 0.41443 0.98851 0.0
C2297 C 0.02781 0.4317 0.99967 0.0
C2298 C 0.01377 0.38538 0.96824 0.0
C2299 C 0.02537 0.38518 0.95331 0.0
C2300 C 1.00275 0.36776 0.97191 0.0
C2301 C 0.99101 0.36679 0.98799 0.0
C2302 C 1.00008 0.37218 0.00541 0.0
C2303 C 0.9889 0.37142 0.02048 0.0
C2304 C 0.96866 0.36516 0.01831 0.0
C2305 C 0.95956 0.3596 1.00107 0.0
C2306 C 0.97067 0.36036 0.98595 0.0
C2307 C 0.02755 0.30543 0.91588 0.0
C2308 C 0.0086 0.29647 0.90972 0.0
C2309 C 0.02947 0.32301 0.92732 0.0
C2310 C 0.01248 0.33208 0.93251 0.0
C2311 C 0.99364 0.32324 0.92615 0.0
C2312 C 0.99171 0.30568 0.91497 0.0
C2313 C 0.01395 0.35053 0.94484 0.0
C2314 C 1.00296 0.35063 0.96017 0.0
C2315 C 0.02542 0.36804 0.94142 0.0
C2316 C 0.0367 0.36922 0.9251 0.0
C2317 C 0.027 0.36512 0.90775 0.0
C2318 C 0.03779 0.36603 0.89245 0.0
C2319 C 0.05827 0.37118 0.89431 0.0
C2320 C 0.06798 0.37552 0.91149 0.0
C2321 C 0.05726 0.37461 0.92685 0.0
H2322 H 0.0666 0.37185 0.88245 0.0
H2323 H 0.96003 0.36458 0.03 0.0
H2324 H 0.66022 0.84866 0.24282 0.0
H2325 H 0.63726 0.83857 0.26501 0.0
H2326 H 0.66309 0.78234 0.26641 0.0
H2327 H 0.68545 0.7921 0.24356 0.0
H2328 H 0.6254 0.77582 0.26661 0.0
H2329 H 0.67298 0.82159 0.30111 0.0
H2330 H 0.69372 0.85298 0.30888 0.0
H2331 H 0.64127 0.88454 0.31251 0.0
H2332 H 0.6202 0.85336 0.30451 0.0
H2333 H 0.58539 0.75171 0.34948 0.0
H2334 H 0.60947 0.76256 0.32842 0.0
H2335 H 0.57264 0.80877 0.31352 0.0
H2336 H 0.5482 0.79772 0.33427 0.0
H2337 H 0.61626 0.82005 0.32109 0.0
H2338 H 0.56928 0.77226 0.28586 0.0
H2339 H 0.55011 0.73974 0.27968 0.0
H2340 H 0.60435 0.71069 0.27964 0.0
H2341 H 0.62384 0.74304 0.2861 0.0
C2342 C 0.66095 0.83414 0.24787 0.0
C2343 C 0.67457 0.82118 0.24148 0.0
C2344 C 0.64793 0.82843 0.26066 0.0
C2345 C 0.64864 0.80981 0.26771 0.0
C2346 C 0.66223 0.79678 0.26124 0.0
C2347 C 0.67504 0.80238 0.24819 0.0
C2348 C 0.63495 0.80382 0.28156 0.0
C2349 C 0.62368 0.78542 0.27863 0.0
C2350 C 0.6324 0.81637 0.29721 0.0
C2351 C 0.64501 0.83516 0.30204 0.0
C2352 C 0.66587 0.83524 0.30343 0.0
C2353 C 0.67768 0.853 0.3079 0.0
C2354 C 0.66882 0.87075 0.31114 0.0
C2355 C 0.64811 0.87078 0.30997 0.0
C2356 C 0.63623 0.85307 0.30548 0.0
C2357 C 0.58248 0.76429 0.34183 0.0
C2358 C 0.56489 0.77386 0.3435 0.0
C2359 C 0.59622 0.77042 0.32979 0.0
C2360 C 0.59276 0.7864 0.3194 0.0
C2361 C 0.57555 0.79641 0.32144 0.0
C2362 C 0.56161 0.79005 0.33325 0.0
C2363 C 0.60684 0.79225 0.30599 0.0
C2364 C 0.61813 0.81055 0.30904 0.0
C2365 C 0.6097 0.77948 0.29065 0.0
C2366 C 0.598 0.76005 0.28666 0.0
C2367 C 0.57711 0.75892 0.28471 0.0
C2368 C 0.56619 0.74053 0.28112 0.0
C2369 C 0.57601 0.72316 0.27932 0.0
C2370 C 0.59677 0.72416 0.28107 0.0
C2371 C 0.60776 0.74252 0.28468 0.0
H2372 H 0.56753 0.70893 0.27654 0.0
H2373 H 0.67799 0.88448 0.3146 0.0
H2374 H 0.03191 0.09655 0.02224 0.0
H2375 H 0.02113 0.12064 1.00144 0.0
H2376 H 0.07967 0.12541 0.98173 0.0
H2377 H 0.09056 0.10157 1.00267 0.0
H2378 H 0.06645 0.16126 0.98752 0.0
H2379 H 0.04053 0.09852 0.95726 0.0
H2380 H 0.02138 0.06585 0.95423 0.0
H2381 H 0.96776 0.09394 0.96336 0.0
H2382 H 0.98665 0.12678 0.96669 0.0
H2383 H 0.04521 0.20823 0.90724 0.0
H2384 H 0.05474 0.18488 0.92908 0.0
H2385 H 0.99554 0.1821 0.94735 0.0
H2386 H 0.98574 0.20519 0.92539 0.0
H2387 H 0.00834 0.14572 0.94297 0.0
H2388 H 0.03425 0.20862 0.97242 0.0
H2389 H 0.05347 0.24124 0.97517 0.0
H2390 H 0.1072 0.21284 0.96744 0.0
H2391 H 0.08825 0.18004 0.96438 0.0
C2392 C 0.04246 0.10274 0.01347 0.0
C2393 C 0.06209 0.09719 0.01404 0.0
C2394 C 0.03627 0.11644 1.00154 0.0
C2395 C 0.04954 0.12471 0.98989 0.0
C2396 C 0.06917 0.11925 0.99058 0.0
C2397 C 0.07535 0.1056 1.0025 0.0
C2398 C 0.04311 0.13916 0.97704 0.0
C2399 C 0.05388 0.15777 0.97764 0.0
C2400 C 0.02643 0.13481 0.96443 0.0
C2401 C 0.01504 0.11508 0.96242 0.0
C2402 C 0.02469 0.09772 0.95877 0.0
C2403 C 0.01387 0.07917 0.95697 0.0
C2404 C 0.99338 0.07781 0.95865 0.0
C2405 C 0.98364 0.09501 0.96209 0.0
C2406 C 0.99439 0.11359 0.96392 0.0
C2407 C 0.03419 0.20272 0.91592 0.0
C2408 C 0.01471 0.20871 0.91456 0.0
C2409 C 0.0397 0.18941 0.92846 0.0
C2410 C 0.02592 0.1819 0.94001 0.0
C2411 C 0.00644 0.18772 0.93861 0.0
C2412 C 1.0009 0.20101 0.92607 0.0
C2413 C 0.03174 0.16778 0.95339 0.0
C2414 C 0.02087 0.14924 0.95289 0.0
C2415 C 0.04834 0.17219 0.9661 0.0
C2416 C 0.05979 0.19188 0.968 0.0
C2417 C 0.05014 0.20934 0.97117 0.0
C2418 C 0.06099 0.22786 0.97281 0.0
C2419 C 0.08154 0.22911 0.97144 0.0
C2420 C 0.09128 0.21184 0.96847 0.0
C2421 C 0.08049 0.19328 0.9668 0.0
H2422 H 0.08991 0.24347 0.97271 0.0
H2423 H 0.98503 0.06344 0.95725 0.0
H2424 H 0.4052 0.31184 0.29942 0.0
H2425 H 0.42721 0.30675 0.27489 0.0
H2426 H 0.37615 0.29713 0.23636 0.0
H2427 H 0.35414 0.30249 0.26072 0.0
H2428 H 0.40422 0.26791 0.2334 0.0
H2429 H 0.4024 0.33915 0.23758 0.0
H2430 H 0.40612 0.37264 0.25344 0.0
H2431 H 0.46772 0.36591 0.26765 0.0
H2432 H 0.46428 0.33224 0.25209 0.0
H2433 H 0.45048 0.26313 0.15324 0.0
H2434 H 0.42963 0.27519 0.17652 0.0
H2435 H 0.48215 0.29563 0.21113 0.0
H2436 H 0.5031 0.2844 0.18729 0.0
H2437 H 0.45405 0.31976 0.21692 0.0
H2438 H 0.4571 0.24945 0.2142 0.0
H2439 H 0.45474 0.2154 0.19958 0.0
H2440 H 0.39271 0.21909 0.18484 0.0
H2441 H 0.39477 0.2533 0.19915 0.0
C2442 C 0.39872 0.3087 0.28569 0.0
C2443 C 0.37801 0.30764 0.28196 0.0
C2444 C 0.41128 0.30587 0.27172 0.0
C2445 C 0.4033 0.30171 0.25381 0.0
C2446 C 0.38259 0.30041 0.25008 0.0
C2447 C 0.37005 0.30351 0.26401 0.0
C2448 C 0.41648 0.29815 0.23899 0.0
C2449 C 0.41493 0.27932 0.22961 0.0
C2450 C 0.43092 0.31284 0.23453 0.0
C2451 C 0.43303 0.3331 0.24383 0.0
C2452 C 0.41669 0.34474 0.24423 0.0
C2453 C 0.41876 0.36377 0.25313 0.0
C2454 C 0.43713 0.37138 0.26159 0.0
C2455 C 0.45349 0.35999 0.26112 0.0
C2456 C 0.45149 0.34094 0.25224 0.0
C2457 C 0.45754 0.27065 0.16564 0.0
C2458 C 0.47833 0.27283 0.16856 0.0
C2459 C 0.44564 0.2774 0.179 0.0
C2460 C 0.45429 0.28576 0.19582 0.0
C2461 C 0.47512 0.2891 0.19832 0.0
C2462 C 0.48707 0.28275 0.18472 0.0
C2463 C 0.44162 0.28955 0.21109 0.0
C2464 C 0.44333 0.30834 0.22065 0.0
C2465 C 0.42752 0.2747 0.21598 0.0
C2466 C 0.42614 0.254 0.20761 0.0
C2467 C 0.44298 0.24304 0.20776 0.0
C2468 C 0.4417 0.22371 0.19953 0.0
C2469 C 0.4236 0.2151 0.19125 0.0
C2470 C 0.40673 0.22579 0.19124 0.0
C2471 C 0.40794 0.24514 0.19942 0.0
H2472 H 0.42264 0.20014 0.18488 0.0
H2473 H 0.4387 0.38612 0.26848 0.0
H2474 H 0.53362 0.42171 0.99676 0.0
H2475 H 0.52531 0.39367 0.01465 0.0
H2476 H 0.56569 0.42052 0.05863 0.0
H2477 H 0.57394 0.44855 0.04088 0.0
H2478 H 0.57059 0.38071 0.05064 0.0
H2479 H 0.51701 0.42244 0.06112 0.0
H2480 H 0.48878 0.44131 0.05187 0.0
H2481 H 0.4578 0.38807 0.02568 0.0
H2482 H 0.48599 0.36893 0.03457 0.0
H2483 H 0.54689 0.32371 0.12203 0.0
H2484 H 0.55144 0.3515 0.10328 0.0
H2485 H 0.50499 0.3242 0.0647 0.0
H2486 H 0.49999 0.29657 0.08369 0.0
H2487 H 0.50244 0.363 0.06816 0.0
H2488 H 0.55447 0.32084 0.05758 0.0
H2489 H 0.5825 0.30114 0.06557 0.0
H2490 H 0.61627 0.35375 0.08991 0.0
H2491 H 0.58833 0.37374 0.0823 0.0
C2492 C 0.54068 0.42164 0.01025 0.0
C2493 C 0.55444 0.4373 0.01747 0.0
C2494 C 0.53587 0.40565 0.02047 0.0
C2495 C 0.54483 0.40506 0.038 0.0
C2496 C 0.55862 0.42067 0.04514 0.0
C2497 C 0.56328 0.43668 0.03502 0.0
C2498 C 0.54017 0.3881 0.04893 0.0
C2499 C 0.55573 0.37696 0.05465 0.0
C2500 C 0.52067 0.38282 0.05363 0.0
C2501 C 0.5037 0.3943 0.04834 0.0
C2502 C 0.50425 0.41479 0.05326 0.0
C2503 C 0.48824 0.42553 0.0481 0.0
C2504 C 0.47153 0.4159 0.03814 0.0
C2505 C 0.47077 0.39551 0.03336 0.0
C2506 C 0.48675 0.38471 0.03847 0.0
C2507 C 0.5375 0.3237 0.10965 0.0
C2508 C 0.52317 0.30787 0.10429 0.0
C2509 C 0.54019 0.33956 0.09887 0.0
C2510 C 0.52886 0.33976 0.08236 0.0
C2511 C 0.51399 0.32435 0.07733 0.0
C2512 C 0.51116 0.30855 0.0882 0.0
C2513 C 0.53295 0.35576 0.07016 0.0
C2514 C 0.51729 0.36668 0.06413 0.0
C2515 C 0.55235 0.36071 0.06496 0.0
C2516 C 0.56923 0.34875 0.06952 0.0
C2517 C 0.56782 0.32819 0.06476 0.0
C2518 C 0.5837 0.31697 0.0692 0.0
C2519 C 0.60113 0.32618 0.07828 0.0
C2520 C 0.60275 0.34663 0.0829 0.0
C2521 C 0.5869 0.35792 0.07851 0.0
H2522 H 0.61341 0.31747 0.0817 0.0
H2523 H 0.45915 0.42424 0.03417 0.0
H2524 H 0.66498 0.19272 0.28449 0.0
H2525 H 0.63647 0.19986 0.2646 0.0
H2526 H 0.67503 0.2088 0.22167 0.0
H2527 H 0.70361 0.20133 0.24145 0.0
H2528 H 0.64854 0.23985 0.22878 0.0
H2529 H 0.64718 0.16849 0.21806 0.0
H2530 H 0.64647 0.1343 0.22735 0.0
H2531 H 0.59159 0.14196 0.25176 0.0
H2532 H 0.59212 0.17631 0.24282 0.0
H2533 H 0.5773 0.24536 0.15591 0.0
H2534 H 0.60508 0.23794 0.17625 0.0
H2535 H 0.56391 0.21309 0.21194 0.0
H2536 H 0.53604 0.21957 0.19107 0.0
H2537 H 0.59178 0.19036 0.2095 0.0
H2538 H 0.59169 0.26052 0.22116 0.0
H2539 H 0.59166 0.29544 0.21398 0.0
H2540 H 0.64782 0.29165 0.19089 0.0
H2541 H 0.64806 0.25661 0.19772 0.0
C2542 C 0.66737 0.19611 0.27079 0.0
C2543 C 0.6865 0.19653 0.26448 0.0
C2544 C 0.65108 0.20015 0.25945 0.0
C2545 C 0.65368 0.20486 0.24169 0.0
C2546 C 0.67276 0.20523 0.23535 0.0
C2547 C 0.68901 0.20089 0.24661 0.0
C2548 C 0.63652 0.2097 0.22983 0.0
C2549 C 0.63621 0.22901 0.22433 0.0
C2550 C 0.62018 0.19571 0.22465 0.0
C2551 C 0.6198 0.17503 0.22993 0.0
C2552 C 0.63505 0.16294 0.22554 0.0
C2553 C 0.63466 0.14352 0.23072 0.0
C2554 C 0.61902 0.13598 0.24018 0.0
C2555 C 0.60371 0.14783 0.24445 0.0
C2556 C 0.60404 0.16727 0.23932 0.0
C2557 C 0.57415 0.23848 0.16818 0.0
C2558 C 0.55447 0.23317 0.17195 0.0
C2559 C 0.59008 0.23431 0.17987 0.0
C2560 C 0.58668 0.22527 0.19588 0.0
C2561 C 0.56698 0.22008 0.19971 0.0
C2562 C 0.55104 0.22386 0.18781 0.0
C2563 C 0.60367 0.22064 0.20826 0.0
C2564 C 0.604 0.20133 0.21391 0.0
C2565 C 0.61987 0.23479 0.21389 0.0
C2566 C 0.6198 0.25588 0.2098 0.0
C2567 C 0.60397 0.26709 0.21443 0.0
C2568 C 0.60392 0.28691 0.21045 0.0
C2569 C 0.6197 0.29574 0.20195 0.0
C2570 C 0.63559 0.28478 0.19746 0.0
C2571 C 0.6357 0.26494 0.2014 0.0
H2572 H 0.61964 0.31109 0.19887 0.0
H2573 H 0.61875 0.12095 0.24417 0.0
H2574 H 0.49767 0.06088 0.02557 0.0
H2575 H 0.50318 0.09201 0.04464 0.0
H2576 H 0.5086 0.12443 0.99732 0.0
H2577 H 0.50325 0.09316 0.97811 0.0
H2578 H 0.53517 0.13992 0.02452 0.0
H2579 H 0.46489 0.12371 0.01689 0.0
H2580 H 0.4341 0.1016 0.0163 0.0
H2581 H 0.44627 0.09298 0.07239 0.0
H2582 H 0.47734 0.11474 0.07319 0.0
H2583 H 0.4882 0.21889 0.08893 0.0
H2584 H 0.48449 0.19088 0.06585 0.0
H2585 H 0.54414 0.17651 0.08121 0.0
H2586 H 0.54809 0.20523 0.10358 0.0
H2587 H 0.48307 0.15419 0.06624 0.0
H2588 H 0.56544 0.15354 0.04735 0.0
H2589 H 0.59419 0.17754 0.04471 0.0
H2590 H 0.55496 0.2236 0.03702 0.0
H2591 H 0.52598 0.19983 0.03936 0.0
C2592 C 0.5001 0.07463 0.01923 0.0
C2593 C 0.49981 0.07463 1.00035 0.0
C2594 C 0.50326 0.0924 0.03013 0.0
C2595 C 0.50594 0.11056 0.02238 0.0
C2596 C 0.50651 0.11057 1.00357 0.0
C2597 C 0.50348 0.09273 0.99262 0.0
C2598 C 0.5072 0.12947 0.03395 0.0
C2599 C 0.52389 0.14304 0.03376 0.0
C2600 C 0.49211 0.13386 0.04549 0.0
C2601 C 0.47337 0.12092 0.04513 0.0
C2602 C 0.461 0.11706 0.02908 0.0
C2603 C 0.44353 0.10457 0.0287 0.0
C2604 C 0.43821 0.09592 0.0443 0.0
C2605 C 0.45037 0.09974 0.06033 0.0
C2606 C 0.46789 0.1122 0.06077 0.0
C2607 C 0.50045 0.20967 0.08731 0.0
C2608 C 0.51827 0.21382 0.09817 0.0
C2609 C 0.49837 0.1937 0.07412 0.0
C2610 C 0.5141 0.18161 0.07156 0.0
C2611 C 0.53193 0.18583 0.08254 0.0
C2612 C 0.53415 0.20208 0.09544 0.0
C2613 C 0.51168 0.16434 0.05774 0.0
C2614 C 0.49461 0.15109 0.05732 0.0
C2615 C 0.52621 0.16056 0.04534 0.0
C2616 C 0.54355 0.17492 0.0437 0.0
C2617 C 0.56295 0.16876 0.04501 0.0
C2618 C 0.57929 0.18233 0.04358 0.0
C2619 C 0.57641 0.20209 0.04075 0.0
C2620 C 0.55718 0.20831 0.03928 0.0
C2621 C 0.54079 0.19479 0.04067 0.0
H2622 H 0.58907 0.21257 0.03967 0.0
H2623 H 0.42468 0.08626 0.04397 0.0
H2624 H 0.2328 0.37831 0.70391 0.0
H2625 H 0.2575 0.40692 0.70891 0.0
H2626 H 0.30455 0.36729 0.7103 0.0
H2627 H 0.27987 0.3388 0.70438 0.0
H2628 H 0.28258 0.42017 0.7343 0.0
H2629 H 0.34695 0.38807 0.69631 0.0
H2630 H 0.35134 0.36474 0.67011 0.0
H2631 H 0.29341 0.37467 0.6469 0.0
H2632 H 0.28879 0.39828 0.67281 0.0
H2633 H 0.3731 0.47409 0.76298 0.0
H2634 H 0.34569 0.44893 0.75442 0.0
H2635 H 0.34582 0.46406 0.69912 0.0
H2636 H 0.37413 0.48873 0.7077 0.0
H2637 H 0.34219 0.42602 0.69924 0.0
H2638 H 0.30879 0.47762 0.72771 0.0
H2639 H 0.30285 0.50327 0.75157 0.0
H2640 H 0.29527 0.45863 0.78902 0.0
H2641 H 0.30144 0.43273 0.76546 0.0
C2642 C 0.24844 0.3758 0.70528 0.0
C2643 C 0.25451 0.35644 0.70368 0.0
C2644 C 0.26255 0.39212 0.70814 0.0
C2645 C 0.28297 0.38936 0.70968 0.0
C2646 C 0.28896 0.36991 0.70863 0.0
C2647 C 0.27488 0.35362 0.70539 0.0
C2648 C 0.29795 0.40678 0.7127 0.0
C2649 C 0.29555 0.42145 0.72656 0.0
C2650 C 0.31472 0.40881 0.70237 0.0
C2651 C 0.31745 0.39479 0.68661 0.0
C2652 C 0.33518 0.38534 0.68558 0.0
C2653 C 0.33771 0.37205 0.67078 0.0
C2654 C 0.32264 0.36817 0.65688 0.0
C2655 C 0.30504 0.37763 0.65771 0.0
C2656 C 0.30245 0.39095 0.67246 0.0
C2657 C 0.36739 0.47185 0.74896 0.0
C2658 C 0.37608 0.48271 0.73584 0.0
C2659 C 0.35151 0.45771 0.74412 0.0
C2660 C 0.34351 0.45466 0.72613 0.0
C2661 C 0.35179 0.46606 0.71307 0.0
C2662 C 0.36787 0.48015 0.71794 0.0
C2663 C 0.32695 0.43914 0.72101 0.0
C2664 C 0.3291 0.4248 0.70684 0.0
C2665 C 0.30964 0.43774 0.73066 0.0
C2666 C 0.30569 0.45324 0.74483 0.0
C2667 C 0.30596 0.47328 0.74106 0.0
C2668 C 0.30254 0.48787 0.75453 0.0
C2669 C 0.29871 0.48259 0.77181 0.0
C2670 C 0.29824 0.4627 0.77563 0.0
C2671 C 0.30166 0.44805 0.76222 0.0
H2672 H 0.29608 0.4939 0.78222 0.0
H2673 H 0.32462 0.35786 0.64545 0.0
H2674 H 0.25417 0.6468 0.80854 0.0
H2675 H 0.28096 0.62505 0.80349 0.0
H2676 H 0.32449 0.6748 0.81659 0.0
H2677 H 0.29768 0.69659 0.82206 0.0
H2678 H 0.32796 0.64849 0.78228 0.0
H2679 H 0.32272 0.6468 0.84645 0.0
H2680 H 0.30446 0.64265 0.87362 0.0
H2681 H 0.28437 0.58289 0.85369 0.0
H2682 H 0.30226 0.58679 0.82625 0.0
H2683 H 0.40801 0.58719 0.777 0.0
H2684 H 0.38694 0.61278 0.78768 0.0
H2685 H 0.34116 0.5673 0.7964 0.0
H2686 H 0.36256 0.54179 0.78671 0.0
H2687 H 0.34106 0.59432 0.82164 0.0
H2688 H 0.34159 0.59525 0.7572 0.0
H2689 H 0.35659 0.59794 0.72813 0.0
H2690 H 0.38179 0.65681 0.74592 0.0
H2691 H 0.36713 0.65437 0.77519 0.0
C2692 C 0.26946 0.65307 0.81033 0.0
C2693 C 0.27391 0.67334 0.81567 0.0
C2694 C 0.28471 0.64066 0.8075 0.0
C2695 C 0.30465 0.64835 0.80971 0.0
C2696 C 0.30917 0.66863 0.81484 0.0
C2697 C 0.2939 0.681 0.81802 0.0
C2698 C 0.32068 0.63508 0.8065 0.0
C2699 C 0.33116 0.63686 0.79104 0.0
C2700 C 0.32431 0.61959 0.81765 0.0
C2701 C 0.31369 0.61715 0.83422 0.0
C2702 C 0.31427 0.63283 0.84778 0.0
C2703 C 0.30401 0.63051 0.86325 0.0
C2704 C 0.29323 0.61253 0.86536 0.0
C2705 C 0.29272 0.59681 0.85203 0.0
C2706 C 0.30293 0.59906 0.83653 0.0
C2707 C 0.39355 0.5827 0.78143 0.0
C2708 C 0.38691 0.5625 0.78096 0.0
C2709 C 0.38143 0.59733 0.7874 0.0
C2710 C 0.3622 0.59206 0.79248 0.0
C2711 C 0.35588 0.57184 0.79256 0.0
C2712 C 0.36814 0.55723 0.78698 0.0
C2713 C 0.34835 0.60744 0.79718 0.0
C2714 C 0.33817 0.60606 0.81292 0.0
C2715 C 0.34464 0.62303 0.78602 0.0
C2716 C 0.35347 0.62453 0.76845 0.0
C2717 C 0.35045 0.60871 0.75495 0.0
C2718 C 0.35887 0.6102 0.73844 0.0
C2719 C 0.37019 0.62751 0.7352 0.0
C2720 C 0.37306 0.64339 0.74846 0.0
C2721 C 0.36469 0.64197 0.76501 0.0
H2722 H 0.37669 0.62863 0.72241 0.0
H2723 H 0.28529 0.61077 0.87735 0.0
H2724 H 0.96424 0.48876 0.47842 0.0
H2725 H 0.93414 0.46889 0.48482 0.0
H2726 H 0.90679 0.52236 0.50042 0.0
H2727 H 0.93646 0.54232 0.49361 0.0
H2728 H 0.8999 0.49277 0.52383 0.0
H2729 H 0.89563 0.50089 0.45971 0.0
H2730 H 0.90753 0.49855 0.42912 0.0
H2731 H 0.90857 0.4354 0.4304 0.0
H2732 H 0.89694 0.43743 0.46113 0.0
H2733 H 0.79687 0.44561 0.48156 0.0
H2734 H 0.82823 0.46579 0.48188 0.0
H2735 H 0.85325 0.43331 0.52435 0.0
H2736 H 0.82165 0.41292 0.5242 0.0
H2737 H 0.86246 0.45126 0.47308 0.0
H2738 H 0.89153 0.46537 0.54782 0.0
H2739 H 0.87857 0.46943 0.57793 0.0
H2740 H 0.82542 0.49104 0.5545 0.0
H2741 H 0.83818 0.48736 0.5243 0.0
C2742 C 0.9518 0.49631 0.48313 0.0
C2743 C 0.95281 0.51717 0.48547 0.0
C2744 C 0.93468 0.48492 0.48692 0.0
C2745 C 0.91826 0.49417 0.49311 0.0
C2746 C 0.91937 0.51492 0.49583 0.0
C2747 C 0.93639 0.5263 0.49195 0.0
C2748 C 0.89944 0.4824 0.49573 0.0
C2749 C 0.89175 0.48357 0.51279 0.0
C2750 C 0.88874 0.47058 0.48127 0.0
C2751 C 0.89564 0.46934 0.46278 0.0
C2752 C 0.89856 0.48653 0.45353 0.0
C2753 C 0.90522 0.48526 0.43616 0.0
C2754 C 0.90886 0.46685 0.42784 0.0
C2755 C 0.90579 0.44966 0.43687 0.0
C2756 C 0.89915 0.45086 0.45426 0.0
C2757 C 0.80889 0.44292 0.49122 0.0
C2758 C 0.80678 0.42751 0.50275 0.0
C2759 C 0.82685 0.45446 0.49133 0.0
C2760 C 0.84314 0.45093 0.50299 0.0
C2761 C 0.84083 0.43632 0.51528 0.0
C2762 C 0.82274 0.42474 0.51521 0.0
C2763 C 0.86277 0.46167 0.50118 0.0
C2764 C 0.87067 0.46025 0.48423 0.0
C2765 C 0.87349 0.47341 0.51569 0.0
C2766 C 0.86572 0.47586 0.53379 0.0
C2767 C 0.8771 0.47103 0.54911 0.0
C2768 C 0.86979 0.47326 0.56619 0.0
C2769 C 0.85115 0.48041 0.56812 0.0
C2770 C 0.83982 0.48542 0.55298 0.0
C2771 C 0.84707 0.48323 0.53587 0.0
H2772 H 0.84551 0.48212 0.58135 0.0
H2773 H 0.91402 0.46589 0.41439 0.0
H2774 H 0.81174 0.87898 0.81113 0.0
H2775 H 0.78595 0.90145 0.80448 0.0
H2776 H 0.74075 0.85312 0.80494 0.0
H2777 H 0.76654 0.83058 0.81185 0.0
H2778 H 0.73782 0.87668 0.77389 0.0
H2779 H 0.74417 0.88471 0.8388 0.0
H2780 H 0.76261 0.89118 0.86865 0.0
H2781 H 0.78386 0.94901 0.85488 0.0
H2782 H 0.76577 0.94276 0.82482 0.0
H2783 H 0.6581 0.93821 0.76434 0.0
H2784 H 0.67983 0.91355 0.77496 0.0
H2785 H 0.72632 0.96008 0.79075 0.0
H2786 H 0.70431 0.98478 0.781 0.0
H2787 H 0.72697 0.93546 0.81477 0.0
H2788 H 0.7244 0.92787 0.74998 0.0
H2789 H 0.70848 0.92226 0.71902 0.0
H2790 H 0.68312 0.86513 0.73091 0.0
H2791 H 0.69871 0.87051 0.76203 0.0
C2792 C 0.7963 0.87318 0.80986 0.0
C2793 C 0.79111 0.85306 0.81201 0.0
C2794 C 0.7816 0.88602 0.80613 0.0
C2795 C 0.76145 0.87894 0.80428 0.0
C2796 C 0.75621 0.85885 0.80636 0.0
C2797 C 0.77091 0.84605 0.81039 0.0
C2798 C 0.74598 0.89252 0.79978 0.0
C2799 C 0.73516 0.88936 0.78292 0.0
C2800 C 0.74299 0.90934 0.81138 0.0
C2801 C 0.75375 0.91319 0.8295 0.0
C2802 C 0.7529 0.89874 0.84208 0.0
C2803 C 0.76327 0.90238 0.85905 0.0
C2804 C 0.77443 0.92048 0.86365 0.0
C2805 C 0.77522 0.93499 0.8513 0.0
C2806 C 0.76489 0.93142 0.8343 0.0
C2807 C 0.67292 0.94316 0.77018 0.0
C2808 C 0.67953 0.96342 0.77177 0.0
C2809 C 0.68539 0.92904 0.77615 0.0
C2810 C 0.70493 0.93484 0.78334 0.0
C2811 C 0.71136 0.95515 0.78525 0.0
C2812 C 0.69876 0.96928 0.77963 0.0
C2813 C 0.71884 0.91986 0.78868 0.0
C2814 C 0.72943 0.92274 0.80572 0.0
C2815 C 0.72191 0.90296 0.77708 0.0
C2816 C 0.71253 0.89969 0.75838 0.0
C2817 C 0.71531 0.91417 0.74603 0.0
C2818 C 0.70636 0.91102 0.72845 0.0
C2819 C 0.69474 0.89337 0.72302 0.0
C2820 C 0.69209 0.87881 0.73515 0.0
C2821 C 0.70098 0.8819 0.75275 0.0
H2822 H 0.68784 0.89096 0.70941 0.0
H2823 H 0.78245 0.92327 0.87679 0.0
H2824 H 0.61383 0.50906 0.9477 0.0
H2825 H 0.64315 0.53181 0.956 0.0
H2826 H 0.63214 0.53027 0.01228 0.0
H2827 H 0.60181 0.50893 1.004 0.0
H2828 H 0.64085 0.56569 0.00687 0.0
H2829 H 0.67206 0.50706 0.99204 0.0
H2830 H 0.67916 0.47673 0.97403 0.0
H2831 H 0.69799 0.5117 0.93164 0.0
H2832 H 0.69074 0.54223 0.94928 0.0
H2833 H 0.73482 0.62496 0.02854 0.0
H2834 H 0.70809 0.59848 0.02706 0.0
H2835 H 0.70617 0.59455 0.96887 0.0
H2836 H 0.73476 0.61913 0.97057 0.0
H2837 H 0.70537 0.55953 0.9801 0.0
H2838 H 0.64918 0.6098 0.99493 0.0
H2839 H 0.63961 0.638 0.01462 0.0
H2840 H 0.66929 0.61526 0.06057 0.0
H2841 H 0.67867 0.58686 0.04111 0.0
C2842 C 0.61748 0.51366 0.96185 0.0
C2843 C 0.60524 0.50714 0.97513 0.0
C2844 C 0.63455 0.52643 0.96662 0.0
C2845 C 0.64016 0.53257 0.98483 0.0
C2846 C 0.62824 0.52573 0.99814 0.0
C2847 C 0.61095 0.51329 0.99337 0.0
C2848 C 0.65763 0.54717 0.98984 0.0
C2849 C 0.65507 0.5641 1.00123 0.0
C2850 C 0.67627 0.54526 0.98261 0.0
C2851 C 0.68072 0.52693 0.97195 0.0
C2852 C 0.67759 0.50828 0.97882 0.0
C2853 C 0.68166 0.49105 0.96869 0.0
C2854 C 0.68899 0.49229 0.95169 0.0
C2855 C 0.6923 0.51077 0.94481 0.0
C2856 C 0.68824 0.52804 0.95488 0.0
C2857 C 0.72839 0.61865 0.01544 0.0
C2858 C 0.73611 0.62486 0.99959 0.0
C2859 C 0.71276 0.60375 0.01459 0.0
C2860 C 0.70418 0.59508 0.99784 0.0
C2861 C 0.71212 0.60123 0.982 0.0
C2862 C 0.72822 0.61558 0.98291 0.0
C2863 C 0.68832 0.57836 0.99655 0.0
C2864 C 0.69121 0.56095 0.98587 0.0
C2865 C 0.67017 0.57952 0.00486 0.0
C2866 C 0.66562 0.59699 0.01643 0.0
C2867 C 0.65403 0.61116 0.00917 0.0
C2868 C 0.64842 0.62701 0.02031 0.0
C2869 C 0.65416 0.62864 0.03878 0.0
C2870 C 0.66516 0.6142 0.0462 0.0
C2871 C 0.67061 0.59824 0.03512 0.0
H2872 H 0.64986 0.64094 0.04737 0.0
H2873 H 0.69213 0.47893 0.94387 0.0
H2874 H 0.27364 0.67398 0.1945 0.0
H2875 H 0.24827 0.64776 0.19971 0.0
H2876 H 0.29412 0.60919 0.21279 0.0
H2877 H 0.31954 0.63509 0.20704 0.0
H2878 H 0.26365 0.58873 0.19322 0.0
H2879 H 0.27247 0.63424 0.2462 0.0
H2880 H 0.27408 0.66688 0.26352 0.0
H2881 H 0.21341 0.67345 0.24553 0.0
H2882 H 0.21157 0.641 0.22784 0.0
H2883 H 0.19059 0.54782 0.26186 0.0
H2884 H 0.21641 0.57221 0.25392 0.0
H2885 H 0.19849 0.55778 0.19736 0.0
H2886 H 0.17329 0.53265 0.20543 0.0
H2887 H 0.21649 0.6043 0.23933 0.0
H2888 H 0.23671 0.56558 0.17144 0.0
H2889 H 0.23794 0.53167 0.15721 0.0
H2890 H 0.2446 0.50926 0.2095 0.0
H2891 H 0.24367 0.54306 0.22404 0.0
C2892 C 0.27831 0.65979 0.19817 0.0
C2893 C 0.29861 0.65666 0.20049 0.0
C2894 C 0.2638 0.64489 0.20129 0.0
C2895 C 0.26931 0.62661 0.20687 0.0
C2896 C 0.28953 0.62319 0.20854 0.0
C2897 C 0.30404 0.63807 0.20541 0.0
C2898 C 0.2541 0.61139 0.21175 0.0
C2899 C 0.25315 0.59215 0.20315 0.0
C2900 C 0.24081 0.6157 0.22509 0.0
C2901 C 0.24193 0.63527 0.23561 0.0
C2902 C 0.25952 0.64272 0.24583 0.0
C2903 C 0.26047 0.66118 0.25572 0.0
C2904 C 0.24387 0.67225 0.2556 0.0
C2905 C 0.22627 0.66487 0.24561 0.0
C2906 C 0.22526 0.64644 0.23566 0.0
C2907 C 0.19219 0.54997 0.24775 0.0
C2908 C 0.17981 0.53878 0.23422 0.0
C2909 C 0.20694 0.56387 0.2432 0.0
C2910 C 0.20959 0.56679 0.22501 0.0
C2911 C 0.19708 0.55556 0.21147 0.0
C2912 C 0.18258 0.54135 0.21605 0.0
C2913 C 0.22533 0.58169 0.22031 0.0
C2914 C 0.22655 0.60088 0.22906 0.0
C2915 C 0.23913 0.57718 0.20741 0.0
C2916 C 0.23991 0.55682 0.19881 0.0
C2917 C 0.23851 0.55342 0.17989 0.0
C2918 C 0.23914 0.53422 0.17178 0.0
C2919 C 0.24128 0.51831 0.18244 0.0
C2920 C 0.24287 0.52158 0.20126 0.0
C2921 C 0.24226 0.54075 0.20944 0.0
H2922 H 0.24175 0.50345 0.17613 0.0
H2923 H 0.24463 0.68653 0.26328 0.0
H2924 H 0.96811 0.54992 0.04638 0.0
H2925 H 0.94239 0.57218 0.03922 0.0
H2926 H 0.90606 0.52333 0.01036 0.0
H2927 H 0.93139 0.50083 0.01787 0.0
H2928 H 0.90805 0.5572 0.9914 0.0
H2929 H 0.89468 0.5395 0.05102 0.0
H2930 H 0.90308 0.5357 0.08325 0.0
H2931 H 0.91875 0.5984 0.0926 0.0
H2932 H 0.91071 0.60253 0.06035 0.0
H2933 H 0.81641 0.60262 0.98347 0.0
H2934 H 0.84331 0.58107 0.98864 0.0
H2935 H 0.87543 0.62744 0.02451 0.0
H2936 H 0.84826 0.6487 0.0199 0.0
H2937 H 0.87606 0.59471 0.03967 0.0
H2938 H 0.88957 0.61312 0.98062 0.0
H2939 H 0.88205 0.6175 0.94836 0.0
H2940 H 0.86731 0.55478 0.93774 0.0
H2941 H 0.8745 0.55004 0.96998 0.0
C2942 C 0.95456 0.54381 0.03871 0.0
C2943 C 0.95187 0.5235 0.03275 0.0
C2944 C 0.93991 0.55661 0.03453 0.0
C2945 C 0.92227 0.5494 0.0243 0.0
C2946 C 0.9196 0.52923 0.01819 0.0
C2947 C 0.93416 0.5164 0.02245 0.0
C2948 C 0.90653 0.56287 0.02008 0.0
C2949 C 0.90087 0.56526 1.00193 0.0
C2950 C 0.89753 0.57373 0.03382 0.0
C2951 C 0.90229 0.57129 0.05323 0.0
C2952 C 0.90008 0.55245 0.05992 0.0
C2953 C 0.90474 0.55024 0.0782 0.0
C2954 C 0.9115 0.56678 0.08996 0.0
C2955 C 0.91354 0.58559 0.08347 0.0
C2956 C 0.90892 0.58787 0.06519 0.0
C2957 C 0.82933 0.6083 0.99225 0.0
C2958 C 0.83021 0.62736 1.00127 0.0
C2959 C 0.84477 0.59598 0.99517 0.0
C2960 C 0.86157 0.60263 0.00688 0.0
C2961 C 0.86264 0.62189 0.01548 0.0
C2962 C 0.84712 0.63408 0.01276 0.0
C2963 C 0.87755 0.58925 0.01091 0.0
C2964 C 0.88325 0.58679 0.02907 0.0
C2965 C 0.8867 0.57847 0.99715 0.0
C2966 C 0.8824 0.58126 0.97775 0.0
C2967 C 0.88459 0.60028 0.97143 0.0
C2968 C 0.8804 0.60282 0.95314 0.0
C2969 C 0.87416 0.58643 0.94102 0.0
C2970 C 0.87213 0.56746 0.94715 0.0
C2971 C 0.87627 0.56483 0.96542 0.0
H2972 H 0.87093 0.58844 0.92686 0.0
H2973 H 0.9151 0.56504 0.10411 0.0
H2974 H 0.08525 0.99303 0.06359 0.0
H2975 H 0.11145 0.97185 0.05529 0.0
H2976 H 0.14254 0.02097 0.03283 0.0
H2977 H 0.11701 0.04252 0.04177 0.0
H2978 H 0.137 0.98466 0.00962 0.0
H2979 H 0.16038 0.00853 0.07092 0.0
H2980 H 0.15707 0.01405 0.10364 0.0
H2981 H 0.1468 0.95122 0.10721 0.0
H2982 H 0.14977 0.94535 0.07444 0.0
H2983 H 0.22825 0.94642 0.99255 0.0
H2984 H 0.20235 0.96675 1.00291 0.0
H2985 H 0.18257 0.921 0.03642 0.0
H2986 H 0.20912 0.90101 0.02674 0.0
H2987 H 0.18096 0.95449 0.05415 0.0
H2988 H 0.15766 0.92921 0.9944 0.0
H2989 H 0.15921 0.92186 0.96162 0.0
H2990 H 0.16634 0.98422 0.95458 0.0
H2991 H 0.16515 0.99195 0.98737 0.0
C2992 C 0.09781 0.99948 0.05718 0.0
C2993 C 0.09889 0.01955 0.05332 0.0
C2994 C 0.11271 0.98728 0.05233 0.0
C2995 C 0.12889 0.99485 0.04341 0.0
C2996 C 0.13009 0.01482 0.03959 0.0
C2997 C 0.11538 0.02708 0.04464 0.0
C2998 C 0.1445 0.98194 0.03781 0.0
C2999 C 0.14679 0.97822 0.01932 0.0
C3000 C 0.15674 0.973 0.05049 0.0
C3001 C 0.15509 0.97652 0.0702 0.0
C3002 C 0.15724 0.9959 0.07865 0.0
C3003 C 0.15546 0.99909 0.09722 0.0
C3004 C 0.15167 0.983 0.10749 0.0
C3005 C 0.14971 0.96367 0.09923 0.0
C3006 C 0.15145 0.96041 0.08067 0.0
C3007 C 0.2184 0.94069 1.00214 0.0
C3008 C 0.22069 0.92206 0.00875 0.0
C3009 C 0.20349 0.95229 0.00799 0.0
C3010 C 0.19015 0.94528 0.02018 0.0
C3011 C 0.1926 0.92677 0.02699 0.0
C3012 C 0.20778 0.91533 0.02141 0.0
C3013 C 0.17371 0.95727 0.02583 0.0
C3014 C 0.17119 0.96081 0.04435 0.0
C3015 C 0.16095 0.96573 0.01314 0.0
C3016 C 0.16149 0.96115 0.99338 0.0
C3017 C 0.15968 0.94136 0.98588 0.0
C3018 C 0.16049 0.93712 0.9673 0.0
C3019 C 0.16291 0.95257 0.95603 0.0
C3020 C 0.16448 0.97228 0.96332 0.0
C3021 C 0.16373 0.97659 0.98191 0.0
H3022 H 0.16353 0.94926 0.94164 0.0
H3023 H 0.1503 0.9855 0.12186 0.0
loop_
_geom_bond_atom_site_label_1
_geom_bond_atom_site_label_2
_geom_bond_distance
_geom_bond_site_symmetry_2
_ccdc_geom_bond_type
H0 C5 0.930 . S
H1 C8 0.930 . S
H2 C10 0.930 . S
H3 C4 1.016 1_556 S
C4 H3 1.016 1_554 S
C4 N11 1.286 . S
C5 H0 0.930 . S
C5 C6 1.397 . S
C5 C7 1.361 . S
C6 C5 1.397 . S
C6 C10 1.390 . S
C7 C5 1.361 . S
C7 C8 1.393 . S
C7 N11 1.413 . S
C8 H1 0.930 . S
C8 C7 1.393 . S
C8 C9 1.399 . S
C9 C8 1.399 . S
C9 C10 1.381 . S
C10 H2 0.930 . S
C10 C6 1.390 . S
C10 C9 1.381 . S
N11 C4 1.286 . S
N11 C7 1.413 . S
H12 C17 0.930 . S
H13 C20 0.930 . S
H14 C22 0.930 . S
H15 C16 1.016 . S
C16 H15 1.016 . S
C16 N23 1.286 . S
C17 H12 0.930 . S
C17 C18 1.397 . S
C17 C19 1.361 . S
C18 C17 1.397 . S
C18 C22 1.390 . S
C19 C17 1.361 . S
C19 C20 1.393 . S
C19 N23 1.413 . S
C20 H13 0.930 . S
C20 C19 1.393 . S
C20 C21 1.399 . S
C21 C20 1.399 . S
C21 C22 1.381 . S
C22 H14 0.930 . S
C22 C18 1.390 . S
C22 C21 1.381 . S
N23 C16 1.286 . S
N23 C19 1.413 . S
H24 C29 0.930 . S
H25 C32 0.930 . S
H26 C34 0.930 . S
H27 C28 1.016 . S
C28 H27 1.016 . S
C28 N35 1.286 . S
C29 H24 0.930 . S
C29 C30 1.397 . S
C29 C31 1.361 . S
C30 C29 1.397 . S
C30 C34 1.390 . S
C31 C29 1.361 . S
C31 C32 1.393 . S
C31 N35 1.413 . S
C32 H25 0.930 . S
C32 C31 1.393 . S
C32 C33 1.399 . S
C33 C32 1.399 . S
C33 C34 1.381 . S
C34 H26 0.930 . S
C34 C30 1.390 . S
C34 C33 1.381 . S
N35 C28 1.286 . S
N35 C31 1.413 . S
H36 C41 0.930 . S
H37 C44 0.930 . S
H38 C46 0.930 . S
H39 C40 1.016 . S
C40 H39 1.016 . S
C40 N47 1.286 . S
C41 H36 0.930 . S
C41 C42 1.397 . S
C41 C43 1.361 . S
C42 C41 1.397 . S
C42 C46 1.390 . S
C43 C41 1.361 . S
C43 C44 1.393 . S
C43 N47 1.413 . S
C44 H37 0.930 . S
C44 C43 1.393 . S
C44 C45 1.399 . S
C45 C44 1.399 . S
C45 C46 1.381 . S
C46 H38 0.930 . S
C46 C42 1.390 . S
C46 C45 1.381 . S
N47 C40 1.286 . S
N47 C43 1.413 . S
H48 C53 0.930 . S
H49 C56 0.930 . S
H50 C58 0.930 1_545 S
H51 C52 1.016 . S
C52 H51 1.016 . S
C52 N59 1.286 . S
C53 H48 0.930 . S
C53 C54 1.397 . S
C53 C55 1.361 . S
C54 C53 1.397 . S
C54 C58 1.390 . S
C55 C53 1.361 . S
C55 C56 1.393 . S
C55 N59 1.413 . S
C56 H49 0.930 . S
C56 C55 1.393 . S
C56 C57 1.399 . S
C57 C56 1.399 . S
C57 C58 1.381 . S
C58 H50 0.930 1_565 S
C58 C54 1.390 . S
C58 C57 1.381 . S
N59 C52 1.286 . S
N59 C55 1.413 . S
H60 C65 0.930 . S
H61 C68 0.930 . S
H62 C70 0.930 . S
H63 C64 1.016 . S
C64 H63 1.016 . S
C64 N71 1.286 . S
C65 H60 0.930 . S
C65 C66 1.397 . S
C65 C67 1.361 . S
C66 C65 1.397 . S
C66 C70 1.390 . S
C67 C65 1.361 . S
C67 C68 1.393 . S
C67 N71 1.413 . S
C68 H61 0.930 . S
C68 C67 1.393 . S
C68 C69 1.399 . S
C69 C68 1.399 . S
C69 C70 1.381 . S
C70 H62 0.930 . S
C70 C66 1.390 . S
C70 C69 1.381 . S
N71 C64 1.286 . S
N71 C67 1.413 . S
H72 C77 0.930 . S
H73 C80 0.930 . S
H74 C82 0.930 . S
H75 C76 1.016 . S
C76 H75 1.016 . S
C76 N83 1.286 . S
C77 H72 0.930 . S
C77 C78 1.397 1_455 S
C77 C79 1.360 1_455 S
C78 C77 1.397 1_655 S
C78 C82 1.390 . S
C79 C77 1.360 1_655 S
C79 C80 1.414 . S
C79 N83 1.393 1_655 S
C80 H73 0.930 . S
C80 C79 1.414 . S
C80 C81 1.399 . S
C81 C80 1.399 . S
C81 C82 1.381 . S
C82 H74 0.930 . S
C82 C78 1.390 . S
C82 C81 1.381 . S
N83 C76 1.286 . S
N83 C79 1.393 1_455 S
H84 C89 0.930 . S
H85 C92 0.930 . S
H86 C94 0.930 . S
H87 C88 1.016 . S
C88 H87 1.016 . S
C88 N95 1.286 . S
C89 H84 0.930 . S
C89 C90 1.397 . S
C89 C91 1.361 . S
C90 C89 1.397 . S
C90 C94 1.390 . S
C91 C89 1.361 . S
C91 C92 1.393 . S
C91 N95 1.413 . S
C92 H85 0.930 . S
C92 C91 1.393 . S
C92 C93 1.399 . S
C93 C92 1.399 . S
C93 C94 1.381 . S
C94 H86 0.930 . S
C94 C90 1.390 . S
C94 C93 1.381 . S
N95 C88 1.286 . S
N95 C91 1.413 . S
H96 C101 0.930 . S
H97 C104 0.930 . S
H98 C106 0.930 . S
H99 C100 1.016 . S
C100 H99 1.016 . S
C100 N107 1.286 . S
C101 H96 0.930 . S
C101 C102 1.397 . S
C101 C103 1.361 . S
C102 C101 1.397 . S
C102 C106 1.390 . S
C103 C101 1.361 . S
C103 C104 1.393 . S
C103 N107 1.413 . S
C104 H97 0.930 . S
C104 C103 1.393 . S
C104 C105 1.399 . S
C105 C104 1.399 . S
C105 C106 1.381 . S
C106 H98 0.930 . S
C106 C102 1.390 . S
C106 C105 1.381 . S
N107 C100 1.286 . S
N107 C103 1.413 . S
H108 C113 0.930 . S
H109 C116 0.930 . S
H110 C118 0.930 1_545 S
H111 C112 1.016 . S
C112 H111 1.016 . S
C112 N119 1.286 . S
C113 H108 0.930 . S
C113 C114 1.397 . S
C113 C115 1.361 . S
C114 C113 1.397 . S
C114 C118 1.390 . S
C115 C113 1.361 . S
C115 C116 1.393 . S
C115 N119 1.413 . S
C116 H109 0.930 . S
C116 C115 1.393 . S
C116 C117 1.399 . S
C117 C116 1.399 . S
C117 C118 1.381 . S
C118 H110 0.930 1_565 S
C118 C114 1.390 . S
C118 C117 1.381 . S
N119 C112 1.286 . S
N119 C115 1.413 . S
H120 C125 0.930 . S
H121 C128 0.930 . S
H122 C130 0.930 . S
H123 C124 1.016 . S
C124 H123 1.016 . S
C124 N131 1.286 . S
C125 H120 0.930 . S
C125 C126 1.397 . S
C125 C127 1.361 . S
C126 C125 1.397 . S
C126 C130 1.390 . S
C127 C125 1.361 . S
C127 C128 1.393 . S
C127 N131 1.413 . S
C128 H121 0.930 . S
C128 C127 1.393 . S
C128 C129 1.399 . S
C129 C128 1.399 . S
C129 C130 1.381 . S
C130 H122 0.930 . S
C130 C126 1.390 . S
C130 C129 1.381 . S
N131 C124 1.286 . S
N131 C127 1.413 . S
H132 C137 0.930 . S
H133 C140 0.930 . S
H134 C142 0.930 . S
H135 C136 1.016 . S
C136 H135 1.016 . S
C136 N143 1.286 . S
C137 H132 0.930 . S
C137 C138 1.397 . S
C137 C139 1.361 . S
C138 C137 1.397 . S
C138 C142 1.390 . S
C139 C137 1.361 . S
C139 C140 1.393 . S
C139 N143 1.413 . S
C140 H133 0.930 . S
C140 C139 1.393 . S
C140 C141 1.399 . S
C141 C140 1.399 . S
C141 C142 1.381 . S
C142 H134 0.930 . S
C142 C138 1.390 . S
C142 C141 1.381 . S
N143 C136 1.286 . S
N143 C139 1.413 . S
H144 C149 0.930 . S
H145 C152 0.930 . S
H146 C154 0.930 . S
H147 C148 1.016 . S
C148 H147 1.016 . S
C148 N155 1.286 . S
C149 H144 0.930 . S
C149 C150 1.397 . S
C149 C151 1.361 . S
C150 C149 1.397 . S
C150 C154 1.390 . S
C151 C149 1.361 . S
C151 C152 1.393 . S
C151 N155 1.413 . S
C152 H145 0.930 . S
C152 C151 1.393 . S
C152 C153 1.399 . S
C153 C152 1.399 . S
C153 C154 1.381 . S
C154 H146 0.930 . S
C154 C150 1.390 . S
C154 C153 1.381 . S
N155 C148 1.286 . S
N155 C151 1.413 . S
H156 C161 0.930 . S
H157 C164 0.930 . S
H158 C166 0.930 . S
H159 C160 1.016 1_554 S
C160 H159 1.016 1_556 S
C160 N167 1.286 . S
C161 H156 0.930 . S
C161 C162 1.397 . S
C161 C163 1.361 . S
C162 C161 1.397 . S
C162 C166 1.390 . S
C163 C161 1.361 . S
C163 C164 1.393 . S
C163 N167 1.413 . S
C164 H157 0.930 . S
C164 C163 1.393 . S
C164 C165 1.399 . S
C165 C164 1.399 . S
C165 C166 1.381 . S
C166 H158 0.930 . S
C166 C162 1.390 . S
C166 C165 1.381 . S
N167 C160 1.286 . S
N167 C163 1.413 . S
H168 C173 0.930 . S
H169 C176 0.930 . S
H170 C178 0.930 . S
H171 C172 1.016 . S
C172 H171 1.016 . S
C172 N179 1.286 . S
C173 H168 0.930 . S
C173 C174 1.397 . S
C173 C175 1.361 . S
C174 C173 1.397 . S
C174 C178 1.390 . S
C175 C173 1.361 . S
C175 C176 1.393 . S
C175 N179 1.413 . S
C176 H169 0.930 . S
C176 C175 1.393 . S
C176 C177 1.399 . S
C177 C176 1.399 . S
C177 C178 1.381 . S
C178 H170 0.930 . S
C178 C174 1.390 . S
C178 C177 1.381 . S
N179 C172 1.286 . S
N179 C175 1.413 . S
H180 C185 0.930 . S
H181 C188 0.930 . S
H182 C190 0.930 . S
H183 C184 1.016 . S
C184 H183 1.016 . S
C184 N191 1.286 . S
C185 H180 0.930 . S
C185 C186 1.397 . S
C185 C187 1.361 . S
C186 C185 1.397 . S
C186 C190 1.390 . S
C187 C185 1.361 . S
C187 C188 1.393 . S
C187 N191 1.413 . S
C188 H181 0.930 . S
C188 C187 1.393 . S
C188 C189 1.399 . S
C189 C188 1.399 . S
C189 C190 1.381 . S
C190 H182 0.930 . S
C190 C186 1.390 . S
C190 C189 1.381 . S
N191 C184 1.286 . S
N191 C187 1.413 . S
Mn192 O197 2.095 . S
Mn192 O207 2.162 . S
Mn192 O208 2.297 . S
Mn192 O216 2.385 . S
Mn192 O217 2.209 1_554 S
Mn192 O218 2.094 . S
Mn193 O198 2.121 . S
Mn193 N200 2.257 . S
Mn193 N209 2.282 . S
Mn193 O217 2.215 . S
Mn193 O219 2.117 1_556 S
C194 O216 1.234 1_556 S
C194 O217 1.283 . S
C195 O207 1.281 . S
C195 O208 1.236 . S
C196 O218 1.240 . S
C196 O219 1.264 . S
O197 Mn192 2.095 . S
O197 C206 1.250 . S
O198 Mn193 2.121 . S
O198 C206 1.258 1_556 S
C199 N200 1.326 . S
C199 C203 1.460 . S
C199 H205 0.929 . S
N200 Mn193 2.257 . S
N200 C199 1.326 . S
N200 C204 1.362 . S
C201 C202 1.258 . S
C201 C204 1.431 . S
C201 C221 1.449 . S
C202 C201 1.258 . S
C202 C203 1.477 . S
C202 H222 0.931 . S
C203 C199 1.460 . S
C203 C202 1.477 . S
C203 H223 0.930 . S
C204 N200 1.362 . S
C204 C201 1.431 . S
C204 C214 1.476 . S
H205 C199 0.929 . S
C206 O197 1.250 . S
C206 O198 1.258 1_554 S
O207 Mn192 2.162 . S
O207 C195 1.281 . S
O208 Mn192 2.297 . S
O208 C195 1.236 . S
N209 Mn193 2.282 . S
N209 C210 1.328 . S
N209 C214 1.318 . S
C210 N209 1.328 . S
C210 C211 1.457 . S
C210 H215 0.929 . S
C211 C210 1.457 . S
C211 C212 1.291 . S
C211 H224 0.931 . S
C212 C211 1.291 . S
C212 C213 1.373 . S
C212 H225 0.929 . S
C213 C212 1.373 . S
C213 C214 1.396 . S
C213 C220 1.403 . S
C214 C204 1.476 . S
C214 N209 1.318 . S
C214 C213 1.396 . S
H215 C210 0.929 . S
O216 Mn192 2.385 . S
O216 C194 1.234 1_554 S
O217 Mn192 2.209 1_556 S
O217 Mn193 2.215 . S
O217 C194 1.283 . S
O218 Mn192 2.094 . S
O218 C196 1.240 . S
O219 Mn193 2.117 1_554 S
O219 C196 1.264 . S
C220 C213 1.403 . S
C220 C221 1.399 . S
C220 H226 0.929 . S
C221 C201 1.449 . S
C221 C220 1.399 . S
C221 H227 0.930 . S
H222 C202 0.931 . S
H223 C203 0.930 . S
H224 C211 0.931 . S
H225 C212 0.929 . S
H226 C220 0.929 . S
H227 C221 0.930 . S
Mn228 O233 2.095 . S
Mn228 O243 2.162 . S
Mn228 O244 2.297 . S
Mn228 O252 2.385 . S
Mn228 O253 2.209 . S
Mn228 O254 2.094 . S
Mn229 O234 2.121 . S
Mn229 N236 2.257 . S
Mn229 N245 2.282 . S
Mn229 O253 2.215 . S
Mn229 O255 2.117 . S
C230 O252 1.234 . S
C230 O253 1.283 . S
C231 O243 1.281 . S
C231 O244 1.236 . S
C232 O254 1.240 . S
C232 O255 1.264 . S
O233 Mn228 2.095 . S
O233 C242 1.250 . S
O234 Mn229 2.121 . S
O234 C242 1.258 . S
C235 N236 1.326 . S
C235 C239 1.460 . S
C235 H241 0.929 . S
N236 Mn229 2.257 . S
N236 C235 1.326 . S
N236 C240 1.362 . S
C237 C238 1.258 . S
C237 C240 1.431 . S
C237 C257 1.449 . S
C238 C237 1.258 . S
C238 C239 1.477 . S
C238 H258 0.931 . S
C239 C235 1.460 . S
C239 C238 1.477 . S
C239 H259 0.930 . S
C240 N236 1.362 . S
C240 C237 1.431 . S
C240 C250 1.476 . S
H241 C235 0.929 . S
C242 O233 1.250 . S
C242 O234 1.258 . S
O243 Mn228 2.162 . S
O243 C231 1.281 . S
O244 Mn228 2.297 . S
O244 C231 1.236 . S
N245 Mn229 2.282 . S
N245 C246 1.328 . S
N245 C250 1.318 . S
C246 N245 1.328 . S
C246 C247 1.457 . S
C246 H251 0.929 . S
C247 C246 1.457 . S
C247 C248 1.291 . S
C247 H260 0.931 . S
C248 C247 1.291 . S
C248 C249 1.373 . S
C248 H261 0.929 . S
C249 C248 1.373 . S
C249 C250 1.396 . S
C249 C256 1.403 . S
C250 C240 1.476 . S
C250 N245 1.318 . S
C250 C249 1.396 . S
H251 C246 0.929 . S
O252 Mn228 2.385 . S
O252 C230 1.234 . S
O253 Mn228 2.209 . S
O253 Mn229 2.215 . S
O253 C230 1.283 . S
O254 Mn228 2.094 . S
O254 C232 1.240 . S
O255 Mn229 2.117 . S
O255 C232 1.264 . S
C256 C249 1.403 . S
C256 C257 1.399 . S
C256 H262 0.929 . S
C257 C237 1.449 . S
C257 C256 1.399 . S
C257 H263 0.930 . S
H258 C238 0.931 . S
H259 C239 0.930 . S
H260 C247 0.931 . S
H261 C248 0.929 . S
H262 C256 0.929 . S
H263 C257 0.930 . S
Mn264 O269 2.095 1_554 S
Mn264 O279 2.162 . S
Mn264 O280 2.297 1_554 S
Mn264 O288 2.385 . S
Mn264 O289 2.209 1_554 S
Mn264 O290 2.094 . S
Mn265 O270 2.121 . S
Mn265 N272 2.257 . S
Mn265 N281 2.266 1_556 S
Mn265 O289 2.215 . S
Mn265 O291 2.117 1_556 S
C266 O288 1.234 . S
C266 O289 1.283 1_554 S
C267 O279 1.281 . S
C267 O280 1.236 1_554 S
C268 O290 1.240 . S
C268 O291 1.264 . S
O269 Mn264 2.095 1_556 S
O269 C278 1.250 . S
O270 Mn265 2.121 . S
O270 C278 1.258 . S
C271 N272 1.326 . S
C271 C275 1.460 . S
C271 H277 0.929 . S
N272 Mn265 2.257 . S
N272 C271 1.326 . S
N272 C276 1.362 . S
C273 C274 1.258 . S
C273 C276 1.431 . S
C273 C293 1.449 . S
C274 C273 1.258 . S
C274 C275 1.477 . S
C274 H294 0.931 . S
C275 C271 1.460 . S
C275 C274 1.477 . S
C275 H295 0.930 . S
C276 N272 1.362 . S
C276 C273 1.431 . S
C276 C286 1.476 . S
H277 C271 0.929 . S
C278 O269 1.250 . S
C278 O270 1.258 . S
O279 Mn264 2.162 . S
O279 C267 1.281 . S
O280 Mn264 2.297 1_556 S
O280 C267 1.236 1_556 S
N281 Mn265 2.266 1_554 S
N281 C282 1.363 . S
N281 C286 1.297 1_554 S
C282 N281 1.363 . S
C282 C283 1.457 . S
C282 H287 0.929 . S
C283 C282 1.457 . S
C283 C284 1.291 . S
C283 H296 0.931 . S
C284 C283 1.291 . S
C284 C285 1.373 1_554 S
C284 H297 0.929 . S
C285 C284 1.373 1_556 S
C285 C286 1.396 . S
C285 C292 1.403 . S
C286 C276 1.476 . S
C286 N281 1.297 1_556 S
C286 C285 1.396 . S
H287 C282 0.929 . S
O288 Mn264 2.385 . S
O288 C266 1.234 . S
O289 Mn264 2.209 1_556 S
O289 Mn265 2.215 . S
O289 C266 1.283 1_556 S
O290 Mn264 2.094 . S
O290 C268 1.240 . S
O291 Mn265 2.117 1_554 S
O291 C268 1.264 . S
C292 C285 1.403 . S
C292 C293 1.399 . S
C292 H298 0.929 . S
C293 C273 1.449 . S
C293 C292 1.399 . S
C293 H299 0.930 . S
H294 C274 0.931 . S
H295 C275 0.930 . S
H296 C283 0.931 . S
H297 C284 0.929 . S
H298 C292 0.929 . S
H299 C293 0.930 . S
Mn300 O305 2.095 . S
Mn300 O315 2.162 . S
Mn300 O316 2.297 . S
Mn300 O324 2.385 . S
Mn300 O325 2.209 . S
Mn300 O326 2.094 . S
Mn301 O306 2.121 1_565 S
Mn301 N308 2.257 . S
Mn301 N317 2.282 . S
Mn301 O325 2.215 1_565 S
Mn301 O327 2.117 1_565 S
C302 O324 1.234 . S
C302 O325 1.283 . S
C303 O315 1.281 . S
C303 O316 1.236 . S
C304 O326 1.240 . S
C304 O327 1.264 . S
O305 Mn300 2.095 . S
O305 C314 1.250 . S
O306 Mn301 2.121 1_545 S
O306 C314 1.258 . S
C307 N308 1.326 . S
C307 C311 1.460 . S
C307 H313 0.929 . S
N308 Mn301 2.257 . S
N308 C307 1.326 . S
N308 C312 1.362 . S
C309 C310 1.258 . S
C309 C312 1.431 . S
C309 C329 1.449 . S
C310 C309 1.258 . S
C310 C311 1.477 . S
C310 H330 0.931 . S
C311 C307 1.460 . S
C311 C310 1.477 . S
C311 H331 0.930 . S
C312 N308 1.362 . S
C312 C309 1.431 . S
C312 C322 1.476 . S
H313 C307 0.929 . S
C314 O305 1.250 . S
C314 O306 1.258 . S
O315 Mn300 2.162 . S
O315 C303 1.281 . S
O316 Mn300 2.297 . S
O316 C303 1.236 . S
N317 Mn301 2.282 . S
N317 C318 1.328 . S
N317 C322 1.318 . S
C318 N317 1.328 . S
C318 C319 1.457 . S
C318 H323 0.929 . S
C319 C318 1.457 . S
C319 C320 1.291 . S
C319 H332 0.931 . S
C320 C319 1.291 . S
C320 C321 1.373 . S
C320 H333 0.929 . S
C321 C320 1.373 . S
C321 C322 1.396 . S
C321 C328 1.403 . S
C322 C312 1.476 . S
C322 N317 1.318 . S
C322 C321 1.396 . S
H323 C318 0.929 . S
O324 Mn300 2.385 . S
O324 C302 1.234 . S
O325 Mn300 2.209 . S
O325 Mn301 2.215 1_545 S
O325 C302 1.283 . S
O326 Mn300 2.094 . S
O326 C304 1.240 . S
O327 Mn301 2.117 1_545 S
O327 C304 1.264 . S
C328 C321 1.403 . S
C328 C329 1.399 . S
C328 H334 0.929 . S
C329 C309 1.449 . S
C329 C328 1.399 . S
C329 H335 0.930 . S
H330 C310 0.931 . S
H331 C311 0.930 . S
H332 C319 0.931 . S
H333 C320 0.929 . S
H334 C328 0.929 . S
H335 C329 0.930 . S
Mn336 O341 2.095 . S
Mn336 O351 2.162 . S
Mn336 O352 2.297 . S
Mn336 O360 2.385 . S
Mn336 O361 2.209 . S
Mn336 O362 2.094 . S
Mn337 O342 2.121 . S
Mn337 N344 2.257 . S
Mn337 N353 2.282 . S
Mn337 O361 2.215 . S
Mn337 O363 2.117 . S
C338 O360 1.234 . S
C338 O361 1.283 . S
C339 O351 1.281 . S
C339 O352 1.236 . S
C340 O362 1.240 . S
C340 O363 1.264 . S
O341 Mn336 2.095 . S
O341 C350 1.250 . S
O342 Mn337 2.121 . S
O342 C350 1.258 . S
C343 N344 1.326 . S
C343 C347 1.460 . S
C343 H349 0.929 . S
N344 Mn337 2.257 . S
N344 C343 1.326 . S
N344 C348 1.362 . S
C345 C346 1.258 . S
C345 C348 1.431 . S
C345 C365 1.449 . S
C346 C345 1.258 . S
C346 C347 1.477 . S
C346 H366 0.931 . S
C347 C343 1.460 . S
C347 C346 1.477 . S
C347 H367 0.930 . S
C348 N344 1.362 . S
C348 C345 1.431 . S
C348 C358 1.476 . S
H349 C343 0.929 . S
C350 O341 1.250 . S
C350 O342 1.258 . S
O351 Mn336 2.162 . S
O351 C339 1.281 . S
O352 Mn336 2.297 . S
O352 C339 1.236 . S
N353 Mn337 2.282 . S
N353 C354 1.328 . S
N353 C358 1.318 . S
C354 N353 1.328 . S
C354 C355 1.457 . S
C354 H359 0.929 . S
C355 C354 1.457 . S
C355 C356 1.291 . S
C355 H368 0.931 . S
C356 C355 1.291 . S
C356 C357 1.373 . S
C356 H369 0.929 . S
C357 C356 1.373 . S
C357 C358 1.396 . S
C357 C364 1.403 . S
C358 C348 1.476 . S
C358 N353 1.318 . S
C358 C357 1.396 . S
H359 C354 0.929 . S
O360 Mn336 2.385 . S
O360 C338 1.234 . S
O361 Mn336 2.209 . S
O361 Mn337 2.215 . S
O361 C338 1.283 . S
O362 Mn336 2.094 . S
O362 C340 1.240 . S
O363 Mn337 2.117 . S
O363 C340 1.264 . S
C364 C357 1.403 . S
C364 C365 1.399 . S
C364 H370 0.929 . S
C365 C345 1.449 . S
C365 C364 1.399 . S
C365 H371 0.930 . S
H366 C346 0.931 . S
H367 C347 0.930 . S
H368 C355 0.931 . S
H369 C356 0.929 . S
H370 C364 0.929 . S
H371 C365 0.930 . S
Mn372 O377 2.095 . S
Mn372 O387 2.162 . S
Mn372 O388 2.297 . S
Mn372 O396 2.385 . S
Mn372 O397 2.209 . S
Mn372 O398 2.094 . S
Mn373 O378 2.121 . S
Mn373 N380 2.257 . S
Mn373 N389 2.282 . S
Mn373 O397 2.215 . S
Mn373 O399 2.117 . S
C374 O396 1.234 . S
C374 O397 1.283 . S
C375 O387 1.281 . S
C375 O388 1.236 . S
C376 O398 1.240 . S
C376 O399 1.264 . S
O377 Mn372 2.095 . S
O377 C386 1.250 . S
O378 Mn373 2.121 . S
O378 C386 1.258 . S
C379 N380 1.326 . S
C379 C383 1.460 . S
C379 H385 0.929 . S
N380 Mn373 2.257 . S
N380 C379 1.326 . S
N380 C384 1.362 . S
C381 C382 1.258 . S
C381 C384 1.431 . S
C381 C401 1.449 . S
C382 C381 1.258 . S
C382 C383 1.477 . S
C382 H402 0.931 . S
C383 C379 1.460 . S
C383 C382 1.477 . S
C383 H403 0.930 . S
C384 N380 1.362 . S
C384 C381 1.431 . S
C384 C394 1.476 . S
H385 C379 0.929 . S
C386 O377 1.250 . S
C386 O378 1.258 . S
O387 Mn372 2.162 . S
O387 C375 1.281 . S
O388 Mn372 2.297 . S
O388 C375 1.236 . S
N389 Mn373 2.282 . S
N389 C390 1.328 . S
N389 C394 1.318 . S
C390 N389 1.328 . S
C390 C391 1.457 . S
C390 H395 0.929 . S
C391 C390 1.457 . S
C391 C392 1.291 . S
C391 H404 0.931 . S
C392 C391 1.291 . S
C392 C393 1.373 . S
C392 H405 0.929 . S
C393 C392 1.373 . S
C393 C394 1.396 . S
C393 C400 1.403 . S
C394 C384 1.476 . S
C394 N389 1.318 . S
C394 C393 1.396 . S
H395 C390 0.929 . S
O396 Mn372 2.385 . S
O396 C374 1.234 . S
O397 Mn372 2.209 . S
O397 Mn373 2.215 . S
O397 C374 1.283 . S
O398 Mn372 2.094 . S
O398 C376 1.240 . S
O399 Mn373 2.117 . S
O399 C376 1.264 . S
C400 C393 1.403 . S
C400 C401 1.399 . S
C400 H406 0.929 . S
C401 C381 1.449 . S
C401 C400 1.399 . S
C401 H407 0.930 . S
H402 C382 0.931 . S
H403 C383 0.930 . S
H404 C391 0.931 . S
H405 C392 0.929 . S
H406 C400 0.929 . S
H407 C401 0.930 . S
Mn408 O413 2.095 . S
Mn408 O423 2.162 . S
Mn408 O424 2.297 . S
Mn408 O432 2.385 . S
Mn408 O433 2.209 . S
Mn408 O434 2.094 . S
Mn409 O414 2.121 . S
Mn409 N416 2.257 . S
Mn409 N425 2.282 . S
Mn409 O433 2.215 . S
Mn409 O435 2.117 . S
C410 O432 1.234 . S
C410 O433 1.283 . S
C411 O423 1.281 . S
C411 O424 1.236 . S
C412 O434 1.240 . S
C412 O435 1.264 . S
O413 Mn408 2.095 . S
O413 C422 1.250 . S
O414 Mn409 2.121 . S
O414 C422 1.258 . S
C415 N416 1.326 . S
C415 C419 1.460 . S
C415 H421 0.929 . S
N416 Mn409 2.257 . S
N416 C415 1.326 . S
N416 C420 1.362 . S
C417 C418 1.258 . S
C417 C420 1.431 . S
C417 C437 1.449 . S
C418 C417 1.258 . S
C418 C419 1.477 . S
C418 H438 0.931 . S
C419 C415 1.460 . S
C419 C418 1.477 . S
C419 H439 0.930 . S
C420 N416 1.362 . S
C420 C417 1.431 . S
C420 C430 1.476 . S
H421 C415 0.929 . S
C422 O413 1.250 . S
C422 O414 1.258 . S
O423 Mn408 2.162 . S
O423 C411 1.281 . S
O424 Mn408 2.297 . S
O424 C411 1.236 . S
N425 Mn409 2.282 . S
N425 C426 1.328 . S
N425 C430 1.318 . S
C426 N425 1.328 . S
C426 C427 1.457 . S
C426 H431 0.929 . S
C427 C426 1.457 . S
C427 C428 1.291 . S
C427 H440 0.931 . S
C428 C427 1.291 . S
C428 C429 1.373 . S
C428 H441 0.929 . S
C429 C428 1.373 . S
C429 C430 1.396 . S
C429 C436 1.403 . S
C430 C420 1.476 . S
C430 N425 1.318 . S
C430 C429 1.396 . S
H431 C426 0.929 . S
O432 Mn408 2.385 . S
O432 C410 1.234 . S
O433 Mn408 2.209 . S
O433 Mn409 2.215 . S
O433 C410 1.283 . S
O434 Mn408 2.094 . S
O434 C412 1.240 . S
O435 Mn409 2.117 . S
O435 C412 1.264 . S
C436 C429 1.403 . S
C436 C437 1.399 . S
C436 H442 0.929 . S
C437 C417 1.449 . S
C437 C436 1.399 . S
C437 H443 0.930 . S
H438 C418 0.931 . S
H439 C419 0.930 . S
H440 C427 0.931 . S
H441 C428 0.929 . S
H442 C436 0.929 . S
H443 C437 0.930 . S
Mn444 O449 2.095 . S
Mn444 O459 2.162 . S
Mn444 O460 2.297 . S
Mn444 O468 2.385 1_565 S
Mn444 O469 2.209 1_565 S
Mn444 O470 2.094 . S
Mn445 O450 2.121 . S
Mn445 N452 2.257 . S
Mn445 N461 2.282 . S
Mn445 O469 2.215 . S
Mn445 O471 2.117 . S
C446 O468 1.234 . S
C446 O469 1.283 . S
C447 O459 1.281 . S
C447 O460 1.236 . S
C448 O470 1.240 . S
C448 O471 1.264 1_565 S
O449 Mn444 2.095 . S
O449 C458 1.250 1_565 S
O450 Mn445 2.121 . S
O450 C458 1.258 . S
C451 N452 1.326 . S
C451 C455 1.460 . S
C451 H457 0.929 . S
N452 Mn445 2.257 . S
N452 C451 1.326 . S
N452 C456 1.362 . S
C453 C454 1.258 . S
C453 C456 1.431 . S
C453 C473 1.449 . S
C454 C453 1.258 . S
C454 C455 1.477 . S
C454 H474 0.931 . S
C455 C451 1.460 . S
C455 C454 1.477 . S
C455 H475 0.930 . S
C456 N452 1.362 . S
C456 C453 1.431 . S
C456 C466 1.476 . S
H457 C451 0.929 . S
C458 O449 1.250 1_545 S
C458 O450 1.258 . S
O459 Mn444 2.162 . S
O459 C447 1.281 . S
O460 Mn444 2.297 . S
O460 C447 1.236 . S
N461 Mn445 2.282 . S
N461 C462 1.328 . S
N461 C466 1.318 . S
C462 N461 1.328 . S
C462 C463 1.457 . S
C462 H467 0.929 . S
C463 C462 1.457 . S
C463 C464 1.291 . S
C463 H476 0.931 . S
C464 C463 1.291 . S
C464 C465 1.373 . S
C464 H477 0.929 . S
C465 C464 1.373 . S
C465 C466 1.396 . S
C465 C472 1.403 . S
C466 C456 1.476 . S
C466 N461 1.318 . S
C466 C465 1.396 . S
H467 C462 0.929 . S
O468 Mn444 2.385 1_545 S
O468 C446 1.234 . S
O469 Mn444 2.209 1_545 S
O469 Mn445 2.215 . S
O469 C446 1.283 . S
O470 Mn444 2.094 . S
O470 C448 1.240 . S
O471 Mn445 2.117 . S
O471 C448 1.264 1_545 S
C472 C465 1.403 . S
C472 C473 1.399 . S
C472 H478 0.929 . S
C473 C453 1.449 . S
C473 C472 1.399 . S
C473 H479 0.930 . S
H474 C454 0.931 . S
H475 C455 0.930 . S
H476 C463 0.931 . S
H477 C464 0.929 . S
H478 C472 0.929 . S
H479 C473 0.930 . S
Mn480 O485 2.095 . S
Mn480 O495 2.162 . S
Mn480 O496 2.297 . S
Mn480 O504 2.386 . S
Mn480 O505 2.209 1_455 S
Mn480 O506 2.094 . S
Mn481 O486 2.121 . S
Mn481 N488 2.257 . S
Mn481 N497 2.282 . S
Mn481 O505 2.215 . S
Mn481 O507 2.117 . S
C482 O504 1.231 1_655 S
C482 O505 1.283 . S
C483 O495 1.281 . S
C483 O496 1.236 . S
C484 O506 1.240 . S
C484 O507 1.264 1_455 S
O485 Mn480 2.095 . S
O485 C494 1.250 . S
O486 Mn481 2.121 . S
O486 C494 1.258 1_655 S
C487 N488 1.326 . S
C487 C491 1.460 . S
C487 H493 0.929 . S
N488 Mn481 2.257 . S
N488 C487 1.326 . S
N488 C492 1.362 . S
C489 C490 1.258 . S
C489 C492 1.431 . S
C489 C509 1.449 . S
C490 C489 1.258 . S
C490 C491 1.477 . S
C490 H510 0.931 . S
C491 C487 1.460 . S
C491 C490 1.477 . S
C491 H511 0.930 . S
C492 N488 1.362 . S
C492 C489 1.431 . S
C492 C502 1.476 . S
H493 C487 0.929 . S
C494 O485 1.250 . S
C494 O486 1.258 1_455 S
O495 Mn480 2.162 . S
O495 C483 1.281 . S
O496 Mn480 2.297 . S
O496 C483 1.236 . S
N497 Mn481 2.282 . S
N497 C498 1.328 . S
N497 C502 1.318 . S
C498 N497 1.328 . S
C498 C499 1.457 . S
C498 H503 0.929 . S
C499 C498 1.457 . S
C499 C500 1.291 . S
C499 H512 0.931 . S
C500 C499 1.291 . S
C500 C501 1.373 . S
C500 H513 0.929 . S
C501 C500 1.373 . S
C501 C502 1.396 . S
C501 C508 1.403 . S
C502 C492 1.476 . S
C502 N497 1.318 . S
C502 C501 1.396 . S
H503 C498 0.929 . S
O504 Mn480 2.386 . S
O504 C482 1.231 1_455 S
O505 Mn480 2.209 1_655 S
O505 Mn481 2.215 . S
O505 C482 1.283 . S
O506 Mn480 2.094 . S
O506 C484 1.240 . S
O507 Mn481 2.117 . S
O507 C484 1.264 1_655 S
C508 C501 1.403 . S
C508 C509 1.399 . S
C508 H514 0.929 . S
C509 C489 1.449 . S
C509 C508 1.399 . S
C509 H515 0.930 . S
H510 C490 0.931 . S
H511 C491 0.930 . S
H512 C499 0.931 . S
H513 C500 0.929 . S
H514 C508 0.929 . S
H515 C509 0.930 . S
Mn516 O521 2.095 . S
Mn516 O531 2.162 . S
Mn516 O532 2.297 . S
Mn516 O540 2.385 . S
Mn516 O541 2.209 . S
Mn516 O542 2.094 . S
Mn517 O522 2.121 . S
Mn517 N524 2.257 . S
Mn517 N533 2.282 . S
Mn517 O541 2.215 . S
Mn517 O543 2.117 . S
C518 O540 1.234 . S
C518 O541 1.283 . S
C519 O531 1.281 . S
C519 O532 1.236 . S
C520 O542 1.240 . S
C520 O543 1.264 . S
O521 Mn516 2.095 . S
O521 C530 1.250 . S
O522 Mn517 2.121 . S
O522 C530 1.258 . S
C523 N524 1.326 . S
C523 C527 1.460 . S
C523 H529 0.929 . S
N524 Mn517 2.257 . S
N524 C523 1.326 . S
N524 C528 1.362 . S
C525 C526 1.258 . S
C525 C528 1.431 . S
C525 C545 1.449 . S
C526 C525 1.258 . S
C526 C527 1.477 . S
C526 H546 0.931 . S
C527 C523 1.460 . S
C527 C526 1.477 . S
C527 H547 0.930 . S
C528 N524 1.362 . S
C528 C525 1.431 . S
C528 C538 1.476 . S
H529 C523 0.929 . S
C530 O521 1.250 . S
C530 O522 1.258 . S
O531 Mn516 2.162 . S
O531 C519 1.281 . S
O532 Mn516 2.297 . S
O532 C519 1.236 . S
N533 Mn517 2.282 . S
N533 C534 1.328 . S
N533 C538 1.318 . S
C534 N533 1.328 . S
C534 C535 1.457 . S
C534 H539 0.929 . S
C535 C534 1.457 . S
C535 C536 1.291 . S
C535 H548 0.931 . S
C536 C535 1.291 . S
C536 C537 1.373 . S
C536 H549 0.929 . S
C537 C536 1.373 . S
C537 C538 1.396 . S
C537 C544 1.403 . S
C538 C528 1.476 . S
C538 N533 1.318 . S
C538 C537 1.396 . S
H539 C534 0.929 . S
O540 Mn516 2.385 . S
O540 C518 1.234 . S
O541 Mn516 2.209 . S
O541 Mn517 2.215 . S
O541 C518 1.283 . S
O542 Mn516 2.094 . S
O542 C520 1.240 . S
O543 Mn517 2.117 . S
O543 C520 1.264 . S
C544 C537 1.403 . S
C544 C545 1.399 . S
C544 H550 0.929 . S
C545 C525 1.449 . S
C545 C544 1.399 . S
C545 H551 0.930 . S
H546 C526 0.931 . S
H547 C527 0.930 . S
H548 C535 0.931 . S
H549 C536 0.929 . S
H550 C544 0.929 . S
H551 C545 0.930 . S
Mn552 O557 2.095 . S
Mn552 O567 2.162 . S
Mn552 O568 2.297 . S
Mn552 O576 2.385 . S
Mn552 O577 2.209 . S
Mn552 O578 2.094 . S
Mn553 O558 2.121 . S
Mn553 N560 2.257 . S
Mn553 N569 2.282 1_655 S
Mn553 O577 2.215 1_655 S
Mn553 O579 2.117 1_655 S
C554 O576 1.234 . S
C554 O577 1.283 . S
C555 O567 1.281 . S
C555 O568 1.236 . S
C556 O578 1.240 . S
C556 O579 1.264 . S
O557 Mn552 2.095 . S
O557 C566 1.250 1_455 S
O558 Mn553 2.121 . S
O558 C566 1.258 . S
C559 N560 1.326 . S
C559 C563 1.460 . S
C559 H565 0.929 . S
N560 Mn553 2.257 . S
N560 C559 1.326 . S
N560 C564 1.362 . S
C561 C562 1.258 . S
C561 C564 1.431 . S
C561 C581 1.449 . S
C562 C561 1.258 . S
C562 C563 1.477 . S
C562 H582 0.931 . S
C563 C559 1.460 . S
C563 C562 1.477 . S
C563 H583 0.930 . S
C564 N560 1.362 . S
C564 C561 1.431 . S
C564 C574 1.476 . S
H565 C559 0.929 . S
C566 O557 1.250 1_655 S
C566 O558 1.258 . S
O567 Mn552 2.162 . S
O567 C555 1.281 . S
O568 Mn552 2.297 . S
O568 C555 1.236 . S
N569 Mn553 2.282 1_455 S
N569 C570 1.328 . S
N569 C574 1.318 1_455 S
C570 N569 1.328 . S
C570 C571 1.457 . S
C570 H575 0.929 . S
C571 C570 1.457 . S
C571 C572 1.291 . S
C571 H584 0.931 . S
C572 C571 1.291 . S
C572 C573 1.396 . S
C572 H585 0.929 . S
C573 C572 1.396 . S
C573 C574 1.389 1_455 S
C573 C580 1.387 1_455 S
C574 C564 1.476 . S
C574 N569 1.318 1_655 S
C574 C573 1.389 1_655 S
H575 C570 0.929 . S
O576 Mn552 2.385 . S
O576 C554 1.234 . S
O577 Mn552 2.209 . S
O577 Mn553 2.215 1_455 S
O577 C554 1.283 . S
O578 Mn552 2.094 . S
O578 C556 1.240 . S
O579 Mn553 2.117 1_455 S
O579 C556 1.264 . S
C580 C573 1.387 1_655 S
C580 C581 1.399 . S
C580 H586 0.929 . S
C581 C561 1.449 . S
C581 C580 1.399 . S
C581 H587 0.930 . S
H582 C562 0.931 . S
H583 C563 0.930 . S
H584 C571 0.931 . S
H585 C572 0.929 . S
H586 C580 0.929 . S
H587 C581 0.930 . S
Mn588 O593 2.095 . S
Mn588 O603 2.162 . S
Mn588 O604 2.297 . S
Mn588 O612 2.385 . S
Mn588 O613 2.209 . S
Mn588 O614 2.094 . S
Mn589 O594 2.121 . S
Mn589 N596 2.257 . S
Mn589 N605 2.282 . S
Mn589 O613 2.215 . S
Mn589 O615 2.117 . S
C590 O612 1.234 . S
C590 O613 1.283 . S
C591 O603 1.281 . S
C591 O604 1.236 . S
C592 O614 1.240 . S
C592 O615 1.264 . S
O593 Mn588 2.095 . S
O593 C602 1.250 . S
O594 Mn589 2.121 . S
O594 C602 1.258 . S
C595 N596 1.326 . S
C595 C599 1.460 . S
C595 H601 0.929 . S
N596 Mn589 2.257 . S
N596 C595 1.326 . S
N596 C600 1.362 . S
C597 C598 1.258 . S
C597 C600 1.431 . S
C597 C617 1.449 . S
C598 C597 1.258 . S
C598 C599 1.477 . S
C598 H618 0.931 . S
C599 C595 1.460 . S
C599 C598 1.477 . S
C599 H619 0.930 . S
C600 N596 1.362 . S
C600 C597 1.431 . S
C600 C610 1.476 . S
H601 C595 0.929 . S
C602 O593 1.250 . S
C602 O594 1.258 . S
O603 Mn588 2.162 . S
O603 C591 1.281 . S
O604 Mn588 2.297 . S
O604 C591 1.236 . S
N605 Mn589 2.282 . S
N605 C606 1.328 . S
N605 C610 1.318 . S
C606 N605 1.328 . S
C606 C607 1.457 . S
C606 H611 0.929 . S
C607 C606 1.457 . S
C607 C608 1.291 . S
C607 H620 0.931 . S
C608 C607 1.291 . S
C608 C609 1.373 . S
C608 H621 0.929 . S
C609 C608 1.373 . S
C609 C610 1.396 . S
C609 C616 1.403 . S
C610 C600 1.476 . S
C610 N605 1.318 . S
C610 C609 1.396 . S
H611 C606 0.929 . S
O612 Mn588 2.385 . S
O612 C590 1.234 . S
O613 Mn588 2.209 . S
O613 Mn589 2.215 . S
O613 C590 1.283 . S
O614 Mn588 2.094 . S
O614 C592 1.240 . S
O615 Mn589 2.117 . S
O615 C592 1.264 . S
C616 C609 1.403 . S
C616 C617 1.399 . S
C616 H622 0.929 . S
C617 C597 1.449 . S
C617 C616 1.399 . S
C617 H623 0.930 . S
H618 C598 0.931 . S
H619 C599 0.930 . S
H620 C607 0.931 . S
H621 C608 0.929 . S
H622 C616 0.929 . S
H623 C617 0.930 . S
H624 C642 0.951 . S
H625 C644 0.951 . S
H626 C646 0.950 . S
H627 C647 0.950 . S
H628 C649 0.950 . S
H629 C652 0.950 . S
H630 C653 0.950 . S
H631 C655 0.950 . S
H632 C656 0.950 . S
H633 C657 0.951 . S
H634 C659 0.951 . S
H635 C661 0.950 . S
H636 C662 0.950 . S
H637 C664 0.950 . S
H638 C667 0.950 . S
H639 C668 0.950 . S
H640 C670 0.950 . S
H641 C671 0.950 . S
C642 H624 0.951 . S
C642 C643 1.366 . S
C642 C644 1.388 . S
C643 C642 1.366 . S
C643 C647 1.385 . S
C644 H625 0.951 . S
C644 C642 1.388 . S
C644 C645 1.366 . S
C645 C644 1.366 . S
C645 C646 1.414 . S
C645 C648 1.499 . S
C646 H626 0.950 . S
C646 C645 1.414 . S
C646 C647 1.374 . S
C647 H627 0.950 . S
C647 C643 1.385 . S
C647 C646 1.374 . S
C648 C645 1.499 . S
C648 C649 1.373 . S
C648 C650 1.389 . S
C649 H628 0.950 . S
C649 C648 1.373 . S
C649 C665 1.377 . S
C650 C648 1.389 . S
C650 C651 1.524 . S
C650 C664 1.377 . S
C651 C650 1.524 . S
C651 C652 1.397 . S
C651 C656 1.363 . S
C652 H629 0.950 . S
C652 C651 1.397 . S
C652 C653 1.334 . S
C653 H630 0.950 . S
C653 C652 1.334 . S
C653 C654 1.287 . S
C654 C653 1.287 . S
C654 C655 1.524 . S
C654 H673 0.913 . S
C655 H631 0.950 . S
C655 C654 1.524 . S
C655 C656 1.415 . S
C656 H632 0.950 . S
C656 C651 1.363 . S
C656 C655 1.415 . S
C657 H633 0.951 . S
C657 C658 1.366 . S
C657 C659 1.388 . S
C658 C657 1.366 . S
C658 C662 1.385 . S
C659 H634 0.951 . S
C659 C657 1.388 . S
C659 C660 1.366 . S
C660 C659 1.366 . S
C660 C661 1.414 . S
C660 C663 1.499 . S
C661 H635 0.950 . S
C661 C660 1.414 . S
C661 C662 1.374 . S
C662 H636 0.950 . S
C662 C658 1.385 . S
C662 C661 1.374 . S
C663 C660 1.499 . S
C663 C664 1.373 . S
C663 C665 1.389 . S
C664 H637 0.950 . S
C664 C650 1.377 . S
C664 C663 1.373 . S
C665 C649 1.377 . S
C665 C663 1.389 . S
C665 C666 1.524 . S
C666 C665 1.524 . S
C666 C667 1.397 . S
C666 C671 1.363 . S
C667 H638 0.950 . S
C667 C666 1.397 . S
C667 C668 1.334 . S
C668 H639 0.950 . S
C668 C667 1.334 . S
C668 C669 1.287 . S
C669 C668 1.287 . S
C669 C670 1.524 . S
C669 H672 0.999 . S
C670 H640 0.950 . S
C670 C669 1.524 . S
C670 C671 1.415 . S
C671 H641 0.950 . S
C671 C666 1.363 . S
C671 C670 1.415 . S
H672 C669 0.999 . S
H673 C654 0.913 . S
H674 C692 0.951 . S
H675 C694 0.951 . S
H676 C696 0.950 . S
H677 C697 0.950 . S
H678 C699 0.950 . S
H679 C702 0.950 . S
H680 C703 0.950 . S
H681 C705 0.950 . S
H682 C706 0.950 . S
H683 C707 0.951 . S
H684 C709 0.951 . S
H685 C711 0.950 . S
H686 C712 0.950 . S
H687 C714 0.950 . S
H688 C717 0.950 . S
H689 C718 0.950 . S
H690 C720 0.950 . S
H691 C721 0.950 . S
C692 H674 0.951 . S
C692 C693 1.366 . S
C692 C694 1.388 . S
C693 C692 1.366 . S
C693 C697 1.385 . S
C694 H675 0.951 . S
C694 C692 1.388 . S
C694 C695 1.366 . S
C695 C694 1.366 . S
C695 C696 1.414 . S
C695 C698 1.499 . S
C696 H676 0.950 . S
C696 C695 1.414 . S
C696 C697 1.374 . S
C697 H677 0.950 . S
C697 C693 1.385 . S
C697 C696 1.374 . S
C698 C695 1.499 . S
C698 C699 1.373 . S
C698 C700 1.389 . S
C699 H678 0.950 . S
C699 C698 1.373 . S
C699 C715 1.377 . S
C700 C698 1.389 . S
C700 C701 1.524 . S
C700 C714 1.377 . S
C701 C700 1.524 . S
C701 C702 1.397 . S
C701 C706 1.363 . S
C702 H679 0.950 . S
C702 C701 1.397 . S
C702 C703 1.334 . S
C703 H680 0.950 . S
C703 C702 1.334 . S
C703 C704 1.287 . S
C704 C703 1.287 . S
C704 C705 1.524 . S
C704 H723 0.913 . S
C705 H681 0.950 . S
C705 C704 1.524 . S
C705 C706 1.415 . S
C706 H682 0.950 . S
C706 C701 1.363 . S
C706 C705 1.415 . S
C707 H683 0.951 . S
C707 C708 1.366 . S
C707 C709 1.388 . S
C708 C707 1.366 . S
C708 C712 1.385 . S
C709 H684 0.951 . S
C709 C707 1.388 . S
C709 C710 1.366 . S
C710 C709 1.366 . S
C710 C711 1.414 . S
C710 C713 1.499 . S
C711 H685 0.950 . S
C711 C710 1.414 . S
C711 C712 1.374 . S
C712 H686 0.950 . S
C712 C708 1.385 . S
C712 C711 1.374 . S
C713 C710 1.499 . S
C713 C714 1.373 . S
C713 C715 1.389 . S
C714 H687 0.950 . S
C714 C700 1.377 . S
C714 C713 1.373 . S
C715 C699 1.377 . S
C715 C713 1.389 . S
C715 C716 1.524 . S
C716 C715 1.524 . S
C716 C717 1.397 . S
C716 C721 1.363 . S
C717 H688 0.950 . S
C717 C716 1.397 . S
C717 C718 1.334 . S
C718 H689 0.950 . S
C718 C717 1.334 . S
C718 C719 1.287 . S
C719 C718 1.287 . S
C719 C720 1.524 . S
C719 H722 0.999 . S
C720 H690 0.950 . S
C720 C719 1.524 . S
C720 C721 1.415 . S
C721 H691 0.950 . S
C721 C716 1.363 . S
C721 C720 1.415 . S
H722 C719 0.999 . S
H723 C704 0.913 . S
H724 C742 0.951 . S
H725 C744 0.951 . S
H726 C746 0.950 . S
H727 C747 0.950 . S
H728 C749 0.950 . S
H729 C752 0.950 . S
H730 C753 0.950 . S
H731 C755 0.950 . S
H732 C756 0.950 . S
H733 C757 0.951 . S
H734 C759 0.951 . S
H735 C761 0.950 . S
H736 C762 0.950 . S
H737 C764 0.950 . S
H738 C767 0.950 . S
H739 C768 0.950 . S
H740 C770 0.950 . S
H741 C771 0.950 . S
C742 H724 0.951 . S
C742 C743 1.366 . S
C742 C744 1.388 . S
C743 C742 1.366 . S
C743 C747 1.385 . S
C744 H725 0.951 . S
C744 C742 1.388 . S
C744 C745 1.366 . S
C745 C744 1.366 . S
C745 C746 1.414 . S
C745 C748 1.499 . S
C746 H726 0.950 . S
C746 C745 1.414 . S
C746 C747 1.374 . S
C747 H727 0.950 . S
C747 C743 1.385 . S
C747 C746 1.374 . S
C748 C745 1.499 . S
C748 C749 1.373 . S
C748 C750 1.389 . S
C749 H728 0.950 . S
C749 C748 1.373 . S
C749 C765 1.377 . S
C750 C748 1.389 . S
C750 C751 1.524 . S
C750 C764 1.377 . S
C751 C750 1.524 . S
C751 C752 1.397 . S
C751 C756 1.363 . S
C752 H729 0.950 . S
C752 C751 1.397 . S
C752 C753 1.334 . S
C753 H730 0.950 . S
C753 C752 1.334 . S
C753 C754 1.287 . S
C754 C753 1.287 . S
C754 C755 1.524 . S
C754 H773 0.913 . S
C755 H731 0.950 . S
C755 C754 1.524 . S
C755 C756 1.415 . S
C756 H732 0.950 . S
C756 C751 1.363 . S
C756 C755 1.415 . S
C757 H733 0.951 . S
C757 C758 1.366 . S
C757 C759 1.388 . S
C758 C757 1.366 . S
C758 C762 1.385 . S
C759 H734 0.951 . S
C759 C757 1.388 . S
C759 C760 1.366 . S
C760 C759 1.366 . S
C760 C761 1.414 . S
C760 C763 1.499 . S
C761 H735 0.950 . S
C761 C760 1.414 . S
C761 C762 1.374 . S
C762 H736 0.950 . S
C762 C758 1.385 . S
C762 C761 1.374 . S
C763 C760 1.499 . S
C763 C764 1.373 . S
C763 C765 1.389 . S
C764 H737 0.950 . S
C764 C750 1.377 . S
C764 C763 1.373 . S
C765 C749 1.377 . S
C765 C763 1.389 . S
C765 C766 1.524 . S
C766 C765 1.524 . S
C766 C767 1.397 . S
C766 C771 1.363 . S
C767 H738 0.950 . S
C767 C766 1.397 . S
C767 C768 1.334 . S
C768 H739 0.950 . S
C768 C767 1.334 . S
C768 C769 1.287 . S
C769 C768 1.287 . S
C769 C770 1.524 . S
C769 H772 0.999 . S
C770 H740 0.950 . S
C770 C769 1.524 . S
C770 C771 1.415 . S
C771 H741 0.950 . S
C771 C766 1.363 . S
C771 C770 1.415 . S
H772 C769 0.999 . S
H773 C754 0.913 . S
H774 C792 0.951 . S
H775 C794 0.951 . S
H776 C796 0.950 . S
H777 C797 0.950 . S
H778 C799 0.952 1_565 S
H779 C802 0.950 . S
H780 C803 0.950 . S
H781 C805 0.950 1_565 S
H782 C806 0.950 1_565 S
H783 C807 0.951 . S
H784 C809 0.951 . S
H785 C811 0.950 1_565 S
H786 C812 0.950 . S
H787 C814 0.950 . S
H788 C817 0.950 . S
H789 C818 0.950 . S
H790 C820 0.950 . S
H791 C821 0.950 . S
C792 H774 0.951 . S
C792 C793 1.366 . S
C792 C794 1.388 . S
C793 C792 1.366 . S
C793 C797 1.385 1_565 S
C794 H775 0.951 . S
C794 C792 1.388 . S
C794 C795 1.400 . S
C795 C794 1.400 . S
C795 C796 1.396 1_565 S
C795 C798 1.484 1_565 S
C796 H776 0.950 . S
C796 C795 1.396 1_545 S
C796 C797 1.374 . S
C797 H777 0.950 . S
C797 C793 1.385 1_545 S
C797 C796 1.374 . S
C798 C795 1.484 1_545 S
C798 C799 1.373 1_455 S
C798 C800 1.389 . S
C799 H778 0.952 1_545 S
C799 C798 1.373 1_655 S
C799 C815 1.377 . S
C800 C798 1.389 . S
C800 C801 1.524 . S
C800 C814 1.377 . S
C801 C800 1.524 . S
C801 C802 1.397 . S
C801 C806 1.363 . S
C802 H779 0.950 . S
C802 C801 1.397 . S
C802 C803 1.334 . S
C803 H780 0.950 . S
C803 C802 1.334 . S
C803 C804 1.287 . S
C804 C803 1.287 . S
C804 C805 1.524 . S
C804 H823 0.913 . S
C805 H781 0.950 1_545 S
C805 C804 1.524 . S
C805 C806 1.415 . S
C806 H782 0.950 1_545 S
C806 C801 1.363 . S
C806 C805 1.415 . S
C807 H783 0.951 . S
C807 C808 1.366 . S
C807 C809 1.388 . S
C808 C807 1.366 . S
C808 C812 1.385 . S
C809 H784 0.951 . S
C809 C807 1.388 . S
C809 C810 1.366 . S
C810 C809 1.366 . S
C810 C811 1.414 . S
C810 C813 1.499 . S
C811 H785 0.950 1_545 S
C811 C810 1.414 . S
C811 C812 1.374 . S
C812 H786 0.950 . S
C812 C808 1.385 . S
C812 C811 1.374 . S
C813 C810 1.499 . S
C813 C814 1.373 1_655 S
C813 C815 1.389 . S
C814 H787 0.950 . S
C814 C800 1.377 . S
C814 C813 1.373 1_455 S
C815 C799 1.377 . S
C815 C813 1.389 . S
C815 C816 1.524 . S
C816 C815 1.524 . S
C816 C817 1.397 1_545 S
C816 C821 1.363 . S
C817 H788 0.950 . S
C817 C816 1.397 1_565 S
C817 C818 1.334 . S
C818 H789 0.950 . S
C818 C817 1.334 . S
C818 C819 1.287 . S
C819 C818 1.287 . S
C819 C820 1.524 1_565 S
C819 H822 0.999 . S
C820 H790 0.950 . S
C820 C819 1.524 1_545 S
C820 C821 1.415 . S
C821 H791 0.950 . S
C821 C816 1.363 . S
C821 C820 1.415 . S
H822 C819 0.999 . S
H823 C804 0.913 . S
H824 C842 0.951 . S
H825 C844 0.951 . S
H826 C846 0.950 . S
H827 C847 0.950 . S
H828 C849 0.950 . S
H829 C852 0.950 . S
H830 C853 0.950 . S
H831 C855 0.950 . S
H832 C856 0.950 . S
H833 C857 0.951 . S
H834 C859 0.951 . S
H835 C861 0.950 . S
H836 C862 0.950 . S
H837 C864 0.950 . S
H838 C867 0.950 . S
H839 C868 0.950 . S
H840 C870 0.950 . S
H841 C871 0.950 . S
C842 H824 0.951 . S
C842 C843 1.366 . S
C842 C844 1.388 . S
C843 C842 1.366 . S
C843 C847 1.385 . S
C844 H825 0.951 . S
C844 C842 1.388 . S
C844 C845 1.366 . S
C845 C844 1.366 . S
C845 C846 1.414 . S
C845 C848 1.499 . S
C846 H826 0.950 . S
C846 C845 1.414 . S
C846 C847 1.374 . S
C847 H827 0.950 . S
C847 C843 1.385 . S
C847 C846 1.374 . S
C848 C845 1.499 . S
C848 C849 1.373 . S
C848 C850 1.389 . S
C849 H828 0.950 . S
C849 C848 1.373 . S
C849 C865 1.377 . S
C850 C848 1.389 . S
C850 C851 1.524 . S
C850 C864 1.377 . S
C851 C850 1.524 . S
C851 C852 1.397 . S
C851 C856 1.363 . S
C852 H829 0.950 . S
C852 C851 1.397 . S
C852 C853 1.334 . S
C853 H830 0.950 . S
C853 C852 1.334 . S
C853 C854 1.287 . S
C854 C853 1.287 . S
C854 C855 1.524 . S
C854 H873 0.913 . S
C855 H831 0.950 . S
C855 C854 1.524 . S
C855 C856 1.415 . S
C856 H832 0.950 . S
C856 C851 1.363 . S
C856 C855 1.415 . S
C857 H833 0.951 . S
C857 C858 1.366 . S
C857 C859 1.388 . S
C858 C857 1.366 . S
C858 C862 1.385 . S
C859 H834 0.951 . S
C859 C857 1.388 . S
C859 C860 1.366 . S
C860 C859 1.366 . S
C860 C861 1.414 . S
C860 C863 1.499 . S
C861 H835 0.950 . S
C861 C860 1.414 . S
C861 C862 1.374 . S
C862 H836 0.950 . S
C862 C858 1.385 . S
C862 C861 1.374 . S
C863 C860 1.499 . S
C863 C864 1.373 . S
C863 C865 1.389 . S
C864 H837 0.950 . S
C864 C850 1.377 . S
C864 C863 1.373 . S
C865 C849 1.377 . S
C865 C863 1.389 . S
C865 C866 1.524 . S
C866 C865 1.524 . S
C866 C867 1.397 . S
C866 C871 1.363 . S
C867 H838 0.950 . S
C867 C866 1.397 . S
C867 C868 1.334 . S
C868 H839 0.950 . S
C868 C867 1.334 . S
C868 C869 1.287 . S
C869 C868 1.287 . S
C869 C870 1.524 . S
C869 H872 0.999 . S
C870 H840 0.950 . S
C870 C869 1.524 . S
C870 C871 1.415 . S
C871 H841 0.950 . S
C871 C866 1.363 . S
C871 C870 1.415 . S
H872 C869 0.999 . S
H873 C854 0.913 . S
H874 C892 0.951 . S
H875 C894 0.951 . S
H876 C896 0.950 . S
H877 C897 0.950 . S
H878 C899 0.950 . S
H879 C902 0.950 . S
H880 C903 0.950 . S
H881 C905 0.950 . S
H882 C906 0.950 . S
H883 C907 0.951 . S
H884 C909 0.951 . S
H885 C911 0.950 . S
H886 C912 0.950 . S
H887 C914 0.950 . S
H888 C917 0.950 . S
H889 C918 0.950 . S
H890 C920 0.950 . S
H891 C921 0.950 . S
C892 H874 0.951 . S
C892 C893 1.366 . S
C892 C894 1.388 . S
C893 C892 1.366 . S
C893 C897 1.385 . S
C894 H875 0.951 . S
C894 C892 1.388 . S
C894 C895 1.366 . S
C895 C894 1.366 . S
C895 C896 1.414 . S
C895 C898 1.499 . S
C896 H876 0.950 . S
C896 C895 1.414 . S
C896 C897 1.374 . S
C897 H877 0.950 . S
C897 C893 1.385 . S
C897 C896 1.374 . S
C898 C895 1.499 . S
C898 C899 1.373 . S
C898 C900 1.389 . S
C899 H878 0.950 . S
C899 C898 1.373 . S
C899 C915 1.377 . S
C900 C898 1.389 . S
C900 C901 1.524 . S
C900 C914 1.377 . S
C901 C900 1.524 . S
C901 C902 1.397 . S
C901 C906 1.363 . S
C902 H879 0.950 . S
C902 C901 1.397 . S
C902 C903 1.334 . S
C903 H880 0.950 . S
C903 C902 1.334 . S
C903 C904 1.287 . S
C904 C903 1.287 . S
C904 C905 1.524 . S
C904 H923 0.913 . S
C905 H881 0.950 . S
C905 C904 1.524 . S
C905 C906 1.415 . S
C906 H882 0.950 . S
C906 C901 1.363 . S
C906 C905 1.415 . S
C907 H883 0.951 . S
C907 C908 1.366 . S
C907 C909 1.388 . S
C908 C907 1.366 . S
C908 C912 1.385 . S
C909 H884 0.951 . S
C909 C907 1.388 . S
C909 C910 1.366 . S
C910 C909 1.366 . S
C910 C911 1.414 . S
C910 C913 1.499 . S
C911 H885 0.950 . S
C911 C910 1.414 . S
C911 C912 1.374 . S
C912 H886 0.950 . S
C912 C908 1.385 . S
C912 C911 1.374 . S
C913 C910 1.499 . S
C913 C914 1.373 . S
C913 C915 1.389 . S
C914 H887 0.950 . S
C914 C900 1.377 . S
C914 C913 1.373 . S
C915 C899 1.377 . S
C915 C913 1.389 . S
C915 C916 1.524 . S
C916 C915 1.524 . S
C916 C917 1.397 . S
C916 C921 1.363 . S
C917 H888 0.950 . S
C917 C916 1.397 . S
C917 C918 1.334 . S
C918 H889 0.950 . S
C918 C917 1.334 . S
C918 C919 1.287 . S
C919 C918 1.287 . S
C919 C920 1.524 . S
C919 H922 0.999 . S
C920 H890 0.950 . S
C920 C919 1.524 . S
C920 C921 1.415 . S
C921 H891 0.950 . S
C921 C916 1.363 . S
C921 C920 1.415 . S
H922 C919 0.999 . S
H923 C904 0.913 . S
H924 C942 0.951 . S
H925 C944 0.951 . S
H926 C946 0.950 . S
H927 C947 0.950 . S
H928 C949 0.950 . S
H929 C952 0.950 . S
H930 C953 0.950 . S
H931 C955 0.950 . S
H932 C956 0.950 . S
H933 C957 0.951 . S
H934 C959 0.951 . S
H935 C961 0.950 . S
H936 C962 0.950 . S
H937 C964 0.950 . S
H938 C967 0.950 . S
H939 C968 0.950 . S
H940 C970 0.950 . S
H941 C971 0.950 . S
C942 H924 0.951 . S
C942 C943 1.366 . S
C942 C944 1.388 . S
C943 C942 1.366 . S
C943 C947 1.385 . S
C944 H925 0.951 . S
C944 C942 1.388 . S
C944 C945 1.366 . S
C945 C944 1.366 . S
C945 C946 1.414 . S
C945 C948 1.499 . S
C946 H926 0.950 . S
C946 C945 1.414 . S
C946 C947 1.374 . S
C947 H927 0.950 . S
C947 C943 1.385 . S
C947 C946 1.374 . S
C948 C945 1.499 . S
C948 C949 1.373 . S
C948 C950 1.389 . S
C949 H928 0.950 . S
C949 C948 1.373 . S
C949 C965 1.377 . S
C950 C948 1.389 . S
C950 C951 1.524 . S
C950 C964 1.377 . S
C951 C950 1.524 . S
C951 C952 1.397 . S
C951 C956 1.363 . S
C952 H929 0.950 . S
C952 C951 1.397 . S
C952 C953 1.334 . S
C953 H930 0.950 . S
C953 C952 1.334 . S
C953 C954 1.287 . S
C954 C953 1.287 . S
C954 C955 1.524 . S
C954 H973 0.913 . S
C955 H931 0.950 . S
C955 C954 1.524 . S
C955 C956 1.415 . S
C956 H932 0.950 . S
C956 C951 1.363 . S
C956 C955 1.415 . S
C957 H933 0.951 . S
C957 C958 1.366 . S
C957 C959 1.388 . S
C958 C957 1.366 . S
C958 C962 1.385 . S
C959 H934 0.951 . S
C959 C957 1.388 . S
C959 C960 1.366 . S
C960 C959 1.366 . S
C960 C961 1.414 . S
C960 C963 1.499 . S
C961 H935 0.950 . S
C961 C960 1.414 . S
C961 C962 1.374 . S
C962 H936 0.950 . S
C962 C958 1.385 . S
C962 C961 1.374 . S
C963 C960 1.499 . S
C963 C964 1.373 . S
C963 C965 1.389 . S
C964 H937 0.950 . S
C964 C950 1.377 . S
C964 C963 1.373 . S
C965 C949 1.377 . S
C965 C963 1.389 . S
C965 C966 1.524 . S
C966 C965 1.524 . S
C966 C967 1.397 . S
C966 C971 1.363 . S
C967 H938 0.950 . S
C967 C966 1.397 . S
C967 C968 1.334 . S
C968 H939 0.950 . S
C968 C967 1.334 . S
C968 C969 1.287 . S
C969 C968 1.287 . S
C969 C970 1.524 . S
C969 H972 0.999 . S
C970 H940 0.950 . S
C970 C969 1.524 . S
C970 C971 1.415 . S
C971 H941 0.950 . S
C971 C966 1.363 . S
C971 C970 1.415 . S
H972 C969 0.999 . S
H973 C954 0.913 . S
H974 C992 0.968 . S
H975 C994 0.951 1_545 S
H976 C996 0.950 . S
H977 C997 0.950 . S
H978 C999 0.950 . S
H979 C1002 0.950 . S
H980 C1003 0.950 . S
H981 C1005 0.950 . S
H982 C1006 0.950 . S
H983 C1007 0.951 . S
H984 C1009 0.951 . S
H985 C1011 0.950 . S
H986 C1012 0.950 . S
H987 C1014 0.950 . S
H988 C1017 0.950 . S
H989 C1018 0.950 . S
H990 C1020 0.950 1_565 S
H991 C1021 0.950 . S
C992 H974 0.968 . S
C992 C993 1.366 . S
C992 C994 1.388 . S
C993 C992 1.366 . S
C993 C997 1.385 . S
C994 H975 0.951 1_565 S
C994 C992 1.388 . S
C994 C995 1.366 . S
C995 C994 1.366 . S
C995 C996 1.414 . S
C995 C998 1.499 . S
C996 H976 0.950 . S
C996 C995 1.414 . S
C996 C997 1.374 . S
C997 H977 0.950 . S
C997 C993 1.385 . S
C997 C996 1.374 . S
C998 C995 1.499 . S
C998 C999 1.373 . S
C998 C1000 1.389 . S
C999 H978 0.950 . S
C999 C998 1.373 . S
C999 C1015 1.377 . S
C1000 C998 1.389 . S
C1000 C1001 1.524 . S
C1000 C1014 1.377 . S
C1001 C1000 1.524 . S
C1001 C1002 1.397 . S
C1001 C1006 1.363 . S
C1002 H979 0.950 . S
C1002 C1001 1.397 . S
C1002 C1003 1.334 . S
C1003 H980 0.950 . S
C1003 C1002 1.334 . S
C1003 C1004 1.287 . S
C1004 C1003 1.287 . S
C1004 C1005 1.524 . S
C1004 H1023 0.913 . S
C1005 H981 0.950 . S
C1005 C1004 1.524 . S
C1005 C1006 1.415 . S
C1006 H982 0.950 . S
C1006 C1001 1.363 . S
C1006 C1005 1.415 . S
C1007 H983 0.951 . S
C1007 C1008 1.366 . S
C1007 C1009 1.388 . S
C1008 C1007 1.366 . S
C1008 C1012 1.385 1_565 S
C1009 H984 0.951 . S
C1009 C1007 1.388 . S
C1009 C1010 1.366 . S
C1010 C1009 1.366 . S
C1010 C1011 1.414 1_565 S
C1010 C1013 1.499 . S
C1011 H985 0.950 . S
C1011 C1010 1.414 1_545 S
C1011 C1012 1.374 . S
C1012 H986 0.950 . S
C1012 C1008 1.385 1_545 S
C1012 C1011 1.374 . S
C1013 C1010 1.499 . S
C1013 C1014 1.373 . S
C1013 C1015 1.389 . S
C1014 H987 0.950 . S
C1014 C1000 1.377 . S
C1014 C1013 1.373 . S
C1015 C999 1.377 . S
C1015 C1013 1.389 . S
C1015 C1016 1.524 1_565 S
C1016 C1015 1.524 1_545 S
C1016 C1017 1.397 . S
C1016 C1021 1.363 1_545 S
C1017 H988 0.950 . S
C1017 C1016 1.397 . S
C1017 C1018 1.334 . S
C1018 H989 0.950 . S
C1018 C1017 1.334 . S
C1018 C1019 1.287 . S
C1019 C1018 1.287 . S
C1019 C1020 1.524 . S
C1019 H1022 0.999 . S
C1020 H990 0.950 1_545 S
C1020 C1019 1.524 . S
C1020 C1021 1.415 1_545 S
C1021 H991 0.950 . S
C1021 C1016 1.363 1_565 S
C1021 C1020 1.415 1_565 S
H1022 C1019 0.999 . S
H1023 C1004 0.913 . S
H1024 C1042 0.951 . S
H1025 C1044 0.951 . S
H1026 C1046 0.950 . S
H1027 C1047 0.950 . S
H1028 C1049 0.950 . S
H1029 C1052 0.950 . S
H1030 C1053 0.950 . S
H1031 C1055 0.950 . S
H1032 C1056 0.950 . S
H1033 C1057 0.951 . S
H1034 C1059 0.951 . S
H1035 C1061 0.950 . S
H1036 C1062 0.950 . S
H1037 C1064 0.950 . S
H1038 C1067 0.950 . S
H1039 C1068 0.950 . S
H1040 C1070 0.950 . S
H1041 C1071 0.950 . S
C1042 H1024 0.951 . S
C1042 C1043 1.366 . S
C1042 C1044 1.388 . S
C1043 C1042 1.366 . S
C1043 C1047 1.385 . S
C1044 H1025 0.951 . S
C1044 C1042 1.388 . S
C1044 C1045 1.366 . S
C1045 C1044 1.366 . S
C1045 C1046 1.414 . S
C1045 C1048 1.499 . S
C1046 H1026 0.950 . S
C1046 C1045 1.414 . S
C1046 C1047 1.374 . S
C1047 H1027 0.950 . S
C1047 C1043 1.385 . S
C1047 C1046 1.374 . S
C1048 C1045 1.499 . S
C1048 C1049 1.373 . S
C1048 C1050 1.389 . S
C1049 H1028 0.950 . S
C1049 C1048 1.373 . S
C1049 C1065 1.377 . S
C1050 C1048 1.389 . S
C1050 C1051 1.524 . S
C1050 C1064 1.377 . S
C1051 C1050 1.524 . S
C1051 C1052 1.397 . S
C1051 C1056 1.363 . S
C1052 H1029 0.950 . S
C1052 C1051 1.397 . S
C1052 C1053 1.334 . S
C1053 H1030 0.950 . S
C1053 C1052 1.334 . S
C1053 C1054 1.287 . S
C1054 C1053 1.287 . S
C1054 C1055 1.524 . S
C1054 H1073 0.913 . S
C1055 H1031 0.950 . S
C1055 C1054 1.524 . S
C1055 C1056 1.415 . S
C1056 H1032 0.950 . S
C1056 C1051 1.363 . S
C1056 C1055 1.415 . S
C1057 H1033 0.951 . S
C1057 C1058 1.366 . S
C1057 C1059 1.388 . S
C1058 C1057 1.366 . S
C1058 C1062 1.385 . S
C1059 H1034 0.951 . S
C1059 C1057 1.388 . S
C1059 C1060 1.366 . S
C1060 C1059 1.366 . S
C1060 C1061 1.414 . S
C1060 C1063 1.499 . S
C1061 H1035 0.950 . S
C1061 C1060 1.414 . S
C1061 C1062 1.374 . S
C1062 H1036 0.950 . S
C1062 C1058 1.385 . S
C1062 C1061 1.374 . S
C1063 C1060 1.499 . S
C1063 C1064 1.373 . S
C1063 C1065 1.389 . S
C1064 H1037 0.950 . S
C1064 C1050 1.377 . S
C1064 C1063 1.373 . S
C1065 C1049 1.377 . S
C1065 C1063 1.389 . S
C1065 C1066 1.524 . S
C1066 C1065 1.524 . S
C1066 C1067 1.397 . S
C1066 C1071 1.363 . S
C1067 H1038 0.950 . S
C1067 C1066 1.397 . S
C1067 C1068 1.334 . S
C1068 H1039 0.950 . S
C1068 C1067 1.334 . S
C1068 C1069 1.287 . S
C1069 C1068 1.287 . S
C1069 C1070 1.524 . S
C1069 H1072 0.999 . S
C1070 H1040 0.950 . S
C1070 C1069 1.524 . S
C1070 C1071 1.415 . S
C1071 H1041 0.950 . S
C1071 C1066 1.363 . S
C1071 C1070 1.415 . S
H1072 C1069 0.999 . S
H1073 C1054 0.913 . S
H1074 C1092 0.951 . S
H1075 C1094 0.951 . S
H1076 C1096 0.950 . S
H1077 C1097 0.950 . S
H1078 C1099 0.950 . S
H1079 C1102 0.950 . S
H1080 C1103 0.950 . S
H1081 C1105 0.950 . S
H1082 C1106 0.950 . S
H1083 C1107 0.951 . S
H1084 C1109 0.951 . S
H1085 C1111 0.950 . S
H1086 C1112 0.950 . S
H1087 C1114 0.950 . S
H1088 C1117 0.950 . S
H1089 C1118 0.950 . S
H1090 C1120 0.950 . S
H1091 C1121 0.950 . S
C1092 H1074 0.951 . S
C1092 C1093 1.366 . S
C1092 C1094 1.388 . S
C1093 C1092 1.366 . S
C1093 C1097 1.385 . S
C1094 H1075 0.951 . S
C1094 C1092 1.388 . S
C1094 C1095 1.366 . S
C1095 C1094 1.366 . S
C1095 C1096 1.414 . S
C1095 C1098 1.499 . S
C1096 H1076 0.950 . S
C1096 C1095 1.414 . S
C1096 C1097 1.374 . S
C1097 H1077 0.950 . S
C1097 C1093 1.385 . S
C1097 C1096 1.374 . S
C1098 C1095 1.499 . S
C1098 C1099 1.373 . S
C1098 C1100 1.389 . S
C1099 H1078 0.950 . S
C1099 C1098 1.373 . S
C1099 C1115 1.377 . S
C1100 C1098 1.389 . S
C1100 C1101 1.524 . S
C1100 C1114 1.377 . S
C1101 C1100 1.524 . S
C1101 C1102 1.397 . S
C1101 C1106 1.363 . S
C1102 H1079 0.950 . S
C1102 C1101 1.397 . S
C1102 C1103 1.334 . S
C1103 H1080 0.950 . S
C1103 C1102 1.334 . S
C1103 C1104 1.287 . S
C1104 C1103 1.287 . S
C1104 C1105 1.524 . S
C1104 H1123 0.913 . S
C1105 H1081 0.950 . S
C1105 C1104 1.524 . S
C1105 C1106 1.415 . S
C1106 H1082 0.950 . S
C1106 C1101 1.363 . S
C1106 C1105 1.415 . S
C1107 H1083 0.951 . S
C1107 C1108 1.366 . S
C1107 C1109 1.388 . S
C1108 C1107 1.366 . S
C1108 C1112 1.385 . S
C1109 H1084 0.951 . S
C1109 C1107 1.388 . S
C1109 C1110 1.366 . S
C1110 C1109 1.366 . S
C1110 C1111 1.414 . S
C1110 C1113 1.499 . S
C1111 H1085 0.950 . S
C1111 C1110 1.414 . S
C1111 C1112 1.374 . S
C1112 H1086 0.950 . S
C1112 C1108 1.385 . S
C1112 C1111 1.374 . S
C1113 C1110 1.499 . S
C1113 C1114 1.373 . S
C1113 C1115 1.389 . S
C1114 H1087 0.950 . S
C1114 C1100 1.377 . S
C1114 C1113 1.373 . S
C1115 C1099 1.377 . S
C1115 C1113 1.389 . S
C1115 C1116 1.524 . S
C1116 C1115 1.524 . S
C1116 C1117 1.397 . S
C1116 C1121 1.363 . S
C1117 H1088 0.950 . S
C1117 C1116 1.397 . S
C1117 C1118 1.334 . S
C1118 H1089 0.950 . S
C1118 C1117 1.334 . S
C1118 C1119 1.287 . S
C1119 C1118 1.287 . S
C1119 C1120 1.524 . S
C1119 H1122 0.999 . S
C1120 H1090 0.950 . S
C1120 C1119 1.524 . S
C1120 C1121 1.415 . S
C1121 H1091 0.950 . S
C1121 C1116 1.363 . S
C1121 C1120 1.415 . S
H1122 C1119 0.999 . S
H1123 C1104 0.913 . S
H1124 C1142 0.951 . S
H1125 C1144 0.951 . S
H1126 C1146 0.950 . S
H1127 C1147 0.950 . S
H1128 C1149 0.950 . S
H1129 C1152 0.950 . S
H1130 C1153 0.950 . S
H1131 C1155 0.950 . S
H1132 C1156 0.950 . S
H1133 C1157 0.951 . S
H1134 C1159 0.951 . S
H1135 C1161 0.950 . S
H1136 C1162 0.950 . S
H1137 C1164 0.950 . S
H1138 C1167 0.950 . S
H1139 C1168 0.950 . S
H1140 C1170 0.950 . S
H1141 C1171 0.950 . S
C1142 H1124 0.951 . S
C1142 C1143 1.366 . S
C1142 C1144 1.388 . S
C1143 C1142 1.366 . S
C1143 C1147 1.385 . S
C1144 H1125 0.951 . S
C1144 C1142 1.388 . S
C1144 C1145 1.366 . S
C1145 C1144 1.366 . S
C1145 C1146 1.414 . S
C1145 C1148 1.499 . S
C1146 H1126 0.950 . S
C1146 C1145 1.414 . S
C1146 C1147 1.374 . S
C1147 H1127 0.950 . S
C1147 C1143 1.385 . S
C1147 C1146 1.374 . S
C1148 C1145 1.499 . S
C1148 C1149 1.373 . S
C1148 C1150 1.389 . S
C1149 H1128 0.950 . S
C1149 C1148 1.373 . S
C1149 C1165 1.377 . S
C1150 C1148 1.389 . S
C1150 C1151 1.524 . S
C1150 C1164 1.377 . S
C1151 C1150 1.524 . S
C1151 C1152 1.397 . S
C1151 C1156 1.363 . S
C1152 H1129 0.950 . S
C1152 C1151 1.397 . S
C1152 C1153 1.334 . S
C1153 H1130 0.950 . S
C1153 C1152 1.334 . S
C1153 C1154 1.287 . S
C1154 C1153 1.287 . S
C1154 C1155 1.524 . S
C1154 H1173 0.913 . S
C1155 H1131 0.950 . S
C1155 C1154 1.524 . S
C1155 C1156 1.415 . S
C1156 H1132 0.950 . S
C1156 C1151 1.363 . S
C1156 C1155 1.415 . S
C1157 H1133 0.951 . S
C1157 C1158 1.366 . S
C1157 C1159 1.388 . S
C1158 C1157 1.366 . S
C1158 C1162 1.385 . S
C1159 H1134 0.951 . S
C1159 C1157 1.388 . S
C1159 C1160 1.366 . S
C1160 C1159 1.366 . S
C1160 C1161 1.414 . S
C1160 C1163 1.499 . S
C1161 H1135 0.950 . S
C1161 C1160 1.414 . S
C1161 C1162 1.374 . S
C1162 H1136 0.950 . S
C1162 C1158 1.385 . S
C1162 C1161 1.374 . S
C1163 C1160 1.499 . S
C1163 C1164 1.373 . S
C1163 C1165 1.389 . S
C1164 H1137 0.950 . S
C1164 C1150 1.377 . S
C1164 C1163 1.373 . S
C1165 C1149 1.377 . S
C1165 C1163 1.389 . S
C1165 C1166 1.524 . S
C1166 C1165 1.524 . S
C1166 C1167 1.397 . S
C1166 C1171 1.363 . S
C1167 H1138 0.950 . S
C1167 C1166 1.397 . S
C1167 C1168 1.334 . S
C1168 H1139 0.950 . S
C1168 C1167 1.334 . S
C1168 C1169 1.287 . S
C1169 C1168 1.287 . S
C1169 C1170 1.524 . S
C1169 H1172 0.999 . S
C1170 H1140 0.950 . S
C1170 C1169 1.524 . S
C1170 C1171 1.415 . S
C1171 H1141 0.950 . S
C1171 C1166 1.363 . S
C1171 C1170 1.415 . S
H1172 C1169 0.999 . S
H1173 C1154 0.913 . S
H1174 C1192 0.951 . S
H1175 C1194 0.951 . S
H1176 C1196 0.950 . S
H1177 C1197 0.950 . S
H1178 C1199 0.950 . S
H1179 C1202 0.950 . S
H1180 C1203 0.950 . S
H1181 C1205 0.950 . S
H1182 C1206 0.950 . S
H1183 C1207 0.951 . S
H1184 C1209 0.951 . S
H1185 C1211 0.950 . S
H1186 C1212 0.950 . S
H1187 C1214 0.950 . S
H1188 C1217 0.950 . S
H1189 C1218 0.950 . S
H1190 C1220 0.950 . S
H1191 C1221 0.950 . S
C1192 H1174 0.951 . S
C1192 C1193 1.366 . S
C1192 C1194 1.388 . S
C1193 C1192 1.366 . S
C1193 C1197 1.385 . S
C1194 H1175 0.951 . S
C1194 C1192 1.388 . S
C1194 C1195 1.366 . S
C1195 C1194 1.366 . S
C1195 C1196 1.414 . S
C1195 C1198 1.499 . S
C1196 H1176 0.950 . S
C1196 C1195 1.414 . S
C1196 C1197 1.374 . S
C1197 H1177 0.950 . S
C1197 C1193 1.385 . S
C1197 C1196 1.374 . S
C1198 C1195 1.499 . S
C1198 C1199 1.373 . S
C1198 C1200 1.389 . S
C1199 H1178 0.950 . S
C1199 C1198 1.373 . S
C1199 C1215 1.377 . S
C1200 C1198 1.389 . S
C1200 C1201 1.524 . S
C1200 C1214 1.377 . S
C1201 C1200 1.524 . S
C1201 C1202 1.397 . S
C1201 C1206 1.363 . S
C1202 H1179 0.950 . S
C1202 C1201 1.397 . S
C1202 C1203 1.334 . S
C1203 H1180 0.950 . S
C1203 C1202 1.334 . S
C1203 C1204 1.287 . S
C1204 C1203 1.287 . S
C1204 C1205 1.524 . S
C1204 H1223 0.913 . S
C1205 H1181 0.950 . S
C1205 C1204 1.524 . S
C1205 C1206 1.415 . S
C1206 H1182 0.950 . S
C1206 C1201 1.363 . S
C1206 C1205 1.415 . S
C1207 H1183 0.951 . S
C1207 C1208 1.366 . S
C1207 C1209 1.388 . S
C1208 C1207 1.366 . S
C1208 C1212 1.385 . S
C1209 H1184 0.951 . S
C1209 C1207 1.388 . S
C1209 C1210 1.366 . S
C1210 C1209 1.366 . S
C1210 C1211 1.414 . S
C1210 C1213 1.499 . S
C1211 H1185 0.950 . S
C1211 C1210 1.414 . S
C1211 C1212 1.374 . S
C1212 H1186 0.950 . S
C1212 C1208 1.385 . S
C1212 C1211 1.374 . S
C1213 C1210 1.499 . S
C1213 C1214 1.373 . S
C1213 C1215 1.389 . S
C1214 H1187 0.950 . S
C1214 C1200 1.377 . S
C1214 C1213 1.373 . S
C1215 C1199 1.377 . S
C1215 C1213 1.389 . S
C1215 C1216 1.524 . S
C1216 C1215 1.524 . S
C1216 C1217 1.397 . S
C1216 C1221 1.363 . S
C1217 H1188 0.950 . S
C1217 C1216 1.397 . S
C1217 C1218 1.334 . S
C1218 H1189 0.950 . S
C1218 C1217 1.334 . S
C1218 C1219 1.287 . S
C1219 C1218 1.287 . S
C1219 C1220 1.524 . S
C1219 H1222 0.999 . S
C1220 H1190 0.950 . S
C1220 C1219 1.524 . S
C1220 C1221 1.415 . S
C1221 H1191 0.950 . S
C1221 C1216 1.363 . S
C1221 C1220 1.415 . S
H1222 C1219 0.999 . S
H1223 C1204 0.913 . S
H1224 C1242 0.951 . S
H1225 C1244 0.951 . S
H1226 C1246 0.950 . S
H1227 C1247 0.950 . S
H1228 C1249 0.950 . S
H1229 C1252 0.950 . S
H1230 C1253 0.950 . S
H1231 C1255 0.950 . S
H1232 C1256 0.950 . S
H1233 C1257 0.951 . S
H1234 C1259 0.951 . S
H1235 C1261 0.950 . S
H1236 C1262 0.950 . S
H1237 C1264 0.950 . S
H1238 C1267 0.950 . S
H1239 C1268 0.950 . S
H1240 C1270 0.950 1_455 S
H1241 C1271 0.950 . S
C1242 H1224 0.951 . S
C1242 C1243 1.366 . S
C1242 C1244 1.388 . S
C1243 C1242 1.366 . S
C1243 C1247 1.385 . S
C1244 H1225 0.951 . S
C1244 C1242 1.388 . S
C1244 C1245 1.366 . S
C1245 C1244 1.366 . S
C1245 C1246 1.414 . S
C1245 C1248 1.499 . S
C1246 H1226 0.950 . S
C1246 C1245 1.414 . S
C1246 C1247 1.374 . S
C1247 H1227 0.950 . S
C1247 C1243 1.385 . S
C1247 C1246 1.374 . S
C1248 C1245 1.499 . S
C1248 C1249 1.373 . S
C1248 C1250 1.389 . S
C1249 H1228 0.950 . S
C1249 C1248 1.373 . S
C1249 C1265 1.377 . S
C1250 C1248 1.389 . S
C1250 C1251 1.524 . S
C1250 C1264 1.377 . S
C1251 C1250 1.524 . S
C1251 C1252 1.397 . S
C1251 C1256 1.363 . S
C1252 H1229 0.950 . S
C1252 C1251 1.397 . S
C1252 C1253 1.334 . S
C1253 H1230 0.950 . S
C1253 C1252 1.334 . S
C1253 C1254 1.287 . S
C1254 C1253 1.287 . S
C1254 C1255 1.524 . S
C1254 H1273 0.913 . S
C1255 H1231 0.950 . S
C1255 C1254 1.524 . S
C1255 C1256 1.415 . S
C1256 H1232 0.950 . S
C1256 C1251 1.363 . S
C1256 C1255 1.415 . S
C1257 H1233 0.951 . S
C1257 C1258 1.366 . S
C1257 C1259 1.388 . S
C1258 C1257 1.366 . S
C1258 C1262 1.385 . S
C1259 H1234 0.951 . S
C1259 C1257 1.388 . S
C1259 C1260 1.366 . S
C1260 C1259 1.366 . S
C1260 C1261 1.414 . S
C1260 C1263 1.499 . S
C1261 H1235 0.950 . S
C1261 C1260 1.414 . S
C1261 C1262 1.374 . S
C1262 H1236 0.950 . S
C1262 C1258 1.385 . S
C1262 C1261 1.374 . S
C1263 C1260 1.499 . S
C1263 C1264 1.373 . S
C1263 C1265 1.389 . S
C1264 H1237 0.950 . S
C1264 C1250 1.377 . S
C1264 C1263 1.373 . S
C1265 C1249 1.377 . S
C1265 C1263 1.389 . S
C1265 C1266 1.524 . S
C1266 C1265 1.524 . S
C1266 C1267 1.397 . S
C1266 C1271 1.363 . S
C1267 H1238 0.950 . S
C1267 C1266 1.397 . S
C1267 C1268 1.334 1_655 S
C1268 H1239 0.950 . S
C1268 C1267 1.334 1_455 S
C1268 C1269 1.287 . S
C1269 C1268 1.287 . S
C1269 C1270 1.524 1_455 S
C1269 H1272 0.999 . S
C1270 H1240 0.950 1_655 S
C1270 C1269 1.524 1_655 S
C1270 C1271 1.415 . S
C1271 H1241 0.950 . S
C1271 C1266 1.363 . S
C1271 C1270 1.415 . S
H1272 C1269 0.999 . S
H1273 C1254 0.913 . S
H1274 C1292 0.951 . S
H1275 C1294 0.951 . S
H1276 C1296 0.950 . S
H1277 C1297 0.950 . S
H1278 C1299 0.950 . S
H1279 C1302 0.950 . S
H1280 C1303 0.950 . S
H1281 C1305 0.950 . S
H1282 C1306 0.950 . S
H1283 C1307 0.951 . S
H1284 C1309 0.951 . S
H1285 C1311 0.950 . S
H1286 C1312 0.950 . S
H1287 C1314 0.950 . S
H1288 C1317 0.950 . S
H1289 C1318 0.950 . S
H1290 C1320 0.950 . S
H1291 C1321 0.950 . S
C1292 H1274 0.951 . S
C1292 C1293 1.366 . S
C1292 C1294 1.388 . S
C1293 C1292 1.366 . S
C1293 C1297 1.385 . S
C1294 H1275 0.951 . S
C1294 C1292 1.388 . S
C1294 C1295 1.366 . S
C1295 C1294 1.366 . S
C1295 C1296 1.414 . S
C1295 C1298 1.499 . S
C1296 H1276 0.950 . S
C1296 C1295 1.414 . S
C1296 C1297 1.374 . S
C1297 H1277 0.950 . S
C1297 C1293 1.385 . S
C1297 C1296 1.374 . S
C1298 C1295 1.499 . S
C1298 C1299 1.373 . S
C1298 C1300 1.389 . S
C1299 H1278 0.950 . S
C1299 C1298 1.373 . S
C1299 C1315 1.377 . S
C1300 C1298 1.389 . S
C1300 C1301 1.524 . S
C1300 C1314 1.377 . S
C1301 C1300 1.524 . S
C1301 C1302 1.397 . S
C1301 C1306 1.363 . S
C1302 H1279 0.950 . S
C1302 C1301 1.397 . S
C1302 C1303 1.334 . S
C1303 H1280 0.950 . S
C1303 C1302 1.334 . S
C1303 C1304 1.287 . S
C1304 C1303 1.287 . S
C1304 C1305 1.524 . S
C1304 H1323 0.913 . S
C1305 H1281 0.950 . S
C1305 C1304 1.524 . S
C1305 C1306 1.415 . S
C1306 H1282 0.950 . S
C1306 C1301 1.363 . S
C1306 C1305 1.415 . S
C1307 H1283 0.951 . S
C1307 C1308 1.366 . S
C1307 C1309 1.388 . S
C1308 C1307 1.366 . S
C1308 C1312 1.385 . S
C1309 H1284 0.951 . S
C1309 C1307 1.388 . S
C1309 C1310 1.366 . S
C1310 C1309 1.366 . S
C1310 C1311 1.414 . S
C1310 C1313 1.499 . S
C1311 H1285 0.950 . S
C1311 C1310 1.414 . S
C1311 C1312 1.374 . S
C1312 H1286 0.950 . S
C1312 C1308 1.385 . S
C1312 C1311 1.374 . S
C1313 C1310 1.499 . S
C1313 C1314 1.373 . S
C1313 C1315 1.389 . S
C1314 H1287 0.950 . S
C1314 C1300 1.377 . S
C1314 C1313 1.373 . S
C1315 C1299 1.377 . S
C1315 C1313 1.389 . S
C1315 C1316 1.524 . S
C1316 C1315 1.524 . S
C1316 C1317 1.397 1_455 S
C1316 C1321 1.363 . S
C1317 H1288 0.950 . S
C1317 C1316 1.397 1_655 S
C1317 C1318 1.334 . S
C1318 H1289 0.950 . S
C1318 C1317 1.334 . S
C1318 C1319 1.287 . S
C1319 C1318 1.287 . S
C1319 C1320 1.524 . S
C1319 H1322 0.999 . S
C1320 H1290 0.950 . S
C1320 C1319 1.524 . S
C1320 C1321 1.415 1_655 S
C1321 H1291 0.950 . S
C1321 C1316 1.363 . S
C1321 C1320 1.415 1_455 S
H1322 C1319 0.999 . S
H1323 C1304 0.913 . S
H1324 C1342 0.951 . S
H1325 C1344 0.951 . S
H1326 C1346 0.950 . S
H1327 C1347 0.950 . S
H1328 C1349 0.950 . S
H1329 C1352 0.950 . S
H1330 C1353 0.950 . S
H1331 C1355 0.950 . S
H1332 C1356 0.950 . S
H1333 C1357 0.951 . S
H1334 C1359 0.951 . S
H1335 C1361 0.950 . S
H1336 C1362 0.950 . S
H1337 C1364 0.950 . S
H1338 C1367 0.950 . S
H1339 C1368 0.950 . S
H1340 C1370 0.950 . S
H1341 C1371 0.950 . S
C1342 H1324 0.951 . S
C1342 C1343 1.366 . S
C1342 C1344 1.388 . S
C1343 C1342 1.366 . S
C1343 C1347 1.385 . S
C1344 H1325 0.951 . S
C1344 C1342 1.388 . S
C1344 C1345 1.366 . S
C1345 C1344 1.366 . S
C1345 C1346 1.414 . S
C1345 C1348 1.499 . S
C1346 H1326 0.950 . S
C1346 C1345 1.414 . S
C1346 C1347 1.374 . S
C1347 H1327 0.950 . S
C1347 C1343 1.385 . S
C1347 C1346 1.374 . S
C1348 C1345 1.499 . S
C1348 C1349 1.373 . S
C1348 C1350 1.389 . S
C1349 H1328 0.950 . S
C1349 C1348 1.373 . S
C1349 C1365 1.377 . S
C1350 C1348 1.389 . S
C1350 C1351 1.524 . S
C1350 C1364 1.377 . S
C1351 C1350 1.524 . S
C1351 C1352 1.397 . S
C1351 C1356 1.363 . S
C1352 H1329 0.950 . S
C1352 C1351 1.397 . S
C1352 C1353 1.334 . S
C1353 H1330 0.950 . S
C1353 C1352 1.334 . S
C1353 C1354 1.287 . S
C1354 C1353 1.287 . S
C1354 C1355 1.524 . S
C1354 H1373 0.913 . S
C1355 H1331 0.950 . S
C1355 C1354 1.524 . S
C1355 C1356 1.415 . S
C1356 H1332 0.950 . S
C1356 C1351 1.363 . S
C1356 C1355 1.415 . S
C1357 H1333 0.951 . S
C1357 C1358 1.366 . S
C1357 C1359 1.388 . S
C1358 C1357 1.366 . S
C1358 C1362 1.385 . S
C1359 H1334 0.951 . S
C1359 C1357 1.388 . S
C1359 C1360 1.366 . S
C1360 C1359 1.366 . S
C1360 C1361 1.414 . S
C1360 C1363 1.499 . S
C1361 H1335 0.950 . S
C1361 C1360 1.414 . S
C1361 C1362 1.374 . S
C1362 H1336 0.950 . S
C1362 C1358 1.385 . S
C1362 C1361 1.374 . S
C1363 C1360 1.499 . S
C1363 C1364 1.373 . S
C1363 C1365 1.389 . S
C1364 H1337 0.950 . S
C1364 C1350 1.377 . S
C1364 C1363 1.373 . S
C1365 C1349 1.377 . S
C1365 C1363 1.389 . S
C1365 C1366 1.524 . S
C1366 C1365 1.524 . S
C1366 C1367 1.397 . S
C1366 C1371 1.363 . S
C1367 H1338 0.950 . S
C1367 C1366 1.397 . S
C1367 C1368 1.334 . S
C1368 H1339 0.950 . S
C1368 C1367 1.334 . S
C1368 C1369 1.287 . S
C1369 C1368 1.287 . S
C1369 C1370 1.524 . S
C1369 H1372 0.999 . S
C1370 H1340 0.950 . S
C1370 C1369 1.524 . S
C1370 C1371 1.415 . S
C1371 H1341 0.950 . S
C1371 C1366 1.363 . S
C1371 C1370 1.415 . S
H1372 C1369 0.999 . S
H1373 C1354 0.913 . S
H1374 C1392 0.951 . S
H1375 C1394 0.951 . S
H1376 C1396 0.950 . S
H1377 C1397 0.950 . S
H1378 C1399 0.950 . S
H1379 C1402 0.950 . S
H1380 C1403 0.950 . S
H1381 C1405 0.950 . S
H1382 C1406 0.950 . S
H1383 C1407 0.951 . S
H1384 C1409 0.951 . S
H1385 C1411 0.950 . S
H1386 C1412 0.950 . S
H1387 C1414 0.950 . S
H1388 C1417 0.950 . S
H1389 C1418 0.950 . S
H1390 C1420 0.950 . S
H1391 C1421 0.950 . S
C1392 H1374 0.951 . S
C1392 C1393 1.366 . S
C1392 C1394 1.388 . S
C1393 C1392 1.366 . S
C1393 C1397 1.385 1_655 S
C1394 H1375 0.951 . S
C1394 C1392 1.388 . S
C1394 C1395 1.366 . S
C1395 C1394 1.366 . S
C1395 C1396 1.414 1_655 S
C1395 C1398 1.499 1_655 S
C1396 H1376 0.950 . S
C1396 C1395 1.414 1_455 S
C1396 C1397 1.374 . S
C1397 H1377 0.950 . S
C1397 C1393 1.385 1_455 S
C1397 C1396 1.374 . S
C1398 C1395 1.499 1_455 S
C1398 C1399 1.377 . S
C1398 C1400 1.386 1_455 S
C1399 H1378 0.950 . S
C1399 C1398 1.377 . S
C1399 C1415 1.377 . S
C1400 C1398 1.386 1_655 S
C1400 C1401 1.524 . S
C1400 C1414 1.377 . S
C1401 C1400 1.524 . S
C1401 C1402 1.397 . S
C1401 C1406 1.363 . S
C1402 H1379 0.950 . S
C1402 C1401 1.397 . S
C1402 C1403 1.334 . S
C1403 H1380 0.950 . S
C1403 C1402 1.334 . S
C1403 C1404 1.287 . S
C1404 C1403 1.287 . S
C1404 C1405 1.524 . S
C1404 H1423 0.913 . S
C1405 H1381 0.950 . S
C1405 C1404 1.524 . S
C1405 C1406 1.415 . S
C1406 H1382 0.950 . S
C1406 C1401 1.363 . S
C1406 C1405 1.415 . S
C1407 H1383 0.951 . S
C1407 C1408 1.366 . S
C1407 C1409 1.388 . S
C1408 C1407 1.366 . S
C1408 C1412 1.385 1_455 S
C1409 H1384 0.951 . S
C1409 C1407 1.388 . S
C1409 C1410 1.366 . S
C1410 C1409 1.366 . S
C1410 C1411 1.414 1_455 S
C1410 C1413 1.499 . S
C1411 H1385 0.950 . S
C1411 C1410 1.414 1_655 S
C1411 C1412 1.374 . S
C1412 H1386 0.950 . S
C1412 C1408 1.385 1_655 S
C1412 C1411 1.374 . S
C1413 C1410 1.499 . S
C1413 C1414 1.373 1_455 S
C1413 C1415 1.389 . S
C1414 H1387 0.950 . S
C1414 C1400 1.377 . S
C1414 C1413 1.373 1_655 S
C1415 C1399 1.377 . S
C1415 C1413 1.389 . S
C1415 C1416 1.524 . S
C1416 C1415 1.524 . S
C1416 C1417 1.397 . S
C1416 C1421 1.363 . S
C1417 H1388 0.950 . S
C1417 C1416 1.397 . S
C1417 C1418 1.334 . S
C1418 H1389 0.950 . S
C1418 C1417 1.334 . S
C1418 C1419 1.287 . S
C1419 C1418 1.287 . S
C1419 C1420 1.524 . S
C1419 H1422 0.999 . S
C1420 H1390 0.950 . S
C1420 C1419 1.524 . S
C1420 C1421 1.415 . S
C1421 H1391 0.950 . S
C1421 C1416 1.363 . S
C1421 C1420 1.415 . S
H1422 C1419 0.999 . S
H1423 C1404 0.913 . S
H1424 C1442 0.951 . S
H1425 C1444 0.951 . S
H1426 C1446 0.950 . S
H1427 C1447 0.950 . S
H1428 C1449 0.950 . S
H1429 C1452 0.950 . S
H1430 C1453 0.950 . S
H1431 C1455 0.950 . S
H1432 C1456 0.950 . S
H1433 C1457 0.951 . S
H1434 C1459 0.951 . S
H1435 C1461 0.950 . S
H1436 C1462 0.970 . S
H1437 C1464 0.950 . S
H1438 C1467 0.950 . S
H1439 C1468 0.950 . S
H1440 C1470 0.950 . S
H1441 C1471 0.950 . S
C1442 H1424 0.951 . S
C1442 C1443 1.366 . S
C1442 C1444 1.388 . S
C1443 C1442 1.366 . S
C1443 C1447 1.385 . S
C1444 H1425 0.951 . S
C1444 C1442 1.388 . S
C1444 C1445 1.366 . S
C1445 C1444 1.366 . S
C1445 C1446 1.414 . S
C1445 C1448 1.499 . S
C1446 H1426 0.950 . S
C1446 C1445 1.414 . S
C1446 C1447 1.374 . S
C1447 H1427 0.950 . S
C1447 C1443 1.385 . S
C1447 C1446 1.374 . S
C1448 C1445 1.499 . S
C1448 C1449 1.373 . S
C1448 C1450 1.389 . S
C1449 H1428 0.950 . S
C1449 C1448 1.373 . S
C1449 C1465 1.377 . S
C1450 C1448 1.389 . S
C1450 C1451 1.524 . S
C1450 C1464 1.377 . S
C1451 C1450 1.524 . S
C1451 C1452 1.397 . S
C1451 C1456 1.363 . S
C1452 H1429 0.950 . S
C1452 C1451 1.397 . S
C1452 C1453 1.334 . S
C1453 H1430 0.950 . S
C1453 C1452 1.334 . S
C1453 C1454 1.287 . S
C1454 C1453 1.287 . S
C1454 C1455 1.524 . S
C1454 H1473 0.913 . S
C1455 H1431 0.950 . S
C1455 C1454 1.524 . S
C1455 C1456 1.415 . S
C1456 H1432 0.950 . S
C1456 C1451 1.363 . S
C1456 C1455 1.415 . S
C1457 H1433 0.951 . S
C1457 C1458 1.366 . S
C1457 C1459 1.388 . S
C1458 C1457 1.366 . S
C1458 C1462 1.385 . S
C1459 H1434 0.951 . S
C1459 C1457 1.388 . S
C1459 C1460 1.366 . S
C1460 C1459 1.366 . S
C1460 C1461 1.414 . S
C1460 C1463 1.499 . S
C1461 H1435 0.950 . S
C1461 C1460 1.414 . S
C1461 C1462 1.374 . S
C1462 H1436 0.970 . S
C1462 C1458 1.385 . S
C1462 C1461 1.374 . S
C1463 C1460 1.499 . S
C1463 C1464 1.373 . S
C1463 C1465 1.389 . S
C1464 H1437 0.950 . S
C1464 C1450 1.377 . S
C1464 C1463 1.373 . S
C1465 C1449 1.377 . S
C1465 C1463 1.389 . S
C1465 C1466 1.524 . S
C1466 C1465 1.524 . S
C1466 C1467 1.397 . S
C1466 C1471 1.363 . S
C1467 H1438 0.950 . S
C1467 C1466 1.397 . S
C1467 C1468 1.334 . S
C1468 H1439 0.950 . S
C1468 C1467 1.334 . S
C1468 C1469 1.287 . S
C1469 C1468 1.287 . S
C1469 C1470 1.524 . S
C1469 H1472 0.999 . S
C1470 H1440 0.950 . S
C1470 C1469 1.524 . S
C1470 C1471 1.415 . S
C1471 H1441 0.950 . S
C1471 C1466 1.363 . S
C1471 C1470 1.415 . S
H1472 C1469 0.999 . S
H1473 C1454 0.913 . S
H1474 C1492 0.951 . S
H1475 C1494 0.951 . S
H1476 C1496 0.950 . S
H1477 C1497 0.950 . S
H1478 C1499 0.950 . S
H1479 C1502 0.950 . S
H1480 C1503 0.950 . S
H1481 C1505 0.950 . S
H1482 C1506 0.950 . S
H1483 C1507 0.951 . S
H1484 C1509 0.951 . S
H1485 C1511 0.950 . S
H1486 C1512 0.950 . S
H1487 C1514 0.950 . S
H1488 C1517 0.950 . S
H1489 C1518 0.950 . S
H1490 C1520 0.950 . S
H1491 C1521 0.950 . S
C1492 H1474 0.951 . S
C1492 C1493 1.366 . S
C1492 C1494 1.388 . S
C1493 C1492 1.366 . S
C1493 C1497 1.385 . S
C1494 H1475 0.951 . S
C1494 C1492 1.388 . S
C1494 C1495 1.366 . S
C1495 C1494 1.366 . S
C1495 C1496 1.414 . S
C1495 C1498 1.499 . S
C1496 H1476 0.950 . S
C1496 C1495 1.414 . S
C1496 C1497 1.374 . S
C1497 H1477 0.950 . S
C1497 C1493 1.385 . S
C1497 C1496 1.374 . S
C1498 C1495 1.499 . S
C1498 C1499 1.373 . S
C1498 C1500 1.389 . S
C1499 H1478 0.950 . S
C1499 C1498 1.373 . S
C1499 C1515 1.377 . S
C1500 C1498 1.389 . S
C1500 C1501 1.524 . S
C1500 C1514 1.377 . S
C1501 C1500 1.524 . S
C1501 C1502 1.397 . S
C1501 C1506 1.363 . S
C1502 H1479 0.950 . S
C1502 C1501 1.397 . S
C1502 C1503 1.334 . S
C1503 H1480 0.950 . S
C1503 C1502 1.334 . S
C1503 C1504 1.287 . S
C1504 C1503 1.287 . S
C1504 C1505 1.524 . S
C1504 H1523 0.913 . S
C1505 H1481 0.950 . S
C1505 C1504 1.524 . S
C1505 C1506 1.415 . S
C1506 H1482 0.950 . S
C1506 C1501 1.363 . S
C1506 C1505 1.415 . S
C1507 H1483 0.951 . S
C1507 C1508 1.366 . S
C1507 C1509 1.388 . S
C1508 C1507 1.366 . S
C1508 C1512 1.385 . S
C1509 H1484 0.951 . S
C1509 C1507 1.388 . S
C1509 C1510 1.366 . S
C1510 C1509 1.366 . S
C1510 C1511 1.414 . S
C1510 C1513 1.499 . S
C1511 H1485 0.950 . S
C1511 C1510 1.414 . S
C1511 C1512 1.374 . S
C1512 H1486 0.950 . S
C1512 C1508 1.385 . S
C1512 C1511 1.374 . S
C1513 C1510 1.499 . S
C1513 C1514 1.373 . S
C1513 C1515 1.389 . S
C1514 H1487 0.950 . S
C1514 C1500 1.377 . S
C1514 C1513 1.373 . S
C1515 C1499 1.377 . S
C1515 C1513 1.389 . S
C1515 C1516 1.524 . S
C1516 C1515 1.524 . S
C1516 C1517 1.397 . S
C1516 C1521 1.363 . S
C1517 H1488 0.950 . S
C1517 C1516 1.397 . S
C1517 C1518 1.334 . S
C1518 H1489 0.950 . S
C1518 C1517 1.334 . S
C1518 C1519 1.287 . S
C1519 C1518 1.287 . S
C1519 C1520 1.524 . S
C1519 H1522 0.999 . S
C1520 H1490 0.950 . S
C1520 C1519 1.524 . S
C1520 C1521 1.415 . S
C1521 H1491 0.950 . S
C1521 C1516 1.363 . S
C1521 C1520 1.415 . S
H1522 C1519 0.999 . S
H1523 C1504 0.913 . S
H1524 C1542 0.951 . S
H1525 C1544 0.951 . S
H1526 C1546 0.950 . S
H1527 C1547 0.950 . S
H1528 C1549 0.950 . S
H1529 C1552 0.950 . S
H1530 C1553 0.950 . S
H1531 C1555 0.950 . S
H1532 C1556 0.950 . S
H1533 C1557 0.951 . S
H1534 C1559 0.951 1_556 S
H1535 C1561 0.950 . S
H1536 C1562 0.950 . S
H1537 C1564 0.950 . S
H1538 C1567 0.950 . S
H1539 C1568 0.950 . S
H1540 C1570 0.950 . S
H1541 C1571 0.950 . S
C1542 H1524 0.951 . S
C1542 C1543 1.366 . S
C1542 C1544 1.388 . S
C1543 C1542 1.366 . S
C1543 C1547 1.385 1_545 S
C1544 H1525 0.951 . S
C1544 C1542 1.388 . S
C1544 C1545 1.366 1_545 S
C1545 C1544 1.366 1_565 S
C1545 C1546 1.414 . S
C1545 C1548 1.499 . S
C1546 H1526 0.950 . S
C1546 C1545 1.414 . S
C1546 C1547 1.374 . S
C1547 H1527 0.950 . S
C1547 C1543 1.385 1_565 S
C1547 C1546 1.374 . S
C1548 C1545 1.499 . S
C1548 C1549 1.373 . S
C1548 C1550 1.389 1_556 S
C1549 H1528 0.950 . S
C1549 C1548 1.373 . S
C1549 C1565 1.377 . S
C1550 C1548 1.389 1_554 S
C1550 C1551 1.524 . S
C1550 C1564 1.377 . S
C1551 C1550 1.524 . S
C1551 C1552 1.397 . S
C1551 C1556 1.363 1_565 S
C1552 H1529 0.950 . S
C1552 C1551 1.397 . S
C1552 C1553 1.334 1_565 S
C1553 H1530 0.950 . S
C1553 C1552 1.334 1_545 S
C1553 C1554 1.287 . S
C1554 C1553 1.287 . S
C1554 C1555 1.524 . S
C1554 H1573 0.913 . S
C1555 H1531 0.950 . S
C1555 C1554 1.524 . S
C1555 C1556 1.415 . S
C1556 H1532 0.950 . S
C1556 C1551 1.363 1_545 S
C1556 C1555 1.415 . S
C1557 H1533 0.951 . S
C1557 C1558 1.366 . S
C1557 C1559 1.388 . S
C1558 C1557 1.366 . S
C1558 C1562 1.385 . S
C1559 H1534 0.951 1_554 S
C1559 C1557 1.388 . S
C1559 C1560 1.366 . S
C1560 C1559 1.366 . S
C1560 C1561 1.414 . S
C1560 C1563 1.499 1_554 S
C1561 H1535 0.950 . S
C1561 C1560 1.414 . S
C1561 C1562 1.374 . S
C1562 H1536 0.950 . S
C1562 C1558 1.385 . S
C1562 C1561 1.374 . S
C1563 C1560 1.499 1_556 S
C1563 C1564 1.373 1_556 S
C1563 C1565 1.389 . S
C1564 H1537 0.950 . S
C1564 C1550 1.377 . S
C1564 C1563 1.373 1_554 S
C1565 C1549 1.377 . S
C1565 C1563 1.389 . S
C1565 C1566 1.524 . S
C1566 C1565 1.524 . S
C1566 C1567 1.397 . S
C1566 C1571 1.363 . S
C1567 H1538 0.950 . S
C1567 C1566 1.397 . S
C1567 C1568 1.334 . S
C1568 H1539 0.950 . S
C1568 C1567 1.334 . S
C1568 C1569 1.287 . S
C1569 C1568 1.287 . S
C1569 C1570 1.524 . S
C1569 H1572 0.999 . S
C1570 H1540 0.950 . S
C1570 C1569 1.524 . S
C1570 C1571 1.415 . S
C1571 H1541 0.950 . S
C1571 C1566 1.363 . S
C1571 C1570 1.415 . S
H1572 C1569 0.999 . S
H1573 C1554 0.913 . S
H1574 C1592 0.951 . S
H1575 C1594 0.951 . S
H1576 C1596 0.950 . S
H1577 C1597 0.950 . S
H1578 C1599 0.950 . S
H1579 C1602 0.950 . S
H1580 C1603 0.950 . S
H1581 C1605 0.950 . S
H1582 C1606 0.950 . S
H1583 C1607 0.951 . S
H1584 C1609 0.951 . S
H1585 C1611 0.950 . S
H1586 C1612 0.950 . S
H1587 C1614 0.950 . S
H1588 C1617 0.950 . S
H1589 C1618 0.950 . S
H1590 C1620 0.950 . S
H1591 C1621 0.950 . S
C1592 H1574 0.951 . S
C1592 C1593 1.366 . S
C1592 C1594 1.388 . S
C1593 C1592 1.366 . S
C1593 C1597 1.385 . S
C1594 H1575 0.951 . S
C1594 C1592 1.388 . S
C1594 C1595 1.366 . S
C1595 C1594 1.366 . S
C1595 C1596 1.414 . S
C1595 C1598 1.499 . S
C1596 H1576 0.950 . S
C1596 C1595 1.414 . S
C1596 C1597 1.374 . S
C1597 H1577 0.950 . S
C1597 C1593 1.385 . S
C1597 C1596 1.374 . S
C1598 C1595 1.499 . S
C1598 C1599 1.373 . S
C1598 C1600 1.389 . S
C1599 H1578 0.950 . S
C1599 C1598 1.373 . S
C1599 C1615 1.377 . S
C1600 C1598 1.389 . S
C1600 C1601 1.524 . S
C1600 C1614 1.377 . S
C1601 C1600 1.524 . S
C1601 C1602 1.397 . S
C1601 C1606 1.363 . S
C1602 H1579 0.950 . S
C1602 C1601 1.397 . S
C1602 C1603 1.334 . S
C1603 H1580 0.950 . S
C1603 C1602 1.334 . S
C1603 C1604 1.287 . S
C1604 C1603 1.287 . S
C1604 C1605 1.524 . S
C1604 H1623 0.913 . S
C1605 H1581 0.950 . S
C1605 C1604 1.524 . S
C1605 C1606 1.415 . S
C1606 H1582 0.950 . S
C1606 C1601 1.363 . S
C1606 C1605 1.415 . S
C1607 H1583 0.951 . S
C1607 C1608 1.366 . S
C1607 C1609 1.388 . S
C1608 C1607 1.366 . S
C1608 C1612 1.385 . S
C1609 H1584 0.951 . S
C1609 C1607 1.388 . S
C1609 C1610 1.366 . S
C1610 C1609 1.366 . S
C1610 C1611 1.414 . S
C1610 C1613 1.499 . S
C1611 H1585 0.950 . S
C1611 C1610 1.414 . S
C1611 C1612 1.374 . S
C1612 H1586 0.950 . S
C1612 C1608 1.385 . S
C1612 C1611 1.374 . S
C1613 C1610 1.499 . S
C1613 C1614 1.373 . S
C1613 C1615 1.389 . S
C1614 H1587 0.950 . S
C1614 C1600 1.377 . S
C1614 C1613 1.373 . S
C1615 C1599 1.377 . S
C1615 C1613 1.389 . S
C1615 C1616 1.524 . S
C1616 C1615 1.524 . S
C1616 C1617 1.397 . S
C1616 C1621 1.363 . S
C1617 H1588 0.950 . S
C1617 C1616 1.397 . S
C1617 C1618 1.334 . S
C1618 H1589 0.950 . S
C1618 C1617 1.334 . S
C1618 C1619 1.287 . S
C1619 C1618 1.287 . S
C1619 C1620 1.524 . S
C1619 H1622 0.999 . S
C1620 H1590 0.950 . S
C1620 C1619 1.524 . S
C1620 C1621 1.415 . S
C1621 H1591 0.950 . S
C1621 C1616 1.363 . S
C1621 C1620 1.415 . S
H1622 C1619 0.999 . S
H1623 C1604 0.913 . S
H1624 C1642 0.951 . S
H1625 C1644 0.951 . S
H1626 C1646 0.950 . S
H1627 C1647 0.950 1_565 S
H1628 C1649 0.950 . S
H1629 C1652 0.950 . S
H1630 C1653 0.950 . S
H1631 C1655 0.950 . S
H1632 C1656 0.950 . S
H1633 C1657 0.951 . S
H1634 C1659 0.951 . S
H1635 C1661 0.950 . S
H1636 C1662 0.950 . S
H1637 C1664 0.950 . S
H1638 C1667 0.950 . S
H1639 C1668 0.950 . S
H1640 C1670 0.950 . S
H1641 C1671 0.950 . S
C1642 H1624 0.951 . S
C1642 C1643 1.366 . S
C1642 C1644 1.388 . S
C1643 C1642 1.366 . S
C1643 C1647 1.385 . S
C1644 H1625 0.951 . S
C1644 C1642 1.388 . S
C1644 C1645 1.366 . S
C1645 C1644 1.366 . S
C1645 C1646 1.414 . S
C1645 C1648 1.499 . S
C1646 H1626 0.950 . S
C1646 C1645 1.414 . S
C1646 C1647 1.374 . S
C1647 H1627 0.950 1_545 S
C1647 C1643 1.385 . S
C1647 C1646 1.374 . S
C1648 C1645 1.499 . S
C1648 C1649 1.373 . S
C1648 C1650 1.389 . S
C1649 H1628 0.950 . S
C1649 C1648 1.373 . S
C1649 C1665 1.377 . S
C1650 C1648 1.389 . S
C1650 C1651 1.524 . S
C1650 C1664 1.377 . S
C1651 C1650 1.524 . S
C1651 C1652 1.397 . S
C1651 C1656 1.363 . S
C1652 H1629 0.950 . S
C1652 C1651 1.397 . S
C1652 C1653 1.334 . S
C1653 H1630 0.950 . S
C1653 C1652 1.334 . S
C1653 C1654 1.287 . S
C1654 C1653 1.287 . S
C1654 C1655 1.524 . S
C1654 H1673 0.913 . S
C1655 H1631 0.950 . S
C1655 C1654 1.524 . S
C1655 C1656 1.415 . S
C1656 H1632 0.950 . S
C1656 C1651 1.363 . S
C1656 C1655 1.415 . S
C1657 H1633 0.951 . S
C1657 C1658 1.366 . S
C1657 C1659 1.388 . S
C1658 C1657 1.366 . S
C1658 C1662 1.385 . S
C1659 H1634 0.951 . S
C1659 C1657 1.388 . S
C1659 C1660 1.366 . S
C1660 C1659 1.366 . S
C1660 C1661 1.414 . S
C1660 C1663 1.499 . S
C1661 H1635 0.950 . S
C1661 C1660 1.414 . S
C1661 C1662 1.374 . S
C1662 H1636 0.950 . S
C1662 C1658 1.385 . S
C1662 C1661 1.374 . S
C1663 C1660 1.499 . S
C1663 C1664 1.373 . S
C1663 C1665 1.389 . S
C1664 H1637 0.950 . S
C1664 C1650 1.377 . S
C1664 C1663 1.373 . S
C1665 C1649 1.377 . S
C1665 C1663 1.389 . S
C1665 C1666 1.524 . S
C1666 C1665 1.524 . S
C1666 C1667 1.397 . S
C1666 C1671 1.363 . S
C1667 H1638 0.950 . S
C1667 C1666 1.397 . S
C1667 C1668 1.334 . S
C1668 H1639 0.950 . S
C1668 C1667 1.334 . S
C1668 C1669 1.287 . S
C1669 C1668 1.287 . S
C1669 C1670 1.524 . S
C1669 H1672 0.999 . S
C1670 H1640 0.950 . S
C1670 C1669 1.524 . S
C1670 C1671 1.415 . S
C1671 H1641 0.950 . S
C1671 C1666 1.363 . S
C1671 C1670 1.415 . S
H1672 C1669 0.999 . S
H1673 C1654 0.913 . S
H1674 C1692 0.951 . S
H1675 C1694 0.951 . S
H1676 C1696 0.950 . S
H1677 C1697 0.950 . S
H1678 C1699 0.950 . S
H1679 C1702 0.950 . S
H1680 C1703 0.950 . S
H1681 C1705 0.950 . S
H1682 C1706 0.950 . S
H1683 C1707 0.951 . S
H1684 C1709 0.951 . S
H1685 C1711 0.950 . S
H1686 C1712 0.950 . S
H1687 C1714 0.950 . S
H1688 C1717 0.950 . S
H1689 C1718 0.950 . S
H1690 C1720 0.950 . S
H1691 C1721 0.950 . S
C1692 H1674 0.951 . S
C1692 C1693 1.366 . S
C1692 C1694 1.388 . S
C1693 C1692 1.366 . S
C1693 C1697 1.385 . S
C1694 H1675 0.951 . S
C1694 C1692 1.388 . S
C1694 C1695 1.366 . S
C1695 C1694 1.366 . S
C1695 C1696 1.414 . S
C1695 C1698 1.499 . S
C1696 H1676 0.950 . S
C1696 C1695 1.414 . S
C1696 C1697 1.374 . S
C1697 H1677 0.950 . S
C1697 C1693 1.385 . S
C1697 C1696 1.374 . S
C1698 C1695 1.499 . S
C1698 C1699 1.373 . S
C1698 C1700 1.389 . S
C1699 H1678 0.950 . S
C1699 C1698 1.373 . S
C1699 C1715 1.377 . S
C1700 C1698 1.389 . S
C1700 C1701 1.524 . S
C1700 C1714 1.377 . S
C1701 C1700 1.524 . S
C1701 C1702 1.397 . S
C1701 C1706 1.363 . S
C1702 H1679 0.950 . S
C1702 C1701 1.397 . S
C1702 C1703 1.334 . S
C1703 H1680 0.950 . S
C1703 C1702 1.334 . S
C1703 C1704 1.287 . S
C1704 C1703 1.287 . S
C1704 C1705 1.524 . S
C1704 H1723 0.913 . S
C1705 H1681 0.950 . S
C1705 C1704 1.524 . S
C1705 C1706 1.415 . S
C1706 H1682 0.950 . S
C1706 C1701 1.363 . S
C1706 C1705 1.415 . S
C1707 H1683 0.951 . S
C1707 C1708 1.366 . S
C1707 C1709 1.388 . S
C1708 C1707 1.366 . S
C1708 C1712 1.385 . S
C1709 H1684 0.951 . S
C1709 C1707 1.388 . S
C1709 C1710 1.366 . S
C1710 C1709 1.366 . S
C1710 C1711 1.414 . S
C1710 C1713 1.499 . S
C1711 H1685 0.950 . S
C1711 C1710 1.414 . S
C1711 C1712 1.374 . S
C1712 H1686 0.950 . S
C1712 C1708 1.385 . S
C1712 C1711 1.374 . S
C1713 C1710 1.499 . S
C1713 C1714 1.373 . S
C1713 C1715 1.389 . S
C1714 H1687 0.950 . S
C1714 C1700 1.377 . S
C1714 C1713 1.373 . S
C1715 C1699 1.377 . S
C1715 C1713 1.389 . S
C1715 C1716 1.524 . S
C1716 C1715 1.524 . S
C1716 C1717 1.397 . S
C1716 C1721 1.363 . S
C1717 H1688 0.950 . S
C1717 C1716 1.397 . S
C1717 C1718 1.334 . S
C1718 H1689 0.950 . S
C1718 C1717 1.334 . S
C1718 C1719 1.287 . S
C1719 C1718 1.287 . S
C1719 C1720 1.524 . S
C1719 H1722 0.999 . S
C1720 H1690 0.950 . S
C1720 C1719 1.524 . S
C1720 C1721 1.415 . S
C1721 H1691 0.950 . S
C1721 C1716 1.363 . S
C1721 C1720 1.415 . S
H1722 C1719 0.999 . S
H1723 C1704 0.913 . S
H1724 C1742 0.951 . S
H1725 C1744 0.951 . S
H1726 C1746 0.950 . S
H1727 C1747 0.950 . S
H1728 C1749 0.950 . S
H1729 C1752 0.950 . S
H1730 C1753 0.950 . S
H1731 C1755 0.950 . S
H1732 C1756 0.950 . S
H1733 C1757 0.951 . S
H1734 C1759 0.951 . S
H1735 C1761 0.950 . S
H1736 C1762 0.950 . S
H1737 C1764 0.950 . S
H1738 C1767 0.950 . S
H1739 C1768 0.950 . S
H1740 C1770 0.950 . S
H1741 C1771 0.950 . S
C1742 H1724 0.951 . S
C1742 C1743 1.366 . S
C1742 C1744 1.388 . S
C1743 C1742 1.366 . S
C1743 C1747 1.385 . S
C1744 H1725 0.951 . S
C1744 C1742 1.388 . S
C1744 C1745 1.366 . S
C1745 C1744 1.366 . S
C1745 C1746 1.414 . S
C1745 C1748 1.499 . S
C1746 H1726 0.950 . S
C1746 C1745 1.414 . S
C1746 C1747 1.374 . S
C1747 H1727 0.950 . S
C1747 C1743 1.385 . S
C1747 C1746 1.374 . S
C1748 C1745 1.499 . S
C1748 C1749 1.373 . S
C1748 C1750 1.389 . S
C1749 H1728 0.950 . S
C1749 C1748 1.373 . S
C1749 C1765 1.377 . S
C1750 C1748 1.389 . S
C1750 C1751 1.524 . S
C1750 C1764 1.377 . S
C1751 C1750 1.524 . S
C1751 C1752 1.397 . S
C1751 C1756 1.363 . S
C1752 H1729 0.950 . S
C1752 C1751 1.397 . S
C1752 C1753 1.334 . S
C1753 H1730 0.950 . S
C1753 C1752 1.334 . S
C1753 C1754 1.287 . S
C1754 C1753 1.287 . S
C1754 C1755 1.524 . S
C1754 H1773 0.913 . S
C1755 H1731 0.950 . S
C1755 C1754 1.524 . S
C1755 C1756 1.415 . S
C1756 H1732 0.950 . S
C1756 C1751 1.363 . S
C1756 C1755 1.415 . S
C1757 H1733 0.951 . S
C1757 C1758 1.366 . S
C1757 C1759 1.388 . S
C1758 C1757 1.366 . S
C1758 C1762 1.385 . S
C1759 H1734 0.951 . S
C1759 C1757 1.388 . S
C1759 C1760 1.366 . S
C1760 C1759 1.366 . S
C1760 C1761 1.414 . S
C1760 C1763 1.499 . S
C1761 H1735 0.950 . S
C1761 C1760 1.414 . S
C1761 C1762 1.374 . S
C1762 H1736 0.950 . S
C1762 C1758 1.385 . S
C1762 C1761 1.374 . S
C1763 C1760 1.499 . S
C1763 C1764 1.373 . S
C1763 C1765 1.389 . S
C1764 H1737 0.950 . S
C1764 C1750 1.377 . S
C1764 C1763 1.373 . S
C1765 C1749 1.377 . S
C1765 C1763 1.389 . S
C1765 C1766 1.524 . S
C1766 C1765 1.524 . S
C1766 C1767 1.397 . S
C1766 C1771 1.363 . S
C1767 H1738 0.950 . S
C1767 C1766 1.397 . S
C1767 C1768 1.334 . S
C1768 H1739 0.950 . S
C1768 C1767 1.334 . S
C1768 C1769 1.287 . S
C1769 C1768 1.287 . S
C1769 C1770 1.524 . S
C1769 H1772 0.999 . S
C1770 H1740 0.950 . S
C1770 C1769 1.524 . S
C1770 C1771 1.415 . S
C1771 H1741 0.950 . S
C1771 C1766 1.363 . S
C1771 C1770 1.415 . S
H1772 C1769 0.999 . S
H1773 C1754 0.913 . S
H1774 C1792 0.951 . S
H1775 C1794 0.951 . S
H1776 C1796 0.950 . S
H1777 C1797 0.950 . S
H1778 C1799 0.950 . S
H1779 C1802 0.950 . S
H1780 C1803 0.950 . S
H1781 C1805 0.950 . S
H1782 C1806 0.950 . S
H1783 C1807 0.951 . S
H1784 C1809 0.951 . S
H1785 C1811 0.950 . S
H1786 C1812 0.950 . S
H1787 C1814 0.950 . S
H1788 C1817 0.950 . S
H1789 C1818 0.950 . S
H1790 C1820 0.950 . S
H1791 C1821 0.950 . S
C1792 H1774 0.951 . S
C1792 C1793 1.366 . S
C1792 C1794 1.388 . S
C1793 C1792 1.366 . S
C1793 C1797 1.385 . S
C1794 H1775 0.951 . S
C1794 C1792 1.388 . S
C1794 C1795 1.366 . S
C1795 C1794 1.366 . S
C1795 C1796 1.414 . S
C1795 C1798 1.499 . S
C1796 H1776 0.950 . S
C1796 C1795 1.414 . S
C1796 C1797 1.374 . S
C1797 H1777 0.950 . S
C1797 C1793 1.385 . S
C1797 C1796 1.374 . S
C1798 C1795 1.499 . S
C1798 C1799 1.373 . S
C1798 C1800 1.389 . S
C1799 H1778 0.950 . S
C1799 C1798 1.373 . S
C1799 C1815 1.377 . S
C1800 C1798 1.389 . S
C1800 C1801 1.524 . S
C1800 C1814 1.377 . S
C1801 C1800 1.524 . S
C1801 C1802 1.397 . S
C1801 C1806 1.363 . S
C1802 H1779 0.950 . S
C1802 C1801 1.397 . S
C1802 C1803 1.334 . S
C1803 H1780 0.950 . S
C1803 C1802 1.334 . S
C1803 C1804 1.287 . S
C1804 C1803 1.287 . S
C1804 C1805 1.524 . S
C1804 H1823 0.913 . S
C1805 H1781 0.950 . S
C1805 C1804 1.524 . S
C1805 C1806 1.415 . S
C1806 H1782 0.950 . S
C1806 C1801 1.363 . S
C1806 C1805 1.415 . S
C1807 H1783 0.951 . S
C1807 C1808 1.366 . S
C1807 C1809 1.388 . S
C1808 C1807 1.366 . S
C1808 C1812 1.385 . S
C1809 H1784 0.951 . S
C1809 C1807 1.388 . S
C1809 C1810 1.366 . S
C1810 C1809 1.366 . S
C1810 C1811 1.414 . S
C1810 C1813 1.499 . S
C1811 H1785 0.950 . S
C1811 C1810 1.414 . S
C1811 C1812 1.374 . S
C1812 H1786 0.950 . S
C1812 C1808 1.385 . S
C1812 C1811 1.374 . S
C1813 C1810 1.499 . S
C1813 C1814 1.373 . S
C1813 C1815 1.389 . S
C1814 H1787 0.950 . S
C1814 C1800 1.377 . S
C1814 C1813 1.373 . S
C1815 C1799 1.377 . S
C1815 C1813 1.389 . S
C1815 C1816 1.524 . S
C1816 C1815 1.524 . S
C1816 C1817 1.397 . S
C1816 C1821 1.363 . S
C1817 H1788 0.950 . S
C1817 C1816 1.397 . S
C1817 C1818 1.334 . S
C1818 H1789 0.950 . S
C1818 C1817 1.334 . S
C1818 C1819 1.287 . S
C1819 C1818 1.287 . S
C1819 C1820 1.524 . S
C1819 H1822 0.999 . S
C1820 H1790 0.950 . S
C1820 C1819 1.524 . S
C1820 C1821 1.415 . S
C1821 H1791 0.950 . S
C1821 C1816 1.363 . S
C1821 C1820 1.415 . S
H1822 C1819 0.999 . S
H1823 C1804 0.913 . S
H1824 C1842 0.951 . S
H1825 C1844 0.951 . S
H1826 C1846 0.950 . S
H1827 C1847 0.950 . S
H1828 C1849 0.950 . S
H1829 C1852 0.950 . S
H1830 C1853 0.950 . S
H1831 C1855 0.950 . S
H1832 C1856 0.950 . S
H1833 C1857 0.951 . S
H1834 C1859 0.951 . S
H1835 C1861 0.950 . S
H1836 C1862 0.950 . S
H1837 C1864 0.950 . S
H1838 C1867 0.950 . S
H1839 C1868 0.950 . S
H1840 C1870 0.950 . S
H1841 C1871 0.950 . S
C1842 H1824 0.951 . S
C1842 C1843 1.366 . S
C1842 C1844 1.388 . S
C1843 C1842 1.366 . S
C1843 C1847 1.385 . S
C1844 H1825 0.951 . S
C1844 C1842 1.388 . S
C1844 C1845 1.366 . S
C1845 C1844 1.366 . S
C1845 C1846 1.414 . S
C1845 C1848 1.499 . S
C1846 H1826 0.950 . S
C1846 C1845 1.414 . S
C1846 C1847 1.374 . S
C1847 H1827 0.950 . S
C1847 C1843 1.385 . S
C1847 C1846 1.374 . S
C1848 C1845 1.499 . S
C1848 C1849 1.373 . S
C1848 C1850 1.389 . S
C1849 H1828 0.950 . S
C1849 C1848 1.373 . S
C1849 C1865 1.377 . S
C1850 C1848 1.389 . S
C1850 C1851 1.524 . S
C1850 C1864 1.377 . S
C1851 C1850 1.524 . S
C1851 C1852 1.397 . S
C1851 C1856 1.363 . S
C1852 H1829 0.950 . S
C1852 C1851 1.397 . S
C1852 C1853 1.334 . S
C1853 H1830 0.950 . S
C1853 C1852 1.334 . S
C1853 C1854 1.287 . S
C1854 C1853 1.287 . S
C1854 C1855 1.524 . S
C1854 H1873 0.913 . S
C1855 H1831 0.950 . S
C1855 C1854 1.524 . S
C1855 C1856 1.415 . S
C1856 H1832 0.950 . S
C1856 C1851 1.363 . S
C1856 C1855 1.415 . S
C1857 H1833 0.951 . S
C1857 C1858 1.366 . S
C1857 C1859 1.388 . S
C1858 C1857 1.366 . S
C1858 C1862 1.385 . S
C1859 H1834 0.951 . S
C1859 C1857 1.388 . S
C1859 C1860 1.366 . S
C1860 C1859 1.366 . S
C1860 C1861 1.414 . S
C1860 C1863 1.499 . S
C1861 H1835 0.950 . S
C1861 C1860 1.414 . S
C1861 C1862 1.374 . S
C1862 H1836 0.950 . S
C1862 C1858 1.385 . S
C1862 C1861 1.374 . S
C1863 C1860 1.499 . S
C1863 C1864 1.373 . S
C1863 C1865 1.389 . S
C1864 H1837 0.950 . S
C1864 C1850 1.377 . S
C1864 C1863 1.373 . S
C1865 C1849 1.377 . S
C1865 C1863 1.389 . S
C1865 C1866 1.524 . S
C1866 C1865 1.524 . S
C1866 C1867 1.397 . S
C1866 C1871 1.363 . S
C1867 H1838 0.950 . S
C1867 C1866 1.397 . S
C1867 C1868 1.334 . S
C1868 H1839 0.950 . S
C1868 C1867 1.334 . S
C1868 C1869 1.287 . S
C1869 C1868 1.287 . S
C1869 C1870 1.524 . S
C1869 H1872 0.999 . S
C1870 H1840 0.950 . S
C1870 C1869 1.524 . S
C1870 C1871 1.415 . S
C1871 H1841 0.950 . S
C1871 C1866 1.363 . S
C1871 C1870 1.415 . S
H1872 C1869 0.999 . S
H1873 C1854 0.913 . S
H1874 C1892 0.951 . S
H1875 C1894 0.951 . S
H1876 C1896 0.950 1_565 S
H1877 C1897 0.950 1_565 S
H1878 C1899 0.950 . S
H1879 C1902 0.950 . S
H1880 C1903 0.950 . S
H1881 C1905 0.950 . S
H1882 C1906 0.950 . S
H1883 C1907 0.951 . S
H1884 C1909 0.951 . S
H1885 C1911 0.950 . S
H1886 C1912 0.950 . S
H1887 C1914 0.950 . S
H1888 C1917 0.950 . S
H1889 C1918 0.950 . S
H1890 C1920 0.950 . S
H1891 C1921 0.950 . S
C1892 H1874 0.951 . S
C1892 C1893 1.366 . S
C1892 C1894 1.388 . S
C1893 C1892 1.366 . S
C1893 C1897 1.385 . S
C1894 H1875 0.951 . S
C1894 C1892 1.388 . S
C1894 C1895 1.366 . S
C1895 C1894 1.366 . S
C1895 C1896 1.414 . S
C1895 C1898 1.499 . S
C1896 H1876 0.950 1_545 S
C1896 C1895 1.414 . S
C1896 C1897 1.374 . S
C1897 H1877 0.950 1_545 S
C1897 C1893 1.385 . S
C1897 C1896 1.374 . S
C1898 C1895 1.499 . S
C1898 C1899 1.373 . S
C1898 C1900 1.389 . S
C1899 H1878 0.950 . S
C1899 C1898 1.373 . S
C1899 C1915 1.377 . S
C1900 C1898 1.389 . S
C1900 C1901 1.524 . S
C1900 C1914 1.377 . S
C1901 C1900 1.524 . S
C1901 C1902 1.397 . S
C1901 C1906 1.363 . S
C1902 H1879 0.950 . S
C1902 C1901 1.397 . S
C1902 C1903 1.334 . S
C1903 H1880 0.950 . S
C1903 C1902 1.334 . S
C1903 C1904 1.287 . S
C1904 C1903 1.287 . S
C1904 C1905 1.524 . S
C1904 H1923 0.913 . S
C1905 H1881 0.950 . S
C1905 C1904 1.524 . S
C1905 C1906 1.415 . S
C1906 H1882 0.950 . S
C1906 C1901 1.363 . S
C1906 C1905 1.415 . S
C1907 H1883 0.951 . S
C1907 C1908 1.366 1_565 S
C1907 C1909 1.388 . S
C1908 C1907 1.366 1_545 S
C1908 C1912 1.385 . S
C1909 H1884 0.951 . S
C1909 C1907 1.388 . S
C1909 C1910 1.366 1_565 S
C1910 C1909 1.366 1_545 S
C1910 C1911 1.414 . S
C1910 C1913 1.499 . S
C1911 H1885 0.950 . S
C1911 C1910 1.414 . S
C1911 C1912 1.374 . S
C1912 H1886 0.950 . S
C1912 C1908 1.385 . S
C1912 C1911 1.374 . S
C1913 C1910 1.499 . S
C1913 C1914 1.373 . S
C1913 C1915 1.389 . S
C1914 H1887 0.950 . S
C1914 C1900 1.377 . S
C1914 C1913 1.373 . S
C1915 C1899 1.377 . S
C1915 C1913 1.389 . S
C1915 C1916 1.508 1_545 S
C1916 C1915 1.508 1_565 S
C1916 C1917 1.375 1_565 S
C1916 C1921 1.399 . S
C1917 H1888 0.950 . S
C1917 C1916 1.375 1_545 S
C1917 C1918 1.334 . S
C1918 H1889 0.950 . S
C1918 C1917 1.334 . S
C1918 C1919 1.287 1_545 S
C1919 C1918 1.287 1_565 S
C1919 C1920 1.524 . S
C1919 H1922 0.999 . S
C1920 H1890 0.950 . S
C1920 C1919 1.524 . S
C1920 C1921 1.415 . S
C1921 H1891 0.950 . S
C1921 C1916 1.399 . S
C1921 C1920 1.415 . S
H1922 C1919 0.999 . S
H1923 C1904 0.913 . S
H1924 C1942 0.951 . S
H1925 C1944 0.951 . S
H1926 C1946 0.950 . S
H1927 C1947 0.950 . S
H1928 C1949 0.950 . S
H1929 C1952 0.950 . S
H1930 C1953 0.950 . S
H1931 C1955 0.950 . S
H1932 C1956 0.950 . S
H1933 C1957 0.951 . S
H1934 C1959 0.951 . S
H1935 C1961 0.950 . S
H1936 C1962 0.950 . S
H1937 C1964 0.950 . S
H1938 C1967 0.950 . S
H1939 C1968 0.950 . S
H1940 C1970 0.950 . S
H1941 C1971 0.950 . S
C1942 H1924 0.951 . S
C1942 C1943 1.366 . S
C1942 C1944 1.388 . S
C1943 C1942 1.366 . S
C1943 C1947 1.385 . S
C1944 H1925 0.951 . S
C1944 C1942 1.388 . S
C1944 C1945 1.366 . S
C1945 C1944 1.366 . S
C1945 C1946 1.414 . S
C1945 C1948 1.499 . S
C1946 H1926 0.950 . S
C1946 C1945 1.414 . S
C1946 C1947 1.374 . S
C1947 H1927 0.950 . S
C1947 C1943 1.385 . S
C1947 C1946 1.374 . S
C1948 C1945 1.499 . S
C1948 C1949 1.373 . S
C1948 C1950 1.389 . S
C1949 H1928 0.950 . S
C1949 C1948 1.373 . S
C1949 C1965 1.377 . S
C1950 C1948 1.389 . S
C1950 C1951 1.524 . S
C1950 C1964 1.377 . S
C1951 C1950 1.524 . S
C1951 C1952 1.397 . S
C1951 C1956 1.363 . S
C1952 H1929 0.950 . S
C1952 C1951 1.397 . S
C1952 C1953 1.334 . S
C1953 H1930 0.950 . S
C1953 C1952 1.334 . S
C1953 C1954 1.287 . S
C1954 C1953 1.287 . S
C1954 C1955 1.524 . S
C1954 H1973 0.913 . S
C1955 H1931 0.950 . S
C1955 C1954 1.524 . S
C1955 C1956 1.415 . S
C1956 H1932 0.950 . S
C1956 C1951 1.363 . S
C1956 C1955 1.415 . S
C1957 H1933 0.951 . S
C1957 C1958 1.366 . S
C1957 C1959 1.388 . S
C1958 C1957 1.366 . S
C1958 C1962 1.385 . S
C1959 H1934 0.951 . S
C1959 C1957 1.388 . S
C1959 C1960 1.366 . S
C1960 C1959 1.366 . S
C1960 C1961 1.414 . S
C1960 C1963 1.499 . S
C1961 H1935 0.950 . S
C1961 C1960 1.414 . S
C1961 C1962 1.374 . S
C1962 H1936 0.950 . S
C1962 C1958 1.385 . S
C1962 C1961 1.374 . S
C1963 C1960 1.499 . S
C1963 C1964 1.373 . S
C1963 C1965 1.389 . S
C1964 H1937 0.950 . S
C1964 C1950 1.377 . S
C1964 C1963 1.373 . S
C1965 C1949 1.377 . S
C1965 C1963 1.389 . S
C1965 C1966 1.524 . S
C1966 C1965 1.524 . S
C1966 C1967 1.397 . S
C1966 C1971 1.363 . S
C1967 H1938 0.950 . S
C1967 C1966 1.397 . S
C1967 C1968 1.334 . S
C1968 H1939 0.950 . S
C1968 C1967 1.334 . S
C1968 C1969 1.287 . S
C1969 C1968 1.287 . S
C1969 C1970 1.524 . S
C1969 H1972 0.999 . S
C1970 H1940 0.950 . S
C1970 C1969 1.524 . S
C1970 C1971 1.415 . S
C1971 H1941 0.950 . S
C1971 C1966 1.363 . S
C1971 C1970 1.415 . S
H1972 C1969 0.999 . S
H1973 C1954 0.913 . S
H1974 C1992 0.951 . S
H1975 C1994 0.951 . S
H1976 C1996 0.950 . S
H1977 C1997 0.950 . S
H1978 C1999 0.950 . S
H1979 C2002 0.950 . S
H1980 C2003 0.950 . S
H1981 C2005 0.950 . S
H1982 C2006 0.950 . S
H1983 C2007 0.951 . S
H1984 C2009 0.951 . S
H1985 C2011 0.950 . S
H1986 C2012 0.950 . S
H1987 C2014 0.950 . S
H1988 C2017 0.950 . S
H1989 C2018 0.950 . S
H1990 C2020 0.950 . S
H1991 C2021 0.950 . S
C1992 H1974 0.951 . S
C1992 C1993 1.366 . S
C1992 C1994 1.388 . S
C1993 C1992 1.366 . S
C1993 C1997 1.385 . S
C1994 H1975 0.951 . S
C1994 C1992 1.388 . S
C1994 C1995 1.366 . S
C1995 C1994 1.366 . S
C1995 C1996 1.414 . S
C1995 C1998 1.499 . S
C1996 H1976 0.950 . S
C1996 C1995 1.414 . S
C1996 C1997 1.374 . S
C1997 H1977 0.950 . S
C1997 C1993 1.385 . S
C1997 C1996 1.374 . S
C1998 C1995 1.499 . S
C1998 C1999 1.373 . S
C1998 C2000 1.389 . S
C1999 H1978 0.950 . S
C1999 C1998 1.373 . S
C1999 C2015 1.377 . S
C2000 C1998 1.389 . S
C2000 C2001 1.524 . S
C2000 C2014 1.377 . S
C2001 C2000 1.524 . S
C2001 C2002 1.397 . S
C2001 C2006 1.363 . S
C2002 H1979 0.950 . S
C2002 C2001 1.397 . S
C2002 C2003 1.334 . S
C2003 H1980 0.950 . S
C2003 C2002 1.334 . S
C2003 C2004 1.287 . S
C2004 C2003 1.287 . S
C2004 C2005 1.524 . S
C2004 H2023 0.913 . S
C2005 H1981 0.950 . S
C2005 C2004 1.524 . S
C2005 C2006 1.415 . S
C2006 H1982 0.950 . S
C2006 C2001 1.363 . S
C2006 C2005 1.415 . S
C2007 H1983 0.951 . S
C2007 C2008 1.366 . S
C2007 C2009 1.388 . S
C2008 C2007 1.366 . S
C2008 C2012 1.385 . S
C2009 H1984 0.951 . S
C2009 C2007 1.388 . S
C2009 C2010 1.366 . S
C2010 C2009 1.366 . S
C2010 C2011 1.414 . S
C2010 C2013 1.499 . S
C2011 H1985 0.950 . S
C2011 C2010 1.414 . S
C2011 C2012 1.374 . S
C2012 H1986 0.950 . S
C2012 C2008 1.385 . S
C2012 C2011 1.374 . S
C2013 C2010 1.499 . S
C2013 C2014 1.373 . S
C2013 C2015 1.389 . S
C2014 H1987 0.950 . S
C2014 C2000 1.377 . S
C2014 C2013 1.373 . S
C2015 C1999 1.377 . S
C2015 C2013 1.389 . S
C2015 C2016 1.524 . S
C2016 C2015 1.524 . S
C2016 C2017 1.397 . S
C2016 C2021 1.363 . S
C2017 H1988 0.950 . S
C2017 C2016 1.397 . S
C2017 C2018 1.334 . S
C2018 H1989 0.950 . S
C2018 C2017 1.334 . S
C2018 C2019 1.287 . S
C2019 C2018 1.287 . S
C2019 C2020 1.524 . S
C2019 H2022 0.999 . S
C2020 H1990 0.950 . S
C2020 C2019 1.524 . S
C2020 C2021 1.415 . S
C2021 H1991 0.950 . S
C2021 C2016 1.363 . S
C2021 C2020 1.415 . S
H2022 C2019 0.999 . S
H2023 C2004 0.913 . S
H2024 C2042 0.951 . S
H2025 C2044 0.951 . S
H2026 C2046 0.950 . S
H2027 C2047 0.950 . S
H2028 C2049 0.950 . S
H2029 C2052 0.950 . S
H2030 C2053 0.950 . S
H2031 C2055 0.950 . S
H2032 C2056 0.950 . S
H2033 C2057 0.951 . S
H2034 C2059 0.951 . S
H2035 C2061 0.950 . S
H2036 C2062 0.950 . S
H2037 C2064 0.950 . S
H2038 C2067 0.950 . S
H2039 C2068 0.950 . S
H2040 C2070 0.950 . S
H2041 C2071 0.950 . S
C2042 H2024 0.951 . S
C2042 C2043 1.366 . S
C2042 C2044 1.388 . S
C2043 C2042 1.366 . S
C2043 C2047 1.385 . S
C2044 H2025 0.951 . S
C2044 C2042 1.388 . S
C2044 C2045 1.366 . S
C2045 C2044 1.366 . S
C2045 C2046 1.414 . S
C2045 C2048 1.499 . S
C2046 H2026 0.950 . S
C2046 C2045 1.414 . S
C2046 C2047 1.374 . S
C2047 H2027 0.950 . S
C2047 C2043 1.385 . S
C2047 C2046 1.374 . S
C2048 C2045 1.499 . S
C2048 C2049 1.373 . S
C2048 C2050 1.389 . S
C2049 H2028 0.950 . S
C2049 C2048 1.373 . S
C2049 C2065 1.377 . S
C2050 C2048 1.389 . S
C2050 C2051 1.524 . S
C2050 C2064 1.377 . S
C2051 C2050 1.524 . S
C2051 C2052 1.397 . S
C2051 C2056 1.363 . S
C2052 H2029 0.950 . S
C2052 C2051 1.397 . S
C2052 C2053 1.334 . S
C2053 H2030 0.950 . S
C2053 C2052 1.334 . S
C2053 C2054 1.287 . S
C2054 C2053 1.287 . S
C2054 C2055 1.524 . S
C2054 H2073 0.913 . S
C2055 H2031 0.950 . S
C2055 C2054 1.524 . S
C2055 C2056 1.415 . S
C2056 H2032 0.950 . S
C2056 C2051 1.363 . S
C2056 C2055 1.415 . S
C2057 H2033 0.951 . S
C2057 C2058 1.366 . S
C2057 C2059 1.388 . S
C2058 C2057 1.366 . S
C2058 C2062 1.385 . S
C2059 H2034 0.951 . S
C2059 C2057 1.388 . S
C2059 C2060 1.366 . S
C2060 C2059 1.366 . S
C2060 C2061 1.414 . S
C2060 C2063 1.499 . S
C2061 H2035 0.950 . S
C2061 C2060 1.414 . S
C2061 C2062 1.374 . S
C2062 H2036 0.950 . S
C2062 C2058 1.385 . S
C2062 C2061 1.374 . S
C2063 C2060 1.499 . S
C2063 C2064 1.373 . S
C2063 C2065 1.389 . S
C2064 H2037 0.950 . S
C2064 C2050 1.377 . S
C2064 C2063 1.373 . S
C2065 C2049 1.377 . S
C2065 C2063 1.389 . S
C2065 C2066 1.524 . S
C2066 C2065 1.524 . S
C2066 C2067 1.397 . S
C2066 C2071 1.363 . S
C2067 H2038 0.950 . S
C2067 C2066 1.397 . S
C2067 C2068 1.334 . S
C2068 H2039 0.950 . S
C2068 C2067 1.334 . S
C2068 C2069 1.287 . S
C2069 C2068 1.287 . S
C2069 C2070 1.524 . S
C2069 H2072 0.999 . S
C2070 H2040 0.950 . S
C2070 C2069 1.524 . S
C2070 C2071 1.415 . S
C2071 H2041 0.950 . S
C2071 C2066 1.363 . S
C2071 C2070 1.415 . S
H2072 C2069 0.999 . S
H2073 C2054 0.913 . S
H2074 C2092 0.951 . S
H2075 C2094 0.951 . S
H2076 C2096 0.950 . S
H2077 C2097 0.950 . S
H2078 C2099 0.950 . S
H2079 C2102 0.950 . S
H2080 C2103 0.950 . S
H2081 C2105 0.950 . S
H2082 C2106 0.950 . S
H2083 C2107 0.951 . S
H2084 C2109 0.951 . S
H2085 C2111 0.950 . S
H2086 C2112 1.001 . S
H2087 C2114 0.950 . S
H2088 C2117 0.950 . S
H2089 C2118 0.950 . S
H2090 C2120 0.950 . S
H2091 C2121 0.950 . S
C2092 H2074 0.951 . S
C2092 C2093 1.366 . S
C2092 C2094 1.388 . S
C2093 C2092 1.366 . S
C2093 C2097 1.385 . S
C2094 H2075 0.951 . S
C2094 C2092 1.388 . S
C2094 C2095 1.366 . S
C2095 C2094 1.366 . S
C2095 C2096 1.414 . S
C2095 C2098 1.499 . S
C2096 H2076 0.950 . S
C2096 C2095 1.414 . S
C2096 C2097 1.374 . S
C2097 H2077 0.950 . S
C2097 C2093 1.385 . S
C2097 C2096 1.374 . S
C2098 C2095 1.499 . S
C2098 C2099 1.373 . S
C2098 C2100 1.389 1_455 S
C2099 H2078 0.950 . S
C2099 C2098 1.373 . S
C2099 C2115 1.365 1_455 S
C2100 C2098 1.389 1_655 S
C2100 C2101 1.524 1_545 S
C2100 C2114 1.377 . S
C2101 C2100 1.524 1_565 S
C2101 C2102 1.397 1_565 S
C2101 C2106 1.363 . S
C2102 H2079 0.950 . S
C2102 C2101 1.397 1_545 S
C2102 C2103 1.334 1_545 S
C2103 H2080 0.950 . S
C2103 C2102 1.334 1_565 S
C2103 C2104 1.287 . S
C2104 C2103 1.287 . S
C2104 C2105 1.524 . S
C2104 H2123 0.913 . S
C2105 H2081 0.950 . S
C2105 C2104 1.524 . S
C2105 C2106 1.415 . S
C2106 H2082 0.950 . S
C2106 C2101 1.363 . S
C2106 C2105 1.415 . S
C2107 H2083 0.951 . S
C2107 C2108 1.366 . S
C2107 C2109 1.388 . S
C2108 C2107 1.366 . S
C2108 C2112 1.385 . S
C2109 H2084 0.951 . S
C2109 C2107 1.388 . S
C2109 C2110 1.366 . S
C2110 C2109 1.366 . S
C2110 C2111 1.414 . S
C2110 C2113 1.499 . S
C2111 H2085 0.950 . S
C2111 C2110 1.414 . S
C2111 C2112 1.374 . S
C2112 H2086 1.001 . S
C2112 C2108 1.385 . S
C2112 C2111 1.374 . S
C2113 C2110 1.499 . S
C2113 C2114 1.373 . S
C2113 C2115 1.405 . S
C2114 H2087 0.950 . S
C2114 C2100 1.377 . S
C2114 C2113 1.373 . S
C2115 C2099 1.365 1_655 S
C2115 C2113 1.405 . S
C2115 C2116 1.518 1_655 S
C2116 C2115 1.518 1_455 S
C2116 C2117 1.397 . S
C2116 C2121 1.363 . S
C2117 H2088 0.950 . S
C2117 C2116 1.397 . S
C2117 C2118 1.334 . S
C2118 H2089 0.950 . S
C2118 C2117 1.334 . S
C2118 C2119 1.287 . S
C2119 C2118 1.287 . S
C2119 C2120 1.524 . S
C2119 H2122 0.999 . S
C2120 H2090 0.950 . S
C2120 C2119 1.524 . S
C2120 C2121 1.415 . S
C2121 H2091 0.950 . S
C2121 C2116 1.363 . S
C2121 C2120 1.415 . S
H2122 C2119 0.999 . S
H2123 C2104 0.913 . S
H2124 C2142 0.951 . S
H2125 C2144 0.951 . S
H2126 C2146 0.950 . S
H2127 C2147 0.950 . S
H2128 C2149 0.950 . S
H2129 C2152 0.950 . S
H2130 C2153 0.950 . S
H2131 C2155 0.950 . S
H2132 C2156 0.950 . S
H2133 C2157 0.951 . S
H2134 C2159 0.951 . S
H2135 C2161 0.950 . S
H2136 C2162 0.950 . S
H2137 C2164 0.950 . S
H2138 C2167 0.950 . S
H2139 C2168 0.950 . S
H2140 C2170 0.950 . S
H2141 C2171 0.950 . S
C2142 H2124 0.951 . S
C2142 C2143 1.366 . S
C2142 C2144 1.388 . S
C2143 C2142 1.366 . S
C2143 C2147 1.385 . S
C2144 H2125 0.951 . S
C2144 C2142 1.388 . S
C2144 C2145 1.366 . S
C2145 C2144 1.366 . S
C2145 C2146 1.414 . S
C2145 C2148 1.499 . S
C2146 H2126 0.950 . S
C2146 C2145 1.414 . S
C2146 C2147 1.374 . S
C2147 H2127 0.950 . S
C2147 C2143 1.385 . S
C2147 C2146 1.374 . S
C2148 C2145 1.499 . S
C2148 C2149 1.373 . S
C2148 C2150 1.389 . S
C2149 H2128 0.950 . S
C2149 C2148 1.373 . S
C2149 C2165 1.377 . S
C2150 C2148 1.389 . S
C2150 C2151 1.524 . S
C2150 C2164 1.377 . S
C2151 C2150 1.524 . S
C2151 C2152 1.397 . S
C2151 C2156 1.363 . S
C2152 H2129 0.950 . S
C2152 C2151 1.397 . S
C2152 C2153 1.334 . S
C2153 H2130 0.950 . S
C2153 C2152 1.334 . S
C2153 C2154 1.287 . S
C2154 C2153 1.287 . S
C2154 C2155 1.524 . S
C2154 H2173 0.913 . S
C2155 H2131 0.950 . S
C2155 C2154 1.524 . S
C2155 C2156 1.415 . S
C2156 H2132 0.950 . S
C2156 C2151 1.363 . S
C2156 C2155 1.415 . S
C2157 H2133 0.951 . S
C2157 C2158 1.366 . S
C2157 C2159 1.388 . S
C2158 C2157 1.366 . S
C2158 C2162 1.385 . S
C2159 H2134 0.951 . S
C2159 C2157 1.388 . S
C2159 C2160 1.366 . S
C2160 C2159 1.366 . S
C2160 C2161 1.414 . S
C2160 C2163 1.499 . S
C2161 H2135 0.950 . S
C2161 C2160 1.414 . S
C2161 C2162 1.374 . S
C2162 H2136 0.950 . S
C2162 C2158 1.385 . S
C2162 C2161 1.374 . S
C2163 C2160 1.499 . S
C2163 C2164 1.373 . S
C2163 C2165 1.389 . S
C2164 H2137 0.950 . S
C2164 C2150 1.377 . S
C2164 C2163 1.373 . S
C2165 C2149 1.377 . S
C2165 C2163 1.389 . S
C2165 C2166 1.524 . S
C2166 C2165 1.524 . S
C2166 C2167 1.397 . S
C2166 C2171 1.363 . S
C2167 H2138 0.950 . S
C2167 C2166 1.397 . S
C2167 C2168 1.334 . S
C2168 H2139 0.950 . S
C2168 C2167 1.334 . S
C2168 C2169 1.287 . S
C2169 C2168 1.287 . S
C2169 C2170 1.524 . S
C2169 H2172 0.999 . S
C2170 H2140 0.950 . S
C2170 C2169 1.524 . S
C2170 C2171 1.415 . S
C2171 H2141 0.950 . S
C2171 C2166 1.363 . S
C2171 C2170 1.415 . S
H2172 C2169 0.999 . S
H2173 C2154 0.913 . S
H2174 C2192 0.951 . S
H2175 C2194 0.951 . S
H2176 C2196 0.950 . S
H2177 C2197 0.950 . S
H2178 C2199 0.950 . S
H2179 C2202 0.950 . S
H2180 C2203 0.950 . S
H2181 C2205 0.950 . S
H2182 C2206 0.950 . S
H2183 C2207 0.951 . S
H2184 C2209 0.951 . S
H2185 C2211 0.950 . S
H2186 C2212 0.950 . S
H2187 C2214 0.950 . S
H2188 C2217 0.950 . S
H2189 C2218 0.950 . S
H2190 C2220 0.950 . S
H2191 C2221 0.950 . S
C2192 H2174 0.951 . S
C2192 C2193 1.366 . S
C2192 C2194 1.388 . S
C2193 C2192 1.366 . S
C2193 C2197 1.385 1_455 S
C2194 H2175 0.951 . S
C2194 C2192 1.388 . S
C2194 C2195 1.366 . S
C2195 C2194 1.366 . S
C2195 C2196 1.414 . S
C2195 C2198 1.499 . S
C2196 H2176 0.950 . S
C2196 C2195 1.414 . S
C2196 C2197 1.374 1_455 S
C2197 H2177 0.950 . S
C2197 C2193 1.385 1_655 S
C2197 C2196 1.374 1_655 S
C2198 C2195 1.499 . S
C2198 C2199 1.373 . S
C2198 C2200 1.389 . S
C2199 H2178 0.950 . S
C2199 C2198 1.373 . S
C2199 C2215 1.377 . S
C2200 C2198 1.389 . S
C2200 C2201 1.524 . S
C2200 C2214 1.377 . S
C2201 C2200 1.524 . S
C2201 C2202 1.397 . S
C2201 C2206 1.363 . S
C2202 H2179 0.950 . S
C2202 C2201 1.397 . S
C2202 C2203 1.334 . S
C2203 H2180 0.950 . S
C2203 C2202 1.334 . S
C2203 C2204 1.287 . S
C2204 C2203 1.287 . S
C2204 C2205 1.524 . S
C2204 H2223 0.913 . S
C2205 H2181 0.950 . S
C2205 C2204 1.524 . S
C2205 C2206 1.415 . S
C2206 H2182 0.950 . S
C2206 C2201 1.363 . S
C2206 C2205 1.415 . S
C2207 H2183 0.951 . S
C2207 C2208 1.366 . S
C2207 C2209 1.388 . S
C2208 C2207 1.366 . S
C2208 C2212 1.385 . S
C2209 H2184 0.951 . S
C2209 C2207 1.388 . S
C2209 C2210 1.366 . S
C2210 C2209 1.366 . S
C2210 C2211 1.414 . S
C2210 C2213 1.499 . S
C2211 H2185 0.950 . S
C2211 C2210 1.414 . S
C2211 C2212 1.374 . S
C2212 H2186 0.950 . S
C2212 C2208 1.385 . S
C2212 C2211 1.374 . S
C2213 C2210 1.499 . S
C2213 C2214 1.373 . S
C2213 C2215 1.389 . S
C2214 H2187 0.950 . S
C2214 C2200 1.377 . S
C2214 C2213 1.373 . S
C2215 C2199 1.377 . S
C2215 C2213 1.389 . S
C2215 C2216 1.524 . S
C2216 C2215 1.524 . S
C2216 C2217 1.397 . S
C2216 C2221 1.363 . S
C2217 H2188 0.950 . S
C2217 C2216 1.397 . S
C2217 C2218 1.334 . S
C2218 H2189 0.950 . S
C2218 C2217 1.334 . S
C2218 C2219 1.287 . S
C2219 C2218 1.287 . S
C2219 C2220 1.524 . S
C2219 H2222 0.999 . S
C2220 H2190 0.950 . S
C2220 C2219 1.524 . S
C2220 C2221 1.415 . S
C2221 H2191 0.950 . S
C2221 C2216 1.363 . S
C2221 C2220 1.415 . S
H2222 C2219 0.999 . S
H2223 C2204 0.913 . S
H2224 C2242 0.951 . S
H2225 C2244 0.951 . S
H2226 C2246 0.950 . S
H2227 C2247 0.950 . S
H2228 C2249 0.950 . S
H2229 C2252 0.950 . S
H2230 C2253 0.950 . S
H2231 C2255 0.950 . S
H2232 C2256 0.950 . S
H2233 C2257 0.951 . S
H2234 C2259 0.951 . S
H2235 C2261 0.950 . S
H2236 C2262 0.950 . S
H2237 C2264 0.950 . S
H2238 C2267 0.950 . S
H2239 C2268 0.950 . S
H2240 C2270 0.950 . S
H2241 C2271 0.950 . S
C2242 H2224 0.951 . S
C2242 C2243 1.366 . S
C2242 C2244 1.388 . S
C2243 C2242 1.366 . S
C2243 C2247 1.385 . S
C2244 H2225 0.951 . S
C2244 C2242 1.388 . S
C2244 C2245 1.366 . S
C2245 C2244 1.366 . S
C2245 C2246 1.414 . S
C2245 C2248 1.499 . S
C2246 H2226 0.950 . S
C2246 C2245 1.414 . S
C2246 C2247 1.374 . S
C2247 H2227 0.950 . S
C2247 C2243 1.385 . S
C2247 C2246 1.374 . S
C2248 C2245 1.499 . S
C2248 C2249 1.373 . S
C2248 C2250 1.389 . S
C2249 H2228 0.950 . S
C2249 C2248 1.373 . S
C2249 C2265 1.377 . S
C2250 C2248 1.389 . S
C2250 C2251 1.524 . S
C2250 C2264 1.377 . S
C2251 C2250 1.524 . S
C2251 C2252 1.397 . S
C2251 C2256 1.363 . S
C2252 H2229 0.950 . S
C2252 C2251 1.397 . S
C2252 C2253 1.334 . S
C2253 H2230 0.950 . S
C2253 C2252 1.334 . S
C2253 C2254 1.287 . S
C2254 C2253 1.287 . S
C2254 C2255 1.524 . S
C2254 H2273 0.913 . S
C2255 H2231 0.950 . S
C2255 C2254 1.524 . S
C2255 C2256 1.415 . S
C2256 H2232 0.950 . S
C2256 C2251 1.363 . S
C2256 C2255 1.415 . S
C2257 H2233 0.951 . S
C2257 C2258 1.366 . S
C2257 C2259 1.388 . S
C2258 C2257 1.366 . S
C2258 C2262 1.385 . S
C2259 H2234 0.951 . S
C2259 C2257 1.388 . S
C2259 C2260 1.366 . S
C2260 C2259 1.366 . S
C2260 C2261 1.414 . S
C2260 C2263 1.499 . S
C2261 H2235 0.950 . S
C2261 C2260 1.414 . S
C2261 C2262 1.374 . S
C2262 H2236 0.950 . S
C2262 C2258 1.385 . S
C2262 C2261 1.374 . S
C2263 C2260 1.499 . S
C2263 C2264 1.373 . S
C2263 C2265 1.389 . S
C2264 H2237 0.950 . S
C2264 C2250 1.377 . S
C2264 C2263 1.373 . S
C2265 C2249 1.377 . S
C2265 C2263 1.389 . S
C2265 C2266 1.524 . S
C2266 C2265 1.524 . S
C2266 C2267 1.397 . S
C2266 C2271 1.363 . S
C2267 H2238 0.950 . S
C2267 C2266 1.397 . S
C2267 C2268 1.334 . S
C2268 H2239 0.950 . S
C2268 C2267 1.334 . S
C2268 C2269 1.287 . S
C2269 C2268 1.287 . S
C2269 C2270 1.524 . S
C2269 H2272 0.999 . S
C2270 H2240 0.950 . S
C2270 C2269 1.524 . S
C2270 C2271 1.415 . S
C2271 H2241 0.950 . S
C2271 C2266 1.363 . S
C2271 C2270 1.415 . S
H2272 C2269 0.999 . S
H2273 C2254 0.913 . S
H2274 C2292 0.951 . S
H2275 C2294 0.951 . S
H2276 C2296 0.950 . S
H2277 C2297 0.950 1_554 S
H2278 C2299 0.950 . S
H2279 C2302 0.950 . S
H2280 C2303 0.950 . S
H2281 C2305 0.950 . S
H2282 C2306 0.950 . S
H2283 C2307 0.951 . S
H2284 C2309 0.951 . S
H2285 C2311 0.950 . S
H2286 C2312 0.950 . S
H2287 C2314 0.950 . S
H2288 C2317 0.950 . S
H2289 C2318 0.950 . S
H2290 C2320 0.950 . S
H2291 C2321 0.950 . S
C2292 H2274 0.951 . S
C2292 C2293 1.366 . S
C2292 C2294 1.388 . S
C2293 C2292 1.366 . S
C2293 C2297 1.385 1_655 S
C2294 H2275 0.951 . S
C2294 C2292 1.388 . S
C2294 C2295 1.366 . S
C2295 C2294 1.366 . S
C2295 C2296 1.414 1_655 S
C2295 C2298 1.499 . S
C2296 H2276 0.950 . S
C2296 C2295 1.414 1_455 S
C2296 C2297 1.374 . S
C2297 H2277 0.950 1_556 S
C2297 C2293 1.385 1_455 S
C2297 C2296 1.374 . S
C2298 C2295 1.499 . S
C2298 C2299 1.373 1_655 S
C2298 C2300 1.389 . S
C2299 H2278 0.950 . S
C2299 C2298 1.373 1_455 S
C2299 C2315 1.377 . S
C2300 C2298 1.389 . S
C2300 C2301 1.524 . S
C2300 C2314 1.377 . S
C2301 C2300 1.524 . S
C2301 C2302 1.397 . S
C2301 C2306 1.363 . S
C2302 H2279 0.950 . S
C2302 C2301 1.397 . S
C2302 C2303 1.334 . S
C2303 H2280 0.950 . S
C2303 C2302 1.334 . S
C2303 C2304 1.287 . S
C2304 C2303 1.287 . S
C2304 C2305 1.524 . S
C2304 H2323 0.913 . S
C2305 H2281 0.950 . S
C2305 C2304 1.524 . S
C2305 C2306 1.415 . S
C2306 H2282 0.950 . S
C2306 C2301 1.363 . S
C2306 C2305 1.415 . S
C2307 H2283 0.951 . S
C2307 C2308 1.366 . S
C2307 C2309 1.388 . S
C2308 C2307 1.366 . S
C2308 C2312 1.385 1_455 S
C2309 H2284 0.951 . S
C2309 C2307 1.388 . S
C2309 C2310 1.367 . S
C2310 C2309 1.367 . S
C2310 C2311 1.413 1_455 S
C2310 C2313 1.498 1_455 S
C2311 H2285 0.950 . S
C2311 C2310 1.413 1_655 S
C2311 C2312 1.374 . S
C2312 H2286 0.950 . S
C2312 C2308 1.385 1_655 S
C2312 C2311 1.374 . S
C2313 C2310 1.498 1_655 S
C2313 C2314 1.373 . S
C2313 C2315 1.389 1_655 S
C2314 H2287 0.950 . S
C2314 C2300 1.377 . S
C2314 C2313 1.373 . S
C2315 C2299 1.377 . S
C2315 C2313 1.389 1_455 S
C2315 C2316 1.524 . S
C2316 C2315 1.524 . S
C2316 C2317 1.397 . S
C2316 C2321 1.363 . S
C2317 H2288 0.950 . S
C2317 C2316 1.397 . S
C2317 C2318 1.334 . S
C2318 H2289 0.950 . S
C2318 C2317 1.334 . S
C2318 C2319 1.287 . S
C2319 C2318 1.287 . S
C2319 C2320 1.524 . S
C2319 H2322 0.999 . S
C2320 H2290 0.950 . S
C2320 C2319 1.524 . S
C2320 C2321 1.415 . S
C2321 H2291 0.950 . S
C2321 C2316 1.363 . S
C2321 C2320 1.415 . S
H2322 C2319 0.999 . S
H2323 C2304 0.913 . S
H2324 C2342 0.951 . S
H2325 C2344 0.951 . S
H2326 C2346 0.950 . S
H2327 C2347 0.950 . S
H2328 C2349 0.950 . S
H2329 C2352 0.950 . S
H2330 C2353 0.950 . S
H2331 C2355 0.950 . S
H2332 C2356 0.950 . S
H2333 C2357 0.951 . S
H2334 C2359 0.951 . S
H2335 C2361 0.950 . S
H2336 C2362 0.950 . S
H2337 C2364 0.950 . S
H2338 C2367 0.950 . S
H2339 C2368 0.950 . S
H2340 C2370 0.950 . S
H2341 C2371 0.950 . S
C2342 H2324 0.951 . S
C2342 C2343 1.366 . S
C2342 C2344 1.388 . S
C2343 C2342 1.366 . S
C2343 C2347 1.385 . S
C2344 H2325 0.951 . S
C2344 C2342 1.388 . S
C2344 C2345 1.366 . S
C2345 C2344 1.366 . S
C2345 C2346 1.414 . S
C2345 C2348 1.499 . S
C2346 H2326 0.950 . S
C2346 C2345 1.414 . S
C2346 C2347 1.374 . S
C2347 H2327 0.950 . S
C2347 C2343 1.385 . S
C2347 C2346 1.374 . S
C2348 C2345 1.499 . S
C2348 C2349 1.373 . S
C2348 C2350 1.389 . S
C2349 H2328 0.950 . S
C2349 C2348 1.373 . S
C2349 C2365 1.377 . S
C2350 C2348 1.389 . S
C2350 C2351 1.524 . S
C2350 C2364 1.377 . S
C2351 C2350 1.524 . S
C2351 C2352 1.397 . S
C2351 C2356 1.363 . S
C2352 H2329 0.950 . S
C2352 C2351 1.397 . S
C2352 C2353 1.334 . S
C2353 H2330 0.950 . S
C2353 C2352 1.334 . S
C2353 C2354 1.287 . S
C2354 C2353 1.287 . S
C2354 C2355 1.524 . S
C2354 H2373 0.913 . S
C2355 H2331 0.950 . S
C2355 C2354 1.524 . S
C2355 C2356 1.415 . S
C2356 H2332 0.950 . S
C2356 C2351 1.363 . S
C2356 C2355 1.415 . S
C2357 H2333 0.951 . S
C2357 C2358 1.366 . S
C2357 C2359 1.388 . S
C2358 C2357 1.366 . S
C2358 C2362 1.385 . S
C2359 H2334 0.951 . S
C2359 C2357 1.388 . S
C2359 C2360 1.366 . S
C2360 C2359 1.366 . S
C2360 C2361 1.414 . S
C2360 C2363 1.499 . S
C2361 H2335 0.950 . S
C2361 C2360 1.414 . S
C2361 C2362 1.374 . S
C2362 H2336 0.950 . S
C2362 C2358 1.385 . S
C2362 C2361 1.374 . S
C2363 C2360 1.499 . S
C2363 C2364 1.373 . S
C2363 C2365 1.389 . S
C2364 H2337 0.950 . S
C2364 C2350 1.377 . S
C2364 C2363 1.373 . S
C2365 C2349 1.377 . S
C2365 C2363 1.389 . S
C2365 C2366 1.524 . S
C2366 C2365 1.524 . S
C2366 C2367 1.397 . S
C2366 C2371 1.363 . S
C2367 H2338 0.950 . S
C2367 C2366 1.397 . S
C2367 C2368 1.334 . S
C2368 H2339 0.950 . S
C2368 C2367 1.334 . S
C2368 C2369 1.287 . S
C2369 C2368 1.287 . S
C2369 C2370 1.524 . S
C2369 H2372 0.999 . S
C2370 H2340 0.950 . S
C2370 C2369 1.524 . S
C2370 C2371 1.415 . S
C2371 H2341 0.950 . S
C2371 C2366 1.363 . S
C2371 C2370 1.415 . S
H2372 C2369 0.999 . S
H2373 C2354 0.913 . S
H2374 C2392 0.951 . S
H2375 C2394 0.951 . S
H2376 C2396 0.950 . S
H2377 C2397 0.950 . S
H2378 C2399 0.950 . S
H2379 C2402 0.950 . S
H2380 C2403 0.950 . S
H2381 C2405 0.950 . S
H2382 C2406 0.950 . S
H2383 C2407 0.951 . S
H2384 C2409 0.951 . S
H2385 C2411 0.950 1_655 S
H2386 C2412 0.950 . S
H2387 C2414 0.950 . S
H2388 C2417 0.950 . S
H2389 C2418 0.950 . S
H2390 C2420 0.950 . S
H2391 C2421 0.950 . S
C2392 H2374 0.951 . S
C2392 C2393 1.366 . S
C2392 C2394 1.388 . S
C2393 C2392 1.366 . S
C2393 C2397 1.385 . S
C2394 H2375 0.951 . S
C2394 C2392 1.388 . S
C2394 C2395 1.366 . S
C2395 C2394 1.366 . S
C2395 C2396 1.414 . S
C2395 C2398 1.499 . S
C2396 H2376 0.950 . S
C2396 C2395 1.414 . S
C2396 C2397 1.374 . S
C2397 H2377 0.950 . S
C2397 C2393 1.385 . S
C2397 C2396 1.374 . S
C2398 C2395 1.499 . S
C2398 C2399 1.373 . S
C2398 C2400 1.389 . S
C2399 H2378 0.950 . S
C2399 C2398 1.373 . S
C2399 C2415 1.377 . S
C2400 C2398 1.389 . S
C2400 C2401 1.524 . S
C2400 C2414 1.377 . S
C2401 C2400 1.524 . S
C2401 C2402 1.397 . S
C2401 C2406 1.363 1_455 S
C2402 H2379 0.950 . S
C2402 C2401 1.397 . S
C2402 C2403 1.334 . S
C2403 H2380 0.950 . S
C2403 C2402 1.334 . S
C2403 C2404 1.287 1_455 S
C2404 C2403 1.287 1_655 S
C2404 C2405 1.524 . S
C2404 H2423 0.913 . S
C2405 H2381 0.950 . S
C2405 C2404 1.524 . S
C2405 C2406 1.415 . S
C2406 H2382 0.950 . S
C2406 C2401 1.363 1_655 S
C2406 C2405 1.415 . S
C2407 H2383 0.951 . S
C2407 C2408 1.366 . S
C2407 C2409 1.388 . S
C2408 C2407 1.366 . S
C2408 C2412 1.385 1_455 S
C2409 H2384 0.951 . S
C2409 C2407 1.388 . S
C2409 C2410 1.366 . S
C2410 C2409 1.366 . S
C2410 C2411 1.414 . S
C2410 C2413 1.499 . S
C2411 H2385 0.950 1_455 S
C2411 C2410 1.414 . S
C2411 C2412 1.374 1_455 S
C2412 H2386 0.950 . S
C2412 C2408 1.385 1_655 S
C2412 C2411 1.374 1_655 S
C2413 C2410 1.499 . S
C2413 C2414 1.373 . S
C2413 C2415 1.389 . S
C2414 H2387 0.950 . S
C2414 C2400 1.377 . S
C2414 C2413 1.373 . S
C2415 C2399 1.377 . S
C2415 C2413 1.389 . S
C2415 C2416 1.524 . S
C2416 C2415 1.524 . S
C2416 C2417 1.397 . S
C2416 C2421 1.363 . S
C2417 H2388 0.950 . S
C2417 C2416 1.397 . S
C2417 C2418 1.334 . S
C2418 H2389 0.950 . S
C2418 C2417 1.334 . S
C2418 C2419 1.287 . S
C2419 C2418 1.287 . S
C2419 C2420 1.524 . S
C2419 H2422 0.999 . S
C2420 H2390 0.950 . S
C2420 C2419 1.524 . S
C2420 C2421 1.415 . S
C2421 H2391 0.950 . S
C2421 C2416 1.363 . S
C2421 C2420 1.415 . S
H2422 C2419 0.999 . S
H2423 C2404 0.913 . S
H2424 C2442 0.951 . S
H2425 C2444 0.951 . S
H2426 C2446 0.950 . S
H2427 C2447 0.950 . S
H2428 C2449 0.950 . S
H2429 C2452 0.950 . S
H2430 C2453 0.950 . S
H2431 C2455 0.950 . S
H2432 C2456 0.950 . S
H2433 C2457 0.951 . S
H2434 C2459 0.951 . S
H2435 C2461 0.950 . S
H2436 C2462 0.950 . S
H2437 C2464 0.950 . S
H2438 C2467 0.950 . S
H2439 C2468 0.950 . S
H2440 C2470 0.950 . S
H2441 C2471 0.950 . S
C2442 H2424 0.951 . S
C2442 C2443 1.366 . S
C2442 C2444 1.388 . S
C2443 C2442 1.366 . S
C2443 C2447 1.385 . S
C2444 H2425 0.951 . S
C2444 C2442 1.388 . S
C2444 C2445 1.366 . S
C2445 C2444 1.366 . S
C2445 C2446 1.414 . S
C2445 C2448 1.499 . S
C2446 H2426 0.950 . S
C2446 C2445 1.414 . S
C2446 C2447 1.374 . S
C2447 H2427 0.950 . S
C2447 C2443 1.385 . S
C2447 C2446 1.374 . S
C2448 C2445 1.499 . S
C2448 C2449 1.373 . S
C2448 C2450 1.389 . S
C2449 H2428 0.950 . S
C2449 C2448 1.373 . S
C2449 C2465 1.377 . S
C2450 C2448 1.389 . S
C2450 C2451 1.524 . S
C2450 C2464 1.377 . S
C2451 C2450 1.524 . S
C2451 C2452 1.397 . S
C2451 C2456 1.363 . S
C2452 H2429 0.950 . S
C2452 C2451 1.397 . S
C2452 C2453 1.334 . S
C2453 H2430 0.950 . S
C2453 C2452 1.334 . S
C2453 C2454 1.287 . S
C2454 C2453 1.287 . S
C2454 C2455 1.524 . S
C2454 H2473 0.913 . S
C2455 H2431 0.950 . S
C2455 C2454 1.524 . S
C2455 C2456 1.415 . S
C2456 H2432 0.950 . S
C2456 C2451 1.363 . S
C2456 C2455 1.415 . S
C2457 H2433 0.951 . S
C2457 C2458 1.366 . S
C2457 C2459 1.388 . S
C2458 C2457 1.366 . S
C2458 C2462 1.385 . S
C2459 H2434 0.951 . S
C2459 C2457 1.388 . S
C2459 C2460 1.366 . S
C2460 C2459 1.366 . S
C2460 C2461 1.414 . S
C2460 C2463 1.499 . S
C2461 H2435 0.950 . S
C2461 C2460 1.414 . S
C2461 C2462 1.374 . S
C2462 H2436 0.950 . S
C2462 C2458 1.385 . S
C2462 C2461 1.374 . S
C2463 C2460 1.499 . S
C2463 C2464 1.373 . S
C2463 C2465 1.389 . S
C2464 H2437 0.950 . S
C2464 C2450 1.377 . S
C2464 C2463 1.373 . S
C2465 C2449 1.377 . S
C2465 C2463 1.389 . S
C2465 C2466 1.524 . S
C2466 C2465 1.524 . S
C2466 C2467 1.397 . S
C2466 C2471 1.363 . S
C2467 H2438 0.950 . S
C2467 C2466 1.397 . S
C2467 C2468 1.334 . S
C2468 H2439 0.950 . S
C2468 C2467 1.334 . S
C2468 C2469 1.287 . S
C2469 C2468 1.287 . S
C2469 C2470 1.524 . S
C2469 H2472 0.999 . S
C2470 H2440 0.950 . S
C2470 C2469 1.524 . S
C2470 C2471 1.415 . S
C2471 H2441 0.950 . S
C2471 C2466 1.363 . S
C2471 C2470 1.415 . S
H2472 C2469 0.999 . S
H2473 C2454 0.913 . S
H2474 C2492 0.951 1_556 S
H2475 C2494 0.951 . S
H2476 C2496 0.950 . S
H2477 C2497 0.950 . S
H2478 C2499 0.950 . S
H2479 C2502 0.950 . S
H2480 C2503 0.950 . S
H2481 C2505 0.950 . S
H2482 C2506 0.950 . S
H2483 C2507 0.951 . S
H2484 C2509 0.951 . S
H2485 C2511 0.950 . S
H2486 C2512 0.950 . S
H2487 C2514 0.950 . S
H2488 C2517 0.950 . S
H2489 C2518 0.950 . S
H2490 C2520 0.950 . S
H2491 C2521 0.950 . S
C2492 H2474 0.951 1_554 S
C2492 C2493 1.366 . S
C2492 C2494 1.388 . S
C2493 C2492 1.366 . S
C2493 C2497 1.385 . S
C2494 H2475 0.951 . S
C2494 C2492 1.388 . S
C2494 C2495 1.366 . S
C2495 C2494 1.366 . S
C2495 C2496 1.414 . S
C2495 C2498 1.499 . S
C2496 H2476 0.950 . S
C2496 C2495 1.414 . S
C2496 C2497 1.374 . S
C2497 H2477 0.950 . S
C2497 C2493 1.385 . S
C2497 C2496 1.374 . S
C2498 C2495 1.499 . S
C2498 C2499 1.373 . S
C2498 C2500 1.389 . S
C2499 H2478 0.950 . S
C2499 C2498 1.373 . S
C2499 C2515 1.377 . S
C2500 C2498 1.389 . S
C2500 C2501 1.524 . S
C2500 C2514 1.377 . S
C2501 C2500 1.524 . S
C2501 C2502 1.397 . S
C2501 C2506 1.363 . S
C2502 H2479 0.950 . S
C2502 C2501 1.397 . S
C2502 C2503 1.334 . S
C2503 H2480 0.950 . S
C2503 C2502 1.334 . S
C2503 C2504 1.287 . S
C2504 C2503 1.287 . S
C2504 C2505 1.524 . S
C2504 H2523 0.913 . S
C2505 H2481 0.950 . S
C2505 C2504 1.524 . S
C2505 C2506 1.415 . S
C2506 H2482 0.950 . S
C2506 C2501 1.363 . S
C2506 C2505 1.415 . S
C2507 H2483 0.951 . S
C2507 C2508 1.366 . S
C2507 C2509 1.388 . S
C2508 C2507 1.366 . S
C2508 C2512 1.385 . S
C2509 H2484 0.951 . S
C2509 C2507 1.388 . S
C2509 C2510 1.366 . S
C2510 C2509 1.366 . S
C2510 C2511 1.414 . S
C2510 C2513 1.499 . S
C2511 H2485 0.950 . S
C2511 C2510 1.414 . S
C2511 C2512 1.374 . S
C2512 H2486 0.950 . S
C2512 C2508 1.385 . S
C2512 C2511 1.374 . S
C2513 C2510 1.499 . S
C2513 C2514 1.373 . S
C2513 C2515 1.389 . S
C2514 H2487 0.950 . S
C2514 C2500 1.377 . S
C2514 C2513 1.373 . S
C2515 C2499 1.377 . S
C2515 C2513 1.389 . S
C2515 C2516 1.524 . S
C2516 C2515 1.524 . S
C2516 C2517 1.397 . S
C2516 C2521 1.363 . S
C2517 H2488 0.950 . S
C2517 C2516 1.397 . S
C2517 C2518 1.334 . S
C2518 H2489 0.950 . S
C2518 C2517 1.334 . S
C2518 C2519 1.287 . S
C2519 C2518 1.287 . S
C2519 C2520 1.524 . S
C2519 H2522 0.999 . S
C2520 H2490 0.950 . S
C2520 C2519 1.524 . S
C2520 C2521 1.415 . S
C2521 H2491 0.950 . S
C2521 C2516 1.363 . S
C2521 C2520 1.415 . S
H2522 C2519 0.999 . S
H2523 C2504 0.913 . S
H2524 C2542 0.951 . S
H2525 C2544 0.951 . S
H2526 C2546 0.950 . S
H2527 C2547 0.950 . S
H2528 C2549 0.950 . S
H2529 C2552 0.950 . S
H2530 C2553 0.950 . S
H2531 C2555 0.950 . S
H2532 C2556 0.950 . S
H2533 C2557 0.951 . S
H2534 C2559 0.951 . S
H2535 C2561 0.950 . S
H2536 C2562 0.950 . S
H2537 C2564 0.950 . S
H2538 C2567 0.950 . S
H2539 C2568 0.950 . S
H2540 C2570 0.950 . S
H2541 C2571 0.950 . S
C2542 H2524 0.951 . S
C2542 C2543 1.366 . S
C2542 C2544 1.388 . S
C2543 C2542 1.366 . S
C2543 C2547 1.385 . S
C2544 H2525 0.951 . S
C2544 C2542 1.388 . S
C2544 C2545 1.366 . S
C2545 C2544 1.366 . S
C2545 C2546 1.414 . S
C2545 C2548 1.499 . S
C2546 H2526 0.950 . S
C2546 C2545 1.414 . S
C2546 C2547 1.374 . S
C2547 H2527 0.950 . S
C2547 C2543 1.385 . S
C2547 C2546 1.374 . S
C2548 C2545 1.499 . S
C2548 C2549 1.373 . S
C2548 C2550 1.389 . S
C2549 H2528 0.950 . S
C2549 C2548 1.373 . S
C2549 C2565 1.377 . S
C2550 C2548 1.389 . S
C2550 C2551 1.524 . S
C2550 C2564 1.377 . S
C2551 C2550 1.524 . S
C2551 C2552 1.397 . S
C2551 C2556 1.363 . S
C2552 H2529 0.950 . S
C2552 C2551 1.397 . S
C2552 C2553 1.334 . S
C2553 H2530 0.950 . S
C2553 C2552 1.334 . S
C2553 C2554 1.287 . S
C2554 C2553 1.287 . S
C2554 C2555 1.524 . S
C2554 H2573 0.913 . S
C2555 H2531 0.950 . S
C2555 C2554 1.524 . S
C2555 C2556 1.415 . S
C2556 H2532 0.950 . S
C2556 C2551 1.363 . S
C2556 C2555 1.415 . S
C2557 H2533 0.951 . S
C2557 C2558 1.366 . S
C2557 C2559 1.388 . S
C2558 C2557 1.366 . S
C2558 C2562 1.385 . S
C2559 H2534 0.951 . S
C2559 C2557 1.388 . S
C2559 C2560 1.366 . S
C2560 C2559 1.366 . S
C2560 C2561 1.414 . S
C2560 C2563 1.499 . S
C2561 H2535 0.950 . S
C2561 C2560 1.414 . S
C2561 C2562 1.374 . S
C2562 H2536 0.950 . S
C2562 C2558 1.385 . S
C2562 C2561 1.374 . S
C2563 C2560 1.499 . S
C2563 C2564 1.373 . S
C2563 C2565 1.389 . S
C2564 H2537 0.950 . S
C2564 C2550 1.377 . S
C2564 C2563 1.373 . S
C2565 C2549 1.377 . S
C2565 C2563 1.389 . S
C2565 C2566 1.524 . S
C2566 C2565 1.524 . S
C2566 C2567 1.397 . S
C2566 C2571 1.363 . S
C2567 H2538 0.950 . S
C2567 C2566 1.397 . S
C2567 C2568 1.334 . S
C2568 H2539 0.950 . S
C2568 C2567 1.334 . S
C2568 C2569 1.287 . S
C2569 C2568 1.287 . S
C2569 C2570 1.524 . S
C2569 H2572 0.999 . S
C2570 H2540 0.950 . S
C2570 C2569 1.524 . S
C2570 C2571 1.415 . S
C2571 H2541 0.950 . S
C2571 C2566 1.363 . S
C2571 C2570 1.415 . S
H2572 C2569 0.999 . S
H2573 C2554 0.913 . S
H2574 C2592 0.951 . S
H2575 C2594 0.951 . S
H2576 C2596 0.950 1_556 S
H2577 C2597 0.950 . S
H2578 C2599 0.950 . S
H2579 C2602 0.950 . S
H2580 C2603 0.950 . S
H2581 C2605 0.950 . S
H2582 C2606 0.950 . S
H2583 C2607 0.951 . S
H2584 C2609 0.951 . S
H2585 C2611 0.950 . S
H2586 C2612 0.950 . S
H2587 C2614 0.950 . S
H2588 C2617 0.950 . S
H2589 C2618 0.950 . S
H2590 C2620 0.950 . S
H2591 C2621 0.950 . S
C2592 H2574 0.951 . S
C2592 C2593 1.366 1_554 S
C2592 C2594 1.388 . S
C2593 C2592 1.366 1_556 S
C2593 C2597 1.385 . S
C2594 H2575 0.951 . S
C2594 C2592 1.388 . S
C2594 C2595 1.366 . S
C2595 C2594 1.366 . S
C2595 C2596 1.414 . S
C2595 C2598 1.499 . S
C2596 H2576 0.950 1_554 S
C2596 C2595 1.414 . S
C2596 C2597 1.374 1_554 S
C2597 H2577 0.950 . S
C2597 C2593 1.385 . S
C2597 C2596 1.374 1_556 S
C2598 C2595 1.499 . S
C2598 C2599 1.373 . S
C2598 C2600 1.389 . S
C2599 H2578 0.950 . S
C2599 C2598 1.373 . S
C2599 C2615 1.377 . S
C2600 C2598 1.389 . S
C2600 C2601 1.524 . S
C2600 C2614 1.377 . S
C2601 C2600 1.524 . S
C2601 C2602 1.397 . S
C2601 C2606 1.363 . S
C2602 H2579 0.950 . S
C2602 C2601 1.397 . S
C2602 C2603 1.334 . S
C2603 H2580 0.950 . S
C2603 C2602 1.334 . S
C2603 C2604 1.287 . S
C2604 C2603 1.287 . S
C2604 C2605 1.524 . S
C2604 H2623 0.913 . S
C2605 H2581 0.950 . S
C2605 C2604 1.524 . S
C2605 C2606 1.415 . S
C2606 H2582 0.950 . S
C2606 C2601 1.363 . S
C2606 C2605 1.415 . S
C2607 H2583 0.951 . S
C2607 C2608 1.366 . S
C2607 C2609 1.388 . S
C2608 C2607 1.366 . S
C2608 C2612 1.385 . S
C2609 H2584 0.951 . S
C2609 C2607 1.388 . S
C2609 C2610 1.366 . S
C2610 C2609 1.366 . S
C2610 C2611 1.414 . S
C2610 C2613 1.499 . S
C2611 H2585 0.950 . S
C2611 C2610 1.414 . S
C2611 C2612 1.374 . S
C2612 H2586 0.950 . S
C2612 C2608 1.385 . S
C2612 C2611 1.374 . S
C2613 C2610 1.499 . S
C2613 C2614 1.373 . S
C2613 C2615 1.389 . S
C2614 H2587 0.950 . S
C2614 C2600 1.377 . S
C2614 C2613 1.373 . S
C2615 C2599 1.377 . S
C2615 C2613 1.389 . S
C2615 C2616 1.524 . S
C2616 C2615 1.524 . S
C2616 C2617 1.397 . S
C2616 C2621 1.363 . S
C2617 H2588 0.950 . S
C2617 C2616 1.397 . S
C2617 C2618 1.334 . S
C2618 H2589 0.950 . S
C2618 C2617 1.334 . S
C2618 C2619 1.287 . S
C2619 C2618 1.287 . S
C2619 C2620 1.524 . S
C2619 H2622 0.999 . S
C2620 H2590 0.950 . S
C2620 C2619 1.524 . S
C2620 C2621 1.415 . S
C2621 H2591 0.950 . S
C2621 C2616 1.363 . S
C2621 C2620 1.415 . S
H2622 C2619 0.999 . S
H2623 C2604 0.913 . S
H2624 C2642 0.951 . S
H2625 C2644 0.951 . S
H2626 C2646 0.950 . S
H2627 C2647 0.950 . S
H2628 C2649 0.950 . S
H2629 C2652 0.950 . S
H2630 C2653 0.950 . S
H2631 C2655 0.950 . S
H2632 C2656 0.950 . S
H2633 C2657 0.951 . S
H2634 C2659 0.951 . S
H2635 C2661 0.950 . S
H2636 C2662 0.950 . S
H2637 C2664 0.950 . S
H2638 C2667 0.950 . S
H2639 C2668 0.950 . S
H2640 C2670 0.950 . S
H2641 C2671 0.950 . S
C2642 H2624 0.951 . S
C2642 C2643 1.366 . S
C2642 C2644 1.388 . S
C2643 C2642 1.366 . S
C2643 C2647 1.385 . S
C2644 H2625 0.951 . S
C2644 C2642 1.388 . S
C2644 C2645 1.366 . S
C2645 C2644 1.366 . S
C2645 C2646 1.414 . S
C2645 C2648 1.499 . S
C2646 H2626 0.950 . S
C2646 C2645 1.414 . S
C2646 C2647 1.374 . S
C2647 H2627 0.950 . S
C2647 C2643 1.385 . S
C2647 C2646 1.374 . S
C2648 C2645 1.499 . S
C2648 C2649 1.373 . S
C2648 C2650 1.389 . S
C2649 H2628 0.950 . S
C2649 C2648 1.373 . S
C2649 C2665 1.377 . S
C2650 C2648 1.389 . S
C2650 C2651 1.524 . S
C2650 C2664 1.377 . S
C2651 C2650 1.524 . S
C2651 C2652 1.397 . S
C2651 C2656 1.363 . S
C2652 H2629 0.950 . S
C2652 C2651 1.397 . S
C2652 C2653 1.334 . S
C2653 H2630 0.950 . S
C2653 C2652 1.334 . S
C2653 C2654 1.287 . S
C2654 C2653 1.287 . S
C2654 C2655 1.524 . S
C2654 H2673 0.913 . S
C2655 H2631 0.950 . S
C2655 C2654 1.524 . S
C2655 C2656 1.415 . S
C2656 H2632 0.950 . S
C2656 C2651 1.363 . S
C2656 C2655 1.415 . S
C2657 H2633 0.951 . S
C2657 C2658 1.366 . S
C2657 C2659 1.388 . S
C2658 C2657 1.366 . S
C2658 C2662 1.385 . S
C2659 H2634 0.951 . S
C2659 C2657 1.388 . S
C2659 C2660 1.366 . S
C2660 C2659 1.366 . S
C2660 C2661 1.414 . S
C2660 C2663 1.499 . S
C2661 H2635 0.950 . S
C2661 C2660 1.414 . S
C2661 C2662 1.374 . S
C2662 H2636 0.950 . S
C2662 C2658 1.385 . S
C2662 C2661 1.374 . S
C2663 C2660 1.499 . S
C2663 C2664 1.373 . S
C2663 C2665 1.389 . S
C2664 H2637 0.950 . S
C2664 C2650 1.377 . S
C2664 C2663 1.373 . S
C2665 C2649 1.377 . S
C2665 C2663 1.389 . S
C2665 C2666 1.524 . S
C2666 C2665 1.524 . S
C2666 C2667 1.397 . S
C2666 C2671 1.363 . S
C2667 H2638 0.950 . S
C2667 C2666 1.397 . S
C2667 C2668 1.334 . S
C2668 H2639 0.950 . S
C2668 C2667 1.334 . S
C2668 C2669 1.287 . S
C2669 C2668 1.287 . S
C2669 C2670 1.524 . S
C2669 H2672 0.999 . S
C2670 H2640 0.950 . S
C2670 C2669 1.524 . S
C2670 C2671 1.415 . S
C2671 H2641 0.950 . S
C2671 C2666 1.363 . S
C2671 C2670 1.415 . S
H2672 C2669 0.999 . S
H2673 C2654 0.913 . S
H2674 C2692 0.951 . S
H2675 C2694 0.951 . S
H2676 C2696 0.950 . S
H2677 C2697 0.950 . S
H2678 C2699 0.950 . S
H2679 C2702 0.950 . S
H2680 C2703 0.950 . S
H2681 C2705 0.950 . S
H2682 C2706 0.950 . S
H2683 C2707 0.951 . S
H2684 C2709 0.951 . S
H2685 C2711 0.950 . S
H2686 C2712 0.950 . S
H2687 C2714 0.950 . S
H2688 C2717 0.950 . S
H2689 C2718 0.950 . S
H2690 C2720 0.950 . S
H2691 C2721 0.950 . S
C2692 H2674 0.951 . S
C2692 C2693 1.366 . S
C2692 C2694 1.388 . S
C2693 C2692 1.366 . S
C2693 C2697 1.385 . S
C2694 H2675 0.951 . S
C2694 C2692 1.388 . S
C2694 C2695 1.366 . S
C2695 C2694 1.366 . S
C2695 C2696 1.414 . S
C2695 C2698 1.499 . S
C2696 H2676 0.950 . S
C2696 C2695 1.414 . S
C2696 C2697 1.374 . S
C2697 H2677 0.950 . S
C2697 C2693 1.385 . S
C2697 C2696 1.374 . S
C2698 C2695 1.499 . S
C2698 C2699 1.373 . S
C2698 C2700 1.389 . S
C2699 H2678 0.950 . S
C2699 C2698 1.373 . S
C2699 C2715 1.377 . S
C2700 C2698 1.389 . S
C2700 C2701 1.524 . S
C2700 C2714 1.377 . S
C2701 C2700 1.524 . S
C2701 C2702 1.397 . S
C2701 C2706 1.363 . S
C2702 H2679 0.950 . S
C2702 C2701 1.397 . S
C2702 C2703 1.334 . S
C2703 H2680 0.950 . S
C2703 C2702 1.334 . S
C2703 C2704 1.287 . S
C2704 C2703 1.287 . S
C2704 C2705 1.524 . S
C2704 H2723 0.913 . S
C2705 H2681 0.950 . S
C2705 C2704 1.524 . S
C2705 C2706 1.415 . S
C2706 H2682 0.950 . S
C2706 C2701 1.363 . S
C2706 C2705 1.415 . S
C2707 H2683 0.951 . S
C2707 C2708 1.366 . S
C2707 C2709 1.388 . S
C2708 C2707 1.366 . S
C2708 C2712 1.385 . S
C2709 H2684 0.951 . S
C2709 C2707 1.388 . S
C2709 C2710 1.366 . S
C2710 C2709 1.366 . S
C2710 C2711 1.414 . S
C2710 C2713 1.499 . S
C2711 H2685 0.950 . S
C2711 C2710 1.414 . S
C2711 C2712 1.374 . S
C2712 H2686 0.950 . S
C2712 C2708 1.385 . S
C2712 C2711 1.374 . S
C2713 C2710 1.499 . S
C2713 C2714 1.373 . S
C2713 C2715 1.389 . S
C2714 H2687 0.950 . S
C2714 C2700 1.377 . S
C2714 C2713 1.373 . S
C2715 C2699 1.377 . S
C2715 C2713 1.389 . S
C2715 C2716 1.524 . S
C2716 C2715 1.524 . S
C2716 C2717 1.397 . S
C2716 C2721 1.363 . S
C2717 H2688 0.950 . S
C2717 C2716 1.397 . S
C2717 C2718 1.334 . S
C2718 H2689 0.950 . S
C2718 C2717 1.334 . S
C2718 C2719 1.287 . S
C2719 C2718 1.287 . S
C2719 C2720 1.524 . S
C2719 H2722 0.999 . S
C2720 H2690 0.950 . S
C2720 C2719 1.524 . S
C2720 C2721 1.415 . S
C2721 H2691 0.950 . S
C2721 C2716 1.363 . S
C2721 C2720 1.415 . S
H2722 C2719 0.999 . S
H2723 C2704 0.913 . S
H2724 C2742 0.951 . S
H2725 C2744 0.951 . S
H2726 C2746 0.950 . S
H2727 C2747 0.950 . S
H2728 C2749 0.950 . S
H2729 C2752 0.950 . S
H2730 C2753 0.950 . S
H2731 C2755 0.950 . S
H2732 C2756 0.950 . S
H2733 C2757 0.951 . S
H2734 C2759 0.951 . S
H2735 C2761 0.950 . S
H2736 C2762 0.950 . S
H2737 C2764 0.950 . S
H2738 C2767 0.950 . S
H2739 C2768 0.950 . S
H2740 C2770 0.950 . S
H2741 C2771 0.950 . S
C2742 H2724 0.951 . S
C2742 C2743 1.366 . S
C2742 C2744 1.388 . S
C2743 C2742 1.366 . S
C2743 C2747 1.385 . S
C2744 H2725 0.951 . S
C2744 C2742 1.388 . S
C2744 C2745 1.366 . S
C2745 C2744 1.366 . S
C2745 C2746 1.414 . S
C2745 C2748 1.499 . S
C2746 H2726 0.950 . S
C2746 C2745 1.414 . S
C2746 C2747 1.374 . S
C2747 H2727 0.950 . S
C2747 C2743 1.385 . S
C2747 C2746 1.374 . S
C2748 C2745 1.499 . S
C2748 C2749 1.373 . S
C2748 C2750 1.389 . S
C2749 H2728 0.950 . S
C2749 C2748 1.373 . S
C2749 C2765 1.377 . S
C2750 C2748 1.389 . S
C2750 C2751 1.524 . S
C2750 C2764 1.377 . S
C2751 C2750 1.524 . S
C2751 C2752 1.397 . S
C2751 C2756 1.363 . S
C2752 H2729 0.950 . S
C2752 C2751 1.397 . S
C2752 C2753 1.334 . S
C2753 H2730 0.950 . S
C2753 C2752 1.334 . S
C2753 C2754 1.287 . S
C2754 C2753 1.287 . S
C2754 C2755 1.524 . S
C2754 H2773 0.913 . S
C2755 H2731 0.950 . S
C2755 C2754 1.524 . S
C2755 C2756 1.415 . S
C2756 H2732 0.950 . S
C2756 C2751 1.363 . S
C2756 C2755 1.415 . S
C2757 H2733 0.951 . S
C2757 C2758 1.366 . S
C2757 C2759 1.388 . S
C2758 C2757 1.366 . S
C2758 C2762 1.385 . S
C2759 H2734 0.951 . S
C2759 C2757 1.388 . S
C2759 C2760 1.366 . S
C2760 C2759 1.366 . S
C2760 C2761 1.414 . S
C2760 C2763 1.499 . S
C2761 H2735 0.950 . S
C2761 C2760 1.414 . S
C2761 C2762 1.374 . S
C2762 H2736 0.950 . S
C2762 C2758 1.385 . S
C2762 C2761 1.374 . S
C2763 C2760 1.499 . S
C2763 C2764 1.373 . S
C2763 C2765 1.389 . S
C2764 H2737 0.950 . S
C2764 C2750 1.377 . S
C2764 C2763 1.373 . S
C2765 C2749 1.377 . S
C2765 C2763 1.389 . S
C2765 C2766 1.524 . S
C2766 C2765 1.524 . S
C2766 C2767 1.397 . S
C2766 C2771 1.363 . S
C2767 H2738 0.950 . S
C2767 C2766 1.397 . S
C2767 C2768 1.334 . S
C2768 H2739 0.950 . S
C2768 C2767 1.334 . S
C2768 C2769 1.287 . S
C2769 C2768 1.287 . S
C2769 C2770 1.524 . S
C2769 H2772 0.999 . S
C2770 H2740 0.950 . S
C2770 C2769 1.524 . S
C2770 C2771 1.415 . S
C2771 H2741 0.950 . S
C2771 C2766 1.363 . S
C2771 C2770 1.415 . S
H2772 C2769 0.999 . S
H2773 C2754 0.913 . S
H2774 C2792 0.951 . S
H2775 C2794 0.951 . S
H2776 C2796 0.950 . S
H2777 C2797 0.950 . S
H2778 C2799 0.950 . S
H2779 C2802 0.950 . S
H2780 C2803 0.950 . S
H2781 C2805 0.950 . S
H2782 C2806 0.950 . S
H2783 C2807 0.951 . S
H2784 C2809 0.951 . S
H2785 C2811 0.950 . S
H2786 C2812 0.950 . S
H2787 C2814 0.950 . S
H2788 C2817 0.950 . S
H2789 C2818 0.950 . S
H2790 C2820 0.950 . S
H2791 C2821 0.950 . S
C2792 H2774 0.951 . S
C2792 C2793 1.366 . S
C2792 C2794 1.388 . S
C2793 C2792 1.366 . S
C2793 C2797 1.385 . S
C2794 H2775 0.951 . S
C2794 C2792 1.388 . S
C2794 C2795 1.366 . S
C2795 C2794 1.366 . S
C2795 C2796 1.414 . S
C2795 C2798 1.499 . S
C2796 H2776 0.950 . S
C2796 C2795 1.414 . S
C2796 C2797 1.374 . S
C2797 H2777 0.950 . S
C2797 C2793 1.385 . S
C2797 C2796 1.374 . S
C2798 C2795 1.499 . S
C2798 C2799 1.373 . S
C2798 C2800 1.389 . S
C2799 H2778 0.950 . S
C2799 C2798 1.373 . S
C2799 C2815 1.377 . S
C2800 C2798 1.389 . S
C2800 C2801 1.524 . S
C2800 C2814 1.377 . S
C2801 C2800 1.524 . S
C2801 C2802 1.397 . S
C2801 C2806 1.363 . S
C2802 H2779 0.950 . S
C2802 C2801 1.397 . S
C2802 C2803 1.334 . S
C2803 H2780 0.950 . S
C2803 C2802 1.334 . S
C2803 C2804 1.287 . S
C2804 C2803 1.287 . S
C2804 C2805 1.524 . S
C2804 H2823 0.913 . S
C2805 H2781 0.950 . S
C2805 C2804 1.524 . S
C2805 C2806 1.415 . S
C2806 H2782 0.950 . S
C2806 C2801 1.363 . S
C2806 C2805 1.415 . S
C2807 H2783 0.951 . S
C2807 C2808 1.366 . S
C2807 C2809 1.388 . S
C2808 C2807 1.366 . S
C2808 C2812 1.385 . S
C2809 H2784 0.951 . S
C2809 C2807 1.388 . S
C2809 C2810 1.366 . S
C2810 C2809 1.366 . S
C2810 C2811 1.414 . S
C2810 C2813 1.499 . S
C2811 H2785 0.950 . S
C2811 C2810 1.414 . S
C2811 C2812 1.374 . S
C2812 H2786 0.950 . S
C2812 C2808 1.385 . S
C2812 C2811 1.374 . S
C2813 C2810 1.499 . S
C2813 C2814 1.373 . S
C2813 C2815 1.389 . S
C2814 H2787 0.950 . S
C2814 C2800 1.377 . S
C2814 C2813 1.373 . S
C2815 C2799 1.377 . S
C2815 C2813 1.389 . S
C2815 C2816 1.524 . S
C2816 C2815 1.524 . S
C2816 C2817 1.397 . S
C2816 C2821 1.363 . S
C2817 H2788 0.950 . S
C2817 C2816 1.397 . S
C2817 C2818 1.334 . S
C2818 H2789 0.950 . S
C2818 C2817 1.334 . S
C2818 C2819 1.287 . S
C2819 C2818 1.287 . S
C2819 C2820 1.524 . S
C2819 H2822 0.999 . S
C2820 H2790 0.950 . S
C2820 C2819 1.524 . S
C2820 C2821 1.415 . S
C2821 H2791 0.950 . S
C2821 C2816 1.363 . S
C2821 C2820 1.415 . S
H2822 C2819 0.999 . S
H2823 C2804 0.913 . S
H2824 C2842 0.951 . S
H2825 C2844 0.951 . S
H2826 C2846 0.950 . S
H2827 C2847 0.950 . S
H2828 C2849 0.950 . S
H2829 C2852 0.950 . S
H2830 C2853 0.950 . S
H2831 C2855 0.950 . S
H2832 C2856 0.950 . S
H2833 C2857 0.951 . S
H2834 C2859 0.951 . S
H2835 C2861 0.950 . S
H2836 C2862 0.950 . S
H2837 C2864 0.950 . S
H2838 C2867 0.950 . S
H2839 C2868 0.950 . S
H2840 C2870 0.950 . S
H2841 C2871 0.950 . S
C2842 H2824 0.951 . S
C2842 C2843 1.366 . S
C2842 C2844 1.388 . S
C2843 C2842 1.366 . S
C2843 C2847 1.385 . S
C2844 H2825 0.951 . S
C2844 C2842 1.388 . S
C2844 C2845 1.366 . S
C2845 C2844 1.366 . S
C2845 C2846 1.414 . S
C2845 C2848 1.499 . S
C2846 H2826 0.950 . S
C2846 C2845 1.414 . S
C2846 C2847 1.374 . S
C2847 H2827 0.950 . S
C2847 C2843 1.385 . S
C2847 C2846 1.374 . S
C2848 C2845 1.499 . S
C2848 C2849 1.373 . S
C2848 C2850 1.389 . S
C2849 H2828 0.950 . S
C2849 C2848 1.373 . S
C2849 C2865 1.377 . S
C2850 C2848 1.389 . S
C2850 C2851 1.524 . S
C2850 C2864 1.377 . S
C2851 C2850 1.524 . S
C2851 C2852 1.397 1_556 S
C2851 C2856 1.363 . S
C2852 H2829 0.950 . S
C2852 C2851 1.397 1_554 S
C2852 C2853 1.334 . S
C2853 H2830 0.950 . S
C2853 C2852 1.334 . S
C2853 C2854 1.287 . S
C2854 C2853 1.287 . S
C2854 C2855 1.524 1_554 S
C2854 H2873 0.913 . S
C2855 H2831 0.950 . S
C2855 C2854 1.524 1_556 S
C2855 C2856 1.415 . S
C2856 H2832 0.950 . S
C2856 C2851 1.363 . S
C2856 C2855 1.415 . S
C2857 H2833 0.951 . S
C2857 C2858 1.366 1_554 S
C2857 C2859 1.388 . S
C2858 C2857 1.366 1_556 S
C2858 C2862 1.385 . S
C2859 H2834 0.951 . S
C2859 C2857 1.388 . S
C2859 C2860 1.366 1_554 S
C2860 C2859 1.366 1_556 S
C2860 C2861 1.414 . S
C2860 C2863 1.499 . S
C2861 H2835 0.950 . S
C2861 C2860 1.414 . S
C2861 C2862 1.374 . S
C2862 H2836 0.950 . S
C2862 C2858 1.385 . S
C2862 C2861 1.374 . S
C2863 C2860 1.499 . S
C2863 C2864 1.373 . S
C2863 C2865 1.389 . S
C2864 H2837 0.950 . S
C2864 C2850 1.377 . S
C2864 C2863 1.373 . S
C2865 C2849 1.377 . S
C2865 C2863 1.389 . S
C2865 C2866 1.524 . S
C2866 C2865 1.524 . S
C2866 C2867 1.397 . S
C2866 C2871 1.363 . S
C2867 H2838 0.950 . S
C2867 C2866 1.397 . S
C2867 C2868 1.334 . S
C2868 H2839 0.950 . S
C2868 C2867 1.334 . S
C2868 C2869 1.287 . S
C2869 C2868 1.287 . S
C2869 C2870 1.524 . S
C2869 H2872 0.999 . S
C2870 H2840 0.950 . S
C2870 C2869 1.524 . S
C2870 C2871 1.415 . S
C2871 H2841 0.950 . S
C2871 C2866 1.363 . S
C2871 C2870 1.415 . S
H2872 C2869 0.999 . S
H2873 C2854 0.913 . S
H2874 C2892 0.951 . S
H2875 C2894 0.951 . S
H2876 C2896 0.950 . S
H2877 C2897 0.950 . S
H2878 C2899 0.950 . S
H2879 C2902 0.950 . S
H2880 C2903 0.950 . S
H2881 C2905 0.950 . S
H2882 C2906 0.950 . S
H2883 C2907 0.951 . S
H2884 C2909 0.951 . S
H2885 C2911 0.950 . S
H2886 C2912 0.950 . S
H2887 C2914 0.950 . S
H2888 C2917 0.950 . S
H2889 C2918 0.950 . S
H2890 C2920 0.950 . S
H2891 C2921 0.950 . S
C2892 H2874 0.951 . S
C2892 C2893 1.366 . S
C2892 C2894 1.388 . S
C2893 C2892 1.366 . S
C2893 C2897 1.385 . S
C2894 H2875 0.951 . S
C2894 C2892 1.388 . S
C2894 C2895 1.366 . S
C2895 C2894 1.366 . S
C2895 C2896 1.414 . S
C2895 C2898 1.499 . S
C2896 H2876 0.950 . S
C2896 C2895 1.414 . S
C2896 C2897 1.374 . S
C2897 H2877 0.950 . S
C2897 C2893 1.385 . S
C2897 C2896 1.374 . S
C2898 C2895 1.499 . S
C2898 C2899 1.373 . S
C2898 C2900 1.389 . S
C2899 H2878 0.950 . S
C2899 C2898 1.373 . S
C2899 C2915 1.377 . S
C2900 C2898 1.389 . S
C2900 C2901 1.524 . S
C2900 C2914 1.377 . S
C2901 C2900 1.524 . S
C2901 C2902 1.397 . S
C2901 C2906 1.363 . S
C2902 H2879 0.950 . S
C2902 C2901 1.397 . S
C2902 C2903 1.334 . S
C2903 H2880 0.950 . S
C2903 C2902 1.334 . S
C2903 C2904 1.287 . S
C2904 C2903 1.287 . S
C2904 C2905 1.524 . S
C2904 H2923 0.913 . S
C2905 H2881 0.950 . S
C2905 C2904 1.524 . S
C2905 C2906 1.415 . S
C2906 H2882 0.950 . S
C2906 C2901 1.363 . S
C2906 C2905 1.415 . S
C2907 H2883 0.951 . S
C2907 C2908 1.366 . S
C2907 C2909 1.388 . S
C2908 C2907 1.366 . S
C2908 C2912 1.385 . S
C2909 H2884 0.951 . S
C2909 C2907 1.388 . S
C2909 C2910 1.366 . S
C2910 C2909 1.366 . S
C2910 C2911 1.414 . S
C2910 C2913 1.499 . S
C2911 H2885 0.950 . S
C2911 C2910 1.414 . S
C2911 C2912 1.374 . S
C2912 H2886 0.950 . S
C2912 C2908 1.385 . S
C2912 C2911 1.374 . S
C2913 C2910 1.499 . S
C2913 C2914 1.373 . S
C2913 C2915 1.389 . S
C2914 H2887 0.950 . S
C2914 C2900 1.377 . S
C2914 C2913 1.373 . S
C2915 C2899 1.377 . S
C2915 C2913 1.389 . S
C2915 C2916 1.524 . S
C2916 C2915 1.524 . S
C2916 C2917 1.397 . S
C2916 C2921 1.363 . S
C2917 H2888 0.950 . S
C2917 C2916 1.397 . S
C2917 C2918 1.334 . S
C2918 H2889 0.950 . S
C2918 C2917 1.334 . S
C2918 C2919 1.287 . S
C2919 C2918 1.287 . S
C2919 C2920 1.524 . S
C2919 H2922 0.999 . S
C2920 H2890 0.950 . S
C2920 C2919 1.524 . S
C2920 C2921 1.415 . S
C2921 H2891 0.950 . S
C2921 C2916 1.363 . S
C2921 C2920 1.415 . S
H2922 C2919 0.999 . S
H2923 C2904 0.913 . S
H2924 C2942 0.951 . S
H2925 C2944 0.951 . S
H2926 C2946 0.950 . S
H2927 C2947 0.950 . S
H2928 C2949 0.950 . S
H2929 C2952 0.950 . S
H2930 C2953 0.950 . S
H2931 C2955 0.950 . S
H2932 C2956 0.950 . S
H2933 C2957 0.951 . S
H2934 C2959 0.951 . S
H2935 C2961 0.950 . S
H2936 C2962 0.950 . S
H2937 C2964 0.950 . S
H2938 C2967 0.950 . S
H2939 C2968 0.950 . S
H2940 C2970 0.950 . S
H2941 C2971 0.950 1_554 S
C2942 H2924 0.951 . S
C2942 C2943 1.366 . S
C2942 C2944 1.388 . S
C2943 C2942 1.366 . S
C2943 C2947 1.385 . S
C2944 H2925 0.951 . S
C2944 C2942 1.388 . S
C2944 C2945 1.366 . S
C2945 C2944 1.366 . S
C2945 C2946 1.414 . S
C2945 C2948 1.499 . S
C2946 H2926 0.950 . S
C2946 C2945 1.414 . S
C2946 C2947 1.374 . S
C2947 H2927 0.950 . S
C2947 C2943 1.385 . S
C2947 C2946 1.374 . S
C2948 C2945 1.499 . S
C2948 C2949 1.373 . S
C2948 C2950 1.389 . S
C2949 H2928 0.950 . S
C2949 C2948 1.373 . S
C2949 C2965 1.377 . S
C2950 C2948 1.389 . S
C2950 C2951 1.524 . S
C2950 C2964 1.377 . S
C2951 C2950 1.524 . S
C2951 C2952 1.397 . S
C2951 C2956 1.363 . S
C2952 H2929 0.950 . S
C2952 C2951 1.397 . S
C2952 C2953 1.334 . S
C2953 H2930 0.950 . S
C2953 C2952 1.334 . S
C2953 C2954 1.287 . S
C2954 C2953 1.287 . S
C2954 C2955 1.524 . S
C2954 H2973 0.913 . S
C2955 H2931 0.950 . S
C2955 C2954 1.524 . S
C2955 C2956 1.415 . S
C2956 H2932 0.950 . S
C2956 C2951 1.363 . S
C2956 C2955 1.415 . S
C2957 H2933 0.951 . S
C2957 C2958 1.366 . S
C2957 C2959 1.388 . S
C2958 C2957 1.366 . S
C2958 C2962 1.385 . S
C2959 H2934 0.951 . S
C2959 C2957 1.388 . S
C2959 C2960 1.366 . S
C2960 C2959 1.366 . S
C2960 C2961 1.414 . S
C2960 C2963 1.499 . S
C2961 H2935 0.950 . S
C2961 C2960 1.414 . S
C2961 C2962 1.374 . S
C2962 H2936 0.950 . S
C2962 C2958 1.385 . S
C2962 C2961 1.374 . S
C2963 C2960 1.499 . S
C2963 C2964 1.373 . S
C2963 C2965 1.389 . S
C2964 H2937 0.950 . S
C2964 C2950 1.377 . S
C2964 C2963 1.373 . S
C2965 C2949 1.377 . S
C2965 C2963 1.389 . S
C2965 C2966 1.524 1_554 S
C2966 C2965 1.524 1_556 S
C2966 C2967 1.397 . S
C2966 C2971 1.363 . S
C2967 H2938 0.950 . S
C2967 C2966 1.397 . S
C2967 C2968 1.334 . S
C2968 H2939 0.950 . S
C2968 C2967 1.334 . S
C2968 C2969 1.287 . S
C2969 C2968 1.287 . S
C2969 C2970 1.524 . S
C2969 H2972 0.999 . S
C2970 H2940 0.950 . S
C2970 C2969 1.524 . S
C2970 C2971 1.415 . S
C2971 H2941 0.950 1_556 S
C2971 C2966 1.363 . S
C2971 C2970 1.415 . S
H2972 C2969 0.999 . S
H2973 C2954 0.913 . S
H2974 C2992 0.951 . S
H2975 C2994 0.951 . S
H2976 C2996 0.950 . S
H2977 C2997 0.950 . S
H2978 C2999 0.950 . S
H2979 C3002 0.950 . S
H2980 C3003 0.950 . S
H2981 C3005 0.950 . S
H2982 C3006 0.950 . S
H2983 C3007 0.951 . S
H2984 C3009 0.951 . S
H2985 C3011 0.950 . S
H2986 C3012 0.950 . S
H2987 C3014 0.950 . S
H2988 C3017 0.950 . S
H2989 C3018 0.950 . S
H2990 C3020 0.950 . S
H2991 C3021 0.926 1_545 S
C2992 H2974 0.951 . S
C2992 C2993 1.366 1_565 S
C2992 C2994 1.388 . S
C2993 C2992 1.366 1_545 S
C2993 C2997 1.385 . S
C2994 H2975 0.951 . S
C2994 C2992 1.388 . S
C2994 C2995 1.366 . S
C2995 C2994 1.366 . S
C2995 C2996 1.414 1_565 S
C2995 C2998 1.499 . S
C2996 H2976 0.950 . S
C2996 C2995 1.414 1_545 S
C2996 C2997 1.374 . S
C2997 H2977 0.950 . S
C2997 C2993 1.385 . S
C2997 C2996 1.374 . S
C2998 C2995 1.499 . S
C2998 C2999 1.373 . S
C2998 C3000 1.389 . S
C2999 H2978 0.950 . S
C2999 C2998 1.373 . S
C2999 C3015 1.377 . S
C3000 C2998 1.389 . S
C3000 C3001 1.524 . S
C3000 C3014 1.377 . S
C3001 C3000 1.524 . S
C3001 C3002 1.397 . S
C3001 C3006 1.363 . S
C3002 H2979 0.950 . S
C3002 C3001 1.397 . S
C3002 C3003 1.334 . S
C3003 H2980 0.950 . S
C3003 C3002 1.334 . S
C3003 C3004 1.287 . S
C3004 C3003 1.287 . S
C3004 C3005 1.524 . S
C3004 H3023 0.913 . S
C3005 H2981 0.950 . S
C3005 C3004 1.524 . S
C3005 C3006 1.415 . S
C3006 H2982 0.950 . S
C3006 C3001 1.363 . S
C3006 C3005 1.415 . S
C3007 H2983 0.951 . S
C3007 C3008 1.366 . S
C3007 C3009 1.388 . S
C3008 C3007 1.366 . S
C3008 C3012 1.385 . S
C3009 H2984 0.951 . S
C3009 C3007 1.388 . S
C3009 C3010 1.366 . S
C3010 C3009 1.366 . S
C3010 C3011 1.414 . S
C3010 C3013 1.499 . S
C3011 H2985 0.950 . S
C3011 C3010 1.414 . S
C3011 C3012 1.374 . S
C3012 H2986 0.950 . S
C3012 C3008 1.385 . S
C3012 C3011 1.374 . S
C3013 C3010 1.499 . S
C3013 C3014 1.373 . S
C3013 C3015 1.389 . S
C3014 H2987 0.950 . S
C3014 C3000 1.377 . S
C3014 C3013 1.373 . S
C3015 C2999 1.377 . S
C3015 C3013 1.389 . S
C3015 C3016 1.524 . S
C3016 C3015 1.524 . S
C3016 C3017 1.397 1_554 S
C3016 C3021 1.412 . S
C3017 H2988 0.950 . S
C3017 C3016 1.397 1_556 S
C3017 C3018 1.334 . S
C3018 H2989 0.950 . S
C3018 C3017 1.334 . S
C3018 C3019 1.287 . S
C3019 C3018 1.287 . S
C3019 C3020 1.524 1_566 S
C3019 H3022 0.977 1_565 S
C3020 H2990 0.950 . S
C3020 C3019 1.524 1_544 S
C3020 C3021 1.392 1_545 S
C3021 H2991 0.926 1_565 S
C3021 C3016 1.412 . S
C3021 C3020 1.392 1_565 S
H3022 C3019 0.977 1_545 S
H3023 C3004 0.913 . S
C658 C194 1.691 . S
C643 C66 1.691 . S
C708 C242 1.196 . S
C693 C76 1.222 . S
C743 C93 1.763 . S
C758 C278 1.699 . S
C808 C314 1.564 . S
C793 C54 1.616 . S
C858 C340 1.416 . S
C843 C126 1.422 . S
C908 C376 1.944 . S
C893 C150 1.963 . S
C943 C136 1.096 . S
C958 C411 1.111 . S
C1008 C448 1.876 . S
C993 C117 1.889 . S
C1043 C141 1.157 . S
C1058 C482 1.155 . S
C1108 C530 1.340 . S
C1093 C112 1.374 . S
C1143 C124 1.482 . S
C1158 C483 1.499 . S
C1208 C520 1.397 . S
C1193 C148 1.392 . S
C1243 C88 1.182 . S
C1258 C566 1.132 . S
C1293 C52 1.736 . S
C1308 C555 1.734 . S
C1343 C64 1.188 . S
C1358 C556 1.196 . S
C1393 C78 1.287 . S
C1408 C554 1.280 . S
C1443 C45 1.632 . S
C1458 C302 1.626 1_565 S
C1493 C177 1.833 . S
C1508 C303 1.836 . S
C1558 C206 1.514 . S
C1543 C189 1.582 . S
C1608 C231 1.550 . S
C1593 C102 1.543 . S
C1643 C57 1.877 1_545 S
C1658 C338 1.876 . S
C1708 C446 1.379 . S
C1693 C138 1.398 . S
C1758 C339 1.851 . S
C1743 C114 1.852 1_545 S
C1808 C412 1.871 . S
C1793 C153 1.875 . S
C1858 C410 1.691 . S
C1843 C174 1.691 . S
C1893 C184 1.222 . S
C1908 C458 1.196 . S
C1943 C105 1.763 . S
C1958 C350 1.699 . S
C2008 C386 1.563 . S
C1993 C162 1.616 . S
C2043 C42 1.422 . S
C2058 C268 1.416 . S
C2108 C304 1.944 . S
C2093 C6 1.962 . S
C2158 C195 1.112 . S
C2143 C16 1.097 . S
C2208 C232 1.877 . S
C2193 C33 1.889 1_455 S
C2243 C21 1.157 . S
C2258 C518 1.155 . S
C2293 C28 1.374 1_556 S
C2308 C494 1.339 . S
C2343 C40 1.482 . S
C2358 C519 1.498 . S
C2393 C4 1.392 1_556 S
C2408 C484 1.397 . S
C2458 C602 1.132 . S
C2443 C100 1.181 . S
C2508 C591 1.735 . S
C2493 C160 1.736 1_554 S
C2558 C592 1.196 . S
C2543 C172 1.188 . S
C2593 C186 1.287 . S
C2608 C590 1.280 . S
C2643 C129 1.632 . S
C2658 C374 1.626 . S
C2708 C375 1.836 . S
C2693 C69 1.833 . S
C2758 C422 1.513 . S
C2743 C81 1.582 . S
C2808 C447 1.550 . S
C2793 C90 1.543 . S
C2843 C165 1.877 . S
C2858 C266 1.875 1_556 S
C2908 C230 1.379 . S
C2893 C18 1.398 . S
C2943 C30 1.852 . S
C2958 C267 1.851 . S
C3008 C196 1.871 . S
C2993 C9 1.875 . S
