# Generated by pormake.
# Topology ftw, (4,12)-cn, num edge types: 1
# Building blocks:
#     Node 0, Type 0, BuildingBlock: NAHDIM_clean_linker_0, # of connection points: 4
#     Node 1, Type 0, BuildingBlock: NAHDIM_clean_linker_0, # of connection points: 4
#     Node 2, Type 0, BuildingBlock: NAHDIM_clean_linker_0, # of connection points: 4
#     Node 3, Type 1, BuildingBlock: QEWDON_clean_sbu_0, # of connection points: 12
#     Edge 4, Type (0, 1), BuildingBlock: FUNLAD_clean_linker_0, # of connection points: 2
#     Edge 5, Type (0, 1), BuildingBlock: FUNLAD_clean_linker_0, # of connection points: 2
#     Edge 6, Type (0, 1), BuildingBlock: FUNLAD_clean_linker_0, # of connection points: 2
#     Edge 7, Type (0, 1), BuildingBlock: FUNLAD_clean_linker_0, # of connection points: 2
#     Edge 8, Type (0, 1), BuildingBlock: FUNLAD_clean_linker_0, # of connection points: 2
#     Edge 9, Type (0, 1), BuildingBlock: FUNLAD_clean_linker_0, # of connection points: 2
#     Edge 10, Type (0, 1), BuildingBlock: FUNLAD_clean_linker_0, # of connection points: 2
#     Edge 11, Type (0, 1), BuildingBlock: FUNLAD_clean_linker_0, # of connection points: 2
#     Edge 12, Type (0, 1), BuildingBlock: FUNLAD_clean_linker_0, # of connection points: 2
#     Edge 13, Type (0, 1), BuildingBlock: FUNLAD_clean_linker_0, # of connection points: 2
#     Edge 14, Type (0, 1), BuildingBlock: FUNLAD_clean_linker_0, # of connection points: 2
#     Edge 15, Type (0, 1), BuildingBlock: FUNLAD_clean_linker_0, # of connection points: 2
# Relax obj value: 0.035
# Max RMSD: 0.107
# Mean RMSD: 0.084
data_MOF--net-ftw--node1-QEWDON_clean_sbu_0--node2-NAHDIM_clean_linker_0--edge1-FUNLAD_clean_linker_0
_symmetry_space_group_name_H-M    P1
_symmetry_Int_Tables_number       1
_symmetry_cell_setting            triclinic
loop_
_symmetry_equiv_pos_as_xyz
'x, y, z'
_cell_length_a     35.651086
_cell_length_b     35.156409
_cell_length_c     36.793218
_cell_angle_alpha  90.318689
_cell_angle_beta   89.588422
_cell_angle_gamma 89.519853
loop_
_atom_site_label
_atom_site_type_symbol
_atom_site_fract_x
_atom_site_fract_y
_atom_site_fract_z
_atom_type_partial_charge
C0 C 0.94619 0.64418 0.29481 0.0
C1 C 0.95139 0.67648 0.32257 0.0
C2 C 0.98246 0.63933 0.37068 0.0
C3 C 0.95082 0.61907 0.38243 0.0
C4 C 0.95462 0.58805 0.40607 0.0
C5 C 0.99068 0.57733 0.41838 0.0
C6 C 0.02234 0.59865 0.40777 0.0
C7 C 0.01773 0.62953 0.38419 0.0
C8 C 0.92024 0.56619 0.41733 0.0
C9 C 0.06116 0.58819 0.42063 0.0
C10 C 0.06725 0.36342 0.30173 0.0
C11 C 0.05383 0.33349 0.32908 0.0
C12 C 0.02017 0.37554 0.37249 0.0
C13 C 0.05183 0.39358 0.38696 0.0
C14 C 0.04777 0.42541 0.40991 0.0
C15 C 0.01138 0.43878 0.41917 0.0
C16 C 0.97953 0.41952 0.40606 0.0
C17 C 0.98441 0.38814 0.38282 0.0
C18 C 0.0823 0.44525 0.42367 0.0
C19 C 0.94033 0.43264 0.41592 0.0
C20 C 0.0322 0.37538 0.65715 0.0
C21 C 0.06148 0.39493 0.63977 0.0
C22 C 0.05422 0.42823 0.61999 0.0
C23 C 0.01684 0.44171 0.6167 0.0
C24 C 0.98738 0.42214 0.63426 0.0
C25 C 0.99558 0.38949 0.65459 0.0
C26 C 0.08655 0.44898 0.60257 0.0
C27 C 0.94718 0.43549 0.63132 0.0
C28 C 0.90992 0.71959 0.64644 0.0
C29 C 0.92802 0.69853 0.67823 0.0
C30 C 0.96843 0.6484 0.65101 0.0
C31 C 0.00571 0.63747 0.64484 0.0
C32 C 0.01471 0.60309 0.62722 0.0
C33 C 0.98554 0.57907 0.61554 0.0
C34 C 0.9477 0.58956 0.62221 0.0
C35 C 0.93947 0.62424 0.6397 0.0
C36 C 0.05533 0.5928 0.62036 0.0
C37 C 0.91594 0.56443 0.61015 0.0
C38 C 0.99562 0.54251 0.44055 0.0
C39 C 0.00121 0.50809 0.4221 0.0
C40 C 0.0065 0.4741 0.44092 0.0
C41 C 0.00658 0.47419 0.47932 0.0
C42 C 0.01185 0.44047 0.49909 0.0
C43 C 0.01239 0.441 0.53691 0.0
C44 C 0.00751 0.47524 0.5564 0.0
C45 C 0.00858 0.47621 0.59486 0.0
C46 C 0.00179 0.51049 0.61333 0.0
C47 C 0.99442 0.54407 0.59441 0.0
C48 C 0.99483 0.54398 0.556 0.0
C49 C 0.98895 0.57762 0.53619 0.0
C50 C 0.98931 0.57726 0.49838 0.0
C51 C 0.99527 0.54322 0.47895 0.0
C52 C 0.00103 0.50893 0.49839 0.0
C53 C 0.00117 0.50939 0.53696 0.0
C54 C 0.07256 0.29699 0.64189 0.0
C55 C 0.0694 0.31986 0.67742 0.0
O56 O 0.98053 0.66801 0.34608 0.0
O57 O 0.96203 0.68259 0.66742 0.0
O58 O 0.03772 0.34305 0.67664 0.0
O59 O 0.02253 0.34645 0.34813 0.0
H60 H 0.92502 0.68085 0.33846 0.0
H61 H 0.93785 0.61748 0.30846 0.0
H62 H 0.97271 0.63874 0.2795 0.0
H63 H 0.92374 0.65172 0.27527 0.0
H64 H 0.92319 0.62695 0.37296 0.0
H65 H 0.04191 0.6456 0.37533 0.0
H66 H 0.92236 0.53663 0.40671 0.0
H67 H 0.89394 0.57935 0.4071 0.0
H68 H 0.9186 0.56458 0.44743 0.0
H69 H 0.08277 0.60833 0.41078 0.0
H70 H 0.06865 0.55914 0.41089 0.0
H71 H 0.06164 0.58778 0.4508 0.0
H72 H 0.07674 0.32679 0.34847 0.0
H73 H 0.09119 0.35199 0.28539 0.0
H74 H 0.07696 0.38945 0.31582 0.0
H75 H 0.04419 0.37156 0.28307 0.0
H76 H 0.07972 0.38342 0.38007 0.0
H77 H 0.96019 0.37371 0.37189 0.0
H78 H 0.08243 0.44489 0.45383 0.0
H79 H 0.0818 0.47549 0.4151 0.0
H80 H 0.10864 0.43172 0.41347 0.0
H81 H 0.91864 0.41253 0.40625 0.0
H82 H 0.93487 0.46089 0.40362 0.0
H83 H 0.93756 0.43593 0.44586 0.0
H84 H 0.09488 0.33746 0.68099 0.0
H85 H 0.09005 0.38465 0.6416 0.0
H86 H 0.97319 0.37435 0.66819 0.0
H87 H 0.08528 0.44545 0.57262 0.0
H88 H 0.11416 0.43811 0.61194 0.0
H89 H 0.08459 0.4799 0.60872 0.0
H90 H 0.92718 0.41485 0.64322 0.0
H91 H 0.93984 0.44016 0.60239 0.0
H92 H 0.94371 0.46309 0.64582 0.0
H93 H 0.90873 0.67596 0.68789 0.0
H94 H 0.88291 0.73284 0.65524 0.0
H95 H 0.9041 0.69945 0.62387 0.0
H96 H 0.9288 0.74212 0.63605 0.0
H97 H 0.02784 0.65629 0.65363 0.0
H98 H 0.91043 0.63232 0.64388 0.0
H99 H 0.06046 0.58975 0.59068 0.0
H100 H 0.06186 0.56495 0.63303 0.0
H101 H 0.07476 0.61449 0.63137 0.0
H102 H 0.8882 0.57509 0.61987 0.0
H103 H 0.9203 0.53507 0.62036 0.0
H104 H 0.91557 0.56291 0.58001 0.0
H105 H 0.00136 0.50774 0.39259 0.0
H106 H 0.01581 0.41331 0.48552 0.0
H107 H 0.01664 0.41419 0.55067 0.0
H108 H 0.00204 0.51102 0.64281 0.0
H109 H 0.98419 0.6047 0.54966 0.0
H110 H 0.98474 0.604 0.48456 0.0
H111 H 0.04741 0.27893 0.63823 0.0
H112 H 0.09799 0.27851 0.64201 0.0
H113 H 0.07485 0.31642 0.61833 0.0
C114 C 0.64044 0.0004 0.71213 0.0
C115 C 0.67303 0.9967 0.68487 0.0
C116 C 0.64273 0.02243 0.63125 0.0
C117 C 0.63398 0.98848 0.61304 0.0
C118 C 0.60385 0.98694 0.58881 0.0
C119 C 0.58224 0.02013 0.58241 0.0
C120 C 0.59241 0.05492 0.59899 0.0
C121 C 0.62285 0.05567 0.62304 0.0
C122 C 0.59426 0.94948 0.57104 0.0
C123 C 0.57024 0.09088 0.59231 0.0
C124 C 0.38377 0.95839 0.72252 0.0
C125 C 0.36872 0.99098 0.69923 0.0
C126 C 0.38897 0.98396 0.63696 0.0
C127 C 0.39832 0.02088 0.6264 0.0
C128 C 0.4269 0.02705 0.60075 0.0
C129 C 0.44674 0.99554 0.58577 0.0
C130 C 0.43638 0.95813 0.59552 0.0
C131 C 0.40709 0.95281 0.62069 0.0
C132 C 0.43678 0.06729 0.59062 0.0
C133 C 0.45725 0.92391 0.58054 0.0
C134 C 0.38441 0.94671 0.35626 0.0
C135 C 0.38492 0.98598 0.36348 0.0
C136 C 0.41642 0.00292 0.37939 0.0
C137 C 0.4478 0.98002 0.38843 0.0
C138 C 0.44792 0.94077 0.37961 0.0
C139 C 0.41632 0.92474 0.36321 0.0
C140 C 0.41591 0.04506 0.38731 0.0
C141 C 0.48106 0.91555 0.38841 0.0
C142 C 0.72247 0.10246 0.36006 0.0
C143 C 0.7074 0.06718 0.34069 0.0
C144 C 0.63982 0.05963 0.34768 0.0
C145 C 0.60926 0.08383 0.3543 0.0
C146 C 0.57754 0.0711 0.37334 0.0
C147 C 0.57614 0.03292 0.38523 0.0
C148 C 0.60621 0.00772 0.37688 0.0
C149 C 0.63783 0.02138 0.35822 0.0
C150 C 0.54584 0.09865 0.38142 0.0
C151 C 0.60508 0.96653 0.38809 0.0
C152 C 0.54702 0.01723 0.56133 0.0
C153 C 0.51413 0.00952 0.58068 0.0
C154 C 0.48051 0.00207 0.56282 0.0
C155 C 0.47975 0.00121 0.52441 0.0
C156 C 0.44708 0.99149 0.50548 0.0
C157 C 0.4471 0.98939 0.46769 0.0
C158 C 0.47935 0.9985 0.44732 0.0
C159 C 0.4797 0.99635 0.40889 0.0
C160 C 0.51157 0.0076 0.38947 0.0
C161 C 0.54378 0.01987 0.40745 0.0
C162 C 0.54469 0.02002 0.44592 0.0
C163 C 0.57728 0.03011 0.46495 0.0
C164 C 0.57824 0.02897 0.50276 0.0
C165 C 0.54628 0.01895 0.52298 0.0
C166 C 0.51269 0.01011 0.50444 0.0
C167 C 0.5122 0.00969 0.46585 0.0
C168 C 0.29707 0.9029 0.36538 0.0
C169 C 0.31674 0.93823 0.35076 0.0
O170 O 0.66923 0.02364 0.65764 0.0
O171 O 0.67052 0.07386 0.33063 0.0
O172 O 0.35377 0.92907 0.34264 0.0
O173 O 0.36363 0.97808 0.66393 0.0
H174 H 0.67244 0.96759 0.67301 0.0
H175 H 0.61343 0.99462 0.69837 0.0
H176 H 0.63919 0.02955 0.72394 0.0
H177 H 0.64378 0.97948 0.73443 0.0
H178 H 0.65035 0.96299 0.61784 0.0
H179 H 0.63016 0.08189 0.6368 0.0
H180 H 0.56574 0.94068 0.57971 0.0
H181 H 0.61447 0.92648 0.57805 0.0
H182 H 0.59395 0.95274 0.54105 0.0
H183 H 0.58378 0.11628 0.60441 0.0
H184 H 0.54173 0.08805 0.60428 0.0
H185 H 0.56692 0.09537 0.56265 0.0
H186 H 0.39013 0.01394 0.69982 0.0
H187 H 0.3879 0.9682 0.75097 0.0
H188 H 0.41126 0.9484 0.71153 0.0
H189 H 0.36408 0.93406 0.72245 0.0
H190 H 0.38363 0.04481 0.63879 0.0
H191 H 0.3994 0.9244 0.62905 0.0
H192 H 0.46461 0.0744 0.60203 0.0
H193 H 0.41583 0.08828 0.60109 0.0
H194 H 0.43882 0.06997 0.56061 0.0
H195 H 0.44608 0.89676 0.59128 0.0
H196 H 0.48743 0.92585 0.58753 0.0
H197 H 0.45529 0.9234 0.55045 0.0
H198 H 0.31508 0.95985 0.37299 0.0
H199 H 0.36079 0.0034 0.35671 0.0
H200 H 0.41585 0.8946 0.35691 0.0
H201 H 0.41567 0.0498 0.41716 0.0
H202 H 0.39101 0.05953 0.37556 0.0
H203 H 0.44171 0.05836 0.37626 0.0
H204 H 0.47653 0.88548 0.38023 0.0
H205 H 0.48657 0.9166 0.41807 0.0
H206 H 0.50649 0.92613 0.37426 0.0
H207 H 0.70925 0.04343 0.3605 0.0
H208 H 0.75216 0.09781 0.36803 0.0
H209 H 0.70566 0.10821 0.38506 0.0
H210 H 0.7207 0.12783 0.34226 0.0
H211 H 0.61084 0.11312 0.34543 0.0
H212 H 0.66082 0.00215 0.35168 0.0
H213 H 0.54112 0.10061 0.41124 0.0
H214 H 0.51957 0.08805 0.36908 0.0
H215 H 0.55151 0.12758 0.37082 0.0
H216 H 0.62928 0.9499 0.37706 0.0
H217 H 0.57868 0.95334 0.3786 0.0
H218 H 0.60535 0.96468 0.4182 0.0
H219 H 0.51484 0.00876 0.61016 0.0
H220 H 0.42135 0.98465 0.51973 0.0
H221 H 0.42135 0.98091 0.45465 0.0
H222 H 0.51144 0.00645 0.35999 0.0
H223 H 0.60265 0.03838 0.45083 0.0
H224 H 0.60422 0.03639 0.516 0.0
H225 H 0.2672 0.90949 0.37176 0.0
H226 H 0.31095 0.89338 0.39074 0.0
H227 H 0.29845 0.87919 0.3453 0.0
C228 C 0.66537 0.70491 0.89615 0.0
C229 C 0.66405 0.68739 0.93408 0.0
C230 C 0.63177 0.63124 0.9541 0.0
C231 C 0.6384 0.63077 0.99154 0.0
C232 C 0.61324 0.61296 0.01536 0.0
C233 C 0.58021 0.59634 0.00138 0.0
C234 C 0.57346 0.59711 0.96344 0.0
C235 C 0.59996 0.6137 0.94019 0.0
C236 C 0.62186 0.61243 0.05545 0.0
C237 C 0.53801 0.58117 0.94735 0.0
C238 C 0.36754 0.68434 0.21 0.0
C239 C 0.37783 0.68283 0.16959 0.0
C240 C 0.43721 0.66389 0.14118 0.0
C241 C 0.42292 0.65304 0.10721 0.0
C242 C 0.44443 0.6305 0.08316 0.0
C243 C 0.48061 0.61804 0.09363 0.0
C244 C 0.49555 0.63019 0.12725 0.0
C245 C 0.47376 0.65346 0.15037 0.0
C246 C 0.42813 0.61917 0.04699 0.0
C247 C 0.53409 0.61766 0.13924 0.0
C248 C 0.3709 0.40355 0.12931 0.0
C249 C 0.36951 0.41437 0.09266 0.0
C250 C 0.40258 0.42142 0.07302 0.0
C251 C 0.43768 0.41773 0.09047 0.0
C252 C 0.43924 0.4043 0.12659 0.0
C253 C 0.4057 0.39706 0.14547 0.0
C254 C 0.39995 0.43449 0.03411 0.0
C255 C 0.4762 0.39958 0.14578 0.0
C256 C 0.67299 0.33099 0.90924 0.0
C257 C 0.66087 0.32838 0.94909 0.0
C258 C 0.59867 0.34529 0.97228 0.0
C259 C 0.56326 0.35479 0.95896 0.0
C260 C 0.53887 0.37877 0.97878 0.0
C261 C 0.54996 0.39261 0.01324 0.0
C262 C 0.58489 0.38113 0.02783 0.0
C263 C 0.60902 0.35776 0.00707 0.0
C264 C 0.50179 0.39023 0.96244 0.0
C265 C 0.59705 0.39421 0.06502 0.0
C266 C 0.55213 0.57943 0.02646 0.0
C267 C 0.5299 0.6042 0.04751 0.0
C268 C 0.50195 0.59044 0.07062 0.0
C269 C 0.49497 0.55094 0.07206 0.0
C270 C 0.46618 0.53624 0.09404 0.0
C271 C 0.45858 0.49755 0.09423 0.0
C272 C 0.48013 0.47184 0.07316 0.0
C273 C 0.47193 0.43255 0.07246 0.0
C274 C 0.49517 0.4074 0.05296 0.0
C275 C 0.52601 0.42068 0.03313 0.0
C276 C 0.53338 0.4602 0.03192 0.0
C277 C 0.563 0.4748 0.01086 0.0
C278 C 0.56956 0.51375 0.0094 0.0
C279 C 0.54664 0.53967 0.02877 0.0
C280 C 0.51738 0.52549 0.05103 0.0
C281 C 0.51041 0.48579 0.05216 0.0
C282 C 0.28953 0.43122 0.18149 0.0
C283 C 0.30552 0.41847 0.14466 0.0
O284 O 0.65536 0.64921 0.93101 0.0
O285 O 0.62224 0.32439 0.95082 0.0
O286 O 0.33945 0.39982 0.15004 0.0
O287 O 0.41649 0.68403 0.16585 0.0
H288 H 0.64124 0.70265 0.94932 0.0
H289 H 0.63763 0.70193 0.88293 0.0
H290 H 0.68687 0.69041 0.87885 0.0
H291 H 0.67203 0.73568 0.898 0.0
H292 H 0.66339 0.64408 0.00208 0.0
H293 H 0.59523 0.61439 0.91113 0.0
H294 H 0.60415 0.63411 0.06954 0.0
H295 H 0.65173 0.61908 0.06084 0.0
H296 H 0.61534 0.58425 0.06732 0.0
H297 H 0.5335 0.59117 0.91911 0.0
H298 H 0.51316 0.58932 0.96411 0.0
H299 H 0.53989 0.54967 0.94672 0.0
H300 H 0.3672 0.65512 0.15918 0.0
H301 H 0.37833 0.71068 0.22292 0.0
H302 H 0.38003 0.65944 0.22407 0.0
H303 H 0.33659 0.68342 0.21364 0.0
H304 H 0.39502 0.66202 0.09943 0.0
H305 H 0.48468 0.66245 0.17643 0.0
H306 H 0.42159 0.58836 0.0472 0.0
H307 H 0.44885 0.62399 0.02485 0.0
H308 H 0.40198 0.63524 0.04085 0.0
H309 H 0.54101 0.62835 0.16685 0.0
H310 H 0.55543 0.62824 0.11976 0.0
H311 H 0.53598 0.58612 0.13919 0.0
H312 H 0.30992 0.44499 0.12878 0.0
H313 H 0.34269 0.41793 0.07945 0.0
H314 H 0.40648 0.38797 0.17356 0.0
H315 H 0.40731 0.46507 0.03261 0.0
H316 H 0.37132 0.43085 0.02296 0.0
H317 H 0.42025 0.41844 0.01675 0.0
H318 H 0.47281 0.38705 0.17326 0.0
H319 H 0.48985 0.42772 0.14854 0.0
H320 H 0.49526 0.38103 0.12938 0.0
H321 H 0.6694 0.35566 0.96211 0.0
H322 H 0.70391 0.33428 0.90714 0.0
H323 H 0.65946 0.35614 0.89651 0.0
H324 H 0.66463 0.30513 0.8939 0.0
H325 H 0.55537 0.34451 0.93229 0.0
H326 H 0.63594 0.3493 0.018 0.0
H327 H 0.49945 0.42173 0.96144 0.0
H328 H 0.47852 0.37982 0.97984 0.0
H329 H 0.49821 0.37863 0.93455 0.0
H330 H 0.62248 0.37877 0.07443 0.0
H331 H 0.57408 0.39007 0.08513 0.0
H332 H 0.60334 0.42506 0.06425 0.0
H333 H 0.53441 0.63464 0.04588 0.0
H334 H 0.44872 0.55453 0.11098 0.0
H335 H 0.43568 0.48808 0.11128 0.0
H336 H 0.48896 0.37725 0.05291 0.0
H337 H 0.5813 0.45632 0.99497 0.0
H338 H 0.59275 0.5233 0.99275 0.0
H339 H 0.28546 0.40652 0.19976 0.0
H340 H 0.26219 0.4461 0.17785 0.0
H341 H 0.30921 0.45125 0.19471 0.0
Zn342 Zn 0.08585 0.10815 0.97448 0.0
Zn343 Zn 0.07203 0.08796 0.05929 0.0
O344 O 0.07773 0.06473 0.00995 0.0
H345 H 0.0794 0.0379 0.0043 0.0
C346 C 0.00105 0.1157 0.94148 0.0
O347 O 0.9937 0.12842 0.97445 0.0
Zn348 Zn 0.95885 0.91274 0.04361 0.0
Zn349 Zn 0.96495 0.91528 0.95687 0.0
O350 O 0.95512 0.94839 0.00146 0.0
H351 H 0.95785 0.97565 0.00193 0.0
Zn352 Zn 0.96063 0.05271 0.97186 0.0
O353 O 0.9863 0.0429 0.01979 0.0
Zn354 Zn 0.94589 0.04311 0.05787 0.0
H355 H 0.00952 0.02869 0.02175 0.0
Zn356 Zn 0.10016 0.93456 0.97617 0.0
O357 O 0.06201 0.95101 0.01399 0.0
H358 H 0.03832 0.96338 0.00898 0.0
Zn359 Zn 0.0893 0.95186 0.0608 0.0
C360 C 0.0518 0.88873 0.93234 0.0
O361 O 0.04264 0.87707 0.96508 0.0
O362 O 0.09863 0.15903 1e-05 0.0
O363 O 0.08452 0.14427 0.05723 0.0
O364 O 0.95057 0.85967 0.96662 0.0
O365 O 0.94444 0.85933 0.02679 0.0
O366 O 0.90589 0.07087 0.97866 0.0
O367 O 0.8984 0.06899 0.03877 0.0
C368 C 0.11398 0.02768 0.09395 0.0
O369 O 0.14799 0.90977 0.99756 0.0
O370 O 0.14002 0.92543 0.05583 0.0
O371 O 0.94582 0.93557 0.90737 0.0
C372 C 0.09562 0.16813 0.03352 0.0
O373 O 0.11365 0.09422 0.92635 0.0
C374 C 0.92101 0.96552 0.08987 0.0
O375 O 0.99079 0.08233 0.9329 0.0
C376 C 0.94251 0.84249 0.99602 0.0
O377 O 0.07727 0.91352 0.92886 0.0
C378 C 0.99771 0.08305 0.10391 0.0
O379 O 0.10952 0.0635 0.09298 0.0
O380 O 0.09375 0.00741 0.07329 0.0
C381 C 0.88614 0.07703 0.00714 0.0
O382 O 0.92457 0.92998 0.08442 0.0
O383 O 0.93696 0.98769 0.06754 0.0
C384 C 0.02607 0.91246 0.09339 0.0
O385 O 0.96438 0.0704 0.10283 0.0
O386 O 0.0188 0.07746 0.07628 0.0
C387 C 0.15926 0.90968 0.0304 0.0
O388 O 0.05913 0.92427 0.09898 0.0
O389 O 0.01171 0.91774 0.06222 0.0
C390 C 0.92476 0.96488 0.90613 0.0
O391 O 0.91726 0.98362 0.93635 0.0
C392 C 0.12276 0.11872 0.90267 0.0
O393 O 0.11382 0.15463 0.90824 0.0
C394 C 0.06914 0.26739 0.30508 0.0
C395 C 0.04346 0.29773 0.30859 0.0
C396 C 0.06042 0.2355 0.28396 0.0
C397 C 0.02595 0.23365 0.26559 0.0
C398 C 1.00011 0.26369 0.26973 0.0
C399 C 0.00886 0.29553 0.29064 0.0
C400 C 0.01593 0.20148 0.24135 0.0
C401 C 0.04146 0.17951 0.22384 0.0
C402 C 0.03089 0.15164 0.19529 0.0
C403 C 0.05651 0.14355 0.16715 0.0
C404 C 0.04627 0.12039 0.13797 0.0
C405 C 0.01027 0.10466 0.13628 0.0
H406 H 0.97554 0.13837 0.21672 0.0
C407 C 0.98534 0.11105 0.16554 0.0
C408 C 0.99556 0.13412 0.1948 0.0
H409 H 0.95755 0.09881 0.16561 0.0
H410 H 0.0961 0.26854 0.31841 0.0
H411 H 0.08071 0.2125 0.28217 0.0
H412 H 0.97336 0.26301 0.25594 0.0
H413 H 0.98876 0.31876 0.29237 0.0
H414 H 0.98641 0.19845 0.23497 0.0
H415 H 0.07115 0.18482 0.2275 0.0
H416 H 0.08412 0.15621 0.16707 0.0
H417 H 0.06638 0.11562 0.11654 0.0
C418 C 0.75547 0.02615 0.30777 0.0
C419 C 0.73115 0.05774 0.30751 0.0
C420 C 0.77895 0.01828 0.27806 0.0
C421 C 0.77912 0.04227 0.24748 0.0
C422 C 0.75424 0.07348 0.24701 0.0
C423 C 0.7306 0.08123 0.27672 0.0
C424 C 0.80377 0.03498 0.21521 0.0
C425 C 0.83487 0.01294 0.21622 0.0
C426 C 0.85751 0.00265 0.18355 0.0
C427 C 0.87532 0.96696 0.18268 0.0
C428 C 0.89598 0.9553 0.15226 0.0
C429 C 0.90008 0.97943 0.1222 0.0
H430 H 0.84954 0.05541 0.154 0.0
C431 C 0.88348 0.0158 0.12345 0.0
C432 C 0.86209 0.02727 0.15379 0.0
H433 H 0.88636 0.03502 0.1008 0.0
H434 H 0.75639 0.00747 0.33108 0.0
H435 H 0.79641 0.99305 0.27926 0.0
H436 H 0.75335 0.09219 0.22373 0.0
H437 H 0.71214 0.10583 0.27583 0.0
H438 H 0.79564 0.04795 0.18968 0.0
H439 H 0.84335 -9e-05 0.24154 0.0
H440 H 0.87259 0.94762 0.20537 0.0
H441 H 0.90887 0.92727 0.15235 0.0
C442 C 0.9309 0.73652 0.29023 0.0
C443 C 0.96016 0.7128 0.30231 0.0
C444 C 0.93853 0.76814 0.26851 0.0
C445 C 0.97566 0.7765 0.2583 0.0
C446 C 0.00489 0.75326 0.27102 0.0
C447 C 0.99725 0.72148 0.29231 0.0
C448 C 0.98519 0.80863 0.23398 0.0
C449 C 0.96224 0.82152 0.20773 0.0
C450 C 0.97516 0.84882 0.17972 0.0
C451 C 0.96195 0.84519 0.14404 0.0
C452 C 0.97733 0.86699 0.11606 0.0
C453 C 0.00564 0.89339 0.12327 0.0
H454 H 0.01193 0.88124 0.2148 0.0
C455 C 0.01714 0.89872 0.15942 0.0
C456 C 0.00199 0.87678 0.18738 0.0
H457 H 0.03867 0.91915 0.16601 0.0
H458 H 0.90204 0.73018 0.29713 0.0
H459 H 0.91536 0.78587 0.25979 0.0
H460 H 0.03373 0.75904 0.26354 0.0
H461 H 0.02038 0.70334 0.30045 0.0
H462 H 0.01373 0.81913 0.23525 0.0
H463 H 0.93506 0.80841 0.20391 0.0
H464 H 0.94115 0.824 0.13742 0.0
H465 H 0.96844 0.86167 0.08864 0.0
C466 C 0.29778 0.93174 0.28464 0.0
C467 C 0.29708 0.95283 0.31724 0.0
C468 C 0.27734 0.94403 0.25452 0.0
C469 C 0.25579 0.97772 0.25646 0.0
C470 C 0.25608 -0.00071 0.2887 0.0
C471 C 0.27624 0.98685 0.31885 0.0
C472 C 0.23309 0.9917 0.2255 0.0
C473 C 0.21877 0.96887 0.19957 0.0
C474 C 0.19372 0.98347 0.17057 0.0
C475 C 0.16618 0.9596 0.15597 0.0
C476 C 0.14065 0.97342 0.13038 0.0
C477 C 0.14245 0.01127 0.11859 0.0
H478 H 0.21814 0.03979 0.16715 0.0
C479 C 0.17098 0.03466 0.13216 0.0
C480 C 0.19644 0.02091 0.15764 0.0
H481 H 0.17352 0.06387 0.1233 0.0
H482 H 0.31382 0.90551 0.28265 0.0
H483 H 0.27874 0.92724 0.2298 0.0
H484 H 0.24002 0.02552 0.29084 0.0
H485 H 0.27519 0.00365 0.34361 0.0
H486 H 0.22563 0.02172 0.22576 0.0
H487 H 0.22297 0.9383 0.20116 0.0
H488 H 0.16366 0.93051 0.1652 0.0
H489 H 0.11887 0.95484 0.12086 0.0
C490 C 0.96565 0.75052 0.70832 0.0
C491 C 0.93495 0.72575 0.70937 0.0
C492 C 0.97357 0.77394 0.73798 0.0
C493 C 0.95042 0.77371 0.76919 0.0
C494 C 0.91894 0.74993 0.76959 0.0
C495 C 0.91115 0.72633 0.73994 0.0
C496 C 0.95988 0.79515 0.80283 0.0
C497 C 0.98468 0.82386 0.80382 0.0
C498 C 0.99879 0.84138 0.83793 0.0
C499 C 0.01916 0.87531 0.83553 0.0
C500 C 0.03609 0.89095 0.86623 0.0
C501 C 0.03291 0.87298 0.90009 0.0
H502 H 0.98086 0.79697 0.87524 0.0
C503 C 0.01198 0.83947 0.90277 0.0
C504 C 0.99526 0.82368 0.87205 0.0
H505 H 0.00938 0.82476 0.92844 0.0
H506 H 0.98422 0.75093 0.68489 0.0
H507 H 0.99863 0.79094 0.73656 0.0
H508 H 0.90067 0.74904 0.79323 0.0
H509 H 0.887 0.70789 0.74125 0.0
H510 H 0.94606 0.78626 0.82769 0.0
H511 H 0.99586 0.83501 0.77858 0.0
H512 H 0.02258 0.88949 0.80965 0.0
H513 H 0.05187 0.91697 0.86336 0.0
C514 C 0.33206 0.04037 0.73514 0.0
C515 C 0.33225 0.0063 0.71501 0.0
C516 C 0.2996 0.05281 0.75324 0.0
C517 C 0.26647 0.03135 0.75168 0.0
C518 C 0.26655 0.99754 0.73113 0.0
C519 C 0.29904 0.98518 0.71287 0.0
C520 C 0.23281 0.04138 0.77404 0.0
C521 C 0.22543 0.07683 0.78651 0.0
C522 C 0.19554 0.08595 0.81373 0.0
C523 C 0.18317 0.12382 0.81762 0.0
C524 C 0.1584 0.13432 0.84567 0.0
C525 C 0.14579 0.10717 0.87073 0.0
H526 H 0.1913 0.02927 0.83682 0.0
C527 C 0.15719 0.06905 0.86617 0.0
C528 C 0.18185 0.05855 0.83812 0.0
H529 H 0.14802 0.0474 0.885 0.0
H530 H 0.35743 0.05687 0.73781 0.0
H531 H 0.30126 0.07832 0.7697 0.0
H532 H 0.24161 0.98019 0.72982 0.0
H533 H 0.29857 0.95853 0.69797 0.0
H534 H 0.21382 0.01844 0.78072 0.0
H535 H 0.24231 0.10036 0.77693 0.0
H536 H 0.19337 0.14557 0.79937 0.0
H537 H 0.15002 0.1639 0.84828 0.0
C538 C 0.03307 0.28504 0.72705 0.0
C539 C 0.06733 0.29289 0.70948 0.0
C540 C 0.03178 0.25986 0.75625 0.0
C541 C 0.06453 0.2413 0.76809 0.0
C542 C 0.09849 0.24803 0.74989 0.0
C543 C 0.09997 0.2739 0.72114 0.0
C544 C 0.06325 0.21384 0.79852 0.0
C545 C 0.04178 0.22029 0.82816 0.0
C546 C 0.03686 0.19247 0.85792 0.0
C547 C 0.02771 0.20602 0.89281 0.0
C548 C 0.01803 0.18085 0.92049 0.0
C549 C 0.01643 0.14155 0.91358 0.0
H550 H 0.04357 0.1416 0.82465 0.0
C551 C 0.02689 0.12778 0.87897 0.0
C552 C 0.03721 0.15299 0.85141 0.0
H553 H 0.0261 0.09762 0.87287 0.0
H554 H 0.00714 0.29824 0.71833 0.0
H555 H 0.00495 0.25432 0.76908 0.0
H556 H 0.12399 0.23365 0.75823 0.0
H557 H 0.12661 0.27893 0.70775 0.0
H558 H 0.08103 0.18862 0.7969 0.0
H559 H 0.02716 0.24744 0.83095 0.0
H560 H 0.02715 0.23631 0.89847 0.0
H561 H 0.01024 0.19241 0.94685 0.0
C562 C 0.73027 0.96909 0.71511 0.0
C563 C 0.70993 0.00146 0.70438 0.0
C564 C 0.76201 0.97251 0.7368 0.0
C565 C 0.77429 0.00855 0.74837 0.0
C566 C 0.75414 0.04097 0.73735 0.0
C567 C 0.7223 0.03751 0.71556 0.0
C568 C 0.80537 0.01282 0.77487 0.0
C569 C 0.83217 0.98605 0.77972 0.0
C570 C 0.85909 0.98561 0.81053 0.0
C571 C 0.88815 0.95834 0.81002 0.0
C572 C 0.91075 0.95281 0.84045 0.0
C573 C 0.90474 0.97444 0.87222 0.0
H574 H 0.83208 0.02952 0.8439 0.0
C575 C 0.87703 0.0031 0.87218 0.0
C576 C 0.85432 0.00855 0.8418 0.0
H577 H 0.8717 0.02031 0.89622 0.0
H578 H 0.72086 0.94089 0.70768 0.0
H579 H 0.77564 0.94664 0.74573 0.0
H580 H 0.76256 0.06902 0.74631 0.0
H581 H 0.70669 0.06289 0.70832 0.0
H582 H 0.8053 0.03854 0.79127 0.0
H583 H 0.83385 0.96219 0.76089 0.0
H584 H 0.89255 0.94021 0.78644 0.0
H585 H 0.93199 0.9306 0.83948 0.0
C586 C 0.27141 0.35588 0.13866 0.0
C587 C 0.27828 0.39258 0.12544 0.0
C588 C 0.24488 0.33268 0.12206 0.0
C589 C 0.22456 0.34575 0.09186 0.0
C590 C 0.23213 0.38204 0.07807 0.0
C591 C 0.25847 0.40541 0.09492 0.0
C592 C 0.19652 0.32141 0.07347 0.0
C593 C 0.17591 0.29572 0.09168 0.0
C594 C 0.15063 0.26755 0.07435 0.0
C595 C 0.12674 0.24643 0.09689 0.0
C596 C 0.1068 0.21564 0.08308 0.0
C597 C 0.11035 0.20512 0.04629 0.0
H598 H 0.17067 0.27359 0.01861 0.0
C599 C 0.13227 0.22774 0.02314 0.0
C600 C 0.15238 0.25852 0.03701 0.0
H601 H 0.13569 0.2204 0.99467 0.0
H602 H 0.28649 0.34525 0.16201 0.0
H603 H 0.24077 0.30434 0.13265 0.0
H604 H 0.21723 0.39255 0.05456 0.0
H605 H 0.26326 0.43359 0.08418 0.0
H606 H 0.19248 0.32558 0.04458 0.0
H607 H 0.17808 0.29467 0.12111 0.0
H608 H 0.12467 0.25276 0.1257 0.0
H609 H 0.08997 0.19903 0.10168 0.0
C610 C 0.3288 0.70898 0.12702 0.0
C611 C 0.35962 0.71559 0.14966 0.0
C612 C 0.31003 0.73928 0.11061 0.0
C613 C 0.32162 0.77697 0.11662 0.0
C614 C 0.35258 0.78354 0.1391 0.0
C615 C 0.37158 0.75314 0.15528 0.0
C616 C 0.29989 0.80992 0.10258 0.0
C617 C 0.27898 0.80803 0.07228 0.0
C618 C 0.25225 0.83836 0.06105 0.0
C619 C 0.236 0.86399 0.08626 0.0
C620 C 0.20702 0.88847 0.0758 0.0
C621 C 0.19349 0.88785 0.03999 0.0
H622 H 0.25166 0.81933 0.00501 0.0
C623 C 0.2109 0.8635 0.01443 0.0
C624 C 0.23979 0.83888 0.02494 0.0
H625 H 0.20119 0.86222 0.98663 0.0
H626 H 0.31872 0.68035 0.12263 0.0
H627 H 0.28555 0.73309 0.09446 0.0
H628 H 0.36179 0.81229 0.14455 0.0
H629 H 0.3951 0.75899 0.17287 0.0
H630 H 0.30109 0.83632 0.11795 0.0
H631 H 0.28085 0.78283 0.05513 0.0
H632 H 0.24409 0.864 0.11454 0.0
H633 H 0.19428 0.90687 0.09619 0.0
C634 C 0.67041 0.25753 0.95883 0.0
C635 C 0.68034 0.29517 0.9672 0.0
C636 C 0.69144 0.22697 0.97222 0.0
C637 C 0.72302 0.23352 0.99408 0.0
C638 C 0.73173 0.27107 0.00384 0.0
C639 C 0.71084 0.30159 0.99031 0.0
C640 C 0.74857 0.20234 0.00584 0.0
C641 C 0.75402 0.17019 0.98628 0.0
C642 C 0.78513 0.14292 0.99353 0.0
C643 C 0.80117 0.12299 0.96407 0.0
C644 C 0.83314 0.10041 0.96879 0.0
C645 C 0.8495 0.09676 0.00326 0.0
H646 H 0.78776 0.15153 0.05198 0.0
C647 C 0.832 0.11465 0.03325 0.0
C648 C 0.80015 0.1376 0.02844 0.0
H649 H 0.84368 0.11212 0.06023 0.0
H650 H 0.64695 0.25183 0.94111 0.0
H651 H 0.68312 0.19839 0.96502 0.0
H652 H 0.75572 0.27695 0.02084 0.0
H653 H 0.71916 0.3303 0.99713 0.0
H654 H 0.76669 0.20821 0.02877 0.0
H655 H 0.7384 0.166 0.96137 0.0
H656 H 0.78991 0.12618 0.93697 0.0
H657 H 0.84561 0.08662 0.94516 0.0
C658 C 0.73328 0.67208 0.94225 0.0
C659 C 0.70113 0.69272 0.95312 0.0
C660 C 0.76826 0.68028 0.95733 0.0
C661 C 0.77168 0.7095 0.98342 0.0
C662 C 0.73913 0.72859 0.99556 0.0
C663 C 0.70432 0.72053 0.9804 0.0
C664 C 0.80849 0.72312 0.99684 0.0
C665 C 0.84071 0.71989 0.97758 0.0
C666 C 0.87353 0.74451 0.98497 0.0
C667 C 0.89514 0.75695 0.95539 0.0
C668 C 0.92029 0.78686 0.95958 0.0
C669 C 0.9245 0.80474 0.99359 0.0
H670 H 0.86606 0.74921 0.04351 0.0
C671 C 0.90623 0.78922 0.02403 0.0
C672 C 0.88099 0.75932 0.01979 0.0
H673 H 0.90941 0.80179 0.05077 0.0
H674 H 0.73147 0.65032 0.9214 0.0
H675 H 0.79246 0.66411 0.94802 0.0
H676 H 0.74082 0.75106 0.01575 0.0
H677 H 0.67999 0.73681 0.98932 0.0
H678 H 0.80766 0.74153 0.02064 0.0
H679 H 0.841 0.70412 0.95214 0.0
H680 H 0.89051 0.74555 0.92838 0.0
H681 H 0.93443 0.79761 0.93564 0.0
loop_
_geom_bond_atom_site_label_1
_geom_bond_atom_site_label_2
_geom_bond_distance
_geom_bond_site_symmetry_2
_ccdc_geom_bond_type
C0 C1 1.560 . S
C0 H61 0.959 . S
C0 H62 0.959 . S
C0 H63 0.960 . S
C1 C0 1.560 . S
C1 O56 1.426 . S
C1 H60 0.980 . S
C2 C3 1.407 1_455 S
C2 C7 1.418 . S
C2 O56 1.334 . S
C3 C2 1.407 1_655 S
C3 C4 1.360 . S
C3 H64 0.929 . S
C4 C3 1.360 . S
C4 C5 1.401 1_655 S
C4 C8 1.527 . S
C5 C4 1.401 1_455 S
C5 C6 1.405 . S
C5 C38 1.587 1_455 S
C6 C5 1.405 . S
C6 C7 1.332 . S
C6 C9 1.496 . S
C7 C2 1.418 . S
C7 C6 1.332 . S
C7 H65 0.929 . S
C8 C4 1.527 . S
C8 H66 0.959 . S
C8 H67 0.961 . S
C8 H68 0.961 . S
C9 C6 1.496 . S
C9 H69 0.960 . S
C9 H70 0.960 . S
C9 H71 0.961 . S
C10 C11 1.517 . S
C10 H73 0.961 1_655 S
C10 H74 0.960 . S
C10 H75 0.959 . S
C11 C10 1.517 . S
C11 O59 1.468 . S
C11 H72 0.980 1_655 S
C12 C13 1.349 1_655 S
C12 C17 1.367 . S
C12 O59 1.408 . S
C13 C12 1.349 1_455 S
C13 C14 1.407 . S
C13 H76 0.930 . S
C14 C13 1.407 . S
C14 C15 1.449 1_455 S
C14 C18 1.535 . S
C15 C14 1.449 1_655 S
C15 C16 1.384 . S
C15 C40 1.553 . S
C16 C15 1.384 . S
C16 C17 1.364 . S
C16 C19 1.450 . S
C17 C12 1.367 . S
C17 C16 1.364 . S
C17 H77 0.931 . S
C18 C14 1.535 . S
C18 H78 0.959 . S
C18 H79 0.961 . S
C18 H80 0.959 . S
C19 C16 1.450 . S
C19 H81 0.960 . S
C19 H82 0.960 . S
C19 H83 0.960 . S
C20 C21 1.309 1_655 S
C20 C25 1.304 . S
C20 O58 1.435 . S
C21 C20 1.309 1_455 S
C21 C22 1.476 . S
C21 H85 0.930 . S
C22 C21 1.476 . S
C22 C23 1.400 1_455 S
C22 C26 1.567 . S
C23 C22 1.400 1_655 S
C23 C24 1.373 . S
C23 C45 1.432 . S
C24 C23 1.373 . S
C24 C25 1.339 . S
C24 C27 1.530 . S
C25 C20 1.304 . S
C25 C24 1.339 . S
C25 H86 0.930 . S
C26 C22 1.567 . S
C26 H87 0.961 . S
C26 H88 0.960 . S
C26 H89 0.958 . S
C27 C24 1.530 . S
C27 H90 0.961 . S
C27 H91 0.960 . S
C27 H92 0.960 . S
C28 C29 1.530 . S
C28 H94 0.961 . S
C28 H95 0.961 . S
C28 H96 0.959 . S
C29 C28 1.530 . S
C29 O57 1.412 . S
C29 H93 0.980 . S
C30 C31 1.288 . S
C30 C35 1.377 1_455 S
C30 O57 1.393 . S
C31 C30 1.288 . S
C31 C32 1.369 . S
C31 H97 0.932 . S
C32 C31 1.369 . S
C32 C33 1.398 . S
C32 C36 1.527 . S
C33 C32 1.398 . S
C33 C34 1.380 1_455 S
C33 C47 1.497 . S
C34 C33 1.380 1_655 S
C34 C35 1.383 . S
C34 C37 1.603 . S
C35 C30 1.377 1_655 S
C35 C34 1.383 . S
C35 H98 0.929 . S
C36 C32 1.527 . S
C36 H99 0.961 . S
C36 H100 0.959 . S
C36 H101 0.959 . S
C37 C34 1.603 . S
C37 H102 0.960 . S
C37 H103 0.962 . S
C37 H104 0.961 . S
C38 C5 1.587 1_655 S
C38 C39 1.360 . S
C38 C51 1.412 . S
C39 C38 1.360 . S
C39 C40 1.365 . S
C39 H105 0.929 . S
C40 C15 1.553 . S
C40 C39 1.365 . S
C40 C41 1.404 . S
C41 C40 1.404 . S
C41 C42 1.395 . S
C41 C52 1.451 . S
C42 C41 1.395 . S
C42 C43 1.322 . S
C42 H106 0.930 . S
C43 C42 1.322 . S
C43 C44 1.459 . S
C43 H107 0.929 . S
C44 C43 1.459 . S
C44 C45 1.445 . S
C44 C53 1.395 . S
C45 C23 1.432 . S
C45 C44 1.445 . S
C45 C46 1.367 1_655 S
C46 C45 1.367 1_455 S
C46 C47 1.440 . S
C46 H108 0.932 . S
C47 C33 1.497 . S
C47 C46 1.440 . S
C47 C48 1.360 . S
C48 C47 1.360 . S
C48 C49 1.401 . S
C48 C53 1.446 1_455 S
C49 C48 1.401 . S
C49 C50 1.347 . S
C49 H109 0.929 . S
C50 C49 1.347 . S
C50 C51 1.455 1_455 S
C50 H110 0.930 . S
C51 C38 1.412 . S
C51 C50 1.455 1_655 S
C51 C52 1.331 . S
C52 C41 1.451 . S
C52 C51 1.331 . S
C52 C53 1.497 . S
C53 C44 1.395 . S
C53 C48 1.446 1_655 S
C53 C52 1.497 . S
C54 C55 1.582 1_655 S
C54 H111 0.972 . S
C54 H112 0.959 . S
C54 H113 0.958 . S
C55 C54 1.582 1_455 S
C55 O58 1.458 1_455 S
C55 H84 0.980 . S
O56 C1 1.426 . S
O56 C2 1.334 . S
O57 C29 1.412 . S
O57 C30 1.393 . S
O58 C20 1.435 . S
O58 C55 1.458 1_655 S
O59 C11 1.468 . S
O59 C12 1.408 . S
H60 C1 0.980 . S
H61 C0 0.959 . S
H62 C0 0.959 . S
H63 C0 0.960 . S
H64 C3 0.929 . S
H65 C7 0.929 . S
H66 C8 0.959 . S
H67 C8 0.961 . S
H68 C8 0.961 . S
H69 C9 0.960 . S
H70 C9 0.960 . S
H71 C9 0.961 . S
H72 C11 0.980 1_455 S
H73 C10 0.961 1_455 S
H74 C10 0.960 . S
H75 C10 0.959 . S
H76 C13 0.930 . S
H77 C17 0.931 . S
H78 C18 0.959 . S
H79 C18 0.961 . S
H80 C18 0.959 . S
H81 C19 0.960 . S
H82 C19 0.960 . S
H83 C19 0.960 . S
H84 C55 0.980 . S
H85 C21 0.930 . S
H86 C25 0.930 . S
H87 C26 0.961 . S
H88 C26 0.960 . S
H89 C26 0.958 . S
H90 C27 0.961 . S
H91 C27 0.960 . S
H92 C27 0.960 . S
H93 C29 0.980 . S
H94 C28 0.961 . S
H95 C28 0.961 . S
H96 C28 0.959 . S
H97 C31 0.932 . S
H98 C35 0.929 . S
H99 C36 0.961 . S
H100 C36 0.959 . S
H101 C36 0.959 . S
H102 C37 0.960 . S
H103 C37 0.962 . S
H104 C37 0.961 . S
H105 C39 0.929 . S
H106 C42 0.930 . S
H107 C43 0.929 . S
H108 C46 0.932 . S
H109 C49 0.929 . S
H110 C50 0.930 . S
H111 C54 0.972 . S
H112 C54 0.959 . S
H113 C54 0.958 . S
C114 C115 1.560 . S
C114 H175 0.959 . S
C114 H176 0.959 . S
C114 H177 0.960 . S
C115 C114 1.560 . S
C115 O170 1.426 . S
C115 H174 0.980 . S
C116 C117 1.407 1_545 S
C116 C121 1.418 . S
C116 O170 1.334 . S
C117 C116 1.407 1_565 S
C117 C118 1.360 . S
C117 H178 0.929 . S
C118 C117 1.360 . S
C118 C119 1.401 1_565 S
C118 C122 1.527 . S
C119 C118 1.401 1_545 S
C119 C120 1.405 . S
C119 C152 1.587 1_545 S
C120 C119 1.405 . S
C120 C121 1.332 . S
C120 C123 1.496 . S
C121 C116 1.418 . S
C121 C120 1.332 . S
C121 H179 0.929 . S
C122 C118 1.527 . S
C122 H180 0.959 . S
C122 H181 0.961 . S
C122 H182 0.961 . S
C123 C120 1.496 . S
C123 H183 0.960 . S
C123 H184 0.960 . S
C123 H185 0.961 . S
C124 C125 1.517 . S
C124 H187 0.972 . S
C124 H188 0.960 . S
C124 H189 0.959 . S
C125 C124 1.517 . S
C125 O173 1.468 . S
C125 H186 0.980 1_565 S
C126 C127 1.362 . S
C126 C131 1.367 . S
C126 O173 1.408 . S
C127 C126 1.362 . S
C127 C128 1.405 1_565 S
C127 H190 0.920 1_565 S
C128 C127 1.405 1_545 S
C128 C129 1.449 1_545 S
C128 C132 1.535 . S
C129 C128 1.449 1_565 S
C129 C130 1.384 . S
C129 C154 1.553 . S
C130 C129 1.384 . S
C130 C131 1.364 . S
C130 C133 1.450 . S
C131 C126 1.367 . S
C131 C130 1.364 . S
C131 H191 0.931 . S
C132 C128 1.535 . S
C132 H192 0.959 . S
C132 H193 0.961 . S
C132 H194 0.959 . S
C133 C130 1.450 . S
C133 H195 0.960 . S
C133 H196 0.960 . S
C133 H197 0.960 . S
C134 C135 1.309 1_565 S
C134 C139 1.304 . S
C134 O172 1.435 . S
C135 C134 1.309 1_545 S
C135 C136 1.476 . S
C135 H199 0.930 . S
C136 C135 1.476 . S
C136 C137 1.400 1_545 S
C136 C140 1.567 . S
C137 C136 1.400 1_565 S
C137 C138 1.373 . S
C137 C159 1.432 . S
C138 C137 1.373 . S
C138 C139 1.339 . S
C138 C141 1.530 . S
C139 C134 1.304 . S
C139 C138 1.339 . S
C139 H200 0.930 . S
C140 C136 1.567 . S
C140 H201 0.961 . S
C140 H202 0.960 . S
C140 H203 0.958 . S
C141 C138 1.530 . S
C141 H204 0.961 . S
C141 H205 0.960 . S
C141 H206 0.960 . S
C142 C143 1.530 . S
C142 H208 0.961 . S
C142 H209 0.961 . S
C142 H210 0.959 . S
C143 C142 1.530 . S
C143 O171 1.412 . S
C143 H207 0.980 . S
C144 C145 1.288 . S
C144 C149 1.377 1_545 S
C144 O171 1.393 . S
C145 C144 1.288 . S
C145 C146 1.369 . S
C145 H211 0.932 . S
C146 C145 1.369 . S
C146 C147 1.398 . S
C146 C150 1.527 . S
C147 C146 1.398 . S
C147 C148 1.380 1_545 S
C147 C161 1.497 . S
C148 C147 1.380 1_565 S
C148 C149 1.383 . S
C148 C151 1.603 . S
C149 C144 1.377 1_565 S
C149 C148 1.383 . S
C149 H212 0.929 . S
C150 C146 1.527 . S
C150 H213 0.961 . S
C150 H214 0.959 . S
C150 H215 0.959 . S
C151 C148 1.603 . S
C151 H216 0.960 . S
C151 H217 0.962 . S
C151 H218 0.961 . S
C152 C119 1.587 1_565 S
C152 C153 1.360 . S
C152 C165 1.412 . S
C153 C152 1.360 . S
C153 C154 1.365 . S
C153 H219 0.929 . S
C154 C129 1.553 . S
C154 C153 1.365 . S
C154 C155 1.404 . S
C155 C154 1.404 . S
C155 C156 1.395 . S
C155 C166 1.451 . S
C156 C155 1.395 . S
C156 C157 1.322 . S
C156 H220 0.930 . S
C157 C156 1.322 . S
C157 C158 1.459 . S
C157 H221 0.929 . S
C158 C157 1.459 . S
C158 C159 1.445 . S
C158 C167 1.395 . S
C159 C137 1.432 . S
C159 C158 1.445 . S
C159 C160 1.370 . S
C160 C159 1.370 . S
C160 C161 1.438 1_565 S
C160 H222 0.930 . S
C161 C147 1.497 . S
C161 C160 1.438 1_545 S
C161 C162 1.360 1_545 S
C162 C161 1.360 1_565 S
C162 C163 1.401 1_565 S
C162 C167 1.446 . S
C163 C162 1.401 1_545 S
C163 C164 1.347 . S
C163 H223 0.929 . S
C164 C163 1.347 . S
C164 C165 1.455 1_545 S
C164 H224 0.930 . S
C165 C152 1.412 . S
C165 C164 1.455 1_565 S
C165 C166 1.331 . S
C166 C155 1.451 . S
C166 C165 1.331 . S
C166 C167 1.497 . S
C167 C158 1.395 . S
C167 C162 1.446 . S
C167 C166 1.497 . S
C168 C169 1.567 1_565 S
C168 H225 0.962 . S
C168 H226 0.959 . S
C168 H227 0.958 . S
C169 C168 1.567 1_545 S
C169 O172 1.435 1_545 S
C169 H198 0.989 . S
O170 C115 1.426 . S
O170 C116 1.334 . S
O171 C143 1.412 . S
O171 C144 1.393 . S
O172 C134 1.435 . S
O172 C169 1.435 1_565 S
O173 C125 1.468 . S
O173 C126 1.408 . S
H174 C115 0.980 . S
H175 C114 0.959 . S
H176 C114 0.959 . S
H177 C114 0.960 . S
H178 C117 0.929 . S
H179 C121 0.929 . S
H180 C122 0.959 . S
H181 C122 0.961 . S
H182 C122 0.961 . S
H183 C123 0.960 . S
H184 C123 0.960 . S
H185 C123 0.961 . S
H186 C125 0.980 1_545 S
H187 C124 0.972 . S
H188 C124 0.960 . S
H189 C124 0.959 . S
H190 C127 0.920 1_545 S
H191 C131 0.931 . S
H192 C132 0.959 . S
H193 C132 0.961 . S
H194 C132 0.959 . S
H195 C133 0.960 . S
H196 C133 0.960 . S
H197 C133 0.960 . S
H198 C169 0.989 . S
H199 C135 0.930 . S
H200 C139 0.930 . S
H201 C140 0.961 . S
H202 C140 0.960 . S
H203 C140 0.958 . S
H204 C141 0.961 . S
H205 C141 0.960 . S
H206 C141 0.960 . S
H207 C143 0.980 . S
H208 C142 0.961 . S
H209 C142 0.961 . S
H210 C142 0.959 . S
H211 C145 0.932 . S
H212 C149 0.929 . S
H213 C150 0.961 . S
H214 C150 0.959 . S
H215 C150 0.959 . S
H216 C151 0.960 . S
H217 C151 0.962 . S
H218 C151 0.961 . S
H219 C153 0.929 . S
H220 C156 0.930 . S
H221 C157 0.929 . S
H222 C160 0.930 . S
H223 C163 0.929 . S
H224 C164 0.930 . S
H225 C168 0.962 . S
H226 C168 0.959 . S
H227 C168 0.958 . S
C228 C229 1.542 1_556 S
C228 H289 0.959 . S
C228 H290 0.959 . S
C228 H291 0.960 . S
C229 C228 1.542 1_554 S
C229 O284 1.412 1_554 S
C229 H288 0.997 . S
C230 C231 1.407 1_556 S
C230 C235 1.418 . S
C230 O284 1.334 . S
C231 C230 1.407 1_554 S
C231 C232 1.360 . S
C231 H292 0.929 . S
C232 C231 1.360 . S
C232 C233 1.401 . S
C232 C236 1.527 . S
C233 C232 1.401 . S
C233 C234 1.405 1_554 S
C233 C266 1.587 . S
C234 C233 1.405 1_556 S
C234 C235 1.332 . S
C234 C237 1.496 . S
C235 C230 1.418 . S
C235 C234 1.332 . S
C235 H293 0.929 . S
C236 C232 1.527 . S
C236 H294 0.959 . S
C236 H295 0.961 . S
C236 H296 0.961 . S
C237 C234 1.496 . S
C237 H297 0.960 . S
C237 H298 0.960 . S
C237 H299 0.961 . S
C238 C239 1.517 . S
C238 H301 0.961 . S
C238 H302 0.960 . S
C238 H303 0.959 . S
C239 C238 1.517 . S
C239 O287 1.468 . S
C239 H300 0.980 . S
C240 C241 1.349 . S
C240 C245 1.367 . S
C240 O287 1.408 . S
C241 C240 1.349 . S
C241 C242 1.407 . S
C241 H304 0.930 . S
C242 C241 1.407 . S
C242 C243 1.449 . S
C242 C246 1.535 1_554 S
C243 C242 1.449 . S
C243 C244 1.384 . S
C243 C268 1.553 . S
C244 C243 1.384 . S
C244 C245 1.364 . S
C244 C247 1.450 . S
C245 C240 1.367 . S
C245 C244 1.364 . S
C245 H305 0.931 . S
C246 C242 1.535 1_556 S
C246 H306 0.959 . S
C246 H307 0.961 . S
C246 H308 0.959 . S
C247 C244 1.450 . S
C247 H309 0.960 . S
C247 H310 0.960 . S
C247 H311 0.960 . S
C248 C249 1.309 . S
C248 C253 1.304 . S
C248 O286 1.435 . S
C249 C248 1.309 . S
C249 C250 1.476 . S
C249 H313 0.930 1_554 S
C250 C249 1.476 . S
C250 C251 1.400 . S
C250 C254 1.567 1_554 S
C251 C250 1.400 . S
C251 C252 1.373 . S
C251 C273 1.432 . S
C252 C251 1.373 . S
C252 C253 1.339 . S
C252 C255 1.530 . S
C253 C248 1.304 . S
C253 C252 1.339 . S
C253 H314 0.930 . S
C254 C250 1.567 1_556 S
C254 H315 0.961 . S
C254 H316 0.960 . S
C254 H317 0.958 . S
C255 C252 1.530 . S
C255 H318 0.961 . S
C255 H319 0.960 . S
C255 H320 0.960 . S
C256 C257 1.530 1_556 S
C256 H322 0.947 1_556 S
C256 H323 0.961 . S
C256 H324 0.959 . S
C257 C256 1.530 1_554 S
C257 O285 1.412 1_554 S
C257 H321 0.980 . S
C258 C259 1.288 . S
C258 C263 1.377 1_556 S
C258 O285 1.393 . S
C259 C258 1.288 . S
C259 C260 1.369 . S
C259 H325 0.932 . S
C260 C259 1.369 . S
C260 C261 1.398 1_556 S
C260 C264 1.527 . S
C261 C260 1.398 1_554 S
C261 C262 1.380 . S
C261 C275 1.497 . S
C262 C261 1.380 . S
C262 C263 1.383 . S
C262 C265 1.603 . S
C263 C258 1.377 1_554 S
C263 C262 1.383 . S
C263 H326 0.929 . S
C264 C260 1.527 . S
C264 H327 0.961 . S
C264 H328 0.959 . S
C264 H329 0.959 . S
C265 C262 1.603 . S
C265 H330 0.960 . S
C265 H331 0.962 . S
C265 H332 0.961 . S
C266 C233 1.587 . S
C266 C267 1.360 . S
C266 C279 1.412 . S
C267 C266 1.360 . S
C267 C268 1.365 . S
C267 H333 0.929 . S
C268 C243 1.553 . S
C268 C267 1.365 . S
C268 C269 1.404 . S
C269 C268 1.404 . S
C269 C270 1.395 . S
C269 C280 1.451 . S
C270 C269 1.395 . S
C270 C271 1.322 . S
C270 H334 0.930 . S
C271 C270 1.322 . S
C271 C272 1.459 . S
C271 H335 0.929 . S
C272 C271 1.459 . S
C272 C273 1.445 . S
C272 C281 1.395 . S
C273 C251 1.432 . S
C273 C272 1.445 . S
C273 C274 1.370 . S
C274 C273 1.370 . S
C274 C275 1.438 . S
C274 H336 0.930 . S
C275 C261 1.497 . S
C275 C274 1.438 . S
C275 C276 1.360 . S
C276 C275 1.360 . S
C276 C277 1.401 . S
C276 C281 1.446 . S
C277 C276 1.401 . S
C277 C278 1.347 . S
C277 H337 0.929 . S
C278 C277 1.347 . S
C278 C279 1.455 . S
C278 H338 0.930 . S
C279 C266 1.412 . S
C279 C278 1.455 . S
C279 C280 1.331 . S
C280 C269 1.451 . S
C280 C279 1.331 . S
C280 C281 1.497 . S
C281 C272 1.395 . S
C281 C276 1.446 . S
C281 C280 1.497 . S
C282 C283 1.582 . S
C282 H339 0.962 . S
C282 H340 0.959 . S
C282 H341 0.958 . S
C283 C282 1.582 . S
C283 O286 1.458 . S
C283 H312 0.980 . S
O284 C229 1.412 1_556 S
O284 C230 1.334 . S
O285 C257 1.412 1_556 S
O285 C258 1.393 . S
O286 C248 1.435 . S
O286 C283 1.458 . S
O287 C239 1.468 . S
O287 C240 1.408 . S
H288 C229 0.997 . S
H289 C228 0.959 . S
H290 C228 0.959 . S
H291 C228 0.960 . S
H292 C231 0.929 . S
H293 C235 0.929 . S
H294 C236 0.959 . S
H295 C236 0.961 . S
H296 C236 0.961 . S
H297 C237 0.960 . S
H298 C237 0.960 . S
H299 C237 0.961 . S
H300 C239 0.980 . S
H301 C238 0.961 . S
H302 C238 0.960 . S
H303 C238 0.959 . S
H304 C241 0.930 . S
H305 C245 0.931 . S
H306 C246 0.959 . S
H307 C246 0.961 . S
H308 C246 0.959 . S
H309 C247 0.960 . S
H310 C247 0.960 . S
H311 C247 0.960 . S
H312 C283 0.980 . S
H313 C249 0.930 1_556 S
H314 C253 0.930 . S
H315 C254 0.961 . S
H316 C254 0.960 . S
H317 C254 0.958 . S
H318 C255 0.961 . S
H319 C255 0.960 . S
H320 C255 0.960 . S
H321 C257 0.980 . S
H322 C256 0.947 1_554 S
H323 C256 0.961 . S
H324 C256 0.959 . S
H325 C259 0.932 . S
H326 C263 0.929 . S
H327 C264 0.961 . S
H328 C264 0.959 . S
H329 C264 0.959 . S
H330 C265 0.960 . S
H331 C265 0.962 . S
H332 C265 0.961 . S
H333 C267 0.929 . S
H334 C270 0.930 . S
H335 C271 0.929 . S
H336 C274 0.930 . S
H337 C277 0.929 . S
H338 C278 0.930 . S
H339 C282 0.962 . S
H340 C282 0.959 . S
H341 C282 0.958 . S
Zn342 O344 1.933 1_556 S
Zn342 O362 1.985 . S
Zn342 O373 1.955 . S
Zn343 O344 1.911 . S
Zn343 O363 1.970 . S
Zn343 O379 1.945 . S
Zn343 O386 1.981 . S
O344 Zn342 1.933 1_554 S
O344 Zn343 1.911 . S
O344 H345 0.841 . S
H345 O344 0.841 . S
C346 O347 1.246 . S
C346 O375 1.276 1_455 S
O347 C346 1.246 . S
Zn348 O350 1.911 . S
Zn348 O365 1.970 . S
Zn348 O382 1.945 . S
Zn348 O389 1.981 . S
Zn349 O350 1.933 1_556 S
Zn349 O364 1.985 . S
Zn349 O371 1.955 . S
O350 Zn348 1.911 . S
O350 Zn349 1.933 1_554 S
O350 H351 0.841 1_565 S
H351 O350 0.841 1_545 S
Zn352 O353 1.933 1_556 S
Zn352 O366 1.985 . S
Zn352 O375 1.955 . S
O353 Zn352 1.933 1_554 S
O353 Zn354 1.911 . S
O353 H355 0.841 1_655 S
Zn354 O353 1.911 . S
Zn354 O367 1.970 . S
Zn354 O383 1.981 . S
Zn354 O385 1.945 . S
H355 O353 0.841 1_455 S
Zn356 O357 1.933 1_556 S
Zn356 O369 1.985 . S
Zn356 O377 1.955 . S
O357 Zn356 1.933 1_554 S
O357 H358 0.841 . S
O357 Zn359 1.911 . S
H358 O357 0.841 . S
Zn359 O357 1.911 . S
Zn359 O370 1.970 . S
Zn359 O380 1.981 . S
Zn359 O388 1.945 . S
C360 O361 1.246 1_455 S
C360 O377 1.276 . S
O361 C360 1.246 1_655 S
O362 Zn342 1.985 . S
O362 C372 1.245 1_556 S
O363 Zn343 1.970 . S
O363 C372 1.263 . S
O364 Zn349 1.985 . S
O364 C376 1.245 1_556 S
O365 Zn348 1.970 . S
O365 C376 1.263 . S
O366 Zn352 1.985 . S
O366 C381 1.245 1_556 S
O367 Zn354 1.970 . S
O367 C381 1.263 . S
C368 O379 1.262 . S
C368 O380 1.245 1_545 S
O369 Zn356 1.985 . S
O369 C387 1.245 1_556 S
O370 Zn359 1.970 . S
O370 C387 1.263 . S
O371 Zn349 1.955 . S
O371 C390 1.276 1_565 S
C372 O362 1.245 1_554 S
C372 O363 1.263 . S
O373 Zn342 1.955 . S
O373 C392 1.276 . S
C374 O382 1.262 1_545 S
C374 O383 1.245 . S
O375 C346 1.276 1_655 S
O375 Zn352 1.955 . S
C376 O364 1.245 1_554 S
C376 O365 1.263 . S
O377 Zn356 1.955 . S
O377 C360 1.276 . S
C378 O385 1.262 1_455 S
C378 O386 1.245 . S
O379 Zn343 1.945 . S
O379 C368 1.262 . S
O380 Zn359 1.981 . S
O380 C368 1.245 1_565 S
C381 O366 1.245 1_554 S
C381 O367 1.263 . S
O382 Zn348 1.945 . S
O382 C374 1.262 1_565 S
O383 Zn354 1.981 . S
O383 C374 1.245 . S
C384 O388 1.262 . S
C384 O389 1.245 1_455 S
O385 Zn354 1.945 . S
O385 C378 1.262 1_655 S
O386 Zn343 1.981 . S
O386 C378 1.245 . S
C387 O369 1.245 1_554 S
C387 O370 1.263 . S
O388 Zn359 1.945 . S
O388 C384 1.262 . S
O389 Zn348 1.981 . S
O389 C384 1.245 1_655 S
C390 O371 1.276 1_545 S
C390 O391 1.246 . S
O391 C390 1.246 . S
C392 O373 1.276 . S
C392 O393 1.246 1_545 S
O393 C392 1.246 1_565 S
C394 C395 1.386 . S
C394 C396 1.383 . S
C394 H410 0.951 . S
C395 C394 1.386 . S
C395 C399 1.383 1_455 S
C396 C394 1.383 . S
C396 C397 1.402 . S
C396 H411 0.951 . S
C397 C396 1.402 . S
C397 C398 1.375 1_455 S
C397 C400 1.481 . S
C398 C397 1.375 1_655 S
C398 C399 1.367 . S
C398 H412 0.951 . S
C399 C395 1.383 1_655 S
C399 C398 1.367 . S
C399 H413 0.950 . S
C400 C397 1.481 . S
C400 C401 1.297 . S
C400 H414 0.950 1_455 S
C401 C400 1.297 . S
C401 C402 1.479 . S
C401 H415 0.950 . S
C402 C401 1.479 . S
C402 C403 1.375 . S
C402 C408 1.404 . S
C403 C402 1.375 . S
C403 C404 1.369 . S
C403 H416 0.950 . S
C404 C403 1.369 . S
C404 C405 1.392 . S
C404 H417 0.951 . S
C405 C404 1.392 . S
C405 C407 1.384 . S
H406 C408 0.957 . S
C407 C405 1.384 . S
C407 C408 1.385 . S
C407 H409 0.950 1_455 S
C408 C402 1.404 . S
C408 H406 0.957 . S
C408 C407 1.385 . S
H409 C407 0.950 1_655 S
H410 C394 0.951 . S
H411 C396 0.951 . S
H412 C398 0.951 . S
H413 C399 0.950 . S
H414 C400 0.950 1_655 S
H415 C401 0.950 . S
H416 C403 0.950 . S
H417 C404 0.951 . S
C418 C419 1.386 . S
C418 C420 1.383 . S
C418 H434 0.951 . S
C419 C418 1.386 . S
C419 C423 1.383 . S
C420 C418 1.383 . S
C420 C421 1.401 1_545 S
C420 H435 0.951 . S
C421 C420 1.401 1_565 S
C421 C422 1.375 . S
C421 C424 1.481 . S
C422 C421 1.375 . S
C422 C423 1.367 1_565 S
C422 H436 0.952 . S
C423 C419 1.383 . S
C423 C422 1.367 1_545 S
C423 H437 0.949 1_545 S
C424 C421 1.481 . S
C424 C425 1.297 . S
C424 H438 0.951 . S
C425 C424 1.297 . S
C425 C426 1.479 . S
C425 H439 0.950 . S
C426 C425 1.479 . S
C426 C427 1.375 1_565 S
C426 C432 1.404 . S
C427 C426 1.375 1_545 S
C427 C428 1.369 . S
C427 H440 0.950 . S
C428 C427 1.369 . S
C428 C429 1.392 . S
C428 H441 0.951 . S
C429 C428 1.392 . S
C429 C431 1.384 . S
H430 C432 0.949 . S
C431 C429 1.384 . S
C431 C432 1.385 1_545 S
C431 H433 0.950 . S
C432 C426 1.404 . S
C432 H430 0.949 . S
C432 C431 1.385 1_565 S
H433 C431 0.950 . S
H434 C418 0.951 . S
H435 C420 0.951 . S
H436 C422 0.952 . S
H437 C423 0.949 1_565 S
H438 C424 0.951 . S
H439 C425 0.950 . S
H440 C427 0.950 . S
H441 C428 0.951 . S
C442 C443 1.386 1_655 S
C442 C444 1.383 . S
C442 H458 0.951 . S
C443 C442 1.386 1_455 S
C443 C447 1.383 . S
C444 C442 1.383 . S
C444 C445 1.402 1_655 S
C444 H459 0.951 . S
C445 C444 1.402 1_455 S
C445 C446 1.375 . S
C445 C448 1.481 . S
C446 C445 1.375 . S
C446 C447 1.367 . S
C446 H460 0.951 . S
C447 C443 1.383 . S
C447 C446 1.367 . S
C447 H461 0.950 . S
C448 C445 1.481 . S
C448 C449 1.297 1_455 S
C448 H462 0.950 . S
C449 C448 1.297 1_655 S
C449 C450 1.481 . S
C449 H463 0.950 . S
C450 C449 1.481 . S
C450 C451 1.389 . S
C450 C456 1.389 1_655 S
C451 C450 1.389 . S
C451 C452 1.369 . S
C451 H464 0.950 . S
C452 C451 1.369 . S
C452 C453 1.392 1_655 S
C452 H465 0.951 . S
C453 C452 1.392 1_455 S
C453 C455 1.384 . S
H454 C456 0.949 . S
C455 C453 1.384 . S
C455 C456 1.385 . S
C455 H457 0.950 . S
C456 C450 1.389 1_455 S
C456 H454 0.949 . S
C456 C455 1.385 . S
H457 C455 0.950 . S
H458 C442 0.951 . S
H459 C444 0.951 . S
H460 C446 0.951 . S
H461 C447 0.950 . S
H462 C448 0.950 . S
H463 C449 0.950 . S
H464 C451 0.950 . S
H465 C452 0.951 . S
C466 C467 1.386 . S
C466 C468 1.383 1_545 S
C466 H482 0.951 1_545 S
C467 C466 1.386 . S
C467 C471 1.383 . S
C468 C466 1.383 1_565 S
C468 C469 1.402 1_565 S
C468 H483 0.951 . S
C469 C468 1.402 1_545 S
C469 C470 1.375 . S
C469 C472 1.481 . S
C470 C469 1.375 . S
C470 C471 1.367 . S
C470 H484 0.951 . S
C471 C467 1.383 . S
C471 C470 1.367 . S
C471 H485 0.950 . S
C472 C469 1.481 . S
C472 C473 1.297 1_545 S
C472 H486 0.950 . S
C473 C472 1.297 1_565 S
C473 C474 1.479 . S
C473 H487 0.950 . S
C474 C473 1.479 . S
C474 C475 1.375 . S
C474 C480 1.401 1_565 S
C475 C474 1.375 . S
C475 C476 1.369 . S
C475 H488 0.950 . S
C476 C475 1.369 . S
C476 C477 1.392 . S
C476 H489 0.951 . S
C477 C476 1.392 . S
C477 C479 1.384 1_565 S
H478 C480 0.950 . S
C479 C477 1.384 1_545 S
C479 C480 1.386 . S
C479 H481 0.950 . S
C480 C474 1.401 1_545 S
C480 H478 0.950 . S
C480 C479 1.386 . S
H481 C479 0.950 . S
H482 C466 0.951 1_565 S
H483 C468 0.951 . S
H484 C470 0.951 . S
H485 C471 0.950 . S
H486 C472 0.950 . S
H487 C473 0.950 . S
H488 C475 0.950 . S
H489 C476 0.951 . S
C490 C491 1.386 . S
C490 C492 1.383 . S
C490 H506 0.951 . S
C491 C490 1.386 . S
C491 C495 1.383 1_455 S
C492 C490 1.383 . S
C492 C493 1.402 1_455 S
C492 H507 0.951 . S
C493 C492 1.402 1_655 S
C493 C494 1.375 . S
C493 C496 1.481 . S
C494 C493 1.375 . S
C494 C495 1.367 . S
C494 H508 0.951 . S
C495 C491 1.383 1_655 S
C495 C494 1.367 . S
C495 H509 0.950 . S
C496 C493 1.481 . S
C496 C497 1.297 1_655 S
C496 H510 0.950 . S
C497 C496 1.297 1_455 S
C497 C498 1.479 . S
C497 H511 0.950 . S
C498 C497 1.479 . S
C498 C499 1.375 . S
C498 C504 1.404 1_455 S
C499 C498 1.375 . S
C499 C500 1.369 . S
C499 H512 0.950 . S
C500 C499 1.369 . S
C500 C501 1.392 . S
C500 H513 0.951 . S
C501 C500 1.392 . S
C501 C503 1.384 1_455 S
H502 C504 0.949 . S
C503 C501 1.384 1_655 S
C503 C504 1.385 . S
C503 H505 0.950 . S
C504 C498 1.404 1_655 S
C504 H502 0.949 . S
C504 C503 1.385 . S
H505 C503 0.950 . S
H506 C490 0.951 . S
H507 C492 0.951 . S
H508 C494 0.951 . S
H509 C495 0.950 . S
H510 C496 0.950 . S
H511 C497 0.950 . S
H512 C499 0.950 . S
H513 C500 0.951 . S
C514 C515 1.386 . S
C514 C516 1.383 . S
C514 H530 0.951 . S
C515 C514 1.386 . S
C515 C519 1.383 1_545 S
C516 C514 1.383 . S
C516 C517 1.389 1_545 S
C516 H531 0.951 . S
C517 C516 1.389 1_565 S
C517 C518 1.387 . S
C517 C520 1.483 . S
C518 C517 1.387 . S
C518 C519 1.367 . S
C518 H532 0.951 . S
C519 C515 1.383 1_565 S
C519 C518 1.367 . S
C519 H533 0.950 . S
C520 C517 1.483 . S
C520 C521 1.297 1_565 S
C520 H534 0.950 . S
C521 C520 1.297 1_545 S
C521 C522 1.479 . S
C521 H535 0.950 . S
C522 C521 1.479 . S
C522 C523 1.375 . S
C522 C528 1.404 1_545 S
C523 C522 1.375 . S
C523 C524 1.369 . S
C523 H536 0.950 . S
C524 C523 1.369 . S
C524 C525 1.392 . S
C524 H537 0.951 . S
C525 C524 1.392 . S
C525 C527 1.384 1_545 S
H526 C528 0.949 . S
C527 C525 1.384 1_565 S
C527 C528 1.385 . S
C527 H529 0.950 . S
C528 C522 1.404 1_565 S
C528 H526 0.949 . S
C528 C527 1.385 . S
H529 C527 0.950 . S
H530 C514 0.951 . S
H531 C516 0.951 . S
H532 C518 0.951 . S
H533 C519 0.950 . S
H534 C520 0.950 . S
H535 C521 0.950 . S
H536 C523 0.950 . S
H537 C524 0.951 . S
C538 C539 1.386 . S
C538 C540 1.383 . S
C538 H554 0.951 . S
C539 C538 1.386 . S
C539 C543 1.383 . S
C540 C538 1.383 . S
C540 C541 1.402 . S
C540 H555 0.951 . S
C541 C540 1.402 . S
C541 C542 1.375 . S
C541 C544 1.481 . S
C542 C541 1.375 . S
C542 C543 1.367 . S
C542 H556 0.951 1_455 S
C543 C539 1.383 . S
C543 C542 1.367 . S
C543 H557 0.950 . S
C544 C541 1.481 . S
C544 C545 1.297 . S
C544 H558 0.950 . S
C545 C544 1.297 . S
C545 C546 1.479 . S
C545 H559 0.950 . S
C546 C545 1.479 . S
C546 C547 1.375 . S
C546 C552 1.411 . S
C547 C546 1.375 . S
C547 C548 1.369 . S
C547 H560 0.950 . S
C548 C547 1.369 . S
C548 C549 1.392 . S
C548 H561 0.951 . S
C549 C548 1.392 . S
C549 C551 1.384 . S
H550 C552 0.939 1_655 S
C551 C549 1.384 . S
C551 C552 1.388 . S
C551 H553 0.944 1_455 S
C552 C546 1.411 . S
C552 H550 0.939 1_455 S
C552 C551 1.388 . S
H553 C551 0.944 1_655 S
H554 C538 0.951 . S
H555 C540 0.951 . S
H556 C542 0.951 1_655 S
H557 C543 0.950 . S
H558 C544 0.950 . S
H559 C545 0.950 . S
H560 C547 0.950 . S
H561 C548 0.951 . S
C562 C563 1.386 1_565 S
C562 C564 1.383 . S
C562 H578 0.951 . S
C563 C562 1.386 1_545 S
C563 C567 1.383 . S
C564 C562 1.383 . S
C564 C565 1.402 1_565 S
C564 H579 0.951 . S
C565 C564 1.402 1_545 S
C565 C566 1.375 . S
C565 C568 1.481 . S
C566 C565 1.375 . S
C566 C567 1.367 . S
C566 H580 0.951 . S
C567 C563 1.383 . S
C567 C566 1.367 . S
C567 H581 0.950 . S
C568 C565 1.481 . S
C568 C569 1.297 . S
C568 H582 0.950 . S
C569 C568 1.297 . S
C569 C570 1.479 . S
C569 H583 0.950 1_545 S
C570 C569 1.479 . S
C570 C571 1.375 1_545 S
C570 C576 1.404 . S
C571 C570 1.375 1_565 S
C571 C572 1.369 . S
C571 H584 0.950 . S
C572 C571 1.369 . S
C572 C573 1.392 1_565 S
C572 H585 0.951 . S
C573 C572 1.392 1_545 S
C573 C575 1.384 . S
H574 C576 0.949 . S
C575 C573 1.384 . S
C575 C576 1.385 . S
C575 H577 0.950 . S
C576 C570 1.404 . S
C576 H574 0.949 . S
C576 C575 1.385 . S
H577 C575 0.950 . S
H578 C562 0.951 . S
H579 C564 0.951 . S
H580 C566 0.951 . S
H581 C567 0.950 . S
H582 C568 0.950 . S
H583 C569 0.950 1_565 S
H584 C571 0.950 . S
H585 C572 0.951 . S
C586 C587 1.386 . S
C586 C588 1.383 . S
C586 H602 0.951 . S
C587 C586 1.386 . S
C587 C591 1.383 . S
C588 C586 1.383 . S
C588 C589 1.402 . S
C588 H603 0.951 . S
C589 C588 1.402 . S
C589 C590 1.375 . S
C589 C592 1.481 . S
C590 C589 1.375 . S
C590 C591 1.367 . S
C590 H604 0.951 1_554 S
C591 C587 1.383 . S
C591 C590 1.367 . S
C591 H605 0.950 1_554 S
C592 C589 1.481 . S
C592 C593 1.297 . S
C592 H606 0.950 . S
C593 C592 1.297 . S
C593 C594 1.479 . S
C593 H607 0.950 . S
C594 C593 1.479 . S
C594 C595 1.375 . S
C594 C600 1.404 . S
C595 C594 1.375 . S
C595 C596 1.369 . S
C595 H608 0.950 . S
C596 C595 1.369 . S
C596 C597 1.392 . S
C596 H609 0.951 . S
C597 C596 1.392 . S
C597 C599 1.384 . S
H598 C600 0.949 . S
C599 C597 1.384 . S
C599 C600 1.385 . S
C599 H601 0.950 . S
C600 C594 1.404 . S
C600 H598 0.949 . S
C600 C599 1.385 . S
H601 C599 0.950 . S
H602 C586 0.951 . S
H603 C588 0.951 . S
H604 C590 0.951 1_556 S
H605 C591 0.950 1_556 S
H606 C592 0.950 . S
H607 C593 0.950 . S
H608 C595 0.950 . S
H609 C596 0.951 . S
C610 C611 1.386 . S
C610 C612 1.383 . S
C610 H626 0.951 . S
C611 C610 1.386 . S
C611 C615 1.383 . S
C612 C610 1.383 . S
C612 C613 1.402 . S
C612 H627 0.951 . S
C613 C612 1.402 . S
C613 C614 1.375 . S
C613 C616 1.481 . S
C614 C613 1.375 . S
C614 C615 1.367 . S
C614 H628 0.951 . S
C615 C611 1.383 . S
C615 C614 1.367 . S
C615 H629 0.950 . S
C616 C613 1.481 . S
C616 C617 1.297 . S
C616 H630 0.950 . S
C617 C616 1.297 . S
C617 C618 1.479 . S
C617 H631 0.950 . S
C618 C617 1.479 . S
C618 C619 1.375 . S
C618 C624 1.404 . S
C619 C618 1.375 . S
C619 C620 1.369 . S
C619 H632 0.950 . S
C620 C619 1.369 . S
C620 C621 1.392 . S
C620 H633 0.951 . S
C621 C620 1.392 . S
C621 C623 1.384 . S
H622 C624 0.949 . S
C623 C621 1.384 . S
C623 C624 1.385 . S
C623 H625 0.950 . S
C624 C618 1.404 . S
C624 H622 0.949 . S
C624 C623 1.385 . S
H625 C623 0.950 . S
H626 C610 0.951 . S
H627 C612 0.951 . S
H628 C614 0.951 . S
H629 C615 0.950 . S
H630 C616 0.950 . S
H631 C617 0.950 . S
H632 C619 0.950 . S
H633 C620 0.951 . S
C634 C635 1.386 . S
C634 C636 1.383 . S
C634 H650 0.951 1_554 S
C635 C634 1.386 . S
C635 C639 1.383 . S
C636 C634 1.383 . S
C636 C637 1.402 . S
C636 H651 0.951 1_554 S
C637 C636 1.402 . S
C637 C638 1.375 . S
C637 C640 1.481 . S
C638 C637 1.375 . S
C638 C639 1.367 . S
C638 H652 0.951 . S
C639 C635 1.383 . S
C639 C638 1.367 . S
C639 H653 0.950 . S
C640 C637 1.481 . S
C640 C641 1.297 . S
C640 H654 0.950 . S
C641 C640 1.297 . S
C641 C642 1.479 . S
C641 H655 0.950 . S
C642 C641 1.479 . S
C642 C643 1.375 1_554 S
C642 C648 1.404 . S
C643 C642 1.375 1_556 S
C643 C644 1.369 . S
C643 H656 0.950 . S
C644 C643 1.369 . S
C644 C645 1.392 1_556 S
C644 H657 0.951 . S
C645 C644 1.392 1_554 S
C645 C647 1.384 . S
H646 C648 0.949 . S
C647 C645 1.384 . S
C647 C648 1.385 . S
C647 H649 0.950 . S
C648 C642 1.404 . S
C648 H646 0.949 . S
C648 C647 1.385 . S
H649 C647 0.950 . S
H650 C634 0.951 1_556 S
H651 C636 0.951 1_556 S
H652 C638 0.951 . S
H653 C639 0.950 . S
H654 C640 0.950 . S
H655 C641 0.950 . S
H656 C643 0.950 . S
H657 C644 0.951 . S
C658 C659 1.386 1_556 S
C658 C660 1.383 . S
C658 H674 0.951 . S
C659 C658 1.386 1_554 S
C659 C663 1.383 . S
C660 C658 1.383 . S
C660 C661 1.402 1_556 S
C660 H675 0.951 . S
C661 C660 1.402 1_554 S
C661 C662 1.375 . S
C661 C664 1.481 . S
C662 C661 1.375 . S
C662 C663 1.367 . S
C662 H676 0.951 . S
C663 C659 1.383 . S
C663 C662 1.367 . S
C663 H677 0.950 . S
C664 C661 1.481 . S
C664 C665 1.297 . S
C664 H678 0.950 . S
C665 C664 1.297 . S
C665 C666 1.479 . S
C665 H679 0.950 1_554 S
C666 C665 1.479 . S
C666 C667 1.375 1_554 S
C666 C672 1.404 . S
C667 C666 1.375 1_556 S
C667 C668 1.369 . S
C667 H680 0.950 . S
C668 C667 1.369 . S
C668 C669 1.392 1_556 S
C668 H681 0.951 . S
C669 C668 1.392 1_554 S
C669 C671 1.384 . S
H670 C672 0.949 . S
C671 C669 1.384 . S
C671 C672 1.385 . S
C671 H673 0.950 . S
C672 C666 1.404 . S
C672 H670 0.949 . S
C672 C671 1.385 . S
H673 C671 0.950 . S
H674 C658 0.951 . S
H675 C660 0.951 . S
H676 C662 0.951 . S
H677 C663 0.950 . S
H678 C664 0.950 . S
H679 C665 0.950 1_556 S
H680 C667 0.950 . S
H681 C668 0.951 . S
C405 C378 1.681 . S
C395 C11 1.064 1_455 S
C429 C374 1.548 . S
C419 C143 1.437 . S
C453 C384 1.443 . S
C443 C1 1.152 . S
C477 C368 1.779 1_565 S
C467 C169 1.354 . S
C491 C29 1.426 . S
C501 C360 1.630 . S
C525 C392 1.843 . S
C515 C125 1.216 1_545 S
C539 C55 1.400 . S
C549 C346 1.719 . S
C563 C115 1.325 . S
C573 C390 1.606 . S
C587 C283 0.790 . S
C597 C372 1.104 . S
C611 C239 0.599 . S
C621 C387 1.101 . S
C645 C381 0.898 . S
C635 C257 0.919 . S
C669 C376 0.779 . S
C659 C229 0.810 . S
