# Generated by pormake.
# Topology bpr, (3,3)-cn, num edge types: 1
# Building blocks:
#     Node 0, Type 0, BuildingBlock: WUSLED_clean_sbu_0, # of connection points: 3
#     Node 1, Type 0, BuildingBlock: WUSLED_clean_sbu_0, # of connection points: 3
#     Node 2, Type 0, BuildingBlock: WUSLED_clean_sbu_0, # of connection points: 3
#     Node 3, Type 0, BuildingBlock: WUSLED_clean_sbu_0, # of connection points: 3
#     Node 4, Type 0, BuildingBlock: WUSLED_clean_sbu_0, # of connection points: 3
#     Node 5, Type 0, BuildingBlock: WUSLED_clean_sbu_0, # of connection points: 3
#     Node 6, Type 0, BuildingBlock: WUSLED_clean_sbu_0, # of connection points: 3
#     Node 7, Type 0, BuildingBlock: WUSLED_clean_sbu_0, # of connection points: 3
#     Node 8, Type 0, BuildingBlock: WUSLED_clean_sbu_0, # of connection points: 3
#     Node 9, Type 0, BuildingBlock: WUSLED_clean_sbu_0, # of connection points: 3
#     Node 10, Type 0, BuildingBlock: WUSLED_clean_sbu_0, # of connection points: 3
#     Node 11, Type 0, BuildingBlock: WUSLED_clean_sbu_0, # of connection points: 3
#     Node 12, Type 0, BuildingBlock: WUSLED_clean_sbu_0, # of connection points: 3
#     Node 13, Type 0, BuildingBlock: WUSLED_clean_sbu_0, # of connection points: 3
#     Node 14, Type 0, BuildingBlock: WUSLED_clean_sbu_0, # of connection points: 3
#     Node 15, Type 0, BuildingBlock: WUSLED_clean_sbu_0, # of connection points: 3
#     Node 16, Type 0, BuildingBlock: WUSLED_clean_sbu_0, # of connection points: 3
#     Node 17, Type 0, BuildingBlock: WUSLED_clean_sbu_0, # of connection points: 3
#     Node 18, Type 0, BuildingBlock: WUSLED_clean_sbu_0, # of connection points: 3
#     Node 19, Type 0, BuildingBlock: WUSLED_clean_sbu_0, # of connection points: 3
#     Node 20, Type 0, BuildingBlock: WUSLED_clean_sbu_0, # of connection points: 3
#     Node 21, Type 0, BuildingBlock: WUSLED_clean_sbu_0, # of connection points: 3
#     Node 22, Type 0, BuildingBlock: WUSLED_clean_sbu_0, # of connection points: 3
#     Node 23, Type 0, BuildingBlock: WUSLED_clean_sbu_0, # of connection points: 3
#     Node 24, Type 0, BuildingBlock: WUSLED_clean_sbu_0, # of connection points: 3
#     Node 25, Type 0, BuildingBlock: WUSLED_clean_sbu_0, # of connection points: 3
#     Node 26, Type 0, BuildingBlock: WUSLED_clean_sbu_0, # of connection points: 3
#     Node 27, Type 0, BuildingBlock: WUSLED_clean_sbu_0, # of connection points: 3
#     Node 28, Type 0, BuildingBlock: WUSLED_clean_sbu_0, # of connection points: 3
#     Node 29, Type 0, BuildingBlock: WUSLED_clean_sbu_0, # of connection points: 3
#     Node 30, Type 0, BuildingBlock: WUSLED_clean_sbu_0, # of connection points: 3
#     Node 31, Type 0, BuildingBlock: WUSLED_clean_sbu_0, # of connection points: 3
#     Node 32, Type 0, BuildingBlock: WUSLED_clean_sbu_0, # of connection points: 3
#     Node 33, Type 0, BuildingBlock: WUSLED_clean_sbu_0, # of connection points: 3
#     Node 34, Type 0, BuildingBlock: WUSLED_clean_sbu_0, # of connection points: 3
#     Node 35, Type 0, BuildingBlock: WUSLED_clean_sbu_0, # of connection points: 3
#     Node 36, Type 0, BuildingBlock: WUSLED_clean_sbu_0, # of connection points: 3
#     Node 37, Type 0, BuildingBlock: WUSLED_clean_sbu_0, # of connection points: 3
#     Node 38, Type 0, BuildingBlock: WUSLED_clean_sbu_0, # of connection points: 3
#     Node 39, Type 0, BuildingBlock: WUSLED_clean_sbu_0, # of connection points: 3
#     Node 40, Type 0, BuildingBlock: WUSLED_clean_sbu_0, # of connection points: 3
#     Node 41, Type 0, BuildingBlock: WUSLED_clean_sbu_0, # of connection points: 3
#     Node 42, Type 0, BuildingBlock: WUSLED_clean_sbu_0, # of connection points: 3
#     Node 43, Type 0, BuildingBlock: WUSLED_clean_sbu_0, # of connection points: 3
#     Node 44, Type 0, BuildingBlock: WUSLED_clean_sbu_0, # of connection points: 3
#     Node 45, Type 0, BuildingBlock: WUSLED_clean_sbu_0, # of connection points: 3
#     Node 46, Type 0, BuildingBlock: WUSLED_clean_sbu_0, # of connection points: 3
#     Node 47, Type 0, BuildingBlock: WUSLED_clean_sbu_0, # of connection points: 3
#     Node 48, Type 1, BuildingBlock: PAMTOO_clean_linker_0, # of connection points: 3
#     Node 49, Type 1, BuildingBlock: PAMTOO_clean_linker_0, # of connection points: 3
#     Node 50, Type 1, BuildingBlock: PAMTOO_clean_linker_0, # of connection points: 3
#     Node 51, Type 1, BuildingBlock: PAMTOO_clean_linker_0, # of connection points: 3
#     Node 52, Type 1, BuildingBlock: PAMTOO_clean_linker_0, # of connection points: 3
#     Node 53, Type 1, BuildingBlock: PAMTOO_clean_linker_0, # of connection points: 3
#     Node 54, Type 1, BuildingBlock: PAMTOO_clean_linker_0, # of connection points: 3
#     Node 55, Type 1, BuildingBlock: PAMTOO_clean_linker_0, # of connection points: 3
#     Node 56, Type 1, BuildingBlock: PAMTOO_clean_linker_0, # of connection points: 3
#     Node 57, Type 1, BuildingBlock: PAMTOO_clean_linker_0, # of connection points: 3
#     Node 58, Type 1, BuildingBlock: PAMTOO_clean_linker_0, # of connection points: 3
#     Node 59, Type 1, BuildingBlock: PAMTOO_clean_linker_0, # of connection points: 3
#     Node 60, Type 1, BuildingBlock: PAMTOO_clean_linker_0, # of connection points: 3
#     Node 61, Type 1, BuildingBlock: PAMTOO_clean_linker_0, # of connection points: 3
#     Node 62, Type 1, BuildingBlock: PAMTOO_clean_linker_0, # of connection points: 3
#     Node 63, Type 1, BuildingBlock: PAMTOO_clean_linker_0, # of connection points: 3
#     Node 64, Type 1, BuildingBlock: PAMTOO_clean_linker_0, # of connection points: 3
#     Node 65, Type 1, BuildingBlock: PAMTOO_clean_linker_0, # of connection points: 3
#     Node 66, Type 1, BuildingBlock: PAMTOO_clean_linker_0, # of connection points: 3
#     Node 67, Type 1, BuildingBlock: PAMTOO_clean_linker_0, # of connection points: 3
#     Node 68, Type 1, BuildingBlock: PAMTOO_clean_linker_0, # of connection points: 3
#     Node 69, Type 1, BuildingBlock: PAMTOO_clean_linker_0, # of connection points: 3
#     Node 70, Type 1, BuildingBlock: PAMTOO_clean_linker_0, # of connection points: 3
#     Node 71, Type 1, BuildingBlock: PAMTOO_clean_linker_0, # of connection points: 3
#     Node 72, Type 1, BuildingBlock: PAMTOO_clean_linker_0, # of connection points: 3
#     Node 73, Type 1, BuildingBlock: PAMTOO_clean_linker_0, # of connection points: 3
#     Node 74, Type 1, BuildingBlock: PAMTOO_clean_linker_0, # of connection points: 3
#     Node 75, Type 1, BuildingBlock: PAMTOO_clean_linker_0, # of connection points: 3
#     Node 76, Type 1, BuildingBlock: PAMTOO_clean_linker_0, # of connection points: 3
#     Node 77, Type 1, BuildingBlock: PAMTOO_clean_linker_0, # of connection points: 3
#     Node 78, Type 1, BuildingBlock: PAMTOO_clean_linker_0, # of connection points: 3
#     Node 79, Type 1, BuildingBlock: PAMTOO_clean_linker_0, # of connection points: 3
#     Node 80, Type 1, BuildingBlock: PAMTOO_clean_linker_0, # of connection points: 3
#     Node 81, Type 1, BuildingBlock: PAMTOO_clean_linker_0, # of connection points: 3
#     Node 82, Type 1, BuildingBlock: PAMTOO_clean_linker_0, # of connection points: 3
#     Node 83, Type 1, BuildingBlock: PAMTOO_clean_linker_0, # of connection points: 3
#     Node 84, Type 1, BuildingBlock: PAMTOO_clean_linker_0, # of connection points: 3
#     Node 85, Type 1, BuildingBlock: PAMTOO_clean_linker_0, # of connection points: 3
#     Node 86, Type 1, BuildingBlock: PAMTOO_clean_linker_0, # of connection points: 3
#     Node 87, Type 1, BuildingBlock: PAMTOO_clean_linker_0, # of connection points: 3
#     Node 88, Type 1, BuildingBlock: PAMTOO_clean_linker_0, # of connection points: 3
#     Node 89, Type 1, BuildingBlock: PAMTOO_clean_linker_0, # of connection points: 3
#     Node 90, Type 1, BuildingBlock: PAMTOO_clean_linker_0, # of connection points: 3
#     Node 91, Type 1, BuildingBlock: PAMTOO_clean_linker_0, # of connection points: 3
#     Node 92, Type 1, BuildingBlock: PAMTOO_clean_linker_0, # of connection points: 3
#     Node 93, Type 1, BuildingBlock: PAMTOO_clean_linker_0, # of connection points: 3
#     Node 94, Type 1, BuildingBlock: PAMTOO_clean_linker_0, # of connection points: 3
#     Node 95, Type 1, BuildingBlock: PAMTOO_clean_linker_0, # of connection points: 3
#     Edge 96, Type (0, 1), BuildingBlock: OJICUG_clean_linker_0, # of connection points: 2
#     Edge 97, Type (0, 1), BuildingBlock: OJICUG_clean_linker_0, # of connection points: 2
#     Edge 98, Type (0, 1), BuildingBlock: OJICUG_clean_linker_0, # of connection points: 2
#     Edge 99, Type (0, 1), BuildingBlock: OJICUG_clean_linker_0, # of connection points: 2
#     Edge 100, Type (0, 1), BuildingBlock: OJICUG_clean_linker_0, # of connection points: 2
#     Edge 101, Type (0, 1), BuildingBlock: OJICUG_clean_linker_0, # of connection points: 2
#     Edge 102, Type (0, 1), BuildingBlock: OJICUG_clean_linker_0, # of connection points: 2
#     Edge 103, Type (0, 1), BuildingBlock: OJICUG_clean_linker_0, # of connection points: 2
#     Edge 104, Type (0, 1), BuildingBlock: OJICUG_clean_linker_0, # of connection points: 2
#     Edge 105, Type (0, 1), BuildingBlock: OJICUG_clean_linker_0, # of connection points: 2
#     Edge 106, Type (0, 1), BuildingBlock: OJICUG_clean_linker_0, # of connection points: 2
#     Edge 107, Type (0, 1), BuildingBlock: OJICUG_clean_linker_0, # of connection points: 2
#     Edge 108, Type (0, 1), BuildingBlock: OJICUG_clean_linker_0, # of connection points: 2
#     Edge 109, Type (0, 1), BuildingBlock: OJICUG_clean_linker_0, # of connection points: 2
#     Edge 110, Type (0, 1), BuildingBlock: OJICUG_clean_linker_0, # of connection points: 2
#     Edge 111, Type (0, 1), BuildingBlock: OJICUG_clean_linker_0, # of connection points: 2
#     Edge 112, Type (0, 1), BuildingBlock: OJICUG_clean_linker_0, # of connection points: 2
#     Edge 113, Type (0, 1), BuildingBlock: OJICUG_clean_linker_0, # of connection points: 2
#     Edge 114, Type (0, 1), BuildingBlock: OJICUG_clean_linker_0, # of connection points: 2
#     Edge 115, Type (0, 1), BuildingBlock: OJICUG_clean_linker_0, # of connection points: 2
#     Edge 116, Type (0, 1), BuildingBlock: OJICUG_clean_linker_0, # of connection points: 2
#     Edge 117, Type (0, 1), BuildingBlock: OJICUG_clean_linker_0, # of connection points: 2
#     Edge 118, Type (0, 1), BuildingBlock: OJICUG_clean_linker_0, # of connection points: 2
#     Edge 119, Type (0, 1), BuildingBlock: OJICUG_clean_linker_0, # of connection points: 2
#     Edge 120, Type (0, 1), BuildingBlock: OJICUG_clean_linker_0, # of connection points: 2
#     Edge 121, Type (0, 1), BuildingBlock: OJICUG_clean_linker_0, # of connection points: 2
#     Edge 122, Type (0, 1), BuildingBlock: OJICUG_clean_linker_0, # of connection points: 2
#     Edge 123, Type (0, 1), BuildingBlock: OJICUG_clean_linker_0, # of connection points: 2
#     Edge 124, Type (0, 1), BuildingBlock: OJICUG_clean_linker_0, # of connection points: 2
#     Edge 125, Type (0, 1), BuildingBlock: OJICUG_clean_linker_0, # of connection points: 2
#     Edge 126, Type (0, 1), BuildingBlock: OJICUG_clean_linker_0, # of connection points: 2
#     Edge 127, Type (0, 1), BuildingBlock: OJICUG_clean_linker_0, # of connection points: 2
#     Edge 128, Type (0, 1), BuildingBlock: OJICUG_clean_linker_0, # of connection points: 2
#     Edge 129, Type (0, 1), BuildingBlock: OJICUG_clean_linker_0, # of connection points: 2
#     Edge 130, Type (0, 1), BuildingBlock: OJICUG_clean_linker_0, # of connection points: 2
#     Edge 131, Type (0, 1), BuildingBlock: OJICUG_clean_linker_0, # of connection points: 2
#     Edge 132, Type (0, 1), BuildingBlock: OJICUG_clean_linker_0, # of connection points: 2
#     Edge 133, Type (0, 1), BuildingBlock: OJICUG_clean_linker_0, # of connection points: 2
#     Edge 134, Type (0, 1), BuildingBlock: OJICUG_clean_linker_0, # of connection points: 2
#     Edge 135, Type (0, 1), BuildingBlock: OJICUG_clean_linker_0, # of connection points: 2
#     Edge 136, Type (0, 1), BuildingBlock: OJICUG_clean_linker_0, # of connection points: 2
#     Edge 137, Type (0, 1), BuildingBlock: OJICUG_clean_linker_0, # of connection points: 2
#     Edge 138, Type (0, 1), BuildingBlock: OJICUG_clean_linker_0, # of connection points: 2
#     Edge 139, Type (0, 1), BuildingBlock: OJICUG_clean_linker_0, # of connection points: 2
#     Edge 140, Type (0, 1), BuildingBlock: OJICUG_clean_linker_0, # of connection points: 2
#     Edge 141, Type (0, 1), BuildingBlock: OJICUG_clean_linker_0, # of connection points: 2
#     Edge 142, Type (0, 1), BuildingBlock: OJICUG_clean_linker_0, # of connection points: 2
#     Edge 143, Type (0, 1), BuildingBlock: OJICUG_clean_linker_0, # of connection points: 2
#     Edge 144, Type (0, 1), BuildingBlock: OJICUG_clean_linker_0, # of connection points: 2
#     Edge 145, Type (0, 1), BuildingBlock: OJICUG_clean_linker_0, # of connection points: 2
#     Edge 146, Type (0, 1), BuildingBlock: OJICUG_clean_linker_0, # of connection points: 2
#     Edge 147, Type (0, 1), BuildingBlock: OJICUG_clean_linker_0, # of connection points: 2
#     Edge 148, Type (0, 1), BuildingBlock: OJICUG_clean_linker_0, # of connection points: 2
#     Edge 149, Type (0, 1), BuildingBlock: OJICUG_clean_linker_0, # of connection points: 2
#     Edge 150, Type (0, 1), BuildingBlock: OJICUG_clean_linker_0, # of connection points: 2
#     Edge 151, Type (0, 1), BuildingBlock: OJICUG_clean_linker_0, # of connection points: 2
#     Edge 152, Type (0, 1), BuildingBlock: OJICUG_clean_linker_0, # of connection points: 2
#     Edge 153, Type (0, 1), BuildingBlock: OJICUG_clean_linker_0, # of connection points: 2
#     Edge 154, Type (0, 1), BuildingBlock: OJICUG_clean_linker_0, # of connection points: 2
#     Edge 155, Type (0, 1), BuildingBlock: OJICUG_clean_linker_0, # of connection points: 2
#     Edge 156, Type (0, 1), BuildingBlock: OJICUG_clean_linker_0, # of connection points: 2
#     Edge 157, Type (0, 1), BuildingBlock: OJICUG_clean_linker_0, # of connection points: 2
#     Edge 158, Type (0, 1), BuildingBlock: OJICUG_clean_linker_0, # of connection points: 2
#     Edge 159, Type (0, 1), BuildingBlock: OJICUG_clean_linker_0, # of connection points: 2
#     Edge 160, Type (0, 1), BuildingBlock: OJICUG_clean_linker_0, # of connection points: 2
#     Edge 161, Type (0, 1), BuildingBlock: OJICUG_clean_linker_0, # of connection points: 2
#     Edge 162, Type (0, 1), BuildingBlock: OJICUG_clean_linker_0, # of connection points: 2
#     Edge 163, Type (0, 1), BuildingBlock: OJICUG_clean_linker_0, # of connection points: 2
#     Edge 164, Type (0, 1), BuildingBlock: OJICUG_clean_linker_0, # of connection points: 2
#     Edge 165, Type (0, 1), BuildingBlock: OJICUG_clean_linker_0, # of connection points: 2
#     Edge 166, Type (0, 1), BuildingBlock: OJICUG_clean_linker_0, # of connection points: 2
#     Edge 167, Type (0, 1), BuildingBlock: OJICUG_clean_linker_0, # of connection points: 2
#     Edge 168, Type (0, 1), BuildingBlock: OJICUG_clean_linker_0, # of connection points: 2
#     Edge 169, Type (0, 1), BuildingBlock: OJICUG_clean_linker_0, # of connection points: 2
#     Edge 170, Type (0, 1), BuildingBlock: OJICUG_clean_linker_0, # of connection points: 2
#     Edge 171, Type (0, 1), BuildingBlock: OJICUG_clean_linker_0, # of connection points: 2
#     Edge 172, Type (0, 1), BuildingBlock: OJICUG_clean_linker_0, # of connection points: 2
#     Edge 173, Type (0, 1), BuildingBlock: OJICUG_clean_linker_0, # of connection points: 2
#     Edge 174, Type (0, 1), BuildingBlock: OJICUG_clean_linker_0, # of connection points: 2
#     Edge 175, Type (0, 1), BuildingBlock: OJICUG_clean_linker_0, # of connection points: 2
#     Edge 176, Type (0, 1), BuildingBlock: OJICUG_clean_linker_0, # of connection points: 2
#     Edge 177, Type (0, 1), BuildingBlock: OJICUG_clean_linker_0, # of connection points: 2
#     Edge 178, Type (0, 1), BuildingBlock: OJICUG_clean_linker_0, # of connection points: 2
#     Edge 179, Type (0, 1), BuildingBlock: OJICUG_clean_linker_0, # of connection points: 2
#     Edge 180, Type (0, 1), BuildingBlock: OJICUG_clean_linker_0, # of connection points: 2
#     Edge 181, Type (0, 1), BuildingBlock: OJICUG_clean_linker_0, # of connection points: 2
#     Edge 182, Type (0, 1), BuildingBlock: OJICUG_clean_linker_0, # of connection points: 2
#     Edge 183, Type (0, 1), BuildingBlock: OJICUG_clean_linker_0, # of connection points: 2
#     Edge 184, Type (0, 1), BuildingBlock: OJICUG_clean_linker_0, # of connection points: 2
#     Edge 185, Type (0, 1), BuildingBlock: OJICUG_clean_linker_0, # of connection points: 2
#     Edge 186, Type (0, 1), BuildingBlock: OJICUG_clean_linker_0, # of connection points: 2
#     Edge 187, Type (0, 1), BuildingBlock: OJICUG_clean_linker_0, # of connection points: 2
#     Edge 188, Type (0, 1), BuildingBlock: OJICUG_clean_linker_0, # of connection points: 2
#     Edge 189, Type (0, 1), BuildingBlock: OJICUG_clean_linker_0, # of connection points: 2
#     Edge 190, Type (0, 1), BuildingBlock: OJICUG_clean_linker_0, # of connection points: 2
#     Edge 191, Type (0, 1), BuildingBlock: OJICUG_clean_linker_0, # of connection points: 2
#     Edge 192, Type (0, 1), BuildingBlock: OJICUG_clean_linker_0, # of connection points: 2
#     Edge 193, Type (0, 1), BuildingBlock: OJICUG_clean_linker_0, # of connection points: 2
#     Edge 194, Type (0, 1), BuildingBlock: OJICUG_clean_linker_0, # of connection points: 2
#     Edge 195, Type (0, 1), BuildingBlock: OJICUG_clean_linker_0, # of connection points: 2
#     Edge 196, Type (0, 1), BuildingBlock: OJICUG_clean_linker_0, # of connection points: 2
#     Edge 197, Type (0, 1), BuildingBlock: OJICUG_clean_linker_0, # of connection points: 2
#     Edge 198, Type (0, 1), BuildingBlock: OJICUG_clean_linker_0, # of connection points: 2
#     Edge 199, Type (0, 1), BuildingBlock: OJICUG_clean_linker_0, # of connection points: 2
#     Edge 200, Type (0, 1), BuildingBlock: OJICUG_clean_linker_0, # of connection points: 2
#     Edge 201, Type (0, 1), BuildingBlock: OJICUG_clean_linker_0, # of connection points: 2
#     Edge 202, Type (0, 1), BuildingBlock: OJICUG_clean_linker_0, # of connection points: 2
#     Edge 203, Type (0, 1), BuildingBlock: OJICUG_clean_linker_0, # of connection points: 2
#     Edge 204, Type (0, 1), BuildingBlock: OJICUG_clean_linker_0, # of connection points: 2
#     Edge 205, Type (0, 1), BuildingBlock: OJICUG_clean_linker_0, # of connection points: 2
#     Edge 206, Type (0, 1), BuildingBlock: OJICUG_clean_linker_0, # of connection points: 2
#     Edge 207, Type (0, 1), BuildingBlock: OJICUG_clean_linker_0, # of connection points: 2
#     Edge 208, Type (0, 1), BuildingBlock: OJICUG_clean_linker_0, # of connection points: 2
#     Edge 209, Type (0, 1), BuildingBlock: OJICUG_clean_linker_0, # of connection points: 2
#     Edge 210, Type (0, 1), BuildingBlock: OJICUG_clean_linker_0, # of connection points: 2
#     Edge 211, Type (0, 1), BuildingBlock: OJICUG_clean_linker_0, # of connection points: 2
#     Edge 212, Type (0, 1), BuildingBlock: OJICUG_clean_linker_0, # of connection points: 2
#     Edge 213, Type (0, 1), BuildingBlock: OJICUG_clean_linker_0, # of connection points: 2
#     Edge 214, Type (0, 1), BuildingBlock: OJICUG_clean_linker_0, # of connection points: 2
#     Edge 215, Type (0, 1), BuildingBlock: OJICUG_clean_linker_0, # of connection points: 2
#     Edge 216, Type (0, 1), BuildingBlock: OJICUG_clean_linker_0, # of connection points: 2
#     Edge 217, Type (0, 1), BuildingBlock: OJICUG_clean_linker_0, # of connection points: 2
#     Edge 218, Type (0, 1), BuildingBlock: OJICUG_clean_linker_0, # of connection points: 2
#     Edge 219, Type (0, 1), BuildingBlock: OJICUG_clean_linker_0, # of connection points: 2
#     Edge 220, Type (0, 1), BuildingBlock: OJICUG_clean_linker_0, # of connection points: 2
#     Edge 221, Type (0, 1), BuildingBlock: OJICUG_clean_linker_0, # of connection points: 2
#     Edge 222, Type (0, 1), BuildingBlock: OJICUG_clean_linker_0, # of connection points: 2
#     Edge 223, Type (0, 1), BuildingBlock: OJICUG_clean_linker_0, # of connection points: 2
#     Edge 224, Type (0, 1), BuildingBlock: OJICUG_clean_linker_0, # of connection points: 2
#     Edge 225, Type (0, 1), BuildingBlock: OJICUG_clean_linker_0, # of connection points: 2
#     Edge 226, Type (0, 1), BuildingBlock: OJICUG_clean_linker_0, # of connection points: 2
#     Edge 227, Type (0, 1), BuildingBlock: OJICUG_clean_linker_0, # of connection points: 2
#     Edge 228, Type (0, 1), BuildingBlock: OJICUG_clean_linker_0, # of connection points: 2
#     Edge 229, Type (0, 1), BuildingBlock: OJICUG_clean_linker_0, # of connection points: 2
#     Edge 230, Type (0, 1), BuildingBlock: OJICUG_clean_linker_0, # of connection points: 2
#     Edge 231, Type (0, 1), BuildingBlock: OJICUG_clean_linker_0, # of connection points: 2
#     Edge 232, Type (0, 1), BuildingBlock: OJICUG_clean_linker_0, # of connection points: 2
#     Edge 233, Type (0, 1), BuildingBlock: OJICUG_clean_linker_0, # of connection points: 2
#     Edge 234, Type (0, 1), BuildingBlock: OJICUG_clean_linker_0, # of connection points: 2
#     Edge 235, Type (0, 1), BuildingBlock: OJICUG_clean_linker_0, # of connection points: 2
#     Edge 236, Type (0, 1), BuildingBlock: OJICUG_clean_linker_0, # of connection points: 2
#     Edge 237, Type (0, 1), BuildingBlock: OJICUG_clean_linker_0, # of connection points: 2
#     Edge 238, Type (0, 1), BuildingBlock: OJICUG_clean_linker_0, # of connection points: 2
#     Edge 239, Type (0, 1), BuildingBlock: OJICUG_clean_linker_0, # of connection points: 2
# Relax obj value: 0.039
# Max RMSD: 0.108
# Mean RMSD: 0.051
data_MOF--net-bpr--node1-WUSLED_clean_sbu_0--node2-PAMTOO_clean_linker_0--edge1-OJICUG_clean_linker_0
_symmetry_space_group_name_H-M    P1
_symmetry_Int_Tables_number       1
_symmetry_cell_setting            triclinic
loop_
_symmetry_equiv_pos_as_xyz
'x, y, z'
_cell_length_a     78.574126
_cell_length_b     83.6165
_cell_length_c     85.864753
_cell_angle_alpha  92.105088
_cell_angle_beta   99.991079
_cell_angle_gamma 104.03976
loop_
_atom_site_label
_atom_site_type_symbol
_atom_site_fract_x
_atom_site_fract_y
_atom_site_fract_z
_atom_type_partial_charge
C0 C 0.96657 0.39889 0.24149 0.0
C1 C 0.96761 0.39763 0.25792 0.0
C2 C 0.94119 0.40841 0.25726 0.0
C3 C 0.95501 0.40232 0.26572 0.0
C4 C 0.94014 0.40932 0.24077 0.0
C5 C 0.95268 0.40466 0.23303 0.0
U6 U 1.00735 0.38186 0.24134 0.0
O7 O 0.01413 0.36524 0.22411 0.0
O8 O 0.03136 0.39039 0.23084 0.0
C9 C 0.02875 0.37619 0.22252 0.0
C10 C 0.97991 0.3945 0.233 0.0
C11 C 0.03465 0.37626 0.20704 0.0
C12 C 0.03683 0.38615 0.1809 0.0
C13 C 0.02974 0.38601 0.19491 0.0
C14 C 0.05372 0.36691 0.19108 0.0
C15 C 0.04904 0.37664 0.17882 0.0
C16 C 0.04657 0.36669 0.2049 0.0
C17 C 0.02442 0.36851 0.28344 0.0
C18 C 0.04887 0.35623 0.29323 0.0
C19 C 0.03173 0.36478 0.31141 0.0
C20 C 0.02119 0.36994 0.29887 0.0
C21 C 0.04588 0.35812 0.30883 0.0
C22 C 0.0382 0.36145 0.28055 0.0
C23 C 0.01308 0.37481 0.27101 0.0
O24 O 0.99639 0.40356 0.23744 0.0
O25 O 0.97892 0.37862 0.23087 0.0
O26 O 1.00296 0.36415 0.25948 0.0
O27 O 0.02003 0.38932 0.26631 0.0
H28 H 0.97823 0.39318 0.26471 0.0
H29 H 0.95633 0.40149 0.27841 0.0
H30 H 0.9295 0.41354 0.23374 0.0
H31 H 0.95155 0.40563 0.22036 0.0
H32 H 0.03266 0.39364 0.17169 0.0
H33 H 0.02059 0.39355 0.1963 0.0
H34 H 0.06328 0.35967 0.19021 0.0
H35 H 0.05069 0.3592 0.21417 0.0
H36 H 0.05977 0.35122 0.29093 0.0
H37 H 0.02892 0.36618 0.32323 0.0
H38 H 0.01054 0.37527 0.30127 0.0
H39 H 0.04083 0.36024 0.26865 0.0
C40 C 0.92468 0.79126 0.5641 0.0
C41 C 0.93183 0.79307 0.58047 0.0
C42 C 0.92177 0.76313 0.58205 0.0
C43 C 0.93041 0.77912 0.58935 0.0
C44 C 0.9143 0.76161 0.56574 0.0
C45 C 0.91581 0.77545 0.55692 0.0
U46 U 0.93142 0.83773 0.55905 0.0
O47 O 0.94563 0.85401 0.54316 0.0
O48 O 0.91678 0.85083 0.54182 0.0
C49 C 0.93113 0.85816 0.53643 0.0
C50 C 0.92604 0.80552 0.55419 0.0
C51 C 0.92898 0.86114 0.51943 0.0
C52 C 0.91912 0.85229 0.49128 0.0
C53 C 0.92201 0.84844 0.50718 0.0
C54 C 0.93029 0.88146 0.49976 0.0
C55 C 0.92303 0.8689 0.48738 0.0
C56 C 0.93323 0.87761 0.51554 0.0
C57 C 0.93958 0.86609 0.59791 0.0
C58 C 0.92892 0.88964 0.60571 0.0
C59 C 0.95323 0.88229 0.62292 0.0
C60 C 0.95251 0.8694 0.61186 0.0
C61 C 0.94092 0.89206 0.62028 0.0
C62 C 0.92823 0.87671 0.59458 0.0
C63 C 0.93671 0.8503 0.58844 0.0
O64 O 0.913 0.81295 0.55334 0.0
O65 O 0.94187 0.81591 0.5557 0.0
O66 O 0.94979 0.84832 0.58149 0.0
O67 O 0.92077 0.84427 0.57969 0.0
H68 H 0.93862 0.8052 0.58633 0.0
H69 H 0.93643 0.78086 0.60183 0.0
H70 H 0.90716 0.74966 0.55969 0.0
H71 H 0.91003 0.77377 0.54438 0.0
H72 H 0.91336 0.84229 0.48207 0.0
H73 H 0.91855 0.83565 0.50991 0.0
H74 H 0.93375 0.89433 0.49727 0.0
H75 H 0.9386 0.8876 0.52482 0.0
H76 H 0.91929 0.89699 0.60335 0.0
H77 H 0.96288 0.88409 0.63391 0.0
H78 H 0.96144 0.86142 0.61463 0.0
H79 H 0.9182 0.87449 0.58382 0.0
C80 C 0.42551 0.62337 0.69029 0.0
C81 C 0.40874 0.62694 0.68847 0.0
C82 C 0.40737 0.62749 0.65986 0.0
C83 C 0.39974 0.629 0.67337 0.0
C84 C 0.4244 0.62437 0.66192 0.0
C85 C 0.43334 0.62231 0.67697 0.0
U86 U 0.42843 0.61999 0.73482 0.0
O87 O 0.43564 0.60092 0.74974 0.0
O88 O 0.45127 0.6268 0.75478 0.0
C89 C 0.44952 0.61144 0.7585 0.0
C90 C 0.4347 0.61995 0.70579 0.0
C91 C 0.46615 0.60602 0.76303 0.0
C92 C 0.48305 0.58508 0.7634 0.0
C93 C 0.4682 0.59087 0.75697 0.0
C94 C 0.49411 0.60963 0.78168 0.0
C95 C 0.49607 0.59431 0.77599 0.0
C96 C 0.47938 0.6154 0.77527 0.0
C97 C 0.39094 0.63012 0.75385 0.0
C98 C 0.37409 0.61746 0.77334 0.0
C99 C 0.37589 0.64613 0.76843 0.0
C100 C 0.38667 0.64507 0.75728 0.0
C101 C 0.36909 0.63217 0.77616 0.0
C102 C 0.38501 0.61645 0.76234 0.0
C103 C 0.40003 0.62866 0.74041 0.0
O104 O 0.44142 0.63272 0.71634 0.0
O105 O 0.42639 0.60668 0.71176 0.0
O106 O 0.39976 0.61359 0.7352 0.0
O107 O 0.41547 0.63936 0.74093 0.0
H108 H 0.40245 0.62776 0.69865 0.0
H109 H 0.38656 0.63119 0.67222 0.0
H110 H 0.43078 0.62334 0.65185 0.0
H111 H 0.44628 0.61959 0.67816 0.0
H112 H 0.48419 0.57328 0.75866 0.0
H113 H 0.45815 0.58329 0.7476 0.0
H114 H 0.50358 0.61693 0.7916 0.0
H115 H 0.47797 0.62696 0.78035 0.0
H116 H 0.36913 0.6066 0.77935 0.0
H117 H 0.37215 0.65757 0.7704 0.0
H118 H 0.3911 0.65575 0.75087 0.0
H119 H 0.38823 0.6048 0.7601 0.0
C120 C 0.59224 0.21774 0.09409 0.0
C121 C 0.59269 0.21536 0.11025 0.0
C122 C 0.59896 0.24517 0.11655 0.0
C123 C 0.59598 0.22895 0.12138 0.0
C124 C 0.59794 0.24734 0.10025 0.0
C125 C 0.5946 0.23376 0.08916 0.0
U126 U 0.58545 0.17183 0.0842 0.0
O127 O 0.57226 0.15521 0.06275 0.0
O128 O 0.60092 0.15842 0.07208 0.0
C129 C 0.58708 0.15121 0.06105 0.0
C130 C 0.59067 0.20383 0.08247 0.0
C131 C 0.59055 0.14928 0.04492 0.0
C132 C 0.58913 0.15635 0.01762 0.0
C133 C 0.58592 0.15924 0.03291 0.0
C134 C 0.6016 0.13366 0.02635 0.0
C135 C 0.597 0.14349 0.01417 0.0
C136 C 0.59836 0.13652 0.04151 0.0
C137 C 0.57936 0.14251 0.11606 0.0
C138 C 0.58755 0.11643 0.11405 0.0
C139 C 0.57491 0.12353 0.13642 0.0
C140 C 0.57349 0.13843 0.13021 0.0
C141 C 0.58242 0.1127 0.1286 0.0
C142 C 0.58585 0.13122 0.10771 0.0
C143 C 0.58042 0.15915 0.1109 0.0
O144 O 0.60373 0.19642 0.08518 0.0
O145 O 0.57479 0.19344 0.07852 0.0
O146 O 0.56717 0.16066 0.09987 0.0
O147 O 0.59622 0.16677 0.10824 0.0
H148 H 0.59089 0.20304 0.11429 0.0
H149 H 0.59638 0.22675 0.13377 0.0
H150 H 0.6004 0.2596 0.09607 0.0
H151 H 0.59439 0.23582 0.07676 0.0
H152 H 0.58532 0.16408 0.00848 0.0
H153 H 0.57981 0.16914 0.03532 0.0
H154 H 0.60804 0.12391 0.02429 0.0
H155 H 0.602 0.1287 0.05065 0.0
H156 H 0.59337 0.10818 0.10791 0.0
H157 H 0.57108 0.12089 0.14777 0.0
H158 H 0.56852 0.14706 0.13678 0.0
H159 H 0.59037 0.13419 0.09669 0.0
C160 C 0.01592 0.62595 0.25329 0.0
C161 C 0.01561 0.63023 0.23759 0.0
C162 C 0.98311 0.61977 0.23157 0.0
C163 C 0.99933 0.62719 0.22682 0.0
C164 C 0.98367 0.61543 0.2473 0.0
C165 C 0.99987 0.61846 0.25799 0.0
U166 U 0.0671 0.63626 0.26522 0.0
O167 O 0.08499 0.65205 0.28564 0.0
O168 O 0.08393 0.62558 0.28284 0.0
C169 C 0.09035 0.63956 0.29182 0.0
C170 C 0.03264 0.62919 0.26509 0.0
C171 C 0.09084 0.63839 0.30893 0.0
C172 C 0.07846 0.62594 0.33096 0.0
C173 C 0.07663 0.62838 0.31477 0.0
C174 C 0.10834 0.64408 0.33566 0.0
C175 C 0.09449 0.63349 0.34152 0.0
C176 C 0.10651 0.64648 0.31951 0.0
C177 C 0.09516 0.64213 0.23224 0.0
C178 C 0.12689 0.65476 0.23441 0.0
C179 C 0.11001 0.63802 0.2105 0.0
C180 C 0.09465 0.63513 0.21707 0.0
C181 C 0.1263 0.64793 0.21902 0.0
C182 C 0.11141 0.65184 0.24101 0.0
C183 C 0.07835 0.63923 0.23822 0.0
O184 O 0.0417 0.61789 0.26506 0.0
O185 O 0.0428 0.6444 0.26677 0.0
O186 O 0.0757 0.6517 0.24644 0.0
O187 O 0.07345 0.62495 0.24416 0.0
H188 H 0.02791 0.63595 0.2337 0.0
H189 H 0.99944 0.63057 0.21477 0.0
H190 H 0.9715 0.61002 0.25152 0.0
H191 H 0.99985 0.6151 0.27006 0.0
H192 H 0.06748 0.61786 0.33515 0.0
H193 H 0.06438 0.62207 0.30678 0.0
H194 H 0.12094 0.64989 0.3434 0.0
H195 H 0.11762 0.65421 0.31518 0.0
H196 H 0.13927 0.66236 0.24131 0.0
H197 H 0.10894 0.63285 0.19852 0.0
H198 H 0.08222 0.62762 0.21015 0.0
H199 H 0.11208 0.65726 0.25282 0.0
C200 C 0.64794 0.74987 0.45304 0.0
C201 C 0.63714 0.74301 0.4384 0.0
C202 C 0.65642 0.72453 0.43547 0.0
C203 C 0.64138 0.7305 0.42967 0.0
C204 C 0.66753 0.73196 0.44984 0.0
C205 C 0.66332 0.74449 0.45849 0.0
U206 U 0.62763 0.78592 0.46539 0.0
O207 O 0.61203 0.78534 0.48453 0.0
O208 O 0.63843 0.80301 0.48698 0.0
C209 C 0.62471 0.79672 0.49364 0.0
C210 C 0.64268 0.76119 0.46379 0.0
C211 C 0.62015 0.80692 0.5059 0.0
C212 C 0.61987 0.81184 0.53394 0.0
C213 C 0.62323 0.80253 0.52153 0.0
C214 C 0.60997 0.83018 0.51525 0.0
C215 C 0.61317 0.82582 0.53107 0.0
C216 C 0.61347 0.82081 0.50276 0.0
C217 C 0.61023 0.8058 0.42495 0.0
C218 C 0.59971 0.82784 0.41193 0.0
C219 C 0.605 0.80545 0.39624 0.0
C220 C 0.61007 0.79818 0.41011 0.0
C221 C 0.59989 0.82043 0.39699 0.0
C222 C 0.60495 0.82061 0.42581 0.0
C223 C 0.6165 0.79863 0.43951 0.0
O224 O 0.65177 0.77677 0.46556 0.0
O225 O 0.6255 0.75922 0.46339 0.0
O226 O 0.60618 0.78618 0.44507 0.0
O227 O 0.6327 0.80439 0.44788 0.0
H228 H 0.62519 0.74698 0.43393 0.0
H229 H 0.63271 0.72533 0.41849 0.0
H230 H 0.67908 0.72764 0.45479 0.0
H231 H 0.67176 0.74955 0.46981 0.0
H232 H 0.62299 0.80825 0.54587 0.0
H233 H 0.62853 0.79192 0.52422 0.0
H234 H 0.60469 0.84077 0.51249 0.0
H235 H 0.61104 0.82442 0.49075 0.0
H236 H 0.59606 0.83947 0.4129 0.0
H237 H 0.60514 0.7994 0.38491 0.0
H238 H 0.61415 0.78675 0.40926 0.0
H239 H 0.60507 0.82666 0.43722 0.0
C240 C 0.51531 0.42757 0.75321 0.0
C241 C 0.51526 0.4219 0.73758 0.0
C242 C 0.54732 0.43451 0.74102 0.0
C243 C 0.53115 0.42537 0.73152 0.0
C244 C 0.54704 0.44057 0.75647 0.0
C245 C 0.53124 0.4371 0.76248 0.0
U246 U 0.46453 0.41195 0.75053 0.0
O247 O 0.4494 0.39593 0.76588 0.0
O248 O 0.44656 0.42128 0.76351 0.0
C249 C 0.4422 0.40752 0.77047 0.0
C250 C 0.49915 0.42343 0.76035 0.0
C251 C 0.44063 0.40915 0.78737 0.0
C252 C 0.44523 0.40092 0.81445 0.0
C253 C 0.44921 0.40095 0.79912 0.0
C254 C 0.42438 0.41751 0.80658 0.0
C255 C 0.43256 0.40902 0.81832 0.0
C256 C 0.42842 0.4176 0.79137 0.0
C257 C 0.43535 0.39948 0.70831 0.0
C258 C 0.40531 0.38179 0.6996 0.0
C259 C 0.41939 0.39979 0.68149 0.0
C260 C 0.43455 0.40556 0.69329 0.0
C261 C 0.4046 0.38778 0.68443 0.0
C262 C 0.42057 0.38763 0.71148 0.0
C263 C 0.45217 0.40529 0.71993 0.0
O264 O 0.48817 0.43303 0.75741 0.0
O265 O 0.49089 0.40764 0.75947 0.0
O266 O 0.45714 0.39446 0.72925 0.0
O267 O 0.45502 0.42005 0.72722 0.0
H268 H 0.50305 0.41458 0.73019 0.0
H269 H 0.53088 0.42049 0.71959 0.0
H270 H 0.55911 0.44796 0.76399 0.0
H271 H 0.53152 0.44171 0.7745 0.0
H272 H 0.45195 0.39441 0.82321 0.0
H273 H 0.45865 0.39423 0.79638 0.0
H274 H 0.41428 0.42361 0.80889 0.0
H275 H 0.42141 0.4238 0.78249 0.0
H276 H 0.39405 0.37268 0.70229 0.0
H277 H 0.41941 0.40451 0.66991 0.0
H278 H 0.44584 0.41463 0.69059 0.0
H279 H 0.42087 0.38281 0.72303 0.0
C280 C 0.84291 0.20675 0.97065 0.0
C281 C 0.83774 0.18947 0.97121 0.0
C282 C 0.84978 0.19225 0.99968 0.0
C283 C 0.84106 0.18231 0.98559 0.0
C284 C 0.85566 0.20946 0.99881 0.0
C285 C 0.85217 0.21659 0.98451 0.0
U286 U 0.8396 0.20868 0.926 0.0
O287 O 0.81939 0.21473 0.90758 0.0
O288 O 0.84743 0.22926 0.91132 0.0
C289 C 0.83114 0.22691 0.90312 0.0
C290 C 0.83858 0.21482 0.95592 0.0
C291 C 0.82545 0.2416 0.89759 0.0
C292 C 0.80645 0.2608 0.89632 0.0
C293 C 0.81213 0.2475 0.90318 0.0
C294 C 0.82719 0.2621 0.87829 0.0
C295 C 0.81398 0.26827 0.88378 0.0
C296 C 0.8329 0.24906 0.88517 0.0
C297 C 0.85414 0.17472 0.90431 0.0
C298 C 0.84718 0.16634 0.87607 0.0
C299 C 0.86899 0.15589 0.89353 0.0
C300 C 0.86657 0.16516 0.90638 0.0
C301 C 0.85906 0.15606 0.87826 0.0
C302 C 0.84473 0.17562 0.88903 0.0
C303 C 0.8508 0.1829 0.91845 0.0
O304 O 0.85225 0.2218 0.94945 0.0
O305 O 0.82456 0.20666 0.94547 0.0
O306 O 0.834 0.18213 0.91899 0.0
O307 O 0.86164 0.19747 0.92337 0.0
H308 H 0.83079 0.18152 0.96062 0.0
H309 H 0.83624 0.16904 0.98572 0.0
H310 H 0.86285 0.21752 0.00925 0.0
H311 H 0.85653 0.2299 0.98433 0.0
H312 H 0.79627 0.26526 0.90085 0.0
H313 H 0.80606 0.24179 0.91267 0.0
H314 H 0.83294 0.26712 0.86837 0.0
H315 H 0.84295 0.24449 0.88049 0.0
H316 H 0.83948 0.1669 0.86444 0.0
H317 H 0.878 0.14792 0.89577 0.0
H318 H 0.87398 0.16441 0.9181 0.0
H319 H 0.83519 0.18312 0.88719 0.0
C320 C 0.17968 0.99874 0.34399 0.0
C321 C 0.18346 0.01602 0.34362 0.0
C322 C 0.15155 0.01468 0.33846 0.0
C323 C 0.16948 0.02395 0.34089 0.0
C324 C 0.14799 0.99743 0.33924 0.0
C325 C 0.16189 0.98957 0.34193 0.0
U326 U 0.22891 0.99769 0.35454 0.0
O327 O 0.24142 0.98069 0.36876 0.0
O328 O 0.24363 0.98245 0.34365 0.0
C329 C 0.24753 0.97539 0.35678 0.0
C330 C 0.19393 0.98988 0.34629 0.0
C331 C 0.24723 0.95769 0.3553 0.0
C332 C 0.23623 0.92985 0.34219 0.0
C333 C 0.23456 0.94612 0.34419 0.0
C334 C 0.26299 0.93658 0.36251 0.0
C335 C 0.25065 0.92494 0.35119 0.0
C336 C 0.26123 0.95269 0.36456 0.0
C337 C 0.26429 0.03953 0.36636 0.0
C338 C 0.29636 0.04627 0.36695 0.0
C339 C 0.28323 0.06563 0.37927 0.0
C340 C 0.26641 0.05468 0.37489 0.0
C341 C 0.29841 0.06176 0.37512 0.0
C342 C 0.2794 0.03522 0.36259 0.0
C343 C 0.24602 0.02898 0.36115 0.0
O344 O 0.20469 0.99215 0.33598 0.0
O345 O 0.20232 0.99016 0.36097 0.0
O346 O 0.23937 0.01959 0.37169 0.0
O347 O 0.24213 0.02154 0.34676 0.0
H348 H 0.19715 0.02334 0.34526 0.0
H349 H 0.17271 0.03724 0.34035 0.0
H350 H 0.1344 0.98993 0.33781 0.0
H351 H 0.15872 0.97626 0.34232 0.0
H352 H 0.22629 0.92117 0.33354 0.0
H353 H 0.22362 0.94972 0.33689 0.0
H354 H 0.27442 0.93346 0.36948 0.0
H355 H 0.27123 0.96147 0.3731 0.0
H356 H 0.30774 0.04288 0.36356 0.0
H357 H 0.28431 0.07719 0.38594 0.0
H358 H 0.25494 0.05816 0.37801 0.0
H359 H 0.27806 0.0235 0.35608 0.0
C360 C 0.1998 0.95381 0.66558 0.0
C361 C 0.1819 0.94877 0.6577 0.0
C362 C 0.17919 0.92145 0.66765 0.0
C363 C 0.17169 0.93268 0.65868 0.0
C364 C 0.1971 0.92667 0.67551 0.0
C365 C 0.20727 0.94267 0.67448 0.0
U366 U 0.20626 0.99959 0.6576 0.0
O367 O 0.22533 0.02171 0.67085 0.0
O368 O 0.22586 0.0156 0.64584 0.0
C369 C 0.23344 0.0254 0.6588 0.0
C370 C 0.21106 0.97054 0.66474 0.0
C371 C 0.25315 0.03044 0.66235 0.0
C372 C 0.28209 0.02742 0.65809 0.0
C373 C 0.26359 0.02102 0.65647 0.0
C374 C 0.28003 0.05231 0.67217 0.0
C375 C 0.29046 0.04332 0.66564 0.0
C376 C 0.2616 0.04593 0.67052 0.0
C377 C 0.16436 0.01545 0.64412 0.0
C378 C 0.16313 0.04415 0.64285 0.0
C379 C 0.13678 0.02203 0.63251 0.0
C380 C 0.14641 0.01038 0.63668 0.0
C381 C 0.14491 0.03903 0.6358 0.0
C382 C 0.17282 0.0324 0.64699 0.0
C383 C 0.1736 1.00267 0.64907 0.0
O384 O 0.21102 0.97576 0.65048 0.0
O385 O 0.21032 0.98191 0.6754 0.0
O386 O 0.18193 0.00436 0.66393 0.0
O387 O 0.18269 0.99809 0.63902 0.0
H388 H 0.17584 0.95725 0.65084 0.0
H389 H 0.15785 0.92914 0.65268 0.0
H390 H 0.20335 0.91832 0.68238 0.0
H391 H 0.22105 0.94634 0.68064 0.0
H392 H 0.28977 0.0201 0.6531 0.0
H393 H 0.25741 0.00898 0.65018 0.0
H394 H 0.28594 0.06466 0.67786 0.0
H395 H 0.25379 0.05343 0.67507 0.0
H396 H 0.16973 0.05716 0.64562 0.0
H397 H 0.12288 0.01769 0.62682 0.0
H398 H 0.13974 0.99734 0.63428 0.0
H399 H 0.18675 0.03652 0.65269 0.0
C400 C 0.2538 0.05276 0.88784 0.0
C401 C 0.2398 0.05049 0.89643 0.0
C402 C 0.23703 0.07861 0.89223 0.0
C403 C 0.23152 0.06334 0.89865 0.0
C404 C 0.25133 0.08082 0.88398 0.0
C405 C 0.25957 0.06806 0.8818 0.0
U406 U 0.25954 0.00873 0.89206 0.0
O407 O 0.26248 0.99038 0.87437 0.0
O408 O 0.28371 0.9992 0.89537 0.0
C409 C 0.27825 0.98963 0.88204 0.0
C410 C 0.26233 0.03936 0.88461 0.0
C411 C 0.29178 0.98737 0.87264 0.0
C412 C 0.30085 0.98386 0.84723 0.0
C413 C 0.28981 0.98938 0.85629 0.0
C414 C 0.31637 0.97483 0.87077 0.0
C415 C 0.31399 0.97609 0.85427 0.0
C416 C 0.30545 0.98044 0.8798 0.0
C417 C 0.2293 0.98167 0.91768 0.0
C418 C 0.21662 0.95196 0.91647 0.0
C419 C 0.21336 0.96984 0.93802 0.0
C420 C 0.22319 0.98352 0.93185 0.0
C421 C 0.20942 0.954 0.93012 0.0
C422 C 0.22648 0.96574 0.91025 0.0
C423 C 0.23664 0.99676 0.91023 0.0
O424 O 0.27267 0.03536 0.8968 0.0
O425 O 0.25198 0.02643 0.87555 0.0
O426 O 0.23233 0.99624 0.89469 0.0
O427 O 0.25331 0.0047 0.91591 0.0
H428 H 0.23516 0.03876 0.90122 0.0
H429 H 0.22056 0.06118 0.90505 0.0
H430 H 0.25626 0.0925 0.8792 0.0
H431 H 0.2704 0.07011 0.87525 0.0
H432 H 0.29875 0.98529 0.83461 0.0
H433 H 0.27932 0.9946 0.85039 0.0
H434 H 0.32602 0.96867 0.87667 0.0
H435 H 0.30708 0.97849 0.89233 0.0
H436 H 0.21373 0.93991 0.91009 0.0
H437 H 0.2082 0.97176 0.94866 0.0
H438 H 0.2253 0.9957 0.93777 0.0
H439 H 0.23115 0.96403 0.89931 0.0
C440 C 0.24995 0.01249 0.15833 0.0
C441 C 0.24451 0.9953 0.15465 0.0
C442 C 0.22042 0.99322 0.16958 0.0
C443 C 0.22992 0.98576 0.16024 0.0
C444 C 0.22618 0.01041 0.17349 0.0
C445 C 0.2408 0.01995 0.16788 0.0
U446 U 0.28511 0.01524 0.13292 0.0
O447 O 0.29391 0.03285 0.11568 0.0
O448 O 0.31319 0.02946 0.1363 0.0
C449 C 0.31043 0.03751 0.12361 0.0
C450 C 0.26484 0.02268 0.1519 0.0
C451 C 0.3192 0.05538 0.12506 0.0
C452 C 0.3255 0.08337 0.1375 0.0
C453 C 0.31607 0.06662 0.1361 0.0
C454 C 0.34103 0.07775 0.11674 0.0
C455 C 0.33828 0.08914 0.12793 0.0
C456 C 0.33158 0.06113 0.11532 0.0
C457 C 0.28361 0.9714 0.11371 0.0
C458 C 0.30538 0.96038 0.10276 0.0
C459 C 0.27549 0.9432 0.10184 0.0
C460 C 0.27094 0.95629 0.10916 0.0
C461 C 0.29285 0.94495 0.09892 0.0
C462 C 0.3008 0.97356 0.11021 0.0
C463 C 0.2786 0.98381 0.12329 0.0
O464 O 0.2806 0.02005 0.15707 0.0
O465 O 0.26155 0.02371 0.13648 0.0
O466 O 0.27062 0.99411 0.11565 0.0
O467 O 0.28995 0.99068 0.13627 0.0
H468 H 0.25146 0.98928 0.14733 0.0
H469 H 0.22607 0.97252 0.15723 0.0
H470 H 0.21911 0.01657 0.18054 0.0
H471 H 0.24482 0.0332 0.17082 0.0
H472 H 0.32284 0.09175 0.14614 0.0
H473 H 0.30652 0.06243 0.14373 0.0
H474 H 0.35095 0.0815 0.10938 0.0
H475 H 0.33424 0.05263 0.10677 0.0
H476 H 0.31888 0.96201 0.1007 0.0
H477 H 0.26552 0.93152 0.09886 0.0
H478 H 0.25763 0.95441 0.11178 0.0
H479 H 0.31078 0.98516 0.11368 0.0
C480 C 0.42325 0.28467 0.06284 0.0
C481 C 0.42019 0.28548 0.0785 0.0
C482 C 0.42199 0.25682 0.08104 0.0
C483 C 0.4195 0.27166 0.0875 0.0
C484 C 0.42513 0.25623 0.06538 0.0
C485 C 0.42576 0.26996 0.05645 0.0
U486 U 0.42641 0.33061 0.05771 0.0
O487 O 0.43951 0.34775 0.04188 0.0
O488 O 0.41049 0.3428 0.04054 0.0
C489 C 0.42448 0.35095 0.03511 0.0
C490 C 0.4234 0.29874 0.05277 0.0
C491 C 0.42201 0.35368 0.01804 0.0
C492 C 0.41891 0.345 0.99007 0.0
C493 C 0.42153 0.34155 0.00612 0.0
C494 C 0.41739 0.37267 0.9978 0.0
C495 C 0.41671 0.36062 0.98569 0.0
C496 C 0.42001 0.36923 0.01372 0.0
C497 C 0.43171 0.35682 0.09783 0.0
C498 C 0.44094 0.38636 0.10578 0.0
C499 C 0.42671 0.36713 0.12291 0.0
C500 C 0.42526 0.35403 0.11192 0.0
C501 C 0.43483 0.38343 0.12016 0.0
C502 C 0.43942 0.37309 0.09465 0.0
C503 C 0.43048 0.34217 0.0873 0.0
O504 O 0.40962 0.30519 0.05187 0.0
O505 O 0.43869 0.30995 0.05426 0.0
O506 O 0.444 0.34199 0.08022 0.0
O507 O 0.41481 0.3356 0.07832 0.0
H508 H 0.41825 0.29674 0.08374 0.0
H509 H 0.41719 0.27264 0.09953 0.0
H510 H 0.42678 0.245 0.05986 0.0
H511 H 0.42805 0.26901 0.0444 0.0
H512 H 0.41871 0.33546 0.98112 0.0
H513 H 0.42312 0.32948 0.00918 0.0
H514 H 0.41548 0.38471 0.995 0.0
H515 H 0.42032 0.37876 0.02274 0.0
H516 H 0.44724 0.3988 0.10332 0.0
H517 H 0.42143 0.36443 0.13364 0.0
H518 H 0.4192 0.34157 0.11454 0.0
H519 H 0.44443 0.37549 0.08375 0.0
C520 C 0.02172 0.93332 0.25746 0.0
C521 C 0.02171 0.92639 0.24229 0.0
C522 C 0.05375 0.93873 0.24542 0.0
C523 C 0.03761 0.92908 0.23632 0.0
C524 C 0.05346 0.94605 0.26037 0.0
C525 C 0.03763 0.94333 0.26632 0.0
U526 U 0.97107 0.91836 0.25388 0.0
O527 O 0.95529 0.90265 0.26898 0.0
O528 O 0.95245 0.92794 0.26584 0.0
C529 C 0.9477 0.91425 0.27281 0.0
C530 C 1.0055 0.92988 0.26449 0.0
C531 C 0.94498 0.91592 0.28933 0.0
C532 C 0.95037 0.91005 0.31713 0.0
C533 C 0.9554 0.91062 0.30218 0.0
C534 C 0.92501 0.92065 0.30664 0.0
C535 C 0.93478 0.91459 0.31935 0.0
C536 C 0.93005 0.92129 0.29184 0.0
C537 C 0.94328 0.90397 0.21149 0.0
C538 C 0.91224 0.90254 0.2003 0.0
C539 C 0.92911 0.88816 0.18633 0.0
C540 C 0.94402 0.89383 0.19841 0.0
C541 C 0.91307 0.89262 0.18694 0.0
C542 C 0.9272 0.90813 0.2125 0.0
C543 C 0.95984 0.91062 0.22327 0.0
O544 O 0.99466 0.93949 0.26078 0.0
O545 O 0.99711 0.91419 0.26416 0.0
O546 O 0.96487 0.90025 0.23311 0.0
O547 O 0.96214 0.92553 0.23006 0.0
H548 H 0.0095 0.91867 0.23522 0.0
H549 H 0.03734 0.9232 0.22479 0.0
H550 H 0.06553 0.95386 0.26755 0.0
H551 H 0.03787 0.9489 0.27798 0.0
H552 H 0.95818 0.90535 0.32671 0.0
H553 H 0.967 0.90639 0.30054 0.0
H554 H 0.91314 0.92456 0.30802 0.0
H555 H 0.92181 0.92539 0.28213 0.0
H556 H 0.9002 0.90637 0.20117 0.0
H557 H 0.93022 0.88025 0.17648 0.0
H558 H 0.95629 0.89046 0.19743 0.0
H559 H 0.92631 0.91594 0.22252 0.0
C560 C 0.09399 0.71647 0.59606 0.0
C561 C 0.09941 0.71526 0.61237 0.0
C562 C 0.09954 0.74412 0.61808 0.0
C563 C 0.10222 0.72896 0.62326 0.0
C564 C 0.09339 0.74499 0.6018 0.0
C565 C 0.09069 0.73132 0.59092 0.0
U566 U 0.08663 0.67053 0.58508 0.0
O567 O 0.0733 0.65451 0.56327 0.0
O568 O 0.10181 0.65707 0.57268 0.0
C569 C 0.08794 0.65021 0.56154 0.0
C570 C 0.09259 0.70269 0.58425 0.0
C571 C 0.0914 0.6486 0.5454 0.0
C572 C 0.0978 0.65963 0.52069 0.0
C573 C 0.09389 0.66189 0.53583 0.0
C574 C 0.09668 0.63089 0.52473 0.0
C575 C 0.09938 0.6441 0.51501 0.0
C576 C 0.09268 0.63313 0.5397 0.0
C577 C 0.07805 0.64106 0.61729 0.0
C578 C 0.08712 0.61535 0.6199 0.0
C579 C 0.0693 0.62342 0.63771 0.0
C580 C 0.06881 0.63757 0.62978 0.0
C581 C 0.07917 0.61261 0.63332 0.0
C582 C 0.08656 0.62953 0.61189 0.0
C583 C 0.08036 0.65753 0.61139 0.0
O584 O 0.10541 0.69498 0.58694 0.0
O585 O 0.07663 0.69259 0.57969 0.0
O586 O 0.06755 0.65953 0.60017 0.0
O587 O 0.09648 0.66437 0.60895 0.0
H588 H 0.10194 0.70386 0.61663 0.0
H589 H 0.10709 0.72782 0.63566 0.0
H590 H 0.09082 0.75631 0.5974 0.0
H591 H 0.08635 0.73245 0.57842 0.0
H592 H 0.0996 0.67004 0.51346 0.0
H593 H 0.09294 0.67394 0.54008 0.0
H594 H 0.09815 0.61886 0.521 0.0
H595 H 0.09087 0.62277 0.547 0.0
H596 H 0.09478 0.60718 0.61628 0.0
H597 H 0.06276 0.62139 0.64785 0.0
H598 H 0.06203 0.64625 0.63396 0.0
H599 H 0.09361 0.63197 0.60211 0.0
C600 C 0.97378 0.61248 0.81187 0.0
C601 C 0.96431 0.62468 0.80919 0.0
C602 C 0.95224 0.6191 0.83347 0.0
C603 C 0.95367 0.62797 0.81987 0.0
C604 C 0.96176 0.60688 0.83601 0.0
C605 C 0.97238 0.60362 0.82534 0.0
U606 U 0.98981 0.6166 0.77215 0.0
O607 O 0.01657 0.61957 0.76611 0.0
O608 O 0.99464 0.59801 0.75575 0.0
C609 C 0.01147 0.60591 0.75656 0.0
C610 C 0.98499 0.60866 0.80074 0.0
C611 C 0.02471 0.5963 0.75473 0.0
C612 C 0.0316 0.57024 0.74801 0.0
C613 C 0.02018 0.5789 0.75338 0.0
C614 C 0.05246 0.59617 0.74576 0.0
C615 C 0.0477 0.57876 0.7437 0.0
C616 C 0.04116 0.60477 0.75123 0.0
C617 C 0.96888 0.64404 0.74316 0.0
C618 C 0.96975 0.64525 0.71506 0.0
C619 C 0.95451 0.66249 0.72773 0.0
C620 C 0.9593 0.65616 0.74219 0.0
C621 C 0.95933 0.65689 0.71387 0.0
C622 C 0.97443 0.63882 0.72959 0.0
C623 C 0.97165 0.63636 0.7582 0.0
O624 O 0.97632 0.59945 0.78771 0.0
O625 O 0.99783 0.62107 0.79816 0.0
O626 O 0.98738 0.64176 0.76746 0.0
O627 O 0.96546 0.62022 0.75744 0.0
H628 H 0.96508 0.63161 0.79881 0.0
H629 H 0.94636 0.63729 0.81733 0.0
H630 H 0.96122 0.59993 0.84639 0.0
H631 H 0.97956 0.59415 0.82764 0.0
H632 H 0.02753 0.55685 0.7468 0.0
H633 H 1.0075 0.57197 0.75582 0.0
H634 H 0.06446 0.6033 0.74228 0.0
H635 H 0.04484 0.61817 0.7518 0.0
H636 H 0.97395 0.64082 0.70471 0.0
H637 H 0.94625 0.67116 0.72734 0.0
H638 H 0.95489 0.6603 0.75256 0.0
H639 H 0.98193 0.62949 0.73014 0.0
C640 C 0.08208 0.22547 0.45249 0.0
C641 C 0.08643 0.22259 0.43762 0.0
C642 C 0.08883 0.25148 0.43238 0.0
C643 C 0.0898 0.23545 0.42769 0.0
C644 C 0.08391 0.25417 0.44708 0.0
C645 C 0.08061 0.24128 0.45704 0.0
U646 U 0.07442 0.18001 0.45881 0.0
O647 O 0.0868 0.16651 0.47715 0.0
O648 O 0.05769 0.16342 0.47279 0.0
C649 C 0.07148 0.15931 0.48109 0.0
C650 C 0.07951 0.21216 0.46338 0.0
C651 C 0.07124 0.15613 0.49792 0.0
C652 C 0.08666 0.15666 0.52524 0.0
C653 C 0.0861 0.16259 0.51011 0.0
C654 C 0.05738 0.13812 0.51631 0.0
C655 C 0.07243 0.1441 0.52845 0.0
C656 C 0.05681 0.14408 0.5013 0.0
C657 C 0.06995 0.15193 0.42071 0.0
C658 C 0.08035 0.12775 0.41448 0.0
C659 C 0.0559 0.13421 0.39661 0.0
C660 C 0.05699 0.14795 0.40677 0.0
C661 C 0.06785 0.1242 0.40018 0.0
C662 C 0.08134 0.14148 0.42473 0.0
C663 C 0.07236 0.16786 0.42978 0.0
O664 O 0.06356 0.20184 0.46081 0.0
O665 O 0.09251 0.20466 0.46605 0.0
O666 O 0.08755 0.17357 0.43979 0.0
O667 O 0.05843 0.17013 0.43524 0.0
H668 H 0.08744 0.21042 0.43377 0.0
H669 H 0.09321 0.23284 0.41634 0.0
H670 H 0.08311 0.26634 0.4511 0.0
H671 H 0.07719 0.24374 0.46842 0.0
H672 H 0.09837 0.16171 0.53433 0.0
H673 H 0.09753 0.17178 0.50783 0.0
H674 H 0.04631 0.12823 0.51813 0.0
H675 H 0.04536 0.13863 0.49205 0.0
H676 H 0.0896 0.12014 0.41752 0.0
H677 H 0.0463 0.13191 0.38557 0.0
H678 H 0.04815 0.15589 0.4034 0.0
H679 H 0.09141 0.14421 0.43547 0.0
C680 C 0.50992 0.41707 0.28002 0.0
C681 C 0.51363 0.41622 0.26463 0.0
C682 C 0.48903 0.42842 0.25459 0.0
C683 C 0.50332 0.42183 0.25207 0.0
C684 C 0.48529 0.42909 0.27003 0.0
C685 C 0.49564 0.42346 0.28261 0.0
U686 U 0.54255 0.39188 0.2923 0.0
O687 O 0.56724 0.39609 0.31014 0.0
O688 O 0.54516 0.37414 0.31044 0.0
C689 C 0.56145 0.38251 0.31696 0.0
C690 C 0.52074 0.41097 0.2932 0.0
C691 C 0.56697 0.38283 0.3343 0.0
C692 C 0.57412 0.3964 0.36102 0.0
C693 C 0.56654 0.39587 0.34486 0.0
C694 C 0.58229 0.37082 0.3561 0.0
C695 C 0.58249 0.38405 0.36681 0.0
C696 C 0.57454 0.3702 0.34012 0.0
C697 C 0.55429 0.37185 0.25528 0.0
C698 C 0.58116 0.36446 0.25071 0.0
C699 C 0.55439 0.35756 0.2303 0.0
C700 C 0.54536 0.36436 0.24028 0.0
C701 C 0.57248 0.35805 0.23525 0.0
C702 C 0.57209 0.37142 0.26072 0.0
C703 C 0.54522 0.38169 0.26384 0.0
O704 O 0.51593 0.39493 0.29438 0.0
O705 O 0.53812 0.41676 0.29469 0.0
O706 O 0.55513 0.3957 0.2714 0.0
O707 O 0.53328 0.37356 0.27157 0.0
H708 H 0.52446 0.41113 0.26229 0.0
H709 H 0.50639 0.42071 0.24032 0.0
H710 H 0.47449 0.43414 0.27247 0.0
H711 H 0.4925 0.42411 0.29437 0.0
H712 H 0.5737 0.40667 0.36886 0.0
H713 H 0.56078 0.40578 0.34059 0.0
H714 H 0.58886 0.36125 0.35982 0.0
H715 H 0.57515 0.36011 0.33211 0.0
H716 H 0.59519 0.36507 0.25463 0.0
H717 H 0.54753 0.3527 0.21839 0.0
H718 H 0.53164 0.36462 0.23592 0.0
H719 H 0.5792 0.37716 0.27231 0.0
C720 C 0.2818 0.74725 0.89317 0.0
C721 C 0.28698 0.74921 0.87836 0.0
C722 C 0.28258 0.71939 0.8739 0.0
C723 C 0.28742 0.73542 0.86883 0.0
C724 C 0.27694 0.71753 0.88859 0.0
C725 C 0.27662 0.73134 0.89813 0.0
U726 U 0.28711 0.79321 0.89908 0.0
O727 O 0.2748 0.80851 0.91299 0.0
O728 O 0.30392 0.81188 0.91766 0.0
C729 C 0.29024 0.81618 0.92189 0.0
C730 C 0.28247 0.76177 0.90373 0.0
C731 C 0.29082 0.81903 0.93911 0.0
C732 C 0.30426 0.81751 0.96664 0.0
C733 C 0.30152 0.81221 0.9505 0.0
C734 C 0.28487 0.83579 0.96032 0.0
C735 C 0.29636 0.82973 0.97172 0.0
C736 C 0.2822 0.83053 0.94423 0.0
C737 C 0.2943 0.81595 0.8614 0.0
C738 C 0.30031 0.84559 0.85944 0.0
C739 C 0.30556 0.82786 0.83874 0.0
C740 C 0.29952 0.81407 0.84679 0.0
C741 C 0.30627 0.84372 0.84512 0.0
C742 C 0.29447 0.83175 0.86764 0.0
C743 C 0.29024 0.80132 0.87028 0.0
O744 O 0.29812 0.77253 0.90711 0.0
O745 O 0.26911 0.76872 0.90024 0.0
O746 O 0.27489 0.79795 0.87516 0.0
O747 O 0.30361 0.79946 0.88095 0.0
H748 H 0.29101 0.76144 0.8743 0.0
H749 H 0.29198 0.73739 0.85769 0.0
H750 H 0.27273 0.70539 0.89274 0.0
H751 H 0.27249 0.72959 0.90949 0.0
H752 H 0.31329 0.81262 0.975 0.0
H753 H 0.30837 0.80332 0.94689 0.0
H754 H 0.27828 0.84495 0.96377 0.0
H755 H 0.27392 0.83599 0.93567 0.0
H756 H 0.30092 0.85779 0.86459 0.0
H757 H 0.31007 0.82619 0.8277 0.0
H758 H 0.29949 0.80194 0.84186 0.0
H759 H 0.29062 0.8334 0.879 0.0
C760 C 0.94063 0.34711 0.73315 0.0
C761 C 0.93956 0.34625 0.74927 0.0
C762 C 0.97183 0.34941 0.7563 0.0
C763 C 0.955 0.34739 0.76073 0.0
C764 C 0.97266 0.34999 0.74007 0.0
C765 C 0.95725 0.34887 0.72866 0.0
U766 U 0.89041 0.34245 0.72051 0.0
O767 O 0.87552 0.3563 0.70446 0.0
O768 O 0.87122 0.32952 0.69926 0.0
C769 C 0.86714 0.34318 0.6947 0.0
C770 C 0.92473 0.34654 0.72088 0.0
C771 C 0.86445 0.34543 0.67757 0.0
C772 C 0.87241 0.36038 0.65503 0.0
C773 C 0.87682 0.3568 0.67083 0.0
C774 C 0.84353 0.34087 0.65242 0.0
C775 C 0.85549 0.35278 0.64574 0.0
C776 C 0.84801 0.33723 0.66812 0.0
C777 C 0.86219 0.33507 0.7536 0.0
C778 C 0.83793 0.34527 0.7609 0.0
C779 C 0.84397 0.3202 0.77116 0.0
C780 C 0.85779 0.3216 0.76267 0.0
C781 C 0.83421 0.33228 0.77075 0.0
C782 C 0.8518 0.34666 0.75238 0.0
C783 C 0.87884 0.33764 0.74724 0.0
O784 O 0.91303 0.3321 0.71756 0.0
O785 O 0.91726 0.3589 0.72205 0.0
O786 O 0.88524 0.3524 0.74272 0.0
O787 O 0.88026 0.32551 0.73777 0.0
H788 H 0.92684 0.34491 0.75301 0.0
H789 H 0.9538 0.3471 0.7731 0.0
H790 H 0.98525 0.35127 0.73612 0.0
H791 H 0.95835 0.3495 0.71628 0.0
H792 H 0.88211 0.3694 0.65023 0.0
H793 H 0.88962 0.36329 0.6779 0.0
H794 H 0.8303 0.33493 0.64584 0.0
H795 H 0.83822 0.3285 0.67313 0.0
H796 H 0.83047 0.35463 0.76015 0.0
H797 H 0.84165 0.31015 0.77876 0.0
H798 H 0.86566 0.31256 0.76383 0.0
H799 H 0.85481 0.35714 0.74537 0.0
C800 C 0.34573 0.24068 0.54763 0.0
C801 C 0.33615 0.23673 0.55996 0.0
C802 C 0.33714 0.26592 0.56553 0.0
C803 C 0.33187 0.2492 0.56878 0.0
C804 C 0.34698 0.26978 0.55333 0.0
C805 C 0.35121 0.25731 0.54452 0.0
U806 U 0.35614 0.19855 0.54248 0.0
O807 O 0.34833 0.17942 0.5224 0.0
O808 O 0.37683 0.19108 0.53161 0.0
C809 C 0.365 0.18003 0.5214 0.0
C810 C 0.35016 0.22778 0.53788 0.0
C811 C 0.36929 0.17638 0.50576 0.0
C812 C 0.36383 0.17502 0.47684 0.0
C813 C 0.36063 0.18077 0.49142 0.0
C814 C 0.38441 0.16073 0.49087 0.0
C815 C 0.37548 0.16463 0.47644 0.0
C816 C 0.38138 0.16658 0.50531 0.0
C817 C 0.35672 0.17383 0.57988 0.0
C818 C 0.36572 0.14817 0.58369 0.0
C819 C 0.35813 0.16255 0.60551 0.0
C820 C 0.35451 0.17465 0.59567 0.0
C821 C 0.36404 0.14934 0.59973 0.0
C822 C 0.36217 0.16045 0.57381 0.0
C823 C 0.35408 0.18768 0.57055 0.0
O824 O 0.36624 0.22554 0.54222 0.0
O825 O 0.33775 0.21382 0.53398 0.0
O826 O 0.34038 0.18457 0.5587 0.0
O827 O 0.36859 0.19738 0.56721 0.0
H828 H 0.33195 0.22401 0.56276 0.0
H829 H 0.32456 0.24573 0.57824 0.0
H830 H 0.35114 0.28242 0.55035 0.0
H831 H 0.35866 0.26067 0.53513 0.0
H832 H 0.35667 0.17813 0.46589 0.0
H833 H 0.35112 0.18821 0.49146 0.0
H834 H 0.39357 0.1529 0.491 0.0
H835 H 0.38811 0.16294 0.5162 0.0
H836 H 0.37024 0.13808 0.57896 0.0
H837 H 0.35639 0.16359 0.61771 0.0
H838 H 0.35027 0.18487 0.60052 0.0
H839 H 0.36398 0.15967 0.5616 0.0
C840 C 0.4817 0.60075 0.26758 0.0
C841 C 0.48525 0.60316 0.28422 0.0
C842 C 0.45327 0.59529 0.28455 0.0
C843 C 0.47116 0.60046 0.29263 0.0
C844 C 0.44989 0.59296 0.26787 0.0
C845 C 0.46396 0.59565 0.2595 0.0
U846 U 0.53128 0.61007 0.26565 0.0
O847 O 0.54536 0.59946 0.24958 0.0
O848 O 0.54703 0.62616 0.2507 0.0
C849 C 0.55155 0.61377 0.24408 0.0
C850 C 0.49628 0.60342 0.25847 0.0
C851 C 0.55232 0.61395 0.22704 0.0
C852 C 0.54615 0.60023 0.2004 0.0
C853 C 0.54244 0.60088 0.21579 0.0
C854 C 0.56899 0.62599 0.20718 0.0
C855 C 0.55987 0.61255 0.19613 0.0
C856 C 0.56524 0.62666 0.22244 0.0
C857 C 0.56498 0.61699 0.30522 0.0
C858 C 0.59632 0.63205 0.31081 0.0
C859 C 0.58392 0.61451 0.33005 0.0
C860 C 0.56734 0.61023 0.31987 0.0
C861 C 0.59856 0.62566 0.32578 0.0
C862 C 0.57965 0.62772 0.30058 0.0
C863 C 0.54684 0.61334 0.29561 0.0
O864 O 0.50666 0.61853 0.25998 0.0
O865 O 0.50518 0.59196 0.25903 0.0
O866 O 0.54128 0.59901 0.28716 0.0
O867 O 0.54243 0.62555 0.28804 0.0
H868 H 0.49889 0.60704 0.29068 0.0
H869 H 0.47431 0.60214 0.30546 0.0
H870 H 0.43633 0.58919 0.26123 0.0
H871 H 0.46098 0.59374 0.24667 0.0
H872 H 0.53896 0.58969 0.19214 0.0
H873 H 0.53244 0.59086 0.21906 0.0
H874 H 0.57946 0.63576 0.20419 0.0
H875 H 0.57309 0.6368 0.23092 0.0
H876 H 0.60738 0.64052 0.3071 0.0
H877 H 0.58504 0.60957 0.34155 0.0
H878 H 0.55617 0.60197 0.32365 0.0
H879 H 0.57814 0.633 0.28924 0.0
C880 C 0.1502 0.81238 0.05796 0.0
C881 C 0.14245 0.82573 0.05928 0.0
C882 C 0.14351 0.83079 0.03157 0.0
C883 C 0.13912 0.83483 0.04621 0.0
C884 C 0.15137 0.81746 0.03041 0.0
C885 C 0.15467 0.80836 0.04348 0.0
U886 U 0.15262 0.80674 0.10182 0.0
O887 O 0.14416 0.78488 0.11484 0.0
O888 O 0.17232 0.7991 0.11951 0.0
C889 C 0.16033 0.78651 0.12305 0.0
C890 C 0.15384 0.80269 0.07162 0.0
C891 C 0.1659 0.77132 0.12682 0.0
C892 C 0.17829 0.74824 0.12104 0.0
C893 C 0.17265 0.76234 0.11629 0.0
C894 C 0.1702 0.75204 0.14664 0.0
C895 C 0.17732 0.74306 0.13639 0.0
C896 C 0.16465 0.76599 0.14192 0.0
C897 C 0.1403 0.84107 0.12573 0.0
C898 C 0.14919 0.85045 0.15375 0.0
C899 C 0.1271 0.86108 0.13689 0.0
C900 C 0.12828 0.85105 0.12402 0.0
C901 C 0.13786 0.86126 0.15184 0.0
C902 C 0.15044 0.84043 0.14076 0.0
C903 C 0.143 0.83282 0.1113 0.0
O904 O 0.16791 0.80985 0.08246 0.0
O905 O 0.13988 0.79565 0.0777 0.0
O906 O 0.1315 0.81867 0.10593 0.0
O907 O 0.15958 0.83296 0.11044 0.0
H908 H 0.13903 0.82912 0.07042 0.0
H909 H 0.13331 0.84516 0.04764 0.0
H910 H 0.15476 0.81388 0.01933 0.0
H911 H 0.16068 0.79812 0.04225 0.0
H912 H 0.18369 0.74159 0.11285 0.0
H913 H 0.17369 0.76629 0.10454 0.0
H914 H 0.16875 0.74823 0.15836 0.0
H915 H 0.15939 0.77273 0.15019 0.0
H916 H 0.15749 0.85009 0.16514 0.0
H917 H 0.11847 0.8694 0.1348 0.0
H918 H 0.12038 0.85169 0.11249 0.0
H919 H 0.15974 0.83268 0.14233 0.0
C920 C 0.80884 0.00768 0.6555 0.0
C921 C 0.80438 0.99036 0.65528 0.0
C922 C 0.83596 0.99064 0.66232 0.0
C923 C 0.8178 0.98192 0.65868 0.0
C924 C 0.8403 0.00799 0.66221 0.0
C925 C 0.82688 0.01639 0.65885 0.0
U926 U 0.76001 0.00928 0.64352 0.0
O927 O 0.74483 0.02415 0.65433 0.0
O928 O 0.74806 0.02672 0.62954 0.0
C929 C 0.74161 0.03179 0.64143 0.0
C930 C 0.79492 0.01689 0.65277 0.0
C931 C 0.74172 0.04955 0.6432 0.0
C932 C 0.73759 0.0727 0.65903 0.0
C933 C 0.7421 0.0575 0.65805 0.0
C934 C 0.73338 0.0728 0.63046 0.0
C935 C 0.73249 0.08021 0.64518 0.0
C936 C 0.73783 0.05765 0.62949 0.0
C937 C 0.7241 0.96783 0.63061 0.0
C938 C 0.69419 0.95546 0.63537 0.0
C939 C 0.70355 0.94607 0.61201 0.0
C940 C 0.72016 0.95748 0.61653 0.0
C941 C 0.69048 0.94468 0.62154 0.0
C942 C 0.7108 0.96694 0.63985 0.0
C943 C 0.74259 0.97813 0.63608 0.0
O944 O 0.78704 0.01678 0.63794 0.0
O945 O 0.78367 0.01461 0.66265 0.0
O946 O 0.74666 0.98516 0.65065 0.0
O947 O 0.74962 0.98775 0.62585 0.0
H948 H 0.79051 0.9834 0.65274 0.0
H949 H 0.81389 0.9686 0.65885 0.0
H950 H 0.8541 0.0151 0.66472 0.0
H951 H 0.83059 0.02976 0.65903 0.0
H952 H 0.73701 0.078 0.67057 0.0
H953 H 0.74487 0.05155 0.66887 0.0
H954 H 0.72994 0.07839 0.61956 0.0
H955 H 0.73721 0.05182 0.61785 0.0
H956 H 0.68432 0.95487 0.64285 0.0
H957 H 0.70124 0.93787 0.60137 0.0
H958 H 0.73019 0.95782 0.60925 0.0
H959 H 0.71335 0.97478 0.65076 0.0
C960 C 0.70158 0.95346 0.33176 0.0
C961 C 0.70002 0.94048 0.34178 0.0
C962 C 0.66899 0.929 0.32871 0.0
C963 C 0.68386 0.9284 0.34029 0.0
C964 C 0.6709 0.94156 0.31822 0.0
C965 C 0.68704 0.95369 0.31979 0.0
U966 U 0.75215 0.97234 0.34483 0.0
O967 O 0.77036 0.99187 0.33487 0.0
O968 O 0.76633 0.99556 0.35932 0.0
C969 C 0.77384 1.00207 0.34771 0.0
C970 C 0.71769 0.96743 0.33428 0.0
C971 C 0.77394 0.01948 0.34549 0.0
C972 C 0.76546 0.041 0.32993 0.0
C973 C 0.76357 0.02421 0.33229 0.0
C974 C 0.78763 0.04844 0.35414 0.0
C975 C 0.77776 0.05333 0.34071 0.0
C976 C 0.7857 0.03172 0.3565 0.0
C977 C 0.7826 0.94418 0.35997 0.0
C978 C 0.81477 0.94944 0.36201 0.0
C979 C 0.79904 0.92729 0.3756 0.0
C980 C 0.78297 0.93123 0.36979 0.0
C981 C 0.81512 0.93614 0.37159 0.0
C982 C 0.79864 0.95348 0.3563 0.0
C983 C 0.7652 0.94726 0.35339 0.0
O984 O 0.72538 0.97214 0.34914 0.0
O985 O 0.72917 0.96712 0.32487 0.0
O986 O 0.76312 0.95163 0.33876 0.0
O987 O 0.75857 0.95568 0.36296 0.0
H988 H 0.71112 0.93991 0.35101 0.0
H989 H 0.68291 0.91871 0.34837 0.0
H990 H 0.65971 0.9424 0.30923 0.0
H991 H 0.68798 0.96359 0.31192 0.0
H992 H 0.75748 0.04432 0.31955 0.0
H993 H 0.75432 0.01496 0.32366 0.0
H994 H 0.79744 0.05749 0.36255 0.0
H995 H 0.79386 0.02833 0.36673 0.0
H996 H 0.82683 0.95645 0.35854 0.0
H997 H 0.7988 0.91723 0.38321 0.0
H998 H 0.77074 0.924 0.37283 0.0
H999 H 0.79867 0.96362 0.3488 0.0
C1000 C 0.76358 0.94894 0.12749 0.0
C1001 C 0.77848 0.95243 0.12 0.0
C1002 C 0.78148 0.92413 0.1224 0.0
C1003 C 0.78734 0.94011 0.11745 0.0
C1004 C 0.76627 0.9207 0.12951 0.0
C1005 C 0.75748 0.93296 0.13203 0.0
U1006 U 0.75669 0.99294 0.126 0.0
O1007 O 0.73201 1.00158 0.1233 0.0
O1008 O 0.75278 0.00964 0.14475 0.0
C1009 C 0.73702 0.01039 0.13708 0.0
C1010 C 0.75448 0.96176 0.13121 0.0
C1011 C 0.72335 0.01202 0.14659 0.0
C1012 C 0.69227 0.00827 0.14951 0.0
C1013 C 0.70512 1.00394 0.1418 0.0
C1014 C 0.71567 0.02855 0.16697 0.0
C1015 C 0.69737 0.02083 0.16208 0.0
C1016 C 0.72842 0.02418 0.15938 0.0
C1017 C 0.78713 0.02444 0.10462 0.0
C1018 C 0.78902 0.05392 0.10543 0.0
C1019 C 0.80833 0.04257 0.09154 0.0
C1020 C 0.80051 0.02678 0.09549 0.0
C1021 C 0.80288 0.0564 0.09662 0.0
C1022 C 0.78122 0.03806 0.10944 0.0
C1023 C 0.78043 0.00786 0.10971 0.0
O1024 O 0.76418 0.97421 0.14125 0.0
O1025 O 0.74453 0.9664 0.11916 0.0
O1026 O 0.76404 0.99989 0.10309 0.0
O1027 O 0.78412 0.00651 0.12504 0.0
H1028 H 0.78343 0.96472 0.1164 0.0
H1029 H 0.79908 0.94324 0.11207 0.0
H1030 H 0.7612 0.90851 0.13325 0.0
H1031 H 0.74598 0.93 0.13776 0.0
H1032 H 0.67833 1.00195 0.14547 0.0
H1033 H 0.70073 0.99468 0.13182 0.0
H1034 H 0.7202 0.03855 0.17628 0.0
H1035 H 0.74228 0.03093 0.16308 0.0
H1036 H 0.78435 0.06425 0.1094 0.0
H1037 H 0.81916 0.04398 0.08503 0.0
H1038 H 0.80528 0.01641 0.09176 0.0
H1039 H 0.77088 0.03646 0.11653 0.0
C1040 C 0.70206 0.95094 0.89057 0.0
C1041 C 0.68558 0.94995 0.89525 0.0
C1042 C 0.67874 0.91977 0.89248 0.0
C1043 C 0.67402 0.93447 0.89624 0.0
C1044 C 0.69557 0.92095 0.88841 0.0
C1045 C 0.70706 0.93636 0.88746 0.0
U1046 U 0.71475 0.99832 0.8921 0.0
O1047 O 0.7411 0.01621 0.89625 0.0
O1048 O 0.72248 0.01466 0.87362 0.0
C1049 C 0.73832 0.0217 0.88212 0.0
C1050 C 0.7137 0.96684 0.88775 0.0
C1051 C 0.75334 0.02529 0.87355 0.0
C1052 C 0.77951 0.01958 0.86519 0.0
C1053 C 0.76497 0.01497 0.87302 0.0
C1054 C 0.77072 0.04465 0.85838 0.0
C1055 C 0.78249 0.03448 0.85773 0.0
C1056 C 0.75634 0.04008 0.86615 0.0
C1057 C 0.6855 0.02244 0.90916 0.0
C1058 C 0.67692 0.04709 0.90029 0.0
C1059 C 0.67242 0.03805 0.9261 0.0
C1060 C 0.67988 0.02483 0.92351 0.0
C1061 C 0.67035 0.04893 0.91428 0.0
C1062 C 0.68454 0.034 0.89777 0.0
C1063 C 0.69066 0.00708 0.90571 0.0
O1064 O 0.70643 0.97507 0.87687 0.0
O1065 O 0.72319 0.9763 0.9004 0.0
O1066 O 0.70599 0.00568 0.91375 0.0
O1067 O 0.68784 1.00189 0.89063 0.0
H1068 H 0.68146 0.96111 0.89768 0.0
H1069 H 0.6611 0.93403 0.89927 0.0
H1070 H 0.69974 0.90991 0.88566 0.0
H1071 H 0.71973 0.93687 0.88386 0.0
H1072 H 0.78837 0.0115 0.86492 0.0
H1073 H 0.76289 1.00349 0.87872 0.0
H1074 H 0.77284 0.05641 0.85317 0.0
H1075 H 0.74764 0.0483 0.86658 0.0
H1076 H 0.67565 0.05548 0.89108 0.0
H1077 H 0.66739 0.03921 0.93695 0.0
H1078 H 0.68056 0.01608 0.93245 0.0
H1079 H 0.689 0.03256 0.88667 0.0
C1080 C 0.5798 0.72367 0.95207 0.0
C1081 C 0.58305 0.72141 0.93666 0.0
C1082 C 0.58575 0.75073 0.93298 0.0
C1083 C 0.58604 0.73479 0.92723 0.0
C1084 C 0.58212 0.75279 0.94833 0.0
C1085 C 0.57919 0.73941 0.95775 0.0
U1086 U 0.5714 0.67764 0.95708 0.0
O1087 O 0.58409 0.66366 0.97481 0.0
O1088 O 0.55506 0.66115 0.97143 0.0
C1089 C 0.56884 0.6563 0.97877 0.0
C1090 C 0.57742 0.70984 0.9624 0.0
C1091 C 0.56901 0.65136 0.99507 0.0
C1092 C 0.5764 0.6566 0.02385 0.0
C1093 C 0.57547 0.66251 0.00866 0.0
C1094 C 0.5643 0.62855 0.01186 0.0
C1095 C 0.57109 0.63948 0.02558 0.0
C1096 C 0.56329 0.63443 0.99684 0.0
C1097 C 0.56483 0.64941 0.91884 0.0
C1098 C 0.5731 0.62374 0.91385 0.0
C1099 C 0.5509 0.63183 0.89465 0.0
C1100 C 0.55265 0.64604 0.90442 0.0
C1101 C 0.5614 0.62073 0.89909 0.0
C1102 C 0.57474 0.63795 0.92372 0.0
C1103 C 0.5679 0.66555 0.92776 0.0
O1104 O 0.56133 0.69978 0.9601 0.0
O1105 O 0.59017 0.702 0.96415 0.0
O1106 O 0.58343 0.67107 0.93732 0.0
O1107 O 0.55443 0.66816 0.93377 0.0
H1108 H 0.58354 0.70934 0.932 0.0
H1109 H 0.58901 0.7327 0.91559 0.0
H1110 H 0.5815 0.76476 0.95309 0.0
H1111 H 0.5766 0.74139 0.96956 0.0
H1112 H 0.58167 0.66534 0.03419 0.0
H1113 H 0.58001 0.67565 0.00752 0.0
H1114 H 0.55972 0.61536 0.01271 0.0
H1115 H 0.55825 0.62563 0.9865 0.0
H1116 H 0.58123 0.6153 0.91759 0.0
H1117 H 0.54196 0.62996 0.88324 0.0
H1118 H 0.54492 0.65473 0.90044 0.0
H1119 H 0.58413 0.6402 0.93488 0.0
C1120 C 0.98205 0.09643 0.76742 0.0
C1121 C 0.98519 0.09154 0.78292 0.0
C1122 C 0.95422 0.08978 0.78503 0.0
C1123 C 0.9714 0.08821 0.79162 0.0
C1124 C 0.95128 0.09497 0.7696 0.0
C1125 C 0.96507 0.09824 0.76089 0.0
U1126 U 0.03136 0.10724 0.76545 0.0
O1127 O 0.04641 0.09738 0.74983 0.0
O1128 O 0.04689 0.12383 0.75067 0.0
C1129 C 0.05197 0.11173 0.74415 0.0
C1130 C 0.99637 0.09968 0.758 0.0
C1131 C 0.05199 0.11162 0.72698 0.0
C1132 C 0.04308 0.09798 0.70027 0.0
C1133 C 0.04061 0.09903 0.71602 0.0
C1134 C 0.06781 0.12242 0.70616 0.0
C1135 C 0.05702 0.10944 0.69525 0.0
C1136 C 0.06527 0.1235 0.72182 0.0
C1137 C 0.06319 0.11409 0.80648 0.0
C1138 C 0.09516 0.12668 0.81311 0.0
C1139 C 0.0791 0.11504 0.83343 0.0
C1140 C 0.06334 0.11039 0.82224 0.0
C1141 C 0.09511 0.12359 0.82912 0.0
C1142 C 0.07923 0.12199 0.80183 0.0
C1143 C 0.04582 0.1103 0.79567 0.0
O1144 O 1.00627 0.11498 0.75957 0.0
O1145 O 1.00576 0.08861 0.75823 0.0
O1146 O 0.04116 0.09613 0.78696 0.0
O1147 O 0.04173 0.12257 0.788 0.0
H1148 H 0.99828 0.09026 0.78827 0.0
H1149 H 0.97423 0.08453 0.80356 0.0
H1150 H 0.93822 0.09621 0.76413 0.0
H1151 H 0.96243 0.10209 0.74899 0.0
H1152 H 0.03433 0.08797 0.69213 0.0
H1153 H 0.03023 0.08971 0.71971 0.0
H1154 H 0.07885 0.13132 0.70289 0.0
H1155 H 0.07427 0.13324 0.73012 0.0
H1156 H 0.10731 0.13327 0.80947 0.0
H1157 H 0.07869 0.11221 0.8456 0.0
H1158 H 0.05109 0.10424 0.826 0.0
H1159 H 0.07934 0.12489 0.78965 0.0
C1160 C 0.78482 0.2571 0.39171 0.0
C1161 C 0.79006 0.25913 0.37693 0.0
C1162 C 0.78611 0.22937 0.37252 0.0
C1163 C 0.79075 0.24542 0.36744 0.0
C1164 C 0.78045 0.22743 0.38719 0.0
C1165 C 0.77987 0.24117 0.3967 0.0
U1166 U 0.79047 0.30301 0.39733 0.0
O1167 O 0.77779 0.31873 0.41035 0.0
O1168 O 0.80683 0.32169 0.41614 0.0
C1169 C 0.79307 0.32659 0.41938 0.0
C1170 C 0.78523 0.27159 0.40219 0.0
C1171 C 0.79314 0.33075 0.43625 0.0
C1172 C 0.80006 0.32651 0.46432 0.0
C1173 C 0.79762 0.32075 0.44829 0.0
C1174 C 0.79286 0.35191 0.4563 0.0
C1175 C 0.79819 0.34239 0.46851 0.0
C1176 C 0.79041 0.34616 0.4404 0.0
C1177 C 0.79944 0.32595 0.3604 0.0
C1178 C 0.8062 0.35575 0.35973 0.0
C1179 C 0.81205 0.33883 0.33874 0.0
C1180 C 0.80529 0.32466 0.34603 0.0
C1181 C 0.81299 0.35459 0.34568 0.0
C1182 C 0.79961 0.34153 0.36712 0.0
C1183 C 0.79484 0.31101 0.36875 0.0
O1184 O 0.80093 0.28224 0.406 0.0
O1185 O 0.77204 0.27869 0.39826 0.0
O1186 O 0.77918 0.30761 0.37307 0.0
O1187 O 0.80778 0.30893 0.37977 0.0
H1188 H 0.79394 0.27137 0.37286 0.0
H1189 H 0.79534 0.24746 0.35632 0.0
H1190 H 0.7764 0.21527 0.39136 0.0
H1191 H 0.77572 0.23937 0.40804 0.0
H1192 H 0.80423 0.31886 0.47339 0.0
H1193 H 0.79985 0.30881 0.44533 0.0
H1194 H 0.79096 0.36403 0.45903 0.0
H1195 H 0.78698 0.35408 0.43129 0.0
H1196 H 0.80634 0.36766 0.36523 0.0
H1197 H 0.81732 0.33741 0.32807 0.0
H1198 H 0.8053 0.31269 0.34076 0.0
H1199 H 0.79513 0.34271 0.37826 0.0
C1200 C 0.46082 0.89267 0.74345 0.0
C1201 C 0.46121 0.89021 0.75963 0.0
C1202 C 0.43541 0.90183 0.75948 0.0
C1203 C 0.44859 0.8947 0.76756 0.0
C1204 C 0.43505 0.90402 0.74324 0.0
C1205 C 0.4476 0.89954 0.73537 0.0
U1206 U 0.50294 0.87764 0.74295 0.0
O1207 O 0.51009 0.86093 0.72601 0.0
O1208 O 0.52603 0.88671 0.73139 0.0
C1209 C 0.5239 0.87236 0.7235 0.0
C1210 C 0.47417 0.8885 0.73481 0.0
C1211 C 0.52901 0.87213 0.70763 0.0
C1212 C 0.53528 0.88484 0.68341 0.0
C1213 C 0.52806 0.8847 0.69734 0.0
C1214 C 0.54439 0.85989 0.68987 0.0
C1215 C 0.54381 0.87254 0.67956 0.0
C1216 C 0.53704 0.85968 0.70361 0.0
C1217 C 0.52277 0.86707 0.78552 0.0
C1218 C 0.5466 0.854 0.79531 0.0
C1219 C 0.53258 0.86653 0.81379 0.0
C1220 C 0.52145 0.87095 0.80117 0.0
C1221 C 0.54544 0.85821 0.81107 0.0
C1222 C 0.53531 0.85845 0.78255 0.0
C1223 C 0.51049 0.87218 0.77295 0.0
O1224 O 0.49037 0.89831 0.73851 0.0
O1225 O 0.47409 0.87276 0.73336 0.0
O1226 O 0.50053 0.86077 0.76198 0.0
O1227 O 0.51631 0.88657 0.7675 0.0
H1228 H 0.47134 0.88494 0.76614 0.0
H1229 H 0.44939 0.89288 0.78006 0.0
H1230 H 0.42493 0.9091 0.73648 0.0
H1231 H 0.44698 0.9015 0.72291 0.0
H1232 H 0.53422 0.89464 0.67569 0.0
H1233 H 0.52204 0.89453 0.70017 0.0
H1234 H 0.55104 0.85035 0.68765 0.0
H1235 H 0.5382 0.84999 0.71147 0.0
H1236 H 0.55647 0.84766 0.79287 0.0
H1237 H 0.53111 0.8697 0.82575 0.0
H1238 H 0.51174 0.87747 0.80366 0.0
H1239 H 0.53645 0.8553 0.77049 0.0
C1240 C 0.93809 0.13932 0.19458 0.0
C1241 C 0.9205 0.14103 0.19218 0.0
C1242 C 0.92117 0.14514 0.16427 0.0
C1243 C 0.9121 0.14389 0.17715 0.0
C1244 C 0.93903 0.14407 0.16698 0.0
C1245 C 0.94737 0.14114 0.18198 0.0
U1246 U 0.9389 0.13313 0.23834 0.0
O1247 O 0.94423 0.11266 0.25212 0.0
O1248 O 0.96102 0.13795 0.25898 0.0
C1249 C 0.95809 0.12226 0.26176 0.0
C1250 C 0.94659 0.13471 0.20983 0.0
C1251 C 0.97388 0.11568 0.26637 0.0
C1252 C 0.99187 0.09638 0.26254 0.0
C1253 C 0.97822 0.10395 0.25661 0.0
C1254 C 0.99717 0.11252 0.28772 0.0
C1255 C 1.00112 0.10038 0.27827 0.0
C1256 C 0.98373 0.12014 0.2818 0.0
C1257 C 0.90072 0.1432 0.25651 0.0
C1258 C 0.88212 0.1296 0.27442 0.0
C1259 C 0.88506 0.15871 0.27092 0.0
C1260 C 0.89662 0.15811 0.26037 0.0
C1261 C 0.87729 0.14433 0.27763 0.0
C1262 C 0.8938 0.12904 0.264 0.0
C1263 C 0.91064 0.14235 0.24355 0.0
O1264 O 0.95333 0.14679 0.22111 0.0
O1265 O 0.93758 0.12113 0.21485 0.0
O1266 O 0.91001 0.12748 0.23752 0.0
O1267 O 0.92652 0.15267 0.24522 0.0
H1268 H 0.91311 0.13966 0.2018 0.0
H1269 H 0.89828 0.14443 0.17549 0.0
H1270 H 0.94652 0.14522 0.15744 0.0
H1271 H 0.96097 0.13993 0.18364 0.0
H1272 H 0.99471 0.08696 0.25512 0.0
H1273 H 0.97073 0.10028 0.24466 0.0
H1274 H 1.00416 0.11576 0.29989 0.0
H1275 H 0.98055 0.12908 0.28954 0.0
H1276 H 0.87648 0.11841 0.27966 0.0
H1277 H 0.8815 0.17019 0.2732 0.0
H1278 H 0.90181 0.16917 0.25473 0.0
H1279 H 0.89685 0.11739 0.2614 0.0
C1280 C 0.51622 0.125 0.75335 0.0
C1281 C 0.51517 0.12969 0.73772 0.0
C1282 C 0.4828 0.11822 0.73246 0.0
C1283 C 0.49857 0.12633 0.72735 0.0
C1284 C 0.48417 0.11315 0.74798 0.0
C1285 C 0.50066 0.11656 0.75828 0.0
U1286 U 0.56754 0.13755 0.76463 0.0
O1287 O 0.58499 0.15366 0.78504 0.0
O1288 O 0.58536 0.12755 0.78197 0.0
C1289 C 0.5911 0.14148 0.79109 0.0
C1290 C 0.53317 0.12886 0.76488 0.0
C1291 C 0.59147 0.13996 0.80814 0.0
C1292 C 0.57888 0.12698 0.82985 0.0
C1293 C 0.57726 0.12963 0.81372 0.0
C1294 C 0.60854 0.14555 0.83503 0.0
C1295 C 0.59471 0.13465 0.84062 0.0
C1296 C 0.60692 0.14816 0.81893 0.0
C1297 C 0.59475 0.1451 0.73104 0.0
C1298 C 0.62654 0.15743 0.73312 0.0
C1299 C 0.60896 0.14245 0.70856 0.0
C1300 C 0.59378 0.13925 0.71538 0.0
C1301 C 0.62552 0.15153 0.71732 0.0
C1302 C 0.61122 0.15416 0.73999 0.0
C1303 C 0.5782 0.14146 0.73743 0.0
O1304 O 0.54293 0.11816 0.76458 0.0
O1305 O 0.5426 0.14435 0.76656 0.0
O1306 O 0.57519 0.15355 0.74591 0.0
O1307 O 0.57414 0.12704 0.74331 0.0
H1308 H 0.5271 0.13614 0.73365 0.0
H1309 H 0.49804 0.13051 0.71553 0.0
H1310 H 0.47244 0.10656 0.75224 0.0
H1311 H 0.50123 0.11271 0.77024 0.0
H1312 H 0.56791 0.11866 0.83384 0.0
H1313 H 0.56517 0.12325 0.80556 0.0
H1314 H 0.62099 0.15147 0.84295 0.0
H1315 H 0.61802 0.15615 0.8148 0.0
H1316 H 0.63914 0.16443 0.74015 0.0
H1317 H 0.60762 0.13803 0.69628 0.0
H1318 H 0.58117 0.13227 0.70832 0.0
H1319 H 0.61222 0.15871 0.75217 0.0
C1320 C 0.1458 0.25048 0.94908 0.0
C1321 C 0.13996 0.24619 0.93276 0.0
C1322 C 0.15687 0.22503 0.93417 0.0
C1323 C 0.14548 0.23357 0.92535 0.0
C1324 C 0.16278 0.22964 0.95049 0.0
C1325 C 0.15728 0.24219 0.95782 0.0
U1326 U 0.12535 0.28679 0.96458 0.0
O1327 O 0.11377 0.28328 0.98623 0.0
O1328 O 0.13933 0.30144 0.98696 0.0
C1329 C 0.1267 0.29491 0.99478 0.0
C1330 C 0.13974 0.26287 0.95781 0.0
C1331 C 0.12163 0.30604 0.00601 0.0
C1332 C 0.10848 0.30882 0.02937 0.0
C1333 C 0.11137 0.29898 0.01703 0.0
C1334 C 0.12583 0.33315 0.01976 0.0
C1335 C 0.11597 0.32603 0.03116 0.0
C1336 C 0.1286 0.32329 0.00733 0.0
C1337 C 0.10378 0.30607 0.92679 0.0
C1338 C 0.08717 0.32099 0.90873 0.0
C1339 C 0.10473 0.30429 0.89863 0.0
C1340 C 0.10994 0.29984 0.91403 0.0
C1341 C 0.09341 0.31509 0.89582 0.0
C1342 C 0.09224 0.31646 0.92396 0.0
C1343 C 0.10962 0.30301 0.94339 0.0
O1344 O 0.14866 0.27851 0.95947 0.0
O1345 O 0.12273 0.26034 0.95855 0.0
O1346 O 0.10109 0.28937 0.94866 0.0
O1347 O 0.12682 0.30751 0.94935 0.0
H1348 H 0.13101 0.2524 0.92584 0.0
H1349 H 0.14047 0.23025 0.91279 0.0
H1350 H 0.17172 0.22361 0.95765 0.0
H1351 H 0.16189 0.24531 0.97046 0.0
H1352 H 0.10052 0.30282 0.03761 0.0
H1353 H 0.10597 0.28571 0.0164 0.0
H1354 H 0.13206 0.34629 0.02074 0.0
H1355 H 0.13671 0.32913 0.99911 0.0
H1356 H 0.07884 0.32962 0.90723 0.0
H1357 H 0.10968 0.29937 0.88898 0.0
H1358 H 0.11891 0.2918 0.916 0.0
H1359 H 0.08747 0.32148 0.93369 0.0
C1360 C 0.32952 0.69869 0.47183 0.0
C1361 C 0.33875 0.6862 0.47195 0.0
C1362 C 0.33387 0.68046 0.49877 0.0
C1363 C 0.34098 0.6772 0.48535 0.0
C1364 C 0.32486 0.69312 0.49853 0.0
C1365 C 0.3227 0.70208 0.48523 0.0
U1366 U 0.33141 0.70598 0.42848 0.0
O1367 O 0.31183 0.71182 0.40931 0.0
O1368 O 0.33865 0.72884 0.41651 0.0
C1369 C 0.32317 0.72538 0.4067 0.0
C1370 C 0.3265 0.70815 0.45786 0.0
C1371 C 0.31618 0.73905 0.40026 0.0
C1372 C 0.30528 0.76376 0.40242 0.0
C1373 C 0.31142 0.75081 0.40958 0.0
C1374 C 0.30884 0.75319 0.37686 0.0
C1375 C 0.30386 0.76504 0.38592 0.0
C1376 C 0.31481 0.74036 0.38393 0.0
C1377 C 0.35021 0.67587 0.40552 0.0
C1378 C 0.3421 0.66306 0.37848 0.0
C1379 C 0.36984 0.66167 0.39522 0.0
C1380 C 0.36624 0.67103 0.40739 0.0
C1381 C 0.35743 0.65696 0.38096 0.0
C1382 C 0.33847 0.67248 0.39074 0.0
C1383 C 0.34528 0.68244 0.41974 0.0
O1384 O 0.34091 0.71662 0.45321 0.0
O1385 O 0.31392 0.70028 0.44604 0.0
O1386 O 0.32812 0.68028 0.41962 0.0
O1387 O 0.35505 0.69702 0.4261 0.0
H1388 H 0.34409 0.68335 0.46166 0.0
H1389 H 0.34794 0.66752 0.4851 0.0
H1390 H 0.31954 0.69622 0.50873 0.0
H1391 H 0.31561 0.71168 0.4854 0.0
H1392 H 0.30156 0.77267 0.40975 0.0
H1393 H 0.31248 0.75001 0.42225 0.0
H1394 H 0.3085 0.75396 0.36425 0.0
H1395 H 0.3186 0.73148 0.37659 0.0
H1396 H 0.3323 0.65948 0.3676 0.0
H1397 H 0.38179 0.65716 0.39733 0.0
H1398 H 0.37548 0.67361 0.41866 0.0
H1399 H 0.32607 0.67624 0.38897 0.0
C1400 C 0.67391 0.49366 0.84643 0.0
C1401 C 0.67713 0.51084 0.8497 0.0
C1402 C 0.64526 0.50901 0.84178 0.0
C1403 C 0.66291 0.51847 0.84736 0.0
C1404 C 0.64228 0.49185 0.83836 0.0
C1405 C 0.65643 0.48429 0.8407 0.0
U1406 U 0.72342 0.49278 0.85656 0.0
O1407 O 0.73597 0.47558 0.87046 0.0
O1408 O 0.73759 0.47734 0.84523 0.0
C1409 C 0.74158 0.47012 0.85823 0.0
C1410 C 0.68839 0.48509 0.84879 0.0
C1411 C 0.7408 0.4523 0.85657 0.0
C1412 C 0.73098 0.42517 0.84191 0.0
C1413 C 0.72933 0.44141 0.84415 0.0
C1414 C 0.75521 0.43049 0.86461 0.0
C1415 C 0.74418 0.41959 0.85196 0.0
C1416 C 0.75347 0.44658 0.86689 0.0
C1417 C 0.7598 0.53402 0.86716 0.0
C1418 C 0.79036 0.53895 0.88171 0.0
C1419 C 0.78123 0.56025 0.86647 0.0
C1420 C 0.76407 0.54988 0.86184 0.0
C1421 C 0.79457 0.55501 0.87656 0.0
C1422 C 0.77312 0.5285 0.877 0.0
C1423 C 0.74118 0.52396 0.86271 0.0
O1424 O 0.69892 0.48724 0.8383 0.0
O1425 O 0.69705 0.48569 0.86343 0.0
O1426 O 0.73479 0.51473 0.87348 0.0
O1427 O 0.73647 0.51651 0.84831 0.0
H1428 H 0.69059 0.5183 0.85411 0.0
H1429 H 0.66567 0.53169 0.85016 0.0
H1430 H 0.62897 0.48422 0.83372 0.0
H1431 H 0.65369 0.47105 0.83799 0.0
H1432 H 0.72203 0.41705 0.83221 0.0
H1433 H 0.71943 0.44554 0.83601 0.0
H1434 H 0.76571 0.42683 0.87245 0.0
H1435 H 0.76258 0.45482 0.87644 0.0
H1436 H 0.80037 0.53449 0.88938 0.0
H1437 H 0.7839 0.5726 0.86248 0.0
H1438 H 0.75398 0.55438 0.8543 0.0
H1439 H 0.77015 0.51625 0.88118 0.0
C1440 C 0.70029 0.45547 0.16269 0.0
C1441 C 0.68214 0.45053 0.15552 0.0
C1442 C 0.68013 0.42292 0.16458 0.0
C1443 C 0.67214 0.43434 0.15642 0.0
C1444 C 0.69832 0.42801 0.17166 0.0
C1445 C 0.70826 0.44411 0.17072 0.0
U1446 U 0.70596 0.50137 0.1555 0.0
O1447 O 0.72474 0.5234 0.16917 0.0
O1448 O 0.72545 0.51797 0.14409 0.0
C1449 C 0.7329 0.52751 0.15723 0.0
C1450 C 0.71126 0.47235 0.16209 0.0
C1451 C 0.75264 0.53275 0.16088 0.0
C1452 C 0.78168 0.5312 0.15559 0.0
C1453 C 0.76324 0.52437 0.15385 0.0
C1454 C 0.7793 0.55436 0.1721 0.0
C1455 C 0.78985 0.54651 0.16441 0.0
C1456 C 0.76091 0.54756 0.17033 0.0
C1457 C 0.66425 0.51731 0.14253 0.0
C1458 C 0.66454 0.54626 0.14055 0.0
C1459 C 0.63688 0.52503 0.1323 0.0
C1460 C 0.64593 0.51289 0.13629 0.0
C1461 C 0.64604 0.54186 0.13448 0.0
C1462 C 0.6736 0.53406 0.14453 0.0
C1463 C 0.67317 0.50423 0.14709 0.0
O1464 O 0.71109 0.47785 0.14792 0.0
O1465 O 0.71029 0.48343 0.17294 0.0
O1466 O 0.68141 0.50551 0.16195 0.0
O1467 O 0.68238 0.49999 0.13696 0.0
H1468 H 0.67571 0.45919 0.14934 0.0
H1469 H 0.65809 0.43088 0.15103 0.0
H1470 H 0.70493 0.4195 0.17789 0.0
H1471 H 0.72224 0.44771 0.17632 0.0
H1472 H 0.78946 0.52471 0.1497 0.0
H1473 H 0.75722 0.51286 0.14656 0.0
H1474 H 0.78505 0.56624 0.17881 0.0
H1475 H 0.75299 0.55428 0.1758 0.0
H1476 H 0.67198 0.55913 0.14224 0.0
H1477 H 0.6226 0.52124 0.12791 0.0
H1478 H 0.63854 0.50001 0.13471 0.0
H1479 H 0.68782 0.53767 0.14928 0.0
C1480 C 0.76039 0.55975 0.38702 0.0
C1481 C 0.74582 0.55681 0.39494 0.0
C1482 C 0.74294 0.58501 0.39161 0.0
C1483 C 0.73719 0.56936 0.39725 0.0
C1484 C 0.75782 0.5879 0.38406 0.0
C1485 C 0.76639 0.57541 0.38178 0.0
U1486 U 0.76685 0.51597 0.39072 0.0
O1487 O 0.76984 0.49798 0.37271 0.0
O1488 O 0.79121 0.50676 0.39363 0.0
C1489 C 0.78575 0.49739 0.38018 0.0
C1490 C 0.76918 0.54663 0.3836 0.0
C1491 C 0.79927 0.49574 0.37055 0.0
C1492 C 0.80801 0.49277 0.34492 0.0
C1493 C 0.7969 0.49781 0.35421 0.0
C1494 C 0.82441 0.48415 0.36824 0.0
C1495 C 0.82161 0.48541 0.35174 0.0
C1496 C 0.81342 0.48929 0.37749 0.0
C1497 C 0.73737 0.48772 0.41574 0.0
C1498 C 0.7305 0.45774 0.4152 0.0
C1499 C 0.71844 0.47328 0.43298 0.0
C1500 C 0.72731 0.488 0.42764 0.0
C1501 C 0.71952 0.45791 0.42656 0.0
C1502 C 0.73931 0.47254 0.40978 0.0
C1503 C 0.74423 0.50332 0.40892 0.0
O1504 O 0.77965 0.54264 0.3957 0.0
O1505 O 0.75896 0.53371 0.37444 0.0
O1506 O 0.73975 0.50322 0.39344 0.0
O1507 O 0.7609 0.5113 0.41456 0.0
H1508 H 0.74099 0.54478 0.39912 0.0
H1509 H 0.72578 0.56668 0.40309 0.0
H1510 H 0.76291 0.59988 0.37989 0.0
H1511 H 0.77766 0.57796 0.37574 0.0
H1512 H 0.80559 0.49418 0.3323 0.0
H1513 H 0.78605 0.50268 0.34848 0.0
H1514 H 0.83443 0.4783 0.37397 0.0
H1515 H 0.81537 0.48732 0.39002 0.0
H1516 H 0.7319 0.44617 0.41017 0.0
H1517 H 0.70994 0.47399 0.44151 0.0
H1518 H 0.72566 0.49962 0.43234 0.0
H1519 H 0.74712 0.4721 0.40061 0.0
C1520 C 0.7439 0.51988 0.65562 0.0
C1521 C 0.73475 0.50426 0.64796 0.0
C1522 C 0.7142 0.50045 0.66663 0.0
C1523 C 0.72006 0.49466 0.6534 0.0
C1524 C 0.72371 0.51594 0.67449 0.0
C1525 C 0.7384 0.52555 0.66902 0.0
U1526 U 0.77975 0.52359 0.63075 0.0
O1527 O 0.789 0.54176 0.61411 0.0
O1528 O 0.8079 0.53777 0.63474 0.0
C1529 C 0.80545 0.5461 0.6222 0.0
C1530 C 0.75906 0.53031 0.64966 0.0
C1531 C 0.81463 0.5639 0.62389 0.0
C1532 C 0.82147 0.59186 0.63651 0.0
C1533 C 0.81162 0.57523 0.63491 0.0
C1534 C 0.83719 0.58595 0.616 0.0
C1535 C 0.83457 0.59743 0.62718 0.0
C1536 C 0.82731 0.56946 0.61437 0.0
C1537 C 0.77864 0.48039 0.61044 0.0
C1538 C 0.80099 0.46949 0.60033 0.0
C1539 C 0.77061 0.45268 0.59741 0.0
C1540 C 0.76585 0.46559 0.60482 0.0
C1541 C 0.78831 0.45431 0.59546 0.0
C1542 C 0.7962 0.48248 0.60787 0.0
C1543 C 0.77334 0.49242 0.62026 0.0
O1544 O 0.77473 0.52751 0.65491 0.0
O1545 O 0.75618 0.53199 0.63433 0.0
O1546 O 0.7655 0.50294 0.61286 0.0
O1547 O 0.78442 0.49891 0.6335 0.0
H1548 H 0.7389 0.49952 0.63772 0.0
H1549 H 0.71337 0.48264 0.64726 0.0
H1550 H 0.71958 0.52082 0.68467 0.0
H1551 H 0.74538 0.53751 0.67515 0.0
H1552 H 0.81886 0.60031 0.64512 0.0
H1553 H 0.80184 0.57119 0.64236 0.0
H1554 H 0.84733 0.5895 0.60883 0.0
H1555 H 0.82988 0.56089 0.60583 0.0
H1556 H 0.81475 0.47102 0.59903 0.0
H1557 H 0.76054 0.44119 0.59363 0.0
H1558 H 0.75225 0.46376 0.60672 0.0
H1559 H 0.80627 0.49384 0.61217 0.0
C1560 C 0.48092 0.12026 0.31358 0.0
C1561 C 0.47144 0.13236 0.31036 0.0
C1562 C 0.45864 0.12688 0.33425 0.0
C1563 C 0.46039 0.13566 0.32064 0.0
C1564 C 0.46826 0.11482 0.33732 0.0
C1565 C 0.47923 0.11156 0.32709 0.0
U1566 U 0.50074 0.12002 0.27494 0.0
O1567 O 0.52901 0.12143 0.27395 0.0
O1568 O 0.50804 0.09873 0.26471 0.0
C1569 C 0.52519 0.10614 0.26757 0.0
C1570 C 0.49275 0.11629 0.30331 0.0
C1571 C 0.53648 0.10167 0.25695 0.0
C1572 C 0.565 0.09594 0.255 0.0
C1573 C 0.55443 0.10279 0.26343 0.0
C1574 C 0.54002 0.08731 0.23303 0.0
C1575 C 0.5579 0.08786 0.23977 0.0
C1576 C 0.52937 0.09404 0.24158 0.0
C1577 C 0.48025 0.14348 0.24002 0.0
C1578 C 0.47694 0.14125 0.2113 0.0
C1579 C 0.46554 0.16153 0.22427 0.0
C1580 C 0.4719 0.15651 0.23899 0.0
C1581 C 0.46757 0.15374 0.21015 0.0
C1582 C 0.48309 0.13605 0.22612 0.0
C1583 C 0.48365 0.13695 0.25561 0.0
O1584 O 0.48505 0.10569 0.29097 0.0
O1585 O 0.50531 0.12863 0.30022 0.0
O1586 O 0.49883 0.14377 0.2653 0.0
O1587 O 0.47806 0.12089 0.25632 0.0
H1588 H 0.47254 0.13918 0.29994 0.0
H1589 H 0.45303 0.1449 0.3178 0.0
H1590 H 0.46752 0.10801 0.34777 0.0
H1591 H 0.48651 0.10222 0.32978 0.0
H1592 H 0.57855 0.09648 0.26072 0.0
H1593 H 0.56011 0.10835 0.27539 0.0
H1594 H 0.53415 0.08155 0.22119 0.0
H1595 H 0.51551 0.09288 0.23636 0.0
H1596 H 0.47912 0.13515 0.20075 0.0
H1597 H 0.45816 0.17092 0.22405 0.0
H1598 H 0.46946 0.1623 0.2496 0.0
H1599 H 0.48952 0.12594 0.22667 0.0
C1600 C 1.00385 0.91211 0.78155 0.0
C1601 C 1.00699 0.91092 0.76599 0.0
C1602 C 0.98344 0.92458 0.75667 0.0
C1603 C 0.99692 0.91708 0.7537 0.0
C1604 C 0.9802 0.92556 0.77226 0.0
C1605 C 0.99033 0.91938 0.78458 0.0
U1606 U 0.03664 0.88689 0.7929 0.0
O1607 O 0.0612 0.89077 0.81085 0.0
O1608 O 0.03921 0.86856 0.81044 0.0
C1609 C 0.05538 0.87694 0.81729 0.0
C1610 C 0.01458 0.90561 0.79446 0.0
C1611 C 0.06044 0.87701 0.83463 0.0
C1612 C 0.06579 0.88983 0.86151 0.0
C1613 C 0.05869 0.88939 0.84526 0.0
C1614 C 0.07608 0.86541 0.85654 0.0
C1615 C 0.07497 0.87803 0.86734 0.0
C1616 C 0.06882 0.86488 0.84045 0.0
C1617 C 0.04918 0.86864 0.7554 0.0
C1618 C 0.07607 0.86093 0.75135 0.0
C1619 C 0.05038 0.8561 0.72991 0.0
C1620 C 0.04097 0.86244 0.73985 0.0
C1621 C 0.06816 0.85577 0.73542 0.0
C1622 C 0.06662 0.86742 0.76133 0.0
C1623 C 0.03983 0.87793 0.76422 0.0
O1624 O 0.00987 0.88947 0.79502 0.0
O1625 O 0.03195 0.91157 0.79613 0.0
O1626 O 0.04953 0.89176 0.77227 0.0
O1627 O 0.02783 0.86929 0.77162 0.0
H1628 H 0.01725 0.90517 0.76334 0.0
H1629 H 0.99955 0.91574 0.74181 0.0
H1630 H 0.97 0.93131 0.775 0.0
H1631 H 0.98765 0.92033 0.79649 0.0
H1632 H 0.06434 0.89959 0.86942 0.0
H1633 H 0.05227 0.8989 0.84098 0.0
H1634 H 0.08331 0.8563 0.86029 0.0
H1635 H 0.07042 0.8553 0.8324 0.0
H1636 H 0.08984 0.86087 0.75575 0.0
H1637 H 0.04406 0.85214 0.71767 0.0
H1638 H 0.02753 0.8633 0.73512 0.0
H1639 H 0.07316 0.87217 0.77335 0.0
C1640 C 0.44659 0.84829 0.23723 0.0
C1641 C 0.4455 0.84328 0.25254 0.0
C1642 C 0.47795 0.85316 0.26079 0.0
C1643 C 0.46101 0.84563 0.26418 0.0
C1644 C 0.47885 0.85807 0.24537 0.0
C1645 C 0.46337 0.85563 0.23375 0.0
U1646 U 0.3961 0.84116 0.22479 0.0
O1647 O 0.37996 0.85307 0.20773 0.0
O1648 O 0.377 0.82626 0.20444 0.0
C1649 C 0.37205 0.83921 0.19887 0.0
C1650 C 0.43045 0.84631 0.22484 0.0
C1651 C 0.36917 0.84018 0.18154 0.0
C1652 C 0.3775 0.85263 0.15792 0.0
C1653 C 0.38191 0.85013 0.17403 0.0
C1654 C 0.34788 0.83481 0.1566 0.0
C1655 C 0.36023 0.84536 0.14909 0.0
C1656 C 0.35234 0.83224 0.17261 0.0
C1657 C 0.36912 0.83554 0.25898 0.0
C1658 C 0.34653 0.84637 0.26884 0.0
C1659 C 0.3515 0.82009 0.27664 0.0
C1660 C 0.36453 0.82148 0.26729 0.0
C1661 C 0.3429 0.83283 0.27805 0.0
C1662 C 0.35957 0.84774 0.25938 0.0
C1663 C 0.38543 0.83817 0.25206 0.0
O1664 O 0.41933 0.83152 0.22251 0.0
O1665 O 0.42232 0.85831 0.22503 0.0
O1666 O 0.39086 0.85251 0.24634 0.0
O1667 O 0.38728 0.82559 0.24346 0.0
H1668 H 0.43265 0.83762 0.25551 0.0
H1669 H 0.45971 0.84148 0.27581 0.0
H1670 H 0.49149 0.8642 0.24231 0.0
H1671 H 0.46448 0.85967 0.22204 0.0
H1672 H 0.38748 0.8606 0.15249 0.0
H1673 H 0.39501 0.85637 0.18071 0.0
H1674 H 0.33439 0.8292 0.15039 0.0
H1675 H 0.34229 0.82459 0.17823 0.0
H1676 H 0.34013 0.85639 0.26969 0.0
H1677 H 0.34871 0.80933 0.28333 0.0
H1678 H 0.37168 0.81191 0.26719 0.0
H1679 H 0.36276 0.85872 0.25307 0.0
C1680 C 0.84995 0.74718 0.04714 0.0
C1681 C 0.83986 0.7439 0.05921 0.0
C1682 C 0.84302 0.77353 0.06493 0.0
C1683 C 0.83641 0.7569 0.06796 0.0
C1684 C 0.85342 0.77671 0.05304 0.0
C1685 C 0.85681 0.7637 0.04428 0.0
U1686 U 0.85842 0.70412 0.04201 0.0
O1687 O 0.84904 0.68457 0.02226 0.0
O1688 O 0.87793 0.69547 0.03034 0.0
C1689 C 0.86537 0.68439 0.02075 0.0
C1690 C 0.8534 0.7337 0.03731 0.0
C1691 C 0.86875 0.67895 0.0052 0.0
C1692 C 0.86283 0.67585 0.97623 0.0
C1693 C 0.86042 0.68301 0.99056 0.0
C1694 C 0.88191 0.66071 0.99108 0.0
C1695 C 0.87336 0.66435 0.97637 0.0
C1696 C 0.87967 0.66794 0.00526 0.0
C1697 C 0.8597 0.68064 0.08039 0.0
C1698 C 0.86668 0.65418 0.08472 0.0
C1699 C 0.86162 0.67053 0.10655 0.0
C1700 C 0.85856 0.68254 0.09639 0.0
C1701 C 0.86594 0.65631 0.10092 0.0
C1702 C 0.86366 0.66634 0.0745 0.0
C1703 C 0.85733 0.69424 0.07058 0.0
O1704 O 0.86931 0.73094 0.0411 0.0
O1705 O 0.84052 0.71999 0.03394 0.0
O1706 O 0.84322 0.69122 0.05914 0.0
O1707 O 0.87183 0.70318 0.06651 0.0
H1708 H 0.83457 0.73128 0.06184 0.0
H1709 H 0.82864 0.75392 0.0772 0.0
H1710 H 0.85863 0.78925 0.05022 0.0
H1711 H 0.86469 0.76657 0.03509 0.0
H1712 H 0.85596 0.67883 0.96508 0.0
H1713 H 0.85179 0.69137 0.9902 0.0
H1714 H 0.89023 0.65206 0.99167 0.0
H1715 H 0.88613 0.66452 0.01639 0.0
H1716 H 0.87 0.64334 0.08007 0.0
H1717 H 0.86056 0.67237 0.11887 0.0
H1718 H 0.85547 0.69348 0.10111 0.0
H1719 H 0.86463 0.66472 0.06213 0.0
C1720 C 0.65921 0.31833 0.55677 0.0
C1721 C 0.64919 0.33011 0.55719 0.0
C1722 C 0.65326 0.33708 0.53044 0.0
C1723 C 0.64621 0.33936 0.54415 0.0
C1724 C 0.66347 0.32539 0.53023 0.0
C1725 C 0.66639 0.31614 0.54325 0.0
U1726 U 0.65975 0.31153 0.6003 0.0
O1727 O 0.65082 0.28919 0.61252 0.0
O1728 O 0.67884 0.30369 0.61852 0.0
C1729 C 0.66669 0.29082 0.62133 0.0
C1730 C 0.66235 0.30835 0.57034 0.0
C1731 C 0.67236 0.27563 0.62509 0.0
C1732 C 0.67728 0.24885 0.61809 0.0
C1733 C 0.67264 0.26345 0.61351 0.0
C1734 C 0.68123 0.25859 0.6457 0.0
C1735 C 0.68159 0.24621 0.6343 0.0
C1736 C 0.6768 0.2731 0.64114 0.0
C1737 C 0.6462 0.34568 0.62371 0.0
C1738 C 0.65509 0.35736 0.65112 0.0
C1739 C 0.63061 0.36433 0.63377 0.0
C1740 C 0.63261 0.35398 0.6215 0.0
C1741 C 0.64211 0.36652 0.64862 0.0
C1742 C 0.65716 0.34704 0.63873 0.0
C1743 C 0.64967 0.3374 0.60963 0.0
O1744 O 0.67603 0.31532 0.58163 0.0
O1745 O 0.64806 0.30098 0.57583 0.0
O1746 O 0.63831 0.32329 0.60387 0.0
O1747 O 0.66639 0.3376 0.60937 0.0
H1748 H 0.64366 0.33215 0.56759 0.0
H1749 H 0.63856 0.34844 0.54489 0.0
H1750 H 0.66897 0.32317 0.51987 0.0
H1751 H 0.67422 0.30716 0.54273 0.0
H1752 H 0.67751 0.23968 0.60894 0.0
H1753 H 0.66916 0.26517 0.60102 0.0
H1754 H 0.68391 0.25696 0.65826 0.0
H1755 H 0.67648 0.28229 0.65025 0.0
H1756 H 0.66399 0.35855 0.66247 0.0
H1757 H 0.62069 0.37134 0.63123 0.0
H1758 H 0.62408 0.35312 0.60998 0.0
H1759 H 0.66771 0.34065 0.64072 0.0
C1760 C 0.31355 0.5091 0.15303 0.0
C1761 C 0.30919 0.49175 0.15097 0.0
C1762 C 0.34053 0.49188 0.15984 0.0
C1763 C 0.32255 0.48323 0.15435 0.0
C1764 C 0.34478 0.50929 0.16158 0.0
C1765 C 0.33143 0.51777 0.15823 0.0
U1766 U 0.26478 0.51087 0.14077 0.0
O1767 O 0.24948 0.52538 0.15183 0.0
O1768 O 0.25302 0.52873 0.12719 0.0
C1769 C 0.24635 0.53333 0.13914 0.0
C1770 C 0.29964 0.51832 0.15035 0.0
C1771 C 0.24623 0.55097 0.1413 0.0
C1772 C 0.24645 0.57506 0.15833 0.0
C1773 C 0.25047 0.55972 0.15635 0.0
C1774 C 0.23456 0.57337 0.13021 0.0
C1775 C 0.23801 0.58189 0.14532 0.0
C1776 C 0.23865 0.55817 0.12824 0.0
C1777 C 0.22868 0.46984 0.12706 0.0
C1778 C 0.19844 0.45848 0.13149 0.0
C1779 C 0.20805 0.44779 0.10885 0.0
C1780 C 0.22481 0.45898 0.11333 0.0
C1781 C 0.1948 0.44713 0.11809 0.0
C1782 C 0.21518 0.46976 0.13592 0.0
C1783 C 0.24726 0.47987 0.13263 0.0
O1784 O 0.29195 0.51852 0.13551 0.0
O1785 O 0.28823 0.51579 0.16009 0.0
O1786 O 0.25138 0.48652 0.14734 0.0
O1787 O 0.25437 0.48975 0.12262 0.0
H1788 H 0.29543 0.48482 0.14701 0.0
H1789 H 0.31869 0.46983 0.15307 0.0
H1790 H 0.35846 0.51639 0.16555 0.0
H1791 H 0.33505 0.53116 0.15987 0.0
H1792 H 0.24953 0.58134 0.17011 0.0
H1793 H 0.25621 0.55445 0.1667 0.0
H1794 H 0.22777 0.57797 0.11993 0.0
H1795 H 0.23492 0.55158 0.11656 0.0
H1796 H 0.18842 0.45847 0.13871 0.0
H1797 H 0.20577 0.43914 0.09854 0.0
H1798 H 0.23499 0.45876 0.10634 0.0
H1799 H 0.21768 0.47805 0.14651 0.0
C1800 C 0.24576 0.50888 0.83751 0.0
C1801 C 0.26108 0.51711 0.84857 0.0
C1802 C 0.26123 0.54287 0.83606 0.0
C1803 C 0.26872 0.53401 0.84788 0.0
C1804 C 0.2459 0.53449 0.82508 0.0
C1805 C 0.2383 0.5177 0.8258 0.0
U1806 U 0.24594 0.46387 0.84555 0.0
O1807 O 0.2266 0.44513 0.8552 0.0
O1808 O 0.23083 0.44093 0.83092 0.0
C1809 C 0.22132 0.43573 0.84177 0.0
C1810 C 0.23704 0.49122 0.83784 0.0
C1811 C 0.20182 0.42949 0.8362 0.0
C1812 C 0.1712 0.43044 0.83683 0.0
C1813 C 0.18961 0.43773 0.84073 0.0
C1814 C 0.1769 0.40702 0.82313 0.0
C1815 C 0.16463 0.4148 0.82829 0.0
C1816 C 0.19526 0.41429 0.82706 0.0
C1817 C 0.29141 0.45475 0.86271 0.0
C1818 C 0.29999 0.42871 0.86254 0.0
C1819 C 0.31986 0.45303 0.87797 0.0
C1820 C 0.30747 0.46213 0.87309 0.0
C1821 C 0.31641 0.43625 0.87261 0.0
C1822 C 0.28758 0.4379 0.85761 0.0
C1823 C 0.27959 0.46529 0.85685 0.0
O1824 O 0.24072 0.48108 0.82761 0.0
O1825 O 0.23664 0.48557 0.8519 0.0
O1826 O 0.2683 0.46754 0.86584 0.0
O1827 O 0.27266 0.46319 0.84161 0.0
H1828 H 0.26713 0.51049 0.85767 0.0
H1829 H 0.28066 0.54006 0.85637 0.0
H1830 H 0.23967 0.54096 0.81595 0.0
H1831 H 0.22648 0.51158 0.81719 0.0
H1832 H 0.16213 0.43689 0.84081 0.0
H1833 H 0.1943 0.44957 0.84767 0.0
H1834 H 0.1724 0.39489 0.81673 0.0
H1835 H 0.20442 0.40771 0.82343 0.0
H1836 H 0.29681 0.41577 0.85833 0.0
H1837 H 0.33244 0.45936 0.88547 0.0
H1838 H 0.31067 0.47514 0.87711 0.0
H1839 H 0.27519 0.43195 0.84962 0.0
C1840 C 0.24717 0.43499 0.62469 0.0
C1841 C 0.26091 0.43844 0.61581 0.0
C1842 C 0.26706 0.41153 0.62057 0.0
C1843 C 0.27074 0.42678 0.61373 0.0
C1844 C 0.25301 0.40811 0.62912 0.0
C1845 C 0.24325 0.41971 0.63117 0.0
U1846 U 0.23849 0.47825 0.62264 0.0
O1847 O 0.21323 0.48608 0.61796 0.0
O1848 O 0.23198 0.4939 0.64081 0.0
C1849 C 0.21704 0.49488 0.6317 0.0
C1850 C 0.23706 0.44718 0.6278 0.0
C1851 C 0.20256 0.49846 0.63905 0.0
C1852 C 0.18251 0.49431 0.65811 0.0
C1853 C 0.19508 0.48911 0.65059 0.0
C1854 C 0.18465 0.51789 0.64237 0.0
C1855 C 0.17741 0.50899 0.65429 0.0
C1856 C 0.19703 0.5127 0.63491 0.0
C1857 C 0.26973 0.51045 0.60225 0.0
C1858 C 0.27137 0.53987 0.60235 0.0
C1859 C 0.29064 0.52826 0.58864 0.0
C1860 C 0.28299 0.5126 0.59298 0.0
C1861 C 0.28515 0.54217 0.59344 0.0
C1862 C 0.26373 0.52412 0.60675 0.0
C1863 C 0.26317 0.49396 0.60761 0.0
O1864 O 0.2457 0.45966 0.63822 0.0
O1865 O 0.22757 0.45166 0.61533 0.0
O1866 O 0.24729 0.4854 0.60031 0.0
O1867 O 0.26587 0.49297 0.62304 0.0
H1868 H 0.2642 0.45021 0.61072 0.0
H1869 H 0.28156 0.42991 0.60721 0.0
H1870 H 0.24958 0.39644 0.63435 0.0
H1871 H 0.2327 0.41678 0.63801 0.0
H1872 H 0.1773 0.48717 0.66728 0.0
H1873 H 0.19921 0.47809 0.65402 0.0
H1874 H 0.18088 0.52904 0.63885 0.0
H1875 H 0.20266 0.52011 0.62606 0.0
H1876 H 0.26667 0.55026 0.60612 0.0
H1877 H 0.3014 0.52953 0.58205 0.0
H1878 H 0.2878 0.50218 0.58945 0.0
H1879 H 0.25344 0.52267 0.61388 0.0
C1880 C 0.25619 0.50567 0.36739 0.0
C1881 C 0.26428 0.52198 0.37385 0.0
C1882 C 0.28556 0.52484 0.35589 0.0
C1883 C 0.27887 0.53144 0.36818 0.0
C1884 C 0.27705 0.5087 0.34915 0.0
C1885 C 0.26254 0.4992 0.35489 0.0
U1886 U 0.21607 0.50017 0.38811 0.0
O1887 O 0.18988 0.48217 0.38283 0.0
O1888 O 0.20752 0.48316 0.4059 0.0
C1889 C 0.19228 0.47579 0.39657 0.0
C1890 C 0.24136 0.49516 0.37365 0.0
C1891 C 0.18647 0.45767 0.3963 0.0
C1892 C 0.18557 0.42992 0.38604 0.0
C1893 C 0.19282 0.44709 0.387 0.0
C1894 C 0.16598 0.43384 0.40392 0.0
C1895 C 0.17177 0.42308 0.39425 0.0
C1896 C 0.1733 0.45089 0.40495 0.0
C1897 C 0.20187 0.53846 0.40098 0.0
C1898 C 0.17228 0.5385 0.40567 0.0
C1899 C 0.19645 0.56338 0.41224 0.0
C1900 C 0.20811 0.55499 0.40716 0.0
C1901 C 0.17831 0.55533 0.41122 0.0
C1902 C 0.18398 0.53012 0.40059 0.0
C1903 C 0.21391 0.53053 0.39408 0.0
O1904 O 0.24288 0.49621 0.38919 0.0
O1905 O 0.22523 0.49486 0.3661 0.0
O1906 O 0.20693 0.52189 0.38039 0.0
O1907 O 0.22371 0.52317 0.40391 0.0
H1908 H 0.25945 0.52732 0.38336 0.0
H1909 H 0.28491 0.54397 0.37341 0.0
H1910 H 0.2819 0.50327 0.3397 0.0
H1911 H 0.25638 0.48668 0.3497 0.0
H1912 H 0.19056 0.42205 0.37863 0.0
H1913 H 0.20305 0.45212 0.38026 0.0
H1914 H 0.15519 0.42922 0.41018 0.0
H1915 H 0.16819 0.45889 0.41215 0.0
H1916 H 0.15846 0.53188 0.40496 0.0
H1917 H 0.20149 0.57637 0.41626 0.0
H1918 H 0.22189 0.56159 0.40756 0.0
H1919 H 0.17894 0.51729 0.39597 0.0
H1920 H 0.13787 0.38453 0.08181 0.0
H1921 H 0.11988 0.39709 0.12425 0.0
H1922 H 0.09148 0.35283 0.09486 0.0
H1923 H 0.06697 0.36873 0.11143 0.0
C1924 C 0.07794 0.37694 0.12024 0.0
O1925 O 0.09314 0.37113 0.12118 0.0
H1926 H 0.08047 0.38958 0.11599 0.0
C1927 C 0.12833 0.38208 0.08969 0.0
C1928 C 0.11421 0.36769 0.08641 0.0
C1929 C 0.13077 0.39278 0.10339 0.0
C1930 C 0.11854 0.38897 0.11375 0.0
C1931 C 0.10439 0.37468 0.11071 0.0
C1932 C 0.10233 0.36395 0.09711 0.0
H1933 H 0.88429 0.92058 0.36449 0.0
H1934 H 0.88051 0.91004 0.41249 0.0
H1935 H 0.924 0.90043 0.39252 0.0
H1936 H 0.90897 0.87521 0.41331 0.0
C1937 C 0.90409 0.88303 0.42139 0.0
O1938 O 0.9096 0.89937 0.41818 0.0
H1939 H 0.88923 0.879 0.4191 0.0
C1940 C 0.88964 0.9161 0.37551 0.0
C1941 C 0.90514 0.91034 0.37674 0.0
C1942 C 0.88073 0.91598 0.38825 0.0
C1943 C 0.88745 0.91029 0.40261 0.0
C1944 C 0.90317 0.90483 0.40423 0.0
C1945 C 0.91205 0.90493 0.3913 0.0
H1946 H 0.34643 0.60196 0.60937 0.0
H1947 H 0.32274 0.61045 0.56227 0.0
H1948 H 0.37284 0.64264 0.58596 0.0
H1949 H 0.35243 0.66101 0.56665 0.0
C1950 C 0.34236 0.65083 0.55898 0.0
O1951 O 0.34832 0.63657 0.55975 0.0
H1952 H 0.3297 0.64889 0.56365 0.0
C1953 C 0.3466 0.60922 0.59915 0.0
C1954 C 0.36105 0.62283 0.59928 0.0
C1955 C 0.33264 0.60462 0.58597 0.0
C1956 C 0.33337 0.61384 0.5726 0.0
C1957 C 0.34781 0.62762 0.5726 0.0
C1958 C 0.36167 0.63209 0.58598 0.0
H1959 H 0.62759 0.10039 0.89313 0.0
H1960 H 0.62857 0.09746 0.94332 0.0
H1961 H 0.60089 0.12957 0.91756 0.0
H1962 H 0.62261 0.14391 0.94858 0.0
C1963 C 0.62085 0.13268 0.95532 0.0
O1964 O 0.61012 0.11932 0.94548 0.0
H1965 H 0.6342 0.13042 0.95958 0.0
C1966 C 0.62378 0.10396 0.90403 0.0
C1967 C 0.6133 0.11533 0.90363 0.0
C1968 C 0.62931 0.09721 0.91818 0.0
C1969 C 0.62471 0.10257 0.93224 0.0
C1970 C 0.61468 0.11438 0.932 0.0
C1971 C 0.60897 0.12074 0.91771 0.0
H1972 H 0.12779 0.59916 0.39352 0.0
H1973 H 0.13308 0.59884 0.44428 0.0
H1974 H 0.10286 0.62939 0.4189 0.0
H1975 H 0.12625 0.6444 0.44989 0.0
C1976 C 0.12451 0.63317 0.45661 0.0
O1977 O 0.11362 0.61983 0.44682 0.0
H1978 H 0.13781 0.63076 0.46075 0.0
C1979 C 0.1248 0.60332 0.40462 0.0
C1980 C 0.11438 0.61473 0.4045 0.0
C1981 C 0.13169 0.5975 0.41885 0.0
C1982 C 0.12809 0.60334 0.43316 0.0
C1983 C 0.11771 0.61483 0.43314 0.0
C1984 C 0.111 0.62064 0.41884 0.0
H1985 H 0.63447 0.88287 0.58378 0.0
H1986 H 0.61545 0.89359 0.62609 0.0
H1987 H 0.58653 0.85116 0.5944 0.0
H1988 H 0.56228 0.8663 0.61211 0.0
C1989 C 0.57336 0.87397 0.6212 0.0
O1990 O 0.58831 0.86786 0.62168 0.0
H1991 H 0.57614 0.88685 0.61752 0.0
C1992 C 0.62445 0.88013 0.59118 0.0
C1993 C 0.61 0.86606 0.58693 0.0
C1994 C 0.62666 0.89024 0.60522 0.0
C1995 C 0.61416 0.88599 0.61525 0.0
C1996 C 0.59977 0.87194 0.61143 0.0
C1997 C 0.5977 0.86198 0.59728 0.0
H1998 H 0.38188 0.41325 0.86262 0.0
H1999 H 0.37542 0.40029 0.90968 0.0
H2000 H 0.4213 0.39385 0.89168 0.0
H2001 H 0.40958 0.36816 0.9126 0.0
C2002 C 0.40136 0.37427 0.91894 0.0
O2003 O 0.40511 0.39089 0.91632 0.0
H2004 H 0.38699 0.36837 0.91411 0.0
C2005 C 0.38656 0.4084 0.87364 0.0
C2006 C 0.40272 0.40371 0.87559 0.0
C2007 C 0.37651 0.40718 0.88574 0.0
C2008 C 0.38291 0.40123 0.90014 0.0
C2009 C 0.39898 0.39633 0.90227 0.0
C2010 C 0.40882 0.39749 0.88994 0.0
H2011 H 0.86309 0.11847 0.11344 0.0
H2012 H 0.83933 0.12445 0.06559 0.0
H2013 H 0.88694 0.15995 0.08958 0.0
H2014 H 0.85824 0.17344 0.07073 0.0
C2015 C 0.85318 0.16356 0.06079 0.0
O2016 O 0.86299 0.1519 0.06305 0.0
H2017 H 0.83889 0.15768 0.06088 0.0
C2018 C 0.86285 0.12544 0.10303 0.0
C2019 C 0.87641 0.1398 0.1031 0.0
C2020 C 0.8493 0.11978 0.08968 0.0
C2021 C 0.84966 0.12861 0.07606 0.0
C2022 C 0.86311 0.14319 0.07605 0.0
C2023 C 0.87651 0.14878 0.08961 0.0
H2024 H 0.04496 0.09063 0.33473 0.0
H2025 H 0.09069 0.07258 0.35308 0.0
H2026 H 0.06656 0.06281 0.3036 0.0
H2027 H 0.07875 0.03435 0.31889 0.0
C2028 C 0.08925 0.04165 0.32869 0.0
O2029 O 0.09215 0.0582 0.32606 0.0
H2030 H 0.08436 0.03939 0.34003 0.0
C2031 C 0.05452 0.08361 0.33302 0.0
C2032 C 0.05393 0.07665 0.31779 0.0
C2033 C 0.06764 0.08225 0.34586 0.0
C2034 C 0.08048 0.07386 0.3433 0.0
C2035 C 0.08002 0.06674 0.32814 0.0
C2036 C 0.06684 0.06828 0.31531 0.0
H2037 H 0.12603 0.86996 0.69476 0.0
H2038 H 0.09756 0.81905 0.68257 0.0
H2039 H 0.13792 0.8421 0.6567 0.0
H2040 H 0.12019 0.79851 0.67565 0.0
C2041 C 0.1223 0.80208 0.66363 0.0
O2042 O 0.11413 0.81458 0.65948 0.0
H2043 H 0.13693 0.80655 0.66407 0.0
C2044 C 0.12395 0.85842 0.68765 0.0
C2045 C 0.13385 0.85771 0.67568 0.0
C2046 C 0.11084 0.84462 0.69016 0.0
C2047 C 0.10785 0.82974 0.68085 0.0
C2048 C 0.11764 0.82881 0.66882 0.0
C2049 C 0.13055 0.84283 0.66614 0.0
H2050 H 0.32645 0.91719 0.83207 0.0
H2051 H 0.35987 0.89414 0.80881 0.0
H2052 H 0.36852 0.94702 0.81198 0.0
H2053 H 0.37502 0.93064 0.78068 0.0
C2054 C 0.378 0.91941 0.78589 0.0
O2055 O 0.38 0.92161 0.80222 0.0
H2056 H 0.36648 0.90872 0.78107 0.0
C2057 C 0.33705 0.91795 0.82534 0.0
C2058 C 0.34644 0.93358 0.82217 0.0
C2059 C 0.34161 0.90355 0.82064 0.0
C2060 C 0.35608 0.90504 0.81268 0.0
C2061 C 0.36581 0.92061 0.80953 0.0
C2062 C 0.36099 0.93497 0.81431 0.0
H2063 H 0.40431 0.14074 0.15705 0.0
H2064 H 0.43379 0.1889 0.14798 0.0
H2065 H 0.38142 0.16712 0.12038 0.0
H2066 H 0.40563 0.18584 0.10167 0.0
C2067 C 0.41535 0.19453 0.11107 0.0
O2068 O 0.40891 0.19339 0.12511 0.0
H2069 H 0.42819 0.19081 0.11276 0.0
C2070 C 0.40532 0.15158 0.15037 0.0
C2071 C 0.39096 0.15226 0.13841 0.0
C2072 C 0.42091 0.16452 0.15389 0.0
C2073 C 0.42194 0.1787 0.14539 0.0
C2074 C 0.40774 0.17965 0.13326 0.0
C2075 C 0.39232 0.16635 0.12972 0.0
H2076 H 0.16807 0.9296 0.17985 0.0
H2077 H 0.12065 0.91635 0.20009 0.0
H2078 H 0.14881 0.96743 0.20113 0.0
H2079 H 0.12999 0.96111 0.22942 0.0
C2080 C 0.12228 0.94833 0.22488 0.0
O2081 O 0.12097 0.94667 0.20862 0.0
H2082 H 0.12952 0.93951 0.2306 0.0
C2083 C 0.1586 0.9331 0.18623 0.0
C2084 C 0.16032 0.94993 0.19011 0.0
C2085 C 0.14439 0.92084 0.18968 0.0
C2086 C 0.13188 0.92557 0.19749 0.0
C2087 C 0.1336 0.94231 0.20176 0.0
C2088 C 0.14786 0.95449 0.19816 0.0
H2089 H 0.30458 0.80869 0.33405 0.0
H2090 H 0.29475 0.85593 0.3234 0.0
H2091 H 0.2782 0.83279 0.36405 0.0
H2092 H 0.25207 0.85045 0.34745 0.0
C2093 C 0.26133 0.85895 0.34119 0.0
O2094 O 0.27868 0.85855 0.3472 0.0
H2095 H 0.25784 0.85465 0.32833 0.0
C2096 C 0.29912 0.81899 0.33672 0.0
C2097 C 0.29113 0.81905 0.35009 0.0
C2098 C 0.30081 0.8323 0.32713 0.0
C2099 C 0.29352 0.84548 0.33059 0.0
C2100 C 0.28521 0.84556 0.34378 0.0
C2101 C 0.28428 0.83249 0.35369 0.0
H2102 H 0.34812 0.09006 0.63989 0.0
H2103 H 0.40396 0.1138 0.65551 0.0
H2104 H 0.37734 0.07675 0.68253 0.0
H2105 H 0.40218 0.10891 0.70013 0.0
C2106 C 0.41268 0.11054 0.6927 0.0
O2107 O 0.40782 0.09779 0.68084 0.0
H2108 H 0.41365 0.12259 0.68737 0.0
C2109 C 0.36063 0.09119 0.64803 0.0
C2110 C 0.36095 0.08157 0.6611 0.0
C2111 C 0.37596 0.10303 0.64599 0.0
C2112 C 0.39195 0.10478 0.65692 0.0
C2113 C 0.39246 0.09537 0.67007 0.0
C2114 C 0.37692 0.08387 0.67224 0.0
H2115 H 0.14868 0.17065 0.88421 0.0
H2116 H 0.16747 0.12695 0.87845 0.0
H2117 H 0.19205 0.16248 0.9184 0.0
H2118 H 0.21941 0.14431 0.90972 0.0
C2119 C 0.20939 0.13659 0.89986 0.0
O2120 O 0.19261 0.13425 0.90369 0.0
H2121 H 0.21017 0.14353 0.88905 0.0
C2122 C 0.15792 0.16324 0.88819 0.0
C2123 C 0.17061 0.16857 0.90216 0.0
C2124 C 0.15636 0.14814 0.87969 0.0
C2125 C 0.16849 0.13868 0.88481 0.0
C2126 C 0.18145 0.14387 0.89866 0.0
C2127 C 0.1823 0.15869 0.90751 0.0
H2128 H 0.80466 0.30964 0.82889 0.0
H2129 H 0.78432 0.35216 0.81811 0.0
H2130 H 0.77951 0.33062 0.86229 0.0
H2131 H 0.74832 0.3455 0.8486 0.0
C2132 C 0.75573 0.35408 0.84104 0.0
O2133 O 0.77369 0.35479 0.84497 0.0
H2134 H 0.75045 0.34921 0.82843 0.0
C2135 C 0.79754 0.31857 0.83189 0.0
C2136 C 0.79216 0.31848 0.84664 0.0
C2137 C 0.79474 0.33058 0.82143 0.0
C2138 C 0.78632 0.34258 0.82587 0.0
C2139 C 0.78067 0.34248 0.84047 0.0
C2140 C 0.78341 0.33032 0.85081 0.0
H2141 H 0.84735 0.59664 0.14092 0.0
H2142 H 0.90333 0.61954 0.1571 0.0
H2143 H 0.87643 0.58057 0.18206 0.0
H2144 H 0.90284 0.60881 0.20278 0.0
C2145 C 0.91203 0.61278 0.19436 0.0
O2146 O 0.90709 0.60167 0.18109 0.0
H2147 H 0.91086 0.62525 0.19094 0.0
C2148 C 0.85982 0.59735 0.14898 0.0
C2149 C 0.86003 0.58688 0.16139 0.0
C2150 C 0.87526 0.60929 0.14734 0.0
C2151 C 0.8912 0.6105 0.1582 0.0
C2152 C 0.89162 0.6002 0.17069 0.0
C2153 C 0.87602 0.58848 0.17235 0.0
H2154 H 0.64742 0.66949 0.38206 0.0
H2155 H 0.67267 0.63002 0.37608 0.0
H2156 H 0.69093 0.66394 0.41781 0.0
H2157 H 0.72179 0.64886 0.41001 0.0
C2158 C 0.71254 0.64116 0.3997 0.0
O2159 O 0.69539 0.63756 0.40281 0.0
H2160 H 0.71343 0.64858 0.38921 0.0
C2161 C 0.65759 0.66312 0.38628 0.0
C2162 C 0.66897 0.66854 0.40102 0.0
C2163 C 0.65866 0.64922 0.37721 0.0
C2164 C 0.67167 0.64084 0.38285 0.0
C2165 C 0.68341 0.64624 0.39734 0.0
C2166 C 0.68211 0.66011 0.40642 0.0
H2167 H 0.8343 0.42705 0.33082 0.0
H2168 H 0.86787 0.40294 0.30927 0.0
H2169 H 0.87518 0.45567 0.30835 0.0
H2170 H 0.88051 0.43727 0.27776 0.0
C2171 C 0.88408 0.42656 0.28359 0.0
O2172 O 0.88675 0.42984 0.29986 0.0
H2173 H 0.87271 0.41549 0.27962 0.0
C2174 C 0.84498 0.4277 0.32417 0.0
C2175 C 0.85386 0.44299 0.31985 0.0
C2176 C 0.84995 0.41331 0.32048 0.0
C2177 C 0.86383 0.41406 0.31204 0.0
C2178 C 0.87294 0.42929 0.30756 0.0
C2179 C 0.86801 0.44386 0.31157 0.0
H2180 H 0.54019 0.58708 0.83364 0.0
H2181 H 0.58242 0.56551 0.85454 0.0
H2182 H 0.5624 0.5581 0.80422 0.0
H2183 H 0.57566 0.52918 0.81641 0.0
C2184 C 0.58251 0.53527 0.82834 0.0
O2185 O 0.586 0.55221 0.82774 0.0
H2186 H 0.57349 0.53124 0.83693 0.0
C2187 C 0.54926 0.57934 0.83259 0.0
C2188 C 0.54964 0.57262 0.81753 0.0
C2189 C 0.56091 0.57686 0.84608 0.0
C2190 C 0.57316 0.56747 0.84432 0.0
C2191 C 0.57366 0.56067 0.82928 0.0
C2192 C 0.56181 0.56316 0.81586 0.0
H2193 H 0.85101 0.61203 0.91914 0.0
H2194 H 0.87518 0.60015 0.88039 0.0
H2195 H 0.90265 0.64151 0.91411 0.0
H2196 H 0.90823 0.64605 0.87918 0.0
C2197 C 0.90496 0.63266 0.87524 0.0
O2198 O 0.90443 0.62373 0.88849 0.0
H2199 H 0.89166 0.62936 0.86723 0.0
C2200 C 0.86209 0.61448 0.91285 0.0
C2201 C 0.87691 0.62789 0.91843 0.0
C2202 C 0.86116 0.60451 0.89905 0.0
C2203 C 0.8755 0.60789 0.89089 0.0
C2204 C 0.89044 0.62119 0.89624 0.0
C2205 C 0.89103 0.63134 0.90991 0.0
H2206 H 0.09571 0.08302 0.64899 0.0
H2207 H 0.10688 0.09331 0.60258 0.0
H2208 H 0.0725 0.11776 0.6226 0.0
H2209 H 0.06091 0.10506 0.58875 0.0
C2210 C 0.07411 0.10772 0.58498 0.0
O2211 O 0.08736 0.11465 0.59788 0.0
H2212 H 0.07619 0.09581 0.58049 0.0
C2213 C 0.09367 0.08935 0.63829 0.0
C2214 C 0.08279 0.10044 0.63729 0.0
C2215 C 0.10232 0.08655 0.62587 0.0
C2216 C 0.10042 0.0954 0.61236 0.0
C2217 C 0.08964 0.10662 0.61119 0.0
C2218 C 0.08092 0.10919 0.62367 0.0
H2219 H 0.64942 0.40867 0.41538 0.0
H2220 H 0.67395 0.39492 0.45985 0.0
H2221 H 0.61898 0.37134 0.43997 0.0
H2222 H 0.62714 0.37871 0.47538 0.0
C2223 C 0.64124 0.37779 0.47779 0.0
O2224 O 0.64552 0.37261 0.46383 0.0
H2225 H 0.64996 0.39027 0.48227 0.0
C2226 C 0.64846 0.4013 0.42546 0.0
C2227 C 0.63222 0.39002 0.42618 0.0
C2228 C 0.66358 0.40316 0.43741 0.0
C2229 C 0.6624 0.39363 0.45049 0.0
C2230 C 0.64634 0.38212 0.45139 0.0
C2231 C 0.6313 0.38026 0.4392 0.0
H2232 H 0.32721 0.88713 0.10398 0.0
H2233 H 0.30327 0.88414 0.05467 0.0
H2234 H 0.32947 0.84699 0.07218 0.0
H2235 H 0.33504 0.85496 0.04046 0.0
C2236 C 0.32325 0.85991 0.03632 0.0
O2237 O 0.31177 0.8568 0.04696 0.0
H2238 H 0.32822 0.8735 0.0358 0.0
C2239 C 0.32435 0.88095 0.09214 0.0
C2240 C 0.32994 0.86653 0.08964 0.0
C2241 C 0.31469 0.88734 0.07971 0.0
C2242 C 0.31079 0.87935 0.06438 0.0
C2243 C 0.31604 0.86474 0.06169 0.0
C2244 C 0.32547 0.85826 0.07434 0.0
H2245 H 0.82197 0.3962 0.60125 0.0
H2246 H 0.80096 0.39442 0.55139 0.0
H2247 H 0.82646 0.35704 0.56943 0.0
H2248 H 0.83347 0.36448 0.53853 0.0
C2249 C 0.82251 0.37038 0.53413 0.0
O2250 O 0.81002 0.36731 0.54387 0.0
H2251 H 0.82839 0.38397 0.53452 0.0
C2252 C 0.81986 0.39032 0.58936 0.0
C2253 C 0.82578 0.37605 0.58697 0.0
C2254 C 0.8109 0.397 0.5767 0.0
C2255 C 0.80793 0.3894 0.56128 0.0
C2256 C 0.81339 0.37489 0.5587 0.0
C2257 C 0.82219 0.36817 0.57155 0.0
H2258 H 0.35429 0.11747 0.41611 0.0
H2259 H 0.38007 0.10657 0.37822 0.0
H2260 H 0.40748 0.14586 0.4143 0.0
H2261 H 0.41508 0.15282 0.38073 0.0
C2262 C 0.41103 0.13972 0.3757 0.0
O2263 O 0.40969 0.12958 0.38804 0.0
H2264 H 0.39788 0.13759 0.36756 0.0
C2265 C 0.3658 0.12006 0.41035 0.0
C2266 C 0.38094 0.13268 0.41704 0.0
C2267 C 0.36534 0.11067 0.39636 0.0
C2268 C 0.38028 0.11381 0.38902 0.0
C2269 C 0.39538 0.12664 0.39532 0.0
C2270 C 0.39568 0.13615 0.4093 0.0
H2271 H 0.59891 0.58639 0.14917 0.0
H2272 H 0.60397 0.59356 0.10065 0.0
H2273 H 0.57173 0.61871 0.12297 0.0
H2274 H 0.55719 0.61015 0.0892 0.0
C2275 C 0.56937 0.60853 0.08507 0.0
O2276 O 0.5841 0.61469 0.09691 0.0
H2277 H 0.56759 0.59503 0.08233 0.0
C2278 C 0.59575 0.59219 0.13831 0.0
C2279 C 0.58447 0.60288 0.1377 0.0
C2280 C 0.60284 0.58871 0.12508 0.0
C2281 C 0.59842 0.59597 0.11094 0.0
C2282 C 0.58729 0.60685 0.11021 0.0
C2283 C 0.58017 0.61018 0.12354 0.0
H2284 H 0.13958 0.90558 0.91883 0.0
H2285 H 0.16349 0.89079 0.96292 0.0
H2286 H 0.11023 0.86451 0.9403 0.0
H2287 H 0.11596 0.8708 0.97569 0.0
C2288 C 0.13035 0.87088 0.97872 0.0
O2289 O 0.13587 0.86654 0.96509 0.0
H2290 H 0.13808 0.88359 0.98357 0.0
C2291 C 0.1385 0.89754 0.92843 0.0
C2292 C 0.1229 0.8849 0.92791 0.0
C2293 C 0.15307 0.89979 0.94095 0.0
C2294 C 0.15229 0.88909 0.95314 0.0
C2295 C 0.13676 0.87647 0.95297 0.0
C2296 C 0.12214 0.8743 0.94031 0.0
H2297 H 0.95391 0.92672 0.68868 0.0
H2298 H 0.91219 0.94343 0.65971 0.0
H2299 H 0.92581 0.95725 0.70988 0.0
H2300 H 0.88672 0.95162 0.69648 0.0
C2301 C 0.88777 0.95304 0.68384 0.0
O2302 O 0.90529 0.96032 0.68291 0.0
H2303 H 0.88344 0.94046 0.67745 0.0
C2304 C 0.94384 0.93369 0.68748 0.0
C2305 C 0.94127 0.94198 0.70102 0.0
C2306 C 0.93329 0.93384 0.67255 0.0
C2307 C 0.92055 0.94317 0.6711 0.0
C2308 C 0.91789 0.95165 0.68451 0.0
C2309 C 0.92808 0.95087 0.69952 0.0
H2310 H 0.8183 0.11406 0.31426 0.0
H2311 H 0.82553 0.16674 0.32105 0.0
H2312 H 0.78851 0.13398 0.34408 0.0
H2313 H 0.7766 0.16251 0.33357 0.0
C2314 C 0.78962 0.17169 0.33415 0.0
O2315 O 0.80336 0.16496 0.34067 0.0
H2316 H 0.7911 0.17487 0.32189 0.0
C2317 C 0.81464 0.12461 0.31915 0.0
C2318 C 0.80189 0.12196 0.32898 0.0
C2319 C 0.8232 0.14063 0.31601 0.0
C2320 C 0.81918 0.15423 0.32328 0.0
C2321 C 0.80679 0.15178 0.33345 0.0
C2322 C 0.79817 0.1357 0.3363 0.0
H2323 H 0.58285 0.07648 0.18428 0.0
H2324 H 0.61992 0.05693 0.16287 0.0
H2325 H 0.61577 0.04934 0.21158 0.0
H2326 H 0.65428 0.05321 0.20427 0.0
C2327 C 0.64983 0.0511 0.19118 0.0
O2328 O 0.6318 0.0433 0.18793 0.0
H2329 H 0.65238 0.06338 0.18619 0.0
C2330 C 0.59272 0.0693 0.18497 0.0
C2331 C 0.59804 0.06293 0.19928 0.0
C2332 C 0.60054 0.0673 0.17185 0.0
C2333 C 0.6137 0.05849 0.17296 0.0
C2334 C 0.61913 0.05187 0.18719 0.0
C2335 C 0.61143 0.05425 0.2005 0.0
H2336 H 0.61319 0.87005 0.86271 0.0
H2337 H 0.57966 0.82348 0.87115 0.0
H2338 H 0.62911 0.84507 0.9035 0.0
H2339 H 0.62167 0.80868 0.89723 0.0
C2340 C 0.60683 0.80549 0.89431 0.0
O2341 O 0.60094 0.81944 0.89706 0.0
H2342 H 0.60269 0.80106 0.8815 0.0
C2343 C 0.61064 0.85956 0.86981 0.0
C2344 C 0.62302 0.85906 0.8835 0.0
C2345 C 0.59486 0.84699 0.86534 0.0
C2346 C 0.59179 0.83331 0.87445 0.0
C2347 C 0.60415 0.83256 0.88819 0.0
C2348 C 0.61966 0.84559 0.89284 0.0
H2349 H 0.83482 0.08831 0.84787 0.0
H2350 H 0.88161 0.10677 0.82772 0.0
H2351 H 0.85562 0.05473 0.82218 0.0
H2352 H 0.89664 0.06302 0.82711 0.0
C2353 C 0.89868 0.07578 0.8232 0.0
O2354 O 0.88242 0.07787 0.81574 0.0
H2355 H 0.90423 0.0847 0.83387 0.0
C2356 C 0.84455 0.08625 0.84099 0.0
C2357 C 0.84346 0.07012 0.83519 0.0
C2358 C 0.85819 0.09959 0.8384 0.0
C2359 C 0.87095 0.09662 0.82984 0.0
C2360 C 0.87006 0.08048 0.82402 0.0
C2361 C 0.85633 0.06717 0.82674 0.0
H2362 H 0.67342 0.19031 0.67495 0.0
H2363 H 0.68958 0.14482 0.6808 0.0
H2364 H 0.70735 0.17649 0.64546 0.0
H2365 H 0.69733 0.14003 0.6351 0.0
C2366 C 0.69902 0.13525 0.64704 0.0
O2367 O 0.70796 0.14828 0.65815 0.0
H2368 H 0.68553 0.12965 0.64964 0.0
C2369 C 0.68103 0.18183 0.67188 0.0
C2370 C 0.6908 0.18531 0.65969 0.0
C2371 C 0.68026 0.16717 0.67951 0.0
C2372 C 0.6899 0.15619 0.67505 0.0
C2373 C 0.6996 0.15948 0.6628 0.0
C2374 C 0.69999 0.17403 0.65504 0.0
H2375 H 0.61522 0.8707 0.34909 0.0
H2376 H 0.56025 0.84528 0.33198 0.0
H2377 H 0.58552 0.88593 0.30774 0.0
H2378 H 0.54843 0.88471 0.30775 0.0
C2379 C 0.54308 0.87139 0.30924 0.0
O2380 O 0.55589 0.86297 0.30764 0.0
H2381 H 0.5399 0.87026 0.32136 0.0
C2382 C 0.60292 0.86937 0.3406 0.0
C2383 C 0.60229 0.88019 0.32852 0.0
C2384 C 0.58793 0.85685 0.34202 0.0
C2385 C 0.57195 0.85495 0.33104 0.0
C2386 C 0.57117 0.86528 0.31854 0.0
C2387 C 0.58634 0.87785 0.31727 0.0
H2388 H 0.84111 0.89118 0.14214 0.0
H2389 H 0.86128 0.85239 0.12384 0.0
H2390 H 0.81242 0.86153 0.09917 0.0
H2391 H 0.81235 0.82474 0.10086 0.0
C2392 C 0.82701 0.82624 0.10234 0.0
O2393 O 0.83494 0.84235 0.09964 0.0
H2394 H 0.83204 0.8238 0.11473 0.0
C2395 C 0.83973 0.8811 0.13331 0.0
C2396 C 0.82523 0.87756 0.12054 0.0
C2397 C 0.85283 0.87222 0.13457 0.0
C2398 C 0.8513 0.85944 0.12293 0.0
C2399 C 0.83659 0.85531 0.11032 0.0
C2400 C 0.82368 0.86458 0.10898 0.0
H2401 H 0.17289 0.68738 0.17678 0.0
H2402 H 0.1912 0.64296 0.18218 0.0
H2403 H 0.20844 0.67607 0.14768 0.0
H2404 H 0.20102 0.6402 0.13681 0.0
C2405 C 0.20284 0.63515 0.14862 0.0
O2406 O 0.21044 0.64805 0.16014 0.0
H2407 H 0.18938 0.62845 0.15059 0.0
C2408 C 0.18104 0.67942 0.17368 0.0
C2409 C 0.19098 0.68367 0.1617 0.0
C2410 C 0.18083 0.66473 0.18111 0.0
C2411 C 0.19104 0.65433 0.17656 0.0
C2412 C 0.20095 0.65839 0.16454 0.0
C2413 C 0.20081 0.673 0.157 0.0
H2414 H 0.10761 0.36344 0.84603 0.0
H2415 H 0.0534 0.33579 0.82804 0.0
H2416 H 0.07791 0.37688 0.80385 0.0
H2417 H 0.04077 0.37523 0.80757 0.0
C2418 C 0.0352 0.36157 0.80639 0.0
O2419 O 0.04834 0.35384 0.80406 0.0
H2420 H 0.0307 0.35806 0.81768 0.0
C2421 C 0.09539 0.36125 0.83725 0.0
C2422 C 0.09456 0.37167 0.8249 0.0
C2423 C 0.08085 0.3481 0.83846 0.0
C2424 C 0.06489 0.34575 0.82726 0.0
C2425 C 0.06378 0.35616 0.8148 0.0
C2426 C 0.07875 0.36895 0.8135 0.0
H2427 H 0.33095 0.38337 0.64039 0.0
H2428 H 0.35176 0.34421 0.62376 0.0
H2429 H 0.30158 0.35083 0.59939 0.0
H2430 H 0.30348 0.31442 0.60174 0.0
C2431 C 0.31822 0.31666 0.6031 0.0
O2432 O 0.3252 0.33285 0.60002 0.0
H2433 H 0.32368 0.31466 0.61552 0.0
C2434 C 0.32969 0.37293 0.63201 0.0
C2435 C 0.31462 0.3682 0.61981 0.0
C2436 C 0.34317 0.36445 0.63358 0.0
C2437 C 0.34143 0.35086 0.62277 0.0
C2438 C 0.32647 0.34589 0.61045 0.0
C2439 C 0.31311 0.35467 0.6089 0.0
H2440 H 0.07617 0.57342 0.69139 0.0
H2441 H 0.10914 0.5529 0.66542 0.0
H2442 H 0.09972 0.53532 0.71051 0.0
H2443 H 0.13605 0.53028 0.70346 0.0
C2444 C 0.13374 0.53568 0.69189 0.0
O2445 O 0.11554 0.53186 0.686 0.0
H2446 H 0.13921 0.54934 0.69422 0.0
C2447 C 0.08442 0.56488 0.69035 0.0
C2448 C 0.087 0.55458 0.70248 0.0
C2449 C 0.09249 0.56458 0.67708 0.0
C2450 C 0.10278 0.55324 0.67562 0.0
C2451 C 0.1054 0.54263 0.6876 0.0
C2452 C 0.09755 0.54335 0.70115 0.0
H2453 H 0.45817 0.42721 0.1864 0.0
H2454 H 0.41457 0.44121 0.15713 0.0
H2455 H 0.43028 0.45868 0.20641 0.0
H2456 H 0.39095 0.45196 0.19363 0.0
C2457 C 0.39154 0.4533 0.18088 0.0
O2458 O 0.40897 0.46016 0.1794 0.0
H2459 H 0.38668 0.44071 0.17454 0.0
C2460 C 0.44781 0.43384 0.18491 0.0
C2461 C 0.44554 0.4429 0.19812 0.0
C2462 C 0.43649 0.43268 0.17009 0.0
C2463 C 0.42356 0.44186 0.16836 0.0
C2464 C 0.42149 0.45141 0.18135 0.0
C2465 C 0.43223 0.45164 0.19632 0.0
H2466 H 0.62856 0.37165 0.19287 0.0
H2467 H 0.59977 0.32071 0.1814 0.0
H2468 H 0.63877 0.34351 0.1541 0.0
H2469 H 0.62308 0.30047 0.1736 0.0
C2470 C 0.62406 0.30382 0.16129 0.0
O2471 O 0.61535 0.31607 0.15766 0.0
H2472 H 0.63839 0.30847 0.16056 0.0
C2473 C 0.62618 0.36005 0.18575 0.0
C2474 C 0.63552 0.35923 0.17339 0.0
C2475 C 0.61324 0.34632 0.18864 0.0
C2476 C 0.60992 0.33137 0.17937 0.0
C2477 C 0.61917 0.33035 0.16695 0.0
C2478 C 0.63184 0.34432 0.16385 0.0
H2479 H 0.90091 0.64743 0.65828 0.0
H2480 H 0.93179 0.69585 0.65174 0.0
H2481 H 0.88122 0.67474 0.62077 0.0
H2482 H 0.91566 0.69219 0.60721 0.0
C2483 C 0.91975 0.70325 0.61593 0.0
O2484 O 0.90901 0.70079 0.62727 0.0
H2485 H 0.93388 0.70461 0.62175 0.0
C2486 C 0.90252 0.65844 0.65184 0.0
C2487 C 0.88897 0.65952 0.63926 0.0
C2488 C 0.91807 0.67126 0.65636 0.0
C2489 C 0.91994 0.68572 0.64828 0.0
C2490 C 0.9068 0.68692 0.63528 0.0
C2491 C 0.89139 0.67372 0.63069 0.0
H2492 H 0.66528 0.43715 0.67526 0.0
H2493 H 0.61835 0.41826 0.69516 0.0
H2494 H 0.64186 0.47063 0.69817 0.0
H2495 H 0.62306 0.46118 0.72558 0.0
C2496 C 0.61621 0.44829 0.72068 0.0
O2497 O 0.61521 0.44725 0.70444 0.0
H2498 H 0.62417 0.4399 0.7262 0.0
C2499 C 0.65531 0.43912 0.6819 0.0
C2500 C 0.65541 0.45534 0.68665 0.0
C2501 C 0.64214 0.42557 0.68494 0.0
C2502 C 0.62881 0.42848 0.69285 0.0
C2503 C 0.62872 0.44467 0.69764 0.0
C2504 C 0.64214 0.45812 0.69468 0.0
H2505 H 0.31145 0.60285 0.81463 0.0
H2506 H 0.32045 0.65571 0.8221 0.0
H2507 H 0.28308 0.62348 0.84528 0.0
H2508 H 0.27193 0.65236 0.83492 0.0
C2509 C 0.28506 0.66135 0.83548 0.0
O2510 O 0.29862 0.65438 0.84198 0.0
H2511 H 0.28658 0.66449 0.82322 0.0
C2512 C 0.30844 0.61359 0.81986 0.0
C2513 C 0.29583 0.6112 0.82982 0.0
C2514 C 0.31733 0.62951 0.81677 0.0
C2515 C 0.31391 0.64327 0.82434 0.0
C2516 C 0.30172 0.64105 0.83471 0.0
C2517 C 0.29273 0.62505 0.83748 0.0
H2518 H 0.11199 0.36953 0.36028 0.0
H2519 H 0.08011 0.32229 0.36872 0.0
H2520 H 0.12995 0.34433 0.40032 0.0
H2521 H 0.12123 0.30717 0.39033 0.0
C2522 C 0.1067 0.30417 0.39065 0.0
O2523 O 0.10206 0.31858 0.39434 0.0
H2524 H 0.09913 0.29863 0.37872 0.0
C2525 C 0.11024 0.35884 0.36719 0.0
C2526 C 0.12312 0.35847 0.38059 0.0
C2527 C 0.09473 0.34598 0.36283 0.0
C2528 C 0.09215 0.33226 0.37188 0.0
C2529 C 0.10488 0.33164 0.38538 0.0
C2530 C 0.1203 0.3448 0.38979 0.0
H2531 H 0.33473 0.58768 0.35066 0.0
H2532 H 0.3792 0.60982 0.32908 0.0
H2533 H 0.35497 0.55746 0.32053 0.0
H2534 H 0.39497 0.56621 0.32348 0.0
C2535 C 0.39681 0.57957 0.32164 0.0
O2536 O 0.38062 0.58224 0.31463 0.0
H2537 H 0.40164 0.58656 0.33354 0.0
C2538 C 0.34395 0.5865 0.34288 0.0
C2539 C 0.34317 0.57092 0.33589 0.0
C2540 C 0.35693 0.6005 0.34067 0.0
C2541 C 0.36881 0.59912 0.33059 0.0
C2542 C 0.36811 0.58361 0.32328 0.0
C2543 C 0.35517 0.56948 0.32582 0.0
C2544 C 0.17079 0.42528 0.12647 0.0
C2545 C 0.17773 0.43398 0.11432 0.0
H2546 H 0.15097 0.40539 0.13261 0.0
C2547 C 0.16871 0.42945 0.09856 0.0
H2548 H 0.17758 0.42824 0.13872 0.0
C2549 C 0.15325 0.41641 0.09503 0.0
C2550 C 0.14653 0.40743 0.10717 0.0
H2551 H 0.17359 0.43601 0.08892 0.0
H2552 H 0.1466 0.41339 0.08276 0.0
C2553 C 0.15546 0.41215 0.12295 0.0
C2554 C 0.83175 0.91424 0.37783 0.0
C2555 C 0.83201 0.9311 0.37697 0.0
H2556 H 0.8471 0.89633 0.38243 0.0
C2557 C 0.84853 0.94297 0.38093 0.0
H2558 H 0.81939 0.9047 0.37451 0.0
C2559 C 0.86438 0.93806 0.38524 0.0
C2560 C 0.86398 0.92126 0.38595 0.0
H2561 H 0.84926 0.95605 0.38061 0.0
H2562 H 0.87701 0.94736 0.38775 0.0
C2563 C 0.84758 0.90939 0.38234 0.0
C2564 C 0.29912 0.5722 0.60209 0.0
C2565 C 0.29486 0.55904 0.59026 0.0
H2566 H 0.31403 0.59704 0.60978 0.0
C2567 C 0.30139 0.56182 0.57604 0.0
H2568 H 0.29452 0.57055 0.61324 0.0
C2569 C 0.31279 0.57705 0.57414 0.0
C2570 C 0.3179 0.58978 0.58642 0.0
H2571 H 0.29814 0.55205 0.56657 0.0
H2572 H 0.31838 0.57853 0.56344 0.0
C2573 C 0.31045 0.58737 0.60017 0.0
C2574 C 0.66328 0.07199 0.92947 0.0
C2575 C 0.65983 0.06114 0.91577 0.0
H2576 H 0.65661 0.09225 0.9409 0.0
C2577 C 0.6458 0.06161 0.90339 0.0
H2578 H 0.67397 0.07173 0.93921 0.0
C2579 C 0.6356 0.07291 0.9045 0.0
C2580 C 0.63943 0.08434 0.91786 0.0
H2581 H 0.64257 0.05306 0.89288 0.0
H2582 H 0.62467 0.07264 0.8948 0.0
C2583 C 0.65325 0.08361 0.93046 0.0
C2584 C 0.17032 0.57746 0.42708 0.0
C2585 C 0.16551 0.56487 0.4146 0.0
H2586 H 0.16333 0.59768 0.43826 0.0
C2587 C 0.1488 0.56226 0.40451 0.0
H2588 H 0.18302 0.57966 0.43516 0.0
C2589 C 0.13749 0.57237 0.40645 0.0
C2590 C 0.14266 0.58544 0.41841 0.0
H2591 H 0.14474 0.55284 0.39466 0.0
H2592 H 0.12486 0.57025 0.39825 0.0
C2593 C 0.15898 0.58765 0.42898 0.0
C2594 C 0.66659 0.92213 0.6293 0.0
C2595 C 0.67347 0.93146 0.61746 0.0
H2596 H 0.6468 0.90173 0.63476 0.0
C2597 C 0.66441 0.92756 0.60165 0.0
H2598 H 0.67338 0.92463 0.64156 0.0
C2599 C 0.64903 0.9145 0.59774 0.0
C2600 C 0.64238 0.90487 0.60953 0.0
H2601 H 0.6692 0.93463 0.59226 0.0
H2602 H 0.64236 0.91195 0.58544 0.0
C2603 C 0.65129 0.90898 0.62538 0.0
C2604 C 0.34173 0.4301 0.89177 0.0
C2605 C 0.33045 0.42712 0.87675 0.0
H2606 H 0.36515 0.42617 0.9064 0.0
C2607 C 0.33355 0.41628 0.86529 0.0
H2608 H 0.33958 0.43819 0.90097 0.0
C2609 C 0.34798 0.40916 0.86852 0.0
C2610 C 0.35978 0.41281 0.88325 0.0
H2611 H 0.32529 0.41381 0.85354 0.0
H2612 H 0.35021 0.40115 0.8593 0.0
C2613 C 0.35625 0.42304 0.89498 0.0
C2614 C 0.81672 0.08634 0.10574 0.0
C2615 C 0.81264 0.07336 0.09375 0.0
H2616 H 0.8311 0.11127 0.11363 0.0
C2617 C 0.81922 0.07643 0.0796 0.0
H2618 H 0.81208 0.08446 0.11685 0.0
C2619 C 0.83041 0.09181 0.07786 0.0
C2620 C 0.83524 0.10443 0.09023 0.0
H2621 H 0.8161 0.0668 0.07001 0.0
H2622 H 0.83595 0.09355 0.06715 0.0
C2623 C 0.82782 0.10169 0.10397 0.0
C2624 C 0.05212 0.10066 0.37995 0.0
C2625 C 0.06816 0.11113 0.38823 0.0
H2626 H 0.03947 0.0828 0.36037 0.0
C2627 C 0.08434 0.11032 0.38376 0.0
H2628 H 0.0395 0.10089 0.38329 0.0
C2629 C 0.08433 0.1001 0.37051 0.0
C2630 C 0.06814 0.09049 0.36157 0.0
H2631 H 0.09689 0.11837 0.38987 0.0
H2632 H 0.09686 0.10054 0.36671 0.0
C2633 C 0.05212 0.09036 0.36682 0.0
C2634 C 0.08815 0.83985 0.72579 0.0
C2635 C 0.0789 0.85228 0.7239 0.0
H2636 H 0.10538 0.82732 0.71613 0.0
C2637 C 0.07989 0.86172 0.71077 0.0
H2638 H 0.0875 0.83246 0.73587 0.0
C2639 C 0.09007 0.85893 0.69974 0.0
C2640 C 0.09933 0.84654 0.70154 0.0
H2641 H 0.07298 0.87146 0.70917 0.0
H2642 H 0.0908 0.86652 0.68979 0.0
C2643 C 0.09819 0.83686 0.71453 0.0
C2644 C 0.33243 0.86075 0.83558 0.0
C2645 C 0.31465 0.8583 0.83751 0.0
H2646 H 0.35506 0.87706 0.82912 0.0
C2647 C 0.30524 0.87003 0.83262 0.0
H2648 H 0.33991 0.8518 0.83933 0.0
C2649 C 0.31368 0.88425 0.82621 0.0
C2650 C 0.33188 0.88727 0.8251 0.0
H2651 H 0.29141 0.86821 0.83382 0.0
H2652 H 0.30599 0.89301 0.82243 0.0
C2653 C 0.34103 0.87516 0.82958 0.0
C2654 C 0.4554 0.17333 0.19211 0.0
C2655 C 0.45833 0.15752 0.19448 0.0
H2656 H 0.44121 0.18799 0.1775 0.0
C2657 C 0.45073 0.14483 0.18226 0.0
H2658 H 0.46136 0.18357 0.20103 0.0
C2659 C 0.4397 0.14757 0.16858 0.0
C2660 C 0.43557 0.16294 0.16683 0.0
H2661 H 0.45243 0.13246 0.18354 0.0
H2662 H 0.43372 0.13734 0.15964 0.0
C2663 C 0.44406 0.17598 0.17849 0.0
C2664 C 0.12346 0.8797 0.16606 0.0
C2665 C 0.13869 0.87412 0.1646 0.0
H2666 H 0.11331 0.89896 0.17507 0.0
C2667 C 0.15522 0.88252 0.17393 0.0
H2668 H 0.11042 0.87329 0.15938 0.0
C2669 C 0.15676 0.89696 0.18331 0.0
C2670 C 0.14188 0.90348 0.18339 0.0
H2671 H 0.16727 0.87868 0.17314 0.0
H2672 H 0.16985 0.90359 0.18974 0.0
C2673 C 0.12505 0.8943 0.17527 0.0
C2674 C 0.31574 0.83781 0.2874 0.0
C2675 C 0.33172 0.83272 0.29032 0.0
H2676 H 0.29321 0.84152 0.29675 0.0
C2677 C 0.33754 0.82798 0.30544 0.0
H2678 H 0.31095 0.84156 0.27586 0.0
C2679 C 0.32753 0.82802 0.31729 0.0
C2680 C 0.31138 0.83277 0.31436 0.0
H2681 H 0.35006 0.82449 0.30826 0.0
H2682 H 0.33259 0.8245 0.32886 0.0
C2683 C 0.30562 0.83782 0.29934 0.0
C2684 C 0.36196 0.12011 0.60677 0.0
C2685 C 0.36872 0.13719 0.61075 0.0
H2686 H 0.35906 0.09579 0.61484 0.0
C2687 C 0.37911 0.14278 0.62587 0.0
H2688 H 0.35387 0.11548 0.5952 0.0
C2689 C 0.38206 0.13161 0.63705 0.0
C2690 C 0.37467 0.11456 0.63337 0.0
H2691 H 0.38463 0.15589 0.62919 0.0
H2692 H 0.3895 0.13639 0.64881 0.0
C2693 C 0.36484 0.10888 0.61802 0.0
C2694 C 0.10935 0.13769 0.85592 0.0
C2695 C 0.11118 0.1301 0.84166 0.0
H2696 H 0.12193 0.14885 0.87907 0.0
C2697 C 0.12818 0.12859 0.83979 0.0
H2698 H 0.0965 0.13927 0.85765 0.0
C2699 C 0.14297 0.13433 0.85214 0.0
C2700 C 0.141 0.14183 0.86642 0.0
H2701 H 0.12995 0.12273 0.82894 0.0
H2702 H 0.15594 0.13304 0.85047 0.0
C2703 C 0.124 0.14338 0.86814 0.0
C2704 C 0.82162 0.34686 0.79028 0.0
C2705 C 0.8216 0.33212 0.78182 0.0
H2706 H 0.81317 0.35791 0.80947 0.0
C2707 C 0.8109 0.3171 0.78529 0.0
H2708 H 0.82989 0.35862 0.78807 0.0
C2709 C 0.80134 0.31671 0.7976 0.0
C2710 C 0.80226 0.33132 0.8067 0.0
H2711 H 0.81034 0.30557 0.77881 0.0
H2712 H 0.79368 0.30488 0.80034 0.0
C2713 C 0.81203 0.34646 0.80258 0.0
C2714 C 0.86218 0.62697 0.10822 0.0
C2715 C 0.8697 0.64398 0.11216 0.0
H2716 H 0.8582 0.6026 0.11624 0.0
C2717 C 0.88009 0.64931 0.12735 0.0
H2718 H 0.85405 0.6225 0.09664 0.0
C2719 C 0.88235 0.63799 0.13857 0.0
C2720 C 0.87431 0.62104 0.13487 0.0
H2721 H 0.88624 0.66232 0.13067 0.0
H2722 H 0.88989 0.64259 0.15034 0.0
C2723 C 0.86443 0.61562 0.11949 0.0
C2724 C 0.62488 0.64813 0.33959 0.0
C2725 C 0.61562 0.63132 0.33743 0.0
H2726 H 0.646 0.66692 0.35367 0.0
C2727 C 0.62192 0.62022 0.34745 0.0
H2728 H 0.62034 0.65704 0.33218 0.0
C2729 C 0.63648 0.62592 0.35989 0.0
C2730 C 0.64512 0.64285 0.36258 0.0
H2731 H 0.61527 0.60716 0.34596 0.0
H2732 H 0.64041 0.61717 0.36787 0.0
C2733 C 0.63947 0.65382 0.35202 0.0
C2734 C 0.82125 0.37036 0.32245 0.0
C2735 C 0.82226 0.36967 0.33896 0.0
H2736 H 0.82963 0.38474 0.30361 0.0
C2737 C 0.83298 0.38328 0.34916 0.0
H2738 H 0.81295 0.3602 0.31423 0.0
C2739 C 0.84224 0.39726 0.34304 0.0
C2740 C 0.84123 0.39787 0.32663 0.0
H2741 H 0.83449 0.38309 0.36192 0.0
H2742 H 0.85024 0.40766 0.35115 0.0
C2743 C 0.83078 0.38433 0.31634 0.0
C2744 C 0.57732 0.60455 0.88425 0.0
C2745 C 0.56121 0.60701 0.88759 0.0
H2746 H 0.58989 0.5931 0.86839 0.0
C2747 C 0.54499 0.59762 0.87855 0.0
H2748 H 0.59003 0.61173 0.89096 0.0
C2749 C 0.54489 0.58683 0.86575 0.0
C2750 C 0.56103 0.58537 0.86158 0.0
H2751 H 0.53236 0.59909 0.88102 0.0
H2752 H 0.53217 0.58018 0.85866 0.0
C2753 C 0.57724 0.59385 0.87133 0.0
C2754 C 0.82078 0.57697 0.87153 0.0
C2755 C 0.8125 0.5666 0.88207 0.0
H2756 H 0.84259 0.597 0.86862 0.0
C2757 C 0.82098 0.56814 0.89808 0.0
H2758 H 0.81471 0.57599 0.85909 0.0
C2759 C 0.83698 0.58017 0.90352 0.0
C2760 C 0.84496 0.59084 0.89306 0.0
H2761 H 0.81492 0.56045 0.90653 0.0
H2762 H 0.84303 0.58127 0.91598 0.0
C2763 C 0.83684 0.58891 0.87695 0.0
C2764 C 0.11669 0.04769 0.63603 0.0
C2765 C 0.134 0.05117 0.6326 0.0
H2766 H 0.09303 0.05589 0.63614 0.0
C2767 C 0.14063 0.06622 0.62628 0.0
H2768 H 0.11125 0.03634 0.64113 0.0
C2769 C 0.13018 0.07759 0.62358 0.0
C2770 C 0.11299 0.07413 0.62727 0.0
H2771 H 0.15387 0.06918 0.6234 0.0
H2772 H 0.13569 0.08924 0.61901 0.0
C2773 C 0.1063 0.05897 0.63332 0.0
C2774 C 0.70311 0.44072 0.44557 0.0
C2775 C 0.70767 0.44232 0.43042 0.0
H2776 H 0.68556 0.42698 0.45973 0.0
C2777 C 0.69922 0.4296 0.41839 0.0
H2778 H 0.70957 0.4501 0.45522 0.0
C2779 C 0.6858 0.41627 0.42111 0.0
C2780 C 0.6803 0.41536 0.43585 0.0
H2781 H 0.70215 0.43038 0.40654 0.0
H2782 H 0.67908 0.40703 0.41139 0.0
C2783 C 0.68952 0.42738 0.44825 0.0
C2784 C 0.29338 0.91541 0.10055 0.0
C2785 C 0.29804 0.93019 0.09324 0.0
H2786 H 0.2948 0.89029 0.10175 0.0
C2787 C 0.30761 0.93063 0.08079 0.0
H2788 H 0.28621 0.91476 0.11031 0.0
C2789 C 0.31244 0.91646 0.07579 0.0
C2790 C 0.30801 0.90184 0.08338 0.0
H2791 H 0.3113 0.94187 0.07494 0.0
H2792 H 0.32008 0.91707 0.06638 0.0
C2793 C 0.29832 0.90142 0.09569 0.0
C2794 C 0.80421 0.44041 0.57808 0.0
C2795 C 0.79361 0.43961 0.5898 0.0
H2796 H 0.8177 0.42721 0.56437 0.0
C2797 C 0.78812 0.42455 0.59645 0.0
H2798 H 0.80856 0.45187 0.57275 0.0
C2799 C 0.79329 0.41065 0.59171 0.0
C2800 C 0.80401 0.41142 0.58015 0.0
H2801 H 0.78015 0.42362 0.60565 0.0
H2802 H 0.78915 0.39929 0.59728 0.0
C2803 C 0.80926 0.42633 0.57318 0.0
C2804 C 0.31712 0.09108 0.37846 0.0
C2805 C 0.3161 0.07409 0.37923 0.0
H2806 H 0.33355 0.11589 0.38335 0.0
C2807 C 0.33193 0.0692 0.38456 0.0
H2808 H 0.30536 0.09533 0.37404 0.0
C2809 C 0.34821 0.08108 0.38954 0.0
C2810 C 0.34887 0.09799 0.38938 0.0
H2811 H 0.33164 0.05625 0.38542 0.0
H2812 H 0.36012 0.07709 0.39409 0.0
C2813 C 0.33327 0.10288 0.38363 0.0
C2814 C 0.62235 0.5526 0.11772 0.0
C2815 C 0.63607 0.55469 0.13114 0.0
H2816 H 0.60111 0.56187 0.10521 0.0
C2817 C 0.63951 0.56869 0.14187 0.0
H2818 H 0.61948 0.54201 0.10917 0.0
C2819 C 0.62908 0.58003 0.13954 0.0
C2820 C 0.61503 0.57765 0.12642 0.0
H2821 H 0.64984 0.57058 0.1524 0.0
H2822 H 0.63176 0.59051 0.14821 0.0
C2823 C 0.61195 0.56402 0.11536 0.0
C2824 C 0.19857 0.92407 0.9354 0.0
C2825 C 0.19611 0.94018 0.935 0.0
H2826 H 0.18682 0.89851 0.93812 0.0
C2827 C 0.18008 0.94296 0.93825 0.0
H2828 H 0.21081 0.9216 0.93299 0.0
C2829 C 0.16652 0.92987 0.94114 0.0
C2830 C 0.16874 0.91373 0.941 0.0
H2831 H 0.17763 0.95515 0.93778 0.0
H2832 H 0.15397 0.93222 0.94284 0.0
C2833 C 0.18499 0.91093 0.93849 0.0
C2834 C 0.93658 0.91901 0.63099 0.0
C2835 C 0.93926 0.9032 0.63346 0.0
H2836 H 0.93283 0.9413 0.6415 0.0
C2837 C 0.93957 0.89754 0.64867 0.0
H2838 H 0.93624 0.92366 0.61936 0.0
C2839 C 0.93744 0.90745 0.66118 0.0
C2840 C 0.93509 0.92339 0.65888 0.0
H2841 H 0.94107 0.88524 0.65088 0.0
H2842 H 0.9374 0.90249 0.67266 0.0
C2843 C 0.93455 0.92905 0.64362 0.0
C2844 C 0.86554 0.15634 0.29952 0.0
C2845 C 0.86318 0.14426 0.28699 0.0
H2846 H 0.85487 0.16456 0.31878 0.0
C2847 C 0.84711 0.13193 0.28329 0.0
H2848 H 0.87782 0.16605 0.30251 0.0
C2849 C 0.83386 0.13129 0.29226 0.0
C2850 C 0.8365 0.14278 0.30539 0.0
H2851 H 0.84477 0.12273 0.2734 0.0
H2852 H 0.8216 0.12162 0.28899 0.0
C2853 C 0.85235 0.15555 0.30873 0.0
C2854 C 0.60474 0.09853 0.14157 0.0
C2855 C 0.58677 0.09864 0.13667 0.0
H2856 H 0.62323 0.08821 0.15674 0.0
C2857 C 0.57331 0.08662 0.14141 0.0
H2858 H 0.6153 0.10791 0.13817 0.0
C2859 C 0.57781 0.07523 0.15178 0.0
C2860 C 0.59583 0.07594 0.15772 0.0
H2861 H 0.55939 0.08658 0.13772 0.0
H2862 H 0.56725 0.06656 0.15596 0.0
C2863 C 0.60926 0.08725 0.15209 0.0
C2864 C 0.56234 0.83949 0.82585 0.0
C2865 C 0.55801 0.85484 0.82483 0.0
H2866 H 0.57728 0.82477 0.83973 0.0
C2867 C 0.56545 0.86716 0.83739 0.0
H2868 H 0.55667 0.82973 0.8164 0.0
C2869 C 0.57693 0.86428 0.85063 0.0
C2870 C 0.58143 0.84906 0.85166 0.0
H2871 H 0.56257 0.87918 0.83693 0.0
H2872 H 0.58243 0.87409 0.86007 0.0
C2873 C 0.57391 0.83658 0.83924 0.0
C2874 C 0.84384 0.13532 0.85526 0.0
C2875 C 0.85972 0.14409 0.8653 0.0
H2876 H 0.83107 0.1146 0.83843 0.0
C2877 C 0.87571 0.1397 0.86424 0.0
H2878 H 0.83125 0.13826 0.85577 0.0
C2879 C 0.87551 0.12586 0.85452 0.0
C2880 C 0.85933 0.11626 0.8456 0.0
H2881 H 0.88825 0.14644 0.87155 0.0
H2882 H 0.88779 0.12205 0.85485 0.0
C2883 C 0.84368 0.12161 0.84545 0.0
C2884 C 0.64407 0.14278 0.69938 0.0
C2885 C 0.64133 0.15508 0.70956 0.0
H2886 H 0.65828 0.13698 0.6818 0.0
C2887 C 0.65281 0.17104 0.71108 0.0
H2888 H 0.63561 0.13029 0.69815 0.0
C2889 C 0.66607 0.17483 0.70186 0.0
C2890 C 0.66809 0.16273 0.69098 0.0
H2891 H 0.651 0.18078 0.7188 0.0
H2892 H 0.67441 0.18735 0.70292 0.0
C2893 C 0.65723 0.14657 0.69015 0.0
C2894 C 0.60683 0.82985 0.37098 0.0
C2895 C 0.59575 0.8287 0.3823 0.0
H2896 H 0.61281 0.83949 0.34926 0.0
C2897 C 0.58118 0.83591 0.37968 0.0
H2898 H 0.61828 0.82461 0.37273 0.0
C2899 C 0.57799 0.84438 0.36612 0.0
C2900 C 0.58947 0.84595 0.35512 0.0
H2901 H 0.57235 0.83512 0.38817 0.0
H2902 H 0.56701 0.85025 0.36456 0.0
C2903 C 0.60375 0.83841 0.35757 0.0
C2904 C 0.87989 0.88312 0.1763 0.0
C2905 C 0.89751 0.88713 0.17353 0.0
H2906 H 0.85197 0.87516 0.16613 0.0
C2907 C 0.90019 0.88582 0.15776 0.0
H2908 H 0.87725 0.88371 0.18825 0.0
C2909 C 0.8857 0.88052 0.14517 0.0
C2910 C 0.86819 0.87669 0.148 0.0
H2911 H 0.91349 0.88918 0.15505 0.0
H2912 H 0.88817 0.87986 0.13316 0.0
C2913 C 0.8654 0.87807 0.16366 0.0
C2914 C 0.14538 0.63948 0.20129 0.0
C2915 C 0.14219 0.65168 0.21132 0.0
H2916 H 0.1599 0.63405 0.18378 0.0
C2917 C 0.15329 0.6678 0.21272 0.0
H2918 H 0.13729 0.62686 0.20017 0.0
C2919 C 0.16655 0.67185 0.20355 0.0
C2920 C 0.1689 0.65988 0.19272 0.0
H2921 H 0.15118 0.67752 0.22028 0.0
H2922 H 0.17456 0.68449 0.20456 0.0
C2923 C 0.15852 0.64355 0.19204 0.0
C2924 C 0.07246 0.32495 0.87474 0.0
C2925 C 0.08903 0.32124 0.87987 0.0
H2926 H 0.05685 0.33639 0.85771 0.0
C2927 C 0.10195 0.32478 0.87019 0.0
H2928 H 0.062 0.32209 0.88168 0.0
C2929 C 0.09878 0.33259 0.85627 0.0
C2930 C 0.08272 0.3373 0.85173 0.0
H2931 H 0.1149 0.32227 0.8737 0.0
H2932 H 0.10924 0.33549 0.84932 0.0
C2933 C 0.06936 0.33295 0.86086 0.0
C2934 C 0.38235 0.39275 0.66161 0.0
C2935 C 0.38864 0.38164 0.6716 0.0
H2936 H 0.3633 0.39598 0.64172 0.0
C2937 C 0.37993 0.36469 0.66888 0.0
H2938 H 0.38862 0.40589 0.66345 0.0
C2939 C 0.36534 0.359 0.65636 0.0
C2940 C 0.35909 0.37017 0.64644 0.0
H2941 H 0.38455 0.3558 0.67626 0.0
H2942 H 0.35878 0.34591 0.65458 0.0
C2943 C 0.36776 0.38709 0.64921 0.0
C2944 C 0.08196 0.58378 0.63838 0.0
C2945 C 0.08314 0.60007 0.64407 0.0
H2946 H 0.08398 0.55952 0.64453 0.0
C2947 C 0.08872 0.60475 0.66036 0.0
H2948 H 0.07783 0.57995 0.62583 0.0
C2949 C 0.09242 0.5933 0.67087 0.0
C2950 C 0.09051 0.57683 0.66538 0.0
H2951 H 0.09029 0.61735 0.66502 0.0
H2952 H 0.09659 0.59732 0.6834 0.0
C2953 C 0.08558 0.57218 0.64901 0.0
C2954 C 0.43339 0.4122 0.12885 0.0
C2955 C 0.43697 0.39697 0.13261 0.0
H2956 H 0.43069 0.43561 0.13768 0.0
C2957 C 0.44149 0.39414 0.14864 0.0
H2958 H 0.42984 0.41473 0.1166 0.0
C2959 C 0.44143 0.40575 0.16063 0.0
C2960 C 0.43738 0.42084 0.15701 0.0
H2961 H 0.44468 0.3827 0.15199 0.0
H2962 H 0.44402 0.40255 0.17275 0.0
C2963 C 0.43363 0.42404 0.14094 0.0
C2964 C 0.59174 0.34179 0.22496 0.0
C2965 C 0.58271 0.35437 0.22339 0.0
H2966 H 0.60835 0.329 0.2147 0.0
C2967 C 0.58339 0.36383 0.21027 0.0
H2968 H 0.59129 0.33439 0.23504 0.0
C2969 C 0.59311 0.36091 0.1989 0.0
C2970 C 0.6022 0.34838 0.20038 0.0
H2971 H 0.57658 0.37367 0.20893 0.0
H2972 H 0.59362 0.36851 0.18895 0.0
C2973 C 0.60131 0.33867 0.21336 0.0
C2974 C 0.94607 0.65026 0.68489 0.0
C2975 C 0.95186 0.66191 0.69814 0.0
H2976 H 0.93143 0.64437 0.66113 0.0
C2977 C 0.94866 0.67772 0.69659 0.0
H2978 H 0.94808 0.63793 0.68555 0.0
C2979 C 0.93869 0.68129 0.68257 0.0
C2980 C 0.93182 0.66915 0.66982 0.0
H2981 H 0.95326 0.68716 0.70642 0.0
H2982 H 0.93547 0.69317 0.68208 0.0
C2983 C 0.93631 0.65389 0.67089 0.0
C2984 C 0.62553 0.38353 0.66201 0.0
C2985 C 0.64171 0.37968 0.66062 0.0
H2986 H 0.61295 0.40114 0.67062 0.0
C2987 C 0.65775 0.38981 0.66937 0.0
H2988 H 0.61288 0.3758 0.65575 0.0
C2989 C 0.65771 0.40408 0.6783 0.0
C2990 C 0.64169 0.40872 0.67848 0.0
H2991 H 0.67049 0.38735 0.66858 0.0
H2992 H 0.67037 0.41193 0.68443 0.0
C2993 C 0.62553 0.39796 0.67075 0.0
C2994 C 0.33942 0.62021 0.78292 0.0
C2995 C 0.3556 0.63241 0.7861 0.0
H2996 H 0.31431 0.61029 0.7895 0.0
C2997 C 0.35867 0.64459 0.79867 0.0
H2998 H 0.33657 0.61094 0.77302 0.0
C2999 C 0.34606 0.64401 0.80846 0.0
C3000 C 0.33009 0.63139 0.80563 0.0
H3001 H 0.37105 0.6542 0.80122 0.0
H3002 H 0.34912 0.65309 0.81852 0.0
C3003 C 0.32672 0.61983 0.79243 0.0
C3004 C 0.06361 0.33957 0.32277 0.0
C3005 C 0.05797 0.35431 0.32269 0.0
H3006 H 0.07951 0.3251 0.33589 0.0
C3007 C 0.06379 0.36564 0.33617 0.0
H3008 H 0.05921 0.33058 0.31256 0.0
C3009 C 0.07511 0.36246 0.34937 0.0
C3010 C 0.08099 0.34791 0.34942 0.0
H3011 H 0.05987 0.37719 0.33643 0.0
H3012 H 0.07958 0.37158 0.35948 0.0
C3013 C 0.07499 0.33634 0.33612 0.0
C3014 C 0.35744 0.64437 0.35383 0.0
C3015 C 0.35889 0.64334 0.37029 0.0
H3016 H 0.35618 0.63146 0.33132 0.0
C3017 C 0.36079 0.6286 0.37681 0.0
H3018 H 0.3559 0.65565 0.34859 0.0
C3019 C 0.36088 0.61501 0.36711 0.0
C3020 C 0.35907 0.61582 0.35064 0.0
H3021 H 0.3616 0.62739 0.38943 0.0
H3022 H 0.36191 0.60364 0.37244 0.0
C3023 C 0.35771 0.63068 0.34403 0.0
C3024 C 0.11339 0.35296 0.04385 0.0
C3025 C 0.11409 0.33637 0.04513 0.0
H3026 H 0.11277 0.37573 0.05582 0.0
C3027 C 0.11353 0.32992 0.06006 0.0
H3028 H 0.11338 0.35836 0.03259 0.0
C3029 C 0.11267 0.33983 0.0733 0.0
C3030 C 0.11265 0.35651 0.07204 0.0
H3031 H 0.11439 0.31736 0.06173 0.0
H3032 H 0.11281 0.33465 0.08469 0.0
C3033 C 0.11284 0.36291 0.05714 0.0
C3034 C 0.90954 0.90538 0.33378 0.0
C3035 C 0.92787 0.9122 0.3344 0.0
H3036 H 0.8882 0.89906 0.34659 0.0
C3037 C 0.9391 0.91703 0.34933 0.0
H3038 H 0.90058 0.90113 0.32252 0.0
C3039 C 0.93193 0.91584 0.36327 0.0
C3040 C 0.91344 0.90977 0.36248 0.0
H3041 H 0.95328 0.9223 0.35019 0.0
H3042 H 0.94072 0.9203 0.37457 0.0
C3043 C 0.90244 0.90416 0.3476 0.0
C3044 C 0.3212 0.66626 0.52103 0.0
C3045 C 0.33563 0.67085 0.51305 0.0
H3046 H 0.31196 0.65622 0.54151 0.0
C3047 C 0.35184 0.66712 0.51943 0.0
H3048 H 0.30842 0.66863 0.51633 0.0
C3049 C 0.35382 0.65985 0.53392 0.0
C3050 C 0.33959 0.65603 0.54221 0.0
H3051 H 0.36324 0.67051 0.51362 0.0
H3052 H 0.36667 0.65779 0.53896 0.0
C3053 C 0.32317 0.65899 0.53542 0.0
C3054 C 0.60651 0.14219 0.86985 0.0
C3055 C 0.59751 0.13018 0.85728 0.0
H3056 H 0.61839 0.14687 0.89463 0.0
C3057 C 0.59246 0.11352 0.86052 0.0
H3058 H 0.61048 0.15514 0.86773 0.0
C3059 C 0.59696 0.10888 0.8758 0.0
C3060 C 0.6065 0.12079 0.88818 0.0
H3061 H 0.58577 0.10394 0.8511 0.0
H3062 H 0.59348 0.09588 0.87787 0.0
C3063 C 0.6109 0.13753 0.88522 0.0
C3064 C 0.09776 0.62649 0.49009 0.0
C3065 C 0.10459 0.64169 0.49938 0.0
H3066 H 0.0987 0.61167 0.46959 0.0
C3067 C 0.11729 0.65416 0.49408 0.0
H3068 H 0.08778 0.61666 0.49365 0.0
C3069 C 0.12325 0.6514 0.48005 0.0
C3070 C 0.11667 0.63615 0.47096 0.0
H3071 H 0.12313 0.66588 0.50105 0.0
H3072 H 0.13334 0.66109 0.47643 0.0
C3073 C 0.10388 0.62368 0.47616 0.0
C3074 C 0.56034 0.88803 0.65951 0.0
C3075 C 0.55226 0.87291 0.66506 0.0
H3076 H 0.5735 0.90022 0.64166 0.0
C3077 C 0.55245 0.85814 0.65664 0.0
H3078 H 0.56094 0.89968 0.66578 0.0
C3079 C 0.55997 0.8585 0.64292 0.0
C3080 C 0.56741 0.8736 0.63715 0.0
H3081 H 0.54631 0.84621 0.66033 0.0
H3082 H 0.55946 0.84694 0.63651 0.0
C3083 C 0.56778 0.88836 0.64576 0.0
C3084 C 0.40226 0.35207 0.957 0.0
C3085 C 0.41319 0.36428 0.96863 0.0
H3086 H 0.39002 0.34587 0.93249 0.0
C3087 C 0.42026 0.38012 0.96384 0.0
H3088 H 0.39637 0.33982 0.96016 0.0
C3089 C 0.41644 0.38362 0.94793 0.0
C3090 C 0.40528 0.3714 0.93641 0.0
H3091 H 0.42896 0.3898 0.97237 0.0
H3092 H 0.42228 0.39585 0.94469 0.0
C3093 C 0.39843 0.35558 0.94115 0.0
C3094 C 0.91443 0.13691 0.13498 0.0
C3095 C 0.91164 0.14621 0.14788 0.0
H3096 H 0.90555 0.12797 0.11046 0.0
C3097 C 0.89874 0.15542 0.14509 0.0
H3098 H 0.92399 0.12944 0.13667 0.0
C3099 C 0.8882 0.15454 0.12999 0.0
C3100 C 0.89048 0.14457 0.11742 0.0
H3101 H 0.89637 0.16285 0.15469 0.0
H3102 H 0.8776 0.16089 0.12835 0.0
C3103 C 0.90393 0.13608 0.11993 0.0
C3104 C 0.03127 0.09438 0.28259 0.0
C3105 C 0.01381 0.09116 0.28561 0.0
H3106 H 0.05797 0.0919 0.2905 0.0
C3107 C 0.00914 0.08084 0.2975 0.0
H3108 H 0.03514 0.10249 0.27357 0.0
C3109 C 0.02199 0.07471 0.30699 0.0
C3110 C 0.03982 0.07893 0.30485 0.0
H3111 H 0.99575 0.0783 0.30005 0.0
H3112 H 0.01829 0.06762 0.31674 0.0
C3113 C 0.04425 0.08827 0.29219 0.0
C3114 C 0.10081 0.75798 0.64506 0.0
C3115 C 0.10402 0.75915 0.62946 0.0
H3116 H 0.10387 0.77058 0.66799 0.0
C3117 C 0.11229 0.77476 0.62497 0.0
H3118 H 0.09423 0.74626 0.64889 0.0
C3119 C 0.11767 0.78868 0.6359 0.0
C3120 C 0.11496 0.78735 0.65157 0.0
H3121 H 0.1152 0.77615 0.61315 0.0
H3122 H 0.1244 0.80044 0.63224 0.0
C3123 C 0.10622 0.77193 0.65599 0.0
C3124 C 0.41657 0.92152 0.76378 0.0
C3125 C 0.42206 0.90711 0.76773 0.0
H3126 H 0.39873 0.93672 0.76647 0.0
C3127 C 0.41407 0.89757 0.77899 0.0
H3128 H 0.42262 0.92941 0.75545 0.0
C3129 C 0.40039 0.90194 0.78548 0.0
C3130 C 0.3945 0.91599 0.78095 0.0
H3131 H 0.41784 0.88637 0.7823 0.0
H3132 H 0.39397 0.89403 0.79361 0.0
C3133 C 0.40298 0.92585 0.77024 0.0
C3134 C 0.40824 0.2369 0.0998 0.0
C3135 C 0.42125 0.24189 0.09031 0.0
H3136 H 0.39602 0.21809 0.11376 0.0
C3137 C 0.43306 0.23188 0.08896 0.0
H3138 H 0.3988 0.24418 0.10101 0.0
C3139 C 0.43151 0.21707 0.0963 0.0
C3140 C 0.41824 0.21182 0.10539 0.0
H3141 H 0.44341 0.23537 0.08198 0.0
H3142 H 0.44046 0.20944 0.09451 0.0
C3143 C 0.40663 0.22195 0.10712 0.0
C3144 C 0.08662 0.94045 0.25045 0.0
C3145 C 0.07099 0.94077 0.23974 0.0
H3146 H 0.11476 0.94254 0.25399 0.0
C3147 C 0.07211 0.94318 0.22377 0.0
H3148 H 0.08626 0.93838 0.26277 0.0
C3149 C 0.08852 0.94546 0.21873 0.0
C3150 C 0.10411 0.94513 0.22952 0.0
H3151 H 0.06039 0.94367 0.21524 0.0
H3152 H 0.08897 0.9476 0.20643 0.0
C3153 C 0.10294 0.94267 0.24541 0.0
C3154 C 0.28769 0.77582 0.36241 0.0
C3155 C 0.29782 0.77878 0.37794 0.0
H3156 H 0.27757 0.78631 0.34151 0.0
C3157 C 0.30342 0.79512 0.385 0.0
H3158 H 0.28274 0.76339 0.35671 0.0
C3159 C 0.30002 0.80827 0.37632 0.0
C3160 C 0.2911 0.80528 0.36044 0.0
H3161 H 0.31132 0.79788 0.39688 0.0
H3162 H 0.30539 0.82082 0.38167 0.0
C3163 C 0.28453 0.78892 0.35373 0.0
C3164 C 0.46211 0.1114 0.70564 0.0
C3165 C 0.46486 0.11565 0.72208 0.0
H3166 H 0.44346 0.10632 0.68345 0.0
C3167 C 0.45025 0.11768 0.72868 0.0
H3168 H 0.47301 0.10968 0.70015 0.0
C3169 C 0.43339 0.11547 0.71921 0.0
C3170 C 0.43059 0.11114 0.70286 0.0
H3171 H 0.45189 0.12138 0.74118 0.0
H3172 H 0.42255 0.11746 0.72465 0.0
C3173 C 0.44515 0.10926 0.69611 0.0
C3174 C 0.16386 0.19703 0.93463 0.0
C3175 C 0.1623 0.21115 0.92653 0.0
H3176 H 0.16808 0.1726 0.93336 0.0
C3177 C 0.16561 0.21171 0.91097 0.0
H3178 H 0.16122 0.19601 0.94656 0.0
C3179 C 0.1695 0.19827 0.90345 0.0
C3180 C 0.17028 0.18392 0.9113 0.0
H3181 H 0.16496 0.22247 0.90446 0.0
H3182 H 0.17134 0.19886 0.89124 0.0
C3183 C 0.16787 0.1836 0.92711 0.0
C3184 C 0.35556 0.1148 0.11729 0.0
C3185 C 0.3496 0.1066 0.13018 0.0
H3186 H 0.37319 0.13572 0.10971 0.0
C3187 C 0.35574 0.11477 0.14548 0.0
H3188 H 0.35089 0.10911 0.10528 0.0
C3189 C 0.3682 0.13015 0.14791 0.0
C3190 C 0.37504 0.13779 0.13518 0.0
H3191 H 0.35166 0.10893 0.15574 0.0
H3192 H 0.3731 0.13577 0.15994 0.0
C3193 C 0.36816 0.1302 0.11976 0.0
C3194 C 0.7451 0.39569 0.83355 0.0
C3195 C 0.74693 0.40274 0.84909 0.0
H3196 H 0.74659 0.37494 0.81883 0.0
C3197 C 0.75202 0.39376 0.8619 0.0
H3198 H 0.74162 0.40234 0.82339 0.0
C3199 C 0.75505 0.37817 0.85925 0.0
C3200 C 0.75289 0.37108 0.84375 0.0
H3201 H 0.75347 0.39867 0.87404 0.0
H3202 H 0.75891 0.37153 0.86932 0.0
C3203 C 0.74809 0.38005 0.83092 0.0
C3204 C 0.81992 0.56436 0.178 0.0
C3205 C 0.80883 0.55508 0.16436 0.0
H3206 H 0.84495 0.58159 0.18781 0.0
C3207 C 0.81551 0.55523 0.15018 0.0
H3208 H 0.81525 0.56441 0.18915 0.0
C3209 C 0.83247 0.56499 0.14946 0.0
C3210 C 0.84322 0.57479 0.1629 0.0
H3211 H 0.80731 0.54842 0.1394 0.0
H3212 H 0.83699 0.56526 0.13822 0.0
C3213 C 0.83698 0.57407 0.1773 0.0
C3214 C 0.72751 0.6014 0.40737 0.0
C3215 C 0.73352 0.59834 0.39329 0.0
H3216 H 0.71613 0.61732 0.42037 0.0
C3217 C 0.73112 0.60862 0.38089 0.0
H3218 H 0.72916 0.59379 0.41718 0.0
C3219 C 0.72369 0.622 0.38275 0.0
C3220 C 0.71843 0.62549 0.39704 0.0
H3221 H 0.73519 0.60644 0.36975 0.0
H3222 H 0.7225 0.62991 0.37311 0.0
C3223 C 0.72008 0.61488 0.40923 0.0
C3224 C 0.19219 0.97051 0.16425 0.0
C3225 C 0.20428 0.9831 0.17475 0.0
H3226 H 0.16866 0.9506 0.16075 0.0
C3227 C 0.20087 0.98571 0.19011 0.0
H3228 H 0.19407 0.96844 0.15221 0.0
C3229 C 0.18614 0.97542 0.19503 0.0
C3230 C 0.1746 0.96236 0.18468 0.0
H3231 H 0.20992 0.99531 0.1985 0.0
H3232 H 0.18418 0.97726 0.20708 0.0
C3233 C 0.17756 0.96032 0.16913 0.0
C3234 C 0.1564 0.89497 0.65622 0.0
C3235 C 0.16832 0.90454 0.66929 0.0
H3236 H 0.13636 0.8724 0.64793 0.0
C3237 C 0.16969 0.89792 0.68414 0.0
H3238 H 0.15517 0.89965 0.64459 0.0
C3239 C 0.15907 0.88236 0.68599 0.0
C3240 C 0.14687 0.87299 0.67303 0.0
H3241 H 0.17857 0.90499 0.6945 0.0
H3242 H 0.16008 0.87781 0.69768 0.0
C3243 C 0.14584 0.87929 0.65806 0.0
C3244 C 0.82281 0.46894 0.32694 0.0
C3245 C 0.83163 0.47756 0.34166 0.0
H3246 H 0.82338 0.45154 0.30818 0.0
C3247 C 0.84941 0.47699 0.34737 0.0
H3248 H 0.80907 0.46879 0.32221 0.0
C3249 C 0.85759 0.46706 0.33922 0.0
C3250 C 0.84824 0.45762 0.32512 0.0
H3251 H 0.85674 0.48361 0.35854 0.0
H3252 H 0.87068 0.46577 0.34455 0.0
C3253 C 0.83102 0.45908 0.3188 0.0
C3254 C 0.63091 0.53188 0.83262 0.0
C3255 C 0.62986 0.51672 0.8395 0.0
H3256 H 0.61687 0.54963 0.82354 0.0
C3257 C 0.61356 0.50845 0.84353 0.0
H3258 H 0.64319 0.53849 0.82922 0.0
C3259 C 0.59858 0.51483 0.84033 0.0
C3260 C 0.59949 0.52975 0.83318 0.0
H3261 H 0.6123 0.49688 0.84904 0.0
H3262 H 0.58612 0.5079 0.8432 0.0
C3263 C 0.61583 0.53825 0.82935 0.0
C3264 C 0.87295 0.63818 0.96082 0.0
C3265 C 0.8748 0.65537 0.96145 0.0
H3266 H 0.87236 0.61621 0.94688 0.0
C3267 C 0.87817 0.66368 0.9479 0.0
H3268 H 0.8702 0.63134 0.97096 0.0
C3269 C 0.87963 0.65495 0.93406 0.0
C3270 C 0.8774 0.63771 0.93343 0.0
H3271 H 0.87978 0.67692 0.94804 0.0
H3272 H 0.88199 0.66158 0.92372 0.0
C3273 C 0.87415 0.62949 0.94701 0.0
C3274 C 0.06813 0.12086 0.67101 0.0
C3275 C 0.06138 0.10716 0.67923 0.0
H3276 H 0.08019 0.12951 0.65129 0.0
C3277 C 0.06018 0.09121 0.67259 0.0
H3278 H 0.06902 0.13332 0.67563 0.0
C3279 C 0.06624 0.08906 0.65851 0.0
C3280 C 0.07385 0.10279 0.65077 0.0
H3281 H 0.05531 0.08035 0.67862 0.0
H3282 H 0.06549 0.0766 0.65394 0.0
C3283 C 0.07432 0.1187 0.65694 0.0
C3284 C 0.66349 0.35282 0.50774 0.0
C3285 C 0.64996 0.34681 0.51645 0.0
H3286 H 0.67131 0.36722 0.48873 0.0
C3287 C 0.63326 0.35032 0.51176 0.0
H3288 H 0.67658 0.35055 0.51109 0.0
C3289 C 0.63029 0.35984 0.49896 0.0
C3290 C 0.6439 0.36604 0.49046 0.0
H3291 H 0.62243 0.34571 0.51798 0.0
H3292 H 0.6174 0.36258 0.49587 0.0
C3293 C 0.66051 0.36238 0.49494 0.0
C3294 C 0.34181 0.83855 0.12131 0.0
C3295 C 0.35447 0.84995 0.13271 0.0
H3296 H 0.32413 0.83482 0.09866 0.0
C3297 C 0.36041 0.8663 0.12883 0.0
H3298 H 0.33711 0.82578 0.12374 0.0
C3299 C 0.35324 0.87133 0.11437 0.0
C3300 C 0.3398 0.86021 0.10343 0.0
H3301 H 0.36993 0.87553 0.13728 0.0
H3302 H 0.35771 0.88416 0.11201 0.0
C3303 C 0.33453 0.84364 0.10682 0.0
C3304 C 0.79892 0.34002 0.49795 0.0
C3305 C 0.80308 0.34963 0.48534 0.0
H3306 H 0.80157 0.3391 0.52325 0.0
C3307 C 0.81266 0.36629 0.48893 0.0
H3308 H 0.79145 0.32719 0.49563 0.0
C3309 C 0.81821 0.37309 0.50464 0.0
C3310 C 0.81434 0.36345 0.51723 0.0
H3311 H 0.81645 0.37401 0.47962 0.0
H3312 H 0.82602 0.38581 0.50695 0.0
C3313 C 0.80454 0.34686 0.51374 0.0
C3314 C 0.43654 0.11709 0.35214 0.0
C3315 C 0.44685 0.13017 0.34524 0.0
H3316 H 0.41722 0.10977 0.36708 0.0
C3317 C 0.4458 0.14637 0.34896 0.0
H3318 H 0.43677 0.10441 0.34937 0.0
C3319 C 0.43464 0.14941 0.35917 0.0
C3320 C 0.42436 0.13636 0.36604 0.0
H3321 H 0.45365 0.15676 0.34403 0.0
H3322 H 0.43388 0.162 0.36157 0.0
C3323 C 0.42534 0.12014 0.36232 0.0
C3324 C 0.56721 0.64011 0.05417 0.0
C3325 C 0.57252 0.63272 0.04147 0.0
H3326 H 0.5621 0.63821 0.07793 0.0
C3327 C 0.57825 0.61812 0.04373 0.0
H3328 H 0.56273 0.65134 0.05285 0.0
C3329 C 0.57781 0.61063 0.05799 0.0
C3330 C 0.5715 0.61749 0.0703 0.0
H3331 H 0.58283 0.6123 0.03433 0.0
H3332 H 0.58192 0.59921 0.05924 0.0
C3333 C 0.56674 0.63257 0.06847 0.0
C3334 C 0.0874 0.86546 0.89184 0.0
C3335 C 0.08471 0.87954 0.88416 0.0
H3336 H 0.10161 0.85603 0.91155 0.0
C3337 C 0.09285 0.89521 0.89222 0.0
H3338 H 0.081 0.85313 0.8863 0.0
C3339 C 0.10416 0.89679 0.90697 0.0
C3340 C 0.10803 0.88281 0.91397 0.0
H3341 H 0.09132 0.9064 0.88684 0.0
H3342 H 0.1105 0.90912 0.91258 0.0
C3343 C 0.09902 0.86708 0.9065 0.0
C3344 C 0.98095 0.93889 0.73144 0.0
C3345 C 0.97275 0.93111 0.74345 0.0
H3346 H 0.97739 0.94874 0.70878 0.0
C3347 C 0.9542 0.92893 0.74226 0.0
H3348 H 0.99524 0.94116 0.73212 0.0
C3349 C 0.944 0.93358 0.72893 0.0
C3350 C 0.95215 0.94041 0.71655 0.0
H3351 H 0.94741 0.9229 0.75122 0.0
H3352 H 0.92963 0.93094 0.72788 0.0
C3353 C 0.97077 0.94342 0.71815 0.0
C3354 C 0.793 0.20158 0.36993 0.0
C3355 C 0.7874 0.21476 0.3627 0.0
H3356 H 0.79798 0.1777 0.36671 0.0
C3357 C 0.78297 0.21379 0.34603 0.0
H3358 H 0.79676 0.20194 0.38271 0.0
C3359 C 0.78407 0.20003 0.33687 0.0
C3360 C 0.7897 0.18694 0.34413 0.0
H3361 H 0.77828 0.22351 0.34002 0.0
H3362 H 0.78032 0.19952 0.32407 0.0
C3363 C 0.79395 0.18776 0.36077 0.0
C3364 C 0.56122 0.06535 0.221 0.0
C3365 C 0.56903 0.07993 0.23105 0.0
H3366 H 0.56464 0.04823 0.2033 0.0
C3367 C 0.58749 0.08704 0.23238 0.0
H3368 H 0.54719 0.05926 0.21988 0.0
C3369 C 0.59759 0.08031 0.22324 0.0
C3370 C 0.58946 0.06636 0.21258 0.0
H3371 H 0.59401 0.09836 0.23982 0.0
H3372 H 0.61143 0.08672 0.22364 0.0
C3373 C 0.57129 0.05874 0.21178 0.0
C3374 C 0.58404 0.76333 0.90661 0.0
C3375 C 0.58977 0.76518 0.9232 0.0
H3376 H 0.58467 0.77457 0.88459 0.0
C3377 C 0.59994 0.78083 0.9303 0.0
H3378 H 0.57591 0.75161 0.90071 0.0
C3379 C 0.6048 0.79404 0.92102 0.0
C3380 C 0.59962 0.79194 0.90443 0.0
H3381 H 0.60475 0.78276 0.943 0.0
H3382 H 0.61311 0.80578 0.92675 0.0
C3383 C 0.58891 0.77654 0.89735 0.0
C3384 C 0.92735 0.09585 0.79399 0.0
C3385 C 0.93946 0.08587 0.79418 0.0
H3386 H 0.90505 0.10055 0.80304 0.0
C3387 C 0.93751 0.07219 0.80338 0.0
H3388 H 0.9286 0.1066 0.78721 0.0
C3389 C 0.924 0.06871 0.81234 0.0
C3390 C 0.91202 0.07873 0.81225 0.0
H3391 H 0.94644 0.06413 0.80366 0.0
H3392 H 0.92306 0.05827 0.81953 0.0
C3393 C 0.91386 0.0924 0.80304 0.0
C3394 C 0.67699 0.21514 0.63108 0.0
C3395 C 0.68583 0.23052 0.63955 0.0
H3396 H 0.67194 0.18866 0.63078 0.0
C3397 C 0.69787 0.23068 0.65384 0.0
H3398 H 0.66748 0.21443 0.62017 0.0
C3399 C 0.70011 0.21593 0.65997 0.0
C3400 C 0.69076 0.20068 0.65179 0.0
H3401 H 0.70529 0.24221 0.66055 0.0
H3402 H 0.70875 0.2164 0.67137 0.0
C3403 C 0.6795 0.20036 0.63713 0.0
C3404 C 0.51111 0.85585 0.2696 0.0
C3405 C 0.4945 0.85649 0.27337 0.0
H3406 H 0.53938 0.86001 0.2778 0.0
C3407 C 0.49399 0.86111 0.28918 0.0
H3408 H 0.51209 0.85217 0.25763 0.0
C3409 C 0.5096 0.86526 0.30076 0.0
C3410 C 0.52617 0.86486 0.29694 0.0
H3411 H 0.48162 0.86212 0.29256 0.0
H3412 H 0.50878 0.86922 0.31271 0.0
C3413 C 0.52677 0.86014 0.2812 0.0
C3414 C 0.85171 0.80264 0.07849 0.0
C3415 C 0.83888 0.78743 0.07391 0.0
H3416 H 0.85816 0.82677 0.09098 0.0
C3417 C 0.82198 0.78558 0.07804 0.0
H3418 H 0.86496 0.80451 0.07575 0.0
C3419 C 0.8181 0.79838 0.08666 0.0
C3420 C 0.83091 0.8135 0.0913 0.0
H3421 H 0.81165 0.77421 0.07461 0.0
H3422 H 0.80508 0.79634 0.08993 0.0
C3423 C 0.84783 0.81546 0.0872 0.0
C3424 C 0.65462 0.89929 0.90276 0.0
C3425 C 0.66571 0.9033 0.89148 0.0
H3426 H 0.6326 0.88171 0.90931 0.0
C3427 C 0.66373 0.8917 0.87858 0.0
H3428 H 0.65587 0.90791 0.91287 0.0
C3429 C 0.65057 0.8768 0.87665 0.0
C3430 C 0.63915 0.87304 0.88761 0.0
H3431 H 0.6718 0.89444 0.86953 0.0
H3432 H 0.6488 0.86848 0.86619 0.0
C3433 C 0.6415 0.88423 0.90087 0.0
C3434 C 0.23138 0.6082 0.13555 0.0
C3435 C 0.23149 0.59706 0.14745 0.0
H3436 H 0.22239 0.62893 0.12664 0.0
C3437 C 0.22382 0.59976 0.16067 0.0
H3438 H 0.23748 0.60679 0.12537 0.0
C3439 C 0.21534 0.61263 0.16144 0.0
C3440 C 0.21427 0.623 0.149 0.0
H3441 H 0.22351 0.59143 0.17004 0.0
H3442 H 0.2089 0.61404 0.17141 0.0
C3443 C 0.22284 0.62098 0.1363 0.0
C3444 C 0.13612 0.40616 0.83873 0.0
C3445 C 0.14536 0.40585 0.82613 0.0
H3446 H 0.11263 0.39574 0.84802 0.0
C3447 C 0.13655 0.39569 0.81217 0.0
H3448 H 0.14249 0.41362 0.84972 0.0
C3449 C 0.11933 0.38542 0.81122 0.0
C3450 C 0.11067 0.38505 0.82424 0.0
H3451 H 0.1432 0.39527 0.80218 0.0
H3452 H 0.11325 0.37706 0.80071 0.0
C3453 C 0.11902 0.39586 0.83779 0.0
C3454 C 0.28447 0.39628 0.60572 0.0
C3455 C 0.27831 0.39954 0.61968 0.0
H3456 H 0.3005 0.38342 0.59464 0.0
C3457 C 0.28322 0.3914 0.63314 0.0
H3458 H 0.28085 0.40224 0.5951 0.0
C3459 C 0.29424 0.38062 0.63281 0.0
C3460 C 0.30074 0.37764 0.61902 0.0
H3461 H 0.279 0.39373 0.64418 0.0
H3462 H 0.2981 0.37491 0.64353 0.0
C3463 C 0.2955 0.38535 0.60537 0.0
C3464 C 0.81534 0.03935 0.85716 0.0
C3465 C 0.79811 0.0401 0.84983 0.0
H3466 H 0.84359 0.04822 0.85792 0.0
C3467 C 0.79617 0.04817 0.83577 0.0
H3468 H 0.81731 0.03335 0.86806 0.0
C3469 C 0.81114 0.05657 0.83002 0.0
C3470 C 0.82835 0.05692 0.83806 0.0
H3471 H 0.78308 0.04877 0.82968 0.0
H3472 H 0.80931 0.06381 0.81993 0.0
C3473 C 0.83038 0.04777 0.85134 0.0
C3474 C 0.78563 0.08365 0.34995 0.0
C3475 C 0.78141 0.0711 0.33746 0.0
H3476 H 0.79545 0.10957 0.3571 0.0
C3477 C 0.78219 0.07569 0.32197 0.0
H3478 H 0.78489 0.0806 0.362 0.0
C3479 C 0.78791 0.09229 0.31915 0.0
C3480 C 0.79315 0.10473 0.33177 0.0
H3481 H 0.77921 0.06642 0.31206 0.0
H3482 H 0.78879 0.09535 0.30712 0.0
C3483 C 0.79147 0.10029 0.34713 0.0
C3484 C 0.16897 0.5328 0.6671 0.0
C3485 C 0.16541 0.51566 0.66311 0.0
H3486 H 0.16172 0.55246 0.6789 0.0
C3487 C 0.15055 0.50519 0.6678 0.0
H3488 H 0.18042 0.54128 0.66397 0.0
C3489 C 0.13981 0.5117 0.67651 0.0
C3490 C 0.14367 0.52879 0.6807 0.0
H3491 H 0.14726 0.49197 0.66481 0.0
H3492 H 0.12872 0.50334 0.68029 0.0
C3493 C 0.15825 0.53926 0.67572 0.0
C3494 C 0.35425 0.4681 0.15556 0.0
C3495 C 0.35463 0.4828 0.16431 0.0
H3496 H 0.36571 0.44743 0.15377 0.0
C3497 C 0.36824 0.48842 0.17776 0.0
H3498 H 0.34425 0.46357 0.14495 0.0
C3499 C 0.38061 0.47921 0.18271 0.0
C3500 C 0.37961 0.46415 0.17439 0.0
H3501 H 0.36896 0.49961 0.18487 0.0
H3502 H 0.39059 0.48355 0.19338 0.0
C3503 C 0.36662 0.4589 0.16053 0.0
C3504 C 0.61407 0.85335 0.54487 0.0
C3505 C 0.61033 0.83601 0.5447 0.0
H3506 H 0.61639 0.87628 0.55798 0.0
C3507 C 0.60487 0.82858 0.55812 0.0
H3508 H 0.61842 0.85962 0.53491 0.0
C3509 C 0.60404 0.83822 0.57157 0.0
C3510 C 0.60857 0.85557 0.57198 0.0
H3511 H 0.60148 0.81526 0.55838 0.0
H3512 H 0.60053 0.83206 0.58187 0.0
C3513 C 0.61312 0.86295 0.55826 0.0
C3514 C 0.42534 0.39358 0.84217 0.0
C3515 C 0.42718 0.40819 0.83421 0.0
H3516 H 0.41631 0.38074 0.86165 0.0
C3517 C 0.42265 0.42175 0.84107 0.0
H3518 H 0.42853 0.38282 0.83721 0.0
C3519 C 0.41554 0.42047 0.85492 0.0
C3520 C 0.41289 0.40564 0.86241 0.0
H3521 H 0.42426 0.43334 0.83558 0.0
H3522 H 0.41166 0.431 0.85957 0.0
C3523 C 0.41833 0.39235 0.85617 0.0
C3524 C 0.85015 0.1938 0.02906 0.0
C3525 C 0.85186 0.18498 0.01537 0.0
H3526 H 0.8495 0.19398 0.05388 0.0
C3527 C 0.85485 0.16909 0.01683 0.0
H3528 H 0.84733 0.20582 0.02845 0.0
C3529 C 0.85584 0.16219 0.03153 0.0
C3530 C 0.8542 0.17116 0.04515 0.0
H3531 H 0.85633 0.16193 0.00662 0.0
H3532 H 0.85765 0.14978 0.03219 0.0
C3533 C 0.85132 0.18699 0.04369 0.0
C3534 C 0.10694 0.64127 0.37061 0.0
C3535 C 0.09749 0.6292 0.35823 0.0
H3536 H 0.11951 0.64611 0.39521 0.0
C3537 C 0.09224 0.61262 0.36169 0.0
H3538 H 0.11108 0.65416 0.36833 0.0
C3539 C 0.09703 0.6081 0.37698 0.0
C3540 C 0.10705 0.62006 0.38915 0.0
H3541 H 0.0852 0.60299 0.35242 0.0
H3542 H 0.09344 0.59515 0.3792 0.0
C3543 C 0.11162 0.63673 0.38599 0.0
C3544 C 0.59961 0.12445 0.99183 0.0
C3545 C 0.60119 0.14062 0.99822 0.0
H3546 H 0.60472 0.1093 0.97338 0.0
C3547 C 0.60805 0.15404 0.98978 0.0
H3548 H 0.59415 0.11381 0.99788 0.0
C3549 C 0.61378 0.15139 0.97561 0.0
C3550 C 0.61271 0.13529 0.96953 0.0
H3551 H 0.60971 0.16664 0.99446 0.0
H3552 H 0.61955 0.16198 0.96963 0.0
C3553 C 0.60549 0.12183 0.97772 0.0
C3554 C 0.06089 0.36257 0.15786 0.0
C3555 C 0.05705 0.37688 0.16411 0.0
H3556 H 0.07062 0.35145 0.13937 0.0
C3557 C 0.06111 0.39142 0.15625 0.0
H3558 H 0.05778 0.35104 0.16335 0.0
C3559 C 0.06842 0.39157 0.14244 0.0
C3560 C 0.07199 0.37722 0.13614 0.0
H3561 H 0.05872 0.40278 0.16076 0.0
H3562 H 0.07104 0.40289 0.13654 0.0
C3563 C 0.06824 0.36275 0.14407 0.0
C3564 C 0.92233 0.86353 0.45811 0.0
C3565 C 0.91924 0.8732 0.47057 0.0
H3566 H 0.92026 0.85922 0.433 0.0
C3567 C 0.91221 0.88688 0.46679 0.0
H3568 H 0.92794 0.85306 0.46054 0.0
C3569 C 0.90795 0.89048 0.45097 0.0
C3570 C 0.9108 0.88062 0.43856 0.0
H3571 H 0.90944 0.89452 0.47601 0.0
H3572 H 0.90201 0.90073 0.44839 0.0
C3573 C 0.91812 0.86717 0.44233 0.0
C3574 C 0.39745 0.6166 0.63124 0.0
C3575 C 0.39719 0.62802 0.6436 0.0
H3576 H 0.38634 0.60632 0.60734 0.0
C3577 C 0.38641 0.63919 0.64044 0.0
H3578 H 0.40531 0.60762 0.63327 0.0
C3579 C 0.37561 0.63845 0.62547 0.0
C3580 C 0.37543 0.62656 0.61344 0.0
H3581 H 0.38601 0.64822 0.64964 0.0
H3582 H 0.36674 0.64658 0.62354 0.0
C3583 C 0.38664 0.61585 0.61636 0.0
C3584 C 0.52791 0.5986 0.78991 0.0
C3585 C 0.51108 0.58775 0.78399 0.0
H3586 H 0.55344 0.60208 0.80508 0.0
C3587 C 0.5083 0.57099 0.78722 0.0
H3588 H 0.53067 0.61149 0.78746 0.0
C3589 C 0.52159 0.56556 0.79708 0.0
C3590 C 0.53783 0.57678 0.80382 0.0
H3591 H 0.49547 0.56232 0.783 0.0
H3592 H 0.51873 0.55291 0.80031 0.0
C3593 C 0.54106 0.5932 0.79981 0.0
C3594 C 0.61562 0.25984 0.14294 0.0
C3595 C 0.6041 0.25982 0.12842 0.0
H3596 H 0.63073 0.27375 0.1645 0.0
C3597 C 0.59839 0.27424 0.12501 0.0
H3598 H 0.62059 0.24913 0.1459 0.0
C3599 C 0.60446 0.28843 0.1356 0.0
C3600 C 0.61617 0.28846 0.15 0.0
H3601 H 0.58934 0.27463 0.11406 0.0
H3602 H 0.60009 0.29939 0.13237 0.0
C3603 C 0.62156 0.27399 0.15357 0.0
C3604 C 0.92161 0.42769 0.26044 0.0
C3605 C 0.92788 0.41392 0.26535 0.0
H3606 H 0.9032 0.44249 0.26239 0.0
C3607 C 0.92074 0.40522 0.27748 0.0
H3608 H 0.927 0.43494 0.25141 0.0
C3609 C 0.90713 0.40973 0.28393 0.0
C3610 C 0.90047 0.42311 0.27849 0.0
H3611 H 0.92514 0.39452 0.28154 0.0
H3612 H 0.90138 0.40245 0.29279 0.0
C3613 C 0.90807 0.43216 0.26687 0.0
C3614 C 0.91879 0.74789 0.60702 0.0
C3615 C 0.92088 0.74794 0.59102 0.0
H3616 H 0.91663 0.73385 0.62745 0.0
C3617 C 0.92217 0.73315 0.58346 0.0
H3618 H 0.91773 0.75897 0.61329 0.0
C3619 C 0.92115 0.71879 0.59145 0.0
C3620 C 0.91882 0.71863 0.60729 0.0
H3621 H 0.92435 0.73269 0.57136 0.0
H3622 H 0.92253 0.70778 0.58527 0.0
C3623 C 0.9179 0.73343 0.6151 0.0
C3624 C 0.58019 0.43631 0.74557 0.0
C3625 C 0.56458 0.43736 0.73524 0.0
H3626 H 0.60839 0.43885 0.74894 0.0
C3627 C 0.5658 0.44145 0.71964 0.0
H3628 H 0.57975 0.43297 0.75759 0.0
C3629 C 0.58233 0.44475 0.71465 0.0
C3630 C 0.5979 0.44373 0.7251 0.0
H3631 H 0.5541 0.44254 0.71142 0.0
H3632 H 0.5829 0.44828 0.70271 0.0
C3633 C 0.5966 0.43952 0.74059 0.0
C3634 C 0.82091 0.29488 0.87088 0.0
C3635 C 0.80824 0.28231 0.87611 0.0
H3636 H 0.82564 0.31605 0.85751 0.0
C3637 C 0.79017 0.28279 0.87293 0.0
H3638 H 0.835 0.29524 0.87346 0.0
C3639 C 0.78486 0.29507 0.86399 0.0
C3640 C 0.79752 0.30692 0.85802 0.0
H3641 H 0.78004 0.27328 0.87671 0.0
H3642 H 0.77082 0.29485 0.86111 0.0
C3643 C 0.8156 0.30691 0.86185 0.0
C3644 C 0.96214 0.62902 0.21013 0.0
C3645 C 0.96555 0.61705 0.22053 0.0
H3646 H 0.94262 0.63697 0.19363 0.0
C3647 C 0.95163 0.60294 0.22105 0.0
H3648 H 0.97246 0.64006 0.20942 0.0
C3649 C 0.93453 0.60129 0.21212 0.0
C3650 C 0.93093 0.6137 0.20247 0.0
H3651 H 0.95386 0.59327 0.2286 0.0
H3652 H 0.92394 0.59055 0.21312 0.0
C3653 C 0.94501 0.62732 0.20116 0.0
C3654 C 0.67752 0.70902 0.42652 0.0
C3655 C 0.65996 0.71007 0.42702 0.0
H3656 H 0.6942 0.69509 0.41799 0.0
C3657 C 0.64566 0.69691 0.41968 0.0
H3658 H 0.68889 0.71892 0.43201 0.0
C3659 C 0.64873 0.68334 0.41172 0.0
C3660 C 0.66619 0.68248 0.41078 0.0
H3661 H 0.63201 0.69696 0.42021 0.0
H3662 H 0.63733 0.67345 0.40625 0.0
C3663 C 0.6806 0.69534 0.41852 0.0
C3664 C 0.85317 0.62283 0.61711 0.0
C3665 C 0.84638 0.61472 0.62973 0.0
H3666 H 0.87187 0.64339 0.61014 0.0
C3667 C 0.85215 0.62277 0.64509 0.0
H3668 H 0.8488 0.61726 0.60505 0.0
C3669 C 0.86501 0.63791 0.64788 0.0
C3670 C 0.87271 0.6454 0.63546 0.0
H3671 H 0.84746 0.61703 0.65517 0.0
H3672 H 0.86955 0.64343 0.65997 0.0
C3673 C 0.86622 0.63797 0.61995 0.0
C3674 C 0.26023 0.89995 0.36141 0.0
C3675 C 0.25325 0.90799 0.3486 0.0
H3676 H 0.26834 0.87831 0.36904 0.0
C3677 C 0.2493 0.89989 0.33325 0.0
H3678 H 0.26323 0.90564 0.37343 0.0
C3679 C 0.25216 0.88418 0.33081 0.0
C3680 C 0.2591 0.87623 0.34364 0.0
H3681 H 0.24421 0.90576 0.32306 0.0
H3682 H 0.24888 0.87822 0.31888 0.0
C3683 C 0.26312 0.88426 0.35895 0.0
C3684 C 0.3164 0.04984 0.65149 0.0
C3685 C 0.30956 0.05125 0.66543 0.0
H3686 H 0.3381 0.05824 0.6393 0.0
C3687 C 0.32061 0.0615 0.67853 0.0
H3688 H 0.30823 0.04223 0.64111 0.0
C3689 C 0.33777 0.07069 0.67747 0.0
C3690 C 0.34415 0.0699 0.66324 0.0
H3691 H 0.31581 0.06276 0.68949 0.0
H3692 H 0.34568 0.07903 0.6875 0.0
C3693 C 0.33346 0.0591 0.6504 0.0
C3694 C 0.22509 0.102 0.88108 0.0
C3695 C 0.228 0.09227 0.89384 0.0
H3696 H 0.21677 0.12329 0.8729 0.0
C3697 C 0.223 0.09627 0.90819 0.0
H3698 H 0.22837 0.09911 0.86974 0.0
C3699 C 0.21619 0.11017 0.90994 0.0
C3700 C 0.21413 0.12028 0.89737 0.0
H3701 H 0.22505 0.08909 0.91827 0.0
H3702 H 0.21312 0.11338 0.92129 0.0
C3703 C 0.21827 0.1158 0.88283 0.0
C3704 C 0.69768 0.48923 0.68833 0.0
C3705 C 0.69818 0.49035 0.67206 0.0
H3706 H 0.68344 0.47733 0.70578 0.0
C3707 C 0.6834 0.48125 0.66088 0.0
H3708 H 0.70886 0.49595 0.69728 0.0
C3709 C 0.669 0.47066 0.66578 0.0
C3710 C 0.6689 0.46901 0.68196 0.0
H3711 H 0.68308 0.48207 0.64828 0.0
H3712 H 0.65817 0.46327 0.65688 0.0
C3713 C 0.68313 0.47864 0.69324 0.0
C3714 C 0.67172 0.39912 0.18101 0.0
C3715 C 0.6695 0.40596 0.16631 0.0
H3716 H 0.6629 0.37884 0.19463 0.0
C3717 C 0.6569 0.3966 0.15352 0.0
H3718 H 0.68115 0.40603 0.19116 0.0
C3719 C 0.64649 0.38091 0.15552 0.0
C3720 C 0.64838 0.37441 0.17038 0.0
H3721 H 0.65499 0.40147 0.142 0.0
H3722 H 0.63646 0.37417 0.14565 0.0
C3723 C 0.66126 0.38356 0.18303 0.0
C3724 C 0.31542 0.95963 0.82951 0.0
C3725 C 0.32402 0.96795 0.84441 0.0
H3726 H 0.31618 0.94254 0.81055 0.0
C3727 C 0.3416 0.96695 0.85041 0.0
H3728 H 0.30183 0.95978 0.82455 0.0
C3729 C 0.34981 0.95702 0.84228 0.0
C3730 C 0.3407 0.94798 0.82792 0.0
H3731 H 0.34878 0.97331 0.86173 0.0
H3732 H 0.36276 0.95549 0.84775 0.0
C3733 C 0.32366 0.94975 0.8214 0.0
C3734 C 0.13681 0.03774 0.3431 0.0
C3735 C 0.13644 0.0227 0.33494 0.0
H3736 H 0.12213 0.05553 0.3475 0.0
C3737 C 0.12103 0.01482 0.32379 0.0
H3738 H 0.14839 0.04409 0.35183 0.0
C3739 C 0.10613 0.02135 0.32134 0.0
C3740 C 0.10626 0.03604 0.32984 0.0
H3741 H 0.12037 1.00339 0.31707 0.0
H3742 H 0.09429 0.01466 0.31305 0.0
C3743 C 0.1218 0.04429 0.34063 0.0
C3744 C 0.38065 0.16617 0.44816 0.0
C3745 C 0.37761 0.15688 0.46121 0.0
H3746 H 0.38464 0.16585 0.42396 0.0
C3747 C 0.37664 0.13985 0.45973 0.0
H3748 H 0.38157 0.17932 0.44899 0.0
C3749 C 0.3783 0.13224 0.44552 0.0
C3750 C 0.38119 0.14145 0.43246 0.0
H3751 H 0.37415 0.1323 0.46948 0.0
H3752 H 0.37707 0.11903 0.44465 0.0
C3753 C 0.3826 0.15854 0.43394 0.0
C3754 C 0.55358 0.60607 0.16643 0.0
C3755 C 0.56586 0.61081 0.18082 0.0
H3756 H 0.54992 0.60018 0.14128 0.0
C3757 C 0.5842 0.61361 0.18068 0.0
H3758 H 0.53937 0.60386 0.16621 0.0
C3759 C 0.59015 0.61152 0.16656 0.0
C3760 C 0.57793 0.60664 0.15221 0.0
H3761 H 0.59399 0.61703 0.19158 0.0
H3762 H 0.60437 0.61349 0.16688 0.0
C3763 C 0.55959 0.60413 0.15219 0.0
C3764 C 0.1241 0.84581 0.01446 0.0
C3765 C 0.13988 0.84041 0.01759 0.0
H3766 H 0.10873 0.8594 0.99971 0.0
C3767 C 0.15223 0.84445 0.00736 0.0
H3768 H 0.1142 0.84281 0.02195 0.0
C3769 C 0.14899 0.85388 0.99451 0.0
C3770 C 0.1332 0.85925 0.99145 0.0
H3771 H 0.16465 0.84073 0.00953 0.0
H3772 H 0.15897 0.85721 0.98713 0.0
C3773 C 0.12085 0.85516 1.0016 0.0
C3774 C 0.83781 0.34703 0.61763 0.0
C3775 C 0.84965 0.35821 0.62973 0.0
H3776 H 0.82095 0.34386 0.59462 0.0
C3777 C 0.85478 0.37498 0.62684 0.0
H3778 H 0.83374 0.33398 0.61928 0.0
C3779 C 0.84776 0.38053 0.6126 0.0
C3780 C 0.83521 0.36952 0.60089 0.0
H3781 H 0.86364 0.38405 0.63586 0.0
H3782 H 0.85175 0.3936 0.61096 0.0
C3783 C 0.83064 0.35263 0.60338 0.0
C3784 C 0.30382 0.85419 0.99197 0.0
C3785 C 0.30119 0.83705 0.98855 0.0
H3786 H 0.31254 0.87472 0.00965 0.0
C3787 C 0.30431 0.8273 1.00125 0.0
H3788 H 0.30177 0.86218 0.98256 0.0
C3789 C 0.31068 0.83459 0.01681 0.0
C3790 C 0.31411 0.85179 0.02 0.0
H3791 H 0.30212 0.81404 0.99915 0.0
H3792 H 0.31349 0.82688 0.02629 0.0
C3793 C 0.31012 0.86144 0.00751 0.0
C3794 C 0.93071 0.60964 0.85213 0.0
C3795 C 0.94086 0.62256 0.8449 0.0
H3796 H 0.91152 0.60263 0.86732 0.0
C3797 C 0.93984 0.63881 0.84852 0.0
H3798 H 0.93091 0.59693 0.8495 0.0
C3799 C 0.92877 0.64203 0.85877 0.0
C3800 C 0.91851 0.62913 0.86583 0.0
H3801 H 0.94758 0.64913 0.84341 0.0
H3802 H 0.928 0.65465 0.86097 0.0
C3803 C 0.91958 0.61288 0.86237 0.0
C3804 C 0.08956 0.13352 0.55184 0.0
C3805 C 0.07347 0.13653 0.54399 0.0
H3806 H 0.10236 0.12212 0.57097 0.0
C3807 C 0.05803 0.13117 0.55054 0.0
H3808 H 0.10168 0.13723 0.54707 0.0
C3809 C 0.05845 0.12246 0.56413 0.0
C3810 C 0.07436 0.11902 0.57165 0.0
H3811 H 0.04546 0.13344 0.54502 0.0
H3812 H 0.04618 0.11803 0.56853 0.0
C3813 C 0.08997 0.12481 0.5655 0.0
C3814 C 0.60207 0.40115 0.3911 0.0
C3815 C 0.59275 0.38553 0.38346 0.0
H3816 H 0.62111 0.41478 0.41084 0.0
C3817 C 0.59471 0.37137 0.39135 0.0
H3818 H 0.60115 0.41239 0.38553 0.0
C3819 C 0.60671 0.37277 0.40578 0.0
C3820 C 0.61687 0.38837 0.41277 0.0
H3821 H 0.58742 0.35911 0.38615 0.0
H3822 H 0.60871 0.3616 0.41098 0.0
C3823 C 0.61378 0.40253 0.4056 0.0
C3824 C 0.45929 0.43125 0.23974 0.0
C3825 C 0.47794 0.43418 0.24105 0.0
H3826 H 0.43438 0.43204 0.22515 0.0
C3827 C 0.48585 0.44196 0.22887 0.0
H3828 H 0.45267 0.42516 0.24878 0.0
C3829 C 0.47534 0.44576 0.21536 0.0
C3830 C 0.45668 0.44209 0.21374 0.0
H3831 H 0.50017 0.44479 0.2296 0.0
H3832 H 0.48174 0.45105 0.20586 0.0
C3833 C 0.44877 0.43523 0.22623 0.0
C3834 C 0.27913 0.70373 0.84739 0.0
C3835 C 0.28362 0.7047 0.86406 0.0
H3836 H 0.27619 0.68937 0.82543 0.0
C3837 C 0.28905 0.69144 0.87128 0.0
H3838 H 0.27457 0.71352 0.84141 0.0
C3839 C 0.28976 0.67753 0.8621 0.0
C3840 C 0.28543 0.6767 0.84547 0.0
H3841 H 0.29285 0.69179 0.88405 0.0
H3842 H 0.29366 0.6674 0.86803 0.0
C3843 C 0.27999 0.68988 0.83822 0.0
C3844 C 0.05042 0.55603 0.72475 0.0
C3845 C 0.0587 0.56983 0.73574 0.0
H3846 H 0.05326 0.53991 0.70586 0.0
C3847 C 0.07737 0.57608 0.73767 0.0
H3848 H 0.03609 0.55097 0.72266 0.0
C3849 C 0.08716 0.56963 0.72799 0.0
C3850 C 0.0786 0.55664 0.71632 0.0
H3851 H 0.08433 0.58651 0.74613 0.0
H3852 H 0.10118 0.57566 0.72879 0.0
C3853 C 0.06027 0.54954 0.71515 0.0
C3854 C 0.08352 0.27731 0.42004 0.0
C3855 C 0.09352 0.26539 0.42219 0.0
H3856 H 0.07963 0.2988 0.40838 0.0
C3857 C 0.10812 0.2668 0.41444 0.0
H3858 H 0.07206 0.27649 0.42567 0.0
C3859 C 0.11251 0.27962 0.4047 0.0
C3860 C 0.10255 0.29148 0.4025 0.0
H3861 H 0.11625 0.258 0.41593 0.0
H3862 H 0.12366 0.28016 0.39869 0.0
C3863 C 0.08787 0.29011 0.41016 0.0
C3864 C 0.43883 0.60212 0.30713 0.0
C3865 C 0.43822 0.59202 0.29346 0.0
H3866 H 0.42614 0.60629 0.32657 0.0
C3867 C 0.42323 0.57853 0.28853 0.0
H3868 H 0.44994 0.6128 0.31111 0.0
C3869 C 0.40955 0.57491 0.29733 0.0
C3870 C 0.41057 0.58462 0.31129 0.0
H3871 H 0.42232 0.5704 0.27814 0.0
H3872 H 0.39841 0.56421 0.2935 0.0
C3873 C 0.42513 0.59848 0.31593 0.0
C3874 C 0.19185 0.72852 0.15786 0.0
C3875 C 0.18342 0.72834 0.14197 0.0
H3876 H 0.20088 0.71447 0.17646 0.0
C3877 C 0.17968 0.71366 0.13203 0.0
H3878 H 0.19535 0.73968 0.16578 0.0
C3879 C 0.18328 0.69924 0.13815 0.0
C3880 C 0.19055 0.69929 0.15429 0.0
H3881 H 0.17312 0.71305 0.11976 0.0
H3882 H 0.17941 0.68785 0.13052 0.0
C3883 C 0.19521 0.71414 0.16397 0.0
C3884 C 0.9884 0.34256 0.78217 0.0
C3885 C 0.98848 0.35142 0.76853 0.0
H3886 H 1.00309 0.33858 0.8046 0.0
C3887 C 1.00456 0.3626 0.76688 0.0
H3888 H 0.97645 0.33358 0.78373 0.0
C3889 C 0.01985 0.36532 0.77879 0.0
C3890 C 0.01944 0.35703 0.7927 0.0
H3891 H 1.00519 0.36976 0.75665 0.0
H3892 H 0.03184 0.37436 0.7774 0.0
C3893 C 1.00371 0.3453 0.79408 0.0
C3894 C 0.34421 0.29493 0.57895 0.0
C3895 C 0.33221 0.27923 0.57464 0.0
H3896 H 0.34935 0.31898 0.59124 0.0
C3897 C 0.31541 0.27635 0.57916 0.0
H3898 H 0.35737 0.29757 0.57591 0.0
C3899 C 0.31083 0.28866 0.58785 0.0
C3900 C 0.3228 0.30429 0.59217 0.0
H3901 H 0.30572 0.26455 0.57595 0.0
H3902 H 0.29792 0.28588 0.59139 0.0
C3903 C 0.33963 0.30724 0.58772 0.0
C3904 C 0.15477 0.39671 0.40385 0.0
C3905 C 0.16219 0.40514 0.39169 0.0
H3906 H 0.13664 0.37524 0.40992 0.0
C3907 C 0.15872 0.39676 0.37653 0.0
H3908 H 0.15745 0.40258 0.41577 0.0
C3909 C 0.14718 0.38095 0.37333 0.0
C3910 C 0.1386 0.37315 0.38513 0.0
H3911 H 0.164 0.40276 0.3668 0.0
H3912 H 0.14418 0.37519 0.36133 0.0
C3913 C 0.14305 0.38091 0.40059 0.0
C3914 C 0.73129 0.10763 0.65803 0.0
C3915 C 0.7247 0.09479 0.64578 0.0
H3916 H 0.72863 0.13052 0.66824 0.0
C3917 C 0.70994 0.09559 0.6342 0.0
H3918 H 0.74262 0.10743 0.66716 0.0
C3919 C 0.70212 0.10884 0.63471 0.0
C3920 C 0.70872 0.1217 0.6468 0.0
H3921 H 0.70409 0.08574 0.62486 0.0
H3922 H 0.69065 0.10896 0.62569 0.0
C3923 C 0.72335 0.12094 0.65858 0.0
C3924 C 0.64526 0.91351 0.34246 0.0
C3925 C 0.65136 0.91714 0.32826 0.0
H3926 H 0.6248 0.89968 0.3536 0.0
C3927 C 0.64047 0.90946 0.31384 0.0
H3928 H 0.65305 0.91954 0.35373 0.0
C3929 C 0.62419 0.89784 0.31375 0.0
C3930 C 0.61846 0.89378 0.32808 0.0
H3931 H 0.64478 0.91207 0.30268 0.0
H3932 H 0.61644 0.89164 0.30255 0.0
C3933 C 0.62901 0.90211 0.34237 0.0
C3934 C 0.79894 0.90897 0.10756 0.0
C3935 C 0.79161 0.91129 0.12109 0.0
H3936 H 0.81499 0.89607 0.09658 0.0
C3937 C 0.79432 0.90138 0.13372 0.0
H3938 H 0.79702 0.9163 0.09758 0.0
C3939 C 0.80442 0.88983 0.13308 0.0
C3940 C 0.81208 0.88777 0.11976 0.0
H3941 H 0.78915 0.90294 0.14442 0.0
H3942 H 0.80673 0.8828 0.14324 0.0
C3943 C 0.809 0.89724 0.10687 0.0
C3944 C 0.30209 0.53565 0.33414 0.0
C3945 C 0.30154 0.53475 0.35041 0.0
H3946 H 0.31604 0.54783 0.31664 0.0
C3947 C 0.31618 0.54398 0.36158 0.0
H3948 H 0.29102 0.52863 0.32525 0.0
C3949 C 0.33045 0.55468 0.35667 0.0
C3950 C 0.33042 0.55651 0.34046 0.0
H3951 H 0.31638 0.54327 0.37419 0.0
H3952 H 0.34114 0.56222 0.36559 0.0
C3953 C 0.31643 0.5465 0.32919 0.0
C3954 C 0.27618 0.57193 0.84821 0.0
C3955 C 0.26957 0.56061 0.8347 0.0
H3956 H 0.2895 0.59698 0.85727 0.0
C3957 C 0.27096 0.56632 0.81968 0.0
H3958 H 0.27513 0.56793 0.85994 0.0
C3959 C 0.27896 0.58284 0.81817 0.0
C3960 C 0.28588 0.5941 0.83165 0.0
H3961 H 0.2662 0.55794 0.80904 0.0
H3962 H 0.27994 0.58679 0.80641 0.0
C3963 C 0.28419 0.58856 0.84669 0.0
C3964 C 0.66761 0.02799 0.16081 0.0
C3965 C 0.68391 0.02652 0.16977 0.0
H3966 H 0.64403 0.03685 0.16055 0.0
C3967 C 0.68792 0.03177 0.18606 0.0
H3968 H 0.6641 0.02428 0.14822 0.0
C3969 C 0.6765 0.03901 0.19302 0.0
C3970 C 0.66057 0.041 0.184 0.0
H3971 H 0.70014 0.03061 0.19344 0.0
H3972 H 0.6804 0.04349 0.20544 0.0
C3973 C 0.65611 0.03523 0.16785 0.0
C3974 C 0.84883 0.9661 0.65921 0.0
C3975 C 0.85021 0.98172 0.66675 0.0
H3976 H 0.85968 0.94496 0.65851 0.0
C3977 C 0.86496 0.98843 0.67903 0.0
H3978 H 0.8379 0.96068 0.6495 0.0
C3979 C 0.87752 0.97945 0.68408 0.0
C3980 C 0.87564 0.96357 0.67698 0.0
H3981 H 0.86644 1.00035 0.6852 0.0
H3982 H 0.88839 0.98465 0.69391 0.0
C3983 C 0.86139 0.95714 0.66427 0.0
loop_
_geom_bond_atom_site_label_1
_geom_bond_atom_site_label_2
_geom_bond_distance
_geom_bond_site_symmetry_2
_ccdc_geom_bond_type
C0 C1 1.264 . S
C0 C5 1.479 . S
C0 C10 1.465 . S
C1 C0 1.264 . S
C1 C3 1.339 . S
C1 H28 0.931 . S
C2 C3 1.395 . S
C2 C4 1.320 . S
C3 C1 1.339 . S
C3 C2 1.395 . S
C3 H29 0.929 . S
C4 C2 1.320 . S
C4 C5 1.405 . S
C4 H30 0.930 . S
C5 C0 1.479 . S
C5 C4 1.405 . S
C5 H31 0.931 . S
U6 O7 2.454 . S
U6 O8 2.457 . S
U6 C9 2.984 . S
U6 C10 2.848 1_455 S
U6 C23 2.882 . S
U6 O24 2.441 1_455 S
U6 O25 2.421 1_455 S
U6 O26 2.454 . S
U6 O27 2.449 . S
O7 U6 2.454 . S
O7 C9 1.353 . S
O8 U6 2.457 . S
O8 C9 1.286 . S
C9 U6 2.984 . S
C9 O7 1.353 . S
C9 O8 1.286 . S
C9 C11 1.363 . S
C10 C0 1.465 . S
C10 U6 2.848 1_655 S
C10 O24 1.249 . S
C10 O25 1.202 . S
C11 C9 1.363 . S
C11 C13 1.408 . S
C11 C16 1.342 . S
C12 C13 1.310 . S
C12 C15 1.461 . S
C12 H32 0.932 . S
C13 C11 1.408 . S
C13 C12 1.310 . S
C13 H33 0.930 . S
C14 C15 1.474 . S
C14 C16 1.285 . S
C14 H34 0.929 . S
C15 C12 1.461 . S
C15 C14 1.474 . S
C16 C11 1.342 . S
C16 C14 1.285 . S
C16 H35 0.930 . S
C17 C20 1.424 . S
C17 C22 1.245 . S
C17 C23 1.428 . S
C18 C21 1.260 . S
C18 C22 1.477 . S
C18 H36 0.932 . S
C19 C20 1.384 . S
C19 C21 1.479 . S
C19 H37 0.929 . S
C20 C17 1.424 . S
C20 C19 1.384 . S
C20 H38 0.928 . S
C21 C18 1.260 . S
C21 C19 1.479 . S
C22 C17 1.245 . S
C22 C18 1.477 . S
C22 H39 0.932 . S
C23 U6 2.882 . S
C23 C17 1.428 . S
C23 O26 1.301 . S
C23 O27 1.282 . S
O24 U6 2.441 1_655 S
O24 C10 1.249 . S
O25 U6 2.421 1_655 S
O25 C10 1.202 . S
O26 U6 2.454 . S
O26 C23 1.301 . S
O27 U6 2.449 . S
O27 C23 1.282 . S
H28 C1 0.931 . S
H29 C3 0.929 . S
H30 C4 0.930 . S
H31 C5 0.931 . S
H32 C12 0.932 . S
H33 C13 0.930 . S
H34 C14 0.929 . S
H35 C16 0.930 . S
H36 C18 0.932 . S
H37 C19 0.929 . S
H38 C20 0.928 . S
H39 C22 0.932 . S
C40 C41 1.264 . S
C40 C45 1.479 . S
C40 C50 1.465 . S
C41 C40 1.264 . S
C41 C43 1.339 . S
C41 H68 0.931 . S
C42 C43 1.395 . S
C42 C44 1.320 . S
C43 C41 1.339 . S
C43 C42 1.395 . S
C43 H69 0.929 . S
C44 C42 1.320 . S
C44 C45 1.405 . S
C44 H70 0.930 . S
C45 C40 1.479 . S
C45 C44 1.405 . S
C45 H71 0.931 . S
U46 O47 2.454 . S
U46 O48 2.458 . S
U46 C49 2.984 . S
U46 C50 2.847 . S
U46 C63 2.882 . S
U46 O64 2.441 . S
U46 O65 2.420 . S
U46 O66 2.455 . S
U46 O67 2.449 . S
O47 U46 2.454 . S
O47 C49 1.353 . S
O48 U46 2.458 . S
O48 C49 1.286 . S
C49 U46 2.984 . S
C49 O47 1.353 . S
C49 O48 1.286 . S
C49 C51 1.363 . S
C50 C40 1.465 . S
C50 U46 2.847 . S
C50 O64 1.249 . S
C50 O65 1.202 . S
C51 C49 1.363 . S
C51 C53 1.408 . S
C51 C56 1.342 . S
C52 C53 1.310 . S
C52 C55 1.461 . S
C52 H72 0.932 . S
C53 C51 1.408 . S
C53 C52 1.310 . S
C53 H73 0.930 . S
C54 C55 1.474 . S
C54 C56 1.285 . S
C54 H74 0.929 . S
C55 C52 1.461 . S
C55 C54 1.474 . S
C56 C51 1.342 . S
C56 C54 1.285 . S
C56 H75 0.930 . S
C57 C60 1.424 . S
C57 C62 1.245 . S
C57 C63 1.428 . S
C58 C61 1.260 . S
C58 C62 1.477 . S
C58 H76 0.932 . S
C59 C60 1.384 . S
C59 C61 1.479 . S
C59 H77 0.929 . S
C60 C57 1.424 . S
C60 C59 1.384 . S
C60 H78 0.928 . S
C61 C58 1.260 . S
C61 C59 1.479 . S
C62 C57 1.245 . S
C62 C58 1.477 . S
C62 H79 0.932 . S
C63 U46 2.882 . S
C63 C57 1.428 . S
C63 O66 1.301 . S
C63 O67 1.282 . S
O64 U46 2.441 . S
O64 C50 1.249 . S
O65 U46 2.420 . S
O65 C50 1.202 . S
O66 U46 2.455 . S
O66 C63 1.301 . S
O67 U46 2.449 . S
O67 C63 1.282 . S
H68 C41 0.931 . S
H69 C43 0.929 . S
H70 C44 0.930 . S
H71 C45 0.931 . S
H72 C52 0.932 . S
H73 C53 0.930 . S
H74 C54 0.929 . S
H75 C56 0.930 . S
H76 C58 0.932 . S
H77 C59 0.929 . S
H78 C60 0.928 . S
H79 C62 0.932 . S
C80 C81 1.264 . S
C80 C85 1.479 . S
C80 C90 1.465 . S
C81 C80 1.264 . S
C81 C83 1.339 . S
C81 H108 0.931 . S
C82 C83 1.395 . S
C82 C84 1.320 . S
C83 C81 1.339 . S
C83 C82 1.395 . S
C83 H109 0.929 . S
C84 C82 1.320 . S
C84 C85 1.405 . S
C84 H110 0.930 . S
C85 C80 1.479 . S
C85 C84 1.405 . S
C85 H111 0.931 . S
U86 O87 2.454 . S
U86 O88 2.458 . S
U86 C89 2.984 . S
U86 C90 2.847 . S
U86 C103 2.882 . S
U86 O104 2.441 . S
U86 O105 2.420 . S
U86 O106 2.455 . S
U86 O107 2.449 . S
O87 U86 2.454 . S
O87 C89 1.353 . S
O88 U86 2.458 . S
O88 C89 1.286 . S
C89 U86 2.984 . S
C89 O87 1.353 . S
C89 O88 1.286 . S
C89 C91 1.363 . S
C90 C80 1.465 . S
C90 U86 2.847 . S
C90 O104 1.249 . S
C90 O105 1.202 . S
C91 C89 1.363 . S
C91 C93 1.408 . S
C91 C96 1.342 . S
C92 C93 1.310 . S
C92 C95 1.461 . S
C92 H112 0.932 . S
C93 C91 1.408 . S
C93 C92 1.310 . S
C93 H113 0.930 . S
C94 C95 1.474 . S
C94 C96 1.285 . S
C94 H114 0.929 . S
C95 C92 1.461 . S
C95 C94 1.474 . S
C96 C91 1.342 . S
C96 C94 1.285 . S
C96 H115 0.930 . S
C97 C100 1.424 . S
C97 C102 1.245 . S
C97 C103 1.428 . S
C98 C101 1.260 . S
C98 C102 1.477 . S
C98 H116 0.932 . S
C99 C100 1.384 . S
C99 C101 1.479 . S
C99 H117 0.929 . S
C100 C97 1.424 . S
C100 C99 1.384 . S
C100 H118 0.928 . S
C101 C98 1.260 . S
C101 C99 1.479 . S
C102 C97 1.245 . S
C102 C98 1.477 . S
C102 H119 0.932 . S
C103 U86 2.882 . S
C103 C97 1.428 . S
C103 O106 1.301 . S
C103 O107 1.282 . S
O104 U86 2.441 . S
O104 C90 1.249 . S
O105 U86 2.420 . S
O105 C90 1.202 . S
O106 U86 2.455 . S
O106 C103 1.301 . S
O107 U86 2.449 . S
O107 C103 1.282 . S
H108 C81 0.931 . S
H109 C83 0.929 . S
H110 C84 0.930 . S
H111 C85 0.931 . S
H112 C92 0.932 . S
H113 C93 0.930 . S
H114 C94 0.929 . S
H115 C96 0.930 . S
H116 C98 0.932 . S
H117 C99 0.929 . S
H118 C100 0.928 . S
H119 C102 0.932 . S
C120 C121 1.264 . S
C120 C125 1.479 . S
C120 C130 1.465 . S
C121 C120 1.264 . S
C121 C123 1.339 . S
C121 H148 0.931 . S
C122 C123 1.395 . S
C122 C124 1.320 . S
C123 C121 1.339 . S
C123 C122 1.395 . S
C123 H149 0.929 . S
C124 C122 1.320 . S
C124 C125 1.405 . S
C124 H150 0.930 . S
C125 C120 1.479 . S
C125 C124 1.405 . S
C125 H151 0.931 . S
U126 O127 2.454 . S
U126 O128 2.458 . S
U126 C129 2.984 . S
U126 C130 2.847 . S
U126 C143 2.882 . S
U126 O144 2.441 . S
U126 O145 2.420 . S
U126 O146 2.455 . S
U126 O147 2.449 . S
O127 U126 2.454 . S
O127 C129 1.353 . S
O128 U126 2.458 . S
O128 C129 1.286 . S
C129 U126 2.984 . S
C129 O127 1.353 . S
C129 O128 1.286 . S
C129 C131 1.363 . S
C130 C120 1.465 . S
C130 U126 2.847 . S
C130 O144 1.249 . S
C130 O145 1.202 . S
C131 C129 1.363 . S
C131 C133 1.408 . S
C131 C136 1.342 . S
C132 C133 1.310 . S
C132 C135 1.461 . S
C132 H152 0.932 . S
C133 C131 1.408 . S
C133 C132 1.310 . S
C133 H153 0.930 . S
C134 C135 1.474 . S
C134 C136 1.285 . S
C134 H154 0.929 . S
C135 C132 1.461 . S
C135 C134 1.474 . S
C136 C131 1.342 . S
C136 C134 1.285 . S
C136 H155 0.930 . S
C137 C140 1.424 . S
C137 C142 1.245 . S
C137 C143 1.428 . S
C138 C141 1.260 . S
C138 C142 1.477 . S
C138 H156 0.932 . S
C139 C140 1.384 . S
C139 C141 1.479 . S
C139 H157 0.929 . S
C140 C137 1.424 . S
C140 C139 1.384 . S
C140 H158 0.928 . S
C141 C138 1.260 . S
C141 C139 1.479 . S
C142 C137 1.245 . S
C142 C138 1.477 . S
C142 H159 0.932 . S
C143 U126 2.882 . S
C143 C137 1.428 . S
C143 O146 1.301 . S
C143 O147 1.282 . S
O144 U126 2.441 . S
O144 C130 1.249 . S
O145 U126 2.420 . S
O145 C130 1.202 . S
O146 U126 2.455 . S
O146 C143 1.301 . S
O147 U126 2.449 . S
O147 C143 1.282 . S
H148 C121 0.931 . S
H149 C123 0.929 . S
H150 C124 0.930 . S
H151 C125 0.931 . S
H152 C132 0.932 . S
H153 C133 0.930 . S
H154 C134 0.929 . S
H155 C136 0.930 . S
H156 C138 0.932 . S
H157 C139 0.929 . S
H158 C140 0.928 . S
H159 C142 0.932 . S
C160 C161 1.264 . S
C160 C165 1.479 . S
C160 C170 1.465 . S
C161 C160 1.264 . S
C161 C163 1.337 . S
C161 H188 0.931 . S
C162 C163 1.397 1_655 S
C162 C164 1.320 . S
C163 C161 1.337 . S
C163 C162 1.397 1_455 S
C163 H189 0.929 1_455 S
C164 C162 1.320 . S
C164 C165 1.405 1_655 S
C164 H190 0.930 . S
C165 C160 1.479 . S
C165 C164 1.405 1_455 S
C165 H191 0.931 . S
U166 O167 2.454 . S
U166 O168 2.458 . S
U166 C169 2.984 . S
U166 C170 2.847 . S
U166 C183 2.882 . S
U166 O184 2.441 . S
U166 O185 2.420 . S
U166 O186 2.455 . S
U166 O187 2.449 . S
O167 U166 2.454 . S
O167 C169 1.353 . S
O168 U166 2.458 . S
O168 C169 1.286 . S
C169 U166 2.984 . S
C169 O167 1.353 . S
C169 O168 1.286 . S
C169 C171 1.363 . S
C170 C160 1.465 . S
C170 U166 2.847 . S
C170 O184 1.249 . S
C170 O185 1.202 . S
C171 C169 1.363 . S
C171 C173 1.408 . S
C171 C176 1.342 . S
C172 C173 1.310 . S
C172 C175 1.461 . S
C172 H192 0.932 . S
C173 C171 1.408 . S
C173 C172 1.310 . S
C173 H193 0.930 . S
C174 C175 1.474 . S
C174 C176 1.285 . S
C174 H194 0.929 . S
C175 C172 1.461 . S
C175 C174 1.474 . S
C176 C171 1.342 . S
C176 C174 1.285 . S
C176 H195 0.930 . S
C177 C180 1.424 . S
C177 C182 1.245 . S
C177 C183 1.428 . S
C178 C181 1.260 . S
C178 C182 1.477 . S
C178 H196 0.932 . S
C179 C180 1.384 . S
C179 C181 1.479 . S
C179 H197 0.929 . S
C180 C177 1.424 . S
C180 C179 1.384 . S
C180 H198 0.928 . S
C181 C178 1.260 . S
C181 C179 1.479 . S
C182 C177 1.245 . S
C182 C178 1.477 . S
C182 H199 0.932 . S
C183 U166 2.882 . S
C183 C177 1.428 . S
C183 O186 1.301 . S
C183 O187 1.282 . S
O184 U166 2.441 . S
O184 C170 1.249 . S
O185 U166 2.420 . S
O185 C170 1.202 . S
O186 U166 2.455 . S
O186 C183 1.301 . S
O187 U166 2.449 . S
O187 C183 1.282 . S
H188 C161 0.931 . S
H189 C163 0.929 1_655 S
H190 C164 0.930 . S
H191 C165 0.931 . S
H192 C172 0.932 . S
H193 C173 0.930 . S
H194 C174 0.929 . S
H195 C176 0.930 . S
H196 C178 0.932 . S
H197 C179 0.929 . S
H198 C180 0.928 . S
H199 C182 0.932 . S
C200 C201 1.264 . S
C200 C205 1.479 . S
C200 C210 1.465 . S
C201 C200 1.264 . S
C201 C203 1.339 . S
C201 H228 0.931 . S
C202 C203 1.395 . S
C202 C204 1.320 . S
C203 C201 1.339 . S
C203 C202 1.395 . S
C203 H229 0.929 . S
C204 C202 1.320 . S
C204 C205 1.405 . S
C204 H230 0.930 . S
C205 C200 1.479 . S
C205 C204 1.405 . S
C205 H231 0.931 . S
U206 O207 2.454 . S
U206 O208 2.458 . S
U206 C209 2.984 . S
U206 C210 2.847 . S
U206 C223 2.882 . S
U206 O224 2.441 . S
U206 O225 2.420 . S
U206 O226 2.455 . S
U206 O227 2.449 . S
O207 U206 2.454 . S
O207 C209 1.353 . S
O208 U206 2.458 . S
O208 C209 1.286 . S
C209 U206 2.984 . S
C209 O207 1.353 . S
C209 O208 1.286 . S
C209 C211 1.363 . S
C210 C200 1.465 . S
C210 U206 2.847 . S
C210 O224 1.249 . S
C210 O225 1.202 . S
C211 C209 1.363 . S
C211 C213 1.408 . S
C211 C216 1.342 . S
C212 C213 1.310 . S
C212 C215 1.461 . S
C212 H232 0.932 . S
C213 C211 1.408 . S
C213 C212 1.310 . S
C213 H233 0.930 . S
C214 C215 1.474 . S
C214 C216 1.285 . S
C214 H234 0.929 . S
C215 C212 1.461 . S
C215 C214 1.474 . S
C216 C211 1.342 . S
C216 C214 1.285 . S
C216 H235 0.930 . S
C217 C220 1.424 . S
C217 C222 1.245 . S
C217 C223 1.428 . S
C218 C221 1.260 . S
C218 C222 1.477 . S
C218 H236 0.932 . S
C219 C220 1.384 . S
C219 C221 1.479 . S
C219 H237 0.929 . S
C220 C217 1.424 . S
C220 C219 1.384 . S
C220 H238 0.928 . S
C221 C218 1.260 . S
C221 C219 1.479 . S
C222 C217 1.245 . S
C222 C218 1.477 . S
C222 H239 0.932 . S
C223 U206 2.882 . S
C223 C217 1.428 . S
C223 O226 1.301 . S
C223 O227 1.282 . S
O224 U206 2.441 . S
O224 C210 1.249 . S
O225 U206 2.420 . S
O225 C210 1.202 . S
O226 U206 2.455 . S
O226 C223 1.301 . S
O227 U206 2.449 . S
O227 C223 1.282 . S
H228 C201 0.931 . S
H229 C203 0.929 . S
H230 C204 0.930 . S
H231 C205 0.931 . S
H232 C212 0.932 . S
H233 C213 0.930 . S
H234 C214 0.929 . S
H235 C216 0.930 . S
H236 C218 0.932 . S
H237 C219 0.929 . S
H238 C220 0.928 . S
H239 C222 0.932 . S
C240 C241 1.264 . S
C240 C245 1.479 . S
C240 C250 1.465 . S
C241 C240 1.264 . S
C241 C243 1.339 . S
C241 H268 0.931 . S
C242 C243 1.395 . S
C242 C244 1.320 . S
C243 C241 1.339 . S
C243 C242 1.395 . S
C243 H269 0.929 . S
C244 C242 1.320 . S
C244 C245 1.405 . S
C244 H270 0.930 . S
C245 C240 1.479 . S
C245 C244 1.405 . S
C245 H271 0.931 . S
U246 O247 2.454 . S
U246 O248 2.458 . S
U246 C249 2.984 . S
U246 C250 2.847 . S
U246 C263 2.882 . S
U246 O264 2.441 . S
U246 O265 2.420 . S
U246 O266 2.455 . S
U246 O267 2.449 . S
O247 U246 2.454 . S
O247 C249 1.353 . S
O248 U246 2.458 . S
O248 C249 1.286 . S
C249 U246 2.984 . S
C249 O247 1.353 . S
C249 O248 1.286 . S
C249 C251 1.363 . S
C250 C240 1.465 . S
C250 U246 2.847 . S
C250 O264 1.249 . S
C250 O265 1.202 . S
C251 C249 1.363 . S
C251 C253 1.408 . S
C251 C256 1.342 . S
C252 C253 1.310 . S
C252 C255 1.461 . S
C252 H272 0.932 . S
C253 C251 1.408 . S
C253 C252 1.310 . S
C253 H273 0.930 . S
C254 C255 1.474 . S
C254 C256 1.285 . S
C254 H274 0.929 . S
C255 C252 1.461 . S
C255 C254 1.474 . S
C256 C251 1.342 . S
C256 C254 1.285 . S
C256 H275 0.930 . S
C257 C260 1.424 . S
C257 C262 1.245 . S
C257 C263 1.428 . S
C258 C261 1.260 . S
C258 C262 1.477 . S
C258 H276 0.932 . S
C259 C260 1.384 . S
C259 C261 1.479 . S
C259 H277 0.929 . S
C260 C257 1.424 . S
C260 C259 1.384 . S
C260 H278 0.928 . S
C261 C258 1.260 . S
C261 C259 1.479 . S
C262 C257 1.245 . S
C262 C258 1.477 . S
C262 H279 0.932 . S
C263 U246 2.882 . S
C263 C257 1.428 . S
C263 O266 1.301 . S
C263 O267 1.282 . S
O264 U246 2.441 . S
O264 C250 1.249 . S
O265 U246 2.420 . S
O265 C250 1.202 . S
O266 U246 2.455 . S
O266 C263 1.301 . S
O267 U246 2.449 . S
O267 C263 1.282 . S
H268 C241 0.931 . S
H269 C243 0.929 . S
H270 C244 0.930 . S
H271 C245 0.931 . S
H272 C252 0.932 . S
H273 C253 0.930 . S
H274 C254 0.929 . S
H275 C256 0.930 . S
H276 C258 0.932 . S
H277 C259 0.929 . S
H278 C260 0.928 . S
H279 C262 0.932 . S
C280 C281 1.264 . S
C280 C285 1.479 . S
C280 C290 1.465 . S
C281 C280 1.264 . S
C281 C283 1.339 . S
C281 H308 0.931 . S
C282 C283 1.395 . S
C282 C284 1.320 . S
C283 C281 1.339 . S
C283 C282 1.395 . S
C283 H309 0.929 . S
C284 C282 1.320 . S
C284 C285 1.405 . S
C284 H310 0.930 . S
C285 C280 1.479 . S
C285 C284 1.405 . S
C285 H311 0.931 . S
U286 O287 2.454 . S
U286 O288 2.458 . S
U286 C289 2.984 . S
U286 C290 2.847 . S
U286 C303 2.882 . S
U286 O304 2.441 . S
U286 O305 2.420 . S
U286 O306 2.455 . S
U286 O307 2.449 . S
O287 U286 2.454 . S
O287 C289 1.353 . S
O288 U286 2.458 . S
O288 C289 1.286 . S
C289 U286 2.984 . S
C289 O287 1.353 . S
C289 O288 1.286 . S
C289 C291 1.363 . S
C290 C280 1.465 . S
C290 U286 2.847 . S
C290 O304 1.249 . S
C290 O305 1.202 . S
C291 C289 1.363 . S
C291 C293 1.408 . S
C291 C296 1.342 . S
C292 C293 1.310 . S
C292 C295 1.461 . S
C292 H312 0.932 . S
C293 C291 1.408 . S
C293 C292 1.310 . S
C293 H313 0.930 . S
C294 C295 1.474 . S
C294 C296 1.285 . S
C294 H314 0.929 . S
C295 C292 1.461 . S
C295 C294 1.474 . S
C296 C291 1.342 . S
C296 C294 1.285 . S
C296 H315 0.930 . S
C297 C300 1.424 . S
C297 C302 1.245 . S
C297 C303 1.428 . S
C298 C301 1.260 . S
C298 C302 1.477 . S
C298 H316 0.932 . S
C299 C300 1.384 . S
C299 C301 1.479 . S
C299 H317 0.929 . S
C300 C297 1.424 . S
C300 C299 1.384 . S
C300 H318 0.928 . S
C301 C298 1.260 . S
C301 C299 1.479 . S
C302 C297 1.245 . S
C302 C298 1.477 . S
C302 H319 0.932 . S
C303 U286 2.882 . S
C303 C297 1.428 . S
C303 O306 1.301 . S
C303 O307 1.282 . S
O304 U286 2.441 . S
O304 C290 1.249 . S
O305 U286 2.420 . S
O305 C290 1.202 . S
O306 U286 2.455 . S
O306 C303 1.301 . S
O307 U286 2.449 . S
O307 C303 1.282 . S
H308 C281 0.931 . S
H309 C283 0.929 . S
H310 C284 0.930 . S
H311 C285 0.931 . S
H312 C292 0.932 . S
H313 C293 0.930 . S
H314 C294 0.929 . S
H315 C296 0.930 . S
H316 C298 0.932 . S
H317 C299 0.929 . S
H318 C300 0.928 . S
H319 C302 0.932 . S
C320 C321 1.264 . S
C320 C325 1.479 1_545 S
C320 C330 1.465 . S
C321 C320 1.264 . S
C321 C323 1.339 . S
C321 H348 0.931 . S
C322 C323 1.395 . S
C322 C324 1.320 . S
C323 C321 1.339 . S
C323 C322 1.395 . S
C323 H349 0.929 . S
C324 C322 1.320 . S
C324 C325 1.405 1_545 S
C324 H350 0.930 1_545 S
C325 C320 1.479 1_565 S
C325 C324 1.405 1_565 S
C325 H351 0.931 . S
U326 O327 2.454 . S
U326 O328 2.458 . S
U326 C329 2.984 . S
U326 C330 2.847 1_565 S
U326 C343 2.882 1_565 S
U326 O344 2.441 . S
U326 O345 2.420 1_565 S
U326 O346 2.455 1_565 S
U326 O347 2.449 1_565 S
O327 U326 2.454 . S
O327 C329 1.353 . S
O328 U326 2.458 . S
O328 C329 1.286 . S
C329 U326 2.984 . S
C329 O327 1.353 . S
C329 O328 1.286 . S
C329 C331 1.363 . S
C330 C320 1.465 . S
C330 U326 2.847 1_545 S
C330 O344 1.249 1_545 S
C330 O345 1.202 . S
C331 C329 1.363 . S
C331 C333 1.408 . S
C331 C336 1.342 . S
C332 C333 1.310 . S
C332 C335 1.461 . S
C332 H352 0.932 . S
C333 C331 1.408 . S
C333 C332 1.310 . S
C333 H353 0.930 . S
C334 C335 1.474 . S
C334 C336 1.285 . S
C334 H354 0.929 . S
C335 C332 1.461 . S
C335 C334 1.474 . S
C336 C331 1.342 . S
C336 C334 1.285 . S
C336 H355 0.930 . S
C337 C340 1.424 . S
C337 C342 1.245 . S
C337 C343 1.428 . S
C338 C341 1.260 . S
C338 C342 1.477 . S
C338 H356 0.932 . S
C339 C340 1.384 . S
C339 C341 1.479 . S
C339 H357 0.929 . S
C340 C337 1.424 . S
C340 C339 1.384 . S
C340 H358 0.928 . S
C341 C338 1.260 . S
C341 C339 1.479 . S
C342 C337 1.245 . S
C342 C338 1.477 . S
C342 H359 0.932 . S
C343 U326 2.882 1_545 S
C343 C337 1.428 . S
C343 O346 1.301 . S
C343 O347 1.282 . S
O344 U326 2.441 . S
O344 C330 1.249 1_565 S
O345 U326 2.420 1_545 S
O345 C330 1.202 . S
O346 U326 2.455 1_545 S
O346 C343 1.301 . S
O347 U326 2.449 1_545 S
O347 C343 1.282 . S
H348 C321 0.931 . S
H349 C323 0.929 . S
H350 C324 0.930 1_565 S
H351 C325 0.931 . S
H352 C332 0.932 . S
H353 C333 0.930 . S
H354 C334 0.929 . S
H355 C336 0.930 . S
H356 C338 0.932 . S
H357 C339 0.929 . S
H358 C340 0.928 . S
H359 C342 0.932 . S
C360 C361 1.264 . S
C360 C365 1.479 . S
C360 C370 1.465 . S
C361 C360 1.264 . S
C361 C363 1.339 . S
C361 H388 0.931 . S
C362 C363 1.395 . S
C362 C364 1.320 . S
C363 C361 1.339 . S
C363 C362 1.395 . S
C363 H389 0.929 . S
C364 C362 1.320 . S
C364 C365 1.405 . S
C364 H390 0.930 . S
C365 C360 1.479 . S
C365 C364 1.405 . S
C365 H391 0.931 . S
U366 O367 2.463 . S
U366 O368 2.458 . S
U366 C369 2.984 . S
U366 C370 2.847 1_545 S
U366 C383 2.882 . S
U366 O384 2.441 1_545 S
U366 O385 2.420 1_545 S
U366 O386 2.455 . S
U366 O387 2.449 . S
O367 U366 2.463 . S
O367 C369 1.380 . S
O368 U366 2.458 . S
O368 C369 1.286 . S
C369 U366 2.984 . S
C369 O367 1.380 . S
C369 O368 1.286 . S
C369 C371 1.363 . S
C370 C360 1.465 . S
C370 U366 2.847 1_565 S
C370 O384 1.249 . S
C370 O385 1.202 . S
C371 C369 1.363 . S
C371 C373 1.408 . S
C371 C376 1.342 . S
C372 C373 1.310 . S
C372 C375 1.461 . S
C372 H392 0.932 . S
C373 C371 1.408 . S
C373 C372 1.310 . S
C373 H393 0.930 . S
C374 C375 1.474 . S
C374 C376 1.285 . S
C374 H394 0.929 . S
C375 C372 1.461 . S
C375 C374 1.474 . S
C376 C371 1.342 . S
C376 C374 1.285 . S
C376 H395 0.930 . S
C377 C380 1.424 . S
C377 C382 1.245 . S
C377 C383 1.428 . S
C378 C381 1.260 . S
C378 C382 1.477 . S
C378 H396 0.932 . S
C379 C380 1.384 . S
C379 C381 1.479 . S
C379 H397 0.929 . S
C380 C377 1.424 . S
C380 C379 1.384 . S
C380 H398 0.928 . S
C381 C378 1.260 . S
C381 C379 1.479 . S
C382 C377 1.245 . S
C382 C378 1.477 . S
C382 H399 0.932 . S
C383 U366 2.882 . S
C383 C377 1.428 . S
C383 O386 1.301 . S
C383 O387 1.282 . S
O384 U366 2.441 1_565 S
O384 C370 1.249 . S
O385 U366 2.420 1_565 S
O385 C370 1.202 . S
O386 U366 2.455 . S
O386 C383 1.301 . S
O387 U366 2.449 . S
O387 C383 1.282 . S
H388 C361 0.931 . S
H389 C363 0.929 . S
H390 C364 0.930 . S
H391 C365 0.931 . S
H392 C372 0.932 . S
H393 C373 0.930 . S
H394 C374 0.929 . S
H395 C376 0.930 . S
H396 C378 0.932 . S
H397 C379 0.929 . S
H398 C380 0.928 . S
H399 C382 0.932 . S
C400 C401 1.264 . S
C400 C405 1.479 . S
C400 C410 1.465 . S
C401 C400 1.264 . S
C401 C403 1.339 . S
C401 H428 0.931 . S
C402 C403 1.395 . S
C402 C404 1.320 . S
C403 C401 1.339 . S
C403 C402 1.395 . S
C403 H429 0.929 . S
C404 C402 1.320 . S
C404 C405 1.405 . S
C404 H430 0.930 . S
C405 C400 1.479 . S
C405 C404 1.405 . S
C405 H431 0.931 . S
U406 O407 2.454 1_565 S
U406 O408 2.458 . S
U406 C409 2.984 . S
U406 C410 2.847 1_565 S
U406 C423 2.882 . S
U406 O424 2.441 1_565 S
U406 O425 2.420 1_565 S
U406 O426 2.455 . S
U406 O427 2.449 . S
O407 U406 2.454 1_545 S
O407 C409 1.353 1_545 S
O408 U406 2.458 . S
O408 C409 1.286 . S
C409 U406 2.984 . S
C409 O407 1.353 1_565 S
C409 O408 1.286 . S
C409 C411 1.363 . S
C410 C400 1.465 . S
C410 U406 2.847 1_545 S
C410 O424 1.249 . S
C410 O425 1.202 . S
C411 C409 1.363 . S
C411 C413 1.408 . S
C411 C416 1.342 . S
C412 C413 1.310 . S
C412 C415 1.461 . S
C412 H432 0.932 1_565 S
C413 C411 1.408 . S
C413 C412 1.310 . S
C413 H433 0.930 1_565 S
C414 C415 1.474 . S
C414 C416 1.285 . S
C414 H434 0.929 . S
C415 C412 1.461 . S
C415 C414 1.474 . S
C416 C411 1.342 . S
C416 C414 1.285 . S
C416 H435 0.930 . S
C417 C420 1.424 . S
C417 C422 1.245 . S
C417 C423 1.428 . S
C418 C421 1.260 . S
C418 C422 1.477 . S
C418 H436 0.932 . S
C419 C420 1.384 . S
C419 C421 1.479 . S
C419 H437 0.929 . S
C420 C417 1.424 . S
C420 C419 1.384 . S
C420 H438 0.928 . S
C421 C418 1.260 . S
C421 C419 1.479 . S
C422 C417 1.245 . S
C422 C418 1.477 . S
C422 H439 0.932 . S
C423 U406 2.882 . S
C423 C417 1.428 . S
C423 O426 1.301 . S
C423 O427 1.282 . S
O424 U406 2.441 1_545 S
O424 C410 1.249 . S
O425 U406 2.420 1_545 S
O425 C410 1.202 . S
O426 U406 2.455 . S
O426 C423 1.301 . S
O427 U406 2.449 . S
O427 C423 1.282 . S
H428 C401 0.931 . S
H429 C403 0.929 . S
H430 C404 0.930 . S
H431 C405 0.931 . S
H432 C412 0.932 1_545 S
H433 C413 0.930 1_545 S
H434 C414 0.929 . S
H435 C416 0.930 . S
H436 C418 0.932 . S
H437 C419 0.929 . S
H438 C420 0.928 . S
H439 C422 0.932 . S
C440 C441 1.264 . S
C440 C445 1.479 1_565 S
C440 C450 1.465 . S
C441 C440 1.264 . S
C441 C443 1.339 . S
C441 H468 0.931 . S
C442 C443 1.395 . S
C442 C444 1.320 . S
C443 C441 1.339 . S
C443 C442 1.395 . S
C443 H469 0.929 . S
C444 C442 1.320 . S
C444 C445 1.405 1_565 S
C444 H470 0.930 1_565 S
C445 C440 1.479 1_545 S
C445 C444 1.405 1_545 S
C445 H471 0.931 . S
U446 O447 2.454 . S
U446 O448 2.458 . S
U446 C449 2.984 . S
U446 C450 2.847 1_545 S
U446 C463 2.882 1_545 S
U446 O464 2.441 . S
U446 O465 2.420 1_545 S
U446 O466 2.455 1_545 S
U446 O467 2.449 1_545 S
O447 U446 2.454 . S
O447 C449 1.353 . S
O448 U446 2.458 . S
O448 C449 1.286 . S
C449 U446 2.984 . S
C449 O447 1.353 . S
C449 O448 1.286 . S
C449 C451 1.363 . S
C450 C440 1.465 . S
C450 U446 2.847 1_565 S
C450 O464 1.249 1_565 S
C450 O465 1.202 . S
C451 C449 1.363 . S
C451 C453 1.408 . S
C451 C456 1.342 . S
C452 C453 1.310 . S
C452 C455 1.461 . S
C452 H472 0.932 . S
C453 C451 1.408 . S
C453 C452 1.310 . S
C453 H473 0.930 . S
C454 C455 1.474 . S
C454 C456 1.285 . S
C454 H474 0.929 . S
C455 C452 1.461 . S
C455 C454 1.474 . S
C456 C451 1.342 . S
C456 C454 1.285 . S
C456 H475 0.930 . S
C457 C460 1.424 . S
C457 C462 1.245 . S
C457 C463 1.428 . S
C458 C461 1.260 . S
C458 C462 1.477 . S
C458 H476 0.932 . S
C459 C460 1.384 . S
C459 C461 1.479 . S
C459 H477 0.929 . S
C460 C457 1.424 . S
C460 C459 1.384 . S
C460 H478 0.928 . S
C461 C458 1.260 . S
C461 C459 1.479 . S
C462 C457 1.245 . S
C462 C458 1.477 . S
C462 H479 0.932 . S
C463 U446 2.882 1_565 S
C463 C457 1.428 . S
C463 O466 1.301 . S
C463 O467 1.282 . S
O464 U446 2.441 . S
O464 C450 1.249 1_545 S
O465 U446 2.420 1_565 S
O465 C450 1.202 . S
O466 U446 2.455 1_565 S
O466 C463 1.301 . S
O467 U446 2.449 1_565 S
O467 C463 1.282 . S
H468 C441 0.931 . S
H469 C443 0.929 . S
H470 C444 0.930 1_545 S
H471 C445 0.931 . S
H472 C452 0.932 . S
H473 C453 0.930 . S
H474 C454 0.929 . S
H475 C456 0.930 . S
H476 C458 0.932 . S
H477 C459 0.929 . S
H478 C460 0.928 . S
H479 C462 0.932 . S
C480 C481 1.264 . S
C480 C485 1.479 . S
C480 C490 1.465 . S
C481 C480 1.264 . S
C481 C483 1.339 . S
C481 H508 0.931 . S
C482 C483 1.395 . S
C482 C484 1.320 . S
C483 C481 1.339 . S
C483 C482 1.395 . S
C483 H509 0.929 . S
C484 C482 1.320 . S
C484 C485 1.405 . S
C484 H510 0.930 . S
C485 C480 1.479 . S
C485 C484 1.405 . S
C485 H511 0.931 . S
U486 O487 2.454 . S
U486 O488 2.458 . S
U486 C489 2.984 . S
U486 C490 2.847 . S
U486 C503 2.882 . S
U486 O504 2.441 . S
U486 O505 2.420 . S
U486 O506 2.455 . S
U486 O507 2.449 . S
O487 U486 2.454 . S
O487 C489 1.353 . S
O488 U486 2.458 . S
O488 C489 1.286 . S
C489 U486 2.984 . S
C489 O487 1.353 . S
C489 O488 1.286 . S
C489 C491 1.363 . S
C490 C480 1.465 . S
C490 U486 2.847 . S
C490 O504 1.249 . S
C490 O505 1.202 . S
C491 C489 1.363 . S
C491 C493 1.408 . S
C491 C496 1.342 . S
C492 C493 1.310 1_556 S
C492 C495 1.461 . S
C492 H512 0.932 . S
C493 C491 1.408 . S
C493 C492 1.310 1_554 S
C493 H513 0.930 . S
C494 C495 1.503 . S
C494 C496 1.249 1_556 S
C494 H514 0.938 . S
C495 C492 1.461 . S
C495 C494 1.503 . S
C496 C491 1.342 . S
C496 C494 1.249 1_554 S
C496 H515 0.930 . S
C497 C500 1.424 . S
C497 C502 1.245 . S
C497 C503 1.428 . S
C498 C501 1.260 . S
C498 C502 1.477 . S
C498 H516 0.932 . S
C499 C500 1.384 . S
C499 C501 1.479 . S
C499 H517 0.929 . S
C500 C497 1.424 . S
C500 C499 1.384 . S
C500 H518 0.928 . S
C501 C498 1.260 . S
C501 C499 1.479 . S
C502 C497 1.245 . S
C502 C498 1.477 . S
C502 H519 0.932 . S
C503 U486 2.882 . S
C503 C497 1.428 . S
C503 O506 1.301 . S
C503 O507 1.282 . S
O504 U486 2.441 . S
O504 C490 1.249 . S
O505 U486 2.420 . S
O505 C490 1.202 . S
O506 U486 2.455 . S
O506 C503 1.301 . S
O507 U486 2.449 . S
O507 C503 1.282 . S
H508 C481 0.931 . S
H509 C483 0.929 . S
H510 C484 0.930 . S
H511 C485 0.931 . S
H512 C492 0.932 . S
H513 C493 0.930 . S
H514 C494 0.938 . S
H515 C496 0.930 . S
H516 C498 0.932 . S
H517 C499 0.929 . S
H518 C500 0.928 . S
H519 C502 0.932 . S
C520 C521 1.264 . S
C520 C525 1.479 . S
C520 C530 1.465 1_455 S
C521 C520 1.264 . S
C521 C523 1.339 . S
C521 H548 0.931 . S
C522 C523 1.395 . S
C522 C524 1.320 . S
C523 C521 1.339 . S
C523 C522 1.395 . S
C523 H549 0.929 . S
C524 C522 1.320 . S
C524 C525 1.405 . S
C524 H550 0.930 . S
C525 C520 1.479 . S
C525 C524 1.405 . S
C525 H551 0.931 . S
U526 O527 2.454 . S
U526 O528 2.458 . S
U526 C529 2.984 . S
U526 C530 2.847 . S
U526 C543 2.882 . S
U526 O544 2.441 . S
U526 O545 2.420 . S
U526 O546 2.455 . S
U526 O547 2.449 . S
O527 U526 2.454 . S
O527 C529 1.353 . S
O528 U526 2.458 . S
O528 C529 1.286 . S
C529 U526 2.984 . S
C529 O527 1.353 . S
C529 O528 1.286 . S
C529 C531 1.363 . S
C530 C520 1.465 1_655 S
C530 U526 2.847 . S
C530 O544 1.249 . S
C530 O545 1.202 . S
C531 C529 1.363 . S
C531 C533 1.408 . S
C531 C536 1.342 . S
C532 C533 1.310 . S
C532 C535 1.461 . S
C532 H552 0.932 . S
C533 C531 1.408 . S
C533 C532 1.310 . S
C533 H553 0.930 . S
C534 C535 1.474 . S
C534 C536 1.285 . S
C534 H554 0.929 . S
C535 C532 1.461 . S
C535 C534 1.474 . S
C536 C531 1.342 . S
C536 C534 1.285 . S
C536 H555 0.930 . S
C537 C540 1.424 . S
C537 C542 1.245 . S
C537 C543 1.428 . S
C538 C541 1.260 . S
C538 C542 1.477 . S
C538 H556 0.932 . S
C539 C540 1.384 . S
C539 C541 1.479 . S
C539 H557 0.929 . S
C540 C537 1.424 . S
C540 C539 1.384 . S
C540 H558 0.928 . S
C541 C538 1.260 . S
C541 C539 1.479 . S
C542 C537 1.245 . S
C542 C538 1.477 . S
C542 H559 0.932 . S
C543 U526 2.882 . S
C543 C537 1.428 . S
C543 O546 1.301 . S
C543 O547 1.282 . S
O544 U526 2.441 . S
O544 C530 1.249 . S
O545 U526 2.420 . S
O545 C530 1.202 . S
O546 U526 2.455 . S
O546 C543 1.301 . S
O547 U526 2.449 . S
O547 C543 1.282 . S
H548 C521 0.931 . S
H549 C523 0.929 . S
H550 C524 0.930 . S
H551 C525 0.931 . S
H552 C532 0.932 . S
H553 C533 0.930 . S
H554 C534 0.929 . S
H555 C536 0.930 . S
H556 C538 0.932 . S
H557 C539 0.929 . S
H558 C540 0.928 . S
H559 C542 0.932 . S
C560 C561 1.264 . S
C560 C565 1.479 . S
C560 C570 1.465 . S
C561 C560 1.264 . S
C561 C563 1.339 . S
C561 H588 0.931 . S
C562 C563 1.395 . S
C562 C564 1.320 . S
C563 C561 1.339 . S
C563 C562 1.395 . S
C563 H589 0.929 . S
C564 C562 1.320 . S
C564 C565 1.405 . S
C564 H590 0.930 . S
C565 C560 1.479 . S
C565 C564 1.405 . S
C565 H591 0.931 . S
U566 O567 2.454 . S
U566 O568 2.458 . S
U566 C569 2.984 . S
U566 C570 2.847 . S
U566 C583 2.882 . S
U566 O584 2.441 . S
U566 O585 2.420 . S
U566 O586 2.455 . S
U566 O587 2.449 . S
O567 U566 2.454 . S
O567 C569 1.353 . S
O568 U566 2.458 . S
O568 C569 1.286 . S
C569 U566 2.984 . S
C569 O567 1.353 . S
C569 O568 1.286 . S
C569 C571 1.363 . S
C570 C560 1.465 . S
C570 U566 2.847 . S
C570 O584 1.249 . S
C570 O585 1.202 . S
C571 C569 1.363 . S
C571 C573 1.408 . S
C571 C576 1.342 . S
C572 C573 1.310 . S
C572 C575 1.461 . S
C572 H592 0.932 . S
C573 C571 1.408 . S
C573 C572 1.310 . S
C573 H593 0.930 . S
C574 C575 1.474 . S
C574 C576 1.285 . S
C574 H594 0.929 . S
C575 C572 1.461 . S
C575 C574 1.474 . S
C576 C571 1.342 . S
C576 C574 1.285 . S
C576 H595 0.930 . S
C577 C580 1.424 . S
C577 C582 1.245 . S
C577 C583 1.428 . S
C578 C581 1.260 . S
C578 C582 1.477 . S
C578 H596 0.932 . S
C579 C580 1.384 . S
C579 C581 1.479 . S
C579 H597 0.929 . S
C580 C577 1.424 . S
C580 C579 1.384 . S
C580 H598 0.928 . S
C581 C578 1.260 . S
C581 C579 1.479 . S
C582 C577 1.245 . S
C582 C578 1.477 . S
C582 H599 0.932 . S
C583 U566 2.882 . S
C583 C577 1.428 . S
C583 O586 1.301 . S
C583 O587 1.282 . S
O584 U566 2.441 . S
O584 C570 1.249 . S
O585 U566 2.420 . S
O585 C570 1.202 . S
O586 U566 2.455 . S
O586 C583 1.301 . S
O587 U566 2.449 . S
O587 C583 1.282 . S
H588 C561 0.931 . S
H589 C563 0.929 . S
H590 C564 0.930 . S
H591 C565 0.931 . S
H592 C572 0.932 . S
H593 C573 0.930 . S
H594 C574 0.929 . S
H595 C576 0.930 . S
H596 C578 0.932 . S
H597 C579 0.929 . S
H598 C580 0.928 . S
H599 C582 0.932 . S
C600 C601 1.264 . S
C600 C605 1.479 . S
C600 C610 1.465 . S
C601 C600 1.264 . S
C601 C603 1.339 . S
C601 H628 0.931 . S
C602 C603 1.395 . S
C602 C604 1.320 . S
C603 C601 1.339 . S
C603 C602 1.395 . S
C603 H629 0.929 . S
C604 C602 1.320 . S
C604 C605 1.405 . S
C604 H630 0.930 . S
C605 C600 1.479 . S
C605 C604 1.405 . S
C605 H631 0.931 1_655 S
U606 O607 2.454 . S
U606 O608 2.458 . S
U606 C609 2.984 . S
U606 C610 2.847 1_455 S
U606 C623 2.882 1_455 S
U606 O624 2.441 . S
U606 O625 2.420 1_455 S
U606 O626 2.455 . S
U606 O627 2.449 1_455 S
O607 U606 2.454 . S
O607 C609 1.353 . S
O608 U606 2.458 . S
O608 C609 1.286 . S
C609 U606 2.984 . S
C609 O607 1.353 . S
C609 O608 1.286 . S
C609 C611 1.363 . S
C610 C600 1.465 . S
C610 U606 2.847 1_655 S
C610 O624 1.249 1_655 S
C610 O625 1.202 . S
C611 C609 1.363 . S
C611 C613 1.408 . S
C611 C616 1.342 . S
C612 C613 1.310 . S
C612 C615 1.461 . S
C612 H632 0.932 . S
C613 C611 1.408 . S
C613 C612 1.310 . S
C613 H633 0.930 . S
C614 C615 1.474 . S
C614 C616 1.285 . S
C614 H634 0.929 . S
C615 C612 1.461 . S
C615 C614 1.474 . S
C616 C611 1.342 . S
C616 C614 1.285 . S
C616 H635 0.930 . S
C617 C620 1.424 . S
C617 C622 1.245 . S
C617 C623 1.428 . S
C618 C621 1.260 . S
C618 C622 1.477 . S
C618 H636 0.932 . S
C619 C620 1.384 . S
C619 C621 1.479 . S
C619 H637 0.929 . S
C620 C617 1.424 . S
C620 C619 1.384 . S
C620 H638 0.928 . S
C621 C618 1.260 . S
C621 C619 1.479 . S
C622 C617 1.245 . S
C622 C618 1.477 . S
C622 H639 0.932 . S
C623 U606 2.882 1_655 S
C623 C617 1.428 . S
C623 O626 1.301 1_655 S
C623 O627 1.282 . S
O624 U606 2.441 . S
O624 C610 1.249 1_455 S
O625 U606 2.420 1_655 S
O625 C610 1.202 . S
O626 U606 2.455 . S
O626 C623 1.301 1_455 S
O627 U606 2.449 1_655 S
O627 C623 1.282 . S
H628 C601 0.931 . S
H629 C603 0.929 . S
H630 C604 0.930 . S
H631 C605 0.931 1_455 S
H632 C612 0.932 . S
H633 C613 0.930 . S
H634 C614 0.929 . S
H635 C616 0.930 . S
H636 C618 0.932 . S
H637 C619 0.929 . S
H638 C620 0.928 . S
H639 C622 0.932 . S
C640 C641 1.264 . S
C640 C645 1.479 . S
C640 C650 1.465 . S
C641 C640 1.264 . S
C641 C643 1.339 . S
C641 H668 0.931 . S
C642 C643 1.395 . S
C642 C644 1.320 . S
C643 C641 1.339 . S
C643 C642 1.395 . S
C643 H669 0.929 . S
C644 C642 1.320 . S
C644 C645 1.405 . S
C644 H670 0.930 . S
C645 C640 1.479 . S
C645 C644 1.405 . S
C645 H671 0.931 . S
U646 O647 2.454 . S
U646 O648 2.458 . S
U646 C649 2.984 . S
U646 C650 2.847 . S
U646 C663 2.882 . S
U646 O664 2.441 . S
U646 O665 2.420 . S
U646 O666 2.455 . S
U646 O667 2.449 . S
O647 U646 2.454 . S
O647 C649 1.353 . S
O648 U646 2.458 . S
O648 C649 1.286 . S
C649 U646 2.984 . S
C649 O647 1.353 . S
C649 O648 1.286 . S
C649 C651 1.363 . S
C650 C640 1.465 . S
C650 U646 2.847 . S
C650 O664 1.249 . S
C650 O665 1.202 . S
C651 C649 1.363 . S
C651 C653 1.408 . S
C651 C656 1.342 . S
C652 C653 1.310 . S
C652 C655 1.461 . S
C652 H672 0.932 . S
C653 C651 1.408 . S
C653 C652 1.310 . S
C653 H673 0.930 . S
C654 C655 1.474 . S
C654 C656 1.285 . S
C654 H674 0.929 . S
C655 C652 1.461 . S
C655 C654 1.474 . S
C656 C651 1.342 . S
C656 C654 1.285 . S
C656 H675 0.930 . S
C657 C660 1.424 . S
C657 C662 1.245 . S
C657 C663 1.428 . S
C658 C661 1.260 . S
C658 C662 1.477 . S
C658 H676 0.932 . S
C659 C660 1.384 . S
C659 C661 1.479 . S
C659 H677 0.929 . S
C660 C657 1.424 . S
C660 C659 1.384 . S
C660 H678 0.928 . S
C661 C658 1.260 . S
C661 C659 1.479 . S
C662 C657 1.245 . S
C662 C658 1.477 . S
C662 H679 0.932 . S
C663 U646 2.882 . S
C663 C657 1.428 . S
C663 O666 1.301 . S
C663 O667 1.282 . S
O664 U646 2.441 . S
O664 C650 1.249 . S
O665 U646 2.420 . S
O665 C650 1.202 . S
O666 U646 2.455 . S
O666 C663 1.301 . S
O667 U646 2.449 . S
O667 C663 1.282 . S
H668 C641 0.931 . S
H669 C643 0.929 . S
H670 C644 0.930 . S
H671 C645 0.931 . S
H672 C652 0.932 . S
H673 C653 0.930 . S
H674 C654 0.929 . S
H675 C656 0.930 . S
H676 C658 0.932 . S
H677 C659 0.929 . S
H678 C660 0.928 . S
H679 C662 0.932 . S
C680 C681 1.264 . S
C680 C685 1.479 . S
C680 C690 1.465 . S
C681 C680 1.264 . S
C681 C683 1.339 . S
C681 H708 0.931 . S
C682 C683 1.395 . S
C682 C684 1.320 . S
C683 C681 1.339 . S
C683 C682 1.395 . S
C683 H709 0.929 . S
C684 C682 1.320 . S
C684 C685 1.405 . S
C684 H710 0.930 . S
C685 C680 1.479 . S
C685 C684 1.405 . S
C685 H711 0.931 . S
U686 O687 2.454 . S
U686 O688 2.458 . S
U686 C689 2.984 . S
U686 C690 2.847 . S
U686 C703 2.882 . S
U686 O704 2.441 . S
U686 O705 2.420 . S
U686 O706 2.455 . S
U686 O707 2.449 . S
O687 U686 2.454 . S
O687 C689 1.353 . S
O688 U686 2.458 . S
O688 C689 1.286 . S
C689 U686 2.984 . S
C689 O687 1.353 . S
C689 O688 1.286 . S
C689 C691 1.363 . S
C690 C680 1.465 . S
C690 U686 2.847 . S
C690 O704 1.249 . S
C690 O705 1.202 . S
C691 C689 1.363 . S
C691 C693 1.408 . S
C691 C696 1.342 . S
C692 C693 1.310 . S
C692 C695 1.461 . S
C692 H712 0.932 . S
C693 C691 1.408 . S
C693 C692 1.310 . S
C693 H713 0.930 . S
C694 C695 1.474 . S
C694 C696 1.285 . S
C694 H714 0.929 . S
C695 C692 1.461 . S
C695 C694 1.474 . S
C696 C691 1.342 . S
C696 C694 1.285 . S
C696 H715 0.930 . S
C697 C700 1.424 . S
C697 C702 1.245 . S
C697 C703 1.428 . S
C698 C701 1.260 . S
C698 C702 1.477 . S
C698 H716 0.932 . S
C699 C700 1.384 . S
C699 C701 1.479 . S
C699 H717 0.929 . S
C700 C697 1.424 . S
C700 C699 1.384 . S
C700 H718 0.928 . S
C701 C698 1.260 . S
C701 C699 1.479 . S
C702 C697 1.245 . S
C702 C698 1.477 . S
C702 H719 0.932 . S
C703 U686 2.882 . S
C703 C697 1.428 . S
C703 O706 1.301 . S
C703 O707 1.282 . S
O704 U686 2.441 . S
O704 C690 1.249 . S
O705 U686 2.420 . S
O705 C690 1.202 . S
O706 U686 2.455 . S
O706 C703 1.301 . S
O707 U686 2.449 . S
O707 C703 1.282 . S
H708 C681 0.931 . S
H709 C683 0.929 . S
H710 C684 0.930 . S
H711 C685 0.931 . S
H712 C692 0.932 . S
H713 C693 0.930 . S
H714 C694 0.929 . S
H715 C696 0.930 . S
H716 C698 0.932 . S
H717 C699 0.929 . S
H718 C700 0.928 . S
H719 C702 0.932 . S
C720 C721 1.264 . S
C720 C725 1.479 . S
C720 C730 1.465 . S
C721 C720 1.264 . S
C721 C723 1.339 . S
C721 H748 0.931 . S
C722 C723 1.395 . S
C722 C724 1.320 . S
C723 C721 1.339 . S
C723 C722 1.395 . S
C723 H749 0.929 . S
C724 C722 1.320 . S
C724 C725 1.405 . S
C724 H750 0.930 . S
C725 C720 1.479 . S
C725 C724 1.405 . S
C725 H751 0.931 . S
U726 O727 2.454 . S
U726 O728 2.458 . S
U726 C729 2.984 . S
U726 C730 2.847 . S
U726 C743 2.882 . S
U726 O744 2.441 . S
U726 O745 2.420 . S
U726 O746 2.455 . S
U726 O747 2.449 . S
O727 U726 2.454 . S
O727 C729 1.353 . S
O728 U726 2.458 . S
O728 C729 1.286 . S
C729 U726 2.984 . S
C729 O727 1.353 . S
C729 O728 1.286 . S
C729 C731 1.363 . S
C730 C720 1.465 . S
C730 U726 2.847 . S
C730 O744 1.249 . S
C730 O745 1.202 . S
C731 C729 1.363 . S
C731 C733 1.408 . S
C731 C736 1.342 . S
C732 C733 1.310 . S
C732 C735 1.461 . S
C732 H752 0.932 . S
C733 C731 1.408 . S
C733 C732 1.310 . S
C733 H753 0.930 . S
C734 C735 1.474 . S
C734 C736 1.285 . S
C734 H754 0.929 . S
C735 C732 1.461 . S
C735 C734 1.474 . S
C736 C731 1.342 . S
C736 C734 1.285 . S
C736 H755 0.930 . S
C737 C740 1.424 . S
C737 C742 1.245 . S
C737 C743 1.428 . S
C738 C741 1.260 . S
C738 C742 1.477 . S
C738 H756 0.932 . S
C739 C740 1.384 . S
C739 C741 1.479 . S
C739 H757 0.929 . S
C740 C737 1.424 . S
C740 C739 1.384 . S
C740 H758 0.928 . S
C741 C738 1.260 . S
C741 C739 1.479 . S
C742 C737 1.245 . S
C742 C738 1.477 . S
C742 H759 0.932 . S
C743 U726 2.882 . S
C743 C737 1.428 . S
C743 O746 1.301 . S
C743 O747 1.282 . S
O744 U726 2.441 . S
O744 C730 1.249 . S
O745 U726 2.420 . S
O745 C730 1.202 . S
O746 U726 2.455 . S
O746 C743 1.301 . S
O747 U726 2.449 . S
O747 C743 1.282 . S
H748 C721 0.931 . S
H749 C723 0.929 . S
H750 C724 0.930 . S
H751 C725 0.931 . S
H752 C732 0.932 . S
H753 C733 0.930 . S
H754 C734 0.929 . S
H755 C736 0.930 . S
H756 C738 0.932 . S
H757 C739 0.929 . S
H758 C740 0.928 . S
H759 C742 0.932 . S
C760 C761 1.264 . S
C760 C765 1.479 . S
C760 C770 1.465 . S
C761 C760 1.264 . S
C761 C763 1.339 . S
C761 H788 0.931 . S
C762 C763 1.395 . S
C762 C764 1.320 . S
C763 C761 1.339 . S
C763 C762 1.395 . S
C763 H789 0.929 . S
C764 C762 1.320 . S
C764 C765 1.405 . S
C764 H790 0.930 . S
C765 C760 1.479 . S
C765 C764 1.405 . S
C765 H791 0.931 . S
U766 O767 2.454 . S
U766 O768 2.458 . S
U766 C769 2.984 . S
U766 C770 2.847 . S
U766 C783 2.882 . S
U766 O784 2.441 . S
U766 O785 2.420 . S
U766 O786 2.455 . S
U766 O787 2.449 . S
O767 U766 2.454 . S
O767 C769 1.353 . S
O768 U766 2.458 . S
O768 C769 1.286 . S
C769 U766 2.984 . S
C769 O767 1.353 . S
C769 O768 1.286 . S
C769 C771 1.363 . S
C770 C760 1.465 . S
C770 U766 2.847 . S
C770 O784 1.249 . S
C770 O785 1.202 . S
C771 C769 1.363 . S
C771 C773 1.408 . S
C771 C776 1.342 . S
C772 C773 1.310 . S
C772 C775 1.461 . S
C772 H792 0.932 . S
C773 C771 1.408 . S
C773 C772 1.310 . S
C773 H793 0.930 . S
C774 C775 1.474 . S
C774 C776 1.285 . S
C774 H794 0.929 . S
C775 C772 1.461 . S
C775 C774 1.474 . S
C776 C771 1.342 . S
C776 C774 1.285 . S
C776 H795 0.930 . S
C777 C780 1.424 . S
C777 C782 1.245 . S
C777 C783 1.428 . S
C778 C781 1.260 . S
C778 C782 1.477 . S
C778 H796 0.932 . S
C779 C780 1.384 . S
C779 C781 1.479 . S
C779 H797 0.929 . S
C780 C777 1.424 . S
C780 C779 1.384 . S
C780 H798 0.928 . S
C781 C778 1.260 . S
C781 C779 1.479 . S
C782 C777 1.245 . S
C782 C778 1.477 . S
C782 H799 0.932 . S
C783 U766 2.882 . S
C783 C777 1.428 . S
C783 O786 1.301 . S
C783 O787 1.282 . S
O784 U766 2.441 . S
O784 C770 1.249 . S
O785 U766 2.420 . S
O785 C770 1.202 . S
O786 U766 2.455 . S
O786 C783 1.301 . S
O787 U766 2.449 . S
O787 C783 1.282 . S
H788 C761 0.931 . S
H789 C763 0.929 . S
H790 C764 0.930 . S
H791 C765 0.931 . S
H792 C772 0.932 . S
H793 C773 0.930 . S
H794 C774 0.929 . S
H795 C776 0.930 . S
H796 C778 0.932 . S
H797 C779 0.929 . S
H798 C780 0.928 . S
H799 C782 0.932 . S
C800 C801 1.264 . S
C800 C805 1.479 . S
C800 C810 1.465 . S
C801 C800 1.264 . S
C801 C803 1.339 . S
C801 H828 0.931 . S
C802 C803 1.395 . S
C802 C804 1.320 . S
C803 C801 1.339 . S
C803 C802 1.395 . S
C803 H829 0.929 . S
C804 C802 1.320 . S
C804 C805 1.405 . S
C804 H830 0.930 . S
C805 C800 1.479 . S
C805 C804 1.405 . S
C805 H831 0.931 . S
U806 O807 2.454 . S
U806 O808 2.458 . S
U806 C809 2.984 . S
U806 C810 2.847 . S
U806 C823 2.882 . S
U806 O824 2.441 . S
U806 O825 2.420 . S
U806 O826 2.455 . S
U806 O827 2.449 . S
O807 U806 2.454 . S
O807 C809 1.353 . S
O808 U806 2.458 . S
O808 C809 1.286 . S
C809 U806 2.984 . S
C809 O807 1.353 . S
C809 O808 1.286 . S
C809 C811 1.363 . S
C810 C800 1.465 . S
C810 U806 2.847 . S
C810 O824 1.249 . S
C810 O825 1.202 . S
C811 C809 1.363 . S
C811 C813 1.408 . S
C811 C816 1.342 . S
C812 C813 1.310 . S
C812 C815 1.461 . S
C812 H832 0.932 . S
C813 C811 1.408 . S
C813 C812 1.310 . S
C813 H833 0.930 . S
C814 C815 1.474 . S
C814 C816 1.285 . S
C814 H834 0.929 . S
C815 C812 1.461 . S
C815 C814 1.474 . S
C816 C811 1.342 . S
C816 C814 1.285 . S
C816 H835 0.930 . S
C817 C820 1.424 . S
C817 C822 1.245 . S
C817 C823 1.428 . S
C818 C821 1.260 . S
C818 C822 1.477 . S
C818 H836 0.932 . S
C819 C820 1.384 . S
C819 C821 1.479 . S
C819 H837 0.929 . S
C820 C817 1.424 . S
C820 C819 1.384 . S
C820 H838 0.928 . S
C821 C818 1.260 . S
C821 C819 1.479 . S
C822 C817 1.245 . S
C822 C818 1.477 . S
C822 H839 0.932 . S
C823 U806 2.882 . S
C823 C817 1.428 . S
C823 O826 1.301 . S
C823 O827 1.282 . S
O824 U806 2.441 . S
O824 C810 1.249 . S
O825 U806 2.420 . S
O825 C810 1.202 . S
O826 U806 2.455 . S
O826 C823 1.301 . S
O827 U806 2.449 . S
O827 C823 1.282 . S
H828 C801 0.931 . S
H829 C803 0.929 . S
H830 C804 0.930 . S
H831 C805 0.931 . S
H832 C812 0.932 . S
H833 C813 0.930 . S
H834 C814 0.929 . S
H835 C816 0.930 . S
H836 C818 0.932 . S
H837 C819 0.929 . S
H838 C820 0.928 . S
H839 C822 0.932 . S
C840 C841 1.264 . S
C840 C845 1.479 . S
C840 C850 1.465 . S
C841 C840 1.264 . S
C841 C843 1.339 . S
C841 H868 0.931 . S
C842 C843 1.395 . S
C842 C844 1.320 . S
C843 C841 1.339 . S
C843 C842 1.395 . S
C843 H869 0.929 . S
C844 C842 1.320 . S
C844 C845 1.405 . S
C844 H870 0.930 . S
C845 C840 1.479 . S
C845 C844 1.405 . S
C845 H871 0.931 . S
U846 O847 2.454 . S
U846 O848 2.458 . S
U846 C849 2.984 . S
U846 C850 2.847 . S
U846 C863 2.882 . S
U846 O864 2.441 . S
U846 O865 2.420 . S
U846 O866 2.455 . S
U846 O867 2.449 . S
O847 U846 2.454 . S
O847 C849 1.353 . S
O848 U846 2.458 . S
O848 C849 1.286 . S
C849 U846 2.984 . S
C849 O847 1.353 . S
C849 O848 1.286 . S
C849 C851 1.363 . S
C850 C840 1.465 . S
C850 U846 2.847 . S
C850 O864 1.249 . S
C850 O865 1.202 . S
C851 C849 1.363 . S
C851 C853 1.408 . S
C851 C856 1.342 . S
C852 C853 1.310 . S
C852 C855 1.461 . S
C852 H872 0.932 . S
C853 C851 1.408 . S
C853 C852 1.310 . S
C853 H873 0.930 . S
C854 C855 1.474 . S
C854 C856 1.285 . S
C854 H874 0.929 . S
C855 C852 1.461 . S
C855 C854 1.474 . S
C856 C851 1.342 . S
C856 C854 1.285 . S
C856 H875 0.930 . S
C857 C860 1.424 . S
C857 C862 1.245 . S
C857 C863 1.428 . S
C858 C861 1.260 . S
C858 C862 1.477 . S
C858 H876 0.932 . S
C859 C860 1.384 . S
C859 C861 1.479 . S
C859 H877 0.929 . S
C860 C857 1.424 . S
C860 C859 1.384 . S
C860 H878 0.928 . S
C861 C858 1.260 . S
C861 C859 1.479 . S
C862 C857 1.245 . S
C862 C858 1.477 . S
C862 H879 0.932 . S
C863 U846 2.882 . S
C863 C857 1.428 . S
C863 O866 1.301 . S
C863 O867 1.282 . S
O864 U846 2.441 . S
O864 C850 1.249 . S
O865 U846 2.420 . S
O865 C850 1.202 . S
O866 U846 2.455 . S
O866 C863 1.301 . S
O867 U846 2.449 . S
O867 C863 1.282 . S
H868 C841 0.931 . S
H869 C843 0.929 . S
H870 C844 0.930 . S
H871 C845 0.931 . S
H872 C852 0.932 . S
H873 C853 0.930 . S
H874 C854 0.929 . S
H875 C856 0.930 . S
H876 C858 0.932 . S
H877 C859 0.929 . S
H878 C860 0.928 . S
H879 C862 0.932 . S
C880 C881 1.264 . S
C880 C885 1.479 . S
C880 C890 1.465 . S
C881 C880 1.264 . S
C881 C883 1.339 . S
C881 H908 0.931 . S
C882 C883 1.395 . S
C882 C884 1.320 . S
C883 C881 1.339 . S
C883 C882 1.395 . S
C883 H909 0.929 . S
C884 C882 1.320 . S
C884 C885 1.405 . S
C884 H910 0.930 . S
C885 C880 1.479 . S
C885 C884 1.405 . S
C885 H911 0.931 . S
U886 O887 2.454 . S
U886 O888 2.458 . S
U886 C889 2.984 . S
U886 C890 2.847 . S
U886 C903 2.882 . S
U886 O904 2.441 . S
U886 O905 2.420 . S
U886 O906 2.455 . S
U886 O907 2.449 . S
O887 U886 2.454 . S
O887 C889 1.353 . S
O888 U886 2.458 . S
O888 C889 1.286 . S
C889 U886 2.984 . S
C889 O887 1.353 . S
C889 O888 1.286 . S
C889 C891 1.363 . S
C890 C880 1.465 . S
C890 U886 2.847 . S
C890 O904 1.249 . S
C890 O905 1.202 . S
C891 C889 1.363 . S
C891 C893 1.408 . S
C891 C896 1.342 . S
C892 C893 1.310 . S
C892 C895 1.461 . S
C892 H912 0.932 . S
C893 C891 1.408 . S
C893 C892 1.310 . S
C893 H913 0.930 . S
C894 C895 1.474 . S
C894 C896 1.285 . S
C894 H914 0.929 . S
C895 C892 1.461 . S
C895 C894 1.474 . S
C896 C891 1.342 . S
C896 C894 1.285 . S
C896 H915 0.930 . S
C897 C900 1.424 . S
C897 C902 1.245 . S
C897 C903 1.428 . S
C898 C901 1.260 . S
C898 C902 1.477 . S
C898 H916 0.932 . S
C899 C900 1.384 . S
C899 C901 1.479 . S
C899 H917 0.929 . S
C900 C897 1.424 . S
C900 C899 1.384 . S
C900 H918 0.928 . S
C901 C898 1.260 . S
C901 C899 1.479 . S
C902 C897 1.245 . S
C902 C898 1.477 . S
C902 H919 0.932 . S
C903 U886 2.882 . S
C903 C897 1.428 . S
C903 O906 1.301 . S
C903 O907 1.282 . S
O904 U886 2.441 . S
O904 C890 1.249 . S
O905 U886 2.420 . S
O905 C890 1.202 . S
O906 U886 2.455 . S
O906 C903 1.301 . S
O907 U886 2.449 . S
O907 C903 1.282 . S
H908 C881 0.931 . S
H909 C883 0.929 . S
H910 C884 0.930 . S
H911 C885 0.931 . S
H912 C892 0.932 . S
H913 C893 0.930 . S
H914 C894 0.929 . S
H915 C896 0.930 . S
H916 C898 0.932 . S
H917 C899 0.929 . S
H918 C900 0.928 . S
H919 C902 0.932 . S
C920 C921 1.264 . S
C920 C925 1.479 1_565 S
C920 C930 1.465 . S
C921 C920 1.264 . S
C921 C923 1.339 . S
C921 H948 0.931 . S
C922 C923 1.395 . S
C922 C924 1.320 1_565 S
C923 C921 1.339 . S
C923 C922 1.395 . S
C923 H949 0.929 . S
C924 C922 1.320 1_545 S
C924 C925 1.405 . S
C924 H950 0.930 . S
C925 C920 1.479 1_545 S
C925 C924 1.405 . S
C925 H951 0.931 . S
U926 O927 2.494 . S
U926 O928 2.493 . S
U926 C929 3.026 . S
U926 C930 2.831 1_545 S
U926 C943 2.858 1_545 S
U926 O944 2.443 . S
U926 O945 2.389 1_545 S
U926 O946 2.448 1_545 S
U926 O947 2.412 1_545 S
O927 U926 2.494 . S
O927 C929 1.353 . S
O928 U926 2.493 . S
O928 C929 1.286 . S
C929 U926 3.026 . S
C929 O927 1.353 . S
C929 O928 1.286 . S
C929 C931 1.363 . S
C930 C920 1.465 . S
C930 U926 2.831 1_565 S
C930 O944 1.249 1_565 S
C930 O945 1.202 . S
C931 C929 1.363 . S
C931 C933 1.408 . S
C931 C936 1.342 . S
C932 C933 1.310 . S
C932 C935 1.461 . S
C932 H952 0.932 . S
C933 C931 1.408 . S
C933 C932 1.310 . S
C933 H953 0.930 . S
C934 C935 1.474 . S
C934 C936 1.285 . S
C934 H954 0.929 . S
C935 C932 1.461 . S
C935 C934 1.474 . S
C936 C931 1.342 . S
C936 C934 1.285 . S
C936 H955 0.930 . S
C937 C940 1.424 . S
C937 C942 1.245 . S
C937 C943 1.428 . S
C938 C941 1.260 . S
C938 C942 1.477 . S
C938 H956 0.932 . S
C939 C940 1.384 . S
C939 C941 1.479 . S
C939 H957 0.929 . S
C940 C937 1.424 . S
C940 C939 1.384 . S
C940 H958 0.928 . S
C941 C938 1.260 . S
C941 C939 1.479 . S
C942 C937 1.245 . S
C942 C938 1.477 . S
C942 H959 0.932 . S
C943 U926 2.858 1_565 S
C943 C937 1.428 . S
C943 O946 1.301 . S
C943 O947 1.282 . S
O944 U926 2.443 . S
O944 C930 1.249 1_545 S
O945 U926 2.389 1_565 S
O945 C930 1.202 . S
O946 U926 2.448 1_565 S
O946 C943 1.301 . S
O947 U926 2.412 1_565 S
O947 C943 1.282 . S
H948 C921 0.931 . S
H949 C923 0.929 . S
H950 C924 0.930 . S
H951 C925 0.931 . S
H952 C932 0.932 . S
H953 C933 0.930 . S
H954 C934 0.929 . S
H955 C936 0.930 . S
H956 C938 0.932 . S
H957 C939 0.929 . S
H958 C940 0.928 . S
H959 C942 0.932 . S
C960 C961 1.264 . S
C960 C965 1.479 . S
C960 C970 1.465 . S
C961 C960 1.264 . S
C961 C963 1.339 . S
C961 H988 0.931 . S
C962 C963 1.395 . S
C962 C964 1.320 . S
C963 C961 1.339 . S
C963 C962 1.395 . S
C963 H989 0.929 . S
C964 C962 1.320 . S
C964 C965 1.405 . S
C964 H990 0.930 . S
C965 C960 1.479 . S
C965 C964 1.405 . S
C965 H991 0.931 . S
U966 O967 2.454 . S
U966 O968 2.458 . S
U966 C969 2.984 1_565 S
U966 C970 2.847 . S
U966 C983 2.882 . S
U966 O984 2.441 . S
U966 O985 2.420 . S
U966 O986 2.455 . S
U966 O987 2.449 . S
O967 U966 2.454 . S
O967 C969 1.353 1_565 S
O968 U966 2.458 . S
O968 C969 1.286 1_565 S
C969 U966 2.984 1_545 S
C969 O967 1.353 1_545 S
C969 O968 1.286 1_545 S
C969 C971 1.363 . S
C970 C960 1.465 . S
C970 U966 2.847 . S
C970 O984 1.249 . S
C970 O985 1.202 . S
C971 C969 1.363 . S
C971 C973 1.408 . S
C971 C976 1.342 . S
C972 C973 1.310 . S
C972 C975 1.461 . S
C972 H992 0.932 . S
C973 C971 1.408 . S
C973 C972 1.310 . S
C973 H993 0.930 . S
C974 C975 1.474 . S
C974 C976 1.285 . S
C974 H994 0.929 . S
C975 C972 1.461 . S
C975 C974 1.474 . S
C976 C971 1.342 . S
C976 C974 1.285 . S
C976 H995 0.930 . S
C977 C980 1.424 . S
C977 C982 1.245 . S
C977 C983 1.428 . S
C978 C981 1.260 . S
C978 C982 1.477 . S
C978 H996 0.932 . S
C979 C980 1.384 . S
C979 C981 1.479 . S
C979 H997 0.929 . S
C980 C977 1.424 . S
C980 C979 1.384 . S
C980 H998 0.928 . S
C981 C978 1.260 . S
C981 C979 1.479 . S
C982 C977 1.245 . S
C982 C978 1.477 . S
C982 H999 0.932 . S
C983 U966 2.882 . S
C983 C977 1.428 . S
C983 O986 1.301 . S
C983 O987 1.282 . S
O984 U966 2.441 . S
O984 C970 1.249 . S
O985 U966 2.420 . S
O985 C970 1.202 . S
O986 U966 2.455 . S
O986 C983 1.301 . S
O987 U966 2.449 . S
O987 C983 1.282 . S
H988 C961 0.931 . S
H989 C963 0.929 . S
H990 C964 0.930 . S
H991 C965 0.931 . S
H992 C972 0.932 . S
H993 C973 0.930 . S
H994 C974 0.929 . S
H995 C976 0.930 . S
H996 C978 0.932 . S
H997 C979 0.929 . S
H998 C980 0.928 . S
H999 C982 0.932 . S
C1000 C1001 1.264 . S
C1000 C1005 1.479 . S
C1000 C1010 1.465 . S
C1001 C1000 1.264 . S
C1001 C1003 1.339 . S
C1001 H1028 0.931 . S
C1002 C1003 1.395 . S
C1002 C1004 1.320 . S
C1003 C1001 1.339 . S
C1003 C1002 1.395 . S
C1003 H1029 0.929 . S
C1004 C1002 1.320 . S
C1004 C1005 1.405 . S
C1004 H1030 0.930 . S
C1005 C1000 1.479 . S
C1005 C1004 1.405 . S
C1005 H1031 0.931 . S
U1006 O1007 2.454 . S
U1006 O1008 2.458 1_565 S
U1006 C1009 2.984 . S
U1006 C1010 2.847 . S
U1006 C1023 2.882 1_565 S
U1006 O1024 2.441 . S
U1006 O1025 2.420 . S
U1006 O1026 2.455 1_565 S
U1006 O1027 2.449 1_565 S
O1007 U1006 2.454 . S
O1007 C1009 1.351 . S
O1008 U1006 2.458 1_545 S
O1008 C1009 1.288 1_545 S
C1009 U1006 2.984 . S
C1009 O1007 1.351 . S
C1009 O1008 1.288 1_565 S
C1009 C1011 1.364 1_565 S
C1010 C1000 1.465 . S
C1010 U1006 2.847 . S
C1010 O1024 1.249 . S
C1010 O1025 1.202 . S
C1011 C1009 1.364 1_545 S
C1011 C1013 1.408 1_545 S
C1011 C1016 1.342 . S
C1012 C1013 1.310 . S
C1012 C1015 1.461 1_565 S
C1012 H1032 0.932 . S
C1013 C1011 1.408 1_565 S
C1013 C1012 1.310 . S
C1013 H1033 0.930 . S
C1014 C1015 1.474 . S
C1014 C1016 1.285 . S
C1014 H1034 0.929 . S
C1015 C1012 1.461 1_545 S
C1015 C1014 1.474 . S
C1016 C1011 1.342 . S
C1016 C1014 1.285 . S
C1016 H1035 0.930 . S
C1017 C1020 1.424 . S
C1017 C1022 1.245 . S
C1017 C1023 1.428 . S
C1018 C1021 1.260 . S
C1018 C1022 1.477 . S
C1018 H1036 0.932 . S
C1019 C1020 1.384 . S
C1019 C1021 1.479 . S
C1019 H1037 0.929 . S
C1020 C1017 1.424 . S
C1020 C1019 1.384 . S
C1020 H1038 0.928 . S
C1021 C1018 1.260 . S
C1021 C1019 1.479 . S
C1022 C1017 1.245 . S
C1022 C1018 1.477 . S
C1022 H1039 0.932 . S
C1023 U1006 2.882 1_545 S
C1023 C1017 1.428 . S
C1023 O1026 1.301 . S
C1023 O1027 1.282 . S
O1024 U1006 2.441 . S
O1024 C1010 1.249 . S
O1025 U1006 2.420 . S
O1025 C1010 1.202 . S
O1026 U1006 2.455 1_545 S
O1026 C1023 1.301 . S
O1027 U1006 2.449 1_545 S
O1027 C1023 1.282 . S
H1028 C1001 0.931 . S
H1029 C1003 0.929 . S
H1030 C1004 0.930 . S
H1031 C1005 0.931 . S
H1032 C1012 0.932 . S
H1033 C1013 0.930 . S
H1034 C1014 0.929 . S
H1035 C1016 0.930 . S
H1036 C1018 0.932 . S
H1037 C1019 0.929 . S
H1038 C1020 0.928 . S
H1039 C1022 0.932 . S
C1040 C1041 1.264 . S
C1040 C1045 1.479 . S
C1040 C1050 1.465 . S
C1041 C1040 1.264 . S
C1041 C1043 1.339 . S
C1041 H1068 0.931 . S
C1042 C1043 1.395 . S
C1042 C1044 1.320 . S
C1043 C1041 1.339 . S
C1043 C1042 1.395 . S
C1043 H1069 0.929 . S
C1044 C1042 1.320 . S
C1044 C1045 1.405 . S
C1044 H1070 0.930 . S
C1045 C1040 1.479 . S
C1045 C1044 1.405 . S
C1045 H1071 0.931 . S
U1046 O1047 2.473 . S
U1046 O1048 2.419 1_565 S
U1046 C1049 2.973 1_565 S
U1046 C1050 2.910 . S
U1046 C1063 2.830 1_565 S
U1046 O1064 2.507 . S
U1046 O1065 2.469 . S
U1046 O1066 2.390 1_565 S
U1046 O1067 2.422 1_565 S
O1047 U1046 2.473 . S
O1047 C1049 1.353 1_565 S
O1048 U1046 2.419 1_545 S
O1048 C1049 1.286 . S
C1049 U1046 2.973 1_545 S
C1049 O1047 1.353 1_545 S
C1049 O1048 1.286 . S
C1049 C1051 1.363 . S
C1050 C1040 1.465 . S
C1050 U1046 2.910 . S
C1050 O1064 1.249 . S
C1050 O1065 1.202 . S
C1051 C1049 1.363 . S
C1051 C1053 1.408 . S
C1051 C1056 1.342 . S
C1052 C1053 1.310 . S
C1052 C1055 1.461 . S
C1052 H1072 0.932 . S
C1053 C1051 1.408 . S
C1053 C1052 1.310 . S
C1053 H1073 0.930 1_545 S
C1054 C1055 1.474 . S
C1054 C1056 1.285 . S
C1054 H1074 0.929 . S
C1055 C1052 1.461 . S
C1055 C1054 1.474 . S
C1056 C1051 1.342 . S
C1056 C1054 1.285 . S
C1056 H1075 0.930 . S
C1057 C1060 1.424 . S
C1057 C1062 1.245 . S
C1057 C1063 1.428 . S
C1058 C1061 1.260 . S
C1058 C1062 1.477 . S
C1058 H1076 0.932 . S
C1059 C1060 1.384 . S
C1059 C1061 1.479 . S
C1059 H1077 0.929 . S
C1060 C1057 1.424 . S
C1060 C1059 1.384 . S
C1060 H1078 0.928 . S
C1061 C1058 1.260 . S
C1061 C1059 1.479 . S
C1062 C1057 1.245 . S
C1062 C1058 1.477 . S
C1062 H1079 0.932 . S
C1063 U1046 2.830 1_545 S
C1063 C1057 1.428 . S
C1063 O1066 1.301 . S
C1063 O1067 1.282 . S
O1064 U1046 2.507 . S
O1064 C1050 1.249 . S
O1065 U1046 2.469 . S
O1065 C1050 1.202 . S
O1066 U1046 2.390 1_545 S
O1066 C1063 1.301 . S
O1067 U1046 2.422 1_545 S
O1067 C1063 1.282 . S
H1068 C1041 0.931 . S
H1069 C1043 0.929 . S
H1070 C1044 0.930 . S
H1071 C1045 0.931 . S
H1072 C1052 0.932 . S
H1073 C1053 0.930 1_565 S
H1074 C1054 0.929 . S
H1075 C1056 0.930 . S
H1076 C1058 0.932 . S
H1077 C1059 0.929 . S
H1078 C1060 0.928 . S
H1079 C1062 0.932 . S
C1080 C1081 1.264 . S
C1080 C1085 1.479 . S
C1080 C1090 1.465 . S
C1081 C1080 1.264 . S
C1081 C1083 1.339 . S
C1081 H1108 0.931 . S
C1082 C1083 1.395 . S
C1082 C1084 1.320 . S
C1083 C1081 1.339 . S
C1083 C1082 1.395 . S
C1083 H1109 0.929 . S
C1084 C1082 1.320 . S
C1084 C1085 1.405 . S
C1084 H1110 0.930 . S
C1085 C1080 1.479 . S
C1085 C1084 1.405 . S
C1085 H1111 0.931 . S
U1086 O1087 2.454 . S
U1086 O1088 2.458 . S
U1086 C1089 2.984 . S
U1086 C1090 2.847 . S
U1086 C1103 2.882 . S
U1086 O1104 2.441 . S
U1086 O1105 2.420 . S
U1086 O1106 2.455 . S
U1086 O1107 2.449 . S
O1087 U1086 2.454 . S
O1087 C1089 1.353 . S
O1088 U1086 2.458 . S
O1088 C1089 1.286 . S
C1089 U1086 2.984 . S
C1089 O1087 1.353 . S
C1089 O1088 1.286 . S
C1089 C1091 1.363 . S
C1090 C1080 1.465 . S
C1090 U1086 2.847 . S
C1090 O1104 1.249 . S
C1090 O1105 1.202 . S
C1091 C1089 1.363 . S
C1091 C1093 1.413 . S
C1091 C1096 1.342 . S
C1092 C1093 1.303 1_554 S
C1092 C1095 1.461 . S
C1092 H1112 0.932 . S
C1093 C1091 1.413 . S
C1093 C1092 1.303 1_556 S
C1093 H1113 0.932 . S
C1094 C1095 1.474 . S
C1094 C1096 1.285 1_554 S
C1094 H1114 0.929 . S
C1095 C1092 1.461 . S
C1095 C1094 1.474 . S
C1096 C1091 1.342 . S
C1096 C1094 1.285 1_556 S
C1096 H1115 0.930 . S
C1097 C1100 1.424 . S
C1097 C1102 1.245 . S
C1097 C1103 1.428 . S
C1098 C1101 1.260 . S
C1098 C1102 1.477 . S
C1098 H1116 0.932 . S
C1099 C1100 1.384 . S
C1099 C1101 1.479 . S
C1099 H1117 0.929 . S
C1100 C1097 1.424 . S
C1100 C1099 1.384 . S
C1100 H1118 0.928 . S
C1101 C1098 1.260 . S
C1101 C1099 1.479 . S
C1102 C1097 1.245 . S
C1102 C1098 1.477 . S
C1102 H1119 0.932 . S
C1103 U1086 2.882 . S
C1103 C1097 1.428 . S
C1103 O1106 1.301 . S
C1103 O1107 1.282 . S
O1104 U1086 2.441 . S
O1104 C1090 1.249 . S
O1105 U1086 2.420 . S
O1105 C1090 1.202 . S
O1106 U1086 2.455 . S
O1106 C1103 1.301 . S
O1107 U1086 2.449 . S
O1107 C1103 1.282 . S
H1108 C1081 0.931 . S
H1109 C1083 0.929 . S
H1110 C1084 0.930 . S
H1111 C1085 0.931 . S
H1112 C1092 0.932 . S
H1113 C1093 0.932 . S
H1114 C1094 0.929 . S
H1115 C1096 0.930 . S
H1116 C1098 0.932 . S
H1117 C1099 0.929 . S
H1118 C1100 0.928 . S
H1119 C1102 0.932 . S
C1120 C1121 1.264 . S
C1120 C1125 1.479 . S
C1120 C1130 1.506 . S
C1121 C1120 1.264 . S
C1121 C1123 1.339 . S
C1121 H1148 0.931 . S
C1122 C1123 1.395 . S
C1122 C1124 1.320 . S
C1123 C1121 1.339 . S
C1123 C1122 1.395 . S
C1123 H1149 0.929 . S
C1124 C1122 1.320 . S
C1124 C1125 1.405 . S
C1124 H1150 0.930 . S
C1125 C1120 1.479 . S
C1125 C1124 1.405 . S
C1125 H1151 0.931 . S
U1126 O1127 2.454 . S
U1126 O1128 2.458 . S
U1126 C1129 2.984 . S
U1126 C1130 2.805 1_455 S
U1126 C1143 2.882 . S
U1126 O1144 2.441 . S
U1126 O1145 2.420 . S
U1126 O1146 2.455 . S
U1126 O1147 2.449 . S
O1127 U1126 2.454 . S
O1127 C1129 1.353 . S
O1128 U1126 2.458 . S
O1128 C1129 1.286 . S
C1129 U1126 2.984 . S
C1129 O1127 1.353 . S
C1129 O1128 1.286 . S
C1129 C1131 1.363 . S
C1130 C1120 1.506 . S
C1130 U1126 2.805 1_655 S
C1130 O1144 1.235 1_655 S
C1130 O1145 1.172 1_655 S
C1131 C1129 1.363 . S
C1131 C1133 1.408 . S
C1131 C1136 1.342 . S
C1132 C1133 1.310 . S
C1132 C1135 1.461 . S
C1132 H1152 0.932 . S
C1133 C1131 1.408 . S
C1133 C1132 1.310 . S
C1133 H1153 0.930 . S
C1134 C1135 1.474 . S
C1134 C1136 1.285 . S
C1134 H1154 0.929 . S
C1135 C1132 1.461 . S
C1135 C1134 1.474 . S
C1136 C1131 1.342 . S
C1136 C1134 1.285 . S
C1136 H1155 0.930 . S
C1137 C1140 1.424 . S
C1137 C1142 1.245 . S
C1137 C1143 1.428 . S
C1138 C1141 1.260 . S
C1138 C1142 1.477 . S
C1138 H1156 0.932 . S
C1139 C1140 1.384 . S
C1139 C1141 1.479 . S
C1139 H1157 0.929 . S
C1140 C1137 1.424 . S
C1140 C1139 1.384 . S
C1140 H1158 0.928 . S
C1141 C1138 1.260 . S
C1141 C1139 1.479 . S
C1142 C1137 1.245 . S
C1142 C1138 1.477 . S
C1142 H1159 0.932 . S
C1143 U1126 2.882 . S
C1143 C1137 1.428 . S
C1143 O1146 1.301 . S
C1143 O1147 1.282 . S
O1144 U1126 2.441 . S
O1144 C1130 1.235 1_455 S
O1145 U1126 2.420 . S
O1145 C1130 1.172 1_455 S
O1146 U1126 2.455 . S
O1146 C1143 1.301 . S
O1147 U1126 2.449 . S
O1147 C1143 1.282 . S
H1148 C1121 0.931 . S
H1149 C1123 0.929 . S
H1150 C1124 0.930 . S
H1151 C1125 0.931 . S
H1152 C1132 0.932 . S
H1153 C1133 0.930 . S
H1154 C1134 0.929 . S
H1155 C1136 0.930 . S
H1156 C1138 0.932 . S
H1157 C1139 0.929 . S
H1158 C1140 0.928 . S
H1159 C1142 0.932 . S
C1160 C1161 1.264 . S
C1160 C1165 1.479 . S
C1160 C1170 1.465 . S
C1161 C1160 1.264 . S
C1161 C1163 1.339 . S
C1161 H1188 0.931 . S
C1162 C1163 1.395 . S
C1162 C1164 1.320 . S
C1163 C1161 1.339 . S
C1163 C1162 1.395 . S
C1163 H1189 0.929 . S
C1164 C1162 1.320 . S
C1164 C1165 1.405 . S
C1164 H1190 0.930 . S
C1165 C1160 1.479 . S
C1165 C1164 1.405 . S
C1165 H1191 0.931 . S
U1166 O1167 2.454 . S
U1166 O1168 2.458 . S
U1166 C1169 2.984 . S
U1166 C1170 2.847 . S
U1166 C1183 2.882 . S
U1166 O1184 2.441 . S
U1166 O1185 2.420 . S
U1166 O1186 2.455 . S
U1166 O1187 2.449 . S
O1167 U1166 2.454 . S
O1167 C1169 1.353 . S
O1168 U1166 2.458 . S
O1168 C1169 1.286 . S
C1169 U1166 2.984 . S
C1169 O1167 1.353 . S
C1169 O1168 1.286 . S
C1169 C1171 1.363 . S
C1170 C1160 1.465 . S
C1170 U1166 2.847 . S
C1170 O1184 1.249 . S
C1170 O1185 1.202 . S
C1171 C1169 1.363 . S
C1171 C1173 1.408 . S
C1171 C1176 1.342 . S
C1172 C1173 1.310 . S
C1172 C1175 1.461 . S
C1172 H1192 0.932 . S
C1173 C1171 1.408 . S
C1173 C1172 1.310 . S
C1173 H1193 0.930 . S
C1174 C1175 1.474 . S
C1174 C1176 1.285 . S
C1174 H1194 0.929 . S
C1175 C1172 1.461 . S
C1175 C1174 1.474 . S
C1176 C1171 1.342 . S
C1176 C1174 1.285 . S
C1176 H1195 0.930 . S
C1177 C1180 1.424 . S
C1177 C1182 1.245 . S
C1177 C1183 1.428 . S
C1178 C1181 1.260 . S
C1178 C1182 1.477 . S
C1178 H1196 0.932 . S
C1179 C1180 1.384 . S
C1179 C1181 1.479 . S
C1179 H1197 0.929 . S
C1180 C1177 1.424 . S
C1180 C1179 1.384 . S
C1180 H1198 0.928 . S
C1181 C1178 1.260 . S
C1181 C1179 1.479 . S
C1182 C1177 1.245 . S
C1182 C1178 1.477 . S
C1182 H1199 0.932 . S
C1183 U1166 2.882 . S
C1183 C1177 1.428 . S
C1183 O1186 1.301 . S
C1183 O1187 1.282 . S
O1184 U1166 2.441 . S
O1184 C1170 1.249 . S
O1185 U1166 2.420 . S
O1185 C1170 1.202 . S
O1186 U1166 2.455 . S
O1186 C1183 1.301 . S
O1187 U1166 2.449 . S
O1187 C1183 1.282 . S
H1188 C1161 0.931 . S
H1189 C1163 0.929 . S
H1190 C1164 0.930 . S
H1191 C1165 0.931 . S
H1192 C1172 0.932 . S
H1193 C1173 0.930 . S
H1194 C1174 0.929 . S
H1195 C1176 0.930 . S
H1196 C1178 0.932 . S
H1197 C1179 0.929 . S
H1198 C1180 0.928 . S
H1199 C1182 0.932 . S
C1200 C1201 1.264 . S
C1200 C1205 1.479 . S
C1200 C1210 1.465 . S
C1201 C1200 1.264 . S
C1201 C1203 1.339 . S
C1201 H1228 0.931 . S
C1202 C1203 1.395 . S
C1202 C1204 1.320 . S
C1203 C1201 1.339 . S
C1203 C1202 1.395 . S
C1203 H1229 0.929 . S
C1204 C1202 1.320 . S
C1204 C1205 1.405 . S
C1204 H1230 0.930 . S
C1205 C1200 1.479 . S
C1205 C1204 1.405 . S
C1205 H1231 0.931 . S
U1206 O1207 2.454 . S
U1206 O1208 2.458 . S
U1206 C1209 2.984 . S
U1206 C1210 2.847 . S
U1206 C1223 2.882 . S
U1206 O1224 2.441 . S
U1206 O1225 2.420 . S
U1206 O1226 2.455 . S
U1206 O1227 2.449 . S
O1207 U1206 2.454 . S
O1207 C1209 1.353 . S
O1208 U1206 2.458 . S
O1208 C1209 1.286 . S
C1209 U1206 2.984 . S
C1209 O1207 1.353 . S
C1209 O1208 1.286 . S
C1209 C1211 1.363 . S
C1210 C1200 1.465 . S
C1210 U1206 2.847 . S
C1210 O1224 1.249 . S
C1210 O1225 1.202 . S
C1211 C1209 1.363 . S
C1211 C1213 1.408 . S
C1211 C1216 1.342 . S
C1212 C1213 1.310 . S
C1212 C1215 1.461 . S
C1212 H1232 0.932 . S
C1213 C1211 1.408 . S
C1213 C1212 1.310 . S
C1213 H1233 0.930 . S
C1214 C1215 1.474 . S
C1214 C1216 1.285 . S
C1214 H1234 0.929 . S
C1215 C1212 1.461 . S
C1215 C1214 1.474 . S
C1216 C1211 1.342 . S
C1216 C1214 1.285 . S
C1216 H1235 0.930 . S
C1217 C1220 1.424 . S
C1217 C1222 1.245 . S
C1217 C1223 1.428 . S
C1218 C1221 1.260 . S
C1218 C1222 1.477 . S
C1218 H1236 0.932 . S
C1219 C1220 1.384 . S
C1219 C1221 1.479 . S
C1219 H1237 0.929 . S
C1220 C1217 1.424 . S
C1220 C1219 1.384 . S
C1220 H1238 0.928 . S
C1221 C1218 1.260 . S
C1221 C1219 1.479 . S
C1222 C1217 1.245 . S
C1222 C1218 1.477 . S
C1222 H1239 0.932 . S
C1223 U1206 2.882 . S
C1223 C1217 1.428 . S
C1223 O1226 1.301 . S
C1223 O1227 1.282 . S
O1224 U1206 2.441 . S
O1224 C1210 1.249 . S
O1225 U1206 2.420 . S
O1225 C1210 1.202 . S
O1226 U1206 2.455 . S
O1226 C1223 1.301 . S
O1227 U1206 2.449 . S
O1227 C1223 1.282 . S
H1228 C1201 0.931 . S
H1229 C1203 0.929 . S
H1230 C1204 0.930 . S
H1231 C1205 0.931 . S
H1232 C1212 0.932 . S
H1233 C1213 0.930 . S
H1234 C1214 0.929 . S
H1235 C1216 0.930 . S
H1236 C1218 0.932 . S
H1237 C1219 0.929 . S
H1238 C1220 0.928 . S
H1239 C1222 0.932 . S
C1240 C1241 1.264 . S
C1240 C1245 1.479 . S
C1240 C1250 1.465 . S
C1241 C1240 1.264 . S
C1241 C1243 1.339 . S
C1241 H1268 0.931 . S
C1242 C1243 1.395 . S
C1242 C1244 1.320 . S
C1243 C1241 1.339 . S
C1243 C1242 1.395 . S
C1243 H1269 0.929 . S
C1244 C1242 1.320 . S
C1244 C1245 1.405 . S
C1244 H1270 0.930 . S
C1245 C1240 1.479 . S
C1245 C1244 1.405 . S
C1245 H1271 0.931 . S
U1246 O1247 2.454 . S
U1246 O1248 2.458 . S
U1246 C1249 2.984 . S
U1246 C1250 2.847 . S
U1246 C1263 2.882 . S
U1246 O1264 2.441 . S
U1246 O1265 2.420 . S
U1246 O1266 2.455 . S
U1246 O1267 2.449 . S
O1247 U1246 2.454 . S
O1247 C1249 1.353 . S
O1248 U1246 2.458 . S
O1248 C1249 1.286 . S
C1249 U1246 2.984 . S
C1249 O1247 1.353 . S
C1249 O1248 1.286 . S
C1249 C1251 1.363 . S
C1250 C1240 1.465 . S
C1250 U1246 2.847 . S
C1250 O1264 1.249 . S
C1250 O1265 1.202 . S
C1251 C1249 1.363 . S
C1251 C1253 1.408 . S
C1251 C1256 1.342 . S
C1252 C1253 1.310 1_455 S
C1252 C1255 1.461 . S
C1252 H1272 0.932 . S
C1253 C1251 1.408 . S
C1253 C1252 1.310 1_655 S
C1253 H1273 0.930 . S
C1254 C1255 1.474 1_655 S
C1254 C1256 1.285 . S
C1254 H1274 0.929 . S
C1255 C1252 1.461 . S
C1255 C1254 1.474 1_455 S
C1256 C1251 1.342 . S
C1256 C1254 1.285 . S
C1256 H1275 0.930 . S
C1257 C1260 1.424 . S
C1257 C1262 1.245 . S
C1257 C1263 1.428 . S
C1258 C1261 1.260 . S
C1258 C1262 1.477 . S
C1258 H1276 0.932 . S
C1259 C1260 1.384 . S
C1259 C1261 1.479 . S
C1259 H1277 0.929 . S
C1260 C1257 1.424 . S
C1260 C1259 1.384 . S
C1260 H1278 0.928 . S
C1261 C1258 1.260 . S
C1261 C1259 1.479 . S
C1262 C1257 1.245 . S
C1262 C1258 1.477 . S
C1262 H1279 0.932 . S
C1263 U1246 2.882 . S
C1263 C1257 1.428 . S
C1263 O1266 1.301 . S
C1263 O1267 1.282 . S
O1264 U1246 2.441 . S
O1264 C1250 1.249 . S
O1265 U1246 2.420 . S
O1265 C1250 1.202 . S
O1266 U1246 2.455 . S
O1266 C1263 1.301 . S
O1267 U1246 2.449 . S
O1267 C1263 1.282 . S
H1268 C1241 0.931 . S
H1269 C1243 0.929 . S
H1270 C1244 0.930 . S
H1271 C1245 0.931 . S
H1272 C1252 0.932 . S
H1273 C1253 0.930 . S
H1274 C1254 0.929 . S
H1275 C1256 0.930 . S
H1276 C1258 0.932 . S
H1277 C1259 0.929 . S
H1278 C1260 0.928 . S
H1279 C1262 0.932 . S
C1280 C1281 1.264 . S
C1280 C1285 1.479 . S
C1280 C1290 1.465 . S
C1281 C1280 1.264 . S
C1281 C1283 1.339 . S
C1281 H1308 0.931 . S
C1282 C1283 1.395 . S
C1282 C1284 1.320 . S
C1283 C1281 1.339 . S
C1283 C1282 1.395 . S
C1283 H1309 0.929 . S
C1284 C1282 1.320 . S
C1284 C1285 1.405 . S
C1284 H1310 0.930 . S
C1285 C1280 1.479 . S
C1285 C1284 1.405 . S
C1285 H1311 0.931 . S
U1286 O1287 2.454 . S
U1286 O1288 2.458 . S
U1286 C1289 2.984 . S
U1286 C1290 2.847 . S
U1286 C1303 2.882 . S
U1286 O1304 2.441 . S
U1286 O1305 2.420 . S
U1286 O1306 2.455 . S
U1286 O1307 2.449 . S
O1287 U1286 2.454 . S
O1287 C1289 1.353 . S
O1288 U1286 2.458 . S
O1288 C1289 1.286 . S
C1289 U1286 2.984 . S
C1289 O1287 1.353 . S
C1289 O1288 1.286 . S
C1289 C1291 1.363 . S
C1290 C1280 1.465 . S
C1290 U1286 2.847 . S
C1290 O1304 1.249 . S
C1290 O1305 1.202 . S
C1291 C1289 1.363 . S
C1291 C1293 1.408 . S
C1291 C1296 1.342 . S
C1292 C1293 1.310 . S
C1292 C1295 1.461 . S
C1292 H1312 0.932 . S
C1293 C1291 1.408 . S
C1293 C1292 1.310 . S
C1293 H1313 0.930 . S
C1294 C1295 1.474 . S
C1294 C1296 1.285 . S
C1294 H1314 0.929 . S
C1295 C1292 1.461 . S
C1295 C1294 1.474 . S
C1296 C1291 1.342 . S
C1296 C1294 1.285 . S
C1296 H1315 0.930 . S
C1297 C1300 1.424 . S
C1297 C1302 1.245 . S
C1297 C1303 1.428 . S
C1298 C1301 1.260 . S
C1298 C1302 1.477 . S
C1298 H1316 0.932 . S
C1299 C1300 1.384 . S
C1299 C1301 1.479 . S
C1299 H1317 0.929 . S
C1300 C1297 1.424 . S
C1300 C1299 1.384 . S
C1300 H1318 0.928 . S
C1301 C1298 1.260 . S
C1301 C1299 1.479 . S
C1302 C1297 1.245 . S
C1302 C1298 1.477 . S
C1302 H1319 0.932 . S
C1303 U1286 2.882 . S
C1303 C1297 1.428 . S
C1303 O1306 1.301 . S
C1303 O1307 1.282 . S
O1304 U1286 2.441 . S
O1304 C1290 1.249 . S
O1305 U1286 2.420 . S
O1305 C1290 1.202 . S
O1306 U1286 2.455 . S
O1306 C1303 1.301 . S
O1307 U1286 2.449 . S
O1307 C1303 1.282 . S
H1308 C1281 0.931 . S
H1309 C1283 0.929 . S
H1310 C1284 0.930 . S
H1311 C1285 0.931 . S
H1312 C1292 0.932 . S
H1313 C1293 0.930 . S
H1314 C1294 0.929 . S
H1315 C1296 0.930 . S
H1316 C1298 0.932 . S
H1317 C1299 0.929 . S
H1318 C1300 0.928 . S
H1319 C1302 0.932 . S
C1320 C1321 1.264 . S
C1320 C1325 1.479 . S
C1320 C1330 1.465 . S
C1321 C1320 1.264 . S
C1321 C1323 1.339 . S
C1321 H1348 0.931 . S
C1322 C1323 1.395 . S
C1322 C1324 1.320 . S
C1323 C1321 1.339 . S
C1323 C1322 1.395 . S
C1323 H1349 0.929 . S
C1324 C1322 1.320 . S
C1324 C1325 1.405 . S
C1324 H1350 0.930 . S
C1325 C1320 1.479 . S
C1325 C1324 1.405 . S
C1325 H1351 0.931 . S
U1326 O1327 2.454 . S
U1326 O1328 2.458 . S
U1326 C1329 2.984 . S
U1326 C1330 2.847 . S
U1326 C1343 2.882 . S
U1326 O1344 2.441 . S
U1326 O1345 2.420 . S
U1326 O1346 2.455 . S
U1326 O1347 2.449 . S
O1327 U1326 2.454 . S
O1327 C1329 1.353 . S
O1328 U1326 2.458 . S
O1328 C1329 1.286 . S
C1329 U1326 2.984 . S
C1329 O1327 1.353 . S
C1329 O1328 1.286 . S
C1329 C1331 1.363 . S
C1330 C1320 1.465 . S
C1330 U1326 2.847 . S
C1330 O1344 1.249 . S
C1330 O1345 1.202 . S
C1331 C1329 1.363 . S
C1331 C1333 1.408 1_556 S
C1331 C1336 1.342 . S
C1332 C1333 1.310 . S
C1332 C1335 1.461 . S
C1332 H1352 0.932 . S
C1333 C1331 1.408 1_554 S
C1333 C1332 1.310 . S
C1333 H1353 0.930 . S
C1334 C1335 1.474 . S
C1334 C1336 1.285 1_554 S
C1334 H1354 0.929 . S
C1335 C1332 1.461 . S
C1335 C1334 1.474 . S
C1336 C1331 1.342 . S
C1336 C1334 1.285 1_556 S
C1336 H1355 0.930 . S
C1337 C1340 1.424 . S
C1337 C1342 1.245 . S
C1337 C1343 1.428 . S
C1338 C1341 1.260 . S
C1338 C1342 1.477 . S
C1338 H1356 0.932 . S
C1339 C1340 1.384 . S
C1339 C1341 1.479 . S
C1339 H1357 0.929 . S
C1340 C1337 1.424 . S
C1340 C1339 1.384 . S
C1340 H1358 0.928 . S
C1341 C1338 1.260 . S
C1341 C1339 1.479 . S
C1342 C1337 1.245 . S
C1342 C1338 1.477 . S
C1342 H1359 0.932 . S
C1343 U1326 2.882 . S
C1343 C1337 1.428 . S
C1343 O1346 1.301 . S
C1343 O1347 1.282 . S
O1344 U1326 2.441 . S
O1344 C1330 1.249 . S
O1345 U1326 2.420 . S
O1345 C1330 1.202 . S
O1346 U1326 2.455 . S
O1346 C1343 1.301 . S
O1347 U1326 2.449 . S
O1347 C1343 1.282 . S
H1348 C1321 0.931 . S
H1349 C1323 0.929 . S
H1350 C1324 0.930 . S
H1351 C1325 0.931 . S
H1352 C1332 0.932 . S
H1353 C1333 0.930 . S
H1354 C1334 0.929 . S
H1355 C1336 0.930 . S
H1356 C1338 0.932 . S
H1357 C1339 0.929 . S
H1358 C1340 0.928 . S
H1359 C1342 0.932 . S
C1360 C1361 1.264 . S
C1360 C1365 1.479 . S
C1360 C1370 1.465 . S
C1361 C1360 1.264 . S
C1361 C1363 1.339 . S
C1361 H1388 0.931 . S
C1362 C1363 1.395 . S
C1362 C1364 1.320 . S
C1363 C1361 1.339 . S
C1363 C1362 1.395 . S
C1363 H1389 0.929 . S
C1364 C1362 1.320 . S
C1364 C1365 1.405 . S
C1364 H1390 0.930 . S
C1365 C1360 1.479 . S
C1365 C1364 1.405 . S
C1365 H1391 0.931 . S
U1366 O1367 2.454 . S
U1366 O1368 2.458 . S
U1366 C1369 2.984 . S
U1366 C1370 2.847 . S
U1366 C1383 2.882 . S
U1366 O1384 2.441 . S
U1366 O1385 2.420 . S
U1366 O1386 2.455 . S
U1366 O1387 2.449 . S
O1367 U1366 2.454 . S
O1367 C1369 1.353 . S
O1368 U1366 2.458 . S
O1368 C1369 1.286 . S
C1369 U1366 2.984 . S
C1369 O1367 1.353 . S
C1369 O1368 1.286 . S
C1369 C1371 1.363 . S
C1370 C1360 1.465 . S
C1370 U1366 2.847 . S
C1370 O1384 1.249 . S
C1370 O1385 1.202 . S
C1371 C1369 1.363 . S
C1371 C1373 1.408 . S
C1371 C1376 1.342 . S
C1372 C1373 1.310 . S
C1372 C1375 1.461 . S
C1372 H1392 0.932 . S
C1373 C1371 1.408 . S
C1373 C1372 1.310 . S
C1373 H1393 0.930 . S
C1374 C1375 1.474 . S
C1374 C1376 1.285 . S
C1374 H1394 0.929 . S
C1375 C1372 1.461 . S
C1375 C1374 1.474 . S
C1376 C1371 1.342 . S
C1376 C1374 1.285 . S
C1376 H1395 0.930 . S
C1377 C1380 1.424 . S
C1377 C1382 1.245 . S
C1377 C1383 1.428 . S
C1378 C1381 1.260 . S
C1378 C1382 1.477 . S
C1378 H1396 0.932 . S
C1379 C1380 1.384 . S
C1379 C1381 1.479 . S
C1379 H1397 0.929 . S
C1380 C1377 1.424 . S
C1380 C1379 1.384 . S
C1380 H1398 0.928 . S
C1381 C1378 1.260 . S
C1381 C1379 1.479 . S
C1382 C1377 1.245 . S
C1382 C1378 1.477 . S
C1382 H1399 0.932 . S
C1383 U1366 2.882 . S
C1383 C1377 1.428 . S
C1383 O1386 1.301 . S
C1383 O1387 1.282 . S
O1384 U1366 2.441 . S
O1384 C1370 1.249 . S
O1385 U1366 2.420 . S
O1385 C1370 1.202 . S
O1386 U1366 2.455 . S
O1386 C1383 1.301 . S
O1387 U1366 2.449 . S
O1387 C1383 1.282 . S
H1388 C1361 0.931 . S
H1389 C1363 0.929 . S
H1390 C1364 0.930 . S
H1391 C1365 0.931 . S
H1392 C1372 0.932 . S
H1393 C1373 0.930 . S
H1394 C1374 0.929 . S
H1395 C1376 0.930 . S
H1396 C1378 0.932 . S
H1397 C1379 0.929 . S
H1398 C1380 0.928 . S
H1399 C1382 0.932 . S
C1400 C1401 1.264 . S
C1400 C1405 1.479 . S
C1400 C1410 1.465 . S
C1401 C1400 1.264 . S
C1401 C1403 1.339 . S
C1401 H1428 0.931 . S
C1402 C1403 1.395 . S
C1402 C1404 1.320 . S
C1403 C1401 1.339 . S
C1403 C1402 1.395 . S
C1403 H1429 0.929 . S
C1404 C1402 1.320 . S
C1404 C1405 1.405 . S
C1404 H1430 0.930 . S
C1405 C1400 1.479 . S
C1405 C1404 1.405 . S
C1405 H1431 0.931 . S
U1406 O1407 2.454 . S
U1406 O1408 2.458 . S
U1406 C1409 2.984 . S
U1406 C1410 2.847 . S
U1406 C1423 2.882 . S
U1406 O1424 2.441 . S
U1406 O1425 2.420 . S
U1406 O1426 2.455 . S
U1406 O1427 2.449 . S
O1407 U1406 2.454 . S
O1407 C1409 1.353 . S
O1408 U1406 2.458 . S
O1408 C1409 1.286 . S
C1409 U1406 2.984 . S
C1409 O1407 1.353 . S
C1409 O1408 1.286 . S
C1409 C1411 1.363 . S
C1410 C1400 1.465 . S
C1410 U1406 2.847 . S
C1410 O1424 1.249 . S
C1410 O1425 1.202 . S
C1411 C1409 1.363 . S
C1411 C1413 1.408 . S
C1411 C1416 1.342 . S
C1412 C1413 1.310 . S
C1412 C1415 1.461 . S
C1412 H1432 0.932 . S
C1413 C1411 1.408 . S
C1413 C1412 1.310 . S
C1413 H1433 0.930 . S
C1414 C1415 1.474 . S
C1414 C1416 1.285 . S
C1414 H1434 0.929 . S
C1415 C1412 1.461 . S
C1415 C1414 1.474 . S
C1416 C1411 1.342 . S
C1416 C1414 1.285 . S
C1416 H1435 0.930 . S
C1417 C1420 1.424 . S
C1417 C1422 1.245 . S
C1417 C1423 1.428 . S
C1418 C1421 1.260 . S
C1418 C1422 1.477 . S
C1418 H1436 0.932 . S
C1419 C1420 1.384 . S
C1419 C1421 1.479 . S
C1419 H1437 0.929 . S
C1420 C1417 1.424 . S
C1420 C1419 1.384 . S
C1420 H1438 0.928 . S
C1421 C1418 1.260 . S
C1421 C1419 1.479 . S
C1422 C1417 1.245 . S
C1422 C1418 1.477 . S
C1422 H1439 0.932 . S
C1423 U1406 2.882 . S
C1423 C1417 1.428 . S
C1423 O1426 1.301 . S
C1423 O1427 1.282 . S
O1424 U1406 2.441 . S
O1424 C1410 1.249 . S
O1425 U1406 2.420 . S
O1425 C1410 1.202 . S
O1426 U1406 2.455 . S
O1426 C1423 1.301 . S
O1427 U1406 2.449 . S
O1427 C1423 1.282 . S
H1428 C1401 0.931 . S
H1429 C1403 0.929 . S
H1430 C1404 0.930 . S
H1431 C1405 0.931 . S
H1432 C1412 0.932 . S
H1433 C1413 0.930 . S
H1434 C1414 0.929 . S
H1435 C1416 0.930 . S
H1436 C1418 0.932 . S
H1437 C1419 0.929 . S
H1438 C1420 0.928 . S
H1439 C1422 0.932 . S
C1440 C1441 1.264 . S
C1440 C1445 1.479 . S
C1440 C1450 1.465 . S
C1441 C1440 1.264 . S
C1441 C1443 1.339 . S
C1441 H1468 0.931 . S
C1442 C1443 1.395 . S
C1442 C1444 1.320 . S
C1443 C1441 1.339 . S
C1443 C1442 1.395 . S
C1443 H1469 0.929 . S
C1444 C1442 1.320 . S
C1444 C1445 1.405 . S
C1444 H1470 0.930 . S
C1445 C1440 1.479 . S
C1445 C1444 1.405 . S
C1445 H1471 0.931 . S
U1446 O1447 2.454 . S
U1446 O1448 2.458 . S
U1446 C1449 2.984 . S
U1446 C1450 2.847 . S
U1446 C1463 2.882 . S
U1446 O1464 2.441 . S
U1446 O1465 2.420 . S
U1446 O1466 2.455 . S
U1446 O1467 2.449 . S
O1447 U1446 2.454 . S
O1447 C1449 1.353 . S
O1448 U1446 2.458 . S
O1448 C1449 1.286 . S
C1449 U1446 2.984 . S
C1449 O1447 1.353 . S
C1449 O1448 1.286 . S
C1449 C1451 1.363 . S
C1450 C1440 1.465 . S
C1450 U1446 2.847 . S
C1450 O1464 1.249 . S
C1450 O1465 1.202 . S
C1451 C1449 1.363 . S
C1451 C1453 1.408 . S
C1451 C1456 1.342 . S
C1452 C1453 1.310 . S
C1452 C1455 1.461 . S
C1452 H1472 0.932 . S
C1453 C1451 1.408 . S
C1453 C1452 1.310 . S
C1453 H1473 0.930 . S
C1454 C1455 1.474 . S
C1454 C1456 1.285 . S
C1454 H1474 0.929 . S
C1455 C1452 1.461 . S
C1455 C1454 1.474 . S
C1456 C1451 1.342 . S
C1456 C1454 1.285 . S
C1456 H1475 0.930 . S
C1457 C1460 1.424 . S
C1457 C1462 1.245 . S
C1457 C1463 1.428 . S
C1458 C1461 1.260 . S
C1458 C1462 1.477 . S
C1458 H1476 0.932 . S
C1459 C1460 1.384 . S
C1459 C1461 1.479 . S
C1459 H1477 0.929 . S
C1460 C1457 1.424 . S
C1460 C1459 1.384 . S
C1460 H1478 0.928 . S
C1461 C1458 1.260 . S
C1461 C1459 1.479 . S
C1462 C1457 1.245 . S
C1462 C1458 1.477 . S
C1462 H1479 0.932 . S
C1463 U1446 2.882 . S
C1463 C1457 1.428 . S
C1463 O1466 1.301 . S
C1463 O1467 1.282 . S
O1464 U1446 2.441 . S
O1464 C1450 1.249 . S
O1465 U1446 2.420 . S
O1465 C1450 1.202 . S
O1466 U1446 2.455 . S
O1466 C1463 1.301 . S
O1467 U1446 2.449 . S
O1467 C1463 1.282 . S
H1468 C1441 0.931 . S
H1469 C1443 0.929 . S
H1470 C1444 0.930 . S
H1471 C1445 0.931 . S
H1472 C1452 0.932 . S
H1473 C1453 0.930 . S
H1474 C1454 0.929 . S
H1475 C1456 0.930 . S
H1476 C1458 0.932 . S
H1477 C1459 0.929 . S
H1478 C1460 0.928 . S
H1479 C1462 0.932 . S
C1480 C1481 1.264 . S
C1480 C1485 1.479 . S
C1480 C1490 1.465 . S
C1481 C1480 1.264 . S
C1481 C1483 1.339 . S
C1481 H1508 0.931 . S
C1482 C1483 1.395 . S
C1482 C1484 1.320 . S
C1483 C1481 1.339 . S
C1483 C1482 1.395 . S
C1483 H1509 0.929 . S
C1484 C1482 1.320 . S
C1484 C1485 1.405 . S
C1484 H1510 0.930 . S
C1485 C1480 1.479 . S
C1485 C1484 1.405 . S
C1485 H1511 0.931 . S
U1486 O1487 2.454 . S
U1486 O1488 2.458 . S
U1486 C1489 2.984 . S
U1486 C1490 2.847 . S
U1486 C1503 2.882 . S
U1486 O1504 2.441 . S
U1486 O1505 2.420 . S
U1486 O1506 2.455 . S
U1486 O1507 2.449 . S
O1487 U1486 2.454 . S
O1487 C1489 1.353 . S
O1488 U1486 2.458 . S
O1488 C1489 1.286 . S
C1489 U1486 2.984 . S
C1489 O1487 1.353 . S
C1489 O1488 1.286 . S
C1489 C1491 1.363 . S
C1490 C1480 1.465 . S
C1490 U1486 2.847 . S
C1490 O1504 1.249 . S
C1490 O1505 1.202 . S
C1491 C1489 1.363 . S
C1491 C1493 1.408 . S
C1491 C1496 1.342 . S
C1492 C1493 1.310 . S
C1492 C1495 1.461 . S
C1492 H1512 0.932 . S
C1493 C1491 1.408 . S
C1493 C1492 1.310 . S
C1493 H1513 0.930 . S
C1494 C1495 1.474 . S
C1494 C1496 1.285 . S
C1494 H1514 0.929 . S
C1495 C1492 1.461 . S
C1495 C1494 1.474 . S
C1496 C1491 1.342 . S
C1496 C1494 1.285 . S
C1496 H1515 0.930 . S
C1497 C1500 1.424 . S
C1497 C1502 1.245 . S
C1497 C1503 1.428 . S
C1498 C1501 1.260 . S
C1498 C1502 1.477 . S
C1498 H1516 0.932 . S
C1499 C1500 1.384 . S
C1499 C1501 1.479 . S
C1499 H1517 0.929 . S
C1500 C1497 1.424 . S
C1500 C1499 1.384 . S
C1500 H1518 0.928 . S
C1501 C1498 1.260 . S
C1501 C1499 1.479 . S
C1502 C1497 1.245 . S
C1502 C1498 1.477 . S
C1502 H1519 0.932 . S
C1503 U1486 2.882 . S
C1503 C1497 1.428 . S
C1503 O1506 1.301 . S
C1503 O1507 1.282 . S
O1504 U1486 2.441 . S
O1504 C1490 1.249 . S
O1505 U1486 2.420 . S
O1505 C1490 1.202 . S
O1506 U1486 2.455 . S
O1506 C1503 1.301 . S
O1507 U1486 2.449 . S
O1507 C1503 1.282 . S
H1508 C1481 0.931 . S
H1509 C1483 0.929 . S
H1510 C1484 0.930 . S
H1511 C1485 0.931 . S
H1512 C1492 0.932 . S
H1513 C1493 0.930 . S
H1514 C1494 0.929 . S
H1515 C1496 0.930 . S
H1516 C1498 0.932 . S
H1517 C1499 0.929 . S
H1518 C1500 0.928 . S
H1519 C1502 0.932 . S
C1520 C1521 1.264 . S
C1520 C1525 1.479 . S
C1520 C1530 1.465 . S
C1521 C1520 1.264 . S
C1521 C1523 1.339 . S
C1521 H1548 0.931 . S
C1522 C1523 1.395 . S
C1522 C1524 1.320 . S
C1523 C1521 1.339 . S
C1523 C1522 1.395 . S
C1523 H1549 0.929 . S
C1524 C1522 1.320 . S
C1524 C1525 1.405 . S
C1524 H1550 0.930 . S
C1525 C1520 1.479 . S
C1525 C1524 1.405 . S
C1525 H1551 0.931 . S
U1526 O1527 2.454 . S
U1526 O1528 2.458 . S
U1526 C1529 2.984 . S
U1526 C1530 2.847 . S
U1526 C1543 2.882 . S
U1526 O1544 2.441 . S
U1526 O1545 2.420 . S
U1526 O1546 2.455 . S
U1526 O1547 2.449 . S
O1527 U1526 2.454 . S
O1527 C1529 1.353 . S
O1528 U1526 2.458 . S
O1528 C1529 1.286 . S
C1529 U1526 2.984 . S
C1529 O1527 1.353 . S
C1529 O1528 1.286 . S
C1529 C1531 1.363 . S
C1530 C1520 1.465 . S
C1530 U1526 2.847 . S
C1530 O1544 1.249 . S
C1530 O1545 1.202 . S
C1531 C1529 1.363 . S
C1531 C1533 1.408 . S
C1531 C1536 1.342 . S
C1532 C1533 1.310 . S
C1532 C1535 1.461 . S
C1532 H1552 0.932 . S
C1533 C1531 1.408 . S
C1533 C1532 1.310 . S
C1533 H1553 0.930 . S
C1534 C1535 1.474 . S
C1534 C1536 1.285 . S
C1534 H1554 0.929 . S
C1535 C1532 1.461 . S
C1535 C1534 1.474 . S
C1536 C1531 1.342 . S
C1536 C1534 1.285 . S
C1536 H1555 0.930 . S
C1537 C1540 1.424 . S
C1537 C1542 1.245 . S
C1537 C1543 1.428 . S
C1538 C1541 1.260 . S
C1538 C1542 1.477 . S
C1538 H1556 0.932 . S
C1539 C1540 1.384 . S
C1539 C1541 1.479 . S
C1539 H1557 0.929 . S
C1540 C1537 1.424 . S
C1540 C1539 1.384 . S
C1540 H1558 0.928 . S
C1541 C1538 1.260 . S
C1541 C1539 1.479 . S
C1542 C1537 1.245 . S
C1542 C1538 1.477 . S
C1542 H1559 0.932 . S
C1543 U1526 2.882 . S
C1543 C1537 1.428 . S
C1543 O1546 1.301 . S
C1543 O1547 1.282 . S
O1544 U1526 2.441 . S
O1544 C1530 1.249 . S
O1545 U1526 2.420 . S
O1545 C1530 1.202 . S
O1546 U1526 2.455 . S
O1546 C1543 1.301 . S
O1547 U1526 2.449 . S
O1547 C1543 1.282 . S
H1548 C1521 0.931 . S
H1549 C1523 0.929 . S
H1550 C1524 0.930 . S
H1551 C1525 0.931 . S
H1552 C1532 0.932 . S
H1553 C1533 0.930 . S
H1554 C1534 0.929 . S
H1555 C1536 0.930 . S
H1556 C1538 0.932 . S
H1557 C1539 0.929 . S
H1558 C1540 0.928 . S
H1559 C1542 0.932 . S
C1560 C1561 1.264 . S
C1560 C1565 1.479 . S
C1560 C1570 1.465 . S
C1561 C1560 1.264 . S
C1561 C1563 1.339 . S
C1561 H1588 0.931 . S
C1562 C1563 1.395 . S
C1562 C1564 1.320 . S
C1563 C1561 1.339 . S
C1563 C1562 1.395 . S
C1563 H1589 0.929 . S
C1564 C1562 1.320 . S
C1564 C1565 1.405 . S
C1564 H1590 0.930 . S
C1565 C1560 1.479 . S
C1565 C1564 1.405 . S
C1565 H1591 0.931 . S
U1566 O1567 2.454 . S
U1566 O1568 2.458 . S
U1566 C1569 2.984 . S
U1566 C1570 2.847 . S
U1566 C1583 2.882 . S
U1566 O1584 2.441 . S
U1566 O1585 2.420 . S
U1566 O1586 2.455 . S
U1566 O1587 2.449 . S
O1567 U1566 2.454 . S
O1567 C1569 1.353 . S
O1568 U1566 2.458 . S
O1568 C1569 1.286 . S
C1569 U1566 2.984 . S
C1569 O1567 1.353 . S
C1569 O1568 1.286 . S
C1569 C1571 1.363 . S
C1570 C1560 1.465 . S
C1570 U1566 2.847 . S
C1570 O1584 1.249 . S
C1570 O1585 1.202 . S
C1571 C1569 1.363 . S
C1571 C1573 1.408 . S
C1571 C1576 1.342 . S
C1572 C1573 1.310 . S
C1572 C1575 1.461 . S
C1572 H1592 0.932 . S
C1573 C1571 1.408 . S
C1573 C1572 1.310 . S
C1573 H1593 0.930 . S
C1574 C1575 1.474 . S
C1574 C1576 1.285 . S
C1574 H1594 0.929 . S
C1575 C1572 1.461 . S
C1575 C1574 1.474 . S
C1576 C1571 1.342 . S
C1576 C1574 1.285 . S
C1576 H1595 0.930 . S
C1577 C1580 1.424 . S
C1577 C1582 1.245 . S
C1577 C1583 1.428 . S
C1578 C1581 1.260 . S
C1578 C1582 1.477 . S
C1578 H1596 0.932 . S
C1579 C1580 1.384 . S
C1579 C1581 1.479 . S
C1579 H1597 0.929 . S
C1580 C1577 1.424 . S
C1580 C1579 1.384 . S
C1580 H1598 0.928 . S
C1581 C1578 1.260 . S
C1581 C1579 1.479 . S
C1582 C1577 1.245 . S
C1582 C1578 1.477 . S
C1582 H1599 0.932 . S
C1583 U1566 2.882 . S
C1583 C1577 1.428 . S
C1583 O1586 1.301 . S
C1583 O1587 1.282 . S
O1584 U1566 2.441 . S
O1584 C1570 1.249 . S
O1585 U1566 2.420 . S
O1585 C1570 1.202 . S
O1586 U1566 2.455 . S
O1586 C1583 1.301 . S
O1587 U1566 2.449 . S
O1587 C1583 1.282 . S
H1588 C1561 0.931 . S
H1589 C1563 0.929 . S
H1590 C1564 0.930 . S
H1591 C1565 0.931 . S
H1592 C1572 0.932 . S
H1593 C1573 0.930 . S
H1594 C1574 0.929 . S
H1595 C1576 0.930 . S
H1596 C1578 0.932 . S
H1597 C1579 0.929 . S
H1598 C1580 0.928 . S
H1599 C1582 0.932 . S
C1600 C1601 1.264 . S
C1600 C1605 1.479 . S
C1600 C1610 1.465 1_655 S
C1601 C1600 1.264 . S
C1601 C1603 1.339 . S
C1601 H1628 0.931 . S
C1602 C1603 1.395 . S
C1602 C1604 1.320 . S
C1603 C1601 1.339 . S
C1603 C1602 1.395 . S
C1603 H1629 0.929 . S
C1604 C1602 1.320 . S
C1604 C1605 1.405 . S
C1604 H1630 0.930 . S
C1605 C1600 1.479 . S
C1605 C1604 1.405 . S
C1605 H1631 0.931 . S
U1606 O1607 2.454 . S
U1606 O1608 2.458 . S
U1606 C1609 2.984 . S
U1606 C1610 2.847 . S
U1606 C1623 2.882 . S
U1606 O1624 2.441 . S
U1606 O1625 2.420 . S
U1606 O1626 2.455 . S
U1606 O1627 2.449 . S
O1607 U1606 2.454 . S
O1607 C1609 1.353 . S
O1608 U1606 2.458 . S
O1608 C1609 1.286 . S
C1609 U1606 2.984 . S
C1609 O1607 1.353 . S
C1609 O1608 1.286 . S
C1609 C1611 1.363 . S
C1610 C1600 1.465 1_455 S
C1610 U1606 2.847 . S
C1610 O1624 1.249 . S
C1610 O1625 1.202 . S
C1611 C1609 1.363 . S
C1611 C1613 1.408 . S
C1611 C1616 1.342 . S
C1612 C1613 1.310 . S
C1612 C1615 1.461 . S
C1612 H1632 0.932 . S
C1613 C1611 1.408 . S
C1613 C1612 1.310 . S
C1613 H1633 0.930 . S
C1614 C1615 1.474 . S
C1614 C1616 1.285 . S
C1614 H1634 0.929 . S
C1615 C1612 1.461 . S
C1615 C1614 1.474 . S
C1616 C1611 1.342 . S
C1616 C1614 1.285 . S
C1616 H1635 0.930 . S
C1617 C1620 1.424 . S
C1617 C1622 1.245 . S
C1617 C1623 1.428 . S
C1618 C1621 1.260 . S
C1618 C1622 1.477 . S
C1618 H1636 0.932 . S
C1619 C1620 1.384 . S
C1619 C1621 1.479 . S
C1619 H1637 0.929 . S
C1620 C1617 1.424 . S
C1620 C1619 1.384 . S
C1620 H1638 0.928 . S
C1621 C1618 1.260 . S
C1621 C1619 1.479 . S
C1622 C1617 1.245 . S
C1622 C1618 1.477 . S
C1622 H1639 0.932 . S
C1623 U1606 2.882 . S
C1623 C1617 1.428 . S
C1623 O1626 1.301 . S
C1623 O1627 1.282 . S
O1624 U1606 2.441 . S
O1624 C1610 1.249 . S
O1625 U1606 2.420 . S
O1625 C1610 1.202 . S
O1626 U1606 2.455 . S
O1626 C1623 1.301 . S
O1627 U1606 2.449 . S
O1627 C1623 1.282 . S
H1628 C1601 0.931 . S
H1629 C1603 0.929 . S
H1630 C1604 0.930 . S
H1631 C1605 0.931 . S
H1632 C1612 0.932 . S
H1633 C1613 0.930 . S
H1634 C1614 0.929 . S
H1635 C1616 0.930 . S
H1636 C1618 0.932 . S
H1637 C1619 0.929 . S
H1638 C1620 0.928 . S
H1639 C1622 0.932 . S
C1640 C1641 1.264 . S
C1640 C1645 1.479 . S
C1640 C1650 1.465 . S
C1641 C1640 1.264 . S
C1641 C1643 1.339 . S
C1641 H1668 0.931 . S
C1642 C1643 1.395 . S
C1642 C1644 1.320 . S
C1643 C1641 1.339 . S
C1643 C1642 1.395 . S
C1643 H1669 0.929 . S
C1644 C1642 1.320 . S
C1644 C1645 1.405 . S
C1644 H1670 0.930 . S
C1645 C1640 1.479 . S
C1645 C1644 1.405 . S
C1645 H1671 0.931 . S
U1646 O1647 2.454 . S
U1646 O1648 2.458 . S
U1646 C1649 2.984 . S
U1646 C1650 2.847 . S
U1646 C1663 2.882 . S
U1646 O1664 2.441 . S
U1646 O1665 2.420 . S
U1646 O1666 2.455 . S
U1646 O1667 2.449 . S
O1647 U1646 2.454 . S
O1647 C1649 1.353 . S
O1648 U1646 2.458 . S
O1648 C1649 1.286 . S
C1649 U1646 2.984 . S
C1649 O1647 1.353 . S
C1649 O1648 1.286 . S
C1649 C1651 1.363 . S
C1650 C1640 1.465 . S
C1650 U1646 2.847 . S
C1650 O1664 1.249 . S
C1650 O1665 1.202 . S
C1651 C1649 1.363 . S
C1651 C1653 1.408 . S
C1651 C1656 1.342 . S
C1652 C1653 1.310 . S
C1652 C1655 1.461 . S
C1652 H1672 0.932 . S
C1653 C1651 1.408 . S
C1653 C1652 1.310 . S
C1653 H1673 0.930 . S
C1654 C1655 1.474 . S
C1654 C1656 1.285 . S
C1654 H1674 0.929 . S
C1655 C1652 1.461 . S
C1655 C1654 1.474 . S
C1656 C1651 1.342 . S
C1656 C1654 1.285 . S
C1656 H1675 0.930 . S
C1657 C1660 1.424 . S
C1657 C1662 1.245 . S
C1657 C1663 1.428 . S
C1658 C1661 1.260 . S
C1658 C1662 1.477 . S
C1658 H1676 0.932 . S
C1659 C1660 1.384 . S
C1659 C1661 1.479 . S
C1659 H1677 0.929 . S
C1660 C1657 1.424 . S
C1660 C1659 1.384 . S
C1660 H1678 0.928 . S
C1661 C1658 1.260 . S
C1661 C1659 1.479 . S
C1662 C1657 1.245 . S
C1662 C1658 1.477 . S
C1662 H1679 0.932 . S
C1663 U1646 2.882 . S
C1663 C1657 1.428 . S
C1663 O1666 1.301 . S
C1663 O1667 1.282 . S
O1664 U1646 2.441 . S
O1664 C1650 1.249 . S
O1665 U1646 2.420 . S
O1665 C1650 1.202 . S
O1666 U1646 2.455 . S
O1666 C1663 1.301 . S
O1667 U1646 2.449 . S
O1667 C1663 1.282 . S
H1668 C1641 0.931 . S
H1669 C1643 0.929 . S
H1670 C1644 0.930 . S
H1671 C1645 0.931 . S
H1672 C1652 0.932 . S
H1673 C1653 0.930 . S
H1674 C1654 0.929 . S
H1675 C1656 0.930 . S
H1676 C1658 0.932 . S
H1677 C1659 0.929 . S
H1678 C1660 0.928 . S
H1679 C1662 0.932 . S
C1680 C1681 1.264 . S
C1680 C1685 1.479 . S
C1680 C1690 1.465 . S
C1681 C1680 1.264 . S
C1681 C1683 1.339 . S
C1681 H1708 0.931 . S
C1682 C1683 1.395 . S
C1682 C1684 1.320 . S
C1683 C1681 1.339 . S
C1683 C1682 1.395 . S
C1683 H1709 0.929 . S
C1684 C1682 1.320 . S
C1684 C1685 1.405 . S
C1684 H1710 0.930 . S
C1685 C1680 1.479 . S
C1685 C1684 1.405 . S
C1685 H1711 0.931 . S
U1686 O1687 2.454 . S
U1686 O1688 2.458 . S
U1686 C1689 2.984 . S
U1686 C1690 2.847 . S
U1686 C1703 2.882 . S
U1686 O1704 2.441 . S
U1686 O1705 2.420 . S
U1686 O1706 2.455 . S
U1686 O1707 2.449 . S
O1687 U1686 2.454 . S
O1687 C1689 1.353 . S
O1688 U1686 2.458 . S
O1688 C1689 1.286 . S
C1689 U1686 2.984 . S
C1689 O1687 1.353 . S
C1689 O1688 1.286 . S
C1689 C1691 1.363 1_554 S
C1690 C1680 1.465 . S
C1690 U1686 2.847 . S
C1690 O1704 1.249 . S
C1690 O1705 1.202 . S
C1691 C1689 1.363 1_556 S
C1691 C1693 1.408 . S
C1691 C1696 1.342 . S
C1692 C1693 1.310 . S
C1692 C1695 1.461 . S
C1692 H1712 0.932 . S
C1693 C1691 1.408 . S
C1693 C1692 1.310 . S
C1693 H1713 0.930 . S
C1694 C1695 1.474 . S
C1694 C1696 1.285 . S
C1694 H1714 0.929 . S
C1695 C1692 1.461 . S
C1695 C1694 1.474 . S
C1696 C1691 1.342 . S
C1696 C1694 1.285 . S
C1696 H1715 0.930 . S
C1697 C1700 1.424 . S
C1697 C1702 1.245 . S
C1697 C1703 1.428 . S
C1698 C1701 1.260 . S
C1698 C1702 1.477 . S
C1698 H1716 0.932 . S
C1699 C1700 1.384 . S
C1699 C1701 1.479 . S
C1699 H1717 0.929 . S
C1700 C1697 1.424 . S
C1700 C1699 1.384 . S
C1700 H1718 0.928 . S
C1701 C1698 1.260 . S
C1701 C1699 1.479 . S
C1702 C1697 1.245 . S
C1702 C1698 1.477 . S
C1702 H1719 0.932 . S
C1703 U1686 2.882 . S
C1703 C1697 1.428 . S
C1703 O1706 1.301 . S
C1703 O1707 1.282 . S
O1704 U1686 2.441 . S
O1704 C1690 1.249 . S
O1705 U1686 2.420 . S
O1705 C1690 1.202 . S
O1706 U1686 2.455 . S
O1706 C1703 1.301 . S
O1707 U1686 2.449 . S
O1707 C1703 1.282 . S
H1708 C1681 0.931 . S
H1709 C1683 0.929 . S
H1710 C1684 0.930 . S
H1711 C1685 0.931 . S
H1712 C1692 0.932 . S
H1713 C1693 0.930 . S
H1714 C1694 0.929 . S
H1715 C1696 0.930 . S
H1716 C1698 0.932 . S
H1717 C1699 0.929 . S
H1718 C1700 0.928 . S
H1719 C1702 0.932 . S
C1720 C1721 1.264 . S
C1720 C1725 1.479 . S
C1720 C1730 1.465 . S
C1721 C1720 1.264 . S
C1721 C1723 1.339 . S
C1721 H1748 0.931 . S
C1722 C1723 1.395 . S
C1722 C1724 1.320 . S
C1723 C1721 1.339 . S
C1723 C1722 1.395 . S
C1723 H1749 0.929 . S
C1724 C1722 1.320 . S
C1724 C1725 1.405 . S
C1724 H1750 0.930 . S
C1725 C1720 1.479 . S
C1725 C1724 1.405 . S
C1725 H1751 0.931 . S
U1726 O1727 2.454 . S
U1726 O1728 2.458 . S
U1726 C1729 2.984 . S
U1726 C1730 2.847 . S
U1726 C1743 2.882 . S
U1726 O1744 2.441 . S
U1726 O1745 2.420 . S
U1726 O1746 2.455 . S
U1726 O1747 2.449 . S
O1727 U1726 2.454 . S
O1727 C1729 1.353 . S
O1728 U1726 2.458 . S
O1728 C1729 1.286 . S
C1729 U1726 2.984 . S
C1729 O1727 1.353 . S
C1729 O1728 1.286 . S
C1729 C1731 1.363 . S
C1730 C1720 1.465 . S
C1730 U1726 2.847 . S
C1730 O1744 1.249 . S
C1730 O1745 1.202 . S
C1731 C1729 1.363 . S
C1731 C1733 1.408 . S
C1731 C1736 1.342 . S
C1732 C1733 1.310 . S
C1732 C1735 1.461 . S
C1732 H1752 0.932 . S
C1733 C1731 1.408 . S
C1733 C1732 1.310 . S
C1733 H1753 0.930 . S
C1734 C1735 1.474 . S
C1734 C1736 1.285 . S
C1734 H1754 0.929 . S
C1735 C1732 1.461 . S
C1735 C1734 1.474 . S
C1736 C1731 1.342 . S
C1736 C1734 1.285 . S
C1736 H1755 0.930 . S
C1737 C1740 1.424 . S
C1737 C1742 1.245 . S
C1737 C1743 1.428 . S
C1738 C1741 1.260 . S
C1738 C1742 1.477 . S
C1738 H1756 0.932 . S
C1739 C1740 1.384 . S
C1739 C1741 1.479 . S
C1739 H1757 0.929 . S
C1740 C1737 1.424 . S
C1740 C1739 1.384 . S
C1740 H1758 0.928 . S
C1741 C1738 1.260 . S
C1741 C1739 1.479 . S
C1742 C1737 1.245 . S
C1742 C1738 1.477 . S
C1742 H1759 0.932 . S
C1743 U1726 2.882 . S
C1743 C1737 1.428 . S
C1743 O1746 1.301 . S
C1743 O1747 1.282 . S
O1744 U1726 2.441 . S
O1744 C1730 1.249 . S
O1745 U1726 2.420 . S
O1745 C1730 1.202 . S
O1746 U1726 2.455 . S
O1746 C1743 1.301 . S
O1747 U1726 2.449 . S
O1747 C1743 1.282 . S
H1748 C1721 0.931 . S
H1749 C1723 0.929 . S
H1750 C1724 0.930 . S
H1751 C1725 0.931 . S
H1752 C1732 0.932 . S
H1753 C1733 0.930 . S
H1754 C1734 0.929 . S
H1755 C1736 0.930 . S
H1756 C1738 0.932 . S
H1757 C1739 0.929 . S
H1758 C1740 0.928 . S
H1759 C1742 0.932 . S
C1760 C1761 1.264 . S
C1760 C1765 1.479 . S
C1760 C1770 1.465 . S
C1761 C1760 1.264 . S
C1761 C1763 1.339 . S
C1761 H1788 0.931 . S
C1762 C1763 1.395 . S
C1762 C1764 1.320 . S
C1763 C1761 1.339 . S
C1763 C1762 1.395 . S
C1763 H1789 0.929 . S
C1764 C1762 1.320 . S
C1764 C1765 1.405 . S
C1764 H1790 0.930 . S
C1765 C1760 1.479 . S
C1765 C1764 1.405 . S
C1765 H1791 0.931 . S
U1766 O1767 2.454 . S
U1766 O1768 2.458 . S
U1766 C1769 2.984 . S
U1766 C1770 2.847 . S
U1766 C1783 2.882 . S
U1766 O1784 2.441 . S
U1766 O1785 2.420 . S
U1766 O1786 2.455 . S
U1766 O1787 2.449 . S
O1767 U1766 2.454 . S
O1767 C1769 1.353 . S
O1768 U1766 2.458 . S
O1768 C1769 1.286 . S
C1769 U1766 2.984 . S
C1769 O1767 1.353 . S
C1769 O1768 1.286 . S
C1769 C1771 1.363 . S
C1770 C1760 1.465 . S
C1770 U1766 2.847 . S
C1770 O1784 1.249 . S
C1770 O1785 1.202 . S
C1771 C1769 1.363 . S
C1771 C1773 1.408 . S
C1771 C1776 1.342 . S
C1772 C1773 1.310 . S
C1772 C1775 1.461 . S
C1772 H1792 0.932 . S
C1773 C1771 1.408 . S
C1773 C1772 1.310 . S
C1773 H1793 0.930 . S
C1774 C1775 1.474 . S
C1774 C1776 1.285 . S
C1774 H1794 0.929 . S
C1775 C1772 1.461 . S
C1775 C1774 1.474 . S
C1776 C1771 1.342 . S
C1776 C1774 1.285 . S
C1776 H1795 0.930 . S
C1777 C1780 1.424 . S
C1777 C1782 1.245 . S
C1777 C1783 1.428 . S
C1778 C1781 1.260 . S
C1778 C1782 1.477 . S
C1778 H1796 0.932 . S
C1779 C1780 1.384 . S
C1779 C1781 1.479 . S
C1779 H1797 0.929 . S
C1780 C1777 1.424 . S
C1780 C1779 1.384 . S
C1780 H1798 0.928 . S
C1781 C1778 1.260 . S
C1781 C1779 1.479 . S
C1782 C1777 1.245 . S
C1782 C1778 1.477 . S
C1782 H1799 0.932 . S
C1783 U1766 2.882 . S
C1783 C1777 1.428 . S
C1783 O1786 1.301 . S
C1783 O1787 1.282 . S
O1784 U1766 2.441 . S
O1784 C1770 1.249 . S
O1785 U1766 2.420 . S
O1785 C1770 1.202 . S
O1786 U1766 2.455 . S
O1786 C1783 1.301 . S
O1787 U1766 2.449 . S
O1787 C1783 1.282 . S
H1788 C1761 0.931 . S
H1789 C1763 0.929 . S
H1790 C1764 0.930 . S
H1791 C1765 0.931 . S
H1792 C1772 0.932 . S
H1793 C1773 0.930 . S
H1794 C1774 0.929 . S
H1795 C1776 0.930 . S
H1796 C1778 0.932 . S
H1797 C1779 0.929 . S
H1798 C1780 0.928 . S
H1799 C1782 0.932 . S
C1800 C1801 1.264 . S
C1800 C1805 1.479 . S
C1800 C1810 1.465 . S
C1801 C1800 1.264 . S
C1801 C1803 1.339 . S
C1801 H1828 0.931 . S
C1802 C1803 1.395 . S
C1802 C1804 1.320 . S
C1803 C1801 1.339 . S
C1803 C1802 1.395 . S
C1803 H1829 0.929 . S
C1804 C1802 1.320 . S
C1804 C1805 1.405 . S
C1804 H1830 0.930 . S
C1805 C1800 1.479 . S
C1805 C1804 1.405 . S
C1805 H1831 0.931 . S
U1806 O1807 2.454 . S
U1806 O1808 2.458 . S
U1806 C1809 2.984 . S
U1806 C1810 2.847 . S
U1806 C1823 2.882 . S
U1806 O1824 2.441 . S
U1806 O1825 2.420 . S
U1806 O1826 2.455 . S
U1806 O1827 2.449 . S
O1807 U1806 2.454 . S
O1807 C1809 1.353 . S
O1808 U1806 2.458 . S
O1808 C1809 1.286 . S
C1809 U1806 2.984 . S
C1809 O1807 1.353 . S
C1809 O1808 1.286 . S
C1809 C1811 1.363 . S
C1810 C1800 1.465 . S
C1810 U1806 2.847 . S
C1810 O1824 1.249 . S
C1810 O1825 1.202 . S
C1811 C1809 1.363 . S
C1811 C1813 1.408 . S
C1811 C1816 1.342 . S
C1812 C1813 1.310 . S
C1812 C1815 1.461 . S
C1812 H1832 0.932 . S
C1813 C1811 1.408 . S
C1813 C1812 1.310 . S
C1813 H1833 0.930 . S
C1814 C1815 1.474 . S
C1814 C1816 1.285 . S
C1814 H1834 0.929 . S
C1815 C1812 1.461 . S
C1815 C1814 1.474 . S
C1816 C1811 1.342 . S
C1816 C1814 1.285 . S
C1816 H1835 0.930 . S
C1817 C1820 1.424 . S
C1817 C1822 1.245 . S
C1817 C1823 1.428 . S
C1818 C1821 1.260 . S
C1818 C1822 1.477 . S
C1818 H1836 0.932 . S
C1819 C1820 1.384 . S
C1819 C1821 1.479 . S
C1819 H1837 0.929 . S
C1820 C1817 1.424 . S
C1820 C1819 1.384 . S
C1820 H1838 0.928 . S
C1821 C1818 1.260 . S
C1821 C1819 1.479 . S
C1822 C1817 1.245 . S
C1822 C1818 1.477 . S
C1822 H1839 0.932 . S
C1823 U1806 2.882 . S
C1823 C1817 1.428 . S
C1823 O1826 1.301 . S
C1823 O1827 1.282 . S
O1824 U1806 2.441 . S
O1824 C1810 1.249 . S
O1825 U1806 2.420 . S
O1825 C1810 1.202 . S
O1826 U1806 2.455 . S
O1826 C1823 1.301 . S
O1827 U1806 2.449 . S
O1827 C1823 1.282 . S
H1828 C1801 0.931 . S
H1829 C1803 0.929 . S
H1830 C1804 0.930 . S
H1831 C1805 0.931 . S
H1832 C1812 0.932 . S
H1833 C1813 0.930 . S
H1834 C1814 0.929 . S
H1835 C1816 0.930 . S
H1836 C1818 0.932 . S
H1837 C1819 0.929 . S
H1838 C1820 0.928 . S
H1839 C1822 0.932 . S
C1840 C1841 1.264 . S
C1840 C1845 1.479 . S
C1840 C1850 1.465 . S
C1841 C1840 1.264 . S
C1841 C1843 1.339 . S
C1841 H1868 0.931 . S
C1842 C1843 1.395 . S
C1842 C1844 1.320 . S
C1843 C1841 1.339 . S
C1843 C1842 1.395 . S
C1843 H1869 0.929 . S
C1844 C1842 1.320 . S
C1844 C1845 1.405 . S
C1844 H1870 0.930 . S
C1845 C1840 1.479 . S
C1845 C1844 1.405 . S
C1845 H1871 0.931 . S
U1846 O1847 2.454 . S
U1846 O1848 2.458 . S
U1846 C1849 2.984 . S
U1846 C1850 2.847 . S
U1846 C1863 2.882 . S
U1846 O1864 2.441 . S
U1846 O1865 2.420 . S
U1846 O1866 2.455 . S
U1846 O1867 2.449 . S
O1847 U1846 2.454 . S
O1847 C1849 1.353 . S
O1848 U1846 2.458 . S
O1848 C1849 1.286 . S
C1849 U1846 2.984 . S
C1849 O1847 1.353 . S
C1849 O1848 1.286 . S
C1849 C1851 1.363 . S
C1850 C1840 1.465 . S
C1850 U1846 2.847 . S
C1850 O1864 1.249 . S
C1850 O1865 1.202 . S
C1851 C1849 1.363 . S
C1851 C1853 1.408 . S
C1851 C1856 1.342 . S
C1852 C1853 1.310 . S
C1852 C1855 1.461 . S
C1852 H1872 0.932 . S
C1853 C1851 1.408 . S
C1853 C1852 1.310 . S
C1853 H1873 0.930 . S
C1854 C1855 1.474 . S
C1854 C1856 1.285 . S
C1854 H1874 0.929 . S
C1855 C1852 1.461 . S
C1855 C1854 1.474 . S
C1856 C1851 1.342 . S
C1856 C1854 1.285 . S
C1856 H1875 0.930 . S
C1857 C1860 1.424 . S
C1857 C1862 1.245 . S
C1857 C1863 1.428 . S
C1858 C1861 1.260 . S
C1858 C1862 1.477 . S
C1858 H1876 0.932 . S
C1859 C1860 1.384 . S
C1859 C1861 1.479 . S
C1859 H1877 0.929 . S
C1860 C1857 1.424 . S
C1860 C1859 1.384 . S
C1860 H1878 0.928 . S
C1861 C1858 1.260 . S
C1861 C1859 1.479 . S
C1862 C1857 1.245 . S
C1862 C1858 1.477 . S
C1862 H1879 0.932 . S
C1863 U1846 2.882 . S
C1863 C1857 1.428 . S
C1863 O1866 1.301 . S
C1863 O1867 1.282 . S
O1864 U1846 2.441 . S
O1864 C1850 1.249 . S
O1865 U1846 2.420 . S
O1865 C1850 1.202 . S
O1866 U1846 2.455 . S
O1866 C1863 1.301 . S
O1867 U1846 2.449 . S
O1867 C1863 1.282 . S
H1868 C1841 0.931 . S
H1869 C1843 0.929 . S
H1870 C1844 0.930 . S
H1871 C1845 0.931 . S
H1872 C1852 0.932 . S
H1873 C1853 0.930 . S
H1874 C1854 0.929 . S
H1875 C1856 0.930 . S
H1876 C1858 0.932 . S
H1877 C1859 0.929 . S
H1878 C1860 0.928 . S
H1879 C1862 0.932 . S
C1880 C1881 1.264 . S
C1880 C1885 1.479 . S
C1880 C1890 1.465 . S
C1881 C1880 1.264 . S
C1881 C1883 1.339 . S
C1881 H1908 0.931 . S
C1882 C1883 1.395 . S
C1882 C1884 1.320 . S
C1883 C1881 1.339 . S
C1883 C1882 1.395 . S
C1883 H1909 0.929 . S
C1884 C1882 1.320 . S
C1884 C1885 1.405 . S
C1884 H1910 0.930 . S
C1885 C1880 1.479 . S
C1885 C1884 1.405 . S
C1885 H1911 0.931 . S
U1886 O1887 2.454 . S
U1886 O1888 2.458 . S
U1886 C1889 2.984 . S
U1886 C1890 2.847 . S
U1886 C1903 2.882 . S
U1886 O1904 2.441 . S
U1886 O1905 2.420 . S
U1886 O1906 2.455 . S
U1886 O1907 2.449 . S
O1887 U1886 2.454 . S
O1887 C1889 1.353 . S
O1888 U1886 2.458 . S
O1888 C1889 1.286 . S
C1889 U1886 2.984 . S
C1889 O1887 1.353 . S
C1889 O1888 1.286 . S
C1889 C1891 1.363 . S
C1890 C1880 1.465 . S
C1890 U1886 2.847 . S
C1890 O1904 1.249 . S
C1890 O1905 1.202 . S
C1891 C1889 1.363 . S
C1891 C1893 1.408 . S
C1891 C1896 1.342 . S
C1892 C1893 1.310 . S
C1892 C1895 1.461 . S
C1892 H1912 0.932 . S
C1893 C1891 1.408 . S
C1893 C1892 1.310 . S
C1893 H1913 0.930 . S
C1894 C1895 1.474 . S
C1894 C1896 1.285 . S
C1894 H1914 0.929 . S
C1895 C1892 1.461 . S
C1895 C1894 1.474 . S
C1896 C1891 1.342 . S
C1896 C1894 1.285 . S
C1896 H1915 0.930 . S
C1897 C1900 1.424 . S
C1897 C1902 1.245 . S
C1897 C1903 1.428 . S
C1898 C1901 1.260 . S
C1898 C1902 1.477 . S
C1898 H1916 0.932 . S
C1899 C1900 1.384 . S
C1899 C1901 1.479 . S
C1899 H1917 0.929 . S
C1900 C1897 1.424 . S
C1900 C1899 1.384 . S
C1900 H1918 0.928 . S
C1901 C1898 1.260 . S
C1901 C1899 1.479 . S
C1902 C1897 1.245 . S
C1902 C1898 1.477 . S
C1902 H1919 0.932 . S
C1903 U1886 2.882 . S
C1903 C1897 1.428 . S
C1903 O1906 1.301 . S
C1903 O1907 1.282 . S
O1904 U1886 2.441 . S
O1904 C1890 1.249 . S
O1905 U1886 2.420 . S
O1905 C1890 1.202 . S
O1906 U1886 2.455 . S
O1906 C1903 1.301 . S
O1907 U1886 2.449 . S
O1907 C1903 1.282 . S
H1908 C1881 0.931 . S
H1909 C1883 0.929 . S
H1910 C1884 0.930 . S
H1911 C1885 0.931 . S
H1912 C1892 0.932 . S
H1913 C1893 0.930 . S
H1914 C1894 0.929 . S
H1915 C1896 0.930 . S
H1916 C1898 0.932 . S
H1917 C1899 0.929 . S
H1918 C1900 0.928 . S
H1919 C1902 0.932 . S
H1920 C1927 0.929 . S
H1921 C1930 0.930 . S
H1922 C1932 0.929 . S
H1923 C1924 0.969 . S
C1924 H1923 0.969 . S
C1924 O1925 1.550 . S
C1924 H1926 0.973 . S
O1925 C1924 1.550 . S
O1925 C1931 1.412 . S
H1926 C1924 0.973 . S
C1927 H1920 0.929 . S
C1927 C1928 1.400 . S
C1927 C1929 1.364 . S
C1928 C1927 1.400 . S
C1928 C1932 1.377 . S
C1929 C1927 1.364 . S
C1929 C1930 1.374 . S
C1930 H1921 0.930 . S
C1930 C1929 1.374 . S
C1930 C1931 1.383 . S
C1931 O1925 1.412 . S
C1931 C1930 1.383 . S
C1931 C1932 1.394 . S
C1932 H1922 0.929 . S
C1932 C1928 1.377 . S
C1932 C1931 1.394 . S
H1933 C1940 0.929 . S
H1934 C1943 0.930 . S
H1935 C1945 0.929 . S
H1936 C1937 0.969 . S
C1937 H1936 0.969 . S
C1937 O1938 1.550 . S
C1937 H1939 0.973 . S
O1938 C1937 1.550 . S
O1938 C1944 1.412 . S
H1939 C1937 0.973 . S
C1940 H1933 0.929 . S
C1940 C1941 1.400 . S
C1940 C1942 1.364 . S
C1941 C1940 1.400 . S
C1941 C1945 1.377 . S
C1942 C1940 1.364 . S
C1942 C1943 1.374 . S
C1943 H1934 0.930 . S
C1943 C1942 1.374 . S
C1943 C1944 1.383 . S
C1944 O1938 1.412 . S
C1944 C1943 1.383 . S
C1944 C1945 1.394 . S
C1945 H1935 0.929 . S
C1945 C1941 1.377 . S
C1945 C1944 1.394 . S
H1946 C1953 0.929 . S
H1947 C1956 0.930 . S
H1948 C1958 0.929 . S
H1949 C1950 0.969 . S
C1950 H1949 0.969 . S
C1950 O1951 1.550 . S
C1950 H1952 0.973 . S
O1951 C1950 1.550 . S
O1951 C1957 1.412 . S
H1952 C1950 0.973 . S
C1953 H1946 0.929 . S
C1953 C1954 1.400 . S
C1953 C1955 1.364 . S
C1954 C1953 1.400 . S
C1954 C1958 1.377 . S
C1955 C1953 1.364 . S
C1955 C1956 1.374 . S
C1956 H1947 0.930 . S
C1956 C1955 1.374 . S
C1956 C1957 1.383 . S
C1957 O1951 1.412 . S
C1957 C1956 1.383 . S
C1957 C1958 1.394 . S
C1958 H1948 0.929 . S
C1958 C1954 1.377 . S
C1958 C1957 1.394 . S
H1959 C1966 0.929 . S
H1960 C1969 0.930 . S
H1961 C1971 0.929 . S
H1962 C1963 0.969 . S
C1963 H1962 0.969 . S
C1963 O1964 1.550 . S
C1963 H1965 0.973 . S
O1964 C1963 1.550 . S
O1964 C1970 1.412 . S
H1965 C1963 0.973 . S
C1966 H1959 0.929 . S
C1966 C1967 1.400 . S
C1966 C1968 1.364 . S
C1967 C1966 1.400 . S
C1967 C1971 1.377 . S
C1968 C1966 1.364 . S
C1968 C1969 1.374 . S
C1969 H1960 0.930 . S
C1969 C1968 1.374 . S
C1969 C1970 1.383 . S
C1970 O1964 1.412 . S
C1970 C1969 1.383 . S
C1970 C1971 1.394 . S
C1971 H1961 0.929 . S
C1971 C1967 1.377 . S
C1971 C1970 1.394 . S
H1972 C1979 0.929 . S
H1973 C1982 0.930 . S
H1974 C1984 0.929 . S
H1975 C1976 0.969 . S
C1976 H1975 0.969 . S
C1976 O1977 1.550 . S
C1976 H1978 0.973 . S
O1977 C1976 1.550 . S
O1977 C1983 1.412 . S
H1978 C1976 0.973 . S
C1979 H1972 0.929 . S
C1979 C1980 1.400 . S
C1979 C1981 1.364 . S
C1980 C1979 1.400 . S
C1980 C1984 1.377 . S
C1981 C1979 1.364 . S
C1981 C1982 1.374 . S
C1982 H1973 0.930 . S
C1982 C1981 1.374 . S
C1982 C1983 1.383 . S
C1983 O1977 1.412 . S
C1983 C1982 1.383 . S
C1983 C1984 1.394 . S
C1984 H1974 0.929 . S
C1984 C1980 1.377 . S
C1984 C1983 1.394 . S
H1985 C1992 0.929 . S
H1986 C1995 0.930 . S
H1987 C1997 0.929 . S
H1988 C1989 0.969 . S
C1989 H1988 0.969 . S
C1989 O1990 1.550 . S
C1989 H1991 0.973 . S
O1990 C1989 1.550 . S
O1990 C1996 1.412 . S
H1991 C1989 0.973 . S
C1992 H1985 0.929 . S
C1992 C1993 1.400 . S
C1992 C1994 1.364 . S
C1993 C1992 1.400 . S
C1993 C1997 1.377 . S
C1994 C1992 1.364 . S
C1994 C1995 1.374 . S
C1995 H1986 0.930 . S
C1995 C1994 1.374 . S
C1995 C1996 1.383 . S
C1996 O1990 1.412 . S
C1996 C1995 1.383 . S
C1996 C1997 1.394 . S
C1997 H1987 0.929 . S
C1997 C1993 1.377 . S
C1997 C1996 1.394 . S
H1998 C2005 0.929 . S
H1999 C2008 0.930 . S
H2000 C2010 0.929 . S
H2001 C2002 0.969 . S
C2002 H2001 0.969 . S
C2002 O2003 1.550 . S
C2002 H2004 0.973 . S
O2003 C2002 1.550 . S
O2003 C2009 1.412 . S
H2004 C2002 0.973 . S
C2005 H1998 0.929 . S
C2005 C2006 1.400 . S
C2005 C2007 1.364 . S
C2006 C2005 1.400 . S
C2006 C2010 1.377 . S
C2007 C2005 1.364 . S
C2007 C2008 1.374 . S
C2008 H1999 0.930 . S
C2008 C2007 1.374 . S
C2008 C2009 1.383 . S
C2009 O2003 1.412 . S
C2009 C2008 1.383 . S
C2009 C2010 1.394 . S
C2010 H2000 0.929 . S
C2010 C2006 1.377 . S
C2010 C2009 1.394 . S
H2011 C2018 0.929 . S
H2012 C2021 0.930 . S
H2013 C2023 0.929 . S
H2014 C2015 0.969 . S
C2015 H2014 0.969 . S
C2015 O2016 1.550 . S
C2015 H2017 0.973 . S
O2016 C2015 1.550 . S
O2016 C2022 1.412 . S
H2017 C2015 0.973 . S
C2018 H2011 0.929 . S
C2018 C2019 1.400 . S
C2018 C2020 1.364 . S
C2019 C2018 1.400 . S
C2019 C2023 1.377 . S
C2020 C2018 1.364 . S
C2020 C2021 1.374 . S
C2021 H2012 0.930 . S
C2021 C2020 1.374 . S
C2021 C2022 1.383 . S
C2022 O2016 1.412 . S
C2022 C2021 1.383 . S
C2022 C2023 1.394 . S
C2023 H2013 0.929 . S
C2023 C2019 1.377 . S
C2023 C2022 1.394 . S
H2024 C2031 0.929 . S
H2025 C2034 0.930 . S
H2026 C2036 0.929 . S
H2027 C2028 0.969 . S
C2028 H2027 0.969 . S
C2028 O2029 1.550 . S
C2028 H2030 0.973 . S
O2029 C2028 1.550 . S
O2029 C2035 1.412 . S
H2030 C2028 0.973 . S
C2031 H2024 0.929 . S
C2031 C2032 1.400 . S
C2031 C2033 1.364 . S
C2032 C2031 1.400 . S
C2032 C2036 1.377 . S
C2033 C2031 1.364 . S
C2033 C2034 1.374 . S
C2034 H2025 0.930 . S
C2034 C2033 1.374 . S
C2034 C2035 1.383 . S
C2035 O2029 1.412 . S
C2035 C2034 1.383 . S
C2035 C2036 1.394 . S
C2036 H2026 0.929 . S
C2036 C2032 1.377 . S
C2036 C2035 1.394 . S
H2037 C2044 0.929 . S
H2038 C2047 0.930 . S
H2039 C2049 0.929 . S
H2040 C2041 0.969 . S
C2041 H2040 0.969 . S
C2041 O2042 1.550 . S
C2041 H2043 0.973 . S
O2042 C2041 1.550 . S
O2042 C2048 1.412 . S
H2043 C2041 0.973 . S
C2044 H2037 0.929 . S
C2044 C2045 1.400 . S
C2044 C2046 1.364 . S
C2045 C2044 1.400 . S
C2045 C2049 1.377 . S
C2046 C2044 1.364 . S
C2046 C2047 1.374 . S
C2047 H2038 0.930 . S
C2047 C2046 1.374 . S
C2047 C2048 1.383 . S
C2048 O2042 1.412 . S
C2048 C2047 1.383 . S
C2048 C2049 1.394 . S
C2049 H2039 0.929 . S
C2049 C2045 1.377 . S
C2049 C2048 1.394 . S
H2050 C2057 0.929 . S
H2051 C2060 0.930 . S
H2052 C2062 0.929 . S
H2053 C2054 0.969 . S
C2054 H2053 0.969 . S
C2054 O2055 1.550 . S
C2054 H2056 0.973 . S
O2055 C2054 1.550 . S
O2055 C2061 1.412 . S
H2056 C2054 0.973 . S
C2057 H2050 0.929 . S
C2057 C2058 1.400 . S
C2057 C2059 1.364 . S
C2058 C2057 1.400 . S
C2058 C2062 1.377 . S
C2059 C2057 1.364 . S
C2059 C2060 1.374 . S
C2060 H2051 0.930 . S
C2060 C2059 1.374 . S
C2060 C2061 1.383 . S
C2061 O2055 1.412 . S
C2061 C2060 1.383 . S
C2061 C2062 1.394 . S
C2062 H2052 0.929 . S
C2062 C2058 1.377 . S
C2062 C2061 1.394 . S
H2063 C2070 0.929 . S
H2064 C2073 0.930 . S
H2065 C2075 0.929 . S
H2066 C2067 0.969 . S
C2067 H2066 0.969 . S
C2067 O2068 1.550 . S
C2067 H2069 0.973 . S
O2068 C2067 1.550 . S
O2068 C2074 1.412 . S
H2069 C2067 0.973 . S
C2070 H2063 0.929 . S
C2070 C2071 1.400 . S
C2070 C2072 1.364 . S
C2071 C2070 1.400 . S
C2071 C2075 1.377 . S
C2072 C2070 1.364 . S
C2072 C2073 1.374 . S
C2073 H2064 0.930 . S
C2073 C2072 1.374 . S
C2073 C2074 1.383 . S
C2074 O2068 1.412 . S
C2074 C2073 1.383 . S
C2074 C2075 1.394 . S
C2075 H2065 0.929 . S
C2075 C2071 1.377 . S
C2075 C2074 1.394 . S
H2076 C2083 0.929 . S
H2077 C2086 0.930 . S
H2078 C2088 0.929 . S
H2079 C2080 0.969 . S
C2080 H2079 0.969 . S
C2080 O2081 1.550 . S
C2080 H2082 0.973 . S
O2081 C2080 1.550 . S
O2081 C2087 1.412 . S
H2082 C2080 0.973 . S
C2083 H2076 0.929 . S
C2083 C2084 1.400 . S
C2083 C2085 1.364 . S
C2084 C2083 1.400 . S
C2084 C2088 1.377 . S
C2085 C2083 1.364 . S
C2085 C2086 1.374 . S
C2086 H2077 0.930 . S
C2086 C2085 1.374 . S
C2086 C2087 1.383 . S
C2087 O2081 1.412 . S
C2087 C2086 1.383 . S
C2087 C2088 1.394 . S
C2088 H2078 0.929 . S
C2088 C2084 1.377 . S
C2088 C2087 1.394 . S
H2089 C2096 0.929 . S
H2090 C2099 0.930 . S
H2091 C2101 0.929 . S
H2092 C2093 0.969 . S
C2093 H2092 0.969 . S
C2093 O2094 1.550 . S
C2093 H2095 0.973 . S
O2094 C2093 1.550 . S
O2094 C2100 1.412 . S
H2095 C2093 0.973 . S
C2096 H2089 0.929 . S
C2096 C2097 1.400 . S
C2096 C2098 1.364 . S
C2097 C2096 1.400 . S
C2097 C2101 1.377 . S
C2098 C2096 1.364 . S
C2098 C2099 1.374 . S
C2099 H2090 0.930 . S
C2099 C2098 1.374 . S
C2099 C2100 1.383 . S
C2100 O2094 1.412 . S
C2100 C2099 1.383 . S
C2100 C2101 1.394 . S
C2101 H2091 0.929 . S
C2101 C2097 1.377 . S
C2101 C2100 1.394 . S
H2102 C2109 0.929 . S
H2103 C2112 0.930 . S
H2104 C2114 0.929 . S
H2105 C2106 0.969 . S
C2106 H2105 0.969 . S
C2106 O2107 1.550 . S
C2106 H2108 0.973 . S
O2107 C2106 1.550 . S
O2107 C2113 1.412 . S
H2108 C2106 0.973 . S
C2109 H2102 0.929 . S
C2109 C2110 1.400 . S
C2109 C2111 1.364 . S
C2110 C2109 1.400 . S
C2110 C2114 1.377 . S
C2111 C2109 1.364 . S
C2111 C2112 1.374 . S
C2112 H2103 0.930 . S
C2112 C2111 1.374 . S
C2112 C2113 1.383 . S
C2113 O2107 1.412 . S
C2113 C2112 1.383 . S
C2113 C2114 1.394 . S
C2114 H2104 0.929 . S
C2114 C2110 1.377 . S
C2114 C2113 1.394 . S
H2115 C2122 0.929 . S
H2116 C2125 0.930 . S
H2117 C2127 0.929 . S
H2118 C2119 0.969 . S
C2119 H2118 0.969 . S
C2119 O2120 1.550 . S
C2119 H2121 0.973 . S
O2120 C2119 1.550 . S
O2120 C2126 1.412 . S
H2121 C2119 0.973 . S
C2122 H2115 0.929 . S
C2122 C2123 1.400 . S
C2122 C2124 1.364 . S
C2123 C2122 1.400 . S
C2123 C2127 1.377 . S
C2124 C2122 1.364 . S
C2124 C2125 1.374 . S
C2125 H2116 0.930 . S
C2125 C2124 1.374 . S
C2125 C2126 1.383 . S
C2126 O2120 1.412 . S
C2126 C2125 1.383 . S
C2126 C2127 1.394 . S
C2127 H2117 0.929 . S
C2127 C2123 1.377 . S
C2127 C2126 1.394 . S
H2128 C2135 0.929 . S
H2129 C2138 0.930 . S
H2130 C2140 0.929 . S
H2131 C2132 0.969 . S
C2132 H2131 0.969 . S
C2132 O2133 1.550 . S
C2132 H2134 0.973 . S
O2133 C2132 1.550 . S
O2133 C2139 1.412 . S
H2134 C2132 0.973 . S
C2135 H2128 0.929 . S
C2135 C2136 1.400 . S
C2135 C2137 1.364 . S
C2136 C2135 1.400 . S
C2136 C2140 1.377 . S
C2137 C2135 1.364 . S
C2137 C2138 1.374 . S
C2138 H2129 0.930 . S
C2138 C2137 1.374 . S
C2138 C2139 1.383 . S
C2139 O2133 1.412 . S
C2139 C2138 1.383 . S
C2139 C2140 1.394 . S
C2140 H2130 0.929 . S
C2140 C2136 1.377 . S
C2140 C2139 1.394 . S
H2141 C2148 0.929 . S
H2142 C2151 0.930 . S
H2143 C2153 0.929 . S
H2144 C2145 0.969 . S
C2145 H2144 0.969 . S
C2145 O2146 1.550 . S
C2145 H2147 0.973 . S
O2146 C2145 1.550 . S
O2146 C2152 1.412 . S
H2147 C2145 0.973 . S
C2148 H2141 0.929 . S
C2148 C2149 1.400 . S
C2148 C2150 1.364 . S
C2149 C2148 1.400 . S
C2149 C2153 1.377 . S
C2150 C2148 1.364 . S
C2150 C2151 1.374 . S
C2151 H2142 0.930 . S
C2151 C2150 1.374 . S
C2151 C2152 1.383 . S
C2152 O2146 1.412 . S
C2152 C2151 1.383 . S
C2152 C2153 1.394 . S
C2153 H2143 0.929 . S
C2153 C2149 1.377 . S
C2153 C2152 1.394 . S
H2154 C2161 0.929 . S
H2155 C2164 0.930 . S
H2156 C2166 0.929 . S
H2157 C2158 0.969 . S
C2158 H2157 0.969 . S
C2158 O2159 1.550 . S
C2158 H2160 0.973 . S
O2159 C2158 1.550 . S
O2159 C2165 1.412 . S
H2160 C2158 0.973 . S
C2161 H2154 0.929 . S
C2161 C2162 1.400 . S
C2161 C2163 1.364 . S
C2162 C2161 1.400 . S
C2162 C2166 1.377 . S
C2163 C2161 1.364 . S
C2163 C2164 1.374 . S
C2164 H2155 0.930 . S
C2164 C2163 1.374 . S
C2164 C2165 1.383 . S
C2165 O2159 1.412 . S
C2165 C2164 1.383 . S
C2165 C2166 1.394 . S
C2166 H2156 0.929 . S
C2166 C2162 1.377 . S
C2166 C2165 1.394 . S
H2167 C2174 0.929 . S
H2168 C2177 0.930 . S
H2169 C2179 0.929 . S
H2170 C2171 0.969 . S
C2171 H2170 0.969 . S
C2171 O2172 1.550 . S
C2171 H2173 0.973 . S
O2172 C2171 1.550 . S
O2172 C2178 1.412 . S
H2173 C2171 0.973 . S
C2174 H2167 0.929 . S
C2174 C2175 1.400 . S
C2174 C2176 1.364 . S
C2175 C2174 1.400 . S
C2175 C2179 1.377 . S
C2176 C2174 1.364 . S
C2176 C2177 1.374 . S
C2177 H2168 0.930 . S
C2177 C2176 1.374 . S
C2177 C2178 1.383 . S
C2178 O2172 1.412 . S
C2178 C2177 1.383 . S
C2178 C2179 1.394 . S
C2179 H2169 0.929 . S
C2179 C2175 1.377 . S
C2179 C2178 1.394 . S
H2180 C2187 0.929 . S
H2181 C2190 0.930 . S
H2182 C2192 0.929 . S
H2183 C2184 0.969 . S
C2184 H2183 0.969 . S
C2184 O2185 1.550 . S
C2184 H2186 0.973 . S
O2185 C2184 1.550 . S
O2185 C2191 1.412 . S
H2186 C2184 0.973 . S
C2187 H2180 0.929 . S
C2187 C2188 1.400 . S
C2187 C2189 1.364 . S
C2188 C2187 1.400 . S
C2188 C2192 1.377 . S
C2189 C2187 1.364 . S
C2189 C2190 1.374 . S
C2190 H2181 0.930 . S
C2190 C2189 1.374 . S
C2190 C2191 1.383 . S
C2191 O2185 1.412 . S
C2191 C2190 1.383 . S
C2191 C2192 1.394 . S
C2192 H2182 0.929 . S
C2192 C2188 1.377 . S
C2192 C2191 1.394 . S
H2193 C2200 0.929 . S
H2194 C2203 0.930 . S
H2195 C2205 0.929 . S
H2196 C2197 0.969 . S
C2197 H2196 0.969 . S
C2197 O2198 1.550 . S
C2197 H2199 0.973 . S
O2198 C2197 1.550 . S
O2198 C2204 1.412 . S
H2199 C2197 0.973 . S
C2200 H2193 0.929 . S
C2200 C2201 1.400 . S
C2200 C2202 1.364 . S
C2201 C2200 1.400 . S
C2201 C2205 1.377 . S
C2202 C2200 1.364 . S
C2202 C2203 1.374 . S
C2203 H2194 0.930 . S
C2203 C2202 1.374 . S
C2203 C2204 1.383 . S
C2204 O2198 1.412 . S
C2204 C2203 1.383 . S
C2204 C2205 1.394 . S
C2205 H2195 0.929 . S
C2205 C2201 1.377 . S
C2205 C2204 1.394 . S
H2206 C2213 0.929 . S
H2207 C2216 0.930 . S
H2208 C2218 0.929 . S
H2209 C2210 0.969 . S
C2210 H2209 0.969 . S
C2210 O2211 1.550 . S
C2210 H2212 0.973 . S
O2211 C2210 1.550 . S
O2211 C2217 1.412 . S
H2212 C2210 0.973 . S
C2213 H2206 0.929 . S
C2213 C2214 1.400 . S
C2213 C2215 1.364 . S
C2214 C2213 1.400 . S
C2214 C2218 1.377 . S
C2215 C2213 1.364 . S
C2215 C2216 1.374 . S
C2216 H2207 0.930 . S
C2216 C2215 1.374 . S
C2216 C2217 1.383 . S
C2217 O2211 1.412 . S
C2217 C2216 1.383 . S
C2217 C2218 1.394 . S
C2218 H2208 0.929 . S
C2218 C2214 1.377 . S
C2218 C2217 1.394 . S
H2219 C2226 0.929 . S
H2220 C2229 0.930 . S
H2221 C2231 0.929 . S
H2222 C2223 0.969 . S
C2223 H2222 0.969 . S
C2223 O2224 1.550 . S
C2223 H2225 0.973 . S
O2224 C2223 1.550 . S
O2224 C2230 1.412 . S
H2225 C2223 0.973 . S
C2226 H2219 0.929 . S
C2226 C2227 1.400 . S
C2226 C2228 1.364 . S
C2227 C2226 1.400 . S
C2227 C2231 1.377 . S
C2228 C2226 1.364 . S
C2228 C2229 1.374 . S
C2229 H2220 0.930 . S
C2229 C2228 1.374 . S
C2229 C2230 1.383 . S
C2230 O2224 1.412 . S
C2230 C2229 1.383 . S
C2230 C2231 1.394 . S
C2231 H2221 0.929 . S
C2231 C2227 1.377 . S
C2231 C2230 1.394 . S
H2232 C2239 0.929 . S
H2233 C2242 0.930 . S
H2234 C2244 0.929 . S
H2235 C2236 0.969 . S
C2236 H2235 0.969 . S
C2236 O2237 1.550 . S
C2236 H2238 0.973 . S
O2237 C2236 1.550 . S
O2237 C2243 1.412 . S
H2238 C2236 0.973 . S
C2239 H2232 0.929 . S
C2239 C2240 1.400 . S
C2239 C2241 1.364 . S
C2240 C2239 1.400 . S
C2240 C2244 1.377 . S
C2241 C2239 1.364 . S
C2241 C2242 1.374 . S
C2242 H2233 0.930 . S
C2242 C2241 1.374 . S
C2242 C2243 1.383 . S
C2243 O2237 1.412 . S
C2243 C2242 1.383 . S
C2243 C2244 1.394 . S
C2244 H2234 0.929 . S
C2244 C2240 1.377 . S
C2244 C2243 1.394 . S
H2245 C2252 0.929 . S
H2246 C2255 0.930 . S
H2247 C2257 0.929 . S
H2248 C2249 0.969 . S
C2249 H2248 0.969 . S
C2249 O2250 1.550 . S
C2249 H2251 0.973 . S
O2250 C2249 1.550 . S
O2250 C2256 1.412 . S
H2251 C2249 0.973 . S
C2252 H2245 0.929 . S
C2252 C2253 1.400 . S
C2252 C2254 1.364 . S
C2253 C2252 1.400 . S
C2253 C2257 1.377 . S
C2254 C2252 1.364 . S
C2254 C2255 1.374 . S
C2255 H2246 0.930 . S
C2255 C2254 1.374 . S
C2255 C2256 1.383 . S
C2256 O2250 1.412 . S
C2256 C2255 1.383 . S
C2256 C2257 1.394 . S
C2257 H2247 0.929 . S
C2257 C2253 1.377 . S
C2257 C2256 1.394 . S
H2258 C2265 0.929 . S
H2259 C2268 0.930 . S
H2260 C2270 0.929 . S
H2261 C2262 0.969 . S
C2262 H2261 0.969 . S
C2262 O2263 1.550 . S
C2262 H2264 0.973 . S
O2263 C2262 1.550 . S
O2263 C2269 1.412 . S
H2264 C2262 0.973 . S
C2265 H2258 0.929 . S
C2265 C2266 1.400 . S
C2265 C2267 1.364 . S
C2266 C2265 1.400 . S
C2266 C2270 1.377 . S
C2267 C2265 1.364 . S
C2267 C2268 1.374 . S
C2268 H2259 0.930 . S
C2268 C2267 1.374 . S
C2268 C2269 1.383 . S
C2269 O2263 1.412 . S
C2269 C2268 1.383 . S
C2269 C2270 1.394 . S
C2270 H2260 0.929 . S
C2270 C2266 1.377 . S
C2270 C2269 1.394 . S
H2271 C2278 0.929 . S
H2272 C2281 0.930 . S
H2273 C2283 0.929 . S
H2274 C2275 0.969 . S
C2275 H2274 0.969 . S
C2275 O2276 1.550 . S
C2275 H2277 0.973 . S
O2276 C2275 1.550 . S
O2276 C2282 1.412 . S
H2277 C2275 0.973 . S
C2278 H2271 0.929 . S
C2278 C2279 1.400 . S
C2278 C2280 1.364 . S
C2279 C2278 1.400 . S
C2279 C2283 1.377 . S
C2280 C2278 1.364 . S
C2280 C2281 1.374 . S
C2281 H2272 0.930 . S
C2281 C2280 1.374 . S
C2281 C2282 1.383 . S
C2282 O2276 1.412 . S
C2282 C2281 1.383 . S
C2282 C2283 1.394 . S
C2283 H2273 0.929 . S
C2283 C2279 1.377 . S
C2283 C2282 1.394 . S
H2284 C2291 0.929 . S
H2285 C2294 0.930 . S
H2286 C2296 0.929 . S
H2287 C2288 0.969 . S
C2288 H2287 0.969 . S
C2288 O2289 1.550 . S
C2288 H2290 0.973 . S
O2289 C2288 1.550 . S
O2289 C2295 1.412 . S
H2290 C2288 0.973 . S
C2291 H2284 0.929 . S
C2291 C2292 1.400 . S
C2291 C2293 1.364 . S
C2292 C2291 1.400 . S
C2292 C2296 1.377 . S
C2293 C2291 1.364 . S
C2293 C2294 1.374 . S
C2294 H2285 0.930 . S
C2294 C2293 1.374 . S
C2294 C2295 1.383 . S
C2295 O2289 1.412 . S
C2295 C2294 1.383 . S
C2295 C2296 1.394 . S
C2296 H2286 0.929 . S
C2296 C2292 1.377 . S
C2296 C2295 1.394 . S
H2297 C2304 0.929 . S
H2298 C2307 0.930 . S
H2299 C2309 0.929 . S
H2300 C2301 0.969 . S
C2301 H2300 0.969 . S
C2301 O2302 1.550 . S
C2301 H2303 0.973 . S
O2302 C2301 1.550 . S
O2302 C2308 1.412 . S
H2303 C2301 0.973 . S
C2304 H2297 0.929 . S
C2304 C2305 1.400 . S
C2304 C2306 1.364 . S
C2305 C2304 1.400 . S
C2305 C2309 1.377 . S
C2306 C2304 1.364 . S
C2306 C2307 1.374 . S
C2307 H2298 0.930 . S
C2307 C2306 1.374 . S
C2307 C2308 1.383 . S
C2308 O2302 1.412 . S
C2308 C2307 1.383 . S
C2308 C2309 1.394 . S
C2309 H2299 0.929 . S
C2309 C2305 1.377 . S
C2309 C2308 1.394 . S
H2310 C2317 0.929 . S
H2311 C2320 0.930 . S
H2312 C2322 0.929 . S
H2313 C2314 0.969 . S
C2314 H2313 0.969 . S
C2314 O2315 1.550 . S
C2314 H2316 0.973 . S
O2315 C2314 1.550 . S
O2315 C2321 1.412 . S
H2316 C2314 0.973 . S
C2317 H2310 0.929 . S
C2317 C2318 1.400 . S
C2317 C2319 1.364 . S
C2318 C2317 1.400 . S
C2318 C2322 1.377 . S
C2319 C2317 1.364 . S
C2319 C2320 1.374 . S
C2320 H2311 0.930 . S
C2320 C2319 1.374 . S
C2320 C2321 1.383 . S
C2321 O2315 1.412 . S
C2321 C2320 1.383 . S
C2321 C2322 1.394 . S
C2322 H2312 0.929 . S
C2322 C2318 1.377 . S
C2322 C2321 1.394 . S
H2323 C2330 0.929 . S
H2324 C2333 0.930 . S
H2325 C2335 0.929 . S
H2326 C2327 0.969 . S
C2327 H2326 0.969 . S
C2327 O2328 1.550 . S
C2327 H2329 0.973 . S
O2328 C2327 1.550 . S
O2328 C2334 1.412 . S
H2329 C2327 0.973 . S
C2330 H2323 0.929 . S
C2330 C2331 1.400 . S
C2330 C2332 1.364 . S
C2331 C2330 1.400 . S
C2331 C2335 1.377 . S
C2332 C2330 1.364 . S
C2332 C2333 1.374 . S
C2333 H2324 0.930 . S
C2333 C2332 1.374 . S
C2333 C2334 1.383 . S
C2334 O2328 1.412 . S
C2334 C2333 1.383 . S
C2334 C2335 1.394 . S
C2335 H2325 0.929 . S
C2335 C2331 1.377 . S
C2335 C2334 1.394 . S
H2336 C2343 0.929 . S
H2337 C2346 0.930 . S
H2338 C2348 0.929 . S
H2339 C2340 0.969 . S
C2340 H2339 0.969 . S
C2340 O2341 1.550 . S
C2340 H2342 0.973 . S
O2341 C2340 1.550 . S
O2341 C2347 1.412 . S
H2342 C2340 0.973 . S
C2343 H2336 0.929 . S
C2343 C2344 1.400 . S
C2343 C2345 1.364 . S
C2344 C2343 1.400 . S
C2344 C2348 1.377 . S
C2345 C2343 1.364 . S
C2345 C2346 1.374 . S
C2346 H2337 0.930 . S
C2346 C2345 1.374 . S
C2346 C2347 1.383 . S
C2347 O2341 1.412 . S
C2347 C2346 1.383 . S
C2347 C2348 1.394 . S
C2348 H2338 0.929 . S
C2348 C2344 1.377 . S
C2348 C2347 1.394 . S
H2349 C2356 0.929 . S
H2350 C2359 0.930 . S
H2351 C2361 0.929 . S
H2352 C2353 0.969 . S
C2353 H2352 0.969 . S
C2353 O2354 1.550 . S
C2353 H2355 0.973 . S
O2354 C2353 1.550 . S
O2354 C2360 1.412 . S
H2355 C2353 0.973 . S
C2356 H2349 0.929 . S
C2356 C2357 1.400 . S
C2356 C2358 1.364 . S
C2357 C2356 1.400 . S
C2357 C2361 1.377 . S
C2358 C2356 1.364 . S
C2358 C2359 1.374 . S
C2359 H2350 0.930 . S
C2359 C2358 1.374 . S
C2359 C2360 1.383 . S
C2360 O2354 1.412 . S
C2360 C2359 1.383 . S
C2360 C2361 1.394 . S
C2361 H2351 0.929 . S
C2361 C2357 1.377 . S
C2361 C2360 1.394 . S
H2362 C2369 0.929 . S
H2363 C2372 0.930 . S
H2364 C2374 0.929 . S
H2365 C2366 0.969 . S
C2366 H2365 0.969 . S
C2366 O2367 1.550 . S
C2366 H2368 0.973 . S
O2367 C2366 1.550 . S
O2367 C2373 1.412 . S
H2368 C2366 0.973 . S
C2369 H2362 0.929 . S
C2369 C2370 1.400 . S
C2369 C2371 1.364 . S
C2370 C2369 1.400 . S
C2370 C2374 1.377 . S
C2371 C2369 1.364 . S
C2371 C2372 1.374 . S
C2372 H2363 0.930 . S
C2372 C2371 1.374 . S
C2372 C2373 1.383 . S
C2373 O2367 1.412 . S
C2373 C2372 1.383 . S
C2373 C2374 1.394 . S
C2374 H2364 0.929 . S
C2374 C2370 1.377 . S
C2374 C2373 1.394 . S
H2375 C2382 0.929 . S
H2376 C2385 0.930 . S
H2377 C2387 0.929 . S
H2378 C2379 0.969 . S
C2379 H2378 0.969 . S
C2379 O2380 1.550 . S
C2379 H2381 0.973 . S
O2380 C2379 1.550 . S
O2380 C2386 1.412 . S
H2381 C2379 0.973 . S
C2382 H2375 0.929 . S
C2382 C2383 1.400 . S
C2382 C2384 1.364 . S
C2383 C2382 1.400 . S
C2383 C2387 1.377 . S
C2384 C2382 1.364 . S
C2384 C2385 1.374 . S
C2385 H2376 0.930 . S
C2385 C2384 1.374 . S
C2385 C2386 1.383 . S
C2386 O2380 1.412 . S
C2386 C2385 1.383 . S
C2386 C2387 1.394 . S
C2387 H2377 0.929 . S
C2387 C2383 1.377 . S
C2387 C2386 1.394 . S
H2388 C2395 0.929 . S
H2389 C2398 0.930 . S
H2390 C2400 0.929 . S
H2391 C2392 0.969 . S
C2392 H2391 0.969 . S
C2392 O2393 1.550 . S
C2392 H2394 0.973 . S
O2393 C2392 1.550 . S
O2393 C2399 1.412 . S
H2394 C2392 0.973 . S
C2395 H2388 0.929 . S
C2395 C2396 1.400 . S
C2395 C2397 1.364 . S
C2396 C2395 1.400 . S
C2396 C2400 1.377 . S
C2397 C2395 1.364 . S
C2397 C2398 1.374 . S
C2398 H2389 0.930 . S
C2398 C2397 1.374 . S
C2398 C2399 1.383 . S
C2399 O2393 1.412 . S
C2399 C2398 1.383 . S
C2399 C2400 1.394 . S
C2400 H2390 0.929 . S
C2400 C2396 1.377 . S
C2400 C2399 1.394 . S
H2401 C2408 0.929 . S
H2402 C2411 0.930 . S
H2403 C2413 0.929 . S
H2404 C2405 0.969 . S
C2405 H2404 0.969 . S
C2405 O2406 1.550 . S
C2405 H2407 0.973 . S
O2406 C2405 1.550 . S
O2406 C2412 1.412 . S
H2407 C2405 0.973 . S
C2408 H2401 0.929 . S
C2408 C2409 1.400 . S
C2408 C2410 1.364 . S
C2409 C2408 1.400 . S
C2409 C2413 1.377 . S
C2410 C2408 1.364 . S
C2410 C2411 1.374 . S
C2411 H2402 0.930 . S
C2411 C2410 1.374 . S
C2411 C2412 1.383 . S
C2412 O2406 1.412 . S
C2412 C2411 1.383 . S
C2412 C2413 1.394 . S
C2413 H2403 0.929 . S
C2413 C2409 1.377 . S
C2413 C2412 1.394 . S
H2414 C2421 0.929 . S
H2415 C2424 0.930 . S
H2416 C2426 0.929 . S
H2417 C2418 0.969 . S
C2418 H2417 0.969 . S
C2418 O2419 1.550 . S
C2418 H2420 0.973 . S
O2419 C2418 1.550 . S
O2419 C2425 1.412 . S
H2420 C2418 0.973 . S
C2421 H2414 0.929 . S
C2421 C2422 1.400 . S
C2421 C2423 1.364 . S
C2422 C2421 1.400 . S
C2422 C2426 1.377 . S
C2423 C2421 1.364 . S
C2423 C2424 1.374 . S
C2424 H2415 0.930 . S
C2424 C2423 1.374 . S
C2424 C2425 1.383 . S
C2425 O2419 1.412 . S
C2425 C2424 1.383 . S
C2425 C2426 1.394 . S
C2426 H2416 0.929 . S
C2426 C2422 1.377 . S
C2426 C2425 1.394 . S
H2427 C2434 0.929 . S
H2428 C2437 0.930 . S
H2429 C2439 0.929 . S
H2430 C2431 0.969 . S
C2431 H2430 0.969 . S
C2431 O2432 1.550 . S
C2431 H2433 0.973 . S
O2432 C2431 1.550 . S
O2432 C2438 1.412 . S
H2433 C2431 0.973 . S
C2434 H2427 0.929 . S
C2434 C2435 1.400 . S
C2434 C2436 1.364 . S
C2435 C2434 1.400 . S
C2435 C2439 1.377 . S
C2436 C2434 1.364 . S
C2436 C2437 1.374 . S
C2437 H2428 0.930 . S
C2437 C2436 1.374 . S
C2437 C2438 1.383 . S
C2438 O2432 1.412 . S
C2438 C2437 1.383 . S
C2438 C2439 1.394 . S
C2439 H2429 0.929 . S
C2439 C2435 1.377 . S
C2439 C2438 1.394 . S
H2440 C2447 0.929 . S
H2441 C2450 0.930 . S
H2442 C2452 0.929 . S
H2443 C2444 0.969 . S
C2444 H2443 0.969 . S
C2444 O2445 1.550 . S
C2444 H2446 0.973 . S
O2445 C2444 1.550 . S
O2445 C2451 1.412 . S
H2446 C2444 0.973 . S
C2447 H2440 0.929 . S
C2447 C2448 1.400 . S
C2447 C2449 1.364 . S
C2448 C2447 1.400 . S
C2448 C2452 1.377 . S
C2449 C2447 1.364 . S
C2449 C2450 1.374 . S
C2450 H2441 0.930 . S
C2450 C2449 1.374 . S
C2450 C2451 1.383 . S
C2451 O2445 1.412 . S
C2451 C2450 1.383 . S
C2451 C2452 1.394 . S
C2452 H2442 0.929 . S
C2452 C2448 1.377 . S
C2452 C2451 1.394 . S
H2453 C2460 0.929 . S
H2454 C2463 0.930 . S
H2455 C2465 0.929 . S
H2456 C2457 0.969 . S
C2457 H2456 0.969 . S
C2457 O2458 1.550 . S
C2457 H2459 0.973 . S
O2458 C2457 1.550 . S
O2458 C2464 1.412 . S
H2459 C2457 0.973 . S
C2460 H2453 0.929 . S
C2460 C2461 1.400 . S
C2460 C2462 1.364 . S
C2461 C2460 1.400 . S
C2461 C2465 1.377 . S
C2462 C2460 1.364 . S
C2462 C2463 1.374 . S
C2463 H2454 0.930 . S
C2463 C2462 1.374 . S
C2463 C2464 1.383 . S
C2464 O2458 1.412 . S
C2464 C2463 1.383 . S
C2464 C2465 1.394 . S
C2465 H2455 0.929 . S
C2465 C2461 1.377 . S
C2465 C2464 1.394 . S
H2466 C2473 0.929 . S
H2467 C2476 0.930 . S
H2468 C2478 0.929 . S
H2469 C2470 0.969 . S
C2470 H2469 0.969 . S
C2470 O2471 1.550 . S
C2470 H2472 0.973 . S
O2471 C2470 1.550 . S
O2471 C2477 1.412 . S
H2472 C2470 0.973 . S
C2473 H2466 0.929 . S
C2473 C2474 1.400 . S
C2473 C2475 1.364 . S
C2474 C2473 1.400 . S
C2474 C2478 1.377 . S
C2475 C2473 1.364 . S
C2475 C2476 1.374 . S
C2476 H2467 0.930 . S
C2476 C2475 1.374 . S
C2476 C2477 1.383 . S
C2477 O2471 1.412 . S
C2477 C2476 1.383 . S
C2477 C2478 1.394 . S
C2478 H2468 0.929 . S
C2478 C2474 1.377 . S
C2478 C2477 1.394 . S
H2479 C2486 0.929 . S
H2480 C2489 0.930 . S
H2481 C2491 0.929 . S
H2482 C2483 0.969 . S
C2483 H2482 0.969 . S
C2483 O2484 1.550 . S
C2483 H2485 0.973 . S
O2484 C2483 1.550 . S
O2484 C2490 1.412 . S
H2485 C2483 0.973 . S
C2486 H2479 0.929 . S
C2486 C2487 1.400 . S
C2486 C2488 1.364 . S
C2487 C2486 1.400 . S
C2487 C2491 1.377 . S
C2488 C2486 1.364 . S
C2488 C2489 1.374 . S
C2489 H2480 0.930 . S
C2489 C2488 1.374 . S
C2489 C2490 1.383 . S
C2490 O2484 1.412 . S
C2490 C2489 1.383 . S
C2490 C2491 1.394 . S
C2491 H2481 0.929 . S
C2491 C2487 1.377 . S
C2491 C2490 1.394 . S
H2492 C2499 0.929 . S
H2493 C2502 0.930 . S
H2494 C2504 0.929 . S
H2495 C2496 0.969 . S
C2496 H2495 0.969 . S
C2496 O2497 1.550 . S
C2496 H2498 0.973 . S
O2497 C2496 1.550 . S
O2497 C2503 1.412 . S
H2498 C2496 0.973 . S
C2499 H2492 0.929 . S
C2499 C2500 1.400 . S
C2499 C2501 1.364 . S
C2500 C2499 1.400 . S
C2500 C2504 1.377 . S
C2501 C2499 1.364 . S
C2501 C2502 1.374 . S
C2502 H2493 0.930 . S
C2502 C2501 1.374 . S
C2502 C2503 1.383 . S
C2503 O2497 1.412 . S
C2503 C2502 1.383 . S
C2503 C2504 1.394 . S
C2504 H2494 0.929 . S
C2504 C2500 1.377 . S
C2504 C2503 1.394 . S
H2505 C2512 0.929 . S
H2506 C2515 0.930 . S
H2507 C2517 0.929 . S
H2508 C2509 0.969 . S
C2509 H2508 0.969 . S
C2509 O2510 1.550 . S
C2509 H2511 0.973 . S
O2510 C2509 1.550 . S
O2510 C2516 1.412 . S
H2511 C2509 0.973 . S
C2512 H2505 0.929 . S
C2512 C2513 1.400 . S
C2512 C2514 1.364 . S
C2513 C2512 1.400 . S
C2513 C2517 1.377 . S
C2514 C2512 1.364 . S
C2514 C2515 1.374 . S
C2515 H2506 0.930 . S
C2515 C2514 1.374 . S
C2515 C2516 1.383 . S
C2516 O2510 1.412 . S
C2516 C2515 1.383 . S
C2516 C2517 1.394 . S
C2517 H2507 0.929 . S
C2517 C2513 1.377 . S
C2517 C2516 1.394 . S
H2518 C2525 0.929 . S
H2519 C2528 0.930 . S
H2520 C2530 0.929 . S
H2521 C2522 0.969 . S
C2522 H2521 0.969 . S
C2522 O2523 1.550 . S
C2522 H2524 0.973 . S
O2523 C2522 1.550 . S
O2523 C2529 1.412 . S
H2524 C2522 0.973 . S
C2525 H2518 0.929 . S
C2525 C2526 1.400 . S
C2525 C2527 1.364 . S
C2526 C2525 1.400 . S
C2526 C2530 1.377 . S
C2527 C2525 1.364 . S
C2527 C2528 1.374 . S
C2528 H2519 0.930 . S
C2528 C2527 1.374 . S
C2528 C2529 1.383 . S
C2529 O2523 1.412 . S
C2529 C2528 1.383 . S
C2529 C2530 1.394 . S
C2530 H2520 0.929 . S
C2530 C2526 1.377 . S
C2530 C2529 1.394 . S
H2531 C2538 0.929 . S
H2532 C2541 0.930 . S
H2533 C2543 0.929 . S
H2534 C2535 0.969 . S
C2535 H2534 0.969 . S
C2535 O2536 1.550 . S
C2535 H2537 0.973 . S
O2536 C2535 1.550 . S
O2536 C2542 1.412 . S
H2537 C2535 0.973 . S
C2538 H2531 0.929 . S
C2538 C2539 1.400 . S
C2538 C2540 1.364 . S
C2539 C2538 1.400 . S
C2539 C2543 1.377 . S
C2540 C2538 1.364 . S
C2540 C2541 1.374 . S
C2541 H2532 0.930 . S
C2541 C2540 1.374 . S
C2541 C2542 1.383 . S
C2542 O2536 1.412 . S
C2542 C2541 1.383 . S
C2542 C2543 1.394 . S
C2543 H2533 0.929 . S
C2543 C2539 1.377 . S
C2543 C2542 1.394 . S
C2544 C2545 1.387 . S
C2544 H2548 0.950 . S
C2544 C2553 1.390 . S
C2545 C2544 1.387 . S
C2545 C2547 1.387 . S
H2546 C2553 0.950 . S
C2547 C2545 1.387 . S
C2547 C2549 1.390 . S
C2547 H2551 0.950 . S
H2548 C2544 0.950 . S
C2549 C2547 1.390 . S
C2549 C2550 1.387 . S
C2549 H2552 0.950 . S
C2550 C2549 1.387 . S
C2550 C2553 1.387 . S
H2551 C2547 0.950 . S
H2552 C2549 0.950 . S
C2553 C2544 1.390 . S
C2553 H2546 0.950 . S
C2553 C2550 1.387 . S
C2554 C2555 1.387 . S
C2554 H2558 0.950 . S
C2554 C2563 1.390 . S
C2555 C2554 1.387 . S
C2555 C2557 1.387 . S
H2556 C2563 0.950 . S
C2557 C2555 1.387 . S
C2557 C2559 1.390 . S
C2557 H2561 0.950 . S
H2558 C2554 0.950 . S
C2559 C2557 1.390 . S
C2559 C2560 1.387 . S
C2559 H2562 0.950 . S
C2560 C2559 1.387 . S
C2560 C2563 1.387 . S
H2561 C2557 0.950 . S
H2562 C2559 0.950 . S
C2563 C2554 1.390 . S
C2563 H2556 0.950 . S
C2563 C2560 1.387 . S
C2564 C2565 1.387 . S
C2564 H2568 0.950 . S
C2564 C2573 1.390 . S
C2565 C2564 1.387 . S
C2565 C2567 1.387 . S
H2566 C2573 0.950 . S
C2567 C2565 1.387 . S
C2567 C2569 1.390 . S
C2567 H2571 0.950 . S
H2568 C2564 0.950 . S
C2569 C2567 1.390 . S
C2569 C2570 1.387 . S
C2569 H2572 0.950 . S
C2570 C2569 1.387 . S
C2570 C2573 1.387 . S
H2571 C2567 0.950 . S
H2572 C2569 0.950 . S
C2573 C2564 1.390 . S
C2573 H2566 0.950 . S
C2573 C2570 1.387 . S
C2574 C2575 1.387 . S
C2574 H2578 0.950 . S
C2574 C2583 1.390 . S
C2575 C2574 1.387 . S
C2575 C2577 1.387 . S
H2576 C2583 0.950 . S
C2577 C2575 1.387 . S
C2577 C2579 1.390 . S
C2577 H2581 0.950 . S
H2578 C2574 0.950 . S
C2579 C2577 1.390 . S
C2579 C2580 1.387 . S
C2579 H2582 0.950 . S
C2580 C2579 1.387 . S
C2580 C2583 1.387 . S
H2581 C2577 0.950 . S
H2582 C2579 0.950 . S
C2583 C2574 1.390 . S
C2583 H2576 0.950 . S
C2583 C2580 1.387 . S
C2584 C2585 1.387 . S
C2584 H2588 0.950 . S
C2584 C2593 1.390 . S
C2585 C2584 1.387 . S
C2585 C2587 1.387 . S
H2586 C2593 0.950 . S
C2587 C2585 1.387 . S
C2587 C2589 1.390 . S
C2587 H2591 0.950 . S
H2588 C2584 0.950 . S
C2589 C2587 1.390 . S
C2589 C2590 1.387 . S
C2589 H2592 0.950 . S
C2590 C2589 1.387 . S
C2590 C2593 1.387 . S
H2591 C2587 0.950 . S
H2592 C2589 0.950 . S
C2593 C2584 1.390 . S
C2593 H2586 0.950 . S
C2593 C2590 1.387 . S
C2594 C2595 1.387 . S
C2594 H2598 0.950 . S
C2594 C2603 1.390 . S
C2595 C2594 1.387 . S
C2595 C2597 1.387 . S
H2596 C2603 0.950 . S
C2597 C2595 1.387 . S
C2597 C2599 1.390 . S
C2597 H2601 0.950 . S
H2598 C2594 0.950 . S
C2599 C2597 1.390 . S
C2599 C2600 1.387 . S
C2599 H2602 0.950 . S
C2600 C2599 1.387 . S
C2600 C2603 1.387 . S
H2601 C2597 0.950 . S
H2602 C2599 0.950 . S
C2603 C2594 1.390 . S
C2603 H2596 0.950 . S
C2603 C2600 1.387 . S
C2604 C2605 1.387 . S
C2604 H2608 0.950 . S
C2604 C2613 1.390 . S
C2605 C2604 1.387 . S
C2605 C2607 1.387 . S
H2606 C2613 0.950 . S
C2607 C2605 1.387 . S
C2607 C2609 1.390 . S
C2607 H2611 0.950 . S
H2608 C2604 0.950 . S
C2609 C2607 1.390 . S
C2609 C2610 1.387 . S
C2609 H2612 0.950 . S
C2610 C2609 1.387 . S
C2610 C2613 1.387 . S
H2611 C2607 0.950 . S
H2612 C2609 0.950 . S
C2613 C2604 1.390 . S
C2613 H2606 0.950 . S
C2613 C2610 1.387 . S
C2614 C2615 1.387 . S
C2614 H2618 0.950 . S
C2614 C2623 1.390 . S
C2615 C2614 1.387 . S
C2615 C2617 1.387 . S
H2616 C2623 0.950 . S
C2617 C2615 1.387 . S
C2617 C2619 1.390 . S
C2617 H2621 0.950 . S
H2618 C2614 0.950 . S
C2619 C2617 1.390 . S
C2619 C2620 1.387 . S
C2619 H2622 0.950 . S
C2620 C2619 1.387 . S
C2620 C2623 1.387 . S
H2621 C2617 0.950 . S
H2622 C2619 0.950 . S
C2623 C2614 1.390 . S
C2623 H2616 0.950 . S
C2623 C2620 1.387 . S
C2624 C2625 1.387 . S
C2624 H2628 0.950 . S
C2624 C2633 1.390 . S
C2625 C2624 1.387 . S
C2625 C2627 1.387 . S
H2626 C2633 0.950 . S
C2627 C2625 1.387 . S
C2627 C2629 1.390 . S
C2627 H2631 0.950 . S
H2628 C2624 0.950 . S
C2629 C2627 1.390 . S
C2629 C2630 1.387 . S
C2629 H2632 0.950 . S
C2630 C2629 1.387 . S
C2630 C2633 1.387 . S
H2631 C2627 0.950 . S
H2632 C2629 0.950 . S
C2633 C2624 1.390 . S
C2633 H2626 0.950 . S
C2633 C2630 1.387 . S
C2634 C2635 1.387 . S
C2634 H2638 0.950 . S
C2634 C2643 1.390 . S
C2635 C2634 1.387 . S
C2635 C2637 1.387 . S
H2636 C2643 0.950 . S
C2637 C2635 1.387 . S
C2637 C2639 1.390 . S
C2637 H2641 0.950 . S
H2638 C2634 0.950 . S
C2639 C2637 1.390 . S
C2639 C2640 1.387 . S
C2639 H2642 0.950 . S
C2640 C2639 1.387 . S
C2640 C2643 1.387 . S
H2641 C2637 0.950 . S
H2642 C2639 0.950 . S
C2643 C2634 1.390 . S
C2643 H2636 0.950 . S
C2643 C2640 1.387 . S
C2644 C2645 1.387 . S
C2644 H2648 0.950 . S
C2644 C2653 1.390 . S
C2645 C2644 1.387 . S
C2645 C2647 1.387 . S
H2646 C2653 0.950 . S
C2647 C2645 1.387 . S
C2647 C2649 1.390 . S
C2647 H2651 0.950 . S
H2648 C2644 0.950 . S
C2649 C2647 1.390 . S
C2649 C2650 1.387 . S
C2649 H2652 0.950 . S
C2650 C2649 1.387 . S
C2650 C2653 1.387 . S
H2651 C2647 0.950 . S
H2652 C2649 0.950 . S
C2653 C2644 1.390 . S
C2653 H2646 0.950 . S
C2653 C2650 1.387 . S
C2654 C2655 1.387 . S
C2654 H2658 0.950 . S
C2654 C2663 1.390 . S
C2655 C2654 1.387 . S
C2655 C2657 1.387 . S
H2656 C2663 0.950 . S
C2657 C2655 1.387 . S
C2657 C2659 1.390 . S
C2657 H2661 0.950 . S
H2658 C2654 0.950 . S
C2659 C2657 1.390 . S
C2659 C2660 1.387 . S
C2659 H2662 0.950 . S
C2660 C2659 1.387 . S
C2660 C2663 1.387 . S
H2661 C2657 0.950 . S
H2662 C2659 0.950 . S
C2663 C2654 1.390 . S
C2663 H2656 0.950 . S
C2663 C2660 1.387 . S
C2664 C2665 1.387 . S
C2664 H2668 0.950 . S
C2664 C2673 1.390 . S
C2665 C2664 1.387 . S
C2665 C2667 1.387 . S
H2666 C2673 0.950 . S
C2667 C2665 1.387 . S
C2667 C2669 1.390 . S
C2667 H2671 0.950 . S
H2668 C2664 0.950 . S
C2669 C2667 1.390 . S
C2669 C2670 1.387 . S
C2669 H2672 0.950 . S
C2670 C2669 1.387 . S
C2670 C2673 1.387 . S
H2671 C2667 0.950 . S
H2672 C2669 0.950 . S
C2673 C2664 1.390 . S
C2673 H2666 0.950 . S
C2673 C2670 1.387 . S
C2674 C2675 1.387 . S
C2674 H2678 0.950 . S
C2674 C2683 1.390 . S
C2675 C2674 1.387 . S
C2675 C2677 1.387 . S
H2676 C2683 0.950 . S
C2677 C2675 1.387 . S
C2677 C2679 1.390 . S
C2677 H2681 0.950 . S
H2678 C2674 0.950 . S
C2679 C2677 1.390 . S
C2679 C2680 1.387 . S
C2679 H2682 0.950 . S
C2680 C2679 1.387 . S
C2680 C2683 1.387 . S
H2681 C2677 0.950 . S
H2682 C2679 0.950 . S
C2683 C2674 1.390 . S
C2683 H2676 0.950 . S
C2683 C2680 1.387 . S
C2684 C2685 1.387 . S
C2684 H2688 0.950 . S
C2684 C2693 1.390 . S
C2685 C2684 1.387 . S
C2685 C2687 1.387 . S
H2686 C2693 0.950 . S
C2687 C2685 1.387 . S
C2687 C2689 1.390 . S
C2687 H2691 0.950 . S
H2688 C2684 0.950 . S
C2689 C2687 1.390 . S
C2689 C2690 1.387 . S
C2689 H2692 0.950 . S
C2690 C2689 1.387 . S
C2690 C2693 1.387 . S
H2691 C2687 0.950 . S
H2692 C2689 0.950 . S
C2693 C2684 1.390 . S
C2693 H2686 0.950 . S
C2693 C2690 1.387 . S
C2694 C2695 1.387 . S
C2694 H2698 0.950 . S
C2694 C2703 1.390 . S
C2695 C2694 1.387 . S
C2695 C2697 1.387 . S
H2696 C2703 0.950 . S
C2697 C2695 1.387 . S
C2697 C2699 1.390 . S
C2697 H2701 0.950 . S
H2698 C2694 0.950 . S
C2699 C2697 1.390 . S
C2699 C2700 1.387 . S
C2699 H2702 0.950 . S
C2700 C2699 1.387 . S
C2700 C2703 1.387 . S
H2701 C2697 0.950 . S
H2702 C2699 0.950 . S
C2703 C2694 1.390 . S
C2703 H2696 0.950 . S
C2703 C2700 1.387 . S
C2704 C2705 1.387 . S
C2704 H2708 0.950 . S
C2704 C2713 1.390 . S
C2705 C2704 1.387 . S
C2705 C2707 1.387 . S
H2706 C2713 0.950 . S
C2707 C2705 1.387 . S
C2707 C2709 1.390 . S
C2707 H2711 0.950 . S
H2708 C2704 0.950 . S
C2709 C2707 1.390 . S
C2709 C2710 1.387 . S
C2709 H2712 0.950 . S
C2710 C2709 1.387 . S
C2710 C2713 1.387 . S
H2711 C2707 0.950 . S
H2712 C2709 0.950 . S
C2713 C2704 1.390 . S
C2713 H2706 0.950 . S
C2713 C2710 1.387 . S
C2714 C2715 1.387 . S
C2714 H2718 0.950 . S
C2714 C2723 1.390 . S
C2715 C2714 1.387 . S
C2715 C2717 1.387 . S
H2716 C2723 0.950 . S
C2717 C2715 1.387 . S
C2717 C2719 1.390 . S
C2717 H2721 0.950 . S
H2718 C2714 0.950 . S
C2719 C2717 1.390 . S
C2719 C2720 1.387 . S
C2719 H2722 0.950 . S
C2720 C2719 1.387 . S
C2720 C2723 1.387 . S
H2721 C2717 0.950 . S
H2722 C2719 0.950 . S
C2723 C2714 1.390 . S
C2723 H2716 0.950 . S
C2723 C2720 1.387 . S
C2724 C2725 1.387 . S
C2724 H2728 0.950 . S
C2724 C2733 1.390 . S
C2725 C2724 1.387 . S
C2725 C2727 1.387 . S
H2726 C2733 0.950 . S
C2727 C2725 1.387 . S
C2727 C2729 1.390 . S
C2727 H2731 0.950 . S
H2728 C2724 0.950 . S
C2729 C2727 1.390 . S
C2729 C2730 1.387 . S
C2729 H2732 0.950 . S
C2730 C2729 1.387 . S
C2730 C2733 1.387 . S
H2731 C2727 0.950 . S
H2732 C2729 0.950 . S
C2733 C2724 1.390 . S
C2733 H2726 0.950 . S
C2733 C2730 1.387 . S
C2734 C2735 1.387 . S
C2734 H2738 0.950 . S
C2734 C2743 1.390 . S
C2735 C2734 1.387 . S
C2735 C2737 1.387 . S
H2736 C2743 0.950 . S
C2737 C2735 1.387 . S
C2737 C2739 1.390 . S
C2737 H2741 0.950 . S
H2738 C2734 0.950 . S
C2739 C2737 1.390 . S
C2739 C2740 1.387 . S
C2739 H2742 0.950 . S
C2740 C2739 1.387 . S
C2740 C2743 1.387 . S
H2741 C2737 0.950 . S
H2742 C2739 0.950 . S
C2743 C2734 1.390 . S
C2743 H2736 0.950 . S
C2743 C2740 1.387 . S
C2744 C2745 1.387 . S
C2744 H2748 0.950 . S
C2744 C2753 1.390 . S
C2745 C2744 1.387 . S
C2745 C2747 1.387 . S
H2746 C2753 0.950 . S
C2747 C2745 1.387 . S
C2747 C2749 1.390 . S
C2747 H2751 0.950 . S
H2748 C2744 0.950 . S
C2749 C2747 1.390 . S
C2749 C2750 1.387 . S
C2749 H2752 0.950 . S
C2750 C2749 1.387 . S
C2750 C2753 1.387 . S
H2751 C2747 0.950 . S
H2752 C2749 0.950 . S
C2753 C2744 1.390 . S
C2753 H2746 0.950 . S
C2753 C2750 1.387 . S
C2754 C2755 1.387 . S
C2754 H2758 0.950 . S
C2754 C2763 1.390 . S
C2755 C2754 1.387 . S
C2755 C2757 1.387 . S
H2756 C2763 0.950 . S
C2757 C2755 1.387 . S
C2757 C2759 1.390 . S
C2757 H2761 0.950 . S
H2758 C2754 0.950 . S
C2759 C2757 1.390 . S
C2759 C2760 1.387 . S
C2759 H2762 0.950 . S
C2760 C2759 1.387 . S
C2760 C2763 1.387 . S
H2761 C2757 0.950 . S
H2762 C2759 0.950 . S
C2763 C2754 1.390 . S
C2763 H2756 0.950 . S
C2763 C2760 1.387 . S
C2764 C2765 1.387 . S
C2764 H2768 0.950 . S
C2764 C2773 1.390 . S
C2765 C2764 1.387 . S
C2765 C2767 1.387 . S
H2766 C2773 0.950 . S
C2767 C2765 1.387 . S
C2767 C2769 1.390 . S
C2767 H2771 0.950 . S
H2768 C2764 0.950 . S
C2769 C2767 1.390 . S
C2769 C2770 1.387 . S
C2769 H2772 0.950 . S
C2770 C2769 1.387 . S
C2770 C2773 1.387 . S
H2771 C2767 0.950 . S
H2772 C2769 0.950 . S
C2773 C2764 1.390 . S
C2773 H2766 0.950 . S
C2773 C2770 1.387 . S
C2774 C2775 1.387 . S
C2774 H2778 0.950 . S
C2774 C2783 1.390 . S
C2775 C2774 1.387 . S
C2775 C2777 1.387 . S
H2776 C2783 0.950 . S
C2777 C2775 1.387 . S
C2777 C2779 1.390 . S
C2777 H2781 0.950 . S
H2778 C2774 0.950 . S
C2779 C2777 1.390 . S
C2779 C2780 1.387 . S
C2779 H2782 0.950 . S
C2780 C2779 1.387 . S
C2780 C2783 1.387 . S
H2781 C2777 0.950 . S
H2782 C2779 0.950 . S
C2783 C2774 1.390 . S
C2783 H2776 0.950 . S
C2783 C2780 1.387 . S
C2784 C2785 1.387 . S
C2784 H2788 0.950 . S
C2784 C2793 1.390 . S
C2785 C2784 1.387 . S
C2785 C2787 1.387 . S
H2786 C2793 0.950 . S
C2787 C2785 1.387 . S
C2787 C2789 1.390 . S
C2787 H2791 0.950 . S
H2788 C2784 0.950 . S
C2789 C2787 1.390 . S
C2789 C2790 1.387 . S
C2789 H2792 0.950 . S
C2790 C2789 1.387 . S
C2790 C2793 1.387 . S
H2791 C2787 0.950 . S
H2792 C2789 0.950 . S
C2793 C2784 1.390 . S
C2793 H2786 0.950 . S
C2793 C2790 1.387 . S
C2794 C2795 1.387 . S
C2794 H2798 0.950 . S
C2794 C2803 1.390 . S
C2795 C2794 1.387 . S
C2795 C2797 1.387 . S
H2796 C2803 0.950 . S
C2797 C2795 1.387 . S
C2797 C2799 1.390 . S
C2797 H2801 0.950 . S
H2798 C2794 0.950 . S
C2799 C2797 1.390 . S
C2799 C2800 1.387 . S
C2799 H2802 0.950 . S
C2800 C2799 1.387 . S
C2800 C2803 1.387 . S
H2801 C2797 0.950 . S
H2802 C2799 0.950 . S
C2803 C2794 1.390 . S
C2803 H2796 0.950 . S
C2803 C2800 1.387 . S
C2804 C2805 1.387 . S
C2804 H2808 0.950 . S
C2804 C2813 1.390 . S
C2805 C2804 1.387 . S
C2805 C2807 1.387 . S
H2806 C2813 0.950 . S
C2807 C2805 1.387 . S
C2807 C2809 1.390 . S
C2807 H2811 0.950 . S
H2808 C2804 0.950 . S
C2809 C2807 1.390 . S
C2809 C2810 1.387 . S
C2809 H2812 0.950 . S
C2810 C2809 1.387 . S
C2810 C2813 1.387 . S
H2811 C2807 0.950 . S
H2812 C2809 0.950 . S
C2813 C2804 1.390 . S
C2813 H2806 0.950 . S
C2813 C2810 1.387 . S
C2814 C2815 1.387 . S
C2814 H2818 0.950 . S
C2814 C2823 1.390 . S
C2815 C2814 1.387 . S
C2815 C2817 1.387 . S
H2816 C2823 0.950 . S
C2817 C2815 1.387 . S
C2817 C2819 1.390 . S
C2817 H2821 0.950 . S
H2818 C2814 0.950 . S
C2819 C2817 1.390 . S
C2819 C2820 1.387 . S
C2819 H2822 0.950 . S
C2820 C2819 1.387 . S
C2820 C2823 1.387 . S
H2821 C2817 0.950 . S
H2822 C2819 0.950 . S
C2823 C2814 1.390 . S
C2823 H2816 0.950 . S
C2823 C2820 1.387 . S
C2824 C2825 1.387 . S
C2824 H2828 0.950 . S
C2824 C2833 1.390 . S
C2825 C2824 1.387 . S
C2825 C2827 1.387 . S
H2826 C2833 0.950 . S
C2827 C2825 1.387 . S
C2827 C2829 1.390 . S
C2827 H2831 0.950 . S
H2828 C2824 0.950 . S
C2829 C2827 1.390 . S
C2829 C2830 1.387 . S
C2829 H2832 0.950 . S
C2830 C2829 1.387 . S
C2830 C2833 1.387 . S
H2831 C2827 0.950 . S
H2832 C2829 0.950 . S
C2833 C2824 1.390 . S
C2833 H2826 0.950 . S
C2833 C2830 1.387 . S
C2834 C2835 1.387 . S
C2834 H2838 0.950 . S
C2834 C2843 1.390 . S
C2835 C2834 1.387 . S
C2835 C2837 1.387 . S
H2836 C2843 0.950 . S
C2837 C2835 1.387 . S
C2837 C2839 1.390 . S
C2837 H2841 0.950 . S
H2838 C2834 0.950 . S
C2839 C2837 1.390 . S
C2839 C2840 1.387 . S
C2839 H2842 0.950 . S
C2840 C2839 1.387 . S
C2840 C2843 1.387 . S
H2841 C2837 0.950 . S
H2842 C2839 0.950 . S
C2843 C2834 1.390 . S
C2843 H2836 0.950 . S
C2843 C2840 1.387 . S
C2844 C2845 1.387 . S
C2844 H2848 0.950 . S
C2844 C2853 1.390 . S
C2845 C2844 1.387 . S
C2845 C2847 1.387 . S
H2846 C2853 0.950 . S
C2847 C2845 1.387 . S
C2847 C2849 1.390 . S
C2847 H2851 0.950 . S
H2848 C2844 0.950 . S
C2849 C2847 1.390 . S
C2849 C2850 1.387 . S
C2849 H2852 0.950 . S
C2850 C2849 1.387 . S
C2850 C2853 1.387 . S
H2851 C2847 0.950 . S
H2852 C2849 0.950 . S
C2853 C2844 1.390 . S
C2853 H2846 0.950 . S
C2853 C2850 1.387 . S
C2854 C2855 1.387 . S
C2854 H2858 0.950 . S
C2854 C2863 1.390 . S
C2855 C2854 1.387 . S
C2855 C2857 1.387 . S
H2856 C2863 0.950 . S
C2857 C2855 1.387 . S
C2857 C2859 1.390 . S
C2857 H2861 0.950 . S
H2858 C2854 0.950 . S
C2859 C2857 1.390 . S
C2859 C2860 1.387 . S
C2859 H2862 0.950 . S
C2860 C2859 1.387 . S
C2860 C2863 1.387 . S
H2861 C2857 0.950 . S
H2862 C2859 0.950 . S
C2863 C2854 1.390 . S
C2863 H2856 0.950 . S
C2863 C2860 1.387 . S
C2864 C2865 1.387 . S
C2864 H2868 0.950 . S
C2864 C2873 1.390 . S
C2865 C2864 1.387 . S
C2865 C2867 1.387 . S
H2866 C2873 0.950 . S
C2867 C2865 1.387 . S
C2867 C2869 1.390 . S
C2867 H2871 0.950 . S
H2868 C2864 0.950 . S
C2869 C2867 1.390 . S
C2869 C2870 1.387 . S
C2869 H2872 0.950 . S
C2870 C2869 1.387 . S
C2870 C2873 1.387 . S
H2871 C2867 0.950 . S
H2872 C2869 0.950 . S
C2873 C2864 1.390 . S
C2873 H2866 0.950 . S
C2873 C2870 1.387 . S
C2874 C2875 1.387 . S
C2874 H2878 0.950 . S
C2874 C2883 1.390 . S
C2875 C2874 1.387 . S
C2875 C2877 1.387 . S
H2876 C2883 0.950 . S
C2877 C2875 1.387 . S
C2877 C2879 1.390 . S
C2877 H2881 0.950 . S
H2878 C2874 0.950 . S
C2879 C2877 1.390 . S
C2879 C2880 1.387 . S
C2879 H2882 0.950 . S
C2880 C2879 1.387 . S
C2880 C2883 1.387 . S
H2881 C2877 0.950 . S
H2882 C2879 0.950 . S
C2883 C2874 1.390 . S
C2883 H2876 0.950 . S
C2883 C2880 1.387 . S
C2884 C2885 1.387 . S
C2884 H2888 0.950 . S
C2884 C2893 1.390 . S
C2885 C2884 1.387 . S
C2885 C2887 1.387 . S
H2886 C2893 0.950 . S
C2887 C2885 1.387 . S
C2887 C2889 1.390 . S
C2887 H2891 0.950 . S
H2888 C2884 0.950 . S
C2889 C2887 1.390 . S
C2889 C2890 1.387 . S
C2889 H2892 0.950 . S
C2890 C2889 1.387 . S
C2890 C2893 1.387 . S
H2891 C2887 0.950 . S
H2892 C2889 0.950 . S
C2893 C2884 1.390 . S
C2893 H2886 0.950 . S
C2893 C2890 1.387 . S
C2894 C2895 1.387 . S
C2894 H2898 0.950 . S
C2894 C2903 1.390 . S
C2895 C2894 1.387 . S
C2895 C2897 1.387 . S
H2896 C2903 0.950 . S
C2897 C2895 1.387 . S
C2897 C2899 1.390 . S
C2897 H2901 0.950 . S
H2898 C2894 0.950 . S
C2899 C2897 1.390 . S
C2899 C2900 1.387 . S
C2899 H2902 0.950 . S
C2900 C2899 1.387 . S
C2900 C2903 1.387 . S
H2901 C2897 0.950 . S
H2902 C2899 0.950 . S
C2903 C2894 1.390 . S
C2903 H2896 0.950 . S
C2903 C2900 1.387 . S
C2904 C2905 1.387 . S
C2904 H2908 0.950 . S
C2904 C2913 1.390 . S
C2905 C2904 1.387 . S
C2905 C2907 1.387 . S
H2906 C2913 0.950 . S
C2907 C2905 1.387 . S
C2907 C2909 1.390 . S
C2907 H2911 0.950 . S
H2908 C2904 0.950 . S
C2909 C2907 1.390 . S
C2909 C2910 1.387 . S
C2909 H2912 0.950 . S
C2910 C2909 1.387 . S
C2910 C2913 1.387 . S
H2911 C2907 0.950 . S
H2912 C2909 0.950 . S
C2913 C2904 1.390 . S
C2913 H2906 0.950 . S
C2913 C2910 1.387 . S
C2914 C2915 1.387 . S
C2914 H2918 0.950 . S
C2914 C2923 1.390 . S
C2915 C2914 1.387 . S
C2915 C2917 1.387 . S
H2916 C2923 0.950 . S
C2917 C2915 1.387 . S
C2917 C2919 1.390 . S
C2917 H2921 0.950 . S
H2918 C2914 0.950 . S
C2919 C2917 1.390 . S
C2919 C2920 1.387 . S
C2919 H2922 0.950 . S
C2920 C2919 1.387 . S
C2920 C2923 1.387 . S
H2921 C2917 0.950 . S
H2922 C2919 0.950 . S
C2923 C2914 1.390 . S
C2923 H2916 0.950 . S
C2923 C2920 1.387 . S
C2924 C2925 1.387 . S
C2924 H2928 0.950 . S
C2924 C2933 1.390 . S
C2925 C2924 1.387 . S
C2925 C2927 1.387 . S
H2926 C2933 0.950 . S
C2927 C2925 1.387 . S
C2927 C2929 1.390 . S
C2927 H2931 0.950 . S
H2928 C2924 0.950 . S
C2929 C2927 1.390 . S
C2929 C2930 1.387 . S
C2929 H2932 0.950 . S
C2930 C2929 1.387 . S
C2930 C2933 1.387 . S
H2931 C2927 0.950 . S
H2932 C2929 0.950 . S
C2933 C2924 1.390 . S
C2933 H2926 0.950 . S
C2933 C2930 1.387 . S
C2934 C2935 1.387 . S
C2934 H2938 0.950 . S
C2934 C2943 1.390 . S
C2935 C2934 1.387 . S
C2935 C2937 1.387 . S
H2936 C2943 0.950 . S
C2937 C2935 1.387 . S
C2937 C2939 1.390 . S
C2937 H2941 0.950 . S
H2938 C2934 0.950 . S
C2939 C2937 1.390 . S
C2939 C2940 1.387 . S
C2939 H2942 0.950 . S
C2940 C2939 1.387 . S
C2940 C2943 1.387 . S
H2941 C2937 0.950 . S
H2942 C2939 0.950 . S
C2943 C2934 1.390 . S
C2943 H2936 0.950 . S
C2943 C2940 1.387 . S
C2944 C2945 1.387 . S
C2944 H2948 0.950 . S
C2944 C2953 1.390 . S
C2945 C2944 1.387 . S
C2945 C2947 1.387 . S
H2946 C2953 0.950 . S
C2947 C2945 1.387 . S
C2947 C2949 1.390 . S
C2947 H2951 0.950 . S
H2948 C2944 0.950 . S
C2949 C2947 1.390 . S
C2949 C2950 1.387 . S
C2949 H2952 0.950 . S
C2950 C2949 1.387 . S
C2950 C2953 1.387 . S
H2951 C2947 0.950 . S
H2952 C2949 0.950 . S
C2953 C2944 1.390 . S
C2953 H2946 0.950 . S
C2953 C2950 1.387 . S
C2954 C2955 1.387 . S
C2954 H2958 0.950 . S
C2954 C2963 1.390 . S
C2955 C2954 1.387 . S
C2955 C2957 1.387 . S
H2956 C2963 0.950 . S
C2957 C2955 1.387 . S
C2957 C2959 1.390 . S
C2957 H2961 0.950 . S
H2958 C2954 0.950 . S
C2959 C2957 1.390 . S
C2959 C2960 1.387 . S
C2959 H2962 0.950 . S
C2960 C2959 1.387 . S
C2960 C2963 1.387 . S
H2961 C2957 0.950 . S
H2962 C2959 0.950 . S
C2963 C2954 1.390 . S
C2963 H2956 0.950 . S
C2963 C2960 1.387 . S
C2964 C2965 1.387 . S
C2964 H2968 0.950 . S
C2964 C2973 1.390 . S
C2965 C2964 1.387 . S
C2965 C2967 1.387 . S
H2966 C2973 0.950 . S
C2967 C2965 1.387 . S
C2967 C2969 1.390 . S
C2967 H2971 0.950 . S
H2968 C2964 0.950 . S
C2969 C2967 1.390 . S
C2969 C2970 1.387 . S
C2969 H2972 0.950 . S
C2970 C2969 1.387 . S
C2970 C2973 1.387 . S
H2971 C2967 0.950 . S
H2972 C2969 0.950 . S
C2973 C2964 1.390 . S
C2973 H2966 0.950 . S
C2973 C2970 1.387 . S
C2974 C2975 1.387 . S
C2974 H2978 0.950 . S
C2974 C2983 1.390 . S
C2975 C2974 1.387 . S
C2975 C2977 1.387 . S
H2976 C2983 0.950 . S
C2977 C2975 1.387 . S
C2977 C2979 1.390 . S
C2977 H2981 0.950 . S
H2978 C2974 0.950 . S
C2979 C2977 1.390 . S
C2979 C2980 1.387 . S
C2979 H2982 0.950 . S
C2980 C2979 1.387 . S
C2980 C2983 1.387 . S
H2981 C2977 0.950 . S
H2982 C2979 0.950 . S
C2983 C2974 1.390 . S
C2983 H2976 0.950 . S
C2983 C2980 1.387 . S
C2984 C2985 1.387 . S
C2984 H2988 0.950 . S
C2984 C2993 1.390 . S
C2985 C2984 1.387 . S
C2985 C2987 1.387 . S
H2986 C2993 0.950 . S
C2987 C2985 1.387 . S
C2987 C2989 1.390 . S
C2987 H2991 0.950 . S
H2988 C2984 0.950 . S
C2989 C2987 1.390 . S
C2989 C2990 1.387 . S
C2989 H2992 0.950 . S
C2990 C2989 1.387 . S
C2990 C2993 1.387 . S
H2991 C2987 0.950 . S
H2992 C2989 0.950 . S
C2993 C2984 1.390 . S
C2993 H2986 0.950 . S
C2993 C2990 1.387 . S
C2994 C2995 1.387 . S
C2994 H2998 0.950 . S
C2994 C3003 1.390 . S
C2995 C2994 1.387 . S
C2995 C2997 1.387 . S
H2996 C3003 0.950 . S
C2997 C2995 1.387 . S
C2997 C2999 1.390 . S
C2997 H3001 0.950 . S
H2998 C2994 0.950 . S
C2999 C2997 1.390 . S
C2999 C3000 1.387 . S
C2999 H3002 0.950 . S
C3000 C2999 1.387 . S
C3000 C3003 1.387 . S
H3001 C2997 0.950 . S
H3002 C2999 0.950 . S
C3003 C2994 1.390 . S
C3003 H2996 0.950 . S
C3003 C3000 1.387 . S
C3004 C3005 1.387 . S
C3004 H3008 0.950 . S
C3004 C3013 1.390 . S
C3005 C3004 1.387 . S
C3005 C3007 1.387 . S
H3006 C3013 0.950 . S
C3007 C3005 1.387 . S
C3007 C3009 1.390 . S
C3007 H3011 0.950 . S
H3008 C3004 0.950 . S
C3009 C3007 1.390 . S
C3009 C3010 1.387 . S
C3009 H3012 0.950 . S
C3010 C3009 1.387 . S
C3010 C3013 1.387 . S
H3011 C3007 0.950 . S
H3012 C3009 0.950 . S
C3013 C3004 1.390 . S
C3013 H3006 0.950 . S
C3013 C3010 1.387 . S
C3014 C3015 1.387 . S
C3014 H3018 0.950 . S
C3014 C3023 1.390 . S
C3015 C3014 1.387 . S
C3015 C3017 1.387 . S
H3016 C3023 0.950 . S
C3017 C3015 1.387 . S
C3017 C3019 1.390 . S
C3017 H3021 0.950 . S
H3018 C3014 0.950 . S
C3019 C3017 1.390 . S
C3019 C3020 1.387 . S
C3019 H3022 0.950 . S
C3020 C3019 1.387 . S
C3020 C3023 1.387 . S
H3021 C3017 0.950 . S
H3022 C3019 0.950 . S
C3023 C3014 1.390 . S
C3023 H3016 0.950 . S
C3023 C3020 1.387 . S
C3024 C3025 1.387 . S
C3024 H3028 0.950 . S
C3024 C3033 1.390 . S
C3025 C3024 1.387 . S
C3025 C3027 1.387 . S
H3026 C3033 0.950 . S
C3027 C3025 1.387 . S
C3027 C3029 1.390 . S
C3027 H3031 0.950 . S
H3028 C3024 0.950 . S
C3029 C3027 1.390 . S
C3029 C3030 1.387 . S
C3029 H3032 0.950 . S
C3030 C3029 1.387 . S
C3030 C3033 1.387 . S
H3031 C3027 0.950 . S
H3032 C3029 0.950 . S
C3033 C3024 1.390 . S
C3033 H3026 0.950 . S
C3033 C3030 1.387 . S
C3034 C3035 1.387 . S
C3034 H3038 0.950 . S
C3034 C3043 1.390 . S
C3035 C3034 1.387 . S
C3035 C3037 1.387 . S
H3036 C3043 0.950 . S
C3037 C3035 1.387 . S
C3037 C3039 1.390 . S
C3037 H3041 0.950 . S
H3038 C3034 0.950 . S
C3039 C3037 1.390 . S
C3039 C3040 1.387 . S
C3039 H3042 0.950 . S
C3040 C3039 1.387 . S
C3040 C3043 1.387 . S
H3041 C3037 0.950 . S
H3042 C3039 0.950 . S
C3043 C3034 1.390 . S
C3043 H3036 0.950 . S
C3043 C3040 1.387 . S
C3044 C3045 1.387 . S
C3044 H3048 0.950 . S
C3044 C3053 1.390 . S
C3045 C3044 1.387 . S
C3045 C3047 1.387 . S
H3046 C3053 0.950 . S
C3047 C3045 1.387 . S
C3047 C3049 1.390 . S
C3047 H3051 0.950 . S
H3048 C3044 0.950 . S
C3049 C3047 1.390 . S
C3049 C3050 1.387 . S
C3049 H3052 0.950 . S
C3050 C3049 1.387 . S
C3050 C3053 1.387 . S
H3051 C3047 0.950 . S
H3052 C3049 0.950 . S
C3053 C3044 1.390 . S
C3053 H3046 0.950 . S
C3053 C3050 1.387 . S
C3054 C3055 1.387 . S
C3054 H3058 0.950 . S
C3054 C3063 1.390 . S
C3055 C3054 1.387 . S
C3055 C3057 1.387 . S
H3056 C3063 0.950 . S
C3057 C3055 1.387 . S
C3057 C3059 1.390 . S
C3057 H3061 0.950 . S
H3058 C3054 0.950 . S
C3059 C3057 1.390 . S
C3059 C3060 1.387 . S
C3059 H3062 0.950 . S
C3060 C3059 1.387 . S
C3060 C3063 1.387 . S
H3061 C3057 0.950 . S
H3062 C3059 0.950 . S
C3063 C3054 1.390 . S
C3063 H3056 0.950 . S
C3063 C3060 1.387 . S
C3064 C3065 1.387 . S
C3064 H3068 0.950 . S
C3064 C3073 1.390 . S
C3065 C3064 1.387 . S
C3065 C3067 1.387 . S
H3066 C3073 0.950 . S
C3067 C3065 1.387 . S
C3067 C3069 1.390 . S
C3067 H3071 0.950 . S
H3068 C3064 0.950 . S
C3069 C3067 1.390 . S
C3069 C3070 1.387 . S
C3069 H3072 0.950 . S
C3070 C3069 1.387 . S
C3070 C3073 1.387 . S
H3071 C3067 0.950 . S
H3072 C3069 0.950 . S
C3073 C3064 1.390 . S
C3073 H3066 0.950 . S
C3073 C3070 1.387 . S
C3074 C3075 1.387 . S
C3074 H3078 0.950 . S
C3074 C3083 1.390 . S
C3075 C3074 1.387 . S
C3075 C3077 1.387 . S
H3076 C3083 0.950 . S
C3077 C3075 1.387 . S
C3077 C3079 1.390 . S
C3077 H3081 0.950 . S
H3078 C3074 0.950 . S
C3079 C3077 1.390 . S
C3079 C3080 1.387 . S
C3079 H3082 0.950 . S
C3080 C3079 1.387 . S
C3080 C3083 1.387 . S
H3081 C3077 0.950 . S
H3082 C3079 0.950 . S
C3083 C3074 1.390 . S
C3083 H3076 0.950 . S
C3083 C3080 1.387 . S
C3084 C3085 1.387 . S
C3084 H3088 0.950 . S
C3084 C3093 1.390 . S
C3085 C3084 1.387 . S
C3085 C3087 1.387 . S
H3086 C3093 0.950 . S
C3087 C3085 1.387 . S
C3087 C3089 1.390 . S
C3087 H3091 0.950 . S
H3088 C3084 0.950 . S
C3089 C3087 1.390 . S
C3089 C3090 1.387 . S
C3089 H3092 0.950 . S
C3090 C3089 1.387 . S
C3090 C3093 1.387 . S
H3091 C3087 0.950 . S
H3092 C3089 0.950 . S
C3093 C3084 1.390 . S
C3093 H3086 0.950 . S
C3093 C3090 1.387 . S
C3094 C3095 1.387 . S
C3094 H3098 0.950 . S
C3094 C3103 1.390 . S
C3095 C3094 1.387 . S
C3095 C3097 1.387 . S
H3096 C3103 0.950 . S
C3097 C3095 1.387 . S
C3097 C3099 1.390 . S
C3097 H3101 0.950 . S
H3098 C3094 0.950 . S
C3099 C3097 1.390 . S
C3099 C3100 1.387 . S
C3099 H3102 0.950 . S
C3100 C3099 1.387 . S
C3100 C3103 1.387 . S
H3101 C3097 0.950 . S
H3102 C3099 0.950 . S
C3103 C3094 1.390 . S
C3103 H3096 0.950 . S
C3103 C3100 1.387 . S
C3104 C3105 1.387 . S
C3104 H3108 0.950 . S
C3104 C3113 1.390 . S
C3105 C3104 1.387 . S
C3105 C3107 1.387 . S
H3106 C3113 0.950 . S
C3107 C3105 1.387 . S
C3107 C3109 1.390 . S
C3107 H3111 0.950 . S
H3108 C3104 0.950 . S
C3109 C3107 1.390 . S
C3109 C3110 1.387 . S
C3109 H3112 0.950 . S
C3110 C3109 1.387 . S
C3110 C3113 1.387 . S
H3111 C3107 0.950 . S
H3112 C3109 0.950 . S
C3113 C3104 1.390 . S
C3113 H3106 0.950 . S
C3113 C3110 1.387 . S
C3114 C3115 1.387 . S
C3114 H3118 0.950 . S
C3114 C3123 1.390 . S
C3115 C3114 1.387 . S
C3115 C3117 1.387 . S
H3116 C3123 0.950 . S
C3117 C3115 1.387 . S
C3117 C3119 1.390 . S
C3117 H3121 0.950 . S
H3118 C3114 0.950 . S
C3119 C3117 1.390 . S
C3119 C3120 1.387 . S
C3119 H3122 0.950 . S
C3120 C3119 1.387 . S
C3120 C3123 1.387 . S
H3121 C3117 0.950 . S
H3122 C3119 0.950 . S
C3123 C3114 1.390 . S
C3123 H3116 0.950 . S
C3123 C3120 1.387 . S
C3124 C3125 1.387 . S
C3124 H3128 0.950 . S
C3124 C3133 1.390 . S
C3125 C3124 1.387 . S
C3125 C3127 1.387 . S
H3126 C3133 0.950 . S
C3127 C3125 1.387 . S
C3127 C3129 1.390 . S
C3127 H3131 0.950 . S
H3128 C3124 0.950 . S
C3129 C3127 1.390 . S
C3129 C3130 1.387 . S
C3129 H3132 0.950 . S
C3130 C3129 1.387 . S
C3130 C3133 1.387 . S
H3131 C3127 0.950 . S
H3132 C3129 0.950 . S
C3133 C3124 1.390 . S
C3133 H3126 0.950 . S
C3133 C3130 1.387 . S
C3134 C3135 1.387 . S
C3134 H3138 0.950 . S
C3134 C3143 1.390 . S
C3135 C3134 1.387 . S
C3135 C3137 1.387 . S
H3136 C3143 0.950 . S
C3137 C3135 1.387 . S
C3137 C3139 1.390 . S
C3137 H3141 0.950 . S
H3138 C3134 0.950 . S
C3139 C3137 1.390 . S
C3139 C3140 1.387 . S
C3139 H3142 0.950 . S
C3140 C3139 1.387 . S
C3140 C3143 1.387 . S
H3141 C3137 0.950 . S
H3142 C3139 0.950 . S
C3143 C3134 1.390 . S
C3143 H3136 0.950 . S
C3143 C3140 1.387 . S
C3144 C3145 1.387 . S
C3144 H3148 0.950 . S
C3144 C3153 1.390 . S
C3145 C3144 1.387 . S
C3145 C3147 1.387 . S
H3146 C3153 0.950 . S
C3147 C3145 1.387 . S
C3147 C3149 1.390 . S
C3147 H3151 0.950 . S
H3148 C3144 0.950 . S
C3149 C3147 1.390 . S
C3149 C3150 1.387 . S
C3149 H3152 0.950 . S
C3150 C3149 1.387 . S
C3150 C3153 1.387 . S
H3151 C3147 0.950 . S
H3152 C3149 0.950 . S
C3153 C3144 1.390 . S
C3153 H3146 0.950 . S
C3153 C3150 1.387 . S
C3154 C3155 1.387 . S
C3154 H3158 0.950 . S
C3154 C3163 1.390 . S
C3155 C3154 1.387 . S
C3155 C3157 1.387 . S
H3156 C3163 0.950 . S
C3157 C3155 1.387 . S
C3157 C3159 1.390 . S
C3157 H3161 0.950 . S
H3158 C3154 0.950 . S
C3159 C3157 1.390 . S
C3159 C3160 1.387 . S
C3159 H3162 0.950 . S
C3160 C3159 1.387 . S
C3160 C3163 1.387 . S
H3161 C3157 0.950 . S
H3162 C3159 0.950 . S
C3163 C3154 1.390 . S
C3163 H3156 0.950 . S
C3163 C3160 1.387 . S
C3164 C3165 1.387 . S
C3164 H3168 0.950 . S
C3164 C3173 1.390 . S
C3165 C3164 1.387 . S
C3165 C3167 1.387 . S
H3166 C3173 0.950 . S
C3167 C3165 1.387 . S
C3167 C3169 1.390 . S
C3167 H3171 0.950 . S
H3168 C3164 0.950 . S
C3169 C3167 1.390 . S
C3169 C3170 1.387 . S
C3169 H3172 0.950 . S
C3170 C3169 1.387 . S
C3170 C3173 1.387 . S
H3171 C3167 0.950 . S
H3172 C3169 0.950 . S
C3173 C3164 1.390 . S
C3173 H3166 0.950 . S
C3173 C3170 1.387 . S
C3174 C3175 1.387 . S
C3174 H3178 0.950 . S
C3174 C3183 1.390 . S
C3175 C3174 1.387 . S
C3175 C3177 1.387 . S
H3176 C3183 0.950 . S
C3177 C3175 1.387 . S
C3177 C3179 1.390 . S
C3177 H3181 0.950 . S
H3178 C3174 0.950 . S
C3179 C3177 1.390 . S
C3179 C3180 1.387 . S
C3179 H3182 0.950 . S
C3180 C3179 1.387 . S
C3180 C3183 1.387 . S
H3181 C3177 0.950 . S
H3182 C3179 0.950 . S
C3183 C3174 1.390 . S
C3183 H3176 0.950 . S
C3183 C3180 1.387 . S
C3184 C3185 1.387 . S
C3184 H3188 0.950 . S
C3184 C3193 1.390 . S
C3185 C3184 1.387 . S
C3185 C3187 1.387 . S
H3186 C3193 0.950 . S
C3187 C3185 1.387 . S
C3187 C3189 1.390 . S
C3187 H3191 0.950 . S
H3188 C3184 0.950 . S
C3189 C3187 1.390 . S
C3189 C3190 1.387 . S
C3189 H3192 0.950 . S
C3190 C3189 1.387 . S
C3190 C3193 1.387 . S
H3191 C3187 0.950 . S
H3192 C3189 0.950 . S
C3193 C3184 1.390 . S
C3193 H3186 0.950 . S
C3193 C3190 1.387 . S
C3194 C3195 1.387 . S
C3194 H3198 0.950 . S
C3194 C3203 1.390 . S
C3195 C3194 1.387 . S
C3195 C3197 1.387 . S
H3196 C3203 0.950 . S
C3197 C3195 1.387 . S
C3197 C3199 1.390 . S
C3197 H3201 0.950 . S
H3198 C3194 0.950 . S
C3199 C3197 1.390 . S
C3199 C3200 1.387 . S
C3199 H3202 0.950 . S
C3200 C3199 1.387 . S
C3200 C3203 1.387 . S
H3201 C3197 0.950 . S
H3202 C3199 0.950 . S
C3203 C3194 1.390 . S
C3203 H3196 0.950 . S
C3203 C3200 1.387 . S
C3204 C3205 1.387 . S
C3204 H3208 0.950 . S
C3204 C3213 1.390 . S
C3205 C3204 1.387 . S
C3205 C3207 1.387 . S
H3206 C3213 0.950 . S
C3207 C3205 1.387 . S
C3207 C3209 1.390 . S
C3207 H3211 0.950 . S
H3208 C3204 0.950 . S
C3209 C3207 1.390 . S
C3209 C3210 1.387 . S
C3209 H3212 0.950 . S
C3210 C3209 1.387 . S
C3210 C3213 1.387 . S
H3211 C3207 0.950 . S
H3212 C3209 0.950 . S
C3213 C3204 1.390 . S
C3213 H3206 0.950 . S
C3213 C3210 1.387 . S
C3214 C3215 1.387 . S
C3214 H3218 0.950 . S
C3214 C3223 1.390 . S
C3215 C3214 1.387 . S
C3215 C3217 1.387 . S
H3216 C3223 0.950 . S
C3217 C3215 1.387 . S
C3217 C3219 1.390 . S
C3217 H3221 0.950 . S
H3218 C3214 0.950 . S
C3219 C3217 1.390 . S
C3219 C3220 1.387 . S
C3219 H3222 0.950 . S
C3220 C3219 1.387 . S
C3220 C3223 1.387 . S
H3221 C3217 0.950 . S
H3222 C3219 0.950 . S
C3223 C3214 1.390 . S
C3223 H3216 0.950 . S
C3223 C3220 1.387 . S
C3224 C3225 1.387 . S
C3224 H3228 0.950 . S
C3224 C3233 1.390 . S
C3225 C3224 1.387 . S
C3225 C3227 1.387 . S
H3226 C3233 0.950 . S
C3227 C3225 1.387 . S
C3227 C3229 1.390 . S
C3227 H3231 0.950 . S
H3228 C3224 0.950 . S
C3229 C3227 1.390 . S
C3229 C3230 1.387 . S
C3229 H3232 0.950 . S
C3230 C3229 1.387 . S
C3230 C3233 1.387 . S
H3231 C3227 0.950 . S
H3232 C3229 0.950 . S
C3233 C3224 1.390 . S
C3233 H3226 0.950 . S
C3233 C3230 1.387 . S
C3234 C3235 1.387 . S
C3234 H3238 0.950 . S
C3234 C3243 1.390 . S
C3235 C3234 1.387 . S
C3235 C3237 1.387 . S
H3236 C3243 0.950 . S
C3237 C3235 1.387 . S
C3237 C3239 1.390 . S
C3237 H3241 0.950 . S
H3238 C3234 0.950 . S
C3239 C3237 1.390 . S
C3239 C3240 1.387 . S
C3239 H3242 0.950 . S
C3240 C3239 1.387 . S
C3240 C3243 1.387 . S
H3241 C3237 0.950 . S
H3242 C3239 0.950 . S
C3243 C3234 1.390 . S
C3243 H3236 0.950 . S
C3243 C3240 1.387 . S
C3244 C3245 1.387 . S
C3244 H3248 0.950 . S
C3244 C3253 1.390 . S
C3245 C3244 1.387 . S
C3245 C3247 1.387 . S
H3246 C3253 0.950 . S
C3247 C3245 1.387 . S
C3247 C3249 1.390 . S
C3247 H3251 0.950 . S
H3248 C3244 0.950 . S
C3249 C3247 1.390 . S
C3249 C3250 1.387 . S
C3249 H3252 0.950 . S
C3250 C3249 1.387 . S
C3250 C3253 1.387 . S
H3251 C3247 0.950 . S
H3252 C3249 0.950 . S
C3253 C3244 1.390 . S
C3253 H3246 0.950 . S
C3253 C3250 1.387 . S
C3254 C3255 1.387 . S
C3254 H3258 0.950 . S
C3254 C3263 1.390 . S
C3255 C3254 1.387 . S
C3255 C3257 1.387 . S
H3256 C3263 0.950 . S
C3257 C3255 1.387 . S
C3257 C3259 1.390 . S
C3257 H3261 0.950 . S
H3258 C3254 0.950 . S
C3259 C3257 1.390 . S
C3259 C3260 1.387 . S
C3259 H3262 0.950 . S
C3260 C3259 1.387 . S
C3260 C3263 1.387 . S
H3261 C3257 0.950 . S
H3262 C3259 0.950 . S
C3263 C3254 1.390 . S
C3263 H3256 0.950 . S
C3263 C3260 1.387 . S
C3264 C3265 1.387 . S
C3264 H3268 0.950 . S
C3264 C3273 1.390 . S
C3265 C3264 1.387 . S
C3265 C3267 1.387 . S
H3266 C3273 0.950 . S
C3267 C3265 1.387 . S
C3267 C3269 1.390 . S
C3267 H3271 0.950 . S
H3268 C3264 0.950 . S
C3269 C3267 1.390 . S
C3269 C3270 1.387 . S
C3269 H3272 0.950 . S
C3270 C3269 1.387 . S
C3270 C3273 1.387 . S
H3271 C3267 0.950 . S
H3272 C3269 0.950 . S
C3273 C3264 1.390 . S
C3273 H3266 0.950 . S
C3273 C3270 1.387 . S
C3274 C3275 1.387 . S
C3274 H3278 0.950 . S
C3274 C3283 1.390 . S
C3275 C3274 1.387 . S
C3275 C3277 1.387 . S
H3276 C3283 0.950 . S
C3277 C3275 1.387 . S
C3277 C3279 1.390 . S
C3277 H3281 0.950 . S
H3278 C3274 0.950 . S
C3279 C3277 1.390 . S
C3279 C3280 1.387 . S
C3279 H3282 0.950 . S
C3280 C3279 1.387 . S
C3280 C3283 1.387 . S
H3281 C3277 0.950 . S
H3282 C3279 0.950 . S
C3283 C3274 1.390 . S
C3283 H3276 0.950 . S
C3283 C3280 1.387 . S
C3284 C3285 1.387 . S
C3284 H3288 0.950 . S
C3284 C3293 1.390 . S
C3285 C3284 1.387 . S
C3285 C3287 1.387 . S
H3286 C3293 0.950 . S
C3287 C3285 1.387 . S
C3287 C3289 1.390 . S
C3287 H3291 0.950 . S
H3288 C3284 0.950 . S
C3289 C3287 1.390 . S
C3289 C3290 1.387 . S
C3289 H3292 0.950 . S
C3290 C3289 1.387 . S
C3290 C3293 1.387 . S
H3291 C3287 0.950 . S
H3292 C3289 0.950 . S
C3293 C3284 1.390 . S
C3293 H3286 0.950 . S
C3293 C3290 1.387 . S
C3294 C3295 1.387 . S
C3294 H3298 0.950 . S
C3294 C3303 1.390 . S
C3295 C3294 1.387 . S
C3295 C3297 1.387 . S
H3296 C3303 0.950 . S
C3297 C3295 1.387 . S
C3297 C3299 1.390 . S
C3297 H3301 0.950 . S
H3298 C3294 0.950 . S
C3299 C3297 1.390 . S
C3299 C3300 1.387 . S
C3299 H3302 0.950 . S
C3300 C3299 1.387 . S
C3300 C3303 1.387 . S
H3301 C3297 0.950 . S
H3302 C3299 0.950 . S
C3303 C3294 1.390 . S
C3303 H3296 0.950 . S
C3303 C3300 1.387 . S
C3304 C3305 1.387 . S
C3304 H3308 0.950 . S
C3304 C3313 1.390 . S
C3305 C3304 1.387 . S
C3305 C3307 1.387 . S
H3306 C3313 0.950 . S
C3307 C3305 1.387 . S
C3307 C3309 1.390 . S
C3307 H3311 0.950 . S
H3308 C3304 0.950 . S
C3309 C3307 1.390 . S
C3309 C3310 1.387 . S
C3309 H3312 0.950 . S
C3310 C3309 1.387 . S
C3310 C3313 1.387 . S
H3311 C3307 0.950 . S
H3312 C3309 0.950 . S
C3313 C3304 1.390 . S
C3313 H3306 0.950 . S
C3313 C3310 1.387 . S
C3314 C3315 1.387 . S
C3314 H3318 0.950 . S
C3314 C3323 1.390 . S
C3315 C3314 1.387 . S
C3315 C3317 1.387 . S
H3316 C3323 0.950 . S
C3317 C3315 1.387 . S
C3317 C3319 1.390 . S
C3317 H3321 0.950 . S
H3318 C3314 0.950 . S
C3319 C3317 1.390 . S
C3319 C3320 1.387 . S
C3319 H3322 0.950 . S
C3320 C3319 1.387 . S
C3320 C3323 1.387 . S
H3321 C3317 0.950 . S
H3322 C3319 0.950 . S
C3323 C3314 1.390 . S
C3323 H3316 0.950 . S
C3323 C3320 1.387 . S
C3324 C3325 1.387 . S
C3324 H3328 0.950 . S
C3324 C3333 1.390 . S
C3325 C3324 1.387 . S
C3325 C3327 1.387 . S
H3326 C3333 0.950 . S
C3327 C3325 1.387 . S
C3327 C3329 1.390 . S
C3327 H3331 0.950 . S
H3328 C3324 0.950 . S
C3329 C3327 1.390 . S
C3329 C3330 1.387 . S
C3329 H3332 0.950 . S
C3330 C3329 1.387 . S
C3330 C3333 1.387 . S
H3331 C3327 0.950 . S
H3332 C3329 0.950 . S
C3333 C3324 1.390 . S
C3333 H3326 0.950 . S
C3333 C3330 1.387 . S
C3334 C3335 1.387 . S
C3334 H3338 0.950 . S
C3334 C3343 1.390 . S
C3335 C3334 1.387 . S
C3335 C3337 1.387 . S
H3336 C3343 0.950 . S
C3337 C3335 1.387 . S
C3337 C3339 1.390 . S
C3337 H3341 0.950 . S
H3338 C3334 0.950 . S
C3339 C3337 1.390 . S
C3339 C3340 1.387 . S
C3339 H3342 0.950 . S
C3340 C3339 1.387 . S
C3340 C3343 1.387 . S
H3341 C3337 0.950 . S
H3342 C3339 0.950 . S
C3343 C3334 1.390 . S
C3343 H3336 0.950 . S
C3343 C3340 1.387 . S
C3344 C3345 1.387 . S
C3344 H3348 0.950 . S
C3344 C3353 1.390 . S
C3345 C3344 1.387 . S
C3345 C3347 1.387 . S
H3346 C3353 0.950 . S
C3347 C3345 1.387 . S
C3347 C3349 1.390 . S
C3347 H3351 0.950 . S
H3348 C3344 0.950 . S
C3349 C3347 1.390 . S
C3349 C3350 1.387 . S
C3349 H3352 0.950 . S
C3350 C3349 1.387 . S
C3350 C3353 1.387 . S
H3351 C3347 0.950 . S
H3352 C3349 0.950 . S
C3353 C3344 1.390 . S
C3353 H3346 0.950 . S
C3353 C3350 1.387 . S
C3354 C3355 1.387 . S
C3354 H3358 0.950 . S
C3354 C3363 1.390 . S
C3355 C3354 1.387 . S
C3355 C3357 1.387 . S
H3356 C3363 0.950 . S
C3357 C3355 1.387 . S
C3357 C3359 1.390 . S
C3357 H3361 0.950 . S
H3358 C3354 0.950 . S
C3359 C3357 1.390 . S
C3359 C3360 1.387 . S
C3359 H3362 0.950 . S
C3360 C3359 1.387 . S
C3360 C3363 1.387 . S
H3361 C3357 0.950 . S
H3362 C3359 0.950 . S
C3363 C3354 1.390 . S
C3363 H3356 0.950 . S
C3363 C3360 1.387 . S
C3364 C3365 1.387 . S
C3364 H3368 0.950 . S
C3364 C3373 1.390 . S
C3365 C3364 1.387 . S
C3365 C3367 1.387 . S
H3366 C3373 0.950 . S
C3367 C3365 1.387 . S
C3367 C3369 1.390 . S
C3367 H3371 0.950 . S
H3368 C3364 0.950 . S
C3369 C3367 1.390 . S
C3369 C3370 1.387 . S
C3369 H3372 0.950 . S
C3370 C3369 1.387 . S
C3370 C3373 1.387 . S
H3371 C3367 0.950 . S
H3372 C3369 0.950 . S
C3373 C3364 1.390 . S
C3373 H3366 0.950 . S
C3373 C3370 1.387 . S
C3374 C3375 1.387 . S
C3374 H3378 0.950 . S
C3374 C3383 1.390 . S
C3375 C3374 1.387 . S
C3375 C3377 1.387 . S
H3376 C3383 0.950 . S
C3377 C3375 1.387 . S
C3377 C3379 1.390 . S
C3377 H3381 0.950 . S
H3378 C3374 0.950 . S
C3379 C3377 1.390 . S
C3379 C3380 1.387 . S
C3379 H3382 0.950 . S
C3380 C3379 1.387 . S
C3380 C3383 1.387 . S
H3381 C3377 0.950 . S
H3382 C3379 0.950 . S
C3383 C3374 1.390 . S
C3383 H3376 0.950 . S
C3383 C3380 1.387 . S
C3384 C3385 1.387 . S
C3384 H3388 0.950 . S
C3384 C3393 1.390 . S
C3385 C3384 1.387 . S
C3385 C3387 1.387 . S
H3386 C3393 0.950 . S
C3387 C3385 1.387 . S
C3387 C3389 1.390 . S
C3387 H3391 0.950 . S
H3388 C3384 0.950 . S
C3389 C3387 1.390 . S
C3389 C3390 1.387 . S
C3389 H3392 0.950 . S
C3390 C3389 1.387 . S
C3390 C3393 1.387 . S
H3391 C3387 0.950 . S
H3392 C3389 0.950 . S
C3393 C3384 1.390 . S
C3393 H3386 0.950 . S
C3393 C3390 1.387 . S
C3394 C3395 1.387 . S
C3394 H3398 0.950 . S
C3394 C3403 1.390 . S
C3395 C3394 1.387 . S
C3395 C3397 1.387 . S
H3396 C3403 0.950 . S
C3397 C3395 1.387 . S
C3397 C3399 1.390 . S
C3397 H3401 0.950 . S
H3398 C3394 0.950 . S
C3399 C3397 1.390 . S
C3399 C3400 1.387 . S
C3399 H3402 0.950 . S
C3400 C3399 1.387 . S
C3400 C3403 1.387 . S
H3401 C3397 0.950 . S
H3402 C3399 0.950 . S
C3403 C3394 1.390 . S
C3403 H3396 0.950 . S
C3403 C3400 1.387 . S
C3404 C3405 1.387 . S
C3404 H3408 0.950 . S
C3404 C3413 1.390 . S
C3405 C3404 1.387 . S
C3405 C3407 1.387 . S
H3406 C3413 0.950 . S
C3407 C3405 1.387 . S
C3407 C3409 1.390 . S
C3407 H3411 0.950 . S
H3408 C3404 0.950 . S
C3409 C3407 1.390 . S
C3409 C3410 1.387 . S
C3409 H3412 0.950 . S
C3410 C3409 1.387 . S
C3410 C3413 1.387 . S
H3411 C3407 0.950 . S
H3412 C3409 0.950 . S
C3413 C3404 1.390 . S
C3413 H3406 0.950 . S
C3413 C3410 1.387 . S
C3414 C3415 1.387 . S
C3414 H3418 0.950 . S
C3414 C3423 1.390 . S
C3415 C3414 1.387 . S
C3415 C3417 1.387 . S
H3416 C3423 0.950 . S
C3417 C3415 1.387 . S
C3417 C3419 1.390 . S
C3417 H3421 0.950 . S
H3418 C3414 0.950 . S
C3419 C3417 1.390 . S
C3419 C3420 1.387 . S
C3419 H3422 0.950 . S
C3420 C3419 1.387 . S
C3420 C3423 1.387 . S
H3421 C3417 0.950 . S
H3422 C3419 0.950 . S
C3423 C3414 1.390 . S
C3423 H3416 0.950 . S
C3423 C3420 1.387 . S
C3424 C3425 1.387 . S
C3424 H3428 0.950 . S
C3424 C3433 1.390 . S
C3425 C3424 1.387 . S
C3425 C3427 1.387 . S
H3426 C3433 0.950 . S
C3427 C3425 1.387 . S
C3427 C3429 1.390 . S
C3427 H3431 0.950 . S
H3428 C3424 0.950 . S
C3429 C3427 1.390 . S
C3429 C3430 1.387 . S
C3429 H3432 0.950 . S
C3430 C3429 1.387 . S
C3430 C3433 1.387 . S
H3431 C3427 0.950 . S
H3432 C3429 0.950 . S
C3433 C3424 1.390 . S
C3433 H3426 0.950 . S
C3433 C3430 1.387 . S
C3434 C3435 1.387 . S
C3434 H3438 0.950 . S
C3434 C3443 1.390 . S
C3435 C3434 1.387 . S
C3435 C3437 1.387 . S
H3436 C3443 0.950 . S
C3437 C3435 1.387 . S
C3437 C3439 1.390 . S
C3437 H3441 0.950 . S
H3438 C3434 0.950 . S
C3439 C3437 1.390 . S
C3439 C3440 1.387 . S
C3439 H3442 0.950 . S
C3440 C3439 1.387 . S
C3440 C3443 1.387 . S
H3441 C3437 0.950 . S
H3442 C3439 0.950 . S
C3443 C3434 1.390 . S
C3443 H3436 0.950 . S
C3443 C3440 1.387 . S
C3444 C3445 1.387 . S
C3444 H3448 0.950 . S
C3444 C3453 1.390 . S
C3445 C3444 1.387 . S
C3445 C3447 1.387 . S
H3446 C3453 0.950 . S
C3447 C3445 1.387 . S
C3447 C3449 1.390 . S
C3447 H3451 0.950 . S
H3448 C3444 0.950 . S
C3449 C3447 1.390 . S
C3449 C3450 1.387 . S
C3449 H3452 0.950 . S
C3450 C3449 1.387 . S
C3450 C3453 1.387 . S
H3451 C3447 0.950 . S
H3452 C3449 0.950 . S
C3453 C3444 1.390 . S
C3453 H3446 0.950 . S
C3453 C3450 1.387 . S
C3454 C3455 1.387 . S
C3454 H3458 0.950 . S
C3454 C3463 1.390 . S
C3455 C3454 1.387 . S
C3455 C3457 1.387 . S
H3456 C3463 0.950 . S
C3457 C3455 1.387 . S
C3457 C3459 1.390 . S
C3457 H3461 0.950 . S
H3458 C3454 0.950 . S
C3459 C3457 1.390 . S
C3459 C3460 1.387 . S
C3459 H3462 0.950 . S
C3460 C3459 1.387 . S
C3460 C3463 1.387 . S
H3461 C3457 0.950 . S
H3462 C3459 0.950 . S
C3463 C3454 1.390 . S
C3463 H3456 0.950 . S
C3463 C3460 1.387 . S
C3464 C3465 1.387 . S
C3464 H3468 0.950 . S
C3464 C3473 1.390 . S
C3465 C3464 1.387 . S
C3465 C3467 1.387 . S
H3466 C3473 0.950 . S
C3467 C3465 1.387 . S
C3467 C3469 1.390 . S
C3467 H3471 0.950 . S
H3468 C3464 0.950 . S
C3469 C3467 1.390 . S
C3469 C3470 1.387 . S
C3469 H3472 0.950 . S
C3470 C3469 1.387 . S
C3470 C3473 1.387 . S
H3471 C3467 0.950 . S
H3472 C3469 0.950 . S
C3473 C3464 1.390 . S
C3473 H3466 0.950 . S
C3473 C3470 1.387 . S
C3474 C3475 1.387 . S
C3474 H3478 0.950 . S
C3474 C3483 1.390 . S
C3475 C3474 1.387 . S
C3475 C3477 1.387 . S
H3476 C3483 0.950 . S
C3477 C3475 1.387 . S
C3477 C3479 1.390 . S
C3477 H3481 0.950 . S
H3478 C3474 0.950 . S
C3479 C3477 1.390 . S
C3479 C3480 1.387 . S
C3479 H3482 0.950 . S
C3480 C3479 1.387 . S
C3480 C3483 1.387 . S
H3481 C3477 0.950 . S
H3482 C3479 0.950 . S
C3483 C3474 1.390 . S
C3483 H3476 0.950 . S
C3483 C3480 1.387 . S
C3484 C3485 1.387 . S
C3484 H3488 0.950 . S
C3484 C3493 1.390 . S
C3485 C3484 1.387 . S
C3485 C3487 1.387 . S
H3486 C3493 0.950 . S
C3487 C3485 1.387 . S
C3487 C3489 1.390 . S
C3487 H3491 0.950 . S
H3488 C3484 0.950 . S
C3489 C3487 1.390 . S
C3489 C3490 1.387 . S
C3489 H3492 0.950 . S
C3490 C3489 1.387 . S
C3490 C3493 1.387 . S
H3491 C3487 0.950 . S
H3492 C3489 0.950 . S
C3493 C3484 1.390 . S
C3493 H3486 0.950 . S
C3493 C3490 1.387 . S
C3494 C3495 1.387 . S
C3494 H3498 0.950 . S
C3494 C3503 1.390 . S
C3495 C3494 1.387 . S
C3495 C3497 1.387 . S
H3496 C3503 0.950 . S
C3497 C3495 1.387 . S
C3497 C3499 1.390 . S
C3497 H3501 0.950 . S
H3498 C3494 0.950 . S
C3499 C3497 1.390 . S
C3499 C3500 1.387 . S
C3499 H3502 0.950 . S
C3500 C3499 1.387 . S
C3500 C3503 1.387 . S
H3501 C3497 0.950 . S
H3502 C3499 0.950 . S
C3503 C3494 1.390 . S
C3503 H3496 0.950 . S
C3503 C3500 1.387 . S
C3504 C3505 1.387 . S
C3504 H3508 0.950 . S
C3504 C3513 1.390 . S
C3505 C3504 1.387 . S
C3505 C3507 1.387 . S
H3506 C3513 0.950 . S
C3507 C3505 1.387 . S
C3507 C3509 1.390 . S
C3507 H3511 0.950 . S
H3508 C3504 0.950 . S
C3509 C3507 1.390 . S
C3509 C3510 1.387 . S
C3509 H3512 0.950 . S
C3510 C3509 1.387 . S
C3510 C3513 1.387 . S
H3511 C3507 0.950 . S
H3512 C3509 0.950 . S
C3513 C3504 1.390 . S
C3513 H3506 0.950 . S
C3513 C3510 1.387 . S
C3514 C3515 1.387 . S
C3514 H3518 0.950 . S
C3514 C3523 1.390 . S
C3515 C3514 1.387 . S
C3515 C3517 1.387 . S
H3516 C3523 0.950 . S
C3517 C3515 1.387 . S
C3517 C3519 1.390 . S
C3517 H3521 0.950 . S
H3518 C3514 0.950 . S
C3519 C3517 1.390 . S
C3519 C3520 1.387 . S
C3519 H3522 0.950 . S
C3520 C3519 1.387 . S
C3520 C3523 1.387 . S
H3521 C3517 0.950 . S
H3522 C3519 0.950 . S
C3523 C3514 1.390 . S
C3523 H3516 0.950 . S
C3523 C3520 1.387 . S
C3524 C3525 1.387 . S
C3524 H3528 0.950 . S
C3524 C3533 1.390 . S
C3525 C3524 1.387 . S
C3525 C3527 1.387 . S
H3526 C3533 0.950 . S
C3527 C3525 1.387 . S
C3527 C3529 1.390 . S
C3527 H3531 0.950 1_554 S
H3528 C3524 0.950 . S
C3529 C3527 1.390 . S
C3529 C3530 1.387 . S
C3529 H3532 0.950 . S
C3530 C3529 1.387 . S
C3530 C3533 1.387 . S
H3531 C3527 0.950 1_556 S
H3532 C3529 0.950 . S
C3533 C3524 1.390 . S
C3533 H3526 0.950 . S
C3533 C3530 1.387 . S
C3534 C3535 1.387 . S
C3534 H3538 0.950 . S
C3534 C3543 1.390 . S
C3535 C3534 1.387 . S
C3535 C3537 1.387 . S
H3536 C3543 0.950 . S
C3537 C3535 1.387 . S
C3537 C3539 1.390 . S
C3537 H3541 0.950 . S
H3538 C3534 0.950 . S
C3539 C3537 1.390 . S
C3539 C3540 1.387 . S
C3539 H3542 0.950 . S
C3540 C3539 1.387 . S
C3540 C3543 1.387 . S
H3541 C3537 0.950 . S
H3542 C3539 0.950 . S
C3543 C3534 1.390 . S
C3543 H3536 0.950 . S
C3543 C3540 1.387 . S
C3544 C3545 1.387 . S
C3544 H3548 0.950 . S
C3544 C3553 1.390 . S
C3545 C3544 1.387 . S
C3545 C3547 1.387 . S
H3546 C3553 0.950 . S
C3547 C3545 1.387 . S
C3547 C3549 1.390 . S
C3547 H3551 0.950 . S
H3548 C3544 0.950 . S
C3549 C3547 1.390 . S
C3549 C3550 1.387 . S
C3549 H3552 0.950 . S
C3550 C3549 1.387 . S
C3550 C3553 1.387 . S
H3551 C3547 0.950 . S
H3552 C3549 0.950 . S
C3553 C3544 1.390 . S
C3553 H3546 0.950 . S
C3553 C3550 1.387 . S
C3554 C3555 1.387 . S
C3554 H3558 0.950 . S
C3554 C3563 1.390 . S
C3555 C3554 1.387 . S
C3555 C3557 1.387 . S
H3556 C3563 0.950 . S
C3557 C3555 1.387 . S
C3557 C3559 1.390 . S
C3557 H3561 0.950 . S
H3558 C3554 0.950 . S
C3559 C3557 1.390 . S
C3559 C3560 1.387 . S
C3559 H3562 0.950 . S
C3560 C3559 1.387 . S
C3560 C3563 1.387 . S
H3561 C3557 0.950 . S
H3562 C3559 0.950 . S
C3563 C3554 1.390 . S
C3563 H3556 0.950 . S
C3563 C3560 1.387 . S
C3564 C3565 1.387 . S
C3564 H3568 0.950 . S
C3564 C3573 1.390 . S
C3565 C3564 1.387 . S
C3565 C3567 1.387 . S
H3566 C3573 0.950 . S
C3567 C3565 1.387 . S
C3567 C3569 1.390 . S
C3567 H3571 0.950 . S
H3568 C3564 0.950 . S
C3569 C3567 1.390 . S
C3569 C3570 1.387 . S
C3569 H3572 0.950 . S
C3570 C3569 1.387 . S
C3570 C3573 1.387 . S
H3571 C3567 0.950 . S
H3572 C3569 0.950 . S
C3573 C3564 1.390 . S
C3573 H3566 0.950 . S
C3573 C3570 1.387 . S
C3574 C3575 1.387 . S
C3574 H3578 0.950 . S
C3574 C3583 1.390 . S
C3575 C3574 1.387 . S
C3575 C3577 1.387 . S
H3576 C3583 0.950 . S
C3577 C3575 1.387 . S
C3577 C3579 1.390 . S
C3577 H3581 0.950 . S
H3578 C3574 0.950 . S
C3579 C3577 1.390 . S
C3579 C3580 1.387 . S
C3579 H3582 0.950 . S
C3580 C3579 1.387 . S
C3580 C3583 1.387 . S
H3581 C3577 0.950 . S
H3582 C3579 0.950 . S
C3583 C3574 1.390 . S
C3583 H3576 0.950 . S
C3583 C3580 1.387 . S
C3584 C3585 1.387 . S
C3584 H3588 0.950 . S
C3584 C3593 1.390 . S
C3585 C3584 1.387 . S
C3585 C3587 1.387 . S
H3586 C3593 0.950 . S
C3587 C3585 1.387 . S
C3587 C3589 1.390 . S
C3587 H3591 0.950 . S
H3588 C3584 0.950 . S
C3589 C3587 1.390 . S
C3589 C3590 1.387 . S
C3589 H3592 0.950 . S
C3590 C3589 1.387 . S
C3590 C3593 1.387 . S
H3591 C3587 0.950 . S
H3592 C3589 0.950 . S
C3593 C3584 1.390 . S
C3593 H3586 0.950 . S
C3593 C3590 1.387 . S
C3594 C3595 1.387 . S
C3594 H3598 0.950 . S
C3594 C3603 1.390 . S
C3595 C3594 1.387 . S
C3595 C3597 1.387 . S
H3596 C3603 0.950 . S
C3597 C3595 1.387 . S
C3597 C3599 1.390 . S
C3597 H3601 0.950 . S
H3598 C3594 0.950 . S
C3599 C3597 1.390 . S
C3599 C3600 1.387 . S
C3599 H3602 0.950 . S
C3600 C3599 1.387 . S
C3600 C3603 1.387 . S
H3601 C3597 0.950 . S
H3602 C3599 0.950 . S
C3603 C3594 1.390 . S
C3603 H3596 0.950 . S
C3603 C3600 1.387 . S
C3604 C3605 1.387 . S
C3604 H3608 0.950 . S
C3604 C3613 1.390 . S
C3605 C3604 1.387 . S
C3605 C3607 1.387 . S
H3606 C3613 0.950 . S
C3607 C3605 1.387 . S
C3607 C3609 1.390 . S
C3607 H3611 0.950 . S
H3608 C3604 0.950 . S
C3609 C3607 1.390 . S
C3609 C3610 1.387 . S
C3609 H3612 0.950 . S
C3610 C3609 1.387 . S
C3610 C3613 1.387 . S
H3611 C3607 0.950 . S
H3612 C3609 0.950 . S
C3613 C3604 1.390 . S
C3613 H3606 0.950 . S
C3613 C3610 1.387 . S
C3614 C3615 1.387 . S
C3614 H3618 0.950 . S
C3614 C3623 1.390 . S
C3615 C3614 1.387 . S
C3615 C3617 1.387 . S
H3616 C3623 0.950 . S
C3617 C3615 1.387 . S
C3617 C3619 1.390 . S
C3617 H3621 0.950 . S
H3618 C3614 0.950 . S
C3619 C3617 1.390 . S
C3619 C3620 1.387 . S
C3619 H3622 0.950 . S
C3620 C3619 1.387 . S
C3620 C3623 1.387 . S
H3621 C3617 0.950 . S
H3622 C3619 0.950 . S
C3623 C3614 1.390 . S
C3623 H3616 0.950 . S
C3623 C3620 1.387 . S
C3624 C3625 1.387 . S
C3624 H3628 0.950 . S
C3624 C3633 1.390 . S
C3625 C3624 1.387 . S
C3625 C3627 1.387 . S
H3626 C3633 0.950 . S
C3627 C3625 1.387 . S
C3627 C3629 1.390 . S
C3627 H3631 0.950 . S
H3628 C3624 0.950 . S
C3629 C3627 1.390 . S
C3629 C3630 1.387 . S
C3629 H3632 0.950 . S
C3630 C3629 1.387 . S
C3630 C3633 1.387 . S
H3631 C3627 0.950 . S
H3632 C3629 0.950 . S
C3633 C3624 1.390 . S
C3633 H3626 0.950 . S
C3633 C3630 1.387 . S
C3634 C3635 1.387 . S
C3634 H3638 0.950 . S
C3634 C3643 1.390 . S
C3635 C3634 1.387 . S
C3635 C3637 1.387 . S
H3636 C3643 0.950 . S
C3637 C3635 1.387 . S
C3637 C3639 1.390 . S
C3637 H3641 0.950 . S
H3638 C3634 0.950 . S
C3639 C3637 1.390 . S
C3639 C3640 1.387 . S
C3639 H3642 0.950 . S
C3640 C3639 1.387 . S
C3640 C3643 1.387 . S
H3641 C3637 0.950 . S
H3642 C3639 0.950 . S
C3643 C3634 1.390 . S
C3643 H3636 0.950 . S
C3643 C3640 1.387 . S
C3644 C3645 1.387 . S
C3644 H3648 0.950 . S
C3644 C3653 1.390 . S
C3645 C3644 1.387 . S
C3645 C3647 1.387 . S
H3646 C3653 0.950 . S
C3647 C3645 1.387 . S
C3647 C3649 1.390 . S
C3647 H3651 0.950 . S
H3648 C3644 0.950 . S
C3649 C3647 1.390 . S
C3649 C3650 1.387 . S
C3649 H3652 0.950 . S
C3650 C3649 1.387 . S
C3650 C3653 1.387 . S
H3651 C3647 0.950 . S
H3652 C3649 0.950 . S
C3653 C3644 1.390 . S
C3653 H3646 0.950 . S
C3653 C3650 1.387 . S
C3654 C3655 1.387 . S
C3654 H3658 0.950 . S
C3654 C3663 1.390 . S
C3655 C3654 1.387 . S
C3655 C3657 1.387 . S
H3656 C3663 0.950 . S
C3657 C3655 1.387 . S
C3657 C3659 1.390 . S
C3657 H3661 0.950 . S
H3658 C3654 0.950 . S
C3659 C3657 1.390 . S
C3659 C3660 1.387 . S
C3659 H3662 0.950 . S
C3660 C3659 1.387 . S
C3660 C3663 1.387 . S
H3661 C3657 0.950 . S
H3662 C3659 0.950 . S
C3663 C3654 1.390 . S
C3663 H3656 0.950 . S
C3663 C3660 1.387 . S
C3664 C3665 1.387 . S
C3664 H3668 0.950 . S
C3664 C3673 1.390 . S
C3665 C3664 1.387 . S
C3665 C3667 1.387 . S
H3666 C3673 0.950 . S
C3667 C3665 1.387 . S
C3667 C3669 1.390 . S
C3667 H3671 0.950 . S
H3668 C3664 0.950 . S
C3669 C3667 1.390 . S
C3669 C3670 1.387 . S
C3669 H3672 0.950 . S
C3670 C3669 1.387 . S
C3670 C3673 1.387 . S
H3671 C3667 0.950 . S
H3672 C3669 0.950 . S
C3673 C3664 1.390 . S
C3673 H3666 0.950 . S
C3673 C3670 1.387 . S
C3674 C3675 1.387 . S
C3674 H3678 0.950 . S
C3674 C3683 1.390 . S
C3675 C3674 1.387 . S
C3675 C3677 1.387 . S
H3676 C3683 0.950 . S
C3677 C3675 1.387 . S
C3677 C3679 1.390 . S
C3677 H3681 0.950 . S
H3678 C3674 0.950 . S
C3679 C3677 1.390 . S
C3679 C3680 1.387 . S
C3679 H3682 0.950 . S
C3680 C3679 1.387 . S
C3680 C3683 1.387 . S
H3681 C3677 0.950 . S
H3682 C3679 0.950 . S
C3683 C3674 1.390 . S
C3683 H3676 0.950 . S
C3683 C3680 1.387 . S
C3684 C3685 1.387 . S
C3684 H3688 0.950 . S
C3684 C3693 1.390 . S
C3685 C3684 1.387 . S
C3685 C3687 1.387 . S
H3686 C3693 0.950 . S
C3687 C3685 1.387 . S
C3687 C3689 1.390 . S
C3687 H3691 0.950 . S
H3688 C3684 0.950 . S
C3689 C3687 1.390 . S
C3689 C3690 1.387 . S
C3689 H3692 0.950 . S
C3690 C3689 1.387 . S
C3690 C3693 1.387 . S
H3691 C3687 0.950 . S
H3692 C3689 0.950 . S
C3693 C3684 1.390 . S
C3693 H3686 0.950 . S
C3693 C3690 1.387 . S
C3694 C3695 1.387 . S
C3694 H3698 0.950 . S
C3694 C3703 1.390 . S
C3695 C3694 1.387 . S
C3695 C3697 1.387 . S
H3696 C3703 0.950 . S
C3697 C3695 1.387 . S
C3697 C3699 1.390 . S
C3697 H3701 0.950 . S
H3698 C3694 0.950 . S
C3699 C3697 1.390 . S
C3699 C3700 1.387 . S
C3699 H3702 0.950 . S
C3700 C3699 1.387 . S
C3700 C3703 1.387 . S
H3701 C3697 0.950 . S
H3702 C3699 0.950 . S
C3703 C3694 1.390 . S
C3703 H3696 0.950 . S
C3703 C3700 1.387 . S
C3704 C3705 1.387 . S
C3704 H3708 0.950 . S
C3704 C3713 1.390 . S
C3705 C3704 1.387 . S
C3705 C3707 1.387 . S
H3706 C3713 0.950 . S
C3707 C3705 1.387 . S
C3707 C3709 1.390 . S
C3707 H3711 0.950 . S
H3708 C3704 0.950 . S
C3709 C3707 1.390 . S
C3709 C3710 1.387 . S
C3709 H3712 0.950 . S
C3710 C3709 1.387 . S
C3710 C3713 1.387 . S
H3711 C3707 0.950 . S
H3712 C3709 0.950 . S
C3713 C3704 1.390 . S
C3713 H3706 0.950 . S
C3713 C3710 1.387 . S
C3714 C3715 1.387 . S
C3714 H3718 0.950 . S
C3714 C3723 1.390 . S
C3715 C3714 1.387 . S
C3715 C3717 1.387 . S
H3716 C3723 0.950 . S
C3717 C3715 1.387 . S
C3717 C3719 1.390 . S
C3717 H3721 0.950 . S
H3718 C3714 0.950 . S
C3719 C3717 1.390 . S
C3719 C3720 1.387 . S
C3719 H3722 0.950 . S
C3720 C3719 1.387 . S
C3720 C3723 1.387 . S
H3721 C3717 0.950 . S
H3722 C3719 0.950 . S
C3723 C3714 1.390 . S
C3723 H3716 0.950 . S
C3723 C3720 1.387 . S
C3724 C3725 1.387 . S
C3724 H3728 0.950 . S
C3724 C3733 1.390 . S
C3725 C3724 1.387 . S
C3725 C3727 1.387 . S
H3726 C3733 0.950 . S
C3727 C3725 1.387 . S
C3727 C3729 1.390 . S
C3727 H3731 0.950 . S
H3728 C3724 0.950 . S
C3729 C3727 1.390 . S
C3729 C3730 1.387 . S
C3729 H3732 0.950 . S
C3730 C3729 1.387 . S
C3730 C3733 1.387 . S
H3731 C3727 0.950 . S
H3732 C3729 0.950 . S
C3733 C3724 1.390 . S
C3733 H3726 0.950 . S
C3733 C3730 1.387 . S
C3734 C3735 1.387 . S
C3734 H3738 0.950 . S
C3734 C3743 1.390 . S
C3735 C3734 1.387 . S
C3735 C3737 1.387 . S
H3736 C3743 0.950 . S
C3737 C3735 1.387 . S
C3737 C3739 1.390 . S
C3737 H3741 0.896 1_545 S
H3738 C3734 0.950 . S
C3739 C3737 1.390 . S
C3739 C3740 1.387 . S
C3739 H3742 0.950 . S
C3740 C3739 1.387 . S
C3740 C3743 1.387 . S
H3741 C3737 0.896 1_565 S
H3742 C3739 0.950 . S
C3743 C3734 1.390 . S
C3743 H3736 0.950 . S
C3743 C3740 1.387 . S
C3744 C3745 1.387 . S
C3744 H3748 0.950 . S
C3744 C3753 1.390 . S
C3745 C3744 1.387 . S
C3745 C3747 1.387 . S
H3746 C3753 0.950 . S
C3747 C3745 1.387 . S
C3747 C3749 1.390 . S
C3747 H3751 0.950 . S
H3748 C3744 0.950 . S
C3749 C3747 1.390 . S
C3749 C3750 1.387 . S
C3749 H3752 0.950 . S
C3750 C3749 1.387 . S
C3750 C3753 1.387 . S
H3751 C3747 0.950 . S
H3752 C3749 0.950 . S
C3753 C3744 1.390 . S
C3753 H3746 0.950 . S
C3753 C3750 1.387 . S
C3754 C3755 1.387 . S
C3754 H3758 0.950 . S
C3754 C3763 1.390 . S
C3755 C3754 1.387 . S
C3755 C3757 1.387 . S
H3756 C3763 0.950 . S
C3757 C3755 1.387 . S
C3757 C3759 1.390 . S
C3757 H3761 0.950 . S
H3758 C3754 0.950 . S
C3759 C3757 1.390 . S
C3759 C3760 1.387 . S
C3759 H3762 0.950 . S
C3760 C3759 1.387 . S
C3760 C3763 1.387 . S
H3761 C3757 0.950 . S
H3762 C3759 0.950 . S
C3763 C3754 1.390 . S
C3763 H3756 0.950 . S
C3763 C3760 1.387 . S
C3764 C3765 1.387 . S
C3764 H3768 0.950 . S
C3764 C3773 1.433 . S
C3765 C3764 1.387 . S
C3765 C3767 1.387 . S
H3766 C3773 0.940 1_556 S
C3767 C3765 1.387 . S
C3767 C3769 1.390 1_554 S
C3767 H3771 0.950 . S
H3768 C3764 0.950 . S
C3769 C3767 1.390 1_556 S
C3769 C3770 1.387 . S
C3769 H3772 0.950 . S
C3770 C3769 1.387 . S
C3770 C3773 1.356 1_556 S
H3771 C3767 0.950 . S
H3772 C3769 0.950 . S
C3773 C3764 1.433 . S
C3773 H3766 0.940 1_554 S
C3773 C3770 1.356 1_554 S
C3774 C3775 1.387 . S
C3774 H3778 0.950 . S
C3774 C3783 1.390 . S
C3775 C3774 1.387 . S
C3775 C3777 1.387 . S
H3776 C3783 0.950 . S
C3777 C3775 1.387 . S
C3777 C3779 1.390 . S
C3777 H3781 0.950 . S
H3778 C3774 0.950 . S
C3779 C3777 1.390 . S
C3779 C3780 1.387 . S
C3779 H3782 0.950 . S
C3780 C3779 1.387 . S
C3780 C3783 1.387 . S
H3781 C3777 0.950 . S
H3782 C3779 0.950 . S
C3783 C3774 1.390 . S
C3783 H3776 0.950 . S
C3783 C3780 1.387 . S
C3784 C3785 1.387 . S
C3784 H3788 0.950 . S
C3784 C3793 1.390 . S
C3785 C3784 1.387 . S
C3785 C3787 1.387 . S
H3786 C3793 0.950 . S
C3787 C3785 1.387 . S
C3787 C3789 1.390 1_556 S
C3787 H3791 0.950 . S
H3788 C3784 0.950 . S
C3789 C3787 1.390 1_554 S
C3789 C3790 1.387 . S
C3789 H3792 0.950 . S
C3790 C3789 1.387 . S
C3790 C3793 1.387 1_554 S
H3791 C3787 0.950 . S
H3792 C3789 0.950 . S
C3793 C3784 1.390 . S
C3793 H3786 0.950 . S
C3793 C3790 1.387 1_556 S
C3794 C3795 1.387 . S
C3794 H3798 0.950 . S
C3794 C3803 1.390 . S
C3795 C3794 1.387 . S
C3795 C3797 1.387 . S
H3796 C3803 0.950 . S
C3797 C3795 1.387 . S
C3797 C3799 1.390 . S
C3797 H3801 0.950 . S
H3798 C3794 0.950 . S
C3799 C3797 1.390 . S
C3799 C3800 1.387 . S
C3799 H3802 0.950 . S
C3800 C3799 1.387 . S
C3800 C3803 1.387 . S
H3801 C3797 0.950 . S
H3802 C3799 0.950 . S
C3803 C3794 1.390 . S
C3803 H3796 0.950 . S
C3803 C3800 1.387 . S
C3804 C3805 1.387 . S
C3804 H3808 0.950 . S
C3804 C3813 1.390 . S
C3805 C3804 1.387 . S
C3805 C3807 1.387 . S
H3806 C3813 0.950 . S
C3807 C3805 1.387 . S
C3807 C3809 1.390 . S
C3807 H3811 0.950 . S
H3808 C3804 0.950 . S
C3809 C3807 1.390 . S
C3809 C3810 1.387 . S
C3809 H3812 0.950 . S
C3810 C3809 1.387 . S
C3810 C3813 1.387 . S
H3811 C3807 0.950 . S
H3812 C3809 0.950 . S
C3813 C3804 1.390 . S
C3813 H3806 0.950 . S
C3813 C3810 1.387 . S
C3814 C3815 1.387 . S
C3814 H3818 0.950 . S
C3814 C3823 1.390 . S
C3815 C3814 1.387 . S
C3815 C3817 1.387 . S
H3816 C3823 0.950 . S
C3817 C3815 1.387 . S
C3817 C3819 1.390 . S
C3817 H3821 0.950 . S
H3818 C3814 0.950 . S
C3819 C3817 1.390 . S
C3819 C3820 1.387 . S
C3819 H3822 0.950 . S
C3820 C3819 1.387 . S
C3820 C3823 1.387 . S
H3821 C3817 0.950 . S
H3822 C3819 0.950 . S
C3823 C3814 1.390 . S
C3823 H3816 0.950 . S
C3823 C3820 1.387 . S
C3824 C3825 1.387 . S
C3824 H3828 0.950 . S
C3824 C3833 1.390 . S
C3825 C3824 1.387 . S
C3825 C3827 1.387 . S
H3826 C3833 0.950 . S
C3827 C3825 1.387 . S
C3827 C3829 1.390 . S
C3827 H3831 0.950 . S
H3828 C3824 0.950 . S
C3829 C3827 1.390 . S
C3829 C3830 1.387 . S
C3829 H3832 0.950 . S
C3830 C3829 1.387 . S
C3830 C3833 1.387 . S
H3831 C3827 0.950 . S
H3832 C3829 0.950 . S
C3833 C3824 1.390 . S
C3833 H3826 0.950 . S
C3833 C3830 1.387 . S
C3834 C3835 1.387 . S
C3834 H3838 0.950 . S
C3834 C3843 1.390 . S
C3835 C3834 1.387 . S
C3835 C3837 1.387 . S
H3836 C3843 0.950 . S
C3837 C3835 1.387 . S
C3837 C3839 1.390 . S
C3837 H3841 0.950 . S
H3838 C3834 0.950 . S
C3839 C3837 1.390 . S
C3839 C3840 1.387 . S
C3839 H3842 0.950 . S
C3840 C3839 1.387 . S
C3840 C3843 1.387 . S
H3841 C3837 0.950 . S
H3842 C3839 0.950 . S
C3843 C3834 1.390 . S
C3843 H3836 0.950 . S
C3843 C3840 1.387 . S
C3844 C3845 1.387 . S
C3844 H3848 0.950 . S
C3844 C3853 1.390 . S
C3845 C3844 1.387 . S
C3845 C3847 1.387 . S
H3846 C3853 0.950 . S
C3847 C3845 1.387 . S
C3847 C3849 1.390 . S
C3847 H3851 0.950 . S
H3848 C3844 0.950 . S
C3849 C3847 1.390 . S
C3849 C3850 1.387 . S
C3849 H3852 0.950 . S
C3850 C3849 1.387 . S
C3850 C3853 1.387 . S
H3851 C3847 0.950 . S
H3852 C3849 0.950 . S
C3853 C3844 1.390 . S
C3853 H3846 0.950 . S
C3853 C3850 1.387 . S
C3854 C3855 1.387 . S
C3854 H3858 0.950 . S
C3854 C3863 1.390 . S
C3855 C3854 1.387 . S
C3855 C3857 1.387 . S
H3856 C3863 0.950 . S
C3857 C3855 1.387 . S
C3857 C3859 1.390 . S
C3857 H3861 0.950 . S
H3858 C3854 0.950 . S
C3859 C3857 1.390 . S
C3859 C3860 1.387 . S
C3859 H3862 0.950 . S
C3860 C3859 1.387 . S
C3860 C3863 1.387 . S
H3861 C3857 0.950 . S
H3862 C3859 0.950 . S
C3863 C3854 1.390 . S
C3863 H3856 0.950 . S
C3863 C3860 1.387 . S
C3864 C3865 1.387 . S
C3864 H3868 0.950 . S
C3864 C3873 1.390 . S
C3865 C3864 1.387 . S
C3865 C3867 1.387 . S
H3866 C3873 0.950 . S
C3867 C3865 1.387 . S
C3867 C3869 1.390 . S
C3867 H3871 0.950 . S
H3868 C3864 0.950 . S
C3869 C3867 1.390 . S
C3869 C3870 1.387 . S
C3869 H3872 0.950 . S
C3870 C3869 1.387 . S
C3870 C3873 1.387 . S
H3871 C3867 0.950 . S
H3872 C3869 0.950 . S
C3873 C3864 1.390 . S
C3873 H3866 0.950 . S
C3873 C3870 1.387 . S
C3874 C3875 1.387 . S
C3874 H3878 0.950 . S
C3874 C3883 1.390 . S
C3875 C3874 1.387 . S
C3875 C3877 1.387 . S
H3876 C3883 0.950 . S
C3877 C3875 1.387 . S
C3877 C3879 1.390 . S
C3877 H3881 0.950 . S
H3878 C3874 0.950 . S
C3879 C3877 1.390 . S
C3879 C3880 1.387 . S
C3879 H3882 0.950 . S
C3880 C3879 1.387 . S
C3880 C3883 1.387 . S
H3881 C3877 0.950 . S
H3882 C3879 0.950 . S
C3883 C3874 1.390 . S
C3883 H3876 0.950 . S
C3883 C3880 1.387 . S
C3884 C3885 1.387 . S
C3884 H3888 0.950 . S
C3884 C3893 1.390 . S
C3885 C3884 1.387 . S
C3885 C3887 1.387 . S
H3886 C3893 0.950 1_455 S
C3887 C3885 1.387 . S
C3887 C3889 1.390 . S
C3887 H3891 0.950 . S
H3888 C3884 0.950 . S
C3889 C3887 1.390 . S
C3889 C3890 1.387 1_655 S
C3889 H3892 0.950 1_655 S
C3890 C3889 1.387 1_455 S
C3890 C3893 1.387 1_455 S
H3891 C3887 0.950 . S
H3892 C3889 0.950 1_455 S
C3893 C3884 1.390 . S
C3893 H3886 0.950 1_655 S
C3893 C3890 1.387 1_655 S
C3894 C3895 1.387 . S
C3894 H3898 0.950 . S
C3894 C3903 1.390 . S
C3895 C3894 1.387 . S
C3895 C3897 1.387 . S
H3896 C3903 0.950 . S
C3897 C3895 1.387 . S
C3897 C3899 1.390 . S
C3897 H3901 0.950 . S
H3898 C3894 0.950 . S
C3899 C3897 1.390 . S
C3899 C3900 1.387 . S
C3899 H3902 0.950 . S
C3900 C3899 1.387 . S
C3900 C3903 1.387 . S
H3901 C3897 0.950 . S
H3902 C3899 0.950 . S
C3903 C3894 1.390 . S
C3903 H3896 0.950 . S
C3903 C3900 1.387 . S
C3904 C3905 1.387 . S
C3904 H3908 0.950 . S
C3904 C3913 1.390 . S
C3905 C3904 1.387 . S
C3905 C3907 1.387 . S
H3906 C3913 0.950 . S
C3907 C3905 1.387 . S
C3907 C3909 1.390 . S
C3907 H3911 0.950 . S
H3908 C3904 0.950 . S
C3909 C3907 1.390 . S
C3909 C3910 1.387 . S
C3909 H3912 0.950 . S
C3910 C3909 1.387 . S
C3910 C3913 1.387 . S
H3911 C3907 0.950 . S
H3912 C3909 0.950 . S
C3913 C3904 1.390 . S
C3913 H3906 0.950 . S
C3913 C3910 1.387 . S
C3914 C3915 1.387 . S
C3914 H3918 0.950 . S
C3914 C3923 1.390 . S
C3915 C3914 1.387 . S
C3915 C3917 1.387 . S
H3916 C3923 0.950 . S
C3917 C3915 1.387 . S
C3917 C3919 1.390 . S
C3917 H3921 0.950 . S
H3918 C3914 0.950 . S
C3919 C3917 1.390 . S
C3919 C3920 1.387 . S
C3919 H3922 0.950 . S
C3920 C3919 1.387 . S
C3920 C3923 1.387 . S
H3921 C3917 0.950 . S
H3922 C3919 0.950 . S
C3923 C3914 1.390 . S
C3923 H3916 0.950 . S
C3923 C3920 1.387 . S
C3924 C3925 1.387 . S
C3924 H3928 0.950 . S
C3924 C3933 1.390 . S
C3925 C3924 1.387 . S
C3925 C3927 1.387 . S
H3926 C3933 0.950 . S
C3927 C3925 1.387 . S
C3927 C3929 1.390 . S
C3927 H3931 0.950 . S
H3928 C3924 0.950 . S
C3929 C3927 1.390 . S
C3929 C3930 1.387 . S
C3929 H3932 0.950 . S
C3930 C3929 1.387 . S
C3930 C3933 1.387 . S
H3931 C3927 0.950 . S
H3932 C3929 0.950 . S
C3933 C3924 1.390 . S
C3933 H3926 0.950 . S
C3933 C3930 1.387 . S
C3934 C3935 1.387 . S
C3934 H3938 0.950 . S
C3934 C3943 1.390 . S
C3935 C3934 1.387 . S
C3935 C3937 1.387 . S
H3936 C3943 0.950 . S
C3937 C3935 1.387 . S
C3937 C3939 1.390 . S
C3937 H3941 0.950 . S
H3938 C3934 0.950 . S
C3939 C3937 1.390 . S
C3939 C3940 1.387 . S
C3939 H3942 0.950 . S
C3940 C3939 1.387 . S
C3940 C3943 1.387 . S
H3941 C3937 0.950 . S
H3942 C3939 0.950 . S
C3943 C3934 1.390 . S
C3943 H3936 0.950 . S
C3943 C3940 1.387 . S
C3944 C3945 1.387 . S
C3944 H3948 0.950 . S
C3944 C3953 1.390 . S
C3945 C3944 1.387 . S
C3945 C3947 1.387 . S
H3946 C3953 0.950 . S
C3947 C3945 1.387 . S
C3947 C3949 1.390 . S
C3947 H3951 0.950 . S
H3948 C3944 0.950 . S
C3949 C3947 1.390 . S
C3949 C3950 1.387 . S
C3949 H3952 0.950 . S
C3950 C3949 1.387 . S
C3950 C3953 1.387 . S
H3951 C3947 0.950 . S
H3952 C3949 0.950 . S
C3953 C3944 1.390 . S
C3953 H3946 0.950 . S
C3953 C3950 1.387 . S
C3954 C3955 1.387 . S
C3954 H3958 0.950 . S
C3954 C3963 1.390 . S
C3955 C3954 1.387 . S
C3955 C3957 1.387 . S
H3956 C3963 0.950 . S
C3957 C3955 1.387 . S
C3957 C3959 1.390 . S
C3957 H3961 0.950 . S
H3958 C3954 0.950 . S
C3959 C3957 1.390 . S
C3959 C3960 1.387 . S
C3959 H3962 0.950 . S
C3960 C3959 1.387 . S
C3960 C3963 1.387 . S
H3961 C3957 0.950 . S
H3962 C3959 0.950 . S
C3963 C3954 1.390 . S
C3963 H3956 0.950 . S
C3963 C3960 1.387 . S
C3964 C3965 1.387 1_565 S
C3964 H3968 0.950 . S
C3964 C3973 1.390 . S
C3965 C3964 1.387 1_545 S
C3965 C3967 1.387 . S
H3966 C3973 0.950 . S
C3967 C3965 1.387 . S
C3967 C3969 1.390 . S
C3967 H3971 0.950 . S
H3968 C3964 0.950 . S
C3969 C3967 1.390 . S
C3969 C3970 1.387 . S
C3969 H3972 0.950 . S
C3970 C3969 1.387 . S
C3970 C3973 1.387 1_545 S
H3971 C3967 0.950 . S
H3972 C3969 0.950 . S
C3973 C3964 1.390 . S
C3973 H3966 0.950 . S
C3973 C3970 1.387 1_565 S
C3974 C3975 1.387 . S
C3974 H3978 0.950 . S
C3974 C3983 1.390 . S
C3975 C3974 1.387 . S
C3975 C3977 1.387 . S
H3976 C3983 0.950 . S
C3977 C3975 1.387 . S
C3977 C3979 1.390 . S
C3977 H3981 0.950 1_565 S
H3978 C3974 0.950 . S
C3979 C3977 1.390 . S
C3979 C3980 1.387 . S
C3979 H3982 0.950 1_565 S
C3980 C3979 1.387 . S
C3980 C3983 1.387 . S
H3981 C3977 0.950 1_545 S
H3982 C3979 0.950 1_545 S
C3983 C3974 1.390 . S
C3983 H3976 0.950 . S
C3983 C3980 1.387 . S
C2545 C1781 1.744 . S
C2550 C1929 1.845 . S
C2555 C981 1.598 . S
C2560 C1942 1.565 . S
C2570 C1955 1.573 . S
C2565 C1861 1.581 . S
C2575 C1061 1.741 . S
C2580 C1968 1.741 . S
C2585 C1901 1.673 . S
C2590 C1981 1.782 . S
C2595 C941 1.627 . S
C2600 C1994 1.707 . S
C2605 C1821 1.558 . S
C2610 C2007 1.547 . S
C2615 C1021 1.392 . S
C2620 C2020 1.373 . S
C2625 C661 1.413 . S
C2630 C2033 1.465 . S
C2635 C1621 1.491 . S
C2640 C2046 1.589 . S
C2645 C741 1.790 . S
C2650 C2059 1.764 . S
C2655 C1581 1.744 . S
C2660 C2072 1.773 . S
C2665 C901 1.573 . S
C2670 C2085 1.538 . S
C2680 C2098 1.785 . S
C2675 C1661 1.725 . S
C2690 C2111 1.599 . S
C2685 C821 1.655 . S
C2695 C1141 1.541 . S
C2700 C2124 1.537 . S
C2710 C2137 1.740 . S
C2705 C781 1.689 . S
C2720 C2150 1.637 . S
C2715 C1701 1.691 . S
C2725 C861 1.548 . S
C2730 C2163 1.547 . S
C2735 C1181 1.791 . S
C2740 C2176 1.770 . S
C2750 C2189 1.508 . S
C2745 C1101 1.457 . S
C2755 C1421 1.624 . S
C2760 C2202 1.586 . S
C2770 C2215 1.555 . S
C2765 C381 1.579 . S
C2780 C2228 2.048 . S
C2775 C1501 1.811 . S
C2790 C2241 1.541 . S
C2785 C461 1.537 . S
C2800 C2254 1.707 . S
C2795 C1541 1.702 . S
C2805 C341 1.460 . S
C2810 C2267 1.424 . S
C2820 C2280 1.580 . S
C2815 C1461 1.599 . S
C2825 C421 1.753 . S
C2830 C2293 1.979 . S
C2840 C2306 1.701 . S
C2835 C61 1.714 . S
C2850 C2319 1.795 . S
C2845 C1261 1.674 . S
C2855 C141 1.668 . S
C2860 C2332 1.655 . S
C2870 C2345 1.491 . S
C2865 C1221 1.493 . S
C2880 C2358 1.395 . S
C2875 C301 1.344 . S
C2885 C1301 1.653 . S
C2890 C2371 1.602 . S
C2900 C2384 1.456 . S
C2895 C221 1.457 . S
C2910 C2397 1.769 . S
C2905 C541 1.704 . S
C2915 C181 1.622 . S
C2920 C2410 1.569 . S
C2930 C2423 1.471 . S
C2925 C1341 1.478 . S
C2935 C261 1.718 . S
C2940 C2436 1.784 . S
C2950 C2449 1.663 . S
C2945 C581 1.678 . S
C2955 C501 1.720 . S
C2960 C2462 1.699 . S
C2965 C701 1.465 . S
C2970 C2475 1.556 . S
C2980 C2488 1.775 . S
C2975 C621 1.739 . S
C2985 C1741 1.593 . S
C2990 C2501 1.558 . S
C2995 C101 1.608 . S
C3000 C2514 1.723 . S
C3010 C2527 1.518 . S
C3005 C21 1.522 . S
C3020 C2540 1.374 . S
C3015 C1381 1.332 . S
C3025 C1335 1.718 . S
C3030 C1928 1.731 . S
C3035 C535 1.734 . S
C3040 C1941 1.754 . S
C3045 C1362 1.581 . S
C3050 C1950 1.569 . S
C3060 C1967 1.507 . S
C3055 C1295 1.479 . S
C3065 C575 1.734 . S
C3070 C1976 1.832 . S
C3075 C1215 1.528 . S
C3080 C1989 1.407 . S
C3090 C2002 1.790 . S
C3085 C495 1.737 . S
C3095 C1242 1.402 . S
C3100 C2019 1.471 . S
C3105 C1255 1.742 . S
C3110 C2032 1.712 . S
C3120 C2041 1.685 . S
C3115 C562 1.937 . S
C3125 C1202 1.744 . S
C3130 C2054 1.592 . S
C3140 C2067 1.581 . S
C3135 C482 1.784 . S
C3145 C522 1.680 . S
C3150 C2080 1.759 . S
C3155 C1375 1.738 . S
C3160 C2097 1.734 . S
C3170 C2106 1.461 . S
C3165 C1282 1.674 . S
C3180 C2123 1.691 . S
C3175 C1322 1.705 . S
C3185 C455 1.652 . S
C3190 C2071 1.665 . S
C3195 C1415 1.557 . S
C3200 C2132 1.538 . S
C3205 C1455 1.450 . S
C3210 C2149 1.442 . S
C3220 C2158 1.782 . S
C3215 C1482 1.693 . S
C3230 C2084 1.603 . S
C3225 C442 1.692 . S
C3235 C362 1.629 . S
C3240 C2045 1.611 . S
C3245 C1495 2.083 . S
C3250 C2175 2.109 . S
C3260 C2184 1.399 . S
C3255 C1402 1.604 . S
C3270 C2201 1.765 . S
C3265 C1695 1.775 . S
C3275 C1135 1.367 . S
C3280 C2214 1.367 . S
C3290 C2223 1.543 . S
C3285 C1722 1.573 . S
C3300 C2240 1.761 . S
C3295 C1655 1.702 . S
C3305 C1175 1.941 . S
C3310 C2249 1.968 . S
C3315 C1562 1.770 . S
C3320 C2262 1.778 . S
C3325 C1095 1.561 . S
C3330 C2275 1.599 . S
C3340 C2292 1.781 . S
C3335 C1615 1.710 . S
C3350 C2305 1.829 . S
C3345 C1602 1.767 . S
C3355 C1162 1.768 . S
C3360 C2314 1.745 . S
C3370 C2331 1.862 . S
C3365 C1575 1.893 . S
C3375 C1082 1.603 . S
C3380 C2340 1.606 . S
C3390 C2353 1.320 . S
C3385 C1122 1.493 . S
C3395 C1735 1.657 . S
C3400 C2370 1.607 . S
C3410 C2379 1.655 . S
C3405 C1642 1.635 . S
C3415 C1682 1.772 . S
C3420 C2392 1.721 . S
C3425 C1042 1.576 . S
C3430 C2344 1.584 . S
C3435 C1775 1.766 . S
C3440 C2405 1.742 . S
C3445 C1815 1.373 . S
C3450 C2422 1.361 . S
C3460 C2435 1.521 . S
C3455 C1842 1.524 . S
C3465 C1055 1.720 . S
C3470 C2357 1.654 . S
C3475 C975 1.472 . S
C3480 C2318 1.461 . S
C3490 C2444 1.549 . S
C3485 C1855 1.805 . S
C3495 C1762 1.788 . S
C3500 C2457 1.637 . S
C3510 C1993 1.663 . S
C3505 C215 1.660 . S
C3520 C2006 1.727 . S
C3515 C255 1.707 . S
C3530 C2015 1.495 . S
C3525 C282 1.524 1_554 S
C3540 C1980 1.456 . S
C3535 C175 1.441 . S
C3550 C1963 1.849 . S
C3545 C135 1.740 1_556 S
C3555 C15 1.550 . S
C3560 C1924 1.449 . S
C3565 C55 1.814 . S
C3570 C1937 1.891 . S
C3575 C82 1.451 . S
C3580 C1954 1.531 . S
C3585 C95 1.689 . S
C3590 C2188 1.666 . S
C3595 C122 1.968 . S
C3600 C2470 1.710 . S
C3605 C2 1.776 . S
C3610 C2171 1.604 . S
C3615 C42 1.817 . S
C3620 C2483 1.623 . S
C3625 C242 1.730 . S
C3630 C2496 1.811 . S
C3640 C2136 1.736 . S
C3635 C295 1.750 . S
C3645 C162 1.591 . S
C3650 C2145 1.419 . S
C3655 C202 1.656 . S
C3660 C2162 1.658 . S
C3670 C2487 1.633 . S
C3665 C1535 1.604 . S
C3675 C335 1.615 . S
C3680 C2093 1.572 . S
C3685 C375 1.468 . S
C3690 C2110 1.448 . S
C3695 C402 1.711 . S
C3700 C2119 1.781 . S
C3710 C2500 1.725 . S
C3705 C1522 1.798 . S
C3720 C2474 1.526 . S
C3715 C1442 1.550 . S
C3730 C2058 2.085 . S
C3725 C415 2.069 . S
C3735 C322 1.572 . S
C3740 C2028 1.401 . S
C3745 C815 1.701 . S
C3750 C2266 1.673 . S
C3755 C855 1.398 . S
C3760 C2279 1.401 . S
C3765 C882 1.575 . S
C3770 C2288 1.547 . S
C3775 C775 1.755 . S
C3780 C2253 1.807 . S
C3790 C2236 1.927 . S
C3785 C735 1.912 . S
C3800 C2197 1.849 . S
C3795 C602 1.832 . S
C3810 C2210 1.601 . S
C3805 C655 1.562 . S
C3815 C695 1.748 . S
C3820 C2227 1.820 . S
C3830 C2461 1.825 . S
C3825 C682 1.757 . S
C3835 C722 1.725 . S
C3840 C2509 1.703 . S
C3845 C615 1.929 . S
C3850 C2448 1.895 . S
C3860 C2522 1.627 . S
C3855 C642 1.606 . S
C3865 C842 1.524 . S
C3870 C2535 1.349 . S
C3880 C2409 1.607 . S
C3875 C895 1.664 . S
C3885 C762 1.595 . S
C3890 C2418 1.619 . S
C3895 C802 1.718 . S
C3900 C2431 1.684 . S
C3905 C1895 1.525 . S
C3910 C2526 1.572 . S
C3920 C2366 1.741 . S
C3915 C935 1.802 . S
C3925 C962 1.419 . S
C3930 C2383 1.412 . S
C3935 C1002 1.511 . S
C3940 C2396 1.501 . S
C3945 C1882 1.679 . S
C3950 C2539 1.686 . S
C3955 C1802 1.396 . S
C3960 C2513 1.406 . S
C3970 C2327 1.448 . S
C3965 C1015 1.731 . S
C3980 C2301 1.577 . S
C3975 C922 1.759 . S
