# Generated by pormake.
# Topology ptr, (4,4)-cn, num edge types: 1
# Building blocks:
#     Node 0, Type 0, BuildingBlock: UXUYUI_clean_sbu_0, # of connection points: 4
#     Node 1, Type 0, BuildingBlock: UXUYUI_clean_sbu_0, # of connection points: 4
#     Node 2, Type 0, BuildingBlock: UXUYUI_clean_sbu_0, # of connection points: 4
#     Node 3, Type 0, BuildingBlock: UXUYUI_clean_sbu_0, # of connection points: 4
#     Node 4, Type 0, BuildingBlock: UXUYUI_clean_sbu_0, # of connection points: 4
#     Node 5, Type 0, BuildingBlock: UXUYUI_clean_sbu_0, # of connection points: 4
#     Node 6, Type 0, BuildingBlock: UXUYUI_clean_sbu_0, # of connection points: 4
#     Node 7, Type 0, BuildingBlock: UXUYUI_clean_sbu_0, # of connection points: 4
#     Node 8, Type 0, BuildingBlock: UXUYUI_clean_sbu_0, # of connection points: 4
#     Node 9, Type 0, BuildingBlock: UXUYUI_clean_sbu_0, # of connection points: 4
#     Node 10, Type 0, BuildingBlock: UXUYUI_clean_sbu_0, # of connection points: 4
#     Node 11, Type 0, BuildingBlock: UXUYUI_clean_sbu_0, # of connection points: 4
#     Node 12, Type 0, BuildingBlock: UXUYUI_clean_sbu_0, # of connection points: 4
#     Node 13, Type 0, BuildingBlock: UXUYUI_clean_sbu_0, # of connection points: 4
#     Node 14, Type 0, BuildingBlock: UXUYUI_clean_sbu_0, # of connection points: 4
#     Node 15, Type 0, BuildingBlock: UXUYUI_clean_sbu_0, # of connection points: 4
#     Node 16, Type 0, BuildingBlock: UXUYUI_clean_sbu_0, # of connection points: 4
#     Node 17, Type 0, BuildingBlock: UXUYUI_clean_sbu_0, # of connection points: 4
#     Node 18, Type 1, BuildingBlock: AZAVOO_clean_linker_0, # of connection points: 4
#     Node 19, Type 1, BuildingBlock: AZAVOO_clean_linker_0, # of connection points: 4
#     Node 20, Type 1, BuildingBlock: AZAVOO_clean_linker_0, # of connection points: 4
#     Node 21, Type 1, BuildingBlock: AZAVOO_clean_linker_0, # of connection points: 4
#     Node 22, Type 1, BuildingBlock: AZAVOO_clean_linker_0, # of connection points: 4
#     Node 23, Type 1, BuildingBlock: AZAVOO_clean_linker_0, # of connection points: 4
#     Node 24, Type 1, BuildingBlock: AZAVOO_clean_linker_0, # of connection points: 4
#     Node 25, Type 1, BuildingBlock: AZAVOO_clean_linker_0, # of connection points: 4
#     Node 26, Type 1, BuildingBlock: AZAVOO_clean_linker_0, # of connection points: 4
#     Node 27, Type 1, BuildingBlock: AZAVOO_clean_linker_0, # of connection points: 4
#     Node 28, Type 1, BuildingBlock: AZAVOO_clean_linker_0, # of connection points: 4
#     Node 29, Type 1, BuildingBlock: AZAVOO_clean_linker_0, # of connection points: 4
#     Node 30, Type 1, BuildingBlock: AZAVOO_clean_linker_0, # of connection points: 4
#     Node 31, Type 1, BuildingBlock: AZAVOO_clean_linker_0, # of connection points: 4
#     Node 32, Type 1, BuildingBlock: AZAVOO_clean_linker_0, # of connection points: 4
#     Node 33, Type 1, BuildingBlock: AZAVOO_clean_linker_0, # of connection points: 4
#     Node 34, Type 1, BuildingBlock: AZAVOO_clean_linker_0, # of connection points: 4
#     Node 35, Type 1, BuildingBlock: AZAVOO_clean_linker_0, # of connection points: 4
#     Edge 36, Type (0, 1), None
#     Edge 37, Type (0, 1), None
#     Edge 38, Type (0, 1), None
#     Edge 39, Type (0, 1), None
#     Edge 40, Type (0, 1), None
#     Edge 41, Type (0, 1), None
#     Edge 42, Type (0, 1), None
#     Edge 43, Type (0, 1), None
#     Edge 44, Type (0, 1), None
#     Edge 45, Type (0, 1), None
#     Edge 46, Type (0, 1), None
#     Edge 47, Type (0, 1), None
#     Edge 48, Type (0, 1), None
#     Edge 49, Type (0, 1), None
#     Edge 50, Type (0, 1), None
#     Edge 51, Type (0, 1), None
#     Edge 52, Type (0, 1), None
#     Edge 53, Type (0, 1), None
#     Edge 54, Type (0, 1), None
#     Edge 55, Type (0, 1), None
#     Edge 56, Type (0, 1), None
#     Edge 57, Type (0, 1), None
#     Edge 58, Type (0, 1), None
#     Edge 59, Type (0, 1), None
#     Edge 60, Type (0, 1), None
#     Edge 61, Type (0, 1), None
#     Edge 62, Type (0, 1), None
#     Edge 63, Type (0, 1), None
#     Edge 64, Type (0, 1), None
#     Edge 65, Type (0, 1), None
#     Edge 66, Type (0, 1), None
#     Edge 67, Type (0, 1), None
#     Edge 68, Type (0, 1), None
#     Edge 69, Type (0, 1), None
#     Edge 70, Type (0, 1), None
#     Edge 71, Type (0, 1), None
#     Edge 72, Type (0, 1), None
#     Edge 73, Type (0, 1), None
#     Edge 74, Type (0, 1), None
#     Edge 75, Type (0, 1), None
#     Edge 76, Type (0, 1), None
#     Edge 77, Type (0, 1), None
#     Edge 78, Type (0, 1), None
#     Edge 79, Type (0, 1), None
#     Edge 80, Type (0, 1), None
#     Edge 81, Type (0, 1), None
#     Edge 82, Type (0, 1), None
#     Edge 83, Type (0, 1), None
#     Edge 84, Type (0, 1), None
#     Edge 85, Type (0, 1), None
#     Edge 86, Type (0, 1), None
#     Edge 87, Type (0, 1), None
#     Edge 88, Type (0, 1), None
#     Edge 89, Type (0, 1), None
#     Edge 90, Type (0, 1), None
#     Edge 91, Type (0, 1), None
#     Edge 92, Type (0, 1), None
#     Edge 93, Type (0, 1), None
#     Edge 94, Type (0, 1), None
#     Edge 95, Type (0, 1), None
#     Edge 96, Type (0, 1), None
#     Edge 97, Type (0, 1), None
#     Edge 98, Type (0, 1), None
#     Edge 99, Type (0, 1), None
#     Edge 100, Type (0, 1), None
#     Edge 101, Type (0, 1), None
#     Edge 102, Type (0, 1), None
#     Edge 103, Type (0, 1), None
#     Edge 104, Type (0, 1), None
#     Edge 105, Type (0, 1), None
#     Edge 106, Type (0, 1), None
#     Edge 107, Type (0, 1), None
# Relax obj value: 0.141
# Max RMSD: 0.323
# Mean RMSD: 0.191
data_MOF--net-ptr--node1-UXUYUI_clean_sbu_0--node2-AZAVOO_clean_linker_0--edge1-none
_symmetry_space_group_name_H-M    P1
_symmetry_Int_Tables_number       1
_symmetry_cell_setting            triclinic
loop_
_symmetry_equiv_pos_as_xyz
'x, y, z'
_cell_length_a     60.847601
_cell_length_b     60.218363
_cell_length_c     49.2382
_cell_angle_alpha  93.314808
_cell_angle_beta   92.840661
_cell_angle_gamma 120.12169
loop_
_atom_site_label
_atom_site_type_symbol
_atom_site_fract_x
_atom_site_fract_y
_atom_site_fract_z
_atom_type_partial_charge
Li0 Li 0.98443 0.34864 0.01643 0.0
Li1 Li 0.02683 0.3721 0.04057 0.0
Li2 Li 0.99503 0.38522 0.04882 0.0
Li3 Li 0.01452 0.39236 0.00604 0.0
C4 C 0.97487 0.3336 0.06858 0.0
N5 N 0.93622 0.29446 0.09335 0.0
C6 C 0.97846 0.31453 0.07924 0.0
C7 C 0.95177 0.33296 0.07078 0.0
C8 C 0.95865 0.29484 0.09161 0.0
C9 C 0.93242 0.31296 0.0833 0.0
C10 C 0.03965 0.367 0.98844 0.0
C11 C 0.08409 0.39634 0.98333 0.0
N12 N 0.08369 0.37914 0.96385 0.0
C13 C 0.03968 0.34963 0.96837 0.0
C14 C 0.06203 0.39056 0.996 0.0
C15 C 0.06213 0.35612 0.95618 0.0
C16 C 0.94151 0.31494 0.98124 0.0
N17 N 0.9586 0.31596 0.00081 0.0
C18 C 0.93869 0.27007 0.99659 0.0
C19 C 0.95787 0.29426 0.00832 0.0
C20 C 0.92037 0.26836 0.97673 0.0
C21 C 0.9221 0.29122 0.96889 0.0
H22 H 0.94306 0.3326 0.97514 0.0
H23 H 0.97217 0.29574 0.02341 0.0
C24 C 0.06481 0.38436 0.08211 0.0
N25 N 0.05234 0.36841 0.05905 0.0
C26 C 0.08211 0.38084 0.09824 0.0
C27 C 0.07328 0.34452 0.0665 0.0
C28 C 0.05617 0.34877 0.05096 0.0
C29 C 0.08635 0.36056 0.0906 0.0
H30 H 0.06083 0.39942 0.08828 0.0
H31 H 0.04558 0.33615 0.03273 0.0
C32 C 0.95988 0.38402 0.00859 0.0
N33 N 0.92304 0.3978 0.00225 0.0
C34 C 0.96614 0.40794 0.9996 0.0
C35 C 0.93477 0.36693 0.0139 0.0
C36 C 0.94728 0.41459 0.99664 0.0
C37 C 0.91645 0.37431 0.0107 0.0
C38 C 0.04323 0.43336 0.04819 0.0
C39 C 0.02897 0.44556 0.04545 0.0
C40 C 0.06937 0.44807 0.05619 0.0
C41 C 0.04111 0.47234 0.05071 0.0
C42 C 0.08084 0.47482 0.06124 0.0
N43 N 0.06659 0.4863 0.05842 0.0
C44 C 0.99806 0.39937 0.10208 0.0
C45 C 0.97113 0.41058 0.07738 0.0
C46 C 0.99695 0.41199 0.12603 0.0
N47 N 0.98569 0.3993 0.07835 0.0
C48 C 0.96949 0.42353 0.10104 0.0
C49 C 0.98313 0.42489 0.12554 0.0
H50 H 0.0096 0.39036 0.1021 0.0
H51 H 0.96173 0.41058 0.05822 0.0
C52 C 0.00705 0.40044 0.95359 0.0
N53 N 0.02319 0.41291 0.9764 0.0
C54 C 0.00764 0.4139 0.93134 0.0
C55 C 0.0425 0.45262 0.95585 0.0
C56 C 0.04131 0.43831 0.97767 0.0
C57 C 0.02493 0.44053 0.93266 0.0
H58 H 0.99287 0.3802 0.95327 0.0
H59 H 0.05411 0.44775 0.99592 0.0
O60 O 0.99399 0.35283 0.05616 0.0
O61 O 0.01779 0.36069 0.00063 0.0
O62 O 0.97801 0.377 0.01128 0.0
O63 O 0.03179 0.40716 0.04327 0.0
H64 H 0.99632 0.31486 0.07778 0.0
H65 H 0.94884 0.34777 0.06298 0.0
H66 H 0.96109 0.27986 0.09982 0.0
H67 H 0.91439 0.31218 0.08507 0.0
H68 H 0.10154 0.41449 0.989 0.0
H69 H 0.02251 0.3313 0.96233 0.0
H70 H 0.06248 0.40426 0.01149 0.0
H71 H 0.06242 0.34285 0.94062 0.0
H72 H 0.93797 0.25293 0.00331 0.0
H73 H 0.90871 0.2908 0.95325 0.0
H74 H 0.09161 0.39346 0.1168 0.0
H75 H 0.0763 0.3289 0.0597 0.0
H76 H 0.98534 0.42127 0.99492 0.0
H77 H 0.92942 0.34811 0.02026 0.0
H78 H 0.9519 0.43309 0.98984 0.0
H79 H 0.89698 0.36132 0.01485 0.0
H80 H 0.00879 0.43451 0.03929 0.0
H81 H 0.0807 0.4389 0.05837 0.0
H82 H 0.03029 0.48203 0.04864 0.0
H83 H 0.10106 0.48645 0.0674 0.0
H84 H 0.00737 0.41221 0.14464 0.0
H85 H 0.95871 0.43336 0.09992 0.0
H86 H 0.99413 0.4037 0.91364 0.0
H87 H 0.0561 0.47313 0.95773 0.0
Li88 Li 0.65367 0.6175 0.06515 0.0
Li89 Li 0.63458 0.64277 0.07993 0.0
Li90 Li 0.61631 0.59769 0.09064 0.0
Li91 Li 0.61159 0.60708 0.04414 0.0
C92 C 0.66958 0.63026 0.12049 0.0
N93 N 0.70883 0.63549 0.15601 0.0
C94 C 0.69082 0.65464 0.12821 0.0
C95 C 0.66804 0.60861 0.13125 0.0
C96 C 0.71055 0.65687 0.14606 0.0
C97 C 0.68814 0.61164 0.14907 0.0
C98 C 0.64281 0.65508 0.02625 0.0
C99 C 0.62026 0.67553 0.00909 0.0
N100 N 0.638 0.68671 0.99095 0.0
C101 C 0.66079 0.66673 0.00745 0.0
C102 C 0.62234 0.65945 0.02709 0.0
C103 C 0.65802 0.68268 0.98977 0.0
C104 C 0.68375 0.60302 0.03643 0.0
N105 N 0.68478 0.62104 0.05519 0.0
C106 C 0.72876 0.64953 0.04955 0.0
C107 C 0.70672 0.64385 0.06215 0.0
C108 C 0.72799 0.63179 0.02912 0.0
C109 C 0.70528 0.60795 0.02319 0.0
H110 H 0.66578 0.58559 0.03028 0.0
H111 H 0.7067 0.65835 0.0761 0.0
C112 C 0.62734 0.67927 0.11002 0.0
N113 N 0.64285 0.67623 0.09321 0.0
C114 C 0.63354 0.70392 0.12061 0.0
C115 C 0.67159 0.72169 0.09644 0.0
C116 C 0.66469 0.69669 0.0864 0.0
C117 C 0.6559 0.72556 0.11377 0.0
H118 H 0.6103 0.66252 0.11536 0.0
H119 H 0.67674 0.69355 0.07318 0.0
C120 C 0.61862 0.55907 0.05637 0.0
N121 N 0.61028 0.50953 0.056 0.0
C122 C 0.59783 0.53876 0.04035 0.0
C123 C 0.63541 0.55426 0.07182 0.0
C124 C 0.59387 0.51383 0.04056 0.0
C125 C 0.63081 0.52906 0.07146 0.0
C126 C 0.57197 0.59944 0.07644 0.0
C127 C 0.56063 0.57318 0.06794 0.0
C128 C 0.55685 0.60938 0.08515 0.0
C129 C 0.5343 0.55724 0.06829 0.0
C130 C 0.53055 0.59283 0.08517 0.0
N131 N 0.51992 0.56732 0.07683 0.0
C132 C 0.60041 0.58922 0.14228 0.0
C133 C 0.58489 0.54995 0.11442 0.0
C134 C 0.58593 0.57607 0.16315 0.0
N135 N 0.59936 0.57611 0.11839 0.0
C136 C 0.57011 0.53599 0.13482 0.0
C137 C 0.57011 0.54914 0.15934 0.0
H138 H 0.61188 0.61005 0.1447 0.0
H139 H 0.58384 0.53994 0.09508 0.0
C140 C 0.60616 0.59227 0.99009 0.0
N141 N 0.59277 0.59576 0.00943 0.0
C142 C 0.59528 0.58326 0.96337 0.0
C143 C 0.55686 0.58168 0.97676 0.0
C144 C 0.56872 0.59118 0.00329 0.0
C145 C 0.57009 0.5773 0.95643 0.0
H146 H 0.62539 0.59645 0.99559 0.0
H147 H 0.55862 0.59461 0.0189 0.0
O148 O 0.65005 0.62779 0.10316 0.0
O149 O 0.6452 0.63927 0.0435 0.0
O150 O 0.62274 0.58357 0.05636 0.0
O151 O 0.59779 0.61536 0.07676 0.0
H152 H 0.69209 0.67164 0.12035 0.0
H153 H 0.65141 0.58971 0.12611 0.0
H154 H 0.7272 0.67559 0.15204 0.0
H155 H 0.68726 0.59503 0.15747 0.0
H156 H 0.60454 0.67911 0.00951 0.0
H157 H 0.67669 0.66345 0.00652 0.0
H158 H 0.60819 0.65052 0.04145 0.0
H159 H 0.67179 0.69182 0.97509 0.0
H160 H 0.74587 0.66809 0.05484 0.0
H161 H 0.70358 0.59394 0.00716 0.0
H162 H 0.62112 0.70597 0.13426 0.0
H163 H 0.68883 0.73781 0.09042 0.0
H164 H 0.58487 0.54223 0.02793 0.0
H165 H 0.65197 0.56985 0.0837 0.0
H166 H 0.57777 0.49791 0.02839 0.0
H167 H 0.64361 0.52505 0.08338 0.0
H168 H 0.57203 0.5652 0.06109 0.0
H169 H 0.56534 0.62968 0.09184 0.0
H170 H 0.52529 0.53688 0.06177 0.0
H171 H 0.51861 0.60026 0.09186 0.0
H172 H 0.58668 0.58692 0.18185 0.0
H173 H 0.55791 0.51527 0.13091 0.0
H174 H 0.60657 0.581 0.94833 0.0
H175 H 0.53741 0.57732 0.97243 0.0
Li176 Li 0.39403 0.99663 0.0015 0.0
Li177 Li 0.40053 0.00499 0.05075 0.0
Li178 Li 0.35696 0.97769 0.02842 0.0
Li179 Li 0.38069 0.02482 0.02514 0.0
C180 C 0.39564 0.95548 0.02849 0.0
N181 N 0.41586 0.92339 0.02765 0.0
C182 C 0.42148 0.96542 0.03654 0.0
C183 C 0.38003 0.92918 0.02027 0.0
C184 C 0.43136 0.9489 0.0359 0.0
C185 C 0.39063 0.91328 0.0199 0.0
C186 C 0.44146 0.0451 0.02676 0.0
C187 C 0.47998 0.08522 0.04184 0.0
N188 N 0.49407 0.07473 0.03353 0.0
C189 C 0.45632 0.0348 0.01813 0.0
C190 C 0.45335 0.07058 0.0385 0.0
C191 C 0.48289 0.05006 0.02182 0.0
C192 C 0.40993 0.00991 0.9501 0.0
N193 N 0.40784 0.99317 0.96855 0.0
C194 C 0.42879 0.9771 0.94057 0.0
C195 C 0.41652 0.97654 0.96399 0.0
C196 C 0.43196 0.99478 0.9215 0.0
C197 C 0.42182 0.01096 0.9263 0.0
H198 H 0.40277 0.02287 0.95423 0.0
H199 H 0.41469 0.96335 0.9788 0.0
C200 C 0.40383 0.98949 0.10068 0.0
N201 N 0.41915 0.00685 0.08391 0.0
C202 C 0.41386 0.98719 0.12567 0.0
C203 C 0.45559 0.02057 0.11575 0.0
C204 C 0.44461 0.02246 0.09095 0.0
C205 C 0.44015 0.00259 0.13342 0.0
H206 H 0.38366 0.97729 0.09449 0.0
H207 H 0.45652 0.03605 0.07731 0.0
C208 C 0.34604 0.9795 0.97338 0.0
N209 N 0.31567 0.94541 0.92925 0.0
C210 C 0.33166 0.98581 0.95584 0.0
C211 C 0.34499 0.95588 0.9685 0.0
C212 C 0.31639 0.96829 0.93365 0.0
C213 C 0.32954 0.93892 0.94607 0.0
C214 C 0.37237 0.02011 0.08186 0.0
C215 C 0.35539 0.00902 0.10171 0.0
C216 C 0.39283 0.04536 0.08703 0.0
C217 C 0.35915 0.0235 0.1265 0.0
C218 C 0.39595 0.05919 0.11209 0.0
N219 N 0.37918 0.04807 0.13114 0.0
C220 C 0.32408 0.93353 0.05203 0.0
C221 C 0.30341 0.95126 0.02665 0.0
C222 C 0.30146 0.91704 0.06311 0.0
N223 N 0.32469 0.9505 0.03467 0.0
C224 C 0.28034 0.93509 0.03725 0.0
C225 C 0.2794 0.91829 0.05643 0.0
H226 H 0.34155 0.93404 0.05868 0.0
H227 H 0.30472 0.9655 0.01338 0.0
C228 C 0.38961 0.07108 0.00538 0.0
N229 N 0.37531 0.05276 0.02185 0.0
C230 C 0.38302 0.08928 0.99856 0.0
C231 C 0.34781 0.07004 0.02678 0.0
C232 C 0.35504 0.05214 0.03297 0.0
C233 C 0.36145 0.08849 0.00874 0.0
H234 H 0.40531 0.07067 0.99643 0.0
H235 H 0.34377 0.03701 0.04563 0.0
O236 O 0.38545 0.97121 0.0291 0.0
O237 O 0.41542 0.03063 0.02316 0.0
O238 O 0.36095 0.99642 0.99525 0.0
O239 O 0.36915 0.00609 0.05764 0.0
H240 H 0.43381 0.98565 0.04318 0.0
H241 H 0.35993 0.92113 0.01419 0.0
H242 H 0.45134 0.95635 0.042 0.0
H243 H 0.37879 0.8929 0.01349 0.0
H244 H 0.48943 0.10493 0.05099 0.0
H245 H 0.4475 0.01526 0.00872 0.0
H246 H 0.44213 0.07899 0.04491 0.0
H247 H 0.49462 0.04229 0.01535 0.0
H248 H 0.43654 0.96446 0.93802 0.0
H249 H 0.42335 0.02457 0.912 0.0
H250 H 0.40104 0.9735 0.1388 0.0
H251 H 0.47597 0.03268 0.12072 0.0
H252 H 0.33227 0.00403 0.95937 0.0
H253 H 0.35601 0.95071 0.98184 0.0
H254 H 0.30512 0.97287 0.91991 0.0
H255 H 0.32857 0.92058 0.94203 0.0
H256 H 0.33952 0.98942 0.09799 0.0
H257 H 0.40617 0.05413 0.0719 0.0
H258 H 0.34614 0.01521 0.14204 0.0
H259 H 0.41172 0.07876 0.1164 0.0
H260 H 0.30176 0.90478 0.0782 0.0
H261 H 0.26374 0.93655 0.03147 0.0
H262 H 0.39377 0.10278 0.98413 0.0
H263 H 0.33116 0.06883 0.03518 0.0
Li264 Li 0.01868 0.65352 0.06468 0.0
Li265 Li 0.9885 0.60946 0.07583 0.0
Li266 Li 0.00657 0.61621 0.03334 0.0
Li267 Li 0.97628 0.62914 0.04048 0.0
C268 C 0.0456 0.62282 0.06362 0.0
N269 N 0.08614 0.61768 0.04868 0.0
C270 C 0.04865 0.6028 0.07244 0.0
C271 C 0.06329 0.64034 0.04737 0.0
C272 C 0.06924 0.6005 0.06462 0.0
C273 C 0.08363 0.6374 0.04 0.0
C274 C 0.98845 0.65 0.10706 0.0
C275 C 0.97573 0.66644 0.14528 0.0
N276 N 0.99569 0.66864 0.16135 0.0
C277 C 0.00888 0.65245 0.12396 0.0
C278 C 0.97178 0.6571 0.11777 0.0
C279 C 0.0122 0.66192 0.15135 0.0
C280 C 0.03671 0.70528 0.08221 0.0
N281 N 0.04369 0.68711 0.08 0.0
C282 C 0.08478 0.71659 0.10269 0.0
C283 C 0.06707 0.69218 0.09015 0.0
C284 C 0.07816 0.73585 0.10555 0.0
C285 C 0.05366 0.72985 0.09512 0.0
H286 H 0.01775 0.70047 0.07441 0.0
H287 H 0.07194 0.67724 0.08884 0.0
C288 C 0.98363 0.56654 0.09739 0.0
N289 N 0.97911 0.58609 0.10347 0.0
C290 C 0.98244 0.55042 0.11716 0.0
C291 C 0.96974 0.57338 0.14855 0.0
C292 C 0.97122 0.58915 0.12807 0.0
C293 C 0.97633 0.55433 0.14346 0.0
H294 H 0.98928 0.56422 0.07743 0.0
H295 H 0.96704 0.60437 0.13229 0.0
C296 C 0.00576 0.64966 0.99743 0.0
N297 N 0.99779 0.6507 0.9419 0.0
C298 C 0.98693 0.62755 0.98152 0.0
C299 C 0.02048 0.67227 0.98509 0.0
C300 C 0.98323 0.62848 0.95348 0.0
C301 C 0.01618 0.67241 0.95698 0.0
C302 C 0.94537 0.5763 0.04224 0.0
C303 C 0.93216 0.55355 0.02478 0.0
C304 C 0.93285 0.58133 0.06267 0.0
C305 C 0.90655 0.53623 0.02793 0.0
C306 C 0.90723 0.56352 0.06517 0.0
N307 N 0.89472 0.54153 0.04789 0.0
C308 C 0.00554 0.57381 0.00663 0.0
C309 C 0.03244 0.61266 0.98734 0.0
C310 C 0.00878 0.55941 0.98568 0.0
N311 N 0.01677 0.59982 0.00667 0.0
C312 C 0.03617 0.59901 0.96593 0.0
C313 C 0.02366 0.57194 0.96453 0.0
H314 H 0.99327 0.56416 0.02237 0.0
H315 H 0.04125 0.63338 0.9879 0.0
C316 C 0.96005 0.6603 0.0185 0.0
N317 N 0.95158 0.63509 0.02178 0.0
C318 C 0.94563 0.66725 0.0019 0.0
C319 C 0.91347 0.6222 0.9931 0.0
C320 C 0.92877 0.61608 0.00941 0.0
C321 C 0.92195 0.64808 0.98879 0.0
H322 H 0.97855 0.67501 0.02804 0.0
H323 H 0.92256 0.59612 0.01155 0.0
O324 O 0.02533 0.62519 0.07061 0.0
O325 O 0.98488 0.64112 0.08005 0.0
O326 O 0.00975 0.64941 0.02499 0.0
O327 O 0.97049 0.59325 0.03931 0.0
H328 H 0.03539 0.58923 0.08528 0.0
H329 H 0.0611 0.65584 0.04018 0.0
H330 H 0.0718 0.58506 0.07125 0.0
H331 H 0.09734 0.65071 0.02728 0.0
H332 H 0.96295 0.67198 0.15384 0.0
H333 H 0.02196 0.64701 0.11614 0.0
H334 H 0.95594 0.65539 0.10492 0.0
H335 H 0.02788 0.66388 0.16466 0.0
H336 H 0.10352 0.72029 0.10984 0.0
H337 H 0.04745 0.7438 0.09719 0.0
H338 H 0.98705 0.53556 0.11218 0.0
H339 H 0.96483 0.57697 0.16852 0.0
H340 H 0.97531 0.60986 0.99065 0.0
H341 H 0.03508 0.68955 0.99714 0.0
H342 H 0.96877 0.61152 0.94092 0.0
H343 H 0.02745 0.68978 0.94714 0.0
H344 H 0.94162 0.54935 0.00892 0.0
H345 H 0.94266 0.59875 0.07645 0.0
H346 H 0.89608 0.51857 0.01452 0.0
H347 H 0.89729 0.56717 0.08085 0.0
H348 H 0.99905 0.53861 0.98552 0.0
H349 H 0.04754 0.60943 0.94988 0.0
H350 H 0.95327 0.68742 0.999 0.0
H351 H 0.89515 0.6067 0.98401 0.0
Li352 Li 0.35031 0.38537 0.01258 0.0
Li353 Li 0.39544 0.39701 0.03079 0.0
Li354 Li 0.38677 0.40744 0.98534 0.0
Li355 Li 0.3717 0.36401 0.99208 0.0
C356 C 0.38669 0.44383 0.01554 0.0
N357 N 0.39788 0.4917 0.00077 0.0
C358 C 0.41004 0.46568 0.02491 0.0
C359 C 0.36897 0.44629 0.99875 0.0
C360 C 0.41535 0.48973 0.0172 0.0
C361 C 0.375 0.47067 0.99149 0.0
C362 C 0.35987 0.34078 0.0366 0.0
C363 C 0.37837 0.31453 0.04654 0.0
N364 N 0.35456 0.29363 0.04632 0.0
C365 C 0.33559 0.31905 0.03659 0.0
C366 C 0.38145 0.33851 0.04166 0.0
C367 C 0.33331 0.29539 0.04151 0.0
C368 C 0.29922 0.35581 0.02338 0.0
N369 N 0.31961 0.38017 0.02592 0.0
C370 C 0.29951 0.39416 0.05754 0.0
C371 C 0.31991 0.3994 0.04205 0.0
C372 C 0.27893 0.3687 0.05705 0.0
C373 C 0.27867 0.34955 0.03897 0.0
H374 H 0.29962 0.34091 0.01044 0.0
H375 H 0.33656 0.41854 0.044 0.0
C376 C 0.44022 0.43017 0.06555 0.0
N377 N 0.41715 0.40806 0.06354 0.0
C378 C 0.4542 0.44058 0.09101 0.0
C379 C 0.42112 0.40434 0.11129 0.0
C380 C 0.40758 0.39497 0.08565 0.0
C381 C 0.44439 0.42774 0.11426 0.0
H382 H 0.44718 0.44029 0.04762 0.0
H383 H 0.38887 0.37786 0.08363 0.0
C384 C 0.34405 0.37502 0.94689 0.0
N385 N 0.32772 0.36978 0.8923 0.0
C386 C 0.35426 0.36619 0.92706 0.0
C387 C 0.3253 0.38089 0.939 0.0
C388 C 0.34582 0.36376 0.89956 0.0
C389 C 0.31736 0.3782 0.91128 0.0
C390 C 0.42501 0.38884 0.98344 0.0
C391 C 0.42508 0.38858 0.95505 0.0
C392 C 0.4432 0.38586 0.99866 0.0
C393 C 0.44317 0.38493 0.94228 0.0
C394 C 0.46095 0.3822 0.98512 0.0
N395 N 0.46056 0.3818 0.95745 0.0
C396 C 0.42992 0.44742 0.96751 0.0
C397 C 0.39381 0.4347 0.93635 0.0
C398 C 0.44614 0.46334 0.94922 0.0
N399 N 0.40438 0.43288 0.96051 0.0
C400 C 0.4094 0.45028 0.91728 0.0
C401 C 0.43605 0.46422 0.92328 0.0
H402 H 0.43782 0.44573 0.98692 0.0
H403 H 0.37348 0.42336 0.93127 0.0
C404 C 0.33916 0.31512 0.9659 0.0
N405 N 0.36386 0.33118 0.97588 0.0
C406 C 0.33116 0.29009 0.95493 0.0
C407 C 0.37418 0.29862 0.96474 0.0
C408 C 0.38134 0.32346 0.97552 0.0
C409 C 0.34877 0.28156 0.95435 0.0
H410 H 0.3256 0.32169 0.96685 0.0
H411 H 0.40064 0.33623 0.98432 0.0
O412 O 0.3814 0.42 0.0221 0.0
O413 O 0.36261 0.36395 0.03074 0.0
O414 O 0.35187 0.37746 0.97395 0.0
O415 O 0.40763 0.39256 0.99649 0.0
H416 H 0.42397 0.46407 0.03784 0.0
H417 H 0.35089 0.42948 0.99117 0.0
H418 H 0.43338 0.50682 0.02421 0.0
H419 H 0.36154 0.47287 0.9784 0.0
H420 H 0.3949 0.31248 0.0503 0.0
H421 H 0.31867 0.32035 0.03266 0.0
H422 H 0.40039 0.35502 0.04134 0.0
H423 H 0.31463 0.2784 0.04143 0.0
H424 H 0.30036 0.40979 0.07045 0.0
H425 H 0.2635 0.32963 0.0379 0.0
H426 H 0.47204 0.45878 0.09267 0.0
H427 H 0.41274 0.39422 0.12889 0.0
H428 H 0.3684 0.36108 0.93282 0.0
H429 H 0.31708 0.38757 0.95414 0.0
H430 H 0.35362 0.35701 0.884 0.0
H431 H 0.30296 0.38279 0.90485 0.0
H432 H 0.41152 0.39142 0.94301 0.0
H433 H 0.44352 0.38625 0.0207 0.0
H434 H 0.44344 0.38467 0.92031 0.0
H435 H 0.47506 0.37972 0.99662 0.0
H436 H 0.46648 0.47423 0.95506 0.0
H437 H 0.40073 0.45032 0.89756 0.0
H438 H 0.31141 0.27755 0.94707 0.0
H439 H 0.38823 0.29258 0.96529 0.0
Li440 Li 0.61821 0.98103 0.05959 0.0
Li441 Li 0.60442 0.00881 0.07695 0.0
Li442 Li 0.59314 0.99107 0.02893 0.0
Li443 Li 0.63745 0.02328 0.04547 0.0
C444 C 0.57173 0.95727 0.08272 0.0
N445 N 0.5501 0.92854 0.12578 0.0
C446 C 0.58676 0.961 0.10687 0.0
C447 C 0.54571 0.93895 0.08049 0.0
C448 C 0.57547 0.94628 0.1284 0.0
C449 C 0.53513 0.9246 0.10248 0.0
C450 C 0.65491 0.0357 0.09947 0.0
C451 C 0.66987 0.08025 0.11436 0.0
N452 N 0.68677 0.08003 0.13333 0.0
C453 C 0.67248 0.03595 0.11905 0.0
C454 C 0.6536 0.05804 0.09703 0.0
C455 C 0.6884 0.05854 0.136 0.0
C456 C 0.65229 0.9661 0.07638 0.0
N457 N 0.62708 0.95635 0.0691 0.0
C458 C 0.61751 0.91438 0.07936 0.0
C459 C 0.60972 0.93095 0.06987 0.0
C460 C 0.64334 0.92415 0.0881 0.0
C461 C 0.66091 0.95027 0.08598 0.0
H462 H 0.66559 0.98641 0.0754 0.0
H463 H 0.58981 0.92367 0.06365 0.0
C464 C 0.56557 0.0094 0.10411 0.0
N465 N 0.59029 0.01544 0.10825 0.0
C466 C 0.55145 0.00734 0.12632 0.0
C467 C 0.58887 0.01924 0.15671 0.0
C468 C 0.60217 0.02068 0.13393 0.0
C469 C 0.56298 0.01173 0.15303 0.0
H470 H 0.55639 0.00463 0.08353 0.0
H471 H 0.6214 0.0243 0.13697 0.0
C472 C 0.62564 0.97014 0.01031 0.0
N473 N 0.62766 0.92801 0.98822 0.0
C474 C 0.64834 0.97332 0.00115 0.0
C475 C 0.60389 0.94554 0.00795 0.0
C476 C 0.64899 0.95178 0.99012 0.0
C477 C 0.60532 0.92449 0.9968 0.0
C478 C 0.60663 0.04193 0.02377 0.0
C479 C 0.61494 0.03902 0.99853 0.0
C480 C 0.59723 0.05872 0.02747 0.0
C481 C 0.61373 0.05301 0.97742 0.0
C482 C 0.59638 0.07241 0.00586 0.0
N483 N 0.60455 0.06928 0.98149 0.0
C484 C 0.55039 0.98741 0.99903 0.0
C485 C 0.57482 0.97448 0.97356 0.0
C486 C 0.53683 0.98699 0.97503 0.0
N487 N 0.56936 0.98176 0.99777 0.0
C488 C 0.56153 0.97342 0.94922 0.0
C489 C 0.54281 0.98048 0.94968 0.0
H490 H 0.54698 0.99389 0.01848 0.0
H491 H 0.5907 0.9713 0.97279 0.0
C492 C 0.68644 0.04229 0.03258 0.0
N493 N 0.66889 0.04972 0.03501 0.0
C494 C 0.70863 0.05738 0.02014 0.0
C495 C 0.69548 0.08886 0.01539 0.0
C496 C 0.67337 0.07299 0.02779 0.0
C497 C 0.71301 0.08065 0.01051 0.0
H498 H 0.68258 0.02398 0.03926 0.0
H499 H 0.65945 0.07883 0.03066 0.0
O500 O 0.58211 0.97192 0.06156 0.0
O501 O 0.63941 0.01367 0.08268 0.0
O502 O 0.62459 0.99089 0.0216 0.0
O503 O 0.60662 0.02771 0.04448 0.0
H504 H 0.6069 0.9752 0.1091 0.0
H505 H 0.5338 0.93596 0.062 0.0
H506 H 0.58687 0.94901 0.14721 0.0
H507 H 0.51501 0.91038 0.10105 0.0
H508 H 0.66905 0.09766 0.11273 0.0
H509 H 0.67376 0.01882 0.12113 0.0
H510 H 0.64021 0.05833 0.08204 0.0
H511 H 0.70205 0.05898 0.15128 0.0
H512 H 0.60343 0.89426 0.08035 0.0
H513 H 0.68092 0.95865 0.0928 0.0
H514 H 0.53151 0.00157 0.12268 0.0
H515 H 0.5983 0.02239 0.17698 0.0
H516 H 0.66525 0.99219 0.0023 0.0
H517 H 0.58615 0.94272 0.01493 0.0
H518 H 0.66645 0.95397 0.98301 0.0
H519 H 0.58869 0.90534 0.99504 0.0
H520 H 0.6222 0.02607 0.99518 0.0
H521 H 0.59052 0.06102 0.0468 0.0
H522 H 0.62004 0.05089 0.95778 0.0
H523 H 0.58912 0.08546 0.00844 0.0
H524 H 0.52259 0.9927 0.97616 0.0
H525 H 0.56719 0.96896 0.93008 0.0
H526 H 0.72148 0.05015 0.01686 0.0
H527 H 0.69843 0.107 0.00901 0.0
Li528 Li 0.64902 0.68225 0.34778 0.0
Li529 Li 0.69079 0.70525 0.3731 0.0
Li530 Li 0.6589 0.71864 0.37983 0.0
Li531 Li 0.67976 0.72591 0.33788 0.0
C532 C 0.63972 0.66523 0.39901 0.0
N533 N 0.60369 0.62233 0.42174 0.0
C534 C 0.64533 0.6465 0.40659 0.0
C535 C 0.61599 0.66242 0.40343 0.0
C536 C 0.6268 0.62486 0.41793 0.0
C537 C 0.59797 0.64052 0.41483 0.0
C538 C 0.70501 0.70032 0.32174 0.0
C539 C 0.74981 0.72941 0.31819 0.0
N540 N 0.74973 0.71242 0.29868 0.0
C541 C 0.70537 0.68316 0.30166 0.0
C542 C 0.7274 0.72366 0.33009 0.0
C543 C 0.72817 0.68963 0.29025 0.0
C544 C 0.60534 0.64871 0.31331 0.0
N545 N 0.62326 0.64965 0.33166 0.0
C546 C 0.60417 0.60386 0.32578 0.0
C547 C 0.62341 0.62797 0.33761 0.0
C548 C 0.58495 0.6022 0.30728 0.0
C549 C 0.5859 0.62507 0.30082 0.0
H550 H 0.60622 0.66634 0.30825 0.0
H551 H 0.63844 0.6294 0.35155 0.0
C552 C 0.72784 0.71746 0.41562 0.0
N553 N 0.71593 0.70155 0.39241 0.0
C554 C 0.74552 0.71461 0.43187 0.0
C555 C 0.73803 0.67881 0.40007 0.0
C556 C 0.72053 0.68242 0.3844 0.0
C557 C 0.75072 0.69501 0.42419 0.0
H558 H 0.72325 0.73211 0.42171 0.0
H559 H 0.71041 0.66983 0.36601 0.0
C560 C 0.62427 0.71695 0.33947 0.0
N561 N 0.58617 0.72907 0.33424 0.0
C562 C 0.62885 0.73944 0.32799 0.0
C563 C 0.60017 0.70041 0.34783 0.0
C564 C 0.60938 0.74529 0.32565 0.0
C565 C 0.5812 0.70694 0.34514 0.0
C566 C 0.70605 0.76657 0.38099 0.0
C567 C 0.69131 0.77778 0.37499 0.0
C568 C 0.73106 0.78202 0.39289 0.0
C569 C 0.70182 0.8043 0.38104 0.0
C570 C 0.74091 0.8085 0.3986 0.0
N571 N 0.72621 0.819 0.39262 0.0
C572 C 0.65824 0.73003 0.43311 0.0
C573 C 0.63614 0.74587 0.407 0.0
C574 C 0.65651 0.74223 0.45702 0.0
N575 N 0.64859 0.73243 0.40873 0.0
C576 C 0.63394 0.75847 0.43062 0.0
C577 C 0.64493 0.75728 0.45585 0.0
H578 H 0.66829 0.71948 0.43377 0.0
H579 H 0.62906 0.74796 0.38735 0.0
C580 C 0.67544 0.73383 0.2846 0.0
N581 N 0.68989 0.74647 0.30833 0.0
C582 C 0.67751 0.74721 0.26184 0.0
C583 C 0.71029 0.78624 0.28798 0.0
C584 C 0.70777 0.77198 0.31021 0.0
C585 C 0.69442 0.77397 0.26366 0.0
H586 H 0.66147 0.71349 0.28378 0.0
H587 H 0.71933 0.78153 0.32918 0.0
O588 O 0.65758 0.68645 0.38776 0.0
O589 O 0.68278 0.69405 0.33313 0.0
O590 O 0.64305 0.71081 0.34172 0.0
O591 O 0.69611 0.7406 0.37549 0.0
H592 H 0.66374 0.64856 0.40352 0.0
H593 H 0.61159 0.67705 0.39827 0.0
H594 H 0.63079 0.61009 0.42369 0.0
H595 H 0.57947 0.63802 0.41826 0.0
H596 H 0.76727 0.74737 0.32447 0.0
H597 H 0.6882 0.66501 0.29501 0.0
H598 H 0.72759 0.7372 0.3456 0.0
H599 H 0.72872 0.67652 0.2747 0.0
H600 H 0.60415 0.58673 0.33142 0.0
H601 H 0.57187 0.62476 0.28615 0.0
H602 H 0.75469 0.7273 0.45045 0.0
H603 H 0.74176 0.66369 0.39327 0.0
H604 H 0.64725 0.75227 0.32097 0.0
H605 H 0.5961 0.68264 0.35614 0.0
H606 H 0.61271 0.7627 0.31696 0.0
H607 H 0.56249 0.69437 0.35163 0.0
H608 H 0.67203 0.76613 0.3657 0.0
H609 H 0.74276 0.77366 0.39758 0.0
H610 H 0.6906 0.81321 0.37649 0.0
H611 H 0.76025 0.8207 0.40779 0.0
H612 H 0.66493 0.74061 0.47618 0.0
H613 H 0.62501 0.77008 0.429 0.0
H614 H 0.66534 0.73684 0.24332 0.0
H615 H 0.72353 0.80684 0.29035 0.0
Li616 Li 0.27736 0.93971 0.37745 0.0
Li617 Li 0.28122 0.92894 0.42367 0.0
Li618 Li 0.30138 0.97453 0.41412 0.0
Li619 Li 0.31881 0.948 0.39827 0.0
C620 C 0.23829 0.93469 0.40973 0.0
N621 N 0.18574 0.9074 0.40888 0.0
C622 C 0.22484 0.90788 0.4042 0.0
C623 C 0.22503 0.94765 0.41481 0.0
C624 C 0.19828 0.89442 0.40389 0.0
C625 C 0.19845 0.93351 0.41427 0.0
C626 C 0.27884 0.88915 0.38638 0.0
C627 C 0.28453 0.85345 0.39599 0.0
N628 N 0.26221 0.83704 0.38073 0.0
C629 C 0.25614 0.87199 0.37049 0.0
C630 C 0.29332 0.87988 0.39899 0.0
C631 C 0.24799 0.8457 0.36801 0.0
C632 C 0.27309 0.92873 0.3227 0.0
N633 N 0.25877 0.92964 0.34254 0.0
C634 C 0.22248 0.91407 0.31001 0.0
C635 C 0.23402 0.92303 0.33672 0.0
C636 C 0.2367 0.91225 0.28919 0.0
C637 C 0.26252 0.92034 0.29581 0.0
H638 H 0.29278 0.9343 0.32796 0.0
H639 H 0.22306 0.92424 0.35272 0.0
C640 C 0.26453 0.92074 0.47494 0.0
N641 N 0.2637 0.90737 0.45135 0.0
C642 C 0.25023 0.90784 0.49603 0.0
C643 C 0.23494 0.86744 0.46851 0.0
C644 C 0.24957 0.88117 0.4479 0.0
C645 C 0.2348 0.88085 0.49278 0.0
H646 H 0.27581 0.94159 0.47701 0.0
H647 H 0.24877 0.87089 0.42885 0.0
C648 C 0.31029 0.98819 0.36117 0.0
N649 N 0.3075 0.02231 0.32801 0.0
C650 C 0.3291 0.0008 0.34344 0.0
C651 C 0.29002 0.99288 0.36202 0.0
C652 C 0.32735 0.01799 0.32683 0.0
C653 C 0.28898 0.01022 0.3451 0.0
C654 C 0.33402 0.95701 0.45296 0.0
C655 C 0.35633 0.9798 0.46289 0.0
C656 C 0.33034 0.93334 0.4601 0.0
C657 C 0.37487 0.97848 0.47947 0.0
C658 C 0.34932 0.93282 0.47675 0.0
N659 N 0.37102 0.95521 0.48598 0.0
C660 C 0.2952 0.01124 0.44513 0.0
C661 C 0.33273 0.02839 0.42183 0.0
C662 C 0.30171 0.0359 0.45598 0.0
N663 N 0.31061 0.00806 0.42829 0.0
C664 C 0.33994 0.05342 0.43213 0.0
C665 C 0.32426 0.05743 0.44936 0.0
H666 H 0.27791 0.99458 0.45017 0.0
H667 H 0.34469 0.02515 0.40856 0.0
C668 C 0.34765 0.93182 0.36945 0.0
N669 N 0.34935 0.95015 0.38826 0.0
C670 C 0.36903 0.93585 0.35641 0.0
C671 C 0.3937 0.97715 0.38311 0.0
C672 C 0.3718 0.97236 0.39553 0.0
C673 C 0.39229 0.95913 0.3626 0.0
H674 H 0.32933 0.91486 0.36318 0.0
H675 H 0.37236 0.98708 0.40967 0.0
O676 O 0.26433 0.9483 0.41049 0.0
O677 O 0.28714 0.91496 0.38894 0.0
O678 O 0.31177 0.97126 0.37745 0.0
O679 O 0.31575 0.95798 0.43663 0.0
H680 H 0.23478 0.89762 0.40005 0.0
H681 H 0.23517 0.96842 0.41909 0.0
H682 H 0.18764 0.87365 0.39964 0.0
H683 H 0.18793 0.94328 0.41814 0.0
H684 H 0.29548 0.84598 0.40572 0.0
H685 H 0.24491 0.8789 0.3602 0.0
H686 H 0.31123 0.89295 0.41081 0.0
H687 H 0.23038 0.83218 0.35592 0.0
H688 H 0.20251 0.90798 0.30591 0.0
H689 H 0.27449 0.92002 0.28042 0.0
H690 H 0.25094 0.91891 0.51453 0.0
H691 H 0.22306 0.84667 0.46499 0.0
H692 H 0.34487 0.99731 0.34254 0.0
H693 H 0.27526 0.98326 0.37557 0.0
H694 H 0.34177 0.0279 0.313 0.0
H695 H 0.27343 0.01406 0.34556 0.0
H696 H 0.35934 0.99829 0.45768 0.0
H697 H 0.313 0.91558 0.45297 0.0
H698 H 0.39232 0.99594 0.48717 0.0
H699 H 0.34677 0.91462 0.48237 0.0
H700 H 0.28929 0.03807 0.46955 0.0
H701 H 0.35733 0.06945 0.42626 0.0
H702 H 0.36686 0.92166 0.34033 0.0
H703 H 0.41125 0.99528 0.38863 0.0
Li704 Li 0.06169 0.32949 0.33506 0.0
Li705 Li 0.06878 0.33892 0.384 0.0
Li706 Li 0.02501 0.3119 0.3629 0.0
Li707 Li 0.04976 0.35936 0.35805 0.0
C708 C 0.0647 0.29021 0.36335 0.0
N709 N 0.08805 0.26097 0.3638 0.0
C710 C 0.09107 0.3021 0.36955 0.0
C711 C 0.05018 0.26344 0.35755 0.0
C712 C 0.10253 0.28699 0.36963 0.0
C713 C 0.06235 0.249 0.35782 0.0
C714 C 0.10964 0.37948 0.35977 0.0
C715 C 0.14647 0.4204 0.37654 0.0
N716 N 0.16191 0.41186 0.36739 0.0
C717 C 0.12586 0.37123 0.3502 0.0
C718 C 0.11998 0.40436 0.37276 0.0
C719 C 0.15224 0.38784 0.35438 0.0
C720 C 0.07752 0.34208 0.28361 0.0
N721 N 0.0749 0.32513 0.30201 0.0
C722 C 0.09489 0.30802 0.27387 0.0
C723 C 0.08282 0.30788 0.29735 0.0
C724 C 0.09863 0.3259 0.25485 0.0
C725 C 0.08922 0.34271 0.25974 0.0
H726 H 0.07099 0.35554 0.28782 0.0
H727 H 0.08049 0.29447 0.31207 0.0
C728 C 0.07305 0.32326 0.43375 0.0
N729 N 0.08782 0.34114 0.4171 0.0
C730 C 0.08345 0.32148 0.45878 0.0
C731 C 0.1245 0.35619 0.44899 0.0
C732 C 0.11314 0.35758 0.42419 0.0
C733 C 0.1096 0.33787 0.46667 0.0
H734 H 0.05301 0.31031 0.42748 0.0
H735 H 0.12466 0.37148 0.4106 0.0
C736 C 0.01436 0.31322 0.30702 0.0
N737 N 0.98528 0.27959 0.26208 0.0
C738 C 0.00422 0.3214 0.28643 0.0
C739 C 0.00977 0.28797 0.30477 0.0
C740 C 0.98954 0.30409 0.26387 0.0
C741 C 0.99501 0.27125 0.28188 0.0
C742 C 0.0412 0.35304 0.4165 0.0
C743 C 0.02533 0.3392 0.43626 0.0
C744 C 0.06039 0.37869 0.42316 0.0
C745 C 0.02901 0.35133 0.4625 0.0
C746 C 0.06351 0.3901 0.44966 0.0
N747 N 0.04788 0.3763 0.46861 0.0
C748 C 0.99205 0.26803 0.38715 0.0
C749 C 0.97141 0.28637 0.36283 0.0
C750 C 0.96952 0.25152 0.3984 0.0
N751 N 0.99264 0.28527 0.37019 0.0
C752 C 0.94844 0.27021 0.37363 0.0
C753 C 0.9475 0.25299 0.39229 0.0
H754 H 0.00947 0.26822 0.39325 0.0
H755 H 0.97269 0.30075 0.34977 0.0
C756 C 0.05952 0.40519 0.33649 0.0
N757 N 0.04554 0.38794 0.35407 0.0
C758 C 0.05383 0.42402 0.32964 0.0
C759 C 0.02015 0.40754 0.36 0.0
C760 C 0.02648 0.38899 0.36623 0.0
C761 C 0.03348 0.42495 0.34093 0.0
H762 H 0.07426 0.40349 0.3268 0.0
H763 H 0.01547 0.37472 0.37985 0.0
O764 O 0.05297 0.30452 0.36329 0.0
O765 O 0.08377 0.36364 0.35568 0.0
O766 O 0.02898 0.33003 0.32908 0.0
O767 O 0.03805 0.34142 0.39079 0.0
H768 H 0.10258 0.32273 0.37422 0.0
H769 H 0.02972 0.25394 0.35281 0.0
H770 H 0.12292 0.29594 0.37433 0.0
H771 H 0.05136 0.22827 0.35329 0.0
H772 H 0.15475 0.43966 0.38669 0.0
H773 H 0.1182 0.35224 0.3396 0.0
H774 H 0.10769 0.41123 0.37982 0.0
H775 H 0.16502 0.38165 0.34721 0.0
H776 H 0.10204 0.29488 0.27125 0.0
H777 H 0.09116 0.35649 0.24549 0.0
H778 H 0.07097 0.30745 0.47185 0.0
H779 H 0.14479 0.36903 0.45399 0.0
H780 H 0.0077 0.34094 0.28787 0.0
H781 H 0.01755 0.28134 0.32046 0.0
H782 H 0.98156 0.31013 0.24776 0.0
H783 H 0.9913 0.25166 0.27985 0.0
H784 H 0.01038 0.3193 0.43136 0.0
H785 H 0.07279 0.3896 0.40806 0.0
H786 H 0.01687 0.34091 0.478 0.0
H787 H 0.07834 0.40993 0.45515 0.0
H788 H 0.96983 0.23894 0.41307 0.0
H789 H 0.93187 0.27186 0.36828 0.0
H790 H 0.06427 0.43669 0.31443 0.0
H791 H 0.00441 0.40765 0.36923 0.0
Li792 Li 0.68836 0.98745 0.39715 0.0
Li793 Li 0.65727 0.94141 0.4042 0.0
Li794 Li 0.68078 0.95232 0.36435 0.0
Li795 Li 0.64762 0.96241 0.36764 0.0
C796 C 0.71318 0.95214 0.40151 0.0
N797 N 0.7494 0.93759 0.39666 0.0
C798 C 0.71039 0.93044 0.41339 0.0
C799 C 0.73462 0.96665 0.38753 0.0
C800 C 0.72885 0.92335 0.41063 0.0
C801 C 0.75264 0.95892 0.38517 0.0
C802 C 0.62934 0.96644 0.41664 0.0
C803 C 0.58463 0.93637 0.41935 0.0
N804 N 0.5823 0.9554 0.43269 0.0
C805 C 0.62651 0.98571 0.43034 0.0
C806 C 0.60825 0.94156 0.41106 0.0
C807 C 0.60257 0.97974 0.43831 0.0
C808 C 0.704 0.03782 0.41938 0.0
N809 N 0.71149 0.02018 0.41538 0.0
C810 C 0.75287 0.04967 0.43734 0.0
C811 C 0.73524 0.02548 0.42431 0.0
C812 C 0.74584 0.06848 0.4418 0.0
C813 C 0.72092 0.0622 0.43275 0.0
H814 H 0.68488 0.03293 0.41213 0.0
H815 H 0.74062 0.01103 0.42092 0.0
C816 C 0.64251 0.89414 0.42511 0.0
N817 N 0.64573 0.91793 0.43141 0.0
C818 C 0.64021 0.87838 0.44579 0.0
C819 C 0.6422 0.91091 0.47868 0.0
C820 C 0.64502 0.92632 0.45742 0.0
C821 C 0.6407 0.88706 0.47301 0.0
H822 H 0.64364 0.88824 0.4043 0.0
H823 H 0.64811 0.94553 0.46187 0.0
C824 C 0.6977 0.0007 0.33916 0.0
N825 N 0.72896 0.03274 0.30255 0.0
C826 C 0.68752 0.00077 0.31307 0.0
C827 C 0.72374 0.01718 0.34668 0.0
C828 C 0.70364 0.01705 0.29486 0.0
C829 C 0.73924 0.03315 0.32786 0.0
C830 C 0.63232 0.91344 0.34152 0.0
C831 C 0.63825 0.92532 0.31726 0.0
C832 C 0.61515 0.88695 0.34053 0.0
C833 C 0.6269 0.9105 0.29234 0.0
C834 C 0.60414 0.87278 0.31521 0.0
N835 N 0.61021 0.88474 0.29183 0.0
C836 C 0.68759 0.91308 0.34205 0.0
C837 C 0.70668 0.94997 0.31744 0.0
C838 C 0.69212 0.89884 0.32209 0.0
N839 N 0.69426 0.93794 0.33905 0.0
C840 C 0.71145 0.93642 0.2969 0.0
C841 C 0.70343 0.91025 0.29867 0.0
H842 H 0.67754 0.90392 0.35934 0.0
H843 H 0.71175 0.96962 0.31526 0.0
C844 C 0.63054 0.99089 0.34069 0.0
N845 N 0.62269 0.96671 0.34774 0.0
C846 C 0.61411 0.99585 0.32488 0.0
C847 C 0.58147 0.951 0.32447 0.0
C848 C 0.59866 0.94686 0.34014 0.0
C849 C 0.58916 0.97577 0.31652 0.0
H850 H 0.64975 0.00632 0.34716 0.0
H851 H 0.59284 0.92785 0.34623 0.0
O852 O 0.69506 0.95914 0.40363 0.0
O853 O 0.65248 0.97218 0.40798 0.0
O854 O 0.68212 0.98509 0.3574 0.0
O855 O 0.64375 0.92742 0.36614 0.0
H856 H 0.69425 0.91923 0.42472 0.0
H857 H 0.73712 0.98345 0.37816 0.0
H858 H 0.72685 0.90653 0.41964 0.0
H859 H 0.76917 0.96984 0.37415 0.0
H860 H 0.56813 0.91723 0.41511 0.0
H861 H 0.64262 0.0051 0.43466 0.0
H862 H 0.61 0.92646 0.40024 0.0
H863 H 0.60008 0.99447 0.4489 0.0
H864 H 0.77197 0.05368 0.44329 0.0
H865 H 0.7145 0.07589 0.43598 0.0
H866 H 0.63915 0.86009 0.44075 0.0
H867 H 0.6429 0.91828 0.4995 0.0
H868 H 0.66738 0.98844 0.30689 0.0
H869 H 0.73196 0.01774 0.3668 0.0
H870 H 0.696 0.01727 0.27463 0.0
H871 H 0.75944 0.04593 0.33342 0.0
H872 H 0.65166 0.9457 0.31767 0.0
H873 H 0.61047 0.87745 0.35915 0.0
H874 H 0.63141 0.91946 0.27341 0.0
H875 H 0.59083 0.85225 0.31413 0.0
H876 H 0.68581 0.87878 0.32437 0.0
H877 H 0.71981 0.94591 0.279 0.0
H878 H 0.62096 0.01519 0.31913 0.0
H879 H 0.56226 0.93507 0.31906 0.0
Li880 Li 0.06308 0.73322 0.36362 0.0
Li881 Li 0.01766 0.72227 0.34629 0.0
Li882 Li 0.0372 0.70088 0.32425 0.0
Li883 Li 0.0551 0.74404 0.3194 0.0
C884 C 0.02677 0.67731 0.36916 0.0
N885 N 0.02137 0.63012 0.3789 0.0
C886 C 0.00302 0.65684 0.37423 0.0
C887 C 0.04785 0.67383 0.3694 0.0
C888 C 0.00066 0.63312 0.37903 0.0
C889 C 0.04471 0.64982 0.37426 0.0
C890 C 0.05312 0.78 0.35032 0.0
C891 C 0.0397 0.80534 0.32581 0.0
N892 N 0.06038 0.82726 0.33795 0.0
C893 C 0.07415 0.80276 0.36268 0.0
C894 C 0.03566 0.78125 0.33185 0.0
C895 C 0.07752 0.82648 0.3561 0.0
C896 C 0.10529 0.76781 0.40043 0.0
N897 N 0.08457 0.74361 0.39676 0.0
C898 C 0.08993 0.73732 0.44356 0.0
C899 C 0.0769 0.72827 0.41761 0.0
C900 C 0.11075 0.7626 0.44822 0.0
C901 C 0.11877 0.77775 0.42614 0.0
H902 H 0.11064 0.77983 0.38369 0.0
H903 H 0.05984 0.70951 0.41456 0.0
C904 C 0.9677 0.69319 0.35995 0.0
N905 N 0.98746 0.7178 0.36065 0.0
C906 C 0.94725 0.68741 0.3755 0.0
C907 C 0.96707 0.73272 0.39086 0.0
C908 C 0.98737 0.73756 0.37532 0.0
C909 C 0.94699 0.70722 0.39183 0.0
H910 H 0.96845 0.67784 0.34834 0.0
H911 H 0.00357 0.75688 0.37603 0.0
C912 C 0.09528 0.73688 0.31484 0.0
N913 N 0.13799 0.75987 0.28612 0.0
C914 C 0.09313 0.73137 0.28654 0.0
C915 C 0.11931 0.75351 0.32861 0.0
C916 C 0.11488 0.74336 0.27235 0.0
C917 C 0.14064 0.76507 0.31372 0.0
C918 C 0.00359 0.70028 0.28548 0.0
C919 C 0.01356 0.69468 0.26282 0.0
C920 C 0.97716 0.68857 0.28602 0.0
C921 C 0.99693 0.67684 0.24151 0.0
C922 C 0.96114 0.67085 0.2643 0.0
N923 N 0.97128 0.66536 0.2427 0.0
C924 C 0.00319 0.64884 0.3046 0.0
C925 C 0.04691 0.66298 0.30117 0.0
C926 C 0.9962 0.62397 0.29406 0.0
N927 N 0.02816 0.66772 0.30779 0.0
C928 C 0.04084 0.63827 0.29109 0.0
C929 C 0.01517 0.61828 0.28744 0.0
H930 H 0.98872 0.653 0.3107 0.0
H931 H 0.06664 0.6782 0.30459 0.0
C932 C 0.09627 0.78946 0.30316 0.0
N933 N 0.07226 0.76982 0.29493 0.0
C934 C 0.11182 0.80504 0.28419 0.0
C935 C 0.07687 0.78146 0.2491 0.0
C936 C 0.06206 0.76612 0.26873 0.0
C937 C 0.10238 0.80056 0.25662 0.0
H938 H 0.10392 0.79192 0.32412 0.0
H939 H 0.04293 0.75038 0.26273 0.0
O940 O 0.02943 0.70051 0.36345 0.0
O941 O 0.04968 0.75655 0.356 0.0
O942 O 0.07409 0.7258 0.32907 0.0
O943 O 0.01952 0.71772 0.30662 0.0
H944 H 0.98654 0.65915 0.37448 0.0
H945 H 0.0664 0.68943 0.3655 0.0
H946 H 0.98236 0.6171 0.38284 0.0
H947 H 0.06081 0.64681 0.37425 0.0
H948 H 0.02642 0.8066 0.31145 0.0
H949 H 0.08775 0.80217 0.37714 0.0
H950 H 0.01927 0.76379 0.32212 0.0
H951 H 0.09376 0.84426 0.36543 0.0
H952 H 0.0828 0.72524 0.46017 0.0
H953 H 0.13473 0.79735 0.42895 0.0
H954 H 0.93253 0.66743 0.37573 0.0
H955 H 0.96753 0.74874 0.40261 0.0
H956 H 0.07487 0.71812 0.27561 0.0
H957 H 0.1215 0.7575 0.35054 0.0
H958 H 0.11339 0.73953 0.2504 0.0
H959 H 0.15929 0.77818 0.32411 0.0
H960 H 0.03388 0.70387 0.26171 0.0
H961 H 0.96906 0.69322 0.30292 0.0
H962 H 0.00443 0.67217 0.224 0.0
H963 H 0.94065 0.66154 0.26457 0.0
H964 H 0.97617 0.60937 0.29138 0.0
H965 H 0.05622 0.63477 0.28704 0.0
H966 H 0.13133 0.81975 0.2908 0.0
H967 H 0.06895 0.77738 0.22801 0.0
Li968 Li 0.27151 0.33997 0.40969 0.0
Li969 Li 0.28545 0.31236 0.39215 0.0
Li970 Li 0.304 0.35442 0.3776 0.0
Li971 Li 0.25964 0.32172 0.3618 0.0
C972 C 0.32227 0.36747 0.43134 0.0
N973 N 0.35423 0.41222 0.46457 0.0
C974 C 0.34027 0.36814 0.45064 0.0
C975 C 0.32058 0.3896 0.42886 0.0
C976 C 0.35623 0.39093 0.46729 0.0
C977 C 0.3369 0.41202 0.44587 0.0
C978 C 0.23956 0.28853 0.41628 0.0
C979 C 0.20374 0.25581 0.43701 0.0
N980 N 0.21925 0.26025 0.46001 0.0
C981 C 0.25515 0.29277 0.44014 0.0
C982 C 0.21365 0.26992 0.41469 0.0
C983 C 0.24452 0.27827 0.46201 0.0
C984 C 0.23327 0.34137 0.43746 0.0
N985 N 0.2579 0.34705 0.44121 0.0
C986 C 0.25753 0.35234 0.48973 0.0
C987 C 0.27022 0.35274 0.46672 0.0
C988 C 0.23176 0.34535 0.48648 0.0
C989 C 0.21974 0.34032 0.45993 0.0
H990 H 0.22373 0.33625 0.41703 0.0
H991 H 0.28936 0.35608 0.46949 0.0
C992 C 0.32006 0.29777 0.40826 0.0
N993 N 0.29477 0.28794 0.40138 0.0
C994 C 0.32895 0.28189 0.41711 0.0
C995 C 0.28564 0.24583 0.41053 0.0
C996 C 0.27758 0.26245 0.4019 0.0
C997 C 0.31157 0.25564 0.4188 0.0
H998 H 0.33324 0.31813 0.40748 0.0
H999 H 0.2576 0.25511 0.39599 0.0
C1000 C 0.27227 0.37225 0.35626 0.0
N1001 N 0.26874 0.39872 0.31382 0.0
C1002 C 0.2804 0.36938 0.33089 0.0
C1003 C 0.26233 0.38856 0.36001 0.0
C1004 C 0.27845 0.38292 0.3097 0.0
C1005 C 0.26074 0.40181 0.33832 0.0
C1006 C 0.29243 0.30128 0.34268 0.0
C1007 C 0.31513 0.30474 0.33323 0.0
C1008 C 0.27091 0.27653 0.34058 0.0
C1009 C 0.31602 0.28333 0.3222 0.0
C1010 C 0.27257 0.25562 0.32941 0.0
N1011 N 0.29491 0.25942 0.32056 0.0
C1012 C 0.35284 0.37407 0.36383 0.0
C1013 C 0.33898 0.40421 0.35956 0.0
C1014 C 0.37476 0.38946 0.35113 0.0
N1015 N 0.33501 0.38108 0.36663 0.0
C1016 C 0.3608 0.42039 0.34693 0.0
C1017 C 0.3786 0.41261 0.34167 0.0
H1018 H 0.34942 0.35589 0.37047 0.0
H1019 H 0.32485 0.40972 0.36276 0.0
C1020 C 0.21644 0.31751 0.33213 0.0
N1021 N 0.23545 0.31193 0.33085 0.0
C1022 C 0.20267 0.31679 0.30815 0.0
C1023 C 0.22721 0.303 0.28236 0.0
C1024 C 0.24073 0.3044 0.30666 0.0
C1025 C 0.20846 0.31001 0.28283 0.0
H1026 H 0.21318 0.32421 0.35154 0.0
H1027 H 0.25667 0.30132 0.30582 0.0
O1028 O 0.30672 0.34525 0.41485 0.0
O1029 O 0.24929 0.3029 0.39477 0.0
O1030 O 0.27293 0.35838 0.37704 0.0
O1031 O 0.29117 0.3219 0.35399 0.0
H1032 H 0.34185 0.35118 0.45276 0.0
H1033 H 0.30685 0.38956 0.41407 0.0
H1034 H 0.37021 0.3917 0.48235 0.0
H1035 H 0.33579 0.42927 0.4442 0.0
H1036 H 0.18371 0.24136 0.43607 0.0
H1037 H 0.27521 0.30717 0.44187 0.0
H1038 H 0.2013 0.26651 0.39643 0.0
H1039 H 0.25635 0.2814 0.48059 0.0
H1040 H 0.26731 0.35594 0.50989 0.0
H1041 H 0.19986 0.33489 0.45662 0.0
H1042 H 0.34902 0.29032 0.42363 0.0
H1043 H 0.27168 0.22563 0.4112 0.0
H1044 H 0.28805 0.35677 0.3275 0.0
H1045 H 0.25574 0.3908 0.37945 0.0
H1046 H 0.2846 0.38082 0.28996 0.0
H1047 H 0.25304 0.41447 0.34094 0.0
H1048 H 0.33186 0.32372 0.33415 0.0
H1049 H 0.25317 0.2735 0.34779 0.0
H1050 H 0.33349 0.28573 0.31487 0.0
H1051 H 0.25611 0.23637 0.32787 0.0
H1052 H 0.38783 0.38257 0.34757 0.0
H1053 H 0.36335 0.43843 0.3407 0.0
H1054 H 0.18844 0.32251 0.30927 0.0
H1055 H 0.23272 0.29835 0.26322 0.0
Li1056 Li 0.31631 0.01461 0.68129 0.0
Li1057 Li 0.35827 0.03795 0.70625 0.0
Li1058 Li 0.32603 0.05071 0.71373 0.0
Li1059 Li 0.34649 0.05856 0.67153 0.0
C1060 C 0.30857 0.99682 0.73229 0.0
N1061 N 0.2749 0.95254 0.75484 0.0
C1062 C 0.3157 0.97885 0.73862 0.0
C1063 C 0.28455 0.99255 0.73792 0.0
C1064 C 0.29834 0.9565 0.74987 0.0
C1065 C 0.26773 0.96997 0.74919 0.0
C1066 C 0.3722 0.03367 0.65455 0.0
C1067 C 0.41683 0.06331 0.65074 0.0
N1068 N 0.41688 0.0466 0.63098 0.0
C1069 C 0.3727 0.0168 0.63421 0.0
C1070 C 0.39444 0.05714 0.66291 0.0
C1071 C 0.39547 0.02368 0.62254 0.0
C1072 C 0.27196 0.98063 0.64779 0.0
N1073 N 0.29062 0.98185 0.66522 0.0
C1074 C 0.27217 0.93613 0.65887 0.0
C1075 C 0.29145 0.96035 0.67042 0.0
C1076 C 0.25217 0.93416 0.64139 0.0
C1077 C 0.25246 0.95689 0.63559 0.0
H1078 H 0.27228 0.99812 0.64325 0.0
H1079 H 0.30704 0.962 0.68359 0.0
C1080 C 0.39497 0.04984 0.74897 0.0
N1081 N 0.38371 0.03449 0.72528 0.0
C1082 C 0.41257 0.04693 0.76529 0.0
C1083 C 0.40639 0.01227 0.73256 0.0
C1084 C 0.38896 0.01593 0.71682 0.0
C1085 C 0.41834 0.02784 0.75721 0.0
H1086 H 0.38985 0.064 0.75541 0.0
H1087 H 0.37932 0.00374 0.69808 0.0
C1088 C 0.29047 0.04836 0.67448 0.0
N1089 N 0.2513 0.05905 0.67127 0.0
C1090 C 0.29382 0.07034 0.66277 0.0
C1091 C 0.26706 0.03159 0.68413 0.0
C1092 C 0.27383 0.07547 0.66146 0.0
C1093 C 0.24753 0.0374 0.68244 0.0
C1094 C 0.37238 0.09892 0.71519 0.0
C1095 C 0.35744 0.10977 0.70859 0.0
C1096 C 0.39686 0.11452 0.72837 0.0
C1097 C 0.36721 0.1361 0.71534 0.0
C1098 C 0.40598 0.14078 0.73476 0.0
N1099 N 0.39109 0.15094 0.72818 0.0
C1100 C 0.32511 0.06106 0.7673 0.0
C1101 C 0.30365 0.07787 0.74171 0.0
C1102 C 0.32339 0.07293 0.79147 0.0
N1103 N 0.31575 0.06406 0.74306 0.0
C1104 C 0.30144 0.09013 0.76559 0.0
C1105 C 0.3121 0.08827 0.79071 0.0
H1106 H 0.33495 0.05028 0.76768 0.0
H1107 H 0.29686 0.08049 0.72217 0.0
C1108 C 0.34137 0.06724 0.61857 0.0
N1109 N 0.35615 0.0795 0.64223 0.0
C1110 C 0.34341 0.08094 0.59609 0.0
C1111 C 0.37671 0.11954 0.62237 0.0
C1112 C 0.37423 0.10495 0.64431 0.0
C1113 C 0.36061 0.10765 0.59811 0.0
H1114 H 0.32727 0.04692 0.61757 0.0
H1115 H 0.38606 0.11419 0.66321 0.0
O1116 O 0.32528 0.01875 0.72117 0.0
O1117 O 0.35001 0.02698 0.66621 0.0
O1118 O 0.30979 0.04294 0.67577 0.0
O1119 O 0.36312 0.07313 0.70905 0.0
H1120 H 0.33435 0.98204 0.73462 0.0
H1121 H 0.27902 0.00659 0.73379 0.0
H1122 H 0.30349 0.9423 0.75465 0.0
H1123 H 0.24901 0.96634 0.75353 0.0
H1124 H 0.43418 0.08139 0.65702 0.0
H1125 H 0.35564 0.99855 0.62755 0.0
H1126 H 0.39454 0.07047 0.67862 0.0
H1127 H 0.39613 0.0108 0.60678 0.0
H1128 H 0.2727 0.91915 0.66398 0.0
H1129 H 0.23783 0.95637 0.62167 0.0
H1130 H 0.42118 0.05913 0.78427 0.0
H1131 H 0.41058 0.99755 0.72547 0.0
H1132 H 0.31167 0.08333 0.65479 0.0
H1133 H 0.26395 0.01421 0.69266 0.0
H1134 H 0.2762 0.09249 0.6526 0.0
H1135 H 0.22935 0.02464 0.68993 0.0
H1136 H 0.33855 0.098 0.69832 0.0
H1137 H 0.40872 0.10643 0.73355 0.0
H1138 H 0.35582 0.14473 0.71035 0.0
H1139 H 0.42491 0.1531 0.74495 0.0
H1140 H 0.33155 0.07081 0.81052 0.0
H1141 H 0.29276 0.10199 0.76428 0.0
H1142 H 0.33107 0.07083 0.5776 0.0
H1143 H 0.39019 0.14008 0.6249 0.0
Li1144 Li 0.98857 0.28216 0.73365 0.0
Li1145 Li 0.96911 0.3072 0.74863 0.0
Li1146 Li 0.95143 0.26213 0.75943 0.0
Li1147 Li 0.94624 0.27117 0.71296 0.0
C1148 C 0.00542 0.29741 0.78901 0.0
N1149 N 0.0465 0.30768 0.82482 0.0
C1150 C 0.02554 0.32273 0.79521 0.0
C1151 C 0.00591 0.27738 0.80145 0.0
C1152 C 0.04623 0.32751 0.81323 0.0
C1153 C 0.02693 0.28294 0.81939 0.0
C1154 C 0.97679 0.31871 0.69415 0.0
C1155 C 0.95412 0.33888 0.67655 0.0
N1156 N 0.97092 0.34859 0.65725 0.0
C1157 C 0.99378 0.32881 0.67412 0.0
C1158 C 0.95673 0.32368 0.69538 0.0
C1159 C 0.99051 0.3439 0.65565 0.0
C1160 C 0.01859 0.26775 0.70483 0.0
N1161 N 0.01972 0.28593 0.72344 0.0
C1162 C 0.06358 0.3144 0.71725 0.0
C1163 C 0.04165 0.30882 0.73005 0.0
C1164 C 0.06269 0.29646 0.69699 0.0
C1165 C 0.03999 0.27257 0.69141 0.0
H1166 H 0.00062 0.25023 0.69897 0.0
H1167 H 0.04172 0.32344 0.74388 0.0
C1168 C 0.96381 0.34266 0.7828 0.0
N1169 N 0.97697 0.34047 0.76236 0.0
C1170 C 0.96964 0.36698 0.79413 0.0
C1171 C 0.00247 0.38624 0.7631 0.0
C1172 C 0.99618 0.36155 0.7526 0.0
C1173 C 0.98911 0.38923 0.78416 0.0
H1174 H 0.94893 0.32547 0.79044 0.0
H1175 H 0.00664 0.35918 0.73666 0.0
C1176 C 0.95478 0.22396 0.72658 0.0
N1177 N 0.94866 0.17551 0.72923 0.0
C1178 C 0.9345 0.20263 0.71114 0.0
C1179 C 0.97216 0.22074 0.74303 0.0
C1180 C 0.93167 0.17826 0.71286 0.0
C1181 C 0.96868 0.19606 0.74418 0.0
C1182 C 0.9068 0.26316 0.74606 0.0
C1183 C 0.89544 0.23718 0.73626 0.0
C1184 C 0.8919 0.27245 0.75706 0.0
C1185 C 0.86927 0.22089 0.73755 0.0
C1186 C 0.86578 0.25556 0.75797 0.0
N1187 N 0.8551 0.23034 0.74829 0.0
C1188 C 0.93681 0.25385 0.81159 0.0
C1189 C 0.91972 0.2146 0.78328 0.0
C1190 C 0.92249 0.24086 0.83264 0.0
N1191 N 0.9349 0.24069 0.7874 0.0
C1192 C 0.90513 0.20079 0.80386 0.0
C1193 C 0.90599 0.21405 0.82869 0.0
H1194 H 0.94876 0.27464 0.81412 0.0
H1195 H 0.91793 0.20459 0.76368 0.0
C1196 C 0.94081 0.2564 0.65894 0.0
N1197 N 0.92739 0.25985 0.67827 0.0
C1198 C 0.93012 0.24782 0.63211 0.0
C1199 C 0.89178 0.24646 0.64541 0.0
C1200 C 0.90347 0.25556 0.67205 0.0
C1201 C 0.90507 0.24222 0.62505 0.0
H1202 H 0.95997 0.26039 0.6645 0.0
H1203 H 0.89337 0.25899 0.68766 0.0
O1204 O 0.98493 0.29244 0.77161 0.0
O1205 O 0.97956 0.30359 0.71209 0.0
O1206 O 0.95777 0.24791 0.72512 0.0
O1207 O 0.93249 0.27937 0.74563 0.0
H1208 H 0.02522 0.3385 0.78604 0.0
H1209 H 0.99013 0.25778 0.79753 0.0
H1210 H 0.06204 0.34699 0.81804 0.0
H1211 H 0.02762 0.26761 0.82909 0.0
H1212 H 0.93871 0.34291 0.67726 0.0
H1213 H 0.00931 0.32498 0.67285 0.0
H1214 H 0.9433 0.31586 0.71064 0.0
H1215 H 0.00352 0.35186 0.64003 0.0
H1216 H 0.08068 0.33302 0.72228 0.0
H1217 H 0.03819 0.2584 0.67552 0.0
H1218 H 0.95916 0.36831 0.81068 0.0
H1219 H 0.01739 0.40276 0.75453 0.0
H1220 H 0.92107 0.20487 0.69803 0.0
H1221 H 0.98829 0.23715 0.75454 0.0
H1222 H 0.91599 0.16155 0.70115 0.0
H1223 H 0.98195 0.19327 0.75688 0.0
H1224 H 0.90669 0.22968 0.72774 0.0
H1225 H 0.90046 0.2925 0.76488 0.0
H1226 H 0.86024 0.20074 0.73004 0.0
H1227 H 0.854 0.26248 0.76643 0.0
H1228 H 0.92384 0.25176 0.85156 0.0
H1229 H 0.89236 0.18016 0.79987 0.0
H1230 H 0.94148 0.24568 0.61707 0.0
H1231 H 0.87242 0.24236 0.641 0.0
Li1232 Li 0.71404 0.69432 0.69084 0.0
Li1233 Li 0.69057 0.64696 0.69554 0.0
Li1234 Li 0.73415 0.67497 0.71705 0.0
Li1235 Li 0.72735 0.66555 0.66803 0.0
C1236 C 0.70527 0.68831 0.74886 0.0
N1237 N 0.71068 0.71252 0.80015 0.0
C1238 C 0.68911 0.67476 0.76854 0.0
C1239 C 0.72412 0.71414 0.75519 0.0
C1240 C 0.69215 0.68736 0.79437 0.0
C1241 C 0.72659 0.72604 0.78127 0.0
C1242 C 0.67952 0.64777 0.63991 0.0
C1243 C 0.66195 0.60614 0.61446 0.0
N1244 N 0.65018 0.61329 0.59561 0.0
C1245 C 0.66729 0.65474 0.62029 0.0
C1246 C 0.67687 0.62329 0.63702 0.0
C1247 C 0.65251 0.63701 0.59804 0.0
C1248 C 0.72268 0.7399 0.66956 0.0
N1249 N 0.70861 0.72213 0.68665 0.0
C1250 C 0.6815 0.73992 0.69132 0.0
C1251 C 0.68863 0.72204 0.69794 0.0
C1252 C 0.69497 0.75786 0.67275 0.0
C1253 C 0.7162 0.75809 0.66234 0.0
H1254 H 0.73815 0.7391 0.66052 0.0
H1255 H 0.67757 0.70736 0.71115 0.0
C1256 C 0.65818 0.60288 0.71981 0.0
N1257 N 0.65848 0.61979 0.70255 0.0
C1258 C 0.63571 0.58619 0.73103 0.0
C1259 C 0.6141 0.60397 0.70557 0.0
C1260 C 0.63702 0.62034 0.69481 0.0
C1261 C 0.61345 0.58715 0.72458 0.0
H1262 H 0.67577 0.60353 0.72621 0.0
H1263 H 0.63807 0.63448 0.68155 0.0
C1264 C 0.77444 0.71595 0.69282 0.0
N1265 N 0.82664 0.74882 0.70042 0.0
C1266 C 0.79087 0.70796 0.68328 0.0
C1267 C 0.78453 0.7408 0.70579 0.0
C1268 C 0.81721 0.72482 0.68745 0.0
C1269 C 0.81099 0.75709 0.70956 0.0
C1270 C 0.7314 0.62677 0.69632 0.0
C1271 C 0.75778 0.63905 0.70273 0.0
C1272 C 0.71731 0.60001 0.69029 0.0
C1273 C 0.76967 0.62435 0.70277 0.0
C1274 C 0.72992 0.58598 0.69052 0.0
N1275 N 0.75562 0.59834 0.6967 0.0
C1276 C 0.73862 0.66017 0.76725 0.0
C1277 C 0.77872 0.69406 0.75709 0.0
C1278 C 0.74918 0.65857 0.79226 0.0
N1279 N 0.75333 0.67773 0.75028 0.0
C1280 C 0.79023 0.69285 0.78188 0.0
C1281 C 0.77541 0.67479 0.79982 0.0
H1282 H 0.71854 0.64727 0.76119 0.0
H1283 H 0.7902 0.70768 0.74324 0.0
C1284 C 0.74367 0.6789 0.61694 0.0
N1285 N 0.74104 0.66178 0.63513 0.0
C1286 C 0.75563 0.67994 0.59319 0.0
C1287 C 0.76151 0.64527 0.60697 0.0
C1288 C 0.74919 0.64473 0.63035 0.0
C1289 C 0.76527 0.66335 0.58817 0.0
H1290 H 0.73692 0.69217 0.62125 0.0
H1291 H 0.74683 0.63118 0.6449 0.0
O1292 O 0.70274 0.67622 0.72358 0.0
O1293 O 0.69409 0.66495 0.66175 0.0
O1294 O 0.7486 0.69987 0.68874 0.0
O1295 O 0.71925 0.64068 0.69629 0.0
H1296 H 0.67443 0.65471 0.76391 0.0
H1297 H 0.73674 0.72483 0.74014 0.0
H1298 H 0.67976 0.67717 0.8098 0.0
H1299 H 0.74114 0.74601 0.78649 0.0
H1300 H 0.65974 0.58713 0.61194 0.0
H1301 H 0.66921 0.67365 0.62225 0.0
H1302 H 0.68623 0.61759 0.65198 0.0
H1303 H 0.64289 0.6421 0.58271 0.0
H1304 H 0.6651 0.73914 0.69989 0.0
H1305 H 0.72681 0.77119 0.64753 0.0
H1306 H 0.63623 0.57391 0.74597 0.0
H1307 H 0.59734 0.60522 0.69995 0.0
H1308 H 0.78342 0.689 0.67273 0.0
H1309 H 0.77208 0.74747 0.71283 0.0
H1310 H 0.83015 0.71885 0.6803 0.0
H1311 H 0.81908 0.77633 0.71969 0.0
H1312 H 0.76896 0.65968 0.70759 0.0
H1313 H 0.69686 0.5902 0.68539 0.0
H1314 H 0.79008 0.63362 0.70764 0.0
H1315 H 0.71926 0.56527 0.68581 0.0
H1316 H 0.73677 0.64474 0.80555 0.0
H1317 H 0.81057 0.70556 0.78663 0.0
H1318 H 0.75759 0.69385 0.5791 0.0
H1319 H 0.76884 0.63229 0.60424 0.0
Li1320 Li 0.35451 0.31921 0.73025 0.0
Li1321 Li 0.32497 0.27477 0.7409 0.0
Li1322 Li 0.34359 0.2825 0.69864 0.0
Li1323 Li 0.31225 0.29411 0.70568 0.0
C1324 C 0.38251 0.2894 0.72961 0.0
N1325 N 0.42364 0.28494 0.71552 0.0
C1326 C 0.38596 0.26979 0.73898 0.0
C1327 C 0.40013 0.30688 0.71327 0.0
C1328 C 0.40684 0.26782 0.73158 0.0
C1329 C 0.42075 0.30428 0.70632 0.0
C1330 C 0.32364 0.31472 0.77222 0.0
C1331 C 0.31039 0.33115 0.80995 0.0
N1332 N 0.33023 0.33348 0.82637 0.0
C1333 C 0.34394 0.31732 0.78947 0.0
C1334 C 0.30677 0.32174 0.7825 0.0
C1335 C 0.34693 0.32683 0.81678 0.0
C1336 C 0.37146 0.37067 0.74842 0.0
N1337 N 0.3789 0.35287 0.74583 0.0
C1338 C 0.41996 0.38282 0.76823 0.0
C1339 C 0.4025 0.35836 0.75566 0.0
C1340 C 0.41287 0.40169 0.77151 0.0
C1341 C 0.38816 0.39528 0.7614 0.0
H1342 H 0.35235 0.36555 0.74082 0.0
H1343 H 0.40775 0.34372 0.75403 0.0
C1344 C 0.32048 0.23196 0.76287 0.0
N1345 N 0.31542 0.25122 0.76836 0.0
C1346 C 0.31843 0.21554 0.78267 0.0
C1347 C 0.30395 0.23772 0.81278 0.0
C1348 C 0.3063 0.25376 0.79232 0.0
C1349 C 0.31088 0.21886 0.80836 0.0
H1350 H 0.32702 0.22997 0.74335 0.0
H1351 H 0.30164 0.2687 0.79601 0.0
C1352 C 0.3416 0.31591 0.66313 0.0
N1353 N 0.33271 0.31778 0.60798 0.0
C1354 C 0.32344 0.29367 0.64688 0.0
C1355 C 0.3552 0.33907 0.65132 0.0
C1356 C 0.31926 0.29502 0.61903 0.0
C1357 C 0.35045 0.33962 0.62339 0.0
C1358 C 0.28253 0.24103 0.7067 0.0
C1359 C 0.27007 0.21824 0.68924 0.0
C1360 C 0.26937 0.24546 0.72684 0.0
C1361 C 0.24458 0.20028 0.69209 0.0
C1362 C 0.2439 0.22701 0.72904 0.0
N1363 N 0.23213 0.205 0.71176 0.0
C1364 C 0.34622 0.24166 0.67278 0.0
C1365 C 0.36999 0.28067 0.65246 0.0
C1366 C 0.35103 0.22811 0.65227 0.0
N1367 N 0.35514 0.26729 0.67211 0.0
C1368 C 0.37501 0.26784 0.63134 0.0
C1369 C 0.36489 0.24104 0.63065 0.0
H1370 H 0.33464 0.2316 0.68883 0.0
H1371 H 0.37719 0.30114 0.65258 0.0
C1372 C 0.29504 0.32459 0.68416 0.0
N1373 N 0.2871 0.29942 0.68706 0.0
C1374 C 0.28027 0.33129 0.6678 0.0
C1375 C 0.2488 0.28605 0.65851 0.0
C1376 C 0.26448 0.2802 0.67453 0.0
C1377 C 0.25673 0.31191 0.65461 0.0
H1378 H 0.31339 0.33948 0.69384 0.0
H1379 H 0.25871 0.26029 0.67637 0.0
O1380 O 0.36194 0.29141 0.73618 0.0
O1381 O 0.32046 0.30587 0.74525 0.0
O1382 O 0.34569 0.31533 0.6906 0.0
O1383 O 0.30755 0.25859 0.70411 0.0
H1384 H 0.37278 0.25629 0.75194 0.0
H1385 H 0.39765 0.32208 0.70569 0.0
H1386 H 0.4097 0.2527 0.73863 0.0
H1387 H 0.4344 0.31755 0.69352 0.0
H1388 H 0.29746 0.33664 0.8182 0.0
H1389 H 0.35721 0.31199 0.78194 0.0
H1390 H 0.29104 0.31995 0.76938 0.0
H1391 H 0.36251 0.32892 0.83036 0.0
H1392 H 0.43889 0.38684 0.77509 0.0
H1393 H 0.3816 0.40893 0.76378 0.0
H1394 H 0.32333 0.20082 0.77815 0.0
H1395 H 0.29795 0.24087 0.83226 0.0
H1396 H 0.31263 0.27558 0.65562 0.0
H1397 H 0.36922 0.35647 0.66367 0.0
H1398 H 0.30528 0.27798 0.60621 0.0
H1399 H 0.36083 0.35743 0.61397 0.0
H1400 H 0.28004 0.21451 0.67362 0.0
H1401 H 0.2786 0.26291 0.74059 0.0
H1402 H 0.23469 0.18258 0.67867 0.0
H1403 H 0.23348 0.2302 0.74449 0.0
H1404 H 0.34323 0.20757 0.65284 0.0
H1405 H 0.38553 0.27862 0.615 0.0
H1406 H 0.28756 0.35145 0.66517 0.0
H1407 H 0.23062 0.27037 0.64936 0.0
Li1408 Li 0.68654 0.05579 0.6829 0.0
Li1409 Li 0.73122 0.06588 0.70033 0.0
Li1410 Li 0.72265 0.07709 0.65606 0.0
Li1411 Li 0.70659 0.03321 0.66152 0.0
C1412 C 0.72774 0.11529 0.68899 0.0
N1413 N 0.74732 0.16648 0.68003 0.0
C1414 C 0.7523 0.1339 0.70005 0.0
C1415 C 0.71302 0.12278 0.67368 0.0
C1416 C 0.76189 0.15966 0.69522 0.0
C1417 C 0.72328 0.14873 0.66928 0.0
C1418 C 0.69495 0.01012 0.70631 0.0
C1419 C 0.71313 0.98359 0.7162 0.0
N1420 N 0.68925 0.96292 0.71649 0.0
C1421 C 0.67059 0.98862 0.70678 0.0
C1422 C 0.71641 0.00761 0.71109 0.0
C1423 C 0.66812 0.96493 0.71194 0.0
C1424 C 0.63553 0.02697 0.69374 0.0
N1425 N 0.6561 0.0512 0.69624 0.0
C1426 C 0.6358 0.06601 0.72665 0.0
C1427 C 0.65643 0.07078 0.71173 0.0
C1428 C 0.61496 0.0407 0.72618 0.0
C1429 C 0.61475 0.02119 0.70877 0.0
H1430 H 0.63589 0.01184 0.68121 0.0
H1431 H 0.67318 0.08984 0.7135 0.0
C1432 C 0.77737 0.09495 0.73508 0.0
N1433 N 0.75271 0.07536 0.73317 0.0
C1434 C 0.7913 0.10463 0.76065 0.0
C1435 C 0.75486 0.07231 0.78125 0.0
C1436 C 0.74145 0.06375 0.75549 0.0
C1437 C 0.7798 0.09345 0.78406 0.0
H1438 H 0.78576 0.10387 0.71696 0.0
H1439 H 0.72166 0.04857 0.75346 0.0
C1440 C 0.67407 0.04904 0.62214 0.0
N1441 N 0.64603 0.05126 0.57757 0.0
C1442 C 0.67317 0.037 0.59662 0.0
C1443 C 0.66023 0.06168 0.62511 0.0
C1444 C 0.65902 0.03849 0.5743 0.0
C1445 C 0.64631 0.06274 0.60229 0.0
C1446 C 0.75689 0.06003 0.64481 0.0
C1447 C 0.74546 0.05193 0.61806 0.0
C1448 C 0.78278 0.06839 0.65011 0.0
C1449 C 0.76014 0.05232 0.59698 0.0
C1450 C 0.79683 0.06848 0.62847 0.0
N1451 N 0.78532 0.06052 0.60257 0.0
C1452 C 0.76578 0.11738 0.63786 0.0
C1453 C 0.72954 0.10329 0.60644 0.0
C1454 C 0.78184 0.13278 0.61914 0.0
N1455 N 0.74023 0.10243 0.631 0.0
C1456 C 0.74495 0.11842 0.58701 0.0
C1457 C 0.77158 0.13277 0.59296 0.0
H1458 H 0.77386 0.11626 0.65743 0.0
H1459 H 0.70928 0.09143 0.60126 0.0
C1460 C 0.67331 0.98473 0.63469 0.0
N1461 N 0.698 0.00052 0.64479 0.0
C1462 C 0.66525 0.95989 0.62304 0.0
C1463 C 0.70828 0.96818 0.63228 0.0
C1464 C 0.71549 0.99285 0.6438 0.0
C1465 C 0.68283 0.95133 0.62183 0.0
H1466 H 0.65984 0.99139 0.63602 0.0
H1467 H 0.73491 0.0057 0.65241 0.0
O1468 O 0.71822 0.08986 0.69299 0.0
O1469 O 0.69785 0.03331 0.70023 0.0
O1470 O 0.68764 0.04759 0.64427 0.0
O1471 O 0.74309 0.06058 0.66567 0.0
H1472 H 0.7639 0.12853 0.7121 0.0
H1473 H 0.69395 0.10872 0.66516 0.0
H1474 H 0.78093 0.17423 0.70352 0.0
H1475 H 0.71214 0.15475 0.65732 0.0
H1476 H 0.72957 0.98135 0.71976 0.0
H1477 H 0.65376 0.99012 0.70307 0.0
H1478 H 0.7354 0.02393 0.71036 0.0
H1479 H 0.64938 0.94812 0.71227 0.0
H1480 H 0.63663 0.08188 0.73907 0.0
H1481 H 0.59939 0.00135 0.70776 0.0
H1482 H 0.81048 0.12113 0.76225 0.0
H1483 H 0.7453 0.06358 0.79899 0.0
H1484 H 0.68321 0.02655 0.59403 0.0
H1485 H 0.66004 0.07039 0.64483 0.0
H1486 H 0.65829 0.02941 0.5544 0.0
H1487 H 0.63562 0.07258 0.60428 0.0
H1488 H 0.72553 0.04567 0.61364 0.0
H1489 H 0.79194 0.0749 0.67072 0.0
H1490 H 0.75154 0.04618 0.57616 0.0
H1491 H 0.81691 0.07494 0.63226 0.0
H1492 H 0.8022 0.14391 0.62483 0.0
H1493 H 0.7362 0.11775 0.56706 0.0
H1494 H 0.6455 0.94752 0.61511 0.0
H1495 H 0.7223 0.96213 0.63222 0.0
Li1496 Li 0.93721 0.67478 0.74388 0.0
Li1497 Li 0.94992 0.64581 0.72735 0.0
Li1498 Li 0.96939 0.68881 0.71254 0.0
Li1499 Li 0.92423 0.65761 0.69667 0.0
C1500 C 0.98801 0.70065 0.76625 0.0
N1501 N 0.02153 0.74471 0.79964 0.0
C1502 C 0.00642 0.70065 0.78436 0.0
C1503 C 0.98668 0.7231 0.76505 0.0
C1504 C 0.02318 0.7231 0.8011 0.0
C1505 C 0.00379 0.74517 0.78211 0.0
C1506 C 0.89451 0.62915 0.74488 0.0
C1507 C 0.85136 0.61803 0.75202 0.0
N1508 N 0.85491 0.61317 0.77801 0.0
C1509 C 0.89764 0.6238 0.77159 0.0
C1510 C 0.87113 0.62606 0.73493 0.0
C1511 C 0.87743 0.61586 0.78806 0.0
C1512 C 0.90371 0.68501 0.77261 0.0
N1513 N 0.92514 0.68334 0.77583 0.0
C1514 C 0.92328 0.68388 0.82428 0.0
C1515 C 0.93533 0.68329 0.80107 0.0
C1516 C 0.90026 0.68386 0.82131 0.0
C1517 C 0.89069 0.68497 0.79522 0.0
H1518 H 0.89578 0.68454 0.75228 0.0
H1519 H 0.95186 0.68105 0.8031 0.0
C1520 C 0.98141 0.62476 0.72934 0.0
N1521 N 0.95822 0.62057 0.73558 0.0
C1522 C 0.98973 0.60805 0.73688 0.0
C1523 C 0.95008 0.58308 0.75715 0.0
C1524 C 0.94232 0.59997 0.74868 0.0
C1525 C 0.97427 0.5872 0.75163 0.0
H1526 H 0.99363 0.64138 0.7189 0.0
H1527 H 0.92392 0.59706 0.75322 0.0
C1528 C 0.94048 0.7088 0.69108 0.0
N1529 N 0.94096 0.73675 0.64828 0.0
C1530 C 0.94811 0.70456 0.66588 0.0
C1531 C 0.93312 0.72727 0.69446 0.0
C1532 C 0.9482 0.71887 0.64451 0.0
C1533 C 0.93351 0.74122 0.67259 0.0
C1534 C 0.95555 0.63667 0.67388 0.0
C1535 C 0.97503 0.64219 0.65686 0.0
C1536 C 0.93623 0.61109 0.675 0.0
C1537 C 0.97496 0.62197 0.64136 0.0
C1538 C 0.93687 0.59142 0.65922 0.0
N1539 N 0.95606 0.59722 0.64288 0.0
C1540 C 0.01701 0.70538 0.69606 0.0
C1541 C 0.00663 0.73842 0.69612 0.0
C1542 C 0.03914 0.72032 0.68348 0.0
N1543 N 0.00089 0.71422 0.70121 0.0
C1544 C 0.02866 0.75411 0.68352 0.0
C1545 C 0.04487 0.74478 0.67633 0.0
H1546 H 0.01202 0.68615 0.70069 0.0
H1547 H 0.99371 0.74519 0.70089 0.0
C1548 C 0.88405 0.65831 0.66642 0.0
N1549 N 0.90021 0.6489 0.66562 0.0
C1550 C 0.8709 0.65844 0.64238 0.0
C1551 C 0.89017 0.63789 0.61745 0.0
C1552 C 0.90298 0.63826 0.64186 0.0
C1553 C 0.87453 0.64884 0.61734 0.0
H1554 H 0.88269 0.6673 0.68543 0.0
H1555 H 0.91645 0.63169 0.64129 0.0
O1556 O 0.97164 0.67875 0.74968 0.0
O1557 O 0.91417 0.63733 0.72852 0.0
O1558 O 0.9394 0.69454 0.71219 0.0
O1559 O 0.95544 0.65617 0.68949 0.0
H1560 H 0.00773 0.68343 0.78547 0.0
H1561 H 0.97262 0.72357 0.75119 0.0
H1562 H 0.03751 0.72336 0.81524 0.0
H1563 H 0.00297 0.76266 0.78142 0.0
H1564 H 0.83321 0.61569 0.74463 0.0
H1565 H 0.91569 0.62634 0.77973 0.0
H1566 H 0.86829 0.62988 0.71426 0.0
H1567 H 0.8797 0.61199 0.80888 0.0
H1568 H 0.93092 0.68262 0.8441 0.0
H1569 H 0.87283 0.68479 0.79227 0.0
H1570 H 0.00827 0.61177 0.73164 0.0
H1571 H 0.9376 0.56762 0.76885 0.0
H1572 H 0.95383 0.69035 0.66272 0.0
H1573 H 0.92702 0.73067 0.71377 0.0
H1574 H 0.95399 0.71573 0.62492 0.0
H1575 H 0.92782 0.75555 0.67493 0.0
H1576 H 0.98995 0.66187 0.65545 0.0
H1577 H 0.92093 0.6065 0.68796 0.0
H1578 H 0.98991 0.62596 0.62809 0.0
H1579 H 0.9221 0.57155 0.65997 0.0
H1580 H 0.05092 0.71224 0.67819 0.0
H1581 H 0.03265 0.77307 0.67888 0.0
H1582 H 0.85895 0.66699 0.64322 0.0
H1583 H 0.89399 0.63079 0.5986 0.0
H1584 H 0.18853 0.41328 0.99722 0.0
H1585 H 0.29825 0.29309 0.18659 0.0
H1586 H 0.16527 0.38964 0.13799 0.0
H1587 H 0.13343 0.39694 0.11447 0.0
H1588 H 0.08047 0.31471 0.10468 0.0
H1589 H 0.11272 0.30762 0.12781 0.0
H1590 H 0.21141 0.3946 0.10753 0.0
H1591 H 0.20814 0.40958 0.06316 0.0
H1592 H 0.14237 0.33474 0.03691 0.0
H1593 H 0.1461 0.31992 0.08122 0.0
H1594 H 0.25133 0.38006 0.14067 0.0
H1595 H 0.28417 0.3905 0.10937 0.0
H1596 H 0.22798 0.33109 0.04925 0.0
H1597 H 0.19585 0.31933 0.08184 0.0
H1598 H 0.24163 0.36321 0.19836 0.0
H1599 H 0.27559 0.35505 0.2136 0.0
H1600 H 0.2456 0.28996 0.15232 0.0
H1601 H 0.21145 0.29806 0.1376 0.0
H1602 H 0.19516 0.36096 0.22514 0.0
H1603 H 0.20488 0.35157 0.27037 0.0
H1604 H 0.18923 0.27681 0.23626 0.0
H1605 H 0.17906 0.28619 0.19104 0.0
H1606 H 0.15931 0.37365 0.19586 0.0
H1607 H 0.13243 0.3698 0.23254 0.0
H1608 H 0.09901 0.2869 0.22316 0.0
H1609 H 0.12678 0.2912 0.18705 0.0
O1610 O 0.18962 0.40689 0.01454 0.0
O1611 O 0.15574 0.36816 0.00215 0.0
O1612 O 0.29893 0.32964 0.21302 0.0
O1613 O 0.28523 0.29699 0.18076 0.0
C1614 C 0.16219 0.34358 0.14308 0.0
C1615 C 0.18069 0.34735 0.12476 0.0
C1616 C 0.20102 0.34337 0.13253 0.0
C1617 C 0.20265 0.33536 0.15864 0.0
C1618 C 0.18402 0.33151 0.17693 0.0
C1619 C 0.16378 0.33565 0.16912 0.0
C1620 C 0.14124 0.34813 0.13451 0.0
C1621 C 0.14656 0.37329 0.13133 0.0
C1622 C 0.12838 0.37739 0.11786 0.0
C1623 C 0.10459 0.35636 0.1074 0.0
C1624 C 0.09882 0.33124 0.11208 0.0
C1625 C 0.11703 0.32717 0.1256 0.0
C1626 C 0.179 0.3562 0.09755 0.0
C1627 C 0.19642 0.38144 0.09209 0.0
C1628 C 0.19445 0.38996 0.06676 0.0
C1629 C 0.17496 0.37337 0.04649 0.0
C1630 C 0.15759 0.34802 0.05206 0.0
C1631 C 0.15964 0.33951 0.07735 0.0
C1632 C 0.22119 0.34884 0.11366 0.0
C1633 C 0.24624 0.36899 0.12092 0.0
C1634 C 0.26491 0.37527 0.10267 0.0
C1635 C 0.25882 0.36194 0.07641 0.0
C1636 C 0.23361 0.34167 0.06929 0.0
C1637 C 0.2151 0.33501 0.08784 0.0
C1638 C 0.22399 0.33113 0.16698 0.0
C1639 C 0.2424 0.34717 0.18829 0.0
C1640 C 0.2618 0.34249 0.19692 0.0
C1641 C 0.26326 0.32179 0.18422 0.0
C1642 C 0.24501 0.30603 0.16256 0.0
C1643 C 0.22553 0.31065 0.15405 0.0
C1644 C 0.18649 0.32429 0.2048 0.0
C1645 C 0.19309 0.34226 0.22757 0.0
C1646 C 0.19854 0.33683 0.2534 0.0
C1647 C 0.19778 0.31345 0.25679 0.0
C1648 C 0.19002 0.295 0.23416 0.0
C1649 C 0.18426 0.30032 0.20839 0.0
C1650 C 0.14498 0.33272 0.1888 0.0
C1651 C 0.14586 0.35464 0.20145 0.0
C1652 C 0.13038 0.35234 0.22239 0.0
C1653 C 0.11351 0.32801 0.23098 0.0
C1654 C 0.11204 0.30597 0.21746 0.0
C1655 C 0.12771 0.30834 0.19664 0.0
C1656 C 0.17278 0.38254 0.01971 0.0
C1657 C 0.2836 0.31649 0.19359 0.0
H1658 H 0.61945 0.79514 0.99188 0.0
H1659 H 0.71664 0.00741 0.23291 0.0
H1660 H 0.63458 0.78778 0.13713 0.0
H1661 H 0.62377 0.74452 0.11926 0.0
H1662 H 0.70318 0.76637 0.13237 0.0
H1663 H 0.71392 0.81008 0.14929 0.0
H1664 H 0.63031 0.82612 0.1088 0.0
H1665 H 0.61847 0.8117 0.06011 0.0
H1666 H 0.69492 0.82678 0.05066 0.0
H1667 H 0.70659 0.84145 0.09936 0.0
H1668 H 0.63411 0.86619 0.15071 0.0
H1669 H 0.61902 0.89039 0.12547 0.0
H1670 H 0.68665 0.92169 0.08165 0.0
H1671 H 0.70189 0.89765 0.10765 0.0
H1672 H 0.65317 0.87923 0.20788 0.0
H1673 H 0.65685 0.9183 0.23061 0.0
H1674 H 0.72601 0.9646 0.1921 0.0
H1675 H 0.7223 0.92526 0.16982 0.0
H1676 H 0.66141 0.84054 0.23346 0.0
H1677 H 0.6658 0.86198 0.2785 0.0
H1678 H 0.74101 0.92288 0.26386 0.0
H1679 H 0.73622 0.90123 0.21846 0.0
H1680 H 0.65036 0.79333 0.19863 0.0
H1681 H 0.65242 0.76686 0.23305 0.0
H1682 H 0.73452 0.81599 0.24428 0.0
H1683 H 0.73206 0.84287 0.20999 0.0
O1684 O 0.62458 0.80107 0.01106 0.0
O1685 O 0.66413 0.80906 0.00732 0.0
O1686 O 0.67896 0.96691 0.24323 0.0
O1687 O 0.71444 0.99169 0.22372 0.0
C1688 C 0.68119 0.82836 0.15465 0.0
C1689 C 0.67664 0.84369 0.13712 0.0
C1690 C 0.67848 0.86682 0.14795 0.0
C1691 C 0.68654 0.87555 0.17578 0.0
C1692 C 0.69228 0.86085 0.19305 0.0
C1693 C 0.68903 0.83697 0.18264 0.0
C1694 C 0.67505 0.8021 0.1442 0.0
C1695 C 0.64966 0.78327 0.1359 0.0
C1696 C 0.6435 0.75849 0.12599 0.0
C1697 C 0.66261 0.75197 0.12441 0.0
C1698 C 0.68807 0.77088 0.13298 0.0
C1699 C 0.69423 0.79577 0.14281 0.0
C1700 C 0.66939 0.83512 0.10752 0.0
C1701 C 0.64454 0.82655 0.09612 0.0
C1702 C 0.63779 0.8182 0.06832 0.0
C1703 C 0.65576 0.81814 0.05146 0.0
C1704 C 0.68063 0.82663 0.06304 0.0
C1705 C 0.68736 0.83502 0.09083 0.0
C1706 C 0.66914 0.88042 0.1311 0.0
C1707 C 0.64558 0.87818 0.13554 0.0
C1708 C 0.63688 0.89179 0.12091 0.0
C1709 C 0.65163 0.90788 0.10153 0.0
C1710 C 0.675 0.90958 0.09663 0.0
C1711 C 0.68369 0.89588 0.11133 0.0
C1712 C 0.68758 0.89945 0.18739 0.0
C1713 C 0.66905 0.89785 0.20431 0.0
C1714 C 0.6712 0.92018 0.21727 0.0
C1715 C 0.69182 0.94459 0.2133 0.0
C1716 C 0.70996 0.94612 0.19568 0.0
C1717 C 0.70784 0.92372 0.18282 0.0
C1718 C 0.69846 0.86937 0.2227 0.0
C1719 C 0.6793 0.85787 0.24045 0.0
C1720 C 0.68185 0.87026 0.26621 0.0
C1721 C 0.70364 0.89436 0.27462 0.0
C1722 C 0.72385 0.90454 0.25777 0.0
C1723 C 0.72127 0.89209 0.23198 0.0
C1724 C 0.69106 0.81983 0.20171 0.0
C1725 C 0.66882 0.79809 0.20818 0.0
C1726 C 0.67009 0.78294 0.2278 0.0
C1727 C 0.69369 0.78918 0.24133 0.0
C1728 C 0.71606 0.81077 0.23439 0.0
C1729 C 0.71473 0.82603 0.21474 0.0
C1730 C 0.64852 0.80918 0.02196 0.0
C1731 C 0.69458 0.96833 0.22767 0.0
H1732 H 0.133 0.80267 0.97492 0.0
H1733 H 0.34872 0.98337 0.17704 0.0
H1734 H 0.11871 0.82553 0.11096 0.0
H1735 H 0.08457 0.78261 0.09295 0.0
H1736 H 0.11465 0.74891 0.14819 0.0
H1737 H 0.14992 0.79175 0.16407 0.0
H1738 H 0.16412 0.86594 0.07967 0.0
H1739 H 0.15042 0.8453 0.03285 0.0
H1740 H 0.15837 0.78165 0.05727 0.0
H1741 H 0.17234 0.80266 0.1039 0.0
H1742 H 0.21685 0.91632 0.10829 0.0
H1743 H 0.25019 0.93668 0.07729 0.0
H1744 H 0.25786 0.869 0.07135 0.0
H1745 H 0.22501 0.84916 0.10308 0.0
H1746 H 0.22237 0.93115 0.17378 0.0
H1747 H 0.26528 0.96891 0.18318 0.0
H1748 H 0.29775 0.92104 0.16387 0.0
H1749 H 0.25481 0.88343 0.15501 0.0
H1750 H 0.18161 0.89987 0.21272 0.0
H1751 H 0.20023 0.9178 0.25975 0.0
H1752 H 0.24581 0.88127 0.25454 0.0
H1753 H 0.228 0.86462 0.20758 0.0
H1754 H 0.12272 0.84438 0.17835 0.0
H1755 H 0.09431 0.82394 0.21422 0.0
H1756 H 0.14913 0.80643 0.2509 0.0
H1757 H 0.17692 0.82605 0.21472 0.0
O1758 O 0.13864 0.81058 0.99351 0.0
O1759 O 0.14295 0.77829 0.00713 0.0
O1760 O 0.31412 0.99187 0.18737 0.0
O1761 O 0.33156 0.96869 0.17417 0.0
C1762 C 0.16088 0.83715 0.14476 0.0
C1763 C 0.17698 0.84817 0.12365 0.0
C1764 C 0.20111 0.87059 0.12973 0.0
C1765 C 0.20943 0.88188 0.15694 0.0
C1766 C 0.19343 0.87094 0.17804 0.0
C1767 C 0.16896 0.84878 0.17196 0.0
C1768 C 0.13699 0.81181 0.13861 0.0
C1769 C 0.1177 0.80884 0.11935 0.0
C1770 C 0.09808 0.78421 0.10919 0.0
C1771 C 0.09704 0.7621 0.11866 0.0
C1772 C 0.11524 0.76536 0.13969 0.0
C1773 C 0.13519 0.78993 0.14928 0.0
C1774 C 0.16906 0.83572 0.09517 0.0
C1775 C 0.16297 0.84759 0.07481 0.0
C1776 C 0.1551 0.83573 0.04812 0.0
C1777 C 0.15322 0.81178 0.04133 0.0
C1778 C 0.15956 0.80006 0.0618 0.0
C1779 C 0.16749 0.81198 0.08846 0.0
C1780 C 0.2186 0.88134 0.10796 0.0
C1781 C 0.22545 0.90576 0.09991 0.0
C1782 C 0.24436 0.91725 0.08203 0.0
C1783 C 0.2567 0.90445 0.07188 0.0
C1784 C 0.24887 0.87943 0.07901 0.0
C1785 C 0.23 0.86799 0.09694 0.0
C1786 C 0.23549 0.90462 0.16353 0.0
C1787 C 0.23879 0.92886 0.17177 0.0
C1788 C 0.26331 0.95038 0.17707 0.0
C1789 C 0.28496 0.94801 0.17411 0.0
C1790 C 0.28152 0.92358 0.16619 0.0
C1791 C 0.25702 0.90208 0.16108 0.0
C1792 C 0.20364 0.88114 0.2068 0.0
C1793 C 0.19566 0.89587 0.22188 0.0
C1794 C 0.20622 0.90595 0.24874 0.0
C1795 C 0.22476 0.90124 0.26091 0.0
C1796 C 0.23214 0.88593 0.24571 0.0
C1797 C 0.22185 0.87619 0.21891 0.0
C1798 C 0.15212 0.83714 0.19416 0.0
C1799 C 0.12861 0.83623 0.19423 0.0
C1800 C 0.11244 0.82458 0.21466 0.0
C1801 C 0.11972 0.81396 0.23552 0.0
C1802 C 0.14331 0.815 0.23543 0.0
C1803 C 0.15923 0.82625 0.21481 0.0
C1804 C 0.14465 0.79914 0.01301 0.0
C1805 C 0.31103 0.97089 0.17902 0.0
H1806 H 0.33349 0.21984 0.09129 0.0
H1807 H 0.34468 0.01772 0.90225 0.0
H1808 H 0.29433 0.19286 0.95081 0.0
H1809 H 0.30541 0.23739 0.96392 0.0
H1810 H 0.37388 0.26511 0.92191 0.0
H1811 H 0.36307 0.22065 0.90972 0.0
H1812 H 0.29718 0.15169 0.98955 0.0
H1813 H 0.30576 0.17471 0.03497 0.0
H1814 H 0.37986 0.23273 0.01375 0.0
H1815 H 0.37116 0.20934 0.96858 0.0
H1816 H 0.29684 0.09746 0.96679 0.0
H1817 H 0.31187 0.07418 0.99383 0.0
H1818 H 0.38883 0.13916 0.99826 0.0
H1819 H 0.37368 0.16187 0.9703 0.0
H1820 H 0.28112 0.08148 0.90173 0.0
H1821 H 0.28106 0.04084 0.89484 0.0
H1822 H 0.36279 0.08199 0.91491 0.0
H1823 H 0.36261 0.12247 0.92123 0.0
H1824 H 0.27611 0.11553 0.85671 0.0
H1825 H 0.27361 0.09288 0.81227 0.0
H1826 H 0.35388 0.11857 0.82569 0.0
H1827 H 0.35621 0.14096 0.86957 0.0
H1828 H 0.27991 0.17372 0.88465 0.0
H1829 H 0.27647 0.19662 0.84646 0.0
H1830 H 0.34832 0.20808 0.82163 0.0
H1831 H 0.35158 0.18537 0.85968 0.0
O1832 O 0.33068 0.21077 0.07343 0.0
O1833 O 0.36844 0.24024 0.06135 0.0
O1834 O 0.30222 0.0133 0.89379 0.0
O1835 O 0.34413 0.03348 0.9047 0.0
C1836 C 0.3236 0.17712 0.92516 0.0
C1837 C 0.32756 0.16563 0.94776 0.0
C1838 C 0.3267 0.14184 0.9436 0.0
C1839 C 0.32167 0.12942 0.91688 0.0
C1840 C 0.3178 0.14095 0.89435 0.0
C1841 C 0.31854 0.16471 0.89845 0.0
C1842 C 0.32789 0.2036 0.92932 0.0
C1843 C 0.31147 0.20859 0.94408 0.0
C1844 C 0.3178 0.23399 0.95146 0.0
C1845 C 0.34062 0.25471 0.9441 0.0
C1846 C 0.35637 0.24954 0.9282 0.0
C1847 C 0.35008 0.22419 0.92093 0.0
C1848 C 0.33346 0.17895 0.97575 0.0
C1849 C 0.31532 0.16927 0.99486 0.0
C1850 C 0.32024 0.18251 0.02073 0.0
C1851 C 0.34344 0.20565 0.02794 0.0
C1852 C 0.36176 0.21503 0.00884 0.0
C1853 C 0.35684 0.20173 0.98302 0.0
C1854 C 0.33419 0.13124 0.96642 0.0
C1855 C 0.31679 0.10697 0.97439 0.0
C1856 C 0.32546 0.09374 0.98991 0.0
C1857 C 0.35166 0.10469 0.99786 0.0
C1858 C 0.36863 0.13004 0.99203 0.0
C1859 C 0.35995 0.14319 0.97639 0.0
C1860 C 0.32181 0.10485 0.91224 0.0
C1861 C 0.29897 0.08165 0.90453 0.0
C1862 C 0.29901 0.05849 0.90066 0.0
C1863 C 0.32192 0.05815 0.90445 0.0
C1864 C 0.3448 0.08153 0.91192 0.0
C1865 C 0.34475 0.10467 0.91563 0.0
C1866 C 0.31627 0.12953 0.86638 0.0
C1867 C 0.29314 0.11645 0.84977 0.0
C1868 C 0.29175 0.1036 0.82452 0.0
C1869 C 0.31345 0.10365 0.81589 0.0
C1870 C 0.33676 0.11778 0.83214 0.0
C1871 C 0.33815 0.13064 0.8571 0.0
C1872 C 0.31581 0.17755 0.87469 0.0
C1873 C 0.29476 0.18102 0.87077 0.0
C1874 C 0.29289 0.19417 0.84906 0.0
C1875 C 0.31201 0.20396 0.83087 0.0
C1876 C 0.33298 0.20029 0.83488 0.0
C1877 C 0.33491 0.18733 0.85662 0.0
C1878 C 0.34838 0.21999 0.05521 0.0
C1879 C 0.32205 0.03359 0.90063 0.0
H1880 H 0.81998 0.2141 0.09134 0.0
H1881 H 0.68038 0.98842 0.87397 0.0
H1882 H 0.8352 0.21227 0.94695 0.0
H1883 H 0.87045 0.25423 0.96595 0.0
H1884 H 0.92227 0.225 0.96057 0.0
H1885 H 0.88647 0.18262 0.94237 0.0
H1886 H 0.79108 0.17509 0.97594 0.0
H1887 H 0.79736 0.19294 0.02348 0.0
H1888 H 0.85857 0.17714 0.03875 0.0
H1889 H 0.8519 0.15908 0.99124 0.0
H1890 H 0.74803 0.12695 0.93636 0.0
H1891 H 0.71339 0.10538 0.96548 0.0
H1892 H 0.7615 0.08814 0.01709 0.0
H1893 H 0.79553 0.10855 0.98684 0.0
H1894 H 0.75427 0.1162 0.87627 0.0
H1895 H 0.71581 0.0761 0.85798 0.0
H1896 H 0.73748 0.03349 0.91001 0.0
H1897 H 0.77609 0.07366 0.92778 0.0
H1898 H 0.80647 0.1593 0.85273 0.0
H1899 H 0.79427 0.14181 0.80481 0.0
H1900 H 0.7914 0.0718 0.82547 0.0
H1901 H 0.80522 0.09001 0.87333 0.0
H1902 H 0.84646 0.20566 0.8888 0.0
H1903 H 0.87726 0.22908 0.85634 0.0
H1904 H 0.89455 0.1678 0.84755 0.0
H1905 H 0.8638 0.14453 0.88051 0.0
O1906 O 0.8177 0.20679 0.07268 0.0
O1907 O 0.84909 0.19836 0.07943 0.0
O1908 O 0.68589 0.02717 0.85332 0.0
O1909 O 0.69531 0.00461 0.88099 0.0
C1910 C 0.83634 0.16876 0.93351 0.0
C1911 C 0.81739 0.15517 0.95122 0.0
C1912 C 0.79499 0.13201 0.94124 0.0
C1913 C 0.79182 0.12207 0.91369 0.0
C1914 C 0.81107 0.13545 0.89605 0.0
C1915 C 0.83338 0.15884 0.90602 0.0
C1916 C 0.85832 0.19445 0.94348 0.0
C1917 C 0.85418 0.21496 0.9499 0.0
C1918 C 0.87437 0.23895 0.96052 0.0
C1919 C 0.89916 0.24294 0.96475 0.0
C1920 C 0.90332 0.22241 0.95786 0.0
C1921 C 0.88301 0.19831 0.94728 0.0
C1922 C 0.82093 0.16565 0.98022 0.0
C1923 C 0.80569 0.17532 0.98966 0.0
C1924 C 0.80939 0.18559 0.01679 0.0
C1925 C 0.82846 0.18646 0.03493 0.0
C1926 C 0.84371 0.17675 0.02533 0.0
C1927 C 0.83995 0.16644 0.99822 0.0
C1928 C 0.77416 0.11902 0.95929 0.0
C1929 C 0.75097 0.11831 0.95384 0.0
C1930 C 0.73135 0.10634 0.9708 0.0
C1931 C 0.73464 0.09508 0.99376 0.0
C1932 C 0.75816 0.0963 0.99942 0.0
C1933 C 0.77768 0.10804 0.98224 0.0
C1934 C 0.76804 0.09781 0.90322 0.0
C1935 C 0.75071 0.09817 0.88362 0.0
C1936 C 0.72874 0.07525 0.87325 0.0
C1937 C 0.7236 0.05156 0.88248 0.0
C1938 C 0.74086 0.05137 0.90242 0.0
C1939 C 0.7629 0.07429 0.91266 0.0
C1940 C 0.80679 0.12597 0.86659 0.0
C1941 C 0.80418 0.14059 0.84683 0.0
C1942 C 0.7972 0.13061 0.8195 0.0
C1943 C 0.79207 0.10559 0.81163 0.0
C1944 C 0.79545 0.09123 0.83117 0.0
C1945 C 0.80318 0.10153 0.85841 0.0
C1946 C 0.85308 0.17352 0.88727 0.0
C1947 C 0.85725 0.19751 0.8803 0.0
C1948 C 0.87484 0.21085 0.86175 0.0
C1949 C 0.88842 0.20033 0.84954 0.0
C1950 C 0.88428 0.17631 0.85658 0.0
C1951 C 0.86683 0.16307 0.87542 0.0
C1952 C 0.83245 0.19753 0.06369 0.0
C1953 C 0.70044 0.02712 0.87134 0.0
H1954 H 0.86992 0.65923 0.10542 0.0
H1955 H 0.66155 0.63028 0.90588 0.0
H1956 H 0.88593 0.69881 0.97223 0.0
H1957 H 0.91725 0.69112 0.99572 0.0
H1958 H 0.88986 0.62091 0.9425 0.0
H1959 H 0.85732 0.628 0.92048 0.0
H1960 H 0.84102 0.69034 0.0057 0.0
H1961 H 0.85382 0.68393 0.05115 0.0
H1962 H 0.84334 0.61048 0.01923 0.0
H1963 H 0.83018 0.61695 0.97402 0.0
H1964 H 0.79064 0.68937 0.97788 0.0
H1965 H 0.75808 0.67855 0.00985 0.0
H1966 H 0.74634 0.60144 0.00881 0.0
H1967 H 0.7782 0.61222 0.97581 0.0
H1968 H 0.78882 0.69991 0.91608 0.0
H1969 H 0.74753 0.69732 0.90796 0.0
H1970 H 0.70916 0.61533 0.91564 0.0
H1971 H 0.75055 0.61814 0.92335 0.0
H1972 H 0.83086 0.70949 0.87963 0.0
H1973 H 0.81404 0.71355 0.83506 0.0
H1974 H 0.76312 0.63084 0.82445 0.0
H1975 H 0.77916 0.62735 0.86938 0.0
H1976 H 0.8862 0.70744 0.90763 0.0
H1977 H 0.91272 0.71475 0.86915 0.0
H1978 H 0.85361 0.64309 0.82644 0.0
H1979 H 0.82792 0.63508 0.86531 0.0
O1980 O 0.86445 0.6612 0.08738 0.0
O1981 O 0.859 0.6237 0.06989 0.0
O1982 O 0.69873 0.67375 0.90327 0.0
O1983 O 0.67813 0.63175 0.90825 0.0
C1984 C 0.84501 0.66372 0.93814 0.0
C1985 C 0.82808 0.65865 0.95878 0.0
C1986 C 0.80457 0.65743 0.95297 0.0
C1987 C 0.79772 0.66106 0.92649 0.0
C1988 C 0.81436 0.66576 0.90574 0.0
C1989 C 0.83805 0.66699 0.91144 0.0
C1990 C 0.86914 0.66382 0.94489 0.0
C1991 C 0.88723 0.68217 0.96511 0.0
C1992 C 0.90514 0.67765 0.97859 0.0
C1993 C 0.90575 0.65497 0.97159 0.0
C1994 C 0.8894 0.6381 0.94916 0.0
C1995 C 0.87113 0.64241 0.93605 0.0
C1996 C 0.8348 0.65417 0.98659 0.0
C1997 C 0.84132 0.6728 0.00865 0.0
C1998 C 0.84871 0.66912 0.03454 0.0
C1999 C 0.8497 0.64673 0.03881 0.0
C2000 C 0.84284 0.62796 0.01666 0.0
C2001 C 0.83535 0.63162 0.99081 0.0
C2002 C 0.78665 0.65155 0.97445 0.0
C2003 C 0.78115 0.67022 0.98476 0.0
C2004 C 0.76273 0.66404 0.00326 0.0
C2005 C 0.7496 0.6391 0.01197 0.0
C2006 C 0.75589 0.62073 0.00231 0.0
C2007 C 0.7742 0.62689 0.98364 0.0
C2008 C 0.77266 0.65923 0.92035 0.0
C2009 C 0.77147 0.68138 0.91575 0.0
C2010 C 0.74787 0.67985 0.91121 0.0
C2011 C 0.72503 0.65612 0.9113 0.0
C2012 C 0.72635 0.63391 0.91554 0.0
C2013 C 0.74996 0.63545 0.91996 0.0
C2014 C 0.80611 0.66815 0.87771 0.0
C2015 C 0.81618 0.69231 0.8675 0.0
C2016 C 0.8066 0.69454 0.84198 0.0
C2017 C 0.78696 0.67256 0.8262 0.0
C2018 C 0.77772 0.64829 0.83625 0.0
C2019 C 0.78702 0.64617 0.86183 0.0
C2020 C 0.85494 0.67088 0.88915 0.0
C2021 C 0.87913 0.69318 0.89011 0.0
C2022 C 0.89414 0.69743 0.86815 0.0
C2023 C 0.88487 0.6797 0.84478 0.0
C2024 C 0.8609 0.65725 0.84406 0.0
C2025 C 0.84625 0.65269 0.86622 0.0
C2026 C 0.85796 0.64308 0.06624 0.0
C2027 C 0.6999 0.65451 0.90731 0.0
H2028 H 0.85422 0.75006 0.32972 0.0
H2029 H 0.966 0.63352 0.52382 0.0
H2030 H 0.83057 0.72721 0.4707 0.0
H2031 H 0.79746 0.73276 0.44733 0.0
H2032 H 0.74686 0.65008 0.43858 0.0
H2033 H 0.78033 0.64474 0.46165 0.0
H2034 H 0.87789 0.7335 0.44072 0.0
H2035 H 0.87417 0.74768 0.39599 0.0
H2036 H 0.80961 0.67187 0.3704 0.0
H2037 H 0.81378 0.65786 0.41506 0.0
H2038 H 0.9188 0.72077 0.47416 0.0
H2039 H 0.95179 0.7309 0.44299 0.0
H2040 H 0.89629 0.66924 0.38435 0.0
H2041 H 0.864 0.6581 0.41666 0.0
H2042 H 0.90972 0.70415 0.53206 0.0
H2043 H 0.94368 0.69629 0.54815 0.0
H2044 H 0.9137 0.63005 0.48838 0.0
H2045 H 0.87957 0.63788 0.4728 0.0
H2046 H 0.86464 0.70143 0.55872 0.0
H2047 H 0.87405 0.69198 0.60398 0.0
H2048 H 0.85407 0.61546 0.57075 0.0
H2049 H 0.84502 0.62531 0.52538 0.0
H2050 H 0.82634 0.71215 0.53003 0.0
H2051 H 0.79914 0.70766 0.56658 0.0
H2052 H 0.76609 0.62484 0.55606 0.0
H2053 H 0.79418 0.62978 0.52009 0.0
O2054 O 0.85549 0.744 0.34718 0.0
O2055 O 0.82223 0.70478 0.33514 0.0
O2056 O 0.96682 0.67069 0.54898 0.0
O2057 O 0.9531 0.6374 0.51752 0.0
C2058 C 0.82932 0.68211 0.47666 0.0
C2059 C 0.84806 0.68631 0.4585 0.0
C2060 C 0.8688 0.68307 0.46658 0.0
C2061 C 0.8706 0.67535 0.4928 0.0
C2062 C 0.85179 0.67117 0.51092 0.0
C2063 C 0.83117 0.67459 0.50286 0.0
C2064 C 0.80777 0.6856 0.46778 0.0
C2065 C 0.81211 0.71037 0.46428 0.0
C2066 C 0.79321 0.71348 0.45092 0.0
C2067 C 0.7697 0.69182 0.44085 0.0
C2068 C 0.76497 0.66707 0.44573 0.0
C2069 C 0.78387 0.664 0.45918 0.0
C2070 C 0.8461 0.69468 0.4311 0.0
C2071 C 0.86307 0.71997 0.42535 0.0
C2072 C 0.86084 0.72802 0.39982 0.0
C2073 C 0.84156 0.71092 0.37963 0.0
C2074 C 0.82466 0.68554 0.38549 0.0
C2075 C 0.82696 0.67749 0.41098 0.0
C2076 C 0.88901 0.68861 0.44779 0.0
C2077 C 0.9139 0.70923 0.45474 0.0
C2078 C 0.93264 0.71527 0.43661 0.0
C2079 C 0.92678 0.70109 0.41088 0.0
C2080 C 0.90171 0.68044 0.40403 0.0
C2081 C 0.88311 0.67412 0.4224 0.0
C2082 C 0.89211 0.6715 0.50138 0.0
C2083 C 0.91053 0.68795 0.52248 0.0
C2084 C 0.92991 0.68343 0.53161 0.0
C2085 C 0.93134 0.66246 0.51962 0.0
C2086 C 0.91313 0.64633 0.49809 0.0
C2087 C 0.89367 0.6508 0.48909 0.0
C2088 C 0.8543 0.6641 0.53881 0.0
C2089 C 0.86178 0.68245 0.56137 0.0
C2090 C 0.867 0.67694 0.58724 0.0
C2091 C 0.86485 0.65296 0.59096 0.0
C2092 C 0.85615 0.63418 0.56848 0.0
C2093 C 0.85093 0.63973 0.5426 0.0
C2094 C 0.8122 0.6713 0.52243 0.0
C2095 C 0.81292 0.69303 0.53535 0.0
C2096 C 0.79725 0.69037 0.55621 0.0
C2097 C 0.78038 0.66586 0.56442 0.0
C2098 C 0.77911 0.64403 0.55063 0.0
C2099 C 0.79495 0.64675 0.5299 0.0
C2100 C 0.8391 0.71961 0.35262 0.0
C2101 C 0.95155 0.65722 0.52964 0.0
H2102 H 0.28901 0.12156 0.32444 0.0
H2103 H 0.38999 0.34666 0.54142 0.0
H2104 H 0.30322 0.12016 0.47096 0.0
H2105 H 0.29226 0.07659 0.45422 0.0
H2106 H 0.37156 0.09823 0.46807 0.0
H2107 H 0.38245 0.14226 0.48388 0.0
H2108 H 0.29959 0.15694 0.44003 0.0
H2109 H 0.28784 0.14066 0.39175 0.0
H2110 H 0.36456 0.15593 0.38373 0.0
H2111 H 0.37612 0.17245 0.432 0.0
H2112 H 0.30311 0.1969 0.47999 0.0
H2113 H 0.2874 0.22074 0.4552 0.0
H2114 H 0.35536 0.25406 0.41189 0.0
H2115 H 0.37124 0.23033 0.43756 0.0
H2116 H 0.32444 0.21811 0.53552 0.0
H2117 H 0.32904 0.25972 0.55096 0.0
H2118 H 0.39901 0.29871 0.51158 0.0
H2119 H 0.39431 0.25695 0.49658 0.0
H2120 H 0.32603 0.17445 0.56139 0.0
H2121 H 0.3274 0.19437 0.60625 0.0
H2122 H 0.40484 0.25483 0.59866 0.0
H2123 H 0.40299 0.23477 0.5532 0.0
H2124 H 0.31771 0.1276 0.53215 0.0
H2125 H 0.31899 0.10132 0.56728 0.0
H2126 H 0.40118 0.14954 0.57911 0.0
H2127 H 0.39948 0.17629 0.54423 0.0
O2128 O 0.29411 0.12824 0.34345 0.0
O2129 O 0.33378 0.13638 0.34044 0.0
O2130 O 0.35084 0.3089 0.554 0.0
O2131 O 0.38782 0.32996 0.53578 0.0
C2132 C 0.34994 0.16096 0.48748 0.0
C2133 C 0.34595 0.1758 0.46877 0.0
C2134 C 0.3483 0.19949 0.47818 0.0
C2135 C 0.35644 0.20933 0.50576 0.0
C2136 C 0.36061 0.19464 0.52449 0.0
C2137 C 0.35711 0.17031 0.51539 0.0
C2138 C 0.34365 0.13438 0.4783 0.0
C2139 C 0.31823 0.1155 0.47022 0.0
C2140 C 0.31198 0.09055 0.46094 0.0
C2141 C 0.33104 0.08391 0.45981 0.0
C2142 C 0.3565 0.10283 0.46834 0.0
C2143 C 0.36275 0.1279 0.47753 0.0
C2144 C 0.33879 0.16618 0.43939 0.0
C2145 C 0.3139 0.15703 0.42773 0.0
C2146 C 0.30721 0.1476 0.40018 0.0
C2147 C 0.32528 0.14705 0.38385 0.0
C2148 C 0.35019 0.15614 0.3957 0.0
C2149 C 0.35686 0.1656 0.42325 0.0
C2150 C 0.33831 0.21207 0.46058 0.0
C2151 C 0.31444 0.20912 0.46488 0.0
C2152 C 0.30542 0.22259 0.45054 0.0
C2153 C 0.32012 0.23926 0.43155 0.0
C2154 C 0.34373 0.24151 0.42658 0.0
C2155 C 0.35277 0.22794 0.44104 0.0
C2156 C 0.3592 0.23458 0.5152 0.0
C2157 C 0.34084 0.23567 0.53046 0.0
C2158 C 0.34347 0.25946 0.53913 0.0
C2159 C 0.36442 0.28256 0.53251 0.0
C2160 C 0.38269 0.28131 0.51709 0.0
C2161 C 0.38006 0.25751 0.50847 0.0
C2162 C 0.36441 0.20313 0.55408 0.0
C2163 C 0.34364 0.19143 0.56984 0.0
C2164 C 0.34448 0.20293 0.59555 0.0
C2165 C 0.36617 0.2264 0.60601 0.0
C2166 C 0.38771 0.237 0.59101 0.0
C2167 C 0.38682 0.22545 0.56519 0.0
C2168 C 0.35851 0.15365 0.53554 0.0
C2169 C 0.33601 0.13226 0.54209 0.0
C2170 C 0.33684 0.1172 0.5621 0.0
C2171 C 0.36024 0.12316 0.57589 0.0
C2172 C 0.38284 0.14453 0.56903 0.0
C2173 C 0.38195 0.15973 0.54905 0.0
C2174 C 0.31809 0.13693 0.35461 0.0
C2175 C 0.36721 0.30787 0.54147 0.0
H2176 H 0.79773 0.13581 0.31081 0.0
H2177 H 0.01811 0.31147 0.51414 0.0
H2178 H 0.78607 0.15814 0.4477 0.0
H2179 H 0.75146 0.11515 0.43025 0.0
H2180 H 0.78348 0.08141 0.48291 0.0
H2181 H 0.819 0.12423 0.49827 0.0
H2182 H 0.83148 0.1991 0.41571 0.0
H2183 H 0.81673 0.17853 0.36893 0.0
H2184 H 0.82508 0.1147 0.39184 0.0
H2185 H 0.84009 0.13563 0.43842 0.0
H2186 H 0.88481 0.24958 0.445 0.0
H2187 H 0.91825 0.27083 0.4143 0.0
H2188 H 0.92585 0.2032 0.40574 0.0
H2189 H 0.89285 0.18241 0.43711 0.0
H2190 H 0.8923 0.26381 0.50975 0.0
H2191 H 0.93584 0.30047 0.51951 0.0
H2192 H 0.96564 0.25031 0.49961 0.0
H2193 H 0.92208 0.21382 0.49037 0.0
H2194 H 0.85304 0.23468 0.54776 0.0
H2195 H 0.87172 0.25172 0.5949 0.0
H2196 H 0.91093 0.20847 0.59082 0.0
H2197 H 0.89334 0.19292 0.54359 0.0
H2198 H 0.79337 0.18066 0.51738 0.0
H2199 H 0.76562 0.16058 0.55378 0.0
H2200 H 0.81595 0.13416 0.58293 0.0
H2201 H 0.84349 0.1544 0.54684 0.0
O2202 O 0.8039 0.14375 0.32933 0.0
O2203 O 0.80819 0.11125 0.34227 0.0
O2204 O 0.98456 0.32185 0.52357 0.0
O2205 O 0.0007 0.29727 0.51103 0.0
C2206 C 0.82898 0.16972 0.4802 0.0
C2207 C 0.8449 0.18098 0.45901 0.0
C2208 C 0.86911 0.20332 0.46513 0.0
C2209 C 0.87769 0.21414 0.49247 0.0
C2210 C 0.86176 0.20306 0.51356 0.0
C2211 C 0.83724 0.1811 0.50743 0.0
C2212 C 0.80514 0.14435 0.47416 0.0
C2213 C 0.78535 0.14142 0.45569 0.0
C2214 C 0.7655 0.11679 0.44586 0.0
C2215 C 0.76484 0.09468 0.4548 0.0
C2216 C 0.7837 0.0979 0.47495 0.0
C2217 C 0.80381 0.12244 0.48422 0.0
C2218 C 0.83669 0.16878 0.43045 0.0
C2219 C 0.83022 0.18074 0.41052 0.0
C2220 C 0.82175 0.16891 0.38385 0.0
C2221 C 0.81962 0.14491 0.37667 0.0
C2222 C 0.82642 0.13314 0.39669 0.0
C2223 C 0.83497 0.14503 0.42331 0.0
C2224 C 0.88645 0.2145 0.44329 0.0
C2225 C 0.89339 0.23921 0.43607 0.0
C2226 C 0.91238 0.25123 0.41839 0.0
C2227 C 0.92477 0.23871 0.40761 0.0
C2228 C 0.91685 0.21343 0.41389 0.0
C2229 C 0.89787 0.20144 0.43161 0.0
C2230 C 0.90407 0.23623 0.49922 0.0
C2231 C 0.90827 0.26078 0.5077 0.0
C2232 C 0.93314 0.28168 0.51319 0.0
C2233 C 0.95423 0.27833 0.5102 0.0
C2234 C 0.94987 0.25359 0.502 0.0
C2235 C 0.92501 0.23272 0.49667 0.0
C2236 C 0.87202 0.21275 0.54236 0.0
C2237 C 0.86574 0.22904 0.55719 0.0
C2238 C 0.87629 0.23858 0.58414 0.0
C2239 C 0.89305 0.23169 0.59669 0.0
C2240 C 0.89869 0.2148 0.58172 0.0
C2241 C 0.88849 0.20567 0.55478 0.0
C2242 C 0.82062 0.16929 0.52971 0.0
C2243 C 0.79842 0.17066 0.5318 0.0
C2244 C 0.78257 0.15912 0.55252 0.0
C2245 C 0.7887 0.146 0.57147 0.0
C2246 C 0.81098 0.14466 0.56916 0.0
C2247 C 0.82674 0.15616 0.54849 0.0
C2248 C 0.81026 0.13222 0.34843 0.0
C2249 C 0.98069 0.30052 0.5154 0.0
H2250 H 0.01507 0.55863 0.4272 0.0
H2251 H 0.01883 0.35712 0.23424 0.0
H2252 H 0.96775 0.52922 0.29017 0.0
H2253 H 0.97668 0.57285 0.30313 0.0
H2254 H 0.03845 0.6028 0.25068 0.0
H2255 H 0.03074 0.55936 0.23991 0.0
H2256 H 0.97364 0.48975 0.32606 0.0
H2257 H 0.98468 0.51303 0.37162 0.0
H2258 H 0.05561 0.57247 0.34529 0.0
H2259 H 0.04448 0.54883 0.29994 0.0
H2260 H 0.9699 0.43674 0.30129 0.0
H2261 H 0.98426 0.4126 0.32778 0.0
H2262 H 0.06222 0.47512 0.3292 0.0
H2263 H 0.04764 0.49884 0.30205 0.0
H2264 H 0.9539 0.41947 0.23724 0.0
H2265 H 0.95426 0.37906 0.23015 0.0
H2266 H 0.03648 0.42138 0.24569 0.0
H2267 H 0.03586 0.46162 0.25223 0.0
H2268 H 0.94684 0.45042 0.19279 0.0
H2269 H 0.94395 0.4269 0.14884 0.0
H2270 H 0.02564 0.45904 0.15788 0.0
H2271 H 0.02825 0.48199 0.20146 0.0
H2272 H 0.9501 0.51051 0.22143 0.0
H2273 H 0.9442 0.5325 0.18364 0.0
H2274 H 0.01488 0.5447 0.15437 0.0
H2275 H 0.0207 0.52313 0.19211 0.0
O2276 O 0.01127 0.54953 0.40919 0.0
O2277 O 0.04732 0.57973 0.3945 0.0
O2278 O 0.97592 0.35201 0.22795 0.0
O2279 O 0.01813 0.37281 0.23662 0.0
C2280 C 0.99568 0.51515 0.25954 0.0
C2281 C 0.00091 0.50402 0.28176 0.0
C2282 C 0.0001 0.48029 0.27722 0.0
C2283 C 0.99444 0.46781 0.2505 0.0
C2284 C 0.98968 0.4791 0.22831 0.0
C2285 C 0.98991 0.50258 0.23277 0.0
C2286 C 0.99859 0.5411 0.26413 0.0
C2287 C 0.9831 0.54524 0.2814 0.0
C2288 C 0.98813 0.57023 0.28857 0.0
C2289 C 0.00843 0.59151 0.27808 0.0
C2290 C 0.02304 0.58703 0.25965 0.0
C2291 C 0.01838 0.56212 0.25305 0.0
C2292 C 0.00818 0.51768 0.30969 0.0
C2293 C 0.99162 0.50771 0.33025 0.0
C2294 C 0.99795 0.52109 0.35622 0.0
C2295 C 0.02098 0.54468 0.36207 0.0
C2296 C 0.03769 0.55441 0.34146 0.0
C2297 C 0.03138 0.54096 0.31554 0.0
C2298 C 0.00774 0.46943 0.29965 0.0
C2299 C 0.98996 0.44557 0.30816 0.0
C2300 C 0.99825 0.43184 0.32333 0.0
C2301 C 0.02445 0.44182 0.33028 0.0
C2302 C 0.04196 0.46678 0.32379 0.0
C2303 C 0.03365 0.48049 0.30859 0.0
C2304 C 0.99481 0.4434 0.24547 0.0
C2305 C 0.97196 0.41994 0.23896 0.0
C2306 C 0.97223 0.39691 0.23499 0.0
C2307 C 0.99541 0.39697 0.23749 0.0
C2308 C 0.0183 0.42061 0.24371 0.0
C2309 C 0.018 0.44362 0.24753 0.0
C2310 C 0.98773 0.46768 0.20024 0.0
C2311 C 0.96406 0.4526 0.18494 0.0
C2312 C 0.96246 0.43925 0.15997 0.0
C2313 C 0.98452 0.44083 0.15029 0.0
C2314 C 0.00827 0.45702 0.16515 0.0
C2315 C 0.00983 0.47027 0.1899 0.0
C2316 C 0.9856 0.51481 0.20926 0.0
C2317 C 0.96415 0.51777 0.20668 0.0
C2318 C 0.96087 0.53039 0.18519 0.0
C2319 C 0.97892 0.54006 0.16585 0.0
C2320 C 0.00031 0.53694 0.16853 0.0
C2321 C 0.00367 0.52457 0.19007 0.0
C2322 C 0.02742 0.55909 0.38952 0.0
C2323 C 0.99579 0.37253 0.2337 0.0
H2324 H 0.48435 0.54602 0.42278 0.0
H2325 H 0.34533 0.32202 0.2039 0.0
H2326 H 0.49943 0.5458 0.2791 0.0
H2327 H 0.5347 0.58762 0.29823 0.0
H2328 H 0.58692 0.55923 0.28928 0.0
H2329 H 0.55106 0.51688 0.27128 0.0
H2330 H 0.45521 0.5078 0.30721 0.0
H2331 H 0.4615 0.5252 0.35492 0.0
H2332 H 0.52373 0.51071 0.36904 0.0
H2333 H 0.51702 0.49307 0.32135 0.0
H2334 H 0.41234 0.45965 0.26763 0.0
H2335 H 0.37808 0.43739 0.29698 0.0
H2336 H 0.42741 0.42089 0.34751 0.0
H2337 H 0.46105 0.44195 0.31697 0.0
H2338 H 0.41843 0.44997 0.2074 0.0
H2339 H 0.37995 0.40987 0.18916 0.0
H2340 H 0.40262 0.36706 0.23968 0.0
H2341 H 0.44123 0.40727 0.25743 0.0
H2342 H 0.46961 0.49302 0.18353 0.0
H2343 H 0.4573 0.47567 0.1356 0.0
H2344 H 0.45732 0.40678 0.15544 0.0
H2345 H 0.47085 0.42478 0.20334 0.0
H2346 H 0.50996 0.53952 0.21922 0.0
H2347 H 0.54059 0.56334 0.18676 0.0
H2348 H 0.55931 0.50305 0.17818 0.0
H2349 H 0.52858 0.47932 0.21093 0.0
O2350 O 0.48207 0.5389 0.40403 0.0
O2351 O 0.514 0.53119 0.41018 0.0
O2352 O 0.35002 0.36096 0.18449 0.0
O2353 O 0.3603 0.33819 0.21088 0.0
C2354 C 0.50074 0.50264 0.26402 0.0
C2355 C 0.48196 0.48877 0.2818 0.0
C2356 C 0.45965 0.46552 0.2718 0.0
C2357 C 0.45639 0.45581 0.24415 0.0
C2358 C 0.47547 0.46948 0.22645 0.0
C2359 C 0.49768 0.49291 0.23643 0.0
C2360 C 0.52271 0.52832 0.27404 0.0
C2361 C 0.5185 0.54863 0.28135 0.0
C2362 C 0.53872 0.57257 0.29203 0.0
C2363 C 0.56365 0.57679 0.29527 0.0
C2364 C 0.56789 0.55649 0.28741 0.0
C2365 C 0.54753 0.5324 0.27691 0.0
C2366 C 0.48555 0.49903 0.31089 0.0
C2367 C 0.47005 0.50821 0.32071 0.0
C2368 C 0.47375 0.51823 0.34794 0.0
C2369 C 0.49312 0.51934 0.3658 0.0
C2370 C 0.50864 0.51013 0.35584 0.0
C2371 C 0.50486 0.50006 0.32862 0.0
C2372 C 0.43904 0.45212 0.28998 0.0
C2373 C 0.41563 0.45102 0.28492 0.0
C2374 C 0.39622 0.43865 0.30201 0.0
C2375 C 0.39997 0.4274 0.32473 0.0
C2376 C 0.42372 0.42902 0.33002 0.0
C2377 C 0.44301 0.44114 0.31269 0.0
C2378 C 0.43269 0.4315 0.23361 0.0
C2379 C 0.41509 0.4319 0.21442 0.0
C2380 C 0.3931 0.40897 0.20408 0.0
C2381 C 0.38823 0.38524 0.21293 0.0
C2382 C 0.4058 0.38499 0.23241 0.0
C2383 C 0.42784 0.40792 0.24263 0.0
C2384 C 0.47113 0.46018 0.19696 0.0
C2385 C 0.46782 0.47457 0.17743 0.0
C2386 C 0.4608 0.46466 0.15008 0.0
C2387 C 0.45644 0.43995 0.14195 0.0
C2388 C 0.46063 0.42591 0.1613 0.0
C2389 C 0.46824 0.4361 0.18857 0.0
C2390 C 0.5172 0.50781 0.21762 0.0
C2391 C 0.52097 0.53166 0.21069 0.0
C2392 C 0.5385 0.54524 0.19216 0.0
C2393 C 0.55247 0.53513 0.18003 0.0
C2394 C 0.54872 0.51124 0.18709 0.0
C2395 C 0.53128 0.49774 0.20582 0.0
C2396 C 0.4971 0.53013 0.39468 0.0
C2397 C 0.36501 0.3608 0.20186 0.0
H2398 H 0.54099 0.98447 0.43491 0.0
H2399 H 0.3255 0.95656 0.23528 0.0
H2400 H 0.55015 0.02396 0.30173 0.0
H2401 H 0.58376 0.0182 0.32298 0.0
H2402 H 0.55309 0.94496 0.27452 0.0
H2403 H 0.51888 0.95061 0.25409 0.0
H2404 H 0.5067 0.01483 0.3381 0.0
H2405 H 0.5216 0.00865 0.38261 0.0
H2406 H 0.50736 0.93388 0.35006 0.0
H2407 H 0.49221 0.94017 0.30583 0.0
H2408 H 0.45608 0.01524 0.3115 0.0
H2409 H 0.42384 0.00559 0.34362 0.0
H2410 H 0.40911 0.92738 0.34226 0.0
H2411 H 0.44079 0.93706 0.3092 0.0
H2412 H 0.45283 0.02541 0.25025 0.0
H2413 H 0.41186 0.02337 0.24146 0.0
H2414 H 0.3725 0.94118 0.24804 0.0
H2415 H 0.41359 0.94346 0.2565 0.0
H2416 H 0.49478 0.03506 0.2138 0.0
H2417 H 0.47875 0.04033 0.16939 0.0
H2418 H 0.4265 0.95794 0.1571 0.0
H2419 H 0.4419 0.9532 0.20184 0.0
H2420 H 0.54805 0.03332 0.2399 0.0
H2421 H 0.57425 0.0422 0.2011 0.0
H2422 H 0.51736 0.96904 0.1588 0.0
H2423 H 0.4917 0.96001 0.19779 0.0
O2424 O 0.53433 0.98622 0.4174 0.0
O2425 O 0.52627 0.94776 0.39977 0.0
O2426 O 0.36311 0.00029 0.23594 0.0
O2427 O 0.34196 0.95788 0.2384 0.0
C2428 C 0.50795 0.98765 0.27032 0.0
C2429 C 0.49134 0.98265 0.29125 0.0
C2430 C 0.46803 0.982 0.28602 0.0
C2431 C 0.46104 0.98596 0.25974 0.0
C2432 C 0.47746 0.99069 0.23876 0.0
C2433 C 0.50098 0.99154 0.24397 0.0
C2434 C 0.53208 0.9877 0.27643 0.0
C2435 C 0.55119 0.00708 0.29508 0.0
C2436 C 0.57035 0.00367 0.30727 0.0
C2437 C 0.5709 0.98089 0.3008 0.0
C2438 C 0.55288 0.96245 0.28041 0.0
C2439 C 0.5336 0.96584 0.26833 0.0
C2440 C 0.49847 0.97799 0.31877 0.0
C2441 C 0.50655 0.99702 0.34075 0.0
C2442 C 0.51516 0.99348 0.36609 0.0
C2443 C 0.51581 0.97083 0.36986 0.0
C2444 C 0.50718 0.95158 0.34786 0.0
C2445 C 0.4985 0.95511 0.32258 0.0
C2446 C 0.45064 0.97682 0.30794 0.0
C2447 C 0.44606 0.99612 0.31839 0.0
C2448 C 0.4278 0.9906 0.33696 0.0
C2449 C 0.41386 0.96568 0.34557 0.0
C2450 C 0.4193 0.94667 0.33585 0.0
C2451 C 0.4375 0.9522 0.31713 0.0
C2452 C 0.43615 0.9846 0.25402 0.0
C2453 C 0.43533 0.00698 0.24963 0.0
C2454 C 0.41191 0.00576 0.2447 0.0
C2455 C 0.38888 0.9821 0.24411 0.0
C2456 C 0.38984 0.9597 0.24838 0.0
C2457 C 0.41327 0.96094 0.25326 0.0
C2458 C 0.46935 0.99379 0.21101 0.0
C2459 C 0.47996 0.01822 0.20135 0.0
C2460 C 0.47085 0.02114 0.17594 0.0
C2461 C 0.4511 -0.0004 0.15973 0.0
C2462 C 0.44123 0.97505 0.16926 0.0
C2463 C 0.45013 0.97223 0.19471 0.0
C2464 C 0.51788 0.99609 0.2216 0.0
C2465 C 0.54143 0.0191 0.22238 0.0
C2466 C 0.55627 0.0242 0.20021 0.0
C2467 C 0.54759 0.0065 0.17678 0.0
C2468 C 0.52424 0.98327 0.17633 0.0
C2469 C 0.50965 0.97803 0.19863 0.0
C2470 C 0.52572 0.96746 0.39653 0.0
C2471 C 0.36394 0.98075 0.23921 0.0
H2472 H 0.52253 0.08637 0.66588 0.0
H2473 H 0.63461 0.96712 0.8541 0.0
H2474 H 0.49736 0.05963 0.80549 0.0
H2475 H 0.46451 0.0654 0.78182 0.0
H2476 H 0.41448 0.98267 0.77064 0.0
H2477 H 0.44766 0.97712 0.79408 0.0
H2478 H 0.54526 0.06681 0.77581 0.0
H2479 H 0.54194 0.08222 0.73172 0.0
H2480 H 0.47766 0.00681 0.70402 0.0
H2481 H 0.48144 0.99157 0.74805 0.0
H2482 H 0.58604 0.05281 0.8086 0.0
H2483 H 0.61938 0.06312 0.77797 0.0
H2484 H 0.56392 0.00356 0.71746 0.0
H2485 H 0.5313 0.99194 0.7494 0.0
H2486 H 0.57609 0.03539 0.86619 0.0
H2487 H 0.61043 0.0278 0.88152 0.0
H2488 H 0.58176 0.96335 0.81962 0.0
H2489 H 0.54724 0.97086 0.80481 0.0
H2490 H 0.52904 0.0317 0.89275 0.0
H2491 H 0.53876 0.02194 0.93778 0.0
H2492 H 0.52426 0.94789 0.90265 0.0
H2493 H 0.51418 0.95766 0.85763 0.0
H2494 H 0.49243 0.04377 0.86296 0.0
H2495 H 0.46509 0.03908 0.89943 0.0
H2496 H 0.43341 0.95643 0.8898 0.0
H2497 H 0.46159 0.96157 0.85386 0.0
O2498 O 0.52366 0.07982 0.68307 0.0
O2499 O 0.49054 0.04078 0.66993 0.0
O2500 O 0.63445 0.00306 0.88085 0.0
O2501 O 0.62144 0.97079 0.84826 0.0
C2502 C 0.49637 0.01448 0.81026 0.0
C2503 C 0.51524 0.01904 0.79217 0.0
C2504 C 0.5359 0.01562 0.80008 0.0
C2505 C 0.53753 0.00743 0.82609 0.0
C2506 C 0.5186 0.00293 0.84419 0.0
C2507 C 0.49805 0.00653 0.83627 0.0
C2508 C 0.47481 0.01798 0.80142 0.0
C2509 C 0.47906 0.04282 0.79851 0.0
C2510 C 0.46032 0.04605 0.78495 0.0
C2511 C 0.43708 0.02446 0.77408 0.0
C2512 C 0.43239 -0.00038 0.77841 0.0
C2513 C 0.45112 0.99642 0.79208 0.0
C2514 C 0.51358 0.02811 0.7651 0.0
C2515 C 0.53059 0.05363 0.76012 0.0
C2516 C 0.52859 0.06238 0.73495 0.0
C2517 C 0.50949 0.04576 0.71436 0.0
C2518 C 0.49256 0.02013 0.71944 0.0
C2519 C 0.49464 0.01138 0.74457 0.0
C2520 C 0.55624 0.02151 0.78136 0.0
C2521 C 0.58122 0.04174 0.78889 0.0
C2522 C 0.60018 0.04792 0.77104 0.0
C2523 C 0.59447 0.0344 0.74492 0.0
C2524 C 0.56927 0.01423 0.73743 0.0
C2525 C 0.55047 0.00767 0.75559 0.0
C2526 C 0.5591 0.00358 0.83449 0.0
C2527 C 0.57724 0.01961 0.856 0.0
C2528 C 0.59685 0.01526 0.86468 0.0
C2529 C 0.59879 0.99491 0.85183 0.0
C2530 C 0.5808 0.97916 0.82998 0.0
C2531 C 0.56111 0.98345 0.82142 0.0
C2532 C 0.52101 0.99543 0.87192 0.0
C2533 C 0.52724 0.01307 0.89492 0.0
C2534 C 0.5327 0.00743 0.92062 0.0
C2535 C 0.53227 0.98416 0.92368 0.0
C2536 C 0.52483 0.96601 0.90082 0.0
C2537 C 0.5191 0.97155 0.87516 0.0
C2538 C 0.47897 0.00303 0.85579 0.0
C2539 C 0.47926 0.02463 0.86844 0.0
C2540 C 0.46353 0.02185 0.88925 0.0
C2541 C 0.44703 0.99735 0.89771 0.0
C2542 C 0.44615 0.97562 0.88418 0.0
C2543 C 0.46205 0.97846 0.86347 0.0
C2544 C 0.50725 0.05519 0.68776 0.0
C2545 C 0.61935 0.98995 0.86125 0.0
H2546 H 0.96216 0.44393 0.65837 0.0
H2547 H 0.03112 0.66641 0.89276 0.0
H2548 H 0.96502 0.44714 0.81688 0.0
H2549 H 0.95557 0.4041 0.79999 0.0
H2550 H 0.03603 0.43364 0.79326 0.0
H2551 H 0.045 0.47701 0.80903 0.0
H2552 H 0.96222 0.469 0.7749 0.0
H2553 H 0.95464 0.45333 0.72648 0.0
H2554 H 0.03386 0.50667 0.71609 0.0
H2555 H 0.0412 0.522 0.76468 0.0
H2556 H 0.96167 0.51154 0.78508 0.0
H2557 H 0.94716 0.53557 0.75885 0.0
H2558 H 0.02343 0.60221 0.7707 0.0
H2559 H 0.03809 0.5771 0.79467 0.0
H2560 H 0.97201 0.54179 0.84651 0.0
H2561 H 0.96982 0.57969 0.86311 0.0
H2562 H 0.05222 0.62546 0.86994 0.0
H2563 H 0.05408 0.58745 0.85299 0.0
H2564 H 0.98129 0.50869 0.89241 0.0
H2565 H 0.98312 0.5291 0.93738 0.0
H2566 H 0.06404 0.58116 0.93494 0.0
H2567 H 0.06189 0.56048 0.88964 0.0
H2568 H 0.97837 0.46085 0.87182 0.0
H2569 H 0.98173 0.43538 0.90685 0.0
H2570 H 0.06403 0.48057 0.90984 0.0
H2571 H 0.06033 0.50634 0.8749 0.0
O2572 O 0.96558 0.45042 0.67747 0.0
O2573 O 0.00644 0.47827 0.67317 0.0
O2574 O 0.98912 0.62733 0.87983 0.0
O2575 O 0.03144 0.65118 0.88594 0.0
C2576 C 0.01058 0.49128 0.82228 0.0
C2577 C 0.0071 0.50574 0.80273 0.0
C2578 C 0.00848 0.52922 0.8112 0.0
C2579 C 0.01431 0.53868 0.83911 0.0
C2580 C 0.0187 0.52463 0.85849 0.0
C2581 C 0.01669 0.50088 0.8501 0.0
C2582 C 0.00562 0.46509 0.81387 0.0
C2583 C 0.98056 0.44423 0.81174 0.0
C2584 C 0.97526 0.41962 0.80231 0.0
C2585 C 0.99503 0.41534 0.79518 0.0
C2586 C 0.02029 0.43631 0.79808 0.0
C2587 C 0.02553 0.46103 0.80729 0.0
C2588 C 0.00231 0.49645 0.77329 0.0
C2589 C 0.97794 0.47714 0.76217 0.0
C2590 C 0.97365 0.4683 0.73448 0.0
C2591 C 0.99366 0.4787 0.71741 0.0
C2592 C 0.01804 0.49821 0.72866 0.0
C2593 C 0.02229 0.50701 0.75637 0.0
C2594 C 0.00096 0.54253 0.79163 0.0
C2595 C 0.97543 0.53099 0.78101 0.0
C2596 C 0.96707 0.54498 0.76648 0.0
C2597 C 0.98396 0.57105 0.763 0.0
C2598 C 0.00986 0.58213 0.7726 0.0
C2599 C 0.01831 0.56789 0.78653 0.0
C2600 C 0.01319 0.56194 0.84859 0.0
C2601 C 0.98954 0.56007 0.85149 0.0
C2602 C 0.98836 0.58172 0.86101 0.0
C2603 C 0.01087 0.60561 0.8679 0.0
C2604 C 0.03454 0.60737 0.86487 0.0
C2605 C 0.03567 0.58571 0.85521 0.0
C2606 C 0.02144 0.53315 0.88789 0.0
C2607 C -0.00045 0.52394 0.902 0.0
C2608 C 0.00067 0.53564 0.9277 0.0
C2609 C 0.02372 0.55687 0.93964 0.0
C2610 C 0.04598 0.56502 0.92611 0.0
C2611 C 0.04485 0.55314 0.90041 0.0
C2612 C 0.01909 0.48519 0.87076 0.0
C2613 C 0.99709 0.46506 0.87988 0.0
C2614 C 0.9991 0.45047 0.89977 0.0
C2615 C 0.02318 0.45577 0.91091 0.0
C2616 C 0.04524 0.47609 0.90172 0.0
C2617 C 0.04318 0.49071 0.88175 0.0
C2618 C 0.98905 0.4692 0.68802 0.0
C2619 C 0.00971 0.62862 0.87823 0.0
H2620 H 0.46755 0.47104 0.64145 0.0
H2621 H 0.68255 0.64786 0.84615 0.0
H2622 H 0.45206 0.49134 0.77802 0.0
H2623 H 0.41829 0.44828 0.7597 0.0
H2624 H 0.44975 0.41491 0.81368 0.0
H2625 H 0.48466 0.45783 0.82966 0.0
H2626 H 0.49761 0.53288 0.74704 0.0
H2627 H 0.48426 0.51283 0.69998 0.0
H2628 H 0.49323 0.44945 0.7232 0.0
H2629 H 0.50683 0.46986 0.77009 0.0
H2630 H 0.55015 0.58335 0.7765 0.0
H2631 H 0.5837 0.60464 0.74592 0.0
H2632 H 0.59245 0.53765 0.73877 0.0
H2633 H 0.55934 0.51683 0.77003 0.0
H2634 H 0.55636 0.59755 0.84131 0.0
H2635 H 0.59951 0.63485 0.85119 0.0
H2636 H 0.631 0.58595 0.8326 0.0
H2637 H 0.58783 0.54881 0.82326 0.0
H2638 H 0.51757 0.56834 0.87899 0.0
H2639 H 0.53635 0.58604 0.92598 0.0
H2640 H 0.57585 0.54305 0.92296 0.0
H2641 H 0.55811 0.5268 0.87587 0.0
H2642 H 0.4582 0.51351 0.8487 0.0
H2643 H 0.43019 0.49264 0.88465 0.0
H2644 H 0.48085 0.46641 0.91335 0.0
H2645 H 0.50871 0.48763 0.87786 0.0
O2646 O 0.47305 0.47873 0.66013 0.0
O2647 O 0.47789 0.44656 0.67314 0.0
O2648 O 0.64832 0.65713 0.85584 0.0
O2649 O 0.66529 0.63337 0.84315 0.0
C2650 C 0.49453 0.50328 0.81152 0.0
C2651 C 0.5107 0.5148 0.79059 0.0
C2652 C 0.53473 0.53729 0.79703 0.0
C2653 C 0.54286 0.54811 0.82441 0.0
C2654 C 0.52672 0.53675 0.84526 0.0
C2655 C 0.50239 0.51455 0.83884 0.0
C2656 C 0.47091 0.47777 0.8051 0.0
C2657 C 0.45141 0.47468 0.78607 0.0
C2658 C 0.43202 0.44998 0.77574 0.0
C2659 C 0.43147 0.42795 0.78478 0.0
C2660 C 0.44995 0.43131 0.80552 0.0
C2661 C 0.46966 0.45593 0.81523 0.0
C2662 C 0.50301 0.50274 0.76196 0.0
C2663 C 0.49675 0.51471 0.74187 0.0
C2664 C 0.48909 0.50319 0.71504 0.0
C2665 C 0.4876 0.47949 0.70784 0.0
C2666 C 0.49412 0.46767 0.72805 0.0
C2667 C 0.50184 0.47925 0.75485 0.0
C2668 C 0.55237 0.5486 0.77548 0.0
C2669 C 0.55903 0.57314 0.76793 0.0
C2670 C 0.57807 0.58517 0.75031 0.0
C2671 C 0.59077 0.57283 0.73993 0.0
C2672 C 0.58318 0.54773 0.7466 0.0
C2673 C 0.56416 0.53574 0.76426 0.0
C2674 C 0.569 0.57055 0.83145 0.0
C2675 C 0.57262 0.59493 0.83961 0.0
C2676 C 0.59727 0.61619 0.84515 0.0
C2677 C 0.61872 0.6134 0.84253 0.0
C2678 C 0.61494 0.58882 0.83469 0.0
C2679 C 0.5903 0.56757 0.82933 0.0
C2680 C 0.53663 0.54644 0.87414 0.0
C2681 C 0.53029 0.56284 0.88864 0.0
C2682 C 0.54093 0.57278 0.9155 0.0
C2683 C 0.55785 0.56621 0.92826 0.0
C2684 C 0.56347 0.54914 0.91367 0.0
C2685 C 0.55318 0.53959 0.88682 0.0
C2686 C 0.48564 0.50236 0.8609 0.0
C2687 C 0.46327 0.50341 0.86295 0.0
C2688 C 0.44726 0.49138 0.88341 0.0
C2689 C 0.45336 0.47803 0.9021 0.0
C2690 C 0.47584 0.47706 0.89982 0.0
C2691 C 0.4918 0.48911 0.87948 0.0
C2692 C 0.47925 0.46719 0.67937 0.0
C2693 C 0.64494 0.636 0.84765 0.0
H2694 H 0.6692 0.88922 0.75668 0.0
H2695 H 0.67775 0.68749 0.56598 0.0
H2696 H 0.62834 0.8626 0.61666 0.0
H2697 H 0.6396 0.90694 0.631 0.0
H2698 H 0.70751 0.93548 0.58794 0.0
H2699 H 0.69643 0.89111 0.57432 0.0
H2700 H 0.6317 0.82164 0.65453 0.0
H2701 H 0.64081 0.84443 0.70016 0.0
H2702 H 0.71464 0.90248 0.67835 0.0
H2703 H 0.70542 0.87932 0.63296 0.0
H2704 H 0.63066 0.76767 0.63133 0.0
H2705 H 0.64548 0.74411 0.65823 0.0
H2706 H 0.72278 0.8083 0.66166 0.0
H2707 H 0.70782 0.83133 0.63395 0.0
H2708 H 0.61453 0.75161 0.56667 0.0
H2709 H 0.61424 0.71085 0.55979 0.0
H2710 H 0.69617 0.75187 0.57818 0.0
H2711 H 0.69621 0.79246 0.58451 0.0
H2712 H 0.60924 0.78515 0.52163 0.0
H2713 H 0.60644 0.7619 0.47747 0.0
H2714 H 0.68699 0.78858 0.49 0.0
H2715 H 0.68959 0.81148 0.5336 0.0
H2716 H 0.61468 0.84669 0.55276 0.0
H2717 H 0.60993 0.86916 0.51471 0.0
H2718 H 0.67664 0.87385 0.48247 0.0
H2719 H 0.68221 0.85287 0.52113 0.0
O2720 O 0.66619 0.88026 0.73872 0.0
O2721 O 0.70379 0.90975 0.72634 0.0
O2722 O 0.6352 0.68311 0.5587 0.0
O2723 O 0.67728 0.70331 0.56834 0.0
C2724 C 0.6574 0.84729 0.58994 0.0
C2725 C 0.66161 0.83572 0.61234 0.0
C2726 C 0.66064 0.8119 0.60794 0.0
C2727 C 0.65534 0.79956 0.58118 0.0
C2728 C 0.6513 0.81117 0.55881 0.0
C2729 C 0.65206 0.83497 0.56311 0.0
C2730 C 0.66159 0.87372 0.5945 0.0
C2731 C 0.64537 0.87847 0.60993 0.0
C2732 C 0.65182 0.90377 0.61803 0.0
C2733 C 0.67456 0.92465 0.61078 0.0
C2734 C 0.69007 0.91976 0.59416 0.0
C2735 C 0.68363 0.89448 0.58609 0.0
C2736 C 0.66781 0.84894 0.64042 0.0
C2737 C 0.64989 0.83918 0.65975 0.0
C2738 C 0.65512 0.85229 0.68575 0.0
C2739 C 0.6784 0.87537 0.69286 0.0
C2740 C 0.69649 0.88483 0.67352 0.0
C2741 C 0.69127 0.87165 0.64758 0.0
C2742 C 0.66817 0.80111 0.63055 0.0
C2743 C 0.65065 0.77696 0.63868 0.0
C2744 C 0.6592 0.76355 0.6541 0.0
C2745 C 0.6854 0.7742 0.66175 0.0
C2746 C 0.70255 0.79942 0.65567 0.0
C2747 C 0.694 0.81275 0.64017 0.0
C2748 C 0.65534 0.77492 0.57633 0.0
C2749 C 0.63238 0.75173 0.56908 0.0
C2750 C 0.63228 0.72849 0.56523 0.0
C2751 C 0.65519 0.72809 0.56857 0.0
C2752 C 0.67819 0.75146 0.57553 0.0
C2753 C 0.67827 0.77467 0.57924 0.0
C2754 C 0.64955 0.79969 0.53081 0.0
C2755 C 0.62626 0.78618 0.51452 0.0
C2756 C 0.62471 0.77299 0.48944 0.0
C2757 C 0.64641 0.77312 0.48069 0.0
C2758 C 0.66987 0.78772 0.49656 0.0
C2759 C 0.67141 0.80088 0.52135 0.0
C2760 C 0.64853 0.84765 0.53952 0.0
C2761 C 0.62824 0.85254 0.53746 0.0
C2762 C 0.6255 0.86528 0.51577 0.0
C2763 C 0.64269 0.87278 0.49554 0.0
C2764 C 0.66285 0.86775 0.49755 0.0
C2765 C 0.66596 0.85566 0.51954 0.0
C2766 C 0.68367 0.88955 0.72028 0.0
C2767 C 0.65518 0.70344 0.56488 0.0
H2768 H 0.15515 0.8749 0.76068 0.0
H2769 H 0.01273 0.65358 0.5389 0.0
H2770 H 0.16624 0.87707 0.61583 0.0
H2771 H 0.20163 0.91898 0.63449 0.0
H2772 H 0.25414 0.89144 0.62225 0.0
H2773 H 0.21818 0.84895 0.60479 0.0
H2774 H 0.12351 0.83943 0.64476 0.0
H2775 H 0.13094 0.85582 0.69296 0.0
H2776 H 0.19241 0.83972 0.70338 0.0
H2777 H 0.18458 0.82309 0.65521 0.0
H2778 H 0.08042 0.79387 0.60419 0.0
H2779 H 0.04588 0.77194 0.63341 0.0
H2780 H 0.09255 0.75027 0.68115 0.0
H2781 H 0.12669 0.77152 0.65105 0.0
H2782 H 0.08412 0.7818 0.54386 0.0
H2783 H 0.04579 0.74154 0.52562 0.0
H2784 H 0.07018 0.69886 0.57416 0.0
H2785 H 0.10862 0.73921 0.59188 0.0
H2786 H 0.13371 0.82528 0.52022 0.0
H2787 H 0.12107 0.80908 0.47209 0.0
H2788 H 0.12471 0.74119 0.48833 0.0
H2789 H 0.13793 0.75787 0.5366 0.0
H2790 H 0.17591 0.87144 0.55443 0.0
H2791 H 0.20567 0.89507 0.52115 0.0
H2792 H 0.22467 0.83501 0.51183 0.0
H2793 H 0.19468 0.81141 0.5452 0.0
O2794 O 0.15243 0.86817 0.74172 0.0
O2795 O 0.18394 0.85964 0.74594 0.0
O2796 O 0.01684 0.69246 0.51987 0.0
O2797 O 0.02755 0.66983 0.54599 0.0
C2798 C 0.16763 0.83428 0.59922 0.0
C2799 C 0.14912 0.82022 0.6172 0.0
C2800 C 0.12657 0.79721 0.60719 0.0
C2801 C 0.12292 0.78774 0.57942 0.0
C2802 C 0.14169 0.80157 0.56153 0.0
C2803 C 0.16408 0.82486 0.57145 0.0
C2804 C 0.18966 0.85997 0.60919 0.0
C2805 C 0.18539 0.88008 0.6173 0.0
C2806 C 0.20569 0.9041 0.62769 0.0
C2807 C 0.23076 0.90862 0.62982 0.0
C2808 C 0.23503 0.88849 0.62123 0.0
C2809 C 0.21459 0.86431 0.61104 0.0
C2810 C 0.15338 0.8299 0.64657 0.0
C2811 C 0.13842 0.83926 0.65755 0.0
C2812 C 0.14278 0.84871 0.68506 0.0
C2813 C 0.16226 0.84906 0.70204 0.0
C2814 C 0.17724 0.8397 0.69089 0.0
C2815 C 0.17282 0.8302 0.6634 0.0
C2816 C 0.10591 0.78402 0.62535 0.0
C2817 C 0.0831 0.78428 0.62091 0.0
C2818 C 0.06355 0.77206 0.63786 0.0
C2819 C 0.06649 0.75944 0.65971 0.0
C2820 C 0.08959 0.7596 0.66435 0.0
C2821 C 0.10912 0.77175 0.64727 0.0
C2822 C 0.09922 0.76339 0.56903 0.0
C2823 C 0.08118 0.76372 0.55045 0.0
C2824 C 0.05929 0.74071 0.54011 0.0
C2825 C 0.05497 0.71696 0.54837 0.0
C2826 C 0.07293 0.71679 0.56733 0.0
C2827 C 0.09488 0.7398 0.57754 0.0
C2828 C 0.13677 0.79278 0.5319 0.0
C2829 C 0.13245 0.80724 0.51327 0.0
C2830 C 0.12527 0.79797 0.48578 0.0
C2831 C 0.12194 0.77388 0.47648 0.0
C2832 C 0.12704 0.75977 0.49501 0.0
C2833 C 0.13458 0.76924 0.52249 0.0
C2834 C 0.18328 0.83982 0.55238 0.0
C2835 C 0.18679 0.86359 0.54551 0.0
C2836 C 0.20383 0.87706 0.52652 0.0
C2837 C 0.21762 0.86696 0.51391 0.0
C2838 C 0.21419 0.8432 0.52101 0.0
C2839 C 0.19719 0.82977 0.54013 0.0
C2840 C 0.16694 0.85924 0.73122 0.0
C2841 C 0.03193 0.69242 0.53718 0.0
H2842 H 0.20439 0.32424 0.77282 0.0
H2843 H 0.99585 0.29516 0.5745 0.0
H2844 H 0.21985 0.36206 0.63901 0.0
H2845 H 0.25151 0.35463 0.66202 0.0
H2846 H 0.22415 0.28451 0.60863 0.0
H2847 H 0.19115 0.29125 0.58724 0.0
H2848 H 0.17518 0.35434 0.67255 0.0
H2849 H 0.18813 0.34839 0.71814 0.0
H2850 H 0.17786 0.27482 0.68702 0.0
H2851 H 0.16456 0.28084 0.64165 0.0
H2852 H 0.12495 0.35339 0.64492 0.0
H2853 H 0.09264 0.34297 0.67713 0.0
H2854 H 0.08089 0.2659 0.67694 0.0
H2855 H 0.11245 0.27625 0.64368 0.0
H2856 H 0.12313 0.36365 0.58326 0.0
H2857 H 0.08201 0.36149 0.57553 0.0
H2858 H 0.04307 0.27957 0.5837 0.0
H2859 H 0.0843 0.28195 0.59101 0.0
H2860 H 0.16432 0.37265 0.54695 0.0
H2861 H 0.14771 0.37668 0.50227 0.0
H2862 H 0.09737 0.29388 0.49124 0.0
H2863 H 0.11316 0.29041 0.53634 0.0
H2864 H 0.2188 0.37097 0.57254 0.0
H2865 H 0.24423 0.3778 0.53326 0.0
H2866 H 0.18631 0.30345 0.49431 0.0
H2867 H 0.16149 0.29642 0.53379 0.0
O2868 O 0.19889 0.32604 0.75472 0.0
O2869 O 0.19352 0.28846 0.73764 0.0
O2870 O 0.03324 0.33837 0.57141 0.0
O2871 O 0.01236 0.29644 0.57668 0.0
C2872 C 0.17882 0.32691 0.60511 0.0
C2873 C 0.16212 0.32224 0.62593 0.0
C2874 C 0.13864 0.32113 0.62024 0.0
C2875 C 0.13165 0.32458 0.59373 0.0
C2876 C 0.14808 0.32891 0.57285 0.0
C2877 C 0.17164 0.3299 0.5784 0.0
C2878 C 0.20298 0.32704 0.6117 0.0
C2879 C 0.22119 0.34547 0.63179 0.0
C2880 C 0.23933 0.34111 0.64498 0.0
C2881 C 0.2401 0.31855 0.63778 0.0
C2882 C 0.22358 0.3016 0.61548 0.0
C2883 C 0.20504 0.30571 0.60271 0.0
C2884 C 0.16905 0.31808 0.65381 0.0
C2885 C 0.17556 0.33688 0.67569 0.0
C2886 C 0.18304 0.33346 0.70168 0.0
C2887 C 0.18412 0.31116 0.70621 0.0
C2888 C 0.17729 0.29223 0.68424 0.0
C2889 C 0.16972 0.29563 0.6583 0.0
C2890 C 0.1209 0.31554 0.64187 0.0
C2891 C 0.1155 0.33434 0.65202 0.0
C2892 C 0.09723 0.32839 0.67067 0.0
C2893 C 0.08416 0.30356 0.67968 0.0
C2894 C 0.09038 0.28509 0.6702 0.0
C2895 C 0.10852 0.29101 0.65137 0.0
C2896 C 0.10667 0.32297 0.58772 0.0
C2897 C 0.10569 0.34523 0.58309 0.0
C2898 C 0.08219 0.34395 0.5788 0.0
C2899 C 0.05924 0.32037 0.57915 0.0
C2900 C 0.06035 0.29805 0.5834 0.0
C2901 C 0.08387 0.29934 0.58758 0.0
C2902 C 0.13981 0.33127 0.54484 0.0
C2903 C 0.14979 0.35545 0.53471 0.0
C2904 C 0.14035 0.35766 0.50912 0.0
C2905 C 0.12095 0.33564 0.49316 0.0
C2906 C 0.11178 0.31135 0.50316 0.0
C2907 C 0.12094 0.30925 0.52883 0.0
C2908 C 0.18817 0.33331 0.55591 0.0
C2909 C 0.21179 0.35606 0.55566 0.0
C2910 C 0.22619 0.35998 0.53322 0.0
C2911 C 0.21697 0.34134 0.51058 0.0
C2912 C 0.19359 0.31837 0.51122 0.0
C2913 C 0.17947 0.31429 0.53378 0.0
C2914 C 0.19243 0.30777 0.73375 0.0
C2915 C 0.03423 0.31904 0.57546 0.0
loop_
_geom_bond_atom_site_label_1
_geom_bond_atom_site_label_2
_geom_bond_distance
_geom_bond_site_symmetry_2
_ccdc_geom_bond_type
Li0 N17 1.990 . S
Li0 O60 1.956 . S
Li0 O61 1.953 1_654 S
Li0 O62 1.961 . S
Li1 N25 1.990 . S
Li1 O60 1.970 1_455 S
Li1 O61 1.925 1_554 S
Li1 O63 1.961 . S
Li2 N47 1.990 . S
Li2 O60 1.961 . S
Li2 O62 1.956 . S
Li2 O63 1.970 1_655 S
Li3 N53 1.990 1_554 S
Li3 O61 1.960 1_554 S
Li3 O62 1.970 1_455 S
Li3 O63 1.956 . S
C4 C6 1.348 1_655 S
C4 C7 1.356 . S
C4 O60 1.325 . S
N5 C8 1.314 . S
N5 C9 1.279 . S
C6 C4 1.348 1_455 S
C6 C8 1.353 1_455 S
C6 H64 0.929 . S
C7 C4 1.356 . S
C7 C9 1.358 . S
C7 H65 0.930 . S
C8 N5 1.314 . S
C8 C6 1.353 1_655 S
C8 H66 0.930 1_655 S
C9 N5 1.279 . S
C9 C7 1.358 . S
C9 H67 0.930 . S
C10 C13 1.348 . S
C10 C14 1.356 . S
C10 O61 1.351 . S
C11 N12 1.279 . S
C11 C14 1.358 . S
C11 H68 0.930 . S
N12 C11 1.279 . S
N12 C15 1.314 . S
C13 C10 1.348 . S
C13 C15 1.353 . S
C13 H69 0.929 1_455 S
C14 C10 1.356 . S
C14 C11 1.358 . S
C14 H70 0.930 . S
C15 N12 1.314 . S
C15 C13 1.353 . S
C15 H71 0.930 . S
C16 N17 1.314 1_556 S
C16 C21 1.353 . S
C16 H22 0.930 . S
N17 Li0 1.990 . S
N17 C16 1.314 1_554 S
N17 C19 1.279 . S
C18 C19 1.358 . S
C18 C20 1.356 1_554 S
C18 H72 0.930 . S
C19 N17 1.279 . S
C19 C18 1.358 . S
C19 H23 0.930 . S
C20 C18 1.356 1_556 S
C20 C21 1.348 . S
C21 C16 1.353 . S
C21 C20 1.348 . S
C21 H73 0.929 . S
H22 C16 0.930 . S
H23 C19 0.930 . S
C24 N25 1.314 . S
C24 C26 1.353 . S
C24 H30 0.930 . S
N25 Li1 1.990 . S
N25 C24 1.314 . S
N25 C28 1.279 . S
C26 C24 1.353 . S
C26 C29 1.348 . S
C26 H74 0.929 . S
C27 C28 1.358 . S
C27 C29 1.356 . S
C27 H75 0.930 . S
C28 N25 1.279 . S
C28 C27 1.358 . S
C28 H31 0.930 . S
C29 C26 1.348 . S
C29 C27 1.356 . S
H30 C24 0.930 . S
H31 C28 0.930 . S
C32 C34 1.348 1_554 S
C32 C35 1.356 . S
C32 O62 1.325 . S
N33 C36 1.314 . S
N33 C37 1.279 1_556 S
C34 C32 1.348 1_556 S
C34 C36 1.353 . S
C34 H76 0.929 . S
C35 C32 1.356 . S
C35 C37 1.358 . S
C35 H77 0.930 . S
C36 N33 1.314 . S
C36 C34 1.353 . S
C36 H78 0.930 . S
C37 N33 1.279 1_554 S
C37 C35 1.358 . S
C37 H79 0.930 . S
C38 C39 1.348 . S
C38 C40 1.356 . S
C38 O63 1.325 . S
C39 C38 1.348 . S
C39 C41 1.353 . S
C39 H80 0.929 . S
C40 C38 1.356 . S
C40 C42 1.358 . S
C40 H81 0.930 . S
C41 C39 1.353 . S
C41 N43 1.314 . S
C41 H82 0.930 . S
C42 C40 1.358 . S
C42 N43 1.279 . S
C42 H83 0.930 . S
N43 C41 1.314 . S
N43 C42 1.279 . S
C44 C46 1.353 . S
C44 N47 1.314 . S
C44 H50 0.930 1_655 S
C45 N47 1.279 . S
C45 C48 1.358 . S
C45 H51 0.930 . S
C46 C44 1.353 . S
C46 C49 1.348 . S
C46 H84 0.929 . S
N47 Li2 1.990 . S
N47 C44 1.314 . S
N47 C45 1.279 . S
C48 C45 1.358 . S
C48 C49 1.356 . S
C48 H85 0.930 . S
C49 C46 1.348 . S
C49 C48 1.356 . S
H50 C44 0.930 1_455 S
H51 C45 0.930 . S
C52 N53 1.314 . S
C52 C54 1.353 . S
C52 H58 0.930 . S
N53 Li3 1.990 1_556 S
N53 C52 1.314 . S
N53 C56 1.279 . S
C54 C52 1.353 . S
C54 C57 1.348 . S
C54 H86 0.929 . S
C55 C56 1.358 . S
C55 C57 1.356 . S
C55 H87 0.930 . S
C56 N53 1.279 . S
C56 C55 1.358 . S
C56 H59 0.930 . S
C57 C54 1.348 . S
C57 C55 1.356 . S
H58 C52 0.930 . S
H59 C56 0.930 . S
O60 Li0 1.956 . S
O60 Li1 1.970 1_655 S
O60 Li2 1.961 . S
O60 C4 1.325 . S
O61 Li0 1.953 1_456 S
O61 Li1 1.925 1_556 S
O61 Li3 1.960 1_556 S
O61 C10 1.351 . S
O62 Li0 1.961 . S
O62 Li2 1.956 . S
O62 Li3 1.970 1_655 S
O62 C32 1.325 . S
O63 Li1 1.961 . S
O63 Li2 1.970 1_455 S
O63 Li3 1.956 . S
O63 C38 1.325 . S
H64 C6 0.929 . S
H65 C7 0.930 . S
H66 C8 0.930 1_455 S
H67 C9 0.930 . S
H68 C11 0.930 . S
H69 C13 0.929 1_655 S
H70 C14 0.930 . S
H71 C15 0.930 . S
H72 C18 0.930 . S
H73 C21 0.929 . S
H74 C26 0.929 . S
H75 C27 0.930 . S
H76 C34 0.929 . S
H77 C35 0.930 . S
H78 C36 0.930 . S
H79 C37 0.930 . S
H80 C39 0.929 . S
H81 C40 0.930 . S
H82 C41 0.930 . S
H83 C42 0.930 . S
H84 C46 0.929 . S
H85 C48 0.930 . S
H86 C54 0.929 . S
H87 C55 0.930 . S
Li88 N105 1.990 . S
Li88 O148 1.956 . S
Li88 O149 1.970 . S
Li88 O150 1.961 . S
Li89 N113 1.990 . S
Li89 O148 1.970 . S
Li89 O149 1.956 . S
Li89 O151 1.961 . S
Li90 N135 1.990 . S
Li90 O148 1.961 . S
Li90 O150 1.956 . S
Li90 O151 1.970 . S
Li91 N141 1.990 . S
Li91 O149 1.961 . S
Li91 O150 1.970 . S
Li91 O151 1.956 . S
C92 C94 1.348 . S
C92 C95 1.356 . S
C92 O148 1.325 . S
N93 C96 1.314 . S
N93 C97 1.279 . S
C94 C92 1.348 . S
C94 C96 1.353 . S
C94 H152 0.929 . S
C95 C92 1.356 . S
C95 C97 1.358 . S
C95 H153 0.930 . S
C96 N93 1.314 . S
C96 C94 1.353 . S
C96 H154 0.930 . S
C97 N93 1.279 . S
C97 C95 1.358 . S
C97 H155 0.930 . S
C98 C101 1.348 . S
C98 C102 1.356 . S
C98 O149 1.325 . S
C99 N100 1.279 . S
C99 C102 1.358 1_556 S
C99 H156 0.930 . S
N100 C99 1.279 . S
N100 C103 1.313 1_556 S
C101 C98 1.348 . S
C101 C103 1.356 . S
C101 H157 0.929 . S
C102 C98 1.356 . S
C102 C99 1.358 1_554 S
C102 H158 0.930 . S
C103 N100 1.313 1_554 S
C103 C101 1.356 . S
C103 H159 0.928 1_554 S
C104 N105 1.314 . S
C104 C109 1.353 . S
C104 H110 0.930 . S
N105 Li88 1.990 . S
N105 C104 1.314 . S
N105 C107 1.279 . S
C106 C107 1.358 . S
C106 C108 1.356 . S
C106 H160 0.930 . S
C107 N105 1.279 . S
C107 C106 1.358 . S
C107 H111 0.930 . S
C108 C106 1.356 . S
C108 C109 1.348 . S
C109 C104 1.353 . S
C109 C108 1.348 . S
C109 H161 0.929 1_554 S
H110 C104 0.930 . S
H111 C107 0.930 . S
C112 N113 1.314 . S
C112 C114 1.353 . S
C112 H118 0.930 . S
N113 Li89 1.990 . S
N113 C112 1.314 . S
N113 C116 1.279 . S
C114 C112 1.353 . S
C114 C117 1.348 . S
C114 H162 0.929 . S
C115 C116 1.358 . S
C115 C117 1.356 . S
C115 H163 0.930 . S
C116 N113 1.279 . S
C116 C115 1.358 . S
C116 H119 0.930 . S
C117 C114 1.348 . S
C117 C115 1.356 . S
H118 C112 0.930 . S
H119 C116 0.930 . S
C120 C122 1.348 . S
C120 C123 1.356 . S
C120 O150 1.325 . S
N121 C124 1.314 . S
N121 C125 1.279 . S
C122 C120 1.348 . S
C122 C124 1.353 . S
C122 H164 0.929 . S
C123 C120 1.356 . S
C123 C125 1.358 . S
C123 H165 0.930 . S
C124 N121 1.314 . S
C124 C122 1.353 . S
C124 H166 0.930 . S
C125 N121 1.279 . S
C125 C123 1.358 . S
C125 H167 0.930 . S
C126 C127 1.348 . S
C126 C128 1.356 . S
C126 O151 1.325 . S
C127 C126 1.348 . S
C127 C129 1.353 . S
C127 H168 0.929 . S
C128 C126 1.356 . S
C128 C130 1.358 . S
C128 H169 0.930 . S
C129 C127 1.353 . S
C129 N131 1.314 . S
C129 H170 0.930 . S
C130 C128 1.358 . S
C130 N131 1.279 . S
C130 H171 0.930 . S
N131 C129 1.314 . S
N131 C130 1.279 . S
C132 C134 1.353 . S
C132 N135 1.314 . S
C132 H138 0.930 . S
C133 N135 1.279 . S
C133 C136 1.358 . S
C133 H139 0.930 . S
C134 C132 1.353 . S
C134 C137 1.348 . S
C134 H172 0.929 . S
N135 Li90 1.990 . S
N135 C132 1.314 . S
N135 C133 1.279 . S
C136 C133 1.358 . S
C136 C137 1.356 . S
C136 H173 0.930 . S
C137 C134 1.348 . S
C137 C136 1.356 . S
H138 C132 0.930 . S
H139 C133 0.930 . S
C140 N141 1.314 1_556 S
C140 C142 1.353 . S
C140 H146 0.930 . S
N141 Li91 1.990 . S
N141 C140 1.314 1_554 S
N141 C144 1.279 . S
C142 C140 1.353 . S
C142 C145 1.348 . S
C142 H174 0.929 . S
C143 C144 1.358 1_556 S
C143 C145 1.356 . S
C143 H175 0.930 . S
C144 N141 1.279 . S
C144 C143 1.358 1_554 S
C144 H147 0.930 . S
C145 C142 1.348 . S
C145 C143 1.356 . S
H146 C140 0.930 . S
H147 C144 0.930 . S
O148 Li88 1.956 . S
O148 Li89 1.970 . S
O148 Li90 1.961 . S
O148 C92 1.325 . S
O149 Li88 1.970 . S
O149 Li89 1.956 . S
O149 Li91 1.961 . S
O149 C98 1.325 . S
O150 Li88 1.961 . S
O150 Li90 1.956 . S
O150 Li91 1.970 . S
O150 C120 1.325 . S
O151 Li89 1.961 . S
O151 Li90 1.970 . S
O151 Li91 1.956 . S
O151 C126 1.325 . S
H152 C94 0.929 . S
H153 C95 0.930 . S
H154 C96 0.930 . S
H155 C97 0.930 . S
H156 C99 0.930 . S
H157 C101 0.929 . S
H158 C102 0.930 . S
H159 C103 0.928 1_556 S
H160 C106 0.930 . S
H161 C109 0.929 1_556 S
H162 C114 0.929 . S
H163 C115 0.930 . S
H164 C122 0.929 . S
H165 C123 0.930 . S
H166 C124 0.930 . S
H167 C125 0.930 . S
H168 C127 0.929 . S
H169 C128 0.930 . S
H170 C129 0.930 . S
H171 C130 0.930 . S
H172 C134 0.929 . S
H173 C136 0.930 . S
H174 C142 0.929 . S
H175 C143 0.930 . S
Li176 N193 1.990 1_554 S
Li176 O236 1.956 . S
Li176 O237 1.970 1_565 S
Li176 O238 1.959 1_554 S
Li177 N201 1.990 . S
Li177 O236 1.970 1_545 S
Li177 O237 1.956 . S
Li177 O239 1.961 . S
Li178 N223 1.990 . S
Li178 O236 1.961 . S
Li178 O238 1.922 1_554 S
Li178 O239 1.970 1_565 S
Li179 N229 1.990 . S
Li179 O237 1.961 . S
Li179 O238 1.955 1_544 S
Li179 O239 1.956 . S
C180 C182 1.348 . S
C180 C183 1.356 . S
C180 O236 1.325 . S
N181 C184 1.314 . S
N181 C185 1.279 . S
C182 C180 1.348 . S
C182 C184 1.353 . S
C182 H240 0.929 . S
C183 C180 1.356 . S
C183 C185 1.358 . S
C183 H241 0.930 . S
C184 N181 1.314 . S
C184 C182 1.353 . S
C184 H242 0.930 . S
C185 N181 1.279 . S
C185 C183 1.358 . S
C185 H243 0.930 . S
C186 C189 1.348 1_554 S
C186 C190 1.356 . S
C186 O237 1.325 . S
C187 N188 1.279 . S
C187 C190 1.358 . S
C187 H244 0.930 . S
N188 C187 1.279 . S
N188 C191 1.314 1_554 S
C189 C186 1.348 1_556 S
C189 C191 1.353 . S
C189 H245 0.929 . S
C190 C186 1.356 . S
C190 C187 1.358 . S
C190 H246 0.930 . S
C191 N188 1.314 1_556 S
C191 C189 1.353 . S
C191 H247 0.930 . S
C192 N193 1.314 . S
C192 C197 1.353 . S
C192 H198 0.930 . S
N193 Li176 1.990 1_556 S
N193 C192 1.314 . S
N193 C195 1.279 . S
C194 C195 1.358 . S
C194 C196 1.356 . S
C194 H248 0.930 . S
C195 N193 1.279 . S
C195 C194 1.358 . S
C195 H199 0.930 . S
C196 C194 1.356 . S
C196 C197 1.348 . S
C197 C192 1.353 . S
C197 C196 1.348 . S
C197 H249 0.929 . S
H198 C192 0.930 . S
H199 C195 0.930 . S
C200 N201 1.314 . S
C200 C202 1.353 . S
C200 H206 0.930 . S
N201 Li177 1.990 . S
N201 C200 1.314 . S
N201 C204 1.279 . S
C202 C200 1.353 . S
C202 C205 1.348 . S
C202 H250 0.929 . S
C203 C204 1.358 . S
C203 C205 1.356 . S
C203 H251 0.930 . S
C204 N201 1.279 . S
C204 C203 1.358 . S
C204 H207 0.930 . S
C205 C202 1.348 . S
C205 C203 1.356 . S
H206 C200 0.930 . S
H207 C204 0.930 . S
C208 C210 1.348 . S
C208 C211 1.356 . S
C208 O238 1.351 . S
N209 C212 1.314 . S
N209 C213 1.279 . S
C210 C208 1.348 . S
C210 C212 1.353 . S
C210 H252 0.929 1_565 S
C211 C208 1.356 . S
C211 C213 1.358 . S
C211 H253 0.930 . S
C212 N209 1.314 . S
C212 C210 1.353 . S
C212 H254 0.930 . S
C213 N209 1.279 . S
C213 C211 1.358 . S
C213 H255 0.930 . S
C214 C215 1.348 . S
C214 C216 1.356 . S
C214 O239 1.325 . S
C215 C214 1.348 . S
C215 C217 1.353 . S
C215 H256 0.929 1_545 S
C216 C214 1.356 . S
C216 C218 1.358 . S
C216 H257 0.930 . S
C217 C215 1.353 . S
C217 N219 1.314 . S
C217 H258 0.930 . S
C218 C216 1.358 . S
C218 N219 1.279 . S
C218 H259 0.930 . S
N219 C217 1.314 . S
N219 C218 1.279 . S
C220 C222 1.353 . S
C220 N223 1.314 . S
C220 H226 0.930 . S
C221 N223 1.279 . S
C221 C224 1.358 . S
C221 H227 0.930 . S
C222 C220 1.353 . S
C222 C225 1.348 . S
C222 H260 0.929 . S
N223 Li178 1.990 . S
N223 C220 1.314 . S
N223 C221 1.279 . S
C224 C221 1.358 . S
C224 C225 1.356 . S
C224 H261 0.930 . S
C225 C222 1.348 . S
C225 C224 1.356 . S
H226 C220 0.930 . S
H227 C221 0.930 . S
C228 N229 1.314 1_556 S
C228 C230 1.353 . S
C228 H234 0.930 . S
N229 Li179 1.990 . S
N229 C228 1.314 1_554 S
N229 C232 1.279 . S
C230 C228 1.353 . S
C230 C233 1.348 . S
C230 H262 0.929 . S
C231 C232 1.358 . S
C231 C233 1.356 1_554 S
C231 H263 0.930 . S
C232 N229 1.279 . S
C232 C231 1.358 . S
C232 H235 0.930 . S
C233 C230 1.348 . S
C233 C231 1.356 1_556 S
H234 C228 0.930 . S
H235 C232 0.930 . S
O236 Li176 1.956 . S
O236 Li177 1.970 1_565 S
O236 Li178 1.961 . S
O236 C180 1.325 . S
O237 Li176 1.970 1_545 S
O237 Li177 1.956 . S
O237 Li179 1.961 . S
O237 C186 1.325 . S
O238 Li176 1.959 1_556 S
O238 Li178 1.922 1_556 S
O238 Li179 1.955 1_566 S
O238 C208 1.351 . S
O239 Li177 1.961 . S
O239 Li178 1.970 1_545 S
O239 Li179 1.956 . S
O239 C214 1.325 . S
H240 C182 0.929 . S
H241 C183 0.930 . S
H242 C184 0.930 . S
H243 C185 0.930 . S
H244 C187 0.930 . S
H245 C189 0.929 . S
H246 C190 0.930 . S
H247 C191 0.930 . S
H248 C194 0.930 . S
H249 C197 0.929 . S
H250 C202 0.929 . S
H251 C203 0.930 . S
H252 C210 0.929 1_545 S
H253 C211 0.930 . S
H254 C212 0.930 . S
H255 C213 0.930 . S
H256 C215 0.929 1_565 S
H257 C216 0.930 . S
H258 C217 0.930 . S
H259 C218 0.930 . S
H260 C222 0.929 . S
H261 C224 0.930 . S
H262 C230 0.929 . S
H263 C231 0.930 . S
Li264 N281 1.990 . S
Li264 O324 1.956 . S
Li264 O325 1.970 1_455 S
Li264 O326 1.961 . S
Li265 N289 1.990 . S
Li265 O324 1.970 1_655 S
Li265 O325 1.956 . S
Li265 O327 1.961 . S
Li266 N311 1.990 1_554 S
Li266 O324 1.961 . S
Li266 O326 1.956 . S
Li266 O327 1.970 1_455 S
Li267 N317 1.990 . S
Li267 O325 1.961 . S
Li267 O326 1.970 1_655 S
Li267 O327 1.956 . S
C268 C270 1.348 . S
C268 C271 1.356 . S
C268 O324 1.325 . S
N269 C272 1.314 . S
N269 C273 1.279 . S
C270 C268 1.348 . S
C270 C272 1.353 . S
C270 H328 0.929 . S
C271 C268 1.356 . S
C271 C273 1.358 . S
C271 H329 0.930 . S
C272 N269 1.314 . S
C272 C270 1.353 . S
C272 H330 0.930 . S
C273 N269 1.279 . S
C273 C271 1.358 . S
C273 H331 0.930 . S
C274 C277 1.348 1_655 S
C274 C278 1.356 . S
C274 O325 1.325 . S
C275 N276 1.279 . S
C275 C278 1.358 . S
C275 H332 0.930 . S
N276 C275 1.279 . S
N276 C279 1.314 . S
C277 C274 1.348 1_455 S
C277 C279 1.353 1_455 S
C277 H333 0.929 . S
C278 C274 1.356 . S
C278 C275 1.358 . S
C278 H334 0.930 . S
C279 N276 1.314 . S
C279 C277 1.353 1_655 S
C279 H335 0.930 1_655 S
C280 N281 1.314 . S
C280 C285 1.353 . S
C280 H286 0.930 . S
N281 Li264 1.990 . S
N281 C280 1.314 . S
N281 C283 1.279 . S
C282 C283 1.358 . S
C282 C284 1.356 . S
C282 H336 0.930 . S
C283 N281 1.279 . S
C283 C282 1.358 . S
C283 H287 0.930 . S
C284 C282 1.356 . S
C284 C285 1.348 . S
C285 C280 1.353 . S
C285 C284 1.348 . S
C285 H337 0.929 . S
H286 C280 0.930 . S
H287 C283 0.930 . S
C288 N289 1.314 . S
C288 C290 1.353 . S
C288 H294 0.930 . S
N289 Li265 1.990 . S
N289 C288 1.314 . S
N289 C292 1.279 . S
C290 C288 1.353 . S
C290 C293 1.348 . S
C290 H338 0.929 . S
C291 C292 1.358 . S
C291 C293 1.356 . S
C291 H339 0.930 . S
C292 N289 1.279 . S
C292 C291 1.358 . S
C292 H295 0.930 . S
C293 C290 1.348 . S
C293 C291 1.356 . S
H294 C288 0.930 . S
H295 C292 0.930 . S
C296 C298 1.347 1_554 S
C296 C299 1.356 1_554 S
C296 O326 1.325 . S
N297 C300 1.314 . S
N297 C301 1.279 . S
C298 C296 1.347 1_556 S
C298 C300 1.353 . S
C298 H340 0.930 1_455 S
C299 C296 1.356 1_556 S
C299 C301 1.358 . S
C299 H341 0.930 1_556 S
C300 N297 1.314 . S
C300 C298 1.353 . S
C300 H342 0.930 1_455 S
C301 N297 1.279 . S
C301 C299 1.358 . S
C301 H343 0.930 . S
C302 C303 1.348 . S
C302 C304 1.356 . S
C302 O327 1.325 . S
C303 C302 1.348 . S
C303 C305 1.353 1_554 S
C303 H344 0.929 1_554 S
C304 C302 1.356 . S
C304 C306 1.358 . S
C304 H345 0.930 . S
C305 C303 1.353 1_556 S
C305 N307 1.314 1_556 S
C305 H346 0.930 . S
C306 C304 1.358 . S
C306 N307 1.279 . S
C306 H347 0.930 . S
N307 C305 1.314 1_554 S
N307 C306 1.279 . S
C308 C310 1.353 . S
C308 N311 1.314 . S
C308 H314 0.930 1_556 S
C309 N311 1.279 . S
C309 C312 1.358 . S
C309 H315 0.930 . S
C310 C308 1.353 . S
C310 C313 1.348 . S
C310 H348 0.929 . S
N311 Li266 1.990 1_556 S
N311 C308 1.314 . S
N311 C309 1.279 . S
C312 C309 1.358 . S
C312 C313 1.356 . S
C312 H349 0.930 . S
C313 C310 1.348 . S
C313 C312 1.356 . S
H314 C308 0.930 1_554 S
H315 C309 0.930 . S
C316 N317 1.314 . S
C316 C318 1.353 . S
C316 H322 0.930 . S
N317 Li267 1.990 . S
N317 C316 1.314 . S
N317 C320 1.279 . S
C318 C316 1.353 . S
C318 C321 1.348 . S
C318 H350 0.929 . S
C319 C320 1.358 . S
C319 C321 1.356 . S
C319 H351 0.930 1_554 S
C320 N317 1.279 . S
C320 C319 1.358 . S
C320 H323 0.930 . S
C321 C318 1.348 . S
C321 C319 1.356 . S
H322 C316 0.930 . S
H323 C320 0.930 . S
O324 Li264 1.956 . S
O324 Li265 1.970 1_455 S
O324 Li266 1.961 . S
O324 C268 1.325 . S
O325 Li264 1.970 1_655 S
O325 Li265 1.956 . S
O325 Li267 1.961 . S
O325 C274 1.325 . S
O326 Li264 1.961 . S
O326 Li266 1.956 . S
O326 Li267 1.970 1_455 S
O326 C296 1.325 . S
O327 Li265 1.961 . S
O327 Li266 1.970 1_655 S
O327 Li267 1.956 . S
O327 C302 1.325 . S
H328 C270 0.929 . S
H329 C271 0.930 . S
H330 C272 0.930 . S
H331 C273 0.930 . S
H332 C275 0.930 . S
H333 C277 0.929 . S
H334 C278 0.930 . S
H335 C279 0.930 1_455 S
H336 C282 0.930 . S
H337 C285 0.929 . S
H338 C290 0.929 . S
H339 C291 0.930 . S
H340 C298 0.930 1_655 S
H341 C299 0.930 1_554 S
H342 C300 0.930 1_655 S
H343 C301 0.930 . S
H344 C303 0.929 1_556 S
H345 C304 0.930 . S
H346 C305 0.930 . S
H347 C306 0.930 . S
H348 C310 0.929 . S
H349 C312 0.930 . S
H350 C318 0.929 . S
H351 C319 0.930 1_556 S
Li352 N369 1.990 . S
Li352 O412 1.956 . S
Li352 O413 1.970 . S
Li352 O414 1.961 1_554 S
Li353 N377 1.990 . S
Li353 O412 1.970 . S
Li353 O413 1.956 . S
Li353 O415 1.961 1_554 S
Li354 N399 1.990 . S
Li354 O412 1.961 1_556 S
Li354 O414 1.956 . S
Li354 O415 1.970 . S
Li355 N405 1.990 . S
Li355 O413 1.961 1_556 S
Li355 O414 1.970 . S
Li355 O415 1.956 . S
C356 C358 1.348 . S
C356 C359 1.356 . S
C356 O412 1.325 . S
N357 C360 1.314 . S
N357 C361 1.279 . S
C358 C356 1.348 . S
C358 C360 1.353 . S
C358 H416 0.929 . S
C359 C356 1.356 . S
C359 C361 1.358 . S
C359 H417 0.930 . S
C360 N357 1.314 . S
C360 C358 1.353 . S
C360 H418 0.930 . S
C361 N357 1.279 . S
C361 C359 1.358 . S
C361 H419 0.930 . S
C362 C365 1.348 . S
C362 C366 1.356 . S
C362 O413 1.325 . S
C363 N364 1.279 . S
C363 C366 1.358 . S
C363 H420 0.930 . S
N364 C363 1.279 . S
N364 C367 1.314 . S
C365 C362 1.348 . S
C365 C367 1.353 . S
C365 H421 0.929 . S
C366 C362 1.356 . S
C366 C363 1.358 . S
C366 H422 0.930 . S
C367 N364 1.314 . S
C367 C365 1.353 . S
C367 H423 0.930 . S
C368 N369 1.314 . S
C368 C373 1.353 . S
C368 H374 0.930 . S
N369 Li352 1.990 . S
N369 C368 1.314 . S
N369 C371 1.279 . S
C370 C371 1.358 . S
C370 C372 1.356 . S
C370 H424 0.930 . S
C371 N369 1.279 . S
C371 C370 1.358 . S
C371 H375 0.930 . S
C372 C370 1.356 . S
C372 C373 1.348 . S
C373 C368 1.353 . S
C373 C372 1.348 . S
C373 H425 0.929 . S
H374 C368 0.930 . S
H375 C371 0.930 . S
C376 N377 1.314 . S
C376 C378 1.353 . S
C376 H382 0.930 . S
N377 Li353 1.990 . S
N377 C376 1.314 . S
N377 C380 1.279 . S
C378 C376 1.353 . S
C378 C381 1.348 . S
C378 H426 0.929 . S
C379 C380 1.358 . S
C379 C381 1.356 . S
C379 H427 0.930 . S
C380 N377 1.279 . S
C380 C379 1.358 . S
C380 H383 0.930 . S
C381 C378 1.348 . S
C381 C379 1.356 . S
H382 C376 0.930 . S
H383 C380 0.930 . S
C384 C386 1.348 . S
C384 C387 1.356 . S
C384 O414 1.325 . S
N385 C388 1.314 . S
N385 C389 1.279 . S
C386 C384 1.348 . S
C386 C388 1.353 . S
C386 H428 0.929 . S
C387 C384 1.356 . S
C387 C389 1.358 . S
C387 H429 0.930 . S
C388 N385 1.314 . S
C388 C386 1.353 . S
C388 H430 0.930 . S
C389 N385 1.279 . S
C389 C387 1.358 . S
C389 H431 0.930 . S
C390 C391 1.348 . S
C390 C392 1.356 1_556 S
C390 O415 1.325 . S
C391 C390 1.348 . S
C391 C393 1.353 . S
C391 H432 0.929 . S
C392 C390 1.356 1_554 S
C392 C394 1.358 1_554 S
C392 H433 0.930 . S
C393 C391 1.353 . S
C393 N395 1.314 . S
C393 H434 0.930 . S
C394 C392 1.358 1_556 S
C394 N395 1.279 . S
C394 H435 0.930 1_556 S
N395 C393 1.314 . S
N395 C394 1.279 . S
C396 C398 1.353 . S
C396 N399 1.314 . S
C396 H402 0.930 . S
C397 N399 1.279 . S
C397 C400 1.358 . S
C397 H403 0.930 . S
C398 C396 1.353 . S
C398 C401 1.348 . S
C398 H436 0.929 . S
N399 Li354 1.990 . S
N399 C396 1.314 . S
N399 C397 1.279 . S
C400 C397 1.358 . S
C400 C401 1.356 . S
C400 H437 0.930 . S
C401 C398 1.348 . S
C401 C400 1.356 . S
H402 C396 0.930 . S
H403 C397 0.930 . S
C404 N405 1.314 . S
C404 C406 1.353 . S
C404 H410 0.930 . S
N405 Li355 1.990 . S
N405 C404 1.314 . S
N405 C408 1.279 . S
C406 C404 1.353 . S
C406 C409 1.348 . S
C406 H438 0.929 . S
C407 C408 1.358 . S
C407 C409 1.356 . S
C407 H439 0.930 . S
C408 N405 1.279 . S
C408 C407 1.358 . S
C408 H411 0.930 . S
C409 C406 1.348 . S
C409 C407 1.356 . S
H410 C404 0.930 . S
H411 C408 0.930 . S
O412 Li352 1.956 . S
O412 Li353 1.970 . S
O412 Li354 1.961 1_554 S
O412 C356 1.325 . S
O413 Li352 1.970 . S
O413 Li353 1.956 . S
O413 Li355 1.961 1_554 S
O413 C362 1.325 . S
O414 Li352 1.961 1_556 S
O414 Li354 1.956 . S
O414 Li355 1.970 . S
O414 C384 1.325 . S
O415 Li353 1.961 1_556 S
O415 Li354 1.970 . S
O415 Li355 1.956 . S
O415 C390 1.325 . S
H416 C358 0.929 . S
H417 C359 0.930 . S
H418 C360 0.930 . S
H419 C361 0.930 . S
H420 C363 0.930 . S
H421 C365 0.929 . S
H422 C366 0.930 . S
H423 C367 0.930 . S
H424 C370 0.930 . S
H425 C373 0.929 . S
H426 C378 0.929 . S
H427 C379 0.930 . S
H428 C386 0.929 . S
H429 C387 0.930 . S
H430 C388 0.930 . S
H431 C389 0.930 . S
H432 C391 0.929 . S
H433 C392 0.930 . S
H434 C393 0.930 . S
H435 C394 0.930 1_554 S
H436 C398 0.929 . S
H437 C400 0.930 . S
H438 C406 0.929 . S
H439 C407 0.930 . S
Li440 N457 1.990 . S
Li440 O500 1.956 . S
Li440 O501 1.970 1_565 S
Li440 O502 1.961 . S
Li441 N465 1.990 . S
Li441 O500 1.970 1_545 S
Li441 O501 1.956 . S
Li441 O503 1.961 . S
Li442 N487 1.990 1_554 S
Li442 O500 1.961 . S
Li442 O502 1.956 . S
Li442 O503 1.970 1_565 S
Li443 N493 1.990 . S
Li443 O501 1.961 . S
Li443 O502 1.970 1_545 S
Li443 O503 1.956 . S
C444 C446 1.348 . S
C444 C447 1.356 . S
C444 O500 1.325 . S
N445 C448 1.314 . S
N445 C449 1.279 . S
C446 C444 1.348 . S
C446 C448 1.353 . S
C446 H504 0.929 . S
C447 C444 1.356 . S
C447 C449 1.358 . S
C447 H505 0.930 . S
C448 N445 1.314 . S
C448 C446 1.353 . S
C448 H506 0.930 . S
C449 N445 1.279 . S
C449 C447 1.358 . S
C449 H507 0.930 . S
C450 C453 1.348 . S
C450 C454 1.356 . S
C450 O501 1.325 . S
C451 N452 1.279 . S
C451 C454 1.358 . S
C451 H508 0.930 . S
N452 C451 1.279 . S
N452 C455 1.314 . S
C453 C450 1.348 . S
C453 C455 1.353 . S
C453 H509 0.929 1_545 S
C454 C450 1.356 . S
C454 C451 1.358 . S
C454 H510 0.930 . S
C455 N452 1.314 . S
C455 C453 1.353 . S
C455 H511 0.930 . S
C456 N457 1.314 . S
C456 C461 1.353 . S
C456 H462 0.930 . S
N457 Li440 1.990 . S
N457 C456 1.314 . S
N457 C459 1.279 . S
C458 C459 1.358 . S
C458 C460 1.356 . S
C458 H512 0.930 . S
C459 N457 1.279 . S
C459 C458 1.358 . S
C459 H463 0.930 . S
C460 C458 1.356 . S
C460 C461 1.348 . S
C461 C456 1.353 . S
C461 C460 1.348 . S
C461 H513 0.929 . S
H462 C456 0.930 . S
H463 C459 0.930 . S
C464 N465 1.314 . S
C464 C466 1.353 . S
C464 H470 0.930 . S
N465 Li441 1.990 . S
N465 C464 1.314 . S
N465 C468 1.279 . S
C466 C464 1.353 . S
C466 C469 1.348 . S
C466 H514 0.929 . S
C467 C468 1.358 . S
C467 C469 1.356 . S
C467 H515 0.930 . S
C468 N465 1.279 . S
C468 C467 1.358 . S
C468 H471 0.930 . S
C469 C466 1.348 . S
C469 C467 1.356 . S
H470 C464 0.930 . S
H471 C468 0.930 . S
C472 C474 1.348 1_564 S
C472 C475 1.356 1_554 S
C472 O502 1.325 . S
N473 C476 1.314 . S
N473 C477 1.279 . S
C474 C472 1.348 1_546 S
C474 C476 1.353 1_545 S
C474 H516 0.929 . S
C475 C472 1.356 1_556 S
C475 C477 1.358 . S
C475 H517 0.930 1_556 S
C476 N473 1.314 . S
C476 C474 1.353 1_565 S
C476 H518 0.930 1_565 S
C477 N473 1.279 . S
C477 C475 1.358 . S
C477 H519 0.930 . S
C478 C479 1.348 . S
C478 C480 1.356 . S
C478 O503 1.325 . S
C479 C478 1.348 . S
C479 C481 1.353 . S
C479 H520 0.929 1_554 S
C480 C478 1.356 . S
C480 C482 1.358 . S
C480 H521 0.930 . S
C481 C479 1.353 . S
C481 N483 1.314 . S
C481 H522 0.930 1_554 S
C482 C480 1.358 . S
C482 N483 1.279 . S
C482 H523 0.930 . S
N483 C481 1.314 . S
N483 C482 1.279 . S
C484 C486 1.353 . S
C484 N487 1.314 . S
C484 H490 0.930 1_556 S
C485 N487 1.279 . S
C485 C488 1.358 . S
C485 H491 0.930 . S
C486 C484 1.353 . S
C486 C489 1.348 . S
C486 H524 0.929 . S
N487 Li442 1.990 1_556 S
N487 C484 1.314 . S
N487 C485 1.279 . S
C488 C485 1.358 . S
C488 C489 1.356 . S
C488 H525 0.930 . S
C489 C486 1.348 . S
C489 C488 1.356 . S
H490 C484 0.930 1_554 S
H491 C485 0.930 . S
C492 N493 1.314 . S
C492 C494 1.353 . S
C492 H498 0.930 . S
N493 Li443 1.990 . S
N493 C492 1.314 . S
N493 C496 1.279 . S
C494 C492 1.353 . S
C494 C497 1.348 . S
C494 H526 0.929 . S
C495 C496 1.358 . S
C495 C497 1.356 . S
C495 H527 0.930 . S
C496 N493 1.279 . S
C496 C495 1.358 . S
C496 H499 0.930 . S
C497 C494 1.348 . S
C497 C495 1.356 . S
H498 C492 0.930 . S
H499 C496 0.930 . S
O500 Li440 1.956 . S
O500 Li441 1.970 1_565 S
O500 Li442 1.961 . S
O500 C444 1.325 . S
O501 Li440 1.970 1_545 S
O501 Li441 1.956 . S
O501 Li443 1.961 . S
O501 C450 1.325 . S
O502 Li440 1.961 . S
O502 Li442 1.956 . S
O502 Li443 1.970 1_565 S
O502 C472 1.325 . S
O503 Li441 1.961 . S
O503 Li442 1.970 1_545 S
O503 Li443 1.956 . S
O503 C478 1.325 . S
H504 C446 0.929 . S
H505 C447 0.930 . S
H506 C448 0.930 . S
H507 C449 0.930 . S
H508 C451 0.930 . S
H509 C453 0.929 1_565 S
H510 C454 0.930 . S
H511 C455 0.930 . S
H512 C458 0.930 . S
H513 C461 0.929 . S
H514 C466 0.929 . S
H515 C467 0.930 . S
H516 C474 0.929 . S
H517 C475 0.930 1_554 S
H518 C476 0.930 1_545 S
H519 C477 0.930 . S
H520 C479 0.929 1_556 S
H521 C480 0.930 . S
H522 C481 0.930 1_556 S
H523 C482 0.930 . S
H524 C486 0.929 . S
H525 C488 0.930 . S
H526 C494 0.929 . S
H527 C495 0.930 . S
Li528 N545 1.990 . S
Li528 O588 1.956 . S
Li528 O589 1.970 . S
Li528 O590 1.961 . S
Li529 N553 1.990 . S
Li529 O588 1.970 . S
Li529 O589 1.956 . S
Li529 O591 1.961 . S
Li530 N575 1.990 . S
Li530 O588 1.961 . S
Li530 O590 1.956 . S
Li530 O591 1.970 . S
Li531 N581 1.990 . S
Li531 O589 1.961 . S
Li531 O590 1.970 . S
Li531 O591 1.956 . S
C532 C534 1.348 . S
C532 C535 1.356 . S
C532 O588 1.325 . S
N533 C536 1.314 . S
N533 C537 1.279 . S
C534 C532 1.348 . S
C534 C536 1.353 . S
C534 H592 0.929 . S
C535 C532 1.356 . S
C535 C537 1.358 . S
C535 H593 0.930 . S
C536 N533 1.314 . S
C536 C534 1.353 . S
C536 H594 0.930 . S
C537 N533 1.279 . S
C537 C535 1.358 . S
C537 H595 0.930 . S
C538 C541 1.348 . S
C538 C542 1.356 . S
C538 O589 1.325 . S
C539 N540 1.279 . S
C539 C542 1.358 . S
C539 H596 0.930 . S
N540 C539 1.279 . S
N540 C543 1.314 . S
C541 C538 1.348 . S
C541 C543 1.353 . S
C541 H597 0.929 . S
C542 C538 1.356 . S
C542 C539 1.358 . S
C542 H598 0.930 . S
C543 N540 1.314 . S
C543 C541 1.353 . S
C543 H599 0.930 . S
C544 N545 1.314 . S
C544 C549 1.353 . S
C544 H550 0.930 . S
N545 Li528 1.990 . S
N545 C544 1.314 . S
N545 C547 1.279 . S
C546 C547 1.358 . S
C546 C548 1.356 . S
C546 H600 0.930 . S
C547 N545 1.279 . S
C547 C546 1.358 . S
C547 H551 0.930 . S
C548 C546 1.356 . S
C548 C549 1.348 . S
C549 C544 1.353 . S
C549 C548 1.348 . S
C549 H601 0.929 . S
H550 C544 0.930 . S
H551 C547 0.930 . S
C552 N553 1.314 . S
C552 C554 1.353 . S
C552 H558 0.930 . S
N553 Li529 1.990 . S
N553 C552 1.314 . S
N553 C556 1.279 . S
C554 C552 1.353 . S
C554 C557 1.348 . S
C554 H602 0.929 . S
C555 C556 1.358 . S
C555 C557 1.356 . S
C555 H603 0.930 . S
C556 N553 1.279 . S
C556 C555 1.358 . S
C556 H559 0.930 . S
C557 C554 1.348 . S
C557 C555 1.356 . S
H558 C552 0.930 . S
H559 C556 0.930 . S
C560 C562 1.348 . S
C560 C563 1.356 . S
C560 O590 1.325 . S
N561 C564 1.314 . S
N561 C565 1.279 . S
C562 C560 1.348 . S
C562 C564 1.353 . S
C562 H604 0.929 . S
C563 C560 1.356 . S
C563 C565 1.358 . S
C563 H605 0.930 . S
C564 N561 1.314 . S
C564 C562 1.353 . S
C564 H606 0.930 . S
C565 N561 1.279 . S
C565 C563 1.358 . S
C565 H607 0.930 . S
C566 C567 1.348 . S
C566 C568 1.356 . S
C566 O591 1.325 . S
C567 C566 1.348 . S
C567 C569 1.353 . S
C567 H608 0.929 . S
C568 C566 1.356 . S
C568 C570 1.358 . S
C568 H609 0.930 . S
C569 C567 1.353 . S
C569 N571 1.314 . S
C569 H610 0.930 . S
C570 C568 1.358 . S
C570 N571 1.279 . S
C570 H611 0.930 . S
N571 C569 1.314 . S
N571 C570 1.279 . S
C572 C574 1.353 . S
C572 N575 1.314 . S
C572 H578 0.930 . S
C573 N575 1.279 . S
C573 C576 1.358 . S
C573 H579 0.930 . S
C574 C572 1.353 . S
C574 C577 1.348 . S
C574 H612 0.929 . S
N575 Li530 1.990 . S
N575 C572 1.314 . S
N575 C573 1.279 . S
C576 C573 1.358 . S
C576 C577 1.356 . S
C576 H613 0.930 . S
C577 C574 1.348 . S
C577 C576 1.356 . S
H578 C572 0.930 . S
H579 C573 0.930 . S
C580 N581 1.314 . S
C580 C582 1.353 . S
C580 H586 0.930 . S
N581 Li531 1.990 . S
N581 C580 1.314 . S
N581 C584 1.279 . S
C582 C580 1.353 . S
C582 C585 1.348 . S
C582 H614 0.929 . S
C583 C584 1.358 . S
C583 C585 1.356 . S
C583 H615 0.930 . S
C584 N581 1.279 . S
C584 C583 1.358 . S
C584 H587 0.930 . S
C585 C582 1.348 . S
C585 C583 1.356 . S
H586 C580 0.930 . S
H587 C584 0.930 . S
O588 Li528 1.956 . S
O588 Li529 1.970 . S
O588 Li530 1.961 . S
O588 C532 1.325 . S
O589 Li528 1.970 . S
O589 Li529 1.956 . S
O589 Li531 1.961 . S
O589 C538 1.325 . S
O590 Li528 1.961 . S
O590 Li530 1.956 . S
O590 Li531 1.970 . S
O590 C560 1.325 . S
O591 Li529 1.961 . S
O591 Li530 1.970 . S
O591 Li531 1.956 . S
O591 C566 1.325 . S
H592 C534 0.929 . S
H593 C535 0.930 . S
H594 C536 0.930 . S
H595 C537 0.930 . S
H596 C539 0.930 . S
H597 C541 0.929 . S
H598 C542 0.930 . S
H599 C543 0.930 . S
H600 C546 0.930 . S
H601 C549 0.929 . S
H602 C554 0.929 . S
H603 C555 0.930 . S
H604 C562 0.929 . S
H605 C563 0.930 . S
H606 C564 0.930 . S
H607 C565 0.930 . S
H608 C567 0.929 . S
H609 C568 0.930 . S
H610 C569 0.930 . S
H611 C570 0.930 . S
H612 C574 0.929 . S
H613 C576 0.930 . S
H614 C582 0.929 . S
H615 C583 0.930 . S
Li616 N633 1.990 . S
Li616 O676 1.956 . S
Li616 O677 1.970 . S
Li616 O678 1.961 . S
Li617 N641 1.990 . S
Li617 O676 1.970 . S
Li617 O677 1.956 . S
Li617 O679 1.961 . S
Li618 N663 1.990 1_565 S
Li618 O676 1.961 . S
Li618 O678 1.956 . S
Li618 O679 1.970 . S
Li619 N669 1.990 . S
Li619 O677 1.961 . S
Li619 O678 1.970 . S
Li619 O679 1.956 . S
C620 C622 1.348 . S
C620 C623 1.356 . S
C620 O676 1.325 . S
N621 C624 1.314 . S
N621 C625 1.279 . S
C622 C620 1.348 . S
C622 C624 1.353 . S
C622 H680 0.929 . S
C623 C620 1.356 . S
C623 C625 1.358 . S
C623 H681 0.930 . S
C624 N621 1.314 . S
C624 C622 1.353 . S
C624 H682 0.930 . S
C625 N621 1.279 . S
C625 C623 1.358 . S
C625 H683 0.930 . S
C626 C629 1.348 . S
C626 C630 1.356 . S
C626 O677 1.325 . S
C627 N628 1.279 . S
C627 C630 1.358 . S
C627 H684 0.930 . S
N628 C627 1.279 . S
N628 C631 1.314 . S
C629 C626 1.348 . S
C629 C631 1.353 . S
C629 H685 0.929 . S
C630 C626 1.356 . S
C630 C627 1.358 . S
C630 H686 0.930 . S
C631 N628 1.314 . S
C631 C629 1.353 . S
C631 H687 0.930 . S
C632 N633 1.314 . S
C632 C637 1.353 . S
C632 H638 0.930 . S
N633 Li616 1.990 . S
N633 C632 1.314 . S
N633 C635 1.279 . S
C634 C635 1.358 . S
C634 C636 1.356 . S
C634 H688 0.930 . S
C635 N633 1.279 . S
C635 C634 1.358 . S
C635 H639 0.930 . S
C636 C634 1.356 . S
C636 C637 1.348 . S
C637 C632 1.353 . S
C637 C636 1.348 . S
C637 H689 0.929 . S
H638 C632 0.930 . S
H639 C635 0.930 . S
C640 N641 1.314 . S
C640 C642 1.353 . S
C640 H646 0.930 . S
N641 Li617 1.990 . S
N641 C640 1.314 . S
N641 C644 1.279 . S
C642 C640 1.353 . S
C642 C645 1.348 . S
C642 H690 0.929 . S
C643 C644 1.358 . S
C643 C645 1.356 . S
C643 H691 0.930 . S
C644 N641 1.279 . S
C644 C643 1.358 . S
C644 H647 0.930 . S
C645 C642 1.348 . S
C645 C643 1.356 . S
H646 C640 0.930 . S
H647 C644 0.930 . S
C648 C650 1.348 1_565 S
C648 C651 1.356 1_565 S
C648 O678 1.325 . S
N649 C652 1.314 . S
N649 C653 1.279 . S
C650 C648 1.348 1_545 S
C650 C652 1.353 . S
C650 H692 0.929 . S
C651 C648 1.356 1_545 S
C651 C653 1.358 . S
C651 H693 0.930 . S
C652 N649 1.314 . S
C652 C650 1.353 . S
C652 H694 0.930 . S
C653 N649 1.279 . S
C653 C651 1.358 . S
C653 H695 0.930 . S
C654 C655 1.348 1_565 S
C654 C656 1.356 . S
C654 O679 1.325 . S
C655 C654 1.348 1_545 S
C655 C657 1.353 . S
C655 H696 0.929 . S
C656 C654 1.356 . S
C656 C658 1.358 . S
C656 H697 0.930 . S
C657 C655 1.353 . S
C657 N659 1.314 1_545 S
C657 H698 0.930 . S
C658 C656 1.358 . S
C658 N659 1.279 . S
C658 H699 0.930 . S
N659 C657 1.314 1_565 S
N659 C658 1.279 . S
C660 C662 1.353 . S
C660 N663 1.314 . S
C660 H666 0.930 . S
C661 N663 1.279 . S
C661 C664 1.358 . S
C661 H667 0.930 . S
C662 C660 1.353 . S
C662 C665 1.348 . S
C662 H700 0.929 . S
N663 Li618 1.990 1_545 S
N663 C660 1.314 . S
N663 C661 1.279 . S
C664 C661 1.358 . S
C664 C665 1.356 . S
C664 H701 0.930 . S
C665 C662 1.348 . S
C665 C664 1.356 . S
H666 C660 0.930 . S
H667 C661 0.930 . S
C668 N669 1.314 . S
C668 C670 1.353 . S
C668 H674 0.930 . S
N669 Li619 1.990 . S
N669 C668 1.314 . S
N669 C672 1.279 . S
C670 C668 1.353 . S
C670 C673 1.348 . S
C670 H702 0.929 . S
C671 C672 1.358 . S
C671 C673 1.356 . S
C671 H703 0.930 . S
C672 N669 1.279 . S
C672 C671 1.358 . S
C672 H675 0.930 . S
C673 C670 1.348 . S
C673 C671 1.356 . S
H674 C668 0.930 . S
H675 C672 0.930 . S
O676 Li616 1.956 . S
O676 Li617 1.970 . S
O676 Li618 1.961 . S
O676 C620 1.325 . S
O677 Li616 1.970 . S
O677 Li617 1.956 . S
O677 Li619 1.961 . S
O677 C626 1.325 . S
O678 Li616 1.961 . S
O678 Li618 1.956 . S
O678 Li619 1.970 . S
O678 C648 1.325 . S
O679 Li617 1.961 . S
O679 Li618 1.970 . S
O679 Li619 1.956 . S
O679 C654 1.325 . S
H680 C622 0.929 . S
H681 C623 0.930 . S
H682 C624 0.930 . S
H683 C625 0.930 . S
H684 C627 0.930 . S
H685 C629 0.929 . S
H686 C630 0.930 . S
H687 C631 0.930 . S
H688 C634 0.930 . S
H689 C637 0.929 . S
H690 C642 0.929 . S
H691 C643 0.930 . S
H692 C650 0.929 . S
H693 C651 0.930 . S
H694 C652 0.930 . S
H695 C653 0.930 . S
H696 C655 0.929 . S
H697 C656 0.930 . S
H698 C657 0.930 . S
H699 C658 0.930 . S
H700 C662 0.929 . S
H701 C664 0.930 . S
H702 C670 0.929 . S
H703 C671 0.930 . S
Li704 N721 1.990 . S
Li704 O764 1.956 . S
Li704 O765 1.970 . S
Li704 O766 1.961 . S
Li705 N729 1.990 . S
Li705 O764 1.970 . S
Li705 O765 1.956 . S
Li705 O767 1.961 . S
Li706 N751 1.990 1_455 S
Li706 O764 1.961 . S
Li706 O766 1.956 . S
Li706 O767 1.970 . S
Li707 N757 1.990 . S
Li707 O765 1.961 . S
Li707 O766 1.970 . S
Li707 O767 1.956 . S
C708 C710 1.348 . S
C708 C711 1.356 . S
C708 O764 1.325 . S
N709 C712 1.314 . S
N709 C713 1.279 . S
C710 C708 1.348 . S
C710 C712 1.353 . S
C710 H768 0.929 . S
C711 C708 1.356 . S
C711 C713 1.358 . S
C711 H769 0.930 . S
C712 N709 1.314 . S
C712 C710 1.353 . S
C712 H770 0.930 . S
C713 N709 1.279 . S
C713 C711 1.358 . S
C713 H771 0.930 . S
C714 C717 1.348 . S
C714 C718 1.356 . S
C714 O765 1.325 . S
C715 N716 1.279 . S
C715 C718 1.358 . S
C715 H772 0.930 . S
N716 C715 1.279 . S
N716 C719 1.314 . S
C717 C714 1.348 . S
C717 C719 1.353 . S
C717 H773 0.929 . S
C718 C714 1.356 . S
C718 C715 1.358 . S
C718 H774 0.930 . S
C719 N716 1.314 . S
C719 C717 1.353 . S
C719 H775 0.930 . S
C720 N721 1.314 . S
C720 C725 1.353 . S
C720 H726 0.930 . S
N721 Li704 1.990 . S
N721 C720 1.314 . S
N721 C723 1.279 . S
C722 C723 1.358 . S
C722 C724 1.356 . S
C722 H776 0.930 . S
C723 N721 1.279 . S
C723 C722 1.358 . S
C723 H727 0.930 . S
C724 C722 1.356 . S
C724 C725 1.348 . S
C725 C720 1.353 . S
C725 C724 1.348 . S
C725 H777 0.929 . S
H726 C720 0.930 . S
H727 C723 0.930 . S
C728 N729 1.314 . S
C728 C730 1.353 . S
C728 H734 0.930 . S
N729 Li705 1.990 . S
N729 C728 1.314 . S
N729 C732 1.279 . S
C730 C728 1.353 . S
C730 C733 1.348 . S
C730 H778 0.929 . S
C731 C732 1.358 . S
C731 C733 1.356 . S
C731 H779 0.930 . S
C732 N729 1.279 . S
C732 C731 1.358 . S
C732 H735 0.930 . S
C733 C730 1.348 . S
C733 C731 1.356 . S
H734 C728 0.930 . S
H735 C732 0.930 . S
C736 C738 1.348 1_455 S
C736 C739 1.364 1_455 S
C736 O766 1.325 . S
N737 C740 1.314 . S
N737 C741 1.279 . S
C738 C736 1.348 1_655 S
C738 C740 1.353 . S
C738 H780 0.929 1_655 S
C739 C736 1.364 1_655 S
C739 C741 1.390 . S
C739 H781 0.892 1_655 S
C740 N737 1.314 . S
C740 C738 1.353 . S
C740 H782 0.930 . S
C741 N737 1.279 . S
C741 C739 1.390 . S
C741 H783 0.930 . S
C742 C743 1.348 . S
C742 C744 1.356 . S
C742 O767 1.325 . S
C743 C742 1.348 . S
C743 C745 1.353 . S
C743 H784 0.929 1_455 S
C744 C742 1.356 . S
C744 C746 1.358 . S
C744 H785 0.930 . S
C745 C743 1.353 . S
C745 N747 1.314 . S
C745 H786 0.930 1_455 S
C746 C744 1.358 . S
C746 N747 1.279 . S
C746 H787 0.930 . S
N747 C745 1.314 . S
N747 C746 1.279 . S
C748 C750 1.353 . S
C748 N751 1.314 . S
C748 H754 0.930 1_655 S
C749 N751 1.279 . S
C749 C752 1.358 . S
C749 H755 0.930 . S
C750 C748 1.353 . S
C750 C753 1.348 . S
C750 H788 0.929 . S
N751 Li706 1.990 1_655 S
N751 C748 1.314 . S
N751 C749 1.279 . S
C752 C749 1.358 . S
C752 C753 1.356 . S
C752 H789 0.930 . S
C753 C750 1.348 . S
C753 C752 1.356 . S
H754 C748 0.930 1_455 S
H755 C749 0.930 . S
C756 N757 1.314 . S
C756 C758 1.353 . S
C756 H762 0.930 . S
N757 Li707 1.990 . S
N757 C756 1.314 . S
N757 C760 1.279 . S
C758 C756 1.353 . S
C758 C761 1.348 . S
C758 H790 0.929 . S
C759 C760 1.358 . S
C759 C761 1.356 . S
C759 H791 0.930 . S
C760 N757 1.279 . S
C760 C759 1.358 . S
C760 H763 0.930 . S
C761 C758 1.348 . S
C761 C759 1.356 . S
H762 C756 0.930 . S
H763 C760 0.930 . S
O764 Li704 1.956 . S
O764 Li705 1.970 . S
O764 Li706 1.961 . S
O764 C708 1.325 . S
O765 Li704 1.970 . S
O765 Li705 1.956 . S
O765 Li707 1.961 . S
O765 C714 1.325 . S
O766 Li704 1.961 . S
O766 Li706 1.956 . S
O766 Li707 1.970 . S
O766 C736 1.325 . S
O767 Li705 1.961 . S
O767 Li706 1.970 . S
O767 Li707 1.956 . S
O767 C742 1.325 . S
H768 C710 0.929 . S
H769 C711 0.930 . S
H770 C712 0.930 . S
H771 C713 0.930 . S
H772 C715 0.930 . S
H773 C717 0.929 . S
H774 C718 0.930 . S
H775 C719 0.930 . S
H776 C722 0.930 . S
H777 C725 0.929 . S
H778 C730 0.929 . S
H779 C731 0.930 . S
H780 C738 0.929 1_455 S
H781 C739 0.892 1_455 S
H782 C740 0.930 . S
H783 C741 0.930 . S
H784 C743 0.929 1_655 S
H785 C744 0.930 . S
H786 C745 0.930 1_655 S
H787 C746 0.930 . S
H788 C750 0.929 . S
H789 C752 0.930 . S
H790 C758 0.929 . S
H791 C759 0.930 . S
Li792 N809 1.990 1_565 S
Li792 O852 1.956 . S
Li792 O853 1.970 . S
Li792 O854 1.961 . S
Li793 N817 1.990 . S
Li793 O852 1.970 . S
Li793 O853 1.956 . S
Li793 O855 1.961 . S
Li794 N839 1.990 . S
Li794 O852 1.961 . S
Li794 O854 1.956 . S
Li794 O855 1.970 . S
Li795 N845 1.990 . S
Li795 O853 1.961 . S
Li795 O854 1.970 . S
Li795 O855 1.956 . S
C796 C798 1.348 . S
C796 C799 1.356 . S
C796 O852 1.325 . S
N797 C800 1.314 . S
N797 C801 1.279 . S
C798 C796 1.348 . S
C798 C800 1.353 . S
C798 H856 0.929 . S
C799 C796 1.356 . S
C799 C801 1.358 . S
C799 H857 0.930 . S
C800 N797 1.314 . S
C800 C798 1.353 . S
C800 H858 0.930 . S
C801 N797 1.279 . S
C801 C799 1.358 . S
C801 H859 0.930 . S
C802 C805 1.361 . S
C802 C806 1.356 . S
C802 O853 1.325 . S
C803 N804 1.279 . S
C803 C806 1.358 . S
C803 H860 0.930 . S
N804 C803 1.279 . S
N804 C807 1.314 1_565 S
C805 C802 1.361 . S
C805 C807 1.338 1_565 S
C805 H861 0.932 1_565 S
C806 C802 1.356 . S
C806 C803 1.358 . S
C806 H862 0.930 . S
C807 N804 1.314 1_545 S
C807 C805 1.338 1_545 S
C807 H863 0.930 . S
C808 N809 1.314 . S
C808 C813 1.353 . S
C808 H814 0.930 . S
N809 Li792 1.990 1_545 S
N809 C808 1.314 . S
N809 C811 1.279 . S
C810 C811 1.358 . S
C810 C812 1.356 . S
C810 H864 0.930 . S
C811 N809 1.279 . S
C811 C810 1.358 . S
C811 H815 0.930 . S
C812 C810 1.356 . S
C812 C813 1.348 . S
C813 C808 1.353 . S
C813 C812 1.348 . S
C813 H865 0.929 . S
H814 C808 0.930 . S
H815 C811 0.930 . S
C816 N817 1.314 . S
C816 C818 1.353 . S
C816 H822 0.930 . S
N817 Li793 1.990 . S
N817 C816 1.314 . S
N817 C820 1.279 . S
C818 C816 1.353 . S
C818 C821 1.348 . S
C818 H866 0.929 . S
C819 C820 1.358 . S
C819 C821 1.356 . S
C819 H867 0.930 . S
C820 N817 1.279 . S
C820 C819 1.358 . S
C820 H823 0.930 . S
C821 C818 1.348 . S
C821 C819 1.356 . S
H822 C816 0.930 . S
H823 C820 0.930 . S
C824 C826 1.367 . S
C824 C827 1.356 1_565 S
C824 O854 1.325 . S
N825 C828 1.314 . S
N825 C829 1.279 . S
C826 C824 1.367 . S
C826 C828 1.328 1_565 S
C826 H868 0.938 . S
C827 C824 1.356 1_545 S
C827 C829 1.358 . S
C827 H869 0.930 . S
C828 N825 1.314 . S
C828 C826 1.328 1_545 S
C828 H870 0.930 . S
C829 N825 1.279 . S
C829 C827 1.358 . S
C829 H871 0.930 . S
C830 C831 1.348 . S
C830 C832 1.356 . S
C830 O855 1.325 . S
C831 C830 1.348 . S
C831 C833 1.353 . S
C831 H872 0.929 . S
C832 C830 1.356 . S
C832 C834 1.358 . S
C832 H873 0.930 . S
C833 C831 1.353 . S
C833 N835 1.314 . S
C833 H874 0.930 . S
C834 C832 1.358 . S
C834 N835 1.279 . S
C834 H875 0.930 . S
N835 C833 1.314 . S
N835 C834 1.279 . S
C836 C838 1.353 . S
C836 N839 1.314 . S
C836 H842 0.930 . S
C837 N839 1.279 . S
C837 C840 1.358 . S
C837 H843 0.930 . S
C838 C836 1.353 . S
C838 C841 1.348 . S
C838 H876 0.929 . S
N839 Li794 1.990 . S
N839 C836 1.314 . S
N839 C837 1.279 . S
C840 C837 1.358 . S
C840 C841 1.356 . S
C840 H877 0.930 . S
C841 C838 1.348 . S
C841 C840 1.356 . S
H842 C836 0.930 . S
H843 C837 0.930 . S
C844 N845 1.314 . S
C844 C846 1.353 . S
C844 H850 0.930 . S
N845 Li795 1.990 . S
N845 C844 1.314 . S
N845 C848 1.279 . S
C846 C844 1.353 . S
C846 C849 1.348 . S
C846 H878 0.900 1_565 S
C847 C848 1.358 . S
C847 C849 1.356 . S
C847 H879 0.930 . S
C848 N845 1.279 . S
C848 C847 1.358 . S
C848 H851 0.930 . S
C849 C846 1.348 . S
C849 C847 1.356 . S
H850 C844 0.930 . S
H851 C848 0.930 . S
O852 Li792 1.956 . S
O852 Li793 1.970 . S
O852 Li794 1.961 . S
O852 C796 1.325 . S
O853 Li792 1.970 . S
O853 Li793 1.956 . S
O853 Li795 1.961 . S
O853 C802 1.325 . S
O854 Li792 1.961 . S
O854 Li794 1.956 . S
O854 Li795 1.970 . S
O854 C824 1.325 . S
O855 Li793 1.961 . S
O855 Li794 1.970 . S
O855 Li795 1.956 . S
O855 C830 1.325 . S
H856 C798 0.929 . S
H857 C799 0.930 . S
H858 C800 0.930 . S
H859 C801 0.930 . S
H860 C803 0.930 . S
H861 C805 0.932 1_545 S
H862 C806 0.930 . S
H863 C807 0.930 . S
H864 C810 0.930 . S
H865 C813 0.929 . S
H866 C818 0.929 . S
H867 C819 0.930 . S
H868 C826 0.938 . S
H869 C827 0.930 . S
H870 C828 0.930 . S
H871 C829 0.930 . S
H872 C831 0.929 . S
H873 C832 0.930 . S
H874 C833 0.930 . S
H875 C834 0.930 . S
H876 C838 0.929 . S
H877 C840 0.930 . S
H878 C846 0.900 1_545 S
H879 C847 0.930 . S
Li880 N897 1.990 . S
Li880 O940 1.956 . S
Li880 O941 1.970 . S
Li880 O942 1.961 . S
Li881 N905 1.990 1_455 S
Li881 O940 1.970 . S
Li881 O941 1.956 . S
Li881 O943 1.961 . S
Li882 N927 1.990 . S
Li882 O940 1.961 . S
Li882 O942 1.956 . S
Li882 O943 1.970 . S
Li883 N933 1.990 . S
Li883 O941 1.961 . S
Li883 O942 1.970 . S
Li883 O943 1.956 . S
C884 C886 1.348 . S
C884 C887 1.356 . S
C884 O940 1.325 . S
N885 C888 1.314 . S
N885 C889 1.279 . S
C886 C884 1.348 . S
C886 C888 1.353 . S
C886 H944 0.929 . S
C887 C884 1.356 . S
C887 C889 1.358 . S
C887 H945 0.930 . S
C888 N885 1.314 . S
C888 C886 1.353 . S
C888 H946 0.930 1_455 S
C889 N885 1.279 . S
C889 C887 1.358 . S
C889 H947 0.930 . S
C890 C893 1.348 . S
C890 C894 1.356 . S
C890 O941 1.325 . S
C891 N892 1.279 . S
C891 C894 1.358 . S
C891 H948 0.930 . S
N892 C891 1.279 . S
N892 C895 1.314 . S
C893 C890 1.348 . S
C893 C895 1.353 . S
C893 H949 0.929 . S
C894 C890 1.356 . S
C894 C891 1.358 . S
C894 H950 0.930 . S
C895 N892 1.314 . S
C895 C893 1.353 . S
C895 H951 0.930 . S
C896 N897 1.314 . S
C896 C901 1.353 . S
C896 H902 0.930 . S
N897 Li880 1.990 . S
N897 C896 1.314 . S
N897 C899 1.279 . S
C898 C899 1.358 . S
C898 C900 1.356 . S
C898 H952 0.930 . S
C899 N897 1.279 . S
C899 C898 1.358 . S
C899 H903 0.930 . S
C900 C898 1.356 . S
C900 C901 1.348 . S
C901 C896 1.353 . S
C901 C900 1.348 . S
C901 H953 0.929 . S
H902 C896 0.930 . S
H903 C899 0.930 . S
C904 N905 1.314 . S
C904 C906 1.353 . S
C904 H910 0.930 . S
N905 Li881 1.990 1_655 S
N905 C904 1.314 . S
N905 C908 1.279 . S
C906 C904 1.353 . S
C906 C909 1.348 . S
C906 H954 0.929 . S
C907 C908 1.358 . S
C907 C909 1.356 . S
C907 H955 0.930 . S
C908 N905 1.279 . S
C908 C907 1.358 . S
C908 H911 0.930 . S
C909 C906 1.348 . S
C909 C907 1.356 . S
H910 C904 0.930 . S
H911 C908 0.930 . S
C912 C914 1.348 . S
C912 C915 1.356 . S
C912 O942 1.325 . S
N913 C916 1.314 . S
N913 C917 1.279 . S
C914 C912 1.348 . S
C914 C916 1.353 . S
C914 H956 0.929 . S
C915 C912 1.356 . S
C915 C917 1.358 . S
C915 H957 0.930 . S
C916 N913 1.314 . S
C916 C914 1.353 . S
C916 H958 0.930 . S
C917 N913 1.279 . S
C917 C915 1.358 . S
C917 H959 0.930 . S
C918 C919 1.348 . S
C918 C920 1.356 1_455 S
C918 O943 1.325 . S
C919 C918 1.348 . S
C919 C921 1.353 1_455 S
C919 H960 0.929 . S
C920 C918 1.356 1_655 S
C920 C922 1.358 . S
C920 H961 0.930 . S
C921 C919 1.353 1_655 S
C921 N923 1.314 . S
C921 H962 0.930 . S
C922 C920 1.358 . S
C922 N923 1.279 . S
C922 H963 0.930 . S
N923 C921 1.314 . S
N923 C922 1.279 . S
C924 C926 1.353 . S
C924 N927 1.314 . S
C924 H930 0.930 . S
C925 N927 1.279 . S
C925 C928 1.358 . S
C925 H931 0.930 . S
C926 C924 1.353 . S
C926 C929 1.348 . S
C926 H964 0.929 . S
N927 Li882 1.990 . S
N927 C924 1.314 . S
N927 C925 1.279 . S
C928 C925 1.358 . S
C928 C929 1.356 . S
C928 H965 0.930 . S
C929 C926 1.348 . S
C929 C928 1.356 . S
H930 C924 0.930 . S
H931 C925 0.930 . S
C932 N933 1.314 . S
C932 C934 1.353 . S
C932 H938 0.930 . S
N933 Li883 1.990 . S
N933 C932 1.314 . S
N933 C936 1.279 . S
C934 C932 1.353 . S
C934 C937 1.348 . S
C934 H966 0.929 . S
C935 C936 1.358 . S
C935 C937 1.356 . S
C935 H967 0.930 . S
C936 N933 1.279 . S
C936 C935 1.358 . S
C936 H939 0.930 . S
C937 C934 1.348 . S
C937 C935 1.356 . S
H938 C932 0.930 . S
H939 C936 0.930 . S
O940 Li880 1.956 . S
O940 Li881 1.970 . S
O940 Li882 1.961 . S
O940 C884 1.325 . S
O941 Li880 1.970 . S
O941 Li881 1.956 . S
O941 Li883 1.961 . S
O941 C890 1.325 . S
O942 Li880 1.961 . S
O942 Li882 1.956 . S
O942 Li883 1.970 . S
O942 C912 1.325 . S
O943 Li881 1.961 . S
O943 Li882 1.970 . S
O943 Li883 1.956 . S
O943 C918 1.325 . S
H944 C886 0.929 . S
H945 C887 0.930 . S
H946 C888 0.930 1_655 S
H947 C889 0.930 . S
H948 C891 0.930 . S
H949 C893 0.929 . S
H950 C894 0.930 . S
H951 C895 0.930 . S
H952 C898 0.930 . S
H953 C901 0.929 . S
H954 C906 0.929 . S
H955 C907 0.930 . S
H956 C914 0.929 . S
H957 C915 0.930 . S
H958 C916 0.930 . S
H959 C917 0.930 . S
H960 C919 0.929 . S
H961 C920 0.930 . S
H962 C921 0.930 . S
H963 C922 0.930 . S
H964 C926 0.929 . S
H965 C928 0.930 . S
H966 C934 0.929 . S
H967 C935 0.930 . S
Li968 N985 1.990 . S
Li968 O1028 1.956 . S
Li968 O1029 1.970 . S
Li968 O1030 1.961 . S
Li969 N993 1.990 . S
Li969 O1028 1.970 . S
Li969 O1029 1.956 . S
Li969 O1031 1.961 . S
Li970 N1015 1.990 . S
Li970 O1028 1.961 . S
Li970 O1030 1.956 . S
Li970 O1031 1.970 . S
Li971 N1021 1.990 . S
Li971 O1029 1.961 . S
Li971 O1030 1.970 . S
Li971 O1031 1.956 . S
C972 C974 1.348 . S
C972 C975 1.356 . S
C972 O1028 1.325 . S
N973 C976 1.314 . S
N973 C977 1.279 . S
C974 C972 1.348 . S
C974 C976 1.353 . S
C974 H1032 0.929 . S
C975 C972 1.356 . S
C975 C977 1.358 . S
C975 H1033 0.930 . S
C976 N973 1.314 . S
C976 C974 1.353 . S
C976 H1034 0.930 . S
C977 N973 1.279 . S
C977 C975 1.358 . S
C977 H1035 0.930 . S
C978 C981 1.348 . S
C978 C982 1.356 . S
C978 O1029 1.325 . S
C979 N980 1.279 . S
C979 C982 1.358 . S
C979 H1036 0.930 . S
N980 C979 1.279 . S
N980 C983 1.314 . S
C981 C978 1.348 . S
C981 C983 1.353 . S
C981 H1037 0.929 . S
C982 C978 1.356 . S
C982 C979 1.358 . S
C982 H1038 0.930 . S
C983 N980 1.314 . S
C983 C981 1.353 . S
C983 H1039 0.930 . S
C984 N985 1.314 . S
C984 C989 1.353 . S
C984 H990 0.930 . S
N985 Li968 1.990 . S
N985 C984 1.314 . S
N985 C987 1.279 . S
C986 C987 1.358 . S
C986 C988 1.356 . S
C986 H1040 0.930 . S
C987 N985 1.279 . S
C987 C986 1.358 . S
C987 H991 0.930 . S
C988 C986 1.356 . S
C988 C989 1.348 . S
C989 C984 1.353 . S
C989 C988 1.348 . S
C989 H1041 0.929 . S
H990 C984 0.930 . S
H991 C987 0.930 . S
C992 N993 1.314 . S
C992 C994 1.353 . S
C992 H998 0.930 . S
N993 Li969 1.990 . S
N993 C992 1.314 . S
N993 C996 1.279 . S
C994 C992 1.353 . S
C994 C997 1.348 . S
C994 H1042 0.929 . S
C995 C996 1.358 . S
C995 C997 1.356 . S
C995 H1043 0.930 . S
C996 N993 1.279 . S
C996 C995 1.358 . S
C996 H999 0.930 . S
C997 C994 1.348 . S
C997 C995 1.356 . S
H998 C992 0.930 . S
H999 C996 0.930 . S
C1000 C1002 1.348 . S
C1000 C1003 1.356 . S
C1000 O1030 1.325 . S
N1001 C1004 1.314 . S
N1001 C1005 1.279 . S
C1002 C1000 1.348 . S
C1002 C1004 1.353 . S
C1002 H1044 0.929 . S
C1003 C1000 1.356 . S
C1003 C1005 1.358 . S
C1003 H1045 0.930 . S
C1004 N1001 1.314 . S
C1004 C1002 1.353 . S
C1004 H1046 0.930 . S
C1005 N1001 1.279 . S
C1005 C1003 1.358 . S
C1005 H1047 0.930 . S
C1006 C1007 1.348 . S
C1006 C1008 1.356 . S
C1006 O1031 1.325 . S
C1007 C1006 1.348 . S
C1007 C1009 1.353 . S
C1007 H1048 0.929 . S
C1008 C1006 1.356 . S
C1008 C1010 1.358 . S
C1008 H1049 0.930 . S
C1009 C1007 1.353 . S
C1009 N1011 1.314 . S
C1009 H1050 0.930 . S
C1010 C1008 1.358 . S
C1010 N1011 1.279 . S
C1010 H1051 0.930 . S
N1011 C1009 1.314 . S
N1011 C1010 1.279 . S
C1012 C1014 1.353 . S
C1012 N1015 1.314 . S
C1012 H1018 0.930 . S
C1013 N1015 1.279 . S
C1013 C1016 1.358 . S
C1013 H1019 0.930 . S
C1014 C1012 1.353 . S
C1014 C1017 1.348 . S
C1014 H1052 0.929 . S
N1015 Li970 1.990 . S
N1015 C1012 1.314 . S
N1015 C1013 1.279 . S
C1016 C1013 1.358 . S
C1016 C1017 1.356 . S
C1016 H1053 0.930 . S
C1017 C1014 1.348 . S
C1017 C1016 1.356 . S
H1018 C1012 0.930 . S
H1019 C1013 0.930 . S
C1020 N1021 1.314 . S
C1020 C1022 1.353 . S
C1020 H1026 0.930 . S
N1021 Li971 1.990 . S
N1021 C1020 1.314 . S
N1021 C1024 1.279 . S
C1022 C1020 1.353 . S
C1022 C1025 1.348 . S
C1022 H1054 0.929 . S
C1023 C1024 1.358 . S
C1023 C1025 1.356 . S
C1023 H1055 0.930 . S
C1024 N1021 1.279 . S
C1024 C1023 1.358 . S
C1024 H1027 0.930 . S
C1025 C1022 1.348 . S
C1025 C1023 1.356 . S
H1026 C1020 0.930 . S
H1027 C1024 0.930 . S
O1028 Li968 1.956 . S
O1028 Li969 1.970 . S
O1028 Li970 1.961 . S
O1028 C972 1.325 . S
O1029 Li968 1.970 . S
O1029 Li969 1.956 . S
O1029 Li971 1.961 . S
O1029 C978 1.325 . S
O1030 Li968 1.961 . S
O1030 Li970 1.956 . S
O1030 Li971 1.970 . S
O1030 C1000 1.325 . S
O1031 Li969 1.961 . S
O1031 Li970 1.970 . S
O1031 Li971 1.956 . S
O1031 C1006 1.325 . S
H1032 C974 0.929 . S
H1033 C975 0.930 . S
H1034 C976 0.930 . S
H1035 C977 0.930 . S
H1036 C979 0.930 . S
H1037 C981 0.929 . S
H1038 C982 0.930 . S
H1039 C983 0.930 . S
H1040 C986 0.930 . S
H1041 C989 0.929 . S
H1042 C994 0.929 . S
H1043 C995 0.930 . S
H1044 C1002 0.929 . S
H1045 C1003 0.930 . S
H1046 C1004 0.930 . S
H1047 C1005 0.930 . S
H1048 C1007 0.929 . S
H1049 C1008 0.930 . S
H1050 C1009 0.930 . S
H1051 C1010 0.930 . S
H1052 C1014 0.929 . S
H1053 C1016 0.930 . S
H1054 C1022 0.929 . S
H1055 C1023 0.930 . S
Li1056 N1073 1.990 1_545 S
Li1056 O1116 1.956 . S
Li1056 O1117 1.970 . S
Li1056 O1118 1.961 . S
Li1057 N1081 1.990 . S
Li1057 O1116 1.970 . S
Li1057 O1117 1.956 . S
Li1057 O1119 1.961 . S
Li1058 N1103 1.990 . S
Li1058 O1116 1.961 . S
Li1058 O1118 1.956 . S
Li1058 O1119 1.970 . S
Li1059 N1109 1.990 . S
Li1059 O1117 1.961 . S
Li1059 O1118 1.970 . S
Li1059 O1119 1.956 . S
C1060 C1062 1.348 1_545 S
C1060 C1063 1.356 1_545 S
C1060 O1116 1.325 . S
N1061 C1064 1.314 . S
N1061 C1065 1.279 . S
C1062 C1060 1.348 1_565 S
C1062 C1064 1.353 . S
C1062 H1120 0.929 . S
C1063 C1060 1.356 1_565 S
C1063 C1065 1.358 . S
C1063 H1121 0.930 1_565 S
C1064 N1061 1.314 . S
C1064 C1062 1.353 . S
C1064 H1122 0.930 . S
C1065 N1061 1.279 . S
C1065 C1063 1.358 . S
C1065 H1123 0.930 . S
C1066 C1069 1.348 1_545 S
C1066 C1070 1.356 . S
C1066 O1117 1.325 . S
C1067 N1068 1.279 . S
C1067 C1070 1.358 . S
C1067 H1124 0.930 . S
N1068 C1067 1.279 . S
N1068 C1071 1.314 1_545 S
C1069 C1066 1.348 1_565 S
C1069 C1071 1.353 . S
C1069 H1125 0.929 . S
C1070 C1066 1.356 . S
C1070 C1067 1.358 . S
C1070 H1126 0.930 . S
C1071 N1068 1.314 1_565 S
C1071 C1069 1.353 . S
C1071 H1127 0.930 . S
C1072 N1073 1.314 . S
C1072 C1077 1.353 . S
C1072 H1078 0.930 . S
N1073 Li1056 1.990 1_565 S
N1073 C1072 1.314 . S
N1073 C1075 1.279 . S
C1074 C1075 1.358 . S
C1074 C1076 1.356 . S
C1074 H1128 0.930 . S
C1075 N1073 1.279 . S
C1075 C1074 1.358 . S
C1075 H1079 0.930 . S
C1076 C1074 1.356 . S
C1076 C1077 1.348 . S
C1077 C1072 1.353 . S
C1077 C1076 1.348 . S
C1077 H1129 0.929 . S
H1078 C1072 0.930 . S
H1079 C1075 0.930 . S
C1080 N1081 1.314 . S
C1080 C1082 1.353 . S
C1080 H1086 0.930 . S
N1081 Li1057 1.990 . S
N1081 C1080 1.314 . S
N1081 C1084 1.279 . S
C1082 C1080 1.353 . S
C1082 C1085 1.348 . S
C1082 H1130 0.929 . S
C1083 C1084 1.358 . S
C1083 C1085 1.356 . S
C1083 H1131 0.930 . S
C1084 N1081 1.279 . S
C1084 C1083 1.358 . S
C1084 H1087 0.930 . S
C1085 C1082 1.348 . S
C1085 C1083 1.356 . S
H1086 C1080 0.930 . S
H1087 C1084 0.930 . S
C1088 C1090 1.348 . S
C1088 C1091 1.356 . S
C1088 O1118 1.325 . S
N1089 C1092 1.314 . S
N1089 C1093 1.279 . S
C1090 C1088 1.348 . S
C1090 C1092 1.353 . S
C1090 H1132 0.929 . S
C1091 C1088 1.356 . S
C1091 C1093 1.358 . S
C1091 H1133 0.930 . S
C1092 N1089 1.314 . S
C1092 C1090 1.353 . S
C1092 H1134 0.930 . S
C1093 N1089 1.279 . S
C1093 C1091 1.358 . S
C1093 H1135 0.930 . S
C1094 C1095 1.348 . S
C1094 C1096 1.356 . S
C1094 O1119 1.325 . S
C1095 C1094 1.348 . S
C1095 C1097 1.353 . S
C1095 H1136 0.929 . S
C1096 C1094 1.356 . S
C1096 C1098 1.358 . S
C1096 H1137 0.930 . S
C1097 C1095 1.353 . S
C1097 N1099 1.314 . S
C1097 H1138 0.930 . S
C1098 C1096 1.358 . S
C1098 N1099 1.279 . S
C1098 H1139 0.930 . S
N1099 C1097 1.314 . S
N1099 C1098 1.279 . S
C1100 C1102 1.353 . S
C1100 N1103 1.314 . S
C1100 H1106 0.930 . S
C1101 N1103 1.279 . S
C1101 C1104 1.358 . S
C1101 H1107 0.930 . S
C1102 C1100 1.353 . S
C1102 C1105 1.348 . S
C1102 H1140 0.929 . S
N1103 Li1058 1.990 . S
N1103 C1100 1.314 . S
N1103 C1101 1.279 . S
C1104 C1101 1.358 . S
C1104 C1105 1.356 . S
C1104 H1141 0.930 . S
C1105 C1102 1.348 . S
C1105 C1104 1.356 . S
H1106 C1100 0.930 . S
H1107 C1101 0.930 . S
C1108 N1109 1.314 . S
C1108 C1110 1.353 . S
C1108 H1114 0.930 . S
N1109 Li1059 1.990 . S
N1109 C1108 1.314 . S
N1109 C1112 1.279 . S
C1110 C1108 1.353 . S
C1110 C1113 1.348 . S
C1110 H1142 0.929 . S
C1111 C1112 1.358 . S
C1111 C1113 1.356 . S
C1111 H1143 0.930 . S
C1112 N1109 1.279 . S
C1112 C1111 1.358 . S
C1112 H1115 0.930 . S
C1113 C1110 1.348 . S
C1113 C1111 1.356 . S
H1114 C1108 0.930 . S
H1115 C1112 0.930 . S
O1116 Li1056 1.956 . S
O1116 Li1057 1.970 . S
O1116 Li1058 1.961 . S
O1116 C1060 1.325 . S
O1117 Li1056 1.970 . S
O1117 Li1057 1.956 . S
O1117 Li1059 1.961 . S
O1117 C1066 1.325 . S
O1118 Li1056 1.961 . S
O1118 Li1058 1.956 . S
O1118 Li1059 1.970 . S
O1118 C1088 1.325 . S
O1119 Li1057 1.961 . S
O1119 Li1058 1.970 . S
O1119 Li1059 1.956 . S
O1119 C1094 1.325 . S
H1120 C1062 0.929 . S
H1121 C1063 0.930 1_545 S
H1122 C1064 0.930 . S
H1123 C1065 0.930 . S
H1124 C1067 0.930 . S
H1125 C1069 0.929 . S
H1126 C1070 0.930 . S
H1127 C1071 0.930 . S
H1128 C1074 0.930 . S
H1129 C1077 0.929 . S
H1130 C1082 0.929 . S
H1131 C1083 0.930 . S
H1132 C1090 0.929 . S
H1133 C1091 0.930 . S
H1134 C1092 0.930 . S
H1135 C1093 0.930 . S
H1136 C1095 0.929 . S
H1137 C1096 0.930 . S
H1138 C1097 0.930 . S
H1139 C1098 0.930 . S
H1140 C1102 0.929 . S
H1141 C1104 0.930 . S
H1142 C1110 0.929 . S
H1143 C1111 0.930 . S
Li1144 N1161 1.990 1_655 S
Li1144 O1204 1.956 . S
Li1144 O1205 1.970 . S
Li1144 O1206 1.961 . S
Li1145 N1169 1.990 . S
Li1145 O1204 1.970 . S
Li1145 O1205 1.956 . S
Li1145 O1207 1.961 . S
Li1146 N1191 1.990 . S
Li1146 O1204 1.961 . S
Li1146 O1206 1.956 . S
Li1146 O1207 1.970 . S
Li1147 N1197 1.990 . S
Li1147 O1205 1.961 . S
Li1147 O1206 1.970 . S
Li1147 O1207 1.956 . S
C1148 C1150 1.348 1_655 S
C1148 C1151 1.347 1_655 S
C1148 O1204 1.332 . S
N1149 C1152 1.314 . S
N1149 C1153 1.279 . S
C1150 C1148 1.348 1_455 S
C1150 C1152 1.353 . S
C1150 H1208 0.929 . S
C1151 C1148 1.347 1_455 S
C1151 C1153 1.358 . S
C1151 H1209 0.930 . S
C1152 N1149 1.314 . S
C1152 C1150 1.353 . S
C1152 H1210 0.930 . S
C1153 N1149 1.279 . S
C1153 C1151 1.358 . S
C1153 H1211 0.930 . S
C1154 C1157 1.390 . S
C1154 C1158 1.356 . S
C1154 O1205 1.325 . S
C1155 N1156 1.279 . S
C1155 C1158 1.358 . S
C1155 H1212 0.930 . S
N1156 C1155 1.279 . S
N1156 C1159 1.314 1_655 S
C1157 C1154 1.390 . S
C1157 C1159 1.361 1_655 S
C1157 H1213 0.882 1_655 S
C1158 C1154 1.356 . S
C1158 C1155 1.358 . S
C1158 H1214 0.930 . S
C1159 N1156 1.314 1_455 S
C1159 C1157 1.361 1_455 S
C1159 H1215 0.930 . S
C1160 N1161 1.314 . S
C1160 C1165 1.353 . S
C1160 H1166 0.930 . S
N1161 Li1144 1.990 1_455 S
N1161 C1160 1.314 . S
N1161 C1163 1.279 . S
C1162 C1163 1.358 . S
C1162 C1164 1.356 . S
C1162 H1216 0.930 . S
C1163 N1161 1.279 . S
C1163 C1162 1.358 . S
C1163 H1167 0.930 . S
C1164 C1162 1.356 . S
C1164 C1165 1.348 . S
C1165 C1160 1.353 . S
C1165 C1164 1.348 . S
C1165 H1217 0.929 . S
H1166 C1160 0.930 . S
H1167 C1163 0.930 . S
C1168 N1169 1.314 . S
C1168 C1170 1.353 . S
C1168 H1174 0.930 . S
N1169 Li1145 1.990 . S
N1169 C1168 1.314 . S
N1169 C1172 1.279 . S
C1170 C1168 1.353 . S
C1170 C1173 1.348 . S
C1170 H1218 0.929 . S
C1171 C1172 1.358 . S
C1171 C1173 1.356 . S
C1171 H1219 0.930 . S
C1172 N1169 1.279 . S
C1172 C1171 1.358 . S
C1172 H1175 0.930 . S
C1173 C1170 1.348 . S
C1173 C1171 1.356 . S
H1174 C1168 0.930 . S
H1175 C1172 0.930 . S
C1176 C1178 1.348 . S
C1176 C1179 1.356 . S
C1176 O1206 1.325 . S
N1177 C1180 1.314 . S
N1177 C1181 1.279 . S
C1178 C1176 1.348 . S
C1178 C1180 1.353 . S
C1178 H1220 0.929 . S
C1179 C1176 1.356 . S
C1179 C1181 1.358 . S
C1179 H1221 0.930 . S
C1180 N1177 1.314 . S
C1180 C1178 1.353 . S
C1180 H1222 0.930 . S
C1181 N1177 1.279 . S
C1181 C1179 1.358 . S
C1181 H1223 0.930 . S
C1182 C1183 1.348 . S
C1182 C1184 1.356 . S
C1182 O1207 1.325 . S
C1183 C1182 1.348 . S
C1183 C1185 1.353 . S
C1183 H1224 0.929 . S
C1184 C1182 1.356 . S
C1184 C1186 1.358 . S
C1184 H1225 0.930 . S
C1185 C1183 1.353 . S
C1185 N1187 1.314 . S
C1185 H1226 0.930 . S
C1186 C1184 1.358 . S
C1186 N1187 1.279 . S
C1186 H1227 0.930 . S
N1187 C1185 1.314 . S
N1187 C1186 1.279 . S
C1188 C1190 1.353 . S
C1188 N1191 1.314 . S
C1188 H1194 0.930 . S
C1189 N1191 1.279 . S
C1189 C1192 1.358 . S
C1189 H1195 0.930 . S
C1190 C1188 1.353 . S
C1190 C1193 1.348 . S
C1190 H1228 0.929 . S
N1191 Li1146 1.990 . S
N1191 C1188 1.314 . S
N1191 C1189 1.279 . S
C1192 C1189 1.358 . S
C1192 C1193 1.356 . S
C1192 H1229 0.930 . S
C1193 C1190 1.348 . S
C1193 C1192 1.356 . S
H1194 C1188 0.930 . S
H1195 C1189 0.930 . S
C1196 N1197 1.314 . S
C1196 C1198 1.353 . S
C1196 H1202 0.930 . S
N1197 Li1147 1.990 . S
N1197 C1196 1.314 . S
N1197 C1200 1.279 . S
C1198 C1196 1.353 . S
C1198 C1201 1.348 . S
C1198 H1230 0.929 . S
C1199 C1200 1.358 . S
C1199 C1201 1.356 . S
C1199 H1231 0.930 . S
C1200 N1197 1.279 . S
C1200 C1199 1.358 . S
C1200 H1203 0.930 . S
C1201 C1198 1.348 . S
C1201 C1199 1.356 . S
H1202 C1196 0.930 . S
H1203 C1200 0.930 . S
O1204 Li1144 1.956 . S
O1204 Li1145 1.970 . S
O1204 Li1146 1.961 . S
O1204 C1148 1.332 . S
O1205 Li1144 1.970 . S
O1205 Li1145 1.956 . S
O1205 Li1147 1.961 . S
O1205 C1154 1.325 . S
O1206 Li1144 1.961 . S
O1206 Li1146 1.956 . S
O1206 Li1147 1.970 . S
O1206 C1176 1.325 . S
O1207 Li1145 1.961 . S
O1207 Li1146 1.970 . S
O1207 Li1147 1.956 . S
O1207 C1182 1.325 . S
H1208 C1150 0.929 . S
H1209 C1151 0.930 . S
H1210 C1152 0.930 . S
H1211 C1153 0.930 . S
H1212 C1155 0.930 . S
H1213 C1157 0.882 1_455 S
H1214 C1158 0.930 . S
H1215 C1159 0.930 . S
H1216 C1162 0.930 . S
H1217 C1165 0.929 . S
H1218 C1170 0.929 . S
H1219 C1171 0.930 . S
H1220 C1178 0.929 . S
H1221 C1179 0.930 . S
H1222 C1180 0.930 . S
H1223 C1181 0.930 . S
H1224 C1183 0.929 . S
H1225 C1184 0.930 . S
H1226 C1185 0.930 . S
H1227 C1186 0.930 . S
H1228 C1190 0.929 . S
H1229 C1192 0.930 . S
H1230 C1198 0.929 . S
H1231 C1199 0.930 . S
Li1232 N1249 1.990 . S
Li1232 O1292 1.956 . S
Li1232 O1293 1.970 . S
Li1232 O1294 1.961 . S
Li1233 N1257 1.990 . S
Li1233 O1292 1.970 . S
Li1233 O1293 1.956 . S
Li1233 O1295 1.961 . S
Li1234 N1279 1.990 . S
Li1234 O1292 1.961 . S
Li1234 O1294 1.956 . S
Li1234 O1295 1.970 . S
Li1235 N1285 1.990 . S
Li1235 O1293 1.961 . S
Li1235 O1294 1.970 . S
Li1235 O1295 1.956 . S
C1236 C1238 1.348 . S
C1236 C1239 1.356 . S
C1236 O1292 1.325 . S
N1237 C1240 1.314 . S
N1237 C1241 1.279 . S
C1238 C1236 1.348 . S
C1238 C1240 1.353 . S
C1238 H1296 0.929 . S
C1239 C1236 1.356 . S
C1239 C1241 1.358 . S
C1239 H1297 0.930 . S
C1240 N1237 1.314 . S
C1240 C1238 1.353 . S
C1240 H1298 0.930 . S
C1241 N1237 1.279 . S
C1241 C1239 1.358 . S
C1241 H1299 0.930 . S
C1242 C1245 1.348 . S
C1242 C1246 1.356 . S
C1242 O1293 1.325 . S
C1243 N1244 1.279 . S
C1243 C1246 1.358 . S
C1243 H1300 0.930 . S
N1244 C1243 1.279 . S
N1244 C1247 1.314 . S
C1245 C1242 1.348 . S
C1245 C1247 1.353 . S
C1245 H1301 0.929 . S
C1246 C1242 1.356 . S
C1246 C1243 1.358 . S
C1246 H1302 0.930 . S
C1247 N1244 1.314 . S
C1247 C1245 1.353 . S
C1247 H1303 0.930 . S
C1248 N1249 1.314 . S
C1248 C1253 1.353 . S
C1248 H1254 0.930 . S
N1249 Li1232 1.990 . S
N1249 C1248 1.314 . S
N1249 C1251 1.279 . S
C1250 C1251 1.358 . S
C1250 C1252 1.356 . S
C1250 H1304 0.930 . S
C1251 N1249 1.279 . S
C1251 C1250 1.358 . S
C1251 H1255 0.930 . S
C1252 C1250 1.356 . S
C1252 C1253 1.348 . S
C1253 C1248 1.353 . S
C1253 C1252 1.348 . S
C1253 H1305 0.929 . S
H1254 C1248 0.930 . S
H1255 C1251 0.930 . S
C1256 N1257 1.314 . S
C1256 C1258 1.353 . S
C1256 H1262 0.930 . S
N1257 Li1233 1.990 . S
N1257 C1256 1.314 . S
N1257 C1260 1.279 . S
C1258 C1256 1.353 . S
C1258 C1261 1.348 . S
C1258 H1306 0.929 . S
C1259 C1260 1.358 . S
C1259 C1261 1.356 . S
C1259 H1307 0.930 . S
C1260 N1257 1.279 . S
C1260 C1259 1.358 . S
C1260 H1263 0.930 . S
C1261 C1258 1.348 . S
C1261 C1259 1.356 . S
H1262 C1256 0.930 . S
H1263 C1260 0.930 . S
C1264 C1266 1.348 . S
C1264 C1267 1.356 . S
C1264 O1294 1.325 . S
N1265 C1268 1.314 . S
N1265 C1269 1.279 . S
C1266 C1264 1.348 . S
C1266 C1268 1.353 . S
C1266 H1308 0.929 . S
C1267 C1264 1.356 . S
C1267 C1269 1.358 . S
C1267 H1309 0.930 . S
C1268 N1265 1.314 . S
C1268 C1266 1.353 . S
C1268 H1310 0.930 . S
C1269 N1265 1.279 . S
C1269 C1267 1.358 . S
C1269 H1311 0.930 . S
C1270 C1271 1.348 . S
C1270 C1272 1.356 . S
C1270 O1295 1.325 . S
C1271 C1270 1.348 . S
C1271 C1273 1.353 . S
C1271 H1312 0.929 . S
C1272 C1270 1.356 . S
C1272 C1274 1.358 . S
C1272 H1313 0.930 . S
C1273 C1271 1.353 . S
C1273 N1275 1.314 . S
C1273 H1314 0.930 . S
C1274 C1272 1.358 . S
C1274 N1275 1.279 . S
C1274 H1315 0.930 . S
N1275 C1273 1.314 . S
N1275 C1274 1.279 . S
C1276 C1278 1.353 . S
C1276 N1279 1.314 . S
C1276 H1282 0.930 . S
C1277 N1279 1.279 . S
C1277 C1280 1.358 . S
C1277 H1283 0.930 . S
C1278 C1276 1.353 . S
C1278 C1281 1.348 . S
C1278 H1316 0.929 . S
N1279 Li1234 1.990 . S
N1279 C1276 1.314 . S
N1279 C1277 1.279 . S
C1280 C1277 1.358 . S
C1280 C1281 1.356 . S
C1280 H1317 0.930 . S
C1281 C1278 1.348 . S
C1281 C1280 1.356 . S
H1282 C1276 0.930 . S
H1283 C1277 0.930 . S
C1284 N1285 1.314 . S
C1284 C1286 1.353 . S
C1284 H1290 0.930 . S
N1285 Li1235 1.990 . S
N1285 C1284 1.314 . S
N1285 C1288 1.279 . S
C1286 C1284 1.353 . S
C1286 C1289 1.348 . S
C1286 H1318 0.929 . S
C1287 C1288 1.358 . S
C1287 C1289 1.356 . S
C1287 H1319 0.930 . S
C1288 N1285 1.279 . S
C1288 C1287 1.358 . S
C1288 H1291 0.930 . S
C1289 C1286 1.348 . S
C1289 C1287 1.356 . S
H1290 C1284 0.930 . S
H1291 C1288 0.930 . S
O1292 Li1232 1.956 . S
O1292 Li1233 1.970 . S
O1292 Li1234 1.961 . S
O1292 C1236 1.325 . S
O1293 Li1232 1.970 . S
O1293 Li1233 1.956 . S
O1293 Li1235 1.961 . S
O1293 C1242 1.325 . S
O1294 Li1232 1.961 . S
O1294 Li1234 1.956 . S
O1294 Li1235 1.970 . S
O1294 C1264 1.325 . S
O1295 Li1233 1.961 . S
O1295 Li1234 1.970 . S
O1295 Li1235 1.956 . S
O1295 C1270 1.325 . S
H1296 C1238 0.929 . S
H1297 C1239 0.930 . S
H1298 C1240 0.930 . S
H1299 C1241 0.930 . S
H1300 C1243 0.930 . S
H1301 C1245 0.929 . S
H1302 C1246 0.930 . S
H1303 C1247 0.930 . S
H1304 C1250 0.930 . S
H1305 C1253 0.929 . S
H1306 C1258 0.929 . S
H1307 C1259 0.930 . S
H1308 C1266 0.929 . S
H1309 C1267 0.930 . S
H1310 C1268 0.930 . S
H1311 C1269 0.930 . S
H1312 C1271 0.929 . S
H1313 C1272 0.930 . S
H1314 C1273 0.930 . S
H1315 C1274 0.930 . S
H1316 C1278 0.929 . S
H1317 C1280 0.930 . S
H1318 C1286 0.929 . S
H1319 C1287 0.930 . S
Li1320 N1337 1.990 . S
Li1320 O1380 1.956 . S
Li1320 O1381 1.970 . S
Li1320 O1382 1.961 . S
Li1321 N1345 1.990 . S
Li1321 O1380 1.970 . S
Li1321 O1381 1.956 . S
Li1321 O1383 1.961 . S
Li1322 N1367 1.990 . S
Li1322 O1380 1.961 . S
Li1322 O1382 1.956 . S
Li1322 O1383 1.970 . S
Li1323 N1373 1.990 . S
Li1323 O1381 1.961 . S
Li1323 O1382 1.970 . S
Li1323 O1383 1.956 . S
C1324 C1326 1.348 . S
C1324 C1327 1.356 . S
C1324 O1380 1.325 . S
N1325 C1328 1.314 . S
N1325 C1329 1.279 . S
C1326 C1324 1.348 . S
C1326 C1328 1.353 . S
C1326 H1384 0.929 . S
C1327 C1324 1.356 . S
C1327 C1329 1.358 . S
C1327 H1385 0.930 . S
C1328 N1325 1.314 . S
C1328 C1326 1.353 . S
C1328 H1386 0.930 . S
C1329 N1325 1.279 . S
C1329 C1327 1.358 . S
C1329 H1387 0.930 . S
C1330 C1333 1.348 . S
C1330 C1334 1.356 . S
C1330 O1381 1.325 . S
C1331 N1332 1.279 . S
C1331 C1334 1.358 . S
C1331 H1388 0.930 . S
N1332 C1331 1.279 . S
N1332 C1335 1.314 . S
C1333 C1330 1.348 . S
C1333 C1335 1.353 . S
C1333 H1389 0.929 . S
C1334 C1330 1.356 . S
C1334 C1331 1.358 . S
C1334 H1390 0.930 . S
C1335 N1332 1.314 . S
C1335 C1333 1.353 . S
C1335 H1391 0.930 . S
C1336 N1337 1.314 . S
C1336 C1341 1.353 . S
C1336 H1342 0.930 . S
N1337 Li1320 1.990 . S
N1337 C1336 1.314 . S
N1337 C1339 1.279 . S
C1338 C1339 1.358 . S
C1338 C1340 1.356 . S
C1338 H1392 0.930 . S
C1339 N1337 1.279 . S
C1339 C1338 1.358 . S
C1339 H1343 0.930 . S
C1340 C1338 1.356 . S
C1340 C1341 1.348 . S
C1341 C1336 1.353 . S
C1341 C1340 1.348 . S
C1341 H1393 0.929 . S
H1342 C1336 0.930 . S
H1343 C1339 0.930 . S
C1344 N1345 1.314 . S
C1344 C1346 1.353 . S
C1344 H1350 0.930 . S
N1345 Li1321 1.990 . S
N1345 C1344 1.314 . S
N1345 C1348 1.279 . S
C1346 C1344 1.353 . S
C1346 C1349 1.348 . S
C1346 H1394 0.929 . S
C1347 C1348 1.358 . S
C1347 C1349 1.356 . S
C1347 H1395 0.930 . S
C1348 N1345 1.279 . S
C1348 C1347 1.358 . S
C1348 H1351 0.930 . S
C1349 C1346 1.348 . S
C1349 C1347 1.356 . S
H1350 C1344 0.930 . S
H1351 C1348 0.930 . S
C1352 C1354 1.348 . S
C1352 C1355 1.356 . S
C1352 O1382 1.325 . S
N1353 C1356 1.314 . S
N1353 C1357 1.279 . S
C1354 C1352 1.348 . S
C1354 C1356 1.353 . S
C1354 H1396 0.929 . S
C1355 C1352 1.356 . S
C1355 C1357 1.358 . S
C1355 H1397 0.930 . S
C1356 N1353 1.314 . S
C1356 C1354 1.353 . S
C1356 H1398 0.930 . S
C1357 N1353 1.279 . S
C1357 C1355 1.358 . S
C1357 H1399 0.930 . S
C1358 C1359 1.348 . S
C1358 C1360 1.356 . S
C1358 O1383 1.325 . S
C1359 C1358 1.348 . S
C1359 C1361 1.353 . S
C1359 H1400 0.929 . S
C1360 C1358 1.356 . S
C1360 C1362 1.358 . S
C1360 H1401 0.930 . S
C1361 C1359 1.353 . S
C1361 N1363 1.314 . S
C1361 H1402 0.930 . S
C1362 C1360 1.358 . S
C1362 N1363 1.279 . S
C1362 H1403 0.930 . S
N1363 C1361 1.314 . S
N1363 C1362 1.279 . S
C1364 C1366 1.353 . S
C1364 N1367 1.314 . S
C1364 H1370 0.930 . S
C1365 N1367 1.279 . S
C1365 C1368 1.358 . S
C1365 H1371 0.930 . S
C1366 C1364 1.353 . S
C1366 C1369 1.348 . S
C1366 H1404 0.929 . S
N1367 Li1322 1.990 . S
N1367 C1364 1.314 . S
N1367 C1365 1.279 . S
C1368 C1365 1.358 . S
C1368 C1369 1.356 . S
C1368 H1405 0.930 . S
C1369 C1366 1.348 . S
C1369 C1368 1.356 . S
H1370 C1364 0.930 . S
H1371 C1365 0.930 . S
C1372 N1373 1.314 . S
C1372 C1374 1.353 . S
C1372 H1378 0.930 . S
N1373 Li1323 1.990 . S
N1373 C1372 1.314 . S
N1373 C1376 1.279 . S
C1374 C1372 1.353 . S
C1374 C1377 1.348 . S
C1374 H1406 0.929 . S
C1375 C1376 1.358 . S
C1375 C1377 1.356 . S
C1375 H1407 0.930 . S
C1376 N1373 1.279 . S
C1376 C1375 1.358 . S
C1376 H1379 0.930 . S
C1377 C1374 1.348 . S
C1377 C1375 1.356 . S
H1378 C1372 0.930 . S
H1379 C1376 0.930 . S
O1380 Li1320 1.956 . S
O1380 Li1321 1.970 . S
O1380 Li1322 1.961 . S
O1380 C1324 1.325 . S
O1381 Li1320 1.970 . S
O1381 Li1321 1.956 . S
O1381 Li1323 1.961 . S
O1381 C1330 1.325 . S
O1382 Li1320 1.961 . S
O1382 Li1322 1.956 . S
O1382 Li1323 1.970 . S
O1382 C1352 1.325 . S
O1383 Li1321 1.961 . S
O1383 Li1322 1.970 . S
O1383 Li1323 1.956 . S
O1383 C1358 1.325 . S
H1384 C1326 0.929 . S
H1385 C1327 0.930 . S
H1386 C1328 0.930 . S
H1387 C1329 0.930 . S
H1388 C1331 0.930 . S
H1389 C1333 0.929 . S
H1390 C1334 0.930 . S
H1391 C1335 0.930 . S
H1392 C1338 0.930 . S
H1393 C1341 0.929 . S
H1394 C1346 0.929 . S
H1395 C1347 0.930 . S
H1396 C1354 0.929 . S
H1397 C1355 0.930 . S
H1398 C1356 0.930 . S
H1399 C1357 0.930 . S
H1400 C1359 0.929 . S
H1401 C1360 0.930 . S
H1402 C1361 0.930 . S
H1403 C1362 0.930 . S
H1404 C1366 0.929 . S
H1405 C1368 0.930 . S
H1406 C1374 0.929 . S
H1407 C1375 0.930 . S
Li1408 N1425 1.990 . S
Li1408 O1468 1.956 . S
Li1408 O1469 1.970 . S
Li1408 O1470 1.961 . S
Li1409 N1433 1.990 . S
Li1409 O1468 1.970 . S
Li1409 O1469 1.956 . S
Li1409 O1471 1.961 . S
Li1410 N1455 1.990 . S
Li1410 O1468 1.961 . S
Li1410 O1470 1.956 . S
Li1410 O1471 1.970 . S
Li1411 N1461 1.990 1_545 S
Li1411 O1469 1.961 . S
Li1411 O1470 1.970 . S
Li1411 O1471 1.956 . S
C1412 C1414 1.348 . S
C1412 C1415 1.356 . S
C1412 O1468 1.325 . S
N1413 C1416 1.314 . S
N1413 C1417 1.279 . S
C1414 C1412 1.348 . S
C1414 C1416 1.353 . S
C1414 H1472 0.929 . S
C1415 C1412 1.356 . S
C1415 C1417 1.358 . S
C1415 H1473 0.930 . S
C1416 N1413 1.314 . S
C1416 C1414 1.353 . S
C1416 H1474 0.930 . S
C1417 N1413 1.279 . S
C1417 C1415 1.358 . S
C1417 H1475 0.930 . S
C1418 C1421 1.348 . S
C1418 C1422 1.356 1_545 S
C1418 O1469 1.325 . S
C1419 N1420 1.279 . S
C1419 C1422 1.358 . S
C1419 H1476 0.930 . S
N1420 C1419 1.279 . S
N1420 C1423 1.314 . S
C1421 C1418 1.348 . S
C1421 C1423 1.353 1_545 S
C1421 H1477 0.929 . S
C1422 C1418 1.356 1_565 S
C1422 C1419 1.358 . S
C1422 H1478 0.930 . S
C1423 N1420 1.314 . S
C1423 C1421 1.353 1_565 S
C1423 H1479 0.930 . S
C1424 N1425 1.314 . S
C1424 C1429 1.353 . S
C1424 H1430 0.930 . S
N1425 Li1408 1.990 . S
N1425 C1424 1.314 . S
N1425 C1427 1.279 . S
C1426 C1427 1.358 . S
C1426 C1428 1.356 . S
C1426 H1480 0.930 . S
C1427 N1425 1.279 . S
C1427 C1426 1.358 . S
C1427 H1431 0.930 . S
C1428 C1426 1.356 . S
C1428 C1429 1.348 . S
C1429 C1424 1.353 . S
C1429 C1428 1.348 . S
C1429 H1481 0.929 . S
H1430 C1424 0.930 . S
H1431 C1427 0.930 . S
C1432 N1433 1.314 . S
C1432 C1434 1.353 . S
C1432 H1438 0.930 . S
N1433 Li1409 1.990 . S
N1433 C1432 1.314 . S
N1433 C1436 1.279 . S
C1434 C1432 1.353 . S
C1434 C1437 1.348 . S
C1434 H1482 0.929 . S
C1435 C1436 1.358 . S
C1435 C1437 1.356 . S
C1435 H1483 0.930 . S
C1436 N1433 1.279 . S
C1436 C1435 1.358 . S
C1436 H1439 0.930 . S
C1437 C1434 1.348 . S
C1437 C1435 1.356 . S
H1438 C1432 0.930 . S
H1439 C1436 0.930 . S
C1440 C1442 1.348 . S
C1440 C1443 1.356 . S
C1440 O1470 1.325 . S
N1441 C1444 1.312 1_545 S
N1441 C1445 1.279 . S
C1442 C1440 1.348 . S
C1442 C1444 1.353 1_545 S
C1442 H1484 0.929 1_545 S
C1443 C1440 1.356 . S
C1443 C1445 1.358 . S
C1443 H1485 0.930 . S
C1444 N1441 1.312 1_565 S
C1444 C1442 1.353 1_565 S
C1444 H1486 0.931 . S
C1445 N1441 1.279 . S
C1445 C1443 1.358 . S
C1445 H1487 0.930 . S
C1446 C1447 1.348 . S
C1446 C1448 1.356 . S
C1446 O1471 1.325 . S
C1447 C1446 1.348 . S
C1447 C1449 1.353 . S
C1447 H1488 0.929 . S
C1448 C1446 1.356 . S
C1448 C1450 1.358 . S
C1448 H1489 0.930 . S
C1449 C1447 1.353 . S
C1449 N1451 1.314 . S
C1449 H1490 0.930 . S
C1450 C1448 1.358 . S
C1450 N1451 1.279 . S
C1450 H1491 0.930 . S
N1451 C1449 1.314 . S
N1451 C1450 1.279 . S
C1452 C1454 1.353 . S
C1452 N1455 1.314 . S
C1452 H1458 0.930 . S
C1453 N1455 1.279 . S
C1453 C1456 1.358 . S
C1453 H1459 0.930 . S
C1454 C1452 1.353 . S
C1454 C1457 1.348 . S
C1454 H1492 0.929 . S
N1455 Li1410 1.990 . S
N1455 C1452 1.314 . S
N1455 C1453 1.279 . S
C1456 C1453 1.358 . S
C1456 C1457 1.356 . S
C1456 H1493 0.930 . S
C1457 C1454 1.348 . S
C1457 C1456 1.356 . S
H1458 C1452 0.930 . S
H1459 C1453 0.930 . S
C1460 N1461 1.314 . S
C1460 C1462 1.353 . S
C1460 H1466 0.930 . S
N1461 Li1411 1.990 1_565 S
N1461 C1460 1.314 . S
N1461 C1464 1.279 . S
C1462 C1460 1.353 . S
C1462 C1465 1.348 . S
C1462 H1494 0.929 . S
C1463 C1464 1.358 . S
C1463 C1465 1.356 . S
C1463 H1495 0.930 . S
C1464 N1461 1.279 . S
C1464 C1463 1.358 . S
C1464 H1467 0.930 . S
C1465 C1462 1.348 . S
C1465 C1463 1.356 . S
H1466 C1460 0.930 . S
H1467 C1464 0.930 . S
O1468 Li1408 1.956 . S
O1468 Li1409 1.970 . S
O1468 Li1410 1.961 . S
O1468 C1412 1.325 . S
O1469 Li1408 1.970 . S
O1469 Li1409 1.956 . S
O1469 Li1411 1.961 . S
O1469 C1418 1.325 . S
O1470 Li1408 1.961 . S
O1470 Li1410 1.956 . S
O1470 Li1411 1.970 . S
O1470 C1440 1.325 . S
O1471 Li1409 1.961 . S
O1471 Li1410 1.970 . S
O1471 Li1411 1.956 . S
O1471 C1446 1.325 . S
H1472 C1414 0.929 . S
H1473 C1415 0.930 . S
H1474 C1416 0.930 . S
H1475 C1417 0.930 . S
H1476 C1419 0.930 . S
H1477 C1421 0.929 . S
H1478 C1422 0.930 . S
H1479 C1423 0.930 . S
H1480 C1426 0.930 . S
H1481 C1429 0.929 . S
H1482 C1434 0.929 . S
H1483 C1435 0.930 . S
H1484 C1442 0.929 1_565 S
H1485 C1443 0.930 . S
H1486 C1444 0.931 . S
H1487 C1445 0.930 . S
H1488 C1447 0.929 . S
H1489 C1448 0.930 . S
H1490 C1449 0.930 . S
H1491 C1450 0.930 . S
H1492 C1454 0.929 . S
H1493 C1456 0.930 . S
H1494 C1462 0.929 . S
H1495 C1463 0.930 . S
Li1496 N1513 1.990 . S
Li1496 O1556 1.956 . S
Li1496 O1557 1.970 . S
Li1496 O1558 1.961 . S
Li1497 N1521 1.990 . S
Li1497 O1556 1.970 . S
Li1497 O1557 1.956 . S
Li1497 O1559 1.961 . S
Li1498 N1543 1.990 1_655 S
Li1498 O1556 1.961 . S
Li1498 O1558 1.956 . S
Li1498 O1559 1.970 . S
Li1499 N1549 1.990 . S
Li1499 O1557 1.961 . S
Li1499 O1558 1.970 . S
Li1499 O1559 1.956 . S
C1500 C1502 1.348 . S
C1500 C1503 1.356 1_655 S
C1500 O1556 1.325 . S
N1501 C1504 1.314 . S
N1501 C1505 1.279 . S
C1502 C1500 1.348 . S
C1502 C1504 1.353 1_655 S
C1502 H1560 0.929 . S
C1503 C1500 1.356 1_455 S
C1503 C1505 1.358 . S
C1503 H1561 0.930 . S
C1504 N1501 1.314 . S
C1504 C1502 1.353 1_455 S
C1504 H1562 0.930 . S
C1505 N1501 1.279 . S
C1505 C1503 1.358 . S
C1505 H1563 0.930 . S
C1506 C1509 1.348 . S
C1506 C1510 1.356 . S
C1506 O1557 1.325 . S
C1507 N1508 1.279 . S
C1507 C1510 1.358 . S
C1507 H1564 0.930 . S
N1508 C1507 1.279 . S
N1508 C1511 1.314 . S
C1509 C1506 1.348 . S
C1509 C1511 1.353 . S
C1509 H1565 0.929 . S
C1510 C1506 1.356 . S
C1510 C1507 1.358 . S
C1510 H1566 0.930 . S
C1511 N1508 1.314 . S
C1511 C1509 1.353 . S
C1511 H1567 0.930 . S
C1512 N1513 1.314 . S
C1512 C1517 1.353 . S
C1512 H1518 0.930 . S
N1513 Li1496 1.990 . S
N1513 C1512 1.314 . S
N1513 C1515 1.279 . S
C1514 C1515 1.358 . S
C1514 C1516 1.356 . S
C1514 H1568 0.930 . S
C1515 N1513 1.279 . S
C1515 C1514 1.358 . S
C1515 H1519 0.930 . S
C1516 C1514 1.356 . S
C1516 C1517 1.348 . S
C1517 C1512 1.353 . S
C1517 C1516 1.348 . S
C1517 H1569 0.929 . S
H1518 C1512 0.930 . S
H1519 C1515 0.930 . S
C1520 N1521 1.314 . S
C1520 C1522 1.353 . S
C1520 H1526 0.930 . S
N1521 Li1497 1.990 . S
N1521 C1520 1.314 . S
N1521 C1524 1.279 . S
C1522 C1520 1.353 . S
C1522 C1525 1.348 . S
C1522 H1570 0.929 . S
C1523 C1524 1.358 . S
C1523 C1525 1.356 . S
C1523 H1571 0.930 . S
C1524 N1521 1.279 . S
C1524 C1523 1.358 . S
C1524 H1527 0.930 . S
C1525 C1522 1.348 . S
C1525 C1523 1.356 . S
H1526 C1520 0.930 . S
H1527 C1524 0.930 . S
C1528 C1530 1.348 . S
C1528 C1531 1.356 . S
C1528 O1558 1.325 . S
N1529 C1532 1.314 . S
N1529 C1533 1.279 . S
C1530 C1528 1.348 . S
C1530 C1532 1.353 . S
C1530 H1572 0.929 . S
C1531 C1528 1.356 . S
C1531 C1533 1.358 . S
C1531 H1573 0.930 . S
C1532 N1529 1.314 . S
C1532 C1530 1.353 . S
C1532 H1574 0.930 . S
C1533 N1529 1.279 . S
C1533 C1531 1.358 . S
C1533 H1575 0.930 . S
C1534 C1535 1.348 . S
C1534 C1536 1.356 . S
C1534 O1559 1.325 . S
C1535 C1534 1.348 . S
C1535 C1537 1.353 . S
C1535 H1576 0.929 . S
C1536 C1534 1.356 . S
C1536 C1538 1.358 . S
C1536 H1577 0.930 . S
C1537 C1535 1.353 . S
C1537 N1539 1.314 . S
C1537 H1578 0.930 1_655 S
C1538 C1536 1.358 . S
C1538 N1539 1.279 . S
C1538 H1579 0.930 . S
N1539 C1537 1.314 . S
N1539 C1538 1.279 . S
C1540 C1542 1.353 . S
C1540 N1543 1.314 . S
C1540 H1546 0.930 . S
C1541 N1543 1.279 . S
C1541 C1544 1.358 . S
C1541 H1547 0.930 . S
C1542 C1540 1.353 . S
C1542 C1545 1.348 . S
C1542 H1580 0.929 . S
N1543 Li1498 1.990 1_455 S
N1543 C1540 1.314 . S
N1543 C1541 1.279 . S
C1544 C1541 1.358 . S
C1544 C1545 1.356 . S
C1544 H1581 0.930 . S
C1545 C1542 1.348 . S
C1545 C1544 1.356 . S
H1546 C1540 0.930 . S
H1547 C1541 0.930 . S
C1548 N1549 1.314 . S
C1548 C1550 1.353 . S
C1548 H1554 0.930 . S
N1549 Li1499 1.990 . S
N1549 C1548 1.314 . S
N1549 C1552 1.279 . S
C1550 C1548 1.353 . S
C1550 C1553 1.348 . S
C1550 H1582 0.929 . S
C1551 C1552 1.358 . S
C1551 C1553 1.356 . S
C1551 H1583 0.930 . S
C1552 N1549 1.279 . S
C1552 C1551 1.358 . S
C1552 H1555 0.930 . S
C1553 C1550 1.348 . S
C1553 C1551 1.356 . S
H1554 C1548 0.930 . S
H1555 C1552 0.930 . S
O1556 Li1496 1.956 . S
O1556 Li1497 1.970 . S
O1556 Li1498 1.961 . S
O1556 C1500 1.325 . S
O1557 Li1496 1.970 . S
O1557 Li1497 1.956 . S
O1557 Li1499 1.961 . S
O1557 C1506 1.325 . S
O1558 Li1496 1.961 . S
O1558 Li1498 1.956 . S
O1558 Li1499 1.970 . S
O1558 C1528 1.325 . S
O1559 Li1497 1.961 . S
O1559 Li1498 1.970 . S
O1559 Li1499 1.956 . S
O1559 C1534 1.325 . S
H1560 C1502 0.929 . S
H1561 C1503 0.930 . S
H1562 C1504 0.930 . S
H1563 C1505 0.930 . S
H1564 C1507 0.930 . S
H1565 C1509 0.929 . S
H1566 C1510 0.930 . S
H1567 C1511 0.930 . S
H1568 C1514 0.930 . S
H1569 C1517 0.929 . S
H1570 C1522 0.929 . S
H1571 C1523 0.930 . S
H1572 C1530 0.929 . S
H1573 C1531 0.930 . S
H1574 C1532 0.930 . S
H1575 C1533 0.930 . S
H1576 C1535 0.929 . S
H1577 C1536 0.930 . S
H1578 C1537 0.930 1_455 S
H1579 C1538 0.930 . S
H1580 C1542 0.929 . S
H1581 C1544 0.930 . S
H1582 C1550 0.929 . S
H1583 C1551 0.930 . S
H1584 O1610 0.856 . S
H1585 O1613 0.854 . S
H1586 C1621 0.930 . S
H1587 C1622 0.930 . S
H1588 C1624 0.930 . S
H1589 C1625 0.930 . S
H1590 C1627 0.931 . S
H1591 C1628 0.930 . S
H1592 C1630 0.930 . S
H1593 C1631 0.929 . S
H1594 C1633 0.930 . S
H1595 C1634 0.931 . S
H1596 C1636 0.930 . S
H1597 C1637 0.929 . S
H1598 C1639 0.931 . S
H1599 C1640 0.930 . S
H1600 C1642 0.930 . S
H1601 C1643 0.932 . S
H1602 C1645 0.930 . S
H1603 C1646 0.929 . S
H1604 C1648 0.931 . S
H1605 C1649 0.930 . S
H1606 C1651 0.929 . S
H1607 C1652 0.931 . S
H1608 C1654 0.930 . S
H1609 C1655 0.929 . S
O1610 H1584 0.856 . S
O1610 C1656 1.300 1_556 S
O1611 C1656 1.209 1_556 S
O1612 C1657 1.199 . S
O1613 H1585 0.854 . S
O1613 C1657 1.297 . S
C1614 C1615 1.404 . S
C1614 C1619 1.397 . S
C1614 C1620 1.492 . S
C1615 C1614 1.404 . S
C1615 C1616 1.396 . S
C1615 C1626 1.492 . S
C1616 C1615 1.396 . S
C1616 C1617 1.397 . S
C1616 C1632 1.509 . S
C1617 C1616 1.397 . S
C1617 C1618 1.412 . S
C1617 C1638 1.485 . S
C1618 C1617 1.412 . S
C1618 C1619 1.388 . S
C1618 C1644 1.490 . S
C1619 C1614 1.397 . S
C1619 C1618 1.388 . S
C1619 C1650 1.519 . S
C1620 C1614 1.492 . S
C1620 C1621 1.363 . S
C1620 C1625 1.390 . S
C1621 H1586 0.930 . S
C1621 C1620 1.363 . S
C1621 C1622 1.372 . S
C1622 H1587 0.930 . S
C1622 C1621 1.372 . S
C1622 C1623 1.383 . S
C1623 C1622 1.383 . S
C1623 C1624 1.395 . S
C1624 H1588 0.930 . S
C1624 C1623 1.395 . S
C1624 C1625 1.362 . S
C1625 H1589 0.930 . S
C1625 C1620 1.390 . S
C1625 C1624 1.362 . S
C1626 C1615 1.492 . S
C1626 C1627 1.377 . S
C1626 C1631 1.397 . S
C1627 H1590 0.931 . S
C1627 C1626 1.377 . S
C1627 C1628 1.376 . S
C1628 H1591 0.930 . S
C1628 C1627 1.376 . S
C1628 C1629 1.376 . S
C1629 C1628 1.376 . S
C1629 C1630 1.378 . S
C1629 C1656 1.486 . S
C1630 H1592 0.930 . S
C1630 C1629 1.378 . S
C1630 C1631 1.376 . S
C1631 H1593 0.929 . S
C1631 C1626 1.397 . S
C1631 C1630 1.376 . S
C1632 C1616 1.509 . S
C1632 C1633 1.391 . S
C1632 C1637 1.386 . S
C1633 H1594 0.930 . S
C1633 C1632 1.391 . S
C1633 C1634 1.375 . S
C1634 H1595 0.931 . S
C1634 C1633 1.375 . S
C1634 C1635 1.375 . S
C1635 C1634 1.375 . S
C1635 C1636 1.361 . S
C1636 H1596 0.930 . S
C1636 C1635 1.361 . S
C1636 C1637 1.399 . S
C1637 H1597 0.929 . S
C1637 C1632 1.386 . S
C1637 C1636 1.399 . S
C1638 C1617 1.485 . S
C1638 C1639 1.394 . S
C1638 C1643 1.360 . S
C1639 H1598 0.931 . S
C1639 C1638 1.394 . S
C1639 C1640 1.372 . S
C1640 H1599 0.930 . S
C1640 C1639 1.372 . S
C1640 C1641 1.397 . S
C1641 C1640 1.397 . S
C1641 C1642 1.390 . S
C1641 C1657 1.476 . S
C1642 H1600 0.930 . S
C1642 C1641 1.390 . S
C1642 C1643 1.366 . S
C1643 H1601 0.932 . S
C1643 C1638 1.360 . S
C1643 C1642 1.366 . S
C1644 C1618 1.490 . S
C1644 C1645 1.380 . S
C1644 C1649 1.386 . S
C1645 H1602 0.930 . S
C1645 C1644 1.380 . S
C1645 C1646 1.381 . S
C1646 H1603 0.929 . S
C1646 C1645 1.381 . S
C1646 C1647 1.371 . S
C1647 C1646 1.371 . S
C1647 C1648 1.380 . S
C1648 H1604 0.931 . S
C1648 C1647 1.380 . S
C1648 C1649 1.387 . S
C1649 H1605 0.930 . S
C1649 C1644 1.386 . S
C1649 C1648 1.387 . S
C1650 C1619 1.519 . S
C1650 C1651 1.377 . S
C1650 C1655 1.361 . S
C1651 H1606 0.929 . S
C1651 C1650 1.377 . S
C1651 C1652 1.386 . S
C1652 H1607 0.931 . S
C1652 C1651 1.386 . S
C1652 C1653 1.363 . S
C1653 C1652 1.363 . S
C1653 C1654 1.385 . S
C1654 H1608 0.930 . S
C1654 C1653 1.385 . S
C1654 C1655 1.396 . S
C1655 H1609 0.929 . S
C1655 C1650 1.361 . S
C1655 C1654 1.396 . S
C1656 O1610 1.300 1_554 S
C1656 O1611 1.209 1_554 S
C1656 C1629 1.486 . S
C1657 O1612 1.199 . S
C1657 O1613 1.297 . S
C1657 C1641 1.476 . S
H1658 O1684 0.856 1_556 S
H1659 O1687 0.854 . S
H1660 C1695 0.930 . S
H1661 C1696 0.930 . S
H1662 C1698 0.930 . S
H1663 C1699 0.930 . S
H1664 C1701 0.931 . S
H1665 C1702 0.930 . S
H1666 C1704 0.930 . S
H1667 C1705 0.929 . S
H1668 C1707 0.930 . S
H1669 C1708 0.931 . S
H1670 C1710 0.930 . S
H1671 C1711 0.929 . S
H1672 C1713 0.931 . S
H1673 C1714 0.930 . S
H1674 C1716 0.930 . S
H1675 C1717 0.932 . S
H1676 C1719 0.930 . S
H1677 C1720 0.929 . S
H1678 C1722 0.931 . S
H1679 C1723 0.930 . S
H1680 C1725 0.929 . S
H1681 C1726 0.931 . S
H1682 C1728 0.930 . S
H1683 C1729 0.929 . S
O1684 H1658 0.856 1_554 S
O1684 C1730 1.300 . S
O1685 C1730 1.209 . S
O1686 C1731 1.199 . S
O1687 H1659 0.854 . S
O1687 C1731 1.297 1_545 S
C1688 C1689 1.404 . S
C1688 C1693 1.397 . S
C1688 C1694 1.492 . S
C1689 C1688 1.404 . S
C1689 C1690 1.396 . S
C1689 C1700 1.492 . S
C1690 C1689 1.396 . S
C1690 C1691 1.397 . S
C1690 C1706 1.509 . S
C1691 C1690 1.397 . S
C1691 C1692 1.412 . S
C1691 C1712 1.485 . S
C1692 C1691 1.412 . S
C1692 C1693 1.388 . S
C1692 C1718 1.490 . S
C1693 C1688 1.397 . S
C1693 C1692 1.388 . S
C1693 C1724 1.519 . S
C1694 C1688 1.492 . S
C1694 C1695 1.363 . S
C1694 C1699 1.390 . S
C1695 H1660 0.930 . S
C1695 C1694 1.363 . S
C1695 C1696 1.372 . S
C1696 H1661 0.930 . S
C1696 C1695 1.372 . S
C1696 C1697 1.383 . S
C1697 C1696 1.383 . S
C1697 C1698 1.395 . S
C1698 H1662 0.930 . S
C1698 C1697 1.395 . S
C1698 C1699 1.362 . S
C1699 H1663 0.930 . S
C1699 C1694 1.390 . S
C1699 C1698 1.362 . S
C1700 C1689 1.492 . S
C1700 C1701 1.377 . S
C1700 C1705 1.397 . S
C1701 H1664 0.931 . S
C1701 C1700 1.377 . S
C1701 C1702 1.376 . S
C1702 H1665 0.930 . S
C1702 C1701 1.376 . S
C1702 C1703 1.376 . S
C1703 C1702 1.376 . S
C1703 C1704 1.378 . S
C1703 C1730 1.486 . S
C1704 H1666 0.930 . S
C1704 C1703 1.378 . S
C1704 C1705 1.376 . S
C1705 H1667 0.929 . S
C1705 C1700 1.397 . S
C1705 C1704 1.376 . S
C1706 C1690 1.509 . S
C1706 C1707 1.391 . S
C1706 C1711 1.386 . S
C1707 H1668 0.930 . S
C1707 C1706 1.391 . S
C1707 C1708 1.375 . S
C1708 H1669 0.931 . S
C1708 C1707 1.375 . S
C1708 C1709 1.375 . S
C1709 C1708 1.375 . S
C1709 C1710 1.361 . S
C1710 H1670 0.930 . S
C1710 C1709 1.361 . S
C1710 C1711 1.399 . S
C1711 H1671 0.929 . S
C1711 C1706 1.386 . S
C1711 C1710 1.399 . S
C1712 C1691 1.485 . S
C1712 C1713 1.394 . S
C1712 C1717 1.360 . S
C1713 H1672 0.931 . S
C1713 C1712 1.394 . S
C1713 C1714 1.372 . S
C1714 H1673 0.930 . S
C1714 C1713 1.372 . S
C1714 C1715 1.397 . S
C1715 C1714 1.397 . S
C1715 C1716 1.390 . S
C1715 C1731 1.476 . S
C1716 H1674 0.930 . S
C1716 C1715 1.390 . S
C1716 C1717 1.366 . S
C1717 H1675 0.932 . S
C1717 C1712 1.360 . S
C1717 C1716 1.366 . S
C1718 C1692 1.490 . S
C1718 C1719 1.380 . S
C1718 C1723 1.386 . S
C1719 H1676 0.930 . S
C1719 C1718 1.380 . S
C1719 C1720 1.381 . S
C1720 H1677 0.929 . S
C1720 C1719 1.381 . S
C1720 C1721 1.371 . S
C1721 C1720 1.371 . S
C1721 C1722 1.380 . S
C1722 H1678 0.931 . S
C1722 C1721 1.380 . S
C1722 C1723 1.387 . S
C1723 H1679 0.930 . S
C1723 C1718 1.386 . S
C1723 C1722 1.387 . S
C1724 C1693 1.519 . S
C1724 C1725 1.377 . S
C1724 C1729 1.361 . S
C1725 H1680 0.929 . S
C1725 C1724 1.377 . S
C1725 C1726 1.386 . S
C1726 H1681 0.931 . S
C1726 C1725 1.386 . S
C1726 C1727 1.363 . S
C1727 C1726 1.363 . S
C1727 C1728 1.385 . S
C1728 H1682 0.930 . S
C1728 C1727 1.385 . S
C1728 C1729 1.396 . S
C1729 H1683 0.929 . S
C1729 C1724 1.361 . S
C1729 C1728 1.396 . S
C1730 O1684 1.300 . S
C1730 O1685 1.209 . S
C1730 C1703 1.486 . S
C1731 O1686 1.199 . S
C1731 O1687 1.297 1_565 S
C1731 C1715 1.476 . S
H1732 O1758 0.856 1_556 S
H1733 O1761 0.854 1_545 S
H1734 C1769 0.930 . S
H1735 C1770 0.930 . S
H1736 C1772 0.930 . S
H1737 C1773 0.930 . S
H1738 C1775 0.931 . S
H1739 C1776 0.930 . S
H1740 C1778 0.930 . S
H1741 C1779 0.929 . S
H1742 C1781 0.930 . S
H1743 C1782 0.931 . S
H1744 C1784 0.930 . S
H1745 C1785 0.929 . S
H1746 C1787 0.931 . S
H1747 C1788 0.930 . S
H1748 C1790 0.930 . S
H1749 C1791 0.932 . S
H1750 C1793 0.930 . S
H1751 C1794 0.929 . S
H1752 C1796 0.931 . S
H1753 C1797 0.930 . S
H1754 C1799 0.929 . S
H1755 C1800 0.931 . S
H1756 C1802 0.930 . S
H1757 C1803 0.929 . S
O1758 H1732 0.856 1_554 S
O1758 C1804 1.300 . S
O1759 C1804 1.209 . S
O1760 C1805 1.199 1_545 S
O1761 H1733 0.854 1_565 S
O1761 C1805 1.297 . S
C1762 C1763 1.404 . S
C1762 C1767 1.397 . S
C1762 C1768 1.492 . S
C1763 C1762 1.404 . S
C1763 C1764 1.396 . S
C1763 C1774 1.492 . S
C1764 C1763 1.396 . S
C1764 C1765 1.397 . S
C1764 C1780 1.509 . S
C1765 C1764 1.397 . S
C1765 C1766 1.412 . S
C1765 C1786 1.485 . S
C1766 C1765 1.412 . S
C1766 C1767 1.388 . S
C1766 C1792 1.490 . S
C1767 C1762 1.397 . S
C1767 C1766 1.388 . S
C1767 C1798 1.519 . S
C1768 C1762 1.492 . S
C1768 C1769 1.363 . S
C1768 C1773 1.390 . S
C1769 H1734 0.930 . S
C1769 C1768 1.363 . S
C1769 C1770 1.372 . S
C1770 H1735 0.930 . S
C1770 C1769 1.372 . S
C1770 C1771 1.383 . S
C1771 C1770 1.383 . S
C1771 C1772 1.395 . S
C1772 H1736 0.930 . S
C1772 C1771 1.395 . S
C1772 C1773 1.362 . S
C1773 H1737 0.930 . S
C1773 C1768 1.390 . S
C1773 C1772 1.362 . S
C1774 C1763 1.492 . S
C1774 C1775 1.377 . S
C1774 C1779 1.397 . S
C1775 H1738 0.931 . S
C1775 C1774 1.377 . S
C1775 C1776 1.376 . S
C1776 H1739 0.930 . S
C1776 C1775 1.376 . S
C1776 C1777 1.376 . S
C1777 C1776 1.376 . S
C1777 C1778 1.378 . S
C1777 C1804 1.486 . S
C1778 H1740 0.930 . S
C1778 C1777 1.378 . S
C1778 C1779 1.376 . S
C1779 H1741 0.929 . S
C1779 C1774 1.397 . S
C1779 C1778 1.376 . S
C1780 C1764 1.509 . S
C1780 C1781 1.391 . S
C1780 C1785 1.386 . S
C1781 H1742 0.930 . S
C1781 C1780 1.391 . S
C1781 C1782 1.375 . S
C1782 H1743 0.931 . S
C1782 C1781 1.375 . S
C1782 C1783 1.375 . S
C1783 C1782 1.375 . S
C1783 C1784 1.361 . S
C1784 H1744 0.930 . S
C1784 C1783 1.361 . S
C1784 C1785 1.399 . S
C1785 H1745 0.929 . S
C1785 C1780 1.386 . S
C1785 C1784 1.399 . S
C1786 C1765 1.485 . S
C1786 C1787 1.394 . S
C1786 C1791 1.360 . S
C1787 H1746 0.931 . S
C1787 C1786 1.394 . S
C1787 C1788 1.372 . S
C1788 H1747 0.930 . S
C1788 C1787 1.372 . S
C1788 C1789 1.397 . S
C1789 C1788 1.397 . S
C1789 C1790 1.390 . S
C1789 C1805 1.476 . S
C1790 H1748 0.930 . S
C1790 C1789 1.390 . S
C1790 C1791 1.366 . S
C1791 H1749 0.932 . S
C1791 C1786 1.360 . S
C1791 C1790 1.366 . S
C1792 C1766 1.490 . S
C1792 C1793 1.380 . S
C1792 C1797 1.386 . S
C1793 H1750 0.930 . S
C1793 C1792 1.380 . S
C1793 C1794 1.381 . S
C1794 H1751 0.929 . S
C1794 C1793 1.381 . S
C1794 C1795 1.371 . S
C1795 C1794 1.371 . S
C1795 C1796 1.380 . S
C1796 H1752 0.931 . S
C1796 C1795 1.380 . S
C1796 C1797 1.387 . S
C1797 H1753 0.930 . S
C1797 C1792 1.386 . S
C1797 C1796 1.387 . S
C1798 C1767 1.519 . S
C1798 C1799 1.377 . S
C1798 C1803 1.361 . S
C1799 H1754 0.929 . S
C1799 C1798 1.377 . S
C1799 C1800 1.386 . S
C1800 H1755 0.931 . S
C1800 C1799 1.386 . S
C1800 C1801 1.363 . S
C1801 C1800 1.363 . S
C1801 C1802 1.385 . S
C1802 H1756 0.930 . S
C1802 C1801 1.385 . S
C1802 C1803 1.396 . S
C1803 H1757 0.929 . S
C1803 C1798 1.361 . S
C1803 C1802 1.396 . S
C1804 O1758 1.300 . S
C1804 O1759 1.209 . S
C1804 C1777 1.486 . S
C1805 O1760 1.199 1_565 S
C1805 O1761 1.297 . S
C1805 C1789 1.476 . S
H1806 O1832 0.856 . S
H1807 O1835 0.854 . S
H1808 C1843 0.930 . S
H1809 C1844 0.930 . S
H1810 C1846 0.930 . S
H1811 C1847 0.930 . S
H1812 C1849 0.931 . S
H1813 C1850 0.930 . S
H1814 C1852 0.930 . S
H1815 C1853 0.929 . S
H1816 C1855 0.930 . S
H1817 C1856 0.931 . S
H1818 C1858 0.930 . S
H1819 C1859 0.929 . S
H1820 C1861 0.931 . S
H1821 C1862 0.930 . S
H1822 C1864 0.930 . S
H1823 C1865 0.932 . S
H1824 C1867 0.930 . S
H1825 C1868 0.929 . S
H1826 C1870 0.931 . S
H1827 C1871 0.930 . S
H1828 C1873 0.929 . S
H1829 C1874 0.931 . S
H1830 C1876 0.930 . S
H1831 C1877 0.929 . S
O1832 H1806 0.856 . S
O1832 C1878 1.300 . S
O1833 C1878 1.209 . S
O1834 C1879 1.199 . S
O1835 H1807 0.854 . S
O1835 C1879 1.297 . S
C1836 C1837 1.404 . S
C1836 C1841 1.397 . S
C1836 C1842 1.492 . S
C1837 C1836 1.404 . S
C1837 C1838 1.396 . S
C1837 C1848 1.492 . S
C1838 C1837 1.396 . S
C1838 C1839 1.397 . S
C1838 C1854 1.509 . S
C1839 C1838 1.397 . S
C1839 C1840 1.412 . S
C1839 C1860 1.485 . S
C1840 C1839 1.412 . S
C1840 C1841 1.388 . S
C1840 C1866 1.490 . S
C1841 C1836 1.397 . S
C1841 C1840 1.388 . S
C1841 C1872 1.519 . S
C1842 C1836 1.492 . S
C1842 C1843 1.363 . S
C1842 C1847 1.390 . S
C1843 H1808 0.930 . S
C1843 C1842 1.363 . S
C1843 C1844 1.372 . S
C1844 H1809 0.930 . S
C1844 C1843 1.372 . S
C1844 C1845 1.383 . S
C1845 C1844 1.383 . S
C1845 C1846 1.395 . S
C1846 H1810 0.930 . S
C1846 C1845 1.395 . S
C1846 C1847 1.362 . S
C1847 H1811 0.930 . S
C1847 C1842 1.390 . S
C1847 C1846 1.362 . S
C1848 C1837 1.492 . S
C1848 C1849 1.377 . S
C1848 C1853 1.397 . S
C1849 H1812 0.931 . S
C1849 C1848 1.377 . S
C1849 C1850 1.376 1_556 S
C1850 H1813 0.930 . S
C1850 C1849 1.376 1_554 S
C1850 C1851 1.376 . S
C1851 C1850 1.376 . S
C1851 C1852 1.378 . S
C1851 C1878 1.486 . S
C1852 H1814 0.930 . S
C1852 C1851 1.378 . S
C1852 C1853 1.376 1_554 S
C1853 H1815 0.929 . S
C1853 C1848 1.397 . S
C1853 C1852 1.376 1_556 S
C1854 C1838 1.509 . S
C1854 C1855 1.391 . S
C1854 C1859 1.386 . S
C1855 H1816 0.930 . S
C1855 C1854 1.391 . S
C1855 C1856 1.375 . S
C1856 H1817 0.931 . S
C1856 C1855 1.375 . S
C1856 C1857 1.375 . S
C1857 C1856 1.375 . S
C1857 C1858 1.361 . S
C1858 H1818 0.930 . S
C1858 C1857 1.361 . S
C1858 C1859 1.399 . S
C1859 H1819 0.929 . S
C1859 C1854 1.386 . S
C1859 C1858 1.399 . S
C1860 C1839 1.485 . S
C1860 C1861 1.394 . S
C1860 C1865 1.360 . S
C1861 H1820 0.931 . S
C1861 C1860 1.394 . S
C1861 C1862 1.372 . S
C1862 H1821 0.930 . S
C1862 C1861 1.372 . S
C1862 C1863 1.397 . S
C1863 C1862 1.397 . S
C1863 C1864 1.390 . S
C1863 C1879 1.476 . S
C1864 H1822 0.930 . S
C1864 C1863 1.390 . S
C1864 C1865 1.366 . S
C1865 H1823 0.932 . S
C1865 C1860 1.360 . S
C1865 C1864 1.366 . S
C1866 C1840 1.490 . S
C1866 C1867 1.380 . S
C1866 C1871 1.386 . S
C1867 H1824 0.930 . S
C1867 C1866 1.380 . S
C1867 C1868 1.381 . S
C1868 H1825 0.929 . S
C1868 C1867 1.381 . S
C1868 C1869 1.371 . S
C1869 C1868 1.371 . S
C1869 C1870 1.380 . S
C1870 H1826 0.931 . S
C1870 C1869 1.380 . S
C1870 C1871 1.387 . S
C1871 H1827 0.930 . S
C1871 C1866 1.386 . S
C1871 C1870 1.387 . S
C1872 C1841 1.519 . S
C1872 C1873 1.377 . S
C1872 C1877 1.361 . S
C1873 H1828 0.929 . S
C1873 C1872 1.377 . S
C1873 C1874 1.386 . S
C1874 H1829 0.931 . S
C1874 C1873 1.386 . S
C1874 C1875 1.363 . S
C1875 C1874 1.363 . S
C1875 C1876 1.385 . S
C1876 H1830 0.930 . S
C1876 C1875 1.385 . S
C1876 C1877 1.396 . S
C1877 H1831 0.929 . S
C1877 C1872 1.361 . S
C1877 C1876 1.396 . S
C1878 O1832 1.300 . S
C1878 O1833 1.209 . S
C1878 C1851 1.486 . S
C1879 O1834 1.199 . S
C1879 O1835 1.297 . S
C1879 C1863 1.476 . S
H1880 O1906 0.856 . S
H1881 O1909 0.854 . S
H1882 C1917 0.930 . S
H1883 C1918 0.930 . S
H1884 C1920 0.930 . S
H1885 C1921 0.930 . S
H1886 C1923 0.931 . S
H1887 C1924 0.930 . S
H1888 C1926 0.930 . S
H1889 C1927 0.929 . S
H1890 C1929 0.930 . S
H1891 C1930 0.931 . S
H1892 C1932 0.930 1_554 S
H1893 C1933 0.929 . S
H1894 C1935 0.931 . S
H1895 C1936 0.930 . S
H1896 C1938 0.930 . S
H1897 C1939 0.932 . S
H1898 C1941 0.930 . S
H1899 C1942 0.929 . S
H1900 C1944 0.931 . S
H1901 C1945 0.930 . S
H1902 C1947 0.929 . S
H1903 C1948 0.931 . S
H1904 C1950 0.930 . S
H1905 C1951 0.929 . S
O1906 H1880 0.856 . S
O1906 C1952 1.300 . S
O1907 C1952 1.209 . S
O1908 C1953 1.199 . S
O1909 H1881 0.854 . S
O1909 C1953 1.297 1_565 S
C1910 C1911 1.404 . S
C1910 C1915 1.397 . S
C1910 C1916 1.492 . S
C1911 C1910 1.404 . S
C1911 C1912 1.396 . S
C1911 C1922 1.492 . S
C1912 C1911 1.396 . S
C1912 C1913 1.397 . S
C1912 C1928 1.509 . S
C1913 C1912 1.397 . S
C1913 C1914 1.412 . S
C1913 C1934 1.485 . S
C1914 C1913 1.412 . S
C1914 C1915 1.388 . S
C1914 C1940 1.490 . S
C1915 C1910 1.397 . S
C1915 C1914 1.388 . S
C1915 C1946 1.519 . S
C1916 C1910 1.492 . S
C1916 C1917 1.363 . S
C1916 C1921 1.390 . S
C1917 H1882 0.930 . S
C1917 C1916 1.363 . S
C1917 C1918 1.372 . S
C1918 H1883 0.930 . S
C1918 C1917 1.372 . S
C1918 C1919 1.383 . S
C1919 C1918 1.383 . S
C1919 C1920 1.395 . S
C1920 H1884 0.930 . S
C1920 C1919 1.395 . S
C1920 C1921 1.362 . S
C1921 H1885 0.930 . S
C1921 C1916 1.390 . S
C1921 C1920 1.362 . S
C1922 C1911 1.492 . S
C1922 C1923 1.377 . S
C1922 C1927 1.397 . S
C1923 H1886 0.931 . S
C1923 C1922 1.377 . S
C1923 C1924 1.376 1_556 S
C1924 H1887 0.930 . S
C1924 C1923 1.376 1_554 S
C1924 C1925 1.376 . S
C1925 C1924 1.376 . S
C1925 C1926 1.378 . S
C1925 C1952 1.486 . S
C1926 H1888 0.930 . S
C1926 C1925 1.378 . S
C1926 C1927 1.376 1_554 S
C1927 H1889 0.929 . S
C1927 C1922 1.397 . S
C1927 C1926 1.376 1_556 S
C1928 C1912 1.509 . S
C1928 C1929 1.391 . S
C1928 C1933 1.386 . S
C1929 H1890 0.930 . S
C1929 C1928 1.391 . S
C1929 C1930 1.375 . S
C1930 H1891 0.931 . S
C1930 C1929 1.375 . S
C1930 C1931 1.375 . S
C1931 C1930 1.375 . S
C1931 C1932 1.361 . S
C1932 H1892 0.930 1_556 S
C1932 C1931 1.361 . S
C1932 C1933 1.399 . S
C1933 H1893 0.929 . S
C1933 C1928 1.386 . S
C1933 C1932 1.399 . S
C1934 C1913 1.485 . S
C1934 C1935 1.394 . S
C1934 C1939 1.360 . S
C1935 H1894 0.931 . S
C1935 C1934 1.394 . S
C1935 C1936 1.372 . S
C1936 H1895 0.930 . S
C1936 C1935 1.372 . S
C1936 C1937 1.397 . S
C1937 C1936 1.397 . S
C1937 C1938 1.390 . S
C1937 C1953 1.476 . S
C1938 H1896 0.930 . S
C1938 C1937 1.390 . S
C1938 C1939 1.366 . S
C1939 H1897 0.932 . S
C1939 C1934 1.360 . S
C1939 C1938 1.366 . S
C1940 C1914 1.490 . S
C1940 C1941 1.380 . S
C1940 C1945 1.386 . S
C1941 H1898 0.930 . S
C1941 C1940 1.380 . S
C1941 C1942 1.381 . S
C1942 H1899 0.929 . S
C1942 C1941 1.381 . S
C1942 C1943 1.371 . S
C1943 C1942 1.371 . S
C1943 C1944 1.380 . S
C1944 H1900 0.931 . S
C1944 C1943 1.380 . S
C1944 C1945 1.387 . S
C1945 H1901 0.930 . S
C1945 C1940 1.386 . S
C1945 C1944 1.387 . S
C1946 C1915 1.519 . S
C1946 C1947 1.377 . S
C1946 C1951 1.361 . S
C1947 H1902 0.929 . S
C1947 C1946 1.377 . S
C1947 C1948 1.386 . S
C1948 H1903 0.931 . S
C1948 C1947 1.386 . S
C1948 C1949 1.363 . S
C1949 C1948 1.363 . S
C1949 C1950 1.385 . S
C1950 H1904 0.930 . S
C1950 C1949 1.385 . S
C1950 C1951 1.396 . S
C1951 H1905 0.929 . S
C1951 C1946 1.361 . S
C1951 C1950 1.396 . S
C1952 O1906 1.300 . S
C1952 O1907 1.209 . S
C1952 C1925 1.486 . S
C1953 O1908 1.199 . S
C1953 O1909 1.297 1_545 S
C1953 C1937 1.476 . S
H1954 O1980 0.856 . S
H1955 O1983 0.854 . S
H1956 C1991 0.930 . S
H1957 C1992 0.930 . S
H1958 C1994 0.930 . S
H1959 C1995 0.930 . S
H1960 C1997 0.931 . S
H1961 C1998 0.930 . S
H1962 C2000 0.930 . S
H1963 C2001 0.929 . S
H1964 C2003 0.930 . S
H1965 C2004 0.945 . S
H1966 C2006 0.930 1_554 S
H1967 C2007 0.929 . S
H1968 C2009 0.931 . S
H1969 C2010 0.930 . S
H1970 C2012 0.930 . S
H1971 C2013 0.932 . S
H1972 C2015 0.930 . S
H1973 C2016 0.929 . S
H1974 C2018 0.931 . S
H1975 C2019 0.930 . S
H1976 C2021 0.929 . S
H1977 C2022 0.931 . S
H1978 C2024 0.930 . S
H1979 C2025 0.929 . S
O1980 H1954 0.856 . S
O1980 C2026 1.300 . S
O1981 C2026 1.209 . S
O1982 C2027 1.199 . S
O1983 H1955 0.854 . S
O1983 C2027 1.297 . S
C1984 C1985 1.404 . S
C1984 C1989 1.397 . S
C1984 C1990 1.492 . S
C1985 C1984 1.404 . S
C1985 C1986 1.396 . S
C1985 C1996 1.492 . S
C1986 C1985 1.396 . S
C1986 C1987 1.397 . S
C1986 C2002 1.509 . S
C1987 C1986 1.397 . S
C1987 C1988 1.412 . S
C1987 C2008 1.485 . S
C1988 C1987 1.412 . S
C1988 C1989 1.388 . S
C1988 C2014 1.490 . S
C1989 C1984 1.397 . S
C1989 C1988 1.388 . S
C1989 C2020 1.519 . S
C1990 C1984 1.492 . S
C1990 C1991 1.363 . S
C1990 C1995 1.390 . S
C1991 H1956 0.930 . S
C1991 C1990 1.363 . S
C1991 C1992 1.372 . S
C1992 H1957 0.930 . S
C1992 C1991 1.372 . S
C1992 C1993 1.383 . S
C1993 C1992 1.383 . S
C1993 C1994 1.395 . S
C1994 H1958 0.930 . S
C1994 C1993 1.395 . S
C1994 C1995 1.362 . S
C1995 H1959 0.930 . S
C1995 C1990 1.390 . S
C1995 C1994 1.362 . S
C1996 C1985 1.492 . S
C1996 C1997 1.377 1_556 S
C1996 C2001 1.397 . S
C1997 H1960 0.931 . S
C1997 C1996 1.377 1_554 S
C1997 C1998 1.376 . S
C1998 H1961 0.930 . S
C1998 C1997 1.376 . S
C1998 C1999 1.376 . S
C1999 C1998 1.376 . S
C1999 C2000 1.378 . S
C1999 C2026 1.486 . S
C2000 H1962 0.930 . S
C2000 C1999 1.378 . S
C2000 C2001 1.376 1_554 S
C2001 H1963 0.929 . S
C2001 C1996 1.397 . S
C2001 C2000 1.376 1_556 S
C2002 C1986 1.509 . S
C2002 C2003 1.391 . S
C2002 C2007 1.386 . S
C2003 H1964 0.930 . S
C2003 C2002 1.391 . S
C2003 C2004 1.346 1_556 S
C2004 H1965 0.945 . S
C2004 C2003 1.346 1_554 S
C2004 C2005 1.392 . S
C2005 C2004 1.392 . S
C2005 C2006 1.361 1_554 S
C2006 H1966 0.930 1_556 S
C2006 C2005 1.361 1_556 S
C2006 C2007 1.399 . S
C2007 H1967 0.929 . S
C2007 C2002 1.386 . S
C2007 C2006 1.399 . S
C2008 C1987 1.485 . S
C2008 C2009 1.394 . S
C2008 C2013 1.360 . S
C2009 H1968 0.931 . S
C2009 C2008 1.394 . S
C2009 C2010 1.372 . S
C2010 H1969 0.930 . S
C2010 C2009 1.372 . S
C2010 C2011 1.397 . S
C2011 C2010 1.397 . S
C2011 C2012 1.390 . S
C2011 C2027 1.476 . S
C2012 H1970 0.930 . S
C2012 C2011 1.390 . S
C2012 C2013 1.366 . S
C2013 H1971 0.932 . S
C2013 C2008 1.360 . S
C2013 C2012 1.366 . S
C2014 C1988 1.490 . S
C2014 C2015 1.380 . S
C2014 C2019 1.386 . S
C2015 H1972 0.930 . S
C2015 C2014 1.380 . S
C2015 C2016 1.381 . S
C2016 H1973 0.929 . S
C2016 C2015 1.381 . S
C2016 C2017 1.371 . S
C2017 C2016 1.371 . S
C2017 C2018 1.380 . S
C2018 H1974 0.931 . S
C2018 C2017 1.380 . S
C2018 C2019 1.387 . S
C2019 H1975 0.930 . S
C2019 C2014 1.386 . S
C2019 C2018 1.387 . S
C2020 C1989 1.519 . S
C2020 C2021 1.377 . S
C2020 C2025 1.361 . S
C2021 H1976 0.929 . S
C2021 C2020 1.377 . S
C2021 C2022 1.386 . S
C2022 H1977 0.931 . S
C2022 C2021 1.386 . S
C2022 C2023 1.363 . S
C2023 C2022 1.363 . S
C2023 C2024 1.385 . S
C2024 H1978 0.930 . S
C2024 C2023 1.385 . S
C2024 C2025 1.396 . S
C2025 H1979 0.929 . S
C2025 C2020 1.361 . S
C2025 C2024 1.396 . S
C2026 O1980 1.300 . S
C2026 O1981 1.209 . S
C2026 C1999 1.486 . S
C2027 O1982 1.199 . S
C2027 O1983 1.297 . S
C2027 C2011 1.476 . S
H2028 O2054 0.856 . S
H2029 O2057 0.854 . S
H2030 C2065 0.930 . S
H2031 C2066 0.930 . S
H2032 C2068 0.930 . S
H2033 C2069 0.930 . S
H2034 C2071 0.931 . S
H2035 C2072 0.930 . S
H2036 C2074 0.930 . S
H2037 C2075 0.929 . S
H2038 C2077 0.930 . S
H2039 C2078 0.931 . S
H2040 C2080 0.930 . S
H2041 C2081 0.929 . S
H2042 C2083 0.931 . S
H2043 C2084 0.930 . S
H2044 C2086 0.930 . S
H2045 C2087 0.932 . S
H2046 C2089 0.930 . S
H2047 C2090 0.929 . S
H2048 C2092 0.931 . S
H2049 C2093 0.930 . S
H2050 C2095 0.929 . S
H2051 C2096 0.931 . S
H2052 C2098 0.930 . S
H2053 C2099 0.929 . S
O2054 H2028 0.856 . S
O2054 C2100 1.300 . S
O2055 C2100 1.209 . S
O2056 C2101 1.199 . S
O2057 H2029 0.854 . S
O2057 C2101 1.297 . S
C2058 C2059 1.404 . S
C2058 C2063 1.397 . S
C2058 C2064 1.492 . S
C2059 C2058 1.404 . S
C2059 C2060 1.396 . S
C2059 C2070 1.492 . S
C2060 C2059 1.396 . S
C2060 C2061 1.397 . S
C2060 C2076 1.509 . S
C2061 C2060 1.397 . S
C2061 C2062 1.412 . S
C2061 C2082 1.485 . S
C2062 C2061 1.412 . S
C2062 C2063 1.388 . S
C2062 C2088 1.490 . S
C2063 C2058 1.397 . S
C2063 C2062 1.388 . S
C2063 C2094 1.519 . S
C2064 C2058 1.492 . S
C2064 C2065 1.363 . S
C2064 C2069 1.390 . S
C2065 H2030 0.930 . S
C2065 C2064 1.363 . S
C2065 C2066 1.372 . S
C2066 H2031 0.930 . S
C2066 C2065 1.372 . S
C2066 C2067 1.383 . S
C2067 C2066 1.383 . S
C2067 C2068 1.395 . S
C2068 H2032 0.930 . S
C2068 C2067 1.395 . S
C2068 C2069 1.362 . S
C2069 H2033 0.930 . S
C2069 C2064 1.390 . S
C2069 C2068 1.362 . S
C2070 C2059 1.492 . S
C2070 C2071 1.377 . S
C2070 C2075 1.397 . S
C2071 H2034 0.931 . S
C2071 C2070 1.377 . S
C2071 C2072 1.376 . S
C2072 H2035 0.930 . S
C2072 C2071 1.376 . S
C2072 C2073 1.376 . S
C2073 C2072 1.376 . S
C2073 C2074 1.378 . S
C2073 C2100 1.486 . S
C2074 H2036 0.930 . S
C2074 C2073 1.378 . S
C2074 C2075 1.376 . S
C2075 H2037 0.929 . S
C2075 C2070 1.397 . S
C2075 C2074 1.376 . S
C2076 C2060 1.509 . S
C2076 C2077 1.391 . S
C2076 C2081 1.386 . S
C2077 H2038 0.930 . S
C2077 C2076 1.391 . S
C2077 C2078 1.375 . S
C2078 H2039 0.931 . S
C2078 C2077 1.375 . S
C2078 C2079 1.375 . S
C2079 C2078 1.375 . S
C2079 C2080 1.361 . S
C2080 H2040 0.930 . S
C2080 C2079 1.361 . S
C2080 C2081 1.399 . S
C2081 H2041 0.929 . S
C2081 C2076 1.386 . S
C2081 C2080 1.399 . S
C2082 C2061 1.485 . S
C2082 C2083 1.394 . S
C2082 C2087 1.360 . S
C2083 H2042 0.931 . S
C2083 C2082 1.394 . S
C2083 C2084 1.372 . S
C2084 H2043 0.930 . S
C2084 C2083 1.372 . S
C2084 C2085 1.397 . S
C2085 C2084 1.397 . S
C2085 C2086 1.390 . S
C2085 C2101 1.476 . S
C2086 H2044 0.930 . S
C2086 C2085 1.390 . S
C2086 C2087 1.366 . S
C2087 H2045 0.932 . S
C2087 C2082 1.360 . S
C2087 C2086 1.366 . S
C2088 C2062 1.490 . S
C2088 C2089 1.380 . S
C2088 C2093 1.386 . S
C2089 H2046 0.930 . S
C2089 C2088 1.380 . S
C2089 C2090 1.381 . S
C2090 H2047 0.929 . S
C2090 C2089 1.381 . S
C2090 C2091 1.371 . S
C2091 C2090 1.371 . S
C2091 C2092 1.380 . S
C2092 H2048 0.931 . S
C2092 C2091 1.380 . S
C2092 C2093 1.387 . S
C2093 H2049 0.930 . S
C2093 C2088 1.386 . S
C2093 C2092 1.387 . S
C2094 C2063 1.519 . S
C2094 C2095 1.377 . S
C2094 C2099 1.361 . S
C2095 H2050 0.929 . S
C2095 C2094 1.377 . S
C2095 C2096 1.386 . S
C2096 H2051 0.931 . S
C2096 C2095 1.386 . S
C2096 C2097 1.363 . S
C2097 C2096 1.363 . S
C2097 C2098 1.385 . S
C2098 H2052 0.930 . S
C2098 C2097 1.385 . S
C2098 C2099 1.396 . S
C2099 H2053 0.929 . S
C2099 C2094 1.361 . S
C2099 C2098 1.396 . S
C2100 O2054 1.300 . S
C2100 O2055 1.209 . S
C2100 C2073 1.486 . S
C2101 O2056 1.199 . S
C2101 O2057 1.297 . S
C2101 C2085 1.476 . S
H2102 O2128 0.856 . S
H2103 O2131 0.854 . S
H2104 C2139 0.930 . S
H2105 C2140 0.930 . S
H2106 C2142 0.930 . S
H2107 C2143 0.930 . S
H2108 C2145 0.931 . S
H2109 C2146 0.930 . S
H2110 C2148 0.930 . S
H2111 C2149 0.929 . S
H2112 C2151 0.930 . S
H2113 C2152 0.931 . S
H2114 C2154 0.930 . S
H2115 C2155 0.929 . S
H2116 C2157 0.931 . S
H2117 C2158 0.930 . S
H2118 C2160 0.930 . S
H2119 C2161 0.932 . S
H2120 C2163 0.930 . S
H2121 C2164 0.929 . S
H2122 C2166 0.931 . S
H2123 C2167 0.930 . S
H2124 C2169 0.929 . S
H2125 C2170 0.931 . S
H2126 C2172 0.930 . S
H2127 C2173 0.929 . S
O2128 H2102 0.856 . S
O2128 C2174 1.300 . S
O2129 C2174 1.209 . S
O2130 C2175 1.199 . S
O2131 H2103 0.854 . S
O2131 C2175 1.297 . S
C2132 C2133 1.404 . S
C2132 C2137 1.397 . S
C2132 C2138 1.492 . S
C2133 C2132 1.404 . S
C2133 C2134 1.396 . S
C2133 C2144 1.492 . S
C2134 C2133 1.396 . S
C2134 C2135 1.397 . S
C2134 C2150 1.509 . S
C2135 C2134 1.397 . S
C2135 C2136 1.412 . S
C2135 C2156 1.485 . S
C2136 C2135 1.412 . S
C2136 C2137 1.388 . S
C2136 C2162 1.490 . S
C2137 C2132 1.397 . S
C2137 C2136 1.388 . S
C2137 C2168 1.519 . S
C2138 C2132 1.492 . S
C2138 C2139 1.363 . S
C2138 C2143 1.390 . S
C2139 H2104 0.930 . S
C2139 C2138 1.363 . S
C2139 C2140 1.372 . S
C2140 H2105 0.930 . S
C2140 C2139 1.372 . S
C2140 C2141 1.383 . S
C2141 C2140 1.383 . S
C2141 C2142 1.395 . S
C2142 H2106 0.930 . S
C2142 C2141 1.395 . S
C2142 C2143 1.362 . S
C2143 H2107 0.930 . S
C2143 C2138 1.390 . S
C2143 C2142 1.362 . S
C2144 C2133 1.492 . S
C2144 C2145 1.377 . S
C2144 C2149 1.397 . S
C2145 H2108 0.931 . S
C2145 C2144 1.377 . S
C2145 C2146 1.376 . S
C2146 H2109 0.930 . S
C2146 C2145 1.376 . S
C2146 C2147 1.376 . S
C2147 C2146 1.376 . S
C2147 C2148 1.378 . S
C2147 C2174 1.486 . S
C2148 H2110 0.930 . S
C2148 C2147 1.378 . S
C2148 C2149 1.376 . S
C2149 H2111 0.929 . S
C2149 C2144 1.397 . S
C2149 C2148 1.376 . S
C2150 C2134 1.509 . S
C2150 C2151 1.391 . S
C2150 C2155 1.386 . S
C2151 H2112 0.930 . S
C2151 C2150 1.391 . S
C2151 C2152 1.375 . S
C2152 H2113 0.931 . S
C2152 C2151 1.375 . S
C2152 C2153 1.375 . S
C2153 C2152 1.375 . S
C2153 C2154 1.361 . S
C2154 H2114 0.930 . S
C2154 C2153 1.361 . S
C2154 C2155 1.399 . S
C2155 H2115 0.929 . S
C2155 C2150 1.386 . S
C2155 C2154 1.399 . S
C2156 C2135 1.485 . S
C2156 C2157 1.394 . S
C2156 C2161 1.360 . S
C2157 H2116 0.931 . S
C2157 C2156 1.394 . S
C2157 C2158 1.372 . S
C2158 H2117 0.930 . S
C2158 C2157 1.372 . S
C2158 C2159 1.397 . S
C2159 C2158 1.397 . S
C2159 C2160 1.390 . S
C2159 C2175 1.476 . S
C2160 H2118 0.930 . S
C2160 C2159 1.390 . S
C2160 C2161 1.366 . S
C2161 H2119 0.932 . S
C2161 C2156 1.360 . S
C2161 C2160 1.366 . S
C2162 C2136 1.490 . S
C2162 C2163 1.380 . S
C2162 C2167 1.386 . S
C2163 H2120 0.930 . S
C2163 C2162 1.380 . S
C2163 C2164 1.381 . S
C2164 H2121 0.929 . S
C2164 C2163 1.381 . S
C2164 C2165 1.371 . S
C2165 C2164 1.371 . S
C2165 C2166 1.380 . S
C2166 H2122 0.931 . S
C2166 C2165 1.380 . S
C2166 C2167 1.387 . S
C2167 H2123 0.930 . S
C2167 C2162 1.386 . S
C2167 C2166 1.387 . S
C2168 C2137 1.519 . S
C2168 C2169 1.377 . S
C2168 C2173 1.361 . S
C2169 H2124 0.929 . S
C2169 C2168 1.377 . S
C2169 C2170 1.386 . S
C2170 H2125 0.931 . S
C2170 C2169 1.386 . S
C2170 C2171 1.363 . S
C2171 C2170 1.363 . S
C2171 C2172 1.385 . S
C2172 H2126 0.930 . S
C2172 C2171 1.385 . S
C2172 C2173 1.396 . S
C2173 H2127 0.929 . S
C2173 C2168 1.361 . S
C2173 C2172 1.396 . S
C2174 O2128 1.300 . S
C2174 O2129 1.209 . S
C2174 C2147 1.486 . S
C2175 O2130 1.199 . S
C2175 O2131 1.297 . S
C2175 C2159 1.476 . S
H2176 O2202 0.856 . S
H2177 O2205 0.854 . S
H2178 C2213 0.930 . S
H2179 C2214 0.930 . S
H2180 C2216 0.930 . S
H2181 C2217 0.930 . S
H2182 C2219 0.931 . S
H2183 C2220 0.930 . S
H2184 C2222 0.930 . S
H2185 C2223 0.929 . S
H2186 C2225 0.930 . S
H2187 C2226 0.931 . S
H2188 C2228 0.930 . S
H2189 C2229 0.929 . S
H2190 C2231 0.931 . S
H2191 C2232 0.930 . S
H2192 C2234 0.930 . S
H2193 C2235 0.932 . S
H2194 C2237 0.930 . S
H2195 C2238 0.929 . S
H2196 C2240 0.931 . S
H2197 C2241 0.930 . S
H2198 C2243 0.929 . S
H2199 C2244 0.931 . S
H2200 C2246 0.930 . S
H2201 C2247 0.929 . S
O2202 H2176 0.856 . S
O2202 C2248 1.300 . S
O2203 C2248 1.209 . S
O2204 C2249 1.199 . S
O2205 H2177 0.854 . S
O2205 C2249 1.297 . S
C2206 C2207 1.404 . S
C2206 C2211 1.397 . S
C2206 C2212 1.492 . S
C2207 C2206 1.404 . S
C2207 C2208 1.396 . S
C2207 C2218 1.492 . S
C2208 C2207 1.396 . S
C2208 C2209 1.397 . S
C2208 C2224 1.509 . S
C2209 C2208 1.397 . S
C2209 C2210 1.412 . S
C2209 C2230 1.485 . S
C2210 C2209 1.412 . S
C2210 C2211 1.388 . S
C2210 C2236 1.490 . S
C2211 C2206 1.397 . S
C2211 C2210 1.388 . S
C2211 C2242 1.519 . S
C2212 C2206 1.492 . S
C2212 C2213 1.363 . S
C2212 C2217 1.390 . S
C2213 H2178 0.930 . S
C2213 C2212 1.363 . S
C2213 C2214 1.372 . S
C2214 H2179 0.930 . S
C2214 C2213 1.372 . S
C2214 C2215 1.383 . S
C2215 C2214 1.383 . S
C2215 C2216 1.395 . S
C2216 H2180 0.930 . S
C2216 C2215 1.395 . S
C2216 C2217 1.362 . S
C2217 H2181 0.930 . S
C2217 C2212 1.390 . S
C2217 C2216 1.362 . S
C2218 C2207 1.492 . S
C2218 C2219 1.377 . S
C2218 C2223 1.397 . S
C2219 H2182 0.931 . S
C2219 C2218 1.377 . S
C2219 C2220 1.376 . S
C2220 H2183 0.930 . S
C2220 C2219 1.376 . S
C2220 C2221 1.376 . S
C2221 C2220 1.376 . S
C2221 C2222 1.378 . S
C2221 C2248 1.486 . S
C2222 H2184 0.930 . S
C2222 C2221 1.378 . S
C2222 C2223 1.376 . S
C2223 H2185 0.929 . S
C2223 C2218 1.397 . S
C2223 C2222 1.376 . S
C2224 C2208 1.509 . S
C2224 C2225 1.391 . S
C2224 C2229 1.386 . S
C2225 H2186 0.930 . S
C2225 C2224 1.391 . S
C2225 C2226 1.375 . S
C2226 H2187 0.931 . S
C2226 C2225 1.375 . S
C2226 C2227 1.375 . S
C2227 C2226 1.375 . S
C2227 C2228 1.361 . S
C2228 H2188 0.930 . S
C2228 C2227 1.361 . S
C2228 C2229 1.399 . S
C2229 H2189 0.929 . S
C2229 C2224 1.386 . S
C2229 C2228 1.399 . S
C2230 C2209 1.485 . S
C2230 C2231 1.394 . S
C2230 C2235 1.360 . S
C2231 H2190 0.931 . S
C2231 C2230 1.394 . S
C2231 C2232 1.372 . S
C2232 H2191 0.930 . S
C2232 C2231 1.372 . S
C2232 C2233 1.397 . S
C2233 C2232 1.397 . S
C2233 C2234 1.390 . S
C2233 C2249 1.476 . S
C2234 H2192 0.930 . S
C2234 C2233 1.390 . S
C2234 C2235 1.366 . S
C2235 H2193 0.932 . S
C2235 C2230 1.360 . S
C2235 C2234 1.366 . S
C2236 C2210 1.490 . S
C2236 C2237 1.380 . S
C2236 C2241 1.386 . S
C2237 H2194 0.930 . S
C2237 C2236 1.380 . S
C2237 C2238 1.381 . S
C2238 H2195 0.929 . S
C2238 C2237 1.381 . S
C2238 C2239 1.371 . S
C2239 C2238 1.371 . S
C2239 C2240 1.380 . S
C2240 H2196 0.931 . S
C2240 C2239 1.380 . S
C2240 C2241 1.387 . S
C2241 H2197 0.930 . S
C2241 C2236 1.386 . S
C2241 C2240 1.387 . S
C2242 C2211 1.519 . S
C2242 C2243 1.377 . S
C2242 C2247 1.361 . S
C2243 H2198 0.929 . S
C2243 C2242 1.377 . S
C2243 C2244 1.386 . S
C2244 H2199 0.931 . S
C2244 C2243 1.386 . S
C2244 C2245 1.363 . S
C2245 C2244 1.363 . S
C2245 C2246 1.385 . S
C2246 H2200 0.930 . S
C2246 C2245 1.385 . S
C2246 C2247 1.396 . S
C2247 H2201 0.929 . S
C2247 C2242 1.361 . S
C2247 C2246 1.396 . S
C2248 O2202 1.300 . S
C2248 O2203 1.209 . S
C2248 C2221 1.486 . S
C2249 O2204 1.199 . S
C2249 O2205 1.297 . S
C2249 C2233 1.476 . S
H2250 O2276 0.856 . S
H2251 O2279 0.854 . S
H2252 C2287 0.930 . S
H2253 C2288 0.930 . S
H2254 C2290 0.930 . S
H2255 C2291 0.930 . S
H2256 C2293 0.931 . S
H2257 C2294 0.930 1_655 S
H2258 C2296 0.930 . S
H2259 C2297 0.929 . S
H2260 C2299 0.930 . S
H2261 C2300 0.931 1_655 S
H2262 C2302 0.930 . S
H2263 C2303 0.929 . S
H2264 C2305 0.931 . S
H2265 C2306 0.930 . S
H2266 C2308 0.930 . S
H2267 C2309 0.932 . S
H2268 C2311 0.930 . S
H2269 C2312 0.929 . S
H2270 C2314 0.931 . S
H2271 C2315 0.930 . S
H2272 C2317 0.929 . S
H2273 C2318 0.931 . S
H2274 C2320 0.930 . S
H2275 C2321 0.929 . S
O2276 H2250 0.856 . S
O2276 C2322 1.300 . S
O2277 C2322 1.209 . S
O2278 C2323 1.199 1_655 S
O2279 H2251 0.854 . S
O2279 C2323 1.297 . S
C2280 C2281 1.404 . S
C2280 C2285 1.397 . S
C2280 C2286 1.492 . S
C2281 C2280 1.404 . S
C2281 C2282 1.396 . S
C2281 C2292 1.492 . S
C2282 C2281 1.396 . S
C2282 C2283 1.397 . S
C2282 C2298 1.509 . S
C2283 C2282 1.397 . S
C2283 C2284 1.420 . S
C2283 C2304 1.485 . S
C2284 C2283 1.420 . S
C2284 C2285 1.380 . S
C2284 C2310 1.490 1_455 S
C2285 C2280 1.397 . S
C2285 C2284 1.380 . S
C2285 C2316 1.501 1_455 S
C2286 C2280 1.492 . S
C2286 C2287 1.363 1_455 S
C2286 C2291 1.390 . S
C2287 H2252 0.930 . S
C2287 C2286 1.363 1_655 S
C2287 C2288 1.372 . S
C2288 H2253 0.930 . S
C2288 C2287 1.372 . S
C2288 C2289 1.383 . S
C2289 C2288 1.383 . S
C2289 C2290 1.395 1_655 S
C2290 H2254 0.930 . S
C2290 C2289 1.395 1_455 S
C2290 C2291 1.362 . S
C2291 H2255 0.930 . S
C2291 C2286 1.390 . S
C2291 C2290 1.362 . S
C2292 C2281 1.492 . S
C2292 C2293 1.377 1_455 S
C2292 C2297 1.397 . S
C2293 H2256 0.931 . S
C2293 C2292 1.377 1_655 S
C2293 C2294 1.376 1_655 S
C2294 H2257 0.930 1_455 S
C2294 C2293 1.376 1_455 S
C2294 C2295 1.376 . S
C2295 C2294 1.376 . S
C2295 C2296 1.378 . S
C2295 C2322 1.486 . S
C2296 H2258 0.930 . S
C2296 C2295 1.378 . S
C2296 C2297 1.376 . S
C2297 H2259 0.929 . S
C2297 C2292 1.397 . S
C2297 C2296 1.376 . S
C2298 C2282 1.509 . S
C2298 C2299 1.391 1_455 S
C2298 C2303 1.386 . S
C2299 H2260 0.930 . S
C2299 C2298 1.391 1_655 S
C2299 C2300 1.375 1_655 S
C2300 H2261 0.931 1_455 S
C2300 C2299 1.375 1_455 S
C2300 C2301 1.375 . S
C2301 C2300 1.375 . S
C2301 C2302 1.361 . S
C2302 H2262 0.930 . S
C2302 C2301 1.361 . S
C2302 C2303 1.399 . S
C2303 H2263 0.929 . S
C2303 C2298 1.386 . S
C2303 C2302 1.399 . S
C2304 C2283 1.485 . S
C2304 C2305 1.394 1_455 S
C2304 C2309 1.360 . S
C2305 H2264 0.931 . S
C2305 C2304 1.394 1_655 S
C2305 C2306 1.372 . S
C2306 H2265 0.930 . S
C2306 C2305 1.372 . S
C2306 C2307 1.397 1_655 S
C2307 C2306 1.397 1_455 S
C2307 C2308 1.390 . S
C2307 C2323 1.476 . S
C2308 H2266 0.930 . S
C2308 C2307 1.390 . S
C2308 C2309 1.366 . S
C2309 H2267 0.932 . S
C2309 C2304 1.360 . S
C2309 C2308 1.366 . S
C2310 C2284 1.490 1_655 S
C2310 C2311 1.380 . S
C2310 C2315 1.386 1_655 S
C2311 H2268 0.930 . S
C2311 C2310 1.380 . S
C2311 C2312 1.381 . S
C2312 H2269 0.929 . S
C2312 C2311 1.381 . S
C2312 C2313 1.371 . S
C2313 C2312 1.371 . S
C2313 C2314 1.380 1_655 S
C2314 H2270 0.931 . S
C2314 C2313 1.380 1_455 S
C2314 C2315 1.387 . S
C2315 H2271 0.930 . S
C2315 C2310 1.386 1_455 S
C2315 C2314 1.387 . S
C2316 C2285 1.501 1_655 S
C2316 C2317 1.426 . S
C2316 C2321 1.329 1_655 S
C2317 H2272 0.929 . S
C2317 C2316 1.426 . S
C2317 C2318 1.386 . S
C2318 H2273 0.931 . S
C2318 C2317 1.386 . S
C2318 C2319 1.363 . S
C2319 C2318 1.363 . S
C2319 C2320 1.385 1_655 S
C2320 H2274 0.930 . S
C2320 C2319 1.385 1_455 S
C2320 C2321 1.396 . S
C2321 H2275 0.929 . S
C2321 C2316 1.329 1_455 S
C2321 C2320 1.396 . S
C2322 O2276 1.300 . S
C2322 O2277 1.209 . S
C2322 C2295 1.486 . S
C2323 O2278 1.199 1_455 S
C2323 O2279 1.297 . S
C2323 C2307 1.476 . S
H2324 O2350 0.856 . S
H2325 O2353 0.854 . S
H2326 C2361 0.930 . S
H2327 C2362 0.930 . S
H2328 C2364 0.930 . S
H2329 C2365 0.930 . S
H2330 C2367 0.931 . S
H2331 C2368 0.930 . S
H2332 C2370 0.930 . S
H2333 C2371 0.929 . S
H2334 C2373 0.930 . S
H2335 C2374 0.931 . S
H2336 C2376 0.930 . S
H2337 C2377 0.929 . S
H2338 C2379 0.931 . S
H2339 C2380 0.930 . S
H2340 C2382 0.930 . S
H2341 C2383 0.932 . S
H2342 C2385 0.930 . S
H2343 C2386 0.929 . S
H2344 C2388 0.931 . S
H2345 C2389 0.930 . S
H2346 C2391 0.929 . S
H2347 C2392 0.931 . S
H2348 C2394 0.930 . S
H2349 C2395 0.929 . S
O2350 H2324 0.856 . S
O2350 C2396 1.300 . S
O2351 C2396 1.209 . S
O2352 C2397 1.199 . S
O2353 H2325 0.854 . S
O2353 C2397 1.297 . S
C2354 C2355 1.404 . S
C2354 C2359 1.397 . S
C2354 C2360 1.492 . S
C2355 C2354 1.404 . S
C2355 C2356 1.396 . S
C2355 C2366 1.492 . S
C2356 C2355 1.396 . S
C2356 C2357 1.397 . S
C2356 C2372 1.509 . S
C2357 C2356 1.397 . S
C2357 C2358 1.412 . S
C2357 C2378 1.485 . S
C2358 C2357 1.412 . S
C2358 C2359 1.388 . S
C2358 C2384 1.490 . S
C2359 C2354 1.397 . S
C2359 C2358 1.388 . S
C2359 C2390 1.519 . S
C2360 C2354 1.492 . S
C2360 C2361 1.363 . S
C2360 C2365 1.390 . S
C2361 H2326 0.930 . S
C2361 C2360 1.363 . S
C2361 C2362 1.372 . S
C2362 H2327 0.930 . S
C2362 C2361 1.372 . S
C2362 C2363 1.383 . S
C2363 C2362 1.383 . S
C2363 C2364 1.395 . S
C2364 H2328 0.930 . S
C2364 C2363 1.395 . S
C2364 C2365 1.362 . S
C2365 H2329 0.930 . S
C2365 C2360 1.390 . S
C2365 C2364 1.362 . S
C2366 C2355 1.492 . S
C2366 C2367 1.377 . S
C2366 C2371 1.397 . S
C2367 H2330 0.931 . S
C2367 C2366 1.377 . S
C2367 C2368 1.376 . S
C2368 H2331 0.930 . S
C2368 C2367 1.376 . S
C2368 C2369 1.376 . S
C2369 C2368 1.376 . S
C2369 C2370 1.378 . S
C2369 C2396 1.486 . S
C2370 H2332 0.930 . S
C2370 C2369 1.378 . S
C2370 C2371 1.376 . S
C2371 H2333 0.929 . S
C2371 C2366 1.397 . S
C2371 C2370 1.376 . S
C2372 C2356 1.509 . S
C2372 C2373 1.391 . S
C2372 C2377 1.386 . S
C2373 H2334 0.930 . S
C2373 C2372 1.391 . S
C2373 C2374 1.375 . S
C2374 H2335 0.931 . S
C2374 C2373 1.375 . S
C2374 C2375 1.375 . S
C2375 C2374 1.375 . S
C2375 C2376 1.361 . S
C2376 H2336 0.930 . S
C2376 C2375 1.361 . S
C2376 C2377 1.399 . S
C2377 H2337 0.929 . S
C2377 C2372 1.386 . S
C2377 C2376 1.399 . S
C2378 C2357 1.485 . S
C2378 C2379 1.394 . S
C2378 C2383 1.360 . S
C2379 H2338 0.931 . S
C2379 C2378 1.394 . S
C2379 C2380 1.372 . S
C2380 H2339 0.930 . S
C2380 C2379 1.372 . S
C2380 C2381 1.397 . S
C2381 C2380 1.397 . S
C2381 C2382 1.390 . S
C2381 C2397 1.476 . S
C2382 H2340 0.930 . S
C2382 C2381 1.390 . S
C2382 C2383 1.366 . S
C2383 H2341 0.932 . S
C2383 C2378 1.360 . S
C2383 C2382 1.366 . S
C2384 C2358 1.490 . S
C2384 C2385 1.380 . S
C2384 C2389 1.386 . S
C2385 H2342 0.930 . S
C2385 C2384 1.380 . S
C2385 C2386 1.381 . S
C2386 H2343 0.929 . S
C2386 C2385 1.381 . S
C2386 C2387 1.371 . S
C2387 C2386 1.371 . S
C2387 C2388 1.380 . S
C2388 H2344 0.931 . S
C2388 C2387 1.380 . S
C2388 C2389 1.387 . S
C2389 H2345 0.930 . S
C2389 C2384 1.386 . S
C2389 C2388 1.387 . S
C2390 C2359 1.519 . S
C2390 C2391 1.377 . S
C2390 C2395 1.361 . S
C2391 H2346 0.929 . S
C2391 C2390 1.377 . S
C2391 C2392 1.386 . S
C2392 H2347 0.931 . S
C2392 C2391 1.386 . S
C2392 C2393 1.363 . S
C2393 C2392 1.363 . S
C2393 C2394 1.385 . S
C2394 H2348 0.930 . S
C2394 C2393 1.385 . S
C2394 C2395 1.396 . S
C2395 H2349 0.929 . S
C2395 C2390 1.361 . S
C2395 C2394 1.396 . S
C2396 O2350 1.300 . S
C2396 O2351 1.209 . S
C2396 C2369 1.486 . S
C2397 O2352 1.199 . S
C2397 O2353 1.297 . S
C2397 C2381 1.476 . S
H2398 O2424 0.856 . S
H2399 O2427 0.854 . S
H2400 C2435 0.930 . S
H2401 C2436 0.930 . S
H2402 C2438 0.930 . S
H2403 C2439 0.930 . S
H2404 C2441 0.931 . S
H2405 C2442 0.899 1_545 S
H2406 C2444 0.930 . S
H2407 C2445 0.929 . S
H2408 C2447 0.930 . S
H2409 C2448 0.944 . S
H2410 C2450 0.930 . S
H2411 C2451 0.929 . S
H2412 C2453 0.931 . S
H2413 C2454 0.930 . S
H2414 C2456 0.930 . S
H2415 C2457 0.932 . S
H2416 C2459 0.930 . S
H2417 C2460 0.929 . S
H2418 C2462 0.931 . S
H2419 C2463 0.930 . S
H2420 C2465 0.929 . S
H2421 C2466 0.931 . S
H2422 C2468 0.930 . S
H2423 C2469 0.929 . S
O2424 H2398 0.856 . S
O2424 C2470 1.300 . S
O2425 C2470 1.209 . S
O2426 C2471 1.199 1_545 S
O2427 H2399 0.854 . S
O2427 C2471 1.297 . S
C2428 C2429 1.404 . S
C2428 C2433 1.415 . S
C2428 C2434 1.492 . S
C2429 C2428 1.404 . S
C2429 C2430 1.396 . S
C2429 C2440 1.492 . S
C2430 C2429 1.396 . S
C2430 C2431 1.397 . S
C2430 C2446 1.509 . S
C2431 C2430 1.397 . S
C2431 C2432 1.410 . S
C2431 C2452 1.485 . S
C2432 C2431 1.410 . S
C2432 C2433 1.368 . S
C2432 C2458 1.486 1_565 S
C2433 C2428 1.415 . S
C2433 C2432 1.368 . S
C2433 C2464 1.540 1_565 S
C2434 C2428 1.492 . S
C2434 C2435 1.363 1_565 S
C2434 C2439 1.390 . S
C2435 H2400 0.930 . S
C2435 C2434 1.363 1_545 S
C2435 C2436 1.372 . S
C2436 H2401 0.930 . S
C2436 C2435 1.372 . S
C2436 C2437 1.383 . S
C2437 C2436 1.383 . S
C2437 C2438 1.395 1_545 S
C2438 H2402 0.930 . S
C2438 C2437 1.395 1_565 S
C2438 C2439 1.362 . S
C2439 H2403 0.930 . S
C2439 C2434 1.390 . S
C2439 C2438 1.362 . S
C2440 C2429 1.492 . S
C2440 C2441 1.377 1_565 S
C2440 C2445 1.397 . S
C2441 H2404 0.931 . S
C2441 C2440 1.377 1_545 S
C2441 C2442 1.359 1_545 S
C2442 H2405 0.899 1_565 S
C2442 C2441 1.359 1_565 S
C2442 C2443 1.426 . S
C2443 C2442 1.426 . S
C2443 C2444 1.378 . S
C2443 C2470 1.486 . S
C2444 H2406 0.930 . S
C2444 C2443 1.378 . S
C2444 C2445 1.376 . S
C2445 H2407 0.929 . S
C2445 C2440 1.397 . S
C2445 C2444 1.376 . S
C2446 C2430 1.509 . S
C2446 C2447 1.391 1_565 S
C2446 C2451 1.386 . S
C2447 H2408 0.930 . S
C2447 C2446 1.391 1_545 S
C2447 C2448 1.373 . S
C2448 H2409 0.944 . S
C2448 C2447 1.373 . S
C2448 C2449 1.364 1_545 S
C2449 C2448 1.364 1_565 S
C2449 C2450 1.361 . S
C2450 H2410 0.930 . S
C2450 C2449 1.361 . S
C2450 C2451 1.399 . S
C2451 H2411 0.929 . S
C2451 C2446 1.386 . S
C2451 C2450 1.399 . S
C2452 C2431 1.485 . S
C2452 C2453 1.394 1_565 S
C2452 C2457 1.360 . S
C2453 H2412 0.931 . S
C2453 C2452 1.394 1_545 S
C2453 C2454 1.372 . S
C2454 H2413 0.930 . S
C2454 C2453 1.372 . S
C2454 C2455 1.397 1_545 S
C2455 C2454 1.397 1_565 S
C2455 C2456 1.390 . S
C2455 C2471 1.476 . S
C2456 H2414 0.930 . S
C2456 C2455 1.390 . S
C2456 C2457 1.366 . S
C2457 H2415 0.932 . S
C2457 C2452 1.360 . S
C2457 C2456 1.366 . S
C2458 C2432 1.486 1_545 S
C2458 C2459 1.380 . S
C2458 C2463 1.386 1_545 S
C2459 H2416 0.930 . S
C2459 C2458 1.380 . S
C2459 C2460 1.381 . S
C2460 H2417 0.929 . S
C2460 C2459 1.381 . S
C2460 C2461 1.371 . S
C2461 C2460 1.371 . S
C2461 C2462 1.380 1_545 S
C2462 H2418 0.931 . S
C2462 C2461 1.380 1_565 S
C2462 C2463 1.387 . S
C2463 H2419 0.930 . S
C2463 C2458 1.386 1_565 S
C2463 C2462 1.387 . S
C2464 C2433 1.540 1_545 S
C2464 C2465 1.385 . S
C2464 C2469 1.347 1_545 S
C2465 H2420 0.929 . S
C2465 C2464 1.385 . S
C2465 C2466 1.386 . S
C2466 H2421 0.931 . S
C2466 C2465 1.386 . S
C2466 C2467 1.358 1_545 S
C2467 C2466 1.358 1_565 S
C2467 C2468 1.388 . S
C2468 H2422 0.930 . S
C2468 C2467 1.388 . S
C2468 C2469 1.396 . S
C2469 H2423 0.929 . S
C2469 C2464 1.347 1_565 S
C2469 C2468 1.396 . S
C2470 O2424 1.300 . S
C2470 O2425 1.209 . S
C2470 C2443 1.486 . S
C2471 O2426 1.199 1_565 S
C2471 O2427 1.297 . S
C2471 C2455 1.476 . S
H2472 O2498 0.856 . S
H2473 O2501 0.854 . S
H2474 C2509 0.930 . S
H2475 C2510 0.930 . S
H2476 C2512 0.930 . S
H2477 C2513 0.930 . S
H2478 C2515 0.931 . S
H2479 C2516 0.930 . S
H2480 C2518 0.930 . S
H2481 C2519 0.929 . S
H2482 C2521 0.930 . S
H2483 C2522 0.931 . S
H2484 C2524 0.930 . S
H2485 C2525 0.929 . S
H2486 C2527 0.931 . S
H2487 C2528 0.930 . S
H2488 C2530 0.930 . S
H2489 C2531 0.932 . S
H2490 C2533 0.930 . S
H2491 C2534 0.929 . S
H2492 C2536 0.931 . S
H2493 C2537 0.930 . S
H2494 C2539 0.929 . S
H2495 C2540 0.931 . S
H2496 C2542 0.930 . S
H2497 C2543 0.929 . S
O2498 H2472 0.856 . S
O2498 C2544 1.300 . S
O2499 C2544 1.209 1_565 S
O2500 C2545 1.199 1_545 S
O2501 H2473 0.854 . S
O2501 C2545 1.297 . S
C2502 C2503 1.404 . S
C2502 C2507 1.397 1_545 S
C2502 C2508 1.492 . S
C2503 C2502 1.404 . S
C2503 C2504 1.396 . S
C2503 C2514 1.492 . S
C2504 C2503 1.396 . S
C2504 C2505 1.396 1_545 S
C2504 C2520 1.509 . S
C2505 C2504 1.396 1_565 S
C2505 C2506 1.421 . S
C2505 C2526 1.488 . S
C2506 C2505 1.421 . S
C2506 C2507 1.371 . S
C2506 C2532 1.498 . S
C2507 C2502 1.397 1_565 S
C2507 C2506 1.371 . S
C2507 C2538 1.518 . S
C2508 C2502 1.492 . S
C2508 C2509 1.363 . S
C2508 C2513 1.390 1_545 S
C2509 H2474 0.930 . S
C2509 C2508 1.363 . S
C2509 C2510 1.372 . S
C2510 H2475 0.930 . S
C2510 C2509 1.372 . S
C2510 C2511 1.383 . S
C2511 C2510 1.383 . S
C2511 C2512 1.395 1_545 S
C2512 H2476 0.930 . S
C2512 C2511 1.395 1_565 S
C2512 C2513 1.362 . S
C2513 H2477 0.930 . S
C2513 C2508 1.390 1_565 S
C2513 C2512 1.362 . S
C2514 C2503 1.492 . S
C2514 C2515 1.377 . S
C2514 C2519 1.397 1_545 S
C2515 H2478 0.931 . S
C2515 C2514 1.377 . S
C2515 C2516 1.376 . S
C2516 H2479 0.930 . S
C2516 C2515 1.376 . S
C2516 C2517 1.376 . S
C2517 C2516 1.376 . S
C2517 C2518 1.378 1_545 S
C2517 C2544 1.486 . S
C2518 H2480 0.930 . S
C2518 C2517 1.378 1_565 S
C2518 C2519 1.376 . S
C2519 H2481 0.929 . S
C2519 C2514 1.397 1_565 S
C2519 C2518 1.376 . S
C2520 C2504 1.509 . S
C2520 C2521 1.391 . S
C2520 C2525 1.386 1_545 S
C2521 H2482 0.930 . S
C2521 C2520 1.391 . S
C2521 C2522 1.375 . S
C2522 H2483 0.931 . S
C2522 C2521 1.375 . S
C2522 C2523 1.375 . S
C2523 C2522 1.375 . S
C2523 C2524 1.361 1_545 S
C2524 H2484 0.930 . S
C2524 C2523 1.361 1_565 S
C2524 C2525 1.399 . S
C2525 H2485 0.929 . S
C2525 C2520 1.386 1_565 S
C2525 C2524 1.399 . S
C2526 C2505 1.488 . S
C2526 C2527 1.394 1_565 S
C2526 C2531 1.360 . S
C2527 H2486 0.931 . S
C2527 C2526 1.394 1_545 S
C2527 C2528 1.372 . S
C2528 H2487 0.930 . S
C2528 C2527 1.372 . S
C2528 C2529 1.397 1_545 S
C2529 C2528 1.397 1_565 S
C2529 C2530 1.390 . S
C2529 C2545 1.476 . S
C2530 H2488 0.930 . S
C2530 C2529 1.390 . S
C2530 C2531 1.366 . S
C2531 H2489 0.932 . S
C2531 C2526 1.360 . S
C2531 C2530 1.366 . S
C2532 C2506 1.498 . S
C2532 C2533 1.380 1_565 S
C2532 C2537 1.386 . S
C2533 H2490 0.930 . S
C2533 C2532 1.380 1_545 S
C2533 C2534 1.381 . S
C2534 H2491 0.929 . S
C2534 C2533 1.381 . S
C2534 C2535 1.370 . S
C2535 C2534 1.370 . S
C2535 C2536 1.381 1_545 S
C2536 H2492 0.931 . S
C2536 C2535 1.381 1_565 S
C2536 C2537 1.387 . S
C2537 H2493 0.930 . S
C2537 C2532 1.386 . S
C2537 C2536 1.387 . S
C2538 C2507 1.518 . S
C2538 C2539 1.377 1_565 S
C2538 C2543 1.361 . S
C2539 H2494 0.929 . S
C2539 C2538 1.377 1_545 S
C2539 C2540 1.386 . S
C2540 H2495 0.931 . S
C2540 C2539 1.386 . S
C2540 C2541 1.363 1_545 S
C2541 C2540 1.363 1_565 S
C2541 C2542 1.385 . S
C2542 H2496 0.930 . S
C2542 C2541 1.385 . S
C2542 C2543 1.396 . S
C2543 H2497 0.929 . S
C2543 C2538 1.361 . S
C2543 C2542 1.396 . S
C2544 O2498 1.300 . S
C2544 O2499 1.209 1_545 S
C2544 C2517 1.486 . S
C2545 O2500 1.199 1_565 S
C2545 O2501 1.297 . S
C2545 C2529 1.476 . S
H2546 O2572 0.856 . S
H2547 O2575 0.854 . S
H2548 C2583 0.930 . S
H2549 C2584 0.930 . S
H2550 C2586 0.930 . S
H2551 C2587 0.930 . S
H2552 C2589 0.931 . S
H2553 C2590 0.930 . S
H2554 C2592 0.930 . S
H2555 C2593 0.929 . S
H2556 C2595 0.930 . S
H2557 C2596 0.931 . S
H2558 C2598 0.930 . S
H2559 C2599 0.929 . S
H2560 C2601 0.931 . S
H2561 C2602 0.930 . S
H2562 C2604 0.930 . S
H2563 C2605 0.932 . S
H2564 C2607 0.930 . S
H2565 C2608 0.929 . S
H2566 C2610 0.931 . S
H2567 C2611 0.930 . S
H2568 C2613 0.929 . S
H2569 C2614 0.931 . S
H2570 C2616 0.930 . S
H2571 C2617 0.929 . S
O2572 H2546 0.856 . S
O2572 C2618 1.300 . S
O2573 C2618 1.167 1_455 S
O2574 C2619 1.199 1_655 S
O2575 H2547 0.854 . S
O2575 C2619 1.297 . S
C2576 C2577 1.404 . S
C2576 C2581 1.397 . S
C2576 C2582 1.492 . S
C2577 C2576 1.404 . S
C2577 C2578 1.396 . S
C2577 C2588 1.492 . S
C2578 C2577 1.396 . S
C2578 C2579 1.396 . S
C2578 C2594 1.509 . S
C2579 C2578 1.396 . S
C2579 C2580 1.388 1_655 S
C2579 C2600 1.494 1_655 S
C2580 C2579 1.388 1_455 S
C2580 C2581 1.411 1_455 S
C2580 C2606 1.484 . S
C2581 C2576 1.397 . S
C2581 C2580 1.411 1_655 S
C2581 C2612 1.521 1_655 S
C2582 C2576 1.492 . S
C2582 C2583 1.363 . S
C2582 C2587 1.390 1_655 S
C2583 H2548 0.930 . S
C2583 C2582 1.363 . S
C2583 C2584 1.372 . S
C2584 H2549 0.930 . S
C2584 C2583 1.372 . S
C2584 C2585 1.383 . S
C2585 C2584 1.383 . S
C2585 C2586 1.395 1_655 S
C2586 H2550 0.930 . S
C2586 C2585 1.395 1_455 S
C2586 C2587 1.362 . S
C2587 H2551 0.930 . S
C2587 C2582 1.390 1_455 S
C2587 C2586 1.362 . S
C2588 C2577 1.492 . S
C2588 C2589 1.377 . S
C2588 C2593 1.397 1_655 S
C2589 H2552 0.931 . S
C2589 C2588 1.377 . S
C2589 C2590 1.376 . S
C2590 H2553 0.930 . S
C2590 C2589 1.376 . S
C2590 C2591 1.376 . S
C2591 C2590 1.376 . S
C2591 C2592 1.378 1_655 S
C2591 C2618 1.486 . S
C2592 H2554 0.930 . S
C2592 C2591 1.378 1_455 S
C2592 C2593 1.376 . S
C2593 H2555 0.929 . S
C2593 C2588 1.397 1_455 S
C2593 C2592 1.376 . S
C2594 C2578 1.509 . S
C2594 C2595 1.391 . S
C2594 C2599 1.386 1_655 S
C2595 H2556 0.930 . S
C2595 C2594 1.391 . S
C2595 C2596 1.375 . S
C2596 H2557 0.931 . S
C2596 C2595 1.375 . S
C2596 C2597 1.375 . S
C2597 C2596 1.375 . S
C2597 C2598 1.361 1_655 S
C2598 H2558 0.930 . S
C2598 C2597 1.361 1_455 S
C2598 C2599 1.399 . S
C2599 H2559 0.929 . S
C2599 C2594 1.386 1_455 S
C2599 C2598 1.399 . S
C2600 C2579 1.494 1_455 S
C2600 C2601 1.394 1_455 S
C2600 C2605 1.360 . S
C2601 H2560 0.931 . S
C2601 C2600 1.394 1_655 S
C2601 C2602 1.372 . S
C2602 H2561 0.930 . S
C2602 C2601 1.372 . S
C2602 C2603 1.397 1_655 S
C2603 C2602 1.397 1_455 S
C2603 C2604 1.390 . S
C2603 C2619 1.476 . S
C2604 H2562 0.930 . S
C2604 C2603 1.390 . S
C2604 C2605 1.366 . S
C2605 H2563 0.932 . S
C2605 C2600 1.360 . S
C2605 C2604 1.366 . S
C2606 C2580 1.484 . S
C2606 C2607 1.380 1_455 S
C2606 C2611 1.386 . S
C2607 H2564 0.930 . S
C2607 C2606 1.380 1_655 S
C2607 C2608 1.381 . S
C2608 H2565 0.929 . S
C2608 C2607 1.381 . S
C2608 C2609 1.371 1_655 S
C2609 C2608 1.371 1_455 S
C2609 C2610 1.380 . S
C2610 H2566 0.931 . S
C2610 C2609 1.380 . S
C2610 C2611 1.387 . S
C2611 H2567 0.930 . S
C2611 C2606 1.386 . S
C2611 C2610 1.387 . S
C2612 C2581 1.521 1_455 S
C2612 C2613 1.377 1_455 S
C2612 C2617 1.361 . S
C2613 H2568 0.929 . S
C2613 C2612 1.377 1_655 S
C2613 C2614 1.386 . S
C2614 H2569 0.931 . S
C2614 C2613 1.386 . S
C2614 C2615 1.363 1_655 S
C2615 C2614 1.363 1_455 S
C2615 C2616 1.385 . S
C2616 H2570 0.930 . S
C2616 C2615 1.385 . S
C2616 C2617 1.396 . S
C2617 H2571 0.929 . S
C2617 C2612 1.361 . S
C2617 C2616 1.396 . S
C2618 O2572 1.300 . S
C2618 O2573 1.167 1_655 S
C2618 C2591 1.486 . S
C2619 O2574 1.199 1_455 S
C2619 O2575 1.297 . S
C2619 C2603 1.476 . S
H2620 O2646 0.856 . S
H2621 O2649 0.854 . S
H2622 C2657 0.930 . S
H2623 C2658 0.930 . S
H2624 C2660 0.930 . S
H2625 C2661 0.930 . S
H2626 C2663 0.931 . S
H2627 C2664 0.930 . S
H2628 C2666 0.930 . S
H2629 C2667 0.929 . S
H2630 C2669 0.930 . S
H2631 C2670 0.931 . S
H2632 C2672 0.930 . S
H2633 C2673 0.929 . S
H2634 C2675 0.931 . S
H2635 C2676 0.930 . S
H2636 C2678 0.930 . S
H2637 C2679 0.932 . S
H2638 C2681 0.930 . S
H2639 C2682 0.929 . S
H2640 C2684 0.931 . S
H2641 C2685 0.930 . S
H2642 C2687 0.929 . S
H2643 C2688 0.931 . S
H2644 C2690 0.930 . S
H2645 C2691 0.929 . S
O2646 H2620 0.856 . S
O2646 C2692 1.300 . S
O2647 C2692 1.209 . S
O2648 C2693 1.199 . S
O2649 H2621 0.854 . S
O2649 C2693 1.297 . S
C2650 C2651 1.404 . S
C2650 C2655 1.397 . S
C2650 C2656 1.492 . S
C2651 C2650 1.404 . S
C2651 C2652 1.396 . S
C2651 C2662 1.492 . S
C2652 C2651 1.396 . S
C2652 C2653 1.397 . S
C2652 C2668 1.509 . S
C2653 C2652 1.397 . S
C2653 C2654 1.412 . S
C2653 C2674 1.485 . S
C2654 C2653 1.412 . S
C2654 C2655 1.388 . S
C2654 C2680 1.490 . S
C2655 C2650 1.397 . S
C2655 C2654 1.388 . S
C2655 C2686 1.519 . S
C2656 C2650 1.492 . S
C2656 C2657 1.363 . S
C2656 C2661 1.390 . S
C2657 H2622 0.930 . S
C2657 C2656 1.363 . S
C2657 C2658 1.372 . S
C2658 H2623 0.930 . S
C2658 C2657 1.372 . S
C2658 C2659 1.383 . S
C2659 C2658 1.383 . S
C2659 C2660 1.395 . S
C2660 H2624 0.930 . S
C2660 C2659 1.395 . S
C2660 C2661 1.362 . S
C2661 H2625 0.930 . S
C2661 C2656 1.390 . S
C2661 C2660 1.362 . S
C2662 C2651 1.492 . S
C2662 C2663 1.377 . S
C2662 C2667 1.397 . S
C2663 H2626 0.931 . S
C2663 C2662 1.377 . S
C2663 C2664 1.376 . S
C2664 H2627 0.930 . S
C2664 C2663 1.376 . S
C2664 C2665 1.376 . S
C2665 C2664 1.376 . S
C2665 C2666 1.378 . S
C2665 C2692 1.486 . S
C2666 H2628 0.930 . S
C2666 C2665 1.378 . S
C2666 C2667 1.376 . S
C2667 H2629 0.929 . S
C2667 C2662 1.397 . S
C2667 C2666 1.376 . S
C2668 C2652 1.509 . S
C2668 C2669 1.391 . S
C2668 C2673 1.386 . S
C2669 H2630 0.930 . S
C2669 C2668 1.391 . S
C2669 C2670 1.375 . S
C2670 H2631 0.931 . S
C2670 C2669 1.375 . S
C2670 C2671 1.375 . S
C2671 C2670 1.375 . S
C2671 C2672 1.361 . S
C2672 H2632 0.930 . S
C2672 C2671 1.361 . S
C2672 C2673 1.399 . S
C2673 H2633 0.929 . S
C2673 C2668 1.386 . S
C2673 C2672 1.399 . S
C2674 C2653 1.485 . S
C2674 C2675 1.394 . S
C2674 C2679 1.360 . S
C2675 H2634 0.931 . S
C2675 C2674 1.394 . S
C2675 C2676 1.372 . S
C2676 H2635 0.930 . S
C2676 C2675 1.372 . S
C2676 C2677 1.397 . S
C2677 C2676 1.397 . S
C2677 C2678 1.390 . S
C2677 C2693 1.476 . S
C2678 H2636 0.930 . S
C2678 C2677 1.390 . S
C2678 C2679 1.366 . S
C2679 H2637 0.932 . S
C2679 C2674 1.360 . S
C2679 C2678 1.366 . S
C2680 C2654 1.490 . S
C2680 C2681 1.380 . S
C2680 C2685 1.386 . S
C2681 H2638 0.930 . S
C2681 C2680 1.380 . S
C2681 C2682 1.381 . S
C2682 H2639 0.929 . S
C2682 C2681 1.381 . S
C2682 C2683 1.371 . S
C2683 C2682 1.371 . S
C2683 C2684 1.380 . S
C2684 H2640 0.931 . S
C2684 C2683 1.380 . S
C2684 C2685 1.387 . S
C2685 H2641 0.930 . S
C2685 C2680 1.386 . S
C2685 C2684 1.387 . S
C2686 C2655 1.519 . S
C2686 C2687 1.377 . S
C2686 C2691 1.361 . S
C2687 H2642 0.929 . S
C2687 C2686 1.377 . S
C2687 C2688 1.386 . S
C2688 H2643 0.931 . S
C2688 C2687 1.386 . S
C2688 C2689 1.363 . S
C2689 C2688 1.363 . S
C2689 C2690 1.385 . S
C2690 H2644 0.930 . S
C2690 C2689 1.385 . S
C2690 C2691 1.396 . S
C2691 H2645 0.929 . S
C2691 C2686 1.361 . S
C2691 C2690 1.396 . S
C2692 O2646 1.300 . S
C2692 O2647 1.209 . S
C2692 C2665 1.486 . S
C2693 O2648 1.199 . S
C2693 O2649 1.297 . S
C2693 C2677 1.476 . S
H2694 O2720 0.856 . S
H2695 O2723 0.854 . S
H2696 C2731 0.930 . S
H2697 C2732 0.930 . S
H2698 C2734 0.930 . S
H2699 C2735 0.930 . S
H2700 C2737 0.931 . S
H2701 C2738 0.930 . S
H2702 C2740 0.930 . S
H2703 C2741 0.929 . S
H2704 C2743 0.930 . S
H2705 C2744 0.931 . S
H2706 C2746 0.930 . S
H2707 C2747 0.929 . S
H2708 C2749 0.931 . S
H2709 C2750 0.930 . S
H2710 C2752 0.930 . S
H2711 C2753 0.932 . S
H2712 C2755 0.930 . S
H2713 C2756 0.929 . S
H2714 C2758 0.931 . S
H2715 C2759 0.930 . S
H2716 C2761 0.929 . S
H2717 C2762 0.931 . S
H2718 C2764 0.930 . S
H2719 C2765 0.929 . S
O2720 H2694 0.856 . S
O2720 C2766 1.300 . S
O2721 C2766 1.209 . S
O2722 C2767 1.199 . S
O2723 H2695 0.854 . S
O2723 C2767 1.297 . S
C2724 C2725 1.404 . S
C2724 C2729 1.397 . S
C2724 C2730 1.492 . S
C2725 C2724 1.404 . S
C2725 C2726 1.396 . S
C2725 C2736 1.492 . S
C2726 C2725 1.396 . S
C2726 C2727 1.397 . S
C2726 C2742 1.509 . S
C2727 C2726 1.397 . S
C2727 C2728 1.412 . S
C2727 C2748 1.485 . S
C2728 C2727 1.412 . S
C2728 C2729 1.388 . S
C2728 C2754 1.490 . S
C2729 C2724 1.397 . S
C2729 C2728 1.388 . S
C2729 C2760 1.519 . S
C2730 C2724 1.492 . S
C2730 C2731 1.363 . S
C2730 C2735 1.390 . S
C2731 H2696 0.930 . S
C2731 C2730 1.363 . S
C2731 C2732 1.372 . S
C2732 H2697 0.930 . S
C2732 C2731 1.372 . S
C2732 C2733 1.383 . S
C2733 C2732 1.383 . S
C2733 C2734 1.395 . S
C2734 H2698 0.930 . S
C2734 C2733 1.395 . S
C2734 C2735 1.362 . S
C2735 H2699 0.930 . S
C2735 C2730 1.390 . S
C2735 C2734 1.362 . S
C2736 C2725 1.492 . S
C2736 C2737 1.377 . S
C2736 C2741 1.397 . S
C2737 H2700 0.931 . S
C2737 C2736 1.377 . S
C2737 C2738 1.376 . S
C2738 H2701 0.930 . S
C2738 C2737 1.376 . S
C2738 C2739 1.376 . S
C2739 C2738 1.376 . S
C2739 C2740 1.378 . S
C2739 C2766 1.486 . S
C2740 H2702 0.930 . S
C2740 C2739 1.378 . S
C2740 C2741 1.376 . S
C2741 H2703 0.929 . S
C2741 C2736 1.397 . S
C2741 C2740 1.376 . S
C2742 C2726 1.509 . S
C2742 C2743 1.391 . S
C2742 C2747 1.386 . S
C2743 H2704 0.930 . S
C2743 C2742 1.391 . S
C2743 C2744 1.375 . S
C2744 H2705 0.931 . S
C2744 C2743 1.375 . S
C2744 C2745 1.375 . S
C2745 C2744 1.375 . S
C2745 C2746 1.361 . S
C2746 H2706 0.930 . S
C2746 C2745 1.361 . S
C2746 C2747 1.399 . S
C2747 H2707 0.929 . S
C2747 C2742 1.386 . S
C2747 C2746 1.399 . S
C2748 C2727 1.485 . S
C2748 C2749 1.394 . S
C2748 C2753 1.360 . S
C2749 H2708 0.931 . S
C2749 C2748 1.394 . S
C2749 C2750 1.372 . S
C2750 H2709 0.930 . S
C2750 C2749 1.372 . S
C2750 C2751 1.397 . S
C2751 C2750 1.397 . S
C2751 C2752 1.390 . S
C2751 C2767 1.476 . S
C2752 H2710 0.930 . S
C2752 C2751 1.390 . S
C2752 C2753 1.366 . S
C2753 H2711 0.932 . S
C2753 C2748 1.360 . S
C2753 C2752 1.366 . S
C2754 C2728 1.490 . S
C2754 C2755 1.380 . S
C2754 C2759 1.386 . S
C2755 H2712 0.930 . S
C2755 C2754 1.380 . S
C2755 C2756 1.381 . S
C2756 H2713 0.929 . S
C2756 C2755 1.381 . S
C2756 C2757 1.371 . S
C2757 C2756 1.371 . S
C2757 C2758 1.380 . S
C2758 H2714 0.931 . S
C2758 C2757 1.380 . S
C2758 C2759 1.387 . S
C2759 H2715 0.930 . S
C2759 C2754 1.386 . S
C2759 C2758 1.387 . S
C2760 C2729 1.519 . S
C2760 C2761 1.377 . S
C2760 C2765 1.361 . S
C2761 H2716 0.929 . S
C2761 C2760 1.377 . S
C2761 C2762 1.386 . S
C2762 H2717 0.931 . S
C2762 C2761 1.386 . S
C2762 C2763 1.363 . S
C2763 C2762 1.363 . S
C2763 C2764 1.385 . S
C2764 H2718 0.930 . S
C2764 C2763 1.385 . S
C2764 C2765 1.396 . S
C2765 H2719 0.929 . S
C2765 C2760 1.361 . S
C2765 C2764 1.396 . S
C2766 O2720 1.300 . S
C2766 O2721 1.209 . S
C2766 C2739 1.486 . S
C2767 O2722 1.199 . S
C2767 O2723 1.297 . S
C2767 C2751 1.476 . S
H2768 O2794 0.856 . S
H2769 O2797 0.854 . S
H2770 C2805 0.930 . S
H2771 C2806 0.930 . S
H2772 C2808 0.930 . S
H2773 C2809 0.930 . S
H2774 C2811 0.931 . S
H2775 C2812 0.930 . S
H2776 C2814 0.930 . S
H2777 C2815 0.929 . S
H2778 C2817 0.930 . S
H2779 C2818 0.931 . S
H2780 C2820 0.930 . S
H2781 C2821 0.929 . S
H2782 C2823 0.931 . S
H2783 C2824 0.930 . S
H2784 C2826 0.930 . S
H2785 C2827 0.932 . S
H2786 C2829 0.930 . S
H2787 C2830 0.929 . S
H2788 C2832 0.931 . S
H2789 C2833 0.930 . S
H2790 C2835 0.929 . S
H2791 C2836 0.931 . S
H2792 C2838 0.930 . S
H2793 C2839 0.929 . S
O2794 H2768 0.856 . S
O2794 C2840 1.300 . S
O2795 C2840 1.209 . S
O2796 C2841 1.199 . S
O2797 H2769 0.854 . S
O2797 C2841 1.297 . S
C2798 C2799 1.404 . S
C2798 C2803 1.397 . S
C2798 C2804 1.492 . S
C2799 C2798 1.404 . S
C2799 C2800 1.396 . S
C2799 C2810 1.492 . S
C2800 C2799 1.396 . S
C2800 C2801 1.397 . S
C2800 C2816 1.509 . S
C2801 C2800 1.397 . S
C2801 C2802 1.412 . S
C2801 C2822 1.485 . S
C2802 C2801 1.412 . S
C2802 C2803 1.388 . S
C2802 C2828 1.490 . S
C2803 C2798 1.397 . S
C2803 C2802 1.388 . S
C2803 C2834 1.519 . S
C2804 C2798 1.492 . S
C2804 C2805 1.363 . S
C2804 C2809 1.390 . S
C2805 H2770 0.930 . S
C2805 C2804 1.363 . S
C2805 C2806 1.372 . S
C2806 H2771 0.930 . S
C2806 C2805 1.372 . S
C2806 C2807 1.383 . S
C2807 C2806 1.383 . S
C2807 C2808 1.395 . S
C2808 H2772 0.930 . S
C2808 C2807 1.395 . S
C2808 C2809 1.362 . S
C2809 H2773 0.930 . S
C2809 C2804 1.390 . S
C2809 C2808 1.362 . S
C2810 C2799 1.492 . S
C2810 C2811 1.377 . S
C2810 C2815 1.397 . S
C2811 H2774 0.931 . S
C2811 C2810 1.377 . S
C2811 C2812 1.376 . S
C2812 H2775 0.930 . S
C2812 C2811 1.376 . S
C2812 C2813 1.376 . S
C2813 C2812 1.376 . S
C2813 C2814 1.378 . S
C2813 C2840 1.486 . S
C2814 H2776 0.930 . S
C2814 C2813 1.378 . S
C2814 C2815 1.376 . S
C2815 H2777 0.929 . S
C2815 C2810 1.397 . S
C2815 C2814 1.376 . S
C2816 C2800 1.509 . S
C2816 C2817 1.391 . S
C2816 C2821 1.386 . S
C2817 H2778 0.930 . S
C2817 C2816 1.391 . S
C2817 C2818 1.375 . S
C2818 H2779 0.931 . S
C2818 C2817 1.375 . S
C2818 C2819 1.375 . S
C2819 C2818 1.375 . S
C2819 C2820 1.361 . S
C2820 H2780 0.930 . S
C2820 C2819 1.361 . S
C2820 C2821 1.399 . S
C2821 H2781 0.929 . S
C2821 C2816 1.386 . S
C2821 C2820 1.399 . S
C2822 C2801 1.485 . S
C2822 C2823 1.394 . S
C2822 C2827 1.360 . S
C2823 H2782 0.931 . S
C2823 C2822 1.394 . S
C2823 C2824 1.372 . S
C2824 H2783 0.930 . S
C2824 C2823 1.372 . S
C2824 C2825 1.397 . S
C2825 C2824 1.397 . S
C2825 C2826 1.390 . S
C2825 C2841 1.476 . S
C2826 H2784 0.930 . S
C2826 C2825 1.390 . S
C2826 C2827 1.366 . S
C2827 H2785 0.932 . S
C2827 C2822 1.360 . S
C2827 C2826 1.366 . S
C2828 C2802 1.490 . S
C2828 C2829 1.380 . S
C2828 C2833 1.386 . S
C2829 H2786 0.930 . S
C2829 C2828 1.380 . S
C2829 C2830 1.381 . S
C2830 H2787 0.929 . S
C2830 C2829 1.381 . S
C2830 C2831 1.371 . S
C2831 C2830 1.371 . S
C2831 C2832 1.380 . S
C2832 H2788 0.931 . S
C2832 C2831 1.380 . S
C2832 C2833 1.387 . S
C2833 H2789 0.930 . S
C2833 C2828 1.386 . S
C2833 C2832 1.387 . S
C2834 C2803 1.519 . S
C2834 C2835 1.377 . S
C2834 C2839 1.361 . S
C2835 H2790 0.929 . S
C2835 C2834 1.377 . S
C2835 C2836 1.386 . S
C2836 H2791 0.931 . S
C2836 C2835 1.386 . S
C2836 C2837 1.363 . S
C2837 C2836 1.363 . S
C2837 C2838 1.385 . S
C2838 H2792 0.930 . S
C2838 C2837 1.385 . S
C2838 C2839 1.396 . S
C2839 H2793 0.929 . S
C2839 C2834 1.361 . S
C2839 C2838 1.396 . S
C2840 O2794 1.300 . S
C2840 O2795 1.209 . S
C2840 C2813 1.486 . S
C2841 O2796 1.199 . S
C2841 O2797 1.297 . S
C2841 C2825 1.476 . S
H2842 O2868 0.856 . S
H2843 O2871 0.854 . S
H2844 C2879 0.930 . S
H2845 C2880 0.930 . S
H2846 C2882 0.930 . S
H2847 C2883 0.930 . S
H2848 C2885 0.931 . S
H2849 C2886 0.930 . S
H2850 C2888 0.930 . S
H2851 C2889 0.929 . S
H2852 C2891 0.930 . S
H2853 C2892 0.931 . S
H2854 C2894 0.930 . S
H2855 C2895 0.929 . S
H2856 C2897 0.931 . S
H2857 C2898 0.930 . S
H2858 C2900 0.930 . S
H2859 C2901 0.932 . S
H2860 C2903 0.930 . S
H2861 C2904 0.929 . S
H2862 C2906 0.931 . S
H2863 C2907 0.930 . S
H2864 C2909 0.929 . S
H2865 C2910 0.931 . S
H2866 C2912 0.930 . S
H2867 C2913 0.929 . S
O2868 H2842 0.856 . S
O2868 C2914 1.300 . S
O2869 C2914 1.209 . S
O2870 C2915 1.199 . S
O2871 H2843 0.854 . S
O2871 C2915 1.297 . S
C2872 C2873 1.404 . S
C2872 C2877 1.397 . S
C2872 C2878 1.492 . S
C2873 C2872 1.404 . S
C2873 C2874 1.396 . S
C2873 C2884 1.492 . S
C2874 C2873 1.396 . S
C2874 C2875 1.397 . S
C2874 C2890 1.509 . S
C2875 C2874 1.397 . S
C2875 C2876 1.412 . S
C2875 C2896 1.485 . S
C2876 C2875 1.412 . S
C2876 C2877 1.388 . S
C2876 C2902 1.490 . S
C2877 C2872 1.397 . S
C2877 C2876 1.388 . S
C2877 C2908 1.519 . S
C2878 C2872 1.492 . S
C2878 C2879 1.363 . S
C2878 C2883 1.390 . S
C2879 H2844 0.930 . S
C2879 C2878 1.363 . S
C2879 C2880 1.372 . S
C2880 H2845 0.930 . S
C2880 C2879 1.372 . S
C2880 C2881 1.383 . S
C2881 C2880 1.383 . S
C2881 C2882 1.395 . S
C2882 H2846 0.930 . S
C2882 C2881 1.395 . S
C2882 C2883 1.362 . S
C2883 H2847 0.930 . S
C2883 C2878 1.390 . S
C2883 C2882 1.362 . S
C2884 C2873 1.492 . S
C2884 C2885 1.377 . S
C2884 C2889 1.397 . S
C2885 H2848 0.931 . S
C2885 C2884 1.377 . S
C2885 C2886 1.376 . S
C2886 H2849 0.930 . S
C2886 C2885 1.376 . S
C2886 C2887 1.376 . S
C2887 C2886 1.376 . S
C2887 C2888 1.378 . S
C2887 C2914 1.486 . S
C2888 H2850 0.930 . S
C2888 C2887 1.378 . S
C2888 C2889 1.376 . S
C2889 H2851 0.929 . S
C2889 C2884 1.397 . S
C2889 C2888 1.376 . S
C2890 C2874 1.509 . S
C2890 C2891 1.391 . S
C2890 C2895 1.386 . S
C2891 H2852 0.930 . S
C2891 C2890 1.391 . S
C2891 C2892 1.375 . S
C2892 H2853 0.931 . S
C2892 C2891 1.375 . S
C2892 C2893 1.375 . S
C2893 C2892 1.375 . S
C2893 C2894 1.361 . S
C2894 H2854 0.930 . S
C2894 C2893 1.361 . S
C2894 C2895 1.399 . S
C2895 H2855 0.929 . S
C2895 C2890 1.386 . S
C2895 C2894 1.399 . S
C2896 C2875 1.485 . S
C2896 C2897 1.394 . S
C2896 C2901 1.360 . S
C2897 H2856 0.931 . S
C2897 C2896 1.394 . S
C2897 C2898 1.372 . S
C2898 H2857 0.930 . S
C2898 C2897 1.372 . S
C2898 C2899 1.397 . S
C2899 C2898 1.397 . S
C2899 C2900 1.390 . S
C2899 C2915 1.476 . S
C2900 H2858 0.930 . S
C2900 C2899 1.390 . S
C2900 C2901 1.366 . S
C2901 H2859 0.932 . S
C2901 C2896 1.360 . S
C2901 C2900 1.366 . S
C2902 C2876 1.490 . S
C2902 C2903 1.380 . S
C2902 C2907 1.386 . S
C2903 H2860 0.930 . S
C2903 C2902 1.380 . S
C2903 C2904 1.381 . S
C2904 H2861 0.929 . S
C2904 C2903 1.381 . S
C2904 C2905 1.371 . S
C2905 C2904 1.371 . S
C2905 C2906 1.380 . S
C2906 H2862 0.931 . S
C2906 C2905 1.380 . S
C2906 C2907 1.387 . S
C2907 H2863 0.930 . S
C2907 C2902 1.386 . S
C2907 C2906 1.387 . S
C2908 C2877 1.519 . S
C2908 C2909 1.377 . S
C2908 C2913 1.361 . S
C2909 H2864 0.929 . S
C2909 C2908 1.377 . S
C2909 C2910 1.386 . S
C2910 H2865 0.931 . S
C2910 C2909 1.386 . S
C2910 C2911 1.363 . S
C2911 C2910 1.363 . S
C2911 C2912 1.385 . S
C2912 H2866 0.930 . S
C2912 C2911 1.385 . S
C2912 C2913 1.396 . S
C2913 H2867 0.929 . S
C2913 C2908 1.361 . S
C2913 C2912 1.396 . S
C2914 O2868 1.300 . S
C2914 O2869 1.209 . S
C2914 C2887 1.486 . S
C2915 O2870 1.199 . S
C2915 O2871 1.297 . S
C2915 C2899 1.476 . S
C49 C2313 1.659 . S
C137 C2393 1.800 . S
C2461 C205 1.758 . S
C196 C2541 2.511 . S
C57 C2615 2.147 . S
C145 C2683 1.758 . S
C313 C2609 2.201 . S
C2689 C401 1.753 . S
C2535 C489 2.163 1_545 S
C469 C2467 3.210 1_545 S
C2319 C293 2.454 . S
C381 C2387 1.684 . S
C577 C2757 1.741 . S
C645 C2837 1.837 . S
C2905 C733 1.774 . S
C724 C1653 2.346 . S
C585 C1727 1.926 . S
C636 C1795 1.826 . S
C841 C1721 1.329 . S
C937 C1801 1.755 . S
C1647 C1025 1.544 . S
C2911 C988 2.423 . S
C2763 C821 1.659 . S
C2831 C900 1.563 . S
C1105 C1869 1.575 . S
C1193 C1949 1.898 . S
C1281 C2017 1.778 . S
C1289 C2097 2.441 . S
C2171 C1113 1.843 . S
C2239 C1201 1.899 . S
C2165 C1369 1.489 . S
C2245 C1457 1.591 . S
C1553 C2091 1.362 . S
C2023 C1516 2.349 . S
C1349 C1875 1.890 . S
C1943 C1437 1.646 . S
C1623 C29 3.722 . S
C117 C1697 2.402 . S
C1783 C225 2.877 . S
C1857 C233 2.225 . S
C1919 C20 2.737 . S
C2005 C108 2.492 . S
C321 C1993 4.208 1_554 S
C409 C1845 3.186 . S
C497 C1931 3.928 1_554 S
C460 C1709 3.246 . S
C1771 C284 3.579 . S
C372 C1635 3.447 . S
C2067 C557 3.231 . S
C665 C2141 2.228 . S
C753 C2227 2.449 . S
C2301 C761 1.146 . S
C548 C2363 2.286 . S
C673 C2449 1.524 . S
C849 C2437 2.765 1_565 S
C929 C2289 1.987 1_455 S
C2375 C1017 3.366 . S
C997 C2153 3.195 . S
C812 C2215 3.040 . S
C2079 C909 3.249 . S
C2511 C1085 2.490 . S
C1173 C2585 1.189 . S
C1261 C2671 2.411 . S
C2745 C1252 2.113 . S
C2807 C1076 2.331 . S
C1164 C2893 2.335 . S
C1377 C2881 3.864 . S
C1465 C2733 3.004 . S
C2819 C1545 3.368 . S
C2597 C1525 1.925 . S
C2659 C1340 3.060 . S
C1428 C2523 2.171 . S
