# Generated by pormake.
# Topology dag, (6,3)-cn, num edge types: 1
# Building blocks:
#     Node 0, Type 0, BuildingBlock: IZENUY_clean_sbu_0, # of connection points: 6
#     Node 1, Type 0, BuildingBlock: IZENUY_clean_sbu_0, # of connection points: 6
#     Node 2, Type 0, BuildingBlock: IZENUY_clean_sbu_0, # of connection points: 6
#     Node 3, Type 0, BuildingBlock: IZENUY_clean_sbu_0, # of connection points: 6
#     Node 4, Type 1, BuildingBlock: CUQRIR_clean_linker_1, # of connection points: 3
#     Node 5, Type 1, BuildingBlock: CUQRIR_clean_linker_1, # of connection points: 3
#     Node 6, Type 1, BuildingBlock: CUQRIR_clean_linker_1, # of connection points: 3
#     Node 7, Type 1, BuildingBlock: CUQRIR_clean_linker_1, # of connection points: 3
#     Node 8, Type 1, BuildingBlock: CUQRIR_clean_linker_1, # of connection points: 3
#     Node 9, Type 1, BuildingBlock: CUQRIR_clean_linker_1, # of connection points: 3
#     Node 10, Type 1, BuildingBlock: CUQRIR_clean_linker_1, # of connection points: 3
#     Node 11, Type 1, BuildingBlock: CUQRIR_clean_linker_1, # of connection points: 3
#     Edge 12, Type (0, 1), BuildingBlock: UVAHIK_clean_linker_0, # of connection points: 2
#     Edge 13, Type (0, 1), BuildingBlock: UVAHIK_clean_linker_0, # of connection points: 2
#     Edge 14, Type (0, 1), BuildingBlock: UVAHIK_clean_linker_0, # of connection points: 2
#     Edge 15, Type (0, 1), BuildingBlock: UVAHIK_clean_linker_0, # of connection points: 2
#     Edge 16, Type (0, 1), BuildingBlock: UVAHIK_clean_linker_0, # of connection points: 2
#     Edge 17, Type (0, 1), BuildingBlock: UVAHIK_clean_linker_0, # of connection points: 2
#     Edge 18, Type (0, 1), BuildingBlock: UVAHIK_clean_linker_0, # of connection points: 2
#     Edge 19, Type (0, 1), BuildingBlock: UVAHIK_clean_linker_0, # of connection points: 2
#     Edge 20, Type (0, 1), BuildingBlock: UVAHIK_clean_linker_0, # of connection points: 2
#     Edge 21, Type (0, 1), BuildingBlock: UVAHIK_clean_linker_0, # of connection points: 2
#     Edge 22, Type (0, 1), BuildingBlock: UVAHIK_clean_linker_0, # of connection points: 2
#     Edge 23, Type (0, 1), BuildingBlock: UVAHIK_clean_linker_0, # of connection points: 2
#     Edge 24, Type (0, 1), BuildingBlock: UVAHIK_clean_linker_0, # of connection points: 2
#     Edge 25, Type (0, 1), BuildingBlock: UVAHIK_clean_linker_0, # of connection points: 2
#     Edge 26, Type (0, 1), BuildingBlock: UVAHIK_clean_linker_0, # of connection points: 2
#     Edge 27, Type (0, 1), BuildingBlock: UVAHIK_clean_linker_0, # of connection points: 2
#     Edge 28, Type (0, 1), BuildingBlock: UVAHIK_clean_linker_0, # of connection points: 2
#     Edge 29, Type (0, 1), BuildingBlock: UVAHIK_clean_linker_0, # of connection points: 2
#     Edge 30, Type (0, 1), BuildingBlock: UVAHIK_clean_linker_0, # of connection points: 2
#     Edge 31, Type (0, 1), BuildingBlock: UVAHIK_clean_linker_0, # of connection points: 2
#     Edge 32, Type (0, 1), BuildingBlock: UVAHIK_clean_linker_0, # of connection points: 2
#     Edge 33, Type (0, 1), BuildingBlock: UVAHIK_clean_linker_0, # of connection points: 2
#     Edge 34, Type (0, 1), BuildingBlock: UVAHIK_clean_linker_0, # of connection points: 2
#     Edge 35, Type (0, 1), BuildingBlock: UVAHIK_clean_linker_0, # of connection points: 2
# Relax obj value: 0.082
# Max RMSD: 0.074
# Mean RMSD: 0.068
data_MOF--net-dag--node1-IZENUY_clean_sbu_0--node2-CUQRIR_clean_linker_1--edge1-UVAHIK_clean_linker_0
_symmetry_space_group_name_H-M    P1
_symmetry_Int_Tables_number       1
_symmetry_cell_setting            triclinic
loop_
_symmetry_equiv_pos_as_xyz
'x, y, z'
_cell_length_a     48.438378
_cell_length_b     49.077182
_cell_length_c     43.856035
_cell_angle_alpha  92.442541
_cell_angle_beta   89.941172
_cell_angle_gamma 89.951249
loop_
_atom_site_label
_atom_site_type_symbol
_atom_site_fract_x
_atom_site_fract_y
_atom_site_fract_z
_atom_type_partial_charge
Fe0 Fe 0.15116 0.88473 0.04011 0.0
Fe1 Fe 0.09235 0.90298 0.02443 0.0
O2 O 0.1166 0.87663 0.02997 0.0
Fe3 Fe 0.10625 0.84195 0.02551 0.0
O4 O 0.11467 0.83586 0.06485 0.0
O5 O 0.15567 0.85512 0.06384 0.0
O6 O 0.14046 0.90345 0.07454 0.0
C7 C 0.123 0.9225 0.07589 0.0
C8 C 0.16017 0.84153 0.00023 0.0
O9 O 0.10679 0.92648 0.05389 0.0
C10 C 0.08066 0.86378 0.97678 0.0
O11 O 0.15277 0.91596 0.0186 0.0
O12 O 0.11302 0.91731 0.99468 0.0
O13 O 0.14011 0.8294 0.01224 0.0
O14 O 0.16443 0.86651 0.00629 0.0
C15 C 0.0599 0.86708 0.05418 0.0
O16 O 0.07368 0.88411 0.99389 0.0
O17 O 0.09711 0.84592 0.9859 0.0
C18 C 0.13782 0.92469 0.99747 0.0
O19 O 0.06984 0.89076 0.05389 0.0
O20 O 0.07045 0.84782 0.03799 0.0
C21 C 0.13801 0.84043 0.07673 0.0
Fe22 Fe 0.64972 0.61218 0.49425 0.0
Fe23 Fe 0.60549 0.65564 0.50924 0.0
O24 O 0.61564 0.62086 0.50561 0.0
Fe25 Fe 0.59171 0.59475 0.51325 0.0
O26 O 0.61329 0.58185 0.54315 0.0
O27 O 0.65177 0.58149 0.51669 0.0
O28 O 0.66419 0.63101 0.52696 0.0
C29 C 0.66 0.65606 0.53287 0.0
C30 C 0.6207 0.57338 0.46143 0.0
O31 O 0.63967 0.66818 0.52134 0.0
C32 C 0.55868 0.6296 0.48257 0.0
O33 O 0.65386 0.64108 0.46955 0.0
O34 O 0.61313 0.66094 0.46945 0.0
O35 O 0.60579 0.57004 0.4847 0.0
O36 O 0.6375 0.59293 0.46077 0.0
C37 C 0.58094 0.63524 0.55955 0.0
O38 O 0.56952 0.64938 0.49769 0.0
O39 O 0.56847 0.60585 0.48384 0.0
C40 C 0.6361 0.65579 0.45693 0.0
O41 O 0.59713 0.65277 0.54929 0.0
O42 O 0.57348 0.61464 0.54328 0.0
C43 C 0.63789 0.57404 0.53935 0.0
Fe44 Fe 0.88888 0.15441 0.00788 0.0
Fe45 Fe 0.90508 0.09394 0.00968 0.0
O46 O 0.88004 0.11941 0.00365 0.0
Fe47 Fe 0.84593 0.10995 0.99317 0.0
O48 O 0.84903 0.12689 0.9574 0.0
O49 O 0.8651 0.16526 0.97808 0.0
O50 O 0.91513 0.15108 0.97853 0.0
C51 C 0.9346 0.134 0.97818 0.0
C52 C 0.83782 0.15554 0.03396 0.0
O53 O 0.93399 0.1135 0.99476 0.0
C54 C 0.85642 0.07351 0.03687 0.0
O55 O 0.91437 0.14989 0.03815 0.0
O56 O 0.91134 0.10662 0.04851 0.0
O57 O 0.82954 0.13989 0.01216 0.0
O58 O 0.86323 0.16013 0.03766 0.0
C59 C 0.87832 0.07072 0.96035 0.0
O60 O 0.88041 0.06997 0.02571 0.0
O61 O 0.84096 0.09236 0.02817 0.0
C62 C 0.91843 0.13069 0.056 0.0
O63 O 0.90088 0.07939 0.97118 0.0
O64 O 0.85567 0.07815 0.97237 0.0
C65 C 0.85467 0.15186 0.95559 0.0
Fe66 Fe 0.40712 0.40739 0.52701 0.0
Fe67 Fe 0.34801 0.3911 0.54298 0.0
O68 O 0.38201 0.3818 0.53189 0.0
Fe69 Fe 0.39106 0.34707 0.52574 0.0
O70 O 0.41769 0.34946 0.55484 0.0
O71 O 0.43656 0.38656 0.53812 0.0
O72 O 0.40409 0.41909 0.56675 0.0
C73 C 0.38171 0.42751 0.57858 0.0
C74 C 0.41823 0.37337 0.47771 0.0
O75 O 0.35871 0.42131 0.56634 0.0
C76 C 0.33969 0.34693 0.49998 0.0
O77 O 0.3825 0.4331 0.51493 0.0
O78 O 0.34333 0.41103 0.50936 0.0
O79 O 0.41576 0.35336 0.49491 0.0
O80 O 0.41148 0.39714 0.48707 0.0
C81 C 0.35653 0.34705 0.57798 0.0
O82 O 0.33125 0.36251 0.52181 0.0
O83 O 0.36509 0.34218 0.49636 0.0
C84 C 0.35858 0.43095 0.50352 0.0
O85 O 0.35039 0.37199 0.57727 0.0
O86 O 0.36794 0.33473 0.55533 0.0
C87 C 0.43768 0.36582 0.55419 0.0
C88 C 0.12778 0.18371 0.31178 0.0
N89 N 0.11819 0.16226 0.29453 0.0
N90 N 0.15006 0.17624 0.32815 0.0
C91 C 0.1171 0.21243 0.31046 0.0
C92 C 0.15362 0.14949 0.32016 0.0
N93 N 0.13432 0.141 0.2996 0.0
C94 C 0.1751 0.13144 0.33365 0.0
H95 H 0.10631 0.21569 0.28862 0.0
H96 H 0.1342 0.22735 0.31324 0.0
H97 H 0.10224 0.21625 0.32943 0.0
H98 H 0.16769 0.11007 0.33404 0.0
H99 H 0.18041 0.13882 0.35718 0.0
H100 H 0.1941 0.13183 0.31953 0.0
C101 C 0.35753 0.65248 0.82621 0.0
N102 N 0.37921 0.64351 0.80911 0.0
N103 N 0.36327 0.67704 0.8401 0.0
C104 C 0.32997 0.6384 0.82732 0.0
C105 C 0.38915 0.68276 0.83042 0.0
N106 N 0.3988 0.66241 0.81155 0.0
C107 C 0.40526 0.70787 0.83988 0.0
H108 H 0.31297 0.65355 0.82691 0.0
H109 H 0.32843 0.62758 0.84895 0.0
H110 H 0.32733 0.62322 0.8081 0.0
H111 H 0.3988 0.71574 0.86289 0.0
H112 H 0.40142 0.72392 0.82334 0.0
H113 H 0.42773 0.70341 0.83993 0.0
C114 C 0.75725 0.83138 0.21379 0.0
N115 N 0.77913 0.84125 0.19868 0.0
N116 N 0.7639 0.80757 0.22655 0.0
C117 C 0.72905 0.84423 0.21454 0.0
C118 C 0.79071 0.80342 0.2186 0.0
N119 N 0.7999 0.82386 0.20153 0.0
C120 C 0.80863 0.78092 0.22993 0.0
H121 H 0.72782 0.85911 0.23425 0.0
H122 H 0.71275 0.8286 0.21704 0.0
H123 H 0.72525 0.85536 0.19344 0.0
H124 H 0.80731 0.76304 0.21365 0.0
H125 H 0.80164 0.77463 0.25267 0.0
H126 H 0.83054 0.78742 0.2315 0.0
C127 C 0.74092 0.32641 0.70699 0.0
N128 N 0.71904 0.33513 0.69096 0.0
N129 N 0.73658 0.3007 0.71601 0.0
C130 C 0.76554 0.34365 0.71579 0.0
C131 C 0.7112 0.29414 0.70499 0.0
N132 N 0.7005 0.31515 0.68985 0.0
C133 C 0.69628 0.26792 0.71057 0.0
H134 H 0.77214 0.35609 0.69659 0.0
H135 H 0.78315 0.33089 0.72283 0.0
H136 H 0.75973 0.35783 0.73512 0.0
H137 H 0.68623 0.26965 0.73332 0.0
H138 H 0.71073 0.25045 0.71056 0.0
H139 H 0.68023 0.26364 0.693 0.0
C140 C 0.61601 0.31512 0.21412 0.0
N141 N 0.60717 0.33558 0.23338 0.0
N142 N 0.642 0.32011 0.2044 0.0
C143 C 0.59908 0.29073 0.20407 0.0
C144 C 0.64875 0.34424 0.21857 0.0
N145 N 0.62755 0.35367 0.23615 0.0
C146 C 0.67691 0.35712 0.21764 0.0
H147 H 0.60261 0.27417 0.22007 0.0
H148 H 0.60526 0.28317 0.18085 0.0
H149 H 0.57675 0.2958 0.20426 0.0
H150 H 0.67742 0.37156 0.19887 0.0
H151 H 0.69318 0.34151 0.21329 0.0
H152 H 0.68155 0.36863 0.23935 0.0
C153 C 0.20548 0.19843 0.81875 0.0
N154 N 0.1963 0.17912 0.83735 0.0
N155 N 0.23217 0.1937 0.81098 0.0
C156 C 0.18802 0.22122 0.8073 0.0
C157 C 0.23886 0.17073 0.82532 0.0
N158 N 0.21701 0.16181 0.84134 0.0
C159 C 0.26632 0.15655 0.82266 0.0
H160 H 0.16745 0.2133 0.80017 0.0
H161 H 0.19785 0.23141 0.78802 0.0
H162 H 0.18479 0.23671 0.82612 0.0
H163 H 0.28322 0.17147 0.81993 0.0
H164 H 0.26613 0.14254 0.80213 0.0
H165 H 0.27044 0.14447 0.84299 0.0
C166 C 0.25445 0.67713 0.33515 0.0
N167 N 0.27671 0.6668 0.34921 0.0
N168 N 0.26214 0.69729 0.31672 0.0
C169 C 0.22512 0.66874 0.34092 0.0
C170 C 0.28994 0.69881 0.32016 0.0
N171 N 0.29875 0.68031 0.33997 0.0
C172 C 0.30873 0.71645 0.30209 0.0
H173 H 0.21954 0.65168 0.3247 0.0
H174 H 0.21071 0.68594 0.33756 0.0
H175 H 0.22275 0.6616 0.36445 0.0
H176 H 0.31087 0.73661 0.31428 0.0
H177 H 0.30009 0.71963 0.27909 0.0
H178 H 0.32956 0.70721 0.29958 0.0
C179 C 0.85232 0.84451 0.71371 0.0
N180 N 0.87364 0.85369 0.73115 0.0
N181 N 0.85859 0.82005 0.69985 0.0
C182 C 0.82465 0.85836 0.71212 0.0
C183 C 0.8844 0.81461 0.70992 0.0
N184 N 0.89351 0.83505 0.72898 0.0
C185 C 0.90105 0.7898 0.70047 0.0
H186 H 0.8078 0.84305 0.71127 0.0
H187 H 0.82372 0.86993 0.69096 0.0
H188 H 0.82127 0.87288 0.73183 0.0
H189 H 0.89508 0.78206 0.67726 0.0
H190 H 0.89715 0.77353 0.71674 0.0
H191 H 0.92344 0.79455 0.70089 0.0
C192 C 0.09843 0.95568 0.11109 0.0
C193 C 0.12279 0.94184 0.10259 0.0
C194 C 0.09827 0.9745 0.1359 0.0
C195 C 0.14072 -0.00014 0.20271 0.0
H196 H 0.09432 0.06384 0.19666 0.0
C197 C 0.15609 0.10385 0.26845 0.0
C198 C 0.13275 0.11483 0.28349 0.0
C199 C 0.15394 0.08006 0.24997 0.0
C200 C 0.10713 0.04591 0.19877 0.0
H201 H 0.16607 0.93667 0.11331 0.0
H202 H 0.1663 0.97052 0.15548 0.0
H203 H 0.09252 0.02795 0.15671 0.0
H204 H 0.08916 0.10925 0.29196 0.0
H205 H 0.08505 0.06815 0.25834 0.0
H206 H 0.15645 0.01909 0.24401 0.0
C207 C 0.14697 0.96626 0.14387 0.0
C208 C 0.10604 0.0252 0.17597 0.0
C209 C 0.14695 0.94697 0.11949 0.0
C210 C 0.10735 0.10123 0.28035 0.0
C211 C 0.10504 0.0778 0.26128 0.0
C212 C 0.14221 0.0209 0.22516 0.0
C213 C 0.12265 0.98042 0.15236 0.0
C214 C 0.12293 0.00191 0.17749 0.0
C215 C 0.12827 0.06723 0.24571 0.0
C216 C 0.1255 0.0441 0.22327 0.0
H217 H 0.0794 0.95179 0.09869 0.0
H218 H 0.07896 0.98437 0.1421 0.0
H219 H 0.15361 0.98206 0.20515 0.0
H220 H 0.17573 0.1143 0.26996 0.0
H221 H 0.17205 0.07242 0.23787 0.0
C222 C 0.56062 0.66589 0.60081 0.0
C223 C 0.56835 0.6397 0.58991 0.0
C224 C 0.54602 0.66937 0.62826 0.0
C225 C 0.5029 0.62922 0.68054 0.0
H226 H 0.50567 0.69561 0.73165 0.0
C227 C 0.44208 0.64138 0.79276 0.0
C228 C 0.42309 0.66294 0.7927 0.0
C229 C 0.46329 0.63967 0.77118 0.0
C230 C 0.50484 0.67696 0.71756 0.0
H231 H 0.5688 0.59688 0.59986 0.0
H232 H 0.54492 0.60295 0.64845 0.0
H233 H 0.53714 0.68988 0.68819 0.0
H234 H 0.41195 0.70034 0.77146 0.0
H235 H 0.44985 0.698 0.73426 0.0
H236 H 0.47095 0.6162 0.71035 0.0
C237 C 0.54871 0.62076 0.63534 0.0
C238 C 0.52267 0.6737 0.69253 0.0
C239 C 0.56262 0.61725 0.6076 0.0
C240 C 0.42662 0.68371 0.77205 0.0
C241 C 0.44816 0.68232 0.75081 0.0
C242 C 0.48555 0.63226 0.70584 0.0
C243 C 0.53944 0.64675 0.64566 0.0
C244 C 0.52174 0.64988 0.67346 0.0
C245 C 0.46617 0.65987 0.74967 0.0
C246 C 0.48617 0.65623 0.72437 0.0
H247 H 0.56475 0.68351 0.58745 0.0
H248 H 0.53903 0.68966 0.63515 0.0
H249 H 0.50088 0.6109 0.66608 0.0
H250 H 0.44001 0.62552 0.80899 0.0
H251 H 0.4771 0.62228 0.77086 0.0
C252 C 0.86326 0.03588 0.07271 0.0
C253 C 0.84526 0.05309 0.05738 0.0
C254 C 0.85284 0.0153 0.09046 0.0
C255 C 0.79418 0.97009 0.09582 0.0
H256 H 0.82347 0.95567 0.17585 0.0
C257 C 0.78746 0.86599 0.15201 0.0
C258 C 0.78049 0.8663 0.18302 0.0
C259 C 0.79164 0.89044 0.13752 0.0
C260 C 0.8149 0.95963 0.15366 0.0
H261 H 0.80222 0.06262 0.04912 0.0
H262 H 0.78405 0.02621 0.07981 0.0
H263 H 0.83833 0.99637 0.15001 0.0
H264 H 0.77192 0.89173 0.22333 0.0
H265 H 0.77946 0.93483 0.19807 0.0
H266 H 0.77143 0.93287 0.09908 0.0
C267 C 0.8062 0.02881 0.0781 0.0
C268 C 0.82354 0.98276 0.13883 0.0
C269 C 0.81661 0.04969 0.0607 0.0
C270 C 0.77705 0.89128 0.19927 0.0
C271 C 0.78156 0.91575 0.18493 0.0
C272 C 0.78585 0.94675 0.11047 0.0
C273 C 0.82424 0.0113 0.09291 0.0
C274 C 0.81346 0.98805 0.10966 0.0
C275 C 0.78922 0.91552 0.15401 0.0
C276 C 0.79633 0.9412 0.1394 0.0
H277 H 0.88543 0.0381 0.0707 0.0
H278 H 0.86719 0.00194 0.10148 0.0
H279 H 0.78629 0.97362 0.07322 0.0
H280 H 0.79029 0.84679 0.1393 0.0
H281 H 0.7978 0.8897 0.11374 0.0
C282 C 0.46471 0.34213 0.59405 0.0
C283 C 0.46397 0.35917 0.56915 0.0
C284 C 0.48982 0.33645 0.60825 0.0
C285 C 0.56237 0.36169 0.61407 0.0
H286 H 0.5765 0.29063 0.64627 0.0
C287 C 0.67092 0.32488 0.64604 0.0
C288 C 0.67357 0.31681 0.67619 0.0
C289 C 0.64484 0.32901 0.63357 0.0
C290 C 0.57268 0.31057 0.63745 0.0
H291 H 0.48892 0.38289 0.53892 0.0
H292 H 0.53253 0.37214 0.56259 0.0
H293 H 0.5317 0.29996 0.62325 0.0
H294 H 0.65137 0.30652 0.71695 0.0
H295 H 0.60544 0.31252 0.69459 0.0
H296 H 0.60378 0.3718 0.6273 0.0
C297 C 0.51382 0.36396 0.57214 0.0
C298 C 0.54701 0.31603 0.62445 0.0
C299 C 0.48877 0.37 0.55837 0.0
C300 C 0.64973 0.31218 0.69344 0.0
C301 C 0.62359 0.31575 0.68076 0.0
C302 C 0.58812 0.35604 0.62651 0.0
C303 C 0.51471 0.34737 0.59749 0.0
C304 C 0.54158 0.34163 0.6124 0.0
C305 C 0.62098 0.32462 0.65089 0.0
C306 C 0.59352 0.33043 0.63816 0.0
H307 H 0.44585 0.3336 0.60289 0.0
H308 H 0.48961 0.32387 0.62793 0.0
H309 H 0.55879 0.38188 0.60585 0.0
H310 H 0.68909 0.32842 0.63239 0.0
H311 H 0.64327 0.33572 0.61042 0.0
C312 C 0.60857 0.52683 0.44039 0.0
C313 C 0.62041 0.5525 0.43612 0.0
C314 C 0.60885 0.50674 0.41693 0.0
C315 C 0.64427 0.48698 0.34427 0.0
H316 H 0.58345 0.43577 0.33666 0.0
C317 C 0.63336 0.40308 0.24696 0.0
C318 C 0.62796 0.37694 0.25725 0.0
C319 C 0.63248 0.42579 0.26733 0.0
C320 C 0.60057 0.44993 0.3386 0.0
H321 H 0.6413 0.57747 0.40364 0.0
H322 H 0.64104 0.54262 0.36225 0.0
H323 H 0.58082 0.47375 0.37418 0.0
H324 H 0.61857 0.35362 0.29669 0.0
H325 H 0.61606 0.39337 0.33222 0.0
H326 H 0.66368 0.46313 0.30812 0.0
C327 C 0.63217 0.53775 0.38403 0.0
C328 C 0.59918 0.47161 0.36018 0.0
C329 C 0.6322 0.55779 0.40769 0.0
C330 C 0.62222 0.37371 0.28823 0.0
C331 C 0.62083 0.39637 0.30846 0.0
C332 C 0.64545 0.46547 0.32234 0.0
C333 C 0.62061 0.51191 0.38841 0.0
C334 C 0.62124 0.49013 0.36373 0.0
C335 C 0.62581 0.42262 0.29816 0.0
C336 C 0.62383 0.44652 0.31972 0.0
H337 H 0.59951 0.52201 0.4621 0.0
H338 H 0.60029 0.48694 0.42145 0.0
H339 H 0.66179 0.50059 0.34656 0.0
H340 H 0.63777 0.40588 0.22309 0.0
H341 H 0.63636 0.44585 0.25889 0.0
C342 C 0.96802 0.16588 0.95475 0.0
C343 C 0.95975 0.13916 0.96038 0.0
C344 C 0.99289 0.17063 0.93966 0.0
C345 C 0.05932 0.13609 0.91882 0.0
H346 H 0.06863 0.19831 0.86815 0.0
C347 C 0.15433 0.15128 0.84199 0.0
C348 C 0.16849 0.17582 0.84817 0.0
C349 C 0.12817 0.14722 0.85435 0.0
C350 C 0.06623 0.18091 0.88232 0.0
H351 H 0.97013 0.09641 0.95342 0.0
H352 H 0.01268 0.10449 0.92575 0.0
H353 H 0.02373 0.18985 0.8913 0.0
H354 H 0.16644 0.21559 0.87124 0.0
H355 H 0.11985 0.20901 0.89184 0.0
H356 H 0.10168 0.12679 0.90881 0.0
C357 C 0.00077 0.12194 0.93408 0.0
C358 C 0.0406 0.17611 0.89577 0.0
C359 C 0.97625 0.11725 0.94973 0.0
C360 C 0.15568 0.19667 0.86591 0.0
C361 C 0.12922 0.19286 0.87774 0.0
C362 C 0.08471 0.1406 0.90487 0.0
C363 C 0.00973 0.14871 0.92931 0.0
C364 C 0.03681 0.15367 0.91434 0.0
C365 C 0.11548 0.16793 0.87243 0.0
C366 C 0.08839 0.16309 0.88664 0.0
H367 H 0.95574 0.18316 0.9629 0.0
H368 H 0.99919 0.19154 0.9369 0.0
H369 H 0.05755 0.11901 0.93353 0.0
H370 H 0.16372 0.13514 0.82794 0.0
H371 H 0.11783 0.1279 0.84979 0.0
C372 C 0.32438 0.45168 0.46814 0.0
C373 C 0.34713 0.45445 0.48784 0.0
C374 C 0.31403 0.47441 0.45357 0.0
C375 C 0.33445 0.54472 0.43421 0.0
H376 H 0.25606 0.55467 0.42048 0.0
C377 C 0.29109 0.64615 0.39679 0.0
C378 C 0.27733 0.64399 0.3687 0.0
C379 C 0.29635 0.62287 0.41301 0.0
C380 C 0.27798 0.55203 0.42424 0.0
H381 H 0.37616 0.48327 0.50873 0.0
H382 H 0.35767 0.52264 0.48452 0.0
H383 H 0.27237 0.51361 0.44482 0.0
H384 H 0.25666 0.61653 0.33633 0.0
H385 H 0.26494 0.5757 0.36537 0.0
H386 H 0.33995 0.5834 0.41438 0.0
C387 C 0.34838 0.50296 0.47914 0.0
C388 C 0.28737 0.52849 0.43791 0.0
C389 C 0.35894 0.48033 0.4932 0.0
C390 C 0.26703 0.61859 0.35816 0.0
C391 C 0.27186 0.59533 0.37464 0.0
C392 C 0.32504 0.56833 0.42111 0.0
C393 C 0.32604 0.50032 0.45882 0.0
C394 C 0.31575 0.52465 0.44324 0.0
C395 C 0.2874 0.5972 0.40163 0.0
C396 C 0.29676 0.57226 0.41616 0.0
H397 H 0.31488 0.43194 0.46365 0.0
H398 H 0.29694 0.47157 0.43786 0.0
H399 H 0.35648 0.54217 0.43709 0.0
H400 H 0.29893 0.66566 0.40536 0.0
H401 H 0.30821 0.62477 0.43393 0.0
C402 C 0.05957 0.88243 0.93035 0.0
C403 C 0.06694 0.85975 0.94696 0.0
C404 C 0.04484 0.87906 0.90313 0.0
C405 C 0.01959 0.82631 0.8453 0.0
H406 H 0.96512 0.88218 0.83047 0.0
C407 C 0.92225 0.81431 0.7681 0.0
C408 C 0.9179 0.83513 0.74768 0.0
C409 C 0.94395 0.81616 0.78907 0.0
C410 C 0.98046 0.86657 0.83418 0.0
H411 H 0.06525 0.81572 0.94806 0.0
H412 H 0.03818 0.80977 0.90142 0.0
H413 H 0.99587 0.88776 0.87397 0.0
H414 H 0.93356 0.87311 0.73152 0.0
H415 H 0.97084 0.87714 0.76926 0.0
H416 H 0.00255 0.80451 0.80619 0.0
C417 C 0.04452 0.83017 0.90867 0.0
C418 C 0.99828 0.8698 0.85902 0.0
C419 C 0.0599 0.83354 0.93554 0.0
C420 C 0.93621 0.85723 0.74762 0.0
C421 C 0.95755 0.85939 0.76895 0.0
C422 C 0.00129 0.82285 0.82077 0.0
C423 C 0.03641 0.85295 0.89229 0.0
C424 C 0.01814 0.84973 0.865 0.0
C425 C 0.96128 0.83909 0.79018 0.0
C426 C 0.98161 0.84298 0.81506 0.0
H427 H 0.06516 0.90284 0.93849 0.0
H428 H 0.03984 0.89705 0.8908 0.0
H429 H 0.03484 0.81061 0.84875 0.0
H430 H 0.90813 0.79726 0.76867 0.0
H431 H 0.94633 0.80038 0.8054 0.0
C432 C 0.90019 0.04695 0.91465 0.0
C433 C 0.87826 0.04937 0.93555 0.0
C434 C 0.89971 0.02679 0.89107 0.0
C435 C 0.85173 0.9774 0.85073 0.0
H436 H 0.91997 0.94342 0.82255 0.0
C437 C 0.862 0.87389 0.78173 0.0
C438 C 0.87328 0.87661 0.7526 0.0
C439 C 0.86239 0.8959 0.80302 0.0
C440 C 0.90083 0.95291 0.8302 0.0
H441 H 0.83903 0.0322 0.94873 0.0
H442 H 0.83879 0.99638 0.90892 0.0
H443 H 0.9214 0.97983 0.8623 0.0
H444 H 0.89343 0.90386 0.72228 0.0
H445 H 0.8952 0.94242 0.76014 0.0
H446 H 0.83127 0.94928 0.8195 0.0
C447 C 0.85586 0.0106 0.90963 0.0
C448 C 0.90157 0.9739 0.85279 0.0
C449 C 0.85607 0.03106 0.93271 0.0
C450 C 0.88483 0.90155 0.74482 0.0
C451 C 0.88585 0.92339 0.76633 0.0
C452 C 0.851 0.95604 0.82866 0.0
C453 C 0.87755 0.00825 0.88828 0.0
C454 C 0.877 0.9864 0.8635 0.0
C455 C 0.87458 0.92069 0.79554 0.0
C456 C 0.87551 0.94366 0.81829 0.0
H457 H 0.91748 0.06093 0.91621 0.0
H458 H 0.91659 0.02602 0.87487 0.0
H459 H 0.8324 0.98687 0.85766 0.0
H460 H 0.85304 0.85468 0.7879 0.0
H461 H 0.85361 0.89348 0.82547 0.0
C462 C 0.43521 0.39089 0.42804 0.0
C463 C 0.43225 0.36925 0.4478 0.0
C464 C 0.44973 0.3872 0.40058 0.0
C465 C 0.47842 0.33372 0.34652 0.0
H466 H 0.52989 0.39071 0.32641 0.0
C467 C 0.57384 0.31643 0.26911 0.0
C468 C 0.58144 0.33724 0.24984 0.0
C469 C 0.55149 0.32003 0.28906 0.0
C470 C 0.51527 0.37479 0.33137 0.0
H471 H 0.44169 0.32655 0.45372 0.0
H472 H 0.46739 0.32032 0.40635 0.0
H473 H 0.49864 0.39793 0.36949 0.0
H474 H 0.57112 0.37736 0.23488 0.0
H475 H 0.53197 0.38389 0.26992 0.0
H476 H 0.49591 0.31025 0.30894 0.0
C477 C 0.45815 0.34004 0.41174 0.0
C478 C 0.49732 0.37893 0.35608 0.0
C479 C 0.44356 0.34369 0.43909 0.0
C480 C 0.56555 0.36114 0.24969 0.0
C481 C 0.54334 0.36488 0.2698 0.0
C482 C 0.4965 0.32953 0.32189 0.0
C483 C 0.46168 0.36181 0.39228 0.0
C484 C 0.47896 0.35829 0.36428 0.0
C485 C 0.53649 0.34461 0.29021 0.0
C486 C 0.51539 0.34988 0.31432 0.0
H487 H 0.42655 0.41079 0.43391 0.0
H488 H 0.45169 0.4043 0.38592 0.0
H489 H 0.46421 0.31758 0.35184 0.0
H490 H 0.58616 0.29807 0.26995 0.0
H491 H 0.54693 0.30418 0.30474 0.0
C492 C 0.17616 0.95503 0.98084 0.0
C493 C 0.1485 0.9465 0.97832 0.0
C494 C 0.18563 0.97719 0.96479 0.0
C495 C 0.16023 0.0397 0.93188 0.0
H496 H 0.23149 0.04092 0.89151 0.0
C497 C 0.22017 0.11184 0.84388 0.0
C498 C 0.21524 0.13743 0.85833 0.0
C499 C 0.21453 0.08797 0.85903 0.0
C500 C 0.21153 0.04082 0.90266 0.0
H501 H 0.10942 0.95394 0.95592 0.0
H502 H 0.126 0.9926 0.928 0.0
H503 H 0.21604 0.99932 0.91526 0.0
H504 H 0.20177 0.1585 0.89996 0.0
H505 H 0.19174 0.11677 0.92666 0.0
H506 H 0.15556 0.08106 0.9192 0.0
C507 C 0.14024 0.9823 0.94269 0.0
C508 C 0.20277 0.0171 0.91638 0.0
C509 C 0.1308 0.96005 0.95856 0.0
C510 C 0.20563 0.13888 0.88851 0.0
C511 C 0.19977 0.11508 0.90359 0.0
C512 C 0.16907 0.06343 0.91842 0.0
C513 C 0.16762 0.99137 0.94601 0.0
C514 C 0.17698 0.01629 0.93104 0.0
C515 C 0.20365 0.08938 0.88879 0.0
C516 C 0.1948 0.06426 0.90367 0.0
H517 H 0.19039 0.94498 0.99574 0.0
H518 H 0.20681 0.9838 0.96792 0.0
H519 H 0.14039 0.0398 0.94331 0.0
H520 H 0.2271 0.11035 0.8204 0.0
H521 H 0.21747 0.06847 0.84696 0.0
C522 C 0.51998 0.61253 0.44869 0.0
C523 C 0.53299 0.63415 0.46511 0.0
C524 C 0.49563 0.61697 0.43249 0.0
C525 C 0.4539 0.67174 0.39934 0.0
H526 H 0.39406 0.61963 0.40388 0.0
C527 C 0.3421 0.69614 0.36393 0.0
C528 C 0.32679 0.67533 0.34906 0.0
C529 C 0.36835 0.69075 0.37541 0.0
C530 C 0.41071 0.63419 0.402 0.0
H531 H 0.53059 0.67747 0.47714 0.0
H532 H 0.4881 0.68507 0.44928 0.0
H533 H 0.43775 0.6107 0.42917 0.0
H534 H 0.32694 0.63303 0.33324 0.0
H535 H 0.37295 0.62336 0.35336 0.0
H536 H 0.4267 0.69541 0.37254 0.0
C537 C 0.49687 0.66475 0.44856 0.0
C538 C 0.43576 0.62907 0.41651 0.0
C539 C 0.52118 0.66032 0.46475 0.0
C540 C 0.33842 0.64925 0.34494 0.0
C541 C 0.36461 0.64376 0.35655 0.0
C542 C 0.42885 0.67687 0.38488 0.0
C543 C 0.48376 0.64314 0.43228 0.0
C544 C 0.45758 0.64791 0.4156 0.0
C545 C 0.37975 0.66438 0.37226 0.0
C546 C 0.40688 0.65827 0.38625 0.0
H547 H 0.52858 0.59214 0.44833 0.0
H548 H 0.48622 0.59994 0.41989 0.0
H549 H 0.47044 0.68644 0.39773 0.0
H550 H 0.33329 0.71631 0.36749 0.0
H551 H 0.37932 0.707 0.38768 0.0
C552 C 0.40449 0.44963 0.62469 0.0
C553 C 0.38238 0.44832 0.60393 0.0
C554 C 0.40512 0.46991 0.64815 0.0
C555 C 0.38608 0.53892 0.66607 0.0
H556 H 0.38052 0.52192 0.75137 0.0
C557 C 0.36763 0.62367 0.75843 0.0
C558 C 0.37929 0.62086 0.78728 0.0
C559 C 0.36859 0.60207 0.73666 0.0
C560 C 0.38264 0.52712 0.72775 0.0
H561 H 0.34382 0.4673 0.59122 0.0
H562 H 0.34552 0.50316 0.63156 0.0
H563 H 0.38258 0.48498 0.71227 0.0
H564 H 0.40072 0.59381 0.81667 0.0
H565 H 0.40392 0.55626 0.77828 0.0
H566 H 0.38715 0.58084 0.68101 0.0
C567 C 0.36201 0.48824 0.62993 0.0
C568 C 0.38366 0.5059 0.70542 0.0
C569 C 0.36102 0.46766 0.607 0.0
C570 C 0.39172 0.59618 0.79435 0.0
C571 C 0.39327 0.5747 0.77241 0.0
C572 C 0.38568 0.56011 0.68835 0.0
C573 C 0.38404 0.48952 0.65065 0.0
C574 C 0.385 0.5117 0.67443 0.0
C575 C 0.38176 0.57735 0.74316 0.0
C576 C 0.38349 0.55458 0.71952 0.0
H577 H 0.42117 0.43493 0.62285 0.0
H578 H 0.42232 0.47063 0.66395 0.0
H579 H 0.38731 0.54377 0.64223 0.0
H580 H 0.35783 0.64266 0.75285 0.0
H581 H 0.35883 0.60479 0.71481 0.0
C582 C 0.02051 0.83706 0.06849 0.0
C583 C 0.03419 0.86229 0.07148 0.0
C584 C 0.99592 0.83271 0.08421 0.0
C585 C 0.93802 0.86984 0.12214 0.0
H586 H 0.92281 0.79963 0.15589 0.0
C587 C 0.84213 0.8513 0.19654 0.0
C588 C 0.82732 0.82729 0.18963 0.0
C589 C 0.86804 0.85539 0.18351 0.0
C590 C 0.92669 0.81927 0.14638 0.0
H591 H 0.03301 0.90254 0.09395 0.0
H592 H 0.99033 0.89478 0.12173 0.0
H593 H 0.96697 0.80727 0.13085 0.0
H594 H 0.82778 0.78854 0.16439 0.0
H595 H 0.8734 0.79537 0.14167 0.0
H596 H 0.89774 0.88183 0.13774 0.0
C597 C 0.99834 0.87853 0.10674 0.0
C598 C 0.95197 0.82366 0.13199 0.0
C599 C 0.02289 0.88293 0.09092 0.0
C600 C 0.83907 0.80709 0.17012 0.0
C601 C 0.86508 0.81104 0.15722 0.0
C602 C 0.91281 0.86549 0.13664 0.0
C603 C 0.98446 0.85341 0.10344 0.0
C604 C 0.95789 0.84895 0.11955 0.0
C605 C 0.87973 0.83537 0.16353 0.0
C606 C 0.90681 0.84013 0.1488 0.0
H607 H 0.02859 0.82072 0.05367 0.0
H608 H 0.9856 0.81325 0.08078 0.0
H609 H 0.94167 0.88941 0.11236 0.0
H610 H 0.83353 0.86694 0.21191 0.0
H611 H 0.87899 0.87416 0.18916 0.0
C612 C 0.67513 0.54099 0.55212 0.0
C613 C 0.64934 0.55294 0.55898 0.0
C614 C 0.68496 0.51942 0.56881 0.0
C615 C 0.67674 0.48388 0.64072 0.0
H616 H 0.7044 0.42143 0.59282 0.0
C617 C 0.69259 0.37795 0.69087 0.0
C618 C 0.71476 0.36197 0.67991 0.0
C619 C 0.68656 0.40278 0.67793 0.0
C620 C 0.69722 0.43883 0.60665 0.0
H621 H 0.61423 0.55234 0.58974 0.0
H622 H 0.63146 0.5146 0.61888 0.0
H623 H 0.69055 0.46231 0.56735 0.0
H624 H 0.74822 0.3591 0.64738 0.0
H625 H 0.73854 0.40309 0.62533 0.0
H626 H 0.68337 0.46033 0.68006 0.0
C627 C 0.64404 0.52199 0.60055 0.0
C628 C 0.68921 0.46226 0.592 0.0
C629 C 0.63412 0.54352 0.58374 0.0
C630 C 0.73129 0.37142 0.65638 0.0
C631 C 0.72544 0.39636 0.64356 0.0
C632 C 0.68493 0.46046 0.65543 0.0
C633 C 0.66932 0.50939 0.59287 0.0
C634 C 0.67875 0.48499 0.60884 0.0
C635 C 0.70272 0.41215 0.65383 0.0
C636 C 0.69512 0.43758 0.63854 0.0
H637 H 0.68752 0.54784 0.53335 0.0
H638 H 0.70471 0.51039 0.56266 0.0
H639 H 0.66901 0.50119 0.65431 0.0
H640 H 0.67955 0.37077 0.70891 0.0
H641 H 0.66868 0.41416 0.68613 0.0
C642 C 0.94548 0.16232 0.09091 0.0
C643 C 0.93501 0.13605 0.08402 0.0
C644 C 0.96323 0.16703 0.11563 0.0
C645 C 0.98822 0.13883 0.18737 0.0
H646 H 0.05412 0.18059 0.17081 0.0
C647 C 0.10337 0.15731 0.24098 0.0
C648 C 0.09689 0.16282 0.27177 0.0
C649 C 0.0825 0.15585 0.21905 0.0
C650 C 0.03584 0.16887 0.17577 0.0
H651 H 0.93409 0.09437 0.09867 0.0
H652 H 0.9652 0.10265 0.14184 0.0
H653 H 0.01902 0.17421 0.13136 0.0
H654 H 0.06413 0.17162 0.30411 0.0
H655 H 0.02722 0.16925 0.26563 0.0
H656 H 0.00543 0.13304 0.23164 0.0
C657 C 0.95956 0.11959 0.12808 0.0
C658 C 0.0156 0.16544 0.1533 0.0
C659 C 0.94184 0.11484 0.10324 0.0
C660 C 0.06935 0.16743 0.28036 0.0
C661 C 0.04838 0.16582 0.25844 0.0
C662 C 0.00842 0.14242 0.20997 0.0
C663 C 0.97087 0.14564 0.13417 0.0
C664 C 0.99166 0.15021 0.15874 0.0
C665 C 0.05474 0.15985 0.22756 0.0
C666 C 0.03257 0.15725 0.20428 0.0
H667 H 0.9405 0.17922 0.07678 0.0
H668 H 0.97125 0.18742 0.12004 0.0
H669 H 0.9699 0.12715 0.1923 0.0
H670 H 0.12458 0.15371 0.23409 0.0
H671 H 0.08803 0.15093 0.19552 0.0
C672 C 0.13328 0.80187 0.112 0.0
C673 C 0.14603 0.8264 0.10446 0.0
C674 C 0.14222 0.78792 0.13732 0.0
C675 C 0.17782 0.79569 0.21042 0.0
H676 H 0.20297 0.72147 0.19428 0.0
C677 C 0.2471 0.7403 0.29483 0.0
C678 C 0.24514 0.71187 0.29603 0.0
C679 C 0.23195 0.75423 0.27332 0.0
C680 C 0.19551 0.74193 0.19951 0.0
H681 H 0.17719 0.8562 0.11811 0.0
H682 H 0.19236 0.83205 0.16271 0.0
H683 H 0.18091 0.74597 0.15384 0.0
H684 H 0.22553 0.67568 0.27634 0.0
H685 H 0.19772 0.69996 0.24004 0.0
H686 H 0.19196 0.79172 0.25617 0.0
C687 C 0.1757 0.82354 0.14887 0.0
C688 C 0.18298 0.75598 0.17622 0.0
C689 C 0.16715 0.83721 0.12327 0.0
C690 C 0.22712 0.69766 0.27605 0.0
C691 C 0.21156 0.71158 0.25493 0.0
C692 C 0.1899 0.78149 0.23392 0.0
C693 C 0.1636 0.79859 0.15583 0.0
C694 C 0.17444 0.78309 0.18135 0.0
C695 C 0.21414 0.74001 0.25287 0.0
C696 C 0.19934 0.75456 0.22864 0.0
H697 H 0.11696 0.79308 0.09789 0.0
H698 H 0.13257 0.76872 0.14235 0.0
H699 H 0.17118 0.81657 0.21491 0.0
H700 H 0.26069 0.75165 0.31026 0.0
H701 H 0.23484 0.77603 0.27223 0.0
C702 C 0.6998 0.65952 0.56945 0.0
C703 C 0.68073 0.67222 0.55056 0.0
C704 C 0.71946 0.675 0.58588 0.0
C705 C 0.73536 0.74663 0.6121 0.0
H706 H 0.80881 0.71752 0.62417 0.0
C707 C 0.82631 0.81278 0.65683 0.0
C708 C 0.8406 0.80257 0.6817 0.0
C709 C 0.8074 0.79639 0.64049 0.0
C710 C 0.78832 0.72581 0.62105 0.0
H711 H 0.6676 0.71107 0.53368 0.0
H712 H 0.70231 0.73783 0.56125 0.0
H713 H 0.77445 0.68986 0.59641 0.0
H714 H 0.84658 0.76733 0.70898 0.0
H715 H 0.81421 0.73822 0.67969 0.0
H716 H 0.74965 0.78287 0.63603 0.0
C717 C 0.70168 0.71607 0.56432 0.0
C718 C 0.76855 0.70994 0.60532 0.0
C719 C 0.68181 0.70067 0.5483 0.0
C720 C 0.83619 0.77546 0.68951 0.0
C721 C 0.81762 0.75891 0.67289 0.0
C722 C 0.75525 0.76261 0.62738 0.0
C723 C 0.72072 0.7035 0.58345 0.0
C724 C 0.74177 0.72015 0.60061 0.0
C725 C 0.80278 0.76935 0.64848 0.0
C726 C 0.7819 0.75236 0.63199 0.0
H727 H 0.69936 0.63764 0.57179 0.0
H728 H 0.73344 0.66462 0.60074 0.0
H729 H 0.71484 0.75502 0.60961 0.0
H730 H 0.82968 0.83351 0.65021 0.0
H731 H 0.79641 0.80482 0.62156 0.0
C732 C 0.78905 0.16953 0.04535 0.0
C733 C 0.81728 0.17114 0.05269 0.0
C734 C 0.76966 0.18506 0.06202 0.0
C735 C 0.75788 0.2217 0.13568 0.0
H736 H 0.70188 0.26021 0.09118 0.0
C737 C 0.67235 0.31186 0.15994 0.0
C738 C 0.65972 0.30242 0.18624 0.0
C739 C 0.69094 0.29527 0.14331 0.0
C740 C 0.71745 0.24965 0.1039 0.0
H741 H 0.84715 0.18994 0.08384 0.0
H742 H 0.81313 0.21703 0.11306 0.0
H743 H 0.73612 0.23243 0.06322 0.0
H744 H 0.65631 0.26866 0.21606 0.0
H745 H 0.68876 0.23934 0.1869 0.0
H746 H 0.73933 0.23912 0.17636 0.0
C747 C 0.8061 0.20368 0.09436 0.0
C748 C 0.73689 0.23357 0.08793 0.0
C749 C 0.82558 0.18826 0.07753 0.0
C750 C 0.66568 0.2761 0.19559 0.0
C751 C 0.68441 0.25955 0.17912 0.0
C752 C 0.73829 0.23762 0.15167 0.0
C753 C 0.77797 0.20243 0.08656 0.0
C754 C 0.75734 0.21945 0.10364 0.0
C755 C 0.69738 0.26903 0.15291 0.0
C756 C 0.71791 0.25181 0.13594 0.0
H757 H 0.78188 0.15649 0.02644 0.0
H758 H 0.74808 0.18339 0.05575 0.0
H759 H 0.77328 0.2109 0.14839 0.0
H760 H 0.66797 0.33218 0.15253 0.0
H761 H 0.70079 0.30322 0.12337 0.0
C762 C 0.35683 0.30425 0.60705 0.0
C763 C 0.3479 0.3313 0.60438 0.0
C764 C 0.34768 0.28888 0.63114 0.0
C765 C 0.31348 0.29436 0.70705 0.0
H766 H 0.29263 0.21946 0.6871 0.0
C767 C 0.24096 0.20503 0.75796 0.0
C768 C 0.24823 0.20736 0.78884 0.0
C769 C 0.25572 0.21921 0.7364 0.0
C770 C 0.29824 0.24037 0.69303 0.0
H771 H 0.32284 0.36364 0.62539 0.0
H772 H 0.30639 0.33664 0.66699 0.0
H773 H 0.31326 0.24672 0.64809 0.0
H774 H 0.27653 0.22545 0.82181 0.0
H775 H 0.30307 0.25009 0.78399 0.0
H776 H 0.29728 0.28833 0.75165 0.0
C777 C 0.32083 0.32742 0.65076 0.0
C778 C 0.31043 0.25591 0.67076 0.0
C779 C 0.33013 0.34285 0.62676 0.0
C780 C 0.27076 0.22357 0.79796 0.0
C781 C 0.28569 0.23772 0.77639 0.0
C782 C 0.30116 0.27884 0.72931 0.0
C783 C 0.32926 0.30015 0.65305 0.0
C784 C 0.31792 0.2832 0.67739 0.0
C785 C 0.27819 0.23585 0.74536 0.0
C786 C 0.29307 0.25176 0.72243 0.0
H787 H 0.37078 0.29483 0.59039 0.0
H788 H 0.35498 0.26811 0.63253 0.0
H789 H 0.31934 0.3152 0.71303 0.0
H790 H 0.22354 0.19254 0.75073 0.0
H791 H 0.24909 0.21762 0.71282 0.0
C792 C 0.63523 0.69601 0.42378 0.0
C793 C 0.64392 0.66932 0.42889 0.0
C794 C 0.64529 0.70967 0.39872 0.0
C795 C 0.70399 0.70648 0.34383 0.0
H796 H 0.66315 0.7638 0.3056 0.0
C797 C 0.74538 0.76298 0.24047 0.0
C798 C 0.74702 0.79134 0.24577 0.0
C799 C 0.73036 0.74703 0.26024 0.0
C800 C 0.67468 0.74777 0.3161 0.0
H801 H 0.66823 0.63521 0.41099 0.0
H802 H 0.68454 0.6583 0.36642 0.0
H803 H 0.64059 0.73693 0.34412 0.0
H804 H 0.73407 0.82536 0.27541 0.0
H805 H 0.70683 0.79756 0.30943 0.0
H806 H 0.73785 0.7171 0.31525 0.0
C807 C 0.6711 0.66935 0.38235 0.0
C808 C 0.6619 0.73249 0.3383 0.0
C809 C 0.66159 0.65599 0.40775 0.0
C810 C 0.7327 0.80359 0.2706 0.0
C811 C 0.71724 0.78772 0.29003 0.0
C812 C 0.71652 0.72137 0.32124 0.0
C813 C 0.66375 0.69665 0.37792 0.0
C814 C 0.67651 0.71184 0.35278 0.0
C815 C 0.7163 0.75928 0.28527 0.0
C816 C 0.70211 0.74234 0.30748 0.0
H817 H 0.62169 0.70675 0.43988 0.0
H818 H 0.63938 0.73075 0.3964 0.0
H819 H 0.71624 0.69129 0.35485 0.0
H820 H 0.75596 0.7532 0.22121 0.0
H821 H 0.72981 0.72512 0.25609 0.0
C822 C 0.84381 0.19492 0.92966 0.0
C823 C 0.84616 0.16637 0.9283 0.0
C824 C 0.83499 0.20872 0.90428 0.0
C825 C 0.79748 0.19772 0.83122 0.0
H826 H 0.82428 0.27062 0.81729 0.0
C827 C 0.76333 0.25996 0.72855 0.0
C828 C 0.75274 0.28577 0.73708 0.0
C829 C 0.77754 0.24477 0.74974 0.0
C830 C 0.81667 0.25026 0.82093 0.0
H831 H 0.84193 0.12992 0.89898 0.0
H832 H 0.82733 0.15408 0.85427 0.0
H833 H 0.84455 0.24464 0.85786 0.0
H834 H 0.74919 0.31651 0.77363 0.0
H835 H 0.77479 0.29032 0.81069 0.0
H836 H 0.76979 0.20345 0.79394 0.0
C837 C 0.83155 0.16579 0.87522 0.0
C838 C 0.82812 0.23541 0.84426 0.0
C839 C 0.84004 0.15193 0.9008 0.0
C840 C 0.75737 0.29666 0.76669 0.0
C841 C 0.77196 0.28172 0.78774 0.0
C842 C 0.78633 0.21244 0.80759 0.0
C843 C 0.82868 0.19436 0.87672 0.0
C844 C 0.81827 0.20916 0.85013 0.0
C845 C 0.78183 0.25549 0.77957 0.0
C846 C 0.79548 0.23901 0.80263 0.0
H847 H 0.84821 0.20664 0.95058 0.0
H848 H 0.83249 0.23064 0.90657 0.0
H849 H 0.78906 0.17777 0.83527 0.0
H850 H 0.76031 0.25152 0.70558 0.0
H851 H 0.78518 0.22468 0.74287 0.0
C852 C 0.32835 0.31411 0.4564 0.0
C853 C 0.31942 0.33147 0.48077 0.0
C854 C 0.30944 0.29815 0.43956 0.0
C855 C 0.23498 0.29051 0.42174 0.0
H856 H 0.25605 0.21587 0.40033 0.0
C857 C 0.15829 0.21045 0.37005 0.0
C858 C 0.16839 0.19365 0.34588 0.0
C859 C 0.17621 0.22765 0.38687 0.0
C860 C 0.24994 0.23674 0.40589 0.0
H861 H 0.28341 0.34614 0.50602 0.0
H862 H 0.2505 0.31804 0.47687 0.0
H863 H 0.28826 0.24564 0.42829 0.0
H864 H 0.20463 0.18198 0.31965 0.0
H865 H 0.23609 0.21174 0.34905 0.0
H866 H 0.19655 0.28143 0.39938 0.0
C867 C 0.27211 0.31698 0.47058 0.0
C868 C 0.26843 0.25384 0.42186 0.0
C869 C 0.29103 0.333 0.48739 0.0
C870 C 0.19657 0.19436 0.33865 0.0
C871 C 0.21449 0.21141 0.35545 0.0
C872 C 0.21643 0.27335 0.4058 0.0
C873 C 0.28113 0.2991 0.44671 0.0
C874 C 0.26126 0.28098 0.42983 0.0
C875 C 0.20454 0.22824 0.37979 0.0
C876 C 0.22379 0.24632 0.39754 0.0
H877 H 0.35003 0.31258 0.45048 0.0
H878 H 0.31703 0.28499 0.42094 0.0
H879 H 0.22891 0.31139 0.42724 0.0
H880 H 0.13659 0.21009 0.37597 0.0
H881 H 0.16797 0.2402 0.40565 0.0
C882 C 0.18188 0.79688 0.98465 0.0
C883 C 0.18084 0.82533 0.9824 0.0
C884 C 0.20199 0.78146 0.96899 0.0
C885 C 0.26975 0.78765 0.92977 0.0
H886 H 0.25217 0.71428 0.89956 0.0
C887 C 0.34007 0.72148 0.84878 0.0
C888 C 0.34462 0.6946 0.85735 0.0
C889 C 0.32089 0.7381 0.86449 0.0
C890 C 0.25739 0.73467 0.90808 0.0
H891 H 0.19976 0.85989 0.96141 0.0
H892 H 0.23429 0.83285 0.93303 0.0
H893 H 0.21646 0.74225 0.92441 0.0
H894 H 0.33322 0.66412 0.8892 0.0
H895 H 0.29887 0.6929 0.91621 0.0
H896 H 0.31058 0.78006 0.91235 0.0
C897 C 0.22006 0.82249 0.94765 0.0
C898 C 0.23698 0.75072 0.92245 0.0
C899 C 0.20014 0.838 0.96373 0.0
C900 C 0.32979 0.68467 0.88202 0.0
C901 C 0.31026 0.70111 0.89743 0.0
C902 C 0.29005 0.77171 0.91493 0.0
C903 C 0.22136 0.794 0.95022 0.0
C904 C 0.24292 0.77735 0.93378 0.0
C905 C 0.30555 0.72794 0.8887 0.0
C906 C 0.2841 0.745 0.90421 0.0
H907 H 0.16751 0.78649 -0.0009 0.0
H908 H 0.20263 0.75971 0.97216 0.0
H909 H 0.2753 0.80784 0.93859 0.0
H910 H 0.35084 0.72938 0.82942 0.0
H911 H 0.31743 0.75862 0.85713 0.0
loop_
_geom_bond_atom_site_label_1
_geom_bond_atom_site_label_2
_geom_bond_distance
_geom_bond_site_symmetry_2
_ccdc_geom_bond_type
Fe0 O2 1.918 . S
Fe0 O5 1.997 . S
Fe0 O6 2.002 . S
Fe0 O11 1.976 . S
Fe0 O14 1.996 . S
Fe1 O2 1.918 . S
Fe1 O9 1.997 . S
Fe1 O12 1.993 1_554 S
Fe1 O16 1.976 1_554 S
Fe1 O19 2.002 . S
O2 Fe0 1.918 . S
O2 Fe1 1.918 . S
O2 Fe3 1.918 . S
Fe3 O2 1.918 . S
Fe3 O4 2.002 . S
Fe3 O13 1.976 1_554 S
Fe3 O17 1.996 1_554 S
Fe3 O20 1.997 . S
O4 Fe3 2.002 . S
O4 C21 1.295 . S
O5 Fe0 1.997 . S
O5 C21 1.235 . S
O6 Fe0 2.002 . S
O6 C7 1.295 . S
C7 O6 1.295 . S
C7 O9 1.235 . S
C8 O13 1.286 . S
C8 O14 1.255 1_556 S
O9 Fe1 1.997 . S
O9 C7 1.235 . S
C10 O16 1.287 . S
C10 O17 1.255 . S
O11 Fe0 1.976 . S
O11 C18 1.287 1_554 S
O12 Fe1 1.993 1_556 S
O12 C18 1.255 . S
O13 Fe3 1.976 1_556 S
O13 C8 1.286 . S
O14 Fe0 1.996 . S
O14 C8 1.255 1_554 S
C15 O19 1.295 . S
C15 O20 1.235 . S
O16 Fe1 1.976 1_556 S
O16 C10 1.287 . S
O17 Fe3 1.996 1_556 S
O17 C10 1.255 . S
C18 O11 1.287 1_556 S
C18 O12 1.255 . S
O19 Fe1 2.002 . S
O19 C15 1.295 . S
O20 Fe3 1.997 . S
O20 C15 1.235 . S
C21 O4 1.295 . S
C21 O5 1.235 . S
Fe22 O24 1.918 . S
Fe22 O27 1.997 . S
Fe22 O28 2.002 . S
Fe22 O33 1.976 . S
Fe22 O36 1.996 . S
Fe23 O24 1.918 . S
Fe23 O31 1.997 . S
Fe23 O34 1.996 . S
Fe23 O38 1.976 . S
Fe23 O41 2.002 . S
O24 Fe22 1.918 . S
O24 Fe23 1.918 . S
O24 Fe25 1.918 . S
Fe25 O24 1.918 . S
Fe25 O26 2.002 . S
Fe25 O35 1.976 . S
Fe25 O39 1.996 . S
Fe25 O42 1.997 . S
O26 Fe25 2.002 . S
O26 C43 1.295 . S
O27 Fe22 1.997 . S
O27 C43 1.235 . S
O28 Fe22 2.002 . S
O28 C29 1.295 . S
C29 O28 1.295 . S
C29 O31 1.235 . S
C30 O35 1.287 . S
C30 O36 1.255 . S
O31 Fe23 1.997 . S
O31 C29 1.235 . S
C32 O38 1.287 . S
C32 O39 1.255 . S
O33 Fe22 1.976 . S
O33 C40 1.287 . S
O34 Fe23 1.996 . S
O34 C40 1.255 . S
O35 Fe25 1.976 . S
O35 C30 1.287 . S
O36 Fe22 1.996 . S
O36 C30 1.255 . S
C37 O41 1.295 . S
C37 O42 1.235 . S
O38 Fe23 1.976 . S
O38 C32 1.287 . S
O39 Fe25 1.996 . S
O39 C32 1.255 . S
C40 O33 1.287 . S
C40 O34 1.255 . S
O41 Fe23 2.002 . S
O41 C37 1.295 . S
O42 Fe25 1.997 . S
O42 C37 1.235 . S
C43 O26 1.295 . S
C43 O27 1.235 . S
Fe44 O46 1.918 . S
Fe44 O49 1.997 1_554 S
Fe44 O50 2.002 1_554 S
Fe44 O55 1.976 . S
Fe44 O58 1.996 . S
Fe45 O46 1.918 . S
Fe45 O53 1.997 1_554 S
Fe45 O56 1.996 . S
Fe45 O60 1.976 . S
Fe45 O63 2.002 1_554 S
O46 Fe44 1.918 . S
O46 Fe45 1.918 . S
O46 Fe47 1.916 1_554 S
Fe47 O46 1.916 1_556 S
Fe47 O48 2.013 . S
Fe47 O57 1.966 1_556 S
Fe47 O61 1.986 1_556 S
Fe47 O64 2.006 . S
O48 Fe47 2.013 . S
O48 C65 1.295 . S
O49 Fe44 1.997 1_556 S
O49 C65 1.235 . S
O50 Fe44 2.002 1_556 S
O50 C51 1.295 . S
C51 O50 1.295 . S
C51 O53 1.235 . S
C52 O57 1.287 . S
C52 O58 1.255 . S
O53 Fe45 1.997 1_556 S
O53 C51 1.235 . S
C54 O60 1.287 . S
C54 O61 1.255 . S
O55 Fe44 1.976 . S
O55 C62 1.287 . S
O56 Fe45 1.996 . S
O56 C62 1.255 . S
O57 Fe47 1.966 1_554 S
O57 C52 1.287 . S
O58 Fe44 1.996 . S
O58 C52 1.255 . S
C59 O63 1.295 . S
C59 O64 1.235 . S
O60 Fe45 1.976 . S
O60 C54 1.287 . S
O61 Fe47 1.986 1_554 S
O61 C54 1.255 . S
C62 O55 1.287 . S
C62 O56 1.255 . S
O63 Fe45 2.002 1_556 S
O63 C59 1.295 . S
O64 Fe47 2.006 . S
O64 C59 1.235 . S
C65 O48 1.295 . S
C65 O49 1.235 . S
Fe66 O68 1.918 . S
Fe66 O71 1.997 . S
Fe66 O72 2.002 . S
Fe66 O77 1.976 . S
Fe66 O80 1.996 . S
Fe67 O68 1.918 . S
Fe67 O75 1.997 . S
Fe67 O78 1.996 . S
Fe67 O82 1.976 . S
Fe67 O85 2.002 . S
O68 Fe66 1.918 . S
O68 Fe67 1.918 . S
O68 Fe69 1.918 . S
Fe69 O68 1.918 . S
Fe69 O70 2.002 . S
Fe69 O79 1.976 . S
Fe69 O83 1.996 . S
Fe69 O86 1.997 . S
O70 Fe69 2.002 . S
O70 C87 1.295 . S
O71 Fe66 1.997 . S
O71 C87 1.235 . S
O72 Fe66 2.002 . S
O72 C73 1.295 . S
C73 O72 1.295 . S
C73 O75 1.235 . S
C74 O79 1.287 . S
C74 O80 1.255 . S
O75 Fe67 1.997 . S
O75 C73 1.235 . S
C76 O82 1.287 . S
C76 O83 1.255 . S
O77 Fe66 1.976 . S
O77 C84 1.287 . S
O78 Fe67 1.996 . S
O78 C84 1.255 . S
O79 Fe69 1.976 . S
O79 C74 1.287 . S
O80 Fe66 1.996 . S
O80 C74 1.255 . S
C81 O85 1.295 . S
C81 O86 1.235 . S
O82 Fe67 1.976 . S
O82 C76 1.287 . S
O83 Fe69 1.996 . S
O83 C76 1.255 . S
C84 O77 1.287 . S
C84 O78 1.255 . S
O85 Fe67 2.002 . S
O85 C81 1.295 . S
O86 Fe69 1.997 . S
O86 C81 1.235 . S
C87 O70 1.295 . S
C87 O71 1.235 . S
C88 N89 1.317 . S
C88 N90 1.348 . S
C88 C91 1.485 . S
N89 C88 1.317 . S
N89 N93 1.370 . S
N90 C88 1.348 . S
N90 C92 1.346 . S
C91 C88 1.485 . S
C91 H95 0.960 . S
C91 H96 0.961 . S
C91 H97 0.960 . S
C92 N90 1.346 . S
C92 N93 1.307 . S
C92 C94 1.486 . S
N93 N89 1.370 . S
N93 C92 1.307 . S
C94 C92 1.486 . S
C94 H98 0.960 . S
C94 H99 0.960 . S
C94 H100 0.959 . S
H95 C91 0.960 . S
H96 C91 0.961 . S
H97 C91 0.960 . S
H98 C94 0.960 . S
H99 C94 0.960 . S
H100 C94 0.959 . S
C101 N102 1.317 . S
C101 N103 1.348 . S
C101 C104 1.485 . S
N102 C101 1.317 . S
N102 N106 1.370 . S
N103 C101 1.348 . S
N103 C105 1.346 . S
C104 C101 1.485 . S
C104 H108 0.960 . S
C104 H109 0.961 . S
C104 H110 0.960 . S
C105 N103 1.346 . S
C105 N106 1.307 . S
C105 C107 1.486 . S
N106 N102 1.370 . S
N106 C105 1.307 . S
C107 C105 1.486 . S
C107 H111 0.960 . S
C107 H112 0.960 . S
C107 H113 0.959 . S
H108 C104 0.960 . S
H109 C104 0.961 . S
H110 C104 0.960 . S
H111 C107 0.960 . S
H112 C107 0.960 . S
H113 C107 0.959 . S
C114 N115 1.317 . S
C114 N116 1.348 . S
C114 C117 1.485 . S
N115 C114 1.317 . S
N115 N119 1.370 . S
N116 C114 1.348 . S
N116 C118 1.346 . S
C117 C114 1.485 . S
C117 H121 0.960 . S
C117 H122 0.961 . S
C117 H123 0.960 . S
C118 N116 1.346 . S
C118 N119 1.307 . S
C118 C120 1.486 . S
N119 N115 1.370 . S
N119 C118 1.307 . S
C120 C118 1.486 . S
C120 H124 0.960 . S
C120 H125 0.960 . S
C120 H126 0.959 . S
H121 C117 0.960 . S
H122 C117 0.961 . S
H123 C117 0.960 . S
H124 C120 0.960 . S
H125 C120 0.960 . S
H126 C120 0.959 . S
C127 N128 1.317 . S
C127 N129 1.348 . S
C127 C130 1.485 . S
N128 C127 1.317 . S
N128 N132 1.370 . S
N129 C127 1.348 . S
N129 C131 1.346 . S
C130 C127 1.485 . S
C130 H134 0.960 . S
C130 H135 0.961 . S
C130 H136 0.960 . S
C131 N129 1.346 . S
C131 N132 1.307 . S
C131 C133 1.486 . S
N132 N128 1.370 . S
N132 C131 1.307 . S
C133 C131 1.486 . S
C133 H137 0.960 . S
C133 H138 0.960 . S
C133 H139 0.959 . S
H134 C130 0.960 . S
H135 C130 0.961 . S
H136 C130 0.960 . S
H137 C133 0.960 . S
H138 C133 0.960 . S
H139 C133 0.959 . S
C140 N141 1.317 . S
C140 N142 1.348 . S
C140 C143 1.485 . S
N141 C140 1.317 . S
N141 N145 1.370 . S
N142 C140 1.348 . S
N142 C144 1.346 . S
C143 C140 1.485 . S
C143 H147 0.960 . S
C143 H148 0.961 . S
C143 H149 0.960 . S
C144 N142 1.346 . S
C144 N145 1.307 . S
C144 C146 1.486 . S
N145 N141 1.370 . S
N145 C144 1.307 . S
C146 C144 1.486 . S
C146 H150 0.960 . S
C146 H151 0.960 . S
C146 H152 0.959 . S
H147 C143 0.960 . S
H148 C143 0.961 . S
H149 C143 0.960 . S
H150 C146 0.960 . S
H151 C146 0.960 . S
H152 C146 0.959 . S
C153 N154 1.317 . S
C153 N155 1.348 . S
C153 C156 1.485 . S
N154 C153 1.317 . S
N154 N158 1.370 . S
N155 C153 1.348 . S
N155 C157 1.346 . S
C156 C153 1.485 . S
C156 H160 0.960 . S
C156 H161 0.961 . S
C156 H162 0.960 . S
C157 N155 1.346 . S
C157 N158 1.307 . S
C157 C159 1.486 . S
N158 N154 1.370 . S
N158 C157 1.307 . S
C159 C157 1.486 . S
C159 H163 0.960 . S
C159 H164 0.960 . S
C159 H165 0.959 . S
H160 C156 0.960 . S
H161 C156 0.961 . S
H162 C156 0.960 . S
H163 C159 0.960 . S
H164 C159 0.960 . S
H165 C159 0.959 . S
C166 N167 1.317 . S
C166 N168 1.348 . S
C166 C169 1.485 . S
N167 C166 1.317 . S
N167 N171 1.370 . S
N168 C166 1.348 . S
N168 C170 1.346 . S
C169 C166 1.485 . S
C169 H173 0.960 . S
C169 H174 0.961 . S
C169 H175 0.960 . S
C170 N168 1.346 . S
C170 N171 1.307 . S
C170 C172 1.486 . S
N171 N167 1.370 . S
N171 C170 1.307 . S
C172 C170 1.486 . S
C172 H176 0.960 . S
C172 H177 0.960 . S
C172 H178 0.959 . S
H173 C169 0.960 . S
H174 C169 0.961 . S
H175 C169 0.960 . S
H176 C172 0.960 . S
H177 C172 0.960 . S
H178 C172 0.959 . S
C179 N180 1.317 . S
C179 N181 1.348 . S
C179 C182 1.485 . S
N180 C179 1.317 . S
N180 N184 1.370 . S
N181 C179 1.348 . S
N181 C183 1.346 . S
C182 C179 1.485 . S
C182 H186 0.960 . S
C182 H187 0.961 . S
C182 H188 0.960 . S
C183 N181 1.346 . S
C183 N184 1.307 . S
C183 C185 1.486 . S
N184 N180 1.370 . S
N184 C183 1.307 . S
C185 C183 1.486 . S
C185 H189 0.960 . S
C185 H190 0.960 . S
C185 H191 0.959 . S
H186 C182 0.960 . S
H187 C182 0.961 . S
H188 C182 0.960 . S
H189 C185 0.960 . S
H190 C185 0.960 . S
H191 C185 0.959 . S
C192 C193 1.349 . S
C192 C194 1.327 . S
C192 H217 0.950 . S
C193 C192 1.349 . S
C193 C209 1.349 . S
C194 C192 1.327 . S
C194 C213 1.429 . S
C194 H218 0.950 . S
C195 C212 1.574 . S
C195 C214 1.368 . S
C195 H219 0.949 1_545 S
H196 C200 0.949 . S
C197 C198 1.349 . S
C197 C199 1.327 . S
C197 H220 0.950 . S
C198 C197 1.349 . S
C198 C210 1.349 . S
C199 C197 1.327 . S
C199 C215 1.429 . S
C199 H221 0.950 . S
C200 H196 0.949 . S
C200 C208 1.574 . S
C200 C216 1.368 . S
H201 C209 0.950 . S
H202 C207 0.950 . S
H203 C208 0.949 . S
H204 C210 0.950 . S
H205 C211 0.950 . S
H206 C212 0.949 . S
C207 H202 0.950 . S
C207 C209 1.327 . S
C207 C213 1.429 . S
C208 C200 1.574 . S
C208 H203 0.949 . S
C208 C214 1.368 . S
C209 C193 1.349 . S
C209 H201 0.950 . S
C209 C207 1.327 . S
C210 C198 1.349 . S
C210 H204 0.950 . S
C210 C211 1.327 . S
C211 H205 0.950 . S
C211 C210 1.327 . S
C211 C215 1.429 . S
C212 C195 1.574 . S
C212 H206 0.949 . S
C212 C216 1.368 . S
C213 C194 1.429 . S
C213 C207 1.429 . S
C213 C214 1.523 1_565 S
C214 C195 1.368 . S
C214 C208 1.368 . S
C214 C213 1.523 1_545 S
C215 C199 1.429 . S
C215 C211 1.429 . S
C215 C216 1.523 . S
C216 C200 1.368 . S
C216 C212 1.368 . S
C216 C215 1.523 . S
H217 C192 0.950 . S
H218 C194 0.950 . S
H219 C195 0.949 1_565 S
H220 C197 0.950 . S
H221 C199 0.950 . S
C222 C223 1.349 . S
C222 C224 1.327 . S
C222 H247 0.950 . S
C223 C222 1.349 . S
C223 C239 1.349 . S
C224 C222 1.327 . S
C224 C243 1.429 . S
C224 H248 0.950 . S
C225 C242 1.574 . S
C225 C244 1.368 . S
C225 H249 0.949 . S
H226 C230 0.949 . S
C227 C228 1.349 . S
C227 C229 1.327 . S
C227 H250 0.950 . S
C228 C227 1.349 . S
C228 C240 1.349 . S
C229 C227 1.327 . S
C229 C245 1.429 . S
C229 H251 0.950 . S
C230 H226 0.949 . S
C230 C238 1.574 . S
C230 C246 1.368 . S
H231 C239 0.950 . S
H232 C237 0.950 . S
H233 C238 0.949 . S
H234 C240 0.950 . S
H235 C241 0.950 . S
H236 C242 0.949 . S
C237 H232 0.950 . S
C237 C239 1.327 . S
C237 C243 1.429 . S
C238 C230 1.574 . S
C238 H233 0.949 . S
C238 C244 1.368 . S
C239 C223 1.349 . S
C239 H231 0.950 . S
C239 C237 1.327 . S
C240 C228 1.349 . S
C240 H234 0.950 . S
C240 C241 1.327 . S
C241 H235 0.950 . S
C241 C240 1.327 . S
C241 C245 1.429 . S
C242 C225 1.574 . S
C242 H236 0.949 . S
C242 C246 1.368 . S
C243 C224 1.429 . S
C243 C237 1.429 . S
C243 C244 1.523 . S
C244 C225 1.368 . S
C244 C238 1.368 . S
C244 C243 1.523 . S
C245 C229 1.429 . S
C245 C241 1.429 . S
C245 C246 1.523 . S
C246 C230 1.368 . S
C246 C242 1.368 . S
C246 C245 1.523 . S
H247 C222 0.950 . S
H248 C224 0.950 . S
H249 C225 0.949 . S
H250 C227 0.950 . S
H251 C229 0.950 . S
C252 C253 1.349 . S
C252 C254 1.327 . S
C252 H277 0.950 . S
C253 C252 1.349 . S
C253 C269 1.349 . S
C254 C252 1.327 . S
C254 C273 1.429 . S
C254 H278 0.950 . S
C255 C272 1.574 . S
C255 C274 1.368 . S
C255 H279 0.949 . S
H256 C260 0.949 . S
C257 C258 1.349 . S
C257 C259 1.327 . S
C257 H280 0.950 . S
C258 C257 1.349 . S
C258 C270 1.349 . S
C259 C257 1.327 . S
C259 C275 1.429 . S
C259 H281 0.950 . S
C260 H256 0.949 . S
C260 C268 1.574 . S
C260 C276 1.368 . S
H261 C269 0.950 . S
H262 C267 0.950 . S
H263 C268 0.949 1_545 S
H264 C270 0.950 . S
H265 C271 0.950 . S
H266 C272 0.949 . S
C267 H262 0.950 . S
C267 C269 1.327 . S
C267 C273 1.429 . S
C268 C260 1.574 . S
C268 H263 0.949 1_565 S
C268 C274 1.368 . S
C269 C253 1.349 . S
C269 H261 0.950 . S
C269 C267 1.327 . S
C270 C258 1.349 . S
C270 H264 0.950 . S
C270 C271 1.327 . S
C271 H265 0.950 . S
C271 C270 1.327 . S
C271 C275 1.429 . S
C272 C255 1.574 . S
C272 H266 0.949 . S
C272 C276 1.368 . S
C273 C254 1.429 . S
C273 C267 1.429 . S
C273 C274 1.523 1_545 S
C274 C255 1.368 . S
C274 C268 1.368 . S
C274 C273 1.523 1_565 S
C275 C259 1.429 . S
C275 C271 1.429 . S
C275 C276 1.523 . S
C276 C260 1.368 . S
C276 C272 1.368 . S
C276 C275 1.523 . S
H277 C252 0.950 . S
H278 C254 0.950 . S
H279 C255 0.949 . S
H280 C257 0.950 . S
H281 C259 0.950 . S
C282 C283 1.349 . S
C282 C284 1.327 . S
C282 H307 0.950 . S
C283 C282 1.349 . S
C283 C299 1.349 . S
C284 C282 1.327 . S
C284 C303 1.429 . S
C284 H308 0.950 . S
C285 C302 1.574 . S
C285 C304 1.368 . S
C285 H309 0.949 . S
H286 C290 0.949 . S
C287 C288 1.349 . S
C287 C289 1.327 . S
C287 H310 0.950 . S
C288 C287 1.349 . S
C288 C300 1.349 . S
C289 C287 1.327 . S
C289 C305 1.429 . S
C289 H311 0.950 . S
C290 H286 0.949 . S
C290 C298 1.574 . S
C290 C306 1.368 . S
H291 C299 0.950 . S
H292 C297 0.950 . S
H293 C298 0.949 . S
H294 C300 0.950 . S
H295 C301 0.950 . S
H296 C302 0.949 . S
C297 H292 0.950 . S
C297 C299 1.327 . S
C297 C303 1.429 . S
C298 C290 1.574 . S
C298 H293 0.949 . S
C298 C304 1.368 . S
C299 C283 1.349 . S
C299 H291 0.950 . S
C299 C297 1.327 . S
C300 C288 1.349 . S
C300 H294 0.950 . S
C300 C301 1.327 . S
C301 H295 0.950 . S
C301 C300 1.327 . S
C301 C305 1.429 . S
C302 C285 1.574 . S
C302 H296 0.949 . S
C302 C306 1.368 . S
C303 C284 1.429 . S
C303 C297 1.429 . S
C303 C304 1.523 . S
C304 C285 1.368 . S
C304 C298 1.368 . S
C304 C303 1.523 . S
C305 C289 1.429 . S
C305 C301 1.429 . S
C305 C306 1.523 . S
C306 C290 1.368 . S
C306 C302 1.368 . S
C306 C305 1.523 . S
H307 C282 0.950 . S
H308 C284 0.950 . S
H309 C285 0.949 . S
H310 C287 0.950 . S
H311 C289 0.950 . S
C312 C313 1.349 . S
C312 C314 1.327 . S
C312 H337 0.950 . S
C313 C312 1.349 . S
C313 C329 1.349 . S
C314 C312 1.327 . S
C314 C333 1.429 . S
C314 H338 0.950 . S
C315 C332 1.574 . S
C315 C334 1.368 . S
C315 H339 0.949 . S
H316 C320 0.949 . S
C317 C318 1.349 . S
C317 C319 1.327 . S
C317 H340 0.950 . S
C318 C317 1.349 . S
C318 C330 1.349 . S
C319 C317 1.327 . S
C319 C335 1.429 . S
C319 H341 0.950 . S
C320 H316 0.949 . S
C320 C328 1.574 . S
C320 C336 1.368 . S
H321 C329 0.950 . S
H322 C327 0.950 . S
H323 C328 0.949 . S
H324 C330 0.950 . S
H325 C331 0.950 . S
H326 C332 0.949 . S
C327 H322 0.950 . S
C327 C329 1.327 . S
C327 C333 1.429 . S
C328 C320 1.574 . S
C328 H323 0.949 . S
C328 C334 1.368 . S
C329 C313 1.349 . S
C329 H321 0.950 . S
C329 C327 1.327 . S
C330 C318 1.349 . S
C330 H324 0.950 . S
C330 C331 1.327 . S
C331 H325 0.950 . S
C331 C330 1.327 . S
C331 C335 1.429 . S
C332 C315 1.574 . S
C332 H326 0.949 . S
C332 C336 1.368 . S
C333 C314 1.429 . S
C333 C327 1.429 . S
C333 C334 1.523 . S
C334 C315 1.368 . S
C334 C328 1.368 . S
C334 C333 1.523 . S
C335 C319 1.429 . S
C335 C331 1.429 . S
C335 C336 1.523 . S
C336 C320 1.368 . S
C336 C332 1.368 . S
C336 C335 1.523 . S
H337 C312 0.950 . S
H338 C314 0.950 . S
H339 C315 0.949 . S
H340 C317 0.950 . S
H341 C319 0.950 . S
C342 C343 1.349 . S
C342 C344 1.327 . S
C342 H367 0.950 . S
C343 C342 1.349 . S
C343 C359 1.349 . S
C344 C342 1.327 . S
C344 C363 1.427 . S
C344 H368 0.944 1_655 S
C345 C362 1.574 . S
C345 C364 1.368 . S
C345 H369 0.949 . S
H346 C350 0.949 . S
C347 C348 1.349 . S
C347 C349 1.327 . S
C347 H370 0.950 . S
C348 C347 1.349 . S
C348 C360 1.349 . S
C349 C347 1.327 . S
C349 C365 1.429 . S
C349 H371 0.950 . S
C350 H346 0.949 . S
C350 C358 1.574 . S
C350 C366 1.368 . S
H351 C359 0.950 . S
H352 C357 0.950 . S
H353 C358 0.949 . S
H354 C360 0.950 . S
H355 C361 0.950 . S
H356 C362 0.949 . S
C357 H352 0.950 . S
C357 C359 1.327 . S
C357 C363 1.427 . S
C358 C350 1.574 . S
C358 H353 0.949 . S
C358 C364 1.368 . S
C359 C343 1.349 . S
C359 H351 0.950 . S
C359 C357 1.327 . S
C360 C348 1.349 . S
C360 H354 0.950 . S
C360 C361 1.327 . S
C361 H355 0.950 . S
C361 C360 1.327 . S
C361 C365 1.429 . S
C362 C345 1.574 . S
C362 H356 0.949 . S
C362 C366 1.368 . S
C363 C344 1.427 . S
C363 C357 1.427 . S
C363 C364 1.526 1_655 S
C364 C345 1.368 . S
C364 C358 1.368 . S
C364 C363 1.526 1_455 S
C365 C349 1.429 . S
C365 C361 1.429 . S
C365 C366 1.523 . S
C366 C350 1.368 . S
C366 C362 1.368 . S
C366 C365 1.523 . S
H367 C342 0.950 . S
H368 C344 0.944 1_455 S
H369 C345 0.949 . S
H370 C347 0.950 . S
H371 C349 0.950 . S
C372 C373 1.349 . S
C372 C374 1.327 . S
C372 H397 0.950 . S
C373 C372 1.349 . S
C373 C389 1.349 . S
C374 C372 1.327 . S
C374 C393 1.429 . S
C374 H398 0.950 . S
C375 C392 1.574 . S
C375 C394 1.368 . S
C375 H399 0.949 . S
H376 C380 0.949 . S
C377 C378 1.349 . S
C377 C379 1.327 . S
C377 H400 0.950 . S
C378 C377 1.349 . S
C378 C390 1.349 . S
C379 C377 1.327 . S
C379 C395 1.429 . S
C379 H401 0.950 . S
C380 H376 0.949 . S
C380 C388 1.574 . S
C380 C396 1.368 . S
H381 C389 0.950 . S
H382 C387 0.950 . S
H383 C388 0.949 . S
H384 C390 0.950 . S
H385 C391 0.950 . S
H386 C392 0.949 . S
C387 H382 0.950 . S
C387 C389 1.327 . S
C387 C393 1.429 . S
C388 C380 1.574 . S
C388 H383 0.949 . S
C388 C394 1.368 . S
C389 C373 1.349 . S
C389 H381 0.950 . S
C389 C387 1.327 . S
C390 C378 1.349 . S
C390 H384 0.950 . S
C390 C391 1.327 . S
C391 H385 0.950 . S
C391 C390 1.327 . S
C391 C395 1.429 . S
C392 C375 1.574 . S
C392 H386 0.949 . S
C392 C396 1.368 . S
C393 C374 1.429 . S
C393 C387 1.429 . S
C393 C394 1.523 . S
C394 C375 1.368 . S
C394 C388 1.368 . S
C394 C393 1.523 . S
C395 C379 1.429 . S
C395 C391 1.429 . S
C395 C396 1.523 . S
C396 C380 1.368 . S
C396 C392 1.368 . S
C396 C395 1.523 . S
H397 C372 0.950 . S
H398 C374 0.950 . S
H399 C375 0.949 . S
H400 C377 0.950 . S
H401 C379 0.950 . S
C402 C403 1.349 . S
C402 C404 1.327 . S
C402 H427 0.950 . S
C403 C402 1.349 . S
C403 C419 1.349 . S
C404 C402 1.327 . S
C404 C423 1.429 . S
C404 H428 0.950 . S
C405 C422 1.574 . S
C405 C424 1.368 1_655 S
C405 H429 0.949 . S
H406 C410 0.949 . S
C407 C408 1.349 . S
C407 C409 1.327 . S
C407 H430 0.950 . S
C408 C407 1.349 . S
C408 C420 1.349 . S
C409 C407 1.327 . S
C409 C425 1.429 . S
C409 H431 0.950 . S
C410 H406 0.949 . S
C410 C418 1.574 1_655 S
C410 C426 1.368 . S
H411 C419 0.950 . S
H412 C417 0.950 . S
H413 C418 0.949 . S
H414 C420 0.950 . S
H415 C421 0.950 . S
H416 C422 0.949 . S
C417 H412 0.950 . S
C417 C419 1.327 . S
C417 C423 1.429 . S
C418 C410 1.574 1_455 S
C418 H413 0.949 . S
C418 C424 1.368 . S
C419 C403 1.349 . S
C419 H411 0.950 . S
C419 C417 1.327 . S
C420 C408 1.349 . S
C420 H414 0.950 . S
C420 C421 1.327 . S
C421 H415 0.950 . S
C421 C420 1.327 . S
C421 C425 1.429 . S
C422 C405 1.574 . S
C422 H416 0.949 . S
C422 C426 1.368 . S
C423 C404 1.429 . S
C423 C417 1.429 . S
C423 C424 1.523 . S
C424 C405 1.368 1_455 S
C424 C418 1.368 . S
C424 C423 1.523 . S
C425 C409 1.429 . S
C425 C421 1.429 . S
C425 C426 1.523 . S
C426 C410 1.368 . S
C426 C422 1.368 . S
C426 C425 1.523 . S
H427 C402 0.950 . S
H428 C404 0.950 . S
H429 C405 0.949 . S
H430 C407 0.950 . S
H431 C409 0.950 . S
C432 C433 1.349 . S
C432 C434 1.327 . S
C432 H457 0.950 . S
C433 C432 1.349 . S
C433 C449 1.349 . S
C434 C432 1.327 . S
C434 C453 1.429 . S
C434 H458 0.950 . S
C435 C452 1.574 . S
C435 C454 1.368 . S
C435 H459 0.949 . S
H436 C440 0.949 . S
C437 C438 1.349 . S
C437 C439 1.327 . S
C437 H460 0.950 . S
C438 C437 1.349 . S
C438 C450 1.349 . S
C439 C437 1.327 . S
C439 C455 1.429 . S
C439 H461 0.950 . S
C440 H436 0.949 . S
C440 C448 1.574 . S
C440 C456 1.368 . S
H441 C449 0.950 . S
H442 C447 0.950 . S
H443 C448 0.949 1_545 S
H444 C450 0.950 . S
H445 C451 0.950 . S
H446 C452 0.949 . S
C447 H442 0.950 . S
C447 C449 1.327 . S
C447 C453 1.429 . S
C448 C440 1.574 . S
C448 H443 0.949 1_565 S
C448 C454 1.368 . S
C449 C433 1.349 . S
C449 H441 0.950 . S
C449 C447 1.327 . S
C450 C438 1.349 . S
C450 H444 0.950 . S
C450 C451 1.327 . S
C451 H445 0.950 . S
C451 C450 1.327 . S
C451 C455 1.429 . S
C452 C435 1.574 . S
C452 H446 0.949 . S
C452 C456 1.368 . S
C453 C434 1.429 . S
C453 C447 1.429 . S
C453 C454 1.523 1_545 S
C454 C435 1.368 . S
C454 C448 1.368 . S
C454 C453 1.523 1_565 S
C455 C439 1.429 . S
C455 C451 1.429 . S
C455 C456 1.523 . S
C456 C440 1.368 . S
C456 C452 1.368 . S
C456 C455 1.523 . S
H457 C432 0.950 . S
H458 C434 0.950 . S
H459 C435 0.949 . S
H460 C437 0.950 . S
H461 C439 0.950 . S
C462 C463 1.349 . S
C462 C464 1.327 . S
C462 H487 0.950 . S
C463 C462 1.349 . S
C463 C479 1.349 . S
C464 C462 1.327 . S
C464 C483 1.429 . S
C464 H488 0.950 . S
C465 C482 1.574 . S
C465 C484 1.368 . S
C465 H489 0.949 . S
H466 C470 0.949 . S
C467 C468 1.349 . S
C467 C469 1.327 . S
C467 H490 0.950 . S
C468 C467 1.349 . S
C468 C480 1.349 . S
C469 C467 1.327 . S
C469 C485 1.429 . S
C469 H491 0.950 . S
C470 H466 0.949 . S
C470 C478 1.574 . S
C470 C486 1.368 . S
H471 C479 0.950 . S
H472 C477 0.950 . S
H473 C478 0.949 . S
H474 C480 0.950 . S
H475 C481 0.950 . S
H476 C482 0.949 . S
C477 H472 0.950 . S
C477 C479 1.327 . S
C477 C483 1.429 . S
C478 C470 1.574 . S
C478 H473 0.949 . S
C478 C484 1.368 . S
C479 C463 1.349 . S
C479 H471 0.950 . S
C479 C477 1.327 . S
C480 C468 1.349 . S
C480 H474 0.950 . S
C480 C481 1.327 . S
C481 H475 0.950 . S
C481 C480 1.327 . S
C481 C485 1.429 . S
C482 C465 1.574 . S
C482 H476 0.949 . S
C482 C486 1.368 . S
C483 C464 1.429 . S
C483 C477 1.429 . S
C483 C484 1.523 . S
C484 C465 1.368 . S
C484 C478 1.368 . S
C484 C483 1.523 . S
C485 C469 1.429 . S
C485 C481 1.429 . S
C485 C486 1.523 . S
C486 C470 1.368 . S
C486 C482 1.368 . S
C486 C485 1.523 . S
H487 C462 0.950 . S
H488 C464 0.950 . S
H489 C465 0.949 . S
H490 C467 0.950 . S
H491 C469 0.950 . S
C492 C493 1.349 . S
C492 C494 1.327 . S
C492 H517 0.950 1_556 S
C493 C492 1.349 . S
C493 C509 1.349 . S
C494 C492 1.327 . S
C494 C513 1.429 . S
C494 H518 0.950 . S
C495 C512 1.574 . S
C495 C514 1.368 . S
C495 H519 0.949 . S
H496 C500 0.949 . S
C497 C498 1.349 . S
C497 C499 1.327 . S
C497 H520 0.950 . S
C498 C497 1.349 . S
C498 C510 1.349 . S
C499 C497 1.327 . S
C499 C515 1.429 . S
C499 H521 0.950 . S
C500 H496 0.949 . S
C500 C508 1.574 . S
C500 C516 1.368 . S
H501 C509 0.950 . S
H502 C507 0.950 . S
H503 C508 0.949 . S
H504 C510 0.950 . S
H505 C511 0.950 . S
H506 C512 0.949 . S
C507 H502 0.950 . S
C507 C509 1.327 . S
C507 C513 1.429 . S
C508 C500 1.574 . S
C508 H503 0.949 . S
C508 C514 1.368 . S
C509 C493 1.349 . S
C509 H501 0.950 . S
C509 C507 1.327 . S
C510 C498 1.349 . S
C510 H504 0.950 . S
C510 C511 1.327 . S
C511 H505 0.950 . S
C511 C510 1.327 . S
C511 C515 1.429 . S
C512 C495 1.574 . S
C512 H506 0.949 . S
C512 C516 1.368 . S
C513 C494 1.429 . S
C513 C507 1.429 . S
C513 C514 1.523 1_565 S
C514 C495 1.368 . S
C514 C508 1.368 . S
C514 C513 1.523 1_545 S
C515 C499 1.429 . S
C515 C511 1.429 . S
C515 C516 1.523 . S
C516 C500 1.368 . S
C516 C512 1.368 . S
C516 C515 1.523 . S
H517 C492 0.950 1_554 S
H518 C494 0.950 . S
H519 C495 0.949 . S
H520 C497 0.950 . S
H521 C499 0.950 . S
C522 C523 1.349 . S
C522 C524 1.327 . S
C522 H547 0.950 . S
C523 C522 1.349 . S
C523 C539 1.349 . S
C524 C522 1.327 . S
C524 C543 1.429 . S
C524 H548 0.950 . S
C525 C542 1.574 . S
C525 C544 1.368 . S
C525 H549 0.949 . S
H526 C530 0.949 . S
C527 C528 1.349 . S
C527 C529 1.327 . S
C527 H550 0.950 . S
C528 C527 1.349 . S
C528 C540 1.349 . S
C529 C527 1.327 . S
C529 C545 1.429 . S
C529 H551 0.950 . S
C530 H526 0.949 . S
C530 C538 1.574 . S
C530 C546 1.368 . S
H531 C539 0.950 . S
H532 C537 0.950 . S
H533 C538 0.949 . S
H534 C540 0.950 . S
H535 C541 0.950 . S
H536 C542 0.949 . S
C537 H532 0.950 . S
C537 C539 1.327 . S
C537 C543 1.429 . S
C538 C530 1.574 . S
C538 H533 0.949 . S
C538 C544 1.368 . S
C539 C523 1.349 . S
C539 H531 0.950 . S
C539 C537 1.327 . S
C540 C528 1.349 . S
C540 H534 0.950 . S
C540 C541 1.327 . S
C541 H535 0.950 . S
C541 C540 1.327 . S
C541 C545 1.429 . S
C542 C525 1.574 . S
C542 H536 0.949 . S
C542 C546 1.368 . S
C543 C524 1.429 . S
C543 C537 1.429 . S
C543 C544 1.523 . S
C544 C525 1.368 . S
C544 C538 1.368 . S
C544 C543 1.523 . S
C545 C529 1.429 . S
C545 C541 1.429 . S
C545 C546 1.523 . S
C546 C530 1.368 . S
C546 C542 1.368 . S
C546 C545 1.523 . S
H547 C522 0.950 . S
H548 C524 0.950 . S
H549 C525 0.949 . S
H550 C527 0.950 . S
H551 C529 0.950 . S
C552 C553 1.349 . S
C552 C554 1.327 . S
C552 H577 0.950 . S
C553 C552 1.349 . S
C553 C569 1.349 . S
C554 C552 1.327 . S
C554 C573 1.429 . S
C554 H578 0.950 . S
C555 C572 1.574 . S
C555 C574 1.368 . S
C555 H579 0.949 . S
H556 C560 0.949 . S
C557 C558 1.349 . S
C557 C559 1.327 . S
C557 H580 0.950 . S
C558 C557 1.349 . S
C558 C570 1.349 . S
C559 C557 1.327 . S
C559 C575 1.429 . S
C559 H581 0.950 . S
C560 H556 0.949 . S
C560 C568 1.574 . S
C560 C576 1.368 . S
H561 C569 0.950 . S
H562 C567 0.950 . S
H563 C568 0.949 . S
H564 C570 0.950 . S
H565 C571 0.950 . S
H566 C572 0.949 . S
C567 H562 0.950 . S
C567 C569 1.327 . S
C567 C573 1.429 . S
C568 C560 1.574 . S
C568 H563 0.949 . S
C568 C574 1.368 . S
C569 C553 1.349 . S
C569 H561 0.950 . S
C569 C567 1.327 . S
C570 C558 1.349 . S
C570 H564 0.950 . S
C570 C571 1.327 . S
C571 H565 0.950 . S
C571 C570 1.327 . S
C571 C575 1.429 . S
C572 C555 1.574 . S
C572 H566 0.949 . S
C572 C576 1.368 . S
C573 C554 1.429 . S
C573 C567 1.429 . S
C573 C574 1.523 . S
C574 C555 1.368 . S
C574 C568 1.368 . S
C574 C573 1.523 . S
C575 C559 1.429 . S
C575 C571 1.429 . S
C575 C576 1.523 . S
C576 C560 1.368 . S
C576 C572 1.368 . S
C576 C575 1.523 . S
H577 C552 0.950 . S
H578 C554 0.950 . S
H579 C555 0.949 . S
H580 C557 0.950 . S
H581 C559 0.950 . S
C582 C583 1.349 . S
C582 C584 1.327 . S
C582 H607 0.950 . S
C583 C582 1.349 . S
C583 C599 1.349 . S
C584 C582 1.327 . S
C584 C603 1.433 . S
C584 H608 0.950 . S
C585 C602 1.574 . S
C585 C604 1.368 . S
C585 H609 0.949 . S
H586 C590 0.949 . S
C587 C588 1.349 . S
C587 C589 1.327 . S
C587 H610 0.950 . S
C588 C587 1.349 . S
C588 C600 1.349 . S
C589 C587 1.327 . S
C589 C605 1.429 . S
C589 H611 0.950 . S
C590 H586 0.949 . S
C590 C598 1.574 . S
C590 C606 1.368 . S
H591 C599 0.950 . S
H592 C597 0.950 1_655 S
H593 C598 0.949 . S
H594 C600 0.950 . S
H595 C601 0.950 . S
H596 C602 0.949 . S
C597 H592 0.950 1_455 S
C597 C599 1.327 . S
C597 C603 1.431 . S
C598 C590 1.574 . S
C598 H593 0.949 . S
C598 C604 1.368 . S
C599 C583 1.349 . S
C599 H591 0.950 . S
C599 C597 1.327 . S
C600 C588 1.349 . S
C600 H594 0.950 . S
C600 C601 1.327 . S
C601 H595 0.950 . S
C601 C600 1.327 . S
C601 C605 1.429 . S
C602 C585 1.574 . S
C602 H596 0.949 . S
C602 C606 1.368 . S
C603 C584 1.433 . S
C603 C597 1.431 . S
C603 C604 1.517 1_455 S
C604 C585 1.368 . S
C604 C598 1.368 . S
C604 C603 1.517 1_655 S
C605 C589 1.429 . S
C605 C601 1.429 . S
C605 C606 1.523 . S
C606 C590 1.368 . S
C606 C602 1.368 . S
C606 C605 1.523 . S
H607 C582 0.950 . S
H608 C584 0.950 . S
H609 C585 0.949 . S
H610 C587 0.950 . S
H611 C589 0.950 . S
C612 C613 1.349 . S
C612 C614 1.327 . S
C612 H637 0.950 . S
C613 C612 1.349 . S
C613 C629 1.349 . S
C614 C612 1.327 . S
C614 C633 1.429 . S
C614 H638 0.950 . S
C615 C632 1.574 . S
C615 C634 1.368 . S
C615 H639 0.949 . S
H616 C620 0.949 . S
C617 C618 1.349 . S
C617 C619 1.327 . S
C617 H640 0.950 . S
C618 C617 1.349 . S
C618 C630 1.349 . S
C619 C617 1.327 . S
C619 C635 1.429 . S
C619 H641 0.950 . S
C620 H616 0.949 . S
C620 C628 1.574 . S
C620 C636 1.368 . S
H621 C629 0.950 . S
H622 C627 0.950 . S
H623 C628 0.949 . S
H624 C630 0.950 . S
H625 C631 0.950 . S
H626 C632 0.949 . S
C627 H622 0.950 . S
C627 C629 1.327 . S
C627 C633 1.429 . S
C628 C620 1.574 . S
C628 H623 0.949 . S
C628 C634 1.368 . S
C629 C613 1.349 . S
C629 H621 0.950 . S
C629 C627 1.327 . S
C630 C618 1.349 . S
C630 H624 0.950 . S
C630 C631 1.327 . S
C631 H625 0.950 . S
C631 C630 1.327 . S
C631 C635 1.429 . S
C632 C615 1.574 . S
C632 H626 0.949 . S
C632 C636 1.368 . S
C633 C614 1.429 . S
C633 C627 1.429 . S
C633 C634 1.523 . S
C634 C615 1.368 . S
C634 C628 1.368 . S
C634 C633 1.523 . S
C635 C619 1.429 . S
C635 C631 1.429 . S
C635 C636 1.523 . S
C636 C620 1.368 . S
C636 C632 1.368 . S
C636 C635 1.523 . S
H637 C612 0.950 . S
H638 C614 0.950 . S
H639 C615 0.949 . S
H640 C617 0.950 . S
H641 C619 0.950 . S
C642 C643 1.349 . S
C642 C644 1.327 . S
C642 H667 0.950 . S
C643 C642 1.349 . S
C643 C659 1.349 . S
C644 C642 1.327 . S
C644 C663 1.429 . S
C644 H668 0.950 . S
C645 C662 1.574 . S
C645 C664 1.368 1_455 S
C645 H669 0.949 . S
H646 C650 0.949 . S
C647 C648 1.349 . S
C647 C649 1.327 . S
C647 H670 0.950 . S
C648 C647 1.349 . S
C648 C660 1.349 . S
C649 C647 1.327 . S
C649 C665 1.429 . S
C649 H671 0.950 . S
C650 H646 0.949 . S
C650 C658 1.574 1_455 S
C650 C666 1.368 . S
H651 C659 0.950 . S
H652 C657 0.950 . S
H653 C658 0.949 . S
H654 C660 0.950 . S
H655 C661 0.950 . S
H656 C662 0.949 . S
C657 H652 0.950 . S
C657 C659 1.327 . S
C657 C663 1.429 . S
C658 C650 1.574 1_655 S
C658 H653 0.949 . S
C658 C664 1.368 . S
C659 C643 1.349 . S
C659 H651 0.950 . S
C659 C657 1.327 . S
C660 C648 1.349 . S
C660 H654 0.950 . S
C660 C661 1.327 . S
C661 H655 0.950 . S
C661 C660 1.327 . S
C661 C665 1.429 . S
C662 C645 1.574 . S
C662 H656 0.949 . S
C662 C666 1.368 . S
C663 C644 1.429 . S
C663 C657 1.429 . S
C663 C664 1.523 . S
C664 C645 1.368 1_655 S
C664 C658 1.368 . S
C664 C663 1.523 . S
C665 C649 1.429 . S
C665 C661 1.429 . S
C665 C666 1.523 . S
C666 C650 1.368 . S
C666 C662 1.368 . S
C666 C665 1.523 . S
H667 C642 0.950 . S
H668 C644 0.950 . S
H669 C645 0.949 . S
H670 C647 0.950 . S
H671 C649 0.950 . S
C672 C673 1.349 . S
C672 C674 1.327 . S
C672 H697 0.950 . S
C673 C672 1.349 . S
C673 C689 1.349 . S
C674 C672 1.327 . S
C674 C693 1.429 . S
C674 H698 0.950 . S
C675 C692 1.574 . S
C675 C694 1.368 . S
C675 H699 0.949 . S
H676 C680 0.949 . S
C677 C678 1.349 . S
C677 C679 1.327 . S
C677 H700 0.950 . S
C678 C677 1.349 . S
C678 C690 1.349 . S
C679 C677 1.327 . S
C679 C695 1.429 . S
C679 H701 0.950 . S
C680 H676 0.949 . S
C680 C688 1.574 . S
C680 C696 1.368 . S
H681 C689 0.950 . S
H682 C687 0.950 . S
H683 C688 0.949 . S
H684 C690 0.950 . S
H685 C691 0.950 . S
H686 C692 0.949 . S
C687 H682 0.950 . S
C687 C689 1.327 . S
C687 C693 1.429 . S
C688 C680 1.574 . S
C688 H683 0.949 . S
C688 C694 1.368 . S
C689 C673 1.349 . S
C689 H681 0.950 . S
C689 C687 1.327 . S
C690 C678 1.349 . S
C690 H684 0.950 . S
C690 C691 1.327 . S
C691 H685 0.950 . S
C691 C690 1.327 . S
C691 C695 1.429 . S
C692 C675 1.574 . S
C692 H686 0.949 . S
C692 C696 1.368 . S
C693 C674 1.429 . S
C693 C687 1.429 . S
C693 C694 1.523 . S
C694 C675 1.368 . S
C694 C688 1.368 . S
C694 C693 1.523 . S
C695 C679 1.429 . S
C695 C691 1.429 . S
C695 C696 1.523 . S
C696 C680 1.368 . S
C696 C692 1.368 . S
C696 C695 1.523 . S
H697 C672 0.950 . S
H698 C674 0.950 . S
H699 C675 0.949 . S
H700 C677 0.950 . S
H701 C679 0.950 . S
C702 C703 1.349 . S
C702 C704 1.327 . S
C702 H727 0.950 . S
C703 C702 1.349 . S
C703 C719 1.349 . S
C704 C702 1.327 . S
C704 C723 1.429 . S
C704 H728 0.950 . S
C705 C722 1.574 . S
C705 C724 1.368 . S
C705 H729 0.949 . S
H706 C710 0.949 . S
C707 C708 1.349 . S
C707 C709 1.327 . S
C707 H730 0.950 . S
C708 C707 1.349 . S
C708 C720 1.349 . S
C709 C707 1.327 . S
C709 C725 1.429 . S
C709 H731 0.950 . S
C710 H706 0.949 . S
C710 C718 1.574 . S
C710 C726 1.368 . S
H711 C719 0.950 . S
H712 C717 0.950 . S
H713 C718 0.949 . S
H714 C720 0.950 . S
H715 C721 0.950 . S
H716 C722 0.949 . S
C717 H712 0.950 . S
C717 C719 1.327 . S
C717 C723 1.429 . S
C718 C710 1.574 . S
C718 H713 0.949 . S
C718 C724 1.368 . S
C719 C703 1.349 . S
C719 H711 0.950 . S
C719 C717 1.327 . S
C720 C708 1.349 . S
C720 H714 0.950 . S
C720 C721 1.327 . S
C721 H715 0.950 . S
C721 C720 1.327 . S
C721 C725 1.429 . S
C722 C705 1.574 . S
C722 H716 0.949 . S
C722 C726 1.368 . S
C723 C704 1.429 . S
C723 C717 1.429 . S
C723 C724 1.523 . S
C724 C705 1.368 . S
C724 C718 1.368 . S
C724 C723 1.523 . S
C725 C709 1.429 . S
C725 C721 1.429 . S
C725 C726 1.523 . S
C726 C710 1.368 . S
C726 C722 1.368 . S
C726 C725 1.523 . S
H727 C702 0.950 . S
H728 C704 0.950 . S
H729 C705 0.949 . S
H730 C707 0.950 . S
H731 C709 0.950 . S
C732 C733 1.349 . S
C732 C734 1.327 . S
C732 H757 0.950 . S
C733 C732 1.349 . S
C733 C749 1.349 . S
C734 C732 1.327 . S
C734 C753 1.429 . S
C734 H758 0.950 . S
C735 C752 1.574 . S
C735 C754 1.368 . S
C735 H759 0.949 . S
H736 C740 0.949 . S
C737 C738 1.349 . S
C737 C739 1.327 . S
C737 H760 0.950 . S
C738 C737 1.349 . S
C738 C750 1.349 . S
C739 C737 1.327 . S
C739 C755 1.429 . S
C739 H761 0.950 . S
C740 H736 0.949 . S
C740 C748 1.574 . S
C740 C756 1.368 . S
H741 C749 0.950 . S
H742 C747 0.950 . S
H743 C748 0.949 . S
H744 C750 0.950 . S
H745 C751 0.950 . S
H746 C752 0.949 . S
C747 H742 0.950 . S
C747 C749 1.327 . S
C747 C753 1.429 . S
C748 C740 1.574 . S
C748 H743 0.949 . S
C748 C754 1.368 . S
C749 C733 1.349 . S
C749 H741 0.950 . S
C749 C747 1.327 . S
C750 C738 1.349 . S
C750 H744 0.950 . S
C750 C751 1.327 . S
C751 H745 0.950 . S
C751 C750 1.327 . S
C751 C755 1.429 . S
C752 C735 1.574 . S
C752 H746 0.949 . S
C752 C756 1.368 . S
C753 C734 1.429 . S
C753 C747 1.429 . S
C753 C754 1.523 . S
C754 C735 1.368 . S
C754 C748 1.368 . S
C754 C753 1.523 . S
C755 C739 1.429 . S
C755 C751 1.429 . S
C755 C756 1.523 . S
C756 C740 1.368 . S
C756 C752 1.368 . S
C756 C755 1.523 . S
H757 C732 0.950 . S
H758 C734 0.950 . S
H759 C735 0.949 . S
H760 C737 0.950 . S
H761 C739 0.950 . S
C762 C763 1.349 . S
C762 C764 1.327 . S
C762 H787 0.950 . S
C763 C762 1.349 . S
C763 C779 1.349 . S
C764 C762 1.327 . S
C764 C783 1.429 . S
C764 H788 0.950 . S
C765 C782 1.574 . S
C765 C784 1.368 . S
C765 H789 0.949 . S
H766 C770 0.949 . S
C767 C768 1.349 . S
C767 C769 1.327 . S
C767 H790 0.950 . S
C768 C767 1.349 . S
C768 C780 1.349 . S
C769 C767 1.327 . S
C769 C785 1.429 . S
C769 H791 0.950 . S
C770 H766 0.949 . S
C770 C778 1.574 . S
C770 C786 1.368 . S
H771 C779 0.950 . S
H772 C777 0.950 . S
H773 C778 0.949 . S
H774 C780 0.950 . S
H775 C781 0.950 . S
H776 C782 0.949 . S
C777 H772 0.950 . S
C777 C779 1.327 . S
C777 C783 1.429 . S
C778 C770 1.574 . S
C778 H773 0.949 . S
C778 C784 1.368 . S
C779 C763 1.349 . S
C779 H771 0.950 . S
C779 C777 1.327 . S
C780 C768 1.349 . S
C780 H774 0.950 . S
C780 C781 1.327 . S
C781 H775 0.950 . S
C781 C780 1.327 . S
C781 C785 1.429 . S
C782 C765 1.574 . S
C782 H776 0.949 . S
C782 C786 1.368 . S
C783 C764 1.429 . S
C783 C777 1.429 . S
C783 C784 1.523 . S
C784 C765 1.368 . S
C784 C778 1.368 . S
C784 C783 1.523 . S
C785 C769 1.429 . S
C785 C781 1.429 . S
C785 C786 1.523 . S
C786 C770 1.368 . S
C786 C782 1.368 . S
C786 C785 1.523 . S
H787 C762 0.950 . S
H788 C764 0.950 . S
H789 C765 0.949 . S
H790 C767 0.950 . S
H791 C769 0.950 . S
C792 C793 1.349 . S
C792 C794 1.327 . S
C792 H817 0.950 . S
C793 C792 1.349 . S
C793 C809 1.349 . S
C794 C792 1.327 . S
C794 C813 1.429 . S
C794 H818 0.950 . S
C795 C812 1.574 . S
C795 C814 1.368 . S
C795 H819 0.949 . S
H796 C800 0.949 . S
C797 C798 1.349 . S
C797 C799 1.327 . S
C797 H820 0.950 . S
C798 C797 1.349 . S
C798 C810 1.349 . S
C799 C797 1.327 . S
C799 C815 1.429 . S
C799 H821 0.950 . S
C800 H796 0.949 . S
C800 C808 1.574 . S
C800 C816 1.368 . S
H801 C809 0.950 . S
H802 C807 0.950 . S
H803 C808 0.949 . S
H804 C810 0.950 . S
H805 C811 0.950 . S
H806 C812 0.949 . S
C807 H802 0.950 . S
C807 C809 1.327 . S
C807 C813 1.429 . S
C808 C800 1.574 . S
C808 H803 0.949 . S
C808 C814 1.368 . S
C809 C793 1.349 . S
C809 H801 0.950 . S
C809 C807 1.327 . S
C810 C798 1.349 . S
C810 H804 0.950 . S
C810 C811 1.327 . S
C811 H805 0.950 . S
C811 C810 1.327 . S
C811 C815 1.429 . S
C812 C795 1.574 . S
C812 H806 0.949 . S
C812 C816 1.368 . S
C813 C794 1.429 . S
C813 C807 1.429 . S
C813 C814 1.523 . S
C814 C795 1.368 . S
C814 C808 1.368 . S
C814 C813 1.523 . S
C815 C799 1.429 . S
C815 C811 1.429 . S
C815 C816 1.523 . S
C816 C800 1.368 . S
C816 C812 1.368 . S
C816 C815 1.523 . S
H817 C792 0.950 . S
H818 C794 0.950 . S
H819 C795 0.949 . S
H820 C797 0.950 . S
H821 C799 0.950 . S
C822 C823 1.349 . S
C822 C824 1.327 . S
C822 H847 0.950 . S
C823 C822 1.349 . S
C823 C839 1.349 . S
C824 C822 1.327 . S
C824 C843 1.429 . S
C824 H848 0.950 . S
C825 C842 1.574 . S
C825 C844 1.368 . S
C825 H849 0.949 . S
H826 C830 0.949 . S
C827 C828 1.349 . S
C827 C829 1.327 . S
C827 H850 0.950 . S
C828 C827 1.349 . S
C828 C840 1.349 . S
C829 C827 1.327 . S
C829 C845 1.429 . S
C829 H851 0.950 . S
C830 H826 0.949 . S
C830 C838 1.574 . S
C830 C846 1.368 . S
H831 C839 0.950 . S
H832 C837 0.950 . S
H833 C838 0.949 . S
H834 C840 0.950 . S
H835 C841 0.950 . S
H836 C842 0.949 . S
C837 H832 0.950 . S
C837 C839 1.327 . S
C837 C843 1.429 . S
C838 C830 1.574 . S
C838 H833 0.949 . S
C838 C844 1.368 . S
C839 C823 1.349 . S
C839 H831 0.950 . S
C839 C837 1.327 . S
C840 C828 1.349 . S
C840 H834 0.950 . S
C840 C841 1.327 . S
C841 H835 0.950 . S
C841 C840 1.327 . S
C841 C845 1.429 . S
C842 C825 1.574 . S
C842 H836 0.949 . S
C842 C846 1.368 . S
C843 C824 1.429 . S
C843 C837 1.429 . S
C843 C844 1.523 . S
C844 C825 1.368 . S
C844 C838 1.368 . S
C844 C843 1.523 . S
C845 C829 1.429 . S
C845 C841 1.429 . S
C845 C846 1.523 . S
C846 C830 1.368 . S
C846 C842 1.368 . S
C846 C845 1.523 . S
H847 C822 0.950 . S
H848 C824 0.950 . S
H849 C825 0.949 . S
H850 C827 0.950 . S
H851 C829 0.950 . S
C852 C853 1.349 . S
C852 C854 1.327 . S
C852 H877 0.950 . S
C853 C852 1.349 . S
C853 C869 1.349 . S
C854 C852 1.327 . S
C854 C873 1.429 . S
C854 H878 0.950 . S
C855 C872 1.574 . S
C855 C874 1.368 . S
C855 H879 0.949 . S
H856 C860 0.949 . S
C857 C858 1.349 . S
C857 C859 1.327 . S
C857 H880 0.950 . S
C858 C857 1.349 . S
C858 C870 1.349 . S
C859 C857 1.327 . S
C859 C875 1.429 . S
C859 H881 0.950 . S
C860 H856 0.949 . S
C860 C868 1.574 . S
C860 C876 1.368 . S
H861 C869 0.950 . S
H862 C867 0.950 . S
H863 C868 0.949 . S
H864 C870 0.950 . S
H865 C871 0.950 . S
H866 C872 0.949 . S
C867 H862 0.950 . S
C867 C869 1.327 . S
C867 C873 1.429 . S
C868 C860 1.574 . S
C868 H863 0.949 . S
C868 C874 1.368 . S
C869 C853 1.349 . S
C869 H861 0.950 . S
C869 C867 1.327 . S
C870 C858 1.349 . S
C870 H864 0.950 . S
C870 C871 1.327 . S
C871 H865 0.950 . S
C871 C870 1.327 . S
C871 C875 1.429 . S
C872 C855 1.574 . S
C872 H866 0.949 . S
C872 C876 1.368 . S
C873 C854 1.429 . S
C873 C867 1.429 . S
C873 C874 1.523 . S
C874 C855 1.368 . S
C874 C868 1.368 . S
C874 C873 1.523 . S
C875 C859 1.429 . S
C875 C871 1.429 . S
C875 C876 1.523 . S
C876 C860 1.368 . S
C876 C872 1.368 . S
C876 C875 1.523 . S
H877 C852 0.950 . S
H878 C854 0.950 . S
H879 C855 0.949 . S
H880 C857 0.950 . S
H881 C859 0.950 . S
C882 C883 1.349 . S
C882 C884 1.327 . S
C882 H907 0.950 . S
C883 C882 1.349 . S
C883 C899 1.349 . S
C884 C882 1.327 . S
C884 C903 1.429 . S
C884 H908 0.950 . S
C885 C902 1.574 . S
C885 C904 1.368 . S
C885 H909 0.949 . S
H886 C890 0.949 . S
C887 C888 1.349 . S
C887 C889 1.327 . S
C887 H910 0.950 . S
C888 C887 1.349 . S
C888 C900 1.349 . S
C889 C887 1.327 . S
C889 C905 1.429 . S
C889 H911 0.950 . S
C890 H886 0.949 . S
C890 C898 1.574 . S
C890 C906 1.368 . S
H891 C899 0.950 . S
H892 C897 0.950 . S
H893 C898 0.949 . S
H894 C900 0.950 . S
H895 C901 0.950 . S
H896 C902 0.949 . S
C897 H892 0.950 . S
C897 C899 1.327 . S
C897 C903 1.429 . S
C898 C890 1.574 . S
C898 H893 0.949 . S
C898 C904 1.368 . S
C899 C883 1.349 . S
C899 H891 0.950 . S
C899 C897 1.327 . S
C900 C888 1.349 . S
C900 H894 0.950 . S
C900 C901 1.327 . S
C901 H895 0.950 . S
C901 C900 1.327 . S
C901 C905 1.429 . S
C902 C885 1.574 . S
C902 H896 0.949 . S
C902 C906 1.368 . S
C903 C884 1.429 . S
C903 C897 1.429 . S
C903 C904 1.523 . S
C904 C885 1.368 . S
C904 C898 1.368 . S
C904 C903 1.523 . S
C905 C889 1.429 . S
C905 C901 1.429 . S
C905 C906 1.523 . S
C906 C890 1.368 . S
C906 C902 1.368 . S
C906 C905 1.523 . S
H907 C882 0.950 . S
H908 C884 0.950 . S
H909 C885 0.949 . S
H910 C887 0.950 . S
H911 C889 0.950 . S
C193 C7 1.314 . S
C198 N93 1.324 . S
C223 C37 1.228 . S
C228 N106 1.236 . S
C253 C54 1.212 . S
C258 N115 1.215 . S
C288 N132 1.341 . S
C283 C87 1.327 . S
C318 N145 1.282 . S
C313 C30 1.282 . S
C343 C51 1.336 . S
C348 N154 1.354 . S
C373 C84 1.261 . S
C378 N167 1.264 . S
C403 C10 1.194 . S
C408 N184 1.194 . S
C433 C59 1.338 . S
C438 N180 1.355 . S
C468 N141 1.207 . S
C463 C74 1.202 . S
C498 N158 1.255 . S
C493 C18 1.250 . S
C523 C32 1.325 . S
C528 N171 1.332 . S
C558 N102 1.339 . S
C553 C73 1.324 . S
C583 C15 1.332 . S
C588 N119 1.350 . S
C618 N128 1.294 . S
C613 C43 1.284 . S
C648 N89 1.198 . S
C643 C62 1.193 . S
C678 N168 1.363 . S
C673 C21 1.363 . S
C708 N181 1.338 . S
C703 C29 1.333 . S
C733 C52 1.303 . S
C738 N142 1.302 . S
C768 N155 1.350 . S
C763 C81 1.349 . S
C798 N116 1.324 . S
C793 C40 1.325 . S
C823 C65 1.363 . S
C828 N129 1.360 . S
C858 N90 1.306 . S
C853 C76 1.306 . S
C888 N103 1.346 . S
C883 C8 1.349 . S
