# Generated by pormake.
# Topology ptr, (4,4)-cn, num edge types: 1
# Building blocks:
#     Node 0, Type 0, BuildingBlock: CEKHIL_clean_sbu_0, # of connection points: 4
#     Node 1, Type 0, BuildingBlock: CEKHIL_clean_sbu_0, # of connection points: 4
#     Node 2, Type 0, BuildingBlock: CEKHIL_clean_sbu_0, # of connection points: 4
#     Node 3, Type 0, BuildingBlock: CEKHIL_clean_sbu_0, # of connection points: 4
#     Node 4, Type 0, BuildingBlock: CEKHIL_clean_sbu_0, # of connection points: 4
#     Node 5, Type 0, BuildingBlock: CEKHIL_clean_sbu_0, # of connection points: 4
#     Node 6, Type 0, BuildingBlock: CEKHIL_clean_sbu_0, # of connection points: 4
#     Node 7, Type 0, BuildingBlock: CEKHIL_clean_sbu_0, # of connection points: 4
#     Node 8, Type 0, BuildingBlock: CEKHIL_clean_sbu_0, # of connection points: 4
#     Node 9, Type 0, BuildingBlock: CEKHIL_clean_sbu_0, # of connection points: 4
#     Node 10, Type 0, BuildingBlock: CEKHIL_clean_sbu_0, # of connection points: 4
#     Node 11, Type 0, BuildingBlock: CEKHIL_clean_sbu_0, # of connection points: 4
#     Node 12, Type 0, BuildingBlock: CEKHIL_clean_sbu_0, # of connection points: 4
#     Node 13, Type 0, BuildingBlock: CEKHIL_clean_sbu_0, # of connection points: 4
#     Node 14, Type 0, BuildingBlock: CEKHIL_clean_sbu_0, # of connection points: 4
#     Node 15, Type 0, BuildingBlock: CEKHIL_clean_sbu_0, # of connection points: 4
#     Node 16, Type 0, BuildingBlock: CEKHIL_clean_sbu_0, # of connection points: 4
#     Node 17, Type 0, BuildingBlock: CEKHIL_clean_sbu_0, # of connection points: 4
#     Node 18, Type 1, BuildingBlock: MIFKUJ_clean_linker_1, # of connection points: 4
#     Node 19, Type 1, BuildingBlock: MIFKUJ_clean_linker_1, # of connection points: 4
#     Node 20, Type 1, BuildingBlock: MIFKUJ_clean_linker_1, # of connection points: 4
#     Node 21, Type 1, BuildingBlock: MIFKUJ_clean_linker_1, # of connection points: 4
#     Node 22, Type 1, BuildingBlock: MIFKUJ_clean_linker_1, # of connection points: 4
#     Node 23, Type 1, BuildingBlock: MIFKUJ_clean_linker_1, # of connection points: 4
#     Node 24, Type 1, BuildingBlock: MIFKUJ_clean_linker_1, # of connection points: 4
#     Node 25, Type 1, BuildingBlock: MIFKUJ_clean_linker_1, # of connection points: 4
#     Node 26, Type 1, BuildingBlock: MIFKUJ_clean_linker_1, # of connection points: 4
#     Node 27, Type 1, BuildingBlock: MIFKUJ_clean_linker_1, # of connection points: 4
#     Node 28, Type 1, BuildingBlock: MIFKUJ_clean_linker_1, # of connection points: 4
#     Node 29, Type 1, BuildingBlock: MIFKUJ_clean_linker_1, # of connection points: 4
#     Node 30, Type 1, BuildingBlock: MIFKUJ_clean_linker_1, # of connection points: 4
#     Node 31, Type 1, BuildingBlock: MIFKUJ_clean_linker_1, # of connection points: 4
#     Node 32, Type 1, BuildingBlock: MIFKUJ_clean_linker_1, # of connection points: 4
#     Node 33, Type 1, BuildingBlock: MIFKUJ_clean_linker_1, # of connection points: 4
#     Node 34, Type 1, BuildingBlock: MIFKUJ_clean_linker_1, # of connection points: 4
#     Node 35, Type 1, BuildingBlock: MIFKUJ_clean_linker_1, # of connection points: 4
#     Edge 36, Type (0, 1), BuildingBlock: ZUJKAS_clean_linker_0, # of connection points: 2
#     Edge 37, Type (0, 1), BuildingBlock: ZUJKAS_clean_linker_0, # of connection points: 2
#     Edge 38, Type (0, 1), BuildingBlock: ZUJKAS_clean_linker_0, # of connection points: 2
#     Edge 39, Type (0, 1), BuildingBlock: ZUJKAS_clean_linker_0, # of connection points: 2
#     Edge 40, Type (0, 1), BuildingBlock: ZUJKAS_clean_linker_0, # of connection points: 2
#     Edge 41, Type (0, 1), BuildingBlock: ZUJKAS_clean_linker_0, # of connection points: 2
#     Edge 42, Type (0, 1), BuildingBlock: ZUJKAS_clean_linker_0, # of connection points: 2
#     Edge 43, Type (0, 1), BuildingBlock: ZUJKAS_clean_linker_0, # of connection points: 2
#     Edge 44, Type (0, 1), BuildingBlock: ZUJKAS_clean_linker_0, # of connection points: 2
#     Edge 45, Type (0, 1), BuildingBlock: ZUJKAS_clean_linker_0, # of connection points: 2
#     Edge 46, Type (0, 1), BuildingBlock: ZUJKAS_clean_linker_0, # of connection points: 2
#     Edge 47, Type (0, 1), BuildingBlock: ZUJKAS_clean_linker_0, # of connection points: 2
#     Edge 48, Type (0, 1), BuildingBlock: ZUJKAS_clean_linker_0, # of connection points: 2
#     Edge 49, Type (0, 1), BuildingBlock: ZUJKAS_clean_linker_0, # of connection points: 2
#     Edge 50, Type (0, 1), BuildingBlock: ZUJKAS_clean_linker_0, # of connection points: 2
#     Edge 51, Type (0, 1), BuildingBlock: ZUJKAS_clean_linker_0, # of connection points: 2
#     Edge 52, Type (0, 1), BuildingBlock: ZUJKAS_clean_linker_0, # of connection points: 2
#     Edge 53, Type (0, 1), BuildingBlock: ZUJKAS_clean_linker_0, # of connection points: 2
#     Edge 54, Type (0, 1), BuildingBlock: ZUJKAS_clean_linker_0, # of connection points: 2
#     Edge 55, Type (0, 1), BuildingBlock: ZUJKAS_clean_linker_0, # of connection points: 2
#     Edge 56, Type (0, 1), BuildingBlock: ZUJKAS_clean_linker_0, # of connection points: 2
#     Edge 57, Type (0, 1), BuildingBlock: ZUJKAS_clean_linker_0, # of connection points: 2
#     Edge 58, Type (0, 1), BuildingBlock: ZUJKAS_clean_linker_0, # of connection points: 2
#     Edge 59, Type (0, 1), BuildingBlock: ZUJKAS_clean_linker_0, # of connection points: 2
#     Edge 60, Type (0, 1), BuildingBlock: ZUJKAS_clean_linker_0, # of connection points: 2
#     Edge 61, Type (0, 1), BuildingBlock: ZUJKAS_clean_linker_0, # of connection points: 2
#     Edge 62, Type (0, 1), BuildingBlock: ZUJKAS_clean_linker_0, # of connection points: 2
#     Edge 63, Type (0, 1), BuildingBlock: ZUJKAS_clean_linker_0, # of connection points: 2
#     Edge 64, Type (0, 1), BuildingBlock: ZUJKAS_clean_linker_0, # of connection points: 2
#     Edge 65, Type (0, 1), BuildingBlock: ZUJKAS_clean_linker_0, # of connection points: 2
#     Edge 66, Type (0, 1), BuildingBlock: ZUJKAS_clean_linker_0, # of connection points: 2
#     Edge 67, Type (0, 1), BuildingBlock: ZUJKAS_clean_linker_0, # of connection points: 2
#     Edge 68, Type (0, 1), BuildingBlock: ZUJKAS_clean_linker_0, # of connection points: 2
#     Edge 69, Type (0, 1), BuildingBlock: ZUJKAS_clean_linker_0, # of connection points: 2
#     Edge 70, Type (0, 1), BuildingBlock: ZUJKAS_clean_linker_0, # of connection points: 2
#     Edge 71, Type (0, 1), BuildingBlock: ZUJKAS_clean_linker_0, # of connection points: 2
#     Edge 72, Type (0, 1), BuildingBlock: ZUJKAS_clean_linker_0, # of connection points: 2
#     Edge 73, Type (0, 1), BuildingBlock: ZUJKAS_clean_linker_0, # of connection points: 2
#     Edge 74, Type (0, 1), BuildingBlock: ZUJKAS_clean_linker_0, # of connection points: 2
#     Edge 75, Type (0, 1), BuildingBlock: ZUJKAS_clean_linker_0, # of connection points: 2
#     Edge 76, Type (0, 1), BuildingBlock: ZUJKAS_clean_linker_0, # of connection points: 2
#     Edge 77, Type (0, 1), BuildingBlock: ZUJKAS_clean_linker_0, # of connection points: 2
#     Edge 78, Type (0, 1), BuildingBlock: ZUJKAS_clean_linker_0, # of connection points: 2
#     Edge 79, Type (0, 1), BuildingBlock: ZUJKAS_clean_linker_0, # of connection points: 2
#     Edge 80, Type (0, 1), BuildingBlock: ZUJKAS_clean_linker_0, # of connection points: 2
#     Edge 81, Type (0, 1), BuildingBlock: ZUJKAS_clean_linker_0, # of connection points: 2
#     Edge 82, Type (0, 1), BuildingBlock: ZUJKAS_clean_linker_0, # of connection points: 2
#     Edge 83, Type (0, 1), BuildingBlock: ZUJKAS_clean_linker_0, # of connection points: 2
#     Edge 84, Type (0, 1), BuildingBlock: ZUJKAS_clean_linker_0, # of connection points: 2
#     Edge 85, Type (0, 1), BuildingBlock: ZUJKAS_clean_linker_0, # of connection points: 2
#     Edge 86, Type (0, 1), BuildingBlock: ZUJKAS_clean_linker_0, # of connection points: 2
#     Edge 87, Type (0, 1), BuildingBlock: ZUJKAS_clean_linker_0, # of connection points: 2
#     Edge 88, Type (0, 1), BuildingBlock: ZUJKAS_clean_linker_0, # of connection points: 2
#     Edge 89, Type (0, 1), BuildingBlock: ZUJKAS_clean_linker_0, # of connection points: 2
#     Edge 90, Type (0, 1), BuildingBlock: ZUJKAS_clean_linker_0, # of connection points: 2
#     Edge 91, Type (0, 1), BuildingBlock: ZUJKAS_clean_linker_0, # of connection points: 2
#     Edge 92, Type (0, 1), BuildingBlock: ZUJKAS_clean_linker_0, # of connection points: 2
#     Edge 93, Type (0, 1), BuildingBlock: ZUJKAS_clean_linker_0, # of connection points: 2
#     Edge 94, Type (0, 1), BuildingBlock: ZUJKAS_clean_linker_0, # of connection points: 2
#     Edge 95, Type (0, 1), BuildingBlock: ZUJKAS_clean_linker_0, # of connection points: 2
#     Edge 96, Type (0, 1), BuildingBlock: ZUJKAS_clean_linker_0, # of connection points: 2
#     Edge 97, Type (0, 1), BuildingBlock: ZUJKAS_clean_linker_0, # of connection points: 2
#     Edge 98, Type (0, 1), BuildingBlock: ZUJKAS_clean_linker_0, # of connection points: 2
#     Edge 99, Type (0, 1), BuildingBlock: ZUJKAS_clean_linker_0, # of connection points: 2
#     Edge 100, Type (0, 1), BuildingBlock: ZUJKAS_clean_linker_0, # of connection points: 2
#     Edge 101, Type (0, 1), BuildingBlock: ZUJKAS_clean_linker_0, # of connection points: 2
#     Edge 102, Type (0, 1), BuildingBlock: ZUJKAS_clean_linker_0, # of connection points: 2
#     Edge 103, Type (0, 1), BuildingBlock: ZUJKAS_clean_linker_0, # of connection points: 2
#     Edge 104, Type (0, 1), BuildingBlock: ZUJKAS_clean_linker_0, # of connection points: 2
#     Edge 105, Type (0, 1), BuildingBlock: ZUJKAS_clean_linker_0, # of connection points: 2
#     Edge 106, Type (0, 1), BuildingBlock: ZUJKAS_clean_linker_0, # of connection points: 2
#     Edge 107, Type (0, 1), BuildingBlock: ZUJKAS_clean_linker_0, # of connection points: 2
# Relax obj value: 0.037
# Max RMSD: 0.118
# Mean RMSD: 0.059
data_MOF--net-ptr--node1-CEKHIL_clean_sbu_0--node2-MIFKUJ_clean_linker_1--edge1-ZUJKAS_clean_linker_0
_symmetry_space_group_name_H-M    P1
_symmetry_Int_Tables_number       1
_symmetry_cell_setting            triclinic
loop_
_symmetry_equiv_pos_as_xyz
'x, y, z'
_cell_length_a     112.02862
_cell_length_b     110.89271
_cell_length_c     77.658989
_cell_angle_alpha  90.798438
_cell_angle_beta   89.554431
_cell_angle_gamma 120.87439
loop_
_atom_site_label
_atom_site_type_symbol
_atom_site_fract_x
_atom_site_fract_y
_atom_site_fract_z
_atom_type_partial_charge
Co0 Co 0.00718 0.34583 0.00887 0.0
O1 O 0.01273 0.33645 0.02467 0.0
O2 O 0.0272 0.35646 0.01177 0.0
C3 C 0.99259 0.32655 0.99329 0.0
O4 O 0.00522 0.35822 0.99127 0.0
Co5 Co 0.97637 0.33819 0.00763 0.0
O6 O 0.98249 0.34984 0.98661 0.0
C7 C 0.99431 0.3558 0.03615 0.0
C8 C 0.02541 0.34659 0.02225 0.0
C9 C 0.99527 0.35822 0.98304 0.0
O10 O 0.00492 0.35657 0.02853 0.0
O11 O 0.98185 0.34807 0.0306 0.0
O12 O 0.00588 0.3332 0.99023 0.0
O13 O 0.98882 0.33096 0.00653 0.0
Co14 Co 0.65996 0.65999 0.01084 0.0
O15 O 0.67411 0.66981 0.99378 0.0
O16 O 0.66892 0.64949 0.00522 0.0
C17 C 0.66583 0.6788 0.02789 0.0
O18 O 0.64655 0.64707 0.02919 0.0
Co19 Co 0.63695 0.66723 0.0173 0.0
O20 O 0.63241 0.65488 0.03752 0.0
C21 C 0.63547 0.6507 0.98648 0.0
C22 C 0.67662 0.65964 0.99473 0.0
C23 C 0.63705 0.64658 0.03911 0.0
O24 O 0.64569 0.64973 0.99221 0.0
O25 O 0.63118 0.65818 0.99388 0.0
O26 O 0.67256 0.67216 0.02892 0.0
O27 O 0.65677 0.67469 0.01566 0.0
Co28 Co 0.34561 0.00411 0.01022 0.0
O29 O 0.33686 0.00957 0.99338 0.0
O30 O 0.35628 0.02432 0.00721 0.0
C31 C 0.32607 0.9897 0.02502 0.0
O32 O 0.35736 0.00227 0.02882 0.0
Co33 Co 0.33775 0.97295 0.01234 0.0
O34 O 0.3486 0.97933 0.03405 0.0
C35 C 0.3562 0.99065 0.98448 0.0
C36 C 0.34685 0.02241 0.99602 0.0
C37 C 0.35697 0.99228 0.03758 0.0
O38 O 0.35673 0.00148 0.99154 0.0
O39 O 0.34834 0.97814 0.99002 0.0
O40 O 0.3327 0.00317 0.02793 0.0
O41 O 0.33068 0.98561 0.0123 0.0
Co42 Co 0.99853 0.65998 0.01216 0.0
O43 O 0.9933 0.66928 0.99583 0.0
O44 O 0.97859 0.64922 0.00845 0.0
C45 C 0.01256 0.67935 0.02794 0.0
O46 O 1.00015 0.64761 0.03015 0.0
Co47 Co 0.02935 0.66791 0.01505 0.0
O48 O 0.02277 0.6566 0.03632 0.0
C49 C 0.01225 0.65001 0.98611 0.0
C50 C 0.98059 0.65908 0.99784 0.0
C51 C 0.00992 0.64794 0.03918 0.0
O52 O 1.00143 0.64936 0.99292 0.0
O53 O 0.02452 0.65768 0.99228 0.0
O54 O 0.9992 0.67255 0.0305 0.0
O55 O 0.01677 0.67498 0.01509 0.0
Co56 Co 0.34548 0.3454 0.01075 0.0
O57 O 0.3313 0.33555 0.02775 0.0
O58 O 0.33674 0.35608 0.01672 0.0
C59 C 0.33931 0.32656 0.99359 0.0
O60 O 0.35895 0.35836 0.99248 0.0
Co61 Co 0.36813 0.33776 0.00369 0.0
O62 O 0.37244 0.34999 0.98337 0.0
C63 C 0.3699 0.35404 0.03493 0.0
C64 C 0.32897 0.34585 0.02708 0.0
C65 C 0.36811 0.35857 0.98216 0.0
O66 O 0.35982 0.35535 0.02941 0.0
O67 O 0.37396 0.34647 0.02726 0.0
O68 O 0.33279 0.33342 0.99255 0.0
O69 O 0.3484 0.33057 0.00575 0.0
Co70 Co 0.65971 0.00193 0.0107 0.0
O71 O 0.66866 0.99691 0.02778 0.0
O72 O 0.64935 0.98177 0.01402 0.0
C73 C 0.67917 0.01644 0.99584 0.0
O74 O 0.64783 0.00325 0.99181 0.0
Co75 Co 0.66692 0.03285 0.00776 0.0
O76 O 0.65645 0.02604 0.98583 0.0
C77 C 0.64861 0.0153 0.03584 0.0
C78 C 0.65885 0.98397 0.02526 0.0
C79 C 0.64821 0.01302 0.98259 0.0
O80 O 0.64841 0.00451 0.02917 0.0
O81 O 0.65617 0.02774 0.02995 0.0
O82 O 0.67278 0.00295 0.99319 0.0
O83 O 0.67438 0.02053 0.00836 0.0
Co84 Co 0.67236 0.68045 0.34187 0.0
O85 O 0.67656 0.67041 0.35839 0.0
O86 O 0.69208 0.69078 0.34705 0.0
C87 C 0.65886 0.66167 0.32491 0.0
O88 O 0.67197 0.69354 0.32394 0.0
Co89 Co 0.64196 0.67332 0.33666 0.0
O90 O 0.64981 0.68534 0.31609 0.0
C91 C 0.65763 0.68974 0.36723 0.0
C92 C 0.68943 0.6805 0.35728 0.0
C93 C 0.66283 0.6938 0.31423 0.0
O94 O 0.66876 0.69066 0.36101 0.0
O95 O 0.64567 0.68233 0.36017 0.0
O96 O 0.67231 0.66828 0.32339 0.0
O97 O 0.65417 0.66582 0.33747 0.0
Co98 Co 0.32662 0.99177 0.34743 0.0
O99 O 0.34053 1.00024 0.32976 0.0
O100 O 0.33502 0.98053 0.34316 0.0
C101 C 0.33322 0.01165 0.36266 0.0
O102 O 0.3133 0.98014 0.36661 0.0
Co103 Co 0.30432 1.0002 0.35258 0.0
O104 O 0.29955 0.98871 0.37367 0.0
C105 C 0.30217 0.98217 0.32306 0.0
C106 C 0.34262 0.98985 0.33173 0.0
C107 C 0.30395 0.98032 0.37619 0.0
O108 O 0.31201 0.98084 0.32938 0.0
O109 O 0.29842 0.99039 0.32959 0.0
O110 O 0.33965 0.00479 0.36467 0.0
O111 O 0.324 0.007 0.3506 0.0
Co112 Co 0.01453 0.33859 0.34517 0.0
O113 O 0.0059 0.34369 0.32767 0.0
O114 O 0.02514 0.35869 0.34166 0.0
C115 C 0.99485 0.32429 0.35984 0.0
O116 O 0.02621 0.33742 0.36439 0.0
Co117 Co 0.00713 0.3077 0.34915 0.0
O118 O 0.01835 0.3148 0.37052 0.0
C119 C 0.02503 0.32454 0.32038 0.0
C120 C 0.01587 0.35658 0.33015 0.0
C121 C 0.02632 0.32789 0.37359 0.0
O122 O 0.0258 0.33563 0.327 0.0
O123 O 0.01721 0.31223 0.3265 0.0
O124 O 1.00131 0.33781 0.36237 0.0
O125 O 0.99977 0.32007 0.34763 0.0
Co126 Co 0.66356 0.9897 0.34602 0.0
O127 O 0.6582 0.99803 0.3284 0.0
O128 O 0.64377 0.97828 0.34183 0.0
C129 C 0.67693 0.00973 0.3611 0.0
O130 O 0.66509 0.97817 0.3652 0.0
Co131 Co 0.69449 0.99852 0.35111 0.0
O132 O 0.68752 0.98703 0.37221 0.0
C133 C 0.67871 0.98037 0.32161 0.0
C134 C 0.6456 0.98757 0.33044 0.0
C135 C 0.6746 0.97848 0.37475 0.0
O136 O 0.66737 0.97884 0.32794 0.0
O137 O 0.69071 0.98874 0.32812 0.0
O138 O 0.66352 0.00272 0.36327 0.0
O139 O 0.68157 0.00509 0.34905 0.0
Co140 Co 0.01342 0.67918 0.34581 0.0
O141 O 0.99883 0.66859 0.36212 0.0
O142 O 0.0034 0.68875 0.35078 0.0
C143 C 0.0091 0.66076 0.32878 0.0
O144 O 0.02704 0.69269 0.32803 0.0
Co145 Co 0.0377 0.67355 0.34065 0.0
O146 O 0.04216 0.68592 0.32045 0.0
C147 C 0.03705 0.68898 0.37156 0.0
C148 C 0.9957 0.67831 0.3609 0.0
C149 C 0.03699 0.69373 0.31851 0.0
O150 O 0.02689 0.68974 0.36516 0.0
O151 O 0.04195 0.68192 0.36447 0.0
O152 O 1.0018 0.66676 0.32712 0.0
O153 O 0.01774 0.66524 0.34147 0.0
Co154 Co 0.32593 0.33523 0.34364 0.0
O155 O 0.33486 0.33071 0.36135 0.0
O156 O 0.31559 0.31522 0.34776 0.0
C157 C 0.34542 0.34932 0.32858 0.0
O158 O 0.31399 0.33583 0.32432 0.0
Co159 Co 0.33294 0.36588 0.33857 0.0
O160 O 0.32209 0.35826 0.317 0.0
C161 C 0.31513 0.34949 0.36766 0.0
C162 C 0.32505 0.31771 0.35919 0.0
C163 C 0.31401 0.3451 0.31449 0.0
O164 O 0.31468 0.33839 0.36161 0.0
O165 O 0.32269 0.36167 0.36109 0.0
O166 O 0.33905 0.33577 0.32651 0.0
O167 O 0.34055 0.35376 0.34061 0.0
Co168 Co 0.34094 0.01492 0.67503 0.0
O169 O 0.34603 0.00586 0.69196 0.0
O170 O 0.36071 0.02604 0.67954 0.0
C171 C 0.32753 0.99552 0.65896 0.0
O172 O 0.33968 0.02719 0.65665 0.0
Co173 Co 0.31014 0.00666 0.67031 0.0
O174 O 0.3173 0.01858 0.64956 0.0
C175 C 0.326 0.02399 0.70026 0.0
C176 C 0.35869 0.01631 0.69037 0.0
C177 C 0.33024 0.02716 0.64724 0.0
O178 O 0.33722 0.02531 0.6938 0.0
O179 O 0.31397 0.01602 0.69361 0.0
O180 O 0.34097 0.00242 0.65702 0.0
O181 O 0.32288 0.9998 0.67141 0.0
Co182 Co 0.99211 0.32538 0.67551 0.0
O183 O 0.00642 0.33545 0.65866 0.0
O184 O 0.00232 0.31592 0.67136 0.0
C185 C 0.99635 0.3443 0.69147 0.0
O186 O 0.97881 0.31239 0.69387 0.0
Co187 Co 0.96754 0.33059 0.68017 0.0
O188 O 0.96352 0.31901 0.70107 0.0
C189 C 0.96811 0.31429 0.65012 0.0
C190 C 0.00973 0.32592 0.66056 0.0
C191 C 0.9689 0.31144 0.70339 0.0
O192 O 0.9785 0.31401 0.65665 0.0
O193 O 0.96305 0.32134 0.65679 0.0
O194 O 0.00383 0.33854 0.69355 0.0
O195 O 0.98754 0.33926 0.67895 0.0
Co196 Co 0.67888 0.6697 0.67641 0.0
O197 O 0.66974 0.67449 0.65929 0.0
O198 O 0.68929 0.68976 0.67253 0.0
C199 C 0.6596 0.65554 0.69179 0.0
O200 O 0.69106 0.66874 0.69513 0.0
Co201 Co 0.67161 0.63886 0.68045 0.0
O202 O 0.68278 0.64615 0.70183 0.0
C203 C 0.68931 0.65561 0.65147 0.0
C204 C 0.67968 0.68744 0.66142 0.0
C205 C 0.69104 0.65925 0.70455 0.0
O206 O 0.6898 0.66663 0.65784 0.0
O207 O 0.68178 0.64335 0.65786 0.0
O208 O 0.6661 0.66908 0.69412 0.0
O209 O 0.6642 0.65119 0.67935 0.0
Co210 Co 0.33258 0.32509 0.67924 0.0
O211 O 0.32819 0.33462 0.66216 0.0
O212 O 0.31288 0.31449 0.67419 0.0
C213 C 0.34597 0.34425 0.69574 0.0
O214 O 0.33308 0.31239 0.69764 0.0
Co215 Co 0.36307 0.33264 0.68511 0.0
O216 O 0.35521 0.32039 0.70549 0.0
C217 C 0.34771 0.31594 0.6545 0.0
C218 C 0.31537 0.32445 0.6635 0.0
C219 C 0.34217 0.31201 0.70733 0.0
O220 O 0.33639 0.31466 0.66056 0.0
O221 O 0.3596 0.32369 0.66161 0.0
O222 O 0.33251 0.33755 0.69726 0.0
O223 O 0.35071 0.33991 0.68346 0.0
Co224 Co 0.67832 0.01288 0.67426 0.0
O225 O 0.66458 0.00423 0.6921 0.0
O226 O 0.67021 0.02425 0.67945 0.0
C227 C 0.67129 0.99318 0.65843 0.0
O228 O 0.6914 0.0247 0.65498 0.0
Co229 Co 0.70029 0.00421 0.66759 0.0
O230 O 0.70466 0.01584 0.64668 0.0
C231 C 0.70316 0.02191 0.6978 0.0
C232 C 0.66259 0.01473 0.69068 0.0
C233 C 0.7004 0.02442 0.64481 0.0
O234 O 0.69325 0.02343 0.69211 0.0
O235 O 0.70668 0.01371 0.69067 0.0
O236 O 0.66496 1.00019 0.65704 0.0
O237 O 0.68069 0.99757 0.67025 0.0
Co238 Co 0.99038 0.66641 0.67633 0.0
O239 O 0.99873 0.66122 0.69411 0.0
O240 O 0.9793 0.64641 0.68032 0.0
C241 C 0.01019 0.68007 0.66155 0.0
O242 O 0.97889 0.66767 0.65692 0.0
Co243 Co 0.99868 0.69749 0.67129 0.0
O244 O 0.98763 0.69026 0.6498 0.0
C245 C 0.98051 0.68148 0.70035 0.0
C246 C 0.98851 0.64842 0.69189 0.0
C247 C 0.97923 0.67717 0.64721 0.0
O248 O 0.97944 0.67011 0.69422 0.0
O249 O 0.98856 0.69359 0.69385 0.0
O250 O 0.00342 0.66652 0.6593 0.0
O251 O 0.00546 0.68469 0.67352 0.0
H252 H 0.15775 0.34628 0.19281 0.0
H253 H 0.13963 0.34718 0.20945 0.0
H254 H 0.10819 0.31116 0.18098 0.0
H255 H 0.12642 0.31008 0.16469 0.0
H256 H 0.16434 0.32643 0.19106 0.0
H257 H 0.15034 0.34944 0.1511 0.0
H258 H 0.13439 0.35288 0.13337 0.0
H259 H 0.12233 0.31406 0.10607 0.0
H260 H 0.13814 0.31057 0.12407 0.0
H261 H 0.17769 0.30857 0.12777 0.0
H262 H 0.19815 0.31149 0.11243 0.0
H263 H 0.22318 0.35248 0.13632 0.0
H264 H 0.20283 0.34909 0.15217 0.0
H265 H 0.16675 0.32778 0.12723 0.0
H266 H 0.18408 0.30715 0.16666 0.0
H267 H 0.20214 0.30656 0.18355 0.0
H268 H 0.20939 0.34362 0.21168 0.0
H269 H 0.1916 0.34435 0.19448 0.0
C270 C 0.14345 0.32816 0.17746 0.0
C271 C 0.14695 0.33857 0.19016 0.0
C272 C 0.13658 0.33915 0.19954 0.0
C273 C 0.12246 0.32928 0.19648 0.0
C274 C 0.11897 0.31886 0.18372 0.0
C275 C 0.12937 0.3183 0.17431 0.0
C276 C 0.1546 0.32754 0.16778 0.0
C277 C 0.1649 0.3268 0.1771 0.0
C278 C 0.15518 0.32774 0.14957 0.0
C279 C 0.14531 0.32967 0.13903 0.0
C280 C 0.14416 0.3416 0.14141 0.0
C281 C 0.13515 0.34362 0.13116 0.0
C282 C 0.12711 0.33374 0.11832 0.0
C283 C 0.12827 0.32178 0.11598 0.0
C284 C 0.13735 0.31981 0.12618 0.0
C285 C 0.18882 0.32856 0.14116 0.0
C286 C 0.18763 0.31813 0.1297 0.0
C287 C 0.19934 0.31988 0.12087 0.0
C288 C 0.21239 0.33224 0.1231 0.0
C289 C 0.21342 0.34271 0.13452 0.0
C290 C 0.20177 0.34084 0.14351 0.0
C291 C 0.17652 0.32687 0.15053 0.0
C292 C 0.16602 0.32716 0.14116 0.0
C293 C 0.17587 0.32648 0.16871 0.0
C294 C 0.18658 0.32588 0.17919 0.0
C295 C 0.18963 0.3152 0.17639 0.0
C296 C 0.19987 0.3148 0.18615 0.0
C297 C 0.20724 0.32508 0.19891 0.0
C298 C 0.20404 0.33567 0.20179 0.0
C299 C 0.19379 0.33603 0.19207 0.0
H300 H 0.70305 0.87484 0.187 0.0
H301 H 0.70117 0.8924 0.20416 0.0
H302 H 0.66082 0.87837 0.1818 0.0
H303 H 0.66252 0.8604 0.16525 0.0
H304 H 0.68693 0.84681 0.18838 0.0
H305 H 0.69891 0.88205 0.14422 0.0
H306 H 0.69458 0.89799 0.12749 0.0
H307 H 0.65602 0.86261 0.10896 0.0
H308 H 0.6603 0.84677 0.12593 0.0
H309 H 0.66571 0.81417 0.12524 0.0
H310 H 0.66599 0.79471 0.11047 0.0
H311 H 0.70487 0.80628 0.13529 0.0
H312 H 0.70472 0.82596 0.14976 0.0
H313 H 0.68144 0.84129 0.12493 0.0
H314 H 0.66744 0.80626 0.1676 0.0
H315 H 0.6682 0.7889 0.1858 0.0
H316 H 0.70685 0.82151 0.20804 0.0
H317 H 0.70598 0.83888 0.18979 0.0
C318 C 0.68299 0.8664 0.17472 0.0
C319 C 0.69381 0.87557 0.18577 0.0
C320 C 0.69277 0.8857 0.19545 0.0
C321 C 0.68086 0.88685 0.19429 0.0
C322 C 0.67008 0.8777 0.1831 0.0
C323 C 0.6711 0.86752 0.17348 0.0
C324 C 0.68393 0.85527 0.1651 0.0
C325 C 0.686 0.84575 0.17447 0.0
C326 C 0.68214 0.85357 0.14703 0.0
C327 C 0.67987 0.86324 0.13642 0.0
C328 C 0.68952 0.87775 0.13657 0.0
C329 C 0.68708 0.88682 0.12691 0.0
C330 C 0.67493 0.88156 0.11695 0.0
C331 C 0.66538 0.86701 0.11667 0.0
C332 C 0.66787 0.85793 0.12624 0.0
C333 C 0.6851 0.82144 0.13877 0.0
C334 C 0.67438 0.81263 0.12736 0.0
C335 C 0.67455 0.80152 0.11894 0.0
C336 C 0.68542 0.79897 0.12182 0.0
C337 C 0.69627 0.80791 0.13303 0.0
C338 C 0.69618 0.81913 0.1413 0.0
C339 C 0.68456 0.83288 0.1482 0.0
C340 C 0.68254 0.84242 0.13882 0.0
C341 C 0.68607 0.83442 0.16633 0.0
C342 C 0.68673 0.82385 0.1772 0.0
C343 C 0.67617 0.80965 0.17624 0.0
C344 C 0.67664 0.79972 0.18663 0.0
C345 C 0.68763 0.80379 0.19833 0.0
C346 C 0.69819 0.81804 0.19929 0.0
C347 C 0.69772 0.82797 0.18885 0.0
H348 H 0.13217 0.8382 0.19248 0.0
H349 H 0.11488 0.81941 0.21064 0.0
H350 H 0.12193 0.78945 0.18313 0.0
H351 H 0.13968 0.80836 0.16573 0.0
H352 H 0.15932 0.84792 0.18975 0.0
H353 H 0.12054 0.82676 0.15024 0.0
H354 H 0.10147 0.80642 0.13549 0.0
H355 H 0.13112 0.79812 0.11035 0.0
H356 H 0.15009 0.81821 0.12551 0.0
H357 H 0.18705 0.85348 0.12576 0.0
H358 H 0.2072 0.87129 0.10992 0.0
H359 H 0.20092 0.9036 0.13215 0.0
H360 H 0.18097 0.8857 0.1483 0.0
H361 H 0.15965 0.84574 0.1259 0.0
H362 H 0.19769 0.86457 0.1651 0.0
H363 H 0.21735 0.88214 0.18209 0.0
H364 H 0.19006 0.89295 0.20887 0.0
H365 H 0.17059 0.87582 0.19122 0.0
C366 C 0.13712 0.82469 0.1776 0.0
C367 C 0.12997 0.82757 0.19038 0.0
C368 C 0.11999 0.81679 0.20065 0.0
C369 C 0.11698 0.80289 0.19836 0.0
C370 C 0.12409 0.80004 0.18542 0.0
C371 C 0.13413 0.81083 0.17528 0.0
C372 C 0.14811 0.83623 0.16716 0.0
C373 C 0.15923 0.84761 0.17578 0.0
C374 C 0.14823 0.83559 0.14894 0.0
C375 C 0.13672 0.82391 0.13911 0.0
C376 C 0.12292 0.82055 0.14155 0.0
C377 C 0.11204 0.80898 0.13303 0.0
C378 C 0.11478 0.8006 0.12186 0.0
C379 C 0.12865 0.80423 0.1191 0.0
C380 C 0.13951 0.81579 0.12761 0.0
C381 C 0.18257 0.86827 0.13827 0.0
C382 C 0.18997 0.8644 0.12711 0.0
C383 C 0.20147 0.87461 0.11802 0.0
C384 C 0.20572 0.88892 0.11975 0.0
C385 C 0.1981 0.89272 0.13072 0.0
C386 C 0.18664 0.8825 0.13989 0.0
C387 C 0.17082 0.85743 0.14852 0.0
C388 C 0.15959 0.84618 0.13987 0.0
C389 C 0.17068 0.8581 0.16672 0.0
C390 C 0.1827 0.86903 0.17671 0.0
C391 C 0.196 0.87092 0.1744 0.0
C392 C 0.2072 0.88085 0.18428 0.0
C393 C 0.20529 0.88896 0.19686 0.0
C394 C 0.19196 0.88705 0.19911 0.0
C395 C 0.18078 0.87717 0.18915 0.0
H396 H 0.29895 0.16663 0.83153 0.0
H397 H 0.29741 0.18374 0.81351 0.0
H398 H 0.33711 0.21653 0.83316 0.0
H399 H 0.33851 0.19945 0.85115 0.0
H400 H 0.31834 0.15866 0.83177 0.0
H401 H 0.30104 0.17926 0.87238 0.0
H402 H 0.30108 0.19899 0.88692 0.0
H403 H 0.34243 0.2134 0.90616 0.0
H404 H 0.34222 0.19356 0.8918 0.0
H405 H 0.34622 0.15977 0.89415 0.0
H406 H 0.35065 0.14419 0.91141 0.0
H407 H 0.31231 0.10846 0.89294 0.0
H408 H 0.30777 0.12415 0.87605 0.0
H409 H 0.32567 0.16546 0.89492 0.0
H410 H 0.34342 0.14548 0.85476 0.0
H411 H 0.34502 0.12741 0.83839 0.0
H412 H 0.30463 0.11335 0.81611 0.0
H413 H 0.3028 0.13095 0.83325 0.0
C414 C 0.31876 0.18178 0.84284 0.0
C415 C 0.3073 0.17752 0.83195 0.0
C416 C 0.30645 0.18731 0.82164 0.0
C417 C 0.31709 0.20154 0.82196 0.0
C418 C 0.32858 0.20573 0.83285 0.0
C419 C 0.32942 0.19596 0.84312 0.0
C420 C 0.31979 0.17142 0.85369 0.0
C421 C 0.31965 0.15996 0.84563 0.0
C422 C 0.32187 0.17334 0.87169 0.0
C423 C 0.32166 0.185 0.88096 0.0
C424 C 0.31011 0.18669 0.87973 0.0
C425 C 0.31017 0.198 0.88798 0.0
C426 C 0.32177 0.20779 0.89766 0.0
C427 C 0.33325 0.20595 0.89901 0.0
C428 C 0.33317 0.19463 0.89079 0.0
C429 C 0.32672 0.14313 0.8837 0.0
C430 C 0.33873 0.14859 0.89391 0.0
C431 C 0.3413 0.13966 0.90365 0.0
C432 C 0.33187 0.12507 0.90349 0.0
C433 C 0.31973 0.11965 0.89346 0.0
C434 C 0.31718 0.12859 0.88369 0.0
C435 C 0.32428 0.15267 0.87301 0.0
C436 C 0.32416 0.164 0.8811 0.0
C437 C 0.32203 0.15064 0.85501 0.0
C438 C 0.3229 0.13945 0.84542 0.0
C439 C 0.33479 0.13832 0.84661 0.0
C440 C 0.33577 0.12809 0.83706 0.0
C441 C 0.32496 0.11891 0.82591 0.0
C442 C 0.31305 0.12007 0.82478 0.0
C443 C 0.31204 0.13022 0.83444 0.0
H444 H 0.83584 0.12895 0.83077 0.0
H445 H 0.81682 0.11141 0.81288 0.0
H446 H 0.789 0.12313 0.83621 0.0
H447 H 0.80821 0.14103 0.85353 0.0
H448 H 0.84745 0.15684 0.8312 0.0
H449 H 0.82403 0.12001 0.87238 0.0
H450 H 0.80357 0.10214 0.88781 0.0
H451 H 0.79757 0.13459 0.91007 0.0
H452 H 0.8178 0.15236 0.89419 0.0
H453 H 0.85459 0.18872 0.89262 0.0
H454 H 0.87308 0.2091 0.90786 0.0
H455 H 0.90298 0.19839 0.88912 0.0
H456 H 0.88442 0.17817 0.87361 0.0
H457 H 0.84472 0.16054 0.89469 0.0
H458 H 0.86578 0.19663 0.85244 0.0
H459 H 0.88397 0.21479 0.83458 0.0
H460 H 0.89387 0.18446 0.81426 0.0
H461 H 0.87548 0.16627 0.83207 0.0
C462 C 0.82342 0.1362 0.84361 0.0
C463 C 0.82564 0.12772 0.83203 0.0
C464 C 0.81472 0.11761 0.82193 0.0
C465 C 0.80136 0.11583 0.82316 0.0
C466 C 0.79917 0.12432 0.83483 0.0
C467 C 0.81011 0.13445 0.84488 0.0
C468 C 0.83515 0.14726 0.85387 0.0
C469 C 0.84698 0.15747 0.84512 0.0
C470 C 0.83436 0.1483 0.87199 0.0
C471 C 0.82236 0.13751 0.882 0.0
C472 C 0.81827 0.12326 0.88054 0.0
C473 C 0.80664 0.11307 0.88947 0.0
C474 C 0.79891 0.11694 0.90011 0.0
C475 C 0.80318 0.13124 0.90178 0.0
C476 C 0.81481 0.14143 0.89285 0.0
C477 C 0.86815 0.182 0.88191 0.0
C478 C 0.86512 0.19072 0.89191 0.0
C479 C 0.8757 0.20235 0.90066 0.0
C480 C 0.88954 0.20541 0.8997 0.0
C481 C 0.89249 0.19648 0.88991 0.0
C482 C 0.88189 0.18488 0.8811 0.0
C483 C 0.85697 0.17011 0.87198 0.0
C484 C 0.84526 0.15976 0.8808 0.0
C485 C 0.85783 0.16897 0.8539 0.0
C486 C 0.86936 0.18013 0.84369 0.0
C487 C 0.872 0.19394 0.84433 0.0
C488 C 0.88245 0.20433 0.83414 0.0
C489 C 0.89042 0.2011 0.82301 0.0
C490 C 0.88783 0.18727 0.82254 0.0
C491 C 0.87736 0.17687 0.83274 0.0
H492 H 0.81411 0.66131 0.82703 0.0
H493 H 0.79621 0.66148 0.80953 0.0
H494 H 0.80203 0.69804 0.8376 0.0
H495 H 0.82028 0.69804 0.85483 0.0
H496 H 0.84094 0.6796 0.83045 0.0
H497 H 0.80174 0.65804 0.86798 0.0
H498 H 0.78174 0.65522 0.88434 0.0
H499 H 0.80871 0.69355 0.9126 0.0
H500 H 0.82868 0.69642 0.89597 0.0
H501 H 0.86747 0.69506 0.89727 0.0
H502 H 0.88352 0.69142 0.91462 0.0
H503 H 0.87075 0.65257 0.887 0.0
H504 H 0.85462 0.65619 0.86989 0.0
H505 H 0.83866 0.67797 0.89426 0.0
H506 H 0.87885 0.69595 0.85717 0.0
H507 H 0.89728 0.69545 0.84065 0.0
H508 H 0.86622 0.66003 0.811 0.0
H509 H 0.8479 0.66028 0.82794 0.0
C510 C 0.81848 0.6796 0.84232 0.0
C511 C 0.81159 0.66941 0.82939 0.0
C512 C 0.80125 0.66944 0.81949 0.0
C513 C 0.79761 0.67971 0.82226 0.0
C514 C 0.80464 0.69003 0.8351 0.0
C515 C 0.81499 0.68997 0.84504 0.0
C516 C 0.82935 0.67931 0.85285 0.0
C517 C 0.84038 0.67915 0.8444 0.0
C518 C 0.82877 0.67894 0.87106 0.0
C519 C 0.81665 0.67751 0.88066 0.0
C520 C 0.80332 0.66591 0.87758 0.0
C521 C 0.79193 0.66425 0.88703 0.0
C522 C 0.79367 0.67416 0.89976 0.0
C523 C 0.80704 0.68582 0.90275 0.0
C524 C 0.81845 0.68743 0.89335 0.0
C525 C 0.85996 0.67597 0.8822 0.0
C526 C 0.86814 0.68577 0.89499 0.0
C527 C 0.87735 0.68371 0.9048 0.0
C528 C 0.8784 0.67171 0.90216 0.0
C529 C 0.87008 0.66185 0.88944 0.0
C530 C 0.86096 0.66397 0.87956 0.0
C531 C 0.85014 0.67808 0.87182 0.0
C532 C 0.83932 0.67863 0.88032 0.0
C533 C 0.85074 0.67845 0.85362 0.0
C534 C 0.862 0.6781 0.84386 0.0
C535 C 0.87603 0.68796 0.84726 0.0
C536 C 0.88655 0.68774 0.83771 0.0
C537 C 0.88322 0.67768 0.82452 0.0
C538 C 0.86915 0.66777 0.82124 0.0
C539 C 0.85866 0.668 0.83079 0.0
H540 H 0.82347 0.67935 0.52486 0.0
H541 H 0.80517 0.6799 0.54156 0.0
H542 H 0.77408 0.64351 0.51329 0.0
H543 H 0.79246 0.64274 0.49705 0.0
H544 H 0.83071 0.65989 0.52284 0.0
H545 H 0.81791 0.68351 0.48168 0.0
H546 H 0.80154 0.68701 0.4651 0.0
H547 H 0.78457 0.64546 0.4426 0.0
H548 H 0.80151 0.64241 0.45868 0.0
H549 H 0.84236 0.64072 0.45965 0.0
H550 H 0.86236 0.64268 0.4441 0.0
H551 H 0.8886 0.68403 0.46655 0.0
H552 H 0.86871 0.68161 0.4826 0.0
H553 H 0.83193 0.66039 0.45893 0.0
H554 H 0.84972 0.64006 0.49859 0.0
H555 H 0.86797 0.63963 0.51523 0.0
H556 H 0.87637 0.67763 0.54196 0.0
H557 H 0.85833 0.67816 0.52504 0.0
C558 C 0.80934 0.66106 0.50963 0.0
C559 C 0.81271 0.67148 0.52228 0.0
C560 C 0.80223 0.67186 0.5317 0.0
C561 C 0.78815 0.66178 0.5287 0.0
C562 C 0.78481 0.65136 0.516 0.0
C563 C 0.7953 0.65098 0.50659 0.0
C564 C 0.82053 0.66064 0.49979 0.0
C565 C 0.83103 0.66009 0.50888 0.0
C566 C 0.82084 0.66069 0.48158 0.0
C567 C 0.81086 0.66268 0.47143 0.0
C568 C 0.81066 0.67518 0.47312 0.0
C569 C 0.80121 0.67711 0.46371 0.0
C570 C 0.79161 0.66649 0.45252 0.0
C571 C 0.79191 0.65397 0.45085 0.0
C572 C 0.80153 0.65215 0.4601 0.0
C573 C 0.85412 0.66097 0.47233 0.0
C574 C 0.85246 0.65017 0.46119 0.0
C575 C 0.8639 0.65136 0.45224 0.0
C576 C 0.87717 0.66351 0.45405 0.0
C577 C 0.87867 0.67439 0.46509 0.0
C578 C 0.86728 0.67309 0.47419 0.0
C579 C 0.84213 0.65974 0.48201 0.0
C580 C 0.8315 0.65998 0.47289 0.0
C581 C 0.84185 0.65966 0.50022 0.0
C582 C 0.85274 0.65921 0.51047 0.0
C583 C 0.85556 0.64834 0.50795 0.0
C584 C 0.86591 0.64804 0.51757 0.0
C585 C 0.87366 0.65862 0.52986 0.0
C586 C 0.87073 0.66943 0.53242 0.0
C587 C 0.86035 0.66969 0.52286 0.0
H588 H 0.36938 0.20809 0.52057 0.0
H589 H 0.36825 0.2262 0.53746 0.0
H590 H 0.32801 0.21309 0.51539 0.0
H591 H 0.32894 0.19456 0.49917 0.0
H592 H 0.3529 0.18022 0.52221 0.0
H593 H 0.36552 0.215 0.47737 0.0
H594 H 0.36198 0.23135 0.46047 0.0
H595 H 0.32191 0.19699 0.44397 0.0
H596 H 0.32574 0.18071 0.46052 0.0
H597 H 0.32991 0.14622 0.46074 0.0
H598 H 0.32991 0.12651 0.44622 0.0
H599 H 0.37001 0.13944 0.46853 0.0
H600 H 0.37016 0.15939 0.48252 0.0
H601 H 0.3464 0.17408 0.4589 0.0
H602 H 0.3325 0.13948 0.50216 0.0
H603 H 0.33339 0.1221 0.52015 0.0
H604 H 0.37282 0.15445 0.54096 0.0
H605 H 0.3718 0.17185 0.52295 0.0
C606 C 0.34932 0.20005 0.50847 0.0
C607 C 0.36033 0.20913 0.51936 0.0
C608 C 0.35972 0.21958 0.52888 0.0
C609 C 0.34807 0.22116 0.52772 0.0
C610 C 0.33709 0.2121 0.5167 0.0
C611 C 0.33767 0.20159 0.50726 0.0
C612 C 0.34982 0.18863 0.49894 0.0
C613 C 0.35175 0.17903 0.50833 0.0
C614 C 0.34778 0.18678 0.48091 0.0
C615 C 0.34586 0.19666 0.47027 0.0
C616 C 0.35599 0.21102 0.47007 0.0
C617 C 0.3539 0.22035 0.46047 0.0
C618 C 0.34162 0.21553 0.45089 0.0
C619 C 0.33158 0.20108 0.45097 0.0
C620 C 0.33372 0.19175 0.46048 0.0
C621 C 0.34997 0.15419 0.47283 0.0
C622 C 0.33876 0.14488 0.46236 0.0
C623 C 0.33871 0.13354 0.45422 0.0
C624 C 0.34991 0.13134 0.45635 0.0
C625 C 0.36127 0.14088 0.46655 0.0
C626 C 0.36132 0.15223 0.47466 0.0
C627 C 0.34966 0.16579 0.48216 0.0
C628 C 0.34771 0.17537 0.47276 0.0
C629 C 0.35147 0.16751 0.50023 0.0
C630 C 0.35215 0.15695 0.51107 0.0
C631 C 0.34141 0.14281 0.51046 0.0
C632 C 0.34196 0.13287 0.52073 0.0
C633 C 0.35322 0.13686 0.53194 0.0
C634 C 0.36394 0.15105 0.53258 0.0
C635 C 0.36339 0.161 0.52228 0.0
H636 H 0.79962 0.16907 0.52135 0.0
H637 H 0.78207 0.15012 0.53909 0.0
H638 H 0.78804 0.12009 0.50999 0.0
H639 H 0.80602 0.13916 0.49292 0.0
H640 H 0.82674 0.17811 0.51809 0.0
H641 H 0.78747 0.15898 0.47933 0.0
H642 H 0.7678 0.13894 0.46493 0.0
H643 H 0.79624 0.12979 0.43809 0.0
H644 H 0.81582 0.14963 0.45286 0.0
H645 H 0.85329 0.1856 0.45234 0.0
H646 H 0.87336 0.20407 0.43692 0.0
H647 H 0.86825 0.23555 0.46373 0.0
H648 H 0.84798 0.21701 0.47879 0.0
H649 H 0.82602 0.17769 0.45419 0.0
H650 H 0.8648 0.19537 0.49242 0.0
H651 H 0.88479 0.21284 0.50908 0.0
H652 H 0.85791 0.22301 0.538 0.0
H653 H 0.83809 0.20597 0.52075 0.0
C654 C 0.80404 0.15554 0.50568 0.0
C655 C 0.79714 0.1584 0.51882 0.0
C656 C 0.78701 0.14753 0.52884 0.0
C657 C 0.78361 0.13356 0.52596 0.0
C658 C 0.7905 0.13073 0.51271 0.0
C659 C 0.80068 0.14161 0.50278 0.0
C660 C 0.81509 0.16715 0.4954 0.0
C661 C 0.82645 0.17818 0.50413 0.0
C662 C 0.81492 0.167 0.47717 0.0
C663 C 0.80309 0.15569 0.4673 0.0
C664 C 0.78945 0.15267 0.4703 0.0
C665 C 0.77824 0.14128 0.46199 0.0
C666 C 0.78046 0.13272 0.45048 0.0
C667 C 0.79417 0.13605 0.4471 0.0
C668 C 0.80538 0.14746 0.45538 0.0
C669 C 0.84921 0.19993 0.46681 0.0
C670 C 0.8564 0.19647 0.45474 0.0
C671 C 0.86795 0.20705 0.44607 0.0
C672 C 0.87247 0.22129 0.44921 0.0
C673 C 0.86499 0.22469 0.46095 0.0
C674 C 0.85346 0.21411 0.46964 0.0
C675 C 0.83762 0.18872 0.47692 0.0
C676 C 0.82621 0.17775 0.46816 0.0
C677 C 0.8378 0.18884 0.49515 0.0
C678 C 0.84998 0.1995 0.50518 0.0
C679 C 0.86326 0.20152 0.50217 0.0
C680 C 0.87466 0.21141 0.51184 0.0
C681 C 0.87297 0.21936 0.52486 0.0
C682 C 0.85963 0.21725 0.52788 0.0
C683 C 0.84826 0.20741 0.51815 0.0
H684 H 0.97895 0.50592 0.16211 0.0
H685 H 0.97686 0.52275 0.14422 0.0
H686 H 0.01602 0.55625 0.16421 0.0
H687 H 0.018 0.53941 0.18208 0.0
H688 H 0.99838 0.49837 0.16265 0.0
H689 H 0.98094 0.51913 0.20235 0.0
H690 H 0.98075 0.5388 0.21667 0.0
H691 H 0.02113 0.55231 0.23853 0.0
H692 H 0.02147 0.53292 0.22365 0.0
H693 H 0.02499 0.49757 0.22536 0.0
H694 H 0.0279 0.48086 0.24237 0.0
H695 H 0.98794 0.44722 0.22448 0.0
H696 H 0.98528 0.46396 0.20726 0.0
H697 H 0.00495 0.50493 0.22593 0.0
H698 H 0.02228 0.48403 0.18634 0.0
H699 H 0.02294 0.46503 0.17095 0.0
H700 H 0.9829 0.45201 0.14836 0.0
H701 H 0.98202 0.47063 0.16441 0.0
C702 C 0.99855 0.52142 0.17357 0.0
C703 C 0.98708 0.51689 0.16261 0.0
C704 C 0.98591 0.52652 0.15237 0.0
C705 C 0.99623 0.54087 0.15285 0.0
C706 C 0.00775 0.54534 0.16378 0.0
C707 C 0.00892 0.53571 0.17397 0.0
C708 C 0.99976 0.5112 0.18449 0.0
C709 C 0.99959 0.49968 0.17652 0.0
C710 C 1.00168 0.51308 0.20253 0.0
C711 C 1.00129 0.52466 0.21178 0.0
C712 C 0.98979 0.5264 0.21014 0.0
C713 C 0.98964 0.53757 0.21845 0.0
C714 C 1.00095 0.54716 0.22868 0.0
C715 C 0.01236 0.54525 0.23051 0.0
C716 C 0.01251 0.53409 0.22217 0.0
C717 C 0.00499 0.48199 0.21492 0.0
C718 C 0.01684 0.4866 0.22518 0.0
C719 C 0.01846 0.47703 0.23494 0.0
C720 C 0.00819 0.46265 0.23475 0.0
C721 C 0.9962 0.45814 0.22468 0.0
C722 C 0.99462 0.46771 0.21488 0.0
C723 C 0.00353 0.49208 0.20408 0.0
C724 C 0.00367 0.50358 0.21207 0.0
C725 C 1.00156 0.49016 0.18604 0.0
C726 C 1.00202 0.47865 0.1767 0.0
C727 C 0.01355 0.47695 0.17827 0.0
C728 C 0.01398 0.46617 0.16931 0.0
C729 C 0.00296 0.45696 0.15845 0.0
C730 C 0.99146 0.45875 0.15685 0.0
C731 C 0.991 0.46948 0.16587 0.0
H732 H 0.50257 0.46274 0.16546 0.0
H733 H 0.48325 0.44479 0.14832 0.0
H734 H 0.45532 0.45543 0.17371 0.0
H735 H 0.47482 0.47373 0.19034 0.0
H736 H 0.5132 0.49085 0.16614 0.0
H737 H 0.49194 0.45313 0.20735 0.0
H738 H 0.47159 0.43496 0.22267 0.0
H739 H 0.46551 0.46695 0.24623 0.0
H740 H 0.48566 0.48503 0.23053 0.0
H741 H 0.5226 0.5202 0.23134 0.0
H742 H 0.54167 0.54041 0.24624 0.0
H743 H 0.5713 0.53314 0.21921 0.0
H744 H 0.55217 0.51279 0.20453 0.0
H745 H 0.51306 0.49315 0.22999 0.0
H746 H 0.53241 0.53043 0.18971 0.0
H747 H 0.54981 0.54929 0.17184 0.0
H748 H 0.55757 0.5195 0.14516 0.0
H749 H 0.54053 0.50077 0.16362 0.0
C750 C 0.49011 0.46948 0.17929 0.0
C751 C 0.49228 0.46119 0.16733 0.0
C752 C 0.4812 0.45085 0.15766 0.0
C753 C 0.46772 0.44862 0.15971 0.0
C754 C 0.46558 0.45694 0.17172 0.0
C755 C 0.47669 0.46731 0.18136 0.0
C756 C 0.50199 0.48066 0.18922 0.0
C757 C 0.51332 0.49122 0.18011 0.0
C758 C 0.50189 0.48137 0.20741 0.0
C759 C 0.49022 0.47042 0.21767 0.0
C760 C 0.48622 0.45622 0.21583 0.0
C761 C 0.47465 0.44586 0.22468 0.0
C762 C 0.46688 0.44951 0.23557 0.0
C763 C 0.47114 0.46378 0.23772 0.0
C764 C 0.48273 0.47414 0.2289 0.0
C765 C 0.53595 0.51507 0.21666 0.0
C766 C 0.53319 0.52284 0.22878 0.0
C767 C 0.54409 0.53438 0.23729 0.0
C768 C 0.55797 0.53839 0.2338 0.0
C769 C 0.56071 0.53041 0.22196 0.0
C770 C 0.5498 0.51879 0.21358 0.0
C771 C 0.52436 0.50336 0.20689 0.0
C772 C 0.51307 0.49271 0.21602 0.0
C773 C 0.52439 0.50268 0.18867 0.0
C774 C 0.53527 0.51421 0.17813 0.0
C775 C 0.53802 0.528 0.18022 0.0
C776 C 0.54788 0.53875 0.16985 0.0
C777 C 0.55506 0.53591 0.15703 0.0
C778 C 0.55236 0.52209 0.15506 0.0
C779 C 0.54254 0.51135 0.16549 0.0
H780 H 0.53027 0.02168 0.16735 0.0
H781 H 0.54937 0.02329 0.15011 0.0
H782 H 0.53723 0.98097 0.16441 0.0
H783 H 0.5182 0.97947 0.18172 0.0
H784 H 0.50286 0.00445 0.16398 0.0
H785 H 0.53664 0.01481 0.20766 0.0
H786 H 0.5537 0.0122 0.22402 0.0
H787 H 0.52152 0.97056 0.23904 0.0
H788 H 0.50456 0.97309 0.22221 0.0
H789 H 0.46758 0.97343 0.22069 0.0
H790 H 0.44791 0.97128 0.23715 0.0
H791 H 0.46135 0.01451 0.22586 0.0
H792 H 0.48077 0.01642 0.20909 0.0
H793 H 0.49563 0.99128 0.2256 0.0
H794 H 0.46179 0.98149 0.18179 0.0
H795 H 0.44525 0.98429 0.16453 0.0
H796 H 0.478 0.02589 0.15028 0.0
H797 H 0.49451 0.023 0.16756 0.0
C798 C 0.52286 1.0005 0.17592 0.0
C799 C 0.53174 0.01276 0.16678 0.0
C800 C 0.54262 0.01365 0.1569 0.0
C801 C 0.54481 0.00225 0.15586 0.0
C802 C 0.53596 0.99001 0.16513 0.0
C803 C 0.52506 0.98913 0.17501 0.0
C804 C 0.51106 0.99947 0.18599 0.0
C805 C 0.50139 0.00179 0.17753 0.0
C806 C 0.50899 0.99567 0.20356 0.0
C807 C 0.51934 0.99408 0.21355 0.0
C808 C 0.53328 0.00506 0.21434 0.0
C809 C 0.543 0.00361 0.22384 0.0
C810 C 0.53897 0.99117 0.23285 0.0
C811 C 0.52499 0.98021 0.23209 0.0
C812 C 0.51527 0.98168 0.22258 0.0
C813 C 0.47555 0.99503 0.21356 0.0
C814 C 0.46626 0.98242 0.22178 0.0
C815 C 0.45505 0.98124 0.23124 0.0
C816 C 0.45301 0.99272 0.23283 0.0
C817 C 0.46243 0.00538 0.22465 0.0
C818 C 0.47358 0.00652 0.21511 0.0
C819 C 0.48745 0.99625 0.20358 0.0
C820 C 0.49712 0.99397 0.21206 0.0
C821 C 0.48957 1.00018 0.18606 0.0
C822 C 0.47938 0.00208 0.17611 0.0
C823 C 0.46537 0.9913 0.17516 0.0
C824 C 0.45591 0.99292 0.1653 0.0
C825 C 0.46029 0.00533 0.15604 0.0
C826 C 0.47431 0.01614 0.15709 0.0
C827 C 0.48376 0.01452 0.167 0.0
H828 H 0.49738 0.02678 0.85961 0.0
H829 H 0.47884 0.02642 0.8768 0.0
H830 H 0.44869 0.98795 0.851 0.0
H831 H 0.46727 0.98864 0.83354 0.0
H832 H 0.50523 0.00688 0.85813 0.0
H833 H 0.48938 0.02904 0.81895 0.0
H834 H 0.4721 0.0312 0.80236 0.0
H835 H 0.46072 0.9924 0.77546 0.0
H836 H 0.47791 0.99021 0.79228 0.0
H837 H 0.51591 0.98972 0.79178 0.0
H838 H 0.53546 0.99167 0.77506 0.0
H839 H 0.56371 0.02938 0.80355 0.0
H840 H 0.54413 0.02747 0.82006 0.0
H841 H 0.50647 0.00821 0.79427 0.0
H842 H 0.52352 0.98685 0.83239 0.0
H843 H 0.54074 0.98476 0.84925 0.0
H844 H 0.54966 0.02189 0.87854 0.0
H845 H 0.53268 0.02409 0.86138 0.0
C846 C 0.48369 0.00778 0.84527 0.0
C847 C 0.48676 0.01831 0.85764 0.0
C848 C 0.47614 0.01804 0.8675 0.0
C849 C 0.46224 0.00712 0.86535 0.0
C850 C 0.45921 0.99664 0.85282 0.0
C851 C 0.46984 0.99698 0.84288 0.0
C852 C 0.49505 0.00789 0.83524 0.0
C853 C 0.50561 0.00735 0.84417 0.0
C854 C 0.4953 0.00808 0.81703 0.0
C855 C 0.48484 0.0094 0.80695 0.0
C856 C 0.4831 0.02096 0.80955 0.0
C857 C 0.47331 0.02224 0.79997 0.0
C858 C 0.46504 0.01196 0.78761 0.0
C859 C 0.46683 1.00041 0.78501 0.0
C860 C 0.4767 0.99918 0.79452 0.0
C861 C 0.52859 0.00838 0.80724 0.0
C862 C 0.52632 0.9984 0.79441 0.0
C863 C 0.5375 0.99948 0.78495 0.0
C864 C 0.55111 0.01068 0.78802 0.0
C865 C 0.55332 0.02071 0.80081 0.0
C866 C 0.54217 0.01956 0.81034 0.0
C867 C 0.51675 0.00735 0.81717 0.0
C868 C 0.50608 0.00768 0.80822 0.0
C869 C 0.5164 0.00696 0.83538 0.0
C870 C 0.52691 0.00571 0.84551 0.0
C871 C 0.52929 0.99461 0.84234 0.0
C872 C 0.53903 0.99336 0.85208 0.0
C873 C 0.54659 0.00318 0.86521 0.0
C874 C 0.54415 0.01426 0.86837 0.0
C875 C 0.53438 0.01547 0.85867 0.0
H876 H 0.02427 0.53433 0.8553 0.0
H877 H 0.02432 0.55304 0.87232 0.0
H878 H 0.98287 0.53957 0.85424 0.0
H879 H 0.98297 0.52094 0.83709 0.0
H880 H 0.00682 0.50604 0.85793 0.0
H881 H 0.01924 0.54133 0.81417 0.0
H882 H 0.01603 0.55805 0.79759 0.0
H883 H 0.97626 0.52415 0.77969 0.0
H884 H 0.97942 0.50753 0.7966 0.0
H885 H 0.98336 0.47271 0.7958 0.0
H886 H 0.98367 0.45359 0.78015 0.0
H887 H 0.02391 0.46644 0.80199 0.0
H888 H 0.02374 0.48582 0.81712 0.0
H889 H 0.99961 0.50055 0.79469 0.0
H890 H 0.98684 0.46511 0.83622 0.0
H891 H 0.98836 0.4476 0.85313 0.0
H892 H 0.02621 0.48048 0.87672 0.0
H893 H 0.02502 0.49787 0.85899 0.0
C894 C 0.00366 0.5263 0.84487 0.0
C895 C 0.01521 0.53543 0.85499 0.0
C896 C 0.01519 0.54609 0.86475 0.0
C897 C 0.00357 0.54776 0.86468 0.0
C898 C 0.99205 0.53867 0.8544 0.0
C899 C 0.99208 0.52801 0.84462 0.0
C900 C 0.00361 0.51474 0.83502 0.0
C901 C 0.00548 0.50495 0.84406 0.0
C902 C 1.00131 0.51305 0.81704 0.0
C903 C 0.99952 0.5232 0.80674 0.0
C904 C 0.0098 0.53752 0.80675 0.0
C905 C 0.008 0.54704 0.79716 0.0
C906 C 0.99587 0.54243 0.78734 0.0
C907 C 0.98563 0.52806 0.78728 0.0
C908 C 0.98747 0.51854 0.79682 0.0
C909 C 0.00346 0.48061 0.80774 0.0
C910 C 0.99229 0.47146 0.7971 0.0
C911 C 0.99243 0.46046 0.78831 0.0
C912 C 0.00377 0.45843 0.78993 0.0
C913 C 0.01506 0.46777 0.80037 0.0
C914 C 0.01492 0.47878 0.80914 0.0
C915 C 0.00306 0.49196 0.81756 0.0
C916 C 1.00104 0.50166 0.80854 0.0
C917 C 0.00503 0.49345 0.83563 0.0
C918 C 0.00592 0.48281 0.84612 0.0
C919 C 0.99559 0.46854 0.84483 0.0
C920 C 0.99638 0.45854 0.85471 0.0
C921 C 0.0074 0.4626 0.86636 0.0
C922 C 0.01769 0.47693 0.86771 0.0
C923 C 0.01695 0.48692 0.85771 0.0
H924 H 0.46431 0.50542 0.85701 0.0
H925 H 0.4465 0.48704 0.87522 0.0
H926 H 0.45513 0.45673 0.85177 0.0
H927 H 0.47279 0.4751 0.83358 0.0
H928 H 0.49207 0.51489 0.85555 0.0
H929 H 0.45317 0.49272 0.81673 0.0
H930 H 0.43405 0.47236 0.80206 0.0
H931 H 0.46361 0.46412 0.7766 0.0
H932 H 0.48267 0.48436 0.79146 0.0
H933 H 0.52008 0.51958 0.79199 0.0
H934 H 0.54045 0.53737 0.77642 0.0
H935 H 0.53349 0.56963 0.79726 0.0
H936 H 0.51335 0.55177 0.81315 0.0
H937 H 0.49238 0.51156 0.79177 0.0
H938 H 0.53045 0.531 0.83087 0.0
H939 H 0.55026 0.54912 0.84713 0.0
H940 H 0.52315 0.56052 0.87321 0.0
H941 H 0.50351 0.54283 0.85624 0.0
C942 C 0.46978 0.4916 0.84382 0.0
C943 C 0.4623 0.49479 0.85577 0.0
C944 C 0.45217 0.48429 0.86619 0.0
C945 C 0.44936 0.4704 0.86491 0.0
C946 C 0.45684 0.46725 0.85286 0.0
C947 C 0.46697 0.47775 0.84248 0.0
C948 C 0.48084 0.50283 0.83316 0.0
C949 C 0.49199 0.51432 0.84158 0.0
C950 C 0.48095 0.50181 0.81497 0.0
C951 C 0.46936 0.48998 0.80536 0.0
C952 C 0.45553 0.4865 0.80805 0.0
C953 C 0.44462 0.47486 0.79968 0.0
C954 C 0.44734 0.46662 0.78824 0.0
C955 C 0.4612 0.47035 0.78521 0.0
C956 C 0.4721 0.48191 0.7937 0.0
C957 C 0.51527 0.53437 0.8038 0.0
C958 C 0.52289 0.53048 0.79306 0.0
C959 C 0.53452 0.54068 0.78413 0.0
C960 C 0.53867 0.55498 0.78561 0.0
C961 C 0.53077 0.55877 0.79606 0.0
C962 C 0.51919 0.54857 0.80507 0.0
C963 C 0.50356 0.52362 0.81418 0.0
C964 C 0.49233 0.51223 0.80572 0.0
C965 C 0.50346 0.5246 0.83236 0.0
C966 C 0.51552 0.5357 0.84214 0.0
C967 C 0.52882 0.53757 0.83986 0.0
C968 C 0.54011 0.54783 0.84933 0.0
C969 C 0.53832 0.5563 0.86147 0.0
C970 C 0.52497 0.55436 0.86376 0.0
C971 C 0.51369 0.54415 0.8542 0.0
H972 H 0.63489 0.83464 0.49658 0.0
H973 H 0.63508 0.8527 0.47863 0.0
H974 H 0.67187 0.8845 0.5052 0.0
H975 H 0.672 0.86637 0.52241 0.0
H976 H 0.6531 0.82625 0.49922 0.0
H977 H 0.63386 0.84545 0.5383 0.0
H978 H 0.63301 0.86458 0.55319 0.0
H979 H 0.67216 0.877 0.57792 0.0
H980 H 0.67293 0.85785 0.56303 0.0
H981 H 0.67804 0.82481 0.56227 0.0
H982 H 0.68208 0.80871 0.57898 0.0
H983 H 0.64408 0.77356 0.55881 0.0
H984 H 0.63995 0.78978 0.54239 0.0
H985 H 0.6569 0.83017 0.56291 0.0
H986 H 0.67623 0.81119 0.52274 0.0
H987 H 0.67764 0.79306 0.50623 0.0
H988 H 0.63823 0.78071 0.48222 0.0
H989 H 0.63656 0.79834 0.49946 0.0
C990 C 0.65334 0.84914 0.51098 0.0
C991 C 0.64301 0.84551 0.49848 0.0
C992 C 0.64306 0.85587 0.48835 0.0
C993 C 0.65348 0.87009 0.49047 0.0
C994 C 0.66378 0.87367 0.50304 0.0
C995 C 0.66378 0.86331 0.51307 0.0
C996 C 0.65348 0.83814 0.52157 0.0
C997 C 0.65364 0.82695 0.51317 0.0
C998 C 0.65442 0.83917 0.53976 0.0
C999 C 0.65352 0.85031 0.54944 0.0
C1000 C 0.64226 0.85231 0.54692 0.0
C1001 C 0.6418 0.86326 0.5554 0.0
C1002 C 0.65254 0.87233 0.56668 0.0
C1003 C 0.66364 0.8701 0.56947 0.0
C1004 C 0.66411 0.85917 0.56095 0.0
C1005 C 0.65875 0.80849 0.55099 0.0
C1006 C 0.67053 0.81364 0.56154 0.0
C1007 C 0.67289 0.80442 0.57097 0.0
C1008 C 0.66345 0.78985 0.57014 0.0
C1009 C 0.65151 0.78473 0.55981 0.0
C1010 C 0.64918 0.79397 0.55033 0.0
C1011 C 0.65668 0.81837 0.54052 0.0
C1012 C 0.65615 0.82936 0.54897 0.0
C1013 C 0.65531 0.81709 0.52237 0.0
C1014 C 0.65618 0.806 0.51253 0.0
C1015 C 0.66778 0.80441 0.51415 0.0
C1016 C 0.66865 0.79414 0.50453 0.0
C1017 C 0.65804 0.78539 0.49289 0.0
C1018 C 0.64647 0.78706 0.49127 0.0
C1019 C 0.64556 0.79725 0.501 0.0
H1020 H 0.16752 0.79752 0.50209 0.0
H1021 H 0.14787 0.77986 0.48511 0.0
H1022 H 0.1205 0.79026 0.51241 0.0
H1023 H 0.14032 0.80822 0.52901 0.0
H1024 H 0.17818 0.82582 0.50381 0.0
H1025 H 0.15792 0.78698 0.54346 0.0
H1026 H 0.1377 0.76824 0.55838 0.0
H1027 H 0.13167 0.79933 0.58464 0.0
H1028 H 0.1517 0.81799 0.56936 0.0
H1029 H 0.18945 0.85356 0.57036 0.0
H1030 H 0.20912 0.87343 0.58496 0.0
H1031 H 0.23756 0.8659 0.55545 0.0
H1032 H 0.21785 0.84591 0.54105 0.0
H1033 H 0.17937 0.82622 0.56769 0.0
H1034 H 0.19853 0.86481 0.52911 0.0
H1035 H 0.21595 0.88404 0.51167 0.0
H1036 H 0.2223 0.85449 0.48206 0.0
H1037 H 0.20529 0.83538 0.50008 0.0
C1038 C 0.15537 0.80409 0.5169 0.0
C1039 C 0.15729 0.79598 0.50441 0.0
C1040 C 0.14602 0.78581 0.49483 0.0
C1041 C 0.1326 0.7836 0.49749 0.0
C1042 C 0.13071 0.79177 0.50999 0.0
C1043 C 0.142 0.80194 0.51958 0.0
C1044 C 0.16743 0.815 0.52683 0.0
C1045 C 0.17859 0.82579 0.51776 0.0
C1046 C 0.1677 0.81515 0.54504 0.0
C1047 C 0.15622 0.80387 0.55518 0.0
C1048 C 0.15226 0.78974 0.55247 0.0
C1049 C 0.14076 0.77906 0.56108 0.0
C1050 C 0.13303 0.7823 0.5726 0.0
C1051 C 0.13728 0.79648 0.57564 0.0
C1052 C 0.1488 0.80717 0.56706 0.0
C1053 C 0.20217 0.84836 0.55444 0.0
C1054 C 0.19991 0.85606 0.56721 0.0
C1055 C 0.21116 0.8674 0.57554 0.0
C1056 C 0.22488 0.87127 0.57124 0.0
C1057 C 0.22711 0.86329 0.55883 0.0
C1058 C 0.21586 0.85187 0.55061 0.0
C1059 C 0.19026 0.83705 0.54465 0.0
C1060 C 0.17909 0.8262 0.55373 0.0
C1061 C 0.18991 0.83693 0.52641 0.0
C1062 C 0.20071 0.84866 0.51603 0.0
C1063 C 0.20384 0.8625 0.51905 0.0
C1064 C 0.2137 0.87347 0.50893 0.0
C1065 C 0.22051 0.87081 0.49543 0.0
C1066 C 0.2174 0.85694 0.4925 0.0
C1067 C 0.20758 0.84598 0.50268 0.0
H1068 H 0.14741 0.32781 0.49425 0.0
H1069 H 0.13019 0.32932 0.47691 0.0
H1070 H 0.13874 0.36688 0.50497 0.0
H1071 H 0.15576 0.36505 0.52259 0.0
H1072 H 0.17499 0.34585 0.49776 0.0
H1073 H 0.13492 0.32505 0.53351 0.0
H1074 H 0.11513 0.32279 0.54973 0.0
H1075 H 0.14314 0.35827 0.58171 0.0
H1076 H 0.16295 0.36054 0.56532 0.0
H1077 H 0.19944 0.35882 0.56623 0.0
H1078 H 0.21582 0.35542 0.58316 0.0
H1079 H 0.20629 0.31901 0.55194 0.0
H1080 H 0.18987 0.32237 0.53519 0.0
H1081 H 0.17196 0.34244 0.56143 0.0
H1082 H 0.21255 0.36166 0.52452 0.0
H1083 H 0.23115 0.36131 0.50816 0.0
H1084 H 0.20036 0.32607 0.47803 0.0
H1085 H 0.18188 0.32622 0.49474 0.0
C1086 C 0.15284 0.34628 0.50974 0.0
C1087 C 0.1456 0.33638 0.49664 0.0
C1088 C 0.13579 0.33732 0.48667 0.0
C1089 C 0.1331 0.34828 0.48944 0.0
C1090 C 0.1404 0.35821 0.5026 0.0
C1091 C 0.15017 0.35721 0.51266 0.0
C1092 C 0.16327 0.34517 0.52021 0.0
C1093 C 0.17427 0.345 0.51168 0.0
C1094 C 0.16243 0.34426 0.53838 0.0
C1095 C 0.15041 0.3431 0.54803 0.0
C1096 C 0.1368 0.33248 0.54384 0.0
C1097 C 0.12549 0.33119 0.55314 0.0
C1098 C 0.12757 0.34038 0.56696 0.0
C1099 C 0.14122 0.35096 0.57122 0.0
C1100 C 0.15253 0.35229 0.56184 0.0
C1101 C 0.19357 0.34098 0.54927 0.0
C1102 C 0.20086 0.35008 0.56307 0.0
C1103 C 0.21018 0.34811 0.57276 0.0
C1104 C 0.2124 0.33699 0.56883 0.0
C1105 C 0.20499 0.32782 0.55511 0.0
C1106 C 0.19561 0.32974 0.54551 0.0
C1107 C 0.18368 0.3431 0.53898 0.0
C1108 C 0.17278 0.34347 0.54754 0.0
C1109 C 0.18447 0.34397 0.5208 0.0
C1110 C 0.19583 0.3439 0.51093 0.0
C1111 C 0.20983 0.35378 0.51449 0.0
C1112 C 0.22044 0.35364 0.50505 0.0
C1113 C 0.21723 0.34363 0.49184 0.0
C1114 C 0.20319 0.33377 0.4883 0.0
C1115 C 0.19261 0.33393 0.49772 0.0
H1116 H 0.97472 0.35605 0.05721 0.0
H1117 H 0.97851 0.37271 0.08045 0.0
H1118 H 0.02284 0.39291 0.07304 0.0
H1119 H 0.01921 0.37634 0.04969 0.0
H1120 H 0.99563 0.38024 0.11199 0.0
H1121 H 0.01272 0.42406 0.06569 0.0
H1122 H 0.00337 0.40585 0.05892 0.0
H1123 H 0.02143 0.41423 0.06452 0.0
C1124 C 0.9853 0.36394 0.06058 0.0
C1125 C 0.99666 0.36493 0.05142 0.0
C1126 C 0.98743 0.37342 0.07391 0.0
C1127 C 1.00093 0.38411 0.07827 0.0
C1128 C 0.01233 0.38481 0.06969 0.0
H1129 H 0.02547 0.45863 0.14196 0.0
H1130 H 0.02615 0.44058 0.1243 0.0
C1131 C 0.01022 0.37529 0.05639 0.0
C1132 C 0.00294 0.39494 0.09114 0.0
H1133 H 0.01185 0.42924 0.09492 0.0
C1134 C 0.99927 0.39099 0.10833 0.0
C1135 C 0.00772 0.40893 0.08626 0.0
C1136 C 0.01147 0.41359 0.06784 0.0
C1137 C 1.00017 0.4007 0.12083 0.0
C1138 C 0.00453 0.41459 0.11584 0.0
C1139 C 0.00851 0.41859 0.09871 0.0
C1140 C 0.0044 0.425 0.1279 0.0
C1141 C 0.99651 0.396 0.13924 0.0
C1142 C 0.99195 0.42223 0.13583 0.0
C1143 C 0.99156 0.43247 0.14608 0.0
C1144 C 0.00357 0.44577 0.14844 0.0
C1145 C 0.01607 0.44845 0.14063 0.0
C1146 C 0.01646 0.43817 0.13044 0.0
H1147 H 0.99781 0.38692 0.14191 0.0
H1148 H 0.00303 0.40465 0.14842 0.0
H1149 H 0.98544 0.39261 0.14159 0.0
H1150 H 0.98244 0.41226 0.13373 0.0
H1151 H 0.9818 0.43 0.15204 0.0
H1152 H 0.61539 0.64092 0.06061 0.0
H1153 H 0.60362 0.62161 0.0808 0.0
H1154 H 0.63203 0.60756 0.06784 0.0
H1155 H 0.64397 0.62689 0.04743 0.0
H1156 H 0.59188 0.5913 0.06944 0.0
H1157 H 0.6304 0.60968 0.123 0.0
H1158 H 0.62975 0.62183 0.1083 0.0
H1159 H 0.63643 0.611 0.10112 0.0
C1160 C 0.61928 0.63384 0.06211 0.0
C1161 C 0.63062 0.63546 0.05231 0.0
C1162 C 0.61251 0.62281 0.07367 0.0
C1163 C 0.61701 0.61324 0.07581 0.0
C1164 C 0.62851 0.61494 0.06642 0.0
H1165 H 0.58033 0.54092 0.145 0.0
H1166 H 0.59586 0.55895 0.12458 0.0
C1167 C 0.63527 0.62597 0.05475 0.0
C1168 C 0.60905 0.60106 0.08717 0.0
H1169 H 0.60926 0.58837 0.12689 0.0
C1170 C 0.5957 0.59058 0.08195 0.0
C1171 C 0.61417 0.60014 0.10336 0.0
C1172 C 0.62845 0.61125 0.10944 0.0
C1173 C 0.58716 0.57929 0.09269 0.0
C1174 C 0.59199 0.5787 0.10925 0.0
C1175 C 0.60556 0.58892 0.11423 0.0
C1176 C 0.58282 0.56795 0.12185 0.0
C1177 C 0.57303 0.56812 0.08619 0.0
C1178 C 0.5705 0.56722 0.12729 0.0
C1179 C 0.56158 0.55691 0.1388 0.0
C1180 C 0.56487 0.54717 0.14526 0.0
C1181 C 0.5774 0.54813 0.14008 0.0
C1182 C 0.58632 0.55847 0.12851 0.0
H1183 H 0.57263 0.56774 0.07189 0.0
H1184 H 0.5702 0.55758 0.09095 0.0
H1185 H 0.5651 0.57056 0.09087 0.0
H1186 H 0.56773 0.57461 0.12255 0.0
H1187 H 0.55197 0.5564 0.14236 0.0
H1188 H 0.37951 0.01809 0.04639 0.0
H1189 H 0.3978 0.02291 0.06731 0.0
H1190 H 0.37607 0.97921 0.08117 0.0
H1191 H 0.35785 0.97424 0.06043 0.0
H1192 H 0.39657 0.01691 0.10457 0.0
H1193 H 0.41528 0.98831 0.06398 0.0
H1194 H 0.40414 0.99423 0.05577 0.0
H1195 H 0.39694 0.9786 0.06847 0.0
C1196 C 0.37853 0.00953 0.05403 0.0
C1197 C 0.36727 0.99573 0.05154 0.0
C1198 C 0.389 0.01232 0.06597 0.0
C1199 C 0.38838 0.00136 0.07554 0.0
C1200 C 0.37684 0.98776 0.07369 0.0
H1201 H 0.43313 0.99724 0.16281 0.0
H1202 H 0.41641 0.99793 0.14336 0.0
C1203 C 0.36642 0.98496 0.06182 0.0
C1204 C 0.40002 0.00387 0.08691 0.0
H1205 H 0.4243 0.9944 0.09239 0.0
C1206 C 0.40272 0.01211 0.10188 0.0
C1207 C 0.40814 0.99774 0.08321 0.0
C1208 C 0.4061 0.98932 0.06691 0.0
C1209 C 0.41306 0.01395 0.11359 0.0
C1210 C 0.42075 0.00726 0.11027 0.0
C1211 C 0.41833 0.99943 0.09499 0.0
C1212 C 0.43113 0.00789 0.12258 0.0
C1213 C 0.4157 0.02305 0.12938 0.0
C1214 C 0.44492 0.0131 0.1173 0.0
C1215 C 0.45446 0.01258 0.12831 0.0
C1216 C 0.45037 0.00672 0.1448 0.0
C1217 C 0.43659 0.00171 0.15015 0.0
C1218 C 0.42706 0.00226 0.13913 0.0
H1219 H 0.41189 0.03044 0.12764 0.0
H1220 H 0.4101 0.01626 0.1405 0.0
H1221 H 0.42696 0.0292 0.13254 0.0
H1222 H 0.44825 0.01737 0.10452 0.0
H1223 H 0.46492 0.01635 0.12367 0.0
H1224 H 0.35614 0.97064 0.96332 0.0
H1225 H 0.37334 0.97397 0.94148 0.0
H1226 H 0.39541 0.01866 0.95122 0.0
H1227 H 0.37809 0.0155 0.97285 0.0
H1228 H 0.3942 0.01218 0.91663 0.0
H1229 H 0.41189 0.98219 0.95453 0.0
H1230 H 0.39366 0.97241 0.94961 0.0
H1231 H 0.4005 0.98773 0.96334 0.0
C1232 C 0.36458 0.9812 0.96075 0.0
C1233 C 0.36581 0.99279 0.97002 0.0
C1234 C 0.37444 0.98307 0.94831 0.0
C1235 C 0.38583 0.99652 0.94503 0.0
C1236 C 0.38675 0.00817 0.95365 0.0
H1237 H 0.46364 0.01353 0.89974 0.0
H1238 H 0.44521 0.01191 0.91828 0.0
C1239 C 0.37683 0.00634 0.96602 0.0
C1240 C 0.39703 0.99838 0.93308 0.0
H1241 H 0.42119 0.98877 0.92643 0.0
C1242 C 0.40013 0.00709 0.91875 0.0
C1243 C 0.4049 0.99191 0.93606 0.0
C1244 C 0.40269 0.98315 0.9518 0.0
C1245 C 0.41078 0.00936 0.90719 0.0
C1246 C 0.41834 0.00251 0.90988 0.0
C1247 C 0.41531 0.99392 0.9243 0.0
C1248 C 0.42966 0.0043 0.89817 0.0
C1249 C 0.41405 0.01933 0.89247 0.0
C1250 C 0.42707 1.00058 0.88066 0.0
C1251 C 0.43767 0.00171 0.86992 0.0
C1252 C 0.45105 0.00642 0.87654 0.0
C1253 C 0.45357 0.01012 0.8941 0.0
C1254 C 0.443 0.00908 0.90477 0.0
H1255 H 0.41016 0.0266 0.89498 0.0
H1256 H 0.42542 0.02565 0.89005 0.0
H1257 H 0.40892 0.01319 0.88061 0.0
H1258 H 0.41678 0.99657 0.87534 0.0
H1259 H 0.43538 0.99887 0.85645 0.0
H1260 H 0.02106 0.37875 0.9715 0.0
H1261 H 0.02617 0.39673 0.94994 0.0
H1262 H 0.98224 0.37967 0.94244 0.0
H1263 H 0.97703 0.36162 0.96354 0.0
H1264 H 0.99671 0.38588 0.91187 0.0
H1265 H 0.02223 0.431 0.95795 0.0
H1266 H 0.02962 0.41996 0.95664 0.0
H1267 H 0.01234 0.41302 0.965 0.0
C1268 C 0.01249 0.37879 0.96521 0.0
C1269 C 0.99863 0.36876 0.96939 0.0
C1270 C 0.01543 0.38913 0.95296 0.0
C1271 C 0.00458 0.38968 0.94479 0.0
C1272 C 0.99078 0.37949 0.94863 0.0
H1273 H 0.98571 0.43973 0.88189 0.0
H1274 H 0.98654 0.42216 0.89958 0.0
C1275 C 0.98783 0.36916 0.96076 0.0
C1276 C 0.00736 0.40088 0.93235 0.0
H1277 H 0.02005 0.43614 0.92925 0.0
C1278 C 1.00193 0.39688 0.91563 0.0
C1279 C 0.0142 0.41525 0.93727 0.0
C1280 C 0.01985 0.42012 0.95521 0.0
C1281 C 0.00282 0.4068 0.90385 0.0
C1282 C 0.00919 0.42105 0.90898 0.0
C1283 C 0.01515 0.42518 0.92541 0.0
C1284 C 0.00886 0.43164 0.89789 0.0
C1285 C 0.99674 0.40192 0.88608 0.0
C1286 C 0.02118 0.44291 0.89129 0.0
C1287 C 0.02074 0.45294 0.88098 0.0
C1288 C 0.00797 0.45194 0.87725 0.0
C1289 C 0.99569 0.44068 0.88413 0.0
C1290 C 0.99614 0.43064 0.89431 0.0
H1291 H 0.99544 0.39154 0.8827 0.0
H1292 H 0.98636 0.40088 0.88563 0.0
H1293 H 0.00343 0.40966 0.87622 0.0
H1294 H 0.03111 0.44388 0.89399 0.0
H1295 H 0.03039 0.46137 0.87577 0.0
H1296 H 0.61493 0.65152 0.96862 0.0
H1297 H 0.60082 0.63603 0.94507 0.0
H1298 H 0.62428 0.61509 0.94599 0.0
H1299 H 0.63849 0.63051 0.96962 0.0
H1300 H 0.60939 0.63009 0.91122 0.0
H1301 H 0.58245 0.5839 0.95438 0.0
H1302 H 0.59191 0.60173 0.96258 0.0
H1303 H 0.60116 0.59354 0.95465 0.0
C1304 C 0.61719 0.6437 0.96377 0.0
C1305 C 0.62778 0.64218 0.97116 0.0
C1306 C 0.60914 0.6349 0.95027 0.0
C1307 C 0.61144 0.62436 0.94398 0.0
C1308 C 0.62228 0.62309 0.95084 0.0
H1309 H 0.55905 0.55364 0.876 0.0
H1310 H 0.5781 0.57062 0.8943 0.0
C1311 C 0.63041 0.63195 0.96431 0.0
C1312 C 0.60201 0.6143 0.93079 0.0
H1313 H 0.57569 0.58034 0.92533 0.0
C1314 C 0.60206 0.61919 0.91422 0.0
C1315 C 0.59253 0.6001 0.93481 0.0
C1316 C 0.59186 0.59444 0.95258 0.0
C1317 C 0.5928 0.61021 0.9015 0.0
C1318 C 0.58302 0.59609 0.90566 0.0
C1319 C 0.58319 0.59116 0.92216 0.0
C1320 C 0.57216 0.58634 0.89339 0.0
C1321 C 0.59366 0.61591 0.88371 0.0
C1322 C 0.56249 0.58955 0.88679 0.0
C1323 C 0.55168 0.57993 0.87615 0.0
C1324 C 0.55022 0.56684 0.87207 0.0
C1325 C 0.55999 0.56371 0.87863 0.0
C1326 C 0.57083 0.57336 0.8892 0.0
H1327 H 0.60414 0.62512 0.88113 0.0
H1328 H 0.59123 0.60777 0.87364 0.0
H1329 H 0.58602 0.6194 0.88267 0.0
H1330 H 0.56312 0.59936 0.89016 0.0
H1331 H 0.54443 0.58274 0.87119 0.0
H1332 H 0.98808 0.63212 0.96879 0.0
H1333 H 0.98484 0.61549 0.94567 0.0
H1334 H 0.02872 0.63026 0.94637 0.0
H1335 H 0.03216 0.64704 0.96922 0.0
H1336 H 0.01763 0.62584 0.91308 0.0
H1337 H 0.98618 0.57989 0.95526 0.0
H1338 H 0.9798 0.59171 0.95302 0.0
H1339 H 0.99612 0.59762 0.96361 0.0
C1340 C 0.99708 0.63193 0.96394 0.0
C1341 C 0.01037 0.64084 0.97103 0.0
C1342 C 0.99518 0.62237 0.95077 0.0
C1343 C 0.0065 0.62149 0.94454 0.0
C1344 C 0.01984 0.63075 0.95106 0.0
H1345 H 0.01282 0.55504 0.89777 0.0
H1346 H 0.01279 0.57318 0.9159 0.0
C1347 C 0.02177 0.64032 0.96416 0.0
C1348 C 0.00449 0.61054 0.93181 0.0
H1349 H 0.99005 0.5751 0.92683 0.0
C1350 C 0.0115 0.61473 0.91599 0.0
C1351 C 0.99661 0.59608 0.93578 0.0
C1352 C 0.98933 0.591 0.95288 0.0
C1353 C 0.01105 0.60484 0.9041 0.0
C1354 C 0.00321 0.59039 0.90811 0.0
C1355 C 0.99598 0.5862 0.92378 0.0
C1356 C 0.00317 0.57951 0.89681 0.0
C1357 C 0.0194 0.60995 0.8877 0.0
C1358 C 0.99768 0.57699 0.88009 0.0
C1359 C 0.99779 0.56669 0.8696 0.0
C1360 C 0.00336 0.55871 0.87571 0.0
C1361 C 0.00869 0.56118 0.89255 0.0
C1362 C 0.00858 0.57146 0.90299 0.0
H1363 H 0.02706 0.62142 0.8882 0.0
H1364 H 0.02505 0.60431 0.8851 0.0
H1365 H 0.01226 0.60784 0.87675 0.0
H1366 H 0.99326 0.58295 0.87518 0.0
H1367 H 0.99367 0.56509 0.85666 0.0
H1368 H 0.36441 0.38097 0.97752 0.0
H1369 H 0.37645 0.40012 0.95699 0.0
H1370 H 0.3982 0.38043 0.93629 0.0
H1371 H 0.38641 0.36138 0.9568 0.0
H1372 H 0.41559 0.40846 0.94509 0.0
H1373 H 0.37155 0.40111 0.9047 0.0
H1374 H 0.3693 0.40217 0.92751 0.0
H1375 H 0.37023 0.3876 0.9187 0.0
C1376 C 0.37163 0.38061 0.96847 0.0
C1377 C 0.37447 0.36963 0.96889 0.0
C1378 C 0.37845 0.39154 0.95668 0.0
C1379 C 0.38813 0.39162 0.94502 0.0
C1380 C 0.39075 0.38055 0.94517 0.0
H1381 H 0.43021 0.44297 0.8569 0.0
H1382 H 0.41486 0.42432 0.87669 0.0
C1383 C 0.38399 0.36966 0.95693 0.0
C1384 C 0.39625 0.40365 0.9334 0.0
H1385 H 0.39353 0.42148 0.89958 0.0
C1386 C 0.41077 0.41133 0.93515 0.0
C1387 C 0.38992 0.40728 0.92038 0.0
C1388 C 0.3744 0.39906 0.91755 0.0
C1389 C 0.41917 0.42252 0.92422 0.0
C1390 C 0.41285 0.4263 0.91136 0.0
C1391 C 0.39832 0.41862 0.90957 0.0
C1392 C 0.42127 0.43785 0.89926 0.0
C1393 C 0.43476 0.42998 0.92624 0.0
C1394 C 0.4297 0.45168 0.90535 0.0
C1395 C 0.43857 0.46232 0.89412 0.0
C1396 C 0.43912 0.45934 0.87656 0.0
C1397 C 0.43022 0.44556 0.8704 0.0
C1398 C 0.42136 0.43493 0.88165 0.0
H1399 H 0.43801 0.42379 0.93396 0.0
H1400 H 0.43997 0.4321 0.91348 0.0
H1401 H 0.43847 0.4402 0.93294 0.0
H1402 H 0.42964 0.45418 0.91887 0.0
H1403 H 0.44534 0.47279 0.89932 0.0
H1404 H 0.6254 0.98716 0.97463 0.0
H1405 H 0.60788 0.98179 0.95236 0.0
H1406 H 0.63061 0.02497 0.93623 0.0
H1407 H 0.64814 0.0304 0.9581 0.0
H1408 H 0.59147 0.99376 0.95004 0.0
H1409 H 0.62247 0.00397 0.89053 0.0
H1410 H 0.62824 0.00146 0.91111 0.0
H1411 H 0.63071 0.01832 0.90563 0.0
C1412 C 0.62679 0.99546 0.96614 0.0
C1413 C 0.63819 0.00922 0.9682 0.0
C1414 C 0.61675 0.99237 0.95345 0.0
C1415 C 0.61804 0.00293 0.94247 0.0
C1416 C 0.62955 0.01658 0.94428 0.0
H1417 H 0.5725 0.02407 0.87518 0.0
H1418 H 0.58911 0.0221 0.89342 0.0
C1419 C 0.63952 0.01968 0.95693 0.0
C1420 C 0.6069 1.00017 0.93003 0.0
H1421 H 0.60154 0.00498 0.88808 0.0
C1422 C 0.59357 0.99593 0.93642 0.0
C1423 C 0.60966 0.003 0.91227 0.0
C1424 C 0.62351 0.0068 0.90445 0.0
C1425 C 0.58318 0.99525 0.92572 0.0
C1426 C 0.58618 0.99875 0.90814 0.0
C1427 C 0.59931 0.0024 0.90159 0.0
C1428 C 0.57616 0.99963 0.89664 0.0
C1429 C 0.56931 0.99149 0.93346 0.0
C1430 C 0.56346 0.9876 0.89222 0.0
C1431 C 0.55391 0.9887 0.88183 0.0
C1432 C 0.55691 0.00186 0.8757 0.0
C1433 C 0.56978 0.01383 0.8799 0.0
C1434 C 0.57932 0.0127 0.89022 0.0
H1435 H 0.56948 0.9914 0.94776 0.0
H1436 H 0.56619 0.99903 0.92934 0.0
H1437 H 0.56126 0.98087 0.92886 0.0
H1438 H 0.5609 0.97739 0.89688 0.0
H1439 H 0.54406 0.9793 0.8789 0.0
H1440 H 0.63023 0.99062 0.05186 0.0
H1441 H 0.61328 0.98709 0.07426 0.0
H1442 H 0.62828 0.03151 0.07504 0.0
H1443 H 0.64535 0.03522 0.05289 0.0
H1444 H 0.6233 0.01965 0.10799 0.0
H1445 H 0.57839 0.9891 0.06394 0.0
H1446 H 0.58993 0.98245 0.06608 0.0
H1447 H 0.59606 0.9992 0.05626 0.0
C1448 C 0.63001 0.99967 0.05687 0.0
C1449 C 0.63909 0.01319 0.05041 0.0
C1450 C 0.62027 0.99761 0.06962 0.0
C1451 C 0.61938 0.00901 0.07608 0.0
C1452 C 0.62876 0.02256 0.07016 0.0
H1453 H 0.55238 0.01327 0.12363 0.0
H1454 H 0.57079 0.01451 0.10532 0.0
C1455 C 0.6385 0.02465 0.05745 0.0
C1456 C 0.60839 0.00686 0.08853 0.0
H1457 H 0.57326 0.99218 0.09257 0.0
C1458 C 0.61234 0.01357 0.1047 0.0
C1459 C 0.59413 0.99906 0.08407 0.0
C1460 C 0.58931 0.99212 0.06661 0.0
C1461 C 0.60241 0.01278 0.1165 0.0
C1462 C 0.58816 0.00494 0.11205 0.0
C1463 C 0.5842 0.99811 0.09596 0.0
C1464 C 0.5772 0.00431 0.12349 0.0
C1465 C 0.60727 0.02074 0.13337 0.0
C1466 C 0.57466 0.99809 0.13976 0.0
C1467 C 0.56419 0.99747 0.15034 0.0
C1468 C 0.55606 0.003 0.14479 0.0
C1469 C 0.5586 0.00913 0.12842 0.0
C1470 C 0.56905 0.00974 0.11788 0.0
H1471 H 0.61859 0.02862 0.13323 0.0
H1472 H 0.60152 0.02621 0.13639 0.0
H1473 H 0.60525 0.01323 0.14386 0.0
H1474 H 0.5807 0.99364 0.14422 0.0
H1475 H 0.56255 0.99275 0.16291 0.0
H1476 H 0.98469 0.62401 0.04543 0.0
H1477 H 0.97994 0.60522 0.06559 0.0
H1478 H 0.02234 0.62886 0.08347 0.0
H1479 H 0.02723 0.64753 0.06341 0.0
H1480 H 0.01385 0.60143 0.07312 0.0
H1481 H 0.97597 0.60282 0.11859 0.0
H1482 H 0.97187 0.6019 0.09609 0.0
H1483 H 0.98691 0.61728 0.10461 0.0
C1484 C 0.99294 0.62531 0.05386 0.0
C1485 C 0.00637 0.63726 0.05269 0.0
C1486 C 0.99019 0.61458 0.06541 0.0
C1487 C 1.00078 0.61567 0.07607 0.0
C1488 C 0.01402 0.62779 0.07534 0.0
H1489 H 0.00241 0.56756 0.16125 0.0
H1490 H 0.00239 0.58497 0.14226 0.0
C1491 C 0.01679 0.63847 0.06383 0.0
C1492 C 0.99852 0.60386 0.08709 0.0
H1493 H 0.98082 0.58458 0.12222 0.0
C1494 C 0.00659 0.59771 0.08382 0.0
C1495 C 0.98911 0.5991 0.10109 0.0
C1496 C 0.98052 0.60565 0.10547 0.0
C1497 C 0.0056 0.58701 0.09425 0.0
C1498 C 0.99612 0.58216 0.10818 0.0
C1499 C 0.98799 0.58825 0.11143 0.0
C1500 C 0.99502 0.5712 0.11992 0.0
C1501 C 0.01503 0.58128 0.09058 0.0
C1502 C 0.99062 0.55759 0.11374 0.0
C1503 C 0.99074 0.54765 0.12451 0.0
C1504 C 0.99521 0.55112 0.14171 0.0
C1505 C 0.99914 0.56462 0.148 0.0
C1506 C 0.99902 0.57455 0.13722 0.0
H1507 H 0.02377 0.58823 0.08192 0.0
H1508 H 0.0194 0.57995 0.1027 0.0
H1509 H 0.00895 0.57083 0.08421 0.0
H1510 H 0.98733 0.55475 0.10048 0.0
H1511 H 0.98772 0.53739 0.11921 0.0
H1512 H 0.38913 0.35139 0.05329 0.0
H1513 H 0.40375 0.36638 0.07679 0.0
H1514 H 0.38362 0.39065 0.07462 0.0
H1515 H 0.36871 0.37551 0.05127 0.0
H1516 H 0.42216 0.39445 0.07396 0.0
H1517 H 0.38423 0.38487 0.12613 0.0
H1518 H 0.37988 0.37344 0.10752 0.0
H1519 H 0.38025 0.38979 0.10601 0.0
C1520 C 0.38764 0.35979 0.05794 0.0
C1521 C 0.37777 0.36228 0.05032 0.0
C1522 C 0.39602 0.36834 0.0714 0.0
C1523 C 0.3947 0.37955 0.07755 0.0
C1524 C 0.38462 0.38187 0.07031 0.0
H1525 H 0.44704 0.45083 0.14422 0.0
H1526 H 0.42874 0.43371 0.12505 0.0
C1527 C 0.37615 0.37325 0.05689 0.0
C1528 C 0.40472 0.38947 0.09047 0.0
H1529 H 0.40743 0.40381 0.13052 0.0
C1530 C 0.41893 0.39642 0.08637 0.0
C1531 C 0.40047 0.3921 0.1066 0.0
C1532 C 0.38539 0.38458 0.11194 0.0
C1533 C 0.42902 0.40599 0.09788 0.0
C1534 C 0.42479 0.40857 0.11402 0.0
C1535 C 0.41059 0.40175 0.11812 0.0
C1536 C 0.43508 0.41835 0.12674 0.0
C1537 C 0.44413 0.41346 0.0926 0.0
C1538 C 0.44446 0.41519 0.13431 0.0
C1539 C 0.45486 0.42488 0.14532 0.0
C1540 C 0.45606 0.43792 0.14898 0.0
C1541 C 0.44633 0.44084 0.14179 0.0
C1542 C 0.4359 0.43111 0.1308 0.0
H1543 H 0.44538 0.41261 0.07851 0.0
H1544 H 0.44947 0.42475 0.09632 0.0
H1545 H 0.44939 0.40869 0.09931 0.0
H1546 H 0.44384 0.40528 0.1315 0.0
H1547 H 0.46202 0.42219 0.1509 0.0
H1548 H 0.68134 0.71091 0.38238 0.0
H1549 H 0.68296 0.72636 0.40622 0.0
H1550 H 0.63828 0.7035 0.41078 0.0
H1551 H 0.6365 0.68802 0.38701 0.0
H1552 H 0.66953 0.74289 0.4052 0.0
H1553 H 0.65263 0.70709 0.46114 0.0
H1554 H 0.65916 0.70369 0.44145 0.0
H1555 H 0.64168 0.70028 0.44243 0.0
C1556 C 0.67185 0.70901 0.38861 0.0
C1557 C 0.65878 0.69824 0.38271 0.0
C1558 C 0.67281 0.71787 0.40221 0.0
C1559 C 0.66075 0.71597 0.41033 0.0
C1560 C 0.64772 0.705 0.40484 0.0
H1561 H 0.63732 0.75879 0.4838 0.0
H1562 H 0.63892 0.74227 0.46417 0.0
C1563 C 0.64673 0.69621 0.39117 0.0
C1564 C 0.66164 0.72614 0.42353 0.0
H1565 H 0.65384 0.72899 0.4654 0.0
C1566 C 0.66627 0.73993 0.41843 0.0
C1567 C 0.65724 0.72215 0.44068 0.0
C1568 C 0.65249 0.70753 0.44686 0.0
C1569 C 0.6662 0.74978 0.4299 0.0
C1570 C 0.66171 0.74579 0.44708 0.0
C1571 C 0.6573 0.73203 0.45225 0.0
C1572 C 0.66102 0.75559 0.45966 0.0
C1573 C 0.67036 0.76416 0.4233 0.0
C1574 C 0.67297 0.76844 0.46392 0.0
C1575 C 0.67205 0.77802 0.47491 0.0
C1576 C 0.65918 0.77485 0.48205 0.0
C1577 C 0.64734 0.76171 0.47826 0.0
C1578 C 0.64825 0.75219 0.46717 0.0
H1579 H 0.66996 0.76428 0.40902 0.0
H1580 H 0.66351 0.7678 0.42864 0.0
H1581 H 0.6812 0.77177 0.42733 0.0
H1582 H 0.68298 0.77116 0.45856 0.0
H1583 H 0.68138 0.78806 0.47744 0.0
H1584 H 0.28274 0.97627 0.39764 0.0
H1585 H 0.27049 0.95771 0.41865 0.0
H1586 H 0.29756 0.94171 0.40719 0.0
H1587 H 0.30999 0.9603 0.38602 0.0
H1588 H 0.25714 0.92778 0.40928 0.0
H1589 H 0.29659 0.94425 0.4614 0.0
H1590 H 0.29707 0.9565 0.44589 0.0
H1591 H 0.30218 0.94416 0.43962 0.0
C1592 C 0.28625 0.96894 0.39966 0.0
C1593 C 0.29735 0.96978 0.39004 0.0
C1594 C 0.27921 0.95832 0.4117 0.0
C1595 C 0.28318 0.94841 0.41451 0.0
C1596 C 0.29446 0.94938 0.40532 0.0
H1597 H 0.24527 0.87538 0.48208 0.0
H1598 H 0.26078 0.89376 0.46203 0.0
C1599 C 0.30151 0.95998 0.39319 0.0
C1600 C 0.27483 0.93656 0.42623 0.0
H1601 H 0.27524 0.9231 0.46535 0.0
C1602 C 0.2611 0.92672 0.42153 0.0
C1603 C 0.28011 0.93516 0.44207 0.0
C1604 C 0.29477 0.94559 0.4477 0.0
C1605 C 0.2524 0.91556 0.43235 0.0
C1606 C 0.25749 0.91443 0.44849 0.0
C1607 C 0.27136 0.92406 0.45301 0.0
C1608 C 0.24837 0.90357 0.46104 0.0
C1609 C 0.23787 0.90503 0.42631 0.0
C1610 C 0.23642 0.90318 0.46736 0.0
C1611 C 0.22748 0.89265 0.47865 0.0
C1612 C 0.2304 0.88236 0.484 0.0
C1613 C 0.2426 0.88301 0.478 0.0
C1614 C 0.25153 0.89355 0.46665 0.0
H1615 H 0.23702 0.90493 0.41205 0.0
H1616 H 0.23467 0.89426 0.43056 0.0
H1617 H 0.23048 0.9079 0.43183 0.0
H1618 H 0.23393 0.91097 0.46344 0.0
H1619 H 0.21813 0.89241 0.48287 0.0
H1620 H 0.03169 0.31095 0.39323 0.0
H1621 H 0.04957 0.31789 0.41503 0.0
H1622 H 0.06227 0.36141 0.40824 0.0
H1623 H 0.04452 0.35457 0.38591 0.0
H1624 H 0.08424 0.35813 0.40837 0.0
H1625 H 0.0513 0.33012 0.46418 0.0
H1626 H 0.04743 0.31825 0.44636 0.0
H1627 H 0.0442 0.33253 0.44462 0.0
C1628 C 0.03814 0.32201 0.39645 0.0
C1629 C 0.0366 0.33219 0.38778 0.0
C1630 C 0.04832 0.32595 0.40907 0.0
C1631 C 0.0571 0.34015 0.41357 0.0
C1632 C 0.05554 0.35037 0.40509 0.0
H1633 H 0.11424 0.35591 0.49938 0.0
H1634 H 0.09672 0.35667 0.48158 0.0
C1635 C 0.04537 0.34643 0.39233 0.0
C1636 C 0.06847 0.34423 0.42622 0.0
H1637 H 0.07521 0.33574 0.4656 0.0
C1638 C 0.08225 0.35343 0.42101 0.0
C1639 C 0.06593 0.33837 0.44288 0.0
C1640 C 0.05139 0.3294 0.4499 0.0
C1641 C 0.09353 0.35622 0.43156 0.0
C1642 C 0.09099 0.34933 0.44755 0.0
C1643 C 0.07721 0.34084 0.45322 0.0
C1644 C 0.10236 0.35004 0.4581 0.0
C1645 C 0.10806 0.36646 0.42536 0.0
C1646 C 0.11136 0.34606 0.45087 0.0
C1647 C 0.12151 0.34581 0.46094 0.0
C1648 C 0.12273 0.34928 0.47859 0.0
C1649 C 0.11374 0.35334 0.4858 0.0
C1650 C 0.10364 0.35369 0.47566 0.0
H1651 H 0.10813 0.37437 0.41667 0.0
H1652 H 0.11523 0.37205 0.43628 0.0
H1653 H 0.11208 0.36067 0.41793 0.0
H1654 H 0.11038 0.34283 0.43748 0.0
H1655 H 0.12835 0.34281 0.45486 0.0
H1656 H 0.04478 0.34882 0.30472 0.0
H1657 H 0.06038 0.35106 0.2811 0.0
H1658 H 0.04139 0.30601 0.27878 0.0
H1659 H 0.0257 0.30361 0.30213 0.0
H1660 H 0.07939 0.34192 0.28166 0.0
H1661 H 0.0418 0.31603 0.22827 0.0
H1662 H 0.03752 0.32201 0.24782 0.0
H1663 H 0.03713 0.30559 0.24734 0.0
C1664 C 0.04379 0.33937 0.29905 0.0
C1665 C 0.03396 0.32603 0.30538 0.0
C1666 C 0.05273 0.34068 0.28556 0.0
C1667 C 0.0519 0.3287 0.27803 0.0
C1668 C 0.042 0.31539 0.28414 0.0
H1669 H 0.09914 0.30709 0.21047 0.0
H1670 H 0.08194 0.30789 0.2293 0.0
C1671 C 0.0331 0.31405 0.29762 0.0
C1672 C 0.062 0.33005 0.26465 0.0
H1673 H 0.06441 0.31912 0.22412 0.0
C1674 C 0.07616 0.33712 0.26899 0.0
C1675 C 0.05773 0.32372 0.24816 0.0
C1676 C 0.04273 0.31652 0.24253 0.0
C1677 C 0.08611 0.33755 0.25752 0.0
C1678 C 0.08179 0.33094 0.24117 0.0
C1679 C 0.06768 0.32415 0.23668 0.0
C1680 C 0.09173 0.33052 0.22884 0.0
C1681 C 0.10109 0.34458 0.26325 0.0
C1682 C 0.10273 0.34296 0.22203 0.0
C1683 C 0.11256 0.34254 0.21123 0.0
C1684 C 0.11151 0.32966 0.20698 0.0
C1685 C 0.10019 0.31717 0.21338 0.0
C1686 C 0.09039 0.31761 0.22419 0.0
H1687 H 0.10215 0.34638 0.27741 0.0
H1688 H 0.10572 0.33816 0.25949 0.0
H1689 H 0.10716 0.35493 0.25692 0.0
H1690 H 0.10379 0.35301 0.22518 0.0
H1691 H 0.121 0.35232 0.20625 0.0
H1692 H 0.64705 0.69572 0.28901 0.0
H1693 H 0.6538 0.71481 0.26886 0.0
H1694 H 0.69548 0.73625 0.28927 0.0
H1695 H 0.68887 0.71703 0.30947 0.0
H1696 H 0.66329 0.7424 0.27848 0.0
H1697 H 0.70184 0.73858 0.23685 0.0
H1698 H 0.68986 0.72446 0.2506 0.0
H1699 H 0.70499 0.73946 0.25962 0.0
C1700 C 0.65771 0.7044 0.28914 0.0
C1701 C 0.6674 0.70484 0.30096 0.0
C1702 C 0.66155 0.71531 0.27759 0.0
C1703 C 0.67515 0.72692 0.27749 0.0
C1704 C 0.68498 0.72728 0.28893 0.0
H1705 H 0.69458 0.80682 0.23253 0.0
H1706 H 0.69311 0.78892 0.25194 0.0
C1707 C 0.68116 0.7163 0.30052 0.0
C1708 C 0.67861 0.73897 0.2662 0.0
H1709 H 0.69872 0.75786 0.23214 0.0
C1710 C 0.67107 0.74582 0.26838 0.0
C1711 C 0.6887 0.74333 0.25298 0.0
C1712 C 0.69676 0.73603 0.24971 0.0
C1713 C 0.67324 0.75682 0.25762 0.0
C1714 C 0.68342 0.76128 0.24449 0.0
C1715 C 0.69102 0.75449 0.24232 0.0
C1716 C 0.68578 0.77255 0.23243 0.0
C1717 C 0.66432 0.76329 0.26007 0.0
C1718 C 0.68265 0.76942 0.21489 0.0
C1719 C 0.6836 0.77966 0.20372 0.0
C1720 C 0.68774 0.79325 0.20987 0.0
C1721 C 0.69142 0.79649 0.22733 0.0
C1722 C 0.69047 0.78624 0.23849 0.0
H1723 H 0.65499 0.75662 0.26806 0.0
H1724 H 0.67049 0.77363 0.26667 0.0
H1725 H 0.66086 0.76502 0.24747 0.0
H1726 H 0.67909 0.75893 0.20994 0.0
H1727 H 0.68094 0.77688 0.19029 0.0
H1728 H 0.30352 0.96024 0.30839 0.0
H1729 H 0.2894 0.94488 0.28465 0.0
H1730 H 0.26903 0.96874 0.27995 0.0
H1731 H 0.28304 0.98415 0.30355 0.0
H1732 H 0.2595 0.92882 0.28498 0.0
H1733 H 0.28021 0.96536 0.22987 0.0
H1734 H 0.28971 0.96854 0.24975 0.0
H1735 H 0.27582 0.97213 0.24847 0.0
C1736 C 0.29616 0.96234 0.30218 0.0
C1737 C 0.2944 0.97342 0.30793 0.0
C1738 C 0.28811 0.95354 0.28863 0.0
C1739 C 0.27831 0.9558 0.28045 0.0
C1740 C 0.27671 0.96699 0.28591 0.0
H1741 H 0.21155 0.91518 0.20777 0.0
H1742 H 0.22996 0.93103 0.22764 0.0
C1743 C 0.28468 0.97572 0.2995 0.0
C1744 C 0.26899 0.94588 0.26707 0.0
H1745 H 0.25868 0.94395 0.22539 0.0
C1746 C 0.25942 0.93204 0.27187 0.0
C1747 C 0.2689 0.9502 0.25007 0.0
C1748 C 0.27928 0.96484 0.24413 0.0
C1749 C 0.24935 0.9225 0.26027 0.0
C1750 C 0.2491 0.92687 0.24331 0.0
C1751 C 0.2589 0.94064 0.2384 0.0
C1752 C 0.23839 0.91747 0.23069 0.0
C1753 C 0.23871 0.90803 0.26651 0.0
C1754 C 0.23721 0.90472 0.22557 0.0
C1755 C 0.22659 0.89555 0.2144 0.0
C1756 C 0.21704 0.89904 0.20799 0.0
C1757 C 0.21856 0.91205 0.21272 0.0
C1758 C 0.22915 0.92117 0.22395 0.0
H1759 H 0.23823 0.90755 0.2808 0.0
H1760 H 0.2282 0.90475 0.26153 0.0
H1761 H 0.24157 0.90035 0.26177 0.0
H1762 H 0.24441 0.90178 0.23037 0.0
H1763 H 0.22567 0.88558 0.21114 0.0
H1764 H 0.65556 0.95745 0.30775 0.0
H1765 H 0.65487 0.94181 0.28467 0.0
H1766 H 0.69926 0.96794 0.27824 0.0
H1767 H 0.70014 0.98344 0.30139 0.0
H1768 H 0.66329 0.94626 0.25008 0.0
H1769 H 0.69397 0.92941 0.28777 0.0
H1770 H 0.68646 0.93893 0.29734 0.0
H1771 H 0.7025 0.94812 0.28548 0.0
C1772 C 0.66517 0.95992 0.30135 0.0
C1773 C 0.67794 0.97159 0.30661 0.0
C1774 C 0.66475 0.95097 0.28817 0.0
C1775 C 0.67706 0.95356 0.28004 0.0
C1776 C 0.68969 0.96556 0.28467 0.0
H1777 H 0.70104 0.91392 0.2022 0.0
H1778 H 0.69935 0.93018 0.22224 0.0
C1779 C 0.69015 0.97444 0.29788 0.0
C1780 C 0.67684 0.94355 0.26704 0.0
H1781 H 0.69041 0.92275 0.25817 0.0
C1782 C 0.66913 0.94103 0.25187 0.0
C1783 C 0.6844 0.93669 0.2695 0.0
C1784 C 0.69219 0.93829 0.28597 0.0
C1785 C 0.66915 0.93212 0.23883 0.0
C1786 C 0.677 0.92557 0.24115 0.0
C1787 C 0.68452 0.92793 0.25641 0.0
C1788 C 0.67758 0.91615 0.22796 0.0
C1789 C 0.66105 0.93 0.22252 0.0
C1790 C 0.66586 0.90291 0.22456 0.0
C1791 C 0.66683 0.89351 0.21328 0.0
C1792 C 0.67955 0.89721 0.20523 0.0
C1793 C 0.69116 0.91065 0.20838 0.0
C1794 C 0.69019 0.92 0.21972 0.0
H1795 H 0.65757 0.93771 0.22144 0.0
H1796 H 0.66744 0.93091 0.21105 0.0
H1797 H 0.65171 0.91928 0.22238 0.0
H1798 H 0.6561 0.89968 0.23105 0.0
H1799 H 0.65774 0.88317 0.21137 0.0
H1800 H 0.05895 0.70004 0.29723 0.0
H1801 H 0.06963 0.71861 0.276 0.0
H1802 H 0.03958 0.73082 0.28768 0.0
H1803 H 0.02888 0.71234 0.30931 0.0
H1804 H 0.05836 0.72301 0.24684 0.0
H1805 H 0.07661 0.76776 0.29323 0.0
H1806 H 0.07052 0.75005 0.3001 0.0
H1807 H 0.0583 0.75504 0.29365 0.0
C1808 C 0.05456 0.70664 0.29535 0.0
C1809 C 0.04308 0.70472 0.30512 0.0
C1810 C 0.06069 0.71725 0.28316 0.0
C1811 C 0.05552 0.72622 0.28042 0.0
C1812 C 0.0439 0.72419 0.28983 0.0
H1813 H 0.0921 0.79869 0.21092 0.0
H1814 H 0.07576 0.78005 0.23014 0.0
C1815 C 0.03775 0.71357 0.30213 0.0
C1816 C 0.06248 0.73765 0.2677 0.0
H1817 H 0.08205 0.77335 0.26399 0.0
C1818 C 0.06344 0.73402 0.25057 0.0
C1819 C 0.06905 0.752 0.27257 0.0
C1820 C 0.0687 0.75652 0.2909 0.0
C1821 C 0.0711 0.74434 0.23828 0.0
C1822 C 0.07809 0.75865 0.24331 0.0
C1823 C 0.07667 0.76234 0.26023 0.0
C1824 C 0.08779 0.76986 0.23154 0.0
C1825 C 0.07183 0.73987 0.22006 0.0
C1826 C 0.10003 0.77038 0.22622 0.0
C1827 C 0.10945 0.78107 0.21546 0.0
C1828 C 0.10681 0.79147 0.20974 0.0
C1829 C 0.09453 0.79094 0.21519 0.0
C1830 C 0.08514 0.78026 0.22608 0.0
H1831 H 0.06314 0.72905 0.21719 0.0
H1832 H 0.07157 0.74718 0.21065 0.0
H1833 H 0.08175 0.74003 0.21825 0.0
H1834 H 0.1024 0.76261 0.23061 0.0
H1835 H 0.11893 0.78131 0.21188 0.0
H1836 H 0.2922 0.31847 0.30733 0.0
H1837 H 0.27414 0.31155 0.28539 0.0
H1838 H 0.29416 0.35437 0.26809 0.0
H1839 H 0.31226 0.36135 0.28966 0.0
H1840 H 0.25617 0.32159 0.28308 0.0
H1841 H 0.2866 0.33276 0.22292 0.0
H1842 H 0.29314 0.33125 0.24347 0.0
H1843 H 0.29421 0.34743 0.23761 0.0
C1844 C 0.29289 0.32637 0.29867 0.0
C1845 C 0.3037 0.34048 0.30031 0.0
C1846 C 0.28254 0.3224 0.28616 0.0
C1847 C 0.28291 0.3324 0.27494 0.0
C1848 C 0.29383 0.3464 0.27633 0.0
H1849 H 0.23275 0.34729 0.20775 0.0
H1850 H 0.2505 0.34713 0.22569 0.0
C1851 C 0.30413 0.3504 0.2888 0.0
C1852 C 0.27136 0.32862 0.26272 0.0
H1853 H 0.26465 0.33177 0.22072 0.0
C1854 C 0.25794 0.32354 0.26939 0.0
C1855 C 0.2737 0.33116 0.24485 0.0
C1856 C 0.28767 0.33581 0.23676 0.0
C1857 C 0.247 0.32173 0.25884 0.0
C1858 C 0.24952 0.32493 0.24114 0.0
C1859 C 0.26278 0.32942 0.23433 0.0
C1860 C 0.23884 0.32469 0.22977 0.0
C1861 C 0.233 0.31711 0.26687 0.0
C1862 C 0.22647 0.31208 0.22592 0.0
C1863 C 0.21626 0.31215 0.21571 0.0
C1864 C 0.21825 0.32483 0.2092 0.0
C1865 C 0.23079 0.33738 0.2128 0.0
C1866 C 0.24099 0.3373 0.22294 0.0
H1867 H 0.23344 0.31741 0.28117 0.0
H1868 H 0.229 0.32388 0.26256 0.0
H1869 H 0.22547 0.30617 0.26271 0.0
H1870 H 0.22469 0.30221 0.2309 0.0
H1871 H 0.20669 0.30231 0.21323 0.0
H1872 H 0.29638 0.32545 0.38457 0.0
H1873 H 0.28055 0.32321 0.40786 0.0
H1874 H 0.29741 0.36797 0.40754 0.0
H1875 H 0.31335 0.37039 0.38444 0.0
H1876 H 0.29359 0.35635 0.44102 0.0
H1877 H 0.24632 0.32724 0.40018 0.0
H1878 H 0.25732 0.31986 0.40102 0.0
H1879 H 0.26364 0.33664 0.39121 0.0
C1880 C 0.29679 0.33484 0.3895 0.0
C1881 C 0.30608 0.34809 0.38249 0.0
C1882 C 0.28769 0.33352 0.40276 0.0
C1883 C 0.28769 0.3454 0.40922 0.0
C1884 C 0.29722 0.35866 0.40267 0.0
H1885 H 0.24066 0.36628 0.47882 0.0
H1886 H 0.25828 0.36616 0.46017 0.0
C1887 C 0.30631 0.36001 0.38942 0.0
C1888 C 0.27753 0.34406 0.4225 0.0
H1889 H 0.24291 0.3311 0.42921 0.0
C1890 C 0.2825 0.35079 0.4385 0.0
C1891 C 0.26308 0.33679 0.41912 0.0
C1892 C 0.25722 0.3298 0.40192 0.0
C1893 C 0.27339 0.35045 0.45125 0.0
C1894 C 0.25896 0.34342 0.44775 0.0
C1895 C 0.25398 0.33647 0.43186 0.0
C1896 C 0.24886 0.34355 0.46007 0.0
C1897 C 0.27926 0.35755 0.46839 0.0
C1898 C 0.23764 0.33087 0.46605 0.0
C1899 C 0.22753 0.33091 0.47667 0.0
C1900 C 0.22842 0.34363 0.48144 0.0
C1901 C 0.2398 0.35633 0.47562 0.0
C1902 C 0.24989 0.35627 0.46497 0.0
H1903 H 0.28961 0.35881 0.47081 0.0
H1904 H 0.28057 0.36817 0.46842 0.0
H1905 H 0.27216 0.3515 0.47911 0.0
H1906 H 0.23663 0.32093 0.46236 0.0
H1907 H 0.21898 0.32096 0.4811 0.0
H1908 H 0.64831 0.95745 0.3838 0.0
H1909 H 0.642 0.93928 0.40544 0.0
H1910 H 0.6853 0.95726 0.41828 0.0
H1911 H 0.69168 0.97552 0.39705 0.0
H1912 H 0.64975 0.91959 0.4061 0.0
H1913 H 0.66802 0.9521 0.46547 0.0
H1914 H 0.66581 0.95877 0.44542 0.0
H1915 H 0.68138 0.95829 0.44937 0.0
C1916 C 0.65648 0.95767 0.3914 0.0
C1917 C 0.67051 0.96801 0.38866 0.0
C1918 C 0.65285 0.94725 0.40375 0.0
C1919 C 0.66316 0.94703 0.41368 0.0
C1920 C 0.67713 0.95741 0.41109 0.0
H1921 H 0.67629 0.89285 0.47647 0.0
H1922 H 0.67698 0.9111 0.45853 0.0
C1923 C 0.68077 0.96781 0.39882 0.0
C1924 C 0.65954 0.93547 0.42591 0.0
H1925 H 0.66501 0.92901 0.4671 0.0
C1926 C 0.65284 0.92161 0.41952 0.0
C1927 C 0.66355 0.93811 0.44344 0.0
C1928 C 0.66996 0.95261 0.45137 0.0
C1929 C 0.65074 0.91043 0.42995 0.0
C1930 C 0.65537 0.9132 0.44722 0.0
C1931 C 0.66157 0.92695 0.4538 0.0
C1932 C 0.65469 0.90212 0.45833 0.0
C1933 C 0.64415 0.89582 0.42227 0.0
C1934 C 0.64191 0.89108 0.46427 0.0
C1935 C 0.64148 0.88067 0.47471 0.0
C1936 C 0.65383 0.88113 0.4794 0.0
C1937 C 0.6666 0.89227 0.47339 0.0
C1938 C 0.66702 0.90267 0.46304 0.0
H1939 H 0.64285 0.89576 0.4081 0.0
H1940 H 0.65056 0.89109 0.42514 0.0
H1941 H 0.63375 0.88908 0.42814 0.0
H1942 H 0.6323 0.89058 0.46092 0.0
H1943 H 0.63148 0.87238 0.4793 0.0
H1944 H 0.0555 0.68666 0.39192 0.0
H1945 H 0.06926 0.70207 0.41561 0.0
H1946 H 0.04885 0.72586 0.41026 0.0
H1947 H 0.0348 0.71031 0.38659 0.0
H1948 H 0.08743 0.73052 0.41138 0.0
H1949 H 0.0487 0.72103 0.46259 0.0
H1950 H 0.04491 0.70905 0.44466 0.0
H1951 H 0.04489 0.72507 0.44175 0.0
C1952 C 0.05375 0.69503 0.3959 0.0
C1953 C 0.0441 0.69731 0.38725 0.0
C1954 C 0.06162 0.70381 0.40948 0.0
C1955 C 0.06003 0.71506 0.41474 0.0
C1956 C 0.05007 0.71709 0.40659 0.0
H1957 H 0.11189 0.78618 0.48274 0.0
H1958 H 0.09349 0.76942 0.46335 0.0
C1959 C 0.0421 0.70823 0.39301 0.0
C1960 C 0.06978 0.72533 0.42759 0.0
H1961 H 0.07191 0.73951 0.46759 0.0
C1962 C 0.08403 0.73245 0.42368 0.0
C1963 C 0.06529 0.72792 0.44354 0.0
C1964 C 0.05012 0.7203 0.44852 0.0
C1965 C 0.09394 0.74204 0.43534 0.0
C1966 C 0.0895 0.74443 0.45143 0.0
C1967 C 0.07524 0.73756 0.45525 0.0
C1968 C 0.09966 0.7539 0.46447 0.0
C1969 C 0.1091 0.74964 0.43029 0.0
C1970 C 0.10893 0.7505 0.47184 0.0
C1971 C 0.1194 0.75999 0.48292 0.0
C1972 C 0.12076 0.77305 0.48688 0.0
C1973 C 0.11107 0.77617 0.48003 0.0
C1974 C 0.10058 0.76665 0.46893 0.0
H1975 H 0.11048 0.74915 0.41616 0.0
H1976 H 0.11442 0.76084 0.43444 0.0
H1977 H 0.11428 0.74467 0.43673 0.0
H1978 H 0.10823 0.7406 0.46874 0.0
H1979 H 0.12653 0.75716 0.48826 0.0
H1980 H 0.34955 0.04605 0.71453 0.0
H1981 H 0.35094 0.0615 0.73824 0.0
H1982 H 0.30639 0.03709 0.7442 0.0
H1983 H 0.30483 0.0216 0.72056 0.0
H1984 H 0.33618 0.07686 0.73758 0.0
H1985 H 0.32218 0.04192 0.79411 0.0
H1986 H 0.32869 0.03877 0.77421 0.0
H1987 H 0.31093 0.03447 0.77573 0.0
C1988 C 0.34005 0.04383 0.72103 0.0
C1989 C 0.32706 0.0326 0.71558 0.0
C1990 C 0.34088 0.05268 0.73456 0.0
C1991 C 0.32878 0.05033 0.74303 0.0
C1992 C 0.31586 0.03894 0.73797 0.0
H1993 H 0.3047 0.0919 0.81766 0.0
H1994 H 0.30652 0.07557 0.79788 0.0
C1995 C 0.315 0.03015 0.72437 0.0
C1996 C 0.32948 0.06042 0.7562 0.0
H1997 H 0.3225 0.06335 0.79839 0.0
C1998 C 0.33335 0.074 0.75094 0.0
C1999 C 0.32565 0.05654 0.77351 0.0
C2000 C 0.32172 0.04217 0.77984 0.0
C2001 C 0.33307 0.08371 0.76244 0.0
C2002 C 0.32918 0.07983 0.77979 0.0
C2003 C 0.32551 0.0663 0.7851 0.0
C2004 C 0.32837 0.08952 0.79243 0.0
C2005 C 0.33641 0.09782 0.75571 0.0
C2006 C 0.34013 0.10266 0.79621 0.0
C2007 C 0.33908 0.11211 0.80728 0.0
C2008 C 0.32627 0.10853 0.81498 0.0
C2009 C 0.31465 0.09512 0.81168 0.0
C2010 C 0.31569 0.08572 0.80051 0.0
H2011 H 0.33556 0.09771 0.74146 0.0
H2012 H 0.32936 0.10108 0.76139 0.0
H2013 H 0.34725 0.10584 0.75926 0.0
H2014 H 0.35008 0.10569 0.79039 0.0
H2015 H 0.34823 0.12237 0.80941 0.0
H2016 H 0.97522 0.29113 0.71042 0.0
H2017 H 0.96371 0.272 0.73111 0.0
H2018 H 0.93764 0.28805 0.74777 0.0
H2019 H 0.94891 0.30707 0.72711 0.0
H2020 H 0.96004 0.27199 0.76763 0.0
H2021 H 0.90994 0.24728 0.73231 0.0
H2022 H 0.92611 0.26062 0.72293 0.0
H2023 H 0.91678 0.26547 0.73768 0.0
C2024 C 0.96711 0.29066 0.71856 0.0
C2025 C 0.96289 0.30057 0.71692 0.0
C2026 C 0.96055 0.27973 0.73038 0.0
C2027 C 0.94967 0.27849 0.74072 0.0
C2028 C 0.94584 0.28867 0.73965 0.0
H2029 H 0.90876 0.22894 0.83025 0.0
H2030 H 0.9242 0.2472 0.81018 0.0
C2031 C 0.95234 0.29957 0.72785 0.0
C2032 C 0.94195 0.26634 0.75227 0.0
H2033 H 0.90946 0.23854 0.76023 0.0
C2034 C 0.949 0.2646 0.76598 0.0
C2035 C 0.92761 0.25659 0.74988 0.0
C2036 C 0.91967 0.25746 0.73481 0.0
C2037 C 0.94196 0.2536 0.77774 0.0
C2038 C 0.92747 0.24427 0.77582 0.0
C2039 C 0.92054 0.24577 0.76178 0.0
C2040 C 0.91912 0.23304 0.78837 0.0
C2041 C 0.95009 0.25204 0.79203 0.0
C2042 C 0.91102 0.21902 0.78275 0.0
C2043 C 0.90202 0.20859 0.79412 0.0
C2044 C 0.90089 0.21198 0.81135 0.0
C2045 C 0.90928 0.22599 0.81704 0.0
C2046 C 0.91826 0.23642 0.80563 0.0
H2047 H 0.96132 0.25715 0.78878 0.0
H2048 H 0.94913 0.25717 0.8039 0.0
H2049 H 0.94605 0.2408 0.79483 0.0
H2050 H 0.91145 0.2162 0.76944 0.0
H2051 H 0.89558 0.19796 0.78923 0.0
H2052 H 0.71301 0.68572 0.71228 0.0
H2053 H 0.73174 0.69191 0.73309 0.0
H2054 H 0.71178 0.64868 0.74872 0.0
H2055 H 0.69313 0.64236 0.72812 0.0
H2056 H 0.73076 0.68641 0.77112 0.0
H2057 H 0.7516 0.65958 0.7309 0.0
H2058 H 0.73998 0.66484 0.72251 0.0
H2059 H 0.73326 0.64922 0.73515 0.0
C2060 C 0.71252 0.67755 0.72029 0.0
C2061 C 0.70162 0.6635 0.71834 0.0
C2062 C 0.72322 0.68112 0.73216 0.0
C2063 C 0.72321 0.6707 0.74222 0.0
C2064 C 0.71205 0.65683 0.74088 0.0
H2065 H 0.77264 0.65697 0.81287 0.0
H2066 H 0.75512 0.65637 0.79379 0.0
C2067 C 0.70139 0.65326 0.72908 0.0
C2068 C 0.73511 0.67399 0.75353 0.0
H2069 H 0.76028 0.66582 0.75946 0.0
C2070 C 0.73736 0.68209 0.76853 0.0
C2071 C 0.74371 0.66837 0.75001 0.0
C2072 C 0.74214 0.66012 0.7337 0.0
C2073 C 0.74759 0.68413 0.78054 0.0
C2074 C 0.75583 0.67804 0.77729 0.0
C2075 C 0.75388 0.67038 0.76199 0.0
C2076 C 0.76611 0.67883 0.78987 0.0
C2077 C 0.74915 0.69228 0.79692 0.0
C2078 C 0.77808 0.69169 0.79409 0.0
C2079 C 0.78819 0.69206 0.80497 0.0
C2080 C 0.78652 0.67956 0.81169 0.0
C2081 C 0.77436 0.66676 0.8077 0.0
C2082 C 0.76429 0.6664 0.79688 0.0
H2083 H 0.7403 0.69398 0.79897 0.0
H2084 H 0.74996 0.68671 0.80822 0.0
H2085 H 0.75885 0.7027 0.79625 0.0
H2086 H 0.7798 0.70138 0.78858 0.0
H2087 H 0.79751 0.70207 0.80765 0.0
H2088 H 0.69145 0.63497 0.63453 0.0
H2089 H 0.70761 0.63774 0.61157 0.0
H2090 H 0.7238 0.68239 0.61138 0.0
H2091 H 0.70776 0.6798 0.63457 0.0
H2092 H 0.71152 0.64915 0.57826 0.0
H2093 H 0.75843 0.67936 0.61944 0.0
H2094 H 0.74108 0.66979 0.62826 0.0
H2095 H 0.74718 0.68642 0.61813 0.0
C2096 C 0.69838 0.6454 0.6296 0.0
C2097 C 0.69837 0.65719 0.63657 0.0
C2098 C 0.7076 0.64695 0.61643 0.0
C2099 C 0.71703 0.66029 0.60998 0.0
C2100 C 0.71676 0.67203 0.61642 0.0
H2101 H 0.7863 0.68459 0.53865 0.0
H2102 H 0.7686 0.68485 0.55706 0.0
C2103 C 0.70753 0.67051 0.62963 0.0
C2104 C 0.72737 0.66183 0.59685 0.0
H2105 H 0.76214 0.67527 0.59061 0.0
C2106 C 0.7226 0.65492 0.5809 0.0
C2107 C 0.74181 0.66937 0.60036 0.0
C2108 C 0.74749 0.67658 0.61751 0.0
C2109 C 0.73188 0.65528 0.56838 0.0
C2110 C 0.74629 0.66254 0.57206 0.0
C2111 C 0.75109 0.66973 0.58784 0.0
C2112 C 0.75653 0.6623 0.56008 0.0
C2113 C 0.7262 0.64793 0.55132 0.0
C2114 C 0.75565 0.64953 0.55577 0.0
C2115 C 0.76577 0.64935 0.54534 0.0
C2116 C 0.77705 0.66195 0.53912 0.0
C2117 C 0.77784 0.67471 0.54338 0.0
C2118 C 0.7677 0.67488 0.55381 0.0
H2119 H 0.71582 0.64651 0.54862 0.0
H2120 H 0.73336 0.65387 0.5406 0.0
H2121 H 0.725 0.63736 0.55164 0.0
H2122 H 0.74731 0.63973 0.56083 0.0
H2123 H 0.76498 0.63936 0.54257 0.0
H2124 H 0.35632 0.04973 0.64068 0.0
H2125 H 0.36246 0.069 0.62072 0.0
H2126 H 0.31984 0.04871 0.60378 0.0
H2127 H 0.31356 0.02952 0.62366 0.0
H2128 H 0.35897 0.06946 0.58408 0.0
H2129 H 0.32867 0.08784 0.62126 0.0
H2130 H 0.33325 0.07571 0.62989 0.0
H2131 H 0.31888 0.06957 0.61524 0.0
C2132 C 0.34827 0.04929 0.6326 0.0
C2133 C 0.3344 0.03813 0.63396 0.0
C2134 C 0.35181 0.06031 0.62121 0.0
C2135 C 0.34155 0.06039 0.61103 0.0
C2136 C 0.32786 0.04898 0.61178 0.0
H2137 H 0.34577 0.10973 0.52386 0.0
H2138 H 0.34443 0.09186 0.54319 0.0
C2139 C 0.32431 0.03799 0.62313 0.0
C2140 C 0.34496 0.07257 0.60005 0.0
H2141 H 0.33672 0.09784 0.59366 0.0
C2142 C 0.3542 0.07575 0.58621 0.0
C2143 C 0.33889 0.08089 0.60305 0.0
C2144 C 0.32947 0.07845 0.61826 0.0
C2145 C 0.35717 0.08676 0.57493 0.0
C2146 C 0.35057 0.09464 0.57747 0.0
C2147 C 0.34169 0.09173 0.59164 0.0
C2148 C 0.35241 0.10574 0.56541 0.0
C2149 C 0.36738 0.08989 0.56046 0.0
C2150 C 0.35716 0.11944 0.57152 0.0
C2151 C 0.35774 0.12963 0.56056 0.0
C2152 C 0.3535 0.12629 0.54328 0.0
C2153 C 0.34898 0.11261 0.53713 0.0
C2154 C 0.34839 0.10243 0.54811 0.0
H2155 H 0.37444 0.08589 0.56323 0.0
H2156 H 0.36159 0.08465 0.54849 0.0
H2157 H 0.37376 0.10136 0.5581 0.0
H2158 H 0.3602 0.12219 0.58487 0.0
H2159 H 0.3611 0.13999 0.56579 0.0
H2160 H 0.97151 0.29351 0.63563 0.0
H2161 H 0.95845 0.27786 0.61151 0.0
H2162 H 0.93594 0.2995 0.6057 0.0
H2163 H 0.94886 0.31516 0.62964 0.0
H2164 H 0.92879 0.26035 0.61122 0.0
H2165 H 0.94799 0.29677 0.55603 0.0
H2166 H 0.95742 0.30061 0.57607 0.0
H2167 H 0.9429 0.30319 0.57432 0.0
C2168 C 0.96393 0.29508 0.62906 0.0
C2169 C 0.9612 0.30557 0.63462 0.0
C2170 C 0.95648 0.28612 0.6153 0.0
C2171 C 0.94637 0.28765 0.60672 0.0
C2172 C 0.94388 0.29831 0.61195 0.0
H2173 H 0.8791 0.24543 0.53612 0.0
H2174 H 0.89794 0.26154 0.55529 0.0
C2175 C 0.95122 0.30719 0.62574 0.0
C2176 C 0.93751 0.27742 0.59329 0.0
H2177 H 0.92665 0.27497 0.55178 0.0
C2178 C 0.92845 0.26345 0.59813 0.0
C2179 C 0.93709 0.28157 0.57629 0.0
C2180 C 0.94696 0.29633 0.57028 0.0
C2181 C 0.91848 0.25365 0.58663 0.0
C2182 C 0.9178 0.25789 0.56974 0.0
C2183 C 0.92718 0.27176 0.56474 0.0
C2184 C 0.90687 0.24833 0.55743 0.0
C2185 C 0.90833 0.23904 0.59295 0.0
C2186 C 0.9058 0.23569 0.55202 0.0
C2187 C 0.89492 0.22637 0.54125 0.0
C2188 C 0.88498 0.22958 0.53555 0.0
C2189 C 0.8864 0.2425 0.54054 0.0
C2190 C 0.89724 0.25177 0.55137 0.0
H2191 H 0.90822 0.23849 0.60723 0.0
H2192 H 0.89762 0.23549 0.58845 0.0
H2193 H 0.91136 0.23162 0.58776 0.0
H2194 H 0.91328 0.23296 0.55631 0.0
H2195 H 0.8941 0.21648 0.53774 0.0
H2196 H 0.32457 0.29356 0.63985 0.0
H2197 H 0.32394 0.27814 0.61653 0.0
H2198 H 0.36845 0.3039 0.61094 0.0
H2199 H 0.36925 0.31916 0.63438 0.0
H2200 H 0.33265 0.2826 0.58217 0.0
H2201 H 0.36269 0.26522 0.6203 0.0
H2202 H 0.3553 0.27489 0.62975 0.0
H2203 H 0.3714 0.28393 0.61798 0.0
C2204 C 0.33422 0.29601 0.63357 0.0
C2205 C 0.34699 0.30748 0.63917 0.0
C2206 C 0.33383 0.28719 0.62025 0.0
C2207 C 0.34618 0.28971 0.6123 0.0
C2208 C 0.35884 0.30157 0.61722 0.0
H2209 H 0.3689 0.24806 0.53525 0.0
H2210 H 0.36787 0.26495 0.55488 0.0
C2211 C 0.35926 0.31031 0.63059 0.0
C2212 C 0.34598 0.2797 0.5993 0.0
H2213 H 0.359 0.25835 0.59082 0.0
C2214 C 0.33835 0.27724 0.58407 0.0
C2215 C 0.35334 0.27264 0.6019 0.0
C2216 C 0.36103 0.27417 0.61843 0.0
C2217 C 0.3382 0.26815 0.57115 0.0
C2218 C 0.34579 0.26135 0.57365 0.0
C2219 C 0.3533 0.26371 0.58892 0.0
C2220 C 0.34601 0.25157 0.56071 0.0
C2221 C 0.33015 0.26607 0.5548 0.0
C2222 C 0.33404 0.23848 0.55751 0.0
C2223 C 0.33462 0.22872 0.54648 0.0
C2224 C 0.3472 0.2319 0.53846 0.0
C2225 C 0.3591 0.24519 0.54141 0.0
C2226 C 0.35852 0.2549 0.55251 0.0
H2227 H 0.32704 0.27405 0.55348 0.0
H2228 H 0.33641 0.26657 0.54338 0.0
H2229 H 0.32058 0.25552 0.55487 0.0
H2230 H 0.32436 0.23564 0.56398 0.0
H2231 H 0.32532 0.21852 0.54473 0.0
H2232 H 0.69452 0.04481 0.63628 0.0
H2233 H 0.7058 0.06281 0.61419 0.0
H2234 H 0.73184 0.04609 0.60011 0.0
H2235 H 0.72054 0.02798 0.6218 0.0
H2236 H 0.73325 0.08317 0.61228 0.0
H2237 H 0.71826 0.04982 0.55353 0.0
H2238 H 0.70982 0.04325 0.57402 0.0
H2239 H 0.72614 0.04441 0.56928 0.0
C2240 C 0.70253 0.04484 0.62834 0.0
C2241 C 0.70658 0.03489 0.63084 0.0
C2242 C 0.70896 0.05515 0.61573 0.0
C2243 C 0.7195 0.05565 0.60531 0.0
C2244 C 0.72349 0.04569 0.60769 0.0
H2245 H 0.78476 0.11124 0.53854 0.0
H2246 H 0.76793 0.09252 0.5571 0.0
C2247 C 0.71706 0.03539 0.62022 0.0
C2248 C 0.72702 0.06709 0.59271 0.0
H2249 H 0.73785 0.07334 0.55084 0.0
C2250 C 0.73407 0.08105 0.59878 0.0
C2251 C 0.72804 0.0643 0.57509 0.0
C2252 C 0.72004 0.04964 0.56756 0.0
C2253 C 0.74267 0.09223 0.58788 0.0
C2254 C 0.74415 0.08935 0.57047 0.0
C2255 C 0.73674 0.07547 0.56425 0.0
C2256 C 0.75396 0.10053 0.55876 0.0
C2257 C 0.75059 0.10697 0.59521 0.0
C2258 C 0.75156 0.11112 0.55339 0.0
C2259 C 0.7611 0.12179 0.54261 0.0
C2260 C 0.77322 0.12204 0.53704 0.0
C2261 C 0.77546 0.11128 0.54235 0.0
C2262 C 0.7659 0.10061 0.55304 0.0
H2263 H 0.74993 0.10715 0.60948 0.0
H2264 H 0.76171 0.11222 0.5914 0.0
H2265 H 0.74624 0.11317 0.58994 0.0
H2266 H 0.7423 0.11112 0.5575 0.0
H2267 H 0.75893 0.12978 0.53855 0.0
H2268 H 0.97723 0.69408 0.62353 0.0
H2269 H 0.95913 0.68756 0.60204 0.0
H2270 H 0.93974 0.64419 0.61696 0.0
H2271 H 0.95776 0.65063 0.63881 0.0
H2272 H 0.95045 0.66873 0.57399 0.0
H2273 H 0.90836 0.65278 0.62268 0.0
H2274 H 0.92654 0.66253 0.62841 0.0
H2275 H 0.91812 0.64404 0.62371 0.0
C2276 C 0.96918 0.68312 0.62225 0.0
C2277 C 0.96891 0.67291 0.63308 0.0
C2278 C 0.95884 0.67942 0.6099 0.0
C2279 C 0.94797 0.66544 0.60809 0.0
C2280 C 0.9479 0.65509 0.61838 0.0
H2281 H 0.87279 0.63611 0.54534 0.0
H2282 H 0.89085 0.63613 0.56303 0.0
C2283 C 0.95827 0.65879 0.63079 0.0
C2284 C 0.93656 0.66196 0.59576 0.0
H2285 H 0.90216 0.65168 0.59362 0.0
C2286 C 0.93986 0.66488 0.57825 0.0
C2287 C 0.92274 0.65689 0.60134 0.0
C2288 C 0.91867 0.65396 0.62006 0.0
C2289 C 0.92979 0.66317 0.56624 0.0
C2290 C 0.91611 0.65864 0.57194 0.0
C2291 C 0.91267 0.65518 0.58931 0.0
C2292 C 0.9055 0.65838 0.56038 0.0
C2293 C 0.93389 0.66634 0.54757 0.0
C2294 C 0.90774 0.67089 0.55312 0.0
C2295 C 0.89748 0.67092 0.54304 0.0
C2296 C 0.88474 0.65843 0.54006 0.0
C2297 C 0.88256 0.64587 0.54723 0.0
C2298 C 0.89283 0.64587 0.5574 0.0
H2299 H 0.94317 0.66556 0.54449 0.0
H2300 H 0.92523 0.65907 0.53893 0.0
H2301 H 0.93651 0.67723 0.54484 0.0
H2302 H 0.91735 0.68072 0.55551 0.0
H2303 H 0.89953 0.68074 0.53758 0.0
H2304 H 0.98039 0.70313 0.71748 0.0
H2305 H 0.96472 0.70168 0.74036 0.0
H2306 H 0.94457 0.6565 0.73951 0.0
H2307 H 0.96034 0.65779 0.71665 0.0
H2308 H 0.93576 0.68773 0.73713 0.0
H2309 H 0.95147 0.66653 0.79121 0.0
H2310 H 0.96231 0.67437 0.77252 0.0
H2311 H 0.9476 0.65679 0.77129 0.0
C2312 C 0.97275 0.69286 0.72223 0.0
C2313 C 0.97162 0.68056 0.71513 0.0
C2314 C 0.9638 0.69207 0.73534 0.0
C2315 C 0.95358 0.67901 0.74172 0.0
C2316 C 0.95256 0.66671 0.73496 0.0
H2317 H 0.88496 0.65516 0.81298 0.0
H2318 H 0.90219 0.65539 0.79319 0.0
C2319 C 0.96154 0.66747 0.72182 0.0
C2320 C 0.94342 0.67832 0.75457 0.0
H2321 H 0.93158 0.66852 0.79564 0.0
C2322 C 0.93487 0.68357 0.74994 0.0
C2323 C 0.94225 0.67281 0.77121 0.0
C2324 C 0.95146 0.66739 0.77698 0.0
C2325 C 0.9251 0.68339 0.76149 0.0
C2326 C 0.92405 0.67807 0.77822 0.0
C2327 C 0.93248 0.67266 0.78281 0.0
C2328 C 0.91419 0.67802 0.79107 0.0
C2329 C 0.91582 0.68869 0.75555 0.0
C2330 C 0.91544 0.69069 0.79673 0.0
C2331 C 0.90557 0.69059 0.80791 0.0
C2332 C 0.8943 0.67782 0.81372 0.0
C2333 C 0.89338 0.66516 0.80851 0.0
C2334 C 0.90326 0.66527 0.79731 0.0
H2335 H 0.91546 0.689 0.74128 0.0
H2336 H 0.90506 0.68198 0.76046 0.0
H2337 H 0.91992 0.69953 0.76059 0.0
H2338 H 0.92394 0.70065 0.79226 0.0
H2339 H 0.90655 0.70052 0.81157 0.0
H2340 H 0.35808 0.30858 0.73106 0.0
H2341 H 0.35092 0.28896 0.75051 0.0
H2342 H 0.30863 0.27021 0.7328 0.0
H2343 H 0.31565 0.28991 0.71322 0.0
H2344 H 0.31182 0.26924 0.76975 0.0
H2345 H 0.3407 0.2495 0.73205 0.0
H2346 H 0.35101 0.26771 0.73817 0.0
H2347 H 0.33665 0.26208 0.72362 0.0
C2348 C 0.34722 0.30037 0.73132 0.0
C2349 C 0.33747 0.30078 0.72038 0.0
C2350 C 0.34316 0.28913 0.74244 0.0
C2351 C 0.32931 0.27803 0.74285 0.0
C2352 C 0.3194 0.27865 0.73257 0.0
H2353 H 0.30858 0.19801 0.78833 0.0
H2354 H 0.30927 0.21565 0.76911 0.0
C2355 C 0.32344 0.28992 0.72139 0.0
C2356 C 0.32539 0.2656 0.75362 0.0
H2357 H 0.33265 0.2396 0.75973 0.0
C2358 C 0.31625 0.26267 0.76751 0.0
C2359 C 0.33101 0.2569 0.75046 0.0
C2360 C 0.34029 0.25909 0.73517 0.0
C2361 C 0.31302 0.25157 0.77876 0.0
C2362 C 0.31925 0.24335 0.77613 0.0
C2363 C 0.32796 0.24597 0.76184 0.0
C2364 C 0.31737 0.2323 0.78832 0.0
C2365 C 0.30297 0.24873 0.79333 0.0
C2366 C 0.32159 0.23576 0.80554 0.0
C2367 C 0.32112 0.22568 0.8166 0.0
C2368 C 0.31652 0.21194 0.81061 0.0
C2369 C 0.31201 0.20843 0.79343 0.0
C2370 C 0.31247 0.21852 0.7824 0.0
H2371 H 0.29601 0.25285 0.79052 0.0
H2372 H 0.29648 0.23731 0.79591 0.0
H2373 H 0.3089 0.25409 0.80519 0.0
H2374 H 0.32567 0.24639 0.81033 0.0
H2375 H 0.32453 0.2287 0.82979 0.0
H2376 H 0.72212 0.01906 0.71648 0.0
H2377 H 0.73704 0.03426 0.73964 0.0
H2378 H 0.71823 0.05969 0.73601 0.0
H2379 H 0.703 0.04434 0.71299 0.0
H2380 H 0.75618 0.06211 0.73652 0.0
H2381 H 0.71807 0.05433 0.78771 0.0
H2382 H 0.71357 0.04267 0.76931 0.0
H2383 H 0.7146 0.05931 0.7673 0.0
C2384 C 0.721 0.02778 0.72071 0.0
C2385 C 0.71138 0.0305 0.71281 0.0
C2386 C 0.72955 0.03645 0.73398 0.0
C2387 C 0.72866 0.04803 0.73966 0.0
C2388 C 0.71889 0.05064 0.73208 0.0
H2389 H 0.78165 0.11892 0.80648 0.0
H2390 H 0.76353 0.10221 0.78684 0.0
C2391 C 0.71025 0.0419 0.71884 0.0
C2392 C 0.73872 0.05789 0.75259 0.0
H2393 H 0.74147 0.07269 0.79234 0.0
C2394 C 0.75295 0.06435 0.74877 0.0
C2395 C 0.73448 0.06087 0.7685 0.0
C2396 C 0.71935 0.05384 0.77357 0.0
C2397 C 0.76308 0.07378 0.76037 0.0
C2398 C 0.75885 0.0767 0.77629 0.0
C2399 C 0.74463 0.07037 0.7801 0.0
C2400 C 0.76914 0.08633 0.78911 0.0
C2401 C 0.77822 0.08071 0.75541 0.0
C2402 C 0.77806 0.08276 0.79713 0.0
C2403 C 0.78835 0.09222 0.80844 0.0
C2404 C 0.7899 0.10543 0.81194 0.0
C2405 C 0.78066 0.10879 0.80421 0.0
C2406 C 0.77034 0.09929 0.79294 0.0
H2407 H 0.77959 0.07969 0.74138 0.0
H2408 H 0.78387 0.09204 0.759 0.0
H2409 H 0.78307 0.07566 0.76243 0.0
H2410 H 0.77713 0.07269 0.7945 0.0
H2411 H 0.79512 0.0892 0.81442 0.0
H2412 H 0.02421 0.3259 0.04188 0.0
H2413 H 0.04326 0.32564 0.05653 0.0
H2414 H 0.07216 0.36694 0.03731 0.0
H2415 H 0.05304 0.36731 0.02246 0.0
H2416 H 0.06905 0.3297 0.04007 0.0
H2417 H 0.07777 0.36901 0.09141 0.0
H2418 H 0.06164 0.35964 0.07957 0.0
H2419 H 0.07688 0.37347 0.06943 0.0
C2420 C 0.0346 0.33497 0.04076 0.0
C2421 C 0.03712 0.34666 0.03103 0.0
C2422 C 0.04547 0.33477 0.04912 0.0
C2423 C 0.05906 0.34629 0.04808 0.0
C2424 C 0.06169 0.358 0.03837 0.0
H2425 H 0.1323 0.35807 0.10303 0.0
H2426 H 0.11661 0.36165 0.0849 0.0
C2427 C 0.05078 0.35818 0.02987 0.0
C2428 C 0.07039 0.34582 0.05711 0.0
H2429 H 0.09143 0.35853 0.09244 0.0
C2430 C 0.07404 0.33607 0.05145 0.0
C2431 C 0.07688 0.35419 0.07188 0.0
C2432 C 0.07311 0.36464 0.07859 0.0
C2433 C 0.08393 0.33434 0.06029 0.0
C2434 C 0.09005 0.34233 0.07547 0.0
C2435 C 0.08668 0.35237 0.08085 0.0
C2436 C 0.09962 0.3401 0.08627 0.0
C2437 C 0.08777 0.32403 0.05322 0.0
C2438 C 0.09521 0.32684 0.09326 0.0
C2439 C 0.10415 0.32476 0.10358 0.0
C2440 C 0.11762 0.33595 0.10732 0.0
C2441 C 0.12194 0.34927 0.1005 0.0
C2442 C 0.11302 0.35132 0.09009 0.0
H2443 H 0.08567 0.32221 0.03918 0.0
H2444 H 0.09892 0.32777 0.05549 0.0
H2445 H 0.08141 0.3138 0.05972 0.0
H2446 H 0.08478 0.31812 0.0909 0.0
H2447 H 0.10043 0.31445 0.10889 0.0
H2448 H 0.68671 0.69206 0.05152 0.0
H2449 H 0.69148 0.71205 0.07025 0.0
H2450 H 0.65556 0.71156 0.04981 0.0
H2451 H 0.65077 0.69171 0.03101 0.0
H2452 H 0.69548 0.73902 0.05747 0.0
H2453 H 0.65187 0.71186 0.10393 0.0
H2454 H 0.65831 0.70268 0.09109 0.0
H2455 H 0.64718 0.70798 0.08158 0.0
C2456 C 0.67977 0.69614 0.05113 0.0
C2457 C 0.66837 0.69034 0.03981 0.0
C2458 C 0.68252 0.70755 0.06181 0.0
C2459 C 0.67379 0.71314 0.06148 0.0
C2460 C 0.6623 0.70724 0.05037 0.0
H2461 H 0.6802 0.79096 0.08804 0.0
H2462 H 0.67883 0.77027 0.07432 0.0
C2463 C 0.65962 0.69595 0.0396 0.0
C2464 C 0.67699 0.7256 0.07206 0.0
H2465 H 0.66394 0.73689 0.10413 0.0
C2466 C 0.6887 0.73856 0.06782 0.0
C2467 C 0.66816 0.72488 0.0856 0.0
C2468 C 0.65572 0.7111 0.09098 0.0
C2469 C 0.69148 0.75098 0.07633 0.0
C2470 C 0.68228 0.75035 0.08932 0.0
C2471 C 0.67091 0.73731 0.09407 0.0
C2472 C 0.68386 0.76318 0.09749 0.0
C2473 C 0.7041 0.76473 0.07123 0.0
C2474 C 0.68705 0.76594 0.11506 0.0
C2475 C 0.68787 0.77776 0.1229 0.0
C2476 C 0.68529 0.78686 0.11334 0.0
C2477 C 0.68215 0.78407 0.09572 0.0
C2478 C 0.68147 0.77234 0.08786 0.0
H2479 H 0.71172 0.76309 0.06389 0.0
H2480 H 0.7008 0.77058 0.06295 0.0
H2481 H 0.70932 0.77134 0.08278 0.0
H2482 H 0.68882 0.7589 0.12269 0.0
H2483 H 0.69016 0.77959 0.13654 0.0
H2484 H 0.30903 0.96156 0.01943 0.0
H2485 H 0.28868 0.94512 0.03625 0.0
H2486 H 0.29592 0.97864 0.07146 0.0
H2487 H 0.31607 0.99523 0.05441 0.0
H2488 H 0.28643 0.93715 0.06942 0.0
H2489 H 0.25552 0.9627 0.05931 0.0
H2490 H 0.27103 0.96733 0.04709 0.0
H2491 H 0.27233 0.9742 0.06856 0.0
C2492 C 0.30626 0.96544 0.03073 0.0
C2493 C 0.31406 0.9797 0.03553 0.0
C2494 C 0.29464 0.95603 0.04033 0.0
C2495 C 0.29061 0.96069 0.05493 0.0
C2496 C 0.2986 0.97487 0.05999 0.0
H2497 H 0.22571 0.91514 0.13123 0.0
H2498 H 0.24633 0.93279 0.11574 0.0
C2499 C 0.31017 0.98432 0.05031 0.0
C2500 C 0.27818 0.95062 0.06494 0.0
H2501 H 0.24645 0.94398 0.07925 0.0
C2502 C 0.27768 0.93864 0.07153 0.0
C2503 C 0.26675 0.95256 0.06765 0.0
C2504 C 0.26633 0.96482 0.06015 0.0
C2505 C 0.26611 0.9286 0.08083 0.0
C2506 C 0.25475 0.93058 0.08356 0.0
C2507 C 0.25525 0.94258 0.07715 0.0
C2508 C 0.24211 0.92007 0.09271 0.0
C2509 C 0.26608 0.91594 0.08778 0.0
C2510 C 0.23285 0.9072 0.08473 0.0
C2511 C 0.22097 0.89716 0.09341 0.0
C2512 C 0.21815 0.8998 0.1103 0.0
C2513 C 0.22743 0.91282 0.11817 0.0
C2514 C 0.23927 0.92289 0.10941 0.0
H2515 H 0.2765 0.91705 0.08692 0.0
H2516 H 0.26262 0.91422 0.10143 0.0
H2517 H 0.25861 0.90647 0.08028 0.0
H2518 H 0.23482 0.90493 0.07175 0.0
H2519 H 0.21394 0.88738 0.08682 0.0
H2520 H 0.36487 0.05081 1.00048 0.0
H2521 H 0.36451 0.06995 0.98536 0.0
H2522 H 0.32916 0.03956 0.95565 0.0
H2523 H 0.32947 0.0205 0.97052 0.0
H2524 H 0.35075 0.06163 0.93598 0.0
H2525 H 0.33461 0.08129 0.99257 0.0
H2526 H 0.34966 0.07967 0.99532 0.0
H2527 H 0.33291 0.06419 0.9921 0.0
C2528 C 0.35705 0.04823 0.9907 0.0
C2529 C 0.34716 0.03414 0.98675 0.0
C2530 C 0.35682 0.05916 0.98214 0.0
C2531 C 0.34671 0.05615 0.96952 0.0
C2532 C 0.33702 0.04211 0.96538 0.0
H2533 H 0.31357 0.10261 0.92294 0.0
H2534 H 0.31821 0.08662 0.93905 0.0
C2535 C 0.33721 0.03122 0.97393 0.0
C2536 C 0.34605 0.0675 0.96052 0.0
H2537 H 0.33785 0.093 0.96631 0.0
C2538 C 0.34806 0.06859 0.94261 0.0
C2539 C 0.34237 0.07642 0.96921 0.0
C2540 C 0.33965 0.07535 0.98834 0.0
C2541 C 0.34633 0.07827 0.93312 0.0
C2542 C 0.34263 0.08718 0.9418 0.0
C2543 C 0.34076 0.08619 0.95973 0.0
C2544 C 0.34004 0.09715 0.93236 0.0
C2545 C 0.348 0.07855 0.9138 0.0
C2546 C 0.35081 0.10844 0.92341 0.0
C2547 C 0.34818 0.11755 0.91413 0.0
C2548 C 0.33472 0.11555 0.91364 0.0
C2549 C 0.324 0.10433 0.92284 0.0
C2550 C 0.32666 0.09525 0.93216 0.0
H2551 H 0.34805 0.06914 0.9088 0.0
H2552 H 0.3395 0.07916 0.90738 0.0
H2553 H 0.35801 0.08801 0.9102 0.0
H2554 H 0.36125 0.11018 0.92356 0.0
H2555 H 0.35665 0.12603 0.90708 0.0
H2556 H 0.99755 0.31629 0.9636 0.0
H2557 H 0.98058 0.29643 0.94592 0.0
H2558 H 0.94789 0.29017 0.98102 0.0
H2559 H 0.96468 0.31014 0.99847 0.0
H2560 H 0.96404 0.26894 0.95497 0.0
H2561 H 0.93133 0.29046 0.93505 0.0
H2562 H 0.94827 0.30127 0.94466 0.0
H2563 H 0.93331 0.29076 0.95798 0.0
C2564 C 0.98672 0.31075 0.96744 0.0
C2565 C 0.98242 0.3148 0.98236 0.0
C2566 C 0.97705 0.29941 0.95736 0.0
C2567 C 0.96294 0.29198 0.962 0.0
C2568 C 0.95866 0.29598 0.97695 0.0
H2569 H 0.88871 0.21572 0.93168 0.0
H2570 H 0.90704 0.23688 0.94601 0.0
C2571 C 0.96829 0.30734 0.98698 0.0
C2572 C 0.95274 0.27967 0.95167 0.0
H2573 H 0.92163 0.26574 0.93076 0.0
C2574 C 0.95485 0.2683 0.9495 0.0
C2575 C 0.94077 0.27888 0.94451 0.0
C2576 C 0.93834 0.29105 0.9455 0.0
C2577 C 0.94506 0.25597 0.94086 0.0
C2578 C 0.93293 0.25505 0.93418 0.0
C2579 C 0.93093 0.26649 0.93604 0.0
C2580 C 0.92202 0.24218 0.92548 0.0
C2581 C 0.94751 0.24383 0.93934 0.0
C2582 C 0.92441 0.23826 0.90917 0.0
C2583 C 0.91391 0.22627 0.90084 0.0
C2584 C 0.90084 0.21798 0.90871 0.0
C2585 C 0.89856 0.22195 0.92514 0.0
C2586 C 0.90904 0.23399 0.9334 0.0
H2587 H 0.95633 0.24541 0.94746 0.0
H2588 H 0.93802 0.23389 0.94311 0.0
H2589 H 0.94988 0.24265 0.92573 0.0
H2590 H 0.93433 0.24459 0.90279 0.0
H2591 H 0.91594 0.22366 0.88809 0.0
H2592 H 0.69546 0.68076 0.97442 0.0
H2593 H 0.715 0.68195 0.95873 0.0
H2594 H 0.7034 0.64071 0.97667 0.0
H2595 H 0.68374 0.63942 0.99254 0.0
H2596 H 0.73711 0.67855 0.97482 0.0
H2597 H 0.70766 0.63986 0.92245 0.0
H2598 H 0.70043 0.64859 0.93467 0.0
H2599 H 0.70183 0.63475 0.94425 0.0
C2600 C 0.69698 0.67189 0.97496 0.0
C2601 C 0.68805 0.65998 0.9847 0.0
C2602 C 0.70817 0.67261 0.96601 0.0
C2603 C 0.71056 0.66139 0.96649 0.0
C2604 C 0.70161 0.64941 0.97604 0.0
H2605 H 0.77336 0.65005 0.91461 0.0
H2606 H 0.75342 0.6468 0.93156 0.0
C2607 C 0.69043 0.64871 0.98511 0.0
C2608 C 0.7227 0.66252 0.95735 0.0
H2609 H 0.73203 0.65027 0.92235 0.0
C2610 C 0.73604 0.67236 0.96337 0.0
C2611 C 0.72119 0.65435 0.94251 0.0
C2612 C 0.70703 0.64382 0.93544 0.0
C2613 C 0.74799 0.67426 0.95491 0.0
C2614 C 0.74651 0.66636 0.93977 0.0
C2615 C 0.73313 0.65635 0.93392 0.0
C2616 C 0.75869 0.66844 0.92968 0.0
C2617 C 0.76206 0.68457 0.96243 0.0
C2618 C 0.76817 0.68164 0.92283 0.0
C2619 C 0.77959 0.68354 0.91321 0.0
C2620 C 0.78161 0.6722 0.91004 0.0
C2621 C 0.772 0.65894 0.91672 0.0
C2622 C 0.76064 0.65709 0.92644 0.0
H2623 H 0.76133 0.68647 0.97638 0.0
H2624 H 0.76944 0.68077 0.96071 0.0
H2625 H 0.76638 0.69477 0.95578 0.0
H2626 H 0.76666 0.69046 0.92477 0.0
H2627 H 0.7867 0.69381 0.90799 0.0
H2628 H 0.98224 0.67971 0.97768 0.0
H2629 H 0.96357 0.68001 0.96221 0.0
H2630 H 0.93427 0.63856 0.98079 0.0
H2631 H 0.95298 0.63831 0.99674 0.0
H2632 H 0.94712 0.66257 0.93661 0.0
H2633 H 0.91489 0.66014 0.99275 0.0
H2634 H 0.93248 0.66384 0.99504 0.0
H2635 H 0.91848 0.64612 0.99138 0.0
C2636 C 0.97183 0.67065 0.97857 0.0
C2637 C 0.96908 0.65899 0.9885 0.0
C2638 C 0.96116 0.67084 0.96969 0.0
C2639 C 0.94749 0.65939 0.9705 0.0
C2640 C 0.94469 0.64764 0.98027 0.0
H2641 H 0.87347 0.64748 0.91743 0.0
H2642 H 0.88985 0.64373 0.93393 0.0
C2643 C 0.9554 0.64747 0.98929 0.0
C2644 C 0.93639 0.65981 0.9607 0.0
H2645 H 0.90603 0.65985 0.9651 0.0
C2646 C 0.93812 0.66194 0.94285 0.0
C2647 C 0.92465 0.65898 0.96885 0.0
C2648 C 0.92251 0.65726 0.98807 0.0
C2649 C 0.92851 0.66339 0.93296 0.0
C2650 C 0.91692 0.66279 0.94116 0.0
C2651 C 0.91496 0.66032 0.95891 0.0
C2652 C 0.90695 0.66512 0.93151 0.0
C2653 C 0.93082 0.66559 0.91382 0.0
C2654 C 0.91114 0.67843 0.92491 0.0
C2655 C 0.90183 0.68061 0.91553 0.0
C2656 C 0.88817 0.66949 0.91253 0.0
C2657 C 0.88397 0.6562 0.91935 0.0
C2658 C 0.89327 0.65406 0.92884 0.0
H2659 H 0.93851 0.66286 0.90896 0.0
H2660 H 0.9209 0.65918 0.90671 0.0
H2661 H 0.93482 0.67681 0.91094 0.0
H2662 H 0.92164 0.68712 0.92699 0.0
H2663 H 0.90539 0.69094 0.91035 0.0
H2664 H 0.32183 0.31669 0.96572 0.0
H2665 H 0.31665 0.29641 0.9472 0.0
H2666 H 0.34512 0.28967 0.97667 0.0
H2667 H 0.35043 0.30985 0.99508 0.0
H2668 H 0.3395 0.29147 0.9289 0.0
H2669 H 0.304 0.25172 0.97617 0.0
H2670 H 0.30693 0.26934 0.9757 0.0
H2671 H 0.31993 0.26632 0.98446 0.0
C2672 C 0.32702 0.31091 0.96818 0.0
C2673 C 0.33649 0.3148 0.98188 0.0
C2674 C 0.32406 0.29938 0.9576 0.0
C2675 C 0.33045 0.29156 0.96073 0.0
C2676 C 0.34005 0.29556 0.97419 0.0
H2677 H 0.33165 0.21859 0.92976 0.0
H2678 H 0.33275 0.23902 0.94365 0.0
C2679 C 0.34307 0.3071 0.98466 0.0
C2680 C 0.32708 0.27906 0.95017 0.0
H2681 H 0.31137 0.24343 0.95251 0.0
C2682 C 0.33318 0.28092 0.93386 0.0
C2683 C 0.31889 0.2654 0.95684 0.0
C2684 C 0.31195 0.26296 0.97421 0.0
C2685 C 0.33182 0.26943 0.92431 0.0
C2686 C 0.32392 0.25577 0.9312 0.0
C2687 C 0.31742 0.25391 0.94728 0.0
C2688 C 0.32305 0.24336 0.92256 0.0
C2689 C 0.3394 0.27209 0.90736 0.0
C2690 C 0.31709 0.23894 0.90616 0.0
C2691 C 0.31659 0.22734 0.89808 0.0
C2692 C 0.32196 0.21991 0.90633 0.0
C2693 C 0.32766 0.22423 0.92291 0.0
C2694 C 0.32819 0.23583 0.93093 0.0
H2695 H 0.34739 0.28337 0.90574 0.0
H2696 H 0.34454 0.26582 0.90624 0.0
H2697 H 0.33182 0.26891 0.89666 0.0
H2698 H 0.31283 0.24446 0.89961 0.0
H2699 H 0.31221 0.22434 0.88526 0.0
H2700 H 0.69114 0.01052 0.96879 0.0
H2701 H 0.71149 0.02716 0.952 0.0
H2702 H 0.71436 0.06156 0.98202 0.0
H2703 H 0.69413 0.04501 0.99896 0.0
H2704 H 0.71573 0.05026 0.93219 0.0
H2705 H 0.75343 0.06685 0.98609 0.0
H2706 H 0.73632 0.05131 0.98695 0.0
H2707 H 0.73851 0.06837 0.99066 0.0
C2708 C 0.69611 0.02163 0.97181 0.0
C2709 C 0.69111 0.02646 0.98527 0.0
C2710 C 0.70771 0.03111 0.9622 0.0
C2711 C 0.71454 0.04555 0.96596 0.0
C2712 C 0.70939 0.05043 0.97914 0.0
H2713 H 0.77391 0.11547 0.90418 0.0
H2714 H 0.75342 0.0978 0.91977 0.0
C2715 C 0.6978 0.04097 0.98874 0.0
C2716 C 0.72705 0.05554 0.95608 0.0
H2717 H 0.76157 0.08001 0.96035 0.0
C2718 C 0.72577 0.05673 0.93831 0.0
C2719 C 0.74016 0.06382 0.96408 0.0
C2720 C 0.74227 0.06247 0.98296 0.0
C2721 C 0.73722 0.06624 0.92838 0.0
C2722 C 0.75022 0.07488 0.9365 0.0
C2723 C 0.75156 0.07346 0.9542 0.0
C2724 C 0.76257 0.0855 0.9269 0.0
C2725 C 0.73536 0.06684 0.90925 0.0
C2726 C 0.77462 0.08462 0.92608 0.0
C2727 C 0.7864 0.09478 0.91734 0.0
C2728 C 0.78638 0.10609 0.90936 0.0
C2729 C 0.7743 0.10697 0.91031 0.0
C2730 C 0.76253 0.09679 0.91904 0.0
H2731 H 0.72596 0.05719 0.9044 0.0
H2732 H 0.73413 0.07594 0.90649 0.0
H2733 H 0.74458 0.06823 0.90204 0.0
H2734 H 0.77489 0.07604 0.9322 0.0
H2735 H 0.79559 0.0939 0.91704 0.0
H2736 H 0.6773 0.98634 0.04957 0.0
H2737 H 0.67809 0.96754 0.06444 0.0
H2738 H 0.64131 0.93668 0.03731 0.0
H2739 H 0.64049 0.95553 0.02213 0.0
H2740 H 0.65794 0.94654 0.08571 0.0
H2741 H 0.66974 0.92409 0.02806 0.0
H2742 H 0.67152 0.94122 0.02806 0.0
H2743 H 0.65459 0.92568 0.0266 0.0
C2744 C 0.66934 0.97556 0.04673 0.0
C2745 C 0.65886 0.97242 0.0346 0.0
C2746 C 0.66982 0.96483 0.05528 0.0
C2747 C 0.65986 0.95072 0.05184 0.0
C2748 C 0.64922 0.9475 0.03994 0.0
H2749 H 0.65043 0.88124 0.11436 0.0
H2750 H 0.64595 0.89736 0.09825 0.0
C2751 C 0.64873 0.95828 0.03135 0.0
C2752 C 0.66077 0.93952 0.06086 0.0
H2753 H 0.66737 0.91292 0.05458 0.0
C2754 C 0.65989 0.93911 0.07891 0.0
C2755 C 0.66349 0.92996 0.05194 0.0
C2756 C 0.66501 0.93026 0.03261 0.0
C2757 C 0.66175 0.92947 0.0883 0.0
C2758 C 0.66444 0.91991 0.07938 0.0
C2759 C 0.66523 0.92023 0.06134 0.0
C2760 C 0.66698 0.90986 0.08866 0.0
C2761 C 0.66125 0.92984 0.10771 0.0
C2762 C 0.68022 0.91143 0.08834 0.0
C2763 C 0.68282 0.90224 0.09751 0.0
C2764 C 0.67216 0.89122 0.10701 0.0
C2765 C 0.65883 0.88956 0.10706 0.0
C2766 C 0.65627 0.8988 0.09797 0.0
H2767 H 0.66159 0.93946 0.11267 0.0
H2768 H 0.65146 0.92057 0.11225 0.0
H2769 H 0.67008 0.92935 0.11331 0.0
H2770 H 0.68861 0.91988 0.08116 0.0
H2771 H 0.69314 0.9037 0.09705 0.0
H2772 H 0.00643 0.69105 0.05529 0.0
H2773 H 0.0227 0.71185 0.07224 0.0
H2774 H 0.05692 0.7156 0.0421 0.0
H2775 H 0.04077 0.69496 0.02502 0.0
H2776 H 0.04601 0.71689 0.09195 0.0
H2777 H 0.06101 0.75456 0.03833 0.0
H2778 H 0.04587 0.73708 0.03743 0.0
H2779 H 0.06288 0.73974 0.0334 0.0
C2780 C 0.01743 0.6963 0.0523 0.0
C2781 C 0.02233 0.69145 0.03875 0.0
C2782 C 0.02669 0.70816 0.06199 0.0
C2783 C 0.04096 0.71537 0.0582 0.0
C2784 C 0.0459 0.71034 0.04497 0.0
H2785 H 0.11192 0.77474 0.11767 0.0
H2786 H 0.09323 0.75413 0.10294 0.0
C2787 C 0.03667 0.6985 0.0353 0.0
C2788 C 0.05075 0.72814 0.06811 0.0
H2789 H 0.07492 0.76296 0.06367 0.0
C2790 C 0.05227 0.72699 0.08582 0.0
C2791 C 0.05872 0.74134 0.0601 0.0
C2792 C 0.05698 0.74334 0.0413 0.0
C2793 C 0.06193 0.73862 0.09565 0.0
C2794 C 0.07037 0.75166 0.08746 0.0
C2795 C 0.06851 0.75291 0.06987 0.0
C2796 C 0.08147 0.76405 0.09678 0.0
C2797 C 0.06299 0.73688 0.1147 0.0
C2798 C 0.0812 0.77654 0.09787 0.0
C2799 C 0.09196 0.7884 0.10612 0.0
C2800 C 0.10323 0.78799 0.11328 0.0
C2801 C 0.10346 0.77544 0.11214 0.0
C2802 C 0.0927 0.7636 0.10392 0.0
H2803 H 0.0534 0.72762 0.11976 0.0
H2804 H 0.07182 0.73525 0.11707 0.0
H2805 H 0.06492 0.74638 0.12203 0.0
H2806 H 0.07268 0.77712 0.09229 0.0
H2807 H 0.09157 0.79796 0.10662 0.0
H2808 H 0.32463 0.36761 0.03404 0.0
H2809 H 0.3059 0.36687 0.05148 0.0
H2810 H 0.28888 0.32261 0.05993 0.0
H2811 H 0.30777 0.32342 0.0432 0.0
H2812 H 0.27864 0.35291 0.04729 0.0
H2813 H 0.29013 0.33581 0.10824 0.0
H2814 H 0.30201 0.34168 0.09027 0.0
H2815 H 0.28762 0.32382 0.09101 0.0
C2816 C 0.31694 0.35777 0.03975 0.0
C2817 C 0.31774 0.34562 0.03743 0.0
C2818 C 0.30625 0.35735 0.04969 0.0
C2819 C 0.29616 0.34475 0.05736 0.0
C2820 C 0.29679 0.33255 0.05466 0.0
H2821 H 0.21371 0.32367 0.09008 0.0
H2822 H 0.23418 0.32709 0.07452 0.0
C2823 C 0.30755 0.33301 0.04498 0.0
C2824 C 0.28466 0.34415 0.06769 0.0
H2825 H 0.26737 0.33271 0.10587 0.0
C2826 C 0.27627 0.34865 0.06018 0.0
C2827 C 0.2817 0.33883 0.08464 0.0
C2828 C 0.29094 0.33491 0.09407 0.0
C2829 C 0.26474 0.34755 0.06893 0.0
C2830 C 0.26124 0.34134 0.08542 0.0
C2831 C 0.26989 0.33726 0.09312 0.0
C2832 C 0.2487 0.33901 0.09497 0.0
C2833 C 0.2566 0.35327 0.06048 0.0
C2834 C 0.2499 0.34397 0.11196 0.0
C2835 C 0.23814 0.3416 0.12115 0.0
C2836 C 0.22487 0.33432 0.11348 0.0
C2837 C 0.22369 0.32922 0.0965 0.0
C2838 C 0.23545 0.3314 0.08743 0.0
H2839 H 0.26311 0.3616 0.0511 0.0
H2840 H 0.24772 0.34466 0.05331 0.0
H2841 H 0.25249 0.35769 0.07014 0.0
H2842 H 0.25999 0.34972 0.11815 0.0
H2843 H 0.23946 0.3454 0.13432 0.0
H2844 H 0.71616 0.70186 0.36365 0.0
H2845 H 0.73408 0.70054 0.38005 0.0
H2846 H 0.7055 0.65639 0.38851 0.0
H2847 H 0.68749 0.65779 0.37286 0.0
H2848 H 0.71845 0.66845 0.41709 0.0
H2849 H 0.7576 0.68482 0.36488 0.0
H2850 H 0.75287 0.69768 0.36974 0.0
H2851 H 0.74007 0.6808 0.36105 0.0
C2852 C 0.71375 0.69189 0.369 0.0
C2853 C 0.70044 0.67993 0.36695 0.0
C2854 C 0.72402 0.69111 0.37825 0.0
C2855 C 0.72124 0.67829 0.38526 0.0
C2856 C 0.70793 0.66639 0.38322 0.0
H2857 H 0.78174 0.65731 0.4197 0.0
H2858 H 0.76452 0.6601 0.40405 0.0
C2859 C 0.69763 0.66721 0.37424 0.0
C2860 C 0.73197 0.6772 0.39513 0.0
H2861 H 0.7648 0.68254 0.39272 0.0
C2862 C 0.72858 0.67151 0.41173 0.0
C2863 C 0.74512 0.68099 0.38806 0.0
C2864 C 0.7491 0.68628 0.3699 0.0
C2865 C 0.7379 0.66945 0.42142 0.0
C2866 C 0.75123 0.67371 0.41461 0.0
C2867 C 0.75464 0.67941 0.39802 0.0
C2868 C 0.76167 0.67201 0.4243 0.0
C2869 C 0.73313 0.66231 0.43862 0.0
C2870 C 0.76592 0.67786 0.44085 0.0
C2871 C 0.7755 0.67598 0.45003 0.0
C2872 C 0.78134 0.66846 0.44272 0.0
C2873 C 0.77729 0.6629 0.42594 0.0
C2874 C 0.76754 0.66462 0.41687 0.0
H2875 H 0.7216 0.65593 0.43944 0.0
H2876 H 0.73734 0.65535 0.44103 0.0
H2877 H 0.73682 0.67041 0.449 0.0
H2878 H 0.76181 0.68391 0.44671 0.0
H2879 H 0.77821 0.6803 0.46296 0.0
H2880 H 0.32068 0.02708 0.36095 0.0
H2881 H 0.32574 0.04776 0.37814 0.0
H2882 H 0.3573 0.04478 0.40589 0.0
H2883 H 0.35219 0.02388 0.38878 0.0
H2884 H 0.33944 0.04953 0.42708 0.0
H2885 H 0.3605 0.08702 0.37306 0.0
H2886 H 0.34366 0.07198 0.36865 0.0
H2887 H 0.35828 0.06971 0.37178 0.0
C2888 C 0.3287 0.03081 0.3707 0.0
C2889 C 0.33611 0.02392 0.37345 0.0
C2890 C 0.33163 0.04267 0.38044 0.0
C2891 C 0.34206 0.04793 0.39304 0.0
C2892 C 0.34928 0.04092 0.3961 0.0
H2893 H 0.3713 0.13057 0.44007 0.0
H2894 H 0.3707 0.11033 0.42612 0.0
C2895 C 0.34636 0.02901 0.38634 0.0
C2896 C 0.34521 0.06066 0.4031 0.0
H2897 H 0.35452 0.09496 0.39866 0.0
C2898 C 0.34288 0.05952 0.42093 0.0
C2899 C 0.34993 0.07371 0.39506 0.0
C2900 C 0.35338 0.07576 0.37611 0.0
C2901 C 0.34456 0.07097 0.43084 0.0
C2902 C 0.34845 0.08378 0.42261 0.0
C2903 C 0.35138 0.08508 0.40491 0.0
C2904 C 0.34904 0.0958 0.43195 0.0
C2905 C 0.3421 0.06923 0.45001 0.0
C2906 C 0.33703 0.09435 0.43973 0.0
C2907 C 0.33735 0.10585 0.44777 0.0
C2908 C 0.34967 0.11907 0.44806 0.0
C2909 C 0.3617 0.12049 0.44026 0.0
C2910 C 0.36136 0.10897 0.43222 0.0
H2911 H 0.34337 0.06059 0.45493 0.0
H2912 H 0.34934 0.07907 0.45709 0.0
H2913 H 0.3313 0.06657 0.45286 0.0
H2914 H 0.32733 0.08435 0.43936 0.0
H2915 H 0.32795 0.10437 0.45381 0.0
H2916 H 0.98248 0.33021 0.38654 0.0
H2917 H 0.96175 0.31352 0.40278 0.0
H2918 H 0.95901 0.27926 0.37258 0.0
H2919 H 0.97961 0.29582 0.35626 0.0
H2920 H 0.93369 0.27924 0.37543 0.0
H2921 H 0.95861 0.28492 0.43907 0.0
H2922 H 0.96206 0.30098 0.42924 0.0
H2923 H 0.96846 0.29069 0.41929 0.0
C2924 C 0.9775 0.31911 0.38344 0.0
C2925 C 0.98267 0.31432 0.37014 0.0
C2926 C 0.96571 0.3096 0.39277 0.0
C2927 C 0.95894 0.29515 0.38897 0.0
C2928 C 0.96411 0.29036 0.37573 0.0
H2929 H 0.89726 0.22257 0.44406 0.0
H2930 H 0.91799 0.24093 0.42949 0.0
C2931 C 0.97589 0.29984 0.36645 0.0
C2932 C 0.9462 0.28499 0.39837 0.0
H2933 H 0.93414 0.27033 0.43778 0.0
C2934 C 0.93376 0.27731 0.38908 0.0
C2935 C 0.94639 0.28245 0.41612 0.0
C2936 C 0.9596 0.29009 0.42656 0.0
C2937 C 0.92146 0.26711 0.39707 0.0
C2938 C 0.92161 0.26464 0.41486 0.0
C2939 C 0.93406 0.27233 0.42417 0.0
C2940 C 0.90907 0.25372 0.42388 0.0
C2941 C 0.9085 0.25879 0.38635 0.0
C2942 C 0.89725 0.25492 0.42568 0.0
C2943 C 0.88536 0.24441 0.43393 0.0
C2944 C 0.88509 0.23252 0.44052 0.0
C2945 C 0.89704 0.23147 0.43886 0.0
C2946 C 0.90893 0.242 0.43068 0.0
H2947 H 0.91083 0.25989 0.37233 0.0
H2948 H 0.90309 0.24747 0.38962 0.0
H2949 H 0.90127 0.26262 0.38908 0.0
H2950 H 0.89722 0.26398 0.4207 0.0
H2951 H 0.8763 0.2455 0.43493 0.0
H2952 H 0.99961 0.35452 0.30307 0.0
H2953 H 0.99985 0.37356 0.28736 0.0
H2954 H 0.03312 0.404 0.31974 0.0
H2955 H 0.03317 0.38494 0.33529 0.0
H2956 H 0.99464 0.39333 0.29948 0.0
H2957 H 0.04802 0.41902 0.27225 0.0
H2958 H 0.03976 0.40185 0.28184 0.0
H2959 H 0.04734 0.41738 0.29525 0.0
C2960 C 0.00706 0.36527 0.30678 0.0
C2961 C 0.0164 0.36823 0.3204 0.0
C2962 C 0.00718 0.37614 0.29779 0.0
C2963 C 0.01661 0.39022 0.30221 0.0
C2964 C 0.02596 0.39323 0.31583 0.0
H2965 H 0.01927 0.46613 0.26717 0.0
H2966 H 0.0219 0.44905 0.28386 0.0
C2967 C 0.02592 0.38233 0.32478 0.0
C2968 C 0.01618 0.40162 0.29294 0.0
H2969 H 0.03542 0.43064 0.26814 0.0
C2970 C 0.00356 0.40147 0.29264 0.0
C2971 C 0.02783 0.41225 0.28398 0.0
C2972 C 0.04147 0.41261 0.28317 0.0
C2973 C 0.00228 0.41162 0.28361 0.0
C2974 C 0.0139 0.42219 0.27468 0.0
C2975 C 0.02656 0.4225 0.27511 0.0
C2976 C 0.01285 0.4327 0.26435 0.0
C2977 C 0.98852 0.41101 0.28354 0.0
C2978 C 0.00701 0.42914 0.24784 0.0
C2979 C 0.00561 0.43889 0.23819 0.0
C2980 C 0.00997 0.45238 0.24493 0.0
C2981 C 0.01595 0.45592 0.26148 0.0
C2982 C 0.01741 0.44617 0.27108 0.0
H2983 H 0.98086 0.40294 0.29243 0.0
H2984 H 0.99004 0.42141 0.28728 0.0
H2985 H 0.98414 0.40851 0.27031 0.0
H2986 H 0.00349 0.41879 0.24244 0.0
H2987 H 1.00119 0.43588 0.22539 0.0
H2988 H 0.66589 0.64818 0.3008 0.0
H2989 H 0.65005 0.62776 0.28297 0.0
H2990 H 0.61493 0.62824 0.30525 0.0
H2991 H 0.63062 0.64855 0.32316 0.0
H2992 H 0.6275 0.60104 0.29688 0.0
H2993 H 0.60911 0.62648 0.25166 0.0
H2994 H 0.62514 0.63623 0.26365 0.0
H2995 H 0.60877 0.63057 0.27409 0.0
C2996 C 0.6548 0.64401 0.30177 0.0
C2997 C 0.64948 0.64994 0.31336 0.0
C2998 C 0.64579 0.63236 0.29161 0.0
C2999 C 0.63136 0.62662 0.29272 0.0
C3000 C 0.62605 0.63266 0.30407 0.0
H3001 H 0.56039 0.54614 0.26774 0.0
H3002 H 0.57911 0.56752 0.28137 0.0
C3003 C 0.63502 0.64421 0.31433 0.0
C3004 C 0.62176 0.61385 0.28272 0.0
H3005 H 0.59658 0.60148 0.25179 0.0
C3006 C 0.62082 0.60113 0.28691 0.0
C3007 C 0.61315 0.61407 0.26967 0.0
C3008 C 0.61412 0.62758 0.26434 0.0
C3009 C 0.61114 0.58849 0.27874 0.0
C3010 C 0.60217 0.58863 0.26615 0.0
C3011 C 0.60343 0.60143 0.26155 0.0
C3012 C 0.59112 0.57554 0.25798 0.0
C3013 C 0.61049 0.57506 0.28367 0.0
C3014 C 0.59167 0.57309 0.24031 0.0
C3015 C 0.581 0.5609 0.2325 0.0
C3016 C 0.56954 0.55105 0.24222 0.0
C3017 C 0.56905 0.55357 0.25993 0.0
C3018 C 0.57976 0.56571 0.26774 0.0
H3019 H 0.62 0.57713 0.29065 0.0
H3020 H 0.60141 0.56894 0.29223 0.0
H3021 H 0.60915 0.5685 0.27208 0.0
H3022 H 0.60032 0.58063 0.23257 0.0
H3023 H 0.58157 0.55931 0.2188 0.0
H3024 H 0.35704 0.00574 0.30423 0.0
H3025 H 0.37512 0.00477 0.28763 0.0
H3026 H 0.37083 0.97131 0.31972 0.0
H3027 H 0.35239 0.97196 0.33614 0.0
H3028 H 0.39995 0.00969 0.2987 0.0
H3029 H 0.36943 0.9554 0.27215 0.0
H3030 H 0.36133 0.96415 0.28227 0.0
H3031 H 0.36885 0.9564 0.2952 0.0
C3032 C 0.35985 0.99808 0.30769 0.0
C3033 C 0.35327 0.98889 0.32147 0.0
C3034 C 0.3702 0.99755 0.29818 0.0
C3035 C 0.37422 0.98786 0.30228 0.0
C3036 C 0.36768 0.97866 0.31606 0.0
H3037 H 0.44258 0.97904 0.26339 0.0
H3038 H 0.42333 0.97745 0.28037 0.0
C3039 C 0.35721 0.9791 0.3255 0.0
C3040 C 0.38567 0.98789 0.29252 0.0
H3041 H 0.39384 0.96757 0.26741 0.0
C3042 C 0.39859 1.00048 0.29183 0.0
C3043 C 0.38389 0.97586 0.28357 0.0
C3044 C 0.3701 0.96222 0.28317 0.0
C3045 C 0.40975 0.00137 0.28245 0.0
C3046 C 0.40795 0.98937 0.27351 0.0
C3047 C 0.39514 0.97672 0.27434 0.0
C3048 C 0.41922 0.98991 0.26292 0.0
C3049 C 0.42346 0.0151 0.28221 0.0
C3050 C 0.42309 0.99728 0.2474 0.0
C3051 C 0.43396 0.99808 0.23755 0.0
C3052 C 0.4412 0.99155 0.24309 0.0
C3053 C 0.43714 0.98404 0.25861 0.0
C3054 C 0.4262 0.98317 0.26839 0.0
H3055 H 0.4239 0.02263 0.29214 0.0
H3056 H 0.4322 0.01329 0.28436 0.0
H3057 H 0.42496 0.01997 0.26938 0.0
H3058 H 0.41769 0.00241 0.24291 0.0
H3059 H 0.43661 0.00372 0.22553 0.0
H3060 H 0.64706 0.00509 0.3052 0.0
H3061 H 0.62791 0.00396 0.289 0.0
H3062 H 0.59867 0.96662 0.31631 0.0
H3063 H 0.61783 0.96772 0.33277 0.0
H3064 H 0.60803 0.98209 0.26761 0.0
H3065 H 0.58363 0.99353 0.3232 0.0
H3066 H 0.60109 0.99664 0.32398 0.0
H3067 H 0.58645 0.9791 0.32586 0.0
C3068 C 0.63656 0.99662 0.30779 0.0
C3069 C 0.63395 0.98653 0.32034 0.0
C3070 C 0.62564 0.99599 0.29849 0.0
C3071 C 0.61187 0.98531 0.30159 0.0
C3072 C 0.60921 0.97507 0.31392 0.0
H3073 H 0.54194 0.96818 0.23509 0.0
H3074 H 0.55906 0.96592 0.25195 0.0
C3075 C 0.62017 0.97568 0.32324 0.0
C3076 C 0.60039 0.98503 0.29188 0.0
H3077 H 0.57225 0.98902 0.29637 0.0
C3078 C 0.60015 0.98352 0.27389 0.0
C3079 C 0.59025 0.98707 0.30011 0.0
C3080 C 0.59035 0.98929 0.31934 0.0
C3081 C 0.59005 0.98405 0.26388 0.0
C3082 C 0.57983 0.98598 0.27212 0.0
C3083 C 0.58005 0.98744 0.29012 0.0
C3084 C 0.56921 0.98713 0.26222 0.0
C3085 C 0.59063 0.98297 0.24453 0.0
C3086 C 0.56905 0.9997 0.26273 0.0
C3087 C 0.55923 0.00099 0.25323 0.0
C3088 C 0.54931 0.9897 0.2431 0.0
C3089 C 0.54937 0.97704 0.24283 0.0
C3090 C 0.55923 0.97577 0.25233 0.0
H3091 H 0.60079 0.98457 0.24007 0.0
H3092 H 0.58235 0.97235 0.24022 0.0
H3093 H 0.58881 0.99081 0.23823 0.0
H3094 H 0.57662 0.00856 0.27038 0.0
H3095 H 0.55933 0.01081 0.25394 0.0
H3096 H 0.02442 0.64811 0.32898 0.0
H3097 H 0.02201 0.62919 0.31016 0.0
H3098 H 0.98846 0.6291 0.28317 0.0
H3099 H 0.99095 0.64828 0.30188 0.0
H3100 H 0.99851 0.60268 0.30666 0.0
H3101 H 0.01411 0.63045 0.24409 0.0
H3102 H 0.01765 0.63965 0.2645 0.0
H3103 H 1.00049 0.63127 0.25543 0.0
C3104 C 0.01659 0.64416 0.31896 0.0
C3105 C 0.00787 0.64968 0.31688 0.0
C3106 C 0.01523 0.63334 0.30823 0.0
C3107 C 0.00515 0.62784 0.2952 0.0
C3108 C 0.99646 0.63337 0.29298 0.0
H3109 H 0.97918 0.54694 0.24529 0.0
H3110 H 0.97928 0.56645 0.26053 0.0
C3111 C 0.99785 0.64427 0.30371 0.0
C3112 C 0.00345 0.6159 0.28452 0.0
H3113 H 0.00634 0.60617 0.24351 0.0
C3114 C 1.00016 0.60341 0.29284 0.0
C3115 C 0.00574 0.61696 0.26653 0.0
C3116 C 0.00981 0.63033 0.25706 0.0
C3117 C 0.99922 0.59197 0.28369 0.0
C3118 C 1.00137 0.59297 0.26568 0.0
C3119 C 0.00458 0.60542 0.25731 0.0
C3120 C 1.00098 0.58141 0.25546 0.0
C3121 C 0.99637 0.57908 0.29347 0.0
C3122 C 0.01303 0.5835 0.24711 0.0
C3123 C 0.01298 0.57243 0.23825 0.0
C3124 C 1.00085 0.55906 0.23753 0.0
C3125 C 0.98868 0.55712 0.24553 0.0
C3126 C 0.98874 0.56821 0.25438 0.0
H3127 H 0.99815 0.58124 0.30752 0.0
H3128 H 0.98535 0.5707 0.29155 0.0
H3129 H 0.00304 0.57504 0.2887 0.0
H3130 H 0.02256 0.59364 0.24773 0.0
H3131 H 0.02245 0.57434 0.23196 0.0
H3132 H 0.35763 0.34277 0.30237 0.0
H3133 H 0.37836 0.35902 0.28582 0.0
H3134 H 0.38116 0.39403 0.31433 0.0
H3135 H 0.36055 0.37791 0.33097 0.0
H3136 H 0.38326 0.3823 0.26522 0.0
H3137 H 0.41991 0.3985 0.32024 0.0
H3138 H 0.40271 0.38306 0.32071 0.0
H3139 H 0.405 0.40018 0.3242 0.0
C3140 C 0.36266 0.35394 0.30509 0.0
C3141 C 0.35754 0.35907 0.31804 0.0
C3142 C 0.37447 0.36319 0.29562 0.0
C3143 C 0.38139 0.37768 0.29906 0.0
C3144 C 0.37611 0.38285 0.31171 0.0
H3145 H 0.44183 0.44792 0.2393 0.0
H3146 H 0.4211 0.42991 0.25419 0.0
C3147 C 0.3643 0.37363 0.32115 0.0
C3148 C 0.39413 0.38746 0.28942 0.0
H3149 H 0.42862 0.41174 0.29459 0.0
C3150 C 0.3932 0.38869 0.27159 0.0
C3151 C 0.40711 0.39562 0.29777 0.0
C3152 C 0.40883 0.39422 0.31676 0.0
C3153 C 0.40486 0.39819 0.26195 0.0
C3154 C 0.41771 0.40676 0.27043 0.0
C3155 C 0.41872 0.40524 0.28817 0.0
C3156 C 0.43019 0.41753 0.26118 0.0
C3157 C 0.40336 0.39894 0.24277 0.0
C3158 C 0.44227 0.41669 0.26052 0.0
C3159 C 0.45417 0.42703 0.25215 0.0
C3160 C 0.45425 0.43848 0.24445 0.0
C3161 C 0.44215 0.43931 0.24524 0.0
C3162 C 0.43024 0.42895 0.25356 0.0
H3163 H 0.39403 0.38934 0.23768 0.0
H3164 H 0.40224 0.40808 0.23992 0.0
H3165 H 0.4127 0.40034 0.23584 0.0
H3166 H 0.44246 0.40801 0.26646 0.0
H3167 H 0.46338 0.42618 0.25192 0.0
H3168 H 0.30928 0.28928 0.35342 0.0
H3169 H 0.31051 0.27076 0.36887 0.0
H3170 H 0.34195 0.302 0.40244 0.0
H3171 H 0.34092 0.32054 0.38705 0.0
H3172 H 0.33896 0.27196 0.37461 0.0
H3173 H 0.30914 0.26946 0.43349 0.0
H3174 H 0.30631 0.27511 0.41298 0.0
H3175 H 0.32154 0.28658 0.42534 0.0
C3176 C 0.31636 0.29218 0.36418 0.0
C3177 C 0.32501 0.30636 0.36901 0.0
C3178 C 0.31707 0.28161 0.37295 0.0
C3179 C 0.32627 0.28506 0.3868 0.0
C3180 C 0.33472 0.29916 0.39184 0.0
H3181 H 0.3484 0.24226 0.46021 0.0
H3182 H 0.34463 0.25869 0.44391 0.0
C3183 C 0.33414 0.30972 0.383 0.0
C3184 C 0.32755 0.27407 0.39566 0.0
H3185 H 0.3207 0.25666 0.43369 0.0
C3186 C 0.33487 0.26847 0.38746 0.0
C3187 C 0.32233 0.26975 0.41246 0.0
C3188 C 0.31431 0.27543 0.42165 0.0
C3189 C 0.33743 0.25888 0.39584 0.0
C3190 C 0.33219 0.2545 0.41269 0.0
C3191 C 0.3247 0.26 0.42077 0.0
C3192 C 0.33461 0.24448 0.42235 0.0
C3193 C 0.34618 0.25397 0.38679 0.0
C3194 C 0.33016 0.23099 0.41573 0.0
C3195 C 0.33253 0.22164 0.42489 0.0
C3196 C 0.33922 0.22552 0.44101 0.0
C3197 C 0.34347 0.23899 0.4477 0.0
C3198 C 0.3412 0.24836 0.43847 0.0
H3199 H 0.35256 0.26121 0.37634 0.0
H3200 H 0.35324 0.25307 0.39597 0.0
H3201 H 0.33926 0.24347 0.3809 0.0
H3202 H 0.32479 0.22763 0.4035 0.0
H3203 H 0.3292 0.21141 0.41925 0.0
H3204 H 0.67021 0.02183 0.38755 0.0
H3205 H 0.68613 0.0432 0.40395 0.0
H3206 H 0.72078 0.04713 0.37466 0.0
H3207 H 0.70505 0.02594 0.35823 0.0
H3208 H 0.71 0.04908 0.424 0.0
H3209 H 0.72376 0.08566 0.36941 0.0
H3210 H 0.70873 0.0681 0.3691 0.0
H3211 H 0.72574 0.07087 0.36473 0.0
C3212 C 0.68123 0.02726 0.38463 0.0
C3213 C 0.68638 0.02227 0.37154 0.0
C3214 C 0.69028 0.03944 0.39399 0.0
C3215 C 0.70457 0.04685 0.39029 0.0
C3216 C 0.70975 0.04171 0.37747 0.0
H3217 H 0.77694 0.10659 0.44628 0.0
H3218 H 0.75749 0.08594 0.43256 0.0
C3219 C 0.70074 0.02955 0.36816 0.0
C3220 C 0.71422 0.05988 0.39987 0.0
H3221 H 0.73835 0.09456 0.39424 0.0
C3222 C 0.7161 0.05907 0.41757 0.0
C3223 C 0.722 0.07291 0.39147 0.0
C3224 C 0.71989 0.07452 0.37266 0.0
C3225 C 0.72602 0.07087 0.42694 0.0
C3226 C 0.73435 0.08372 0.41831 0.0
C3227 C 0.73204 0.08466 0.40079 0.0
C3228 C 0.74591 0.09616 0.42704 0.0
C3229 C 0.72757 0.06948 0.44597 0.0
C3230 C 0.74598 0.10884 0.42812 0.0
C3231 C 0.75716 0.12071 0.4358 0.0
C3232 C 0.76853 0.12014 0.44237 0.0
C3233 C 0.76841 0.10741 0.44119 0.0
C3234 C 0.75723 0.09555 0.43356 0.0
H3235 H 0.71804 0.06042 0.45147 0.0
H3236 H 0.73634 0.06771 0.44805 0.0
H3237 H 0.72984 0.07918 0.4531 0.0
H3238 H 0.7374 0.10954 0.42299 0.0
H3239 H 0.75702 0.1304 0.43636 0.0
H3240 H 0.97441 0.65498 0.37552 0.0
H3241 H 0.95421 0.65272 0.39062 0.0
H3242 H 0.96986 0.6969 0.38346 0.0
H3243 H 0.98985 0.69906 0.36759 0.0
H3244 H 0.95213 0.66383 0.4193 0.0
H3245 H 0.93087 0.68089 0.36709 0.0
H3246 H 0.94471 0.67735 0.36348 0.0
H3247 H 0.94841 0.69397 0.37253 0.0
C3248 C 0.97352 0.66421 0.37708 0.0
C3249 C 0.98367 0.67719 0.3703 0.0
C3250 C 0.96196 0.66291 0.38573 0.0
C3251 C 0.96035 0.67458 0.38795 0.0
C3252 C 0.97063 0.68764 0.38148 0.0
H3253 H 0.9043 0.67619 0.46494 0.0
H3254 H 0.92438 0.6792 0.44887 0.0
C3255 C 0.98212 0.6889 0.37254 0.0
C3256 C 0.9481 0.67303 0.3975 0.0
H3257 H 0.92081 0.67848 0.39487 0.0
C3258 C 0.94525 0.66699 0.41391 0.0
C3259 C 0.93897 0.67691 0.39037 0.0
C3260 C 0.94079 0.6825 0.37233 0.0
C3261 C 0.93362 0.66478 0.42342 0.0
C3262 C 0.92484 0.66925 0.41663 0.0
C3263 C 0.92762 0.6752 0.40017 0.0
C3264 C 0.91264 0.6677 0.42628 0.0
C3265 C 0.93067 0.65732 0.44042 0.0
C3266 C 0.89939 0.66072 0.41871 0.0
C3267 C 0.88789 0.65936 0.42767 0.0
C3268 C 0.88939 0.66489 0.44447 0.0
C3269 C 0.90272 0.67192 0.45198 0.0
C3270 C 0.91422 0.67346 0.4429 0.0
H3271 H 0.93549 0.65073 0.44104 0.0
H3272 H 0.93516 0.66523 0.451 0.0
H3273 H 0.91932 0.65051 0.44269 0.0
H3274 H 0.89792 0.65628 0.40584 0.0
H3275 H 0.87788 0.65413 0.42131 0.0
H3276 H 0.35735 0.99632 0.71159 0.0
H3277 H 0.37612 0.9971 0.7282 0.0
H3278 H 0.40473 0.03848 0.7089 0.0
H3279 H 0.38596 0.03766 0.69186 0.0
H3280 H 0.41555 0.02121 0.7077 0.0
H3281 H 0.39322 0.01889 0.77228 0.0
H3282 H 0.3814 0.00472 0.75845 0.0
H3283 H 0.38667 0.02252 0.75309 0.0
C3284 C 0.36761 0.00563 0.71091 0.0
C3285 C 0.37015 0.01697 0.70048 0.0
C3286 C 0.37832 0.00609 0.72052 0.0
C3287 C 0.39176 0.01797 0.72009 0.0
C3288 C 0.3944 0.02926 0.70953 0.0
H3289 H 0.4682 0.03543 0.77206 0.0
H3290 H 0.45085 0.03758 0.7555 0.0
C3291 C 0.38367 0.02878 0.69982 0.0
C3292 C 0.4031 0.01832 0.73027 0.0
H3293 H 0.41183 0.01422 0.77093 0.0
C3294 C 0.41482 0.01986 0.72155 0.0
C3295 C 0.40215 0.01658 0.74836 0.0
C3296 C 0.39025 0.01573 0.75862 0.0
C3297 C 0.42538 0.0192 0.73036 0.0
C3298 C 0.42419 0.01704 0.74833 0.0
C3299 C 0.41263 0.01578 0.75711 0.0
C3300 C 0.43473 0.01578 0.75823 0.0
C3301 C 0.43753 0.0204 0.72036 0.0
C3302 C 0.43132 0.00286 0.76541 0.0
C3303 C 0.44118 0.0016 0.77486 0.0
C3304 C 0.4546 0.01329 0.77747 0.0
C3305 C 0.45793 0.02626 0.77038 0.0
C3306 C 0.44808 0.02749 0.76081 0.0
H3307 H 0.43579 0.01975 0.70623 0.0
H3308 H 0.447 0.03065 0.7234 0.0
H3309 H 0.43955 0.01198 0.72411 0.0
H3310 H 0.42103 0.99374 0.76363 0.0
H3311 H 0.43826 0.99152 0.78034 0.0
H3312 H 0.01447 0.35747 0.7182 0.0
H3313 H 0.01672 0.37688 0.73622 0.0
H3314 H 0.98311 0.376 0.70838 0.0
H3315 H 0.98093 0.35683 0.69022 0.0
H3316 H 0.00641 0.40276 0.71184 0.0
H3317 H 0.99054 0.37538 0.77465 0.0
H3318 H 0.00436 0.37466 0.76372 0.0
H3319 H 0.98729 0.36607 0.75436 0.0
C3320 C 0.00752 0.36138 0.71601 0.0
C3321 C 0.99752 0.35564 0.70282 0.0
C3322 C 0.00876 0.3724 0.72635 0.0
C3323 C 0.99998 0.37776 0.72373 0.0
C3324 C 0.98997 0.37199 0.71062 0.0
H3325 H 0.98217 0.43136 0.78622 0.0
H3326 H 0.98203 0.41209 0.77032 0.0
C3327 C 0.98873 0.36102 0.70028 0.0
C3328 C 1.00144 0.38971 0.73416 0.0
H3329 H 0.99826 0.39965 0.77493 0.0
C3330 C 0.00468 0.40211 0.72565 0.0
C3331 C 0.99904 0.38875 0.75213 0.0
C3332 C 0.995 0.37547 0.76179 0.0
C3333 C 0.00551 0.41358 0.73461 0.0
C3334 C 0.00327 0.41269 0.75261 0.0
C3335 C 1.00008 0.40031 0.76115 0.0
C3336 C 0.00362 0.42431 0.76266 0.0
C3337 C 0.00837 0.4264 0.72465 0.0
C3338 C 0.01587 0.43749 0.76379 0.0
C3339 C 0.01596 0.44856 0.77272 0.0
C3340 C 0.00381 0.44661 0.78077 0.0
C3341 C 0.99164 0.43328 0.77991 0.0
C3342 C 0.99156 0.42223 0.77097 0.0
H3343 H 0.00665 0.42415 0.71061 0.0
H3344 H 1.00165 0.43044 0.72926 0.0
H3345 H 0.01937 0.43481 0.7266 0.0
H3346 H 0.02535 0.43924 0.75766 0.0
H3347 H 0.02548 0.45871 0.77306 0.0
H3348 H 0.64297 0.62725 0.68731 0.0
H3349 H 0.62275 0.61103 0.70441 0.0
H3350 H 0.62936 0.64521 0.73804 0.0
H3351 H 0.64942 0.6616 0.72066 0.0
H3352 H 0.6205 0.60393 0.73797 0.0
H3353 H 0.58892 0.6284 0.72523 0.0
H3354 H 0.60455 0.63296 0.71333 0.0
H3355 H 0.60564 0.64024 0.7345 0.0
C3356 C 0.64011 0.63133 0.69833 0.0
C3357 C 0.6477 0.64571 0.70257 0.0
C3358 C 0.62856 0.62204 0.7081 0.0
C3359 C 0.62438 0.62694 0.72232 0.0
C3360 C 0.63217 0.64126 0.72686 0.0
H3361 H 0.55826 0.58126 0.79737 0.0
H3362 H 0.57916 0.59902 0.78244 0.0
C3363 C 0.64368 0.65059 0.71699 0.0
C3364 C 0.61196 0.61697 0.73241 0.0
H3365 H 0.57977 0.60987 0.74539 0.0
C3366 C 0.6116 0.60523 0.73957 0.0
C3367 C 0.60032 0.61867 0.73446 0.0
C3368 C 0.59977 0.63067 0.72635 0.0
C3369 C 0.59995 0.59516 0.74873 0.0
C3370 C 0.58837 0.59688 0.75074 0.0
C3371 C 0.58874 0.60867 0.74382 0.0
C3372 C 0.5756 0.58627 0.75959 0.0
C3373 C 0.60005 0.58275 0.75625 0.0
C3374 C 0.56664 0.57334 0.75152 0.0
C3375 C 0.55459 0.56325 0.75987 0.0
C3376 C 0.55131 0.56588 0.77651 0.0
C3377 C 0.56033 0.57894 0.78448 0.0
C3378 C 0.57233 0.58907 0.77604 0.0
H3379 H 0.61056 0.58405 0.75587 0.0
H3380 H 0.59635 0.58115 0.76981 0.0
H3381 H 0.59282 0.57312 0.74882 0.0
H3382 H 0.56896 0.57109 0.73872 0.0
H3383 H 0.54779 0.55343 0.75321 0.0
H3384 H 0.66226 0.68481 0.6355 0.0
H3385 H 0.66157 0.70351 0.62015 0.0
H3386 H 0.69629 0.73464 0.65009 0.0
H3387 H 0.69707 0.7159 0.66562 0.0
H3388 H 0.67271 0.73859 0.64801 0.0
H3389 H 0.68969 0.73041 0.58379 0.0
H3390 H 0.67585 0.71472 0.59333 0.0
H3391 H 0.69269 0.72374 0.60336 0.0
C3392 C 0.66983 0.69563 0.63877 0.0
C3393 C 0.67974 0.69889 0.65176 0.0
C3394 C 0.66945 0.7063 0.62992 0.0
C3395 C 0.67898 0.72044 0.63385 0.0
C3396 C 0.6889 0.72377 0.64681 0.0
H3397 H 0.68807 0.79051 0.57343 0.0
H3398 H 0.69254 0.77443 0.58963 0.0
C3399 C 0.68935 0.71307 0.65564 0.0
C3400 C 0.67814 0.73165 0.6248 0.0
H3401 H 0.6797 0.7449 0.58486 0.0
C3402 C 0.67436 0.74007 0.63424 0.0
C3403 C 0.6804 0.73362 0.60685 0.0
C3404 C 0.68501 0.72524 0.59622 0.0
C3405 C 0.67235 0.75013 0.62609 0.0
C3406 C 0.67405 0.75168 0.60803 0.0
C3407 C 0.67827 0.74358 0.59869 0.0
C3408 C 0.67135 0.76155 0.59855 0.0
C3409 C 0.66844 0.75901 0.63685 0.0
C3410 C 0.65792 0.75953 0.59807 0.0
C3411 C 0.65533 0.7687 0.58884 0.0
C3412 C 0.66614 0.78006 0.57992 0.0
C3413 C 0.67957 0.78198 0.58037 0.0
C3414 C 0.68213 0.77278 0.58953 0.0
H3415 H 0.6709 0.75901 0.65068 0.0
H3416 H 0.67391 0.77002 0.63228 0.0
H3417 H 0.65708 0.75471 0.63571 0.0
H3418 H 0.64941 0.75079 0.60472 0.0
H3419 H 0.6449 0.76697 0.58883 0.0
H3420 H 0.33447 0.98188 0.63489 0.0
H3421 H 0.31853 0.96113 0.61754 0.0
H3422 H 0.28349 0.96129 0.64065 0.0
H3423 H 0.29926 0.98188 0.65804 0.0
H3424 H 0.2963 0.93433 0.63183 0.0
H3425 H 0.27691 0.95923 0.58726 0.0
H3426 H 0.29308 0.96915 0.59893 0.0
H3427 H 0.27682 0.96344 0.60969 0.0
C3428 C 0.32338 0.97755 0.63615 0.0
C3429 C 0.31811 0.98349 0.6478 0.0
C3430 C 0.3143 0.96572 0.62627 0.0
C3431 C 0.29987 0.95981 0.62774 0.0
C3432 C 0.29461 0.96583 0.63919 0.0
H3433 H 0.22853 0.87907 0.60524 0.0
H3434 H 0.24776 0.90046 0.6182 0.0
C3435 C 0.30364 0.97756 0.64916 0.0
C3436 C 0.29019 0.94696 0.61792 0.0
H3437 H 0.26431 0.93422 0.5879 0.0
C3438 C 0.2894 0.9343 0.62209 0.0
C3439 C 0.28129 0.94702 0.60517 0.0
C3440 C 0.28209 0.96044 0.59984 0.0
C3441 C 0.27955 0.92156 0.61425 0.0
C3442 C 0.27026 0.92155 0.60202 0.0
C3443 C 0.2714 0.93428 0.59738 0.0
C3444 C 0.25898 0.90837 0.59427 0.0
C3445 C 0.27906 0.90821 0.61916 0.0
C3446 C 0.2589 0.90584 0.57652 0.0
C3447 C 0.24795 0.89364 0.56909 0.0
C3448 C 0.23681 0.88387 0.57928 0.0
C3449 C 0.23694 0.88644 0.59707 0.0
C3450 C 0.24795 0.89859 0.6045 0.0
H3451 H 0.2888 0.91038 0.62559 0.0
H3452 H 0.27029 0.90225 0.62821 0.0
H3453 H 0.2773 0.90145 0.60764 0.0
H3454 H 0.26729 0.91334 0.56842 0.0
H3455 H 0.24803 0.89203 0.55531 0.0
H3456 H 0.02043 0.30869 0.66347 0.0
H3457 H 0.04076 0.31078 0.64852 0.0
H3458 H 0.04598 0.34679 0.62122 0.0
H3459 H 0.02589 0.34493 0.63625 0.0
H3460 H 0.04572 0.30986 0.61368 0.0
H3461 H 0.08436 0.36146 0.64207 0.0
H3462 H 0.06698 0.35091 0.65055 0.0
H3463 H 0.07009 0.36157 0.63189 0.0
C3464 C 0.02592 0.31705 0.65429 0.0
C3465 C 0.02162 0.32671 0.65113 0.0
C3466 C 0.03752 0.31823 0.64577 0.0
C3467 C 0.04502 0.3291 0.63402 0.0
C3468 C 0.04054 0.33853 0.63055 0.0
H3469 H 0.10259 0.33543 0.55479 0.0
H3470 H 0.08258 0.33224 0.57148 0.0
C3471 C 0.029 0.33739 0.63908 0.0
C3472 C 0.05743 0.33051 0.62515 0.0
H3473 H 0.09199 0.35346 0.61811 0.0
C3474 C 0.05586 0.31935 0.61472 0.0
C3475 C 0.07069 0.34282 0.62675 0.0
C3476 C 0.0732 0.35482 0.63855 0.0
C3477 C 0.06713 0.32032 0.60545 0.0
C3478 C 0.08023 0.33289 0.60641 0.0
C3479 C 0.08189 0.34389 0.61722 0.0
C3480 C 0.09236 0.33487 0.59628 0.0
C3481 C 0.06492 0.30783 0.59486 0.0
C3482 C 0.10465 0.33783 0.60466 0.0
C3483 C 0.11613 0.33974 0.59515 0.0
C3484 C 0.11553 0.33876 0.57707 0.0
C3485 C 0.10327 0.336 0.56871 0.0
C3486 C 0.09183 0.33415 0.57823 0.0
H3487 H 0.05566 0.29793 0.59929 0.0
H3488 H 0.06318 0.30937 0.58122 0.0
H3489 H 0.07415 0.30662 0.59543 0.0
H3490 H 0.1053 0.33851 0.61859 0.0
H3491 H 0.12538 0.34174 0.60197 0.0
H3492 H 0.31826 0.34284 0.63861 0.0
H3493 H 0.29991 0.34391 0.62324 0.0
H3494 H 0.26882 0.30774 0.65083 0.0
H3495 H 0.2872 0.30641 0.6661 0.0
H3496 H 0.26288 0.30644 0.61621 0.0
H3497 H 0.27587 0.35812 0.6438 0.0
H3498 H 0.29042 0.35847 0.63346 0.0
H3499 H 0.28284 0.34793 0.65231 0.0
C3500 C 0.30752 0.33508 0.64141 0.0
C3501 C 0.30417 0.32459 0.65367 0.0
C3502 C 0.29704 0.33577 0.63268 0.0
C3503 C 0.283 0.3261 0.63616 0.0
C3504 C 0.2796 0.31537 0.64805 0.0
H3505 H 0.21575 0.33864 0.60384 0.0
H3506 H 0.23221 0.33523 0.62056 0.0
C3507 C 0.2901 0.31463 0.65676 0.0
C3508 C 0.27192 0.32721 0.6273 0.0
H3509 H 0.26033 0.34977 0.61986 0.0
C3510 C 0.26225 0.31587 0.61709 0.0
C3511 C 0.27097 0.33943 0.62869 0.0
C3512 C 0.28048 0.35162 0.64029 0.0
C3513 C 0.25191 0.31659 0.60784 0.0
C3514 C 0.2514 0.32908 0.60855 0.0
C3515 C 0.26083 0.34026 0.61915 0.0
C3516 C 0.24125 0.33085 0.59837 0.0
C3517 C 0.24153 0.30389 0.59754 0.0
C3518 C 0.24098 0.3297 0.58033 0.0
C3519 C 0.23158 0.33163 0.57076 0.0
C3520 C 0.22237 0.33492 0.57903 0.0
C3521 C 0.22278 0.33623 0.59709 0.0
C3522 C 0.23213 0.33422 0.60665 0.0
H3523 H 0.24072 0.2941 0.60232 0.0
H3524 H 0.23105 0.30265 0.59798 0.0
H3525 H 0.24496 0.30517 0.5839 0.0
H3526 H 0.24817 0.3275 0.57362 0.0
H3527 H 0.23169 0.3308 0.55686 0.0
H3528 H 0.68433 0.97817 0.658 0.0
H3529 H 0.67883 0.95764 0.64014 0.0
H3530 H 0.6457 0.96006 0.61575 0.0
H3531 H 0.65117 0.98076 0.63358 0.0
H3532 H 0.64319 0.93101 0.63476 0.0
H3533 H 0.68008 0.95865 0.58087 0.0
H3534 H 0.68519 0.9652 0.60261 0.0
H3535 H 0.67154 0.96639 0.59244 0.0
C3536 C 0.67591 0.9744 0.6488 0.0
C3537 C 0.66816 0.98106 0.64719 0.0
C3538 C 0.67279 0.96268 0.63863 0.0
C3539 C 0.66189 0.95742 0.6267 0.0
C3540 C 0.65417 0.96405 0.62492 0.0
H3541 H 0.64553 0.8904 0.55273 0.0
H3542 H 0.64594 0.91052 0.5668 0.0
C3543 C 0.65731 0.97584 0.63508 0.0
C3544 C 0.65851 0.94477 0.61646 0.0
H3545 H 0.66906 0.93391 0.5813 0.0
C3546 C 0.64868 0.93159 0.62295 0.0
C3547 C 0.66568 0.94567 0.60108 0.0
C3548 C 0.67621 0.95971 0.59369 0.0
C3549 C 0.64615 0.91917 0.61465 0.0
C3550 C 0.65382 0.92005 0.59967 0.0
C3551 C 0.66324 0.93327 0.59283 0.0
C3552 C 0.65278 0.90743 0.59144 0.0
C3553 C 0.63538 0.90524 0.62207 0.0
C3554 C 0.65656 0.89909 0.60063 0.0
C3555 C 0.65629 0.88758 0.59267 0.0
C3556 C 0.65231 0.88424 0.57533 0.0
C3557 C 0.64846 0.89258 0.56617 0.0
C3558 C 0.64876 0.90412 0.57415 0.0
H3559 H 0.62771 0.90626 0.63015 0.0
H3560 H 0.62972 0.89734 0.61172 0.0
H3561 H 0.64062 0.90126 0.63035 0.0
H3562 H 0.65996 0.90162 0.61389 0.0
H3563 H 0.65921 0.8813 0.60011 0.0
H3564 H 0.02565 0.70857 0.66423 0.0
H3565 H 0.04637 0.72463 0.64781 0.0
H3566 H 0.04344 0.68961 0.61917 0.0
H3567 H 0.02254 0.67339 0.63552 0.0
H3568 H 0.0715 0.72436 0.64592 0.0
H3569 H 0.04715 0.71757 0.5816 0.0
H3570 H 0.03712 0.71222 0.60127 0.0
H3571 H 0.0436 0.70171 0.59212 0.0
C3572 C 0.02934 0.70426 0.65437 0.0
C3573 C 0.02245 0.68971 0.65114 0.0
C3574 C 0.0412 0.71346 0.64502 0.0
C3575 C 0.04636 0.70832 0.6322 0.0
C3576 C 0.03949 0.6938 0.62885 0.0
H3577 H 0.12946 0.75828 0.58716 0.0
H3578 H 0.10853 0.7396 0.60114 0.0
C3579 C 0.0276 0.68455 0.63824 0.0
C3580 C 0.05919 0.71823 0.62279 0.0
H3581 H 0.07155 0.73244 0.58324 0.0
C3582 C 0.07155 0.72609 0.6322 0.0
C3583 C 0.05915 0.72051 0.60492 0.0
C3584 C 0.04605 0.71266 0.59434 0.0
C3585 C 0.08388 0.73626 0.62425 0.0
C3586 C 0.08386 0.73851 0.60637 0.0
C3587 C 0.07153 0.7306 0.59692 0.0
C3588 C 0.0964 0.7495 0.59744 0.0
C3589 C 0.09672 0.74482 0.6351 0.0
C3590 C 0.09639 0.76109 0.59045 0.0
C3591 C 0.10829 0.77173 0.58242 0.0
C3592 C 0.1204 0.77094 0.58112 0.0
C3593 C 0.12029 0.75918 0.5879 0.0
C3594 C 0.10838 0.74855 0.59599 0.0
H3595 H 0.09428 0.74377 0.64909 0.0
H3596 H 0.10413 0.74116 0.63262 0.0
H3597 H 0.10198 0.75611 0.63171 0.0
H3598 H 0.08721 0.76197 0.59138 0.0
H3599 H 0.10796 0.78053 0.57707 0.0
H3600 H 0.96966 0.62021 0.68845 0.0
H3601 H 0.96884 0.60101 0.70481 0.0
H3602 H 0.00462 0.63107 0.73414 0.0
H3603 H 0.00549 0.65025 0.718 0.0
H3604 H 0.99031 0.59453 0.70743 0.0
H3605 H 0.97616 0.60661 0.77129 0.0
H3606 H 0.97396 0.61361 0.7515 0.0
H3607 H 0.99082 0.62137 0.76136 0.0
C3608 C 0.97728 0.62272 0.69848 0.0
C3609 C 0.98761 0.63675 0.70196 0.0
C3610 C 0.97681 0.61175 0.70778 0.0
C3611 C 0.98656 0.61464 0.72083 0.0
C3612 C 0.99685 0.62863 0.72434 0.0
H3613 H 0.01506 0.56388 0.76735 0.0
H3614 H 0.0119 0.58069 0.75086 0.0
C3615 C 0.99737 0.63957 0.71502 0.0
C3616 C 0.98639 0.60307 0.73038 0.0
H3617 H 0.98426 0.59045 0.77086 0.0
C3618 C 0.98886 0.59355 0.72127 0.0
C3619 C 0.98436 0.60174 0.74841 0.0
C3620 C 0.98105 0.61129 0.75873 0.0
C3621 C 0.98984 0.583 0.72982 0.0
C3622 C 0.98843 0.58207 0.74794 0.0
C3623 C 0.98547 0.59128 0.75698 0.0
C3624 C 0.99026 0.57179 0.75781 0.0
C3625 C 0.99236 0.57294 0.71939 0.0
C3626 C 0.97922 0.56139 0.76747 0.0
C3627 C 0.98101 0.55181 0.77699 0.0
C3628 C 0.99393 0.55256 0.77716 0.0
C3629 C 0.00501 0.56309 0.76758 0.0
C3630 C 0.00318 0.57261 0.75801 0.0
H3631 H 0.98968 0.57274 0.70561 0.0
H3632 H 0.00354 0.57631 0.72015 0.0
H3633 H 0.98621 0.56212 0.72452 0.0
H3634 H 0.9692 0.56066 0.7676 0.0
H3635 H 0.97233 0.54394 0.78441 0.0
H3636 H 0.3389 0.35774 0.71987 0.0
H3637 H 0.35476 0.37829 0.73755 0.0
H3638 H 0.3899 0.37803 0.71496 0.0
H3639 H 0.37421 0.35761 0.69724 0.0
H3640 H 0.38971 0.3811 0.7532 0.0
H3641 H 0.38107 0.41866 0.71622 0.0
H3642 H 0.36595 0.40272 0.72338 0.0
H3643 H 0.37714 0.40186 0.7074 0.0
C3644 C 0.35001 0.36203 0.71875 0.0
C3645 C 0.35533 0.35612 0.70713 0.0
C3646 C 0.35903 0.37377 0.7288 0.0
C3647 C 0.37347 0.37969 0.72741 0.0
C3648 C 0.37877 0.37359 0.71616 0.0
H3649 H 0.44551 0.45857 0.75449 0.0
H3650 H 0.42682 0.43729 0.74066 0.0
C3651 C 0.36979 0.36195 0.70604 0.0
C3652 C 0.38316 0.39244 0.73739 0.0
H3653 H 0.39685 0.42793 0.73937 0.0
C3654 C 0.39121 0.39133 0.75033 0.0
C3655 C 0.38513 0.40574 0.73341 0.0
C3656 C 0.37696 0.40745 0.71929 0.0
C3657 C 0.40129 0.40326 0.75935 0.0
C3658 C 0.4033 0.41658 0.75531 0.0
C3659 C 0.39519 0.41766 0.74246 0.0
C3660 C 0.41429 0.42958 0.76371 0.0
C3661 C 0.41002 0.40165 0.77277 0.0
C3662 C 0.4133 0.43233 0.78118 0.0
C3663 C 0.42394 0.44447 0.78911 0.0
C3664 C 0.43577 0.45403 0.77969 0.0
C3665 C 0.43661 0.45132 0.76212 0.0
C3666 C 0.42593 0.43923 0.75418 0.0
H3667 H 0.40868 0.391 0.77243 0.0
H3668 H 0.4212 0.40957 0.77089 0.0
H3669 H 0.40697 0.40345 0.78575 0.0
H3670 H 0.40433 0.42504 0.78868 0.0
H3671 H 0.42306 0.44623 0.80269 0.0
H3672 H 0.65709 0.03612 0.69233 0.0
H3673 H 0.63913 0.03703 0.70959 0.0
H3674 H 0.62586 0.99587 0.7294 0.0
H3675 H 0.64389 0.99502 0.71259 0.0
H3676 H 0.61094 0.01971 0.70845 0.0
H3677 H 0.63016 0.01776 0.77321 0.0
H3678 H 0.64062 0.0213 0.75405 0.0
H3679 H 0.62778 0.00352 0.75956 0.0
C3680 C 0.65041 0.02733 0.70048 0.0
C3681 C 0.65197 0.01554 0.70119 0.0
C3682 C 0.64016 0.02785 0.71031 0.0
C3683 C 0.63132 0.01663 0.72103 0.0
C3684 C 0.63279 0.00481 0.72159 0.0
H3685 H 0.55664 0.98996 0.77997 0.0
H3686 H 0.57634 0.99212 0.76337 0.0
C3687 C 0.64306 0.00431 0.71188 0.0
C3688 C 0.62019 0.01695 0.73113 0.0
H3689 H 0.60673 0.01289 0.7717 0.0
C3690 C 0.61011 0.01839 0.7223 0.0
C3691 C 0.61915 0.01526 0.74922 0.0
C3692 C 0.63009 0.01452 0.75959 0.0
C3693 C 0.59875 0.01771 0.73102 0.0
C3694 C 0.59751 0.01559 0.74899 0.0
C3695 C 0.6077 0.01441 0.75788 0.0
C3696 C 0.58557 0.01435 0.75878 0.0
C3697 C 0.58793 0.01888 0.72095 0.0
C3698 C 0.58435 0.02617 0.76173 0.0
C3699 C 0.57315 0.02498 0.77123 0.0
C3700 C 0.56297 0.01193 0.77787 0.0
C3701 C 0.56424 1.00011 0.77485 0.0
C3702 C 0.5755 0.00133 0.76546 0.0
H3703 H 0.58937 0.01851 0.70682 0.0
H3704 H 0.57734 0.01026 0.72444 0.0
H3705 H 0.58861 0.02898 0.72425 0.0
H3706 H 0.5921 0.03632 0.75675 0.0
H3707 H 0.57238 0.03425 0.77324 0.0
loop_
_geom_bond_atom_site_label_1
_geom_bond_atom_site_label_2
_geom_bond_distance
_geom_bond_site_symmetry_2
_ccdc_geom_bond_type
Co0 O1 2.216 . S
Co0 O2 2.091 . S
Co0 O4 2.004 1_554 S
Co0 O10 2.021 . S
Co0 O12 2.137 1_454 S
Co0 O13 2.244 1_455 S
O1 Co0 2.216 . S
O1 C8 1.247 . S
O2 Co0 2.091 . S
O2 C8 1.261 . S
C3 O12 1.247 . S
C3 O13 1.272 1_556 S
O4 Co0 2.004 1_556 S
O4 C9 1.259 . S
Co5 O6 2.061 1_554 S
Co5 O11 2.052 . S
Co5 O13 2.135 . S
O6 Co5 2.061 1_556 S
O6 C9 1.235 1_655 S
C7 O10 1.238 1_655 S
C7 O11 1.241 . S
C8 O1 1.247 . S
C8 O2 1.261 . S
C9 O4 1.259 . S
C9 O6 1.235 1_455 S
O10 Co0 2.021 . S
O10 C7 1.238 1_455 S
O11 Co5 2.052 . S
O11 C7 1.241 . S
O12 Co0 2.137 1_656 S
O12 C3 1.247 . S
O13 Co0 2.244 1_655 S
O13 C3 1.272 1_554 S
O13 Co5 2.135 . S
Co14 O15 2.216 1_554 S
Co14 O16 2.091 . S
Co14 O18 2.004 . S
Co14 O24 2.021 1_554 S
Co14 O26 2.137 . S
Co14 O27 2.244 . S
O15 Co14 2.216 1_556 S
O15 C22 1.247 . S
O16 Co14 2.091 . S
O16 C22 1.261 1_554 S
C17 O26 1.247 . S
C17 O27 1.272 . S
O18 Co14 2.004 . S
O18 C23 1.259 . S
Co19 O20 2.061 . S
Co19 O25 2.052 1_554 S
Co19 O27 2.135 . S
O20 Co19 2.061 . S
O20 C23 1.235 . S
C21 O24 1.238 . S
C21 O25 1.241 . S
C22 O15 1.247 . S
C22 O16 1.261 1_556 S
C23 O18 1.259 . S
C23 O20 1.235 . S
O24 Co14 2.021 1_556 S
O24 C21 1.238 . S
O25 Co19 2.052 1_556 S
O25 C21 1.241 . S
O26 Co14 2.137 . S
O26 C17 1.247 . S
O27 Co14 2.244 . S
O27 C17 1.272 . S
O27 Co19 2.135 . S
Co28 O29 2.216 1_554 S
Co28 O30 2.091 . S
Co28 O32 2.004 . S
Co28 O38 2.021 1_554 S
Co28 O40 2.135 . S
Co28 O41 2.244 1_545 S
O29 Co28 2.216 1_556 S
O29 C36 1.247 . S
O30 Co28 2.091 . S
O30 C36 1.261 1_554 S
C31 O40 1.196 1_565 S
C31 O41 1.272 . S
O32 Co28 2.004 . S
O32 C37 1.259 . S
Co33 O34 2.061 . S
Co33 O39 2.052 1_554 S
Co33 O41 2.135 . S
O34 Co33 2.061 . S
O34 C37 1.235 1_565 S
C35 O38 1.236 1_565 S
C35 O39 1.243 . S
C36 O29 1.247 . S
C36 O30 1.261 1_556 S
C37 O32 1.259 . S
C37 O34 1.235 1_545 S
O38 Co28 2.021 1_556 S
O38 C35 1.236 1_545 S
O39 Co33 2.052 1_556 S
O39 C35 1.243 . S
O40 Co28 2.135 . S
O40 C31 1.196 1_545 S
O41 Co28 2.244 1_565 S
O41 C31 1.272 . S
O41 Co33 2.135 . S
Co42 O43 2.216 1_554 S
Co42 O44 2.091 . S
Co42 O46 2.004 . S
Co42 O52 2.021 1_554 S
Co42 O54 2.137 1_655 S
Co42 O55 2.244 1_655 S
O43 Co42 2.216 1_556 S
O43 C50 1.247 . S
O44 Co42 2.091 . S
O44 C50 1.261 1_554 S
C45 O54 1.247 . S
C45 O55 1.272 . S
O46 Co42 2.004 . S
O46 C51 1.251 1_655 S
Co47 O48 2.061 . S
Co47 O53 2.052 1_554 S
Co47 O55 2.135 . S
O48 Co47 2.061 . S
O48 C51 1.243 . S
C49 O52 1.238 1_455 S
C49 O53 1.241 . S
C50 O43 1.247 . S
C50 O44 1.261 1_556 S
C51 O46 1.251 1_455 S
C51 O48 1.243 . S
O52 Co42 2.021 1_556 S
O52 C49 1.238 1_655 S
O53 Co47 2.052 1_556 S
O53 C49 1.241 . S
O54 Co42 2.137 1_455 S
O54 C45 1.247 . S
O55 Co42 2.244 1_455 S
O55 C45 1.272 . S
O55 Co47 2.135 . S
Co56 O57 2.216 . S
Co56 O58 2.091 . S
Co56 O60 2.004 1_554 S
Co56 O66 2.021 . S
Co56 O68 2.137 1_554 S
Co56 O69 2.244 . S
O57 Co56 2.216 . S
O57 C64 1.247 . S
O58 Co56 2.091 . S
O58 C64 1.261 . S
C59 O68 1.247 . S
C59 O69 1.272 1_556 S
O60 Co56 2.004 1_556 S
O60 C65 1.259 . S
Co61 O62 2.026 1_554 S
Co61 O67 2.111 . S
Co61 O69 2.138 . S
O62 Co61 2.026 1_556 S
O62 C65 1.235 . S
C63 O66 1.238 . S
C63 O67 1.241 . S
C64 O57 1.247 . S
C64 O58 1.261 . S
C65 O60 1.259 . S
C65 O62 1.235 . S
O66 Co56 2.021 . S
O66 C63 1.238 . S
O67 Co61 2.111 . S
O67 C63 1.241 . S
O68 Co56 2.137 1_556 S
O68 C59 1.247 . S
O69 Co56 2.244 . S
O69 C59 1.272 1_554 S
O69 Co61 2.138 . S
Co70 O71 2.216 . S
Co70 O72 2.091 . S
Co70 O74 2.004 1_554 S
Co70 O80 2.021 . S
Co70 O82 2.137 1_564 S
Co70 O83 2.244 1_565 S
O71 Co70 2.216 . S
O71 C78 1.247 . S
O72 Co70 2.091 . S
O72 C78 1.261 . S
C73 O82 1.247 . S
C73 O83 1.272 1_556 S
O74 Co70 2.004 1_556 S
O74 C79 1.250 1_565 S
Co75 O76 2.061 1_554 S
Co75 O81 2.052 . S
Co75 O83 2.135 . S
O76 Co75 2.061 1_556 S
O76 C79 1.244 . S
C77 O80 1.238 1_545 S
C77 O81 1.241 . S
C78 O71 1.247 . S
C78 O72 1.261 . S
C79 O74 1.250 1_545 S
C79 O76 1.244 . S
O80 Co70 2.021 . S
O80 C77 1.238 1_565 S
O81 Co75 2.052 . S
O81 C77 1.241 . S
O82 Co70 2.137 1_546 S
O82 C73 1.247 . S
O83 Co70 2.244 1_545 S
O83 C73 1.272 1_554 S
O83 Co75 2.135 . S
Co84 O85 2.216 . S
Co84 O86 2.091 . S
Co84 O88 2.004 . S
Co84 O94 2.021 . S
Co84 O96 2.137 . S
Co84 O97 2.244 . S
O85 Co84 2.216 . S
O85 C92 1.247 . S
O86 Co84 2.091 . S
O86 C92 1.261 . S
C87 O96 1.247 . S
C87 O97 1.272 . S
O88 Co84 2.004 . S
O88 C93 1.259 . S
Co89 O90 2.061 . S
Co89 O95 2.052 . S
Co89 O97 2.135 . S
O90 Co89 2.061 . S
O90 C93 1.235 . S
C91 O94 1.238 . S
C91 O95 1.241 . S
C92 O85 1.247 . S
C92 O86 1.261 . S
C93 O88 1.259 . S
C93 O90 1.235 . S
O94 Co84 2.021 . S
O94 C91 1.238 . S
O95 Co89 2.052 . S
O95 C91 1.241 . S
O96 Co84 2.137 . S
O96 C87 1.247 . S
O97 Co84 2.244 . S
O97 C87 1.272 . S
O97 Co89 2.135 . S
Co98 O99 2.216 . S
Co98 O100 2.091 . S
Co98 O102 2.004 . S
Co98 O108 2.021 . S
Co98 O110 2.137 1_565 S
Co98 O111 2.330 . S
O99 Co98 2.216 . S
O99 C106 1.247 . S
O100 Co98 2.091 . S
O100 C106 1.261 . S
C101 O110 1.247 . S
C101 O111 1.260 1_545 S
O102 Co98 2.004 . S
O102 C107 1.259 . S
Co103 O104 2.061 . S
Co103 O109 2.052 . S
Co103 O111 2.145 . S
O104 Co103 2.061 . S
O104 C107 1.235 . S
C105 O108 1.238 . S
C105 O109 1.241 . S
C106 O99 1.247 . S
C106 O100 1.261 . S
C107 O102 1.259 . S
C107 O104 1.235 . S
O108 Co98 2.021 . S
O108 C105 1.238 . S
O109 Co103 2.052 . S
O109 C105 1.241 . S
O110 Co98 2.137 1_545 S
O110 C101 1.247 . S
O111 Co98 2.330 . S
O111 C101 1.260 1_565 S
O111 Co103 2.145 . S
Co112 O113 2.216 . S
Co112 O114 2.091 . S
Co112 O116 2.004 . S
Co112 O122 2.021 . S
Co112 O124 2.137 . S
Co112 O125 2.244 . S
O113 Co112 2.216 . S
O113 C120 1.247 . S
O114 Co112 2.091 . S
O114 C120 1.261 . S
C115 O124 1.247 1_655 S
C115 O125 1.272 1_655 S
O116 Co112 2.004 . S
O116 C121 1.259 . S
Co117 O118 2.061 . S
Co117 O123 2.052 . S
Co117 O125 2.135 . S
O118 Co117 2.061 . S
O118 C121 1.235 . S
C119 O122 1.238 . S
C119 O123 1.241 . S
C120 O113 1.247 . S
C120 O114 1.261 . S
C121 O116 1.259 . S
C121 O118 1.235 . S
O122 Co112 2.021 . S
O122 C119 1.238 . S
O123 Co117 2.052 . S
O123 C119 1.241 . S
O124 Co112 2.137 . S
O124 C115 1.247 1_455 S
O125 Co112 2.244 . S
O125 C115 1.272 1_455 S
O125 Co117 2.135 . S
Co126 O127 2.216 . S
Co126 O128 2.091 . S
Co126 O130 2.004 . S
Co126 O136 2.021 . S
Co126 O138 2.137 1_565 S
Co126 O139 2.244 . S
O127 Co126 2.216 . S
O127 C134 1.247 . S
O128 Co126 2.091 . S
O128 C134 1.261 . S
C129 O138 1.247 . S
C129 O139 1.272 1_545 S
O130 Co126 2.004 . S
O130 C135 1.259 . S
Co131 O132 2.061 . S
Co131 O137 2.052 . S
Co131 O139 2.135 . S
O132 Co131 2.061 . S
O132 C135 1.235 . S
C133 O136 1.238 . S
C133 O137 1.241 . S
C134 O127 1.247 . S
C134 O128 1.261 . S
C135 O130 1.259 . S
C135 O132 1.235 . S
O136 Co126 2.021 . S
O136 C133 1.238 . S
O137 Co131 2.052 . S
O137 C133 1.241 . S
O138 Co126 2.137 1_545 S
O138 C129 1.247 . S
O139 Co126 2.244 . S
O139 C129 1.272 1_565 S
O139 Co131 2.135 . S
Co140 O141 2.216 1_455 S
Co140 O142 2.091 1_455 S
Co140 O144 2.004 . S
Co140 O150 2.021 . S
Co140 O152 2.142 . S
Co140 O153 2.244 . S
O141 Co140 2.216 1_655 S
O141 C148 1.247 . S
O142 Co140 2.091 1_655 S
O142 C148 1.261 . S
C143 O152 1.325 . S
C143 O153 1.272 . S
O144 Co140 2.004 . S
O144 C149 1.259 . S
Co145 O146 2.061 . S
Co145 O151 2.052 . S
Co145 O153 2.135 . S
O146 Co145 2.061 . S
O146 C149 1.235 . S
C147 O150 1.238 . S
C147 O151 1.241 . S
C148 O141 1.247 . S
C148 O142 1.261 . S
C149 O144 1.259 . S
C149 O146 1.235 . S
O150 Co140 2.021 . S
O150 C147 1.238 . S
O151 Co145 2.052 . S
O151 C147 1.241 . S
O152 Co140 2.142 . S
O152 C143 1.325 . S
O153 Co140 2.244 . S
O153 C143 1.272 . S
O153 Co145 2.135 . S
Co154 O155 2.216 . S
Co154 O156 2.091 . S
Co154 O158 2.004 . S
Co154 O164 2.021 . S
Co154 O166 2.137 . S
Co154 O167 2.244 . S
O155 Co154 2.216 . S
O155 C162 1.247 . S
O156 Co154 2.091 . S
O156 C162 1.261 . S
C157 O166 1.247 . S
C157 O167 1.272 . S
O158 Co154 2.004 . S
O158 C163 1.259 . S
Co159 O160 2.061 . S
Co159 O165 2.052 . S
Co159 O167 2.135 . S
O160 Co159 2.061 . S
O160 C163 1.235 . S
C161 O164 1.238 . S
C161 O165 1.241 . S
C162 O155 1.247 . S
C162 O156 1.261 . S
C163 O158 1.259 . S
C163 O160 1.235 . S
O164 Co154 2.021 . S
O164 C161 1.238 . S
O165 Co159 2.052 . S
O165 C161 1.241 . S
O166 Co154 2.137 . S
O166 C157 1.247 . S
O167 Co154 2.244 . S
O167 C157 1.272 . S
O167 Co159 2.135 . S
Co168 O169 2.216 . S
Co168 O170 2.091 . S
Co168 O172 2.004 . S
Co168 O178 2.021 . S
Co168 O180 2.165 . S
Co168 O181 2.244 . S
O169 Co168 2.216 . S
O169 C176 1.247 . S
O170 Co168 2.091 . S
O170 C176 1.261 . S
C171 O180 1.257 1_565 S
C171 O181 1.272 1_565 S
O172 Co168 2.004 . S
O172 C177 1.259 . S
Co173 O174 2.061 . S
Co173 O179 2.052 . S
Co173 O181 2.135 . S
O174 Co173 2.061 . S
O174 C177 1.235 . S
C175 O178 1.238 . S
C175 O179 1.241 . S
C176 O169 1.247 . S
C176 O170 1.261 . S
C177 O172 1.259 . S
C177 O174 1.235 . S
O178 Co168 2.021 . S
O178 C175 1.238 . S
O179 Co173 2.052 . S
O179 C175 1.241 . S
O180 Co168 2.165 . S
O180 C171 1.257 1_545 S
O181 Co168 2.244 . S
O181 C171 1.272 1_545 S
O181 Co173 2.135 . S
Co182 O183 2.216 1_655 S
Co182 O184 2.091 1_655 S
Co182 O186 2.004 . S
Co182 O192 2.021 . S
Co182 O194 2.137 1_655 S
Co182 O195 2.244 . S
O183 Co182 2.216 1_455 S
O183 C190 1.247 . S
O184 Co182 2.091 1_455 S
O184 C190 1.261 . S
C185 O194 1.232 1_655 S
C185 O195 1.272 . S
O186 Co182 2.004 . S
O186 C191 1.259 . S
Co187 O188 2.061 . S
Co187 O193 2.052 . S
Co187 O195 2.135 . S
O188 Co187 2.061 . S
O188 C191 1.235 . S
C189 O192 1.238 . S
C189 O193 1.241 . S
C190 O183 1.247 . S
C190 O184 1.261 . S
C191 O186 1.259 . S
C191 O188 1.235 . S
O192 Co182 2.021 . S
O192 C189 1.238 . S
O193 Co187 2.052 . S
O193 C189 1.241 . S
O194 Co182 2.137 1_455 S
O194 C185 1.232 1_455 S
O195 Co182 2.244 . S
O195 C185 1.272 . S
O195 Co187 2.135 . S
Co196 O197 2.216 . S
Co196 O198 2.091 . S
Co196 O200 2.004 . S
Co196 O206 2.021 . S
Co196 O208 2.137 . S
Co196 O209 2.244 . S
O197 Co196 2.216 . S
O197 C204 1.247 . S
O198 Co196 2.091 . S
O198 C204 1.261 . S
C199 O208 1.247 . S
C199 O209 1.272 . S
O200 Co196 2.004 . S
O200 C205 1.259 . S
Co201 O202 2.061 . S
Co201 O207 2.052 . S
Co201 O209 2.135 . S
O202 Co201 2.061 . S
O202 C205 1.235 . S
C203 O206 1.238 . S
C203 O207 1.241 . S
C204 O197 1.247 . S
C204 O198 1.261 . S
C205 O200 1.259 . S
C205 O202 1.235 . S
O206 Co196 2.021 . S
O206 C203 1.238 . S
O207 Co201 2.052 . S
O207 C203 1.241 . S
O208 Co196 2.137 . S
O208 C199 1.247 . S
O209 Co196 2.244 . S
O209 C199 1.272 . S
O209 Co201 2.135 . S
Co210 O211 2.216 . S
Co210 O212 2.091 . S
Co210 O214 2.004 . S
Co210 O220 2.021 . S
Co210 O222 2.137 . S
Co210 O223 2.244 . S
O211 Co210 2.216 . S
O211 C218 1.247 . S
O212 Co210 2.091 . S
O212 C218 1.261 . S
C213 O222 1.247 . S
C213 O223 1.272 . S
O214 Co210 2.004 . S
O214 C219 1.259 . S
Co215 O216 2.061 . S
Co215 O221 2.052 . S
Co215 O223 2.135 . S
O216 Co215 2.061 . S
O216 C219 1.235 . S
C217 O220 1.238 . S
C217 O221 1.241 . S
C218 O211 1.247 . S
C218 O212 1.261 . S
C219 O214 1.259 . S
C219 O216 1.235 . S
O220 Co210 2.021 . S
O220 C217 1.238 . S
O221 Co215 2.052 . S
O221 C217 1.241 . S
O222 Co210 2.137 . S
O222 C213 1.247 . S
O223 Co210 2.244 . S
O223 C213 1.272 . S
O223 Co215 2.135 . S
Co224 O225 2.216 . S
Co224 O226 2.091 . S
Co224 O228 2.004 . S
Co224 O234 2.021 . S
Co224 O236 2.167 . S
Co224 O237 2.244 . S
O225 Co224 2.216 . S
O225 C232 1.247 . S
O226 Co224 2.091 . S
O226 C232 1.261 . S
C227 O236 1.214 1_565 S
C227 O237 1.272 1_565 S
O228 Co224 2.004 . S
O228 C233 1.259 . S
Co229 O230 2.061 . S
Co229 O235 2.052 . S
Co229 O237 2.135 . S
O230 Co229 2.061 . S
O230 C233 1.235 . S
C231 O234 1.238 . S
C231 O235 1.241 . S
C232 O225 1.247 . S
C232 O226 1.261 . S
C233 O228 1.259 . S
C233 O230 1.235 . S
O234 Co224 2.021 . S
O234 C231 1.238 . S
O235 Co229 2.052 . S
O235 C231 1.241 . S
O236 Co224 2.167 . S
O236 C227 1.214 1_545 S
O237 Co224 2.244 . S
O237 C227 1.272 1_545 S
O237 Co229 2.135 . S
Co238 O239 2.216 . S
Co238 O240 2.091 . S
Co238 O242 2.004 . S
Co238 O248 2.021 . S
Co238 O250 2.196 . S
Co238 O251 2.244 . S
O239 Co238 2.216 . S
O239 C246 1.247 . S
O240 Co238 2.091 . S
O240 C246 1.261 . S
C241 O250 1.267 1_455 S
C241 O251 1.272 1_455 S
O242 Co238 2.004 . S
O242 C247 1.259 . S
Co243 O244 2.061 . S
Co243 O249 2.052 . S
Co243 O251 2.135 . S
O244 Co243 2.061 . S
O244 C247 1.235 . S
C245 O248 1.238 . S
C245 O249 1.241 . S
C246 O239 1.247 . S
C246 O240 1.261 . S
C247 O242 1.259 . S
C247 O244 1.235 . S
O248 Co238 2.021 . S
O248 C245 1.238 . S
O249 Co243 2.052 . S
O249 C245 1.241 . S
O250 Co238 2.196 . S
O250 C241 1.267 1_655 S
O251 Co238 2.244 . S
O251 C241 1.272 1_655 S
O251 Co243 2.135 . S
H252 C271 0.949 . S
H253 C272 0.950 . S
H254 C274 0.950 . S
H255 C275 0.950 . S
H256 C277 0.950 . S
H257 C280 0.950 . S
H258 C281 0.950 . S
H259 C283 0.951 . S
H260 C284 0.949 . S
H261 C286 0.949 . S
H262 C287 0.950 . S
H263 C289 0.950 . S
H264 C290 0.950 . S
H265 C292 0.950 . S
H266 C295 0.950 . S
H267 C296 0.950 . S
H268 C298 0.951 . S
H269 C299 0.949 . S
C270 C271 1.376 . S
C270 C275 1.386 . S
C270 C276 1.483 . S
C271 H252 0.949 . S
C271 C270 1.376 . S
C271 C272 1.397 . S
C272 H253 0.950 . S
C272 C271 1.397 . S
C272 C273 1.391 . S
C273 C272 1.391 . S
C273 C274 1.405 . S
C274 H254 0.950 . S
C274 C273 1.405 . S
C274 C275 1.367 . S
C275 H255 0.950 . S
C275 C270 1.386 . S
C275 C274 1.367 . S
C276 C270 1.483 . S
C276 C277 1.382 . S
C276 C278 1.403 . S
C277 H256 0.950 . S
C277 C276 1.382 . S
C277 C293 1.411 . S
C278 C276 1.403 . S
C278 C279 1.489 . S
C278 C292 1.411 . S
C279 C278 1.489 . S
C279 C280 1.383 . S
C279 C284 1.382 . S
C280 H257 0.950 . S
C280 C279 1.383 . S
C280 C281 1.395 . S
C281 H258 0.950 . S
C281 C280 1.395 . S
C281 C282 1.288 . S
C282 C281 1.288 . S
C282 C283 1.392 . S
C283 H259 0.951 . S
C283 C282 1.392 . S
C283 C284 1.392 . S
C284 H260 0.949 . S
C284 C279 1.382 . S
C284 C283 1.392 . S
C285 C286 1.376 . S
C285 C290 1.386 . S
C285 C291 1.483 . S
C286 H261 0.949 . S
C286 C285 1.376 . S
C286 C287 1.397 . S
C287 H262 0.950 . S
C287 C286 1.397 . S
C287 C288 1.391 . S
C288 C287 1.391 . S
C288 C289 1.405 . S
C289 H263 0.950 . S
C289 C288 1.405 . S
C289 C290 1.367 . S
C290 H264 0.950 . S
C290 C285 1.386 . S
C290 C289 1.367 . S
C291 C285 1.483 . S
C291 C292 1.382 . S
C291 C293 1.403 . S
C292 H265 0.950 . S
C292 C278 1.411 . S
C292 C291 1.382 . S
C293 C277 1.411 . S
C293 C291 1.403 . S
C293 C294 1.489 . S
C294 C293 1.489 . S
C294 C295 1.383 . S
C294 C299 1.382 . S
C295 H266 0.950 . S
C295 C294 1.383 . S
C295 C296 1.395 . S
C296 H267 0.950 . S
C296 C295 1.395 . S
C296 C297 1.288 . S
C297 C296 1.288 . S
C297 C298 1.392 . S
C298 H268 0.951 . S
C298 C297 1.392 . S
C298 C299 1.392 . S
C299 H269 0.949 . S
C299 C294 1.382 . S
C299 C298 1.392 . S
H300 C319 0.949 . S
H301 C320 0.950 . S
H302 C322 0.950 . S
H303 C323 0.950 . S
H304 C325 0.950 . S
H305 C328 0.950 . S
H306 C329 0.950 . S
H307 C331 0.951 . S
H308 C332 0.949 . S
H309 C334 0.949 . S
H310 C335 0.950 . S
H311 C337 0.950 . S
H312 C338 0.950 . S
H313 C340 0.950 . S
H314 C343 0.950 . S
H315 C344 0.950 . S
H316 C346 0.951 . S
H317 C347 0.949 . S
C318 C319 1.376 . S
C318 C323 1.386 . S
C318 C324 1.483 . S
C319 H300 0.949 . S
C319 C318 1.376 . S
C319 C320 1.397 . S
C320 H301 0.950 . S
C320 C319 1.397 . S
C320 C321 1.391 . S
C321 C320 1.391 . S
C321 C322 1.405 . S
C322 H302 0.950 . S
C322 C321 1.405 . S
C322 C323 1.367 . S
C323 H303 0.950 . S
C323 C318 1.386 . S
C323 C322 1.367 . S
C324 C318 1.483 . S
C324 C325 1.382 . S
C324 C326 1.403 . S
C325 H304 0.950 . S
C325 C324 1.382 . S
C325 C341 1.411 . S
C326 C324 1.403 . S
C326 C327 1.489 . S
C326 C340 1.411 . S
C327 C326 1.489 . S
C327 C328 1.383 . S
C327 C332 1.382 . S
C328 H305 0.950 . S
C328 C327 1.383 . S
C328 C329 1.395 . S
C329 H306 0.950 . S
C329 C328 1.395 . S
C329 C330 1.288 . S
C330 C329 1.288 . S
C330 C331 1.392 . S
C331 H307 0.951 . S
C331 C330 1.392 . S
C331 C332 1.392 . S
C332 H308 0.949 . S
C332 C327 1.382 . S
C332 C331 1.392 . S
C333 C334 1.376 . S
C333 C338 1.386 . S
C333 C339 1.483 . S
C334 H309 0.949 . S
C334 C333 1.376 . S
C334 C335 1.397 . S
C335 H310 0.950 . S
C335 C334 1.397 . S
C335 C336 1.391 . S
C336 C335 1.391 . S
C336 C337 1.405 . S
C337 H311 0.950 . S
C337 C336 1.405 . S
C337 C338 1.367 . S
C338 H312 0.950 . S
C338 C333 1.386 . S
C338 C337 1.367 . S
C339 C333 1.483 . S
C339 C340 1.382 . S
C339 C341 1.403 . S
C340 H313 0.950 . S
C340 C326 1.411 . S
C340 C339 1.382 . S
C341 C325 1.411 . S
C341 C339 1.403 . S
C341 C342 1.489 . S
C342 C341 1.489 . S
C342 C343 1.383 . S
C342 C347 1.382 . S
C343 H314 0.950 . S
C343 C342 1.383 . S
C343 C344 1.395 . S
C344 H315 0.950 . S
C344 C343 1.395 . S
C344 C345 1.288 . S
C345 C344 1.288 . S
C345 C346 1.392 . S
C346 H316 0.951 . S
C346 C345 1.392 . S
C346 C347 1.392 . S
C347 H317 0.949 . S
C347 C342 1.382 . S
C347 C346 1.392 . S
H348 C367 0.949 . S
H349 C368 0.950 . S
H350 C370 0.950 . S
H351 C371 0.950 . S
H352 C373 0.950 . S
H353 C376 0.950 . S
H354 C377 0.950 . S
H355 C379 0.951 . S
H356 C380 0.949 . S
H357 C382 0.949 . S
H358 C383 0.950 . S
H359 C385 0.950 . S
H360 C386 0.950 . S
H361 C388 0.950 . S
H362 C391 0.950 . S
H363 C392 0.950 . S
H364 C394 0.951 . S
H365 C395 0.949 . S
C366 C367 1.376 . S
C366 C371 1.386 . S
C366 C372 1.483 . S
C367 H348 0.949 . S
C367 C366 1.376 . S
C367 C368 1.397 . S
C368 H349 0.950 . S
C368 C367 1.397 . S
C368 C369 1.391 . S
C369 C368 1.391 . S
C369 C370 1.405 . S
C370 H350 0.950 . S
C370 C369 1.405 . S
C370 C371 1.367 . S
C371 H351 0.950 . S
C371 C366 1.386 . S
C371 C370 1.367 . S
C372 C366 1.483 . S
C372 C373 1.382 . S
C372 C374 1.403 . S
C373 H352 0.950 . S
C373 C372 1.382 . S
C373 C389 1.411 . S
C374 C372 1.403 . S
C374 C375 1.489 . S
C374 C388 1.411 . S
C375 C374 1.489 . S
C375 C376 1.383 . S
C375 C380 1.382 . S
C376 H353 0.950 . S
C376 C375 1.383 . S
C376 C377 1.395 . S
C377 H354 0.950 . S
C377 C376 1.395 . S
C377 C378 1.288 . S
C378 C377 1.288 . S
C378 C379 1.392 . S
C379 H355 0.951 . S
C379 C378 1.392 . S
C379 C380 1.392 . S
C380 H356 0.949 . S
C380 C375 1.382 . S
C380 C379 1.392 . S
C381 C382 1.376 . S
C381 C386 1.386 . S
C381 C387 1.483 . S
C382 H357 0.949 . S
C382 C381 1.376 . S
C382 C383 1.397 . S
C383 H358 0.950 . S
C383 C382 1.397 . S
C383 C384 1.391 . S
C384 C383 1.391 . S
C384 C385 1.405 . S
C385 H359 0.950 . S
C385 C384 1.405 . S
C385 C386 1.367 . S
C386 H360 0.950 . S
C386 C381 1.386 . S
C386 C385 1.367 . S
C387 C381 1.483 . S
C387 C388 1.382 . S
C387 C389 1.403 . S
C388 H361 0.950 . S
C388 C374 1.411 . S
C388 C387 1.382 . S
C389 C373 1.411 . S
C389 C387 1.403 . S
C389 C390 1.489 . S
C390 C389 1.489 . S
C390 C391 1.383 . S
C390 C395 1.382 . S
C391 H362 0.950 . S
C391 C390 1.383 . S
C391 C392 1.395 . S
C392 H363 0.950 . S
C392 C391 1.395 . S
C392 C393 1.288 . S
C393 C392 1.288 . S
C393 C394 1.392 . S
C394 H364 0.951 . S
C394 C393 1.392 . S
C394 C395 1.392 . S
C395 H365 0.949 . S
C395 C390 1.382 . S
C395 C394 1.392 . S
H396 C415 0.949 . S
H397 C416 0.950 . S
H398 C418 0.950 . S
H399 C419 0.950 . S
H400 C421 0.950 . S
H401 C424 0.950 . S
H402 C425 0.950 . S
H403 C427 0.951 . S
H404 C428 0.949 . S
H405 C430 0.949 . S
H406 C431 0.950 . S
H407 C433 0.950 . S
H408 C434 0.950 . S
H409 C436 0.950 . S
H410 C439 0.950 . S
H411 C440 0.950 . S
H412 C442 0.951 . S
H413 C443 0.949 . S
C414 C415 1.376 . S
C414 C419 1.386 . S
C414 C420 1.483 . S
C415 H396 0.949 . S
C415 C414 1.376 . S
C415 C416 1.397 . S
C416 H397 0.950 . S
C416 C415 1.397 . S
C416 C417 1.391 . S
C417 C416 1.391 . S
C417 C418 1.405 . S
C418 H398 0.950 . S
C418 C417 1.405 . S
C418 C419 1.367 . S
C419 H399 0.950 . S
C419 C414 1.386 . S
C419 C418 1.367 . S
C420 C414 1.483 . S
C420 C421 1.382 . S
C420 C422 1.403 . S
C421 H400 0.950 . S
C421 C420 1.382 . S
C421 C437 1.411 . S
C422 C420 1.403 . S
C422 C423 1.489 . S
C422 C436 1.411 . S
C423 C422 1.489 . S
C423 C424 1.383 . S
C423 C428 1.382 . S
C424 H401 0.950 . S
C424 C423 1.383 . S
C424 C425 1.395 . S
C425 H402 0.950 . S
C425 C424 1.395 . S
C425 C426 1.288 . S
C426 C425 1.288 . S
C426 C427 1.392 . S
C427 H403 0.951 . S
C427 C426 1.392 . S
C427 C428 1.392 . S
C428 H404 0.949 . S
C428 C423 1.382 . S
C428 C427 1.392 . S
C429 C430 1.376 . S
C429 C434 1.386 . S
C429 C435 1.483 . S
C430 H405 0.949 . S
C430 C429 1.376 . S
C430 C431 1.397 . S
C431 H406 0.950 . S
C431 C430 1.397 . S
C431 C432 1.391 . S
C432 C431 1.391 . S
C432 C433 1.405 . S
C433 H407 0.950 . S
C433 C432 1.405 . S
C433 C434 1.367 . S
C434 H408 0.950 . S
C434 C429 1.386 . S
C434 C433 1.367 . S
C435 C429 1.483 . S
C435 C436 1.382 . S
C435 C437 1.403 . S
C436 H409 0.950 . S
C436 C422 1.411 . S
C436 C435 1.382 . S
C437 C421 1.411 . S
C437 C435 1.403 . S
C437 C438 1.489 . S
C438 C437 1.489 . S
C438 C439 1.383 . S
C438 C443 1.382 . S
C439 H410 0.950 . S
C439 C438 1.383 . S
C439 C440 1.395 . S
C440 H411 0.950 . S
C440 C439 1.395 . S
C440 C441 1.288 . S
C441 C440 1.288 . S
C441 C442 1.392 . S
C442 H412 0.951 . S
C442 C441 1.392 . S
C442 C443 1.392 . S
C443 H413 0.949 . S
C443 C438 1.382 . S
C443 C442 1.392 . S
H444 C463 0.949 . S
H445 C464 0.950 . S
H446 C466 0.950 . S
H447 C467 0.950 . S
H448 C469 0.950 . S
H449 C472 0.950 . S
H450 C473 0.950 . S
H451 C475 0.951 . S
H452 C476 0.949 . S
H453 C478 0.949 . S
H454 C479 0.950 . S
H455 C481 0.950 . S
H456 C482 0.950 . S
H457 C484 0.950 . S
H458 C487 0.950 . S
H459 C488 0.950 . S
H460 C490 0.951 . S
H461 C491 0.949 . S
C462 C463 1.376 . S
C462 C467 1.386 . S
C462 C468 1.483 . S
C463 H444 0.949 . S
C463 C462 1.376 . S
C463 C464 1.397 . S
C464 H445 0.950 . S
C464 C463 1.397 . S
C464 C465 1.391 . S
C465 C464 1.391 . S
C465 C466 1.405 . S
C466 H446 0.950 . S
C466 C465 1.405 . S
C466 C467 1.367 . S
C467 H447 0.950 . S
C467 C462 1.386 . S
C467 C466 1.367 . S
C468 C462 1.483 . S
C468 C469 1.382 . S
C468 C470 1.403 . S
C469 H448 0.950 . S
C469 C468 1.382 . S
C469 C485 1.411 . S
C470 C468 1.403 . S
C470 C471 1.489 . S
C470 C484 1.411 . S
C471 C470 1.489 . S
C471 C472 1.383 . S
C471 C476 1.382 . S
C472 H449 0.950 . S
C472 C471 1.383 . S
C472 C473 1.395 . S
C473 H450 0.950 . S
C473 C472 1.395 . S
C473 C474 1.288 . S
C474 C473 1.288 . S
C474 C475 1.392 . S
C475 H451 0.951 . S
C475 C474 1.392 . S
C475 C476 1.392 . S
C476 H452 0.949 . S
C476 C471 1.382 . S
C476 C475 1.392 . S
C477 C478 1.376 . S
C477 C482 1.386 . S
C477 C483 1.483 . S
C478 H453 0.949 . S
C478 C477 1.376 . S
C478 C479 1.397 . S
C479 H454 0.950 . S
C479 C478 1.397 . S
C479 C480 1.391 . S
C480 C479 1.391 . S
C480 C481 1.405 . S
C481 H455 0.950 . S
C481 C480 1.405 . S
C481 C482 1.367 . S
C482 H456 0.950 . S
C482 C477 1.386 . S
C482 C481 1.367 . S
C483 C477 1.483 . S
C483 C484 1.382 . S
C483 C485 1.403 . S
C484 H457 0.950 . S
C484 C470 1.411 . S
C484 C483 1.382 . S
C485 C469 1.411 . S
C485 C483 1.403 . S
C485 C486 1.489 . S
C486 C485 1.489 . S
C486 C487 1.383 . S
C486 C491 1.382 . S
C487 H458 0.950 . S
C487 C486 1.383 . S
C487 C488 1.395 . S
C488 H459 0.950 . S
C488 C487 1.395 . S
C488 C489 1.288 . S
C489 C488 1.288 . S
C489 C490 1.392 . S
C490 H460 0.951 . S
C490 C489 1.392 . S
C490 C491 1.392 . S
C491 H461 0.949 . S
C491 C486 1.382 . S
C491 C490 1.392 . S
H492 C511 0.949 . S
H493 C512 0.950 . S
H494 C514 0.950 . S
H495 C515 0.950 . S
H496 C517 0.950 . S
H497 C520 0.950 . S
H498 C521 0.950 . S
H499 C523 0.951 . S
H500 C524 0.949 . S
H501 C526 0.949 . S
H502 C527 0.950 . S
H503 C529 0.950 . S
H504 C530 0.950 . S
H505 C532 0.950 . S
H506 C535 0.950 . S
H507 C536 0.950 . S
H508 C538 0.951 . S
H509 C539 0.949 . S
C510 C511 1.376 . S
C510 C515 1.386 . S
C510 C516 1.483 . S
C511 H492 0.949 . S
C511 C510 1.376 . S
C511 C512 1.397 . S
C512 H493 0.950 . S
C512 C511 1.397 . S
C512 C513 1.391 . S
C513 C512 1.391 . S
C513 C514 1.405 . S
C514 H494 0.950 . S
C514 C513 1.405 . S
C514 C515 1.367 . S
C515 H495 0.950 . S
C515 C510 1.386 . S
C515 C514 1.367 . S
C516 C510 1.483 . S
C516 C517 1.382 . S
C516 C518 1.403 . S
C517 H496 0.950 . S
C517 C516 1.382 . S
C517 C533 1.411 . S
C518 C516 1.403 . S
C518 C519 1.489 . S
C518 C532 1.411 . S
C519 C518 1.489 . S
C519 C520 1.383 . S
C519 C524 1.382 . S
C520 H497 0.950 . S
C520 C519 1.383 . S
C520 C521 1.395 . S
C521 H498 0.950 . S
C521 C520 1.395 . S
C521 C522 1.288 . S
C522 C521 1.288 . S
C522 C523 1.392 . S
C523 H499 0.951 . S
C523 C522 1.392 . S
C523 C524 1.392 . S
C524 H500 0.949 . S
C524 C519 1.382 . S
C524 C523 1.392 . S
C525 C526 1.376 . S
C525 C530 1.386 . S
C525 C531 1.483 . S
C526 H501 0.949 . S
C526 C525 1.376 . S
C526 C527 1.397 . S
C527 H502 0.950 . S
C527 C526 1.397 . S
C527 C528 1.391 . S
C528 C527 1.391 . S
C528 C529 1.405 . S
C529 H503 0.950 . S
C529 C528 1.405 . S
C529 C530 1.367 . S
C530 H504 0.950 . S
C530 C525 1.386 . S
C530 C529 1.367 . S
C531 C525 1.483 . S
C531 C532 1.382 . S
C531 C533 1.403 . S
C532 H505 0.950 . S
C532 C518 1.411 . S
C532 C531 1.382 . S
C533 C517 1.411 . S
C533 C531 1.403 . S
C533 C534 1.489 . S
C534 C533 1.489 . S
C534 C535 1.383 . S
C534 C539 1.382 . S
C535 H506 0.950 . S
C535 C534 1.383 . S
C535 C536 1.395 . S
C536 H507 0.950 . S
C536 C535 1.395 . S
C536 C537 1.288 . S
C537 C536 1.288 . S
C537 C538 1.392 . S
C538 H508 0.951 . S
C538 C537 1.392 . S
C538 C539 1.392 . S
C539 H509 0.949 . S
C539 C534 1.382 . S
C539 C538 1.392 . S
H540 C559 0.949 . S
H541 C560 0.950 . S
H542 C562 0.950 . S
H543 C563 0.950 . S
H544 C565 0.950 . S
H545 C568 0.950 . S
H546 C569 0.950 . S
H547 C571 0.951 . S
H548 C572 0.949 . S
H549 C574 0.949 . S
H550 C575 0.950 . S
H551 C577 0.950 . S
H552 C578 0.950 . S
H553 C580 0.950 . S
H554 C583 0.950 . S
H555 C584 0.950 . S
H556 C586 0.951 . S
H557 C587 0.949 . S
C558 C559 1.376 . S
C558 C563 1.386 . S
C558 C564 1.483 . S
C559 H540 0.949 . S
C559 C558 1.376 . S
C559 C560 1.397 . S
C560 H541 0.950 . S
C560 C559 1.397 . S
C560 C561 1.391 . S
C561 C560 1.391 . S
C561 C562 1.405 . S
C562 H542 0.950 . S
C562 C561 1.405 . S
C562 C563 1.367 . S
C563 H543 0.950 . S
C563 C558 1.386 . S
C563 C562 1.367 . S
C564 C558 1.483 . S
C564 C565 1.382 . S
C564 C566 1.403 . S
C565 H544 0.950 . S
C565 C564 1.382 . S
C565 C581 1.411 . S
C566 C564 1.403 . S
C566 C567 1.489 . S
C566 C580 1.411 . S
C567 C566 1.489 . S
C567 C568 1.383 . S
C567 C572 1.382 . S
C568 H545 0.950 . S
C568 C567 1.383 . S
C568 C569 1.395 . S
C569 H546 0.950 . S
C569 C568 1.395 . S
C569 C570 1.288 . S
C570 C569 1.288 . S
C570 C571 1.392 . S
C571 H547 0.951 . S
C571 C570 1.392 . S
C571 C572 1.392 . S
C572 H548 0.949 . S
C572 C567 1.382 . S
C572 C571 1.392 . S
C573 C574 1.376 . S
C573 C578 1.386 . S
C573 C579 1.483 . S
C574 H549 0.949 . S
C574 C573 1.376 . S
C574 C575 1.397 . S
C575 H550 0.950 . S
C575 C574 1.397 . S
C575 C576 1.391 . S
C576 C575 1.391 . S
C576 C577 1.405 . S
C577 H551 0.950 . S
C577 C576 1.405 . S
C577 C578 1.367 . S
C578 H552 0.950 . S
C578 C573 1.386 . S
C578 C577 1.367 . S
C579 C573 1.483 . S
C579 C580 1.382 . S
C579 C581 1.403 . S
C580 H553 0.950 . S
C580 C566 1.411 . S
C580 C579 1.382 . S
C581 C565 1.411 . S
C581 C579 1.403 . S
C581 C582 1.489 . S
C582 C581 1.489 . S
C582 C583 1.383 . S
C582 C587 1.382 . S
C583 H554 0.950 . S
C583 C582 1.383 . S
C583 C584 1.395 . S
C584 H555 0.950 . S
C584 C583 1.395 . S
C584 C585 1.288 . S
C585 C584 1.288 . S
C585 C586 1.392 . S
C586 H556 0.951 . S
C586 C585 1.392 . S
C586 C587 1.392 . S
C587 H557 0.949 . S
C587 C582 1.382 . S
C587 C586 1.392 . S
H588 C607 0.949 . S
H589 C608 0.950 . S
H590 C610 0.950 . S
H591 C611 0.950 . S
H592 C613 0.950 . S
H593 C616 0.950 . S
H594 C617 0.950 . S
H595 C619 0.951 . S
H596 C620 0.949 . S
H597 C622 0.949 . S
H598 C623 0.950 . S
H599 C625 0.950 . S
H600 C626 0.950 . S
H601 C628 0.950 . S
H602 C631 0.950 . S
H603 C632 0.950 . S
H604 C634 0.951 . S
H605 C635 0.949 . S
C606 C607 1.376 . S
C606 C611 1.386 . S
C606 C612 1.483 . S
C607 H588 0.949 . S
C607 C606 1.376 . S
C607 C608 1.397 . S
C608 H589 0.950 . S
C608 C607 1.397 . S
C608 C609 1.391 . S
C609 C608 1.391 . S
C609 C610 1.405 . S
C610 H590 0.950 . S
C610 C609 1.405 . S
C610 C611 1.367 . S
C611 H591 0.950 . S
C611 C606 1.386 . S
C611 C610 1.367 . S
C612 C606 1.483 . S
C612 C613 1.382 . S
C612 C614 1.403 . S
C613 H592 0.950 . S
C613 C612 1.382 . S
C613 C629 1.411 . S
C614 C612 1.403 . S
C614 C615 1.489 . S
C614 C628 1.411 . S
C615 C614 1.489 . S
C615 C616 1.383 . S
C615 C620 1.382 . S
C616 H593 0.950 . S
C616 C615 1.383 . S
C616 C617 1.395 . S
C617 H594 0.950 . S
C617 C616 1.395 . S
C617 C618 1.288 . S
C618 C617 1.288 . S
C618 C619 1.392 . S
C619 H595 0.951 . S
C619 C618 1.392 . S
C619 C620 1.392 . S
C620 H596 0.949 . S
C620 C615 1.382 . S
C620 C619 1.392 . S
C621 C622 1.376 . S
C621 C626 1.386 . S
C621 C627 1.483 . S
C622 H597 0.949 . S
C622 C621 1.376 . S
C622 C623 1.397 . S
C623 H598 0.950 . S
C623 C622 1.397 . S
C623 C624 1.391 . S
C624 C623 1.391 . S
C624 C625 1.405 . S
C625 H599 0.950 . S
C625 C624 1.405 . S
C625 C626 1.367 . S
C626 H600 0.950 . S
C626 C621 1.386 . S
C626 C625 1.367 . S
C627 C621 1.483 . S
C627 C628 1.382 . S
C627 C629 1.403 . S
C628 H601 0.950 . S
C628 C614 1.411 . S
C628 C627 1.382 . S
C629 C613 1.411 . S
C629 C627 1.403 . S
C629 C630 1.489 . S
C630 C629 1.489 . S
C630 C631 1.383 . S
C630 C635 1.382 . S
C631 H602 0.950 . S
C631 C630 1.383 . S
C631 C632 1.395 . S
C632 H603 0.950 . S
C632 C631 1.395 . S
C632 C633 1.288 . S
C633 C632 1.288 . S
C633 C634 1.392 . S
C634 H604 0.951 . S
C634 C633 1.392 . S
C634 C635 1.392 . S
C635 H605 0.949 . S
C635 C630 1.382 . S
C635 C634 1.392 . S
H636 C655 0.949 . S
H637 C656 0.950 . S
H638 C658 0.950 . S
H639 C659 0.950 . S
H640 C661 0.950 . S
H641 C664 0.950 . S
H642 C665 0.950 . S
H643 C667 0.951 . S
H644 C668 0.949 . S
H645 C670 0.949 . S
H646 C671 0.950 . S
H647 C673 0.950 . S
H648 C674 0.950 . S
H649 C676 0.950 . S
H650 C679 0.950 . S
H651 C680 0.950 . S
H652 C682 0.951 . S
H653 C683 0.949 . S
C654 C655 1.376 . S
C654 C659 1.386 . S
C654 C660 1.483 . S
C655 H636 0.949 . S
C655 C654 1.376 . S
C655 C656 1.397 . S
C656 H637 0.950 . S
C656 C655 1.397 . S
C656 C657 1.391 . S
C657 C656 1.391 . S
C657 C658 1.405 . S
C658 H638 0.950 . S
C658 C657 1.405 . S
C658 C659 1.367 . S
C659 H639 0.950 . S
C659 C654 1.386 . S
C659 C658 1.367 . S
C660 C654 1.483 . S
C660 C661 1.382 . S
C660 C662 1.403 . S
C661 H640 0.950 . S
C661 C660 1.382 . S
C661 C677 1.411 . S
C662 C660 1.403 . S
C662 C663 1.489 . S
C662 C676 1.411 . S
C663 C662 1.489 . S
C663 C664 1.383 . S
C663 C668 1.382 . S
C664 H641 0.950 . S
C664 C663 1.383 . S
C664 C665 1.395 . S
C665 H642 0.950 . S
C665 C664 1.395 . S
C665 C666 1.288 . S
C666 C665 1.288 . S
C666 C667 1.392 . S
C667 H643 0.951 . S
C667 C666 1.392 . S
C667 C668 1.392 . S
C668 H644 0.949 . S
C668 C663 1.382 . S
C668 C667 1.392 . S
C669 C670 1.376 . S
C669 C674 1.386 . S
C669 C675 1.483 . S
C670 H645 0.949 . S
C670 C669 1.376 . S
C670 C671 1.397 . S
C671 H646 0.950 . S
C671 C670 1.397 . S
C671 C672 1.391 . S
C672 C671 1.391 . S
C672 C673 1.405 . S
C673 H647 0.950 . S
C673 C672 1.405 . S
C673 C674 1.367 . S
C674 H648 0.950 . S
C674 C669 1.386 . S
C674 C673 1.367 . S
C675 C669 1.483 . S
C675 C676 1.382 . S
C675 C677 1.403 . S
C676 H649 0.950 . S
C676 C662 1.411 . S
C676 C675 1.382 . S
C677 C661 1.411 . S
C677 C675 1.403 . S
C677 C678 1.489 . S
C678 C677 1.489 . S
C678 C679 1.383 . S
C678 C683 1.382 . S
C679 H650 0.950 . S
C679 C678 1.383 . S
C679 C680 1.395 . S
C680 H651 0.950 . S
C680 C679 1.395 . S
C680 C681 1.288 . S
C681 C680 1.288 . S
C681 C682 1.392 . S
C682 H652 0.951 . S
C682 C681 1.392 . S
C682 C683 1.392 . S
C683 H653 0.949 . S
C683 C678 1.382 . S
C683 C682 1.392 . S
H684 C703 0.949 . S
H685 C704 0.950 . S
H686 C706 0.950 . S
H687 C707 0.950 . S
H688 C709 0.950 . S
H689 C712 0.950 . S
H690 C713 0.950 . S
H691 C715 0.951 . S
H692 C716 0.949 . S
H693 C718 0.949 . S
H694 C719 0.950 . S
H695 C721 0.950 . S
H696 C722 0.950 . S
H697 C724 0.950 . S
H698 C727 0.950 . S
H699 C728 0.950 . S
H700 C730 0.951 . S
H701 C731 0.949 . S
C702 C703 1.376 . S
C702 C707 1.386 1_655 S
C702 C708 1.483 . S
C703 H684 0.949 . S
C703 C702 1.376 . S
C703 C704 1.397 . S
C704 H685 0.950 . S
C704 C703 1.397 . S
C704 C705 1.391 . S
C705 C704 1.391 . S
C705 C706 1.405 1_655 S
C706 H686 0.950 . S
C706 C705 1.405 1_455 S
C706 C707 1.367 . S
C707 H687 0.950 . S
C707 C702 1.386 1_455 S
C707 C706 1.367 . S
C708 C702 1.483 . S
C708 C709 1.382 . S
C708 C710 1.403 1_655 S
C709 H688 0.950 . S
C709 C708 1.382 . S
C709 C725 1.411 . S
C710 C708 1.403 1_455 S
C710 C711 1.489 . S
C710 C724 1.411 . S
C711 C710 1.489 . S
C711 C712 1.383 1_455 S
C711 C716 1.382 . S
C712 H689 0.950 . S
C712 C711 1.383 1_655 S
C712 C713 1.395 . S
C713 H690 0.950 . S
C713 C712 1.395 . S
C713 C714 1.288 1_655 S
C714 C713 1.288 1_455 S
C714 C715 1.392 . S
C715 H691 0.951 . S
C715 C714 1.392 . S
C715 C716 1.392 . S
C716 H692 0.949 . S
C716 C711 1.382 . S
C716 C715 1.392 . S
C717 C718 1.376 . S
C717 C722 1.386 1_455 S
C717 C723 1.483 . S
C718 H693 0.949 . S
C718 C717 1.376 . S
C718 C719 1.397 . S
C719 H694 0.950 . S
C719 C718 1.397 . S
C719 C720 1.391 . S
C720 C719 1.391 . S
C720 C721 1.405 1_455 S
C721 H695 0.950 . S
C721 C720 1.405 1_655 S
C721 C722 1.367 . S
C722 H696 0.950 . S
C722 C717 1.386 1_655 S
C722 C721 1.367 . S
C723 C717 1.483 . S
C723 C724 1.382 . S
C723 C725 1.403 1_455 S
C724 H697 0.950 . S
C724 C710 1.411 . S
C724 C723 1.382 . S
C725 C709 1.411 . S
C725 C723 1.403 1_655 S
C725 C726 1.489 . S
C726 C725 1.489 . S
C726 C727 1.383 1_655 S
C726 C731 1.382 . S
C727 H698 0.950 . S
C727 C726 1.383 1_455 S
C727 C728 1.395 . S
C728 H699 0.950 . S
C728 C727 1.395 . S
C728 C729 1.288 1_455 S
C729 C728 1.288 1_655 S
C729 C730 1.392 . S
C730 H700 0.951 . S
C730 C729 1.392 . S
C730 C731 1.392 . S
C731 H701 0.949 . S
C731 C726 1.382 . S
C731 C730 1.392 . S
H732 C751 0.949 . S
H733 C752 0.950 . S
H734 C754 0.950 . S
H735 C755 0.950 . S
H736 C757 0.950 . S
H737 C760 0.950 . S
H738 C761 0.950 . S
H739 C763 0.951 . S
H740 C764 0.949 . S
H741 C766 0.949 . S
H742 C767 0.950 . S
H743 C769 0.950 . S
H744 C770 0.950 . S
H745 C772 0.950 . S
H746 C775 0.950 . S
H747 C776 0.950 . S
H748 C778 0.951 . S
H749 C779 0.949 . S
C750 C751 1.376 . S
C750 C755 1.386 . S
C750 C756 1.483 . S
C751 H732 0.949 . S
C751 C750 1.376 . S
C751 C752 1.397 . S
C752 H733 0.950 . S
C752 C751 1.397 . S
C752 C753 1.391 . S
C753 C752 1.391 . S
C753 C754 1.405 . S
C754 H734 0.950 . S
C754 C753 1.405 . S
C754 C755 1.367 . S
C755 H735 0.950 . S
C755 C750 1.386 . S
C755 C754 1.367 . S
C756 C750 1.483 . S
C756 C757 1.382 . S
C756 C758 1.403 . S
C757 H736 0.950 . S
C757 C756 1.382 . S
C757 C773 1.411 . S
C758 C756 1.403 . S
C758 C759 1.489 . S
C758 C772 1.411 . S
C759 C758 1.489 . S
C759 C760 1.383 . S
C759 C764 1.382 . S
C760 H737 0.950 . S
C760 C759 1.383 . S
C760 C761 1.395 . S
C761 H738 0.950 . S
C761 C760 1.395 . S
C761 C762 1.288 . S
C762 C761 1.288 . S
C762 C763 1.392 . S
C763 H739 0.951 . S
C763 C762 1.392 . S
C763 C764 1.392 . S
C764 H740 0.949 . S
C764 C759 1.382 . S
C764 C763 1.392 . S
C765 C766 1.376 . S
C765 C770 1.386 . S
C765 C771 1.483 . S
C766 H741 0.949 . S
C766 C765 1.376 . S
C766 C767 1.397 . S
C767 H742 0.950 . S
C767 C766 1.397 . S
C767 C768 1.391 . S
C768 C767 1.391 . S
C768 C769 1.405 . S
C769 H743 0.950 . S
C769 C768 1.405 . S
C769 C770 1.367 . S
C770 H744 0.950 . S
C770 C765 1.386 . S
C770 C769 1.367 . S
C771 C765 1.483 . S
C771 C772 1.382 . S
C771 C773 1.403 . S
C772 H745 0.950 . S
C772 C758 1.411 . S
C772 C771 1.382 . S
C773 C757 1.411 . S
C773 C771 1.403 . S
C773 C774 1.489 . S
C774 C773 1.489 . S
C774 C775 1.383 . S
C774 C779 1.382 . S
C775 H746 0.950 . S
C775 C774 1.383 . S
C775 C776 1.395 . S
C776 H747 0.950 . S
C776 C775 1.395 . S
C776 C777 1.288 . S
C777 C776 1.288 . S
C777 C778 1.392 . S
C778 H748 0.951 . S
C778 C777 1.392 . S
C778 C779 1.392 . S
C779 H749 0.949 . S
C779 C774 1.382 . S
C779 C778 1.392 . S
H780 C799 0.949 . S
H781 C800 0.950 . S
H782 C802 0.950 . S
H783 C803 0.950 . S
H784 C805 0.950 . S
H785 C808 0.950 . S
H786 C809 0.950 . S
H787 C811 0.951 . S
H788 C812 0.949 . S
H789 C814 0.949 . S
H790 C815 0.950 . S
H791 C817 0.950 . S
H792 C818 0.950 . S
H793 C820 0.950 . S
H794 C823 0.950 . S
H795 C824 0.950 . S
H796 C826 0.951 . S
H797 C827 0.949 . S
C798 C799 1.376 . S
C798 C803 1.386 1_545 S
C798 C804 1.483 . S
C799 H780 0.949 . S
C799 C798 1.376 . S
C799 C800 1.397 . S
C800 H781 0.950 . S
C800 C799 1.397 . S
C800 C801 1.391 . S
C801 C800 1.391 . S
C801 C802 1.405 1_545 S
C802 H782 0.950 . S
C802 C801 1.405 1_565 S
C802 C803 1.367 . S
C803 H783 0.950 . S
C803 C798 1.386 1_565 S
C803 C802 1.367 . S
C804 C798 1.483 . S
C804 C805 1.382 . S
C804 C806 1.403 1_545 S
C805 H784 0.950 . S
C805 C804 1.382 . S
C805 C821 1.411 . S
C806 C804 1.403 1_565 S
C806 C807 1.489 . S
C806 C820 1.411 . S
C807 C806 1.489 . S
C807 C808 1.383 1_565 S
C807 C812 1.382 . S
C808 H785 0.950 . S
C808 C807 1.383 1_545 S
C808 C809 1.395 . S
C809 H786 0.950 . S
C809 C808 1.395 . S
C809 C810 1.288 1_545 S
C810 C809 1.288 1_565 S
C810 C811 1.392 . S
C811 H787 0.951 . S
C811 C810 1.392 . S
C811 C812 1.392 . S
C812 H788 0.949 . S
C812 C807 1.382 . S
C812 C811 1.392 . S
C813 C814 1.376 . S
C813 C818 1.386 1_565 S
C813 C819 1.483 . S
C814 H789 0.949 . S
C814 C813 1.376 . S
C814 C815 1.397 . S
C815 H790 0.950 . S
C815 C814 1.397 . S
C815 C816 1.391 . S
C816 C815 1.391 . S
C816 C817 1.405 1_565 S
C817 H791 0.950 . S
C817 C816 1.405 1_545 S
C817 C818 1.367 . S
C818 H792 0.950 . S
C818 C813 1.386 1_545 S
C818 C817 1.367 . S
C819 C813 1.483 . S
C819 C820 1.382 . S
C819 C821 1.403 1_565 S
C820 H793 0.950 . S
C820 C806 1.411 . S
C820 C819 1.382 . S
C821 C805 1.411 . S
C821 C819 1.403 1_545 S
C821 C822 1.489 . S
C822 C821 1.489 . S
C822 C823 1.383 1_545 S
C822 C827 1.382 . S
C823 H794 0.950 . S
C823 C822 1.383 1_565 S
C823 C824 1.395 . S
C824 H795 0.950 . S
C824 C823 1.395 . S
C824 C825 1.288 1_565 S
C825 C824 1.288 1_545 S
C825 C826 1.392 . S
C826 H796 0.951 . S
C826 C825 1.392 . S
C826 C827 1.392 . S
C827 H797 0.949 . S
C827 C822 1.382 . S
C827 C826 1.392 . S
H828 C847 0.949 . S
H829 C848 0.950 . S
H830 C850 0.950 . S
H831 C851 0.950 . S
H832 C853 0.950 . S
H833 C856 0.950 . S
H834 C857 0.950 . S
H835 C859 0.951 . S
H836 C860 0.949 . S
H837 C862 0.949 . S
H838 C863 0.950 . S
H839 C865 0.950 . S
H840 C866 0.950 . S
H841 C868 0.950 . S
H842 C871 0.950 . S
H843 C872 0.950 . S
H844 C874 0.951 . S
H845 C875 0.949 . S
C846 C847 1.398 . S
C846 C851 1.376 1_545 S
C846 C852 1.500 . S
C847 H828 0.949 . S
C847 C846 1.398 . S
C847 C848 1.397 . S
C848 H829 0.950 . S
C848 C847 1.397 . S
C848 C849 1.391 1_545 S
C849 C848 1.391 1_565 S
C849 C850 1.405 . S
C850 H830 0.950 . S
C850 C849 1.405 . S
C850 C851 1.367 . S
C851 H831 0.950 . S
C851 C846 1.376 1_565 S
C851 C850 1.367 . S
C852 C846 1.500 . S
C852 C853 1.353 . S
C852 C854 1.400 1_545 S
C853 H832 0.950 . S
C853 C852 1.353 . S
C853 C869 1.442 . S
C854 C852 1.400 1_565 S
C854 C855 1.481 . S
C854 C868 1.431 . S
C855 C854 1.481 . S
C855 C856 1.363 1_565 S
C855 C860 1.392 . S
C856 H833 0.950 . S
C856 C855 1.363 1_545 S
C856 C857 1.395 . S
C857 H834 0.950 . S
C857 C856 1.395 . S
C857 C858 1.288 . S
C858 C857 1.288 . S
C858 C859 1.392 1_545 S
C859 H835 0.951 . S
C859 C858 1.392 1_565 S
C859 C860 1.392 . S
C860 H836 0.949 . S
C860 C855 1.392 . S
C860 C859 1.392 . S
C861 C862 1.382 . S
C861 C866 1.383 1_565 S
C861 C867 1.500 . S
C862 H837 0.949 . S
C862 C861 1.382 . S
C862 C863 1.397 . S
C863 H838 0.950 . S
C863 C862 1.397 . S
C863 C864 1.391 1_565 S
C864 C863 1.391 1_545 S
C864 C865 1.405 . S
C865 H839 0.950 . S
C865 C864 1.405 . S
C865 C866 1.367 . S
C866 H840 0.950 . S
C866 C861 1.383 1_545 S
C866 C865 1.367 . S
C867 C861 1.500 . S
C867 C868 1.361 . S
C867 C869 1.400 1_565 S
C868 H841 0.950 . S
C868 C854 1.431 . S
C868 C867 1.361 . S
C869 C853 1.442 . S
C869 C867 1.400 1_545 S
C869 C870 1.481 . S
C870 C869 1.481 . S
C870 C871 1.342 1_545 S
C870 C875 1.403 . S
C871 H842 0.950 . S
C871 C870 1.342 1_565 S
C871 C872 1.395 . S
C872 H843 0.950 . S
C872 C871 1.395 . S
C872 C873 1.288 . S
C873 C872 1.288 . S
C873 C874 1.392 1_565 S
C874 H844 0.951 . S
C874 C873 1.392 1_545 S
C874 C875 1.392 . S
C875 H845 0.949 . S
C875 C870 1.403 . S
C875 C874 1.392 . S
H876 C895 0.949 . S
H877 C896 0.950 . S
H878 C898 0.950 . S
H879 C899 0.950 . S
H880 C901 0.950 . S
H881 C904 0.950 . S
H882 C905 0.950 . S
H883 C907 0.951 . S
H884 C908 0.949 . S
H885 C910 0.949 . S
H886 C911 0.950 . S
H887 C913 0.950 . S
H888 C914 0.950 . S
H889 C916 0.950 . S
H890 C919 0.950 . S
H891 C920 0.950 . S
H892 C922 0.951 . S
H893 C923 0.949 . S
C894 C895 1.376 . S
C894 C899 1.386 1_455 S
C894 C900 1.483 . S
C895 H876 0.949 . S
C895 C894 1.376 . S
C895 C896 1.397 . S
C896 H877 0.950 . S
C896 C895 1.397 . S
C896 C897 1.391 . S
C897 C896 1.391 . S
C897 C898 1.405 1_455 S
C898 H878 0.950 . S
C898 C897 1.405 1_655 S
C898 C899 1.367 . S
C899 H879 0.950 . S
C899 C894 1.386 1_655 S
C899 C898 1.367 . S
C900 C894 1.483 . S
C900 C901 1.382 . S
C900 C902 1.403 1_455 S
C901 H880 0.950 . S
C901 C900 1.382 . S
C901 C917 1.411 . S
C902 C900 1.403 1_655 S
C902 C903 1.489 . S
C902 C916 1.411 . S
C903 C902 1.489 . S
C903 C904 1.383 1_655 S
C903 C908 1.382 . S
C904 H881 0.950 . S
C904 C903 1.383 1_455 S
C904 C905 1.395 . S
C905 H882 0.950 . S
C905 C904 1.395 . S
C905 C906 1.288 1_455 S
C906 C905 1.288 1_655 S
C906 C907 1.392 . S
C907 H883 0.951 . S
C907 C906 1.392 . S
C907 C908 1.392 . S
C908 H884 0.949 . S
C908 C903 1.382 . S
C908 C907 1.392 . S
C909 C910 1.376 . S
C909 C914 1.386 1_655 S
C909 C915 1.483 . S
C910 H885 0.949 . S
C910 C909 1.376 . S
C910 C911 1.397 . S
C911 H886 0.950 . S
C911 C910 1.397 . S
C911 C912 1.391 . S
C912 C911 1.391 . S
C912 C913 1.405 1_655 S
C913 H887 0.950 . S
C913 C912 1.405 1_455 S
C913 C914 1.367 . S
C914 H888 0.950 . S
C914 C909 1.386 1_455 S
C914 C913 1.367 . S
C915 C909 1.483 . S
C915 C916 1.382 . S
C915 C917 1.403 1_655 S
C916 H889 0.950 . S
C916 C902 1.411 . S
C916 C915 1.382 . S
C917 C901 1.411 . S
C917 C915 1.403 1_455 S
C917 C918 1.489 . S
C918 C917 1.489 . S
C918 C919 1.383 1_455 S
C918 C923 1.382 . S
C919 H890 0.950 . S
C919 C918 1.383 1_655 S
C919 C920 1.395 . S
C920 H891 0.950 . S
C920 C919 1.395 . S
C920 C921 1.288 1_655 S
C921 C920 1.288 1_455 S
C921 C922 1.392 . S
C922 H892 0.951 . S
C922 C921 1.392 . S
C922 C923 1.392 . S
C923 H893 0.949 . S
C923 C918 1.382 . S
C923 C922 1.392 . S
H924 C943 0.949 . S
H925 C944 0.950 . S
H926 C946 0.950 . S
H927 C947 0.950 . S
H928 C949 0.950 . S
H929 C952 0.950 . S
H930 C953 0.950 . S
H931 C955 0.951 . S
H932 C956 0.949 . S
H933 C958 0.949 . S
H934 C959 0.950 . S
H935 C961 0.950 . S
H936 C962 0.950 . S
H937 C964 0.950 . S
H938 C967 0.950 . S
H939 C968 0.950 . S
H940 C970 0.951 . S
H941 C971 0.949 . S
C942 C943 1.376 . S
C942 C947 1.386 . S
C942 C948 1.483 . S
C943 H924 0.949 . S
C943 C942 1.376 . S
C943 C944 1.397 . S
C944 H925 0.950 . S
C944 C943 1.397 . S
C944 C945 1.391 . S
C945 C944 1.391 . S
C945 C946 1.405 . S
C946 H926 0.950 . S
C946 C945 1.405 . S
C946 C947 1.367 . S
C947 H927 0.950 . S
C947 C942 1.386 . S
C947 C946 1.367 . S
C948 C942 1.483 . S
C948 C949 1.382 . S
C948 C950 1.403 . S
C949 H928 0.950 . S
C949 C948 1.382 . S
C949 C965 1.411 . S
C950 C948 1.403 . S
C950 C951 1.489 . S
C950 C964 1.411 . S
C951 C950 1.489 . S
C951 C952 1.383 . S
C951 C956 1.382 . S
C952 H929 0.950 . S
C952 C951 1.383 . S
C952 C953 1.395 . S
C953 H930 0.950 . S
C953 C952 1.395 . S
C953 C954 1.288 . S
C954 C953 1.288 . S
C954 C955 1.392 . S
C955 H931 0.951 . S
C955 C954 1.392 . S
C955 C956 1.392 . S
C956 H932 0.949 . S
C956 C951 1.382 . S
C956 C955 1.392 . S
C957 C958 1.376 . S
C957 C962 1.386 . S
C957 C963 1.483 . S
C958 H933 0.949 . S
C958 C957 1.376 . S
C958 C959 1.397 . S
C959 H934 0.950 . S
C959 C958 1.397 . S
C959 C960 1.391 . S
C960 C959 1.391 . S
C960 C961 1.405 . S
C961 H935 0.950 . S
C961 C960 1.405 . S
C961 C962 1.367 . S
C962 H936 0.950 . S
C962 C957 1.386 . S
C962 C961 1.367 . S
C963 C957 1.483 . S
C963 C964 1.382 . S
C963 C965 1.403 . S
C964 H937 0.950 . S
C964 C950 1.411 . S
C964 C963 1.382 . S
C965 C949 1.411 . S
C965 C963 1.403 . S
C965 C966 1.489 . S
C966 C965 1.489 . S
C966 C967 1.383 . S
C966 C971 1.382 . S
C967 H938 0.950 . S
C967 C966 1.383 . S
C967 C968 1.395 . S
C968 H939 0.950 . S
C968 C967 1.395 . S
C968 C969 1.288 . S
C969 C968 1.288 . S
C969 C970 1.392 . S
C970 H940 0.951 . S
C970 C969 1.392 . S
C970 C971 1.392 . S
C971 H941 0.949 . S
C971 C966 1.382 . S
C971 C970 1.392 . S
H972 C991 0.949 . S
H973 C992 0.950 . S
H974 C994 0.950 . S
H975 C995 0.950 . S
H976 C997 0.950 . S
H977 C1000 0.950 . S
H978 C1001 0.950 . S
H979 C1003 0.951 . S
H980 C1004 0.949 . S
H981 C1006 0.949 . S
H982 C1007 0.950 . S
H983 C1009 0.950 . S
H984 C1010 0.950 . S
H985 C1012 0.950 . S
H986 C1015 0.950 . S
H987 C1016 0.950 . S
H988 C1018 0.951 . S
H989 C1019 0.949 . S
C990 C991 1.376 . S
C990 C995 1.386 . S
C990 C996 1.483 . S
C991 H972 0.949 . S
C991 C990 1.376 . S
C991 C992 1.397 . S
C992 H973 0.950 . S
C992 C991 1.397 . S
C992 C993 1.391 . S
C993 C992 1.391 . S
C993 C994 1.405 . S
C994 H974 0.950 . S
C994 C993 1.405 . S
C994 C995 1.367 . S
C995 H975 0.950 . S
C995 C990 1.386 . S
C995 C994 1.367 . S
C996 C990 1.483 . S
C996 C997 1.382 . S
C996 C998 1.403 . S
C997 H976 0.950 . S
C997 C996 1.382 . S
C997 C1013 1.411 . S
C998 C996 1.403 . S
C998 C999 1.489 . S
C998 C1012 1.411 . S
C999 C998 1.489 . S
C999 C1000 1.383 . S
C999 C1004 1.382 . S
C1000 H977 0.950 . S
C1000 C999 1.383 . S
C1000 C1001 1.395 . S
C1001 H978 0.950 . S
C1001 C1000 1.395 . S
C1001 C1002 1.288 . S
C1002 C1001 1.288 . S
C1002 C1003 1.392 . S
C1003 H979 0.951 . S
C1003 C1002 1.392 . S
C1003 C1004 1.392 . S
C1004 H980 0.949 . S
C1004 C999 1.382 . S
C1004 C1003 1.392 . S
C1005 C1006 1.376 . S
C1005 C1010 1.386 . S
C1005 C1011 1.483 . S
C1006 H981 0.949 . S
C1006 C1005 1.376 . S
C1006 C1007 1.397 . S
C1007 H982 0.950 . S
C1007 C1006 1.397 . S
C1007 C1008 1.391 . S
C1008 C1007 1.391 . S
C1008 C1009 1.405 . S
C1009 H983 0.950 . S
C1009 C1008 1.405 . S
C1009 C1010 1.367 . S
C1010 H984 0.950 . S
C1010 C1005 1.386 . S
C1010 C1009 1.367 . S
C1011 C1005 1.483 . S
C1011 C1012 1.382 . S
C1011 C1013 1.403 . S
C1012 H985 0.950 . S
C1012 C998 1.411 . S
C1012 C1011 1.382 . S
C1013 C997 1.411 . S
C1013 C1011 1.403 . S
C1013 C1014 1.489 . S
C1014 C1013 1.489 . S
C1014 C1015 1.383 . S
C1014 C1019 1.382 . S
C1015 H986 0.950 . S
C1015 C1014 1.383 . S
C1015 C1016 1.395 . S
C1016 H987 0.950 . S
C1016 C1015 1.395 . S
C1016 C1017 1.288 . S
C1017 C1016 1.288 . S
C1017 C1018 1.392 . S
C1018 H988 0.951 . S
C1018 C1017 1.392 . S
C1018 C1019 1.392 . S
C1019 H989 0.949 . S
C1019 C1014 1.382 . S
C1019 C1018 1.392 . S
H1020 C1039 0.949 . S
H1021 C1040 0.950 . S
H1022 C1042 0.950 . S
H1023 C1043 0.950 . S
H1024 C1045 0.950 . S
H1025 C1048 0.950 . S
H1026 C1049 0.950 . S
H1027 C1051 0.951 . S
H1028 C1052 0.949 . S
H1029 C1054 0.949 . S
H1030 C1055 0.950 . S
H1031 C1057 0.950 . S
H1032 C1058 0.950 . S
H1033 C1060 0.950 . S
H1034 C1063 0.950 . S
H1035 C1064 0.950 . S
H1036 C1066 0.951 . S
H1037 C1067 0.949 . S
C1038 C1039 1.376 . S
C1038 C1043 1.386 . S
C1038 C1044 1.483 . S
C1039 H1020 0.949 . S
C1039 C1038 1.376 . S
C1039 C1040 1.397 . S
C1040 H1021 0.950 . S
C1040 C1039 1.397 . S
C1040 C1041 1.391 . S
C1041 C1040 1.391 . S
C1041 C1042 1.405 . S
C1042 H1022 0.950 . S
C1042 C1041 1.405 . S
C1042 C1043 1.367 . S
C1043 H1023 0.950 . S
C1043 C1038 1.386 . S
C1043 C1042 1.367 . S
C1044 C1038 1.483 . S
C1044 C1045 1.382 . S
C1044 C1046 1.403 . S
C1045 H1024 0.950 . S
C1045 C1044 1.382 . S
C1045 C1061 1.411 . S
C1046 C1044 1.403 . S
C1046 C1047 1.489 . S
C1046 C1060 1.411 . S
C1047 C1046 1.489 . S
C1047 C1048 1.383 . S
C1047 C1052 1.382 . S
C1048 H1025 0.950 . S
C1048 C1047 1.383 . S
C1048 C1049 1.395 . S
C1049 H1026 0.950 . S
C1049 C1048 1.395 . S
C1049 C1050 1.288 . S
C1050 C1049 1.288 . S
C1050 C1051 1.392 . S
C1051 H1027 0.951 . S
C1051 C1050 1.392 . S
C1051 C1052 1.392 . S
C1052 H1028 0.949 . S
C1052 C1047 1.382 . S
C1052 C1051 1.392 . S
C1053 C1054 1.376 . S
C1053 C1058 1.386 . S
C1053 C1059 1.483 . S
C1054 H1029 0.949 . S
C1054 C1053 1.376 . S
C1054 C1055 1.397 . S
C1055 H1030 0.950 . S
C1055 C1054 1.397 . S
C1055 C1056 1.391 . S
C1056 C1055 1.391 . S
C1056 C1057 1.405 . S
C1057 H1031 0.950 . S
C1057 C1056 1.405 . S
C1057 C1058 1.367 . S
C1058 H1032 0.950 . S
C1058 C1053 1.386 . S
C1058 C1057 1.367 . S
C1059 C1053 1.483 . S
C1059 C1060 1.382 . S
C1059 C1061 1.403 . S
C1060 H1033 0.950 . S
C1060 C1046 1.411 . S
C1060 C1059 1.382 . S
C1061 C1045 1.411 . S
C1061 C1059 1.403 . S
C1061 C1062 1.489 . S
C1062 C1061 1.489 . S
C1062 C1063 1.383 . S
C1062 C1067 1.382 . S
C1063 H1034 0.950 . S
C1063 C1062 1.383 . S
C1063 C1064 1.395 . S
C1064 H1035 0.950 . S
C1064 C1063 1.395 . S
C1064 C1065 1.288 . S
C1065 C1064 1.288 . S
C1065 C1066 1.392 . S
C1066 H1036 0.951 . S
C1066 C1065 1.392 . S
C1066 C1067 1.392 . S
C1067 H1037 0.949 . S
C1067 C1062 1.382 . S
C1067 C1066 1.392 . S
H1068 C1087 0.949 . S
H1069 C1088 0.950 . S
H1070 C1090 0.950 . S
H1071 C1091 0.950 . S
H1072 C1093 0.950 . S
H1073 C1096 0.950 . S
H1074 C1097 0.950 . S
H1075 C1099 0.951 . S
H1076 C1100 0.949 . S
H1077 C1102 0.949 . S
H1078 C1103 0.950 . S
H1079 C1105 0.950 . S
H1080 C1106 0.950 . S
H1081 C1108 0.950 . S
H1082 C1111 0.950 . S
H1083 C1112 0.950 . S
H1084 C1114 0.951 . S
H1085 C1115 0.949 . S
C1086 C1087 1.376 . S
C1086 C1091 1.386 . S
C1086 C1092 1.483 . S
C1087 H1068 0.949 . S
C1087 C1086 1.376 . S
C1087 C1088 1.397 . S
C1088 H1069 0.950 . S
C1088 C1087 1.397 . S
C1088 C1089 1.391 . S
C1089 C1088 1.391 . S
C1089 C1090 1.405 . S
C1090 H1070 0.950 . S
C1090 C1089 1.405 . S
C1090 C1091 1.367 . S
C1091 H1071 0.950 . S
C1091 C1086 1.386 . S
C1091 C1090 1.367 . S
C1092 C1086 1.483 . S
C1092 C1093 1.382 . S
C1092 C1094 1.403 . S
C1093 H1072 0.950 . S
C1093 C1092 1.382 . S
C1093 C1109 1.411 . S
C1094 C1092 1.403 . S
C1094 C1095 1.489 . S
C1094 C1108 1.411 . S
C1095 C1094 1.489 . S
C1095 C1096 1.383 . S
C1095 C1100 1.382 . S
C1096 H1073 0.950 . S
C1096 C1095 1.383 . S
C1096 C1097 1.395 . S
C1097 H1074 0.950 . S
C1097 C1096 1.395 . S
C1097 C1098 1.288 . S
C1098 C1097 1.288 . S
C1098 C1099 1.392 . S
C1099 H1075 0.951 . S
C1099 C1098 1.392 . S
C1099 C1100 1.392 . S
C1100 H1076 0.949 . S
C1100 C1095 1.382 . S
C1100 C1099 1.392 . S
C1101 C1102 1.376 . S
C1101 C1106 1.386 . S
C1101 C1107 1.483 . S
C1102 H1077 0.949 . S
C1102 C1101 1.376 . S
C1102 C1103 1.397 . S
C1103 H1078 0.950 . S
C1103 C1102 1.397 . S
C1103 C1104 1.391 . S
C1104 C1103 1.391 . S
C1104 C1105 1.405 . S
C1105 H1079 0.950 . S
C1105 C1104 1.405 . S
C1105 C1106 1.367 . S
C1106 H1080 0.950 . S
C1106 C1101 1.386 . S
C1106 C1105 1.367 . S
C1107 C1101 1.483 . S
C1107 C1108 1.382 . S
C1107 C1109 1.403 . S
C1108 H1081 0.950 . S
C1108 C1094 1.411 . S
C1108 C1107 1.382 . S
C1109 C1093 1.411 . S
C1109 C1107 1.403 . S
C1109 C1110 1.489 . S
C1110 C1109 1.489 . S
C1110 C1111 1.383 . S
C1110 C1115 1.382 . S
C1111 H1082 0.950 . S
C1111 C1110 1.383 . S
C1111 C1112 1.395 . S
C1112 H1083 0.950 . S
C1112 C1111 1.395 . S
C1112 C1113 1.288 . S
C1113 C1112 1.288 . S
C1113 C1114 1.392 . S
C1114 H1084 0.951 . S
C1114 C1113 1.392 . S
C1114 C1115 1.392 . S
C1115 H1085 0.949 . S
C1115 C1110 1.382 . S
C1115 C1114 1.392 . S
H1116 C1124 0.929 . S
H1117 C1126 0.930 . S
H1118 C1128 0.930 . S
H1119 C1131 0.929 . S
H1120 C1134 0.930 . S
H1121 C1136 0.960 . S
H1122 C1136 0.960 1_655 S
H1123 C1136 0.960 . S
C1124 H1116 0.929 . S
C1124 C1125 1.377 . S
C1124 C1126 1.384 . S
C1125 C1124 1.377 . S
C1125 C1131 1.390 1_655 S
C1126 H1117 0.930 . S
C1126 C1124 1.384 . S
C1126 C1127 1.372 . S
C1127 C1126 1.372 . S
C1127 C1128 1.400 1_655 S
C1127 C1132 1.490 . S
C1128 H1118 0.930 . S
C1128 C1127 1.400 1_455 S
C1128 C1131 1.386 . S
H1129 C1145 0.930 . S
H1130 C1146 0.931 . S
C1131 H1119 0.929 . S
C1131 C1125 1.390 1_455 S
C1131 C1128 1.386 . S
C1132 C1127 1.490 . S
C1132 C1134 1.395 . S
C1132 C1135 1.401 . S
H1133 C1139 0.934 1_455 S
C1134 H1120 0.930 . S
C1134 C1132 1.395 . S
C1134 C1137 1.403 . S
C1135 C1132 1.401 . S
C1135 C1136 1.524 1_655 S
C1135 C1139 1.398 . S
C1136 H1121 0.960 . S
C1136 H1122 0.960 1_455 S
C1136 H1123 0.960 . S
C1136 C1135 1.524 1_455 S
C1137 C1134 1.403 . S
C1137 C1138 1.392 . S
C1137 C1141 1.495 . S
C1138 C1137 1.392 . S
C1138 C1139 1.385 . S
C1138 C1140 1.478 . S
C1139 H1133 0.934 1_655 S
C1139 C1135 1.398 . S
C1139 C1138 1.385 . S
C1140 C1138 1.478 . S
C1140 C1142 1.381 . S
C1140 C1146 1.383 1_655 S
C1141 C1137 1.495 . S
C1141 H1147 0.959 . S
C1141 H1148 0.961 1_655 S
C1141 H1149 0.960 . S
C1142 C1140 1.381 . S
C1142 C1143 1.394 . S
C1142 H1150 0.930 . S
C1143 C1142 1.394 . S
C1143 C1144 1.383 . S
C1143 H1151 0.929 . S
C1144 C1143 1.383 . S
C1144 C1145 1.377 1_655 S
C1145 H1129 0.930 . S
C1145 C1144 1.377 1_455 S
C1145 C1146 1.379 . S
C1146 H1130 0.931 . S
C1146 C1140 1.383 1_455 S
C1146 C1145 1.379 . S
H1147 C1141 0.959 . S
H1148 C1141 0.961 1_455 S
H1149 C1141 0.960 . S
H1150 C1142 0.930 . S
H1151 C1143 0.929 . S
H1152 C1160 0.929 . S
H1153 C1162 0.930 . S
H1154 C1164 0.930 . S
H1155 C1167 0.929 . S
H1156 C1170 0.930 . S
H1157 C1172 0.960 . S
H1158 C1172 0.960 . S
H1159 C1172 0.960 . S
C1160 H1152 0.929 . S
C1160 C1161 1.377 . S
C1160 C1162 1.384 . S
C1161 C1160 1.377 . S
C1161 C1167 1.390 . S
C1162 H1153 0.930 . S
C1162 C1160 1.384 . S
C1162 C1163 1.372 . S
C1163 C1162 1.372 . S
C1163 C1164 1.400 . S
C1163 C1168 1.490 . S
C1164 H1154 0.930 . S
C1164 C1163 1.400 . S
C1164 C1167 1.386 . S
H1165 C1181 0.930 . S
H1166 C1182 0.931 . S
C1167 H1155 0.929 . S
C1167 C1161 1.390 . S
C1167 C1164 1.386 . S
C1168 C1163 1.490 . S
C1168 C1170 1.395 . S
C1168 C1171 1.403 . S
H1169 C1175 0.930 . S
C1170 H1156 0.930 . S
C1170 C1168 1.395 . S
C1170 C1173 1.403 . S
C1171 C1168 1.403 . S
C1171 C1172 1.524 . S
C1171 C1175 1.400 . S
C1172 H1157 0.960 . S
C1172 H1158 0.960 . S
C1172 H1159 0.960 . S
C1172 C1171 1.524 . S
C1173 C1170 1.403 . S
C1173 C1174 1.392 . S
C1173 C1177 1.495 . S
C1174 C1173 1.392 . S
C1174 C1175 1.385 . S
C1174 C1176 1.478 . S
C1175 H1169 0.930 . S
C1175 C1171 1.400 . S
C1175 C1174 1.385 . S
C1176 C1174 1.478 . S
C1176 C1178 1.381 . S
C1176 C1182 1.383 . S
C1177 C1173 1.495 . S
C1177 H1183 0.959 . S
C1177 H1184 0.961 . S
C1177 H1185 0.960 . S
C1178 C1176 1.381 . S
C1178 C1179 1.394 . S
C1178 H1186 0.930 . S
C1179 C1178 1.394 . S
C1179 C1180 1.383 . S
C1179 H1187 0.929 . S
C1180 C1179 1.383 . S
C1180 C1181 1.377 . S
C1181 H1165 0.930 . S
C1181 C1180 1.377 . S
C1181 C1182 1.379 . S
C1182 H1166 0.931 . S
C1182 C1176 1.383 . S
C1182 C1181 1.379 . S
H1183 C1177 0.959 . S
H1184 C1177 0.961 . S
H1185 C1177 0.960 . S
H1186 C1178 0.930 . S
H1187 C1179 0.929 . S
H1188 C1196 0.929 . S
H1189 C1198 0.930 . S
H1190 C1200 0.909 1_565 S
H1191 C1203 0.929 1_565 S
H1192 C1206 0.930 . S
H1193 C1208 0.960 . S
H1194 C1208 0.960 . S
H1195 C1208 0.960 . S
C1196 H1188 0.929 . S
C1196 C1197 1.377 . S
C1196 C1198 1.384 . S
C1197 C1196 1.377 . S
C1197 C1203 1.390 . S
C1198 H1189 0.930 . S
C1198 C1196 1.384 . S
C1198 C1199 1.372 . S
C1199 C1198 1.372 . S
C1199 C1200 1.393 . S
C1199 C1204 1.490 . S
C1200 H1190 0.909 1_545 S
C1200 C1199 1.393 . S
C1200 C1203 1.419 . S
H1201 C1217 0.919 1_565 S
H1202 C1218 0.944 1_565 S
C1203 H1191 0.929 1_545 S
C1203 C1197 1.390 . S
C1203 C1200 1.419 . S
C1204 C1199 1.490 . S
C1204 C1206 1.395 . S
C1204 C1207 1.403 1_545 S
H1205 C1211 0.930 . S
C1206 H1192 0.930 . S
C1206 C1204 1.395 . S
C1206 C1209 1.403 . S
C1207 C1204 1.403 1_565 S
C1207 C1208 1.524 . S
C1207 C1211 1.400 . S
C1208 H1193 0.960 . S
C1208 H1194 0.960 . S
C1208 H1195 0.960 . S
C1208 C1207 1.524 . S
C1209 C1206 1.403 . S
C1209 C1210 1.392 . S
C1209 C1213 1.495 . S
C1210 C1209 1.392 . S
C1210 C1211 1.385 1_545 S
C1210 C1212 1.478 . S
C1211 H1205 0.930 . S
C1211 C1207 1.400 . S
C1211 C1210 1.385 1_565 S
C1212 C1210 1.478 . S
C1212 C1214 1.381 . S
C1212 C1218 1.383 . S
C1213 C1209 1.495 . S
C1213 H1219 0.959 . S
C1213 H1220 0.961 . S
C1213 H1221 0.960 . S
C1214 C1212 1.381 . S
C1214 C1215 1.394 . S
C1214 H1222 0.930 . S
C1215 C1214 1.394 . S
C1215 C1216 1.383 . S
C1215 H1223 0.929 . S
C1216 C1215 1.383 . S
C1216 C1217 1.365 . S
C1217 H1201 0.919 1_545 S
C1217 C1216 1.365 . S
C1217 C1218 1.404 . S
C1218 H1202 0.944 1_545 S
C1218 C1212 1.383 . S
C1218 C1217 1.404 . S
H1219 C1213 0.959 . S
H1220 C1213 0.961 . S
H1221 C1213 0.960 . S
H1222 C1214 0.930 . S
H1223 C1215 0.929 . S
H1224 C1232 0.929 . S
H1225 C1234 0.930 . S
H1226 C1236 0.930 . S
H1227 C1239 0.929 . S
H1228 C1242 0.930 . S
H1229 C1244 0.960 . S
H1230 C1244 0.960 . S
H1231 C1244 0.964 . S
C1232 H1224 0.929 . S
C1232 C1233 1.377 1_565 S
C1232 C1234 1.384 . S
C1233 C1232 1.377 1_545 S
C1233 C1239 1.390 . S
C1234 H1225 0.930 . S
C1234 C1232 1.384 . S
C1234 C1235 1.373 . S
C1235 C1234 1.373 . S
C1235 C1236 1.397 1_565 S
C1235 C1240 1.479 . S
C1236 H1226 0.930 . S
C1236 C1235 1.397 1_545 S
C1236 C1239 1.386 . S
H1237 C1253 0.930 . S
H1238 C1254 0.931 . S
C1239 H1227 0.929 . S
C1239 C1233 1.390 . S
C1239 C1236 1.386 . S
C1240 C1235 1.479 . S
C1240 C1242 1.384 1_565 S
C1240 C1243 1.428 . S
H1241 C1247 0.930 . S
C1242 H1228 0.930 . S
C1242 C1240 1.384 1_545 S
C1242 C1245 1.403 . S
C1243 C1240 1.428 . S
C1243 C1244 1.524 . S
C1243 C1247 1.400 . S
C1244 H1229 0.960 . S
C1244 H1230 0.960 . S
C1244 H1231 0.964 . S
C1244 C1243 1.524 . S
C1245 C1242 1.403 . S
C1245 C1246 1.372 1_545 S
C1245 C1249 1.495 . S
C1246 C1245 1.372 1_565 S
C1246 C1247 1.395 . S
C1246 C1248 1.477 . S
C1247 H1241 0.930 . S
C1247 C1243 1.400 . S
C1247 C1246 1.395 . S
C1248 C1246 1.477 . S
C1248 C1250 1.401 . S
C1248 C1254 1.377 1_565 S
C1249 C1245 1.495 . S
C1249 H1255 0.959 . S
C1249 H1256 0.961 . S
C1249 H1257 0.960 1_545 S
C1250 C1248 1.401 . S
C1250 C1251 1.394 . S
C1250 H1258 0.930 . S
C1251 C1250 1.394 . S
C1251 C1252 1.383 . S
C1251 H1259 0.929 . S
C1252 C1251 1.383 . S
C1252 C1253 1.377 1_565 S
C1253 H1237 0.930 . S
C1253 C1252 1.377 1_545 S
C1253 C1254 1.379 . S
C1254 H1238 0.931 . S
C1254 C1248 1.377 1_545 S
C1254 C1253 1.379 . S
H1255 C1249 0.959 . S
H1256 C1249 0.961 . S
H1257 C1249 0.960 1_565 S
H1258 C1250 0.930 . S
H1259 C1251 0.929 . S
H1260 C1268 0.929 . S
H1261 C1270 0.930 . S
H1262 C1272 0.930 . S
H1263 C1275 0.929 . S
H1264 C1278 0.930 . S
H1265 C1280 0.960 . S
H1266 C1280 0.960 . S
H1267 C1280 0.960 . S
C1268 H1260 0.929 . S
C1268 C1269 1.377 . S
C1268 C1270 1.384 . S
C1269 C1268 1.377 . S
C1269 C1275 1.390 1_455 S
C1270 H1261 0.930 . S
C1270 C1268 1.384 . S
C1270 C1271 1.372 . S
C1271 C1270 1.372 . S
C1271 C1272 1.400 1_455 S
C1271 C1276 1.490 . S
C1272 H1262 0.930 . S
C1272 C1271 1.400 1_655 S
C1272 C1275 1.386 . S
H1273 C1289 0.930 . S
H1274 C1290 0.931 . S
C1275 H1263 0.929 . S
C1275 C1269 1.390 1_655 S
C1275 C1272 1.386 . S
C1276 C1271 1.490 . S
C1276 C1278 1.395 1_455 S
C1276 C1279 1.403 . S
H1277 C1283 0.930 . S
C1278 H1264 0.930 . S
C1278 C1276 1.395 1_655 S
C1278 C1281 1.403 . S
C1279 C1276 1.403 . S
C1279 C1280 1.524 . S
C1279 C1283 1.400 . S
C1280 H1265 0.960 . S
C1280 H1266 0.960 . S
C1280 H1267 0.960 . S
C1280 C1279 1.524 . S
C1281 C1278 1.403 . S
C1281 C1282 1.392 1_655 S
C1281 C1285 1.495 . S
C1282 C1281 1.392 1_455 S
C1282 C1283 1.385 . S
C1282 C1284 1.478 . S
C1283 H1277 0.930 . S
C1283 C1279 1.400 . S
C1283 C1282 1.385 . S
C1284 C1282 1.478 . S
C1284 C1286 1.381 . S
C1284 C1290 1.383 1_455 S
C1285 C1281 1.495 . S
C1285 H1291 0.959 . S
C1285 H1292 0.961 . S
C1285 H1293 0.960 . S
C1286 C1284 1.381 . S
C1286 C1287 1.394 . S
C1286 H1294 0.930 . S
C1287 C1286 1.394 . S
C1287 C1288 1.383 . S
C1287 H1295 0.929 . S
C1288 C1287 1.383 . S
C1288 C1289 1.377 1_455 S
C1289 H1273 0.930 . S
C1289 C1288 1.377 1_655 S
C1289 C1290 1.379 . S
C1290 H1274 0.931 . S
C1290 C1284 1.383 1_655 S
C1290 C1289 1.379 . S
H1291 C1285 0.959 . S
H1292 C1285 0.961 . S
H1293 C1285 0.960 . S
H1294 C1286 0.930 . S
H1295 C1287 0.929 . S
H1296 C1304 0.929 . S
H1297 C1306 0.930 . S
H1298 C1308 0.930 . S
H1299 C1311 0.929 . S
H1300 C1314 0.930 . S
H1301 C1316 0.960 . S
H1302 C1316 0.960 . S
H1303 C1316 0.960 . S
C1304 H1296 0.929 . S
C1304 C1305 1.377 . S
C1304 C1306 1.384 . S
C1305 C1304 1.377 . S
C1305 C1311 1.390 . S
C1306 H1297 0.930 . S
C1306 C1304 1.384 . S
C1306 C1307 1.372 . S
C1307 C1306 1.372 . S
C1307 C1308 1.400 . S
C1307 C1312 1.490 . S
C1308 H1298 0.930 . S
C1308 C1307 1.400 . S
C1308 C1311 1.386 . S
H1309 C1325 0.930 . S
H1310 C1326 0.931 . S
C1311 H1299 0.929 . S
C1311 C1305 1.390 . S
C1311 C1308 1.386 . S
C1312 C1307 1.490 . S
C1312 C1314 1.395 . S
C1312 C1315 1.403 . S
H1313 C1319 0.930 . S
C1314 H1300 0.930 . S
C1314 C1312 1.395 . S
C1314 C1317 1.403 . S
C1315 C1312 1.403 . S
C1315 C1316 1.524 . S
C1315 C1319 1.400 . S
C1316 H1301 0.960 . S
C1316 H1302 0.960 . S
C1316 H1303 0.960 . S
C1316 C1315 1.524 . S
C1317 C1314 1.403 . S
C1317 C1318 1.392 . S
C1317 C1321 1.495 . S
C1318 C1317 1.392 . S
C1318 C1319 1.385 . S
C1318 C1320 1.478 . S
C1319 H1313 0.930 . S
C1319 C1315 1.400 . S
C1319 C1318 1.385 . S
C1320 C1318 1.478 . S
C1320 C1322 1.381 . S
C1320 C1326 1.383 . S
C1321 C1317 1.495 . S
C1321 H1327 0.959 . S
C1321 H1328 0.961 . S
C1321 H1329 0.960 . S
C1322 C1320 1.381 . S
C1322 C1323 1.394 . S
C1322 H1330 0.930 . S
C1323 C1322 1.394 . S
C1323 C1324 1.383 . S
C1323 H1331 0.929 . S
C1324 C1323 1.383 . S
C1324 C1325 1.377 . S
C1325 H1309 0.930 . S
C1325 C1324 1.377 . S
C1325 C1326 1.379 . S
C1326 H1310 0.931 . S
C1326 C1320 1.383 . S
C1326 C1325 1.379 . S
H1327 C1321 0.959 . S
H1328 C1321 0.961 . S
H1329 C1321 0.960 . S
H1330 C1322 0.930 . S
H1331 C1323 0.929 . S
H1332 C1340 0.929 . S
H1333 C1342 0.930 . S
H1334 C1344 0.930 . S
H1335 C1347 0.929 . S
H1336 C1350 0.930 . S
H1337 C1352 0.960 . S
H1338 C1352 0.960 1_655 S
H1339 C1352 0.960 . S
C1340 H1332 0.929 . S
C1340 C1341 1.377 1_655 S
C1340 C1342 1.384 . S
C1341 C1340 1.377 1_455 S
C1341 C1347 1.390 . S
C1342 H1333 0.930 . S
C1342 C1340 1.384 . S
C1342 C1343 1.372 1_655 S
C1343 C1342 1.372 1_455 S
C1343 C1344 1.400 . S
C1343 C1348 1.490 . S
C1344 H1334 0.930 . S
C1344 C1343 1.400 . S
C1344 C1347 1.386 . S
H1345 C1361 0.930 . S
H1346 C1362 0.931 . S
C1347 H1335 0.929 . S
C1347 C1341 1.390 . S
C1347 C1344 1.386 . S
C1348 C1343 1.490 . S
C1348 C1350 1.395 . S
C1348 C1351 1.403 . S
H1349 C1355 0.930 . S
C1350 H1336 0.930 . S
C1350 C1348 1.395 . S
C1350 C1353 1.403 . S
C1351 C1348 1.403 . S
C1351 C1352 1.524 . S
C1351 C1355 1.400 . S
C1352 H1337 0.960 . S
C1352 H1338 0.960 1_455 S
C1352 H1339 0.960 . S
C1352 C1351 1.524 . S
C1353 C1350 1.403 . S
C1353 C1354 1.392 . S
C1353 C1357 1.495 . S
C1354 C1353 1.392 . S
C1354 C1355 1.385 . S
C1354 C1356 1.478 . S
C1355 H1349 0.930 . S
C1355 C1351 1.400 . S
C1355 C1354 1.385 . S
C1356 C1354 1.478 . S
C1356 C1358 1.381 1_455 S
C1356 C1362 1.383 . S
C1357 C1353 1.495 . S
C1357 H1363 0.959 . S
C1357 H1364 0.961 . S
C1357 H1365 0.960 1_455 S
C1358 C1356 1.381 1_655 S
C1358 C1359 1.394 . S
C1358 H1366 0.930 . S
C1359 C1358 1.394 . S
C1359 C1360 1.383 1_655 S
C1359 H1367 0.929 . S
C1360 C1359 1.383 1_455 S
C1360 C1361 1.377 . S
C1361 H1345 0.930 . S
C1361 C1360 1.377 . S
C1361 C1362 1.379 . S
C1362 H1346 0.931 . S
C1362 C1356 1.383 . S
C1362 C1361 1.379 . S
H1363 C1357 0.959 . S
H1364 C1357 0.961 . S
H1365 C1357 0.960 1_655 S
H1366 C1358 0.930 . S
H1367 C1359 0.929 . S
H1368 C1376 0.929 . S
H1369 C1378 0.930 . S
H1370 C1380 0.930 . S
H1371 C1383 0.929 . S
H1372 C1386 0.930 . S
H1373 C1388 0.960 . S
H1374 C1388 0.960 . S
H1375 C1388 0.960 . S
C1376 H1368 0.929 . S
C1376 C1377 1.377 . S
C1376 C1378 1.384 . S
C1377 C1376 1.377 . S
C1377 C1383 1.390 . S
C1378 H1369 0.930 . S
C1378 C1376 1.384 . S
C1378 C1379 1.372 . S
C1379 C1378 1.372 . S
C1379 C1380 1.400 . S
C1379 C1384 1.490 . S
C1380 H1370 0.930 . S
C1380 C1379 1.400 . S
C1380 C1383 1.386 . S
H1381 C1397 0.930 . S
H1382 C1398 0.931 . S
C1383 H1371 0.929 . S
C1383 C1377 1.390 . S
C1383 C1380 1.386 . S
C1384 C1379 1.490 . S
C1384 C1386 1.395 . S
C1384 C1387 1.403 . S
H1385 C1391 0.930 . S
C1386 H1372 0.930 . S
C1386 C1384 1.395 . S
C1386 C1389 1.403 . S
C1387 C1384 1.403 . S
C1387 C1388 1.524 . S
C1387 C1391 1.400 . S
C1388 H1373 0.960 . S
C1388 H1374 0.960 . S
C1388 H1375 0.960 . S
C1388 C1387 1.524 . S
C1389 C1386 1.403 . S
C1389 C1390 1.392 . S
C1389 C1393 1.495 . S
C1390 C1389 1.392 . S
C1390 C1391 1.385 . S
C1390 C1392 1.478 . S
C1391 H1385 0.930 . S
C1391 C1387 1.400 . S
C1391 C1390 1.385 . S
C1392 C1390 1.478 . S
C1392 C1394 1.381 . S
C1392 C1398 1.383 . S
C1393 C1389 1.495 . S
C1393 H1399 0.959 . S
C1393 H1400 0.961 . S
C1393 H1401 0.960 . S
C1394 C1392 1.381 . S
C1394 C1395 1.394 . S
C1394 H1402 0.930 . S
C1395 C1394 1.394 . S
C1395 C1396 1.383 . S
C1395 H1403 0.929 . S
C1396 C1395 1.383 . S
C1396 C1397 1.377 . S
C1397 H1381 0.930 . S
C1397 C1396 1.377 . S
C1397 C1398 1.379 . S
C1398 H1382 0.931 . S
C1398 C1392 1.383 . S
C1398 C1397 1.379 . S
H1399 C1393 0.959 . S
H1400 C1393 0.961 . S
H1401 C1393 0.960 . S
H1402 C1394 0.930 . S
H1403 C1395 0.929 . S
H1404 C1412 0.929 . S
H1405 C1414 0.930 . S
H1406 C1416 0.930 . S
H1407 C1419 0.929 . S
H1408 C1422 0.930 . S
H1409 C1424 0.960 . S
H1410 C1424 0.960 . S
H1411 C1424 0.960 1_545 S
C1412 H1404 0.929 . S
C1412 C1413 1.377 . S
C1412 C1414 1.384 . S
C1413 C1412 1.377 . S
C1413 C1419 1.390 1_565 S
C1414 H1405 0.930 . S
C1414 C1412 1.384 . S
C1414 C1415 1.372 . S
C1415 C1414 1.372 . S
C1415 C1416 1.400 1_565 S
C1415 C1420 1.490 . S
C1416 H1406 0.930 . S
C1416 C1415 1.400 1_545 S
C1416 C1419 1.386 . S
H1417 C1433 0.930 . S
H1418 C1434 0.931 . S
C1419 H1407 0.929 . S
C1419 C1413 1.390 1_545 S
C1419 C1416 1.386 . S
C1420 C1415 1.490 . S
C1420 C1422 1.395 . S
C1420 C1423 1.403 . S
H1421 C1427 0.930 . S
C1422 H1408 0.930 . S
C1422 C1420 1.395 . S
C1422 C1425 1.403 . S
C1423 C1420 1.403 . S
C1423 C1424 1.524 . S
C1423 C1427 1.400 . S
C1424 H1409 0.960 . S
C1424 H1410 0.960 . S
C1424 H1411 0.960 1_565 S
C1424 C1423 1.524 . S
C1425 C1422 1.403 . S
C1425 C1426 1.392 . S
C1425 C1429 1.495 . S
C1426 C1425 1.392 . S
C1426 C1427 1.385 . S
C1426 C1428 1.478 . S
C1427 H1421 0.930 . S
C1427 C1423 1.400 . S
C1427 C1426 1.385 . S
C1428 C1426 1.478 . S
C1428 C1430 1.381 . S
C1428 C1434 1.383 1_565 S
C1429 C1425 1.495 . S
C1429 H1435 0.959 . S
C1429 H1436 0.961 1_565 S
C1429 H1437 0.960 . S
C1430 C1428 1.381 . S
C1430 C1431 1.394 . S
C1430 H1438 0.930 . S
C1431 C1430 1.394 . S
C1431 C1432 1.383 . S
C1431 H1439 0.929 . S
C1432 C1431 1.383 . S
C1432 C1433 1.377 1_565 S
C1433 H1417 0.930 . S
C1433 C1432 1.377 1_545 S
C1433 C1434 1.379 . S
C1434 H1418 0.931 . S
C1434 C1428 1.383 1_545 S
C1434 C1433 1.379 . S
H1435 C1429 0.959 . S
H1436 C1429 0.961 1_545 S
H1437 C1429 0.960 . S
H1438 C1430 0.930 . S
H1439 C1431 0.929 . S
H1440 C1448 0.929 . S
H1441 C1450 0.930 . S
H1442 C1452 0.930 . S
H1443 C1455 0.929 . S
H1444 C1458 0.930 . S
H1445 C1460 0.960 . S
H1446 C1460 0.960 . S
H1447 C1460 0.960 . S
C1448 H1440 0.929 . S
C1448 C1449 1.377 . S
C1448 C1450 1.384 . S
C1449 C1448 1.377 . S
C1449 C1455 1.390 . S
C1450 H1441 0.930 . S
C1450 C1448 1.384 . S
C1450 C1451 1.372 . S
C1451 C1450 1.372 . S
C1451 C1452 1.400 . S
C1451 C1456 1.490 . S
C1452 H1442 0.930 . S
C1452 C1451 1.400 . S
C1452 C1455 1.386 . S
H1453 C1469 0.930 . S
H1454 C1470 0.931 . S
C1455 H1443 0.929 . S
C1455 C1449 1.390 . S
C1455 C1452 1.386 . S
C1456 C1451 1.490 . S
C1456 C1458 1.395 . S
C1456 C1459 1.403 1_545 S
H1457 C1463 0.930 . S
C1458 H1444 0.930 . S
C1458 C1456 1.395 . S
C1458 C1461 1.403 . S
C1459 C1456 1.403 1_565 S
C1459 C1460 1.524 . S
C1459 C1463 1.400 . S
C1460 H1445 0.960 . S
C1460 H1446 0.960 . S
C1460 H1447 0.960 . S
C1460 C1459 1.524 . S
C1461 C1458 1.403 . S
C1461 C1462 1.392 . S
C1461 C1465 1.495 . S
C1462 C1461 1.392 . S
C1462 C1463 1.385 1_545 S
C1462 C1464 1.478 . S
C1463 H1457 0.930 . S
C1463 C1459 1.400 . S
C1463 C1462 1.385 1_565 S
C1464 C1462 1.478 . S
C1464 C1466 1.381 . S
C1464 C1470 1.383 . S
C1465 C1461 1.495 . S
C1465 H1471 0.959 . S
C1465 H1472 0.961 . S
C1465 H1473 0.960 . S
C1466 C1464 1.381 . S
C1466 C1467 1.394 . S
C1466 H1474 0.930 . S
C1467 C1466 1.394 . S
C1467 C1468 1.383 . S
C1467 H1475 0.953 . S
C1468 C1467 1.383 . S
C1468 C1469 1.377 . S
C1469 H1453 0.930 . S
C1469 C1468 1.377 . S
C1469 C1470 1.379 . S
C1470 H1454 0.931 . S
C1470 C1464 1.383 . S
C1470 C1469 1.379 . S
H1471 C1465 0.959 . S
H1472 C1465 0.961 . S
H1473 C1465 0.960 . S
H1474 C1466 0.930 . S
H1475 C1467 0.953 . S
H1476 C1484 0.931 . S
H1477 C1486 0.868 1_455 S
H1478 C1488 0.930 . S
H1479 C1491 0.929 . S
H1480 C1494 0.930 . S
H1481 C1496 0.960 . S
H1482 C1496 0.960 . S
H1483 C1496 0.960 . S
C1484 H1476 0.931 . S
C1484 C1485 1.377 . S
C1484 C1486 1.427 . S
C1485 C1484 1.377 . S
C1485 C1491 1.390 . S
C1486 H1477 0.868 1_655 S
C1486 C1484 1.427 . S
C1486 C1487 1.394 . S
C1487 C1486 1.394 . S
C1487 C1488 1.400 . S
C1487 C1492 1.490 . S
C1488 H1478 0.930 . S
C1488 C1487 1.400 . S
C1488 C1491 1.386 . S
H1489 C1505 0.930 . S
H1490 C1506 0.938 . S
C1491 H1479 0.929 . S
C1491 C1485 1.390 . S
C1491 C1488 1.386 . S
C1492 C1487 1.490 . S
C1492 C1494 1.395 1_655 S
C1492 C1495 1.403 . S
H1493 C1499 0.930 . S
C1494 H1480 0.930 . S
C1494 C1492 1.395 1_455 S
C1494 C1497 1.403 . S
C1495 C1492 1.403 . S
C1495 C1496 1.524 . S
C1495 C1499 1.400 . S
C1496 H1481 0.960 . S
C1496 H1482 0.960 . S
C1496 H1483 0.960 . S
C1496 C1495 1.524 . S
C1497 C1494 1.403 . S
C1497 C1498 1.385 1_455 S
C1497 C1501 1.495 . S
C1498 C1497 1.385 1_655 S
C1498 C1499 1.398 . S
C1498 C1500 1.470 . S
C1499 H1493 0.930 . S
C1499 C1495 1.400 . S
C1499 C1498 1.398 . S
C1500 C1498 1.470 . S
C1500 C1502 1.385 . S
C1500 C1506 1.373 . S
C1501 C1497 1.495 . S
C1501 H1507 0.959 . S
C1501 H1508 0.961 . S
C1501 H1509 0.960 . S
C1502 C1500 1.385 . S
C1502 C1503 1.394 . S
C1502 H1510 0.924 1_655 S
C1503 C1502 1.394 . S
C1503 C1504 1.383 . S
C1503 H1511 0.929 . S
C1504 C1503 1.383 . S
C1504 C1505 1.377 . S
C1505 H1489 0.930 . S
C1505 C1504 1.377 . S
C1505 C1506 1.359 . S
C1506 H1490 0.938 . S
C1506 C1500 1.373 . S
C1506 C1505 1.359 . S
H1507 C1501 0.959 . S
H1508 C1501 0.961 . S
H1509 C1501 0.960 . S
H1510 C1502 0.924 1_455 S
H1511 C1503 0.929 . S
H1512 C1520 0.929 . S
H1513 C1522 0.930 . S
H1514 C1524 0.930 . S
H1515 C1527 0.929 . S
H1516 C1530 0.930 . S
H1517 C1532 0.960 . S
H1518 C1532 0.960 . S
H1519 C1532 0.960 . S
C1520 H1512 0.929 . S
C1520 C1521 1.377 . S
C1520 C1522 1.384 . S
C1521 C1520 1.377 . S
C1521 C1527 1.390 . S
C1522 H1513 0.930 . S
C1522 C1520 1.384 . S
C1522 C1523 1.372 . S
C1523 C1522 1.372 . S
C1523 C1524 1.400 . S
C1523 C1528 1.490 . S
C1524 H1514 0.930 . S
C1524 C1523 1.400 . S
C1524 C1527 1.386 . S
H1525 C1541 0.930 . S
H1526 C1542 0.931 . S
C1527 H1515 0.929 . S
C1527 C1521 1.390 . S
C1527 C1524 1.386 . S
C1528 C1523 1.490 . S
C1528 C1530 1.395 . S
C1528 C1531 1.403 . S
H1529 C1535 0.930 . S
C1530 H1516 0.930 . S
C1530 C1528 1.395 . S
C1530 C1533 1.403 . S
C1531 C1528 1.403 . S
C1531 C1532 1.524 . S
C1531 C1535 1.400 . S
C1532 H1517 0.960 . S
C1532 H1518 0.960 . S
C1532 H1519 0.960 . S
C1532 C1531 1.524 . S
C1533 C1530 1.403 . S
C1533 C1534 1.392 . S
C1533 C1537 1.495 . S
C1534 C1533 1.392 . S
C1534 C1535 1.385 . S
C1534 C1536 1.478 . S
C1535 H1529 0.930 . S
C1535 C1531 1.400 . S
C1535 C1534 1.385 . S
C1536 C1534 1.478 . S
C1536 C1538 1.381 . S
C1536 C1542 1.383 . S
C1537 C1533 1.495 . S
C1537 H1543 0.959 . S
C1537 H1544 0.961 . S
C1537 H1545 0.960 . S
C1538 C1536 1.381 . S
C1538 C1539 1.394 . S
C1538 H1546 0.930 . S
C1539 C1538 1.394 . S
C1539 C1540 1.383 . S
C1539 H1547 0.929 . S
C1540 C1539 1.383 . S
C1540 C1541 1.377 . S
C1541 H1525 0.930 . S
C1541 C1540 1.377 . S
C1541 C1542 1.379 . S
C1542 H1526 0.931 . S
C1542 C1536 1.383 . S
C1542 C1541 1.379 . S
H1543 C1537 0.959 . S
H1544 C1537 0.961 . S
H1545 C1537 0.960 . S
H1546 C1538 0.930 . S
H1547 C1539 0.929 . S
H1548 C1556 0.929 . S
H1549 C1558 0.930 . S
H1550 C1560 0.930 . S
H1551 C1563 0.929 . S
H1552 C1566 0.930 . S
H1553 C1568 0.960 . S
H1554 C1568 0.960 . S
H1555 C1568 0.960 . S
C1556 H1548 0.929 . S
C1556 C1557 1.377 . S
C1556 C1558 1.384 . S
C1557 C1556 1.377 . S
C1557 C1563 1.390 . S
C1558 H1549 0.930 . S
C1558 C1556 1.384 . S
C1558 C1559 1.372 . S
C1559 C1558 1.372 . S
C1559 C1560 1.400 . S
C1559 C1564 1.490 . S
C1560 H1550 0.930 . S
C1560 C1559 1.400 . S
C1560 C1563 1.386 . S
H1561 C1577 0.930 . S
H1562 C1578 0.931 . S
C1563 H1551 0.929 . S
C1563 C1557 1.390 . S
C1563 C1560 1.386 . S
C1564 C1559 1.490 . S
C1564 C1566 1.395 . S
C1564 C1567 1.403 . S
H1565 C1571 0.930 . S
C1566 H1552 0.930 . S
C1566 C1564 1.395 . S
C1566 C1569 1.403 . S
C1567 C1564 1.403 . S
C1567 C1568 1.524 . S
C1567 C1571 1.400 . S
C1568 H1553 0.960 . S
C1568 H1554 0.960 . S
C1568 H1555 0.960 . S
C1568 C1567 1.524 . S
C1569 C1566 1.403 . S
C1569 C1570 1.392 . S
C1569 C1573 1.495 . S
C1570 C1569 1.392 . S
C1570 C1571 1.385 . S
C1570 C1572 1.478 . S
C1571 H1565 0.930 . S
C1571 C1567 1.400 . S
C1571 C1570 1.385 . S
C1572 C1570 1.478 . S
C1572 C1574 1.381 . S
C1572 C1578 1.383 . S
C1573 C1569 1.495 . S
C1573 H1579 0.959 . S
C1573 H1580 0.961 . S
C1573 H1581 0.960 . S
C1574 C1572 1.381 . S
C1574 C1575 1.394 . S
C1574 H1582 0.930 . S
C1575 C1574 1.394 . S
C1575 C1576 1.383 . S
C1575 H1583 0.929 . S
C1576 C1575 1.383 . S
C1576 C1577 1.377 . S
C1577 H1561 0.930 . S
C1577 C1576 1.377 . S
C1577 C1578 1.379 . S
C1578 H1562 0.931 . S
C1578 C1572 1.383 . S
C1578 C1577 1.379 . S
H1579 C1573 0.959 . S
H1580 C1573 0.961 . S
H1581 C1573 0.960 . S
H1582 C1574 0.930 . S
H1583 C1575 0.929 . S
H1584 C1592 0.929 . S
H1585 C1594 0.930 . S
H1586 C1596 0.930 . S
H1587 C1599 0.929 . S
H1588 C1602 0.930 . S
H1589 C1604 0.960 . S
H1590 C1604 0.960 . S
H1591 C1604 0.960 . S
C1592 H1584 0.929 . S
C1592 C1593 1.377 . S
C1592 C1594 1.384 . S
C1593 C1592 1.377 . S
C1593 C1599 1.390 . S
C1594 H1585 0.930 . S
C1594 C1592 1.384 . S
C1594 C1595 1.372 . S
C1595 C1594 1.372 . S
C1595 C1596 1.400 . S
C1595 C1600 1.490 . S
C1596 H1586 0.930 . S
C1596 C1595 1.400 . S
C1596 C1599 1.386 . S
H1597 C1613 0.930 . S
H1598 C1614 0.931 . S
C1599 H1587 0.929 . S
C1599 C1593 1.390 . S
C1599 C1596 1.386 . S
C1600 C1595 1.490 . S
C1600 C1602 1.395 . S
C1600 C1603 1.403 . S
H1601 C1607 0.930 . S
C1602 H1588 0.930 . S
C1602 C1600 1.395 . S
C1602 C1605 1.403 . S
C1603 C1600 1.403 . S
C1603 C1604 1.524 . S
C1603 C1607 1.400 . S
C1604 H1589 0.960 . S
C1604 H1590 0.960 . S
C1604 H1591 0.960 . S
C1604 C1603 1.524 . S
C1605 C1602 1.403 . S
C1605 C1606 1.392 . S
C1605 C1609 1.495 . S
C1606 C1605 1.392 . S
C1606 C1607 1.385 . S
C1606 C1608 1.478 . S
C1607 H1601 0.930 . S
C1607 C1603 1.400 . S
C1607 C1606 1.385 . S
C1608 C1606 1.478 . S
C1608 C1610 1.381 . S
C1608 C1614 1.383 . S
C1609 C1605 1.495 . S
C1609 H1615 0.959 . S
C1609 H1616 0.961 . S
C1609 H1617 0.960 . S
C1610 C1608 1.381 . S
C1610 C1611 1.394 . S
C1610 H1618 0.930 . S
C1611 C1610 1.394 . S
C1611 C1612 1.383 . S
C1611 H1619 0.929 . S
C1612 C1611 1.383 . S
C1612 C1613 1.377 . S
C1613 H1597 0.930 . S
C1613 C1612 1.377 . S
C1613 C1614 1.379 . S
C1614 H1598 0.931 . S
C1614 C1608 1.383 . S
C1614 C1613 1.379 . S
H1615 C1609 0.959 . S
H1616 C1609 0.961 . S
H1617 C1609 0.960 . S
H1618 C1610 0.930 . S
H1619 C1611 0.929 . S
H1620 C1628 0.929 . S
H1621 C1630 0.930 . S
H1622 C1632 0.930 . S
H1623 C1635 0.929 . S
H1624 C1638 0.930 . S
H1625 C1640 0.960 . S
H1626 C1640 0.960 . S
H1627 C1640 0.960 . S
C1628 H1620 0.929 . S
C1628 C1629 1.377 . S
C1628 C1630 1.384 . S
C1629 C1628 1.377 . S
C1629 C1635 1.390 . S
C1630 H1621 0.930 . S
C1630 C1628 1.384 . S
C1630 C1631 1.372 . S
C1631 C1630 1.372 . S
C1631 C1632 1.400 . S
C1631 C1636 1.490 . S
C1632 H1622 0.930 . S
C1632 C1631 1.400 . S
C1632 C1635 1.386 . S
H1633 C1649 0.930 . S
H1634 C1650 0.931 . S
C1635 H1623 0.929 . S
C1635 C1629 1.390 . S
C1635 C1632 1.386 . S
C1636 C1631 1.490 . S
C1636 C1638 1.395 . S
C1636 C1639 1.403 . S
H1637 C1643 0.930 . S
C1638 H1624 0.930 . S
C1638 C1636 1.395 . S
C1638 C1641 1.403 . S
C1639 C1636 1.403 . S
C1639 C1640 1.524 . S
C1639 C1643 1.400 . S
C1640 H1625 0.960 . S
C1640 H1626 0.960 . S
C1640 H1627 0.960 . S
C1640 C1639 1.524 . S
C1641 C1638 1.403 . S
C1641 C1642 1.392 . S
C1641 C1645 1.495 . S
C1642 C1641 1.392 . S
C1642 C1643 1.385 . S
C1642 C1644 1.478 . S
C1643 H1637 0.930 . S
C1643 C1639 1.400 . S
C1643 C1642 1.385 . S
C1644 C1642 1.478 . S
C1644 C1646 1.381 . S
C1644 C1650 1.383 . S
C1645 C1641 1.495 . S
C1645 H1651 0.959 . S
C1645 H1652 0.961 . S
C1645 H1653 0.960 . S
C1646 C1644 1.381 . S
C1646 C1647 1.394 . S
C1646 H1654 0.930 . S
C1647 C1646 1.394 . S
C1647 C1648 1.383 . S
C1647 H1655 0.929 . S
C1648 C1647 1.383 . S
C1648 C1649 1.377 . S
C1649 H1633 0.930 . S
C1649 C1648 1.377 . S
C1649 C1650 1.379 . S
C1650 H1634 0.931 . S
C1650 C1644 1.383 . S
C1650 C1649 1.379 . S
H1651 C1645 0.959 . S
H1652 C1645 0.961 . S
H1653 C1645 0.960 . S
H1654 C1646 0.930 . S
H1655 C1647 0.929 . S
H1656 C1664 0.929 . S
H1657 C1666 0.930 . S
H1658 C1668 0.930 . S
H1659 C1671 0.929 . S
H1660 C1674 0.930 . S
H1661 C1676 0.960 . S
H1662 C1676 0.960 . S
H1663 C1676 0.960 . S
C1664 H1656 0.929 . S
C1664 C1665 1.377 . S
C1664 C1666 1.384 . S
C1665 C1664 1.377 . S
C1665 C1671 1.390 . S
C1666 H1657 0.930 . S
C1666 C1664 1.384 . S
C1666 C1667 1.372 . S
C1667 C1666 1.372 . S
C1667 C1668 1.400 . S
C1667 C1672 1.490 . S
C1668 H1658 0.930 . S
C1668 C1667 1.400 . S
C1668 C1671 1.386 . S
H1669 C1685 0.930 . S
H1670 C1686 0.931 . S
C1671 H1659 0.929 . S
C1671 C1665 1.390 . S
C1671 C1668 1.386 . S
C1672 C1667 1.490 . S
C1672 C1674 1.395 . S
C1672 C1675 1.403 . S
H1673 C1679 0.930 . S
C1674 H1660 0.930 . S
C1674 C1672 1.395 . S
C1674 C1677 1.403 . S
C1675 C1672 1.403 . S
C1675 C1676 1.524 . S
C1675 C1679 1.400 . S
C1676 H1661 0.960 . S
C1676 H1662 0.960 . S
C1676 H1663 0.960 . S
C1676 C1675 1.524 . S
C1677 C1674 1.403 . S
C1677 C1678 1.392 . S
C1677 C1681 1.495 . S
C1678 C1677 1.392 . S
C1678 C1679 1.385 . S
C1678 C1680 1.478 . S
C1679 H1673 0.930 . S
C1679 C1675 1.400 . S
C1679 C1678 1.385 . S
C1680 C1678 1.478 . S
C1680 C1682 1.381 . S
C1680 C1686 1.383 . S
C1681 C1677 1.495 . S
C1681 H1687 0.959 . S
C1681 H1688 0.961 . S
C1681 H1689 0.960 . S
C1682 C1680 1.381 . S
C1682 C1683 1.394 . S
C1682 H1690 0.930 . S
C1683 C1682 1.394 . S
C1683 C1684 1.383 . S
C1683 H1691 0.929 . S
C1684 C1683 1.383 . S
C1684 C1685 1.377 . S
C1685 H1669 0.930 . S
C1685 C1684 1.377 . S
C1685 C1686 1.379 . S
C1686 H1670 0.931 . S
C1686 C1680 1.383 . S
C1686 C1685 1.379 . S
H1687 C1681 0.959 . S
H1688 C1681 0.961 . S
H1689 C1681 0.960 . S
H1690 C1682 0.930 . S
H1691 C1683 0.929 . S
H1692 C1700 0.929 . S
H1693 C1702 0.930 . S
H1694 C1704 0.930 . S
H1695 C1707 0.929 . S
H1696 C1710 0.930 . S
H1697 C1712 0.960 . S
H1698 C1712 0.960 . S
H1699 C1712 0.960 . S
C1700 H1692 0.929 . S
C1700 C1701 1.377 . S
C1700 C1702 1.384 . S
C1701 C1700 1.377 . S
C1701 C1707 1.390 . S
C1702 H1693 0.930 . S
C1702 C1700 1.384 . S
C1702 C1703 1.372 . S
C1703 C1702 1.372 . S
C1703 C1704 1.400 . S
C1703 C1708 1.490 . S
C1704 H1694 0.930 . S
C1704 C1703 1.400 . S
C1704 C1707 1.386 . S
H1705 C1721 0.930 . S
H1706 C1722 0.931 . S
C1707 H1695 0.929 . S
C1707 C1701 1.390 . S
C1707 C1704 1.386 . S
C1708 C1703 1.490 . S
C1708 C1710 1.395 . S
C1708 C1711 1.403 . S
H1709 C1715 0.930 . S
C1710 H1696 0.930 . S
C1710 C1708 1.395 . S
C1710 C1713 1.403 . S
C1711 C1708 1.403 . S
C1711 C1712 1.524 . S
C1711 C1715 1.400 . S
C1712 H1697 0.960 . S
C1712 H1698 0.960 . S
C1712 H1699 0.960 . S
C1712 C1711 1.524 . S
C1713 C1710 1.403 . S
C1713 C1714 1.392 . S
C1713 C1717 1.495 . S
C1714 C1713 1.392 . S
C1714 C1715 1.385 . S
C1714 C1716 1.478 . S
C1715 H1709 0.930 . S
C1715 C1711 1.400 . S
C1715 C1714 1.385 . S
C1716 C1714 1.478 . S
C1716 C1718 1.381 . S
C1716 C1722 1.383 . S
C1717 C1713 1.495 . S
C1717 H1723 0.959 . S
C1717 H1724 0.961 . S
C1717 H1725 0.960 . S
C1718 C1716 1.381 . S
C1718 C1719 1.394 . S
C1718 H1726 0.930 . S
C1719 C1718 1.394 . S
C1719 C1720 1.383 . S
C1719 H1727 0.929 . S
C1720 C1719 1.383 . S
C1720 C1721 1.377 . S
C1721 H1705 0.930 . S
C1721 C1720 1.377 . S
C1721 C1722 1.379 . S
C1722 H1706 0.931 . S
C1722 C1716 1.383 . S
C1722 C1721 1.379 . S
H1723 C1717 0.959 . S
H1724 C1717 0.961 . S
H1725 C1717 0.960 . S
H1726 C1718 0.930 . S
H1727 C1719 0.929 . S
H1728 C1736 0.929 . S
H1729 C1738 0.930 . S
H1730 C1740 0.930 . S
H1731 C1743 0.929 . S
H1732 C1746 0.930 . S
H1733 C1748 0.960 . S
H1734 C1748 0.960 . S
H1735 C1748 0.960 . S
C1736 H1728 0.929 . S
C1736 C1737 1.377 . S
C1736 C1738 1.384 . S
C1737 C1736 1.377 . S
C1737 C1743 1.390 . S
C1738 H1729 0.930 . S
C1738 C1736 1.384 . S
C1738 C1739 1.372 . S
C1739 C1738 1.372 . S
C1739 C1740 1.400 . S
C1739 C1744 1.490 . S
C1740 H1730 0.930 . S
C1740 C1739 1.400 . S
C1740 C1743 1.386 . S
H1741 C1757 0.930 . S
H1742 C1758 0.931 . S
C1743 H1731 0.929 . S
C1743 C1737 1.390 . S
C1743 C1740 1.386 . S
C1744 C1739 1.490 . S
C1744 C1746 1.395 . S
C1744 C1747 1.403 . S
H1745 C1751 0.930 . S
C1746 H1732 0.930 . S
C1746 C1744 1.395 . S
C1746 C1749 1.403 . S
C1747 C1744 1.403 . S
C1747 C1748 1.524 . S
C1747 C1751 1.400 . S
C1748 H1733 0.960 . S
C1748 H1734 0.960 . S
C1748 H1735 0.960 . S
C1748 C1747 1.524 . S
C1749 C1746 1.403 . S
C1749 C1750 1.392 . S
C1749 C1753 1.495 . S
C1750 C1749 1.392 . S
C1750 C1751 1.385 . S
C1750 C1752 1.478 . S
C1751 H1745 0.930 . S
C1751 C1747 1.400 . S
C1751 C1750 1.385 . S
C1752 C1750 1.478 . S
C1752 C1754 1.381 . S
C1752 C1758 1.383 . S
C1753 C1749 1.495 . S
C1753 H1759 0.959 . S
C1753 H1760 0.961 . S
C1753 H1761 0.960 . S
C1754 C1752 1.381 . S
C1754 C1755 1.394 . S
C1754 H1762 0.930 . S
C1755 C1754 1.394 . S
C1755 C1756 1.383 . S
C1755 H1763 0.929 . S
C1756 C1755 1.383 . S
C1756 C1757 1.377 . S
C1757 H1741 0.930 . S
C1757 C1756 1.377 . S
C1757 C1758 1.379 . S
C1758 H1742 0.931 . S
C1758 C1752 1.383 . S
C1758 C1757 1.379 . S
H1759 C1753 0.959 . S
H1760 C1753 0.961 . S
H1761 C1753 0.960 . S
H1762 C1754 0.930 . S
H1763 C1755 0.929 . S
H1764 C1772 0.929 . S
H1765 C1774 0.930 . S
H1766 C1776 0.930 . S
H1767 C1779 0.929 . S
H1768 C1782 0.930 . S
H1769 C1784 0.960 . S
H1770 C1784 0.960 . S
H1771 C1784 0.960 . S
C1772 H1764 0.929 . S
C1772 C1773 1.377 . S
C1772 C1774 1.384 . S
C1773 C1772 1.377 . S
C1773 C1779 1.390 . S
C1774 H1765 0.930 . S
C1774 C1772 1.384 . S
C1774 C1775 1.372 . S
C1775 C1774 1.372 . S
C1775 C1776 1.400 . S
C1775 C1780 1.490 . S
C1776 H1766 0.930 . S
C1776 C1775 1.400 . S
C1776 C1779 1.386 . S
H1777 C1793 0.930 . S
H1778 C1794 0.931 . S
C1779 H1767 0.929 . S
C1779 C1773 1.390 . S
C1779 C1776 1.386 . S
C1780 C1775 1.490 . S
C1780 C1782 1.395 . S
C1780 C1783 1.403 . S
H1781 C1787 0.930 . S
C1782 H1768 0.930 . S
C1782 C1780 1.395 . S
C1782 C1785 1.403 . S
C1783 C1780 1.403 . S
C1783 C1784 1.524 . S
C1783 C1787 1.400 . S
C1784 H1769 0.960 . S
C1784 H1770 0.960 . S
C1784 H1771 0.960 . S
C1784 C1783 1.524 . S
C1785 C1782 1.403 . S
C1785 C1786 1.392 . S
C1785 C1789 1.495 . S
C1786 C1785 1.392 . S
C1786 C1787 1.385 . S
C1786 C1788 1.478 . S
C1787 H1781 0.930 . S
C1787 C1783 1.400 . S
C1787 C1786 1.385 . S
C1788 C1786 1.478 . S
C1788 C1790 1.381 . S
C1788 C1794 1.383 . S
C1789 C1785 1.495 . S
C1789 H1795 0.959 . S
C1789 H1796 0.961 . S
C1789 H1797 0.960 . S
C1790 C1788 1.381 . S
C1790 C1791 1.394 . S
C1790 H1798 0.930 . S
C1791 C1790 1.394 . S
C1791 C1792 1.383 . S
C1791 H1799 0.929 . S
C1792 C1791 1.383 . S
C1792 C1793 1.377 . S
C1793 H1777 0.930 . S
C1793 C1792 1.377 . S
C1793 C1794 1.379 . S
C1794 H1778 0.931 . S
C1794 C1788 1.383 . S
C1794 C1793 1.379 . S
H1795 C1789 0.959 . S
H1796 C1789 0.961 . S
H1797 C1789 0.960 . S
H1798 C1790 0.930 . S
H1799 C1791 0.929 . S
H1800 C1808 0.929 . S
H1801 C1810 0.930 . S
H1802 C1812 0.930 . S
H1803 C1815 0.929 . S
H1804 C1818 0.930 . S
H1805 C1820 0.960 . S
H1806 C1820 0.960 . S
H1807 C1820 0.960 . S
C1808 H1800 0.929 . S
C1808 C1809 1.377 . S
C1808 C1810 1.384 . S
C1809 C1808 1.377 . S
C1809 C1815 1.390 . S
C1810 H1801 0.930 . S
C1810 C1808 1.384 . S
C1810 C1811 1.372 . S
C1811 C1810 1.372 . S
C1811 C1812 1.400 . S
C1811 C1816 1.490 . S
C1812 H1802 0.930 . S
C1812 C1811 1.400 . S
C1812 C1815 1.386 . S
H1813 C1829 0.930 . S
H1814 C1830 0.931 . S
C1815 H1803 0.929 . S
C1815 C1809 1.390 . S
C1815 C1812 1.386 . S
C1816 C1811 1.490 . S
C1816 C1818 1.395 . S
C1816 C1819 1.403 . S
H1817 C1823 0.930 . S
C1818 H1804 0.930 . S
C1818 C1816 1.395 . S
C1818 C1821 1.403 . S
C1819 C1816 1.403 . S
C1819 C1820 1.524 . S
C1819 C1823 1.400 . S
C1820 H1805 0.960 . S
C1820 H1806 0.960 . S
C1820 H1807 0.960 . S
C1820 C1819 1.524 . S
C1821 C1818 1.403 . S
C1821 C1822 1.392 . S
C1821 C1825 1.495 . S
C1822 C1821 1.392 . S
C1822 C1823 1.385 . S
C1822 C1824 1.478 . S
C1823 H1817 0.930 . S
C1823 C1819 1.400 . S
C1823 C1822 1.385 . S
C1824 C1822 1.478 . S
C1824 C1826 1.381 . S
C1824 C1830 1.383 . S
C1825 C1821 1.495 . S
C1825 H1831 0.959 . S
C1825 H1832 0.961 . S
C1825 H1833 0.960 . S
C1826 C1824 1.381 . S
C1826 C1827 1.394 . S
C1826 H1834 0.930 . S
C1827 C1826 1.394 . S
C1827 C1828 1.383 . S
C1827 H1835 0.929 . S
C1828 C1827 1.383 . S
C1828 C1829 1.377 . S
C1829 H1813 0.930 . S
C1829 C1828 1.377 . S
C1829 C1830 1.379 . S
C1830 H1814 0.931 . S
C1830 C1824 1.383 . S
C1830 C1829 1.379 . S
H1831 C1825 0.959 . S
H1832 C1825 0.961 . S
H1833 C1825 0.960 . S
H1834 C1826 0.930 . S
H1835 C1827 0.929 . S
H1836 C1844 0.929 . S
H1837 C1846 0.930 . S
H1838 C1848 0.930 . S
H1839 C1851 0.929 . S
H1840 C1854 0.930 . S
H1841 C1856 0.960 . S
H1842 C1856 0.960 . S
H1843 C1856 0.960 . S
C1844 H1836 0.929 . S
C1844 C1845 1.377 . S
C1844 C1846 1.384 . S
C1845 C1844 1.377 . S
C1845 C1851 1.390 . S
C1846 H1837 0.930 . S
C1846 C1844 1.384 . S
C1846 C1847 1.372 . S
C1847 C1846 1.372 . S
C1847 C1848 1.400 . S
C1847 C1852 1.490 . S
C1848 H1838 0.930 . S
C1848 C1847 1.400 . S
C1848 C1851 1.386 . S
H1849 C1865 0.930 . S
H1850 C1866 0.931 . S
C1851 H1839 0.929 . S
C1851 C1845 1.390 . S
C1851 C1848 1.386 . S
C1852 C1847 1.490 . S
C1852 C1854 1.395 . S
C1852 C1855 1.403 . S
H1853 C1859 0.930 . S
C1854 H1840 0.930 . S
C1854 C1852 1.395 . S
C1854 C1857 1.403 . S
C1855 C1852 1.403 . S
C1855 C1856 1.524 . S
C1855 C1859 1.400 . S
C1856 H1841 0.960 . S
C1856 H1842 0.960 . S
C1856 H1843 0.960 . S
C1856 C1855 1.524 . S
C1857 C1854 1.403 . S
C1857 C1858 1.392 . S
C1857 C1861 1.495 . S
C1858 C1857 1.392 . S
C1858 C1859 1.385 . S
C1858 C1860 1.478 . S
C1859 H1853 0.930 . S
C1859 C1855 1.400 . S
C1859 C1858 1.385 . S
C1860 C1858 1.478 . S
C1860 C1862 1.381 . S
C1860 C1866 1.383 . S
C1861 C1857 1.495 . S
C1861 H1867 0.959 . S
C1861 H1868 0.961 . S
C1861 H1869 0.960 . S
C1862 C1860 1.381 . S
C1862 C1863 1.394 . S
C1862 H1870 0.930 . S
C1863 C1862 1.394 . S
C1863 C1864 1.383 . S
C1863 H1871 0.929 . S
C1864 C1863 1.383 . S
C1864 C1865 1.377 . S
C1865 H1849 0.930 . S
C1865 C1864 1.377 . S
C1865 C1866 1.379 . S
C1866 H1850 0.931 . S
C1866 C1860 1.383 . S
C1866 C1865 1.379 . S
H1867 C1861 0.959 . S
H1868 C1861 0.961 . S
H1869 C1861 0.960 . S
H1870 C1862 0.930 . S
H1871 C1863 0.929 . S
H1872 C1880 0.929 . S
H1873 C1882 0.930 . S
H1874 C1884 0.930 . S
H1875 C1887 0.929 . S
H1876 C1890 0.930 . S
H1877 C1892 0.960 . S
H1878 C1892 0.960 . S
H1879 C1892 0.960 . S
C1880 H1872 0.929 . S
C1880 C1881 1.377 . S
C1880 C1882 1.384 . S
C1881 C1880 1.377 . S
C1881 C1887 1.390 . S
C1882 H1873 0.930 . S
C1882 C1880 1.384 . S
C1882 C1883 1.372 . S
C1883 C1882 1.372 . S
C1883 C1884 1.400 . S
C1883 C1888 1.490 . S
C1884 H1874 0.930 . S
C1884 C1883 1.400 . S
C1884 C1887 1.386 . S
H1885 C1901 0.930 . S
H1886 C1902 0.931 . S
C1887 H1875 0.929 . S
C1887 C1881 1.390 . S
C1887 C1884 1.386 . S
C1888 C1883 1.490 . S
C1888 C1890 1.395 . S
C1888 C1891 1.403 . S
H1889 C1895 0.930 . S
C1890 H1876 0.930 . S
C1890 C1888 1.395 . S
C1890 C1893 1.403 . S
C1891 C1888 1.403 . S
C1891 C1892 1.524 . S
C1891 C1895 1.400 . S
C1892 H1877 0.960 . S
C1892 H1878 0.960 . S
C1892 H1879 0.960 . S
C1892 C1891 1.524 . S
C1893 C1890 1.403 . S
C1893 C1894 1.392 . S
C1893 C1897 1.495 . S
C1894 C1893 1.392 . S
C1894 C1895 1.385 . S
C1894 C1896 1.478 . S
C1895 H1889 0.930 . S
C1895 C1891 1.400 . S
C1895 C1894 1.385 . S
C1896 C1894 1.478 . S
C1896 C1898 1.381 . S
C1896 C1902 1.383 . S
C1897 C1893 1.495 . S
C1897 H1903 0.959 . S
C1897 H1904 0.961 . S
C1897 H1905 0.960 . S
C1898 C1896 1.381 . S
C1898 C1899 1.394 . S
C1898 H1906 0.930 . S
C1899 C1898 1.394 . S
C1899 C1900 1.383 . S
C1899 H1907 0.929 . S
C1900 C1899 1.383 . S
C1900 C1901 1.377 . S
C1901 H1885 0.930 . S
C1901 C1900 1.377 . S
C1901 C1902 1.379 . S
C1902 H1886 0.931 . S
C1902 C1896 1.383 . S
C1902 C1901 1.379 . S
H1903 C1897 0.959 . S
H1904 C1897 0.961 . S
H1905 C1897 0.960 . S
H1906 C1898 0.930 . S
H1907 C1899 0.929 . S
H1908 C1916 0.929 . S
H1909 C1918 0.930 . S
H1910 C1920 0.930 . S
H1911 C1923 0.929 . S
H1912 C1926 0.930 . S
H1913 C1928 0.960 . S
H1914 C1928 0.960 . S
H1915 C1928 0.960 . S
C1916 H1908 0.929 . S
C1916 C1917 1.377 . S
C1916 C1918 1.384 . S
C1917 C1916 1.377 . S
C1917 C1923 1.390 . S
C1918 H1909 0.930 . S
C1918 C1916 1.384 . S
C1918 C1919 1.372 . S
C1919 C1918 1.372 . S
C1919 C1920 1.400 . S
C1919 C1924 1.490 . S
C1920 H1910 0.930 . S
C1920 C1919 1.400 . S
C1920 C1923 1.386 . S
H1921 C1937 0.930 . S
H1922 C1938 0.931 . S
C1923 H1911 0.929 . S
C1923 C1917 1.390 . S
C1923 C1920 1.386 . S
C1924 C1919 1.490 . S
C1924 C1926 1.395 . S
C1924 C1927 1.403 . S
H1925 C1931 0.930 . S
C1926 H1912 0.930 . S
C1926 C1924 1.395 . S
C1926 C1929 1.403 . S
C1927 C1924 1.403 . S
C1927 C1928 1.524 . S
C1927 C1931 1.400 . S
C1928 H1913 0.960 . S
C1928 H1914 0.960 . S
C1928 H1915 0.960 . S
C1928 C1927 1.524 . S
C1929 C1926 1.403 . S
C1929 C1930 1.392 . S
C1929 C1933 1.495 . S
C1930 C1929 1.392 . S
C1930 C1931 1.385 . S
C1930 C1932 1.478 . S
C1931 H1925 0.930 . S
C1931 C1927 1.400 . S
C1931 C1930 1.385 . S
C1932 C1930 1.478 . S
C1932 C1934 1.381 . S
C1932 C1938 1.383 . S
C1933 C1929 1.495 . S
C1933 H1939 0.959 . S
C1933 H1940 0.961 . S
C1933 H1941 0.960 . S
C1934 C1932 1.381 . S
C1934 C1935 1.394 . S
C1934 H1942 0.930 . S
C1935 C1934 1.394 . S
C1935 C1936 1.383 . S
C1935 H1943 0.929 . S
C1936 C1935 1.383 . S
C1936 C1937 1.377 . S
C1937 H1921 0.930 . S
C1937 C1936 1.377 . S
C1937 C1938 1.379 . S
C1938 H1922 0.931 . S
C1938 C1932 1.383 . S
C1938 C1937 1.379 . S
H1939 C1933 0.959 . S
H1940 C1933 0.961 . S
H1941 C1933 0.960 . S
H1942 C1934 0.930 . S
H1943 C1935 0.929 . S
H1944 C1952 0.929 . S
H1945 C1954 0.930 . S
H1946 C1956 0.930 . S
H1947 C1959 0.929 . S
H1948 C1962 0.930 . S
H1949 C1964 0.960 . S
H1950 C1964 0.960 . S
H1951 C1964 0.960 . S
C1952 H1944 0.929 . S
C1952 C1953 1.377 . S
C1952 C1954 1.384 . S
C1953 C1952 1.377 . S
C1953 C1959 1.390 . S
C1954 H1945 0.930 . S
C1954 C1952 1.384 . S
C1954 C1955 1.372 . S
C1955 C1954 1.372 . S
C1955 C1956 1.400 . S
C1955 C1960 1.490 . S
C1956 H1946 0.930 . S
C1956 C1955 1.400 . S
C1956 C1959 1.386 . S
H1957 C1973 0.930 . S
H1958 C1974 0.931 . S
C1959 H1947 0.929 . S
C1959 C1953 1.390 . S
C1959 C1956 1.386 . S
C1960 C1955 1.490 . S
C1960 C1962 1.395 . S
C1960 C1963 1.403 . S
H1961 C1967 0.930 . S
C1962 H1948 0.930 . S
C1962 C1960 1.395 . S
C1962 C1965 1.403 . S
C1963 C1960 1.403 . S
C1963 C1964 1.524 . S
C1963 C1967 1.400 . S
C1964 H1949 0.960 . S
C1964 H1950 0.960 . S
C1964 H1951 0.960 . S
C1964 C1963 1.524 . S
C1965 C1962 1.403 . S
C1965 C1966 1.392 . S
C1965 C1969 1.495 . S
C1966 C1965 1.392 . S
C1966 C1967 1.385 . S
C1966 C1968 1.478 . S
C1967 H1961 0.930 . S
C1967 C1963 1.400 . S
C1967 C1966 1.385 . S
C1968 C1966 1.478 . S
C1968 C1970 1.381 . S
C1968 C1974 1.383 . S
C1969 C1965 1.495 . S
C1969 H1975 0.959 . S
C1969 H1976 0.961 . S
C1969 H1977 0.960 . S
C1970 C1968 1.381 . S
C1970 C1971 1.394 . S
C1970 H1978 0.930 . S
C1971 C1970 1.394 . S
C1971 C1972 1.383 . S
C1971 H1979 0.929 . S
C1972 C1971 1.383 . S
C1972 C1973 1.377 . S
C1973 H1957 0.930 . S
C1973 C1972 1.377 . S
C1973 C1974 1.379 . S
C1974 H1958 0.931 . S
C1974 C1968 1.383 . S
C1974 C1973 1.379 . S
H1975 C1969 0.959 . S
H1976 C1969 0.961 . S
H1977 C1969 0.960 . S
H1978 C1970 0.930 . S
H1979 C1971 0.929 . S
H1980 C1988 0.929 . S
H1981 C1990 0.930 . S
H1982 C1992 0.930 . S
H1983 C1995 0.929 . S
H1984 C1998 0.930 . S
H1985 C2000 0.960 . S
H1986 C2000 0.960 . S
H1987 C2000 0.960 . S
C1988 H1980 0.929 . S
C1988 C1989 1.377 . S
C1988 C1990 1.384 . S
C1989 C1988 1.377 . S
C1989 C1995 1.390 . S
C1990 H1981 0.930 . S
C1990 C1988 1.384 . S
C1990 C1991 1.372 . S
C1991 C1990 1.372 . S
C1991 C1992 1.400 . S
C1991 C1996 1.490 . S
C1992 H1982 0.930 . S
C1992 C1991 1.400 . S
C1992 C1995 1.386 . S
H1993 C2009 0.930 . S
H1994 C2010 0.931 . S
C1995 H1983 0.929 . S
C1995 C1989 1.390 . S
C1995 C1992 1.386 . S
C1996 C1991 1.490 . S
C1996 C1998 1.395 . S
C1996 C1999 1.403 . S
H1997 C2003 0.930 . S
C1998 H1984 0.930 . S
C1998 C1996 1.395 . S
C1998 C2001 1.403 . S
C1999 C1996 1.403 . S
C1999 C2000 1.524 . S
C1999 C2003 1.400 . S
C2000 H1985 0.960 . S
C2000 H1986 0.960 . S
C2000 H1987 0.960 . S
C2000 C1999 1.524 . S
C2001 C1998 1.403 . S
C2001 C2002 1.392 . S
C2001 C2005 1.495 . S
C2002 C2001 1.392 . S
C2002 C2003 1.385 . S
C2002 C2004 1.478 . S
C2003 H1997 0.930 . S
C2003 C1999 1.400 . S
C2003 C2002 1.385 . S
C2004 C2002 1.478 . S
C2004 C2006 1.381 . S
C2004 C2010 1.383 . S
C2005 C2001 1.495 . S
C2005 H2011 0.959 . S
C2005 H2012 0.961 . S
C2005 H2013 0.960 . S
C2006 C2004 1.381 . S
C2006 C2007 1.394 . S
C2006 H2014 0.930 . S
C2007 C2006 1.394 . S
C2007 C2008 1.383 . S
C2007 H2015 0.929 . S
C2008 C2007 1.383 . S
C2008 C2009 1.377 . S
C2009 H1993 0.930 . S
C2009 C2008 1.377 . S
C2009 C2010 1.379 . S
C2010 H1994 0.931 . S
C2010 C2004 1.383 . S
C2010 C2009 1.379 . S
H2011 C2005 0.959 . S
H2012 C2005 0.961 . S
H2013 C2005 0.960 . S
H2014 C2006 0.930 . S
H2015 C2007 0.929 . S
H2016 C2024 0.929 . S
H2017 C2026 0.930 . S
H2018 C2028 0.930 . S
H2019 C2031 0.929 . S
H2020 C2034 0.930 . S
H2021 C2036 0.960 . S
H2022 C2036 0.960 . S
H2023 C2036 0.960 . S
C2024 H2016 0.929 . S
C2024 C2025 1.377 . S
C2024 C2026 1.384 . S
C2025 C2024 1.377 . S
C2025 C2031 1.390 . S
C2026 H2017 0.930 . S
C2026 C2024 1.384 . S
C2026 C2027 1.372 . S
C2027 C2026 1.372 . S
C2027 C2028 1.400 . S
C2027 C2032 1.490 . S
C2028 H2018 0.930 . S
C2028 C2027 1.400 . S
C2028 C2031 1.386 . S
H2029 C2045 0.930 . S
H2030 C2046 0.931 . S
C2031 H2019 0.929 . S
C2031 C2025 1.390 . S
C2031 C2028 1.386 . S
C2032 C2027 1.490 . S
C2032 C2034 1.395 . S
C2032 C2035 1.403 . S
H2033 C2039 0.930 . S
C2034 H2020 0.930 . S
C2034 C2032 1.395 . S
C2034 C2037 1.403 . S
C2035 C2032 1.403 . S
C2035 C2036 1.524 . S
C2035 C2039 1.400 . S
C2036 H2021 0.960 . S
C2036 H2022 0.960 . S
C2036 H2023 0.960 . S
C2036 C2035 1.524 . S
C2037 C2034 1.403 . S
C2037 C2038 1.392 . S
C2037 C2041 1.495 . S
C2038 C2037 1.392 . S
C2038 C2039 1.385 . S
C2038 C2040 1.478 . S
C2039 H2033 0.930 . S
C2039 C2035 1.400 . S
C2039 C2038 1.385 . S
C2040 C2038 1.478 . S
C2040 C2042 1.381 . S
C2040 C2046 1.383 . S
C2041 C2037 1.495 . S
C2041 H2047 0.959 . S
C2041 H2048 0.961 . S
C2041 H2049 0.960 . S
C2042 C2040 1.381 . S
C2042 C2043 1.394 . S
C2042 H2050 0.930 . S
C2043 C2042 1.394 . S
C2043 C2044 1.383 . S
C2043 H2051 0.929 . S
C2044 C2043 1.383 . S
C2044 C2045 1.377 . S
C2045 H2029 0.930 . S
C2045 C2044 1.377 . S
C2045 C2046 1.379 . S
C2046 H2030 0.931 . S
C2046 C2040 1.383 . S
C2046 C2045 1.379 . S
H2047 C2041 0.959 . S
H2048 C2041 0.961 . S
H2049 C2041 0.960 . S
H2050 C2042 0.930 . S
H2051 C2043 0.929 . S
H2052 C2060 0.929 . S
H2053 C2062 0.930 . S
H2054 C2064 0.930 . S
H2055 C2067 0.929 . S
H2056 C2070 0.930 . S
H2057 C2072 0.960 . S
H2058 C2072 0.960 . S
H2059 C2072 0.960 . S
C2060 H2052 0.929 . S
C2060 C2061 1.377 . S
C2060 C2062 1.384 . S
C2061 C2060 1.377 . S
C2061 C2067 1.390 . S
C2062 H2053 0.930 . S
C2062 C2060 1.384 . S
C2062 C2063 1.372 . S
C2063 C2062 1.372 . S
C2063 C2064 1.400 . S
C2063 C2068 1.490 . S
C2064 H2054 0.930 . S
C2064 C2063 1.400 . S
C2064 C2067 1.386 . S
H2065 C2081 0.930 . S
H2066 C2082 0.931 . S
C2067 H2055 0.929 . S
C2067 C2061 1.390 . S
C2067 C2064 1.386 . S
C2068 C2063 1.490 . S
C2068 C2070 1.395 . S
C2068 C2071 1.403 . S
H2069 C2075 0.930 . S
C2070 H2056 0.930 . S
C2070 C2068 1.395 . S
C2070 C2073 1.403 . S
C2071 C2068 1.403 . S
C2071 C2072 1.524 . S
C2071 C2075 1.400 . S
C2072 H2057 0.960 . S
C2072 H2058 0.960 . S
C2072 H2059 0.960 . S
C2072 C2071 1.524 . S
C2073 C2070 1.403 . S
C2073 C2074 1.392 . S
C2073 C2077 1.495 . S
C2074 C2073 1.392 . S
C2074 C2075 1.385 . S
C2074 C2076 1.478 . S
C2075 H2069 0.930 . S
C2075 C2071 1.400 . S
C2075 C2074 1.385 . S
C2076 C2074 1.478 . S
C2076 C2078 1.381 . S
C2076 C2082 1.383 . S
C2077 C2073 1.495 . S
C2077 H2083 0.959 . S
C2077 H2084 0.961 . S
C2077 H2085 0.960 . S
C2078 C2076 1.381 . S
C2078 C2079 1.394 . S
C2078 H2086 0.930 . S
C2079 C2078 1.394 . S
C2079 C2080 1.383 . S
C2079 H2087 0.929 . S
C2080 C2079 1.383 . S
C2080 C2081 1.377 . S
C2081 H2065 0.930 . S
C2081 C2080 1.377 . S
C2081 C2082 1.379 . S
C2082 H2066 0.931 . S
C2082 C2076 1.383 . S
C2082 C2081 1.379 . S
H2083 C2077 0.959 . S
H2084 C2077 0.961 . S
H2085 C2077 0.960 . S
H2086 C2078 0.930 . S
H2087 C2079 0.929 . S
H2088 C2096 0.929 . S
H2089 C2098 0.930 . S
H2090 C2100 0.930 . S
H2091 C2103 0.929 . S
H2092 C2106 0.930 . S
H2093 C2108 0.960 . S
H2094 C2108 0.960 . S
H2095 C2108 0.960 . S
C2096 H2088 0.929 . S
C2096 C2097 1.377 . S
C2096 C2098 1.384 . S
C2097 C2096 1.377 . S
C2097 C2103 1.390 . S
C2098 H2089 0.930 . S
C2098 C2096 1.384 . S
C2098 C2099 1.372 . S
C2099 C2098 1.372 . S
C2099 C2100 1.400 . S
C2099 C2104 1.490 . S
C2100 H2090 0.930 . S
C2100 C2099 1.400 . S
C2100 C2103 1.386 . S
H2101 C2117 0.930 . S
H2102 C2118 0.931 . S
C2103 H2091 0.929 . S
C2103 C2097 1.390 . S
C2103 C2100 1.386 . S
C2104 C2099 1.490 . S
C2104 C2106 1.395 . S
C2104 C2107 1.403 . S
H2105 C2111 0.930 . S
C2106 H2092 0.930 . S
C2106 C2104 1.395 . S
C2106 C2109 1.403 . S
C2107 C2104 1.403 . S
C2107 C2108 1.524 . S
C2107 C2111 1.400 . S
C2108 H2093 0.960 . S
C2108 H2094 0.960 . S
C2108 H2095 0.960 . S
C2108 C2107 1.524 . S
C2109 C2106 1.403 . S
C2109 C2110 1.392 . S
C2109 C2113 1.495 . S
C2110 C2109 1.392 . S
C2110 C2111 1.385 . S
C2110 C2112 1.478 . S
C2111 H2105 0.930 . S
C2111 C2107 1.400 . S
C2111 C2110 1.385 . S
C2112 C2110 1.478 . S
C2112 C2114 1.381 . S
C2112 C2118 1.383 . S
C2113 C2109 1.495 . S
C2113 H2119 0.959 . S
C2113 H2120 0.961 . S
C2113 H2121 0.960 . S
C2114 C2112 1.381 . S
C2114 C2115 1.394 . S
C2114 H2122 0.930 . S
C2115 C2114 1.394 . S
C2115 C2116 1.383 . S
C2115 H2123 0.929 . S
C2116 C2115 1.383 . S
C2116 C2117 1.377 . S
C2117 H2101 0.930 . S
C2117 C2116 1.377 . S
C2117 C2118 1.379 . S
C2118 H2102 0.931 . S
C2118 C2112 1.383 . S
C2118 C2117 1.379 . S
H2119 C2113 0.959 . S
H2120 C2113 0.961 . S
H2121 C2113 0.960 . S
H2122 C2114 0.930 . S
H2123 C2115 0.929 . S
H2124 C2132 0.929 . S
H2125 C2134 0.930 . S
H2126 C2136 0.930 . S
H2127 C2139 0.929 . S
H2128 C2142 0.930 . S
H2129 C2144 0.960 . S
H2130 C2144 0.960 . S
H2131 C2144 0.960 . S
C2132 H2124 0.929 . S
C2132 C2133 1.377 . S
C2132 C2134 1.384 . S
C2133 C2132 1.377 . S
C2133 C2139 1.390 . S
C2134 H2125 0.930 . S
C2134 C2132 1.384 . S
C2134 C2135 1.372 . S
C2135 C2134 1.372 . S
C2135 C2136 1.400 . S
C2135 C2140 1.490 . S
C2136 H2126 0.930 . S
C2136 C2135 1.400 . S
C2136 C2139 1.386 . S
H2137 C2153 0.930 . S
H2138 C2154 0.931 . S
C2139 H2127 0.929 . S
C2139 C2133 1.390 . S
C2139 C2136 1.386 . S
C2140 C2135 1.490 . S
C2140 C2142 1.395 . S
C2140 C2143 1.403 . S
H2141 C2147 0.930 . S
C2142 H2128 0.930 . S
C2142 C2140 1.395 . S
C2142 C2145 1.403 . S
C2143 C2140 1.403 . S
C2143 C2144 1.524 . S
C2143 C2147 1.400 . S
C2144 H2129 0.960 . S
C2144 H2130 0.960 . S
C2144 H2131 0.960 . S
C2144 C2143 1.524 . S
C2145 C2142 1.403 . S
C2145 C2146 1.392 . S
C2145 C2149 1.495 . S
C2146 C2145 1.392 . S
C2146 C2147 1.385 . S
C2146 C2148 1.478 . S
C2147 H2141 0.930 . S
C2147 C2143 1.400 . S
C2147 C2146 1.385 . S
C2148 C2146 1.478 . S
C2148 C2150 1.381 . S
C2148 C2154 1.383 . S
C2149 C2145 1.495 . S
C2149 H2155 0.959 . S
C2149 H2156 0.961 . S
C2149 H2157 0.960 . S
C2150 C2148 1.381 . S
C2150 C2151 1.394 . S
C2150 H2158 0.930 . S
C2151 C2150 1.394 . S
C2151 C2152 1.383 . S
C2151 H2159 0.929 . S
C2152 C2151 1.383 . S
C2152 C2153 1.377 . S
C2153 H2137 0.930 . S
C2153 C2152 1.377 . S
C2153 C2154 1.379 . S
C2154 H2138 0.931 . S
C2154 C2148 1.383 . S
C2154 C2153 1.379 . S
H2155 C2149 0.959 . S
H2156 C2149 0.961 . S
H2157 C2149 0.960 . S
H2158 C2150 0.930 . S
H2159 C2151 0.929 . S
H2160 C2168 0.929 . S
H2161 C2170 0.930 . S
H2162 C2172 0.930 . S
H2163 C2175 0.929 . S
H2164 C2178 0.930 . S
H2165 C2180 0.960 . S
H2166 C2180 0.960 . S
H2167 C2180 0.960 . S
C2168 H2160 0.929 . S
C2168 C2169 1.377 . S
C2168 C2170 1.384 . S
C2169 C2168 1.377 . S
C2169 C2175 1.390 . S
C2170 H2161 0.930 . S
C2170 C2168 1.384 . S
C2170 C2171 1.372 . S
C2171 C2170 1.372 . S
C2171 C2172 1.400 . S
C2171 C2176 1.490 . S
C2172 H2162 0.930 . S
C2172 C2171 1.400 . S
C2172 C2175 1.386 . S
H2173 C2189 0.930 . S
H2174 C2190 0.931 . S
C2175 H2163 0.929 . S
C2175 C2169 1.390 . S
C2175 C2172 1.386 . S
C2176 C2171 1.490 . S
C2176 C2178 1.395 . S
C2176 C2179 1.403 . S
H2177 C2183 0.930 . S
C2178 H2164 0.930 . S
C2178 C2176 1.395 . S
C2178 C2181 1.403 . S
C2179 C2176 1.403 . S
C2179 C2180 1.524 . S
C2179 C2183 1.400 . S
C2180 H2165 0.960 . S
C2180 H2166 0.960 . S
C2180 H2167 0.960 . S
C2180 C2179 1.524 . S
C2181 C2178 1.403 . S
C2181 C2182 1.392 . S
C2181 C2185 1.495 . S
C2182 C2181 1.392 . S
C2182 C2183 1.385 . S
C2182 C2184 1.478 . S
C2183 H2177 0.930 . S
C2183 C2179 1.400 . S
C2183 C2182 1.385 . S
C2184 C2182 1.478 . S
C2184 C2186 1.381 . S
C2184 C2190 1.383 . S
C2185 C2181 1.495 . S
C2185 H2191 0.959 . S
C2185 H2192 0.961 . S
C2185 H2193 0.960 . S
C2186 C2184 1.381 . S
C2186 C2187 1.394 . S
C2186 H2194 0.930 . S
C2187 C2186 1.394 . S
C2187 C2188 1.383 . S
C2187 H2195 0.929 . S
C2188 C2187 1.383 . S
C2188 C2189 1.377 . S
C2189 H2173 0.930 . S
C2189 C2188 1.377 . S
C2189 C2190 1.379 . S
C2190 H2174 0.931 . S
C2190 C2184 1.383 . S
C2190 C2189 1.379 . S
H2191 C2185 0.959 . S
H2192 C2185 0.961 . S
H2193 C2185 0.960 . S
H2194 C2186 0.930 . S
H2195 C2187 0.929 . S
H2196 C2204 0.929 . S
H2197 C2206 0.930 . S
H2198 C2208 0.930 . S
H2199 C2211 0.929 . S
H2200 C2214 0.930 . S
H2201 C2216 0.960 . S
H2202 C2216 0.960 . S
H2203 C2216 0.960 . S
C2204 H2196 0.929 . S
C2204 C2205 1.377 . S
C2204 C2206 1.384 . S
C2205 C2204 1.377 . S
C2205 C2211 1.390 . S
C2206 H2197 0.930 . S
C2206 C2204 1.384 . S
C2206 C2207 1.372 . S
C2207 C2206 1.372 . S
C2207 C2208 1.400 . S
C2207 C2212 1.490 . S
C2208 H2198 0.930 . S
C2208 C2207 1.400 . S
C2208 C2211 1.386 . S
H2209 C2225 0.930 . S
H2210 C2226 0.931 . S
C2211 H2199 0.929 . S
C2211 C2205 1.390 . S
C2211 C2208 1.386 . S
C2212 C2207 1.490 . S
C2212 C2214 1.395 . S
C2212 C2215 1.403 . S
H2213 C2219 0.930 . S
C2214 H2200 0.930 . S
C2214 C2212 1.395 . S
C2214 C2217 1.403 . S
C2215 C2212 1.403 . S
C2215 C2216 1.524 . S
C2215 C2219 1.400 . S
C2216 H2201 0.960 . S
C2216 H2202 0.960 . S
C2216 H2203 0.960 . S
C2216 C2215 1.524 . S
C2217 C2214 1.403 . S
C2217 C2218 1.392 . S
C2217 C2221 1.495 . S
C2218 C2217 1.392 . S
C2218 C2219 1.385 . S
C2218 C2220 1.478 . S
C2219 H2213 0.930 . S
C2219 C2215 1.400 . S
C2219 C2218 1.385 . S
C2220 C2218 1.478 . S
C2220 C2222 1.381 . S
C2220 C2226 1.383 . S
C2221 C2217 1.495 . S
C2221 H2227 0.959 . S
C2221 H2228 0.961 . S
C2221 H2229 0.960 . S
C2222 C2220 1.381 . S
C2222 C2223 1.394 . S
C2222 H2230 0.930 . S
C2223 C2222 1.394 . S
C2223 C2224 1.383 . S
C2223 H2231 0.929 . S
C2224 C2223 1.383 . S
C2224 C2225 1.377 . S
C2225 H2209 0.930 . S
C2225 C2224 1.377 . S
C2225 C2226 1.379 . S
C2226 H2210 0.931 . S
C2226 C2220 1.383 . S
C2226 C2225 1.379 . S
H2227 C2221 0.959 . S
H2228 C2221 0.961 . S
H2229 C2221 0.960 . S
H2230 C2222 0.930 . S
H2231 C2223 0.929 . S
H2232 C2240 0.929 . S
H2233 C2242 0.930 . S
H2234 C2244 0.930 . S
H2235 C2247 0.929 . S
H2236 C2250 0.930 . S
H2237 C2252 0.960 . S
H2238 C2252 0.960 . S
H2239 C2252 0.960 . S
C2240 H2232 0.929 . S
C2240 C2241 1.377 . S
C2240 C2242 1.384 . S
C2241 C2240 1.377 . S
C2241 C2247 1.390 . S
C2242 H2233 0.930 . S
C2242 C2240 1.384 . S
C2242 C2243 1.372 . S
C2243 C2242 1.372 . S
C2243 C2244 1.400 . S
C2243 C2248 1.490 . S
C2244 H2234 0.930 . S
C2244 C2243 1.400 . S
C2244 C2247 1.386 . S
H2245 C2261 0.930 . S
H2246 C2262 0.931 . S
C2247 H2235 0.929 . S
C2247 C2241 1.390 . S
C2247 C2244 1.386 . S
C2248 C2243 1.490 . S
C2248 C2250 1.395 . S
C2248 C2251 1.403 . S
H2249 C2255 0.930 . S
C2250 H2236 0.930 . S
C2250 C2248 1.395 . S
C2250 C2253 1.403 . S
C2251 C2248 1.403 . S
C2251 C2252 1.524 . S
C2251 C2255 1.400 . S
C2252 H2237 0.960 . S
C2252 H2238 0.960 . S
C2252 H2239 0.960 . S
C2252 C2251 1.524 . S
C2253 C2250 1.403 . S
C2253 C2254 1.392 . S
C2253 C2257 1.495 . S
C2254 C2253 1.392 . S
C2254 C2255 1.385 . S
C2254 C2256 1.478 . S
C2255 H2249 0.930 . S
C2255 C2251 1.400 . S
C2255 C2254 1.385 . S
C2256 C2254 1.478 . S
C2256 C2258 1.381 . S
C2256 C2262 1.383 . S
C2257 C2253 1.495 . S
C2257 H2263 0.959 . S
C2257 H2264 0.961 . S
C2257 H2265 0.960 . S
C2258 C2256 1.381 . S
C2258 C2259 1.394 . S
C2258 H2266 0.930 . S
C2259 C2258 1.394 . S
C2259 C2260 1.383 . S
C2259 H2267 0.929 . S
C2260 C2259 1.383 . S
C2260 C2261 1.377 . S
C2261 H2245 0.930 . S
C2261 C2260 1.377 . S
C2261 C2262 1.379 . S
C2262 H2246 0.931 . S
C2262 C2256 1.383 . S
C2262 C2261 1.379 . S
H2263 C2257 0.959 . S
H2264 C2257 0.961 . S
H2265 C2257 0.960 . S
H2266 C2258 0.930 . S
H2267 C2259 0.929 . S
H2268 C2276 0.929 . S
H2269 C2278 0.930 . S
H2270 C2280 0.930 . S
H2271 C2283 0.929 . S
H2272 C2286 0.930 . S
H2273 C2288 0.960 . S
H2274 C2288 0.960 . S
H2275 C2288 0.960 . S
C2276 H2268 0.929 . S
C2276 C2277 1.377 . S
C2276 C2278 1.384 . S
C2277 C2276 1.377 . S
C2277 C2283 1.390 . S
C2278 H2269 0.930 . S
C2278 C2276 1.384 . S
C2278 C2279 1.372 . S
C2279 C2278 1.372 . S
C2279 C2280 1.400 . S
C2279 C2284 1.490 . S
C2280 H2270 0.930 . S
C2280 C2279 1.400 . S
C2280 C2283 1.386 . S
H2281 C2297 0.930 . S
H2282 C2298 0.931 . S
C2283 H2271 0.929 . S
C2283 C2277 1.390 . S
C2283 C2280 1.386 . S
C2284 C2279 1.490 . S
C2284 C2286 1.395 . S
C2284 C2287 1.403 . S
H2285 C2291 0.930 . S
C2286 H2272 0.930 . S
C2286 C2284 1.395 . S
C2286 C2289 1.403 . S
C2287 C2284 1.403 . S
C2287 C2288 1.524 . S
C2287 C2291 1.400 . S
C2288 H2273 0.960 . S
C2288 H2274 0.960 . S
C2288 H2275 0.960 . S
C2288 C2287 1.524 . S
C2289 C2286 1.403 . S
C2289 C2290 1.392 . S
C2289 C2293 1.495 . S
C2290 C2289 1.392 . S
C2290 C2291 1.385 . S
C2290 C2292 1.478 . S
C2291 H2285 0.930 . S
C2291 C2287 1.400 . S
C2291 C2290 1.385 . S
C2292 C2290 1.478 . S
C2292 C2294 1.381 . S
C2292 C2298 1.383 . S
C2293 C2289 1.495 . S
C2293 H2299 0.959 . S
C2293 H2300 0.961 . S
C2293 H2301 0.960 . S
C2294 C2292 1.381 . S
C2294 C2295 1.394 . S
C2294 H2302 0.930 . S
C2295 C2294 1.394 . S
C2295 C2296 1.383 . S
C2295 H2303 0.929 . S
C2296 C2295 1.383 . S
C2296 C2297 1.377 . S
C2297 H2281 0.930 . S
C2297 C2296 1.377 . S
C2297 C2298 1.379 . S
C2298 H2282 0.931 . S
C2298 C2292 1.383 . S
C2298 C2297 1.379 . S
H2299 C2293 0.959 . S
H2300 C2293 0.961 . S
H2301 C2293 0.960 . S
H2302 C2294 0.930 . S
H2303 C2295 0.929 . S
H2304 C2312 0.929 . S
H2305 C2314 0.930 . S
H2306 C2316 0.930 . S
H2307 C2319 0.929 . S
H2308 C2322 0.930 . S
H2309 C2324 0.960 . S
H2310 C2324 0.960 . S
H2311 C2324 0.960 . S
C2312 H2304 0.929 . S
C2312 C2313 1.377 . S
C2312 C2314 1.384 . S
C2313 C2312 1.377 . S
C2313 C2319 1.390 . S
C2314 H2305 0.930 . S
C2314 C2312 1.384 . S
C2314 C2315 1.372 . S
C2315 C2314 1.372 . S
C2315 C2316 1.400 . S
C2315 C2320 1.490 . S
C2316 H2306 0.930 . S
C2316 C2315 1.400 . S
C2316 C2319 1.386 . S
H2317 C2333 0.930 . S
H2318 C2334 0.931 . S
C2319 H2307 0.929 . S
C2319 C2313 1.390 . S
C2319 C2316 1.386 . S
C2320 C2315 1.490 . S
C2320 C2322 1.395 . S
C2320 C2323 1.403 . S
H2321 C2327 0.930 . S
C2322 H2308 0.930 . S
C2322 C2320 1.395 . S
C2322 C2325 1.403 . S
C2323 C2320 1.403 . S
C2323 C2324 1.524 . S
C2323 C2327 1.400 . S
C2324 H2309 0.960 . S
C2324 H2310 0.960 . S
C2324 H2311 0.960 . S
C2324 C2323 1.524 . S
C2325 C2322 1.403 . S
C2325 C2326 1.392 . S
C2325 C2329 1.495 . S
C2326 C2325 1.392 . S
C2326 C2327 1.385 . S
C2326 C2328 1.478 . S
C2327 H2321 0.930 . S
C2327 C2323 1.400 . S
C2327 C2326 1.385 . S
C2328 C2326 1.478 . S
C2328 C2330 1.381 . S
C2328 C2334 1.383 . S
C2329 C2325 1.495 . S
C2329 H2335 0.959 . S
C2329 H2336 0.961 . S
C2329 H2337 0.960 . S
C2330 C2328 1.381 . S
C2330 C2331 1.394 . S
C2330 H2338 0.930 . S
C2331 C2330 1.394 . S
C2331 C2332 1.383 . S
C2331 H2339 0.929 . S
C2332 C2331 1.383 . S
C2332 C2333 1.377 . S
C2333 H2317 0.930 . S
C2333 C2332 1.377 . S
C2333 C2334 1.379 . S
C2334 H2318 0.931 . S
C2334 C2328 1.383 . S
C2334 C2333 1.379 . S
H2335 C2329 0.959 . S
H2336 C2329 0.961 . S
H2337 C2329 0.960 . S
H2338 C2330 0.930 . S
H2339 C2331 0.929 . S
H2340 C2348 0.929 . S
H2341 C2350 0.930 . S
H2342 C2352 0.930 . S
H2343 C2355 0.929 . S
H2344 C2358 0.930 . S
H2345 C2360 0.960 . S
H2346 C2360 0.960 . S
H2347 C2360 0.960 . S
C2348 H2340 0.929 . S
C2348 C2349 1.377 . S
C2348 C2350 1.384 . S
C2349 C2348 1.377 . S
C2349 C2355 1.390 . S
C2350 H2341 0.930 . S
C2350 C2348 1.384 . S
C2350 C2351 1.372 . S
C2351 C2350 1.372 . S
C2351 C2352 1.400 . S
C2351 C2356 1.490 . S
C2352 H2342 0.930 . S
C2352 C2351 1.400 . S
C2352 C2355 1.386 . S
H2353 C2369 0.930 . S
H2354 C2370 0.931 . S
C2355 H2343 0.929 . S
C2355 C2349 1.390 . S
C2355 C2352 1.386 . S
C2356 C2351 1.490 . S
C2356 C2358 1.395 . S
C2356 C2359 1.403 . S
H2357 C2363 0.930 . S
C2358 H2344 0.930 . S
C2358 C2356 1.395 . S
C2358 C2361 1.403 . S
C2359 C2356 1.403 . S
C2359 C2360 1.524 . S
C2359 C2363 1.400 . S
C2360 H2345 0.960 . S
C2360 H2346 0.960 . S
C2360 H2347 0.960 . S
C2360 C2359 1.524 . S
C2361 C2358 1.403 . S
C2361 C2362 1.392 . S
C2361 C2365 1.495 . S
C2362 C2361 1.392 . S
C2362 C2363 1.385 . S
C2362 C2364 1.478 . S
C2363 H2357 0.930 . S
C2363 C2359 1.400 . S
C2363 C2362 1.385 . S
C2364 C2362 1.478 . S
C2364 C2366 1.381 . S
C2364 C2370 1.383 . S
C2365 C2361 1.495 . S
C2365 H2371 0.959 . S
C2365 H2372 0.961 . S
C2365 H2373 0.960 . S
C2366 C2364 1.381 . S
C2366 C2367 1.394 . S
C2366 H2374 0.930 . S
C2367 C2366 1.394 . S
C2367 C2368 1.383 . S
C2367 H2375 0.929 . S
C2368 C2367 1.383 . S
C2368 C2369 1.377 . S
C2369 H2353 0.930 . S
C2369 C2368 1.377 . S
C2369 C2370 1.379 . S
C2370 H2354 0.931 . S
C2370 C2364 1.383 . S
C2370 C2369 1.379 . S
H2371 C2365 0.959 . S
H2372 C2365 0.961 . S
H2373 C2365 0.960 . S
H2374 C2366 0.930 . S
H2375 C2367 0.929 . S
H2376 C2384 0.929 . S
H2377 C2386 0.930 . S
H2378 C2388 0.930 . S
H2379 C2391 0.929 . S
H2380 C2394 0.930 . S
H2381 C2396 0.960 . S
H2382 C2396 0.960 . S
H2383 C2396 0.960 . S
C2384 H2376 0.929 . S
C2384 C2385 1.377 . S
C2384 C2386 1.384 . S
C2385 C2384 1.377 . S
C2385 C2391 1.390 . S
C2386 H2377 0.930 . S
C2386 C2384 1.384 . S
C2386 C2387 1.372 . S
C2387 C2386 1.372 . S
C2387 C2388 1.400 . S
C2387 C2392 1.490 . S
C2388 H2378 0.930 . S
C2388 C2387 1.400 . S
C2388 C2391 1.386 . S
H2389 C2405 0.930 . S
H2390 C2406 0.931 . S
C2391 H2379 0.929 . S
C2391 C2385 1.390 . S
C2391 C2388 1.386 . S
C2392 C2387 1.490 . S
C2392 C2394 1.395 . S
C2392 C2395 1.403 . S
H2393 C2399 0.930 . S
C2394 H2380 0.930 . S
C2394 C2392 1.395 . S
C2394 C2397 1.403 . S
C2395 C2392 1.403 . S
C2395 C2396 1.524 . S
C2395 C2399 1.400 . S
C2396 H2381 0.960 . S
C2396 H2382 0.960 . S
C2396 H2383 0.960 . S
C2396 C2395 1.524 . S
C2397 C2394 1.403 . S
C2397 C2398 1.392 . S
C2397 C2401 1.495 . S
C2398 C2397 1.392 . S
C2398 C2399 1.385 . S
C2398 C2400 1.478 . S
C2399 H2393 0.930 . S
C2399 C2395 1.400 . S
C2399 C2398 1.385 . S
C2400 C2398 1.478 . S
C2400 C2402 1.381 . S
C2400 C2406 1.383 . S
C2401 C2397 1.495 . S
C2401 H2407 0.959 . S
C2401 H2408 0.961 . S
C2401 H2409 0.960 . S
C2402 C2400 1.381 . S
C2402 C2403 1.394 . S
C2402 H2410 0.930 . S
C2403 C2402 1.394 . S
C2403 C2404 1.383 . S
C2403 H2411 0.929 . S
C2404 C2403 1.383 . S
C2404 C2405 1.377 . S
C2405 H2389 0.930 . S
C2405 C2404 1.377 . S
C2405 C2406 1.379 . S
C2406 H2390 0.931 . S
C2406 C2400 1.383 . S
C2406 C2405 1.379 . S
H2407 C2401 0.959 . S
H2408 C2401 0.961 . S
H2409 C2401 0.960 . S
H2410 C2402 0.930 . S
H2411 C2403 0.929 . S
H2412 C2420 0.929 . S
H2413 C2422 0.930 . S
H2414 C2424 0.930 . S
H2415 C2427 0.929 . S
H2416 C2430 0.930 . S
H2417 C2432 0.960 . S
H2418 C2432 0.960 . S
H2419 C2432 0.960 . S
C2420 H2412 0.929 . S
C2420 C2421 1.377 . S
C2420 C2422 1.384 . S
C2421 C2420 1.377 . S
C2421 C2427 1.390 . S
C2422 H2413 0.930 . S
C2422 C2420 1.384 . S
C2422 C2423 1.372 . S
C2423 C2422 1.372 . S
C2423 C2424 1.400 . S
C2423 C2428 1.490 . S
C2424 H2414 0.930 . S
C2424 C2423 1.400 . S
C2424 C2427 1.386 . S
H2425 C2441 0.930 . S
H2426 C2442 0.931 . S
C2427 H2415 0.929 . S
C2427 C2421 1.390 . S
C2427 C2424 1.386 . S
C2428 C2423 1.490 . S
C2428 C2430 1.395 . S
C2428 C2431 1.403 . S
H2429 C2435 0.930 . S
C2430 H2416 0.930 . S
C2430 C2428 1.395 . S
C2430 C2433 1.403 . S
C2431 C2428 1.403 . S
C2431 C2432 1.524 . S
C2431 C2435 1.400 . S
C2432 H2417 0.960 . S
C2432 H2418 0.960 . S
C2432 H2419 0.960 . S
C2432 C2431 1.524 . S
C2433 C2430 1.403 . S
C2433 C2434 1.392 . S
C2433 C2437 1.495 . S
C2434 C2433 1.392 . S
C2434 C2435 1.385 . S
C2434 C2436 1.478 . S
C2435 H2429 0.930 . S
C2435 C2431 1.400 . S
C2435 C2434 1.385 . S
C2436 C2434 1.478 . S
C2436 C2438 1.381 . S
C2436 C2442 1.383 . S
C2437 C2433 1.495 . S
C2437 H2443 0.959 . S
C2437 H2444 0.961 . S
C2437 H2445 0.960 . S
C2438 C2436 1.381 . S
C2438 C2439 1.394 . S
C2438 H2446 0.930 . S
C2439 C2438 1.394 . S
C2439 C2440 1.383 . S
C2439 H2447 0.929 . S
C2440 C2439 1.383 . S
C2440 C2441 1.377 . S
C2441 H2425 0.930 . S
C2441 C2440 1.377 . S
C2441 C2442 1.379 . S
C2442 H2426 0.931 . S
C2442 C2436 1.383 . S
C2442 C2441 1.379 . S
H2443 C2437 0.959 . S
H2444 C2437 0.961 . S
H2445 C2437 0.960 . S
H2446 C2438 0.930 . S
H2447 C2439 0.929 . S
H2448 C2456 0.929 . S
H2449 C2458 0.930 . S
H2450 C2460 0.930 . S
H2451 C2463 0.929 . S
H2452 C2466 0.930 . S
H2453 C2468 0.960 . S
H2454 C2468 0.960 . S
H2455 C2468 0.960 . S
C2456 H2448 0.929 . S
C2456 C2457 1.377 . S
C2456 C2458 1.384 . S
C2457 C2456 1.377 . S
C2457 C2463 1.390 . S
C2458 H2449 0.930 . S
C2458 C2456 1.384 . S
C2458 C2459 1.372 . S
C2459 C2458 1.372 . S
C2459 C2460 1.400 . S
C2459 C2464 1.490 . S
C2460 H2450 0.930 . S
C2460 C2459 1.400 . S
C2460 C2463 1.386 . S
H2461 C2477 0.930 . S
H2462 C2478 0.931 . S
C2463 H2451 0.929 . S
C2463 C2457 1.390 . S
C2463 C2460 1.386 . S
C2464 C2459 1.490 . S
C2464 C2466 1.395 . S
C2464 C2467 1.403 . S
H2465 C2471 0.930 . S
C2466 H2452 0.930 . S
C2466 C2464 1.395 . S
C2466 C2469 1.403 . S
C2467 C2464 1.403 . S
C2467 C2468 1.524 . S
C2467 C2471 1.400 . S
C2468 H2453 0.960 . S
C2468 H2454 0.960 . S
C2468 H2455 0.960 . S
C2468 C2467 1.524 . S
C2469 C2466 1.403 . S
C2469 C2470 1.392 . S
C2469 C2473 1.495 . S
C2470 C2469 1.392 . S
C2470 C2471 1.385 . S
C2470 C2472 1.478 . S
C2471 H2465 0.930 . S
C2471 C2467 1.400 . S
C2471 C2470 1.385 . S
C2472 C2470 1.478 . S
C2472 C2474 1.381 . S
C2472 C2478 1.383 . S
C2473 C2469 1.495 . S
C2473 H2479 0.959 . S
C2473 H2480 0.961 . S
C2473 H2481 0.960 . S
C2474 C2472 1.381 . S
C2474 C2475 1.394 . S
C2474 H2482 0.930 . S
C2475 C2474 1.394 . S
C2475 C2476 1.383 . S
C2475 H2483 0.929 . S
C2476 C2475 1.383 . S
C2476 C2477 1.377 . S
C2477 H2461 0.930 . S
C2477 C2476 1.377 . S
C2477 C2478 1.379 . S
C2478 H2462 0.931 . S
C2478 C2472 1.383 . S
C2478 C2477 1.379 . S
H2479 C2473 0.959 . S
H2480 C2473 0.961 . S
H2481 C2473 0.960 . S
H2482 C2474 0.930 . S
H2483 C2475 0.929 . S
H2484 C2492 0.929 . S
H2485 C2494 0.930 . S
H2486 C2496 0.930 . S
H2487 C2499 0.929 . S
H2488 C2502 0.930 . S
H2489 C2504 0.960 . S
H2490 C2504 0.960 . S
H2491 C2504 0.960 . S
C2492 H2484 0.929 . S
C2492 C2493 1.377 . S
C2492 C2494 1.384 . S
C2493 C2492 1.377 . S
C2493 C2499 1.390 . S
C2494 H2485 0.930 . S
C2494 C2492 1.384 . S
C2494 C2495 1.372 . S
C2495 C2494 1.372 . S
C2495 C2496 1.400 . S
C2495 C2500 1.490 . S
C2496 H2486 0.930 . S
C2496 C2495 1.400 . S
C2496 C2499 1.386 . S
H2497 C2513 0.930 . S
H2498 C2514 0.931 . S
C2499 H2487 0.929 . S
C2499 C2493 1.390 . S
C2499 C2496 1.386 . S
C2500 C2495 1.490 . S
C2500 C2502 1.395 . S
C2500 C2503 1.403 . S
H2501 C2507 0.930 . S
C2502 H2488 0.930 . S
C2502 C2500 1.395 . S
C2502 C2505 1.403 . S
C2503 C2500 1.403 . S
C2503 C2504 1.524 . S
C2503 C2507 1.400 . S
C2504 H2489 0.960 . S
C2504 H2490 0.960 . S
C2504 H2491 0.960 . S
C2504 C2503 1.524 . S
C2505 C2502 1.403 . S
C2505 C2506 1.392 . S
C2505 C2509 1.495 . S
C2506 C2505 1.392 . S
C2506 C2507 1.385 . S
C2506 C2508 1.478 . S
C2507 H2501 0.930 . S
C2507 C2503 1.400 . S
C2507 C2506 1.385 . S
C2508 C2506 1.478 . S
C2508 C2510 1.381 . S
C2508 C2514 1.383 . S
C2509 C2505 1.495 . S
C2509 H2515 0.959 . S
C2509 H2516 0.961 . S
C2509 H2517 0.960 . S
C2510 C2508 1.381 . S
C2510 C2511 1.394 . S
C2510 H2518 0.930 . S
C2511 C2510 1.394 . S
C2511 C2512 1.383 . S
C2511 H2519 0.929 . S
C2512 C2511 1.383 . S
C2512 C2513 1.377 . S
C2513 H2497 0.930 . S
C2513 C2512 1.377 . S
C2513 C2514 1.379 . S
C2514 H2498 0.931 . S
C2514 C2508 1.383 . S
C2514 C2513 1.379 . S
H2515 C2509 0.959 . S
H2516 C2509 0.961 . S
H2517 C2509 0.960 . S
H2518 C2510 0.930 . S
H2519 C2511 0.929 . S
H2520 C2528 0.929 . S
H2521 C2530 0.930 . S
H2522 C2532 0.930 . S
H2523 C2535 0.929 . S
H2524 C2538 0.930 . S
H2525 C2540 0.960 . S
H2526 C2540 0.960 . S
H2527 C2540 0.960 . S
C2528 H2520 0.929 . S
C2528 C2529 1.377 . S
C2528 C2530 1.384 . S
C2529 C2528 1.377 . S
C2529 C2535 1.390 . S
C2530 H2521 0.930 . S
C2530 C2528 1.384 . S
C2530 C2531 1.372 . S
C2531 C2530 1.372 . S
C2531 C2532 1.400 . S
C2531 C2536 1.490 . S
C2532 H2522 0.930 . S
C2532 C2531 1.400 . S
C2532 C2535 1.386 . S
H2533 C2549 0.930 . S
H2534 C2550 0.931 . S
C2535 H2523 0.929 . S
C2535 C2529 1.390 . S
C2535 C2532 1.386 . S
C2536 C2531 1.490 . S
C2536 C2538 1.395 . S
C2536 C2539 1.403 . S
H2537 C2543 0.930 . S
C2538 H2524 0.930 . S
C2538 C2536 1.395 . S
C2538 C2541 1.403 . S
C2539 C2536 1.403 . S
C2539 C2540 1.524 . S
C2539 C2543 1.400 . S
C2540 H2525 0.960 . S
C2540 H2526 0.960 . S
C2540 H2527 0.960 . S
C2540 C2539 1.524 . S
C2541 C2538 1.403 . S
C2541 C2542 1.392 . S
C2541 C2545 1.495 . S
C2542 C2541 1.392 . S
C2542 C2543 1.385 . S
C2542 C2544 1.478 . S
C2543 H2537 0.930 . S
C2543 C2539 1.400 . S
C2543 C2542 1.385 . S
C2544 C2542 1.478 . S
C2544 C2546 1.381 . S
C2544 C2550 1.383 . S
C2545 C2541 1.495 . S
C2545 H2551 0.959 . S
C2545 H2552 0.961 . S
C2545 H2553 0.960 . S
C2546 C2544 1.381 . S
C2546 C2547 1.394 . S
C2546 H2554 0.930 . S
C2547 C2546 1.394 . S
C2547 C2548 1.383 . S
C2547 H2555 0.929 . S
C2548 C2547 1.383 . S
C2548 C2549 1.377 . S
C2549 H2533 0.930 . S
C2549 C2548 1.377 . S
C2549 C2550 1.379 . S
C2550 H2534 0.931 . S
C2550 C2544 1.383 . S
C2550 C2549 1.379 . S
H2551 C2545 0.959 . S
H2552 C2545 0.961 . S
H2553 C2545 0.960 . S
H2554 C2546 0.930 . S
H2555 C2547 0.929 . S
H2556 C2564 0.929 . S
H2557 C2566 0.930 . S
H2558 C2568 0.930 . S
H2559 C2571 0.966 . S
H2560 C2574 0.930 . S
H2561 C2576 0.960 . S
H2562 C2576 0.960 . S
H2563 C2576 0.960 . S
C2564 H2556 0.929 . S
C2564 C2565 1.377 . S
C2564 C2566 1.384 . S
C2565 C2564 1.377 . S
C2565 C2571 1.390 . S
C2566 H2557 0.930 . S
C2566 C2564 1.384 . S
C2566 C2567 1.372 . S
C2567 C2566 1.372 . S
C2567 C2568 1.400 . S
C2567 C2572 1.490 . S
C2568 H2558 0.930 . S
C2568 C2567 1.400 . S
C2568 C2571 1.386 . S
H2569 C2585 0.930 . S
H2570 C2586 0.931 . S
C2571 H2559 0.966 . S
C2571 C2565 1.390 . S
C2571 C2568 1.386 . S
C2572 C2567 1.490 . S
C2572 C2574 1.395 . S
C2572 C2575 1.403 . S
H2573 C2579 0.930 . S
C2574 H2560 0.930 . S
C2574 C2572 1.395 . S
C2574 C2577 1.403 . S
C2575 C2572 1.403 . S
C2575 C2576 1.524 . S
C2575 C2579 1.400 . S
C2576 H2561 0.960 . S
C2576 H2562 0.960 . S
C2576 H2563 0.960 . S
C2576 C2575 1.524 . S
C2577 C2574 1.403 . S
C2577 C2578 1.392 . S
C2577 C2581 1.495 . S
C2578 C2577 1.392 . S
C2578 C2579 1.385 . S
C2578 C2580 1.478 . S
C2579 H2573 0.930 . S
C2579 C2575 1.400 . S
C2579 C2578 1.385 . S
C2580 C2578 1.478 . S
C2580 C2582 1.381 . S
C2580 C2586 1.383 . S
C2581 C2577 1.495 . S
C2581 H2587 0.959 . S
C2581 H2588 0.961 . S
C2581 H2589 0.960 . S
C2582 C2580 1.381 . S
C2582 C2583 1.394 . S
C2582 H2590 0.930 . S
C2583 C2582 1.394 . S
C2583 C2584 1.383 . S
C2583 H2591 0.929 . S
C2584 C2583 1.383 . S
C2584 C2585 1.377 . S
C2585 H2569 0.930 . S
C2585 C2584 1.377 . S
C2585 C2586 1.379 . S
C2586 H2570 0.931 . S
C2586 C2580 1.383 . S
C2586 C2585 1.379 . S
H2587 C2581 0.959 . S
H2588 C2581 0.961 . S
H2589 C2581 0.960 . S
H2590 C2582 0.930 . S
H2591 C2583 0.929 . S
H2592 C2600 0.929 . S
H2593 C2602 0.930 . S
H2594 C2604 0.930 . S
H2595 C2607 0.929 . S
H2596 C2610 0.930 . S
H2597 C2612 0.960 . S
H2598 C2612 0.960 . S
H2599 C2612 0.960 . S
C2600 H2592 0.929 . S
C2600 C2601 1.377 . S
C2600 C2602 1.384 . S
C2601 C2600 1.377 . S
C2601 C2607 1.390 . S
C2602 H2593 0.930 . S
C2602 C2600 1.384 . S
C2602 C2603 1.372 . S
C2603 C2602 1.372 . S
C2603 C2604 1.400 . S
C2603 C2608 1.490 . S
C2604 H2594 0.930 . S
C2604 C2603 1.400 . S
C2604 C2607 1.386 . S
H2605 C2621 0.930 . S
H2606 C2622 0.931 . S
C2607 H2595 0.929 . S
C2607 C2601 1.390 . S
C2607 C2604 1.386 . S
C2608 C2603 1.490 . S
C2608 C2610 1.395 . S
C2608 C2611 1.403 . S
H2609 C2615 0.930 . S
C2610 H2596 0.930 . S
C2610 C2608 1.395 . S
C2610 C2613 1.403 . S
C2611 C2608 1.403 . S
C2611 C2612 1.524 . S
C2611 C2615 1.400 . S
C2612 H2597 0.960 . S
C2612 H2598 0.960 . S
C2612 H2599 0.960 . S
C2612 C2611 1.524 . S
C2613 C2610 1.403 . S
C2613 C2614 1.392 . S
C2613 C2617 1.495 . S
C2614 C2613 1.392 . S
C2614 C2615 1.385 . S
C2614 C2616 1.478 . S
C2615 H2609 0.930 . S
C2615 C2611 1.400 . S
C2615 C2614 1.385 . S
C2616 C2614 1.478 . S
C2616 C2618 1.381 . S
C2616 C2622 1.383 . S
C2617 C2613 1.495 . S
C2617 H2623 0.959 . S
C2617 H2624 0.961 . S
C2617 H2625 0.960 . S
C2618 C2616 1.381 . S
C2618 C2619 1.394 . S
C2618 H2626 0.930 . S
C2619 C2618 1.394 . S
C2619 C2620 1.383 . S
C2619 H2627 0.929 . S
C2620 C2619 1.383 . S
C2620 C2621 1.377 . S
C2621 H2605 0.930 . S
C2621 C2620 1.377 . S
C2621 C2622 1.379 . S
C2622 H2606 0.931 . S
C2622 C2616 1.383 . S
C2622 C2621 1.379 . S
H2623 C2617 0.959 . S
H2624 C2617 0.961 . S
H2625 C2617 0.960 . S
H2626 C2618 0.930 . S
H2627 C2619 0.929 . S
H2628 C2636 0.929 . S
H2629 C2638 0.930 . S
H2630 C2640 0.930 . S
H2631 C2643 0.929 . S
H2632 C2646 0.930 . S
H2633 C2648 0.960 . S
H2634 C2648 0.960 . S
H2635 C2648 0.960 . S
C2636 H2628 0.929 . S
C2636 C2637 1.377 . S
C2636 C2638 1.384 . S
C2637 C2636 1.377 . S
C2637 C2643 1.390 . S
C2638 H2629 0.930 . S
C2638 C2636 1.384 . S
C2638 C2639 1.372 . S
C2639 C2638 1.372 . S
C2639 C2640 1.400 . S
C2639 C2644 1.490 . S
C2640 H2630 0.930 . S
C2640 C2639 1.400 . S
C2640 C2643 1.386 . S
H2641 C2657 0.930 . S
H2642 C2658 0.931 . S
C2643 H2631 0.929 . S
C2643 C2637 1.390 . S
C2643 C2640 1.386 . S
C2644 C2639 1.490 . S
C2644 C2646 1.395 . S
C2644 C2647 1.403 . S
H2645 C2651 0.930 . S
C2646 H2632 0.930 . S
C2646 C2644 1.395 . S
C2646 C2649 1.403 . S
C2647 C2644 1.403 . S
C2647 C2648 1.524 . S
C2647 C2651 1.400 . S
C2648 H2633 0.960 . S
C2648 H2634 0.960 . S
C2648 H2635 0.960 . S
C2648 C2647 1.524 . S
C2649 C2646 1.403 . S
C2649 C2650 1.392 . S
C2649 C2653 1.495 . S
C2650 C2649 1.392 . S
C2650 C2651 1.385 . S
C2650 C2652 1.478 . S
C2651 H2645 0.930 . S
C2651 C2647 1.400 . S
C2651 C2650 1.385 . S
C2652 C2650 1.478 . S
C2652 C2654 1.381 . S
C2652 C2658 1.383 . S
C2653 C2649 1.495 . S
C2653 H2659 0.959 . S
C2653 H2660 0.961 . S
C2653 H2661 0.960 . S
C2654 C2652 1.381 . S
C2654 C2655 1.394 . S
C2654 H2662 0.930 . S
C2655 C2654 1.394 . S
C2655 C2656 1.383 . S
C2655 H2663 0.929 . S
C2656 C2655 1.383 . S
C2656 C2657 1.377 . S
C2657 H2641 0.930 . S
C2657 C2656 1.377 . S
C2657 C2658 1.379 . S
C2658 H2642 0.931 . S
C2658 C2652 1.383 . S
C2658 C2657 1.379 . S
H2659 C2653 0.959 . S
H2660 C2653 0.961 . S
H2661 C2653 0.960 . S
H2662 C2654 0.930 . S
H2663 C2655 0.929 . S
H2664 C2672 0.929 . S
H2665 C2674 0.930 . S
H2666 C2676 0.930 . S
H2667 C2679 0.929 . S
H2668 C2682 0.930 . S
H2669 C2684 0.960 . S
H2670 C2684 0.960 . S
H2671 C2684 0.960 . S
C2672 H2664 0.929 . S
C2672 C2673 1.377 . S
C2672 C2674 1.384 . S
C2673 C2672 1.377 . S
C2673 C2679 1.390 . S
C2674 H2665 0.930 . S
C2674 C2672 1.384 . S
C2674 C2675 1.372 . S
C2675 C2674 1.372 . S
C2675 C2676 1.400 . S
C2675 C2680 1.490 . S
C2676 H2666 0.930 . S
C2676 C2675 1.400 . S
C2676 C2679 1.386 . S
H2677 C2693 0.930 . S
H2678 C2694 0.931 . S
C2679 H2667 0.929 . S
C2679 C2673 1.390 . S
C2679 C2676 1.386 . S
C2680 C2675 1.490 . S
C2680 C2682 1.395 . S
C2680 C2683 1.403 . S
H2681 C2687 0.930 . S
C2682 H2668 0.930 . S
C2682 C2680 1.395 . S
C2682 C2685 1.403 . S
C2683 C2680 1.403 . S
C2683 C2684 1.524 . S
C2683 C2687 1.400 . S
C2684 H2669 0.960 . S
C2684 H2670 0.960 . S
C2684 H2671 0.960 . S
C2684 C2683 1.524 . S
C2685 C2682 1.403 . S
C2685 C2686 1.392 . S
C2685 C2689 1.495 . S
C2686 C2685 1.392 . S
C2686 C2687 1.385 . S
C2686 C2688 1.478 . S
C2687 H2681 0.930 . S
C2687 C2683 1.400 . S
C2687 C2686 1.385 . S
C2688 C2686 1.478 . S
C2688 C2690 1.381 . S
C2688 C2694 1.383 . S
C2689 C2685 1.495 . S
C2689 H2695 0.959 . S
C2689 H2696 0.961 . S
C2689 H2697 0.960 . S
C2690 C2688 1.381 . S
C2690 C2691 1.394 . S
C2690 H2698 0.930 . S
C2691 C2690 1.394 . S
C2691 C2692 1.383 . S
C2691 H2699 0.929 . S
C2692 C2691 1.383 . S
C2692 C2693 1.377 . S
C2693 H2677 0.930 . S
C2693 C2692 1.377 . S
C2693 C2694 1.379 . S
C2694 H2678 0.931 . S
C2694 C2688 1.383 . S
C2694 C2693 1.379 . S
H2695 C2689 0.959 . S
H2696 C2689 0.961 . S
H2697 C2689 0.960 . S
H2698 C2690 0.930 . S
H2699 C2691 0.929 . S
H2700 C2708 0.929 . S
H2701 C2710 0.930 . S
H2702 C2712 0.930 . S
H2703 C2715 0.929 . S
H2704 C2718 0.930 . S
H2705 C2720 0.960 . S
H2706 C2720 0.960 . S
H2707 C2720 0.960 . S
C2708 H2700 0.929 . S
C2708 C2709 1.377 . S
C2708 C2710 1.384 . S
C2709 C2708 1.377 . S
C2709 C2715 1.390 . S
C2710 H2701 0.930 . S
C2710 C2708 1.384 . S
C2710 C2711 1.372 . S
C2711 C2710 1.372 . S
C2711 C2712 1.400 . S
C2711 C2716 1.490 . S
C2712 H2702 0.930 . S
C2712 C2711 1.400 . S
C2712 C2715 1.386 . S
H2713 C2729 0.930 . S
H2714 C2730 0.931 . S
C2715 H2703 0.929 . S
C2715 C2709 1.390 . S
C2715 C2712 1.386 . S
C2716 C2711 1.490 . S
C2716 C2718 1.395 . S
C2716 C2719 1.403 . S
H2717 C2723 0.930 . S
C2718 H2704 0.930 . S
C2718 C2716 1.395 . S
C2718 C2721 1.403 . S
C2719 C2716 1.403 . S
C2719 C2720 1.524 . S
C2719 C2723 1.400 . S
C2720 H2705 0.960 . S
C2720 H2706 0.960 . S
C2720 H2707 0.960 . S
C2720 C2719 1.524 . S
C2721 C2718 1.403 . S
C2721 C2722 1.392 . S
C2721 C2725 1.495 . S
C2722 C2721 1.392 . S
C2722 C2723 1.385 . S
C2722 C2724 1.478 . S
C2723 H2717 0.930 . S
C2723 C2719 1.400 . S
C2723 C2722 1.385 . S
C2724 C2722 1.478 . S
C2724 C2726 1.381 . S
C2724 C2730 1.383 . S
C2725 C2721 1.495 . S
C2725 H2731 0.959 . S
C2725 H2732 0.961 . S
C2725 H2733 0.960 . S
C2726 C2724 1.381 . S
C2726 C2727 1.394 . S
C2726 H2734 0.930 . S
C2727 C2726 1.394 . S
C2727 C2728 1.383 . S
C2727 H2735 0.929 . S
C2728 C2727 1.383 . S
C2728 C2729 1.377 . S
C2729 H2713 0.930 . S
C2729 C2728 1.377 . S
C2729 C2730 1.379 . S
C2730 H2714 0.931 . S
C2730 C2724 1.383 . S
C2730 C2729 1.379 . S
H2731 C2725 0.959 . S
H2732 C2725 0.961 . S
H2733 C2725 0.960 . S
H2734 C2726 0.930 . S
H2735 C2727 0.929 . S
H2736 C2744 0.929 . S
H2737 C2746 0.930 . S
H2738 C2748 0.930 . S
H2739 C2751 0.929 . S
H2740 C2754 0.930 . S
H2741 C2756 0.960 . S
H2742 C2756 0.960 . S
H2743 C2756 0.960 . S
C2744 H2736 0.929 . S
C2744 C2745 1.377 . S
C2744 C2746 1.384 . S
C2745 C2744 1.377 . S
C2745 C2751 1.390 . S
C2746 H2737 0.930 . S
C2746 C2744 1.384 . S
C2746 C2747 1.372 . S
C2747 C2746 1.372 . S
C2747 C2748 1.400 . S
C2747 C2752 1.490 . S
C2748 H2738 0.930 . S
C2748 C2747 1.400 . S
C2748 C2751 1.386 . S
H2749 C2765 0.930 . S
H2750 C2766 0.931 . S
C2751 H2739 0.929 . S
C2751 C2745 1.390 . S
C2751 C2748 1.386 . S
C2752 C2747 1.490 . S
C2752 C2754 1.395 . S
C2752 C2755 1.403 . S
H2753 C2759 0.930 . S
C2754 H2740 0.930 . S
C2754 C2752 1.395 . S
C2754 C2757 1.403 . S
C2755 C2752 1.403 . S
C2755 C2756 1.524 . S
C2755 C2759 1.400 . S
C2756 H2741 0.960 . S
C2756 H2742 0.960 . S
C2756 H2743 0.960 . S
C2756 C2755 1.524 . S
C2757 C2754 1.403 . S
C2757 C2758 1.392 . S
C2757 C2761 1.495 . S
C2758 C2757 1.392 . S
C2758 C2759 1.385 . S
C2758 C2760 1.478 . S
C2759 H2753 0.930 . S
C2759 C2755 1.400 . S
C2759 C2758 1.385 . S
C2760 C2758 1.478 . S
C2760 C2762 1.381 . S
C2760 C2766 1.383 . S
C2761 C2757 1.495 . S
C2761 H2767 0.959 . S
C2761 H2768 0.961 . S
C2761 H2769 0.960 . S
C2762 C2760 1.381 . S
C2762 C2763 1.394 . S
C2762 H2770 0.930 . S
C2763 C2762 1.394 . S
C2763 C2764 1.383 . S
C2763 H2771 0.929 . S
C2764 C2763 1.383 . S
C2764 C2765 1.377 . S
C2765 H2749 0.930 . S
C2765 C2764 1.377 . S
C2765 C2766 1.379 . S
C2766 H2750 0.931 . S
C2766 C2760 1.383 . S
C2766 C2765 1.379 . S
H2767 C2761 0.959 . S
H2768 C2761 0.961 . S
H2769 C2761 0.960 . S
H2770 C2762 0.930 . S
H2771 C2763 0.929 . S
H2772 C2780 0.929 . S
H2773 C2782 0.930 . S
H2774 C2784 0.930 . S
H2775 C2787 0.929 . S
H2776 C2790 0.930 . S
H2777 C2792 0.960 . S
H2778 C2792 0.960 . S
H2779 C2792 0.960 . S
C2780 H2772 0.929 . S
C2780 C2781 1.377 . S
C2780 C2782 1.384 . S
C2781 C2780 1.377 . S
C2781 C2787 1.390 . S
C2782 H2773 0.930 . S
C2782 C2780 1.384 . S
C2782 C2783 1.372 . S
C2783 C2782 1.372 . S
C2783 C2784 1.400 . S
C2783 C2788 1.490 . S
C2784 H2774 0.930 . S
C2784 C2783 1.400 . S
C2784 C2787 1.386 . S
H2785 C2801 0.930 . S
H2786 C2802 0.931 . S
C2787 H2775 0.929 . S
C2787 C2781 1.390 . S
C2787 C2784 1.386 . S
C2788 C2783 1.490 . S
C2788 C2790 1.395 . S
C2788 C2791 1.403 . S
H2789 C2795 0.930 . S
C2790 H2776 0.930 . S
C2790 C2788 1.395 . S
C2790 C2793 1.403 . S
C2791 C2788 1.403 . S
C2791 C2792 1.524 . S
C2791 C2795 1.400 . S
C2792 H2777 0.960 . S
C2792 H2778 0.960 . S
C2792 H2779 0.960 . S
C2792 C2791 1.524 . S
C2793 C2790 1.403 . S
C2793 C2794 1.392 . S
C2793 C2797 1.495 . S
C2794 C2793 1.392 . S
C2794 C2795 1.385 . S
C2794 C2796 1.478 . S
C2795 H2789 0.930 . S
C2795 C2791 1.400 . S
C2795 C2794 1.385 . S
C2796 C2794 1.478 . S
C2796 C2798 1.381 . S
C2796 C2802 1.383 . S
C2797 C2793 1.495 . S
C2797 H2803 0.959 . S
C2797 H2804 0.961 . S
C2797 H2805 0.960 . S
C2798 C2796 1.381 . S
C2798 C2799 1.394 . S
C2798 H2806 0.930 . S
C2799 C2798 1.394 . S
C2799 C2800 1.383 . S
C2799 H2807 0.929 . S
C2800 C2799 1.383 . S
C2800 C2801 1.377 . S
C2801 H2785 0.930 . S
C2801 C2800 1.377 . S
C2801 C2802 1.379 . S
C2802 H2786 0.931 . S
C2802 C2796 1.383 . S
C2802 C2801 1.379 . S
H2803 C2797 0.959 . S
H2804 C2797 0.961 . S
H2805 C2797 0.960 . S
H2806 C2798 0.930 . S
H2807 C2799 0.929 . S
H2808 C2816 0.929 . S
H2809 C2818 0.930 . S
H2810 C2820 0.930 . S
H2811 C2823 0.929 . S
H2812 C2826 0.930 . S
H2813 C2828 0.960 . S
H2814 C2828 0.960 . S
H2815 C2828 0.960 . S
C2816 H2808 0.929 . S
C2816 C2817 1.377 . S
C2816 C2818 1.384 . S
C2817 C2816 1.377 . S
C2817 C2823 1.390 . S
C2818 H2809 0.930 . S
C2818 C2816 1.384 . S
C2818 C2819 1.372 . S
C2819 C2818 1.372 . S
C2819 C2820 1.400 . S
C2819 C2824 1.490 . S
C2820 H2810 0.930 . S
C2820 C2819 1.400 . S
C2820 C2823 1.386 . S
H2821 C2837 0.930 . S
H2822 C2838 0.931 . S
C2823 H2811 0.929 . S
C2823 C2817 1.390 . S
C2823 C2820 1.386 . S
C2824 C2819 1.490 . S
C2824 C2826 1.395 . S
C2824 C2827 1.403 . S
H2825 C2831 0.930 . S
C2826 H2812 0.930 . S
C2826 C2824 1.395 . S
C2826 C2829 1.403 . S
C2827 C2824 1.403 . S
C2827 C2828 1.524 . S
C2827 C2831 1.400 . S
C2828 H2813 0.960 . S
C2828 H2814 0.960 . S
C2828 H2815 0.960 . S
C2828 C2827 1.524 . S
C2829 C2826 1.403 . S
C2829 C2830 1.392 . S
C2829 C2833 1.495 . S
C2830 C2829 1.392 . S
C2830 C2831 1.385 . S
C2830 C2832 1.478 . S
C2831 H2825 0.930 . S
C2831 C2827 1.400 . S
C2831 C2830 1.385 . S
C2832 C2830 1.478 . S
C2832 C2834 1.381 . S
C2832 C2838 1.383 . S
C2833 C2829 1.495 . S
C2833 H2839 0.959 . S
C2833 H2840 0.961 . S
C2833 H2841 0.960 . S
C2834 C2832 1.381 . S
C2834 C2835 1.394 . S
C2834 H2842 0.930 . S
C2835 C2834 1.394 . S
C2835 C2836 1.383 . S
C2835 H2843 0.929 . S
C2836 C2835 1.383 . S
C2836 C2837 1.377 . S
C2837 H2821 0.930 . S
C2837 C2836 1.377 . S
C2837 C2838 1.379 . S
C2838 H2822 0.931 . S
C2838 C2832 1.383 . S
C2838 C2837 1.379 . S
H2839 C2833 0.959 . S
H2840 C2833 0.961 . S
H2841 C2833 0.960 . S
H2842 C2834 0.930 . S
H2843 C2835 0.929 . S
H2844 C2852 0.929 . S
H2845 C2854 0.930 . S
H2846 C2856 0.930 . S
H2847 C2859 0.929 . S
H2848 C2862 0.930 . S
H2849 C2864 0.960 . S
H2850 C2864 0.960 . S
H2851 C2864 0.960 . S
C2852 H2844 0.929 . S
C2852 C2853 1.377 . S
C2852 C2854 1.384 . S
C2853 C2852 1.377 . S
C2853 C2859 1.390 . S
C2854 H2845 0.930 . S
C2854 C2852 1.384 . S
C2854 C2855 1.372 . S
C2855 C2854 1.372 . S
C2855 C2856 1.400 . S
C2855 C2860 1.490 . S
C2856 H2846 0.930 . S
C2856 C2855 1.400 . S
C2856 C2859 1.386 . S
H2857 C2873 0.930 . S
H2858 C2874 0.931 . S
C2859 H2847 0.929 . S
C2859 C2853 1.390 . S
C2859 C2856 1.386 . S
C2860 C2855 1.490 . S
C2860 C2862 1.395 . S
C2860 C2863 1.403 . S
H2861 C2867 0.930 . S
C2862 H2848 0.930 . S
C2862 C2860 1.395 . S
C2862 C2865 1.403 . S
C2863 C2860 1.403 . S
C2863 C2864 1.524 . S
C2863 C2867 1.400 . S
C2864 H2849 0.960 . S
C2864 H2850 0.960 . S
C2864 H2851 0.960 . S
C2864 C2863 1.524 . S
C2865 C2862 1.403 . S
C2865 C2866 1.392 . S
C2865 C2869 1.495 . S
C2866 C2865 1.392 . S
C2866 C2867 1.385 . S
C2866 C2868 1.478 . S
C2867 H2861 0.930 . S
C2867 C2863 1.400 . S
C2867 C2866 1.385 . S
C2868 C2866 1.478 . S
C2868 C2870 1.381 . S
C2868 C2874 1.383 . S
C2869 C2865 1.495 . S
C2869 H2875 0.959 . S
C2869 H2876 0.961 . S
C2869 H2877 0.960 . S
C2870 C2868 1.381 . S
C2870 C2871 1.394 . S
C2870 H2878 0.930 . S
C2871 C2870 1.394 . S
C2871 C2872 1.383 . S
C2871 H2879 0.929 . S
C2872 C2871 1.383 . S
C2872 C2873 1.377 . S
C2873 H2857 0.930 . S
C2873 C2872 1.377 . S
C2873 C2874 1.379 . S
C2874 H2858 0.931 . S
C2874 C2868 1.383 . S
C2874 C2873 1.379 . S
H2875 C2869 0.959 . S
H2876 C2869 0.961 . S
H2877 C2869 0.960 . S
H2878 C2870 0.930 . S
H2879 C2871 0.929 . S
H2880 C2888 0.929 . S
H2881 C2890 0.930 . S
H2882 C2892 0.930 . S
H2883 C2895 0.929 . S
H2884 C2898 0.930 . S
H2885 C2900 0.960 . S
H2886 C2900 0.960 . S
H2887 C2900 0.960 . S
C2888 H2880 0.929 . S
C2888 C2889 1.377 . S
C2888 C2890 1.384 . S
C2889 C2888 1.377 . S
C2889 C2895 1.390 . S
C2890 H2881 0.930 . S
C2890 C2888 1.384 . S
C2890 C2891 1.372 . S
C2891 C2890 1.372 . S
C2891 C2892 1.400 . S
C2891 C2896 1.490 . S
C2892 H2882 0.930 . S
C2892 C2891 1.400 . S
C2892 C2895 1.386 . S
H2893 C2909 0.930 . S
H2894 C2910 0.931 . S
C2895 H2883 0.929 . S
C2895 C2889 1.390 . S
C2895 C2892 1.386 . S
C2896 C2891 1.490 . S
C2896 C2898 1.395 . S
C2896 C2899 1.403 . S
H2897 C2903 0.930 . S
C2898 H2884 0.930 . S
C2898 C2896 1.395 . S
C2898 C2901 1.403 . S
C2899 C2896 1.403 . S
C2899 C2900 1.524 . S
C2899 C2903 1.400 . S
C2900 H2885 0.960 . S
C2900 H2886 0.960 . S
C2900 H2887 0.960 . S
C2900 C2899 1.524 . S
C2901 C2898 1.403 . S
C2901 C2902 1.392 . S
C2901 C2905 1.495 . S
C2902 C2901 1.392 . S
C2902 C2903 1.385 . S
C2902 C2904 1.478 . S
C2903 H2897 0.930 . S
C2903 C2899 1.400 . S
C2903 C2902 1.385 . S
C2904 C2902 1.478 . S
C2904 C2906 1.381 . S
C2904 C2910 1.383 . S
C2905 C2901 1.495 . S
C2905 H2911 0.959 . S
C2905 H2912 0.961 . S
C2905 H2913 0.960 . S
C2906 C2904 1.381 . S
C2906 C2907 1.394 . S
C2906 H2914 0.930 . S
C2907 C2906 1.394 . S
C2907 C2908 1.383 . S
C2907 H2915 0.929 . S
C2908 C2907 1.383 . S
C2908 C2909 1.377 . S
C2909 H2893 0.930 . S
C2909 C2908 1.377 . S
C2909 C2910 1.379 . S
C2910 H2894 0.931 . S
C2910 C2904 1.383 . S
C2910 C2909 1.379 . S
H2911 C2905 0.959 . S
H2912 C2905 0.961 . S
H2913 C2905 0.960 . S
H2914 C2906 0.930 . S
H2915 C2907 0.929 . S
H2916 C2924 0.929 . S
H2917 C2926 0.930 . S
H2918 C2928 0.930 . S
H2919 C2931 0.929 . S
H2920 C2934 0.930 . S
H2921 C2936 0.960 . S
H2922 C2936 0.960 . S
H2923 C2936 0.960 . S
C2924 H2916 0.929 . S
C2924 C2925 1.377 . S
C2924 C2926 1.384 . S
C2925 C2924 1.377 . S
C2925 C2931 1.390 . S
C2926 H2917 0.930 . S
C2926 C2924 1.384 . S
C2926 C2927 1.372 . S
C2927 C2926 1.372 . S
C2927 C2928 1.400 . S
C2927 C2932 1.490 . S
C2928 H2918 0.930 . S
C2928 C2927 1.400 . S
C2928 C2931 1.386 . S
H2929 C2945 0.930 . S
H2930 C2946 0.931 . S
C2931 H2919 0.929 . S
C2931 C2925 1.390 . S
C2931 C2928 1.386 . S
C2932 C2927 1.490 . S
C2932 C2934 1.395 . S
C2932 C2935 1.403 . S
H2933 C2939 0.930 . S
C2934 H2920 0.930 . S
C2934 C2932 1.395 . S
C2934 C2937 1.403 . S
C2935 C2932 1.403 . S
C2935 C2936 1.524 . S
C2935 C2939 1.400 . S
C2936 H2921 0.960 . S
C2936 H2922 0.960 . S
C2936 H2923 0.960 . S
C2936 C2935 1.524 . S
C2937 C2934 1.403 . S
C2937 C2938 1.392 . S
C2937 C2941 1.495 . S
C2938 C2937 1.392 . S
C2938 C2939 1.385 . S
C2938 C2940 1.478 . S
C2939 H2933 0.930 . S
C2939 C2935 1.400 . S
C2939 C2938 1.385 . S
C2940 C2938 1.478 . S
C2940 C2942 1.381 . S
C2940 C2946 1.383 . S
C2941 C2937 1.495 . S
C2941 H2947 0.959 . S
C2941 H2948 0.961 . S
C2941 H2949 0.960 . S
C2942 C2940 1.381 . S
C2942 C2943 1.394 . S
C2942 H2950 0.930 . S
C2943 C2942 1.394 . S
C2943 C2944 1.383 . S
C2943 H2951 0.929 . S
C2944 C2943 1.383 . S
C2944 C2945 1.377 . S
C2945 H2929 0.930 . S
C2945 C2944 1.377 . S
C2945 C2946 1.379 . S
C2946 H2930 0.931 . S
C2946 C2940 1.383 . S
C2946 C2945 1.379 . S
H2947 C2941 0.959 . S
H2948 C2941 0.961 . S
H2949 C2941 0.960 . S
H2950 C2942 0.930 . S
H2951 C2943 0.929 . S
H2952 C2960 0.929 1_655 S
H2953 C2962 0.930 1_655 S
H2954 C2964 0.930 . S
H2955 C2967 0.929 . S
H2956 C2970 0.930 . S
H2957 C2972 0.960 . S
H2958 C2972 0.960 . S
H2959 C2972 0.960 . S
C2960 H2952 0.929 1_455 S
C2960 C2961 1.377 . S
C2960 C2962 1.384 . S
C2961 C2960 1.377 . S
C2961 C2967 1.390 . S
C2962 H2953 0.930 1_455 S
C2962 C2960 1.384 . S
C2962 C2963 1.372 . S
C2963 C2962 1.372 . S
C2963 C2964 1.400 . S
C2963 C2968 1.490 . S
C2964 H2954 0.930 . S
C2964 C2963 1.400 . S
C2964 C2967 1.386 . S
H2965 C2981 0.930 . S
H2966 C2982 0.931 . S
C2967 H2955 0.929 . S
C2967 C2961 1.390 . S
C2967 C2964 1.386 . S
C2968 C2963 1.490 . S
C2968 C2970 1.395 1_455 S
C2968 C2971 1.403 . S
H2969 C2975 0.930 . S
C2970 H2956 0.930 . S
C2970 C2968 1.395 1_655 S
C2970 C2973 1.403 . S
C2971 C2968 1.403 . S
C2971 C2972 1.524 . S
C2971 C2975 1.400 . S
C2972 H2957 0.960 . S
C2972 H2958 0.960 . S
C2972 H2959 0.960 . S
C2972 C2971 1.524 . S
C2973 C2970 1.403 . S
C2973 C2974 1.392 1_655 S
C2973 C2977 1.495 . S
C2974 C2973 1.392 1_455 S
C2974 C2975 1.385 . S
C2974 C2976 1.478 . S
C2975 H2969 0.930 . S
C2975 C2971 1.400 . S
C2975 C2974 1.385 . S
C2976 C2974 1.478 . S
C2976 C2978 1.381 1_455 S
C2976 C2982 1.383 . S
C2977 C2973 1.495 . S
C2977 H2983 0.959 . S
C2977 H2984 0.961 . S
C2977 H2985 0.960 . S
C2978 C2976 1.381 1_655 S
C2978 C2979 1.394 . S
C2978 H2986 0.930 . S
C2979 C2978 1.394 . S
C2979 C2980 1.383 1_655 S
C2979 H2987 0.929 . S
C2980 C2979 1.383 1_455 S
C2980 C2981 1.377 . S
C2981 H2965 0.930 . S
C2981 C2980 1.377 . S
C2981 C2982 1.379 . S
C2982 H2966 0.931 . S
C2982 C2976 1.383 . S
C2982 C2981 1.379 . S
H2983 C2977 0.959 . S
H2984 C2977 0.961 . S
H2985 C2977 0.960 . S
H2986 C2978 0.930 . S
H2987 C2979 0.929 . S
H2988 C2996 0.929 . S
H2989 C2998 0.930 . S
H2990 C3000 0.930 . S
H2991 C3003 0.929 . S
H2992 C3006 0.930 . S
H2993 C3008 0.960 . S
H2994 C3008 0.960 . S
H2995 C3008 0.960 . S
C2996 H2988 0.929 . S
C2996 C2997 1.377 . S
C2996 C2998 1.384 . S
C2997 C2996 1.377 . S
C2997 C3003 1.390 . S
C2998 H2989 0.930 . S
C2998 C2996 1.384 . S
C2998 C2999 1.372 . S
C2999 C2998 1.372 . S
C2999 C3000 1.400 . S
C2999 C3004 1.490 . S
C3000 H2990 0.930 . S
C3000 C2999 1.400 . S
C3000 C3003 1.386 . S
H3001 C3017 0.930 . S
H3002 C3018 0.931 . S
C3003 H2991 0.929 . S
C3003 C2997 1.390 . S
C3003 C3000 1.386 . S
C3004 C2999 1.490 . S
C3004 C3006 1.395 . S
C3004 C3007 1.403 . S
H3005 C3011 0.930 . S
C3006 H2992 0.930 . S
C3006 C3004 1.395 . S
C3006 C3009 1.403 . S
C3007 C3004 1.403 . S
C3007 C3008 1.524 . S
C3007 C3011 1.400 . S
C3008 H2993 0.960 . S
C3008 H2994 0.960 . S
C3008 H2995 0.960 . S
C3008 C3007 1.524 . S
C3009 C3006 1.403 . S
C3009 C3010 1.392 . S
C3009 C3013 1.495 . S
C3010 C3009 1.392 . S
C3010 C3011 1.385 . S
C3010 C3012 1.478 . S
C3011 H3005 0.930 . S
C3011 C3007 1.400 . S
C3011 C3010 1.385 . S
C3012 C3010 1.478 . S
C3012 C3014 1.381 . S
C3012 C3018 1.383 . S
C3013 C3009 1.495 . S
C3013 H3019 0.959 . S
C3013 H3020 0.961 . S
C3013 H3021 0.960 . S
C3014 C3012 1.381 . S
C3014 C3015 1.394 . S
C3014 H3022 0.930 . S
C3015 C3014 1.394 . S
C3015 C3016 1.383 . S
C3015 H3023 0.929 . S
C3016 C3015 1.383 . S
C3016 C3017 1.377 . S
C3017 H3001 0.930 . S
C3017 C3016 1.377 . S
C3017 C3018 1.379 . S
C3018 H3002 0.931 . S
C3018 C3012 1.383 . S
C3018 C3017 1.379 . S
H3019 C3013 0.959 . S
H3020 C3013 0.961 . S
H3021 C3013 0.960 . S
H3022 C3014 0.930 . S
H3023 C3015 0.929 . S
H3024 C3032 0.929 . S
H3025 C3034 0.930 . S
H3026 C3036 0.917 . S
H3027 C3039 0.929 . S
H3028 C3042 0.930 . S
H3029 C3044 0.960 . S
H3030 C3044 0.960 . S
H3031 C3044 0.960 . S
C3032 H3024 0.929 . S
C3032 C3033 1.377 . S
C3032 C3034 1.384 . S
C3033 C3032 1.377 . S
C3033 C3039 1.390 . S
C3034 H3025 0.930 . S
C3034 C3032 1.384 . S
C3034 C3035 1.372 . S
C3035 C3034 1.372 . S
C3035 C3036 1.400 . S
C3035 C3040 1.490 . S
C3036 H3026 0.917 . S
C3036 C3035 1.400 . S
C3036 C3039 1.386 . S
H3037 C3053 0.930 . S
H3038 C3054 0.931 . S
C3039 H3027 0.929 . S
C3039 C3033 1.390 . S
C3039 C3036 1.386 . S
C3040 C3035 1.490 . S
C3040 C3042 1.395 1_565 S
C3040 C3043 1.403 . S
H3041 C3047 0.930 . S
C3042 H3028 0.930 . S
C3042 C3040 1.395 1_545 S
C3042 C3045 1.403 . S
C3043 C3040 1.403 . S
C3043 C3044 1.524 . S
C3043 C3047 1.400 . S
C3044 H3029 0.960 . S
C3044 H3030 0.960 . S
C3044 H3031 0.960 . S
C3044 C3043 1.524 . S
C3045 C3042 1.403 . S
C3045 C3046 1.392 1_545 S
C3045 C3049 1.495 . S
C3046 C3045 1.392 1_565 S
C3046 C3047 1.385 . S
C3046 C3048 1.478 . S
C3047 H3041 0.930 . S
C3047 C3043 1.400 . S
C3047 C3046 1.385 . S
C3048 C3046 1.478 . S
C3048 C3050 1.381 . S
C3048 C3054 1.383 1_565 S
C3049 C3045 1.495 . S
C3049 H3055 0.959 . S
C3049 H3056 0.961 . S
C3049 H3057 0.960 . S
C3050 C3048 1.381 . S
C3050 C3051 1.394 . S
C3050 H3058 0.930 . S
C3051 C3050 1.394 . S
C3051 C3052 1.383 . S
C3051 H3059 0.929 . S
C3052 C3051 1.383 . S
C3052 C3053 1.377 1_565 S
C3053 H3037 0.930 . S
C3053 C3052 1.377 1_545 S
C3053 C3054 1.379 . S
C3054 H3038 0.931 . S
C3054 C3048 1.383 1_545 S
C3054 C3053 1.379 . S
H3055 C3049 0.959 . S
H3056 C3049 0.961 . S
H3057 C3049 0.960 . S
H3058 C3050 0.930 . S
H3059 C3051 0.929 . S
H3060 C3068 0.929 . S
H3061 C3070 0.930 . S
H3062 C3072 0.930 . S
H3063 C3075 0.929 . S
H3064 C3078 0.915 . S
H3065 C3080 0.960 . S
H3066 C3080 0.960 . S
H3067 C3080 0.960 . S
C3068 H3060 0.929 . S
C3068 C3069 1.377 1_545 S
C3068 C3070 1.384 . S
C3069 C3068 1.377 1_565 S
C3069 C3075 1.390 . S
C3070 H3061 0.930 . S
C3070 C3068 1.384 . S
C3070 C3071 1.372 1_545 S
C3071 C3070 1.372 1_565 S
C3071 C3072 1.400 . S
C3071 C3076 1.490 . S
C3072 H3062 0.930 . S
C3072 C3071 1.400 . S
C3072 C3075 1.386 . S
H3073 C3089 0.930 . S
H3074 C3090 0.931 . S
C3075 H3063 0.929 . S
C3075 C3069 1.390 . S
C3075 C3072 1.386 . S
C3076 C3071 1.490 . S
C3076 C3078 1.395 . S
C3076 C3079 1.403 . S
H3077 C3083 0.930 . S
C3078 H3064 0.915 . S
C3078 C3076 1.395 . S
C3078 C3081 1.403 . S
C3079 C3076 1.403 . S
C3079 C3080 1.524 . S
C3079 C3083 1.400 . S
C3080 H3065 0.960 . S
C3080 H3066 0.960 . S
C3080 H3067 0.960 . S
C3080 C3079 1.524 . S
C3081 C3078 1.403 . S
C3081 C3082 1.392 . S
C3081 C3085 1.495 1_565 S
C3082 C3081 1.392 . S
C3082 C3083 1.385 . S
C3082 C3084 1.478 . S
C3083 H3077 0.930 . S
C3083 C3079 1.400 . S
C3083 C3082 1.385 . S
C3084 C3082 1.478 . S
C3084 C3086 1.381 1_565 S
C3084 C3090 1.383 . S
C3085 C3081 1.495 1_545 S
C3085 H3091 0.959 . S
C3085 H3092 0.961 1_545 S
C3085 H3093 0.960 . S
C3086 C3084 1.381 1_545 S
C3086 C3087 1.394 . S
C3086 H3094 0.930 . S
C3087 C3086 1.394 . S
C3087 C3088 1.383 1_545 S
C3087 H3095 0.929 . S
C3088 C3087 1.383 1_565 S
C3088 C3089 1.377 . S
C3089 H3073 0.930 . S
C3089 C3088 1.377 . S
C3089 C3090 1.379 . S
C3090 H3074 0.931 . S
C3090 C3084 1.383 . S
C3090 C3089 1.379 . S
H3091 C3085 0.959 . S
H3092 C3085 0.961 1_565 S
H3093 C3085 0.960 . S
H3094 C3086 0.930 . S
H3095 C3087 0.929 . S
H3096 C3104 0.929 . S
H3097 C3106 0.930 . S
H3098 C3108 0.930 . S
H3099 C3111 0.929 . S
H3100 C3114 0.930 . S
H3101 C3116 0.960 . S
H3102 C3116 0.960 1_455 S
H3103 C3116 0.960 . S
C3104 H3096 0.929 . S
C3104 C3105 1.377 . S
C3104 C3106 1.384 . S
C3105 C3104 1.377 . S
C3105 C3111 1.390 1_455 S
C3106 H3097 0.930 . S
C3106 C3104 1.384 . S
C3106 C3107 1.372 . S
C3107 C3106 1.372 . S
C3107 C3108 1.400 1_455 S
C3107 C3112 1.490 . S
C3108 H3098 0.930 . S
C3108 C3107 1.400 1_655 S
C3108 C3111 1.386 . S
H3109 C3125 0.930 . S
H3110 C3126 0.931 . S
C3111 H3099 0.929 . S
C3111 C3105 1.390 1_655 S
C3111 C3108 1.386 . S
C3112 C3107 1.490 . S
C3112 C3114 1.395 . S
C3112 C3115 1.403 . S
H3113 C3119 0.930 1_655 S
C3114 H3100 0.930 . S
C3114 C3112 1.395 . S
C3114 C3117 1.403 . S
C3115 C3112 1.403 . S
C3115 C3116 1.524 1_455 S
C3115 C3119 1.400 . S
C3116 H3101 0.960 . S
C3116 H3102 0.960 1_655 S
C3116 H3103 0.960 . S
C3116 C3115 1.524 1_655 S
C3117 C3114 1.403 . S
C3117 C3118 1.392 . S
C3117 C3121 1.495 . S
C3118 C3117 1.392 . S
C3118 C3119 1.385 . S
C3118 C3120 1.478 . S
C3119 H3113 0.930 1_455 S
C3119 C3115 1.400 . S
C3119 C3118 1.385 . S
C3120 C3118 1.478 . S
C3120 C3122 1.381 . S
C3120 C3126 1.383 1_455 S
C3121 C3117 1.495 . S
C3121 H3127 0.959 . S
C3121 H3128 0.961 . S
C3121 H3129 0.960 . S
C3122 C3120 1.381 . S
C3122 C3123 1.394 . S
C3122 H3130 0.930 . S
C3123 C3122 1.394 . S
C3123 C3124 1.383 . S
C3123 H3131 0.929 . S
C3124 C3123 1.383 . S
C3124 C3125 1.377 1_455 S
C3125 H3109 0.930 . S
C3125 C3124 1.377 1_655 S
C3125 C3126 1.379 . S
C3126 H3110 0.931 . S
C3126 C3120 1.383 1_655 S
C3126 C3125 1.379 . S
H3127 C3121 0.959 . S
H3128 C3121 0.961 . S
H3129 C3121 0.960 . S
H3130 C3122 0.930 . S
H3131 C3123 0.929 . S
H3132 C3140 0.929 . S
H3133 C3142 0.930 . S
H3134 C3144 0.930 . S
H3135 C3147 0.929 . S
H3136 C3150 0.930 . S
H3137 C3152 0.960 . S
H3138 C3152 0.960 . S
H3139 C3152 0.960 . S
C3140 H3132 0.929 . S
C3140 C3141 1.377 . S
C3140 C3142 1.384 . S
C3141 C3140 1.377 . S
C3141 C3147 1.390 . S
C3142 H3133 0.930 . S
C3142 C3140 1.384 . S
C3142 C3143 1.372 . S
C3143 C3142 1.372 . S
C3143 C3144 1.400 . S
C3143 C3148 1.490 . S
C3144 H3134 0.930 . S
C3144 C3143 1.400 . S
C3144 C3147 1.386 . S
H3145 C3161 0.930 . S
H3146 C3162 0.931 . S
C3147 H3135 0.929 . S
C3147 C3141 1.390 . S
C3147 C3144 1.386 . S
C3148 C3143 1.490 . S
C3148 C3150 1.395 . S
C3148 C3151 1.403 . S
H3149 C3155 0.930 . S
C3150 H3136 0.930 . S
C3150 C3148 1.395 . S
C3150 C3153 1.403 . S
C3151 C3148 1.403 . S
C3151 C3152 1.524 . S
C3151 C3155 1.400 . S
C3152 H3137 0.960 . S
C3152 H3138 0.960 . S
C3152 H3139 0.960 . S
C3152 C3151 1.524 . S
C3153 C3150 1.403 . S
C3153 C3154 1.392 . S
C3153 C3157 1.495 . S
C3154 C3153 1.392 . S
C3154 C3155 1.385 . S
C3154 C3156 1.478 . S
C3155 H3149 0.930 . S
C3155 C3151 1.400 . S
C3155 C3154 1.385 . S
C3156 C3154 1.478 . S
C3156 C3158 1.381 . S
C3156 C3162 1.383 . S
C3157 C3153 1.495 . S
C3157 H3163 0.959 . S
C3157 H3164 0.961 . S
C3157 H3165 0.960 . S
C3158 C3156 1.381 . S
C3158 C3159 1.394 . S
C3158 H3166 0.930 . S
C3159 C3158 1.394 . S
C3159 C3160 1.383 . S
C3159 H3167 0.929 . S
C3160 C3159 1.383 . S
C3160 C3161 1.377 . S
C3161 H3145 0.930 . S
C3161 C3160 1.377 . S
C3161 C3162 1.379 . S
C3162 H3146 0.931 . S
C3162 C3156 1.383 . S
C3162 C3161 1.379 . S
H3163 C3157 0.959 . S
H3164 C3157 0.961 . S
H3165 C3157 0.960 . S
H3166 C3158 0.930 . S
H3167 C3159 0.929 . S
H3168 C3176 0.929 . S
H3169 C3178 0.930 . S
H3170 C3180 0.930 . S
H3171 C3183 0.929 . S
H3172 C3186 0.930 . S
H3173 C3188 0.960 . S
H3174 C3188 0.960 . S
H3175 C3188 0.960 . S
C3176 H3168 0.929 . S
C3176 C3177 1.377 . S
C3176 C3178 1.384 . S
C3177 C3176 1.377 . S
C3177 C3183 1.390 . S
C3178 H3169 0.930 . S
C3178 C3176 1.384 . S
C3178 C3179 1.372 . S
C3179 C3178 1.372 . S
C3179 C3180 1.400 . S
C3179 C3184 1.490 . S
C3180 H3170 0.930 . S
C3180 C3179 1.400 . S
C3180 C3183 1.386 . S
H3181 C3197 0.930 . S
H3182 C3198 0.931 . S
C3183 H3171 0.929 . S
C3183 C3177 1.390 . S
C3183 C3180 1.386 . S
C3184 C3179 1.490 . S
C3184 C3186 1.395 . S
C3184 C3187 1.403 . S
H3185 C3191 0.930 . S
C3186 H3172 0.930 . S
C3186 C3184 1.395 . S
C3186 C3189 1.403 . S
C3187 C3184 1.403 . S
C3187 C3188 1.524 . S
C3187 C3191 1.400 . S
C3188 H3173 0.960 . S
C3188 H3174 0.960 . S
C3188 H3175 0.960 . S
C3188 C3187 1.524 . S
C3189 C3186 1.403 . S
C3189 C3190 1.392 . S
C3189 C3193 1.495 . S
C3190 C3189 1.392 . S
C3190 C3191 1.385 . S
C3190 C3192 1.478 . S
C3191 H3185 0.930 . S
C3191 C3187 1.400 . S
C3191 C3190 1.385 . S
C3192 C3190 1.478 . S
C3192 C3194 1.381 . S
C3192 C3198 1.383 . S
C3193 C3189 1.495 . S
C3193 H3199 0.959 . S
C3193 H3200 0.961 . S
C3193 H3201 0.960 . S
C3194 C3192 1.381 . S
C3194 C3195 1.394 . S
C3194 H3202 0.930 . S
C3195 C3194 1.394 . S
C3195 C3196 1.383 . S
C3195 H3203 0.929 . S
C3196 C3195 1.383 . S
C3196 C3197 1.377 . S
C3197 H3181 0.930 . S
C3197 C3196 1.377 . S
C3197 C3198 1.379 . S
C3198 H3182 0.931 . S
C3198 C3192 1.383 . S
C3198 C3197 1.379 . S
H3199 C3193 0.959 . S
H3200 C3193 0.961 . S
H3201 C3193 0.960 . S
H3202 C3194 0.930 . S
H3203 C3195 0.929 . S
H3204 C3212 0.929 . S
H3205 C3214 0.930 . S
H3206 C3216 0.930 . S
H3207 C3219 0.929 . S
H3208 C3222 0.930 . S
H3209 C3224 0.960 . S
H3210 C3224 0.960 . S
H3211 C3224 0.960 . S
C3212 H3204 0.929 . S
C3212 C3213 1.377 . S
C3212 C3214 1.384 . S
C3213 C3212 1.377 . S
C3213 C3219 1.390 . S
C3214 H3205 0.930 . S
C3214 C3212 1.384 . S
C3214 C3215 1.372 . S
C3215 C3214 1.372 . S
C3215 C3216 1.400 . S
C3215 C3220 1.490 . S
C3216 H3206 0.930 . S
C3216 C3215 1.400 . S
C3216 C3219 1.386 . S
H3217 C3233 0.930 . S
H3218 C3234 0.931 . S
C3219 H3207 0.929 . S
C3219 C3213 1.390 . S
C3219 C3216 1.386 . S
C3220 C3215 1.490 . S
C3220 C3222 1.395 . S
C3220 C3223 1.403 . S
H3221 C3227 0.930 . S
C3222 H3208 0.930 . S
C3222 C3220 1.395 . S
C3222 C3225 1.403 . S
C3223 C3220 1.403 . S
C3223 C3224 1.524 . S
C3223 C3227 1.400 . S
C3224 H3209 0.960 . S
C3224 H3210 0.960 . S
C3224 H3211 0.960 . S
C3224 C3223 1.524 . S
C3225 C3222 1.403 . S
C3225 C3226 1.392 . S
C3225 C3229 1.495 . S
C3226 C3225 1.392 . S
C3226 C3227 1.385 . S
C3226 C3228 1.478 . S
C3227 H3221 0.930 . S
C3227 C3223 1.400 . S
C3227 C3226 1.385 . S
C3228 C3226 1.478 . S
C3228 C3230 1.381 . S
C3228 C3234 1.383 . S
C3229 C3225 1.495 . S
C3229 H3235 0.959 . S
C3229 H3236 0.961 . S
C3229 H3237 0.960 . S
C3230 C3228 1.381 . S
C3230 C3231 1.394 . S
C3230 H3238 0.930 . S
C3231 C3230 1.394 . S
C3231 C3232 1.383 . S
C3231 H3239 0.929 . S
C3232 C3231 1.383 . S
C3232 C3233 1.377 . S
C3233 H3217 0.930 . S
C3233 C3232 1.377 . S
C3233 C3234 1.379 . S
C3234 H3218 0.931 . S
C3234 C3228 1.383 . S
C3234 C3233 1.379 . S
H3235 C3229 0.959 . S
H3236 C3229 0.961 . S
H3237 C3229 0.960 . S
H3238 C3230 0.930 . S
H3239 C3231 0.929 . S
H3240 C3248 0.929 . S
H3241 C3250 0.930 . S
H3242 C3252 0.930 . S
H3243 C3255 0.929 . S
H3244 C3258 0.930 . S
H3245 C3260 0.960 . S
H3246 C3260 0.960 . S
H3247 C3260 0.960 . S
C3248 H3240 0.929 . S
C3248 C3249 1.377 . S
C3248 C3250 1.384 . S
C3249 C3248 1.377 . S
C3249 C3255 1.390 . S
C3250 H3241 0.930 . S
C3250 C3248 1.384 . S
C3250 C3251 1.372 . S
C3251 C3250 1.372 . S
C3251 C3252 1.400 . S
C3251 C3256 1.490 . S
C3252 H3242 0.930 . S
C3252 C3251 1.400 . S
C3252 C3255 1.386 . S
H3253 C3269 0.930 . S
H3254 C3270 0.931 . S
C3255 H3243 0.929 . S
C3255 C3249 1.390 . S
C3255 C3252 1.386 . S
C3256 C3251 1.490 . S
C3256 C3258 1.395 . S
C3256 C3259 1.403 . S
H3257 C3263 0.930 . S
C3258 H3244 0.930 . S
C3258 C3256 1.395 . S
C3258 C3261 1.403 . S
C3259 C3256 1.403 . S
C3259 C3260 1.524 . S
C3259 C3263 1.400 . S
C3260 H3245 0.960 . S
C3260 H3246 0.960 . S
C3260 H3247 0.960 . S
C3260 C3259 1.524 . S
C3261 C3258 1.403 . S
C3261 C3262 1.392 . S
C3261 C3265 1.495 . S
C3262 C3261 1.392 . S
C3262 C3263 1.385 . S
C3262 C3264 1.478 . S
C3263 H3257 0.930 . S
C3263 C3259 1.400 . S
C3263 C3262 1.385 . S
C3264 C3262 1.478 . S
C3264 C3266 1.381 . S
C3264 C3270 1.383 . S
C3265 C3261 1.495 . S
C3265 H3271 0.959 . S
C3265 H3272 0.961 . S
C3265 H3273 0.960 . S
C3266 C3264 1.381 . S
C3266 C3267 1.394 . S
C3266 H3274 0.930 . S
C3267 C3266 1.394 . S
C3267 C3268 1.383 . S
C3267 H3275 0.929 . S
C3268 C3267 1.383 . S
C3268 C3269 1.377 . S
C3269 H3253 0.930 . S
C3269 C3268 1.377 . S
C3269 C3270 1.379 . S
C3270 H3254 0.931 . S
C3270 C3264 1.383 . S
C3270 C3269 1.379 . S
H3271 C3265 0.959 . S
H3272 C3265 0.961 . S
H3273 C3265 0.960 . S
H3274 C3266 0.930 . S
H3275 C3267 0.929 . S
H3276 C3284 0.929 1_565 S
H3277 C3286 0.843 1_565 S
H3278 C3288 0.930 . S
H3279 C3291 0.929 . S
H3280 C3294 0.930 . S
H3281 C3296 0.940 1_565 S
H3282 C3296 0.933 1_565 S
H3283 C3296 1.023 . S
C3284 H3276 0.929 1_545 S
C3284 C3285 1.377 . S
C3284 C3286 1.438 . S
C3285 C3284 1.377 . S
C3285 C3291 1.390 . S
C3286 H3277 0.843 1_545 S
C3286 C3284 1.438 . S
C3286 C3287 1.410 . S
C3287 C3286 1.410 . S
C3287 C3288 1.400 . S
C3287 C3292 1.490 . S
C3288 H3278 0.930 . S
C3288 C3287 1.400 . S
C3288 C3291 1.386 . S
H3289 C3305 0.930 . S
H3290 C3306 0.931 . S
C3291 H3279 0.929 . S
C3291 C3285 1.390 . S
C3291 C3288 1.386 . S
C3292 C3287 1.490 . S
C3292 C3294 1.395 . S
C3292 C3295 1.403 . S
H3293 C3299 0.930 . S
C3294 H3280 0.930 . S
C3294 C3292 1.395 . S
C3294 C3297 1.403 . S
C3295 C3292 1.403 . S
C3295 C3296 1.513 . S
C3295 C3299 1.400 . S
C3296 H3281 0.940 1_545 S
C3296 H3282 0.933 1_545 S
C3296 H3283 1.023 . S
C3296 C3295 1.513 . S
C3297 C3294 1.403 . S
C3297 C3298 1.392 . S
C3297 C3301 1.495 . S
C3298 C3297 1.392 . S
C3298 C3299 1.385 . S
C3298 C3300 1.478 . S
C3299 H3293 0.930 . S
C3299 C3295 1.400 . S
C3299 C3298 1.385 . S
C3300 C3298 1.478 . S
C3300 C3302 1.381 1_545 S
C3300 C3306 1.383 . S
C3301 C3297 1.495 . S
C3301 H3307 0.959 . S
C3301 H3308 0.961 . S
C3301 H3309 0.960 . S
C3302 C3300 1.381 1_565 S
C3302 C3303 1.394 . S
C3302 H3310 0.930 . S
C3303 C3302 1.394 . S
C3303 C3304 1.383 1_565 S
C3303 H3311 0.929 . S
C3304 C3303 1.383 1_545 S
C3304 C3305 1.377 . S
C3305 H3289 0.930 . S
C3305 C3304 1.377 . S
C3305 C3306 1.379 . S
C3306 H3290 0.931 . S
C3306 C3300 1.383 . S
C3306 C3305 1.379 . S
H3307 C3301 0.959 . S
H3308 C3301 0.961 . S
H3309 C3301 0.960 . S
H3310 C3302 0.930 . S
H3311 C3303 0.929 . S
H3312 C3320 0.906 1_455 S
H3313 C3322 0.931 . S
H3314 C3324 0.930 . S
H3315 C3327 0.929 . S
H3316 C3330 0.930 . S
H3317 C3332 0.960 . S
H3318 C3332 0.960 . S
H3319 C3332 0.959 1_655 S
C3320 H3312 0.906 1_655 S
C3320 C3321 1.382 . S
C3320 C3322 1.413 1_655 S
C3321 C3320 1.382 . S
C3321 C3327 1.390 . S
C3322 H3313 0.931 . S
C3322 C3320 1.413 1_455 S
C3322 C3323 1.364 1_455 S
C3323 C3322 1.364 1_655 S
C3323 C3324 1.400 . S
C3323 C3328 1.490 . S
C3324 H3314 0.930 . S
C3324 C3323 1.400 . S
C3324 C3327 1.386 . S
H3325 C3341 0.930 . S
H3326 C3342 0.931 . S
C3327 H3315 0.929 . S
C3327 C3321 1.390 . S
C3327 C3324 1.386 . S
C3328 C3323 1.490 . S
C3328 C3330 1.395 . S
C3328 C3331 1.406 1_655 S
H3329 C3335 0.928 1_455 S
C3330 H3316 0.930 . S
C3330 C3328 1.395 . S
C3330 C3333 1.403 . S
C3331 C3328 1.406 1_455 S
C3331 C3332 1.515 . S
C3331 C3335 1.401 1_455 S
C3332 H3317 0.960 . S
C3332 H3318 0.960 . S
C3332 H3319 0.959 1_455 S
C3332 C3331 1.515 . S
C3333 C3330 1.403 . S
C3333 C3334 1.392 . S
C3333 C3337 1.495 . S
C3334 C3333 1.392 . S
C3334 C3335 1.392 . S
C3334 C3336 1.478 . S
C3335 H3329 0.928 1_655 S
C3335 C3331 1.401 1_655 S
C3335 C3334 1.392 . S
C3336 C3334 1.478 . S
C3336 C3338 1.381 1_655 S
C3336 C3342 1.383 . S
C3337 C3333 1.495 . S
C3337 H3343 0.959 . S
C3337 H3344 0.961 . S
C3337 H3345 0.960 . S
C3338 C3336 1.381 1_455 S
C3338 C3339 1.394 . S
C3338 H3346 0.930 . S
C3339 C3338 1.394 . S
C3339 C3340 1.383 1_455 S
C3339 H3347 0.929 . S
C3340 C3339 1.383 1_655 S
C3340 C3341 1.377 . S
C3341 H3325 0.930 . S
C3341 C3340 1.377 . S
C3341 C3342 1.379 . S
C3342 H3326 0.931 . S
C3342 C3336 1.383 . S
C3342 C3341 1.379 . S
H3343 C3337 0.959 . S
H3344 C3337 0.961 . S
H3345 C3337 0.960 . S
H3346 C3338 0.930 . S
H3347 C3339 0.929 . S
H3348 C3356 0.929 . S
H3349 C3358 0.930 . S
H3350 C3360 0.930 . S
H3351 C3363 0.929 . S
H3352 C3366 0.930 . S
H3353 C3368 0.960 . S
H3354 C3368 0.960 . S
H3355 C3368 0.960 . S
C3356 H3348 0.929 . S
C3356 C3357 1.377 . S
C3356 C3358 1.384 . S
C3357 C3356 1.377 . S
C3357 C3363 1.390 . S
C3358 H3349 0.930 . S
C3358 C3356 1.384 . S
C3358 C3359 1.372 . S
C3359 C3358 1.372 . S
C3359 C3360 1.400 . S
C3359 C3364 1.490 . S
C3360 H3350 0.930 . S
C3360 C3359 1.400 . S
C3360 C3363 1.386 . S
H3361 C3377 0.930 . S
H3362 C3378 0.931 . S
C3363 H3351 0.929 . S
C3363 C3357 1.390 . S
C3363 C3360 1.386 . S
C3364 C3359 1.490 . S
C3364 C3366 1.395 . S
C3364 C3367 1.403 . S
H3365 C3371 0.930 . S
C3366 H3352 0.930 . S
C3366 C3364 1.395 . S
C3366 C3369 1.403 . S
C3367 C3364 1.403 . S
C3367 C3368 1.524 . S
C3367 C3371 1.400 . S
C3368 H3353 0.960 . S
C3368 H3354 0.960 . S
C3368 H3355 0.960 . S
C3368 C3367 1.524 . S
C3369 C3366 1.403 . S
C3369 C3370 1.392 . S
C3369 C3373 1.495 . S
C3370 C3369 1.392 . S
C3370 C3371 1.385 . S
C3370 C3372 1.478 . S
C3371 H3365 0.930 . S
C3371 C3367 1.400 . S
C3371 C3370 1.385 . S
C3372 C3370 1.478 . S
C3372 C3374 1.381 . S
C3372 C3378 1.383 . S
C3373 C3369 1.495 . S
C3373 H3379 0.959 . S
C3373 H3380 0.961 . S
C3373 H3381 0.960 . S
C3374 C3372 1.381 . S
C3374 C3375 1.394 . S
C3374 H3382 0.930 . S
C3375 C3374 1.394 . S
C3375 C3376 1.383 . S
C3375 H3383 0.929 . S
C3376 C3375 1.383 . S
C3376 C3377 1.377 . S
C3377 H3361 0.930 . S
C3377 C3376 1.377 . S
C3377 C3378 1.379 . S
C3378 H3362 0.931 . S
C3378 C3372 1.383 . S
C3378 C3377 1.379 . S
H3379 C3373 0.959 . S
H3380 C3373 0.961 . S
H3381 C3373 0.960 . S
H3382 C3374 0.930 . S
H3383 C3375 0.929 . S
H3384 C3392 0.929 . S
H3385 C3394 0.930 . S
H3386 C3396 0.930 . S
H3387 C3399 0.929 . S
H3388 C3402 0.930 . S
H3389 C3404 0.960 . S
H3390 C3404 0.960 . S
H3391 C3404 0.960 . S
C3392 H3384 0.929 . S
C3392 C3393 1.377 . S
C3392 C3394 1.384 . S
C3393 C3392 1.377 . S
C3393 C3399 1.390 . S
C3394 H3385 0.930 . S
C3394 C3392 1.384 . S
C3394 C3395 1.372 . S
C3395 C3394 1.372 . S
C3395 C3396 1.400 . S
C3395 C3400 1.490 . S
C3396 H3386 0.930 . S
C3396 C3395 1.400 . S
C3396 C3399 1.386 . S
H3397 C3413 0.930 . S
H3398 C3414 0.931 . S
C3399 H3387 0.929 . S
C3399 C3393 1.390 . S
C3399 C3396 1.386 . S
C3400 C3395 1.490 . S
C3400 C3402 1.395 . S
C3400 C3403 1.403 . S
H3401 C3407 0.930 . S
C3402 H3388 0.930 . S
C3402 C3400 1.395 . S
C3402 C3405 1.403 . S
C3403 C3400 1.403 . S
C3403 C3404 1.524 . S
C3403 C3407 1.400 . S
C3404 H3389 0.960 . S
C3404 H3390 0.960 . S
C3404 H3391 0.960 . S
C3404 C3403 1.524 . S
C3405 C3402 1.403 . S
C3405 C3406 1.392 . S
C3405 C3409 1.495 . S
C3406 C3405 1.392 . S
C3406 C3407 1.385 . S
C3406 C3408 1.478 . S
C3407 H3401 0.930 . S
C3407 C3403 1.400 . S
C3407 C3406 1.385 . S
C3408 C3406 1.478 . S
C3408 C3410 1.381 . S
C3408 C3414 1.383 . S
C3409 C3405 1.495 . S
C3409 H3415 0.959 . S
C3409 H3416 0.961 . S
C3409 H3417 0.960 . S
C3410 C3408 1.381 . S
C3410 C3411 1.394 . S
C3410 H3418 0.930 . S
C3411 C3410 1.394 . S
C3411 C3412 1.383 . S
C3411 H3419 0.929 . S
C3412 C3411 1.383 . S
C3412 C3413 1.377 . S
C3413 H3397 0.930 . S
C3413 C3412 1.377 . S
C3413 C3414 1.379 . S
C3414 H3398 0.931 . S
C3414 C3408 1.383 . S
C3414 C3413 1.379 . S
H3415 C3409 0.959 . S
H3416 C3409 0.961 . S
H3417 C3409 0.960 . S
H3418 C3410 0.930 . S
H3419 C3411 0.929 . S
H3420 C3428 0.929 . S
H3421 C3430 0.930 . S
H3422 C3432 0.930 . S
H3423 C3435 0.929 . S
H3424 C3438 0.930 . S
H3425 C3440 0.960 . S
H3426 C3440 0.960 . S
H3427 C3440 0.960 . S
C3428 H3420 0.929 . S
C3428 C3429 1.377 . S
C3428 C3430 1.384 . S
C3429 C3428 1.377 . S
C3429 C3435 1.390 . S
C3430 H3421 0.930 . S
C3430 C3428 1.384 . S
C3430 C3431 1.372 . S
C3431 C3430 1.372 . S
C3431 C3432 1.400 . S
C3431 C3436 1.490 . S
C3432 H3422 0.930 . S
C3432 C3431 1.400 . S
C3432 C3435 1.386 . S
H3433 C3449 0.930 . S
H3434 C3450 0.931 . S
C3435 H3423 0.929 . S
C3435 C3429 1.390 . S
C3435 C3432 1.386 . S
C3436 C3431 1.490 . S
C3436 C3438 1.395 . S
C3436 C3439 1.403 . S
H3437 C3443 0.930 . S
C3438 H3424 0.930 . S
C3438 C3436 1.395 . S
C3438 C3441 1.403 . S
C3439 C3436 1.403 . S
C3439 C3440 1.524 . S
C3439 C3443 1.400 . S
C3440 H3425 0.960 . S
C3440 H3426 0.960 . S
C3440 H3427 0.960 . S
C3440 C3439 1.524 . S
C3441 C3438 1.403 . S
C3441 C3442 1.392 . S
C3441 C3445 1.495 . S
C3442 C3441 1.392 . S
C3442 C3443 1.385 . S
C3442 C3444 1.478 . S
C3443 H3437 0.930 . S
C3443 C3439 1.400 . S
C3443 C3442 1.385 . S
C3444 C3442 1.478 . S
C3444 C3446 1.381 . S
C3444 C3450 1.383 . S
C3445 C3441 1.495 . S
C3445 H3451 0.959 . S
C3445 H3452 0.961 . S
C3445 H3453 0.960 . S
C3446 C3444 1.381 . S
C3446 C3447 1.394 . S
C3446 H3454 0.930 . S
C3447 C3446 1.394 . S
C3447 C3448 1.383 . S
C3447 H3455 0.929 . S
C3448 C3447 1.383 . S
C3448 C3449 1.377 . S
C3449 H3433 0.930 . S
C3449 C3448 1.377 . S
C3449 C3450 1.379 . S
C3450 H3434 0.931 . S
C3450 C3444 1.383 . S
C3450 C3449 1.379 . S
H3451 C3445 0.959 . S
H3452 C3445 0.961 . S
H3453 C3445 0.960 . S
H3454 C3446 0.930 . S
H3455 C3447 0.929 . S
H3456 C3464 0.929 . S
H3457 C3466 0.930 . S
H3458 C3468 0.930 . S
H3459 C3471 0.929 . S
H3460 C3474 0.930 . S
H3461 C3476 0.960 . S
H3462 C3476 0.960 . S
H3463 C3476 0.960 . S
C3464 H3456 0.929 . S
C3464 C3465 1.377 . S
C3464 C3466 1.384 . S
C3465 C3464 1.377 . S
C3465 C3471 1.390 . S
C3466 H3457 0.930 . S
C3466 C3464 1.384 . S
C3466 C3467 1.372 . S
C3467 C3466 1.372 . S
C3467 C3468 1.400 . S
C3467 C3472 1.490 . S
C3468 H3458 0.930 . S
C3468 C3467 1.400 . S
C3468 C3471 1.386 . S
H3469 C3485 0.930 . S
H3470 C3486 0.931 . S
C3471 H3459 0.929 . S
C3471 C3465 1.390 . S
C3471 C3468 1.386 . S
C3472 C3467 1.490 . S
C3472 C3474 1.395 . S
C3472 C3475 1.403 . S
H3473 C3479 0.930 . S
C3474 H3460 0.930 . S
C3474 C3472 1.395 . S
C3474 C3477 1.403 . S
C3475 C3472 1.403 . S
C3475 C3476 1.524 . S
C3475 C3479 1.400 . S
C3476 H3461 0.960 . S
C3476 H3462 0.960 . S
C3476 H3463 0.960 . S
C3476 C3475 1.524 . S
C3477 C3474 1.403 . S
C3477 C3478 1.392 . S
C3477 C3481 1.495 . S
C3478 C3477 1.392 . S
C3478 C3479 1.385 . S
C3478 C3480 1.478 . S
C3479 H3473 0.930 . S
C3479 C3475 1.400 . S
C3479 C3478 1.385 . S
C3480 C3478 1.478 . S
C3480 C3482 1.381 . S
C3480 C3486 1.383 . S
C3481 C3477 1.495 . S
C3481 H3487 0.959 . S
C3481 H3488 0.961 . S
C3481 H3489 0.960 . S
C3482 C3480 1.381 . S
C3482 C3483 1.394 . S
C3482 H3490 0.930 . S
C3483 C3482 1.394 . S
C3483 C3484 1.383 . S
C3483 H3491 0.929 . S
C3484 C3483 1.383 . S
C3484 C3485 1.377 . S
C3485 H3469 0.930 . S
C3485 C3484 1.377 . S
C3485 C3486 1.379 . S
C3486 H3470 0.931 . S
C3486 C3480 1.383 . S
C3486 C3485 1.379 . S
H3487 C3481 0.959 . S
H3488 C3481 0.961 . S
H3489 C3481 0.960 . S
H3490 C3482 0.930 . S
H3491 C3483 0.929 . S
H3492 C3500 0.929 . S
H3493 C3502 0.930 . S
H3494 C3504 0.930 . S
H3495 C3507 0.929 . S
H3496 C3510 0.930 . S
H3497 C3512 0.960 . S
H3498 C3512 0.960 . S
H3499 C3512 0.960 . S
C3500 H3492 0.929 . S
C3500 C3501 1.377 . S
C3500 C3502 1.384 . S
C3501 C3500 1.377 . S
C3501 C3507 1.390 . S
C3502 H3493 0.930 . S
C3502 C3500 1.384 . S
C3502 C3503 1.372 . S
C3503 C3502 1.372 . S
C3503 C3504 1.400 . S
C3503 C3508 1.490 . S
C3504 H3494 0.930 . S
C3504 C3503 1.400 . S
C3504 C3507 1.386 . S
H3505 C3521 0.930 . S
H3506 C3522 0.931 . S
C3507 H3495 0.929 . S
C3507 C3501 1.390 . S
C3507 C3504 1.386 . S
C3508 C3503 1.490 . S
C3508 C3510 1.395 . S
C3508 C3511 1.403 . S
H3509 C3515 0.930 . S
C3510 H3496 0.930 . S
C3510 C3508 1.395 . S
C3510 C3513 1.403 . S
C3511 C3508 1.403 . S
C3511 C3512 1.524 . S
C3511 C3515 1.400 . S
C3512 H3497 0.960 . S
C3512 H3498 0.960 . S
C3512 H3499 0.960 . S
C3512 C3511 1.524 . S
C3513 C3510 1.403 . S
C3513 C3514 1.392 . S
C3513 C3517 1.495 . S
C3514 C3513 1.392 . S
C3514 C3515 1.385 . S
C3514 C3516 1.478 . S
C3515 H3509 0.930 . S
C3515 C3511 1.400 . S
C3515 C3514 1.385 . S
C3516 C3514 1.478 . S
C3516 C3518 1.381 . S
C3516 C3522 1.383 . S
C3517 C3513 1.495 . S
C3517 H3523 0.959 . S
C3517 H3524 0.961 . S
C3517 H3525 0.960 . S
C3518 C3516 1.381 . S
C3518 C3519 1.394 . S
C3518 H3526 0.930 . S
C3519 C3518 1.394 . S
C3519 C3520 1.383 . S
C3519 H3527 0.929 . S
C3520 C3519 1.383 . S
C3520 C3521 1.377 . S
C3521 H3505 0.930 . S
C3521 C3520 1.377 . S
C3521 C3522 1.379 . S
C3522 H3506 0.931 . S
C3522 C3516 1.383 . S
C3522 C3521 1.379 . S
H3523 C3517 0.959 . S
H3524 C3517 0.961 . S
H3525 C3517 0.960 . S
H3526 C3518 0.930 . S
H3527 C3519 0.929 . S
H3528 C3536 0.929 . S
H3529 C3538 0.930 . S
H3530 C3540 0.930 . S
H3531 C3543 0.929 . S
H3532 C3546 0.930 . S
H3533 C3548 0.960 . S
H3534 C3548 0.960 . S
H3535 C3548 0.960 . S
C3536 H3528 0.929 . S
C3536 C3537 1.377 . S
C3536 C3538 1.384 . S
C3537 C3536 1.377 . S
C3537 C3543 1.390 . S
C3538 H3529 0.930 . S
C3538 C3536 1.384 . S
C3538 C3539 1.372 . S
C3539 C3538 1.372 . S
C3539 C3540 1.400 . S
C3539 C3544 1.490 . S
C3540 H3530 0.930 . S
C3540 C3539 1.400 . S
C3540 C3543 1.386 . S
H3541 C3557 0.930 . S
H3542 C3558 0.931 . S
C3543 H3531 0.929 . S
C3543 C3537 1.390 . S
C3543 C3540 1.386 . S
C3544 C3539 1.490 . S
C3544 C3546 1.395 . S
C3544 C3547 1.403 . S
H3545 C3551 0.930 . S
C3546 H3532 0.930 . S
C3546 C3544 1.395 . S
C3546 C3549 1.403 . S
C3547 C3544 1.403 . S
C3547 C3548 1.524 . S
C3547 C3551 1.400 . S
C3548 H3533 0.960 . S
C3548 H3534 0.960 . S
C3548 H3535 0.960 . S
C3548 C3547 1.524 . S
C3549 C3546 1.403 . S
C3549 C3550 1.392 . S
C3549 C3553 1.495 . S
C3550 C3549 1.392 . S
C3550 C3551 1.385 . S
C3550 C3552 1.478 . S
C3551 H3545 0.930 . S
C3551 C3547 1.400 . S
C3551 C3550 1.385 . S
C3552 C3550 1.478 . S
C3552 C3554 1.381 . S
C3552 C3558 1.383 . S
C3553 C3549 1.495 . S
C3553 H3559 0.959 . S
C3553 H3560 0.961 . S
C3553 H3561 0.960 . S
C3554 C3552 1.381 . S
C3554 C3555 1.394 . S
C3554 H3562 0.930 . S
C3555 C3554 1.394 . S
C3555 C3556 1.383 . S
C3555 H3563 0.929 . S
C3556 C3555 1.383 . S
C3556 C3557 1.377 . S
C3557 H3541 0.930 . S
C3557 C3556 1.377 . S
C3557 C3558 1.379 . S
C3558 H3542 0.931 . S
C3558 C3552 1.383 . S
C3558 C3557 1.379 . S
H3559 C3553 0.959 . S
H3560 C3553 0.961 . S
H3561 C3553 0.960 . S
H3562 C3554 0.930 . S
H3563 C3555 0.929 . S
H3564 C3572 0.929 . S
H3565 C3574 0.930 . S
H3566 C3576 0.930 . S
H3567 C3579 0.929 . S
H3568 C3582 0.930 . S
H3569 C3584 0.960 . S
H3570 C3584 0.960 . S
H3571 C3584 0.960 . S
C3572 H3564 0.929 . S
C3572 C3573 1.377 . S
C3572 C3574 1.384 . S
C3573 C3572 1.377 . S
C3573 C3579 1.390 . S
C3574 H3565 0.930 . S
C3574 C3572 1.384 . S
C3574 C3575 1.372 . S
C3575 C3574 1.372 . S
C3575 C3576 1.400 . S
C3575 C3580 1.490 . S
C3576 H3566 0.930 . S
C3576 C3575 1.400 . S
C3576 C3579 1.386 . S
H3577 C3593 0.930 . S
H3578 C3594 0.931 . S
C3579 H3567 0.929 . S
C3579 C3573 1.390 . S
C3579 C3576 1.386 . S
C3580 C3575 1.490 . S
C3580 C3582 1.395 . S
C3580 C3583 1.403 . S
H3581 C3587 0.930 . S
C3582 H3568 0.930 . S
C3582 C3580 1.395 . S
C3582 C3585 1.403 . S
C3583 C3580 1.403 . S
C3583 C3584 1.524 . S
C3583 C3587 1.400 . S
C3584 H3569 0.960 . S
C3584 H3570 0.960 . S
C3584 H3571 0.960 . S
C3584 C3583 1.524 . S
C3585 C3582 1.403 . S
C3585 C3586 1.392 . S
C3585 C3589 1.495 . S
C3586 C3585 1.392 . S
C3586 C3587 1.385 . S
C3586 C3588 1.478 . S
C3587 H3581 0.930 . S
C3587 C3583 1.400 . S
C3587 C3586 1.385 . S
C3588 C3586 1.478 . S
C3588 C3590 1.381 . S
C3588 C3594 1.383 . S
C3589 C3585 1.495 . S
C3589 H3595 0.959 . S
C3589 H3596 0.961 . S
C3589 H3597 0.960 . S
C3590 C3588 1.381 . S
C3590 C3591 1.394 . S
C3590 H3598 0.930 . S
C3591 C3590 1.394 . S
C3591 C3592 1.383 . S
C3591 H3599 0.929 . S
C3592 C3591 1.383 . S
C3592 C3593 1.377 . S
C3593 H3577 0.930 . S
C3593 C3592 1.377 . S
C3593 C3594 1.379 . S
C3594 H3578 0.931 . S
C3594 C3588 1.383 . S
C3594 C3593 1.379 . S
H3595 C3589 0.959 . S
H3596 C3589 0.961 . S
H3597 C3589 0.960 . S
H3598 C3590 0.930 . S
H3599 C3591 0.929 . S
H3600 C3608 0.929 . S
H3601 C3610 0.930 . S
H3602 C3612 0.930 1_455 S
H3603 C3615 0.929 1_455 S
H3604 C3618 0.930 . S
H3605 C3620 0.960 . S
H3606 C3620 0.960 . S
H3607 C3620 0.960 . S
C3608 H3600 0.929 . S
C3608 C3609 1.377 . S
C3608 C3610 1.384 . S
C3609 C3608 1.377 . S
C3609 C3615 1.390 . S
C3610 H3601 0.930 . S
C3610 C3608 1.384 . S
C3610 C3611 1.372 . S
C3611 C3610 1.372 . S
C3611 C3612 1.400 . S
C3611 C3616 1.490 . S
C3612 H3602 0.930 1_655 S
C3612 C3611 1.400 . S
C3612 C3615 1.386 . S
H3613 C3629 0.930 . S
H3614 C3630 0.964 . S
C3615 H3603 0.929 1_655 S
C3615 C3609 1.390 . S
C3615 C3612 1.386 . S
C3616 C3611 1.490 . S
C3616 C3618 1.395 . S
C3616 C3619 1.403 1_655 S
H3617 C3623 0.930 . S
C3618 H3604 0.930 . S
C3618 C3616 1.395 . S
C3618 C3621 1.403 . S
C3619 C3616 1.403 1_455 S
C3619 C3620 1.524 . S
C3619 C3623 1.400 . S
C3620 H3605 0.960 . S
C3620 H3606 0.960 . S
C3620 H3607 0.960 . S
C3620 C3619 1.524 . S
C3621 C3618 1.403 . S
C3621 C3622 1.392 . S
C3621 C3625 1.495 . S
C3622 C3621 1.392 . S
C3622 C3623 1.385 1_655 S
C3622 C3624 1.478 . S
C3623 H3617 0.930 . S
C3623 C3619 1.400 . S
C3623 C3622 1.385 1_455 S
C3624 C3622 1.478 . S
C3624 C3626 1.381 . S
C3624 C3630 1.307 1_655 S
C3625 C3621 1.495 . S
C3625 H3631 0.959 . S
C3625 H3632 0.961 . S
C3625 H3633 0.960 . S
C3626 C3624 1.381 . S
C3626 C3627 1.394 . S
C3626 H3634 0.930 . S
C3627 C3626 1.394 . S
C3627 C3628 1.383 . S
C3627 H3635 0.929 . S
C3628 C3627 1.383 . S
C3628 C3629 1.377 1_655 S
C3629 H3613 0.930 . S
C3629 C3628 1.377 1_455 S
C3629 C3630 1.428 . S
C3630 H3614 0.964 . S
C3630 C3624 1.307 1_455 S
C3630 C3629 1.428 . S
H3631 C3625 0.959 . S
H3632 C3625 0.961 . S
H3633 C3625 0.960 . S
H3634 C3626 0.930 . S
H3635 C3627 0.929 . S
H3636 C3644 0.929 . S
H3637 C3646 0.930 . S
H3638 C3648 0.930 . S
H3639 C3651 0.929 . S
H3640 C3654 0.930 . S
H3641 C3656 0.960 . S
H3642 C3656 0.960 . S
H3643 C3656 0.960 . S
C3644 H3636 0.929 . S
C3644 C3645 1.377 . S
C3644 C3646 1.384 . S
C3645 C3644 1.377 . S
C3645 C3651 1.390 . S
C3646 H3637 0.930 . S
C3646 C3644 1.384 . S
C3646 C3647 1.372 . S
C3647 C3646 1.372 . S
C3647 C3648 1.400 . S
C3647 C3652 1.490 . S
C3648 H3638 0.930 . S
C3648 C3647 1.400 . S
C3648 C3651 1.386 . S
H3649 C3665 0.930 . S
H3650 C3666 0.931 . S
C3651 H3639 0.929 . S
C3651 C3645 1.390 . S
C3651 C3648 1.386 . S
C3652 C3647 1.490 . S
C3652 C3654 1.395 . S
C3652 C3655 1.403 . S
H3653 C3659 0.930 . S
C3654 H3640 0.930 . S
C3654 C3652 1.395 . S
C3654 C3657 1.403 . S
C3655 C3652 1.403 . S
C3655 C3656 1.524 . S
C3655 C3659 1.400 . S
C3656 H3641 0.960 . S
C3656 H3642 0.960 . S
C3656 H3643 0.960 . S
C3656 C3655 1.524 . S
C3657 C3654 1.403 . S
C3657 C3658 1.392 . S
C3657 C3661 1.495 . S
C3658 C3657 1.392 . S
C3658 C3659 1.385 . S
C3658 C3660 1.478 . S
C3659 H3653 0.930 . S
C3659 C3655 1.400 . S
C3659 C3658 1.385 . S
C3660 C3658 1.478 . S
C3660 C3662 1.381 . S
C3660 C3666 1.383 . S
C3661 C3657 1.495 . S
C3661 H3667 0.959 . S
C3661 H3668 0.961 . S
C3661 H3669 0.960 . S
C3662 C3660 1.381 . S
C3662 C3663 1.394 . S
C3662 H3670 0.930 . S
C3663 C3662 1.394 . S
C3663 C3664 1.383 . S
C3663 H3671 0.929 . S
C3664 C3663 1.383 . S
C3664 C3665 1.377 . S
C3665 H3649 0.930 . S
C3665 C3664 1.377 . S
C3665 C3666 1.379 . S
C3666 H3650 0.931 . S
C3666 C3660 1.383 . S
C3666 C3665 1.379 . S
H3667 C3661 0.959 . S
H3668 C3661 0.961 . S
H3669 C3661 0.960 . S
H3670 C3662 0.930 . S
H3671 C3663 0.929 . S
H3672 C3680 0.929 . S
H3673 C3682 0.930 . S
H3674 C3684 0.900 1_565 S
H3675 C3687 0.929 1_565 S
H3676 C3690 0.930 . S
H3677 C3692 0.960 . S
H3678 C3692 0.960 . S
H3679 C3692 0.960 . S
C3680 H3672 0.929 . S
C3680 C3681 1.377 . S
C3680 C3682 1.384 . S
C3681 C3680 1.377 . S
C3681 C3687 1.390 . S
C3682 H3673 0.930 . S
C3682 C3680 1.384 . S
C3682 C3683 1.372 . S
C3683 C3682 1.372 . S
C3683 C3684 1.453 . S
C3683 C3688 1.490 . S
C3684 H3674 0.900 1_545 S
C3684 C3683 1.453 . S
C3684 C3687 1.364 . S
H3685 C3701 0.930 . S
H3686 C3702 0.931 . S
C3687 H3675 0.929 1_545 S
C3687 C3681 1.390 . S
C3687 C3684 1.364 . S
C3688 C3683 1.490 . S
C3688 C3690 1.395 . S
C3688 C3691 1.403 . S
H3689 C3695 0.930 . S
C3690 H3676 0.930 . S
C3690 C3688 1.395 . S
C3690 C3693 1.403 . S
C3691 C3688 1.403 . S
C3691 C3692 1.524 . S
C3691 C3695 1.400 . S
C3692 H3677 0.960 . S
C3692 H3678 0.960 . S
C3692 H3679 0.960 . S
C3692 C3691 1.524 . S
C3693 C3690 1.403 . S
C3693 C3694 1.392 . S
C3693 C3697 1.495 . S
C3694 C3693 1.392 . S
C3694 C3695 1.385 . S
C3694 C3696 1.478 . S
C3695 H3689 0.930 . S
C3695 C3691 1.400 . S
C3695 C3694 1.385 . S
C3696 C3694 1.478 . S
C3696 C3698 1.381 . S
C3696 C3702 1.383 1_545 S
C3697 C3693 1.495 . S
C3697 H3703 0.959 . S
C3697 H3704 0.961 1_545 S
C3697 H3705 0.960 . S
C3698 C3696 1.381 . S
C3698 C3699 1.394 . S
C3698 H3706 0.930 . S
C3699 C3698 1.394 . S
C3699 C3700 1.383 . S
C3699 H3707 0.929 . S
C3700 C3699 1.383 . S
C3700 C3701 1.377 1_545 S
C3701 H3685 0.930 . S
C3701 C3700 1.377 1_565 S
C3701 C3702 1.379 . S
C3702 H3686 0.931 . S
C3702 C3696 1.383 1_565 S
C3702 C3701 1.379 . S
H3703 C3697 0.959 . S
H3704 C3697 0.961 1_565 S
H3705 C3697 0.960 . S
H3706 C3698 0.930 . S
H3707 C3699 0.929 . S
C1125 C7 1.444 . S
C1144 C729 1.472 . S
C1161 C23 1.588 . S
C1180 C777 1.586 . S
C1216 C825 1.485 . S
C1197 C37 1.469 . S
C1233 C35 1.455 1_545 S
C1252 C849 1.481 . S
C1269 C9 1.475 . S
C1288 C921 1.505 . S
C1305 C21 1.562 . S
C1324 C969 1.609 . S
C1341 C49 1.443 . S
C1360 C897 1.464 . S
C1396 C945 1.589 . S
C1377 C65 1.592 . S
C1432 C873 1.498 . S
C1413 C79 1.499 1_565 S
C1449 C77 1.440 . S
C1468 C801 1.456 . S
C1504 C705 1.516 . S
C1485 C51 1.493 1_655 S
C1521 C63 1.569 . S
C1540 C753 1.605 . S
C1557 C91 1.653 . S
C1576 C1017 1.677 . S
C1593 C107 1.662 . S
C1612 C1065 1.651 . S
C1648 C1089 1.654 . S
C1629 C121 1.666 . S
C1665 C119 1.607 . S
C1684 C273 1.614 . S
C1701 C93 1.666 . S
C1720 C345 1.665 . S
C1737 C105 1.618 . S
C1756 C393 1.630 . S
C1773 C133 1.552 . S
C1792 C321 1.585 . S
C1809 C149 1.638 . S
C1828 C369 1.635 . S
C1864 C297 1.634 . S
C1845 C163 1.666 . S
C1900 C1113 1.707 . S
C1881 C161 1.695 . S
C1936 C993 1.648 . S
C1917 C135 1.652 . S
C1972 C1041 1.689 . S
C1953 C147 1.651 . S
C1989 C175 1.560 . S
C2008 C441 1.577 . S
C2025 C191 1.626 . S
C2044 C489 1.631 . S
C2061 C205 1.666 . S
C2080 C513 1.666 . S
C2097 C203 1.689 . S
C2116 C561 1.722 . S
C2152 C633 1.657 . S
C2133 C177 1.657 . S
C2188 C681 1.673 . S
C2169 C189 1.651 . S
C2224 C609 1.699 . S
C2205 C217 1.661 . S
C2260 C657 1.672 . S
C2241 C233 1.676 . S
C2277 C247 1.654 . S
C2296 C585 1.635 . S
C2332 C537 1.574 . S
C2313 C245 1.589 . S
C2349 C219 1.661 . S
C2368 C417 1.671 . S
C2404 C465 1.649 . S
C2385 C231 1.622 . S
C2440 C282 1.603 . S
C2421 C8 1.603 . S
C2457 C17 1.501 . S
C2476 C336 1.496 . S
C2512 C384 1.571 . S
C2493 C31 1.601 . S
C2548 C432 1.588 . S
C2529 C36 1.622 . S
C2584 C480 1.574 . S
C2565 C3 1.575 . S
C2620 C522 1.511 . S
C2601 C22 1.510 . S
C2637 C50 1.616 . S
C2656 C528 1.604 . S
C2673 C59 1.496 . S
C2692 C426 1.455 . S
C2709 C73 1.571 . S
C2728 C474 1.536 . S
C2745 C78 1.643 . S
C2764 C330 1.632 . S
C2800 C378 1.551 . S
C2781 C45 1.568 . S
C2817 C64 1.515 . S
C2836 C288 1.494 . S
C2872 C570 1.563 . S
C2853 C92 1.568 . S
C2889 C101 1.659 . S
C2908 C624 1.618 . S
C2925 C115 1.674 . S
C2944 C672 1.656 . S
C2980 C720 1.436 . S
C2961 C120 1.429 . S
C2997 C87 1.567 . S
C3016 C768 1.562 . S
C3033 C106 1.381 . S
C3052 C816 1.379 . S
C3069 C134 1.405 . S
C3088 C810 1.393 . S
C3105 C143 1.409 . S
C3124 C714 1.405 . S
C3160 C762 1.559 . S
C3141 C157 1.582 . S
C3177 C162 1.587 . S
C3196 C618 1.569 . S
C3213 C129 1.663 . S
C3232 C666 1.636 . S
C3268 C576 1.645 . S
C3249 C148 1.655 . S
C3304 C858 1.416 . S
C3285 C176 1.409 . S
C3321 C185 1.405 . S
C3340 C912 1.406 . S
C3357 C199 1.582 . S
C3376 C960 1.552 . S
C3412 C1008 1.561 . S
C3393 C204 1.575 . S
C3448 C1056 1.652 . S
C3429 C171 1.664 . S
C3465 C190 1.656 . S
C3484 C1098 1.649 . S
C3501 C218 1.582 . S
C3520 C1104 1.557 . S
C3537 C227 1.654 . S
C3556 C1002 1.633 . S
C3592 C1050 1.615 . S
C3573 C241 1.656 . S
C3628 C906 1.403 . S
C3609 C246 1.413 . S
C3664 C954 1.528 . S
C3645 C213 1.574 . S
C3681 C232 1.393 . S
C3700 C864 1.402 . S
