# Generated by pormake.
# Topology eea, (3,6)-cn, num edge types: 1
# Building blocks:
#     Node 0, Type 0, BuildingBlock: VETTIZ_charged_linker_0, # of connection points: 3
#     Node 1, Type 0, BuildingBlock: VETTIZ_charged_linker_0, # of connection points: 3
#     Node 2, Type 0, BuildingBlock: VETTIZ_charged_linker_0, # of connection points: 3
#     Node 3, Type 0, BuildingBlock: VETTIZ_charged_linker_0, # of connection points: 3
#     Node 4, Type 0, BuildingBlock: VETTIZ_charged_linker_0, # of connection points: 3
#     Node 5, Type 0, BuildingBlock: VETTIZ_charged_linker_0, # of connection points: 3
#     Node 6, Type 0, BuildingBlock: VETTIZ_charged_linker_0, # of connection points: 3
#     Node 7, Type 0, BuildingBlock: VETTIZ_charged_linker_0, # of connection points: 3
#     Node 8, Type 0, BuildingBlock: VETTIZ_charged_linker_0, # of connection points: 3
#     Node 9, Type 0, BuildingBlock: VETTIZ_charged_linker_0, # of connection points: 3
#     Node 10, Type 0, BuildingBlock: VETTIZ_charged_linker_0, # of connection points: 3
#     Node 11, Type 0, BuildingBlock: VETTIZ_charged_linker_0, # of connection points: 3
#     Node 12, Type 0, BuildingBlock: VETTIZ_charged_linker_0, # of connection points: 3
#     Node 13, Type 0, BuildingBlock: VETTIZ_charged_linker_0, # of connection points: 3
#     Node 14, Type 0, BuildingBlock: VETTIZ_charged_linker_0, # of connection points: 3
#     Node 15, Type 0, BuildingBlock: VETTIZ_charged_linker_0, # of connection points: 3
#     Node 16, Type 0, BuildingBlock: VETTIZ_charged_linker_0, # of connection points: 3
#     Node 17, Type 0, BuildingBlock: VETTIZ_charged_linker_0, # of connection points: 3
#     Node 18, Type 1, BuildingBlock: KUMBOL_clean_sbu_0, # of connection points: 6
#     Node 19, Type 1, BuildingBlock: KUMBOL_clean_sbu_0, # of connection points: 6
#     Node 20, Type 1, BuildingBlock: KUMBOL_clean_sbu_0, # of connection points: 6
#     Node 21, Type 1, BuildingBlock: KUMBOL_clean_sbu_0, # of connection points: 6
#     Node 22, Type 1, BuildingBlock: KUMBOL_clean_sbu_0, # of connection points: 6
#     Node 23, Type 1, BuildingBlock: KUMBOL_clean_sbu_0, # of connection points: 6
#     Node 24, Type 1, BuildingBlock: KUMBOL_clean_sbu_0, # of connection points: 6
#     Node 25, Type 1, BuildingBlock: KUMBOL_clean_sbu_0, # of connection points: 6
#     Node 26, Type 1, BuildingBlock: KUMBOL_clean_sbu_0, # of connection points: 6
#     Edge 27, Type (0, 1), BuildingBlock: XIVTED_clean_linker_0, # of connection points: 2
#     Edge 28, Type (0, 1), BuildingBlock: XIVTED_clean_linker_0, # of connection points: 2
#     Edge 29, Type (0, 1), BuildingBlock: XIVTED_clean_linker_0, # of connection points: 2
#     Edge 30, Type (0, 1), BuildingBlock: XIVTED_clean_linker_0, # of connection points: 2
#     Edge 31, Type (0, 1), BuildingBlock: XIVTED_clean_linker_0, # of connection points: 2
#     Edge 32, Type (0, 1), BuildingBlock: XIVTED_clean_linker_0, # of connection points: 2
#     Edge 33, Type (0, 1), BuildingBlock: XIVTED_clean_linker_0, # of connection points: 2
#     Edge 34, Type (0, 1), BuildingBlock: XIVTED_clean_linker_0, # of connection points: 2
#     Edge 35, Type (0, 1), BuildingBlock: XIVTED_clean_linker_0, # of connection points: 2
#     Edge 36, Type (0, 1), BuildingBlock: XIVTED_clean_linker_0, # of connection points: 2
#     Edge 37, Type (0, 1), BuildingBlock: XIVTED_clean_linker_0, # of connection points: 2
#     Edge 38, Type (0, 1), BuildingBlock: XIVTED_clean_linker_0, # of connection points: 2
#     Edge 39, Type (0, 1), BuildingBlock: XIVTED_clean_linker_0, # of connection points: 2
#     Edge 40, Type (0, 1), BuildingBlock: XIVTED_clean_linker_0, # of connection points: 2
#     Edge 41, Type (0, 1), BuildingBlock: XIVTED_clean_linker_0, # of connection points: 2
#     Edge 42, Type (0, 1), BuildingBlock: XIVTED_clean_linker_0, # of connection points: 2
#     Edge 43, Type (0, 1), BuildingBlock: XIVTED_clean_linker_0, # of connection points: 2
#     Edge 44, Type (0, 1), BuildingBlock: XIVTED_clean_linker_0, # of connection points: 2
#     Edge 45, Type (0, 1), BuildingBlock: XIVTED_clean_linker_0, # of connection points: 2
#     Edge 46, Type (0, 1), BuildingBlock: XIVTED_clean_linker_0, # of connection points: 2
#     Edge 47, Type (0, 1), BuildingBlock: XIVTED_clean_linker_0, # of connection points: 2
#     Edge 48, Type (0, 1), BuildingBlock: XIVTED_clean_linker_0, # of connection points: 2
#     Edge 49, Type (0, 1), BuildingBlock: XIVTED_clean_linker_0, # of connection points: 2
#     Edge 50, Type (0, 1), BuildingBlock: XIVTED_clean_linker_0, # of connection points: 2
#     Edge 51, Type (0, 1), BuildingBlock: XIVTED_clean_linker_0, # of connection points: 2
#     Edge 52, Type (0, 1), BuildingBlock: XIVTED_clean_linker_0, # of connection points: 2
#     Edge 53, Type (0, 1), BuildingBlock: XIVTED_clean_linker_0, # of connection points: 2
#     Edge 54, Type (0, 1), BuildingBlock: XIVTED_clean_linker_0, # of connection points: 2
#     Edge 55, Type (0, 1), BuildingBlock: XIVTED_clean_linker_0, # of connection points: 2
#     Edge 56, Type (0, 1), BuildingBlock: XIVTED_clean_linker_0, # of connection points: 2
#     Edge 57, Type (0, 1), BuildingBlock: XIVTED_clean_linker_0, # of connection points: 2
#     Edge 58, Type (0, 1), BuildingBlock: XIVTED_clean_linker_0, # of connection points: 2
#     Edge 59, Type (0, 1), BuildingBlock: XIVTED_clean_linker_0, # of connection points: 2
#     Edge 60, Type (0, 1), BuildingBlock: XIVTED_clean_linker_0, # of connection points: 2
#     Edge 61, Type (0, 1), BuildingBlock: XIVTED_clean_linker_0, # of connection points: 2
#     Edge 62, Type (0, 1), BuildingBlock: XIVTED_clean_linker_0, # of connection points: 2
#     Edge 63, Type (0, 1), BuildingBlock: XIVTED_clean_linker_0, # of connection points: 2
#     Edge 64, Type (0, 1), BuildingBlock: XIVTED_clean_linker_0, # of connection points: 2
#     Edge 65, Type (0, 1), BuildingBlock: XIVTED_clean_linker_0, # of connection points: 2
#     Edge 66, Type (0, 1), BuildingBlock: XIVTED_clean_linker_0, # of connection points: 2
#     Edge 67, Type (0, 1), BuildingBlock: XIVTED_clean_linker_0, # of connection points: 2
#     Edge 68, Type (0, 1), BuildingBlock: XIVTED_clean_linker_0, # of connection points: 2
#     Edge 69, Type (0, 1), BuildingBlock: XIVTED_clean_linker_0, # of connection points: 2
#     Edge 70, Type (0, 1), BuildingBlock: XIVTED_clean_linker_0, # of connection points: 2
#     Edge 71, Type (0, 1), BuildingBlock: XIVTED_clean_linker_0, # of connection points: 2
#     Edge 72, Type (0, 1), BuildingBlock: XIVTED_clean_linker_0, # of connection points: 2
#     Edge 73, Type (0, 1), BuildingBlock: XIVTED_clean_linker_0, # of connection points: 2
#     Edge 74, Type (0, 1), BuildingBlock: XIVTED_clean_linker_0, # of connection points: 2
#     Edge 75, Type (0, 1), BuildingBlock: XIVTED_clean_linker_0, # of connection points: 2
#     Edge 76, Type (0, 1), BuildingBlock: XIVTED_clean_linker_0, # of connection points: 2
#     Edge 77, Type (0, 1), BuildingBlock: XIVTED_clean_linker_0, # of connection points: 2
#     Edge 78, Type (0, 1), BuildingBlock: XIVTED_clean_linker_0, # of connection points: 2
#     Edge 79, Type (0, 1), BuildingBlock: XIVTED_clean_linker_0, # of connection points: 2
#     Edge 80, Type (0, 1), BuildingBlock: XIVTED_clean_linker_0, # of connection points: 2
# Relax obj value: 0.009
# Max RMSD: 0.095
# Mean RMSD: 0.061
data_MOF--net-eea--node1-KUMBOL_clean_sbu_0--node2-VETTIZ_charged_linker_0--edge1-XIVTED_clean_linker_0
_symmetry_space_group_name_H-M    P1
_symmetry_Int_Tables_number       1
_symmetry_cell_setting            triclinic
loop_
_symmetry_equiv_pos_as_xyz
'x, y, z'
_cell_length_a     62.328967
_cell_length_b     63.978127
_cell_length_c     89.455579
_cell_angle_alpha  90.172771
_cell_angle_beta   90.186736
_cell_angle_gamma 119.97296
loop_
_atom_site_label
_atom_site_type_symbol
_atom_site_fract_x
_atom_site_fract_y
_atom_site_fract_z
_atom_type_partial_charge
C0 C 0.20871 0.15978 0.39752 0.0
C1 C 0.21638 0.18337 0.40255 0.0
C2 C 0.23131 0.19184 0.41557 0.0
C3 C 0.23058 0.15375 0.41808 0.0
C4 C 0.21629 0.14557 0.40526 0.0
C5 C 0.21105 0.12083 0.4007 0.0
H6 H 0.23181 0.02786 0.41052 0.0
C7 C 0.23563 0.13465 0.42322 0.0
C8 C 0.22448 0.11546 0.41294 0.0
H9 H 0.18595 0.03547 0.37692 0.0
H10 H 0.19482 0.0733 0.38776 0.0
H11 H 0.27595 0.08389 0.41264 0.0
H12 H 0.20832 0.04123 0.43669 0.0
H13 H 0.22869 0.06281 0.44956 0.0
H14 H 0.23621 0.04126 0.44165 0.0
H15 H 0.27033 0.05936 0.42477 0.0
H16 H 0.28224 0.08949 0.43194 0.0
C17 C 0.22284 0.12287 0.38515 0.0
C18 C 0.18266 0.10344 0.40121 0.0
C19 C 0.28194 0.14433 0.47215 0.0
C20 C 0.28891 0.12931 0.4797 0.0
C21 C 0.28373 0.10731 0.47294 0.0
C22 C 0.27173 0.10027 0.45905 0.0
C23 C 0.26462 0.11528 0.45176 0.0
C24 C 0.26983 0.13696 0.45825 0.0
C25 C 0.26097 0.15057 0.44872 0.0
C26 C 0.24872 0.13299 0.43579 0.0
C27 C 0.25111 0.11245 0.43762 0.0
C28 C 0.28386 0.17439 0.4436 0.0
C29 C 0.24201 0.15417 0.45786 0.0
C30 C 0.22345 0.03745 0.40548 0.0
C31 C 0.20852 0.02857 0.39254 0.0
C32 C 0.19819 0.04201 0.38653 0.0
C33 C 0.20317 0.064 0.39294 0.0
C34 C 0.21847 0.07274 0.40565 0.0
C35 C 0.22786 0.05926 0.41191 0.0
C36 C 0.24212 0.07048 0.4261 0.0
C37 C 0.2406 0.09343 0.42693 0.0
C38 C 0.227 0.09476 0.41481 0.0
C39 C 0.2691 0.07604 0.42389 0.0
C40 C 0.22837 0.05312 0.43922 0.0
H41 H 0.24964 0.18468 0.43315 0.0
H42 H 0.19701 0.15234 0.38774 0.0
H43 H 0.17392 0.10904 0.41 0.0
H44 H 0.17769 0.08482 0.40424 0.0
H45 H 0.17377 0.10313 0.39037 0.0
H46 H 0.24109 0.13976 0.38439 0.0
H47 H 0.2108 0.12326 0.37609 0.0
H48 H 0.22682 0.10823 0.38279 0.0
H49 H 0.28594 0.1615 0.47689 0.0
H50 H 0.28853 0.0952 0.47854 0.0
H51 H 0.26831 0.08331 0.45458 0.0
H52 H 0.30057 0.1724 0.44276 0.0
H53 H 0.28824 0.18932 0.4516 0.0
H54 H 0.2815 0.17986 0.43228 0.0
H55 H 0.22882 0.13717 0.46363 0.0
H56 H 0.23049 0.15894 0.45087 0.0
H57 H 0.25148 0.16841 0.46652 0.0
H58 H 0.23809 0.21004 0.41963 0.0
C59 C 0.23829 0.17715 0.42338 0.0
C60 C 0.9571 0.16761 0.39113 0.0
C61 C 0.97408 0.19071 0.39665 0.0
C62 C 0.97009 0.1975 0.41095 0.0
C63 C 0.9327 0.15864 0.41385 0.0
C64 C 0.9366 0.15204 0.39981 0.0
C65 C 0.91634 0.12731 0.39527 0.0
H66 H 0.80802 0.02633 0.4109 0.0
C67 C 0.90945 0.13836 0.41985 0.0
C68 C 0.89979 0.12 0.40892 0.0
H69 H 0.85134 0.04305 0.37048 0.0
H70 H 0.88187 0.0812 0.38103 0.0
H71 H 0.85289 0.04519 0.43341 0.0
H72 H 0.81424 0.07913 0.41497 0.0
H73 H 0.81938 0.08705 0.43399 0.0
H74 H 0.80094 0.05572 0.42872 0.0
H75 H 0.82313 0.03874 0.44013 0.0
H76 H 0.85149 0.06322 0.44775 0.0
C77 C 0.928 0.11108 0.39302 0.0
C78 C 0.90326 0.12989 0.3812 0.0
C79 C 0.878 0.14385 0.47167 0.0
C80 C 0.8568 0.12772 0.47984 0.0
C81 C 0.84049 0.10488 0.47357 0.0
C82 C 0.84475 0.09835 0.45942 0.0
C83 C 0.8656 0.11476 0.45127 0.0
C84 C 0.88198 0.13701 0.45743 0.0
C85 C 0.90317 0.15196 0.44699 0.0
C86 C 0.8967 0.13498 0.43363 0.0
C87 C 0.87458 0.11328 0.43623 0.0
C88 C 0.92751 0.15684 0.45471 0.0
C89 C 0.90226 0.17502 0.44297 0.0
C90 C 0.82395 0.03828 0.40425 0.0
C91 C 0.82716 0.03154 0.3898 0.0
C92 C 0.84848 0.04757 0.38169 0.0
C93 C 0.86616 0.06985 0.38781 0.0
C94 C 0.86259 0.07636 0.40223 0.0
C95 C 0.84178 0.06063 0.41019 0.0
C96 C 0.84104 0.07051 0.42534 0.0
C97 C 0.86472 0.09487 0.42511 0.0
C98 C 0.87726 0.0982 0.41155 0.0
C99 C 0.842 0.05358 0.43737 0.0
C100 C 0.81765 0.07316 0.42596 0.0
H101 H 0.94766 0.18785 0.43036 0.0
H102 H 0.95938 0.16196 0.3801 0.0
H103 H 0.90311 0.14721 0.38144 0.0
H104 H 0.88353 0.11585 0.38042 0.0
H105 H 0.91283 0.1296 0.37082 0.0
H106 H 0.94267 0.11527 0.40155 0.0
H107 H 0.93666 0.11391 0.38183 0.0
H108 H 0.91459 0.0917 0.39444 0.0
H109 H 0.89088 0.16157 0.4761 0.0
H110 H 0.82434 0.09188 0.47967 0.0
H111 H 0.8315 0.08075 0.45535 0.0
H112 H 0.92482 0.14049 0.46069 0.0
H113 H 0.93379 0.17171 0.46303 0.0
H114 H 0.94263 0.16123 0.44674 0.0
H115 H 0.88278 0.17098 0.4418 0.0
H116 H 0.9109 0.1827 0.43211 0.0
H117 H 0.91129 0.18907 0.45179 0.0
H118 H 0.98298 0.21511 0.41553 0.0
C119 C 0.94961 0.1816 0.41958 0.0
C120 C 0.95335 0.78483 0.38971 0.0
C121 C 0.97124 0.77944 0.39525 0.0
C122 C 0.96794 0.76948 0.4097 0.0
C123 C 0.92936 0.7698 0.41262 0.0
C124 C 0.93255 0.77969 0.3985 0.0
C125 C 0.91118 0.78322 0.39408 0.0
H126 H 0.79804 0.7691 0.41012 0.0
C127 C 0.90554 0.76607 0.41872 0.0
C128 C 0.89472 0.77384 0.40782 0.0
H129 H 0.84118 0.79934 0.37013 0.0
H130 H 0.87408 0.79398 0.38038 0.0
H131 H 0.80961 0.72577 0.41391 0.0
H132 H 0.84298 0.79722 0.43273 0.0
H133 H 0.84301 0.77841 0.44694 0.0
H134 H 0.81391 0.77312 0.43921 0.0
H135 H 0.79463 0.73435 0.42775 0.0
H136 H 0.81531 0.7235 0.43291 0.0
C137 C 0.89856 0.76746 0.38008 0.0
C138 C 0.92128 0.81052 0.39175 0.0
C139 C 0.87658 0.72955 0.47075 0.0
C140 C 0.85489 0.72321 0.47898 0.0
C141 C 0.83703 0.72804 0.47269 0.0
C142 C 0.84032 0.73846 0.45851 0.0
C143 C 0.86175 0.74423 0.4503 0.0
C144 C 0.87955 0.73992 0.45646 0.0
C145 C 0.90097 0.74705 0.44591 0.0
C146 C 0.89313 0.75648 0.43253 0.0
C147 C 0.87007 0.75469 0.4352 0.0
C148 C 0.90221 0.7241 0.44191 0.0
C149 C 0.92468 0.76724 0.45351 0.0
C150 C 0.81446 0.77439 0.40349 0.0
C151 C 0.8168 0.78449 0.3892 0.0
C152 C 0.83885 0.79162 0.38117 0.0
C153 C 0.85792 0.78836 0.38712 0.0
C154 C 0.85511 0.77793 0.40134 0.0
C155 C 0.83373 0.7714 0.40931 0.0
C156 C 0.83409 0.7612 0.42439 0.0
C157 C 0.85899 0.76224 0.4241 0.0
C158 C 0.87127 0.77194 0.41053 0.0
C159 C 0.81224 0.73488 0.42493 0.0
C160 C 0.83328 0.77814 0.43653 0.0
H161 H 0.94597 0.75716 0.42924 0.0
H162 H 0.95513 0.79226 0.37863 0.0
H163 H 0.93598 0.82137 0.40011 0.0
H164 H 0.90703 0.81575 0.39336 0.0
H165 H 0.92946 0.81623 0.38045 0.0
H166 H 0.89776 0.74974 0.38096 0.0
H167 H 0.90897 0.77642 0.36978 0.0
H168 H 0.87914 0.76301 0.37866 0.0
H169 H 0.89063 0.72597 0.47514 0.0
H170 H 0.82038 0.72382 0.4788 0.0
H171 H 0.82588 0.74146 0.45445 0.0
H172 H 0.88333 0.70796 0.44139 0.0
H173 H 0.91302 0.72054 0.4504 0.0
H174 H 0.91012 0.725 0.43075 0.0
H175 H 0.92067 0.78022 0.45943 0.0
H176 H 0.93943 0.77822 0.44547 0.0
H177 H 0.93207 0.75963 0.46187 0.0
H178 H 0.9815 0.76542 0.41435 0.0
C179 C 0.94727 0.76475 0.41838 0.0
C180 C 0.16428 0.20403 0.61185 0.0
C181 C 0.18743 0.20962 0.60582 0.0
C182 C 0.19332 0.21928 0.59128 0.0
C183 C 0.15408 0.21852 0.58923 0.0
C184 C 0.14804 0.20881 0.60343 0.0
C185 C 0.12324 0.20513 0.60834 0.0
H186 H 0.02334 0.2186 0.59457 0.0
C187 C 0.13369 0.22208 0.58362 0.0
C188 C 0.11554 0.21436 0.59482 0.0
H189 H 0.0379 0.18827 0.63381 0.0
H190 H 0.0758 0.19401 0.62277 0.0
H191 H 0.07944 0.26232 0.58998 0.0
H192 H 0.03937 0.19086 0.57091 0.0
H193 H 0.05702 0.21068 0.55659 0.0
H194 H 0.03325 0.21441 0.56557 0.0
H195 H 0.05468 0.25363 0.57672 0.0
H196 H 0.0861 0.26452 0.57077 0.0
C197 C 0.12743 0.22092 0.6224 0.0
C198 C 0.10563 0.17781 0.61079 0.0
C199 C 0.13978 0.25784 0.53176 0.0
C200 C 0.12449 0.2643 0.52369 0.0
C201 C 0.1022 0.26019 0.53034 0.0
C202 C 0.09534 0.25007 0.54466 0.0
C203 C 0.11091 0.24395 0.55262 0.0
C204 C 0.13271 0.24785 0.54613 0.0
C205 C 0.14722 0.24074 0.55638 0.0
C206 C 0.1304 0.23161 0.56997 0.0
C207 C 0.10912 0.23353 0.56772 0.0
C208 C 0.17229 0.26368 0.56003 0.0
C209 C 0.1496 0.22031 0.54864 0.0
C210 C 0.03477 0.21336 0.60086 0.0
C211 C 0.02752 0.20307 0.61518 0.0
C212 C 0.04282 0.19607 0.62275 0.0
C213 C 0.06497 0.19956 0.61635 0.0
C214 C 0.07206 0.21012 0.60212 0.0
C215 C 0.05687 0.21657 0.59456 0.0
C216 C 0.06695 0.22691 0.57938 0.0
C217 C 0.09085 0.22596 0.57914 0.0
C218 C 0.09389 0.21623 0.59255 0.0
C219 C 0.07197 0.25318 0.57904 0.0
C220 C 0.04822 0.21006 0.5674 0.0
H221 H 0.18261 0.23108 0.57202 0.0
H222 H 0.15922 0.19676 0.62302 0.0
H223 H 0.10903 0.16698 0.60237 0.0
H224 H 0.08591 0.17238 0.60937 0.0
H225 H 0.10842 0.17223 0.62205 0.0
H226 H 0.14463 0.23873 0.62128 0.0
H227 H 0.12939 0.2121 0.63258 0.0
H228 H 0.11253 0.22518 0.6242 0.0
H229 H 0.15719 0.261 0.52714 0.0
H230 H 0.08986 0.26465 0.52439 0.0
H231 H 0.07817 0.24749 0.54902 0.0
H232 H 0.17037 0.28006 0.56014 0.0
H233 H 0.18656 0.26656 0.55161 0.0
H234 H 0.17937 0.26324 0.5713 0.0
H235 H 0.13202 0.20748 0.54285 0.0
H236 H 0.15311 0.20917 0.55658 0.0
H237 H 0.16453 0.22771 0.54015 0.0
H238 H 0.2108 0.22346 0.58626 0.0
C239 C 0.17684 0.22365 0.58298 0.0
C240 C 0.78117 0.82726 0.60661 0.0
C241 C 0.77341 0.80369 0.60146 0.0
C242 C 0.75799 0.79522 0.58864 0.0
C243 C 0.75873 0.83334 0.58641 0.0
C244 C 0.77337 0.84149 0.5991 0.0
C245 C 0.77892 0.86633 0.6037 0.0
H246 H 0.76016 0.96059 0.59364 0.0
C247 C 0.75376 0.85255 0.5814 0.0
C248 C 0.76528 0.87178 0.59163 0.0
H249 H 0.80583 0.95257 0.62718 0.0
H250 H 0.79569 0.91408 0.61673 0.0
H251 H 0.78226 0.94584 0.56756 0.0
H252 H 0.71509 0.90509 0.59234 0.0
H253 H 0.70808 0.89859 0.57319 0.0
H254 H 0.72071 0.92915 0.57979 0.0
H255 H 0.75466 0.94655 0.56286 0.0
H256 H 0.7612 0.92436 0.5549 0.0
C257 C 0.80731 0.88354 0.60294 0.0
C258 C 0.76757 0.86447 0.61937 0.0
C259 C 0.70719 0.84341 0.53264 0.0
C260 C 0.70038 0.85862 0.52519 0.0
C261 C 0.7057 0.8806 0.53204 0.0
C262 C 0.71776 0.88746 0.5459 0.0
C263 C 0.72479 0.87231 0.55309 0.0
C264 C 0.71934 0.8506 0.54654 0.0
C265 C 0.72809 0.8368 0.55598 0.0
C266 C 0.74057 0.85432 0.56891 0.0
C267 C 0.73842 0.875 0.56715 0.0
C268 C 0.74683 0.83301 0.54674 0.0
C269 C 0.70511 0.81309 0.56113 0.0
C270 C 0.76822 0.95078 0.59874 0.0
C271 C 0.78357 0.9598 0.6115 0.0
C272 C 0.79338 0.946 0.61766 0.0
C273 C 0.78765 0.92363 0.61148 0.0
C274 C 0.77212 0.91488 0.59886 0.0
C275 C 0.76308 0.92862 0.59255 0.0
C276 C 0.74839 0.91732 0.57851 0.0
C277 C 0.74935 0.89408 0.57778 0.0
C278 C 0.76302 0.89264 0.58981 0.0
C279 C 0.76209 0.93432 0.56523 0.0
C280 C 0.72165 0.91233 0.58094 0.0
H281 H 0.7391 0.8024 0.57142 0.0
H282 H 0.7932 0.83469 0.61626 0.0
H283 H 0.74927 0.84768 0.62027 0.0
H284 H 0.76381 0.87924 0.6218 0.0
H285 H 0.77977 0.86403 0.62829 0.0
H286 H 0.81568 0.87797 0.59391 0.0
H287 H 0.81646 0.88359 0.61363 0.0
H288 H 0.81236 0.90226 0.60013 0.0
H289 H 0.70307 0.82625 0.52782 0.0
H290 H 0.70101 0.89283 0.52651 0.0
H291 H 0.72132 0.90444 0.55044 0.0
H292 H 0.7601 0.84998 0.54097 0.0
H293 H 0.73718 0.81884 0.53807 0.0
H294 H 0.75828 0.82805 0.55364 0.0
H295 H 0.68851 0.81524 0.56204 0.0
H296 H 0.70749 0.80756 0.57243 0.0
H297 H 0.70054 0.79813 0.55312 0.0
H298 H 0.7511 0.77703 0.58452 0.0
C299 C 0.75077 0.80991 0.58108 0.0
C300 C 0.03942 0.82367 0.61264 0.0
C301 C 0.02226 0.80051 0.6073 0.0
C302 C 0.026 0.79332 0.59307 0.0
C303 C 0.06358 0.8319 0.58988 0.0
C304 C 0.05992 0.83889 0.60384 0.0
C305 C 0.08044 0.86359 0.60821 0.0
H306 H 0.19109 0.96175 0.5928 0.0
C307 C 0.08695 0.85182 0.58376 0.0
C308 C 0.09693 0.87038 0.59454 0.0
H309 H 0.14572 0.94817 0.63211 0.0
H310 H 0.1149 0.91013 0.62177 0.0
H311 H 0.18136 0.90728 0.58838 0.0
H312 H 0.14728 0.94571 0.57002 0.0
H313 H 0.14595 0.92611 0.55584 0.0
H314 H 0.17572 0.94936 0.56273 0.0
H315 H 0.19653 0.93195 0.57557 0.0
H316 H 0.17743 0.90142 0.56902 0.0
C317 C 0.09339 0.86103 0.62234 0.0
C318 C 0.06918 0.88022 0.61025 0.0
C319 C 0.1164 0.84517 0.53166 0.0
C320 C 0.13693 0.86126 0.52303 0.0
C321 C 0.15418 0.8838 0.52927 0.0
C322 C 0.15109 0.8903 0.54372 0.0
C323 C 0.13045 0.87418 0.55216 0.0
C324 C 0.11345 0.85206 0.54611 0.0
C325 C 0.09242 0.83753 0.5567 0.0
C326 C 0.09953 0.85469 0.56999 0.0
C327 C 0.12196 0.87603 0.56727 0.0
C328 C 0.09289 0.81423 0.5607 0.0
C329 C 0.06805 0.83306 0.5492 0.0
C330 C 0.17446 0.95073 0.59917 0.0
C331 C 0.17117 0.95807 0.61344 0.0
C332 C 0.14918 0.94288 0.62128 0.0
C333 C 0.13112 0.92078 0.61519 0.0
C334 C 0.13485 0.91363 0.60103 0.0
C335 C 0.15611 0.92864 0.59319 0.0
C336 C 0.15652 0.91844 0.57808 0.0
C337 C 0.13226 0.89458 0.5783 0.0
C338 C 0.11973 0.89182 0.5918 0.0
C339 C 0.17919 0.91464 0.57758 0.0
C340 C 0.15655 0.93575 0.56596 0.0
H341 H 0.04823 0.80232 0.57361 0.0
H342 H 0.0373 0.82961 0.62361 0.0
H343 H 0.05379 0.8754 0.60216 0.0
H344 H 0.08257 0.89938 0.60799 0.0
H345 H 0.0616 0.87859 0.62167 0.0
H346 H 0.09403 0.84396 0.62195 0.0
H347 H 0.08335 0.86072 0.63265 0.0
H348 H 0.11294 0.87539 0.6234 0.0
H349 H 0.10272 0.82778 0.52718 0.0
H350 H 0.17033 0.89639 0.52299 0.0
H351 H 0.16496 0.90767 0.54778 0.0
H352 H 0.11226 0.81781 0.56149 0.0
H353 H 0.08313 0.80002 0.55207 0.0
H354 H 0.08477 0.80698 0.57175 0.0
H355 H 0.07097 0.84944 0.54316 0.0
H356 H 0.05321 0.82912 0.5573 0.0
H357 H 0.06124 0.81803 0.54096 0.0
H358 H 0.01295 0.77564 0.58865 0.0
C359 C 0.04646 0.80888 0.58433 0.0
C360 C 0.87955 0.49619 0.72872 0.0
C361 C 0.88415 0.51825 0.73498 0.0
C362 C 0.89546 0.52496 0.74923 0.0
C363 C 0.89758 0.48816 0.75055 0.0
C364 C 0.88634 0.48154 0.73665 0.0
C365 C 0.88259 0.45756 0.73151 0.0
H366 H 0.9 0.36275 0.74259 0.0
C367 C 0.90251 0.46895 0.75566 0.0
C368 C 0.89371 0.45099 0.74452 0.0
H369 H 0.86038 0.37383 0.70641 0.0
H370 H 0.86906 0.41155 0.71732 0.0
H371 H 0.94466 0.41803 0.74614 0.0
H372 H 0.87409 0.37653 0.76756 0.0
H373 H 0.89445 0.39585 0.78135 0.0
H374 H 0.90034 0.37368 0.7727 0.0
H375 H 0.93781 0.39387 0.75887 0.0
H376 H 0.94914 0.42428 0.76543 0.0
C377 C 0.89756 0.46163 0.71695 0.0
C378 C 0.85435 0.43983 0.72983 0.0
C379 C 0.94485 0.47633 0.80585 0.0
C380 C 0.95206 0.4614 0.81328 0.0
C381 C 0.94751 0.43976 0.80628 0.0
C382 C 0.93617 0.43313 0.79219 0.0
C383 C 0.92911 0.4482 0.78492 0.0
C384 C 0.93346 0.4694 0.79173 0.0
C385 C 0.92465 0.48309 0.78223 0.0
C386 C 0.91403 0.46642 0.76874 0.0
C387 C 0.91679 0.44606 0.7704 0.0
C388 C 0.94745 0.50761 0.77808 0.0
C389 C 0.9044 0.48518 0.79098 0.0
C390 C 0.89292 0.37307 0.73702 0.0
C391 C 0.87967 0.36509 0.72342 0.0
C392 C 0.87119 0.37956 0.71663 0.0
C393 C 0.876 0.40147 0.72309 0.0
C394 C 0.88917 0.40905 0.73664 0.0
C395 C 0.89713 0.39479 0.74347 0.0
C396 C 0.90957 0.40505 0.75827 0.0
C397 C 0.90808 0.42801 0.75907 0.0
C398 C 0.89637 0.43036 0.74629 0.0
C399 C 0.9367 0.41052 0.75728 0.0
C400 C 0.89406 0.3869 0.77068 0.0
H401 H 0.9107 0.51619 0.7678 0.0
H402 H 0.87116 0.49053 0.71775 0.0
H403 H 0.84348 0.44483 0.7374 0.0
H404 H 0.84899 0.42118 0.73307 0.0
H405 H 0.84791 0.43974 0.71823 0.0
H406 H 0.91599 0.47829 0.71785 0.0
H407 H 0.88772 0.46372 0.7072 0.0
H408 H 0.90154 0.447 0.71451 0.0
H409 H 0.94825 0.49318 0.81081 0.0
H410 H 0.95243 0.42768 0.8118 0.0
H411 H 0.93328 0.41645 0.78753 0.0
H412 H 0.96388 0.50555 0.77598 0.0
H413 H 0.95233 0.521 0.78725 0.0
H414 H 0.94478 0.51522 0.76765 0.0
H415 H 0.89252 0.46835 0.7973 0.0
H416 H 0.89151 0.48752 0.78363 0.0
H417 H 0.91277 0.50033 0.79915 0.0
H418 H 0.89891 0.54166 0.75445 0.0
C419 C 0.90219 0.51007 0.75702 0.0
C420 C 0.62277 0.50241 0.72361 0.0
C421 C 0.63958 0.52571 0.72891 0.0
C422 C 0.63573 0.53273 0.74317 0.0
C423 C 0.59871 0.49374 0.74646 0.0
C424 C 0.60247 0.4869 0.73247 0.0
C425 C 0.58227 0.462 0.72816 0.0
H426 H 0.4725 0.3628 0.74377 0.0
C427 C 0.57561 0.47353 0.75263 0.0
C428 C 0.56586 0.45494 0.74188 0.0
H429 H 0.51782 0.37689 0.70438 0.0
H430 H 0.54837 0.41508 0.71471 0.0
H431 H 0.5167 0.37945 0.76648 0.0
H432 H 0.48141 0.41684 0.74826 0.0
H433 H 0.48542 0.42278 0.7676 0.0
H434 H 0.46666 0.39217 0.76111 0.0
H435 H 0.48806 0.37524 0.7738 0.0
H436 H 0.51765 0.39884 0.78069 0.0
C437 C 0.59403 0.44582 0.72606 0.0
C438 C 0.56899 0.4642 0.71407 0.0
C439 C 0.54604 0.4797 0.8048 0.0
C440 C 0.52565 0.46344 0.81346 0.0
C441 C 0.50868 0.44075 0.80728 0.0
C442 C 0.51189 0.43429 0.79284 0.0
C443 C 0.53236 0.4506 0.78436 0.0
C444 C 0.5491 0.47285 0.79036 0.0
C445 C 0.56996 0.48762 0.77971 0.0
C446 C 0.56306 0.47046 0.76644 0.0
C447 C 0.54088 0.44889 0.76922 0.0
C448 C 0.59454 0.49258 0.78715 0.0
C449 C 0.56894 0.51065 0.77571 0.0
C450 C 0.48906 0.37396 0.73738 0.0
C451 C 0.49239 0.36673 0.72308 0.0
C452 C 0.51431 0.3821 0.71522 0.0
C453 C 0.53221 0.40428 0.7213 0.0
C454 C 0.5284 0.41135 0.73547 0.0
C455 C 0.50726 0.39613 0.74334 0.0
C456 C 0.50675 0.40625 0.75847 0.0
C457 C 0.53079 0.43031 0.75821 0.0
C458 C 0.54331 0.43325 0.74468 0.0
C459 C 0.50713 0.38911 0.77056 0.0
C460 C 0.48383 0.40962 0.75904 0.0
H461 H 0.61364 0.52333 0.7627 0.0
H462 H 0.62499 0.49658 0.71263 0.0
H463 H 0.56782 0.48099 0.71452 0.0
H464 H 0.5496 0.44949 0.71301 0.0
H465 H 0.57913 0.46484 0.70374 0.0
H466 H 0.60955 0.45094 0.7341 0.0
H467 H 0.60156 0.44758 0.7146 0.0
H468 H 0.58096 0.42658 0.72834 0.0
H469 H 0.55952 0.4972 0.80923 0.0
H470 H 0.49263 0.42802 0.81358 0.0
H471 H 0.49822 0.4168 0.78882 0.0
H472 H 0.592 0.47632 0.79318 0.0
H473 H 0.60112 0.50759 0.79539 0.0
H474 H 0.6094 0.49679 0.77901 0.0
H475 H 0.54944 0.50673 0.77506 0.0
H476 H 0.57677 0.51787 0.76461 0.0
H477 H 0.57867 0.52499 0.78428 0.0
H478 H 0.64851 0.55052 0.74757 0.0
C479 C 0.6155 0.51689 0.75197 0.0
C480 C 0.61946 0.11869 0.72338 0.0
C481 C 0.6367 0.11223 0.72866 0.0
C482 C 0.63301 0.10168 0.74294 0.0
C483 C 0.59543 0.1037 0.74627 0.0
C484 C 0.59893 0.11408 0.73229 0.0
C485 C 0.57816 0.1187 0.72815 0.0
H486 H 0.46742 0.10934 0.74533 0.0
C487 C 0.57221 0.10106 0.75263 0.0
C488 C 0.56194 0.10979 0.74203 0.0
H489 H 0.50963 0.13697 0.70474 0.0
H490 H 0.542 0.13079 0.71488 0.0
H491 H 0.47818 0.06436 0.75012 0.0
H492 H 0.51287 0.13707 0.76725 0.0
H493 H 0.5147 0.11922 0.78149 0.0
H494 H 0.4847 0.11346 0.77506 0.0
H495 H 0.46309 0.07522 0.76239 0.0
H496 H 0.48226 0.06391 0.76962 0.0
C497 C 0.5648 0.10323 0.71417 0.0
C498 C 0.58928 0.14617 0.72592 0.0
C499 C 0.5436 0.06427 0.80447 0.0
C500 C 0.5237 0.06073 0.81358 0.0
C501 C 0.50718 0.06805 0.8083 0.0
C502 C 0.51009 0.07832 0.79405 0.0
C503 C 0.5299 0.08155 0.78495 0.0
C504 C 0.54652 0.07497 0.79033 0.0
C505 C 0.56717 0.08094 0.77941 0.0
C506 C 0.56005 0.09186 0.76655 0.0
C507 C 0.53797 0.09182 0.76976 0.0
C508 C 0.56605 0.05708 0.77476 0.0
C509 C 0.59188 0.09966 0.78691 0.0
C510 C 0.48352 0.11386 0.73856 0.0
C511 C 0.48574 0.12349 0.72411 0.0
C512 C 0.50739 0.12966 0.7159 0.0
C513 C 0.52614 0.12588 0.72178 0.0
C514 C 0.52342 0.11584 0.7361 0.0
C515 C 0.50249 0.1103 0.74431 0.0
C516 C 0.50302 0.10045 0.7595 0.0
C517 C 0.5273 0.10022 0.75889 0.0
C518 C 0.53921 0.10922 0.74513 0.0
C519 C 0.48043 0.07466 0.76061 0.0
C520 C 0.50368 0.11826 0.77153 0.0
H521 H 0.61103 0.08935 0.76246 0.0
H522 H 0.62153 0.12655 0.7124 0.0
H523 H 0.60398 0.1565 0.7344 0.0
H524 H 0.57556 0.1521 0.72743 0.0
H525 H 0.59776 0.15178 0.71469 0.0
H526 H 0.56393 0.08544 0.71466 0.0
H527 H 0.5747 0.11235 0.70377 0.0
H528 H 0.54533 0.09882 0.71324 0.0
H529 H 0.55668 0.05897 0.80832 0.0
H530 H 0.49173 0.06544 0.81515 0.0
H531 H 0.49669 0.08323 0.79063 0.0
H532 H 0.54651 0.04226 0.77358 0.0
H533 H 0.57516 0.05144 0.78326 0.0
H534 H 0.57448 0.05813 0.76376 0.0
H535 H 0.58914 0.11223 0.79422 0.0
H536 H 0.60603 0.11145 0.77877 0.0
H537 H 0.59954 0.09065 0.79396 0.0
H538 H 0.64606 0.09675 0.74739 0.0
C539 C 0.61265 0.09747 0.75174 0.0
C540 C 0.83054 0.53775 0.94572 0.0
C541 C 0.8538 0.54333 0.93988 0.0
C542 C 0.86001 0.55302 0.92536 0.0
C543 C 0.82083 0.55228 0.92294 0.0
C544 C 0.81449 0.54256 0.93712 0.0
C545 C 0.78958 0.53892 0.94179 0.0
H546 H 0.69005 0.5525 0.92689 0.0
C547 C 0.80054 0.55577 0.91709 0.0
C548 C 0.78214 0.54806 0.92811 0.0
H549 H 0.70405 0.52262 0.96654 0.0
H550 H 0.74197 0.52801 0.95578 0.0
H551 H 0.74681 0.59615 0.92206 0.0
H552 H 0.7062 0.52416 0.90367 0.0
H553 H 0.7242 0.54363 0.8893 0.0
H554 H 0.70036 0.54771 0.89787 0.0
H555 H 0.7214 0.58695 0.90923 0.0
H556 H 0.75245 0.59754 0.90272 0.0
C557 C 0.79352 0.5548 0.95577 0.0
C558 C 0.77192 0.51161 0.94427 0.0
C559 C 0.80811 0.59137 0.86513 0.0
C560 C 0.79287 0.59726 0.85654 0.0
C561 C 0.7701 0.59272 0.86272 0.0
C562 C 0.76282 0.5828 0.87709 0.0
C563 C 0.77839 0.57723 0.88553 0.0
C564 C 0.80056 0.58145 0.87946 0.0
C565 C 0.81482 0.57446 0.88997 0.0
C566 C 0.79754 0.5652 0.90333 0.0
C567 C 0.77622 0.56693 0.90073 0.0
C568 C 0.83965 0.59752 0.89387 0.0
C569 C 0.81766 0.55415 0.88242 0.0
C570 C 0.70138 0.54729 0.93331 0.0
C571 C 0.69397 0.53724 0.94768 0.0
C572 C 0.7091 0.53024 0.95545 0.0
C573 C 0.73126 0.53354 0.94921 0.0
C574 C 0.73855 0.5439 0.93494 0.0
C575 C 0.7235 0.55031 0.92717 0.0
C576 C 0.73377 0.56035 0.91196 0.0
C577 C 0.75768 0.5594 0.91198 0.0
C578 C 0.7605 0.54985 0.92554 0.0
C579 C 0.73879 0.58659 0.9113 0.0
C580 C 0.71522 0.54329 0.89999 0.0
H581 H 0.84974 0.56487 0.90596 0.0
H582 H 0.82526 0.53046 0.95687 0.0
H583 H 0.77545 0.50073 0.93595 0.0
H584 H 0.75223 0.50618 0.94272 0.0
H585 H 0.77455 0.50609 0.95558 0.0
H586 H 0.81081 0.57255 0.95473 0.0
H587 H 0.79518 0.54599 0.96605 0.0
H588 H 0.77866 0.55918 0.95734 0.0
H589 H 0.82556 0.59424 0.86078 0.0
H590 H 0.75804 0.59728 0.85655 0.0
H591 H 0.7454 0.58003 0.88113 0.0
H592 H 0.83747 0.61376 0.89398 0.0
H593 H 0.85418 0.6007 0.88558 0.0
H594 H 0.84651 0.59703 0.9052 0.0
H595 H 0.80057 0.54159 0.8761 0.0
H596 H 0.82031 0.54264 0.89052 0.0
H597 H 0.83331 0.56171 0.87441 0.0
H598 H 0.87759 0.5572 0.92049 0.0
C599 C 0.84372 0.55742 0.91689 0.0
C600 C 0.44628 0.15983 0.94094 0.0
C601 C 0.4392 0.1366 0.93546 0.0
C602 C 0.42527 0.12885 0.92203 0.0
C603 C 0.42625 0.16711 0.91987 0.0
C604 C 0.43938 0.17449 0.93315 0.0
C605 C 0.4444 0.19903 0.93802 0.0
H606 H 0.43433 0.29782 0.92534 0.0
C607 C 0.4222 0.18679 0.9146 0.0
C608 C 0.43258 0.2054 0.92531 0.0
H609 H 0.46597 0.28211 0.96386 0.0
H610 H 0.45702 0.24427 0.95279 0.0
H611 H 0.45766 0.27919 0.90099 0.0
H612 H 0.38658 0.2444 0.92244 0.0
H613 H 0.38156 0.23659 0.90339 0.0
H614 H 0.39531 0.26784 0.90885 0.0
H615 H 0.43355 0.28536 0.89581 0.0
H616 H 0.43602 0.261 0.88734 0.0
C617 C 0.47283 0.21608 0.93863 0.0
C618 C 0.43099 0.19631 0.95309 0.0
C619 C 0.38048 0.18012 0.8643 0.0
C620 C 0.37494 0.19591 0.85645 0.0
C621 C 0.3813 0.2184 0.86296 0.0
C622 C 0.39283 0.22503 0.877 0.0
C623 C 0.3982 0.20909 0.8847 0.0
C624 C 0.39208 0.18706 0.87836 0.0
C625 C 0.3993 0.17252 0.88825 0.0
C626 C 0.41102 0.18962 0.90145 0.0
C627 C 0.41021 0.21096 0.8993 0.0
C628 C 0.41836 0.16824 0.87973 0.0
C629 C 0.37545 0.1491 0.89277 0.0
C630 C 0.43912 0.28614 0.93147 0.0
C631 C 0.45092 0.29308 0.94552 0.0
C632 C 0.4572 0.27744 0.95294 0.0
C633 C 0.45179 0.25532 0.94654 0.0
C634 C 0.43986 0.24859 0.93256 0.0
C635 C 0.43375 0.2639 0.92525 0.0
C636 C 0.42109 0.2537 0.9105 0.0
C637 C 0.42029 0.22957 0.91028 0.0
C638 C 0.43138 0.22676 0.9232 0.0
C639 C 0.4377 0.27064 0.89793 0.0
C640 C 0.39479 0.25055 0.91117 0.0
H641 H 0.40833 0.137 0.9041 0.0
H642 H 0.45715 0.1667 0.95108 0.0
H643 H 0.41427 0.17812 0.95412 0.0
H644 H 0.42385 0.20895 0.95422 0.0
H645 H 0.44332 0.19878 0.96274 0.0
H646 H 0.48192 0.21249 0.92906 0.0
H647 H 0.48081 0.21343 0.94909 0.0
H648 H 0.47836 0.23532 0.9377 0.0
H649 H 0.37565 0.16262 0.85971 0.0
H650 H 0.37768 0.23111 0.8571 0.0
H651 H 0.3972 0.2424 0.88127 0.0
H652 H 0.43208 0.18499 0.87395 0.0
H653 H 0.40905 0.15387 0.87113 0.0
H654 H 0.42935 0.16339 0.88713 0.0
H655 H 0.35948 0.15224 0.89372 0.0
H656 H 0.37697 0.14248 0.90389 0.0
H657 H 0.37047 0.13457 0.88435 0.0
H658 H 0.41892 0.11091 0.91763 0.0
C659 C 0.4189 0.14398 0.91421 0.0
C660 C 0.70447 0.15692 0.94592 0.0
C661 C 0.68547 0.1353 0.9398 0.0
C662 C 0.68709 0.12972 0.92473 0.0
C663 C 0.72679 0.16663 0.92236 0.0
C664 C 0.72466 0.17236 0.93701 0.0
C665 C 0.74581 0.19647 0.94171 0.0
H666 H 0.85645 0.29452 0.92654 0.0
C667 C 0.7504 0.18641 0.91635 0.0
C668 C 0.7614 0.20404 0.92765 0.0
H669 H 0.81172 0.28024 0.96622 0.0
H670 H 0.78065 0.24246 0.9557 0.0
H671 H 0.84661 0.24083 0.92192 0.0
H672 H 0.81213 0.27898 0.9038 0.0
H673 H 0.81261 0.26081 0.88924 0.0
H674 H 0.84146 0.28388 0.89727 0.0
H675 H 0.86114 0.26404 0.90814 0.0
H676 H 0.84094 0.23293 0.90292 0.0
C677 C 0.75939 0.19244 0.95496 0.0
C678 C 0.73534 0.21341 0.94531 0.0
C679 C 0.78126 0.17977 0.86452 0.0
C680 C 0.8033 0.19495 0.85674 0.0
C681 C 0.82053 0.21726 0.86325 0.0
C682 C 0.81641 0.22409 0.87733 0.0
C683 C 0.79478 0.20854 0.88516 0.0
C684 C 0.77745 0.18689 0.87874 0.0
C685 C 0.75552 0.17288 0.88889 0.0
C686 C 0.76287 0.18955 0.90248 0.0
C687 C 0.78593 0.21039 0.90015 0.0
C688 C 0.75401 0.1486 0.89264 0.0
C689 C 0.73214 0.17023 0.88102 0.0
C690 C 0.83989 0.28345 0.93295 0.0
C691 C 0.83684 0.29054 0.94735 0.0
C692 C 0.81498 0.27518 0.95526 0.0
C693 C 0.79674 0.25326 0.94906 0.0
C694 C 0.80014 0.24648 0.9347 0.0
C695 C 0.82134 0.26158 0.92685 0.0
C696 C 0.82151 0.25173 0.91159 0.0
C697 C 0.79685 0.22827 0.91154 0.0
C698 C 0.78455 0.22519 0.92516 0.0
C699 C 0.84374 0.24723 0.91094 0.0
C700 C 0.82214 0.26973 0.89977 0.0
H701 H 0.70803 0.13985 0.90466 0.0
H702 H 0.70347 0.16186 0.95739 0.0
H703 H 0.718 0.20813 0.93892 0.0
H704 H 0.74805 0.2323 0.94199 0.0
H705 H 0.73099 0.21292 0.95738 0.0
H706 H 0.76128 0.17627 0.95292 0.0
H707 H 0.74897 0.1895 0.96553 0.0
H708 H 0.77845 0.20749 0.95664 0.0
H709 H 0.76763 0.16253 0.85985 0.0
H710 H 0.83737 0.22955 0.85742 0.0
H711 H 0.83042 0.24122 0.8816 0.0
H712 H 0.77273 0.15144 0.89531 0.0
H713 H 0.7465 0.13589 0.88302 0.0
H714 H 0.7426 0.13976 0.90254 0.0
H715 H 0.73668 0.18663 0.8744 0.0
H716 H 0.71782 0.16842 0.88898 0.0
H717 H 0.72401 0.15456 0.87323 0.0
H718 H 0.6726 0.11313 0.91979 0.0
C719 C 0.70769 0.1452 0.916 0.0
C720 C 0.54498 0.82864 0.06235 0.0
C721 C 0.54988 0.85086 0.06851 0.0
C722 C 0.56135 0.85767 0.08271 0.0
C723 C 0.56302 0.82065 0.08419 0.0
C724 C 0.55163 0.81392 0.07033 0.0
C725 C 0.54762 0.78979 0.0653 0.0
H726 H 0.56543 0.69525 0.07652 0.0
C727 C 0.56778 0.80138 0.08937 0.0
C728 C 0.55878 0.78327 0.07832 0.0
H729 H 0.52502 0.70566 0.04053 0.0
H730 H 0.53353 0.74336 0.05139 0.0
H731 H 0.60995 0.75114 0.08025 0.0
H732 H 0.53939 0.708 0.10128 0.0
H733 H 0.55867 0.72826 0.11508 0.0
H734 H 0.56626 0.70677 0.10715 0.0
H735 H 0.60289 0.72625 0.09241 0.0
H736 H 0.61402 0.75622 0.09969 0.0
C737 C 0.56238 0.79355 0.05069 0.0
C738 C 0.51934 0.77221 0.06376 0.0
C739 C 0.60944 0.80859 0.13976 0.0
C740 C 0.61558 0.79314 0.14749 0.0
C741 C 0.61108 0.77149 0.14057 0.0
C742 C 0.60044 0.76516 0.12629 0.0
C743 C 0.59401 0.78053 0.1188 0.0
C744 C 0.59856 0.80186 0.1255 0.0
C745 C 0.59001 0.81565 0.11591 0.0
C746 C 0.5793 0.79889 0.10247 0.0
C747 C 0.58188 0.77844 0.10422 0.0
C748 C 0.61299 0.84001 0.11171 0.0
C749 C 0.56986 0.81808 0.12455 0.0
C750 C 0.55815 0.70541 0.07096 0.0
C751 C 0.54478 0.69727 0.05742 0.0
C752 C 0.53598 0.71154 0.05069 0.0
C753 C 0.54069 0.73343 0.05712 0.0
C754 C 0.55408 0.74121 0.07059 0.0
C755 C 0.56223 0.72709 0.0774 0.0
C756 C 0.57463 0.73738 0.0922 0.0
C757 C 0.57305 0.7603 0.09296 0.0
C758 C 0.5613 0.76258 0.08018 0.0
C759 C 0.60179 0.74297 0.09124 0.0
C760 C 0.55918 0.71923 0.10463 0.0
H761 H 0.57657 0.84893 0.1013 0.0
H762 H 0.53648 0.8229 0.05142 0.0
H763 H 0.50864 0.77741 0.07134 0.0
H764 H 0.51389 0.75356 0.06706 0.0
H765 H 0.51279 0.77203 0.05217 0.0
H766 H 0.58095 0.81006 0.05152 0.0
H767 H 0.55256 0.79574 0.04098 0.0
H768 H 0.56605 0.77872 0.04825 0.0
H769 H 0.6125 0.82527 0.14483 0.0
H770 H 0.61597 0.75946 0.1462 0.0
H771 H 0.59755 0.74846 0.12166 0.0
H772 H 0.62929 0.8377 0.10966 0.0
H773 H 0.61802 0.85348 0.12086 0.0
H774 H 0.61046 0.84764 0.10125 0.0
H775 H 0.55793 0.80142 0.13102 0.0
H776 H 0.55697 0.82031 0.11713 0.0
H777 H 0.57833 0.83342 0.13258 0.0
H778 H 0.56502 0.87448 0.08787 0.0
C779 C 0.56794 0.84272 0.09056 0.0
C780 C 0.28902 0.83426 0.05759 0.0
C781 C 0.30589 0.85747 0.06299 0.0
C782 C 0.30197 0.86439 0.07726 0.0
C783 C 0.26472 0.8255 0.08034 0.0
C784 C 0.26859 0.81874 0.06635 0.0
C785 C 0.24832 0.79397 0.06189 0.0
H786 H 0.13962 0.69356 0.0777 0.0
C787 C 0.24146 0.80531 0.08639 0.0
C788 C 0.23177 0.78683 0.07555 0.0
H789 H 0.18305 0.70953 0.03737 0.0
H790 H 0.2138 0.74768 0.04784 0.0
H791 H 0.1844 0.71228 0.10028 0.0
H792 H 0.14619 0.74639 0.08147 0.0
H793 H 0.1514 0.75466 0.10043 0.0
H794 H 0.13279 0.72325 0.09538 0.0
H795 H 0.15471 0.70614 0.10694 0.0
H796 H 0.18316 0.73056 0.11451 0.0
C797 C 0.25995 0.77769 0.05978 0.0
C798 C 0.23524 0.7964 0.04777 0.0
C799 C 0.20991 0.8115 0.13804 0.0
C800 C 0.1886 0.79553 0.14617 0.0
C801 C 0.17224 0.77266 0.13997 0.0
C802 C 0.17657 0.76594 0.12591 0.0
C803 C 0.19752 0.78219 0.11777 0.0
C804 C 0.21394 0.80447 0.12387 0.0
C805 C 0.23518 0.81926 0.11343 0.0
C806 C 0.2287 0.80214 0.10014 0.0
C807 C 0.20653 0.78051 0.10279 0.0
C808 C 0.25947 0.82416 0.12121 0.0
C809 C 0.23436 0.84233 0.10926 0.0
C810 C 0.15563 0.70535 0.07105 0.0
C811 C 0.15879 0.69842 0.05665 0.0
C812 C 0.18021 0.71421 0.04855 0.0
C813 C 0.19802 0.73649 0.05462 0.0
C814 C 0.19446 0.7432 0.06897 0.0
C815 C 0.17357 0.72767 0.07694 0.0
C816 C 0.17285 0.73774 0.09203 0.0
C817 C 0.19663 0.762 0.09174 0.0
C818 C 0.2092 0.76511 0.07822 0.0
C819 C 0.17363 0.72084 0.10415 0.0
C820 C 0.14957 0.74058 0.09252 0.0
H821 H 0.27967 0.8549 0.09672 0.0
H822 H 0.29126 0.82852 0.04658 0.0
H823 H 0.2351 0.81372 0.04791 0.0
H824 H 0.21551 0.78235 0.04701 0.0
H825 H 0.24482 0.79599 0.03742 0.0
H826 H 0.27461 0.78196 0.06832 0.0
H827 H 0.26861 0.78039 0.04859 0.0
H828 H 0.24652 0.75833 0.06127 0.0
H829 H 0.22282 0.82923 0.14244 0.0
H830 H 0.15599 0.7598 0.14606 0.0
H831 H 0.16326 0.74832 0.12188 0.0
H832 H 0.25674 0.80782 0.12723 0.0
H833 H 0.26571 0.83904 0.12952 0.0
H834 H 0.27464 0.82853 0.11328 0.0
H835 H 0.2149 0.83837 0.10813 0.0
H836 H 0.24291 0.8498 0.09834 0.0
H837 H 0.24353 0.85651 0.11799 0.0
H838 H 0.31479 0.88211 0.08173 0.0
C839 C 0.28159 0.84854 0.08597 0.0
C840 C 0.28539 0.45086 0.05669 0.0
C841 C 0.30311 0.44523 0.06222 0.0
C842 C 0.29985 0.43541 0.0767 0.0
C843 C 0.26159 0.43629 0.07969 0.0
C844 C 0.26474 0.44605 0.06554 0.0
C845 C 0.24345 0.44973 0.06116 0.0
H846 H 0.13092 0.43684 0.07753 0.0
C847 C 0.23799 0.43292 0.08587 0.0
C848 C 0.22717 0.4407 0.07501 0.0
H849 H 0.17365 0.46583 0.03726 0.0
H850 H 0.20647 0.46049 0.04756 0.0
H851 H 0.14288 0.3931 0.08215 0.0
H852 H 0.17628 0.4654 0.09984 0.0
H853 H 0.17679 0.44707 0.11423 0.0
H854 H 0.14743 0.44154 0.10679 0.0
H855 H 0.12749 0.40268 0.09508 0.0
H856 H 0.14776 0.39205 0.10146 0.0
C857 C 0.23053 0.43379 0.04727 0.0
C858 C 0.25375 0.47703 0.05867 0.0
C859 C 0.21052 0.39795 0.13818 0.0
C860 C 0.18977 0.39293 0.14701 0.0
C861 C 0.17184 0.39794 0.14101 0.0
C862 C 0.17437 0.40753 0.12659 0.0
C863 C 0.19512 0.41234 0.11792 0.0
C864 C 0.21285 0.4077 0.1238 0.0
C865 C 0.23384 0.41429 0.11304 0.0
C866 C 0.22583 0.4237 0.09978 0.0
C867 C 0.20302 0.42235 0.10265 0.0
C868 C 0.23442 0.39098 0.10905 0.0
C869 C 0.25796 0.43436 0.12037 0.0
C870 C 0.14724 0.44184 0.07086 0.0
C871 C 0.14948 0.45162 0.05647 0.0
C872 C 0.17139 0.45839 0.04838 0.0
C873 C 0.19042 0.45512 0.05436 0.0
C874 C 0.18772 0.44503 0.06866 0.0
C875 C 0.16649 0.43884 0.07673 0.0
C876 C 0.16709 0.42908 0.09193 0.0
C877 C 0.19187 0.42986 0.09156 0.0
C878 C 0.2039 0.43913 0.07786 0.0
C879 C 0.14512 0.40289 0.09286 0.0
C880 C 0.1667 0.44645 0.10391 0.0
H881 H 0.27808 0.42348 0.09631 0.0
H882 H 0.28718 0.4582 0.04558 0.0
H883 H 0.26858 0.48791 0.06696 0.0
H884 H 0.23966 0.48246 0.06027 0.0
H885 H 0.26184 0.48252 0.04734 0.0
H886 H 0.22982 0.4161 0.04816 0.0
H887 H 0.24068 0.44263 0.03688 0.0
H888 H 0.21106 0.42923 0.04603 0.0
H889 H 0.22482 0.39462 0.14243 0.0
H890 H 0.15552 0.39401 0.14738 0.0
H891 H 0.15994 0.4107 0.12271 0.0
H892 H 0.21537 0.37508 0.10869 0.0
H893 H 0.2452 0.38724 0.11747 0.0
H894 H 0.24201 0.39156 0.09783 0.0
H895 H 0.2543 0.44721 0.12675 0.0
H896 H 0.27223 0.4456 0.11215 0.0
H897 H 0.26586 0.42662 0.12829 0.0
H898 H 0.31328 0.43115 0.08132 0.0
C899 C 0.27936 0.43101 0.08543 0.0
C900 C 0.49898 0.87284 0.27945 0.0
C901 C 0.52232 0.87858 0.27367 0.0
C902 C 0.5286 0.88843 0.25918 0.0
C903 C 0.48924 0.88732 0.25665 0.0
C904 C 0.4829 0.87755 0.27082 0.0
C905 C 0.4579 0.87366 0.27546 0.0
H906 H 0.35736 0.88542 0.26042 0.0
C907 C 0.46879 0.89053 0.25074 0.0
C908 C 0.45035 0.88265 0.26176 0.0
H909 H 0.3722 0.85644 0.3002 0.0
H910 H 0.41033 0.86241 0.28946 0.0
H911 H 0.41383 0.92969 0.2555 0.0
H912 H 0.37413 0.85751 0.23735 0.0
H913 H 0.39198 0.87691 0.22292 0.0
H914 H 0.3679 0.88073 0.23138 0.0
H915 H 0.38837 0.92003 0.24265 0.0
H916 H 0.41951 0.93103 0.23616 0.0
C917 C 0.46165 0.88953 0.28942 0.0
C918 C 0.44045 0.84631 0.27794 0.0
C919 C 0.4755 0.92521 0.19854 0.0
C920 C 0.45988 0.93055 0.18989 0.0
C921 C 0.43711 0.92587 0.19614 0.0
C922 C 0.43013 0.91625 0.21059 0.0
C923 C 0.44599 0.91111 0.21906 0.0
C924 C 0.46822 0.91555 0.21296 0.0
C925 C 0.48278 0.909 0.22353 0.0
C926 C 0.46559 0.89972 0.23693 0.0
C927 C 0.44406 0.90107 0.23431 0.0
C928 C 0.50744 0.9323 0.22732 0.0
C929 C 0.48597 0.88881 0.21611 0.0
C930 C 0.36892 0.88054 0.26687 0.0
C931 C 0.36166 0.87053 0.28127 0.0
C932 C 0.37711 0.86399 0.28909 0.0
C933 C 0.3994 0.86763 0.28285 0.0
C934 C 0.40651 0.87788 0.26856 0.0
C935 C 0.39119 0.8839 0.26075 0.0
C936 C 0.40135 0.89391 0.2455 0.0
C937 C 0.4255 0.8934 0.24557 0.0
C938 C 0.42853 0.88409 0.25916 0.0
C939 C 0.40593 0.92 0.24476 0.0
C940 C 0.38293 0.87658 0.23358 0.0
H941 H 0.51831 0.90026 0.23977 0.0
H942 H 0.49363 0.86546 0.29058 0.0
H943 H 0.44415 0.83553 0.26964 0.0
H944 H 0.42071 0.84068 0.27636 0.0
H945 H 0.44311 0.84087 0.28927 0.0
H946 H 0.47897 0.90728 0.28846 0.0
H947 H 0.46313 0.88069 0.29973 0.0
H948 H 0.4468 0.89395 0.29086 0.0
H949 H 0.49299 0.92823 0.19414 0.0
H950 H 0.42479 0.93006 0.18995 0.0
H951 H 0.41267 0.91331 0.21466 0.0
H952 H 0.50493 0.94835 0.22741 0.0
H953 H 0.52195 0.93564 0.21897 0.0
H954 H 0.51449 0.93201 0.23862 0.0
H955 H 0.46884 0.87587 0.20996 0.0
H956 H 0.48913 0.87771 0.22427 0.0
H957 H 0.50143 0.89644 0.20797 0.0
H958 H 0.54626 0.89274 0.25436 0.0
C959 C 0.51227 0.89273 0.25068 0.0
C960 C 0.12102 0.49724 0.27283 0.0
C961 C 0.11346 0.47361 0.26792 0.0
C962 C 0.09854 0.46494 0.25491 0.0
C963 C 0.09907 0.5029 0.25217 0.0
C964 C 0.11335 0.51128 0.26499 0.0
C965 C 0.11849 0.53605 0.26941 0.0
H966 H 0.09763 0.62881 0.25879 0.0
C967 C 0.09391 0.52187 0.2469 0.0
C968 C 0.10499 0.54119 0.25711 0.0
H969 H 0.14344 0.62176 0.29268 0.0
H970 H 0.13451 0.5837 0.28216 0.0
H971 H 0.12095 0.61505 0.23288 0.0
H972 H 0.0535 0.57284 0.25713 0.0
H973 H 0.04702 0.56661 0.2379 0.0
H974 H 0.05894 0.59697 0.24469 0.0
H975 H 0.093 0.61481 0.22781 0.0
H976 H 0.10063 0.59321 0.22012 0.0
C977 C 0.14686 0.5535 0.26886 0.0
C978 C 0.10671 0.53416 0.28494 0.0
C979 C 0.04746 0.51158 0.1979 0.0
C980 C 0.04036 0.52647 0.19032 0.0
C981 C 0.0455 0.54851 0.197 0.0
C982 C 0.05755 0.55569 0.21086 0.0
C983 C 0.06475 0.5408 0.2182 0.0
C984 C 0.0596 0.51909 0.21179 0.0
C985 C 0.06855 0.50562 0.2214 0.0
C986 C 0.08076 0.52333 0.23428 0.0
C987 C 0.07829 0.5438 0.23234 0.0
C988 C 0.08754 0.502 0.21233 0.0
C989 C 0.04571 0.48182 0.22659 0.0
C990 C 0.10596 0.61928 0.26396 0.0
C991 C 0.12093 0.62841 0.27686 0.0
C992 C 0.1312 0.61505 0.28307 0.0
C993 C 0.12618 0.59293 0.27685 0.0
C994 C 0.11091 0.58398 0.26414 0.0
C995 C 0.10152 0.59736 0.25773 0.0
C996 C 0.08721 0.58589 0.2436 0.0
C997 C 0.08877 0.56296 0.24295 0.0
C998 C 0.10239 0.56182 0.25511 0.0
C999 C 0.10092 0.60305 0.23037 0.0
C1000 C 0.06023 0.58034 0.2458 0.0
H1001 H 0.08013 0.4718 0.23722 0.0
H1002 H 0.1327 0.50483 0.28261 0.0
H1003 H 0.08852 0.51722 0.28578 0.0
H1004 H 0.10259 0.54875 0.28718 0.0
H1005 H 0.11881 0.534 0.29404 0.0
H1006 H 0.15561 0.54791 0.26008 0.0
H1007 H 0.15579 0.5539 0.2797 0.0
H1008 H 0.15176 0.57209 0.26581 0.0
H1009 H 0.04352 0.49439 0.1932 0.0
H1010 H 0.04062 0.56053 0.19137 0.0
H1011 H 0.06091 0.57267 0.21527 0.0
H1012 H 0.10071 0.51896 0.20652 0.0
H1013 H 0.07809 0.4877 0.2037 0.0
H1014 H 0.09905 0.49729 0.21936 0.0
H1015 H 0.02901 0.48381 0.22748 0.0
H1016 H 0.04815 0.47639 0.2379 0.0
H1017 H 0.04127 0.46686 0.2186 0.0
H1018 H 0.09185 0.44671 0.25094 0.0
C1019 C 0.09147 0.47947 0.24699 0.0
C1020 C 0.37361 0.4883 0.27942 0.0
C1021 C 0.35664 0.46519 0.27391 0.0
C1022 C 0.36054 0.45844 0.25958 0.0
C1023 C 0.39791 0.49729 0.25664 0.0
C1024 C 0.39407 0.50389 0.27069 0.0
C1025 C 0.4144 0.52861 0.27522 0.0
H1026 H 0.52306 0.62927 0.25949 0.0
C1027 C 0.42117 0.51753 0.25062 0.0
C1028 C 0.43092 0.53589 0.26154 0.0
H1029 H 0.47978 0.61295 0.29991 0.0
H1030 H 0.44906 0.57483 0.28939 0.0
H1031 H 0.51645 0.57633 0.25545 0.0
H1032 H 0.47815 0.61062 0.23701 0.0
H1033 H 0.47942 0.59251 0.22267 0.0
H1034 H 0.50786 0.6169 0.23028 0.0
H1035 H 0.52985 0.5997 0.24168 0.0
H1036 H 0.51123 0.56837 0.23644 0.0
C1037 C 0.4275 0.526 0.28927 0.0
C1038 C 0.40282 0.5449 0.27749 0.0
C1039 C 0.45237 0.51179 0.19877 0.0
C1040 C 0.47359 0.52781 0.19059 0.0
C1041 C 0.49003 0.55062 0.19685 0.0
C1042 C 0.48587 0.55721 0.21101 0.0
C1043 C 0.46498 0.5409 0.21917 0.0
C1044 C 0.44848 0.51869 0.21302 0.0
C1045 C 0.42729 0.50383 0.22347 0.0
C1046 C 0.43387 0.52083 0.23683 0.0
C1047 C 0.45606 0.54246 0.23421 0.0
C1048 C 0.42807 0.48069 0.22749 0.0
C1049 C 0.40298 0.49907 0.21578 0.0
C1050 C 0.5071 0.61741 0.26615 0.0
C1051 C 0.50397 0.62424 0.28059 0.0
C1052 C 0.48259 0.60835 0.28871 0.0
C1053 C 0.4648 0.58609 0.28261 0.0
C1054 C 0.46831 0.57948 0.26821 0.0
C1055 C 0.48915 0.59509 0.26023 0.0
C1056 C 0.48979 0.58515 0.24508 0.0
C1057 C 0.46602 0.56087 0.24533 0.0
C1058 C 0.45351 0.55763 0.2589 0.0
C1059 C 0.51307 0.58232 0.24446 0.0
C1060 C 0.48895 0.60213 0.23305 0.0
H1061 H 0.38284 0.4681 0.24012 0.0
H1062 H 0.37139 0.49393 0.29046 0.0
H1063 H 0.38813 0.54074 0.26899 0.0
H1064 H 0.41627 0.56427 0.27605 0.0
H1065 H 0.39422 0.54211 0.2887 0.0
H1066 H 0.42774 0.50873 0.28897 0.0
H1067 H 0.41787 0.52616 0.29966 0.0
H1068 H 0.4472 0.54011 0.29009 0.0
H1069 H 0.43939 0.49409 0.19435 0.0
H1070 H 0.50622 0.56354 0.19073 0.0
H1071 H 0.49922 0.57478 0.21507 0.0
H1072 H 0.44753 0.4846 0.22855 0.0
H1073 H 0.41884 0.4666 0.21871 0.0
H1074 H 0.41956 0.47312 0.2384 0.0
H1075 H 0.40575 0.51545 0.2098 0.0
H1076 H 0.38789 0.49476 0.22377 0.0
H1077 H 0.3966 0.48419 0.20746 0.0
H1078 H 0.34765 0.44081 0.25501 0.0
C1079 C 0.38096 0.47434 0.25091 0.0
Gd1080 Gd 0.50717 0.01359 0.01866 0.0
Gd1081 Gd 0.48674 0.97611 0.98417 0.0
C1082 C 0.41271 0.90586 0.98112 0.0
C1083 C 0.42571 0.87596 0.97876 0.0
C1084 C 0.45639 0.91862 0.98052 0.0
C1085 C 0.43776 0.92426 0.98168 0.0
C1086 C 0.4506 0.89446 0.97874 0.0
C1087 C 0.40679 0.88165 0.97996 0.0
C1088 C 0.39438 0.9124 0.98134 0.0
C1089 C 0.40128 0.93679 0.98157 0.0
N1090 N 0.44415 0.94783 0.98267 0.0
C1091 C 0.4264 0.95437 0.98201 0.0
H1092 H 0.43144 0.97314 0.98221 0.0
C1093 C 0.49913 0.9325 0.9777 0.0
N1094 N 0.4802 0.93693 0.98046 0.0
C1095 C 0.49434 0.90882 0.97595 0.0
C1096 C 0.46999 0.88968 0.97664 0.0
H1097 H 0.518 0.9472 0.97721 0.0
H1098 H 0.38765 0.86725 0.97964 0.0
H1099 H 0.56232 0.01604 0.02043 0.0
H1100 H 0.37492 0.89882 0.98098 0.0
H1101 H 0.38727 0.94207 0.98145 0.0
H1102 H 0.42088 0.85725 0.97753 0.0
H1103 H 0.47712 0.04277 0.02763 0.0
H1104 H 0.61948 0.09006 0.02117 0.0
H1105 H 0.60657 0.04668 0.02089 0.0
H1106 H 0.57446 0.13237 0.02603 0.0
H1107 H 0.50943 0.90535 0.97407 0.0
H1108 H 0.46633 0.87135 0.97523 0.0
H1109 H 0.60729 0.122 0.02289 0.0
H1110 H 0.48621 0.08462 0.0317 0.0
N1111 N 0.54997 0.04163 0.01992 0.0
C1112 C 0.59996 0.07665 0.02092 0.0
C1113 C 0.59274 0.05219 0.02082 0.0
C1114 C 0.58186 0.08347 0.02133 0.0
C1115 C 0.55671 0.06528 0.02093 0.0
C1116 C 0.56754 0.03483 0.02057 0.0
N1117 N 0.51457 0.0529 0.02315 0.0
C1118 C 0.53837 0.07111 0.02266 0.0
C1119 C 0.50106 0.08109 0.02909 0.0
C1120 C 0.52537 0.10017 0.0279 0.0
C1121 C 0.49598 0.0574 0.0268 0.0
C1122 C 0.54446 0.09529 0.02488 0.0
H1123 H 0.52927 0.1185 0.0297 0.0
O1124 O 0.48806 0.00812 0.03989 0.0
O1125 O 0.47725 0.98097 0.00737 0.0
O1126 O 0.47487 0.00441 0.9846 0.0
O1127 O 0.50124 0.03539 0.00093 0.0
O1128 O 0.4664 0.00093 0.02008 0.0
O1129 O 0.52001 0.00352 0.03856 0.0
O1130 O 0.50749 0.98385 0.96348 0.0
O1131 O 0.51627 0.009 0.99535 0.0
O1132 O 0.51924 0.98538 0.01782 0.0
O1133 O 0.49154 0.95416 0.00218 0.0
O1134 O 0.52772 0.98932 0.98284 0.0
O1135 O 0.47201 0.98209 0.96346 0.0
C1136 C 0.45855 0.98169 0.01207 0.0
C1137 C 0.5694 0.11365 0.02451 0.0
C1138 C 0.58809 0.10775 0.02272 0.0
C1139 C 0.50324 0.00348 0.04725 0.0
C1140 C 0.51184 0.01534 0.06197 0.0
C1141 C 0.52791 0.04032 0.06286 0.0
C1142 C 0.50417 0.00163 0.07524 0.0
C1143 C 0.51275 0.01284 0.08937 0.0
C1144 C 0.53625 0.05155 0.07674 0.0
C1145 C 0.5288 0.03801 0.08986 0.0
C1146 C 0.48552 0.02705 0.98947 0.0
C1147 C 0.5352 0.00865 0.99073 0.0
C1148 C 0.49076 0.98515 0.95542 0.0
C1149 C 0.48531 0.97307 0.94067 0.0
C1150 C 0.47643 0.94823 0.93972 0.0
C1151 C 0.49023 0.98665 0.92741 0.0
C1152 C 0.48675 0.97555 0.91317 0.0
C1153 C 0.47301 0.9371 0.92581 0.0
C1154 C 0.47831 0.95056 0.9127 0.0
C1155 C 0.50802 0.96259 0.01321 0.0
H1156 H 0.53401 0.05112 0.05283 0.0
H1157 H 0.49193 0.98228 0.07454 0.0
H1158 H 0.54858 0.07087 0.07734 0.0
H1159 H 0.53543 0.04736 0.10045 0.0
H1160 H 0.47253 0.9375 0.94973 0.0
H1161 H 0.49673 0.00579 0.92827 0.0
H1162 H 0.46651 0.91795 0.92518 0.0
H1163 H 0.47616 0.94127 0.9022 0.0
Gd1164 Gd 0.97807 0.49001 0.01827 0.0
Gd1165 Gd 0.01728 0.50019 0.98505 0.0
C1166 C 0.08547 0.49125 0.98699 0.0
C1167 C 0.11896 0.53247 0.98368 0.0
C1168 C 0.07615 0.52342 0.98352 0.0
C1169 C 0.06818 0.4993 0.98593 0.0
C1170 C 0.10159 0.5402 0.982 0.0
C1171 C 0.11091 0.50804 0.98619 0.0
C1172 C 0.07664 0.46651 0.98847 0.0
C1173 C 0.05115 0.45045 0.9884 0.0
N1174 N 0.04345 0.48356 0.98656 0.0
C1175 C 0.03473 0.45929 0.98723 0.0
H1176 H 0.01511 0.44664 0.98727 0.0
C1177 C 0.06562 0.55314 0.97745 0.0
N1178 N 0.05888 0.5302 0.98179 0.0
C1179 C 0.09064 0.57049 0.9759 0.0
C1180 C 0.10874 0.56408 0.97838 0.0
H1181 H 0.05167 0.55818 0.9756 0.0
H1182 H 0.12448 0.50223 0.98714 0.0
H1183 H 0.98057 0.54377 0.01553 0.0
H1184 H 0.08931 0.45961 0.98938 0.0
H1185 H 0.04412 0.43124 0.98929 0.0
H1186 H 0.13862 0.54514 0.9827 0.0
H1187 H 0.94363 0.43417 0.03107 0.0
H1188 H 0.9067 0.5313 0.01201 0.0
H1189 H 0.95193 0.55941 0.01263 0.0
H1190 H 0.8568 0.44636 0.02066 0.0
H1191 H 0.09595 0.58879 0.97282 0.0
H1192 H 0.12811 0.57752 0.97712 0.0
H1193 H 0.87123 0.48888 0.01467 0.0
H1194 H 0.89935 0.40415 0.03476 0.0
N1195 N 0.95205 0.50688 0.01607 0.0
C1196 C 0.91922 0.52427 0.01326 0.0
C1197 C 0.94472 0.54019 0.01366 0.0
C1198 C 0.91017 0.49955 0.01507 0.0
C1199 C 0.92729 0.49135 0.01658 0.0
C1200 C 0.96094 0.53118 0.01532 0.0
N1201 N 0.93638 0.46091 0.02238 0.0
C1202 C 0.91916 0.4675 0.01981 0.0
C1203 C 0.90464 0.42185 0.03043 0.0
C1204 C 0.88654 0.42783 0.02685 0.0
C1205 C 0.92966 0.43887 0.02836 0.0
C1206 C 0.89372 0.45109 0.0218 0.0
H1207 H 0.86718 0.41469 0.02854 0.0
O1208 O 0.98085 0.47875 0.04075 0.0
O1209 O 0.01124 0.49041 0.00901 0.0
O1210 O 0.98601 0.46119 0.98619 0.0
O1211 O 0.95555 0.45877 0.0026 0.0
O1212 O 0.99044 0.463 0.02364 0.0
O1213 O 0.98681 0.51464 0.03705 0.0
O1214 O 0.01555 0.51285 0.96282 0.0
O1215 O 0.98352 0.49916 0.99408 0.0
O1216 O 0.00933 0.52916 0.01629 0.0
O1217 O 0.04032 0.52849 0.00214 0.0
O1218 O 0.00548 0.52767 0.98028 0.0
O1219 O 0.00945 0.47667 0.96578 0.0
C1220 C 0.01023 0.47257 0.01565 0.0
C1221 C 0.87646 0.45877 0.01939 0.0
C1222 C 0.88468 0.48298 0.016 0.0
C1223 C 0.98458 0.49874 0.04693 0.0
C1224 C 0.96935 0.49611 0.06009 0.0
C1225 C 0.94463 0.49036 0.05839 0.0
C1226 C 0.97953 0.49909 0.07451 0.0
C1227 C 0.96506 0.49631 0.08725 0.0
C1228 C 0.93012 0.48731 0.07091 0.0
C1229 C 0.94017 0.4902 0.08524 0.0
C1230 C 0.96332 0.44988 0.99184 0.0
C1231 C 0.98508 0.51745 0.98769 0.0
C1232 C 0.01179 0.49308 0.95625 0.0
C1233 C 0.02686 0.49616 0.94295 0.0
C1234 C 0.05201 0.5033 0.94433 0.0
C1235 C 0.016 0.49213 0.92866 0.0
C1236 C 0.03019 0.49522 0.91575 0.0
C1237 C 0.06623 0.50659 0.93162 0.0
C1238 C 0.05548 0.50264 0.91743 0.0
C1239 C 0.03272 0.5389 0.01193 0.0
H1240 H 0.93655 0.48823 0.04743 0.0
H1241 H -0.00123 0.50394 0.07576 0.0
H1242 H 0.91098 0.48269 0.06951 0.0
H1243 H 0.92836 0.48745 0.09475 0.0
H1244 H 0.06064 0.50635 0.95519 0.0
H1245 H 0.99646 0.48624 0.92766 0.0
H1246 H 0.08568 0.51225 0.93278 0.0
H1247 H 0.06706 0.50561 0.90776 0.0
Gd1248 Gd 0.48522 0.50046 0.98482 0.0
Gd1249 Gd 0.50975 0.48844 0.01935 0.0
C1250 C 0.58658 0.49604 0.02066 0.0
C1251 C 0.57675 0.4545 0.02407 0.0
C1252 C 0.54381 0.46432 0.02275 0.0
C1253 C 0.56107 0.48838 0.02077 0.0
C1254 C 0.55145 0.44716 0.02478 0.0
C1255 C 0.59429 0.47891 0.02199 0.0
C1256 C 0.60357 0.52073 0.01956 0.0
C1257 C 0.59499 0.53712 0.01911 0.0
N1258 N 0.55297 0.50444 0.01962 0.0
C1259 C 0.5695 0.52865 0.01936 0.0
H1260 H 0.56321 0.54156 0.01893 0.0
C1261 C 0.50209 0.43492 0.02731 0.0
N1262 N 0.51957 0.4579 0.02351 0.0
C1263 C 0.50872 0.41721 0.02933 0.0
C1264 C 0.53347 0.42328 0.02788 0.0
H1265 H 0.48291 0.43013 0.02836 0.0
H1266 H 0.61379 0.48441 0.02178 0.0
H1267 H 0.43063 0.44861 0.98602 0.0
H1268 H 0.62332 0.52735 0.01937 0.0
H1269 H 0.60798 0.55629 0.01852 0.0
H1270 H 0.58299 0.44156 0.02546 0.0
H1271 H 0.51363 0.55767 0.97335 0.0
H1272 H 0.37244 0.46556 0.98479 0.0
H1273 H 0.38619 0.43545 0.98648 0.0
H1274 H 0.41552 0.55075 0.97584 0.0
H1275 H 0.49474 0.3989 0.03199 0.0
H1276 H 0.53858 0.40955 0.0295 0.0
H1277 H 0.3836 0.50876 0.98102 0.0
H1278 H 0.50331 0.58946 0.9679 0.0
N1279 N 0.44225 0.486 0.98467 0.0
C1280 C 0.39205 0.47149 0.98465 0.0
C1281 C 0.39973 0.45443 0.98555 0.0
C1282 C 0.40973 0.49589 0.983 0.0
C1283 C 0.43501 0.50263 0.98295 0.0
C1284 C 0.42502 0.46201 0.98528 0.0
N1285 N 0.47681 0.53157 0.97932 0.0
C1286 C 0.45288 0.5262 0.98014 0.0
C1287 C 0.48896 0.57179 0.97142 0.0
C1288 C 0.46459 0.5669 0.97299 0.0
C1289 C 0.49474 0.55373 0.97451 0.0
C1290 C 0.44611 0.54377 0.97717 0.0
H1291 H 0.46015 0.5809 0.97057 0.0
O1292 O 0.50301 0.51098 0.96312 0.0
O1293 O 0.5167 0.499 0.9955 0.0
O1294 O 0.51943 0.52772 0.01764 0.0
O1295 O 0.49122 0.52969 0.00122 0.0
O1296 O 0.52583 0.52762 0.98154 0.0
O1297 O 0.4695 0.47653 0.96561 0.0
O1298 O 0.4926 0.47551 0.04102 0.0
O1299 O 0.47821 0.49002 0.00879 0.0
O1300 O 0.47432 0.46093 0.98718 0.0
O1301 O 0.50454 0.46034 0.00228 0.0
O1302 O 0.4693 0.46102 0.0225 0.0
O1303 O 0.52403 0.51157 0.03899 0.0
C1304 C 0.5348 0.51727 0.98974 0.0
C1305 C 0.42108 0.53745 0.97793 0.0
C1306 C 0.40291 0.51355 0.98087 0.0
C1307 C 0.48609 0.49167 0.95637 0.0
C1308 C 0.47702 0.49553 0.94201 0.0
C1309 C 0.45963 0.50332 0.94161 0.0
C1310 C 0.48639 0.492 0.92853 0.0
C1311 C 0.47859 0.49641 0.91466 0.0
C1312 C 0.45179 0.5077 0.92794 0.0
C1313 C 0.4612 0.50434 0.91456 0.0
C1314 C 0.50778 0.53868 0.01219 0.0
C1315 C 0.46025 0.47154 0.01452 0.0
C1316 C 0.50838 0.49513 0.04807 0.0
C1317 C 0.51862 0.49175 0.06212 0.0
C1318 C 0.53591 0.48383 0.06185 0.0
C1319 C 0.51095 0.4963 0.07595 0.0
C1320 C 0.52064 0.49311 0.08949 0.0
C1321 C 0.54537 0.48038 0.07517 0.0
C1322 C 0.53784 0.48495 0.08888 0.0
C1323 C 0.48692 0.45057 0.99198 0.0
H1324 H 0.45214 0.50604 0.95183 0.0
H1325 H 0.50002 0.4862 0.92888 0.0
H1326 H 0.43834 0.51368 0.92771 0.0
H1327 H 0.45456 0.50759 0.90411 0.0
H1328 H 0.54207 0.48031 0.05137 0.0
H1329 H 0.49779 0.5027 0.07612 0.0
H1330 H 0.55862 0.47414 0.07487 0.0
H1331 H 0.54535 0.48188 0.09903 0.0
Gd1332 Gd 0.17593 0.34765 0.35283 0.0
Gd1333 Gd 0.1542 0.31017 0.31842 0.0
C1334 C 0.07828 0.24189 0.31551 0.0
C1335 C 0.0893 0.2107 0.31219 0.0
C1336 C 0.12142 0.25283 0.31427 0.0
C1337 C 0.10365 0.25948 0.31596 0.0
C1338 C 0.11449 0.22845 0.31197 0.0
C1339 C 0.07121 0.21741 0.31398 0.0
C1340 C 0.0608 0.2495 0.3161 0.0
C1341 C 0.06882 0.27414 0.31648 0.0
N1342 N 0.11116 0.28329 0.31717 0.0
C1343 C 0.09421 0.29089 0.31675 0.0
H1344 H 0.10008 0.30985 0.31706 0.0
C1345 C 0.16359 0.26517 0.31043 0.0
N1346 N 0.14551 0.27046 0.31398 0.0
C1347 C 0.15766 0.24124 0.30807 0.0
C1348 C 0.13303 0.22275 0.30906 0.0
H1349 H 0.18268 0.27937 0.30973 0.0
H1350 H 0.05182 0.20362 0.31374 0.0
H1351 H 0.22989 0.34761 0.35418 0.0
H1352 H 0.04114 0.23657 0.31583 0.0
H1353 H 0.05548 0.28027 0.31659 0.0
H1354 H 0.08359 0.19183 0.31059 0.0
H1355 H 0.14778 0.37877 0.36144 0.0
H1356 H 0.28913 0.42073 0.35546 0.0
H1357 H 0.27453 0.37698 0.35467 0.0
H1358 H 0.24715 0.46593 0.36061 0.0
H1359 H 0.17209 0.23708 0.30554 0.0
H1360 H 0.12847 0.20423 0.3072 0.0
H1361 H 0.27872 0.45387 0.35751 0.0
H1362 H 0.15862 0.42114 0.36559 0.0
N1363 N 0.21902 0.37433 0.35409 0.0
C1364 C 0.26944 0.40789 0.35518 0.0
C1365 C 0.26127 0.38322 0.35478 0.0
C1366 C 0.25209 0.41565 0.35576 0.0
C1367 C 0.22668 0.39818 0.3553 0.0
C1368 C 0.23586 0.36659 0.3545 0.0
N1369 N 0.18489 0.38745 0.35724 0.0
C1370 C 0.20902 0.40497 0.35696 0.0
C1371 C 0.17298 0.41686 0.36309 0.0
C1372 C 0.19766 0.43525 0.36211 0.0
C1373 C 0.1669 0.39288 0.36075 0.0
C1374 C 0.2161 0.4294 0.35923 0.0
H1375 H 0.20233 0.45381 0.36395 0.0
O1376 O 0.15641 0.34222 0.3739 0.0
O1377 O 0.14537 0.31524 0.34174 0.0
O1378 O 0.14373 0.33948 0.31904 0.0
O1379 O 0.17115 0.3702 0.33512 0.0
O1380 O 0.13544 0.33617 0.35424 0.0
O1381 O 0.18889 0.33845 0.37302 0.0
O1382 O 0.1738 0.31596 0.29736 0.0
O1383 O 0.18472 0.34257 0.32951 0.0
O1384 O 0.18626 0.31823 0.35225 0.0
O1385 O 0.15892 0.28757 0.3361 0.0
O1386 O 0.19473 0.32176 0.317 0.0
O1387 O 0.14088 0.31901 0.29823 0.0
C1388 C 0.12704 0.31663 0.34646 0.0
C1389 C 0.24133 0.44703 0.35903 0.0
C1390 C 0.2593 0.44016 0.35727 0.0
C1391 C 0.17172 0.33804 0.38149 0.0
C1392 C 0.17967 0.35 0.39623 0.0
C1393 C 0.196 0.37492 0.39716 0.0
C1394 C 0.17058 0.33648 0.40949 0.0
C1395 C 0.17748 0.34795 0.42364 0.0
C1396 C 0.20308 0.38632 0.41108 0.0
C1397 C 0.19389 0.37302 0.4242 0.0
C1398 C 0.15529 0.36224 0.32373 0.0
C1399 C 0.20311 0.34129 0.32479 0.0
C1400 C 0.15825 0.31981 0.28977 0.0
C1401 C 0.15059 0.30797 0.27499 0.0
C1402 C 0.1358 0.28284 0.27391 0.0
C1403 C 0.15845 0.32188 0.26181 0.0
C1404 C 0.15184 0.31066 0.24759 0.0
C1405 C 0.12904 0.27165 0.25992 0.0
C1406 C 0.137 0.28536 0.24687 0.0
C1407 C 0.17475 0.2955 0.3475 0.0
H1408 H 0.20324 0.38556 0.38713 0.0
H1409 H 0.15781 0.31723 0.40879 0.0
H1410 H 0.21574 0.40557 0.41171 0.0
H1411 H 0.19985 0.38239 0.43483 0.0
H1412 H 0.12951 0.27188 0.28387 0.0
H1413 H 0.17003 0.34131 0.26265 0.0
H1414 H 0.11757 0.25222 0.25917 0.0
H1415 H 0.13123 0.27613 0.23619 0.0
Gd1416 Gd 0.64447 0.82307 0.35218 0.0
Gd1417 Gd 0.68386 0.8329 0.31918 0.0
C1418 C 0.75279 0.82506 0.32068 0.0
C1419 C 0.7858 0.86634 0.31684 0.0
C1420 C 0.74281 0.85673 0.31705 0.0
C1421 C 0.73522 0.83278 0.31969 0.0
C1422 C 0.76813 0.87371 0.31524 0.0
C1423 C 0.77813 0.84205 0.31957 0.0
C1424 C 0.74431 0.80043 0.32242 0.0
C1425 C 0.71889 0.78414 0.32265 0.0
N1426 N 0.71059 0.81686 0.32063 0.0
C1427 C 0.7022 0.79267 0.32154 0.0
H1428 H 0.68263 0.77983 0.32181 0.0
C1429 C 0.73158 0.88595 0.31097 0.0
N1430 N 0.72525 0.86316 0.31543 0.0
C1431 C 0.75647 0.90349 0.30914 0.0
C1432 C 0.77487 0.89743 0.31147 0.0
H1433 H 0.71745 0.89076 0.30923 0.0
H1434 H 0.79191 0.8365 0.32046 0.0
H1435 H 0.6455 0.87602 0.34998 0.0
H1436 H 0.7572 0.79377 0.32328 0.0
H1437 H 0.71212 0.765 0.32374 0.0
H1438 H 0.80537 0.87916 0.31563 0.0
H1439 H 0.61087 0.76511 0.36188 0.0
H1440 H 0.57085 0.86166 0.34698 0.0
H1441 H 0.61588 0.89068 0.34756 0.0
H1442 H 0.52278 0.77603 0.35367 0.0
H1443 H 0.76145 0.92166 0.30595 0.0
H1444 H 0.79413 0.91102 0.30999 0.0
H1445 H 0.53619 0.81873 0.34904 0.0
H1446 H 0.56675 0.73391 0.36447 0.0
N1447 N 0.61765 0.83892 0.35035 0.0
C1448 C 0.58379 0.85509 0.34803 0.0
C1449 C 0.60918 0.87152 0.3484 0.0
C1450 C 0.57537 0.83042 0.34949 0.0
C1451 C 0.593 0.82282 0.35075 0.0
C1452 C 0.62594 0.86311 0.34978 0.0
N1453 N 0.60304 0.79255 0.35534 0.0
C1454 C 0.58544 0.79884 0.35333 0.0
C1455 C 0.57175 0.75208 0.36127 0.0
C1456 C 0.55335 0.758 0.35852 0.0
C1457 C 0.59668 0.76977 0.35983 0.0
C1458 C 0.56008 0.78171 0.35473 0.0
H1459 H 0.53405 0.74429 0.35969 0.0
O1460 O 0.64606 0.81129 0.37469 0.0
O1461 O 0.67781 0.82349 0.3432 0.0
O1462 O 0.65298 0.79365 0.32138 0.0
O1463 O 0.62171 0.7946 0.33505 0.0
O1464 O 0.6569 0.79611 0.35778 0.0
O1465 O 0.65241 0.84742 0.37101 0.0
O1466 O 0.68055 0.84418 0.29685 0.0
O1467 O 0.6506 0.83275 0.32817 0.0
O1468 O 0.67563 0.86227 0.35026 0.0
O1469 O 0.70676 0.86172 0.3361 0.0
O1470 O 0.67234 0.86054 0.31399 0.0
O1471 O 0.67557 0.80851 0.30031 0.0
C1472 C 0.67683 0.80576 0.34993 0.0
C1473 C 0.54238 0.78896 0.35278 0.0
C1474 C 0.55002 0.81327 0.35015 0.0
C1475 C 0.64971 0.83129 0.38087 0.0
C1476 C 0.63418 0.82861 0.39388 0.0
C1477 C 0.60946 0.82274 0.39199 0.0
C1478 C 0.64409 0.8316 0.40838 0.0
C1479 C 0.62937 0.82873 0.421 0.0
C1480 C 0.59472 0.8197 0.4044 0.0
C1481 C 0.60452 0.82261 0.4188 0.0
C1482 C 0.62948 0.78402 0.3255 0.0
C1483 C 0.65223 0.85098 0.32168 0.0
C1484 C 0.67696 0.82428 0.29058 0.0
C1485 C 0.69134 0.82714 0.277 0.0
C1486 C 0.71665 0.83466 0.27781 0.0
C1487 C 0.67969 0.82302 0.26299 0.0
C1488 C 0.69324 0.82659 0.24975 0.0
C1489 C 0.73021 0.83824 0.26474 0.0
C1490 C 0.71866 0.83433 0.25078 0.0
C1491 C 0.69903 0.87212 0.34584 0.0
H1492 H 0.60155 0.82049 0.38097 0.0
H1493 H 0.66332 0.83648 0.40977 0.0
H1494 H 0.57559 0.81502 0.40285 0.0
H1495 H 0.59253 0.81982 0.42823 0.0
H1496 H 0.7259 0.83784 0.28849 0.0
H1497 H 0.66017 0.81743 0.2624 0.0
H1498 H 0.74975 0.84406 0.26543 0.0
H1499 H 0.72952 0.83702 0.2408 0.0
Gd1500 Gd 0.1531 0.83453 0.31773 0.0
Gd1501 Gd 0.17742 0.8225 0.35229 0.0
C1502 C 0.25399 0.82948 0.35418 0.0
C1503 C 0.24385 0.78815 0.35888 0.0
C1504 C 0.21115 0.7982 0.3568 0.0
C1505 C 0.22853 0.82203 0.35421 0.0
C1506 C 0.21861 0.78109 0.35959 0.0
C1507 C 0.26151 0.81231 0.35614 0.0
C1508 C 0.27113 0.85407 0.35264 0.0
C1509 C 0.26274 0.87058 0.35181 0.0
N1510 N 0.2206 0.83816 0.35259 0.0
C1511 C 0.23729 0.86231 0.35205 0.0
H1512 H 0.23114 0.87532 0.35135 0.0
C1513 C 0.16947 0.76959 0.3621 0.0
N1514 N 0.18699 0.79209 0.35754 0.0
C1515 C 0.17594 0.75196 0.365 0.0
C1516 C 0.20057 0.75763 0.36351 0.0
H1517 H 0.15038 0.76506 0.36319 0.0
H1518 H 0.28097 0.81765 0.356 0.0
H1519 H 0.09969 0.78147 0.31808 0.0
H1520 H 0.29084 0.86052 0.3525 0.0
H1521 H 0.27585 0.88969 0.35094 0.0
H1522 H 0.24995 0.77522 0.36083 0.0
H1523 H 0.1797 0.89213 0.3073 0.0
H1524 H 0.03955 0.79568 0.31774 0.0
H1525 H 0.05488 0.76672 0.31858 0.0
H1526 H 0.07985 0.88121 0.31047 0.0
H1527 H 0.16193 0.73401 0.36832 0.0
H1528 H 0.20555 0.74396 0.36578 0.0
H1529 H 0.04908 0.83857 0.31493 0.0
H1530 H 0.1678 0.92308 0.30264 0.0
N1531 N 0.10989 0.81857 0.31752 0.0
C1532 C 0.0593 0.80229 0.31757 0.0
C1533 C 0.06787 0.78589 0.318 0.0
C1534 C 0.07629 0.82697 0.31638 0.0
C1535 C 0.10179 0.83462 0.31629 0.0
C1536 C 0.09336 0.79436 0.31771 0.0
N1537 N 0.14323 0.86487 0.31301 0.0
C1538 C 0.11904 0.85858 0.31391 0.0
C1539 C 0.15392 0.90504 0.30589 0.0
C1540 C 0.12926 0.89919 0.30757 0.0
C1541 C 0.16059 0.88749 0.30851 0.0
C1542 C 0.11138 0.87561 0.31139 0.0
H1543 H 0.12412 0.9128 0.30551 0.0
O1544 O 0.17052 0.84694 0.29606 0.0
O1545 O 0.18465 0.83323 0.32842 0.0
O1546 O 0.1873 0.86177 0.35041 0.0
O1547 O 0.15819 0.86301 0.33452 0.0
O1548 O 0.19358 0.86217 0.31472 0.0
O1549 O 0.13853 0.81128 0.29816 0.0
O1550 O 0.15923 0.81088 0.37382 0.0
O1551 O 0.14571 0.82362 0.34157 0.0
O1552 O 0.14379 0.79531 0.31932 0.0
O1553 O 0.17232 0.79385 0.33569 0.0
O1554 O 0.13708 0.79447 0.35504 0.0
O1555 O 0.19228 0.84581 0.37182 0.0
C1556 C 0.20264 0.85173 0.32276 0.0
C1557 C 0.0861 0.86835 0.31221 0.0
C1558 C 0.06858 0.84407 0.31474 0.0
C1559 C 0.15443 0.82745 0.28906 0.0
C1560 C 0.14443 0.83108 0.27498 0.0
C1561 C 0.1269 0.8387 0.27521 0.0
C1562 C 0.15258 0.82706 0.26117 0.0
C1563 C 0.14316 0.83051 0.2476 0.0
C1564 C 0.11772 0.84244 0.26187 0.0
C1565 C 0.12576 0.83843 0.24817 0.0
C1566 C 0.17495 0.87225 0.34537 0.0
C1567 C 0.12783 0.80479 0.34705 0.0
C1568 C 0.17568 0.83015 0.38084 0.0
C1569 C 0.18466 0.82613 0.39518 0.0
C1570 C 0.20207 0.81837 0.39555 0.0
C1571 C 0.17522 0.82952 0.40867 0.0
C1572 C 0.18294 0.82497 0.42252 0.0
C1573 C 0.20982 0.81383 0.4092 0.0
C1574 C 0.20032 0.81703 0.4226 0.0
C1575 C 0.15585 0.78471 0.32468 0.0
H1576 H 0.12031 0.84174 0.28567 0.0
H1577 H 0.16589 0.82085 0.26102 0.0
H1578 H 0.1043 0.84847 0.26214 0.0
H1579 H 0.11845 0.84171 0.23801 0.0
H1580 H 0.20964 0.81579 0.38532 0.0
H1581 H 0.16161 0.83535 0.40835 0.0
H1582 H 0.22329 0.80785 0.40941 0.0
H1583 H 0.2069 0.81366 0.43303 0.0
Gd1584 Gd 0.84183 0.68122 0.68532 0.0
Gd1585 Gd 0.82076 0.64371 0.65085 0.0
C1586 C 0.745 0.57531 0.6478 0.0
C1587 C 0.75615 0.54403 0.64576 0.0
C1588 C 0.78819 0.58625 0.64741 0.0
C1589 C 0.77035 0.59294 0.64839 0.0
C1590 C 0.78134 0.56177 0.64575 0.0
C1591 C 0.738 0.5508 0.64681 0.0
C1592 C 0.72749 0.58291 0.64784 0.0
C1593 C 0.73546 0.60754 0.64792 0.0
N1594 N 0.77779 0.61678 0.64922 0.0
C1595 C 0.76083 0.62433 0.64839 0.0
H1596 H 0.76666 0.64328 0.6485 0.0
C1597 C 0.83053 0.5984 0.64463 0.0
N1598 N 0.8123 0.60385 0.64732 0.0
C1599 C 0.8247 0.57437 0.64301 0.0
C1600 C 0.80001 0.55594 0.64375 0.0
H1601 H 0.84966 0.61257 0.64412 0.0
H1602 H 0.71862 0.53698 0.64647 0.0
H1603 H 0.89664 0.68292 0.68693 0.0
H1604 H 0.70783 0.56994 0.64745 0.0
H1605 H 0.72209 0.61363 0.64766 0.0
H1606 H 0.7505 0.5251 0.64464 0.0
H1607 H 0.8122 0.71094 0.69405 0.0
H1608 H 0.95441 0.75666 0.68847 0.0
H1609 H 0.94099 0.71317 0.68763 0.0
H1610 H 0.91024 0.79977 0.69358 0.0
H1611 H 0.83924 0.57009 0.6412 0.0
H1612 H 0.79552 0.53734 0.64244 0.0
H1613 H 0.94274 0.78893 0.69052 0.0
H1614 H 0.82177 0.75288 0.69832 0.0
N1615 N 0.88472 0.70885 0.68681 0.0
C1616 C 0.93483 0.74342 0.68811 0.0
C1617 C 0.92733 0.7189 0.68769 0.0
C1618 C 0.91695 0.75052 0.68863 0.0
C1619 C 0.89172 0.73254 0.68806 0.0
C1620 C 0.90207 0.70177 0.68731 0.0
N1621 N 0.84964 0.72064 0.68994 0.0
C1622 C 0.87356 0.73865 0.68972 0.0
C1623 C 0.83652 0.74915 0.69584 0.0
C1624 C 0.86098 0.76803 0.69494 0.0
C1625 C 0.83117 0.7254 0.69343 0.0
C1626 C 0.87993 0.76288 0.69207 0.0
H1627 H 0.86509 0.7864 0.69683 0.0
O1628 O 0.82241 0.67555 0.70644 0.0
O1629 O 0.81161 0.64882 0.67404 0.0
O1630 O 0.81016 0.67297 0.65111 0.0
O1631 O 0.83669 0.70354 0.66763 0.0
O1632 O 0.80115 0.66914 0.68666 0.0
O1633 O 0.85444 0.67106 0.70527 0.0
O1634 O 0.84072 0.64868 0.63004 0.0
O1635 O 0.85088 0.67637 0.66199 0.0
O1636 O 0.85341 0.65271 0.68447 0.0
O1637 O 0.82519 0.6216 0.66898 0.0
O1638 O 0.8614 0.65578 0.64958 0.0
O1639 O 0.80805 0.65221 0.63025 0.0
C1640 C 0.79306 0.64986 0.67867 0.0
C1641 C 0.90497 0.78102 0.69195 0.0
C1642 C 0.92346 0.77484 0.6902 0.0
C1643 C 0.83751 0.67087 0.71387 0.0
C1644 C 0.84579 0.68255 0.72866 0.0
C1645 C 0.86202 0.70747 0.72971 0.0
C1646 C 0.83755 0.66868 0.74185 0.0
C1647 C 0.8457 0.67968 0.75606 0.0
C1648 C 0.86997 0.7185 0.74368 0.0
C1649 C 0.86194 0.7048 0.75672 0.0
C1650 C 0.82104 0.69555 0.65613 0.0
C1651 C 0.86942 0.67528 0.65735 0.0
C1652 C 0.82547 0.65248 0.62209 0.0
C1653 C 0.81797 0.64006 0.60747 0.0
C1654 C 0.80422 0.61482 0.60679 0.0
C1655 C 0.82477 0.65346 0.59406 0.0
C1656 C 0.81764 0.64163 0.58002 0.0
C1657 C 0.79738 0.60301 0.59299 0.0
C1658 C 0.80399 0.61622 0.57974 0.0
C1659 C 0.84184 0.62989 0.67992 0.0
H1660 H 0.86855 0.71839 0.71974 0.0
H1661 H 0.82518 0.64936 0.74101 0.0
H1662 H 0.88243 0.73778 0.7444 0.0
H1663 H 0.86826 0.714 0.76738 0.0
H1664 H 0.79886 0.60424 0.61691 0.0
H1665 H 0.83521 0.67299 0.59459 0.0
H1666 H 0.78689 0.5835 0.59256 0.0
H1667 H 0.79857 0.60645 0.56922 0.0
Gd1668 Gd 0.31179 0.1572 0.68474 0.0
Gd1669 Gd 0.35157 0.16772 0.65167 0.0
C1670 C 0.41774 0.15556 0.65549 0.0
C1671 C 0.45246 0.19596 0.65162 0.0
C1672 C 0.41023 0.18857 0.65074 0.0
C1673 C 0.40127 0.1645 0.65378 0.0
C1674 C 0.43588 0.20443 0.64908 0.0
C1675 C 0.4434 0.17155 0.65487 0.0
C1676 C 0.40792 0.13072 0.65728 0.0
C1677 C 0.38231 0.11541 0.65672 0.0
N1678 N 0.37637 0.14956 0.65411 0.0
C1679 C 0.36674 0.12514 0.65491 0.0
H1680 H 0.34702 0.11299 0.65462 0.0
C1681 C 0.4013 0.21834 0.64228 0.0
N1682 N 0.39368 0.196 0.6481 0.0
C1683 C 0.42654 0.23482 0.64054 0.0
C1684 C 0.44396 0.22798 0.64424 0.0
H1685 H 0.38783 0.22367 0.63948 0.0
H1686 H 0.45634 0.16507 0.65636 0.0
H1687 H 0.31588 0.2117 0.68195 0.0
H1688 H 0.41993 0.12314 0.65869 0.0
H1689 H 0.37452 0.09611 0.65777 0.0
H1690 H 0.47225 0.20793 0.65061 0.0
H1691 H 0.27591 0.10121 0.697 0.0
H1692 H 0.24275 0.20104 0.67796 0.0
H1693 H 0.28812 0.22832 0.6789 0.0
H1694 H 0.19096 0.11615 0.68596 0.0
H1695 H 0.43254 0.25276 0.63637 0.0
H1696 H 0.4635 0.24072 0.64279 0.0
H1697 H 0.20655 0.15897 0.68025 0.0
H1698 H 0.23128 0.07189 0.70017 0.0
N1699 N 0.28672 0.17505 0.68231 0.0
C1700 C 0.25488 0.19357 0.6793 0.0
C1701 C 0.28046 0.20903 0.67987 0.0
C1702 C 0.24523 0.16874 0.68101 0.0
C1703 C 0.26185 0.15996 0.68264 0.0
C1704 C 0.29618 0.19946 0.68162 0.0
N1705 N 0.26976 0.12867 0.68833 0.0
C1706 C 0.25306 0.13592 0.68568 0.0
C1707 C 0.23712 0.08978 0.69596 0.0
C1708 C 0.21956 0.09642 0.69226 0.0
C1709 C 0.26233 0.10639 0.69419 0.0
C1710 C 0.22746 0.11993 0.68739 0.0
H1711 H 0.20006 0.08359 0.69374 0.0
O1712 O 0.3132 0.14474 0.70711 0.0
O1713 O 0.34567 0.15845 0.67581 0.0
O1714 O 0.31976 0.12894 0.65242 0.0
O1715 O 0.28939 0.12607 0.66903 0.0
O1716 O 0.32408 0.13019 0.68987 0.0
O1717 O 0.31977 0.18096 0.70388 0.0
O1718 O 0.35025 0.18036 0.62933 0.0
O1719 O 0.31772 0.16658 0.66059 0.0
O1720 O 0.34355 0.19603 0.68396 0.0
O1721 O 0.37398 0.19882 0.66741 0.0
O1722 O 0.33964 0.19501 0.64671 0.0
O1723 O 0.3434 0.14403 0.63246 0.0
C1724 C 0.34442 0.14043 0.68239 0.0
C1725 C 0.21073 0.12823 0.68489 0.0
C1726 C 0.2196 0.15262 0.68168 0.0
C1727 C 0.31705 0.16461 0.71354 0.0
C1728 C 0.30173 0.16183 0.72666 0.0
C1729 C 0.2769 0.15571 0.72499 0.0
C1730 C 0.31209 0.16535 0.74106 0.0
C1731 C 0.29772 0.16276 0.7538 0.0
C1732 C 0.26247 0.15286 0.73753 0.0
C1733 C 0.27273 0.1563 0.75184 0.0
C1734 C 0.29716 0.11742 0.65815 0.0
C1735 C 0.31923 0.18481 0.65413 0.0
C1736 C 0.34623 0.16047 0.62285 0.0
C1737 C 0.36151 0.1632 0.6097 0.0
C1738 C 0.38635 0.16937 0.61136 0.0
C1739 C 0.35112 0.15963 0.5953 0.0
C1740 C 0.36549 0.16224 0.58255 0.0
C1741 C 0.40078 0.17224 0.59882 0.0
C1742 C 0.3905 0.16877 0.58451 0.0
C1743 C 0.36619 0.20751 0.67826 0.0
H1744 H 0.26868 0.1532 0.71403 0.0
H1745 H 0.33143 0.17052 0.74228 0.0
H1746 H 0.24326 0.14798 0.73615 0.0
H1747 H 0.26102 0.15375 0.76138 0.0
H1748 H 0.39459 0.17191 0.62232 0.0
H1749 H 0.33177 0.15441 0.59409 0.0
H1750 H 0.42 0.17717 0.60019 0.0
H1751 H 0.40223 0.17138 0.57498 0.0
Gd1752 Gd 0.81889 0.16751 0.65089 0.0
Gd1753 Gd 0.84305 0.15583 0.68569 0.0
C1754 C 0.91991 0.16349 0.68762 0.0
C1755 C 0.9101 0.12224 0.69225 0.0
C1756 C 0.87716 0.13195 0.69016 0.0
C1757 C 0.8944 0.15585 0.68763 0.0
C1758 C 0.88482 0.11498 0.69295 0.0
C1759 C 0.92762 0.14645 0.68954 0.0
C1760 C 0.9369 0.18812 0.68614 0.0
C1761 C 0.92833 0.2045 0.68536 0.0
N1762 N 0.88629 0.17185 0.68607 0.0
C1763 C 0.90285 0.19604 0.68558 0.0
H1764 H 0.89658 0.20896 0.68491 0.0
C1765 C 0.83557 0.10313 0.69553 0.0
N1766 N 0.85295 0.12565 0.69091 0.0
C1767 C 0.84224 0.08564 0.69843 0.0
C1768 C 0.86692 0.09148 0.6969 0.0
H1769 H 0.81645 0.09849 0.69664 0.0
H1770 H 0.94712 0.15194 0.68941 0.0
H1771 H 0.76551 0.11433 0.65172 0.0
H1772 H 0.95665 0.19473 0.68602 0.0
H1773 H 0.94133 0.22364 0.68454 0.0
H1774 H 0.91635 0.10942 0.69419 0.0
H1775 H 0.84502 0.22445 0.63934 0.0
H1776 H 0.70523 0.1283 0.65111 0.0
H1777 H 0.72071 0.09949 0.65232 0.0
H1778 H 0.74517 0.21351 0.64266 0.0
H1779 H 0.82834 0.06767 0.70179 0.0
H1780 H 0.87205 0.07792 0.69917 0.0
H1781 H 0.71458 0.17104 0.64774 0.0
H1782 H 0.8329 0.25508 0.63401 0.0
N1783 N 0.77563 0.1514 0.65077 0.0
C1784 C 0.72499 0.13497 0.65091 0.0
C1785 C 0.73365 0.11865 0.65154 0.0
C1786 C 0.7419 0.15962 0.64943 0.0
C1787 C 0.76742 0.16734 0.64931 0.0
C1788 C 0.75915 0.12719 0.65119 0.0
N1789 N 0.80875 0.1975 0.64563 0.0
C1790 C 0.78457 0.19121 0.64662 0.0
C1791 C 0.81914 0.23723 0.63765 0.0
C1792 C 0.79452 0.23144 0.63947 0.0
C1793 C 0.82594 0.21986 0.64065 0.0
C1794 C 0.77679 0.20806 0.64375 0.0
H1795 H 0.78929 0.2449 0.63711 0.0
O1796 O 0.83631 0.17942 0.62916 0.0
O1797 O 0.85034 0.16628 0.66179 0.0
O1798 O 0.85285 0.19506 0.68376 0.0
O1799 O 0.82479 0.19693 0.66719 0.0
O1800 O 0.8594 0.195 0.64784 0.0
O1801 O 0.80446 0.14377 0.63152 0.0
O1802 O 0.82489 0.14384 0.70721 0.0
O1803 O 0.81153 0.15714 0.67484 0.0
O1804 O 0.80942 0.12829 0.65282 0.0
O1805 O 0.83796 0.12701 0.66923 0.0
O1806 O 0.80265 0.128 0.6884 0.0
O1807 O 0.85745 0.17911 0.70527 0.0
C1808 C 0.86838 0.18467 0.65606 0.0
C1809 C 0.75151 0.20077 0.64464 0.0
C1810 C 0.73409 0.17659 0.64753 0.0
C1811 C 0.82028 0.15974 0.6223 0.0
C1812 C 0.81014 0.16295 0.60815 0.0
C1813 C 0.79244 0.17036 0.60826 0.0
C1814 C 0.81821 0.15863 0.59438 0.0
C1815 C 0.80848 0.16155 0.58077 0.0
C1816 C 0.78301 0.17361 0.59488 0.0
C1817 C 0.79093 0.16929 0.58124 0.0
C1818 C 0.84121 0.20596 0.67823 0.0
C1819 C 0.79357 0.13846 0.68039 0.0
C1820 C 0.84106 0.1632 0.71428 0.0
C1821 C 0.85038 0.15932 0.72855 0.0
C1822 C 0.86757 0.15129 0.72866 0.0
C1823 C 0.84184 0.16342 0.7422 0.0
C1824 C 0.85053 0.1596 0.75594 0.0
C1825 C 0.87601 0.14716 0.74217 0.0
C1826 C 0.86757 0.15122 0.7557 0.0
C1827 C 0.82146 0.11772 0.65825 0.0
H1828 H 0.78589 0.17359 0.61868 0.0
H1829 H 0.83164 0.15258 0.59431 0.0
H1830 H 0.76945 0.17948 0.59507 0.0
H1831 H 0.7834 0.17215 0.57103 0.0
H1832 H 0.87447 0.14819 0.71833 0.0
H1833 H 0.8288 0.16996 0.74209 0.0
H1834 H 0.88916 0.14079 0.74215 0.0
H1835 H 0.8743 0.14761 0.766 0.0
H1836 H 0.32141 0.90495 0.05775 0.0
H1837 H 0.44542 0.93382 0.01541 0.0
H1838 H 0.33838 0.84913 0.04678 0.0
H1839 H 0.41637 0.98238 0.01717 0.0
H1840 H 0.40636 0.90183 0.02593 0.0
H1841 H 0.35655 0.93335 0.04276 0.0
C1842 C 0.33262 0.8987 0.05221 0.0
C1843 C 0.32706 0.87468 0.05363 0.0
C1844 C 0.40839 0.91937 0.02376 0.0
C1845 C 0.36743 0.90716 0.0363 0.0
C1846 C 0.43059 0.93754 0.01764 0.0
C1847 C 0.43399 0.9607 0.01533 0.0
C1848 C 0.38981 0.92464 0.02786 0.0
C1849 C 0.41443 0.96474 0.01876 0.0
C1850 C 0.35258 0.91487 0.04353 0.0
C1851 C 0.34199 0.86748 0.04596 0.0
N1852 N 0.39334 0.94702 0.02498 0.0
N1853 N 0.36165 0.88371 0.03775 0.0
H1854 H 0.09942 0.41979 0.05731 0.0
H1855 H 0.05966 0.50746 0.01767 0.0
H1856 H 0.15272 0.4899 0.0405 0.0
H1857 H 0.00941 0.4317 0.02467 0.0
H1858 H 0.09388 0.50229 0.02674 0.0
H1859 H 0.06609 0.42475 0.04658 0.0
C1860 C 0.10414 0.4363 0.05142 0.0
C1861 C 0.129 0.45447 0.04987 0.0
C1862 C 0.07542 0.48674 0.02616 0.0
C1863 C 0.09073 0.46027 0.03745 0.0
C1864 C 0.05589 0.48965 0.02085 0.0
C1865 C 0.03173 0.46982 0.01998 0.0
C1866 C 0.07068 0.46394 0.03104 0.0
C1867 C 0.02781 0.44737 0.0249 0.0
C1868 C 0.08507 0.43905 0.04519 0.0
C1869 C 0.13389 0.47532 0.04189 0.0
N1870 N 0.04701 0.44504 0.03022 0.0
N1871 N 0.11497 0.4777 0.03608 0.0
H1872 H 0.53993 0.68502 0.02746 0.0
H1873 H 0.53683 0.56117 0.03674 0.0
H1874 H 0.53802 0.65591 0.07135 0.0
H1875 H 0.49177 0.56972 0.00325 0.0
H1876 H 0.54594 0.59978 0.04779 0.0
H1877 H 0.53044 0.64635 0.01648 0.0
C1878 C 0.5374 0.67061 0.03486 0.0
C1879 C 0.5397 0.67397 0.05046 0.0
C1880 C 0.53418 0.59316 0.03796 0.0
C1881 C 0.52982 0.62995 0.03775 0.0
C1882 C 0.52901 0.57118 0.03159 0.0
C1883 C 0.51376 0.56224 0.01884 0.0
C1884 C 0.5245 0.60654 0.03137 0.0
C1885 C 0.50403 0.57604 0.01281 0.0
C1886 C 0.53215 0.6486 0.02851 0.0
C1887 C 0.53695 0.65459 0.05929 0.0
N1888 N 0.50976 0.59764 0.01903 0.0
N1889 N 0.53234 0.6335 0.0528 0.0
H1890 H 0.85137 0.30058 0.97685 0.0
H1891 H 0.95956 0.43584 0.9627 0.0
H1892 H 0.86672 0.33384 0.93329 0.0
H1893 H 0.92696 0.40985 0.00592 0.0
H1894 H 0.92932 0.3969 0.95171 0.0
H1895 H 0.8823 0.33908 0.98769 0.0
C1896 C 0.86107 0.31594 0.96954 0.0
C1897 C 0.85618 0.31382 0.95409 0.0
C1898 C 0.92874 0.39978 0.9636 0.0
C1899 C 0.89218 0.35795 0.96649 0.0
C1900 C 0.94606 0.42192 0.96989 0.0
C1901 C 0.94552 0.4262 0.98525 0.0
C1902 C 0.91102 0.38163 0.97278 0.0
C1903 C 0.92762 0.40758 0.99402 0.0
C1904 C 0.87887 0.33791 0.97576 0.0
C1905 C 0.86998 0.33437 0.94521 0.0
N1906 N 0.91113 0.38607 0.98769 0.0
N1907 N 0.88734 0.35552 0.95153 0.0
H1908 H 0.67672 0.56924 0.94754 0.0
H1909 H 0.54838 0.48218 0.98842 0.0
H1910 H 0.65842 0.49888 0.96383 0.0
H1911 H 0.5763 0.55803 0.98137 0.0
H1912 H 0.58774 0.48709 0.97924 0.0
H1913 H 0.63901 0.56452 0.95902 0.0
C1914 C 0.66472 0.55272 0.95346 0.0
C1915 C 0.67084 0.53442 0.95464 0.0
C1916 C 0.58537 0.50271 0.97986 0.0
C1917 C 0.6274 0.5289 0.96797 0.0
C1918 C 0.56296 0.49995 0.98523 0.0
C1919 C 0.55924 0.51985 0.98598 0.0
C1920 C 0.60396 0.52542 0.97482 0.0
C1921 C 0.57849 0.54227 0.98116 0.0
C1922 C 0.64323 0.55011 0.96014 0.0
C1923 C 0.65462 0.51357 0.9627 0.0
N1924 N 0.59988 0.54442 0.97574 0.0
N1925 N 0.63363 0.51131 0.96896 0.0
H1926 H 0.44474 0.13377 0.96593 0.0
H1927 H 0.45989 0.01862 0.96319 0.0
H1928 H 0.44971 0.10262 0.92402 0.0
H1929 H 0.49667 0.07319 0.9973 0.0
H1930 H 0.44919 0.04553 0.95009 0.0
H1931 H 0.45729 0.10818 0.97904 0.0
C1932 C 0.44862 0.12178 0.9594 0.0
C1933 C 0.44621 0.12061 0.94372 0.0
C1934 C 0.45955 0.05154 0.96047 0.0
C1935 C 0.45976 0.09063 0.95889 0.0
C1936 C 0.46561 0.03617 0.96804 0.0
C1937 C 0.47899 0.04347 0.98156 0.0
C1938 C 0.46646 0.07424 0.96657 0.0
C1939 C 0.48602 0.06659 0.98711 0.0
C1940 C 0.45566 0.10708 0.96697 0.0
C1941 C 0.45082 0.104 0.93608 0.0
N1942 N 0.47945 0.0811 0.97967 0.0
N1943 N 0.45718 0.08957 0.94374 0.0
H1944 H 0.68719 0.116 0.96662 0.0
H1945 H 0.57969 0.01115 0.98909 0.0
H1946 H 0.63587 0.11672 0.9345 0.0
H1947 H 0.54464 0.05402 0.98312 0.0
H1948 H 0.61807 0.04414 0.97874 0.0
H1949 H 0.65201 0.08723 0.98182 0.0
C1950 C 0.6685 0.11018 0.96283 0.0
C1951 C 0.66434 0.11847 0.94923 0.0
C1952 C 0.60215 0.04653 0.98001 0.0
C1953 C 0.62424 0.08601 0.96659 0.0
C1954 C 0.58031 0.02776 0.98589 0.0
C1955 C 0.55921 0.0301 0.98719 0.0
C1956 C 0.60258 0.06742 0.97485 0.0
C1957 C 0.5607 0.05175 0.98257 0.0
C1958 C 0.64852 0.09378 0.97147 0.0
C1959 C 0.63979 0.11046 0.94483 0.0
N1960 N 0.58192 0.06944 0.9763 0.0
N1961 N 0.62061 0.09474 0.95353 0.0
H1962 H 0.90314 0.57516 0.94364 0.0
H1963 H 0.93547 0.48312 0.98466 0.0
H1964 H 0.8464 0.50378 0.9564 0.0
H1965 H 0.98723 0.55887 0.97897 0.0
H1966 H 0.9023 0.48943 0.97462 0.0
H1967 H 0.93389 0.56884 0.95659 0.0
C1968 C 0.89713 0.55811 0.94919 0.0
C1969 C 0.87214 0.53991 0.9488 0.0
C1970 C 0.92086 0.5047 0.97571 0.0
C1971 C 0.90751 0.53242 0.96376 0.0
C1972 C 0.93975 0.50112 0.98152 0.0
C1973 C 0.96403 0.52062 0.98293 0.0
C1974 C 0.92644 0.52785 0.97099 0.0
C1975 C 0.96872 0.54341 0.97823 0.0
C1976 C 0.91472 0.55452 0.95667 0.0
C1977 C 0.86545 0.51832 0.95644 0.0
N1978 N 0.95019 0.54637 0.97248 0.0
N1979 N 0.88306 0.51507 0.96347 0.0
H1980 H 0.49237 0.32485 0.96142 0.0
H1981 H 0.44726 0.42067 0.9743 0.0
H1982 H 0.42221 0.31453 0.94555 0.0
H1983 H 0.51316 0.42684 0.9946 0.0
H1984 H 0.43837 0.38233 0.96309 0.0
H1985 H 0.50082 0.36274 0.97314 0.0
C1986 C 0.47866 0.33046 0.96046 0.0
C1987 C 0.45651 0.3164 0.95249 0.0
C1988 C 0.45472 0.39202 0.97005 0.0
C1989 C 0.46624 0.36001 0.96575 0.0
C1990 C 0.45984 0.41395 0.97645 0.0
C1991 C 0.48094 0.42698 0.98548 0.0
C1992 C 0.4709 0.38307 0.9726 0.0
C1993 C 0.49655 0.41733 0.98785 0.0
C1994 C 0.48356 0.35218 0.9671 0.0
C1995 C 0.43968 0.32489 0.9514 0.0
N1996 N 0.49124 0.396 0.98142 0.0
N1997 N 0.44489 0.34612 0.95795 0.0
H1998 H 0.10811 0.67666 0.05843 0.0
H1999 H 0.08324 0.56118 0.00988 0.0
H2000 H 0.16613 0.66653 0.03985 0.0
H2001 H 0.02485 0.57033 0.02889 0.0
H2002 H 0.11373 0.59999 0.02048 0.0
H2003 H 0.07733 0.63794 0.04765 0.0
C2004 C 0.11441 0.66625 0.05216 0.0
C2005 C 0.13982 0.67492 0.05008 0.0
C2006 C 0.09426 0.59357 0.02231 0.0
C2007 C 0.10456 0.6306 0.03754 0.0
C2008 C 0.07677 0.57141 0.01617 0.0
C2009 C 0.05135 0.56252 0.01833 0.0
C2010 C 0.08637 0.607 0.03076 0.0
C2011 C 0.04421 0.57645 0.02688 0.0
C2012 C 0.09679 0.64419 0.04593 0.0
C2013 C 0.14679 0.66077 0.04161 0.0
N2014 N 0.06162 0.59799 0.03277 0.0
N2015 N 0.12929 0.63935 0.03567 0.0
H2016 H 0.31962 0.41341 0.05784 0.0
H2017 H 0.44528 0.50568 0.01641 0.0
H2018 H 0.33562 0.48486 0.04556 0.0
H2019 H 0.41935 0.42988 0.02193 0.0
H2020 H 0.40543 0.49918 0.0261 0.0
H2021 H 0.35618 0.4197 0.04424 0.0
C2022 C 0.33086 0.43047 0.05226 0.0
C2023 C 0.3246 0.4487 0.05298 0.0
C2024 C 0.40836 0.48393 0.025 0.0
C2025 C 0.3669 0.45616 0.03726 0.0
C2026 C 0.43104 0.48762 0.01938 0.0
C2027 C 0.43551 0.46821 0.01821 0.0
C2028 C 0.39028 0.46077 0.02974 0.0
C2029 C 0.41664 0.44531 0.02257 0.0
C2030 C 0.35174 0.43404 0.0444 0.0
C2031 C 0.33972 0.4703 0.04528 0.0
N2032 N 0.39504 0.44228 0.02819 0.0
N2033 N 0.36031 0.47355 0.03788 0.0
H2034 H 0.50863 0.83821 0.0511 0.0
H2035 H 0.54641 0.97447 0.03263 0.0
H2036 H 0.57623 0.90028 0.06656 0.0
H2037 H 0.48502 0.91308 0.01114 0.0
H2038 H 0.5566 0.9473 0.04575 0.0
H2039 H 0.49878 0.86502 0.03698 0.0
C2040 C 0.52149 0.85745 0.05149 0.0
C2041 C 0.54333 0.86695 0.06008 0.0
C2042 C 0.54096 0.93973 0.03812 0.0
C2043 C 0.53194 0.89779 0.04405 0.0
C2044 C 0.53507 0.95526 0.03061 0.0
C2045 C 0.5148 0.94609 0.02072 0.0
C2046 C 0.5264 0.91473 0.03587 0.0
C2047 C 0.50089 0.92099 0.01858 0.0
C2048 C 0.51577 0.87275 0.04346 0.0
C2049 C 0.55901 0.8921 0.06032 0.0
N2050 N 0.50688 0.90616 0.02615 0.0
N2051 N 0.55299 0.9066 0.05245 0.0
H2052 H 0.00597 0.18182 0.38021 0.0
H2053 H 0.08551 0.31839 0.35198 0.0
H2054 H 0.9909 0.23867 0.39192 0.0
H2055 H 0.11288 0.26851 0.34988 0.0
H2056 H 0.04675 0.28661 0.36244 0.0
H2057 H 0.04157 0.21084 0.36542 0.0
C2058 C 0.01006 0.20036 0.37961 0.0
C2059 C 0.99553 0.20787 0.38743 0.0
C2060 C 0.06107 0.28246 0.35954 0.0
C2061 C 0.03608 0.24106 0.37046 0.0
C2062 C 0.08312 0.30055 0.35348 0.0
C2063 C 0.10233 0.29603 0.34999 0.0
C2064 C 0.05818 0.2596 0.36229 0.0
C2065 C 0.0984 0.27266 0.35225 0.0
C2066 C 0.03041 0.2169 0.3712 0.0
C2067 C 0.00177 0.23214 0.38629 0.0
N2068 N 0.07678 0.2553 0.35836 0.0
N2069 N 0.0215 0.2478 0.37798 0.0
H2070 H 0.76679 0.75245 0.38999 0.0
H2071 H 0.72632 0.8405 0.35152 0.0
H2072 H 0.81974 0.82293 0.3735 0.0
H2073 H 0.67599 0.76493 0.35912 0.0
H2074 H 0.7607 0.83524 0.36018 0.0
H2075 H 0.73326 0.7575 0.37973 0.0
C2076 C 0.7714 0.76905 0.38427 0.0
C2077 C 0.79622 0.78732 0.38269 0.0
C2078 C 0.74218 0.81975 0.35984 0.0
C2079 C 0.75769 0.79322 0.3708 0.0
C2080 C 0.72255 0.82271 0.35478 0.0
C2081 C 0.69832 0.80296 0.35419 0.0
C2082 C 0.73749 0.79697 0.36472 0.0
C2083 C 0.69444 0.78054 0.35916 0.0
C2084 C 0.75221 0.77186 0.37831 0.0
C2085 C 0.80095 0.80828 0.37491 0.0
N2086 N 0.71374 0.77816 0.3642 0.0
N2087 N 0.78191 0.81071 0.36936 0.0
H2088 H 0.20091 0.01602 0.36264 0.0
H2089 H 0.2053 0.89548 0.36932 0.0
H2090 H 0.20511 0.98807 0.40586 0.0
H2091 H 0.1563 0.90171 0.3377 0.0
H2092 H 0.21337 0.93341 0.3809 0.0
H2093 H 0.19215 0.97786 0.35124 0.0
C2094 C 0.19983 0.00194 0.36981 0.0
C2095 C 0.20365 0.00548 0.38535 0.0
C2096 C 0.20097 0.92644 0.37136 0.0
C2097 C 0.1946 0.96206 0.37212 0.0
C2098 C 0.19639 0.90484 0.36468 0.0
C2099 C 0.18035 0.89547 0.35229 0.0
C2100 C 0.18987 0.93901 0.36544 0.0
C2101 C 0.16923 0.90843 0.34694 0.0
C2102 C 0.195 0.98022 0.36322 0.0
C2103 C 0.20278 0.98658 0.39384 0.0
N2104 N 0.17438 0.92968 0.35344 0.0
N2105 N 0.19853 0.96577 0.3871 0.0
H2106 H 0.55469 0.64633 0.27874 0.0
H2107 H 0.5789 0.76164 0.3273 0.0
H2108 H 0.49645 0.65592 0.29752 0.0
H2109 H 0.6376 0.7525 0.30877 0.0
H2110 H 0.54858 0.72279 0.31667 0.0
H2111 H 0.58534 0.68507 0.28958 0.0
C2112 C 0.54831 0.65662 0.28507 0.0
C2113 C 0.52288 0.64778 0.28719 0.0
C2114 C 0.56809 0.72921 0.31495 0.0
C2115 C 0.55799 0.69215 0.2998 0.0
C2116 C 0.58548 0.7514 0.32111 0.0
C2117 C 0.61093 0.76032 0.3191 0.0
C2118 C 0.5761 0.71577 0.30661 0.0
C2119 C 0.6182 0.74637 0.31067 0.0
C2120 C 0.56586 0.6787 0.29134 0.0
C2121 C 0.51581 0.6618 0.29573 0.0
N2122 N 0.60088 0.7248 0.30475 0.0
N2123 N 0.53324 0.68324 0.30169 0.0
H2124 H 0.32679 0.83198 0.29757 0.0
H2125 H 0.24374 0.89287 0.31453 0.0
H2126 H 0.34327 0.90165 0.28098 0.0
H2127 H 0.217 0.81717 0.32134 0.0
H2128 H 0.28278 0.89761 0.3052 0.0
H2129 H 0.28896 0.82739 0.30906 0.0
C2130 C 0.32254 0.84637 0.29638 0.0
C2131 C 0.33832 0.86724 0.28821 0.0
C2132 C 0.26851 0.87998 0.30885 0.0
C2133 C 0.29494 0.86207 0.30142 0.0
C2134 C 0.24625 0.87729 0.31425 0.0
C2135 C 0.22721 0.85468 0.31894 0.0
C2136 C 0.27187 0.85987 0.30801 0.0
C2137 C 0.23135 0.83502 0.31814 0.0
C2138 C 0.30086 0.84366 0.3029 0.0
C2139 C 0.33161 0.88513 0.28697 0.0
N2140 N 0.25322 0.83807 0.31279 0.0
N2141 N 0.31057 0.88217 0.29352 0.0
H2142 H 0.12091 0.47294 0.29837 0.0
H2143 H 0.12889 0.35396 0.29778 0.0
H2144 H 0.12259 0.43835 0.25713 0.0
H2145 H 0.16911 0.4094 0.33092 0.0
H2146 H 0.11999 0.3817 0.28427 0.0
H2147 H 0.13275 0.44718 0.31197 0.0
C2148 C 0.12396 0.46019 0.29209 0.0
C2149 C 0.1207 0.45801 0.27645 0.0
C2150 C 0.13074 0.38776 0.29452 0.0
C2151 C 0.13343 0.42788 0.2922 0.0
C2152 C 0.1358 0.3719 0.30233 0.0
C2153 C 0.14965 0.37919 0.31568 0.0
C2154 C 0.13912 0.411 0.30019 0.0
C2155 C 0.15809 0.40282 0.32084 0.0
C2156 C 0.13059 0.4454 0.29994 0.0
C2157 C 0.12431 0.44051 0.26915 0.0
N2158 N 0.15249 0.41785 0.31316 0.0
N2159 N 0.13024 0.42601 0.27709 0.0
H2160 H 0.34044 0.41741 0.27865 0.0
H2161 H 0.21715 0.38946 0.32175 0.0
H2162 H 0.32444 0.47362 0.2904 0.0
H2163 H 0.24456 0.33968 0.31864 0.0
H2164 H 0.2563 0.42117 0.31116 0.0
H2165 H 0.305 0.3889 0.2934 0.0
C2166 C 0.3294 0.42374 0.28431 0.0
C2167 C 0.33533 0.4479 0.28318 0.0
C2168 C 0.25388 0.40341 0.31302 0.0
C2169 C 0.29458 0.41527 0.30023 0.0
C2170 C 0.23162 0.38538 0.31918 0.0
C2171 C 0.22774 0.36198 0.32117 0.0
C2172 C 0.27205 0.39778 0.30856 0.0
C2173 C 0.24687 0.35751 0.31731 0.0
C2174 C 0.30925 0.40748 0.29285 0.0
C2175 C 0.32057 0.45516 0.291 0.0
N2176 N 0.26803 0.37512 0.31108 0.0
N2177 N 0.30073 0.43887 0.29907 0.0
H2178 H 0.57181 0.91009 0.27744 0.0
H2179 H 0.60247 0.81716 0.31865 0.0
H2180 H 0.5145 0.83901 0.29028 0.0
H2181 H 0.6549 0.89285 0.31348 0.0
H2182 H 0.5697 0.82402 0.30865 0.0
H2183 H 0.60222 0.90351 0.29064 0.0
C2184 C 0.5656 0.89305 0.28305 0.0
C2185 C 0.54054 0.87501 0.28262 0.0
C2186 C 0.58831 0.83918 0.30987 0.0
C2187 C 0.57551 0.86724 0.29786 0.0
C2188 C 0.60698 0.83528 0.31568 0.0
C2189 C 0.63135 0.85459 0.3172 0.0
C2190 C 0.59419 0.86244 0.30523 0.0
C2191 C 0.63631 0.87754 0.31267 0.0
C2192 C 0.583 0.88933 0.29067 0.0
C2193 C 0.5336 0.85344 0.29034 0.0
N2194 N 0.61799 0.8808 0.30687 0.0
N2195 N 0.55101 0.85005 0.29751 0.0
H2196 H 0.12484 0.66873 0.263 0.0
H2197 H 0.17394 0.75512 0.33306 0.0
H2198 H 0.12853 0.64168 0.30664 0.0
H2199 H 0.12651 0.76157 0.30033 0.0
H2200 H 0.16472 0.71674 0.3217 0.0
H2201 H 0.13238 0.7063 0.27475 0.0
C2202 C 0.12702 0.67045 0.27503 0.0
C2203 C 0.12592 0.6517 0.28378 0.0
C2204 C 0.15625 0.72656 0.31711 0.0
C2205 C 0.13552 0.69521 0.29714 0.0
C2206 C 0.16137 0.74841 0.32363 0.0
C2207 C 0.15057 0.76144 0.3179 0.0
C2208 C 0.14085 0.71802 0.30447 0.0
C2209 C 0.13508 0.75211 0.30527 0.0
C2210 C 0.1315 0.69204 0.28168 0.0
C2211 C 0.12969 0.65562 0.2993 0.0
N2212 N 0.13083 0.73104 0.2989 0.0
N2213 N 0.13451 0.67698 0.30546 0.0
H2214 H 0.835 0.00019 0.37276 0.0
H2215 H 0.69075 0.90309 0.36298 0.0
H2216 H 0.77641 0.00906 0.3917 0.0
H2217 H 0.74962 0.8952 0.34347 0.0
H2218 H 0.72174 0.94187 0.37361 0.0
H2219 H 0.80389 0.9618 0.36183 0.0
C2220 C 0.81559 0.99416 0.37456 0.0
C2221 C 0.80837 0.00798 0.38317 0.0
C2222 C 0.72786 0.93169 0.36696 0.0
C2223 C 0.77255 0.96374 0.37079 0.0
C2224 C 0.71016 0.9095 0.36088 0.0
C2225 C 0.71752 0.89587 0.3522 0.0
C2226 C 0.75315 0.94032 0.3644 0.0
C2227 C 0.74299 0.90516 0.3499 0.0
C2228 C 0.79782 0.97213 0.36838 0.0
C2229 C 0.78291 -0.00107 0.38532 0.0
N2230 N 0.75984 0.92675 0.35597 0.0
N2231 N 0.76595 0.97744 0.37917 0.0
H2232 H 0.0026 0.81907 0.37821 0.0
H2233 H 0.0871 0.76262 0.35383 0.0
H2234 H 0.9895 0.74881 0.39121 0.0
H2235 H 0.11233 0.8385 0.34974 0.0
H2236 H 0.04783 0.7562 0.36376 0.0
H2237 H 0.03949 0.82547 0.36433 0.0
C2238 C 0.00734 0.80492 0.37806 0.0
C2239 C 0.99299 0.78344 0.38604 0.0
C2240 C 0.06178 0.77425 0.36057 0.0
C2241 C 0.03509 0.79061 0.37011 0.0
C2242 C 0.08418 0.7779 0.35482 0.0
C2243 C 0.10294 0.80106 0.35081 0.0
C2244 C 0.05796 0.79395 0.36253 0.0
C2245 C 0.09823 0.82027 0.35247 0.0
C2246 C 0.02845 0.80865 0.37019 0.0
C2247 C 0.00014 0.76581 0.38546 0.0
N2248 N 0.07623 0.81631 0.35826 0.0
N2249 N 0.02055 0.76978 0.37768 0.0
H2250 H 0.2089 0.18442 0.37214 0.0
H2251 H 0.20143 0.30368 0.37333 0.0
H2252 H 0.20751 0.21869 0.41358 0.0
H2253 H 0.1607 0.24834 0.34023 0.0
H2254 H 0.21036 0.27579 0.38668 0.0
H2255 H 0.19719 0.21043 0.35874 0.0
C2256 C 0.20594 0.19715 0.37851 0.0
C2257 C 0.20923 0.19915 0.39414 0.0
C2258 C 0.1995 0.2698 0.37647 0.0
C2259 C 0.19667 0.22959 0.37863 0.0
C2260 C 0.19443 0.28573 0.36876 0.0
C2261 C 0.18042 0.2785 0.35547 0.0
C2262 C 0.19099 0.24656 0.37075 0.0
C2263 C 0.17185 0.25487 0.35026 0.0
C2264 C 0.19939 0.21209 0.37078 0.0
C2265 C 0.20576 0.21666 0.40156 0.0
N2266 N 0.17747 0.23978 0.35784 0.0
N2267 N 0.1999 0.2313 0.39373 0.0
H2268 H 0.65494 0.57313 0.72356 0.0
H2269 H 0.77939 0.60185 0.68182 0.0
H2270 H 0.67213 0.5174 0.71276 0.0
H2271 H 0.75112 0.65103 0.6839 0.0
H2272 H 0.74007 0.56993 0.69205 0.0
H2273 H 0.69025 0.60161 0.70871 0.0
C2274 C 0.66622 0.56691 0.71808 0.0
C2275 C 0.66069 0.54291 0.71951 0.0
C2276 C 0.74232 0.5876 0.69002 0.0
C2277 C 0.70128 0.57548 0.70237 0.0
C2278 C 0.76468 0.60574 0.68407 0.0
C2279 C 0.76837 0.62903 0.6819 0.0
C2280 C 0.72385 0.59301 0.69412 0.0
C2281 C 0.74895 0.63327 0.68536 0.0
C2282 C 0.68629 0.58313 0.70949 0.0
C2283 C 0.67572 0.53575 0.71193 0.0
N2284 N 0.72768 0.61556 0.69142 0.0
N2285 N 0.69548 0.55202 0.70381 0.0
H2286 H 0.48949 0.16157 0.70762 0.0
H2287 H 0.34351 0.09984 0.69194 0.0
H2288 H 0.4355 0.09253 0.72545 0.0
H2289 H 0.39369 0.17565 0.68508 0.0
H2290 H 0.37792 0.09571 0.70176 0.0
H2291 H 0.45568 0.1659 0.69676 0.0
C2292 C 0.47056 0.14728 0.70923 0.0
C2293 C 0.46541 0.12666 0.71754 0.0
C2294 C 0.3815 0.11325 0.69802 0.0
C2295 C 0.42657 0.13155 0.70511 0.0
C2296 C 0.36187 0.11558 0.69237 0.0
C2297 C 0.36585 0.13798 0.68733 0.0
C2298 C 0.40541 0.13351 0.69879 0.0
C2299 C 0.38993 0.15791 0.68845 0.0
C2300 C 0.45127 0.14985 0.70309 0.0
C2301 C 0.44043 0.10887 0.71933 0.0
N2302 N 0.40883 0.15519 0.69397 0.0
N2303 N 0.42204 0.11169 0.71314 0.0
H2304 H 0.87527 0.35297 0.69345 0.0
H2305 H 0.86926 0.22785 0.7032 0.0
H2306 H 0.8719 0.32342 0.73738 0.0
H2307 H 0.8262 0.23766 0.66892 0.0
H2308 H 0.87861 0.2665 0.71422 0.0
H2309 H 0.86525 0.31414 0.68247 0.0
C2310 C 0.8723 0.33843 0.70085 0.0
C2311 C 0.87436 0.34171 0.71647 0.0
C2312 C 0.86724 0.26016 0.70422 0.0
C2313 C 0.86382 0.29747 0.70377 0.0
C2314 C 0.86193 0.23814 0.69786 0.0
C2315 C 0.84719 0.22954 0.68489 0.0
C2316 C 0.85823 0.27395 0.69741 0.0
C2317 C 0.83806 0.24371 0.67865 0.0
C2318 C 0.86674 0.31631 0.69451 0.0
C2319 C 0.87103 0.32214 0.72531 0.0
N2320 N 0.84395 0.26536 0.68487 0.0
N2321 N 0.86611 0.30095 0.71884 0.0
H2322 H 0.18531 0.96823 0.64296 0.0
H2323 H 0.29339 0.10364 0.62894 0.0
H2324 H 0.20132 0.00128 0.59933 0.0
H2325 H 0.26095 0.07721 0.67214 0.0
H2326 H 0.26329 0.06472 0.61786 0.0
H2327 H 0.21612 0.00673 0.65383 0.0
C2328 C 0.19513 0.98356 0.63564 0.0
C2329 C 0.19045 0.98138 0.62016 0.0
C2330 C 0.26271 0.0675 0.62977 0.0
C2331 C 0.22632 0.02554 0.63259 0.0
C2332 C 0.27995 0.08963 0.63611 0.0
C2333 C 0.27941 0.09378 0.65148 0.0
C2334 C 0.24507 0.04923 0.63892 0.0
C2335 C 0.26159 0.07504 0.66023 0.0
C2336 C 0.21286 0.00553 0.64187 0.0
C2337 C 0.2044 0.00187 0.61127 0.0
N2338 N 0.24519 0.05356 0.65385 0.0
N2339 N 0.22169 0.02305 0.61761 0.0
H2340 H 0.99238 0.16442 0.63132 0.0
H2341 H 0.9097 0.22581 0.6481 0.0
H2342 H 0.00972 0.23465 0.61532 0.0
H2343 H 0.88262 0.15003 0.6548 0.0
H2344 H 0.94888 0.23051 0.63908 0.0
H2345 H 0.95455 0.15994 0.64276 0.0
C2346 C 0.98834 0.17896 0.63026 0.0
C2347 C 0.00433 0.19994 0.62225 0.0
C2348 C 0.9345 0.21287 0.64265 0.0
C2349 C 0.96094 0.19489 0.63538 0.0
C2350 C 0.91217 0.2102 0.64787 0.0
C2351 C 0.893 0.18759 0.65244 0.0
C2352 C 0.93781 0.19272 0.64184 0.0
C2353 C 0.89707 0.16789 0.65169 0.0
C2354 C 0.96665 0.17632 0.63674 0.0
C2355 C 0.99788 0.21803 0.62117 0.0
N2356 N 0.91903 0.17091 0.6465 0.0
N2357 N 0.97682 0.21511 0.62767 0.0
H2358 H 0.78238 0.7689 0.58964 0.0
H2359 H 0.83419 0.74229 0.66383 0.0
H2360 H 0.78234 0.8025 0.63166 0.0
H2361 H 0.79424 0.68744 0.63033 0.0
H2362 H 0.82277 0.76898 0.65076 0.0
H2363 H 0.7941 0.74294 0.60304 0.0
C2364 C 0.78464 0.77082 0.60166 0.0
C2365 C 0.78114 0.78801 0.60945 0.0
C2366 C 0.81649 0.75103 0.64637 0.0
C2367 C 0.79549 0.75874 0.62477 0.0
C2368 C 0.82291 0.73574 0.65385 0.0
C2369 C 0.81483 0.71235 0.64839 0.0
C2370 C 0.80251 0.74311 0.63311 0.0
C2371 C 0.80076 0.70518 0.6351 0.0
C2372 C 0.79153 0.75606 0.60927 0.0
C2373 C 0.78519 0.78993 0.62503 0.0
N2374 N 0.7952 0.72052 0.62789 0.0
N2375 N 0.79226 0.77557 0.63215 0.0
H2376 H 0.99042 0.80982 0.62346 0.0
H2377 H 0.91128 0.67385 0.65268 0.0
H2378 H 0.00572 0.75283 0.61263 0.0
H2379 H 0.88329 0.7233 0.65379 0.0
H2380 H 0.95019 0.70571 0.64245 0.0
H2381 H 0.95488 0.78113 0.63845 0.0
C2382 C 0.98639 0.79133 0.62431 0.0
C2383 C 0.00093 0.78364 0.61667 0.0
C2384 C 0.9357 0.70976 0.64509 0.0
C2385 C 0.96053 0.75088 0.63386 0.0
C2386 C 0.91357 0.69162 0.65101 0.0
C2387 C 0.89414 0.696 0.65411 0.0
C2388 C 0.93844 0.73248 0.64206 0.0
C2389 C 0.89794 0.71928 0.65168 0.0
C2390 C 0.96609 0.77498 0.63282 0.0
C2391 C 0.99482 0.75946 0.61812 0.0
N2392 N 0.91964 0.73667 0.64567 0.0
N2393 N 0.97514 0.744 0.62652 0.0
H2394 H 0.23694 0.24133 0.60907 0.0
H2395 H 0.2697 0.15024 0.65097 0.0
H2396 H 0.18027 0.17036 0.62259 0.0
H2397 H 0.32116 0.22604 0.64516 0.0
H2398 H 0.23647 0.15625 0.64068 0.0
H2399 H 0.26783 0.23523 0.62205 0.0
C2400 C 0.23098 0.2244 0.61478 0.0
C2401 C 0.20595 0.20627 0.61461 0.0
C2402 C 0.25498 0.17159 0.6418 0.0
C2403 C 0.24149 0.19906 0.62961 0.0
C2404 C 0.2739 0.16819 0.64775 0.0
C2405 C 0.29811 0.1878 0.64922 0.0
C2406 C 0.26047 0.19466 0.63697 0.0
C2407 C 0.3027 0.2105 0.6444 0.0
C2408 C 0.24865 0.22096 0.62227 0.0
C2409 C 0.19934 0.18486 0.62245 0.0
N2410 N 0.28415 0.21328 0.6385 0.0
N2411 N 0.21702 0.18174 0.6295 0.0
H2412 H 0.7883 0.00027 0.59741 0.0
H2413 H 0.8399 0.08838 0.66658 0.0
H2414 H 0.79246 0.97383 0.64116 0.0
H2415 H 0.79143 0.09401 0.63426 0.0
H2416 H 0.83026 0.04966 0.65552 0.0
H2417 H 0.79682 0.0383 0.6089 0.0
C2418 C 0.79078 0.00222 0.60941 0.0
C2419 C 0.78944 0.98346 0.61827 0.0
C2420 C 0.82167 0.05939 0.65096 0.0
C2421 C 0.8002 0.02752 0.63134 0.0
C2422 C 0.82702 0.08143 0.65732 0.0
C2423 C 0.81604 0.09431 0.65162 0.0
C2424 C 0.80586 0.05054 0.63851 0.0
C2425 C 0.80016 0.08467 0.63917 0.0
C2426 C 0.79583 0.02407 0.61592 0.0
C2427 C 0.79372 0.98771 0.63375 0.0
N2428 N 0.79569 0.06344 0.63296 0.0
N2429 N 0.79907 0.00933 0.63976 0.0
H2430 H 0.47828 0.35659 0.69355 0.0
H2431 H 0.36985 0.22134 0.70746 0.0
H2432 H 0.46236 0.32341 0.73714 0.0
H2433 H 0.40263 0.24762 0.66431 0.0
H2434 H 0.40009 0.26019 0.71856 0.0
H2435 H 0.44747 0.31811 0.68266 0.0
C2436 C 0.46849 0.34124 0.70086 0.0
C2437 C 0.4732 0.34339 0.71634 0.0
C2438 C 0.40071 0.25739 0.70666 0.0
C2439 C 0.4373 0.29925 0.70387 0.0
C2440 C 0.38339 0.2353 0.70031 0.0
C2441 C 0.38398 0.23113 0.68494 0.0
C2442 C 0.41848 0.2756 0.69754 0.0
C2443 C 0.40193 0.2498 0.67622 0.0
C2444 C 0.45076 0.31928 0.69461 0.0
C2445 C 0.45927 0.32285 0.72521 0.0
N2446 N 0.41841 0.27125 0.68261 0.0
N2447 N 0.44195 0.3017 0.71886 0.0
H2448 H 0.65276 0.08012 0.72376 0.0
H2449 H 0.77867 0.17264 0.6825 0.0
H2450 H 0.66965 0.15218 0.71239 0.0
H2451 H 0.7527 0.09681 0.68793 0.0
H2452 H 0.73894 0.16618 0.69237 0.0
H2453 H 0.68926 0.08642 0.71009 0.0
C2454 C 0.66418 0.09732 0.71837 0.0
C2455 C 0.65817 0.1157 0.71937 0.0
C2456 C 0.74183 0.15092 0.69122 0.0
C2457 C 0.70041 0.12317 0.70355 0.0
C2458 C 0.76444 0.15458 0.68549 0.0
C2459 C 0.76886 0.13515 0.68423 0.0
C2460 C 0.72375 0.12775 0.69597 0.0
C2461 C 0.75002 0.11226 0.68863 0.0
C2462 C 0.68503 0.10089 0.71047 0.0
C2463 C 0.67353 0.13748 0.7119 0.0
N2464 N 0.72847 0.10924 0.69435 0.0
N2465 N 0.69407 0.14071 0.70444 0.0
H2466 H 0.84291 0.50543 0.7175 0.0
H2467 H 0.88045 0.64166 0.6991 0.0
H2468 H 0.91013 0.56769 0.7332 0.0
H2469 H 0.81846 0.58028 0.67801 0.0
H2470 H 0.89066 0.61449 0.71215 0.0
H2471 H 0.83286 0.53215 0.70343 0.0
C2472 C 0.85564 0.52469 0.71795 0.0
C2473 C 0.87744 0.53428 0.7266 0.0
C2474 C 0.87488 0.60691 0.70463 0.0
C2475 C 0.86582 0.565 0.71062 0.0
C2476 C 0.86897 0.62245 0.69715 0.0
C2477 C 0.84854 0.61329 0.68739 0.0
C2478 C 0.86019 0.5819 0.70246 0.0
C2479 C 0.83446 0.58817 0.68535 0.0
C2480 C 0.84981 0.53994 0.70995 0.0
C2481 C 0.89295 0.55944 0.72692 0.0
N2482 N 0.84049 0.57334 0.69288 0.0
N2483 N 0.88682 0.57388 0.71907 0.0
H2484 H 0.4307 0.92137 0.16467 0.0
H2485 H 0.54178 0.01814 0.11383 0.0
H2486 H 0.50628 0.96433 0.17998 0.0
H2487 H 0.46675 0.97542 0.09762 0.0
H2488 H 0.52905 -0.00253 0.13779 0.0
H2489 H 0.44335 0.93994 0.13999 0.0
C2490 C 0.44994 0.93475 0.16291 0.0
C2491 C 0.46739 0.94125 0.17457 0.0
C2492 C 0.51532 0.99251 0.12901 0.0
C2493 C 0.48208 0.96251 0.1461 0.0
C2494 C 0.52257 0.00441 0.11529 0.0
C2495 C 0.50529 -0.00123 0.10364 0.0
C2496 C 0.49051 0.97471 0.13128 0.0
C2497 C 0.48077 0.98037 0.1062 0.0
C2498 C 0.45717 0.94525 0.14873 0.0
C2499 C 0.49215 0.95843 0.17139 0.0
N2500 N 0.47409 0.96914 0.11974 0.0
N2501 N 0.49867 0.96845 0.15755 0.0
H2502 H 0.05049 0.50521 0.16665 0.0
H2503 H 0.95693 0.51831 0.11115 0.0
H2504 H 0.00213 0.53206 0.17991 0.0
H2505 H 0.99784 0.48305 0.0984 0.0
H2506 H 0.97392 0.52376 0.13633 0.0
H2507 H 0.03171 0.49672 0.14166 0.0
C2508 C 0.03576 0.50909 0.16437 0.0
C2509 C 0.02804 0.51956 0.1754 0.0
C2510 C 0.97916 0.51477 0.12806 0.0
C2511 C 0.00672 0.51022 0.14675 0.0
C2512 C 0.96935 0.51153 0.11365 0.0
C2513 C 0.97581 0.50007 0.10259 0.0
C2514 C 0.99574 0.50662 0.13152 0.0
C2515 C 0.9925 0.49221 0.10649 0.0
C2516 C 0.02516 0.50439 0.15007 0.0
C2517 C 0.00905 0.52444 0.17172 0.0
N2518 N 0.00189 0.49563 0.12063 0.0
N2519 N -0.00083 0.51984 0.15773 0.0
H2520 H 0.44163 0.50379 0.1671 0.0
H2521 H 0.5504 0.51575 0.11367 0.0
H2522 H 0.51845 0.53635 0.18016 0.0
H2523 H 0.47428 0.48291 0.09905 0.0
H2524 H 0.53835 0.52299 0.13814 0.0
H2525 H 0.45236 0.49504 0.14234 0.0
C2526 C 0.46069 0.50895 0.16482 0.0
C2527 C 0.47919 0.52104 0.17573 0.0
C2528 C 0.5242 0.51419 0.12962 0.0
C2529 C 0.49162 0.51126 0.14739 0.0
C2530 C 0.53108 0.50994 0.11562 0.0
C2531 C 0.51333 0.49851 0.10425 0.0
C2532 C 0.4993 0.50701 0.13243 0.0
C2533 C 0.48864 0.49191 0.10742 0.0
C2534 C 0.46683 0.50409 0.15065 0.0
C2535 C 0.50361 0.52743 0.17207 0.0
N2536 N 0.48234 0.49617 0.12122 0.0
N2537 N 0.50907 0.52252 0.15827 0.0
H2538 H 0.94134 0.4819 0.83714 0.0
H2539 H 0.03869 0.47343 0.89186 0.0
H2540 H 0.99049 0.45609 0.82365 0.0
H2541 H 0.99549 0.50615 0.90494 0.0
H2542 H 0.02055 0.46653 0.86691 0.0
H2543 H 0.96052 0.4909 0.86202 0.0
C2544 C 0.95628 0.4783 0.83935 0.0
C2545 C 0.96418 0.46806 0.82827 0.0
C2546 C 0.01503 0.47527 0.87521 0.0
C2547 C 0.98599 0.47802 0.85681 0.0
C2548 C 0.0255 0.47933 0.88948 0.0
C2549 C 0.01874 0.49052 0.90056 0.0
C2550 C 0.99753 0.48233 0.87191 0.0
C2551 C 0.0011 0.49725 0.89683 0.0
C2552 C 0.96712 0.48331 0.8536 0.0
C2553 C 0.98344 0.46354 0.83188 0.0
N2554 N 0.99112 0.49306 0.88283 0.0
N2555 N 0.99359 0.46847 0.84581 0.0
H2556 H 0.53056 0.50633 0.82343 0.0
H2557 H 0.48592 0.45889 0.90684 0.0
H2558 H 0.51166 0.43521 0.83855 0.0
H2559 H 0.49317 0.52507 0.8897 0.0
H2560 H 0.49977 0.45191 0.88272 0.0
H2561 H 0.52144 0.51548 0.84844 0.0
C2562 C 0.52473 0.49272 0.83204 0.0
C2563 C 0.52171 0.4699 0.82883 0.0
C2564 C 0.49841 0.46801 0.88424 0.0
C2565 C 0.5111 0.48021 0.8575 0.0
C2566 C 0.49065 0.47208 0.89806 0.0
C2567 C 0.48823 0.49253 0.9003 0.0
C2568 C 0.50398 0.48458 0.87257 0.0
C2569 C 0.49439 0.50887 0.88842 0.0
C2570 C 0.51937 0.4979 0.8463 0.0
C2571 C 0.51388 0.45291 0.84043 0.0
N2572 N 0.50194 0.50453 0.87509 0.0
N2573 N 0.50882 0.45838 0.8542 0.0
H2574 H 0.50658 0.01315 0.81911 0.0
H2575 H 0.52157 0.02366 0.90769 0.0
H2576 H 0.53097 0.08108 0.8415 0.0
H2577 H 0.46425 0.9599 0.88549 0.0
H2578 H 0.53086 0.04505 0.88379 0.0
H2579 H 0.49746 0.99303 0.84354 0.0
C2580 C 0.51019 0.02381 0.82921 0.0
C2581 C 0.51954 0.04875 0.82835 0.0
C2582 C 0.51627 0.02635 0.88424 0.0
C2583 C 0.50938 0.02599 0.8563 0.0
C2584 C 0.51077 0.01408 0.89794 0.0
C2585 C 0.49217 0.98961 0.89883 0.0
C2586 C 0.50349 0.01406 0.87122 0.0
C2587 C 0.47926 0.97839 0.88552 0.0
C2588 C 0.50488 0.01235 0.84311 0.0
C2589 C 0.52379 0.06179 0.84174 0.0
N2590 N 0.48532 0.99056 0.87234 0.0
N2591 N 0.51885 0.05031 0.85519 0.0
H2592 H 0.14572 0.25281 0.50033 0.0
H2593 H 0.15967 0.36044 0.44796 0.0
H2594 H 0.12011 0.30194 0.51246 0.0
H2595 H 0.17306 0.30437 0.43193 0.0
H2596 H 0.14641 0.33969 0.47189 0.0
H2597 H 0.15744 0.27197 0.47568 0.0
C2598 C 0.14263 0.26766 0.49786 0.0
C2599 C 0.13182 0.27568 0.50856 0.0
C2600 C 0.15214 0.3318 0.46316 0.0
C2601 C 0.14519 0.29771 0.48026 0.0
C2602 C 0.15982 0.34372 0.44947 0.0
C2603 C 0.16766 0.33425 0.43789 0.0
C2604 C 0.15243 0.31024 0.46548 0.0
C2605 C 0.16707 0.31229 0.44049 0.0
C2606 C 0.14918 0.27848 0.48372 0.0
C2607 C 0.12806 0.29486 0.50458 0.0
N2608 N 0.1598 0.30114 0.45403 0.0
N2609 N 0.1348 0.30521 0.49084 0.0
H2610 H 0.66252 0.86477 0.51473 0.0
H2611 H 0.66171 0.81508 0.43228 0.0
H2612 H 0.71068 0.83772 0.50142 0.0
H2613 H 0.62086 0.85044 0.44494 0.0
H2614 H 0.67827 0.82101 0.45776 0.0
H2615 H 0.64503 0.85691 0.48955 0.0
C2616 C 0.66946 0.8572 0.50651 0.0
C2617 C 0.68829 0.85211 0.5102 0.0
C2618 C 0.66565 0.82743 0.45495 0.0
C2619 C 0.66812 0.84284 0.48126 0.0
C2620 C 0.6563 0.82419 0.44037 0.0
C2621 C 0.6398 0.83223 0.43641 0.0
C2622 C 0.65844 0.83877 0.46568 0.0
C2623 C 0.63319 0.84358 0.44748 0.0
C2624 C 0.65939 0.85263 0.49212 0.0
C2625 C 0.6961 0.84178 0.49912 0.0
N2626 N 0.64251 0.84649 0.46156 0.0
N2627 N 0.68607 0.83759 0.48514 0.0
H2628 H 0.15082 0.88961 0.49805 0.0
H2629 H 0.16799 0.79593 0.44728 0.0
H2630 H 0.13182 0.81836 0.51291 0.0
H2631 H 0.17594 0.8626 0.43057 0.0
H2632 H 0.15455 0.80362 0.47132 0.0
H2633 H 0.15985 0.87991 0.47325 0.0
C2634 C 0.14852 0.87189 0.49609 0.0
C2635 C 0.14072 0.85483 0.50763 0.0
C2636 C 0.15909 0.81651 0.46238 0.0
C2637 C 0.15103 0.84355 0.47917 0.0
C2638 C 0.1669 0.81219 0.44866 0.0
C2639 C 0.17326 0.82871 0.43689 0.0
C2640 C 0.1578 0.83763 0.46443 0.0
C2641 C 0.17109 0.84929 0.43927 0.0
C2642 C 0.15357 0.86631 0.48189 0.0
C2643 C 0.13767 0.83202 0.50435 0.0
N2644 N 0.16374 0.85324 0.45279 0.0
N2645 N 0.14304 0.82712 0.49047 0.0
H2646 H 0.65305 0.83654 0.15799 0.0
H2647 H 0.64858 0.78837 0.24114 0.0
H2648 H 0.60257 0.76355 0.17179 0.0
H2649 H 0.70974 0.85463 0.22462 0.0
H2650 H 0.62882 0.78094 0.21653 0.0
H2651 H 0.67143 0.84547 0.18314 0.0
C2652 C 0.64574 0.82246 0.16635 0.0
C2653 C 0.62637 0.79923 0.16279 0.0
C2654 C 0.64656 0.79712 0.21828 0.0
C2655 C 0.64726 0.80928 0.19151 0.0
C2656 C 0.65777 0.80143 0.23236 0.0
C2657 C 0.68087 0.82212 0.23492 0.0
C2658 C 0.6584 0.8137 0.2067 0.0
C2659 C 0.69206 0.83831 0.22307 0.0
C2660 C 0.65632 0.82751 0.18065 0.0
C2661 C 0.61771 0.7816 0.174 0.0
N2662 N 0.6807 0.83379 0.20948 0.0
N2663 N 0.62818 0.78699 0.18784 0.0
H2664 H 0.14371 0.78766 0.15594 0.0
H2665 H 0.18984 0.84112 0.23848 0.0
H2666 H 0.21999 0.81913 0.16996 0.0
H2667 H 0.11417 0.80859 0.22301 0.0
H2668 H 0.20183 0.83371 0.21376 0.0
H2669 H 0.13327 0.79625 0.18052 0.0
C2670 C 0.15831 0.79635 0.16422 0.0
C2671 C 0.18274 0.80242 0.16089 0.0
C2672 C 0.18262 0.82824 0.2158 0.0
C2673 C 0.17087 0.81254 0.18925 0.0
C2674 C 0.17572 0.83232 0.22994 0.0
C2675 C 0.15095 0.82561 0.23285 0.0
C2676 C 0.1646 0.81729 0.2045 0.0
C2677 C 0.13354 0.81448 0.22127 0.0
C2678 C 0.15233 0.80134 0.17829 0.0
C2679 C 0.20093 0.81418 0.17202 0.0
N2680 N 0.14069 0.81071 0.20768 0.0
N2681 N 0.19461 0.81874 0.18574 0.0
H2682 H 0.1993 0.35737 0.15636 0.0
H2683 H 0.15314 0.35332 0.24072 0.0
H2684 H 0.17262 0.40378 0.17259 0.0
H2685 H 0.16931 0.30051 0.22204 0.0
H2686 H 0.16408 0.37462 0.21672 0.0
H2687 H 0.19226 0.33896 0.18111 0.0
C2688 C 0.19217 0.36388 0.16514 0.0
C2689 C 0.18648 0.38216 0.16228 0.0
C2690 C 0.16531 0.35841 0.21789 0.0
C2691 C 0.17817 0.36091 0.19079 0.0
C2692 C 0.15922 0.34632 0.23164 0.0
C2693 C 0.16011 0.32495 0.23343 0.0
C2694 C 0.17257 0.34922 0.20583 0.0
C2695 C 0.16795 0.31668 0.22117 0.0
C2696 C 0.18799 0.35321 0.17928 0.0
C2697 C 0.17697 0.38954 0.17415 0.0
N2698 N 0.17381 0.32876 0.20795 0.0
N2699 N 0.17313 0.37892 0.18783 0.0
H2700 H 0.83965 0.63097 0.84729 0.0
H2701 H 0.79929 0.64227 0.76358 0.0
H2702 H 0.76445 0.58937 0.83107 0.0
H2703 H 0.87358 0.68449 0.78104 0.0
H2704 H 0.78629 0.62119 0.7876 0.0
H2705 H 0.85241 0.64931 0.82268 0.0
C2706 C 0.82579 0.62549 0.83855 0.0
C2707 C 0.80087 0.60847 0.84139 0.0
C2708 C 0.80545 0.63504 0.78615 0.0
C2709 C 0.81546 0.62984 0.81296 0.0
C2710 C 0.81293 0.64698 0.77238 0.0
C2711 C 0.83757 0.66539 0.77024 0.0
C2712 C 0.82272 0.64141 0.7979 0.0
C2713 C 0.85431 0.67078 0.78218 0.0
C2714 C 0.8331 0.63614 0.82446 0.0
C2715 C 0.7838 0.60258 0.82955 0.0
N2716 N 0.84659 0.65895 0.79543 0.0
N2717 N 0.79139 0.61321 0.81591 0.0
H2718 H 0.38347 0.17277 0.83319 0.0
H2719 H 0.28999 0.18563 0.77737 0.0
H2720 H 0.33853 0.20393 0.84556 0.0
H2721 H 0.33068 0.14994 0.76513 0.0
H2722 H 0.30773 0.1923 0.80243 0.0
H2723 H 0.36428 0.16377 0.80833 0.0
C2724 C 0.36943 0.17754 0.83074 0.0
C2725 C 0.36273 0.18927 0.84149 0.0
C2726 C 0.31278 0.18296 0.79429 0.0
C2727 C 0.34091 0.17928 0.81297 0.0
C2728 C 0.30253 0.17902 0.77997 0.0
C2729 C 0.30874 0.1671 0.76909 0.0
C2730 C 0.32948 0.17501 0.79785 0.0
C2731 C 0.32554 0.15943 0.77308 0.0
C2732 C 0.3586 0.17253 0.8165 0.0
C2733 C 0.34463 0.19527 0.83758 0.0
N2734 N 0.33532 0.16351 0.78713 0.0
N2735 N 0.33444 0.19027 0.82367 0.0
H2736 H 0.84744 0.19998 0.8478 0.0
H2737 H 0.80385 0.15015 0.76434 0.0
H2738 H 0.77259 0.17352 0.83229 0.0
H2739 H 0.8787 0.1806 0.78096 0.0
H2740 H 0.79126 0.15757 0.78887 0.0
H2741 H 0.85822 0.19129 0.82338 0.0
C2742 C 0.83323 0.19238 0.83922 0.0
C2743 C 0.80913 0.18778 0.84209 0.0
C2744 C 0.81041 0.16258 0.78712 0.0
C2745 C 0.82138 0.17754 0.81387 0.0
C2746 C 0.81767 0.1585 0.77308 0.0
C2747 C 0.84238 0.16459 0.77055 0.0
C2748 C 0.82801 0.17287 0.79871 0.0
C2749 C 0.85937 0.17515 0.7824 0.0
C2750 C 0.8394 0.18733 0.82524 0.0
C2751 C 0.79139 0.17733 0.83059 0.0
N2752 N 0.85187 0.1789 0.79588 0.0
N2753 N 0.7979 0.17269 0.81695 0.0
H2754 H 0.27889 0.15081 0.50327 0.0
H2755 H 0.37363 0.13978 0.55889 0.0
H2756 H 0.32683 0.12331 0.49029 0.0
H2757 H 0.33214 0.17461 0.57125 0.0
H2758 H 0.35611 0.13329 0.53379 0.0
H2759 H 0.29788 0.15975 0.52819 0.0
C2760 C 0.29356 0.14685 0.50559 0.0
C2761 C 0.30114 0.13614 0.49465 0.0
C2762 C 0.35085 0.14241 0.54196 0.0
C2763 C 0.32271 0.14602 0.52325 0.0
C2764 C 0.36096 0.14624 0.55632 0.0
C2765 C 0.35449 0.15789 0.56725 0.0
C2766 C 0.33397 0.15016 0.53842 0.0
C2767 C 0.3375 0.16533 0.56327 0.0
C2768 C 0.30427 0.15183 0.51986 0.0
C2769 C 0.32003 0.13115 0.49841 0.0
N2770 N 0.32784 0.16135 0.54919 0.0
N2771 N 0.33006 0.13604 0.51237 0.0
H2772 H 0.88859 0.15189 0.50338 0.0
H2773 H 0.77897 0.13831 0.55663 0.0
H2774 H 0.81179 0.11885 0.49017 0.0
H2775 H 0.85515 0.17253 0.57131 0.0
H2776 H 0.79135 0.13129 0.53222 0.0
H2777 H 0.87759 0.16042 0.52812 0.0
C2778 C 0.86947 0.14658 0.50562 0.0
C2779 C 0.85106 0.13441 0.49468 0.0
C2780 C 0.80545 0.14035 0.54073 0.0
C2781 C 0.83833 0.14393 0.523 0.0
C2782 C 0.79838 0.14447 0.55471 0.0
C2783 C 0.81605 0.15624 0.56607 0.0
C2784 C 0.83046 0.148 0.53794 0.0
C2785 C 0.84085 0.16328 0.56294 0.0
C2786 C 0.86319 0.15132 0.51978 0.0
C2787 C 0.82657 0.12783 0.49829 0.0
N2788 N 0.84735 0.15914 0.54916 0.0
N2789 N 0.82096 0.13261 0.51208 0.0
H2790 H 0.81152 0.68546 0.48926 0.0
H2791 H 0.86153 0.68205 0.57166 0.0
H2792 H 0.88732 0.73295 0.50273 0.0
H2793 H 0.78801 0.63238 0.55533 0.0
H2794 H 0.87147 0.70224 0.54722 0.0
H2795 H 0.80292 0.66685 0.51385 0.0
C2796 C 0.8264 0.69209 0.49742 0.0
C2797 C 0.85016 0.71102 0.49387 0.0
C2798 C 0.85317 0.68692 0.54901 0.0
C2799 C 0.84039 0.68946 0.52233 0.0
C2800 C 0.84742 0.67548 0.56301 0.0
C2801 C 0.82392 0.6553 0.5656 0.0
C2802 C 0.83525 0.67825 0.53753 0.0
C2803 C 0.80649 0.64755 0.55387 0.0
C2804 C 0.82148 0.68133 0.5115 0.0
C2805 C 0.86875 0.71837 0.5049 0.0
N2806 N 0.81251 0.65897 0.54044 0.0
N2807 N 0.86346 0.70768 0.51864 0.0
loop_
_geom_bond_atom_site_label_1
_geom_bond_atom_site_label_2
_geom_bond_distance
_geom_bond_site_symmetry_2
_ccdc_geom_bond_type
C0 C1 1.391 . S
C0 C4 1.391 . S
C0 H42 0.948 . S
C1 C0 1.391 . S
C1 C2 1.391 . S
C2 C1 1.391 . S
C2 H58 0.947 . S
C2 C59 1.392 . S
C3 C4 1.391 . S
C3 C7 1.397 . S
C3 C59 1.419 . S
C4 C0 1.391 . S
C4 C3 1.391 . S
C4 C5 1.399 . S
C5 C4 1.399 . S
C5 C8 1.396 . S
C5 C17 1.453 . S
C5 C18 1.684 . S
H6 C30 0.948 . S
C7 C3 1.397 . S
C7 C8 1.394 . S
C7 C26 1.723 . S
C8 C5 1.396 . S
C8 C7 1.394 . S
C8 C38 1.723 . S
H9 C32 0.947 . S
H10 C33 0.948 . S
H11 C39 0.982 . S
H12 C40 0.979 . S
H13 C40 0.980 . S
H14 C40 0.983 . S
H15 C39 0.979 . S
H16 C39 0.977 . S
C17 C5 1.453 . S
C17 H46 0.982 . S
C17 H47 0.979 . S
C17 H48 0.977 . S
C18 C5 1.684 . S
C18 H43 0.979 . S
C18 H44 0.980 . S
C18 H45 0.983 . S
C19 C20 1.391 . S
C19 C24 1.391 . S
C19 H49 0.948 . S
C20 C19 1.391 . S
C20 C21 1.391 . S
C21 C20 1.391 . S
C21 C22 1.392 . S
C21 H50 0.947 . S
C22 C21 1.392 . S
C22 C23 1.419 . S
C22 H51 0.948 . S
C23 C22 1.419 . S
C23 C24 1.391 . S
C23 C27 1.397 . S
C24 C19 1.391 . S
C24 C23 1.391 . S
C24 C25 1.399 . S
C25 C24 1.399 . S
C25 C26 1.396 . S
C25 C28 1.453 . S
C25 C29 1.684 . S
C26 C7 1.723 . S
C26 C25 1.396 . S
C26 C27 1.394 . S
C27 C23 1.397 . S
C27 C26 1.394 . S
C27 C37 1.723 . S
C28 C25 1.453 . S
C28 H52 0.982 . S
C28 H53 0.979 . S
C28 H54 0.977 . S
C29 C25 1.684 . S
C29 H55 0.979 . S
C29 H56 0.980 . S
C29 H57 0.983 . S
C30 H6 0.948 . S
C30 C31 1.391 . S
C30 C35 1.391 . S
C31 C30 1.391 . S
C31 C32 1.391 . S
C32 H9 0.947 . S
C32 C31 1.391 . S
C32 C33 1.392 . S
C33 H10 0.948 . S
C33 C32 1.392 . S
C33 C34 1.419 . S
C34 C33 1.419 . S
C34 C35 1.391 . S
C34 C38 1.397 . S
C35 C30 1.391 . S
C35 C34 1.391 . S
C35 C36 1.399 . S
C36 C35 1.399 . S
C36 C37 1.396 . S
C36 C39 1.453 . S
C36 C40 1.684 . S
C37 C27 1.723 . S
C37 C36 1.396 . S
C37 C38 1.394 . S
C38 C8 1.723 . S
C38 C34 1.397 . S
C38 C37 1.394 . S
C39 H11 0.982 . S
C39 H15 0.979 . S
C39 H16 0.977 . S
C39 C36 1.453 . S
C40 H12 0.979 . S
C40 H13 0.980 . S
C40 H14 0.983 . S
C40 C36 1.684 . S
H41 C59 0.948 . S
H42 C0 0.948 . S
H43 C18 0.979 . S
H44 C18 0.980 . S
H45 C18 0.983 . S
H46 C17 0.982 . S
H47 C17 0.979 . S
H48 C17 0.977 . S
H49 C19 0.948 . S
H50 C21 0.947 . S
H51 C22 0.948 . S
H52 C28 0.982 . S
H53 C28 0.979 . S
H54 C28 0.977 . S
H55 C29 0.979 . S
H56 C29 0.980 . S
H57 C29 0.983 . S
H58 C2 0.947 . S
C59 C2 1.392 . S
C59 C3 1.419 . S
C59 H41 0.948 . S
C60 C61 1.391 . S
C60 C64 1.391 . S
C60 H102 0.948 . S
C61 C60 1.391 . S
C61 C62 1.391 . S
C62 C61 1.391 . S
C62 H118 0.947 . S
C62 C119 1.392 . S
C63 C64 1.391 . S
C63 C67 1.397 . S
C63 C119 1.419 . S
C64 C60 1.391 . S
C64 C63 1.391 . S
C64 C65 1.399 . S
C65 C64 1.399 . S
C65 C68 1.396 . S
C65 C77 1.453 . S
C65 C78 1.684 . S
H66 C90 0.948 . S
C67 C63 1.397 . S
C67 C68 1.394 . S
C67 C86 1.723 . S
C68 C65 1.396 . S
C68 C67 1.394 . S
C68 C98 1.723 . S
H69 C92 0.947 . S
H70 C93 0.948 . S
H71 C99 0.982 . S
H72 C100 0.979 . S
H73 C100 0.980 . S
H74 C100 0.983 . S
H75 C99 0.979 . S
H76 C99 0.977 . S
C77 C65 1.453 . S
C77 H106 0.982 . S
C77 H107 0.979 . S
C77 H108 0.977 . S
C78 C65 1.684 . S
C78 H103 0.979 . S
C78 H104 0.980 . S
C78 H105 0.983 . S
C79 C80 1.391 . S
C79 C84 1.391 . S
C79 H109 0.948 . S
C80 C79 1.391 . S
C80 C81 1.391 . S
C81 C80 1.391 . S
C81 C82 1.392 . S
C81 H110 0.947 . S
C82 C81 1.392 . S
C82 C83 1.419 . S
C82 H111 0.948 . S
C83 C82 1.419 . S
C83 C84 1.391 . S
C83 C87 1.397 . S
C84 C79 1.391 . S
C84 C83 1.391 . S
C84 C85 1.399 . S
C85 C84 1.399 . S
C85 C86 1.396 . S
C85 C88 1.453 . S
C85 C89 1.684 . S
C86 C67 1.723 . S
C86 C85 1.396 . S
C86 C87 1.394 . S
C87 C83 1.397 . S
C87 C86 1.394 . S
C87 C97 1.723 . S
C88 C85 1.453 . S
C88 H112 0.982 . S
C88 H113 0.979 . S
C88 H114 0.977 . S
C89 C85 1.684 . S
C89 H115 0.979 . S
C89 H116 0.980 . S
C89 H117 0.983 . S
C90 H66 0.948 . S
C90 C91 1.391 . S
C90 C95 1.391 . S
C91 C90 1.391 . S
C91 C92 1.391 . S
C92 H69 0.947 . S
C92 C91 1.391 . S
C92 C93 1.392 . S
C93 H70 0.948 . S
C93 C92 1.392 . S
C93 C94 1.419 . S
C94 C93 1.419 . S
C94 C95 1.391 . S
C94 C98 1.397 . S
C95 C90 1.391 . S
C95 C94 1.391 . S
C95 C96 1.399 . S
C96 C95 1.399 . S
C96 C97 1.396 . S
C96 C99 1.453 . S
C96 C100 1.684 . S
C97 C87 1.723 . S
C97 C96 1.396 . S
C97 C98 1.394 . S
C98 C68 1.723 . S
C98 C94 1.397 . S
C98 C97 1.394 . S
C99 H71 0.982 . S
C99 H75 0.979 . S
C99 H76 0.977 . S
C99 C96 1.453 . S
C100 H72 0.979 . S
C100 H73 0.980 . S
C100 H74 0.983 . S
C100 C96 1.684 . S
H101 C119 0.948 . S
H102 C60 0.948 . S
H103 C78 0.979 . S
H104 C78 0.980 . S
H105 C78 0.983 . S
H106 C77 0.982 . S
H107 C77 0.979 . S
H108 C77 0.977 . S
H109 C79 0.948 . S
H110 C81 0.947 . S
H111 C82 0.948 . S
H112 C88 0.982 . S
H113 C88 0.979 . S
H114 C88 0.977 . S
H115 C89 0.979 . S
H116 C89 0.980 . S
H117 C89 0.983 . S
H118 C62 0.947 . S
C119 C62 1.392 . S
C119 C63 1.419 . S
C119 H101 0.948 . S
C120 C121 1.391 . S
C120 C124 1.391 . S
C120 H162 0.948 . S
C121 C120 1.391 . S
C121 C122 1.391 . S
C122 C121 1.391 . S
C122 H178 0.947 . S
C122 C179 1.392 . S
C123 C124 1.391 . S
C123 C127 1.397 . S
C123 C179 1.419 . S
C124 C120 1.391 . S
C124 C123 1.391 . S
C124 C125 1.399 . S
C125 C124 1.399 . S
C125 C128 1.396 . S
C125 C137 1.453 . S
C125 C138 1.684 . S
H126 C150 0.948 . S
C127 C123 1.397 . S
C127 C128 1.394 . S
C127 C146 1.723 . S
C128 C125 1.396 . S
C128 C127 1.394 . S
C128 C158 1.723 . S
H129 C152 0.947 . S
H130 C153 0.948 . S
H131 C159 0.982 . S
H132 C160 0.979 . S
H133 C160 0.980 . S
H134 C160 0.983 . S
H135 C159 0.979 . S
H136 C159 0.977 . S
C137 C125 1.453 . S
C137 H166 0.982 . S
C137 H167 0.979 . S
C137 H168 0.977 . S
C138 C125 1.684 . S
C138 H163 0.979 . S
C138 H164 0.980 . S
C138 H165 0.983 . S
C139 C140 1.391 . S
C139 C144 1.391 . S
C139 H169 0.948 . S
C140 C139 1.391 . S
C140 C141 1.391 . S
C141 C140 1.391 . S
C141 C142 1.392 . S
C141 H170 0.947 . S
C142 C141 1.392 . S
C142 C143 1.419 . S
C142 H171 0.948 . S
C143 C142 1.419 . S
C143 C144 1.391 . S
C143 C147 1.397 . S
C144 C139 1.391 . S
C144 C143 1.391 . S
C144 C145 1.399 . S
C145 C144 1.399 . S
C145 C146 1.396 . S
C145 C148 1.453 . S
C145 C149 1.684 . S
C146 C127 1.723 . S
C146 C145 1.396 . S
C146 C147 1.394 . S
C147 C143 1.397 . S
C147 C146 1.394 . S
C147 C157 1.723 . S
C148 C145 1.453 . S
C148 H172 0.982 . S
C148 H173 0.979 . S
C148 H174 0.977 . S
C149 C145 1.684 . S
C149 H175 0.979 . S
C149 H176 0.980 . S
C149 H177 0.983 . S
C150 H126 0.948 . S
C150 C151 1.391 . S
C150 C155 1.391 . S
C151 C150 1.391 . S
C151 C152 1.391 . S
C152 H129 0.947 . S
C152 C151 1.391 . S
C152 C153 1.392 . S
C153 H130 0.948 . S
C153 C152 1.392 . S
C153 C154 1.419 . S
C154 C153 1.419 . S
C154 C155 1.391 . S
C154 C158 1.397 . S
C155 C150 1.391 . S
C155 C154 1.391 . S
C155 C156 1.399 . S
C156 C155 1.399 . S
C156 C157 1.396 . S
C156 C159 1.453 . S
C156 C160 1.684 . S
C157 C147 1.723 . S
C157 C156 1.396 . S
C157 C158 1.394 . S
C158 C128 1.723 . S
C158 C154 1.397 . S
C158 C157 1.394 . S
C159 H131 0.982 . S
C159 H135 0.979 . S
C159 H136 0.977 . S
C159 C156 1.453 . S
C160 H132 0.979 . S
C160 H133 0.980 . S
C160 H134 0.983 . S
C160 C156 1.684 . S
H161 C179 0.948 . S
H162 C120 0.948 . S
H163 C138 0.979 . S
H164 C138 0.980 . S
H165 C138 0.983 . S
H166 C137 0.982 . S
H167 C137 0.979 . S
H168 C137 0.977 . S
H169 C139 0.948 . S
H170 C141 0.947 . S
H171 C142 0.948 . S
H172 C148 0.982 . S
H173 C148 0.979 . S
H174 C148 0.977 . S
H175 C149 0.979 . S
H176 C149 0.980 . S
H177 C149 0.983 . S
H178 C122 0.947 . S
C179 C122 1.392 . S
C179 C123 1.419 . S
C179 H161 0.948 . S
C180 C181 1.391 . S
C180 C184 1.391 . S
C180 H222 0.948 . S
C181 C180 1.391 . S
C181 C182 1.391 . S
C182 C181 1.391 . S
C182 H238 0.947 . S
C182 C239 1.392 . S
C183 C184 1.391 . S
C183 C187 1.397 . S
C183 C239 1.419 . S
C184 C180 1.391 . S
C184 C183 1.391 . S
C184 C185 1.399 . S
C185 C184 1.399 . S
C185 C188 1.396 . S
C185 C197 1.453 . S
C185 C198 1.684 . S
H186 C210 0.948 . S
C187 C183 1.397 . S
C187 C188 1.394 . S
C187 C206 1.723 . S
C188 C185 1.396 . S
C188 C187 1.394 . S
C188 C218 1.723 . S
H189 C212 0.947 . S
H190 C213 0.948 . S
H191 C219 0.982 . S
H192 C220 0.979 . S
H193 C220 0.980 . S
H194 C220 0.983 . S
H195 C219 0.979 . S
H196 C219 0.977 . S
C197 C185 1.453 . S
C197 H226 0.982 . S
C197 H227 0.979 . S
C197 H228 0.977 . S
C198 C185 1.684 . S
C198 H223 0.979 . S
C198 H224 0.980 . S
C198 H225 0.983 . S
C199 C200 1.391 . S
C199 C204 1.391 . S
C199 H229 0.948 . S
C200 C199 1.391 . S
C200 C201 1.391 . S
C201 C200 1.391 . S
C201 C202 1.392 . S
C201 H230 0.947 . S
C202 C201 1.392 . S
C202 C203 1.419 . S
C202 H231 0.948 . S
C203 C202 1.419 . S
C203 C204 1.391 . S
C203 C207 1.397 . S
C204 C199 1.391 . S
C204 C203 1.391 . S
C204 C205 1.399 . S
C205 C204 1.399 . S
C205 C206 1.396 . S
C205 C208 1.453 . S
C205 C209 1.684 . S
C206 C187 1.723 . S
C206 C205 1.396 . S
C206 C207 1.394 . S
C207 C203 1.397 . S
C207 C206 1.394 . S
C207 C217 1.723 . S
C208 C205 1.453 . S
C208 H232 0.982 . S
C208 H233 0.979 . S
C208 H234 0.977 . S
C209 C205 1.684 . S
C209 H235 0.979 . S
C209 H236 0.980 . S
C209 H237 0.983 . S
C210 H186 0.948 . S
C210 C211 1.391 . S
C210 C215 1.391 . S
C211 C210 1.391 . S
C211 C212 1.391 . S
C212 H189 0.947 . S
C212 C211 1.391 . S
C212 C213 1.392 . S
C213 H190 0.948 . S
C213 C212 1.392 . S
C213 C214 1.419 . S
C214 C213 1.419 . S
C214 C215 1.391 . S
C214 C218 1.397 . S
C215 C210 1.391 . S
C215 C214 1.391 . S
C215 C216 1.399 . S
C216 C215 1.399 . S
C216 C217 1.396 . S
C216 C219 1.453 . S
C216 C220 1.684 . S
C217 C207 1.723 . S
C217 C216 1.396 . S
C217 C218 1.394 . S
C218 C188 1.723 . S
C218 C214 1.397 . S
C218 C217 1.394 . S
C219 H191 0.982 . S
C219 H195 0.979 . S
C219 H196 0.977 . S
C219 C216 1.453 . S
C220 H192 0.979 . S
C220 H193 0.980 . S
C220 H194 0.983 . S
C220 C216 1.684 . S
H221 C239 0.948 . S
H222 C180 0.948 . S
H223 C198 0.979 . S
H224 C198 0.980 . S
H225 C198 0.983 . S
H226 C197 0.982 . S
H227 C197 0.979 . S
H228 C197 0.977 . S
H229 C199 0.948 . S
H230 C201 0.947 . S
H231 C202 0.948 . S
H232 C208 0.982 . S
H233 C208 0.979 . S
H234 C208 0.977 . S
H235 C209 0.979 . S
H236 C209 0.980 . S
H237 C209 0.983 . S
H238 C182 0.947 . S
C239 C182 1.392 . S
C239 C183 1.419 . S
C239 H221 0.948 . S
C240 C241 1.391 . S
C240 C244 1.391 . S
C240 H282 0.948 . S
C241 C240 1.391 . S
C241 C242 1.391 . S
C242 C241 1.391 . S
C242 H298 0.947 . S
C242 C299 1.392 . S
C243 C244 1.391 . S
C243 C247 1.397 . S
C243 C299 1.419 . S
C244 C240 1.391 . S
C244 C243 1.391 . S
C244 C245 1.399 . S
C245 C244 1.399 . S
C245 C248 1.396 . S
C245 C257 1.453 . S
C245 C258 1.684 . S
H246 C270 0.948 . S
C247 C243 1.397 . S
C247 C248 1.394 . S
C247 C266 1.723 . S
C248 C245 1.396 . S
C248 C247 1.394 . S
C248 C278 1.723 . S
H249 C272 0.947 . S
H250 C273 0.948 . S
H251 C279 0.982 . S
H252 C280 0.979 . S
H253 C280 0.980 . S
H254 C280 0.983 . S
H255 C279 0.979 . S
H256 C279 0.977 . S
C257 C245 1.453 . S
C257 H286 0.982 . S
C257 H287 0.979 . S
C257 H288 0.977 . S
C258 C245 1.684 . S
C258 H283 0.979 . S
C258 H284 0.980 . S
C258 H285 0.983 . S
C259 C260 1.391 . S
C259 C264 1.391 . S
C259 H289 0.948 . S
C260 C259 1.391 . S
C260 C261 1.391 . S
C261 C260 1.391 . S
C261 C262 1.392 . S
C261 H290 0.947 . S
C262 C261 1.392 . S
C262 C263 1.419 . S
C262 H291 0.948 . S
C263 C262 1.419 . S
C263 C264 1.391 . S
C263 C267 1.397 . S
C264 C259 1.391 . S
C264 C263 1.391 . S
C264 C265 1.399 . S
C265 C264 1.399 . S
C265 C266 1.396 . S
C265 C268 1.453 . S
C265 C269 1.684 . S
C266 C247 1.723 . S
C266 C265 1.396 . S
C266 C267 1.394 . S
C267 C263 1.397 . S
C267 C266 1.394 . S
C267 C277 1.723 . S
C268 C265 1.453 . S
C268 H292 0.982 . S
C268 H293 0.979 . S
C268 H294 0.977 . S
C269 C265 1.684 . S
C269 H295 0.979 . S
C269 H296 0.980 . S
C269 H297 0.983 . S
C270 H246 0.948 . S
C270 C271 1.391 . S
C270 C275 1.391 . S
C271 C270 1.391 . S
C271 C272 1.391 . S
C272 H249 0.947 . S
C272 C271 1.391 . S
C272 C273 1.392 . S
C273 H250 0.948 . S
C273 C272 1.392 . S
C273 C274 1.419 . S
C274 C273 1.419 . S
C274 C275 1.391 . S
C274 C278 1.397 . S
C275 C270 1.391 . S
C275 C274 1.391 . S
C275 C276 1.399 . S
C276 C275 1.399 . S
C276 C277 1.396 . S
C276 C279 1.453 . S
C276 C280 1.684 . S
C277 C267 1.723 . S
C277 C276 1.396 . S
C277 C278 1.394 . S
C278 C248 1.723 . S
C278 C274 1.397 . S
C278 C277 1.394 . S
C279 H251 0.982 . S
C279 H255 0.979 . S
C279 H256 0.977 . S
C279 C276 1.453 . S
C280 H252 0.979 . S
C280 H253 0.980 . S
C280 H254 0.983 . S
C280 C276 1.684 . S
H281 C299 0.948 . S
H282 C240 0.948 . S
H283 C258 0.979 . S
H284 C258 0.980 . S
H285 C258 0.983 . S
H286 C257 0.982 . S
H287 C257 0.979 . S
H288 C257 0.977 . S
H289 C259 0.948 . S
H290 C261 0.947 . S
H291 C262 0.948 . S
H292 C268 0.982 . S
H293 C268 0.979 . S
H294 C268 0.977 . S
H295 C269 0.979 . S
H296 C269 0.980 . S
H297 C269 0.983 . S
H298 C242 0.947 . S
C299 C242 1.392 . S
C299 C243 1.419 . S
C299 H281 0.948 . S
C300 C301 1.391 . S
C300 C304 1.391 . S
C300 H342 0.948 . S
C301 C300 1.391 . S
C301 C302 1.391 . S
C302 C301 1.391 . S
C302 H358 0.947 . S
C302 C359 1.392 . S
C303 C304 1.391 . S
C303 C307 1.397 . S
C303 C359 1.419 . S
C304 C300 1.391 . S
C304 C303 1.391 . S
C304 C305 1.399 . S
C305 C304 1.399 . S
C305 C308 1.396 . S
C305 C317 1.453 . S
C305 C318 1.684 . S
H306 C330 0.948 . S
C307 C303 1.397 . S
C307 C308 1.394 . S
C307 C326 1.723 . S
C308 C305 1.396 . S
C308 C307 1.394 . S
C308 C338 1.723 . S
H309 C332 0.947 . S
H310 C333 0.948 . S
H311 C339 0.982 . S
H312 C340 0.979 . S
H313 C340 0.980 . S
H314 C340 0.983 . S
H315 C339 0.979 . S
H316 C339 0.977 . S
C317 C305 1.453 . S
C317 H346 0.982 . S
C317 H347 0.979 . S
C317 H348 0.977 . S
C318 C305 1.684 . S
C318 H343 0.979 . S
C318 H344 0.980 . S
C318 H345 0.983 . S
C319 C320 1.391 . S
C319 C324 1.391 . S
C319 H349 0.948 . S
C320 C319 1.391 . S
C320 C321 1.391 . S
C321 C320 1.391 . S
C321 C322 1.392 . S
C321 H350 0.947 . S
C322 C321 1.392 . S
C322 C323 1.419 . S
C322 H351 0.948 . S
C323 C322 1.419 . S
C323 C324 1.391 . S
C323 C327 1.397 . S
C324 C319 1.391 . S
C324 C323 1.391 . S
C324 C325 1.399 . S
C325 C324 1.399 . S
C325 C326 1.396 . S
C325 C328 1.453 . S
C325 C329 1.684 . S
C326 C307 1.723 . S
C326 C325 1.396 . S
C326 C327 1.394 . S
C327 C323 1.397 . S
C327 C326 1.394 . S
C327 C337 1.723 . S
C328 C325 1.453 . S
C328 H352 0.982 . S
C328 H353 0.979 . S
C328 H354 0.977 . S
C329 C325 1.684 . S
C329 H355 0.979 . S
C329 H356 0.980 . S
C329 H357 0.983 . S
C330 H306 0.948 . S
C330 C331 1.391 . S
C330 C335 1.391 . S
C331 C330 1.391 . S
C331 C332 1.391 . S
C332 H309 0.947 . S
C332 C331 1.391 . S
C332 C333 1.392 . S
C333 H310 0.948 . S
C333 C332 1.392 . S
C333 C334 1.419 . S
C334 C333 1.419 . S
C334 C335 1.391 . S
C334 C338 1.397 . S
C335 C330 1.391 . S
C335 C334 1.391 . S
C335 C336 1.399 . S
C336 C335 1.399 . S
C336 C337 1.396 . S
C336 C339 1.453 . S
C336 C340 1.684 . S
C337 C327 1.723 . S
C337 C336 1.396 . S
C337 C338 1.394 . S
C338 C308 1.723 . S
C338 C334 1.397 . S
C338 C337 1.394 . S
C339 H311 0.982 . S
C339 H315 0.979 . S
C339 H316 0.977 . S
C339 C336 1.453 . S
C340 H312 0.979 . S
C340 H313 0.980 . S
C340 H314 0.983 . S
C340 C336 1.684 . S
H341 C359 0.948 . S
H342 C300 0.948 . S
H343 C318 0.979 . S
H344 C318 0.980 . S
H345 C318 0.983 . S
H346 C317 0.982 . S
H347 C317 0.979 . S
H348 C317 0.977 . S
H349 C319 0.948 . S
H350 C321 0.947 . S
H351 C322 0.948 . S
H352 C328 0.982 . S
H353 C328 0.979 . S
H354 C328 0.977 . S
H355 C329 0.979 . S
H356 C329 0.980 . S
H357 C329 0.983 . S
H358 C302 0.947 . S
C359 C302 1.392 . S
C359 C303 1.419 . S
C359 H341 0.948 . S
C360 C361 1.391 . S
C360 C364 1.391 . S
C360 H402 0.948 . S
C361 C360 1.391 . S
C361 C362 1.391 . S
C362 C361 1.391 . S
C362 H418 0.947 . S
C362 C419 1.392 . S
C363 C364 1.391 . S
C363 C367 1.397 . S
C363 C419 1.419 . S
C364 C360 1.391 . S
C364 C363 1.391 . S
C364 C365 1.399 . S
C365 C364 1.399 . S
C365 C368 1.396 . S
C365 C377 1.453 . S
C365 C378 1.684 . S
H366 C390 0.948 . S
C367 C363 1.397 . S
C367 C368 1.394 . S
C367 C386 1.723 . S
C368 C365 1.396 . S
C368 C367 1.394 . S
C368 C398 1.723 . S
H369 C392 0.947 . S
H370 C393 0.948 . S
H371 C399 0.982 . S
H372 C400 0.979 . S
H373 C400 0.980 . S
H374 C400 0.983 . S
H375 C399 0.979 . S
H376 C399 0.977 . S
C377 C365 1.453 . S
C377 H406 0.982 . S
C377 H407 0.979 . S
C377 H408 0.977 . S
C378 C365 1.684 . S
C378 H403 0.979 . S
C378 H404 0.980 . S
C378 H405 0.983 . S
C379 C380 1.391 . S
C379 C384 1.391 . S
C379 H409 0.948 . S
C380 C379 1.391 . S
C380 C381 1.391 . S
C381 C380 1.391 . S
C381 C382 1.392 . S
C381 H410 0.947 . S
C382 C381 1.392 . S
C382 C383 1.419 . S
C382 H411 0.948 . S
C383 C382 1.419 . S
C383 C384 1.391 . S
C383 C387 1.397 . S
C384 C379 1.391 . S
C384 C383 1.391 . S
C384 C385 1.399 . S
C385 C384 1.399 . S
C385 C386 1.396 . S
C385 C388 1.453 . S
C385 C389 1.684 . S
C386 C367 1.723 . S
C386 C385 1.396 . S
C386 C387 1.394 . S
C387 C383 1.397 . S
C387 C386 1.394 . S
C387 C397 1.723 . S
C388 C385 1.453 . S
C388 H412 0.982 . S
C388 H413 0.979 . S
C388 H414 0.977 . S
C389 C385 1.684 . S
C389 H415 0.979 . S
C389 H416 0.980 . S
C389 H417 0.983 . S
C390 H366 0.948 . S
C390 C391 1.391 . S
C390 C395 1.391 . S
C391 C390 1.391 . S
C391 C392 1.391 . S
C392 H369 0.947 . S
C392 C391 1.391 . S
C392 C393 1.392 . S
C393 H370 0.948 . S
C393 C392 1.392 . S
C393 C394 1.419 . S
C394 C393 1.419 . S
C394 C395 1.391 . S
C394 C398 1.397 . S
C395 C390 1.391 . S
C395 C394 1.391 . S
C395 C396 1.399 . S
C396 C395 1.399 . S
C396 C397 1.396 . S
C396 C399 1.453 . S
C396 C400 1.684 . S
C397 C387 1.723 . S
C397 C396 1.396 . S
C397 C398 1.394 . S
C398 C368 1.723 . S
C398 C394 1.397 . S
C398 C397 1.394 . S
C399 H371 0.982 . S
C399 H375 0.979 . S
C399 H376 0.977 . S
C399 C396 1.453 . S
C400 H372 0.979 . S
C400 H373 0.980 . S
C400 H374 0.983 . S
C400 C396 1.684 . S
H401 C419 0.948 . S
H402 C360 0.948 . S
H403 C378 0.979 . S
H404 C378 0.980 . S
H405 C378 0.983 . S
H406 C377 0.982 . S
H407 C377 0.979 . S
H408 C377 0.977 . S
H409 C379 0.948 . S
H410 C381 0.947 . S
H411 C382 0.948 . S
H412 C388 0.982 . S
H413 C388 0.979 . S
H414 C388 0.977 . S
H415 C389 0.979 . S
H416 C389 0.980 . S
H417 C389 0.983 . S
H418 C362 0.947 . S
C419 C362 1.392 . S
C419 C363 1.419 . S
C419 H401 0.948 . S
C420 C421 1.391 . S
C420 C424 1.391 . S
C420 H462 0.948 . S
C421 C420 1.391 . S
C421 C422 1.391 . S
C422 C421 1.391 . S
C422 H478 0.947 . S
C422 C479 1.392 . S
C423 C424 1.391 . S
C423 C427 1.397 . S
C423 C479 1.419 . S
C424 C420 1.391 . S
C424 C423 1.391 . S
C424 C425 1.399 . S
C425 C424 1.399 . S
C425 C428 1.396 . S
C425 C437 1.453 . S
C425 C438 1.684 . S
H426 C450 0.948 . S
C427 C423 1.397 . S
C427 C428 1.394 . S
C427 C446 1.723 . S
C428 C425 1.396 . S
C428 C427 1.394 . S
C428 C458 1.723 . S
H429 C452 0.947 . S
H430 C453 0.948 . S
H431 C459 0.982 . S
H432 C460 0.979 . S
H433 C460 0.980 . S
H434 C460 0.983 . S
H435 C459 0.979 . S
H436 C459 0.977 . S
C437 C425 1.453 . S
C437 H466 0.982 . S
C437 H467 0.979 . S
C437 H468 0.977 . S
C438 C425 1.684 . S
C438 H463 0.979 . S
C438 H464 0.980 . S
C438 H465 0.983 . S
C439 C440 1.391 . S
C439 C444 1.391 . S
C439 H469 0.948 . S
C440 C439 1.391 . S
C440 C441 1.391 . S
C441 C440 1.391 . S
C441 C442 1.392 . S
C441 H470 0.947 . S
C442 C441 1.392 . S
C442 C443 1.419 . S
C442 H471 0.948 . S
C443 C442 1.419 . S
C443 C444 1.391 . S
C443 C447 1.397 . S
C444 C439 1.391 . S
C444 C443 1.391 . S
C444 C445 1.399 . S
C445 C444 1.399 . S
C445 C446 1.396 . S
C445 C448 1.453 . S
C445 C449 1.684 . S
C446 C427 1.723 . S
C446 C445 1.396 . S
C446 C447 1.394 . S
C447 C443 1.397 . S
C447 C446 1.394 . S
C447 C457 1.723 . S
C448 C445 1.453 . S
C448 H472 0.982 . S
C448 H473 0.979 . S
C448 H474 0.977 . S
C449 C445 1.684 . S
C449 H475 0.979 . S
C449 H476 0.980 . S
C449 H477 0.983 . S
C450 H426 0.948 . S
C450 C451 1.391 . S
C450 C455 1.391 . S
C451 C450 1.391 . S
C451 C452 1.391 . S
C452 H429 0.947 . S
C452 C451 1.391 . S
C452 C453 1.392 . S
C453 H430 0.948 . S
C453 C452 1.392 . S
C453 C454 1.419 . S
C454 C453 1.419 . S
C454 C455 1.391 . S
C454 C458 1.397 . S
C455 C450 1.391 . S
C455 C454 1.391 . S
C455 C456 1.399 . S
C456 C455 1.399 . S
C456 C457 1.396 . S
C456 C459 1.453 . S
C456 C460 1.684 . S
C457 C447 1.723 . S
C457 C456 1.396 . S
C457 C458 1.394 . S
C458 C428 1.723 . S
C458 C454 1.397 . S
C458 C457 1.394 . S
C459 H431 0.982 . S
C459 H435 0.979 . S
C459 H436 0.977 . S
C459 C456 1.453 . S
C460 H432 0.979 . S
C460 H433 0.980 . S
C460 H434 0.983 . S
C460 C456 1.684 . S
H461 C479 0.948 . S
H462 C420 0.948 . S
H463 C438 0.979 . S
H464 C438 0.980 . S
H465 C438 0.983 . S
H466 C437 0.982 . S
H467 C437 0.979 . S
H468 C437 0.977 . S
H469 C439 0.948 . S
H470 C441 0.947 . S
H471 C442 0.948 . S
H472 C448 0.982 . S
H473 C448 0.979 . S
H474 C448 0.977 . S
H475 C449 0.979 . S
H476 C449 0.980 . S
H477 C449 0.983 . S
H478 C422 0.947 . S
C479 C422 1.392 . S
C479 C423 1.419 . S
C479 H461 0.948 . S
C480 C481 1.391 . S
C480 C484 1.391 . S
C480 H522 0.948 . S
C481 C480 1.391 . S
C481 C482 1.391 . S
C482 C481 1.391 . S
C482 H538 0.947 . S
C482 C539 1.392 . S
C483 C484 1.391 . S
C483 C487 1.397 . S
C483 C539 1.419 . S
C484 C480 1.391 . S
C484 C483 1.391 . S
C484 C485 1.399 . S
C485 C484 1.399 . S
C485 C488 1.396 . S
C485 C497 1.453 . S
C485 C498 1.684 . S
H486 C510 0.948 . S
C487 C483 1.397 . S
C487 C488 1.394 . S
C487 C506 1.723 . S
C488 C485 1.396 . S
C488 C487 1.394 . S
C488 C518 1.723 . S
H489 C512 0.947 . S
H490 C513 0.948 . S
H491 C519 0.982 . S
H492 C520 0.979 . S
H493 C520 0.980 . S
H494 C520 0.983 . S
H495 C519 0.979 . S
H496 C519 0.977 . S
C497 C485 1.453 . S
C497 H526 0.982 . S
C497 H527 0.979 . S
C497 H528 0.977 . S
C498 C485 1.684 . S
C498 H523 0.979 . S
C498 H524 0.980 . S
C498 H525 0.983 . S
C499 C500 1.391 . S
C499 C504 1.391 . S
C499 H529 0.948 . S
C500 C499 1.391 . S
C500 C501 1.391 . S
C501 C500 1.391 . S
C501 C502 1.392 . S
C501 H530 0.947 . S
C502 C501 1.392 . S
C502 C503 1.419 . S
C502 H531 0.948 . S
C503 C502 1.419 . S
C503 C504 1.391 . S
C503 C507 1.397 . S
C504 C499 1.391 . S
C504 C503 1.391 . S
C504 C505 1.399 . S
C505 C504 1.399 . S
C505 C506 1.396 . S
C505 C508 1.453 . S
C505 C509 1.684 . S
C506 C487 1.723 . S
C506 C505 1.396 . S
C506 C507 1.394 . S
C507 C503 1.397 . S
C507 C506 1.394 . S
C507 C517 1.723 . S
C508 C505 1.453 . S
C508 H532 0.982 . S
C508 H533 0.979 . S
C508 H534 0.977 . S
C509 C505 1.684 . S
C509 H535 0.979 . S
C509 H536 0.980 . S
C509 H537 0.983 . S
C510 H486 0.948 . S
C510 C511 1.391 . S
C510 C515 1.391 . S
C511 C510 1.391 . S
C511 C512 1.391 . S
C512 H489 0.947 . S
C512 C511 1.391 . S
C512 C513 1.392 . S
C513 H490 0.948 . S
C513 C512 1.392 . S
C513 C514 1.419 . S
C514 C513 1.419 . S
C514 C515 1.391 . S
C514 C518 1.397 . S
C515 C510 1.391 . S
C515 C514 1.391 . S
C515 C516 1.399 . S
C516 C515 1.399 . S
C516 C517 1.396 . S
C516 C519 1.453 . S
C516 C520 1.684 . S
C517 C507 1.723 . S
C517 C516 1.396 . S
C517 C518 1.394 . S
C518 C488 1.723 . S
C518 C514 1.397 . S
C518 C517 1.394 . S
C519 H491 0.982 . S
C519 H495 0.979 . S
C519 H496 0.977 . S
C519 C516 1.453 . S
C520 H492 0.979 . S
C520 H493 0.980 . S
C520 H494 0.983 . S
C520 C516 1.684 . S
H521 C539 0.948 . S
H522 C480 0.948 . S
H523 C498 0.979 . S
H524 C498 0.980 . S
H525 C498 0.983 . S
H526 C497 0.982 . S
H527 C497 0.979 . S
H528 C497 0.977 . S
H529 C499 0.948 . S
H530 C501 0.947 . S
H531 C502 0.948 . S
H532 C508 0.982 . S
H533 C508 0.979 . S
H534 C508 0.977 . S
H535 C509 0.979 . S
H536 C509 0.980 . S
H537 C509 0.983 . S
H538 C482 0.947 . S
C539 C482 1.392 . S
C539 C483 1.419 . S
C539 H521 0.948 . S
C540 C541 1.391 . S
C540 C544 1.391 . S
C540 H582 0.948 . S
C541 C540 1.391 . S
C541 C542 1.391 . S
C542 C541 1.391 . S
C542 H598 0.947 . S
C542 C599 1.392 . S
C543 C544 1.391 . S
C543 C547 1.397 . S
C543 C599 1.419 . S
C544 C540 1.391 . S
C544 C543 1.391 . S
C544 C545 1.399 . S
C545 C544 1.399 . S
C545 C548 1.396 . S
C545 C557 1.453 . S
C545 C558 1.684 . S
H546 C570 0.948 . S
C547 C543 1.397 . S
C547 C548 1.394 . S
C547 C566 1.723 . S
C548 C545 1.396 . S
C548 C547 1.394 . S
C548 C578 1.723 . S
H549 C572 0.947 . S
H550 C573 0.948 . S
H551 C579 0.982 . S
H552 C580 0.979 . S
H553 C580 0.980 . S
H554 C580 0.983 . S
H555 C579 0.979 . S
H556 C579 0.977 . S
C557 C545 1.453 . S
C557 H586 0.982 . S
C557 H587 0.979 . S
C557 H588 0.977 . S
C558 C545 1.684 . S
C558 H583 0.979 . S
C558 H584 0.980 . S
C558 H585 0.983 . S
C559 C560 1.391 . S
C559 C564 1.391 . S
C559 H589 0.948 . S
C560 C559 1.391 . S
C560 C561 1.391 . S
C561 C560 1.391 . S
C561 C562 1.392 . S
C561 H590 0.947 . S
C562 C561 1.392 . S
C562 C563 1.419 . S
C562 H591 0.948 . S
C563 C562 1.419 . S
C563 C564 1.391 . S
C563 C567 1.397 . S
C564 C559 1.391 . S
C564 C563 1.391 . S
C564 C565 1.399 . S
C565 C564 1.399 . S
C565 C566 1.396 . S
C565 C568 1.453 . S
C565 C569 1.684 . S
C566 C547 1.723 . S
C566 C565 1.396 . S
C566 C567 1.394 . S
C567 C563 1.397 . S
C567 C566 1.394 . S
C567 C577 1.723 . S
C568 C565 1.453 . S
C568 H592 0.982 . S
C568 H593 0.979 . S
C568 H594 0.977 . S
C569 C565 1.684 . S
C569 H595 0.979 . S
C569 H596 0.980 . S
C569 H597 0.983 . S
C570 H546 0.948 . S
C570 C571 1.391 . S
C570 C575 1.391 . S
C571 C570 1.391 . S
C571 C572 1.391 . S
C572 H549 0.947 . S
C572 C571 1.391 . S
C572 C573 1.392 . S
C573 H550 0.948 . S
C573 C572 1.392 . S
C573 C574 1.419 . S
C574 C573 1.419 . S
C574 C575 1.391 . S
C574 C578 1.397 . S
C575 C570 1.391 . S
C575 C574 1.391 . S
C575 C576 1.399 . S
C576 C575 1.399 . S
C576 C577 1.396 . S
C576 C579 1.453 . S
C576 C580 1.684 . S
C577 C567 1.723 . S
C577 C576 1.396 . S
C577 C578 1.394 . S
C578 C548 1.723 . S
C578 C574 1.397 . S
C578 C577 1.394 . S
C579 H551 0.982 . S
C579 H555 0.979 . S
C579 H556 0.977 . S
C579 C576 1.453 . S
C580 H552 0.979 . S
C580 H553 0.980 . S
C580 H554 0.983 . S
C580 C576 1.684 . S
H581 C599 0.948 . S
H582 C540 0.948 . S
H583 C558 0.979 . S
H584 C558 0.980 . S
H585 C558 0.983 . S
H586 C557 0.982 . S
H587 C557 0.979 . S
H588 C557 0.977 . S
H589 C559 0.948 . S
H590 C561 0.947 . S
H591 C562 0.948 . S
H592 C568 0.982 . S
H593 C568 0.979 . S
H594 C568 0.977 . S
H595 C569 0.979 . S
H596 C569 0.980 . S
H597 C569 0.983 . S
H598 C542 0.947 . S
C599 C542 1.392 . S
C599 C543 1.419 . S
C599 H581 0.948 . S
C600 C601 1.391 . S
C600 C604 1.391 . S
C600 H642 0.948 . S
C601 C600 1.391 . S
C601 C602 1.391 . S
C602 C601 1.391 . S
C602 H658 0.947 . S
C602 C659 1.392 . S
C603 C604 1.391 . S
C603 C607 1.397 . S
C603 C659 1.419 . S
C604 C600 1.391 . S
C604 C603 1.391 . S
C604 C605 1.399 . S
C605 C604 1.399 . S
C605 C608 1.396 . S
C605 C617 1.453 . S
C605 C618 1.684 . S
H606 C630 0.948 . S
C607 C603 1.397 . S
C607 C608 1.394 . S
C607 C626 1.723 . S
C608 C605 1.396 . S
C608 C607 1.394 . S
C608 C638 1.723 . S
H609 C632 0.947 . S
H610 C633 0.948 . S
H611 C639 0.982 . S
H612 C640 0.979 . S
H613 C640 0.980 . S
H614 C640 0.983 . S
H615 C639 0.979 . S
H616 C639 0.977 . S
C617 C605 1.453 . S
C617 H646 0.982 . S
C617 H647 0.979 . S
C617 H648 0.977 . S
C618 C605 1.684 . S
C618 H643 0.979 . S
C618 H644 0.980 . S
C618 H645 0.983 . S
C619 C620 1.391 . S
C619 C624 1.391 . S
C619 H649 0.948 . S
C620 C619 1.391 . S
C620 C621 1.391 . S
C621 C620 1.391 . S
C621 C622 1.392 . S
C621 H650 0.947 . S
C622 C621 1.392 . S
C622 C623 1.419 . S
C622 H651 0.948 . S
C623 C622 1.419 . S
C623 C624 1.391 . S
C623 C627 1.397 . S
C624 C619 1.391 . S
C624 C623 1.391 . S
C624 C625 1.399 . S
C625 C624 1.399 . S
C625 C626 1.396 . S
C625 C628 1.453 . S
C625 C629 1.684 . S
C626 C607 1.723 . S
C626 C625 1.396 . S
C626 C627 1.394 . S
C627 C623 1.397 . S
C627 C626 1.394 . S
C627 C637 1.723 . S
C628 C625 1.453 . S
C628 H652 0.982 . S
C628 H653 0.979 . S
C628 H654 0.977 . S
C629 C625 1.684 . S
C629 H655 0.979 . S
C629 H656 0.980 . S
C629 H657 0.983 . S
C630 H606 0.948 . S
C630 C631 1.391 . S
C630 C635 1.391 . S
C631 C630 1.391 . S
C631 C632 1.391 . S
C632 H609 0.947 . S
C632 C631 1.391 . S
C632 C633 1.392 . S
C633 H610 0.948 . S
C633 C632 1.392 . S
C633 C634 1.419 . S
C634 C633 1.419 . S
C634 C635 1.391 . S
C634 C638 1.397 . S
C635 C630 1.391 . S
C635 C634 1.391 . S
C635 C636 1.399 . S
C636 C635 1.399 . S
C636 C637 1.396 . S
C636 C639 1.453 . S
C636 C640 1.684 . S
C637 C627 1.723 . S
C637 C636 1.396 . S
C637 C638 1.394 . S
C638 C608 1.723 . S
C638 C634 1.397 . S
C638 C637 1.394 . S
C639 H611 0.982 . S
C639 H615 0.979 . S
C639 H616 0.977 . S
C639 C636 1.453 . S
C640 H612 0.979 . S
C640 H613 0.980 . S
C640 H614 0.983 . S
C640 C636 1.684 . S
H641 C659 0.948 . S
H642 C600 0.948 . S
H643 C618 0.979 . S
H644 C618 0.980 . S
H645 C618 0.983 . S
H646 C617 0.982 . S
H647 C617 0.979 . S
H648 C617 0.977 . S
H649 C619 0.948 . S
H650 C621 0.947 . S
H651 C622 0.948 . S
H652 C628 0.982 . S
H653 C628 0.979 . S
H654 C628 0.977 . S
H655 C629 0.979 . S
H656 C629 0.980 . S
H657 C629 0.983 . S
H658 C602 0.947 . S
C659 C602 1.392 . S
C659 C603 1.419 . S
C659 H641 0.948 . S
C660 C661 1.391 . S
C660 C664 1.391 . S
C660 H702 0.948 . S
C661 C660 1.391 . S
C661 C662 1.391 . S
C662 C661 1.391 . S
C662 H718 0.947 . S
C662 C719 1.392 . S
C663 C664 1.391 . S
C663 C667 1.397 . S
C663 C719 1.419 . S
C664 C660 1.391 . S
C664 C663 1.391 . S
C664 C665 1.399 . S
C665 C664 1.399 . S
C665 C668 1.396 . S
C665 C677 1.453 . S
C665 C678 1.684 . S
H666 C690 0.948 . S
C667 C663 1.397 . S
C667 C668 1.394 . S
C667 C686 1.723 . S
C668 C665 1.396 . S
C668 C667 1.394 . S
C668 C698 1.723 . S
H669 C692 0.947 . S
H670 C693 0.948 . S
H671 C699 0.982 . S
H672 C700 0.979 . S
H673 C700 0.980 . S
H674 C700 0.983 . S
H675 C699 0.979 . S
H676 C699 0.977 . S
C677 C665 1.453 . S
C677 H706 0.982 . S
C677 H707 0.979 . S
C677 H708 0.977 . S
C678 C665 1.684 . S
C678 H703 0.979 . S
C678 H704 0.980 . S
C678 H705 0.983 . S
C679 C680 1.391 . S
C679 C684 1.391 . S
C679 H709 0.948 . S
C680 C679 1.391 . S
C680 C681 1.391 . S
C681 C680 1.391 . S
C681 C682 1.392 . S
C681 H710 0.947 . S
C682 C681 1.392 . S
C682 C683 1.419 . S
C682 H711 0.948 . S
C683 C682 1.419 . S
C683 C684 1.391 . S
C683 C687 1.397 . S
C684 C679 1.391 . S
C684 C683 1.391 . S
C684 C685 1.399 . S
C685 C684 1.399 . S
C685 C686 1.396 . S
C685 C688 1.453 . S
C685 C689 1.684 . S
C686 C667 1.723 . S
C686 C685 1.396 . S
C686 C687 1.394 . S
C687 C683 1.397 . S
C687 C686 1.394 . S
C687 C697 1.723 . S
C688 C685 1.453 . S
C688 H712 0.982 . S
C688 H713 0.979 . S
C688 H714 0.977 . S
C689 C685 1.684 . S
C689 H715 0.979 . S
C689 H716 0.980 . S
C689 H717 0.983 . S
C690 H666 0.948 . S
C690 C691 1.391 . S
C690 C695 1.391 . S
C691 C690 1.391 . S
C691 C692 1.391 . S
C692 H669 0.947 . S
C692 C691 1.391 . S
C692 C693 1.392 . S
C693 H670 0.948 . S
C693 C692 1.392 . S
C693 C694 1.419 . S
C694 C693 1.419 . S
C694 C695 1.391 . S
C694 C698 1.397 . S
C695 C690 1.391 . S
C695 C694 1.391 . S
C695 C696 1.399 . S
C696 C695 1.399 . S
C696 C697 1.396 . S
C696 C699 1.453 . S
C696 C700 1.684 . S
C697 C687 1.723 . S
C697 C696 1.396 . S
C697 C698 1.394 . S
C698 C668 1.723 . S
C698 C694 1.397 . S
C698 C697 1.394 . S
C699 H671 0.982 . S
C699 H675 0.979 . S
C699 H676 0.977 . S
C699 C696 1.453 . S
C700 H672 0.979 . S
C700 H673 0.980 . S
C700 H674 0.983 . S
C700 C696 1.684 . S
H701 C719 0.948 . S
H702 C660 0.948 . S
H703 C678 0.979 . S
H704 C678 0.980 . S
H705 C678 0.983 . S
H706 C677 0.982 . S
H707 C677 0.979 . S
H708 C677 0.977 . S
H709 C679 0.948 . S
H710 C681 0.947 . S
H711 C682 0.948 . S
H712 C688 0.982 . S
H713 C688 0.979 . S
H714 C688 0.977 . S
H715 C689 0.979 . S
H716 C689 0.980 . S
H717 C689 0.983 . S
H718 C662 0.947 . S
C719 C662 1.392 . S
C719 C663 1.419 . S
C719 H701 0.948 . S
C720 C721 1.391 . S
C720 C724 1.391 . S
C720 H762 0.948 . S
C721 C720 1.391 . S
C721 C722 1.391 . S
C722 C721 1.391 . S
C722 H778 0.947 . S
C722 C779 1.392 . S
C723 C724 1.391 . S
C723 C727 1.397 . S
C723 C779 1.419 . S
C724 C720 1.391 . S
C724 C723 1.391 . S
C724 C725 1.399 . S
C725 C724 1.399 . S
C725 C728 1.396 . S
C725 C737 1.453 . S
C725 C738 1.684 . S
H726 C750 0.948 . S
C727 C723 1.397 . S
C727 C728 1.394 . S
C727 C746 1.723 . S
C728 C725 1.396 . S
C728 C727 1.394 . S
C728 C758 1.723 . S
H729 C752 0.947 . S
H730 C753 0.948 . S
H731 C759 0.982 . S
H732 C760 0.979 . S
H733 C760 0.980 . S
H734 C760 0.983 . S
H735 C759 0.979 . S
H736 C759 0.977 . S
C737 C725 1.453 . S
C737 H766 0.982 . S
C737 H767 0.979 . S
C737 H768 0.977 . S
C738 C725 1.684 . S
C738 H763 0.979 . S
C738 H764 0.980 . S
C738 H765 0.983 . S
C739 C740 1.391 . S
C739 C744 1.391 . S
C739 H769 0.948 . S
C740 C739 1.391 . S
C740 C741 1.391 . S
C741 C740 1.391 . S
C741 C742 1.392 . S
C741 H770 0.947 . S
C742 C741 1.392 . S
C742 C743 1.419 . S
C742 H771 0.948 . S
C743 C742 1.419 . S
C743 C744 1.391 . S
C743 C747 1.397 . S
C744 C739 1.391 . S
C744 C743 1.391 . S
C744 C745 1.399 . S
C745 C744 1.399 . S
C745 C746 1.396 . S
C745 C748 1.453 . S
C745 C749 1.684 . S
C746 C727 1.723 . S
C746 C745 1.396 . S
C746 C747 1.394 . S
C747 C743 1.397 . S
C747 C746 1.394 . S
C747 C757 1.723 . S
C748 C745 1.453 . S
C748 H772 0.982 . S
C748 H773 0.979 . S
C748 H774 0.977 . S
C749 C745 1.684 . S
C749 H775 0.979 . S
C749 H776 0.980 . S
C749 H777 0.983 . S
C750 H726 0.948 . S
C750 C751 1.391 . S
C750 C755 1.391 . S
C751 C750 1.391 . S
C751 C752 1.391 . S
C752 H729 0.947 . S
C752 C751 1.391 . S
C752 C753 1.392 . S
C753 H730 0.948 . S
C753 C752 1.392 . S
C753 C754 1.419 . S
C754 C753 1.419 . S
C754 C755 1.391 . S
C754 C758 1.397 . S
C755 C750 1.391 . S
C755 C754 1.391 . S
C755 C756 1.399 . S
C756 C755 1.399 . S
C756 C757 1.396 . S
C756 C759 1.453 . S
C756 C760 1.684 . S
C757 C747 1.723 . S
C757 C756 1.396 . S
C757 C758 1.394 . S
C758 C728 1.723 . S
C758 C754 1.397 . S
C758 C757 1.394 . S
C759 H731 0.982 . S
C759 H735 0.979 . S
C759 H736 0.977 . S
C759 C756 1.453 . S
C760 H732 0.979 . S
C760 H733 0.980 . S
C760 H734 0.983 . S
C760 C756 1.684 . S
H761 C779 0.948 . S
H762 C720 0.948 . S
H763 C738 0.979 . S
H764 C738 0.980 . S
H765 C738 0.983 . S
H766 C737 0.982 . S
H767 C737 0.979 . S
H768 C737 0.977 . S
H769 C739 0.948 . S
H770 C741 0.947 . S
H771 C742 0.948 . S
H772 C748 0.982 . S
H773 C748 0.979 . S
H774 C748 0.977 . S
H775 C749 0.979 . S
H776 C749 0.980 . S
H777 C749 0.983 . S
H778 C722 0.947 . S
C779 C722 1.392 . S
C779 C723 1.419 . S
C779 H761 0.948 . S
C780 C781 1.391 . S
C780 C784 1.391 . S
C780 H822 0.948 . S
C781 C780 1.391 . S
C781 C782 1.391 . S
C782 C781 1.391 . S
C782 H838 0.947 . S
C782 C839 1.392 . S
C783 C784 1.391 . S
C783 C787 1.397 . S
C783 C839 1.419 . S
C784 C780 1.391 . S
C784 C783 1.391 . S
C784 C785 1.399 . S
C785 C784 1.399 . S
C785 C788 1.396 . S
C785 C797 1.453 . S
C785 C798 1.684 . S
H786 C810 0.948 . S
C787 C783 1.397 . S
C787 C788 1.394 . S
C787 C806 1.723 . S
C788 C785 1.396 . S
C788 C787 1.394 . S
C788 C818 1.723 . S
H789 C812 0.947 . S
H790 C813 0.948 . S
H791 C819 0.982 . S
H792 C820 0.979 . S
H793 C820 0.980 . S
H794 C820 0.983 . S
H795 C819 0.979 . S
H796 C819 0.977 . S
C797 C785 1.453 . S
C797 H826 0.982 . S
C797 H827 0.979 . S
C797 H828 0.977 . S
C798 C785 1.684 . S
C798 H823 0.979 . S
C798 H824 0.980 . S
C798 H825 0.983 . S
C799 C800 1.391 . S
C799 C804 1.391 . S
C799 H829 0.948 . S
C800 C799 1.391 . S
C800 C801 1.391 . S
C801 C800 1.391 . S
C801 C802 1.392 . S
C801 H830 0.947 . S
C802 C801 1.392 . S
C802 C803 1.419 . S
C802 H831 0.948 . S
C803 C802 1.419 . S
C803 C804 1.391 . S
C803 C807 1.397 . S
C804 C799 1.391 . S
C804 C803 1.391 . S
C804 C805 1.399 . S
C805 C804 1.399 . S
C805 C806 1.396 . S
C805 C808 1.453 . S
C805 C809 1.684 . S
C806 C787 1.723 . S
C806 C805 1.396 . S
C806 C807 1.394 . S
C807 C803 1.397 . S
C807 C806 1.394 . S
C807 C817 1.723 . S
C808 C805 1.453 . S
C808 H832 0.982 . S
C808 H833 0.979 . S
C808 H834 0.977 . S
C809 C805 1.684 . S
C809 H835 0.979 . S
C809 H836 0.980 . S
C809 H837 0.983 . S
C810 H786 0.948 . S
C810 C811 1.391 . S
C810 C815 1.391 . S
C811 C810 1.391 . S
C811 C812 1.391 . S
C812 H789 0.947 . S
C812 C811 1.391 . S
C812 C813 1.392 . S
C813 H790 0.948 . S
C813 C812 1.392 . S
C813 C814 1.419 . S
C814 C813 1.419 . S
C814 C815 1.391 . S
C814 C818 1.397 . S
C815 C810 1.391 . S
C815 C814 1.391 . S
C815 C816 1.399 . S
C816 C815 1.399 . S
C816 C817 1.396 . S
C816 C819 1.453 . S
C816 C820 1.684 . S
C817 C807 1.723 . S
C817 C816 1.396 . S
C817 C818 1.394 . S
C818 C788 1.723 . S
C818 C814 1.397 . S
C818 C817 1.394 . S
C819 H791 0.982 . S
C819 H795 0.979 . S
C819 H796 0.977 . S
C819 C816 1.453 . S
C820 H792 0.979 . S
C820 H793 0.980 . S
C820 H794 0.983 . S
C820 C816 1.684 . S
H821 C839 0.948 . S
H822 C780 0.948 . S
H823 C798 0.979 . S
H824 C798 0.980 . S
H825 C798 0.983 . S
H826 C797 0.982 . S
H827 C797 0.979 . S
H828 C797 0.977 . S
H829 C799 0.948 . S
H830 C801 0.947 . S
H831 C802 0.948 . S
H832 C808 0.982 . S
H833 C808 0.979 . S
H834 C808 0.977 . S
H835 C809 0.979 . S
H836 C809 0.980 . S
H837 C809 0.983 . S
H838 C782 0.947 . S
C839 C782 1.392 . S
C839 C783 1.419 . S
C839 H821 0.948 . S
C840 C841 1.391 . S
C840 C844 1.391 . S
C840 H882 0.948 . S
C841 C840 1.391 . S
C841 C842 1.391 . S
C842 C841 1.391 . S
C842 H898 0.947 . S
C842 C899 1.392 . S
C843 C844 1.391 . S
C843 C847 1.397 . S
C843 C899 1.419 . S
C844 C840 1.391 . S
C844 C843 1.391 . S
C844 C845 1.399 . S
C845 C844 1.399 . S
C845 C848 1.396 . S
C845 C857 1.453 . S
C845 C858 1.684 . S
H846 C870 0.948 . S
C847 C843 1.397 . S
C847 C848 1.394 . S
C847 C866 1.723 . S
C848 C845 1.396 . S
C848 C847 1.394 . S
C848 C878 1.723 . S
H849 C872 0.947 . S
H850 C873 0.948 . S
H851 C879 0.982 . S
H852 C880 0.979 . S
H853 C880 0.980 . S
H854 C880 0.983 . S
H855 C879 0.979 . S
H856 C879 0.977 . S
C857 C845 1.453 . S
C857 H886 0.982 . S
C857 H887 0.979 . S
C857 H888 0.977 . S
C858 C845 1.684 . S
C858 H883 0.979 . S
C858 H884 0.980 . S
C858 H885 0.983 . S
C859 C860 1.391 . S
C859 C864 1.391 . S
C859 H889 0.948 . S
C860 C859 1.391 . S
C860 C861 1.391 . S
C861 C860 1.391 . S
C861 C862 1.392 . S
C861 H890 0.947 . S
C862 C861 1.392 . S
C862 C863 1.419 . S
C862 H891 0.948 . S
C863 C862 1.419 . S
C863 C864 1.391 . S
C863 C867 1.397 . S
C864 C859 1.391 . S
C864 C863 1.391 . S
C864 C865 1.399 . S
C865 C864 1.399 . S
C865 C866 1.396 . S
C865 C868 1.453 . S
C865 C869 1.684 . S
C866 C847 1.723 . S
C866 C865 1.396 . S
C866 C867 1.394 . S
C867 C863 1.397 . S
C867 C866 1.394 . S
C867 C877 1.723 . S
C868 C865 1.453 . S
C868 H892 0.982 . S
C868 H893 0.979 . S
C868 H894 0.977 . S
C869 C865 1.684 . S
C869 H895 0.979 . S
C869 H896 0.980 . S
C869 H897 0.983 . S
C870 H846 0.948 . S
C870 C871 1.391 . S
C870 C875 1.391 . S
C871 C870 1.391 . S
C871 C872 1.391 . S
C872 H849 0.947 . S
C872 C871 1.391 . S
C872 C873 1.392 . S
C873 H850 0.948 . S
C873 C872 1.392 . S
C873 C874 1.419 . S
C874 C873 1.419 . S
C874 C875 1.391 . S
C874 C878 1.397 . S
C875 C870 1.391 . S
C875 C874 1.391 . S
C875 C876 1.399 . S
C876 C875 1.399 . S
C876 C877 1.396 . S
C876 C879 1.453 . S
C876 C880 1.684 . S
C877 C867 1.723 . S
C877 C876 1.396 . S
C877 C878 1.394 . S
C878 C848 1.723 . S
C878 C874 1.397 . S
C878 C877 1.394 . S
C879 H851 0.982 . S
C879 H855 0.979 . S
C879 H856 0.977 . S
C879 C876 1.453 . S
C880 H852 0.979 . S
C880 H853 0.980 . S
C880 H854 0.983 . S
C880 C876 1.684 . S
H881 C899 0.948 . S
H882 C840 0.948 . S
H883 C858 0.979 . S
H884 C858 0.980 . S
H885 C858 0.983 . S
H886 C857 0.982 . S
H887 C857 0.979 . S
H888 C857 0.977 . S
H889 C859 0.948 . S
H890 C861 0.947 . S
H891 C862 0.948 . S
H892 C868 0.982 . S
H893 C868 0.979 . S
H894 C868 0.977 . S
H895 C869 0.979 . S
H896 C869 0.980 . S
H897 C869 0.983 . S
H898 C842 0.947 . S
C899 C842 1.392 . S
C899 C843 1.419 . S
C899 H881 0.948 . S
C900 C901 1.391 . S
C900 C904 1.391 . S
C900 H942 0.948 . S
C901 C900 1.391 . S
C901 C902 1.391 . S
C902 C901 1.391 . S
C902 H958 0.947 . S
C902 C959 1.392 . S
C903 C904 1.391 . S
C903 C907 1.397 . S
C903 C959 1.419 . S
C904 C900 1.391 . S
C904 C903 1.391 . S
C904 C905 1.399 . S
C905 C904 1.399 . S
C905 C908 1.396 . S
C905 C917 1.453 . S
C905 C918 1.684 . S
H906 C930 0.948 . S
C907 C903 1.397 . S
C907 C908 1.394 . S
C907 C926 1.723 . S
C908 C905 1.396 . S
C908 C907 1.394 . S
C908 C938 1.723 . S
H909 C932 0.947 . S
H910 C933 0.948 . S
H911 C939 0.982 . S
H912 C940 0.979 . S
H913 C940 0.980 . S
H914 C940 0.983 . S
H915 C939 0.979 . S
H916 C939 0.977 . S
C917 C905 1.453 . S
C917 H946 0.982 . S
C917 H947 0.979 . S
C917 H948 0.977 . S
C918 C905 1.684 . S
C918 H943 0.979 . S
C918 H944 0.980 . S
C918 H945 0.983 . S
C919 C920 1.391 . S
C919 C924 1.391 . S
C919 H949 0.948 . S
C920 C919 1.391 . S
C920 C921 1.391 . S
C921 C920 1.391 . S
C921 C922 1.392 . S
C921 H950 0.947 . S
C922 C921 1.392 . S
C922 C923 1.419 . S
C922 H951 0.948 . S
C923 C922 1.419 . S
C923 C924 1.391 . S
C923 C927 1.397 . S
C924 C919 1.391 . S
C924 C923 1.391 . S
C924 C925 1.399 . S
C925 C924 1.399 . S
C925 C926 1.396 . S
C925 C928 1.453 . S
C925 C929 1.684 . S
C926 C907 1.723 . S
C926 C925 1.396 . S
C926 C927 1.394 . S
C927 C923 1.397 . S
C927 C926 1.394 . S
C927 C937 1.723 . S
C928 C925 1.453 . S
C928 H952 0.982 . S
C928 H953 0.979 . S
C928 H954 0.977 . S
C929 C925 1.684 . S
C929 H955 0.979 . S
C929 H956 0.980 . S
C929 H957 0.983 . S
C930 H906 0.948 . S
C930 C931 1.391 . S
C930 C935 1.391 . S
C931 C930 1.391 . S
C931 C932 1.391 . S
C932 H909 0.947 . S
C932 C931 1.391 . S
C932 C933 1.392 . S
C933 H910 0.948 . S
C933 C932 1.392 . S
C933 C934 1.419 . S
C934 C933 1.419 . S
C934 C935 1.391 . S
C934 C938 1.397 . S
C935 C930 1.391 . S
C935 C934 1.391 . S
C935 C936 1.399 . S
C936 C935 1.399 . S
C936 C937 1.396 . S
C936 C939 1.453 . S
C936 C940 1.684 . S
C937 C927 1.723 . S
C937 C936 1.396 . S
C937 C938 1.394 . S
C938 C908 1.723 . S
C938 C934 1.397 . S
C938 C937 1.394 . S
C939 H911 0.982 . S
C939 H915 0.979 . S
C939 H916 0.977 . S
C939 C936 1.453 . S
C940 H912 0.979 . S
C940 H913 0.980 . S
C940 H914 0.983 . S
C940 C936 1.684 . S
H941 C959 0.948 . S
H942 C900 0.948 . S
H943 C918 0.979 . S
H944 C918 0.980 . S
H945 C918 0.983 . S
H946 C917 0.982 . S
H947 C917 0.979 . S
H948 C917 0.977 . S
H949 C919 0.948 . S
H950 C921 0.947 . S
H951 C922 0.948 . S
H952 C928 0.982 . S
H953 C928 0.979 . S
H954 C928 0.977 . S
H955 C929 0.979 . S
H956 C929 0.980 . S
H957 C929 0.983 . S
H958 C902 0.947 . S
C959 C902 1.392 . S
C959 C903 1.419 . S
C959 H941 0.948 . S
C960 C961 1.391 . S
C960 C964 1.391 . S
C960 H1002 0.948 . S
C961 C960 1.391 . S
C961 C962 1.391 . S
C962 C961 1.391 . S
C962 H1018 0.947 . S
C962 C1019 1.392 . S
C963 C964 1.391 . S
C963 C967 1.397 . S
C963 C1019 1.419 . S
C964 C960 1.391 . S
C964 C963 1.391 . S
C964 C965 1.399 . S
C965 C964 1.399 . S
C965 C968 1.396 . S
C965 C977 1.453 . S
C965 C978 1.684 . S
H966 C990 0.948 . S
C967 C963 1.397 . S
C967 C968 1.394 . S
C967 C986 1.723 . S
C968 C965 1.396 . S
C968 C967 1.394 . S
C968 C998 1.723 . S
H969 C992 0.947 . S
H970 C993 0.948 . S
H971 C999 0.982 . S
H972 C1000 0.979 . S
H973 C1000 0.980 . S
H974 C1000 0.983 . S
H975 C999 0.979 . S
H976 C999 0.977 . S
C977 C965 1.453 . S
C977 H1006 0.982 . S
C977 H1007 0.979 . S
C977 H1008 0.977 . S
C978 C965 1.684 . S
C978 H1003 0.979 . S
C978 H1004 0.980 . S
C978 H1005 0.983 . S
C979 C980 1.391 . S
C979 C984 1.391 . S
C979 H1009 0.948 . S
C980 C979 1.391 . S
C980 C981 1.391 . S
C981 C980 1.391 . S
C981 C982 1.392 . S
C981 H1010 0.947 . S
C982 C981 1.392 . S
C982 C983 1.419 . S
C982 H1011 0.948 . S
C983 C982 1.419 . S
C983 C984 1.391 . S
C983 C987 1.397 . S
C984 C979 1.391 . S
C984 C983 1.391 . S
C984 C985 1.399 . S
C985 C984 1.399 . S
C985 C986 1.396 . S
C985 C988 1.453 . S
C985 C989 1.684 . S
C986 C967 1.723 . S
C986 C985 1.396 . S
C986 C987 1.394 . S
C987 C983 1.397 . S
C987 C986 1.394 . S
C987 C997 1.723 . S
C988 C985 1.453 . S
C988 H1012 0.982 . S
C988 H1013 0.979 . S
C988 H1014 0.977 . S
C989 C985 1.684 . S
C989 H1015 0.979 . S
C989 H1016 0.980 . S
C989 H1017 0.983 . S
C990 H966 0.948 . S
C990 C991 1.391 . S
C990 C995 1.391 . S
C991 C990 1.391 . S
C991 C992 1.391 . S
C992 H969 0.947 . S
C992 C991 1.391 . S
C992 C993 1.392 . S
C993 H970 0.948 . S
C993 C992 1.392 . S
C993 C994 1.419 . S
C994 C993 1.419 . S
C994 C995 1.391 . S
C994 C998 1.397 . S
C995 C990 1.391 . S
C995 C994 1.391 . S
C995 C996 1.399 . S
C996 C995 1.399 . S
C996 C997 1.396 . S
C996 C999 1.453 . S
C996 C1000 1.684 . S
C997 C987 1.723 . S
C997 C996 1.396 . S
C997 C998 1.394 . S
C998 C968 1.723 . S
C998 C994 1.397 . S
C998 C997 1.394 . S
C999 H971 0.982 . S
C999 H975 0.979 . S
C999 H976 0.977 . S
C999 C996 1.453 . S
C1000 H972 0.979 . S
C1000 H973 0.980 . S
C1000 H974 0.983 . S
C1000 C996 1.684 . S
H1001 C1019 0.948 . S
H1002 C960 0.948 . S
H1003 C978 0.979 . S
H1004 C978 0.980 . S
H1005 C978 0.983 . S
H1006 C977 0.982 . S
H1007 C977 0.979 . S
H1008 C977 0.977 . S
H1009 C979 0.948 . S
H1010 C981 0.947 . S
H1011 C982 0.948 . S
H1012 C988 0.982 . S
H1013 C988 0.979 . S
H1014 C988 0.977 . S
H1015 C989 0.979 . S
H1016 C989 0.980 . S
H1017 C989 0.983 . S
H1018 C962 0.947 . S
C1019 C962 1.392 . S
C1019 C963 1.419 . S
C1019 H1001 0.948 . S
C1020 C1021 1.391 . S
C1020 C1024 1.391 . S
C1020 H1062 0.948 . S
C1021 C1020 1.391 . S
C1021 C1022 1.391 . S
C1022 C1021 1.391 . S
C1022 H1078 0.947 . S
C1022 C1079 1.392 . S
C1023 C1024 1.391 . S
C1023 C1027 1.397 . S
C1023 C1079 1.419 . S
C1024 C1020 1.391 . S
C1024 C1023 1.391 . S
C1024 C1025 1.399 . S
C1025 C1024 1.399 . S
C1025 C1028 1.396 . S
C1025 C1037 1.453 . S
C1025 C1038 1.684 . S
H1026 C1050 0.948 . S
C1027 C1023 1.397 . S
C1027 C1028 1.394 . S
C1027 C1046 1.723 . S
C1028 C1025 1.396 . S
C1028 C1027 1.394 . S
C1028 C1058 1.723 . S
H1029 C1052 0.947 . S
H1030 C1053 0.948 . S
H1031 C1059 0.982 . S
H1032 C1060 0.979 . S
H1033 C1060 0.980 . S
H1034 C1060 0.983 . S
H1035 C1059 0.979 . S
H1036 C1059 0.977 . S
C1037 C1025 1.453 . S
C1037 H1066 0.982 . S
C1037 H1067 0.979 . S
C1037 H1068 0.977 . S
C1038 C1025 1.684 . S
C1038 H1063 0.979 . S
C1038 H1064 0.980 . S
C1038 H1065 0.983 . S
C1039 C1040 1.391 . S
C1039 C1044 1.391 . S
C1039 H1069 0.948 . S
C1040 C1039 1.391 . S
C1040 C1041 1.391 . S
C1041 C1040 1.391 . S
C1041 C1042 1.392 . S
C1041 H1070 0.947 . S
C1042 C1041 1.392 . S
C1042 C1043 1.419 . S
C1042 H1071 0.948 . S
C1043 C1042 1.419 . S
C1043 C1044 1.391 . S
C1043 C1047 1.397 . S
C1044 C1039 1.391 . S
C1044 C1043 1.391 . S
C1044 C1045 1.399 . S
C1045 C1044 1.399 . S
C1045 C1046 1.396 . S
C1045 C1048 1.453 . S
C1045 C1049 1.684 . S
C1046 C1027 1.723 . S
C1046 C1045 1.396 . S
C1046 C1047 1.394 . S
C1047 C1043 1.397 . S
C1047 C1046 1.394 . S
C1047 C1057 1.723 . S
C1048 C1045 1.453 . S
C1048 H1072 0.982 . S
C1048 H1073 0.979 . S
C1048 H1074 0.977 . S
C1049 C1045 1.684 . S
C1049 H1075 0.979 . S
C1049 H1076 0.980 . S
C1049 H1077 0.983 . S
C1050 H1026 0.948 . S
C1050 C1051 1.391 . S
C1050 C1055 1.391 . S
C1051 C1050 1.391 . S
C1051 C1052 1.391 . S
C1052 H1029 0.947 . S
C1052 C1051 1.391 . S
C1052 C1053 1.392 . S
C1053 H1030 0.948 . S
C1053 C1052 1.392 . S
C1053 C1054 1.419 . S
C1054 C1053 1.419 . S
C1054 C1055 1.391 . S
C1054 C1058 1.397 . S
C1055 C1050 1.391 . S
C1055 C1054 1.391 . S
C1055 C1056 1.399 . S
C1056 C1055 1.399 . S
C1056 C1057 1.396 . S
C1056 C1059 1.453 . S
C1056 C1060 1.684 . S
C1057 C1047 1.723 . S
C1057 C1056 1.396 . S
C1057 C1058 1.394 . S
C1058 C1028 1.723 . S
C1058 C1054 1.397 . S
C1058 C1057 1.394 . S
C1059 H1031 0.982 . S
C1059 H1035 0.979 . S
C1059 H1036 0.977 . S
C1059 C1056 1.453 . S
C1060 H1032 0.979 . S
C1060 H1033 0.980 . S
C1060 H1034 0.983 . S
C1060 C1056 1.684 . S
H1061 C1079 0.948 . S
H1062 C1020 0.948 . S
H1063 C1038 0.979 . S
H1064 C1038 0.980 . S
H1065 C1038 0.983 . S
H1066 C1037 0.982 . S
H1067 C1037 0.979 . S
H1068 C1037 0.977 . S
H1069 C1039 0.948 . S
H1070 C1041 0.947 . S
H1071 C1042 0.948 . S
H1072 C1048 0.982 . S
H1073 C1048 0.979 . S
H1074 C1048 0.977 . S
H1075 C1049 0.979 . S
H1076 C1049 0.980 . S
H1077 C1049 0.983 . S
H1078 C1022 0.947 . S
C1079 C1022 1.392 . S
C1079 C1023 1.419 . S
C1079 H1061 0.948 . S
Gd1080 N1111 2.661 . S
Gd1080 N1117 2.601 . S
Gd1080 O1124 2.545 . S
Gd1080 O1125 2.606 1_545 S
Gd1080 O1127 2.429 . S
Gd1080 O1128 2.545 1_545 S
Gd1080 O1129 2.412 . S
Gd1080 O1131 2.362 1_554 S
Gd1080 O1132 2.324 1_545 S
Gd1080 C1139 2.828 . S
Gd1081 N1090 2.661 . S
Gd1081 N1094 2.601 . S
Gd1081 O1125 2.362 1_556 S
Gd1081 O1126 2.324 1_565 S
Gd1081 O1130 2.545 . S
Gd1081 O1131 2.606 1_565 S
Gd1081 O1133 2.429 . S
Gd1081 O1134 2.545 1_565 S
Gd1081 O1135 2.412 . S
Gd1081 C1148 2.828 . S
C1082 C1085 1.417 . S
C1082 C1087 1.431 . S
C1082 C1088 1.412 . S
C1083 C1086 1.437 . S
C1083 C1087 1.317 . S
C1083 H1102 0.929 . S
C1084 C1085 1.426 . S
C1084 C1086 1.413 . S
C1084 N1094 1.359 . S
C1085 C1082 1.417 . S
C1085 C1084 1.426 . S
C1085 N1090 1.350 . S
C1086 C1083 1.437 . S
C1086 C1084 1.413 . S
C1086 C1096 1.391 . S
C1087 C1082 1.431 . S
C1087 C1083 1.317 . S
C1087 H1098 0.930 . S
C1088 C1082 1.412 . S
C1088 C1089 1.355 . S
C1088 H1100 0.930 . S
C1089 C1088 1.355 . S
C1089 C1091 1.402 . S
C1089 H1101 0.930 . S
N1090 Gd1081 2.661 . S
N1090 C1085 1.350 . S
N1090 C1091 1.307 . S
C1091 C1089 1.402 . S
C1091 N1090 1.307 . S
C1091 H1092 0.930 . S
H1092 C1091 0.930 . S
C1093 N1094 1.334 . S
C1093 C1095 1.394 . S
C1093 H1097 0.930 . S
N1094 Gd1081 2.601 . S
N1094 C1084 1.359 . S
N1094 C1093 1.334 . S
C1095 C1093 1.394 . S
C1095 C1096 1.359 . S
C1095 H1107 0.930 . S
C1096 C1086 1.391 . S
C1096 C1095 1.359 . S
C1096 H1108 0.929 . S
H1097 C1093 0.930 . S
H1098 C1087 0.930 . S
H1099 C1116 0.930 . S
H1100 C1088 0.930 . S
H1101 C1089 0.930 . S
H1102 C1083 0.929 . S
H1103 C1121 0.930 . S
H1104 C1112 0.930 . S
H1105 C1113 0.930 . S
H1106 C1137 0.929 . S
H1107 C1095 0.930 . S
H1108 C1096 0.929 . S
H1109 C1138 0.930 . S
H1110 C1119 0.930 . S
N1111 Gd1080 2.661 . S
N1111 C1115 1.350 . S
N1111 C1116 1.307 . S
C1112 H1104 0.930 . S
C1112 C1113 1.355 . S
C1112 C1114 1.412 . S
C1113 H1105 0.930 . S
C1113 C1112 1.355 . S
C1113 C1116 1.402 . S
C1114 C1112 1.412 . S
C1114 C1115 1.417 . S
C1114 C1138 1.431 . S
C1115 N1111 1.350 . S
C1115 C1114 1.417 . S
C1115 C1118 1.426 . S
C1116 H1099 0.930 . S
C1116 N1111 1.307 . S
C1116 C1113 1.402 . S
N1117 Gd1080 2.601 . S
N1117 C1118 1.359 . S
N1117 C1121 1.334 . S
C1118 C1115 1.426 . S
C1118 N1117 1.359 . S
C1118 C1122 1.413 . S
C1119 H1110 0.930 . S
C1119 C1120 1.359 . S
C1119 C1121 1.394 . S
C1120 C1119 1.359 . S
C1120 C1122 1.391 . S
C1120 H1123 0.929 . S
C1121 H1103 0.930 . S
C1121 N1117 1.334 . S
C1121 C1119 1.394 . S
C1122 C1118 1.413 . S
C1122 C1120 1.391 . S
C1122 C1137 1.437 . S
H1123 C1120 0.929 . S
O1124 Gd1080 2.545 . S
O1124 C1139 1.258 . S
O1125 Gd1080 2.606 1_565 S
O1125 Gd1081 2.362 1_554 S
O1125 C1136 1.284 . S
O1126 Gd1081 2.324 1_545 S
O1126 C1146 1.254 . S
O1127 Gd1080 2.429 . S
O1127 C1146 1.268 1_554 S
O1128 Gd1080 2.545 1_565 S
O1128 C1136 1.250 . S
O1129 Gd1080 2.412 . S
O1129 C1139 1.252 . S
O1130 Gd1081 2.545 . S
O1130 C1148 1.258 . S
O1131 Gd1080 2.362 1_556 S
O1131 Gd1081 2.606 1_545 S
O1131 C1147 1.284 . S
O1132 Gd1080 2.324 1_565 S
O1132 C1155 1.254 . S
O1133 Gd1081 2.429 . S
O1133 C1155 1.268 1_556 S
O1134 Gd1081 2.545 1_545 S
O1134 C1147 1.250 . S
O1135 Gd1081 2.412 . S
O1135 C1148 1.252 . S
C1136 O1125 1.284 . S
C1136 O1128 1.250 . S
C1137 H1106 0.929 . S
C1137 C1122 1.437 . S
C1137 C1138 1.317 . S
C1138 H1109 0.930 . S
C1138 C1114 1.431 . S
C1138 C1137 1.317 . S
C1139 Gd1080 2.828 . S
C1139 O1124 1.258 . S
C1139 O1129 1.252 . S
C1139 C1140 1.497 . S
C1140 C1139 1.497 . S
C1140 C1141 1.395 . S
C1140 C1142 1.380 1_545 S
C1141 C1140 1.395 . S
C1141 C1144 1.398 . S
C1141 H1156 0.930 . S
C1142 C1140 1.380 1_565 S
C1142 C1143 1.391 . S
C1142 H1157 0.930 . S
C1143 C1142 1.391 . S
C1143 C1145 1.387 1_565 S
C1144 C1141 1.398 . S
C1144 C1145 1.380 . S
C1144 H1158 0.930 . S
C1145 C1143 1.387 1_545 S
C1145 C1144 1.380 . S
C1145 H1159 0.930 . S
C1146 O1126 1.254 . S
C1146 O1127 1.268 1_556 S
C1147 O1131 1.284 . S
C1147 O1134 1.250 . S
C1148 Gd1081 2.828 . S
C1148 O1130 1.258 . S
C1148 O1135 1.252 . S
C1148 C1149 1.497 . S
C1149 C1148 1.497 . S
C1149 C1150 1.395 . S
C1149 C1151 1.380 1_565 S
C1150 C1149 1.395 . S
C1150 C1153 1.398 . S
C1150 H1160 0.930 . S
C1151 C1149 1.380 1_545 S
C1151 C1152 1.391 . S
C1151 H1161 0.930 . S
C1152 C1151 1.391 . S
C1152 C1154 1.387 1_545 S
C1153 C1150 1.398 . S
C1153 C1154 1.380 . S
C1153 H1162 0.930 . S
C1154 C1152 1.387 1_565 S
C1154 C1153 1.380 . S
C1154 H1163 0.930 . S
C1155 O1132 1.254 . S
C1155 O1133 1.268 1_554 S
H1156 C1141 0.930 . S
H1157 C1142 0.930 . S
H1158 C1144 0.930 . S
H1159 C1145 0.930 . S
H1160 C1150 0.930 . S
H1161 C1151 0.930 . S
H1162 C1153 0.930 . S
H1163 C1154 0.930 . S
Gd1164 N1195 2.661 . S
Gd1164 N1201 2.601 . S
Gd1164 O1208 2.545 . S
Gd1164 O1209 2.606 1_655 S
Gd1164 O1211 2.429 . S
Gd1164 O1212 2.545 1_655 S
Gd1164 O1213 2.412 . S
Gd1164 O1215 2.362 1_554 S
Gd1164 O1216 2.324 1_655 S
Gd1164 C1223 2.828 . S
Gd1165 N1174 2.661 . S
Gd1165 N1178 2.601 . S
Gd1165 O1209 2.362 1_556 S
Gd1165 O1210 2.324 1_455 S
Gd1165 O1214 2.545 . S
Gd1165 O1215 2.606 1_455 S
Gd1165 O1217 2.429 . S
Gd1165 O1218 2.545 1_455 S
Gd1165 O1219 2.412 . S
Gd1165 C1232 2.828 . S
C1166 C1169 1.417 . S
C1166 C1171 1.431 . S
C1166 C1172 1.412 . S
C1167 C1170 1.437 . S
C1167 C1171 1.317 . S
C1167 H1186 0.929 . S
C1168 C1169 1.426 . S
C1168 C1170 1.413 . S
C1168 N1178 1.359 . S
C1169 C1166 1.417 . S
C1169 C1168 1.426 . S
C1169 N1174 1.350 . S
C1170 C1167 1.437 . S
C1170 C1168 1.413 . S
C1170 C1180 1.391 . S
C1171 C1166 1.431 . S
C1171 C1167 1.317 . S
C1171 H1182 0.930 . S
C1172 C1166 1.412 . S
C1172 C1173 1.355 . S
C1172 H1184 0.930 . S
C1173 C1172 1.355 . S
C1173 C1175 1.402 . S
C1173 H1185 0.930 . S
N1174 Gd1165 2.661 . S
N1174 C1169 1.350 . S
N1174 C1175 1.307 . S
C1175 C1173 1.402 . S
C1175 N1174 1.307 . S
C1175 H1176 0.930 . S
H1176 C1175 0.930 . S
C1177 N1178 1.334 . S
C1177 C1179 1.394 . S
C1177 H1181 0.930 . S
N1178 Gd1165 2.601 . S
N1178 C1168 1.359 . S
N1178 C1177 1.334 . S
C1179 C1177 1.394 . S
C1179 C1180 1.359 . S
C1179 H1191 0.930 . S
C1180 C1170 1.391 . S
C1180 C1179 1.359 . S
C1180 H1192 0.929 . S
H1181 C1177 0.930 . S
H1182 C1171 0.930 . S
H1183 C1200 0.930 . S
H1184 C1172 0.930 . S
H1185 C1173 0.930 . S
H1186 C1167 0.929 . S
H1187 C1205 0.930 . S
H1188 C1196 0.930 . S
H1189 C1197 0.930 . S
H1190 C1221 0.929 . S
H1191 C1179 0.930 . S
H1192 C1180 0.929 . S
H1193 C1222 0.930 . S
H1194 C1203 0.930 . S
N1195 Gd1164 2.661 . S
N1195 C1199 1.350 . S
N1195 C1200 1.307 . S
C1196 H1188 0.930 . S
C1196 C1197 1.355 . S
C1196 C1198 1.412 . S
C1197 H1189 0.930 . S
C1197 C1196 1.355 . S
C1197 C1200 1.402 . S
C1198 C1196 1.412 . S
C1198 C1199 1.417 . S
C1198 C1222 1.431 . S
C1199 N1195 1.350 . S
C1199 C1198 1.417 . S
C1199 C1202 1.426 . S
C1200 H1183 0.930 . S
C1200 N1195 1.307 . S
C1200 C1197 1.402 . S
N1201 Gd1164 2.601 . S
N1201 C1202 1.359 . S
N1201 C1205 1.334 . S
C1202 C1199 1.426 . S
C1202 N1201 1.359 . S
C1202 C1206 1.413 . S
C1203 H1194 0.930 . S
C1203 C1204 1.359 . S
C1203 C1205 1.394 . S
C1204 C1203 1.359 . S
C1204 C1206 1.391 . S
C1204 H1207 0.929 . S
C1205 H1187 0.930 . S
C1205 N1201 1.334 . S
C1205 C1203 1.394 . S
C1206 C1202 1.413 . S
C1206 C1204 1.391 . S
C1206 C1221 1.437 . S
H1207 C1204 0.929 . S
O1208 Gd1164 2.545 . S
O1208 C1223 1.258 . S
O1209 Gd1164 2.606 1_455 S
O1209 Gd1165 2.362 1_554 S
O1209 C1220 1.284 . S
O1210 Gd1165 2.324 1_655 S
O1210 C1230 1.254 . S
O1211 Gd1164 2.429 . S
O1211 C1230 1.268 1_554 S
O1212 Gd1164 2.545 1_455 S
O1212 C1220 1.250 . S
O1213 Gd1164 2.412 . S
O1213 C1223 1.252 . S
O1214 Gd1165 2.545 . S
O1214 C1232 1.258 . S
O1215 Gd1164 2.362 1_556 S
O1215 Gd1165 2.606 1_655 S
O1215 C1231 1.284 . S
O1216 Gd1164 2.324 1_455 S
O1216 C1239 1.254 . S
O1217 Gd1165 2.429 . S
O1217 C1239 1.268 1_556 S
O1218 Gd1165 2.545 1_655 S
O1218 C1231 1.250 . S
O1219 Gd1165 2.412 . S
O1219 C1232 1.252 . S
C1220 O1209 1.284 . S
C1220 O1212 1.250 . S
C1221 H1190 0.929 . S
C1221 C1206 1.437 . S
C1221 C1222 1.317 . S
C1222 H1193 0.930 . S
C1222 C1198 1.431 . S
C1222 C1221 1.317 . S
C1223 Gd1164 2.828 . S
C1223 O1208 1.258 . S
C1223 O1213 1.252 . S
C1223 C1224 1.497 . S
C1224 C1223 1.497 . S
C1224 C1225 1.395 . S
C1224 C1226 1.380 1_655 S
C1225 C1224 1.395 . S
C1225 C1228 1.398 . S
C1225 H1240 0.930 . S
C1226 C1224 1.380 1_455 S
C1226 C1227 1.391 . S
C1226 H1241 0.930 . S
C1227 C1226 1.391 . S
C1227 C1229 1.387 1_455 S
C1228 C1225 1.398 . S
C1228 C1229 1.380 . S
C1228 H1242 0.930 . S
C1229 C1227 1.387 1_655 S
C1229 C1228 1.380 . S
C1229 H1243 0.930 . S
C1230 O1210 1.254 . S
C1230 O1211 1.268 1_556 S
C1231 O1215 1.284 . S
C1231 O1218 1.250 . S
C1232 Gd1165 2.828 . S
C1232 O1214 1.258 . S
C1232 O1219 1.252 . S
C1232 C1233 1.497 . S
C1233 C1232 1.497 . S
C1233 C1234 1.395 . S
C1233 C1235 1.380 1_455 S
C1234 C1233 1.395 . S
C1234 C1237 1.398 . S
C1234 H1244 0.930 . S
C1235 C1233 1.380 1_655 S
C1235 C1236 1.391 . S
C1235 H1245 0.930 . S
C1236 C1235 1.391 . S
C1236 C1238 1.387 1_655 S
C1237 C1234 1.398 . S
C1237 C1238 1.380 . S
C1237 H1246 0.930 . S
C1238 C1236 1.387 1_455 S
C1238 C1237 1.380 . S
C1238 H1247 0.930 . S
C1239 O1216 1.254 . S
C1239 O1217 1.268 1_554 S
H1240 C1225 0.930 . S
H1241 C1226 0.930 . S
H1242 C1228 0.930 . S
H1243 C1229 0.930 . S
H1244 C1234 0.930 . S
H1245 C1235 0.930 . S
H1246 C1237 0.930 . S
H1247 C1238 0.930 . S
Gd1248 N1279 2.661 . S
Gd1248 N1285 2.601 . S
Gd1248 O1292 2.545 . S
Gd1248 O1293 2.606 . S
Gd1248 O1295 2.429 . S
Gd1248 O1296 2.545 . S
Gd1248 O1297 2.412 . S
Gd1248 O1299 2.362 1_556 S
Gd1248 O1300 2.324 . S
Gd1248 C1307 2.828 . S
Gd1249 N1258 2.661 . S
Gd1249 N1262 2.601 . S
Gd1249 O1293 2.362 1_554 S
Gd1249 O1294 2.324 . S
Gd1249 O1298 2.545 . S
Gd1249 O1299 2.606 . S
Gd1249 O1301 2.429 . S
Gd1249 O1302 2.545 . S
Gd1249 O1303 2.412 . S
Gd1249 C1316 2.828 . S
C1250 C1253 1.417 . S
C1250 C1255 1.431 . S
C1250 C1256 1.412 . S
C1251 C1254 1.437 . S
C1251 C1255 1.317 . S
C1251 H1270 0.929 . S
C1252 C1253 1.426 . S
C1252 C1254 1.413 . S
C1252 N1262 1.359 . S
C1253 C1250 1.417 . S
C1253 C1252 1.426 . S
C1253 N1258 1.350 . S
C1254 C1251 1.437 . S
C1254 C1252 1.413 . S
C1254 C1264 1.391 . S
C1255 C1250 1.431 . S
C1255 C1251 1.317 . S
C1255 H1266 0.930 . S
C1256 C1250 1.412 . S
C1256 C1257 1.355 . S
C1256 H1268 0.930 . S
C1257 C1256 1.355 . S
C1257 C1259 1.402 . S
C1257 H1269 0.930 . S
N1258 Gd1249 2.661 . S
N1258 C1253 1.350 . S
N1258 C1259 1.307 . S
C1259 C1257 1.402 . S
C1259 N1258 1.307 . S
C1259 H1260 0.930 . S
H1260 C1259 0.930 . S
C1261 N1262 1.334 . S
C1261 C1263 1.394 . S
C1261 H1265 0.930 . S
N1262 Gd1249 2.601 . S
N1262 C1252 1.359 . S
N1262 C1261 1.334 . S
C1263 C1261 1.394 . S
C1263 C1264 1.359 . S
C1263 H1275 0.930 . S
C1264 C1254 1.391 . S
C1264 C1263 1.359 . S
C1264 H1276 0.929 . S
H1265 C1261 0.930 . S
H1266 C1255 0.930 . S
H1267 C1284 0.930 . S
H1268 C1256 0.930 . S
H1269 C1257 0.930 . S
H1270 C1251 0.929 . S
H1271 C1289 0.930 . S
H1272 C1280 0.930 . S
H1273 C1281 0.930 . S
H1274 C1305 0.929 . S
H1275 C1263 0.930 . S
H1276 C1264 0.929 . S
H1277 C1306 0.930 . S
H1278 C1287 0.930 . S
N1279 Gd1248 2.661 . S
N1279 C1283 1.350 . S
N1279 C1284 1.307 . S
C1280 H1272 0.930 . S
C1280 C1281 1.355 . S
C1280 C1282 1.412 . S
C1281 H1273 0.930 . S
C1281 C1280 1.355 . S
C1281 C1284 1.402 . S
C1282 C1280 1.412 . S
C1282 C1283 1.417 . S
C1282 C1306 1.431 . S
C1283 N1279 1.350 . S
C1283 C1282 1.417 . S
C1283 C1286 1.426 . S
C1284 H1267 0.930 . S
C1284 N1279 1.307 . S
C1284 C1281 1.402 . S
N1285 Gd1248 2.601 . S
N1285 C1286 1.359 . S
N1285 C1289 1.334 . S
C1286 C1283 1.426 . S
C1286 N1285 1.359 . S
C1286 C1290 1.413 . S
C1287 H1278 0.930 . S
C1287 C1288 1.359 . S
C1287 C1289 1.394 . S
C1288 C1287 1.359 . S
C1288 C1290 1.391 . S
C1288 H1291 0.929 . S
C1289 H1271 0.930 . S
C1289 N1285 1.334 . S
C1289 C1287 1.394 . S
C1290 C1286 1.413 . S
C1290 C1288 1.391 . S
C1290 C1305 1.437 . S
H1291 C1288 0.929 . S
O1292 Gd1248 2.545 . S
O1292 C1307 1.258 . S
O1293 Gd1248 2.606 . S
O1293 Gd1249 2.362 1_556 S
O1293 C1304 1.284 . S
O1294 Gd1249 2.324 . S
O1294 C1314 1.254 . S
O1295 Gd1248 2.429 . S
O1295 C1314 1.268 1_556 S
O1296 Gd1248 2.545 . S
O1296 C1304 1.250 . S
O1297 Gd1248 2.412 . S
O1297 C1307 1.252 . S
O1298 Gd1249 2.545 . S
O1298 C1316 1.258 . S
O1299 Gd1248 2.362 1_554 S
O1299 Gd1249 2.606 . S
O1299 C1315 1.284 . S
O1300 Gd1248 2.324 . S
O1300 C1323 1.254 . S
O1301 Gd1249 2.429 . S
O1301 C1323 1.268 1_554 S
O1302 Gd1249 2.545 . S
O1302 C1315 1.250 . S
O1303 Gd1249 2.412 . S
O1303 C1316 1.252 . S
C1304 O1293 1.284 . S
C1304 O1296 1.250 . S
C1305 H1274 0.929 . S
C1305 C1290 1.437 . S
C1305 C1306 1.317 . S
C1306 H1277 0.930 . S
C1306 C1282 1.431 . S
C1306 C1305 1.317 . S
C1307 Gd1248 2.828 . S
C1307 O1292 1.258 . S
C1307 O1297 1.252 . S
C1307 C1308 1.497 . S
C1308 C1307 1.497 . S
C1308 C1309 1.395 . S
C1308 C1310 1.380 . S
C1309 C1308 1.395 . S
C1309 C1312 1.398 . S
C1309 H1324 0.930 . S
C1310 C1308 1.380 . S
C1310 C1311 1.391 . S
C1310 H1325 0.930 . S
C1311 C1310 1.391 . S
C1311 C1313 1.387 . S
C1312 C1309 1.398 . S
C1312 C1313 1.380 . S
C1312 H1326 0.930 . S
C1313 C1311 1.387 . S
C1313 C1312 1.380 . S
C1313 H1327 0.930 . S
C1314 O1294 1.254 . S
C1314 O1295 1.268 1_554 S
C1315 O1299 1.284 . S
C1315 O1302 1.250 . S
C1316 Gd1249 2.828 . S
C1316 O1298 1.258 . S
C1316 O1303 1.252 . S
C1316 C1317 1.497 . S
C1317 C1316 1.497 . S
C1317 C1318 1.395 . S
C1317 C1319 1.380 . S
C1318 C1317 1.395 . S
C1318 C1321 1.398 . S
C1318 H1328 0.930 . S
C1319 C1317 1.380 . S
C1319 C1320 1.391 . S
C1319 H1329 0.930 . S
C1320 C1319 1.391 . S
C1320 C1322 1.387 . S
C1321 C1318 1.398 . S
C1321 C1322 1.380 . S
C1321 H1330 0.930 . S
C1322 C1320 1.387 . S
C1322 C1321 1.380 . S
C1322 H1331 0.930 . S
C1323 O1300 1.254 . S
C1323 O1301 1.268 1_556 S
H1324 C1309 0.930 . S
H1325 C1310 0.930 . S
H1326 C1312 0.930 . S
H1327 C1313 0.930 . S
H1328 C1318 0.930 . S
H1329 C1319 0.930 . S
H1330 C1321 0.930 . S
H1331 C1322 0.930 . S
Gd1332 N1363 2.661 . S
Gd1332 N1369 2.601 . S
Gd1332 O1376 2.545 . S
Gd1332 O1377 2.606 . S
Gd1332 O1379 2.429 . S
Gd1332 O1380 2.545 . S
Gd1332 O1381 2.412 . S
Gd1332 O1383 2.362 . S
Gd1332 O1384 2.324 . S
Gd1332 C1391 2.828 . S
Gd1333 N1342 2.661 . S
Gd1333 N1346 2.601 . S
Gd1333 O1377 2.362 . S
Gd1333 O1378 2.324 . S
Gd1333 O1382 2.545 . S
Gd1333 O1383 2.606 . S
Gd1333 O1385 2.429 . S
Gd1333 O1386 2.545 . S
Gd1333 O1387 2.412 . S
Gd1333 C1400 2.828 . S
C1334 C1337 1.417 . S
C1334 C1339 1.431 . S
C1334 C1340 1.412 . S
C1335 C1338 1.437 . S
C1335 C1339 1.317 . S
C1335 H1354 0.929 . S
C1336 C1337 1.426 . S
C1336 C1338 1.413 . S
C1336 N1346 1.359 . S
C1337 C1334 1.417 . S
C1337 C1336 1.426 . S
C1337 N1342 1.350 . S
C1338 C1335 1.437 . S
C1338 C1336 1.413 . S
C1338 C1348 1.391 . S
C1339 C1334 1.431 . S
C1339 C1335 1.317 . S
C1339 H1350 0.930 . S
C1340 C1334 1.412 . S
C1340 C1341 1.355 . S
C1340 H1352 0.930 . S
C1341 C1340 1.355 . S
C1341 C1343 1.402 . S
C1341 H1353 0.930 . S
N1342 Gd1333 2.661 . S
N1342 C1337 1.350 . S
N1342 C1343 1.307 . S
C1343 C1341 1.402 . S
C1343 N1342 1.307 . S
C1343 H1344 0.930 . S
H1344 C1343 0.930 . S
C1345 N1346 1.334 . S
C1345 C1347 1.394 . S
C1345 H1349 0.930 . S
N1346 Gd1333 2.601 . S
N1346 C1336 1.359 . S
N1346 C1345 1.334 . S
C1347 C1345 1.394 . S
C1347 C1348 1.359 . S
C1347 H1359 0.930 . S
C1348 C1338 1.391 . S
C1348 C1347 1.359 . S
C1348 H1360 0.929 . S
H1349 C1345 0.930 . S
H1350 C1339 0.930 . S
H1351 C1368 0.930 . S
H1352 C1340 0.930 . S
H1353 C1341 0.930 . S
H1354 C1335 0.929 . S
H1355 C1373 0.930 . S
H1356 C1364 0.930 . S
H1357 C1365 0.930 . S
H1358 C1389 0.929 . S
H1359 C1347 0.930 . S
H1360 C1348 0.929 . S
H1361 C1390 0.930 . S
H1362 C1371 0.930 . S
N1363 Gd1332 2.661 . S
N1363 C1367 1.350 . S
N1363 C1368 1.307 . S
C1364 H1356 0.930 . S
C1364 C1365 1.355 . S
C1364 C1366 1.412 . S
C1365 H1357 0.930 . S
C1365 C1364 1.355 . S
C1365 C1368 1.402 . S
C1366 C1364 1.412 . S
C1366 C1367 1.417 . S
C1366 C1390 1.431 . S
C1367 N1363 1.350 . S
C1367 C1366 1.417 . S
C1367 C1370 1.426 . S
C1368 H1351 0.930 . S
C1368 N1363 1.307 . S
C1368 C1365 1.402 . S
N1369 Gd1332 2.601 . S
N1369 C1370 1.359 . S
N1369 C1373 1.334 . S
C1370 C1367 1.426 . S
C1370 N1369 1.359 . S
C1370 C1374 1.413 . S
C1371 H1362 0.930 . S
C1371 C1372 1.359 . S
C1371 C1373 1.394 . S
C1372 C1371 1.359 . S
C1372 C1374 1.391 . S
C1372 H1375 0.929 . S
C1373 H1355 0.930 . S
C1373 N1369 1.334 . S
C1373 C1371 1.394 . S
C1374 C1370 1.413 . S
C1374 C1372 1.391 . S
C1374 C1389 1.437 . S
H1375 C1372 0.929 . S
O1376 Gd1332 2.545 . S
O1376 C1391 1.258 . S
O1377 Gd1332 2.606 . S
O1377 Gd1333 2.362 . S
O1377 C1388 1.284 . S
O1378 Gd1333 2.324 . S
O1378 C1398 1.254 . S
O1379 Gd1332 2.429 . S
O1379 C1398 1.268 . S
O1380 Gd1332 2.545 . S
O1380 C1388 1.250 . S
O1381 Gd1332 2.412 . S
O1381 C1391 1.252 . S
O1382 Gd1333 2.545 . S
O1382 C1400 1.258 . S
O1383 Gd1332 2.362 . S
O1383 Gd1333 2.606 . S
O1383 C1399 1.284 . S
O1384 Gd1332 2.324 . S
O1384 C1407 1.254 . S
O1385 Gd1333 2.429 . S
O1385 C1407 1.268 . S
O1386 Gd1333 2.545 . S
O1386 C1399 1.250 . S
O1387 Gd1333 2.412 . S
O1387 C1400 1.252 . S
C1388 O1377 1.284 . S
C1388 O1380 1.250 . S
C1389 H1358 0.929 . S
C1389 C1374 1.437 . S
C1389 C1390 1.317 . S
C1390 H1361 0.930 . S
C1390 C1366 1.431 . S
C1390 C1389 1.317 . S
C1391 Gd1332 2.828 . S
C1391 O1376 1.258 . S
C1391 O1381 1.252 . S
C1391 C1392 1.497 . S
C1392 C1391 1.497 . S
C1392 C1393 1.395 . S
C1392 C1394 1.380 . S
C1393 C1392 1.395 . S
C1393 C1396 1.398 . S
C1393 H1408 0.930 . S
C1394 C1392 1.380 . S
C1394 C1395 1.391 . S
C1394 H1409 0.930 . S
C1395 C1394 1.391 . S
C1395 C1397 1.387 . S
C1396 C1393 1.398 . S
C1396 C1397 1.380 . S
C1396 H1410 0.930 . S
C1397 C1395 1.387 . S
C1397 C1396 1.380 . S
C1397 H1411 0.930 . S
C1398 O1378 1.254 . S
C1398 O1379 1.268 . S
C1399 O1383 1.284 . S
C1399 O1386 1.250 . S
C1400 Gd1333 2.828 . S
C1400 O1382 1.258 . S
C1400 O1387 1.252 . S
C1400 C1401 1.497 . S
C1401 C1400 1.497 . S
C1401 C1402 1.395 . S
C1401 C1403 1.380 . S
C1402 C1401 1.395 . S
C1402 C1405 1.398 . S
C1402 H1412 0.930 . S
C1403 C1401 1.380 . S
C1403 C1404 1.391 . S
C1403 H1413 0.930 . S
C1404 C1403 1.391 . S
C1404 C1406 1.387 . S
C1405 C1402 1.398 . S
C1405 C1406 1.380 . S
C1405 H1414 0.930 . S
C1406 C1404 1.387 . S
C1406 C1405 1.380 . S
C1406 H1415 0.930 . S
C1407 O1384 1.254 . S
C1407 O1385 1.268 . S
H1408 C1393 0.930 . S
H1409 C1394 0.930 . S
H1410 C1396 0.930 . S
H1411 C1397 0.930 . S
H1412 C1402 0.930 . S
H1413 C1403 0.930 . S
H1414 C1405 0.930 . S
H1415 C1406 0.930 . S
Gd1416 N1447 2.661 . S
Gd1416 N1453 2.601 . S
Gd1416 O1460 2.545 . S
Gd1416 O1461 2.606 . S
Gd1416 O1463 2.429 . S
Gd1416 O1464 2.545 . S
Gd1416 O1465 2.412 . S
Gd1416 O1467 2.362 . S
Gd1416 O1468 2.324 . S
Gd1416 C1475 2.828 . S
Gd1417 N1426 2.661 . S
Gd1417 N1430 2.601 . S
Gd1417 O1461 2.362 . S
Gd1417 O1462 2.324 . S
Gd1417 O1466 2.545 . S
Gd1417 O1467 2.606 . S
Gd1417 O1469 2.429 . S
Gd1417 O1470 2.545 . S
Gd1417 O1471 2.412 . S
Gd1417 C1484 2.828 . S
C1418 C1421 1.417 . S
C1418 C1423 1.431 . S
C1418 C1424 1.412 . S
C1419 C1422 1.437 . S
C1419 C1423 1.317 . S
C1419 H1438 0.929 . S
C1420 C1421 1.426 . S
C1420 C1422 1.413 . S
C1420 N1430 1.359 . S
C1421 C1418 1.417 . S
C1421 C1420 1.426 . S
C1421 N1426 1.350 . S
C1422 C1419 1.437 . S
C1422 C1420 1.413 . S
C1422 C1432 1.391 . S
C1423 C1418 1.431 . S
C1423 C1419 1.317 . S
C1423 H1434 0.930 . S
C1424 C1418 1.412 . S
C1424 C1425 1.355 . S
C1424 H1436 0.930 . S
C1425 C1424 1.355 . S
C1425 C1427 1.402 . S
C1425 H1437 0.930 . S
N1426 Gd1417 2.661 . S
N1426 C1421 1.350 . S
N1426 C1427 1.307 . S
C1427 C1425 1.402 . S
C1427 N1426 1.307 . S
C1427 H1428 0.930 . S
H1428 C1427 0.930 . S
C1429 N1430 1.334 . S
C1429 C1431 1.394 . S
C1429 H1433 0.930 . S
N1430 Gd1417 2.601 . S
N1430 C1420 1.359 . S
N1430 C1429 1.334 . S
C1431 C1429 1.394 . S
C1431 C1432 1.359 . S
C1431 H1443 0.930 . S
C1432 C1422 1.391 . S
C1432 C1431 1.359 . S
C1432 H1444 0.929 . S
H1433 C1429 0.930 . S
H1434 C1423 0.930 . S
H1435 C1452 0.930 . S
H1436 C1424 0.930 . S
H1437 C1425 0.930 . S
H1438 C1419 0.929 . S
H1439 C1457 0.930 . S
H1440 C1448 0.930 . S
H1441 C1449 0.930 . S
H1442 C1473 0.929 . S
H1443 C1431 0.930 . S
H1444 C1432 0.929 . S
H1445 C1474 0.930 . S
H1446 C1455 0.930 . S
N1447 Gd1416 2.661 . S
N1447 C1451 1.350 . S
N1447 C1452 1.307 . S
C1448 H1440 0.930 . S
C1448 C1449 1.355 . S
C1448 C1450 1.412 . S
C1449 H1441 0.930 . S
C1449 C1448 1.355 . S
C1449 C1452 1.402 . S
C1450 C1448 1.412 . S
C1450 C1451 1.417 . S
C1450 C1474 1.431 . S
C1451 N1447 1.350 . S
C1451 C1450 1.417 . S
C1451 C1454 1.426 . S
C1452 H1435 0.930 . S
C1452 N1447 1.307 . S
C1452 C1449 1.402 . S
N1453 Gd1416 2.601 . S
N1453 C1454 1.359 . S
N1453 C1457 1.334 . S
C1454 C1451 1.426 . S
C1454 N1453 1.359 . S
C1454 C1458 1.413 . S
C1455 H1446 0.930 . S
C1455 C1456 1.359 . S
C1455 C1457 1.394 . S
C1456 C1455 1.359 . S
C1456 C1458 1.391 . S
C1456 H1459 0.929 . S
C1457 H1439 0.930 . S
C1457 N1453 1.334 . S
C1457 C1455 1.394 . S
C1458 C1454 1.413 . S
C1458 C1456 1.391 . S
C1458 C1473 1.437 . S
H1459 C1456 0.929 . S
O1460 Gd1416 2.545 . S
O1460 C1475 1.258 . S
O1461 Gd1416 2.606 . S
O1461 Gd1417 2.362 . S
O1461 C1472 1.284 . S
O1462 Gd1417 2.324 . S
O1462 C1482 1.254 . S
O1463 Gd1416 2.429 . S
O1463 C1482 1.268 . S
O1464 Gd1416 2.545 . S
O1464 C1472 1.250 . S
O1465 Gd1416 2.412 . S
O1465 C1475 1.252 . S
O1466 Gd1417 2.545 . S
O1466 C1484 1.258 . S
O1467 Gd1416 2.362 . S
O1467 Gd1417 2.606 . S
O1467 C1483 1.284 . S
O1468 Gd1416 2.324 . S
O1468 C1491 1.254 . S
O1469 Gd1417 2.429 . S
O1469 C1491 1.268 . S
O1470 Gd1417 2.545 . S
O1470 C1483 1.250 . S
O1471 Gd1417 2.412 . S
O1471 C1484 1.252 . S
C1472 O1461 1.284 . S
C1472 O1464 1.250 . S
C1473 H1442 0.929 . S
C1473 C1458 1.437 . S
C1473 C1474 1.317 . S
C1474 H1445 0.930 . S
C1474 C1450 1.431 . S
C1474 C1473 1.317 . S
C1475 Gd1416 2.828 . S
C1475 O1460 1.258 . S
C1475 O1465 1.252 . S
C1475 C1476 1.497 . S
C1476 C1475 1.497 . S
C1476 C1477 1.395 . S
C1476 C1478 1.380 . S
C1477 C1476 1.395 . S
C1477 C1480 1.398 . S
C1477 H1492 0.930 . S
C1478 C1476 1.380 . S
C1478 C1479 1.391 . S
C1478 H1493 0.930 . S
C1479 C1478 1.391 . S
C1479 C1481 1.387 . S
C1480 C1477 1.398 . S
C1480 C1481 1.380 . S
C1480 H1494 0.930 . S
C1481 C1479 1.387 . S
C1481 C1480 1.380 . S
C1481 H1495 0.930 . S
C1482 O1462 1.254 . S
C1482 O1463 1.268 . S
C1483 O1467 1.284 . S
C1483 O1470 1.250 . S
C1484 Gd1417 2.828 . S
C1484 O1466 1.258 . S
C1484 O1471 1.252 . S
C1484 C1485 1.497 . S
C1485 C1484 1.497 . S
C1485 C1486 1.395 . S
C1485 C1487 1.380 . S
C1486 C1485 1.395 . S
C1486 C1489 1.398 . S
C1486 H1496 0.930 . S
C1487 C1485 1.380 . S
C1487 C1488 1.391 . S
C1487 H1497 0.930 . S
C1488 C1487 1.391 . S
C1488 C1490 1.387 . S
C1489 C1486 1.398 . S
C1489 C1490 1.380 . S
C1489 H1498 0.930 . S
C1490 C1488 1.387 . S
C1490 C1489 1.380 . S
C1490 H1499 0.930 . S
C1491 O1468 1.254 . S
C1491 O1469 1.268 . S
H1492 C1477 0.930 . S
H1493 C1478 0.930 . S
H1494 C1480 0.930 . S
H1495 C1481 0.930 . S
H1496 C1486 0.930 . S
H1497 C1487 0.930 . S
H1498 C1489 0.930 . S
H1499 C1490 0.930 . S
Gd1500 N1531 2.661 . S
Gd1500 N1537 2.601 . S
Gd1500 O1544 2.545 . S
Gd1500 O1545 2.606 . S
Gd1500 O1547 2.429 . S
Gd1500 O1548 2.545 . S
Gd1500 O1549 2.412 . S
Gd1500 O1551 2.362 . S
Gd1500 O1552 2.324 . S
Gd1500 C1559 2.828 . S
Gd1501 N1510 2.661 . S
Gd1501 N1514 2.601 . S
Gd1501 O1545 2.362 . S
Gd1501 O1546 2.324 . S
Gd1501 O1550 2.545 . S
Gd1501 O1551 2.606 . S
Gd1501 O1553 2.429 . S
Gd1501 O1554 2.545 . S
Gd1501 O1555 2.412 . S
Gd1501 C1568 2.828 . S
C1502 C1505 1.417 . S
C1502 C1507 1.431 . S
C1502 C1508 1.412 . S
C1503 C1506 1.437 . S
C1503 C1507 1.317 . S
C1503 H1522 0.929 . S
C1504 C1505 1.426 . S
C1504 C1506 1.413 . S
C1504 N1514 1.359 . S
C1505 C1502 1.417 . S
C1505 C1504 1.426 . S
C1505 N1510 1.350 . S
C1506 C1503 1.437 . S
C1506 C1504 1.413 . S
C1506 C1516 1.391 . S
C1507 C1502 1.431 . S
C1507 C1503 1.317 . S
C1507 H1518 0.930 . S
C1508 C1502 1.412 . S
C1508 C1509 1.355 . S
C1508 H1520 0.930 . S
C1509 C1508 1.355 . S
C1509 C1511 1.402 . S
C1509 H1521 0.930 . S
N1510 Gd1501 2.661 . S
N1510 C1505 1.350 . S
N1510 C1511 1.307 . S
C1511 C1509 1.402 . S
C1511 N1510 1.307 . S
C1511 H1512 0.930 . S
H1512 C1511 0.930 . S
C1513 N1514 1.334 . S
C1513 C1515 1.394 . S
C1513 H1517 0.930 . S
N1514 Gd1501 2.601 . S
N1514 C1504 1.359 . S
N1514 C1513 1.334 . S
C1515 C1513 1.394 . S
C1515 C1516 1.359 . S
C1515 H1527 0.930 . S
C1516 C1506 1.391 . S
C1516 C1515 1.359 . S
C1516 H1528 0.929 . S
H1517 C1513 0.930 . S
H1518 C1507 0.930 . S
H1519 C1536 0.930 . S
H1520 C1508 0.930 . S
H1521 C1509 0.930 . S
H1522 C1503 0.929 . S
H1523 C1541 0.930 . S
H1524 C1532 0.930 . S
H1525 C1533 0.930 . S
H1526 C1557 0.929 . S
H1527 C1515 0.930 . S
H1528 C1516 0.929 . S
H1529 C1558 0.930 . S
H1530 C1539 0.930 . S
N1531 Gd1500 2.661 . S
N1531 C1535 1.350 . S
N1531 C1536 1.307 . S
C1532 H1524 0.930 . S
C1532 C1533 1.355 . S
C1532 C1534 1.412 . S
C1533 H1525 0.930 . S
C1533 C1532 1.355 . S
C1533 C1536 1.402 . S
C1534 C1532 1.412 . S
C1534 C1535 1.417 . S
C1534 C1558 1.431 . S
C1535 N1531 1.350 . S
C1535 C1534 1.417 . S
C1535 C1538 1.426 . S
C1536 H1519 0.930 . S
C1536 N1531 1.307 . S
C1536 C1533 1.402 . S
N1537 Gd1500 2.601 . S
N1537 C1538 1.359 . S
N1537 C1541 1.334 . S
C1538 C1535 1.426 . S
C1538 N1537 1.359 . S
C1538 C1542 1.413 . S
C1539 H1530 0.930 . S
C1539 C1540 1.359 . S
C1539 C1541 1.394 . S
C1540 C1539 1.359 . S
C1540 C1542 1.391 . S
C1540 H1543 0.929 . S
C1541 H1523 0.930 . S
C1541 N1537 1.334 . S
C1541 C1539 1.394 . S
C1542 C1538 1.413 . S
C1542 C1540 1.391 . S
C1542 C1557 1.437 . S
H1543 C1540 0.929 . S
O1544 Gd1500 2.545 . S
O1544 C1559 1.258 . S
O1545 Gd1500 2.606 . S
O1545 Gd1501 2.362 . S
O1545 C1556 1.284 . S
O1546 Gd1501 2.324 . S
O1546 C1566 1.254 . S
O1547 Gd1500 2.429 . S
O1547 C1566 1.268 . S
O1548 Gd1500 2.545 . S
O1548 C1556 1.250 . S
O1549 Gd1500 2.412 . S
O1549 C1559 1.252 . S
O1550 Gd1501 2.545 . S
O1550 C1568 1.258 . S
O1551 Gd1500 2.362 . S
O1551 Gd1501 2.606 . S
O1551 C1567 1.284 . S
O1552 Gd1500 2.324 . S
O1552 C1575 1.254 . S
O1553 Gd1501 2.429 . S
O1553 C1575 1.268 . S
O1554 Gd1501 2.545 . S
O1554 C1567 1.250 . S
O1555 Gd1501 2.412 . S
O1555 C1568 1.252 . S
C1556 O1545 1.284 . S
C1556 O1548 1.250 . S
C1557 H1526 0.929 . S
C1557 C1542 1.437 . S
C1557 C1558 1.317 . S
C1558 H1529 0.930 . S
C1558 C1534 1.431 . S
C1558 C1557 1.317 . S
C1559 Gd1500 2.828 . S
C1559 O1544 1.258 . S
C1559 O1549 1.252 . S
C1559 C1560 1.497 . S
C1560 C1559 1.497 . S
C1560 C1561 1.395 . S
C1560 C1562 1.380 . S
C1561 C1560 1.395 . S
C1561 C1564 1.398 . S
C1561 H1576 0.930 . S
C1562 C1560 1.380 . S
C1562 C1563 1.391 . S
C1562 H1577 0.930 . S
C1563 C1562 1.391 . S
C1563 C1565 1.387 . S
C1564 C1561 1.398 . S
C1564 C1565 1.380 . S
C1564 H1578 0.930 . S
C1565 C1563 1.387 . S
C1565 C1564 1.380 . S
C1565 H1579 0.930 . S
C1566 O1546 1.254 . S
C1566 O1547 1.268 . S
C1567 O1551 1.284 . S
C1567 O1554 1.250 . S
C1568 Gd1501 2.828 . S
C1568 O1550 1.258 . S
C1568 O1555 1.252 . S
C1568 C1569 1.497 . S
C1569 C1568 1.497 . S
C1569 C1570 1.395 . S
C1569 C1571 1.380 . S
C1570 C1569 1.395 . S
C1570 C1573 1.398 . S
C1570 H1580 0.930 . S
C1571 C1569 1.380 . S
C1571 C1572 1.391 . S
C1571 H1581 0.930 . S
C1572 C1571 1.391 . S
C1572 C1574 1.387 . S
C1573 C1570 1.398 . S
C1573 C1574 1.380 . S
C1573 H1582 0.930 . S
C1574 C1572 1.387 . S
C1574 C1573 1.380 . S
C1574 H1583 0.930 . S
C1575 O1552 1.254 . S
C1575 O1553 1.268 . S
H1576 C1561 0.930 . S
H1577 C1562 0.930 . S
H1578 C1564 0.930 . S
H1579 C1565 0.930 . S
H1580 C1570 0.930 . S
H1581 C1571 0.930 . S
H1582 C1573 0.930 . S
H1583 C1574 0.930 . S
Gd1584 N1615 2.661 . S
Gd1584 N1621 2.601 . S
Gd1584 O1628 2.545 . S
Gd1584 O1629 2.606 . S
Gd1584 O1631 2.429 . S
Gd1584 O1632 2.545 . S
Gd1584 O1633 2.412 . S
Gd1584 O1635 2.362 . S
Gd1584 O1636 2.324 . S
Gd1584 C1643 2.828 . S
Gd1585 N1594 2.661 . S
Gd1585 N1598 2.601 . S
Gd1585 O1629 2.362 . S
Gd1585 O1630 2.324 . S
Gd1585 O1634 2.545 . S
Gd1585 O1635 2.606 . S
Gd1585 O1637 2.429 . S
Gd1585 O1638 2.545 . S
Gd1585 O1639 2.412 . S
Gd1585 C1652 2.828 . S
C1586 C1589 1.417 . S
C1586 C1591 1.431 . S
C1586 C1592 1.412 . S
C1587 C1590 1.437 . S
C1587 C1591 1.317 . S
C1587 H1606 0.929 . S
C1588 C1589 1.426 . S
C1588 C1590 1.413 . S
C1588 N1598 1.359 . S
C1589 C1586 1.417 . S
C1589 C1588 1.426 . S
C1589 N1594 1.350 . S
C1590 C1587 1.437 . S
C1590 C1588 1.413 . S
C1590 C1600 1.391 . S
C1591 C1586 1.431 . S
C1591 C1587 1.317 . S
C1591 H1602 0.930 . S
C1592 C1586 1.412 . S
C1592 C1593 1.355 . S
C1592 H1604 0.930 . S
C1593 C1592 1.355 . S
C1593 C1595 1.402 . S
C1593 H1605 0.930 . S
N1594 Gd1585 2.661 . S
N1594 C1589 1.350 . S
N1594 C1595 1.307 . S
C1595 C1593 1.402 . S
C1595 N1594 1.307 . S
C1595 H1596 0.930 . S
H1596 C1595 0.930 . S
C1597 N1598 1.334 . S
C1597 C1599 1.394 . S
C1597 H1601 0.930 . S
N1598 Gd1585 2.601 . S
N1598 C1588 1.359 . S
N1598 C1597 1.334 . S
C1599 C1597 1.394 . S
C1599 C1600 1.359 . S
C1599 H1611 0.930 . S
C1600 C1590 1.391 . S
C1600 C1599 1.359 . S
C1600 H1612 0.929 . S
H1601 C1597 0.930 . S
H1602 C1591 0.930 . S
H1603 C1620 0.930 . S
H1604 C1592 0.930 . S
H1605 C1593 0.930 . S
H1606 C1587 0.929 . S
H1607 C1625 0.930 . S
H1608 C1616 0.930 . S
H1609 C1617 0.930 . S
H1610 C1641 0.929 . S
H1611 C1599 0.930 . S
H1612 C1600 0.929 . S
H1613 C1642 0.930 . S
H1614 C1623 0.930 . S
N1615 Gd1584 2.661 . S
N1615 C1619 1.350 . S
N1615 C1620 1.307 . S
C1616 H1608 0.930 . S
C1616 C1617 1.355 . S
C1616 C1618 1.412 . S
C1617 H1609 0.930 . S
C1617 C1616 1.355 . S
C1617 C1620 1.402 . S
C1618 C1616 1.412 . S
C1618 C1619 1.417 . S
C1618 C1642 1.431 . S
C1619 N1615 1.350 . S
C1619 C1618 1.417 . S
C1619 C1622 1.426 . S
C1620 H1603 0.930 . S
C1620 N1615 1.307 . S
C1620 C1617 1.402 . S
N1621 Gd1584 2.601 . S
N1621 C1622 1.359 . S
N1621 C1625 1.334 . S
C1622 C1619 1.426 . S
C1622 N1621 1.359 . S
C1622 C1626 1.413 . S
C1623 H1614 0.930 . S
C1623 C1624 1.359 . S
C1623 C1625 1.394 . S
C1624 C1623 1.359 . S
C1624 C1626 1.391 . S
C1624 H1627 0.929 . S
C1625 H1607 0.930 . S
C1625 N1621 1.334 . S
C1625 C1623 1.394 . S
C1626 C1622 1.413 . S
C1626 C1624 1.391 . S
C1626 C1641 1.437 . S
H1627 C1624 0.929 . S
O1628 Gd1584 2.545 . S
O1628 C1643 1.258 . S
O1629 Gd1584 2.606 . S
O1629 Gd1585 2.362 . S
O1629 C1640 1.284 . S
O1630 Gd1585 2.324 . S
O1630 C1650 1.254 . S
O1631 Gd1584 2.429 . S
O1631 C1650 1.268 . S
O1632 Gd1584 2.545 . S
O1632 C1640 1.250 . S
O1633 Gd1584 2.412 . S
O1633 C1643 1.252 . S
O1634 Gd1585 2.545 . S
O1634 C1652 1.258 . S
O1635 Gd1584 2.362 . S
O1635 Gd1585 2.606 . S
O1635 C1651 1.284 . S
O1636 Gd1584 2.324 . S
O1636 C1659 1.254 . S
O1637 Gd1585 2.429 . S
O1637 C1659 1.268 . S
O1638 Gd1585 2.545 . S
O1638 C1651 1.250 . S
O1639 Gd1585 2.412 . S
O1639 C1652 1.252 . S
C1640 O1629 1.284 . S
C1640 O1632 1.250 . S
C1641 H1610 0.929 . S
C1641 C1626 1.437 . S
C1641 C1642 1.317 . S
C1642 H1613 0.930 . S
C1642 C1618 1.431 . S
C1642 C1641 1.317 . S
C1643 Gd1584 2.828 . S
C1643 O1628 1.258 . S
C1643 O1633 1.252 . S
C1643 C1644 1.497 . S
C1644 C1643 1.497 . S
C1644 C1645 1.395 . S
C1644 C1646 1.380 . S
C1645 C1644 1.395 . S
C1645 C1648 1.398 . S
C1645 H1660 0.930 . S
C1646 C1644 1.380 . S
C1646 C1647 1.391 . S
C1646 H1661 0.930 . S
C1647 C1646 1.391 . S
C1647 C1649 1.387 . S
C1648 C1645 1.398 . S
C1648 C1649 1.380 . S
C1648 H1662 0.930 . S
C1649 C1647 1.387 . S
C1649 C1648 1.380 . S
C1649 H1663 0.930 . S
C1650 O1630 1.254 . S
C1650 O1631 1.268 . S
C1651 O1635 1.284 . S
C1651 O1638 1.250 . S
C1652 Gd1585 2.828 . S
C1652 O1634 1.258 . S
C1652 O1639 1.252 . S
C1652 C1653 1.497 . S
C1653 C1652 1.497 . S
C1653 C1654 1.395 . S
C1653 C1655 1.380 . S
C1654 C1653 1.395 . S
C1654 C1657 1.398 . S
C1654 H1664 0.930 . S
C1655 C1653 1.380 . S
C1655 C1656 1.391 . S
C1655 H1665 0.930 . S
C1656 C1655 1.391 . S
C1656 C1658 1.387 . S
C1657 C1654 1.398 . S
C1657 C1658 1.380 . S
C1657 H1666 0.930 . S
C1658 C1656 1.387 . S
C1658 C1657 1.380 . S
C1658 H1667 0.930 . S
C1659 O1636 1.254 . S
C1659 O1637 1.268 . S
H1660 C1645 0.930 . S
H1661 C1646 0.930 . S
H1662 C1648 0.930 . S
H1663 C1649 0.930 . S
H1664 C1654 0.930 . S
H1665 C1655 0.930 . S
H1666 C1657 0.930 . S
H1667 C1658 0.930 . S
Gd1668 N1699 2.661 . S
Gd1668 N1705 2.601 . S
Gd1668 O1712 2.545 . S
Gd1668 O1713 2.606 . S
Gd1668 O1715 2.429 . S
Gd1668 O1716 2.545 . S
Gd1668 O1717 2.412 . S
Gd1668 O1719 2.362 . S
Gd1668 O1720 2.324 . S
Gd1668 C1727 2.828 . S
Gd1669 N1678 2.661 . S
Gd1669 N1682 2.601 . S
Gd1669 O1713 2.362 . S
Gd1669 O1714 2.324 . S
Gd1669 O1718 2.545 . S
Gd1669 O1719 2.606 . S
Gd1669 O1721 2.429 . S
Gd1669 O1722 2.545 . S
Gd1669 O1723 2.412 . S
Gd1669 C1736 2.828 . S
C1670 C1673 1.417 . S
C1670 C1675 1.431 . S
C1670 C1676 1.412 . S
C1671 C1674 1.437 . S
C1671 C1675 1.317 . S
C1671 H1690 0.929 . S
C1672 C1673 1.426 . S
C1672 C1674 1.413 . S
C1672 N1682 1.359 . S
C1673 C1670 1.417 . S
C1673 C1672 1.426 . S
C1673 N1678 1.350 . S
C1674 C1671 1.437 . S
C1674 C1672 1.413 . S
C1674 C1684 1.391 . S
C1675 C1670 1.431 . S
C1675 C1671 1.317 . S
C1675 H1686 0.930 . S
C1676 C1670 1.412 . S
C1676 C1677 1.355 . S
C1676 H1688 0.930 . S
C1677 C1676 1.355 . S
C1677 C1679 1.402 . S
C1677 H1689 0.930 . S
N1678 Gd1669 2.661 . S
N1678 C1673 1.350 . S
N1678 C1679 1.307 . S
C1679 C1677 1.402 . S
C1679 N1678 1.307 . S
C1679 H1680 0.930 . S
H1680 C1679 0.930 . S
C1681 N1682 1.334 . S
C1681 C1683 1.394 . S
C1681 H1685 0.930 . S
N1682 Gd1669 2.601 . S
N1682 C1672 1.359 . S
N1682 C1681 1.334 . S
C1683 C1681 1.394 . S
C1683 C1684 1.359 . S
C1683 H1695 0.930 . S
C1684 C1674 1.391 . S
C1684 C1683 1.359 . S
C1684 H1696 0.929 . S
H1685 C1681 0.930 . S
H1686 C1675 0.930 . S
H1687 C1704 0.930 . S
H1688 C1676 0.930 . S
H1689 C1677 0.930 . S
H1690 C1671 0.929 . S
H1691 C1709 0.930 . S
H1692 C1700 0.930 . S
H1693 C1701 0.930 . S
H1694 C1725 0.929 . S
H1695 C1683 0.930 . S
H1696 C1684 0.929 . S
H1697 C1726 0.930 . S
H1698 C1707 0.930 . S
N1699 Gd1668 2.661 . S
N1699 C1703 1.350 . S
N1699 C1704 1.307 . S
C1700 H1692 0.930 . S
C1700 C1701 1.355 . S
C1700 C1702 1.412 . S
C1701 H1693 0.930 . S
C1701 C1700 1.355 . S
C1701 C1704 1.402 . S
C1702 C1700 1.412 . S
C1702 C1703 1.417 . S
C1702 C1726 1.431 . S
C1703 N1699 1.350 . S
C1703 C1702 1.417 . S
C1703 C1706 1.426 . S
C1704 H1687 0.930 . S
C1704 N1699 1.307 . S
C1704 C1701 1.402 . S
N1705 Gd1668 2.601 . S
N1705 C1706 1.359 . S
N1705 C1709 1.334 . S
C1706 C1703 1.426 . S
C1706 N1705 1.359 . S
C1706 C1710 1.413 . S
C1707 H1698 0.930 . S
C1707 C1708 1.359 . S
C1707 C1709 1.394 . S
C1708 C1707 1.359 . S
C1708 C1710 1.391 . S
C1708 H1711 0.929 . S
C1709 H1691 0.930 . S
C1709 N1705 1.334 . S
C1709 C1707 1.394 . S
C1710 C1706 1.413 . S
C1710 C1708 1.391 . S
C1710 C1725 1.437 . S
H1711 C1708 0.929 . S
O1712 Gd1668 2.545 . S
O1712 C1727 1.258 . S
O1713 Gd1668 2.606 . S
O1713 Gd1669 2.362 . S
O1713 C1724 1.284 . S
O1714 Gd1669 2.324 . S
O1714 C1734 1.254 . S
O1715 Gd1668 2.429 . S
O1715 C1734 1.268 . S
O1716 Gd1668 2.545 . S
O1716 C1724 1.250 . S
O1717 Gd1668 2.412 . S
O1717 C1727 1.252 . S
O1718 Gd1669 2.545 . S
O1718 C1736 1.258 . S
O1719 Gd1668 2.362 . S
O1719 Gd1669 2.606 . S
O1719 C1735 1.284 . S
O1720 Gd1668 2.324 . S
O1720 C1743 1.254 . S
O1721 Gd1669 2.429 . S
O1721 C1743 1.268 . S
O1722 Gd1669 2.545 . S
O1722 C1735 1.250 . S
O1723 Gd1669 2.412 . S
O1723 C1736 1.252 . S
C1724 O1713 1.284 . S
C1724 O1716 1.250 . S
C1725 H1694 0.929 . S
C1725 C1710 1.437 . S
C1725 C1726 1.317 . S
C1726 H1697 0.930 . S
C1726 C1702 1.431 . S
C1726 C1725 1.317 . S
C1727 Gd1668 2.828 . S
C1727 O1712 1.258 . S
C1727 O1717 1.252 . S
C1727 C1728 1.497 . S
C1728 C1727 1.497 . S
C1728 C1729 1.395 . S
C1728 C1730 1.380 . S
C1729 C1728 1.395 . S
C1729 C1732 1.398 . S
C1729 H1744 0.930 . S
C1730 C1728 1.380 . S
C1730 C1731 1.391 . S
C1730 H1745 0.930 . S
C1731 C1730 1.391 . S
C1731 C1733 1.387 . S
C1732 C1729 1.398 . S
C1732 C1733 1.380 . S
C1732 H1746 0.930 . S
C1733 C1731 1.387 . S
C1733 C1732 1.380 . S
C1733 H1747 0.930 . S
C1734 O1714 1.254 . S
C1734 O1715 1.268 . S
C1735 O1719 1.284 . S
C1735 O1722 1.250 . S
C1736 Gd1669 2.828 . S
C1736 O1718 1.258 . S
C1736 O1723 1.252 . S
C1736 C1737 1.497 . S
C1737 C1736 1.497 . S
C1737 C1738 1.395 . S
C1737 C1739 1.380 . S
C1738 C1737 1.395 . S
C1738 C1741 1.398 . S
C1738 H1748 0.930 . S
C1739 C1737 1.380 . S
C1739 C1740 1.391 . S
C1739 H1749 0.930 . S
C1740 C1739 1.391 . S
C1740 C1742 1.387 . S
C1741 C1738 1.398 . S
C1741 C1742 1.380 . S
C1741 H1750 0.930 . S
C1742 C1740 1.387 . S
C1742 C1741 1.380 . S
C1742 H1751 0.930 . S
C1743 O1720 1.254 . S
C1743 O1721 1.268 . S
H1744 C1729 0.930 . S
H1745 C1730 0.930 . S
H1746 C1732 0.930 . S
H1747 C1733 0.930 . S
H1748 C1738 0.930 . S
H1749 C1739 0.930 . S
H1750 C1741 0.930 . S
H1751 C1742 0.930 . S
Gd1752 N1783 2.661 . S
Gd1752 N1789 2.601 . S
Gd1752 O1796 2.545 . S
Gd1752 O1797 2.606 . S
Gd1752 O1799 2.429 . S
Gd1752 O1800 2.545 . S
Gd1752 O1801 2.412 . S
Gd1752 O1803 2.362 . S
Gd1752 O1804 2.324 . S
Gd1752 C1811 2.828 . S
Gd1753 N1762 2.661 . S
Gd1753 N1766 2.601 . S
Gd1753 O1797 2.362 . S
Gd1753 O1798 2.324 . S
Gd1753 O1802 2.545 . S
Gd1753 O1803 2.606 . S
Gd1753 O1805 2.429 . S
Gd1753 O1806 2.545 . S
Gd1753 O1807 2.412 . S
Gd1753 C1820 2.828 . S
C1754 C1757 1.417 . S
C1754 C1759 1.431 . S
C1754 C1760 1.412 . S
C1755 C1758 1.437 . S
C1755 C1759 1.317 . S
C1755 H1774 0.929 . S
C1756 C1757 1.426 . S
C1756 C1758 1.413 . S
C1756 N1766 1.359 . S
C1757 C1754 1.417 . S
C1757 C1756 1.426 . S
C1757 N1762 1.350 . S
C1758 C1755 1.437 . S
C1758 C1756 1.413 . S
C1758 C1768 1.391 . S
C1759 C1754 1.431 . S
C1759 C1755 1.317 . S
C1759 H1770 0.930 . S
C1760 C1754 1.412 . S
C1760 C1761 1.355 . S
C1760 H1772 0.930 . S
C1761 C1760 1.355 . S
C1761 C1763 1.402 . S
C1761 H1773 0.930 . S
N1762 Gd1753 2.661 . S
N1762 C1757 1.350 . S
N1762 C1763 1.307 . S
C1763 C1761 1.402 . S
C1763 N1762 1.307 . S
C1763 H1764 0.930 . S
H1764 C1763 0.930 . S
C1765 N1766 1.334 . S
C1765 C1767 1.394 . S
C1765 H1769 0.930 . S
N1766 Gd1753 2.601 . S
N1766 C1756 1.359 . S
N1766 C1765 1.334 . S
C1767 C1765 1.394 . S
C1767 C1768 1.359 . S
C1767 H1779 0.930 . S
C1768 C1758 1.391 . S
C1768 C1767 1.359 . S
C1768 H1780 0.929 . S
H1769 C1765 0.930 . S
H1770 C1759 0.930 . S
H1771 C1788 0.930 . S
H1772 C1760 0.930 . S
H1773 C1761 0.930 . S
H1774 C1755 0.929 . S
H1775 C1793 0.930 . S
H1776 C1784 0.930 . S
H1777 C1785 0.930 . S
H1778 C1809 0.929 . S
H1779 C1767 0.930 . S
H1780 C1768 0.929 . S
H1781 C1810 0.930 . S
H1782 C1791 0.930 . S
N1783 Gd1752 2.661 . S
N1783 C1787 1.350 . S
N1783 C1788 1.307 . S
C1784 H1776 0.930 . S
C1784 C1785 1.355 . S
C1784 C1786 1.412 . S
C1785 H1777 0.930 . S
C1785 C1784 1.355 . S
C1785 C1788 1.402 . S
C1786 C1784 1.412 . S
C1786 C1787 1.417 . S
C1786 C1810 1.431 . S
C1787 N1783 1.350 . S
C1787 C1786 1.417 . S
C1787 C1790 1.426 . S
C1788 H1771 0.930 . S
C1788 N1783 1.307 . S
C1788 C1785 1.402 . S
N1789 Gd1752 2.601 . S
N1789 C1790 1.359 . S
N1789 C1793 1.334 . S
C1790 C1787 1.426 . S
C1790 N1789 1.359 . S
C1790 C1794 1.413 . S
C1791 H1782 0.930 . S
C1791 C1792 1.359 . S
C1791 C1793 1.394 . S
C1792 C1791 1.359 . S
C1792 C1794 1.391 . S
C1792 H1795 0.929 . S
C1793 H1775 0.930 . S
C1793 N1789 1.334 . S
C1793 C1791 1.394 . S
C1794 C1790 1.413 . S
C1794 C1792 1.391 . S
C1794 C1809 1.437 . S
H1795 C1792 0.929 . S
O1796 Gd1752 2.545 . S
O1796 C1811 1.258 . S
O1797 Gd1752 2.606 . S
O1797 Gd1753 2.362 . S
O1797 C1808 1.284 . S
O1798 Gd1753 2.324 . S
O1798 C1818 1.254 . S
O1799 Gd1752 2.429 . S
O1799 C1818 1.268 . S
O1800 Gd1752 2.545 . S
O1800 C1808 1.250 . S
O1801 Gd1752 2.412 . S
O1801 C1811 1.252 . S
O1802 Gd1753 2.545 . S
O1802 C1820 1.258 . S
O1803 Gd1752 2.362 . S
O1803 Gd1753 2.606 . S
O1803 C1819 1.284 . S
O1804 Gd1752 2.324 . S
O1804 C1827 1.254 . S
O1805 Gd1753 2.429 . S
O1805 C1827 1.268 . S
O1806 Gd1753 2.545 . S
O1806 C1819 1.250 . S
O1807 Gd1753 2.412 . S
O1807 C1820 1.252 . S
C1808 O1797 1.284 . S
C1808 O1800 1.250 . S
C1809 H1778 0.929 . S
C1809 C1794 1.437 . S
C1809 C1810 1.317 . S
C1810 H1781 0.930 . S
C1810 C1786 1.431 . S
C1810 C1809 1.317 . S
C1811 Gd1752 2.828 . S
C1811 O1796 1.258 . S
C1811 O1801 1.252 . S
C1811 C1812 1.497 . S
C1812 C1811 1.497 . S
C1812 C1813 1.395 . S
C1812 C1814 1.380 . S
C1813 C1812 1.395 . S
C1813 C1816 1.398 . S
C1813 H1828 0.930 . S
C1814 C1812 1.380 . S
C1814 C1815 1.391 . S
C1814 H1829 0.930 . S
C1815 C1814 1.391 . S
C1815 C1817 1.387 . S
C1816 C1813 1.398 . S
C1816 C1817 1.380 . S
C1816 H1830 0.930 . S
C1817 C1815 1.387 . S
C1817 C1816 1.380 . S
C1817 H1831 0.930 . S
C1818 O1798 1.254 . S
C1818 O1799 1.268 . S
C1819 O1803 1.284 . S
C1819 O1806 1.250 . S
C1820 Gd1753 2.828 . S
C1820 O1802 1.258 . S
C1820 O1807 1.252 . S
C1820 C1821 1.497 . S
C1821 C1820 1.497 . S
C1821 C1822 1.395 . S
C1821 C1823 1.380 . S
C1822 C1821 1.395 . S
C1822 C1825 1.398 . S
C1822 H1832 0.930 . S
C1823 C1821 1.380 . S
C1823 C1824 1.391 . S
C1823 H1833 0.930 . S
C1824 C1823 1.391 . S
C1824 C1826 1.387 . S
C1825 C1822 1.398 . S
C1825 C1826 1.380 . S
C1825 H1834 0.930 . S
C1826 C1824 1.387 . S
C1826 C1825 1.380 . S
C1826 H1835 0.930 . S
C1827 O1804 1.254 . S
C1827 O1805 1.268 . S
H1828 C1813 0.930 . S
H1829 C1814 0.930 . S
H1830 C1816 0.930 . S
H1831 C1817 0.930 . S
H1832 C1822 0.930 . S
H1833 C1823 0.930 . S
H1834 C1825 0.930 . S
H1835 C1826 0.930 . S
H1836 C1842 0.930 . S
H1837 C1846 0.930 . S
H1838 C1851 0.929 . S
H1839 C1849 0.929 . S
H1840 C1844 0.929 . S
H1841 C1850 0.929 . S
C1842 H1836 0.930 . S
C1842 C1843 1.367 . S
C1842 C1850 1.378 . S
C1843 C1842 1.367 . S
C1843 C1851 1.433 . S
C1844 H1840 0.929 . S
C1844 C1846 1.378 . S
C1844 C1848 1.350 . S
C1845 C1848 1.463 . S
C1845 C1850 1.350 . S
C1845 N1853 1.427 . S
C1846 H1837 0.930 . S
C1846 C1844 1.378 . S
C1846 C1847 1.367 . S
C1847 C1846 1.367 . S
C1847 C1849 1.433 . S
C1848 C1844 1.350 . S
C1848 C1845 1.463 . S
C1848 N1852 1.427 . S
C1849 H1839 0.929 . S
C1849 C1847 1.433 . S
C1849 N1852 1.384 . S
C1850 H1841 0.929 . S
C1850 C1842 1.378 . S
C1850 C1845 1.350 . S
C1851 H1838 0.929 . S
C1851 C1843 1.433 . S
C1851 N1853 1.384 . S
N1852 C1848 1.427 . S
N1852 C1849 1.384 . S
N1853 C1845 1.427 . S
N1853 C1851 1.384 . S
H1854 C1860 0.930 . S
H1855 C1864 0.930 . S
H1856 C1869 0.929 . S
H1857 C1867 0.929 . S
H1858 C1862 0.929 . S
H1859 C1868 0.929 . S
C1860 H1854 0.930 . S
C1860 C1861 1.367 . S
C1860 C1868 1.378 . S
C1861 C1860 1.367 . S
C1861 C1869 1.433 . S
C1862 H1858 0.929 . S
C1862 C1864 1.378 . S
C1862 C1866 1.350 . S
C1863 C1866 1.463 . S
C1863 C1868 1.350 . S
C1863 N1871 1.427 . S
C1864 H1855 0.930 . S
C1864 C1862 1.378 . S
C1864 C1865 1.367 . S
C1865 C1864 1.367 . S
C1865 C1867 1.433 . S
C1866 C1862 1.350 . S
C1866 C1863 1.463 . S
C1866 N1870 1.427 . S
C1867 H1857 0.929 . S
C1867 C1865 1.433 . S
C1867 N1870 1.384 . S
C1868 H1859 0.929 . S
C1868 C1860 1.378 . S
C1868 C1863 1.350 . S
C1869 H1856 0.929 . S
C1869 C1861 1.433 . S
C1869 N1871 1.384 . S
N1870 C1866 1.427 . S
N1870 C1867 1.384 . S
N1871 C1863 1.427 . S
N1871 C1869 1.384 . S
H1872 C1878 0.930 . S
H1873 C1882 0.930 . S
H1874 C1887 0.929 . S
H1875 C1885 0.929 1_556 S
H1876 C1880 0.929 . S
H1877 C1886 0.929 . S
C1878 H1872 0.930 . S
C1878 C1879 1.367 . S
C1878 C1886 1.378 . S
C1879 C1878 1.367 . S
C1879 C1887 1.433 . S
C1880 H1876 0.929 . S
C1880 C1882 1.378 . S
C1880 C1884 1.350 . S
C1881 C1884 1.463 . S
C1881 C1886 1.350 . S
C1881 N1889 1.427 . S
C1882 H1873 0.930 . S
C1882 C1880 1.378 . S
C1882 C1883 1.367 . S
C1883 C1882 1.367 . S
C1883 C1885 1.433 . S
C1884 C1880 1.350 . S
C1884 C1881 1.463 . S
C1884 N1888 1.427 . S
C1885 H1875 0.929 1_554 S
C1885 C1883 1.433 . S
C1885 N1888 1.384 . S
C1886 H1877 0.929 . S
C1886 C1878 1.378 . S
C1886 C1881 1.350 . S
C1887 H1874 0.929 . S
C1887 C1879 1.433 . S
C1887 N1889 1.384 . S
N1888 C1884 1.427 . S
N1888 C1885 1.384 . S
N1889 C1881 1.427 . S
N1889 C1887 1.384 . S
H1890 C1896 0.930 . S
H1891 C1900 0.930 . S
H1892 C1905 0.929 . S
H1893 C1903 0.993 . S
H1894 C1898 0.929 . S
H1895 C1904 0.929 . S
C1896 H1890 0.930 . S
C1896 C1897 1.367 . S
C1896 C1904 1.378 . S
C1897 C1896 1.367 . S
C1897 C1905 1.433 . S
C1898 H1894 0.929 . S
C1898 C1900 1.378 . S
C1898 C1902 1.350 . S
C1899 C1902 1.463 . S
C1899 C1904 1.350 . S
C1899 N1907 1.427 . S
C1900 H1891 0.930 . S
C1900 C1898 1.378 . S
C1900 C1901 1.367 . S
C1901 C1900 1.367 . S
C1901 C1903 1.433 . S
C1902 C1898 1.350 . S
C1902 C1899 1.463 . S
C1902 N1906 1.427 . S
C1903 H1893 0.993 . S
C1903 C1901 1.433 . S
C1903 N1906 1.384 . S
C1904 H1895 0.929 . S
C1904 C1896 1.378 . S
C1904 C1899 1.350 . S
C1905 H1892 0.929 . S
C1905 C1897 1.433 . S
C1905 N1907 1.384 . S
N1906 C1902 1.427 . S
N1906 C1903 1.384 . S
N1907 C1899 1.427 . S
N1907 C1905 1.384 . S
H1908 C1914 0.930 . S
H1909 C1918 0.930 . S
H1910 C1923 0.929 . S
H1911 C1921 0.929 . S
H1912 C1916 0.929 . S
H1913 C1922 0.929 . S
C1914 H1908 0.930 . S
C1914 C1915 1.367 . S
C1914 C1922 1.378 . S
C1915 C1914 1.367 . S
C1915 C1923 1.433 . S
C1916 H1912 0.929 . S
C1916 C1918 1.378 . S
C1916 C1920 1.350 . S
C1917 C1920 1.463 . S
C1917 C1922 1.350 . S
C1917 N1925 1.427 . S
C1918 H1909 0.930 . S
C1918 C1916 1.378 . S
C1918 C1919 1.367 . S
C1919 C1918 1.367 . S
C1919 C1921 1.433 . S
C1920 C1916 1.350 . S
C1920 C1917 1.463 . S
C1920 N1924 1.427 . S
C1921 H1911 0.929 . S
C1921 C1919 1.433 . S
C1921 N1924 1.384 . S
C1922 H1913 0.929 . S
C1922 C1914 1.378 . S
C1922 C1917 1.350 . S
C1923 H1910 0.929 . S
C1923 C1915 1.433 . S
C1923 N1925 1.384 . S
N1924 C1920 1.427 . S
N1924 C1921 1.384 . S
N1925 C1917 1.427 . S
N1925 C1923 1.384 . S
H1926 C1932 0.930 . S
H1927 C1936 0.930 . S
H1928 C1941 0.929 . S
H1929 C1939 0.929 1_554 S
H1930 C1934 0.929 . S
H1931 C1940 0.929 . S
C1932 H1926 0.930 . S
C1932 C1933 1.367 . S
C1932 C1940 1.378 . S
C1933 C1932 1.367 . S
C1933 C1941 1.433 . S
C1934 H1930 0.929 . S
C1934 C1936 1.378 . S
C1934 C1938 1.350 . S
C1935 C1938 1.463 . S
C1935 C1940 1.350 . S
C1935 N1943 1.427 . S
C1936 H1927 0.930 . S
C1936 C1934 1.378 . S
C1936 C1937 1.367 . S
C1937 C1936 1.367 . S
C1937 C1939 1.433 . S
C1938 C1934 1.350 . S
C1938 C1935 1.463 . S
C1938 N1942 1.427 . S
C1939 H1929 0.929 1_556 S
C1939 C1937 1.433 . S
C1939 N1942 1.384 . S
C1940 H1931 0.929 . S
C1940 C1932 1.378 . S
C1940 C1935 1.350 . S
C1941 H1928 0.929 . S
C1941 C1933 1.433 . S
C1941 N1943 1.384 . S
N1942 C1938 1.427 . S
N1942 C1939 1.384 . S
N1943 C1935 1.427 . S
N1943 C1941 1.384 . S
H1944 C1950 0.930 . S
H1945 C1954 0.930 . S
H1946 C1959 0.929 . S
H1947 C1957 0.929 1_554 S
H1948 C1952 0.929 . S
H1949 C1958 0.929 . S
C1950 H1944 0.930 . S
C1950 C1951 1.367 . S
C1950 C1958 1.378 . S
C1951 C1950 1.367 . S
C1951 C1959 1.433 . S
C1952 H1948 0.929 . S
C1952 C1954 1.378 . S
C1952 C1956 1.350 . S
C1953 C1956 1.463 . S
C1953 C1958 1.350 . S
C1953 N1961 1.427 . S
C1954 H1945 0.930 . S
C1954 C1952 1.378 . S
C1954 C1955 1.367 . S
C1955 C1954 1.367 . S
C1955 C1957 1.433 . S
C1956 C1952 1.350 . S
C1956 C1953 1.463 . S
C1956 N1960 1.427 . S
C1957 H1947 0.929 1_556 S
C1957 C1955 1.433 . S
C1957 N1960 1.384 . S
C1958 H1949 0.929 . S
C1958 C1950 1.378 . S
C1958 C1953 1.350 . S
C1959 H1946 0.929 . S
C1959 C1951 1.433 . S
C1959 N1961 1.384 . S
N1960 C1956 1.427 . S
N1960 C1957 1.384 . S
N1961 C1953 1.427 . S
N1961 C1959 1.384 . S
H1962 C1968 0.930 . S
H1963 C1972 0.930 . S
H1964 C1977 0.929 . S
H1965 C1975 0.943 . S
H1966 C1970 0.929 . S
H1967 C1976 0.929 . S
C1968 H1962 0.930 . S
C1968 C1969 1.367 . S
C1968 C1976 1.378 . S
C1969 C1968 1.367 . S
C1969 C1977 1.433 . S
C1970 H1966 0.929 . S
C1970 C1972 1.378 . S
C1970 C1974 1.350 . S
C1971 C1974 1.463 . S
C1971 C1976 1.350 . S
C1971 N1979 1.427 . S
C1972 H1963 0.930 . S
C1972 C1970 1.378 . S
C1972 C1973 1.367 . S
C1973 C1972 1.367 . S
C1973 C1975 1.433 . S
C1974 C1970 1.350 . S
C1974 C1971 1.463 . S
C1974 N1978 1.427 . S
C1975 H1965 0.943 . S
C1975 C1973 1.433 . S
C1975 N1978 1.384 . S
C1976 H1967 0.929 . S
C1976 C1968 1.378 . S
C1976 C1971 1.350 . S
C1977 H1964 0.929 . S
C1977 C1969 1.433 . S
C1977 N1979 1.384 . S
N1978 C1974 1.427 . S
N1978 C1975 1.384 . S
N1979 C1971 1.427 . S
N1979 C1977 1.384 . S
H1980 C1986 0.930 . S
H1981 C1990 0.930 . S
H1982 C1995 0.929 . S
H1983 C1993 0.929 . S
H1984 C1988 0.929 . S
H1985 C1994 0.929 . S
C1986 H1980 0.930 . S
C1986 C1987 1.367 . S
C1986 C1994 1.378 . S
C1987 C1986 1.367 . S
C1987 C1995 1.433 . S
C1988 H1984 0.929 . S
C1988 C1990 1.378 . S
C1988 C1992 1.350 . S
C1989 C1992 1.463 . S
C1989 C1994 1.350 . S
C1989 N1997 1.427 . S
C1990 H1981 0.930 . S
C1990 C1988 1.378 . S
C1990 C1991 1.367 . S
C1991 C1990 1.367 . S
C1991 C1993 1.433 . S
C1992 C1988 1.350 . S
C1992 C1989 1.463 . S
C1992 N1996 1.427 . S
C1993 H1983 0.929 . S
C1993 C1991 1.433 . S
C1993 N1996 1.384 . S
C1994 H1985 0.929 . S
C1994 C1986 1.378 . S
C1994 C1989 1.350 . S
C1995 H1982 0.929 . S
C1995 C1987 1.433 . S
C1995 N1997 1.384 . S
N1996 C1992 1.427 . S
N1996 C1993 1.384 . S
N1997 C1989 1.427 . S
N1997 C1995 1.384 . S
H1998 C2004 0.930 . S
H1999 C2008 0.930 . S
H2000 C2013 0.929 . S
H2001 C2011 0.929 . S
H2002 C2006 0.929 . S
H2003 C2012 0.929 . S
C2004 H1998 0.930 . S
C2004 C2005 1.367 . S
C2004 C2012 1.378 . S
C2005 C2004 1.367 . S
C2005 C2013 1.433 . S
C2006 H2002 0.929 . S
C2006 C2008 1.378 . S
C2006 C2010 1.350 . S
C2007 C2010 1.463 . S
C2007 C2012 1.350 . S
C2007 N2015 1.427 . S
C2008 H1999 0.930 . S
C2008 C2006 1.378 . S
C2008 C2009 1.367 . S
C2009 C2008 1.367 . S
C2009 C2011 1.433 . S
C2010 C2006 1.350 . S
C2010 C2007 1.463 . S
C2010 N2014 1.427 . S
C2011 H2001 0.929 . S
C2011 C2009 1.433 . S
C2011 N2014 1.384 . S
C2012 H2003 0.929 . S
C2012 C2004 1.378 . S
C2012 C2007 1.350 . S
C2013 H2000 0.929 . S
C2013 C2005 1.433 . S
C2013 N2015 1.384 . S
N2014 C2010 1.427 . S
N2014 C2011 1.384 . S
N2015 C2007 1.427 . S
N2015 C2013 1.384 . S
H2016 C2022 0.930 . S
H2017 C2026 0.930 . S
H2018 C2031 0.929 . S
H2019 C2029 0.989 . S
H2020 C2024 0.929 . S
H2021 C2030 0.929 . S
C2022 H2016 0.930 . S
C2022 C2023 1.367 . S
C2022 C2030 1.378 . S
C2023 C2022 1.367 . S
C2023 C2031 1.433 . S
C2024 H2020 0.929 . S
C2024 C2026 1.378 . S
C2024 C2028 1.350 . S
C2025 C2028 1.463 . S
C2025 C2030 1.350 . S
C2025 N2033 1.427 . S
C2026 H2017 0.930 . S
C2026 C2024 1.378 . S
C2026 C2027 1.367 . S
C2027 C2026 1.367 . S
C2027 C2029 1.433 . S
C2028 C2024 1.350 . S
C2028 C2025 1.463 . S
C2028 N2032 1.427 . S
C2029 H2019 0.989 . S
C2029 C2027 1.433 . S
C2029 N2032 1.384 . S
C2030 H2021 0.929 . S
C2030 C2022 1.378 . S
C2030 C2025 1.350 . S
C2031 H2018 0.929 . S
C2031 C2023 1.433 . S
C2031 N2033 1.384 . S
N2032 C2028 1.427 . S
N2032 C2029 1.384 . S
N2033 C2025 1.427 . S
N2033 C2031 1.384 . S
H2034 C2040 0.930 . S
H2035 C2044 0.930 . S
H2036 C2049 0.929 . S
H2037 C2047 0.929 . S
H2038 C2042 0.929 . S
H2039 C2048 0.929 . S
C2040 H2034 0.930 . S
C2040 C2041 1.367 . S
C2040 C2048 1.378 . S
C2041 C2040 1.367 . S
C2041 C2049 1.433 . S
C2042 H2038 0.929 . S
C2042 C2044 1.378 . S
C2042 C2046 1.350 . S
C2043 C2046 1.463 . S
C2043 C2048 1.350 . S
C2043 N2051 1.427 . S
C2044 H2035 0.930 . S
C2044 C2042 1.378 . S
C2044 C2045 1.367 . S
C2045 C2044 1.367 . S
C2045 C2047 1.433 . S
C2046 C2042 1.350 . S
C2046 C2043 1.463 . S
C2046 N2050 1.427 . S
C2047 H2037 0.929 . S
C2047 C2045 1.433 . S
C2047 N2050 1.384 . S
C2048 H2039 0.929 . S
C2048 C2040 1.378 . S
C2048 C2043 1.350 . S
C2049 H2036 0.929 . S
C2049 C2041 1.433 . S
C2049 N2051 1.384 . S
N2050 C2046 1.427 . S
N2050 C2047 1.384 . S
N2051 C2043 1.427 . S
N2051 C2049 1.384 . S
H2052 C2058 0.930 . S
H2053 C2062 0.930 . S
H2054 C2067 0.929 . S
H2055 C2065 0.929 . S
H2056 C2060 0.929 . S
H2057 C2066 0.929 . S
C2058 H2052 0.930 . S
C2058 C2059 1.367 1_455 S
C2058 C2066 1.378 . S
C2059 C2058 1.367 1_655 S
C2059 C2067 1.433 . S
C2060 H2056 0.929 . S
C2060 C2062 1.378 . S
C2060 C2064 1.350 . S
C2061 C2064 1.463 . S
C2061 C2066 1.350 . S
C2061 N2069 1.427 . S
C2062 H2053 0.930 . S
C2062 C2060 1.378 . S
C2062 C2063 1.367 . S
C2063 C2062 1.367 . S
C2063 C2065 1.433 . S
C2064 C2060 1.350 . S
C2064 C2061 1.463 . S
C2064 N2068 1.427 . S
C2065 H2055 0.929 . S
C2065 C2063 1.433 . S
C2065 N2068 1.384 . S
C2066 H2057 0.929 . S
C2066 C2058 1.378 . S
C2066 C2061 1.350 . S
C2067 H2054 0.929 . S
C2067 C2059 1.433 . S
C2067 N2069 1.384 1_655 S
N2068 C2064 1.427 . S
N2068 C2065 1.384 . S
N2069 C2061 1.427 . S
N2069 C2067 1.384 1_455 S
H2070 C2076 0.930 . S
H2071 C2080 0.930 . S
H2072 C2085 0.929 . S
H2073 C2083 0.929 . S
H2074 C2078 0.929 . S
H2075 C2084 0.929 . S
C2076 H2070 0.930 . S
C2076 C2077 1.367 . S
C2076 C2084 1.378 . S
C2077 C2076 1.367 . S
C2077 C2085 1.433 . S
C2078 H2074 0.929 . S
C2078 C2080 1.378 . S
C2078 C2082 1.350 . S
C2079 C2082 1.463 . S
C2079 C2084 1.350 . S
C2079 N2087 1.427 . S
C2080 H2071 0.930 . S
C2080 C2078 1.378 . S
C2080 C2081 1.367 . S
C2081 C2080 1.367 . S
C2081 C2083 1.433 . S
C2082 C2078 1.350 . S
C2082 C2079 1.463 . S
C2082 N2086 1.427 . S
C2083 H2073 0.929 . S
C2083 C2081 1.433 . S
C2083 N2086 1.384 . S
C2084 H2075 0.929 . S
C2084 C2076 1.378 . S
C2084 C2079 1.350 . S
C2085 H2072 0.929 . S
C2085 C2077 1.433 . S
C2085 N2087 1.384 . S
N2086 C2082 1.427 . S
N2086 C2083 1.384 . S
N2087 C2079 1.427 . S
N2087 C2085 1.384 . S
H2088 C2094 0.930 . S
H2089 C2098 0.930 . S
H2090 C2103 0.929 1_545 S
H2091 C2101 0.929 . S
H2092 C2096 0.929 . S
H2093 C2102 0.929 . S
C2094 H2088 0.930 . S
C2094 C2095 1.367 . S
C2094 C2102 1.378 1_545 S
C2095 C2094 1.367 . S
C2095 C2103 1.433 1_545 S
C2096 H2092 0.929 . S
C2096 C2098 1.378 . S
C2096 C2100 1.350 . S
C2097 C2100 1.463 . S
C2097 C2102 1.350 . S
C2097 N2105 1.427 . S
C2098 H2089 0.930 . S
C2098 C2096 1.378 . S
C2098 C2099 1.367 . S
C2099 C2098 1.367 . S
C2099 C2101 1.433 . S
C2100 C2096 1.350 . S
C2100 C2097 1.463 . S
C2100 N2104 1.427 . S
C2101 H2091 0.929 . S
C2101 C2099 1.433 . S
C2101 N2104 1.384 . S
C2102 H2093 0.929 . S
C2102 C2094 1.378 1_565 S
C2102 C2097 1.350 . S
C2103 H2090 0.929 1_565 S
C2103 C2095 1.433 1_565 S
C2103 N2105 1.384 . S
N2104 C2100 1.427 . S
N2104 C2101 1.384 . S
N2105 C2097 1.427 . S
N2105 C2103 1.384 . S
H2106 C2112 0.930 . S
H2107 C2116 0.930 . S
H2108 C2121 0.929 . S
H2109 C2119 0.929 . S
H2110 C2114 0.929 . S
H2111 C2120 0.929 . S
C2112 H2106 0.930 . S
C2112 C2113 1.367 . S
C2112 C2120 1.378 . S
C2113 C2112 1.367 . S
C2113 C2121 1.433 . S
C2114 H2110 0.929 . S
C2114 C2116 1.378 . S
C2114 C2118 1.350 . S
C2115 C2118 1.463 . S
C2115 C2120 1.350 . S
C2115 N2123 1.427 . S
C2116 H2107 0.930 . S
C2116 C2114 1.378 . S
C2116 C2117 1.367 . S
C2117 C2116 1.367 . S
C2117 C2119 1.433 . S
C2118 C2114 1.350 . S
C2118 C2115 1.463 . S
C2118 N2122 1.427 . S
C2119 H2109 0.929 . S
C2119 C2117 1.433 . S
C2119 N2122 1.384 . S
C2120 H2111 0.929 . S
C2120 C2112 1.378 . S
C2120 C2115 1.350 . S
C2121 H2108 0.929 . S
C2121 C2113 1.433 . S
C2121 N2123 1.384 . S
N2122 C2118 1.427 . S
N2122 C2119 1.384 . S
N2123 C2115 1.427 . S
N2123 C2121 1.384 . S
H2124 C2130 0.930 . S
H2125 C2134 0.930 . S
H2126 C2139 0.929 . S
H2127 C2137 0.929 . S
H2128 C2132 0.929 . S
H2129 C2138 0.929 . S
C2130 H2124 0.930 . S
C2130 C2131 1.367 . S
C2130 C2138 1.378 . S
C2131 C2130 1.367 . S
C2131 C2139 1.433 . S
C2132 H2128 0.929 . S
C2132 C2134 1.378 . S
C2132 C2136 1.350 . S
C2133 C2136 1.463 . S
C2133 C2138 1.350 . S
C2133 N2141 1.427 . S
C2134 H2125 0.930 . S
C2134 C2132 1.378 . S
C2134 C2135 1.367 . S
C2135 C2134 1.367 . S
C2135 C2137 1.433 . S
C2136 C2132 1.350 . S
C2136 C2133 1.463 . S
C2136 N2140 1.427 . S
C2137 H2127 0.929 . S
C2137 C2135 1.433 . S
C2137 N2140 1.384 . S
C2138 H2129 0.929 . S
C2138 C2130 1.378 . S
C2138 C2133 1.350 . S
C2139 H2126 0.929 . S
C2139 C2131 1.433 . S
C2139 N2141 1.384 . S
N2140 C2136 1.427 . S
N2140 C2137 1.384 . S
N2141 C2133 1.427 . S
N2141 C2139 1.384 . S
H2142 C2148 0.930 . S
H2143 C2152 0.930 . S
H2144 C2157 0.929 . S
H2145 C2155 0.929 . S
H2146 C2150 0.929 . S
H2147 C2156 0.929 . S
C2148 H2142 0.930 . S
C2148 C2149 1.367 . S
C2148 C2156 1.378 . S
C2149 C2148 1.367 . S
C2149 C2157 1.433 . S
C2150 H2146 0.929 . S
C2150 C2152 1.378 . S
C2150 C2154 1.350 . S
C2151 C2154 1.463 . S
C2151 C2156 1.350 . S
C2151 N2159 1.427 . S
C2152 H2143 0.930 . S
C2152 C2150 1.378 . S
C2152 C2153 1.367 . S
C2153 C2152 1.367 . S
C2153 C2155 1.433 . S
C2154 C2150 1.350 . S
C2154 C2151 1.463 . S
C2154 N2158 1.427 . S
C2155 H2145 0.929 . S
C2155 C2153 1.433 . S
C2155 N2158 1.384 . S
C2156 H2147 0.929 . S
C2156 C2148 1.378 . S
C2156 C2151 1.350 . S
C2157 H2144 0.929 . S
C2157 C2149 1.433 . S
C2157 N2159 1.384 . S
N2158 C2154 1.427 . S
N2158 C2155 1.384 . S
N2159 C2151 1.427 . S
N2159 C2157 1.384 . S
H2160 C2166 0.930 . S
H2161 C2170 0.930 . S
H2162 C2175 0.929 . S
H2163 C2173 0.929 . S
H2164 C2168 0.929 . S
H2165 C2174 0.929 . S
C2166 H2160 0.930 . S
C2166 C2167 1.367 . S
C2166 C2174 1.378 . S
C2167 C2166 1.367 . S
C2167 C2175 1.433 . S
C2168 H2164 0.929 . S
C2168 C2170 1.378 . S
C2168 C2172 1.350 . S
C2169 C2172 1.463 . S
C2169 C2174 1.350 . S
C2169 N2177 1.427 . S
C2170 H2161 0.930 . S
C2170 C2168 1.378 . S
C2170 C2171 1.367 . S
C2171 C2170 1.367 . S
C2171 C2173 1.433 . S
C2172 C2168 1.350 . S
C2172 C2169 1.463 . S
C2172 N2176 1.427 . S
C2173 H2163 0.929 . S
C2173 C2171 1.433 . S
C2173 N2176 1.384 . S
C2174 H2165 0.929 . S
C2174 C2166 1.378 . S
C2174 C2169 1.350 . S
C2175 H2162 0.929 . S
C2175 C2167 1.433 . S
C2175 N2177 1.384 . S
N2176 C2172 1.427 . S
N2176 C2173 1.384 . S
N2177 C2169 1.427 . S
N2177 C2175 1.384 . S
H2178 C2184 0.930 . S
H2179 C2188 0.930 . S
H2180 C2193 0.929 . S
H2181 C2191 0.929 . S
H2182 C2186 0.929 . S
H2183 C2192 0.929 . S
C2184 H2178 0.930 . S
C2184 C2185 1.367 . S
C2184 C2192 1.378 . S
C2185 C2184 1.367 . S
C2185 C2193 1.433 . S
C2186 H2182 0.929 . S
C2186 C2188 1.378 . S
C2186 C2190 1.350 . S
C2187 C2190 1.463 . S
C2187 C2192 1.350 . S
C2187 N2195 1.427 . S
C2188 H2179 0.930 . S
C2188 C2186 1.378 . S
C2188 C2189 1.367 . S
C2189 C2188 1.367 . S
C2189 C2191 1.433 . S
C2190 C2186 1.350 . S
C2190 C2187 1.463 . S
C2190 N2194 1.427 . S
C2191 H2181 0.929 . S
C2191 C2189 1.433 . S
C2191 N2194 1.384 . S
C2192 H2183 0.929 . S
C2192 C2184 1.378 . S
C2192 C2187 1.350 . S
C2193 H2180 0.929 . S
C2193 C2185 1.433 . S
C2193 N2195 1.384 . S
N2194 C2190 1.427 . S
N2194 C2191 1.384 . S
N2195 C2187 1.427 . S
N2195 C2193 1.384 . S
H2196 C2202 0.930 . S
H2197 C2206 0.930 . S
H2198 C2211 0.929 . S
H2199 C2209 0.929 . S
H2200 C2204 0.929 . S
H2201 C2210 0.929 . S
C2202 H2196 0.930 . S
C2202 C2203 1.367 . S
C2202 C2210 1.378 . S
C2203 C2202 1.367 . S
C2203 C2211 1.433 . S
C2204 H2200 0.929 . S
C2204 C2206 1.378 . S
C2204 C2208 1.350 . S
C2205 C2208 1.463 . S
C2205 C2210 1.350 . S
C2205 N2213 1.427 . S
C2206 H2197 0.930 . S
C2206 C2204 1.378 . S
C2206 C2207 1.367 . S
C2207 C2206 1.367 . S
C2207 C2209 1.433 . S
C2208 C2204 1.350 . S
C2208 C2205 1.463 . S
C2208 N2212 1.427 . S
C2209 H2199 0.929 . S
C2209 C2207 1.433 . S
C2209 N2212 1.384 . S
C2210 H2201 0.929 . S
C2210 C2202 1.378 . S
C2210 C2205 1.350 . S
C2211 H2198 0.929 . S
C2211 C2203 1.433 . S
C2211 N2213 1.384 . S
N2212 C2208 1.427 . S
N2212 C2209 1.384 . S
N2213 C2205 1.427 . S
N2213 C2211 1.384 . S
H2214 C2220 0.930 . S
H2215 C2224 0.930 . S
H2216 C2229 0.929 . S
H2217 C2227 0.929 . S
H2218 C2222 0.929 . S
H2219 C2228 0.929 . S
C2220 H2214 0.930 . S
C2220 C2221 1.367 . S
C2220 C2228 1.378 1_545 S
C2221 C2220 1.367 . S
C2221 C2229 1.433 . S
C2222 H2218 0.929 . S
C2222 C2224 1.378 . S
C2222 C2226 1.350 . S
C2223 C2226 1.463 . S
C2223 C2228 1.350 . S
C2223 N2231 1.427 . S
C2224 H2215 0.930 . S
C2224 C2222 1.378 . S
C2224 C2225 1.367 . S
C2225 C2224 1.367 . S
C2225 C2227 1.433 . S
C2226 C2222 1.350 . S
C2226 C2223 1.463 . S
C2226 N2230 1.427 . S
C2227 H2217 0.929 . S
C2227 C2225 1.433 . S
C2227 N2230 1.384 . S
C2228 H2219 0.929 . S
C2228 C2220 1.378 1_565 S
C2228 C2223 1.350 . S
C2229 H2216 0.929 . S
C2229 C2221 1.433 . S
C2229 N2231 1.384 1_545 S
N2230 C2226 1.427 . S
N2230 C2227 1.384 . S
N2231 C2223 1.427 . S
N2231 C2229 1.384 1_565 S
H2232 C2238 0.939 . S
H2233 C2242 0.930 . S
H2234 C2247 0.927 1_655 S
H2235 C2245 0.929 . S
H2236 C2240 0.929 . S
H2237 C2246 0.929 . S
C2238 H2232 0.939 . S
C2238 C2239 1.367 1_455 S
C2238 C2246 1.378 . S
C2239 C2238 1.367 1_655 S
C2239 C2247 1.423 1_655 S
C2240 H2236 0.929 . S
C2240 C2242 1.378 . S
C2240 C2244 1.350 . S
C2241 C2244 1.463 . S
C2241 C2246 1.350 . S
C2241 N2249 1.427 . S
C2242 H2233 0.930 . S
C2242 C2240 1.378 . S
C2242 C2243 1.367 . S
C2243 C2242 1.367 . S
C2243 C2245 1.433 . S
C2244 C2240 1.350 . S
C2244 C2241 1.463 . S
C2244 N2248 1.427 . S
C2245 H2235 0.929 . S
C2245 C2243 1.433 . S
C2245 N2248 1.384 . S
C2246 H2237 0.929 . S
C2246 C2238 1.378 . S
C2246 C2241 1.350 . S
C2247 H2234 0.927 1_455 S
C2247 C2239 1.423 1_455 S
C2247 N2249 1.396 . S
N2248 C2244 1.427 . S
N2248 C2245 1.384 . S
N2249 C2241 1.427 . S
N2249 C2247 1.396 . S
H2250 C2256 0.930 . S
H2251 C2260 0.930 . S
H2252 C2265 0.929 . S
H2253 C2263 0.929 . S
H2254 C2258 0.929 . S
H2255 C2264 0.929 . S
C2256 H2250 0.930 . S
C2256 C2257 1.367 . S
C2256 C2264 1.378 . S
C2257 C2256 1.367 . S
C2257 C2265 1.433 . S
C2258 H2254 0.929 . S
C2258 C2260 1.378 . S
C2258 C2262 1.350 . S
C2259 C2262 1.463 . S
C2259 C2264 1.350 . S
C2259 N2267 1.427 . S
C2260 H2251 0.930 . S
C2260 C2258 1.378 . S
C2260 C2261 1.367 . S
C2261 C2260 1.367 . S
C2261 C2263 1.433 . S
C2262 C2258 1.350 . S
C2262 C2259 1.463 . S
C2262 N2266 1.427 . S
C2263 H2253 0.929 . S
C2263 C2261 1.433 . S
C2263 N2266 1.384 . S
C2264 H2255 0.929 . S
C2264 C2256 1.378 . S
C2264 C2259 1.350 . S
C2265 H2252 0.929 . S
C2265 C2257 1.433 . S
C2265 N2267 1.384 . S
N2266 C2262 1.427 . S
N2266 C2263 1.384 . S
N2267 C2259 1.427 . S
N2267 C2265 1.384 . S
H2268 C2274 0.930 . S
H2269 C2278 0.930 . S
H2270 C2283 0.929 . S
H2271 C2281 0.929 . S
H2272 C2276 0.929 . S
H2273 C2282 0.929 . S
C2274 H2268 0.930 . S
C2274 C2275 1.367 . S
C2274 C2282 1.378 . S
C2275 C2274 1.367 . S
C2275 C2283 1.433 . S
C2276 H2272 0.929 . S
C2276 C2278 1.378 . S
C2276 C2280 1.350 . S
C2277 C2280 1.463 . S
C2277 C2282 1.350 . S
C2277 N2285 1.427 . S
C2278 H2269 0.930 . S
C2278 C2276 1.378 . S
C2278 C2279 1.367 . S
C2279 C2278 1.367 . S
C2279 C2281 1.433 . S
C2280 C2276 1.350 . S
C2280 C2277 1.463 . S
C2280 N2284 1.427 . S
C2281 H2271 0.929 . S
C2281 C2279 1.433 . S
C2281 N2284 1.384 . S
C2282 H2273 0.929 . S
C2282 C2274 1.378 . S
C2282 C2277 1.350 . S
C2283 H2270 0.929 . S
C2283 C2275 1.433 . S
C2283 N2285 1.384 . S
N2284 C2280 1.427 . S
N2284 C2281 1.384 . S
N2285 C2277 1.427 . S
N2285 C2283 1.384 . S
H2286 C2292 0.930 . S
H2287 C2296 0.930 . S
H2288 C2301 0.929 . S
H2289 C2299 0.929 . S
H2290 C2294 0.929 . S
H2291 C2300 0.929 . S
C2292 H2286 0.930 . S
C2292 C2293 1.367 . S
C2292 C2300 1.378 . S
C2293 C2292 1.367 . S
C2293 C2301 1.433 . S
C2294 H2290 0.929 . S
C2294 C2296 1.378 . S
C2294 C2298 1.350 . S
C2295 C2298 1.463 . S
C2295 C2300 1.350 . S
C2295 N2303 1.427 . S
C2296 H2287 0.930 . S
C2296 C2294 1.378 . S
C2296 C2297 1.367 . S
C2297 C2296 1.367 . S
C2297 C2299 1.433 . S
C2298 C2294 1.350 . S
C2298 C2295 1.463 . S
C2298 N2302 1.427 . S
C2299 H2289 0.929 . S
C2299 C2297 1.433 . S
C2299 N2302 1.384 . S
C2300 H2291 0.929 . S
C2300 C2292 1.378 . S
C2300 C2295 1.350 . S
C2301 H2288 0.929 . S
C2301 C2293 1.433 . S
C2301 N2303 1.384 . S
N2302 C2298 1.427 . S
N2302 C2299 1.384 . S
N2303 C2295 1.427 . S
N2303 C2301 1.384 . S
H2304 C2310 0.930 . S
H2305 C2314 0.930 . S
H2306 C2319 0.929 . S
H2307 C2317 0.929 . S
H2308 C2312 0.929 . S
H2309 C2318 0.929 . S
C2310 H2304 0.930 . S
C2310 C2311 1.367 . S
C2310 C2318 1.378 . S
C2311 C2310 1.367 . S
C2311 C2319 1.433 . S
C2312 H2308 0.929 . S
C2312 C2314 1.378 . S
C2312 C2316 1.350 . S
C2313 C2316 1.463 . S
C2313 C2318 1.350 . S
C2313 N2321 1.427 . S
C2314 H2305 0.930 . S
C2314 C2312 1.378 . S
C2314 C2315 1.367 . S
C2315 C2314 1.367 . S
C2315 C2317 1.433 . S
C2316 C2312 1.350 . S
C2316 C2313 1.463 . S
C2316 N2320 1.427 . S
C2317 H2307 0.929 . S
C2317 C2315 1.433 . S
C2317 N2320 1.384 . S
C2318 H2309 0.929 . S
C2318 C2310 1.378 . S
C2318 C2313 1.350 . S
C2319 H2306 0.929 . S
C2319 C2311 1.433 . S
C2319 N2321 1.384 . S
N2320 C2316 1.427 . S
N2320 C2317 1.384 . S
N2321 C2313 1.427 . S
N2321 C2319 1.384 . S
H2322 C2328 0.930 . S
H2323 C2332 0.930 . S
H2324 C2337 0.929 . S
H2325 C2335 0.929 . S
H2326 C2330 0.929 . S
H2327 C2336 0.929 . S
C2328 H2322 0.930 . S
C2328 C2329 1.367 . S
C2328 C2336 1.378 1_565 S
C2329 C2328 1.367 . S
C2329 C2337 1.433 1_565 S
C2330 H2326 0.929 . S
C2330 C2332 1.378 . S
C2330 C2334 1.350 . S
C2331 C2334 1.463 . S
C2331 C2336 1.350 . S
C2331 N2339 1.427 . S
C2332 H2323 0.930 . S
C2332 C2330 1.378 . S
C2332 C2333 1.367 . S
C2333 C2332 1.367 . S
C2333 C2335 1.433 . S
C2334 C2330 1.350 . S
C2334 C2331 1.463 . S
C2334 N2338 1.427 . S
C2335 H2325 0.929 . S
C2335 C2333 1.433 . S
C2335 N2338 1.384 . S
C2336 H2327 0.929 . S
C2336 C2328 1.378 1_545 S
C2336 C2331 1.350 . S
C2337 H2324 0.929 . S
C2337 C2329 1.433 1_545 S
C2337 N2339 1.384 . S
N2338 C2334 1.427 . S
N2338 C2335 1.384 . S
N2339 C2331 1.427 . S
N2339 C2337 1.384 . S
H2340 C2346 0.930 . S
H2341 C2350 0.930 . S
H2342 C2355 0.929 . S
H2343 C2353 0.929 . S
H2344 C2348 0.929 . S
H2345 C2354 0.929 . S
C2346 H2340 0.930 . S
C2346 C2347 1.367 1_655 S
C2346 C2354 1.378 . S
C2347 C2346 1.367 1_455 S
C2347 C2355 1.433 . S
C2348 H2344 0.929 . S
C2348 C2350 1.378 . S
C2348 C2352 1.350 . S
C2349 C2352 1.463 . S
C2349 C2354 1.350 . S
C2349 N2357 1.427 . S
C2350 H2341 0.930 . S
C2350 C2348 1.378 . S
C2350 C2351 1.367 . S
C2351 C2350 1.367 . S
C2351 C2353 1.433 . S
C2352 C2348 1.350 . S
C2352 C2349 1.463 . S
C2352 N2356 1.427 . S
C2353 H2343 0.929 . S
C2353 C2351 1.433 . S
C2353 N2356 1.384 . S
C2354 H2345 0.929 . S
C2354 C2346 1.378 . S
C2354 C2349 1.350 . S
C2355 H2342 0.929 . S
C2355 C2347 1.433 . S
C2355 N2357 1.384 1_455 S
N2356 C2352 1.427 . S
N2356 C2353 1.384 . S
N2357 C2349 1.427 . S
N2357 C2355 1.384 1_655 S
H2358 C2364 0.930 . S
H2359 C2368 0.930 . S
H2360 C2373 0.929 . S
H2361 C2371 0.929 . S
H2362 C2366 0.929 . S
H2363 C2372 0.929 . S
C2364 H2358 0.930 . S
C2364 C2365 1.367 . S
C2364 C2372 1.378 . S
C2365 C2364 1.367 . S
C2365 C2373 1.433 . S
C2366 H2362 0.929 . S
C2366 C2368 1.378 . S
C2366 C2370 1.350 . S
C2367 C2370 1.463 . S
C2367 C2372 1.350 . S
C2367 N2375 1.427 . S
C2368 H2359 0.930 . S
C2368 C2366 1.378 . S
C2368 C2369 1.367 . S
C2369 C2368 1.367 . S
C2369 C2371 1.433 . S
C2370 C2366 1.350 . S
C2370 C2367 1.463 . S
C2370 N2374 1.427 . S
C2371 H2361 0.929 . S
C2371 C2369 1.433 . S
C2371 N2374 1.384 . S
C2372 H2363 0.929 . S
C2372 C2364 1.378 . S
C2372 C2367 1.350 . S
C2373 H2360 0.929 . S
C2373 C2365 1.433 . S
C2373 N2375 1.384 . S
N2374 C2370 1.427 . S
N2374 C2371 1.384 . S
N2375 C2367 1.427 . S
N2375 C2373 1.384 . S
H2376 C2382 0.930 . S
H2377 C2386 0.930 . S
H2378 C2391 0.929 1_455 S
H2379 C2389 0.929 . S
H2380 C2384 0.929 . S
H2381 C2390 0.929 . S
C2382 H2376 0.930 . S
C2382 C2383 1.367 . S
C2382 C2390 1.378 1_455 S
C2383 C2382 1.367 . S
C2383 C2391 1.433 1_455 S
C2384 H2380 0.929 . S
C2384 C2386 1.378 . S
C2384 C2388 1.350 . S
C2385 C2388 1.463 . S
C2385 C2390 1.350 . S
C2385 N2393 1.427 . S
C2386 H2377 0.930 . S
C2386 C2384 1.378 . S
C2386 C2387 1.367 . S
C2387 C2386 1.367 . S
C2387 C2389 1.433 . S
C2388 C2384 1.350 . S
C2388 C2385 1.463 . S
C2388 N2392 1.427 . S
C2389 H2379 0.929 . S
C2389 C2387 1.433 . S
C2389 N2392 1.384 . S
C2390 H2381 0.929 . S
C2390 C2382 1.378 1_655 S
C2390 C2385 1.350 . S
C2391 H2378 0.929 1_655 S
C2391 C2383 1.433 1_655 S
C2391 N2393 1.384 . S
N2392 C2388 1.427 . S
N2392 C2389 1.384 . S
N2393 C2385 1.427 . S
N2393 C2391 1.384 . S
H2394 C2400 0.930 . S
H2395 C2404 0.930 . S
H2396 C2409 0.929 . S
H2397 C2407 0.929 . S
H2398 C2402 0.929 . S
H2399 C2408 0.929 . S
C2400 H2394 0.930 . S
C2400 C2401 1.367 . S
C2400 C2408 1.378 . S
C2401 C2400 1.367 . S
C2401 C2409 1.433 . S
C2402 H2398 0.929 . S
C2402 C2404 1.378 . S
C2402 C2406 1.350 . S
C2403 C2406 1.463 . S
C2403 C2408 1.350 . S
C2403 N2411 1.427 . S
C2404 H2395 0.930 . S
C2404 C2402 1.378 . S
C2404 C2405 1.367 . S
C2405 C2404 1.367 . S
C2405 C2407 1.433 . S
C2406 C2402 1.350 . S
C2406 C2403 1.463 . S
C2406 N2410 1.427 . S
C2407 H2397 0.929 . S
C2407 C2405 1.433 . S
C2407 N2410 1.384 . S
C2408 H2399 0.929 . S
C2408 C2400 1.378 . S
C2408 C2403 1.350 . S
C2409 H2396 0.929 . S
C2409 C2401 1.433 . S
C2409 N2411 1.384 . S
N2410 C2406 1.427 . S
N2410 C2407 1.384 . S
N2411 C2403 1.427 . S
N2411 C2409 1.384 . S
H2412 C2418 0.932 . S
H2413 C2422 0.930 . S
H2414 C2427 0.929 . S
H2415 C2425 0.929 . S
H2416 C2420 0.929 . S
H2417 C2426 0.929 . S
C2418 H2412 0.932 . S
C2418 C2419 1.384 . S
C2418 C2426 1.359 1_565 S
C2419 C2418 1.384 . S
C2419 C2427 1.433 . S
C2420 H2416 0.929 . S
C2420 C2422 1.378 . S
C2420 C2424 1.350 . S
C2421 C2424 1.463 . S
C2421 C2426 1.350 . S
C2421 N2429 1.427 . S
C2422 H2413 0.930 . S
C2422 C2420 1.378 . S
C2422 C2423 1.367 . S
C2423 C2422 1.367 . S
C2423 C2425 1.433 . S
C2424 C2420 1.350 . S
C2424 C2421 1.463 . S
C2424 N2428 1.427 . S
C2425 H2415 0.929 . S
C2425 C2423 1.433 . S
C2425 N2428 1.384 . S
C2426 H2417 0.929 . S
C2426 C2418 1.359 1_545 S
C2426 C2421 1.350 . S
C2427 H2414 0.929 . S
C2427 C2419 1.433 . S
C2427 N2429 1.384 1_565 S
N2428 C2424 1.427 . S
N2428 C2425 1.384 . S
N2429 C2421 1.427 . S
N2429 C2427 1.384 1_545 S
H2430 C2436 0.930 . S
H2431 C2440 0.930 . S
H2432 C2445 0.929 . S
H2433 C2443 0.929 . S
H2434 C2438 0.929 . S
H2435 C2444 0.929 . S
C2436 H2430 0.930 . S
C2436 C2437 1.367 . S
C2436 C2444 1.378 . S
C2437 C2436 1.367 . S
C2437 C2445 1.433 . S
C2438 H2434 0.929 . S
C2438 C2440 1.378 . S
C2438 C2442 1.350 . S
C2439 C2442 1.463 . S
C2439 C2444 1.350 . S
C2439 N2447 1.427 . S
C2440 H2431 0.930 . S
C2440 C2438 1.378 . S
C2440 C2441 1.367 . S
C2441 C2440 1.367 . S
C2441 C2443 1.433 . S
C2442 C2438 1.350 . S
C2442 C2439 1.463 . S
C2442 N2446 1.427 . S
C2443 H2433 0.929 . S
C2443 C2441 1.433 . S
C2443 N2446 1.384 . S
C2444 H2435 0.929 . S
C2444 C2436 1.378 . S
C2444 C2439 1.350 . S
C2445 H2432 0.929 . S
C2445 C2437 1.433 . S
C2445 N2447 1.384 . S
N2446 C2442 1.427 . S
N2446 C2443 1.384 . S
N2447 C2439 1.427 . S
N2447 C2445 1.384 . S
H2448 C2454 0.930 . S
H2449 C2458 0.930 . S
H2450 C2463 0.929 . S
H2451 C2461 0.929 . S
H2452 C2456 0.929 . S
H2453 C2462 0.929 . S
C2454 H2448 0.930 . S
C2454 C2455 1.367 . S
C2454 C2462 1.378 . S
C2455 C2454 1.367 . S
C2455 C2463 1.433 . S
C2456 H2452 0.929 . S
C2456 C2458 1.378 . S
C2456 C2460 1.350 . S
C2457 C2460 1.463 . S
C2457 C2462 1.350 . S
C2457 N2465 1.427 . S
C2458 H2449 0.930 . S
C2458 C2456 1.378 . S
C2458 C2459 1.367 . S
C2459 C2458 1.367 . S
C2459 C2461 1.433 . S
C2460 C2456 1.350 . S
C2460 C2457 1.463 . S
C2460 N2464 1.427 . S
C2461 H2451 0.929 . S
C2461 C2459 1.433 . S
C2461 N2464 1.384 . S
C2462 H2453 0.929 . S
C2462 C2454 1.378 . S
C2462 C2457 1.350 . S
C2463 H2450 0.929 . S
C2463 C2455 1.433 . S
C2463 N2465 1.384 . S
N2464 C2460 1.427 . S
N2464 C2461 1.384 . S
N2465 C2457 1.427 . S
N2465 C2463 1.384 . S
H2466 C2472 0.930 . S
H2467 C2476 0.930 . S
H2468 C2481 0.929 . S
H2469 C2479 0.929 . S
H2470 C2474 0.929 . S
H2471 C2480 0.929 . S
C2472 H2466 0.930 . S
C2472 C2473 1.367 . S
C2472 C2480 1.378 . S
C2473 C2472 1.367 . S
C2473 C2481 1.433 . S
C2474 H2470 0.929 . S
C2474 C2476 1.378 . S
C2474 C2478 1.350 . S
C2475 C2478 1.463 . S
C2475 C2480 1.350 . S
C2475 N2483 1.427 . S
C2476 H2467 0.930 . S
C2476 C2474 1.378 . S
C2476 C2477 1.367 . S
C2477 C2476 1.367 . S
C2477 C2479 1.433 . S
C2478 C2474 1.350 . S
C2478 C2475 1.463 . S
C2478 N2482 1.427 . S
C2479 H2469 0.929 . S
C2479 C2477 1.433 . S
C2479 N2482 1.384 . S
C2480 H2471 0.929 . S
C2480 C2472 1.378 . S
C2480 C2475 1.350 . S
C2481 H2468 0.929 . S
C2481 C2473 1.433 . S
C2481 N2483 1.384 . S
N2482 C2478 1.427 . S
N2482 C2479 1.384 . S
N2483 C2475 1.427 . S
N2483 C2481 1.384 . S
H2484 C2490 0.930 . S
H2485 C2494 0.930 1_545 S
H2486 C2499 0.929 . S
H2487 C2497 0.929 . S
H2488 C2492 0.929 . S
H2489 C2498 0.929 . S
C2490 H2484 0.930 . S
C2490 C2491 1.367 . S
C2490 C2498 1.378 . S
C2491 C2490 1.367 . S
C2491 C2499 1.433 . S
C2492 H2488 0.929 . S
C2492 C2494 1.378 . S
C2492 C2496 1.350 . S
C2493 C2496 1.463 . S
C2493 C2498 1.350 . S
C2493 N2501 1.427 . S
C2494 H2485 0.930 1_565 S
C2494 C2492 1.378 . S
C2494 C2495 1.367 . S
C2495 C2494 1.367 . S
C2495 C2497 1.433 . S
C2496 C2492 1.350 . S
C2496 C2493 1.463 . S
C2496 N2500 1.427 . S
C2497 H2487 0.929 . S
C2497 C2495 1.433 . S
C2497 N2500 1.384 . S
C2498 H2489 0.929 . S
C2498 C2490 1.378 . S
C2498 C2493 1.350 . S
C2499 H2486 0.929 . S
C2499 C2491 1.433 . S
C2499 N2501 1.384 . S
N2500 C2496 1.427 . S
N2500 C2497 1.384 . S
N2501 C2493 1.427 . S
N2501 C2499 1.384 . S
H2502 C2508 0.930 . S
H2503 C2512 0.930 1_655 S
H2504 C2517 0.929 . S
H2505 C2515 0.929 . S
H2506 C2510 0.929 1_655 S
H2507 C2516 0.929 . S
C2508 H2502 0.930 . S
C2508 C2509 1.367 . S
C2508 C2516 1.378 . S
C2509 C2508 1.367 . S
C2509 C2517 1.433 . S
C2510 H2506 0.929 1_455 S
C2510 C2512 1.378 . S
C2510 C2514 1.350 . S
C2511 C2514 1.463 . S
C2511 C2516 1.350 . S
C2511 N2519 1.427 . S
C2512 H2503 0.930 1_455 S
C2512 C2510 1.378 . S
C2512 C2513 1.367 . S
C2513 C2512 1.367 . S
C2513 C2515 1.433 . S
C2514 C2510 1.350 . S
C2514 C2511 1.463 . S
C2514 N2518 1.427 . S
C2515 H2505 0.929 . S
C2515 C2513 1.433 . S
C2515 N2518 1.384 . S
C2516 H2507 0.929 . S
C2516 C2508 1.378 . S
C2516 C2511 1.350 . S
C2517 H2504 0.929 . S
C2517 C2509 1.433 . S
C2517 N2519 1.384 . S
N2518 C2514 1.427 . S
N2518 C2515 1.384 . S
N2519 C2511 1.427 . S
N2519 C2517 1.384 . S
H2520 C2526 0.930 . S
H2521 C2530 0.930 . S
H2522 C2535 0.929 . S
H2523 C2533 0.929 . S
H2524 C2528 0.929 . S
H2525 C2534 0.929 . S
C2526 H2520 0.930 . S
C2526 C2527 1.367 . S
C2526 C2534 1.378 . S
C2527 C2526 1.367 . S
C2527 C2535 1.433 . S
C2528 H2524 0.929 . S
C2528 C2530 1.378 . S
C2528 C2532 1.350 . S
C2529 C2532 1.463 . S
C2529 C2534 1.350 . S
C2529 N2537 1.427 . S
C2530 H2521 0.930 . S
C2530 C2528 1.378 . S
C2530 C2531 1.367 . S
C2531 C2530 1.367 . S
C2531 C2533 1.433 . S
C2532 C2528 1.350 . S
C2532 C2529 1.463 . S
C2532 N2536 1.427 . S
C2533 H2523 0.929 . S
C2533 C2531 1.433 . S
C2533 N2536 1.384 . S
C2534 H2525 0.929 . S
C2534 C2526 1.378 . S
C2534 C2529 1.350 . S
C2535 H2522 0.929 . S
C2535 C2527 1.433 . S
C2535 N2537 1.384 . S
N2536 C2532 1.427 . S
N2536 C2533 1.384 . S
N2537 C2529 1.427 . S
N2537 C2535 1.384 . S
H2538 C2544 0.930 . S
H2539 C2548 0.930 1_455 S
H2540 C2553 0.929 . S
H2541 C2551 0.929 . S
H2542 C2546 0.929 1_455 S
H2543 C2552 0.929 . S
C2544 H2538 0.930 . S
C2544 C2545 1.367 . S
C2544 C2552 1.378 . S
C2545 C2544 1.367 . S
C2545 C2553 1.433 . S
C2546 H2542 0.929 1_655 S
C2546 C2548 1.378 . S
C2546 C2550 1.350 . S
C2547 C2550 1.463 . S
C2547 C2552 1.350 . S
C2547 N2555 1.427 . S
C2548 H2539 0.930 1_655 S
C2548 C2546 1.378 . S
C2548 C2549 1.367 . S
C2549 C2548 1.367 . S
C2549 C2551 1.433 . S
C2550 C2546 1.350 . S
C2550 C2547 1.463 . S
C2550 N2554 1.427 . S
C2551 H2541 0.929 . S
C2551 C2549 1.433 . S
C2551 N2554 1.384 . S
C2552 H2543 0.929 . S
C2552 C2544 1.378 . S
C2552 C2547 1.350 . S
C2553 H2540 0.929 . S
C2553 C2545 1.433 . S
C2553 N2555 1.384 . S
N2554 C2550 1.427 . S
N2554 C2551 1.384 . S
N2555 C2547 1.427 . S
N2555 C2553 1.384 . S
H2556 C2562 0.930 . S
H2557 C2566 0.930 . S
H2558 C2571 0.929 . S
H2559 C2569 0.929 . S
H2560 C2564 0.929 . S
H2561 C2570 0.929 . S
C2562 H2556 0.930 . S
C2562 C2563 1.367 . S
C2562 C2570 1.378 . S
C2563 C2562 1.367 . S
C2563 C2571 1.433 . S
C2564 H2560 0.929 . S
C2564 C2566 1.378 . S
C2564 C2568 1.350 . S
C2565 C2568 1.463 . S
C2565 C2570 1.350 . S
C2565 N2573 1.427 . S
C2566 H2557 0.930 . S
C2566 C2564 1.378 . S
C2566 C2567 1.367 . S
C2567 C2566 1.367 . S
C2567 C2569 1.433 . S
C2568 C2564 1.350 . S
C2568 C2565 1.463 . S
C2568 N2572 1.427 . S
C2569 H2559 0.929 . S
C2569 C2567 1.433 . S
C2569 N2572 1.384 . S
C2570 H2561 0.929 . S
C2570 C2562 1.378 . S
C2570 C2565 1.350 . S
C2571 H2558 0.929 . S
C2571 C2563 1.433 . S
C2571 N2573 1.384 . S
N2572 C2568 1.427 . S
N2572 C2569 1.384 . S
N2573 C2565 1.427 . S
N2573 C2571 1.384 . S
H2574 C2580 0.930 . S
H2575 C2584 0.930 . S
H2576 C2589 0.929 . S
H2577 C2587 0.929 1_565 S
H2578 C2582 0.929 . S
H2579 C2588 0.929 . S
C2580 H2574 0.930 . S
C2580 C2581 1.367 . S
C2580 C2588 1.378 . S
C2581 C2580 1.367 . S
C2581 C2589 1.433 . S
C2582 H2578 0.929 . S
C2582 C2584 1.378 . S
C2582 C2586 1.350 . S
C2583 C2586 1.463 . S
C2583 C2588 1.350 . S
C2583 N2591 1.427 . S
C2584 H2575 0.930 . S
C2584 C2582 1.378 . S
C2584 C2585 1.367 . S
C2585 C2584 1.367 . S
C2585 C2587 1.433 . S
C2586 C2582 1.350 . S
C2586 C2583 1.463 . S
C2586 N2590 1.427 . S
C2587 H2577 0.929 1_545 S
C2587 C2585 1.433 . S
C2587 N2590 1.384 . S
C2588 H2579 0.929 . S
C2588 C2580 1.378 . S
C2588 C2583 1.350 . S
C2589 H2576 0.929 . S
C2589 C2581 1.433 . S
C2589 N2591 1.384 . S
N2590 C2586 1.427 . S
N2590 C2587 1.384 . S
N2591 C2583 1.427 . S
N2591 C2589 1.384 . S
H2592 C2598 0.930 . S
H2593 C2602 0.930 . S
H2594 C2607 0.929 . S
H2595 C2605 0.929 . S
H2596 C2600 0.929 . S
H2597 C2606 0.929 . S
C2598 H2592 0.930 . S
C2598 C2599 1.367 . S
C2598 C2606 1.378 . S
C2599 C2598 1.367 . S
C2599 C2607 1.433 . S
C2600 H2596 0.929 . S
C2600 C2602 1.378 . S
C2600 C2604 1.350 . S
C2601 C2604 1.463 . S
C2601 C2606 1.350 . S
C2601 N2609 1.427 . S
C2602 H2593 0.930 . S
C2602 C2600 1.378 . S
C2602 C2603 1.367 . S
C2603 C2602 1.367 . S
C2603 C2605 1.433 . S
C2604 C2600 1.350 . S
C2604 C2601 1.463 . S
C2604 N2608 1.427 . S
C2605 H2595 0.929 . S
C2605 C2603 1.433 . S
C2605 N2608 1.384 . S
C2606 H2597 0.929 . S
C2606 C2598 1.378 . S
C2606 C2601 1.350 . S
C2607 H2594 0.929 . S
C2607 C2599 1.433 . S
C2607 N2609 1.384 . S
N2608 C2604 1.427 . S
N2608 C2605 1.384 . S
N2609 C2601 1.427 . S
N2609 C2607 1.384 . S
H2610 C2616 0.930 . S
H2611 C2620 0.930 . S
H2612 C2625 0.929 . S
H2613 C2623 0.929 . S
H2614 C2618 0.929 . S
H2615 C2624 0.929 . S
C2616 H2610 0.930 . S
C2616 C2617 1.367 . S
C2616 C2624 1.378 . S
C2617 C2616 1.367 . S
C2617 C2625 1.433 . S
C2618 H2614 0.929 . S
C2618 C2620 1.378 . S
C2618 C2622 1.350 . S
C2619 C2622 1.463 . S
C2619 C2624 1.350 . S
C2619 N2627 1.427 . S
C2620 H2611 0.930 . S
C2620 C2618 1.378 . S
C2620 C2621 1.367 . S
C2621 C2620 1.367 . S
C2621 C2623 1.433 . S
C2622 C2618 1.350 . S
C2622 C2619 1.463 . S
C2622 N2626 1.427 . S
C2623 H2613 0.929 . S
C2623 C2621 1.433 . S
C2623 N2626 1.384 . S
C2624 H2615 0.929 . S
C2624 C2616 1.378 . S
C2624 C2619 1.350 . S
C2625 H2612 0.929 . S
C2625 C2617 1.433 . S
C2625 N2627 1.384 . S
N2626 C2622 1.427 . S
N2626 C2623 1.384 . S
N2627 C2619 1.427 . S
N2627 C2625 1.384 . S
H2628 C2634 0.930 . S
H2629 C2638 0.930 . S
H2630 C2643 0.929 . S
H2631 C2641 0.929 . S
H2632 C2636 0.929 . S
H2633 C2642 0.929 . S
C2634 H2628 0.930 . S
C2634 C2635 1.367 . S
C2634 C2642 1.378 . S
C2635 C2634 1.367 . S
C2635 C2643 1.433 . S
C2636 H2632 0.929 . S
C2636 C2638 1.378 . S
C2636 C2640 1.350 . S
C2637 C2640 1.463 . S
C2637 C2642 1.350 . S
C2637 N2645 1.427 . S
C2638 H2629 0.930 . S
C2638 C2636 1.378 . S
C2638 C2639 1.367 . S
C2639 C2638 1.367 . S
C2639 C2641 1.433 . S
C2640 C2636 1.350 . S
C2640 C2637 1.463 . S
C2640 N2644 1.427 . S
C2641 H2631 0.929 . S
C2641 C2639 1.433 . S
C2641 N2644 1.384 . S
C2642 H2633 0.929 . S
C2642 C2634 1.378 . S
C2642 C2637 1.350 . S
C2643 H2630 0.929 . S
C2643 C2635 1.433 . S
C2643 N2645 1.384 . S
N2644 C2640 1.427 . S
N2644 C2641 1.384 . S
N2645 C2637 1.427 . S
N2645 C2643 1.384 . S
H2646 C2652 0.930 . S
H2647 C2656 0.930 . S
H2648 C2661 0.929 . S
H2649 C2659 0.929 . S
H2650 C2654 0.929 . S
H2651 C2660 0.929 . S
C2652 H2646 0.930 . S
C2652 C2653 1.367 . S
C2652 C2660 1.378 . S
C2653 C2652 1.367 . S
C2653 C2661 1.433 . S
C2654 H2650 0.929 . S
C2654 C2656 1.378 . S
C2654 C2658 1.350 . S
C2655 C2658 1.463 . S
C2655 C2660 1.350 . S
C2655 N2663 1.427 . S
C2656 H2647 0.930 . S
C2656 C2654 1.378 . S
C2656 C2657 1.367 . S
C2657 C2656 1.367 . S
C2657 C2659 1.433 . S
C2658 C2654 1.350 . S
C2658 C2655 1.463 . S
C2658 N2662 1.427 . S
C2659 H2649 0.929 . S
C2659 C2657 1.433 . S
C2659 N2662 1.384 . S
C2660 H2651 0.929 . S
C2660 C2652 1.378 . S
C2660 C2655 1.350 . S
C2661 H2648 0.929 . S
C2661 C2653 1.433 . S
C2661 N2663 1.384 . S
N2662 C2658 1.427 . S
N2662 C2659 1.384 . S
N2663 C2655 1.427 . S
N2663 C2661 1.384 . S
H2664 C2670 0.930 . S
H2665 C2674 0.930 . S
H2666 C2679 0.929 . S
H2667 C2677 0.929 . S
H2668 C2672 0.929 . S
H2669 C2678 0.929 . S
C2670 H2664 0.930 . S
C2670 C2671 1.367 . S
C2670 C2678 1.378 . S
C2671 C2670 1.367 . S
C2671 C2679 1.433 . S
C2672 H2668 0.929 . S
C2672 C2674 1.378 . S
C2672 C2676 1.350 . S
C2673 C2676 1.463 . S
C2673 C2678 1.350 . S
C2673 N2681 1.427 . S
C2674 H2665 0.930 . S
C2674 C2672 1.378 . S
C2674 C2675 1.367 . S
C2675 C2674 1.367 . S
C2675 C2677 1.433 . S
C2676 C2672 1.350 . S
C2676 C2673 1.463 . S
C2676 N2680 1.427 . S
C2677 H2667 0.929 . S
C2677 C2675 1.433 . S
C2677 N2680 1.384 . S
C2678 H2669 0.929 . S
C2678 C2670 1.378 . S
C2678 C2673 1.350 . S
C2679 H2666 0.929 . S
C2679 C2671 1.433 . S
C2679 N2681 1.384 . S
N2680 C2676 1.427 . S
N2680 C2677 1.384 . S
N2681 C2673 1.427 . S
N2681 C2679 1.384 . S
H2682 C2688 0.930 . S
H2683 C2692 0.930 . S
H2684 C2697 0.929 . S
H2685 C2695 0.929 . S
H2686 C2690 0.929 . S
H2687 C2696 0.929 . S
C2688 H2682 0.930 . S
C2688 C2689 1.367 . S
C2688 C2696 1.378 . S
C2689 C2688 1.367 . S
C2689 C2697 1.433 . S
C2690 H2686 0.929 . S
C2690 C2692 1.378 . S
C2690 C2694 1.350 . S
C2691 C2694 1.463 . S
C2691 C2696 1.350 . S
C2691 N2699 1.427 . S
C2692 H2683 0.930 . S
C2692 C2690 1.378 . S
C2692 C2693 1.367 . S
C2693 C2692 1.367 . S
C2693 C2695 1.433 . S
C2694 C2690 1.350 . S
C2694 C2691 1.463 . S
C2694 N2698 1.427 . S
C2695 H2685 0.929 . S
C2695 C2693 1.433 . S
C2695 N2698 1.384 . S
C2696 H2687 0.929 . S
C2696 C2688 1.378 . S
C2696 C2691 1.350 . S
C2697 H2684 0.929 . S
C2697 C2689 1.433 . S
C2697 N2699 1.384 . S
N2698 C2694 1.427 . S
N2698 C2695 1.384 . S
N2699 C2691 1.427 . S
N2699 C2697 1.384 . S
H2700 C2706 0.930 . S
H2701 C2710 0.930 . S
H2702 C2715 0.929 . S
H2703 C2713 0.929 . S
H2704 C2708 0.929 . S
H2705 C2714 0.929 . S
C2706 H2700 0.930 . S
C2706 C2707 1.367 . S
C2706 C2714 1.378 . S
C2707 C2706 1.367 . S
C2707 C2715 1.433 . S
C2708 H2704 0.929 . S
C2708 C2710 1.378 . S
C2708 C2712 1.350 . S
C2709 C2712 1.463 . S
C2709 C2714 1.350 . S
C2709 N2717 1.427 . S
C2710 H2701 0.930 . S
C2710 C2708 1.378 . S
C2710 C2711 1.367 . S
C2711 C2710 1.367 . S
C2711 C2713 1.433 . S
C2712 C2708 1.350 . S
C2712 C2709 1.463 . S
C2712 N2716 1.427 . S
C2713 H2703 0.929 . S
C2713 C2711 1.433 . S
C2713 N2716 1.384 . S
C2714 H2705 0.929 . S
C2714 C2706 1.378 . S
C2714 C2709 1.350 . S
C2715 H2702 0.929 . S
C2715 C2707 1.433 . S
C2715 N2717 1.384 . S
N2716 C2712 1.427 . S
N2716 C2713 1.384 . S
N2717 C2709 1.427 . S
N2717 C2715 1.384 . S
H2718 C2724 0.930 . S
H2719 C2728 0.930 . S
H2720 C2733 0.929 . S
H2721 C2731 0.929 . S
H2722 C2726 0.929 . S
H2723 C2732 0.929 . S
C2724 H2718 0.930 . S
C2724 C2725 1.367 . S
C2724 C2732 1.378 . S
C2725 C2724 1.367 . S
C2725 C2733 1.433 . S
C2726 H2722 0.929 . S
C2726 C2728 1.378 . S
C2726 C2730 1.350 . S
C2727 C2730 1.463 . S
C2727 C2732 1.350 . S
C2727 N2735 1.427 . S
C2728 H2719 0.930 . S
C2728 C2726 1.378 . S
C2728 C2729 1.367 . S
C2729 C2728 1.367 . S
C2729 C2731 1.433 . S
C2730 C2726 1.350 . S
C2730 C2727 1.463 . S
C2730 N2734 1.427 . S
C2731 H2721 0.929 . S
C2731 C2729 1.433 . S
C2731 N2734 1.384 . S
C2732 H2723 0.929 . S
C2732 C2724 1.378 . S
C2732 C2727 1.350 . S
C2733 H2720 0.929 . S
C2733 C2725 1.433 . S
C2733 N2735 1.384 . S
N2734 C2730 1.427 . S
N2734 C2731 1.384 . S
N2735 C2727 1.427 . S
N2735 C2733 1.384 . S
H2736 C2742 0.930 . S
H2737 C2746 0.930 . S
H2738 C2751 0.929 . S
H2739 C2749 0.929 . S
H2740 C2744 0.929 . S
H2741 C2750 0.929 . S
C2742 H2736 0.930 . S
C2742 C2743 1.367 . S
C2742 C2750 1.378 . S
C2743 C2742 1.367 . S
C2743 C2751 1.433 . S
C2744 H2740 0.929 . S
C2744 C2746 1.378 . S
C2744 C2748 1.350 . S
C2745 C2748 1.463 . S
C2745 C2750 1.350 . S
C2745 N2753 1.427 . S
C2746 H2737 0.930 . S
C2746 C2744 1.378 . S
C2746 C2747 1.367 . S
C2747 C2746 1.367 . S
C2747 C2749 1.433 . S
C2748 C2744 1.350 . S
C2748 C2745 1.463 . S
C2748 N2752 1.427 . S
C2749 H2739 0.929 . S
C2749 C2747 1.433 . S
C2749 N2752 1.384 . S
C2750 H2741 0.929 . S
C2750 C2742 1.378 . S
C2750 C2745 1.350 . S
C2751 H2738 0.929 . S
C2751 C2743 1.433 . S
C2751 N2753 1.384 . S
N2752 C2748 1.427 . S
N2752 C2749 1.384 . S
N2753 C2745 1.427 . S
N2753 C2751 1.384 . S
H2754 C2760 0.930 . S
H2755 C2764 0.930 . S
H2756 C2769 0.929 . S
H2757 C2767 0.929 . S
H2758 C2762 0.929 . S
H2759 C2768 0.929 . S
C2760 H2754 0.930 . S
C2760 C2761 1.367 . S
C2760 C2768 1.378 . S
C2761 C2760 1.367 . S
C2761 C2769 1.433 . S
C2762 H2758 0.929 . S
C2762 C2764 1.378 . S
C2762 C2766 1.350 . S
C2763 C2766 1.463 . S
C2763 C2768 1.350 . S
C2763 N2771 1.427 . S
C2764 H2755 0.930 . S
C2764 C2762 1.378 . S
C2764 C2765 1.367 . S
C2765 C2764 1.367 . S
C2765 C2767 1.433 . S
C2766 C2762 1.350 . S
C2766 C2763 1.463 . S
C2766 N2770 1.427 . S
C2767 H2757 0.929 . S
C2767 C2765 1.433 . S
C2767 N2770 1.384 . S
C2768 H2759 0.929 . S
C2768 C2760 1.378 . S
C2768 C2763 1.350 . S
C2769 H2756 0.929 . S
C2769 C2761 1.433 . S
C2769 N2771 1.384 . S
N2770 C2766 1.427 . S
N2770 C2767 1.384 . S
N2771 C2763 1.427 . S
N2771 C2769 1.384 . S
H2772 C2778 0.930 . S
H2773 C2782 0.930 . S
H2774 C2787 0.929 . S
H2775 C2785 0.929 . S
H2776 C2780 0.929 . S
H2777 C2786 0.929 . S
C2778 H2772 0.930 . S
C2778 C2779 1.367 . S
C2778 C2786 1.378 . S
C2779 C2778 1.367 . S
C2779 C2787 1.433 . S
C2780 H2776 0.929 . S
C2780 C2782 1.378 . S
C2780 C2784 1.350 . S
C2781 C2784 1.463 . S
C2781 C2786 1.350 . S
C2781 N2789 1.427 . S
C2782 H2773 0.930 . S
C2782 C2780 1.378 . S
C2782 C2783 1.367 . S
C2783 C2782 1.367 . S
C2783 C2785 1.433 . S
C2784 C2780 1.350 . S
C2784 C2781 1.463 . S
C2784 N2788 1.427 . S
C2785 H2775 0.929 . S
C2785 C2783 1.433 . S
C2785 N2788 1.384 . S
C2786 H2777 0.929 . S
C2786 C2778 1.378 . S
C2786 C2781 1.350 . S
C2787 H2774 0.929 . S
C2787 C2779 1.433 . S
C2787 N2789 1.384 . S
N2788 C2784 1.427 . S
N2788 C2785 1.384 . S
N2789 C2781 1.427 . S
N2789 C2787 1.384 . S
H2790 C2796 0.930 . S
H2791 C2800 0.930 . S
H2792 C2805 0.929 . S
H2793 C2803 0.929 . S
H2794 C2798 0.929 . S
H2795 C2804 0.929 . S
C2796 H2790 0.930 . S
C2796 C2797 1.367 . S
C2796 C2804 1.378 . S
C2797 C2796 1.367 . S
C2797 C2805 1.433 . S
C2798 H2794 0.929 . S
C2798 C2800 1.378 . S
C2798 C2802 1.350 . S
C2799 C2802 1.463 . S
C2799 C2804 1.350 . S
C2799 N2807 1.427 . S
C2800 H2791 0.930 . S
C2800 C2798 1.378 . S
C2800 C2801 1.367 . S
C2801 C2800 1.367 . S
C2801 C2803 1.433 . S
C2802 C2798 1.350 . S
C2802 C2799 1.463 . S
C2802 N2806 1.427 . S
C2803 H2793 0.929 . S
C2803 C2801 1.433 . S
C2803 N2806 1.384 . S
C2804 H2795 0.929 . S
C2804 C2796 1.378 . S
C2804 C2799 1.350 . S
C2805 H2792 0.929 . S
C2805 C2797 1.433 . S
C2805 N2807 1.384 . S
N2806 C2802 1.427 . S
N2806 C2803 1.384 . S
N2807 C2799 1.427 . S
N2807 C2805 1.384 . S
C1843 C781 1.424 . S
C1847 C1136 1.372 . S
C1861 C871 1.438 . S
C1865 C1220 1.388 . S
C1879 C751 1.442 . S
C1883 C1314 1.434 . S
C1897 C691 1.408 . S
C1901 C1230 1.400 . S
C1919 C1304 1.330 . S
C1915 C571 1.379 . S
C1933 C601 1.406 . S
C1937 C1146 1.376 . S
C1955 C1147 1.357 . S
C1951 C661 1.407 . S
C1973 C1231 1.389 . S
C1969 C541 1.433 . S
C1987 C631 1.471 . S
C1991 C1323 1.428 . S
C2005 C811 1.432 . S
C2009 C1239 1.393 . S
C2023 C841 1.375 . S
C2027 C1315 1.324 . S
C2045 C1155 1.367 . S
C2041 C721 1.372 . S
C2063 C1388 1.360 . S
C2059 C61 1.427 . S
C2077 C151 1.442 . S
C2081 C1472 1.400 . S
C2095 C31 1.445 . S
C2099 C1566 1.437 . S
C2113 C1051 1.410 . S
C2117 C1482 1.400 . S
C2131 C931 1.369 . S
C2135 C1556 1.321 . S
C2149 C961 1.407 . S
C2153 C1398 1.374 . S
C2167 C1021 1.403 . S
C2171 C1399 1.373 . S
C2185 C901 1.430 . S
C2189 C1483 1.393 . S
C2207 C1575 1.429 . S
C2203 C991 1.478 . S
C2221 C91 1.426 . S
C2225 C1491 1.389 . S
C2243 C1567 1.319 . S
C2239 C121 1.367 . S
C2257 C1 1.379 . S
C2261 C1407 1.379 . S
C2279 C1640 1.375 . S
C2275 C421 1.422 . S
C2293 C511 1.431 . S
C2297 C1724 1.386 . S
C2315 C1818 1.438 . S
C2311 C391 1.448 . S
C2333 C1734 1.400 . S
C2329 C331 1.408 . S
C2351 C1808 1.334 . S
C2347 C211 1.375 . S
C2365 C241 1.398 . S
C2369 C1650 1.366 . S
C2383 C301 1.402 . S
C2387 C1651 1.355 . S
C2401 C181 1.432 . S
C2405 C1735 1.385 . S
C2423 C1827 1.430 . S
C2419 C271 1.478 . S
C2437 C451 1.428 . S
C2441 C1743 1.401 . S
C2455 C481 1.375 . S
C2459 C1819 1.321 . S
C2473 C361 1.374 . S
C2477 C1659 1.370 . S
C2491 C920 1.426 . S
C2495 C1143 1.331 . S
C2513 C1227 1.350 . S
C2509 C980 1.489 . S
C2527 C1040 1.454 . S
C2531 C1320 1.348 . S
C2545 C380 1.475 . S
C2549 C1236 1.353 . S
C2563 C440 1.456 . S
C2567 C1311 1.355 . S
C2585 C1152 1.349 . S
C2581 C500 1.435 . S
C2599 C200 1.434 . S
C2603 C1395 1.331 . S
C2617 C260 1.490 . S
C2621 C1479 1.374 . S
C2635 C320 1.444 . S
C2639 C1572 1.332 . S
C2653 C740 1.483 . S
C2657 C1488 1.374 . S
C2675 C1563 1.354 . S
C2671 C800 1.452 . S
C2689 C860 1.437 . S
C2693 C1404 1.349 . S
C2707 C560 1.435 . S
C2711 C1647 1.343 . S
C2725 C620 1.492 . S
C2729 C1731 1.352 . S
C2747 C1824 1.349 . S
C2743 C680 1.449 . S
C2761 C20 1.480 . S
C2765 C1740 1.362 . S
C2779 C80 1.456 . S
C2783 C1815 1.333 . S
C2797 C140 1.435 . S
C2801 C1656 1.349 . S
