# Generated by pormake.
# Topology zzz, (3,6)-cn, num edge types: 1
# Building blocks:
#     Node 0, Type 0, BuildingBlock: KAKCAD_clean_linker_0, # of connection points: 3
#     Node 1, Type 0, BuildingBlock: KAKCAD_clean_linker_0, # of connection points: 3
#     Node 2, Type 0, BuildingBlock: KAKCAD_clean_linker_0, # of connection points: 3
#     Node 3, Type 0, BuildingBlock: KAKCAD_clean_linker_0, # of connection points: 3
#     Node 4, Type 0, BuildingBlock: KAKCAD_clean_linker_0, # of connection points: 3
#     Node 5, Type 0, BuildingBlock: KAKCAD_clean_linker_0, # of connection points: 3
#     Node 6, Type 0, BuildingBlock: KAKCAD_clean_linker_0, # of connection points: 3
#     Node 7, Type 0, BuildingBlock: KAKCAD_clean_linker_0, # of connection points: 3
#     Node 8, Type 1, BuildingBlock: GEDQOX_clean_sbu_0, # of connection points: 6
#     Node 9, Type 1, BuildingBlock: GEDQOX_clean_sbu_0, # of connection points: 6
#     Node 10, Type 1, BuildingBlock: GEDQOX_clean_sbu_0, # of connection points: 6
#     Node 11, Type 1, BuildingBlock: GEDQOX_clean_sbu_0, # of connection points: 6
#     Edge 12, Type (0, 1), BuildingBlock: OJICUG_clean_linker_0, # of connection points: 2
#     Edge 13, Type (0, 1), BuildingBlock: OJICUG_clean_linker_0, # of connection points: 2
#     Edge 14, Type (0, 1), BuildingBlock: OJICUG_clean_linker_0, # of connection points: 2
#     Edge 15, Type (0, 1), BuildingBlock: OJICUG_clean_linker_0, # of connection points: 2
#     Edge 16, Type (0, 1), BuildingBlock: OJICUG_clean_linker_0, # of connection points: 2
#     Edge 17, Type (0, 1), BuildingBlock: OJICUG_clean_linker_0, # of connection points: 2
#     Edge 18, Type (0, 1), BuildingBlock: OJICUG_clean_linker_0, # of connection points: 2
#     Edge 19, Type (0, 1), BuildingBlock: OJICUG_clean_linker_0, # of connection points: 2
#     Edge 20, Type (0, 1), BuildingBlock: OJICUG_clean_linker_0, # of connection points: 2
#     Edge 21, Type (0, 1), BuildingBlock: OJICUG_clean_linker_0, # of connection points: 2
#     Edge 22, Type (0, 1), BuildingBlock: OJICUG_clean_linker_0, # of connection points: 2
#     Edge 23, Type (0, 1), BuildingBlock: OJICUG_clean_linker_0, # of connection points: 2
#     Edge 24, Type (0, 1), BuildingBlock: OJICUG_clean_linker_0, # of connection points: 2
#     Edge 25, Type (0, 1), BuildingBlock: OJICUG_clean_linker_0, # of connection points: 2
#     Edge 26, Type (0, 1), BuildingBlock: OJICUG_clean_linker_0, # of connection points: 2
#     Edge 27, Type (0, 1), BuildingBlock: OJICUG_clean_linker_0, # of connection points: 2
#     Edge 28, Type (0, 1), BuildingBlock: OJICUG_clean_linker_0, # of connection points: 2
#     Edge 29, Type (0, 1), BuildingBlock: OJICUG_clean_linker_0, # of connection points: 2
#     Edge 30, Type (0, 1), BuildingBlock: OJICUG_clean_linker_0, # of connection points: 2
#     Edge 31, Type (0, 1), BuildingBlock: OJICUG_clean_linker_0, # of connection points: 2
#     Edge 32, Type (0, 1), BuildingBlock: OJICUG_clean_linker_0, # of connection points: 2
#     Edge 33, Type (0, 1), BuildingBlock: OJICUG_clean_linker_0, # of connection points: 2
#     Edge 34, Type (0, 1), BuildingBlock: OJICUG_clean_linker_0, # of connection points: 2
#     Edge 35, Type (0, 1), BuildingBlock: OJICUG_clean_linker_0, # of connection points: 2
# Relax obj value: 0.312
# Max RMSD: 0.317
# Mean RMSD: 0.196
data_MOF--net-zzz--node1-GEDQOX_clean_sbu_0--node2-KAKCAD_clean_linker_0--edge1-OJICUG_clean_linker_0
_symmetry_space_group_name_H-M    P1
_symmetry_Int_Tables_number       1
_symmetry_cell_setting            triclinic
loop_
_symmetry_equiv_pos_as_xyz
'x, y, z'
_cell_length_a     49.357407
_cell_length_b     46.422028
_cell_length_c     18.141414
_cell_angle_alpha  79.427049
_cell_angle_beta   90.666012
_cell_angle_gamma 104.37919
loop_
_atom_site_label
_atom_site_type_symbol
_atom_site_fract_x
_atom_site_fract_y
_atom_site_fract_z
_atom_type_partial_charge
C0 C 0.83113 0.50385 0.94125 0.0
C1 C 0.84295 0.47919 0.96584 0.0
C2 C 0.80812 0.50717 0.97991 0.0
C3 C 0.79675 0.4862 0.04451 0.0
C4 C 0.8071 0.46048 0.06625 0.0
C5 C 0.82973 0.45678 0.02666 0.0
C6 C 0.77753 0.49373 0.09533 0.0
C7 C 0.75203 0.49947 0.07077 0.0
C8 C 0.73509 0.50886 0.11847 0.0
C9 C 0.74434 0.51367 0.18984 0.0
C10 C 0.77025 0.50881 0.21397 0.0
C11 C 0.78635 0.49815 0.16701 0.0
C12 C 0.7822 0.51759 0.28431 0.0
C13 C 0.78364 0.54668 0.2985 0.0
C14 C 0.79554 0.49851 0.33241 0.0
C15 C 0.81138 0.50891 0.39082 0.0
C16 C 0.81438 0.5387 0.40208 0.0
C17 C 0.70786 0.51401 0.0934 0.0
C18 C 0.70635 0.53527 0.02872 0.0
C19 C 0.6832 0.49746 0.13396 0.0
C20 C 0.65731 0.50178 0.1097 0.0
C21 C 0.65554 0.52333 0.04523 0.0
C22 C 0.68049 0.54014 0.0053 0.0
C23 C 0.7997 0.5572 0.35666 0.0
H24 H 0.84076 0.52185 0.89547 0.0
H25 H 0.8006 0.52733 0.96269 0.0
H26 H 0.79846 0.44396 0.11589 0.0
H27 H 0.83766 0.43706 0.04607 0.0
H28 H 0.74529 0.4964 0.01501 0.0
H29 H 0.80673 0.49512 0.18426 0.0
H30 H 0.73166 0.52178 0.22581 0.0
H31 H 0.77373 0.56194 0.26192 0.0
H32 H 0.79467 0.47594 0.32282 0.0
H33 H 0.8226 0.49416 0.42436 0.0
H34 H 0.72523 0.54842 0.99696 0.0
H35 H 0.68395 0.48072 0.18365 0.0
H36 H 0.80142 0.58016 0.36448 0.0
H37 H 0.68019 0.55732 0.95632 0.0
H38 H 0.63867 0.48779 0.14106 0.0
C39 C 0.02616 0.86367 0.1443 0.0
C40 C 0.04525 0.87095 0.08324 0.0
C41 C 0.01949 0.83473 0.18749 0.0
C42 C 0.03229 0.8125 0.17189 0.0
C43 C 0.05124 0.81968 0.10995 0.0
C44 C 0.05748 0.84871 0.06542 0.0
C45 C 0.02591 0.78234 0.22189 0.0
C46 C 0.02198 0.75549 0.19367 0.0
C47 C 0.01365 0.72704 0.24171 0.0
C48 C 0.00864 0.72576 0.31918 0.0
C49 C 0.01273 0.75281 0.34745 0.0
C50 C 0.02217 0.78057 0.29893 0.0
C51 C 0.00513 0.75453 0.42495 0.0
C52 C 0.97861 0.75901 0.43793 0.0
C53 C 0.02676 0.76437 0.47247 0.0
C54 C 0.0229 0.78159 0.52554 0.0
C55 C 0.99739 0.78959 0.53166 0.0
C56 C 0.01048 0.69925 0.20902 0.0
C57 C 0.99559 0.69622 0.14311 0.0
C58 C 0.02483 0.67732 0.23814 0.0
C59 C 0.02531 0.65364 0.20033 0.0
C60 C 0.01113 0.65107 0.13286 0.0
C61 C 0.99578 0.67241 0.10578 0.0
C62 C 0.97476 0.77642 0.49057 0.0
H63 H 0.01583 0.88024 0.15759 0.0
H64 H 0.00405 0.82976 0.23301 0.0
H65 H 0.06147 0.80309 0.09656 0.0
H66 H 0.07201 0.8539 0.0177 0.0
H67 H 0.0251 0.75667 0.13405 0.0
H68 H 0.02568 0.80121 0.32164 0.0
H69 H 0.00126 0.70413 0.35648 0.0
H70 H 0.96177 0.75234 0.40085 0.0
H71 H 0.04756 0.76174 0.46274 0.0
H72 H 0.0406 0.79058 0.55763 0.0
H73 H 0.98414 0.71268 0.11962 0.0
H74 H 0.0368 0.6793 0.28821 0.0
H75 H 0.9548 0.78198 0.49333 0.0
H76 H 0.98401 0.6709 0.05531 0.0
H77 H 0.03768 0.63801 0.22279 0.0
C78 C 0.70381 0.06709 0.92146 0.0
C79 C 0.69225 0.09041 0.93633 0.0
C80 C 0.72535 0.05901 0.96418 0.0
C81 C 0.73555 0.07368 0.02351 0.0
C82 C 0.72544 0.0982 0.03568 0.0
C83 C 0.70422 0.10674 0.9919 0.0
C84 C 0.7539 0.06079 0.07788 0.0
C85 C 0.77794 0.05387 0.05348 0.0
C86 C 0.79374 0.03859 0.10443 0.0
C87 C 0.78442 0.02921 0.18024 0.0
C88 C 0.76032 0.03608 0.20498 0.0
C89 C 0.74552 0.05232 0.15382 0.0
C90 C 0.74884 0.02471 0.28264 0.0
C91 C 0.73993 0.99344 0.31007 0.0
C92 C 0.74265 0.04488 0.32485 0.0
C93 C 0.72641 0.034 0.39125 0.0
C94 C 0.71572 1.00271 0.41614 0.0
C95 C 0.81987 0.03272 0.07771 0.0
C96 C 0.82702 0.00521 0.1042 0.0
C97 C 0.8379 0.05485 0.02465 0.0
C98 C 0.86229 0.0496 0.99821 0.0
C99 C 0.86946 0.02217 0.02455 0.0
C100 C 0.85166 1.00004 0.07806 0.0
C101 C 0.72329 0.9825 0.37611 0.0
H102 H 0.69503 0.05349 0.88038 0.0
H103 H 0.73262 0.03982 0.95423 0.0
H104 H 0.73324 0.11002 0.08085 0.0
H105 H 0.69641 0.12527 0.00391 0.0
H106 H 0.78405 0.06002 0.99436 0.0
H107 H 0.72638 0.05673 0.17241 0.0
H108 H 0.79603 0.01705 0.22024 0.0
H109 H 0.74426 0.97749 0.27792 0.0
H110 H 0.74921 0.06909 0.3044 0.0
H111 H 0.7207 0.05014 0.42038 0.0
H112 H 0.81345 0.98754 0.1444 0.0
H113 H 0.83341 0.07655 0.00426 0.0
H114 H 0.71543 0.95828 0.39427 0.0
H115 H 0.85667 0.97866 0.09919 0.0
H116 H 0.87593 0.06738 0.95836 0.0
C117 C 0.52568 0.7287 0.58504 0.0
C118 C 0.5479 0.7196 0.62426 0.0
C119 C 0.53067 0.75568 0.53152 0.0
C120 C 0.55791 0.77431 0.51633 0.0
C121 C 0.57964 0.76661 0.56018 0.0
C122 C 0.57471 0.73969 0.61356 0.0
C123 C 0.56516 0.79355 0.44065 0.0
C124 C 0.56166 0.82332 0.41931 0.0
C125 C 0.56846 0.83911 0.3444 0.0
C126 C 0.57757 0.82431 0.2921 0.0
C127 C 0.57943 0.79437 0.31185 0.0
C128 C 0.57405 0.77961 0.38655 0.0
C129 C 0.58134 0.77646 0.25324 0.0
C130 C 0.56488 0.77916 0.18972 0.0
C131 C 0.59452 0.7525 0.26751 0.0
C132 C 0.58792 0.72934 0.22604 0.0
C133 C 0.56846 0.73018 0.16913 0.0
C134 C 0.56404 0.86978 0.31466 0.0
C135 C 0.53766 0.87569 0.32028 0.0
C136 C 0.58445 0.89068 0.26519 0.0
C137 C 0.57786 0.91483 0.21655 0.0
C138 C 0.55075 0.91963 0.21715 0.0
C139 C 0.53118 0.90047 0.27267 0.0
C140 C 0.55861 0.75623 0.14777 0.0
H141 H 0.50479 0.71386 0.59115 0.0
H142 H 0.51369 0.76046 0.49697 0.0
H143 H 0.60096 0.78009 0.54841 0.0
H144 H 0.59226 0.73384 0.64355 0.0
H145 H 0.55385 0.83396 0.46002 0.0
H146 H 0.57474 0.75611 0.4022 0.0
H147 H 0.5816 0.83557 0.23398 0.0
H148 H 0.5543 0.79721 0.177 0.0
H149 H 0.60791 0.75028 0.31484 0.0
H150 H 0.59615 0.70962 0.2425 0.0
H151 H 0.52142 0.86001 0.35765 0.0
H152 H 0.60507 0.88688 0.25968 0.0
H153 H 0.54354 0.7574 0.10411 0.0
H154 H 0.51039 0.90374 0.27778 0.0
H155 H 0.59379 0.92837 0.17536 0.0
C156 C 0.1978 0.60859 0.65964 0.0
C157 C 0.18514 0.59039 0.72738 0.0
C158 C 0.21838 0.60035 0.62173 0.0
C159 C 0.22738 0.57445 0.6522 0.0
C160 C 0.217 0.55806 0.72305 0.0
C161 C 0.19596 0.56575 0.76004 0.0
C162 C 0.2432 0.5611 0.60533 0.0
C163 C 0.27014 0.5582 0.62351 0.0
C164 C 0.28352 0.54202 0.58377 0.0
C165 C 0.26936 0.52815 0.52657 0.0
C166 C 0.24217 0.53072 0.50849 0.0
C167 C 0.22956 0.54779 0.54734 0.0
C168 C 0.22629 0.51514 0.45081 0.0
C169 C 0.23893 0.51591 0.38124 0.0
C170 C 0.19771 0.50068 0.4639 0.0
C171 C 0.18175 0.48879 0.40751 0.0
C172 C 0.19398 0.4908 0.33655 0.0
C173 C 0.31198 0.53902 0.60377 0.0
C174 C 0.33319 0.56472 0.6111 0.0
C175 C 0.31797 0.5105 0.61734 0.0
C176 C 0.34465 0.50771 0.63875 0.0
C177 C 0.36589 0.53346 0.64573 0.0
C178 C 0.35994 0.56199 0.63136 0.0
C179 C 0.22293 0.50387 0.32464 0.0
H180 H 0.19077 0.62824 0.6336 0.0
H181 H 0.22623 0.61328 0.56691 0.0
H182 H 0.2235 0.53778 0.74697 0.0
H183 H 0.18678 0.55074 0.81126 0.0
H184 H 0.28037 0.56794 0.66965 0.0
H185 H 0.20862 0.55004 0.53408 0.0
H186 H 0.27938 0.51511 0.49691 0.0
H187 H 0.26092 0.52686 0.3695 0.0
H188 H 0.18745 0.49915 0.51745 0.0
H189 H 0.15952 0.47925 0.41875 0.0
H190 H 0.32911 0.58697 0.60069 0.0
H191 H 0.30188 0.49032 0.61265 0.0
H192 H 0.23312 0.50542 0.27102 0.0
H193 H 0.37591 0.58217 0.63685 0.0
H194 H 0.34877 0.48548 0.64913 0.0
C195 C 0.99137 0.22634 0.60592 0.0
C196 C 0.00552 0.20535 0.59004 0.0
C197 C 0.99697 0.25542 0.56217 0.0
C198 C 0.01719 0.26399 0.50288 0.0
C199 C 0.03195 0.24308 0.48926 0.0
C200 C 0.02594 0.21397 0.53184 0.0
C201 C 0.02197 0.29396 0.45257 0.0
C202 C 0.02183 0.32014 0.48019 0.0
C203 C 0.02508 0.34839 0.43171 0.0
C204 C 0.03041 0.3503 0.3539 0.0
C205 C 0.03119 0.32392 0.32635 0.0
C206 C 0.02634 0.29615 0.37578 0.0
C207 C 0.03682 0.32281 0.24701 0.0
C208 C 0.01396 0.31113 0.20508 0.0
C209 C 0.06336 0.31978 0.22787 0.0
C210 C 0.06625 0.30175 0.17576 0.0
C211 C 0.04262 0.28647 0.14153 0.0
C212 C 0.02249 0.37493 0.46501 0.0
C213 C 0.00357 0.37034 0.52606 0.0
C214 C 0.03986 0.40417 0.44127 0.0
C215 C 0.03913 0.42766 0.47996 0.0
C216 C 0.02131 0.42245 0.54417 0.0
C217 C 0.00339 0.39334 0.56572 0.0
C218 C 0.01681 0.29314 0.15287 0.0
H219 H 0.9757 0.22007 0.65123 0.0
H220 H 0.98505 0.27088 0.57367 0.0
H221 H 0.04818 0.24915 0.44546 0.0
H222 H 0.03759 0.19828 0.52005 0.0
H223 H 0.01946 0.31845 0.54023 0.0
H224 H 0.02585 0.27588 0.35347 0.0
H225 H 0.03339 0.37169 0.3153 0.0
H226 H 0.99317 0.31262 0.21953 0.0
H227 H 0.08123 0.32794 0.26044 0.0
H228 H 0.08648 0.29728 0.16859 0.0
H229 H 0.98915 0.34848 0.54499 0.0
H230 H 0.05464 0.40871 0.39438 0.0
H231 H 0.99828 0.28241 0.1261 0.0
H232 H 0.98958 0.38764 0.6149 0.0
H233 H 0.0528 0.4498 0.45961 0.0
C234 C 0.34111 0.97367 0.69921 0.0
C235 C 0.35323 0.98756 0.75863 0.0
C236 C 0.32099 0.98477 0.65601 0.0
C237 C 0.312 0.00926 0.67294 0.0
C238 C 0.32177 0.02107 0.73664 0.0
C239 C 0.34234 0.01053 0.77878 0.0
C240 C 0.29651 0.02587 0.61788 0.0
C241 C 0.27052 0.02993 0.63673 0.0
C242 C 0.25681 0.04761 0.58513 0.0
C243 C 0.27026 0.06231 0.51517 0.0
C244 C 0.29692 0.05923 0.49725 0.0
C245 C 0.30944 0.04031 0.54821 0.0
C246 C 0.31256 0.0759 0.42662 0.0
C247 C 0.3002 0.07515 0.3567 0.0
C248 C 0.34112 0.09018 0.42888 0.0
C249 C 0.35753 0.10125 0.36299 0.0
C250 C 0.34576 0.09858 0.29284 0.0
C251 C 0.22877 0.05084 0.60577 0.0
C252 C 0.20927 0.02603 0.64779 0.0
C253 C 0.2215 0.07867 0.58612 0.0
C254 C 0.19551 0.08166 0.60923 0.0
C255 C 0.17654 0.057 0.65316 0.0
C256 C 0.18359 0.02914 0.67162 0.0
C257 C 0.31667 0.08641 0.29032 0.0
H258 H 0.34829 0.9554 0.68318 0.0
H259 H 0.3135 0.97527 0.60707 0.0
H260 H 0.31524 0.04018 0.75015 0.0
H261 H 0.35117 0.02224 0.8232 0.0
H262 H 0.2612 0.01953 0.69207 0.0
H263 H 0.32984 0.03745 0.53456 0.0
H264 H 0.26025 0.07634 0.47515 0.0
H265 H 0.27819 0.06439 0.3534 0.0
H266 H 0.35111 0.09156 0.48208 0.0
H267 H 0.37981 0.11017 0.36774 0.0
H268 H 0.2138 0.00406 0.66231 0.0
H269 H 0.23609 0.09833 0.55448 0.0
H270 H 0.30679 0.08451 0.23721 0.0
H271 H 0.16905 0.00959 0.70399 0.0
H272 H 0.19049 0.10337 0.59423 0.0
C273 C 0.4499 0.31742 0.04451 0.0
C274 C 0.47665 0.33758 0.03395 0.0
C275 C 0.44539 0.28974 0.09492 0.0
C276 C 0.46748 0.28151 0.13632 0.0
C277 C 0.4947 0.30001 0.11957 0.0
C278 C 0.49926 0.32772 0.06899 0.0
C279 C 0.46108 0.26273 0.21282 0.0
C280 C 0.46983 0.23587 0.23894 0.0
C281 C 0.46656 0.22274 0.3164 0.0
C282 C 0.45783 0.23858 0.3667 0.0
C283 C 0.4503 0.26576 0.34155 0.0
C284 C 0.44962 0.27593 0.26426 0.0
C285 C 0.44866 0.28629 0.39464 0.0
C286 C 0.44111 0.27496 0.47122 0.0
C287 C 0.45898 0.31778 0.37092 0.0
C288 C 0.46324 0.33702 0.42232 0.0
C289 C 0.45808 0.32531 0.49888 0.0
C290 C 0.47355 0.19378 0.35026 0.0
C291 C 0.50099 0.19045 0.34742 0.0
C292 C 0.45402 0.17251 0.40134 0.0
C293 C 0.46222 0.15044 0.45354 0.0
C294 C 0.4902 0.14821 0.45532 0.0
C295 C 0.50916 0.16773 0.39883 0.0
C296 C 0.44637 0.29431 0.52329 0.0
H297 H 0.43206 0.32383 0.0173 0.0
H298 H 0.42411 0.27627 0.10756 0.0
H299 H 0.51203 0.29476 0.15187 0.0
H300 H 0.52017 0.34252 0.06258 0.0
H301 H 0.47882 0.2254 0.19999 0.0
H302 H 0.44275 0.29631 0.24381 0.0
H303 H 0.45868 0.23035 0.42632 0.0
H304 H 0.43241 0.25103 0.49161 0.0
H305 H 0.4659 0.32776 0.31349 0.0
H306 H 0.47262 0.36092 0.40269 0.0
H307 H 0.51657 0.20662 0.30908 0.0
H308 H 0.4327 0.17458 0.40513 0.0
H309 H 0.44217 0.28503 0.5825 0.0
H310 H 0.53066 0.16638 0.39573 0.0
H311 H 0.44669 0.13657 0.4954 0.0
Nd312 Nd 0.00887 0.02086 0.77864 0.0
Nd313 Nd 0.036 0.05383 0.89944 0.0
C314 C 0.98017 0.9795 0.70459 0.0
C315 C 0.9826 0.95015 0.68846 0.0
C316 C 0.96018 0.93168 0.65752 0.0
C317 C 0.96254 0.90425 0.63964 0.0
C318 C 0.98743 0.89469 0.65233 0.0
C319 C 0.00968 0.91311 0.68481 0.0
C320 C 0.00729 0.94054 0.70263 0.0
C321 C 0.06419 0.05049 0.74666 0.0
C322 C 0.04021 0.9858 0.91661 0.0
C323 C 0.06291 0.09546 0.97521 0.0
C324 C 0.05927 0.12429 0.99398 0.0
C325 C 0.06653 0.15177 0.94191 0.0
C326 C 0.06333 0.17875 0.96106 0.0
C327 C 0.05267 0.17893 0.03256 0.0
C328 C 0.04555 0.15146 0.08452 0.0
C329 C 0.04892 0.12459 0.06562 0.0
C330 C 0.98055 0.02419 0.93043 0.0
C331 C 0.00626 0.08936 0.75903 0.0
O332 O 0.97432 0.9801 0.77437 0.0
O333 O 0.99927 1.00341 0.67291 0.0
O334 O 0.04495 0.04907 0.69716 0.0
O335 O 0.0541 0.03567 0.80985 0.0
O336 O 0.02086 0.98369 0.86564 0.0
O337 O 0.05285 0.01203 0.93444 0.0
O338 O 0.06935 0.0954 0.90543 0.0
O339 O 0.04503 0.07044 0.00664 0.0
O340 O 0.99979 0.02508 0.97984 0.0
O341 O 0.99081 0.03933 0.86771 0.0
O342 O 0.02521 0.09115 0.81096 0.0
O343 O 0.99322 0.06327 0.74128 0.0
H344 H 0.94095 0.93869 0.64612 0.0
H345 H 0.9451 0.89097 0.61385 0.0
H346 H 0.02902 0.90637 0.69634 0.0
H347 H 0.02482 0.95442 0.72677 0.0
H348 H 0.0747 0.1525 0.88627 0.0
H349 H 0.06889 0.19943 0.91951 0.0
H350 H 0.03775 0.15077 0.14054 0.0
H351 H 0.04347 0.10398 0.10745 0.0
Nd352 Nd 0.53206 0.0177 0.7998 0.0
Nd353 Nd 0.51387 0.05871 0.88441 0.0
C354 C 0.54728 0.97517 0.74354 0.0
C355 C 0.57358 0.97536 0.70624 0.0
C356 C 0.57763 0.94914 0.68515 0.0
C357 C 0.60235 0.95011 0.64649 0.0
C358 C 0.62334 0.97737 0.62846 0.0
C359 C 0.61924 1.00339 0.65131 0.0
C360 C 0.59464 1.00237 0.68983 0.0
C361 C 0.52509 0.06986 0.7092 0.0
C362 C 0.58069 0.07106 0.84195 0.0
C363 C 0.5 0.10253 0.93844 0.0
C364 C 0.4752 0.10448 0.97916 0.0
C365 C 0.47125 0.1327 0.98647 0.0
C366 C 0.44811 0.1344 0.02787 0.0
C367 C 0.42863 0.10785 0.06281 0.0
C368 C 0.43253 0.07964 0.05371 0.0
C369 C 0.45549 0.078 0.012 0.0
C370 C 0.52045 0.00648 0.97468 0.0
C371 C 0.46525 0.00477 0.84471 0.0
O372 O 0.54878 0.97688 0.81466 0.0
O373 O 0.53311 0.99312 0.70656 0.0
O374 O 0.54619 0.05841 0.70275 0.0
O375 O 0.50875 0.054 0.76278 0.0
O376 O 0.5752 0.04422 0.82349 0.0
O377 O 0.56061 0.08301 0.85979 0.0
O378 O 0.49646 0.09908 0.86877 0.0
O379 O 0.5146 0.08493 0.975 0.0
O380 O 0.49966 0.01832 0.98194 0.0
O381 O 0.53702 0.02227 0.92145 0.0
O382 O 0.47063 0.03138 0.86454 0.0
O383 O 0.48531 0.99329 0.82424 0.0
H384 H 0.56157 0.92808 0.69765 0.0
H385 H 0.60494 0.92961 0.63024 0.0
H386 H 0.6346 0.02491 0.6372 0.0
H387 H 0.5918 0.02289 0.70538 0.0
H388 H 0.4862 0.15337 0.96088 0.0
H389 H 0.44561 0.15649 0.03288 0.0
H390 H 0.41836 0.05868 0.08081 0.0
H391 H 0.45817 0.05599 0.00664 0.0
Nd392 Nd 0.49284 0.53292 0.89754 0.0
Nd393 Nd 0.53012 0.52626 0.7821 0.0
C394 C 0.45859 0.55011 0.97986 0.0
C395 C 0.46673 0.57435 0.02421 0.0
C396 C 0.46323 0.60333 0.99506 0.0
C397 C 0.47842 0.62841 0.02298 0.0
C398 C 0.4973 0.62487 0.08056 0.0
C399 C 0.49872 0.59557 0.1143 0.0
C400 C 0.48345 0.57055 0.08682 0.0
C401 C 0.54602 0.53425 0.94666 0.0
C402 C 0.52849 0.59385 0.77952 0.0
C403 C 0.56011 0.50355 0.70193 0.0
C404 C 0.54628 0.47463 0.681 0.0
C405 C 0.56035 0.45739 0.64744 0.0
C406 C 0.54525 0.42989 0.62915 0.0
C407 C 0.51615 0.41963 0.64494 0.0
C408 C 0.50265 0.43653 0.68129 0.0
C409 C 0.51747 0.46381 0.69823 0.0
C410 C 0.47687 0.5259 0.73494 0.0
C411 C 0.49564 0.46557 0.89886 0.0
O412 O 0.46147 0.5591 0.90702 0.0
O413 O 0.46791 0.52607 0.00274 0.0
O414 O 0.52355 0.52172 0.98796 0.0
O415 O 0.54042 0.54734 0.88347 0.0
O416 O 0.50505 0.58064 0.82007 0.0
O417 O 0.54595 0.5777 0.76695 0.0
O418 O 0.56315 0.5019 0.77414 0.0
O419 O 0.54928 0.52585 0.67226 0.0
O420 O 0.49932 0.5401 0.69502 0.0
O421 O 0.48262 0.51172 0.79664 0.0
O422 O 0.51956 0.47952 0.86217 0.0
O423 O 0.4776 0.48128 0.90918 0.0
H424 H 0.45032 0.60689 0.94719 0.0
H425 H 0.47625 0.65068 0.99739 0.0
H426 H 0.51302 0.59199 0.15879 0.0
H427 H 0.48654 0.54854 0.11116 0.0
H428 H 0.58262 0.46532 0.63445 0.0
H429 H 0.55605 0.41724 0.60053 0.0
H430 H 0.4804 0.42901 0.69504 0.0
H431 H 0.50618 0.47675 0.72415 0.0
Nd432 Nd 0.00872 0.56069 0.78082 0.0
Nd433 Nd 0.02292 0.50923 0.89927 0.0
C434 C 0.98362 0.59935 0.70095 0.0
C435 C 0.95719 0.59275 0.66188 0.0
C436 C 0.94362 0.61549 0.63429 0.0
C437 C 0.9183 0.60841 0.59769 0.0
C438 C 0.90619 0.57843 0.58884 0.0
C439 C 0.91993 0.5558 0.61722 0.0
C440 C 0.94514 0.5629 0.65322 0.0
C441 C 0.02226 0.51489 0.7235 0.0
C442 C 0.95758 0.50357 0.86809 0.0
C443 C 0.04468 0.46448 0.9602 0.0
C444 C 0.06873 0.4654 0.00892 0.0
C445 C 0.07518 0.43883 0.04618 0.0
C446 C 0.09762 0.44047 0.09473 0.0
C447 C 0.11389 0.46875 0.10637 0.0
C448 C 0.10732 0.49523 0.0681 0.0
C449 C 0.085 0.49355 0.02005 0.0
C450 C 0.02033 0.55624 0.9713 0.0
C451 C 0.07224 0.56965 0.82368 0.0
O452 O 0.98125 0.59232 0.77417 0.0
O453 O 0.004 0.59055 0.67382 0.0
O454 O 0.03069 0.54331 0.69341 0.0
O455 O 0.00689 0.51137 0.78137 0.0
O456 O 0.96534 0.52981 0.82128 0.0
O457 O 0.9757 0.48968 0.90305 0.0
O458 O 0.05078 0.47915 0.89108 0.0
O459 O 0.02277 0.46995 0.98969 0.0
O460 O 0.02518 0.53098 0.00491 0.0
O461 O 0.0167 0.55538 0.90281 0.0
O462 O 0.06531 0.54035 0.8519 0.0
O463 O 0.05345 0.58488 0.80112 0.0
H464 H 0.95259 0.63863 0.64086 0.0
H465 H 0.90815 0.6263 0.57663 0.0
H466 H 0.91156 0.53264 0.61007 0.0
H467 H 0.95539 0.54504 0.67382 0.0
H468 H 0.06275 0.4169 0.03834 0.0
H469 H 0.10219 0.41966 0.12319 0.0
H470 H 0.1189 0.51735 0.07691 0.0
H471 H 0.08014 0.51432 0.9924 0.0
C472 C 0.1311 0.07128 0.62832 0.0
C473 C 0.14915 0.05972 0.67924 0.0
H474 H 0.08974 0.07744 0.61007 0.0
C475 C 0.14001 0.04844 0.75443 0.0
H476 H 0.13767 0.08007 0.57003 0.0
C477 C 0.1128 0.04719 0.77745 0.0
C478 C 0.09412 0.05684 0.72544 0.0
H479 H 0.15369 0.03975 0.79496 0.0
H480 H 0.10602 0.03733 0.83517 0.0
C481 C 0.10371 0.06971 0.65118 0.0
C482 C 0.48043 0.10146 0.55936 0.0
C483 C 0.49961 0.12722 0.5187 0.0
H484 H 0.47314 0.06407 0.65224 0.0
C485 C 0.5275 0.13354 0.54246 0.0
H486 H 0.45903 0.09473 0.54265 0.0
C487 C 0.53576 0.1149 0.60408 0.0
C488 C 0.51625 0.09005 0.64541 0.0
H489 H 0.54304 0.15324 0.51476 0.0
H490 H 0.55737 0.12028 0.62038 0.0
C491 C 0.48851 0.08356 0.62249 0.0
C492 C 0.41793 0.54993 0.62684 0.0
C493 C 0.39425 0.53072 0.66776 0.0
H494 H 0.46264 0.56311 0.61575 0.0
C495 C 0.39789 0.50939 0.73043 0.0
H496 H 0.41568 0.56641 0.578 0.0
C497 C 0.4248 0.50769 0.75251 0.0
C498 C 0.44842 0.52697 0.71151 0.0
H499 H 0.37995 0.49448 0.76321 0.0
H500 H 0.42711 0.49136 0.80161 0.0
C501 C 0.44475 0.54793 0.64823 0.0
C502 C 0.99784 0.44587 0.6336 0.0
C503 C 0.02162 0.44659 0.58987 0.0
H504 H 0.97979 0.46601 0.71176 0.0
C505 C 0.04584 0.47013 0.59244 0.0
H506 H 0.97835 0.42908 0.63208 0.0
C507 C 0.04609 0.49216 0.63631 0.0
C508 C 0.02253 0.4907 0.68075 0.0
H509 H 0.06484 0.47154 0.56141 0.0
H510 H 0.06487 0.5102 0.63615 0.0
C511 C 0.99849 0.46723 0.67939 0.0
C512 C 0.90485 0.02679 0.92232 0.0
C513 C 0.89623 0.0177 0.99845 0.0
H514 H 0.93827 0.03541 0.84076 0.0
C515 C 0.91447 0.00698 0.05029 0.0
H516 H 0.89103 0.03467 0.88095 0.0
C517 C 0.94151 0.00738 0.02725 0.0
C518 C 0.9507 0.0184 0.95201 0.0
H519 H 0.90843 0.99992 0.10932 0.0
H520 H 0.95563 1.00042 0.06901 0.0
C521 C 0.93181 0.02705 0.89926 0.0
C522 C 0.56309 0.96797 0.11797 0.0
C523 C 0.54269 0.94291 0.157 0.0
H524 H 0.57228 0.00682 0.02879 0.0
C525 C 0.51473 0.93947 0.13449 0.0
H526 H 0.58469 0.9725 0.13392 0.0
C527 C 0.50756 0.96018 0.07569 0.0
C528 C 0.52818 0.98433 0.03585 0.0
H529 H 0.49825 0.92043 0.16087 0.0
H530 H 0.48588 0.95693 0.06025 0.0
C531 C 0.55601 0.98798 0.05748 0.0
C532 C 0.62284 0.53553 0.94266 0.0
C533 C 0.62779 0.52788 0.01961 0.0
H534 H 0.59319 0.54418 0.85939 0.0
C535 C 0.60571 0.52394 0.07197 0.0
H536 H 0.63904 0.53831 0.90037 0.0
C537 C 0.57925 0.52636 0.04807 0.0
C538 C 0.57439 0.53357 0.97142 0.0
H539 H 0.60875 0.51892 0.13169 0.0
H540 H 0.56256 0.52259 0.0897 0.0
C541 C 0.59649 0.53869 0.91892 0.0
C542 C 0.01324 0.63184 0.01115 0.0
C543 C 0.01276 0.62664 0.09042 0.0
H544 H 0.01588 0.61375 0.91106 0.0
C545 C 0.01431 0.59791 0.12889 0.0
H546 H 0.01254 0.65373 0.97919 0.0
C547 C 0.01674 0.57535 0.08968 0.0
C548 C 0.01735 0.58062 0.01084 0.0
H549 H 0.01342 0.59264 0.18961 0.0
H550 H 0.01802 0.55359 0.12147 0.0
C551 C 0.01536 0.60902 0.97183 0.0
C552 C 0.0053 0.17138 0.71294 0.0
C553 C 0.00039 0.17483 0.63603 0.0
H554 H 0.01105 0.14117 0.81255 0.0
C555 C 0.99392 0.14928 0.60177 0.0
H556 H 0.01047 0.19088 0.74017 0.0
C557 C 0.99382 0.12077 0.64323 0.0
C558 C 0.00082 0.11771 0.71891 0.0
H559 H 0.99005 0.15161 0.54232 0.0
H560 H 0.99004 0.10158 0.61501 0.0
C561 C 0.00576 0.14304 0.754 0.0
C562 C 0.38725 0.98743 0.86324 0.0
C563 C 0.37992 0.98221 0.79072 0.0
H564 H 0.42068 0.99898 0.93739 0.0
C565 C 0.40038 0.97723 0.74425 0.0
H566 H 0.37196 0.99026 0.9018 0.0
C567 C 0.42804 0.98092 0.7663 0.0
C568 C 0.43582 0.99025 0.83431 0.0
H569 H 0.39586 0.97334 0.68789 0.0
H570 H 0.44379 0.97967 0.72666 0.0
C571 C 0.41508 0.99202 0.88422 0.0
C572 C 0.4593 0.37191 0.54724 0.0
C573 C 0.46859 0.34556 0.55157 0.0
H574 H 0.46748 0.41622 0.57257 0.0
C575 C 0.49224 0.34227 0.59278 0.0
H576 H 0.44139 0.37497 0.51443 0.0
C577 C 0.50753 0.36605 0.62531 0.0
C578 C 0.49906 0.39313 0.61746 0.0
H579 H 0.49997 0.32222 0.59527 0.0
H580 H 0.52633 0.36366 0.65455 0.0
C581 C 0.47436 0.39548 0.58008 0.0
C582 C 0.15004 0.58287 0.83367 0.0
C583 C 0.1582 0.59368 0.75739 0.0
H584 H 0.11583 0.56634 0.91463 0.0
C585 C 0.13839 0.60282 0.70777 0.0
H586 H 0.16478 0.57669 0.87441 0.0
C587 C 0.11063 0.59823 0.73207 0.0
C588 C 0.10203 0.5838 0.80577 0.0
H589 H 0.14346 0.61102 0.64857 0.0
H590 H 0.0954 0.60311 0.69126 0.0
C591 C 0.12208 0.57733 0.85722 0.0
C592 C 0.0579 0.92714 0.0688 0.0
C593 C 0.05028 0.90125 0.03594 0.0
H594 H 0.06115 0.9747 0.05582 0.0
C595 C 0.04301 0.90416 0.96058 0.0
H596 H 0.06354 0.92525 0.12708 0.0
C597 C 0.04116 0.93221 0.92041 0.0
C598 C 0.04696 0.95778 0.95475 0.0
H599 H 0.03686 0.88443 0.93444 0.0
H600 H 0.03403 0.93358 0.86348 0.0
C601 C 0.05652 0.95533 0.02818 0.0
C602 C 0.65881 0.08725 0.83048 0.0
C603 C 0.66551 0.09432 0.9018 0.0
H604 H 0.62615 0.07411 0.75543 0.0
C605 C 0.64463 0.10031 0.9448 0.0
H606 H 0.67447 0.08354 0.79449 0.0
C607 C 0.61718 0.09614 0.92065 0.0
C608 C 0.61004 0.08531 0.85403 0.0
H609 H 0.64871 0.10561 1.00015 0.0
H610 H 0.6011 0.0984 0.95777 0.0
C611 C 0.63122 0.08223 0.80748 0.0
C612 C 0.54185 0.6764 0.19843 0.0
C613 C 0.55369 0.70212 0.14417 0.0
H614 H 0.5139 0.63241 0.22143 0.0
C615 C 0.54752 0.70209 0.06853 0.0
H616 H 0.54568 0.67616 0.25745 0.0
C617 C 0.52933 0.67691 0.04773 0.0
C618 C 0.51671 0.65153 0.10243 0.0
H619 H 0.55632 0.72177 0.02584 0.0
H620 H 0.52511 0.67737 0.98887 0.0
C621 C 0.52345 0.65143 0.17785 0.0
C622 C 0.87944 0.49307 0.86044 0.0
C623 C 0.87089 0.47928 0.93509 0.0
H624 H 0.91374 0.51157 0.7805 0.0
C625 C 0.89063 0.46916 0.98314 0.0
H626 H 0.86476 0.50037 0.82103 0.0
C627 C 0.91854 0.4748 0.95902 0.0
C628 C 0.92744 0.49119 0.88691 0.0
H629 H 0.88516 0.45878 0.04122 0.0
H630 H 0.93349 0.46839 0.99888 0.0
C631 C 0.90749 0.49929 0.83691 0.0
C632 C 0.0675 0.2609 0.06109 0.0
C633 C 0.04398 0.26036 0.10508 0.0
H634 H 0.0887 0.23584 0.00351 0.0
C635 C 0.02272 0.23326 0.12082 0.0
H636 H 0.08425 0.28132 0.04761 0.0
C637 C 0.02528 0.20727 0.09567 0.0
C638 C 0.04915 0.20749 0.0538 0.0
H639 H 0.0045 0.23165 0.1555 0.0
H640 H 0.00865 0.18678 0.11007 0.0
C641 C 0.06997 0.23484 0.03542 0.0
C642 C 0.38941 0.12815 0.21642 0.0
C643 C 0.36444 0.10502 0.22473 0.0
H644 H 0.42939 0.14693 0.16001 0.0
C645 C 0.3593 0.08551 0.17248 0.0
H646 H 0.39386 0.14402 0.25456 0.0
C647 C 0.37943 0.08767 0.11691 0.0
C648 C 0.40537 0.10914 0.11269 0.0
H649 H 0.34044 0.06732 0.17704 0.0
H650 H 0.37506 0.07168 0.07908 0.0
C651 C 0.4097 0.13007 0.1614 0.0
C652 C 0.46068 0.38609 0.0043 0.0
C653 C 0.48046 0.36973 0.9938 0.0
H654 H 0.44985 0.42882 0.9833 0.0
C655 C 0.50465 0.38506 0.949 0.0
H656 H 0.442 0.37533 0.03935 0.0
C657 C 0.50919 0.41587 0.9171 0.0
C658 C 0.48978 0.43238 0.92938 0.0
H659 H 0.52022 0.37327 0.93891 0.0
H660 H 0.52821 0.42685 0.88355 0.0
C661 C 0.46528 0.41694 0.97259 0.0
C662 C 0.15237 0.45697 0.28725 0.0
C663 C 0.17596 0.48184 0.27397 0.0
H664 H 0.11419 0.4334 0.24509 0.0
C665 C 0.18057 0.49999 0.20196 0.0
H666 H 0.14843 0.44216 0.34161 0.0
C667 C 0.16121 0.49461 0.14621 0.0
C668 C 0.13663 0.47109 0.16118 0.0
H669 H 0.19836 0.51943 0.18958 0.0
H670 H 0.16503 0.5096 0.09206 0.0
C671 C 0.13288 0.4517 0.23156 0.0
C672 C 0.97064 0.81493 0.6077 0.0
C673 C 0.99561 0.81479 0.57111 0.0
H674 H 0.94856 0.83981 0.66299 0.0
C675 C 0.01827 0.84054 0.56576 0.0
H676 H 0.95283 0.79548 0.6137 0.0
C677 C 0.01582 0.86593 0.59397 0.0
C678 C 0.9906 0.86649 0.62826 0.0
H679 H 0.03764 0.84176 0.53652 0.0
H680 H 0.03342 0.88565 0.58592 0.0
C681 C 0.96817 0.84043 0.63583 0.0
C682 C 0.69705 0.00461 0.54268 0.0
C683 C 0.69408 0.99177 0.47781 0.0
H684 H 0.67733 0.00934 0.6426 0.0
C685 C 0.66873 0.97118 0.46781 0.0
H686 H 0.71648 0.02027 0.55224 0.0
C687 C 0.64617 0.9652 0.51897 0.0
C688 C 0.64854 0.97957 0.58143 0.0
H689 H 0.66571 0.96119 0.41791 0.0
H690 H 0.62641 0.95076 0.50697 0.0
C691 C 0.67458 0.99846 0.59414 0.0
C692 C 0.5192 0.67379 0.7138 0.0
C693 C 0.54376 0.68817 0.66952 0.0
H694 H 0.49528 0.63321 0.78376 0.0
C695 C 0.56378 0.67149 0.66492 0.0
H696 H 0.50339 0.68586 0.7193 0.0
C697 C 0.55913 0.64125 0.70181 0.0
C698 C 0.53434 0.6267 0.74474 0.0
H699 H 0.58275 0.68146 0.63051 0.0
H700 H 0.57481 0.62911 0.69536 0.0
C701 C 0.51461 0.64354 0.75109 0.0
C702 C 0.85418 0.57942 0.43365 0.0
C703 C 0.83503 0.55111 0.45565 0.0
H704 H 0.8918 0.61017 0.45823 0.0
C705 C 0.83772 0.53352 0.52581 0.0
H706 H 0.85287 0.59336 0.37953 0.0
C707 C 0.85999 0.54319 0.57099 0.0
C708 C 0.88017 0.57061 0.54684 0.0
H709 H 0.82304 0.51183 0.5448 0.0
H710 H 0.86189 0.52875 0.62394 0.0
C711 C 0.87653 0.58907 0.47876 0.0
loop_
_geom_bond_atom_site_label_1
_geom_bond_atom_site_label_2
_geom_bond_distance
_geom_bond_site_symmetry_2
_ccdc_geom_bond_type
C0 C1 1.386 . S
C0 C2 1.397 . S
C0 H24 0.931 . S
C1 C0 1.386 . S
C1 C5 1.397 . S
C2 C0 1.397 . S
C2 C3 1.384 . S
C2 H25 0.930 . S
C3 C2 1.384 . S
C3 C4 1.377 . S
C3 C6 1.481 . S
C4 C3 1.377 . S
C4 C5 1.389 . S
C4 H26 0.929 . S
C5 C1 1.397 . S
C5 C4 1.389 . S
C5 H27 0.931 . S
C6 C3 1.481 . S
C6 C7 1.387 . S
C6 C11 1.390 1_556 S
C7 C6 1.387 . S
C7 C8 1.401 1_556 S
C7 H28 0.930 . S
C8 C7 1.401 1_554 S
C8 C9 1.376 . S
C8 C17 1.511 1_554 S
C9 C8 1.376 . S
C9 C10 1.392 . S
C9 H30 0.931 . S
C10 C9 1.392 . S
C10 C11 1.361 . S
C10 C12 1.500 . S
C11 C6 1.390 1_554 S
C11 C10 1.361 . S
C11 H29 0.931 . S
C12 C10 1.500 . S
C12 C13 1.371 . S
C12 C14 1.365 . S
C13 C12 1.371 . S
C13 C23 1.386 . S
C13 H31 0.931 . S
C14 C12 1.365 . S
C14 C15 1.409 . S
C14 H32 0.929 . S
C15 C14 1.409 . S
C15 C16 1.380 . S
C15 H33 0.930 . S
C16 C15 1.380 . S
C16 C23 1.357 . S
C17 C8 1.511 1_556 S
C17 C18 1.341 . S
C17 C19 1.371 1_556 S
C18 C17 1.341 . S
C18 C22 1.394 . S
C18 H34 0.930 . S
C19 C17 1.371 1_554 S
C19 C20 1.392 . S
C19 H35 0.931 . S
C20 C19 1.392 . S
C20 C21 1.331 1_554 S
C20 H38 0.932 . S
C21 C20 1.331 1_556 S
C21 C22 1.336 . S
C22 C18 1.394 . S
C22 C21 1.336 . S
C22 H37 0.929 . S
C23 C13 1.386 . S
C23 C16 1.357 . S
C23 H36 0.928 . S
H24 C0 0.931 . S
H25 C2 0.930 . S
H26 C4 0.929 . S
H27 C5 0.931 . S
H28 C7 0.930 . S
H29 C11 0.931 . S
H30 C9 0.931 . S
H31 C13 0.931 . S
H32 C14 0.929 . S
H33 C15 0.930 . S
H34 C18 0.930 . S
H35 C19 0.931 . S
H36 C23 0.928 . S
H37 C22 0.929 . S
H38 C20 0.932 . S
C39 C40 1.386 . S
C39 C41 1.397 . S
C39 H63 0.931 . S
C40 C39 1.386 . S
C40 C44 1.397 . S
C41 C39 1.397 . S
C41 C42 1.384 . S
C41 H64 0.930 . S
C42 C41 1.384 . S
C42 C43 1.377 . S
C42 C45 1.488 . S
C43 C42 1.377 . S
C43 C44 1.389 . S
C43 H65 0.929 . S
C44 C40 1.397 . S
C44 C43 1.389 . S
C44 H66 0.931 . S
C45 C42 1.488 . S
C45 C46 1.391 . S
C45 C50 1.379 1_556 S
C46 C45 1.391 . S
C46 C47 1.401 1_556 S
C46 H67 0.930 . S
C47 C46 1.401 1_554 S
C47 C48 1.376 . S
C47 C56 1.511 . S
C48 C47 1.376 . S
C48 C49 1.392 . S
C48 H69 0.931 . S
C49 C48 1.392 . S
C49 C50 1.361 . S
C49 C51 1.500 . S
C50 C45 1.379 1_554 S
C50 C49 1.361 . S
C50 H68 0.931 . S
C51 C49 1.500 . S
C51 C52 1.371 . S
C51 C53 1.365 . S
C52 C51 1.371 . S
C52 C62 1.386 . S
C52 H70 0.931 . S
C53 C51 1.365 . S
C53 C54 1.409 . S
C53 H71 0.929 . S
C54 C53 1.409 . S
C54 C55 1.380 . S
C54 H72 0.930 . S
C55 C54 1.380 . S
C55 C62 1.357 . S
C56 C47 1.511 . S
C56 C57 1.341 1_554 S
C56 C58 1.371 . S
C57 C56 1.341 1_556 S
C57 C61 1.394 . S
C57 H73 0.930 . S
C58 C56 1.371 . S
C58 C59 1.392 . S
C58 H74 0.931 . S
C59 C58 1.392 . S
C59 C60 1.331 . S
C59 H77 0.932 . S
C60 C59 1.331 . S
C60 C61 1.336 1_554 S
C61 C57 1.394 . S
C61 C60 1.336 1_556 S
C61 H76 0.929 . S
C62 C52 1.386 . S
C62 C55 1.357 . S
C62 H75 0.928 . S
H63 C39 0.931 . S
H64 C41 0.930 . S
H65 C43 0.929 . S
H66 C44 0.931 . S
H67 C46 0.930 . S
H68 C50 0.931 . S
H69 C48 0.931 . S
H70 C52 0.931 . S
H71 C53 0.929 . S
H72 C54 0.930 . S
H73 C57 0.930 . S
H74 C58 0.931 . S
H75 C62 0.928 . S
H76 C61 0.929 . S
H77 C59 0.932 . S
C78 C79 1.386 . S
C78 C80 1.397 . S
C78 H102 0.931 . S
C79 C78 1.386 . S
C79 C83 1.397 . S
C80 C78 1.397 . S
C80 C81 1.384 . S
C80 H103 0.930 . S
C81 C80 1.384 . S
C81 C82 1.377 . S
C81 C84 1.481 . S
C82 C81 1.377 . S
C82 C83 1.389 . S
C82 H104 0.929 1_565 S
C83 C79 1.397 . S
C83 C82 1.389 . S
C83 H105 0.931 1_565 S
C84 C81 1.481 . S
C84 C85 1.387 . S
C84 C89 1.390 1_556 S
C85 C84 1.387 . S
C85 C86 1.401 . S
C85 H106 0.930 . S
C86 C85 1.401 . S
C86 C87 1.376 1_556 S
C86 C95 1.511 . S
C87 C86 1.376 1_554 S
C87 C88 1.392 . S
C87 H108 0.931 . S
C88 C87 1.392 . S
C88 C89 1.361 . S
C88 C90 1.500 . S
C89 C84 1.390 1_554 S
C89 C88 1.361 . S
C89 H107 0.931 . S
C90 C88 1.500 . S
C90 C91 1.371 . S
C90 C92 1.365 . S
C91 C90 1.371 . S
C91 C101 1.386 . S
C91 H109 0.931 . S
C92 C90 1.365 . S
C92 C93 1.409 . S
C92 H110 0.929 1_565 S
C93 C92 1.409 . S
C93 C94 1.380 . S
C93 H111 0.930 1_565 S
C94 C93 1.380 . S
C94 C101 1.357 . S
C95 C86 1.511 . S
C95 C96 1.341 . S
C95 C97 1.371 1_556 S
C96 C95 1.341 . S
C96 C100 1.394 . S
C96 H112 0.930 . S
C97 C95 1.371 1_554 S
C97 C98 1.392 1_554 S
C97 H113 0.931 . S
C98 C97 1.392 1_556 S
C98 C99 1.331 . S
C98 H116 0.932 1_556 S
C99 C98 1.331 . S
C99 C100 1.336 . S
C100 C96 1.394 . S
C100 C99 1.336 . S
C100 H115 0.929 . S
C101 C91 1.386 . S
C101 C94 1.357 . S
C101 H114 0.928 . S
H102 C78 0.931 . S
H103 C80 0.930 . S
H104 C82 0.929 1_545 S
H105 C83 0.931 1_545 S
H106 C85 0.930 . S
H107 C89 0.931 . S
H108 C87 0.931 . S
H109 C91 0.931 . S
H110 C92 0.929 1_545 S
H111 C93 0.930 1_545 S
H112 C96 0.930 . S
H113 C97 0.931 . S
H114 C101 0.928 . S
H115 C100 0.929 . S
H116 C98 0.932 1_554 S
C117 C118 1.386 . S
C117 C119 1.397 . S
C117 H141 0.931 . S
C118 C117 1.386 . S
C118 C122 1.397 . S
C119 C117 1.397 . S
C119 C120 1.384 . S
C119 H142 0.930 . S
C120 C119 1.384 . S
C120 C121 1.377 . S
C120 C123 1.481 . S
C121 C120 1.377 . S
C121 C122 1.389 . S
C121 H143 0.929 . S
C122 C118 1.397 . S
C122 C121 1.389 . S
C122 H144 0.931 . S
C123 C120 1.481 . S
C123 C124 1.387 . S
C123 C128 1.390 . S
C124 C123 1.387 . S
C124 C125 1.401 . S
C124 H145 0.930 . S
C125 C124 1.401 . S
C125 C126 1.376 . S
C125 C134 1.511 . S
C126 C125 1.376 . S
C126 C127 1.392 . S
C126 H147 0.931 . S
C127 C126 1.392 . S
C127 C128 1.361 . S
C127 C129 1.500 . S
C128 C123 1.390 . S
C128 C127 1.361 . S
C128 H146 0.931 . S
C129 C127 1.500 . S
C129 C130 1.371 . S
C129 C131 1.365 . S
C130 C129 1.371 . S
C130 C140 1.386 . S
C130 H148 0.931 . S
C131 C129 1.365 . S
C131 C132 1.409 . S
C131 H149 0.929 . S
C132 C131 1.409 . S
C132 C133 1.380 . S
C132 H150 0.930 . S
C133 C132 1.380 . S
C133 C140 1.357 . S
C134 C125 1.511 . S
C134 C135 1.341 . S
C134 C136 1.371 . S
C135 C134 1.341 . S
C135 C139 1.394 . S
C135 H151 0.930 . S
C136 C134 1.371 . S
C136 C137 1.392 . S
C136 H152 0.931 . S
C137 C136 1.392 . S
C137 C138 1.331 . S
C137 H155 0.932 . S
C138 C137 1.331 . S
C138 C139 1.336 . S
C139 C135 1.394 . S
C139 C138 1.336 . S
C139 H154 0.929 . S
C140 C130 1.386 . S
C140 C133 1.357 . S
C140 H153 0.928 . S
H141 C117 0.931 . S
H142 C119 0.930 . S
H143 C121 0.929 . S
H144 C122 0.931 . S
H145 C124 0.930 . S
H146 C128 0.931 . S
H147 C126 0.931 . S
H148 C130 0.931 . S
H149 C131 0.929 . S
H150 C132 0.930 . S
H151 C135 0.930 . S
H152 C136 0.931 . S
H153 C140 0.928 . S
H154 C139 0.929 . S
H155 C137 0.932 . S
C156 C157 1.386 . S
C156 C158 1.397 . S
C156 H180 0.931 . S
C157 C156 1.386 . S
C157 C161 1.397 . S
C158 C156 1.397 . S
C158 C159 1.384 . S
C158 H181 0.930 . S
C159 C158 1.384 . S
C159 C160 1.377 . S
C159 C162 1.481 . S
C160 C159 1.377 . S
C160 C161 1.389 . S
C160 H182 0.929 . S
C161 C157 1.397 . S
C161 C160 1.389 . S
C161 H183 0.931 . S
C162 C159 1.481 . S
C162 C163 1.387 . S
C162 C167 1.390 . S
C163 C162 1.387 . S
C163 C164 1.401 . S
C163 H184 0.930 . S
C164 C163 1.401 . S
C164 C165 1.376 . S
C164 C173 1.511 . S
C165 C164 1.376 . S
C165 C166 1.392 . S
C165 H186 0.931 . S
C166 C165 1.392 . S
C166 C167 1.361 . S
C166 C168 1.500 . S
C167 C162 1.390 . S
C167 C166 1.361 . S
C167 H185 0.931 . S
C168 C166 1.500 . S
C168 C169 1.371 . S
C168 C170 1.365 . S
C169 C168 1.371 . S
C169 C179 1.386 . S
C169 H187 0.931 . S
C170 C168 1.365 . S
C170 C171 1.409 . S
C170 H188 0.929 . S
C171 C170 1.409 . S
C171 C172 1.380 . S
C171 H189 0.930 . S
C172 C171 1.380 . S
C172 C179 1.357 . S
C173 C164 1.511 . S
C173 C174 1.341 . S
C173 C175 1.371 . S
C174 C173 1.341 . S
C174 C178 1.394 . S
C174 H190 0.930 . S
C175 C173 1.371 . S
C175 C176 1.392 . S
C175 H191 0.931 . S
C176 C175 1.392 . S
C176 C177 1.331 . S
C176 H194 0.932 . S
C177 C176 1.331 . S
C177 C178 1.336 . S
C178 C174 1.394 . S
C178 C177 1.336 . S
C178 H193 0.929 . S
C179 C169 1.386 . S
C179 C172 1.357 . S
C179 H192 0.928 . S
H180 C156 0.931 . S
H181 C158 0.930 . S
H182 C160 0.929 . S
H183 C161 0.931 . S
H184 C163 0.930 . S
H185 C167 0.931 . S
H186 C165 0.931 . S
H187 C169 0.931 . S
H188 C170 0.929 . S
H189 C171 0.930 . S
H190 C174 0.930 . S
H191 C175 0.931 . S
H192 C179 0.928 . S
H193 C178 0.929 . S
H194 C176 0.932 . S
C195 C196 1.386 . S
C195 C197 1.397 . S
C195 H219 0.931 . S
C196 C195 1.386 . S
C196 C200 1.397 . S
C197 C195 1.397 . S
C197 C198 1.384 . S
C197 H220 0.930 . S
C198 C197 1.384 . S
C198 C199 1.377 . S
C198 C201 1.481 . S
C199 C198 1.377 . S
C199 C200 1.389 . S
C199 H221 0.929 . S
C200 C196 1.397 . S
C200 C199 1.389 . S
C200 H222 0.931 . S
C201 C198 1.481 . S
C201 C202 1.387 . S
C201 C206 1.390 . S
C202 C201 1.387 . S
C202 C203 1.401 . S
C202 H223 0.930 . S
C203 C202 1.401 . S
C203 C204 1.376 . S
C203 C212 1.511 . S
C204 C203 1.376 . S
C204 C205 1.392 . S
C204 H225 0.931 . S
C205 C204 1.392 . S
C205 C206 1.361 . S
C205 C207 1.500 . S
C206 C201 1.390 . S
C206 C205 1.361 . S
C206 H224 0.931 . S
C207 C205 1.500 . S
C207 C208 1.371 . S
C207 C209 1.365 . S
C208 C207 1.371 . S
C208 C218 1.386 . S
C208 H226 0.931 . S
C209 C207 1.365 . S
C209 C210 1.409 . S
C209 H227 0.929 . S
C210 C209 1.409 . S
C210 C211 1.380 . S
C210 H228 0.930 . S
C211 C210 1.380 . S
C211 C218 1.357 . S
C212 C203 1.511 . S
C212 C213 1.341 . S
C212 C214 1.371 . S
C213 C212 1.341 . S
C213 C217 1.394 . S
C213 H229 0.930 . S
C214 C212 1.371 . S
C214 C215 1.392 . S
C214 H230 0.931 . S
C215 C214 1.392 . S
C215 C216 1.331 . S
C215 H233 0.932 . S
C216 C215 1.331 . S
C216 C217 1.336 . S
C217 C213 1.394 . S
C217 C216 1.336 . S
C217 H232 0.929 . S
C218 C208 1.386 . S
C218 C211 1.357 . S
C218 H231 0.928 . S
H219 C195 0.931 . S
H220 C197 0.930 . S
H221 C199 0.929 . S
H222 C200 0.931 . S
H223 C202 0.930 . S
H224 C206 0.931 . S
H225 C204 0.931 . S
H226 C208 0.931 . S
H227 C209 0.929 . S
H228 C210 0.930 . S
H229 C213 0.930 . S
H230 C214 0.931 . S
H231 C218 0.928 . S
H232 C217 0.929 . S
H233 C215 0.932 . S
C234 C235 1.386 . S
C234 C236 1.397 . S
C234 H258 0.931 . S
C235 C234 1.386 . S
C235 C239 1.397 . S
C236 C234 1.397 . S
C236 C237 1.384 . S
C236 H259 0.930 . S
C237 C236 1.384 . S
C237 C238 1.377 . S
C237 C240 1.481 . S
C238 C237 1.377 . S
C238 C239 1.389 . S
C238 H260 0.929 . S
C239 C235 1.397 . S
C239 C238 1.389 . S
C239 H261 0.931 . S
C240 C237 1.481 . S
C240 C241 1.387 . S
C240 C245 1.390 . S
C241 C240 1.387 . S
C241 C242 1.401 . S
C241 H262 0.930 . S
C242 C241 1.401 . S
C242 C243 1.376 . S
C242 C251 1.511 . S
C243 C242 1.376 . S
C243 C244 1.392 . S
C243 H264 0.931 . S
C244 C243 1.392 . S
C244 C245 1.361 . S
C244 C246 1.500 . S
C245 C240 1.390 . S
C245 C244 1.361 . S
C245 H263 0.931 . S
C246 C244 1.500 . S
C246 C247 1.371 . S
C246 C248 1.365 . S
C247 C246 1.371 . S
C247 C257 1.386 . S
C247 H265 0.931 . S
C248 C246 1.365 . S
C248 C249 1.409 . S
C248 H266 0.929 . S
C249 C248 1.409 . S
C249 C250 1.380 . S
C249 H267 0.930 . S
C250 C249 1.380 . S
C250 C257 1.357 . S
C251 C242 1.511 . S
C251 C252 1.341 . S
C251 C253 1.371 . S
C252 C251 1.341 . S
C252 C256 1.394 . S
C252 H268 0.930 . S
C253 C251 1.371 . S
C253 C254 1.392 . S
C253 H269 0.931 . S
C254 C253 1.392 . S
C254 C255 1.331 . S
C254 H272 0.932 . S
C255 C254 1.331 . S
C255 C256 1.336 . S
C256 C252 1.394 . S
C256 C255 1.336 . S
C256 H271 0.929 . S
C257 C247 1.386 . S
C257 C250 1.357 . S
C257 H270 0.928 . S
H258 C234 0.931 . S
H259 C236 0.930 . S
H260 C238 0.929 . S
H261 C239 0.931 . S
H262 C241 0.930 . S
H263 C245 0.931 . S
H264 C243 0.931 . S
H265 C247 0.931 . S
H266 C248 0.929 . S
H267 C249 0.930 . S
H268 C252 0.930 . S
H269 C253 0.931 . S
H270 C257 0.928 . S
H271 C256 0.929 . S
H272 C254 0.932 . S
C273 C274 1.386 1_554 S
C273 C275 1.397 . S
C273 H297 0.931 1_554 S
C274 C273 1.386 1_556 S
C274 C278 1.397 1_556 S
C275 C273 1.397 . S
C275 C276 1.384 . S
C275 H298 0.930 . S
C276 C275 1.384 . S
C276 C277 1.377 . S
C276 C279 1.481 . S
C277 C276 1.377 . S
C277 C278 1.389 . S
C277 H299 0.929 . S
C278 C274 1.397 1_554 S
C278 C277 1.389 . S
C278 H300 0.931 . S
C279 C276 1.481 . S
C279 C280 1.387 . S
C279 C284 1.390 . S
C280 C279 1.387 . S
C280 C281 1.401 . S
C280 H301 0.930 . S
C281 C280 1.401 . S
C281 C282 1.376 . S
C281 C290 1.511 . S
C282 C281 1.376 . S
C282 C283 1.392 . S
C282 H303 0.931 . S
C283 C282 1.392 . S
C283 C284 1.361 . S
C283 C285 1.500 . S
C284 C279 1.390 . S
C284 C283 1.361 . S
C284 H302 0.931 . S
C285 C283 1.500 . S
C285 C286 1.371 . S
C285 C287 1.365 . S
C286 C285 1.371 . S
C286 C296 1.386 . S
C286 H304 0.931 . S
C287 C285 1.365 . S
C287 C288 1.409 . S
C287 H305 0.929 . S
C288 C287 1.409 . S
C288 C289 1.380 . S
C288 H306 0.930 . S
C289 C288 1.380 . S
C289 C296 1.357 . S
C290 C281 1.511 . S
C290 C291 1.341 . S
C290 C292 1.371 . S
C291 C290 1.341 . S
C291 C295 1.394 . S
C291 H307 0.930 . S
C292 C290 1.371 . S
C292 C293 1.392 . S
C292 H308 0.931 . S
C293 C292 1.392 . S
C293 C294 1.331 . S
C293 H311 0.932 . S
C294 C293 1.331 . S
C294 C295 1.336 . S
C295 C291 1.394 . S
C295 C294 1.336 . S
C295 H310 0.929 . S
C296 C286 1.386 . S
C296 C289 1.357 . S
C296 H309 0.928 . S
H297 C273 0.931 1_556 S
H298 C275 0.930 . S
H299 C277 0.929 . S
H300 C278 0.931 . S
H301 C280 0.930 . S
H302 C284 0.931 . S
H303 C282 0.931 . S
H304 C286 0.931 . S
H305 C287 0.929 . S
H306 C288 0.930 . S
H307 C291 0.930 . S
H308 C292 0.931 . S
H309 C296 0.928 . S
H310 C295 0.929 . S
H311 C293 0.932 . S
Nd312 C314 2.836 1_445 S
Nd312 O332 2.500 1_445 S
Nd312 O333 2.492 1_545 S
Nd312 O334 2.487 . S
Nd312 O335 2.682 . S
Nd312 O336 2.410 1_545 S
Nd312 O341 2.414 1_455 S
Nd312 O343 2.424 . S
Nd313 C323 2.836 1_556 S
Nd313 O335 2.414 . S
Nd313 O337 2.424 1_545 S
Nd313 O338 2.500 . S
Nd313 O339 2.492 1_556 S
Nd313 O340 2.487 1_455 S
Nd313 O341 2.682 1_455 S
Nd313 O342 2.410 . S
C314 Nd312 2.836 1_665 S
C314 C315 1.498 . S
C314 O332 1.258 . S
C314 O333 1.239 1_655 S
C315 C314 1.498 . S
C315 C316 1.366 . S
C315 C320 1.407 . S
C316 C315 1.366 . S
C316 C317 1.392 . S
C316 H344 0.930 . S
C317 C316 1.392 . S
C317 C318 1.398 . S
C317 H345 0.929 . S
C318 C317 1.398 . S
C318 C319 1.352 . S
C319 C318 1.352 . S
C319 C320 1.384 . S
C319 H346 0.956 . S
C320 C315 1.407 . S
C320 C319 1.384 . S
C320 H347 0.929 1_655 S
C321 O334 1.241 . S
C321 O335 1.273 . S
C322 O336 1.251 . S
C322 O337 1.268 . S
C323 Nd313 2.836 1_554 S
C323 C324 1.498 . S
C323 O338 1.258 1_554 S
C323 O339 1.239 . S
C324 C323 1.498 . S
C324 C325 1.366 . S
C324 C329 1.407 . S
C325 C324 1.366 . S
C325 C326 1.392 . S
C325 H348 0.930 . S
C326 C325 1.392 . S
C326 C327 1.398 . S
C326 H349 0.929 . S
C327 C326 1.398 . S
C327 C328 1.352 . S
C328 C327 1.352 . S
C328 C329 1.384 . S
C328 H350 0.930 . S
C329 C324 1.407 . S
C329 C328 1.384 . S
C329 H351 0.929 . S
C330 O340 1.241 . S
C330 O341 1.273 . S
C331 O342 1.251 . S
C331 O343 1.268 . S
O332 Nd312 2.500 1_665 S
O332 C314 1.258 . S
O333 Nd312 2.492 1_565 S
O333 C314 1.239 1_455 S
O334 Nd312 2.487 . S
O334 C321 1.241 . S
O335 Nd312 2.682 . S
O335 Nd313 2.414 . S
O335 C321 1.273 . S
O336 Nd312 2.410 1_565 S
O336 C322 1.251 . S
O337 Nd313 2.424 1_565 S
O337 C322 1.268 . S
O338 Nd313 2.500 . S
O338 C323 1.258 1_556 S
O339 Nd313 2.492 1_554 S
O339 C323 1.239 . S
O340 Nd313 2.487 1_655 S
O340 C330 1.241 . S
O341 Nd312 2.414 1_655 S
O341 Nd313 2.682 1_655 S
O341 C330 1.273 . S
O342 Nd313 2.410 . S
O342 C331 1.251 . S
O343 Nd312 2.424 . S
O343 C331 1.268 . S
H344 C316 0.930 . S
H345 C317 0.929 . S
H346 C319 0.956 . S
H347 C320 0.929 1_455 S
H348 C325 0.930 . S
H349 C326 0.929 . S
H350 C328 0.930 . S
H351 C329 0.929 . S
Nd352 C354 2.836 1_545 S
Nd352 O372 2.500 1_545 S
Nd352 O373 2.492 . S
Nd352 O374 2.487 . S
Nd352 O375 2.682 . S
Nd352 O376 2.410 . S
Nd352 O381 2.414 1_545 S
Nd352 O383 2.424 . S
Nd353 C363 2.836 1_556 S
Nd353 O375 2.414 . S
Nd353 O377 2.424 . S
Nd353 O378 2.500 . S
Nd353 O379 2.492 1_556 S
Nd353 O380 2.484 1_546 S
Nd353 O381 2.682 1_545 S
Nd353 O382 2.410 . S
C354 Nd352 2.836 1_565 S
C354 C355 1.498 . S
C354 O372 1.258 . S
C354 O373 1.239 1_565 S
C355 C354 1.498 . S
C355 C356 1.366 . S
C355 C360 1.410 . S
C356 C355 1.366 . S
C356 C357 1.392 . S
C356 H384 0.930 . S
C357 C356 1.392 . S
C357 C358 1.398 . S
C357 H385 0.929 . S
C358 C357 1.398 . S
C358 C359 1.352 . S
C359 C358 1.352 . S
C359 C360 1.394 . S
C359 H386 0.930 . S
C360 C355 1.410 . S
C360 C359 1.394 . S
C360 H387 0.917 1_565 S
C361 O374 1.241 . S
C361 O375 1.273 . S
C362 O376 1.251 . S
C362 O377 1.268 . S
C363 Nd353 2.836 1_554 S
C363 C364 1.498 . S
C363 O378 1.258 1_554 S
C363 O379 1.239 . S
C364 C363 1.498 . S
C364 C365 1.366 . S
C364 C369 1.407 . S
C365 C364 1.366 . S
C365 C366 1.392 . S
C365 H388 0.930 1_554 S
C366 C365 1.392 . S
C366 C367 1.398 . S
C366 H389 0.929 . S
C367 C366 1.398 . S
C367 C368 1.352 . S
C368 C367 1.352 . S
C368 C369 1.384 . S
C368 H390 0.930 . S
C369 C364 1.407 . S
C369 C368 1.384 . S
C369 H391 0.929 . S
C370 O380 1.233 1_556 S
C370 O381 1.273 . S
C371 O382 1.251 . S
C371 O383 1.268 . S
O372 Nd352 2.500 1_565 S
O372 C354 1.258 . S
O373 Nd352 2.492 . S
O373 C354 1.239 1_545 S
O374 Nd352 2.487 . S
O374 C361 1.241 . S
O375 Nd352 2.682 . S
O375 Nd353 2.414 . S
O375 C361 1.273 . S
O376 Nd352 2.410 . S
O376 C362 1.251 . S
O377 Nd353 2.424 . S
O377 C362 1.268 . S
O378 Nd353 2.500 . S
O378 C363 1.258 1_556 S
O379 Nd353 2.492 1_554 S
O379 C363 1.239 . S
O380 Nd353 2.484 1_564 S
O380 C370 1.233 1_554 S
O381 Nd352 2.414 1_565 S
O381 Nd353 2.682 1_565 S
O381 C370 1.273 . S
O382 Nd353 2.410 . S
O382 C371 1.251 . S
O383 Nd352 2.424 . S
O383 C371 1.268 . S
H384 C356 0.930 . S
H385 C357 0.929 . S
H386 C359 0.930 . S
H387 C360 0.917 1_545 S
H388 C365 0.930 1_556 S
H389 C366 0.929 . S
H390 C368 0.930 . S
H391 C369 0.929 . S
Nd392 C394 2.836 . S
Nd392 O412 2.500 . S
Nd392 O413 2.492 . S
Nd392 O414 2.487 . S
Nd392 O415 2.682 . S
Nd392 O416 2.410 . S
Nd392 O421 2.414 . S
Nd392 O423 2.424 . S
Nd393 C403 2.836 . S
Nd393 O415 2.414 . S
Nd393 O417 2.424 . S
Nd393 O418 2.500 . S
Nd393 O419 2.492 . S
Nd393 O420 2.487 . S
Nd393 O421 2.682 . S
Nd393 O422 2.410 . S
C394 Nd392 2.836 . S
C394 C395 1.498 1_556 S
C394 O412 1.258 . S
C394 O413 1.239 . S
C395 C394 1.498 1_554 S
C395 C396 1.366 1_554 S
C395 C400 1.407 . S
C396 C395 1.366 1_556 S
C396 C397 1.392 . S
C396 H424 0.930 . S
C397 C396 1.392 . S
C397 C398 1.398 1_556 S
C397 H425 0.929 . S
C398 C397 1.398 1_554 S
C398 C399 1.352 . S
C399 C398 1.352 . S
C399 C400 1.384 . S
C399 H426 0.930 . S
C400 C395 1.407 . S
C400 C399 1.384 . S
C400 H427 0.929 . S
C401 O414 1.241 . S
C401 O415 1.273 . S
C402 O416 1.251 . S
C402 O417 1.268 . S
C403 Nd393 2.836 . S
C403 C404 1.498 . S
C403 O418 1.258 . S
C403 O419 1.239 . S
C404 C403 1.498 . S
C404 C405 1.366 . S
C404 C409 1.407 . S
C405 C404 1.366 . S
C405 C406 1.392 . S
C405 H428 0.930 . S
C406 C405 1.392 . S
C406 C407 1.398 . S
C406 H429 0.929 . S
C407 C406 1.398 . S
C407 C408 1.352 . S
C408 C407 1.352 . S
C408 C409 1.384 . S
C408 H430 0.930 . S
C409 C404 1.407 . S
C409 C408 1.384 . S
C409 H431 0.929 . S
C410 O420 1.241 . S
C410 O421 1.273 . S
C411 O422 1.251 . S
C411 O423 1.268 . S
O412 Nd392 2.500 . S
O412 C394 1.258 . S
O413 Nd392 2.492 . S
O413 C394 1.239 . S
O414 Nd392 2.487 . S
O414 C401 1.241 . S
O415 Nd392 2.682 . S
O415 Nd393 2.414 . S
O415 C401 1.273 . S
O416 Nd392 2.410 . S
O416 C402 1.251 . S
O417 Nd393 2.424 . S
O417 C402 1.268 . S
O418 Nd393 2.500 . S
O418 C403 1.258 . S
O419 Nd393 2.492 . S
O419 C403 1.239 . S
O420 Nd393 2.487 . S
O420 C410 1.241 . S
O421 Nd392 2.414 . S
O421 Nd393 2.682 . S
O421 C410 1.273 . S
O422 Nd393 2.410 . S
O422 C411 1.251 . S
O423 Nd392 2.424 . S
O423 C411 1.268 . S
H424 C396 0.930 . S
H425 C397 0.929 . S
H426 C399 0.930 . S
H427 C400 0.929 . S
H428 C405 0.930 . S
H429 C406 0.929 . S
H430 C408 0.930 . S
H431 C409 0.929 . S
Nd432 C434 2.836 1_455 S
Nd432 O452 2.500 1_455 S
Nd432 O453 2.492 1_455 S
Nd432 O454 2.487 . S
Nd432 O455 2.682 . S
Nd432 O456 2.410 1_455 S
Nd432 O461 2.414 . S
Nd432 O463 2.424 . S
Nd433 C443 2.836 1_556 S
Nd433 O455 2.414 . S
Nd433 O457 2.424 1_455 S
Nd433 O458 2.504 . S
Nd433 O459 2.492 1_556 S
Nd433 O460 2.487 . S
Nd433 O461 2.682 . S
Nd433 O462 2.410 . S
C434 Nd432 2.836 1_655 S
C434 C435 1.498 . S
C434 O452 1.258 . S
C434 O453 1.239 . S
C435 C434 1.498 . S
C435 C436 1.366 . S
C435 C440 1.407 . S
C436 C435 1.366 . S
C436 C437 1.392 . S
C436 H464 0.930 . S
C437 C436 1.392 . S
C437 C438 1.398 . S
C437 H465 0.929 . S
C438 C437 1.398 . S
C438 C439 1.352 . S
C439 C438 1.352 . S
C439 C440 1.384 . S
C439 H466 0.930 . S
C440 C435 1.407 . S
C440 C439 1.384 . S
C440 H467 0.929 . S
C441 O454 1.241 . S
C441 O455 1.273 . S
C442 O456 1.251 . S
C442 O457 1.268 . S
C443 Nd433 2.836 1_554 S
C443 C444 1.498 . S
C443 O458 1.249 1_554 S
C443 O459 1.239 . S
C444 C443 1.498 . S
C444 C445 1.366 . S
C444 C449 1.407 . S
C445 C444 1.366 . S
C445 C446 1.392 . S
C445 H468 0.930 . S
C446 C445 1.392 . S
C446 C447 1.398 . S
C446 H469 0.929 . S
C447 C446 1.398 . S
C447 C448 1.352 . S
C448 C447 1.352 . S
C448 C449 1.384 . S
C448 H470 0.930 . S
C449 C444 1.407 . S
C449 C448 1.384 . S
C449 H471 0.929 . S
C450 O460 1.241 . S
C450 O461 1.273 . S
C451 O462 1.251 . S
C451 O463 1.268 . S
O452 Nd432 2.500 1_655 S
O452 C434 1.258 . S
O453 Nd432 2.492 1_655 S
O453 C434 1.239 . S
O454 Nd432 2.487 . S
O454 C441 1.241 . S
O455 Nd432 2.682 . S
O455 Nd433 2.414 . S
O455 C441 1.273 . S
O456 Nd432 2.410 1_655 S
O456 C442 1.251 . S
O457 Nd433 2.424 1_655 S
O457 C442 1.268 . S
O458 Nd433 2.504 . S
O458 C443 1.249 1_556 S
O459 Nd433 2.492 1_554 S
O459 C443 1.239 . S
O460 Nd433 2.487 . S
O460 C450 1.241 . S
O461 Nd432 2.414 . S
O461 Nd433 2.682 . S
O461 C450 1.273 . S
O462 Nd433 2.410 . S
O462 C451 1.251 . S
O463 Nd432 2.424 . S
O463 C451 1.268 . S
H464 C436 0.930 . S
H465 C437 0.929 . S
H466 C439 0.930 . S
H467 C440 0.929 . S
H468 C445 0.930 . S
H469 C446 0.929 . S
H470 C448 0.930 . S
H471 C449 0.929 . S
C472 C473 1.387 . S
C472 H476 0.950 . S
C472 C481 1.390 . S
C473 C472 1.387 . S
C473 C475 1.387 . S
H474 C481 0.950 . S
C475 C473 1.387 . S
C475 C477 1.390 . S
C475 H479 0.950 . S
H476 C472 0.950 . S
C477 C475 1.390 . S
C477 C478 1.387 . S
C477 H480 0.950 . S
C478 C477 1.387 . S
C478 C481 1.387 . S
H479 C475 0.950 . S
H480 C477 0.950 . S
C481 C472 1.390 . S
C481 H474 0.950 . S
C481 C478 1.387 . S
C482 C483 1.387 . S
C482 H486 0.950 . S
C482 C491 1.390 . S
C483 C482 1.387 . S
C483 C485 1.387 . S
H484 C491 0.950 . S
C485 C483 1.387 . S
C485 C487 1.390 . S
C485 H489 0.950 . S
H486 C482 0.950 . S
C487 C485 1.390 . S
C487 C488 1.387 . S
C487 H490 0.950 . S
C488 C487 1.387 . S
C488 C491 1.387 . S
H489 C485 0.950 . S
H490 C487 0.950 . S
C491 C482 1.390 . S
C491 H484 0.950 . S
C491 C488 1.387 . S
C492 C493 1.387 . S
C492 H496 0.950 . S
C492 C501 1.390 . S
C493 C492 1.387 . S
C493 C495 1.387 . S
H494 C501 0.950 . S
C495 C493 1.387 . S
C495 C497 1.390 . S
C495 H499 0.950 . S
H496 C492 0.950 . S
C497 C495 1.390 . S
C497 C498 1.387 . S
C497 H500 0.950 . S
C498 C497 1.387 . S
C498 C501 1.387 . S
H499 C495 0.950 . S
H500 C497 0.950 . S
C501 C492 1.390 . S
C501 H494 0.950 . S
C501 C498 1.387 . S
C502 C503 1.387 . S
C502 H506 0.950 . S
C502 C511 1.390 . S
C503 C502 1.387 . S
C503 C505 1.387 . S
H504 C511 0.950 . S
C505 C503 1.387 . S
C505 C507 1.390 . S
C505 H509 0.950 . S
H506 C502 0.950 . S
C507 C505 1.390 . S
C507 C508 1.387 . S
C507 H510 0.950 . S
C508 C507 1.387 . S
C508 C511 1.387 . S
H509 C505 0.950 . S
H510 C507 0.950 . S
C511 C502 1.390 . S
C511 H504 0.950 . S
C511 C508 1.387 . S
C512 C513 1.387 1_545 S
C512 H516 0.950 . S
C512 C521 1.390 . S
C513 C512 1.387 1_565 S
C513 C515 1.387 . S
H514 C521 0.950 . S
C515 C513 1.387 . S
C515 C517 1.390 . S
C515 H519 0.950 . S
H516 C512 0.950 . S
C517 C515 1.390 . S
C517 C518 1.387 1_565 S
C517 H520 0.950 . S
C518 C517 1.387 1_545 S
C518 C521 1.387 . S
H519 C515 0.950 . S
H520 C517 0.950 . S
C521 C512 1.390 . S
C521 H514 0.950 . S
C521 C518 1.387 . S
C522 C523 1.387 . S
C522 H526 0.950 1_565 S
C522 C531 1.390 . S
C523 C522 1.387 . S
C523 C525 1.387 . S
H524 C531 0.950 1_545 S
C525 C523 1.387 . S
C525 C527 1.390 . S
C525 H529 0.950 . S
H526 C522 0.950 1_545 S
C527 C525 1.390 . S
C527 C528 1.387 . S
C527 H530 0.950 . S
C528 C527 1.387 . S
C528 C531 1.387 . S
H529 C525 0.950 . S
H530 C527 0.950 . S
C531 C522 1.390 . S
C531 H524 0.950 1_565 S
C531 C528 1.387 . S
C532 C533 1.387 . S
C532 H536 0.950 . S
C532 C541 1.390 . S
C533 C532 1.387 . S
C533 C535 1.387 . S
H534 C541 0.950 . S
C535 C533 1.387 . S
C535 C537 1.390 . S
C535 H539 0.950 1_556 S
H536 C532 0.950 . S
C537 C535 1.390 . S
C537 C538 1.387 . S
C537 H540 0.954 . S
C538 C537 1.387 . S
C538 C541 1.387 . S
H539 C535 0.950 1_554 S
H540 C537 0.954 . S
C541 C532 1.390 . S
C541 H534 0.950 . S
C541 C538 1.387 . S
C542 C543 1.387 . S
C542 H546 0.950 . S
C542 C551 1.390 . S
C543 C542 1.387 . S
C543 C545 1.387 . S
H544 C551 0.950 . S
C545 C543 1.387 . S
C545 C547 1.390 . S
C545 H549 0.950 1_556 S
H546 C542 0.950 . S
C547 C545 1.390 . S
C547 C548 1.387 . S
C547 H550 0.950 . S
C548 C547 1.387 . S
C548 C551 1.387 . S
H549 C545 0.950 1_554 S
H550 C547 0.950 . S
C551 C542 1.390 . S
C551 H544 0.950 . S
C551 C548 1.387 . S
C552 C553 1.387 . S
C552 H556 0.950 . S
C552 C561 1.390 . S
C553 C552 1.387 . S
C553 C555 1.387 . S
H554 C561 0.950 . S
C555 C553 1.387 . S
C555 C557 1.390 . S
C555 H559 0.950 . S
H556 C552 0.950 . S
C557 C555 1.390 . S
C557 C558 1.387 . S
C557 H560 0.950 . S
C558 C557 1.387 . S
C558 C561 1.387 . S
H559 C555 0.950 . S
H560 C557 0.950 . S
C561 C552 1.390 . S
C561 H554 0.950 . S
C561 C558 1.387 . S
C562 C563 1.387 . S
C562 H566 0.950 1_556 S
C562 C571 1.390 . S
C563 C562 1.387 . S
C563 C565 1.387 . S
H564 C571 0.950 . S
C565 C563 1.387 . S
C565 C567 1.390 . S
C565 H569 0.950 . S
H566 C562 0.950 1_554 S
C567 C565 1.390 . S
C567 C568 1.387 . S
C567 H570 0.950 . S
C568 C567 1.387 . S
C568 C571 1.387 . S
H569 C565 0.950 . S
H570 C567 0.950 . S
C571 C562 1.390 . S
C571 H564 0.950 . S
C571 C568 1.387 . S
C572 C573 1.387 . S
C572 H576 0.950 . S
C572 C581 1.390 . S
C573 C572 1.387 . S
C573 C575 1.387 . S
H574 C581 0.950 . S
C575 C573 1.387 . S
C575 C577 1.390 . S
C575 H579 0.950 . S
H576 C572 0.950 . S
C577 C575 1.390 . S
C577 C578 1.387 . S
C577 H580 0.950 . S
C578 C577 1.387 . S
C578 C581 1.387 . S
H579 C575 0.950 . S
H580 C577 0.950 . S
C581 C572 1.390 . S
C581 H574 0.950 . S
C581 C578 1.387 . S
C582 C583 1.387 . S
C582 H586 0.950 . S
C582 C591 1.390 . S
C583 C582 1.387 . S
C583 C585 1.387 . S
H584 C591 0.950 . S
C585 C583 1.387 . S
C585 C587 1.390 . S
C585 H589 0.950 . S
H586 C582 0.950 . S
C587 C585 1.390 . S
C587 C588 1.387 . S
C587 H590 0.950 . S
C588 C587 1.387 . S
C588 C591 1.387 . S
H589 C585 0.950 . S
H590 C587 0.950 . S
C591 C582 1.390 . S
C591 H584 0.950 . S
C591 C588 1.387 . S
C592 C593 1.387 . S
C592 H596 0.950 . S
C592 C601 1.390 . S
C593 C592 1.387 . S
C593 C595 1.387 . S
H594 C601 0.950 . S
C595 C593 1.387 . S
C595 C597 1.390 . S
C595 H599 0.950 . S
H596 C592 0.950 . S
C597 C595 1.390 . S
C597 C598 1.387 . S
C597 H600 0.950 . S
C598 C597 1.387 . S
C598 C601 1.387 . S
H599 C595 0.950 . S
H600 C597 0.950 . S
C601 C592 1.390 . S
C601 H594 0.950 . S
C601 C598 1.387 . S
C602 C603 1.387 1_545 S
C602 H606 0.950 . S
C602 C611 1.390 . S
C603 C602 1.387 1_565 S
C603 C605 1.387 . S
H604 C611 0.950 . S
C605 C603 1.387 . S
C605 C607 1.390 1_565 S
C605 H609 0.950 . S
H606 C602 0.950 . S
C607 C605 1.390 1_545 S
C607 C608 1.387 . S
C607 H610 0.950 . S
C608 C607 1.387 . S
C608 C611 1.387 . S
H609 C605 0.950 . S
H610 C607 0.950 . S
C611 C602 1.390 . S
C611 H604 0.950 . S
C611 C608 1.387 . S
C612 C613 1.387 . S
C612 H616 0.950 . S
C612 C621 1.390 . S
C613 C612 1.387 . S
C613 C615 1.387 . S
H614 C621 0.950 . S
C615 C613 1.387 . S
C615 C617 1.390 . S
C615 H619 0.950 . S
H616 C612 0.950 . S
C617 C615 1.390 . S
C617 C618 1.387 . S
C617 H620 0.950 1_554 S
C618 C617 1.387 . S
C618 C621 1.387 . S
H619 C615 0.950 . S
H620 C617 0.950 1_556 S
C621 C612 1.390 . S
C621 H614 0.950 . S
C621 C618 1.387 . S
C622 C623 1.387 . S
C622 H626 0.950 . S
C622 C631 1.390 . S
C623 C622 1.387 . S
C623 C625 1.387 . S
H624 C631 0.950 . S
C625 C623 1.387 . S
C625 C627 1.390 . S
C625 H629 0.950 . S
H626 C622 0.950 . S
C627 C625 1.390 . S
C627 C628 1.387 . S
C627 H630 0.950 . S
C628 C627 1.387 . S
C628 C631 1.387 . S
H629 C625 0.950 . S
H630 C627 0.950 . S
C631 C622 1.390 . S
C631 H624 0.950 . S
C631 C628 1.387 . S
C632 C633 1.387 . S
C632 H636 0.950 . S
C632 C641 1.390 . S
C633 C632 1.387 . S
C633 C635 1.387 . S
H634 C641 0.950 . S
C635 C633 1.387 . S
C635 C637 1.390 . S
C635 H639 0.950 . S
H636 C632 0.950 . S
C637 C635 1.390 . S
C637 C638 1.387 . S
C637 H640 0.950 . S
C638 C637 1.387 . S
C638 C641 1.387 . S
H639 C635 0.950 . S
H640 C637 0.950 . S
C641 C632 1.390 . S
C641 H634 0.950 . S
C641 C638 1.387 . S
C642 C643 1.387 . S
C642 H646 0.950 . S
C642 C651 1.390 . S
C643 C642 1.387 . S
C643 C645 1.387 . S
H644 C651 0.950 . S
C645 C643 1.387 . S
C645 C647 1.390 . S
C645 H649 0.950 . S
H646 C642 0.950 . S
C647 C645 1.390 . S
C647 C648 1.387 . S
C647 H650 0.950 . S
C648 C647 1.387 . S
C648 C651 1.387 . S
H649 C645 0.950 . S
H650 C647 0.950 . S
C651 C642 1.390 . S
C651 H644 0.950 . S
C651 C648 1.387 . S
C652 C653 1.387 1_554 S
C652 H656 0.950 . S
C652 C661 1.390 . S
C653 C652 1.387 1_556 S
C653 C655 1.387 . S
H654 C661 0.950 . S
C655 C653 1.387 . S
C655 C657 1.390 . S
C655 H659 0.950 . S
H656 C652 0.950 . S
C657 C655 1.390 . S
C657 C658 1.387 . S
C657 H660 0.950 . S
C658 C657 1.387 . S
C658 C661 1.387 1_556 S
H659 C655 0.950 . S
H660 C657 0.950 . S
C661 C652 1.390 . S
C661 H654 0.950 . S
C661 C658 1.387 1_554 S
C662 C663 1.387 . S
C662 H666 0.950 . S
C662 C671 1.390 . S
C663 C662 1.387 . S
C663 C665 1.387 . S
H664 C671 0.950 . S
C665 C663 1.387 . S
C665 C667 1.390 . S
C665 H669 0.950 . S
H666 C662 0.950 . S
C667 C665 1.390 . S
C667 C668 1.387 . S
C667 H670 0.950 . S
C668 C667 1.387 . S
C668 C671 1.387 . S
H669 C665 0.950 . S
H670 C667 0.950 . S
C671 C662 1.390 . S
C671 H664 0.950 . S
C671 C668 1.387 . S
C672 C673 1.387 . S
C672 H676 0.950 . S
C672 C681 1.390 . S
C673 C672 1.387 . S
C673 C675 1.387 . S
H674 C681 0.950 . S
C675 C673 1.387 . S
C675 C677 1.390 . S
C675 H679 0.950 . S
H676 C672 0.950 . S
C677 C675 1.390 . S
C677 C678 1.387 . S
C677 H680 0.950 . S
C678 C677 1.387 . S
C678 C681 1.387 . S
H679 C675 0.950 . S
H680 C677 0.950 . S
C681 C672 1.390 . S
C681 H674 0.950 . S
C681 C678 1.387 . S
C682 C683 1.387 1_545 S
C682 H686 0.950 . S
C682 C691 1.390 1_545 S
C683 C682 1.387 1_565 S
C683 C685 1.387 . S
H684 C691 0.950 1_545 S
C685 C683 1.387 . S
C685 C687 1.390 . S
C685 H689 0.950 . S
H686 C682 0.950 . S
C687 C685 1.390 . S
C687 C688 1.387 . S
C687 H690 0.950 . S
C688 C687 1.387 . S
C688 C691 1.387 . S
H689 C685 0.950 . S
H690 C687 0.950 . S
C691 C682 1.390 1_565 S
C691 H684 0.950 1_565 S
C691 C688 1.387 . S
C692 C693 1.387 . S
C692 H696 0.950 . S
C692 C701 1.390 . S
C693 C692 1.387 . S
C693 C695 1.387 . S
H694 C701 0.950 . S
C695 C693 1.387 . S
C695 C697 1.390 . S
C695 H699 0.950 . S
H696 C692 0.950 . S
C697 C695 1.390 . S
C697 C698 1.387 . S
C697 H700 0.950 . S
C698 C697 1.387 . S
C698 C701 1.387 . S
H699 C695 0.950 . S
H700 C697 0.950 . S
C701 C692 1.390 . S
C701 H694 0.950 . S
C701 C698 1.387 . S
C702 C703 1.387 . S
C702 H706 0.950 . S
C702 C711 1.390 . S
C703 C702 1.387 . S
C703 C705 1.387 . S
H704 C711 0.950 . S
C705 C703 1.387 . S
C705 C707 1.390 . S
C705 H709 0.950 . S
H706 C702 0.950 . S
C707 C705 1.390 . S
C707 C708 1.387 . S
C707 H710 0.950 . S
C708 C707 1.387 . S
C708 C711 1.387 . S
H709 C705 0.950 . S
H710 C707 0.950 . S
C711 C702 1.390 . S
C711 H704 0.950 . S
C711 C708 1.387 . S
C473 C255 1.355 . S
C478 C321 1.343 . S
C488 C361 2.247 . S
C483 C294 2.303 . S
C498 C410 1.562 . S
C493 C177 1.538 . S
C508 C441 2.086 . S
C503 C216 2.085 . S
C518 C330 1.340 . S
C513 C99 1.368 . S
C523 C138 2.276 . S
C528 C370 2.248 1_554 S
C533 C21 1.511 . S
C538 C401 1.560 . S
C543 C60 2.117 1_556 S
C548 C450 2.085 1_655 S
C558 C331 1.939 . S
C553 C196 1.544 . S
C568 C371 1.823 . S
C563 C235 1.526 . S
C578 C407 0.842 . S
C573 C289 0.834 . S
C583 C157 1.614 . S
C588 C451 1.913 . S
C593 C40 1.562 . S
C598 C322 1.939 1_655 S
C608 C362 1.820 . S
C603 C79 1.535 . S
C618 C398 0.848 . S
C613 C133 0.842 . S
C623 C1 1.606 . S
C628 C442 1.914 . S
C633 C211 2.029 . S
C638 C327 2.180 . S
C643 C250 1.749 . S
C648 C367 1.775 . S
C658 C411 3.164 . S
C653 C274 2.755 . S
C668 C447 1.797 . S
C663 C172 1.719 . S
C673 C55 2.023 . S
C678 C318 2.180 . S
C688 C358 1.775 . S
C683 C94 1.749 . S
C698 C402 3.164 . S
C693 C118 2.747 . S
C703 C16 1.725 . S
C708 C438 1.799 . S
