# Generated by pormake.
# Topology wbl, (4,4)-cn, num edge types: 1
# Building blocks:
#     Node 0, Type 0, BuildingBlock: MUDLON_clean_linker_0, # of connection points: 4
#     Node 1, Type 0, BuildingBlock: MUDLON_clean_linker_0, # of connection points: 4
#     Node 2, Type 0, BuildingBlock: MUDLON_clean_linker_0, # of connection points: 4
#     Node 3, Type 0, BuildingBlock: MUDLON_clean_linker_0, # of connection points: 4
#     Node 4, Type 0, BuildingBlock: MUDLON_clean_linker_0, # of connection points: 4
#     Node 5, Type 0, BuildingBlock: MUDLON_clean_linker_0, # of connection points: 4
#     Node 6, Type 0, BuildingBlock: MUDLON_clean_linker_0, # of connection points: 4
#     Node 7, Type 0, BuildingBlock: MUDLON_clean_linker_0, # of connection points: 4
#     Node 8, Type 1, BuildingBlock: QUQFOY_clean_sbu_1, # of connection points: 4
#     Node 9, Type 1, BuildingBlock: QUQFOY_clean_sbu_1, # of connection points: 4
#     Node 10, Type 1, BuildingBlock: QUQFOY_clean_sbu_1, # of connection points: 4
#     Node 11, Type 1, BuildingBlock: QUQFOY_clean_sbu_1, # of connection points: 4
#     Node 12, Type 1, BuildingBlock: QUQFOY_clean_sbu_1, # of connection points: 4
#     Node 13, Type 1, BuildingBlock: QUQFOY_clean_sbu_1, # of connection points: 4
#     Node 14, Type 1, BuildingBlock: QUQFOY_clean_sbu_1, # of connection points: 4
#     Node 15, Type 1, BuildingBlock: QUQFOY_clean_sbu_1, # of connection points: 4
#     Edge 16, Type (0, 1), BuildingBlock: XUDNAN_clean_linker_2, # of connection points: 2
#     Edge 17, Type (0, 1), BuildingBlock: XUDNAN_clean_linker_2, # of connection points: 2
#     Edge 18, Type (0, 1), BuildingBlock: XUDNAN_clean_linker_2, # of connection points: 2
#     Edge 19, Type (0, 1), BuildingBlock: XUDNAN_clean_linker_2, # of connection points: 2
#     Edge 20, Type (0, 1), BuildingBlock: XUDNAN_clean_linker_2, # of connection points: 2
#     Edge 21, Type (0, 1), BuildingBlock: XUDNAN_clean_linker_2, # of connection points: 2
#     Edge 22, Type (0, 1), BuildingBlock: XUDNAN_clean_linker_2, # of connection points: 2
#     Edge 23, Type (0, 1), BuildingBlock: XUDNAN_clean_linker_2, # of connection points: 2
#     Edge 24, Type (0, 1), BuildingBlock: XUDNAN_clean_linker_2, # of connection points: 2
#     Edge 25, Type (0, 1), BuildingBlock: XUDNAN_clean_linker_2, # of connection points: 2
#     Edge 26, Type (0, 1), BuildingBlock: XUDNAN_clean_linker_2, # of connection points: 2
#     Edge 27, Type (0, 1), BuildingBlock: XUDNAN_clean_linker_2, # of connection points: 2
#     Edge 28, Type (0, 1), BuildingBlock: XUDNAN_clean_linker_2, # of connection points: 2
#     Edge 29, Type (0, 1), BuildingBlock: XUDNAN_clean_linker_2, # of connection points: 2
#     Edge 30, Type (0, 1), BuildingBlock: XUDNAN_clean_linker_2, # of connection points: 2
#     Edge 31, Type (0, 1), BuildingBlock: XUDNAN_clean_linker_2, # of connection points: 2
#     Edge 32, Type (0, 1), BuildingBlock: XUDNAN_clean_linker_2, # of connection points: 2
#     Edge 33, Type (0, 1), BuildingBlock: XUDNAN_clean_linker_2, # of connection points: 2
#     Edge 34, Type (0, 1), BuildingBlock: XUDNAN_clean_linker_2, # of connection points: 2
#     Edge 35, Type (0, 1), BuildingBlock: XUDNAN_clean_linker_2, # of connection points: 2
#     Edge 36, Type (0, 1), BuildingBlock: XUDNAN_clean_linker_2, # of connection points: 2
#     Edge 37, Type (0, 1), BuildingBlock: XUDNAN_clean_linker_2, # of connection points: 2
#     Edge 38, Type (0, 1), BuildingBlock: XUDNAN_clean_linker_2, # of connection points: 2
#     Edge 39, Type (0, 1), BuildingBlock: XUDNAN_clean_linker_2, # of connection points: 2
#     Edge 40, Type (0, 1), BuildingBlock: XUDNAN_clean_linker_2, # of connection points: 2
#     Edge 41, Type (0, 1), BuildingBlock: XUDNAN_clean_linker_2, # of connection points: 2
#     Edge 42, Type (0, 1), BuildingBlock: XUDNAN_clean_linker_2, # of connection points: 2
#     Edge 43, Type (0, 1), BuildingBlock: XUDNAN_clean_linker_2, # of connection points: 2
#     Edge 44, Type (0, 1), BuildingBlock: XUDNAN_clean_linker_2, # of connection points: 2
#     Edge 45, Type (0, 1), BuildingBlock: XUDNAN_clean_linker_2, # of connection points: 2
#     Edge 46, Type (0, 1), BuildingBlock: XUDNAN_clean_linker_2, # of connection points: 2
#     Edge 47, Type (0, 1), BuildingBlock: XUDNAN_clean_linker_2, # of connection points: 2
# Relax obj value: 0.142
# Max RMSD: 0.210
# Mean RMSD: 0.162
data_MOF--net-wbl--node1-QUQFOY_clean_sbu_1--node2-MUDLON_clean_linker_0--edge1-XUDNAN_clean_linker_2
_symmetry_space_group_name_H-M    P1
_symmetry_Int_Tables_number       1
_symmetry_cell_setting            triclinic
loop_
_symmetry_equiv_pos_as_xyz
'x, y, z'
_cell_length_a     53.564191
_cell_length_b     53.570517
_cell_length_c     78.916241
_cell_angle_alpha  93.466089
_cell_angle_beta   93.498258
_cell_angle_gamma 90.205346
loop_
_atom_site_label
_atom_site_type_symbol
_atom_site_fract_x
_atom_site_fract_y
_atom_site_fract_z
_atom_type_partial_charge
H0 H 0.20835 0.00748 0.35055 0.0
N1 N 0.16863 0.98317 0.33336 0.0
H2 H 0.2206 0.0059 0.38092 0.0
H3 H 0.14686 0.95712 0.35609 0.0
H4 H 0.15957 0.95474 0.38639 0.0
H5 H 0.18934 0.93841 0.33088 0.0
H6 H 0.22415 0.92496 0.31453 0.0
H7 H 0.19178 0.01098 0.31008 0.0
H8 H 0.22509 0.99695 0.29239 0.0
H9 H 0.17852 0.03353 0.33815 0.0
H10 H 0.12221 0.97937 0.3195 0.0
H11 H 0.14842 0.06707 0.335 0.0
H12 H 0.09201 0.01306 0.31555 0.0
H13 H 0.04071 0.17212 0.33556 0.0
H14 H 0.03405 0.1941 0.3629 0.0
H15 H 0.05028 0.12609 0.38816 0.0
H16 H 0.05536 0.10406 0.36091 0.0
H17 H 0.00831 0.10151 0.34467 0.0
H18 H 0.96441 0.1006 0.33478 0.0
H19 H 0.98275 0.13679 0.28965 0.0
H20 H 0.02709 0.13754 0.29968 0.0
H21 H 0.09272 0.12529 0.31857 0.0
H22 H 0.12316 0.09139 0.31633 0.0
H23 H 0.06898 0.04029 0.33371 0.0
N24 N 0.04676 0.1233 0.32936 0.0
H25 H 0.0388 0.07371 0.33541 0.0
C26 C 0.17636 0.98272 0.35118 0.0
C27 C 0.19734 0.99631 0.35835 0.0
C28 C 0.20441 0.99527 0.37564 0.0
C29 C 0.19099 0.98021 0.38594 0.0
C30 C 0.17028 0.96638 0.37868 0.0
C31 C 0.16294 0.9678 0.36148 0.0
C32 C 0.18784 0.97571 0.32198 0.0
C33 C 0.19706 0.95129 0.32248 0.0
C34 C 0.21689 0.94352 0.31285 0.0
C35 C 0.22766 0.95971 0.30187 0.0
C36 C 0.21779 0.98399 0.30089 0.0
C37 C 0.19836 0.99204 0.31098 0.0
C38 C 0.1525 0.00377 0.32924 0.0
C39 C 0.15976 0.02884 0.33314 0.0
C40 C 0.1425 0.04812 0.33115 0.0
C41 C 0.11764 0.04282 0.32516 0.0
C42 C 0.11084 0.01782 0.3205 0.0
C43 C 0.12809 0.99855 0.32258 0.0
C44 C 0.04844 0.13644 0.34597 0.0
C45 C 0.04335 0.16214 0.34706 0.0
C46 C 0.03962 0.17469 0.36275 0.0
C47 C 0.04123 0.1618 0.37778 0.0
C48 C 0.04823 0.13648 0.37682 0.0
C49 C 0.05149 0.12385 0.36111 0.0
C50 C 0.02118 0.11934 0.32276 0.0
C51 C 0.00312 0.10863 0.33242 0.0
C52 C 0.97792 0.10818 0.32676 0.0
C53 C 0.9701 0.11865 0.31143 0.0
C54 C 0.9882 0.12876 0.30158 0.0
C55 C 0.01351 0.129 0.30719 0.0
C56 C 0.06341 0.10229 0.32709 0.0
C57 C 0.08738 0.10666 0.32166 0.0
C58 C 0.10478 0.08729 0.3205 0.0
C59 C 0.09859 0.06305 0.32487 0.0
C60 C 0.07433 0.05856 0.32995 0.0
C61 C 0.05694 0.07788 0.33101 0.0
H62 H 0.98378 0.52868 0.60144 0.0
N63 N 0.96433 0.53588 0.56911 0.0
H64 H 0.96018 0.52191 0.62599 0.0
H65 H 0.91552 0.54254 0.57183 0.0
H66 H 0.89154 0.53733 0.59682 0.0
H67 H 0.98436 0.49303 0.58177 0.0
H68 H 0.98046 0.45105 0.56828 0.0
H69 H 0.94843 0.52317 0.53711 0.0
H70 H 0.94496 0.48077 0.52333 0.0
H71 H 0.01343 0.52606 0.57883 0.0
H72 H 0.96377 0.58295 0.56053 0.0
H73 H 0.04796 0.55602 0.58151 0.0
H74 H 0.99849 0.61302 0.56266 0.0
H75 H 0.13287 0.63598 0.61416 0.0
H76 H 0.13987 0.65348 0.64356 0.0
H77 H 0.09041 0.7145 0.63206 0.0
H78 H 0.08395 0.69735 0.60289 0.0
H79 H 0.07724 0.68677 0.56889 0.0
H80 H 0.09048 0.72485 0.5567 0.0
H81 H 0.16723 0.70973 0.57283 0.0
H82 H 0.15387 0.67095 0.58428 0.0
H83 H 0.11007 0.61106 0.57352 0.0
H84 H 0.07584 0.58098 0.56646 0.0
H85 H 0.02321 0.63573 0.58476 0.0
N86 N 0.1074 0.65661 0.58857 0.0
H87 H 0.05712 0.6656 0.59123 0.0
C88 C 0.95137 0.53589 0.58464 0.0
C89 C 0.96371 0.53087 0.60029 0.0
C90 C 0.95008 0.52719 0.61448 0.0
C91 C 0.92379 0.52887 0.61348 0.0
C92 C 0.91167 0.53532 0.59803 0.0
C93 C 0.92533 0.53861 0.58377 0.0
C94 C 0.96639 0.51144 0.5605 0.0
C95 C 0.97603 0.49081 0.56895 0.0
C96 C 0.97374 0.46669 0.56125 0.0
C97 C 0.96216 0.46267 0.54486 0.0
C98 C 0.95401 0.48338 0.53598 0.0
C99 C 0.956 0.50754 0.5438 0.0
C100 C 0.98583 0.5523 0.56951 0.0
C101 C 0.00995 0.54489 0.57515 0.0
C102 C 0.02982 0.56209 0.57657 0.0
C103 C 0.02606 0.58703 0.57236 0.0
C104 C 0.00204 0.59411 0.56627 0.0
C105 C 0.9822 0.57694 0.56492 0.0
C106 C 0.10804 0.66529 0.60629 0.0
C107 C 0.12319 0.65284 0.61814 0.0
C108 C 0.12708 0.66281 0.6349 0.0
C109 C 0.11587 0.6855 0.64004 0.0
C110 C 0.09956 0.69718 0.6284 0.0
C111 C 0.0957 0.68723 0.61171 0.0
C112 C 0.11461 0.67581 0.57764 0.0
C113 C 0.09699 0.69107 0.56936 0.0
C114 C 0.10461 0.71319 0.56254 0.0
C115 C 0.12991 0.72081 0.56409 0.0
C116 C 0.14763 0.70456 0.57125 0.0
C117 C 0.14003 0.6823 0.57783 0.0
C118 C 0.08638 0.64058 0.58291 0.0
C119 C 0.09106 0.61663 0.57571 0.0
C120 C 0.0715 0.59941 0.57185 0.0
C121 C 0.04673 0.60584 0.57514 0.0
C122 C 0.04197 0.63017 0.58186 0.0
C123 C 0.06151 0.64734 0.58569 0.0
H124 H 0.62111 0.4797 0.84845 0.0
N125 N 0.58204 0.46508 0.82583 0.0
H126 H 0.63021 0.46446 0.87654 0.0
H127 H 0.55482 0.43343 0.8419 0.0
H128 H 0.56361 0.41825 0.87036 0.0
H129 H 0.58258 0.42473 0.80476 0.0
H130 H 0.61663 0.41014 0.78755 0.0
H131 H 0.62428 0.49187 0.82054 0.0
H132 H 0.65923 0.4768 0.8043 0.0
H133 H 0.59301 0.51179 0.84075 0.0
H134 H 0.54062 0.47023 0.8062 0.0
H135 H 0.56628 0.5483 0.83975 0.0
H136 H 0.51426 0.50725 0.80423 0.0
H137 H 0.47684 0.65483 0.85457 0.0
H138 H 0.46962 0.66174 0.88489 0.0
H139 H 0.45544 0.58276 0.88771 0.0
H140 H 0.46223 0.57602 0.85753 0.0
H141 H 0.4275 0.58547 0.83594 0.0
H142 H 0.38623 0.59958 0.82732 0.0
H143 H 0.41824 0.66742 0.81057 0.0
H144 H 0.46004 0.65153 0.81751 0.0
H145 H 0.51969 0.61554 0.83089 0.0
H146 H 0.54862 0.58132 0.82504 0.0
H147 H 0.48652 0.5291 0.82121 0.0
N148 N 0.47123 0.61239 0.83549 0.0
H149 H 0.45803 0.56312 0.82604 0.0
C150 C 0.58719 0.45765 0.84297 0.0
C151 C 0.6083 0.46647 0.85309 0.0
C152 C 0.61344 0.45781 0.86928 0.0
C153 C 0.59765 0.44011 0.87574 0.0
C154 C 0.57631 0.43166 0.86571 0.0
C155 C 0.57117 0.4404 0.84951 0.0
C156 C 0.60107 0.45906 0.81414 0.0
C157 C 0.59909 0.43637 0.80439 0.0
C158 C 0.61871 0.42799 0.79472 0.0
C159 C 0.64103 0.44197 0.79482 0.0
C160 C 0.64238 0.4655 0.80385 0.0
C161 C 0.62249 0.47406 0.81333 0.0
C162 C 0.5685 0.48802 0.82381 0.0
C163 C 0.57593 0.51059 0.83271 0.0
C164 C 0.56064 0.53168 0.83195 0.0
C165 C 0.53781 0.5308 0.82204 0.0
C166 C 0.53131 0.50855 0.81234 0.0
C167 C 0.54644 0.48741 0.81331 0.0
C168 C 0.47039 0.61498 0.85376 0.0
C169 C 0.47262 0.63899 0.86183 0.0
C170 C 0.4683 0.64291 0.87906 0.0
C171 C 0.46191 0.62277 0.88858 0.0
C172 C 0.46056 0.59856 0.88068 0.0
C173 C 0.46453 0.5947 0.86339 0.0
C174 C 0.44727 0.61704 0.82687 0.0
C175 C 0.426 0.60254 0.82935 0.0
C176 C 0.40208 0.61117 0.82492 0.0
C177 C 0.39862 0.63508 0.81869 0.0
C178 C 0.41995 0.64887 0.81522 0.0
C179 C 0.44397 0.6398 0.81916 0.0
C180 C 0.48661 0.59223 0.82906 0.0
C181 C 0.51232 0.59675 0.82832 0.0
C182 C 0.52886 0.57708 0.82519 0.0
C183 C 0.52007 0.55225 0.8229 0.0
C184 C 0.49411 0.54791 0.82273 0.0
C185 C 0.47758 0.56762 0.82566 0.0
H186 H 0.53757 0.93995 0.11547 0.0
N187 N 0.5084 0.97716 0.1025 0.0
H188 H 0.53971 0.92737 0.14465 0.0
H189 H 0.48606 0.99857 0.12872 0.0
H190 H 0.48781 0.98571 0.15812 0.0
H191 H 0.45988 0.97249 0.09435 0.0
H192 H 0.43824 0.93787 0.07787 0.0
H193 H 0.53087 0.93834 0.08507 0.0
H194 H 0.50946 0.90373 0.06852 0.0
H195 H 0.55871 0.96781 0.10069 0.0
H196 H 0.50098 0.02135 0.08973 0.0
H197 H 0.58994 0.99588 0.0911 0.0
H198 H 0.53221 0.04953 0.07962 0.0
H199 H 0.63301 0.13706 0.08815 0.0
H200 H 0.65023 0.15517 0.1154 0.0
H201 H 0.69401 0.08871 0.12259 0.0
H202 H 0.67681 0.07058 0.09493 0.0
H203 H 0.60778 0.12257 0.0606 0.0
H204 H 0.61385 0.15557 0.04135 0.0
H205 H 0.68928 0.13015 0.0347 0.0
H206 H 0.68324 0.09746 0.05444 0.0
H207 H 0.63934 0.04367 0.06187 0.0
H208 H 0.60513 0.0149 0.06663 0.0
H209 H 0.56623 0.0756 0.09195 0.0
N210 N 0.64442 0.09128 0.07307 0.0
H211 H 0.60002 0.1041 0.08681 0.0
C212 C 0.51188 0.97056 0.11992 0.0
C213 C 0.52712 0.95052 0.12469 0.0
C214 C 0.52828 0.94325 0.14143 0.0
C215 C 0.51395 0.95558 0.15366 0.0
C216 C 0.49896 0.97579 0.14893 0.0
C217 C 0.49806 0.98325 0.13222 0.0
C218 C 0.49687 0.95805 0.09097 0.0
C219 C 0.47078 0.95773 0.08847 0.0
C220 C 0.45849 0.93797 0.07903 0.0
C221 C 0.47215 0.918 0.07193 0.0
C222 C 0.49842 0.9187 0.07401 0.0
C223 C 0.5107 0.93858 0.08341 0.0
C224 C 0.52737 0.99259 0.09609 0.0
C225 C 0.55262 0.98548 0.09608 0.0
C226 C 0.57054 0.00156 0.09042 0.0
C227 C 0.56363 0.02503 0.0846 0.0
C228 C 0.53825 0.03176 0.08423 0.0
C229 C 0.52037 0.01568 0.08992 0.0
C230 C 0.65398 0.10248 0.0893 0.0
C231 C 0.64643 0.12634 0.09541 0.0
C232 C 0.65628 0.13673 0.11105 0.0
C233 C 0.67358 0.12341 0.12103 0.0
C234 C 0.68064 0.09933 0.11515 0.0
C235 C 0.67098 0.08904 0.09938 0.0
C236 C 0.64521 0.1075 0.05912 0.0
C237 C 0.62543 0.1236 0.05475 0.0
C238 C 0.62892 0.14254 0.04363 0.0
C239 C 0.65218 0.14574 0.03663 0.0
C240 C 0.67128 0.12851 0.0401 0.0
C241 C 0.6678 0.10967 0.05124 0.0
C242 C 0.62234 0.07598 0.07392 0.0
C243 C 0.62314 0.05079 0.06811 0.0
C244 C 0.60371 0.03437 0.07101 0.0
C245 C 0.58302 0.04288 0.07983 0.0
C246 C 0.58172 0.06843 0.08497 0.0
C247 C 0.60115 0.08481 0.08206 0.0
H248 H 0.11468 0.64338 0.94903 0.0
N249 N 0.0775 0.65689 0.96995 0.0
H250 H 0.12258 0.66089 0.92199 0.0
H251 H 0.05072 0.69122 0.95409 0.0
H252 H 0.05851 0.70898 0.92693 0.0
H253 H 0.09573 0.69945 0.98476 0.0
H254 H 0.1358 0.70632 0.00104 0.0
H255 H 0.10903 0.61983 0.98253 0.0
H256 H 0.14862 0.62675 0.99841 0.0
H257 H 0.08926 0.61026 0.95644 0.0
H258 H 0.03137 0.65273 0.98013 0.0
H259 H 0.06319 0.57335 0.95447 0.0
H260 H 0.00338 0.61661 0.97611 0.0
H261 H 0.95357 0.46536 0.93068 0.0
H262 H 0.93431 0.4615 0.90197 0.0
H263 H 0.93201 0.54229 0.90125 0.0
H264 H 0.94852 0.54562 0.93068 0.0
H265 H 0.91648 0.52407 0.9546 0.0
H266 H 0.88427 0.5019 0.9684 0.0
H267 H 0.94016 0.45065 0.98724 0.0
H268 H 0.97178 0.47198 0.97225 0.0
H269 H 0.00522 0.51705 0.93509 0.0
H270 H 0.03241 0.55306 0.94008 0.0
H271 H 0.98896 0.57909 0.98215 0.0
N272 N 0.96371 0.50689 0.95003 0.0
H273 H 0.96002 0.54439 0.97554 0.0
C274 C 0.08194 0.66594 0.95353 0.0
C275 C 0.10208 0.65737 0.94418 0.0
C276 C 0.10657 0.66742 0.92871 0.0
C277 C 0.09115 0.68632 0.92231 0.0
C278 C 0.07086 0.69462 0.9316 0.0
C279 C 0.06629 0.68443 0.94703 0.0
C280 C 0.0991 0.65927 0.98199 0.0
C281 C 0.10695 0.68343 0.98798 0.0
C282 C 0.12991 0.68735 0.99718 0.0
C283 C 0.14547 0.66708 0.00083 0.0
C284 C 0.13701 0.64275 0.99583 0.0
C285 C 0.11417 0.63884 0.98647 0.0
C286 C 0.06264 0.63421 0.96904 0.0
C287 C 0.07087 0.61166 0.96131 0.0
C288 C 0.05545 0.59049 0.9598 0.0
C289 C 0.03066 0.59157 0.96489 0.0
C290 C 0.02237 0.61443 0.97237 0.0
C291 C 0.0383 0.63532 0.97458 0.0
C292 C 0.95303 0.50566 0.93272 0.0
C293 C 0.94879 0.48217 0.92427 0.0
C294 C 0.938 0.48009 0.90771 0.0
C295 C 0.93193 0.50158 0.89889 0.0
C296 C 0.93605 0.52521 0.9075 0.0
C297 C 0.94597 0.52722 0.92433 0.0
C298 C 0.94642 0.49922 0.96209 0.0
C299 C 0.92183 0.50838 0.96201 0.0
C300 C 0.90341 0.49566 0.97 0.0
C301 C 0.90937 0.47391 0.97856 0.0
C302 C 0.93463 0.4667 0.98024 0.0
C303 C 0.95287 0.4791 0.97194 0.0
C304 C 0.98041 0.52785 0.95474 0.0
C305 C 0.00151 0.53062 0.94535 0.0
C306 C 0.01738 0.55126 0.94847 0.0
C307 C 0.01342 0.56936 0.96173 0.0
C308 C 0.99261 0.56611 0.97158 0.0
C309 C 0.97605 0.54587 0.96795 0.0
H310 H 0.6312 0.41229 0.20069 0.0
N311 N 0.64757 0.45757 0.21548 0.0
H312 H 0.63784 0.39577 0.17197 0.0
H313 H 0.67038 0.48012 0.19146 0.0
H314 H 0.67766 0.46335 0.16255 0.0
H315 H 0.69411 0.45474 0.22869 0.0
H316 H 0.71156 0.42327 0.24722 0.0
H317 H 0.62059 0.42266 0.23123 0.0
H318 H 0.63784 0.39104 0.24933 0.0
H319 H 0.59923 0.44114 0.20778 0.0
H320 H 0.64382 0.50433 0.22829 0.0
H321 H 0.56161 0.46621 0.20917 0.0
H322 H 0.606 0.52989 0.22942 0.0
H323 H 0.45309 0.55969 0.19183 0.0
H324 H 0.44521 0.57499 0.16334 0.0
H325 H 0.52037 0.60531 0.16587 0.0
H326 H 0.52828 0.58906 0.19385 0.0
H327 H 0.52754 0.60288 0.2227 0.0
H328 H 0.51762 0.64059 0.23967 0.0
H329 H 0.44268 0.61207 0.24387 0.0
H330 H 0.45352 0.57379 0.22788 0.0
H331 H 0.50876 0.52701 0.19046 0.0
H332 H 0.5449 0.50016 0.19321 0.0
H333 H 0.56533 0.53609 0.24256 0.0
N334 N 0.49487 0.56463 0.21192 0.0
H335 H 0.5292 0.5631 0.23993 0.0
C336 C 0.65048 0.44752 0.19831 0.0
C337 C 0.64122 0.42371 0.1925 0.0
C338 C 0.64516 0.41418 0.17604 0.0
C339 C 0.65847 0.42815 0.165 0.0
C340 C 0.66717 0.4522 0.17068 0.0
C341 C 0.66319 0.46174 0.18719 0.0
C342 C 0.65611 0.44123 0.22851 0.0
C343 C 0.68168 0.44122 0.23351 0.0
C344 C 0.69162 0.4231 0.24396 0.0
C345 C 0.67614 0.40449 0.24965 0.0
C346 C 0.65028 0.40524 0.24534 0.0
C347 C 0.64035 0.42339 0.23487 0.0
C348 C 0.62455 0.47091 0.21789 0.0
C349 C 0.601 0.46033 0.21277 0.0
C350 C 0.5794 0.47479 0.21346 0.0
C351 C 0.58081 0.50015 0.21921 0.0
C352 C 0.60422 0.51038 0.22503 0.0
C353 C 0.62585 0.49586 0.22435 0.0
C354 C 0.49116 0.57322 0.19494 0.0
C355 C 0.46783 0.56949 0.1861 0.0
C356 C 0.46334 0.57842 0.16992 0.0
C357 C 0.48215 0.5914 0.1623 0.0
C358 C 0.50557 0.59508 0.17122 0.0
C359 C 0.51007 0.58604 0.18733 0.0
C360 C 0.49132 0.58522 0.22424 0.0
C361 C 0.5092 0.60448 0.22767 0.0
C362 C 0.50333 0.62627 0.23723 0.0
C363 C 0.4792 0.62972 0.2431 0.0
C364 C 0.46162 0.61011 0.23996 0.0
C365 C 0.46772 0.58812 0.23076 0.0
C366 C 0.51673 0.54873 0.21431 0.0
C367 C 0.52115 0.52961 0.2018 0.0
C368 C 0.54172 0.51389 0.20349 0.0
C369 C 0.55826 0.51623 0.218 0.0
C370 C 0.55331 0.53431 0.231 0.0
C371 C 0.53258 0.55006 0.22935 0.0
H372 H 0.48092 0.99814 0.45924 0.0
N373 N 0.52116 0.98031 0.47762 0.0
H374 H 0.46503 0.98259 0.43092 0.0
H375 H 0.54282 0.94713 0.45675 0.0
H376 H 0.52669 0.93099 0.42839 0.0
H377 H 0.49147 0.94023 0.47854 0.0
H378 H 0.4558 0.93505 0.49504 0.0
H379 H 0.50721 0.01226 0.50474 0.0
H380 H 0.47248 0.00616 0.52245 0.0
H381 H 0.50622 0.02888 0.47408 0.0
H382 H 0.57043 0.98223 0.48313 0.0
H383 H 0.53379 0.06442 0.47045 0.0
H384 H 0.59818 0.01777 0.47965 0.0
H385 H 0.66236 0.10076 0.43373 0.0
H386 H 0.66759 0.11035 0.40448 0.0
H387 H 0.6061 0.16223 0.40681 0.0
H388 H 0.60148 0.15297 0.43651 0.0
H389 H 0.66603 0.09016 0.46619 0.0
H390 H 0.70882 0.1 0.47631 0.0
H391 H 0.69297 0.17888 0.47475 0.0
H392 H 0.64966 0.16884 0.46508 0.0
H393 H 0.59367 0.12741 0.47663 0.0
H394 H 0.56676 0.09359 0.48502 0.0
H395 H 0.60706 0.04049 0.45386 0.0
N396 N 0.63053 0.12404 0.45553 0.0
H397 H 0.63354 0.07407 0.44552 0.0
C398 C 0.51309 0.97368 0.46011 0.0
C399 C 0.4914 0.98397 0.45243 0.0
C400 C 0.48218 0.97486 0.43632 0.0
C401 C 0.49446 0.95537 0.42754 0.0
C402 C 0.5169 0.9461 0.43482 0.0
C403 C 0.52609 0.9552 0.45099 0.0
C404 C 0.50149 0.97732 0.48936 0.0
C405 C 0.48736 0.95501 0.48792 0.0
C406 C 0.467 0.95182 0.49775 0.0
C407 C 0.46069 0.97028 0.51016 0.0
C408 C 0.47602 0.99184 0.51264 0.0
C409 C 0.49614 0.99537 0.50239 0.0
C410 C 0.53631 0.00281 0.47899 0.0
C411 C 0.52623 0.0264 0.47567 0.0
C412 C 0.54203 0.04675 0.47364 0.0
C413 C 0.56816 0.04382 0.4746 0.0
C414 C 0.57813 0.02053 0.47864 0.0
C415 C 0.56234 1.00031 0.48083 0.0
C416 C 0.6315 0.12629 0.43742 0.0
C417 C 0.64963 0.11384 0.42793 0.0
C418 C 0.65256 0.1193 0.41108 0.0
C419 C 0.63739 0.13723 0.40326 0.0
C420 C 0.61839 0.14865 0.41251 0.0
C421 C 0.61555 0.14323 0.42941 0.0
C422 C 0.65437 0.12884 0.46481 0.0
C423 C 0.67134 0.10959 0.46844 0.0
C424 C 0.69606 0.11526 0.47409 0.0
C425 C 0.70451 0.14023 0.47605 0.0
C426 C 0.68713 0.15945 0.47348 0.0
C427 C 0.66235 0.15376 0.46795 0.0
C428 C 0.61569 0.10343 0.46051 0.0
C429 C 0.59671 0.10842 0.4717 0.0
C430 C 0.58135 0.08914 0.47643 0.0
C431 C 0.58489 0.06436 0.47018 0.0
C432 C 0.6041 0.05933 0.4591 0.0
C433 C 0.61922 0.07863 0.45423 0.0
H434 H 0.12509 0.03293 0.69972 0.0
N435 N 0.15677 0.04473 0.7279 0.0
H436 H 0.13645 0.02701 0.6705 0.0
H437 H 0.20251 0.04627 0.71628 0.0
H438 H 0.21412 0.03985 0.68662 0.0
H439 H 0.13806 0.99761 0.71849 0.0
H440 H 0.14468 0.96015 0.73428 0.0
H441 H 0.17673 0.04202 0.75945 0.0
H442 H 0.18247 0.00441 0.77564 0.0
H443 H 0.10669 0.03339 0.72745 0.0
H444 H 0.16017 0.09396 0.73387 0.0
H445 H 0.07256 0.06326 0.72624 0.0
H446 H 0.1261 0.12417 0.73375 0.0
H447 H 0.98468 0.13091 0.68803 0.0
H448 H 0.97723 0.134 0.65711 0.0
H449 H 0.03258 0.19285 0.65848 0.0
H450 H 0.03897 0.19077 0.68922 0.0
H451 H 0.04472 0.19918 0.72174 0.0
H452 H 0.0301 0.24075 0.73043 0.0
H453 H 0.9536 0.21428 0.72315 0.0
H454 H 0.96853 0.17257 0.71524 0.0
H455 H 0.01299 0.12148 0.72927 0.0
H456 H 0.04738 0.09443 0.73845 0.0
H457 H 0.09876 0.13965 0.71296 0.0
N458 N 0.01482 0.15946 0.70921 0.0
H459 H 0.06495 0.16695 0.70483 0.0
C460 C 0.16295 0.04061 0.71034 0.0
C461 C 0.14454 0.03486 0.69715 0.0
C462 C 0.15106 0.03141 0.68034 0.0
C463 C 0.17613 0.03328 0.67626 0.0
C464 C 0.19465 0.03834 0.68942 0.0
C465 C 0.18805 0.04209 0.7063 0.0
C466 C 0.15744 0.02272 0.73765 0.0
C467 C 0.14776 0.99946 0.73092 0.0
C468 C 0.15147 0.978 0.73996 0.0
C469 C 0.16424 0.97946 0.75607 0.0
C470 C 0.17256 0.00286 0.76324 0.0
C471 C 0.16933 0.02427 0.75402 0.0
C472 C 0.13609 0.0615 0.73048 0.0
C473 C 0.11108 0.05315 0.72908 0.0
C474 C 0.09149 0.07037 0.7285 0.0
C475 C 0.09645 0.0963 0.72961 0.0
C476 C 0.12148 0.10444 0.73236 0.0
C477 C 0.14102 0.08721 0.73264 0.0
C478 C 0.01275 0.1601 0.69093 0.0
C479 C 0.99541 0.14422 0.68159 0.0
C480 C 0.99114 0.14603 0.66404 0.0
C481 C 0.00459 0.16346 0.65557 0.0
C482 C 0.02233 0.17901 0.66479 0.0
C483 C 0.02614 0.17763 0.68235 0.0
C484 C 0.00765 0.18259 0.71786 0.0
C485 C 0.02486 0.20206 0.72252 0.0
C486 C 0.0164 0.22603 0.72728 0.0
C487 C 0.9906 0.23112 0.72726 0.0
C488 C 0.97358 0.21119 0.72355 0.0
C489 C 0.98207 0.18725 0.719 0.0
C490 C 0.0361 0.14614 0.71622 0.0
C491 C 0.03182 0.12578 0.72603 0.0
C492 C 0.05149 0.1102 0.7311 0.0
C493 C 0.07595 0.11457 0.72632 0.0
C494 C 0.08034 0.13572 0.71713 0.0
C495 C 0.06074 0.15139 0.71224 0.0
O496 O 0.38332 0.69385 0.99779 0.0
Cd497 Cd 0.36631 0.71284 0.0174 0.0
Cd498 Cd 0.41003 0.69823 0.03696 0.0
O499 O 0.41504 0.67997 0.01367 0.0
O500 O 0.33081 0.71717 0.00915 0.0
O501 O 0.34205 0.69466 0.03091 0.0
C502 C 0.32447 0.7031 0.02089 0.0
C503 C 0.42695 0.67619 0.05966 0.0
C504 C 0.40306 0.68093 0.99934 0.0
C505 C 0.39953 0.75376 0.03409 0.0
O506 O 0.41373 0.73677 0.03973 0.0
O507 O 0.37951 0.74808 0.02519 0.0
O508 O 0.44084 0.68705 0.04957 0.0
O509 O 0.40302 0.67825 0.05722 0.0
O510 O 0.42454 0.86377 0.31023 0.0
Cd511 Cd 0.41308 0.85117 0.28594 0.0
Cd512 Cd 0.46237 0.8571 0.28107 0.0
O513 O 0.46375 0.87263 0.30585 0.0
O514 O 0.37604 0.8543 0.28539 0.0
O515 O 0.39997 0.87752 0.27062 0.0
C516 C 0.37805 0.87243 0.27554 0.0
C517 C 0.47802 0.8798 0.25973 0.0
C518 C 0.44576 0.87264 0.31564 0.0
C519 C 0.44123 0.80483 0.27625 0.0
O520 O 0.4607 0.81859 0.27681 0.0
O521 O 0.41998 0.81429 0.27886 0.0
O522 O 0.49272 0.86864 0.27036 0.0
O523 O 0.45421 0.87837 0.26139 0.0
O524 O 0.24083 0.91693 0.50475 0.0
Cd525 Cd 0.25444 0.90443 0.52769 0.0
Cd526 Cd 0.22131 0.93577 0.54107 0.0
O527 O 0.22388 0.94996 0.51736 0.0
O528 O 0.29105 0.89806 0.52683 0.0
O529 O 0.27519 0.92986 0.54189 0.0
C530 C 0.29459 0.91847 0.5363 0.0
C531 C 0.21582 0.96457 0.56408 0.0
C532 C 0.23047 0.93815 0.50392 0.0
C533 C 0.21241 0.87971 0.54218 0.0
O534 O 0.20351 0.90171 0.54301 0.0
O535 O 0.2346 0.87616 0.53772 0.0
O536 O 0.19853 0.96013 0.55222 0.0
O537 O 0.23675 0.95295 0.56283 0.0
O538 O 0.19549 0.75544 0.75936 0.0
Cd539 Cd 0.21336 0.76764 0.78212 0.0
Cd540 Cd 0.18434 0.72958 0.79276 0.0
O541 O 0.17026 0.72656 0.76769 0.0
O542 O 0.22556 0.80136 0.7771 0.0
O543 O 0.19685 0.79553 0.79552 0.0
C544 C 0.2095 0.81073 0.78718 0.0
C545 C 0.15765 0.72967 0.81503 0.0
C546 C 0.17825 0.73925 0.75603 0.0
C547 C 0.24101 0.72584 0.79772 0.0
O548 O 0.21953 0.71612 0.79878 0.0
O549 O 0.2433 0.74714 0.79165 0.0
O550 O 0.16216 0.70944 0.80607 0.0
O551 O 0.16749 0.7503 0.81083 0.0
O552 O 0.92502 0.22626 0.54434 0.0
Cd553 Cd 0.90653 0.24386 0.52476 0.0
Cd554 Cd 0.93171 0.21109 0.50483 0.0
O555 O 0.94905 0.20327 0.52798 0.0
O556 O 0.90079 0.27912 0.53295 0.0
O557 O 0.9255 0.26845 0.51219 0.0
C558 C 0.91616 0.28573 0.52201 0.0
C559 C 0.95723 0.2099 0.48175 0.0
C560 C 0.94267 0.2107 0.54267 0.0
C561 C 0.87454 0.20784 0.50363 0.0
O562 O 0.89526 0.19896 0.49908 0.0
O563 O 0.87421 0.22716 0.51378 0.0
O564 O 0.95024 0.18986 0.48837 0.0
O565 O 0.94989 0.23106 0.48834 0.0
O566 O 0.86798 0.42788 0.78081 0.0
Cd567 Cd 0.85215 0.40873 0.75946 0.0
Cd568 Cd 0.8801 0.44139 0.74391 0.0
O569 O 0.87983 0.46056 0.7675 0.0
O570 O 0.82291 0.39069 0.76734 0.0
O571 O 0.81914 0.42142 0.74984 0.0
C572 C 0.80867 0.40534 0.75875 0.0
C573 C 0.87598 0.46398 0.71947 0.0
C574 C 0.87639 0.45009 0.78119 0.0
C575 C 0.89527 0.38685 0.7427 0.0
O576 O 0.9018 0.40945 0.74128 0.0
O577 O 0.87411 0.3819 0.74818 0.0
O578 O 0.89605 0.46519 0.72936 0.0
O579 O 0.85767 0.4504 0.72375 0.0
O580 O 0.70697 0.36536 0.04059 0.0
Cd581 Cd 0.7163 0.35381 0.0164 0.0
Cd582 Cd 0.69952 0.40062 0.01148 0.0
O583 O 0.68866 0.40138 0.0362 0.0
O584 O 0.72376 0.31775 0.01914 0.0
O585 O 0.69207 0.33028 0.00267 0.0
C586 C 0.70415 0.31216 0.00938 0.0
C587 C 0.67157 0.40168 0.9878 0.0
C588 C 0.69516 0.3844 0.04612 0.0
C589 C 0.75339 0.39137 0.00577 0.0
O590 O 0.73663 0.40781 0.00791 0.0
O591 O 0.74848 0.36838 0.00732 0.0
O592 O 0.6783 0.42197 0.99662 0.0
O593 O 0.68006 0.38066 0.99289 0.0
O594 O 0.75003 0.1921 0.243 0.0
Cd595 Cd 0.76314 0.20414 0.26721 0.0
Cd596 Cd 0.73994 0.16088 0.27402 0.0
O597 O 0.7281 0.15893 0.24854 0.0
O598 O 0.76995 0.24061 0.26544 0.0
O599 O 0.74064 0.22623 0.2809 0.0
C600 C 0.75146 0.24506 0.27489 0.0
C601 C 0.71198 0.16244 0.29554 0.0
C602 C 0.73557 0.17392 0.23799 0.0
C603 C 0.79591 0.16439 0.28141 0.0
O604 O 0.77628 0.15081 0.28035 0.0
O605 O 0.79477 0.18712 0.27756 0.0
O606 O 0.71725 0.14144 0.28769 0.0
O607 O 0.72211 0.18256 0.29077 0.0
H608 H 0.23966 0.91187 0.28993 0.0
H609 H 0.26687 0.98865 0.2925 0.0
H610 H 0.30547 0.97433 0.27983 0.0
H611 H 0.29492 0.88839 0.30599 0.0
H612 H 0.29265 0.85892 0.29368 0.0
H613 H 0.26474 0.87558 0.29863 0.0
H614 H 0.25112 0.87507 0.26651 0.0
H615 H 0.27921 0.85848 0.26146 0.0
H616 H 0.2719 0.88753 0.25194 0.0
H617 H 0.34362 0.95133 0.27055 0.0
H618 H 0.37893 0.92188 0.2689 0.0
H619 H 0.3286 0.86024 0.27573 0.0
C620 C 0.25351 0.92588 0.28777 0.0
C621 C 0.24981 0.95154 0.29228 0.0
C622 C 0.26862 0.96898 0.28886 0.0
C623 C 0.2908 0.96099 0.28167 0.0
C624 C 0.29413 0.93548 0.27804 0.0
C625 C 0.27601 0.91818 0.2811 0.0
C626 C 0.28555 0.8917 0.27874 0.0
C627 C 0.28441 0.87786 0.29524 0.0
C628 C 0.27108 0.87735 0.26377 0.0
C629 C 0.31225 0.89681 0.27462 0.0
C630 C 0.31661 0.92213 0.27366 0.0
C631 C 0.34033 0.93145 0.27104 0.0
C632 C 0.36027 0.91457 0.27004 0.0
C633 C 0.35643 0.88881 0.27213 0.0
C634 C 0.33198 0.87982 0.27391 0.0
H635 H 0.17376 0.7363 0.55071 0.0
H636 H 0.10349 0.76411 0.56892 0.0
H637 H 0.11664 0.80707 0.56447 0.0
H638 H 0.21172 0.78529 0.5713 0.0
H639 H 0.23257 0.78699 0.55431 0.0
H640 H 0.21705 0.75794 0.55757 0.0
H641 H 0.19855 0.75583 0.52641 0.0
H642 H 0.21414 0.7848 0.52302 0.0
H643 H 0.18078 0.78183 0.51877 0.0
H644 H 0.1378 0.84714 0.55953 0.0
H645 H 0.16535 0.88199 0.55364 0.0
H646 H 0.22288 0.82906 0.53948 0.0
C647 C 0.16105 0.75137 0.5537 0.0
C648 C 0.13737 0.74656 0.55999 0.0
C649 C 0.1214 0.767 0.56366 0.0
C650 C 0.1288 0.7916 0.56134 0.0
C651 C 0.15232 0.79564 0.55539 0.0
C652 C 0.16822 0.77615 0.55156 0.0
C653 C 0.19284 0.78584 0.54587 0.0
C654 C 0.21484 0.77858 0.55799 0.0
C655 C 0.1968 0.77652 0.52742 0.0
C656 C 0.18832 0.81383 0.54725 0.0
C657 C 0.16477 0.81898 0.55273 0.0
C658 C 0.15625 0.84336 0.55516 0.0
C659 C 0.17211 0.86306 0.55179 0.0
C660 C 0.19635 0.85837 0.54608 0.0
C661 C 0.20451 0.83333 0.54385 0.0
H662 H 0.37901 0.66891 0.79602 0.0
H663 H 0.36054 0.62821 0.83971 0.0
H664 H 0.319 0.64717 0.8389 0.0
H665 H 0.34834 0.72615 0.80994 0.0
H666 H 0.33759 0.7336 0.78876 0.0
H667 H 0.36589 0.71598 0.79203 0.0
H668 H 0.348 0.68062 0.77085 0.0
H669 H 0.3197 0.69816 0.76747 0.0
H670 H 0.31817 0.66668 0.77423 0.0
H671 H 0.27922 0.66931 0.83331 0.0
H672 H 0.24359 0.69495 0.82369 0.0
H673 H 0.28811 0.72471 0.78531 0.0
C674 C 0.36634 0.66401 0.80548 0.0
C675 C 0.37316 0.64648 0.81769 0.0
C676 C 0.35575 0.64074 0.82978 0.0
C677 C 0.33208 0.6517 0.8296 0.0
C678 C 0.32606 0.66878 0.81746 0.0
C679 C 0.34266 0.67513 0.80569 0.0
C680 C 0.33145 0.69457 0.79428 0.0
C681 C 0.34673 0.71903 0.79639 0.0
C682 C 0.3292 0.68439 0.7756 0.0
C683 C 0.30591 0.6979 0.80143 0.0
C684 C 0.30326 0.68268 0.81474 0.0
C685 C 0.28111 0.68149 0.823 0.0
C686 C 0.26098 0.69608 0.81743 0.0
C687 C 0.26319 0.71193 0.80387 0.0
C688 C 0.28607 0.71306 0.79589 0.0
H689 H 0.48268 0.86841 0.07525 0.0
H690 H 0.43126 0.91785 0.04923 0.0
H691 H 0.40727 0.88119 0.03647 0.0
H692 H 0.48287 0.81932 0.04111 0.0
H693 H 0.48437 0.79455 0.05561 0.0
H694 H 0.49797 0.8247 0.06207 0.0
H695 H 0.47108 0.82738 0.08832 0.0
H696 H 0.45723 0.79736 0.08187 0.0
H697 H 0.43755 0.8242 0.08529 0.0
H698 H 0.38799 0.83921 0.02749 0.0
H699 H 0.37548 0.79491 0.02216 0.0
H700 H 0.43989 0.77299 0.05387 0.0
C701 C 0.46666 0.87153 0.06661 0.0
C702 C 0.45886 0.896 0.0632 0.0
C703 C 0.43745 0.89928 0.05212 0.0
C704 C 0.42377 0.87858 0.04477 0.0
C705 C 0.43176 0.85474 0.04861 0.0
C706 C 0.45279 0.8511 0.05919 0.0
C707 C 0.45704 0.82358 0.0616 0.0
C708 C 0.48204 0.81504 0.05468 0.0
C709 C 0.45563 0.8178 0.08038 0.0
C710 C 0.43503 0.8123 0.0508 0.0
C711 C 0.42068 0.83058 0.04342 0.0
C712 C 0.39914 0.82472 0.03313 0.0
C713 C 0.39218 0.79949 0.03023 0.0
C714 C 0.4067 0.7804 0.03757 0.0
C715 C 0.42839 0.78705 0.04802 0.0
H716 H 0.17969 0.70101 0.99195 0.0
H717 H 0.16986 0.64205 0.02631 0.0
H718 H 0.21423 0.6468 0.03686 0.0
H719 H 0.23886 0.68293 0.98002 0.0
H720 H 0.2507 0.71424 0.97871 0.0
H721 H 0.2177 0.70802 0.97529 0.0
H722 H 0.20862 0.74169 0.99906 0.0
H723 H 0.24164 0.74815 0.0025 0.0
H724 H 0.22378 0.73982 0.01998 0.0
H725 H 0.26063 0.65645 0.04227 0.0
H726 H 0.30496 0.66938 0.04155 0.0
H727 H 0.28381 0.72144 0.00322 0.0
C728 C 0.18668 0.68955 0.00202 0.0
C729 C 0.17128 0.67135 0.00846 0.0
C730 C 0.18136 0.65614 0.02123 0.0
C731 C 0.20648 0.65878 0.02734 0.0
C732 C 0.22126 0.67668 0.02051 0.0
C733 C 0.21167 0.69183 0.00815 0.0
C734 C 0.23174 0.70841 0.00201 0.0
C735 C 0.23493 0.70306 0.98288 0.0
C736 C 0.2261 0.73616 0.00614 0.0
C737 C 0.25426 0.69997 0.01263 0.0
C738 C 0.24786 0.68186 0.02337 0.0
C739 C 0.2658 0.67075 0.034 0.0
C740 C 0.29093 0.67821 0.0335 0.0
C741 C 0.29787 0.69641 0.02233 0.0
C742 C 0.27915 0.70752 0.01193 0.0
H743 H 0.49565 0.67716 0.23706 0.0
H744 H 0.44578 0.63806 0.26811 0.0
H745 H 0.43038 0.67851 0.27955 0.0
H746 H 0.51221 0.72708 0.2697 0.0
H747 H 0.51416 0.75039 0.25428 0.0
H748 H 0.52125 0.71824 0.24855 0.0
H749 H 0.48819 0.71851 0.22319 0.0
H750 H 0.48075 0.75053 0.22895 0.0
H751 H 0.45641 0.72703 0.22704 0.0
H752 H 0.41792 0.72317 0.28584 0.0
H753 H 0.41321 0.76905 0.28941 0.0
H754 H 0.47429 0.77897 0.25673 0.0
C755 C 0.48194 0.67689 0.24656 0.0
C756 C 0.4718 0.65414 0.25145 0.0
C757 C 0.45348 0.65505 0.26373 0.0
C758 C 0.4447 0.67799 0.27043 0.0
C759 C 0.45475 0.69994 0.26503 0.0
C760 C 0.47334 0.69959 0.25365 0.0
C761 C 0.48128 0.72587 0.25012 0.0
C762 C 0.50886 0.73068 0.25602 0.0
C763 C 0.47636 0.73076 0.2312 0.0
C764 C 0.46396 0.74105 0.26112 0.0
C765 C 0.4486 0.72571 0.26945 0.0
C766 C 0.4301 0.73537 0.27959 0.0
C767 C 0.42745 0.76141 0.28145 0.0
C768 C 0.4435 0.77746 0.27344 0.0
C769 C 0.46199 0.7671 0.26317 0.0
H770 H 0.43798 0.9265 0.5187 0.0
H771 H 0.42975 0.00734 0.52278 0.0
H772 H 0.38909 0.00222 0.53505 0.0
H773 H 0.3777 0.91545 0.50206 0.0
H774 H 0.37347 0.88655 0.51214 0.0
H775 H 0.40432 0.89644 0.50761 0.0
H776 H 0.41901 0.89378 0.53935 0.0
H777 H 0.38807 0.88392 0.544 0.0
H778 H 0.40245 0.91087 0.55549 0.0
H779 H 0.34694 0.9884 0.54369 0.0
H780 H 0.30607 0.96744 0.5452 0.0
H781 H 0.3399 0.89597 0.53209 0.0
C782 C 0.42789 0.94329 0.5222 0.0
C783 C 0.43752 0.9674 0.51967 0.0
C784 C 0.42344 0.98862 0.52486 0.0
C785 C 0.4001 0.98592 0.5318 0.0
C786 C 0.39085 0.96187 0.53341 0.0
C787 C 0.40429 0.94093 0.52865 0.0
C788 C 0.38887 0.91727 0.52934 0.0
C789 C 0.38591 0.90312 0.51174 0.0
C790 C 0.40029 0.90047 0.54285 0.0
C791 C 0.3643 0.92823 0.53461 0.0
C792 C 0.36606 0.95392 0.53743 0.0
C793 C 0.34544 0.96828 0.54169 0.0
C794 C 0.32229 0.95618 0.54256 0.0
C795 C 0.31981 0.93006 0.53879 0.0
C796 C 0.34126 0.91592 0.53517 0.0
H797 H 0.19047 0.9397 0.74394 0.0
H798 H 0.15182 0.96746 0.78781 0.0
H799 H 0.16118 0.92793 0.80179 0.0
H800 H 0.17104 0.87659 0.74339 0.0
H801 H 0.20059 0.86405 0.73729 0.0
H802 H 0.19122 0.89466 0.73127 0.0
H803 H 0.23237 0.91346 0.7458 0.0
H804 H 0.24182 0.88288 0.75194 0.0
H805 H 0.24026 0.90834 0.76785 0.0
H806 H 0.17202 0.88336 0.80963 0.0
H807 H 0.1853 0.83921 0.81129 0.0
H808 H 0.21953 0.84289 0.76309 0.0
C809 C 0.18405 0.93742 0.75651 0.0
C810 C 0.17026 0.95636 0.7648 0.0
C811 C 0.16239 0.95301 0.78131 0.0
C812 C 0.16763 0.93068 0.7893 0.0
C813 C 0.18119 0.91221 0.78071 0.0
C814 C 0.18954 0.91556 0.76476 0.0
C815 C 0.20374 0.89303 0.75816 0.0
C816 C 0.19087 0.8814 0.74155 0.0
C817 C 0.23117 0.89984 0.75581 0.0
C818 C 0.20162 0.87615 0.77269 0.0
C819 C 0.18849 0.88741 0.78559 0.0
C820 C 0.18271 0.87456 0.79974 0.0
C821 C 0.19032 0.84952 0.8006 0.0
C822 C 0.20383 0.83777 0.78749 0.0
C823 C 0.2098 0.85151 0.77354 0.0
H824 H 0.67741 0.46604 0.77809 0.0
H825 H 0.65605 0.39316 0.79407 0.0
H826 H 0.69415 0.37506 0.78282 0.0
H827 H 0.70841 0.44337 0.73932 0.0
H828 H 0.73304 0.46649 0.74262 0.0
H829 H 0.70235 0.47339 0.74978 0.0
H830 H 0.72159 0.48407 0.78029 0.0
H831 H 0.75227 0.47729 0.77322 0.0
H832 H 0.74085 0.4613 0.79069 0.0
H833 H 0.73641 0.36556 0.77328 0.0
H834 H 0.78059 0.36552 0.76611 0.0
H835 H 0.77554 0.44412 0.7561 0.0
C836 C 0.68057 0.44622 0.77905 0.0
C837 C 0.66335 0.43103 0.78678 0.0
C838 C 0.66841 0.40516 0.78781 0.0
C839 C 0.69014 0.39466 0.78152 0.0
C840 C 0.70678 0.41017 0.77418 0.0
C841 C 0.70229 0.43538 0.77285 0.0
C842 C 0.72425 0.44818 0.76561 0.0
C843 C 0.71654 0.45846 0.7483 0.0
C844 C 0.73539 0.46893 0.77821 0.0
C845 C 0.74206 0.42638 0.76363 0.0
C846 C 0.73142 0.40458 0.76849 0.0
C847 C 0.7448 0.38238 0.76914 0.0
C848 C 0.76989 0.38254 0.76507 0.0
C849 C 0.78134 0.4047 0.76034 0.0
C850 C 0.76705 0.42675 0.75924 0.0
H851 H 0.69435 0.17492 0.03986 0.0
H852 H 0.62131 0.1685 0.01296 0.0
H853 H 0.62864 0.20875 0.00017 0.0
H854 H 0.69189 0.23792 0.05078 0.0
H855 H 0.72448 0.24425 0.04823 0.0
H856 H 0.71476 0.21361 0.05336 0.0
H857 H 0.73541 0.1941 0.02685 0.0
H858 H 0.7453 0.22476 0.02165 0.0
H859 H 0.72689 0.20521 0.00619 0.0
H860 H 0.64249 0.25201 0.99272 0.0
H861 H 0.66109 0.29426 0.9919 0.0
H862 H 0.72514 0.27126 0.0234 0.0
C863 C 0.68019 0.18148 0.03084 0.0
C864 C 0.65734 0.16837 0.0273 0.0
C865 C 0.63895 0.17821 0.0159 0.0
C866 C 0.64302 0.20098 0.00848 0.0
C867 C 0.66563 0.21362 0.01251 0.0
C868 C 0.68394 0.20408 0.02337 0.0
C869 C 0.70572 0.2221 0.02683 0.0
C870 C 0.7094 0.22993 0.04593 0.0
C871 C 0.72975 0.21087 0.01996 0.0
C872 C 0.69654 0.24364 0.01664 0.0
C873 C 0.67353 0.23835 0.00827 0.0
C874 C 0.66068 0.25618 0.99901 0.0
C875 C 0.6714 0.28013 0.9986 0.0
C876 C 0.69464 0.28605 0.0075 0.0
C877 C 0.7075 0.26729 0.01628 0.0
H878 H 0.94444 0.15879 0.29932 0.0
H879 H 0.93453 0.08201 0.31242 0.0
H880 H 0.88897 0.08544 0.30609 0.0
H881 H 0.88985 0.18288 0.31747 0.0
H882 H 0.88249 0.20413 0.30106 0.0
H883 H 0.91447 0.19539 0.30582 0.0
H884 H 0.91852 0.18013 0.27432 0.0
H885 H 0.88661 0.18904 0.26942 0.0
H886 H 0.89645 0.15746 0.26437 0.0
H887 H 0.84459 0.09755 0.29924 0.0
H888 H 0.80422 0.11705 0.29158 0.0
H889 H 0.84283 0.18616 0.28288 0.0
C890 C 0.93273 0.14256 0.30055 0.0
C891 C 0.94302 0.12009 0.30632 0.0
C892 C 0.92701 0.09944 0.30813 0.0
C893 C 0.90114 0.10119 0.30452 0.0
C894 C 0.89157 0.12373 0.29913 0.0
C895 C 0.90685 0.14401 0.29707 0.0
C896 C 0.89171 0.16626 0.29149 0.0
C897 C 0.89482 0.18847 0.30475 0.0
C898 C 0.89874 0.17365 0.27385 0.0
C899 C 0.86551 0.15534 0.29082 0.0
C900 C 0.86589 0.13077 0.29525 0.0
C901 C 0.84404 0.11675 0.29569 0.0
C902 C 0.82118 0.12805 0.29133 0.0
C903 C 0.82026 0.15318 0.28661 0.0
C904 C 0.84282 0.16696 0.28645 0.0
H905 H 0.9395 0.42534 0.56022 0.0
H906 H 0.9725 0.44201 0.51336 0.0
H907 H 0.96368 0.39849 0.50185 0.0
H908 H 0.96174 0.36287 0.56263 0.0
H909 H 0.93347 0.35131 0.57077 0.0
H910 H 0.94251 0.38358 0.57504 0.0
H911 H 0.89957 0.39746 0.562 0.0
H912 H 0.8904 0.36522 0.55764 0.0
H913 H 0.88947 0.38631 0.54066 0.0
H914 H 0.95285 0.35212 0.49628 0.0
H915 H 0.9389 0.30798 0.49646 0.0
H916 H 0.91109 0.32323 0.5465 0.0
C917 C 0.945 0.41976 0.54757 0.0
C918 C 0.95692 0.43684 0.53771 0.0
C919 C 0.96338 0.4291 0.52109 0.0
C920 C 0.95848 0.40447 0.51449 0.0
C921 C 0.94678 0.38802 0.52461 0.0
C922 C 0.93992 0.39548 0.54074 0.0
C923 C 0.9272 0.37451 0.54899 0.0
C924 C 0.94213 0.36767 0.56532 0.0
C925 C 0.90005 0.38129 0.55252 0.0
C926 C 0.92821 0.3539 0.5351 0.0
C927 C 0.93968 0.36193 0.52115 0.0
C928 C 0.94362 0.34574 0.50706 0.0
C929 C 0.93567 0.32071 0.50728 0.0
C930 C 0.92369 0.31226 0.52141 0.0
C931 C 0.91983 0.3292 0.5354 0.0
H932 H 0.72712 0.17875 0.49649 0.0
H933 H 0.74342 0.11541 0.46202 0.0
H934 H 0.78826 0.12587 0.46553 0.0
H935 H 0.77224 0.22057 0.48161 0.0
H936 H 0.78081 0.23515 0.50235 0.0
H937 H 0.74985 0.22224 0.49779 0.0
H938 H 0.75585 0.19455 0.52351 0.0
H939 H 0.78677 0.20747 0.5282 0.0
H940 H 0.78245 0.1741 0.525 0.0
H941 H 0.83095 0.14358 0.47186 0.0
H942 H 0.86948 0.16668 0.48151 0.0
H943 H 0.82617 0.21922 0.5117 0.0
C944 C 0.74012 0.16706 0.48971 0.0
C945 C 0.73167 0.14606 0.47911 0.0
C946 C 0.74938 0.13122 0.47051 0.0
C947 C 0.77492 0.13714 0.47229 0.0
C948 C 0.78256 0.15801 0.4827 0.0
C949 C 0.76578 0.17271 0.49133 0.0
C950 C 0.77907 0.19424 0.50159 0.0
C951 C 0.76995 0.21955 0.49546 0.0
C952 C 0.77584 0.19247 0.52071 0.0
C953 C 0.8059 0.18935 0.49729 0.0
C954 C 0.8074 0.16836 0.48635 0.0
C955 C 0.83005 0.16002 0.48046 0.0
C956 C 0.85186 0.17334 0.48602 0.0
C957 C 0.85095 0.19481 0.49739 0.0
C958 C 0.82755 0.20294 0.503 0.0
H959 H 0.9485 0.24776 0.74302 0.0
H960 H 0.01115 0.27385 0.71621 0.0
H961 H 0.99415 0.3165 0.71784 0.0
H962 H 0.90254 0.284 0.72151 0.0
H963 H 0.88458 0.29021 0.73987 0.0
H964 H 0.9027 0.26205 0.73796 0.0
H965 H 0.92598 0.27359 0.76715 0.0
H966 H 0.90779 0.3017 0.76922 0.0
H967 H 0.94146 0.30354 0.77074 0.0
H968 H 0.96944 0.35613 0.72129 0.0
H969 H 0.93916 0.38987 0.72679 0.0
H970 H 0.89155 0.33747 0.74995 0.0
C971 C 0.95874 0.26238 0.73751 0.0
C972 C 0.98136 0.25728 0.7296 0.0
C973 C 0.99414 0.2772 0.7227 0.0
C974 C 0.9845 0.30152 0.72341 0.0
C975 C 0.96195 0.30571 0.73098 0.0
C976 C 0.94926 0.28672 0.73794 0.0
C977 C 0.92494 0.296 0.7448 0.0
C978 C 0.90236 0.28225 0.73547 0.0
C979 C 0.92506 0.29357 0.76413 0.0
C980 C 0.92586 0.32315 0.7405 0.0
C981 C 0.94743 0.3284 0.7326 0.0
C982 C 0.95249 0.35224 0.72748 0.0
C983 C 0.93515 0.37128 0.73064 0.0
C984 C 0.91292 0.36634 0.73875 0.0
C985 C 0.90826 0.34186 0.74363 0.0
H986 H 0.86372 0.48732 0.99117 0.0
H987 H 0.90863 0.42261 0.97744 0.0
H988 H 0.8745 0.39484 0.9841 0.0
H989 H 0.83197 0.46026 0.02536 0.0
H990 H 0.8025 0.47469 0.01977 0.0
H991 H 0.83138 0.48971 0.01543 0.0
H992 H 0.81621 0.49096 0.98368 0.0
H993 H 0.78736 0.47583 0.9879 0.0
H994 H 0.80665 0.46231 0.97186 0.0
H995 H 0.83489 0.37378 0.99081 0.0
H996 H 0.79236 0.36105 0.99728 0.0
H997 H 0.77221 0.43918 0.00524 0.0
C998 C 0.8665 0.46733 0.98962 0.0
C999 C 0.88922 0.45734 0.98399 0.0
C1000 C 0.89187 0.43095 0.98221 0.0
C1001 C 0.87243 0.41491 0.9858 0.0
C1002 C 0.85027 0.4254 0.99106 0.0
C1003 C 0.84716 0.45098 0.99299 0.0
C1004 C 0.82099 0.45738 0.99807 0.0
C1005 C 0.82177 0.47133 0.01571 0.0
C1006 C 0.80698 0.47251 0.98457 0.0
C1007 C 0.80986 0.43139 0.99852 0.0
C1008 C 0.82713 0.41322 0.99455 0.0
C1009 C 0.8212 0.38783 0.994 0.0
C1010 C 0.79697 0.38079 0.99768 0.0
C1011 C 0.77888 0.39907 0.00175 0.0
C1012 C 0.78554 0.42471 0.00213 0.0
H1013 H 0.71865 0.37858 0.2427 0.0
H1014 H 0.65791 0.38154 0.2767 0.0
H1015 H 0.6738 0.34322 0.28948 0.0
H1016 H 0.71745 0.31491 0.23394 0.0
H1017 H 0.75081 0.31124 0.2332 0.0
H1018 H 0.73664 0.34055 0.22839 0.0
H1019 H 0.76584 0.36356 0.25173 0.0
H1020 H 0.78019 0.33425 0.2566 0.0
H1021 H 0.76681 0.35356 0.27317 0.0
H1022 H 0.69353 0.30196 0.29615 0.0
H1023 H 0.71514 0.26125 0.29594 0.0
H1024 H 0.76358 0.28618 0.25812 0.0
C1025 C 0.70912 0.37169 0.25322 0.0
C1026 C 0.68711 0.3832 0.25877 0.0
C1027 C 0.67475 0.373 0.27218 0.0
C1028 C 0.68375 0.35135 0.2796 0.0
C1029 C 0.70525 0.34021 0.27358 0.0
C1030 C 0.71786 0.35016 0.26076 0.0
C1031 C 0.73926 0.33357 0.25557 0.0
C1032 C 0.73581 0.32453 0.23666 0.0
C1033 C 0.76452 0.34704 0.25951 0.0
C1034 C 0.73625 0.3123 0.26707 0.0
C1035 C 0.71672 0.31658 0.27752 0.0
C1036 C 0.70916 0.29862 0.28826 0.0
C1037 C 0.72153 0.27554 0.28805 0.0
C1038 C 0.74122 0.27061 0.27715 0.0
C1039 C 0.74896 0.28953 0.26685 0.0
H1040 H 0.19961 0.93837 0.40362 0.0
H1041 H 0.19903 0.01937 0.40939 0.0
H1042 H 0.20993 0.0175 0.44023 0.0
H1043 H 0.17307 0.92649 0.44267 0.0
H1044 H 0.19254 0.89993 0.44689 0.0
H1045 H 0.18505 0.90771 0.42529 0.0
H1046 H 0.23227 0.90993 0.42003 0.0
H1047 H 0.23992 0.90212 0.44162 0.0
H1048 H 0.25258 0.93017 0.43384 0.0
H1049 H 0.21813 0.00662 0.47059 0.0
H1050 H 0.22629 0.9877 0.49816 0.0
H1051 H 0.22411 0.91379 0.47234 0.0
C1052 C 0.20183 0.95568 0.41141 0.0
C1053 C 0.19842 0.97903 0.40424 0.0
C1054 C 0.2017 0.00133 0.41471 0.0
C1055 C 0.2078 1.00043 0.4322 0.0
C1056 C 0.21089 0.97709 0.43892 0.0
C1057 C 0.20832 0.95512 0.42883 0.0
C1058 C 0.21292 0.9325 0.43919 0.0
C1059 C 0.1895 0.91567 0.43847 0.0
C1060 C 0.23579 0.91782 0.43332 0.0
C1061 C 0.21811 0.94515 0.45674 0.0
C1062 C 0.21668 0.97087 0.45632 0.0
C1063 C 0.21959 0.98653 0.47106 0.0
C1064 C 0.22413 0.97561 0.48665 0.0
C1065 C 0.22602 0.94932 0.48734 0.0
C1066 C 0.22312 0.93397 0.47215 0.0
H1067 H 0.12077 0.66517 0.6714 0.0
H1068 H 0.128 0.73465 0.64644 0.0
H1069 H 0.14233 0.75613 0.67378 0.0
H1070 H 0.09924 0.69354 0.71148 0.0
H1071 H 0.11652 0.67211 0.72441 0.0
H1072 H 0.1053 0.66227 0.70304 0.0
H1073 H 0.15036 0.65011 0.69577 0.0
H1074 H 0.16171 0.65994 0.71709 0.0
H1075 H 0.17509 0.67311 0.69918 0.0
H1076 H 0.15908 0.76936 0.70278 0.0
H1077 H 0.17561 0.77429 0.73261 0.0
H1078 H 0.15657 0.69691 0.73965 0.0
C1079 C 0.12519 0.68494 0.67176 0.0
C1080 C 0.12304 0.6983 0.65683 0.0
C1081 C 0.12903 0.72415 0.65777 0.0
C1082 C 0.13732 0.7365 0.67322 0.0
C1083 C 0.13937 0.72281 0.68765 0.0
C1084 C 0.13331 0.69767 0.68716 0.0
C1085 C 0.13786 0.68734 0.70456 0.0
C1086 C 0.11326 0.67829 0.71126 0.0
C1087 C 0.15742 0.66639 0.70412 0.0
C1088 C 0.14791 0.7105 0.71477 0.0
C1089 C 0.14859 0.73069 0.7047 0.0
C1090 C 0.15837 0.7538 0.71087 0.0
C1091 C 0.16781 0.75637 0.7278 0.0
C1092 C 0.16723 0.73602 0.73843 0.0
C1093 C 0.15689 0.71286 0.73186 0.0
H1094 H 0.43002 0.65774 0.90141 0.0
H1095 H 0.47911 0.59744 0.91596 0.0
H1096 H 0.46813 0.60472 0.94588 0.0
H1097 H 0.44326 0.69862 0.93833 0.0
H1098 H 0.41155 0.70948 0.9394 0.0
H1099 H 0.4231 0.6992 0.91921 0.0
H1100 H 0.38647 0.66733 0.9142 0.0
H1101 H 0.37487 0.67744 0.93443 0.0
H1102 H 0.38168 0.64489 0.92984 0.0
H1103 H 0.45336 0.62 0.97424 0.0
H1104 H 0.43486 0.64122 0.99909 0.0
H1105 H 0.39398 0.69045 0.96576 0.0
C1106 C 0.43855 0.64618 0.91094 0.0
C1107 C 0.45554 0.62715 0.90648 0.0
C1108 C 0.46601 0.61207 0.91918 0.0
C1109 C 0.45991 0.6161 0.93616 0.0
C1110 C 0.44309 0.63505 0.94013 0.0
C1111 C 0.43243 0.64974 0.92787 0.0
C1112 C 0.41484 0.66881 0.93546 0.0
C1113 C 0.42373 0.69561 0.93295 0.0
C1114 C 0.38786 0.66434 0.92804 0.0
C1115 C 0.41755 0.66282 0.95397 0.0
C1116 C 0.43396 0.64332 0.95639 0.0
C1117 C 0.44031 0.63513 0.97249 0.0
C1118 C 0.42974 0.64734 0.98652 0.0
C1119 C 0.41287 0.66737 0.98433 0.0
C1120 C 0.40653 0.67497 0.9678 0.0
H1121 H 0.47329 0.94692 0.17197 0.0
H1122 H 0.5543 0.94328 0.17438 0.0
H1123 H 0.55396 0.9257 0.20263 0.0
H1124 H 0.46654 0.96308 0.21729 0.0
H1125 H 0.43896 0.94387 0.21797 0.0
H1126 H 0.44574 0.95788 0.19856 0.0
H1127 H 0.44381 0.91417 0.18254 0.0
H1128 H 0.43712 0.90002 0.20189 0.0
H1129 H 0.46345 0.88952 0.19026 0.0
H1130 H 0.5447 0.90668 0.22984 0.0
H1131 H 0.52727 0.88678 0.25394 0.0
H1132 H 0.4521 0.90245 0.23374 0.0
C1133 C 0.49097 0.94289 0.17861 0.0
C1134 C 0.51385 0.9466 0.17107 0.0
C1135 C 0.53658 0.9405 0.17994 0.0
C1136 C 0.53657 0.93064 0.196 0.0
C1137 C 0.51366 0.92693 0.20299 0.0
C1138 C 0.49127 0.93287 0.19459 0.0
C1139 C 0.4692 0.92577 0.20448 0.0
C1140 C 0.45423 0.94904 0.2099 0.0
C1141 C 0.45242 0.90621 0.19418 0.0
C1142 C 0.48266 0.91467 0.21967 0.0
C1143 C 0.5083 0.9157 0.21861 0.0
C1144 C 0.52466 0.90592 0.23086 0.0
C1145 C 0.51455 0.89463 0.2445 0.0
C1146 C 0.48831 0.89309 0.24576 0.0
C1147 C 0.47223 0.90348 0.23321 0.0
H1148 H 0.10468 0.66256 0.89253 0.0
H1149 H 0.09086 0.73612 0.91603 0.0
H1150 H 0.103 0.75543 0.89005 0.0
H1151 H 0.15878 0.67875 0.87269 0.0
H1152 H 0.15201 0.6588 0.85373 0.0
H1153 H 0.14006 0.65087 0.87355 0.0
H1154 H 0.09498 0.64942 0.85953 0.0
H1155 H 0.10682 0.65739 0.83964 0.0
H1156 H 0.08291 0.67625 0.84907 0.0
H1157 H 0.12054 0.76678 0.8624 0.0
H1158 H 0.14105 0.76903 0.83525 0.0
H1159 H 0.14248 0.68795 0.8299 0.0
C1160 C 0.10403 0.68273 0.89216 0.0
C1161 C 0.09678 0.69783 0.90629 0.0
C1162 C 0.09604 0.72415 0.90527 0.0
C1163 C 0.10298 0.73529 0.89059 0.0
C1164 C 0.11038 0.71985 0.87697 0.0
C1165 C 0.11074 0.69411 0.8776 0.0
C1166 C 0.12041 0.68172 0.86158 0.0
C1167 C 0.14423 0.66666 0.86564 0.0
C1168 C 0.10006 0.66522 0.85188 0.0
C1169 C 0.12605 0.70451 0.852 0.0
C1170 C 0.12003 0.72635 0.86102 0.0
C1171 C 0.12499 0.74979 0.85512 0.0
C1172 C 0.13666 0.75089 0.8397 0.0
C1173 C 0.14317 0.72869 0.83038 0.0
C1174 C 0.1374 0.70528 0.83657 0.0
H1175 H 0.43927 0.61331 0.14913 0.0
H1176 H 0.5144 0.59175 0.13667 0.0
H1177 H 0.50775 0.61021 0.10893 0.0
H1178 H 0.41034 0.60034 0.10615 0.0
H1179 H 0.38939 0.62651 0.1078 0.0
H1180 H 0.39974 0.61098 0.12658 0.0
H1181 H 0.41612 0.65324 0.1408 0.0
H1182 H 0.40596 0.66888 0.12206 0.0
H1183 H 0.43813 0.67138 0.13016 0.0
H1184 H 0.49424 0.63301 0.08353 0.0
H1185 H 0.47382 0.65709 0.06104 0.0
H1186 H 0.40642 0.66212 0.08891 0.0
C1187 C 0.45419 0.61207 0.14046 0.0
C1188 C 0.47746 0.60122 0.14518 0.0
C1189 C 0.49659 0.60036 0.13352 0.0
C1190 C 0.49294 0.61063 0.11767 0.0
C1191 C 0.46995 0.62146 0.11355 0.0
C1192 C 0.45079 0.62206 0.1245 0.0
C1193 C 0.42803 0.6352 0.11698 0.0
C1194 C 0.40555 0.61718 0.11421 0.0
C1195 C 0.4217 0.65856 0.12817 0.0
C1196 C 0.43757 0.6422 0.1002 0.0
C1197 C 0.46183 0.6341 0.09855 0.0
C1198 C 0.47517 0.63923 0.08457 0.0
C1199 C 0.46343 0.65302 0.0719 0.0
C1200 C 0.43852 0.66138 0.07321 0.0
C1201 C 0.42537 0.65572 0.0875 0.0
H1202 H 0.517 0.94107 0.39801 0.0
H1203 H 0.44551 0.94211 0.42116 0.0
H1204 H 0.42569 0.92089 0.39517 0.0
H1205 H 0.49247 0.95239 0.35545 0.0
H1206 H 0.51427 0.93186 0.34517 0.0
H1207 H 0.52297 0.94737 0.36558 0.0
H1208 H 0.53307 0.90453 0.37787 0.0
H1209 H 0.52432 0.88888 0.35751 0.0
H1210 H 0.50944 0.88031 0.37622 0.0
H1211 H 0.41374 0.89889 0.36732 0.0
H1212 H 0.40964 0.87887 0.33842 0.0
H1213 H 0.48873 0.89205 0.33275 0.0
C1214 C 0.49719 0.9368 0.39758 0.0
C1215 C 0.48274 0.94339 0.41156 0.0
C1216 C 0.45684 0.93762 0.4105 0.0
C1217 C 0.44545 0.92541 0.39585 0.0
C1218 C 0.4602 0.91912 0.38233 0.0
C1219 C 0.48545 0.9247 0.38297 0.0
C1220 C 0.49686 0.91597 0.36653 0.0
C1221 C 0.50725 0.93823 0.35766 0.0
C1222 C 0.51712 0.89625 0.36973 0.0
C1223 C 0.47405 0.90455 0.35662 0.0
C1224 C 0.45318 0.90652 0.36605 0.0
C1225 C 0.42992 0.89728 0.35977 0.0
C1226 C 0.42783 0.88587 0.34332 0.0
C1227 C 0.44886 0.88386 0.33326 0.0
C1228 C 0.4723 0.89329 0.34009 0.0
H1229 H 0.21297 0.00388 0.66283 0.0
H1230 H 0.15321 0.05461 0.64902 0.0
H1231 H 0.16048 0.04594 0.61868 0.0
H1232 H 0.2539 0.01783 0.62776 0.0
H1233 H 0.26338 0.98568 0.62485 0.0
H1234 H 0.25577 0.99828 0.64559 0.0
H1235 H 0.2231 0.96286 0.64719 0.0
H1236 H 0.23053 0.95023 0.62648 0.0
H1237 H 0.1987 0.95835 0.63049 0.0
H1238 H 0.17036 0.02823 0.59018 0.0
H1239 H 0.1827 0.00281 0.56501 0.0
H1240 H 0.237 0.96398 0.59669 0.0
C1241 C 0.20192 0.01365 0.65341 0.0
C1242 C 0.18255 0.02995 0.65824 0.0
C1243 C 0.16804 0.04195 0.64556 0.0
C1244 C 0.17214 0.03728 0.62831 0.0
C1245 C 0.19095 0.02066 0.62393 0.0
C1246 C 0.20575 0.00912 0.63607 0.0
C1247 C 0.2233 0.99053 0.62781 0.0
C1248 C 0.25072 0.99857 0.63174 0.0
C1249 C 0.21861 0.96392 0.63332 0.0
C1250 C 0.21545 0.99285 0.60918 0.0
C1251 C 0.19693 0.01055 0.60726 0.0
C1252 C 0.18518 0.01468 0.59146 0.0
C1253 C 0.19225 1.00009 0.57725 0.0
C1254 C 0.21097 0.98166 0.5789 0.0
C1255 C 0.22305 0.97836 0.59502 0.0
H1256 H 0.61609 0.46553 0.90523 0.0
H1257 H 0.5943 0.39135 0.88422 0.0
H1258 H 0.60761 0.3738 0.91152 0.0
H1259 H 0.67115 0.44744 0.92764 0.0
H1260 H 0.66804 0.46935 0.94563 0.0
H1261 H 0.65459 0.47633 0.92501 0.0
H1262 H 0.61121 0.48219 0.93751 0.0
H1263 H 0.62455 0.47521 0.9582 0.0
H1264 H 0.59814 0.45737 0.94871 0.0
H1265 H 0.62684 0.36383 0.94028 0.0
H1266 H 0.64976 0.36242 0.96835 0.0
H1267 H 0.65872 0.44313 0.97059 0.0
C1268 C 0.61396 0.44561 0.90639 0.0
C1269 C 0.60405 0.42984 0.89256 0.0
C1270 C 0.60145 0.40389 0.89468 0.0
C1271 C 0.60907 0.39372 0.91013 0.0
C1272 C 0.61909 0.40975 0.9234 0.0
C1273 C 0.6214 0.43517 0.92172 0.0
C1274 C 0.6338 0.44819 0.93764 0.0
C1275 C 0.65835 0.46108 0.93374 0.0
C1276 C 0.61585 0.46684 0.94601 0.0
C1277 C 0.63866 0.42604 0.9484 0.0
C1278 C 0.62991 0.40405 0.94001 0.0
C1279 C 0.63348 0.38098 0.94705 0.0
C1280 C 0.64654 0.38035 0.963 0.0
C1281 C 0.65587 0.40266 0.97174 0.0
C1282 C 0.65152 0.42578 0.96437 0.0
H1283 H 0.6785 0.1026 0.15205 0.0
H1284 H 0.69321 0.17035 0.12674 0.0
H1285 H 0.71071 0.19038 0.15391 0.0
H1286 H 0.65956 0.13314 0.19087 0.0
H1287 H 0.67393 0.11061 0.20438 0.0
H1288 H 0.66318 0.10121 0.18286 0.0
H1289 H 0.7074 0.08479 0.17681 0.0
H1290 H 0.71827 0.09406 0.19833 0.0
H1291 H 0.73403 0.10546 0.18076 0.0
H1292 H 0.72672 0.20294 0.18344 0.0
H1293 H 0.73951 0.20795 0.21395 0.0
H1294 H 0.71352 0.13246 0.22064 0.0
C1295 C 0.68561 0.12157 0.15224 0.0
C1296 C 0.68453 0.13498 0.13733 0.0
C1297 C 0.6937 0.15987 0.13807 0.0
C1298 C 0.70375 0.17134 0.15341 0.0
C1299 C 0.70438 0.15771 0.1679 0.0
C1300 C 0.69551 0.13341 0.1675 0.0
C1301 C 0.69793 0.12321 0.18503 0.0
C1302 C 0.67211 0.11666 0.19114 0.0
C1303 C 0.71545 0.10054 0.18524 0.0
C1304 C 0.70953 0.14558 0.19532 0.0
C1305 C 0.7132 0.16519 0.18512 0.0
C1306 C 0.72392 0.18775 0.19158 0.0
C1307 C 0.73115 0.19038 0.20894 0.0
C1308 C 0.72748 0.17061 0.21971 0.0
C1309 C 0.71643 0.14796 0.21276 0.0
H1310 H 0.01519 0.14031 0.40198 0.0
H1311 H 0.04827 0.21089 0.39028 0.0
H1312 H 0.03113 0.23122 0.41601 0.0
H1313 H 0.95958 0.16402 0.41689 0.0
H1314 H 0.95793 0.14265 0.43358 0.0
H1315 H 0.97375 0.13361 0.41472 0.0
H1316 H 0.01409 0.12449 0.4331 0.0
H1317 H 0.99832 0.13326 0.45206 0.0
H1318 H 0.02724 0.1485 0.44805 0.0
H1319 H 0.00765 0.2442 0.44239 0.0
H1320 H 0.98213 0.24787 0.46761 0.0
H1321 H 0.967 0.16807 0.46205 0.0
C1322 C 0.01952 0.1599 0.40498 0.0
C1323 C 0.03323 0.17391 0.39405 0.0
C1324 C 0.03763 0.19973 0.39832 0.0
C1325 C 0.02808 0.21144 0.41296 0.0
C1326 C 0.01437 0.19703 0.42329 0.0
C1327 C 0.01039 0.17175 0.41954 0.0
C1328 C 0.99467 0.16038 0.43239 0.0
C1329 C 0.97003 0.14954 0.42388 0.0
C1330 C 0.00947 0.14048 0.44197 0.0
C1331 C 0.99012 0.18326 0.44389 0.0
C1332 C 0.00152 0.20429 0.43849 0.0
C1333 C 0.99889 0.22777 0.44683 0.0
C1334 C 0.98432 0.22971 0.46109 0.0
C1335 C 0.97275 0.20824 0.46686 0.0
C1336 C 0.97584 0.1848 0.45811 0.0
H1337 H 0.93649 0.53709 0.6478 0.0
H1338 H 0.87833 0.50445 0.61241 0.0
H1339 H 0.85646 0.48942 0.6364 0.0
H1340 H 0.94085 0.48642 0.673 0.0
H1341 H 0.947 0.50455 0.69282 0.0
H1342 H 0.95562 0.51675 0.67326 0.0
H1343 H 0.92944 0.55649 0.67953 0.0
H1344 H 0.92071 0.54437 0.69916 0.0
H1345 H 0.89687 0.55335 0.68363 0.0
H1346 H 0.84328 0.47367 0.66401 0.0
H1347 H 0.84119 0.45727 0.69254 0.0
H1348 H 0.90922 0.49807 0.70943 0.0
C1349 C 0.91903 0.52702 0.64502 0.0
C1350 C 0.90917 0.5222 0.6281 0.0
C1351 C 0.88611 0.50902 0.6252 0.0
C1352 C 0.87354 0.50024 0.63879 0.0
C1353 C 0.8842 0.50473 0.65524 0.0
C1354 C 0.90644 0.51784 0.65839 0.0
C1355 C 0.91535 0.51794 0.67697 0.0
C1356 C 0.94122 0.50568 0.67913 0.0
C1357 C 0.9156 0.54463 0.68531 0.0
C1358 C 0.89513 0.5021 0.68366 0.0
C1359 C 0.87703 0.49508 0.67104 0.0
C1360 C 0.85719 0.47932 0.67405 0.0
C1361 C 0.85613 0.47011 0.69029 0.0
C1362 C 0.87501 0.47641 0.7032 0.0
C1363 C 0.89442 0.49301 0.69986 0.0
H1364 H 0.65183 0.10819 0.37553 0.0
H1365 H 0.63627 0.1849 0.39241 0.0
H1366 H 0.64958 0.19918 0.36525 0.0
H1367 H 0.70733 0.12127 0.35684 0.0
H1368 H 0.70272 0.09831 0.33926 0.0
H1369 H 0.68873 0.09365 0.35898 0.0
H1370 H 0.64504 0.08926 0.34304 0.0
H1371 H 0.65893 0.09385 0.32321 0.0
H1372 H 0.63385 0.11375 0.3299 0.0
H1373 H 0.66912 0.20575 0.33779 0.0
H1374 H 0.69262 0.2039 0.31178 0.0
H1375 H 0.69586 0.12305 0.31277 0.0
C1376 C 0.65091 0.12797 0.37345 0.0
C1377 C 0.64279 0.14537 0.38613 0.0
C1378 C 0.64187 0.17109 0.38282 0.0
C1379 C 0.64955 0.17943 0.36744 0.0
C1380 C 0.65798 0.16185 0.35541 0.0
C1381 C 0.65855 0.13662 0.35818 0.0
C1382 C 0.67004 0.12179 0.3437 0.0
C1383 C 0.6936 0.10795 0.35008 0.0
C1384 C 0.65081 0.10359 0.33441 0.0
C1385 C 0.67653 0.14269 0.3326 0.0
C1386 C 0.66922 0.16564 0.33951 0.0
C1387 C 0.67459 0.18786 0.33212 0.0
C1388 C 0.68801 0.18662 0.31737 0.0
C1389 C 0.69591 0.16333 0.31017 0.0
C1390 C 0.68973 0.1411 0.31781 0.0
H1391 H 0.96132 0.17976 0.64031 0.0
H1392 H 0.03622 0.15534 0.6301 0.0
H1393 H 0.02799 0.16321 0.59961 0.0
H1394 H 0.92971 0.15566 0.60038 0.0
H1395 H 0.90958 0.18242 0.59882 0.0
H1396 H 0.92077 0.17283 0.6194 0.0
H1397 H 0.93905 0.21725 0.62699 0.0
H1398 H 0.92805 0.22694 0.60641 0.0
H1399 H 0.96067 0.23034 0.61324 0.0
H1400 H 0.01155 0.17422 0.57044 0.0
H1401 H 0.98917 0.18982 0.54493 0.0
H1402 H 0.92596 0.20974 0.57477 0.0
C1403 C 0.97575 0.17569 0.63153 0.0
C1404 C 0.99922 0.16659 0.63729 0.0
C1405 C 0.01805 0.16208 0.62572 0.0
C1406 C 0.01352 0.16648 0.60846 0.0
C1407 C 0.99021 0.1757 0.60314 0.0
C1408 C 0.9717 0.18042 0.61436 0.0
C1409 C 0.94888 0.19181 0.60564 0.0
C1410 C 0.92588 0.17465 0.60609 0.0
C1411 C 0.94388 0.21815 0.61354 0.0
C1412 C 0.95745 0.19282 0.58778 0.0
C1413 C 0.98121 0.18316 0.58655 0.0
C1414 C 0.99296 0.18187 0.57126 0.0
C1415 C 0.9801 0.19074 0.55684 0.0
C1416 C 0.95591 0.20111 0.5579 0.0
C1417 C 0.94453 0.20213 0.5736 0.0
H1418 H 0.94029 0.46398 0.8744 0.0
H1419 H 0.89967 0.53356 0.88203 0.0
H1420 H 0.88335 0.52947 0.85216 0.0
H1421 H 0.9547 0.46912 0.83131 0.0
H1422 H 0.94879 0.4365 0.82543 0.0
H1423 H 0.9593 0.44613 0.84695 0.0
H1424 H 0.92075 0.42448 0.85816 0.0
H1425 H 0.9102 0.41464 0.8367 0.0
H1426 H 0.8898 0.43251 0.85006 0.0
H1427 H 0.87191 0.51784 0.82089 0.0
H1428 H 0.86238 0.49697 0.79223 0.0
H1429 H 0.90545 0.43268 0.80705 0.0
C1430 C 0.9277 0.47832 0.87007 0.0
C1431 C 0.9216 0.49924 0.88082 0.0
C1432 C 0.90538 0.51765 0.87413 0.0
C1433 C 0.89578 0.51543 0.85714 0.0
C1434 C 0.90213 0.49446 0.84705 0.0
C1435 C 0.91736 0.47604 0.85339 0.0
C1436 C 0.91997 0.45443 0.8404 0.0
C1437 C 0.94732 0.45138 0.83575 0.0
C1438 C 0.90955 0.43008 0.84671 0.0
C1439 C 0.90377 0.46354 0.82573 0.0
C1440 C 0.89404 0.48691 0.82963 0.0
C1441 C 0.87923 0.49944 0.81776 0.0
C1442 C 0.87398 0.48756 0.80156 0.0
C1443 C 0.88302 0.46326 0.79769 0.0
C1444 C 0.89811 0.45118 0.80988 0.0
H1445 H 0.65685 0.45096 0.13448 0.0
H1446 H 0.6733 0.38041 0.15699 0.0
H1447 H 0.68289 0.36159 0.12891 0.0
H1448 H 0.62817 0.42458 0.09459 0.0
H1449 H 0.64147 0.4476 0.08197 0.0
H1450 H 0.63518 0.45562 0.10379 0.0
H1451 H 0.6814 0.46929 0.11024 0.0
H1452 H 0.68781 0.46137 0.08844 0.0
H1453 H 0.706 0.44761 0.1054 0.0
H1454 H 0.69178 0.35058 0.09897 0.0
H1455 H 0.69965 0.34777 0.06857 0.0
H1456 H 0.67777 0.42539 0.06485 0.0
C1457 C 0.66254 0.43158 0.13349 0.0
C1458 C 0.66411 0.4171 0.14794 0.0
C1459 C 0.67149 0.39175 0.14608 0.0
C1460 C 0.67712 0.38092 0.1302 0.0
C1461 C 0.6753 0.39565 0.11625 0.0
C1462 C 0.6682 0.42041 0.11768 0.0
C1463 C 0.66811 0.43206 0.10061 0.0
C1464 C 0.64165 0.44045 0.09491 0.0
C1465 C 0.68695 0.45387 0.10121 0.0
C1466 C 0.67646 0.40999 0.08944 0.0
C1467 C 0.68044 0.38921 0.09878 0.0
C1468 C 0.68867 0.36668 0.09149 0.0
C1469 C 0.69313 0.36532 0.07418 0.0
C1470 C 0.68934 0.38636 0.06427 0.0
C1471 C 0.6807 0.40894 0.07204 0.0
loop_
_geom_bond_atom_site_label_1
_geom_bond_atom_site_label_2
_geom_bond_distance
_geom_bond_site_symmetry_2
_ccdc_geom_bond_type
H0 C27 0.929 . S
N1 C26 1.433 . S
N1 C32 1.435 . S
N1 C38 1.423 . S
H2 C28 0.930 . S
H3 C31 0.931 . S
H4 C30 0.929 . S
H5 C33 0.930 . S
H6 C34 0.932 . S
H7 C37 0.929 . S
H8 C36 0.931 . S
H9 C39 0.929 . S
H10 C43 0.932 . S
H11 C40 0.931 . S
H12 C42 0.929 . S
H13 C45 0.929 . S
H14 C46 0.930 . S
H15 C48 0.929 1_455 S
H16 C49 0.931 . S
H17 C51 0.930 . S
H18 C52 0.932 . S
H19 C54 0.931 1_455 S
H20 C55 0.929 . S
H21 C57 0.929 . S
H22 C58 0.931 . S
H23 C60 0.929 . S
N24 C44 1.433 . S
N24 C50 1.421 1_455 S
N24 C56 1.423 . S
H25 C61 0.932 . S
C26 N1 1.433 . S
C26 C27 1.363 . S
C26 C31 1.370 . S
C27 H0 0.929 . S
C27 C26 1.363 . S
C27 C28 1.385 . S
C28 H2 0.930 . S
C28 C27 1.385 . S
C28 C29 1.357 . S
C29 C28 1.357 . S
C29 C30 1.406 . S
C30 H4 0.929 . S
C30 C29 1.406 . S
C30 C31 1.391 . S
C31 H3 0.931 . S
C31 C26 1.370 . S
C31 C30 1.391 . S
C32 N1 1.435 . S
C32 C33 1.358 . S
C32 C37 1.371 . S
C33 H5 0.930 . S
C33 C32 1.358 . S
C33 C34 1.405 . S
C34 H6 0.932 . S
C34 C33 1.405 . S
C34 C35 1.383 . S
C35 C34 1.383 . S
C35 C36 1.393 . S
C36 H8 0.931 . S
C36 C35 1.393 . S
C36 C37 1.382 . S
C37 H7 0.929 . S
C37 C32 1.371 . S
C37 C36 1.382 . S
C38 N1 1.423 . S
C38 C39 1.362 1_565 S
C38 C43 1.388 . S
C39 H9 0.929 . S
C39 C38 1.362 1_545 S
C39 C40 1.376 . S
C40 H11 0.931 . S
C40 C39 1.376 . S
C40 C41 1.396 . S
C41 C40 1.396 . S
C41 C42 1.348 . S
C41 C59 1.472 . S
C42 H12 0.929 . S
C42 C41 1.348 . S
C42 C43 1.443 1_545 S
C43 H10 0.932 . S
C43 C38 1.388 . S
C43 C42 1.443 1_565 S
C44 N24 1.433 . S
C44 C45 1.363 1_455 S
C44 C49 1.370 . S
C45 H13 0.929 . S
C45 C44 1.363 1_655 S
C45 C46 1.385 . S
C46 H14 0.930 . S
C46 C45 1.385 . S
C46 C47 1.357 . S
C47 C46 1.357 . S
C47 C48 1.419 . S
C48 H15 0.929 1_655 S
C48 C47 1.419 . S
C48 C49 1.381 1_655 S
C49 H16 0.931 . S
C49 C44 1.370 . S
C49 C48 1.381 1_455 S
C50 N24 1.421 1_655 S
C50 C51 1.384 . S
C50 C55 1.359 1_655 S
C51 H17 0.930 . S
C51 C50 1.384 . S
C51 C52 1.405 . S
C52 H18 0.932 . S
C52 C51 1.405 . S
C52 C53 1.383 . S
C53 C52 1.383 . S
C53 C54 1.393 . S
C54 H19 0.931 1_655 S
C54 C53 1.393 . S
C54 C55 1.382 1_655 S
C55 H20 0.929 . S
C55 C50 1.359 1_455 S
C55 C54 1.382 1_455 S
C56 N24 1.423 . S
C56 C57 1.362 . S
C56 C61 1.388 . S
C57 H21 0.929 . S
C57 C56 1.362 . S
C57 C58 1.376 . S
C58 H22 0.931 . S
C58 C57 1.376 . S
C58 C59 1.396 . S
C59 C41 1.472 . S
C59 C58 1.396 . S
C59 C60 1.348 . S
C60 H23 0.929 . S
C60 C59 1.348 . S
C60 C61 1.443 . S
C61 H25 0.932 . S
C61 C56 1.388 . S
C61 C60 1.443 . S
H62 C89 0.929 . S
N63 C88 1.433 . S
N63 C94 1.435 . S
N63 C100 1.423 1_655 S
H64 C90 0.930 . S
H65 C93 0.931 . S
H66 C92 0.929 . S
H67 C95 0.930 . S
H68 C96 0.932 . S
H69 C99 0.909 1_455 S
H70 C98 0.931 1_455 S
H71 C101 0.929 . S
H72 C105 0.911 1_655 S
H73 C102 0.931 . S
H74 C104 0.929 . S
H75 C107 0.929 . S
H76 C108 0.930 . S
H77 C110 0.929 . S
H78 C111 0.931 . S
H79 C113 0.930 . S
H80 C114 0.932 . S
H81 C116 0.931 . S
H82 C117 0.929 . S
H83 C119 0.929 . S
H84 C120 0.931 . S
H85 C122 0.929 . S
N86 C106 1.433 . S
N86 C112 1.435 . S
N86 C118 1.423 . S
H87 C123 0.932 . S
C88 N63 1.433 . S
C88 C89 1.363 . S
C88 C93 1.370 . S
C89 H62 0.929 . S
C89 C88 1.363 . S
C89 C90 1.385 . S
C90 H64 0.930 . S
C90 C89 1.385 . S
C90 C91 1.357 . S
C91 C90 1.357 . S
C91 C92 1.406 . S
C92 H66 0.929 . S
C92 C91 1.406 . S
C92 C93 1.391 . S
C93 H65 0.931 . S
C93 C88 1.370 . S
C93 C92 1.391 . S
C94 N63 1.435 . S
C94 C95 1.358 . S
C94 C99 1.385 . S
C95 H67 0.930 . S
C95 C94 1.358 . S
C95 C96 1.405 . S
C96 H68 0.932 . S
C96 C95 1.405 . S
C96 C97 1.383 . S
C97 C96 1.383 . S
C97 C98 1.393 . S
C98 H70 0.931 1_655 S
C98 C97 1.393 . S
C98 C99 1.388 . S
C99 H69 0.909 1_655 S
C99 C94 1.385 . S
C99 C98 1.388 . S
C100 N63 1.423 1_455 S
C100 C101 1.362 . S
C100 C105 1.388 . S
C101 H71 0.929 . S
C101 C100 1.362 . S
C101 C102 1.376 . S
C102 H73 0.931 . S
C102 C101 1.376 . S
C102 C103 1.396 . S
C103 C102 1.396 . S
C103 C104 1.348 . S
C103 C121 1.472 . S
C104 H74 0.929 . S
C104 C103 1.348 . S
C104 C105 1.443 . S
C105 H72 0.911 1_455 S
C105 C100 1.388 . S
C105 C104 1.443 . S
C106 N86 1.433 . S
C106 C107 1.363 . S
C106 C111 1.370 . S
C107 H75 0.929 . S
C107 C106 1.363 . S
C107 C108 1.385 . S
C108 H76 0.930 . S
C108 C107 1.385 . S
C108 C109 1.357 . S
C109 C108 1.357 . S
C109 C110 1.406 . S
C110 H77 0.929 . S
C110 C109 1.406 . S
C110 C111 1.391 . S
C111 H78 0.931 . S
C111 C106 1.370 . S
C111 C110 1.391 . S
C112 N86 1.435 . S
C112 C113 1.358 . S
C112 C117 1.371 . S
C113 H79 0.930 . S
C113 C112 1.358 . S
C113 C114 1.405 . S
C114 H80 0.932 . S
C114 C113 1.405 . S
C114 C115 1.383 . S
C115 C114 1.383 . S
C115 C116 1.393 . S
C116 H81 0.931 . S
C116 C115 1.393 . S
C116 C117 1.382 . S
C117 H82 0.929 . S
C117 C112 1.371 . S
C117 C116 1.382 . S
C118 N86 1.423 . S
C118 C119 1.362 . S
C118 C123 1.388 . S
C119 H83 0.929 . S
C119 C118 1.362 . S
C119 C120 1.376 . S
C120 H84 0.931 . S
C120 C119 1.376 . S
C120 C121 1.396 . S
C121 C103 1.472 . S
C121 C120 1.396 . S
C121 C122 1.348 . S
C122 H85 0.929 . S
C122 C121 1.348 . S
C122 C123 1.443 . S
C123 H87 0.932 . S
C123 C118 1.388 . S
C123 C122 1.443 . S
H124 C151 0.929 . S
N125 C150 1.433 . S
N125 C156 1.435 . S
N125 C162 1.423 . S
H126 C152 0.930 . S
H127 C155 0.931 . S
H128 C154 0.929 . S
H129 C157 0.930 . S
H130 C158 0.932 . S
H131 C161 0.929 . S
H132 C160 0.931 . S
H133 C163 0.929 . S
H134 C167 0.932 . S
H135 C164 0.931 . S
H136 C166 0.929 . S
H137 C169 0.929 . S
H138 C170 0.930 . S
H139 C172 0.929 . S
H140 C173 0.931 . S
H141 C175 0.930 . S
H142 C176 0.932 . S
H143 C178 0.931 . S
H144 C179 0.929 . S
H145 C181 0.929 . S
H146 C182 0.931 . S
H147 C184 0.929 . S
N148 C168 1.433 . S
N148 C174 1.435 . S
N148 C180 1.423 . S
H149 C185 0.932 . S
C150 N125 1.433 . S
C150 C151 1.363 . S
C150 C155 1.370 . S
C151 H124 0.929 . S
C151 C150 1.363 . S
C151 C152 1.385 . S
C152 H126 0.930 . S
C152 C151 1.385 . S
C152 C153 1.357 . S
C153 C152 1.357 . S
C153 C154 1.406 . S
C154 H128 0.929 . S
C154 C153 1.406 . S
C154 C155 1.391 . S
C155 H127 0.931 . S
C155 C150 1.370 . S
C155 C154 1.391 . S
C156 N125 1.435 . S
C156 C157 1.358 . S
C156 C161 1.371 . S
C157 H129 0.930 . S
C157 C156 1.358 . S
C157 C158 1.405 . S
C158 H130 0.932 . S
C158 C157 1.405 . S
C158 C159 1.383 . S
C159 C158 1.383 . S
C159 C160 1.393 . S
C160 H132 0.931 . S
C160 C159 1.393 . S
C160 C161 1.382 . S
C161 H131 0.929 . S
C161 C156 1.371 . S
C161 C160 1.382 . S
C162 N125 1.423 . S
C162 C163 1.362 . S
C162 C167 1.388 . S
C163 H133 0.929 . S
C163 C162 1.362 . S
C163 C164 1.376 . S
C164 H135 0.931 . S
C164 C163 1.376 . S
C164 C165 1.396 . S
C165 C164 1.396 . S
C165 C166 1.348 . S
C165 C183 1.472 . S
C166 H136 0.929 . S
C166 C165 1.348 . S
C166 C167 1.443 . S
C167 H134 0.932 . S
C167 C162 1.388 . S
C167 C166 1.443 . S
C168 N148 1.433 . S
C168 C169 1.363 . S
C168 C173 1.370 . S
C169 H137 0.929 . S
C169 C168 1.363 . S
C169 C170 1.385 . S
C170 H138 0.930 . S
C170 C169 1.385 . S
C170 C171 1.357 . S
C171 C170 1.357 . S
C171 C172 1.406 . S
C172 H139 0.929 . S
C172 C171 1.406 . S
C172 C173 1.391 . S
C173 H140 0.931 . S
C173 C168 1.370 . S
C173 C172 1.391 . S
C174 N148 1.435 . S
C174 C175 1.358 . S
C174 C179 1.371 . S
C175 H141 0.930 . S
C175 C174 1.358 . S
C175 C176 1.405 . S
C176 H142 0.932 . S
C176 C175 1.405 . S
C176 C177 1.383 . S
C177 C176 1.383 . S
C177 C178 1.393 . S
C178 H143 0.931 . S
C178 C177 1.393 . S
C178 C179 1.382 . S
C179 H144 0.929 . S
C179 C174 1.371 . S
C179 C178 1.382 . S
C180 N148 1.423 . S
C180 C181 1.362 . S
C180 C185 1.388 . S
C181 H145 0.929 . S
C181 C180 1.362 . S
C181 C182 1.376 . S
C182 H146 0.931 . S
C182 C181 1.376 . S
C182 C183 1.396 . S
C183 C165 1.472 . S
C183 C182 1.396 . S
C183 C184 1.348 . S
C184 H147 0.929 . S
C184 C183 1.348 . S
C184 C185 1.443 . S
C185 H149 0.932 . S
C185 C180 1.388 . S
C185 C184 1.443 . S
H186 C213 0.929 . S
N187 C212 1.433 . S
N187 C218 1.435 . S
N187 C224 1.423 . S
H188 C214 0.930 . S
H189 C217 0.931 . S
H190 C216 0.929 . S
H191 C219 0.930 . S
H192 C220 0.932 . S
H193 C223 0.929 . S
H194 C222 0.931 . S
H195 C225 0.929 . S
H196 C229 0.932 . S
H197 C226 0.931 . S
H198 C228 0.929 . S
H199 C231 0.929 . S
H200 C232 0.930 . S
H201 C234 0.929 . S
H202 C235 0.931 . S
H203 C237 0.930 . S
H204 C238 0.932 . S
H205 C240 0.931 . S
H206 C241 0.929 . S
H207 C243 0.929 . S
H208 C244 0.931 1_565 S
H209 C246 0.929 . S
N210 C230 1.433 . S
N210 C236 1.435 . S
N210 C242 1.423 . S
H211 C247 0.932 . S
C212 N187 1.433 . S
C212 C213 1.363 . S
C212 C217 1.370 . S
C213 H186 0.929 . S
C213 C212 1.363 . S
C213 C214 1.385 . S
C214 H188 0.930 . S
C214 C213 1.385 . S
C214 C215 1.357 . S
C215 C214 1.357 . S
C215 C216 1.406 . S
C216 H190 0.929 . S
C216 C215 1.406 . S
C216 C217 1.391 . S
C217 H189 0.931 . S
C217 C212 1.370 . S
C217 C216 1.391 . S
C218 N187 1.435 . S
C218 C219 1.358 . S
C218 C223 1.371 . S
C219 H191 0.930 . S
C219 C218 1.358 . S
C219 C220 1.405 . S
C220 H192 0.932 . S
C220 C219 1.405 . S
C220 C221 1.383 . S
C221 C220 1.383 . S
C221 C222 1.393 . S
C222 H194 0.931 . S
C222 C221 1.393 . S
C222 C223 1.382 . S
C223 H193 0.929 . S
C223 C218 1.371 . S
C223 C222 1.382 . S
C224 N187 1.423 . S
C224 C225 1.362 . S
C224 C229 1.388 . S
C225 H195 0.929 . S
C225 C224 1.362 . S
C225 C226 1.376 . S
C226 H197 0.931 . S
C226 C225 1.376 . S
C226 C227 1.396 . S
C227 C226 1.396 . S
C227 C228 1.348 . S
C227 C245 1.470 1_565 S
C228 H198 0.929 . S
C228 C227 1.348 . S
C228 C229 1.443 . S
C229 H196 0.932 . S
C229 C224 1.388 . S
C229 C228 1.443 . S
C230 N210 1.433 . S
C230 C231 1.363 . S
C230 C235 1.370 . S
C231 H199 0.929 . S
C231 C230 1.363 . S
C231 C232 1.385 . S
C232 H200 0.930 . S
C232 C231 1.385 . S
C232 C233 1.357 . S
C233 C232 1.357 . S
C233 C234 1.406 . S
C234 H201 0.929 . S
C234 C233 1.406 . S
C234 C235 1.391 . S
C235 H202 0.931 . S
C235 C230 1.370 . S
C235 C234 1.391 . S
C236 N210 1.435 . S
C236 C237 1.358 . S
C236 C241 1.371 . S
C237 H203 0.930 . S
C237 C236 1.358 . S
C237 C238 1.405 . S
C238 H204 0.932 . S
C238 C237 1.405 . S
C238 C239 1.383 . S
C239 C238 1.383 . S
C239 C240 1.393 . S
C240 H205 0.931 . S
C240 C239 1.393 . S
C240 C241 1.382 . S
C241 H206 0.929 . S
C241 C236 1.371 . S
C241 C240 1.382 . S
C242 N210 1.423 . S
C242 C243 1.362 . S
C242 C247 1.388 . S
C243 H207 0.929 . S
C243 C242 1.362 . S
C243 C244 1.376 . S
C244 H208 0.931 1_545 S
C244 C243 1.376 . S
C244 C245 1.396 . S
C245 C227 1.470 1_545 S
C245 C244 1.396 . S
C245 C246 1.350 . S
C246 H209 0.929 . S
C246 C245 1.350 . S
C246 C247 1.443 . S
C247 H211 0.932 . S
C247 C242 1.388 . S
C247 C246 1.443 . S
H248 C275 0.929 . S
N249 C274 1.433 . S
N249 C280 1.435 . S
N249 C286 1.423 . S
H250 C276 0.930 . S
H251 C279 0.931 . S
H252 C278 0.929 . S
H253 C281 0.930 . S
H254 C282 0.932 . S
H255 C285 0.929 . S
H256 C284 0.931 . S
H257 C287 0.929 . S
H258 C291 0.932 . S
H259 C288 0.931 . S
H260 C290 0.929 . S
H261 C293 0.929 . S
H262 C294 0.930 . S
H263 C296 0.929 . S
H264 C297 0.931 . S
H265 C299 0.930 . S
H266 C300 0.932 . S
H267 C302 0.937 . S
H268 C303 0.929 . S
H269 C305 0.929 . S
H270 C306 0.916 1_455 S
H271 C308 0.929 . S
N272 C292 1.433 . S
N272 C298 1.435 . S
N272 C304 1.423 . S
H273 C309 0.932 . S
C274 N249 1.433 . S
C274 C275 1.363 . S
C274 C279 1.370 . S
C275 H248 0.929 . S
C275 C274 1.363 . S
C275 C276 1.385 . S
C276 H250 0.930 . S
C276 C275 1.385 . S
C276 C277 1.357 . S
C277 C276 1.357 . S
C277 C278 1.406 . S
C278 H252 0.929 . S
C278 C277 1.406 . S
C278 C279 1.391 . S
C279 H251 0.931 . S
C279 C274 1.370 . S
C279 C278 1.391 . S
C280 N249 1.435 . S
C280 C281 1.358 . S
C280 C285 1.371 . S
C281 H253 0.930 . S
C281 C280 1.358 . S
C281 C282 1.405 1_556 S
C282 H254 0.932 . S
C282 C281 1.405 1_554 S
C282 C283 1.383 . S
C283 C282 1.383 . S
C283 C284 1.393 . S
C284 H256 0.931 . S
C284 C283 1.393 . S
C284 C285 1.382 1_554 S
C285 H255 0.929 . S
C285 C280 1.371 . S
C285 C284 1.382 1_556 S
C286 N249 1.423 . S
C286 C287 1.362 . S
C286 C291 1.388 . S
C287 H257 0.929 . S
C287 C286 1.362 . S
C287 C288 1.376 . S
C288 H259 0.931 . S
C288 C287 1.376 . S
C288 C289 1.396 . S
C289 C288 1.396 . S
C289 C290 1.348 . S
C289 C307 1.472 . S
C290 H260 0.929 . S
C290 C289 1.348 . S
C290 C291 1.443 . S
C291 H258 0.932 . S
C291 C286 1.388 . S
C291 C290 1.443 . S
C292 N272 1.433 . S
C292 C293 1.363 . S
C292 C297 1.370 . S
C293 H261 0.929 . S
C293 C292 1.363 . S
C293 C294 1.385 . S
C294 H262 0.930 . S
C294 C293 1.385 . S
C294 C295 1.357 . S
C295 C294 1.357 . S
C295 C296 1.406 . S
C296 H263 0.929 . S
C296 C295 1.406 . S
C296 C297 1.391 . S
C297 H264 0.931 . S
C297 C292 1.370 . S
C297 C296 1.391 . S
C298 N272 1.435 . S
C298 C299 1.358 . S
C298 C303 1.371 . S
C299 H265 0.930 . S
C299 C298 1.358 . S
C299 C300 1.405 . S
C300 H266 0.932 . S
C300 C299 1.405 . S
C300 C301 1.383 . S
C301 C300 1.383 . S
C301 C302 1.393 . S
C302 H267 0.937 . S
C302 C301 1.393 . S
C302 C303 1.382 . S
C303 H268 0.929 . S
C303 C298 1.371 . S
C303 C302 1.382 . S
C304 N272 1.423 . S
C304 C305 1.362 . S
C304 C309 1.388 . S
C305 H269 0.929 . S
C305 C304 1.362 . S
C305 C306 1.393 . S
C306 H270 0.916 1_655 S
C306 C305 1.393 . S
C306 C307 1.394 1_655 S
C307 C289 1.472 . S
C307 C306 1.394 1_455 S
C307 C308 1.348 1_455 S
C308 H271 0.929 . S
C308 C307 1.348 1_655 S
C308 C309 1.443 . S
C309 H273 0.932 . S
C309 C304 1.388 . S
C309 C308 1.443 . S
H310 C337 0.929 . S
N311 C336 1.433 . S
N311 C342 1.435 . S
N311 C348 1.423 . S
H312 C338 0.930 . S
H313 C341 0.931 . S
H314 C340 0.929 . S
H315 C343 0.930 . S
H316 C344 0.932 . S
H317 C347 0.929 . S
H318 C346 0.931 . S
H319 C349 0.929 . S
H320 C353 0.932 . S
H321 C350 0.931 . S
H322 C352 0.929 . S
H323 C355 0.929 . S
H324 C356 0.930 . S
H325 C358 0.929 . S
H326 C359 0.931 . S
H327 C361 0.930 . S
H328 C362 0.932 . S
H329 C364 0.931 . S
H330 C365 0.929 . S
H331 C367 0.929 . S
H332 C368 0.931 . S
H333 C370 0.929 . S
N334 C354 1.433 . S
N334 C360 1.435 . S
N334 C366 1.423 . S
H335 C371 0.932 . S
C336 N311 1.433 . S
C336 C337 1.363 . S
C336 C341 1.370 . S
C337 H310 0.929 . S
C337 C336 1.363 . S
C337 C338 1.385 . S
C338 H312 0.930 . S
C338 C337 1.385 . S
C338 C339 1.357 . S
C339 C338 1.357 . S
C339 C340 1.406 . S
C340 H314 0.929 . S
C340 C339 1.406 . S
C340 C341 1.391 . S
C341 H313 0.931 . S
C341 C336 1.370 . S
C341 C340 1.391 . S
C342 N311 1.435 . S
C342 C343 1.358 . S
C342 C347 1.371 . S
C343 H315 0.930 . S
C343 C342 1.358 . S
C343 C344 1.405 . S
C344 H316 0.932 . S
C344 C343 1.405 . S
C344 C345 1.383 . S
C345 C344 1.383 . S
C345 C346 1.393 . S
C346 H318 0.931 . S
C346 C345 1.393 . S
C346 C347 1.382 . S
C347 H317 0.929 . S
C347 C342 1.371 . S
C347 C346 1.382 . S
C348 N311 1.423 . S
C348 C349 1.362 . S
C348 C353 1.388 . S
C349 H319 0.929 . S
C349 C348 1.362 . S
C349 C350 1.376 . S
C350 H321 0.931 . S
C350 C349 1.376 . S
C350 C351 1.396 . S
C351 C350 1.396 . S
C351 C352 1.348 . S
C351 C369 1.472 . S
C352 H322 0.929 . S
C352 C351 1.348 . S
C352 C353 1.443 . S
C353 H320 0.932 . S
C353 C348 1.388 . S
C353 C352 1.443 . S
C354 N334 1.433 . S
C354 C355 1.363 . S
C354 C359 1.370 . S
C355 H323 0.929 . S
C355 C354 1.363 . S
C355 C356 1.385 . S
C356 H324 0.930 . S
C356 C355 1.385 . S
C356 C357 1.357 . S
C357 C356 1.357 . S
C357 C358 1.406 . S
C358 H325 0.929 . S
C358 C357 1.406 . S
C358 C359 1.391 . S
C359 H326 0.931 . S
C359 C354 1.370 . S
C359 C358 1.391 . S
C360 N334 1.435 . S
C360 C361 1.358 . S
C360 C365 1.371 . S
C361 H327 0.930 . S
C361 C360 1.358 . S
C361 C362 1.405 . S
C362 H328 0.932 . S
C362 C361 1.405 . S
C362 C363 1.383 . S
C363 C362 1.383 . S
C363 C364 1.393 . S
C364 H329 0.931 . S
C364 C363 1.393 . S
C364 C365 1.382 . S
C365 H330 0.929 . S
C365 C360 1.371 . S
C365 C364 1.382 . S
C366 N334 1.423 . S
C366 C367 1.362 . S
C366 C371 1.388 . S
C367 H331 0.929 . S
C367 C366 1.362 . S
C367 C368 1.376 . S
C368 H332 0.931 . S
C368 C367 1.376 . S
C368 C369 1.396 . S
C369 C351 1.472 . S
C369 C368 1.396 . S
C369 C370 1.348 . S
C370 H333 0.929 . S
C370 C369 1.348 . S
C370 C371 1.443 . S
C371 H335 0.932 . S
C371 C366 1.388 . S
C371 C370 1.443 . S
H372 C399 0.929 . S
N373 C398 1.433 . S
N373 C404 1.435 . S
N373 C410 1.423 . S
H374 C400 0.930 . S
H375 C403 0.931 . S
H376 C402 0.929 . S
H377 C405 0.930 . S
H378 C406 0.932 . S
H379 C409 0.929 1_545 S
H380 C408 0.931 . S
H381 C411 0.929 . S
H382 C415 0.932 . S
H383 C412 0.931 . S
H384 C414 0.929 . S
H385 C417 0.929 . S
H386 C418 0.930 . S
H387 C420 0.929 . S
H388 C421 0.931 . S
H389 C423 0.930 . S
H390 C424 0.932 . S
H391 C426 0.931 . S
H392 C427 0.929 . S
H393 C429 0.929 . S
H394 C430 0.931 . S
H395 C432 0.929 . S
N396 C416 1.433 . S
N396 C422 1.435 . S
N396 C428 1.423 . S
H397 C433 0.932 . S
C398 N373 1.433 . S
C398 C399 1.363 . S
C398 C403 1.370 . S
C399 H372 0.929 . S
C399 C398 1.363 . S
C399 C400 1.385 . S
C400 H374 0.930 . S
C400 C399 1.385 . S
C400 C401 1.357 . S
C401 C400 1.357 . S
C401 C402 1.406 . S
C402 H376 0.929 . S
C402 C401 1.406 . S
C402 C403 1.391 . S
C403 H375 0.931 . S
C403 C398 1.370 . S
C403 C402 1.391 . S
C404 N373 1.435 . S
C404 C405 1.358 . S
C404 C409 1.371 . S
C405 H377 0.930 . S
C405 C404 1.358 . S
C405 C406 1.405 . S
C406 H378 0.932 . S
C406 C405 1.405 . S
C406 C407 1.383 . S
C407 C406 1.383 . S
C407 C408 1.393 . S
C408 H380 0.931 . S
C408 C407 1.393 . S
C408 C409 1.382 . S
C409 H379 0.929 1_565 S
C409 C404 1.371 . S
C409 C408 1.382 . S
C410 N373 1.423 . S
C410 C411 1.362 1_565 S
C410 C415 1.388 . S
C411 H381 0.929 . S
C411 C410 1.362 1_545 S
C411 C412 1.376 . S
C412 H383 0.931 . S
C412 C411 1.376 . S
C412 C413 1.396 . S
C413 C412 1.396 . S
C413 C414 1.348 . S
C413 C431 1.472 . S
C414 H384 0.929 . S
C414 C413 1.348 . S
C414 C415 1.443 1_545 S
C415 H382 0.932 . S
C415 C410 1.388 . S
C415 C414 1.443 1_565 S
C416 N396 1.433 . S
C416 C417 1.363 . S
C416 C421 1.370 . S
C417 H385 0.929 . S
C417 C416 1.363 . S
C417 C418 1.385 . S
C418 H386 0.930 . S
C418 C417 1.385 . S
C418 C419 1.357 . S
C419 C418 1.357 . S
C419 C420 1.406 . S
C420 H387 0.929 . S
C420 C419 1.406 . S
C420 C421 1.391 . S
C421 H388 0.931 . S
C421 C416 1.370 . S
C421 C420 1.391 . S
C422 N396 1.435 . S
C422 C423 1.358 . S
C422 C427 1.371 . S
C423 H389 0.930 . S
C423 C422 1.358 . S
C423 C424 1.405 . S
C424 H390 0.932 . S
C424 C423 1.405 . S
C424 C425 1.383 . S
C425 C424 1.383 . S
C425 C426 1.393 . S
C426 H391 0.931 . S
C426 C425 1.393 . S
C426 C427 1.382 . S
C427 H392 0.929 . S
C427 C422 1.371 . S
C427 C426 1.382 . S
C428 N396 1.423 . S
C428 C429 1.362 . S
C428 C433 1.388 . S
C429 H393 0.929 . S
C429 C428 1.362 . S
C429 C430 1.376 . S
C430 H394 0.931 . S
C430 C429 1.376 . S
C430 C431 1.396 . S
C431 C413 1.472 . S
C431 C430 1.396 . S
C431 C432 1.348 . S
C432 H395 0.929 . S
C432 C431 1.348 . S
C432 C433 1.443 . S
C433 H397 0.932 . S
C433 C428 1.388 . S
C433 C432 1.443 . S
H434 C461 0.929 . S
N435 C460 1.433 . S
N435 C466 1.435 . S
N435 C472 1.423 . S
H436 C462 0.930 1_565 S
H437 C465 0.931 . S
H438 C464 0.929 . S
H439 C467 0.930 . S
H440 C468 0.932 . S
H441 C471 0.929 . S
H442 C470 0.931 . S
H443 C473 0.929 . S
H444 C477 0.932 . S
H445 C474 0.931 . S
H446 C476 0.929 . S
H447 C479 0.929 . S
H448 C480 0.930 . S
H449 C482 0.929 . S
H450 C483 0.931 . S
H451 C485 0.934 . S
H452 C486 0.932 . S
H453 C488 0.931 . S
H454 C489 0.929 . S
H455 C491 0.929 . S
H456 C492 0.931 . S
H457 C494 0.929 . S
N458 C478 1.433 . S
N458 C484 1.435 1_455 S
N458 C490 1.423 . S
H459 C495 0.932 . S
C460 N435 1.433 . S
C460 C461 1.363 . S
C460 C465 1.370 . S
C461 H434 0.929 . S
C461 C460 1.363 . S
C461 C462 1.385 . S
C462 H436 0.930 1_545 S
C462 C461 1.385 . S
C462 C463 1.357 . S
C463 C462 1.357 . S
C463 C464 1.406 . S
C464 H438 0.929 . S
C464 C463 1.406 . S
C464 C465 1.391 . S
C465 H437 0.931 . S
C465 C460 1.370 . S
C465 C464 1.391 . S
C466 N435 1.435 . S
C466 C467 1.358 . S
C466 C471 1.371 . S
C467 H439 0.930 . S
C467 C466 1.358 . S
C467 C468 1.405 . S
C468 H440 0.932 . S
C468 C467 1.405 . S
C468 C469 1.383 . S
C469 C468 1.383 . S
C469 C470 1.393 . S
C470 H442 0.931 . S
C470 C469 1.393 . S
C470 C471 1.382 . S
C471 H441 0.929 . S
C471 C466 1.371 . S
C471 C470 1.382 . S
C472 N435 1.423 . S
C472 C473 1.362 . S
C472 C477 1.388 . S
C473 H443 0.929 . S
C473 C472 1.362 . S
C473 C474 1.376 . S
C474 H445 0.931 . S
C474 C473 1.376 . S
C474 C475 1.396 . S
C475 C474 1.396 . S
C475 C476 1.348 . S
C475 C493 1.472 . S
C476 H446 0.929 . S
C476 C475 1.348 . S
C476 C477 1.443 . S
C477 H444 0.932 . S
C477 C472 1.388 . S
C477 C476 1.443 . S
C478 N458 1.433 . S
C478 C479 1.363 1_455 S
C478 C483 1.370 . S
C479 H447 0.929 . S
C479 C478 1.363 1_655 S
C479 C480 1.385 . S
C480 H448 0.930 . S
C480 C479 1.385 . S
C480 C481 1.357 1_655 S
C481 C480 1.357 1_455 S
C481 C482 1.406 . S
C482 H449 0.929 . S
C482 C481 1.406 . S
C482 C483 1.391 . S
C483 H450 0.931 . S
C483 C478 1.370 . S
C483 C482 1.391 . S
C484 N458 1.435 1_655 S
C484 C485 1.357 1_655 S
C484 C489 1.371 . S
C485 H451 0.934 . S
C485 C484 1.357 1_455 S
C485 C486 1.402 1_455 S
C486 H452 0.932 . S
C486 C485 1.402 1_655 S
C486 C487 1.383 . S
C487 C486 1.383 . S
C487 C488 1.393 . S
C488 H453 0.931 . S
C488 C487 1.393 . S
C488 C489 1.382 . S
C489 H454 0.929 . S
C489 C484 1.371 . S
C489 C488 1.382 . S
C490 N458 1.423 . S
C490 C491 1.362 . S
C490 C495 1.388 . S
C491 H455 0.929 . S
C491 C490 1.362 . S
C491 C492 1.376 . S
C492 H456 0.931 . S
C492 C491 1.376 . S
C492 C493 1.396 . S
C493 C475 1.472 . S
C493 C492 1.396 . S
C493 C494 1.348 . S
C494 H457 0.929 . S
C494 C493 1.348 . S
C494 C495 1.443 . S
C495 H459 0.932 . S
C495 C490 1.388 . S
C495 C494 1.443 . S
O496 Cd497 2.223 . S
O496 C504 1.315 . S
Cd497 O496 2.223 . S
Cd497 O500 2.297 . S
Cd497 O501 2.439 . S
Cd497 O507 2.240 . S
Cd498 O499 2.240 . S
Cd498 O506 2.223 . S
Cd498 O508 2.297 . S
Cd498 O509 2.439 . S
O499 Cd498 2.240 . S
O499 C504 1.279 . S
O500 Cd497 2.297 . S
O500 C502 1.247 . S
O501 Cd497 2.439 . S
O501 C502 1.208 . S
C502 O500 1.247 . S
C502 O501 1.208 . S
C503 O508 1.247 . S
C503 O509 1.208 . S
C504 O496 1.315 . S
C504 O499 1.279 . S
C505 O506 1.315 . S
C505 O507 1.279 . S
O506 Cd498 2.223 . S
O506 C505 1.315 . S
O507 Cd497 2.240 . S
O507 C505 1.279 . S
O508 Cd498 2.297 . S
O508 C503 1.247 . S
O509 Cd498 2.439 . S
O509 C503 1.208 . S
O510 Cd511 2.223 . S
O510 C518 1.315 . S
Cd511 O510 2.223 . S
Cd511 O514 2.297 . S
Cd511 O515 2.439 . S
Cd511 O521 2.240 . S
Cd512 O513 2.240 . S
Cd512 O520 2.223 . S
Cd512 O522 2.297 . S
Cd512 O523 2.439 . S
O513 Cd512 2.240 . S
O513 C518 1.279 . S
O514 Cd511 2.297 . S
O514 C516 1.247 . S
O515 Cd511 2.439 . S
O515 C516 1.208 . S
C516 O514 1.247 . S
C516 O515 1.208 . S
C517 O522 1.247 . S
C517 O523 1.208 . S
C518 O510 1.315 . S
C518 O513 1.279 . S
C519 O520 1.315 . S
C519 O521 1.279 . S
O520 Cd512 2.223 . S
O520 C519 1.315 . S
O521 Cd511 2.240 . S
O521 C519 1.279 . S
O522 Cd512 2.297 . S
O522 C517 1.247 . S
O523 Cd512 2.439 . S
O523 C517 1.208 . S
O524 Cd525 2.223 . S
O524 C532 1.315 . S
Cd525 O524 2.223 . S
Cd525 O528 2.297 . S
Cd525 O529 2.439 . S
Cd525 O535 2.240 . S
Cd526 O527 2.240 . S
Cd526 O534 2.223 . S
Cd526 O536 2.297 . S
Cd526 O537 2.439 . S
O527 Cd526 2.240 . S
O527 C532 1.279 . S
O528 Cd525 2.297 . S
O528 C530 1.247 . S
O529 Cd525 2.439 . S
O529 C530 1.208 . S
C530 O528 1.247 . S
C530 O529 1.208 . S
C531 O536 1.247 . S
C531 O537 1.208 . S
C532 O524 1.315 . S
C532 O527 1.279 . S
C533 O534 1.315 . S
C533 O535 1.279 . S
O534 Cd526 2.223 . S
O534 C533 1.315 . S
O535 Cd525 2.240 . S
O535 C533 1.279 . S
O536 Cd526 2.297 . S
O536 C531 1.247 . S
O537 Cd526 2.439 . S
O537 C531 1.208 . S
O538 Cd539 2.223 . S
O538 C546 1.315 . S
Cd539 O538 2.223 . S
Cd539 O542 2.297 . S
Cd539 O543 2.439 . S
Cd539 O549 2.240 . S
Cd540 O541 2.240 . S
Cd540 O548 2.223 . S
Cd540 O550 2.297 . S
Cd540 O551 2.439 . S
O541 Cd540 2.240 . S
O541 C546 1.279 . S
O542 Cd539 2.297 . S
O542 C544 1.247 . S
O543 Cd539 2.439 . S
O543 C544 1.208 . S
C544 O542 1.247 . S
C544 O543 1.208 . S
C545 O550 1.247 . S
C545 O551 1.208 . S
C546 O538 1.315 . S
C546 O541 1.279 . S
C547 O548 1.315 . S
C547 O549 1.279 . S
O548 Cd540 2.223 . S
O548 C547 1.315 . S
O549 Cd539 2.240 . S
O549 C547 1.279 . S
O550 Cd540 2.297 . S
O550 C545 1.247 . S
O551 Cd540 2.439 . S
O551 C545 1.208 . S
O552 Cd553 2.223 . S
O552 C560 1.315 . S
Cd553 O552 2.223 . S
Cd553 O556 2.297 . S
Cd553 O557 2.439 . S
Cd553 O563 2.240 . S
Cd554 O555 2.240 . S
Cd554 O562 2.223 . S
Cd554 O564 2.297 . S
Cd554 O565 2.439 . S
O555 Cd554 2.240 . S
O555 C560 1.279 . S
O556 Cd553 2.297 . S
O556 C558 1.247 . S
O557 Cd553 2.439 . S
O557 C558 1.208 . S
C558 O556 1.247 . S
C558 O557 1.208 . S
C559 O564 1.247 . S
C559 O565 1.208 . S
C560 O552 1.315 . S
C560 O555 1.279 . S
C561 O562 1.315 . S
C561 O563 1.279 . S
O562 Cd554 2.223 . S
O562 C561 1.315 . S
O563 Cd553 2.240 . S
O563 C561 1.279 . S
O564 Cd554 2.297 . S
O564 C559 1.247 . S
O565 Cd554 2.439 . S
O565 C559 1.208 . S
O566 Cd567 2.223 . S
O566 C574 1.315 . S
Cd567 O566 2.223 . S
Cd567 O570 2.297 . S
Cd567 O571 2.439 . S
Cd567 O577 2.240 . S
Cd568 O569 2.240 . S
Cd568 O576 2.223 . S
Cd568 O578 2.297 . S
Cd568 O579 2.439 . S
O569 Cd568 2.240 . S
O569 C574 1.279 . S
O570 Cd567 2.297 . S
O570 C572 1.247 . S
O571 Cd567 2.439 . S
O571 C572 1.208 . S
C572 O570 1.247 . S
C572 O571 1.208 . S
C573 O578 1.247 . S
C573 O579 1.208 . S
C574 O566 1.315 . S
C574 O569 1.279 . S
C575 O576 1.315 . S
C575 O577 1.279 . S
O576 Cd568 2.223 . S
O576 C575 1.315 . S
O577 Cd567 2.240 . S
O577 C575 1.279 . S
O578 Cd568 2.297 . S
O578 C573 1.247 . S
O579 Cd568 2.439 . S
O579 C573 1.208 . S
O580 Cd581 2.223 . S
O580 C588 1.315 . S
Cd581 O580 2.223 . S
Cd581 O584 2.297 . S
Cd581 O585 2.450 . S
Cd581 O591 2.240 1_554 S
Cd582 O583 2.240 1_556 S
Cd582 O590 2.225 . S
Cd582 O592 2.297 . S
Cd582 O593 2.439 . S
O583 Cd582 2.240 1_554 S
O583 C588 1.279 . S
O584 Cd581 2.297 . S
O584 C586 1.247 . S
O585 Cd581 2.450 . S
O585 C586 1.249 . S
C586 O584 1.247 . S
C586 O585 1.249 . S
C587 O592 1.247 . S
C587 O593 1.208 . S
C588 O580 1.315 . S
C588 O583 1.279 . S
C589 O590 1.321 . S
C589 O591 1.279 . S
O590 Cd582 2.225 . S
O590 C589 1.321 . S
O591 Cd581 2.240 1_556 S
O591 C589 1.279 . S
O592 Cd582 2.297 . S
O592 C587 1.247 . S
O593 Cd582 2.439 . S
O593 C587 1.208 . S
O594 Cd595 2.223 . S
O594 C602 1.315 . S
Cd595 O594 2.223 . S
Cd595 O598 2.297 . S
Cd595 O599 2.439 . S
Cd595 O605 2.240 . S
Cd596 O597 2.240 . S
Cd596 O604 2.223 . S
Cd596 O606 2.297 . S
Cd596 O607 2.439 . S
O597 Cd596 2.240 . S
O597 C602 1.279 . S
O598 Cd595 2.297 . S
O598 C600 1.247 . S
O599 Cd595 2.439 . S
O599 C600 1.208 . S
C600 O598 1.247 . S
C600 O599 1.208 . S
C601 O606 1.247 . S
C601 O607 1.208 . S
C602 O594 1.315 . S
C602 O597 1.279 . S
C603 O604 1.315 . S
C603 O605 1.279 . S
O604 Cd596 2.223 . S
O604 C603 1.315 . S
O605 Cd595 2.240 . S
O605 C603 1.279 . S
O606 Cd596 2.297 . S
O606 C601 1.247 . S
O607 Cd596 2.439 . S
O607 C601 1.208 . S
H608 C620 0.930 . S
H609 C622 0.930 . S
H610 C623 0.930 . S
H611 C627 0.959 . S
H612 C627 0.959 . S
H613 C627 0.961 . S
H614 C628 0.960 . S
H615 C628 0.961 . S
H616 C628 0.959 . S
H617 C631 0.929 . S
H618 C632 0.931 . S
H619 C634 0.930 . S
C620 H608 0.930 . S
C620 C621 1.399 . S
C620 C625 1.399 . S
C621 C620 1.399 . S
C621 C622 1.376 . S
C622 H609 0.930 . S
C622 C621 1.376 . S
C622 C623 1.388 . S
C623 H610 0.930 . S
C623 C622 1.388 . S
C623 C624 1.390 . S
C624 C623 1.390 . S
C624 C625 1.394 . S
C624 C630 1.465 . S
C625 C620 1.399 . S
C625 C624 1.394 . S
C625 C626 1.516 . S
C626 C625 1.516 . S
C626 C627 1.502 . S
C626 C628 1.561 . S
C626 C629 1.526 . S
C627 H611 0.959 . S
C627 H612 0.959 . S
C627 H613 0.961 . S
C627 C626 1.502 . S
C628 H614 0.960 . S
C628 H615 0.961 . S
C628 H616 0.959 . S
C628 C626 1.561 . S
C629 C626 1.526 . S
C629 C630 1.396 . S
C629 C634 1.390 . S
C630 C624 1.465 . S
C630 C629 1.396 . S
C630 C631 1.399 . S
C631 H617 0.929 . S
C631 C630 1.399 . S
C631 C632 1.385 . S
C632 H618 0.931 . S
C632 C631 1.385 . S
C632 C633 1.389 . S
C633 C632 1.389 . S
C633 C634 1.387 . S
C634 H619 0.930 . S
C634 C629 1.390 . S
C634 C633 1.387 . S
H635 C647 0.930 . S
H636 C649 0.930 . S
H637 C650 0.930 . S
H638 C654 0.959 . S
H639 C654 0.959 . S
H640 C654 0.961 . S
H641 C655 0.960 . S
H642 C655 0.961 . S
H643 C655 0.959 . S
H644 C658 0.929 . S
H645 C659 0.931 . S
H646 C661 0.930 . S
C647 H635 0.930 . S
C647 C648 1.399 . S
C647 C652 1.399 . S
C648 C647 1.399 . S
C648 C649 1.376 . S
C649 H636 0.930 . S
C649 C648 1.376 . S
C649 C650 1.388 . S
C650 H637 0.930 . S
C650 C649 1.388 . S
C650 C651 1.390 . S
C651 C650 1.390 . S
C651 C652 1.394 . S
C651 C657 1.465 . S
C652 C647 1.399 . S
C652 C651 1.394 . S
C652 C653 1.516 . S
C653 C652 1.516 . S
C653 C654 1.502 . S
C653 C655 1.561 . S
C653 C656 1.526 . S
C654 H638 0.959 . S
C654 H639 0.959 . S
C654 H640 0.961 . S
C654 C653 1.502 . S
C655 H641 0.960 . S
C655 H642 0.961 . S
C655 H643 0.959 . S
C655 C653 1.561 . S
C656 C653 1.526 . S
C656 C657 1.396 . S
C656 C661 1.390 . S
C657 C651 1.465 . S
C657 C656 1.396 . S
C657 C658 1.399 . S
C658 H644 0.929 . S
C658 C657 1.399 . S
C658 C659 1.385 . S
C659 H645 0.931 . S
C659 C658 1.385 . S
C659 C660 1.389 . S
C660 C659 1.389 . S
C660 C661 1.387 . S
C661 H646 0.930 . S
C661 C656 1.390 . S
C661 C660 1.387 . S
H662 C674 0.930 . S
H663 C676 0.930 . S
H664 C677 0.930 . S
H665 C681 0.959 . S
H666 C681 0.959 . S
H667 C681 0.961 . S
H668 C682 0.960 . S
H669 C682 0.961 . S
H670 C682 0.959 . S
H671 C685 0.929 . S
H672 C686 0.931 . S
H673 C688 0.930 . S
C674 H662 0.930 . S
C674 C675 1.399 . S
C674 C679 1.399 . S
C675 C674 1.399 . S
C675 C676 1.376 . S
C676 H663 0.930 . S
C676 C675 1.376 . S
C676 C677 1.388 . S
C677 H664 0.930 . S
C677 C676 1.388 . S
C677 C678 1.390 . S
C678 C677 1.390 . S
C678 C679 1.394 . S
C678 C684 1.465 . S
C679 C674 1.399 . S
C679 C678 1.394 . S
C679 C680 1.516 . S
C680 C679 1.516 . S
C680 C681 1.502 . S
C680 C682 1.561 . S
C680 C683 1.526 . S
C681 H665 0.959 . S
C681 H666 0.959 . S
C681 H667 0.961 . S
C681 C680 1.502 . S
C682 H668 0.960 . S
C682 H669 0.961 . S
C682 H670 0.959 . S
C682 C680 1.561 . S
C683 C680 1.526 . S
C683 C684 1.396 . S
C683 C688 1.390 . S
C684 C678 1.465 . S
C684 C683 1.396 . S
C684 C685 1.399 . S
C685 H671 0.929 . S
C685 C684 1.399 . S
C685 C686 1.385 . S
C686 H672 0.931 . S
C686 C685 1.385 . S
C686 C687 1.389 . S
C687 C686 1.389 . S
C687 C688 1.387 . S
C688 H673 0.930 . S
C688 C683 1.390 . S
C688 C687 1.387 . S
H689 C701 0.930 . S
H690 C703 0.930 . S
H691 C704 0.930 . S
H692 C708 0.959 . S
H693 C708 0.959 . S
H694 C708 0.961 . S
H695 C709 0.960 . S
H696 C709 0.961 . S
H697 C709 0.959 . S
H698 C712 0.929 . S
H699 C713 0.931 . S
H700 C715 0.930 . S
C701 H689 0.930 . S
C701 C702 1.399 . S
C701 C706 1.399 . S
C702 C701 1.399 . S
C702 C703 1.376 . S
C703 H690 0.930 . S
C703 C702 1.376 . S
C703 C704 1.388 . S
C704 H691 0.930 . S
C704 C703 1.388 . S
C704 C705 1.390 . S
C705 C704 1.390 . S
C705 C706 1.394 . S
C705 C711 1.465 . S
C706 C701 1.399 . S
C706 C705 1.394 . S
C706 C707 1.516 . S
C707 C706 1.516 . S
C707 C708 1.502 . S
C707 C709 1.561 . S
C707 C710 1.526 . S
C708 H692 0.959 . S
C708 H693 0.959 . S
C708 H694 0.961 . S
C708 C707 1.502 . S
C709 H695 0.960 . S
C709 H696 0.961 . S
C709 H697 0.959 . S
C709 C707 1.561 . S
C710 C707 1.526 . S
C710 C711 1.396 . S
C710 C715 1.390 . S
C711 C705 1.465 . S
C711 C710 1.396 . S
C711 C712 1.399 . S
C712 H698 0.929 . S
C712 C711 1.399 . S
C712 C713 1.385 . S
C713 H699 0.931 . S
C713 C712 1.385 . S
C713 C714 1.389 . S
C714 C713 1.389 . S
C714 C715 1.387 . S
C715 H700 0.930 . S
C715 C710 1.390 . S
C715 C714 1.387 . S
H716 C728 0.930 . S
H717 C730 0.930 . S
H718 C731 0.930 . S
H719 C735 0.959 . S
H720 C735 0.959 1_556 S
H721 C735 0.961 1_556 S
H722 C736 0.960 . S
H723 C736 0.961 . S
H724 C736 0.959 . S
H725 C739 0.929 . S
H726 C740 0.931 . S
H727 C742 0.930 . S
C728 H716 0.930 . S
C728 C729 1.399 . S
C728 C733 1.399 . S
C729 C728 1.399 . S
C729 C730 1.376 . S
C730 H717 0.930 . S
C730 C729 1.376 . S
C730 C731 1.388 . S
C731 H718 0.930 . S
C731 C730 1.388 . S
C731 C732 1.390 . S
C732 C731 1.390 . S
C732 C733 1.394 . S
C732 C738 1.465 . S
C733 C728 1.399 . S
C733 C732 1.394 . S
C733 C734 1.516 . S
C734 C733 1.516 . S
C734 C735 1.502 . S
C734 C736 1.561 1_554 S
C734 C737 1.526 . S
C735 H719 0.959 . S
C735 H720 0.959 1_554 S
C735 H721 0.961 1_554 S
C735 C734 1.502 . S
C736 H722 0.960 . S
C736 H723 0.961 . S
C736 H724 0.959 . S
C736 C734 1.561 1_556 S
C737 C734 1.526 . S
C737 C738 1.396 . S
C737 C742 1.390 . S
C738 C732 1.465 . S
C738 C737 1.396 . S
C738 C739 1.399 . S
C739 H725 0.929 . S
C739 C738 1.399 . S
C739 C740 1.385 . S
C740 H726 0.931 . S
C740 C739 1.385 . S
C740 C741 1.389 . S
C741 C740 1.389 . S
C741 C742 1.387 . S
C742 H727 0.930 . S
C742 C737 1.390 . S
C742 C741 1.387 . S
H743 C755 0.930 . S
H744 C757 0.930 . S
H745 C758 0.930 . S
H746 C762 0.959 . S
H747 C762 0.959 . S
H748 C762 0.961 . S
H749 C763 0.960 . S
H750 C763 0.961 . S
H751 C763 0.959 . S
H752 C766 0.929 . S
H753 C767 0.931 . S
H754 C769 0.930 . S
C755 H743 0.930 . S
C755 C756 1.399 . S
C755 C760 1.399 . S
C756 C755 1.399 . S
C756 C757 1.376 . S
C757 H744 0.930 . S
C757 C756 1.376 . S
C757 C758 1.388 . S
C758 H745 0.930 . S
C758 C757 1.388 . S
C758 C759 1.390 . S
C759 C758 1.390 . S
C759 C760 1.394 . S
C759 C765 1.465 . S
C760 C755 1.399 . S
C760 C759 1.394 . S
C760 C761 1.516 . S
C761 C760 1.516 . S
C761 C762 1.502 . S
C761 C763 1.561 . S
C761 C764 1.526 . S
C762 H746 0.959 . S
C762 H747 0.959 . S
C762 H748 0.961 . S
C762 C761 1.502 . S
C763 H749 0.960 . S
C763 H750 0.961 . S
C763 H751 0.959 . S
C763 C761 1.561 . S
C764 C761 1.526 . S
C764 C765 1.396 . S
C764 C769 1.390 . S
C765 C759 1.465 . S
C765 C764 1.396 . S
C765 C766 1.399 . S
C766 H752 0.929 . S
C766 C765 1.399 . S
C766 C767 1.385 . S
C767 H753 0.931 . S
C767 C766 1.385 . S
C767 C768 1.389 . S
C768 C767 1.389 . S
C768 C769 1.387 . S
C769 H754 0.930 . S
C769 C764 1.390 . S
C769 C768 1.387 . S
H770 C782 0.930 . S
H771 C784 0.930 . S
H772 C785 0.930 . S
H773 C789 0.959 . S
H774 C789 0.959 . S
H775 C789 0.961 . S
H776 C790 0.960 . S
H777 C790 0.961 . S
H778 C790 0.959 . S
H779 C793 0.929 . S
H780 C794 0.931 . S
H781 C796 0.930 . S
C782 H770 0.930 . S
C782 C783 1.399 . S
C782 C787 1.399 . S
C783 C782 1.399 . S
C783 C784 1.376 . S
C784 H771 0.930 . S
C784 C783 1.376 . S
C784 C785 1.388 . S
C785 H772 0.930 . S
C785 C784 1.388 . S
C785 C786 1.390 . S
C786 C785 1.390 . S
C786 C787 1.394 . S
C786 C792 1.465 . S
C787 C782 1.399 . S
C787 C786 1.394 . S
C787 C788 1.516 . S
C788 C787 1.516 . S
C788 C789 1.502 . S
C788 C790 1.561 . S
C788 C791 1.526 . S
C789 H773 0.959 . S
C789 H774 0.959 . S
C789 H775 0.961 . S
C789 C788 1.502 . S
C790 H776 0.960 . S
C790 H777 0.961 . S
C790 H778 0.959 . S
C790 C788 1.561 . S
C791 C788 1.526 . S
C791 C792 1.396 . S
C791 C796 1.390 . S
C792 C786 1.465 . S
C792 C791 1.396 . S
C792 C793 1.399 . S
C793 H779 0.929 . S
C793 C792 1.399 . S
C793 C794 1.385 . S
C794 H780 0.931 . S
C794 C793 1.385 . S
C794 C795 1.389 . S
C795 C794 1.389 . S
C795 C796 1.387 . S
C796 H781 0.930 . S
C796 C791 1.390 . S
C796 C795 1.387 . S
H797 C809 0.930 . S
H798 C811 0.930 . S
H799 C812 0.930 . S
H800 C816 0.959 . S
H801 C816 0.959 . S
H802 C816 0.961 . S
H803 C817 0.960 . S
H804 C817 0.961 . S
H805 C817 0.959 . S
H806 C820 0.929 . S
H807 C821 0.931 . S
H808 C823 0.930 . S
C809 H797 0.930 . S
C809 C810 1.399 . S
C809 C814 1.399 . S
C810 C809 1.399 . S
C810 C811 1.376 . S
C811 H798 0.930 . S
C811 C810 1.376 . S
C811 C812 1.388 . S
C812 H799 0.930 . S
C812 C811 1.388 . S
C812 C813 1.390 . S
C813 C812 1.390 . S
C813 C814 1.394 . S
C813 C819 1.465 . S
C814 C809 1.399 . S
C814 C813 1.394 . S
C814 C815 1.516 . S
C815 C814 1.516 . S
C815 C816 1.502 . S
C815 C817 1.561 . S
C815 C818 1.526 . S
C816 H800 0.959 . S
C816 H801 0.959 . S
C816 H802 0.961 . S
C816 C815 1.502 . S
C817 H803 0.960 . S
C817 H804 0.961 . S
C817 H805 0.959 . S
C817 C815 1.561 . S
C818 C815 1.526 . S
C818 C819 1.396 . S
C818 C823 1.390 . S
C819 C813 1.465 . S
C819 C818 1.396 . S
C819 C820 1.399 . S
C820 H806 0.929 . S
C820 C819 1.399 . S
C820 C821 1.385 . S
C821 H807 0.931 . S
C821 C820 1.385 . S
C821 C822 1.389 . S
C822 C821 1.389 . S
C822 C823 1.387 . S
C823 H808 0.930 . S
C823 C818 1.390 . S
C823 C822 1.387 . S
H824 C836 0.930 . S
H825 C838 0.930 . S
H826 C839 0.930 . S
H827 C843 0.959 . S
H828 C843 0.959 . S
H829 C843 0.961 . S
H830 C844 0.960 . S
H831 C844 0.961 . S
H832 C844 0.959 . S
H833 C847 0.929 . S
H834 C848 0.931 . S
H835 C850 0.930 . S
C836 H824 0.930 . S
C836 C837 1.399 . S
C836 C841 1.399 . S
C837 C836 1.399 . S
C837 C838 1.376 . S
C838 H825 0.930 . S
C838 C837 1.376 . S
C838 C839 1.388 . S
C839 H826 0.930 . S
C839 C838 1.388 . S
C839 C840 1.390 . S
C840 C839 1.390 . S
C840 C841 1.394 . S
C840 C846 1.465 . S
C841 C836 1.399 . S
C841 C840 1.394 . S
C841 C842 1.516 . S
C842 C841 1.516 . S
C842 C843 1.502 . S
C842 C844 1.561 . S
C842 C845 1.526 . S
C843 H827 0.959 . S
C843 H828 0.959 . S
C843 H829 0.961 . S
C843 C842 1.502 . S
C844 H830 0.960 . S
C844 H831 0.961 . S
C844 H832 0.959 . S
C844 C842 1.561 . S
C845 C842 1.526 . S
C845 C846 1.396 . S
C845 C850 1.390 . S
C846 C840 1.465 . S
C846 C845 1.396 . S
C846 C847 1.399 . S
C847 H833 0.929 . S
C847 C846 1.399 . S
C847 C848 1.385 . S
C848 H834 0.931 . S
C848 C847 1.385 . S
C848 C849 1.389 . S
C849 C848 1.389 . S
C849 C850 1.387 . S
C850 H835 0.930 . S
C850 C845 1.390 . S
C850 C849 1.387 . S
H851 C863 0.930 . S
H852 C865 0.930 . S
H853 C866 0.930 . S
H854 C870 0.959 . S
H855 C870 0.959 . S
H856 C870 0.961 . S
H857 C871 0.960 . S
H858 C871 0.961 . S
H859 C871 0.959 . S
H860 C874 0.929 . S
H861 C875 0.931 . S
H862 C877 0.930 . S
C863 H851 0.930 . S
C863 C864 1.399 . S
C863 C868 1.399 . S
C864 C863 1.399 . S
C864 C865 1.376 . S
C865 H852 0.930 . S
C865 C864 1.376 . S
C865 C866 1.388 . S
C866 H853 0.930 . S
C866 C865 1.388 . S
C866 C867 1.390 . S
C867 C866 1.390 . S
C867 C868 1.394 . S
C867 C873 1.465 . S
C868 C863 1.399 . S
C868 C867 1.394 . S
C868 C869 1.516 . S
C869 C868 1.516 . S
C869 C870 1.502 . S
C869 C871 1.561 1_554 S
C869 C872 1.526 . S
C870 H854 0.959 . S
C870 H855 0.959 . S
C870 H856 0.961 . S
C870 C869 1.502 . S
C871 H857 0.960 . S
C871 H858 0.961 . S
C871 H859 0.959 . S
C871 C869 1.561 1_556 S
C872 C869 1.526 . S
C872 C873 1.396 . S
C872 C877 1.390 . S
C873 C867 1.465 . S
C873 C872 1.396 . S
C873 C874 1.399 . S
C874 H860 0.929 . S
C874 C873 1.399 . S
C874 C875 1.385 . S
C875 H861 0.931 . S
C875 C874 1.385 . S
C875 C876 1.389 . S
C876 C875 1.389 . S
C876 C877 1.387 . S
C877 H862 0.930 . S
C877 C872 1.390 . S
C877 C876 1.387 . S
H878 C890 0.930 . S
H879 C892 0.930 . S
H880 C893 0.930 . S
H881 C897 0.959 . S
H882 C897 0.959 . S
H883 C897 0.961 . S
H884 C898 0.960 . S
H885 C898 0.961 . S
H886 C898 0.959 . S
H887 C901 0.929 . S
H888 C902 0.931 . S
H889 C904 0.930 . S
C890 H878 0.930 . S
C890 C891 1.399 . S
C890 C895 1.399 . S
C891 C890 1.399 . S
C891 C892 1.376 . S
C892 H879 0.930 . S
C892 C891 1.376 . S
C892 C893 1.388 . S
C893 H880 0.930 . S
C893 C892 1.388 . S
C893 C894 1.390 . S
C894 C893 1.390 . S
C894 C895 1.394 . S
C894 C900 1.465 . S
C895 C890 1.399 . S
C895 C894 1.394 . S
C895 C896 1.516 . S
C896 C895 1.516 . S
C896 C897 1.502 . S
C896 C898 1.561 . S
C896 C899 1.526 . S
C897 H881 0.959 . S
C897 H882 0.959 . S
C897 H883 0.961 . S
C897 C896 1.502 . S
C898 H884 0.960 . S
C898 H885 0.961 . S
C898 H886 0.959 . S
C898 C896 1.561 . S
C899 C896 1.526 . S
C899 C900 1.396 . S
C899 C904 1.390 . S
C900 C894 1.465 . S
C900 C899 1.396 . S
C900 C901 1.399 . S
C901 H887 0.929 . S
C901 C900 1.399 . S
C901 C902 1.385 . S
C902 H888 0.931 . S
C902 C901 1.385 . S
C902 C903 1.389 . S
C903 C902 1.389 . S
C903 C904 1.387 . S
C904 H889 0.930 . S
C904 C899 1.390 . S
C904 C903 1.387 . S
H905 C917 0.930 . S
H906 C919 0.930 . S
H907 C920 0.930 . S
H908 C924 0.959 . S
H909 C924 0.959 . S
H910 C924 0.961 . S
H911 C925 0.960 . S
H912 C925 0.961 . S
H913 C925 0.959 . S
H914 C928 0.929 . S
H915 C929 0.931 . S
H916 C931 0.930 . S
C917 H905 0.930 . S
C917 C918 1.399 . S
C917 C922 1.399 . S
C918 C917 1.399 . S
C918 C919 1.376 . S
C919 H906 0.930 . S
C919 C918 1.376 . S
C919 C920 1.388 . S
C920 H907 0.930 . S
C920 C919 1.388 . S
C920 C921 1.390 . S
C921 C920 1.390 . S
C921 C922 1.394 . S
C921 C927 1.465 . S
C922 C917 1.399 . S
C922 C921 1.394 . S
C922 C923 1.516 . S
C923 C922 1.516 . S
C923 C924 1.502 . S
C923 C925 1.561 . S
C923 C926 1.526 . S
C924 H908 0.959 . S
C924 H909 0.959 . S
C924 H910 0.961 . S
C924 C923 1.502 . S
C925 H911 0.960 . S
C925 H912 0.961 . S
C925 H913 0.959 . S
C925 C923 1.561 . S
C926 C923 1.526 . S
C926 C927 1.396 . S
C926 C931 1.390 . S
C927 C921 1.465 . S
C927 C926 1.396 . S
C927 C928 1.399 . S
C928 H914 0.929 . S
C928 C927 1.399 . S
C928 C929 1.385 . S
C929 H915 0.931 . S
C929 C928 1.385 . S
C929 C930 1.389 . S
C930 C929 1.389 . S
C930 C931 1.387 . S
C931 H916 0.930 . S
C931 C926 1.390 . S
C931 C930 1.387 . S
H932 C944 0.930 . S
H933 C946 0.930 . S
H934 C947 0.930 . S
H935 C951 0.959 . S
H936 C951 0.959 . S
H937 C951 0.961 . S
H938 C952 0.960 . S
H939 C952 0.961 . S
H940 C952 0.959 . S
H941 C955 0.929 . S
H942 C956 0.931 . S
H943 C958 0.930 . S
C944 H932 0.930 . S
C944 C945 1.399 . S
C944 C949 1.399 . S
C945 C944 1.399 . S
C945 C946 1.376 . S
C946 H933 0.930 . S
C946 C945 1.376 . S
C946 C947 1.388 . S
C947 H934 0.930 . S
C947 C946 1.388 . S
C947 C948 1.390 . S
C948 C947 1.390 . S
C948 C949 1.394 . S
C948 C954 1.465 . S
C949 C944 1.399 . S
C949 C948 1.394 . S
C949 C950 1.516 . S
C950 C949 1.516 . S
C950 C951 1.502 . S
C950 C952 1.561 . S
C950 C953 1.526 . S
C951 H935 0.959 . S
C951 H936 0.959 . S
C951 H937 0.961 . S
C951 C950 1.502 . S
C952 H938 0.960 . S
C952 H939 0.961 . S
C952 H940 0.959 . S
C952 C950 1.561 . S
C953 C950 1.526 . S
C953 C954 1.396 . S
C953 C958 1.390 . S
C954 C948 1.465 . S
C954 C953 1.396 . S
C954 C955 1.399 . S
C955 H941 0.929 . S
C955 C954 1.399 . S
C955 C956 1.385 . S
C956 H942 0.931 . S
C956 C955 1.385 . S
C956 C957 1.389 . S
C957 C956 1.389 . S
C957 C958 1.387 . S
C958 H943 0.930 . S
C958 C953 1.390 . S
C958 C957 1.387 . S
H959 C971 0.930 . S
H960 C973 0.930 . S
H961 C974 0.930 . S
H962 C978 0.959 . S
H963 C978 0.959 . S
H964 C978 0.961 . S
H965 C979 0.960 . S
H966 C979 0.961 . S
H967 C979 0.959 . S
H968 C982 0.929 . S
H969 C983 0.931 . S
H970 C985 0.930 . S
C971 H959 0.930 . S
C971 C972 1.399 . S
C971 C976 1.399 . S
C972 C971 1.399 . S
C972 C973 1.376 . S
C973 H960 0.930 . S
C973 C972 1.376 . S
C973 C974 1.388 . S
C974 H961 0.930 . S
C974 C973 1.388 . S
C974 C975 1.390 . S
C975 C974 1.390 . S
C975 C976 1.394 . S
C975 C981 1.465 . S
C976 C971 1.399 . S
C976 C975 1.394 . S
C976 C977 1.516 . S
C977 C976 1.516 . S
C977 C978 1.502 . S
C977 C979 1.561 . S
C977 C980 1.526 . S
C978 H962 0.959 . S
C978 H963 0.959 . S
C978 H964 0.961 . S
C978 C977 1.502 . S
C979 H965 0.960 . S
C979 H966 0.961 . S
C979 H967 0.959 . S
C979 C977 1.561 . S
C980 C977 1.526 . S
C980 C981 1.396 . S
C980 C985 1.390 . S
C981 C975 1.465 . S
C981 C980 1.396 . S
C981 C982 1.399 . S
C982 H968 0.929 . S
C982 C981 1.399 . S
C982 C983 1.385 . S
C983 H969 0.931 . S
C983 C982 1.385 . S
C983 C984 1.389 . S
C984 C983 1.389 . S
C984 C985 1.387 . S
C985 H970 0.930 . S
C985 C980 1.390 . S
C985 C984 1.387 . S
H986 C998 0.930 . S
H987 C1000 0.930 . S
H988 C1001 0.930 . S
H989 C1005 0.959 . S
H990 C1005 0.959 . S
H991 C1005 0.961 . S
H992 C1006 0.960 . S
H993 C1006 0.961 . S
H994 C1006 0.959 . S
H995 C1009 0.929 . S
H996 C1010 0.931 . S
H997 C1012 0.930 . S
C998 H986 0.930 . S
C998 C999 1.399 1_554 S
C998 C1003 1.399 . S
C999 C998 1.399 1_556 S
C999 C1000 1.376 . S
C1000 H987 0.930 . S
C1000 C999 1.376 . S
C1000 C1001 1.388 . S
C1001 H988 0.930 . S
C1001 C1000 1.388 . S
C1001 C1002 1.390 . S
C1002 C1001 1.390 . S
C1002 C1003 1.394 1_556 S
C1002 C1008 1.465 . S
C1003 C998 1.399 . S
C1003 C1002 1.394 1_554 S
C1003 C1004 1.516 . S
C1004 C1003 1.516 . S
C1004 C1005 1.502 . S
C1004 C1006 1.561 . S
C1004 C1007 1.526 . S
C1005 H989 0.959 . S
C1005 H990 0.959 . S
C1005 H991 0.961 . S
C1005 C1004 1.502 . S
C1006 H992 0.960 . S
C1006 H993 0.961 . S
C1006 H994 0.959 . S
C1006 C1004 1.561 . S
C1007 C1004 1.526 . S
C1007 C1008 1.396 1_554 S
C1007 C1012 1.390 . S
C1008 C1002 1.465 . S
C1008 C1007 1.396 1_556 S
C1008 C1009 1.399 . S
C1009 H995 0.929 . S
C1009 C1008 1.399 . S
C1009 C1010 1.385 . S
C1010 H996 0.931 . S
C1010 C1009 1.385 . S
C1010 C1011 1.389 . S
C1011 C1010 1.389 . S
C1011 C1012 1.387 1_556 S
C1012 H997 0.930 . S
C1012 C1007 1.390 . S
C1012 C1011 1.387 1_554 S
H1013 C1025 0.930 . S
H1014 C1027 0.930 . S
H1015 C1028 0.930 . S
H1016 C1032 0.959 . S
H1017 C1032 0.959 . S
H1018 C1032 0.961 . S
H1019 C1033 0.960 . S
H1020 C1033 0.961 . S
H1021 C1033 0.959 . S
H1022 C1036 0.929 . S
H1023 C1037 0.931 . S
H1024 C1039 0.930 . S
C1025 H1013 0.930 . S
C1025 C1026 1.399 . S
C1025 C1030 1.399 . S
C1026 C1025 1.399 . S
C1026 C1027 1.376 . S
C1027 H1014 0.930 . S
C1027 C1026 1.376 . S
C1027 C1028 1.388 . S
C1028 H1015 0.930 . S
C1028 C1027 1.388 . S
C1028 C1029 1.390 . S
C1029 C1028 1.390 . S
C1029 C1030 1.394 . S
C1029 C1035 1.465 . S
C1030 C1025 1.399 . S
C1030 C1029 1.394 . S
C1030 C1031 1.516 . S
C1031 C1030 1.516 . S
C1031 C1032 1.502 . S
C1031 C1033 1.561 . S
C1031 C1034 1.526 . S
C1032 H1016 0.959 . S
C1032 H1017 0.959 . S
C1032 H1018 0.961 . S
C1032 C1031 1.502 . S
C1033 H1019 0.960 . S
C1033 H1020 0.961 . S
C1033 H1021 0.959 . S
C1033 C1031 1.561 . S
C1034 C1031 1.526 . S
C1034 C1035 1.396 . S
C1034 C1039 1.390 . S
C1035 C1029 1.465 . S
C1035 C1034 1.396 . S
C1035 C1036 1.399 . S
C1036 H1022 0.929 . S
C1036 C1035 1.399 . S
C1036 C1037 1.385 . S
C1037 H1023 0.931 . S
C1037 C1036 1.385 . S
C1037 C1038 1.389 . S
C1038 C1037 1.389 . S
C1038 C1039 1.387 . S
C1039 H1024 0.930 . S
C1039 C1034 1.390 . S
C1039 C1038 1.387 . S
H1040 C1052 0.930 . S
H1041 C1054 0.930 . S
H1042 C1055 0.930 . S
H1043 C1059 0.959 . S
H1044 C1059 0.959 . S
H1045 C1059 0.961 . S
H1046 C1060 0.960 . S
H1047 C1060 0.961 . S
H1048 C1060 0.959 . S
H1049 C1063 0.929 . S
H1050 C1064 0.931 . S
H1051 C1066 0.930 . S
C1052 H1040 0.930 . S
C1052 C1053 1.399 . S
C1052 C1057 1.399 . S
C1053 C1052 1.399 . S
C1053 C1054 1.376 . S
C1054 H1041 0.930 . S
C1054 C1053 1.376 . S
C1054 C1055 1.388 . S
C1055 H1042 0.930 . S
C1055 C1054 1.388 . S
C1055 C1056 1.390 . S
C1056 C1055 1.390 . S
C1056 C1057 1.394 . S
C1056 C1062 1.465 . S
C1057 C1052 1.399 . S
C1057 C1056 1.394 . S
C1057 C1058 1.516 . S
C1058 C1057 1.516 . S
C1058 C1059 1.502 . S
C1058 C1060 1.561 . S
C1058 C1061 1.526 . S
C1059 H1043 0.959 . S
C1059 H1044 0.959 . S
C1059 H1045 0.961 . S
C1059 C1058 1.502 . S
C1060 H1046 0.960 . S
C1060 H1047 0.961 . S
C1060 H1048 0.959 . S
C1060 C1058 1.561 . S
C1061 C1058 1.526 . S
C1061 C1062 1.396 . S
C1061 C1066 1.390 . S
C1062 C1056 1.465 . S
C1062 C1061 1.396 . S
C1062 C1063 1.399 . S
C1063 H1049 0.929 . S
C1063 C1062 1.399 . S
C1063 C1064 1.385 . S
C1064 H1050 0.931 . S
C1064 C1063 1.385 . S
C1064 C1065 1.389 . S
C1065 C1064 1.389 . S
C1065 C1066 1.387 . S
C1066 H1051 0.930 . S
C1066 C1061 1.390 . S
C1066 C1065 1.387 . S
H1067 C1079 0.930 . S
H1068 C1081 0.930 . S
H1069 C1082 0.930 . S
H1070 C1086 0.959 . S
H1071 C1086 0.959 . S
H1072 C1086 0.961 . S
H1073 C1087 0.960 . S
H1074 C1087 0.961 . S
H1075 C1087 0.959 . S
H1076 C1090 0.929 . S
H1077 C1091 0.931 . S
H1078 C1093 0.930 . S
C1079 H1067 0.930 . S
C1079 C1080 1.399 . S
C1079 C1084 1.399 . S
C1080 C1079 1.399 . S
C1080 C1081 1.376 . S
C1081 H1068 0.930 . S
C1081 C1080 1.376 . S
C1081 C1082 1.388 . S
C1082 H1069 0.930 . S
C1082 C1081 1.388 . S
C1082 C1083 1.390 . S
C1083 C1082 1.390 . S
C1083 C1084 1.394 . S
C1083 C1089 1.465 . S
C1084 C1079 1.399 . S
C1084 C1083 1.394 . S
C1084 C1085 1.516 . S
C1085 C1084 1.516 . S
C1085 C1086 1.502 . S
C1085 C1087 1.561 . S
C1085 C1088 1.526 . S
C1086 H1070 0.959 . S
C1086 H1071 0.959 . S
C1086 H1072 0.961 . S
C1086 C1085 1.502 . S
C1087 H1073 0.960 . S
C1087 H1074 0.961 . S
C1087 H1075 0.959 . S
C1087 C1085 1.561 . S
C1088 C1085 1.526 . S
C1088 C1089 1.396 . S
C1088 C1093 1.390 . S
C1089 C1083 1.465 . S
C1089 C1088 1.396 . S
C1089 C1090 1.399 . S
C1090 H1076 0.929 . S
C1090 C1089 1.399 . S
C1090 C1091 1.385 . S
C1091 H1077 0.931 . S
C1091 C1090 1.385 . S
C1091 C1092 1.389 . S
C1092 C1091 1.389 . S
C1092 C1093 1.387 . S
C1093 H1078 0.930 . S
C1093 C1088 1.390 . S
C1093 C1092 1.387 . S
H1094 C1106 0.930 . S
H1095 C1108 0.930 . S
H1096 C1109 0.930 . S
H1097 C1113 0.959 . S
H1098 C1113 0.959 . S
H1099 C1113 0.961 . S
H1100 C1114 0.960 . S
H1101 C1114 0.961 . S
H1102 C1114 0.959 . S
H1103 C1117 0.929 . S
H1104 C1118 0.931 . S
H1105 C1120 0.930 . S
C1106 H1094 0.930 . S
C1106 C1107 1.399 . S
C1106 C1111 1.399 . S
C1107 C1106 1.399 . S
C1107 C1108 1.376 . S
C1108 H1095 0.930 . S
C1108 C1107 1.376 . S
C1108 C1109 1.388 . S
C1109 H1096 0.930 . S
C1109 C1108 1.388 . S
C1109 C1110 1.390 . S
C1110 C1109 1.390 . S
C1110 C1111 1.394 . S
C1110 C1116 1.465 . S
C1111 C1106 1.399 . S
C1111 C1110 1.394 . S
C1111 C1112 1.516 . S
C1112 C1111 1.516 . S
C1112 C1113 1.502 . S
C1112 C1114 1.561 . S
C1112 C1115 1.526 . S
C1113 H1097 0.959 . S
C1113 H1098 0.959 . S
C1113 H1099 0.961 . S
C1113 C1112 1.502 . S
C1114 H1100 0.960 . S
C1114 H1101 0.961 . S
C1114 H1102 0.959 . S
C1114 C1112 1.561 . S
C1115 C1112 1.526 . S
C1115 C1116 1.396 . S
C1115 C1120 1.390 . S
C1116 C1110 1.465 . S
C1116 C1115 1.396 . S
C1116 C1117 1.399 . S
C1117 H1103 0.929 . S
C1117 C1116 1.399 . S
C1117 C1118 1.385 . S
C1118 H1104 0.931 . S
C1118 C1117 1.385 . S
C1118 C1119 1.389 . S
C1119 C1118 1.389 . S
C1119 C1120 1.387 . S
C1120 H1105 0.930 . S
C1120 C1115 1.390 . S
C1120 C1119 1.387 . S
H1121 C1133 0.930 . S
H1122 C1135 0.930 . S
H1123 C1136 0.930 . S
H1124 C1140 0.959 . S
H1125 C1140 0.959 . S
H1126 C1140 0.961 . S
H1127 C1141 0.960 . S
H1128 C1141 0.961 . S
H1129 C1141 0.959 . S
H1130 C1144 0.929 . S
H1131 C1145 0.931 . S
H1132 C1147 0.930 . S
C1133 H1121 0.930 . S
C1133 C1134 1.399 . S
C1133 C1138 1.399 . S
C1134 C1133 1.399 . S
C1134 C1135 1.376 . S
C1135 H1122 0.930 . S
C1135 C1134 1.376 . S
C1135 C1136 1.388 . S
C1136 H1123 0.930 . S
C1136 C1135 1.388 . S
C1136 C1137 1.390 . S
C1137 C1136 1.390 . S
C1137 C1138 1.394 . S
C1137 C1143 1.465 . S
C1138 C1133 1.399 . S
C1138 C1137 1.394 . S
C1138 C1139 1.516 . S
C1139 C1138 1.516 . S
C1139 C1140 1.502 . S
C1139 C1141 1.561 . S
C1139 C1142 1.526 . S
C1140 H1124 0.959 . S
C1140 H1125 0.959 . S
C1140 H1126 0.961 . S
C1140 C1139 1.502 . S
C1141 H1127 0.960 . S
C1141 H1128 0.961 . S
C1141 H1129 0.959 . S
C1141 C1139 1.561 . S
C1142 C1139 1.526 . S
C1142 C1143 1.396 . S
C1142 C1147 1.390 . S
C1143 C1137 1.465 . S
C1143 C1142 1.396 . S
C1143 C1144 1.399 . S
C1144 H1130 0.929 . S
C1144 C1143 1.399 . S
C1144 C1145 1.385 . S
C1145 H1131 0.931 . S
C1145 C1144 1.385 . S
C1145 C1146 1.389 . S
C1146 C1145 1.389 . S
C1146 C1147 1.387 . S
C1147 H1132 0.930 . S
C1147 C1142 1.390 . S
C1147 C1146 1.387 . S
H1148 C1160 0.930 . S
H1149 C1162 0.930 . S
H1150 C1163 0.930 . S
H1151 C1167 0.959 . S
H1152 C1167 0.959 . S
H1153 C1167 0.961 . S
H1154 C1168 0.960 . S
H1155 C1168 0.961 . S
H1156 C1168 0.959 . S
H1157 C1171 0.929 . S
H1158 C1172 0.931 . S
H1159 C1174 0.930 . S
C1160 H1148 0.930 . S
C1160 C1161 1.399 . S
C1160 C1165 1.399 . S
C1161 C1160 1.399 . S
C1161 C1162 1.376 . S
C1162 H1149 0.930 . S
C1162 C1161 1.376 . S
C1162 C1163 1.388 . S
C1163 H1150 0.930 . S
C1163 C1162 1.388 . S
C1163 C1164 1.390 . S
C1164 C1163 1.390 . S
C1164 C1165 1.394 . S
C1164 C1170 1.465 . S
C1165 C1160 1.399 . S
C1165 C1164 1.394 . S
C1165 C1166 1.516 . S
C1166 C1165 1.516 . S
C1166 C1167 1.502 . S
C1166 C1168 1.561 . S
C1166 C1169 1.526 . S
C1167 H1151 0.959 . S
C1167 H1152 0.959 . S
C1167 H1153 0.961 . S
C1167 C1166 1.502 . S
C1168 H1154 0.960 . S
C1168 H1155 0.961 . S
C1168 H1156 0.959 . S
C1168 C1166 1.561 . S
C1169 C1166 1.526 . S
C1169 C1170 1.396 . S
C1169 C1174 1.390 . S
C1170 C1164 1.465 . S
C1170 C1169 1.396 . S
C1170 C1171 1.399 . S
C1171 H1157 0.929 . S
C1171 C1170 1.399 . S
C1171 C1172 1.385 . S
C1172 H1158 0.931 . S
C1172 C1171 1.385 . S
C1172 C1173 1.389 . S
C1173 C1172 1.389 . S
C1173 C1174 1.387 . S
C1174 H1159 0.930 . S
C1174 C1169 1.390 . S
C1174 C1173 1.387 . S
H1175 C1187 0.930 . S
H1176 C1189 0.930 . S
H1177 C1190 0.930 . S
H1178 C1194 0.959 . S
H1179 C1194 0.959 . S
H1180 C1194 0.961 . S
H1181 C1195 0.960 . S
H1182 C1195 0.961 . S
H1183 C1195 0.959 . S
H1184 C1198 0.929 . S
H1185 C1199 0.931 . S
H1186 C1201 0.930 . S
C1187 H1175 0.930 . S
C1187 C1188 1.399 . S
C1187 C1192 1.399 . S
C1188 C1187 1.399 . S
C1188 C1189 1.376 . S
C1189 H1176 0.930 . S
C1189 C1188 1.376 . S
C1189 C1190 1.388 . S
C1190 H1177 0.930 . S
C1190 C1189 1.388 . S
C1190 C1191 1.390 . S
C1191 C1190 1.390 . S
C1191 C1192 1.394 . S
C1191 C1197 1.465 . S
C1192 C1187 1.399 . S
C1192 C1191 1.394 . S
C1192 C1193 1.516 . S
C1193 C1192 1.516 . S
C1193 C1194 1.502 . S
C1193 C1195 1.561 . S
C1193 C1196 1.526 . S
C1194 H1178 0.959 . S
C1194 H1179 0.959 . S
C1194 H1180 0.961 . S
C1194 C1193 1.502 . S
C1195 H1181 0.960 . S
C1195 H1182 0.961 . S
C1195 H1183 0.959 . S
C1195 C1193 1.561 . S
C1196 C1193 1.526 . S
C1196 C1197 1.396 . S
C1196 C1201 1.390 . S
C1197 C1191 1.465 . S
C1197 C1196 1.396 . S
C1197 C1198 1.399 . S
C1198 H1184 0.929 . S
C1198 C1197 1.399 . S
C1198 C1199 1.385 . S
C1199 H1185 0.931 . S
C1199 C1198 1.385 . S
C1199 C1200 1.389 . S
C1200 C1199 1.389 . S
C1200 C1201 1.387 . S
C1201 H1186 0.930 . S
C1201 C1196 1.390 . S
C1201 C1200 1.387 . S
H1202 C1214 0.930 . S
H1203 C1216 0.930 . S
H1204 C1217 0.930 . S
H1205 C1221 0.959 . S
H1206 C1221 0.959 . S
H1207 C1221 0.961 . S
H1208 C1222 0.960 . S
H1209 C1222 0.961 . S
H1210 C1222 0.959 . S
H1211 C1225 0.929 . S
H1212 C1226 0.931 . S
H1213 C1228 0.930 . S
C1214 H1202 0.930 . S
C1214 C1215 1.399 . S
C1214 C1219 1.399 . S
C1215 C1214 1.399 . S
C1215 C1216 1.376 . S
C1216 H1203 0.930 . S
C1216 C1215 1.376 . S
C1216 C1217 1.388 . S
C1217 H1204 0.930 . S
C1217 C1216 1.388 . S
C1217 C1218 1.390 . S
C1218 C1217 1.390 . S
C1218 C1219 1.394 . S
C1218 C1224 1.465 . S
C1219 C1214 1.399 . S
C1219 C1218 1.394 . S
C1219 C1220 1.516 . S
C1220 C1219 1.516 . S
C1220 C1221 1.502 . S
C1220 C1222 1.561 . S
C1220 C1223 1.526 . S
C1221 H1205 0.959 . S
C1221 H1206 0.959 . S
C1221 H1207 0.961 . S
C1221 C1220 1.502 . S
C1222 H1208 0.960 . S
C1222 H1209 0.961 . S
C1222 H1210 0.959 . S
C1222 C1220 1.561 . S
C1223 C1220 1.526 . S
C1223 C1224 1.396 . S
C1223 C1228 1.390 . S
C1224 C1218 1.465 . S
C1224 C1223 1.396 . S
C1224 C1225 1.399 . S
C1225 H1211 0.929 . S
C1225 C1224 1.399 . S
C1225 C1226 1.385 . S
C1226 H1212 0.931 . S
C1226 C1225 1.385 . S
C1226 C1227 1.389 . S
C1227 C1226 1.389 . S
C1227 C1228 1.387 . S
C1228 H1213 0.930 . S
C1228 C1223 1.390 . S
C1228 C1227 1.387 . S
H1229 C1241 0.930 . S
H1230 C1243 0.930 . S
H1231 C1244 0.930 . S
H1232 C1248 0.959 . S
H1233 C1248 0.959 . S
H1234 C1248 0.961 . S
H1235 C1249 0.960 1_545 S
H1236 C1249 0.961 . S
H1237 C1249 0.959 . S
H1238 C1252 0.929 . S
H1239 C1253 0.931 . S
H1240 C1255 0.930 . S
C1241 H1229 0.930 . S
C1241 C1242 1.399 . S
C1241 C1246 1.372 1_545 S
C1242 C1241 1.399 . S
C1242 C1243 1.376 1_545 S
C1243 H1230 0.930 . S
C1243 C1242 1.376 1_565 S
C1243 C1244 1.388 . S
C1244 H1231 0.930 . S
C1244 C1243 1.388 . S
C1244 C1245 1.390 . S
C1245 C1244 1.390 . S
C1245 C1246 1.429 . S
C1245 C1251 1.465 . S
C1246 C1241 1.372 1_565 S
C1246 C1245 1.429 . S
C1246 C1247 1.516 . S
C1247 C1246 1.516 . S
C1247 C1248 1.475 1_565 S
C1247 C1249 1.565 . S
C1247 C1250 1.552 . S
C1248 H1232 0.959 . S
C1248 H1233 0.959 . S
C1248 H1234 0.961 . S
C1248 C1247 1.475 1_545 S
C1249 H1235 0.960 1_565 S
C1249 H1236 0.961 . S
C1249 H1237 0.959 . S
C1249 C1247 1.565 . S
C1250 C1247 1.552 . S
C1250 C1251 1.396 . S
C1250 C1255 1.390 . S
C1251 C1245 1.465 . S
C1251 C1250 1.396 . S
C1251 C1252 1.399 . S
C1252 H1238 0.929 . S
C1252 C1251 1.399 . S
C1252 C1253 1.385 . S
C1253 H1239 0.931 . S
C1253 C1252 1.385 . S
C1253 C1254 1.389 . S
C1254 C1253 1.389 . S
C1254 C1255 1.387 . S
C1255 H1240 0.930 . S
C1255 C1250 1.390 . S
C1255 C1254 1.387 . S
H1256 C1268 0.930 . S
H1257 C1270 0.930 . S
H1258 C1271 0.930 . S
H1259 C1275 0.959 . S
H1260 C1275 0.959 . S
H1261 C1275 0.961 . S
H1262 C1276 0.960 . S
H1263 C1276 0.961 . S
H1264 C1276 0.959 . S
H1265 C1279 0.929 . S
H1266 C1280 0.931 . S
H1267 C1282 0.930 . S
C1268 H1256 0.930 . S
C1268 C1269 1.399 . S
C1268 C1273 1.399 . S
C1269 C1268 1.399 . S
C1269 C1270 1.376 . S
C1270 H1257 0.930 . S
C1270 C1269 1.376 . S
C1270 C1271 1.388 . S
C1271 H1258 0.930 . S
C1271 C1270 1.388 . S
C1271 C1272 1.390 . S
C1272 C1271 1.390 . S
C1272 C1273 1.394 . S
C1272 C1278 1.465 . S
C1273 C1268 1.399 . S
C1273 C1272 1.394 . S
C1273 C1274 1.516 . S
C1274 C1273 1.516 . S
C1274 C1275 1.502 . S
C1274 C1276 1.561 . S
C1274 C1277 1.526 . S
C1275 H1259 0.959 . S
C1275 H1260 0.959 . S
C1275 H1261 0.961 . S
C1275 C1274 1.502 . S
C1276 H1262 0.960 . S
C1276 H1263 0.961 . S
C1276 H1264 0.959 . S
C1276 C1274 1.561 . S
C1277 C1274 1.526 . S
C1277 C1278 1.396 . S
C1277 C1282 1.390 . S
C1278 C1272 1.465 . S
C1278 C1277 1.396 . S
C1278 C1279 1.399 . S
C1279 H1265 0.929 . S
C1279 C1278 1.399 . S
C1279 C1280 1.385 . S
C1280 H1266 0.931 . S
C1280 C1279 1.385 . S
C1280 C1281 1.389 . S
C1281 C1280 1.389 . S
C1281 C1282 1.387 . S
C1282 H1267 0.930 . S
C1282 C1277 1.390 . S
C1282 C1281 1.387 . S
H1283 C1295 0.930 . S
H1284 C1297 0.930 . S
H1285 C1298 0.930 . S
H1286 C1302 0.959 . S
H1287 C1302 0.959 . S
H1288 C1302 0.961 . S
H1289 C1303 0.960 . S
H1290 C1303 0.961 . S
H1291 C1303 0.959 . S
H1292 C1306 0.929 . S
H1293 C1307 0.931 . S
H1294 C1309 0.930 . S
C1295 H1283 0.930 . S
C1295 C1296 1.399 . S
C1295 C1300 1.399 . S
C1296 C1295 1.399 . S
C1296 C1297 1.376 . S
C1297 H1284 0.930 . S
C1297 C1296 1.376 . S
C1297 C1298 1.388 . S
C1298 H1285 0.930 . S
C1298 C1297 1.388 . S
C1298 C1299 1.390 . S
C1299 C1298 1.390 . S
C1299 C1300 1.394 . S
C1299 C1305 1.465 . S
C1300 C1295 1.399 . S
C1300 C1299 1.394 . S
C1300 C1301 1.516 . S
C1301 C1300 1.516 . S
C1301 C1302 1.502 . S
C1301 C1303 1.561 . S
C1301 C1304 1.526 . S
C1302 H1286 0.959 . S
C1302 H1287 0.959 . S
C1302 H1288 0.961 . S
C1302 C1301 1.502 . S
C1303 H1289 0.960 . S
C1303 H1290 0.961 . S
C1303 H1291 0.959 . S
C1303 C1301 1.561 . S
C1304 C1301 1.526 . S
C1304 C1305 1.396 . S
C1304 C1309 1.390 . S
C1305 C1299 1.465 . S
C1305 C1304 1.396 . S
C1305 C1306 1.399 . S
C1306 H1292 0.929 . S
C1306 C1305 1.399 . S
C1306 C1307 1.385 . S
C1307 H1293 0.931 . S
C1307 C1306 1.385 . S
C1307 C1308 1.389 . S
C1308 C1307 1.389 . S
C1308 C1309 1.387 . S
C1309 H1294 0.930 . S
C1309 C1304 1.390 . S
C1309 C1308 1.387 . S
H1310 C1322 0.930 . S
H1311 C1324 0.936 . S
H1312 C1325 0.930 . S
H1313 C1329 0.959 . S
H1314 C1329 0.959 . S
H1315 C1329 0.961 . S
H1316 C1330 0.960 . S
H1317 C1330 0.961 . S
H1318 C1330 0.959 . S
H1319 C1333 0.929 . S
H1320 C1334 0.931 . S
H1321 C1336 0.930 . S
C1322 H1310 0.930 . S
C1322 C1323 1.399 . S
C1322 C1327 1.399 . S
C1323 C1322 1.399 . S
C1323 C1324 1.376 . S
C1324 H1311 0.936 . S
C1324 C1323 1.376 . S
C1324 C1325 1.388 . S
C1325 H1312 0.930 . S
C1325 C1324 1.388 . S
C1325 C1326 1.390 . S
C1326 C1325 1.390 . S
C1326 C1327 1.394 . S
C1326 C1332 1.465 . S
C1327 C1322 1.399 . S
C1327 C1326 1.394 . S
C1327 C1328 1.516 . S
C1328 C1327 1.516 . S
C1328 C1329 1.502 . S
C1328 C1330 1.561 . S
C1328 C1331 1.526 . S
C1329 H1313 0.959 . S
C1329 H1314 0.959 . S
C1329 H1315 0.961 . S
C1329 C1328 1.502 . S
C1330 H1316 0.960 . S
C1330 H1317 0.961 . S
C1330 H1318 0.959 . S
C1330 C1328 1.561 . S
C1331 C1328 1.526 . S
C1331 C1332 1.396 . S
C1331 C1336 1.390 . S
C1332 C1326 1.465 . S
C1332 C1331 1.396 . S
C1332 C1333 1.399 . S
C1333 H1319 0.929 . S
C1333 C1332 1.399 . S
C1333 C1334 1.385 . S
C1334 H1320 0.931 . S
C1334 C1333 1.385 . S
C1334 C1335 1.389 . S
C1335 C1334 1.389 . S
C1335 C1336 1.387 . S
C1336 H1321 0.930 . S
C1336 C1331 1.390 . S
C1336 C1335 1.387 . S
H1337 C1349 0.930 . S
H1338 C1351 0.930 . S
H1339 C1352 0.930 . S
H1340 C1356 0.959 . S
H1341 C1356 0.959 . S
H1342 C1356 0.961 . S
H1343 C1357 0.960 . S
H1344 C1357 0.961 . S
H1345 C1357 0.959 . S
H1346 C1360 0.929 . S
H1347 C1361 0.931 . S
H1348 C1363 0.930 . S
C1349 H1337 0.930 . S
C1349 C1350 1.399 . S
C1349 C1354 1.399 . S
C1350 C1349 1.399 . S
C1350 C1351 1.376 . S
C1351 H1338 0.930 . S
C1351 C1350 1.376 . S
C1351 C1352 1.388 . S
C1352 H1339 0.930 . S
C1352 C1351 1.388 . S
C1352 C1353 1.390 . S
C1353 C1352 1.390 . S
C1353 C1354 1.394 . S
C1353 C1359 1.465 . S
C1354 C1349 1.399 . S
C1354 C1353 1.394 . S
C1354 C1355 1.516 . S
C1355 C1354 1.516 . S
C1355 C1356 1.502 . S
C1355 C1357 1.561 . S
C1355 C1358 1.526 . S
C1356 H1340 0.959 . S
C1356 H1341 0.959 . S
C1356 H1342 0.961 . S
C1356 C1355 1.502 . S
C1357 H1343 0.960 . S
C1357 H1344 0.961 . S
C1357 H1345 0.959 . S
C1357 C1355 1.561 . S
C1358 C1355 1.526 . S
C1358 C1359 1.396 . S
C1358 C1363 1.390 . S
C1359 C1353 1.465 . S
C1359 C1358 1.396 . S
C1359 C1360 1.399 . S
C1360 H1346 0.929 . S
C1360 C1359 1.399 . S
C1360 C1361 1.385 . S
C1361 H1347 0.931 . S
C1361 C1360 1.385 . S
C1361 C1362 1.389 . S
C1362 C1361 1.389 . S
C1362 C1363 1.387 . S
C1363 H1348 0.930 . S
C1363 C1358 1.390 . S
C1363 C1362 1.387 . S
H1364 C1376 0.930 . S
H1365 C1378 0.930 . S
H1366 C1379 0.930 . S
H1367 C1383 0.959 . S
H1368 C1383 0.959 . S
H1369 C1383 0.961 . S
H1370 C1384 0.960 . S
H1371 C1384 0.961 . S
H1372 C1384 0.959 . S
H1373 C1387 0.929 . S
H1374 C1388 0.931 . S
H1375 C1390 0.930 . S
C1376 H1364 0.930 . S
C1376 C1377 1.399 . S
C1376 C1381 1.399 . S
C1377 C1376 1.399 . S
C1377 C1378 1.376 . S
C1378 H1365 0.930 . S
C1378 C1377 1.376 . S
C1378 C1379 1.388 . S
C1379 H1366 0.930 . S
C1379 C1378 1.388 . S
C1379 C1380 1.390 . S
C1380 C1379 1.390 . S
C1380 C1381 1.394 . S
C1380 C1386 1.465 . S
C1381 C1376 1.399 . S
C1381 C1380 1.394 . S
C1381 C1382 1.516 . S
C1382 C1381 1.516 . S
C1382 C1383 1.502 . S
C1382 C1384 1.561 . S
C1382 C1385 1.526 . S
C1383 H1367 0.959 . S
C1383 H1368 0.959 . S
C1383 H1369 0.961 . S
C1383 C1382 1.502 . S
C1384 H1370 0.960 . S
C1384 H1371 0.961 . S
C1384 H1372 0.959 . S
C1384 C1382 1.561 . S
C1385 C1382 1.526 . S
C1385 C1386 1.396 . S
C1385 C1390 1.390 . S
C1386 C1380 1.465 . S
C1386 C1385 1.396 . S
C1386 C1387 1.399 . S
C1387 H1373 0.929 . S
C1387 C1386 1.399 . S
C1387 C1388 1.385 . S
C1388 H1374 0.931 . S
C1388 C1387 1.385 . S
C1388 C1389 1.389 . S
C1389 C1388 1.389 . S
C1389 C1390 1.387 . S
C1390 H1375 0.930 . S
C1390 C1385 1.390 . S
C1390 C1389 1.387 . S
H1391 C1403 0.930 . S
H1392 C1405 0.930 . S
H1393 C1406 0.930 . S
H1394 C1410 0.959 . S
H1395 C1410 0.959 . S
H1396 C1410 0.961 . S
H1397 C1411 0.960 . S
H1398 C1411 0.961 . S
H1399 C1411 0.959 . S
H1400 C1414 0.929 . S
H1401 C1415 0.931 . S
H1402 C1417 0.930 . S
C1403 H1391 0.930 . S
C1403 C1404 1.399 . S
C1403 C1408 1.399 . S
C1404 C1403 1.399 . S
C1404 C1405 1.376 1_655 S
C1405 H1392 0.930 . S
C1405 C1404 1.376 1_455 S
C1405 C1406 1.388 1_455 S
C1406 H1393 0.930 . S
C1406 C1405 1.388 1_655 S
C1406 C1407 1.390 . S
C1407 C1406 1.390 . S
C1407 C1408 1.394 . S
C1407 C1413 1.465 . S
C1408 C1403 1.399 . S
C1408 C1407 1.394 . S
C1408 C1409 1.516 . S
C1409 C1408 1.516 . S
C1409 C1410 1.502 . S
C1409 C1411 1.561 . S
C1409 C1412 1.526 . S
C1410 H1394 0.959 . S
C1410 H1395 0.959 . S
C1410 H1396 0.961 . S
C1410 C1409 1.502 . S
C1411 H1397 0.960 . S
C1411 H1398 0.961 . S
C1411 H1399 0.959 . S
C1411 C1409 1.561 . S
C1412 C1409 1.526 . S
C1412 C1413 1.396 . S
C1412 C1417 1.390 . S
C1413 C1407 1.465 . S
C1413 C1412 1.396 . S
C1413 C1414 1.399 . S
C1414 H1400 0.929 . S
C1414 C1413 1.399 . S
C1414 C1415 1.385 . S
C1415 H1401 0.931 . S
C1415 C1414 1.385 . S
C1415 C1416 1.389 . S
C1416 C1415 1.389 . S
C1416 C1417 1.387 . S
C1417 H1402 0.930 . S
C1417 C1412 1.390 . S
C1417 C1416 1.387 . S
H1418 C1430 0.930 . S
H1419 C1432 0.930 . S
H1420 C1433 0.930 . S
H1421 C1437 0.959 . S
H1422 C1437 0.959 . S
H1423 C1437 0.961 . S
H1424 C1438 0.960 . S
H1425 C1438 0.961 . S
H1426 C1438 0.959 . S
H1427 C1441 0.929 . S
H1428 C1442 0.931 . S
H1429 C1444 0.930 . S
C1430 H1418 0.930 . S
C1430 C1431 1.399 . S
C1430 C1435 1.399 . S
C1431 C1430 1.399 . S
C1431 C1432 1.376 . S
C1432 H1419 0.930 . S
C1432 C1431 1.376 . S
C1432 C1433 1.388 . S
C1433 H1420 0.930 . S
C1433 C1432 1.388 . S
C1433 C1434 1.390 . S
C1434 C1433 1.390 . S
C1434 C1435 1.394 . S
C1434 C1440 1.465 . S
C1435 C1430 1.399 . S
C1435 C1434 1.394 . S
C1435 C1436 1.516 . S
C1436 C1435 1.516 . S
C1436 C1437 1.502 . S
C1436 C1438 1.561 . S
C1436 C1439 1.526 . S
C1437 H1421 0.959 . S
C1437 H1422 0.959 . S
C1437 H1423 0.961 . S
C1437 C1436 1.502 . S
C1438 H1424 0.960 . S
C1438 H1425 0.961 . S
C1438 H1426 0.959 . S
C1438 C1436 1.561 . S
C1439 C1436 1.526 . S
C1439 C1440 1.396 . S
C1439 C1444 1.390 . S
C1440 C1434 1.465 . S
C1440 C1439 1.396 . S
C1440 C1441 1.399 . S
C1441 H1427 0.929 . S
C1441 C1440 1.399 . S
C1441 C1442 1.385 . S
C1442 H1428 0.931 . S
C1442 C1441 1.385 . S
C1442 C1443 1.389 . S
C1443 C1442 1.389 . S
C1443 C1444 1.387 . S
C1444 H1429 0.930 . S
C1444 C1439 1.390 . S
C1444 C1443 1.387 . S
H1445 C1457 0.930 . S
H1446 C1459 0.930 . S
H1447 C1460 0.930 . S
H1448 C1464 0.959 . S
H1449 C1464 0.959 . S
H1450 C1464 0.961 . S
H1451 C1465 0.960 . S
H1452 C1465 0.961 . S
H1453 C1465 0.959 . S
H1454 C1468 0.929 . S
H1455 C1469 0.931 . S
H1456 C1471 0.930 . S
C1457 H1445 0.930 . S
C1457 C1458 1.399 . S
C1457 C1462 1.399 . S
C1458 C1457 1.399 . S
C1458 C1459 1.376 . S
C1459 H1446 0.930 . S
C1459 C1458 1.376 . S
C1459 C1460 1.388 . S
C1460 H1447 0.930 . S
C1460 C1459 1.388 . S
C1460 C1461 1.390 . S
C1461 C1460 1.390 . S
C1461 C1462 1.394 . S
C1461 C1467 1.465 . S
C1462 C1457 1.399 . S
C1462 C1461 1.394 . S
C1462 C1463 1.516 . S
C1463 C1462 1.516 . S
C1463 C1464 1.502 . S
C1463 C1465 1.561 . S
C1463 C1466 1.526 . S
C1464 H1448 0.959 . S
C1464 H1449 0.959 . S
C1464 H1450 0.961 . S
C1464 C1463 1.502 . S
C1465 H1451 0.960 . S
C1465 H1452 0.961 . S
C1465 H1453 0.959 . S
C1465 C1463 1.561 . S
C1466 C1463 1.526 . S
C1466 C1467 1.396 . S
C1466 C1471 1.390 . S
C1467 C1461 1.465 . S
C1467 C1466 1.396 . S
C1467 C1468 1.399 . S
C1468 H1454 0.929 . S
C1468 C1467 1.399 . S
C1468 C1469 1.385 . S
C1469 H1455 0.931 . S
C1469 C1468 1.385 . S
C1469 C1470 1.389 . S
C1470 C1469 1.389 . S
C1470 C1471 1.387 . S
C1471 H1456 0.930 . S
C1471 C1466 1.390 . S
C1471 C1470 1.387 . S
C633 C516 1.441 . S
C621 C35 1.250 . S
C660 C533 1.412 . S
C648 C115 1.293 . S
C687 C547 1.546 . S
C675 C177 1.395 . S
C702 C221 1.368 . S
C714 C505 1.437 . S
C729 C283 1.406 . S
C741 C502 1.515 . S
C756 C363 1.257 . S
C768 C519 1.381 . S
C795 C530 1.682 . S
C783 C407 1.532 . S
C822 C544 1.574 . S
C810 C469 1.364 1_565 S
C837 C159 1.353 . S
C849 C572 1.564 . S
C876 C586 1.676 . S
C864 C239 1.546 . S
C891 C53 1.196 . S
C903 C603 1.323 . S
C930 C558 1.531 . S
C918 C97 1.298 . S
C945 C425 1.277 . S
C957 C561 1.402 . S
C972 C487 1.419 . S
C984 C575 1.533 . S
C1011 C589 1.416 . S
C999 C301 1.289 . S
C1026 C345 1.373 . S
C1038 C600 1.425 . S
C1065 C532 2.151 . S
C1053 C29 2.167 . S
C1092 C546 2.240 . S
C1080 C109 2.168 . S
C1107 C171 2.097 . S
C1119 C504 2.180 1_556 S
C1134 C215 2.020 . S
C1146 C517 1.871 . S
C1161 C277 1.807 . S
C1173 C545 1.721 . S
C1200 C503 1.656 . S
C1188 C357 1.768 . S
C1227 C518 2.045 . S
C1215 C401 2.035 . S
C1254 C531 1.800 . S
C1242 C463 1.877 . S
C1281 C587 1.847 . S
C1269 C153 1.907 . S
C1308 C602 2.049 . S
C1296 C233 2.022 . S
C1323 C47 1.715 . S
C1335 C559 1.720 . S
C1362 C573 1.742 . S
C1350 C91 1.771 . S
C1389 C601 1.947 . S
C1377 C419 1.883 . S
C1404 C481 2.110 1_655 S
C1416 C560 2.172 . S
C1443 C574 2.231 . S
C1431 C295 2.201 . S
C1470 C588 2.157 . S
C1458 C339 2.157 . S
