# Generated by pormake.
# Topology pto, (3,4)-cn, num edge types: 1
# Building blocks:
#     Node 0, Type 0, BuildingBlock: OLANEW_clean_sbu_2, # of connection points: 3
#     Node 1, Type 0, BuildingBlock: OLANEW_clean_sbu_2, # of connection points: 3
#     Node 2, Type 0, BuildingBlock: OLANEW_clean_sbu_2, # of connection points: 3
#     Node 3, Type 0, BuildingBlock: OLANEW_clean_sbu_2, # of connection points: 3
#     Node 4, Type 0, BuildingBlock: OLANEW_clean_sbu_2, # of connection points: 3
#     Node 5, Type 0, BuildingBlock: OLANEW_clean_sbu_2, # of connection points: 3
#     Node 6, Type 0, BuildingBlock: OLANEW_clean_sbu_2, # of connection points: 3
#     Node 7, Type 0, BuildingBlock: OLANEW_clean_sbu_2, # of connection points: 3
#     Node 8, Type 1, BuildingBlock: NAHDIM_clean_linker_0, # of connection points: 4
#     Node 9, Type 1, BuildingBlock: NAHDIM_clean_linker_0, # of connection points: 4
#     Node 10, Type 1, BuildingBlock: NAHDIM_clean_linker_0, # of connection points: 4
#     Node 11, Type 1, BuildingBlock: NAHDIM_clean_linker_0, # of connection points: 4
#     Node 12, Type 1, BuildingBlock: NAHDIM_clean_linker_0, # of connection points: 4
#     Node 13, Type 1, BuildingBlock: NAHDIM_clean_linker_0, # of connection points: 4
#     Edge 14, Type (0, 1), BuildingBlock: AJUNOK_clean_linker_0, # of connection points: 2
#     Edge 15, Type (0, 1), BuildingBlock: AJUNOK_clean_linker_0, # of connection points: 2
#     Edge 16, Type (0, 1), BuildingBlock: AJUNOK_clean_linker_0, # of connection points: 2
#     Edge 17, Type (0, 1), BuildingBlock: AJUNOK_clean_linker_0, # of connection points: 2
#     Edge 18, Type (0, 1), BuildingBlock: AJUNOK_clean_linker_0, # of connection points: 2
#     Edge 19, Type (0, 1), BuildingBlock: AJUNOK_clean_linker_0, # of connection points: 2
#     Edge 20, Type (0, 1), BuildingBlock: AJUNOK_clean_linker_0, # of connection points: 2
#     Edge 21, Type (0, 1), BuildingBlock: AJUNOK_clean_linker_0, # of connection points: 2
#     Edge 22, Type (0, 1), BuildingBlock: AJUNOK_clean_linker_0, # of connection points: 2
#     Edge 23, Type (0, 1), BuildingBlock: AJUNOK_clean_linker_0, # of connection points: 2
#     Edge 24, Type (0, 1), BuildingBlock: AJUNOK_clean_linker_0, # of connection points: 2
#     Edge 25, Type (0, 1), BuildingBlock: AJUNOK_clean_linker_0, # of connection points: 2
#     Edge 26, Type (0, 1), BuildingBlock: AJUNOK_clean_linker_0, # of connection points: 2
#     Edge 27, Type (0, 1), BuildingBlock: AJUNOK_clean_linker_0, # of connection points: 2
#     Edge 28, Type (0, 1), BuildingBlock: AJUNOK_clean_linker_0, # of connection points: 2
#     Edge 29, Type (0, 1), BuildingBlock: AJUNOK_clean_linker_0, # of connection points: 2
#     Edge 30, Type (0, 1), BuildingBlock: AJUNOK_clean_linker_0, # of connection points: 2
#     Edge 31, Type (0, 1), BuildingBlock: AJUNOK_clean_linker_0, # of connection points: 2
#     Edge 32, Type (0, 1), BuildingBlock: AJUNOK_clean_linker_0, # of connection points: 2
#     Edge 33, Type (0, 1), BuildingBlock: AJUNOK_clean_linker_0, # of connection points: 2
#     Edge 34, Type (0, 1), BuildingBlock: AJUNOK_clean_linker_0, # of connection points: 2
#     Edge 35, Type (0, 1), BuildingBlock: AJUNOK_clean_linker_0, # of connection points: 2
#     Edge 36, Type (0, 1), BuildingBlock: AJUNOK_clean_linker_0, # of connection points: 2
#     Edge 37, Type (0, 1), BuildingBlock: AJUNOK_clean_linker_0, # of connection points: 2
# Relax obj value: 0.013
# Max RMSD: 0.131
# Mean RMSD: 0.068
data_MOF--net-pto--node1-OLANEW_clean_sbu_2--node2-NAHDIM_clean_linker_0--edge1-AJUNOK_clean_linker_0
_symmetry_space_group_name_H-M    P1
_symmetry_Int_Tables_number       1
_symmetry_cell_setting            triclinic
loop_
_symmetry_equiv_pos_as_xyz
'x, y, z'
_cell_length_a     49.747913
_cell_length_b     49.493328
_cell_length_c     45.946916
_cell_angle_alpha  92.564536
_cell_angle_beta   91.164709
_cell_angle_gamma 103.27985
loop_
_atom_site_label
_atom_site_type_symbol
_atom_site_fract_x
_atom_site_fract_y
_atom_site_fract_z
_atom_type_partial_charge
O0 O 0.33084 0.38407 0.26096 0.0
Cd1 Cd 0.28766 0.37235 0.28693 0.0
O2 O 0.34572 0.42356 0.28645 0.0
Cd3 Cd 0.30543 0.42118 0.30513 0.0
O4 O 0.26323 0.42502 0.29689 0.0
C5 C 0.25878 0.43085 0.27085 0.0
O6 O 0.27921 0.43368 0.25269 0.0
C7 C 0.34978 0.40577 0.2672 0.0
C8 C 0.29185 0.33521 0.32972 0.0
O9 O 0.28073 0.3265 0.30461 0.0
O10 O 0.30076 0.36148 0.33463 0.0
O11 O 0.31462 0.90676 0.78969 0.0
Cd12 Cd 0.29694 0.92336 0.74565 0.0
O13 O 0.28305 0.86779 0.78544 0.0
Cd14 Cd 0.26134 0.8258 0.79582 0.0
O15 O 0.23565 0.78561 0.80638 0.0
C16 C 0.21847 0.78455 0.82663 0.0
O17 O 0.21687 0.80779 0.84071 0.0
C18 C 0.30389 0.88313 0.79922 0.0
C19 C 0.33781 0.96549 0.72414 0.0
O20 O 0.32073 0.97092 0.7428 0.0
O21 O 0.33524 0.94007 0.71532 0.0
O22 O 0.80225 0.78247 0.29426 0.0
Cd23 Cd 0.78459 0.75578 0.24895 0.0
O24 O 0.81114 0.82301 0.27424 0.0
Cd25 Cd 0.79083 0.80583 0.23269 0.0
O26 O 0.7615 0.79631 0.19553 0.0
C27 C 0.75306 0.81631 0.18504 0.0
O28 O 0.76298 0.84156 0.19644 0.0
C29 C 0.81167 0.80867 0.29644 0.0
C30 C 0.81388 0.71533 0.2342 0.0
O31 O 0.82084 0.73983 0.22463 0.0
O32 O 0.79314 0.71007 0.25082 0.0
O33 O 0.7609 0.30375 0.68337 0.0
Cd34 Cd 0.71599 0.27757 0.66353 0.0
O35 O 0.73689 0.31922 0.71688 0.0
Cd36 Cd 0.72878 0.34349 0.7554 0.0
O37 O 0.71836 0.3623 0.79631 0.0
C38 C 0.70676 0.38265 0.79665 0.0
O39 O 0.70136 0.39274 0.77178 0.0
C40 C 0.7603 0.31876 0.70642 0.0
C41 C 0.71344 0.22176 0.64853 0.0
O42 O 0.7174 0.23996 0.62913 0.0
O43 O 0.71128 0.23002 0.67503 0.0
O44 O 0.7554 0.73397 0.65763 0.0
Cd45 Cd 0.75279 0.68718 0.67372 0.0
O46 O 0.73822 0.74552 0.69858 0.0
Cd47 Cd 0.72235 0.77238 0.7296 0.0
O48 O 0.70324 0.79012 0.76588 0.0
C49 C 0.69243 0.81082 0.76326 0.0
O50 O 0.69303 0.8222 0.73793 0.0
C51 C 0.7479 0.75219 0.67383 0.0
C52 C 0.79694 0.68681 0.71171 0.0
O53 O 0.79947 0.68486 0.68408 0.0
O54 O 0.77352 0.68872 0.72158 0.0
O55 O 0.80081 0.27099 0.22031 0.0
Cd56 Cd 0.75909 0.23854 0.23528 0.0
O57 O 0.79818 0.29999 0.25726 0.0
Cd58 Cd 0.75579 0.27985 0.26646 0.0
O59 O 0.72346 0.29572 0.24528 0.0
C60 C 0.72588 0.29757 0.21791 0.0
O61 O 0.74514 0.28745 0.20524 0.0
C62 C 0.81089 0.29344 0.23525 0.0
C63 C 0.76953 0.20328 0.27758 0.0
O64 O 0.76583 0.1948 0.25072 0.0
O65 O 0.76863 0.22843 0.28439 0.0
O66 O 0.29523 0.37762 0.82149 0.0
Cd67 Cd 0.25882 0.35873 0.78477 0.0
O68 O 0.31774 0.40902 0.79305 0.0
Cd69 Cd 0.29628 0.38743 0.75381 0.0
O70 O 0.30041 0.36178 0.71498 0.0
C71 C 0.32476 0.36616 0.70554 0.0
O72 O 0.34427 0.38552 0.71871 0.0
C73 C 0.31461 0.39887 0.81802 0.0
C74 C 0.21353 0.38113 0.79774 0.0
O75 O 0.21607 0.35821 0.8081 0.0
O76 O 0.23209 0.39304 0.78057 0.0
O77 O 0.32487 0.88445 0.23258 0.0
Cd78 Cd 0.28818 0.90053 0.25777 0.0
O79 O 0.29801 0.84934 0.20739 0.0
Cd80 Cd 0.25956 0.85162 0.22813 0.0
O81 O 0.22586 0.82048 0.24499 0.0
C82 C 0.2232 0.79644 0.23272 0.0
O83 O 0.23934 0.79351 0.21107 0.0
C84 C 0.32197 0.86416 0.21391 0.0
C85 C 0.31058 0.93033 0.30911 0.0
O86 O 0.29885 0.90441 0.30916 0.0
O87 O 0.31123 0.94227 0.28487 0.0
C88 C 0.88085 0.38798 0.15882 0.0
C89 C 0.89529 0.38022 0.18595 0.0
C90 C 0.92538 0.42432 0.20609 0.0
C91 C 0.92978 0.44268 0.23056 0.0
C92 C 0.95296 0.46498 0.23331 0.0
C93 C 0.97173 0.46964 0.21031 0.0
C94 C 0.96717 0.45138 0.18513 0.0
C95 C 0.94422 0.42863 0.18344 0.0
C96 C 0.95753 0.48311 0.26113 0.0
C97 C 0.98667 0.45564 0.16014 0.0
C98 C 0.13372 0.417 0.2177 0.0
C99 C 0.15222 0.4457 0.2262 0.0
C100 C 0.11782 0.4721 0.24056 0.0
C101 C 0.10905 0.47644 0.21219 0.0
C102 C 0.0864 0.48832 0.20759 0.0
C103 C 0.07186 0.49559 0.23174 0.0
C104 C 0.08075 0.49154 0.26032 0.0
C105 C 0.10388 0.48019 0.26433 0.0
C106 C 0.07761 0.49255 0.17679 0.0
C107 C 0.06541 0.49856 0.28654 0.0
C108 C 0.11052 0.67832 0.27432 0.0
C109 C 0.11035 0.67156 0.2443 0.0
C110 C 0.08755 0.65301 0.23047 0.0
C111 C 0.06478 0.64069 0.24717 0.0
C112 C 0.06453 0.64837 0.27721 0.0
C113 C 0.0873 0.66746 0.29028 0.0
C114 C 0.08802 0.64611 0.1982 0.0
C115 C 0.04051 0.63593 0.29569 0.0
C116 C 0.85229 0.61428 0.16704 0.0
C117 C 0.86969 0.62905 0.1934 0.0
C118 C 0.91964 0.63218 0.19303 0.0
C119 C 0.9404 0.63308 0.17284 0.0
C120 C 0.96469 0.62464 0.17993 0.0
C121 C 0.96846 0.61556 0.20817 0.0
C122 C 0.94795 0.61556 0.22908 0.0
C123 C 0.92375 0.62395 0.22133 0.0
C124 C 0.98623 0.62515 0.15719 0.0
C125 C 0.95162 0.60667 0.25962 0.0
C126 C 0.99706 0.4924 0.21368 0.0
C127 C 0.0219 0.4851 0.22028 0.0
C128 C 0.04614 0.50532 0.22673 0.0
C129 C 0.04552 0.53376 0.2278 0.0
C130 C 0.06909 0.55459 0.23606 0.0
C131 C 0.06787 0.58242 0.2383 0.0
C132 C 0.04333 0.59059 0.23122 0.0
C133 C 0.04175 0.61878 0.23381 0.0
C134 C 0.01727 0.62622 0.22578 0.0
C135 C 0.9939 0.60614 0.21581 0.0
C136 C 0.99479 0.57774 0.21397 0.0
C137 C 0.97147 0.55689 0.20479 0.0
C138 C 0.97223 0.52892 0.20434 0.0
C139 C 0.99641 0.52077 0.21272 0.0
C140 C 0.02055 0.5415 0.22061 0.0
C141 C 0.01961 0.56998 0.22172 0.0
C142 C 0.1756 0.69322 0.31137 0.0
C143 C 0.16011 0.69566 0.28286 0.0
O144 O 0.90263 0.40301 0.2055 0.0
O145 O 0.89634 0.64004 0.1846 0.0
O146 O 0.13275 0.69504 0.28861 0.0
O147 O 0.13922 0.45996 0.24606 0.0
H148 H 0.91406 0.37303 0.17962 0.0
H149 H 0.89469 0.40509 0.14785 0.0
H150 H 0.86189 0.3949 0.16487 0.0
H151 H 0.87505 0.36982 0.14298 0.0
H152 H 0.91512 0.4391 0.24791 0.0
H153 H 0.94115 0.41451 0.16438 0.0
H154 H 0.97934 0.48681 0.26914 0.0
H155 H 0.94387 0.47375 0.27864 0.0
H156 H 0.95312 0.50358 0.25687 0.0
H157 H 0.97747 0.44331 0.1401 0.0
H158 H 0.00579 0.44907 0.16635 0.0
H159 H 0.9926 0.47795 0.15517 0.0
H160 H 0.15662 0.45768 0.20628 0.0
H161 H 0.14441 0.40543 0.20223 0.0
H162 H 0.11426 0.41921 0.20685 0.0
H163 H 0.12838 0.40469 0.23727 0.0
H164 H 0.11949 0.4705 0.19341 0.0
H165 H 0.11078 0.47684 0.28613 0.0
H166 H 0.0575 0.47794 0.17112 0.0
H167 H 0.0929 0.48895 0.16064 0.0
H168 H 0.07466 0.514 0.17501 0.0
H169 H 0.07438 0.49322 0.30726 0.0
H170 H 0.04339 0.48718 0.28441 0.0
H171 H 0.06591 0.52111 0.28769 0.0
H172 H 0.16152 0.67719 0.26867 0.0
H173 H 0.128 0.68075 0.2317 0.0
H174 H 0.08753 0.67321 0.31334 0.0
H175 H 0.08982 0.62428 0.19461 0.0
H176 H 0.10558 0.6599 0.1877 0.0
H177 H 0.06839 0.64791 0.18737 0.0
H178 H 0.04432 0.64273 0.31908 0.0
H179 H 0.03627 0.61288 0.29367 0.0
H180 H 0.0217 0.64217 0.28779 0.0
H181 H 0.86959 0.61304 0.20963 0.0
H182 H 0.83086 0.60502 0.17349 0.0
H183 H 0.86143 0.5973 0.15809 0.0
H184 H 0.85161 0.62904 0.14966 0.0
H185 H 0.93723 0.63993 0.15122 0.0
H186 H 0.90835 0.62446 0.23753 0.0
H187 H 0.99032 0.60411 0.15384 0.0
H188 H 0.00592 0.63948 0.16491 0.0
H189 H 0.97982 0.63196 0.13595 0.0
H190 H 0.93432 0.60896 0.27371 0.0
H191 H 0.97126 0.61924 0.26971 0.0
H192 H 0.95301 0.58459 0.25884 0.0
H193 H 0.02233 0.46329 0.22069 0.0
H194 H 0.08857 0.54955 0.24155 0.0
H195 H 0.08649 0.59746 0.24552 0.0
H196 H 0.01622 0.64788 0.22787 0.0
H197 H 0.95224 0.56193 0.19827 0.0
H198 H 0.95359 0.51372 0.19743 0.0
H199 H 0.17462 0.71046 0.32734 0.0
H200 H 0.19761 0.6936 0.3072 0.0
H201 H 0.16617 0.67323 0.32111 0.0
C202 C 0.14166 0.46021 0.85784 0.0
C203 C 0.12779 0.43814 0.83434 0.0
C204 C 0.09478 0.46014 0.80902 0.0
C205 C 0.08927 0.47167 0.783 0.0
C206 C 0.06561 0.48218 0.77924 0.0
C207 C 0.0471 0.48137 0.80232 0.0
C208 C 0.05243 0.46968 0.82876 0.0
C209 C 0.07614 0.45906 0.83183 0.0
C210 C 0.06045 0.49428 0.75065 0.0
C211 C 0.03313 0.46862 0.85381 0.0
C212 C 0.88079 0.35872 0.77105 0.0
C213 C 0.86318 0.37985 0.76583 0.0
C214 C 0.89996 0.42185 0.7595 0.0
C215 C 0.90798 0.42746 0.7891 0.0
C216 C 0.93155 0.44816 0.79761 0.0
C217 C 0.94762 0.46337 0.77613 0.0
C218 C 0.93947 0.45798 0.74636 0.0
C219 C 0.91554 0.43749 0.73851 0.0
C220 C 0.93947 0.4536 0.82959 0.0
C221 C 0.95626 0.47358 0.72284 0.0
C222 C 0.90919 0.63011 0.76665 0.0
C223 C 0.9149 0.6294 0.79668 0.0
C224 C 0.93792 0.62008 0.80667 0.0
C225 C 0.95579 0.61183 0.78625 0.0
C226 C 0.95071 0.61372 0.75607 0.0
C227 C 0.92728 0.62253 0.74672 0.0
C228 C 0.94285 0.61851 0.83899 0.0
C229 C 0.96974 0.60597 0.73362 0.0
C230 C 0.16711 0.66545 0.88055 0.0
C231 C 0.15191 0.67573 0.8556 0.0
C232 C 0.10142 0.66141 0.85098 0.0
C233 C 0.07896 0.65198 0.86854 0.0
C234 C 0.05418 0.63518 0.85673 0.0
C235 C 0.05171 0.62817 0.82644 0.0
C236 C 0.07381 0.6391 0.80825 0.0
C237 C 0.0985 0.65563 0.82072 0.0
C238 C 0.0309 0.62426 0.87672 0.0
C239 C 0.0715 0.63276 0.77575 0.0
C240 C 0.02226 0.49289 0.79877 0.0
C241 C 0.99737 0.47463 0.78977 0.0
C242 C 0.97342 0.48423 0.78486 0.0
C243 C 0.97437 0.51298 0.7884 0.0
C244 C 0.95087 0.52349 0.783 0.0
C245 C 0.95229 0.5519 0.78564 0.0
C246 C 0.97714 0.57089 0.79424 0.0
C247 C 0.979 0.59989 0.79617 0.0
C248 C 0.00358 0.61806 0.80637 0.0
C249 C 0.02669 0.60807 0.81424 0.0
C250 C 0.02563 0.57926 0.811 0.0
C251 C 0.04883 0.56861 0.81755 0.0
C252 C 0.0478 0.54035 0.81354 0.0
C253 C 0.02338 0.52157 0.80338 0.0
C254 C 0.99948 0.53171 0.79765 0.0
C255 C 0.00074 0.56064 0.80101 0.0
C256 C 0.84539 0.65475 0.75254 0.0
C257 C 0.86718 0.64783 0.77158 0.0
O258 O 0.11831 0.45063 0.81105 0.0
O259 O 0.12538 0.67618 0.86398 0.0
O260 O 0.88646 0.63753 0.75587 0.0
O261 O 0.87765 0.40155 0.75016 0.0
H262 H 0.11012 0.42352 0.84376 0.0
H263 H 0.12673 0.47192 0.86637 0.0
H264 H 0.15923 0.47525 0.84877 0.0
H265 H 0.14944 0.45018 0.87638 0.0
H266 H 0.10369 0.4724 0.76552 0.0
H267 H 0.07994 0.4502 0.85216 0.0
H268 H 0.0395 0.48407 0.74167 0.0
H269 H 0.07591 0.4918 0.73424 0.0
H270 H 0.06119 0.51676 0.75429 0.0
H271 H 0.0409 0.46023 0.87351 0.0
H272 H 0.01258 0.45532 0.84717 0.0
H273 H 0.03022 0.48979 0.85952 0.0
H274 H 0.85766 0.38821 0.78719 0.0
H275 H 0.86896 0.34111 0.78313 0.0
H276 H 0.89971 0.36854 0.78427 0.0
H277 H 0.8871 0.35051 0.75001 0.0
H278 H 0.89609 0.41582 0.80575 0.0
H279 H 0.90917 0.43314 0.71575 0.0
H280 H 0.94287 0.47615 0.83557 0.0
H281 H 0.95918 0.44742 0.83401 0.0
H282 H 0.92347 0.44192 0.84375 0.0
H283 H 0.94802 0.46582 0.70062 0.0
H284 H 0.97804 0.47172 0.72491 0.0
H285 H 0.95633 0.496 0.72549 0.0
H286 H 0.8592 0.63518 0.79037 0.0
H287 H 0.90129 0.63562 0.81239 0.0
H288 H 0.92285 0.62344 0.72363 0.0
H289 H 0.94457 0.59721 0.84399 0.0
H290 H 0.92608 0.62396 0.85198 0.0
H291 H 0.9627 0.633 0.84591 0.0
H292 H 0.96536 0.61268 0.71162 0.0
H293 H 0.96717 0.58307 0.73231 0.0
H294 H 0.99164 0.61547 0.74003 0.0
H295 H 0.15135 0.66061 0.83678 0.0
H296 H 0.18843 0.66485 0.87428 0.0
H297 H 0.15601 0.64409 0.88556 0.0
H298 H 0.1682 0.67917 0.90056 0.0
H299 H 0.08126 0.65708 0.89178 0.0
H300 H 0.1154 0.66402 0.80682 0.0
H301 H 0.02589 0.60118 0.87542 0.0
H302 H 0.01208 0.63094 0.86959 0.0
H303 H 0.03607 0.63167 0.89978 0.0
H304 H 0.08947 0.64483 0.7643 0.0
H305 H 0.05229 0.63745 0.76672 0.0
H306 H 0.07016 0.61027 0.77116 0.0
H307 H 0.99664 0.45262 0.78648 0.0
H308 H 0.93121 0.50988 0.77631 0.0
H309 H 0.9336 0.55879 0.78091 0.0
H310 H 0.00477 0.64024 0.80816 0.0
H311 H 0.06819 0.58202 0.82549 0.0
H312 H 0.06639 0.53341 0.81861 0.0
H313 H 0.82562 0.64008 0.75845 0.0
H314 H 0.84636 0.64411 0.73051 0.0
H315 H 0.8519 0.69789 0.75879 0.0
C316 C 0.34957 0.30739 0.67262 0.0
C317 C 0.35982 0.28692 0.65374 0.0
C318 C 0.34783 0.23764 0.63803 0.0
C319 C 0.37076 0.23893 0.62027 0.0
C320 C 0.37464 0.21515 0.60471 0.0
C321 C 0.35484 0.18971 0.60628 0.0
C322 C 0.33157 0.18841 0.62381 0.0
C323 C 0.32849 0.21239 0.63963 0.0
C324 C 0.39997 0.21723 0.58662 0.0
C325 C 0.30995 0.16168 0.62581 0.0
C326 C 0.45502 0.05208 0.70194 0.0
C327 C 0.42766 0.05572 0.68881 0.0
C328 C 0.41618 0.07207 0.64208 0.0
C329 C 0.38808 0.07138 0.64553 0.0
C330 C 0.37443 0.08681 0.62794 0.0
C331 C 0.38943 0.10399 0.60711 0.0
C332 C 0.41787 0.10478 0.60372 0.0
C333 C 0.43062 0.08813 0.62072 0.0
C334 C 0.34402 0.08492 0.63192 0.0
C335 C 0.43504 0.12356 0.58264 0.0
C336 C 0.37603 0.03629 0.42194 0.0
C337 C 0.3492 0.03331 0.43238 0.0
C338 C 0.34139 0.05572 0.44701 0.0
C339 C 0.36078 0.08152 0.45121 0.0
C340 C 0.38747 0.08479 0.4398 0.0
C341 C 0.39464 0.06214 0.4251 0.0
C342 C 0.31258 0.05179 0.45834 0.0
C343 C 0.40858 0.11208 0.44364 0.0
C344 C 0.28783 0.26223 0.44476 0.0
C345 C 0.30721 0.25963 0.41985 0.0
C346 C 0.31163 0.21178 0.42214 0.0
C347 C 0.29303 0.18648 0.42596 0.0
C348 C 0.30128 0.1652 0.44044 0.0
C349 C 0.32905 0.1692 0.45053 0.0
C350 C 0.34836 0.1942 0.4451 0.0
C351 C 0.33937 0.21534 0.43114 0.0
C352 C 0.28021 0.13876 0.44561 0.0
C353 C 0.37841 0.19878 0.45441 0.0
C354 C 0.35865 0.16447 0.58972 0.0
C355 C 0.37053 0.14581 0.60444 0.0
C356 C 0.37574 0.12214 0.59002 0.0
C357 C 0.36894 0.11685 0.55991 0.0
C358 C 0.37344 0.09306 0.54472 0.0
C359 C 0.3682 0.08894 0.51478 0.0
C360 C 0.3579 0.10827 0.49893 0.0
C361 C 0.35356 0.10489 0.46832 0.0
C362 C 0.34367 0.12473 0.45322 0.0
C363 C 0.3377 0.1479 0.46794 0.0
C364 C 0.34139 0.15133 0.4986 0.0
C365 C 0.3349 0.17401 0.51417 0.0
C366 C 0.34003 0.17807 0.54409 0.0
C367 C 0.35194 0.15967 0.5596 0.0
C368 C 0.35749 0.136 0.54458 0.0
C369 C 0.35206 0.13175 0.51405 0.0
C370 C 0.39836 0.97256 0.41404 0.0
C371 C 0.37422 0.98677 0.41172 0.0
O372 O 0.34369 0.26007 0.65399 0.0
O373 O 0.30232 0.23219 0.40929 0.0
O374 O 0.38479 0.01493 0.40865 0.0
O375 O 0.42986 0.05743 0.6589 0.0
H376 H 0.38236 0.28801 0.65679 0.0
H377 H 0.33426 0.29505 0.68757 0.0
H378 H 0.33882 0.33424 0.6429 0.0
H379 H 0.36611 0.31462 0.69017 0.0
H380 H 0.38584 0.25833 0.61854 0.0
H381 H 0.31084 0.21158 0.65328 0.0
H382 H 0.41067 0.20061 0.59195 0.0
H383 H 0.41482 0.2377 0.5901 0.0
H384 H 0.39371 0.2142 0.56316 0.0
H385 H 0.29194 0.16464 0.63844 0.0
H386 H 0.31923 0.14618 0.63652 0.0
H387 H 0.30257 0.15297 0.60361 0.0
H388 H 0.42442 0.07581 0.69832 0.0
H389 H 0.45387 0.05117 0.72602 0.0
H390 H 0.47195 0.07001 0.69689 0.0
H391 H 0.46012 0.03274 0.69287 0.0
H392 H 0.37661 0.05855 0.66161 0.0
H393 H 0.45229 0.08838 0.61818 0.0
H394 H 0.3329 0.08318 0.61046 0.0
H395 H 0.34135 0.10413 0.64374 0.0
H396 H 0.33433 0.06687 0.64468 0.0
H397 H 0.45754 0.12599 0.58701 0.0
H398 H 0.43036 0.14446 0.58378 0.0
H399 H 0.4301 0.11457 0.56009 0.0
H400 H 0.36303 0.98341 0.43247 0.0
H401 H 0.3343 0.01363 0.42907 0.0
H402 H 0.41514 0.06431 0.41658 0.0
H403 H 0.31366 0.05453 0.48249 0.0
H404 H 0.29946 0.0309 0.45204 0.0
H405 H 0.30257 0.06786 0.44989 0.0
H406 H 0.42851 0.11118 0.4336 0.0
H407 H 0.41249 0.11795 0.46722 0.0
H408 H 0.40044 0.12871 0.43363 0.0
H409 H 0.32882 0.2667 0.42858 0.0
H410 H 0.29148 0.2842 0.45323 0.0
H411 H 0.29176 0.24943 0.46293 0.0
H412 H 0.26588 0.25497 0.43721 0.0
H413 H 0.27176 0.18382 0.41841 0.0
H414 H 0.35411 0.23446 0.42701 0.0
H415 H 0.27962 0.13496 0.46926 0.0
H416 H 0.28628 0.1209 0.43425 0.0
H417 H 0.25914 0.13945 0.43769 0.0
H418 H 0.39146 0.21715 0.44448 0.0
H419 H 0.38638 0.18016 0.44833 0.0
H420 H 0.38052 0.20215 0.47847 0.0
H421 H 0.37618 0.14999 0.62742 0.0
H422 H 0.38142 0.07754 0.55576 0.0
H423 H 0.37255 0.07051 0.50418 0.0
H424 H 0.34108 0.12238 0.42967 0.0
H425 H 0.326 0.18904 0.50337 0.0
H426 H 0.33486 0.19603 0.55486 0.0
H427 H 0.41069 0.97525 0.39403 0.0
H428 H 0.39067 0.94999 0.41718 0.0
H429 H 0.41206 0.98184 0.43305 0.0
C430 C 0.4302 0.81514 0.19783 0.0
C431 C 0.42244 0.8332 0.17434 0.0
C432 C 0.4385 0.82112 0.12655 0.0
C433 C 0.45433 0.8471 0.11924 0.0
C434 C 0.4741 0.84904 0.0976 0.0
C435 C 0.47786 0.82452 0.08285 0.0
C436 C 0.46132 0.79841 0.08954 0.0
C437 C 0.44161 0.79711 0.11116 0.0
C438 C 0.49098 0.87726 0.09047 0.0
C439 C 0.46462 0.77192 0.07399 0.0
C440 C 0.67972 0.79976 0.06292 0.0
C441 C 0.66668 0.80014 0.09281 0.0
C442 C 0.62761 0.82221 0.08429 0.0
C443 C 0.61009 0.79929 0.06915 0.0
C444 C 0.58389 0.80093 0.05849 0.0
C445 C 0.57522 0.82612 0.06246 0.0
C446 C 0.59282 0.84923 0.07756 0.0
C447 C 0.61872 0.84687 0.08841 0.0
C448 C 0.56544 0.77567 0.04295 0.0
C449 C 0.58432 0.87644 0.08216 0.0
C450 C 0.59598 0.85578 0.87504 0.0
C451 C 0.58306 0.82865 0.8819 0.0
C452 C 0.55962 0.82366 0.89915 0.0
C453 C 0.54925 0.84637 0.91002 0.0
C454 C 0.56154 0.87361 0.90195 0.0
C455 C 0.58459 0.87789 0.88415 0.0
C456 C 0.54638 0.79422 0.90635 0.0
C457 C 0.55087 0.89828 0.91285 0.0
C458 C 0.33036 0.83499 0.92785 0.0
C459 C 0.35122 0.84986 0.90635 0.0
C460 C 0.39542 0.8351 0.90896 0.0
C461 C 0.40564 0.81105 0.90792 0.0
C462 C 0.43259 0.81151 0.91797 0.0
C463 C 0.44991 0.83686 0.92891 0.0
C464 C 0.4401 0.86152 0.92914 0.0
C465 C 0.41298 0.86043 0.91919 0.0
C466 C 0.44245 0.78486 0.91724 0.0
C467 C 0.45832 0.88902 0.94006 0.0
C468 C 0.49941 0.82627 0.06072 0.0
C469 C 0.52605 0.82547 0.07029 0.0
C470 C 0.54769 0.8282 0.05092 0.0
C471 C 0.5428 0.83226 0.02117 0.0
C472 C 0.56435 0.83647 0.00136 0.0
C473 C 0.55925 0.83998 0.97205 0.0
C474 C 0.53233 0.83904 0.96132 0.0
C475 C 0.52684 0.84192 0.93141 0.0
C476 C 0.49985 0.84097 0.92151 0.0
C477 C 0.47805 0.83748 0.9408 0.0
C478 C 0.48318 0.83474 0.9708 0.0
C479 C 0.4618 0.83149 0.99085 0.0
C480 C 0.46708 0.82895 0.02034 0.0
C481 C 0.49385 0.82911 0.03086 0.0
C482 C 0.51568 0.83221 0.01103 0.0
C483 C 0.51039 0.83531 0.98102 0.0
C484 C 0.66458 0.87507 0.88146 0.0
C485 C 0.64282 0.85158 0.86606 0.0
O486 O 0.41949 0.81849 0.14761 0.0
O487 O 0.36896 0.83286 0.89907 0.0
O488 O 0.61939 0.86116 0.8596 0.0
O489 O 0.65311 0.82166 0.09523 0.0
H490 H 0.43948 0.85218 0.17423 0.0
H491 H 0.45012 0.80977 0.19264 0.0
H492 H 0.41411 0.79554 0.19903 0.0
H493 H 0.43267 0.82656 0.21945 0.0
H494 H 0.45102 0.86591 0.13 0.0
H495 H 0.42887 0.77722 0.1166 0.0
H496 H 0.51325 0.87826 0.09472 0.0
H497 H 0.48517 0.8944 0.10348 0.0
H498 H 0.4882 0.88056 0.06696 0.0
H499 H 0.45016 0.75325 0.08177 0.0
H500 H 0.48612 0.76959 0.07732 0.0
H501 H 0.46091 0.77296 0.0502 0.0
H502 H 0.65176 0.78001 0.09552 0.0
H503 H 0.69062 0.78255 0.06085 0.0
H504 H 0.69471 0.81979 0.05987 0.0
H505 H 0.66355 0.79649 0.04529 0.0
H506 H 0.61656 0.78004 0.06552 0.0
H507 H 0.63231 0.86444 0.1001 0.0
H508 H 0.54451 0.77148 0.05218 0.0
H509 H 0.57383 0.75682 0.04456 0.0
H510 H 0.56317 0.77965 0.01956 0.0
H511 H 0.6014 0.8932 0.09182 0.0
H512 H 0.56665 0.87362 0.09698 0.0
H513 H 0.57734 0.88313 0.06111 0.0
H514 H 0.638 0.8345 0.88148 0.0
H515 H 0.59134 0.81142 0.87382 0.0
H516 H 0.5945 0.89869 0.87821 0.0
H517 H 0.5508 0.7913 0.92962 0.0
H518 H 0.55423 0.77871 0.89281 0.0
H519 H 0.52359 0.79013 0.9031 0.0
H520 H 0.56344 0.91823 0.90553 0.0
H521 H 0.55088 0.89922 0.93705 0.0
H522 H 0.5292 0.89588 0.90487 0.0
H523 H 0.36211 0.86951 0.91804 0.0
H524 H 0.31539 0.84776 0.93369 0.0
H525 H 0.34145 0.83179 0.94818 0.0
H526 H 0.31913 0.81427 0.91854 0.0
H527 H 0.39218 0.79169 0.8996 0.0
H528 H 0.4061 0.87958 0.91905 0.0
H529 H 0.44858 0.78053 0.93962 0.0
H530 H 0.46102 0.78712 0.90373 0.0
H531 H 0.42638 0.7668 0.90825 0.0
H532 H 0.44815 0.90659 0.93754 0.0
H533 H 0.47786 0.89323 0.92802 0.0
H534 H 0.46382 0.88808 0.96347 0.0
H535 H 0.53001 0.82273 0.09316 0.0
H536 H 0.58544 0.83719 0.0083 0.0
H537 H 0.57671 0.84325 0.95791 0.0
H538 H 0.49578 0.84314 0.89855 0.0
H539 H 0.44073 0.83097 0.98399 0.0
H540 H 0.44984 0.82662 0.03476 0.0
H541 H 0.6835 0.86774 0.88683 0.0
H542 H 0.65633 0.88195 0.90209 0.0
H543 H 0.67014 0.89319 0.86754 0.0
C544 C 0.66697 0.08961 0.63606 0.0
C545 C 0.6953 0.10184 0.62383 0.0
C546 C 0.70799 0.07429 0.58322 0.0
C547 C 0.73553 0.07474 0.59081 0.0
C548 C 0.74855 0.05478 0.57854 0.0
C549 C 0.7336 0.0339 0.55846 0.0
C550 C 0.70588 0.03363 0.55059 0.0
C551 C 0.6936 0.05421 0.56272 0.0
C552 C 0.77829 0.056 0.58699 0.0
C553 C 0.68917 0.01151 0.52957 0.0
C554 C 0.80393 0.86792 0.62164 0.0
C555 C 0.77526 0.86555 0.63462 0.0
C556 C 0.75678 0.89531 0.60145 0.0
C557 C 0.73866 0.89454 0.57768 0.0
C558 C 0.7387 0.91837 0.56229 0.0
C559 C 0.75783 0.94356 0.57064 0.0
C560 C 0.77554 0.94481 0.59541 0.0
C561 C 0.77453 0.92075 0.61087 0.0
C562 C 0.71865 0.91643 0.53676 0.0
C563 C 0.79589 0.97141 0.60521 0.0
C564 C 0.8519 0.91283 0.41303 0.0
C565 C 0.82289 0.90687 0.41177 0.0
C566 C 0.80864 0.92724 0.42028 0.0
C567 C 0.82374 0.9538 0.43102 0.0
C568 C 0.85298 0.95998 0.4316 0.0
C569 C 0.86664 0.9395 0.42213 0.0
C570 C 0.77748 0.92025 0.41804 0.0
C571 C 0.86984 0.98805 0.44273 0.0
C572 C 0.76672 0.13603 0.39494 0.0
C573 C 0.78743 0.13272 0.3715 0.0
C574 C 0.78792 0.08418 0.37954 0.0
C575 C 0.77095 0.05769 0.37405 0.0
C576 C 0.77277 0.03572 0.3917 0.0
C577 C 0.79278 0.04026 0.41483 0.0
C578 C 0.81107 0.06669 0.4195 0.0
C579 C 0.8082 0.08851 0.40207 0.0
C580 C 0.75294 0.00784 0.38599 0.0
C581 C 0.83347 0.07199 0.44311 0.0
C582 C 0.74686 0.01212 0.5461 0.0
C583 C 0.74716 0.98921 0.56274 0.0
C584 C 0.75981 0.96822 0.55282 0.0
C585 C 0.77303 0.97027 0.52576 0.0
C586 C 0.78726 0.95032 0.51584 0.0
C587 C 0.79944 0.95202 0.4888 0.0
C588 C 0.79756 0.97352 0.47041 0.0
C589 C 0.80905 0.97488 0.44243 0.0
C590 C 0.8071 0.99678 0.42492 0.0
C591 C 0.79405 0.01759 0.43458 0.0
C592 C 0.78237 0.01652 0.46247 0.0
C593 C 0.76904 0.03705 0.47291 0.0
C594 C 0.75786 0.03596 0.50048 0.0
C595 C 0.75882 0.01385 0.51835 0.0
C596 C 0.77198 0.99284 0.50819 0.0
C597 C 0.784 0.99431 0.48034 0.0
C598 C 0.88246 0.8535 0.41603 0.0
C599 C 0.85759 0.86505 0.40748 0.0
O600 O 0.695 0.09342 0.59461 0.0
O601 O 0.78402 0.10493 0.36271 0.0
O602 O 0.86638 0.89357 0.40548 0.0
O603 O 0.75655 0.87098 0.61418 0.0
H604 H 0.71075 0.09366 0.63652 0.0
H605 H 0.66226 0.06657 0.6334 0.0
H606 H 0.65058 0.09719 0.62434 0.0
H607 H 0.66675 0.09549 0.65966 0.0
H608 H 0.74696 0.09094 0.60594 0.0
H609 H 0.67244 0.05432 0.55678 0.0
H610 H 0.77951 0.03725 0.59885 0.0
H611 H 0.78768 0.07473 0.60112 0.0
H612 H 0.79064 0.05597 0.56713 0.0
H613 H 0.66726 0.01294 0.5275 0.0
H614 H 0.6898 0.99056 0.53686 0.0
H615 H 0.69831 0.01356 0.50772 0.0
H616 H 0.77701 0.88066 0.65363 0.0
H617 H 0.81817 0.86184 0.63772 0.0
H618 H 0.81324 0.88953 0.61601 0.0
H619 H 0.80256 0.85428 0.60154 0.0
H620 H 0.72469 0.87494 0.57089 0.0
H621 H 0.78792 0.92196 0.62995 0.0
H622 H 0.72998 0.91702 0.51616 0.0
H623 H 0.70873 0.93439 0.53766 0.0
H624 H 0.70226 0.8969 0.53615 0.0
H625 H 0.80995 0.96835 0.62323 0.0
H626 H 0.78447 0.98708 0.61279 0.0
H627 H 0.80852 0.97999 0.58665 0.0
H628 H 0.84258 0.86051 0.42528 0.0
H629 H 0.81135 0.88646 0.40393 0.0
H630 H 0.88903 0.94396 0.42262 0.0
H631 H 0.76906 0.91773 0.44019 0.0
H632 H 0.76914 0.90067 0.40478 0.0
H633 H 0.76998 0.93737 0.40823 0.0
H634 H 0.89229 0.98868 0.44426 0.0
H635 H 0.86291 0.99352 0.46459 0.0
H636 H 0.86662 0.00416 0.42783 0.0
H637 H 0.80877 0.14094 0.38058 0.0
H638 H 0.76907 0.15833 0.40162 0.0
H639 H 0.7704 0.12498 0.41461 0.0
H640 H 0.7452 0.12734 0.38659 0.0
H641 H 0.75558 0.05451 0.3564 0.0
H642 H 0.82197 0.10874 0.40602 0.0
H643 H 0.74218 0.00102 0.40626 0.0
H644 H 0.7646 0.9921 0.37928 0.0
H645 H 0.73722 0.00833 0.36862 0.0
H646 H 0.84856 0.09213 0.44101 0.0
H647 H 0.84473 0.05502 0.44249 0.0
H648 H 0.824 0.07233 0.46474 0.0
H649 H 0.73723 0.9876 0.5836 0.0
H650 H 0.78917 0.93314 0.5289 0.0
H651 H 0.81014 0.93607 0.48242 0.0
H652 H 0.81597 0.99773 0.4035 0.0
H653 H 0.76718 0.0543 0.45996 0.0
H654 H 0.74812 0.0525 0.50744 0.0
H655 H 0.89837 0.85754 0.39913 0.0
H656 H 0.89181 0.86365 0.43707 0.0
H657 H 0.87602 0.83075 0.41873 0.0
C658 C 0.47503 0.41907 0.22075 0.0
C659 C 0.45132 0.42358 0.20108 0.0
C660 C 0.46475 0.40598 0.15392 0.0
C661 C 0.48515 0.42973 0.14795 0.0
C662 C 0.50333 0.42905 0.12517 0.0
C663 C 0.5014 0.40406 0.10825 0.0
C664 C 0.48037 0.38038 0.11353 0.0
C665 C 0.46209 0.38179 0.13614 0.0
C666 C 0.52517 0.45488 0.1197 0.0
C667 C 0.47778 0.35343 0.09586 0.0
C668 C 0.70217 0.39832 0.14594 0.0
C669 C 0.67751 0.37619 0.15568 0.0
C670 C 0.63965 0.37334 0.11949 0.0
C671 C 0.6223 0.35543 0.09913 0.0
C672 C 0.5996 0.36297 0.08599 0.0
C673 C 0.59468 0.38956 0.09282 0.0
C674 C 0.61258 0.40813 0.11288 0.0
C675 C 0.63472 0.39975 0.12625 0.0
C676 C 0.58065 0.34231 0.06521 0.0
C677 C 0.60815 0.43674 0.12052 0.0
C678 C 0.63834 0.44465 0.91536 0.0
C679 C 0.62393 0.41695 0.91767 0.0
C680 C 0.59858 0.41063 0.93171 0.0
C681 C 0.58787 0.43249 0.94423 0.0
C682 C 0.60182 0.46045 0.94071 0.0
C683 C 0.6267 0.46612 0.92586 0.0
C684 C 0.58367 0.38063 0.93388 0.0
C685 C 0.59092 0.48434 0.95339 0.0
C686 C 0.38618 0.46036 0.9355 0.0
C687 C 0.39766 0.44587 0.91003 0.0
C688 C 0.43461 0.42567 0.93021 0.0
C689 C 0.44208 0.40056 0.93427 0.0
C690 C 0.4683 0.39996 0.94558 0.0
C691 C 0.48736 0.42526 0.9536 0.0
C692 C 0.48009 0.45084 0.94935 0.0
C693 C 0.45381 0.45082 0.93753 0.0
C694 C 0.47544 0.37226 0.94938 0.0
C695 C 0.4999 0.47816 0.95782 0.0
C696 C 0.52304 0.40226 0.087 0.0
C697 C 0.54732 0.39615 0.0977 0.0
C698 C 0.57004 0.39733 0.08008 0.0
C699 C 0.56882 0.40533 0.05103 0.0
C700 C 0.59203 0.40907 0.03345 0.0
C701 C 0.59045 0.41654 0.00474 0.0
C702 C 0.56536 0.41972 0.99224 0.0
C703 C 0.56325 0.42634 0.96274 0.0
C704 C 0.53769 0.42822 0.95079 0.0
C705 C 0.51427 0.42473 0.96786 0.0
C706 C 0.51639 0.41973 0.9978 0.0
C707 C 0.49372 0.41798 0.01605 0.0
C708 C 0.49594 0.41271 0.04541 0.0
C709 C 0.52065 0.40822 0.0574 0.0
C710 C 0.54374 0.40993 0.0394 0.0
C711 C 0.54183 0.41644 0.00977 0.0
C712 C 0.7112 0.45781 0.9156 0.0
C713 C 0.68425 0.43706 0.90639 0.0
O714 O 0.44762 0.40531 0.17673 0.0
O715 O 0.40858 0.42441 0.91974 0.0
O716 O 0.66354 0.45138 0.90332 0.0
O717 O 0.66077 0.36424 0.13188 0.0
H718 H 0.45614 0.44529 0.19404 0.0
H719 H 0.4947 0.42327 0.20897 0.0
H720 H 0.47067 0.3973 0.22765 0.0
H721 H 0.47785 0.43343 0.24044 0.0
H722 H 0.48733 0.44882 0.16106 0.0
H723 H 0.44617 0.36364 0.1407 0.0
H724 H 0.54589 0.45138 0.12521 0.0
H725 H 0.52232 0.47335 0.13285 0.0
H726 H 0.52482 0.45943 0.09626 0.0
H727 H 0.45977 0.33713 0.10207 0.0
H728 H 0.49686 0.34572 0.09898 0.0
H729 H 0.47563 0.35697 0.07232 0.0
H730 H 0.66546 0.38619 0.17126 0.0
H731 H 0.71566 0.40764 0.16509 0.0
H732 H 0.695 0.41522 0.13536 0.0
H733 H 0.71458 0.38919 0.13007 0.0
H734 H 0.62632 0.33516 0.094 0.0
H735 H 0.64802 0.41401 0.1418 0.0
H736 H 0.58266 0.34991 0.04282 0.0
H737 H 0.55879 0.34016 0.0713 0.0
H738 H 0.58548 0.32147 0.0649 0.0
H739 H 0.6265 0.45039 0.13202 0.0
H740 H 0.5903 0.43483 0.135 0.0
H741 H 0.60331 0.44685 0.1006 0.0
H742 H 0.6794 0.42238 0.92426 0.0
H743 H 0.63251 0.40029 0.90859 0.0
H744 H 0.63781 0.48743 0.92346 0.0
H745 H 0.58582 0.37434 0.95653 0.0
H746 H 0.59209 0.36653 0.91897 0.0
H747 H 0.56127 0.3779 0.9287 0.0
H748 H 0.60511 0.50481 0.95027 0.0
H749 H 0.58767 0.48201 0.97708 0.0
H750 H 0.57061 0.48411 0.94282 0.0
H751 H 0.41407 0.46144 0.89983 0.0
H752 H 0.37696 0.47716 0.92744 0.0
H753 H 0.40296 0.46984 0.95163 0.0
H754 H 0.37016 0.44542 0.94681 0.0
H755 H 0.42715 0.38128 0.92854 0.0
H756 H 0.44836 0.47047 0.93464 0.0
H757 H 0.47691 0.36866 0.97297 0.0
H758 H 0.49587 0.37226 0.94007 0.0
H759 H 0.45971 0.35475 0.93881 0.0
H760 H 0.49056 0.49622 0.95479 0.0
H761 H 0.51848 0.48053 0.94434 0.0
H762 H 0.50683 0.47841 0.98098 0.0
H763 H 0.5487 0.39083 0.12026 0.0
H764 H 0.61175 0.40647 0.04178 0.0
H765 H 0.60909 0.41936 0.99239 0.0
H766 H 0.53602 0.43257 0.92797 0.0
H767 H 0.47406 0.42088 0.00791 0.0
H768 H 0.47791 0.41171 0.05849 0.0
H769 H 0.71719 0.47348 0.89889 0.0
H770 H 0.72812 0.44683 0.91867 0.0
H771 H 0.70856 0.46881 0.93658 0.0
C772 C 0.2281 0.44241 0.23199 0.0
C773 C 0.23142 0.43467 0.26072 0.0
C774 C 0.20272 0.44615 0.22139 0.0
C775 C 0.17957 0.44255 0.23909 0.0
H776 H 0.24521 0.44556 0.21736 0.0
H777 H 0.2012 0.45182 0.19902 0.0
S778 S 0.17677 0.4213 0.31563 0.0
N779 N 0.20903 0.42287 0.3066 0.0
N780 N 0.16123 0.42985 0.28652 0.0
C781 C 0.18242 0.43451 0.2678 0.0
C782 C 0.20835 0.43068 0.27866 0.0
C783 C 0.20083 0.73324 0.81689 0.0
C784 C 0.2006 0.75747 0.83409 0.0
C785 C 0.18465 0.7073 0.82362 0.0
C786 C 0.16745 0.70446 0.84773 0.0
H787 H 0.21375 0.73421 0.7981 0.0
H788 H 0.18586 0.68921 0.80998 0.0
S789 S 0.15947 0.76113 0.90018 0.0
N790 N 0.18168 0.77678 0.8766 0.0
N791 N 0.15143 0.72797 0.88921 0.0
C792 C 0.16695 0.72846 0.86515 0.0
C793 C 0.18341 0.75494 0.8583 0.0
C794 C 0.84848 0.69861 0.20352 0.0
C795 C 0.82893 0.69365 0.22555 0.0
C796 C 0.862 0.6781 0.1938 0.0
C797 C 0.8569 0.65191 0.20606 0.0
H798 H 0.85299 0.71831 0.19314 0.0
H799 H 0.87621 0.68265 0.17617 0.0
S800 S 0.80799 0.62832 0.26461 0.0
N801 N 0.80542 0.66046 0.25958 0.0
N802 N 0.83095 0.62208 0.24135 0.0
C803 C 0.83765 0.64674 0.2283 0.0
C804 C 0.82373 0.66756 0.2381 0.0
C805 C 0.78826 0.33989 0.75118 0.0
C806 C 0.78637 0.33505 0.72073 0.0
C807 C 0.8128 0.35479 0.76523 0.0
C808 C 0.83655 0.36542 0.74945 0.0
H809 H 0.771 0.3313 0.76448 0.0
H810 H 0.81336 0.35762 0.78877 0.0
S811 S 0.84304 0.35686 0.66938 0.0
N812 N 0.81067 0.34125 0.67524 0.0
N813 N 0.85704 0.36864 0.70172 0.0
C814 C 0.83517 0.36013 0.71901 0.0
C815 C 0.81007 0.34511 0.70467 0.0
C816 C 0.31587 0.32363 0.37412 0.0
C817 C 0.29502 0.31557 0.35223 0.0
C818 C 0.31977 0.30534 0.39537 0.0
C819 C 0.30294 0.27829 0.39567 0.0
H820 H 0.32952 0.34415 0.3747 0.0
H821 H 0.33609 0.31247 0.41181 0.0
S822 S 0.24371 0.24796 0.34472 0.0
N823 N 0.25638 0.27924 0.33296 0.0
N824 N 0.26326 0.2451 0.37335 0.0
C825 C 0.28146 0.27025 0.37438 0.0
C826 C 0.27771 0.28878 0.35249 0.0
C827 C 0.29911 0.8566 0.84488 0.0
C828 C 0.31593 0.87398 0.8258 0.0
C829 C 0.31012 0.84841 0.87049 0.0
C830 C 0.33845 0.85782 0.87846 0.0
H831 H 0.27708 0.84986 0.84055 0.0
H832 H 0.29598 0.83496 0.88408 0.0
S833 S 0.39138 0.90348 0.83571 0.0
N834 N 0.3624 0.89992 0.81626 0.0
N835 N 0.38296 0.8852 0.86469 0.0
C836 C 0.3554 0.8752 0.85943 0.0
C837 C 0.34422 0.88325 0.83322 0.0
C838 C 0.84175 0.84869 0.32553 0.0
C839 C 0.82288 0.82266 0.3248 0.0
C840 C 0.85269 0.8624 0.35202 0.0
C841 C 0.84458 0.85096 0.37887 0.0
H842 H 0.84853 0.85839 0.30545 0.0
H843 H 0.86769 0.88204 0.35139 0.0
S844 S 0.79554 0.78352 0.38906 0.0
N845 N 0.79658 0.78597 0.35336 0.0
N846 N 0.81673 0.81203 0.40308 0.0
C847 C 0.82566 0.82501 0.37844 0.0
C848 C 0.81486 0.81084 0.35147 0.0
C849 C 0.69151 0.42061 0.825 0.0
C850 C 0.69992 0.3953 0.82467 0.0
C851 C 0.68587 0.43359 0.85117 0.0
C852 C 0.68795 0.42157 0.87806 0.0
H853 H 0.68977 0.43085 0.80493 0.0
H854 H 0.68025 0.45344 0.85037 0.0
S855 S 0.70875 0.35539 0.88941 0.0
N856 N 0.70976 0.35857 0.85381 0.0
N857 N 0.69904 0.38301 0.90287 0.0
C858 C 0.69608 0.39619 0.87808 0.0
C859 C 0.702 0.38301 0.85146 0.0
C860 C 0.3651 0.01475 0.72753 0.0
C861 C 0.36027 0.98796 0.71389 0.0
C862 C 0.38668 0.03623 0.71919 0.0
C863 C 0.40415 0.03196 0.69662 0.0
H864 H 0.35234 0.01917 0.74513 0.0
H865 H 0.38977 0.0564 0.73058 0.0
S866 S 0.40037 0.96591 0.65358 0.0
N867 N 0.37485 0.95843 0.67645 0.0
N868 N 0.41534 0.99899 0.66074 0.0
C869 C 0.39958 0.00535 0.68267 0.0
C870 C 0.37764 0.98336 0.69125 0.0
C871 C 0.72395 0.83431 0.14898 0.0
C872 C 0.73166 0.81146 0.16112 0.0
C873 C 0.70326 0.83061 0.12706 0.0
C874 C 0.68898 0.80385 0.1167 0.0
H875 H 0.73397 0.85536 0.15642 0.0
H876 H 0.69833 0.8489 0.11828 0.0
S877 S 0.70239 0.73708 0.13955 0.0
N878 N 0.72424 0.76102 0.15989 0.0
N879 N 0.68518 0.75417 0.11886 0.0
C880 C 0.69694 0.78083 0.12805 0.0
C881 C 0.71819 0.78458 0.15025 0.0
C882 C 0.71809 0.17442 0.66105 0.0
C883 C 0.71055 0.19188 0.64063 0.0
C884 C 0.71407 0.14577 0.65479 0.0
C885 C 0.70205 0.13335 0.62801 0.0
H886 H 0.72702 0.18292 0.68214 0.0
H887 H 0.71981 0.13306 0.67136 0.0
S888 S 0.6773 0.16998 0.56772 0.0
N889 N 0.69016 0.19486 0.59272 0.0
N890 N 0.68159 0.14089 0.58131 0.0
C891 C 0.69421 0.15064 0.60744 0.0
C892 C 0.69882 0.17993 0.61363 0.0
C893 C 0.38274 0.3887 0.23459 0.0
C894 C 0.37602 0.41062 0.25134 0.0
C895 C 0.40689 0.39285 0.21857 0.0
C896 C 0.42499 0.41927 0.2181 0.0
H897 H 0.36931 0.36807 0.23391 0.0
H898 H 0.41132 0.37523 0.20638 0.0
S899 S 0.41774 0.48332 0.25921 0.0
N900 N 0.39015 0.45955 0.26731 0.0
N901 N 0.43532 0.46731 0.23692 0.0
C902 C 0.41883 0.44121 0.23521 0.0
C903 C 0.3944 0.43695 0.25178 0.0
C904 C 0.81428 0.68266 0.7702 0.0
C905 C 0.82028 0.68658 0.73156 0.0
C906 C 0.84234 0.6805 0.79517 0.0
C907 C 0.87478 0.67682 0.77707 0.0
H908 H 0.79379 0.68118 0.77836 0.0
H909 H 0.83857 0.67562 0.81765 0.0
S910 S 0.89494 0.69259 0.69078 0.0
N911 N 0.86119 0.6933 0.68907 0.0
N912 N 0.9061 0.68856 0.72488 0.0
C913 C 0.88317 0.68867 0.73976 0.0
C914 C 0.85437 0.69049 0.71709 0.0
C915 C 0.83853 0.34216 0.23443 0.0
C916 C 0.83482 0.31411 0.22482 0.0
C917 C 0.85819 0.36309 0.22228 0.0
C918 C 0.8757 0.35689 0.2005 0.0
H919 H 0.82528 0.34832 0.25064 0.0
H920 H 0.85919 0.38439 0.22967 0.0
S921 S 0.87534 0.28668 0.16842 0.0
N922 N 0.85075 0.28111 0.19254 0.0
N923 N 0.88838 0.32059 0.17016 0.0
C924 C 0.87276 0.32886 0.19118 0.0
C925 C 0.85231 0.30747 0.20328 0.0
C926 C 0.18873 0.41964 0.79469 0.0
C927 C 0.19052 0.39416 0.80615 0.0
C928 C 0.16828 0.43333 0.80341 0.0
C929 C 0.14853 0.42199 0.82372 0.0
H930 H 0.20353 0.42942 0.77918 0.0
H931 H 0.16818 0.45318 0.79445 0.0
S932 S 0.14413 0.35603 0.86063 0.0
N933 N 0.17064 0.3582 0.83912 0.0
N934 N 0.13229 0.38404 0.85545 0.0
C935 C 0.14999 0.39653 0.83531 0.0
C936 C 0.17085 0.38255 0.82647 0.0
C937 C 0.20568 0.74493 0.23272 0.0
C938 C 0.20463 0.77153 0.2442 0.0
C939 C 0.19059 0.72079 0.2447 0.0
C940 C 0.17354 0.72217 0.26846 0.0
H941 H 0.21892 0.74259 0.2148 0.0
H942 H 0.19281 0.70085 0.23568 0.0
S943 S 0.1618 0.78647 0.30547 0.0
N944 N 0.18392 0.79772 0.27994 0.0
N945 N 0.1554 0.75221 0.30231 0.0
C946 C 0.17146 0.74856 0.27957 0.0
C947 C 0.18698 0.77324 0.26745 0.0
C948 C 0.76018 0.80376 0.68394 0.0
C949 C 0.75146 0.78083 0.66403 0.0
C950 C 0.76688 0.83098 0.67444 0.0
C951 C 0.76485 0.83629 0.64471 0.0
H952 H 0.76318 0.80064 0.70684 0.0
H953 H 0.77447 0.84796 0.69038 0.0
S954 S 0.74174 0.78336 0.58403 0.0
N955 N 0.7402 0.76516 0.61344 0.0
N956 N 0.75267 0.81621 0.59555 0.0
C957 C 0.75544 0.8135 0.6247 0.0
C958 C 0.74879 0.78583 0.63437 0.0
C959 C 0.69853 0.33412 0.21657 0.0
C960 C 0.71074 0.31485 0.2015 0.0
C961 C 0.6874 0.35331 0.20164 0.0
C962 C 0.68766 0.35374 0.17104 0.0
H963 H 0.69851 0.33517 0.24017 0.0
H964 H 0.67903 0.36833 0.21421 0.0
S965 S 0.71523 0.30627 0.12117 0.0
N966 N 0.72104 0.29639 0.15409 0.0
N967 N 0.69997 0.33234 0.12609 0.0
C968 C 0.69893 0.33394 0.15565 0.0
C969 C 0.71041 0.3145 0.17084 0.0
C970 C 0.36707 0.35709 0.66902 0.0
C971 C 0.33177 0.34901 0.68134 0.0
C972 C 0.37784 0.33531 0.64098 0.0
C973 C 0.35206 0.3021 0.63114 0.0
H974 H 0.38197 0.37475 0.67881 0.0
H975 H 0.39932 0.3384 0.63541 0.0
S976 S 0.26857 0.28283 0.65116 0.0
N977 N 0.27943 0.31218 0.67247 0.0
N978 N 0.29373 0.2756 0.6302 0.0
C979 C 0.31441 0.29779 0.63717 0.0
C980 C 0.30586 0.32042 0.66482 0.0
C981 C 0.37287 0.87497 0.20556 0.0
C982 C 0.34672 0.85669 0.20127 0.0
C983 C 0.39689 0.86751 0.19606 0.0
C984 C 0.39579 0.84152 0.18178 0.0
H985 H 0.37494 0.89507 0.21683 0.0
H986 H 0.41659 0.88204 0.20044 0.0
S987 S 0.33261 0.78588 0.16521 0.0
N988 N 0.32124 0.81132 0.18147 0.0
N989 N 0.36643 0.79731 0.164 0.0
C990 C 0.36978 0.82311 0.17706 0.0
C991 C 0.34527 0.83073 0.18659 0.0
C992 C 0.79215 0.19529 0.32433 0.0
C993 C 0.77444 0.1846 0.30026 0.0
C994 C 0.79666 0.17816 0.34652 0.0
C995 C 0.78336 0.14974 0.34572 0.0
H996 H 0.80271 0.21707 0.326 0.0
H997 H 0.81039 0.18732 0.36474 0.0
S998 S 0.73288 0.11235 0.28843 0.0
N999 N 0.74265 0.14427 0.27725 0.0
N1000 N 0.75006 0.11224 0.31953 0.0
C1001 C 0.76499 0.13898 0.322 0.0
C1002 C 0.76091 0.15634 0.29908 0.0
C1003 C 0.35472 0.43554 0.8386 0.0
C1004 C 0.33426 0.41117 0.84247 0.0
C1005 C 0.37461 0.44678 0.86055 0.0
C1006 C 0.37504 0.43402 0.88723 0.0
H1007 H 0.35565 0.44596 0.81828 0.0
H1008 H 0.39007 0.46541 0.85641 0.0
S1009 S 0.32534 0.37068 0.90922 0.0
N1010 N 0.31504 0.37528 0.87581 0.0
N1011 N 0.35257 0.39635 0.91689 0.0
C1012 C 0.35428 0.41007 0.89177 0.0
C1013 C 0.33393 0.39866 0.86946 0.0
C1014 C 0.34488 0.97036 0.33341 0.0
C1015 C 0.32447 0.94569 0.33582 0.0
C1016 C 0.36025 0.98398 0.3579 0.0
C1017 C 0.35534 0.97386 0.38593 0.0
H1018 H 0.34981 0.97872 0.31227 0.0
H1019 H 0.37652 0.00222 0.3547 0.0
S1020 S 0.30326 0.9109 0.40436 0.0
N1021 N 0.29956 0.9122 0.36869 0.0
N1022 N 0.32815 0.9381 0.41474 0.0
C1023 C 0.33447 0.94966 0.38875 0.0
C1024 C 0.31906 0.93556 0.36375 0.0
C1025 C 0.67613 0.80699 0.81442 0.0
C1026 C 0.67914 0.82155 0.78858 0.0
C1027 C 0.664 0.81657 0.83885 0.0
C1028 C 0.65419 0.84103 0.83851 0.0
H1029 H 0.6833 0.78801 0.81594 0.0
H1030 H 0.66249 0.8048 0.85831 0.0
S1031 S 0.65761 0.88741 0.77675 0.0
N1032 N 0.67154 0.86208 0.76439 0.0
N1033 N 0.64882 0.88005 0.81045 0.0
C1034 C 0.65711 0.85591 0.81292 0.0
C1035 C 0.66947 0.84615 0.78794 0.0
loop_
_geom_bond_atom_site_label_1
_geom_bond_atom_site_label_2
_geom_bond_distance
_geom_bond_site_symmetry_2
_ccdc_geom_bond_type
O0 Cd1 2.300 . S
O0 C7 1.275 . S
Cd1 O0 2.300 . S
Cd1 O9 2.381 . S
Cd1 O10 2.378 . S
O2 Cd3 2.385 . S
O2 C7 1.255 . S
Cd3 O2 2.385 . S
Cd3 O4 2.317 . S
O4 Cd3 2.317 . S
O4 C5 1.232 . S
C5 O4 1.232 . S
C5 O6 1.218 . S
O6 C5 1.218 . S
C7 O0 1.275 . S
C7 O2 1.255 . S
C8 O9 1.258 . S
C8 O10 1.256 . S
O9 Cd1 2.381 . S
O9 C8 1.258 . S
O10 Cd1 2.378 . S
O10 C8 1.256 . S
O11 Cd12 2.300 . S
O11 C18 1.275 . S
Cd12 O11 2.300 . S
Cd12 O20 2.381 . S
Cd12 O21 2.378 . S
O13 Cd14 2.385 . S
O13 C18 1.255 . S
Cd14 O13 2.385 . S
Cd14 O15 2.317 . S
O15 Cd14 2.317 . S
O15 C16 1.232 . S
C16 O15 1.232 . S
C16 O17 1.218 . S
O17 C16 1.218 . S
C18 O11 1.275 . S
C18 O13 1.255 . S
C19 O20 1.258 . S
C19 O21 1.256 . S
O20 Cd12 2.381 . S
O20 C19 1.258 . S
O21 Cd12 2.378 . S
O21 C19 1.256 . S
O22 Cd23 2.300 . S
O22 C29 1.275 . S
Cd23 O22 2.300 . S
Cd23 O31 2.381 . S
Cd23 O32 2.378 . S
O24 Cd25 2.385 . S
O24 C29 1.255 . S
Cd25 O24 2.385 . S
Cd25 O26 2.317 . S
O26 Cd25 2.317 . S
O26 C27 1.232 . S
C27 O26 1.232 . S
C27 O28 1.218 . S
O28 C27 1.218 . S
C29 O22 1.275 . S
C29 O24 1.255 . S
C30 O31 1.258 . S
C30 O32 1.256 . S
O31 Cd23 2.381 . S
O31 C30 1.258 . S
O32 Cd23 2.378 . S
O32 C30 1.256 . S
O33 Cd34 2.300 . S
O33 C40 1.275 . S
Cd34 O33 2.300 . S
Cd34 O42 2.381 . S
Cd34 O43 2.378 . S
O35 Cd36 2.385 . S
O35 C40 1.255 . S
Cd36 O35 2.385 . S
Cd36 O37 2.317 . S
O37 Cd36 2.317 . S
O37 C38 1.232 . S
C38 O37 1.232 . S
C38 O39 1.218 . S
O39 C38 1.218 . S
C40 O33 1.275 . S
C40 O35 1.255 . S
C41 O42 1.258 . S
C41 O43 1.256 . S
O42 Cd34 2.381 . S
O42 C41 1.258 . S
O43 Cd34 2.378 . S
O43 C41 1.256 . S
O44 Cd45 2.300 . S
O44 C51 1.275 . S
Cd45 O44 2.300 . S
Cd45 O53 2.381 . S
Cd45 O54 2.378 . S
O46 Cd47 2.385 . S
O46 C51 1.255 . S
Cd47 O46 2.385 . S
Cd47 O48 2.317 . S
O48 Cd47 2.317 . S
O48 C49 1.232 . S
C49 O48 1.232 . S
C49 O50 1.218 . S
O50 C49 1.218 . S
C51 O44 1.275 . S
C51 O46 1.255 . S
C52 O53 1.258 . S
C52 O54 1.256 . S
O53 Cd45 2.381 . S
O53 C52 1.258 . S
O54 Cd45 2.378 . S
O54 C52 1.256 . S
O55 Cd56 2.300 . S
O55 C62 1.275 . S
Cd56 O55 2.300 . S
Cd56 O64 2.381 . S
Cd56 O65 2.378 . S
O57 Cd58 2.385 . S
O57 C62 1.255 . S
Cd58 O57 2.385 . S
Cd58 O59 2.317 . S
O59 Cd58 2.317 . S
O59 C60 1.232 . S
C60 O59 1.232 . S
C60 O61 1.218 . S
O61 C60 1.218 . S
C62 O55 1.275 . S
C62 O57 1.255 . S
C63 O64 1.258 . S
C63 O65 1.256 . S
O64 Cd56 2.381 . S
O64 C63 1.258 . S
O65 Cd56 2.378 . S
O65 C63 1.256 . S
O66 Cd67 2.300 . S
O66 C73 1.275 . S
Cd67 O66 2.300 . S
Cd67 O75 2.381 . S
Cd67 O76 2.378 . S
O68 Cd69 2.385 . S
O68 C73 1.255 . S
Cd69 O68 2.385 . S
Cd69 O70 2.317 . S
O70 Cd69 2.317 . S
O70 C71 1.232 . S
C71 O70 1.232 . S
C71 O72 1.218 . S
O72 C71 1.218 . S
C73 O66 1.275 . S
C73 O68 1.255 . S
C74 O75 1.258 . S
C74 O76 1.256 . S
O75 Cd67 2.381 . S
O75 C74 1.258 . S
O76 Cd67 2.378 . S
O76 C74 1.256 . S
O77 Cd78 2.300 . S
O77 C84 1.275 . S
Cd78 O77 2.300 . S
Cd78 O86 2.381 . S
Cd78 O87 2.378 . S
O79 Cd80 2.385 . S
O79 C84 1.255 . S
Cd80 O79 2.385 . S
Cd80 O81 2.317 . S
O81 Cd80 2.317 . S
O81 C82 1.232 . S
C82 O81 1.232 . S
C82 O83 1.218 . S
O83 C82 1.218 . S
C84 O77 1.275 . S
C84 O79 1.255 . S
C85 O86 1.258 . S
C85 O87 1.256 . S
O86 Cd78 2.381 . S
O86 C85 1.258 . S
O87 Cd78 2.378 . S
O87 C85 1.256 . S
C88 C89 1.560 . S
C88 H149 0.959 . S
C88 H150 0.959 . S
C88 H151 0.960 . S
C89 C88 1.560 . S
C89 O144 1.426 . S
C89 H148 0.980 . S
C90 C91 1.407 . S
C90 C95 1.418 . S
C90 O144 1.334 . S
C91 C90 1.407 . S
C91 C92 1.360 . S
C91 H152 0.929 . S
C92 C91 1.360 . S
C92 C93 1.401 . S
C92 C96 1.527 . S
C93 C92 1.401 . S
C93 C94 1.405 . S
C93 C126 1.587 1_655 S
C94 C93 1.405 . S
C94 C95 1.332 . S
C94 C97 1.496 1_655 S
C95 C90 1.418 . S
C95 C94 1.332 . S
C95 H153 0.929 . S
C96 C92 1.527 . S
C96 H154 0.959 . S
C96 H155 0.961 . S
C96 H156 0.961 . S
C97 C94 1.496 1_455 S
C97 H157 0.960 1_455 S
C97 H158 0.960 . S
C97 H159 0.961 . S
C98 C99 1.517 . S
C98 H161 0.961 . S
C98 H162 0.960 . S
C98 H163 0.959 . S
C99 C98 1.517 . S
C99 O147 1.468 . S
C99 H160 0.980 . S
C100 C101 1.349 . S
C100 C105 1.367 . S
C100 O147 1.408 . S
C101 C100 1.349 . S
C101 C102 1.407 . S
C101 H164 0.930 . S
C102 C101 1.407 . S
C102 C103 1.449 . S
C102 C106 1.535 . S
C103 C102 1.449 . S
C103 C104 1.384 . S
C103 C128 1.553 . S
C104 C103 1.384 . S
C104 C105 1.364 . S
C104 C107 1.450 . S
C105 C100 1.367 . S
C105 C104 1.364 . S
C105 H165 0.931 . S
C106 C102 1.535 . S
C106 H166 0.959 . S
C106 H167 0.961 . S
C106 H168 0.959 . S
C107 C104 1.450 . S
C107 H169 0.960 . S
C107 H170 0.960 . S
C107 H171 0.960 . S
C108 C109 1.309 . S
C108 C113 1.304 . S
C108 O146 1.435 . S
C109 C108 1.309 . S
C109 C110 1.476 . S
C109 H173 0.930 . S
C110 C109 1.476 . S
C110 C111 1.400 . S
C110 C114 1.567 . S
C111 C110 1.400 . S
C111 C112 1.373 . S
C111 C133 1.432 . S
C112 C111 1.373 . S
C112 C113 1.339 . S
C112 C115 1.530 . S
C113 C108 1.304 . S
C113 C112 1.339 . S
C113 H174 0.930 . S
C114 C110 1.567 . S
C114 H175 0.961 . S
C114 H176 0.960 . S
C114 H177 0.958 . S
C115 C112 1.530 . S
C115 H178 0.961 . S
C115 H179 0.960 . S
C115 H180 0.960 . S
C116 C117 1.530 . S
C116 H182 0.961 . S
C116 H183 0.961 . S
C116 H184 0.959 . S
C117 C116 1.530 . S
C117 O145 1.412 . S
C117 H181 0.980 . S
C118 C119 1.288 . S
C118 C123 1.377 . S
C118 O145 1.393 . S
C119 C118 1.288 . S
C119 C120 1.369 . S
C119 H185 0.932 . S
C120 C119 1.369 . S
C120 C121 1.398 . S
C120 C124 1.527 1_655 S
C121 C120 1.398 . S
C121 C122 1.380 . S
C121 C135 1.497 1_655 S
C122 C121 1.380 . S
C122 C123 1.383 . S
C122 C125 1.603 . S
C123 C118 1.377 . S
C123 C122 1.383 . S
C123 H186 0.929 . S
C124 C120 1.527 1_455 S
C124 H187 0.961 . S
C124 H188 0.959 . S
C124 H189 0.959 1_455 S
C125 C122 1.603 . S
C125 H190 0.960 . S
C125 H191 0.962 . S
C125 H192 0.961 . S
C126 C93 1.587 1_455 S
C126 C127 1.360 . S
C126 C139 1.412 . S
C127 C126 1.360 . S
C127 C128 1.365 . S
C127 H193 0.929 . S
C128 C103 1.553 . S
C128 C127 1.365 . S
C128 C129 1.404 . S
C129 C128 1.404 . S
C129 C130 1.395 . S
C129 C140 1.451 . S
C130 C129 1.395 . S
C130 C131 1.322 . S
C130 H194 0.930 . S
C131 C130 1.322 . S
C131 C132 1.459 . S
C131 H195 0.929 . S
C132 C131 1.459 . S
C132 C133 1.445 . S
C132 C141 1.395 . S
C133 C111 1.432 . S
C133 C132 1.445 . S
C133 C134 1.370 . S
C134 C133 1.370 . S
C134 C135 1.438 . S
C134 H196 0.930 . S
C135 C121 1.497 1_455 S
C135 C134 1.438 . S
C135 C136 1.360 . S
C136 C135 1.360 . S
C136 C137 1.401 1_455 S
C136 C141 1.446 . S
C137 C136 1.401 1_655 S
C137 C138 1.347 . S
C137 H197 0.929 . S
C138 C137 1.347 . S
C138 C139 1.455 1_655 S
C138 H198 0.930 . S
C139 C126 1.412 . S
C139 C138 1.455 1_455 S
C139 C140 1.331 . S
C140 C129 1.451 . S
C140 C139 1.331 . S
C140 C141 1.497 . S
C141 C132 1.395 . S
C141 C136 1.446 . S
C141 C140 1.497 . S
C142 C143 1.582 . S
C142 H199 0.962 . S
C142 H200 0.959 . S
C142 H201 0.958 . S
C143 C142 1.582 . S
C143 O146 1.458 . S
C143 H172 0.980 . S
O144 C89 1.426 . S
O144 C90 1.334 . S
O145 C117 1.412 . S
O145 C118 1.393 . S
O146 C108 1.435 . S
O146 C143 1.458 . S
O147 C99 1.468 . S
O147 C100 1.408 . S
H148 C89 0.980 . S
H149 C88 0.959 . S
H150 C88 0.959 . S
H151 C88 0.960 . S
H152 C91 0.929 . S
H153 C95 0.929 . S
H154 C96 0.959 . S
H155 C96 0.961 . S
H156 C96 0.961 . S
H157 C97 0.960 1_655 S
H158 C97 0.960 . S
H159 C97 0.961 . S
H160 C99 0.980 . S
H161 C98 0.961 . S
H162 C98 0.960 . S
H163 C98 0.959 . S
H164 C101 0.930 . S
H165 C105 0.931 . S
H166 C106 0.959 . S
H167 C106 0.961 . S
H168 C106 0.959 . S
H169 C107 0.960 . S
H170 C107 0.960 . S
H171 C107 0.960 . S
H172 C143 0.980 . S
H173 C109 0.930 . S
H174 C113 0.930 . S
H175 C114 0.961 . S
H176 C114 0.960 . S
H177 C114 0.958 . S
H178 C115 0.961 . S
H179 C115 0.960 . S
H180 C115 0.960 . S
H181 C117 0.980 . S
H182 C116 0.961 . S
H183 C116 0.961 . S
H184 C116 0.959 . S
H185 C119 0.932 . S
H186 C123 0.929 . S
H187 C124 0.961 . S
H188 C124 0.959 . S
H189 C124 0.959 1_655 S
H190 C125 0.960 . S
H191 C125 0.962 . S
H192 C125 0.961 . S
H193 C127 0.929 . S
H194 C130 0.930 . S
H195 C131 0.929 . S
H196 C134 0.930 . S
H197 C137 0.929 . S
H198 C138 0.930 . S
H199 C142 0.962 . S
H200 C142 0.959 . S
H201 C142 0.958 . S
C202 C203 1.560 . S
C202 H263 0.959 . S
C202 H264 0.959 . S
C202 H265 0.960 . S
C203 C202 1.560 . S
C203 O258 1.426 . S
C203 H262 0.980 . S
C204 C205 1.407 . S
C204 C209 1.418 . S
C204 O258 1.334 . S
C205 C204 1.407 . S
C205 C206 1.360 . S
C205 H266 0.929 . S
C206 C205 1.360 . S
C206 C207 1.401 . S
C206 C210 1.527 . S
C207 C206 1.401 . S
C207 C208 1.405 . S
C207 C240 1.587 . S
C208 C207 1.405 . S
C208 C209 1.332 . S
C208 C211 1.496 . S
C209 C204 1.418 . S
C209 C208 1.332 . S
C209 H267 0.929 . S
C210 C206 1.527 . S
C210 H268 0.959 . S
C210 H269 0.961 . S
C210 H270 0.961 . S
C211 C208 1.496 . S
C211 H271 0.960 . S
C211 H272 0.960 . S
C211 H273 0.961 . S
C212 C213 1.517 . S
C212 H275 0.961 . S
C212 H276 0.960 . S
C212 H277 0.959 . S
C213 C212 1.517 . S
C213 O261 1.468 . S
C213 H274 0.980 . S
C214 C215 1.349 . S
C214 C219 1.367 . S
C214 O261 1.408 . S
C215 C214 1.349 . S
C215 C216 1.407 . S
C215 H278 0.930 . S
C216 C215 1.407 . S
C216 C217 1.449 . S
C216 C220 1.535 . S
C217 C216 1.449 . S
C217 C218 1.384 . S
C217 C242 1.553 . S
C218 C217 1.384 . S
C218 C219 1.364 . S
C218 C221 1.450 . S
C219 C214 1.367 . S
C219 C218 1.364 . S
C219 H279 0.931 . S
C220 C216 1.535 . S
C220 H280 0.959 . S
C220 H281 0.961 . S
C220 H282 0.959 . S
C221 C218 1.450 . S
C221 H283 0.960 . S
C221 H284 0.960 . S
C221 H285 0.960 . S
C222 C223 1.309 . S
C222 C227 1.304 . S
C222 O260 1.435 . S
C223 C222 1.309 . S
C223 C224 1.476 . S
C223 H287 0.930 . S
C224 C223 1.476 . S
C224 C225 1.400 . S
C224 C228 1.567 . S
C225 C224 1.400 . S
C225 C226 1.373 . S
C225 C247 1.432 . S
C226 C225 1.373 . S
C226 C227 1.339 . S
C226 C229 1.530 . S
C227 C222 1.304 . S
C227 C226 1.339 . S
C227 H288 0.930 . S
C228 C224 1.567 . S
C228 H289 0.961 . S
C228 H290 0.960 . S
C228 H291 0.958 . S
C229 C226 1.530 . S
C229 H292 0.961 . S
C229 H293 0.960 . S
C229 H294 0.960 . S
C230 C231 1.530 . S
C230 H296 0.961 . S
C230 H297 0.961 . S
C230 H298 0.959 . S
C231 C230 1.530 . S
C231 O259 1.412 . S
C231 H295 0.980 . S
C232 C233 1.288 . S
C232 C237 1.377 . S
C232 O259 1.393 . S
C233 C232 1.288 . S
C233 C234 1.369 . S
C233 H299 0.932 . S
C234 C233 1.369 . S
C234 C235 1.398 . S
C234 C238 1.527 . S
C235 C234 1.398 . S
C235 C236 1.380 . S
C235 C249 1.497 . S
C236 C235 1.380 . S
C236 C237 1.383 . S
C236 C239 1.603 . S
C237 C232 1.377 . S
C237 C236 1.383 . S
C237 H300 0.929 . S
C238 C234 1.527 . S
C238 H301 0.961 . S
C238 H302 0.959 . S
C238 H303 0.959 . S
C239 C236 1.603 . S
C239 H304 0.960 . S
C239 H305 0.962 . S
C239 H306 0.961 . S
C240 C207 1.587 . S
C240 C241 1.360 . S
C240 C253 1.412 . S
C241 C240 1.360 . S
C241 C242 1.365 1_455 S
C241 H307 0.929 . S
C242 C217 1.553 . S
C242 C241 1.365 1_655 S
C242 C243 1.404 . S
C243 C242 1.404 . S
C243 C244 1.395 . S
C243 C254 1.451 1_655 S
C244 C243 1.395 . S
C244 C245 1.322 . S
C244 H308 0.930 . S
C245 C244 1.322 . S
C245 C246 1.459 . S
C245 H309 0.929 . S
C246 C245 1.459 . S
C246 C247 1.445 . S
C246 C255 1.395 1_655 S
C247 C225 1.432 . S
C247 C246 1.445 . S
C247 C248 1.370 1_655 S
C248 C247 1.370 1_455 S
C248 C249 1.438 . S
C248 H310 0.930 . S
C249 C235 1.497 . S
C249 C248 1.438 . S
C249 C250 1.360 . S
C250 C249 1.360 . S
C250 C251 1.401 . S
C250 C255 1.446 . S
C251 C250 1.401 . S
C251 C252 1.347 . S
C251 H311 0.929 . S
C252 C251 1.347 . S
C252 C253 1.455 . S
C252 H312 0.930 . S
C253 C240 1.412 . S
C253 C252 1.455 . S
C253 C254 1.331 . S
C254 C243 1.451 1_455 S
C254 C253 1.331 . S
C254 C255 1.497 . S
C255 C246 1.395 1_455 S
C255 C250 1.446 . S
C255 C254 1.497 . S
C256 C257 1.582 . S
C256 H313 0.962 . S
C256 H314 0.959 . S
C256 H315 0.958 . S
C257 C256 1.582 . S
C257 O260 1.458 . S
C257 H286 0.980 . S
O258 C203 1.426 . S
O258 C204 1.334 . S
O259 C231 1.412 . S
O259 C232 1.393 . S
O260 C222 1.435 . S
O260 C257 1.458 . S
O261 C213 1.468 . S
O261 C214 1.408 . S
H262 C203 0.980 . S
H263 C202 0.959 . S
H264 C202 0.959 . S
H265 C202 0.960 . S
H266 C205 0.929 . S
H267 C209 0.929 . S
H268 C210 0.959 . S
H269 C210 0.961 . S
H270 C210 0.961 . S
H271 C211 0.960 . S
H272 C211 0.960 . S
H273 C211 0.961 . S
H274 C213 0.980 . S
H275 C212 0.961 . S
H276 C212 0.960 . S
H277 C212 0.959 . S
H278 C215 0.930 . S
H279 C219 0.931 . S
H280 C220 0.959 . S
H281 C220 0.961 . S
H282 C220 0.959 . S
H283 C221 0.960 . S
H284 C221 0.960 . S
H285 C221 0.960 . S
H286 C257 0.980 . S
H287 C223 0.930 . S
H288 C227 0.930 . S
H289 C228 0.961 . S
H290 C228 0.960 . S
H291 C228 0.958 . S
H292 C229 0.961 . S
H293 C229 0.960 . S
H294 C229 0.960 . S
H295 C231 0.980 . S
H296 C230 0.961 . S
H297 C230 0.961 . S
H298 C230 0.959 . S
H299 C233 0.932 . S
H300 C237 0.929 . S
H301 C238 0.961 . S
H302 C238 0.959 . S
H303 C238 0.959 . S
H304 C239 0.960 . S
H305 C239 0.962 . S
H306 C239 0.961 . S
H307 C241 0.929 . S
H308 C244 0.930 . S
H309 C245 0.929 . S
H310 C248 0.930 . S
H311 C251 0.929 . S
H312 C252 0.930 . S
H313 C256 0.962 . S
H314 C256 0.959 . S
H315 C256 0.958 . S
C316 C317 1.560 . S
C316 H377 0.959 . S
C316 H378 0.959 . S
C316 H379 0.960 . S
C317 C316 1.560 . S
C317 O372 1.426 . S
C317 H376 0.980 . S
C318 C319 1.407 . S
C318 C323 1.418 . S
C318 O372 1.334 . S
C319 C318 1.407 . S
C319 C320 1.360 . S
C319 H380 0.929 . S
C320 C319 1.360 . S
C320 C321 1.401 . S
C320 C324 1.527 . S
C321 C320 1.401 . S
C321 C322 1.405 . S
C321 C354 1.587 . S
C322 C321 1.405 . S
C322 C323 1.332 . S
C322 C325 1.496 . S
C323 C318 1.418 . S
C323 C322 1.332 . S
C323 H381 0.929 . S
C324 C320 1.527 . S
C324 H382 0.959 . S
C324 H383 0.961 . S
C324 H384 0.961 . S
C325 C322 1.496 . S
C325 H385 0.960 . S
C325 H386 0.960 . S
C325 H387 0.961 . S
C326 C327 1.517 1_565 S
C326 H389 0.961 . S
C326 H390 0.960 . S
C326 H391 0.959 . S
C327 C326 1.517 1_545 S
C327 O375 1.468 . S
C327 H388 0.980 . S
C328 C329 1.349 . S
C328 C333 1.367 . S
C328 O375 1.408 . S
C329 C328 1.349 . S
C329 C330 1.407 . S
C329 H392 0.930 . S
C330 C329 1.407 . S
C330 C331 1.449 . S
C330 C334 1.535 . S
C331 C330 1.449 . S
C331 C332 1.384 . S
C331 C356 1.553 . S
C332 C331 1.384 . S
C332 C333 1.364 . S
C332 C335 1.450 . S
C333 C328 1.367 . S
C333 C332 1.364 . S
C333 H393 0.931 . S
C334 C330 1.535 . S
C334 H394 0.959 . S
C334 H395 0.961 . S
C334 H396 0.959 . S
C335 C332 1.450 . S
C335 H397 0.960 . S
C335 H398 0.960 . S
C335 H399 0.960 . S
C336 C337 1.309 . S
C336 C341 1.304 . S
C336 O374 1.435 . S
C337 C336 1.309 . S
C337 C338 1.476 . S
C337 H401 0.930 . S
C338 C337 1.476 . S
C338 C339 1.400 . S
C338 C342 1.567 . S
C339 C338 1.400 . S
C339 C340 1.373 . S
C339 C361 1.432 . S
C340 C339 1.373 . S
C340 C341 1.339 . S
C340 C343 1.530 . S
C341 C336 1.304 . S
C341 C340 1.339 . S
C341 H402 0.930 . S
C342 C338 1.567 . S
C342 H403 0.961 . S
C342 H404 0.960 . S
C342 H405 0.958 . S
C343 C340 1.530 . S
C343 H406 0.961 . S
C343 H407 0.960 . S
C343 H408 0.960 . S
C344 C345 1.530 . S
C344 H410 0.961 . S
C344 H411 0.961 . S
C344 H412 0.959 . S
C345 C344 1.530 . S
C345 O373 1.412 . S
C345 H409 0.980 . S
C346 C347 1.288 . S
C346 C351 1.377 . S
C346 O373 1.393 . S
C347 C346 1.288 . S
C347 C348 1.369 . S
C347 H413 0.932 . S
C348 C347 1.369 . S
C348 C349 1.398 . S
C348 C352 1.527 . S
C349 C348 1.398 . S
C349 C350 1.380 . S
C349 C363 1.497 . S
C350 C349 1.380 . S
C350 C351 1.383 . S
C350 C353 1.603 . S
C351 C346 1.377 . S
C351 C350 1.383 . S
C351 H414 0.929 . S
C352 C348 1.527 . S
C352 H415 0.961 . S
C352 H416 0.959 . S
C352 H417 0.959 . S
C353 C350 1.603 . S
C353 H418 0.960 . S
C353 H419 0.962 . S
C353 H420 0.961 . S
C354 C321 1.587 . S
C354 C355 1.360 . S
C354 C367 1.412 . S
C355 C354 1.360 . S
C355 C356 1.365 . S
C355 H421 0.929 . S
C356 C331 1.553 . S
C356 C355 1.365 . S
C356 C357 1.404 . S
C357 C356 1.404 . S
C357 C358 1.395 . S
C357 C368 1.451 . S
C358 C357 1.395 . S
C358 C359 1.322 . S
C358 H422 0.930 . S
C359 C358 1.322 . S
C359 C360 1.459 . S
C359 H423 0.929 . S
C360 C359 1.459 . S
C360 C361 1.445 . S
C360 C369 1.395 . S
C361 C339 1.432 . S
C361 C360 1.445 . S
C361 C362 1.370 . S
C362 C361 1.370 . S
C362 C363 1.438 . S
C362 H424 0.930 . S
C363 C349 1.497 . S
C363 C362 1.438 . S
C363 C364 1.360 . S
C364 C363 1.360 . S
C364 C365 1.401 . S
C364 C369 1.446 . S
C365 C364 1.401 . S
C365 C366 1.347 . S
C365 H425 0.929 . S
C366 C365 1.347 . S
C366 C367 1.455 . S
C366 H426 0.930 . S
C367 C354 1.412 . S
C367 C366 1.455 . S
C367 C368 1.331 . S
C368 C357 1.451 . S
C368 C367 1.331 . S
C368 C369 1.497 . S
C369 C360 1.395 . S
C369 C364 1.446 . S
C369 C368 1.497 . S
C370 C371 1.582 . S
C370 H427 0.962 . S
C370 H428 0.959 . S
C370 H429 0.958 . S
C371 C370 1.582 . S
C371 O374 1.458 1_565 S
C371 H400 0.980 . S
O372 C317 1.426 . S
O372 C318 1.334 . S
O373 C345 1.412 . S
O373 C346 1.393 . S
O374 C336 1.435 . S
O374 C371 1.458 1_545 S
O375 C327 1.468 . S
O375 C328 1.408 . S
H376 C317 0.980 . S
H377 C316 0.959 . S
H378 C316 0.959 . S
H379 C316 0.960 . S
H380 C319 0.929 . S
H381 C323 0.929 . S
H382 C324 0.959 . S
H383 C324 0.961 . S
H384 C324 0.961 . S
H385 C325 0.960 . S
H386 C325 0.960 . S
H387 C325 0.961 . S
H388 C327 0.980 . S
H389 C326 0.961 . S
H390 C326 0.960 . S
H391 C326 0.959 . S
H392 C329 0.930 . S
H393 C333 0.931 . S
H394 C334 0.959 . S
H395 C334 0.961 . S
H396 C334 0.959 . S
H397 C335 0.960 . S
H398 C335 0.960 . S
H399 C335 0.960 . S
H400 C371 0.980 . S
H401 C337 0.930 . S
H402 C341 0.930 . S
H403 C342 0.961 . S
H404 C342 0.960 . S
H405 C342 0.958 . S
H406 C343 0.961 . S
H407 C343 0.960 . S
H408 C343 0.960 . S
H409 C345 0.980 . S
H410 C344 0.961 . S
H411 C344 0.961 . S
H412 C344 0.959 . S
H413 C347 0.932 . S
H414 C351 0.929 . S
H415 C352 0.961 . S
H416 C352 0.959 . S
H417 C352 0.959 . S
H418 C353 0.960 . S
H419 C353 0.962 . S
H420 C353 0.961 . S
H421 C355 0.929 . S
H422 C358 0.930 . S
H423 C359 0.929 . S
H424 C362 0.930 . S
H425 C365 0.929 . S
H426 C366 0.930 . S
H427 C370 0.962 . S
H428 C370 0.959 . S
H429 C370 0.958 . S
C430 C431 1.560 . S
C430 H491 0.959 . S
C430 H492 0.959 . S
C430 H493 0.960 . S
C431 C430 1.560 . S
C431 O486 1.426 . S
C431 H490 0.980 . S
C432 C433 1.407 . S
C432 C437 1.418 . S
C432 O486 1.334 . S
C433 C432 1.407 . S
C433 C434 1.360 . S
C433 H494 0.929 . S
C434 C433 1.360 . S
C434 C435 1.401 . S
C434 C438 1.527 . S
C435 C434 1.401 . S
C435 C436 1.405 . S
C435 C468 1.587 . S
C436 C435 1.405 . S
C436 C437 1.332 . S
C436 C439 1.496 . S
C437 C432 1.418 . S
C437 C436 1.332 . S
C437 H495 0.929 . S
C438 C434 1.527 . S
C438 H496 0.959 . S
C438 H497 0.961 . S
C438 H498 0.961 . S
C439 C436 1.496 . S
C439 H499 0.960 . S
C439 H500 0.960 . S
C439 H501 0.961 . S
C440 C441 1.517 . S
C440 H503 0.961 . S
C440 H504 0.960 . S
C440 H505 0.959 . S
C441 C440 1.517 . S
C441 O489 1.468 . S
C441 H502 0.980 . S
C442 C443 1.349 . S
C442 C447 1.367 . S
C442 O489 1.408 . S
C443 C442 1.349 . S
C443 C444 1.407 . S
C443 H506 0.930 . S
C444 C443 1.407 . S
C444 C445 1.449 . S
C444 C448 1.535 . S
C445 C444 1.449 . S
C445 C446 1.384 . S
C445 C470 1.553 . S
C446 C445 1.384 . S
C446 C447 1.364 . S
C446 C449 1.450 . S
C447 C442 1.367 . S
C447 C446 1.364 . S
C447 H507 0.931 . S
C448 C444 1.535 . S
C448 H508 0.959 . S
C448 H509 0.961 . S
C448 H510 0.959 . S
C449 C446 1.450 . S
C449 H511 0.960 . S
C449 H512 0.960 . S
C449 H513 0.960 . S
C450 C451 1.309 . S
C450 C455 1.304 . S
C450 O488 1.435 . S
C451 C450 1.309 . S
C451 C452 1.476 . S
C451 H515 0.930 . S
C452 C451 1.476 . S
C452 C453 1.400 . S
C452 C456 1.567 . S
C453 C452 1.400 . S
C453 C454 1.373 . S
C453 C475 1.432 . S
C454 C453 1.373 . S
C454 C455 1.339 . S
C454 C457 1.530 . S
C455 C450 1.304 . S
C455 C454 1.339 . S
C455 H516 0.930 . S
C456 C452 1.567 . S
C456 H517 0.961 . S
C456 H518 0.960 . S
C456 H519 0.958 . S
C457 C454 1.530 . S
C457 H520 0.961 . S
C457 H521 0.960 . S
C457 H522 0.960 . S
C458 C459 1.530 . S
C458 H524 0.961 . S
C458 H525 0.961 . S
C458 H526 0.959 . S
C459 C458 1.530 . S
C459 O487 1.412 . S
C459 H523 0.980 . S
C460 C461 1.288 . S
C460 C465 1.377 . S
C460 O487 1.393 . S
C461 C460 1.288 . S
C461 C462 1.369 . S
C461 H527 0.932 . S
C462 C461 1.369 . S
C462 C463 1.398 . S
C462 C466 1.527 . S
C463 C462 1.398 . S
C463 C464 1.380 . S
C463 C477 1.497 . S
C464 C463 1.380 . S
C464 C465 1.383 . S
C464 C467 1.603 . S
C465 C460 1.377 . S
C465 C464 1.383 . S
C465 H528 0.929 . S
C466 C462 1.527 . S
C466 H529 0.961 . S
C466 H530 0.959 . S
C466 H531 0.959 . S
C467 C464 1.603 . S
C467 H532 0.960 . S
C467 H533 0.962 . S
C467 H534 0.961 . S
C468 C435 1.587 . S
C468 C469 1.360 . S
C468 C481 1.412 . S
C469 C468 1.360 . S
C469 C470 1.365 . S
C469 H535 0.929 . S
C470 C445 1.553 . S
C470 C469 1.365 . S
C470 C471 1.404 . S
C471 C470 1.404 . S
C471 C472 1.395 . S
C471 C482 1.451 . S
C472 C471 1.395 . S
C472 C473 1.322 1_554 S
C472 H536 0.930 . S
C473 C472 1.322 1_556 S
C473 C474 1.459 . S
C473 H537 0.929 . S
C474 C473 1.459 . S
C474 C475 1.445 . S
C474 C483 1.395 . S
C475 C453 1.432 . S
C475 C474 1.445 . S
C475 C476 1.370 . S
C476 C475 1.370 . S
C476 C477 1.438 . S
C476 H538 0.930 . S
C477 C463 1.497 . S
C477 C476 1.438 . S
C477 C478 1.360 . S
C478 C477 1.360 . S
C478 C479 1.401 . S
C478 C483 1.446 . S
C479 C478 1.401 . S
C479 C480 1.346 1_556 S
C479 H539 0.929 . S
C480 C479 1.346 1_554 S
C480 C481 1.455 . S
C480 H540 0.930 . S
C481 C468 1.412 . S
C481 C480 1.455 . S
C481 C482 1.331 . S
C482 C471 1.451 . S
C482 C481 1.331 . S
C482 C483 1.497 1_554 S
C483 C474 1.395 . S
C483 C478 1.446 . S
C483 C482 1.497 1_556 S
C484 C485 1.582 . S
C484 H541 0.962 . S
C484 H542 0.959 . S
C484 H543 0.958 . S
C485 C484 1.582 . S
C485 O488 1.458 . S
C485 H514 0.980 . S
O486 C431 1.426 . S
O486 C432 1.334 . S
O487 C459 1.412 . S
O487 C460 1.393 . S
O488 C450 1.435 . S
O488 C485 1.458 . S
O489 C441 1.468 . S
O489 C442 1.408 . S
H490 C431 0.980 . S
H491 C430 0.959 . S
H492 C430 0.959 . S
H493 C430 0.960 . S
H494 C433 0.929 . S
H495 C437 0.929 . S
H496 C438 0.959 . S
H497 C438 0.961 . S
H498 C438 0.961 . S
H499 C439 0.960 . S
H500 C439 0.960 . S
H501 C439 0.961 . S
H502 C441 0.980 . S
H503 C440 0.961 . S
H504 C440 0.960 . S
H505 C440 0.959 . S
H506 C443 0.930 . S
H507 C447 0.931 . S
H508 C448 0.959 . S
H509 C448 0.961 . S
H510 C448 0.959 . S
H511 C449 0.960 . S
H512 C449 0.960 . S
H513 C449 0.960 . S
H514 C485 0.980 . S
H515 C451 0.930 . S
H516 C455 0.930 . S
H517 C456 0.961 . S
H518 C456 0.960 . S
H519 C456 0.958 . S
H520 C457 0.961 . S
H521 C457 0.960 . S
H522 C457 0.960 . S
H523 C459 0.980 . S
H524 C458 0.961 . S
H525 C458 0.961 . S
H526 C458 0.959 . S
H527 C461 0.932 . S
H528 C465 0.929 . S
H529 C466 0.961 . S
H530 C466 0.959 . S
H531 C466 0.959 . S
H532 C467 0.960 . S
H533 C467 0.962 . S
H534 C467 0.961 . S
H535 C469 0.929 . S
H536 C472 0.930 . S
H537 C473 0.929 . S
H538 C476 0.930 . S
H539 C479 0.929 . S
H540 C480 0.930 . S
H541 C484 0.962 . S
H542 C484 0.959 . S
H543 C484 0.958 . S
C544 C545 1.560 . S
C544 H605 0.959 . S
C544 H606 0.959 . S
C544 H607 0.960 . S
C545 C544 1.560 . S
C545 O600 1.426 . S
C545 H604 0.980 . S
C546 C547 1.407 . S
C546 C551 1.418 . S
C546 O600 1.334 . S
C547 C546 1.407 . S
C547 C548 1.360 . S
C547 H608 0.929 . S
C548 C547 1.360 . S
C548 C549 1.401 . S
C548 C552 1.527 . S
C549 C548 1.401 . S
C549 C550 1.405 . S
C549 C582 1.587 . S
C550 C549 1.405 . S
C550 C551 1.332 . S
C550 C553 1.496 . S
C551 C546 1.418 . S
C551 C550 1.332 . S
C551 H609 0.929 . S
C552 C548 1.527 . S
C552 H610 0.959 . S
C552 H611 0.961 . S
C552 H612 0.961 . S
C553 C550 1.496 . S
C553 H613 0.960 . S
C553 H614 0.960 . S
C553 H615 0.961 . S
C554 C555 1.517 . S
C554 H617 0.961 . S
C554 H618 0.960 . S
C554 H619 0.959 . S
C555 C554 1.517 . S
C555 O603 1.468 . S
C555 H616 0.980 . S
C556 C557 1.349 . S
C556 C561 1.367 . S
C556 O603 1.408 . S
C557 C556 1.349 . S
C557 C558 1.407 . S
C557 H620 0.930 . S
C558 C557 1.407 . S
C558 C559 1.449 . S
C558 C562 1.535 . S
C559 C558 1.449 . S
C559 C560 1.384 . S
C559 C584 1.553 . S
C560 C559 1.384 . S
C560 C561 1.364 . S
C560 C563 1.450 . S
C561 C556 1.367 . S
C561 C560 1.364 . S
C561 H621 0.931 . S
C562 C558 1.535 . S
C562 H622 0.959 . S
C562 H623 0.961 . S
C562 H624 0.959 . S
C563 C560 1.450 . S
C563 H625 0.960 . S
C563 H626 0.999 . S
C563 H627 0.960 . S
C564 C565 1.309 . S
C564 C569 1.304 . S
C564 O602 1.435 . S
C565 C564 1.309 . S
C565 C566 1.476 . S
C565 H629 0.930 . S
C566 C565 1.476 . S
C566 C567 1.400 . S
C566 C570 1.567 . S
C567 C566 1.400 . S
C567 C568 1.373 . S
C567 C589 1.432 . S
C568 C567 1.373 . S
C568 C569 1.339 . S
C568 C571 1.530 . S
C569 C564 1.304 . S
C569 C568 1.339 . S
C569 H630 0.930 . S
C570 C566 1.567 . S
C570 H631 0.961 . S
C570 H632 0.960 . S
C570 H633 0.958 . S
C571 C568 1.530 . S
C571 H634 0.961 . S
C571 H635 0.960 . S
C571 H636 0.960 . S
C572 C573 1.530 . S
C572 H638 0.961 . S
C572 H639 0.961 . S
C572 H640 0.959 . S
C573 C572 1.530 . S
C573 O601 1.412 . S
C573 H637 0.980 . S
C574 C575 1.288 . S
C574 C579 1.377 . S
C574 O601 1.393 . S
C575 C574 1.288 . S
C575 C576 1.369 . S
C575 H641 0.932 . S
C576 C575 1.369 . S
C576 C577 1.398 . S
C576 C580 1.527 . S
C577 C576 1.398 . S
C577 C578 1.380 . S
C577 C591 1.497 . S
C578 C577 1.380 . S
C578 C579 1.383 . S
C578 C581 1.603 . S
C579 C574 1.377 . S
C579 C578 1.383 . S
C579 H642 0.929 . S
C580 C576 1.527 . S
C580 H643 0.961 . S
C580 H644 0.959 . S
C580 H645 0.959 . S
C581 C578 1.603 . S
C581 H646 0.960 . S
C581 H647 0.962 . S
C581 H648 0.961 . S
C582 C549 1.587 . S
C582 C583 1.360 . S
C582 C595 1.412 . S
C583 C582 1.360 . S
C583 C584 1.365 1_545 S
C583 H649 0.929 . S
C584 C559 1.553 . S
C584 C583 1.365 1_565 S
C584 C585 1.404 . S
C585 C584 1.404 . S
C585 C586 1.395 . S
C585 C596 1.451 1_565 S
C586 C585 1.395 . S
C586 C587 1.322 . S
C586 H650 0.930 . S
C587 C586 1.322 . S
C587 C588 1.459 . S
C587 H651 0.929 . S
C588 C587 1.459 . S
C588 C589 1.445 . S
C588 C597 1.395 1_565 S
C589 C567 1.432 . S
C589 C588 1.445 . S
C589 C590 1.370 1_565 S
C590 C589 1.370 1_545 S
C590 C591 1.438 . S
C590 H652 0.932 . S
C591 C577 1.497 . S
C591 C590 1.438 . S
C591 C592 1.360 . S
C592 C591 1.360 . S
C592 C593 1.401 . S
C592 C597 1.446 . S
C593 C592 1.401 . S
C593 C594 1.347 . S
C593 H653 0.929 . S
C594 C593 1.347 . S
C594 C595 1.455 . S
C594 H654 0.930 . S
C595 C582 1.412 . S
C595 C594 1.455 . S
C595 C596 1.331 . S
C596 C585 1.451 1_545 S
C596 C595 1.331 . S
C596 C597 1.497 . S
C597 C588 1.395 1_545 S
C597 C592 1.446 . S
C597 C596 1.497 . S
C598 C599 1.582 . S
C598 H655 0.962 . S
C598 H656 0.959 . S
C598 H657 0.958 . S
C599 C598 1.582 . S
C599 O602 1.458 . S
C599 H628 0.980 . S
O600 C545 1.426 . S
O600 C546 1.334 . S
O601 C573 1.412 . S
O601 C574 1.393 . S
O602 C564 1.435 . S
O602 C599 1.458 . S
O603 C555 1.468 . S
O603 C556 1.408 . S
H604 C545 0.980 . S
H605 C544 0.959 . S
H606 C544 0.959 . S
H607 C544 0.960 . S
H608 C547 0.929 . S
H609 C551 0.929 . S
H610 C552 0.959 . S
H611 C552 0.961 . S
H612 C552 0.961 . S
H613 C553 0.960 . S
H614 C553 0.960 . S
H615 C553 0.961 . S
H616 C555 0.980 . S
H617 C554 0.961 . S
H618 C554 0.960 . S
H619 C554 0.959 . S
H620 C557 0.930 . S
H621 C561 0.931 . S
H622 C562 0.959 . S
H623 C562 0.961 . S
H624 C562 0.959 . S
H625 C563 0.960 . S
H626 C563 0.999 . S
H627 C563 0.960 . S
H628 C599 0.980 . S
H629 C565 0.930 . S
H630 C569 0.930 . S
H631 C570 0.961 . S
H632 C570 0.960 . S
H633 C570 0.958 . S
H634 C571 0.961 . S
H635 C571 0.960 . S
H636 C571 0.960 . S
H637 C573 0.980 . S
H638 C572 0.961 . S
H639 C572 0.961 . S
H640 C572 0.959 . S
H641 C575 0.932 . S
H642 C579 0.929 . S
H643 C580 0.961 . S
H644 C580 0.959 . S
H645 C580 0.959 . S
H646 C581 0.960 . S
H647 C581 0.962 . S
H648 C581 0.961 . S
H649 C583 0.929 . S
H650 C586 0.930 . S
H651 C587 0.929 . S
H652 C590 0.932 . S
H653 C593 0.929 . S
H654 C594 0.930 . S
H655 C598 0.962 . S
H656 C598 0.959 . S
H657 C598 0.958 . S
C658 C659 1.560 . S
C658 H719 0.959 . S
C658 H720 0.959 . S
C658 H721 0.960 . S
C659 C658 1.560 . S
C659 O714 1.426 . S
C659 H718 0.980 . S
C660 C661 1.407 . S
C660 C665 1.418 . S
C660 O714 1.334 . S
C661 C660 1.407 . S
C661 C662 1.360 . S
C661 H722 0.929 . S
C662 C661 1.360 . S
C662 C663 1.401 . S
C662 C666 1.527 . S
C663 C662 1.401 . S
C663 C664 1.405 . S
C663 C696 1.587 . S
C664 C663 1.405 . S
C664 C665 1.332 . S
C664 C667 1.496 . S
C665 C660 1.418 . S
C665 C664 1.332 . S
C665 H723 0.929 . S
C666 C662 1.527 . S
C666 H724 0.959 . S
C666 H725 0.961 . S
C666 H726 0.961 . S
C667 C664 1.496 . S
C667 H727 0.960 . S
C667 H728 0.960 . S
C667 H729 0.961 . S
C668 C669 1.517 . S
C668 H731 0.961 . S
C668 H732 0.960 . S
C668 H733 0.959 . S
C669 C668 1.517 . S
C669 O717 1.468 . S
C669 H730 0.980 . S
C670 C671 1.349 . S
C670 C675 1.367 . S
C670 O717 1.408 . S
C671 C670 1.349 . S
C671 C672 1.407 . S
C671 H734 0.930 . S
C672 C671 1.407 . S
C672 C673 1.449 . S
C672 C676 1.535 . S
C673 C672 1.449 . S
C673 C674 1.384 . S
C673 C698 1.553 . S
C674 C673 1.384 . S
C674 C675 1.364 . S
C674 C677 1.450 . S
C675 C670 1.367 . S
C675 C674 1.364 . S
C675 H735 0.931 . S
C676 C672 1.535 . S
C676 H736 0.959 . S
C676 H737 0.961 . S
C676 H738 0.959 . S
C677 C674 1.450 . S
C677 H739 0.960 . S
C677 H740 0.960 . S
C677 H741 0.960 . S
C678 C679 1.309 . S
C678 C683 1.304 . S
C678 O716 1.435 . S
C679 C678 1.309 . S
C679 C680 1.476 . S
C679 H743 0.930 . S
C680 C679 1.476 . S
C680 C681 1.400 . S
C680 C684 1.567 . S
C681 C680 1.400 . S
C681 C682 1.373 . S
C681 C703 1.432 . S
C682 C681 1.373 . S
C682 C683 1.339 . S
C682 C685 1.530 . S
C683 C678 1.304 . S
C683 C682 1.339 . S
C683 H744 0.930 . S
C684 C680 1.567 . S
C684 H745 0.961 . S
C684 H746 0.960 . S
C684 H747 0.958 . S
C685 C682 1.530 . S
C685 H748 0.961 . S
C685 H749 0.960 . S
C685 H750 0.960 . S
C686 C687 1.530 . S
C686 H752 0.961 . S
C686 H753 0.961 . S
C686 H754 0.959 . S
C687 C686 1.530 . S
C687 O715 1.412 . S
C687 H751 0.980 . S
C688 C689 1.288 . S
C688 C693 1.377 . S
C688 O715 1.393 . S
C689 C688 1.288 . S
C689 C690 1.369 . S
C689 H755 0.932 . S
C690 C689 1.369 . S
C690 C691 1.398 . S
C690 C694 1.527 . S
C691 C690 1.398 . S
C691 C692 1.380 . S
C691 C705 1.497 . S
C692 C691 1.380 . S
C692 C693 1.383 . S
C692 C695 1.603 . S
C693 C688 1.377 . S
C693 C692 1.383 . S
C693 H756 0.929 . S
C694 C690 1.527 . S
C694 H757 0.961 . S
C694 H758 0.959 . S
C694 H759 0.959 . S
C695 C692 1.603 . S
C695 H760 0.960 . S
C695 H761 0.962 . S
C695 H762 0.961 . S
C696 C663 1.587 . S
C696 C697 1.360 . S
C696 C709 1.412 . S
C697 C696 1.360 . S
C697 C698 1.365 . S
C697 H763 0.929 . S
C698 C673 1.553 . S
C698 C697 1.365 . S
C698 C699 1.404 . S
C699 C698 1.404 . S
C699 C700 1.395 . S
C699 C710 1.451 . S
C700 C699 1.395 . S
C700 C701 1.322 . S
C700 H764 0.930 . S
C701 C700 1.322 . S
C701 C702 1.459 1_554 S
C701 H765 0.929 1_554 S
C702 C701 1.459 1_556 S
C702 C703 1.445 . S
C702 C711 1.395 1_556 S
C703 C681 1.432 . S
C703 C702 1.445 . S
C703 C704 1.370 . S
C704 C703 1.370 . S
C704 C705 1.438 . S
C704 H766 0.930 . S
C705 C691 1.497 . S
C705 C704 1.438 . S
C705 C706 1.360 . S
C706 C705 1.360 . S
C706 C707 1.401 1_556 S
C706 C711 1.446 1_556 S
C707 C706 1.401 1_554 S
C707 C708 1.347 . S
C707 H767 0.935 . S
C708 C707 1.347 . S
C708 C709 1.455 . S
C708 H768 0.930 . S
C709 C696 1.412 . S
C709 C708 1.455 . S
C709 C710 1.331 . S
C710 C699 1.451 . S
C710 C709 1.331 . S
C710 C711 1.497 . S
C711 C702 1.395 1_554 S
C711 C706 1.446 1_554 S
C711 C710 1.497 . S
C712 C713 1.582 . S
C712 H769 0.962 . S
C712 H770 0.959 . S
C712 H771 0.958 . S
C713 C712 1.582 . S
C713 O716 1.458 . S
C713 H742 0.980 . S
O714 C659 1.426 . S
O714 C660 1.334 . S
O715 C687 1.412 . S
O715 C688 1.393 . S
O716 C678 1.435 . S
O716 C713 1.458 . S
O717 C669 1.468 . S
O717 C670 1.408 . S
H718 C659 0.980 . S
H719 C658 0.959 . S
H720 C658 0.959 . S
H721 C658 0.960 . S
H722 C661 0.929 . S
H723 C665 0.929 . S
H724 C666 0.959 . S
H725 C666 0.961 . S
H726 C666 0.961 . S
H727 C667 0.960 . S
H728 C667 0.960 . S
H729 C667 0.961 . S
H730 C669 0.980 . S
H731 C668 0.961 . S
H732 C668 0.960 . S
H733 C668 0.959 . S
H734 C671 0.930 . S
H735 C675 0.931 . S
H736 C676 0.959 . S
H737 C676 0.961 . S
H738 C676 0.959 . S
H739 C677 0.960 . S
H740 C677 0.960 . S
H741 C677 0.960 . S
H742 C713 0.980 . S
H743 C679 0.930 . S
H744 C683 0.930 . S
H745 C684 0.961 . S
H746 C684 0.960 . S
H747 C684 0.958 . S
H748 C685 0.961 . S
H749 C685 0.960 . S
H750 C685 0.960 . S
H751 C687 0.980 . S
H752 C686 0.961 . S
H753 C686 0.961 . S
H754 C686 0.959 . S
H755 C689 0.932 . S
H756 C693 0.929 . S
H757 C694 0.961 . S
H758 C694 0.959 . S
H759 C694 0.959 . S
H760 C695 0.960 . S
H761 C695 0.962 . S
H762 C695 0.961 . S
H763 C697 0.929 . S
H764 C700 0.930 . S
H765 C701 0.929 1_556 S
H766 C704 0.930 . S
H767 C707 0.935 . S
H768 C708 0.930 . S
H769 C712 0.962 . S
H770 C712 0.959 . S
H771 C712 0.958 . S
C772 C773 1.369 . S
C772 C774 1.419 . S
C772 H776 0.930 . S
C773 C772 1.369 . S
C773 C782 1.429 . S
C774 C772 1.419 . S
C774 C775 1.363 . S
C774 H777 0.929 . S
C775 C774 1.363 . S
C775 C781 1.428 . S
H776 C772 0.930 . S
H777 C774 0.929 . S
S778 N779 1.613 . S
S778 N780 1.610 . S
N779 S778 1.613 . S
N779 C782 1.350 . S
N780 S778 1.610 . S
N780 C781 1.351 . S
C781 C775 1.428 . S
C781 N780 1.351 . S
C781 C782 1.434 . S
C782 C773 1.429 . S
C782 N779 1.350 . S
C782 C781 1.434 . S
C783 C784 1.369 . S
C783 C785 1.419 . S
C783 H787 0.930 . S
C784 C783 1.369 . S
C784 C793 1.429 . S
C785 C783 1.419 . S
C785 C786 1.363 . S
C785 H788 0.929 . S
C786 C785 1.363 . S
C786 C792 1.428 . S
H787 C783 0.930 . S
H788 C785 0.929 . S
S789 N790 1.613 . S
S789 N791 1.610 . S
N790 S789 1.613 . S
N790 C793 1.350 . S
N791 S789 1.610 . S
N791 C792 1.351 . S
C792 C786 1.428 . S
C792 N791 1.351 . S
C792 C793 1.434 . S
C793 C784 1.429 . S
C793 N790 1.350 . S
C793 C792 1.434 . S
C794 C795 1.369 . S
C794 C796 1.419 . S
C794 H798 0.930 . S
C795 C794 1.369 . S
C795 C804 1.429 . S
C796 C794 1.419 . S
C796 C797 1.363 . S
C796 H799 0.929 . S
C797 C796 1.363 . S
C797 C803 1.428 . S
H798 C794 0.930 . S
H799 C796 0.929 . S
S800 N801 1.613 . S
S800 N802 1.610 . S
N801 S800 1.613 . S
N801 C804 1.350 . S
N802 S800 1.610 . S
N802 C803 1.351 . S
C803 C797 1.428 . S
C803 N802 1.351 . S
C803 C804 1.434 . S
C804 C795 1.429 . S
C804 N801 1.350 . S
C804 C803 1.434 . S
C805 C806 1.369 . S
C805 C807 1.419 . S
C805 H809 0.930 . S
C806 C805 1.369 . S
C806 C815 1.429 . S
C807 C805 1.419 . S
C807 C808 1.363 . S
C807 H810 0.929 . S
C808 C807 1.363 . S
C808 C814 1.428 . S
H809 C805 0.930 . S
H810 C807 0.929 . S
S811 N812 1.613 . S
S811 N813 1.610 . S
N812 S811 1.613 . S
N812 C815 1.350 . S
N813 S811 1.610 . S
N813 C814 1.351 . S
C814 C808 1.428 . S
C814 N813 1.351 . S
C814 C815 1.434 . S
C815 C806 1.429 . S
C815 N812 1.350 . S
C815 C814 1.434 . S
C816 C817 1.369 . S
C816 C818 1.419 . S
C816 H820 0.930 . S
C817 C816 1.369 . S
C817 C826 1.429 . S
C818 C816 1.419 . S
C818 C819 1.363 . S
C818 H821 0.929 . S
C819 C818 1.363 . S
C819 C825 1.428 . S
H820 C816 0.930 . S
H821 C818 0.929 . S
S822 N823 1.613 . S
S822 N824 1.610 . S
N823 S822 1.613 . S
N823 C826 1.350 . S
N824 S822 1.610 . S
N824 C825 1.351 . S
C825 C819 1.428 . S
C825 N824 1.351 . S
C825 C826 1.434 . S
C826 C817 1.429 . S
C826 N823 1.350 . S
C826 C825 1.434 . S
C827 C828 1.369 . S
C827 C829 1.419 . S
C827 H831 0.930 . S
C828 C827 1.369 . S
C828 C837 1.429 . S
C829 C827 1.419 . S
C829 C830 1.363 . S
C829 H832 0.929 . S
C830 C829 1.363 . S
C830 C836 1.428 . S
H831 C827 0.930 . S
H832 C829 0.929 . S
S833 N834 1.613 . S
S833 N835 1.610 . S
N834 S833 1.613 . S
N834 C837 1.350 . S
N835 S833 1.610 . S
N835 C836 1.351 . S
C836 C830 1.428 . S
C836 N835 1.351 . S
C836 C837 1.434 . S
C837 C828 1.429 . S
C837 N834 1.350 . S
C837 C836 1.434 . S
C838 C839 1.369 . S
C838 C840 1.419 . S
C838 H842 0.930 . S
C839 C838 1.369 . S
C839 C848 1.429 . S
C840 C838 1.419 . S
C840 C841 1.363 . S
C840 H843 0.929 . S
C841 C840 1.363 . S
C841 C847 1.428 . S
H842 C838 0.930 . S
H843 C840 0.929 . S
S844 N845 1.613 . S
S844 N846 1.610 . S
N845 S844 1.613 . S
N845 C848 1.350 . S
N846 S844 1.610 . S
N846 C847 1.351 . S
C847 C841 1.428 . S
C847 N846 1.351 . S
C847 C848 1.434 . S
C848 C839 1.429 . S
C848 N845 1.350 . S
C848 C847 1.434 . S
C849 C850 1.369 . S
C849 C851 1.419 . S
C849 H853 0.930 . S
C850 C849 1.369 . S
C850 C859 1.429 . S
C851 C849 1.419 . S
C851 C852 1.363 . S
C851 H854 0.929 . S
C852 C851 1.363 . S
C852 C858 1.428 . S
H853 C849 0.930 . S
H854 C851 0.929 . S
S855 N856 1.613 . S
S855 N857 1.610 . S
N856 S855 1.613 . S
N856 C859 1.350 . S
N857 S855 1.610 . S
N857 C858 1.351 . S
C858 C852 1.428 . S
C858 N857 1.351 . S
C858 C859 1.434 . S
C859 C850 1.429 . S
C859 N856 1.350 . S
C859 C858 1.434 . S
C860 C861 1.369 . S
C860 C862 1.419 . S
C860 H864 0.930 . S
C861 C860 1.369 . S
C861 C870 1.429 . S
C862 C860 1.419 . S
C862 C863 1.363 . S
C862 H865 0.929 1_565 S
C863 C862 1.363 . S
C863 C869 1.428 . S
H864 C860 0.930 . S
H865 C862 0.929 1_545 S
S866 N867 1.613 . S
S866 N868 1.610 . S
N867 S866 1.613 . S
N867 C870 1.350 . S
N868 S866 1.610 . S
N868 C869 1.351 . S
C869 C863 1.428 . S
C869 N868 1.351 . S
C869 C870 1.434 . S
C870 C861 1.429 . S
C870 N867 1.350 . S
C870 C869 1.434 . S
C871 C872 1.369 . S
C871 C873 1.419 . S
C871 H875 0.930 . S
C872 C871 1.369 . S
C872 C881 1.429 . S
C873 C871 1.419 . S
C873 C874 1.363 . S
C873 H876 0.929 . S
C874 C873 1.363 . S
C874 C880 1.428 . S
H875 C871 0.930 . S
H876 C873 0.929 . S
S877 N878 1.613 . S
S877 N879 1.610 . S
N878 S877 1.613 . S
N878 C881 1.350 . S
N879 S877 1.610 . S
N879 C880 1.351 . S
C880 C874 1.428 . S
C880 N879 1.351 . S
C880 C881 1.434 . S
C881 C872 1.429 . S
C881 N878 1.350 . S
C881 C880 1.434 . S
C882 C883 1.369 . S
C882 C884 1.419 . S
C882 H886 0.930 . S
C883 C882 1.369 . S
C883 C892 1.429 . S
C884 C882 1.419 . S
C884 C885 1.363 . S
C884 H887 0.929 . S
C885 C884 1.363 . S
C885 C891 1.428 . S
H886 C882 0.930 . S
H887 C884 0.929 . S
S888 N889 1.613 . S
S888 N890 1.610 . S
N889 S888 1.613 . S
N889 C892 1.350 . S
N890 S888 1.610 . S
N890 C891 1.351 . S
C891 C885 1.428 . S
C891 N890 1.351 . S
C891 C892 1.434 . S
C892 C883 1.429 . S
C892 N889 1.350 . S
C892 C891 1.434 . S
C893 C894 1.369 . S
C893 C895 1.419 . S
C893 H897 0.930 . S
C894 C893 1.369 . S
C894 C903 1.429 . S
C895 C893 1.419 . S
C895 C896 1.363 . S
C895 H898 0.929 . S
C896 C895 1.363 . S
C896 C902 1.428 . S
H897 C893 0.930 . S
H898 C895 0.929 . S
S899 N900 1.613 . S
S899 N901 1.610 . S
N900 S899 1.613 . S
N900 C903 1.350 . S
N901 S899 1.610 . S
N901 C902 1.351 . S
C902 C896 1.428 . S
C902 N901 1.351 . S
C902 C903 1.434 . S
C903 C894 1.429 . S
C903 N900 1.350 . S
C903 C902 1.434 . S
C904 C905 1.369 . S
C904 C906 1.419 . S
C904 H908 0.930 . S
C905 C904 1.369 . S
C905 C914 1.429 . S
C906 C904 1.419 . S
C906 C907 1.363 . S
C906 H909 0.929 . S
C907 C906 1.363 . S
C907 C913 1.428 . S
H908 C904 0.930 . S
H909 C906 0.929 . S
S910 N911 1.613 . S
S910 N912 1.610 . S
N911 S910 1.613 . S
N911 C914 1.350 . S
N912 S910 1.610 . S
N912 C913 1.351 . S
C913 C907 1.428 . S
C913 N912 1.351 . S
C913 C914 1.434 . S
C914 C905 1.429 . S
C914 N911 1.350 . S
C914 C913 1.434 . S
C915 C916 1.369 . S
C915 C917 1.419 . S
C915 H919 0.930 . S
C916 C915 1.369 . S
C916 C925 1.429 . S
C917 C915 1.419 . S
C917 C918 1.363 . S
C917 H920 0.929 . S
C918 C917 1.363 . S
C918 C924 1.428 . S
H919 C915 0.930 . S
H920 C917 0.929 . S
S921 N922 1.613 . S
S921 N923 1.610 . S
N922 S921 1.613 . S
N922 C925 1.350 . S
N923 S921 1.610 . S
N923 C924 1.351 . S
C924 C918 1.428 . S
C924 N923 1.351 . S
C924 C925 1.434 . S
C925 C916 1.429 . S
C925 N922 1.350 . S
C925 C924 1.434 . S
C926 C927 1.369 . S
C926 C928 1.419 . S
C926 H930 0.930 . S
C927 C926 1.369 . S
C927 C936 1.429 . S
C928 C926 1.419 . S
C928 C929 1.363 . S
C928 H931 0.929 . S
C929 C928 1.363 . S
C929 C935 1.428 . S
H930 C926 0.930 . S
H931 C928 0.929 . S
S932 N933 1.613 . S
S932 N934 1.610 . S
N933 S932 1.613 . S
N933 C936 1.350 . S
N934 S932 1.610 . S
N934 C935 1.351 . S
C935 C929 1.428 . S
C935 N934 1.351 . S
C935 C936 1.434 . S
C936 C927 1.429 . S
C936 N933 1.350 . S
C936 C935 1.434 . S
C937 C938 1.369 . S
C937 C939 1.419 . S
C937 H941 0.930 . S
C938 C937 1.369 . S
C938 C947 1.429 . S
C939 C937 1.419 . S
C939 C940 1.363 . S
C939 H942 0.929 . S
C940 C939 1.363 . S
C940 C946 1.428 . S
H941 C937 0.930 . S
H942 C939 0.929 . S
S943 N944 1.613 . S
S943 N945 1.610 . S
N944 S943 1.613 . S
N944 C947 1.350 . S
N945 S943 1.610 . S
N945 C946 1.351 . S
C946 C940 1.428 . S
C946 N945 1.351 . S
C946 C947 1.434 . S
C947 C938 1.429 . S
C947 N944 1.350 . S
C947 C946 1.434 . S
C948 C949 1.369 . S
C948 C950 1.419 . S
C948 H952 0.930 . S
C949 C948 1.369 . S
C949 C958 1.429 . S
C950 C948 1.419 . S
C950 C951 1.363 . S
C950 H953 0.929 . S
C951 C950 1.363 . S
C951 C957 1.428 . S
H952 C948 0.930 . S
H953 C950 0.929 . S
S954 N955 1.613 . S
S954 N956 1.610 . S
N955 S954 1.613 . S
N955 C958 1.350 . S
N956 S954 1.610 . S
N956 C957 1.351 . S
C957 C951 1.428 . S
C957 N956 1.351 . S
C957 C958 1.434 . S
C958 C949 1.429 . S
C958 N955 1.350 . S
C958 C957 1.434 . S
C959 C960 1.369 . S
C959 C961 1.419 . S
C959 H963 0.930 . S
C960 C959 1.369 . S
C960 C969 1.429 . S
C961 C959 1.419 . S
C961 C962 1.363 . S
C961 H964 0.929 . S
C962 C961 1.363 . S
C962 C968 1.428 . S
H963 C959 0.930 . S
H964 C961 0.929 . S
S965 N966 1.613 . S
S965 N967 1.610 . S
N966 S965 1.613 . S
N966 C969 1.350 . S
N967 S965 1.610 . S
N967 C968 1.351 . S
C968 C962 1.428 . S
C968 N967 1.351 . S
C968 C969 1.434 . S
C969 C960 1.429 . S
C969 N966 1.350 . S
C969 C968 1.434 . S
C970 C971 1.369 . S
C970 C972 1.419 . S
C970 H974 0.930 . S
C971 C970 1.369 . S
C971 C980 1.429 . S
C972 C970 1.419 . S
C972 C973 1.363 . S
C972 H975 0.929 . S
C973 C972 1.363 . S
C973 C979 1.428 . S
H974 C970 0.930 . S
H975 C972 0.929 . S
S976 N977 1.613 . S
S976 N978 1.610 . S
N977 S976 1.613 . S
N977 C980 1.350 . S
N978 S976 1.610 . S
N978 C979 1.351 . S
C979 C973 1.428 . S
C979 N978 1.351 . S
C979 C980 1.434 . S
C980 C971 1.429 . S
C980 N977 1.350 . S
C980 C979 1.434 . S
C981 C982 1.369 . S
C981 C983 1.419 . S
C981 H985 0.930 . S
C982 C981 1.369 . S
C982 C991 1.429 . S
C983 C981 1.419 . S
C983 C984 1.363 . S
C983 H986 0.929 . S
C984 C983 1.363 . S
C984 C990 1.428 . S
H985 C981 0.930 . S
H986 C983 0.929 . S
S987 N988 1.613 . S
S987 N989 1.610 . S
N988 S987 1.613 . S
N988 C991 1.350 . S
N989 S987 1.610 . S
N989 C990 1.351 . S
C990 C984 1.428 . S
C990 N989 1.351 . S
C990 C991 1.434 . S
C991 C982 1.429 . S
C991 N988 1.350 . S
C991 C990 1.434 . S
C992 C993 1.369 . S
C992 C994 1.419 . S
C992 H996 0.930 . S
C993 C992 1.369 . S
C993 C1002 1.429 . S
C994 C992 1.419 . S
C994 C995 1.363 . S
C994 H997 0.929 . S
C995 C994 1.363 . S
C995 C1001 1.428 . S
H996 C992 0.930 . S
H997 C994 0.929 . S
S998 N999 1.613 . S
S998 N1000 1.610 . S
N999 S998 1.613 . S
N999 C1002 1.350 . S
N1000 S998 1.610 . S
N1000 C1001 1.351 . S
C1001 C995 1.428 . S
C1001 N1000 1.351 . S
C1001 C1002 1.434 . S
C1002 C993 1.429 . S
C1002 N999 1.350 . S
C1002 C1001 1.434 . S
C1003 C1004 1.369 . S
C1003 C1005 1.419 . S
C1003 H1007 0.930 . S
C1004 C1003 1.369 . S
C1004 C1013 1.429 . S
C1005 C1003 1.419 . S
C1005 C1006 1.363 . S
C1005 H1008 0.929 . S
C1006 C1005 1.363 . S
C1006 C1012 1.428 . S
H1007 C1003 0.930 . S
H1008 C1005 0.929 . S
S1009 N1010 1.613 . S
S1009 N1011 1.610 . S
N1010 S1009 1.613 . S
N1010 C1013 1.350 . S
N1011 S1009 1.610 . S
N1011 C1012 1.351 . S
C1012 C1006 1.428 . S
C1012 N1011 1.351 . S
C1012 C1013 1.434 . S
C1013 C1004 1.429 . S
C1013 N1010 1.350 . S
C1013 C1012 1.434 . S
C1014 C1015 1.369 . S
C1014 C1016 1.419 . S
C1014 H1018 0.930 . S
C1015 C1014 1.369 . S
C1015 C1024 1.429 . S
C1016 C1014 1.419 . S
C1016 C1017 1.363 . S
C1016 H1019 0.929 . S
C1017 C1016 1.363 . S
C1017 C1023 1.428 . S
H1018 C1014 0.930 . S
H1019 C1016 0.929 . S
S1020 N1021 1.613 . S
S1020 N1022 1.610 . S
N1021 S1020 1.613 . S
N1021 C1024 1.350 . S
N1022 S1020 1.610 . S
N1022 C1023 1.351 . S
C1023 C1017 1.428 . S
C1023 N1022 1.351 . S
C1023 C1024 1.434 . S
C1024 C1015 1.429 . S
C1024 N1021 1.350 . S
C1024 C1023 1.434 . S
C1025 C1026 1.369 . S
C1025 C1027 1.419 . S
C1025 H1029 0.930 . S
C1026 C1025 1.369 . S
C1026 C1035 1.429 . S
C1027 C1025 1.419 . S
C1027 C1028 1.363 . S
C1027 H1030 0.929 . S
C1028 C1027 1.363 . S
C1028 C1034 1.428 . S
H1029 C1025 0.930 . S
H1030 C1027 0.929 . S
S1031 N1032 1.613 . S
S1031 N1033 1.610 . S
N1032 S1031 1.613 . S
N1032 C1035 1.350 . S
N1033 S1031 1.610 . S
N1033 C1034 1.351 . S
C1034 C1028 1.428 . S
C1034 N1033 1.351 . S
C1034 C1035 1.434 . S
C1035 C1026 1.429 . S
C1035 N1032 1.350 . S
C1035 C1034 1.434 . S
C775 C99 1.051 . S
C773 C5 1.678 . S
C786 C231 1.254 . S
C784 C16 1.304 . S
C797 C117 1.751 . S
C795 C30 1.920 . S
C808 C213 0.915 . S
C806 C40 1.645 . S
C819 C345 1.093 . S
C817 C8 1.647 . S
C830 C459 1.126 . S
C828 C18 1.376 . S
C839 C29 1.782 . S
C841 C599 1.439 . S
C852 C713 1.360 . S
C850 C38 1.422 . S
C863 C327 1.222 1_565 S
C861 C19 1.554 . S
C872 C27 1.628 . S
C874 C441 1.130 . S
C885 C545 1.282 . S
C883 C41 1.559 . S
C896 C659 1.128 . S
C894 C7 1.547 . S
C905 C52 1.724 . S
C907 C257 1.077 . S
C918 C89 1.525 . S
C916 C62 1.801 . S
C927 C74 1.381 . S
C929 C203 1.168 . S
C938 C82 1.344 . S
C940 C143 1.046 . S
C951 C555 1.335 . S
C949 C51 1.798 . S
C962 C669 1.693 . S
C960 C60 1.568 . S
C973 C317 0.991 . S
C971 C71 1.193 . S
C982 C84 1.376 . S
C984 C431 1.015 . S
C995 C573 1.350 . S
C993 C63 1.661 . S
C1006 C687 1.180 . S
C1004 C73 1.607 . S
C1017 C371 1.419 . S
C1015 C85 1.657 . S
C1026 C49 1.375 . S
C1028 C485 1.375 . S
