# Generated by pormake.
# Topology zzz, (3,6)-cn, num edge types: 1
# Building blocks:
#     Node 0, Type 0, BuildingBlock: KAKCAD_clean_linker_0, # of connection points: 3
#     Node 1, Type 0, BuildingBlock: KAKCAD_clean_linker_0, # of connection points: 3
#     Node 2, Type 0, BuildingBlock: KAKCAD_clean_linker_0, # of connection points: 3
#     Node 3, Type 0, BuildingBlock: KAKCAD_clean_linker_0, # of connection points: 3
#     Node 4, Type 0, BuildingBlock: KAKCAD_clean_linker_0, # of connection points: 3
#     Node 5, Type 0, BuildingBlock: KAKCAD_clean_linker_0, # of connection points: 3
#     Node 6, Type 0, BuildingBlock: KAKCAD_clean_linker_0, # of connection points: 3
#     Node 7, Type 0, BuildingBlock: KAKCAD_clean_linker_0, # of connection points: 3
#     Node 8, Type 1, BuildingBlock: BETGAK_clean_sbu_0, # of connection points: 6
#     Node 9, Type 1, BuildingBlock: BETGAK_clean_sbu_0, # of connection points: 6
#     Node 10, Type 1, BuildingBlock: BETGAK_clean_sbu_0, # of connection points: 6
#     Node 11, Type 1, BuildingBlock: BETGAK_clean_sbu_0, # of connection points: 6
#     Edge 12, Type (0, 1), BuildingBlock: XIVTED_clean_linker_0, # of connection points: 2
#     Edge 13, Type (0, 1), BuildingBlock: XIVTED_clean_linker_0, # of connection points: 2
#     Edge 14, Type (0, 1), BuildingBlock: XIVTED_clean_linker_0, # of connection points: 2
#     Edge 15, Type (0, 1), BuildingBlock: XIVTED_clean_linker_0, # of connection points: 2
#     Edge 16, Type (0, 1), BuildingBlock: XIVTED_clean_linker_0, # of connection points: 2
#     Edge 17, Type (0, 1), BuildingBlock: XIVTED_clean_linker_0, # of connection points: 2
#     Edge 18, Type (0, 1), BuildingBlock: XIVTED_clean_linker_0, # of connection points: 2
#     Edge 19, Type (0, 1), BuildingBlock: XIVTED_clean_linker_0, # of connection points: 2
#     Edge 20, Type (0, 1), BuildingBlock: XIVTED_clean_linker_0, # of connection points: 2
#     Edge 21, Type (0, 1), BuildingBlock: XIVTED_clean_linker_0, # of connection points: 2
#     Edge 22, Type (0, 1), BuildingBlock: XIVTED_clean_linker_0, # of connection points: 2
#     Edge 23, Type (0, 1), BuildingBlock: XIVTED_clean_linker_0, # of connection points: 2
#     Edge 24, Type (0, 1), BuildingBlock: XIVTED_clean_linker_0, # of connection points: 2
#     Edge 25, Type (0, 1), BuildingBlock: XIVTED_clean_linker_0, # of connection points: 2
#     Edge 26, Type (0, 1), BuildingBlock: XIVTED_clean_linker_0, # of connection points: 2
#     Edge 27, Type (0, 1), BuildingBlock: XIVTED_clean_linker_0, # of connection points: 2
#     Edge 28, Type (0, 1), BuildingBlock: XIVTED_clean_linker_0, # of connection points: 2
#     Edge 29, Type (0, 1), BuildingBlock: XIVTED_clean_linker_0, # of connection points: 2
#     Edge 30, Type (0, 1), BuildingBlock: XIVTED_clean_linker_0, # of connection points: 2
#     Edge 31, Type (0, 1), BuildingBlock: XIVTED_clean_linker_0, # of connection points: 2
#     Edge 32, Type (0, 1), BuildingBlock: XIVTED_clean_linker_0, # of connection points: 2
#     Edge 33, Type (0, 1), BuildingBlock: XIVTED_clean_linker_0, # of connection points: 2
#     Edge 34, Type (0, 1), BuildingBlock: XIVTED_clean_linker_0, # of connection points: 2
#     Edge 35, Type (0, 1), BuildingBlock: XIVTED_clean_linker_0, # of connection points: 2
# Relax obj value: 0.449
# Max RMSD: 0.269
# Mean RMSD: 0.253
data_MOF--net-zzz--node1-BETGAK_clean_sbu_0--node2-KAKCAD_clean_linker_0--edge1-XIVTED_clean_linker_0
_symmetry_space_group_name_H-M    P1
_symmetry_Int_Tables_number       1
_symmetry_cell_setting            triclinic
loop_
_symmetry_equiv_pos_as_xyz
'x, y, z'
_cell_length_a     59.568318
_cell_length_b     59.552448
_cell_length_c     18.342406
_cell_angle_alpha  89.684628
_cell_angle_beta   89.928813
_cell_angle_gamma 90.150192
loop_
_atom_site_label
_atom_site_type_symbol
_atom_site_fract_x
_atom_site_fract_y
_atom_site_fract_z
_atom_type_partial_charge
C0 C 0.75618 0.44179 0.09226 0.0
C1 C 0.77601 0.43017 0.1094 0.0
C2 C 0.74402 0.45252 0.14687 0.0
C3 C 0.75094 0.45109 0.22017 0.0
C4 C 0.76811 0.43585 0.2381 0.0
C5 C 0.78074 0.42572 0.18323 0.0
C6 C 0.74339 0.46828 0.27378 0.0
C7 C 0.72228 0.47837 0.26742 0.0
C8 C 0.71714 0.49821 0.3049 0.0
C9 C 0.73308 0.50754 0.35308 0.0
C10 C 0.75371 0.49646 0.36471 0.0
C11 C 0.75871 0.4772 0.32409 0.0
C12 C 0.77123 0.50473 0.41571 0.0
C13 C 0.78248 0.52512 0.40281 0.0
C14 C 0.77983 0.48992 0.46854 0.0
C15 C 0.79995 0.49466 0.50451 0.0
C16 C 0.81212 0.51438 0.48863 0.0
C17 C 0.69576 0.50945 0.28538 0.0
C18 C 0.69615 0.52869 0.24072 0.0
C19 C 0.6756 0.49735 0.29254 0.0
C20 C 0.65697 0.50286 0.24983 0.0
C21 C 0.6581 0.52061 0.19911 0.0
C22 C 0.67741 0.53429 0.19799 0.0
C23 C 0.80275 0.5299 0.43888 0.0
H24 H 0.75142 0.44468 0.03603 0.0
H25 H 0.7307 0.46371 0.13006 0.0
H26 H 0.77319 0.43334 0.29421 0.0
H27 H 0.79558 0.41649 0.19915 0.0
H28 H 0.71008 0.47152 0.22976 0.0
H29 H 0.77535 0.47003 0.32901 0.0
H30 H 0.72938 0.52298 0.38158 0.0
H31 H 0.77638 0.53668 0.3616 0.0
H32 H 0.77163 0.47395 0.47885 0.0
H33 H 0.80659 0.48212 0.54152 0.0
H34 H 0.71161 0.53805 0.23324 0.0
H35 H 0.67495 0.48232 0.32606 0.0
H36 H 0.81142 0.54542 0.42598 0.0
H37 H 0.6788 0.54802 0.15927 0.0
H38 H 0.64223 0.49218 0.25254 0.0
C39 C 0.09421 0.76717 0.10628 0.0
C40 C 0.10553 0.78614 0.13347 0.0
C41 C 0.08113 0.75372 0.15241 0.0
C42 C 0.07971 0.75843 0.22735 0.0
C43 C 0.09373 0.77526 0.25588 0.0
C44 C 0.10619 0.78917 0.20953 0.0
C45 C 0.06154 0.74827 0.27298 0.0
C46 C 0.05341 0.72656 0.25953 0.0
C47 C 0.03395 0.71848 0.29437 0.0
C48 C 0.02274 0.73212 0.34546 0.0
C49 C 0.03148 0.7535 0.36234 0.0
C50 C 0.05054 0.7614 0.32528 0.0
C51 C 0.02112 0.7688 0.41627 0.0
C52 C 1.00143 0.78056 0.39903 0.0
C53 C 0.03391 0.77574 0.47636 0.0
C54 C 0.02805 0.79496 0.51543 0.0
C55 C 1.00927 0.80785 0.49513 0.0
C56 C 0.02545 0.69613 0.2723 0.0
C57 C 1.00764 0.69452 0.22257 0.0
C58 C 0.03843 0.677 0.28694 0.0
C59 C 0.03468 0.65705 0.24887 0.0
C60 C 0.01811 0.65588 0.19428 0.0
C61 C 1.00397 0.67457 0.1839 0.0
C62 C 0.99554 0.7999 0.43813 0.0
H63 H 0.09409 0.76355 0.04852 0.0
H64 H 0.07087 0.74077 0.12797 0.0
H65 H 0.09392 0.77877 0.31373 0.0
H66 H 0.11478 0.80333 0.23354 0.0
H67 H 0.06181 0.71602 0.22004 0.0
H68 H 0.0561 0.77844 0.33536 0.0
H69 H 1.00764 0.72609 0.37222 0.0
H70 H 0.99151 0.77578 0.35212 0.0
H71 H 0.04941 0.76719 0.48982 0.0
H72 H 0.03922 0.80054 0.55822 0.0
H73 H 0.99771 0.7092 0.20935 0.0
H74 H 0.05242 0.67793 0.32451 0.0
H75 H 0.98075 0.80915 0.42162 0.0
H76 H 0.99116 0.67439 0.14209 0.0
H77 H 0.04559 0.64289 0.25956 0.0
C78 C 0.77054 0.08325 0.0971 0.0
C79 C 0.75144 0.09575 0.11597 0.0
C80 C 0.78453 0.07462 0.15129 0.0
C81 C 0.77993 0.07878 0.22524 0.0
C82 C 0.7632 0.0945 0.24269 0.0
C83 C 0.74893 0.10278 0.18857 0.0
C84 C 0.78908 0.06348 0.28227 0.0
C85 C 0.81061 0.05434 0.27572 0.0
C86 C 0.81728 0.03599 0.31881 0.0
C87 C 0.80232 0.02698 0.37125 0.0
C88 C 0.78108 0.03698 0.38148 0.0
C89 C 0.77474 0.05503 0.33663 0.0
C90 C 0.76404 0.02843 0.43412 0.0
C91 C 0.75363 1.00752 0.42346 0.0
C92 C 0.7545 0.04342 0.48419 0.0
C93 C 0.73419 0.03837 0.51899 0.0
C94 C 0.72277 0.01816 0.50458 0.0
C95 C 0.83929 0.02583 0.30155 0.0
C96 C 0.84033 1.00833 0.2507 0.0
C97 C 0.85901 0.03768 0.31825 0.0
C98 C 0.87897 0.03335 0.28054 0.0
C99 C 0.87955 0.01731 0.22437 0.0
C100 C 0.86027 1.00407 0.21253 0.0
C101 C 0.7332 1.00243 0.45835 0.0
H102 H 0.77332 0.07814 0.04122 0.0
H103 H 0.79738 0.06281 0.13526 0.0
H104 H 0.75975 0.09873 0.29895 0.0
H105 H 0.73457 0.11263 0.20511 0.0
H106 H 0.82195 0.06078 0.23422 0.0
H107 H 0.75778 0.06144 0.34113 0.0
H108 H 0.80714 1.01249 0.40354 0.0
H109 H 0.76043 0.99581 0.38429 0.0
H110 H 0.76202 0.0598 0.49256 0.0
H111 H 0.72676 0.05107 0.55336 0.0
H112 H 0.82521 0.99934 0.23563 0.0
H113 H 0.85852 0.05151 0.35636 0.0
H114 H 0.72515 0.98652 0.44682 0.0
H115 H 0.85997 0.99169 0.16952 0.0
H116 H 0.89358 0.04356 0.29231 0.0
C117 C 0.49806 0.73738 0.47275 0.0
C118 C 0.51951 0.72786 0.48162 0.0
C119 C 0.4952 0.75734 0.43313 0.0
C120 C 0.51368 0.76852 0.40184 0.0
C121 C 0.53527 0.75988 0.41415 0.0
C122 C 0.53816 0.73977 0.45358 0.0
C123 C 0.50971 0.78534 0.34301 0.0
C124 C 0.51596 0.80827 0.34803 0.0
C125 C 0.5114 0.82304 0.28911 0.0
C126 C 0.50099 0.81476 0.22629 0.0
C127 C 0.4957 0.7921 0.22007 0.0
C128 C 0.49985 0.77752 0.27844 0.0
C129 C 0.48869 0.78324 0.14906 0.0
C130 C 0.46855 0.79006 0.11603 0.0
C131 C 0.50295 0.76841 0.1127 0.0
C132 C 0.49706 0.76013 0.04471 0.0
C133 C 0.47662 0.76629 0.01208 0.0
C134 C 0.51814 0.84698 0.28633 0.0
C135 C 0.50166 0.86341 0.29781 0.0
C136 C 0.5373 0.85278 0.24556 0.0
C137 C 0.53869 0.8736 0.20978 0.0
C138 C 0.52092 0.88909 0.2141 0.0
C139 C 0.5031 0.88431 0.2625 0.0
C140 C 0.46235 0.78132 0.0482 0.0
H141 H 0.48324 0.72871 0.49249 0.0
H142 H 0.47833 0.76336 0.42308 0.0
H143 H 0.54975 0.76789 0.38933 0.0
H144 H 0.55497 0.73317 0.46001 0.0
H145 H 0.52418 0.81447 0.3966 0.0
H146 H 0.49587 0.75982 0.27284 0.0
H147 H 0.49809 0.82588 0.18014 0.0
H148 H 0.45747 0.80169 0.14342 0.0
H149 H 0.51869 0.76321 0.13705 0.0
H150 H 0.50813 0.74812 0.01898 0.0
H151 H 0.48651 0.85924 0.32775 0.0
H152 H 0.54996 0.84023 0.23429 0.0
H153 H 0.44638 0.78601 0.02448 0.0
H154 H 0.48936 0.89602 0.26877 0.0
H155 H 0.55266 0.87652 0.17307 0.0
C156 C 0.24039 0.61469 0.20719 0.0
C157 C 0.23471 0.61157 0.28113 0.0
C158 C 0.25549 0.6002 0.17309 0.0
C159 C 0.26562 0.58275 0.21275 0.0
C160 C 0.26211 0.58135 0.28822 0.0
C161 C 0.24672 0.59552 0.32206 0.0
C162 C 0.27613 0.56368 0.17461 0.0
C163 C 0.29678 0.55502 0.19743 0.0
C164 C 0.30492 0.53462 0.16952 0.0
C165 C 0.29173 0.52259 0.11885 0.0
C166 C 0.27103 0.53143 0.09521 0.0
C167 C 0.26364 0.55204 0.1225 0.0
C168 C 0.25537 0.51901 0.04759 0.0
C169 C 0.25574 0.52254 0.97193 0.0
C170 C 0.23658 0.50858 0.07926 0.0
C171 C 0.21786 0.5031 0.03693 0.0
C172 C 0.21746 0.50794 0.96164 0.0
C173 C 0.32653 0.52584 0.19835 0.0
C174 C 0.34509 0.54032 0.20388 0.0
C175 C 0.32792 0.5043 0.22962 0.0
C176 C 0.34697 0.49797 0.26973 0.0
C177 C 0.36505 0.51303 0.27891 0.0
C178 C 0.36407 0.53403 0.24357 0.0
C179 C 0.23704 0.51691 0.92924 0.0
H180 H 0.23203 0.6273 0.17437 0.0
H181 H 0.25817 0.60172 0.11483 0.0
H182 H 0.26964 0.56794 0.3199 0.0
H183 H 0.24284 0.59237 0.37885 0.0
H184 H 0.30615 0.56382 0.23918 0.0
H185 H 0.24728 0.55833 0.10638 0.0
H186 H 0.29737 0.50649 0.0987 0.0
H187 H 0.26988 0.531 0.9466 0.0
H188 H 0.2357 0.50625 0.13784 0.0
H189 H 0.20315 0.49655 0.06451 0.0
H190 H 0.34452 0.55701 0.18012 0.0
H191 H 0.3138 0.49284 0.22659 0.0
H192 H 0.2376 0.52051 0.87135 0.0
H193 H 0.37744 0.54621 0.24977 0.0
H194 H 0.34726 0.48154 0.29527 0.0
C195 C 0.91522 0.23532 0.20749 0.0
C196 C 0.91883 0.22942 0.28095 0.0
C197 C 0.92947 0.25062 0.17245 0.0
C198 C 0.94726 0.26061 0.2106 0.0
C199 C 0.94914 0.25687 0.2859 0.0
C200 C 0.93512 0.24135 0.32075 0.0
C201 C 0.96615 0.27115 0.17059 0.0
C202 C 0.97554 0.29147 0.19344 0.0
C203 C 0.99562 0.29962 0.16241 0.0
C204 C 1.00672 0.28665 0.10902 0.0
C205 C 0.99701 0.26641 0.08451 0.0
C206 C 0.9767 0.25906 0.11517 0.0
C207 C 1.008 0.2514 0.03091 0.0
C208 C 0.9957 0.24396 0.97033 0.0
C209 C 0.02823 0.24058 0.04826 0.0
C210 C 0.03504 0.22154 1.00926 0.0
C211 C 0.02176 0.21299 0.95209 0.0
C212 C 1.00476 0.32134 0.18918 0.0
C213 C 0.99037 0.33987 0.1962 0.0
C214 C 0.02674 0.323 0.21626 0.0
C215 C 0.03368 0.34232 0.25368 0.0
C216 C 0.01881 0.36041 0.26423 0.0
C217 C 0.99728 0.35913 0.23311 0.0
C218 C 1.00248 0.22504 0.93136 0.0
H219 H 0.90244 0.22692 0.17567 0.0
H220 H 0.92753 0.2535 0.11442 0.0
H221 H 0.9628 0.2643 0.31649 0.0
H222 H 0.93857 0.23725 0.3772 0.0
H223 H 0.96747 0.30067 0.23706 0.0
H224 H 0.96979 0.24297 0.09895 0.0
H225 H 0.0225 0.2924 0.08606 0.0
H226 H 0.97991 0.25187 0.95632 0.0
H227 H 0.03788 0.2458 0.09526 0.0
H228 H 0.0502 0.21295 0.026 0.0
H229 H 0.97335 0.3391 0.17557 0.0
H230 H 0.03815 0.30894 0.21193 0.0
H231 H 0.99166 0.219 0.8883 0.0
H232 H 0.98525 0.37252 0.24053 0.0
H233 H 0.05049 0.34284 0.27603 0.0
C234 C 0.29779 0.91018 0.19053 0.0
C235 C 0.30325 0.91369 0.26428 0.0
C236 C 0.28214 0.92393 0.15549 0.0
C237 C 0.27127 0.94107 0.19394 0.0
C238 C 0.27489 0.94306 0.26912 0.0
C239 C 0.29081 0.92961 0.3039 0.0
C240 C 0.25918 0.95903 0.15447 0.0
C241 C 0.23794 0.96612 0.1771 0.0
C242 C 0.2276 0.98502 0.1451 0.0
C243 C 0.23943 0.99737 0.09108 0.0
C244 C 0.26088 0.9902 0.06823 0.0
C245 C 0.27031 0.97091 0.09932 0.0
C246 C 0.27513 1.003 0.01638 0.0
C247 C 0.276 0.99665 0.94288 0.0
C248 C 0.29225 0.01672 0.04415 0.0
C249 C 0.31068 0.02273 1.00076 0.0
C250 C 0.31247 0.01516 0.92829 0.0
C251 C 0.20487 0.99166 0.17174 0.0
C252 C 0.18871 0.97496 0.18603 0.0
C253 C 0.19991 1.01394 0.19084 0.0
C254 C 0.17981 0.01907 0.22742 0.0
C255 C 0.16424 1.00203 0.24581 0.0
C256 C 0.16886 0.97999 0.22289 0.0
C257 C 0.29437 1.00282 0.89909 0.0
H258 H 0.30654 0.89768 0.15869 0.0
H259 H 0.27939 0.92196 0.0975 0.0
H260 H 0.26681 0.95628 0.29981 0.0
H261 H 0.29457 0.93308 0.36044 0.0
H262 H 0.22968 0.95712 0.22117 0.0
H263 H 0.28709 0.96584 0.08319 0.0
H264 H 0.23211 1.01233 0.06722 0.0
H265 H 0.26325 0.98563 0.92073 0.0
H266 H 0.29227 0.02126 0.10128 0.0
H267 H 0.32425 0.03196 0.02602 0.0
H268 H 0.19183 0.95766 0.17116 0.0
H269 H 0.21199 0.02721 0.18071 0.0
H270 H 0.29482 0.99704 0.84326 0.0
H271 H 0.1577 0.96621 0.23637 0.0
H272 H 0.17676 0.03632 0.2427 0.0
C273 C 0.50532 0.30321 0.9337 0.0
C274 C 0.52299 0.31872 0.94303 0.0
C275 C 0.5049 0.28288 0.97344 0.0
C276 C 0.52224 0.27768 0.02271 0.0
C277 C 0.54071 0.29236 0.0271 0.0
C278 C 0.54106 0.31259 0.98805 0.0
C279 C 0.51933 0.26001 0.08007 0.0
C280 C 0.51527 0.23704 0.06471 0.0
C281 C 0.51291 0.22149 0.12292 0.0
C282 C 0.51402 0.22902 0.19499 0.0
C283 C 0.5178 0.25153 0.21059 0.0
C284 C 0.52056 0.26689 0.15323 0.0
C285 C 0.51834 0.25911 0.28707 0.0
C286 C 0.50111 0.25295 0.33572 0.0
C287 C 0.53549 0.27344 0.3108 0.0
C288 C 0.53464 0.28271 0.38027 0.0
C289 C 0.51648 0.27799 0.42712 0.0
C290 C 0.50964 0.19701 0.11422 0.0
C291 C 0.48791 0.18827 0.12373 0.0
C292 C 0.52806 0.18295 0.12821 0.0
C293 C 0.52492 0.16175 0.16025 0.0
C294 C 0.50322 0.15416 0.17877 0.0
C295 C 0.48472 0.16703 0.15543 0.0
C296 C 0.50013 0.2624 0.40517 0.0
H297 H 0.49113 0.30743 0.89943 0.0
H298 H 0.49033 0.27204 0.96953 0.0
H299 H 0.55435 0.2888 0.06442 0.0
H300 H 0.55513 0.32391 0.99548 0.0
H301 H 0.51435 0.23135 1.00881 0.0
H302 H 0.5231 0.2845 0.16568 0.0
H303 H 0.51218 0.21708 0.23958 0.0
H304 H 0.48772 0.24183 0.31861 0.0
H305 H 0.54913 0.27813 0.2746 0.0
H306 H 0.54733 0.29493 0.39495 0.0
H307 H 0.47342 0.19889 0.11475 0.0
H308 H 0.545 0.18947 0.12307 0.0
H309 H 0.48596 0.25851 0.44011 0.0
H310 H 0.46775 0.1615 0.16699 0.0
H311 H 0.53962 0.15245 0.17724 0.0
La312 La 0.03286 1.00332 0.77394 0.0
La313 La 1.00095 0.01885 0.66408 0.0
C314 C 0.05721 0.99397 0.88205 0.0
C315 C 0.07207 0.97491 0.89795 0.0
C316 C 0.08172 0.96262 0.84091 0.0
C317 C 0.09394 0.94317 0.85573 0.0
C318 C 0.09657 0.93554 0.92785 0.0
C319 C 0.08767 0.94845 0.98507 0.0
C320 C 0.07548 0.96798 0.97014 0.0
C321 C 0.0491 1.00373 0.63971 0.0
C322 C 1.01004 0.96632 0.68347 0.0
C323 C 0.97686 0.02746 0.55461 0.0
C324 C 0.96245 0.0463 0.53321 0.0
C325 C 0.9449 0.04286 0.48372 0.0
C326 C 0.93124 0.06078 0.46231 0.0
C327 C 0.93501 0.08247 0.48997 0.0
C328 C 0.95234 0.08563 0.54111 0.0
C329 C 0.96585 0.06769 0.56279 0.0
C330 C 0.98469 0.01876 0.79817 0.0
C331 C 0.02365 0.05582 0.75476 0.0
O332 O 0.06354 1.00709 0.82842 0.0
O333 O 0.03579 0.98916 0.87876 0.0
O334 O 0.05346 0.98858 0.68817 0.0
O335 O 0.03679 0.01857 0.66763 0.0
O336 O 0.01942 0.97047 0.74711 0.0
O337 O 1.00435 0.98292 0.639 0.0
O338 O 0.96991 0.01586 0.61095 0.0
O339 O 0.99844 0.03163 0.55757 0.0
O340 O 0.98019 0.03372 0.74903 0.0
O341 O 0.99704 1.00384 0.77069 0.0
O342 O 1.0145 0.05164 0.69076 0.0
O343 O 0.0292 0.03923 0.7996 0.0
H344 H 0.07932 0.96767 0.78471 0.0
H345 H 0.10078 0.93376 0.81055 0.0
H346 H 0.08911 0.94288 0.04116 0.0
H347 H 0.06808 0.97723 0.01479 0.0
H348 H 0.94187 0.02634 0.4612 0.0
H349 H 0.91789 0.05767 0.42362 0.0
H350 H 0.95602 0.10212 0.56267 0.0
H351 H 0.97918 0.07061 0.60175 0.0
La352 La 0.51821 0.03548 0.73622 0.0
La353 La 0.50867 0.99955 0.63085 0.0
C354 C 0.53242 0.06023 0.83709 0.0
C355 C 0.5545 0.06356 0.87035 0.0
C356 C 0.55929 0.08356 0.907 0.0
C357 C 0.5811 0.08799 0.9312 0.0
C358 C 0.59851 0.07257 0.91801 0.0
C359 C 0.59338 0.05234 0.8822 0.0
C360 C 0.57156 0.04779 0.85938 0.0
C361 C 0.50275 0.04974 0.60864 0.0
C362 C 0.55931 1.01484 0.64942 0.0
C363 C 0.50274 0.97418 0.52344 0.0
C364 C 0.48595 0.95726 0.50306 0.0
C365 C 0.47432 0.94484 0.55636 0.0
C366 C 0.45705 0.93022 0.53623 0.0
C367 C 0.45091 0.92798 0.46254 0.0
C368 C 0.46322 0.93992 0.40929 0.0
C369 C 0.48059 0.95438 0.42945 0.0
C370 C 0.50845 0.98601 0.76838 0.0
C371 C 0.46851 0.02002 0.719 0.0
O372 O 0.53122 0.06652 0.76883 0.0
O373 O 0.52286 0.04066 0.84839 0.0
O374 O 0.49719 0.05803 0.67113 0.0
O375 O 0.51676 0.03425 0.61904 0.0
O376 O 0.55262 0.02882 0.70067 0.0
O377 O 0.54488 1.00215 0.61364 0.0
O378 O 0.51565 0.96912 0.5789 0.0
O379 O 0.49542 0.99492 0.52603 0.0
O380 O 0.49513 0.97858 0.71841 0.0
O381 O 0.52207 0.99979 0.74002 0.0
O382 O 0.47457 1.01127 0.65564 0.0
O383 O 0.48364 0.02765 0.76536 0.0
H384 H 0.54627 0.09593 0.91568 0.0
H385 H 0.58429 0.10351 0.95984 0.0
H386 H 0.60631 0.0402 0.86982 0.0
H387 H 0.56815 0.0322 0.83142 0.0
H388 H 0.47821 0.94684 0.61363 0.0
H389 H 0.44817 0.92108 0.5786 0.0
H390 H 0.45878 0.939 0.35216 0.0
H391 H 0.48935 0.96391 0.38766 0.0
La392 La 0.50562 0.52937 0.77615 0.0
La393 La 0.53423 0.51565 0.63992 0.0
C394 C 0.49139 0.55091 0.88345 0.0
C395 C 0.48977 0.57537 0.89103 0.0
C396 C 0.46987 0.58496 0.91682 0.0
C397 C 0.46604 0.60796 0.90798 0.0
C398 C 0.48185 0.6217 0.8716 0.0
C399 C 0.50228 0.61205 0.84945 0.0
C400 C 0.50627 0.58924 0.85975 0.0
C401 C 0.48333 0.5129 0.66474 0.0
C402 C 0.52415 0.5667 0.65824 0.0
C403 C 0.54126 0.49671 0.5212 0.0
C404 C 0.53381 0.47367 0.50498 0.0
C405 C 0.54991 0.45693 0.49355 0.0
C406 C 0.54422 0.43434 0.50311 0.0
C407 C 0.52234 0.42816 0.52442 0.0
C408 C 0.5058 0.44482 0.52928 0.0
C409 C 0.51147 0.46733 0.51948 0.0
C410 C 0.55997 0.524 0.75517 0.0
C411 C 0.51919 0.4794 0.76145 0.0
O412 O 0.47823 0.54265 0.83311 0.0
O413 O 0.51172 0.54254 0.88023 0.0
O414 O 0.47755 0.50983 0.73245 0.0
O415 O 0.50037 0.52551 0.66231 0.0
O416 O 0.51228 0.5614 0.71772 0.0
O417 O 0.53482 0.55151 0.61849 0.0
O418 O 0.55641 0.49789 0.57269 0.0
O419 O 0.52538 0.51167 0.52987 0.0
O420 O 0.56775 0.51806 0.692 0.0
O421 O 0.53913 0.52535 0.74797 0.0
O422 O 0.52329 0.48377 0.69143 0.0
O423 O 0.51473 0.49552 0.80883 0.0
H424 H 0.4569 0.57451 0.94096 0.0
H425 H 0.45048 0.61478 0.92864 0.0
H426 H 0.51491 0.62174 0.82073 0.0
H427 H 0.52181 0.58229 0.83922 0.0
H428 H 0.56724 0.46139 0.48264 0.0
H429 H 0.55718 0.4218 0.49655 0.0
H430 H 0.48879 0.4407 0.54552 0.0
H431 H 0.49864 0.47977 0.52905 0.0
La432 La 1.01118 0.49733 0.76691 0.0
La433 La 0.02422 0.52869 0.64954 0.0
C434 C 0.99429 0.47678 0.87435 0.0
C435 C 0.97134 0.4724 0.89937 0.0
C436 C 0.96687 0.45329 0.94175 0.0
C437 C 0.94473 0.4468 0.95594 0.0
C438 C 0.92668 0.45912 0.92662 0.0
C439 C 0.9314 0.47868 0.88582 0.0
C440 C 0.95351 0.48539 0.87319 0.0
C441 C 0.0279 0.47785 0.64937 0.0
C442 C 0.97274 0.51563 0.66308 0.0
C443 C 0.03321 0.55028 0.53502 0.0
C444 C 0.05084 0.5663 0.51372 0.0
C445 C 0.05728 0.56797 0.44053 0.0
C446 C 0.07499 0.58207 0.42002 0.0
C447 C 0.08655 0.59483 0.4725 0.0
C448 C 0.07954 0.59356 0.54569 0.0
C449 C 0.06191 0.57935 0.56616 0.0
C450 C 0.02347 0.54698 0.78031 0.0
C451 C 0.06178 0.50934 0.7516 0.0
O452 O 0.99919 0.46734 0.81231 0.0
O453 O 1.00145 0.49759 0.87726 0.0
O454 O 0.03209 0.47175 0.71575 0.0
O455 O 1.01454 0.49423 0.65049 0.0
O456 O 0.97794 0.5028 0.71955 0.0
O457 O 0.98825 0.52704 0.62694 0.0
O458 O 0.01908 0.55724 0.58473 0.0
O459 O 0.03992 0.52962 0.54699 0.0
O460 O 0.03789 0.55176 0.72996 0.0
O461 O 1.00939 0.53307 0.75578 0.0
O462 O 0.05713 0.51592 0.68411 0.0
O463 O 0.04559 0.50459 0.7986 0.0
H464 H 0.9805 0.44303 0.96221 0.0
H465 H 0.94183 0.43201 0.98924 0.0
H466 H 0.91811 0.48852 0.86144 0.0
H467 H 0.95665 0.50032 0.84085 0.0
H468 H 0.04897 0.55793 0.39944 0.0
H469 H 0.08017 0.58224 0.36342 0.0
H470 H 0.0879 0.6033 0.58737 0.0
H471 H 0.05718 0.57829 0.6231 0.0
H472 H 0.15959 0.03301 0.35698 0.0
H473 H 0.06072 0.97034 0.54819 0.0
H474 H 0.12264 0.98128 0.24389 0.0
H475 H 0.0675 0.04175 0.57785 0.0
H476 H 0.086 0.97267 0.44281 0.0
H477 H 0.12851 0.03616 0.4437 0.0
C478 C 0.1449 0.02256 0.34921 0.0
C479 C 0.14415 1.00653 0.29306 0.0
C480 C 0.08173 0.98789 0.47171 0.0
C481 C 0.10878 1.00969 0.3942 0.0
C482 C 0.06736 0.98656 0.53176 0.0
C483 C 0.06199 1.00589 0.57121 0.0
C484 C 0.09144 1.0086 0.45243 0.0
C485 C 0.07112 0.02651 0.54821 0.0
C486 C 0.12719 0.02434 0.39923 0.0
C487 C 0.12456 0.99335 0.28731 0.0
N488 N 0.08579 0.02728 0.49102 0.0
N489 N 0.10793 0.99492 0.33791 0.0
H490 H 0.52703 0.11431 0.19044 0.0
H491 H 0.47418 0.08432 0.58086 0.0
H492 H 0.47302 0.15109 0.29131 0.0
H493 H 0.52454 0.04338 0.47794 0.0
H494 H 0.47188 0.10724 0.47028 0.0
H495 H 0.52493 0.08663 0.28977 0.0
C496 C 0.51456 0.11648 0.23282 0.0
C497 C 0.50019 0.1352 0.23198 0.0
C498 C 0.48333 0.09315 0.47136 0.0
C499 C 0.49776 0.1035 0.34633 0.0
C500 C 0.48462 0.08004 0.5346 0.0
C501 C 0.49967 0.06201 0.53879 0.0
C502 C 0.49734 0.0884 0.41165 0.0
C503 C 0.51274 0.05717 0.47704 0.0
C504 C 0.51335 0.10061 0.28952 0.0
C505 C 0.48426 0.13688 0.28841 0.0
N506 N 0.51145 0.07043 0.41628 0.0
N507 N 0.48364 0.12143 0.34325 0.0
H508 H 0.36346 0.49113 0.41146 0.0
H509 H 0.48595 0.53103 0.52766 0.0
H510 H 0.40988 0.52365 0.26369 0.0
H511 H 0.44533 0.48701 0.66101 0.0
H512 H 0.45889 0.52709 0.42864 0.0
H513 H 0.3936 0.4876 0.50099 0.0
C514 C 0.38005 0.49717 0.3971 0.0
C515 C 0.38396 0.50793 0.32982 0.0
C516 C 0.45598 0.51804 0.47915 0.0
C517 C 0.41854 0.50437 0.43331 0.0
C518 C 0.47153 0.52018 0.53565 0.0
C519 C 0.468 0.50916 0.60247 0.0
C520 C 0.43648 0.50508 0.48982 0.0
C521 C 0.44869 0.49579 0.6103 0.0
C522 C 0.39725 0.49529 0.44866 0.0
C523 C 0.40585 0.51568 0.31525 0.0
N524 N 0.43357 0.49427 0.55491 0.0
N525 N 0.42219 0.51397 0.36672 0.0
H526 H 1.00836 0.40523 0.24681 0.0
H527 H 0.05145 0.43871 0.64544 0.0
H528 H 0.04244 0.35964 0.3929 0.0
H529 H 1.01138 0.48244 0.51034 0.0
H530 H 0.05289 0.41154 0.54615 0.0
H531 H 1.0137 0.43537 0.33517 0.0
C532 C 0.01711 0.40155 0.29718 0.0
C533 C 0.02475 0.37969 0.31246 0.0
C534 C 0.04393 0.42714 0.53782 0.0
C535 C 0.03104 0.41432 0.414 0.0
C536 C 0.04314 0.44269 0.59449 0.0
C537 C 0.03109 0.46276 0.58633 0.0
C538 C 0.03254 0.43161 0.47229 0.0
C539 C 0.02076 0.4671 0.51901 0.0
C540 C 0.0202 0.41883 0.34757 0.0
C541 C 0.03637 0.37617 0.37818 0.0
N542 N 0.02155 0.45157 0.46478 0.0
N543 N 0.03897 0.39321 0.42662 0.0
H544 H 0.90352 0.05284 0.16954 0.0
H545 H 0.9778 0.98194 0.88796 0.0
H546 H 0.89914 0.98059 0.15716 0.0
H547 H 0.9644 0.05283 0.86899 0.0
H548 H 0.95462 0.98071 0.99959 0.0
H549 H 0.93188 0.05256 0.07412 0.0
C550 C 0.9088 0.03682 0.14791 0.0
C551 C 0.89881 0.01669 0.17195 0.0
C552 C 0.95693 0.99653 0.97113 0.0
C553 C 0.93123 0.01635 0.06041 0.0
C554 C 0.97021 0.99725 0.90778 0.0
C555 C 0.97284 0.01749 0.86907 0.0
C556 C 0.94661 0.01627 0.99623 0.0
C557 C 0.96265 0.03684 0.89686 0.0
C558 C 0.92488 0.03671 0.09258 0.0
C559 C 0.90616 0.99655 0.14001 0.0
N560 N 0.95002 0.03575 0.95849 0.0
N561 N 0.92186 0.99688 0.08572 0.0
H562 H 0.55462 0.91657 0.15809 0.0
H563 H 0.47617 0.96219 0.8377 0.0
H564 H 0.48333 0.9042 0.14346 0.0
H565 H 0.54385 0.98633 0.8663 0.0
H566 H 0.47881 0.94202 0.9532 0.0
H567 H 0.55154 0.94316 0.05575 0.0
C568 C 0.53829 0.91959 0.13418 0.0
C569 C 0.51922 0.90796 0.15995 0.0
C570 C 0.4931 0.95182 0.93492 0.0
C571 C 0.51564 0.93838 0.0423 0.0
C572 C 0.49159 0.96335 0.86875 0.0
C573 C 0.50986 0.97582 0.84215 0.0
C574 C 0.51319 0.9524 0.97495 0.0
C575 C 0.52938 0.97685 0.88492 0.0
C576 C 0.53655 0.93485 0.07581 0.0
C577 C 0.4985 0.91285 0.12682 0.0
N578 N 0.53066 0.96504 0.9489 0.0
N579 N 0.49735 0.92741 0.06964 0.0
H580 H 0.63577 0.55811 0.14663 0.0
H581 H 0.5949 0.49734 0.78879 0.0
H582 H 0.64247 0.48674 0.11465 0.0
H583 H 0.55524 0.55141 0.87541 0.0
H584 H 0.6172 0.49699 0.90052 0.0
H585 H 0.61009 0.55967 0.041 0.0
C586 C 0.63168 0.54279 0.11791 0.0
C587 C 0.6411 0.52223 0.13987 0.0
C588 C 0.60355 0.50888 0.89538 0.0
C589 C 0.6124 0.52401 0.01882 0.0
C590 C 0.5909 0.50915 0.83157 0.0
C591 C 0.57306 0.52422 0.8235 0.0
C592 C 0.59877 0.5242 0.95107 0.0
C593 C 0.56859 0.53923 0.88044 0.0
C594 C 0.61703 0.54369 0.05801 0.0
C595 C 0.63536 0.5029 0.10047 0.0
N596 N 0.58154 0.53902 0.94188 0.0
N597 N 0.62165 0.50431 0.04156 0.0
H598 H 0.98139 0.63462 0.13188 0.0
H599 H 0.05742 0.56839 0.84753 0.0
H600 H 0.05383 0.6334 0.13631 0.0
H601 H 0.98678 0.5541 0.87024 0.0
H602 H 0.05564 0.59227 0.95463 0.0
H603 H 0.982 0.60542 0.03754 0.0
C604 C 0.99739 0.62812 0.11366 0.0
C605 C 0.01759 0.63655 0.14256 0.0
C606 C 0.04049 0.58383 0.93694 0.0
C607 C 0.01837 0.60322 0.03442 0.0
C608 C 0.04151 0.57019 0.87562 0.0
C609 C 0.0222 0.55936 0.84988 0.0
C610 C 0.01989 0.5871 0.97265 0.0
C611 C 1.00205 0.56218 0.88855 0.0
C612 C 0.99771 0.61138 0.06005 0.0
C613 C 0.03779 0.62731 0.11695 0.0
N614 N 1.00133 0.57605 0.94763 0.0
N615 N 0.03764 0.61139 0.06424 0.0
H616 H 0.90542 0.2202 0.42245 0.0
H617 H 0.9211 0.09031 0.34963 0.0
H618 H 0.911 0.18988 0.2098 0.0
H619 H 0.92016 0.11964 0.56445 0.0
H620 H 0.90678 0.12532 0.29953 0.0
H621 H 0.90045 0.18279 0.4758 0.0
C622 C 0.90513 0.20579 0.38673 0.0
C623 C 0.90923 0.20827 0.31163 0.0
C624 C 0.90936 0.12403 0.35783 0.0
C625 C 0.9035 0.16544 0.37233 0.0
C626 C 0.91743 0.10392 0.38668 0.0
C627 C 0.92239 0.10213 0.4613 0.0
C628 C 0.90648 0.14263 0.40363 0.0
C629 C 0.9173 0.12048 0.50624 0.0
C630 C 0.90224 0.18443 0.41725 0.0
C631 C 0.908 0.18899 0.26793 0.0
N632 N 0.91002 0.1401 0.47654 0.0
N633 N 0.90569 0.16841 0.29908 0.0
H634 H 0.3114 0.90083 0.40695 0.0
H635 H 0.44355 0.90257 0.33962 0.0
H636 H 0.34312 0.90467 0.19517 0.0
H637 H 0.41106 0.92473 0.53719 0.0
H638 H 0.40722 0.88931 0.29485 0.0
H639 H 0.34836 0.89532 0.46205 0.0
C640 C 0.32598 0.9001 0.37177 0.0
C641 C 0.32406 0.90394 0.29632 0.0
C642 C 0.40822 0.89665 0.34866 0.0
C643 C 0.36628 0.89716 0.35909 0.0
C644 C 0.4289 0.90437 0.3741 0.0
C645 C 0.43034 0.91536 0.44154 0.0
C646 C 0.38888 0.89979 0.39113 0.0
C647 C 0.41088 0.91647 0.48481 0.0
C648 C 0.34705 0.89683 0.40333 0.0
C649 C 0.34356 0.90194 0.25348 0.0
N650 N 0.3909 0.90912 0.45837 0.0
N651 N 0.36386 0.89908 0.2856 0.0
H652 H 0.54648 0.29246 0.53064 0.0
H653 H 0.48362 0.40456 0.49719 0.0
H654 H 0.47729 0.29843 0.46444 0.0
H655 H 0.54851 0.39818 0.59979 0.0
H656 H 0.47691 0.36483 0.51889 0.0
H657 H 0.54341 0.3283 0.59373 0.0
C658 C 0.53041 0.30093 0.53168 0.0
C659 C 0.51242 0.293 0.4897 0.0
C660 C 0.4925 0.37213 0.53782 0.0
C661 C 0.50893 0.33412 0.55965 0.0
C662 C 0.49636 0.39489 0.52522 0.0
C663 C 0.51703 0.40456 0.54414 0.0
C664 C 0.50962 0.35881 0.56798 0.0
C665 C 0.53277 0.39118 0.58103 0.0
C666 C 0.52865 0.32144 0.56749 0.0
C667 C 0.49179 0.30421 0.49459 0.0
N668 N 0.52896 0.36887 0.59027 0.0
N669 N 0.49081 0.32462 0.52673 0.0
H670 H 0.22577 0.62453 0.42298 0.0
H671 H 0.09425 0.6195 0.3476 0.0
H672 H 0.19531 0.62083 0.20958 0.0
H673 H 0.12577 0.59932 0.54944 0.0
H674 H 0.13046 0.63377 0.3045 0.0
H675 H 0.18842 0.6294 0.47605 0.0
C676 C 0.21139 0.6252 0.387 0.0
C677 C 0.21379 0.6215 0.31173 0.0
C678 C 0.12929 0.62662 0.3588 0.0
C679 C 0.17112 0.6275 0.37219 0.0
C680 C 0.10868 0.61833 0.38328 0.0
C681 C 0.10704 0.60764 0.45155 0.0
C682 C 0.14838 0.62427 0.40293 0.0
C683 C 0.12617 0.6073 0.49633 0.0
C684 C 0.19009 0.62807 0.41743 0.0
C685 C 0.19453 0.62343 0.26783 0.0
N686 N 0.14612 0.61514 0.47076 0.0
N687 N 0.174 0.62588 0.29885 0.0
H688 H 0.08777 0.79782 1.00014 0.0
H689 H 0.12496 0.92262 0.03878 0.0
H690 H 0.13972 0.81751 0.15171 0.0
H691 H 0.08955 0.89694 0.8516 0.0
H692 H 0.13469 0.88407 0.0734 0.0
H693 H 0.09313 0.83262 0.93487 0.0
C694 C 0.1008 0.80904 0.01906 0.0
C695 C 0.11289 0.80464 0.08341 0.0
C696 C 0.12523 0.88694 0.02384 0.0
C697 C 0.1183 0.84555 1.00948 0.0
C698 C 0.11954 0.90892 1.00438 0.0
C699 C 0.10613 0.913 0.94282 0.0
C700 C 0.11716 0.86896 0.982 0.0
C701 C 0.09992 0.89466 0.89946 0.0
C702 C 0.10367 0.82922 0.98168 0.0
C703 C 0.12929 0.8204 0.1044 0.0
N704 N 0.10515 0.87346 0.92058 0.0
N705 N 0.13109 0.84041 0.06872 0.0
H706 H 0.7207 0.12992 0.09381 0.0
H707 H 0.63013 0.04294 0.96802 0.0
H708 H 0.73672 0.06231 0.02766 0.0
H709 H 0.62057 0.11344 0.92026 0.0
H710 H 0.66888 0.05075 0.99979 0.0
H711 H 0.68368 0.12578 0.0362 0.0
C712 C 0.71669 0.11447 0.0658 0.0
C713 C 0.73183 0.0964 0.06615 0.0
C714 C 0.65834 0.0645 0.9818 0.0
C715 C 0.68966 0.09149 1.00187 0.0
C716 C 0.63616 0.06005 0.9634 0.0
C717 C 0.62197 0.07749 0.94056 0.0
C718 C 0.66643 0.08662 0.979 0.0
C719 C 0.63075 0.09947 0.93837 0.0
C720 C 0.69561 0.11214 0.03304 0.0
C721 C 0.72581 0.0768 0.02854 0.0
N722 N 0.65243 0.10346 0.95786 0.0
N723 N 0.70507 0.07475 0.99921 0.0
H724 H 0.49985 0.76064 0.8852 0.0
H725 H 0.44089 0.6425 0.84864 0.0
H726 H 0.43756 0.74328 0.99149 0.0
H727 H 0.51211 0.6567 0.85959 0.0
H728 H 0.43374 0.68289 0.84264 0.0
H729 H 0.49634 0.72717 0.80949 0.0
C730 C 0.48489 0.75033 0.8901 0.0
C731 C 0.46942 0.75408 0.94638 0.0
C732 C 0.4509 0.67691 0.84422 0.0
C733 C 0.46556 0.7159 0.86156 0.0
C734 C 0.45507 0.65389 0.8492 0.0
C735 C 0.47718 0.64591 0.85725 0.0
C736 C 0.46896 0.69199 0.84543 0.0
C737 C 0.49478 0.66166 0.85366 0.0
C738 C 0.48295 0.73123 0.8472 0.0
C739 C 0.45013 0.74059 0.94976 0.0
N740 N 0.49024 0.68388 0.84881 0.0
N741 N 0.44908 0.72153 0.90955 0.0
H742 H 0.78546 0.45911 0.99714 0.0
H743 H 0.91009 0.41581 0.9379 0.0
H744 H 0.80881 0.39738 0.0961 0.0
H745 H 0.88905 0.48526 0.94139 0.0
H746 H 0.8712 0.40442 0.96166 0.0
H747 H 0.82083 0.46267 0.93364 0.0
C748 C 0.79761 0.44579 1.00394 0.0
C749 C 0.79416 0.42813 0.054 0.0
C750 C 0.87524 0.42209 0.95619 0.0
C751 C 0.83529 0.43281 0.98258 0.0
C752 C 0.89744 0.42869 0.94355 0.0
C753 C 0.90307 0.45163 0.93811 0.0
C754 C 0.85854 0.4385 0.96189 0.0
C755 C 0.8857 0.46741 0.94384 0.0
C756 C 0.81804 0.4481 0.96816 0.0
C757 C 0.81096 0.41166 0.06001 0.0
N758 N 0.86429 0.46054 0.95543 0.0
N759 N 0.83107 0.41464 0.02597 0.0
H760 H 0.03722 0.17482 0.02038 0.0
H761 H 1.01355 0.09463 0.67977 0.0
H762 H 0.01631 0.19941 0.80935 0.0
H763 H 0.03939 0.07109 0.88616 0.0
H764 H 0.016 0.13322 0.72417 0.0
H765 H 0.04028 0.13715 0.96984 0.0
C766 C 0.03365 0.17246 0.96307 0.0
C767 C 0.0264 0.1905 0.91934 0.0
C768 C 0.02128 0.11963 0.75959 0.0
C769 C 0.02936 0.14697 0.86125 0.0
C770 C 0.01987 0.09754 0.73425 0.0
C771 C 0.02621 0.07947 0.77928 0.0
C772 C 0.02898 0.12379 0.83069 0.0
C773 C 0.03427 0.08439 0.84941 0.0
C774 C 0.0352 0.15081 0.93435 0.0
C775 C 0.02161 0.18607 0.84567 0.0
N776 N 0.03531 0.10601 0.87299 0.0
N777 N 0.02302 0.16479 0.8192 0.0
H778 H 0.34214 0.05096 0.93102 0.0
H779 H 0.4331 0.99541 0.6647 0.0
H780 H 0.33241 0.98623 0.83055 0.0
H781 H 0.44905 0.04643 0.82264 0.0
H782 H 0.39399 0.99564 0.70775 0.0
H783 H 0.37921 0.0533 0.87434 0.0
C784 C 0.34766 0.03724 0.89696 0.0
C785 C 0.33396 0.01824 0.88655 0.0
C786 C 0.40607 1.00686 0.73259 0.0
C787 C 0.37653 0.02109 0.82012 0.0
C788 C 0.42835 1.00681 0.70784 0.0
C789 C 0.44443 0.02084 0.74031 0.0
C790 C 0.39973 0.02129 0.78943 0.0
C791 C 0.43731 0.03519 0.79632 0.0
C792 C 0.36886 0.03866 0.86434 0.0
C793 C 0.34206 1.00135 0.83993 0.0
N794 N 0.41555 0.03506 0.81895 0.0
N795 N 0.36278 1.00313 0.80882 0.0
H796 H 0.51223 0.33272 0.80285 0.0
H797 H 0.51797 0.46366 0.9023 0.0
H798 H 0.53082 0.35803 0.0142 0.0
H799 H 0.52045 0.44058 0.67998 0.0
H800 H 0.51835 0.42467 0.94415 0.0
H801 H 0.51096 0.37166 0.75646 0.0
C802 C 0.51599 0.34642 0.83948 0.0
C803 C 0.52184 0.34204 0.91243 0.0
C804 C 0.51879 0.42809 0.88612 0.0
C805 C 0.52014 0.38658 0.86011 0.0
C806 C 0.5185 0.45043 0.86208 0.0
C807 C 0.51915 0.45556 0.78728 0.0
C808 C 0.51949 0.41053 0.83524 0.0
C809 C 0.51991 0.4375 0.73806 0.0
C810 C 0.51535 0.36862 0.81293 0.0
C811 C 0.52657 0.36051 0.95737 0.0
N812 N 0.51997 0.41583 0.7628 0.0
N813 N 0.52551 0.38183 0.93068 0.0
H814 H 0.20148 0.53515 0.85108 0.0
H815 H 0.07766 0.48562 0.86824 0.0
H816 H 0.18398 0.47602 0.97645 0.0
H817 H 0.09981 0.52828 0.69125 0.0
H818 H 0.11628 0.4833 0.91174 0.0
H819 H 0.16461 0.53382 0.79319 0.0
C820 C 0.19014 0.52163 0.86572 0.0
C821 C 0.19604 0.50574 0.91949 0.0
C822 C 0.11277 0.49306 0.8631 0.0
C823 C 0.15331 0.50461 0.85438 0.0
C824 C 0.09066 0.49449 0.83835 0.0
C825 C 0.08544 0.50723 0.77603 0.0
C826 C 0.12987 0.50474 0.82612 0.0
C827 C 0.10308 0.51823 0.7394 0.0
C828 C 0.16896 0.52102 0.83286 0.0
C829 C 0.18019 0.48895 0.9367 0.0
N830 N 0.12448 0.51692 0.7654 0.0
N831 N 0.15956 0.48899 0.90494 0.0
H832 H 0.01554 0.82105 0.63793 0.0
H833 H 0.99329 0.95142 0.55314 0.0
H834 H 0.99517 0.8467 0.42767 0.0
H835 H 0.02051 0.92721 0.75682 0.0
H836 H 0.99047 0.91275 0.51065 0.0
H837 H 1.01397 0.85921 0.68637 0.0
C838 C 1.01061 0.83463 0.60191 0.0
C839 C 1.0056 0.83048 0.52824 0.0
C840 C 0.99697 0.91585 0.56478 0.0
C841 C 1.00367 0.87441 0.58386 0.0
C842 C 0.99858 0.93799 0.58923 0.0
C843 C 1.00722 0.9427 0.65875 0.0
C844 C 1.00404 0.89811 0.61 0.0
C845 C 1.01377 0.92447 0.70281 0.0
C846 C 1.00968 0.85645 0.62978 0.0
C847 C 0.99894 0.84886 0.48489 0.0
N848 N 1.01211 0.90303 0.67765 0.0
N849 N 0.99831 0.86994 0.51317 0.0
H850 H 0.70456 0.0307 0.63692 0.0
H851 H 0.57933 0.99129 0.53856 0.0
H852 H 0.68698 0.99805 0.43522 0.0
H853 H 0.59499 0.03556 0.71705 0.0
H854 H 0.61921 0.99005 0.50711 0.0
H855 H 0.66519 0.02888 0.6743 0.0
C856 C 0.69251 0.02307 0.60044 0.0
C857 C 0.6993 1.01467 0.53233 0.0
C858 C 0.61394 0.99999 0.5533 0.0
C859 C 0.65395 1.01235 0.57555 0.0
C860 C 0.59111 1.0007 0.57143 0.0
C861 C 0.58364 1.01359 0.63063 0.0
C862 C 0.62957 1.01213 0.59484 0.0
C863 C 0.59985 0.02541 0.67097 0.0
C864 C 0.66998 0.022 0.62203 0.0
C865 C 0.68279 1.00454 0.48848 0.0
N866 N 0.62198 0.02438 0.65238 0.0
N867 N 0.66096 1.00377 0.51065 0.0
H868 H 0.4965 0.7091 0.59797 0.0
H869 H 0.55275 0.58712 0.55974 0.0
H870 H 0.54791 0.69372 0.4401 0.0
H871 H 0.49647 0.60109 0.70031 0.0
H872 H 0.55297 0.62657 0.5209 0.0
H873 H 0.49833 0.67039 0.64284 0.0
C874 C 0.50822 0.69765 0.57269 0.0
C875 C 0.52199 0.70487 0.51466 0.0
C876 C 0.54066 0.62104 0.56065 0.0
C877 C 0.52421 0.66021 0.5663 0.0
C878 C 0.5405 0.59846 0.5828 0.0
C879 C 0.52475 0.59071 0.63431 0.0
C880 C 0.52494 0.63611 0.58995 0.0
C881 C 0.50927 0.60631 0.66191 0.0
C882 C 0.50928 0.67549 0.59854 0.0
C883 C 0.53711 0.68917 0.48534 0.0
N884 N 0.50976 0.62816 0.63952 0.0
N885 N 0.53772 0.66766 0.51112 0.0
H886 H 0.82777 0.503 0.62553 0.0
H887 H 0.95545 0.53859 0.54539 0.0
H888 H 0.84955 0.53272 0.42212 0.0
H889 H 0.93544 0.49567 0.72446 0.0
H890 H 0.91627 0.5403 0.5058 0.0
H891 H 0.86648 0.50421 0.6692 0.0
C892 C 0.84062 0.50985 0.58994 0.0
C893 C 0.83521 0.51758 0.51951 0.0
C894 C 0.92045 0.53057 0.5539 0.0
C895 C 0.87981 0.51923 0.56998 0.0
C896 C 0.94286 0.52957 0.57667 0.0
C897 C 0.9489 0.51699 0.63869 0.0
C898 C 0.9038 0.51903 0.59357 0.0
C899 C 0.93171 0.50568 0.6767 0.0
C900 C 0.86277 0.51057 0.61513 0.0
C901 C 0.85269 0.52675 0.47696 0.0
N902 N 0.91002 0.507 0.65365 0.0
N903 N 0.87415 0.52722 0.50268 0.0
loop_
_geom_bond_atom_site_label_1
_geom_bond_atom_site_label_2
_geom_bond_distance
_geom_bond_site_symmetry_2
_ccdc_geom_bond_type
C0 C1 1.386 . S
C0 C2 1.397 . S
C0 H24 0.931 . S
C1 C0 1.386 . S
C1 C5 1.397 . S
C2 C0 1.397 . S
C2 C3 1.384 . S
C2 H25 0.930 . S
C3 C2 1.384 . S
C3 C4 1.377 . S
C3 C6 1.481 . S
C4 C3 1.377 . S
C4 C5 1.389 . S
C4 H26 0.929 . S
C5 C1 1.397 . S
C5 C4 1.389 . S
C5 H27 0.931 . S
C6 C3 1.481 . S
C6 C7 1.387 . S
C6 C11 1.390 . S
C7 C6 1.387 . S
C7 C8 1.401 . S
C7 H28 0.930 . S
C8 C7 1.401 . S
C8 C9 1.376 . S
C8 C17 1.511 . S
C9 C8 1.376 . S
C9 C10 1.392 . S
C9 H30 0.931 . S
C10 C9 1.392 . S
C10 C11 1.361 . S
C10 C12 1.500 . S
C11 C6 1.390 . S
C11 C10 1.361 . S
C11 H29 0.931 . S
C12 C10 1.500 . S
C12 C13 1.371 . S
C12 C14 1.365 . S
C13 C12 1.371 . S
C13 C23 1.386 . S
C13 H31 0.931 . S
C14 C12 1.365 . S
C14 C15 1.409 . S
C14 H32 0.929 . S
C15 C14 1.409 . S
C15 C16 1.380 . S
C15 H33 0.930 . S
C16 C15 1.380 . S
C16 C23 1.357 . S
C17 C8 1.511 . S
C17 C18 1.341 . S
C17 C19 1.371 . S
C18 C17 1.341 . S
C18 C22 1.394 . S
C18 H34 0.930 . S
C19 C17 1.371 . S
C19 C20 1.392 . S
C19 H35 0.931 . S
C20 C19 1.392 . S
C20 C21 1.331 . S
C20 H38 0.932 . S
C21 C20 1.331 . S
C21 C22 1.336 . S
C22 C18 1.394 . S
C22 C21 1.336 . S
C22 H37 0.929 . S
C23 C13 1.386 . S
C23 C16 1.357 . S
C23 H36 0.928 . S
H24 C0 0.931 . S
H25 C2 0.930 . S
H26 C4 0.929 . S
H27 C5 0.931 . S
H28 C7 0.930 . S
H29 C11 0.931 . S
H30 C9 0.931 . S
H31 C13 0.931 . S
H32 C14 0.929 . S
H33 C15 0.930 . S
H34 C18 0.930 . S
H35 C19 0.931 . S
H36 C23 0.928 . S
H37 C22 0.929 . S
H38 C20 0.932 . S
C39 C40 1.394 . S
C39 C41 1.397 . S
C39 H63 0.931 . S
C40 C39 1.394 . S
C40 C44 1.389 1_655 S
C41 C39 1.397 . S
C41 C42 1.389 . S
C41 H64 0.930 . S
C42 C41 1.389 . S
C42 C43 1.373 1_655 S
C42 C45 1.480 . S
C43 C42 1.373 1_455 S
C43 C44 1.389 . S
C43 H65 0.929 . S
C44 C40 1.389 1_455 S
C44 C43 1.389 . S
C44 H66 0.931 . S
C45 C42 1.480 . S
C45 C46 1.388 . S
C45 C50 1.390 . S
C46 C45 1.388 . S
C46 C47 1.402 . S
C46 H67 0.930 . S
C47 C46 1.402 . S
C47 C48 1.376 . S
C47 C56 1.513 . S
C48 C47 1.376 . S
C48 C49 1.392 . S
C48 H69 0.934 . S
C49 C48 1.392 . S
C49 C50 1.361 . S
C49 C51 1.499 1_655 S
C50 C45 1.390 . S
C50 C49 1.361 . S
C50 H68 0.931 . S
C51 C49 1.499 1_455 S
C51 C52 1.362 1_455 S
C51 C53 1.374 . S
C52 C51 1.362 1_655 S
C52 C62 1.386 . S
C52 H70 0.931 . S
C53 C51 1.374 . S
C53 C54 1.409 . S
C53 H71 0.929 . S
C54 C53 1.409 . S
C54 C55 1.379 . S
C54 H72 0.930 . S
C55 C54 1.379 . S
C55 C62 1.359 1_455 S
C56 C47 1.513 . S
C56 C57 1.341 . S
C56 C58 1.371 1_655 S
C57 C56 1.341 . S
C57 C61 1.394 . S
C57 H73 0.930 . S
C58 C56 1.371 1_455 S
C58 C59 1.392 . S
C58 H74 0.931 . S
C59 C58 1.392 . S
C59 C60 1.322 1_455 S
C59 H77 0.932 . S
C60 C59 1.322 1_655 S
C60 C61 1.345 . S
C61 C57 1.394 . S
C61 C60 1.345 . S
C61 H76 0.929 . S
C62 C52 1.386 . S
C62 C55 1.359 1_655 S
C62 H75 0.928 . S
H63 C39 0.931 . S
H64 C41 0.930 . S
H65 C43 0.929 . S
H66 C44 0.931 . S
H67 C46 0.930 . S
H68 C50 0.931 . S
H69 C48 0.934 . S
H70 C52 0.931 . S
H71 C53 0.929 . S
H72 C54 0.930 . S
H73 C57 0.930 . S
H74 C58 0.931 . S
H75 C62 0.928 . S
H76 C61 0.929 . S
H77 C59 0.932 . S
C78 C79 1.394 . S
C78 C80 1.397 . S
C78 H102 0.931 . S
C79 C78 1.394 . S
C79 C83 1.389 1_565 S
C80 C78 1.397 . S
C80 C81 1.389 . S
C80 H103 0.930 . S
C81 C80 1.389 . S
C81 C82 1.373 1_565 S
C81 C84 1.480 . S
C82 C81 1.373 1_545 S
C82 C83 1.389 . S
C82 H104 0.929 . S
C83 C79 1.389 1_545 S
C83 C82 1.389 . S
C83 H105 0.931 . S
C84 C81 1.480 . S
C84 C85 1.388 . S
C84 C89 1.390 . S
C85 C84 1.388 . S
C85 C86 1.402 . S
C85 H106 0.930 . S
C86 C85 1.402 . S
C86 C87 1.376 . S
C86 C95 1.513 . S
C87 C86 1.376 . S
C87 C88 1.392 . S
C87 H108 0.934 . S
C88 C87 1.392 . S
C88 C89 1.361 . S
C88 C90 1.499 1_565 S
C89 C84 1.390 . S
C89 C88 1.361 . S
C89 H107 0.931 . S
C90 C88 1.499 1_545 S
C90 C91 1.362 1_545 S
C90 C92 1.374 . S
C91 C90 1.362 1_565 S
C91 C101 1.386 . S
C91 H109 0.931 . S
C92 C90 1.374 . S
C92 C93 1.409 . S
C92 H110 0.929 . S
C93 C92 1.409 . S
C93 C94 1.379 . S
C93 H111 0.930 . S
C94 C93 1.379 . S
C94 C101 1.359 1_545 S
C95 C86 1.513 . S
C95 C96 1.341 . S
C95 C97 1.371 1_565 S
C96 C95 1.341 . S
C96 C100 1.394 . S
C96 H112 0.930 . S
C97 C95 1.371 1_545 S
C97 C98 1.392 . S
C97 H113 0.931 . S
C98 C97 1.392 . S
C98 C99 1.322 1_545 S
C98 H116 0.932 . S
C99 C98 1.322 1_565 S
C99 C100 1.345 . S
C100 C96 1.394 . S
C100 C99 1.345 . S
C100 H115 0.929 . S
C101 C91 1.386 . S
C101 C94 1.359 1_565 S
C101 H114 0.928 . S
H102 C78 0.931 . S
H103 C80 0.930 . S
H104 C82 0.929 . S
H105 C83 0.931 . S
H106 C85 0.930 . S
H107 C89 0.931 . S
H108 C87 0.934 . S
H109 C91 0.931 . S
H110 C92 0.929 . S
H111 C93 0.930 . S
H112 C96 0.930 . S
H113 C97 0.931 . S
H114 C101 0.928 . S
H115 C100 0.929 . S
H116 C98 0.932 . S
C117 C118 1.386 . S
C117 C119 1.397 . S
C117 H141 0.931 . S
C118 C117 1.386 . S
C118 C122 1.397 . S
C119 C117 1.397 . S
C119 C120 1.384 . S
C119 H142 0.930 . S
C120 C119 1.384 . S
C120 C121 1.377 . S
C120 C123 1.481 . S
C121 C120 1.377 . S
C121 C122 1.389 . S
C121 H143 0.929 . S
C122 C118 1.397 . S
C122 C121 1.389 . S
C122 H144 0.931 . S
C123 C120 1.481 . S
C123 C124 1.387 . S
C123 C128 1.390 . S
C124 C123 1.387 . S
C124 C125 1.401 . S
C124 H145 0.930 . S
C125 C124 1.401 . S
C125 C126 1.376 . S
C125 C134 1.511 . S
C126 C125 1.376 . S
C126 C127 1.392 . S
C126 H147 0.931 . S
C127 C126 1.392 . S
C127 C128 1.361 . S
C127 C129 1.500 . S
C128 C123 1.390 . S
C128 C127 1.361 . S
C128 H146 0.931 . S
C129 C127 1.500 . S
C129 C130 1.371 . S
C129 C131 1.365 . S
C130 C129 1.371 . S
C130 C140 1.386 . S
C130 H148 0.931 . S
C131 C129 1.365 . S
C131 C132 1.409 . S
C131 H149 0.929 . S
C132 C131 1.409 . S
C132 C133 1.380 . S
C132 H150 0.930 . S
C133 C132 1.380 . S
C133 C140 1.357 . S
C134 C125 1.511 . S
C134 C135 1.341 . S
C134 C136 1.371 . S
C135 C134 1.341 . S
C135 C139 1.394 . S
C135 H151 0.930 . S
C136 C134 1.371 . S
C136 C137 1.392 . S
C136 H152 0.931 . S
C137 C136 1.392 . S
C137 C138 1.331 . S
C137 H155 0.932 . S
C138 C137 1.331 . S
C138 C139 1.336 . S
C139 C135 1.394 . S
C139 C138 1.336 . S
C139 H154 0.929 . S
C140 C130 1.386 . S
C140 C133 1.357 . S
C140 H153 0.928 . S
H141 C117 0.931 . S
H142 C119 0.930 . S
H143 C121 0.929 . S
H144 C122 0.931 . S
H145 C124 0.930 . S
H146 C128 0.931 . S
H147 C126 0.931 . S
H148 C130 0.931 . S
H149 C131 0.929 . S
H150 C132 0.930 . S
H151 C135 0.930 . S
H152 C136 0.931 . S
H153 C140 0.928 . S
H154 C139 0.929 . S
H155 C137 0.932 . S
C156 C157 1.386 . S
C156 C158 1.397 . S
C156 H180 0.931 . S
C157 C156 1.386 . S
C157 C161 1.397 . S
C158 C156 1.397 . S
C158 C159 1.384 . S
C158 H181 0.930 . S
C159 C158 1.384 . S
C159 C160 1.377 . S
C159 C162 1.481 . S
C160 C159 1.377 . S
C160 C161 1.389 . S
C160 H182 0.929 . S
C161 C157 1.397 . S
C161 C160 1.389 . S
C161 H183 0.931 . S
C162 C159 1.481 . S
C162 C163 1.387 . S
C162 C167 1.390 . S
C163 C162 1.387 . S
C163 C164 1.401 . S
C163 H184 0.930 . S
C164 C163 1.401 . S
C164 C165 1.376 1_554 S
C164 C173 1.511 . S
C165 C164 1.376 1_556 S
C165 C166 1.392 . S
C165 H186 0.931 . S
C166 C165 1.392 . S
C166 C167 1.361 1_556 S
C166 C168 1.500 . S
C167 C162 1.390 . S
C167 C166 1.361 1_554 S
C167 H185 0.931 . S
C168 C166 1.500 . S
C168 C169 1.371 . S
C168 C170 1.365 . S
C169 C168 1.371 . S
C169 C179 1.386 . S
C169 H187 0.931 . S
C170 C168 1.365 . S
C170 C171 1.409 . S
C170 H188 0.929 . S
C171 C170 1.409 . S
C171 C172 1.380 . S
C171 H189 0.930 . S
C172 C171 1.380 . S
C172 C179 1.357 . S
C173 C164 1.511 . S
C173 C174 1.341 . S
C173 C175 1.371 . S
C174 C173 1.341 . S
C174 C178 1.394 . S
C174 H190 0.930 . S
C175 C173 1.371 . S
C175 C176 1.392 . S
C175 H191 0.931 1_554 S
C176 C175 1.392 . S
C176 C177 1.331 . S
C176 H194 0.932 . S
C177 C176 1.331 . S
C177 C178 1.336 . S
C178 C174 1.394 . S
C178 C177 1.336 . S
C178 H193 0.929 . S
C179 C169 1.386 . S
C179 C172 1.357 . S
C179 H192 0.928 . S
H180 C156 0.931 . S
H181 C158 0.930 . S
H182 C160 0.929 . S
H183 C161 0.931 . S
H184 C163 0.930 . S
H185 C167 0.931 . S
H186 C165 0.931 . S
H187 C169 0.931 . S
H188 C170 0.929 . S
H189 C171 0.930 . S
H190 C174 0.930 . S
H191 C175 0.931 1_556 S
H192 C179 0.928 . S
H193 C178 0.929 . S
H194 C176 0.932 . S
C195 C196 1.387 . S
C195 C197 1.397 . S
C195 H219 0.931 . S
C196 C195 1.387 . S
C196 C200 1.396 1_655 S
C197 C195 1.397 . S
C197 C198 1.381 . S
C197 H220 0.930 . S
C198 C197 1.381 . S
C198 C199 1.380 1_655 S
C198 C201 1.480 . S
C199 C198 1.380 1_455 S
C199 C200 1.389 . S
C199 H221 0.929 . S
C200 C196 1.396 1_455 S
C200 C199 1.389 . S
C200 H222 0.931 . S
C201 C198 1.480 . S
C201 C202 1.388 . S
C201 C206 1.390 . S
C202 C201 1.388 . S
C202 C203 1.402 . S
C202 H223 0.930 . S
C203 C202 1.402 . S
C203 C204 1.376 1_554 S
C203 C212 1.512 . S
C204 C203 1.376 1_556 S
C204 C205 1.392 1_655 S
C204 H225 0.933 . S
C205 C204 1.392 1_455 S
C205 C206 1.361 1_456 S
C205 C207 1.499 . S
C206 C201 1.390 . S
C206 C205 1.361 1_654 S
C206 H224 0.931 . S
C207 C205 1.499 . S
C207 C208 1.357 1_455 S
C207 C209 1.380 . S
C208 C207 1.357 1_655 S
C208 C218 1.386 . S
C208 H226 0.931 . S
C209 C207 1.380 . S
C209 C210 1.409 . S
C209 H227 0.929 . S
C210 C209 1.409 . S
C210 C211 1.384 . S
C210 H228 0.930 . S
C211 C210 1.384 . S
C211 C218 1.353 1_455 S
C212 C203 1.512 . S
C212 C213 1.341 . S
C212 C214 1.371 1_655 S
C213 C212 1.341 . S
C213 C217 1.394 . S
C213 H229 0.930 . S
C214 C212 1.371 1_455 S
C214 C215 1.392 . S
C214 H230 0.931 1_554 S
C215 C214 1.392 . S
C215 C216 1.326 1_455 S
C215 H233 0.932 . S
C216 C215 1.326 1_655 S
C216 C217 1.341 . S
C217 C213 1.394 . S
C217 C216 1.341 . S
C217 H232 0.929 . S
C218 C208 1.386 . S
C218 C211 1.353 1_655 S
C218 H231 0.928 . S
H219 C195 0.931 . S
H220 C197 0.930 . S
H221 C199 0.929 . S
H222 C200 0.931 . S
H223 C202 0.930 . S
H224 C206 0.931 . S
H225 C204 0.933 . S
H226 C208 0.931 . S
H227 C209 0.929 . S
H228 C210 0.930 . S
H229 C213 0.930 . S
H230 C214 0.931 1_556 S
H231 C218 0.928 . S
H232 C217 0.929 . S
H233 C215 0.932 . S
C234 C235 1.387 . S
C234 C236 1.397 . S
C234 H258 0.931 . S
C235 C234 1.387 . S
C235 C239 1.396 1_565 S
C236 C234 1.397 . S
C236 C237 1.381 . S
C236 H259 0.930 . S
C237 C236 1.381 . S
C237 C238 1.380 1_565 S
C237 C240 1.480 . S
C238 C237 1.380 1_545 S
C238 C239 1.389 . S
C238 H260 0.929 . S
C239 C235 1.396 1_545 S
C239 C238 1.389 . S
C239 H261 0.931 . S
C240 C237 1.480 . S
C240 C241 1.388 . S
C240 C245 1.390 . S
C241 C240 1.388 . S
C241 C242 1.402 . S
C241 H262 0.930 . S
C242 C241 1.402 . S
C242 C243 1.376 1_554 S
C242 C251 1.512 . S
C243 C242 1.376 1_556 S
C243 C244 1.392 1_565 S
C243 H264 0.933 . S
C244 C243 1.392 1_545 S
C244 C245 1.361 1_546 S
C244 C246 1.499 . S
C245 C240 1.390 . S
C245 C244 1.361 1_564 S
C245 H263 0.931 . S
C246 C244 1.499 . S
C246 C247 1.357 1_545 S
C246 C248 1.380 . S
C247 C246 1.357 1_565 S
C247 C257 1.386 . S
C247 H265 0.931 . S
C248 C246 1.380 . S
C248 C249 1.409 . S
C248 H266 0.929 . S
C249 C248 1.409 . S
C249 C250 1.384 . S
C249 H267 0.930 . S
C250 C249 1.384 . S
C250 C257 1.353 1_545 S
C251 C242 1.512 . S
C251 C252 1.341 . S
C251 C253 1.371 1_565 S
C252 C251 1.341 . S
C252 C256 1.394 . S
C252 H268 0.930 . S
C253 C251 1.371 1_545 S
C253 C254 1.392 . S
C253 H269 0.931 1_554 S
C254 C253 1.392 . S
C254 C255 1.326 1_545 S
C254 H272 0.932 . S
C255 C254 1.326 1_565 S
C255 C256 1.341 . S
C256 C252 1.394 . S
C256 C255 1.341 . S
C256 H271 0.929 . S
C257 C247 1.386 . S
C257 C250 1.353 1_565 S
C257 H270 0.928 . S
H258 C234 0.931 . S
H259 C236 0.930 . S
H260 C238 0.929 . S
H261 C239 0.931 . S
H262 C241 0.930 . S
H263 C245 0.931 . S
H264 C243 0.933 . S
H265 C247 0.931 . S
H266 C248 0.929 . S
H267 C249 0.930 . S
H268 C252 0.930 . S
H269 C253 0.931 1_556 S
H270 C257 0.928 . S
H271 C256 0.929 . S
H272 C254 0.932 . S
C273 C274 1.386 . S
C273 C275 1.397 . S
C273 H297 0.931 . S
C274 C273 1.386 . S
C274 C278 1.397 . S
C275 C273 1.397 . S
C275 C276 1.384 . S
C275 H298 0.930 . S
C276 C275 1.384 . S
C276 C277 1.377 . S
C276 C279 1.481 . S
C277 C276 1.377 . S
C277 C278 1.389 . S
C277 H299 0.929 . S
C278 C274 1.397 . S
C278 C277 1.389 . S
C278 H300 0.931 . S
C279 C276 1.481 . S
C279 C280 1.387 . S
C279 C284 1.390 1_556 S
C280 C279 1.387 . S
C280 C281 1.401 1_556 S
C280 H301 0.930 . S
C281 C280 1.401 1_554 S
C281 C282 1.376 . S
C281 C290 1.511 . S
C282 C281 1.376 . S
C282 C283 1.392 . S
C282 H303 0.931 . S
C283 C282 1.392 . S
C283 C284 1.361 . S
C283 C285 1.500 . S
C284 C279 1.390 1_554 S
C284 C283 1.361 . S
C284 H302 0.931 . S
C285 C283 1.500 . S
C285 C286 1.371 . S
C285 C287 1.365 . S
C286 C285 1.371 . S
C286 C296 1.386 . S
C286 H304 0.931 . S
C287 C285 1.365 . S
C287 C288 1.409 . S
C287 H305 0.929 . S
C288 C287 1.409 . S
C288 C289 1.380 . S
C288 H306 0.930 . S
C289 C288 1.380 . S
C289 C296 1.357 . S
C290 C281 1.511 . S
C290 C291 1.341 . S
C290 C292 1.371 . S
C291 C290 1.341 . S
C291 C295 1.394 . S
C291 H307 0.930 1_554 S
C292 C290 1.371 . S
C292 C293 1.392 . S
C292 H308 0.931 . S
C293 C292 1.392 . S
C293 C294 1.331 . S
C293 H311 0.932 . S
C294 C293 1.331 . S
C294 C295 1.336 . S
C295 C291 1.394 . S
C295 C294 1.336 . S
C295 H310 0.929 . S
C296 C286 1.386 . S
C296 C289 1.357 . S
C296 H309 0.928 . S
H297 C273 0.931 . S
H298 C275 0.930 . S
H299 C277 0.929 . S
H300 C278 0.931 . S
H301 C280 0.930 . S
H302 C284 0.931 . S
H303 C282 0.931 . S
H304 C286 0.931 . S
H305 C287 0.929 . S
H306 C288 0.930 . S
H307 C291 0.930 1_556 S
H308 C292 0.931 . S
H309 C296 0.928 . S
H310 C295 0.929 . S
H311 C293 0.932 . S
La312 C314 2.928 . S
La312 O332 2.521 . S
La312 O333 2.628 . S
La312 O334 2.554 . S
La312 O335 2.757 1_565 S
La312 O336 2.470 . S
La312 O341 2.482 1_455 S
La312 O343 2.503 1_565 S
La313 C323 2.928 . S
La313 O335 2.482 1_655 S
La313 O337 2.503 1_545 S
La313 O338 2.521 . S
La313 O339 2.628 . S
La313 O340 2.554 . S
La313 O341 2.757 1_545 S
La313 O342 2.470 . S
C314 La312 2.928 . S
C314 C315 1.503 . S
C314 O332 1.261 . S
C314 O333 1.243 . S
C315 C314 1.503 . S
C315 C316 1.394 . S
C315 C320 1.373 . S
C316 C315 1.394 . S
C316 C317 1.380 . S
C316 H344 0.930 . S
C317 C316 1.380 . S
C317 C318 1.376 . S
C317 H345 0.930 . S
C318 C317 1.376 . S
C318 C319 1.370 . S
C319 C318 1.370 . S
C319 C320 1.396 . S
C319 H346 0.930 1_455 S
C320 C315 1.373 . S
C320 C319 1.396 . S
C320 H347 0.929 1_455 S
C321 O334 1.269 . S
C321 O335 1.272 1_565 S
C322 O336 1.258 1_655 S
C322 O337 1.256 . S
C323 La313 2.928 . S
C323 C324 1.503 . S
C323 O338 1.261 . S
C323 O339 1.243 . S
C324 C323 1.503 . S
C324 C325 1.394 . S
C324 C329 1.373 . S
C325 C324 1.394 . S
C325 C326 1.380 . S
C325 H348 0.930 . S
C326 C325 1.380 . S
C326 C327 1.376 . S
C326 H349 0.930 . S
C327 C326 1.376 . S
C327 C328 1.370 . S
C328 C327 1.370 . S
C328 C329 1.396 . S
C328 H350 0.920 1_655 S
C329 C324 1.373 . S
C329 C328 1.396 . S
C329 H351 0.929 1_655 S
C330 O340 1.240 . S
C330 O341 1.289 1_545 S
C331 O342 1.258 1_455 S
C331 O343 1.256 . S
O332 La312 2.521 . S
O332 C314 1.261 . S
O333 La312 2.628 . S
O333 C314 1.243 . S
O334 La312 2.554 . S
O334 C321 1.269 . S
O335 La312 2.757 1_545 S
O335 La313 2.482 1_455 S
O335 C321 1.272 1_545 S
O336 La312 2.470 . S
O336 C322 1.258 1_455 S
O337 La313 2.503 1_565 S
O337 C322 1.256 . S
O338 La313 2.521 . S
O338 C323 1.261 . S
O339 La313 2.628 . S
O339 C323 1.243 . S
O340 La313 2.554 . S
O340 C330 1.240 . S
O341 La312 2.482 1_655 S
O341 La313 2.757 1_565 S
O341 C330 1.289 1_565 S
O342 La313 2.470 . S
O342 C331 1.258 1_655 S
O343 La312 2.503 1_545 S
O343 C331 1.256 . S
H344 C316 0.930 . S
H345 C317 0.930 . S
H346 C319 0.930 1_655 S
H347 C320 0.929 1_655 S
H348 C325 0.930 . S
H349 C326 0.930 . S
H350 C328 0.920 1_455 S
H351 C329 0.929 1_455 S
La352 C354 2.928 . S
La352 O372 2.521 . S
La352 O373 2.628 . S
La352 O374 2.554 . S
La352 O375 2.757 . S
La352 O376 2.470 . S
La352 O381 2.482 1_545 S
La352 O383 2.503 . S
La353 C363 2.928 . S
La353 O375 2.482 1_565 S
La353 O377 2.503 . S
La353 O378 2.521 . S
La353 O379 2.628 . S
La353 O380 2.554 . S
La353 O381 2.757 . S
La353 O382 2.470 . S
C354 La352 2.928 . S
C354 C355 1.503 . S
C354 O372 1.261 . S
C354 O373 1.243 . S
C355 C354 1.503 . S
C355 C356 1.394 . S
C355 C360 1.373 . S
C356 C355 1.394 . S
C356 C357 1.380 . S
C356 H384 0.930 . S
C357 C356 1.380 . S
C357 C358 1.376 . S
C357 H385 0.930 . S
C358 C357 1.376 . S
C358 C359 1.370 . S
C359 C358 1.370 . S
C359 C360 1.396 . S
C359 H386 0.909 1_545 S
C360 C355 1.373 . S
C360 C359 1.396 . S
C360 H387 0.929 1_545 S
C361 O374 1.240 . S
C361 O375 1.289 . S
C362 O376 1.258 1_565 S
C362 O377 1.256 . S
C363 La353 2.928 . S
C363 C364 1.503 . S
C363 O378 1.261 . S
C363 O379 1.243 . S
C364 C363 1.503 . S
C364 C365 1.394 . S
C364 C369 1.373 . S
C365 C364 1.394 . S
C365 C366 1.380 . S
C365 H388 0.930 . S
C366 C365 1.380 . S
C366 C367 1.376 . S
C366 H389 0.930 . S
C367 C366 1.376 . S
C367 C368 1.370 . S
C368 C367 1.370 . S
C368 C369 1.396 . S
C368 H390 0.900 1_565 S
C369 C364 1.373 . S
C369 C368 1.396 . S
C369 H391 0.929 1_565 S
C370 O380 1.240 . S
C370 O381 1.289 . S
C371 O382 1.258 1_545 S
C371 O383 1.256 . S
O372 La352 2.521 . S
O372 C354 1.261 . S
O373 La352 2.628 . S
O373 C354 1.243 . S
O374 La352 2.554 . S
O374 C361 1.240 . S
O375 La352 2.757 . S
O375 La353 2.482 1_545 S
O375 C361 1.289 . S
O376 La352 2.470 . S
O376 C362 1.258 1_545 S
O377 La353 2.503 . S
O377 C362 1.256 . S
O378 La353 2.521 . S
O378 C363 1.261 . S
O379 La353 2.628 . S
O379 C363 1.243 . S
O380 La353 2.554 . S
O380 C370 1.240 . S
O381 La352 2.482 1_565 S
O381 La353 2.757 . S
O381 C370 1.289 . S
O382 La353 2.470 . S
O382 C371 1.258 1_565 S
O383 La352 2.503 . S
O383 C371 1.256 . S
H384 C356 0.930 . S
H385 C357 0.930 . S
H386 C359 0.909 1_565 S
H387 C360 0.929 1_565 S
H388 C365 0.930 . S
H389 C366 0.930 . S
H390 C368 0.900 1_545 S
H391 C369 0.929 1_545 S
La392 C394 2.928 . S
La392 O412 2.521 . S
La392 O413 2.628 . S
La392 O414 2.554 . S
La392 O415 2.757 . S
La392 O416 2.470 . S
La392 O421 2.482 . S
La392 O423 2.503 . S
La393 C403 2.928 . S
La393 O415 2.482 . S
La393 O417 2.503 . S
La393 O418 2.521 . S
La393 O419 2.628 . S
La393 O420 2.554 . S
La393 O421 2.757 . S
La393 O422 2.470 . S
C394 La392 2.928 . S
C394 C395 1.503 . S
C394 O412 1.261 . S
C394 O413 1.243 . S
C395 C394 1.503 . S
C395 C396 1.394 . S
C395 C400 1.373 . S
C396 C395 1.394 . S
C396 C397 1.380 . S
C396 H424 0.930 . S
C397 C396 1.380 . S
C397 C398 1.376 . S
C397 H425 0.930 . S
C398 C397 1.376 . S
C398 C399 1.370 . S
C399 C398 1.370 . S
C399 C400 1.396 . S
C399 H426 0.929 . S
C400 C395 1.373 . S
C400 C399 1.396 . S
C400 H427 0.929 . S
C401 O414 1.240 . S
C401 O415 1.289 . S
C402 O416 1.258 . S
C402 O417 1.256 . S
C403 La393 2.928 . S
C403 C404 1.503 . S
C403 O418 1.261 . S
C403 O419 1.243 . S
C404 C403 1.503 . S
C404 C405 1.394 . S
C404 C409 1.373 . S
C405 C404 1.394 . S
C405 C406 1.380 . S
C405 H428 0.930 . S
C406 C405 1.380 . S
C406 C407 1.376 . S
C406 H429 0.930 . S
C407 C406 1.376 . S
C407 C408 1.370 . S
C408 C407 1.370 . S
C408 C409 1.396 . S
C408 H430 0.929 . S
C409 C404 1.373 . S
C409 C408 1.396 . S
C409 H431 0.929 . S
C410 O420 1.240 . S
C410 O421 1.289 . S
C411 O422 1.258 . S
C411 O423 1.256 . S
O412 La392 2.521 . S
O412 C394 1.261 . S
O413 La392 2.628 . S
O413 C394 1.243 . S
O414 La392 2.554 . S
O414 C401 1.240 . S
O415 La392 2.757 . S
O415 La393 2.482 . S
O415 C401 1.289 . S
O416 La392 2.470 . S
O416 C402 1.258 . S
O417 La393 2.503 . S
O417 C402 1.256 . S
O418 La393 2.521 . S
O418 C403 1.261 . S
O419 La393 2.628 . S
O419 C403 1.243 . S
O420 La393 2.554 . S
O420 C410 1.240 . S
O421 La392 2.482 . S
O421 La393 2.757 . S
O421 C410 1.289 . S
O422 La393 2.470 . S
O422 C411 1.258 . S
O423 La392 2.503 . S
O423 C411 1.256 . S
H424 C396 0.930 . S
H425 C397 0.930 . S
H426 C399 0.929 . S
H427 C400 0.929 . S
H428 C405 0.930 . S
H429 C406 0.930 . S
H430 C408 0.929 . S
H431 C409 0.929 . S
La432 C434 2.928 . S
La432 O452 2.521 . S
La432 O453 2.628 . S
La432 O454 2.554 . S
La432 O455 2.757 1_655 S
La432 O456 2.470 . S
La432 O461 2.482 . S
La432 O463 2.503 1_655 S
La433 C443 2.928 . S
La433 O455 2.482 . S
La433 O457 2.503 1_455 S
La433 O458 2.521 . S
La433 O459 2.628 . S
La433 O460 2.554 . S
La433 O461 2.757 1_455 S
La433 O462 2.470 . S
C434 La432 2.928 . S
C434 C435 1.503 . S
C434 O452 1.261 . S
C434 O453 1.243 . S
C435 C434 1.503 . S
C435 C436 1.394 . S
C435 C440 1.373 . S
C436 C435 1.394 . S
C436 C437 1.380 . S
C436 H464 0.930 . S
C437 C436 1.380 . S
C437 C438 1.376 . S
C437 H465 0.930 . S
C438 C437 1.376 . S
C438 C439 1.370 . S
C439 C438 1.370 . S
C439 C440 1.396 . S
C439 H466 0.929 . S
C440 C435 1.373 . S
C440 C439 1.396 . S
C440 H467 0.929 . S
C441 O454 1.257 . S
C441 O455 1.279 1_655 S
C442 O456 1.258 . S
C442 O457 1.256 . S
C443 La433 2.928 . S
C443 C444 1.503 . S
C443 O458 1.261 . S
C443 O459 1.243 . S
C444 C443 1.503 . S
C444 C445 1.394 . S
C444 C449 1.373 . S
C445 C444 1.394 . S
C445 C446 1.380 . S
C445 H468 0.930 . S
C446 C445 1.380 . S
C446 C447 1.376 . S
C446 H469 0.930 . S
C447 C446 1.376 . S
C447 C448 1.370 . S
C448 C447 1.370 . S
C448 C449 1.396 . S
C448 H470 0.929 . S
C449 C444 1.373 . S
C449 C448 1.396 . S
C449 H471 0.929 . S
C450 O460 1.264 . S
C450 O461 1.275 1_455 S
C451 O462 1.258 . S
C451 O463 1.256 . S
O452 La432 2.521 . S
O452 C434 1.261 . S
O453 La432 2.628 . S
O453 C434 1.243 . S
O454 La432 2.554 . S
O454 C441 1.257 . S
O455 La432 2.757 1_455 S
O455 La433 2.482 . S
O455 C441 1.279 1_455 S
O456 La432 2.470 . S
O456 C442 1.258 . S
O457 La433 2.503 1_655 S
O457 C442 1.256 . S
O458 La433 2.521 . S
O458 C443 1.261 . S
O459 La433 2.628 . S
O459 C443 1.243 . S
O460 La433 2.554 . S
O460 C450 1.264 . S
O461 La432 2.482 . S
O461 La433 2.757 1_655 S
O461 C450 1.275 1_655 S
O462 La433 2.470 . S
O462 C451 1.258 . S
O463 La432 2.503 1_455 S
O463 C451 1.256 . S
H464 C436 0.930 . S
H465 C437 0.930 . S
H466 C439 0.929 . S
H467 C440 0.929 . S
H468 C445 0.930 . S
H469 C446 0.930 . S
H470 C448 0.929 . S
H471 C449 0.929 . S
H472 C478 0.930 . S
H473 C482 0.930 . S
H474 C487 0.929 . S
H475 C485 0.929 . S
H476 C480 0.929 . S
H477 C486 0.929 . S
C478 H472 0.930 . S
C478 C479 1.393 . S
C478 C486 1.378 . S
C479 C478 1.393 . S
C479 C487 1.407 1_545 S
C480 H476 0.929 . S
C480 C482 1.378 . S
C480 C484 1.341 1_565 S
C481 C484 1.463 . S
C481 C486 1.350 . S
C481 N489 1.427 1_545 S
C482 H473 0.930 . S
C482 C480 1.378 . S
C482 C483 1.335 1_565 S
C483 C482 1.335 1_545 S
C483 C485 1.466 . S
C484 C480 1.341 1_545 S
C484 C481 1.463 . S
C484 N488 1.437 . S
C485 H475 0.929 . S
C485 C483 1.466 . S
C485 N488 1.384 . S
C486 H477 0.929 . S
C486 C478 1.378 . S
C486 C481 1.350 . S
C487 H474 0.929 . S
C487 C479 1.407 1_565 S
C487 N489 1.384 . S
N488 C484 1.437 . S
N488 C485 1.384 . S
N489 C481 1.427 1_565 S
N489 C487 1.384 . S
H490 C496 0.930 . S
H491 C500 0.930 . S
H492 C505 0.929 . S
H493 C503 0.929 . S
H494 C498 0.929 . S
H495 C504 0.929 . S
C496 H490 0.930 . S
C496 C497 1.367 . S
C496 C504 1.378 . S
C497 C496 1.367 . S
C497 C505 1.433 . S
C498 H494 0.929 . S
C498 C500 1.378 . S
C498 C502 1.350 . S
C499 C502 1.463 . S
C499 C504 1.350 . S
C499 N507 1.427 . S
C500 H491 0.930 . S
C500 C498 1.378 . S
C500 C501 1.367 . S
C501 C500 1.367 . S
C501 C503 1.433 . S
C502 C498 1.350 . S
C502 C499 1.463 . S
C502 N506 1.427 . S
C503 H493 0.929 . S
C503 C501 1.433 . S
C503 N506 1.384 . S
C504 H495 0.929 . S
C504 C496 1.378 . S
C504 C499 1.350 . S
C505 H492 0.929 . S
C505 C497 1.433 . S
C505 N507 1.384 . S
N506 C502 1.427 . S
N506 C503 1.384 . S
N507 C499 1.427 . S
N507 C505 1.384 . S
H508 C514 0.930 . S
H509 C518 0.930 . S
H510 C523 0.929 . S
H511 C521 0.929 . S
H512 C516 0.929 . S
H513 C522 0.929 . S
C514 H508 0.930 . S
C514 C515 1.367 . S
C514 C522 1.378 . S
C515 C514 1.367 . S
C515 C523 1.433 . S
C516 H512 0.929 . S
C516 C518 1.378 . S
C516 C520 1.350 . S
C517 C520 1.463 . S
C517 C522 1.350 . S
C517 N525 1.427 . S
C518 H509 0.930 . S
C518 C516 1.378 . S
C518 C519 1.367 . S
C519 C518 1.367 . S
C519 C521 1.433 . S
C520 C516 1.350 . S
C520 C517 1.463 . S
C520 N524 1.427 . S
C521 H511 0.929 . S
C521 C519 1.433 . S
C521 N524 1.384 . S
C522 H513 0.929 . S
C522 C514 1.378 . S
C522 C517 1.350 . S
C523 H510 0.929 . S
C523 C515 1.433 . S
C523 N525 1.384 . S
N524 C520 1.427 . S
N524 C521 1.384 . S
N525 C517 1.427 . S
N525 C523 1.384 . S
H526 C532 0.930 . S
H527 C536 0.930 . S
H528 C541 0.929 . S
H529 C539 0.929 . S
H530 C534 0.929 . S
H531 C540 0.929 . S
C532 H526 0.930 . S
C532 C533 1.367 1_655 S
C532 C540 1.378 . S
C533 C532 1.367 1_455 S
C533 C541 1.433 . S
C534 H530 0.929 . S
C534 C536 1.378 . S
C534 C538 1.350 . S
C535 C538 1.463 . S
C535 C540 1.340 1_455 S
C535 N543 1.437 . S
C536 H527 0.930 . S
C536 C534 1.378 . S
C536 C537 1.367 . S
C537 C536 1.367 . S
C537 C539 1.433 1_455 S
C538 C534 1.350 . S
C538 C535 1.463 . S
C538 N542 1.427 1_455 S
C539 H529 0.929 . S
C539 C537 1.433 1_655 S
C539 N542 1.384 . S
C540 H531 0.929 . S
C540 C532 1.378 . S
C540 C535 1.340 1_655 S
C541 H528 0.929 . S
C541 C533 1.433 . S
C541 N543 1.384 . S
N542 C538 1.427 1_655 S
N542 C539 1.384 . S
N543 C535 1.437 . S
N543 C541 1.384 . S
H544 C550 0.930 . S
H545 C554 0.930 . S
H546 C559 0.929 . S
H547 C557 0.929 . S
H548 C552 0.929 1_554 S
H549 C558 0.929 . S
C550 H544 0.930 . S
C550 C551 1.373 . S
C550 C558 1.378 . S
C551 C550 1.373 . S
C551 C559 1.426 1_545 S
C552 H548 0.929 1_556 S
C552 C554 1.378 . S
C552 C556 1.350 1_556 S
C553 C556 1.463 1_545 S
C553 C558 1.349 . S
C553 N561 1.428 1_545 S
C554 H545 0.930 . S
C554 C552 1.378 . S
C554 C555 1.367 . S
C555 C554 1.367 . S
C555 C557 1.433 1_565 S
C556 C552 1.350 1_554 S
C556 C553 1.463 1_565 S
C556 N560 1.427 1_564 S
C557 H547 0.929 . S
C557 C555 1.433 1_545 S
C557 N560 1.384 . S
C558 H549 0.929 . S
C558 C550 1.378 . S
C558 C553 1.349 . S
C559 H546 0.929 . S
C559 C551 1.426 1_565 S
C559 N561 1.384 . S
N560 C556 1.427 1_546 S
N560 C557 1.384 . S
N561 C553 1.428 1_565 S
N561 C559 1.384 . S
H562 C568 0.930 . S
H563 C572 0.930 . S
H564 C577 0.929 . S
H565 C575 0.929 . S
H566 C570 0.929 . S
H567 C576 0.929 . S
C568 H562 0.930 . S
C568 C569 1.367 . S
C568 C576 1.378 . S
C569 C568 1.367 . S
C569 C577 1.433 . S
C570 H566 0.929 . S
C570 C572 1.378 . S
C570 C574 1.350 1_556 S
C571 C574 1.463 . S
C571 C576 1.350 . S
C571 N579 1.427 . S
C572 H563 0.930 . S
C572 C570 1.378 . S
C572 C573 1.367 . S
C573 C572 1.367 . S
C573 C575 1.433 . S
C574 C570 1.350 1_554 S
C574 C571 1.463 . S
C574 N578 1.427 1_554 S
C575 H565 0.929 . S
C575 C573 1.433 . S
C575 N578 1.384 . S
C576 H567 0.929 . S
C576 C568 1.378 . S
C576 C571 1.350 . S
C577 H564 0.929 . S
C577 C569 1.433 . S
C577 N579 1.384 . S
N578 C574 1.427 1_556 S
N578 C575 1.384 . S
N579 C571 1.427 . S
N579 C577 1.384 . S
H580 C586 0.930 . S
H581 C590 0.930 . S
H582 C595 0.929 . S
H583 C593 0.929 . S
H584 C588 0.929 . S
H585 C594 0.929 . S
C586 H580 0.930 . S
C586 C587 1.367 . S
C586 C594 1.378 . S
C587 C586 1.367 . S
C587 C595 1.433 . S
C588 H584 0.929 . S
C588 C590 1.378 . S
C588 C592 1.339 1_556 S
C589 C592 1.476 . S
C589 C594 1.350 . S
C589 N597 1.427 . S
C590 H581 0.930 . S
C590 C588 1.378 . S
C590 C591 1.367 . S
C591 C590 1.367 . S
C591 C593 1.433 . S
C592 C588 1.339 1_554 S
C592 C589 1.476 . S
C592 N596 1.426 1_554 S
C593 H583 0.929 . S
C593 C591 1.433 . S
C593 N596 1.384 . S
C594 H585 0.929 . S
C594 C586 1.378 . S
C594 C589 1.350 . S
C595 H582 0.929 . S
C595 C587 1.433 . S
C595 N597 1.384 . S
N596 C592 1.426 1_556 S
N596 C593 1.384 . S
N597 C589 1.427 . S
N597 C595 1.384 . S
H598 C604 0.930 . S
H599 C608 0.930 . S
H600 C613 0.929 . S
H601 C611 0.929 . S
H602 C606 0.929 . S
H603 C612 0.929 . S
C604 H598 0.930 . S
C604 C605 1.393 . S
C604 C612 1.378 . S
C605 C604 1.393 . S
C605 C613 1.408 1_655 S
C606 H602 0.929 . S
C606 C608 1.378 . S
C606 C610 1.332 1_456 S
C607 C610 1.464 . S
C607 C612 1.350 . S
C607 N615 1.427 1_655 S
C608 H599 0.930 . S
C608 C606 1.378 . S
C608 C609 1.367 1_455 S
C609 C608 1.367 1_655 S
C609 C611 1.433 . S
C610 C606 1.332 1_654 S
C610 C607 1.464 . S
C610 N614 1.446 1_554 S
C611 H601 0.929 . S
C611 C609 1.433 . S
C611 N614 1.384 . S
C612 H603 0.929 . S
C612 C604 1.378 . S
C612 C607 1.350 . S
C613 H600 0.929 . S
C613 C605 1.408 1_455 S
C613 N615 1.384 . S
N614 C610 1.446 1_556 S
N614 C611 1.384 . S
N615 C607 1.427 1_455 S
N615 C613 1.384 . S
H616 C622 0.930 . S
H617 C626 0.930 . S
H618 C631 0.929 . S
H619 C629 0.929 . S
H620 C624 0.929 . S
H621 C630 0.921 1_455 S
C622 H616 0.930 . S
C622 C623 1.367 . S
C622 C630 1.361 1_455 S
C623 C622 1.367 . S
C623 C631 1.433 1_455 S
C624 H620 0.929 . S
C624 C626 1.378 . S
C624 C628 1.350 . S
C625 C628 1.463 . S
C625 C630 1.377 . S
C625 N633 1.427 . S
C626 H617 0.930 . S
C626 C624 1.378 . S
C626 C627 1.367 . S
C627 C626 1.367 . S
C627 C629 1.433 . S
C628 C624 1.350 . S
C628 C625 1.463 . S
C628 N632 1.427 . S
C629 H619 0.929 . S
C629 C627 1.433 . S
C629 N632 1.384 . S
C630 H621 0.921 1_655 S
C630 C622 1.361 1_655 S
C630 C625 1.377 . S
C631 H618 0.929 . S
C631 C623 1.433 1_655 S
C631 N633 1.384 . S
N632 C628 1.427 . S
N632 C629 1.384 . S
N633 C625 1.427 . S
N633 C631 1.384 . S
H634 C640 0.930 . S
H635 C644 0.930 . S
H636 C649 0.929 . S
H637 C647 0.929 . S
H638 C642 0.929 . S
H639 C648 0.929 . S
C640 H634 0.930 . S
C640 C641 1.367 . S
C640 C648 1.378 . S
C641 C640 1.367 . S
C641 C649 1.433 1_545 S
C642 H638 0.929 . S
C642 C644 1.378 . S
C642 C646 1.350 . S
C643 C646 1.463 . S
C643 C648 1.350 1_565 S
C643 N651 1.427 . S
C644 H635 0.930 . S
C644 C642 1.378 . S
C644 C645 1.367 . S
C645 C644 1.367 . S
C645 C647 1.433 . S
C646 C642 1.350 . S
C646 C643 1.463 . S
C646 N650 1.427 . S
C647 H637 0.929 . S
C647 C645 1.433 . S
C647 N650 1.384 . S
C648 H639 0.929 . S
C648 C640 1.378 . S
C648 C643 1.350 1_545 S
C649 H636 0.929 . S
C649 C641 1.433 1_565 S
C649 N651 1.384 . S
N650 C646 1.427 . S
N650 C647 1.384 . S
N651 C643 1.427 . S
N651 C649 1.384 . S
H652 C658 0.930 . S
H653 C662 0.930 . S
H654 C667 0.929 . S
H655 C665 0.929 . S
H656 C660 0.929 . S
H657 C666 0.929 . S
C658 H652 0.930 . S
C658 C659 1.367 . S
C658 C666 1.378 . S
C659 C658 1.367 . S
C659 C667 1.433 . S
C660 H656 0.929 . S
C660 C662 1.378 . S
C660 C664 1.350 . S
C661 C664 1.463 . S
C661 C666 1.350 . S
C661 N669 1.427 . S
C662 H653 0.930 . S
C662 C660 1.378 . S
C662 C663 1.367 . S
C663 C662 1.367 . S
C663 C665 1.433 . S
C664 C660 1.350 . S
C664 C661 1.463 . S
C664 N668 1.427 . S
C665 H655 0.929 . S
C665 C663 1.433 . S
C665 N668 1.384 . S
C666 H657 0.929 . S
C666 C658 1.378 . S
C666 C661 1.350 . S
C667 H654 0.929 . S
C667 C659 1.433 . S
C667 N669 1.384 . S
N668 C664 1.427 . S
N668 C665 1.384 . S
N669 C661 1.427 . S
N669 C667 1.384 . S
H670 C676 0.930 . S
H671 C680 0.930 . S
H672 C685 0.929 . S
H673 C683 0.929 . S
H674 C678 0.929 . S
H675 C684 0.929 . S
C676 H670 0.930 . S
C676 C677 1.367 . S
C676 C684 1.378 . S
C677 C676 1.367 . S
C677 C685 1.433 . S
C678 H674 0.929 . S
C678 C680 1.378 . S
C678 C682 1.350 . S
C679 C682 1.463 . S
C679 C684 1.350 . S
C679 N687 1.427 . S
C680 H671 0.930 . S
C680 C678 1.378 . S
C680 C681 1.367 . S
C681 C680 1.367 . S
C681 C683 1.433 . S
C682 C678 1.350 . S
C682 C679 1.463 . S
C682 N686 1.427 . S
C683 H673 0.929 . S
C683 C681 1.433 . S
C683 N686 1.384 . S
C684 H675 0.929 . S
C684 C676 1.378 . S
C684 C679 1.350 . S
C685 H672 0.929 . S
C685 C677 1.433 . S
C685 N687 1.384 . S
N686 C682 1.427 . S
N686 C683 1.384 . S
N687 C679 1.427 . S
N687 C685 1.384 . S
H688 C694 0.930 . S
H689 C698 0.930 . S
H690 C703 0.929 . S
H691 C701 0.929 . S
H692 C696 0.929 . S
H693 C702 0.929 1_556 S
C694 H688 0.930 . S
C694 C695 1.367 . S
C694 C702 1.378 . S
C695 C694 1.367 . S
C695 C703 1.433 1_655 S
C696 H692 0.929 . S
C696 C698 1.378 . S
C696 C700 1.350 . S
C697 C700 1.463 . S
C697 C702 1.350 1_455 S
C697 N705 1.427 . S
C698 H689 0.930 . S
C698 C696 1.378 . S
C698 C699 1.367 1_554 S
C699 C698 1.367 1_556 S
C699 C701 1.433 . S
C700 C696 1.350 . S
C700 C697 1.463 . S
C700 N704 1.427 1_554 S
C701 H691 0.929 . S
C701 C699 1.433 . S
C701 N704 1.384 . S
C702 H693 0.929 1_554 S
C702 C694 1.378 . S
C702 C697 1.350 1_655 S
C703 H690 0.929 . S
C703 C695 1.433 1_455 S
C703 N705 1.384 . S
N704 C700 1.427 1_556 S
N704 C701 1.384 . S
N705 C697 1.427 . S
N705 C703 1.384 . S
H706 C712 0.930 . S
H707 C716 0.930 . S
H708 C721 0.929 . S
H709 C719 0.929 . S
H710 C714 0.929 1_565 S
H711 C720 0.929 . S
C712 H706 0.930 . S
C712 C713 1.367 1_545 S
C712 C720 1.378 . S
C713 C712 1.367 1_565 S
C713 C721 1.433 . S
C714 H710 0.929 1_545 S
C714 C716 1.378 1_554 S
C714 C718 1.350 . S
C715 C718 1.463 . S
C715 C720 1.350 . S
C715 N723 1.427 1_545 S
C716 H707 0.930 . S
C716 C714 1.378 1_556 S
C716 C717 1.367 . S
C717 C716 1.367 . S
C717 C719 1.433 . S
C718 C714 1.350 . S
C718 C715 1.463 . S
C718 N722 1.427 . S
C719 H709 0.929 . S
C719 C717 1.433 . S
C719 N722 1.384 1_556 S
C720 H711 0.929 . S
C720 C712 1.378 . S
C720 C715 1.350 . S
C721 H708 0.929 . S
C721 C713 1.433 . S
C721 N723 1.384 . S
N722 C718 1.427 . S
N722 C719 1.384 1_554 S
N723 C715 1.427 1_565 S
N723 C721 1.384 . S
H724 C730 0.930 . S
H725 C734 0.930 . S
H726 C739 0.929 . S
H727 C737 0.929 . S
H728 C732 0.929 . S
H729 C738 0.929 . S
C730 H724 0.930 . S
C730 C731 1.367 . S
C730 C738 1.378 . S
C731 C730 1.367 . S
C731 C739 1.433 . S
C732 H728 0.929 . S
C732 C734 1.378 . S
C732 C736 1.350 1_556 S
C733 C736 1.463 . S
C733 C738 1.350 . S
C733 N741 1.427 . S
C734 H725 0.930 . S
C734 C732 1.378 . S
C734 C735 1.367 . S
C735 C734 1.367 . S
C735 C737 1.433 . S
C736 C732 1.350 1_554 S
C736 C733 1.463 . S
C736 N740 1.427 . S
C737 H727 0.929 . S
C737 C735 1.433 . S
C737 N740 1.384 1_556 S
C738 H729 0.929 . S
C738 C730 1.378 . S
C738 C733 1.350 . S
C739 H726 0.929 . S
C739 C731 1.433 . S
C739 N741 1.384 . S
N740 C736 1.427 . S
N740 C737 1.384 1_554 S
N741 C733 1.427 . S
N741 C739 1.384 . S
H742 C748 0.930 . S
H743 C752 0.930 . S
H744 C757 0.929 . S
H745 C755 0.929 . S
H746 C750 0.929 1_554 S
H747 C756 0.929 . S
C748 H742 0.930 . S
C748 C749 1.367 . S
C748 C756 1.378 . S
C749 C748 1.367 . S
C749 C757 1.433 . S
C750 H746 0.929 1_556 S
C750 C752 1.378 . S
C750 C754 1.350 1_556 S
C751 C754 1.463 . S
C751 C756 1.350 . S
C751 N759 1.427 . S
C752 H743 0.930 . S
C752 C750 1.378 . S
C752 C753 1.367 . S
C753 C752 1.367 . S
C753 C755 1.433 . S
C754 C750 1.350 1_554 S
C754 C751 1.463 . S
C754 N758 1.427 . S
C755 H745 0.929 . S
C755 C753 1.433 . S
C755 N758 1.384 1_556 S
C756 H747 0.929 . S
C756 C748 1.378 . S
C756 C751 1.350 . S
C757 H744 0.929 . S
C757 C749 1.433 . S
C757 N759 1.384 . S
N758 C754 1.427 . S
N758 C755 1.384 1_554 S
N759 C751 1.427 . S
N759 C757 1.384 . S
H760 C766 0.930 . S
H761 C770 0.930 . S
H762 C775 0.929 . S
H763 C773 0.938 . S
H764 C768 0.929 . S
H765 C774 0.933 . S
C766 H760 0.930 . S
C766 C767 1.367 1_655 S
C766 C774 1.379 . S
C767 C766 1.367 1_455 S
C767 C775 1.433 . S
C768 H764 0.929 . S
C768 C770 1.378 . S
C768 C772 1.350 . S
C769 C772 1.463 . S
C769 C774 1.344 1_455 S
C769 N777 1.427 . S
C770 H761 0.930 . S
C770 C768 1.378 . S
C770 C771 1.367 . S
C771 C770 1.367 . S
C771 C773 1.433 . S
C772 C768 1.350 . S
C772 C769 1.463 . S
C772 N776 1.427 . S
C773 H763 0.938 . S
C773 C771 1.433 . S
C773 N776 1.384 . S
C774 H765 0.933 . S
C774 C766 1.379 . S
C774 C769 1.344 1_655 S
C775 H762 0.929 . S
C775 C767 1.433 . S
C775 N777 1.384 . S
N776 C772 1.427 . S
N776 C773 1.384 . S
N777 C769 1.427 . S
N777 C775 1.384 . S
H778 C784 0.930 . S
H779 C788 0.930 . S
H780 C793 0.929 . S
H781 C791 0.929 . S
H782 C786 0.929 . S
H783 C792 0.929 . S
C784 H778 0.930 . S
C784 C785 1.367 . S
C784 C792 1.378 . S
C785 C784 1.367 . S
C785 C793 1.433 1_545 S
C786 H782 0.929 . S
C786 C788 1.378 . S
C786 C790 1.350 1_565 S
C787 C790 1.463 . S
C787 C792 1.350 . S
C787 N795 1.427 1_545 S
C788 H779 0.930 . S
C788 C786 1.378 . S
C788 C789 1.367 1_565 S
C789 C788 1.367 1_545 S
C789 C791 1.433 . S
C790 C786 1.350 1_545 S
C790 C787 1.463 . S
C790 N794 1.427 . S
C791 H781 0.929 . S
C791 C789 1.433 . S
C791 N794 1.384 . S
C792 H783 0.929 . S
C792 C784 1.378 . S
C792 C787 1.350 . S
C793 H780 0.929 . S
C793 C785 1.433 1_565 S
C793 N795 1.384 . S
N794 C790 1.427 . S
N794 C791 1.384 . S
N795 C787 1.427 1_565 S
N795 C793 1.384 . S
H796 C802 0.930 . S
H797 C806 0.930 . S
H798 C811 0.929 . S
H799 C809 0.929 . S
H800 C804 0.929 . S
H801 C810 0.929 . S
C802 H796 0.930 . S
C802 C803 1.367 . S
C802 C810 1.378 . S
C803 C802 1.367 . S
C803 C811 1.433 . S
C804 H800 0.929 . S
C804 C806 1.378 . S
C804 C808 1.350 . S
C805 C808 1.463 . S
C805 C810 1.350 . S
C805 N813 1.427 . S
C806 H797 0.930 . S
C806 C804 1.378 . S
C806 C807 1.367 . S
C807 C806 1.367 . S
C807 C809 1.433 . S
C808 C804 1.350 . S
C808 C805 1.463 . S
C808 N812 1.427 . S
C809 H799 0.929 . S
C809 C807 1.433 . S
C809 N812 1.384 . S
C810 H801 0.929 . S
C810 C802 1.378 . S
C810 C805 1.350 . S
C811 H798 0.929 . S
C811 C803 1.433 . S
C811 N813 1.384 . S
N812 C808 1.427 . S
N812 C809 1.384 . S
N813 C805 1.427 . S
N813 C811 1.384 . S
H814 C820 0.930 . S
H815 C824 0.930 . S
H816 C829 0.929 . S
H817 C827 0.929 . S
H818 C822 0.929 . S
H819 C828 0.929 . S
C820 H814 0.930 . S
C820 C821 1.367 . S
C820 C828 1.378 . S
C821 C820 1.367 . S
C821 C829 1.433 . S
C822 H818 0.929 . S
C822 C824 1.378 . S
C822 C826 1.350 . S
C823 C826 1.463 . S
C823 C828 1.350 . S
C823 N831 1.427 . S
C824 H815 0.930 . S
C824 C822 1.378 . S
C824 C825 1.367 . S
C825 C824 1.367 . S
C825 C827 1.433 . S
C826 C822 1.350 . S
C826 C823 1.463 . S
C826 N830 1.427 . S
C827 H817 0.929 . S
C827 C825 1.433 . S
C827 N830 1.384 . S
C828 H819 0.929 . S
C828 C820 1.378 . S
C828 C823 1.350 . S
C829 H816 0.929 . S
C829 C821 1.433 . S
C829 N831 1.384 . S
N830 C826 1.427 . S
N830 C827 1.384 . S
N831 C823 1.427 . S
N831 C829 1.384 . S
H832 C838 0.930 . S
H833 C842 0.930 . S
H834 C847 0.929 . S
H835 C845 0.929 . S
H836 C840 0.929 . S
H837 C846 0.929 . S
C838 H832 0.930 . S
C838 C839 1.367 1_455 S
C838 C846 1.378 . S
C839 C838 1.367 1_655 S
C839 C847 1.433 . S
C840 H836 0.929 . S
C840 C842 1.378 . S
C840 C844 1.350 . S
C841 C844 1.463 . S
C841 C846 1.350 1_655 S
C841 N849 1.427 . S
C842 H833 0.930 . S
C842 C840 1.378 . S
C842 C843 1.367 . S
C843 C842 1.367 . S
C843 C845 1.433 1_655 S
C844 C840 1.350 . S
C844 C841 1.463 . S
C844 N848 1.427 1_655 S
C845 H835 0.929 . S
C845 C843 1.433 1_455 S
C845 N848 1.384 . S
C846 H837 0.929 . S
C846 C838 1.378 . S
C846 C841 1.350 1_455 S
C847 H834 0.929 . S
C847 C839 1.433 . S
C847 N849 1.384 . S
N848 C844 1.427 1_455 S
N848 C845 1.384 . S
N849 C841 1.427 . S
N849 C847 1.384 . S
H850 C856 0.930 . S
H851 C860 0.930 . S
H852 C865 0.929 . S
H853 C863 0.928 1_545 S
H854 C858 0.929 . S
H855 C864 0.929 . S
C856 H850 0.930 . S
C856 C857 1.367 1_545 S
C856 C864 1.378 . S
C857 C856 1.367 1_565 S
C857 C865 1.433 . S
C858 H854 0.929 . S
C858 C860 1.378 . S
C858 C862 1.350 . S
C859 C862 1.463 . S
C859 C864 1.350 1_565 S
C859 N867 1.427 . S
C860 H851 0.930 . S
C860 C858 1.378 . S
C860 C861 1.367 . S
C861 C860 1.367 . S
C861 C863 1.433 . S
C862 C858 1.350 . S
C862 C859 1.463 . S
C862 N866 1.427 . S
C863 H853 0.928 1_565 S
C863 C861 1.433 . S
C863 N866 1.384 . S
C864 H855 0.929 . S
C864 C856 1.378 . S
C864 C859 1.350 1_545 S
C865 H852 0.929 . S
C865 C857 1.433 . S
C865 N867 1.384 . S
N866 C862 1.427 . S
N866 C863 1.384 . S
N867 C859 1.427 . S
N867 C865 1.384 . S
H868 C874 0.930 . S
H869 C878 0.930 . S
H870 C883 0.929 . S
H871 C881 0.929 . S
H872 C876 0.929 . S
H873 C882 0.929 . S
C874 H868 0.930 . S
C874 C875 1.367 . S
C874 C882 1.378 . S
C875 C874 1.367 . S
C875 C883 1.433 . S
C876 H872 0.929 . S
C876 C878 1.378 . S
C876 C880 1.350 . S
C877 C880 1.463 . S
C877 C882 1.350 . S
C877 N885 1.427 . S
C878 H869 0.930 . S
C878 C876 1.378 . S
C878 C879 1.367 . S
C879 C878 1.367 . S
C879 C881 1.433 . S
C880 C876 1.350 . S
C880 C877 1.463 . S
C880 N884 1.427 . S
C881 H871 0.929 . S
C881 C879 1.433 . S
C881 N884 1.384 . S
C882 H873 0.929 . S
C882 C874 1.378 . S
C882 C877 1.350 . S
C883 H870 0.929 . S
C883 C875 1.433 . S
C883 N885 1.384 . S
N884 C880 1.427 . S
N884 C881 1.384 . S
N885 C877 1.427 . S
N885 C883 1.384 . S
H886 C892 0.930 . S
H887 C896 0.930 . S
H888 C901 0.929 . S
H889 C899 0.929 . S
H890 C894 0.929 . S
H891 C900 0.929 . S
C892 H886 0.930 . S
C892 C893 1.367 . S
C892 C900 1.378 . S
C893 C892 1.367 . S
C893 C901 1.433 . S
C894 H890 0.929 . S
C894 C896 1.378 . S
C894 C898 1.350 . S
C895 C898 1.463 . S
C895 C900 1.350 . S
C895 N903 1.427 . S
C896 H887 0.930 . S
C896 C894 1.378 . S
C896 C897 1.367 . S
C897 C896 1.367 . S
C897 C899 1.433 . S
C898 C894 1.350 . S
C898 C895 1.463 . S
C898 N902 1.427 . S
C899 H889 0.929 . S
C899 C897 1.433 . S
C899 N902 1.384 . S
C900 H891 0.929 . S
C900 C892 1.378 . S
C900 C895 1.350 . S
C901 H888 0.929 . S
C901 C893 1.433 . S
C901 N903 1.384 . S
N902 C898 1.427 . S
N902 C899 1.384 . S
N903 C895 1.427 . S
N903 C901 1.384 . S
C479 C255 2.185 1_545 S
C483 C321 2.364 1_545 S
C501 C361 2.390 . S
C497 C294 2.172 . S
C519 C401 2.378 . S
C515 C177 2.195 . S
C537 C441 2.380 1_455 S
C533 C216 2.197 1_455 S
C555 C330 2.373 1_565 S
C551 C99 2.183 1_545 S
C569 C138 2.180 . S
C573 C370 2.392 . S
C587 C21 2.196 . S
C591 C410 2.378 . S
C605 C60 2.194 . S
C609 C450 2.376 1_655 S
C627 C327 0.462 . S
C623 C196 0.450 1_455 S
C645 C367 0.474 . S
C641 C235 0.450 1_545 S
C663 C407 0.427 . S
C659 C289 0.425 . S
C677 C157 0.438 . S
C681 C447 0.464 . S
C695 C40 0.448 . S
C699 C318 0.465 . S
C717 C358 0.427 . S
C713 C79 0.413 . S
C735 C398 0.460 . S
C731 C133 0.422 . S
C749 C1 0.424 . S
C753 C438 0.469 . S
C767 C211 2.837 . S
C771 C331 3.231 . S
C785 C250 2.826 . S
C789 C371 3.212 . S
C807 C411 3.213 . S
C803 C274 2.835 . S
C825 C451 3.226 . S
C821 C172 2.824 . S
C839 C55 2.850 1_655 S
C843 C322 3.244 . S
C861 C362 3.217 . S
C857 C94 2.830 1_565 S
C879 C402 3.217 . S
C875 C118 2.837 . S
C893 C16 2.839 . S
C897 C442 3.228 . S
