# Generated by pormake.
# Topology zzz, (3,6)-cn, num edge types: 1
# Building blocks:
#     Node 0, Type 0, BuildingBlock: CUQRIR_clean_linker_1, # of connection points: 3
#     Node 1, Type 0, BuildingBlock: CUQRIR_clean_linker_1, # of connection points: 3
#     Node 2, Type 0, BuildingBlock: CUQRIR_clean_linker_1, # of connection points: 3
#     Node 3, Type 0, BuildingBlock: CUQRIR_clean_linker_1, # of connection points: 3
#     Node 4, Type 0, BuildingBlock: CUQRIR_clean_linker_1, # of connection points: 3
#     Node 5, Type 0, BuildingBlock: CUQRIR_clean_linker_1, # of connection points: 3
#     Node 6, Type 0, BuildingBlock: CUQRIR_clean_linker_1, # of connection points: 3
#     Node 7, Type 0, BuildingBlock: CUQRIR_clean_linker_1, # of connection points: 3
#     Node 8, Type 1, BuildingBlock: KUMBOL_clean_sbu_1, # of connection points: 6
#     Node 9, Type 1, BuildingBlock: KUMBOL_clean_sbu_1, # of connection points: 6
#     Node 10, Type 1, BuildingBlock: KUMBOL_clean_sbu_1, # of connection points: 6
#     Node 11, Type 1, BuildingBlock: KUMBOL_clean_sbu_1, # of connection points: 6
#     Edge 12, Type (0, 1), BuildingBlock: TEMPAE_clean_linker_10, # of connection points: 2
#     Edge 13, Type (0, 1), BuildingBlock: TEMPAE_clean_linker_10, # of connection points: 2
#     Edge 14, Type (0, 1), BuildingBlock: TEMPAE_clean_linker_10, # of connection points: 2
#     Edge 15, Type (0, 1), BuildingBlock: TEMPAE_clean_linker_10, # of connection points: 2
#     Edge 16, Type (0, 1), BuildingBlock: TEMPAE_clean_linker_10, # of connection points: 2
#     Edge 17, Type (0, 1), BuildingBlock: TEMPAE_clean_linker_10, # of connection points: 2
#     Edge 18, Type (0, 1), BuildingBlock: TEMPAE_clean_linker_10, # of connection points: 2
#     Edge 19, Type (0, 1), BuildingBlock: TEMPAE_clean_linker_10, # of connection points: 2
#     Edge 20, Type (0, 1), BuildingBlock: TEMPAE_clean_linker_10, # of connection points: 2
#     Edge 21, Type (0, 1), BuildingBlock: TEMPAE_clean_linker_10, # of connection points: 2
#     Edge 22, Type (0, 1), BuildingBlock: TEMPAE_clean_linker_10, # of connection points: 2
#     Edge 23, Type (0, 1), BuildingBlock: TEMPAE_clean_linker_10, # of connection points: 2
#     Edge 24, Type (0, 1), BuildingBlock: TEMPAE_clean_linker_10, # of connection points: 2
#     Edge 25, Type (0, 1), BuildingBlock: TEMPAE_clean_linker_10, # of connection points: 2
#     Edge 26, Type (0, 1), BuildingBlock: TEMPAE_clean_linker_10, # of connection points: 2
#     Edge 27, Type (0, 1), BuildingBlock: TEMPAE_clean_linker_10, # of connection points: 2
#     Edge 28, Type (0, 1), BuildingBlock: TEMPAE_clean_linker_10, # of connection points: 2
#     Edge 29, Type (0, 1), BuildingBlock: TEMPAE_clean_linker_10, # of connection points: 2
#     Edge 30, Type (0, 1), BuildingBlock: TEMPAE_clean_linker_10, # of connection points: 2
#     Edge 31, Type (0, 1), BuildingBlock: TEMPAE_clean_linker_10, # of connection points: 2
#     Edge 32, Type (0, 1), BuildingBlock: TEMPAE_clean_linker_10, # of connection points: 2
#     Edge 33, Type (0, 1), BuildingBlock: TEMPAE_clean_linker_10, # of connection points: 2
#     Edge 34, Type (0, 1), BuildingBlock: TEMPAE_clean_linker_10, # of connection points: 2
#     Edge 35, Type (0, 1), BuildingBlock: TEMPAE_clean_linker_10, # of connection points: 2
# Relax obj value: 0.215
# Max RMSD: 0.114
# Mean RMSD: 0.090
data_MOF--net-zzz--node1-KUMBOL_clean_sbu_1--node2-CUQRIR_clean_linker_1--edge1-TEMPAE_clean_linker_10
_symmetry_space_group_name_H-M    P1
_symmetry_Int_Tables_number       1
_symmetry_cell_setting            triclinic
loop_
_symmetry_equiv_pos_as_xyz
'x, y, z'
_cell_length_a     47.553229
_cell_length_b     47.645947
_cell_length_c     14.511288
_cell_angle_alpha  89.762237
_cell_angle_beta   89.915783
_cell_angle_gamma 90.36938
loop_
_atom_site_label
_atom_site_type_symbol
_atom_site_fract_x
_atom_site_fract_y
_atom_site_fract_z
_atom_type_partial_charge
C0 C 0.74361 0.5427 0.32384 0.0
N1 N 0.77061 0.55378 0.32331 0.0
N2 N 0.72782 0.55241 0.25076 0.0
C3 C 0.73257 0.52218 0.39362 0.0
C4 C 0.74593 0.57018 0.2081 0.0
N5 N 0.7717 0.57017 0.24836 0.0
C6 C 0.73887 0.58636 0.1213 0.0
H7 H 0.73973 0.50081 0.37524 0.0
H8 H 0.70924 0.52213 0.39451 0.0
H9 H 0.74061 0.52745 0.46321 0.0
H10 H 0.71596 0.58669 0.10737 0.0
H11 H 0.74992 0.57697 0.06157 0.0
H12 H 0.74576 0.60849 0.1279 0.0
C13 C 0.997 0.75842 0.33861 0.0
N14 N 1.01202 0.78315 0.34492 0.0
N15 N 1.00741 0.74136 0.27015 0.0
C16 C 0.97265 0.75077 0.39926 0.0
C17 C 0.02894 0.7568 0.23539 0.0
N18 N 0.03172 0.7815 0.28019 0.0
C19 C 0.04653 0.74849 0.15348 0.0
H20 H 0.97571 0.75949 0.46935 0.0
H21 H 0.96993 0.72763 0.40297 0.0
H22 H 0.95325 0.75998 0.36983 0.0
H23 H 0.03678 0.73117 0.11368 0.0
H24 H 0.06744 0.74157 0.17825 0.0
H25 H 0.04991 0.76675 0.10693 0.0
C26 C 0.79973 0.99827 0.36325 0.0
N27 N 0.77079 0.99854 0.36448 0.0
N28 N 0.81019 0.99696 0.27444 0.0
C29 C 0.81754 0.99959 0.44786 0.0
C30 C 0.78643 0.99679 0.22292 0.0
N31 N 0.76324 0.99747 0.27666 0.0
C32 C 0.78582 0.99669 0.11898 0.0
H33 H 0.81966 0.02185 0.46895 0.0
H34 H 0.83875 0.99097 0.4343 0.0
H35 H 0.80729 0.98789 0.50517 0.0
H36 H 0.78715 0.97472 0.09451 0.0
H37 H 0.80393 1.00868 0.0903 0.0
H38 H 0.76611 1.00575 0.09161 0.0
C39 C 0.5457 0.79675 0.33199 0.0
N40 N 0.55014 0.7682 0.32991 0.0
N41 N 0.55107 0.80919 0.24751 0.0
C42 C 0.53644 0.81242 0.41571 0.0
C43 C 0.55816 0.78695 0.19462 0.0
N44 N 0.55812 0.76276 0.24407 0.0
C45 C 0.56129 0.78828 0.09093 0.0
H46 H 0.51311 0.81256 0.41781 0.0
H47 H 0.54406 0.83447 0.41297 0.0
H48 H 0.54413 0.80191 0.47916 0.0
H49 H 0.58396 0.78966 0.07328 0.0
H50 H 0.5504 0.8067 0.06108 0.0
H51 H 0.55246 0.76926 0.05779 0.0
C52 C 0.28831 0.49906 0.08172 0.0
N53 N 0.25955 0.4955 0.08869 0.0
N54 N 0.30162 0.49496 0.16547 0.0
C55 C 0.30334 0.50599 0.99384 0.0
C56 C 0.27966 0.48962 0.22273 0.0
N57 N 0.25494 0.48917 0.17661 0.0
C58 C 0.28181 0.48904 0.32677 0.0
H59 H 0.32476 0.49689 0.99411 0.0
H60 H 0.30537 0.52913 0.98776 0.0
H61 H 0.29125 0.49818 0.93371 0.0
H62 H 0.30065 0.5006 0.35141 0.0
H63 H 0.28299 0.46692 0.35057 0.0
H64 H 0.26315 0.49869 0.35937 0.0
C65 C 0.02419 0.29325 0.162 0.0
N66 N 0.04181 0.27305 0.12854 0.0
N67 N 0.0383 0.31773 0.18026 0.0
C68 C 0.99348 0.2887 0.17959 0.0
C69 C 0.06491 0.31147 0.15493 0.0
N70 N 0.06789 0.2839 0.13139 0.0
C71 C 0.08793 0.33323 0.14797 0.0
H72 H 0.98359 0.27862 0.11881 0.0
H73 H 0.98281 0.30879 0.19503 0.0
H74 H 0.99093 0.27417 0.23902 0.0
H75 H 0.0809 0.35052 0.10221 0.0
H76 H 0.10755 0.32421 0.11938 0.0
H77 H 0.09194 0.34256 0.21673 0.0
C78 C 0.25556 0.02654 0.12625 0.0
N79 N 0.28305 0.03561 0.12562 0.0
N80 N 0.24076 0.03756 0.19892 0.0
C81 C 0.24368 1.00595 0.05888 0.0
C82 C 0.26019 0.05371 0.24144 0.0
N83 N 0.28575 0.05198 0.19984 0.0
C84 C 0.25362 0.07188 0.32344 0.0
H85 H 0.22091 1.00227 0.07114 0.0
H86 H 0.25518 0.98584 0.06517 0.0
H87 H 0.24701 1.01395 0.98773 0.0
H88 H 0.25135 0.05846 0.38573 0.0
H89 H 0.23327 0.08269 0.31291 0.0
H90 H 0.27019 0.08797 0.33504 0.0
C91 C 0.50731 0.25019 0.07389 0.0
N92 N 0.49753 0.27737 0.07172 0.0
N93 N 0.49791 0.23588 0.15082 0.0
C94 C 0.52638 0.23778 1.00302 0.0
C95 C 0.48219 0.2553 0.19423 0.0
N96 N 0.48208 0.28001 0.14793 0.0
C97 C 0.46934 0.25112 0.28827 0.0
H98 H 0.52202 0.24689 0.93405 0.0
H99 H 0.52382 0.21461 1.00109 0.0
H100 H 0.54849 0.24269 0.02156 0.0
H101 H 0.48542 0.25586 0.34143 0.0
H102 H 0.46222 0.22907 0.29785 0.0
H103 H 0.45127 0.26542 0.29842 0.0
C104 C 0.05877 0.02739 0.03928 0.0
C105 C 0.03915 0.98728 0.12053 0.0
C106 C 0.04676 1.00095 0.0377 0.0
C107 C 0.04216 1.00151 0.2046 0.0
C108 C 0.06353 0.04107 0.12389 0.0
C109 C 0.05421 0.02844 0.20624 0.0
N110 N 0.06808 0.03859 0.95865 0.0
C111 C 0.08549 0.0615 0.95918 0.0
C112 C 0.07866 0.06636 0.12338 0.0
C113 C 0.09041 0.07618 0.04098 0.0
Gd114 Gd 1.00083 0.0436 0.64627 0.0
Gd115 Gd 0.05457 1.01483 0.82312 0.0
N116 N 0.04433 0.98784 0.9553 0.0
C117 C 0.02955 0.95948 0.11643 0.0
C118 C 0.03642 0.96026 0.95129 0.0
C119 C 0.02855 0.94582 0.03146 0.0
H120 H 0.03577 0.94941 0.88628 0.0
H121 H 0.02145 0.92427 0.02729 0.0
H122 H 1.01328 1.0132 0.44289 0.0
H123 H 0.09524 0.06871 0.89594 0.0
H124 H 0.98656 0.98882 0.32126 0.0
H125 H 0.02343 0.94823 0.17839 0.0
H126 H 0.03626 0.99147 0.26896 0.0
H127 H 0.95455 0.08364 0.75835 0.0
H128 H 0.08243 0.07776 0.18661 0.0
H129 H 0.10334 0.09496 0.04047 0.0
H130 H 0.88995 1.003 0.40497 0.0
H131 H 0.05741 0.03875 0.27188 0.0
H132 H 0.87201 0.06528 0.65726 0.0
H133 H 0.90334 0.09129 0.76351 0.0
N134 N 0.9524 0.05365 0.65051 0.0
C135 C 0.9357 0.04027 0.58923 0.0
C136 C 0.94121 0.0725 0.71072 0.0
C137 C 0.89452 0.06198 0.65447 0.0
C138 C 0.91214 0.07678 0.7142 0.0
C139 C 0.90629 0.04376 0.58985 0.0
H140 H 0.86717 0.0318 0.52431 0.0
N141 N 0.97684 0.024 0.5199 0.0
C142 C 0.94841 0.02469 0.52171 0.0
C143 C 0.94616 0.99796 0.38126 0.0
C144 C 0.93221 1.01164 0.4528 0.0
C145 C 0.99059 1.01251 0.4466 0.0
C146 C 0.97551 0.99879 0.37728 0.0
O147 O 0.05015 0.06288 0.81173 0.0
O148 O 1.00352 0.06707 0.78429 0.0
O149 O 0.03234 0.07587 0.62565 0.0
O150 O 0.99305 0.07791 0.55048 0.0
O151 O 1.0093 1.00812 0.87691 0.0
O152 O 0.97791 0.0305 0.77859 0.0
O153 O 1.01 0.99725 0.61854 0.0
O154 O 0.03019 0.97893 0.75085 0.0
O155 O 0.09698 1.00592 0.86838 0.0
O156 O 0.08137 0.98763 0.74175 0.0
O157 O 0.04097 0.02336 0.58897 0.0
O158 O 0.06932 0.04046 0.69926 0.0
C159 C 0.02675 0.07737 0.82062 0.0
C160 C 0.98354 0.01654 0.8555 0.0
C161 C 0.01642 0.12032 0.58875 0.0
C162 C 0.03836 0.16605 0.56694 0.0
C163 C 0.99976 0.16016 0.67573 0.0
C164 C 0.99801 0.13171 0.65387 0.0
C165 C 0.01978 0.17731 0.63244 0.0
C166 C 0.03654 0.13742 0.54591 0.0
C167 C 0.01688 0.09031 0.5695 0.0
C168 C 0.90276 1.01343 0.45615 0.0
C169 C 0.88981 0.02967 0.52425 0.0
H170 H 0.93438 0.98749 0.32775 0.0
C171 C 0.01828 0.97563 0.6689 0.0
C172 C 0.06648 0.03062 0.6151 0.0
C173 C 0.11945 0.96521 0.81404 0.0
C174 C 0.12923 0.92278 0.90071 0.0
C175 C 0.1578 0.93504 0.76764 0.0
C176 C 0.14178 0.95917 0.75422 0.0
C177 C 0.15145 0.91673 0.84023 0.0
C178 C 0.11341 0.94719 0.88774 0.0
C179 C 0.10266 0.99028 0.79748 0.0
H180 H 0.98552 0.16895 0.72604 0.0
H181 H 0.98259 0.11862 0.68829 0.0
H182 H 0.02056 0.1994 0.64927 0.0
H183 H 0.05044 0.12843 0.4947 0.0
H184 H 0.17494 0.93036 0.72111 0.0
H185 H 0.1467 0.97304 0.69695 0.0
H186 H 0.16368 0.89781 0.84888 0.0
H187 H 0.09593 0.95169 0.93319 0.0
C188 C 0.47001 0.94339 0.60252 0.0
C189 C 0.42467 0.96356 0.5644 0.0
C190 C 0.45377 0.96674 0.58074 0.0
C191 C 0.41223 0.9368 0.56961 0.0
C192 C 0.45756 0.91645 0.60689 0.0
C193 C 0.42862 0.91333 0.59057 0.0
N194 N 0.49801 0.9469 0.61827 0.0
C195 C 0.5148 0.92443 0.63738 0.0
C196 C 0.47459 0.89338 0.62727 0.0
C197 C 0.50334 0.89737 0.64213 0.0
Gd198 Gd 0.5302 0.0527 0.77223 0.0
Gd199 Gd 0.51475 0.99325 0.61146 0.0
N200 N 0.46623 0.99259 0.57754 0.0
C201 C 0.40879 0.98741 0.54444 0.0
C202 C 0.45087 0.01577 0.5549 0.0
C203 C 0.42198 1.01358 0.53951 0.0
H204 H 0.46053 0.03615 0.55122 0.0
H205 H 0.4099 0.03215 0.52435 0.0
H206 H 0.56821 0.03927 0.56821 0.0
H207 H 0.53711 0.92746 0.64822 0.0
H208 H 0.60247 0.06328 0.47149 0.0
H209 H 0.38633 0.98586 0.53309 0.0
H210 H 0.3899 0.93402 0.55749 0.0
H211 H 0.48695 0.10264 0.84221 0.0
H212 H 0.46578 0.87237 0.6312 0.0
H213 H 0.51668 0.87964 0.65742 0.0
H214 H 0.59675 0.15891 0.56399 0.0
H215 H 0.4187 0.89281 0.59395 0.0
H216 H 0.52144 0.18263 0.7669 0.0
H217 H 0.48492 0.15433 0.84638 0.0
N218 N 0.52503 0.10162 0.76507 0.0
C219 C 0.54453 0.11667 0.71779 0.0
C220 C 0.50325 0.11476 0.80832 0.0
C221 C 0.52263 0.15993 0.76587 0.0
C222 C 0.50193 0.14404 0.81052 0.0
C223 C 0.5439 0.14631 0.71697 0.0
H224 H 0.56369 0.18411 0.66351 0.0
N225 N 0.56097 0.07386 0.65825 0.0
C226 C 0.5633 0.10234 0.66295 0.0
C227 C 0.5972 0.10299 0.53836 0.0
C228 C 0.58169 0.11757 0.60409 0.0
C229 C 0.57335 0.0605 0.58513 0.0
C230 C 0.59234 0.07444 0.52705 0.0
O231 O 0.53334 0.97339 0.73867 0.0
O232 O 0.52928 1.00883 0.84612 0.0
O233 O 0.55145 0.07478 0.88378 0.0
O234 O 0.50902 0.05903 0.90144 0.0
O235 O 0.47906 0.99997 0.71903 0.0
O236 O 0.48325 0.04628 0.75514 0.0
O237 O 0.50147 0.06762 0.6582 0.0
O238 O 0.5162 0.03778 0.54739 0.0
O239 O 0.53605 1.00509 0.48498 0.0
O240 O 0.51876 0.96326 0.49969 0.0
O241 O 0.57247 0.03023 0.74418 0.0
O242 O 0.56138 0.99144 0.65373 0.0
C243 C 0.53212 0.98177 0.82492 0.0
C244 C 0.46876 0.02279 0.75792 0.0
C245 C 0.53574 0.06134 0.03355 0.0
C246 C 0.56447 0.03515 0.14121 0.0
C247 C 0.51884 0.05266 0.18852 0.0
C248 C 0.51493 0.06428 0.10131 0.0
C249 C 0.54331 0.03789 0.20843 0.0
C250 C 0.56046 0.04713 0.05394 0.0
C251 C 0.53028 0.07135 0.94027 0.0
C252 C 0.58255 0.14701 0.6079 0.0
C253 C 0.56366 0.16137 0.66428 0.0
H254 H 0.6114 0.11389 0.49172 0.0
C255 C 0.50684 0.06268 0.57135 0.0
C256 C 0.58015 1.00785 0.6955 0.0
C257 C 0.51323 0.98543 0.35831 0.0
C258 C 0.47245 1.0056 0.28421 0.0
C259 C 0.49951 0.96977 0.20638 0.0
C260 C 0.5171 0.96758 0.28325 0.0
C261 C 0.47691 0.98838 0.20728 0.0
C262 C 0.49139 1.00486 0.35705 0.0
C263 C 0.52917 0.98182 0.4433 0.0
H264 H 0.50303 0.05543 0.24099 0.0
H265 H 0.49561 0.07534 0.08644 0.0
H266 H 0.54584 0.02907 0.27667 0.0
H267 H 0.5767 0.04579 1.00176 0.0
H268 H 0.50252 0.95619 0.14786 0.0
H269 H 0.53312 0.95163 0.28561 0.0
H270 H 0.46238 0.98862 0.14986 0.0
H271 H 0.48786 0.01809 0.41593 0.0
C272 C 0.46193 0.47851 0.87324 0.0
C273 C 0.47946 0.47783 0.02984 0.0
C274 C 0.47932 0.48979 0.94096 0.0
C275 C 0.46258 0.45417 0.04822 0.0
C276 C 0.44477 0.45492 0.89232 0.0
C277 C 0.44554 0.44258 0.97982 0.0
N278 N 0.46105 0.49119 0.78935 0.0
C279 C 0.44148 0.48323 0.72543 0.0
C280 C 0.4265 0.44509 0.824 0.0
C281 C 0.42453 0.4596 0.74062 0.0
Gd282 Gd 0.55037 0.51379 0.60737 0.0
Gd283 Gd 0.49011 0.53079 0.77074 0.0
N284 N 0.49446 0.51351 0.92204 0.0
C285 C 0.49558 0.49072 0.09858 0.0
C286 C 0.50851 0.52722 0.99083 0.0
C287 C 0.50993 0.51563 0.07918 0.0
H288 H 0.51811 0.54751 0.97916 0.0
H289 H 0.52154 0.52628 0.13289 0.0
H290 H 0.52323 0.5253 0.39781 0.0
H291 H 0.43927 0.49479 0.66218 0.0
H292 H 0.52934 0.55874 0.26884 0.0
H293 H 0.49625 0.48234 0.16786 0.0
H294 H 0.46188 0.44491 0.11576 0.0
H295 H 0.61011 0.52216 0.73787 0.0
H296 H 0.41313 0.42695 0.83618 0.0
H297 H 0.40972 0.45283 0.68855 0.0
H298 H 0.60398 0.61949 0.36731 0.0
H299 H 0.43244 0.42454 0.9962 0.0
H300 H 0.65081 0.59755 0.64944 0.0
H301 H 0.64718 0.5575 0.75757 0.0
N302 N 0.58935 0.54427 0.62922 0.0
C303 C 0.59251 0.56473 0.56391 0.0
C304 C 0.60986 0.54051 0.69415 0.0
C305 C 0.63362 0.58267 0.64264 0.0
C306 C 0.6316 0.56015 0.70397 0.0
C307 C 0.61461 0.5846 0.5695 0.0
H308 H 0.63472 0.62034 0.50324 0.0
N309 N 0.55458 0.54452 0.48125 0.0
C310 C 0.57508 0.56447 0.48694 0.0
C311 C 0.56226 0.58208 0.33623 0.0
C312 C 0.57919 0.58403 0.41484 0.0
C313 C 0.53883 0.54173 0.40305 0.0
C314 C 0.54224 0.56063 0.32988 0.0
O315 O 0.49807 0.48474 0.72662 0.0
O316 O 0.54519 0.48227 0.72631 0.0
O317 O 0.55368 0.47225 0.55174 0.0
O318 O 0.58776 0.50167 0.52964 0.0
O319 O 0.53333 0.54585 0.82506 0.0
O320 O 0.56223 0.5131 0.76052 0.0
O321 O 0.52579 0.5546 0.58439 0.0
O322 O 0.51796 0.56882 0.72996 0.0
O323 O 0.46156 0.54909 0.87009 0.0
O324 O 0.45487 0.55591 0.72497 0.0
O325 O 0.5062 0.50259 0.54543 0.0
O326 O 0.47676 0.53279 0.62157 0.0
C327 C 0.5209 0.47034 0.74554 0.0
C328 C 0.55692 0.53129 0.82639 0.0
C329 C 0.57579 0.47128 0.40836 0.0
C330 C 0.54627 0.45117 0.29047 0.0
C331 C 0.59727 0.44967 0.27565 0.0
C332 C 0.59996 0.46289 0.361 0.0
C333 C 0.57053 0.4429 0.2418 0.0
C334 C 0.54948 0.46842 0.36677 0.0
C335 C 0.57676 0.47778 0.50661 0.0
C336 C 0.60043 0.60444 0.42231 0.0
C337 C 0.61796 0.60487 0.49968 0.0
H338 H 0.56483 0.59672 0.27943 0.0
C339 C 0.52372 0.57532 0.64349 0.0
C340 C 0.48158 0.51571 0.55259 0.0
C341 C 0.44669 0.59318 0.82294 0.0
C342 C 0.47227 0.63547 0.86389 0.0
C343 C 0.42187 0.63712 0.83419 0.0
C344 C 0.4216 0.60824 0.81731 0.0
C345 C 0.44699 0.6507 0.85838 0.0
C346 C 0.47182 0.60698 0.8431 0.0
C347 C 0.4477 0.56305 0.80794 0.0
H348 H 0.61584 0.4426 0.23955 0.0
H349 H 0.62057 0.46534 0.39171 0.0
H350 H 0.56909 0.42946 0.18207 0.0
H351 H 0.53093 0.47582 0.40209 0.0
H352 H 0.4025 0.64887 0.83066 0.0
H353 H 0.40202 0.59773 0.80052 0.0
H354 H 0.44637 0.67277 0.87565 0.0
H355 H 0.49105 0.59506 0.8456 0.0
C356 C 0.04938 0.45663 0.8928 0.0
C357 C 0.06724 0.47356 0.03923 0.0
C358 C 0.04871 0.47592 0.9638 0.0
C359 C 0.08692 0.45173 0.04121 0.0
C360 C 0.06853 0.43413 0.89608 0.0
C361 C 0.08761 0.4321 0.96966 0.0
N362 N 0.0304 0.45906 0.82313 0.0
C363 C 0.02749 0.43777 0.7609 0.0
C364 C 0.0673 0.4138 0.82696 0.0
C365 C 0.04633 0.41536 0.76007 0.0
Gd366 Gd 0.02308 0.55416 0.64856 0.0
Gd367 Gd 1.00028 0.4985 0.82921 0.0
N368 N 0.02986 0.49714 0.95888 0.0
C369 C 0.06545 0.49326 0.11028 0.0
C370 C 0.02729 0.51582 0.02954 0.0
C371 C 0.04535 0.51446 0.10535 0.0
H372 H 1.01161 0.53208 0.0266 0.0
H373 H 0.04387 0.52988 0.15957 0.0
H374 H 0.05489 0.52113 0.46923 0.0
H375 H 1.01014 0.43732 0.71329 0.0
H376 H 0.04162 0.50415 0.31513 0.0
H377 H 0.07941 0.49226 0.16914 0.0
H378 H 0.10146 0.44969 0.09823 0.0
H379 H 0.98374 0.61062 0.68929 0.0
H380 H 0.08163 0.39621 0.82692 0.0
H381 H 0.04424 0.39897 0.70903 0.0
H382 H 0.95278 0.54795 0.25634 0.0
H383 H 0.10259 0.41508 0.97287 0.0
H384 H 0.92339 0.61822 0.4713 0.0
H385 H 0.94316 0.63518 0.61863 0.0
N386 N 0.98572 0.57974 0.58432 0.0
C387 C 0.9766 0.57144 0.50013 0.0
C388 C 0.97512 0.60333 0.62463 0.0
C389 C 0.94097 0.60733 0.50209 0.0
C390 C 0.95218 0.61709 0.58512 0.0
C391 C 0.95347 0.58452 0.45766 0.0
H392 H 0.92641 0.58463 0.3375 0.0
N393 N 0.01584 0.54161 0.49291 0.0
C394 C 0.99183 0.55126 0.45378 0.0
C395 C 1.0015 0.525 0.31536 0.0
C396 C 0.9839 0.54312 0.36411 0.0
C397 C 0.03456 0.52661 0.4415 0.0
C398 C 0.02727 0.51723 0.35351 0.0
O399 O 0.04354 0.5206 0.84511 0.0
O400 O 0.05906 0.52574 0.69832 0.0
O401 O 0.04828 0.58848 0.70208 0.0
O402 O 0.04486 0.58266 0.55549 0.0
O403 O 0.9873 0.54336 0.87182 0.0
O404 O 0.01999 0.57064 0.79522 0.0
O405 O 0.97618 0.55148 0.68826 0.0
O406 O 0.96891 0.50509 0.70938 0.0
O407 O 0.96972 0.49878 0.93943 0.0
O408 O 0.97724 0.4603 0.86595 0.0
O409 O 0.0358 0.50842 0.61781 0.0
O410 O 0.99837 0.48478 0.67842 0.0
C411 C 0.06468 0.52112 0.78612 0.0
C412 C 1.00172 0.56718 0.86278 0.0
C413 C 0.08796 0.59734 0.61398 0.0
C414 C 0.13081 0.57237 0.57857 0.0
C415 C 0.13202 0.62278 0.60634 0.0
C416 C 0.10289 0.62266 0.61964 0.0
C417 C 0.14594 0.59786 0.58437 0.0
C418 C 0.10214 0.57237 0.59821 0.0
C419 C 0.05749 0.59612 0.62157 0.0
C420 C 0.95945 0.55432 0.32453 0.0
C421 C 0.94439 0.57517 0.37089 0.0
H422 H 0.99603 0.51802 0.24668 0.0
C423 C 0.95994 0.52935 0.67746 0.0
C424 C 0.01833 0.48677 0.61582 0.0
C425 C 0.93041 0.47268 0.89526 0.0
C426 C 0.88892 0.49954 0.85355 0.0
C427 C 0.8847 0.45029 0.89918 0.0
C428 C 0.91371 0.4491 0.91419 0.0
C429 C 0.87221 0.47551 0.8715 0.0
C430 C 0.91811 0.49668 0.85707 0.0
C431 C 0.9603 0.4738 0.91986 0.0
H432 H 0.14368 0.64233 0.60979 0.0
H433 H 0.09207 0.64216 0.63314 0.0
H434 H 0.16816 0.59886 0.56822 0.0
H435 H 0.09028 0.55298 0.59612 0.0
H436 H 0.87165 0.43216 0.91456 0.0
H437 H 0.92295 0.43014 0.94191 0.0
H438 H 0.8495 0.47646 0.87052 0.0
H439 H 0.93137 0.51434 0.83895 0.0
C440 C 0.20981 1.01026 0.3058 0.0
C441 C 0.2129 0.03114 0.23759 0.0
C442 C 0.1855 1.00844 0.36297 0.0
C443 C 0.16334 0.02822 0.35367 0.0
C444 C 0.16596 0.04872 0.28235 0.0
C445 C 0.19053 0.05003 0.22627 0.0
C446 C 0.18418 0.98604 0.43658 0.0
C447 C 0.14351 0.07051 0.26844 0.0
C448 C 0.08995 1.01444 0.46523 0.0
C449 C 0.09122 0.02979 0.54813 0.0
C450 C 0.11312 1.0133 0.40291 0.0
C451 C 0.1384 0.02844 0.42122 0.0
C452 C 0.13968 0.04407 0.50454 0.0
C453 C 0.1165 0.0443 0.56666 0.0
C454 C 0.11055 0.99577 0.317 0.0
C455 C 0.16568 0.06084 0.52808 0.0
H456 H 0.22723 0.99615 0.31765 0.0
H457 H 0.19295 0.06688 0.17648 0.0
H458 H 0.18546 0.99593 0.50555 0.0
H459 H 0.16382 0.97457 0.43321 0.0
H460 H 0.20155 0.9707 0.4301 0.0
H461 H 0.14516 0.08072 0.19965 0.0
H462 H 0.12226 0.06107 0.27588 0.0
H463 H 0.14574 0.08693 0.32196 0.0
H464 H 0.07085 1.00292 0.44931 0.0
H465 H 0.11809 0.0563 0.62974 0.0
H466 H 0.09063 0.98348 0.31534 0.0
H467 H 0.1284 0.98097 0.31222 0.0
H468 H 0.11155 1.00957 0.25529 0.0
H469 H 0.1842 0.04683 0.53125 0.0
H470 H 0.16369 0.07189 0.59502 0.0
H471 H 0.16987 0.07663 0.47323 0.0
C472 C 0.52266 0.20719 0.26932 0.0
C473 C 0.5052 0.20852 0.19107 0.0
C474 C 0.52402 0.18288 0.32647 0.0
C475 C 0.50732 0.15874 0.30668 0.0
C476 C 0.49061 0.15953 0.22509 0.0
C477 C 0.48953 0.18427 0.16959 0.0
C478 C 0.54256 0.18355 0.41076 0.0
C479 C 0.47229 0.13495 0.19821 0.0
C480 C 0.52401 0.08714 0.4241 0.0
C481 C 0.50588 0.08656 0.50115 0.0
C482 C 0.52509 0.1104 0.36218 0.0
C483 C 0.50657 0.1335 0.37316 0.0
C484 C 0.48766 0.13259 0.44935 0.0
C485 C 0.48797 0.1097 0.51281 0.0
C486 C 0.5466 0.11059 0.28577 0.0
C487 C 0.46693 0.15595 0.46399 0.0
H488 H 0.53421 0.22593 0.28867 0.0
H489 H 0.4752 0.18513 0.11165 0.0
H490 H 0.52932 0.18312 0.47378 0.0
H491 H 0.55614 0.16471 0.413 0.0
H492 H 0.55615 0.20259 0.41272 0.0
H493 H 0.46988 0.13386 0.12216 0.0
H494 H 0.48071 0.11465 0.2233 0.0
H495 H 0.45106 0.13789 0.22827 0.0
H496 H 0.53818 0.06972 0.41366 0.0
H497 H 0.47382 0.1098 0.57141 0.0
H498 H 0.56035 0.12939 0.29191 0.0
H499 H 0.53587 0.11203 0.21808 0.0
H500 H 0.56007 0.09165 0.28697 0.0
H501 H 0.47833 0.17603 0.47521 0.0
H502 H 0.45289 0.15192 0.52393 0.0
H503 H 0.4538 0.15857 0.40138 0.0
C504 C 0.34119 0.4741 0.25544 0.0
C505 C 0.33138 0.49526 0.19519 0.0
C506 C 0.36632 0.47698 0.30744 0.0
C507 C 0.38405 0.50086 0.29563 0.0
C508 C 0.37575 0.52106 0.22794 0.0
C509 C 0.34944 0.51843 0.18057 0.0
C510 C 0.3729 0.4551 0.3797 0.0
C511 C 0.39436 0.546 0.20714 0.0
C512 C 0.43135 0.52529 0.4987 0.0
C513 C 0.45753 0.51208 0.48297 0.0
C514 C 0.40783 0.52184 0.43941 0.0
C515 C 0.40987 0.50535 0.35845 0.0
C516 C 0.43621 0.49213 0.34155 0.0
C517 C 0.45947 0.49558 0.40304 0.0
C518 C 0.3803 0.53526 0.46561 0.0
C519 C 0.44018 0.4747 0.2569 0.0
H520 H 0.32791 0.45586 0.26692 0.0
H521 H 0.34258 0.53505 0.1349 0.0
H522 H 0.39375 0.44566 0.36639 0.0
H523 H 0.3739 0.46512 0.44857 0.0
H524 H 0.35691 0.43802 0.38205 0.0
H525 H 0.38781 0.55707 0.14324 0.0
H526 H 0.3935 0.56105 0.26514 0.0
H527 H 0.41656 0.53927 0.19951 0.0
H528 H 0.42882 0.53813 0.5595 0.0
H529 H 0.4792 0.48531 0.38817 0.0
H530 H 0.36344 0.51906 0.4691 0.0
H531 H 0.37411 0.55075 0.4123 0.0
H532 H 0.38143 0.54612 0.53313 0.0
H533 H 0.42198 0.46061 0.24439 0.0
H534 H 0.4594 0.46174 0.26219 0.0
H535 H 0.44193 0.48899 0.19663 0.0
C536 C 0.03102 0.33945 0.33467 0.0
C537 C 0.03071 0.34181 0.238 0.0
C538 C 0.02926 0.36335 0.39296 0.0
C539 C 0.02681 0.39086 0.35495 0.0
C540 C 0.0261 0.39328 0.25701 0.0
C541 C 0.02839 0.369 0.20038 0.0
C542 C 0.03111 0.3592 0.49587 0.0
C543 C 0.02348 0.42168 0.21156 0.0
C544 C 0.99688 0.44818 0.51678 0.0
C545 C 0.02082 0.46365 0.54393 0.0
C546 C 0.99847 0.42541 0.45402 0.0
C547 C 0.02481 0.41674 0.41772 0.0
C548 C 0.04911 0.43246 0.44433 0.0
C549 C 0.04679 0.45574 0.5054 0.0
C550 C 0.9717 0.41046 0.4268 0.0
C551 C 0.07783 0.42457 0.40912 0.0
H552 H 0.03384 0.31881 0.36472 0.0
H553 H 0.02901 0.37132 0.1261 0.0
H554 H 0.04938 0.37114 0.52328 0.0
H555 H 1.012 0.36753 0.52972 0.0
H556 H 0.03342 0.33675 0.51529 0.0
H557 H 0.02064 0.42008 0.13577 0.0
H558 H 1.00541 0.43324 0.2411 0.0
H559 H 0.04268 0.43433 0.22507 0.0
H560 H 0.97659 0.45396 0.5448 0.0
H561 H 0.06554 0.46724 0.52525 0.0
H562 H 0.97219 0.38843 0.45174 0.0
H563 H 0.96991 0.40984 0.35057 0.0
H564 H 0.9527 0.42073 0.45533 0.0
H565 H 0.08093 0.40154 0.41372 0.0
H566 H 0.09493 0.43521 0.44798 0.0
H567 H 0.07972 0.4307 0.33555 0.0
C568 C 0.85843 0.01782 0.24825 0.0
C569 C 0.83892 0.9958 0.23636 0.0
C570 C 0.88366 0.01961 0.19484 0.0
C571 C 0.88933 0.9997 0.12403 0.0
C572 C 0.87019 0.97686 0.11487 0.0
C573 C 0.84589 0.97495 0.17164 0.0
C574 C 0.90403 0.0433 0.21293 0.0
C575 C 0.87476 0.95484 0.04208 0.0
C576 C 0.9332 0.02468 0.91279 0.0
C577 C 0.95949 1.01156 0.92403 0.0
C578 C 0.91074 0.02107 0.97663 0.0
C579 C 0.91388 1.00364 0.05579 0.0
C580 C 0.94006 0.98942 0.06574 0.0
C581 C 0.96234 0.99394 1.00154 0.0
C582 C 0.88316 0.03545 0.9575 0.0
C583 C 0.94516 0.96863 0.1422 0.0
H584 H 0.85355 0.03419 0.29722 0.0
H585 H 0.83129 0.95768 0.1619 0.0
H586 H 0.92589 0.03528 0.21505 0.0
H587 H 0.90286 0.0589 0.15615 0.0
H588 H 0.89942 0.0541 0.27891 0.0
H589 H 0.85766 0.93886 0.04112 0.0
H590 H 0.87606 0.96493 0.97308 0.0
H591 H 0.89502 0.94406 0.05447 0.0
H592 H 0.93 0.03801 0.85361 0.0
H593 H 0.98199 0.98312 0.01182 0.0
H594 H 0.8784 0.05047 0.01347 0.0
H595 H 0.86585 0.01971 0.9561 0.0
H596 H 0.88334 0.04705 0.89092 0.0
H597 H 0.9632 0.97592 0.18418 0.0
H598 H 0.95134 0.94817 0.11212 0.0
H599 H 0.92665 0.96511 0.18728 0.0
C600 C 0.52457 0.85371 0.21265 0.0
C601 C 0.54974 0.83838 0.21331 0.0
C602 C 0.52147 0.87869 0.15868 0.0
C603 C 0.54394 0.88889 0.10142 0.0
C604 C 0.56971 0.87387 0.10518 0.0
C605 C 0.57238 0.84963 0.16185 0.0
C606 C 0.49369 0.89368 0.16408 0.0
C607 C 0.59453 0.88255 0.04641 0.0
C608 C 0.52312 0.93195 0.88383 0.0
C609 C 0.53412 0.95906 0.89968 0.0
C610 C 0.52597 0.90955 0.94817 0.0
C611 C 0.5402 0.91363 0.03337 0.0
C612 C 0.55169 0.94099 0.04954 0.0
C613 C 0.54774 0.96327 0.98454 0.0
C614 C 0.51434 0.88105 0.92308 0.0
C615 C 0.56935 0.94705 0.13324 0.0
H616 H 0.50677 0.84551 0.25114 0.0
H617 H 0.59199 0.83817 0.16134 0.0
H618 H 0.49317 0.90611 0.22858 0.0
H619 H 0.48999 0.90809 0.10532 0.0
H620 H 0.47605 0.87832 0.1676 0.0
H621 H 0.60969 0.86511 0.03764 0.0
H622 H 0.58775 0.88973 0.97711 0.0
H623 H 0.60579 0.90014 0.08027 0.0
H624 H 0.51183 0.92817 0.8206 0.0
H625 H 0.55602 0.98391 0.9992 0.0
H626 H 0.49664 0.87553 0.96976 0.0
H627 H 0.53078 0.86481 0.93192 0.0
H628 H 0.50658 0.88031 0.85096 0.0
H629 H 0.56409 0.96795 0.16155 0.0
H630 H 0.59179 0.94793 0.11235 0.0
H631 H 0.56701 0.93099 0.18821 0.0
C632 C 0.70156 0.53204 0.11786 0.0
C633 C 0.70126 0.54256 0.20868 0.0
C634 C 0.67697 0.53045 0.06245 0.0
C635 C 0.65025 0.53786 0.09884 0.0
C636 C 0.64941 0.54624 0.19331 0.0
C637 C 0.67474 0.54926 0.24571 0.0
C638 C 0.68001 0.52239 0.96247 0.0
C639 C 0.62185 0.55297 0.2392 0.0
C640 C 0.59112 0.5598 0.92651 0.0
C641 C 0.57812 0.53405 0.90454 0.0
C642 C 0.61394 0.56149 0.99024 0.0
C643 C 0.62382 0.53704 0.03708 0.0
C644 C 0.60945 0.51134 0.01883 0.0
C645 C 0.58762 0.51006 0.95191 0.0
C646 C 0.62821 0.58945 1.0048 0.0
C647 C 0.61732 0.48479 0.06906 0.0
H648 H 0.72175 0.52712 0.0874 0.0
H649 H 0.67382 0.55785 0.31466 0.0
H650 H 0.66787 0.50295 0.94842 0.0
H651 H 0.67129 0.53919 0.91783 0.0
H652 H 0.70227 0.51885 0.94257 0.0
H653 H 0.62316 0.54993 0.31503 0.0
H654 H 0.61664 0.57526 0.22581 0.0
H655 H 0.60445 0.53973 0.2122 0.0
H656 H 0.58436 0.57852 0.8903 0.0
H657 H 0.57788 0.49 0.93648 0.0
H658 H 0.65104 0.58768 0.99001 0.0
H659 H 0.62597 0.59583 0.07781 0.0
H660 H 0.61926 0.60621 0.96041 0.0
H661 H 0.63621 0.47554 0.03653 0.0
H662 H 0.60012 0.46892 0.06657 0.0
H663 H 0.62244 0.48924 0.14217 0.0
C664 C 0.01586 0.69006 0.25312 0.0
C665 C 0.99891 0.71362 0.23568 0.0
C666 C 1.01358 0.66497 0.20067 0.0
C667 C 0.99411 0.66295 0.12648 0.0
C668 C 0.97601 0.68626 0.11143 0.0
C669 C 0.9787 0.7111 0.16535 0.0
C670 C 0.03334 0.64113 0.22137 0.0
C671 C 0.95483 0.68569 0.03427 0.0
C672 C 0.01462 0.61623 0.91909 0.0
C673 C 0.99861 0.59139 0.93114 0.0
C674 C 1.01312 0.63919 0.98089 0.0
C675 C 0.99503 0.63814 0.05887 0.0
C676 C 0.97852 0.61329 0.07148 0.0
C677 C 0.98051 0.59041 1.00827 0.0
C678 C 0.03124 0.66475 0.96258 0.0
C679 C 0.95878 0.61079 0.15242 0.0
H680 H 0.03215 0.69191 0.30491 0.0
H681 H 0.96612 0.72929 0.14867 0.0
H682 H 0.02153 0.62101 0.22622 0.0
H683 H 0.04873 0.6391 0.16429 0.0
H684 H 0.04506 0.64442 0.28663 0.0
H685 H 0.93993 0.70351 0.03826 0.0
H686 H 0.96598 0.68682 0.96713 0.0
H687 H 0.94268 0.66573 0.03559 0.0
H688 H 0.02874 0.61788 0.86067 0.0
H689 H 0.96789 0.57169 0.01964 0.0
H690 H 0.04567 0.66831 0.02148 0.0
H691 H 0.01786 0.68365 0.95604 0.0
H692 H 0.04401 0.66271 0.89882 0.0
H693 H 0.94639 0.59096 0.15109 0.0
H694 H 0.94402 0.62872 0.15298 0.0
H695 H 0.97095 0.61163 0.21753 0.0
C696 C 0.09328 0.23874 0.14408 0.0
C697 C 0.0915 0.26737 0.16558 0.0
C698 C 0.09799 0.2191 0.21499 0.0
C699 C 0.10398 0.22902 0.30461 0.0
C700 C 0.11317 0.25692 0.31449 0.0
C701 C 0.10608 0.27624 0.24556 0.0
C702 C 0.09331 0.18833 0.19695 0.0
C703 C 0.12534 0.26724 0.40405 0.0
C704 C 0.04757 0.20959 0.47764 0.0
C705 C 0.05765 0.18436 0.5133 0.0
C706 C 0.06321 0.22512 0.41374 0.0
C707 C 0.09001 0.2152 0.38474 0.0
C708 C 0.10135 0.19091 0.42672 0.0
C709 C 0.08487 0.17559 0.48992 0.0
C710 C 0.05015 0.25167 0.37614 0.0
C711 C 0.13031 0.18026 0.40388 0.0
H712 H 0.0868 0.23148 0.07689 0.0
H713 H 0.10818 0.2981 0.26292 0.0
H714 H 0.11334 0.17696 0.20733 0.0
H715 H 0.0776 0.1794 0.24567 0.0
H716 H 0.08598 0.18446 0.12578 0.0
H717 H 0.14111 0.28409 0.39092 0.0
H718 H 0.10845 0.27627 0.44731 0.0
H719 H 0.13541 0.24989 0.44302 0.0
H720 H 0.02659 0.21647 0.49569 0.0
H721 H 0.09308 0.15636 0.51936 0.0
H722 H 0.05259 0.25304 0.30078 0.0
H723 H 0.06069 0.27021 0.40677 0.0
H724 H 0.02735 0.25311 0.39218 0.0
H725 H 0.12834 0.16126 0.36029 0.0
H726 H 0.1413 0.1738 0.46799 0.0
H727 H 0.14349 0.19607 0.36737 0.0
C728 C 0.33384 0.07173 0.19016 0.0
C729 C 0.31209 0.05982 0.24231 0.0
C730 C 0.36135 0.07238 0.22481 0.0
C731 C 0.36678 0.06119 0.31358 0.0
C732 C 0.34401 0.05576 0.37335 0.0
C733 C 0.317 0.05353 0.33582 0.0
C734 C 0.38476 0.08243 0.16286 0.0
C735 C 0.34844 0.0495 0.47411 0.0
C736 C 0.42095 1.00482 0.29314 0.0
C737 C 0.44575 0.02044 0.29732 0.0
C738 C 0.39505 0.01722 0.31052 0.0
C739 C 0.39384 0.0465 0.32861 0.0
C740 C 0.41914 0.06158 0.34405 0.0
C741 C 0.44494 0.04832 0.32794 0.0
C742 C 0.36942 0.99834 0.31131 0.0
C743 C 0.41944 0.09112 0.38099 0.0
H744 H 0.32976 0.07856 0.12018 0.0
H745 H 0.30031 0.04499 0.37841 0.0
H746 H 0.39503 0.06404 0.13073 0.0
H747 H 0.37667 0.09658 0.10827 0.0
H748 H 0.40089 0.09427 0.20181 0.0
H749 H 0.3494 0.02655 0.48568 0.0
H750 H 0.36821 0.05927 0.49941 0.0
H751 H 0.33055 0.05752 0.51543 0.0
H752 H 0.42189 0.98256 0.27797 0.0
H753 H 0.46435 0.0598 0.3395 0.0
H754 H 0.3512 1.00848 0.27905 0.0
H755 H 0.36373 0.9933 0.38347 0.0
H756 H 0.37328 0.97804 0.27643 0.0
H757 H 0.4351 0.10409 0.34306 0.0
H758 H 0.42625 0.09049 0.45412 0.0
H759 H 0.39861 0.10141 0.37791 0.0
C760 C 0.45372 0.32077 0.19429 0.0
C761 C 0.4791 0.30615 0.19461 0.0
C762 C 0.45259 0.34813 0.22965 0.0
C763 C 0.47746 0.36049 0.26519 0.0
C764 C 0.50209 0.34408 0.27552 0.0
C765 C 0.50253 0.31713 0.23922 0.0
C766 C 0.42546 0.36414 0.22191 0.0
C767 C 0.52914 0.35586 0.31484 0.0
C768 C 0.51162 0.42577 0.19254 0.0
C769 C 0.5192 0.436 0.2788 0.0
C770 C 0.49254 0.40355 0.18546 0.0
C771 C 0.48122 0.39127 0.2661 0.0
C772 C 0.48406 0.40522 0.35069 0.0
C773 C 0.50359 0.4272 0.35692 0.0
C774 C 0.4873 0.39077 0.09304 0.0
C775 C 0.46992 0.39426 0.43671 0.0
H776 H 0.43536 0.31145 0.16221 0.0
H777 H 0.52172 0.30496 0.24094 0.0
H778 H 0.42583 0.38409 0.26111 0.0
H779 H 0.42115 0.36884 0.14832 0.0
H780 H 0.40775 0.35093 0.24747 0.0
H781 H 0.53796 0.37198 0.26732 0.0
H782 H 0.5252 0.36597 0.38223 0.0
H783 H 0.5453 0.33941 0.32499 0.0
H784 H 0.52207 0.43373 0.13143 0.0
H785 H 0.50851 0.43511 0.42488 0.0
H786 H 0.46452 0.38676 0.08483 0.0
H787 H 0.49847 0.37048 0.08915 0.0
H788 H 0.49442 0.4046 0.03603 0.0
H789 H 0.44887 0.38538 0.42049 0.0
H790 H 0.46764 0.41109 0.48898 0.0
H791 H 0.48281 0.37728 0.46718 0.0
C792 C 0.21233 0.51401 0.21681 0.0
C793 C 0.22798 0.48943 0.22025 0.0
C794 C 0.19055 0.51835 0.27906 0.0
C795 C 0.18496 0.49763 0.34722 0.0
C796 C 0.19825 0.47123 0.34299 0.0
C797 C 0.21989 0.46742 0.27887 0.0
C798 C 0.17602 0.5465 0.2784 0.0
C799 C 0.19181 0.44808 0.4111 0.0
C800 C 0.17204 0.54101 0.55327 0.0
C801 C 0.14354 0.54668 0.53987 0.0
C802 C 0.18557 0.52099 0.49918 0.0
C803 C 0.17001 0.50647 0.43089 0.0
C804 C 0.14054 0.50858 0.42827 0.0
C805 C 0.12766 0.52922 0.48109 0.0
C806 C 0.21709 0.51824 0.50682 0.0
C807 C 0.12308 0.49195 0.36059 0.0
H808 H 0.21892 0.5309 0.17134 0.0
H809 H 0.23204 0.44826 0.27965 0.0
H810 H 0.15288 0.54362 0.279 0.0
H811 H 0.18191 0.5585 0.34094 0.0
H812 H 0.18171 0.5593 0.2169 0.0
H813 H 0.19369 0.42724 0.37769 0.0
H814 H 0.20735 0.44886 0.468 0.0
H815 H 0.17043 0.45001 0.44108 0.0
H816 H 0.18415 0.55339 0.60175 0.0
H817 H 0.10557 0.5331 0.46925 0.0
H818 H 0.22723 0.5298 0.44895 0.0
H819 H 0.22341 0.49595 0.50223 0.0
H820 H 0.22516 0.52702 0.57257 0.0
H821 H 0.12274 0.50303 0.2932 0.0
H822 H 0.10099 0.48967 0.38483 0.0
H823 H 0.13205 0.47079 0.34941 0.0
C824 C 0.03497 0.82783 0.20925 0.0
C825 C 0.04835 0.80471 0.24826 0.0
C826 C 0.05061 0.8491 0.16648 0.0
C827 C 0.08029 0.84711 0.16421 0.0
C828 C 0.09394 0.82489 0.21078 0.0
C829 C 0.07767 0.80355 0.25128 0.0
C830 C 0.03533 0.87274 0.11915 0.0
C831 C 0.12557 0.82304 0.2139 0.0
C832 C 0.11343 0.87518 0.94624 0.0
C833 C 0.12057 0.90251 0.97208 0.0
C834 C 0.10104 0.85667 0.00946 0.0
C835 C 0.09644 0.86561 0.10125 0.0
C836 C 0.10503 0.89278 0.12902 0.0
C837 C 0.11663 0.91115 0.06335 0.0
C838 C 0.09127 0.82819 0.97635 0.0
C839 C 0.10091 0.90311 0.22633 0.0
H840 H 1.01219 0.82843 0.20842 0.0
H841 H 0.08768 0.78564 0.28342 0.0
H842 H 0.04218 0.89305 0.14878 0.0
H843 H 0.04063 0.87307 0.04462 0.0
H844 H 1.01214 0.87094 0.12665 0.0
H845 H 0.1328 0.80712 0.26462 0.0
H846 H 0.13371 0.81724 0.14491 0.0
H847 H 0.13485 0.84374 0.23196 0.0
H848 H 0.1161 0.86881 0.8751 0.0
H849 H 0.12215 0.93244 0.08284 0.0
H850 H 0.10072 0.81135 0.01896 0.0
H851 H 0.09683 0.82443 0.90306 0.0
H852 H 0.06808 0.82643 0.98379 0.0
H853 H 0.08012 0.91339 0.23188 0.0
H854 H 0.11716 0.91899 0.24462 0.0
H855 H 0.10165 0.88572 0.27737 0.0
C856 C 0.71755 0.97466 0.25821 0.0
C857 C 0.73485 0.99811 0.24559 0.0
C858 C 0.68885 0.97608 0.23807 0.0
C859 C 0.67772 1.00171 0.20518 0.0
C860 C 0.6956 0.02509 0.18886 0.0
C861 C 0.72409 0.023 0.21004 0.0
C862 C 0.67083 0.95019 0.25233 0.0
C863 C 0.68451 0.05259 0.15221 0.0
C864 C 0.60682 1.00774 0.09423 0.0
C865 C 0.59166 0.02191 0.16282 0.0
C866 C 0.63446 0.99927 0.10912 0.0
C867 C 0.64721 1.00524 0.19449 0.0
C868 C 0.63153 0.01799 0.26578 0.0
C869 C 0.60392 0.02613 0.24911 0.0
C870 C 0.65063 0.98597 0.03116 0.0
C871 C 0.64419 0.02587 0.35703 0.0
H872 H 0.72646 0.95551 0.28579 0.0
H873 H 0.73795 0.04099 0.20163 0.0
H874 H 0.6488 0.95539 0.27037 0.0
H875 H 0.6705 0.93789 0.18762 0.0
H876 H 0.67962 0.93646 0.30707 0.0
H877 H 0.70173 0.0673 0.13233 0.0
H878 H 0.67091 0.04896 0.09128 0.0
H879 H 0.6715 0.06279 0.20587 0.0
H880 H 0.59761 1.00416 0.02728 0.0
H881 H 0.59279 0.03761 0.30205 0.0
H882 H 0.66021 0.96604 0.05456 0.0
H883 H 0.668 1.00018 1.00924 0.0
H884 H 0.63712 0.98154 0.97045 0.0
H885 H 0.66402 1.01473 0.37157 0.0
H886 H 0.62901 0.02158 0.41361 0.0
H887 H 0.64841 0.0488 0.35687 0.0
C888 C 0.53314 0.71953 0.20917 0.0
C889 C 0.55783 0.73536 0.20392 0.0
C890 C 0.52892 0.69674 0.15132 0.0
C891 C 0.5497 0.69046 0.08447 0.0
C892 C 0.57617 0.7041 0.08696 0.0
C893 C 0.57999 0.72661 0.14759 0.0
C894 C 0.50073 0.68185 0.15435 0.0
C895 C 0.59938 0.69704 0.02028 0.0
C896 C 0.51626 0.6325 0.95835 0.0
C897 C 0.49848 0.64817 0.90019 0.0
C898 C 0.53778 0.64555 1.00786 0.0
C899 C 0.54051 0.67494 1.00224 0.0
C900 C 0.52573 0.69007 0.9336 0.0
C901 C 0.50473 0.67642 0.88327 0.0
C902 C 0.55473 0.62847 0.07549 0.0
C903 C 0.52932 0.72139 0.92194 0.0
H904 H 0.51605 0.72662 0.2524 0.0
H905 H 0.59928 0.73884 0.14543 0.0
H906 H 0.48857 0.68685 0.09122 0.0
H907 H 0.50365 0.65881 0.1571 0.0
H908 H 0.48799 0.68808 0.21508 0.0
H909 H 0.62019 0.69896 0.05442 0.0
H910 H 0.59708 0.67555 0.99198 0.0
H911 H 0.59912 0.71224 0.96215 0.0
H912 H 0.51208 0.61051 0.97198 0.0
H913 H 0.49213 0.68828 0.8348 0.0
H914 H 0.5437 0.62782 0.14291 0.0
H915 H 0.57589 0.63783 0.08641 0.0
H916 H 0.55715 0.60652 0.0513 0.0
H917 H 0.51872 0.73226 0.9798 0.0
H918 H 0.52003 0.729 0.85631 0.0
H919 H 0.55189 0.7273 0.92325 0.0
C920 C 0.81235 0.54948 0.17393 0.0
C921 C 0.79666 0.57338 0.193 0.0
C922 C 0.83138 0.54916 0.1012 0.0
C923 C 0.83342 0.57295 0.04213 0.0
C924 C 0.81974 0.59814 0.06644 0.0
C925 C 0.80224 0.59831 0.14444 0.0
C926 C 0.84734 0.52232 0.08398 0.0
C927 C 0.8222 0.62458 0.00939 0.0
C928 C 0.89143 0.55 0.90215 0.0
C929 C 0.8766 0.52828 0.85665 0.0
C930 C 0.87693 0.57086 0.94959 0.0
C931 C 0.84743 0.56935 0.95197 0.0
C932 C 0.83312 0.55318 0.88507 0.0
C933 C 0.84798 0.53234 0.83797 0.0
C934 C 0.893 0.59022 0.01265 0.0
C935 C 0.80157 0.55397 0.87721 0.0
H936 H 0.80818 0.53026 0.21189 0.0
H937 H 0.79122 0.61728 0.16291 0.0
H938 H 0.83837 0.51137 0.02339 0.0
H939 H 0.86985 0.52685 0.07027 0.0
H940 H 0.84615 0.50768 0.14371 0.0
H941 H 0.80118 0.63428 1.0007 0.0
H942 H 0.83559 0.63992 0.04678 0.0
H943 H 0.8315 0.62107 0.94031 0.0
H944 H 0.91384 0.54882 0.91377 0.0
H945 H 0.83657 0.51734 0.79606 0.0
H946 H 0.89519 0.58008 0.08129 0.0
H947 H 0.88176 0.61034 0.02183 0.0
H948 H 0.91443 0.59462 0.98534 0.0
H949 H 0.7922 0.53922 0.92833 0.0
H950 H 0.79462 0.54741 0.80743 0.0
H951 H 0.79356 0.57535 0.89176 0.0
C952 C 0.03645 0.2429 0.98858 0.0
C953 C 0.03414 0.24609 0.08471 0.0
C954 C 0.03342 0.21634 0.9447 0.0
C955 C 0.02884 0.19135 0.99718 0.0
C956 C 0.02578 0.19461 0.09446 0.0
C957 C 0.02785 0.22168 0.13634 0.0
C958 C 0.03512 0.21502 0.84126 0.0
C959 C 0.02146 0.16924 0.15542 0.0
C960 C 1.00213 0.1209 0.8883 0.0
C961 C 0.02707 0.10663 0.86507 0.0
C962 C 1.00234 0.14826 0.92856 0.0
C963 C 0.02817 0.16212 0.95064 0.0
C964 C 0.05341 0.14785 0.92598 0.0
C965 C 0.05247 0.12093 0.88356 0.0
C966 C 0.97456 0.16238 0.9459 0.0
C967 C 0.08208 0.16029 0.94457 0.0
H968 H 0.04121 0.26138 0.94752 0.0
H969 H 0.02589 0.22344 0.2103 0.0
H970 H 0.05229 0.2008 0.81976 0.0
H971 H 0.01509 0.20624 0.81452 0.0
H972 H 0.03874 0.23597 0.80936 0.0
H973 H 0.0231 0.1745 0.22976 0.0
H974 H 1.00037 0.16005 0.14278 0.0
H975 H 0.03725 0.15293 0.13892 0.0
H976 H 0.98214 0.11078 0.87429 0.0
H977 H 0.07206 0.11123 0.8639 0.0
H978 H 0.97592 0.18525 0.93156 0.0
H979 H 0.96853 0.1595 0.01915 0.0
H980 H 0.95757 0.15322 0.90274 0.0
H981 H 0.09634 0.1565 0.88526 0.0
H982 H 0.09131 0.14946 1.00515 0.0
H983 H 0.08171 0.18313 0.95823 0.0
C984 C 0.32908 1.01267 0.08663 0.0
C985 C 0.30588 0.02891 0.05979 0.0
C986 C 0.35403 1.0107 0.03218 0.0
C987 C 0.35605 0.0243 0.94459 0.0
C988 C 0.33156 0.03879 0.91361 0.0
C989 C 0.30734 0.04141 0.97165 0.0
C990 C 0.37876 0.99548 0.07311 0.0
C991 C 0.33107 0.05243 0.81976 0.0
C992 C 0.42901 0.04736 0.8441 0.0
C993 C 0.43919 0.02307 0.80045 0.0
C994 C 0.40216 0.04845 0.88725 0.0
C995 C 0.38395 0.02451 0.88888 0.0
C996 C 0.39342 1.00038 0.83971 0.0
C997 C 0.42076 0.99974 0.79847 0.0
C998 C 0.3939 0.07606 0.92908 0.0
C999 C 0.37457 0.97501 0.82983 0.0
H1000 H 0.3279 1.00207 0.15229 0.0
H1001 H 0.28975 0.05398 0.94887 0.0
H1002 H 0.39385 0.98779 0.02118 0.0
H1003 H 0.39033 1.01022 0.11834 0.0
H1004 H 0.37156 0.97731 0.11512 0.0
H1005 H 0.30919 0.05564 0.79528 0.0
H1006 H 0.34153 0.07327 0.82345 0.0
H1007 H 0.34252 0.03958 0.76842 0.0
H1008 H 0.44225 0.06597 0.84553 0.0
H1009 H 0.42763 0.98081 0.76433 0.0
H1010 H 0.41072 0.08341 0.97637 0.0
H1011 H 0.37365 0.07523 0.96646 0.0
H1012 H 0.39224 0.09204 0.87347 0.0
H1013 H 0.37513 0.96237 0.89413 0.0
H1014 H 0.38139 0.9614 0.77202 0.0
H1015 H 0.35246 0.98142 0.81786 0.0
C1016 C 0.47969 0.31846 0.98053 0.0
C1017 C 0.50217 0.30082 1.0052 0.0
C1018 C 0.48337 0.34403 0.93042 0.0
C1019 C 0.51068 0.35302 0.89968 0.0
C1020 C 0.53308 0.33347 0.91594 0.0
C1021 C 0.5288 0.30853 0.97018 0.0
C1022 C 0.45728 0.36127 0.91365 0.0
C1023 C 0.56191 0.33793 0.87507 0.0
C1024 C 0.50243 0.41948 0.73962 0.0
C1025 C 0.5193 0.4401 0.78187 0.0
C1026 C 0.50134 0.39107 0.77175 0.0
C1027 C 0.51551 0.38259 0.85452 0.0
C1028 C 0.53337 0.40356 0.89551 0.0
C1029 C 0.53523 0.43135 0.85822 0.0
C1030 C 0.48578 0.37031 0.7122 0.0
C1031 C 0.55136 0.39746 0.97874 0.0
H1032 H 0.45876 0.31248 1.00289 0.0
H1033 H 0.54661 0.29534 0.98606 0.0
H1034 H 0.46187 0.38398 0.9057 0.0
H1035 H 0.44669 0.35359 0.85052 0.0
H1036 H 0.4419 0.35855 0.97076 0.0
H1037 H 0.56892 0.31836 0.8409 0.0
H1038 H 0.56269 0.35521 0.82369 0.0
H1039 H 0.57717 0.34224 0.93115 0.0
H1040 H 0.49069 0.42527 0.67849 0.0
H1041 H 0.54889 0.44662 0.89096 0.0
H1042 H 0.46311 0.37572 0.71064 0.0
H1043 H 0.48832 0.34823 0.73488 0.0
H1044 H 0.49352 0.37208 0.64017 0.0
H1045 H 0.54329 0.37984 0.02129 0.0
H1046 H 0.55339 0.41631 0.02284 0.0
H1047 H 0.57292 0.39237 0.95522 0.0
C1048 C 0.21597 0.4761 0.0153 0.0
C1049 C 0.23636 0.49773 0.02078 0.0
C1050 C 0.18938 0.47976 0.9718 0.0
C1051 C 0.18204 0.5059 0.93086 0.0
C1052 C 0.20304 0.52751 0.93225 0.0
C1053 C 0.22959 0.52328 0.97689 0.0
C1054 C 0.16848 0.45582 0.97442 0.0
C1055 C 0.19691 0.55576 0.89015 0.0
C1056 C 0.11728 0.50916 0.76375 0.0
C1057 C 0.09509 0.51821 0.82094 0.0
C1058 C 0.14524 0.50518 0.79779 0.0
C1059 C 0.15214 0.51086 0.89166 0.0
C1060 C 0.12986 0.52042 0.9491 0.0
C1061 C 0.10212 0.52392 0.91354 0.0
C1062 C 0.1674 0.49416 0.73331 0.0
C1063 C 0.13517 0.52661 0.04951 0.0
H1064 H 0.22035 0.45644 0.05006 0.0
H1065 H 0.2444 0.54057 0.98215 0.0
H1066 H 0.15164 0.46067 0.02472 0.0
H1067 H 0.15837 0.45298 0.90619 0.0
H1068 H 0.17841 0.43573 0.99528 0.0
H1069 H 0.21565 0.56981 0.89025 0.0
H1070 H 0.1895 0.55322 0.81816 0.0
H1071 H 0.17978 0.56601 0.92935 0.0
H1072 H 0.11268 0.50452 0.69228 0.0
H1073 H 0.08576 0.5314 0.95897 0.0
H1074 H 0.15891 0.48973 0.66356 0.0
H1075 H 0.17645 0.47453 0.76165 0.0
H1076 H 0.18486 0.50962 0.72723 0.0
H1077 H 0.14042 0.50688 0.08637 0.0
H1078 H 0.11664 0.53613 0.08367 0.0
H1079 H 0.15343 0.54104 0.05685 0.0
C1080 C 0.98491 0.82283 0.41887 0.0
C1081 C 1.00983 0.80731 0.40822 0.0
C1082 C 0.98464 0.84924 0.46562 0.0
C1083 C 1.00996 0.8613 0.50132 0.0
C1084 C 0.03493 0.84529 0.49223 0.0
C1085 C 0.0344 0.81872 0.44816 0.0
C1086 C 0.95723 0.86468 0.47447 0.0
C1087 C 0.06275 0.85683 0.52525 0.0
C1088 C 0.01682 0.94231 0.53091 0.0
C1089 C 0.01551 0.94626 0.62722 0.0
C1090 C 0.01494 0.91527 0.48973 0.0
C1091 C 1.01084 0.89078 0.54492 0.0
C1092 C 1.00907 0.89466 0.64221 0.0
C1093 C 1.01181 0.92195 0.68179 0.0
C1094 C 0.01806 0.91292 0.3865 0.0
C1095 C 1.00421 0.86983 0.70509 0.0
H1096 H 0.96581 0.81488 0.3876 0.0
H1097 H 0.05382 0.80717 0.44117 0.0
H1098 H 0.95408 0.8716 0.54668 0.0
H1099 H 0.95779 0.88379 0.43054 0.0
H1100 H 0.93898 0.85154 0.45343 0.0
H1101 H 0.08025 0.84182 0.5149 0.0
H1102 H 0.06781 0.87651 0.48738 0.0
H1103 H 0.06152 0.86211 0.59949 0.0
H1104 H 0.02017 0.96048 0.4871 0.0
H1105 H 1.01059 0.92427 0.75591 0.0
H1106 H 0.99906 0.9029 0.3566 0.0
H1107 H 0.03621 0.89931 0.36968 0.0
H1108 H 0.02131 0.93368 0.35282 0.0
H1109 H 1.00133 0.87618 0.77805 0.0
H1110 H 0.02234 0.85537 0.70109 0.0
H1111 H 0.98531 0.85794 0.68252 0.0
C1112 C 0.73347 0.02567 0.44616 0.0
C1113 C 0.75017 1.00144 0.44025 0.0
C1114 C 0.7082 0.02668 0.49915 0.0
C1115 C 0.69839 1.00262 0.54946 0.0
C1116 C 0.7166 0.97875 0.54936 0.0
C1117 C 0.74151 0.97826 0.49389 0.0
C1118 C 0.69224 0.05396 0.49825 0.0
C1119 C 0.70985 0.95296 0.60586 0.0
C1120 C 0.6333 0.02027 0.70669 0.0
C1121 C 0.6113 1.0039 0.66929 0.0
C1122 C 0.66159 0.01894 0.67292 0.0
C1123 C 0.66875 1.00179 0.5955 0.0
C1124 C 0.6466 0.98448 0.56004 0.0
C1125 C 0.61889 0.9856 0.5973 0.0
C1126 C 0.68352 0.03635 0.72167 0.0
C1127 C 0.65116 0.96467 0.48071 0.0
H1128 H 0.73955 0.04373 0.40491 0.0
H1129 H 0.75366 0.95914 0.48972 0.0
H1130 H 0.66974 0.05142 0.51656 0.0
H1131 H 0.70211 0.0685 0.54838 0.0
H1132 H 0.6937 0.0642 0.42947 0.0
H1133 H 0.72933 0.94451 0.63743 0.0
H1134 H 0.69443 0.9571 0.66151 0.0
H1135 H 0.70135 0.9364 0.55997 0.0
H1136 H 0.62847 0.03452 0.76246 0.0
H1137 H 0.60271 0.97256 0.56648 0.0
H1138 H 0.68092 0.05871 0.70194 0.0
H1139 H 0.7053 0.02977 0.70549 0.0
H1140 H 0.68038 0.03498 0.79745 0.0
H1141 H 0.63296 0.9653 0.43283 0.0
H1142 H 0.65239 0.9429 0.50784 0.0
H1143 H 0.6705 0.9693 0.44096 0.0
C1144 C 0.56934 0.72636 0.41232 0.0
C1145 C 0.54743 0.74591 0.40099 0.0
C1146 C 0.56559 0.70022 0.45874 0.0
C1147 C 0.53901 0.69247 0.49665 0.0
C1148 C 0.5171 0.71279 0.49 0.0
C1149 C 0.52146 0.73894 0.44258 0.0
C1150 C 0.58995 0.68016 0.46059 0.0
C1151 C 0.48845 0.7063 0.52932 0.0
C1152 C 0.52129 0.61254 0.51572 0.0
C1153 C 0.52622 0.60581 0.60916 0.0
C1154 C 0.525 0.64017 0.47938 0.0
C1155 C 0.53382 0.66269 0.53692 0.0
C1156 C 0.53877 0.65611 0.63163 0.0
C1157 C 0.53462 0.6282 0.66648 0.0
C1158 C 0.52005 0.64509 0.37794 0.0
C1159 C 0.54924 0.67856 0.69605 0.0
H1160 H 0.58936 0.7309 0.3795 0.0
H1161 H 0.504 0.75313 0.43306 0.0
H1162 H 0.58985 0.66682 0.52343 0.0
H1163 H 0.58838 0.66628 0.39971 0.0
H1164 H 0.6104 0.69151 0.45644 0.0
H1165 H 0.47428 0.72472 0.52635 0.0
H1166 H 0.47868 0.68884 0.49011 0.0
H1167 H 0.49036 0.69927 0.60206 0.0
H1168 H 0.51445 0.59596 0.46999 0.0
H1169 H 0.53875 0.62379 0.73851 0.0
H1170 H 0.54009 0.65141 0.34421 0.0
H1171 H 0.50498 0.66252 0.36795 0.0
H1172 H 0.51175 0.62612 0.34272 0.0
H1173 H 0.55473 0.66997 0.76492 0.0
H1174 H 0.53286 0.69484 0.70421 0.0
H1175 H 0.56815 0.68905 0.66663 0.0
C1176 C 0.8012 0.52492 0.43488 0.0
C1177 C 0.79532 0.54993 0.38583 0.0
C1178 C 0.82652 0.52139 0.48757 0.0
C1179 C 0.84833 0.54233 0.48726 0.0
C1180 C 0.84254 0.56729 0.43627 0.0
C1181 C 0.8162 0.57115 0.39172 0.0
C1182 C 0.82964 0.49471 0.54267 0.0
C1183 C 0.86426 0.59016 0.42333 0.0
C1184 C 0.91132 0.55199 0.6595 0.0
C1185 C 0.93114 0.53198 0.63087 0.0
C1186 C 0.88437 0.55469 0.61688 0.0
C1187 C 0.87686 0.53823 0.53822 0.0
C1188 C 0.89755 0.51875 0.50686 0.0
C1189 C 0.92358 0.5153 0.55477 0.0
C1190 C 0.86412 0.57566 0.65661 0.0
C1191 C 0.89309 0.50172 0.42072 0.0
H1192 H 0.78644 0.50763 0.43161 0.0
H1193 H 0.81248 0.59104 0.35759 0.0
H1194 H 0.83798 0.47805 0.49726 0.0
H1195 H 0.84407 0.49736 0.60211 0.0
H1196 H 0.80889 0.48736 0.5689 0.0
H1197 H 0.85734 0.60935 0.45985 0.0
H1198 H 0.8854 0.58423 0.44797 0.0
H1199 H 0.86593 0.59575 0.34909 0.0
H1200 H 0.91668 0.56537 0.71716 0.0
H1201 H 0.93865 0.50013 0.52977 0.0
H1202 H 0.84209 0.5679 0.65262 0.0
H1203 H 0.86572 0.59559 0.61734 0.0
H1204 H 0.86915 0.58057 0.72949 0.0
H1205 H 0.88585 0.48034 0.44037 0.0
H1206 H 0.91321 0.49936 0.38254 0.0
H1207 H 0.87742 0.51118 0.37353 0.0
loop_
_geom_bond_atom_site_label_1
_geom_bond_atom_site_label_2
_geom_bond_distance
_geom_bond_site_symmetry_2
_ccdc_geom_bond_type
C0 N1 1.317 . S
C0 N2 1.348 . S
C0 C3 1.485 . S
N1 C0 1.317 . S
N1 N5 1.370 . S
N2 C0 1.348 . S
N2 C4 1.346 . S
C3 C0 1.485 . S
C3 H7 0.960 . S
C3 H8 0.961 . S
C3 H9 0.960 . S
C4 N2 1.346 . S
C4 N5 1.307 . S
C4 C6 1.486 . S
N5 N1 1.370 . S
N5 C4 1.307 . S
C6 C4 1.486 . S
C6 H10 0.960 . S
C6 H11 0.960 . S
C6 H12 0.959 . S
H7 C3 0.960 . S
H8 C3 0.961 . S
H9 C3 0.960 . S
H10 C6 0.960 . S
H11 C6 0.960 . S
H12 C6 0.959 . S
C13 N14 1.317 . S
C13 N15 1.348 . S
C13 C16 1.485 . S
N14 C13 1.317 . S
N14 N18 1.370 . S
N15 C13 1.348 . S
N15 C17 1.346 . S
C16 C13 1.485 . S
C16 H20 0.960 . S
C16 H21 0.961 . S
C16 H22 0.960 . S
C17 N15 1.346 . S
C17 N18 1.307 . S
C17 C19 1.486 . S
N18 N14 1.370 . S
N18 C17 1.307 . S
C19 C17 1.486 . S
C19 H23 0.960 . S
C19 H24 0.960 . S
C19 H25 0.959 . S
H20 C16 0.960 . S
H21 C16 0.961 . S
H22 C16 0.960 . S
H23 C19 0.960 . S
H24 C19 0.960 . S
H25 C19 0.959 . S
C26 N27 1.317 . S
C26 N28 1.348 . S
C26 C29 1.485 . S
N27 C26 1.317 . S
N27 N31 1.370 . S
N28 C26 1.348 . S
N28 C30 1.346 . S
C29 C26 1.485 . S
C29 H33 0.960 . S
C29 H34 0.961 . S
C29 H35 0.960 . S
C30 N28 1.346 . S
C30 N31 1.307 . S
C30 C32 1.486 . S
N31 N27 1.370 . S
N31 C30 1.307 . S
C32 C30 1.486 . S
C32 H36 0.960 . S
C32 H37 0.960 . S
C32 H38 0.959 . S
H33 C29 0.960 . S
H34 C29 0.961 . S
H35 C29 0.960 . S
H36 C32 0.960 . S
H37 C32 0.960 . S
H38 C32 0.959 . S
C39 N40 1.317 . S
C39 N41 1.348 . S
C39 C42 1.485 . S
N40 C39 1.317 . S
N40 N44 1.370 . S
N41 C39 1.348 . S
N41 C43 1.346 . S
C42 C39 1.485 . S
C42 H46 0.960 . S
C42 H47 0.961 . S
C42 H48 0.960 . S
C43 N41 1.346 . S
C43 N44 1.307 . S
C43 C45 1.486 . S
N44 N40 1.370 . S
N44 C43 1.307 . S
C45 C43 1.486 . S
C45 H49 0.960 . S
C45 H50 0.960 . S
C45 H51 0.959 . S
H46 C42 0.960 . S
H47 C42 0.961 . S
H48 C42 0.960 . S
H49 C45 0.960 . S
H50 C45 0.960 . S
H51 C45 0.959 . S
C52 N53 1.317 . S
C52 N54 1.348 1_556 S
C52 C55 1.485 . S
N53 C52 1.317 . S
N53 N57 1.370 1_556 S
N54 C52 1.348 1_554 S
N54 C56 1.346 . S
C55 C52 1.485 . S
C55 H59 0.960 . S
C55 H60 0.961 . S
C55 H61 0.960 . S
C56 N54 1.346 . S
C56 N57 1.307 . S
C56 C58 1.486 . S
N57 N53 1.370 1_554 S
N57 C56 1.307 . S
C58 C56 1.486 . S
C58 H62 0.960 . S
C58 H63 0.960 . S
C58 H64 0.959 . S
H59 C55 0.960 . S
H60 C55 0.961 . S
H61 C55 0.960 . S
H62 C58 0.960 . S
H63 C58 0.960 . S
H64 C58 0.959 . S
C65 N66 1.317 . S
C65 N67 1.348 1_556 S
C65 C68 1.485 . S
N66 C65 1.317 . S
N66 N70 1.370 1_556 S
N67 C65 1.348 1_554 S
N67 C69 1.346 . S
C68 C65 1.485 . S
C68 H72 0.960 . S
C68 H73 0.961 . S
C68 H74 0.960 . S
C69 N67 1.346 . S
C69 N70 1.307 . S
C69 C71 1.486 . S
N70 N66 1.370 1_554 S
N70 C69 1.307 . S
C71 C69 1.486 . S
C71 H75 0.960 . S
C71 H76 0.960 . S
C71 H77 0.959 . S
H72 C68 0.960 . S
H73 C68 0.961 . S
H74 C68 0.960 . S
H75 C71 0.960 . S
H76 C71 0.960 . S
H77 C71 0.959 . S
C78 N79 1.317 . S
C78 N80 1.348 1_556 S
C78 C81 1.485 . S
N79 C78 1.317 . S
N79 N83 1.370 1_556 S
N80 C78 1.348 1_554 S
N80 C82 1.346 . S
C81 C78 1.485 . S
C81 H85 0.960 . S
C81 H86 0.961 . S
C81 H87 0.960 . S
C82 N80 1.346 . S
C82 N83 1.307 . S
C82 C84 1.486 . S
N83 N79 1.370 1_554 S
N83 C82 1.307 . S
C84 C82 1.486 . S
C84 H88 0.960 . S
C84 H89 0.960 . S
C84 H90 0.959 . S
H85 C81 0.960 . S
H86 C81 0.961 . S
H87 C81 0.960 . S
H88 C84 0.960 . S
H89 C84 0.960 . S
H90 C84 0.959 . S
C91 N92 1.317 . S
C91 N93 1.348 1_556 S
C91 C94 1.485 . S
N92 C91 1.317 . S
N92 N96 1.370 1_556 S
N93 C91 1.348 1_554 S
N93 C95 1.346 . S
C94 C91 1.485 . S
C94 H98 0.960 . S
C94 H99 0.961 . S
C94 H100 0.960 . S
C95 N93 1.346 . S
C95 N96 1.307 . S
C95 C97 1.486 . S
N96 N92 1.370 1_554 S
N96 C95 1.307 . S
C97 C95 1.486 . S
C97 H101 0.960 . S
C97 H102 0.960 . S
C97 H103 0.959 . S
H98 C94 0.960 . S
H99 C94 0.961 . S
H100 C94 0.960 . S
H101 C97 0.960 . S
H102 C97 0.960 . S
H103 C97 0.959 . S
C104 C106 1.422 . S
C104 C108 1.415 . S
C104 N110 1.369 . S
C105 C106 1.421 1_554 S
C105 C107 1.417 . S
C105 C117 1.422 . S
C106 C104 1.422 . S
C106 C105 1.421 1_556 S
C106 N116 1.359 . S
C107 C105 1.417 . S
C107 C109 1.329 . S
C107 H126 0.930 . S
C108 C104 1.415 . S
C108 C109 1.437 1_556 S
C108 C112 1.413 . S
C109 C107 1.329 . S
C109 C108 1.437 1_554 S
C109 H131 0.929 . S
N110 C104 1.369 . S
N110 C111 1.338 . S
N110 Gd115 2.622 1_545 S
C111 N110 1.338 . S
C111 C113 1.378 . S
C111 H123 0.929 1_545 S
C112 C108 1.413 . S
C112 C113 1.348 . S
C112 H128 0.931 . S
C113 C111 1.378 . S
C113 C112 1.348 . S
C113 H129 0.930 . S
Gd114 N134 2.622 . S
Gd114 N141 2.570 . S
Gd114 O148 2.353 1_655 S
Gd114 O149 2.473 . S
Gd114 O150 2.427 . S
Gd114 O152 2.388 . S
Gd114 O153 2.386 1_545 S
Gd114 O157 2.307 1_655 S
Gd114 C167 2.805 . S
Gd115 N110 2.622 1_565 S
Gd115 N116 2.570 1_565 S
Gd115 O147 2.386 1_565 S
Gd115 O151 2.307 1_465 S
Gd115 O154 2.353 . S
Gd115 O155 2.468 . S
Gd115 O156 2.427 . S
Gd115 O158 2.388 . S
Gd115 C179 2.805 . S
N116 C106 1.359 . S
N116 Gd115 2.570 1_545 S
N116 C118 1.343 1_556 S
C117 C105 1.422 . S
C117 C119 1.321 . S
C117 H125 0.931 . S
C118 N116 1.343 1_554 S
C118 C119 1.390 . S
C118 H120 0.928 1_454 S
C119 C117 1.321 . S
C119 C118 1.390 . S
C119 H121 0.931 . S
H120 C118 0.928 1_656 S
H121 C119 0.931 . S
H122 C145 0.931 . S
H123 C111 0.929 1_565 S
H124 C146 0.955 . S
H125 C117 0.931 . S
H126 C107 0.930 . S
H127 C136 0.929 . S
H128 C112 0.931 . S
H129 C113 0.930 . S
H130 C168 0.930 . S
H131 C109 0.929 . S
H132 C137 0.931 . S
H133 C138 0.930 . S
N134 Gd114 2.622 . S
N134 C135 1.369 . S
N134 C136 1.338 . S
C135 N134 1.369 . S
C135 C139 1.415 1_545 S
C135 C142 1.421 1_545 S
C136 H127 0.929 . S
C136 N134 1.338 . S
C136 C138 1.378 . S
C137 H132 0.931 . S
C137 C138 1.348 1_565 S
C137 C139 1.413 . S
C138 H133 0.930 . S
C138 C136 1.378 . S
C138 C137 1.348 1_545 S
C139 C135 1.415 1_565 S
C139 C137 1.413 . S
C139 C169 1.437 . S
H140 C169 0.929 . S
N141 Gd114 2.570 . S
N141 C142 1.352 1_545 S
N141 C145 1.343 1_655 S
C142 C135 1.421 1_565 S
C142 N141 1.352 1_565 S
C142 C144 1.430 . S
C143 C144 1.422 . S
C143 C146 1.296 1_655 S
C143 H170 0.931 . S
C144 C142 1.430 . S
C144 C143 1.422 . S
C144 C168 1.417 . S
C145 H122 0.931 . S
C145 N141 1.343 1_455 S
C145 C146 1.391 1_545 S
C146 H124 0.955 . S
C146 C143 1.296 1_455 S
C146 C145 1.391 1_565 S
O147 Gd115 2.386 1_545 S
O147 C159 1.265 . S
O148 Gd114 2.353 1_455 S
O148 C159 1.242 . S
O149 Gd114 2.473 . S
O149 C167 1.277 . S
O150 Gd114 2.427 . S
O150 C167 1.252 . S
O151 Gd115 2.307 1_645 S
O151 C160 1.261 . S
O152 Gd114 2.388 . S
O152 C160 1.252 . S
O153 Gd114 2.386 1_565 S
O153 C171 1.265 . S
O154 Gd115 2.353 . S
O154 C171 1.242 1_455 S
O155 Gd115 2.468 . S
O155 C179 1.263 . S
O156 Gd115 2.427 . S
O156 C179 1.252 . S
O157 Gd114 2.307 1_455 S
O157 C172 1.261 . S
O158 Gd115 2.388 . S
O158 C172 1.252 1_565 S
C159 O147 1.265 . S
C159 O148 1.242 . S
C160 O151 1.261 . S
C160 O152 1.252 . S
C161 C164 1.394 . S
C161 C166 1.370 . S
C161 C167 1.500 . S
C162 C165 1.383 . S
C162 C166 1.395 . S
C163 C164 1.396 . S
C163 C165 1.365 . S
C163 H180 0.929 . S
C164 C161 1.394 . S
C164 C163 1.396 . S
C164 H181 0.930 . S
C165 C162 1.383 . S
C165 C163 1.365 . S
C165 H182 0.931 . S
C166 C161 1.370 . S
C166 C162 1.395 . S
C166 H183 0.930 1_655 S
C167 Gd114 2.805 . S
C167 O149 1.277 . S
C167 O150 1.252 . S
C167 C161 1.500 . S
C168 H130 0.930 . S
C168 C144 1.417 . S
C168 C169 1.329 . S
C169 C139 1.437 . S
C169 H140 0.929 . S
C169 C168 1.329 . S
H170 C143 0.931 . S
C171 O153 1.265 . S
C171 O154 1.242 1_655 S
C172 O157 1.261 . S
C172 O158 1.252 1_545 S
C173 C176 1.394 . S
C173 C178 1.370 . S
C173 C179 1.500 . S
C174 C177 1.383 . S
C174 C178 1.395 1_554 S
C175 C176 1.396 . S
C175 C177 1.365 1_556 S
C175 H184 0.929 . S
C176 C173 1.394 . S
C176 C175 1.396 . S
C176 H185 0.930 . S
C177 C174 1.383 . S
C177 C175 1.365 1_554 S
C177 H186 0.931 . S
C178 C173 1.370 . S
C178 C174 1.395 1_556 S
C178 H187 0.930 . S
C179 Gd115 2.805 . S
C179 O155 1.263 . S
C179 O156 1.252 . S
C179 C173 1.500 . S
H180 C163 0.929 . S
H181 C164 0.930 . S
H182 C165 0.931 . S
H183 C166 0.930 1_455 S
H184 C175 0.929 . S
H185 C176 0.930 . S
H186 C177 0.931 . S
H187 C178 0.930 . S
C188 C190 1.422 . S
C188 C192 1.415 . S
C188 N194 1.369 . S
C189 C190 1.421 . S
C189 C191 1.417 . S
C189 C201 1.422 . S
C190 C188 1.422 . S
C190 C189 1.421 . S
C190 N200 1.359 . S
C191 C189 1.417 . S
C191 C193 1.329 . S
C191 H210 0.930 . S
C192 C188 1.415 . S
C192 C193 1.437 . S
C192 C196 1.413 . S
C193 C191 1.329 . S
C193 C192 1.437 . S
C193 H215 0.929 . S
N194 C188 1.369 . S
N194 C195 1.338 . S
N194 Gd199 2.622 . S
C195 N194 1.338 . S
C195 C197 1.378 . S
C195 H207 0.929 . S
C196 C192 1.413 . S
C196 C197 1.348 . S
C196 H212 0.931 . S
C197 C195 1.378 . S
C197 C196 1.348 . S
C197 H213 0.930 . S
Gd198 N218 2.622 . S
Gd198 N225 2.570 . S
Gd198 O232 2.353 1_545 S
Gd198 O233 2.468 . S
Gd198 O234 2.427 . S
Gd198 O236 2.388 . S
Gd198 O237 2.386 . S
Gd198 O241 2.307 . S
Gd198 C251 2.805 . S
Gd199 N194 2.622 . S
Gd199 N200 2.570 . S
Gd199 O231 2.386 . S
Gd199 O235 2.307 1_565 S
Gd199 O238 2.353 1_565 S
Gd199 O239 2.468 . S
Gd199 O240 2.427 . S
Gd199 O242 2.388 . S
Gd199 C263 2.805 . S
N200 C190 1.359 . S
N200 Gd199 2.570 . S
N200 C202 1.343 . S
C201 C189 1.422 . S
C201 C203 1.321 . S
C201 H209 0.931 . S
C202 N200 1.343 . S
C202 C203 1.390 . S
C202 H204 0.931 . S
C203 C201 1.321 . S
C203 C202 1.390 . S
C203 H205 0.930 . S
H204 C202 0.931 . S
H205 C203 0.930 . S
H206 C229 0.931 . S
H207 C195 0.929 . S
H208 C230 0.930 . S
H209 C201 0.931 . S
H210 C191 0.930 . S
H211 C220 0.929 . S
H212 C196 0.931 . S
H213 C197 0.930 . S
H214 C252 0.930 . S
H215 C193 0.929 . S
H216 C221 0.931 . S
H217 C222 0.930 . S
N218 Gd198 2.622 . S
N218 C219 1.369 . S
N218 C220 1.338 . S
C219 N218 1.369 . S
C219 C223 1.415 . S
C219 C226 1.422 . S
C220 H211 0.929 . S
C220 N218 1.338 . S
C220 C222 1.378 . S
C221 H216 0.931 . S
C221 C222 1.348 . S
C221 C223 1.413 . S
C222 H217 0.930 . S
C222 C220 1.378 . S
C222 C221 1.348 . S
C223 C219 1.415 . S
C223 C221 1.413 . S
C223 C253 1.437 . S
H224 C253 0.929 . S
N225 Gd198 2.570 . S
N225 C226 1.359 . S
N225 C229 1.343 . S
C226 C219 1.422 . S
C226 N225 1.359 . S
C226 C228 1.421 . S
C227 C228 1.422 . S
C227 C230 1.321 . S
C227 H254 0.931 . S
C228 C226 1.421 . S
C228 C227 1.422 . S
C228 C252 1.417 . S
C229 H206 0.931 . S
C229 N225 1.343 . S
C229 C230 1.390 . S
C230 H208 0.930 . S
C230 C227 1.321 . S
C230 C229 1.390 . S
O231 Gd199 2.386 . S
O231 C243 1.265 . S
O232 Gd198 2.353 1_565 S
O232 C243 1.242 . S
O233 Gd198 2.468 . S
O233 C251 1.263 . S
O234 Gd198 2.427 . S
O234 C251 1.252 . S
O235 Gd199 2.307 1_545 S
O235 C244 1.261 . S
O236 Gd198 2.388 . S
O236 C244 1.252 . S
O237 Gd198 2.386 . S
O237 C255 1.265 . S
O238 Gd199 2.353 1_545 S
O238 C255 1.242 . S
O239 Gd199 2.468 . S
O239 C263 1.263 . S
O240 Gd199 2.427 . S
O240 C263 1.252 . S
O241 Gd198 2.307 . S
O241 C256 1.261 . S
O242 Gd199 2.388 . S
O242 C256 1.252 1_565 S
C243 O231 1.265 . S
C243 O232 1.242 . S
C244 O235 1.261 . S
C244 O236 1.252 . S
C245 C248 1.394 . S
C245 C250 1.370 . S
C245 C251 1.500 1_554 S
C246 C249 1.383 . S
C246 C250 1.395 . S
C247 C248 1.396 . S
C247 C249 1.365 . S
C247 H264 0.929 . S
C248 C245 1.394 . S
C248 C247 1.396 . S
C248 H265 0.930 . S
C249 C246 1.383 . S
C249 C247 1.365 . S
C249 H266 0.931 . S
C250 C245 1.370 . S
C250 C246 1.395 . S
C250 H267 0.930 1_554 S
C251 Gd198 2.805 . S
C251 O233 1.263 . S
C251 O234 1.252 . S
C251 C245 1.500 1_556 S
C252 H214 0.930 . S
C252 C228 1.417 . S
C252 C253 1.329 . S
C253 C223 1.437 . S
C253 H224 0.929 . S
C253 C252 1.329 . S
H254 C227 0.931 . S
C255 O237 1.265 . S
C255 O238 1.242 . S
C256 O241 1.261 . S
C256 O242 1.252 1_545 S
C257 C260 1.394 . S
C257 C262 1.370 1_565 S
C257 C263 1.500 . S
C258 C261 1.383 1_545 S
C258 C262 1.395 . S
C259 C260 1.396 . S
C259 C261 1.365 . S
C259 H268 0.929 . S
C260 C257 1.394 . S
C260 C259 1.396 . S
C260 H269 0.930 . S
C261 C258 1.383 1_565 S
C261 C259 1.365 . S
C261 H270 0.931 . S
C262 C257 1.370 1_545 S
C262 C258 1.395 . S
C262 H271 0.930 . S
C263 Gd199 2.805 . S
C263 O239 1.263 . S
C263 O240 1.252 . S
C263 C257 1.500 . S
H264 C247 0.929 . S
H265 C248 0.930 . S
H266 C249 0.931 . S
H267 C250 0.930 1_556 S
H268 C259 0.929 . S
H269 C260 0.930 . S
H270 C261 0.931 . S
H271 C262 0.930 . S
C272 C274 1.422 . S
C272 C276 1.415 . S
C272 N278 1.369 . S
C273 C274 1.421 1_554 S
C273 C275 1.417 . S
C273 C285 1.422 . S
C274 C272 1.422 . S
C274 C273 1.421 1_556 S
C274 N284 1.359 . S
C275 C273 1.417 . S
C275 C277 1.329 . S
C275 H294 0.930 . S
C276 C272 1.415 . S
C276 C277 1.437 1_556 S
C276 C280 1.413 . S
C277 C275 1.329 . S
C277 C276 1.437 1_554 S
C277 H299 0.929 . S
N278 C272 1.369 . S
N278 C279 1.338 . S
N278 Gd283 2.622 . S
C279 N278 1.338 . S
C279 C281 1.378 . S
C279 H291 0.929 . S
C280 C276 1.413 . S
C280 C281 1.348 . S
C280 H296 0.931 . S
C281 C279 1.378 . S
C281 C280 1.348 . S
C281 H297 0.930 . S
Gd282 N302 2.622 . S
Gd282 N309 2.570 . S
Gd282 O316 2.353 . S
Gd282 O317 2.468 . S
Gd282 O318 2.427 . S
Gd282 O320 2.388 . S
Gd282 O321 2.386 . S
Gd282 O325 2.307 . S
Gd282 C335 2.805 . S
Gd283 N278 2.622 . S
Gd283 N284 2.570 . S
Gd283 O315 2.386 . S
Gd283 O319 2.307 . S
Gd283 O322 2.353 . S
Gd283 O323 2.468 . S
Gd283 O324 2.427 . S
Gd283 O326 2.388 . S
Gd283 C347 2.805 . S
N284 C274 1.359 . S
N284 Gd283 2.570 . S
N284 C286 1.343 1_556 S
C285 C273 1.422 . S
C285 C287 1.321 . S
C285 H293 0.931 . S
C286 N284 1.343 1_554 S
C286 C287 1.390 . S
C286 H288 0.928 1_554 S
C287 C285 1.321 . S
C287 C286 1.390 . S
C287 H289 0.930 . S
H288 C286 0.928 1_556 S
H289 C287 0.930 . S
H290 C313 0.931 . S
H291 C279 0.929 . S
H292 C314 0.930 . S
H293 C285 0.931 . S
H294 C275 0.930 . S
H295 C304 0.929 . S
H296 C280 0.931 . S
H297 C281 0.930 . S
H298 C336 0.930 . S
H299 C277 0.929 . S
H300 C305 0.931 . S
H301 C306 0.930 . S
N302 Gd282 2.622 . S
N302 C303 1.369 . S
N302 C304 1.338 . S
C303 N302 1.369 . S
C303 C307 1.415 . S
C303 C310 1.422 . S
C304 H295 0.929 . S
C304 N302 1.338 . S
C304 C306 1.378 . S
C305 H300 0.931 . S
C305 C306 1.348 . S
C305 C307 1.413 . S
C306 H301 0.930 . S
C306 C304 1.378 . S
C306 C305 1.348 . S
C307 C303 1.415 . S
C307 C305 1.413 . S
C307 C337 1.437 . S
H308 C337 0.929 . S
N309 Gd282 2.570 . S
N309 C310 1.359 . S
N309 C313 1.343 . S
C310 C303 1.422 . S
C310 N309 1.359 . S
C310 C312 1.421 . S
C311 C312 1.422 . S
C311 C314 1.321 . S
C311 H338 0.931 . S
C312 C310 1.421 . S
C312 C311 1.422 . S
C312 C336 1.417 . S
C313 H290 0.931 . S
C313 N309 1.343 . S
C313 C314 1.390 . S
C314 H292 0.930 . S
C314 C311 1.321 . S
C314 C313 1.390 . S
O315 Gd283 2.386 . S
O315 C327 1.265 . S
O316 Gd282 2.353 . S
O316 C327 1.242 . S
O317 Gd282 2.468 . S
O317 C335 1.263 . S
O318 Gd282 2.427 . S
O318 C335 1.252 . S
O319 Gd283 2.307 . S
O319 C328 1.261 . S
O320 Gd282 2.388 . S
O320 C328 1.252 . S
O321 Gd282 2.386 . S
O321 C339 1.265 . S
O322 Gd283 2.353 . S
O322 C339 1.242 . S
O323 Gd283 2.468 . S
O323 C347 1.263 . S
O324 Gd283 2.427 . S
O324 C347 1.252 . S
O325 Gd282 2.307 . S
O325 C340 1.261 . S
O326 Gd283 2.388 . S
O326 C340 1.252 . S
C327 O315 1.265 . S
C327 O316 1.242 . S
C328 O319 1.261 . S
C328 O320 1.252 . S
C329 C332 1.394 . S
C329 C334 1.370 . S
C329 C335 1.500 . S
C330 C333 1.383 . S
C330 C334 1.395 . S
C331 C332 1.396 . S
C331 C333 1.365 . S
C331 H348 0.929 . S
C332 C329 1.394 . S
C332 C331 1.396 . S
C332 H349 0.930 . S
C333 C330 1.383 . S
C333 C331 1.365 . S
C333 H350 0.931 . S
C334 C329 1.370 . S
C334 C330 1.395 . S
C334 H351 0.930 . S
C335 Gd282 2.805 . S
C335 O317 1.263 . S
C335 O318 1.252 . S
C335 C329 1.500 . S
C336 H298 0.930 . S
C336 C312 1.417 . S
C336 C337 1.329 . S
C337 C307 1.437 . S
C337 H308 0.929 . S
C337 C336 1.329 . S
H338 C311 0.931 . S
C339 O321 1.265 . S
C339 O322 1.242 . S
C340 O325 1.261 . S
C340 O326 1.252 . S
C341 C344 1.394 . S
C341 C346 1.370 . S
C341 C347 1.500 . S
C342 C345 1.383 . S
C342 C346 1.395 1_554 S
C343 C344 1.396 . S
C343 C345 1.365 1_556 S
C343 H352 0.929 . S
C344 C341 1.394 . S
C344 C343 1.396 . S
C344 H353 0.930 . S
C345 C342 1.383 . S
C345 C343 1.365 1_554 S
C345 H354 0.931 . S
C346 C341 1.370 . S
C346 C342 1.395 1_556 S
C346 H355 0.930 . S
C347 Gd283 2.805 . S
C347 O323 1.263 . S
C347 O324 1.252 . S
C347 C341 1.500 . S
H348 C331 0.929 . S
H349 C332 0.930 . S
H350 C333 0.931 . S
H351 C334 0.930 . S
H352 C343 0.929 . S
H353 C344 0.930 . S
H354 C345 0.931 . S
H355 C346 0.930 . S
C356 C358 1.422 . S
C356 C360 1.415 . S
C356 N362 1.369 . S
C357 C358 1.421 1_554 S
C357 C359 1.417 . S
C357 C369 1.422 . S
C358 C356 1.422 . S
C358 C357 1.421 1_556 S
C358 N368 1.359 . S
C359 C357 1.417 . S
C359 C361 1.329 . S
C359 H378 0.930 . S
C360 C356 1.415 . S
C360 C361 1.437 1_556 S
C360 C364 1.413 . S
C361 C359 1.329 . S
C361 C360 1.437 1_554 S
C361 H383 0.929 . S
N362 C356 1.369 . S
N362 C363 1.338 1_455 S
N362 Gd367 2.622 1_455 S
C363 N362 1.338 1_655 S
C363 C365 1.379 1_655 S
C363 H375 0.928 . S
C364 C360 1.413 . S
C364 C365 1.348 . S
C364 H380 0.931 . S
C365 C363 1.379 1_455 S
C365 C364 1.348 . S
C365 H381 0.930 . S
Gd366 N386 2.622 . S
Gd366 N393 2.570 . S
Gd366 O400 2.353 . S
Gd366 O401 2.468 . S
Gd366 O402 2.427 . S
Gd366 O404 2.388 . S
Gd366 O405 2.386 1_455 S
Gd366 O409 2.307 . S
Gd366 C419 2.805 . S
Gd367 N362 2.622 1_655 S
Gd367 N368 2.570 1_655 S
Gd367 O399 2.386 1_655 S
Gd367 O403 2.307 1_655 S
Gd367 O406 2.353 . S
Gd367 O407 2.468 . S
Gd367 O408 2.427 . S
Gd367 O410 2.388 . S
Gd367 C431 2.805 . S
N368 C358 1.359 . S
N368 Gd367 2.570 1_455 S
N368 C370 1.343 1_556 S
C369 C357 1.422 . S
C369 C371 1.321 . S
C369 H377 0.931 . S
C370 N368 1.343 1_554 S
C370 C371 1.390 . S
C370 H372 0.928 1_554 S
C371 C369 1.321 . S
C371 C370 1.390 . S
C371 H373 0.930 . S
H372 C370 0.928 1_556 S
H373 C371 0.930 . S
H374 C397 0.931 . S
H375 C363 0.928 . S
H376 C398 0.930 . S
H377 C369 0.931 . S
H378 C359 0.930 . S
H379 C388 0.929 . S
H380 C364 0.931 . S
H381 C365 0.930 . S
H382 C420 0.930 . S
H383 C361 0.929 . S
H384 C389 0.931 . S
H385 C390 0.930 . S
N386 Gd366 2.622 . S
N386 C387 1.387 . S
N386 C388 1.338 . S
C387 N386 1.387 . S
C387 C391 1.401 1_455 S
C387 C394 1.419 1_455 S
C388 H379 0.929 . S
C388 N386 1.338 . S
C388 C390 1.378 . S
C389 H384 0.931 . S
C389 C390 1.348 1_655 S
C389 C391 1.413 . S
C390 H385 0.930 . S
C390 C388 1.378 . S
C390 C389 1.348 1_455 S
C391 C387 1.401 1_655 S
C391 C389 1.413 . S
C391 C421 1.437 . S
H392 C421 0.929 . S
N393 Gd366 2.570 . S
N393 C394 1.359 1_455 S
N393 C397 1.343 . S
C394 C387 1.419 1_655 S
C394 N393 1.359 1_655 S
C394 C396 1.421 . S
C395 C396 1.422 . S
C395 C398 1.321 . S
C395 H422 0.931 . S
C396 C394 1.421 . S
C396 C395 1.422 . S
C396 C420 1.417 . S
C397 H374 0.931 . S
C397 N393 1.343 . S
C397 C398 1.390 1_455 S
C398 H376 0.930 . S
C398 C395 1.321 . S
C398 C397 1.390 1_655 S
O399 Gd367 2.386 1_455 S
O399 C411 1.265 . S
O400 Gd366 2.353 . S
O400 C411 1.242 . S
O401 Gd366 2.468 . S
O401 C419 1.263 . S
O402 Gd366 2.427 . S
O402 C419 1.252 . S
O403 Gd367 2.307 1_455 S
O403 C412 1.261 . S
O404 Gd366 2.388 . S
O404 C412 1.252 . S
O405 Gd366 2.386 1_655 S
O405 C423 1.265 . S
O406 Gd367 2.353 . S
O406 C423 1.242 . S
O407 Gd367 2.468 . S
O407 C431 1.263 . S
O408 Gd367 2.427 . S
O408 C431 1.252 . S
O409 Gd366 2.307 . S
O409 C424 1.261 . S
O410 Gd367 2.388 . S
O410 C424 1.252 1_655 S
C411 O399 1.265 . S
C411 O400 1.242 . S
C412 O403 1.261 . S
C412 O404 1.252 . S
C413 C416 1.394 . S
C413 C418 1.370 . S
C413 C419 1.500 . S
C414 C417 1.383 . S
C414 C418 1.395 . S
C415 C416 1.396 . S
C415 C417 1.365 . S
C415 H432 0.929 . S
C416 C413 1.394 . S
C416 C415 1.396 . S
C416 H433 0.930 . S
C417 C414 1.383 . S
C417 C415 1.365 . S
C417 H434 0.931 . S
C418 C413 1.370 . S
C418 C414 1.395 . S
C418 H435 0.930 . S
C419 Gd366 2.805 . S
C419 O401 1.263 . S
C419 O402 1.252 . S
C419 C413 1.500 . S
C420 H382 0.930 . S
C420 C396 1.417 . S
C420 C421 1.329 . S
C421 C391 1.437 . S
C421 H392 0.929 . S
C421 C420 1.329 . S
H422 C395 0.931 . S
C423 O405 1.265 . S
C423 O406 1.242 . S
C424 O409 1.261 . S
C424 O410 1.252 1_455 S
C425 C428 1.394 . S
C425 C430 1.370 . S
C425 C431 1.500 . S
C426 C429 1.383 . S
C426 C430 1.395 1_554 S
C427 C428 1.396 . S
C427 C429 1.365 1_556 S
C427 H436 0.929 . S
C428 C425 1.394 . S
C428 C427 1.396 . S
C428 H437 0.930 . S
C429 C426 1.383 . S
C429 C427 1.365 1_554 S
C429 H438 0.931 . S
C430 C425 1.370 . S
C430 C426 1.395 1_556 S
C430 H439 0.930 . S
C431 Gd367 2.805 . S
C431 O407 1.263 . S
C431 O408 1.252 . S
C431 C425 1.500 . S
H432 C415 0.929 . S
H433 C416 0.930 . S
H434 C417 0.931 . S
H435 C418 0.930 . S
H436 C427 0.929 . S
H437 C428 0.930 . S
H438 C429 0.931 . S
H439 C430 0.930 . S
C440 C441 1.391 . S
C440 C442 1.394 . S
C440 H456 0.931 . S
C441 C440 1.391 . S
C441 C445 1.376 . S
C442 C440 1.394 . S
C442 C443 1.369 . S
C442 C446 1.531 1_545 S
C443 C442 1.369 . S
C443 C444 1.410 . S
C443 C451 1.503 . S
C444 C443 1.410 . S
C444 C445 1.392 . S
C444 C447 1.511 . S
C445 C441 1.376 . S
C445 C444 1.392 . S
C445 H457 0.929 . S
C446 C442 1.531 1_565 S
C446 H458 0.960 . S
C446 H459 0.962 1_565 S
C446 H460 0.960 . S
C447 C444 1.511 . S
C447 H461 0.961 . S
C447 H462 0.961 . S
C447 H463 0.961 . S
C448 C449 1.370 . S
C448 C450 1.363 . S
C448 H464 0.931 . S
C449 C448 1.370 . S
C449 C453 1.438 . S
C450 C448 1.363 . S
C450 C451 1.370 . S
C450 C454 1.524 . S
C451 C443 1.503 . S
C451 C450 1.370 . S
C451 C452 1.403 . S
C452 C451 1.403 . S
C452 C453 1.407 . S
C452 C455 1.539 1_545 S
C453 C449 1.438 . S
C453 C452 1.407 . S
C453 H465 0.900 1_545 S
C454 C450 1.524 . S
C454 H466 0.956 . S
C454 H467 0.961 . S
C454 H468 0.961 . S
C455 C452 1.539 1_565 S
C455 H469 0.958 . S
C455 H470 0.961 . S
C455 H471 0.960 . S
H456 C440 0.931 . S
H457 C445 0.929 . S
H458 C446 0.960 . S
H459 C446 0.962 1_545 S
H460 C446 0.960 . S
H461 C447 0.961 . S
H462 C447 0.961 . S
H463 C447 0.961 . S
H464 C448 0.931 . S
H465 C453 0.900 1_565 S
H466 C454 0.956 . S
H467 C454 0.961 . S
H468 C454 0.961 . S
H469 C455 0.958 . S
H470 C455 0.961 . S
H471 C455 0.960 . S
C472 C473 1.391 . S
C472 C474 1.394 . S
C472 H488 0.931 . S
C473 C472 1.391 . S
C473 C477 1.376 . S
C474 C472 1.394 . S
C474 C475 1.369 . S
C474 C478 1.531 . S
C475 C474 1.369 . S
C475 C476 1.410 . S
C475 C483 1.503 . S
C476 C475 1.410 . S
C476 C477 1.392 . S
C476 C479 1.511 . S
C477 C473 1.376 . S
C477 C476 1.392 . S
C477 H489 0.929 . S
C478 C474 1.531 . S
C478 H490 0.960 . S
C478 H491 0.962 . S
C478 H492 0.960 . S
C479 C476 1.511 . S
C479 H493 0.961 . S
C479 H494 0.961 . S
C479 H495 0.961 . S
C480 C481 1.370 . S
C480 C482 1.363 . S
C480 H496 0.931 . S
C481 C480 1.370 . S
C481 C485 1.408 . S
C482 C480 1.363 . S
C482 C483 1.370 . S
C482 C486 1.524 . S
C483 C475 1.503 . S
C483 C482 1.370 . S
C483 C484 1.403 . S
C484 C483 1.403 . S
C484 C485 1.404 . S
C484 C487 1.539 . S
C485 C481 1.408 . S
C485 C484 1.404 . S
C485 H497 0.930 . S
C486 C482 1.524 . S
C486 H498 0.956 . S
C486 H499 0.961 . S
C486 H500 0.961 . S
C487 C484 1.539 . S
C487 H501 0.958 . S
C487 H502 0.961 . S
C487 H503 0.960 . S
H488 C472 0.931 . S
H489 C477 0.929 . S
H490 C478 0.960 . S
H491 C478 0.962 . S
H492 C478 0.960 . S
H493 C479 0.961 . S
H494 C479 0.961 . S
H495 C479 0.961 . S
H496 C480 0.931 . S
H497 C485 0.930 . S
H498 C486 0.956 . S
H499 C486 0.961 . S
H500 C486 0.961 . S
H501 C487 0.958 . S
H502 C487 0.961 . S
H503 C487 0.960 . S
C504 C505 1.391 . S
C504 C506 1.394 . S
C504 H520 0.931 . S
C505 C504 1.391 . S
C505 C509 1.376 . S
C506 C504 1.394 . S
C506 C507 1.369 . S
C506 C510 1.531 . S
C507 C506 1.369 . S
C507 C508 1.410 . S
C507 C515 1.503 . S
C508 C507 1.410 . S
C508 C509 1.392 . S
C508 C511 1.511 . S
C509 C505 1.376 . S
C509 C508 1.392 . S
C509 H521 0.929 . S
C510 C506 1.531 . S
C510 H522 0.960 . S
C510 H523 0.962 . S
C510 H524 0.960 . S
C511 C508 1.511 . S
C511 H525 0.961 . S
C511 H526 0.961 . S
C511 H527 0.961 . S
C512 C513 1.370 . S
C512 C514 1.363 . S
C512 H528 0.931 . S
C513 C512 1.370 . S
C513 C517 1.408 . S
C514 C512 1.363 . S
C514 C515 1.370 . S
C514 C518 1.524 . S
C515 C507 1.503 . S
C515 C514 1.370 . S
C515 C516 1.403 . S
C516 C515 1.403 . S
C516 C517 1.404 . S
C516 C519 1.539 . S
C517 C513 1.408 . S
C517 C516 1.404 . S
C517 H529 0.930 . S
C518 C514 1.524 . S
C518 H530 0.956 . S
C518 H531 0.961 . S
C518 H532 0.961 . S
C519 C516 1.539 . S
C519 H533 0.958 . S
C519 H534 0.961 . S
C519 H535 0.960 . S
H520 C504 0.931 . S
H521 C509 0.929 . S
H522 C510 0.960 . S
H523 C510 0.962 . S
H524 C510 0.960 . S
H525 C511 0.961 . S
H526 C511 0.961 . S
H527 C511 0.961 . S
H528 C512 0.931 . S
H529 C517 0.930 . S
H530 C518 0.956 . S
H531 C518 0.961 . S
H532 C518 0.961 . S
H533 C519 0.958 . S
H534 C519 0.961 . S
H535 C519 0.960 . S
C536 C537 1.391 . S
C536 C538 1.394 . S
C536 H552 0.931 1_455 S
C537 C536 1.391 . S
C537 C541 1.376 . S
C538 C536 1.394 . S
C538 C539 1.369 . S
C538 C542 1.531 1_455 S
C539 C538 1.369 . S
C539 C540 1.410 . S
C539 C547 1.503 . S
C540 C539 1.410 . S
C540 C541 1.392 . S
C540 C543 1.511 . S
C541 C537 1.376 . S
C541 C540 1.392 . S
C541 H553 0.929 . S
C542 C538 1.531 1_655 S
C542 H554 0.960 . S
C542 H555 0.962 . S
C542 H556 0.960 . S
C543 C540 1.511 . S
C543 H557 0.961 . S
C543 H558 0.961 . S
C543 H559 0.961 . S
C544 C545 1.370 . S
C544 C546 1.363 . S
C544 H560 0.931 . S
C545 C544 1.370 . S
C545 C549 1.408 . S
C546 C544 1.363 . S
C546 C547 1.370 . S
C546 C550 1.524 . S
C547 C539 1.503 . S
C547 C546 1.370 . S
C547 C548 1.403 . S
C548 C547 1.403 . S
C548 C549 1.404 . S
C548 C551 1.539 . S
C549 C545 1.408 . S
C549 C548 1.404 . S
C549 H561 0.930 . S
C550 C546 1.524 . S
C550 H562 0.956 . S
C550 H563 0.961 . S
C550 H564 0.961 . S
C551 C548 1.539 . S
C551 H565 0.958 . S
C551 H566 0.961 . S
C551 H567 0.960 . S
H552 C536 0.931 1_655 S
H553 C541 0.929 . S
H554 C542 0.960 . S
H555 C542 0.962 . S
H556 C542 0.960 . S
H557 C543 0.961 . S
H558 C543 0.961 . S
H559 C543 0.961 . S
H560 C544 0.931 . S
H561 C549 0.930 . S
H562 C550 0.956 . S
H563 C550 0.961 . S
H564 C550 0.961 . S
H565 C551 0.958 . S
H566 C551 0.961 . S
H567 C551 0.960 . S
C568 C569 1.391 . S
C568 C570 1.394 . S
C568 H584 0.931 . S
C569 C568 1.391 . S
C569 C573 1.376 . S
C570 C568 1.394 . S
C570 C571 1.369 . S
C570 C574 1.531 . S
C571 C570 1.369 . S
C571 C572 1.410 . S
C571 C579 1.503 . S
C572 C571 1.410 . S
C572 C573 1.392 . S
C572 C575 1.511 . S
C573 C569 1.376 . S
C573 C572 1.392 . S
C573 H585 0.929 . S
C574 C570 1.531 . S
C574 H586 0.960 . S
C574 H587 0.962 1_565 S
C574 H588 0.960 . S
C575 C572 1.511 . S
C575 H589 0.960 1_554 S
C575 H590 0.961 1_554 S
C575 H591 0.961 1_554 S
C576 C577 1.373 . S
C576 C578 1.363 1_556 S
C576 H592 0.931 . S
C577 C576 1.373 . S
C577 C581 1.404 1_545 S
C578 C576 1.363 1_554 S
C578 C579 1.370 1_545 S
C578 C582 1.524 . S
C579 C571 1.503 . S
C579 C578 1.370 1_565 S
C579 C580 1.403 1_554 S
C580 C579 1.403 1_556 S
C580 C581 1.404 . S
C580 C583 1.539 1_556 S
C581 C577 1.404 1_565 S
C581 C580 1.404 . S
C581 H593 0.930 . S
C582 C578 1.524 . S
C582 H594 0.956 . S
C582 H595 0.961 . S
C582 H596 0.961 . S
C583 C580 1.539 1_554 S
C583 H597 0.958 . S
C583 H598 0.961 1_554 S
C583 H599 0.960 . S
H584 C568 0.931 . S
H585 C573 0.929 . S
H586 C574 0.960 . S
H587 C574 0.962 1_545 S
H588 C574 0.960 . S
H589 C575 0.960 1_556 S
H590 C575 0.961 1_556 S
H591 C575 0.961 1_556 S
H592 C576 0.931 . S
H593 C581 0.930 . S
H594 C582 0.956 . S
H595 C582 0.961 . S
H596 C582 0.961 . S
H597 C583 0.958 . S
H598 C583 0.961 1_556 S
H599 C583 0.960 . S
C600 C601 1.391 . S
C600 C602 1.394 . S
C600 H616 0.931 . S
C601 C600 1.391 . S
C601 C605 1.376 . S
C602 C600 1.394 . S
C602 C603 1.369 . S
C602 C606 1.531 . S
C603 C602 1.369 . S
C603 C604 1.410 . S
C603 C611 1.503 . S
C604 C603 1.410 . S
C604 C605 1.392 . S
C604 C607 1.511 . S
C605 C601 1.376 . S
C605 C604 1.392 . S
C605 H617 0.929 . S
C606 C602 1.531 . S
C606 H618 0.960 . S
C606 H619 0.962 . S
C606 H620 0.960 . S
C607 C604 1.511 . S
C607 H621 0.961 . S
C607 H622 0.961 1_554 S
C607 H623 0.961 1_554 S
C608 C609 1.370 . S
C608 C610 1.363 1_556 S
C608 H624 0.931 . S
C609 C608 1.370 . S
C609 C613 1.408 . S
C610 C608 1.363 1_554 S
C610 C611 1.370 . S
C610 C614 1.524 . S
C611 C603 1.503 . S
C611 C610 1.370 . S
C611 C612 1.403 1_554 S
C612 C611 1.403 1_556 S
C612 C613 1.404 . S
C612 C615 1.539 1_556 S
C613 C609 1.408 . S
C613 C612 1.404 . S
C613 H625 0.930 . S
C614 C610 1.524 . S
C614 H626 0.956 . S
C614 H627 0.961 . S
C614 H628 0.961 . S
C615 C612 1.539 1_554 S
C615 H629 0.958 . S
C615 H630 0.961 1_554 S
C615 H631 0.960 . S
H616 C600 0.931 . S
H617 C605 0.929 . S
H618 C606 0.960 . S
H619 C606 0.962 . S
H620 C606 0.960 . S
H621 C607 0.961 . S
H622 C607 0.961 1_556 S
H623 C607 0.961 1_556 S
H624 C608 0.931 . S
H625 C613 0.930 . S
H626 C614 0.956 . S
H627 C614 0.961 . S
H628 C614 0.961 . S
H629 C615 0.958 . S
H630 C615 0.961 1_556 S
H631 C615 0.960 . S
C632 C633 1.391 . S
C632 C634 1.394 . S
C632 H648 0.931 . S
C633 C632 1.391 . S
C633 C637 1.376 . S
C634 C632 1.394 . S
C634 C635 1.369 . S
C634 C638 1.531 . S
C635 C634 1.369 . S
C635 C636 1.410 . S
C635 C643 1.503 . S
C636 C635 1.410 . S
C636 C637 1.392 . S
C636 C639 1.511 . S
C637 C633 1.376 . S
C637 C636 1.392 . S
C637 H649 0.929 . S
C638 C634 1.531 . S
C638 H650 0.960 . S
C638 H651 0.962 1_554 S
C638 H652 0.960 . S
C639 C636 1.511 . S
C639 H653 0.961 . S
C639 H654 0.961 . S
C639 H655 0.961 . S
C640 C641 1.370 . S
C640 C642 1.363 . S
C640 H656 0.931 . S
C641 C640 1.370 . S
C641 C645 1.408 . S
C642 C640 1.363 . S
C642 C643 1.370 1_556 S
C642 C646 1.524 . S
C643 C635 1.503 . S
C643 C642 1.370 1_554 S
C643 C644 1.403 . S
C644 C643 1.403 . S
C644 C645 1.404 1_554 S
C644 C647 1.539 . S
C645 C641 1.408 . S
C645 C644 1.404 1_556 S
C645 H657 0.930 . S
C646 C642 1.524 . S
C646 H658 0.956 . S
C646 H659 0.961 1_556 S
C646 H660 0.961 . S
C647 C644 1.539 . S
C647 H661 0.958 . S
C647 H662 0.961 . S
C647 H663 0.960 . S
H648 C632 0.931 . S
H649 C637 0.929 . S
H650 C638 0.960 . S
H651 C638 0.962 1_556 S
H652 C638 0.960 . S
H653 C639 0.961 . S
H654 C639 0.961 . S
H655 C639 0.961 . S
H656 C640 0.931 . S
H657 C645 0.930 . S
H658 C646 0.956 . S
H659 C646 0.961 1_554 S
H660 C646 0.961 . S
H661 C647 0.958 . S
H662 C647 0.961 . S
H663 C647 0.960 . S
C664 C665 1.391 . S
C664 C666 1.394 . S
C664 H680 0.924 1_655 S
C665 C664 1.391 . S
C665 C669 1.376 . S
C666 C664 1.394 . S
C666 C667 1.369 . S
C666 C670 1.531 1_655 S
C667 C666 1.369 . S
C667 C668 1.410 . S
C667 C675 1.503 . S
C668 C667 1.410 . S
C668 C669 1.392 . S
C668 C671 1.511 . S
C669 C665 1.376 . S
C669 C668 1.392 . S
C669 H681 0.929 . S
C670 C666 1.531 1_455 S
C670 H682 0.944 1_455 S
C670 H683 0.962 . S
C670 H684 0.960 . S
C671 C668 1.511 . S
C671 H685 0.961 . S
C671 H686 0.961 1_554 S
C671 H687 0.961 . S
C672 C673 1.370 1_455 S
C672 C674 1.363 . S
C672 H688 0.931 . S
C673 C672 1.370 1_655 S
C673 C677 1.408 . S
C674 C672 1.363 . S
C674 C675 1.370 1_456 S
C674 C678 1.524 1_556 S
C675 C667 1.503 . S
C675 C674 1.370 1_654 S
C675 C676 1.403 . S
C676 C675 1.403 . S
C676 C677 1.404 1_554 S
C676 C679 1.539 . S
C677 C673 1.408 . S
C677 C676 1.404 1_556 S
C677 H689 0.930 . S
C678 C674 1.524 1_554 S
C678 H690 0.956 . S
C678 H691 0.961 . S
C678 H692 0.961 1_554 S
C679 C676 1.539 . S
C679 H693 0.958 . S
C679 H694 0.961 . S
C679 H695 0.960 . S
H680 C664 0.924 1_455 S
H681 C669 0.929 . S
H682 C670 0.944 1_655 S
H683 C670 0.962 . S
H684 C670 0.960 . S
H685 C671 0.961 . S
H686 C671 0.961 1_556 S
H687 C671 0.961 . S
H688 C672 0.931 . S
H689 C677 0.930 . S
H690 C678 0.956 . S
H691 C678 0.961 . S
H692 C678 0.961 1_556 S
H693 C679 0.958 . S
H694 C679 0.961 . S
H695 C679 0.960 . S
C696 C697 1.391 . S
C696 C698 1.394 . S
C696 H712 0.931 1_554 S
C697 C696 1.391 . S
C697 C701 1.376 . S
C698 C696 1.394 . S
C698 C699 1.369 . S
C698 C702 1.531 . S
C699 C698 1.369 . S
C699 C700 1.410 . S
C699 C707 1.503 . S
C700 C699 1.410 . S
C700 C701 1.392 . S
C700 C703 1.511 . S
C701 C697 1.376 . S
C701 C700 1.392 . S
C701 H713 0.929 . S
C702 C698 1.531 . S
C702 H714 0.960 . S
C702 H715 0.962 . S
C702 H716 0.961 1_554 S
C703 C700 1.511 . S
C703 H717 0.961 . S
C703 H718 0.961 . S
C703 H719 0.961 . S
C704 C705 1.370 1_655 S
C704 C706 1.363 . S
C704 H720 0.931 . S
C705 C704 1.370 1_455 S
C705 C709 1.408 . S
C706 C704 1.363 . S
C706 C707 1.370 1_655 S
C706 C710 1.524 . S
C707 C699 1.503 . S
C707 C706 1.370 1_455 S
C707 C708 1.403 . S
C708 C707 1.403 . S
C708 C709 1.404 . S
C708 C711 1.539 . S
C709 C705 1.408 . S
C709 C708 1.404 . S
C709 H721 0.930 . S
C710 C706 1.524 . S
C710 H722 0.956 . S
C710 H723 0.961 . S
C710 H724 0.961 . S
C711 C708 1.539 . S
C711 H725 0.958 . S
C711 H726 0.961 . S
C711 H727 0.960 . S
H712 C696 0.931 1_556 S
H713 C701 0.929 . S
H714 C702 0.960 . S
H715 C702 0.962 . S
H716 C702 0.961 1_556 S
H717 C703 0.961 . S
H718 C703 0.961 . S
H719 C703 0.961 . S
H720 C704 0.931 . S
H721 C709 0.930 . S
H722 C710 0.956 . S
H723 C710 0.961 . S
H724 C710 0.961 . S
H725 C711 0.958 . S
H726 C711 0.961 . S
H727 C711 0.960 . S
C728 C729 1.391 . S
C728 C730 1.394 . S
C728 H744 0.931 . S
C729 C728 1.391 . S
C729 C733 1.376 . S
C730 C728 1.394 . S
C730 C731 1.369 . S
C730 C734 1.531 . S
C731 C730 1.369 . S
C731 C732 1.410 . S
C731 C739 1.503 . S
C732 C731 1.410 . S
C732 C733 1.392 . S
C732 C735 1.511 . S
C733 C729 1.376 . S
C733 C732 1.392 . S
C733 H745 0.929 . S
C734 C730 1.531 . S
C734 H746 0.960 . S
C734 H747 0.962 . S
C734 H748 0.960 . S
C735 C732 1.511 . S
C735 H749 0.961 . S
C735 H750 0.961 . S
C735 H751 0.961 . S
C736 C737 1.370 1_565 S
C736 C738 1.363 . S
C736 H752 0.931 . S
C737 C736 1.370 1_545 S
C737 C741 1.408 . S
C738 C736 1.363 . S
C738 C739 1.370 1_565 S
C738 C742 1.524 . S
C739 C731 1.503 . S
C739 C738 1.370 1_545 S
C739 C740 1.403 . S
C740 C739 1.403 . S
C740 C741 1.404 . S
C740 C743 1.539 . S
C741 C737 1.408 . S
C741 C740 1.404 . S
C741 H753 0.930 . S
C742 C738 1.524 . S
C742 H754 0.956 . S
C742 H755 0.961 . S
C742 H756 0.961 . S
C743 C740 1.539 . S
C743 H757 0.958 . S
C743 H758 0.961 . S
C743 H759 0.960 . S
H744 C728 0.931 . S
H745 C733 0.929 . S
H746 C734 0.960 . S
H747 C734 0.962 . S
H748 C734 0.960 . S
H749 C735 0.961 . S
H750 C735 0.961 . S
H751 C735 0.961 . S
H752 C736 0.931 . S
H753 C741 0.930 . S
H754 C742 0.956 . S
H755 C742 0.961 . S
H756 C742 0.961 . S
H757 C743 0.958 . S
H758 C743 0.961 . S
H759 C743 0.960 . S
C760 C761 1.391 . S
C760 C762 1.394 . S
C760 H776 0.931 . S
C761 C760 1.391 . S
C761 C765 1.376 . S
C762 C760 1.394 . S
C762 C763 1.369 . S
C762 C766 1.531 . S
C763 C762 1.369 . S
C763 C764 1.410 . S
C763 C771 1.503 . S
C764 C763 1.410 . S
C764 C765 1.392 . S
C764 C767 1.511 . S
C765 C761 1.376 . S
C765 C764 1.392 . S
C765 H777 0.929 1_554 S
C766 C762 1.531 . S
C766 H778 0.960 . S
C766 H779 0.962 . S
C766 H780 0.960 . S
C767 C764 1.511 . S
C767 H781 0.961 1_554 S
C767 H782 0.961 . S
C767 H783 0.961 . S
C768 C769 1.370 . S
C768 C770 1.363 . S
C768 H784 0.931 . S
C769 C768 1.370 . S
C769 C773 1.408 . S
C770 C768 1.363 . S
C770 C771 1.370 . S
C770 C774 1.524 . S
C771 C763 1.503 . S
C771 C770 1.370 . S
C771 C772 1.403 . S
C772 C771 1.403 . S
C772 C773 1.404 . S
C772 C775 1.539 . S
C773 C769 1.408 . S
C773 C772 1.404 . S
C773 H785 0.930 . S
C774 C770 1.524 . S
C774 H786 0.956 . S
C774 H787 0.961 . S
C774 H788 0.961 . S
C775 C772 1.539 . S
C775 H789 0.958 . S
C775 H790 0.961 . S
C775 H791 0.960 . S
H776 C760 0.931 . S
H777 C765 0.929 1_556 S
H778 C766 0.960 . S
H779 C766 0.962 . S
H780 C766 0.960 . S
H781 C767 0.961 1_556 S
H782 C767 0.961 . S
H783 C767 0.961 . S
H784 C768 0.931 . S
H785 C773 0.930 . S
H786 C774 0.956 . S
H787 C774 0.961 . S
H788 C774 0.961 . S
H789 C775 0.958 . S
H790 C775 0.961 . S
H791 C775 0.960 . S
C792 C793 1.391 . S
C792 C794 1.394 . S
C792 H808 0.931 . S
C793 C792 1.391 . S
C793 C797 1.376 . S
C794 C792 1.394 . S
C794 C795 1.369 . S
C794 C798 1.531 . S
C795 C794 1.369 . S
C795 C796 1.410 . S
C795 C803 1.503 . S
C796 C795 1.410 . S
C796 C797 1.392 . S
C796 C799 1.511 . S
C797 C793 1.376 . S
C797 C796 1.392 . S
C797 H809 0.929 . S
C798 C794 1.531 . S
C798 H810 0.960 . S
C798 H811 0.962 . S
C798 H812 0.960 1_554 S
C799 C796 1.511 . S
C799 H813 0.961 . S
C799 H814 0.961 . S
C799 H815 0.961 . S
C800 C801 1.370 . S
C800 C802 1.363 . S
C800 H816 0.931 . S
C801 C800 1.370 . S
C801 C805 1.408 . S
C802 C800 1.363 . S
C802 C803 1.370 . S
C802 C806 1.524 . S
C803 C795 1.503 . S
C803 C802 1.370 . S
C803 C804 1.403 . S
C804 C803 1.403 . S
C804 C805 1.404 . S
C804 C807 1.539 . S
C805 C801 1.408 . S
C805 C804 1.404 . S
C805 H817 0.930 . S
C806 C802 1.524 . S
C806 H818 0.956 . S
C806 H819 0.961 . S
C806 H820 0.961 . S
C807 C804 1.539 . S
C807 H821 0.958 . S
C807 H822 0.961 . S
C807 H823 0.960 . S
H808 C792 0.931 . S
H809 C797 0.929 . S
H810 C798 0.960 . S
H811 C798 0.962 . S
H812 C798 0.960 1_556 S
H813 C799 0.961 . S
H814 C799 0.961 . S
H815 C799 0.961 . S
H816 C800 0.931 . S
H817 C805 0.930 . S
H818 C806 0.956 . S
H819 C806 0.961 . S
H820 C806 0.961 . S
H821 C807 0.958 . S
H822 C807 0.961 . S
H823 C807 0.960 . S
C824 C825 1.391 . S
C824 C826 1.394 . S
C824 H840 0.931 . S
C825 C824 1.391 . S
C825 C829 1.376 1_655 S
C826 C824 1.394 . S
C826 C827 1.369 . S
C826 C830 1.531 . S
C827 C826 1.369 . S
C827 C828 1.410 1_655 S
C827 C835 1.503 1_655 S
C828 C827 1.410 1_455 S
C828 C829 1.392 . S
C828 C831 1.511 . S
C829 C825 1.376 1_455 S
C829 C828 1.392 . S
C829 H841 0.929 . S
C830 C826 1.531 . S
C830 H842 0.960 . S
C830 H843 0.962 . S
C830 H844 0.960 . S
C831 C828 1.511 . S
C831 H845 0.961 . S
C831 H846 0.961 . S
C831 H847 0.961 . S
C832 C833 1.369 . S
C832 C834 1.363 1_455 S
C832 H848 0.932 1_454 S
C833 C832 1.369 . S
C833 C837 1.408 . S
C834 C832 1.363 1_655 S
C834 C835 1.370 1_655 S
C834 C838 1.524 . S
C835 C827 1.503 1_455 S
C835 C834 1.370 1_455 S
C835 C836 1.403 . S
C836 C835 1.403 . S
C836 C837 1.404 . S
C836 C839 1.539 . S
C837 C833 1.408 . S
C837 C836 1.404 . S
C837 H849 0.930 . S
C838 C834 1.524 . S
C838 H850 0.956 . S
C838 H851 0.961 . S
C838 H852 0.961 1_554 S
C839 C836 1.539 . S
C839 H853 0.958 . S
C839 H854 0.961 . S
C839 H855 0.960 . S
H840 C824 0.931 . S
H841 C829 0.929 . S
H842 C830 0.960 . S
H843 C830 0.962 . S
H844 C830 0.960 . S
H845 C831 0.961 . S
H846 C831 0.961 . S
H847 C831 0.961 . S
H848 C832 0.932 1_656 S
H849 C837 0.930 . S
H850 C838 0.956 . S
H851 C838 0.961 . S
H852 C838 0.961 1_556 S
H853 C839 0.958 . S
H854 C839 0.961 . S
H855 C839 0.960 . S
C856 C857 1.391 . S
C856 C858 1.394 . S
C856 H872 0.931 . S
C857 C856 1.391 . S
C857 C861 1.376 1_565 S
C858 C856 1.394 . S
C858 C859 1.347 1_565 S
C858 C862 1.531 . S
C859 C858 1.347 1_545 S
C859 C860 1.422 . S
C859 C867 1.512 . S
C860 C859 1.422 . S
C860 C861 1.392 . S
C860 C863 1.511 . S
C861 C857 1.376 1_545 S
C861 C860 1.392 . S
C861 H873 0.929 . S
C862 C858 1.531 . S
C862 H874 0.960 . S
C862 H875 0.962 . S
C862 H876 0.960 . S
C863 C860 1.511 . S
C863 H877 0.961 . S
C863 H878 0.961 . S
C863 H879 0.961 . S
C864 C865 1.370 1_565 S
C864 C866 1.363 . S
C864 H880 0.931 . S
C865 C864 1.370 1_545 S
C865 C869 1.408 . S
C866 C864 1.363 . S
C866 C867 1.370 1_565 S
C866 C870 1.524 . S
C867 C859 1.512 . S
C867 C866 1.370 1_545 S
C867 C868 1.403 . S
C868 C867 1.403 . S
C868 C869 1.404 . S
C868 C871 1.539 . S
C869 C865 1.408 . S
C869 C868 1.404 . S
C869 H881 0.930 . S
C870 C866 1.524 . S
C870 H882 0.956 . S
C870 H883 0.961 . S
C870 H884 0.961 . S
C871 C868 1.539 . S
C871 H885 0.958 . S
C871 H886 0.961 . S
C871 H887 0.960 . S
H872 C856 0.931 . S
H873 C861 0.929 . S
H874 C862 0.960 . S
H875 C862 0.962 . S
H876 C862 0.960 . S
H877 C863 0.961 . S
H878 C863 0.961 . S
H879 C863 0.961 . S
H880 C864 0.931 . S
H881 C869 0.930 . S
H882 C870 0.956 . S
H883 C870 0.961 . S
H884 C870 0.961 . S
H885 C871 0.958 . S
H886 C871 0.961 . S
H887 C871 0.960 . S
C888 C889 1.391 . S
C888 C890 1.394 . S
C888 H904 0.931 . S
C889 C888 1.391 . S
C889 C893 1.376 . S
C890 C888 1.394 . S
C890 C891 1.369 . S
C890 C894 1.531 . S
C891 C890 1.369 . S
C891 C892 1.410 . S
C891 C899 1.503 . S
C892 C891 1.410 . S
C892 C893 1.392 . S
C892 C895 1.511 . S
C893 C889 1.376 . S
C893 C892 1.392 . S
C893 H905 0.929 . S
C894 C890 1.531 . S
C894 H906 0.960 . S
C894 H907 0.962 . S
C894 H908 0.960 . S
C895 C892 1.511 . S
C895 H909 0.961 . S
C895 H910 0.961 . S
C895 H911 0.961 . S
C896 C897 1.370 . S
C896 C898 1.363 . S
C896 H912 0.931 . S
C897 C896 1.370 . S
C897 C901 1.408 . S
C898 C896 1.363 . S
C898 C899 1.370 . S
C898 C902 1.524 . S
C899 C891 1.503 . S
C899 C898 1.370 . S
C899 C900 1.403 . S
C900 C899 1.403 . S
C900 C901 1.404 . S
C900 C903 1.539 . S
C901 C897 1.408 . S
C901 C900 1.404 . S
C901 H913 0.930 1_554 S
C902 C898 1.524 . S
C902 H914 0.956 . S
C902 H915 0.961 . S
C902 H916 0.961 . S
C903 C900 1.539 . S
C903 H917 0.958 . S
C903 H918 0.961 1_554 S
C903 H919 0.960 . S
H904 C888 0.931 . S
H905 C893 0.929 . S
H906 C894 0.960 . S
H907 C894 0.962 . S
H908 C894 0.960 . S
H909 C895 0.961 . S
H910 C895 0.961 . S
H911 C895 0.961 . S
H912 C896 0.931 . S
H913 C901 0.930 1_556 S
H914 C902 0.956 . S
H915 C902 0.961 . S
H916 C902 0.961 . S
H917 C903 0.958 . S
H918 C903 0.961 1_556 S
H919 C903 0.960 . S
C920 C921 1.391 . S
C920 C922 1.394 . S
C920 H936 0.931 . S
C921 C920 1.391 . S
C921 C925 1.376 . S
C922 C920 1.394 . S
C922 C923 1.369 . S
C922 C926 1.531 . S
C923 C922 1.369 . S
C923 C924 1.410 . S
C923 C931 1.503 . S
C924 C923 1.410 . S
C924 C925 1.392 . S
C924 C927 1.511 . S
C925 C921 1.376 . S
C925 C924 1.392 . S
C925 H937 0.929 . S
C926 C922 1.531 . S
C926 H938 0.960 . S
C926 H939 0.962 . S
C926 H940 0.960 . S
C927 C924 1.511 . S
C927 H941 0.961 . S
C927 H942 0.961 . S
C927 H943 0.961 . S
C928 C929 1.370 . S
C928 C930 1.363 . S
C928 H944 0.931 . S
C929 C928 1.370 . S
C929 C933 1.408 . S
C930 C928 1.363 . S
C930 C931 1.370 . S
C930 C934 1.524 . S
C931 C923 1.503 . S
C931 C930 1.370 . S
C931 C932 1.403 . S
C932 C931 1.403 . S
C932 C933 1.404 . S
C932 C935 1.539 . S
C933 C929 1.408 . S
C933 C932 1.404 . S
C933 H945 0.930 1_554 S
C934 C930 1.524 . S
C934 H946 0.956 . S
C934 H947 0.961 . S
C934 H948 0.961 . S
C935 C932 1.539 . S
C935 H949 0.958 1_554 S
C935 H950 0.961 . S
C935 H951 0.960 . S
H936 C920 0.931 . S
H937 C925 0.929 . S
H938 C926 0.960 . S
H939 C926 0.962 . S
H940 C926 0.960 . S
H941 C927 0.961 . S
H942 C927 0.961 . S
H943 C927 0.961 . S
H944 C928 0.931 . S
H945 C933 0.930 1_556 S
H946 C934 0.956 . S
H947 C934 0.961 . S
H948 C934 0.961 . S
H949 C935 0.958 1_556 S
H950 C935 0.961 . S
H951 C935 0.960 . S
C952 C953 1.391 . S
C952 C954 1.394 . S
C952 H968 0.931 . S
C953 C952 1.391 . S
C953 C957 1.376 1_556 S
C954 C952 1.394 . S
C954 C955 1.369 . S
C954 C958 1.531 . S
C955 C954 1.369 . S
C955 C956 1.410 . S
C955 C963 1.503 . S
C956 C955 1.410 . S
C956 C957 1.392 1_556 S
C956 C959 1.511 1_556 S
C957 C953 1.376 1_554 S
C957 C956 1.392 1_554 S
C957 H969 0.929 . S
C958 C954 1.531 . S
C958 H970 0.960 . S
C958 H971 0.962 . S
C958 H972 0.960 . S
C959 C956 1.511 1_554 S
C959 H973 0.989 . S
C959 H974 0.961 . S
C959 H975 0.961 . S
C960 C961 1.370 . S
C960 C962 1.363 . S
C960 H976 0.931 1_455 S
C961 C960 1.370 . S
C961 C965 1.408 . S
C962 C960 1.363 . S
C962 C963 1.370 . S
C962 C966 1.524 1_455 S
C963 C955 1.503 . S
C963 C962 1.370 . S
C963 C964 1.403 . S
C964 C963 1.403 . S
C964 C965 1.404 . S
C964 C967 1.539 . S
C965 C961 1.408 . S
C965 C964 1.404 . S
C965 H977 0.930 . S
C966 C962 1.524 1_655 S
C966 H978 0.956 . S
C966 H979 0.961 . S
C966 H980 0.961 . S
C967 C964 1.539 . S
C967 H981 0.958 . S
C967 H982 0.961 . S
C967 H983 0.960 . S
H968 C952 0.931 . S
H969 C957 0.929 . S
H970 C958 0.960 . S
H971 C958 0.962 . S
H972 C958 0.960 . S
H973 C959 0.989 . S
H974 C959 0.961 . S
H975 C959 0.961 . S
H976 C960 0.931 1_655 S
H977 C965 0.930 . S
H978 C966 0.956 . S
H979 C966 0.961 . S
H980 C966 0.961 . S
H981 C967 0.958 . S
H982 C967 0.961 . S
H983 C967 0.960 . S
C984 C985 1.391 . S
C984 C986 1.394 . S
C984 H1000 0.931 1_556 S
C985 C984 1.391 . S
C985 C989 1.376 . S
C986 C984 1.394 . S
C986 C987 1.369 . S
C986 C990 1.531 1_556 S
C987 C986 1.369 . S
C987 C988 1.410 . S
C987 C995 1.503 . S
C988 C987 1.410 . S
C988 C989 1.392 . S
C988 C991 1.511 . S
C989 C985 1.376 . S
C989 C988 1.392 . S
C989 H1001 0.929 . S
C990 C986 1.531 1_554 S
C990 H1002 0.960 1_544 S
C990 H1003 0.962 . S
C990 H1004 0.960 1_545 S
C991 C988 1.511 . S
C991 H1005 0.961 . S
C991 H1006 0.961 . S
C991 H1007 0.961 . S
C992 C993 1.370 . S
C992 C994 1.363 . S
C992 H1008 0.931 . S
C993 C992 1.370 . S
C993 C997 1.408 . S
C994 C992 1.363 . S
C994 C995 1.370 . S
C994 C998 1.524 . S
C995 C987 1.503 . S
C995 C994 1.370 . S
C995 C996 1.403 . S
C996 C995 1.403 . S
C996 C997 1.404 . S
C996 C999 1.539 1_545 S
C997 C993 1.408 . S
C997 C996 1.404 . S
C997 H1009 0.930 1_545 S
C998 C994 1.524 . S
C998 H1010 0.956 . S
C998 H1011 0.961 . S
C998 H1012 0.961 . S
C999 C996 1.539 1_565 S
C999 H1013 0.958 . S
C999 H1014 0.961 . S
C999 H1015 0.960 . S
H1000 C984 0.931 1_554 S
H1001 C989 0.929 . S
H1002 C990 0.960 1_566 S
H1003 C990 0.962 . S
H1004 C990 0.960 1_565 S
H1005 C991 0.961 . S
H1006 C991 0.961 . S
H1007 C991 0.961 . S
H1008 C992 0.931 . S
H1009 C997 0.930 1_565 S
H1010 C998 0.956 . S
H1011 C998 0.961 . S
H1012 C998 0.961 . S
H1013 C999 0.958 . S
H1014 C999 0.961 . S
H1015 C999 0.960 . S
C1016 C1017 1.391 . S
C1016 C1018 1.394 . S
C1016 H1032 0.931 . S
C1017 C1016 1.391 . S
C1017 C1021 1.376 . S
C1018 C1016 1.394 . S
C1018 C1019 1.369 . S
C1018 C1022 1.531 . S
C1019 C1018 1.369 . S
C1019 C1020 1.410 . S
C1019 C1027 1.503 . S
C1020 C1019 1.410 . S
C1020 C1021 1.392 . S
C1020 C1023 1.511 . S
C1021 C1017 1.376 . S
C1021 C1020 1.392 . S
C1021 H1033 0.929 . S
C1022 C1018 1.531 . S
C1022 H1034 0.960 . S
C1022 H1035 0.962 . S
C1022 H1036 0.960 . S
C1023 C1020 1.511 . S
C1023 H1037 0.961 . S
C1023 H1038 0.961 . S
C1023 H1039 0.961 1_556 S
C1024 C1025 1.370 . S
C1024 C1026 1.363 . S
C1024 H1040 0.931 . S
C1025 C1024 1.370 . S
C1025 C1029 1.408 . S
C1026 C1024 1.363 . S
C1026 C1027 1.370 . S
C1026 C1030 1.524 . S
C1027 C1019 1.503 . S
C1027 C1026 1.370 . S
C1027 C1028 1.403 . S
C1028 C1027 1.403 . S
C1028 C1029 1.404 . S
C1028 C1031 1.539 1_556 S
C1029 C1025 1.408 . S
C1029 C1028 1.404 . S
C1029 H1041 0.930 . S
C1030 C1026 1.524 . S
C1030 H1042 0.956 . S
C1030 H1043 0.961 . S
C1030 H1044 0.961 . S
C1031 C1028 1.539 1_554 S
C1031 H1045 0.958 . S
C1031 H1046 0.961 . S
C1031 H1047 0.960 . S
H1032 C1016 0.931 . S
H1033 C1021 0.929 . S
H1034 C1022 0.960 . S
H1035 C1022 0.962 . S
H1036 C1022 0.960 . S
H1037 C1023 0.961 . S
H1038 C1023 0.961 . S
H1039 C1023 0.961 1_554 S
H1040 C1024 0.931 . S
H1041 C1029 0.930 . S
H1042 C1030 0.956 . S
H1043 C1030 0.961 . S
H1044 C1030 0.961 . S
H1045 C1031 0.958 . S
H1046 C1031 0.961 . S
H1047 C1031 0.960 . S
C1048 C1049 1.391 . S
C1048 C1050 1.394 . S
C1048 H1064 0.931 . S
C1049 C1048 1.391 . S
C1049 C1053 1.376 . S
C1050 C1048 1.394 . S
C1050 C1051 1.369 . S
C1050 C1054 1.531 . S
C1051 C1050 1.369 . S
C1051 C1052 1.410 . S
C1051 C1059 1.503 . S
C1052 C1051 1.410 . S
C1052 C1053 1.392 . S
C1052 C1055 1.511 1_556 S
C1053 C1049 1.376 . S
C1053 C1052 1.392 . S
C1053 H1065 0.929 1_556 S
C1054 C1050 1.531 . S
C1054 H1066 0.960 . S
C1054 H1067 0.962 . S
C1054 H1068 0.960 . S
C1055 C1052 1.511 1_554 S
C1055 H1069 0.961 . S
C1055 H1070 0.961 1_554 S
C1055 H1071 0.961 . S
C1056 C1057 1.370 . S
C1056 C1058 1.363 . S
C1056 H1072 0.931 . S
C1057 C1056 1.370 . S
C1057 C1061 1.408 . S
C1058 C1056 1.363 . S
C1058 C1059 1.370 . S
C1058 C1062 1.524 . S
C1059 C1051 1.503 . S
C1059 C1058 1.370 . S
C1059 C1060 1.403 . S
C1060 C1059 1.403 . S
C1060 C1061 1.404 . S
C1060 C1063 1.539 1_556 S
C1061 C1057 1.408 . S
C1061 C1060 1.404 . S
C1061 H1073 0.930 . S
C1062 C1058 1.524 . S
C1062 H1074 0.956 . S
C1062 H1075 0.961 . S
C1062 H1076 0.961 . S
C1063 C1060 1.539 1_554 S
C1063 H1077 0.958 1_554 S
C1063 H1078 0.961 . S
C1063 H1079 0.960 . S
H1064 C1048 0.931 . S
H1065 C1053 0.929 1_554 S
H1066 C1054 0.960 . S
H1067 C1054 0.962 . S
H1068 C1054 0.960 . S
H1069 C1055 0.961 . S
H1070 C1055 0.961 1_556 S
H1071 C1055 0.961 . S
H1072 C1056 0.931 . S
H1073 C1061 0.930 . S
H1074 C1062 0.956 . S
H1075 C1062 0.961 . S
H1076 C1062 0.961 . S
H1077 C1063 0.958 1_556 S
H1078 C1063 0.961 . S
H1079 C1063 0.960 . S
C1080 C1081 1.391 . S
C1080 C1082 1.394 . S
C1080 H1096 0.931 . S
C1081 C1080 1.391 . S
C1081 C1085 1.376 1_655 S
C1082 C1080 1.394 . S
C1082 C1083 1.369 . S
C1082 C1086 1.531 . S
C1083 C1082 1.369 . S
C1083 C1084 1.410 1_655 S
C1083 C1091 1.503 . S
C1084 C1083 1.410 1_455 S
C1084 C1085 1.392 . S
C1084 C1087 1.511 . S
C1085 C1081 1.376 1_455 S
C1085 C1084 1.392 . S
C1085 H1097 0.929 . S
C1086 C1082 1.531 . S
C1086 H1098 0.960 . S
C1086 H1099 0.962 . S
C1086 H1100 0.960 . S
C1087 C1084 1.511 . S
C1087 H1101 0.961 . S
C1087 H1102 0.961 . S
C1087 H1103 0.961 . S
C1088 C1089 1.370 . S
C1088 C1090 1.363 . S
C1088 H1104 0.931 . S
C1089 C1088 1.370 . S
C1089 C1093 1.408 . S
C1090 C1088 1.363 . S
C1090 C1091 1.370 . S
C1090 C1094 1.524 . S
C1091 C1083 1.503 . S
C1091 C1090 1.370 . S
C1091 C1092 1.403 . S
C1092 C1091 1.403 . S
C1092 C1093 1.404 . S
C1092 C1095 1.539 . S
C1093 C1089 1.408 . S
C1093 C1092 1.404 . S
C1093 H1105 0.930 . S
C1094 C1090 1.524 . S
C1094 H1106 0.956 . S
C1094 H1107 0.937 1_655 S
C1094 H1108 0.961 . S
C1095 C1092 1.539 . S
C1095 H1109 0.958 . S
C1095 H1110 0.961 1_655 S
C1095 H1111 0.960 1_655 S
H1096 C1080 0.931 . S
H1097 C1085 0.929 . S
H1098 C1086 0.960 . S
H1099 C1086 0.962 . S
H1100 C1086 0.960 . S
H1101 C1087 0.961 . S
H1102 C1087 0.961 . S
H1103 C1087 0.961 . S
H1104 C1088 0.931 . S
H1105 C1093 0.930 . S
H1106 C1094 0.956 . S
H1107 C1094 0.937 1_455 S
H1108 C1094 0.961 . S
H1109 C1095 0.958 . S
H1110 C1095 0.961 1_455 S
H1111 C1095 0.960 1_455 S
C1112 C1113 1.391 1_545 S
C1112 C1114 1.394 . S
C1112 H1128 0.931 . S
C1113 C1112 1.391 1_565 S
C1113 C1117 1.376 . S
C1114 C1112 1.394 . S
C1114 C1115 1.369 1_545 S
C1114 C1118 1.531 . S
C1115 C1114 1.369 1_565 S
C1115 C1116 1.410 . S
C1115 C1123 1.503 . S
C1116 C1115 1.410 . S
C1116 C1117 1.392 . S
C1116 C1119 1.511 . S
C1117 C1113 1.376 . S
C1117 C1116 1.392 . S
C1117 H1129 0.929 . S
C1118 C1114 1.531 . S
C1118 H1130 0.960 . S
C1118 H1131 0.962 . S
C1118 H1132 0.960 . S
C1119 C1116 1.511 . S
C1119 H1133 0.961 . S
C1119 H1134 0.961 . S
C1119 H1135 0.961 . S
C1120 C1121 1.370 . S
C1120 C1122 1.363 . S
C1120 H1136 0.931 . S
C1121 C1120 1.370 . S
C1121 C1125 1.408 1_565 S
C1122 C1120 1.363 . S
C1122 C1123 1.370 . S
C1122 C1126 1.524 . S
C1123 C1115 1.503 . S
C1123 C1122 1.370 . S
C1123 C1124 1.403 1_565 S
C1124 C1123 1.403 1_545 S
C1124 C1125 1.404 . S
C1124 C1127 1.539 . S
C1125 C1121 1.408 1_545 S
C1125 C1124 1.404 . S
C1125 H1137 0.930 . S
C1126 C1122 1.524 . S
C1126 H1138 0.956 . S
C1126 H1139 0.961 . S
C1126 H1140 0.961 . S
C1127 C1124 1.539 . S
C1127 H1141 0.958 . S
C1127 H1142 0.961 . S
C1127 H1143 0.960 . S
H1128 C1112 0.931 . S
H1129 C1117 0.929 . S
H1130 C1118 0.960 . S
H1131 C1118 0.962 . S
H1132 C1118 0.960 . S
H1133 C1119 0.961 . S
H1134 C1119 0.961 . S
H1135 C1119 0.961 . S
H1136 C1120 0.931 . S
H1137 C1125 0.930 . S
H1138 C1126 0.956 . S
H1139 C1126 0.961 . S
H1140 C1126 0.961 . S
H1141 C1127 0.958 . S
H1142 C1127 0.961 . S
H1143 C1127 0.960 . S
C1144 C1145 1.391 . S
C1144 C1146 1.394 . S
C1144 H1160 0.931 . S
C1145 C1144 1.391 . S
C1145 C1149 1.376 . S
C1146 C1144 1.394 . S
C1146 C1147 1.369 . S
C1146 C1150 1.531 . S
C1147 C1146 1.369 . S
C1147 C1148 1.410 . S
C1147 C1155 1.503 . S
C1148 C1147 1.410 . S
C1148 C1149 1.392 . S
C1148 C1151 1.511 . S
C1149 C1145 1.376 . S
C1149 C1148 1.392 . S
C1149 H1161 0.929 . S
C1150 C1146 1.531 . S
C1150 H1162 0.960 . S
C1150 H1163 0.962 . S
C1150 H1164 0.960 . S
C1151 C1148 1.511 . S
C1151 H1165 0.961 . S
C1151 H1166 0.961 . S
C1151 H1167 0.961 . S
C1152 C1153 1.370 . S
C1152 C1154 1.363 . S
C1152 H1168 0.931 . S
C1153 C1152 1.370 . S
C1153 C1157 1.408 . S
C1154 C1152 1.363 . S
C1154 C1155 1.370 . S
C1154 C1158 1.524 . S
C1155 C1147 1.503 . S
C1155 C1154 1.370 . S
C1155 C1156 1.403 . S
C1156 C1155 1.403 . S
C1156 C1157 1.404 . S
C1156 C1159 1.539 . S
C1157 C1153 1.408 . S
C1157 C1156 1.404 . S
C1157 H1169 0.930 . S
C1158 C1154 1.524 . S
C1158 H1170 0.956 . S
C1158 H1171 0.961 . S
C1158 H1172 0.961 . S
C1159 C1156 1.539 . S
C1159 H1173 0.958 . S
C1159 H1174 0.961 . S
C1159 H1175 0.960 . S
H1160 C1144 0.931 . S
H1161 C1149 0.929 . S
H1162 C1150 0.960 . S
H1163 C1150 0.962 . S
H1164 C1150 0.960 . S
H1165 C1151 0.961 . S
H1166 C1151 0.961 . S
H1167 C1151 0.961 . S
H1168 C1152 0.931 . S
H1169 C1157 0.930 . S
H1170 C1158 0.956 . S
H1171 C1158 0.961 . S
H1172 C1158 0.961 . S
H1173 C1159 0.958 . S
H1174 C1159 0.961 . S
H1175 C1159 0.960 . S
C1176 C1177 1.391 . S
C1176 C1178 1.394 . S
C1176 H1192 0.931 . S
C1177 C1176 1.391 . S
C1177 C1181 1.376 . S
C1178 C1176 1.394 . S
C1178 C1179 1.369 . S
C1178 C1182 1.531 . S
C1179 C1178 1.369 . S
C1179 C1180 1.410 . S
C1179 C1187 1.503 . S
C1180 C1179 1.410 . S
C1180 C1181 1.392 . S
C1180 C1183 1.511 . S
C1181 C1177 1.376 . S
C1181 C1180 1.392 . S
C1181 H1193 0.929 . S
C1182 C1178 1.531 . S
C1182 H1194 0.960 . S
C1182 H1195 0.962 . S
C1182 H1196 0.960 . S
C1183 C1180 1.511 . S
C1183 H1197 0.961 . S
C1183 H1198 0.961 . S
C1183 H1199 0.961 . S
C1184 C1185 1.370 . S
C1184 C1186 1.363 . S
C1184 H1200 0.931 . S
C1185 C1184 1.370 . S
C1185 C1189 1.408 . S
C1186 C1184 1.363 . S
C1186 C1187 1.370 . S
C1186 C1190 1.524 . S
C1187 C1179 1.503 . S
C1187 C1186 1.370 . S
C1187 C1188 1.403 . S
C1188 C1187 1.403 . S
C1188 C1189 1.404 . S
C1188 C1191 1.539 . S
C1189 C1185 1.408 . S
C1189 C1188 1.404 . S
C1189 H1201 0.930 . S
C1190 C1186 1.524 . S
C1190 H1202 0.956 . S
C1190 H1203 0.961 . S
C1190 H1204 0.961 . S
C1191 C1188 1.539 . S
C1191 H1205 0.958 . S
C1191 H1206 0.961 . S
C1191 H1207 0.960 . S
H1192 C1176 0.931 . S
H1193 C1181 0.929 . S
H1194 C1182 0.960 . S
H1195 C1182 0.962 . S
H1196 C1182 0.960 . S
H1197 C1183 0.961 . S
H1198 C1183 0.961 . S
H1199 C1183 0.961 . S
H1200 C1184 0.931 . S
H1201 C1189 0.930 . S
H1202 C1190 0.956 . S
H1203 C1190 0.961 . S
H1204 C1190 0.961 . S
H1205 C1191 0.958 . S
H1206 C1191 0.961 . S
H1207 C1191 0.960 . S
C441 N80 1.912 . S
C449 C172 2.005 . S
C481 C255 2.028 . S
C473 N93 1.912 . S
C513 C340 2.005 . S
C505 N54 1.941 . S
C545 C424 1.995 . S
C537 N67 1.892 . S
C577 C160 2.015 . S
C569 N28 1.943 . S
C601 N41 1.940 . S
C609 C243 2.024 . S
C633 N2 1.945 . S
C641 C328 1.995 . S
C665 N15 1.936 . S
C673 C412 1.996 1_655 S
C705 C162 0.617 1_455 S
C697 N70 0.572 . S
C737 C258 0.592 . S
C729 N83 0.539 . S
C769 C330 0.544 . S
C761 N96 0.481 . S
C793 N57 0.561 . S
C801 C414 0.612 . S
C825 N18 0.529 . S
C833 C174 0.576 . S
C865 C246 0.545 . S
C857 N31 0.482 . S
C897 C342 0.564 . S
C889 N44 0.500 . S
C921 N5 0.526 . S
C929 C426 0.595 . S
C953 N66 2.007 . S
C961 C159 2.093 . S
C985 N79 2.014 . S
C993 C244 2.092 . S
C1025 C327 2.112 . S
C1017 N92 2.005 . S
C1057 C411 2.117 . S
C1049 N53 2.017 . S
C1081 N14 2.043 . S
C1089 C171 2.087 . S
C1121 C256 2.090 1_565 S
C1113 N27 1.996 . S
C1153 C339 2.104 . S
C1145 N40 2.055 . S
C1177 N1 2.027 . S
C1185 C423 2.117 . S
