# Generated by pormake.
# Topology eea, (3,6)-cn, num edge types: 1
# Building blocks:
#     Node 0, Type 0, BuildingBlock: PAMTOO_clean_linker_0, # of connection points: 3
#     Node 1, Type 0, BuildingBlock: PAMTOO_clean_linker_0, # of connection points: 3
#     Node 2, Type 0, BuildingBlock: PAMTOO_clean_linker_0, # of connection points: 3
#     Node 3, Type 0, BuildingBlock: PAMTOO_clean_linker_0, # of connection points: 3
#     Node 4, Type 0, BuildingBlock: PAMTOO_clean_linker_0, # of connection points: 3
#     Node 5, Type 0, BuildingBlock: PAMTOO_clean_linker_0, # of connection points: 3
#     Node 6, Type 0, BuildingBlock: PAMTOO_clean_linker_0, # of connection points: 3
#     Node 7, Type 0, BuildingBlock: PAMTOO_clean_linker_0, # of connection points: 3
#     Node 8, Type 0, BuildingBlock: PAMTOO_clean_linker_0, # of connection points: 3
#     Node 9, Type 0, BuildingBlock: PAMTOO_clean_linker_0, # of connection points: 3
#     Node 10, Type 0, BuildingBlock: PAMTOO_clean_linker_0, # of connection points: 3
#     Node 11, Type 0, BuildingBlock: PAMTOO_clean_linker_0, # of connection points: 3
#     Node 12, Type 0, BuildingBlock: PAMTOO_clean_linker_0, # of connection points: 3
#     Node 13, Type 0, BuildingBlock: PAMTOO_clean_linker_0, # of connection points: 3
#     Node 14, Type 0, BuildingBlock: PAMTOO_clean_linker_0, # of connection points: 3
#     Node 15, Type 0, BuildingBlock: PAMTOO_clean_linker_0, # of connection points: 3
#     Node 16, Type 0, BuildingBlock: PAMTOO_clean_linker_0, # of connection points: 3
#     Node 17, Type 0, BuildingBlock: PAMTOO_clean_linker_0, # of connection points: 3
#     Node 18, Type 1, BuildingBlock: HISSIN_clean_sbu_0, # of connection points: 6
#     Node 19, Type 1, BuildingBlock: HISSIN_clean_sbu_0, # of connection points: 6
#     Node 20, Type 1, BuildingBlock: HISSIN_clean_sbu_0, # of connection points: 6
#     Node 21, Type 1, BuildingBlock: HISSIN_clean_sbu_0, # of connection points: 6
#     Node 22, Type 1, BuildingBlock: HISSIN_clean_sbu_0, # of connection points: 6
#     Node 23, Type 1, BuildingBlock: HISSIN_clean_sbu_0, # of connection points: 6
#     Node 24, Type 1, BuildingBlock: HISSIN_clean_sbu_0, # of connection points: 6
#     Node 25, Type 1, BuildingBlock: HISSIN_clean_sbu_0, # of connection points: 6
#     Node 26, Type 1, BuildingBlock: HISSIN_clean_sbu_0, # of connection points: 6
#     Edge 27, Type (0, 1), BuildingBlock: XIVTED_clean_linker_0, # of connection points: 2
#     Edge 28, Type (0, 1), BuildingBlock: XIVTED_clean_linker_0, # of connection points: 2
#     Edge 29, Type (0, 1), BuildingBlock: XIVTED_clean_linker_0, # of connection points: 2
#     Edge 30, Type (0, 1), BuildingBlock: XIVTED_clean_linker_0, # of connection points: 2
#     Edge 31, Type (0, 1), BuildingBlock: XIVTED_clean_linker_0, # of connection points: 2
#     Edge 32, Type (0, 1), BuildingBlock: XIVTED_clean_linker_0, # of connection points: 2
#     Edge 33, Type (0, 1), BuildingBlock: XIVTED_clean_linker_0, # of connection points: 2
#     Edge 34, Type (0, 1), BuildingBlock: XIVTED_clean_linker_0, # of connection points: 2
#     Edge 35, Type (0, 1), BuildingBlock: XIVTED_clean_linker_0, # of connection points: 2
#     Edge 36, Type (0, 1), BuildingBlock: XIVTED_clean_linker_0, # of connection points: 2
#     Edge 37, Type (0, 1), BuildingBlock: XIVTED_clean_linker_0, # of connection points: 2
#     Edge 38, Type (0, 1), BuildingBlock: XIVTED_clean_linker_0, # of connection points: 2
#     Edge 39, Type (0, 1), BuildingBlock: XIVTED_clean_linker_0, # of connection points: 2
#     Edge 40, Type (0, 1), BuildingBlock: XIVTED_clean_linker_0, # of connection points: 2
#     Edge 41, Type (0, 1), BuildingBlock: XIVTED_clean_linker_0, # of connection points: 2
#     Edge 42, Type (0, 1), BuildingBlock: XIVTED_clean_linker_0, # of connection points: 2
#     Edge 43, Type (0, 1), BuildingBlock: XIVTED_clean_linker_0, # of connection points: 2
#     Edge 44, Type (0, 1), BuildingBlock: XIVTED_clean_linker_0, # of connection points: 2
#     Edge 45, Type (0, 1), BuildingBlock: XIVTED_clean_linker_0, # of connection points: 2
#     Edge 46, Type (0, 1), BuildingBlock: XIVTED_clean_linker_0, # of connection points: 2
#     Edge 47, Type (0, 1), BuildingBlock: XIVTED_clean_linker_0, # of connection points: 2
#     Edge 48, Type (0, 1), BuildingBlock: XIVTED_clean_linker_0, # of connection points: 2
#     Edge 49, Type (0, 1), BuildingBlock: XIVTED_clean_linker_0, # of connection points: 2
#     Edge 50, Type (0, 1), BuildingBlock: XIVTED_clean_linker_0, # of connection points: 2
#     Edge 51, Type (0, 1), BuildingBlock: XIVTED_clean_linker_0, # of connection points: 2
#     Edge 52, Type (0, 1), BuildingBlock: XIVTED_clean_linker_0, # of connection points: 2
#     Edge 53, Type (0, 1), BuildingBlock: XIVTED_clean_linker_0, # of connection points: 2
#     Edge 54, Type (0, 1), BuildingBlock: XIVTED_clean_linker_0, # of connection points: 2
#     Edge 55, Type (0, 1), BuildingBlock: XIVTED_clean_linker_0, # of connection points: 2
#     Edge 56, Type (0, 1), BuildingBlock: XIVTED_clean_linker_0, # of connection points: 2
#     Edge 57, Type (0, 1), BuildingBlock: XIVTED_clean_linker_0, # of connection points: 2
#     Edge 58, Type (0, 1), BuildingBlock: XIVTED_clean_linker_0, # of connection points: 2
#     Edge 59, Type (0, 1), BuildingBlock: XIVTED_clean_linker_0, # of connection points: 2
#     Edge 60, Type (0, 1), BuildingBlock: XIVTED_clean_linker_0, # of connection points: 2
#     Edge 61, Type (0, 1), BuildingBlock: XIVTED_clean_linker_0, # of connection points: 2
#     Edge 62, Type (0, 1), BuildingBlock: XIVTED_clean_linker_0, # of connection points: 2
#     Edge 63, Type (0, 1), BuildingBlock: XIVTED_clean_linker_0, # of connection points: 2
#     Edge 64, Type (0, 1), BuildingBlock: XIVTED_clean_linker_0, # of connection points: 2
#     Edge 65, Type (0, 1), BuildingBlock: XIVTED_clean_linker_0, # of connection points: 2
#     Edge 66, Type (0, 1), BuildingBlock: XIVTED_clean_linker_0, # of connection points: 2
#     Edge 67, Type (0, 1), BuildingBlock: XIVTED_clean_linker_0, # of connection points: 2
#     Edge 68, Type (0, 1), BuildingBlock: XIVTED_clean_linker_0, # of connection points: 2
#     Edge 69, Type (0, 1), BuildingBlock: XIVTED_clean_linker_0, # of connection points: 2
#     Edge 70, Type (0, 1), BuildingBlock: XIVTED_clean_linker_0, # of connection points: 2
#     Edge 71, Type (0, 1), BuildingBlock: XIVTED_clean_linker_0, # of connection points: 2
#     Edge 72, Type (0, 1), BuildingBlock: XIVTED_clean_linker_0, # of connection points: 2
#     Edge 73, Type (0, 1), BuildingBlock: XIVTED_clean_linker_0, # of connection points: 2
#     Edge 74, Type (0, 1), BuildingBlock: XIVTED_clean_linker_0, # of connection points: 2
#     Edge 75, Type (0, 1), BuildingBlock: XIVTED_clean_linker_0, # of connection points: 2
#     Edge 76, Type (0, 1), BuildingBlock: XIVTED_clean_linker_0, # of connection points: 2
#     Edge 77, Type (0, 1), BuildingBlock: XIVTED_clean_linker_0, # of connection points: 2
#     Edge 78, Type (0, 1), BuildingBlock: XIVTED_clean_linker_0, # of connection points: 2
#     Edge 79, Type (0, 1), BuildingBlock: XIVTED_clean_linker_0, # of connection points: 2
#     Edge 80, Type (0, 1), BuildingBlock: XIVTED_clean_linker_0, # of connection points: 2
# Relax obj value: 0.057
# Max RMSD: 0.207
# Mean RMSD: 0.146
data_MOF--net-eea--node1-HISSIN_clean_sbu_0--node2-PAMTOO_clean_linker_0--edge1-XIVTED_clean_linker_0
_symmetry_space_group_name_H-M    P1
_symmetry_Int_Tables_number       1
_symmetry_cell_setting            triclinic
loop_
_symmetry_equiv_pos_as_xyz
'x, y, z'
_cell_length_a     54.892944
_cell_length_b     55.305957
_cell_length_c     70.143945
_cell_angle_alpha  93.43476
_cell_angle_beta   93.365506
_cell_angle_gamma 119.83988
loop_
_atom_site_label
_atom_site_type_symbol
_atom_site_fract_x
_atom_site_fract_y
_atom_site_fract_z
_atom_type_partial_charge
H0 H 0.26479 0.08947 0.42121 0.0
H1 H 0.26309 0.16624 0.42065 0.0
H2 H 0.23444 0.10909 0.3696 0.0
H3 H 0.26893 0.17109 0.36273 0.0
C4 C 0.26419 0.17939 0.37598 0.0
O5 O 0.24383 0.15751 0.38456 0.0
H6 H 0.28404 0.19116 0.38584 0.0
C7 C 0.25974 0.10313 0.41359 0.0
C8 C 0.24844 0.09553 0.39422 0.0
C9 C 0.2647 0.1283 0.42336 0.0
C10 C 0.25962 0.14678 0.41336 0.0
C11 C 0.24934 0.13994 0.39392 0.0
C12 C 0.24351 0.11437 0.38442 0.0
H13 H 0.9439 0.17605 0.42855 0.0
H14 H 0.86745 0.0957 0.42302 0.0
H15 H 0.91742 0.12119 0.37579 0.0
H16 H 0.85501 0.08762 0.36349 0.0
C17 C 0.84861 0.07843 0.37727 0.0
O18 O 0.87204 0.0815 0.38801 0.0
H19 H 0.8394 0.08968 0.38499 0.0
C20 C 0.92894 0.15664 0.42 0.0
C21 C 0.93396 0.15127 0.40115 0.0
C22 C 0.90506 0.13672 0.42812 0.0
C23 C 0.88622 0.11121 0.41722 0.0
C24 C 0.89077 0.10584 0.39845 0.0
C25 C 0.91452 0.12568 0.39046 0.0
H26 H 0.84407 0.7697 0.43975 0.0
H27 H 0.925 0.77488 0.44086 0.0
H28 H 0.89345 0.79744 0.39175 0.0
H29 H 0.92134 0.7648 0.38347 0.0
C30 C 0.93823 0.77377 0.3957 0.0
O31 O 0.9357 0.79346 0.40712 0.0
H32 H 0.93552 0.75636 0.40417 0.0
C33 C 0.86291 0.77446 0.43288 0.0
C34 C 0.86584 0.78389 0.41451 0.0
C35 C 0.88392 0.77091 0.44252 0.0
C36 C 0.90842 0.77724 0.43363 0.0
C37 C 0.91184 0.78698 0.41543 0.0
C38 C 0.89063 0.79029 0.40592 0.0
H39 H 0.06543 0.23747 0.57456 0.0
H40 H 0.13943 0.22916 0.57659 0.0
H41 H 0.08327 0.19787 0.62024 0.0
H42 H 0.14429 0.22838 0.63448 0.0
C43 C 0.1527 0.2237 0.62158 0.0
O44 O 0.1305 0.20528 0.60834 0.0
H45 H 0.1659 0.24379 0.61541 0.0
C46 C 0.07857 0.23036 0.58147 0.0
C47 C 0.07092 0.21696 0.59838 0.0
C48 C 0.10307 0.23466 0.57332 0.0
C49 C 0.12021 0.22566 0.5824 0.0
C50 C 0.11323 0.2129 0.59942 0.0
C51 C 0.0886 0.20834 0.60728 0.0
H52 H 0.75118 0.83035 0.59552 0.0
H53 H 0.75321 0.90917 0.60235 0.0
H54 H 0.78618 0.88376 0.6489 0.0
H55 H 0.75692 0.91666 0.6624 0.0
C56 C 0.75672 0.92452 0.6482 0.0
O57 O 0.77612 0.92224 0.63776 0.0
H58 H 0.73499 0.91175 0.6407 0.0
C59 C 0.75654 0.84943 0.60432 0.0
C60 C 0.76955 0.85441 0.62317 0.0
C61 C 0.75081 0.86912 0.59654 0.0
C62 C 0.75765 0.89377 0.60797 0.0
C63 C 0.76977 0.89853 0.62689 0.0
C64 C 0.7759 0.87911 0.63442 0.0
H65 H 0.17094 0.90996 0.57992 0.0
H66 H 0.09079 0.8341 0.57888 0.0
H67 H 0.11628 0.90006 0.62414 0.0
H68 H 0.09097 0.84294 0.63627 0.0
C69 C 0.07528 0.83114 0.62359 0.0
O70 O 0.07712 0.84954 0.61054 0.0
H71 H 0.0802 0.81549 0.61695 0.0
C72 C 0.15144 0.89759 0.58624 0.0
C73 C 0.14629 0.90862 0.60313 0.0
C74 C 0.13157 0.87086 0.57723 0.0
C75 C 0.10634 0.85485 0.58547 0.0
C76 C 0.10122 0.86529 0.60253 0.0
C77 C 0.12099 0.89212 0.61123 0.0
H78 H 0.93422 0.426 0.7523 0.0
H79 H 0.93433 0.50394 0.75295 0.0
H80 H 0.91272 0.45156 0.70006 0.0
H81 H 0.9455 0.51455 0.69601 0.0
C82 C 0.93937 0.5211 0.70935 0.0
O83 O 0.91837 0.49789 0.71644 0.0
H84 H 0.95841 0.53213 0.71999 0.0
C85 C 0.93139 0.44111 0.74476 0.0
C86 C 0.92305 0.43566 0.7249 0.0
C87 C 0.93572 0.46576 0.75502 0.0
C88 C 0.93163 0.48505 0.74525 0.0
C89 C 0.92341 0.47981 0.72551 0.0
C90 C 0.91916 0.45527 0.71535 0.0
H91 H 0.61227 0.51335 0.76472 0.0
H92 H 0.53699 0.43209 0.75953 0.0
H93 H 0.5899 0.45553 0.71388 0.0
H94 H 0.52726 0.42271 0.70047 0.0
C95 C 0.52022 0.41327 0.71409 0.0
O96 O 0.54335 0.41676 0.72545 0.0
H97 H 0.51026 0.42408 0.7214 0.0
C98 C 0.59832 0.49323 0.75662 0.0
C99 C 0.60442 0.48721 0.73824 0.0
C100 C 0.57426 0.47339 0.76465 0.0
C101 C 0.55605 0.4475 0.75396 0.0
C102 C 0.5616 0.44146 0.73568 0.0
C103 C 0.58576 0.46103 0.72791 0.0
H104 H 0.50918 0.10188 0.77047 0.0
H105 H 0.59158 0.11003 0.77375 0.0
H106 H 0.56113 0.1323 0.72401 0.0
H107 H 0.58951 0.09978 0.71674 0.0
C108 C 0.60636 0.10926 0.72901 0.0
O109 O 0.60319 0.12873 0.74018 0.0
H110 H 0.60412 0.09219 0.73767 0.0
C111 C 0.52865 0.10749 0.76421 0.0
C112 C 0.53237 0.11756 0.74603 0.0
C113 C 0.5497 0.10452 0.77442 0.0
C114 C 0.5749 0.11186 0.76615 0.0
C115 C 0.5789 0.12184 0.74803 0.0
C116 C 0.55778 0.12478 0.73807 0.0
H117 H 0.73148 0.57068 0.90783 0.0
H118 H 0.80539 0.5622 0.90971 0.0
H119 H 0.75264 0.53632 0.95552 0.0
H120 H 0.81429 0.56629 0.96754 0.0
C121 C 0.82139 0.55997 0.95458 0.0
O122 O 0.7981 0.54087 0.94236 0.0
H123 H 0.83435 0.57914 0.94739 0.0
C124 C 0.74508 0.56435 0.91502 0.0
C125 C 0.73853 0.55271 0.93267 0.0
C126 C 0.76938 0.56831 0.9067 0.0
C127 C 0.78678 0.55975 0.91594 0.0
C128 C 0.78061 0.54821 0.93342 0.0
C129 C 0.75665 0.54473 0.94176 0.0
H130 H 0.41931 0.16296 0.92617 0.0
H131 H 0.42185 0.24202 0.93286 0.0
H132 H 0.45541 0.21692 0.97926 0.0
H133 H 0.42577 0.24948 0.99266 0.0
C134 C 0.42582 0.25768 0.97855 0.0
O135 O 0.44521 0.25535 0.96812 0.0
H136 H 0.40414 0.24521 0.97094 0.0
C137 C 0.42494 0.18217 0.9349 0.0
C138 C 0.43827 0.18731 0.95366 0.0
C139 C 0.41918 0.20184 0.92712 0.0
C140 C 0.42634 0.22665 0.93846 0.0
C141 C 0.43876 0.23157 0.95731 0.0
C142 C 0.44492 0.21216 0.96485 0.0
H143 H 0.83401 0.25014 0.91625 0.0
H144 H 0.75439 0.17297 0.91117 0.0
H145 H 0.78475 0.22568 0.96451 0.0
H146 H 0.75732 0.16489 0.96792 0.0
C147 C 0.74101 0.15714 0.95538 0.0
O148 O 0.74333 0.17949 0.94627 0.0
H149 H 0.74455 0.14307 0.94535 0.0
C150 C 0.81545 0.23534 0.92262 0.0
C151 C 0.81225 0.24096 0.94184 0.0
C152 C 0.79482 0.21087 0.91144 0.0
C153 C 0.77068 0.19182 0.91964 0.0
C154 C 0.7671 0.19735 0.9387 0.0
C155 C 0.78778 0.22182 0.94975 0.0
H156 H 0.60134 0.76265 0.09139 0.0
H157 H 0.60096 0.83977 0.08815 0.0
H158 H 0.57135 0.77995 0.03853 0.0
H159 H 0.60414 0.8409 0.02939 0.0
C160 C 0.60048 0.85001 0.04274 0.0
O161 O 0.58069 0.82883 0.05213 0.0
H162 H 0.62091 0.86201 0.05198 0.0
C163 C 0.59669 0.77606 0.08314 0.0
C164 C 0.58549 0.7676 0.06376 0.0
C165 C 0.60208 0.80186 0.09211 0.0
C166 C 0.59726 0.81992 0.08141 0.0
C167 C 0.58665 0.812 0.06206 0.0
C168 C 0.58062 0.78597 0.05331 0.0
H169 H 0.27088 0.84605 0.09424 0.0
H170 H 0.19639 0.76415 0.08704 0.0
H171 H 0.25218 0.78997 0.04299 0.0
H172 H 0.19108 0.75561 0.02714 0.0
C173 C 0.18287 0.74648 0.04066 0.0
O174 O 0.20511 0.75018 0.05314 0.0
H175 H 0.17235 0.75743 0.04695 0.0
C176 C 0.25753 0.82612 0.08574 0.0
C177 C 0.2649 0.82086 0.06766 0.0
C178 C 0.23306 0.8057 0.09305 0.0
C179 C 0.21561 0.78003 0.0819 0.0
C180 C 0.22238 0.77478 0.06381 0.0
C181 C 0.24701 0.79491 0.05681 0.0
H182 H 0.17731 0.43712 0.10634 0.0
H183 H 0.25797 0.44181 0.10728 0.0
H184 H 0.23013 0.47226 0.06087 0.0
H185 H 0.25655 0.43852 0.04964 0.0
C186 C 0.27258 0.4452 0.06225 0.0
O187 O 0.27043 0.46409 0.07481 0.0
H188 H 0.26826 0.42626 0.06944 0.0
C189 C 0.19688 0.44345 0.10002 0.0
C190 C 0.20115 0.45575 0.08264 0.0
C191 C 0.2172 0.43847 0.10916 0.0
C192 C 0.24195 0.44535 0.10045 0.0
C193 C 0.24638 0.45724 0.08298 0.0
C194 C 0.22612 0.46254 0.07416 0.0
H195 H 0.398 0.90184 0.24062 0.0
H196 H 0.47301 0.89525 0.24419 0.0
H197 H 0.41816 0.86751 0.28877 0.0
H198 H 0.47938 0.89758 0.30215 0.0
C199 C 0.48721 0.89204 0.28927 0.0
O200 O 0.46453 0.87309 0.27656 0.0
H201 H 0.50024 0.91164 0.28252 0.0
C202 C 0.41164 0.89582 0.24814 0.0
C203 C 0.40452 0.88385 0.26564 0.0
C204 C 0.43651 0.90046 0.24037 0.0
C205 C 0.45396 0.89227 0.25001 0.0
C206 C 0.44718 0.88034 0.26732 0.0
C207 C 0.42264 0.87621 0.27512 0.0
H208 H 0.08071 0.49367 0.26096 0.0
H209 H 0.08136 0.57169 0.26944 0.0
H210 H 0.11418 0.54499 0.31522 0.0
H211 H 0.084 0.57794 0.32917 0.0
C212 C 0.0841 0.58575 0.31491 0.0
O213 O 0.10392 0.58367 0.30484 0.0
H214 H 0.06253 0.57284 0.3072 0.0
C215 C 0.0856 0.51232 0.27011 0.0
C216 C 0.09827 0.51665 0.28899 0.0
C217 C 0.0796 0.53209 0.26278 0.0
C218 C 0.08597 0.55622 0.27468 0.0
C219 C 0.09783 0.56035 0.2936 0.0
C220 C 0.1041 0.54081 0.30072 0.0
H221 H 0.50696 0.57559 0.25264 0.0
H222 H 0.42608 0.49981 0.24843 0.0
H223 H 0.45351 0.55884 0.29847 0.0
H224 H 0.42573 0.49973 0.30554 0.0
C225 C 0.40973 0.4904 0.29277 0.0
O226 O 0.41272 0.51119 0.28158 0.0
H227 H 0.4133 0.47489 0.28441 0.0
C228 C 0.48775 0.56192 0.25886 0.0
C229 C 0.4831 0.57035 0.27695 0.0
C230 C 0.46746 0.53651 0.2484 0.0
C231 C 0.442 0.51956 0.25615 0.0
C232 C 0.43715 0.52771 0.27417 0.0
C233 C 0.45756 0.55301 0.28449 0.0
Eu234 Eu 0.48491 0.99058 0.98503 0.0
Eu235 Eu 0.50494 0.01764 0.03076 0.0
C236 C 0.48087 0.04375 0.00103 0.0
C237 C 0.48127 0.98628 0.93056 0.0
C238 C 0.46132 0.98439 0.91621 0.0
C239 C 0.51876 0.01454 0.91107 0.0
C240 C 0.46998 0.99765 0.89951 0.0
C241 C 0.51011 0.00151 0.92785 0.0
C242 C 0.49881 0.0129 0.89677 0.0
C243 C 0.47174 0.97302 0.94843 0.0
O244 O 0.45807 0.98799 0.02832 0.0
O245 O 0.45187 0.95848 0.00164 0.0
C246 C 0.44328 0.96397 0.01759 0.0
O247 O 0.51266 0.97505 0.99732 0.0
O248 O 0.49928 0.0377 0.0565 0.0
O249 O 0.53246 0.02725 0.05726 0.0
O250 O 0.50392 0.97642 0.02872 0.0
C251 C 0.513 0.96743 0.01462 0.0
O252 O 0.52531 0.03153 0.98473 0.0
O253 O 0.54464 0.03673 0.01575 0.0
O254 O 0.50034 0.04976 0.01518 0.0
O255 O 0.48991 0.96997 0.95931 0.0
O256 O 0.45758 0.98145 0.95842 0.0
O257 O 0.46755 0.01909 0.99104 0.0
C258 C 0.50905 0.02209 0.08538 0.0
C259 C 0.52786 0.01793 0.09725 0.0
C260 C 0.47359 0.00032 0.10769 0.0
C261 C 0.51958 0.00484 0.11404 0.0
C262 C 0.48184 0.01327 0.09084 0.0
C263 C 0.4923 0.9958 0.11947 0.0
C264 C 0.51792 0.03517 0.06732 0.0
C265 C 0.54714 0.04266 0.99783 0.0
H266 H 0.43899 0.9728 0.91798 0.0
H267 H 0.54112 0.0264 0.90947 0.0
H268 H 0.4541 0.99581 0.88867 0.0
H269 H 0.52606 0.00362 0.93875 0.0
H270 H 0.54896 0.02453 0.09343 0.0
H271 H 0.4526 0.99407 0.11156 0.0
H272 H 0.53444 0.0014 0.12259 0.0
H273 H 0.4668 0.01625 0.08209 0.0
Eu274 Eu 0.00974 0.4864 0.98728 0.0
Eu275 Eu 0.98887 0.48502 0.03048 0.0
C276 C 0.96226 0.43077 0.00116 0.0
C277 C 0.01544 0.48954 0.93335 0.0
C278 C 0.98823 0.48535 0.92904 0.0
C279 C 0.02436 0.49667 0.90013 0.0
C280 C 0.9789 0.48614 0.91026 0.0
C281 C 0.03359 0.49568 0.9189 0.0
C282 C 0.99673 0.49134 0.89555 0.0
C283 C 0.02448 0.48595 0.95253 0.0
O284 O 0.02139 0.47147 0.03337 0.0
O285 O 0.04477 0.48809 0.0067 0.0
C286 C 0.0431 0.47816 0.02343 0.0
O287 O 0.02598 0.53108 0.99911 0.0
O288 O 0.96994 0.46135 0.05447 0.0
O289 O 0.98043 0.50479 0.05509 0.0
O290 O 0.02979 0.52573 0.03102 0.0
C291 C 0.037 0.54158 0.01682 0.0
O292 O 0.96882 0.48675 0.98247 0.0
O293 O 0.96736 0.5031 0.01304 0.0
O294 O 0.9558 0.4463 0.01213 0.0
O295 O 0.03661 0.50808 0.96499 0.0
O296 O 0.00637 0.46367 0.95996 0.0
O297 O 0.98706 0.44189 0.99468 0.0
C298 C 0.98362 0.48821 0.08497 0.0
C299 C 0.98492 0.51038 0.09669 0.0
C300 C 0.00271 0.47578 0.11239 0.0
C301 C 0.99514 0.51532 0.11606 0.0
C302 C 0.99267 0.47096 0.09299 0.0
C303 C 0.00399 0.49797 0.12413 0.0
C304 C 0.97196 0.48294 0.06467 0.0
C305 C 0.95865 0.49763 0.99463 0.0
H306 H 0.97399 0.48076 0.9401 0.0
H307 H 0.03845 0.50047 0.88907 0.0
H308 H 0.95763 0.48229 0.90717 0.0
H309 H 0.05465 0.49895 0.92202 0.0
H310 H 0.97782 0.52381 0.09089 0.0
H311 H 0.00968 0.46226 0.11819 0.0
H312 H 0.99559 0.53238 0.12481 0.0
H313 H 0.99192 0.45366 0.08434 0.0
Eu314 Eu 0.52621 0.518 0.02521 0.0
Eu315 Eu 0.50306 0.52014 0.98112 0.0
C316 C 0.53431 0.57426 0.01082 0.0
C317 C 0.53197 0.512 0.079 0.0
C318 C 0.50899 0.51563 0.0824 0.0
C319 C 0.53487 0.50188 0.11197 0.0
C320 C 0.49944 0.51305 0.10061 0.0
C321 C 0.5445 0.50462 0.09377 0.0
C322 C 0.5126 0.50665 0.11574 0.0
C323 C 0.544 0.51743 0.0605 0.0
O324 O 0.54957 0.53582 0.98097 0.0
O325 O 0.55631 0.5144 0.00612 0.0
C326 C 0.5644 0.52686 0.99041 0.0
O327 O 0.49249 0.47449 0.01406 0.0
O328 O 0.50532 0.54391 0.95698 0.0
O329 O 0.47576 0.49922 0.95439 0.0
O330 O 0.50092 0.47845 0.98266 0.0
C331 C 0.4912 0.463 0.9969 0.0
O332 O 0.48585 0.51864 0.02867 0.0
O333 O 0.4648 0.50553 0.99748 0.0
O334 O 0.51186 0.55967 0.99852 0.0
O335 O 0.53436 0.49606 0.04749 0.0
O336 O 0.54678 0.53979 0.05335 0.0
O337 O 0.54782 0.56262 0.01834 0.0
C338 C 0.49766 0.51841 0.92665 0.0
C339 C 0.47867 0.49719 0.91252 0.0
C340 C 0.5346 0.53207 0.90515 0.0
C341 C 0.48761 0.49322 0.89494 0.0
C342 C 0.52574 0.53587 0.92279 0.0
C343 C 0.51568 0.51059 0.89109 0.0
C344 C 0.48805 0.52166 0.94539 0.0
C345 C 0.46368 0.50974 0.01601 0.0
H346 H 0.499 0.52129 0.07114 0.0
H347 H 0.54514 0.4964 0.12316 0.0
H348 H 0.48247 0.51717 0.103 0.0
H349 H 0.56215 0.50158 0.09135 0.0
H350 H 0.45693 0.48352 0.91514 0.0
H351 H 0.55643 0.54557 0.90267 0.0
H352 H 0.4725 0.47666 0.8843 0.0
H353 H 0.54099 0.55233 0.93343 0.0
Eu354 Eu 0.15263 0.3217 0.31777 0.0
Eu355 Eu 0.17043 0.34996 0.36317 0.0
C356 C 0.14702 0.37503 0.33191 0.0
C357 C 0.14799 0.31614 0.26373 0.0
C358 C 0.16112 0.34542 0.26451 0.0
C359 C 0.15132 0.31374 0.22938 0.0
C360 C 0.16934 0.35879 0.24783 0.0
C361 C 0.14308 0.30037 0.2461 0.0
C362 C 0.16465 0.34314 0.23006 0.0
C363 C 0.14099 0.30231 0.28147 0.0
O364 O 0.1234 0.32087 0.35926 0.0
O365 O 0.12001 0.28974 0.33474 0.0
C366 C 0.10969 0.29606 0.34943 0.0
O367 O 0.18054 0.3074 0.33147 0.0
O368 O 0.16153 0.36745 0.38882 0.0
O369 O 0.19865 0.36313 0.38964 0.0
O370 O 0.1703 0.30917 0.36247 0.0
C371 C 0.18012 0.30007 0.34892 0.0
O372 O 0.19184 0.36359 0.31742 0.0
O373 O 0.21061 0.36992 0.34867 0.0
O374 O 0.16522 0.38124 0.34697 0.0
O375 O 0.1625 0.30503 0.29229 0.0
O376 O 0.1237 0.30626 0.29144 0.0
O377 O 0.13541 0.3508 0.32139 0.0
C378 C 0.17479 0.35511 0.41789 0.0
C379 C 0.1876 0.34043 0.42502 0.0
C380 C 0.14692 0.34409 0.44519 0.0
C381 C 0.18002 0.3276 0.44196 0.0
C382 C 0.1546 0.35704 0.42828 0.0
C383 C 0.15943 0.32907 0.4522 0.0
C384 C 0.18207 0.36817 0.39967 0.0
C385 C 0.21336 0.37563 0.33072 0.0
H386 H 0.16536 0.35796 0.27807 0.0
H387 H 0.1471 0.30104 0.2159 0.0
H388 H 0.1799 0.38146 0.24894 0.0
H389 H 0.13311 0.27776 0.24528 0.0
H390 H 0.20343 0.33871 0.4175 0.0
H391 H 0.13079 0.34544 0.45256 0.0
H392 H 0.19049 0.31668 0.4471 0.0
H393 H 0.14447 0.36833 0.42322 0.0
Eu394 Eu 0.67647 0.81975 0.32231 0.0
Eu395 Eu 0.65478 0.81664 0.36532 0.0
C396 C 0.62823 0.76336 0.3351 0.0
C397 C 0.68506 0.82721 0.26909 0.0
C398 C 0.65997 0.82783 0.26556 0.0
C399 C 0.69333 0.83313 0.23566 0.0
C400 C 0.65122 0.83034 0.24705 0.0
C401 C 0.70197 0.83045 0.25417 0.0
C402 C 0.66752 0.83242 0.23183 0.0
C403 C 0.69271 0.82126 0.28788 0.0
O404 O 0.68587 0.80119 0.36717 0.0
O405 O 0.71138 0.82192 0.34221 0.0
C406 C 0.70852 0.80958 0.35801 0.0
O407 O 0.69013 0.86365 0.33441 0.0
O408 O 0.63694 0.79254 0.38942 0.0
O409 O 0.64555 0.83535 0.39002 0.0
O410 O 0.69541 0.85786 0.36604 0.0
C411 C 0.70165 0.87405 0.35203 0.0
O412 O 0.63571 0.8203 0.3172 0.0
O413 O 0.63194 0.83366 0.34809 0.0
O414 O 0.62178 0.77853 0.34646 0.0
O415 O 0.70527 0.84232 0.30119 0.0
O416 O 0.67323 0.79871 0.2943 0.0
O417 O 0.65307 0.77468 0.32862 0.0
C418 C 0.64934 0.81889 0.41957 0.0
C419 C 0.67862 0.83346 0.42455 0.0
C420 C 0.64188 0.81468 0.45321 0.0
C421 C 0.6895 0.83876 0.44383 0.0
C422 C 0.63106 0.80949 0.43396 0.0
C423 C 0.67121 0.82943 0.45836 0.0
C424 C 0.63749 0.81345 0.39949 0.0
C425 C 0.62435 0.82961 0.32953 0.0
H426 H 0.64674 0.82548 0.27698 0.0
H427 H 0.70617 0.83442 0.22419 0.0
H428 H 0.6314 0.83004 0.24455 0.0
H429 H 0.72139 0.82999 0.25669 0.0
H430 H 0.69301 0.84073 0.41354 0.0
H431 H 0.62727 0.80753 0.46408 0.0
H432 H 0.71218 0.84987 0.44734 0.0
H433 H 0.60839 0.79825 0.4303 0.0
Eu434 Eu 0.19081 0.84802 0.35592 0.0
Eu435 Eu 0.16599 0.84826 0.31182 0.0
C436 C 0.19907 0.90354 0.34027 0.0
C437 C 0.19778 0.84312 0.40976 0.0
C438 C 0.17415 0.84563 0.41312 0.0
C439 C 0.20125 0.83334 0.44276 0.0
C440 C 0.16451 0.84265 0.43131 0.0
C441 C 0.21096 0.83648 0.42457 0.0
C442 C 0.17825 0.83694 0.44647 0.0
C443 C 0.20962 0.84877 0.3912 0.0
O444 O 0.21219 0.86285 0.31084 0.0
O445 O 0.21994 0.84308 0.33665 0.0
C446 C 0.22737 0.85448 0.32052 0.0
O447 O 0.15626 0.80441 0.34588 0.0
O448 O 0.1688 0.87092 0.28689 0.0
O449 O 0.13688 0.82711 0.28593 0.0
O450 O 0.16309 0.80639 0.31413 0.0
C451 C 0.1539 0.79189 0.32887 0.0
O452 O 0.15093 0.84938 0.35978 0.0
O453 O 0.12859 0.83516 0.32894 0.0
O454 O 0.17595 0.8886 0.3286 0.0
O455 O 0.2006 0.82732 0.37833 0.0
O456 O 0.21133 0.87063 0.38389 0.0
O457 O 0.21269 0.89197 0.34773 0.0
C458 C 0.1577 0.84337 0.2575 0.0
C459 C 0.17566 0.83222 0.25632 0.0
C460 C 0.15693 0.8463 0.22311 0.0
C461 C 0.18414 0.82803 0.23861 0.0
C462 C 0.14838 0.85038 0.24083 0.0
C463 C 0.17493 0.83509 0.2218 0.0
C464 C 0.14952 0.84868 0.27617 0.0
C465 C 0.12831 0.84017 0.3475 0.0
H466 H 0.16365 0.85071 0.40182 0.0
H467 H 0.21202 0.82844 0.45399 0.0
H468 H 0.14698 0.8459 0.43364 0.0
H469 H 0.22912 0.8343 0.42218 0.0
H470 H 0.1833 0.82698 0.26913 0.0
H471 H 0.14924 0.85167 0.2104 0.0
H472 H 0.1983 0.81972 0.23814 0.0
H473 H 0.1346 0.85912 0.24153 0.0
Eu474 Eu 0.82061 0.6588 0.6531 0.0
Eu475 Eu 0.84032 0.68696 0.69862 0.0
C476 C 0.81529 0.71172 0.66817 0.0
C477 C 0.81509 0.65372 0.59895 0.0
C478 C 0.82866 0.68303 0.59965 0.0
C479 C 0.81853 0.65104 0.56461 0.0
C480 C 0.83715 0.69627 0.58294 0.0
C481 C 0.81 0.63781 0.58134 0.0
C482 C 0.83232 0.68045 0.56522 0.0
C483 C 0.80775 0.6399 0.61669 0.0
O484 O 0.79368 0.65668 0.69611 0.0
O485 O 0.78851 0.62648 0.67022 0.0
C486 C 0.77963 0.63213 0.68598 0.0
O487 O 0.84914 0.64448 0.66574 0.0
O488 O 0.83331 0.70615 0.72422 0.0
O489 O 0.86818 0.69823 0.72512 0.0
O490 O 0.84096 0.64652 0.69723 0.0
C491 C 0.84998 0.63741 0.68315 0.0
O492 O 0.85999 0.70063 0.65248 0.0
O493 O 0.87983 0.70709 0.68349 0.0
O494 O 0.83434 0.71812 0.68271 0.0
O495 O 0.82881 0.64128 0.62722 0.0
O496 O 0.79146 0.64501 0.62696 0.0
O497 O 0.8029 0.68721 0.65798 0.0
C498 C 0.84414 0.69162 0.7527 0.0
C499 C 0.82477 0.66278 0.75165 0.0
C500 C 0.84669 0.69411 0.78748 0.0
C501 C 0.81637 0.64967 0.76842 0.0
C502 C 0.855 0.70721 0.77069 0.0
C503 C 0.82729 0.66516 0.78656 0.0
C504 C 0.85298 0.70536 0.73507 0.0
C505 C 0.8819 0.71275 0.66551 0.0
H506 H 0.83304 0.69567 0.61318 0.0
H507 H 0.81417 0.63822 0.55117 0.0
H508 H 0.84803 0.71894 0.58399 0.0
H509 H 0.79968 0.61517 0.58057 0.0
H510 H 0.81627 0.6504 0.73784 0.0
H511 H 0.85523 0.70671 0.8012 0.0
H512 H 0.80169 0.62731 0.76717 0.0
H513 H 0.86991 0.72952 0.77174 0.0
Eu514 Eu 0.34727 0.16008 0.65426 0.0
Eu515 Eu 0.3227 0.15041 0.69657 0.0
C516 C 0.2947 0.10065 0.66204 0.0
C517 C 0.35635 0.16498 0.60111 0.0
C518 C 0.32714 0.15243 0.5964 0.0
C519 C 0.36365 0.17087 0.56759 0.0
C520 C 0.31622 0.14912 0.57734 0.0
C521 C 0.37454 0.17414 0.58667 0.0
C522 C 0.33437 0.15836 0.56273 0.0
C523 C 0.36802 0.16959 0.62114 0.0
O524 O 0.35273 0.13377 0.69647 0.0
O525 O 0.38103 0.16083 0.67467 0.0
C526 C 0.37663 0.14482 0.68864 0.0
O527 O 0.35976 0.20182 0.6697 0.0
O528 O 0.30572 0.12463 0.72008 0.0
O529 O 0.31067 0.16611 0.72138 0.0
O530 O 0.3638 0.19178 0.70029 0.0
C531 C 0.37089 0.20995 0.68753 0.0
O532 O 0.30473 0.15652 0.64869 0.0
O533 O 0.29998 0.16808 0.67973 0.0
O534 O 0.29025 0.11271 0.67707 0.0
O535 O 0.36518 0.18781 0.63196 0.0
O536 O 0.36216 0.14721 0.62958 0.0
O537 O 0.31772 0.1136 0.65333 0.0
C538 C 0.31595 0.14964 0.75054 0.0
C539 C 0.34522 0.1647 0.75553 0.0
C540 C 0.3085 0.14542 0.78417 0.0
C541 C 0.35609 0.17022 0.77481 0.0
C542 C 0.29767 0.13999 0.76491 0.0
C543 C 0.33783 0.16066 0.78934 0.0
C544 C 0.30417 0.1441 0.73045 0.0
C545 C 0.29248 0.16446 0.66116 0.0
H546 H 0.31286 0.14545 0.60748 0.0
H547 H 0.37812 0.17784 0.55663 0.0
H548 H 0.29361 0.13971 0.57407 0.0
H549 H 0.39717 0.18394 0.59015 0.0
H550 H 0.3596 0.17221 0.74453 0.0
H551 H 0.29389 0.13808 0.79503 0.0
H552 H 0.37878 0.1817 0.77833 0.0
H553 H 0.275 0.12839 0.76123 0.0
Eu554 Eu 0.85901 0.18811 0.68882 0.0
Eu555 Eu 0.83402 0.18545 0.64419 0.0
C556 C 0.86722 0.24208 0.67104 0.0
C557 C 0.86424 0.1883 0.74301 0.0
C558 C 0.84054 0.1914 0.74455 0.0
C559 C 0.8654 0.18162 0.77689 0.0
C560 C 0.82971 0.19022 0.7622 0.0
C561 C 0.87634 0.18298 0.7592 0.0
C562 C 0.84229 0.18576 0.77863 0.0
C563 C 0.87704 0.19186 0.72481 0.0
O564 O 0.87979 0.19844 0.64302 0.0
O565 O 0.88951 0.18345 0.67086 0.0
C566 C 0.89573 0.19198 0.65378 0.0
O567 O 0.82686 0.14321 0.67928 0.0
O568 O 0.83676 0.20747 0.61894 0.0
O569 O 0.80531 0.16352 0.61825 0.0
O570 O 0.83238 0.14438 0.64725 0.0
C571 C 0.82444 0.13043 0.66234 0.0
O572 O 0.81851 0.18888 0.69139 0.0
O573 O 0.79614 0.17078 0.66086 0.0
O574 O 0.84341 0.22613 0.66026 0.0
O575 O 0.86786 0.16932 0.71295 0.0
O576 O 0.87971 0.21309 0.71609 0.0
O577 O 0.88115 0.23104 0.67881 0.0
C578 C 0.82697 0.17937 0.59001 0.0
C579 C 0.84502 0.16824 0.58961 0.0
C580 C 0.82824 0.18247 0.55568 0.0
C581 C 0.85457 0.16417 0.57233 0.0
C582 C 0.81862 0.18643 0.57297 0.0
C583 C 0.84638 0.17135 0.55517 0.0
C584 C 0.81797 0.18486 0.60828 0.0
C585 C 0.79563 0.17735 0.67912 0.0
H586 H 0.83084 0.1954 0.73218 0.0
H587 H 0.87566 0.17836 0.78933 0.0
H588 H 0.81168 0.19313 0.76305 0.0
H589 H 0.89464 0.18052 0.75826 0.0
H590 H 0.85194 0.16297 0.60271 0.0
H591 H 0.8213 0.18792 0.54268 0.0
H592 H 0.86879 0.15591 0.57247 0.0
H593 H 0.80481 0.19518 0.57307 0.0
H594 H 0.31632 0.85719 0.08797 0.0
H595 H 0.39893 0.91747 0.99675 0.0
H596 H 0.2742 0.83313 0.0303 0.0
H597 H 0.42699 0.96143 0.05373 0.0
H598 H 0.35514 0.88233 0.00869 0.0
H599 H 0.35927 0.8919 0.07554 0.0
C600 C 0.31592 0.85929 0.07272 0.0
C601 C 0.29135 0.84216 0.06023 0.0
C602 C 0.37092 0.89976 0.01851 0.0
C603 C 0.34095 0.88152 0.04584 0.0
C604 C 0.3959 0.91972 0.01173 0.0
C605 C 0.41658 0.94248 0.02423 0.0
C606 C 0.36689 0.90235 0.03796 0.0
C607 C 0.41155 0.94438 0.04352 0.0
C608 C 0.34058 0.87903 0.06563 0.0
C609 C 0.29262 0.84549 0.0405 0.0
N610 N 0.38733 0.92452 0.0498 0.0
N611 N 0.31701 0.86469 0.03392 0.0
H612 H 0.16911 0.47387 0.1005 0.0
H613 H 0.08563 0.47792 0.00485 0.0
H614 H 0.18336 0.45047 0.04417 0.0
H615 H 0.05477 0.4715 0.06061 0.0
H616 H 0.12511 0.47366 0.01887 0.0
H617 H 0.13094 0.47928 0.08592 0.0
C618 C 0.16418 0.46973 0.08506 0.0
C619 C 0.17932 0.46124 0.07361 0.0
C620 C 0.10964 0.47313 0.02799 0.0
C621 C 0.13579 0.46805 0.05677 0.0
C622 C 0.08713 0.47562 0.02003 0.0
C623 C 0.06679 0.47502 0.03156 0.0
C624 C 0.11208 0.47045 0.04768 0.0
C625 C 0.06982 0.47192 0.05113 0.0
C626 C 0.14241 0.47295 0.07675 0.0
C627 C 0.17244 0.45714 0.0536 0.0
N628 N 0.0921 0.46992 0.05858 0.0
N629 N 0.15114 0.46053 0.04582 0.0
H630 H 0.58761 0.75142 0.02608 0.0
H631 H 0.5625 0.60233 0.04525 0.0
H632 H 0.56575 0.7187 0.0809 0.0
H633 H 0.52646 0.6124 0.99203 0.0
H634 H 0.57522 0.64989 0.05744 0.0
H635 H 0.57501 0.70447 0.01212 0.0
C636 C 0.58011 0.73453 0.0352 0.0
C637 C 0.57804 0.73932 0.05483 0.0
C638 C 0.56465 0.64168 0.04307 0.0
C639 C 0.56461 0.68601 0.03898 0.0
C640 C 0.55754 0.61468 0.03605 0.0
C641 C 0.54337 0.60348 0.01763 0.0
C642 C 0.5581 0.65781 0.03144 0.0
C643 C 0.53725 0.6203 0.00637 0.0
C644 C 0.57309 0.70783 0.0272 0.0
C645 C 0.5686 0.7165 0.06589 0.0
N646 N 0.54484 0.64684 0.01341 0.0
N647 N 0.56254 0.69096 0.05786 0.0
H648 H 0.80516 0.27673 0.96677 0.0
H649 H 0.96944 0.3919 0.98014 0.0
H650 H 0.86966 0.26481 0.94303 0.0
H651 H 0.90649 0.40218 0.00781 0.0
H652 H 0.93331 0.34425 0.96788 0.0
H653 H 0.842 0.32147 0.98354 0.0
C654 C 0.82707 0.28335 0.96526 0.0
C655 C 0.83431 0.2671 0.95331 0.0
C656 C 0.92739 0.35683 0.97674 0.0
C657 C 0.87655 0.31845 0.97227 0.0
C658 C 0.94805 0.38409 0.98375 0.0
C659 C 0.94097 0.40115 0.99493 0.0
C660 C 0.89935 0.34653 0.98081 0.0
C661 C 0.91289 0.38981 0.9992 0.0
C662 C 0.84809 0.30897 0.97476 0.0
C663 C 0.86306 0.27689 0.95176 0.0
N664 N 0.89307 0.36327 0.99201 0.0
N665 N 0.88307 0.30196 0.96102 0.0
H666 H 0.71632 0.58773 0.9328 0.0
H667 H 0.59552 0.50208 0.00022 0.0
H668 H 0.70292 0.51045 0.95353 0.0
H669 H 0.59336 0.56092 0.96337 0.0
H670 H 0.63835 0.50852 0.98668 0.0
H671 H 0.67449 0.58161 0.94716 0.0
C672 C 0.70454 0.56933 0.94021 0.0
C673 C 0.71323 0.54946 0.94173 0.0
C674 C 0.62845 0.52 0.9816 0.0
C675 C 0.66546 0.54276 0.95873 0.0
C676 C 0.6041 0.51644 0.98938 0.0
C677 C 0.59077 0.53095 0.98292 0.0
C678 C 0.63978 0.53849 0.96748 0.0
C679 C 0.6028 0.5492 0.96876 0.0
C680 C 0.6807 0.56598 0.94854 0.0
C681 C 0.69736 0.52652 0.95211 0.0
N682 N 0.62662 0.55251 0.96159 0.0
N683 N 0.67431 0.52383 0.96021 0.0
H684 H 0.45642 0.15579 0.93405 0.0
H685 H 0.4886 0.09052 0.02281 0.0
H686 H 0.43781 0.17275 0.99068 0.0
H687 H 0.45932 0.04639 0.96592 0.0
H688 H 0.4787 0.12657 0.01193 0.0
H689 H 0.46661 0.12115 0.94622 0.0
C690 C 0.45421 0.15214 0.949 0.0
C691 C 0.44572 0.167 0.96125 0.0
C692 C 0.4744 0.10888 0.00194 0.0
C693 C 0.45841 0.12792 0.97537 0.0
C694 C 0.48011 0.08843 0.00809 0.0
C695 C 0.47464 0.06544 0.99525 0.0
C696 C 0.46391 0.10651 0.98277 0.0
C697 C 0.46361 0.06365 0.97633 0.0
C698 C 0.46026 0.13248 0.95595 0.0
C699 C 0.44442 0.16199 0.9807 0.0
N700 N 0.45885 0.08404 0.97062 0.0
N701 N 0.45074 0.14287 0.9872 0.0
H702 H 0.69104 0.12599 0.9328 0.0
H703 H 0.59715 0.07306 0.02081 0.0
H704 H 0.72509 0.15204 0.99211 0.0
H705 H 0.56201 0.05518 0.96153 0.0
H706 H 0.64414 0.10193 0.01065 0.0
H707 H 0.64348 0.09952 0.94304 0.0
C708 C 0.68838 0.12603 0.94798 0.0
C709 C 0.71186 0.14092 0.96165 0.0
C710 C 0.62613 0.0918 0.99987 0.0
C711 C 0.65777 0.1109 0.97352 0.0
C712 C 0.59926 0.07529 0.00567 0.0
C713 C 0.57554 0.06159 0.99202 0.0
C714 C 0.62939 0.09452 0.98027 0.0
C715 C 0.57964 0.06534 0.97259 0.0
C716 C 0.66132 0.11104 0.95383 0.0
C717 C 0.70747 0.14061 0.98115 0.0
N718 N 0.60604 0.08131 0.9673 0.0
N719 N 0.68094 0.12573 0.98652 0.0
H720 H 0.83041 0.54489 0.98977 0.0
H721 H 0.94052 0.49887 0.95734 0.0
H722 H 0.85296 0.54674 0.93184 0.0
H723 H 0.92672 0.51137 0.01621 0.0
H724 H 0.90519 0.51152 0.9469 0.0
H725 H 0.86203 0.52738 0.9989 0.0
C726 C 0.84198 0.54146 0.97896 0.0
C727 C 0.83937 0.54748 0.96009 0.0
C728 C 0.90991 0.5114 0.96209 0.0
C729 C 0.87562 0.52745 0.97036 0.0
C730 C 0.93002 0.50413 0.96806 0.0
C731 C 0.93676 0.50421 0.9877 0.0
C732 C 0.89632 0.51856 0.97586 0.0
C733 C 0.92245 0.51121 0.00093 0.0
C734 C 0.86007 0.53152 0.98416 0.0
C735 C 0.85463 0.54247 0.94658 0.0
N736 N 0.903 0.51809 0.99477 0.0
N737 N 0.87224 0.53285 0.95198 0.0
H738 H 0.42924 0.29117 0.95057 0.0
H739 H 0.47459 0.42616 0.02411 0.0
H740 H 0.43979 0.29233 0.01205 0.0
H741 H 0.48155 0.43009 0.96321 0.0
H742 H 0.45701 0.37601 0.01954 0.0
H743 H 0.44368 0.34105 0.95454 0.0
C744 C 0.43452 0.30202 0.96489 0.0
C745 C 0.4335 0.28786 0.98101 0.0
C746 C 0.46235 0.38781 0.00716 0.0
C747 C 0.44984 0.34455 0.9857 0.0
C748 C 0.47234 0.41648 0.00973 0.0
C749 C 0.47968 0.43241 0.99401 0.0
C750 C 0.4595 0.37483 0.98871 0.0
C751 C 0.47627 0.41864 0.97574 0.0
C752 C 0.44279 0.33039 0.96716 0.0
C753 C 0.44041 0.3026 0.99928 0.0
N754 N 0.46642 0.39059 0.97359 0.0
N755 N 0.44831 0.33019 0.00114 0.0
H756 H 0.16236 0.71383 0.00599 0.0
H757 H 0.06157 0.57228 0.05173 0.0
H758 H 0.15457 0.7099 0.06667 0.0
H759 H 0.06086 0.57972 0.99079 0.0
H760 H 0.09713 0.62204 0.05764 0.0
H761 H 0.12673 0.66399 0.00022 0.0
C762 C 0.15316 0.70236 0.01809 0.0
C763 C 0.16144 0.71579 0.03683 0.0
C764 C 0.08914 0.61278 0.04298 0.0
C765 C 0.12068 0.65892 0.03041 0.0
C766 C 0.06885 0.58435 0.03959 0.0
C767 C 0.05817 0.57177 0.02073 0.0
C768 C 0.09896 0.62872 0.02741 0.0
C769 C 0.06841 0.58849 0.00557 0.0
C770 C 0.1328 0.67397 0.01481 0.0
C771 C 0.14878 0.70013 0.05202 0.0
N772 N 0.08826 0.61606 0.00924 0.0
N773 N 0.12907 0.67248 0.04849 0.0
H774 H 0.32267 0.46334 0.08428 0.0
H775 H 0.4141 0.49505 0.99446 0.0
H776 H 0.28882 0.45592 0.02586 0.0
H777 H 0.45024 0.50926 0.05323 0.0
H778 H 0.36841 0.48189 0.00588 0.0
H779 H 0.3699 0.48151 0.07348 0.0
C780 C 0.32531 0.46578 0.0692 0.0
C781 C 0.30192 0.45814 0.05593 0.0
C782 C 0.38635 0.48802 0.0163 0.0
C783 C 0.35565 0.47861 0.0434 0.0
C784 C 0.41251 0.49554 0.00978 0.0
C785 C 0.43616 0.50322 0.02288 0.0
C786 C 0.3836 0.48797 0.03609 0.0
C787 C 0.43267 0.5035 0.04258 0.0
C788 C 0.35219 0.47609 0.06303 0.0
C789 C 0.30632 0.46156 0.03654 0.0
N790 N 0.40688 0.49583 0.04856 0.0
N791 N 0.33261 0.4714 0.03085 0.0
H792 H 0.59561 0.88651 0.06786 0.0
H793 H 0.52744 0.9393 0.98846 0.0
H794 H 0.57972 0.85616 0.00783 0.0
H795 H 0.52667 0.95493 0.04943 0.0
H796 H 0.54977 0.91158 0.99506 0.0
H797 H 0.57413 0.91518 0.06115 0.0
C798 C 0.58787 0.88625 0.05323 0.0
C799 C 0.58968 0.86937 0.03832 0.0
C800 C 0.54462 0.92099 0.00699 0.0
C801 C 0.56482 0.90158 0.03055 0.0
C802 C 0.53188 0.93683 0.00324 0.0
C803 C 0.52516 0.94944 0.01842 0.0
C804 C 0.55093 0.91793 0.02606 0.0
C805 C 0.53138 0.9455 0.03728 0.0
C806 C 0.57547 0.90238 0.04942 0.0
C807 C 0.57897 0.86922 0.01965 0.0
N808 N 0.54404 0.93018 0.04057 0.0
N809 N 0.56702 0.88515 0.01627 0.0
H810 H 0.96748 0.14199 0.3776 0.0
H811 H 0.07832 0.3045 0.37497 0.0
H812 H 0.95836 0.20863 0.40508 0.0
H813 H 0.07912 0.2393 0.3384 0.0
H814 H 0.03507 0.26937 0.38675 0.0
H815 H 0.00893 0.17691 0.3637 0.0
C816 C 0.97403 0.16393 0.38063 0.0
C817 C 0.95931 0.17231 0.3926 0.0
C818 C 0.04457 0.26271 0.37607 0.0
C819 C 0.00711 0.21246 0.37689 0.0
C820 C 0.06935 0.28278 0.36933 0.0
C821 C 0.08247 0.27486 0.35568 0.0
C822 C 0.03281 0.23435 0.36929 0.0
C823 C 0.06972 0.24637 0.34889 0.0
C824 C 0.99779 0.18386 0.37272 0.0
C825 C 0.96921 0.20112 0.39623 0.0
N826 N 0.04568 0.22711 0.35587 0.0
N827 N 0.99248 0.2201 0.38846 0.0
H828 H 0.87061 0.82491 0.39192 0.0
H829 H 0.70667 0.77585 0.38561 0.0
H830 H 0.80849 0.74974 0.41421 0.0
H831 H 0.76277 0.83302 0.34815 0.0
H832 H 0.74485 0.76884 0.39831 0.0
H833 H 0.83237 0.83055 0.37726 0.0
C834 C 0.84899 0.80945 0.39362 0.0
C835 C 0.8429 0.78695 0.40453 0.0
C836 C 0.74878 0.78284 0.38726 0.0
C837 C 0.79907 0.79365 0.38808 0.0
C838 C 0.72701 0.78695 0.38005 0.0
C839 C 0.73148 0.80504 0.36576 0.0
C840 C 0.77538 0.79718 0.38035 0.0
C841 C 0.75831 0.81879 0.35909 0.0
C842 C 0.82718 0.81279 0.38532 0.0
C843 C 0.81438 0.76781 0.40637 0.0
N844 N 0.7793 0.81471 0.36652 0.0
N845 N 0.79362 0.77172 0.39838 0.0
H846 H 0.25076 0.08075 0.35622 0.0
H847 H 0.22989 0.93297 0.37372 0.0
H848 H 0.22842 0.04599 0.41038 0.0
H849 H 0.18939 0.94076 0.32168 0.0
H850 H 0.24232 0.98047 0.38576 0.0
H851 H 0.23901 0.03429 0.34157 0.0
C852 C 0.24334 0.06352 0.36504 0.0
C853 C 0.24101 0.06759 0.38471 0.0
C854 C 0.2309 0.97178 0.37165 0.0
C855 C 0.22857 0.01499 0.36813 0.0
C856 C 0.22395 0.94482 0.36471 0.0
C857 C 0.20849 0.93295 0.34672 0.0
C858 C 0.22289 0.9872 0.36035 0.0
C859 C 0.20116 0.94918 0.3357 0.0
C860 C 0.23681 0.03714 0.35666 0.0
C861 C 0.23157 0.04436 0.39538 0.0
N862 N 0.20855 0.9757 0.34267 0.0
N863 N 0.22605 0.01921 0.38702 0.0
H864 H 0.54061 0.59335 0.28045 0.0
H865 H 0.57235 0.73485 0.34137 0.0
H866 H 0.47525 0.60913 0.29791 0.0
H867 H 0.63561 0.72447 0.31422 0.0
H868 H 0.53704 0.68674 0.32902 0.0
H869 H 0.57615 0.6393 0.29613 0.0
C870 C 0.5337 0.60648 0.28756 0.0
C871 C 0.50484 0.59743 0.28766 0.0
C872 C 0.55868 0.69497 0.32584 0.0
C873 C 0.54554 0.65004 0.30589 0.0
C874 C 0.57888 0.72241 0.33293 0.0
C875 C 0.60698 0.73378 0.32874 0.0
C876 C 0.56665 0.67871 0.31457 0.0
C877 C 0.61418 0.71666 0.31773 0.0
C878 C 0.55403 0.63268 0.29659 0.0
C879 C 0.49721 0.61512 0.29754 0.0
N880 N 0.59414 0.69003 0.311 0.0
N881 N 0.51744 0.64063 0.30618 0.0
H882 H 0.38113 0.91784 0.26499 0.0
H883 H 0.2592 0.83076 0.33109 0.0
H884 H 0.36856 0.84093 0.28592 0.0
H885 H 0.2557 0.88756 0.29287 0.0
H886 H 0.30257 0.83786 0.31808 0.0
H887 H 0.33826 0.91052 0.27839 0.0
C888 C 0.36932 0.89927 0.27224 0.0
C889 C 0.37856 0.87986 0.27411 0.0
C890 C 0.29224 0.84871 0.31256 0.0
C891 C 0.3296 0.87181 0.29 0.0
C892 C 0.26756 0.84476 0.32002 0.0
C893 C 0.25374 0.85855 0.31306 0.0
C894 C 0.3034 0.8669 0.29826 0.0
C895 C 0.26552 0.87639 0.29865 0.0
C896 C 0.34488 0.89523 0.28001 0.0
C897 C 0.36259 0.85668 0.28425 0.0
N898 N 0.2897 0.88014 0.29181 0.0
N899 N 0.33897 0.85333 0.29183 0.0
H900 H 0.09638 0.49997 0.32543 0.0
H901 H 0.12834 0.37884 0.29611 0.0
H902 H 0.11829 0.48714 0.26901 0.0
H903 H 0.14969 0.41903 0.35413 0.0
H904 H 0.11691 0.41385 0.2861 0.0
H905 H 0.10922 0.46627 0.33655 0.0
C906 C 0.104 0.49027 0.31539 0.0
C907 C 0.10602 0.49635 0.29617 0.0
C908 C 0.12412 0.41501 0.30102 0.0
C909 C 0.12002 0.45737 0.30875 0.0
C910 C 0.13047 0.39497 0.30677 0.0
C911 C 0.13993 0.39607 0.32598 0.0
C912 C 0.12676 0.43602 0.31462 0.0
C913 C 0.14257 0.41756 0.33916 0.0
C914 C 0.1112 0.47098 0.32175 0.0
C915 C 0.11563 0.48268 0.28379 0.0
N916 N 0.13578 0.43666 0.33326 0.0
N917 N 0.12205 0.4637 0.29026 0.0
H918 H 0.39324 0.48707 0.32931 0.0
H919 H 0.22838 0.38922 0.29461 0.0
H920 H 0.3598 0.46014 0.26993 0.0
H921 H 0.26308 0.40652 0.35397 0.0
H922 H 0.27579 0.41896 0.28543 0.0
H923 H 0.34518 0.46132 0.33872 0.0
C924 C 0.3757 0.47578 0.31827 0.0
C925 C 0.38034 0.47556 0.29884 0.0
C926 C 0.27302 0.41634 0.30047 0.0
C927 C 0.32541 0.44614 0.30942 0.0
C928 C 0.24591 0.3994 0.30575 0.0
C929 C 0.2417 0.3952 0.32511 0.0
C930 C 0.29614 0.42928 0.31463 0.0
C931 C 0.26529 0.40902 0.33887 0.0
C932 C 0.3483 0.46108 0.32362 0.0
C933 C 0.35697 0.4607 0.28507 0.0
N934 N 0.29148 0.42535 0.33336 0.0
N935 N 0.33049 0.44653 0.29062 0.0
H936 H 0.49491 0.87536 0.32415 0.0
H937 H 0.60813 0.8333 0.29235 0.0
H938 H 0.52052 0.88091 0.26691 0.0
H939 H 0.59058 0.84095 0.35092 0.0
H940 H 0.57301 0.84614 0.28185 0.0
H941 H 0.52657 0.85788 0.33332 0.0
C942 C 0.50718 0.87277 0.31351 0.0
C943 C 0.50541 0.87981 0.29482 0.0
C944 C 0.57685 0.84491 0.29699 0.0
C945 C 0.54166 0.85979 0.30514 0.0
C946 C 0.59684 0.83753 0.30299 0.0
C947 C 0.60249 0.83619 0.32257 0.0
C948 C 0.56226 0.85079 0.31066 0.0
C949 C 0.58718 0.8419 0.33569 0.0
C950 C 0.52528 0.86284 0.31873 0.0
C951 C 0.52154 0.87585 0.28151 0.0
N952 N 0.56786 0.84895 0.32951 0.0
N953 N 0.53911 0.86621 0.28693 0.0
H954 H 0.08422 0.61729 0.28644 0.0
H955 H 0.13846 0.75686 0.35717 0.0
H956 H 0.10101 0.62219 0.34777 0.0
H957 H 0.14103 0.7569 0.29574 0.0
H958 H 0.11922 0.70639 0.35376 0.0
H959 H 0.09946 0.66738 0.2894 0.0
C960 C 0.0909 0.62897 0.30053 0.0
C961 C 0.09137 0.6158 0.3169 0.0
C962 C 0.12395 0.71741 0.34102 0.0
C963 C 0.10881 0.67276 0.32042 0.0
C964 C 0.13489 0.74626 0.34293 0.0
C965 C 0.14149 0.76118 0.3267 0.0
C966 C 0.11938 0.70324 0.32274 0.0
C967 C 0.13637 0.74624 0.30864 0.0
C968 C 0.09967 0.65747 0.30221 0.0
C969 C 0.10029 0.63165 0.33484 0.0
N970 N 0.12561 0.71804 0.30714 0.0
N971 N 0.10868 0.65935 0.33613 0.0
H972 H 0.82292 0.04206 0.40397 0.0
H973 H 0.72231 0.91257 0.326 0.0
H974 H 0.82419 0.0459 0.34283 0.0
H975 H 0.72871 0.9046 0.3867 0.0
H976 H 0.75763 0.96212 0.33221 0.0
H977 H 0.78661 0.99227 0.39826 0.0
C978 C 0.81552 0.03229 0.38936 0.0
C979 C 0.82656 0.04789 0.37384 0.0
C980 C 0.75133 0.94957 0.34419 0.0
C981 C 0.78506 0.99128 0.36716 0.0
C982 C 0.73106 0.92123 0.34067 0.0
C983 C 0.72251 0.90433 0.35586 0.0
C984 C 0.76315 0.96126 0.36306 0.0
C985 C 0.73469 0.91681 0.37455 0.0
C986 C 0.79486 0.00397 0.3861 0.0
C987 C 0.81627 0.03451 0.35517 0.0
N988 N 0.7544 0.94455 0.37763 0.0
N989 N 0.79607 0.00697 0.35235 0.0
H990 H 0.95184 0.78359 0.35869 0.0
H991 H 0.11725 0.84255 0.38508 0.0
H992 H 0.9897 0.79368 0.41633 0.0
H993 H 0.07729 0.82326 0.327 0.0
H994 H 0.07172 0.82909 0.397 0.0
H995 H 0.9985 0.80239 0.34707 0.0
C996 C 0.97007 0.78993 0.3689 0.0
C997 C 0.96699 0.78692 0.38846 0.0
C998 C 0.07294 0.82792 0.38164 0.0
C999 C 0.02045 0.80846 0.37532 0.0
C1000 C 0.099 0.83568 0.3748 0.0
C1001 C 0.1012 0.83393 0.35497 0.0
C1002 C 0.04882 0.81839 0.36859 0.0
C1003 C 0.07669 0.82486 0.3424 0.0
C1004 C 0.99668 0.80062 0.36227 0.0
C1005 C 0.99127 0.79558 0.40111 0.0
N1006 N 0.05157 0.81737 0.34942 0.0
N1007 N 0.01696 0.80585 0.39433 0.0
H1008 H 0.24626 0.18744 0.34077 0.0
H1009 H 0.19156 0.2869 0.3842 0.0
H1010 H 0.25664 0.214 0.40118 0.0
H1011 H 0.19561 0.27201 0.32362 0.0
H1012 H 0.21282 0.25811 0.39088 0.0
H1013 H 0.22552 0.21673 0.33424 0.0
C1014 C 0.24441 0.19974 0.35261 0.0
C1015 C 0.25343 0.19875 0.37149 0.0
C1016 C 0.20903 0.26117 0.37613 0.0
C1017 C 0.22931 0.23175 0.36427 0.0
C1018 C 0.19678 0.27748 0.37231 0.0
C1019 C 0.19183 0.28188 0.35333 0.0
C1020 C 0.21618 0.24907 0.36086 0.0
C1021 C 0.19913 0.26927 0.33848 0.0
C1022 C 0.23251 0.21635 0.34892 0.0
C1023 C 0.25018 0.21461 0.38641 0.0
N1024 N 0.2109 0.25343 0.34257 0.0
N1025 N 0.23829 0.23044 0.3825 0.0
H1026 H 0.61103 0.49796 0.70038 0.0
H1027 H 0.76479 0.63072 0.7224 0.0
H1028 H 0.65693 0.52428 0.75692 0.0
H1029 H 0.73547 0.58393 0.66634 0.0
H1030 H 0.72243 0.59509 0.73476 0.0
H1031 H 0.65373 0.53209 0.68715 0.0
C1032 C 0.63003 0.51069 0.71004 0.0
C1033 C 0.63018 0.50809 0.72989 0.0
C1034 C 0.72525 0.59256 0.71976 0.0
C1035 C 0.67893 0.54771 0.71476 0.0
C1036 C 0.74938 0.61298 0.71263 0.0
C1037 C 0.75369 0.61034 0.69326 0.0
C1038 C 0.7049 0.56944 0.70742 0.0
C1039 C 0.73301 0.58674 0.68137 0.0
C1040 C 0.65436 0.53025 0.70243 0.0
C1041 C 0.65543 0.52575 0.74163 0.0
N1042 N 0.70934 0.56724 0.68862 0.0
N1043 N 0.67867 0.54487 0.7339 0.0
H1044 H 0.5379 0.15972 0.72445 0.0
H1045 H 0.37288 0.1068 0.71329 0.0
H1046 H 0.47496 0.08232 0.74385 0.0
H1047 H 0.4321 0.17109 0.68107 0.0
H1048 H 0.41064 0.09918 0.72593 0.0
H1049 H 0.50006 0.16551 0.70927 0.0
C1050 C 0.51618 0.14379 0.72538 0.0
C1051 C 0.50971 0.12061 0.73564 0.0
C1052 C 0.41537 0.11487 0.71603 0.0
C1053 C 0.46628 0.12743 0.71857 0.0
C1054 C 0.39381 0.11932 0.70884 0.0
C1055 C 0.39929 0.13964 0.69609 0.0
C1056 C 0.44275 0.13107 0.71062 0.0
C1057 C 0.42687 0.15515 0.69083 0.0
C1058 C 0.49458 0.14721 0.71679 0.0
C1059 C 0.48108 0.10087 0.73651 0.0
N1060 N 0.4476 0.15066 0.6982 0.0
N1061 N 0.4605 0.10483 0.72823 0.0
H1062 H 0.95449 0.40991 0.72787 0.0
H1063 H 0.84154 0.27184 0.66088 0.0
H1064 H 0.87887 0.40083 0.6981 0.0
H1065 H 0.91619 0.28092 0.69226 0.0
H1066 H 0.85713 0.32071 0.67163 0.0
H1067 H 0.94295 0.36425 0.71237 0.0
C1068 C 0.93548 0.39831 0.71803 0.0
C1069 C 0.91748 0.40906 0.7144 0.0
C1070 C 0.87019 0.31204 0.67603 0.0
C1071 C 0.90415 0.3568 0.69653 0.0
C1072 C 0.86132 0.28416 0.66987 0.0
C1073 C 0.87745 0.27219 0.67582 0.0
C1074 C 0.89533 0.32802 0.68823 0.0
C1075 C 0.90294 0.28917 0.68744 0.0
C1076 C 0.92895 0.37229 0.70911 0.0
C1077 C 0.89341 0.39338 0.70123 0.0
N1078 N 0.91098 0.31614 0.69335 0.0
N1079 N 0.88731 0.36793 0.69289 0.0
H1080 H 0.17882 0.95528 0.58499 0.0
H1081 H 0.25073 0.06141 0.67973 0.0
H1082 H 0.16165 0.92798 0.64158 0.0
H1083 H 0.28824 0.07488 0.62614 0.0
H1084 H 0.21385 0.01454 0.66573 0.0
H1085 H 0.21489 0.00156 0.59961 0.0
C1086 C 0.18271 0.95887 0.60049 0.0
C1087 C 0.16731 0.9374 0.61203 0.0
C1088 C 0.23024 0.02778 0.65711 0.0
C1089 C 0.20828 0.99085 0.62887 0.0
C1090 C 0.25122 0.05452 0.66504 0.0
C1091 C 0.27264 0.07205 0.6541 0.0
C1092 C 0.23042 0.01877 0.638 0.0
C1093 C 0.27227 0.06203 0.63516 0.0
C1094 C 0.20325 0.98541 0.60882 0.0
C1095 C 0.17278 0.94383 0.63208 0.0
N1096 N 0.25141 0.03615 0.62768 0.0
N1097 N 0.19281 0.96998 0.63987 0.0
H1098 H 0.01959 0.20207 0.57914 0.0
H1099 H 0.94091 0.1923 0.67331 0.0
H1100 H 0.06177 0.22021 0.63648 0.0
H1101 H 0.90923 0.19751 0.61681 0.0
H1102 H 0.98345 0.19742 0.66008 0.0
H1103 H 0.97709 0.19541 0.59275 0.0
C1104 C 0.02005 0.20485 0.59459 0.0
C1105 C 0.04455 0.21199 0.60663 0.0
C1106 C 0.96715 0.19745 0.65062 0.0
C1107 C 0.99548 0.20377 0.62237 0.0
C1108 C 0.94283 0.19444 0.65815 0.0
C1109 C 0.92149 0.1946 0.64619 0.0
C1110 C 0.96996 0.20028 0.63097 0.0
C1111 C 0.92517 0.19748 0.62663 0.0
C1112 C 0.99565 0.20087 0.60236 0.0
C1113 C 0.0434 0.21448 0.6266 0.0
N1114 N 0.94885 0.20012 0.61966 0.0
N1115 N 0.01931 0.21039 0.63383 0.0
H1116 H 0.76825 0.83932 0.66007 0.0
H1117 H 0.79515 0.71441 0.63257 0.0
H1118 H 0.78844 0.82342 0.60373 0.0
H1119 H 0.8201 0.75722 0.68991 0.0
H1120 H 0.78459 0.74978 0.62219 0.0
H1121 H 0.7804 0.80544 0.67184 0.0
C1122 C 0.77535 0.82891 0.65018 0.0
C1123 C 0.77704 0.83416 0.63079 0.0
C1124 C 0.79238 0.75143 0.63705 0.0
C1125 C 0.79023 0.79498 0.64413 0.0
C1126 C 0.79823 0.73117 0.64303 0.0
C1127 C 0.80845 0.73291 0.66215 0.0
C1128 C 0.79631 0.77334 0.65033 0.0
C1129 C 0.81233 0.75525 0.67502 0.0
C1130 C 0.78216 0.80953 0.65693 0.0
C1131 C 0.78601 0.81962 0.61864 0.0
N1132 N 0.80602 0.77458 0.66891 0.0
N1133 N 0.79202 0.80056 0.62548 0.0
H1134 H 0.02542 0.79989 0.60068 0.0
H1135 H 0.93155 0.74526 0.68846 0.0
H1136 H 0.05867 0.82699 0.66008 0.0
H1137 H 0.89635 0.72556 0.62914 0.0
H1138 H 0.97811 0.77579 0.67831 0.0
H1139 H 0.97777 0.7729 0.61071 0.0
C1140 C 0.02255 0.80029 0.61582 0.0
C1141 C 0.04584 0.81579 0.62958 0.0
C1142 C 0.96019 0.76491 0.66752 0.0
C1143 C 0.99167 0.78479 0.64121 0.0
C1144 C 0.93355 0.74743 0.6733 0.0
C1145 C 0.90995 0.73268 0.65964 0.0
C1146 C 0.96338 0.76759 0.6479 0.0
C1147 C 0.91391 0.73646 0.6402 0.0
C1148 C 0.99544 0.78491 0.62155 0.0
C1149 C 0.0412 0.81543 0.64903 0.0
N1150 N 0.94012 0.7534 0.63491 0.0
N1151 N 0.01466 0.80011 0.65427 0.0
H1152 H 0.15993 0.20594 0.65612 0.0
H1153 H 0.27606 0.16826 0.62411 0.0
H1154 H 0.18665 0.2137 0.59916 0.0
H1155 H 0.25751 0.17381 0.68266 0.0
H1156 H 0.24004 0.17994 0.61374 0.0
H1157 H 0.19203 0.1889 0.66512 0.0
C1158 C 0.17251 0.20389 0.6455 0.0
C1159 C 0.17093 0.21144 0.62694 0.0
C1160 C 0.24384 0.1785 0.62884 0.0
C1161 C 0.20772 0.19199 0.63707 0.0
C1162 C 0.26435 0.17178 0.63477 0.0
C1163 C 0.26999 0.17023 0.65431 0.0
C1164 C 0.22874 0.18351 0.64254 0.0
C1165 C 0.25412 0.17498 0.66747 0.0
C1166 C 0.19087 0.19423 0.65062 0.0
C1167 C 0.18749 0.20822 0.61365 0.0
N1168 N 0.23431 0.18142 0.66134 0.0
N1169 N 0.20532 0.19885 0.61899 0.0
H1170 H 0.75573 0.95607 0.62008 0.0
H1171 H 0.8121 0.09599 0.69102 0.0
H1172 H 0.77521 0.9611 0.68111 0.0
H1173 H 0.81042 0.09508 0.62933 0.0
H1174 H 0.79378 0.04558 0.68772 0.0
H1175 H 0.7708 0.0061 0.62327 0.0
C1176 C 0.763 0.96778 0.63416 0.0
C1177 C 0.76422 0.95464 0.65036 0.0
C1178 C 0.7974 0.0564 0.6749 0.0
C1179 C 0.78151 0.01158 0.65417 0.0
C1180 C 0.80781 0.08519 0.67676 0.0
C1181 C 0.81289 0.09982 0.66041 0.0
C1182 C 0.79184 0.04203 0.65657 0.0
C1183 C 0.80694 0.08468 0.64232 0.0
C1184 C 0.77167 0.99625 0.63598 0.0
C1185 C 0.77389 0.97054 0.6683 0.0
N1186 N 0.7967 0.05658 0.64088 0.0
N1187 N 0.78218 0.99823 0.66973 0.0
H1188 H 0.49532 0.38225 0.67937 0.0
H1189 H 0.39953 0.23707 0.72294 0.0
H1190 H 0.49566 0.37528 0.74025 0.0
H1191 H 0.39133 0.25106 0.66356 0.0
H1192 H 0.4363 0.28664 0.72995 0.0
H1193 H 0.45891 0.33286 0.67349 0.0
C1194 C 0.48778 0.37018 0.69149 0.0
C1195 C 0.4986 0.38264 0.71029 0.0
C1196 C 0.42631 0.27875 0.71542 0.0
C1197 C 0.45676 0.32617 0.70376 0.0
C1198 C 0.40534 0.25051 0.71142 0.0
C1199 C 0.39231 0.23985 0.69264 0.0
C1200 C 0.43432 0.29626 0.70049 0.0
C1201 C 0.4007 0.25822 0.67826 0.0
C1202 C 0.46693 0.34202 0.68816 0.0
C1203 C 0.48793 0.36621 0.72553 0.0
N1204 N 0.42117 0.28539 0.68248 0.0
N1205 N 0.4676 0.33873 0.72195 0.0
H1206 H 0.6581 0.13411 0.75007 0.0
H1207 H 0.74422 0.15631 0.65813 0.0
H1208 H 0.61977 0.11469 0.69169 0.0
H1209 H 0.78412 0.18249 0.71632 0.0
H1210 H 0.69874 0.14235 0.67019 0.0
H1211 H 0.70473 0.15334 0.73813 0.0
C1212 C 0.65962 0.13415 0.73474 0.0
C1213 C 0.63517 0.12284 0.72184 0.0
C1214 C 0.71746 0.15128 0.68033 0.0
C1215 C 0.68821 0.14448 0.70803 0.0
C1216 C 0.74351 0.15928 0.67344 0.0
C1217 C 0.76816 0.17051 0.68621 0.0
C1218 C 0.71587 0.15434 0.70017 0.0
C1219 C 0.76577 0.17389 0.70591 0.0
C1220 C 0.68615 0.14506 0.72792 0.0
C1221 C 0.63813 0.12322 0.70211 0.0
N1222 N 0.7401 0.16569 0.71228 0.0
N1223 N 0.66413 0.13372 0.69581 0.0
H1224 H 0.93202 0.55494 0.73542 0.0
H1225 H 0.8649 0.60995 0.6569 0.0
H1226 H 0.92042 0.52967 0.67472 0.0
H1227 H 0.86384 0.62473 0.71793 0.0
H1228 H 0.88763 0.58264 0.66321 0.0
H1229 H 0.90998 0.58332 0.72936 0.0
C1230 C 0.92514 0.55577 0.7208 0.0
C1231 C 0.9284 0.54048 0.70549 0.0
C1232 C 0.88236 0.59177 0.67523 0.0
C1233 C 0.90283 0.57227 0.69846 0.0
C1234 C 0.86937 0.60739 0.67165 0.0
C1235 C 0.86246 0.61968 0.68692 0.0
C1236 C 0.8887 0.58849 0.69423 0.0
C1237 C 0.86873 0.61557 0.70572 0.0
C1238 C 0.91242 0.57174 0.71735 0.0
C1239 C 0.91865 0.54158 0.68684 0.0
N1240 N 0.88161 0.60039 0.70886 0.0
N1241 N 0.90634 0.55727 0.68383 0.0
H1242 H 0.48887 0.94153 0.23315 0.0
H1243 H 0.44054 0.95153 0.12536 0.0
H1244 H 0.40301 0.8918 0.20701 0.0
H1245 H 0.52371 0.0076 0.1543 0.0
H1246 H 0.42656 0.92855 0.1547 0.0
H1247 H 0.50232 0.96463 0.20385 0.0
C1248 C 0.47286 0.93533 0.22119 0.0
C1249 C 0.44477 0.9146 0.22254 0.0
C1250 C 0.44786 0.9459 0.15463 0.0
C1251 C 0.46001 0.94123 0.18891 0.0
C1252 C 0.45584 0.95917 0.13789 0.0
C1253 C 0.48339 0.98161 0.13728 0.0
C1254 C 0.46757 0.955 0.17091 0.0
C1255 C 0.50238 0.99016 0.15393 0.0
C1256 C 0.48052 0.94868 0.20449 0.0
C1257 C 0.42485 0.90782 0.20668 0.0
N1258 N 0.49413 0.97684 0.17001 0.0
N1259 N 0.43287 0.92104 0.19051 0.0
H1260 H 0.09368 0.57095 0.23682 0.0
H1261 H 0.991 0.45909 0.14987 0.0
H1262 H 0.03769 0.48341 0.24272 0.0
H1263 H 0.04027 0.54794 0.14534 0.0
H1264 H 0.00846 0.46752 0.18384 0.0
H1265 H 0.07442 0.56303 0.2033 0.0
C1266 C 0.07715 0.55011 0.23112 0.0
C1267 C 0.06735 0.52779 0.2426 0.0
C1268 C 0.01542 0.48519 0.17544 0.0
C1269 C 0.04551 0.51849 0.20414 0.0
C1270 C 0.00561 0.48037 0.15602 0.0
C1271 C 0.01428 0.50285 0.14477 0.0
C1272 C 0.03418 0.51269 0.18366 0.0
C1273 C 0.03287 0.53004 0.15355 0.0
C1274 C 0.06628 0.54557 0.21194 0.0
C1275 C 0.04621 0.50114 0.23434 0.0
N1276 N 0.04229 0.53419 0.17246 0.0
N1277 N 0.03606 0.49722 0.2156 0.0
H1278 H 0.51666 0.54087 0.23802 0.0
H1279 H 0.45939 0.48742 0.12725 0.0
H1280 H 0.43099 0.51297 0.21536 0.0
H1281 H 0.5471 0.52662 0.14956 0.0
H1282 H 0.44725 0.49158 0.15984 0.0
H1283 H 0.52673 0.53047 0.20614 0.0
C1284 C 0.49994 0.53256 0.22632 0.0
C1285 C 0.47302 0.52812 0.22934 0.0
C1286 C 0.46912 0.49908 0.15758 0.0
C1287 C 0.48437 0.51589 0.19273 0.0
C1288 C 0.4761 0.49683 0.13897 0.0
C1289 C 0.50437 0.50678 0.13557 0.0
C1290 C 0.49052 0.51133 0.17294 0.0
C1291 C 0.525 0.5183 0.15142 0.0
C1292 C 0.50568 0.5265 0.20812 0.0
C1293 C 0.45201 0.51664 0.21372 0.0
N1294 N 0.51768 0.52037 0.16935 0.0
N1295 N 0.45818 0.5111 0.19605 0.0
H1296 H 0.97714 0.51414 0.77547 0.0
H1297 H 0.94619 0.45124 0.87678 0.0
H1298 H 0.91288 0.42947 0.78217 0.0
H1299 H 0.02303 0.5266 0.86824 0.0
H1300 H 0.93009 0.44619 0.84281 0.0
H1301 H 0.9909 0.52205 0.81015 0.0
C1302 C 0.96585 0.49729 0.78428 0.0
C1303 C 0.94397 0.47107 0.77598 0.0
C1304 C 0.95042 0.4639 0.84838 0.0
C1305 C 0.95949 0.47995 0.81552 0.0
C1306 C 0.95951 0.46693 0.86779 0.0
C1307 C 0.986 0.48936 0.87531 0.0
C1308 C 0.96786 0.48353 0.83639 0.0
C1309 C 0.00259 0.50885 0.86295 0.0
C1310 C 0.97377 0.50177 0.80402 0.0
C1311 C 0.93012 0.44987 0.78798 0.0
N1312 N 0.99325 0.50548 0.84407 0.0
N1313 N 0.93809 0.45479 0.80716 0.0
H1314 H 0.55342 0.43796 0.79268 0.0
H1315 H 0.54853 0.54984 0.86774 0.0
H1316 H 0.58002 0.52283 0.78084 0.0
H1317 H 0.505 0.46089 0.87248 0.0
H1318 H 0.56447 0.5416 0.83739 0.0
H1319 H 0.53981 0.44729 0.82352 0.0
C1320 C 0.55635 0.45856 0.79653 0.0
C1321 C 0.56767 0.47956 0.78401 0.0
C1322 C 0.55141 0.5239 0.84507 0.0
C1323 C 0.55244 0.4905 0.81954 0.0
C1324 C 0.54242 0.5286 0.86242 0.0
C1325 C 0.52535 0.506 0.87261 0.0
C1326 C 0.54351 0.49644 0.83797 0.0
C1327 C 0.51784 0.47888 0.86497 0.0
C1328 C 0.54865 0.4639 0.81419 0.0
C1329 C 0.57161 0.50606 0.79005 0.0
N1330 N 0.52704 0.47487 0.84816 0.0
N1331 N 0.56393 0.51076 0.80737 0.0
H1332 H 0.52419 0.11583 0.80343 0.0
H1333 H 0.53822 0.01394 0.87397 0.0
H1334 H 0.56419 0.06777 0.78911 0.0
H1335 H 0.48049 0.04494 0.87959 0.0
H1336 H 0.55279 0.03786 0.84489 0.0
H1337 H 0.51293 0.09444 0.83347 0.0
C1338 C 0.53058 0.10072 0.80655 0.0
C1339 C 0.54487 0.09335 0.79351 0.0
C1340 C 0.53695 0.03941 0.8525 0.0
C1341 C 0.53237 0.06905 0.82819 0.0
C1342 C 0.52872 0.02589 0.86913 0.0
C1343 C 0.50802 0.02736 0.87917 0.0
C1344 C 0.52463 0.0548 0.84598 0.0
C1345 C 0.49625 0.04295 0.87217 0.0
C1346 C 0.52422 0.08859 0.82377 0.0
C1347 C 0.55329 0.07423 0.7987 0.0
N1348 N 0.50476 0.0561 0.85606 0.0
N1349 N 0.54682 0.06267 0.8156 0.0
H1350 H 0.10206 0.28165 0.564 0.0
H1351 H 0.15262 0.27796 0.45964 0.0
H1352 H 0.12197 0.21971 0.54195 0.0
H1353 H 0.14659 0.34744 0.48541 0.0
H1354 H 0.13897 0.25507 0.48899 0.0
H1355 H 0.11533 0.30453 0.5345 0.0
C1356 C 0.10907 0.27277 0.5529 0.0
C1357 C 0.1109 0.24872 0.55544 0.0
C1358 C 0.14067 0.27534 0.48824 0.0
C1359 C 0.12628 0.27489 0.52167 0.0
C1360 C 0.14863 0.28854 0.4715 0.0
C1361 C 0.1509 0.31479 0.47 0.0
C1362 C 0.13475 0.28834 0.50364 0.0
C1363 C 0.1448 0.32709 0.48576 0.0
C1364 C 0.11681 0.28594 0.53611 0.0
C1365 C 0.12051 0.23836 0.54068 0.0
N1366 N 0.13701 0.31377 0.5019 0.0
N1367 N 0.12776 0.25145 0.52443 0.0
H1368 H 0.76602 0.90633 0.5694 0.0
H1369 H 0.65299 0.79374 0.48641 0.0
H1370 H 0.70721 0.82043 0.57774 0.0
H1371 H 0.71527 0.87802 0.47698 0.0
H1372 H 0.67143 0.80372 0.52022 0.0
H1373 H 0.74631 0.89707 0.53585 0.0
C1374 C 0.7488 0.88558 0.56421 0.0
C1375 C 0.73829 0.86409 0.57637 0.0
C1376 C 0.68109 0.82005 0.51077 0.0
C1377 C 0.71584 0.85326 0.53795 0.0
C1378 C 0.67048 0.8144 0.49148 0.0
C1379 C 0.68259 0.83509 0.47885 0.0
C1380 C 0.70395 0.84663 0.51755 0.0
C1381 C 0.7055 0.86135 0.48616 0.0
C1382 C 0.73769 0.88025 0.54502 0.0
C1383 C 0.71621 0.83751 0.56881 0.0
N1384 N 0.7154 0.86639 0.50503 0.0
N1385 N 0.70573 0.83284 0.55009 0.0
H1386 H 0.18088 0.87413 0.56811 0.0
H1387 H 0.12472 0.81576 0.45781 0.0
H1388 H 0.09502 0.84381 0.54467 0.0
H1389 H 0.2125 0.85776 0.48041 0.0
H1390 H 0.11206 0.81974 0.49024 0.0
H1391 H 0.19126 0.86173 0.53686 0.0
C1392 C 0.16417 0.86476 0.55639 0.0
C1393 C 0.13714 0.86037 0.55894 0.0
C1394 C 0.13406 0.82786 0.48809 0.0
C1395 C 0.14885 0.84597 0.52308 0.0
C1396 C 0.14134 0.82572 0.46956 0.0
C1397 C 0.16978 0.83661 0.46628 0.0
C1398 C 0.15535 0.84095 0.50349 0.0
C1399 C 0.19029 0.84877 0.48218 0.0
C1400 C 0.17009 0.8576 0.53856 0.0
C1401 C 0.11614 0.84754 0.54336 0.0
N1402 N 0.18269 0.85076 0.50003 0.0
N1403 N 0.1225 0.84102 0.52604 0.0
H1404 H 0.64615 0.85065 0.11061 0.0
H1405 H 0.61422 0.79748 0.21468 0.0
H1406 H 0.57854 0.76931 0.12079 0.0
H1407 H 0.69583 0.86413 0.20333 0.0
H1408 H 0.59724 0.79238 0.18094 0.0
H1409 H 0.66136 0.86091 0.14527 0.0
C1410 C 0.63447 0.83508 0.12018 0.0
C1411 C 0.61126 0.80902 0.11292 0.0
C1412 C 0.61881 0.80826 0.18584 0.0
C1413 C 0.62822 0.82061 0.15228 0.0
C1414 C 0.62845 0.81136 0.20514 0.0
C1415 C 0.6565 0.83122 0.2118 0.0
C1416 C 0.63728 0.82523 0.17309 0.0
C1417 C 0.67412 0.84836 0.19871 0.0
C1418 C 0.64317 0.84087 0.13986 0.0
C1419 C 0.59679 0.7895 0.12582 0.0
N1420 N 0.66424 0.84493 0.17993 0.0
N1421 N 0.60548 0.7957 0.14487 0.0
H1422 H 0.23519 0.85345 0.10888 0.0
H1423 H 0.17899 0.79016 0.20747 0.0
H1424 H 0.21402 0.77002 0.12104 0.0
H1425 H 0.19178 0.87026 0.19327 0.0
H1426 H 0.19417 0.78352 0.17651 0.0
H1427 H 0.22189 0.86116 0.14041 0.0
C1428 C 0.22792 0.83682 0.11823 0.0
C1429 C 0.22565 0.81102 0.11229 0.0
C1430 C 0.19366 0.80256 0.18015 0.0
C1431 C 0.2102 0.81961 0.14834 0.0
C1432 C 0.18514 0.80643 0.19788 0.0
C1433 C 0.18409 0.8308 0.20298 0.0
C1434 C 0.20134 0.82325 0.1674 0.0
C1435 C 0.19194 0.85099 0.18984 0.0
C1436 C 0.22017 0.84117 0.13618 0.0
C1437 C 0.21577 0.79011 0.12492 0.0
N1438 N 0.20027 0.84679 0.17268 0.0
N1439 N 0.20844 0.79487 0.14232 0.0
H1440 H 0.19686 0.45242 0.13999 0.0
H1441 H 0.18931 0.33113 0.20071 0.0
H1442 H 0.22598 0.39649 0.12077 0.0
H1443 H 0.16078 0.38795 0.21904 0.0
H1444 H 0.20394 0.35514 0.17174 0.0
H1445 H 0.18517 0.42985 0.16957 0.0
C1446 C 0.2008 0.43535 0.14201 0.0
C1447 C 0.21217 0.42615 0.12779 0.0
C1448 C 0.19453 0.36238 0.18213 0.0
C1449 C 0.1989 0.40019 0.16178 0.0
C1450 C 0.18599 0.34856 0.19861 0.0
C1451 C 0.17373 0.35748 0.21236 0.0
C1452 C 0.19075 0.38528 0.1793 0.0
C1453 C 0.17042 0.38051 0.20899 0.0
C1454 C 0.1942 0.42251 0.15895 0.0
C1455 C 0.21734 0.40431 0.13137 0.0
N1456 N 0.1788 0.39352 0.19282 0.0
N1457 N 0.21049 0.39193 0.14796 0.0
H1458 H 0.73482 0.56052 0.87407 0.0
H1459 H 0.86067 0.67368 0.81978 0.0
H1460 H 0.82176 0.60806 0.89843 0.0
H1461 H 0.77451 0.62453 0.79406 0.0
H1462 H 0.8464 0.65038 0.84894 0.0
H1463 H 0.74851 0.58419 0.84486 0.0
C1464 C 0.75676 0.576 0.87331 0.0
C1465 C 0.77718 0.58223 0.88873 0.0
C1466 C 0.83058 0.64467 0.83693 0.0
C1467 C 0.79303 0.6093 0.85529 0.0
C1468 C 0.8387 0.65812 0.8203 0.0
C1469 C 0.81877 0.65113 0.80442 0.0
C1470 C 0.80227 0.62405 0.8378 0.0
C1471 C 0.79067 0.63039 0.80586 0.0
C1472 C 0.76459 0.5894 0.8566 0.0
C1473 C 0.80535 0.60225 0.88683 0.0
N1474 N 0.78326 0.61763 0.82224 0.0
N1475 N 0.81241 0.61506 0.87047 0.0
H1476 H 0.43391 0.23872 0.8998 0.0
H1477 H 0.32014 0.12519 0.81755 0.0
H1478 H 0.37518 0.15306 0.90874 0.0
H1479 H 0.38144 0.20967 0.80779 0.0
H1480 H 0.33887 0.13557 0.85132 0.0
H1481 H 0.41358 0.22915 0.86639 0.0
C1482 C 0.41657 0.21796 0.89477 0.0
C1483 C 0.40628 0.19662 0.90705 0.0
C1484 C 0.34824 0.15186 0.8418 0.0
C1485 C 0.38312 0.18543 0.86879 0.0
C1486 C 0.33746 0.14598 0.82254 0.0
C1487 C 0.34925 0.1666 0.80983 0.0
C1488 C 0.37095 0.17859 0.84846 0.0
C1489 C 0.37194 0.19305 0.81703 0.0
C1490 C 0.40511 0.21245 0.87566 0.0
C1491 C 0.38402 0.17001 0.8997 0.0
N1492 N 0.38203 0.19829 0.83587 0.0
N1493 N 0.37322 0.16516 0.88105 0.0
H1494 H 0.80891 0.247 0.88389 0.0
H1495 H 0.83317 0.15086 0.80703 0.0
H1496 H 0.78958 0.16312 0.89302 0.0
H1497 H 0.82932 0.22412 0.79369 0.0
H1498 H 0.81902 0.15538 0.83899 0.0
H1499 H 0.8182 0.23949 0.85107 0.0
C1500 C 0.80658 0.22696 0.87892 0.0
C1501 C 0.79862 0.20569 0.89116 0.0
C1502 C 0.82106 0.1703 0.82899 0.0
C1503 C 0.80933 0.19694 0.85366 0.0
C1504 C 0.82928 0.16783 0.81082 0.0
C1505 C 0.8324 0.18714 0.79769 0.0
C1506 C 0.81635 0.19247 0.83414 0.0
C1507 C 0.82687 0.20859 0.80327 0.0
C1508 C 0.81176 0.22263 0.86018 0.0
C1509 C 0.79558 0.18 0.88397 0.0
N1510 N 0.81933 0.21079 0.8211 0.0
N1511 N 0.80121 0.1764 0.86571 0.0
H1512 H 0.30611 0.1778 0.443 0.0
H1513 H 0.28777 0.11267 0.54369 0.0
H1514 H 0.24439 0.0927 0.45104 0.0
H1515 H 0.35461 0.19565 0.53567 0.0
H1516 H 0.26948 0.10652 0.51017 0.0
H1517 H 0.32215 0.18634 0.47739 0.0
C1518 C 0.29585 0.161 0.45203 0.0
C1519 C 0.27411 0.13444 0.44417 0.0
C1520 C 0.28813 0.12612 0.51572 0.0
C1521 C 0.2923 0.14395 0.48334 0.0
C1522 C 0.29848 0.12969 0.53491 0.0
C1523 C 0.32279 0.15468 0.54248 0.0
C1524 C 0.30215 0.14768 0.50397 0.0
C1525 C 0.33603 0.17589 0.53034 0.0
C1526 C 0.30507 0.16582 0.4716 0.0
C1527 C 0.26158 0.11335 0.45646 0.0
N1528 N 0.32555 0.1719 0.51166 0.0
N1529 N 0.27089 0.11854 0.4754 0.0
H1530 H 0.88718 0.1016 0.45654 0.0
H1531 H 0.86518 0.20693 0.527 0.0
H1532 H 0.90926 0.18522 0.44429 0.0
H1533 H 0.8513 0.12661 0.54155 0.0
H1534 H 0.8814 0.19945 0.49665 0.0
H1535 H 0.8743 0.11056 0.48786 0.0
C1536 C 0.88936 0.12188 0.46047 0.0
C1537 C 0.89919 0.14265 0.44774 0.0
C1538 C 0.8749 0.1835 0.50651 0.0
C1539 C 0.88448 0.15308 0.48361 0.0
C1540 C 0.86545 0.18767 0.52378 0.0
C1541 C 0.85676 0.16731 0.53682 0.0
C1542 C 0.87553 0.1587 0.50214 0.0
C1543 C 0.85802 0.14297 0.53202 0.0
C1544 C 0.8821 0.12702 0.47838 0.0
C1545 C 0.90198 0.16868 0.4537 0.0
N1546 N 0.86709 0.13929 0.51504 0.0
N1547 N 0.89448 0.17309 0.47114 0.0
H1548 H 0.86408 0.78654 0.47301 0.0
H1549 H 0.85687 0.66763 0.53622 0.0
H1550 H 0.89376 0.73039 0.45556 0.0
H1551 H 0.82942 0.72563 0.55377 0.0
H1552 H 0.87169 0.69094 0.50703 0.0
H1553 H 0.85302 0.76554 0.50324 0.0
C1554 C 0.86833 0.7698 0.47557 0.0
C1555 C 0.87965 0.76005 0.46166 0.0
C1556 C 0.8625 0.69862 0.51729 0.0
C1557 C 0.86705 0.73585 0.49634 0.0
C1558 C 0.85384 0.68519 0.53391 0.0
C1559 C 0.84176 0.6946 0.54748 0.0
C1560 C 0.85901 0.7216 0.51414 0.0
C1561 C 0.83886 0.71779 0.54385 0.0
C1562 C 0.86208 0.75786 0.49287 0.0
C1563 C 0.88518 0.73864 0.46591 0.0
N1564 N 0.84731 0.73039 0.52753 0.0
N1565 N 0.87863 0.72712 0.48281 0.0
loop_
_geom_bond_atom_site_label_1
_geom_bond_atom_site_label_2
_geom_bond_distance
_geom_bond_site_symmetry_2
_ccdc_geom_bond_type
H0 C7 0.929 . S
H1 C10 0.930 . S
H2 C12 0.929 . S
H3 C4 0.969 . S
C4 H3 0.969 . S
C4 O5 1.550 . S
C4 H6 0.973 . S
O5 C4 1.550 . S
O5 C11 1.412 . S
H6 C4 0.973 . S
C7 H0 0.929 . S
C7 C8 1.400 . S
C7 C9 1.364 . S
C8 C7 1.400 . S
C8 C12 1.377 . S
C9 C7 1.364 . S
C9 C10 1.374 . S
C10 H1 0.930 . S
C10 C9 1.374 . S
C10 C11 1.383 . S
C11 O5 1.412 . S
C11 C10 1.383 . S
C11 C12 1.394 . S
C12 H2 0.929 . S
C12 C8 1.377 . S
C12 C11 1.394 . S
H13 C20 0.929 . S
H14 C23 0.930 . S
H15 C25 0.929 . S
H16 C17 0.969 . S
C17 H16 0.969 . S
C17 O18 1.550 . S
C17 H19 0.973 . S
O18 C17 1.550 . S
O18 C24 1.412 . S
H19 C17 0.973 . S
C20 H13 0.929 . S
C20 C21 1.400 . S
C20 C22 1.364 . S
C21 C20 1.400 . S
C21 C25 1.377 . S
C22 C20 1.364 . S
C22 C23 1.374 . S
C23 H14 0.930 . S
C23 C22 1.374 . S
C23 C24 1.383 . S
C24 O18 1.412 . S
C24 C23 1.383 . S
C24 C25 1.394 . S
C25 H15 0.929 . S
C25 C21 1.377 . S
C25 C24 1.394 . S
H26 C33 0.929 . S
H27 C36 0.930 . S
H28 C38 0.929 . S
H29 C30 0.969 . S
C30 H29 0.969 . S
C30 O31 1.550 . S
C30 H32 0.973 . S
O31 C30 1.550 . S
O31 C37 1.412 . S
H32 C30 0.973 . S
C33 H26 0.929 . S
C33 C34 1.400 . S
C33 C35 1.364 . S
C34 C33 1.400 . S
C34 C38 1.377 . S
C35 C33 1.364 . S
C35 C36 1.374 . S
C36 H27 0.930 . S
C36 C35 1.374 . S
C36 C37 1.383 . S
C37 O31 1.412 . S
C37 C36 1.383 . S
C37 C38 1.394 . S
C38 H28 0.929 . S
C38 C34 1.377 . S
C38 C37 1.394 . S
H39 C46 0.929 . S
H40 C49 0.930 . S
H41 C51 0.929 . S
H42 C43 0.969 . S
C43 H42 0.969 . S
C43 O44 1.550 . S
C43 H45 0.973 . S
O44 C43 1.550 . S
O44 C50 1.412 . S
H45 C43 0.973 . S
C46 H39 0.929 . S
C46 C47 1.400 . S
C46 C48 1.364 . S
C47 C46 1.400 . S
C47 C51 1.377 . S
C48 C46 1.364 . S
C48 C49 1.374 . S
C49 H40 0.930 . S
C49 C48 1.374 . S
C49 C50 1.383 . S
C50 O44 1.412 . S
C50 C49 1.383 . S
C50 C51 1.394 . S
C51 H41 0.929 . S
C51 C47 1.377 . S
C51 C50 1.394 . S
H52 C59 0.929 . S
H53 C62 0.930 . S
H54 C64 0.929 . S
H55 C56 0.969 . S
C56 H55 0.969 . S
C56 O57 1.550 . S
C56 H58 0.973 . S
O57 C56 1.550 . S
O57 C63 1.412 . S
H58 C56 0.973 . S
C59 H52 0.929 . S
C59 C60 1.400 . S
C59 C61 1.364 . S
C60 C59 1.400 . S
C60 C64 1.377 . S
C61 C59 1.364 . S
C61 C62 1.374 . S
C62 H53 0.930 . S
C62 C61 1.374 . S
C62 C63 1.383 . S
C63 O57 1.412 . S
C63 C62 1.383 . S
C63 C64 1.394 . S
C64 H54 0.929 . S
C64 C60 1.377 . S
C64 C63 1.394 . S
H65 C72 0.929 . S
H66 C75 0.930 . S
H67 C77 0.929 . S
H68 C69 0.969 . S
C69 H68 0.969 . S
C69 O70 1.550 . S
C69 H71 0.973 . S
O70 C69 1.550 . S
O70 C76 1.412 . S
H71 C69 0.973 . S
C72 H65 0.929 . S
C72 C73 1.400 . S
C72 C74 1.364 . S
C73 C72 1.400 . S
C73 C77 1.377 . S
C74 C72 1.364 . S
C74 C75 1.374 . S
C75 H66 0.930 . S
C75 C74 1.374 . S
C75 C76 1.383 . S
C76 O70 1.412 . S
C76 C75 1.383 . S
C76 C77 1.394 . S
C77 H67 0.929 . S
C77 C73 1.377 . S
C77 C76 1.394 . S
H78 C85 0.929 . S
H79 C88 0.930 . S
H80 C90 0.929 . S
H81 C82 0.969 . S
C82 H81 0.969 . S
C82 O83 1.550 . S
C82 H84 0.973 . S
O83 C82 1.550 . S
O83 C89 1.412 . S
H84 C82 0.973 . S
C85 H78 0.929 . S
C85 C86 1.400 . S
C85 C87 1.364 . S
C86 C85 1.400 . S
C86 C90 1.377 . S
C87 C85 1.364 . S
C87 C88 1.374 . S
C88 H79 0.930 . S
C88 C87 1.374 . S
C88 C89 1.383 . S
C89 O83 1.412 . S
C89 C88 1.383 . S
C89 C90 1.394 . S
C90 H80 0.929 . S
C90 C86 1.377 . S
C90 C89 1.394 . S
H91 C98 0.929 . S
H92 C101 0.930 . S
H93 C103 0.929 . S
H94 C95 0.969 . S
C95 H94 0.969 . S
C95 O96 1.550 . S
C95 H97 0.973 . S
O96 C95 1.550 . S
O96 C102 1.412 . S
H97 C95 0.973 . S
C98 H91 0.929 . S
C98 C99 1.400 . S
C98 C100 1.364 . S
C99 C98 1.400 . S
C99 C103 1.377 . S
C100 C98 1.364 . S
C100 C101 1.374 . S
C101 H92 0.930 . S
C101 C100 1.374 . S
C101 C102 1.383 . S
C102 O96 1.412 . S
C102 C101 1.383 . S
C102 C103 1.394 . S
C103 H93 0.929 . S
C103 C99 1.377 . S
C103 C102 1.394 . S
H104 C111 0.929 . S
H105 C114 0.930 . S
H106 C116 0.929 . S
H107 C108 0.969 . S
C108 H107 0.969 . S
C108 O109 1.550 . S
C108 H110 0.973 . S
O109 C108 1.550 . S
O109 C115 1.412 . S
H110 C108 0.973 . S
C111 H104 0.929 . S
C111 C112 1.400 . S
C111 C113 1.364 . S
C112 C111 1.400 . S
C112 C116 1.377 . S
C113 C111 1.364 . S
C113 C114 1.374 . S
C114 H105 0.930 . S
C114 C113 1.374 . S
C114 C115 1.383 . S
C115 O109 1.412 . S
C115 C114 1.383 . S
C115 C116 1.394 . S
C116 H106 0.929 . S
C116 C112 1.377 . S
C116 C115 1.394 . S
H117 C124 0.929 . S
H118 C127 0.930 . S
H119 C129 0.929 . S
H120 C121 0.969 . S
C121 H120 0.969 . S
C121 O122 1.550 . S
C121 H123 0.973 . S
O122 C121 1.550 . S
O122 C128 1.412 . S
H123 C121 0.973 . S
C124 H117 0.929 . S
C124 C125 1.400 . S
C124 C126 1.364 . S
C125 C124 1.400 . S
C125 C129 1.377 . S
C126 C124 1.364 . S
C126 C127 1.374 . S
C127 H118 0.930 . S
C127 C126 1.374 . S
C127 C128 1.383 . S
C128 O122 1.412 . S
C128 C127 1.383 . S
C128 C129 1.394 . S
C129 H119 0.929 . S
C129 C125 1.377 . S
C129 C128 1.394 . S
H130 C137 0.929 . S
H131 C140 0.930 . S
H132 C142 0.929 . S
H133 C134 0.969 . S
C134 H133 0.969 . S
C134 O135 1.550 . S
C134 H136 0.973 . S
O135 C134 1.550 . S
O135 C141 1.412 . S
H136 C134 0.973 . S
C137 H130 0.929 . S
C137 C138 1.400 . S
C137 C139 1.364 . S
C138 C137 1.400 . S
C138 C142 1.377 . S
C139 C137 1.364 . S
C139 C140 1.374 . S
C140 H131 0.930 . S
C140 C139 1.374 . S
C140 C141 1.383 . S
C141 O135 1.412 . S
C141 C140 1.383 . S
C141 C142 1.394 . S
C142 H132 0.929 . S
C142 C138 1.377 . S
C142 C141 1.394 . S
H143 C150 0.929 . S
H144 C153 0.930 . S
H145 C155 0.929 . S
H146 C147 0.969 . S
C147 H146 0.969 . S
C147 O148 1.550 . S
C147 H149 0.973 . S
O148 C147 1.550 . S
O148 C154 1.412 . S
H149 C147 0.973 . S
C150 H143 0.929 . S
C150 C151 1.400 . S
C150 C152 1.364 . S
C151 C150 1.400 . S
C151 C155 1.377 . S
C152 C150 1.364 . S
C152 C153 1.374 . S
C153 H144 0.930 . S
C153 C152 1.374 . S
C153 C154 1.383 . S
C154 O148 1.412 . S
C154 C153 1.383 . S
C154 C155 1.394 . S
C155 H145 0.929 . S
C155 C151 1.377 . S
C155 C154 1.394 . S
H156 C163 0.929 . S
H157 C166 0.930 . S
H158 C168 0.929 . S
H159 C160 0.969 . S
C160 H159 0.969 . S
C160 O161 1.550 . S
C160 H162 0.973 . S
O161 C160 1.550 . S
O161 C167 1.412 . S
H162 C160 0.973 . S
C163 H156 0.929 . S
C163 C164 1.400 . S
C163 C165 1.364 . S
C164 C163 1.400 . S
C164 C168 1.377 . S
C165 C163 1.364 . S
C165 C166 1.374 . S
C166 H157 0.930 . S
C166 C165 1.374 . S
C166 C167 1.383 . S
C167 O161 1.412 . S
C167 C166 1.383 . S
C167 C168 1.394 . S
C168 H158 0.929 . S
C168 C164 1.377 . S
C168 C167 1.394 . S
H169 C176 0.929 . S
H170 C179 0.930 . S
H171 C181 0.929 . S
H172 C173 0.969 . S
C173 H172 0.969 . S
C173 O174 1.550 . S
C173 H175 0.973 . S
O174 C173 1.550 . S
O174 C180 1.412 . S
H175 C173 0.973 . S
C176 H169 0.929 . S
C176 C177 1.400 . S
C176 C178 1.364 . S
C177 C176 1.400 . S
C177 C181 1.377 . S
C178 C176 1.364 . S
C178 C179 1.374 . S
C179 H170 0.930 . S
C179 C178 1.374 . S
C179 C180 1.383 . S
C180 O174 1.412 . S
C180 C179 1.383 . S
C180 C181 1.394 . S
C181 H171 0.929 . S
C181 C177 1.377 . S
C181 C180 1.394 . S
H182 C189 0.929 . S
H183 C192 0.930 . S
H184 C194 0.929 . S
H185 C186 0.969 . S
C186 H185 0.969 . S
C186 O187 1.550 . S
C186 H188 0.973 . S
O187 C186 1.550 . S
O187 C193 1.412 . S
H188 C186 0.973 . S
C189 H182 0.929 . S
C189 C190 1.400 . S
C189 C191 1.364 . S
C190 C189 1.400 . S
C190 C194 1.377 . S
C191 C189 1.364 . S
C191 C192 1.374 . S
C192 H183 0.930 . S
C192 C191 1.374 . S
C192 C193 1.383 . S
C193 O187 1.412 . S
C193 C192 1.383 . S
C193 C194 1.394 . S
C194 H184 0.929 . S
C194 C190 1.377 . S
C194 C193 1.394 . S
H195 C202 0.929 . S
H196 C205 0.930 . S
H197 C207 0.929 . S
H198 C199 0.969 . S
C199 H198 0.969 . S
C199 O200 1.550 . S
C199 H201 0.973 . S
O200 C199 1.550 . S
O200 C206 1.412 . S
H201 C199 0.973 . S
C202 H195 0.929 . S
C202 C203 1.400 . S
C202 C204 1.364 . S
C203 C202 1.400 . S
C203 C207 1.377 . S
C204 C202 1.364 . S
C204 C205 1.374 . S
C205 H196 0.930 . S
C205 C204 1.374 . S
C205 C206 1.383 . S
C206 O200 1.412 . S
C206 C205 1.383 . S
C206 C207 1.394 . S
C207 H197 0.929 . S
C207 C203 1.377 . S
C207 C206 1.394 . S
H208 C215 0.929 . S
H209 C218 0.930 . S
H210 C220 0.929 . S
H211 C212 0.969 . S
C212 H211 0.969 . S
C212 O213 1.550 . S
C212 H214 0.973 . S
O213 C212 1.550 . S
O213 C219 1.412 . S
H214 C212 0.973 . S
C215 H208 0.929 . S
C215 C216 1.400 . S
C215 C217 1.364 . S
C216 C215 1.400 . S
C216 C220 1.377 . S
C217 C215 1.364 . S
C217 C218 1.374 . S
C218 H209 0.930 . S
C218 C217 1.374 . S
C218 C219 1.383 . S
C219 O213 1.412 . S
C219 C218 1.383 . S
C219 C220 1.394 . S
C220 H210 0.929 . S
C220 C216 1.377 . S
C220 C219 1.394 . S
H221 C228 0.929 . S
H222 C231 0.930 . S
H223 C233 0.929 . S
H224 C225 0.969 . S
C225 H224 0.969 . S
C225 O226 1.550 . S
C225 H227 0.973 . S
O226 C225 1.550 . S
O226 C232 1.412 . S
H227 C225 0.973 . S
C228 H221 0.929 . S
C228 C229 1.400 . S
C228 C230 1.364 . S
C229 C228 1.400 . S
C229 C233 1.377 . S
C230 C228 1.364 . S
C230 C231 1.374 . S
C231 H222 0.930 . S
C231 C230 1.374 . S
C231 C232 1.383 . S
C232 O226 1.412 . S
C232 C231 1.383 . S
C232 C233 1.394 . S
C233 H223 0.929 . S
C233 C229 1.377 . S
C233 C232 1.394 . S
Eu234 C243 2.828 1_565 S
Eu234 O245 2.392 . S
Eu234 O247 2.418 . S
Eu234 O252 2.373 1_565 S
Eu234 O255 2.488 . S
Eu234 O256 2.471 1_565 S
Eu234 O257 2.349 1_565 S
Eu235 O244 2.373 1_545 S
Eu235 O248 2.488 . S
Eu235 O249 2.471 1_545 S
Eu235 O250 2.349 1_545 S
Eu235 O253 2.392 . S
Eu235 O254 2.418 . S
Eu235 C264 2.828 . S
C236 O254 1.244 . S
C236 O257 1.265 1_554 S
C237 C238 1.379 . S
C237 C241 1.373 1_545 S
C237 C243 1.505 . S
C238 C237 1.379 . S
C238 C240 1.369 . S
C238 H266 0.930 . S
C239 C241 1.383 1_545 S
C239 C242 1.382 . S
C239 H267 0.930 1_545 S
C240 C238 1.369 . S
C240 C242 1.392 . S
C240 H268 0.930 . S
C241 C237 1.373 1_565 S
C241 C239 1.383 1_565 S
C241 H269 0.931 . S
C242 C239 1.382 . S
C242 C240 1.392 . S
C243 Eu234 2.828 1_545 S
C243 C237 1.505 . S
C243 O255 1.249 1_545 S
C243 O256 1.244 . S
O244 Eu235 2.373 1_565 S
O244 C246 1.258 . S
O245 Eu234 2.392 . S
O245 C246 1.242 1_556 S
C246 O244 1.258 . S
C246 O245 1.242 1_554 S
O247 Eu234 2.418 . S
O247 C251 1.244 1_556 S
O248 Eu235 2.488 . S
O248 C264 1.249 . S
O249 Eu235 2.471 1_565 S
O249 C264 1.244 1_565 S
O250 Eu235 2.349 1_565 S
O250 C251 1.265 . S
C251 O247 1.244 1_554 S
C251 O250 1.265 . S
O252 Eu234 2.373 1_545 S
O252 C265 1.258 . S
O253 Eu235 2.392 . S
O253 C265 1.242 1_554 S
O254 Eu235 2.418 . S
O254 C236 1.244 . S
O255 Eu234 2.488 . S
O255 C243 1.249 1_565 S
O256 Eu234 2.471 1_545 S
O256 C243 1.244 . S
O257 Eu234 2.349 1_545 S
O257 C236 1.265 1_556 S
C258 C259 1.379 . S
C258 C262 1.373 1_565 S
C258 C264 1.505 1_565 S
C259 C258 1.379 . S
C259 C261 1.369 . S
C259 H270 0.930 . S
C260 C262 1.383 . S
C260 C263 1.382 1_545 S
C260 H271 0.930 . S
C261 C259 1.369 . S
C261 C263 1.392 . S
C261 H272 0.930 . S
C262 C258 1.373 1_545 S
C262 C260 1.383 . S
C262 H273 0.931 . S
C263 C260 1.382 1_565 S
C263 C261 1.392 . S
C264 Eu235 2.828 . S
C264 O248 1.249 . S
C264 O249 1.244 1_545 S
C264 C258 1.505 1_545 S
C265 O252 1.258 . S
C265 O253 1.242 1_556 S
H266 C238 0.930 . S
H267 C239 0.930 1_565 S
H268 C240 0.930 . S
H269 C241 0.931 . S
H270 C259 0.930 . S
H271 C260 0.930 . S
H272 C261 0.930 . S
H273 C262 0.931 . S
Eu274 C283 2.828 1_455 S
Eu274 O285 2.392 1_556 S
Eu274 O287 2.418 . S
Eu274 O292 2.373 1_455 S
Eu274 O295 2.488 . S
Eu274 O296 2.471 1_455 S
Eu274 O297 2.349 1_455 S
Eu275 O284 2.373 1_655 S
Eu275 O288 2.488 . S
Eu275 O289 2.471 1_655 S
Eu275 O290 2.349 1_655 S
Eu275 O293 2.392 . S
Eu275 O294 2.418 . S
Eu275 C304 2.828 1_655 S
C276 O294 1.244 . S
C276 O297 1.265 1_554 S
C277 C278 1.379 . S
C277 C281 1.373 1_655 S
C277 C283 1.505 . S
C278 C277 1.379 . S
C278 C280 1.369 . S
C278 H306 0.930 . S
C279 C281 1.383 1_655 S
C279 C282 1.382 . S
C279 H307 0.930 1_655 S
C280 C278 1.369 . S
C280 C282 1.392 . S
C280 H308 0.930 . S
C281 C277 1.373 1_455 S
C281 C279 1.383 1_455 S
C281 H309 0.931 . S
C282 C279 1.382 . S
C282 C280 1.392 . S
C283 Eu274 2.828 1_655 S
C283 C277 1.505 . S
C283 O295 1.249 1_655 S
C283 O296 1.244 . S
O284 Eu275 2.373 1_455 S
O284 C286 1.258 . S
O285 Eu274 2.392 1_554 S
O285 C286 1.242 . S
C286 O284 1.258 . S
C286 O285 1.242 . S
O287 Eu274 2.418 . S
O287 C291 1.244 1_556 S
O288 Eu275 2.488 . S
O288 C304 1.249 1_655 S
O289 Eu275 2.471 1_455 S
O289 C304 1.244 . S
O290 Eu275 2.349 1_455 S
O290 C291 1.265 . S
C291 O287 1.244 1_554 S
C291 O290 1.265 . S
O292 Eu274 2.373 1_655 S
O292 C305 1.258 . S
O293 Eu275 2.392 . S
O293 C305 1.242 1_554 S
O294 Eu275 2.418 . S
O294 C276 1.244 . S
O295 Eu274 2.488 . S
O295 C283 1.249 1_455 S
O296 Eu274 2.471 1_655 S
O296 C283 1.244 . S
O297 Eu274 2.349 1_655 S
O297 C276 1.265 1_556 S
C298 C299 1.379 . S
C298 C302 1.365 1_455 S
C298 C304 1.505 . S
C299 C298 1.379 . S
C299 C301 1.369 . S
C299 H310 0.930 . S
C300 C302 1.374 1_455 S
C300 C303 1.382 . S
C300 H311 0.930 1_455 S
C301 C299 1.369 . S
C301 C303 1.392 . S
C301 H312 0.930 . S
C302 C298 1.365 1_655 S
C302 C300 1.374 1_655 S
C302 H313 0.948 . S
C303 C300 1.382 . S
C303 C301 1.392 . S
C304 Eu275 2.828 1_455 S
C304 O288 1.249 1_455 S
C304 O289 1.244 . S
C304 C298 1.505 . S
C305 O292 1.258 . S
C305 O293 1.242 1_556 S
H306 C278 0.930 . S
H307 C279 0.930 1_455 S
H308 C280 0.930 . S
H309 C281 0.931 . S
H310 C299 0.930 . S
H311 C300 0.930 1_655 S
H312 C301 0.930 . S
H313 C302 0.948 . S
Eu314 C323 2.828 . S
Eu314 O325 2.392 . S
Eu314 O327 2.418 . S
Eu314 O332 2.373 . S
Eu314 O335 2.488 . S
Eu314 O336 2.471 . S
Eu314 O337 2.349 . S
Eu315 O324 2.373 . S
Eu315 O328 2.488 . S
Eu315 O329 2.471 . S
Eu315 O330 2.353 . S
Eu315 O333 2.392 1_556 S
Eu315 O334 2.418 . S
Eu315 C344 2.828 . S
C316 O334 1.244 1_554 S
C316 O337 1.265 . S
C317 C318 1.379 . S
C317 C321 1.373 . S
C317 C323 1.505 . S
C318 C317 1.379 . S
C318 C320 1.369 . S
C318 H346 0.930 . S
C319 C321 1.383 . S
C319 C322 1.382 . S
C319 H347 0.930 . S
C320 C318 1.369 . S
C320 C322 1.392 . S
C320 H348 0.930 . S
C321 C317 1.373 . S
C321 C319 1.383 . S
C321 H349 0.931 . S
C322 C319 1.382 . S
C322 C320 1.392 . S
C323 Eu314 2.828 . S
C323 C317 1.505 . S
C323 O335 1.249 . S
C323 O336 1.244 . S
O324 Eu315 2.373 . S
O324 C326 1.258 . S
O325 Eu314 2.392 . S
O325 C326 1.242 1_554 S
C326 O324 1.258 . S
C326 O325 1.242 1_556 S
O327 Eu314 2.418 . S
O327 C331 1.244 . S
O328 Eu315 2.488 . S
O328 C344 1.249 . S
O329 Eu315 2.471 . S
O329 C344 1.244 . S
O330 Eu315 2.353 . S
O330 C331 1.261 1_556 S
C331 O327 1.244 . S
C331 O330 1.261 1_554 S
O332 Eu314 2.373 . S
O332 C345 1.258 . S
O333 Eu315 2.392 1_554 S
O333 C345 1.242 . S
O334 Eu315 2.418 . S
O334 C316 1.244 1_556 S
O335 Eu314 2.488 . S
O335 C323 1.249 . S
O336 Eu314 2.471 . S
O336 C323 1.244 . S
O337 Eu314 2.349 . S
O337 C316 1.265 . S
C338 C339 1.379 . S
C338 C342 1.373 . S
C338 C344 1.505 . S
C339 C338 1.379 . S
C339 C341 1.369 . S
C339 H350 0.930 . S
C340 C342 1.383 . S
C340 C343 1.382 . S
C340 H351 0.930 . S
C341 C339 1.369 . S
C341 C343 1.392 . S
C341 H352 0.930 . S
C342 C338 1.373 . S
C342 C340 1.383 . S
C342 H353 0.931 . S
C343 C340 1.382 . S
C343 C341 1.392 . S
C344 Eu315 2.828 . S
C344 O328 1.249 . S
C344 O329 1.244 . S
C344 C338 1.505 . S
C345 O332 1.258 . S
C345 O333 1.242 . S
H346 C318 0.930 . S
H347 C319 0.930 . S
H348 C320 0.930 . S
H349 C321 0.931 . S
H350 C339 0.930 . S
H351 C340 0.930 . S
H352 C341 0.930 . S
H353 C342 0.931 . S
Eu354 C363 2.828 . S
Eu354 O365 2.392 . S
Eu354 O367 2.418 . S
Eu354 O372 2.373 . S
Eu354 O375 2.488 . S
Eu354 O376 2.471 . S
Eu354 O377 2.349 . S
Eu355 O364 2.373 . S
Eu355 O368 2.488 . S
Eu355 O369 2.471 . S
Eu355 O370 2.349 . S
Eu355 O373 2.392 . S
Eu355 O374 2.418 . S
Eu355 C384 2.828 . S
C356 O374 1.244 . S
C356 O377 1.265 . S
C357 C358 1.379 . S
C357 C361 1.373 . S
C357 C363 1.505 . S
C358 C357 1.379 . S
C358 C360 1.369 . S
C358 H386 0.930 . S
C359 C361 1.383 . S
C359 C362 1.382 . S
C359 H387 0.930 . S
C360 C358 1.369 . S
C360 C362 1.392 . S
C360 H388 0.930 . S
C361 C357 1.373 . S
C361 C359 1.383 . S
C361 H389 0.931 . S
C362 C359 1.382 . S
C362 C360 1.392 . S
C363 Eu354 2.828 . S
C363 C357 1.505 . S
C363 O375 1.249 . S
C363 O376 1.244 . S
O364 Eu355 2.373 . S
O364 C366 1.258 . S
O365 Eu354 2.392 . S
O365 C366 1.242 . S
C366 O364 1.258 . S
C366 O365 1.242 . S
O367 Eu354 2.418 . S
O367 C371 1.244 . S
O368 Eu355 2.488 . S
O368 C384 1.249 . S
O369 Eu355 2.471 . S
O369 C384 1.244 . S
O370 Eu355 2.349 . S
O370 C371 1.265 . S
C371 O367 1.244 . S
C371 O370 1.265 . S
O372 Eu354 2.373 . S
O372 C385 1.258 . S
O373 Eu355 2.392 . S
O373 C385 1.242 . S
O374 Eu355 2.418 . S
O374 C356 1.244 . S
O375 Eu354 2.488 . S
O375 C363 1.249 . S
O376 Eu354 2.471 . S
O376 C363 1.244 . S
O377 Eu354 2.349 . S
O377 C356 1.265 . S
C378 C379 1.379 . S
C378 C382 1.373 . S
C378 C384 1.505 . S
C379 C378 1.379 . S
C379 C381 1.369 . S
C379 H390 0.930 . S
C380 C382 1.383 . S
C380 C383 1.382 . S
C380 H391 0.930 . S
C381 C379 1.369 . S
C381 C383 1.392 . S
C381 H392 0.930 . S
C382 C378 1.373 . S
C382 C380 1.383 . S
C382 H393 0.931 . S
C383 C380 1.382 . S
C383 C381 1.392 . S
C384 Eu355 2.828 . S
C384 O368 1.249 . S
C384 O369 1.244 . S
C384 C378 1.505 . S
C385 O372 1.258 . S
C385 O373 1.242 . S
H386 C358 0.930 . S
H387 C359 0.930 . S
H388 C360 0.930 . S
H389 C361 0.931 . S
H390 C379 0.930 . S
H391 C380 0.930 . S
H392 C381 0.930 . S
H393 C382 0.931 . S
Eu394 C403 2.828 . S
Eu394 O405 2.392 . S
Eu394 O407 2.418 . S
Eu394 O412 2.373 . S
Eu394 O415 2.488 . S
Eu394 O416 2.471 . S
Eu394 O417 2.349 . S
Eu395 O404 2.373 . S
Eu395 O408 2.488 . S
Eu395 O409 2.471 . S
Eu395 O410 2.349 . S
Eu395 O413 2.392 . S
Eu395 O414 2.418 . S
Eu395 C424 2.828 . S
C396 O414 1.244 . S
C396 O417 1.265 . S
C397 C398 1.379 . S
C397 C401 1.373 . S
C397 C403 1.505 . S
C398 C397 1.379 . S
C398 C400 1.369 . S
C398 H426 0.930 . S
C399 C401 1.383 . S
C399 C402 1.382 . S
C399 H427 0.930 . S
C400 C398 1.369 . S
C400 C402 1.392 . S
C400 H428 0.930 . S
C401 C397 1.373 . S
C401 C399 1.383 . S
C401 H429 0.931 . S
C402 C399 1.382 . S
C402 C400 1.392 . S
C403 Eu394 2.828 . S
C403 C397 1.505 . S
C403 O415 1.249 . S
C403 O416 1.244 . S
O404 Eu395 2.373 . S
O404 C406 1.258 . S
O405 Eu394 2.392 . S
O405 C406 1.242 . S
C406 O404 1.258 . S
C406 O405 1.242 . S
O407 Eu394 2.418 . S
O407 C411 1.244 . S
O408 Eu395 2.488 . S
O408 C424 1.249 . S
O409 Eu395 2.471 . S
O409 C424 1.244 . S
O410 Eu395 2.349 . S
O410 C411 1.265 . S
C411 O407 1.244 . S
C411 O410 1.265 . S
O412 Eu394 2.373 . S
O412 C425 1.258 . S
O413 Eu395 2.392 . S
O413 C425 1.242 . S
O414 Eu395 2.418 . S
O414 C396 1.244 . S
O415 Eu394 2.488 . S
O415 C403 1.249 . S
O416 Eu394 2.471 . S
O416 C403 1.244 . S
O417 Eu394 2.349 . S
O417 C396 1.265 . S
C418 C419 1.379 . S
C418 C422 1.373 . S
C418 C424 1.505 . S
C419 C418 1.379 . S
C419 C421 1.369 . S
C419 H430 0.930 . S
C420 C422 1.383 . S
C420 C423 1.382 . S
C420 H431 0.930 . S
C421 C419 1.369 . S
C421 C423 1.392 . S
C421 H432 0.930 . S
C422 C418 1.373 . S
C422 C420 1.383 . S
C422 H433 0.931 . S
C423 C420 1.382 . S
C423 C421 1.392 . S
C424 Eu395 2.828 . S
C424 O408 1.249 . S
C424 O409 1.244 . S
C424 C418 1.505 . S
C425 O412 1.258 . S
C425 O413 1.242 . S
H426 C398 0.930 . S
H427 C399 0.930 . S
H428 C400 0.930 . S
H429 C401 0.931 . S
H430 C419 0.930 . S
H431 C420 0.930 . S
H432 C421 0.930 . S
H433 C422 0.931 . S
Eu434 C443 2.828 . S
Eu434 O445 2.392 . S
Eu434 O447 2.418 . S
Eu434 O452 2.373 . S
Eu434 O455 2.488 . S
Eu434 O456 2.471 . S
Eu434 O457 2.349 . S
Eu435 O444 2.373 . S
Eu435 O448 2.488 . S
Eu435 O449 2.471 . S
Eu435 O450 2.349 . S
Eu435 O453 2.392 . S
Eu435 O454 2.418 . S
Eu435 C464 2.828 . S
C436 O454 1.244 . S
C436 O457 1.265 . S
C437 C438 1.379 . S
C437 C441 1.373 . S
C437 C443 1.505 . S
C438 C437 1.379 . S
C438 C440 1.369 . S
C438 H466 0.930 . S
C439 C441 1.383 . S
C439 C442 1.382 . S
C439 H467 0.930 . S
C440 C438 1.369 . S
C440 C442 1.392 . S
C440 H468 0.930 . S
C441 C437 1.373 . S
C441 C439 1.383 . S
C441 H469 0.931 . S
C442 C439 1.382 . S
C442 C440 1.392 . S
C443 Eu434 2.828 . S
C443 C437 1.505 . S
C443 O455 1.249 . S
C443 O456 1.244 . S
O444 Eu435 2.373 . S
O444 C446 1.258 . S
O445 Eu434 2.392 . S
O445 C446 1.242 . S
C446 O444 1.258 . S
C446 O445 1.242 . S
O447 Eu434 2.418 . S
O447 C451 1.244 . S
O448 Eu435 2.488 . S
O448 C464 1.249 . S
O449 Eu435 2.471 . S
O449 C464 1.244 . S
O450 Eu435 2.349 . S
O450 C451 1.265 . S
C451 O447 1.244 . S
C451 O450 1.265 . S
O452 Eu434 2.373 . S
O452 C465 1.258 . S
O453 Eu435 2.392 . S
O453 C465 1.242 . S
O454 Eu435 2.418 . S
O454 C436 1.244 . S
O455 Eu434 2.488 . S
O455 C443 1.249 . S
O456 Eu434 2.471 . S
O456 C443 1.244 . S
O457 Eu434 2.349 . S
O457 C436 1.265 . S
C458 C459 1.379 . S
C458 C462 1.373 . S
C458 C464 1.505 . S
C459 C458 1.379 . S
C459 C461 1.369 . S
C459 H470 0.930 . S
C460 C462 1.383 . S
C460 C463 1.382 . S
C460 H471 0.930 . S
C461 C459 1.369 . S
C461 C463 1.392 . S
C461 H472 0.930 . S
C462 C458 1.373 . S
C462 C460 1.383 . S
C462 H473 0.931 . S
C463 C460 1.382 . S
C463 C461 1.392 . S
C464 Eu435 2.828 . S
C464 O448 1.249 . S
C464 O449 1.244 . S
C464 C458 1.505 . S
C465 O452 1.258 . S
C465 O453 1.242 . S
H466 C438 0.930 . S
H467 C439 0.930 . S
H468 C440 0.930 . S
H469 C441 0.931 . S
H470 C459 0.930 . S
H471 C460 0.930 . S
H472 C461 0.930 . S
H473 C462 0.931 . S
Eu474 C483 2.828 . S
Eu474 O485 2.392 . S
Eu474 O487 2.418 . S
Eu474 O492 2.373 . S
Eu474 O495 2.488 . S
Eu474 O496 2.471 . S
Eu474 O497 2.349 . S
Eu475 O484 2.373 . S
Eu475 O488 2.488 . S
Eu475 O489 2.471 . S
Eu475 O490 2.349 . S
Eu475 O493 2.392 . S
Eu475 O494 2.418 . S
Eu475 C504 2.828 . S
C476 O494 1.244 . S
C476 O497 1.265 . S
C477 C478 1.379 . S
C477 C481 1.373 . S
C477 C483 1.505 . S
C478 C477 1.379 . S
C478 C480 1.369 . S
C478 H506 0.930 . S
C479 C481 1.383 . S
C479 C482 1.382 . S
C479 H507 0.930 . S
C480 C478 1.369 . S
C480 C482 1.392 . S
C480 H508 0.930 . S
C481 C477 1.373 . S
C481 C479 1.383 . S
C481 H509 0.931 . S
C482 C479 1.382 . S
C482 C480 1.392 . S
C483 Eu474 2.828 . S
C483 C477 1.505 . S
C483 O495 1.249 . S
C483 O496 1.244 . S
O484 Eu475 2.373 . S
O484 C486 1.258 . S
O485 Eu474 2.392 . S
O485 C486 1.242 . S
C486 O484 1.258 . S
C486 O485 1.242 . S
O487 Eu474 2.418 . S
O487 C491 1.244 . S
O488 Eu475 2.488 . S
O488 C504 1.249 . S
O489 Eu475 2.471 . S
O489 C504 1.244 . S
O490 Eu475 2.349 . S
O490 C491 1.265 . S
C491 O487 1.244 . S
C491 O490 1.265 . S
O492 Eu474 2.373 . S
O492 C505 1.258 . S
O493 Eu475 2.392 . S
O493 C505 1.242 . S
O494 Eu475 2.418 . S
O494 C476 1.244 . S
O495 Eu474 2.488 . S
O495 C483 1.249 . S
O496 Eu474 2.471 . S
O496 C483 1.244 . S
O497 Eu474 2.349 . S
O497 C476 1.265 . S
C498 C499 1.379 . S
C498 C502 1.373 . S
C498 C504 1.505 . S
C499 C498 1.379 . S
C499 C501 1.369 . S
C499 H510 0.930 . S
C500 C502 1.383 . S
C500 C503 1.382 . S
C500 H511 0.930 . S
C501 C499 1.369 . S
C501 C503 1.392 . S
C501 H512 0.930 . S
C502 C498 1.373 . S
C502 C500 1.383 . S
C502 H513 0.931 . S
C503 C500 1.382 . S
C503 C501 1.392 . S
C504 Eu475 2.828 . S
C504 O488 1.249 . S
C504 O489 1.244 . S
C504 C498 1.505 . S
C505 O492 1.258 . S
C505 O493 1.242 . S
H506 C478 0.930 . S
H507 C479 0.930 . S
H508 C480 0.930 . S
H509 C481 0.931 . S
H510 C499 0.930 . S
H511 C500 0.930 . S
H512 C501 0.930 . S
H513 C502 0.931 . S
Eu514 C523 2.828 . S
Eu514 O525 2.392 . S
Eu514 O527 2.418 . S
Eu514 O532 2.373 . S
Eu514 O535 2.488 . S
Eu514 O536 2.471 . S
Eu514 O537 2.349 . S
Eu515 O524 2.373 . S
Eu515 O528 2.488 . S
Eu515 O529 2.471 . S
Eu515 O530 2.349 . S
Eu515 O533 2.392 . S
Eu515 O534 2.418 . S
Eu515 C544 2.828 . S
C516 O534 1.244 . S
C516 O537 1.265 . S
C517 C518 1.379 . S
C517 C521 1.373 . S
C517 C523 1.505 . S
C518 C517 1.379 . S
C518 C520 1.369 . S
C518 H546 0.930 . S
C519 C521 1.383 . S
C519 C522 1.382 . S
C519 H547 0.930 . S
C520 C518 1.369 . S
C520 C522 1.392 . S
C520 H548 0.930 . S
C521 C517 1.373 . S
C521 C519 1.383 . S
C521 H549 0.931 . S
C522 C519 1.382 . S
C522 C520 1.392 . S
C523 Eu514 2.828 . S
C523 C517 1.505 . S
C523 O535 1.249 . S
C523 O536 1.244 . S
O524 Eu515 2.373 . S
O524 C526 1.258 . S
O525 Eu514 2.392 . S
O525 C526 1.242 . S
C526 O524 1.258 . S
C526 O525 1.242 . S
O527 Eu514 2.418 . S
O527 C531 1.244 . S
O528 Eu515 2.488 . S
O528 C544 1.249 . S
O529 Eu515 2.471 . S
O529 C544 1.244 . S
O530 Eu515 2.349 . S
O530 C531 1.265 . S
C531 O527 1.244 . S
C531 O530 1.265 . S
O532 Eu514 2.373 . S
O532 C545 1.258 . S
O533 Eu515 2.392 . S
O533 C545 1.242 . S
O534 Eu515 2.418 . S
O534 C516 1.244 . S
O535 Eu514 2.488 . S
O535 C523 1.249 . S
O536 Eu514 2.471 . S
O536 C523 1.244 . S
O537 Eu514 2.349 . S
O537 C516 1.265 . S
C538 C539 1.379 . S
C538 C542 1.373 . S
C538 C544 1.505 . S
C539 C538 1.379 . S
C539 C541 1.369 . S
C539 H550 0.930 . S
C540 C542 1.383 . S
C540 C543 1.382 . S
C540 H551 0.930 . S
C541 C539 1.369 . S
C541 C543 1.392 . S
C541 H552 0.930 . S
C542 C538 1.373 . S
C542 C540 1.383 . S
C542 H553 0.931 . S
C543 C540 1.382 . S
C543 C541 1.392 . S
C544 Eu515 2.828 . S
C544 O528 1.249 . S
C544 O529 1.244 . S
C544 C538 1.505 . S
C545 O532 1.258 . S
C545 O533 1.242 . S
H546 C518 0.930 . S
H547 C519 0.930 . S
H548 C520 0.930 . S
H549 C521 0.931 . S
H550 C539 0.930 . S
H551 C540 0.930 . S
H552 C541 0.930 . S
H553 C542 0.931 . S
Eu554 C563 2.828 . S
Eu554 O565 2.392 . S
Eu554 O567 2.418 . S
Eu554 O572 2.373 . S
Eu554 O575 2.488 . S
Eu554 O576 2.471 . S
Eu554 O577 2.349 . S
Eu555 O564 2.373 . S
Eu555 O568 2.488 . S
Eu555 O569 2.471 . S
Eu555 O570 2.349 . S
Eu555 O573 2.392 . S
Eu555 O574 2.418 . S
Eu555 C584 2.828 . S
C556 O574 1.244 . S
C556 O577 1.265 . S
C557 C558 1.379 . S
C557 C561 1.373 . S
C557 C563 1.505 . S
C558 C557 1.379 . S
C558 C560 1.369 . S
C558 H586 0.930 . S
C559 C561 1.383 . S
C559 C562 1.382 . S
C559 H587 0.930 . S
C560 C558 1.369 . S
C560 C562 1.392 . S
C560 H588 0.930 . S
C561 C557 1.373 . S
C561 C559 1.383 . S
C561 H589 0.931 . S
C562 C559 1.382 . S
C562 C560 1.392 . S
C563 Eu554 2.828 . S
C563 C557 1.505 . S
C563 O575 1.249 . S
C563 O576 1.244 . S
O564 Eu555 2.373 . S
O564 C566 1.258 . S
O565 Eu554 2.392 . S
O565 C566 1.242 . S
C566 O564 1.258 . S
C566 O565 1.242 . S
O567 Eu554 2.418 . S
O567 C571 1.244 . S
O568 Eu555 2.488 . S
O568 C584 1.249 . S
O569 Eu555 2.471 . S
O569 C584 1.244 . S
O570 Eu555 2.349 . S
O570 C571 1.265 . S
C571 O567 1.244 . S
C571 O570 1.265 . S
O572 Eu554 2.373 . S
O572 C585 1.258 . S
O573 Eu555 2.392 . S
O573 C585 1.242 . S
O574 Eu555 2.418 . S
O574 C556 1.244 . S
O575 Eu554 2.488 . S
O575 C563 1.249 . S
O576 Eu554 2.471 . S
O576 C563 1.244 . S
O577 Eu554 2.349 . S
O577 C556 1.265 . S
C578 C579 1.379 . S
C578 C582 1.373 . S
C578 C584 1.505 . S
C579 C578 1.379 . S
C579 C581 1.369 . S
C579 H590 0.930 . S
C580 C582 1.383 . S
C580 C583 1.382 . S
C580 H591 0.930 . S
C581 C579 1.369 . S
C581 C583 1.392 . S
C581 H592 0.930 . S
C582 C578 1.373 . S
C582 C580 1.383 . S
C582 H593 0.931 . S
C583 C580 1.382 . S
C583 C581 1.392 . S
C584 Eu555 2.828 . S
C584 O568 1.249 . S
C584 O569 1.244 . S
C584 C578 1.505 . S
C585 O572 1.258 . S
C585 O573 1.242 . S
H586 C558 0.930 . S
H587 C559 0.930 . S
H588 C560 0.930 . S
H589 C561 0.931 . S
H590 C579 0.930 . S
H591 C580 0.930 . S
H592 C581 0.930 . S
H593 C582 0.931 . S
H594 C600 0.930 . S
H595 C604 0.930 1_556 S
H596 C609 0.929 . S
H597 C607 0.929 . S
H598 C602 0.929 . S
H599 C608 0.929 . S
C600 H594 0.930 . S
C600 C601 1.367 . S
C600 C608 1.378 . S
C601 C600 1.367 . S
C601 C609 1.433 . S
C602 H598 0.929 . S
C602 C604 1.378 . S
C602 C606 1.350 . S
C603 C606 1.463 . S
C603 C608 1.350 . S
C603 N611 1.427 . S
C604 H595 0.930 1_554 S
C604 C602 1.378 . S
C604 C605 1.367 . S
C605 C604 1.367 . S
C605 C607 1.433 . S
C606 C602 1.350 . S
C606 C603 1.463 . S
C606 N610 1.427 . S
C607 H597 0.929 . S
C607 C605 1.433 . S
C607 N610 1.384 . S
C608 H599 0.929 . S
C608 C600 1.378 . S
C608 C603 1.350 . S
C609 H596 0.929 . S
C609 C601 1.433 . S
C609 N611 1.384 . S
N610 C606 1.427 . S
N610 C607 1.384 . S
N611 C603 1.427 . S
N611 C609 1.384 . S
H612 C618 0.930 . S
H613 C622 0.930 . S
H614 C627 0.929 . S
H615 C625 0.929 . S
H616 C620 0.929 . S
H617 C626 0.929 . S
C618 H612 0.930 . S
C618 C619 1.367 . S
C618 C626 1.378 . S
C619 C618 1.367 . S
C619 C627 1.433 . S
C620 H616 0.929 . S
C620 C622 1.378 . S
C620 C624 1.350 . S
C621 C624 1.463 . S
C621 C626 1.350 . S
C621 N629 1.427 . S
C622 H613 0.930 . S
C622 C620 1.378 . S
C622 C623 1.367 . S
C623 C622 1.367 . S
C623 C625 1.433 . S
C624 C620 1.350 . S
C624 C621 1.463 . S
C624 N628 1.427 . S
C625 H615 0.929 . S
C625 C623 1.433 . S
C625 N628 1.384 . S
C626 H617 0.929 . S
C626 C618 1.378 . S
C626 C621 1.350 . S
C627 H614 0.929 . S
C627 C619 1.433 . S
C627 N629 1.384 . S
N628 C624 1.427 . S
N628 C625 1.384 . S
N629 C621 1.427 . S
N629 C627 1.384 . S
H630 C636 0.930 . S
H631 C640 0.930 . S
H632 C645 0.929 . S
H633 C643 0.929 1_556 S
H634 C638 0.929 . S
H635 C644 0.929 . S
C636 H630 0.930 . S
C636 C637 1.367 . S
C636 C644 1.378 . S
C637 C636 1.367 . S
C637 C645 1.433 . S
C638 H634 0.929 . S
C638 C640 1.378 . S
C638 C642 1.350 . S
C639 C642 1.463 . S
C639 C644 1.350 . S
C639 N647 1.427 . S
C640 H631 0.930 . S
C640 C638 1.378 . S
C640 C641 1.367 . S
C641 C640 1.367 . S
C641 C643 1.433 . S
C642 C638 1.350 . S
C642 C639 1.463 . S
C642 N646 1.427 . S
C643 H633 0.929 1_554 S
C643 C641 1.433 . S
C643 N646 1.384 . S
C644 H635 0.929 . S
C644 C636 1.378 . S
C644 C639 1.350 . S
C645 H632 0.929 . S
C645 C637 1.433 . S
C645 N647 1.384 . S
N646 C642 1.427 . S
N646 C643 1.384 . S
N647 C639 1.427 . S
N647 C645 1.384 . S
H648 C654 0.930 . S
H649 C658 0.930 . S
H650 C663 0.929 . S
H651 C661 0.929 . S
H652 C656 0.929 . S
H653 C662 0.929 . S
C654 H648 0.930 . S
C654 C655 1.367 . S
C654 C662 1.378 . S
C655 C654 1.367 . S
C655 C663 1.433 . S
C656 H652 0.929 . S
C656 C658 1.378 . S
C656 C660 1.350 . S
C657 C660 1.463 . S
C657 C662 1.350 . S
C657 N665 1.427 . S
C658 H649 0.930 . S
C658 C656 1.378 . S
C658 C659 1.367 . S
C659 C658 1.367 . S
C659 C661 1.433 . S
C660 C656 1.350 . S
C660 C657 1.463 . S
C660 N664 1.427 . S
C661 H651 0.929 . S
C661 C659 1.433 . S
C661 N664 1.384 . S
C662 H653 0.929 . S
C662 C654 1.378 . S
C662 C657 1.350 . S
C663 H650 0.929 . S
C663 C655 1.433 . S
C663 N665 1.384 . S
N664 C660 1.427 . S
N664 C661 1.384 . S
N665 C657 1.427 . S
N665 C663 1.384 . S
H666 C672 0.930 . S
H667 C676 0.930 1_554 S
H668 C681 0.929 . S
H669 C679 0.929 . S
H670 C674 0.929 . S
H671 C680 0.929 . S
C672 H666 0.930 . S
C672 C673 1.367 . S
C672 C680 1.378 . S
C673 C672 1.367 . S
C673 C681 1.433 . S
C674 H670 0.929 . S
C674 C676 1.378 . S
C674 C678 1.350 . S
C675 C678 1.463 . S
C675 C680 1.350 . S
C675 N683 1.427 . S
C676 H667 0.930 1_556 S
C676 C674 1.378 . S
C676 C677 1.367 . S
C677 C676 1.367 . S
C677 C679 1.433 . S
C678 C674 1.350 . S
C678 C675 1.463 . S
C678 N682 1.427 . S
C679 H669 0.929 . S
C679 C677 1.433 . S
C679 N682 1.384 . S
C680 H671 0.929 . S
C680 C672 1.378 . S
C680 C675 1.350 . S
C681 H668 0.929 . S
C681 C673 1.433 . S
C681 N683 1.384 . S
N682 C678 1.427 . S
N682 C679 1.384 . S
N683 C675 1.427 . S
N683 C681 1.384 . S
H684 C690 0.930 . S
H685 C694 0.930 . S
H686 C699 0.929 1_554 S
H687 C697 0.929 . S
H688 C692 0.929 . S
H689 C698 0.929 . S
C690 H684 0.930 . S
C690 C691 1.367 . S
C690 C698 1.378 . S
C691 C690 1.367 . S
C691 C699 1.433 . S
C692 H688 0.929 . S
C692 C694 1.378 . S
C692 C696 1.350 1_554 S
C693 C696 1.463 . S
C693 C698 1.350 . S
C693 N701 1.427 1_556 S
C694 H685 0.930 . S
C694 C692 1.378 . S
C694 C695 1.367 1_554 S
C695 C694 1.367 1_556 S
C695 C697 1.433 . S
C696 C692 1.350 1_556 S
C696 C693 1.463 . S
C696 N700 1.427 . S
C697 H687 0.929 . S
C697 C695 1.433 . S
C697 N700 1.384 . S
C698 H689 0.929 . S
C698 C690 1.378 . S
C698 C693 1.350 . S
C699 H686 0.929 1_556 S
C699 C691 1.433 . S
C699 N701 1.384 1_556 S
N700 C696 1.427 . S
N700 C697 1.384 . S
N701 C693 1.427 1_554 S
N701 C699 1.384 1_554 S
H702 C708 0.930 . S
H703 C712 0.936 . S
H704 C717 0.929 . S
H705 C715 0.929 . S
H706 C710 0.929 1_554 S
H707 C716 0.929 . S
C708 H702 0.930 . S
C708 C709 1.367 . S
C708 C716 1.378 . S
C709 C708 1.367 . S
C709 C717 1.433 . S
C710 H706 0.929 1_556 S
C710 C712 1.376 1_556 S
C710 C714 1.350 . S
C711 C714 1.463 . S
C711 C716 1.350 . S
C711 N719 1.427 . S
C712 H703 0.936 . S
C712 C710 1.376 1_554 S
C712 C713 1.364 1_554 S
C713 C712 1.364 1_556 S
C713 C715 1.433 . S
C714 C710 1.350 . S
C714 C711 1.463 . S
C714 N718 1.427 . S
C715 H705 0.929 . S
C715 C713 1.433 . S
C715 N718 1.384 . S
C716 H707 0.929 . S
C716 C708 1.378 . S
C716 C711 1.350 . S
C717 H704 0.929 . S
C717 C709 1.433 . S
C717 N719 1.384 . S
N718 C714 1.427 . S
N718 C715 1.384 . S
N719 C711 1.427 . S
N719 C717 1.384 . S
H720 C726 0.930 . S
H721 C730 0.930 . S
H722 C735 0.929 . S
H723 C733 0.929 . S
H724 C728 0.929 . S
H725 C734 0.929 . S
C726 H720 0.930 . S
C726 C727 1.367 . S
C726 C734 1.378 . S
C727 C726 1.367 . S
C727 C735 1.433 . S
C728 H724 0.929 . S
C728 C730 1.378 . S
C728 C732 1.350 . S
C729 C732 1.463 . S
C729 C734 1.350 . S
C729 N737 1.427 . S
C730 H721 0.930 . S
C730 C728 1.378 . S
C730 C731 1.367 . S
C731 C730 1.367 . S
C731 C733 1.433 . S
C732 C728 1.350 . S
C732 C729 1.463 . S
C732 N736 1.427 . S
C733 H723 0.929 . S
C733 C731 1.433 . S
C733 N736 1.384 . S
C734 H725 0.929 . S
C734 C726 1.378 . S
C734 C729 1.350 . S
C735 H722 0.929 . S
C735 C727 1.433 . S
C735 N737 1.384 . S
N736 C732 1.427 . S
N736 C733 1.384 . S
N737 C729 1.427 . S
N737 C735 1.384 . S
H738 C744 0.930 . S
H739 C748 0.930 . S
H740 C753 0.929 . S
H741 C751 0.929 . S
H742 C746 0.929 . S
H743 C752 0.929 . S
C744 H738 0.930 . S
C744 C745 1.367 . S
C744 C752 1.378 . S
C745 C744 1.367 . S
C745 C753 1.433 . S
C746 H742 0.929 . S
C746 C748 1.378 . S
C746 C750 1.350 1_554 S
C747 C750 1.463 . S
C747 C752 1.350 . S
C747 N755 1.427 . S
C748 H739 0.930 . S
C748 C746 1.378 . S
C748 C749 1.376 . S
C749 C748 1.376 . S
C749 C751 1.424 1_554 S
C750 C746 1.350 1_556 S
C750 C747 1.463 . S
C750 N754 1.427 . S
C751 H741 0.929 . S
C751 C749 1.424 1_556 S
C751 N754 1.384 . S
C752 H743 0.929 . S
C752 C744 1.378 . S
C752 C747 1.350 . S
C753 H740 0.929 . S
C753 C745 1.433 . S
C753 N755 1.384 . S
N754 C750 1.427 . S
N754 C751 1.384 . S
N755 C747 1.427 . S
N755 C753 1.384 . S
H756 C762 0.930 . S
H757 C766 0.930 . S
H758 C771 0.929 . S
H759 C769 0.929 1_556 S
H760 C764 0.929 . S
H761 C770 0.929 . S
C762 H756 0.930 . S
C762 C763 1.367 . S
C762 C770 1.378 . S
C763 C762 1.367 . S
C763 C771 1.433 . S
C764 H760 0.929 . S
C764 C766 1.378 . S
C764 C768 1.350 . S
C765 C768 1.463 . S
C765 C770 1.350 . S
C765 N773 1.427 . S
C766 H757 0.930 . S
C766 C764 1.378 . S
C766 C767 1.367 . S
C767 C766 1.367 . S
C767 C769 1.433 . S
C768 C764 1.350 . S
C768 C765 1.463 . S
C768 N772 1.427 . S
C769 H759 0.929 1_554 S
C769 C767 1.433 . S
C769 N772 1.384 . S
C770 H761 0.929 . S
C770 C762 1.378 . S
C770 C765 1.350 . S
C771 H758 0.929 . S
C771 C763 1.433 . S
C771 N773 1.384 . S
N772 C768 1.427 . S
N772 C769 1.384 . S
N773 C765 1.427 . S
N773 C771 1.384 . S
H774 C780 0.930 . S
H775 C784 0.930 . S
H776 C789 0.929 . S
H777 C787 0.929 . S
H778 C782 0.929 . S
H779 C788 0.929 . S
C780 H774 0.930 . S
C780 C781 1.367 . S
C780 C788 1.378 . S
C781 C780 1.367 . S
C781 C789 1.433 . S
C782 H778 0.929 . S
C782 C784 1.378 . S
C782 C786 1.350 . S
C783 C786 1.463 . S
C783 C788 1.350 . S
C783 N791 1.427 . S
C784 H775 0.930 . S
C784 C782 1.378 . S
C784 C785 1.367 . S
C785 C784 1.367 . S
C785 C787 1.433 . S
C786 C782 1.350 . S
C786 C783 1.463 . S
C786 N790 1.427 . S
C787 H777 0.929 . S
C787 C785 1.433 . S
C787 N790 1.384 . S
C788 H779 0.929 . S
C788 C780 1.378 . S
C788 C783 1.350 . S
C789 H776 0.929 . S
C789 C781 1.433 . S
C789 N791 1.384 . S
N790 C786 1.427 . S
N790 C787 1.384 . S
N791 C783 1.427 . S
N791 C789 1.384 . S
H792 C798 0.930 . S
H793 C802 0.900 1_556 S
H794 C807 0.929 . S
H795 C805 0.929 . S
H796 C800 0.929 1_556 S
H797 C806 0.929 . S
C798 H792 0.930 . S
C798 C799 1.367 . S
C798 C806 1.378 . S
C799 C798 1.367 . S
C799 C807 1.433 . S
C800 H796 0.929 1_554 S
C800 C802 1.387 . S
C800 C804 1.350 . S
C801 C804 1.463 . S
C801 C806 1.350 . S
C801 N809 1.427 . S
C802 H793 0.900 1_554 S
C802 C800 1.387 . S
C802 C803 1.391 . S
C803 C802 1.391 . S
C803 C805 1.433 . S
C804 C800 1.350 . S
C804 C801 1.463 . S
C804 N808 1.427 . S
C805 H795 0.929 . S
C805 C803 1.433 . S
C805 N808 1.384 . S
C806 H797 0.929 . S
C806 C798 1.378 . S
C806 C801 1.350 . S
C807 H794 0.929 . S
C807 C799 1.433 . S
C807 N809 1.384 . S
N808 C804 1.427 . S
N808 C805 1.384 . S
N809 C801 1.427 . S
N809 C807 1.384 . S
H810 C816 0.930 . S
H811 C820 0.930 . S
H812 C825 0.929 . S
H813 C823 0.929 . S
H814 C818 0.929 . S
H815 C824 0.929 . S
C816 H810 0.930 . S
C816 C817 1.367 . S
C816 C824 1.378 . S
C817 C816 1.367 . S
C817 C825 1.433 . S
C818 H814 0.929 . S
C818 C820 1.378 . S
C818 C822 1.350 . S
C819 C822 1.463 1_655 S
C819 C824 1.350 . S
C819 N827 1.427 . S
C820 H811 0.930 . S
C820 C818 1.378 . S
C820 C821 1.367 . S
C821 C820 1.367 . S
C821 C823 1.433 . S
C822 C818 1.350 . S
C822 C819 1.463 1_455 S
C822 N826 1.427 . S
C823 H813 0.929 . S
C823 C821 1.433 . S
C823 N826 1.384 . S
C824 H815 0.929 . S
C824 C816 1.378 . S
C824 C819 1.350 . S
C825 H812 0.929 . S
C825 C817 1.433 . S
C825 N827 1.384 . S
N826 C822 1.427 . S
N826 C823 1.384 . S
N827 C819 1.427 . S
N827 C825 1.384 . S
H828 C834 0.930 . S
H829 C838 0.930 . S
H830 C843 0.929 . S
H831 C841 0.929 . S
H832 C836 0.929 . S
H833 C842 0.929 . S
C834 H828 0.930 . S
C834 C835 1.367 . S
C834 C842 1.378 . S
C835 C834 1.367 . S
C835 C843 1.433 . S
C836 H832 0.929 . S
C836 C838 1.378 . S
C836 C840 1.350 . S
C837 C840 1.463 . S
C837 C842 1.350 . S
C837 N845 1.427 . S
C838 H829 0.930 . S
C838 C836 1.378 . S
C838 C839 1.367 . S
C839 C838 1.367 . S
C839 C841 1.433 . S
C840 C836 1.350 . S
C840 C837 1.463 . S
C840 N844 1.427 . S
C841 H831 0.929 . S
C841 C839 1.433 . S
C841 N844 1.384 . S
C842 H833 0.929 . S
C842 C834 1.378 . S
C842 C837 1.350 . S
C843 H830 0.929 . S
C843 C835 1.433 . S
C843 N845 1.384 . S
N844 C840 1.427 . S
N844 C841 1.384 . S
N845 C837 1.427 . S
N845 C843 1.384 . S
H846 C852 0.930 . S
H847 C856 0.930 . S
H848 C861 0.929 . S
H849 C859 0.929 . S
H850 C854 0.929 . S
H851 C860 0.929 . S
C852 H846 0.930 . S
C852 C853 1.367 . S
C852 C860 1.378 . S
C853 C852 1.367 . S
C853 C861 1.433 . S
C854 H850 0.929 . S
C854 C856 1.378 . S
C854 C858 1.350 1_565 S
C855 C858 1.463 . S
C855 C860 1.350 . S
C855 N863 1.427 . S
C856 H847 0.930 . S
C856 C854 1.378 . S
C856 C857 1.367 . S
C857 C856 1.367 . S
C857 C859 1.433 . S
C858 C854 1.350 1_545 S
C858 C855 1.463 . S
C858 N862 1.427 1_545 S
C859 H849 0.929 . S
C859 C857 1.433 . S
C859 N862 1.384 . S
C860 H851 0.929 . S
C860 C852 1.378 . S
C860 C855 1.350 . S
C861 H848 0.929 . S
C861 C853 1.433 . S
C861 N863 1.384 . S
N862 C858 1.427 1_565 S
N862 C859 1.384 . S
N863 C855 1.427 . S
N863 C861 1.384 . S
H864 C870 0.930 . S
H865 C874 0.930 . S
H866 C879 0.929 . S
H867 C877 0.929 . S
H868 C872 0.929 . S
H869 C878 0.929 . S
C870 H864 0.930 . S
C870 C871 1.367 . S
C870 C878 1.378 . S
C871 C870 1.367 . S
C871 C879 1.433 . S
C872 H868 0.929 . S
C872 C874 1.378 . S
C872 C876 1.350 . S
C873 C876 1.463 . S
C873 C878 1.350 . S
C873 N881 1.427 . S
C874 H865 0.930 . S
C874 C872 1.378 . S
C874 C875 1.367 . S
C875 C874 1.367 . S
C875 C877 1.433 . S
C876 C872 1.350 . S
C876 C873 1.463 . S
C876 N880 1.427 . S
C877 H867 0.929 . S
C877 C875 1.433 . S
C877 N880 1.384 . S
C878 H869 0.929 . S
C878 C870 1.378 . S
C878 C873 1.350 . S
C879 H866 0.929 . S
C879 C871 1.433 . S
C879 N881 1.384 . S
N880 C876 1.427 . S
N880 C877 1.384 . S
N881 C873 1.427 . S
N881 C879 1.384 . S
H882 C888 0.930 . S
H883 C892 0.930 . S
H884 C897 0.929 . S
H885 C895 0.929 . S
H886 C890 0.929 . S
H887 C896 0.929 . S
C888 H882 0.930 . S
C888 C889 1.367 . S
C888 C896 1.378 . S
C889 C888 1.367 . S
C889 C897 1.433 . S
C890 H886 0.929 . S
C890 C892 1.378 . S
C890 C894 1.350 . S
C891 C894 1.463 . S
C891 C896 1.350 . S
C891 N899 1.427 . S
C892 H883 0.930 . S
C892 C890 1.378 . S
C892 C893 1.367 . S
C893 C892 1.367 . S
C893 C895 1.433 . S
C894 C890 1.350 . S
C894 C891 1.463 . S
C894 N898 1.427 . S
C895 H885 0.929 . S
C895 C893 1.433 . S
C895 N898 1.384 . S
C896 H887 0.929 . S
C896 C888 1.378 . S
C896 C891 1.350 . S
C897 H884 0.929 . S
C897 C889 1.433 . S
C897 N899 1.384 . S
N898 C894 1.427 . S
N898 C895 1.384 . S
N899 C891 1.427 . S
N899 C897 1.384 . S
H900 C906 0.930 . S
H901 C910 0.930 . S
H902 C915 0.929 . S
H903 C913 0.929 . S
H904 C908 0.929 . S
H905 C914 0.929 . S
C906 H900 0.930 . S
C906 C907 1.367 . S
C906 C914 1.378 . S
C907 C906 1.367 . S
C907 C915 1.433 . S
C908 H904 0.929 . S
C908 C910 1.378 . S
C908 C912 1.350 . S
C909 C912 1.463 . S
C909 C914 1.350 . S
C909 N917 1.427 . S
C910 H901 0.930 . S
C910 C908 1.378 . S
C910 C911 1.367 . S
C911 C910 1.367 . S
C911 C913 1.433 . S
C912 C908 1.350 . S
C912 C909 1.463 . S
C912 N916 1.427 . S
C913 H903 0.929 . S
C913 C911 1.433 . S
C913 N916 1.384 . S
C914 H905 0.929 . S
C914 C906 1.378 . S
C914 C909 1.350 . S
C915 H902 0.929 . S
C915 C907 1.433 . S
C915 N917 1.384 . S
N916 C912 1.427 . S
N916 C913 1.384 . S
N917 C909 1.427 . S
N917 C915 1.384 . S
H918 C924 0.930 . S
H919 C928 0.930 . S
H920 C933 0.929 . S
H921 C931 0.929 . S
H922 C926 0.929 . S
H923 C932 0.929 . S
C924 H918 0.930 . S
C924 C925 1.367 . S
C924 C932 1.378 . S
C925 C924 1.367 . S
C925 C933 1.433 . S
C926 H922 0.929 . S
C926 C928 1.378 . S
C926 C930 1.350 . S
C927 C930 1.463 . S
C927 C932 1.350 . S
C927 N935 1.427 . S
C928 H919 0.930 . S
C928 C926 1.378 . S
C928 C929 1.367 . S
C929 C928 1.367 . S
C929 C931 1.433 . S
C930 C926 1.350 . S
C930 C927 1.463 . S
C930 N934 1.427 . S
C931 H921 0.929 . S
C931 C929 1.433 . S
C931 N934 1.384 . S
C932 H923 0.929 . S
C932 C924 1.378 . S
C932 C927 1.350 . S
C933 H920 0.929 . S
C933 C925 1.433 . S
C933 N935 1.384 . S
N934 C930 1.427 . S
N934 C931 1.384 . S
N935 C927 1.427 . S
N935 C933 1.384 . S
H936 C942 0.930 . S
H937 C946 0.930 . S
H938 C951 0.929 . S
H939 C949 0.929 . S
H940 C944 0.929 . S
H941 C950 0.929 . S
C942 H936 0.930 . S
C942 C943 1.367 . S
C942 C950 1.378 . S
C943 C942 1.367 . S
C943 C951 1.433 . S
C944 H940 0.929 . S
C944 C946 1.378 . S
C944 C948 1.350 . S
C945 C948 1.463 . S
C945 C950 1.350 . S
C945 N953 1.427 . S
C946 H937 0.930 . S
C946 C944 1.378 . S
C946 C947 1.367 . S
C947 C946 1.367 . S
C947 C949 1.433 . S
C948 C944 1.350 . S
C948 C945 1.463 . S
C948 N952 1.427 . S
C949 H939 0.929 . S
C949 C947 1.433 . S
C949 N952 1.384 . S
C950 H941 0.929 . S
C950 C942 1.378 . S
C950 C945 1.350 . S
C951 H938 0.929 . S
C951 C943 1.433 . S
C951 N953 1.384 . S
N952 C948 1.427 . S
N952 C949 1.384 . S
N953 C945 1.427 . S
N953 C951 1.384 . S
H954 C960 0.930 . S
H955 C964 0.930 . S
H956 C969 0.929 . S
H957 C967 0.929 . S
H958 C962 0.929 . S
H959 C968 0.929 . S
C960 H954 0.930 . S
C960 C961 1.367 . S
C960 C968 1.378 . S
C961 C960 1.367 . S
C961 C969 1.433 . S
C962 H958 0.929 . S
C962 C964 1.378 . S
C962 C966 1.350 . S
C963 C966 1.463 . S
C963 C968 1.350 . S
C963 N971 1.427 . S
C964 H955 0.930 . S
C964 C962 1.378 . S
C964 C965 1.367 . S
C965 C964 1.367 . S
C965 C967 1.433 . S
C966 C962 1.350 . S
C966 C963 1.463 . S
C966 N970 1.427 . S
C967 H957 0.929 . S
C967 C965 1.433 . S
C967 N970 1.384 . S
C968 H959 0.929 . S
C968 C960 1.378 . S
C968 C963 1.350 . S
C969 H956 0.929 . S
C969 C961 1.433 . S
C969 N971 1.384 . S
N970 C966 1.427 . S
N970 C967 1.384 . S
N971 C963 1.427 . S
N971 C969 1.384 . S
H972 C978 0.930 . S
H973 C982 0.930 . S
H974 C987 0.929 . S
H975 C985 0.929 . S
H976 C980 0.929 . S
H977 C986 0.929 . S
C978 H972 0.930 . S
C978 C979 1.367 . S
C978 C986 1.378 1_545 S
C979 C978 1.367 . S
C979 C987 1.433 . S
C980 H976 0.929 . S
C980 C982 1.378 . S
C980 C984 1.350 . S
C981 C984 1.463 . S
C981 C986 1.350 . S
C981 N989 1.427 . S
C982 H973 0.930 . S
C982 C980 1.378 . S
C982 C983 1.367 . S
C983 C982 1.367 . S
C983 C985 1.433 . S
C984 C980 1.350 . S
C984 C981 1.463 . S
C984 N988 1.427 . S
C985 H975 0.929 . S
C985 C983 1.433 . S
C985 N988 1.384 . S
C986 H977 0.929 . S
C986 C978 1.378 1_565 S
C986 C981 1.350 . S
C987 H974 0.929 . S
C987 C979 1.433 . S
C987 N989 1.384 1_545 S
N988 C984 1.427 . S
N988 C985 1.384 . S
N989 C981 1.427 . S
N989 C987 1.384 1_565 S
H990 C996 0.930 1_655 S
H991 C1000 0.930 . S
H992 C1005 0.929 1_655 S
H993 C1003 0.929 . S
H994 C998 0.929 . S
H995 C1004 0.929 . S
C996 H990 0.930 1_455 S
C996 C997 1.360 1_455 S
C996 C1004 1.385 . S
C997 C996 1.360 1_655 S
C997 C1005 1.433 1_655 S
C998 H994 0.929 . S
C998 C1000 1.378 . S
C998 C1002 1.350 . S
C999 C1002 1.463 . S
C999 C1004 1.350 . S
C999 N1007 1.427 . S
C1000 H991 0.930 . S
C1000 C998 1.378 . S
C1000 C1001 1.367 . S
C1001 C1000 1.367 . S
C1001 C1003 1.433 . S
C1002 C998 1.350 . S
C1002 C999 1.463 . S
C1002 N1006 1.427 . S
C1003 H993 0.929 . S
C1003 C1001 1.433 . S
C1003 N1006 1.384 . S
C1004 H995 0.929 . S
C1004 C996 1.385 . S
C1004 C999 1.350 . S
C1005 H992 0.929 1_455 S
C1005 C997 1.433 1_455 S
C1005 N1007 1.384 . S
N1006 C1002 1.427 . S
N1006 C1003 1.384 . S
N1007 C999 1.427 . S
N1007 C1005 1.384 . S
H1008 C1014 0.930 . S
H1009 C1018 0.930 . S
H1010 C1023 0.929 . S
H1011 C1021 0.929 . S
H1012 C1016 0.929 . S
H1013 C1022 0.929 . S
C1014 H1008 0.930 . S
C1014 C1015 1.367 . S
C1014 C1022 1.378 . S
C1015 C1014 1.367 . S
C1015 C1023 1.433 . S
C1016 H1012 0.929 . S
C1016 C1018 1.378 . S
C1016 C1020 1.350 . S
C1017 C1020 1.463 . S
C1017 C1022 1.350 . S
C1017 N1025 1.427 . S
C1018 H1009 0.930 . S
C1018 C1016 1.378 . S
C1018 C1019 1.367 . S
C1019 C1018 1.367 . S
C1019 C1021 1.433 . S
C1020 C1016 1.350 . S
C1020 C1017 1.463 . S
C1020 N1024 1.427 . S
C1021 H1011 0.929 . S
C1021 C1019 1.433 . S
C1021 N1024 1.384 . S
C1022 H1013 0.929 . S
C1022 C1014 1.378 . S
C1022 C1017 1.350 . S
C1023 H1010 0.929 . S
C1023 C1015 1.433 . S
C1023 N1025 1.384 . S
N1024 C1020 1.427 . S
N1024 C1021 1.384 . S
N1025 C1017 1.427 . S
N1025 C1023 1.384 . S
H1026 C1032 0.930 . S
H1027 C1036 0.930 . S
H1028 C1041 0.929 . S
H1029 C1039 0.929 . S
H1030 C1034 0.929 . S
H1031 C1040 0.929 . S
C1032 H1026 0.930 . S
C1032 C1033 1.367 . S
C1032 C1040 1.378 . S
C1033 C1032 1.367 . S
C1033 C1041 1.433 . S
C1034 H1030 0.929 . S
C1034 C1036 1.378 . S
C1034 C1038 1.350 . S
C1035 C1038 1.463 . S
C1035 C1040 1.350 . S
C1035 N1043 1.427 . S
C1036 H1027 0.930 . S
C1036 C1034 1.378 . S
C1036 C1037 1.367 . S
C1037 C1036 1.367 . S
C1037 C1039 1.433 . S
C1038 C1034 1.350 . S
C1038 C1035 1.463 . S
C1038 N1042 1.427 . S
C1039 H1029 0.929 . S
C1039 C1037 1.433 . S
C1039 N1042 1.384 . S
C1040 H1031 0.929 . S
C1040 C1032 1.378 . S
C1040 C1035 1.350 . S
C1041 H1028 0.929 . S
C1041 C1033 1.433 . S
C1041 N1043 1.384 . S
N1042 C1038 1.427 . S
N1042 C1039 1.384 . S
N1043 C1035 1.427 . S
N1043 C1041 1.384 . S
H1044 C1050 0.930 . S
H1045 C1054 0.930 . S
H1046 C1059 0.929 . S
H1047 C1057 0.929 . S
H1048 C1052 0.929 . S
H1049 C1058 0.929 . S
C1050 H1044 0.930 . S
C1050 C1051 1.367 . S
C1050 C1058 1.378 . S
C1051 C1050 1.367 . S
C1051 C1059 1.433 . S
C1052 H1048 0.929 . S
C1052 C1054 1.378 . S
C1052 C1056 1.350 . S
C1053 C1056 1.463 . S
C1053 C1058 1.350 . S
C1053 N1061 1.427 . S
C1054 H1045 0.930 . S
C1054 C1052 1.378 . S
C1054 C1055 1.367 . S
C1055 C1054 1.367 . S
C1055 C1057 1.433 . S
C1056 C1052 1.350 . S
C1056 C1053 1.463 . S
C1056 N1060 1.427 . S
C1057 H1047 0.929 . S
C1057 C1055 1.433 . S
C1057 N1060 1.384 . S
C1058 H1049 0.929 . S
C1058 C1050 1.378 . S
C1058 C1053 1.350 . S
C1059 H1046 0.929 . S
C1059 C1051 1.433 . S
C1059 N1061 1.384 . S
N1060 C1056 1.427 . S
N1060 C1057 1.384 . S
N1061 C1053 1.427 . S
N1061 C1059 1.384 . S
H1062 C1068 0.930 . S
H1063 C1072 0.930 . S
H1064 C1077 0.929 . S
H1065 C1075 0.929 . S
H1066 C1070 0.929 . S
H1067 C1076 0.929 . S
C1068 H1062 0.930 . S
C1068 C1069 1.367 . S
C1068 C1076 1.378 . S
C1069 C1068 1.367 . S
C1069 C1077 1.433 . S
C1070 H1066 0.929 . S
C1070 C1072 1.378 . S
C1070 C1074 1.350 . S
C1071 C1074 1.463 . S
C1071 C1076 1.350 . S
C1071 N1079 1.427 . S
C1072 H1063 0.930 . S
C1072 C1070 1.378 . S
C1072 C1073 1.367 . S
C1073 C1072 1.367 . S
C1073 C1075 1.433 . S
C1074 C1070 1.350 . S
C1074 C1071 1.463 . S
C1074 N1078 1.427 . S
C1075 H1065 0.929 . S
C1075 C1073 1.433 . S
C1075 N1078 1.384 . S
C1076 H1067 0.929 . S
C1076 C1068 1.378 . S
C1076 C1071 1.350 . S
C1077 H1064 0.929 . S
C1077 C1069 1.433 . S
C1077 N1079 1.384 . S
N1078 C1074 1.427 . S
N1078 C1075 1.384 . S
N1079 C1071 1.427 . S
N1079 C1077 1.384 . S
H1080 C1086 0.930 . S
H1081 C1090 0.930 . S
H1082 C1095 0.929 . S
H1083 C1093 0.929 . S
H1084 C1088 0.929 1_565 S
H1085 C1094 0.929 . S
C1086 H1080 0.930 . S
C1086 C1087 1.367 . S
C1086 C1094 1.378 . S
C1087 C1086 1.367 . S
C1087 C1095 1.433 . S
C1088 H1084 0.929 1_545 S
C1088 C1090 1.378 . S
C1088 C1092 1.350 . S
C1089 C1092 1.463 1_565 S
C1089 C1094 1.350 . S
C1089 N1097 1.427 . S
C1090 H1081 0.930 . S
C1090 C1088 1.378 . S
C1090 C1091 1.367 . S
C1091 C1090 1.367 . S
C1091 C1093 1.433 . S
C1092 C1088 1.350 . S
C1092 C1089 1.463 1_545 S
C1092 N1096 1.427 . S
C1093 H1083 0.929 . S
C1093 C1091 1.433 . S
C1093 N1096 1.384 . S
C1094 H1085 0.929 . S
C1094 C1086 1.378 . S
C1094 C1089 1.350 . S
C1095 H1082 0.929 . S
C1095 C1087 1.433 . S
C1095 N1097 1.384 . S
N1096 C1092 1.427 . S
N1096 C1093 1.384 . S
N1097 C1089 1.427 . S
N1097 C1095 1.384 . S
H1098 C1104 0.930 . S
H1099 C1108 0.930 . S
H1100 C1113 0.929 . S
H1101 C1111 0.929 . S
H1102 C1106 0.929 1_455 S
H1103 C1112 0.929 1_655 S
C1104 H1098 0.930 . S
C1104 C1105 1.367 . S
C1104 C1112 1.378 . S
C1105 C1104 1.367 . S
C1105 C1113 1.433 . S
C1106 H1102 0.929 1_655 S
C1106 C1108 1.378 . S
C1106 C1110 1.350 . S
C1107 C1110 1.463 1_455 S
C1107 C1112 1.350 . S
C1107 N1115 1.427 . S
C1108 H1099 0.930 . S
C1108 C1106 1.378 . S
C1108 C1109 1.367 . S
C1109 C1108 1.367 . S
C1109 C1111 1.433 . S
C1110 C1106 1.350 . S
C1110 C1107 1.463 1_655 S
C1110 N1114 1.427 . S
C1111 H1101 0.929 . S
C1111 C1109 1.433 . S
C1111 N1114 1.384 . S
C1112 H1103 0.929 1_455 S
C1112 C1104 1.378 . S
C1112 C1107 1.350 . S
C1113 H1100 0.929 . S
C1113 C1105 1.433 . S
C1113 N1115 1.384 . S
N1114 C1110 1.427 . S
N1114 C1111 1.384 . S
N1115 C1107 1.427 . S
N1115 C1113 1.384 . S
H1116 C1122 0.930 . S
H1117 C1126 0.930 . S
H1118 C1131 0.929 . S
H1119 C1129 0.929 . S
H1120 C1124 0.929 . S
H1121 C1130 0.929 . S
C1122 H1116 0.930 . S
C1122 C1123 1.367 . S
C1122 C1130 1.378 . S
C1123 C1122 1.367 . S
C1123 C1131 1.433 . S
C1124 H1120 0.929 . S
C1124 C1126 1.378 . S
C1124 C1128 1.350 . S
C1125 C1128 1.463 . S
C1125 C1130 1.350 . S
C1125 N1133 1.427 . S
C1126 H1117 0.930 . S
C1126 C1124 1.378 . S
C1126 C1127 1.367 . S
C1127 C1126 1.367 . S
C1127 C1129 1.433 . S
C1128 C1124 1.350 . S
C1128 C1125 1.463 . S
C1128 N1132 1.427 . S
C1129 H1119 0.929 . S
C1129 C1127 1.433 . S
C1129 N1132 1.384 . S
C1130 H1121 0.929 . S
C1130 C1122 1.378 . S
C1130 C1125 1.350 . S
C1131 H1118 0.929 . S
C1131 C1123 1.433 . S
C1131 N1133 1.384 . S
N1132 C1128 1.427 . S
N1132 C1129 1.384 . S
N1133 C1125 1.427 . S
N1133 C1131 1.384 . S
H1134 C1140 0.930 . S
H1135 C1144 0.930 . S
H1136 C1149 0.929 . S
H1137 C1147 0.929 . S
H1138 C1142 0.929 . S
H1139 C1148 0.929 . S
C1140 H1134 0.930 . S
C1140 C1141 1.367 . S
C1140 C1148 1.378 1_455 S
C1141 C1140 1.367 . S
C1141 C1149 1.433 . S
C1142 H1138 0.929 . S
C1142 C1144 1.378 . S
C1142 C1146 1.350 . S
C1143 C1146 1.463 . S
C1143 C1148 1.350 . S
C1143 N1151 1.427 . S
C1144 H1135 0.930 . S
C1144 C1142 1.378 . S
C1144 C1145 1.367 . S
C1145 C1144 1.367 . S
C1145 C1147 1.433 . S
C1146 C1142 1.350 . S
C1146 C1143 1.463 . S
C1146 N1150 1.427 . S
C1147 H1137 0.929 . S
C1147 C1145 1.433 . S
C1147 N1150 1.384 . S
C1148 H1139 0.929 . S
C1148 C1140 1.378 1_655 S
C1148 C1143 1.350 . S
C1149 H1136 0.929 . S
C1149 C1141 1.433 . S
C1149 N1151 1.384 1_455 S
N1150 C1146 1.427 . S
N1150 C1147 1.384 . S
N1151 C1143 1.427 . S
N1151 C1149 1.384 1_655 S
H1152 C1158 0.930 . S
H1153 C1162 0.930 . S
H1154 C1167 0.929 . S
H1155 C1165 0.929 . S
H1156 C1160 0.929 . S
H1157 C1166 0.929 . S
C1158 H1152 0.930 . S
C1158 C1159 1.367 . S
C1158 C1166 1.378 . S
C1159 C1158 1.367 . S
C1159 C1167 1.433 . S
C1160 H1156 0.929 . S
C1160 C1162 1.378 . S
C1160 C1164 1.350 . S
C1161 C1164 1.463 . S
C1161 C1166 1.350 . S
C1161 N1169 1.427 . S
C1162 H1153 0.930 . S
C1162 C1160 1.378 . S
C1162 C1163 1.367 . S
C1163 C1162 1.367 . S
C1163 C1165 1.433 . S
C1164 C1160 1.350 . S
C1164 C1161 1.463 . S
C1164 N1168 1.427 . S
C1165 H1155 0.929 . S
C1165 C1163 1.433 . S
C1165 N1168 1.384 . S
C1166 H1157 0.929 . S
C1166 C1158 1.378 . S
C1166 C1161 1.350 . S
C1167 H1154 0.929 . S
C1167 C1159 1.433 . S
C1167 N1169 1.384 . S
N1168 C1164 1.427 . S
N1168 C1165 1.384 . S
N1169 C1161 1.427 . S
N1169 C1167 1.384 . S
H1170 C1176 0.930 . S
H1171 C1180 0.930 . S
H1172 C1185 0.929 . S
H1173 C1183 0.929 . S
H1174 C1178 0.929 . S
H1175 C1184 0.929 . S
C1176 H1170 0.930 . S
C1176 C1177 1.367 . S
C1176 C1184 1.378 1_565 S
C1177 C1176 1.367 . S
C1177 C1185 1.433 . S
C1178 H1174 0.929 . S
C1178 C1180 1.378 . S
C1178 C1182 1.350 . S
C1179 C1182 1.463 . S
C1179 C1184 1.350 . S
C1179 N1187 1.427 . S
C1180 H1171 0.930 . S
C1180 C1178 1.378 . S
C1180 C1181 1.367 . S
C1181 C1180 1.367 . S
C1181 C1183 1.433 . S
C1182 C1178 1.350 . S
C1182 C1179 1.463 . S
C1182 N1186 1.427 . S
C1183 H1173 0.929 . S
C1183 C1181 1.433 . S
C1183 N1186 1.384 . S
C1184 H1175 0.929 . S
C1184 C1176 1.378 1_545 S
C1184 C1179 1.350 . S
C1185 H1172 0.929 . S
C1185 C1177 1.433 . S
C1185 N1187 1.384 1_565 S
N1186 C1182 1.427 . S
N1186 C1183 1.384 . S
N1187 C1179 1.427 . S
N1187 C1185 1.384 1_545 S
H1188 C1194 0.930 . S
H1189 C1198 0.930 . S
H1190 C1203 0.929 . S
H1191 C1201 0.929 . S
H1192 C1196 0.929 . S
H1193 C1202 0.929 . S
C1194 H1188 0.930 . S
C1194 C1195 1.367 . S
C1194 C1202 1.378 . S
C1195 C1194 1.367 . S
C1195 C1203 1.433 . S
C1196 H1192 0.929 . S
C1196 C1198 1.378 . S
C1196 C1200 1.350 . S
C1197 C1200 1.463 . S
C1197 C1202 1.350 . S
C1197 N1205 1.427 . S
C1198 H1189 0.930 . S
C1198 C1196 1.378 . S
C1198 C1199 1.367 . S
C1199 C1198 1.367 . S
C1199 C1201 1.433 . S
C1200 C1196 1.350 . S
C1200 C1197 1.463 . S
C1200 N1204 1.427 . S
C1201 H1191 0.929 . S
C1201 C1199 1.433 . S
C1201 N1204 1.384 . S
C1202 H1193 0.929 . S
C1202 C1194 1.378 . S
C1202 C1197 1.350 . S
C1203 H1190 0.929 . S
C1203 C1195 1.433 . S
C1203 N1205 1.384 . S
N1204 C1200 1.427 . S
N1204 C1201 1.384 . S
N1205 C1197 1.427 . S
N1205 C1203 1.384 . S
H1206 C1212 0.930 . S
H1207 C1216 0.930 . S
H1208 C1221 0.929 . S
H1209 C1219 0.929 . S
H1210 C1214 0.929 . S
H1211 C1220 0.929 . S
C1212 H1206 0.930 . S
C1212 C1213 1.367 . S
C1212 C1220 1.378 . S
C1213 C1212 1.367 . S
C1213 C1221 1.433 . S
C1214 H1210 0.929 . S
C1214 C1216 1.378 . S
C1214 C1218 1.350 . S
C1215 C1218 1.463 . S
C1215 C1220 1.350 . S
C1215 N1223 1.427 . S
C1216 H1207 0.930 . S
C1216 C1214 1.378 . S
C1216 C1217 1.367 . S
C1217 C1216 1.367 . S
C1217 C1219 1.433 . S
C1218 C1214 1.350 . S
C1218 C1215 1.463 . S
C1218 N1222 1.427 . S
C1219 H1209 0.929 . S
C1219 C1217 1.433 . S
C1219 N1222 1.384 . S
C1220 H1211 0.929 . S
C1220 C1212 1.378 . S
C1220 C1215 1.350 . S
C1221 H1208 0.929 . S
C1221 C1213 1.433 . S
C1221 N1223 1.384 . S
N1222 C1218 1.427 . S
N1222 C1219 1.384 . S
N1223 C1215 1.427 . S
N1223 C1221 1.384 . S
H1224 C1230 0.930 . S
H1225 C1234 0.930 . S
H1226 C1239 0.929 . S
H1227 C1237 0.929 . S
H1228 C1232 0.929 . S
H1229 C1238 0.929 . S
C1230 H1224 0.930 . S
C1230 C1231 1.367 . S
C1230 C1238 1.378 . S
C1231 C1230 1.367 . S
C1231 C1239 1.433 . S
C1232 H1228 0.929 . S
C1232 C1234 1.378 . S
C1232 C1236 1.350 . S
C1233 C1236 1.463 . S
C1233 C1238 1.350 . S
C1233 N1241 1.427 . S
C1234 H1225 0.930 . S
C1234 C1232 1.378 . S
C1234 C1235 1.367 . S
C1235 C1234 1.367 . S
C1235 C1237 1.433 . S
C1236 C1232 1.350 . S
C1236 C1233 1.463 . S
C1236 N1240 1.427 . S
C1237 H1227 0.929 . S
C1237 C1235 1.433 . S
C1237 N1240 1.384 . S
C1238 H1229 0.929 . S
C1238 C1230 1.378 . S
C1238 C1233 1.350 . S
C1239 H1226 0.929 . S
C1239 C1231 1.433 . S
C1239 N1241 1.384 . S
N1240 C1236 1.427 . S
N1240 C1237 1.384 . S
N1241 C1233 1.427 . S
N1241 C1239 1.384 . S
H1242 C1248 0.930 . S
H1243 C1252 0.930 . S
H1244 C1257 0.929 . S
H1245 C1255 0.929 . S
H1246 C1250 0.929 . S
H1247 C1256 0.929 . S
C1248 H1242 0.930 . S
C1248 C1249 1.367 . S
C1248 C1256 1.378 . S
C1249 C1248 1.367 . S
C1249 C1257 1.433 . S
C1250 H1246 0.929 . S
C1250 C1252 1.378 . S
C1250 C1254 1.350 . S
C1251 C1254 1.463 . S
C1251 C1256 1.350 . S
C1251 N1259 1.427 . S
C1252 H1243 0.930 . S
C1252 C1250 1.378 . S
C1252 C1253 1.367 . S
C1253 C1252 1.367 . S
C1253 C1255 1.433 . S
C1254 C1250 1.350 . S
C1254 C1251 1.463 . S
C1254 N1258 1.427 . S
C1255 H1245 0.929 . S
C1255 C1253 1.433 . S
C1255 N1258 1.384 . S
C1256 H1247 0.929 . S
C1256 C1248 1.378 . S
C1256 C1251 1.350 . S
C1257 H1244 0.929 . S
C1257 C1249 1.433 . S
C1257 N1259 1.384 . S
N1258 C1254 1.427 . S
N1258 C1255 1.384 . S
N1259 C1251 1.427 . S
N1259 C1257 1.384 . S
H1260 C1266 0.930 . S
H1261 C1270 0.930 . S
H1262 C1275 0.929 . S
H1263 C1273 0.929 . S
H1264 C1268 0.929 . S
H1265 C1274 0.929 . S
C1266 H1260 0.930 . S
C1266 C1267 1.367 . S
C1266 C1274 1.378 . S
C1267 C1266 1.367 . S
C1267 C1275 1.433 . S
C1268 H1264 0.929 . S
C1268 C1270 1.378 . S
C1268 C1272 1.350 . S
C1269 C1272 1.463 . S
C1269 C1274 1.350 . S
C1269 N1277 1.427 . S
C1270 H1261 0.930 . S
C1270 C1268 1.378 . S
C1270 C1271 1.367 . S
C1271 C1270 1.367 . S
C1271 C1273 1.433 . S
C1272 C1268 1.350 . S
C1272 C1269 1.463 . S
C1272 N1276 1.427 . S
C1273 H1263 0.929 . S
C1273 C1271 1.433 . S
C1273 N1276 1.384 . S
C1274 H1265 0.929 . S
C1274 C1266 1.378 . S
C1274 C1269 1.350 . S
C1275 H1262 0.929 . S
C1275 C1267 1.433 . S
C1275 N1277 1.384 . S
N1276 C1272 1.427 . S
N1276 C1273 1.384 . S
N1277 C1269 1.427 . S
N1277 C1275 1.384 . S
H1278 C1284 0.930 . S
H1279 C1288 0.930 . S
H1280 C1293 0.929 . S
H1281 C1291 0.929 . S
H1282 C1286 0.929 . S
H1283 C1292 0.929 . S
C1284 H1278 0.930 . S
C1284 C1285 1.367 . S
C1284 C1292 1.378 . S
C1285 C1284 1.367 . S
C1285 C1293 1.433 . S
C1286 H1282 0.929 . S
C1286 C1288 1.378 . S
C1286 C1290 1.350 . S
C1287 C1290 1.463 . S
C1287 C1292 1.350 . S
C1287 N1295 1.427 . S
C1288 H1279 0.930 . S
C1288 C1286 1.378 . S
C1288 C1289 1.367 . S
C1289 C1288 1.367 . S
C1289 C1291 1.433 . S
C1290 C1286 1.350 . S
C1290 C1287 1.463 . S
C1290 N1294 1.427 . S
C1291 H1281 0.929 . S
C1291 C1289 1.433 . S
C1291 N1294 1.384 . S
C1292 H1283 0.929 . S
C1292 C1284 1.378 . S
C1292 C1287 1.350 . S
C1293 H1280 0.929 . S
C1293 C1285 1.433 . S
C1293 N1295 1.384 . S
N1294 C1290 1.427 . S
N1294 C1291 1.384 . S
N1295 C1287 1.427 . S
N1295 C1293 1.384 . S
H1296 C1302 0.930 . S
H1297 C1306 0.930 . S
H1298 C1311 0.929 . S
H1299 C1309 0.929 . S
H1300 C1304 0.929 . S
H1301 C1310 0.929 . S
C1302 H1296 0.930 . S
C1302 C1303 1.367 . S
C1302 C1310 1.378 . S
C1303 C1302 1.367 . S
C1303 C1311 1.433 . S
C1304 H1300 0.929 . S
C1304 C1306 1.378 . S
C1304 C1308 1.350 . S
C1305 C1308 1.463 . S
C1305 C1310 1.350 . S
C1305 N1313 1.427 . S
C1306 H1297 0.930 . S
C1306 C1304 1.378 . S
C1306 C1307 1.367 . S
C1307 C1306 1.367 . S
C1307 C1309 1.433 . S
C1308 C1304 1.350 . S
C1308 C1305 1.463 . S
C1308 N1312 1.427 . S
C1309 H1299 0.929 . S
C1309 C1307 1.433 . S
C1309 N1312 1.384 . S
C1310 H1301 0.929 . S
C1310 C1302 1.378 . S
C1310 C1305 1.350 . S
C1311 H1298 0.929 . S
C1311 C1303 1.433 . S
C1311 N1313 1.384 . S
N1312 C1308 1.427 . S
N1312 C1309 1.384 . S
N1313 C1305 1.427 . S
N1313 C1311 1.384 . S
H1314 C1320 0.930 . S
H1315 C1324 0.930 . S
H1316 C1329 0.929 . S
H1317 C1327 0.929 . S
H1318 C1322 0.929 . S
H1319 C1328 0.929 . S
C1320 H1314 0.930 . S
C1320 C1321 1.367 . S
C1320 C1328 1.378 . S
C1321 C1320 1.367 . S
C1321 C1329 1.433 . S
C1322 H1318 0.929 . S
C1322 C1324 1.378 . S
C1322 C1326 1.350 . S
C1323 C1326 1.463 . S
C1323 C1328 1.350 . S
C1323 N1331 1.427 . S
C1324 H1315 0.930 . S
C1324 C1322 1.378 . S
C1324 C1325 1.367 . S
C1325 C1324 1.367 . S
C1325 C1327 1.433 . S
C1326 C1322 1.350 . S
C1326 C1323 1.463 . S
C1326 N1330 1.427 . S
C1327 H1317 0.929 . S
C1327 C1325 1.433 . S
C1327 N1330 1.384 . S
C1328 H1319 0.929 . S
C1328 C1320 1.378 . S
C1328 C1323 1.350 . S
C1329 H1316 0.929 . S
C1329 C1321 1.433 . S
C1329 N1331 1.384 . S
N1330 C1326 1.427 . S
N1330 C1327 1.384 . S
N1331 C1323 1.427 . S
N1331 C1329 1.384 . S
H1332 C1338 0.930 . S
H1333 C1342 0.930 . S
H1334 C1347 0.929 . S
H1335 C1345 0.929 . S
H1336 C1340 0.929 . S
H1337 C1346 0.929 . S
C1338 H1332 0.930 . S
C1338 C1339 1.367 . S
C1338 C1346 1.378 . S
C1339 C1338 1.367 . S
C1339 C1347 1.433 . S
C1340 H1336 0.929 . S
C1340 C1342 1.378 . S
C1340 C1344 1.350 . S
C1341 C1344 1.463 . S
C1341 C1346 1.350 . S
C1341 N1349 1.427 . S
C1342 H1333 0.930 . S
C1342 C1340 1.378 . S
C1342 C1343 1.367 . S
C1343 C1342 1.367 . S
C1343 C1345 1.433 . S
C1344 C1340 1.350 . S
C1344 C1341 1.463 . S
C1344 N1348 1.427 . S
C1345 H1335 0.929 . S
C1345 C1343 1.433 . S
C1345 N1348 1.384 . S
C1346 H1337 0.929 . S
C1346 C1338 1.378 . S
C1346 C1341 1.350 . S
C1347 H1334 0.929 . S
C1347 C1339 1.433 . S
C1347 N1349 1.384 . S
N1348 C1344 1.427 . S
N1348 C1345 1.384 . S
N1349 C1341 1.427 . S
N1349 C1347 1.384 . S
H1350 C1356 0.930 . S
H1351 C1360 0.930 . S
H1352 C1365 0.929 . S
H1353 C1363 0.929 . S
H1354 C1358 0.929 . S
H1355 C1364 0.929 . S
C1356 H1350 0.930 . S
C1356 C1357 1.367 . S
C1356 C1364 1.378 . S
C1357 C1356 1.367 . S
C1357 C1365 1.433 . S
C1358 H1354 0.929 . S
C1358 C1360 1.378 . S
C1358 C1362 1.350 . S
C1359 C1362 1.463 . S
C1359 C1364 1.350 . S
C1359 N1367 1.427 . S
C1360 H1351 0.930 . S
C1360 C1358 1.378 . S
C1360 C1361 1.367 . S
C1361 C1360 1.367 . S
C1361 C1363 1.433 . S
C1362 C1358 1.350 . S
C1362 C1359 1.463 . S
C1362 N1366 1.427 . S
C1363 H1353 0.929 . S
C1363 C1361 1.433 . S
C1363 N1366 1.384 . S
C1364 H1355 0.929 . S
C1364 C1356 1.378 . S
C1364 C1359 1.350 . S
C1365 H1352 0.929 . S
C1365 C1357 1.433 . S
C1365 N1367 1.384 . S
N1366 C1362 1.427 . S
N1366 C1363 1.384 . S
N1367 C1359 1.427 . S
N1367 C1365 1.384 . S
H1368 C1374 0.930 . S
H1369 C1378 0.930 . S
H1370 C1383 0.929 . S
H1371 C1381 0.929 . S
H1372 C1376 0.929 . S
H1373 C1382 0.929 . S
C1374 H1368 0.930 . S
C1374 C1375 1.367 . S
C1374 C1382 1.378 . S
C1375 C1374 1.367 . S
C1375 C1383 1.433 . S
C1376 H1372 0.929 . S
C1376 C1378 1.378 . S
C1376 C1380 1.350 . S
C1377 C1380 1.463 . S
C1377 C1382 1.350 . S
C1377 N1385 1.427 . S
C1378 H1369 0.930 . S
C1378 C1376 1.378 . S
C1378 C1379 1.367 . S
C1379 C1378 1.367 . S
C1379 C1381 1.433 . S
C1380 C1376 1.350 . S
C1380 C1377 1.463 . S
C1380 N1384 1.427 . S
C1381 H1371 0.929 . S
C1381 C1379 1.433 . S
C1381 N1384 1.384 . S
C1382 H1373 0.929 . S
C1382 C1374 1.378 . S
C1382 C1377 1.350 . S
C1383 H1370 0.929 . S
C1383 C1375 1.433 . S
C1383 N1385 1.384 . S
N1384 C1380 1.427 . S
N1384 C1381 1.384 . S
N1385 C1377 1.427 . S
N1385 C1383 1.384 . S
H1386 C1392 0.930 . S
H1387 C1396 0.930 . S
H1388 C1401 0.929 . S
H1389 C1399 0.929 . S
H1390 C1394 0.929 . S
H1391 C1400 0.929 . S
C1392 H1386 0.930 . S
C1392 C1393 1.367 . S
C1392 C1400 1.378 . S
C1393 C1392 1.367 . S
C1393 C1401 1.433 . S
C1394 H1390 0.929 . S
C1394 C1396 1.378 . S
C1394 C1398 1.350 . S
C1395 C1398 1.463 . S
C1395 C1400 1.350 . S
C1395 N1403 1.427 . S
C1396 H1387 0.930 . S
C1396 C1394 1.378 . S
C1396 C1397 1.367 . S
C1397 C1396 1.367 . S
C1397 C1399 1.433 . S
C1398 C1394 1.350 . S
C1398 C1395 1.463 . S
C1398 N1402 1.427 . S
C1399 H1389 0.929 . S
C1399 C1397 1.433 . S
C1399 N1402 1.384 . S
C1400 H1391 0.929 . S
C1400 C1392 1.378 . S
C1400 C1395 1.350 . S
C1401 H1388 0.929 . S
C1401 C1393 1.433 . S
C1401 N1403 1.384 . S
N1402 C1398 1.427 . S
N1402 C1399 1.384 . S
N1403 C1395 1.427 . S
N1403 C1401 1.384 . S
H1404 C1410 0.930 . S
H1405 C1414 0.930 . S
H1406 C1419 0.929 . S
H1407 C1417 0.929 . S
H1408 C1412 0.929 . S
H1409 C1418 0.929 . S
C1410 H1404 0.930 . S
C1410 C1411 1.367 . S
C1410 C1418 1.378 . S
C1411 C1410 1.367 . S
C1411 C1419 1.433 . S
C1412 H1408 0.929 . S
C1412 C1414 1.378 . S
C1412 C1416 1.350 . S
C1413 C1416 1.463 . S
C1413 C1418 1.350 . S
C1413 N1421 1.427 . S
C1414 H1405 0.930 . S
C1414 C1412 1.378 . S
C1414 C1415 1.367 . S
C1415 C1414 1.367 . S
C1415 C1417 1.433 . S
C1416 C1412 1.350 . S
C1416 C1413 1.463 . S
C1416 N1420 1.427 . S
C1417 H1407 0.929 . S
C1417 C1415 1.433 . S
C1417 N1420 1.384 . S
C1418 H1409 0.929 . S
C1418 C1410 1.378 . S
C1418 C1413 1.350 . S
C1419 H1406 0.929 . S
C1419 C1411 1.433 . S
C1419 N1421 1.384 . S
N1420 C1416 1.427 . S
N1420 C1417 1.384 . S
N1421 C1413 1.427 . S
N1421 C1419 1.384 . S
H1422 C1428 0.930 . S
H1423 C1432 0.930 . S
H1424 C1437 0.929 . S
H1425 C1435 0.929 . S
H1426 C1430 0.929 . S
H1427 C1436 0.929 . S
C1428 H1422 0.930 . S
C1428 C1429 1.367 . S
C1428 C1436 1.378 . S
C1429 C1428 1.367 . S
C1429 C1437 1.433 . S
C1430 H1426 0.929 . S
C1430 C1432 1.378 . S
C1430 C1434 1.350 . S
C1431 C1434 1.463 . S
C1431 C1436 1.350 . S
C1431 N1439 1.427 . S
C1432 H1423 0.930 . S
C1432 C1430 1.378 . S
C1432 C1433 1.367 . S
C1433 C1432 1.367 . S
C1433 C1435 1.433 . S
C1434 C1430 1.350 . S
C1434 C1431 1.463 . S
C1434 N1438 1.427 . S
C1435 H1425 0.929 . S
C1435 C1433 1.433 . S
C1435 N1438 1.384 . S
C1436 H1427 0.929 . S
C1436 C1428 1.378 . S
C1436 C1431 1.350 . S
C1437 H1424 0.929 . S
C1437 C1429 1.433 . S
C1437 N1439 1.384 . S
N1438 C1434 1.427 . S
N1438 C1435 1.384 . S
N1439 C1431 1.427 . S
N1439 C1437 1.384 . S
H1440 C1446 0.930 . S
H1441 C1450 0.930 . S
H1442 C1455 0.929 . S
H1443 C1453 0.929 . S
H1444 C1448 0.929 . S
H1445 C1454 0.929 . S
C1446 H1440 0.930 . S
C1446 C1447 1.367 . S
C1446 C1454 1.378 . S
C1447 C1446 1.367 . S
C1447 C1455 1.433 . S
C1448 H1444 0.929 . S
C1448 C1450 1.378 . S
C1448 C1452 1.350 . S
C1449 C1452 1.463 . S
C1449 C1454 1.350 . S
C1449 N1457 1.427 . S
C1450 H1441 0.930 . S
C1450 C1448 1.378 . S
C1450 C1451 1.367 . S
C1451 C1450 1.367 . S
C1451 C1453 1.433 . S
C1452 C1448 1.350 . S
C1452 C1449 1.463 . S
C1452 N1456 1.427 . S
C1453 H1443 0.929 . S
C1453 C1451 1.433 . S
C1453 N1456 1.384 . S
C1454 H1445 0.929 . S
C1454 C1446 1.378 . S
C1454 C1449 1.350 . S
C1455 H1442 0.929 . S
C1455 C1447 1.433 . S
C1455 N1457 1.384 . S
N1456 C1452 1.427 . S
N1456 C1453 1.384 . S
N1457 C1449 1.427 . S
N1457 C1455 1.384 . S
H1458 C1464 0.930 . S
H1459 C1468 0.930 . S
H1460 C1473 0.929 . S
H1461 C1471 0.929 . S
H1462 C1466 0.929 . S
H1463 C1472 0.929 . S
C1464 H1458 0.930 . S
C1464 C1465 1.367 . S
C1464 C1472 1.378 . S
C1465 C1464 1.367 . S
C1465 C1473 1.433 . S
C1466 H1462 0.929 . S
C1466 C1468 1.378 . S
C1466 C1470 1.350 . S
C1467 C1470 1.463 . S
C1467 C1472 1.350 . S
C1467 N1475 1.427 . S
C1468 H1459 0.930 . S
C1468 C1466 1.378 . S
C1468 C1469 1.367 . S
C1469 C1468 1.367 . S
C1469 C1471 1.433 . S
C1470 C1466 1.350 . S
C1470 C1467 1.463 . S
C1470 N1474 1.427 . S
C1471 H1461 0.929 . S
C1471 C1469 1.433 . S
C1471 N1474 1.384 . S
C1472 H1463 0.929 . S
C1472 C1464 1.378 . S
C1472 C1467 1.350 . S
C1473 H1460 0.929 . S
C1473 C1465 1.433 . S
C1473 N1475 1.384 . S
N1474 C1470 1.427 . S
N1474 C1471 1.384 . S
N1475 C1467 1.427 . S
N1475 C1473 1.384 . S
H1476 C1482 0.930 . S
H1477 C1486 0.930 . S
H1478 C1491 0.929 . S
H1479 C1489 0.929 . S
H1480 C1484 0.929 . S
H1481 C1490 0.929 . S
C1482 H1476 0.930 . S
C1482 C1483 1.367 . S
C1482 C1490 1.378 . S
C1483 C1482 1.367 . S
C1483 C1491 1.433 . S
C1484 H1480 0.929 . S
C1484 C1486 1.378 . S
C1484 C1488 1.350 . S
C1485 C1488 1.463 . S
C1485 C1490 1.350 . S
C1485 N1493 1.427 . S
C1486 H1477 0.930 . S
C1486 C1484 1.378 . S
C1486 C1487 1.367 . S
C1487 C1486 1.367 . S
C1487 C1489 1.433 . S
C1488 C1484 1.350 . S
C1488 C1485 1.463 . S
C1488 N1492 1.427 . S
C1489 H1479 0.929 . S
C1489 C1487 1.433 . S
C1489 N1492 1.384 . S
C1490 H1481 0.929 . S
C1490 C1482 1.378 . S
C1490 C1485 1.350 . S
C1491 H1478 0.929 . S
C1491 C1483 1.433 . S
C1491 N1493 1.384 . S
N1492 C1488 1.427 . S
N1492 C1489 1.384 . S
N1493 C1485 1.427 . S
N1493 C1491 1.384 . S
H1494 C1500 0.930 . S
H1495 C1504 0.930 . S
H1496 C1509 0.929 . S
H1497 C1507 0.929 . S
H1498 C1502 0.929 . S
H1499 C1508 0.929 . S
C1500 H1494 0.930 . S
C1500 C1501 1.367 . S
C1500 C1508 1.378 . S
C1501 C1500 1.367 . S
C1501 C1509 1.433 . S
C1502 H1498 0.929 . S
C1502 C1504 1.378 . S
C1502 C1506 1.350 . S
C1503 C1506 1.463 . S
C1503 C1508 1.350 . S
C1503 N1511 1.427 . S
C1504 H1495 0.930 . S
C1504 C1502 1.378 . S
C1504 C1505 1.367 . S
C1505 C1504 1.367 . S
C1505 C1507 1.433 . S
C1506 C1502 1.350 . S
C1506 C1503 1.463 . S
C1506 N1510 1.427 . S
C1507 H1497 0.929 . S
C1507 C1505 1.433 . S
C1507 N1510 1.384 . S
C1508 H1499 0.929 . S
C1508 C1500 1.378 . S
C1508 C1503 1.350 . S
C1509 H1496 0.929 . S
C1509 C1501 1.433 . S
C1509 N1511 1.384 . S
N1510 C1506 1.427 . S
N1510 C1507 1.384 . S
N1511 C1503 1.427 . S
N1511 C1509 1.384 . S
H1512 C1518 0.930 . S
H1513 C1522 0.930 . S
H1514 C1527 0.929 . S
H1515 C1525 0.929 . S
H1516 C1520 0.929 . S
H1517 C1526 0.929 . S
C1518 H1512 0.930 . S
C1518 C1519 1.367 . S
C1518 C1526 1.378 . S
C1519 C1518 1.367 . S
C1519 C1527 1.433 . S
C1520 H1516 0.929 . S
C1520 C1522 1.378 . S
C1520 C1524 1.350 . S
C1521 C1524 1.463 . S
C1521 C1526 1.350 . S
C1521 N1529 1.427 . S
C1522 H1513 0.930 . S
C1522 C1520 1.378 . S
C1522 C1523 1.367 . S
C1523 C1522 1.367 . S
C1523 C1525 1.433 . S
C1524 C1520 1.350 . S
C1524 C1521 1.463 . S
C1524 N1528 1.427 . S
C1525 H1515 0.929 . S
C1525 C1523 1.433 . S
C1525 N1528 1.384 . S
C1526 H1517 0.929 . S
C1526 C1518 1.378 . S
C1526 C1521 1.350 . S
C1527 H1514 0.929 . S
C1527 C1519 1.433 . S
C1527 N1529 1.384 . S
N1528 C1524 1.427 . S
N1528 C1525 1.384 . S
N1529 C1521 1.427 . S
N1529 C1527 1.384 . S
H1530 C1536 0.930 . S
H1531 C1540 0.930 . S
H1532 C1545 0.929 . S
H1533 C1543 0.929 . S
H1534 C1538 0.929 . S
H1535 C1544 0.929 . S
C1536 H1530 0.930 . S
C1536 C1537 1.367 . S
C1536 C1544 1.378 . S
C1537 C1536 1.367 . S
C1537 C1545 1.433 . S
C1538 H1534 0.929 . S
C1538 C1540 1.378 . S
C1538 C1542 1.350 . S
C1539 C1542 1.463 . S
C1539 C1544 1.350 . S
C1539 N1547 1.427 . S
C1540 H1531 0.930 . S
C1540 C1538 1.378 . S
C1540 C1541 1.367 . S
C1541 C1540 1.367 . S
C1541 C1543 1.433 . S
C1542 C1538 1.350 . S
C1542 C1539 1.463 . S
C1542 N1546 1.427 . S
C1543 H1533 0.929 . S
C1543 C1541 1.433 . S
C1543 N1546 1.384 . S
C1544 H1535 0.929 . S
C1544 C1536 1.378 . S
C1544 C1539 1.350 . S
C1545 H1532 0.929 . S
C1545 C1537 1.433 . S
C1545 N1547 1.384 . S
N1546 C1542 1.427 . S
N1546 C1543 1.384 . S
N1547 C1539 1.427 . S
N1547 C1545 1.384 . S
H1548 C1554 0.930 . S
H1549 C1558 0.930 . S
H1550 C1563 0.929 . S
H1551 C1561 0.929 . S
H1552 C1556 0.929 . S
H1553 C1562 0.929 . S
C1554 H1548 0.930 . S
C1554 C1555 1.367 . S
C1554 C1562 1.378 . S
C1555 C1554 1.367 . S
C1555 C1563 1.433 . S
C1556 H1552 0.929 . S
C1556 C1558 1.378 . S
C1556 C1560 1.350 . S
C1557 C1560 1.463 . S
C1557 C1562 1.350 . S
C1557 N1565 1.427 . S
C1558 H1549 0.930 . S
C1558 C1556 1.378 . S
C1558 C1559 1.367 . S
C1559 C1558 1.367 . S
C1559 C1561 1.433 . S
C1560 C1556 1.350 . S
C1560 C1557 1.463 . S
C1560 N1564 1.427 . S
C1561 H1551 0.929 . S
C1561 C1559 1.433 . S
C1561 N1564 1.384 . S
C1562 H1553 0.929 . S
C1562 C1554 1.378 . S
C1562 C1557 1.350 . S
C1563 H1550 0.929 . S
C1563 C1555 1.433 . S
C1563 N1565 1.384 . S
N1564 C1560 1.427 . S
N1564 C1561 1.384 . S
N1565 C1557 1.427 . S
N1565 C1563 1.384 . S
C601 C177 1.667 . S
C605 C246 1.678 . S
C619 C190 1.791 . S
C623 C286 1.790 . S
C637 C164 1.602 . S
C641 C316 1.588 . S
C655 C151 1.478 . S
C659 C276 1.460 1_556 S
C677 C326 1.503 . S
C673 C125 1.505 . S
C691 C138 1.356 . S
C695 C236 1.351 1_556 S
C713 C265 1.672 . S
C709 C147 1.630 . S
C731 C305 1.678 . S
C727 C121 1.616 . S
C745 C134 1.618 . S
C749 C331 1.681 . S
C763 C173 1.478 . S
C767 C291 1.515 . S
C781 C186 1.433 . S
C785 C345 1.461 . S
C803 C251 1.471 . S
C799 C160 1.430 . S
C821 C366 1.679 . S
C817 C21 1.667 . S
C835 C34 1.793 . S
C839 C406 1.792 . S
C853 C8 1.602 . S
C857 C436 1.588 . S
C871 C229 1.477 . S
C875 C396 1.451 . S
C889 C203 1.506 . S
C893 C446 1.503 . S
C907 C216 1.363 . S
C911 C356 1.361 . S
C925 C225 1.634 . S
C929 C385 1.675 . S
C943 C199 1.620 . S
C947 C425 1.678 . S
C965 C451 1.673 . S
C961 C212 1.618 . S
C979 C17 1.463 . S
C983 C411 1.506 . S
C1001 C465 1.465 . S
C997 C30 1.431 . S
C1015 C4 1.441 . S
C1019 C371 1.474 . S
C1037 C486 1.680 . S
C1033 C99 1.671 . S
C1051 C112 1.793 . S
C1055 C526 1.793 . S
C1073 C556 1.579 . S
C1069 C86 1.596 . S
C1091 C516 1.455 . S
C1087 C73 1.475 . S
C1109 C566 1.504 . S
C1105 C47 1.505 . S
C1123 C60 1.364 . S
C1127 C476 1.360 . S
C1141 C69 1.630 . S
C1145 C505 1.670 . S
C1159 C43 1.625 . S
C1163 C545 1.676 . S
C1181 C571 1.671 . S
C1177 C56 1.610 . S
C1195 C95 1.474 . S
C1199 C531 1.514 . S
C1213 C108 1.439 . S
C1217 C585 1.461 . S
C1231 C82 1.437 . S
C1235 C491 1.471 . S
C1249 C204 1.500 . S
C1253 C263 1.475 . S
C1271 C303 1.902 . S
C1267 C217 1.938 . S
C1285 C230 1.555 . S
C1289 C322 1.573 . S
C1303 C87 1.779 . S
C1307 C282 1.776 . S
C1321 C100 1.679 . S
C1325 C343 1.659 . S
C1343 C242 1.311 . S
C1339 C113 1.303 . S
C1357 C48 1.496 . S
C1361 C383 1.470 . S
C1375 C61 1.941 . S
C1379 C423 1.907 . S
C1393 C74 1.559 . S
C1397 C442 1.575 . S
C1411 C165 1.779 . S
C1415 C402 1.777 . S
C1433 C463 1.660 . S
C1429 C178 1.680 . S
C1447 C191 1.302 . S
C1451 C362 1.312 . S
C1465 C126 1.494 . S
C1469 C503 1.466 . S
C1483 C139 1.939 . S
C1487 C543 1.904 . S
C1505 C562 1.571 . S
C1501 C152 1.554 . S
C1519 C9 1.779 . S
C1523 C522 1.776 . S
C1537 C22 1.679 . S
C1541 C583 1.660 . S
C1555 C35 1.301 . S
C1559 C482 1.313 . S
