# Generated by pormake.
# Topology eea, (3,6)-cn, num edge types: 1
# Building blocks:
#     Node 0, Type 0, BuildingBlock: CUQRIR_clean_linker_1, # of connection points: 3
#     Node 1, Type 0, BuildingBlock: CUQRIR_clean_linker_1, # of connection points: 3
#     Node 2, Type 0, BuildingBlock: CUQRIR_clean_linker_1, # of connection points: 3
#     Node 3, Type 0, BuildingBlock: CUQRIR_clean_linker_1, # of connection points: 3
#     Node 4, Type 0, BuildingBlock: CUQRIR_clean_linker_1, # of connection points: 3
#     Node 5, Type 0, BuildingBlock: CUQRIR_clean_linker_1, # of connection points: 3
#     Node 6, Type 0, BuildingBlock: CUQRIR_clean_linker_1, # of connection points: 3
#     Node 7, Type 0, BuildingBlock: CUQRIR_clean_linker_1, # of connection points: 3
#     Node 8, Type 0, BuildingBlock: CUQRIR_clean_linker_1, # of connection points: 3
#     Node 9, Type 0, BuildingBlock: CUQRIR_clean_linker_1, # of connection points: 3
#     Node 10, Type 0, BuildingBlock: CUQRIR_clean_linker_1, # of connection points: 3
#     Node 11, Type 0, BuildingBlock: CUQRIR_clean_linker_1, # of connection points: 3
#     Node 12, Type 0, BuildingBlock: CUQRIR_clean_linker_1, # of connection points: 3
#     Node 13, Type 0, BuildingBlock: CUQRIR_clean_linker_1, # of connection points: 3
#     Node 14, Type 0, BuildingBlock: CUQRIR_clean_linker_1, # of connection points: 3
#     Node 15, Type 0, BuildingBlock: CUQRIR_clean_linker_1, # of connection points: 3
#     Node 16, Type 0, BuildingBlock: CUQRIR_clean_linker_1, # of connection points: 3
#     Node 17, Type 0, BuildingBlock: CUQRIR_clean_linker_1, # of connection points: 3
#     Node 18, Type 1, BuildingBlock: HISSIN_clean_sbu_0, # of connection points: 6
#     Node 19, Type 1, BuildingBlock: HISSIN_clean_sbu_0, # of connection points: 6
#     Node 20, Type 1, BuildingBlock: HISSIN_clean_sbu_0, # of connection points: 6
#     Node 21, Type 1, BuildingBlock: HISSIN_clean_sbu_0, # of connection points: 6
#     Node 22, Type 1, BuildingBlock: HISSIN_clean_sbu_0, # of connection points: 6
#     Node 23, Type 1, BuildingBlock: HISSIN_clean_sbu_0, # of connection points: 6
#     Node 24, Type 1, BuildingBlock: HISSIN_clean_sbu_0, # of connection points: 6
#     Node 25, Type 1, BuildingBlock: HISSIN_clean_sbu_0, # of connection points: 6
#     Node 26, Type 1, BuildingBlock: HISSIN_clean_sbu_0, # of connection points: 6
#     Edge 27, Type (0, 1), BuildingBlock: TEMPAE_clean_linker_10, # of connection points: 2
#     Edge 28, Type (0, 1), BuildingBlock: TEMPAE_clean_linker_10, # of connection points: 2
#     Edge 29, Type (0, 1), BuildingBlock: TEMPAE_clean_linker_10, # of connection points: 2
#     Edge 30, Type (0, 1), BuildingBlock: TEMPAE_clean_linker_10, # of connection points: 2
#     Edge 31, Type (0, 1), BuildingBlock: TEMPAE_clean_linker_10, # of connection points: 2
#     Edge 32, Type (0, 1), BuildingBlock: TEMPAE_clean_linker_10, # of connection points: 2
#     Edge 33, Type (0, 1), BuildingBlock: TEMPAE_clean_linker_10, # of connection points: 2
#     Edge 34, Type (0, 1), BuildingBlock: TEMPAE_clean_linker_10, # of connection points: 2
#     Edge 35, Type (0, 1), BuildingBlock: TEMPAE_clean_linker_10, # of connection points: 2
#     Edge 36, Type (0, 1), BuildingBlock: TEMPAE_clean_linker_10, # of connection points: 2
#     Edge 37, Type (0, 1), BuildingBlock: TEMPAE_clean_linker_10, # of connection points: 2
#     Edge 38, Type (0, 1), BuildingBlock: TEMPAE_clean_linker_10, # of connection points: 2
#     Edge 39, Type (0, 1), BuildingBlock: TEMPAE_clean_linker_10, # of connection points: 2
#     Edge 40, Type (0, 1), BuildingBlock: TEMPAE_clean_linker_10, # of connection points: 2
#     Edge 41, Type (0, 1), BuildingBlock: TEMPAE_clean_linker_10, # of connection points: 2
#     Edge 42, Type (0, 1), BuildingBlock: TEMPAE_clean_linker_10, # of connection points: 2
#     Edge 43, Type (0, 1), BuildingBlock: TEMPAE_clean_linker_10, # of connection points: 2
#     Edge 44, Type (0, 1), BuildingBlock: TEMPAE_clean_linker_10, # of connection points: 2
#     Edge 45, Type (0, 1), BuildingBlock: TEMPAE_clean_linker_10, # of connection points: 2
#     Edge 46, Type (0, 1), BuildingBlock: TEMPAE_clean_linker_10, # of connection points: 2
#     Edge 47, Type (0, 1), BuildingBlock: TEMPAE_clean_linker_10, # of connection points: 2
#     Edge 48, Type (0, 1), BuildingBlock: TEMPAE_clean_linker_10, # of connection points: 2
#     Edge 49, Type (0, 1), BuildingBlock: TEMPAE_clean_linker_10, # of connection points: 2
#     Edge 50, Type (0, 1), BuildingBlock: TEMPAE_clean_linker_10, # of connection points: 2
#     Edge 51, Type (0, 1), BuildingBlock: TEMPAE_clean_linker_10, # of connection points: 2
#     Edge 52, Type (0, 1), BuildingBlock: TEMPAE_clean_linker_10, # of connection points: 2
#     Edge 53, Type (0, 1), BuildingBlock: TEMPAE_clean_linker_10, # of connection points: 2
#     Edge 54, Type (0, 1), BuildingBlock: TEMPAE_clean_linker_10, # of connection points: 2
#     Edge 55, Type (0, 1), BuildingBlock: TEMPAE_clean_linker_10, # of connection points: 2
#     Edge 56, Type (0, 1), BuildingBlock: TEMPAE_clean_linker_10, # of connection points: 2
#     Edge 57, Type (0, 1), BuildingBlock: TEMPAE_clean_linker_10, # of connection points: 2
#     Edge 58, Type (0, 1), BuildingBlock: TEMPAE_clean_linker_10, # of connection points: 2
#     Edge 59, Type (0, 1), BuildingBlock: TEMPAE_clean_linker_10, # of connection points: 2
#     Edge 60, Type (0, 1), BuildingBlock: TEMPAE_clean_linker_10, # of connection points: 2
#     Edge 61, Type (0, 1), BuildingBlock: TEMPAE_clean_linker_10, # of connection points: 2
#     Edge 62, Type (0, 1), BuildingBlock: TEMPAE_clean_linker_10, # of connection points: 2
#     Edge 63, Type (0, 1), BuildingBlock: TEMPAE_clean_linker_10, # of connection points: 2
#     Edge 64, Type (0, 1), BuildingBlock: TEMPAE_clean_linker_10, # of connection points: 2
#     Edge 65, Type (0, 1), BuildingBlock: TEMPAE_clean_linker_10, # of connection points: 2
#     Edge 66, Type (0, 1), BuildingBlock: TEMPAE_clean_linker_10, # of connection points: 2
#     Edge 67, Type (0, 1), BuildingBlock: TEMPAE_clean_linker_10, # of connection points: 2
#     Edge 68, Type (0, 1), BuildingBlock: TEMPAE_clean_linker_10, # of connection points: 2
#     Edge 69, Type (0, 1), BuildingBlock: TEMPAE_clean_linker_10, # of connection points: 2
#     Edge 70, Type (0, 1), BuildingBlock: TEMPAE_clean_linker_10, # of connection points: 2
#     Edge 71, Type (0, 1), BuildingBlock: TEMPAE_clean_linker_10, # of connection points: 2
#     Edge 72, Type (0, 1), BuildingBlock: TEMPAE_clean_linker_10, # of connection points: 2
#     Edge 73, Type (0, 1), BuildingBlock: TEMPAE_clean_linker_10, # of connection points: 2
#     Edge 74, Type (0, 1), BuildingBlock: TEMPAE_clean_linker_10, # of connection points: 2
#     Edge 75, Type (0, 1), BuildingBlock: TEMPAE_clean_linker_10, # of connection points: 2
#     Edge 76, Type (0, 1), BuildingBlock: TEMPAE_clean_linker_10, # of connection points: 2
#     Edge 77, Type (0, 1), BuildingBlock: TEMPAE_clean_linker_10, # of connection points: 2
#     Edge 78, Type (0, 1), BuildingBlock: TEMPAE_clean_linker_10, # of connection points: 2
#     Edge 79, Type (0, 1), BuildingBlock: TEMPAE_clean_linker_10, # of connection points: 2
#     Edge 80, Type (0, 1), BuildingBlock: TEMPAE_clean_linker_10, # of connection points: 2
# Relax obj value: 0.106
# Max RMSD: 0.247
# Mean RMSD: 0.180
data_MOF--net-eea--node1-HISSIN_clean_sbu_0--node2-CUQRIR_clean_linker_1--edge1-TEMPAE_clean_linker_10
_symmetry_space_group_name_H-M    P1
_symmetry_Int_Tables_number       1
_symmetry_cell_setting            triclinic
loop_
_symmetry_equiv_pos_as_xyz
'x, y, z'
_cell_length_a     49.798491
_cell_length_b     51.548988
_cell_length_c     67.029496
_cell_angle_alpha  87.006059
_cell_angle_beta   93.538439
_cell_angle_gamma 119.02361
loop_
_atom_site_label
_atom_site_type_symbol
_atom_site_fract_x
_atom_site_fract_y
_atom_site_fract_z
_atom_type_partial_charge
C0 C 0.21366 0.10852 0.40425 0.0
N1 N 0.22684 0.13179 0.41667 0.0
N2 N 0.22271 0.08823 0.40975 0.0
C3 C 0.1932 0.10627 0.38622 0.0
C4 C 0.24183 0.09992 0.42594 0.0
N5 N 0.24466 0.12663 0.43003 0.0
C6 C 0.25551 0.08399 0.4387 0.0
H7 H 0.16938 0.09763 0.39107 0.0
H8 H 0.19318 0.09095 0.37519 0.0
H9 H 0.20068 0.12845 0.379 0.0
H10 H 0.27937 0.09181 0.43422 0.0
H11 H 0.24217 0.05964 0.43676 0.0
H12 H 0.25627 0.08878 0.45474 0.0
C13 C 0.9093 0.12265 0.41081 0.0
N14 N 0.92302 0.14616 0.42312 0.0
N15 N 0.88002 0.10416 0.41593 0.0
C16 C 0.92372 0.1186 0.39299 0.0
C17 C 0.87622 0.1172 0.4317 0.0
N18 N 0.90216 0.14291 0.43598 0.0
C19 C 0.8478 0.10382 0.44377 0.0
H20 H 0.93849 0.1403 0.38552 0.0
H21 H 0.90599 0.10369 0.38203 0.0
H22 H 0.93834 0.10856 0.3981 0.0
H23 H 0.83339 0.07971 0.44121 0.0
H24 H 0.83406 0.11504 0.43936 0.0
H25 H 0.85406 0.10725 0.45996 0.0
C26 C 0.88031 0.76252 0.4056 0.0
N27 N 0.89572 0.7518 0.41755 0.0
N28 N 0.85276 0.75484 0.41305 0.0
C29 C 0.89183 0.77983 0.38633 0.0
C30 C 0.85182 0.73883 0.4299 0.0
N31 N 0.87786 0.73667 0.43251 0.0
C32 C 0.82686 0.72771 0.44477 0.0
H33 H 0.90639 0.80368 0.38966 0.0
H34 H 0.87242 0.77733 0.37605 0.0
H35 H 0.90606 0.77237 0.37883 0.0
H36 H 0.81004 0.70426 0.44158 0.0
H37 H 0.8146 0.74089 0.44373 0.0
H38 H 0.83637 0.72853 0.46026 0.0
C39 C 0.11261 0.23733 0.63095 0.0
N40 N 0.13422 0.24792 0.61709 0.0
N41 N 0.09078 0.2452 0.62602 0.0
C42 C 0.1136 0.22043 0.64974 0.0
C43 C 0.09997 0.26105 0.60865 0.0
N44 N 0.12675 0.26305 0.60334 0.0
C45 C 0.08119 0.27182 0.59593 0.0
H46 H 0.10302 0.19653 0.64637 0.0
H47 H 0.1007 0.22307 0.66168 0.0
H48 H 0.13768 0.22803 0.65522 0.0
H49 H 0.08827 0.29497 0.59985 0.0
H50 H 0.05632 0.25793 0.59857 0.0
H51 H 0.0849 0.27151 0.57981 0.0
C52 C 0.78623 0.89282 0.63393 0.0
N53 N 0.77901 0.87231 0.61984 0.0
N54 N 0.78729 0.91775 0.62559 0.0
C55 C 0.79409 0.88917 0.65556 0.0
C56 C 0.78059 0.91173 0.60593 0.0
N57 N 0.77605 0.88427 0.6024 0.0
C58 C 0.77632 0.93181 0.59045 0.0
H59 H 0.77248 0.87691 0.66368 0.0
H60 H 0.80845 0.911 0.66256 0.0
H61 H 0.80645 0.87608 0.65709 0.0
H62 H 0.77036 0.94731 0.59742 0.0
H63 H 0.75799 0.91871 0.57916 0.0
H64 H 0.79808 0.94498 0.58261 0.0
C65 C 0.10782 0.9071 0.62977 0.0
N66 N 0.09481 0.88291 0.61806 0.0
N67 N 0.13615 0.92711 0.62353 0.0
C68 C 0.09373 0.91031 0.64805 0.0
C69 C 0.13984 0.91415 0.60761 0.0
N70 N 0.115 0.8872 0.60446 0.0
C71 C 0.1667 0.9288 0.59416 0.0
H72 H 0.07865 0.92004 0.64349 0.0
H73 H 0.11169 0.92515 0.65893 0.0
H74 H 0.07947 0.88836 0.65539 0.0
H75 H 0.18391 0.92176 0.59914 0.0
H76 H 0.17779 0.95333 0.59473 0.0
H77 H 0.15934 0.92205 0.57845 0.0
C78 C 0.89018 0.44408 0.73391 0.0
N79 N 0.89884 0.46546 0.74757 0.0
N80 N 0.89042 0.41979 0.7424 0.0
C81 C 0.88101 0.44678 0.71241 0.0
C82 C 0.89918 0.42697 0.76173 0.0
N83 N 0.90391 0.45461 0.76494 0.0
C84 C 0.90298 0.40695 0.77751 0.0
H85 H 0.86653 0.45777 0.71135 0.0
H86 H 0.86846 0.4249 0.70526 0.0
H87 H 0.90202 0.46084 0.70402 0.0
H88 H 0.90629 0.3895 0.77092 0.0
H89 H 0.88196 0.39588 0.78631 0.0
H90 H 0.9228 0.42005 0.78788 0.0
C91 C 0.57433 0.45481 0.7464 0.0
N92 N 0.58849 0.4783 0.75873 0.0
N93 N 0.5451 0.43644 0.75174 0.0
C94 C 0.58821 0.45074 0.72831 0.0
C95 C 0.54181 0.44955 0.76767 0.0
N96 N 0.56796 0.47515 0.77184 0.0
C97 C 0.5136 0.43637 0.77993 0.0
H98 H 0.57015 0.43617 0.71737 0.0
H99 H 0.60256 0.44029 0.73308 0.0
H100 H 0.60312 0.47246 0.72091 0.0
H101 H 0.49927 0.41219 0.77763 0.0
H102 H 0.49968 0.44737 0.77542 0.0
H103 H 0.52009 0.44021 0.79608 0.0
C104 C 0.57916 0.14991 0.75368 0.0
N105 N 0.5939 0.13758 0.76473 0.0
N106 N 0.55799 0.15135 0.76453 0.0
C107 C 0.58353 0.15819 0.73179 0.0
C108 C 0.56054 0.13965 0.78262 0.0
N109 N 0.58273 0.13168 0.78286 0.0
C110 C 0.53896 0.13282 0.79926 0.0
H111 H 0.60724 0.16457 0.72769 0.0
H112 H 0.57886 0.17683 0.72786 0.0
H113 H 0.56711 0.13882 0.72289 0.0
H114 H 0.52661 0.14588 0.79738 0.0
H115 H 0.55182 0.13765 0.81392 0.0
H116 H 0.52192 0.10882 0.79926 0.0
C117 C 0.75295 0.52282 0.95084 0.0
N118 N 0.77651 0.536 0.93837 0.0
N119 N 0.7293 0.52718 0.94401 0.0
C120 C 0.75441 0.50866 0.9708 0.0
C121 C 0.73942 0.54372 0.92704 0.0
N122 N 0.76836 0.54944 0.92372 0.0
C123 C 0.7214 0.55535 0.91434 0.0
H124 H 0.76095 0.49126 0.96885 0.0
H125 H 0.73208 0.49846 0.97817 0.0
H126 H 0.77242 0.52569 0.98062 0.0
H127 H 0.72562 0.57672 0.92035 0.0
H128 H 0.6964 0.53965 0.91476 0.0
H129 H 0.72839 0.55906 0.89859 0.0
C130 C 0.44404 0.22725 0.96874 0.0
N131 N 0.43499 0.2058 0.95508 0.0
N132 N 0.43399 0.24673 0.96297 0.0
C133 C 0.46096 0.22811 0.9883 0.0
C134 C 0.41841 0.23632 0.94536 0.0
N135 N 0.41858 0.21114 0.94071 0.0
C136 C 0.40576 0.25237 0.93174 0.0
H137 H 0.45614 0.24006 0.99965 0.0
H138 H 0.48602 0.23986 0.98593 0.0
H139 H 0.45439 0.20531 0.99406 0.0
H140 H 0.41831 0.2766 0.93427 0.0
H141 H 0.3812 0.24382 0.9348 0.0
H142 H 0.40731 0.24859 0.9158 0.0
C143 C 0.76846 0.2449 0.95838 0.0
N144 N 0.75588 0.22051 0.94686 0.0
N145 N 0.79714 0.26457 0.95263 0.0
C146 C 0.75351 0.24874 0.97597 0.0
C147 C 0.8016 0.2513 0.93723 0.0
N148 N 0.77671 0.22439 0.93383 0.0
C149 C 0.82948 0.26564 0.92466 0.0
H150 H 0.73713 0.25656 0.97046 0.0
H151 H 0.77077 0.26529 0.98639 0.0
H152 H 0.74039 0.22725 0.98413 0.0
H153 H 0.84566 0.25751 0.93003 0.0
H154 H 0.84145 0.29015 0.92577 0.0
H155 H 0.82298 0.25974 0.90874 0.0
C156 C 0.54901 0.77895 0.06943 0.0
N157 N 0.56161 0.80261 0.0815 0.0
N158 N 0.55868 0.75929 0.07545 0.0
C159 C 0.52841 0.77567 0.05128 0.0
C160 C 0.57757 0.77175 0.0916 0.0
N161 N 0.57967 0.79833 0.09516 0.0
C162 C 0.59161 0.75665 0.1049 0.0
H163 H 0.50444 0.76631 0.05602 0.0
H164 H 0.52918 0.76048 0.04047 0.0
H165 H 0.53513 0.79758 0.04383 0.0
H166 H 0.61561 0.76475 0.10062 0.0
H167 H 0.57873 0.73222 0.1033 0.0
H168 H 0.59204 0.76187 0.1208 0.0
C169 C 0.23842 0.79055 0.07734 0.0
N170 N 0.25305 0.81348 0.09006 0.0
N171 N 0.20999 0.77101 0.08358 0.0
C172 C 0.25101 0.78826 0.05805 0.0
C173 C 0.20776 0.78294 0.10052 0.0
N174 N 0.23369 0.80886 0.10438 0.0
C175 C 0.18092 0.76842 0.11399 0.0
H176 H 0.23219 0.77493 0.04711 0.0
H177 H 0.26529 0.77727 0.06114 0.0
H178 H 0.2657 0.81061 0.05137 0.0
H179 H 0.18854 0.77355 0.12988 0.0
H180 H 0.16845 0.74399 0.11241 0.0
H181 H 0.16481 0.77713 0.10986 0.0
C182 C 0.21305 0.43195 0.0724 0.0
N183 N 0.22881 0.42094 0.08372 0.0
N184 N 0.18465 0.42165 0.07925 0.0
C185 C 0.22507 0.45241 0.05443 0.0
C186 C 0.18349 0.40387 0.09509 0.0
N187 N 0.21029 0.40305 0.09767 0.0
C188 C 0.15767 0.39016 0.10937 0.0
H189 H 0.23816 0.47564 0.05947 0.0
H190 H 0.20592 0.45045 0.0441 0.0
H191 H 0.24073 0.44743 0.0463 0.0
H192 H 0.14486 0.36581 0.10736 0.0
H193 H 0.14144 0.39908 0.10684 0.0
H194 H 0.16704 0.3942 0.12504 0.0
C195 C 0.42981 0.8739 0.28641 0.0
N196 N 0.4535 0.88748 0.27405 0.0
N197 N 0.40781 0.88133 0.28105 0.0
C198 C 0.42969 0.85588 0.30484 0.0
C199 C 0.41902 0.90018 0.2652 0.0
N200 N 0.44707 0.90423 0.26104 0.0
C201 C 0.40204 0.91399 0.25369 0.0
H202 H 0.42971 0.83548 0.30035 0.0
H203 H 0.40935 0.84949 0.31385 0.0
H204 H 0.45095 0.86874 0.31418 0.0
H205 H 0.40918 0.93608 0.25984 0.0
H206 H 0.37686 0.90011 0.25518 0.0
H207 H 0.40737 0.91691 0.23763 0.0
C208 C 0.11442 0.55891 0.30116 0.0
N209 N 0.10601 0.53759 0.28749 0.0
N210 N 0.10402 0.5781 0.29526 0.0
C211 C 0.13102 0.5599 0.32089 0.0
C212 C 0.08883 0.56757 0.27755 0.0
N213 N 0.08968 0.54273 0.27296 0.0
C214 C 0.07518 0.58278 0.26399 0.0
H215 H 0.12569 0.57161 0.33214 0.0
H216 H 0.15615 0.57194 0.31876 0.0
H217 H 0.12463 0.53714 0.32664 0.0
H218 H 0.08775 0.60713 0.26599 0.0
H219 H 0.05089 0.57428 0.26774 0.0
H220 H 0.07559 0.57816 0.24806 0.0
C221 C 0.43938 0.5776 0.29418 0.0
N222 N 0.42662 0.55316 0.28273 0.0
N223 N 0.46733 0.5979 0.28759 0.0
C224 C 0.42549 0.58079 0.31257 0.0
C225 C 0.47107 0.58489 0.27173 0.0
N226 N 0.44661 0.55759 0.26896 0.0
C227 C 0.49753 0.59979 0.25797 0.0
H228 H 0.40996 0.59005 0.30808 0.0
H229 H 0.44353 0.59604 0.32324 0.0
H230 H 0.41172 0.5589 0.32012 0.0
H231 H 0.51523 0.59333 0.2628 0.0
H232 H 0.50813 0.62431 0.25838 0.0
H233 H 0.48985 0.59272 0.24235 0.0
Eu234 Eu 0.49712 0.99221 0.99636 0.0
Eu235 Eu 0.51897 0.02825 0.03882 0.0
C236 C 0.48813 0.04897 1.00208 0.0
C237 C 0.49616 0.98265 0.94169 0.0
C238 C 0.50432 0.0126 0.93809 0.0
C239 C 0.51448 0.98155 0.90912 0.0
C240 C 0.51709 0.0268 0.92011 0.0
C241 C 0.50141 0.96722 0.92713 0.0
C242 C 0.52232 0.01146 0.90543 0.0
C243 C 0.48492 0.96857 0.96131 0.0
O244 O 0.47644 0.98528 0.04578 0.0
O245 O 0.45384 0.97194 0.01439 0.0
C246 C 0.45232 0.96952 0.03405 0.0
O247 O 0.50543 0.96198 0.018 0.0
O248 O 0.50902 0.04626 0.06433 0.0
O249 O 0.55415 0.05039 0.06236 0.0
O250 O 0.53797 0.99631 0.04067 0.0
C251 C 0.52567 0.96983 0.03303 0.0
O252 O 0.54764 0.02572 0.99384 0.0
O253 O 0.55347 0.05958 0.01694 0.0
O254 O 0.49044 0.04585 0.02161 0.0
O255 O 0.50593 0.96844 0.97387 0.0
O256 O 0.46684 0.97617 0.96971 0.0
O257 O 0.49541 0.0345 0.98992 0.0
C258 C 0.53225 0.03855 0.09374 0.0
C259 C 0.51617 0.0075 0.09577 0.0
C260 C 0.54066 0.04202 0.12977 0.0
C261 C 0.51176 0.99381 0.11467 0.0
C262 C 0.54483 0.05577 0.11078 0.0
C263 C 0.52361 0.01093 0.13186 0.0
C264 C 0.53507 0.0525 0.07379 0.0
C265 C 0.56299 0.05236 1.00137 0.0
H266 H 0.50122 0.0252 0.94931 0.0
H267 H 0.51821 0.96922 0.89801 0.0
H268 H 0.52335 0.04998 0.9178 0.0
H269 H 0.49574 0.94425 0.92979 0.0
H270 H 0.50661 0.99385 0.08274 0.0
H271 H 0.54987 0.05566 0.14283 0.0
H272 H 0.49883 0.96982 0.11588 0.0
H273 H 0.55739 0.07976 0.10941 0.0
Eu274 Eu 0.02003 0.52706 0.99398 0.0
Eu275 Eu 0.9875 0.51271 0.03813 0.0
C276 C 0.95736 0.46485 1.00299 0.0
C277 C 0.02936 0.53397 0.93818 0.0
C278 C -0.00123 0.52781 0.93464 0.0
C279 C 0.0336 0.53055 0.90266 0.0
C280 C 0.98573 0.52325 0.91522 0.0
C281 C 0.04671 0.53536 0.9221 0.0
C282 C 0.00297 0.52443 0.89903 0.0
C283 C 0.0431 0.5389 0.9586 0.0
O284 O 0.0158 0.48944 0.03872 0.0
O285 O 0.05078 0.51727 0.01509 0.0
C286 C 0.04195 0.49815 0.03019 0.0
O287 O 0.04142 0.57042 0.01022 0.0
O288 O 0.96326 0.48234 0.06265 0.0
O289 O 0.97749 0.52908 0.06461 0.0
O290 O 0.03506 0.55173 0.04226 0.0
C291 C 0.04874 0.57385 0.02942 0.0
O292 O 0.97606 0.52795 0.98812 0.0
O293 O 0.96714 0.53734 0.01949 0.0
O294 O 0.95245 0.47614 0.01864 0.0
O295 O 0.0395 0.55779 0.96878 0.0
O296 O 0.03819 0.51515 0.9692 0.0
O297 O 0.98318 0.4787 0.9934 0.0
C298 C 0.97944 0.50365 0.09453 0.0
C299 C 0.00294 0.49614 0.09826 0.0
C300 C 0.98119 0.51309 0.12985 0.0
C301 C 0.01534 0.49692 0.11769 0.0
C302 C 0.96865 0.51207 0.11046 0.0
C303 C 0.00472 0.50559 0.13369 0.0
C304 C 0.96651 0.50347 0.0741 0.0
C305 C 0.96237 0.53684 0.99994 0.0
H306 H 0.98493 0.52641 0.94692 0.0
H307 H 0.04746 0.53176 0.89045 0.0
H308 H 0.96197 0.51817 0.91292 0.0
H309 H 0.07034 0.5401 0.92458 0.0
H310 H 0.01185 0.48987 0.08614 0.0
H311 H 0.97234 0.51959 0.14189 0.0
H312 H 0.03366 0.49133 0.12013 0.0
H313 H 0.95059 0.518 0.10788 0.0
Eu314 Eu 0.50068 0.49354 0.04548 0.0
Eu315 Eu 0.48578 0.50751 0.99769 0.0
C316 C 0.50662 0.55691 0.03085 0.0
C317 C 0.49842 0.48779 0.10237 0.0
C318 C 0.48957 0.50969 0.1035 0.0
C319 C 0.48678 0.4744 0.13732 0.0
C320 C 0.4796 0.51407 0.1215 0.0
C321 C 0.49689 0.47017 0.11936 0.0
C322 C 0.47802 0.49641 0.13863 0.0
C323 C 0.50748 0.48186 0.08333 0.0
O324 O 0.5369 0.52668 1.00305 0.0
O325 O 0.53908 0.49596 0.02834 0.0
C326 C 0.55118 0.51396 0.01296 0.0
O327 O 0.47592 0.44974 0.02989 0.0
O328 O 0.49727 0.53823 0.9718 0.0
O329 O 0.46167 0.49259 0.96869 0.0
O330 O 0.49079 0.46658 0.99803 0.0
C331 C 0.48002 0.44504 0.01153 0.0
O332 O 0.45828 0.49776 0.04445 0.0
O333 O 0.43973 0.4827 0.0126 0.0
O334 O 0.48832 0.54483 0.0151 0.0
O335 O 0.48484 0.4639 0.07162 0.0
O336 O 0.52833 0.50461 0.07352 0.0
O337 O 0.51859 0.54295 0.04198 0.0
C338 C 0.49329 0.51602 0.94078 0.0
C339 C 0.49783 0.49181 0.93713 0.0
C340 C 0.51545 0.53823 0.90869 0.0
C341 C 0.51066 0.49067 0.91933 0.0
C342 C 0.50242 0.53926 0.92641 0.0
C343 C 0.51955 0.51382 0.9048 0.0
C344 C 0.47935 0.51758 0.95939 0.0
C345 C 0.43527 0.48493 0.03149 0.0
H346 H 0.49013 0.52323 0.09044 0.0
H347 H 0.48619 0.46068 0.15026 0.0
H348 H 0.47273 0.53099 0.12194 0.0
H349 H 0.50337 0.45298 0.11872 0.0
H350 H 0.4914 0.47369 0.948 0.0
H351 H 0.5217 0.55631 0.89781 0.0
H352 H 0.51381 0.4717 0.917 0.0
H353 H 0.49928 0.55821 0.92886 0.0
Eu354 Eu 0.16772 0.3236 0.32998 0.0
Eu355 Eu 0.18884 0.35991 0.37249 0.0
C356 C 0.159 0.38062 0.33503 0.0
C357 C 0.16558 0.30964 0.27509 0.0
C358 C 0.17439 0.33921 0.2694 0.0
C359 C 0.17917 0.3021 0.24249 0.0
C360 C 0.18501 0.34999 0.25029 0.0
C361 C 0.16826 0.29124 0.26157 0.0
C362 C 0.18741 0.33152 0.2366 0.0
C363 C 0.15516 0.29836 0.29538 0.0
O364 O 0.14637 0.31701 0.37931 0.0
O365 O 0.12422 0.30385 0.34779 0.0
C366 C 0.12241 0.30143 0.36744 0.0
O367 O 0.17572 0.29359 0.35207 0.0
O368 O 0.17831 0.37867 0.3973 0.0
O369 O 0.22329 0.38205 0.39644 0.0
O370 O 0.20759 0.32775 0.37507 0.0
C371 C 0.19552 0.30133 0.36736 0.0
O372 O 0.21829 0.35699 0.3277 0.0
O373 O 0.22397 0.39076 0.35088 0.0
O374 O 0.16068 0.37734 0.35458 0.0
O375 O 0.17623 0.29877 0.30812 0.0
O376 O 0.13791 0.30756 0.30313 0.0
O377 O 0.16645 0.36605 0.32305 0.0
C378 C 0.20081 0.37244 0.42761 0.0
C379 C 0.18204 0.34184 0.43094 0.0
C380 C 0.21205 0.37859 0.46334 0.0
C381 C 0.17778 0.32978 0.45034 0.0
C382 C 0.21607 0.39072 0.44387 0.0
C383 C 0.1925 0.34807 0.46675 0.0
C384 C 0.20407 0.38504 0.4072 0.0
C385 C 0.23371 0.38348 0.33546 0.0
H386 H 0.1731 0.354 0.27975 0.0
H387 H 0.18057 0.28732 0.23219 0.0
H388 H 0.19152 0.37284 0.24624 0.0
H389 H 0.16192 0.26847 0.26578 0.0
H390 H 0.17038 0.32733 0.41852 0.0
H391 H 0.22349 0.39317 0.47575 0.0
H392 H 0.16288 0.30615 0.45254 0.0
H393 H 0.23075 0.41435 0.44152 0.0
Eu394 Eu 0.68769 0.86098 0.32696 0.0
Eu395 Eu 0.65703 0.84587 0.3716 0.0
C396 C 0.62677 0.79946 0.33572 0.0
C397 C 0.69522 0.86963 0.2708 0.0
C398 C 0.66367 0.8506 0.26726 0.0
C399 C 0.70043 0.88267 0.23538 0.0
C400 C 0.65071 0.84717 0.24785 0.0
C401 C 0.71344 0.88591 0.25481 0.0
C402 C 0.66902 0.86294 0.23168 0.0
C403 C 0.70918 0.87244 0.29108 0.0
O404 O 0.70108 0.84405 0.3756 0.0
O405 O 0.70438 0.83227 0.34372 0.0
C406 C 0.71154 0.83296 0.36291 0.0
O407 O 0.7235 0.89577 0.34723 0.0
O408 O 0.63912 0.81446 0.39671 0.0
O409 O 0.64038 0.85701 0.39753 0.0
O410 O 0.69201 0.89456 0.37135 0.0
C411 C 0.71832 0.90771 0.36239 0.0
O412 O 0.65808 0.88259 0.32728 0.0
O413 O 0.62397 0.8535 0.35095 0.0
O414 O 0.63441 0.80299 0.3549 0.0
O415 O 0.70867 0.89231 0.30207 0.0
O416 O 0.70181 0.84759 0.301 0.0
O417 O 0.64058 0.82124 0.32262 0.0
C418 C 0.65024 0.83662 0.42809 0.0
C419 C 0.67387 0.86417 0.43468 0.0
C420 C 0.65506 0.81389 0.45989 0.0
C421 C 0.68782 0.86654 0.45376 0.0
C422 C 0.64089 0.81158 0.44091 0.0
C423 C 0.67869 0.84138 0.46652 0.0
C424 C 0.63623 0.83306 0.40765 0.0
C425 C 0.63131 0.87181 0.33535 0.0
H426 H 0.64915 0.83812 0.27948 0.0
H427 H 0.7151 0.89493 0.22318 0.0
H428 H 0.62638 0.83207 0.24545 0.0
H429 H 0.7378 0.90082 0.25732 0.0
H430 H 0.68186 0.8838 0.42504 0.0
H431 H 0.64737 0.7942 0.46947 0.0
H432 H 0.70617 0.88797 0.45842 0.0
H433 H 0.62281 0.79009 0.43612 0.0
Eu434 Eu 0.16776 0.82441 0.37877 0.0
Eu435 Eu 0.15078 0.83674 0.33094 0.0
C436 C 0.17033 0.88643 0.36384 0.0
C437 C 0.16574 0.81945 0.43603 0.0
C438 C 0.18756 0.83908 0.44986 0.0
C439 C 0.12559 0.80879 0.45931 0.0
C440 C 0.17854 0.8436 0.46818 0.0
C441 C 0.13462 0.80428 0.441 0.0
C442 C 0.14742 0.8285 0.47316 0.0
C443 C 0.17574 0.81448 0.4168 0.0
O444 O 0.20216 0.85819 0.33562 0.0
O445 O 0.20745 0.82981 0.36154 0.0
C446 C 0.21822 0.84757 0.34584 0.0
O447 O 0.14475 0.7803 0.36343 0.0
O448 O 0.15922 0.86647 0.30483 0.0
O449 O 0.12645 0.81983 0.30214 0.0
O450 O 0.15866 0.79743 0.3315 0.0
C451 C 0.14878 0.77585 0.34499 0.0
O452 O 0.12388 0.826 0.37806 0.0
O453 O 0.10527 0.81063 0.34625 0.0
O454 O 0.15209 0.87377 0.34816 0.0
O455 O 0.15453 0.7949 0.40504 0.0
O456 O 0.19543 0.83785 0.40686 0.0
O457 O 0.1833 0.87334 0.37491 0.0
C458 C 0.15597 0.84439 0.27374 0.0
C459 C 0.13696 0.83225 0.25663 0.0
C460 C 0.20042 0.85507 0.2544 0.0
C461 C 0.14946 0.83148 0.23861 0.0
C462 C 0.18785 0.85573 0.27246 0.0
C463 C 0.18139 0.84289 0.2372 0.0
C464 C 0.14217 0.84512 0.29263 0.0
C465 C 0.10087 0.81266 0.36517 0.0
H466 H 0.2117 0.85084 0.44655 0.0
H467 H 0.10142 0.79702 0.46253 0.0
H468 H 0.19605 0.85861 0.47859 0.0
H469 H 0.11714 0.7888 0.4308 0.0
H470 H 0.11235 0.82342 0.25717 0.0
H471 H 0.22502 0.86374 0.25402 0.0
H472 H 0.13407 0.82228 0.22567 0.0
H473 H 0.20309 0.8651 0.28541 0.0
Eu474 Eu 0.8325 0.65468 0.66455 0.0
Eu475 Eu 0.8562 0.69048 0.70715 0.0
C476 C 0.82498 0.71265 0.67089 0.0
C477 C 0.83026 0.63904 0.6097 0.0
C478 C 0.80907 0.62983 0.59336 0.0
C479 C 0.87124 0.66878 0.58699 0.0
C480 C 0.81878 0.64019 0.57401 0.0
C481 C 0.86147 0.65858 0.60636 0.0
C482 C 0.84994 0.65988 0.57063 0.0
C483 C 0.81943 0.62893 0.6301 0.0
O484 O 0.81229 0.64855 0.71392 0.0
O485 O 0.78936 0.63504 0.6826 0.0
C486 C 0.78796 0.63304 0.70226 0.0
O487 O 0.83851 0.62397 0.68709 0.0
O488 O 0.84762 0.70808 0.73345 0.0
O489 O 0.89178 0.71032 0.73082 0.0
O490 O 0.87611 0.65945 0.70658 0.0
C491 C 0.86111 0.63204 0.70055 0.0
O492 O 0.88299 0.68864 0.66142 0.0
O493 O 0.89028 0.72204 0.68535 0.0
O494 O 0.83146 0.71226 0.69021 0.0
O495 O 0.83938 0.62809 0.64333 0.0
O496 O 0.80329 0.63982 0.63725 0.0
O497 O 0.82762 0.69533 0.65841 0.0
C498 C 0.86955 0.69688 0.76208 0.0
C499 C 0.855 0.66576 0.76266 0.0
C500 C 0.87309 0.69671 0.79835 0.0
C501 C 0.84891 0.65019 0.78092 0.0
C502 C 0.87897 0.71234 0.77998 0.0
C503 C 0.85746 0.66548 0.79894 0.0
C504 C 0.87328 0.71257 0.74271 0.0
C505 C 0.89905 0.71499 0.66937 0.0
H506 H 0.78493 0.61483 0.5956 0.0
H507 H 0.89531 0.68418 0.58487 0.0
H508 H 0.8019 0.63276 0.56166 0.0
H509 H 0.87828 0.66624 0.61874 0.0
H510 H 0.84774 0.65348 0.74895 0.0
H511 H 0.87972 0.70897 0.81206 0.0
H512 H 0.83711 0.62616 0.78097 0.0
H513 H 0.89021 0.73636 0.77976 0.0
Eu514 Eu 0.35491 0.19175 0.66197 0.0
Eu515 Eu 0.32171 0.17774 0.70583 0.0
C516 C 0.29524 0.1296 0.67122 0.0
C517 C 0.36326 0.19661 0.60594 0.0
C518 C 0.33189 0.1769 0.60231 0.0
C519 C 0.3685 0.20915 0.57042 0.0
C520 C 0.31903 0.17298 0.58284 0.0
C521 C 0.38142 0.21289 0.58992 0.0
C522 C 0.33723 0.18892 0.56666 0.0
C523 C 0.37699 0.20054 0.62638 0.0
O524 O 0.36752 0.1806 0.71227 0.0
O525 O 0.3762 0.16907 0.68159 0.0
C526 C 0.38214 0.17207 0.70096 0.0
O527 O 0.38833 0.22986 0.68112 0.0
O528 O 0.30221 0.14611 0.73063 0.0
O529 O 0.30325 0.18858 0.73096 0.0
O530 O 0.35664 0.22659 0.70597 0.0
C531 C 0.38255 0.24096 0.69653 0.0
O532 O 0.32439 0.21255 0.65989 0.0
O533 O 0.29002 0.1857 0.68412 0.0
O534 O 0.30291 0.13407 0.69031 0.0
O535 O 0.37671 0.22135 0.63647 0.0
O536 O 0.36925 0.17629 0.63715 0.0
O537 O 0.30836 0.15117 0.65792 0.0
C538 C 0.31142 0.16811 0.76176 0.0
C539 C 0.34178 0.18998 0.76623 0.0
C540 C 0.30722 0.14965 0.79616 0.0
C541 C 0.35469 0.1918 0.7856 0.0
C542 C 0.29426 0.148 0.77683 0.0
C543 C 0.33759 0.17154 0.80075 0.0
C544 C 0.29832 0.16448 0.74116 0.0
C545 C 0.29792 0.20321 0.66811 0.0
H546 H 0.31737 0.16441 0.61453 0.0
H547 H 0.38313 0.22157 0.55824 0.0
H548 H 0.2948 0.15751 0.58044 0.0
H549 H 0.40563 0.22834 0.59247 0.0
H550 H 0.35563 0.20538 0.75469 0.0
H551 H 0.29338 0.13395 0.80756 0.0
H552 H 0.37823 0.20871 0.78864 0.0
H553 H 0.27092 0.13077 0.77359 0.0
Eu554 Eu 0.8314 0.15685 0.70994 0.0
Eu555 Eu 0.81673 0.16944 0.66184 0.0
C556 C 0.83341 0.21752 0.69548 0.0
C557 C 0.82573 0.15181 0.76681 0.0
C558 C 0.81527 0.17261 0.76758 0.0
C559 C 0.81354 0.13836 0.80175 0.0
C560 C 0.80454 0.17661 0.7854 0.0
C561 C 0.82446 0.13452 0.78396 0.0
C562 C 0.80379 0.15971 0.80278 0.0
C563 C 0.83832 0.14819 0.74837 0.0
O564 O 0.86212 0.17043 0.66336 0.0
O565 O 0.87766 0.18277 0.69612 0.0
C566 C 0.88375 0.1814 0.6775 0.0
O567 O 0.83427 0.12197 0.6928 0.0
O568 O 0.82923 0.20002 0.63597 0.0
O569 O 0.79177 0.15522 0.63294 0.0
O570 O 0.80259 0.12085 0.66598 0.0
C571 C 0.8166 0.10878 0.67705 0.0
O572 O 0.78069 0.13181 0.70283 0.0
O573 O 0.77584 0.16258 0.67879 0.0
O574 O 0.83875 0.21325 0.67734 0.0
O575 O 0.81915 0.12735 0.73648 0.0
O576 O 0.85634 0.17247 0.73853 0.0
O577 O 0.82283 0.19583 0.7089 0.0
C578 C 0.82312 0.17808 0.60473 0.0
C579 C 0.82745 0.15385 0.60081 0.0
C580 C 0.84543 0.20091 0.57283 0.0
C581 C 0.8404 0.15307 0.58297 0.0
C582 C 0.83231 0.20157 0.59057 0.0
C583 C 0.8496 0.17662 0.56872 0.0
C584 C 0.81013 0.17995 0.62363 0.0
C585 C 0.76456 0.14304 0.6936 0.0
H586 H 0.81569 0.18599 0.75447 0.0
H587 H 0.81356 0.12518 0.81487 0.0
H588 H 0.79686 0.19298 0.78559 0.0
H589 H 0.83232 0.11829 0.78368 0.0
H590 H 0.82098 0.13558 0.61157 0.0
H591 H 0.85188 0.21926 0.56215 0.0
H592 H 0.84355 0.13416 0.58042 0.0
H593 H 0.82935 0.22056 0.59327 0.0
C594 C 0.30833 0.83361 0.08553 0.0
C595 C 0.28335 0.83855 0.08756 0.0
C596 C 0.33623 0.85597 0.07809 0.0
C597 C 0.33941 0.88422 0.07258 0.0
C598 C 0.3148 0.88988 0.0758 0.0
C599 C 0.28703 0.86693 0.08322 0.0
C600 C 0.36168 0.84878 0.07508 0.0
C601 C 0.31722 0.91969 0.07041 0.0
C602 C 0.42094 0.94734 0.06456 0.0
C603 C 0.42293 0.94819 0.04364 0.0
C604 C 0.39384 0.92721 0.0741 0.0
C605 C 0.36784 0.90712 0.06256 0.0
C606 C 0.36953 0.90802 0.04145 0.0
C607 C 0.39693 0.92853 0.03226 0.0
C608 C 0.3932 0.92721 0.09659 0.0
C609 C 0.34248 0.88693 0.02854 0.0
H610 H 0.30533 0.81156 0.08879 0.0
H611 H 0.26755 0.87061 0.0845 0.0
H612 H 0.36535 0.8494 0.05886 0.0
H613 H 0.38356 0.86563 0.0822 0.0
H614 H 0.35641 0.82652 0.08135 0.0
H615 H 0.29748 0.92154 0.07564 0.0
H616 H 0.33883 0.93775 0.07697 0.0
H617 H 0.31795 0.92317 0.05393 0.0
H618 H 0.44069 0.96241 0.07362 0.0
H619 H 0.39806 0.9289 0.01615 0.0
H620 H 0.3894 0.90547 0.10301 0.0
H621 H 0.3738 0.93027 0.10092 0.0
H622 H 0.41489 0.94495 0.10338 0.0
H623 H 0.3367 0.8637 0.03259 0.0
H624 H 0.34709 0.89085 0.01235 0.0
H625 H 0.322 0.88925 0.03124 0.0
C626 C 0.17083 0.46117 0.0758 0.0
C627 C 0.16304 0.43159 0.07322 0.0
C628 C 0.15039 0.4716 0.06951 0.0
C629 C 0.12175 0.4519 0.06022 0.0
C630 C 0.11371 0.42182 0.0578 0.0
C631 C 0.13453 0.41195 0.0645 0.0
C632 C 0.15956 0.50371 0.07258 0.0
C633 C 0.08351 0.40031 0.04777 0.0
C634 C 0.05874 0.47323 0.05712 0.0
C635 C 0.06207 0.48599 0.03782 0.0
C636 C 0.07803 0.46199 0.06465 0.0
C637 C 0.10074 0.46311 0.05242 0.0
C638 C 0.10392 0.47557 0.03283 0.0
C639 C 0.08468 0.48711 0.02581 0.0
C640 C 0.0744 0.44932 0.08576 0.0
C641 C 0.12769 0.4768 0.01929 0.0
H642 H 0.193 0.47603 0.08273 0.0
H643 H 0.12893 0.38909 0.06262 0.0
H644 H 0.16114 0.51521 0.05789 0.0
H645 H 0.1418 0.50519 0.08091 0.0
H646 H 0.18203 0.51567 0.08092 0.0
H647 H 0.08054 0.37753 0.04747 0.0
H648 H 0.06412 0.3994 0.05564 0.0
H649 H 0.08212 0.40806 0.03217 0.0
H650 H 0.04137 0.47244 0.06648 0.0
H651 H 0.08716 0.49674 0.01082 0.0
H652 H 0.09617 0.46182 0.09469 0.0
H653 H 0.06947 0.4259 0.08567 0.0
H654 H 0.05563 0.45019 0.09333 0.0
H655 H 0.15107 0.49047 0.02607 0.0
H656 H 0.12646 0.48631 1.00422 0.0
H657 H 0.12451 0.45417 0.01757 0.0
C658 C 0.51979 0.70842 0.06708 0.0
C659 C 0.5503 0.73114 0.0671 0.0
C660 C 0.51173 0.68006 0.06046 0.0
C661 C 0.53479 0.67463 0.05347 0.0
C662 C 0.56555 0.69794 0.05292 0.0
C663 C 0.57296 0.72591 0.05991 0.0
C664 C 0.4788 0.65571 0.06155 0.0
C665 C 0.59071 0.69318 0.04532 0.0
C666 C 0.52333 0.59617 0.05625 0.0
C667 C 0.51358 0.58696 0.03655 0.0
C668 C 0.52985 0.62449 0.062 0.0
C669 C 0.52708 0.64427 0.04762 0.0
C670 C 0.51737 0.63515 0.02769 0.0
C671 C 0.51044 0.60647 0.02243 0.0
C672 C 0.53965 0.63321 0.08348 0.0
C673 C 0.51463 0.65581 0.01189 0.0
H674 H 0.5025 0.71271 0.07285 0.0
H675 H 0.59651 0.74375 0.05998 0.0
H676 H 0.47003 0.64573 0.04669 0.0
H677 H 0.47752 0.6378 0.07204 0.0
H678 H 0.46348 0.66387 0.06667 0.0
H679 H 0.61298 0.71408 0.04468 0.0
H680 H 0.59395 0.67691 0.05524 0.0
H681 H 0.58415 0.6838 0.03016 0.0
H682 H 0.52549 0.58108 0.06729 0.0
H683 H 0.50306 0.59951 1.00717 0.0
H684 H 0.52398 0.63991 0.08988 0.0
H685 H 0.56309 0.65262 0.08422 0.0
H686 H 0.53971 0.61488 0.09295 0.0
H687 H 0.49817 0.6629 0.0164 0.0
H688 H 0.5068 0.64534 0.99706 0.0
H689 H 0.53721 0.67612 0.01036 0.0
C690 C 0.81212 0.31636 0.96013 0.0
C691 C 0.81863 0.29277 0.96111 0.0
C692 C 0.83392 0.34459 0.96703 0.0
C693 C 0.86272 0.34915 0.97542 0.0
C694 C 0.86897 0.32504 0.97684 0.0
C695 C 0.84696 0.29724 0.9695 0.0
C696 C 0.82644 0.36971 0.96492 0.0
C697 C 0.89904 0.32865 0.98595 0.0
C698 C 0.93222 0.42694 0.97619 0.0
C699 C 0.93286 0.43547 0.99584 0.0
C700 C 0.90922 0.39924 0.96926 0.0
C701 C 0.88655 0.3792 0.98237 0.0
C702 C 0.88711 0.38767 1.00223 0.0
C703 C 0.91001 0.41575 0.00865 0.0
C704 C 0.90921 0.3914 0.94786 0.0
C705 C 0.86377 0.36685 0.01683 0.0
H706 H 0.79025 0.3128 0.95345 0.0
H707 H 0.85182 0.27887 0.97021 0.0
H708 H 0.8283 0.3792 0.97974 0.0
H709 H 0.8433 0.38775 0.95531 0.0
H710 H 0.80296 0.36248 0.95828 0.0
H711 H 0.89978 0.30742 0.98678 0.0
H712 H 0.91833 0.34504 0.97697 0.0
H713 H 0.90285 0.33736 1.00126 0.0
H714 H 0.94957 0.44209 0.9661 0.0
H715 H 0.91036 0.42203 0.02389 0.0
H716 H 0.88668 0.38562 0.9402 0.0
H717 H 0.91245 0.37161 0.9475 0.0
H718 H 0.92762 0.40985 0.93933 0.0
H719 H 0.8402 0.36071 0.01091 0.0
H720 H 0.86724 0.37676 0.03173 0.0
H721 H 0.86523 0.34605 0.01873 0.0
C722 C 0.67425 0.50405 0.94979 0.0
C723 C 0.70455 0.52423 0.95535 0.0
C724 C 0.64985 0.50204 0.96034 0.0
C725 C 0.65628 0.52076 0.97673 0.0
C726 C 0.68705 0.5408 0.98258 0.0
C727 C 0.71089 0.54231 0.97173 0.0
C728 C 0.61727 0.48043 0.95371 0.0
C729 C 0.69473 0.56112 0.99993 0.0
C730 C 0.59349 0.5377 0.98911 0.0
C731 C 0.58006 0.51791 1.00523 0.0
C732 C 0.61871 0.53921 0.97994 0.0
C733 C 0.63076 0.52049 0.98708 0.0
C734 C 0.61801 0.50115 1.00374 0.0
C735 C 0.59278 0.50012 0.01267 0.0
C736 C 0.63189 0.56024 0.96225 0.0
C737 C 0.63041 0.48092 0.01172 0.0
H738 H 0.66981 0.49019 0.93705 0.0
H739 H 0.73458 0.55793 0.97576 0.0
H740 H 0.60484 0.46564 0.96643 0.0
H741 H 0.60485 0.49273 0.94867 0.0
H742 H 0.61633 0.46653 0.94128 0.0
H743 H 0.7199 0.57428 1.00315 0.0
H744 H 0.68549 0.57668 0.99661 0.0
H745 H 0.68373 0.54804 0.01358 0.0
H746 H 0.58387 0.55159 0.9833 0.0
H747 H 0.58245 0.48469 0.02507 0.0
H748 H 0.62907 0.54744 0.94874 0.0
H749 H 0.65689 0.57508 0.96498 0.0
H750 H 0.62061 0.57413 0.95907 0.0
H751 H 0.62709 0.46489 1.00015 0.0
H752 H 0.61891 0.4683 0.02541 0.0
H753 H 0.65547 0.49398 0.01521 0.0
C754 C 0.41701 0.15223 0.95835 0.0
C755 C 0.44114 0.18125 0.95643 0.0
C756 C 0.42294 0.12876 0.96391 0.0
C757 C 0.45374 0.13471 0.96759 0.0
C758 C 0.47818 0.1638 0.96434 0.0
C759 C 0.47152 0.18672 0.95877 0.0
C760 C 0.39628 0.09801 0.96703 0.0
C761 C 0.51132 0.17112 0.96792 0.0
C762 C 0.47169 0.08741 1.00566 0.0
C763 C 0.47788 0.06994 0.99334 0.0
C764 C 0.46307 0.10805 0.99743 0.0
C765 C 0.46052 0.11129 0.97638 0.0
C766 C 0.4661 0.09331 0.96387 0.0
C767 C 0.47473 0.0729 0.97248 0.0
C768 C 0.45737 0.1269 0.01129 0.0
C769 C 0.46358 0.09608 0.94138 0.0
H770 H 0.39354 0.14827 0.95663 0.0
H771 H 0.49003 0.2093 0.95715 0.0
H772 H 0.39996 0.0814 0.95951 0.0
H773 H 0.39456 0.09213 0.98323 0.0
H774 H 0.37411 0.09638 0.96128 0.0
H775 H 0.52756 0.1942 0.96305 0.0
H776 H 0.51591 0.16845 0.9841 0.0
H777 H 0.51604 0.1556 0.95986 0.0
H778 H 0.47397 0.08527 0.02176 0.0
H779 H 0.47931 0.05944 0.96278 0.0
H780 H 0.43415 0.12446 1.00801 0.0
H781 H 0.47428 0.15065 0.00879 0.0
H782 H 0.45917 0.12091 0.02729 0.0
H783 H 0.44072 0.09354 0.93659 0.0
H784 H 0.46694 0.07929 0.93376 0.0
H785 H 0.48109 0.1185 0.93628 0.0
C786 C 0.72722 0.16754 0.9567 0.0
C787 C 0.72719 0.19374 0.95011 0.0
C788 C 0.70027 0.14286 0.96353 0.0
C789 C 0.67253 0.14432 0.96347 0.0
C790 C 0.67214 0.17025 0.95564 0.0
C791 C 0.69954 0.19471 0.94925 0.0
C792 C 0.70195 0.11592 0.9719 0.0
C793 C 0.6431 0.1727 0.95489 0.0
C794 C 0.59638 0.07321 0.97161 0.0
C795 C 0.59148 0.07517 0.99177 0.0
C796 C 0.62254 0.09546 0.96216 0.0
C797 C 0.64475 0.12001 0.9732 0.0
C798 C 0.64014 0.12175 0.99366 0.0
C799 C 0.6135 0.09956 1.0026 0.0
C800 C 0.62611 0.09298 0.94025 0.0
C801 C 0.66335 0.14722 1.00613 0.0
H802 H 0.74877 0.16703 0.95755 0.0
H803 H 0.69967 0.21507 0.94414 0.0
H804 H 0.69864 0.1139 0.98825 0.0
H805 H 0.68329 0.09546 0.96511 0.0
H806 H 0.72438 0.11717 0.9693 0.0
H807 H 0.64575 0.19281 0.94634 0.0
H808 H 0.62375 0.15283 0.94794 0.0
H809 H 0.6368 0.1737 0.97031 0.0
H810 H 0.57935 0.05463 0.96305 0.0
H811 H 0.61002 0.10123 0.01818 0.0
H812 H 0.64795 0.09283 0.93812 0.0
H813 H 0.62732 0.11259 0.9318 0.0
H814 H 0.60681 0.0726 0.93373 0.0
H815 H 0.68635 0.14885 1.00561 0.0
H816 H 0.65705 0.14474 0.022 0.0
H817 H 0.66533 0.16842 0.99993 0.0
C818 C 0.83032 0.56856 0.94857 0.0
C819 C 0.80694 0.54056 0.94293 0.0
C820 C 0.8584 0.57216 0.95692 0.0
C821 C 0.86277 0.54702 0.95972 0.0
C822 C 0.8397 0.51899 0.95295 0.0
C823 C 0.812 0.51617 0.94457 0.0
C824 C 0.88263 0.60242 0.96371 0.0
C825 C 0.84359 0.4917 0.95551 0.0
C826 C 0.94024 0.55146 0.97005 0.0
C827 C 0.93928 0.54426 0.99058 0.0
C828 C 0.91623 0.55413 0.95996 0.0
C829 C 0.8906 0.54937 0.97066 0.0
C830 C 0.89032 0.54387 0.99162 0.0
C831 C 0.91483 0.5415 1.00139 0.0
C832 C 0.91752 0.56034 0.93766 0.0
C833 C 0.86328 0.53869 1.0035 0.0
H834 H 0.82592 0.58723 0.94738 0.0
H835 H 0.79361 0.49463 0.94011 0.0
H836 H 0.8845 0.60252 0.98029 0.0
H837 H 0.90543 0.60775 0.95835 0.0
H838 H 0.87716 0.62014 0.9583 0.0
H839 H 0.82412 0.47198 0.94845 0.0
H840 H 0.8652 0.49576 0.94888 0.0
H841 H 0.84528 0.48655 0.97167 0.0
H842 H 0.9594 0.55413 0.96168 0.0
H843 H 0.91402 0.53595 0.01724 0.0
H844 H 0.91173 0.57827 0.93371 0.0
H845 H 0.90024 0.54019 0.9298 0.0
H846 H 0.94051 0.56685 0.932 0.0
H847 H 0.85754 0.55682 1.00041 0.0
H848 H 0.86776 0.53723 0.01985 0.0
H849 H 0.84281 0.51768 0.9989 0.0
C850 C 0.41602 0.27907 0.97601 0.0
C851 C 0.44015 0.27348 0.97255 0.0
C852 C 0.42187 0.30616 0.98373 0.0
C853 C 0.45259 0.32794 0.98827 0.0
C854 C 0.47695 0.32187 0.98553 0.0
C855 C 0.47041 0.29471 0.97755 0.0
C856 C 0.39531 0.3119 0.98631 0.0
C857 C 0.50998 0.34445 0.99033 0.0
C858 C 0.47177 0.40866 0.98556 0.0
C859 C 0.47273 0.41493 1.00579 0.0
C860 C 0.46505 0.38039 0.9797 0.0
C861 C 0.45943 0.35785 0.99444 0.0
C862 C 0.46042 0.36398 0.0149 0.0
C863 C 0.46691 0.39245 0.02034 0.0
C864 C 0.46393 0.37463 0.95771 0.0
C865 C 0.45485 0.34053 0.03101 0.0
H866 H 0.39264 0.26238 0.97226 0.0
H867 H 0.489 0.29035 0.97465 0.0
H868 H 0.39589 0.31894 1.00175 0.0
H869 H 0.39734 0.33028 0.97601 0.0
H870 H 0.37272 0.29203 0.98318 0.0
H871 H 0.52588 0.33527 0.98904 0.0
H872 H 0.51707 0.36393 0.97995 0.0
H873 H 0.51248 0.35251 1.00572 0.0
H874 H 0.47608 0.42583 0.9742 0.0
H875 H 0.46774 0.39717 0.036 0.0
H876 H 0.44105 0.35613 0.95324 0.0
H877 H 0.48126 0.36781 0.95475 0.0
H878 H 0.4684 0.39446 0.94813 0.0
H879 H 0.43171 0.32111 0.02859 0.0
H880 H 0.45652 0.34888 0.04623 0.0
H881 H 0.47185 0.33259 0.03024 0.0
C882 C 0.15725 0.73782 0.07056 0.0
C883 C 0.18752 0.7435 0.07464 0.0
C884 C 0.13475 0.71061 0.06272 0.0
C885 C 0.14278 0.68855 0.05872 0.0
C886 C 0.17354 0.69445 0.06248 0.0
C887 C 0.19549 0.72182 0.07045 0.0
C888 C 0.10229 0.70529 0.05899 0.0
C889 C 0.18315 0.67168 0.05838 0.0
C890 C 0.07926 0.60788 0.05744 0.0
C891 C 0.07297 0.60319 0.03683 0.0
C892 C 0.10185 0.63547 0.06472 0.0
C893 C 0.11882 0.65906 0.05111 0.0
C894 C 0.11273 0.65446 0.03029 0.0
C895 C 0.08987 0.62666 0.02341 0.0
C896 C 0.10747 0.63941 0.08703 0.0
C897 C 0.13037 0.67894 0.01527 0.0
H898 H 0.15122 0.75474 0.07363 0.0
H899 H 0.21885 0.72615 0.07378 0.0
H900 H 0.09491 0.6998 0.04311 0.0
H901 H 0.08638 0.68602 0.06823 0.0
H902 H 0.09991 0.72487 0.06255 0.0
H903 H 0.20817 0.68013 0.06135 0.0
H904 H 0.17037 0.65151 0.06788 0.0
H905 H 0.17732 0.6649 0.04257 0.0
H906 H 0.06637 0.59 0.06798 0.0
H907 H 0.08531 0.62334 1.00746 0.0
H908 H 0.1035 0.65764 0.09155 0.0
H909 H 0.13176 0.6458 0.0912 0.0
H910 H 0.09234 0.61892 0.09564 0.0
H911 H 0.12697 0.69829 0.0176 0.0
H912 H 0.12315 0.67177 0.9996 0.0
H913 H 0.15534 0.68657 0.01745 0.0
C914 C 0.26526 0.40473 0.07479 0.0
C915 C 0.25967 0.42721 0.0807 0.0
C916 C 0.2937 0.41167 0.06714 0.0
C917 C 0.31673 0.44178 0.06537 0.0
C918 C 0.31161 0.46435 0.07245 0.0
C919 C 0.28314 0.4567 0.08016 0.0
C920 C 0.29858 0.38698 0.06014 0.0
C921 C 0.33562 0.49669 0.07102 0.0
C922 C 0.40037 0.46446 0.05979 0.0
C923 C 0.4041 0.4719 0.03929 0.0
C924 C 0.37179 0.45344 0.06828 0.0
C925 C 0.34622 0.45001 0.05605 0.0
C926 C 0.34951 0.4566 0.03522 0.0
C927 C 0.37848 0.46727 0.02702 0.0
C928 C 0.36922 0.44635 0.09048 0.0
C929 C 0.32267 0.45338 0.02178 0.0
H930 H 0.24679 0.38199 0.0751 0.0
H931 H 0.27849 0.47389 0.08484 0.0
H932 H 0.30047 0.38878 0.04366 0.0
H933 H 0.32042 0.3889 0.06678 0.0
H934 H 0.27946 0.3647 0.0641 0.0
H935 H 0.32822 0.51138 0.07768 0.0
H936 H 0.35743 0.50019 0.07874 0.0
H937 H 0.34053 0.50351 0.0551 0.0
H938 H 0.41997 0.46741 0.06935 0.0
H939 H 0.38126 0.47287 0.01119 0.0
H940 H 0.35013 0.42361 0.09327 0.0
H941 H 0.36386 0.46193 0.09791 0.0
H942 H 0.39075 0.44803 0.09758 0.0
H943 H 0.30301 0.43063 0.02336 0.0
H944 H 0.32858 0.4579 1.0058 0.0
H945 H 0.31494 0.46902 0.0263 0.0
C946 C 0.52984 0.82718 0.07933 0.0
C947 C 0.55871 0.82898 0.0788 0.0
C948 C 0.52593 0.85189 0.07413 0.0
C949 C 0.55147 0.87878 0.06788 0.0
C950 C 0.58099 0.88098 0.06824 0.0
C951 C 0.58427 0.856 0.07388 0.0
C952 C 0.49419 0.84876 0.07435 0.0
C953 C 0.60872 0.90906 0.06147 0.0
C954 C 0.53181 0.92502 0.0301 0.0
C955 C 0.53413 0.94776 0.04186 0.0
C956 C 0.53828 0.90299 0.03832 0.0
C957 C 0.5466 0.90329 0.05893 0.0
C958 C 0.5492 0.92633 0.07089 0.0
C959 C 0.54325 0.94853 0.06214 0.0
C960 C 0.53578 0.87912 0.02497 0.0
C961 C 0.55739 0.92705 0.09298 0.0
H962 H 0.51025 0.80614 0.0833 0.0
H963 H 0.6065 0.85704 0.07345 0.0
H964 H 0.495 0.86766 0.08207 0.0
H965 H 0.4854 0.84912 0.05878 0.0
H966 H 0.47769 0.82774 0.08188 0.0
H967 H 0.63043 0.90815 0.06458 0.0
H968 H 0.60619 0.9126 0.04514 0.0
H969 H 0.6105 0.92855 0.06896 0.0
H970 H 0.52498 0.92448 0.01438 0.0
H971 H 0.54476 0.96594 0.07132 0.0
H972 H 0.51726 0.85717 0.03001 0.0
H973 H 0.55754 0.87803 0.02598 0.0
H974 H 0.53069 0.88299 0.00906 0.0
H975 H 0.53959 0.90688 0.10057 0.0
H976 H 0.55927 0.94691 0.10008 0.0
H977 H 0.57952 0.92688 0.09552 0.0
C978 C 0.95636 0.19934 0.41536 0.0
C979 C 0.95319 0.17141 0.42075 0.0
C980 C 0.98413 0.22222 0.40793 0.0
C981 C 0.00924 0.21692 0.40578 0.0
C982 C 0.0066 0.18925 0.41241 0.0
C983 C 0.9787 0.16695 0.41988 0.0
C984 C 0.98599 0.25146 0.40137 0.0
C985 C 0.03264 0.18251 0.41055 0.0
C986 C 0.06741 0.25977 0.36557 0.0
C987 C 0.09288 0.28035 0.3769 0.0
C988 C 0.03996 0.23936 0.37473 0.0
C989 C 0.03769 0.23958 0.39573 0.0
C990 C 0.06311 0.26065 0.40717 0.0
C991 C 0.09028 0.28061 0.39768 0.0
C992 C 0.01351 0.21716 0.36196 0.0
C993 C 0.06178 0.2619 0.42953 0.0
H994 H 0.9365 0.20263 0.41579 0.0
H995 H 0.97613 0.14529 0.42403 0.0
H996 H 0.00726 0.27017 0.40776 0.0
H997 H 0.98707 0.25395 0.38485 0.0
H998 H 0.96586 0.25321 0.40591 0.0
H999 H 0.02769 0.16073 0.41759 0.0
H1000 H 0.03684 0.18226 0.39451 0.0
H1001 H 0.05414 0.20006 0.4176 0.0
H1002 H 0.06904 0.25928 0.34956 0.0
H1003 H 0.1096 0.29646 0.40668 0.0
H1004 H 0.99263 0.21916 0.36389 0.0
H1005 H 0.00813 0.19429 0.36681 0.0
H1006 H 0.01857 0.22021 0.34583 0.0
H1007 H 0.04192 0.26474 0.4331 0.0
H1008 H 0.08307 0.28031 0.43621 0.0
H1009 H 0.05831 0.24068 0.43673 0.0
C1010 C 0.80079 0.74529 0.40231 0.0
C1011 C 0.83178 0.76536 0.40632 0.0
C1012 C 0.78023 0.75543 0.39553 0.0
C1013 C 0.7912 0.78631 0.39266 0.0
C1014 C 0.82253 0.80663 0.39687 0.0
C1015 C 0.84243 0.79585 0.40378 0.0
C1016 C 0.7469 0.73319 0.39133 0.0
C1017 C 0.83506 0.8397 0.39396 0.0
C1018 C 0.74693 0.81282 0.35716 0.0
C1019 C 0.73175 0.82082 0.3705 0.0
C1020 C 0.76617 0.80128 0.36419 0.0
C1021 C 0.77008 0.79748 0.38502 0.0
C1022 C 0.75459 0.80521 0.39857 0.0
C1023 C 0.73568 0.81691 0.39113 0.0
C1024 C 0.78261 0.79349 0.34935 0.0
C1025 C 0.75815 0.80129 0.42089 0.0
H1026 H 0.79286 0.72172 0.40435 0.0
H1027 H 0.8664 0.8112 0.40727 0.0
H1028 H 0.73198 0.73813 0.40029 0.0
H1029 H 0.74055 0.73488 0.37535 0.0
H1030 H 0.74196 0.71002 0.39483 0.0
H1031 H 0.86005 0.85244 0.39792 0.0
H1032 H 0.8312 0.845 0.37814 0.0
H1033 H 0.82272 0.84731 0.4033 0.0
H1034 H 0.74403 0.81582 0.3412 0.0
H1035 H 0.72385 0.82286 0.40154 0.0
H1036 H 0.77672 0.76985 0.35141 0.0
H1037 H 0.80783 0.80702 0.35199 0.0
H1038 H 0.77666 0.79731 0.33362 0.0
H1039 H 0.75184 0.77788 0.42472 0.0
H1040 H 0.74368 0.80746 0.42936 0.0
H1041 H 0.78252 0.81521 0.42593 0.0
C1042 C 0.23606 0.05502 0.39305 0.0
C1043 C 0.2138 0.06031 0.40082 0.0
C1044 C 0.2282 0.02717 0.38561 0.0
C1045 C 0.19739 0.00398 0.38633 0.0
C1046 C 0.17469 0.00953 0.39381 0.0
C1047 C 0.18319 0.03779 0.40086 0.0
C1048 C 0.253 0.02233 0.3775 0.0
C1049 C 0.14172 0.98532 0.39512 0.0
C1050 C 0.17257 0.93544 0.35544 0.0
C1051 C 0.17642 0.91625 0.3695 0.0
C1052 C 0.17925 0.96409 0.36067 0.0
C1053 C 0.18943 0.9735 0.38052 0.0
C1054 C 0.19273 0.95396 0.39485 0.0
C1055 C 0.18645 0.92572 0.38913 0.0
C1056 C 0.17594 0.98448 0.34491 0.0
C1057 C 0.20303 0.96294 0.41625 0.0
H1058 H 0.25969 0.0727 0.39307 0.0
H1059 H 0.16619 0.04212 0.40705 0.0
H1060 H 0.25667 0.00624 0.38733 0.0
H1061 H 0.24582 0.0127 0.36242 0.0
H1062 H 0.2752 0.04324 0.37649 0.0
H1063 H 0.1266 0.99368 0.40027 0.0
H1064 H 0.13269 0.97514 0.38033 0.0
H1065 H 0.1405 0.96752 0.40569 0.0
H1066 H 0.16496 0.9283 0.34023 0.0
H1067 H 0.18917 0.9109 0.40014 0.0
H1068 H 0.19849 0.00467 0.34294 0.0
H1069 H 0.15985 0.99184 0.34973 0.0
H1070 H 0.16739 0.97369 0.33023 0.0
H1071 H 0.2265 0.98231 0.41675 0.0
H1072 H 0.20323 0.94471 0.42574 0.0
H1073 H 0.18758 0.9698 0.42279 0.0
C1074 C 0.47992 0.64782 0.29838 0.0
C1075 C 0.48887 0.62638 0.2957 0.0
C1076 C 0.50131 0.67625 0.30514 0.0
C1077 C 0.5324 0.68338 0.30918 0.0
C1078 C 0.54136 0.66156 0.30673 0.0
C1079 C 0.51945 0.63331 0.30013 0.0
C1080 C 0.49076 0.69877 0.3077 0.0
C1081 C 0.57419 0.66814 0.31084 0.0
C1082 C 0.59554 0.76427 0.30836 0.0
C1083 C 0.60202 0.7701 0.32883 0.0
C1084 C 0.57268 0.73632 0.30175 0.0
C1085 C 0.55568 0.71363 0.31593 0.0
C1086 C 0.56174 0.71954 0.33658 0.0
C1087 C 0.58484 0.74759 0.34277 0.0
C1088 C 0.56707 0.7309 0.27959 0.0
C1089 C 0.54405 0.69607 0.35219 0.0
H1090 H 0.45631 0.64246 0.29479 0.0
H1091 H 0.52621 0.61656 0.29822 0.0
H1092 H 0.4963 0.70696 0.3232 0.0
H1093 H 0.50316 0.7182 0.29753 0.0
H1094 H 0.46565 0.68947 0.30452 0.0
H1095 H 0.57739 0.64873 0.30821 0.0
H1096 H 0.58968 0.68696 0.30112 0.0
H1097 H 0.58142 0.67489 0.32656 0.0
H1098 H 0.6086 0.78144 0.29744 0.0
H1099 H 0.58946 0.75182 0.35862 0.0
H1100 H 0.54259 0.72346 0.2753 0.0
H1101 H 0.5719 0.7129 0.27583 0.0
H1102 H 0.58164 0.75104 0.27048 0.0
H1103 H 0.51902 0.6877 0.34951 0.0
H1104 H 0.55064 0.70454 0.36762 0.0
H1105 H 0.54821 0.67692 0.3511 0.0
C1106 C 0.38385 0.89787 0.30436 0.0
C1107 C 0.38195 0.87587 0.29215 0.0
C1108 C 0.35848 0.89339 0.31489 0.0
C1109 C 0.33063 0.8664 0.3128 0.0
C1110 C 0.32893 0.84385 0.30071 0.0
C1111 C 0.35486 0.84887 0.29056 0.0
C1112 C 0.36121 0.91779 0.32778 0.0
C1113 C 0.29948 0.81495 0.29795 0.0
C1114 C 0.26727 0.845 0.34911 0.0
C1115 C 0.24822 0.85425 0.33834 0.0
C1116 C 0.2946 0.8493 0.34116 0.0
C1117 C 0.30265 0.86272 0.32193 0.0
C1118 C 0.28374 0.87245 0.31113 0.0
C1119 C 0.25697 0.8684 0.31958 0.0
C1120 C 0.31461 0.83913 0.35317 0.0
C1121 C 0.29138 0.88653 0.29045 0.0
H1122 H 0.40521 0.91862 0.30546 0.0
H1123 H 0.35392 0.83208 0.28102 0.0
H1124 H 0.34626 0.92676 0.32129 0.0
H1125 H 0.35325 0.90887 0.34298 0.0
H1126 H 0.38518 0.93632 0.3291 0.0
H1127 H 0.30252 0.79916 0.28891 0.0
H1128 H 0.29081 0.80427 0.31268 0.0
H1129 H 0.28158 0.81933 0.29036 0.0
H1130 H 0.2607 0.83413 0.36365 0.0
H1131 H 0.2425 0.87574 0.31117 0.0
H1132 H 0.33839 0.85781 0.35487 0.0
H1133 H 0.31583 0.82147 0.34515 0.0
H1134 H 0.30584 0.83038 0.36827 0.0
H1135 H 0.31425 0.90672 0.29091 0.0
H1136 H 0.27411 0.89275 0.28405 0.0
H1137 H 0.29261 0.87091 0.28023 0.0
C1138 C 0.08866 0.48409 0.29028 0.0
C1139 C 0.1126 0.5133 0.2889 0.0
C1140 C 0.09475 0.46071 0.29586 0.0
C1141 C 0.12553 0.46692 0.3001 0.0
C1142 C 0.14985 0.49624 0.29741 0.0
C1143 C 0.14304 0.51906 0.29181 0.0
C1144 C 0.0682 0.42974 0.29838 0.0
C1145 C 0.18297 0.50385 0.30161 0.0
C1146 C 0.1422 0.41887 0.33832 0.0
C1147 C 0.14913 0.40181 0.3261 0.0
C1148 C 0.13384 0.43965 0.33 0.0
C1149 C 0.1323 0.44348 0.30894 0.0
C1150 C 0.13869 0.42596 0.29651 0.0
C1151 C 0.14704 0.40538 0.30523 0.0
C1152 C 0.12723 0.45796 0.34377 0.0
C1153 C 0.13727 0.42936 0.27402 0.0
H1154 H 0.06514 0.47987 0.28815 0.0
H1155 H 0.16142 0.54178 0.2906 0.0
H1156 H 0.07253 0.41353 0.29087 0.0
H1157 H 0.0658 0.4234 0.3145 0.0
H1158 H 0.04616 0.42799 0.29224 0.0
H1159 H 0.19921 0.52711 0.2971 0.0
H1160 H 0.18688 0.50083 0.31784 0.0
H1161 H 0.18834 0.48873 0.29361 0.0
H1162 H 0.14366 0.41628 0.35443 0.0
H1163 H 0.15222 0.39227 0.2956 0.0
H1164 H 0.10403 0.45535 0.34009 0.0
H1165 H 0.14405 0.48182 0.34163 0.0
H1166 H 0.12841 0.45162 0.35977 0.0
H1167 H 0.11452 0.4267 0.26878 0.0
H1168 H 0.14128 0.41295 0.26643 0.0
H1169 H 0.15485 0.45199 0.26935 0.0
C1170 C 0.39859 0.50011 0.29235 0.0
C1171 C 0.39821 0.52626 0.28612 0.0
C1172 C 0.37178 0.47509 0.29895 0.0
C1173 C 0.34387 0.47621 0.29902 0.0
C1174 C 0.34317 0.50217 0.29161 0.0
C1175 C 0.37044 0.52697 0.28546 0.0
C1176 C 0.37376 0.44813 0.30693 0.0
C1177 C 0.31392 0.50424 0.29101 0.0
C1178 C 0.26786 0.40476 0.30612 0.0
C1179 C 0.26255 0.40622 0.32627 0.0
C1180 C 0.29423 0.42723 0.29702 0.0
C1181 C 0.31618 0.45146 0.30843 0.0
C1182 C 0.31125 0.45258 0.3289 0.0
C1183 C 0.28443 0.43019 0.33748 0.0
C1184 C 0.29823 0.42544 0.27509 0.0
C1185 C 0.33423 0.47768 0.34174 0.0
H1186 H 0.42026 0.49985 0.29301 0.0
H1187 H 0.37036 0.54734 0.28064 0.0
H1188 H 0.37033 0.4456 0.32327 0.0
H1189 H 0.35531 0.42777 0.29991 0.0
H1190 H 0.39633 0.44975 0.30427 0.0
H1191 H 0.31642 0.52455 0.28284 0.0
H1192 H 0.2948 0.48453 0.28376 0.0
H1193 H 0.30737 0.50455 0.30649 0.0
H1194 H 0.25094 0.38647 0.29729 0.0
H1195 H 0.28063 0.43143 0.35307 0.0
H1196 H 0.32046 0.42611 0.27294 0.0
H1197 H 0.29883 0.44494 0.26685 0.0
H1198 H 0.27941 0.40493 0.26838 0.0
H1199 H 0.35734 0.4796 0.34111 0.0
H1200 H 0.32781 0.47455 0.35761 0.0
H1201 H 0.33602 0.49899 0.33594 0.0
C1202 C 0.48557 0.8635 0.27659 0.0
C1203 C 0.4829 0.88913 0.27763 0.0
C1204 C 0.51206 0.86289 0.28424 0.0
C1205 C 0.53604 0.88848 0.29337 0.0
C1206 C 0.53412 0.915 0.29331 0.0
C1207 C 0.50745 0.91501 0.28531 0.0
C1208 C 0.51351 0.83435 0.28369 0.0
C1209 C 0.55916 0.94266 0.30296 0.0
C1210 C 0.58142 0.87244 0.33494 0.0
C1211 C 0.6081 0.87853 0.32531 0.0
C1212 C 0.55818 0.87653 0.32484 0.0
C1213 C 0.56161 0.88652 0.30459 0.0
C1214 C 0.58873 0.89325 0.29491 0.0
C1215 C 0.61176 0.88936 0.30543 0.0
C1216 C 0.52963 0.86947 0.3357 0.0
C1217 C 0.59295 0.90352 0.27325 0.0
H1218 H 0.46624 0.84361 0.27064 0.0
H1219 H 0.50484 0.93459 0.28622 0.0
H1220 H 0.53586 0.83867 0.27812 0.0
H1221 H 0.51168 0.82467 0.29905 0.0
H1222 H 0.49469 0.81771 0.27406 0.0
H1223 H 0.55574 0.96223 0.29962 0.0
H1224 H 0.55943 0.93898 0.31941 0.0
H1225 H 0.58201 0.94774 0.29786 0.0
H1226 H 0.57853 0.86417 0.35029 0.0
H1227 H 0.63221 0.89386 0.29781 0.0
H1228 H 0.50936 0.8506 0.32855 0.0
H1229 H 0.52542 0.88877 0.33466 0.0
H1230 H 0.53132 0.86359 0.35174 0.0
H1231 H 0.57546 0.8857 0.26367 0.0
H1232 H 0.61612 0.90937 0.26825 0.0
H1233 H 0.58943 0.92313 0.27082 0.0
C1234 C 0.08573 0.61045 0.30803 0.0
C1235 C 0.10994 0.60491 0.30471 0.0
C1236 C 0.09141 0.63745 0.31589 0.0
C1237 C 0.12205 0.6592 0.32071 0.0
C1238 C 0.14648 0.65322 0.31802 0.0
C1239 C 0.14012 0.62618 0.30992 0.0
C1240 C 0.06476 0.64306 0.3184 0.0
C1241 C 0.17943 0.67576 0.32308 0.0
C1242 C 0.14128 0.74001 0.31875 0.0
C1243 C 0.14198 0.74591 0.33904 0.0
C1244 C 0.13462 0.71185 0.31264 0.0
C1245 C 0.12876 0.689 0.32716 0.0
C1246 C 0.12951 0.69476 0.34768 0.0
C1247 C 0.13598 0.72314 0.35338 0.0
C1248 C 0.13378 0.70655 0.29059 0.0
C1249 C 0.12366 0.67098 0.36358 0.0
H1250 H 0.06239 0.59376 0.30415 0.0
H1251 H 0.1588 0.62191 0.30711 0.0
H1252 H 0.065 0.64967 0.33392 0.0
H1253 H 0.06698 0.6617 0.3083 0.0
H1254 H 0.04223 0.62327 0.31497 0.0
H1255 H 0.19542 0.66671 0.32169 0.0
H1256 H 0.1866 0.69548 0.31291 0.0
H1257 H 0.1817 0.68342 0.33856 0.0
H1258 H 0.14571 0.75738 0.30753 0.0
H1259 H 0.13654 0.72752 0.36908 0.0
H1260 H 0.11096 0.68814 0.28593 0.0
H1261 H 0.15116 0.6998 0.2876 0.0
H1262 H 0.13838 0.72656 0.28119 0.0
H1263 H 0.10052 0.65166 0.36096 0.0
H1264 H 0.12515 0.67902 0.37888 0.0
H1265 H 0.14062 0.66299 0.36277 0.0
C1266 C 0.83056 0.07346 0.39811 0.0
C1267 C 0.85806 0.07657 0.40705 0.0
C1268 C 0.80829 0.0463 0.39012 0.0
C1269 C 0.8135 0.02154 0.39147 0.0
C1270 C 0.84146 0.02475 0.40044 0.0
C1271 C 0.86354 0.05236 0.40798 0.0
C1272 C 0.77909 0.04402 0.3804 0.0
C1273 C 0.84773 0.99886 0.4025 0.0
C1274 C 0.74281 0.94498 0.38941 0.0
C1275 C 0.7429 0.93669 0.36981 0.0
C1276 C 0.76589 0.97229 0.39672 0.0
C1277 C 0.78934 0.99213 0.38402 0.0
C1278 C 0.78946 0.98395 0.36418 0.0
C1279 C 0.76644 0.9562 0.35739 0.0
C1280 C 0.76521 0.97986 0.41808 0.0
C1281 C 0.81371 0.00467 0.35006 0.0
H1282 H 0.82659 0.09239 0.39744 0.0
H1283 H 0.88483 0.05496 0.41507 0.0
H1284 H 0.77574 0.0357 0.36502 0.0
H1285 H 0.75905 0.02785 0.38893 0.0
H1286 H 0.77926 0.06569 0.37965 0.0
H1287 H 0.87075 0.00513 0.4096 0.0
H1288 H 0.83002 0.98083 0.41167 0.0
H1289 H 0.84626 0.98975 0.3876 0.0
H1290 H 0.72487 0.92991 0.39917 0.0
H1291 H 0.76657 0.95003 0.34219 0.0
H1292 H 0.76274 1.00009 0.41838 0.0
H1293 H 0.7872 0.98479 0.42619 0.0
H1294 H 0.74604 0.96159 0.42622 0.0
H1295 H 0.81313 0.02591 0.34827 0.0
H1296 H 0.8105 0.9951 0.33506 0.0
H1297 H 0.83688 0.00993 0.35634 0.0
C1298 C 0.95021 0.78644 0.41394 0.0
C1299 C 0.9263 0.75718 0.41475 0.0
C1300 C 0.97845 0.7933 0.40626 0.0
C1301 C 0.98283 0.77017 0.39937 0.0
C1302 C 0.95931 0.74029 0.40136 0.0
C1303 C 0.93113 0.73414 0.40903 0.0
C1304 C 0.00301 0.82542 0.4046 0.0
C1305 C 0.96338 0.71504 0.39451 0.0
C1306 C 0.04404 0.79468 0.36078 0.0
C1307 C 0.0697 0.79926 0.37299 0.0
C1308 C 0.01514 0.78412 0.36907 0.0
C1309 C 0.012 0.77763 0.38991 0.0
C1310 C 0.03756 0.78081 0.40205 0.0
C1311 C 0.06605 0.79172 0.39347 0.0
C1312 C 0.9883 0.78109 0.35571 0.0
C1313 C 0.03517 0.77387 0.42426 0.0
H1314 H 0.94602 0.80407 0.41833 0.0
H1315 H 0.91226 0.7116 0.4095 0.0
H1316 H 0.02475 0.82851 0.41221 0.0
H1317 H 0.00777 0.83196 0.38863 0.0
H1318 H 0.99623 0.84058 0.41124 0.0
H1319 H 0.94401 0.69304 0.39871 0.0
H1320 H 0.96493 0.71645 0.37801 0.0
H1321 H 0.98514 0.71662 0.40102 0.0
H1322 H 0.04676 0.80036 0.34496 0.0
H1323 H 0.0857 0.79467 0.40295 0.0
H1324 H 0.98114 0.79724 0.36008 0.0
H1325 H 0.96835 0.75858 0.35757 0.0
H1326 H 0.99396 0.78511 0.33968 0.0
H1327 H 0.03117 0.7903 0.43177 0.0
H1328 H 0.05632 0.77445 0.43115 0.0
H1329 H 0.01534 0.75163 0.42724 0.0
C1330 C 0.25088 0.18537 0.40934 0.0
C1331 C 0.22491 0.15872 0.41435 0.0
C1332 C 0.24837 0.21075 0.40365 0.0
C1333 C 0.21921 0.20936 0.40328 0.0
C1334 C 0.1933 0.1829 0.40969 0.0
C1335 C 0.19644 0.15778 0.41497 0.0
C1336 C 0.27649 0.23835 0.39674 0.0
C1337 C 0.16192 0.18061 0.4099 0.0
C1338 C 0.21273 0.28006 0.39675 0.0
C1339 C 0.20356 0.27906 0.37646 0.0
C1340 C 0.2182 0.25768 0.40575 0.0
C1341 C 0.21501 0.23416 0.39405 0.0
C1342 C 0.20666 0.23361 0.37343 0.0
C1343 C 0.20075 0.25588 0.36495 0.0
C1344 C 0.22648 0.25872 0.42784 0.0
C1345 C 0.20352 0.20922 0.36033 0.0
H1346 H 0.27279 0.18576 0.40881 0.0
H1347 H 0.17651 0.13702 0.41897 0.0
H1348 H 0.27413 0.24159 0.38036 0.0
H1349 H 0.27871 0.25822 0.40395 0.0
H1350 H 0.2979 0.23697 0.40005 0.0
H1351 H 0.14514 0.15994 0.41764 0.0
H1352 H 0.16333 0.19994 0.41739 0.0
H1353 H 0.15308 0.1808 0.39432 0.0
H1354 H 0.21466 0.29781 0.40575 0.0
H1355 H 0.19389 0.25512 0.34923 0.0
H1356 H 0.24821 0.25779 0.43046 0.0
H1357 H 0.20831 0.23905 0.43561 0.0
H1358 H 0.22917 0.27907 0.43468 0.0
H1359 H 0.22499 0.20761 0.36143 0.0
H1360 H 0.19849 0.2129 0.34438 0.0
H1361 H 0.1847 0.18756 0.36554 0.0
C1362 C 0.64403 0.49853 0.75489 0.0
C1363 C 0.61883 0.50336 0.75625 0.0
C1364 C 0.67199 0.52075 0.74741 0.0
C1365 C 0.67508 0.54878 0.74129 0.0
C1366 C 0.65031 0.55442 0.74396 0.0
C1367 C 0.62245 0.5316 0.75136 0.0
C1368 C 0.6976 0.51358 0.74498 0.0
C1369 C 0.65265 0.58404 0.73799 0.0
C1370 C 0.75651 0.61188 0.73285 0.0
C1371 C 0.75854 0.61207 0.71198 0.0
C1372 C 0.72945 0.59196 0.74251 0.0
C1373 C 0.70353 0.57139 0.73114 0.0
C1374 C 0.70526 0.57163 0.71006 0.0
C1375 C 0.73261 0.59196 0.70075 0.0
C1376 C 0.72874 0.59271 0.76496 0.0
C1377 C 0.67833 0.54997 0.69733 0.0
H1378 H 0.64116 0.47666 0.75867 0.0
H1379 H 0.60286 0.53523 0.75217 0.0
H1380 H 0.70143 0.51362 0.72884 0.0
H1381 H 0.71937 0.53074 0.752 0.0
H1382 H 0.69239 0.49155 0.75169 0.0
H1383 H 0.63283 0.58601 0.74293 0.0
H1384 H 0.67419 0.60235 0.74443 0.0
H1385 H 0.65347 0.58699 0.72148 0.0
H1386 H 0.77622 0.62731 0.74179 0.0
H1387 H 0.73377 0.59179 0.68467 0.0
H1388 H 0.72495 0.57119 0.77179 0.0
H1389 H 0.7093 0.59593 0.769 0.0
H1390 H 0.7504 0.6107 0.77161 0.0
H1391 H 0.67263 0.52691 0.70186 0.0
H1392 H 0.68301 0.55328 0.68115 0.0
H1393 H 0.65776 0.55232 0.69969 0.0
C1394 C 0.53627 0.18215 0.75011 0.0
C1395 C 0.53231 0.15438 0.75657 0.0
C1396 C 0.51168 0.18497 0.74101 0.0
C1397 C 0.48267 0.15928 0.73841 0.0
C1398 C 0.4786 0.13118 0.74518 0.0
C1399 C 0.50361 0.1291 0.75419 0.0
C1400 C 0.51676 0.21528 0.73403 0.0
C1401 C 0.44799 0.10335 0.74271 0.0
C1402 C 0.41244 0.16944 0.73124 0.0
C1403 C 0.40709 0.1674 0.71042 0.0
C1404 C 0.4369 0.16671 0.74054 0.0
C1405 C 0.45648 0.1618 0.72874 0.0
C1406 C 0.45104 0.1593 0.70777 0.0
C1407 C 0.42633 0.1621 0.69883 0.0
C1408 C 0.44194 0.16937 0.76297 0.0
C1409 C 0.47154 0.15398 0.69478 0.0
H1410 H 0.55873 0.20149 0.75202 0.0
H1411 H 0.50105 0.10767 0.7591 0.0
H1412 H 0.51171 0.2154 0.71768 0.0
H1413 H 0.50078 0.22065 0.7414 0.0
H1414 H 0.54069 0.23298 0.7373 0.0
H1415 H 0.44869 0.08332 0.74903 0.0
H1416 H 0.43005 0.10568 0.75021 0.0
H1417 H 0.44093 0.09994 0.72662 0.0
H1418 H 0.39764 0.17345 0.74036 0.0
H1419 H 0.42238 0.16056 0.68274 0.0
H1420 H 0.46496 0.18824 0.7667 0.0
H1421 H 0.44141 0.14901 0.7697 0.0
H1422 H 0.42434 0.17285 0.76999 0.0
H1423 H 0.4955 0.17238 0.69634 0.0
H1424 H 0.46398 0.15225 0.67873 0.0
H1425 H 0.47181 0.13323 0.69973 0.0
C1426 C 0.85118 0.37277 0.72817 0.0
C1427 C 0.88198 0.3921 0.73336 0.0
C1428 C 0.84228 0.3447 0.72068 0.0
C1429 C 0.86479 0.33583 0.71863 0.0
C1430 C 0.89609 0.35572 0.72347 0.0
C1431 C 0.90432 0.38376 0.73069 0.0
C1432 C 0.80875 0.32426 0.71548 0.0
C1433 C 0.92073 0.34702 0.72165 0.0
C1434 C 0.84001 0.25364 0.72131 0.0
C1435 C 0.84019 0.24753 0.70118 0.0
C1436 C 0.84771 0.28223 0.72714 0.0
C1437 C 0.85548 0.30524 0.71246 0.0
C1438 C 0.8551 0.29912 0.69207 0.0
C1439 C 0.84761 0.27035 0.68667 0.0
C1440 C 0.84808 0.28792 0.74906 0.0
C1441 C 0.86292 0.32305 0.676 0.0
H1442 H 0.83411 0.37954 0.73038 0.0
H1443 H 0.9281 0.39902 0.73477 0.0
H1444 H 0.80595 0.31615 0.70008 0.0
H1445 H 0.79982 0.30455 0.72575 0.0
H1446 H 0.79453 0.33533 0.71655 0.0
H1447 H 0.9441 0.36549 0.72527 0.0
H1448 H 0.91633 0.32791 0.73192 0.0
H1449 H 0.92019 0.33983 0.70625 0.0
H1450 H 0.8344 0.23619 0.73263 0.0
H1451 H 0.84765 0.26579 0.67108 0.0
H1452 H 0.83238 0.29695 0.75146 0.0
H1453 H 0.87152 0.30481 0.75413 0.0
H1454 H 0.84105 0.26751 0.75856 0.0
H1455 H 0.8479 0.33328 0.67677 0.0
H1456 H 0.86032 0.3144 0.66077 0.0
H1457 H 0.88698 0.3409 0.67846 0.0
C1458 C 0.18834 0.96211 0.6364 0.0
C1459 C 0.15785 0.95544 0.63184 0.0
C1460 C 0.21041 0.99027 0.64311 0.0
C1461 C 0.20175 0.01231 0.64555 0.0
C1462 C 0.17074 0.00542 0.64143 0.0
C1463 C 0.14919 0.97709 0.63456 0.0
C1464 C 0.24314 0.99656 0.64727 0.0
C1465 C 0.16044 0.02813 0.64397 0.0
C1466 C 0.25433 0.07728 0.67873 0.0
C1467 C 0.27117 0.09967 0.66462 0.0
C1468 C 0.23146 0.04896 0.67274 0.0
C1469 C 0.22528 0.04264 0.65213 0.0
C1470 C 0.24213 0.06515 0.63781 0.0
C1471 C 0.26474 0.09335 0.64421 0.0
C1472 C 0.21394 0.02572 0.68851 0.0
C1473 C 0.23647 0.05934 0.61569 0.0
H1474 H 0.19492 0.94523 0.63447 0.0
H1475 H 0.12567 0.97199 0.63087 0.0
H1476 H 0.25872 0.01514 0.63742 0.0
H1477 H 0.25047 1.00356 0.66294 0.0
H1478 H 0.24607 0.97694 0.64482 0.0
H1479 H 0.13532 0.01895 0.64091 0.0
H1480 H 0.16623 0.03651 0.65942 0.0
H1481 H 0.17281 0.04742 0.63367 0.0
H1482 H 0.25893 0.08188 0.69453 0.0
H1483 H 0.27755 0.1104 0.63315 0.0
H1484 H 0.21781 0.0064 0.68739 0.0
H1485 H 0.18892 0.01755 0.68603 0.0
H1486 H 0.2209 0.03433 0.70389 0.0
H1487 H 0.24092 0.04101 0.61215 0.0
H1488 H 0.25127 0.07923 0.60645 0.0
H1489 H 0.21206 0.0522 0.61137 0.0
C1490 C 0.04303 0.20702 0.64047 0.0
C1491 C 0.06316 0.23694 0.63618 0.0
C1492 C 0.01518 0.19843 0.64942 0.0
C1493 C 0.00731 0.22037 0.65392 0.0
C1494 C 0.02808 0.25074 0.65016 0.0
C1495 C 0.0559 0.25867 0.64133 0.0
C1496 C 0.9936 0.16582 0.65321 0.0
C1497 C 0.02034 0.2747 0.65463 0.0
C1498 C 0.92247 0.1959 0.65161 0.0
C1499 C 0.9157 0.19207 0.67192 0.0
C1500 C 0.95229 0.20549 0.64565 0.0
C1501 C 0.97599 0.21127 0.66035 0.0
C1502 C 0.96951 0.20775 0.68089 0.0
C1503 C 0.93934 0.19827 0.68647 0.0
C1504 C 0.95835 0.20918 0.62357 0.0
C1505 C 0.99432 0.21358 0.6969 0.0
H1506 H 0.04876 0.19035 0.63626 0.0
H1507 H 0.07183 0.2818 0.6381 0.0
H1508 H 0.98561 0.16187 0.66872 0.0
H1509 H 0.97298 0.1584 0.64296 0.0
H1510 H 0.00454 0.15195 0.65084 0.0
H1511 H 0.04012 0.29731 0.65252 0.0
H1512 H 0.00088 0.27267 0.64459 0.0
H1513 H 0.01292 0.2721 0.67021 0.0
H1514 H 0.90442 0.19146 0.64024 0.0
H1515 H 0.93422 0.19531 0.70217 0.0
H1516 H 0.96684 0.19397 0.61939 0.0
H1517 H 0.97649 0.23215 0.62013 0.0
H1518 H 0.93746 0.20449 0.61409 0.0
H1519 H 0.00384 0.19832 0.69528 0.0
H1520 H 0.98568 0.21054 0.7122 0.0
H1521 H 0.01354 0.23654 0.69516 0.0
C1522 C 0.75913 0.82258 0.63522 0.0
C1523 C 0.77997 0.84502 0.62276 0.0
C1524 C 0.76368 0.79865 0.6418 0.0
C1525 C 0.79013 0.79773 0.6361 0.0
C1526 C 0.8104 0.81971 0.62267 0.0
C1527 C 0.80487 0.84303 0.61602 0.0
C1528 C 0.74113 0.77531 0.65569 0.0
C1529 C 0.83904 0.81976 0.61642 0.0
C1530 C 0.8233 0.76027 0.67226 0.0
C1531 C 0.8149 0.73383 0.66255 0.0
C1532 C 0.81531 0.78123 0.6638 0.0
C1533 C 0.79794 0.77527 0.64542 0.0
C1534 C 0.78868 0.74824 0.63584 0.0
C1535 C 0.79756 0.72798 0.64442 0.0
C1536 C 0.82604 0.81005 0.6743 0.0
C1537 C 0.76955 0.7408 0.6165 0.0
H1538 H 0.74005 0.82455 0.64045 0.0
H1539 H 0.82109 0.86084 0.60662 0.0
H1540 H 0.73467 0.75277 0.65068 0.0
H1541 H 0.75199 0.77769 0.67093 0.0
H1542 H 0.71992 0.77715 0.6566 0.0
H1543 H 0.85111 0.83708 0.60475 0.0
H1544 H 0.85505 0.82388 0.62962 0.0
H1545 H 0.8333 0.79783 0.61063 0.0
H1546 H 0.83686 0.76497 0.6862 0.0
H1547 H 0.79075 0.70743 0.63693 0.0
H1548 H 0.80601 0.81266 0.6778 0.0
H1549 H 0.84057 0.82902 0.66433 0.0
H1550 H 0.83948 0.81133 0.68843 0.0
H1551 H 0.74828 0.74216 0.61834 0.0
H1552 H 0.76305 0.71825 0.61143 0.0
H1553 H 0.7825 0.75718 0.6046 0.0
C1554 C 0.03851 0.85786 0.62034 0.0
C1555 C 0.06587 0.85634 0.62103 0.0
C1556 C 0.01076 0.83334 0.62618 0.0
C1557 C 0.01048 0.80681 0.63329 0.0
C1558 C 0.03796 0.80488 0.63321 0.0
C1559 C 0.06528 0.82963 0.62693 0.0
C1560 C 0.98203 0.83633 0.6256 0.0
C1561 C 0.03894 0.7773 0.64088 0.0
C1562 C 0.95031 0.76115 0.6715 0.0
C1563 C 0.928 0.7376 0.66015 0.0
C1564 C 0.97743 0.78328 0.66303 0.0
C1565 C 0.9823 0.78234 0.64253 0.0
C1566 C 0.95992 0.75857 0.63097 0.0
C1567 C 0.93321 0.73636 0.63995 0.0
C1568 C 0.00082 0.80785 0.67606 0.0
C1569 C 0.96384 0.75695 0.609 0.0
H1570 H 0.03915 0.87862 0.61577 0.0
H1571 H 0.0866 0.82871 0.62763 0.0
H1572 H 0.96262 0.81703 0.61818 0.0
H1573 H 0.97549 0.8366 0.64108 0.0
H1574 H 0.98523 0.85699 0.61759 0.0
H1575 H 0.0612 0.77828 0.63816 0.0
H1576 H 0.03543 0.77453 0.65721 0.0
H1577 H 0.02011 0.75734 0.63369 0.0
H1578 H 0.94667 0.76225 0.68714 0.0
H1579 H 0.91603 0.71842 0.631 0.0
H1580 H 0.00335 0.82951 0.67043 0.0
H1581 H 0.02362 0.80907 0.67543 0.0
H1582 H 0.99431 0.80466 0.69192 0.0
H1583 H 0.96489 0.77675 0.60092 0.0
H1584 H 0.94476 0.73672 0.60218 0.0
H1585 H 0.98585 0.75719 0.60677 0.0
C1586 C 0.18934 0.26831 0.62427 0.0
C1587 C 0.16123 0.24472 0.61795 0.0
C1588 C 0.21411 0.26354 0.63025 0.0
C1589 C 0.21038 0.23454 0.62961 0.0
C1590 C 0.18269 0.21122 0.62157 0.0
C1591 C 0.15825 0.21659 0.61601 0.0
C1592 C 0.24322 0.28891 0.6388 0.0
C1593 C 0.178 0.18013 0.62029 0.0
C1594 C 0.2792 0.22205 0.63842 0.0
C1595 C 0.2761 0.21212 0.65849 0.0
C1596 C 0.25811 0.22967 0.62879 0.0
C1597 C 0.23367 0.22769 0.63958 0.0
C1598 C 0.23072 0.21817 0.65993 0.0
C1599 C 0.25186 0.21026 0.66911 0.0
C1600 C 0.2616 0.23922 0.60699 0.0
C1601 C 0.20502 0.21605 0.67197 0.0
H1602 H 0.19109 0.28989 0.62591 0.0
H1603 H 0.13617 0.19852 0.61119 0.0
H1604 H 0.24471 0.28546 0.65523 0.0
H1605 H 0.26373 0.28973 0.63255 0.0
H1606 H 0.24397 0.31064 0.6358 0.0
H1607 H 0.15707 0.16578 0.61109 0.0
H1608 H 0.19817 0.18051 0.61382 0.0
H1609 H 0.17563 0.16999 0.63554 0.0
H1610 H 0.29775 0.22326 0.63007 0.0
H1611 H 0.24949 0.20275 0.68463 0.0
H1612 H 0.26289 0.26128 0.60493 0.0
H1613 H 0.24114 0.22333 0.59809 0.0
H1614 H 0.28243 0.24042 0.60089 0.0
H1615 H 0.20528 0.23772 0.67151 0.0
H1616 H 0.20675 0.20947 0.68785 0.0
H1617 H 0.1825 0.19951 0.66537 0.0
C1618 C 0.81708 0.9718 0.62855 0.0
C1619 C 0.79365 0.94444 0.63526 0.0
C1620 C 0.82207 0.99831 0.63674 0.0
C1621 C 0.80305 0.99725 0.65197 0.0
C1622 C 0.77999 0.9695 0.65926 0.0
C1623 C 0.77557 0.94333 0.65078 0.0
C1624 C 0.84694 0.02745 0.62862 0.0
C1625 C 0.75923 0.9675 0.67544 0.0
C1626 C 0.82891 0.067 0.68147 0.0
C1627 C 0.81246 0.07969 0.67128 0.0
C1628 C 0.82581 0.03992 0.67555 0.0
C1629 C 0.80576 0.02523 0.6591 0.0
C1630 C 0.78876 0.03769 0.64897 0.0
C1631 C 0.79235 0.06476 0.65515 0.0
C1632 C 0.84432 0.02725 0.68666 0.0
C1633 C 0.76708 0.02262 0.63138 0.0
H1634 H 0.8311 0.97233 0.61663 0.0
H1635 H 0.75737 0.92201 0.65577 0.0
H1636 H 0.83639 0.04014 0.62098 0.0
H1637 H 0.86228 0.04114 0.64101 0.0
H1638 H 0.86108 0.02431 0.61779 0.0
H1639 H 0.74414 0.94423 0.68054 0.0
H1640 H 0.77307 0.98055 0.68849 0.0
H1641 H 0.74451 0.97717 0.66975 0.0
H1642 H 0.84451 0.07839 0.69393 0.0
H1643 H 0.77945 0.07429 0.6472 0.0
H1644 H 0.86015 0.02585 0.67636 0.0
H1645 H 0.82884 0.00436 0.69219 0.0
H1646 H 0.85808 0.04088 0.69956 0.0
H1647 H 0.78003 0.02075 0.61915 0.0
H1648 H 0.75494 0.03485 0.62547 0.0
H1649 H 0.74969 0.99977 0.63579 0.0
C1650 C 0.52793 0.38474 0.74289 0.0
C1651 C 0.52265 0.40905 0.74276 0.0
C1652 C 0.50551 0.35739 0.73513 0.0
C1653 C 0.47736 0.35451 0.72674 0.0
C1654 C 0.47231 0.37935 0.72624 0.0
C1655 C 0.49493 0.40624 0.73442 0.0
C1656 C 0.51169 0.33143 0.73628 0.0
C1657 C 0.44293 0.37748 0.71717 0.0
C1658 C 0.42972 0.29042 0.69169 0.0
C1659 C 0.40656 0.27019 0.7041 0.0
C1660 C 0.45269 0.31803 0.69878 0.0
C1661 C 0.45295 0.32539 0.7189 0.0
C1662 C 0.42979 0.30492 0.73154 0.0
C1663 C 0.40675 0.27775 0.72395 0.0
C1664 C 0.4766 0.33939 0.6847 0.0
C1665 C 0.42949 0.31158 0.75317 0.0
H1666 H 0.54937 0.38705 0.7495 0.0
H1667 H 0.49107 0.42521 0.73435 0.0
H1668 H 0.49405 0.31299 0.74525 0.0
H1669 H 0.51 0.32302 0.7211 0.0
H1670 H 0.53477 0.33735 0.74313 0.0
H1671 H 0.44312 0.39912 0.71717 0.0
H1672 H 0.43926 0.36991 0.70155 0.0
H1673 H 0.42308 0.36087 0.72565 0.0
H1674 H 0.4297 0.28484 0.67632 0.0
H1675 H 0.38916 0.26215 0.73372 0.0
H1676 H 0.49986 0.34421 0.69051 0.0
H1677 H 0.47619 0.36075 0.68374 0.0
H1678 H 0.4729 0.3306 0.66941 0.0
H1679 H 0.45153 0.31597 0.761 0.0
H1680 H 0.41033 0.29305 0.76116 0.0
H1681 H 0.4273 0.33188 0.75414 0.0
C1682 C 0.6072 0.11093 0.74152 0.0
C1683 C 0.61565 0.13 0.75758 0.0
C1684 C 0.62952 0.10899 0.73095 0.0
C1685 C 0.66089 0.1265 0.73676 0.0
C1686 C 0.66926 0.14397 0.75404 0.0
C1687 C 0.64636 0.14549 0.76429 0.0
C1688 C 0.61966 0.08985 0.71278 0.0
C1689 C 0.70248 0.16259 0.76088 0.0
C1690 C 0.7223 0.11303 0.71666 0.0
C1691 C 0.73503 0.13595 0.70214 0.0
C1692 C 0.69749 0.10904 0.72763 0.0
C1693 C 0.68507 0.1284 0.72397 0.0
C1694 C 0.6967 0.15058 0.70861 0.0
C1695 C 0.72158 0.15407 0.69783 0.0
C1696 C 0.68555 0.08502 0.74377 0.0
C1697 C 0.68377 0.1715 0.70421 0.0
H1698 H 0.58322 0.09895 0.73656 0.0
H1699 H 0.65255 0.16026 0.77671 0.0
H1700 H 0.62659 0.10423 0.69909 0.0
H1701 H 0.6312 0.07606 0.71308 0.0
H1702 H 0.59438 0.07503 0.71171 0.0
H1703 H 0.70486 0.17266 0.77559 0.0
H1704 H 0.71427 0.14899 0.76204 0.0
H1705 H 0.71451 0.18069 0.74969 0.0
H1706 H 0.73243 0.09875 0.72 0.0
H1707 H 0.73136 0.17187 0.6867 0.0
H1708 H 0.66018 0.0715 0.74218 0.0
H1709 H 0.69108 0.09531 0.75865 0.0
H1710 H 0.69574 0.07007 0.74344 0.0
H1711 H 0.65851 0.15877 0.70145 0.0
H1712 H 0.69411 0.18633 0.69102 0.0
H1713 H 0.68815 0.18543 0.71736 0.0
C1714 C 0.87923 0.49924 0.75493 0.0
C1715 C 0.89901 0.49334 0.74446 0.0
C1716 C 0.87546 0.52408 0.74981 0.0
C1717 C 0.89197 0.54331 0.73386 0.0
C1718 C 0.91352 0.53838 0.72416 0.0
C1719 C 0.91675 0.51337 0.7296 0.0
C1720 C 0.85236 0.52859 0.76057 0.0
C1721 C 0.93176 0.55846 0.70721 0.0
C1722 C 0.85372 0.58046 0.70236 0.0
C1723 C 0.8693 0.60961 0.70922 0.0
C1724 C 0.86079 0.55875 0.7104 0.0
C1725 C 0.88406 0.56628 0.72571 0.0
C1726 C 0.89982 0.59559 0.73281 0.0
C1727 C 0.89225 0.61695 0.72447 0.0
C1728 C 0.84338 0.5277 0.70243 0.0
C1729 C 0.92473 0.60439 0.74912 0.0
H1730 H 0.86554 0.48353 0.76639 0.0
H1731 H 0.93234 0.50879 0.72179 0.0
H1732 H 0.86227 0.55205 0.76489 0.0
H1733 H 0.83204 0.52345 0.75041 0.0
H1734 H 0.84449 0.51411 0.7742 0.0
H1735 H 0.94998 0.55358 0.70284 0.0
H1736 H 0.91611 0.55558 0.69399 0.0
H1737 H 0.9426 0.58205 0.71143 0.0
H1738 H 0.8359 0.5745 0.69063 0.0
H1739 H 0.9043 0.63937 0.72995 0.0
H1740 H 0.8319 0.51153 0.71478 0.0
H1741 H 0.85959 0.52166 0.69606 0.0
H1742 H 0.82569 0.52538 0.69067 0.0
H1743 H 0.91549 0.59009 0.76266 0.0
H1744 H 0.93441 0.62795 0.75324 0.0
H1745 H 0.94362 0.60097 0.74419 0.0
C1746 C 0.47195 0.95155 0.24205 0.0
C1747 C 0.46606 0.92223 0.24509 0.0
C1748 C 0.48547 0.9676 0.2246 0.0
C1749 C 0.49387 0.95411 0.21011 0.0
C1750 C 0.49047 0.92541 0.21402 0.0
C1751 C 0.47637 0.9097 0.23148 0.0
C1752 C 0.48856 0.99808 0.22101 0.0
C1753 C 0.49973 0.9105 0.19915 0.0
C1754 C 0.48615 0.97572 0.15608 0.0
C1755 C 0.51657 0.99629 0.15189 0.0
C1756 C 0.47861 0.96177 0.17494 0.0
C1757 C 0.50215 0.96829 0.18994 0.0
C1758 C 0.53303 0.98878 0.18574 0.0
C1759 C 0.53986 1.0028 0.16675 0.0
C1760 C 0.44532 0.94037 0.17891 0.0
C1761 C 0.55873 0.99583 0.20127 0.0
H1762 H 0.46464 0.96137 0.25296 0.0
H1763 H 0.47185 0.88702 0.23398 0.0
H1764 H 0.51187 0.01406 0.21602 0.0
H1765 H 0.47186 0.99711 0.20891 0.0
H1766 H 0.48413 0.00663 0.2346 0.0
H1767 H 0.50025 0.89052 0.20577 0.0
H1768 H 0.48306 0.90359 0.18615 0.0
H1769 H 0.52271 0.92611 0.19346 0.0
H1770 H 0.4681 0.97094 0.14464 0.0
H1771 H 0.56343 0.01856 0.16343 0.0
H1772 H 0.43784 0.9482 0.19148 0.0
H1773 H 0.44259 0.91822 0.18337 0.0
H1774 H 0.42982 0.93785 0.16563 0.0
H1775 H 0.55504 0.00573 0.21443 0.0
H1776 H 0.58161 0.01149 0.1954 0.0
H1777 H 0.55882 0.97513 0.20658 0.0
C1778 C 0.09879 0.53418 0.23906 0.0
C1779 C 0.07853 0.52749 0.25444 0.0
C1780 C 0.08768 0.52693 0.21922 0.0
C1781 C 0.05553 0.51249 0.21483 0.0
C1782 C 0.03505 0.50343 0.2307 0.0
C1783 C 0.04686 0.51134 0.25032 0.0
C1784 C 0.11034 0.53714 0.20281 0.0
C1785 C 0.00067 0.48764 0.22679 0.0
C1786 C 0.02631 0.53217 0.16583 0.0
C1787 C 0.01847 0.5074 0.15428 0.0
C1788 C 0.03883 0.5342 0.18539 0.0
C1789 C 0.04345 0.51076 0.19374 0.0
C1790 C 0.03584 0.48578 0.18211 0.0
C1791 C 0.02357 0.48446 0.16246 0.0
C1792 C 0.04695 0.56143 0.19719 0.0
C1793 C 0.04014 0.46025 0.19054 0.0
H1794 H 0.12328 0.54716 0.24239 0.0
H1795 H 0.0314 0.50665 0.26233 0.0
H1796 H 0.10363 0.51937 0.19189 0.0
H1797 H 0.11039 0.55642 0.1946 0.0
H1798 H 0.13407 0.54393 0.2088 0.0
H1799 H 0.98811 0.47815 0.24076 0.0
H1800 H 0.99353 0.50353 0.21995 0.0
H1801 H 0.99371 0.46951 0.21611 0.0
H1802 H 0.02287 0.55017 0.15949 0.0
H1803 H 0.01735 0.46516 0.15364 0.0
H1804 H 0.07149 0.57203 0.20234 0.0
H1805 H 0.03308 0.55499 0.2107 0.0
H1806 H 0.04284 0.57808 0.18831 0.0
H1807 H 0.06433 0.4684 0.19595 0.0
H1808 H 0.03411 0.4429 0.17936 0.0
H1809 H 0.02553 0.44998 0.2036 0.0
C1810 C 0.46438 0.52952 0.2504 0.0
C1811 C 0.44235 0.53839 0.25285 0.0
C1812 C 0.46631 0.51845 0.23217 0.0
C1813 C 0.44556 0.51612 0.21604 0.0
C1814 C 0.42148 0.52256 0.2191 0.0
C1815 C 0.42021 0.53372 0.23754 0.0
C1816 C 0.49224 0.51175 0.2297 0.0
C1817 C 0.39862 0.52001 0.20243 0.0
C1818 C 0.47918 0.5302 0.16468 0.0
C1819 C 0.46799 0.50133 0.15792 0.0
C1820 C 0.47136 0.53524 0.18332 0.0
C1821 C 0.45167 0.51082 0.19553 0.0
C1822 C 0.43956 0.48163 0.18856 0.0
C1823 C 0.44797 0.47722 0.16989 0.0
C1824 C 0.48496 0.56675 0.19022 0.0
C1825 C 0.41826 0.45505 0.20101 0.0
H1826 H 0.48147 0.53331 0.26235 0.0
H1827 H 0.4034 0.54089 0.23948 0.0
H1828 H 0.48361 0.49013 0.22244 0.0
H1829 H 0.50944 0.52908 0.21987 0.0
H1830 H 0.50398 0.51119 0.24423 0.0
H1831 H 0.37857 0.52092 0.20805 0.0
H1832 H 0.40999 0.53857 0.19144 0.0
H1833 H 0.39027 0.49901 0.1944 0.0
H1834 H 0.49488 0.54892 0.15564 0.0
H1835 H 0.43887 0.45485 0.16464 0.0
H1836 H 0.49979 0.56977 0.20391 0.0
H1837 H 0.46641 0.57139 0.19412 0.0
H1838 H 0.49895 0.58331 0.17866 0.0
H1839 H 0.43073 0.45332 0.21487 0.0
H1840 H 0.40901 0.434 0.19286 0.0
H1841 H 0.39874 0.45773 0.20561 0.0
C1842 C 0.89948 0.45754 0.80093 0.0
C1843 C 0.91495 0.47031 0.78335 0.0
C1844 C 0.91291 0.46936 0.81959 0.0
C1845 C 0.94234 0.49483 0.82055 0.0
C1846 C 0.95687 0.50922 0.80264 0.0
C1847 C 0.94299 0.49665 0.78418 0.0
C1848 C 0.89657 0.45334 0.83828 0.0
C1849 C 0.98798 0.5367 0.80301 0.0
C1850 C 0.97061 0.53099 0.87111 0.0
C1851 C 0.98865 0.51824 0.87852 0.0
C1852 C 0.95601 0.52428 0.85201 0.0
C1853 C 0.95927 0.50408 0.8402 0.0
C1854 C 0.97777 0.49145 0.84753 0.0
C1855 C 0.99232 0.49878 0.86656 0.0
C1856 C 0.93677 0.53843 0.84459 0.0
C1857 C 0.98158 0.46956 0.83548 0.0
H1858 H 0.8775 0.43743 0.80007 0.0
H1859 H 0.9548 0.50641 0.77048 0.0
H1860 H 0.90926 0.44286 0.8462 0.0
H1861 H 0.89607 0.46917 0.84864 0.0
H1862 H 0.87261 0.43576 0.83493 0.0
H1863 H 0.99393 0.54762 0.78799 0.0
H1864 H 0.98873 0.55288 0.81362 0.0
H1865 H 0.00581 0.5306 0.80825 0.0
H1866 H 0.96798 0.54629 0.88026 0.0
H1867 H 0.00592 0.4886 0.87233 0.0
H1868 H 0.9124 0.5211 0.8425 0.0
H1869 H 0.94445 0.54955 0.82981 0.0
H1870 H 0.93801 0.55498 0.8551 0.0
H1871 H 0.95888 0.44973 0.83265 0.0
H1872 H -0.00275 0.46222 0.84317 0.0
H1873 H 0.99083 0.47964 0.82073 0.0
C1874 C 0.55403 0.50546 0.79131 0.0
C1875 C 0.57287 0.49268 0.78916 0.0
C1876 C 0.54946 0.51296 0.81021 0.0
C1877 C 0.56422 0.50765 0.82747 0.0
C1878 C 0.58558 0.49736 0.82509 0.0
C1879 C 0.58957 0.4899 0.80594 0.0
C1880 C 0.52656 0.52392 0.81185 0.0
C1881 C 0.60222 0.49176 0.84293 0.0
C1882 C 0.55709 0.53716 0.87706 0.0
C1883 C 0.53216 0.51212 0.88544 0.0
C1884 C 0.56835 0.53595 0.85851 0.0
C1885 C 0.55422 0.50915 0.84788 0.0
C1886 C 0.52931 0.48373 0.85639 0.0
C1887 C 0.51872 0.48549 0.87501 0.0
C1888 C 0.59515 0.56344 0.85017 0.0
C1889 C 0.51328 0.45472 0.84558 0.0
H1890 H 0.54079 0.50714 0.77834 0.0
H1891 H 0.60368 0.4795 0.80432 0.0
H1892 H 0.5054 0.50603 0.8185 0.0
H1893 H 0.53592 0.54314 0.82184 0.0
H1894 H 0.52016 0.53055 0.79704 0.0
H1895 H 0.62159 0.48868 0.83845 0.0
H1896 H 0.61125 0.51039 0.85342 0.0
H1897 H 0.58592 0.47139 0.85113 0.0
H1898 H 0.56792 0.55775 0.88507 0.0
H1899 H 0.49925 0.46611 0.88116 0.0
H1900 H 0.58779 0.57066 0.83597 0.0
H1901 H 0.61369 0.55854 0.84666 0.0
H1902 H 0.60469 0.58209 0.8607 0.0
H1903 H 0.50296 0.45776 0.8311 0.0
H1904 H 0.49484 0.43679 0.85441 0.0
H1905 H 0.53012 0.44747 0.8422 0.0
C1906 C 0.60182 0.12459 0.81599 0.0
C1907 C 0.58643 0.11267 0.79785 0.0
C1908 C 0.59676 0.10636 0.83319 0.0
C1909 C 0.5754 0.07567 0.83208 0.0
C1910 C 0.5625 0.06319 0.81322 0.0
C1911 C 0.56826 0.08196 0.79626 0.0
C1912 C 0.6115 0.12054 0.85289 0.0
C1913 C 0.53973 0.03064 0.81129 0.0
C1914 C 0.56043 0.02553 0.87858 0.0
C1915 C 0.53554 0.0268 0.88628 0.0
C1916 C 0.57381 0.04126 0.86089 0.0
C1917 C 0.56175 0.05834 0.85067 0.0
C1918 C 0.53627 0.05921 0.85826 0.0
C1919 C 0.52359 0.04354 0.87598 0.0
C1920 C 0.60112 0.04008 0.85335 0.0
C1921 C 0.52245 0.07693 0.84774 0.0
H1922 H 0.61565 0.14847 0.81705 0.0
H1923 H 0.55619 0.07306 0.78214 0.0
H1924 H 0.59459 0.12333 0.86129 0.0
H1925 H 0.6186 0.1063 0.8622 0.0
H1926 H 0.6319 0.14273 0.85072 0.0
H1927 H 0.53652 0.02353 0.79556 0.0
H1928 H 0.54719 0.01681 0.82076 0.0
H1929 H 0.51716 0.02635 0.81648 0.0
H1930 H 0.56988 0.0128 0.88665 0.0
H1931 H 0.50413 0.04426 0.88179 0.0
H1932 H 0.62153 0.06253 0.85378 0.0
H1933 H 0.59671 0.0332 0.83755 0.0
H1934 H 0.60668 0.0245 0.8624 0.0
H1935 H 0.53989 0.10078 0.84711 0.0
H1936 H 0.50217 0.07461 0.85535 0.0
H1937 H 0.51528 0.06961 0.83212 0.0
C1938 C 0.14935 0.26058 0.57233 0.0
C1939 C 0.14291 0.27691 0.58544 0.0
C1940 C 0.16124 0.27259 0.55357 0.0
C1941 C 0.16623 0.30137 0.54778 0.0
C1942 C 0.1612 0.31846 0.56145 0.0
C1943 C 0.14984 0.30606 0.58021 0.0
C1944 C 0.16679 0.25385 0.53955 0.0
C1945 C 0.16601 0.34912 0.55583 0.0
C1946 C 0.21029 0.34193 0.50164 0.0
C1947 C 0.18621 0.33546 0.48738 0.0
C1948 C 0.20426 0.33036 0.5213 0.0
C1949 C 0.17344 0.31238 0.52681 0.0
C1950 C 0.1491 0.3057 0.51241 0.0
C1951 C 0.1558 0.31718 0.49285 0.0
C1952 C 0.23077 0.33751 0.53618 0.0
C1953 C 0.1159 0.2869 0.51775 0.0
H1954 H 0.14368 0.23793 0.57637 0.0
H1955 H 0.14514 0.31866 0.59057 0.0
H1956 H 0.14892 0.24639 0.52724 0.0
H1957 H 0.18941 0.26702 0.53269 0.0
H1958 H 0.16604 0.23393 0.54728 0.0
H1959 H 0.16345 0.36035 0.56871 0.0
H1960 H 0.18918 0.36314 0.5499 0.0
H1961 H 0.14896 0.34753 0.5438 0.0
H1962 H 0.23383 0.35585 0.49735 0.0
H1963 H 0.13715 0.31243 0.48189 0.0
H1964 H 0.22927 0.31671 0.54284 0.0
H1965 H 0.22958 0.35029 0.54858 0.0
H1966 H 0.2534 0.35062 0.52927 0.0
H1967 H 0.11183 0.26485 0.52367 0.0
H1968 H 0.09972 0.28357 0.50473 0.0
H1969 H 0.11054 0.29759 0.5297 0.0
C1970 C 0.73429 0.84752 0.58145 0.0
C1971 C 0.76505 0.86933 0.58376 0.0
C1972 C 0.72042 0.83893 0.5623 0.0
C1973 C 0.73799 0.85239 0.54522 0.0
C1974 C 0.76987 0.87241 0.54768 0.0
C1975 C 0.78296 0.88083 0.56698 0.0
C1976 C 0.68639 0.8176 0.5604 0.0
C1977 C 0.78958 0.88689 0.52992 0.0
C1978 C 0.70362 0.82356 0.49346 0.0
C1979 C 0.69368 0.84386 0.48671 0.0
C1980 C 0.71811 0.82595 0.51248 0.0
C1981 C 0.72239 0.84896 0.52509 0.0
C1982 C 0.7121 0.86931 0.51839 0.0
C1983 C 0.69805 0.86661 0.49925 0.0
C1984 C 0.72917 0.80414 0.51898 0.0
C1985 C 0.71592 0.894 0.53145 0.0
H1986 H 0.72055 0.83907 0.59456 0.0
H1987 H 0.80673 0.89788 0.56898 0.0
H1988 H 0.67407 0.83003 0.55542 0.0
H1989 H 0.68139 0.80087 0.54897 0.0
H1990 H 0.67709 0.80592 0.57481 0.0
H1991 H 0.81448 0.89804 0.53428 0.0
H1992 H 0.78491 0.87028 0.51846 0.0
H1993 H 0.78398 0.90377 0.52293 0.0
H1994 H 0.70053 0.80611 0.48371 0.0
H1995 H 0.69007 0.88212 0.49416 0.0
H1996 H 0.71854 0.79258 0.53312 0.0
H1997 H 0.75442 0.81615 0.522 0.0
H1998 H 0.7237 0.78727 0.50753 0.0
H1999 H 0.70594 0.90747 0.52421 0.0
H2000 H 0.74068 0.90891 0.535 0.0
H2001 H 0.70468 0.88462 0.54583 0.0
C2002 C 0.08995 0.86597 0.57215 0.0
C2003 C 0.11055 0.86842 0.58804 0.0
C2004 C 0.09169 0.85543 0.55358 0.0
C2005 C 0.11459 0.84721 0.55097 0.0
C2006 C 0.13365 0.84731 0.5676 0.0
C2007 C 0.13141 0.85798 0.58591 0.0
C2008 C 0.07073 0.85547 0.53635 0.0
C2009 C 0.1582 0.83854 0.56563 0.0
C2010 C 0.11585 0.80928 0.50388 0.0
C2011 C 0.13789 0.83325 0.49276 0.0
C2012 C 0.10745 0.81345 0.52265 0.0
C2013 C 0.12142 0.84228 0.53053 0.0
C2014 C 0.14323 0.86662 0.51921 0.0
C2015 C 0.15116 0.86181 0.50052 0.0
C2016 C 0.08417 0.78695 0.53423 0.0
C2017 C 0.1586 0.89778 0.52698 0.0
H2018 H 0.07413 0.87445 0.57383 0.0
H2019 H 0.14742 0.86018 0.59827 0.0
H2020 H 0.08404 0.87423 0.52588 0.0
H2021 H 0.06137 0.83471 0.52789 0.0
H2022 H 0.05129 0.85791 0.54146 0.0
H2023 H 0.16824 0.83609 0.58042 0.0
H2024 H 0.14875 0.81734 0.55769 0.0
H2025 H 0.17693 0.85579 0.55665 0.0
H2026 H 0.10565 0.78707 0.49814 0.0
H2027 H 0.16777 0.88055 0.49192 0.0
H2028 H 0.06545 0.79101 0.53867 0.0
H2029 H 0.0953 0.78342 0.54819 0.0
H2030 H 0.07391 0.76633 0.52551 0.0
H2031 H 0.141 0.90399 0.53046 0.0
H2032 H 0.17435 0.9144 0.5161 0.0
H2033 H 0.17199 0.89889 0.54107 0.0
C2034 C 0.57779 0.82236 0.12537 0.0
C2035 C 0.59477 0.81631 0.11228 0.0
C2036 C 0.59053 0.83456 0.1441 0.0
C2037 C 0.62077 0.84039 0.14985 0.0
C2038 C 0.63871 0.83635 0.136 0.0
C2039 C 0.6255 0.82455 0.11729 0.0
C2040 C 0.57083 0.83906 0.15826 0.0
C2041 C 0.671 0.84222 0.1415 0.0
C2042 C 0.66172 0.88132 0.1974 0.0
C2043 C 0.6557 0.85759 0.21091 0.0
C2044 C 0.6499 0.87619 0.17754 0.0
C2045 C 0.63209 0.84666 0.17105 0.0
C2046 C 0.62579 0.82267 0.18471 0.0
C2047 C 0.63753 0.82844 0.20448 0.0
C2048 C 0.65666 0.90228 0.16348 0.0
C2049 C 0.60716 0.79083 0.17833 0.0
H2050 H 0.55395 0.81581 0.12146 0.0
H2051 H 0.6386 0.82015 0.10694 0.0
H2052 H 0.56317 0.82133 0.17008 0.0
H2053 H 0.58414 0.86064 0.16576 0.0
H2054 H 0.55012 0.83832 0.15047 0.0
H2055 H 0.68301 0.84129 0.12835 0.0
H2056 H 0.68469 0.86427 0.14831 0.0
H2057 H 0.67017 0.82533 0.15278 0.0
H2058 H 0.67556 0.90388 0.2024 0.0
H2059 H 0.63316 0.81006 0.21481 0.0
H2060 H 0.63491 0.90039 0.1567 0.0
H2061 H 0.67042 0.9023 0.15107 0.0
H2062 H 0.6695 0.92382 0.17112 0.0
H2063 H 0.58412 0.78649 0.17237 0.0
H2064 H 0.60415 0.77476 0.19084 0.0
H2065 H 0.61864 0.78673 0.16614 0.0
C2066 C 0.22231 0.84078 0.12401 0.0
C2067 C 0.23922 0.82597 0.12199 0.0
C2068 C 0.21734 0.84786 0.14296 0.0
C2069 C 0.22938 0.83965 0.16039 0.0
C2070 C 0.24879 0.82703 0.15825 0.0
C2071 C 0.25345 0.82034 0.13905 0.0
C2072 C 0.19677 0.86156 0.14434 0.0
C2073 C 0.26229 0.818 0.17629 0.0
C2074 C 0.22186 0.86612 0.21112 0.0
C2075 C 0.19456 0.84193 0.21786 0.0
C2076 C 0.23376 0.86567 0.19264 0.0
C2077 C 0.21815 0.84039 0.18054 0.0
C2078 C 0.19091 0.81573 0.18744 0.0
C2079 C 0.17951 0.81682 0.2059 0.0
C2080 C 0.26274 0.89246 0.18588 0.0
C2081 C 0.17356 0.78817 0.17519 0.0
H2082 H 0.21075 0.84448 0.11083 0.0
H2083 H 0.26587 0.8082 0.1375 0.0
H2084 H 0.17407 0.84445 0.14964 0.0
H2085 H 0.20664 0.87961 0.1553 0.0
H2086 H 0.19312 0.87065 0.12965 0.0
H2087 H 0.28064 0.81311 0.17222 0.0
H2088 H 0.27193 0.83567 0.18753 0.0
H2089 H 0.24389 0.79778 0.18344 0.0
H2090 H 0.23359 0.88575 0.2201 0.0
H2091 H 0.15876 0.79778 0.21105 0.0
H2092 H 0.25762 0.90221 0.17199 0.0
H2093 H 0.28 0.88584 0.18231 0.0
H2094 H 0.27301 0.9098 0.19738 0.0
H2095 H 0.16574 0.79383 0.16056 0.0
H2096 H 0.15317 0.77065 0.18282 0.0
H2097 H 0.18891 0.77901 0.17209 0.0
C2098 C 0.24034 0.4097 0.12919 0.0
C2099 C 0.21887 0.39073 0.11504 0.0
C2100 C 0.24123 0.39968 0.149 0.0
C2101 C 0.21987 0.37014 0.15464 0.0
C2102 C 0.2006 0.35014 0.13977 0.0
C2103 C 0.20052 0.36071 0.12008 0.0
C2104 C 0.26266 0.42156 0.16426 0.0
C2105 C 0.1775 0.31848 0.14501 0.0
C2106 C 0.21914 0.3377 0.20715 0.0
C2107 C 0.19719 0.34258 0.21597 0.0
C2108 C 0.22766 0.34739 0.18737 0.0
C2109 C 0.21346 0.36178 0.17612 0.0
C2110 C 0.19155 0.36703 0.1851 0.0
C2111 C 0.18385 0.35752 0.20491 0.0
C2112 C 0.25147 0.34188 0.17844 0.0
C2113 C 0.17547 0.38192 0.17357 0.0
H2114 H 0.25436 0.43298 0.12522 0.0
H2115 H 0.184 0.3462 0.10899 0.0
H2116 H 0.24965 0.42935 0.1728 0.0
H2117 H 0.27243 0.41101 0.17508 0.0
H2118 H 0.28179 0.4412 0.15707 0.0
H2119 H 0.16796 0.30471 0.13151 0.0
H2120 H 0.18799 0.30817 0.15543 0.0
H2121 H 0.15822 0.31823 0.15264 0.0
H2122 H 0.22972 0.32639 0.21575 0.0
H2123 H 0.16663 0.36103 0.2116 0.0
H2124 H 0.26984 0.36285 0.17202 0.0
H2125 H 0.24073 0.32614 0.16604 0.0
H2126 H 0.26211 0.33256 0.18964 0.0
H2127 H 0.19259 0.40378 0.16741 0.0
H2128 H 0.15989 0.38533 0.18297 0.0
H2129 H 0.16173 0.36812 0.16075 0.0
C2130 C 0.80096 0.55717 0.89551 0.0
C2131 C 0.78769 0.56815 0.90813 0.0
C2132 C 0.81651 0.57382 0.87867 0.0
C2133 C 0.81843 0.60188 0.87442 0.0
C2134 C 0.80673 0.61377 0.88793 0.0
C2135 C 0.79179 0.59683 0.90477 0.0
C2136 C 0.82927 0.56067 0.86486 0.0
C2137 C 0.80819 0.64352 0.88395 0.0
C2138 C 0.86936 0.65508 0.83443 0.0
C2139 C 0.8482 0.64871 0.81817 0.0
C2140 C 0.86031 0.63938 0.85274 0.0
C2141 C 0.8293 0.61727 0.85484 0.0
C2142 C 0.80794 0.61071 0.83841 0.0
C2143 C 0.81771 0.62639 0.82025 0.0
C2144 C 0.88377 0.64659 0.86986 0.0
C2145 C 0.77456 0.58759 0.84011 0.0
H2146 H 0.79793 0.53504 0.89836 0.0
H2147 H 0.78223 0.6055 0.91498 0.0
H2148 H 0.81469 0.55389 0.85088 0.0
H2149 H 0.85282 0.57737 0.86067 0.0
H2150 H 0.82996 0.54091 0.87174 0.0
H2151 H 0.80042 0.65065 0.89676 0.0
H2152 H 0.83196 0.66077 0.88069 0.0
H2153 H 0.79334 0.64224 0.87057 0.0
H2154 H 0.893 0.67219 0.83275 0.0
H2155 H 0.80124 0.62169 0.80776 0.0
H2156 H 0.88402 0.62612 0.8756 0.0
H2157 H 0.87746 0.65556 0.88238 0.0
H2158 H 0.9073 0.66311 0.86544 0.0
H2159 H 0.77269 0.56584 0.8448 0.0
H2160 H 0.76104 0.58486 0.82581 0.0
H2161 H 0.76406 0.59391 0.85176 0.0
C2162 C 0.42545 0.19465 0.90859 0.0
C2163 C 0.40596 0.19523 0.9225 0.0
C2164 C 0.41484 0.1865 0.88876 0.0
C2165 C 0.38415 0.17905 0.88287 0.0
C2166 C 0.3638 0.17721 0.89742 0.0
C2167 C 0.37498 0.18521 0.9171 0.0
C2168 C 0.43712 0.1882 0.87382 0.0
C2169 C 0.33093 0.16938 0.89188 0.0
C2170 C 0.36702 0.20098 0.83065 0.0
C2171 C 0.35114 0.17349 0.82138 0.0
C2172 C 0.37853 0.20309 0.85049 0.0
C2173 C 0.37434 0.1771 0.8613 0.0
C2174 C 0.35917 0.14939 0.85182 0.0
C2175 C 0.34756 0.14788 0.832 0.0
C2176 C 0.39433 0.23307 0.86009 0.0
C2177 C 0.35466 0.1213 0.86275 0.0
H2178 H 0.44948 0.20263 0.91286 0.0
H2179 H 0.36009 0.18572 0.92803 0.0
H2180 H 0.42616 0.16882 0.86393 0.0
H2181 H 0.44411 0.20846 0.86421 0.0
H2182 H 0.45812 0.18915 0.88128 0.0
H2183 H 0.31726 0.16559 0.90526 0.0
H2184 H 0.33059 0.18777 0.88268 0.0
H2185 H 0.31962 0.14918 0.88276 0.0
H2186 H 0.36961 0.22079 0.82257 0.0
H2187 H 0.33565 0.12663 0.8248 0.0
H2188 H 0.41759 0.2381 0.86604 0.0
H2189 H 0.38111 0.23281 0.87291 0.0
H2190 H 0.3966 0.25123 0.84946 0.0
H2191 H 0.37692 0.12427 0.86937 0.0
H2192 H 0.34466 0.10196 0.85279 0.0
H2193 H 0.33911 0.11625 0.87524 0.0
C2194 C 0.74979 0.20021 0.90246 0.0
C2195 C 0.77256 0.20549 0.91747 0.0
C2196 C 0.75042 0.18861 0.88402 0.0
C2197 C 0.77454 0.18242 0.88056 0.0
C2198 C 0.79609 0.18552 0.89635 0.0
C2199 C 0.79469 0.19685 0.91463 0.0
C2200 C 0.7266 0.1851 0.86779 0.0
C2201 C 0.82214 0.17915 0.89347 0.0
C2202 C 0.77525 0.14161 0.83479 0.0
C2203 C 0.79429 0.16526 0.82213 0.0
C2204 C 0.76764 0.14676 0.85354 0.0
C2205 C 0.77965 0.17624 0.85995 0.0
C2206 C 0.79835 0.20018 0.84705 0.0
C2207 C 0.8053 0.19441 0.82832 0.0
C2208 C 0.74726 0.12064 0.86667 0.0
C2209 C 0.81187 0.23198 0.85329 0.0
H2210 H 0.7328 0.20707 0.90466 0.0
H2211 H 0.81214 0.20083 0.92636 0.0
H2212 H 0.73717 0.20323 0.8564 0.0
H2213 H 0.71808 0.16378 0.86013 0.0
H2214 H 0.70674 0.18597 0.87376 0.0
H2215 H 0.83491 0.17962 0.90775 0.0
H2216 H 0.81337 0.15714 0.88674 0.0
H2217 H 0.83847 0.19603 0.88299 0.0
H2218 H 0.76633 0.11902 0.83002 0.0
H2219 H 0.82029 0.21281 0.81878 0.0
H2220 H 0.72787 0.12329 0.87158 0.0
H2221 H 0.76054 0.11967 0.88033 0.0
H2222 H 0.73781 0.09924 0.85893 0.0
H2223 H 0.79333 0.23653 0.85739 0.0
H2224 H 0.82511 0.24808 0.8413 0.0
H2225 H 0.82739 0.23582 0.86672 0.0
C2226 C 0.29099 0.15153 0.45199 0.0
C2227 C 0.26034 0.14401 0.44732 0.0
C2228 C 0.30471 0.16275 0.47074 0.0
C2229 C 0.28739 0.16688 0.48501 0.0
C2230 C 0.25721 0.16165 0.47968 0.0
C2231 C 0.24397 0.1501 0.46087 0.0
C2232 C 0.33692 0.16802 0.47577 0.0
C2233 C 0.23813 0.16621 0.49431 0.0
C2234 C 0.3054 0.15454 0.53939 0.0
C2235 C 0.32384 0.18364 0.54588 0.0
C2236 C 0.29322 0.14891 0.51969 0.0
C2237 C 0.29938 0.17298 0.50613 0.0
C2238 C 0.31759 0.20245 0.51265 0.0
C2239 C 0.32979 0.20744 0.53243 0.0
C2240 C 0.27416 0.11712 0.5133 0.0
C2241 C 0.32431 0.22864 0.4987 0.0
H2242 H 0.30362 0.1471 0.4413 0.0
H2243 H 0.2202 0.1441 0.45721 0.0
H2244 H 0.35112 0.18998 0.48262 0.0
H2245 H 0.33606 0.15093 0.48688 0.0
H2246 H 0.34841 0.16695 0.46239 0.0
H2247 H 0.21725 0.16563 0.48693 0.0
H2248 H 0.2308 0.14844 0.50609 0.0
H2249 H 0.25183 0.18774 0.5018 0.0
H2250 H 0.30105 0.13608 0.54965 0.0
H2251 H 0.34379 0.22998 0.53745 0.0
H2252 H 0.28517 0.11292 0.50087 0.0
H2253 H 0.25105 0.11301 0.50765 0.0
H2254 H 0.27132 0.10096 0.52571 0.0
H2255 H 0.33732 0.22834 0.48594 0.0
H2256 H 0.33785 0.25015 0.50629 0.0
H2257 H 0.3025 0.22718 0.4924 0.0
C2258 C 0.88788 0.17282 0.45553 0.0
C2259 C 0.90678 0.1601 0.4534 0.0
C2260 C 0.88272 0.17967 0.47448 0.0
C2261 C 0.89693 0.17372 0.49176 0.0
C2262 C 0.91843 0.16358 0.48944 0.0
C2263 C 0.92303 0.15682 0.47025 0.0
C2264 C 0.85975 0.19054 0.47607 0.0
C2265 C 0.93447 0.1573 0.50734 0.0
C2266 C 0.88811 0.20104 0.54169 0.0
C2267 C 0.86286 0.17566 0.54948 0.0
C2268 C 0.89999 0.20064 0.52322 0.0
C2269 C 0.8862 0.17433 0.51208 0.0
C2270 C 0.86099 0.14855 0.52 0.0
C2271 C 0.84976 0.14951 0.53856 0.0
C2272 C 0.92707 0.22848 0.51549 0.0
C2273 C 0.84533 0.12005 0.50861 0.0
H2274 H 0.87499 0.17488 0.44249 0.0
H2275 H 0.93718 0.14646 0.46862 0.0
H2276 H 0.8383 0.17236 0.48222 0.0
H2277 H 0.86871 0.20927 0.48645 0.0
H2278 H 0.85396 0.19784 0.46131 0.0
H2279 H 0.95404 0.15446 0.50298 0.0
H2280 H 0.94309 0.17548 0.51816 0.0
H2281 H 0.91789 0.13661 0.5151 0.0
H2282 H 0.89869 0.22126 0.55011 0.0
H2283 H 0.83007 0.12989 0.54428 0.0
H2284 H 0.92016 0.23628 0.50136 0.0
H2285 H 0.94575 0.22376 0.51203 0.0
H2286 H 0.93625 0.24666 0.52638 0.0
H2287 H 0.83544 0.12368 0.49413 0.0
H2288 H 0.82661 0.10174 0.51704 0.0
H2289 H 0.86231 0.11299 0.5052 0.0
C2290 C 0.87044 0.69468 0.45449 0.0
C2291 C 0.88644 0.72517 0.45024 0.0
C2292 C 0.86997 0.68357 0.47409 0.0
C2293 C 0.88552 0.70362 0.48976 0.0
C2294 C 0.90422 0.73421 0.48513 0.0
C2295 C 0.9045 0.74462 0.46531 0.0
C2296 C 0.85017 0.65076 0.47826 0.0
C2297 C 0.92118 0.75639 0.50131 0.0
C2298 C 0.84314 0.68238 0.53811 0.0
C2299 C 0.85991 0.67177 0.55015 0.0
C2300 C 0.85172 0.69332 0.51862 0.0
C2301 C 0.87762 0.69344 0.51085 0.0
C2302 C 0.89492 0.68309 0.523 0.0
C2303 C 0.88594 0.6725 0.54258 0.0
C2304 C 0.83281 0.7045 0.50628 0.0
C2305 C 0.92248 0.68267 0.51519 0.0
H2306 H 0.85623 0.67988 0.44273 0.0
H2307 H 0.91642 0.76826 0.4619 0.0
H2308 H 0.86193 0.64241 0.48926 0.0
H2309 H 0.8285 0.64677 0.48478 0.0
H2310 H 0.84424 0.63777 0.46443 0.0
H2311 H 0.93893 0.77796 0.49511 0.0
H2312 H 0.90456 0.76034 0.50915 0.0
H2313 H 0.93237 0.74779 0.51258 0.0
H2314 H 0.82333 0.68233 0.54402 0.0
H2315 H 0.89888 0.66417 0.55183 0.0
H2316 H 0.82241 0.69076 0.49287 0.0
H2317 H 0.84773 0.72766 0.50098 0.0
H2318 H 0.81407 0.70391 0.5148 0.0
H2319 H 0.9151 0.66738 0.50249 0.0
H2320 H 0.93443 0.67539 0.52685 0.0
H2321 H 0.93906 0.70505 0.50943 0.0
loop_
_geom_bond_atom_site_label_1
_geom_bond_atom_site_label_2
_geom_bond_distance
_geom_bond_site_symmetry_2
_ccdc_geom_bond_type
C0 N1 1.317 . S
C0 N2 1.348 . S
C0 C3 1.485 . S
N1 C0 1.317 . S
N1 N5 1.370 . S
N2 C0 1.348 . S
N2 C4 1.346 . S
C3 C0 1.485 . S
C3 H7 0.960 . S
C3 H8 0.961 . S
C3 H9 0.960 . S
C4 N2 1.346 . S
C4 N5 1.307 . S
C4 C6 1.486 . S
N5 N1 1.370 . S
N5 C4 1.307 . S
C6 C4 1.486 . S
C6 H10 0.960 . S
C6 H11 0.960 . S
C6 H12 0.959 . S
H7 C3 0.960 . S
H8 C3 0.961 . S
H9 C3 0.960 . S
H10 C6 0.960 . S
H11 C6 0.960 . S
H12 C6 0.959 . S
C13 N14 1.317 . S
C13 N15 1.348 . S
C13 C16 1.485 . S
N14 C13 1.317 . S
N14 N18 1.370 . S
N15 C13 1.348 . S
N15 C17 1.346 . S
C16 C13 1.485 . S
C16 H20 0.960 . S
C16 H21 0.961 . S
C16 H22 0.960 . S
C17 N15 1.346 . S
C17 N18 1.307 . S
C17 C19 1.486 . S
N18 N14 1.370 . S
N18 C17 1.307 . S
C19 C17 1.486 . S
C19 H23 0.960 . S
C19 H24 0.960 . S
C19 H25 0.959 . S
H20 C16 0.960 . S
H21 C16 0.961 . S
H22 C16 0.960 . S
H23 C19 0.960 . S
H24 C19 0.960 . S
H25 C19 0.959 . S
C26 N27 1.317 . S
C26 N28 1.348 . S
C26 C29 1.485 . S
N27 C26 1.317 . S
N27 N31 1.370 . S
N28 C26 1.348 . S
N28 C30 1.346 . S
C29 C26 1.485 . S
C29 H33 0.960 . S
C29 H34 0.961 . S
C29 H35 0.960 . S
C30 N28 1.346 . S
C30 N31 1.307 . S
C30 C32 1.486 . S
N31 N27 1.370 . S
N31 C30 1.307 . S
C32 C30 1.486 . S
C32 H36 0.960 . S
C32 H37 0.960 . S
C32 H38 0.959 . S
H33 C29 0.960 . S
H34 C29 0.961 . S
H35 C29 0.960 . S
H36 C32 0.960 . S
H37 C32 0.960 . S
H38 C32 0.959 . S
C39 N40 1.317 . S
C39 N41 1.348 . S
C39 C42 1.485 . S
N40 C39 1.317 . S
N40 N44 1.370 . S
N41 C39 1.348 . S
N41 C43 1.346 . S
C42 C39 1.485 . S
C42 H46 0.960 . S
C42 H47 0.961 . S
C42 H48 0.960 . S
C43 N41 1.346 . S
C43 N44 1.307 . S
C43 C45 1.486 . S
N44 N40 1.370 . S
N44 C43 1.307 . S
C45 C43 1.486 . S
C45 H49 0.960 . S
C45 H50 0.960 . S
C45 H51 0.959 . S
H46 C42 0.960 . S
H47 C42 0.961 . S
H48 C42 0.960 . S
H49 C45 0.960 . S
H50 C45 0.960 . S
H51 C45 0.959 . S
C52 N53 1.317 . S
C52 N54 1.348 . S
C52 C55 1.485 . S
N53 C52 1.317 . S
N53 N57 1.370 . S
N54 C52 1.348 . S
N54 C56 1.346 . S
C55 C52 1.485 . S
C55 H59 0.960 . S
C55 H60 0.961 . S
C55 H61 0.960 . S
C56 N54 1.346 . S
C56 N57 1.307 . S
C56 C58 1.486 . S
N57 N53 1.370 . S
N57 C56 1.307 . S
C58 C56 1.486 . S
C58 H62 0.960 . S
C58 H63 0.960 . S
C58 H64 0.959 . S
H59 C55 0.960 . S
H60 C55 0.961 . S
H61 C55 0.960 . S
H62 C58 0.960 . S
H63 C58 0.960 . S
H64 C58 0.959 . S
C65 N66 1.317 . S
C65 N67 1.348 . S
C65 C68 1.485 . S
N66 C65 1.317 . S
N66 N70 1.370 . S
N67 C65 1.348 . S
N67 C69 1.346 . S
C68 C65 1.485 . S
C68 H72 0.960 . S
C68 H73 0.961 . S
C68 H74 0.960 . S
C69 N67 1.346 . S
C69 N70 1.307 . S
C69 C71 1.486 . S
N70 N66 1.370 . S
N70 C69 1.307 . S
C71 C69 1.486 . S
C71 H75 0.960 . S
C71 H76 0.960 . S
C71 H77 0.959 . S
H72 C68 0.960 . S
H73 C68 0.961 . S
H74 C68 0.960 . S
H75 C71 0.960 . S
H76 C71 0.960 . S
H77 C71 0.959 . S
C78 N79 1.317 . S
C78 N80 1.348 . S
C78 C81 1.485 . S
N79 C78 1.317 . S
N79 N83 1.370 . S
N80 C78 1.348 . S
N80 C82 1.346 . S
C81 C78 1.485 . S
C81 H85 0.960 . S
C81 H86 0.961 . S
C81 H87 0.960 . S
C82 N80 1.346 . S
C82 N83 1.307 . S
C82 C84 1.486 . S
N83 N79 1.370 . S
N83 C82 1.307 . S
C84 C82 1.486 . S
C84 H88 0.960 . S
C84 H89 0.960 . S
C84 H90 0.959 . S
H85 C81 0.960 . S
H86 C81 0.961 . S
H87 C81 0.960 . S
H88 C84 0.960 . S
H89 C84 0.960 . S
H90 C84 0.959 . S
C91 N92 1.317 . S
C91 N93 1.348 . S
C91 C94 1.485 . S
N92 C91 1.317 . S
N92 N96 1.370 . S
N93 C91 1.348 . S
N93 C95 1.346 . S
C94 C91 1.485 . S
C94 H98 0.960 . S
C94 H99 0.961 . S
C94 H100 0.960 . S
C95 N93 1.346 . S
C95 N96 1.307 . S
C95 C97 1.486 . S
N96 N92 1.370 . S
N96 C95 1.307 . S
C97 C95 1.486 . S
C97 H101 0.960 . S
C97 H102 0.960 . S
C97 H103 0.959 . S
H98 C94 0.960 . S
H99 C94 0.961 . S
H100 C94 0.960 . S
H101 C97 0.960 . S
H102 C97 0.960 . S
H103 C97 0.959 . S
C104 N105 1.317 . S
C104 N106 1.348 . S
C104 C107 1.485 . S
N105 C104 1.317 . S
N105 N109 1.370 . S
N106 C104 1.348 . S
N106 C108 1.346 . S
C107 C104 1.485 . S
C107 H111 0.960 . S
C107 H112 0.961 . S
C107 H113 0.960 . S
C108 N106 1.346 . S
C108 N109 1.307 . S
C108 C110 1.486 . S
N109 N105 1.370 . S
N109 C108 1.307 . S
C110 C108 1.486 . S
C110 H114 0.960 . S
C110 H115 0.960 . S
C110 H116 0.959 . S
H111 C107 0.960 . S
H112 C107 0.961 . S
H113 C107 0.960 . S
H114 C110 0.960 . S
H115 C110 0.960 . S
H116 C110 0.959 . S
C117 N118 1.317 . S
C117 N119 1.348 . S
C117 C120 1.485 . S
N118 C117 1.317 . S
N118 N122 1.370 . S
N119 C117 1.348 . S
N119 C121 1.346 . S
C120 C117 1.485 . S
C120 H124 0.960 . S
C120 H125 0.961 . S
C120 H126 0.960 . S
C121 N119 1.346 . S
C121 N122 1.307 . S
C121 C123 1.486 . S
N122 N118 1.370 . S
N122 C121 1.307 . S
C123 C121 1.486 . S
C123 H127 0.960 . S
C123 H128 0.960 . S
C123 H129 0.959 . S
H124 C120 0.960 . S
H125 C120 0.961 . S
H126 C120 0.960 . S
H127 C123 0.960 . S
H128 C123 0.960 . S
H129 C123 0.959 . S
C130 N131 1.317 . S
C130 N132 1.348 . S
C130 C133 1.485 1_556 S
N131 C130 1.317 . S
N131 N135 1.370 . S
N132 C130 1.348 . S
N132 C134 1.346 . S
C133 C130 1.485 1_554 S
C133 H137 0.960 . S
C133 H138 0.961 . S
C133 H139 0.960 . S
C134 N132 1.346 . S
C134 N135 1.307 . S
C134 C136 1.486 . S
N135 N131 1.370 . S
N135 C134 1.307 . S
C136 C134 1.486 . S
C136 H140 0.960 . S
C136 H141 0.960 . S
C136 H142 0.959 . S
H137 C133 0.960 . S
H138 C133 0.961 . S
H139 C133 0.960 . S
H140 C136 0.960 . S
H141 C136 0.960 . S
H142 C136 0.959 . S
C143 N144 1.317 . S
C143 N145 1.348 . S
C143 C146 1.485 1_556 S
N144 C143 1.317 . S
N144 N148 1.370 . S
N145 C143 1.348 . S
N145 C147 1.346 . S
C146 C143 1.485 1_554 S
C146 H150 0.960 . S
C146 H151 0.961 . S
C146 H152 0.960 . S
C147 N145 1.346 . S
C147 N148 1.307 . S
C147 C149 1.486 . S
N148 N144 1.370 . S
N148 C147 1.307 . S
C149 C147 1.486 . S
C149 H153 0.960 . S
C149 H154 0.960 . S
C149 H155 0.959 . S
H150 C146 0.960 . S
H151 C146 0.961 . S
H152 C146 0.960 . S
H153 C149 0.960 . S
H154 C149 0.960 . S
H155 C149 0.959 . S
C156 N157 1.317 . S
C156 N158 1.348 . S
C156 C159 1.485 . S
N157 C156 1.317 . S
N157 N161 1.370 . S
N158 C156 1.348 . S
N158 C160 1.346 . S
C159 C156 1.485 . S
C159 H163 0.960 . S
C159 H164 0.965 1_554 S
C159 H165 0.960 . S
C160 N158 1.346 . S
C160 N161 1.307 . S
C160 C162 1.486 . S
N161 N157 1.370 . S
N161 C160 1.307 . S
C162 C160 1.486 . S
C162 H166 0.960 . S
C162 H167 0.960 . S
C162 H168 0.959 . S
H163 C159 0.960 . S
H164 C159 0.965 1_556 S
H165 C159 0.960 . S
H166 C162 0.960 . S
H167 C162 0.960 . S
H168 C162 0.959 . S
C169 N170 1.317 . S
C169 N171 1.348 . S
C169 C172 1.485 . S
N170 C169 1.317 . S
N170 N174 1.370 . S
N171 C169 1.348 . S
N171 C173 1.346 . S
C172 C169 1.485 . S
C172 H176 0.960 . S
C172 H177 0.961 . S
C172 H178 0.960 . S
C173 N171 1.346 . S
C173 N174 1.307 . S
C173 C175 1.486 . S
N174 N170 1.370 . S
N174 C173 1.307 . S
C175 C173 1.486 . S
C175 H179 0.960 . S
C175 H180 0.960 . S
C175 H181 0.959 . S
H176 C172 0.960 . S
H177 C172 0.961 . S
H178 C172 0.960 . S
H179 C175 0.960 . S
H180 C175 0.960 . S
H181 C175 0.959 . S
C182 N183 1.317 . S
C182 N184 1.348 . S
C182 C185 1.485 . S
N183 C182 1.317 . S
N183 N187 1.370 . S
N184 C182 1.348 . S
N184 C186 1.346 . S
C185 C182 1.485 . S
C185 H189 0.960 . S
C185 H190 0.961 . S
C185 H191 0.960 . S
C186 N184 1.346 . S
C186 N187 1.307 . S
C186 C188 1.486 . S
N187 N183 1.370 . S
N187 C186 1.307 . S
C188 C186 1.486 . S
C188 H192 0.960 . S
C188 H193 0.960 . S
C188 H194 0.959 . S
H189 C185 0.960 . S
H190 C185 0.961 . S
H191 C185 0.960 . S
H192 C188 0.960 . S
H193 C188 0.960 . S
H194 C188 0.959 . S
C195 N196 1.317 . S
C195 N197 1.348 . S
C195 C198 1.485 . S
N196 C195 1.317 . S
N196 N200 1.370 . S
N197 C195 1.348 . S
N197 C199 1.346 . S
C198 C195 1.485 . S
C198 H202 0.960 . S
C198 H203 0.961 . S
C198 H204 0.960 . S
C199 N197 1.346 . S
C199 N200 1.307 . S
C199 C201 1.486 . S
N200 N196 1.370 . S
N200 C199 1.307 . S
C201 C199 1.486 . S
C201 H205 0.960 . S
C201 H206 0.960 . S
C201 H207 0.959 . S
H202 C198 0.960 . S
H203 C198 0.961 . S
H204 C198 0.960 . S
H205 C201 0.960 . S
H206 C201 0.960 . S
H207 C201 0.959 . S
C208 N209 1.317 . S
C208 N210 1.348 . S
C208 C211 1.485 . S
N209 C208 1.317 . S
N209 N213 1.370 . S
N210 C208 1.348 . S
N210 C212 1.346 . S
C211 C208 1.485 . S
C211 H215 0.960 . S
C211 H216 0.961 . S
C211 H217 0.960 . S
C212 N210 1.346 . S
C212 N213 1.307 . S
C212 C214 1.486 . S
N213 N209 1.370 . S
N213 C212 1.307 . S
C214 C212 1.486 . S
C214 H218 0.960 . S
C214 H219 0.960 . S
C214 H220 0.959 . S
H215 C211 0.960 . S
H216 C211 0.961 . S
H217 C211 0.960 . S
H218 C214 0.960 . S
H219 C214 0.960 . S
H220 C214 0.959 . S
C221 N222 1.317 . S
C221 N223 1.348 . S
C221 C224 1.485 . S
N222 C221 1.317 . S
N222 N226 1.370 . S
N223 C221 1.348 . S
N223 C225 1.346 . S
C224 C221 1.485 . S
C224 H228 0.960 . S
C224 H229 0.961 . S
C224 H230 0.960 . S
C225 N223 1.346 . S
C225 N226 1.307 . S
C225 C227 1.486 . S
N226 N222 1.370 . S
N226 C225 1.307 . S
C227 C225 1.486 . S
C227 H231 0.960 . S
C227 H232 0.960 . S
C227 H233 0.959 . S
H228 C224 0.960 . S
H229 C224 0.961 . S
H230 C224 0.960 . S
H231 C227 0.960 . S
H232 C227 0.960 . S
H233 C227 0.959 . S
Eu234 C243 2.828 1_565 S
Eu234 O245 2.392 1_556 S
Eu234 O247 2.418 . S
Eu234 O252 2.373 1_565 S
Eu234 O255 2.488 . S
Eu234 O256 2.471 1_565 S
Eu234 O257 2.349 1_566 S
Eu235 O244 2.373 1_545 S
Eu235 O248 2.488 . S
Eu235 O249 2.471 1_545 S
Eu235 O250 2.349 1_545 S
Eu235 O253 2.392 . S
Eu235 O254 2.418 . S
Eu235 C264 2.828 1_545 S
C236 O254 1.244 . S
C236 O257 1.265 . S
C237 C238 1.379 . S
C237 C241 1.373 . S
C237 C243 1.505 . S
C238 C237 1.379 . S
C238 C240 1.369 . S
C238 H266 0.930 . S
C239 C241 1.383 . S
C239 C242 1.382 . S
C239 H267 0.930 . S
C240 C238 1.369 . S
C240 C242 1.392 . S
C240 H268 0.930 . S
C241 C237 1.373 . S
C241 C239 1.383 . S
C241 H269 0.931 1_545 S
C242 C239 1.382 . S
C242 C240 1.392 . S
C243 Eu234 2.828 1_545 S
C243 C237 1.505 . S
C243 O255 1.249 1_545 S
C243 O256 1.244 . S
O244 Eu235 2.373 1_565 S
O244 C246 1.258 . S
O245 Eu234 2.392 1_554 S
O245 C246 1.242 . S
C246 O244 1.258 . S
C246 O245 1.242 . S
O247 Eu234 2.418 . S
O247 C251 1.244 1_556 S
O248 Eu235 2.488 . S
O248 C264 1.249 1_545 S
O249 Eu235 2.471 1_565 S
O249 C264 1.244 . S
O250 Eu235 2.349 1_565 S
O250 C251 1.265 . S
C251 O247 1.244 1_554 S
C251 O250 1.265 . S
O252 Eu234 2.373 1_545 S
O252 C265 1.245 1_556 S
O253 Eu235 2.392 . S
O253 C265 1.261 . S
O254 Eu235 2.418 . S
O254 C236 1.244 . S
O255 Eu234 2.488 . S
O255 C243 1.249 1_565 S
O256 Eu234 2.471 1_545 S
O256 C243 1.244 . S
O257 Eu234 2.349 1_544 S
O257 C236 1.265 . S
C258 C259 1.379 . S
C258 C262 1.373 . S
C258 C264 1.505 . S
C259 C258 1.379 . S
C259 C261 1.369 . S
C259 H270 0.930 . S
C260 C262 1.383 . S
C260 C263 1.382 . S
C260 H271 0.930 . S
C261 C259 1.369 . S
C261 C263 1.392 . S
C261 H272 0.930 . S
C262 C258 1.373 . S
C262 C260 1.383 . S
C262 H273 0.931 1_565 S
C263 C260 1.382 . S
C263 C261 1.392 . S
C264 Eu235 2.828 1_565 S
C264 O248 1.249 1_565 S
C264 O249 1.244 . S
C264 C258 1.505 . S
C265 O252 1.245 1_554 S
C265 O253 1.261 . S
H266 C238 0.930 . S
H267 C239 0.930 . S
H268 C240 0.930 . S
H269 C241 0.931 1_565 S
H270 C259 0.930 . S
H271 C260 0.930 . S
H272 C261 0.930 . S
H273 C262 0.931 1_545 S
Eu274 C283 2.828 . S
Eu274 O285 2.392 1_556 S
Eu274 O287 2.418 . S
Eu274 O292 2.373 1_455 S
Eu274 O295 2.488 . S
Eu274 O296 2.458 1_455 S
Eu274 O297 2.349 1_455 S
Eu275 O284 2.373 1_655 S
Eu275 O288 2.488 . S
Eu275 O289 2.471 1_655 S
Eu275 O290 2.349 1_655 S
Eu275 O293 2.392 . S
Eu275 O294 2.418 . S
Eu275 C304 2.828 1_655 S
C276 O294 1.244 . S
C276 O297 1.265 1_554 S
C277 C278 1.379 . S
C277 C281 1.373 1_655 S
C277 C283 1.505 1_655 S
C278 C277 1.379 . S
C278 C280 1.369 . S
C278 H306 0.930 . S
C279 C281 1.383 . S
C279 C282 1.382 1_455 S
C279 H307 0.930 . S
C280 C278 1.369 . S
C280 C282 1.392 . S
C280 H308 0.930 . S
C281 C277 1.373 1_455 S
C281 C279 1.383 . S
C281 H309 0.931 . S
C282 C279 1.382 1_655 S
C282 C280 1.392 . S
C283 Eu274 2.828 . S
C283 C277 1.505 1_455 S
C283 O295 1.249 . S
C283 O296 1.243 1_455 S
O284 Eu275 2.373 1_455 S
O284 C286 1.258 . S
O285 Eu274 2.392 1_554 S
O285 C286 1.242 . S
C286 O284 1.258 . S
C286 O285 1.242 . S
O287 Eu274 2.418 . S
O287 C291 1.244 1_556 S
O288 Eu275 2.488 . S
O288 C304 1.249 1_655 S
O289 Eu275 2.471 1_455 S
O289 C304 1.244 . S
O290 Eu275 2.349 1_455 S
O290 C291 1.265 . S
C291 O287 1.244 1_554 S
C291 O290 1.265 . S
O292 Eu274 2.373 1_655 S
O292 C305 1.258 . S
O293 Eu275 2.392 . S
O293 C305 1.242 1_554 S
O294 Eu275 2.418 . S
O294 C276 1.244 . S
O295 Eu274 2.488 . S
O295 C283 1.249 . S
O296 Eu274 2.458 1_655 S
O296 C283 1.243 1_655 S
O297 Eu274 2.349 1_655 S
O297 C276 1.265 1_556 S
C298 C299 1.379 . S
C298 C302 1.365 1_455 S
C298 C304 1.505 . S
C299 C298 1.379 . S
C299 C301 1.369 . S
C299 H310 0.930 . S
C300 C302 1.374 1_455 S
C300 C303 1.382 . S
C300 H311 0.930 1_455 S
C301 C299 1.369 . S
C301 C303 1.392 . S
C301 H312 0.930 . S
C302 C298 1.365 1_655 S
C302 C300 1.374 1_655 S
C302 H313 0.948 . S
C303 C300 1.382 . S
C303 C301 1.392 . S
C304 Eu275 2.828 1_455 S
C304 O288 1.249 1_455 S
C304 O289 1.244 . S
C304 C298 1.505 . S
C305 O292 1.258 . S
C305 O293 1.242 1_556 S
H306 C278 0.930 . S
H307 C279 0.930 . S
H308 C280 0.930 . S
H309 C281 0.931 . S
H310 C299 0.930 . S
H311 C300 0.930 1_655 S
H312 C301 0.930 . S
H313 C302 0.948 . S
Eu314 C323 2.828 . S
Eu314 O325 2.392 . S
Eu314 O327 2.418 . S
Eu314 O332 2.373 . S
Eu314 O335 2.488 . S
Eu314 O336 2.471 . S
Eu314 O337 2.349 . S
Eu315 O324 2.373 . S
Eu315 O328 2.488 . S
Eu315 O329 2.471 . S
Eu315 O330 2.349 1_556 S
Eu315 O333 2.392 1_556 S
Eu315 O334 2.430 . S
Eu315 C344 2.828 . S
C316 O334 1.200 1_554 S
C316 O337 1.265 . S
C317 C318 1.379 . S
C317 C321 1.373 . S
C317 C323 1.505 . S
C318 C317 1.379 . S
C318 C320 1.369 . S
C318 H346 0.930 . S
C319 C321 1.383 . S
C319 C322 1.382 . S
C319 H347 0.930 . S
C320 C318 1.369 . S
C320 C322 1.392 . S
C320 H348 0.930 . S
C321 C317 1.373 . S
C321 C319 1.383 . S
C321 H349 0.931 . S
C322 C319 1.382 . S
C322 C320 1.392 . S
C323 Eu314 2.828 . S
C323 C317 1.505 . S
C323 O335 1.249 . S
C323 O336 1.244 . S
O324 Eu315 2.373 . S
O324 C326 1.235 1_556 S
O325 Eu314 2.392 . S
O325 C326 1.288 . S
C326 O324 1.235 1_554 S
C326 O325 1.288 . S
O327 Eu314 2.418 . S
O327 C331 1.244 . S
O328 Eu315 2.488 . S
O328 C344 1.249 . S
O329 Eu315 2.471 . S
O329 C344 1.244 . S
O330 Eu315 2.349 1_554 S
O330 C331 1.265 . S
C331 O327 1.244 . S
C331 O330 1.265 . S
O332 Eu314 2.373 . S
O332 C345 1.258 . S
O333 Eu315 2.392 1_554 S
O333 C345 1.242 . S
O334 Eu315 2.430 . S
O334 C316 1.200 1_556 S
O335 Eu314 2.488 . S
O335 C323 1.249 . S
O336 Eu314 2.471 . S
O336 C323 1.244 . S
O337 Eu314 2.349 . S
O337 C316 1.265 . S
C338 C339 1.379 . S
C338 C342 1.373 . S
C338 C344 1.505 . S
C339 C338 1.379 . S
C339 C341 1.369 . S
C339 H350 0.930 . S
C340 C342 1.383 . S
C340 C343 1.382 . S
C340 H351 0.930 . S
C341 C339 1.369 . S
C341 C343 1.392 . S
C341 H352 0.930 . S
C342 C338 1.373 . S
C342 C340 1.383 . S
C342 H353 0.931 . S
C343 C340 1.382 . S
C343 C341 1.392 . S
C344 Eu315 2.828 . S
C344 O328 1.249 . S
C344 O329 1.244 . S
C344 C338 1.505 . S
C345 O332 1.258 . S
C345 O333 1.242 . S
H346 C318 0.930 . S
H347 C319 0.930 . S
H348 C320 0.930 . S
H349 C321 0.931 . S
H350 C339 0.930 . S
H351 C340 0.930 . S
H352 C341 0.930 . S
H353 C342 0.931 . S
Eu354 C363 2.828 . S
Eu354 O365 2.392 . S
Eu354 O367 2.418 . S
Eu354 O372 2.373 . S
Eu354 O375 2.488 . S
Eu354 O376 2.471 . S
Eu354 O377 2.349 . S
Eu355 O364 2.373 . S
Eu355 O368 2.488 . S
Eu355 O369 2.471 . S
Eu355 O370 2.349 . S
Eu355 O373 2.392 . S
Eu355 O374 2.418 . S
Eu355 C384 2.828 . S
C356 O374 1.244 . S
C356 O377 1.265 . S
C357 C358 1.379 . S
C357 C361 1.373 . S
C357 C363 1.505 . S
C358 C357 1.379 . S
C358 C360 1.369 . S
C358 H386 0.930 . S
C359 C361 1.383 . S
C359 C362 1.382 . S
C359 H387 0.930 . S
C360 C358 1.369 . S
C360 C362 1.392 . S
C360 H388 0.930 . S
C361 C357 1.373 . S
C361 C359 1.383 . S
C361 H389 0.931 . S
C362 C359 1.382 . S
C362 C360 1.392 . S
C363 Eu354 2.828 . S
C363 C357 1.505 . S
C363 O375 1.249 . S
C363 O376 1.244 . S
O364 Eu355 2.373 . S
O364 C366 1.258 . S
O365 Eu354 2.392 . S
O365 C366 1.242 . S
C366 O364 1.258 . S
C366 O365 1.242 . S
O367 Eu354 2.418 . S
O367 C371 1.244 . S
O368 Eu355 2.488 . S
O368 C384 1.249 . S
O369 Eu355 2.471 . S
O369 C384 1.244 . S
O370 Eu355 2.349 . S
O370 C371 1.265 . S
C371 O367 1.244 . S
C371 O370 1.265 . S
O372 Eu354 2.373 . S
O372 C385 1.258 . S
O373 Eu355 2.392 . S
O373 C385 1.242 . S
O374 Eu355 2.418 . S
O374 C356 1.244 . S
O375 Eu354 2.488 . S
O375 C363 1.249 . S
O376 Eu354 2.471 . S
O376 C363 1.244 . S
O377 Eu354 2.349 . S
O377 C356 1.265 . S
C378 C379 1.379 . S
C378 C382 1.373 . S
C378 C384 1.505 . S
C379 C378 1.379 . S
C379 C381 1.369 . S
C379 H390 0.930 . S
C380 C382 1.383 . S
C380 C383 1.382 . S
C380 H391 0.930 . S
C381 C379 1.369 . S
C381 C383 1.392 . S
C381 H392 0.930 . S
C382 C378 1.373 . S
C382 C380 1.383 . S
C382 H393 0.931 . S
C383 C380 1.382 . S
C383 C381 1.392 . S
C384 Eu355 2.828 . S
C384 O368 1.249 . S
C384 O369 1.244 . S
C384 C378 1.505 . S
C385 O372 1.258 . S
C385 O373 1.242 . S
H386 C358 0.930 . S
H387 C359 0.930 . S
H388 C360 0.930 . S
H389 C361 0.931 . S
H390 C379 0.930 . S
H391 C380 0.930 . S
H392 C381 0.930 . S
H393 C382 0.931 . S
Eu394 C403 2.828 . S
Eu394 O405 2.392 . S
Eu394 O407 2.418 . S
Eu394 O412 2.373 . S
Eu394 O415 2.488 . S
Eu394 O416 2.471 . S
Eu394 O417 2.349 . S
Eu395 O404 2.373 . S
Eu395 O408 2.488 . S
Eu395 O409 2.471 . S
Eu395 O410 2.349 . S
Eu395 O413 2.392 . S
Eu395 O414 2.418 . S
Eu395 C424 2.828 . S
C396 O414 1.244 . S
C396 O417 1.265 . S
C397 C398 1.379 . S
C397 C401 1.373 . S
C397 C403 1.505 . S
C398 C397 1.379 . S
C398 C400 1.369 . S
C398 H426 0.930 . S
C399 C401 1.383 . S
C399 C402 1.382 . S
C399 H427 0.930 . S
C400 C398 1.369 . S
C400 C402 1.392 . S
C400 H428 0.930 . S
C401 C397 1.373 . S
C401 C399 1.383 . S
C401 H429 0.931 . S
C402 C399 1.382 . S
C402 C400 1.392 . S
C403 Eu394 2.828 . S
C403 C397 1.505 . S
C403 O415 1.249 . S
C403 O416 1.244 . S
O404 Eu395 2.373 . S
O404 C406 1.258 . S
O405 Eu394 2.392 . S
O405 C406 1.242 . S
C406 O404 1.258 . S
C406 O405 1.242 . S
O407 Eu394 2.418 . S
O407 C411 1.244 . S
O408 Eu395 2.488 . S
O408 C424 1.249 . S
O409 Eu395 2.471 . S
O409 C424 1.244 . S
O410 Eu395 2.349 . S
O410 C411 1.265 . S
C411 O407 1.244 . S
C411 O410 1.265 . S
O412 Eu394 2.373 . S
O412 C425 1.258 . S
O413 Eu395 2.392 . S
O413 C425 1.242 . S
O414 Eu395 2.418 . S
O414 C396 1.244 . S
O415 Eu394 2.488 . S
O415 C403 1.249 . S
O416 Eu394 2.471 . S
O416 C403 1.244 . S
O417 Eu394 2.349 . S
O417 C396 1.265 . S
C418 C419 1.379 . S
C418 C422 1.373 . S
C418 C424 1.505 . S
C419 C418 1.379 . S
C419 C421 1.369 . S
C419 H430 0.930 . S
C420 C422 1.383 . S
C420 C423 1.382 . S
C420 H431 0.930 . S
C421 C419 1.369 . S
C421 C423 1.392 . S
C421 H432 0.930 . S
C422 C418 1.373 . S
C422 C420 1.383 . S
C422 H433 0.931 . S
C423 C420 1.382 . S
C423 C421 1.392 . S
C424 Eu395 2.828 . S
C424 O408 1.249 . S
C424 O409 1.244 . S
C424 C418 1.505 . S
C425 O412 1.258 . S
C425 O413 1.242 . S
H426 C398 0.930 . S
H427 C399 0.930 . S
H428 C400 0.930 . S
H429 C401 0.931 . S
H430 C419 0.930 . S
H431 C420 0.930 . S
H432 C421 0.930 . S
H433 C422 0.931 . S
Eu434 C443 2.828 . S
Eu434 O445 2.392 . S
Eu434 O447 2.418 . S
Eu434 O452 2.373 . S
Eu434 O455 2.488 . S
Eu434 O456 2.471 . S
Eu434 O457 2.349 . S
Eu435 O444 2.373 . S
Eu435 O448 2.488 . S
Eu435 O449 2.471 . S
Eu435 O450 2.349 . S
Eu435 O453 2.392 . S
Eu435 O454 2.418 . S
Eu435 C464 2.828 . S
C436 O454 1.244 . S
C436 O457 1.265 . S
C437 C438 1.379 . S
C437 C441 1.373 . S
C437 C443 1.505 . S
C438 C437 1.379 . S
C438 C440 1.369 . S
C438 H466 0.930 . S
C439 C441 1.383 . S
C439 C442 1.382 . S
C439 H467 0.930 . S
C440 C438 1.369 . S
C440 C442 1.392 . S
C440 H468 0.930 . S
C441 C437 1.373 . S
C441 C439 1.383 . S
C441 H469 0.931 . S
C442 C439 1.382 . S
C442 C440 1.392 . S
C443 Eu434 2.828 . S
C443 C437 1.505 . S
C443 O455 1.249 . S
C443 O456 1.244 . S
O444 Eu435 2.373 . S
O444 C446 1.258 . S
O445 Eu434 2.392 . S
O445 C446 1.242 . S
C446 O444 1.258 . S
C446 O445 1.242 . S
O447 Eu434 2.418 . S
O447 C451 1.244 . S
O448 Eu435 2.488 . S
O448 C464 1.249 . S
O449 Eu435 2.471 . S
O449 C464 1.244 . S
O450 Eu435 2.349 . S
O450 C451 1.265 . S
C451 O447 1.244 . S
C451 O450 1.265 . S
O452 Eu434 2.373 . S
O452 C465 1.258 . S
O453 Eu435 2.392 . S
O453 C465 1.242 . S
O454 Eu435 2.418 . S
O454 C436 1.244 . S
O455 Eu434 2.488 . S
O455 C443 1.249 . S
O456 Eu434 2.471 . S
O456 C443 1.244 . S
O457 Eu434 2.349 . S
O457 C436 1.265 . S
C458 C459 1.379 . S
C458 C462 1.373 . S
C458 C464 1.505 . S
C459 C458 1.379 . S
C459 C461 1.369 . S
C459 H470 0.930 . S
C460 C462 1.383 . S
C460 C463 1.382 . S
C460 H471 0.930 . S
C461 C459 1.369 . S
C461 C463 1.392 . S
C461 H472 0.930 . S
C462 C458 1.373 . S
C462 C460 1.383 . S
C462 H473 0.931 . S
C463 C460 1.382 . S
C463 C461 1.392 . S
C464 Eu435 2.828 . S
C464 O448 1.249 . S
C464 O449 1.244 . S
C464 C458 1.505 . S
C465 O452 1.258 . S
C465 O453 1.242 . S
H466 C438 0.930 . S
H467 C439 0.930 . S
H468 C440 0.930 . S
H469 C441 0.931 . S
H470 C459 0.930 . S
H471 C460 0.930 . S
H472 C461 0.930 . S
H473 C462 0.931 . S
Eu474 C483 2.828 . S
Eu474 O485 2.392 . S
Eu474 O487 2.418 . S
Eu474 O492 2.373 . S
Eu474 O495 2.488 . S
Eu474 O496 2.471 . S
Eu474 O497 2.349 . S
Eu475 O484 2.373 . S
Eu475 O488 2.488 . S
Eu475 O489 2.471 . S
Eu475 O490 2.349 . S
Eu475 O493 2.392 . S
Eu475 O494 2.418 . S
Eu475 C504 2.828 . S
C476 O494 1.244 . S
C476 O497 1.265 . S
C477 C478 1.379 . S
C477 C481 1.373 . S
C477 C483 1.505 . S
C478 C477 1.379 . S
C478 C480 1.369 . S
C478 H506 0.930 . S
C479 C481 1.383 . S
C479 C482 1.382 . S
C479 H507 0.930 . S
C480 C478 1.369 . S
C480 C482 1.392 . S
C480 H508 0.930 . S
C481 C477 1.373 . S
C481 C479 1.383 . S
C481 H509 0.931 . S
C482 C479 1.382 . S
C482 C480 1.392 . S
C483 Eu474 2.828 . S
C483 C477 1.505 . S
C483 O495 1.249 . S
C483 O496 1.244 . S
O484 Eu475 2.373 . S
O484 C486 1.258 . S
O485 Eu474 2.392 . S
O485 C486 1.242 . S
C486 O484 1.258 . S
C486 O485 1.242 . S
O487 Eu474 2.418 . S
O487 C491 1.244 . S
O488 Eu475 2.488 . S
O488 C504 1.249 . S
O489 Eu475 2.471 . S
O489 C504 1.244 . S
O490 Eu475 2.349 . S
O490 C491 1.265 . S
C491 O487 1.244 . S
C491 O490 1.265 . S
O492 Eu474 2.373 . S
O492 C505 1.258 . S
O493 Eu475 2.392 . S
O493 C505 1.242 . S
O494 Eu475 2.418 . S
O494 C476 1.244 . S
O495 Eu474 2.488 . S
O495 C483 1.249 . S
O496 Eu474 2.471 . S
O496 C483 1.244 . S
O497 Eu474 2.349 . S
O497 C476 1.265 . S
C498 C499 1.379 . S
C498 C502 1.373 . S
C498 C504 1.505 . S
C499 C498 1.379 . S
C499 C501 1.369 . S
C499 H510 0.930 . S
C500 C502 1.383 . S
C500 C503 1.382 . S
C500 H511 0.930 . S
C501 C499 1.369 . S
C501 C503 1.392 . S
C501 H512 0.930 . S
C502 C498 1.373 . S
C502 C500 1.383 . S
C502 H513 0.931 . S
C503 C500 1.382 . S
C503 C501 1.392 . S
C504 Eu475 2.828 . S
C504 O488 1.249 . S
C504 O489 1.244 . S
C504 C498 1.505 . S
C505 O492 1.258 . S
C505 O493 1.242 . S
H506 C478 0.930 . S
H507 C479 0.930 . S
H508 C480 0.930 . S
H509 C481 0.931 . S
H510 C499 0.930 . S
H511 C500 0.930 . S
H512 C501 0.930 . S
H513 C502 0.931 . S
Eu514 C523 2.828 . S
Eu514 O525 2.392 . S
Eu514 O527 2.418 . S
Eu514 O532 2.373 . S
Eu514 O535 2.488 . S
Eu514 O536 2.471 . S
Eu514 O537 2.349 . S
Eu515 O524 2.373 . S
Eu515 O528 2.488 . S
Eu515 O529 2.471 . S
Eu515 O530 2.349 . S
Eu515 O533 2.392 . S
Eu515 O534 2.418 . S
Eu515 C544 2.828 . S
C516 O534 1.244 . S
C516 O537 1.265 . S
C517 C518 1.379 . S
C517 C521 1.373 . S
C517 C523 1.505 . S
C518 C517 1.379 . S
C518 C520 1.369 . S
C518 H546 0.930 . S
C519 C521 1.383 . S
C519 C522 1.382 . S
C519 H547 0.930 . S
C520 C518 1.369 . S
C520 C522 1.392 . S
C520 H548 0.930 . S
C521 C517 1.373 . S
C521 C519 1.383 . S
C521 H549 0.931 . S
C522 C519 1.382 . S
C522 C520 1.392 . S
C523 Eu514 2.828 . S
C523 C517 1.505 . S
C523 O535 1.249 . S
C523 O536 1.244 . S
O524 Eu515 2.373 . S
O524 C526 1.258 . S
O525 Eu514 2.392 . S
O525 C526 1.242 . S
C526 O524 1.258 . S
C526 O525 1.242 . S
O527 Eu514 2.418 . S
O527 C531 1.244 . S
O528 Eu515 2.488 . S
O528 C544 1.249 . S
O529 Eu515 2.471 . S
O529 C544 1.244 . S
O530 Eu515 2.349 . S
O530 C531 1.265 . S
C531 O527 1.244 . S
C531 O530 1.265 . S
O532 Eu514 2.373 . S
O532 C545 1.258 . S
O533 Eu515 2.392 . S
O533 C545 1.242 . S
O534 Eu515 2.418 . S
O534 C516 1.244 . S
O535 Eu514 2.488 . S
O535 C523 1.249 . S
O536 Eu514 2.471 . S
O536 C523 1.244 . S
O537 Eu514 2.349 . S
O537 C516 1.265 . S
C538 C539 1.379 . S
C538 C542 1.373 . S
C538 C544 1.505 . S
C539 C538 1.379 . S
C539 C541 1.369 . S
C539 H550 0.930 . S
C540 C542 1.383 . S
C540 C543 1.382 . S
C540 H551 0.930 . S
C541 C539 1.369 . S
C541 C543 1.392 . S
C541 H552 0.930 . S
C542 C538 1.373 . S
C542 C540 1.383 . S
C542 H553 0.931 . S
C543 C540 1.382 . S
C543 C541 1.392 . S
C544 Eu515 2.828 . S
C544 O528 1.249 . S
C544 O529 1.244 . S
C544 C538 1.505 . S
C545 O532 1.258 . S
C545 O533 1.242 . S
H546 C518 0.930 . S
H547 C519 0.930 . S
H548 C520 0.930 . S
H549 C521 0.931 . S
H550 C539 0.930 . S
H551 C540 0.930 . S
H552 C541 0.930 . S
H553 C542 0.931 . S
Eu554 C563 2.828 . S
Eu554 O565 2.392 . S
Eu554 O567 2.418 . S
Eu554 O572 2.373 . S
Eu554 O575 2.488 . S
Eu554 O576 2.471 . S
Eu554 O577 2.349 . S
Eu555 O564 2.373 . S
Eu555 O568 2.488 . S
Eu555 O569 2.471 . S
Eu555 O570 2.349 . S
Eu555 O573 2.392 . S
Eu555 O574 2.418 . S
Eu555 C584 2.828 . S
C556 O574 1.244 . S
C556 O577 1.265 . S
C557 C558 1.379 . S
C557 C561 1.373 . S
C557 C563 1.505 . S
C558 C557 1.379 . S
C558 C560 1.369 . S
C558 H586 0.930 . S
C559 C561 1.383 . S
C559 C562 1.382 . S
C559 H587 0.930 . S
C560 C558 1.369 . S
C560 C562 1.392 . S
C560 H588 0.930 . S
C561 C557 1.373 . S
C561 C559 1.383 . S
C561 H589 0.931 . S
C562 C559 1.382 . S
C562 C560 1.392 . S
C563 Eu554 2.828 . S
C563 C557 1.505 . S
C563 O575 1.249 . S
C563 O576 1.244 . S
O564 Eu555 2.373 . S
O564 C566 1.258 . S
O565 Eu554 2.392 . S
O565 C566 1.242 . S
C566 O564 1.258 . S
C566 O565 1.242 . S
O567 Eu554 2.418 . S
O567 C571 1.244 . S
O568 Eu555 2.488 . S
O568 C584 1.249 . S
O569 Eu555 2.471 . S
O569 C584 1.244 . S
O570 Eu555 2.349 . S
O570 C571 1.265 . S
C571 O567 1.244 . S
C571 O570 1.265 . S
O572 Eu554 2.373 . S
O572 C585 1.258 . S
O573 Eu555 2.392 . S
O573 C585 1.242 . S
O574 Eu555 2.418 . S
O574 C556 1.244 . S
O575 Eu554 2.488 . S
O575 C563 1.249 . S
O576 Eu554 2.471 . S
O576 C563 1.244 . S
O577 Eu554 2.349 . S
O577 C556 1.265 . S
C578 C579 1.379 . S
C578 C582 1.373 . S
C578 C584 1.505 . S
C579 C578 1.379 . S
C579 C581 1.369 . S
C579 H590 0.930 . S
C580 C582 1.383 . S
C580 C583 1.382 . S
C580 H591 0.930 . S
C581 C579 1.369 . S
C581 C583 1.392 . S
C581 H592 0.930 . S
C582 C578 1.373 . S
C582 C580 1.383 . S
C582 H593 0.931 . S
C583 C580 1.382 . S
C583 C581 1.392 . S
C584 Eu555 2.828 . S
C584 O568 1.249 . S
C584 O569 1.244 . S
C584 C578 1.505 . S
C585 O572 1.258 . S
C585 O573 1.242 . S
H586 C558 0.930 . S
H587 C559 0.930 . S
H588 C560 0.930 . S
H589 C561 0.931 . S
H590 C579 0.930 . S
H591 C580 0.930 . S
H592 C581 0.930 . S
H593 C582 0.931 . S
C594 C595 1.391 . S
C594 C596 1.394 . S
C594 H610 0.931 . S
C595 C594 1.391 . S
C595 C599 1.376 . S
C596 C594 1.394 . S
C596 C597 1.369 . S
C596 C600 1.531 . S
C597 C596 1.369 . S
C597 C598 1.410 . S
C597 C605 1.503 . S
C598 C597 1.410 . S
C598 C599 1.392 . S
C598 C601 1.511 . S
C599 C595 1.376 . S
C599 C598 1.392 . S
C599 H611 0.929 . S
C600 C596 1.531 . S
C600 H612 0.960 . S
C600 H613 0.962 . S
C600 H614 0.960 . S
C601 C598 1.511 . S
C601 H615 0.961 . S
C601 H616 0.961 . S
C601 H617 0.961 . S
C602 C603 1.370 . S
C602 C604 1.363 . S
C602 H618 0.931 . S
C603 C602 1.370 . S
C603 C607 1.408 . S
C604 C602 1.363 . S
C604 C605 1.370 . S
C604 C608 1.524 . S
C605 C597 1.503 . S
C605 C604 1.370 . S
C605 C606 1.403 . S
C606 C605 1.403 . S
C606 C607 1.404 . S
C606 C609 1.508 1_554 S
C607 C603 1.408 . S
C607 C606 1.404 . S
C607 H619 0.930 . S
C608 C604 1.524 . S
C608 H620 0.956 . S
C608 H621 0.961 . S
C608 H622 0.961 . S
C609 C606 1.508 1_556 S
C609 H623 0.984 . S
C609 H624 0.986 . S
C609 H625 0.942 1_556 S
H610 C594 0.931 . S
H611 C599 0.929 . S
H612 C600 0.960 . S
H613 C600 0.962 . S
H614 C600 0.960 . S
H615 C601 0.961 . S
H616 C601 0.961 . S
H617 C601 0.961 . S
H618 C602 0.931 . S
H619 C607 0.930 . S
H620 C608 0.956 . S
H621 C608 0.961 . S
H622 C608 0.961 . S
H623 C609 0.984 . S
H624 C609 0.986 . S
H625 C609 0.942 1_554 S
C626 C627 1.391 . S
C626 C628 1.394 . S
C626 H642 0.931 . S
C627 C626 1.391 . S
C627 C631 1.376 . S
C628 C626 1.394 . S
C628 C629 1.369 . S
C628 C632 1.531 . S
C629 C628 1.369 . S
C629 C630 1.410 . S
C629 C637 1.503 . S
C630 C629 1.410 . S
C630 C631 1.392 . S
C630 C633 1.511 . S
C631 C627 1.376 . S
C631 C630 1.392 . S
C631 H643 0.929 . S
C632 C628 1.531 . S
C632 H644 0.960 . S
C632 H645 0.962 . S
C632 H646 0.960 . S
C633 C630 1.511 . S
C633 H647 0.961 . S
C633 H648 0.961 . S
C633 H649 0.961 . S
C634 C635 1.370 . S
C634 C636 1.363 . S
C634 H650 0.931 . S
C635 C634 1.370 . S
C635 C639 1.408 . S
C636 C634 1.363 . S
C636 C637 1.370 . S
C636 C640 1.524 . S
C637 C629 1.503 . S
C637 C636 1.370 . S
C637 C638 1.403 . S
C638 C637 1.403 . S
C638 C639 1.404 . S
C638 C641 1.539 . S
C639 C635 1.408 . S
C639 C638 1.404 . S
C639 H651 0.930 . S
C640 C636 1.524 . S
C640 H652 0.956 . S
C640 H653 0.961 . S
C640 H654 0.961 . S
C641 C638 1.539 . S
C641 H655 0.958 . S
C641 H656 0.975 . S
C641 H657 0.960 . S
H642 C626 0.931 . S
H643 C631 0.929 . S
H644 C632 0.960 . S
H645 C632 0.962 . S
H646 C632 0.960 . S
H647 C633 0.961 . S
H648 C633 0.961 . S
H649 C633 0.961 . S
H650 C634 0.931 . S
H651 C639 0.930 . S
H652 C640 0.956 . S
H653 C640 0.961 . S
H654 C640 0.961 . S
H655 C641 0.958 . S
H656 C641 0.975 . S
H657 C641 0.960 . S
C658 C659 1.391 . S
C658 C660 1.394 . S
C658 H674 0.931 . S
C659 C658 1.391 . S
C659 C663 1.376 . S
C660 C658 1.394 . S
C660 C661 1.369 . S
C660 C664 1.531 1_554 S
C661 C660 1.369 . S
C661 C662 1.410 . S
C661 C669 1.503 . S
C662 C661 1.410 . S
C662 C663 1.392 . S
C662 C665 1.511 . S
C663 C659 1.376 . S
C663 C662 1.392 . S
C663 H675 0.929 . S
C664 C660 1.531 1_556 S
C664 H676 0.960 . S
C664 H677 0.962 1_556 S
C664 H678 0.960 . S
C665 C662 1.511 . S
C665 H679 0.961 . S
C665 H680 0.961 . S
C665 H681 0.961 . S
C666 C667 1.370 . S
C666 C668 1.363 . S
C666 H682 0.931 . S
C667 C666 1.370 . S
C667 C671 1.408 . S
C668 C666 1.363 . S
C668 C669 1.370 . S
C668 C672 1.524 . S
C669 C661 1.503 . S
C669 C668 1.370 . S
C669 C670 1.403 . S
C670 C669 1.403 . S
C670 C671 1.404 . S
C670 C673 1.555 . S
C671 C667 1.408 . S
C671 C670 1.404 . S
C671 H683 0.930 . S
C672 C668 1.524 . S
C672 H684 0.956 . S
C672 H685 0.961 . S
C672 H686 0.961 . S
C673 C670 1.555 . S
C673 H687 0.933 1_554 S
C673 H688 0.957 1_554 S
C673 H689 0.973 . S
H674 C658 0.931 . S
H675 C663 0.929 . S
H676 C664 0.960 . S
H677 C664 0.962 1_554 S
H678 C664 0.960 . S
H679 C665 0.961 . S
H680 C665 0.961 . S
H681 C665 0.961 . S
H682 C666 0.931 . S
H683 C671 0.930 . S
H684 C672 0.956 . S
H685 C672 0.961 . S
H686 C672 0.961 . S
H687 C673 0.933 1_556 S
H688 C673 0.957 1_556 S
H689 C673 0.973 . S
C690 C691 1.391 . S
C690 C692 1.394 . S
C690 H706 0.931 . S
C691 C690 1.391 . S
C691 C695 1.376 . S
C692 C690 1.394 . S
C692 C693 1.369 . S
C692 C696 1.531 . S
C693 C692 1.369 . S
C693 C694 1.410 . S
C693 C701 1.503 . S
C694 C693 1.410 . S
C694 C695 1.392 . S
C694 C697 1.511 1_556 S
C695 C691 1.376 . S
C695 C694 1.392 . S
C695 H707 0.929 . S
C696 C692 1.531 . S
C696 H708 0.960 . S
C696 H709 0.962 . S
C696 H710 0.960 . S
C697 C694 1.511 1_554 S
C697 H711 0.961 . S
C697 H712 0.961 . S
C697 H713 0.961 . S
C698 C699 1.370 . S
C698 C700 1.363 . S
C698 H714 0.931 . S
C699 C698 1.370 . S
C699 C703 1.408 1_556 S
C700 C698 1.363 . S
C700 C701 1.370 . S
C700 C704 1.524 . S
C701 C693 1.503 . S
C701 C700 1.370 . S
C701 C702 1.403 1_556 S
C702 C701 1.403 1_554 S
C702 C703 1.404 . S
C702 C705 1.539 . S
C703 C699 1.408 1_554 S
C703 C702 1.404 . S
C703 H715 0.930 . S
C704 C700 1.524 . S
C704 H716 0.956 . S
C704 H717 0.961 . S
C704 H718 0.961 . S
C705 C702 1.539 . S
C705 H719 0.958 . S
C705 H720 0.961 . S
C705 H721 0.960 . S
H706 C690 0.931 . S
H707 C695 0.929 . S
H708 C696 0.960 . S
H709 C696 0.962 . S
H710 C696 0.960 . S
H711 C697 0.961 . S
H712 C697 0.961 . S
H713 C697 0.961 . S
H714 C698 0.931 . S
H715 C703 0.930 . S
H716 C704 0.956 . S
H717 C704 0.961 . S
H718 C704 0.961 . S
H719 C705 0.958 . S
H720 C705 0.961 . S
H721 C705 0.960 . S
C722 C723 1.391 . S
C722 C724 1.394 . S
C722 H738 0.931 . S
C723 C722 1.391 . S
C723 C727 1.376 . S
C724 C722 1.394 . S
C724 C725 1.369 . S
C724 C728 1.531 . S
C725 C724 1.369 . S
C725 C726 1.410 . S
C725 C733 1.503 . S
C726 C725 1.410 . S
C726 C727 1.392 . S
C726 C729 1.511 . S
C727 C723 1.376 . S
C727 C726 1.392 . S
C727 H739 0.929 . S
C728 C724 1.531 . S
C728 H740 0.960 . S
C728 H741 0.962 . S
C728 H742 0.960 . S
C729 C726 1.511 . S
C729 H743 0.961 . S
C729 H744 0.961 . S
C729 H745 0.965 1_556 S
C730 C731 1.370 . S
C730 C732 1.363 . S
C730 H746 0.931 . S
C731 C730 1.370 . S
C731 C735 1.408 1_556 S
C732 C730 1.363 . S
C732 C733 1.370 . S
C732 C736 1.524 . S
C733 C725 1.503 . S
C733 C732 1.370 . S
C733 C734 1.425 . S
C734 C733 1.425 . S
C734 C735 1.393 1_556 S
C734 C737 1.526 1_556 S
C735 C731 1.408 1_554 S
C735 C734 1.393 1_554 S
C735 H747 0.930 . S
C736 C732 1.524 . S
C736 H748 0.956 . S
C736 H749 0.961 . S
C736 H750 0.961 . S
C737 C734 1.526 1_554 S
C737 H751 0.958 . S
C737 H752 0.961 . S
C737 H753 0.960 . S
H738 C722 0.931 . S
H739 C727 0.929 . S
H740 C728 0.960 . S
H741 C728 0.962 . S
H742 C728 0.960 . S
H743 C729 0.961 . S
H744 C729 0.961 . S
H745 C729 0.965 1_554 S
H746 C730 0.931 . S
H747 C735 0.930 . S
H748 C736 0.956 . S
H749 C736 0.961 . S
H750 C736 0.961 . S
H751 C737 0.958 . S
H752 C737 0.961 . S
H753 C737 0.960 . S
C754 C755 1.391 . S
C754 C756 1.394 . S
C754 H770 0.931 . S
C755 C754 1.391 . S
C755 C759 1.376 . S
C756 C754 1.394 . S
C756 C757 1.369 . S
C756 C760 1.531 . S
C757 C756 1.369 . S
C757 C758 1.410 . S
C757 C765 1.503 . S
C758 C757 1.410 . S
C758 C759 1.392 . S
C758 C761 1.511 1_556 S
C759 C755 1.376 . S
C759 C758 1.392 . S
C759 H771 0.929 . S
C760 C756 1.531 . S
C760 H772 0.960 . S
C760 H773 0.962 . S
C760 H774 0.960 . S
C761 C758 1.511 1_554 S
C761 H775 0.961 . S
C761 H776 0.961 . S
C761 H777 0.961 1_554 S
C762 C763 1.403 . S
C762 C764 1.363 . S
C762 H778 0.931 . S
C763 C762 1.403 . S
C763 C767 1.362 1_554 S
C764 C762 1.363 . S
C764 C765 1.370 1_554 S
C764 C768 1.524 . S
C765 C757 1.503 . S
C765 C764 1.370 1_556 S
C765 C766 1.403 . S
C766 C765 1.403 . S
C766 C767 1.404 . S
C766 C769 1.539 . S
C767 C763 1.362 1_556 S
C767 C766 1.404 . S
C767 H779 0.930 . S
C768 C764 1.524 . S
C768 H780 0.956 . S
C768 H781 0.961 . S
C768 H782 0.961 . S
C769 C766 1.539 . S
C769 H783 0.958 . S
C769 H784 0.961 . S
C769 H785 0.960 . S
H770 C754 0.931 . S
H771 C759 0.929 . S
H772 C760 0.960 . S
H773 C760 0.962 . S
H774 C760 0.960 . S
H775 C761 0.961 . S
H776 C761 0.961 . S
H777 C761 0.961 1_556 S
H778 C762 0.931 . S
H779 C767 0.930 . S
H780 C768 0.956 . S
H781 C768 0.961 . S
H782 C768 0.961 . S
H783 C769 0.958 . S
H784 C769 0.961 . S
H785 C769 0.960 . S
C786 C787 1.391 . S
C786 C788 1.394 . S
C786 H802 0.925 1_556 S
C787 C786 1.391 . S
C787 C791 1.376 . S
C788 C786 1.394 . S
C788 C789 1.369 . S
C788 C792 1.531 1_556 S
C789 C788 1.369 . S
C789 C790 1.410 . S
C789 C797 1.503 . S
C790 C789 1.410 . S
C790 C791 1.392 . S
C790 C793 1.511 . S
C791 C787 1.376 . S
C791 C790 1.392 . S
C791 H803 0.929 . S
C792 C788 1.531 1_554 S
C792 H804 0.960 . S
C792 H805 0.962 . S
C792 H806 0.960 . S
C793 C790 1.511 . S
C793 H807 0.961 . S
C793 H808 0.961 . S
C793 H809 0.961 . S
C794 C795 1.370 . S
C794 C796 1.363 . S
C794 H810 0.931 . S
C795 C794 1.370 . S
C795 C799 1.408 1_556 S
C796 C794 1.363 . S
C796 C797 1.370 . S
C796 C800 1.524 . S
C797 C789 1.503 . S
C797 C796 1.370 . S
C797 C798 1.440 . S
C798 C797 1.440 . S
C798 C799 1.394 1_556 S
C798 C801 1.518 1_556 S
C799 C795 1.408 1_554 S
C799 C798 1.394 1_554 S
C799 H811 0.930 . S
C800 C796 1.524 . S
C800 H812 0.956 . S
C800 H813 0.961 . S
C800 H814 0.961 . S
C801 C798 1.518 1_554 S
C801 H815 0.958 . S
C801 H816 0.961 . S
C801 H817 0.960 1_554 S
H802 C786 0.925 1_554 S
H803 C791 0.929 . S
H804 C792 0.960 . S
H805 C792 0.962 . S
H806 C792 0.960 . S
H807 C793 0.961 . S
H808 C793 0.961 . S
H809 C793 0.961 . S
H810 C794 0.931 . S
H811 C799 0.930 . S
H812 C800 0.956 . S
H813 C800 0.961 . S
H814 C800 0.961 . S
H815 C801 0.958 . S
H816 C801 0.961 . S
H817 C801 0.960 1_556 S
C818 C819 1.391 . S
C818 C820 1.394 . S
C818 H834 0.931 . S
C819 C818 1.391 . S
C819 C823 1.376 . S
C820 C818 1.394 . S
C820 C821 1.369 . S
C820 C824 1.531 . S
C821 C820 1.369 . S
C821 C822 1.410 . S
C821 C829 1.503 . S
C822 C821 1.410 . S
C822 C823 1.392 . S
C822 C825 1.511 . S
C823 C819 1.376 . S
C823 C822 1.392 . S
C823 H835 0.929 . S
C824 C820 1.531 . S
C824 H836 0.960 . S
C824 H837 0.962 . S
C824 H838 0.969 . S
C825 C822 1.511 . S
C825 H839 0.961 . S
C825 H840 0.961 . S
C825 H841 0.961 . S
C826 C827 1.370 . S
C826 C828 1.363 . S
C826 H842 0.931 . S
C827 C826 1.370 . S
C827 C831 1.408 . S
C828 C826 1.363 . S
C828 C829 1.370 . S
C828 C832 1.524 . S
C829 C821 1.503 . S
C829 C828 1.370 . S
C829 C830 1.403 . S
C830 C829 1.403 . S
C830 C831 1.404 . S
C830 C833 1.539 . S
C831 C827 1.408 . S
C831 C830 1.404 . S
C831 H843 0.930 . S
C832 C828 1.524 . S
C832 H844 0.956 . S
C832 H845 0.961 . S
C832 H846 0.961 . S
C833 C830 1.539 . S
C833 H847 0.958 . S
C833 H848 0.961 . S
C833 H849 0.960 . S
H834 C818 0.931 . S
H835 C823 0.929 . S
H836 C824 0.960 . S
H837 C824 0.962 . S
H838 C824 0.969 . S
H839 C825 0.961 . S
H840 C825 0.961 . S
H841 C825 0.961 . S
H842 C826 0.931 . S
H843 C831 0.930 . S
H844 C832 0.956 . S
H845 C832 0.961 . S
H846 C832 0.961 . S
H847 C833 0.958 . S
H848 C833 0.961 . S
H849 C833 0.960 . S
C850 C851 1.391 . S
C850 C852 1.413 . S
C850 H866 0.931 . S
C851 C850 1.391 . S
C851 C855 1.376 . S
C852 C850 1.413 . S
C852 C853 1.367 1_556 S
C852 C856 1.517 1_556 S
C853 C852 1.367 1_554 S
C853 C854 1.398 1_554 S
C853 C861 1.515 . S
C854 C853 1.398 1_556 S
C854 C855 1.392 . S
C854 C857 1.511 1_556 S
C855 C851 1.376 . S
C855 C854 1.392 . S
C855 H867 0.929 . S
C856 C852 1.517 1_554 S
C856 H868 0.960 . S
C856 H869 0.962 1_554 S
C856 H870 0.960 . S
C857 C854 1.511 1_554 S
C857 H871 0.960 1_554 S
C857 H872 0.961 1_554 S
C857 H873 0.962 . S
C858 C859 1.370 1_556 S
C858 C860 1.363 . S
C858 H874 0.931 . S
C859 C858 1.370 1_554 S
C859 C863 1.408 . S
C860 C858 1.363 . S
C860 C861 1.370 1_556 S
C860 C864 1.524 . S
C861 C853 1.515 . S
C861 C860 1.370 1_554 S
C861 C862 1.403 . S
C862 C861 1.403 . S
C862 C863 1.404 . S
C862 C865 1.539 . S
C863 C859 1.408 . S
C863 C862 1.404 . S
C863 H875 0.930 . S
C864 C860 1.524 . S
C864 H876 0.956 . S
C864 H877 0.961 . S
C864 H878 0.961 . S
C865 C862 1.539 . S
C865 H879 0.958 . S
C865 H880 0.961 . S
C865 H881 0.960 . S
H866 C850 0.931 . S
H867 C855 0.929 . S
H868 C856 0.960 . S
H869 C856 0.962 1_556 S
H870 C856 0.960 . S
H871 C857 0.960 1_556 S
H872 C857 0.961 1_556 S
H873 C857 0.962 . S
H874 C858 0.931 . S
H875 C863 0.930 . S
H876 C864 0.956 . S
H877 C864 0.961 . S
H878 C864 0.961 . S
H879 C865 0.958 . S
H880 C865 0.961 . S
H881 C865 0.960 . S
C882 C883 1.391 . S
C882 C884 1.394 . S
C882 H898 0.931 . S
C883 C882 1.391 . S
C883 C887 1.376 . S
C884 C882 1.394 . S
C884 C885 1.369 . S
C884 C888 1.531 . S
C885 C884 1.369 . S
C885 C886 1.410 . S
C885 C893 1.503 . S
C886 C885 1.410 . S
C886 C887 1.392 . S
C886 C889 1.511 . S
C887 C883 1.376 . S
C887 C886 1.392 . S
C887 H899 0.929 . S
C888 C884 1.531 . S
C888 H900 0.960 1_554 S
C888 H901 0.962 . S
C888 H902 0.960 1_554 S
C889 C886 1.511 . S
C889 H903 0.961 . S
C889 H904 0.961 . S
C889 H905 0.961 . S
C890 C891 1.370 . S
C890 C892 1.363 . S
C890 H906 0.931 . S
C891 C890 1.370 . S
C891 C895 1.408 1_554 S
C892 C890 1.363 . S
C892 C893 1.370 . S
C892 C896 1.524 . S
C893 C885 1.503 . S
C893 C892 1.370 . S
C893 C894 1.403 . S
C894 C893 1.403 . S
C894 C895 1.404 1_554 S
C894 C897 1.539 1_554 S
C895 C891 1.408 1_556 S
C895 C894 1.404 1_556 S
C895 H907 0.930 . S
C896 C892 1.524 . S
C896 H908 0.956 . S
C896 H909 0.961 . S
C896 H910 0.961 . S
C897 C894 1.539 1_556 S
C897 H911 0.958 . S
C897 H912 0.961 . S
C897 H913 0.960 . S
H898 C882 0.931 . S
H899 C887 0.929 . S
H900 C888 0.960 1_556 S
H901 C888 0.962 . S
H902 C888 0.960 1_556 S
H903 C889 0.961 . S
H904 C889 0.961 . S
H905 C889 0.961 . S
H906 C890 0.931 . S
H907 C895 0.930 . S
H908 C896 0.956 . S
H909 C896 0.961 . S
H910 C896 0.961 . S
H911 C897 0.958 . S
H912 C897 0.961 . S
H913 C897 0.960 . S
C914 C915 1.391 . S
C914 C916 1.394 . S
C914 H930 0.931 . S
C915 C914 1.391 . S
C915 C919 1.376 . S
C916 C914 1.394 . S
C916 C917 1.369 . S
C916 C920 1.531 . S
C917 C916 1.369 . S
C917 C918 1.410 . S
C917 C925 1.503 . S
C918 C917 1.410 . S
C918 C919 1.392 . S
C918 C921 1.511 . S
C919 C915 1.376 . S
C919 C918 1.392 . S
C919 H931 0.929 . S
C920 C916 1.531 . S
C920 H932 0.960 . S
C920 H933 0.962 . S
C920 H934 0.960 . S
C921 C918 1.511 . S
C921 H935 0.961 . S
C921 H936 0.961 . S
C921 H937 0.961 . S
C922 C923 1.370 . S
C922 C924 1.363 . S
C922 H938 0.931 . S
C923 C922 1.370 . S
C923 C927 1.408 . S
C924 C922 1.363 . S
C924 C925 1.370 . S
C924 C928 1.524 . S
C925 C917 1.503 . S
C925 C924 1.370 . S
C925 C926 1.403 . S
C926 C925 1.403 . S
C926 C927 1.404 . S
C926 C929 1.539 . S
C927 C923 1.408 . S
C927 C926 1.404 . S
C927 H939 0.930 . S
C928 C924 1.524 . S
C928 H940 0.956 . S
C928 H941 0.961 . S
C928 H942 0.961 . S
C929 C926 1.539 . S
C929 H943 0.958 . S
C929 H944 0.961 . S
C929 H945 0.960 . S
H930 C914 0.931 . S
H931 C919 0.929 . S
H932 C920 0.960 . S
H933 C920 0.962 . S
H934 C920 0.960 . S
H935 C921 0.961 . S
H936 C921 0.961 . S
H937 C921 0.961 . S
H938 C922 0.931 . S
H939 C927 0.930 . S
H940 C928 0.956 . S
H941 C928 0.961 . S
H942 C928 0.961 . S
H943 C929 0.958 . S
H944 C929 0.961 . S
H945 C929 0.960 . S
C946 C947 1.391 . S
C946 C948 1.394 . S
C946 H962 0.931 . S
C947 C946 1.391 . S
C947 C951 1.376 . S
C948 C946 1.394 . S
C948 C949 1.369 . S
C948 C952 1.531 . S
C949 C948 1.369 . S
C949 C950 1.410 . S
C949 C957 1.503 . S
C950 C949 1.410 . S
C950 C951 1.392 . S
C950 C953 1.511 . S
C951 C947 1.376 . S
C951 C950 1.392 . S
C951 H963 0.929 . S
C952 C948 1.531 . S
C952 H964 0.960 . S
C952 H965 0.962 . S
C952 H966 0.960 . S
C953 C950 1.511 . S
C953 H967 0.961 . S
C953 H968 0.961 . S
C953 H969 0.961 . S
C954 C955 1.370 . S
C954 C956 1.363 . S
C954 H970 0.931 1_554 S
C955 C954 1.370 . S
C955 C959 1.408 . S
C956 C954 1.363 . S
C956 C957 1.370 . S
C956 C960 1.524 1_554 S
C957 C949 1.503 . S
C957 C956 1.370 . S
C957 C958 1.403 . S
C958 C957 1.403 . S
C958 C959 1.404 . S
C958 C961 1.539 . S
C959 C955 1.408 . S
C959 C958 1.404 . S
C959 H971 0.930 . S
C960 C956 1.524 1_556 S
C960 H972 0.956 . S
C960 H973 0.961 . S
C960 H974 0.961 . S
C961 C958 1.539 . S
C961 H975 0.958 . S
C961 H976 0.961 . S
C961 H977 0.960 . S
H962 C946 0.931 . S
H963 C951 0.929 . S
H964 C952 0.960 . S
H965 C952 0.962 . S
H966 C952 0.960 . S
H967 C953 0.961 . S
H968 C953 0.961 . S
H969 C953 0.961 . S
H970 C954 0.931 1_556 S
H971 C959 0.930 . S
H972 C960 0.956 . S
H973 C960 0.961 . S
H974 C960 0.961 . S
H975 C961 0.958 . S
H976 C961 0.961 . S
H977 C961 0.960 . S
C978 C979 1.391 . S
C978 C980 1.394 . S
C978 H994 0.931 . S
C979 C978 1.391 . S
C979 C983 1.376 . S
C980 C978 1.394 . S
C980 C981 1.369 . S
C980 C984 1.531 . S
C981 C980 1.369 . S
C981 C982 1.410 . S
C981 C989 1.503 1_655 S
C982 C981 1.410 . S
C982 C983 1.392 . S
C982 C985 1.511 1_655 S
C983 C979 1.376 . S
C983 C982 1.392 . S
C983 H995 0.929 . S
C984 C980 1.531 . S
C984 H996 0.960 . S
C984 H997 0.962 . S
C984 H998 0.960 . S
C985 C982 1.511 1_455 S
C985 H999 0.961 . S
C985 H1000 0.961 . S
C985 H1001 0.961 . S
C986 C987 1.370 . S
C986 C988 1.363 . S
C986 H1002 0.931 . S
C987 C986 1.370 . S
C987 C991 1.408 . S
C988 C986 1.363 . S
C988 C989 1.370 . S
C988 C992 1.524 . S
C989 C981 1.503 1_455 S
C989 C988 1.370 . S
C989 C990 1.403 . S
C990 C989 1.403 . S
C990 C991 1.404 . S
C990 C993 1.539 . S
C991 C987 1.408 . S
C991 C990 1.404 . S
C991 H1003 0.930 . S
C992 C988 1.524 . S
C992 H1004 0.956 . S
C992 H1005 0.961 . S
C992 H1006 0.961 . S
C993 C990 1.539 . S
C993 H1007 0.958 . S
C993 H1008 0.961 . S
C993 H1009 0.960 . S
H994 C978 0.931 . S
H995 C983 0.929 . S
H996 C984 0.960 . S
H997 C984 0.962 . S
H998 C984 0.960 . S
H999 C985 0.961 . S
H1000 C985 0.961 . S
H1001 C985 0.961 . S
H1002 C986 0.931 . S
H1003 C991 0.930 . S
H1004 C992 0.956 . S
H1005 C992 0.961 . S
H1006 C992 0.961 . S
H1007 C993 0.958 . S
H1008 C993 0.961 . S
H1009 C993 0.960 . S
C1010 C1011 1.391 . S
C1010 C1012 1.394 . S
C1010 H1026 0.931 . S
C1011 C1010 1.391 . S
C1011 C1015 1.376 . S
C1012 C1010 1.394 . S
C1012 C1013 1.369 . S
C1012 C1016 1.531 . S
C1013 C1012 1.369 . S
C1013 C1014 1.410 . S
C1013 C1021 1.503 . S
C1014 C1013 1.410 . S
C1014 C1015 1.392 . S
C1014 C1017 1.511 . S
C1015 C1011 1.376 . S
C1015 C1014 1.392 . S
C1015 H1027 0.929 . S
C1016 C1012 1.531 . S
C1016 H1028 0.960 . S
C1016 H1029 0.962 . S
C1016 H1030 0.960 . S
C1017 C1014 1.511 . S
C1017 H1031 0.961 . S
C1017 H1032 0.961 . S
C1017 H1033 0.961 . S
C1018 C1019 1.370 . S
C1018 C1020 1.363 . S
C1018 H1034 0.931 . S
C1019 C1018 1.370 . S
C1019 C1023 1.408 . S
C1020 C1018 1.363 . S
C1020 C1021 1.370 . S
C1020 C1024 1.524 . S
C1021 C1013 1.503 . S
C1021 C1020 1.370 . S
C1021 C1022 1.403 . S
C1022 C1021 1.403 . S
C1022 C1023 1.404 . S
C1022 C1025 1.539 . S
C1023 C1019 1.408 . S
C1023 C1022 1.404 . S
C1023 H1035 0.930 . S
C1024 C1020 1.524 . S
C1024 H1036 0.956 . S
C1024 H1037 0.961 . S
C1024 H1038 0.961 . S
C1025 C1022 1.539 . S
C1025 H1039 0.958 . S
C1025 H1040 0.961 . S
C1025 H1041 0.960 . S
H1026 C1010 0.931 . S
H1027 C1015 0.929 . S
H1028 C1016 0.960 . S
H1029 C1016 0.962 . S
H1030 C1016 0.960 . S
H1031 C1017 0.961 . S
H1032 C1017 0.961 . S
H1033 C1017 0.961 . S
H1034 C1018 0.931 . S
H1035 C1023 0.930 . S
H1036 C1024 0.956 . S
H1037 C1024 0.961 . S
H1038 C1024 0.961 . S
H1039 C1025 0.958 . S
H1040 C1025 0.961 . S
H1041 C1025 0.960 . S
C1042 C1043 1.391 . S
C1042 C1044 1.394 . S
C1042 H1058 0.931 . S
C1043 C1042 1.391 . S
C1043 C1047 1.376 . S
C1044 C1042 1.394 . S
C1044 C1045 1.369 . S
C1044 C1048 1.531 . S
C1045 C1044 1.369 . S
C1045 C1046 1.410 . S
C1045 C1053 1.503 1_545 S
C1046 C1045 1.410 . S
C1046 C1047 1.392 . S
C1046 C1049 1.511 . S
C1047 C1043 1.376 . S
C1047 C1046 1.392 . S
C1047 H1059 0.929 . S
C1048 C1044 1.531 . S
C1048 H1060 0.960 1_545 S
C1048 H1061 0.962 . S
C1048 H1062 0.960 . S
C1049 C1046 1.511 . S
C1049 H1063 0.961 . S
C1049 H1064 0.961 1_545 S
C1049 H1065 0.961 . S
C1050 C1051 1.370 . S
C1050 C1052 1.363 . S
C1050 H1066 0.931 . S
C1051 C1050 1.370 . S
C1051 C1055 1.408 . S
C1052 C1050 1.363 . S
C1052 C1053 1.370 . S
C1052 C1056 1.524 . S
C1053 C1045 1.503 1_565 S
C1053 C1052 1.370 . S
C1053 C1054 1.403 . S
C1054 C1053 1.403 . S
C1054 C1055 1.404 . S
C1054 C1057 1.539 . S
C1055 C1051 1.408 . S
C1055 C1054 1.404 . S
C1055 H1067 0.930 . S
C1056 C1052 1.524 . S
C1056 H1068 0.964 . S
C1056 H1069 0.961 1_565 S
C1056 H1070 0.961 . S
C1057 C1054 1.539 . S
C1057 H1071 0.958 . S
C1057 H1072 0.961 . S
C1057 H1073 0.960 . S
H1058 C1042 0.931 . S
H1059 C1047 0.929 . S
H1060 C1048 0.960 1_565 S
H1061 C1048 0.962 . S
H1062 C1048 0.960 . S
H1063 C1049 0.961 . S
H1064 C1049 0.961 1_565 S
H1065 C1049 0.961 . S
H1066 C1050 0.931 . S
H1067 C1055 0.930 . S
H1068 C1056 0.964 . S
H1069 C1056 0.961 1_545 S
H1070 C1056 0.961 . S
H1071 C1057 0.958 . S
H1072 C1057 0.961 . S
H1073 C1057 0.960 . S
C1074 C1075 1.391 . S
C1074 C1076 1.394 . S
C1074 H1090 0.931 . S
C1075 C1074 1.391 . S
C1075 C1079 1.376 . S
C1076 C1074 1.394 . S
C1076 C1077 1.369 . S
C1076 C1080 1.531 . S
C1077 C1076 1.369 . S
C1077 C1078 1.410 . S
C1077 C1085 1.503 . S
C1078 C1077 1.410 . S
C1078 C1079 1.392 . S
C1078 C1081 1.511 . S
C1079 C1075 1.376 . S
C1079 C1078 1.392 . S
C1079 H1091 0.929 . S
C1080 C1076 1.531 . S
C1080 H1092 0.960 . S
C1080 H1093 0.962 . S
C1080 H1094 0.960 . S
C1081 C1078 1.511 . S
C1081 H1095 0.961 . S
C1081 H1096 0.961 . S
C1081 H1097 0.961 . S
C1082 C1083 1.370 . S
C1082 C1084 1.363 . S
C1082 H1098 0.931 . S
C1083 C1082 1.370 . S
C1083 C1087 1.408 . S
C1084 C1082 1.363 . S
C1084 C1085 1.370 . S
C1084 C1088 1.524 . S
C1085 C1077 1.503 . S
C1085 C1084 1.370 . S
C1085 C1086 1.403 . S
C1086 C1085 1.403 . S
C1086 C1087 1.404 . S
C1086 C1089 1.539 . S
C1087 C1083 1.408 . S
C1087 C1086 1.404 . S
C1087 H1099 0.930 . S
C1088 C1084 1.524 . S
C1088 H1100 0.956 . S
C1088 H1101 0.961 . S
C1088 H1102 0.961 . S
C1089 C1086 1.539 . S
C1089 H1103 0.958 . S
C1089 H1104 0.961 . S
C1089 H1105 0.960 . S
H1090 C1074 0.931 . S
H1091 C1079 0.929 . S
H1092 C1080 0.960 . S
H1093 C1080 0.962 . S
H1094 C1080 0.960 . S
H1095 C1081 0.961 . S
H1096 C1081 0.961 . S
H1097 C1081 0.961 . S
H1098 C1082 0.931 . S
H1099 C1087 0.930 . S
H1100 C1088 0.956 . S
H1101 C1088 0.961 . S
H1102 C1088 0.961 . S
H1103 C1089 0.958 . S
H1104 C1089 0.961 . S
H1105 C1089 0.960 . S
C1106 C1107 1.391 . S
C1106 C1108 1.394 . S
C1106 H1122 0.931 . S
C1107 C1106 1.391 . S
C1107 C1111 1.376 . S
C1108 C1106 1.394 . S
C1108 C1109 1.369 . S
C1108 C1112 1.531 . S
C1109 C1108 1.369 . S
C1109 C1110 1.410 . S
C1109 C1117 1.503 . S
C1110 C1109 1.410 . S
C1110 C1111 1.392 . S
C1110 C1113 1.511 . S
C1111 C1107 1.376 . S
C1111 C1110 1.392 . S
C1111 H1123 0.929 . S
C1112 C1108 1.531 . S
C1112 H1124 0.960 . S
C1112 H1125 0.962 . S
C1112 H1126 0.960 . S
C1113 C1110 1.511 . S
C1113 H1127 0.961 . S
C1113 H1128 0.961 . S
C1113 H1129 0.961 . S
C1114 C1115 1.370 . S
C1114 C1116 1.363 . S
C1114 H1130 0.931 . S
C1115 C1114 1.370 . S
C1115 C1119 1.408 . S
C1116 C1114 1.363 . S
C1116 C1117 1.370 . S
C1116 C1120 1.524 . S
C1117 C1109 1.503 . S
C1117 C1116 1.370 . S
C1117 C1118 1.403 . S
C1118 C1117 1.403 . S
C1118 C1119 1.404 . S
C1118 C1121 1.539 . S
C1119 C1115 1.408 . S
C1119 C1118 1.404 . S
C1119 H1131 0.930 . S
C1120 C1116 1.524 . S
C1120 H1132 0.956 . S
C1120 H1133 0.961 . S
C1120 H1134 0.961 . S
C1121 C1118 1.539 . S
C1121 H1135 0.958 . S
C1121 H1136 0.961 . S
C1121 H1137 0.960 . S
H1122 C1106 0.931 . S
H1123 C1111 0.929 . S
H1124 C1112 0.960 . S
H1125 C1112 0.962 . S
H1126 C1112 0.960 . S
H1127 C1113 0.961 . S
H1128 C1113 0.961 . S
H1129 C1113 0.961 . S
H1130 C1114 0.931 . S
H1131 C1119 0.930 . S
H1132 C1120 0.956 . S
H1133 C1120 0.961 . S
H1134 C1120 0.961 . S
H1135 C1121 0.958 . S
H1136 C1121 0.961 . S
H1137 C1121 0.960 . S
C1138 C1139 1.391 . S
C1138 C1140 1.394 . S
C1138 H1154 0.931 . S
C1139 C1138 1.391 . S
C1139 C1143 1.376 . S
C1140 C1138 1.394 . S
C1140 C1141 1.369 . S
C1140 C1144 1.531 . S
C1141 C1140 1.369 . S
C1141 C1142 1.410 . S
C1141 C1149 1.503 . S
C1142 C1141 1.410 . S
C1142 C1143 1.392 . S
C1142 C1145 1.511 . S
C1143 C1139 1.376 . S
C1143 C1142 1.392 . S
C1143 H1155 0.929 . S
C1144 C1140 1.531 . S
C1144 H1156 0.960 . S
C1144 H1157 0.962 . S
C1144 H1158 0.960 . S
C1145 C1142 1.511 . S
C1145 H1159 0.961 . S
C1145 H1160 0.961 . S
C1145 H1161 0.961 . S
C1146 C1147 1.370 . S
C1146 C1148 1.363 . S
C1146 H1162 0.931 . S
C1147 C1146 1.370 . S
C1147 C1151 1.408 . S
C1148 C1146 1.363 . S
C1148 C1149 1.370 . S
C1148 C1152 1.524 . S
C1149 C1141 1.503 . S
C1149 C1148 1.370 . S
C1149 C1150 1.403 . S
C1150 C1149 1.403 . S
C1150 C1151 1.404 . S
C1150 C1153 1.539 . S
C1151 C1147 1.408 . S
C1151 C1150 1.404 . S
C1151 H1163 0.930 . S
C1152 C1148 1.524 . S
C1152 H1164 0.956 . S
C1152 H1165 0.961 . S
C1152 H1166 0.961 . S
C1153 C1150 1.539 . S
C1153 H1167 0.958 . S
C1153 H1168 0.961 . S
C1153 H1169 0.960 . S
H1154 C1138 0.931 . S
H1155 C1143 0.929 . S
H1156 C1144 0.960 . S
H1157 C1144 0.962 . S
H1158 C1144 0.960 . S
H1159 C1145 0.961 . S
H1160 C1145 0.961 . S
H1161 C1145 0.961 . S
H1162 C1146 0.931 . S
H1163 C1151 0.930 . S
H1164 C1152 0.956 . S
H1165 C1152 0.961 . S
H1166 C1152 0.961 . S
H1167 C1153 0.958 . S
H1168 C1153 0.961 . S
H1169 C1153 0.960 . S
C1170 C1171 1.391 . S
C1170 C1172 1.394 . S
C1170 H1186 0.931 . S
C1171 C1170 1.391 . S
C1171 C1175 1.376 . S
C1172 C1170 1.394 . S
C1172 C1173 1.369 . S
C1172 C1176 1.531 . S
C1173 C1172 1.369 . S
C1173 C1174 1.410 . S
C1173 C1181 1.503 . S
C1174 C1173 1.410 . S
C1174 C1175 1.392 . S
C1174 C1177 1.511 . S
C1175 C1171 1.376 . S
C1175 C1174 1.392 . S
C1175 H1187 0.929 . S
C1176 C1172 1.531 . S
C1176 H1188 0.960 . S
C1176 H1189 0.962 . S
C1176 H1190 0.960 . S
C1177 C1174 1.511 . S
C1177 H1191 0.961 . S
C1177 H1192 0.961 . S
C1177 H1193 0.961 . S
C1178 C1179 1.370 . S
C1178 C1180 1.363 . S
C1178 H1194 0.931 . S
C1179 C1178 1.370 . S
C1179 C1183 1.408 . S
C1180 C1178 1.363 . S
C1180 C1181 1.370 . S
C1180 C1184 1.524 . S
C1181 C1173 1.503 . S
C1181 C1180 1.370 . S
C1181 C1182 1.403 . S
C1182 C1181 1.403 . S
C1182 C1183 1.404 . S
C1182 C1185 1.539 . S
C1183 C1179 1.408 . S
C1183 C1182 1.404 . S
C1183 H1195 0.930 . S
C1184 C1180 1.524 . S
C1184 H1196 0.956 . S
C1184 H1197 0.961 . S
C1184 H1198 0.961 . S
C1185 C1182 1.539 . S
C1185 H1199 0.958 . S
C1185 H1200 0.961 . S
C1185 H1201 0.960 . S
H1186 C1170 0.931 . S
H1187 C1175 0.929 . S
H1188 C1176 0.960 . S
H1189 C1176 0.962 . S
H1190 C1176 0.960 . S
H1191 C1177 0.961 . S
H1192 C1177 0.961 . S
H1193 C1177 0.961 . S
H1194 C1178 0.931 . S
H1195 C1183 0.930 . S
H1196 C1184 0.956 . S
H1197 C1184 0.961 . S
H1198 C1184 0.961 . S
H1199 C1185 0.958 . S
H1200 C1185 0.961 . S
H1201 C1185 0.960 . S
C1202 C1203 1.391 . S
C1202 C1204 1.394 . S
C1202 H1218 0.931 . S
C1203 C1202 1.391 . S
C1203 C1207 1.376 . S
C1204 C1202 1.394 . S
C1204 C1205 1.369 . S
C1204 C1208 1.531 . S
C1205 C1204 1.369 . S
C1205 C1206 1.410 . S
C1205 C1213 1.503 . S
C1206 C1205 1.410 . S
C1206 C1207 1.392 . S
C1206 C1209 1.511 . S
C1207 C1203 1.376 . S
C1207 C1206 1.392 . S
C1207 H1219 0.929 . S
C1208 C1204 1.531 . S
C1208 H1220 0.960 . S
C1208 H1221 0.962 . S
C1208 H1222 0.960 . S
C1209 C1206 1.511 . S
C1209 H1223 0.961 . S
C1209 H1224 0.961 . S
C1209 H1225 0.961 . S
C1210 C1211 1.370 . S
C1210 C1212 1.363 . S
C1210 H1226 0.931 . S
C1211 C1210 1.370 . S
C1211 C1215 1.408 . S
C1212 C1210 1.363 . S
C1212 C1213 1.370 . S
C1212 C1216 1.524 . S
C1213 C1205 1.503 . S
C1213 C1212 1.370 . S
C1213 C1214 1.403 . S
C1214 C1213 1.403 . S
C1214 C1215 1.404 . S
C1214 C1217 1.539 . S
C1215 C1211 1.408 . S
C1215 C1214 1.404 . S
C1215 H1227 0.930 . S
C1216 C1212 1.524 . S
C1216 H1228 0.956 . S
C1216 H1229 0.961 . S
C1216 H1230 0.961 . S
C1217 C1214 1.539 . S
C1217 H1231 0.958 . S
C1217 H1232 0.961 . S
C1217 H1233 0.960 . S
H1218 C1202 0.931 . S
H1219 C1207 0.929 . S
H1220 C1208 0.960 . S
H1221 C1208 0.962 . S
H1222 C1208 0.960 . S
H1223 C1209 0.961 . S
H1224 C1209 0.961 . S
H1225 C1209 0.961 . S
H1226 C1210 0.931 . S
H1227 C1215 0.930 . S
H1228 C1216 0.956 . S
H1229 C1216 0.961 . S
H1230 C1216 0.961 . S
H1231 C1217 0.958 . S
H1232 C1217 0.961 . S
H1233 C1217 0.960 . S
C1234 C1235 1.391 . S
C1234 C1236 1.394 . S
C1234 H1250 0.931 . S
C1235 C1234 1.391 . S
C1235 C1239 1.376 . S
C1236 C1234 1.394 . S
C1236 C1237 1.369 . S
C1236 C1240 1.531 . S
C1237 C1236 1.369 . S
C1237 C1238 1.410 . S
C1237 C1245 1.503 . S
C1238 C1237 1.410 . S
C1238 C1239 1.392 . S
C1238 C1241 1.511 . S
C1239 C1235 1.376 . S
C1239 C1238 1.392 . S
C1239 H1251 0.929 . S
C1240 C1236 1.531 . S
C1240 H1252 0.960 . S
C1240 H1253 0.962 . S
C1240 H1254 0.960 . S
C1241 C1238 1.511 . S
C1241 H1255 0.961 . S
C1241 H1256 0.961 . S
C1241 H1257 0.961 . S
C1242 C1243 1.370 . S
C1242 C1244 1.363 . S
C1242 H1258 0.931 . S
C1243 C1242 1.370 . S
C1243 C1247 1.408 . S
C1244 C1242 1.363 . S
C1244 C1245 1.370 . S
C1244 C1248 1.524 . S
C1245 C1237 1.503 . S
C1245 C1244 1.370 . S
C1245 C1246 1.403 . S
C1246 C1245 1.403 . S
C1246 C1247 1.404 . S
C1246 C1249 1.539 . S
C1247 C1243 1.408 . S
C1247 C1246 1.404 . S
C1247 H1259 0.930 . S
C1248 C1244 1.524 . S
C1248 H1260 0.956 . S
C1248 H1261 0.961 . S
C1248 H1262 0.961 . S
C1249 C1246 1.539 . S
C1249 H1263 0.958 . S
C1249 H1264 0.961 . S
C1249 H1265 0.960 . S
H1250 C1234 0.931 . S
H1251 C1239 0.929 . S
H1252 C1240 0.960 . S
H1253 C1240 0.962 . S
H1254 C1240 0.960 . S
H1255 C1241 0.961 . S
H1256 C1241 0.961 . S
H1257 C1241 0.961 . S
H1258 C1242 0.931 . S
H1259 C1247 0.930 . S
H1260 C1248 0.956 . S
H1261 C1248 0.961 . S
H1262 C1248 0.961 . S
H1263 C1249 0.958 . S
H1264 C1249 0.961 . S
H1265 C1249 0.960 . S
C1266 C1267 1.391 . S
C1266 C1268 1.394 . S
C1266 H1282 0.931 . S
C1267 C1266 1.391 . S
C1267 C1271 1.376 . S
C1268 C1266 1.394 . S
C1268 C1269 1.369 . S
C1268 C1272 1.531 . S
C1269 C1268 1.369 . S
C1269 C1270 1.410 . S
C1269 C1277 1.503 1_545 S
C1270 C1269 1.410 . S
C1270 C1271 1.392 . S
C1270 C1273 1.511 . S
C1271 C1267 1.376 . S
C1271 C1270 1.392 . S
C1271 H1283 0.929 . S
C1272 C1268 1.531 . S
C1272 H1284 0.960 . S
C1272 H1285 0.962 . S
C1272 H1286 0.960 . S
C1273 C1270 1.511 . S
C1273 H1287 0.961 . S
C1273 H1288 0.961 1_545 S
C1273 H1289 0.961 . S
C1274 C1275 1.370 . S
C1274 C1276 1.363 . S
C1274 H1290 0.931 . S
C1275 C1274 1.370 . S
C1275 C1279 1.408 . S
C1276 C1274 1.363 . S
C1276 C1277 1.370 . S
C1276 C1280 1.524 . S
C1277 C1269 1.503 1_565 S
C1277 C1276 1.370 . S
C1277 C1278 1.403 . S
C1278 C1277 1.403 . S
C1278 C1279 1.404 . S
C1278 C1281 1.539 1_565 S
C1279 C1275 1.408 . S
C1279 C1278 1.404 . S
C1279 H1291 0.930 . S
C1280 C1276 1.524 . S
C1280 H1292 0.956 . S
C1280 H1293 0.961 . S
C1280 H1294 0.961 . S
C1281 C1278 1.539 1_545 S
C1281 H1295 0.958 . S
C1281 H1296 0.961 1_545 S
C1281 H1297 0.960 . S
H1282 C1266 0.931 . S
H1283 C1271 0.929 . S
H1284 C1272 0.960 . S
H1285 C1272 0.962 . S
H1286 C1272 0.960 . S
H1287 C1273 0.961 . S
H1288 C1273 0.961 1_565 S
H1289 C1273 0.961 . S
H1290 C1274 0.931 . S
H1291 C1279 0.930 . S
H1292 C1280 0.956 . S
H1293 C1280 0.961 . S
H1294 C1280 0.961 . S
H1295 C1281 0.958 . S
H1296 C1281 0.961 1_565 S
H1297 C1281 0.960 . S
C1298 C1299 1.391 . S
C1298 C1300 1.394 . S
C1298 H1314 0.931 . S
C1299 C1298 1.391 . S
C1299 C1303 1.376 . S
C1300 C1298 1.394 . S
C1300 C1301 1.369 1_655 S
C1300 C1304 1.531 . S
C1301 C1300 1.369 1_455 S
C1301 C1302 1.410 1_455 S
C1301 C1309 1.503 . S
C1302 C1301 1.410 1_655 S
C1302 C1303 1.392 . S
C1302 C1305 1.511 1_655 S
C1303 C1299 1.376 . S
C1303 C1302 1.392 . S
C1303 H1315 0.929 . S
C1304 C1300 1.531 . S
C1304 H1316 0.960 1_655 S
C1304 H1317 0.962 . S
C1304 H1318 0.960 . S
C1305 C1302 1.511 1_455 S
C1305 H1319 0.961 . S
C1305 H1320 0.961 . S
C1305 H1321 0.961 . S
C1306 C1307 1.370 . S
C1306 C1308 1.363 . S
C1306 H1322 0.931 . S
C1307 C1306 1.370 . S
C1307 C1311 1.408 . S
C1308 C1306 1.363 . S
C1308 C1309 1.370 . S
C1308 C1312 1.524 . S
C1309 C1301 1.503 . S
C1309 C1308 1.370 . S
C1309 C1310 1.403 . S
C1310 C1309 1.403 . S
C1310 C1311 1.404 . S
C1310 C1313 1.539 . S
C1311 C1307 1.408 . S
C1311 C1310 1.404 . S
C1311 H1323 0.930 . S
C1312 C1308 1.524 . S
C1312 H1324 0.956 1_455 S
C1312 H1325 0.961 1_455 S
C1312 H1326 0.961 . S
C1313 C1310 1.539 . S
C1313 H1327 0.958 . S
C1313 H1328 0.961 . S
C1313 H1329 0.960 . S
H1314 C1298 0.931 . S
H1315 C1303 0.929 . S
H1316 C1304 0.960 1_455 S
H1317 C1304 0.962 . S
H1318 C1304 0.960 . S
H1319 C1305 0.961 . S
H1320 C1305 0.961 . S
H1321 C1305 0.961 . S
H1322 C1306 0.931 . S
H1323 C1311 0.930 . S
H1324 C1312 0.956 1_655 S
H1325 C1312 0.961 1_655 S
H1326 C1312 0.961 . S
H1327 C1313 0.958 . S
H1328 C1313 0.961 . S
H1329 C1313 0.960 . S
C1330 C1331 1.391 . S
C1330 C1332 1.394 . S
C1330 H1346 0.931 . S
C1331 C1330 1.391 . S
C1331 C1335 1.376 . S
C1332 C1330 1.394 . S
C1332 C1333 1.369 . S
C1332 C1336 1.531 . S
C1333 C1332 1.369 . S
C1333 C1334 1.410 . S
C1333 C1341 1.503 . S
C1334 C1333 1.410 . S
C1334 C1335 1.392 . S
C1334 C1337 1.511 . S
C1335 C1331 1.376 . S
C1335 C1334 1.392 . S
C1335 H1347 0.929 . S
C1336 C1332 1.531 . S
C1336 H1348 0.960 . S
C1336 H1349 0.962 . S
C1336 H1350 0.960 . S
C1337 C1334 1.511 . S
C1337 H1351 0.961 . S
C1337 H1352 0.961 . S
C1337 H1353 0.961 . S
C1338 C1339 1.370 . S
C1338 C1340 1.363 . S
C1338 H1354 0.931 . S
C1339 C1338 1.370 . S
C1339 C1343 1.408 . S
C1340 C1338 1.363 . S
C1340 C1341 1.370 . S
C1340 C1344 1.524 . S
C1341 C1333 1.503 . S
C1341 C1340 1.370 . S
C1341 C1342 1.403 . S
C1342 C1341 1.403 . S
C1342 C1343 1.404 . S
C1342 C1345 1.539 . S
C1343 C1339 1.408 . S
C1343 C1342 1.404 . S
C1343 H1355 0.930 . S
C1344 C1340 1.524 . S
C1344 H1356 0.956 . S
C1344 H1357 0.961 . S
C1344 H1358 0.961 . S
C1345 C1342 1.539 . S
C1345 H1359 0.958 . S
C1345 H1360 0.961 . S
C1345 H1361 0.960 . S
H1346 C1330 0.931 . S
H1347 C1335 0.929 . S
H1348 C1336 0.960 . S
H1349 C1336 0.962 . S
H1350 C1336 0.960 . S
H1351 C1337 0.961 . S
H1352 C1337 0.961 . S
H1353 C1337 0.961 . S
H1354 C1338 0.931 . S
H1355 C1343 0.930 . S
H1356 C1344 0.956 . S
H1357 C1344 0.961 . S
H1358 C1344 0.961 . S
H1359 C1345 0.958 . S
H1360 C1345 0.961 . S
H1361 C1345 0.960 . S
C1362 C1363 1.391 . S
C1362 C1364 1.394 . S
C1362 H1378 0.931 . S
C1363 C1362 1.391 . S
C1363 C1367 1.376 . S
C1364 C1362 1.394 . S
C1364 C1365 1.369 . S
C1364 C1368 1.531 . S
C1365 C1364 1.369 . S
C1365 C1366 1.410 . S
C1365 C1373 1.503 . S
C1366 C1365 1.410 . S
C1366 C1367 1.392 . S
C1366 C1369 1.511 . S
C1367 C1363 1.376 . S
C1367 C1366 1.392 . S
C1367 H1379 0.929 . S
C1368 C1364 1.531 . S
C1368 H1380 0.960 . S
C1368 H1381 0.962 . S
C1368 H1382 0.960 . S
C1369 C1366 1.511 . S
C1369 H1383 0.961 . S
C1369 H1384 0.961 . S
C1369 H1385 0.961 . S
C1370 C1371 1.370 . S
C1370 C1372 1.363 . S
C1370 H1386 0.931 . S
C1371 C1370 1.370 . S
C1371 C1375 1.408 . S
C1372 C1370 1.363 . S
C1372 C1373 1.370 . S
C1372 C1376 1.524 . S
C1373 C1365 1.503 . S
C1373 C1372 1.370 . S
C1373 C1374 1.403 . S
C1374 C1373 1.403 . S
C1374 C1375 1.404 . S
C1374 C1377 1.539 . S
C1375 C1371 1.408 . S
C1375 C1374 1.404 . S
C1375 H1387 0.930 . S
C1376 C1372 1.524 . S
C1376 H1388 0.956 . S
C1376 H1389 0.961 . S
C1376 H1390 0.961 . S
C1377 C1374 1.539 . S
C1377 H1391 0.958 . S
C1377 H1392 0.961 . S
C1377 H1393 0.960 . S
H1378 C1362 0.931 . S
H1379 C1367 0.929 . S
H1380 C1368 0.960 . S
H1381 C1368 0.962 . S
H1382 C1368 0.960 . S
H1383 C1369 0.961 . S
H1384 C1369 0.961 . S
H1385 C1369 0.961 . S
H1386 C1370 0.931 . S
H1387 C1375 0.930 . S
H1388 C1376 0.956 . S
H1389 C1376 0.961 . S
H1390 C1376 0.961 . S
H1391 C1377 0.958 . S
H1392 C1377 0.961 . S
H1393 C1377 0.960 . S
C1394 C1395 1.391 . S
C1394 C1396 1.394 . S
C1394 H1410 0.931 . S
C1395 C1394 1.391 . S
C1395 C1399 1.376 . S
C1396 C1394 1.394 . S
C1396 C1397 1.369 . S
C1396 C1400 1.531 . S
C1397 C1396 1.369 . S
C1397 C1398 1.410 . S
C1397 C1405 1.503 . S
C1398 C1397 1.410 . S
C1398 C1399 1.392 . S
C1398 C1401 1.511 . S
C1399 C1395 1.376 . S
C1399 C1398 1.392 . S
C1399 H1411 0.929 . S
C1400 C1396 1.531 . S
C1400 H1412 0.960 . S
C1400 H1413 0.962 . S
C1400 H1414 0.960 . S
C1401 C1398 1.511 . S
C1401 H1415 0.961 . S
C1401 H1416 0.961 . S
C1401 H1417 0.961 . S
C1402 C1403 1.370 . S
C1402 C1404 1.363 . S
C1402 H1418 0.931 . S
C1403 C1402 1.370 . S
C1403 C1407 1.408 . S
C1404 C1402 1.363 . S
C1404 C1405 1.370 . S
C1404 C1408 1.524 . S
C1405 C1397 1.503 . S
C1405 C1404 1.370 . S
C1405 C1406 1.403 . S
C1406 C1405 1.403 . S
C1406 C1407 1.404 . S
C1406 C1409 1.539 . S
C1407 C1403 1.408 . S
C1407 C1406 1.404 . S
C1407 H1419 0.930 . S
C1408 C1404 1.524 . S
C1408 H1420 0.956 . S
C1408 H1421 0.961 . S
C1408 H1422 0.961 . S
C1409 C1406 1.539 . S
C1409 H1423 0.958 . S
C1409 H1424 0.961 . S
C1409 H1425 0.960 . S
H1410 C1394 0.931 . S
H1411 C1399 0.929 . S
H1412 C1400 0.960 . S
H1413 C1400 0.962 . S
H1414 C1400 0.960 . S
H1415 C1401 0.961 . S
H1416 C1401 0.961 . S
H1417 C1401 0.961 . S
H1418 C1402 0.931 . S
H1419 C1407 0.930 . S
H1420 C1408 0.956 . S
H1421 C1408 0.961 . S
H1422 C1408 0.961 . S
H1423 C1409 0.958 . S
H1424 C1409 0.961 . S
H1425 C1409 0.960 . S
C1426 C1427 1.391 . S
C1426 C1428 1.394 . S
C1426 H1442 0.931 . S
C1427 C1426 1.391 . S
C1427 C1431 1.376 . S
C1428 C1426 1.394 . S
C1428 C1429 1.369 . S
C1428 C1432 1.531 . S
C1429 C1428 1.369 . S
C1429 C1430 1.410 . S
C1429 C1437 1.503 . S
C1430 C1429 1.410 . S
C1430 C1431 1.392 . S
C1430 C1433 1.511 . S
C1431 C1427 1.376 . S
C1431 C1430 1.392 . S
C1431 H1443 0.929 . S
C1432 C1428 1.531 . S
C1432 H1444 0.960 . S
C1432 H1445 0.962 . S
C1432 H1446 0.960 . S
C1433 C1430 1.511 . S
C1433 H1447 0.961 . S
C1433 H1448 0.961 . S
C1433 H1449 0.961 . S
C1434 C1435 1.370 . S
C1434 C1436 1.363 . S
C1434 H1450 0.931 . S
C1435 C1434 1.370 . S
C1435 C1439 1.408 . S
C1436 C1434 1.363 . S
C1436 C1437 1.370 . S
C1436 C1440 1.524 . S
C1437 C1429 1.503 . S
C1437 C1436 1.370 . S
C1437 C1438 1.403 . S
C1438 C1437 1.403 . S
C1438 C1439 1.404 . S
C1438 C1441 1.539 . S
C1439 C1435 1.408 . S
C1439 C1438 1.404 . S
C1439 H1451 0.930 . S
C1440 C1436 1.524 . S
C1440 H1452 0.956 . S
C1440 H1453 0.961 . S
C1440 H1454 0.961 . S
C1441 C1438 1.539 . S
C1441 H1455 0.958 . S
C1441 H1456 0.961 . S
C1441 H1457 0.960 . S
H1442 C1426 0.931 . S
H1443 C1431 0.929 . S
H1444 C1432 0.960 . S
H1445 C1432 0.962 . S
H1446 C1432 0.960 . S
H1447 C1433 0.961 . S
H1448 C1433 0.961 . S
H1449 C1433 0.961 . S
H1450 C1434 0.931 . S
H1451 C1439 0.930 . S
H1452 C1440 0.956 . S
H1453 C1440 0.961 . S
H1454 C1440 0.961 . S
H1455 C1441 0.958 . S
H1456 C1441 0.961 . S
H1457 C1441 0.960 . S
C1458 C1459 1.391 . S
C1458 C1460 1.394 . S
C1458 H1474 0.931 . S
C1459 C1458 1.391 . S
C1459 C1463 1.376 . S
C1460 C1458 1.394 . S
C1460 C1461 1.369 1_565 S
C1460 C1464 1.531 1_565 S
C1461 C1460 1.369 1_545 S
C1461 C1462 1.410 1_545 S
C1461 C1469 1.503 . S
C1462 C1461 1.410 1_565 S
C1462 C1463 1.392 . S
C1462 C1465 1.511 1_565 S
C1463 C1459 1.376 . S
C1463 C1462 1.392 . S
C1463 H1475 0.929 . S
C1464 C1460 1.531 1_545 S
C1464 H1476 0.965 . S
C1464 H1477 0.961 . S
C1464 H1478 0.957 1_545 S
C1465 C1462 1.511 1_545 S
C1465 H1479 0.961 1_545 S
C1465 H1480 0.961 . S
C1465 H1481 0.961 . S
C1466 C1467 1.370 . S
C1466 C1468 1.363 . S
C1466 H1482 0.931 . S
C1467 C1466 1.370 . S
C1467 C1471 1.408 . S
C1468 C1466 1.363 . S
C1468 C1469 1.370 . S
C1468 C1472 1.524 . S
C1469 C1461 1.503 . S
C1469 C1468 1.370 . S
C1469 C1470 1.403 . S
C1470 C1469 1.403 . S
C1470 C1471 1.404 . S
C1470 C1473 1.539 . S
C1471 C1467 1.408 . S
C1471 C1470 1.404 . S
C1471 H1483 0.930 . S
C1472 C1468 1.524 . S
C1472 H1484 0.956 . S
C1472 H1485 0.961 . S
C1472 H1486 0.961 . S
C1473 C1470 1.539 . S
C1473 H1487 0.958 . S
C1473 H1488 0.961 . S
C1473 H1489 0.960 . S
H1474 C1458 0.931 . S
H1475 C1463 0.929 . S
H1476 C1464 0.965 . S
H1477 C1464 0.961 . S
H1478 C1464 0.957 1_565 S
H1479 C1465 0.961 1_565 S
H1480 C1465 0.961 . S
H1481 C1465 0.961 . S
H1482 C1466 0.931 . S
H1483 C1471 0.930 . S
H1484 C1472 0.956 . S
H1485 C1472 0.961 . S
H1486 C1472 0.961 . S
H1487 C1473 0.958 . S
H1488 C1473 0.961 . S
H1489 C1473 0.960 . S
C1490 C1491 1.391 . S
C1490 C1492 1.394 1_455 S
C1490 H1506 0.931 . S
C1491 C1490 1.391 . S
C1491 C1495 1.376 . S
C1492 C1490 1.394 1_655 S
C1492 C1493 1.369 . S
C1492 C1496 1.531 . S
C1493 C1492 1.369 . S
C1493 C1494 1.410 1_655 S
C1493 C1501 1.503 . S
C1494 C1493 1.410 1_455 S
C1494 C1495 1.392 . S
C1494 C1497 1.511 . S
C1495 C1491 1.376 . S
C1495 C1494 1.392 . S
C1495 H1507 0.929 . S
C1496 C1492 1.531 . S
C1496 H1508 0.960 . S
C1496 H1509 0.962 . S
C1496 H1510 0.960 . S
C1497 C1494 1.511 . S
C1497 H1511 0.961 . S
C1497 H1512 0.961 1_455 S
C1497 H1513 0.961 . S
C1498 C1499 1.370 . S
C1498 C1500 1.363 . S
C1498 H1514 0.931 . S
C1499 C1498 1.370 . S
C1499 C1503 1.408 . S
C1500 C1498 1.363 . S
C1500 C1501 1.370 . S
C1500 C1504 1.524 . S
C1501 C1493 1.503 . S
C1501 C1500 1.370 . S
C1501 C1502 1.403 . S
C1502 C1501 1.403 . S
C1502 C1503 1.404 . S
C1502 C1505 1.539 . S
C1503 C1499 1.408 . S
C1503 C1502 1.404 . S
C1503 H1515 0.930 . S
C1504 C1500 1.524 . S
C1504 H1516 0.956 . S
C1504 H1517 0.961 . S
C1504 H1518 0.961 . S
C1505 C1502 1.539 . S
C1505 H1519 0.958 . S
C1505 H1520 0.961 . S
C1505 H1521 0.960 . S
H1506 C1490 0.931 . S
H1507 C1495 0.929 . S
H1508 C1496 0.960 . S
H1509 C1496 0.962 . S
H1510 C1496 0.960 . S
H1511 C1497 0.961 . S
H1512 C1497 0.961 1_655 S
H1513 C1497 0.961 . S
H1514 C1498 0.931 . S
H1515 C1503 0.930 . S
H1516 C1504 0.956 . S
H1517 C1504 0.961 . S
H1518 C1504 0.961 . S
H1519 C1505 0.958 . S
H1520 C1505 0.961 . S
H1521 C1505 0.960 . S
C1522 C1523 1.391 . S
C1522 C1524 1.394 . S
C1522 H1538 0.931 . S
C1523 C1522 1.391 . S
C1523 C1527 1.376 . S
C1524 C1522 1.394 . S
C1524 C1525 1.369 . S
C1524 C1528 1.531 . S
C1525 C1524 1.369 . S
C1525 C1526 1.410 . S
C1525 C1533 1.503 . S
C1526 C1525 1.410 . S
C1526 C1527 1.392 . S
C1526 C1529 1.511 . S
C1527 C1523 1.376 . S
C1527 C1526 1.392 . S
C1527 H1539 0.929 . S
C1528 C1524 1.531 . S
C1528 H1540 0.960 . S
C1528 H1541 0.962 . S
C1528 H1542 0.960 . S
C1529 C1526 1.511 . S
C1529 H1543 0.961 . S
C1529 H1544 0.961 . S
C1529 H1545 0.961 . S
C1530 C1531 1.370 . S
C1530 C1532 1.363 . S
C1530 H1546 0.931 . S
C1531 C1530 1.370 . S
C1531 C1535 1.408 . S
C1532 C1530 1.363 . S
C1532 C1533 1.370 . S
C1532 C1536 1.524 . S
C1533 C1525 1.503 . S
C1533 C1532 1.370 . S
C1533 C1534 1.403 . S
C1534 C1533 1.403 . S
C1534 C1535 1.404 . S
C1534 C1537 1.539 . S
C1535 C1531 1.408 . S
C1535 C1534 1.404 . S
C1535 H1547 0.930 . S
C1536 C1532 1.524 . S
C1536 H1548 0.956 . S
C1536 H1549 0.961 . S
C1536 H1550 0.961 . S
C1537 C1534 1.539 . S
C1537 H1551 0.958 . S
C1537 H1552 0.961 . S
C1537 H1553 0.960 . S
H1538 C1522 0.931 . S
H1539 C1527 0.929 . S
H1540 C1528 0.960 . S
H1541 C1528 0.962 . S
H1542 C1528 0.960 . S
H1543 C1529 0.961 . S
H1544 C1529 0.961 . S
H1545 C1529 0.961 . S
H1546 C1530 0.931 . S
H1547 C1535 0.930 . S
H1548 C1536 0.956 . S
H1549 C1536 0.961 . S
H1550 C1536 0.961 . S
H1551 C1537 0.958 . S
H1552 C1537 0.961 . S
H1553 C1537 0.960 . S
C1554 C1555 1.391 . S
C1554 C1556 1.394 . S
C1554 H1570 0.931 . S
C1555 C1554 1.391 . S
C1555 C1559 1.376 . S
C1556 C1554 1.394 . S
C1556 C1557 1.369 . S
C1556 C1560 1.531 . S
C1557 C1556 1.369 . S
C1557 C1558 1.410 . S
C1557 C1565 1.503 . S
C1558 C1557 1.410 . S
C1558 C1559 1.392 . S
C1558 C1561 1.511 . S
C1559 C1555 1.376 . S
C1559 C1558 1.392 . S
C1559 H1571 0.929 . S
C1560 C1556 1.531 . S
C1560 H1572 0.960 . S
C1560 H1573 0.962 . S
C1560 H1574 0.960 . S
C1561 C1558 1.511 . S
C1561 H1575 0.961 . S
C1561 H1576 0.961 . S
C1561 H1577 0.961 . S
C1562 C1563 1.370 . S
C1562 C1564 1.363 . S
C1562 H1578 0.931 . S
C1563 C1562 1.370 . S
C1563 C1567 1.408 . S
C1564 C1562 1.363 . S
C1564 C1565 1.370 1_655 S
C1564 C1568 1.524 1_655 S
C1565 C1557 1.503 . S
C1565 C1564 1.370 1_455 S
C1565 C1566 1.403 1_455 S
C1566 C1565 1.403 1_655 S
C1566 C1567 1.404 . S
C1566 C1569 1.539 1_655 S
C1567 C1563 1.408 . S
C1567 C1566 1.404 . S
C1567 H1579 0.930 . S
C1568 C1564 1.524 1_455 S
C1568 H1580 0.956 . S
C1568 H1581 0.961 . S
C1568 H1582 0.961 . S
C1569 C1566 1.539 1_455 S
C1569 H1583 0.958 . S
C1569 H1584 0.961 . S
C1569 H1585 0.960 . S
H1570 C1554 0.931 . S
H1571 C1559 0.929 . S
H1572 C1560 0.960 . S
H1573 C1560 0.962 . S
H1574 C1560 0.960 . S
H1575 C1561 0.961 . S
H1576 C1561 0.961 . S
H1577 C1561 0.961 . S
H1578 C1562 0.931 . S
H1579 C1567 0.930 . S
H1580 C1568 0.956 . S
H1581 C1568 0.961 . S
H1582 C1568 0.961 . S
H1583 C1569 0.958 . S
H1584 C1569 0.961 . S
H1585 C1569 0.960 . S
C1586 C1587 1.391 . S
C1586 C1588 1.394 . S
C1586 H1602 0.931 . S
C1587 C1586 1.391 . S
C1587 C1591 1.376 . S
C1588 C1586 1.394 . S
C1588 C1589 1.369 . S
C1588 C1592 1.531 . S
C1589 C1588 1.369 . S
C1589 C1590 1.410 . S
C1589 C1597 1.503 . S
C1590 C1589 1.410 . S
C1590 C1591 1.392 . S
C1590 C1593 1.511 . S
C1591 C1587 1.376 . S
C1591 C1590 1.392 . S
C1591 H1603 0.929 . S
C1592 C1588 1.531 . S
C1592 H1604 0.960 . S
C1592 H1605 0.962 . S
C1592 H1606 0.960 . S
C1593 C1590 1.511 . S
C1593 H1607 0.961 . S
C1593 H1608 0.961 . S
C1593 H1609 0.961 . S
C1594 C1595 1.370 . S
C1594 C1596 1.363 . S
C1594 H1610 0.931 . S
C1595 C1594 1.370 . S
C1595 C1599 1.408 . S
C1596 C1594 1.363 . S
C1596 C1597 1.370 . S
C1596 C1600 1.524 . S
C1597 C1589 1.503 . S
C1597 C1596 1.370 . S
C1597 C1598 1.403 . S
C1598 C1597 1.403 . S
C1598 C1599 1.404 . S
C1598 C1601 1.539 . S
C1599 C1595 1.408 . S
C1599 C1598 1.404 . S
C1599 H1611 0.930 . S
C1600 C1596 1.524 . S
C1600 H1612 0.956 . S
C1600 H1613 0.961 . S
C1600 H1614 0.961 . S
C1601 C1598 1.539 . S
C1601 H1615 0.958 . S
C1601 H1616 0.961 . S
C1601 H1617 0.960 . S
H1602 C1586 0.931 . S
H1603 C1591 0.929 . S
H1604 C1592 0.960 . S
H1605 C1592 0.962 . S
H1606 C1592 0.960 . S
H1607 C1593 0.961 . S
H1608 C1593 0.961 . S
H1609 C1593 0.961 . S
H1610 C1594 0.931 . S
H1611 C1599 0.930 . S
H1612 C1600 0.956 . S
H1613 C1600 0.961 . S
H1614 C1600 0.961 . S
H1615 C1601 0.958 . S
H1616 C1601 0.961 . S
H1617 C1601 0.960 . S
C1618 C1619 1.391 . S
C1618 C1620 1.394 . S
C1618 H1634 0.931 . S
C1619 C1618 1.391 . S
C1619 C1623 1.376 . S
C1620 C1618 1.394 . S
C1620 C1621 1.369 . S
C1620 C1624 1.531 . S
C1621 C1620 1.369 . S
C1621 C1622 1.410 . S
C1621 C1629 1.503 1_565 S
C1622 C1621 1.410 . S
C1622 C1623 1.392 . S
C1622 C1625 1.511 . S
C1623 C1619 1.376 . S
C1623 C1622 1.392 . S
C1623 H1635 0.929 . S
C1624 C1620 1.531 . S
C1624 H1636 0.960 1_565 S
C1624 H1637 0.962 . S
C1624 H1638 0.960 . S
C1625 C1622 1.511 . S
C1625 H1639 0.961 . S
C1625 H1640 0.961 . S
C1625 H1641 0.961 . S
C1626 C1627 1.370 . S
C1626 C1628 1.363 . S
C1626 H1642 0.931 . S
C1627 C1626 1.370 . S
C1627 C1631 1.408 . S
C1628 C1626 1.363 . S
C1628 C1629 1.370 . S
C1628 C1632 1.512 1_545 S
C1629 C1621 1.503 1_545 S
C1629 C1628 1.370 . S
C1629 C1630 1.403 . S
C1630 C1629 1.403 . S
C1630 C1631 1.404 . S
C1630 C1633 1.539 . S
C1631 C1627 1.408 . S
C1631 C1630 1.404 . S
C1631 H1643 0.930 . S
C1632 C1628 1.512 1_565 S
C1632 H1644 0.966 . S
C1632 H1645 0.967 . S
C1632 H1646 0.956 1_565 S
C1633 C1630 1.539 . S
C1633 H1647 0.958 . S
C1633 H1648 0.961 . S
C1633 H1649 0.983 . S
H1634 C1618 0.931 . S
H1635 C1623 0.929 . S
H1636 C1624 0.960 1_545 S
H1637 C1624 0.962 . S
H1638 C1624 0.960 . S
H1639 C1625 0.961 . S
H1640 C1625 0.961 . S
H1641 C1625 0.961 . S
H1642 C1626 0.931 . S
H1643 C1631 0.930 . S
H1644 C1632 0.966 . S
H1645 C1632 0.967 . S
H1646 C1632 0.956 1_545 S
H1647 C1633 0.958 . S
H1648 C1633 0.961 . S
H1649 C1633 0.983 . S
C1650 C1651 1.391 . S
C1650 C1652 1.394 . S
C1650 H1666 0.931 . S
C1651 C1650 1.391 . S
C1651 C1655 1.376 . S
C1652 C1650 1.394 . S
C1652 C1653 1.369 . S
C1652 C1656 1.531 . S
C1653 C1652 1.369 . S
C1653 C1654 1.410 . S
C1653 C1661 1.503 . S
C1654 C1653 1.410 . S
C1654 C1655 1.392 . S
C1654 C1657 1.511 . S
C1655 C1651 1.376 . S
C1655 C1654 1.392 . S
C1655 H1667 0.929 . S
C1656 C1652 1.531 . S
C1656 H1668 0.960 . S
C1656 H1669 0.962 . S
C1656 H1670 0.960 . S
C1657 C1654 1.511 . S
C1657 H1671 0.961 . S
C1657 H1672 0.961 . S
C1657 H1673 0.961 . S
C1658 C1659 1.370 . S
C1658 C1660 1.363 . S
C1658 H1674 0.931 . S
C1659 C1658 1.370 . S
C1659 C1663 1.408 . S
C1660 C1658 1.363 . S
C1660 C1661 1.370 . S
C1660 C1664 1.524 . S
C1661 C1653 1.503 . S
C1661 C1660 1.370 . S
C1661 C1662 1.403 . S
C1662 C1661 1.403 . S
C1662 C1663 1.404 . S
C1662 C1665 1.539 . S
C1663 C1659 1.408 . S
C1663 C1662 1.404 . S
C1663 H1675 0.930 . S
C1664 C1660 1.524 . S
C1664 H1676 0.956 . S
C1664 H1677 0.961 . S
C1664 H1678 0.961 . S
C1665 C1662 1.539 . S
C1665 H1679 0.958 . S
C1665 H1680 0.961 . S
C1665 H1681 0.960 . S
H1666 C1650 0.931 . S
H1667 C1655 0.929 . S
H1668 C1656 0.960 . S
H1669 C1656 0.962 . S
H1670 C1656 0.960 . S
H1671 C1657 0.961 . S
H1672 C1657 0.961 . S
H1673 C1657 0.961 . S
H1674 C1658 0.931 . S
H1675 C1663 0.930 . S
H1676 C1664 0.956 . S
H1677 C1664 0.961 . S
H1678 C1664 0.961 . S
H1679 C1665 0.958 . S
H1680 C1665 0.961 . S
H1681 C1665 0.960 . S
C1682 C1683 1.391 . S
C1682 C1684 1.394 . S
C1682 H1698 0.931 . S
C1683 C1682 1.391 . S
C1683 C1687 1.376 . S
C1684 C1682 1.394 . S
C1684 C1685 1.369 . S
C1684 C1688 1.531 . S
C1685 C1684 1.369 . S
C1685 C1686 1.410 . S
C1685 C1693 1.503 . S
C1686 C1685 1.410 . S
C1686 C1687 1.392 . S
C1686 C1689 1.511 . S
C1687 C1683 1.376 . S
C1687 C1686 1.392 . S
C1687 H1699 0.929 . S
C1688 C1684 1.531 . S
C1688 H1700 0.960 . S
C1688 H1701 0.962 . S
C1688 H1702 0.960 . S
C1689 C1686 1.511 . S
C1689 H1703 0.961 . S
C1689 H1704 0.961 . S
C1689 H1705 0.961 . S
C1690 C1691 1.370 . S
C1690 C1692 1.363 . S
C1690 H1706 0.931 . S
C1691 C1690 1.370 . S
C1691 C1695 1.408 . S
C1692 C1690 1.363 . S
C1692 C1693 1.370 . S
C1692 C1696 1.524 . S
C1693 C1685 1.503 . S
C1693 C1692 1.370 . S
C1693 C1694 1.403 . S
C1694 C1693 1.403 . S
C1694 C1695 1.404 . S
C1694 C1697 1.539 . S
C1695 C1691 1.408 . S
C1695 C1694 1.404 . S
C1695 H1707 0.930 . S
C1696 C1692 1.524 . S
C1696 H1708 0.956 . S
C1696 H1709 0.961 . S
C1696 H1710 0.961 . S
C1697 C1694 1.539 . S
C1697 H1711 0.958 . S
C1697 H1712 0.961 . S
C1697 H1713 0.960 . S
H1698 C1682 0.931 . S
H1699 C1687 0.929 . S
H1700 C1688 0.960 . S
H1701 C1688 0.962 . S
H1702 C1688 0.960 . S
H1703 C1689 0.961 . S
H1704 C1689 0.961 . S
H1705 C1689 0.961 . S
H1706 C1690 0.931 . S
H1707 C1695 0.930 . S
H1708 C1696 0.956 . S
H1709 C1696 0.961 . S
H1710 C1696 0.961 . S
H1711 C1697 0.958 . S
H1712 C1697 0.961 . S
H1713 C1697 0.960 . S
C1714 C1715 1.391 . S
C1714 C1716 1.394 . S
C1714 H1730 0.931 . S
C1715 C1714 1.391 . S
C1715 C1719 1.376 . S
C1716 C1714 1.394 . S
C1716 C1717 1.369 . S
C1716 C1720 1.531 . S
C1717 C1716 1.369 . S
C1717 C1718 1.410 . S
C1717 C1725 1.503 . S
C1718 C1717 1.410 . S
C1718 C1719 1.392 . S
C1718 C1721 1.511 . S
C1719 C1715 1.376 . S
C1719 C1718 1.392 . S
C1719 H1731 0.929 . S
C1720 C1716 1.531 . S
C1720 H1732 0.960 . S
C1720 H1733 0.962 . S
C1720 H1734 0.960 . S
C1721 C1718 1.511 . S
C1721 H1735 0.961 . S
C1721 H1736 0.961 . S
C1721 H1737 0.961 . S
C1722 C1723 1.370 . S
C1722 C1724 1.363 . S
C1722 H1738 0.931 . S
C1723 C1722 1.370 . S
C1723 C1727 1.408 . S
C1724 C1722 1.363 . S
C1724 C1725 1.370 . S
C1724 C1728 1.524 . S
C1725 C1717 1.503 . S
C1725 C1724 1.370 . S
C1725 C1726 1.403 . S
C1726 C1725 1.403 . S
C1726 C1727 1.404 . S
C1726 C1729 1.539 . S
C1727 C1723 1.408 . S
C1727 C1726 1.404 . S
C1727 H1739 0.930 . S
C1728 C1724 1.524 . S
C1728 H1740 0.956 . S
C1728 H1741 0.961 . S
C1728 H1742 0.961 . S
C1729 C1726 1.539 . S
C1729 H1743 0.958 . S
C1729 H1744 0.961 . S
C1729 H1745 0.960 . S
H1730 C1714 0.931 . S
H1731 C1719 0.929 . S
H1732 C1720 0.960 . S
H1733 C1720 0.962 . S
H1734 C1720 0.960 . S
H1735 C1721 0.961 . S
H1736 C1721 0.961 . S
H1737 C1721 0.961 . S
H1738 C1722 0.931 . S
H1739 C1727 0.930 . S
H1740 C1728 0.956 . S
H1741 C1728 0.961 . S
H1742 C1728 0.961 . S
H1743 C1729 0.958 . S
H1744 C1729 0.961 . S
H1745 C1729 0.960 . S
C1746 C1747 1.391 . S
C1746 C1748 1.394 . S
C1746 H1762 0.931 . S
C1747 C1746 1.391 . S
C1747 C1751 1.376 . S
C1748 C1746 1.394 . S
C1748 C1749 1.369 . S
C1748 C1752 1.531 . S
C1749 C1748 1.369 . S
C1749 C1750 1.410 . S
C1749 C1757 1.503 . S
C1750 C1749 1.410 . S
C1750 C1751 1.392 . S
C1750 C1753 1.511 . S
C1751 C1747 1.376 . S
C1751 C1750 1.392 . S
C1751 H1763 0.929 . S
C1752 C1748 1.531 . S
C1752 H1764 0.960 . S
C1752 H1765 0.962 . S
C1752 H1766 0.960 . S
C1753 C1750 1.511 . S
C1753 H1767 0.961 . S
C1753 H1768 0.961 . S
C1753 H1769 0.961 . S
C1754 C1755 1.370 . S
C1754 C1756 1.363 . S
C1754 H1770 0.931 . S
C1755 C1754 1.370 . S
C1755 C1759 1.408 . S
C1756 C1754 1.363 . S
C1756 C1757 1.370 . S
C1756 C1760 1.524 . S
C1757 C1749 1.503 . S
C1757 C1756 1.370 . S
C1757 C1758 1.403 . S
C1758 C1757 1.403 . S
C1758 C1759 1.404 . S
C1758 C1761 1.539 . S
C1759 C1755 1.408 . S
C1759 C1758 1.404 . S
C1759 H1771 0.930 . S
C1760 C1756 1.524 . S
C1760 H1772 0.956 . S
C1760 H1773 0.961 . S
C1760 H1774 0.961 . S
C1761 C1758 1.539 . S
C1761 H1775 0.958 . S
C1761 H1776 0.961 . S
C1761 H1777 0.960 . S
H1762 C1746 0.931 . S
H1763 C1751 0.929 . S
H1764 C1752 0.960 . S
H1765 C1752 0.962 . S
H1766 C1752 0.960 . S
H1767 C1753 0.961 . S
H1768 C1753 0.961 . S
H1769 C1753 0.961 . S
H1770 C1754 0.931 . S
H1771 C1759 0.930 . S
H1772 C1760 0.956 . S
H1773 C1760 0.961 . S
H1774 C1760 0.961 . S
H1775 C1761 0.958 . S
H1776 C1761 0.961 . S
H1777 C1761 0.960 . S
C1778 C1779 1.391 . S
C1778 C1780 1.394 . S
C1778 H1794 0.931 . S
C1779 C1778 1.391 . S
C1779 C1783 1.376 . S
C1780 C1778 1.394 . S
C1780 C1781 1.369 . S
C1780 C1784 1.531 . S
C1781 C1780 1.369 . S
C1781 C1782 1.410 . S
C1781 C1789 1.503 . S
C1782 C1781 1.410 . S
C1782 C1783 1.392 . S
C1782 C1785 1.511 . S
C1783 C1779 1.376 . S
C1783 C1782 1.392 . S
C1783 H1795 0.929 . S
C1784 C1780 1.531 . S
C1784 H1796 0.960 . S
C1784 H1797 0.962 . S
C1784 H1798 0.960 . S
C1785 C1782 1.511 . S
C1785 H1799 0.961 . S
C1785 H1800 0.961 . S
C1785 H1801 0.961 . S
C1786 C1787 1.370 . S
C1786 C1788 1.363 . S
C1786 H1802 0.931 . S
C1787 C1786 1.370 . S
C1787 C1791 1.408 . S
C1788 C1786 1.363 . S
C1788 C1789 1.370 . S
C1788 C1792 1.524 1_455 S
C1789 C1781 1.503 . S
C1789 C1788 1.370 . S
C1789 C1790 1.403 . S
C1790 C1789 1.403 . S
C1790 C1791 1.404 . S
C1790 C1793 1.539 . S
C1791 C1787 1.408 . S
C1791 C1790 1.404 . S
C1791 H1803 0.930 . S
C1792 C1788 1.524 1_655 S
C1792 H1804 0.956 1_655 S
C1792 H1805 0.961 . S
C1792 H1806 0.961 . S
C1793 C1790 1.539 . S
C1793 H1807 0.958 . S
C1793 H1808 0.961 . S
C1793 H1809 0.960 . S
H1794 C1778 0.931 . S
H1795 C1783 0.929 . S
H1796 C1784 0.960 . S
H1797 C1784 0.962 . S
H1798 C1784 0.960 . S
H1799 C1785 0.961 . S
H1800 C1785 0.961 . S
H1801 C1785 0.961 . S
H1802 C1786 0.931 . S
H1803 C1791 0.930 . S
H1804 C1792 0.956 1_455 S
H1805 C1792 0.961 . S
H1806 C1792 0.961 . S
H1807 C1793 0.958 . S
H1808 C1793 0.961 . S
H1809 C1793 0.960 . S
C1810 C1811 1.391 . S
C1810 C1812 1.394 . S
C1810 H1826 0.931 . S
C1811 C1810 1.391 . S
C1811 C1815 1.376 . S
C1812 C1810 1.394 . S
C1812 C1813 1.369 . S
C1812 C1816 1.531 . S
C1813 C1812 1.369 . S
C1813 C1814 1.410 . S
C1813 C1821 1.503 . S
C1814 C1813 1.410 . S
C1814 C1815 1.392 . S
C1814 C1817 1.511 . S
C1815 C1811 1.376 . S
C1815 C1814 1.392 . S
C1815 H1827 0.929 . S
C1816 C1812 1.531 . S
C1816 H1828 0.960 . S
C1816 H1829 0.962 . S
C1816 H1830 0.960 . S
C1817 C1814 1.511 . S
C1817 H1831 0.961 . S
C1817 H1832 0.961 . S
C1817 H1833 0.961 . S
C1818 C1819 1.370 . S
C1818 C1820 1.363 . S
C1818 H1834 0.931 . S
C1819 C1818 1.370 . S
C1819 C1823 1.408 . S
C1820 C1818 1.363 . S
C1820 C1821 1.370 . S
C1820 C1824 1.524 . S
C1821 C1813 1.503 . S
C1821 C1820 1.370 . S
C1821 C1822 1.403 . S
C1822 C1821 1.403 . S
C1822 C1823 1.404 . S
C1822 C1825 1.539 . S
C1823 C1819 1.408 . S
C1823 C1822 1.404 . S
C1823 H1835 0.930 . S
C1824 C1820 1.524 . S
C1824 H1836 0.956 . S
C1824 H1837 0.961 . S
C1824 H1838 0.961 . S
C1825 C1822 1.539 . S
C1825 H1839 0.958 . S
C1825 H1840 0.961 . S
C1825 H1841 0.960 . S
H1826 C1810 0.931 . S
H1827 C1815 0.929 . S
H1828 C1816 0.960 . S
H1829 C1816 0.962 . S
H1830 C1816 0.960 . S
H1831 C1817 0.961 . S
H1832 C1817 0.961 . S
H1833 C1817 0.961 . S
H1834 C1818 0.931 . S
H1835 C1823 0.930 . S
H1836 C1824 0.956 . S
H1837 C1824 0.961 . S
H1838 C1824 0.961 . S
H1839 C1825 0.958 . S
H1840 C1825 0.961 . S
H1841 C1825 0.960 . S
C1842 C1843 1.391 . S
C1842 C1844 1.394 . S
C1842 H1858 0.931 . S
C1843 C1842 1.391 . S
C1843 C1847 1.376 . S
C1844 C1842 1.394 . S
C1844 C1845 1.369 . S
C1844 C1848 1.531 . S
C1845 C1844 1.369 . S
C1845 C1846 1.410 . S
C1845 C1853 1.503 . S
C1846 C1845 1.410 . S
C1846 C1847 1.392 . S
C1846 C1849 1.511 . S
C1847 C1843 1.376 . S
C1847 C1846 1.392 . S
C1847 H1859 0.929 . S
C1848 C1844 1.531 . S
C1848 H1860 0.960 . S
C1848 H1861 0.962 . S
C1848 H1862 0.960 . S
C1849 C1846 1.511 . S
C1849 H1863 0.961 . S
C1849 H1864 0.961 . S
C1849 H1865 0.961 1_655 S
C1850 C1851 1.370 . S
C1850 C1852 1.363 . S
C1850 H1866 0.931 . S
C1851 C1850 1.370 . S
C1851 C1855 1.384 1_655 S
C1852 C1850 1.363 . S
C1852 C1853 1.370 . S
C1852 C1856 1.524 . S
C1853 C1845 1.503 . S
C1853 C1852 1.370 . S
C1853 C1854 1.392 1_655 S
C1854 C1853 1.392 1_455 S
C1854 C1855 1.406 . S
C1854 C1857 1.552 . S
C1855 C1851 1.384 1_455 S
C1855 C1854 1.406 . S
C1855 H1867 0.949 . S
C1856 C1852 1.524 . S
C1856 H1868 0.956 . S
C1856 H1869 0.961 . S
C1856 H1870 0.961 . S
C1857 C1854 1.552 . S
C1857 H1871 0.958 . S
C1857 H1872 0.961 . S
C1857 H1873 0.960 . S
H1858 C1842 0.931 . S
H1859 C1847 0.929 . S
H1860 C1848 0.960 . S
H1861 C1848 0.962 . S
H1862 C1848 0.960 . S
H1863 C1849 0.961 . S
H1864 C1849 0.961 . S
H1865 C1849 0.961 1_455 S
H1866 C1850 0.931 . S
H1867 C1855 0.949 . S
H1868 C1856 0.956 . S
H1869 C1856 0.961 . S
H1870 C1856 0.961 . S
H1871 C1857 0.958 . S
H1872 C1857 0.961 . S
H1873 C1857 0.960 . S
C1874 C1875 1.391 . S
C1874 C1876 1.394 . S
C1874 H1890 0.931 . S
C1875 C1874 1.391 . S
C1875 C1879 1.376 . S
C1876 C1874 1.394 . S
C1876 C1877 1.369 . S
C1876 C1880 1.531 . S
C1877 C1876 1.369 . S
C1877 C1878 1.410 . S
C1877 C1885 1.503 . S
C1878 C1877 1.410 . S
C1878 C1879 1.392 . S
C1878 C1881 1.511 . S
C1879 C1875 1.376 . S
C1879 C1878 1.392 . S
C1879 H1891 0.929 . S
C1880 C1876 1.531 . S
C1880 H1892 0.960 . S
C1880 H1893 0.962 . S
C1880 H1894 0.960 . S
C1881 C1878 1.511 . S
C1881 H1895 0.961 . S
C1881 H1896 0.961 . S
C1881 H1897 0.961 . S
C1882 C1883 1.370 . S
C1882 C1884 1.363 . S
C1882 H1898 0.931 . S
C1883 C1882 1.370 . S
C1883 C1887 1.408 . S
C1884 C1882 1.363 . S
C1884 C1885 1.370 . S
C1884 C1888 1.524 . S
C1885 C1877 1.503 . S
C1885 C1884 1.370 . S
C1885 C1886 1.403 . S
C1886 C1885 1.403 . S
C1886 C1887 1.404 . S
C1886 C1889 1.539 . S
C1887 C1883 1.408 . S
C1887 C1886 1.404 . S
C1887 H1899 0.930 . S
C1888 C1884 1.524 . S
C1888 H1900 0.956 . S
C1888 H1901 0.961 . S
C1888 H1902 0.961 . S
C1889 C1886 1.539 . S
C1889 H1903 0.958 . S
C1889 H1904 0.961 . S
C1889 H1905 0.960 . S
H1890 C1874 0.931 . S
H1891 C1879 0.929 . S
H1892 C1880 0.960 . S
H1893 C1880 0.962 . S
H1894 C1880 0.960 . S
H1895 C1881 0.961 . S
H1896 C1881 0.961 . S
H1897 C1881 0.961 . S
H1898 C1882 0.931 . S
H1899 C1887 0.930 . S
H1900 C1888 0.956 . S
H1901 C1888 0.961 . S
H1902 C1888 0.961 . S
H1903 C1889 0.958 . S
H1904 C1889 0.961 . S
H1905 C1889 0.960 . S
C1906 C1907 1.391 . S
C1906 C1908 1.394 . S
C1906 H1922 0.931 . S
C1907 C1906 1.391 . S
C1907 C1911 1.376 . S
C1908 C1906 1.394 . S
C1908 C1909 1.369 . S
C1908 C1912 1.531 . S
C1909 C1908 1.369 . S
C1909 C1910 1.410 . S
C1909 C1917 1.503 . S
C1910 C1909 1.410 . S
C1910 C1911 1.392 . S
C1910 C1913 1.511 . S
C1911 C1907 1.376 . S
C1911 C1910 1.392 . S
C1911 H1923 0.929 . S
C1912 C1908 1.531 . S
C1912 H1924 0.960 . S
C1912 H1925 0.962 . S
C1912 H1926 0.960 . S
C1913 C1910 1.511 . S
C1913 H1927 0.961 . S
C1913 H1928 0.961 . S
C1913 H1929 0.961 . S
C1914 C1915 1.370 . S
C1914 C1916 1.363 . S
C1914 H1930 0.931 . S
C1915 C1914 1.370 . S
C1915 C1919 1.408 . S
C1916 C1914 1.363 . S
C1916 C1917 1.370 . S
C1916 C1920 1.524 . S
C1917 C1909 1.503 . S
C1917 C1916 1.370 . S
C1917 C1918 1.403 . S
C1918 C1917 1.403 . S
C1918 C1919 1.404 . S
C1918 C1921 1.539 . S
C1919 C1915 1.408 . S
C1919 C1918 1.404 . S
C1919 H1931 0.930 . S
C1920 C1916 1.524 . S
C1920 H1932 0.956 . S
C1920 H1933 0.961 . S
C1920 H1934 0.961 . S
C1921 C1918 1.539 . S
C1921 H1935 0.958 . S
C1921 H1936 0.961 . S
C1921 H1937 0.960 . S
H1922 C1906 0.931 . S
H1923 C1911 0.929 . S
H1924 C1912 0.960 . S
H1925 C1912 0.962 . S
H1926 C1912 0.960 . S
H1927 C1913 0.961 . S
H1928 C1913 0.961 . S
H1929 C1913 0.961 . S
H1930 C1914 0.931 . S
H1931 C1919 0.930 . S
H1932 C1920 0.956 . S
H1933 C1920 0.961 . S
H1934 C1920 0.961 . S
H1935 C1921 0.958 . S
H1936 C1921 0.961 . S
H1937 C1921 0.960 . S
C1938 C1939 1.391 . S
C1938 C1940 1.394 . S
C1938 H1954 0.931 . S
C1939 C1938 1.391 . S
C1939 C1943 1.376 . S
C1940 C1938 1.394 . S
C1940 C1941 1.369 . S
C1940 C1944 1.531 . S
C1941 C1940 1.369 . S
C1941 C1942 1.410 . S
C1941 C1949 1.503 . S
C1942 C1941 1.410 . S
C1942 C1943 1.392 . S
C1942 C1945 1.511 . S
C1943 C1939 1.376 . S
C1943 C1942 1.392 . S
C1943 H1955 0.929 . S
C1944 C1940 1.531 . S
C1944 H1956 0.960 . S
C1944 H1957 0.962 . S
C1944 H1958 0.960 . S
C1945 C1942 1.511 . S
C1945 H1959 0.961 . S
C1945 H1960 0.961 . S
C1945 H1961 0.961 . S
C1946 C1947 1.370 . S
C1946 C1948 1.363 . S
C1946 H1962 0.931 . S
C1947 C1946 1.370 . S
C1947 C1951 1.408 . S
C1948 C1946 1.363 . S
C1948 C1949 1.370 . S
C1948 C1952 1.524 . S
C1949 C1941 1.503 . S
C1949 C1948 1.370 . S
C1949 C1950 1.403 . S
C1950 C1949 1.403 . S
C1950 C1951 1.404 . S
C1950 C1953 1.539 . S
C1951 C1947 1.408 . S
C1951 C1950 1.404 . S
C1951 H1963 0.930 . S
C1952 C1948 1.524 . S
C1952 H1964 0.956 . S
C1952 H1965 0.961 . S
C1952 H1966 0.961 . S
C1953 C1950 1.539 . S
C1953 H1967 0.958 . S
C1953 H1968 0.961 . S
C1953 H1969 0.960 . S
H1954 C1938 0.931 . S
H1955 C1943 0.929 . S
H1956 C1944 0.960 . S
H1957 C1944 0.962 . S
H1958 C1944 0.960 . S
H1959 C1945 0.961 . S
H1960 C1945 0.961 . S
H1961 C1945 0.961 . S
H1962 C1946 0.931 . S
H1963 C1951 0.930 . S
H1964 C1952 0.956 . S
H1965 C1952 0.961 . S
H1966 C1952 0.961 . S
H1967 C1953 0.958 . S
H1968 C1953 0.961 . S
H1969 C1953 0.960 . S
C1970 C1971 1.391 . S
C1970 C1972 1.394 . S
C1970 H1986 0.931 . S
C1971 C1970 1.391 . S
C1971 C1975 1.376 . S
C1972 C1970 1.394 . S
C1972 C1973 1.369 . S
C1972 C1976 1.531 . S
C1973 C1972 1.369 . S
C1973 C1974 1.410 . S
C1973 C1981 1.503 . S
C1974 C1973 1.410 . S
C1974 C1975 1.392 . S
C1974 C1977 1.511 . S
C1975 C1971 1.376 . S
C1975 C1974 1.392 . S
C1975 H1987 0.929 . S
C1976 C1972 1.531 . S
C1976 H1988 0.960 . S
C1976 H1989 0.962 . S
C1976 H1990 0.960 . S
C1977 C1974 1.511 . S
C1977 H1991 0.961 . S
C1977 H1992 0.961 . S
C1977 H1993 0.961 . S
C1978 C1979 1.370 . S
C1978 C1980 1.363 . S
C1978 H1994 0.931 . S
C1979 C1978 1.370 . S
C1979 C1983 1.408 . S
C1980 C1978 1.363 . S
C1980 C1981 1.370 . S
C1980 C1984 1.524 . S
C1981 C1973 1.503 . S
C1981 C1980 1.370 . S
C1981 C1982 1.403 . S
C1982 C1981 1.403 . S
C1982 C1983 1.404 . S
C1982 C1985 1.539 . S
C1983 C1979 1.408 . S
C1983 C1982 1.404 . S
C1983 H1995 0.930 . S
C1984 C1980 1.524 . S
C1984 H1996 0.956 . S
C1984 H1997 0.961 . S
C1984 H1998 0.961 . S
C1985 C1982 1.539 . S
C1985 H1999 0.958 . S
C1985 H2000 0.961 . S
C1985 H2001 0.960 . S
H1986 C1970 0.931 . S
H1987 C1975 0.929 . S
H1988 C1976 0.960 . S
H1989 C1976 0.962 . S
H1990 C1976 0.960 . S
H1991 C1977 0.961 . S
H1992 C1977 0.961 . S
H1993 C1977 0.961 . S
H1994 C1978 0.931 . S
H1995 C1983 0.930 . S
H1996 C1984 0.956 . S
H1997 C1984 0.961 . S
H1998 C1984 0.961 . S
H1999 C1985 0.958 . S
H2000 C1985 0.961 . S
H2001 C1985 0.960 . S
C2002 C2003 1.391 . S
C2002 C2004 1.394 . S
C2002 H2018 0.931 . S
C2003 C2002 1.391 . S
C2003 C2007 1.376 . S
C2004 C2002 1.394 . S
C2004 C2005 1.369 . S
C2004 C2008 1.531 . S
C2005 C2004 1.369 . S
C2005 C2006 1.410 . S
C2005 C2013 1.503 . S
C2006 C2005 1.410 . S
C2006 C2007 1.392 . S
C2006 C2009 1.511 . S
C2007 C2003 1.376 . S
C2007 C2006 1.392 . S
C2007 H2019 0.929 . S
C2008 C2004 1.531 . S
C2008 H2020 0.960 . S
C2008 H2021 0.962 . S
C2008 H2022 0.960 . S
C2009 C2006 1.511 . S
C2009 H2023 0.961 . S
C2009 H2024 0.961 . S
C2009 H2025 0.961 . S
C2010 C2011 1.370 . S
C2010 C2012 1.363 . S
C2010 H2026 0.931 . S
C2011 C2010 1.370 . S
C2011 C2015 1.408 . S
C2012 C2010 1.363 . S
C2012 C2013 1.370 . S
C2012 C2016 1.524 . S
C2013 C2005 1.503 . S
C2013 C2012 1.370 . S
C2013 C2014 1.403 . S
C2014 C2013 1.403 . S
C2014 C2015 1.404 . S
C2014 C2017 1.539 . S
C2015 C2011 1.408 . S
C2015 C2014 1.404 . S
C2015 H2027 0.930 . S
C2016 C2012 1.524 . S
C2016 H2028 0.956 . S
C2016 H2029 0.961 . S
C2016 H2030 0.961 . S
C2017 C2014 1.539 . S
C2017 H2031 0.958 . S
C2017 H2032 0.961 . S
C2017 H2033 0.960 . S
H2018 C2002 0.931 . S
H2019 C2007 0.929 . S
H2020 C2008 0.960 . S
H2021 C2008 0.962 . S
H2022 C2008 0.960 . S
H2023 C2009 0.961 . S
H2024 C2009 0.961 . S
H2025 C2009 0.961 . S
H2026 C2010 0.931 . S
H2027 C2015 0.930 . S
H2028 C2016 0.956 . S
H2029 C2016 0.961 . S
H2030 C2016 0.961 . S
H2031 C2017 0.958 . S
H2032 C2017 0.961 . S
H2033 C2017 0.960 . S
C2034 C2035 1.391 . S
C2034 C2036 1.394 . S
C2034 H2050 0.931 . S
C2035 C2034 1.391 . S
C2035 C2039 1.376 . S
C2036 C2034 1.394 . S
C2036 C2037 1.369 . S
C2036 C2040 1.531 . S
C2037 C2036 1.369 . S
C2037 C2038 1.410 . S
C2037 C2045 1.503 . S
C2038 C2037 1.410 . S
C2038 C2039 1.392 . S
C2038 C2041 1.511 . S
C2039 C2035 1.376 . S
C2039 C2038 1.392 . S
C2039 H2051 0.929 . S
C2040 C2036 1.531 . S
C2040 H2052 0.960 . S
C2040 H2053 0.962 . S
C2040 H2054 0.960 . S
C2041 C2038 1.511 . S
C2041 H2055 0.961 . S
C2041 H2056 0.961 . S
C2041 H2057 0.961 . S
C2042 C2043 1.370 . S
C2042 C2044 1.363 . S
C2042 H2058 0.931 . S
C2043 C2042 1.370 . S
C2043 C2047 1.408 . S
C2044 C2042 1.363 . S
C2044 C2045 1.370 . S
C2044 C2048 1.524 . S
C2045 C2037 1.503 . S
C2045 C2044 1.370 . S
C2045 C2046 1.403 . S
C2046 C2045 1.403 . S
C2046 C2047 1.404 . S
C2046 C2049 1.539 . S
C2047 C2043 1.408 . S
C2047 C2046 1.404 . S
C2047 H2059 0.930 . S
C2048 C2044 1.524 . S
C2048 H2060 0.956 . S
C2048 H2061 0.961 . S
C2048 H2062 0.961 . S
C2049 C2046 1.539 . S
C2049 H2063 0.958 . S
C2049 H2064 0.961 . S
C2049 H2065 0.960 . S
H2050 C2034 0.931 . S
H2051 C2039 0.929 . S
H2052 C2040 0.960 . S
H2053 C2040 0.962 . S
H2054 C2040 0.960 . S
H2055 C2041 0.961 . S
H2056 C2041 0.961 . S
H2057 C2041 0.961 . S
H2058 C2042 0.931 . S
H2059 C2047 0.930 . S
H2060 C2048 0.956 . S
H2061 C2048 0.961 . S
H2062 C2048 0.961 . S
H2063 C2049 0.958 . S
H2064 C2049 0.961 . S
H2065 C2049 0.960 . S
C2066 C2067 1.391 . S
C2066 C2068 1.394 . S
C2066 H2082 0.931 . S
C2067 C2066 1.391 . S
C2067 C2071 1.376 . S
C2068 C2066 1.394 . S
C2068 C2069 1.369 . S
C2068 C2072 1.531 . S
C2069 C2068 1.369 . S
C2069 C2070 1.410 . S
C2069 C2077 1.503 . S
C2070 C2069 1.410 . S
C2070 C2071 1.392 . S
C2070 C2073 1.511 . S
C2071 C2067 1.376 . S
C2071 C2070 1.392 . S
C2071 H2083 0.929 . S
C2072 C2068 1.531 . S
C2072 H2084 0.960 . S
C2072 H2085 0.962 . S
C2072 H2086 0.960 . S
C2073 C2070 1.511 . S
C2073 H2087 0.961 . S
C2073 H2088 0.961 . S
C2073 H2089 0.961 . S
C2074 C2075 1.370 . S
C2074 C2076 1.363 . S
C2074 H2090 0.931 . S
C2075 C2074 1.370 . S
C2075 C2079 1.408 . S
C2076 C2074 1.363 . S
C2076 C2077 1.370 . S
C2076 C2080 1.524 . S
C2077 C2069 1.503 . S
C2077 C2076 1.370 . S
C2077 C2078 1.403 . S
C2078 C2077 1.403 . S
C2078 C2079 1.404 . S
C2078 C2081 1.539 . S
C2079 C2075 1.408 . S
C2079 C2078 1.404 . S
C2079 H2091 0.930 . S
C2080 C2076 1.524 . S
C2080 H2092 0.956 . S
C2080 H2093 0.961 . S
C2080 H2094 0.961 . S
C2081 C2078 1.539 . S
C2081 H2095 0.958 . S
C2081 H2096 0.961 . S
C2081 H2097 0.960 . S
H2082 C2066 0.931 . S
H2083 C2071 0.929 . S
H2084 C2072 0.960 . S
H2085 C2072 0.962 . S
H2086 C2072 0.960 . S
H2087 C2073 0.961 . S
H2088 C2073 0.961 . S
H2089 C2073 0.961 . S
H2090 C2074 0.931 . S
H2091 C2079 0.930 . S
H2092 C2080 0.956 . S
H2093 C2080 0.961 . S
H2094 C2080 0.961 . S
H2095 C2081 0.958 . S
H2096 C2081 0.961 . S
H2097 C2081 0.960 . S
C2098 C2099 1.391 . S
C2098 C2100 1.394 . S
C2098 H2114 0.931 . S
C2099 C2098 1.391 . S
C2099 C2103 1.376 . S
C2100 C2098 1.394 . S
C2100 C2101 1.369 . S
C2100 C2104 1.531 . S
C2101 C2100 1.369 . S
C2101 C2102 1.410 . S
C2101 C2109 1.503 . S
C2102 C2101 1.410 . S
C2102 C2103 1.392 . S
C2102 C2105 1.511 . S
C2103 C2099 1.376 . S
C2103 C2102 1.392 . S
C2103 H2115 0.929 . S
C2104 C2100 1.531 . S
C2104 H2116 0.960 . S
C2104 H2117 0.962 . S
C2104 H2118 0.960 . S
C2105 C2102 1.511 . S
C2105 H2119 0.961 . S
C2105 H2120 0.961 . S
C2105 H2121 0.961 . S
C2106 C2107 1.370 . S
C2106 C2108 1.363 . S
C2106 H2122 0.931 . S
C2107 C2106 1.370 . S
C2107 C2111 1.408 . S
C2108 C2106 1.363 . S
C2108 C2109 1.370 . S
C2108 C2112 1.524 . S
C2109 C2101 1.503 . S
C2109 C2108 1.370 . S
C2109 C2110 1.403 . S
C2110 C2109 1.403 . S
C2110 C2111 1.404 . S
C2110 C2113 1.539 . S
C2111 C2107 1.408 . S
C2111 C2110 1.404 . S
C2111 H2123 0.930 . S
C2112 C2108 1.524 . S
C2112 H2124 0.956 . S
C2112 H2125 0.961 . S
C2112 H2126 0.961 . S
C2113 C2110 1.539 . S
C2113 H2127 0.958 . S
C2113 H2128 0.961 . S
C2113 H2129 0.960 . S
H2114 C2098 0.931 . S
H2115 C2103 0.929 . S
H2116 C2104 0.960 . S
H2117 C2104 0.962 . S
H2118 C2104 0.960 . S
H2119 C2105 0.961 . S
H2120 C2105 0.961 . S
H2121 C2105 0.961 . S
H2122 C2106 0.931 . S
H2123 C2111 0.930 . S
H2124 C2112 0.956 . S
H2125 C2112 0.961 . S
H2126 C2112 0.961 . S
H2127 C2113 0.958 . S
H2128 C2113 0.961 . S
H2129 C2113 0.960 . S
C2130 C2131 1.391 . S
C2130 C2132 1.394 . S
C2130 H2146 0.931 . S
C2131 C2130 1.391 . S
C2131 C2135 1.376 . S
C2132 C2130 1.394 . S
C2132 C2133 1.369 . S
C2132 C2136 1.531 . S
C2133 C2132 1.369 . S
C2133 C2134 1.410 . S
C2133 C2141 1.503 . S
C2134 C2133 1.410 . S
C2134 C2135 1.392 . S
C2134 C2137 1.511 . S
C2135 C2131 1.376 . S
C2135 C2134 1.392 . S
C2135 H2147 0.929 . S
C2136 C2132 1.531 . S
C2136 H2148 0.960 . S
C2136 H2149 0.962 . S
C2136 H2150 0.960 . S
C2137 C2134 1.511 . S
C2137 H2151 0.961 . S
C2137 H2152 0.961 . S
C2137 H2153 0.961 . S
C2138 C2139 1.370 . S
C2138 C2140 1.363 . S
C2138 H2154 0.931 . S
C2139 C2138 1.370 . S
C2139 C2143 1.408 . S
C2140 C2138 1.363 . S
C2140 C2141 1.370 . S
C2140 C2144 1.524 . S
C2141 C2133 1.503 . S
C2141 C2140 1.370 . S
C2141 C2142 1.403 . S
C2142 C2141 1.403 . S
C2142 C2143 1.404 . S
C2142 C2145 1.539 . S
C2143 C2139 1.408 . S
C2143 C2142 1.404 . S
C2143 H2155 0.930 . S
C2144 C2140 1.524 . S
C2144 H2156 0.956 . S
C2144 H2157 0.961 . S
C2144 H2158 0.961 . S
C2145 C2142 1.539 . S
C2145 H2159 0.958 . S
C2145 H2160 0.961 . S
C2145 H2161 0.960 . S
H2146 C2130 0.931 . S
H2147 C2135 0.929 . S
H2148 C2136 0.960 . S
H2149 C2136 0.962 . S
H2150 C2136 0.960 . S
H2151 C2137 0.961 . S
H2152 C2137 0.961 . S
H2153 C2137 0.961 . S
H2154 C2138 0.931 . S
H2155 C2143 0.930 . S
H2156 C2144 0.956 . S
H2157 C2144 0.961 . S
H2158 C2144 0.961 . S
H2159 C2145 0.958 . S
H2160 C2145 0.961 . S
H2161 C2145 0.960 . S
C2162 C2163 1.391 . S
C2162 C2164 1.394 . S
C2162 H2178 0.931 . S
C2163 C2162 1.391 . S
C2163 C2167 1.376 . S
C2164 C2162 1.394 . S
C2164 C2165 1.369 . S
C2164 C2168 1.531 . S
C2165 C2164 1.369 . S
C2165 C2166 1.410 . S
C2165 C2173 1.503 . S
C2166 C2165 1.410 . S
C2166 C2167 1.392 . S
C2166 C2169 1.511 . S
C2167 C2163 1.376 . S
C2167 C2166 1.392 . S
C2167 H2179 0.929 . S
C2168 C2164 1.531 . S
C2168 H2180 0.960 . S
C2168 H2181 0.962 . S
C2168 H2182 0.960 . S
C2169 C2166 1.511 . S
C2169 H2183 0.961 . S
C2169 H2184 0.961 . S
C2169 H2185 0.961 . S
C2170 C2171 1.370 . S
C2170 C2172 1.363 . S
C2170 H2186 0.931 . S
C2171 C2170 1.370 . S
C2171 C2175 1.408 . S
C2172 C2170 1.363 . S
C2172 C2173 1.370 . S
C2172 C2176 1.524 . S
C2173 C2165 1.503 . S
C2173 C2172 1.370 . S
C2173 C2174 1.403 . S
C2174 C2173 1.403 . S
C2174 C2175 1.404 . S
C2174 C2177 1.539 . S
C2175 C2171 1.408 . S
C2175 C2174 1.404 . S
C2175 H2187 0.930 . S
C2176 C2172 1.524 . S
C2176 H2188 0.956 . S
C2176 H2189 0.961 . S
C2176 H2190 0.961 . S
C2177 C2174 1.539 . S
C2177 H2191 0.958 . S
C2177 H2192 0.961 . S
C2177 H2193 0.960 . S
H2178 C2162 0.931 . S
H2179 C2167 0.929 . S
H2180 C2168 0.960 . S
H2181 C2168 0.962 . S
H2182 C2168 0.960 . S
H2183 C2169 0.961 . S
H2184 C2169 0.961 . S
H2185 C2169 0.961 . S
H2186 C2170 0.931 . S
H2187 C2175 0.930 . S
H2188 C2176 0.956 . S
H2189 C2176 0.961 . S
H2190 C2176 0.961 . S
H2191 C2177 0.958 . S
H2192 C2177 0.961 . S
H2193 C2177 0.960 . S
C2194 C2195 1.391 . S
C2194 C2196 1.394 . S
C2194 H2210 0.931 . S
C2195 C2194 1.391 . S
C2195 C2199 1.376 . S
C2196 C2194 1.394 . S
C2196 C2197 1.369 . S
C2196 C2200 1.531 . S
C2197 C2196 1.369 . S
C2197 C2198 1.410 . S
C2197 C2205 1.503 . S
C2198 C2197 1.410 . S
C2198 C2199 1.392 . S
C2198 C2201 1.511 . S
C2199 C2195 1.376 . S
C2199 C2198 1.392 . S
C2199 H2211 0.929 . S
C2200 C2196 1.531 . S
C2200 H2212 0.960 . S
C2200 H2213 0.962 . S
C2200 H2214 0.960 . S
C2201 C2198 1.511 . S
C2201 H2215 0.961 . S
C2201 H2216 0.961 . S
C2201 H2217 0.961 . S
C2202 C2203 1.370 . S
C2202 C2204 1.363 . S
C2202 H2218 0.931 . S
C2203 C2202 1.370 . S
C2203 C2207 1.408 . S
C2204 C2202 1.363 . S
C2204 C2205 1.370 . S
C2204 C2208 1.524 . S
C2205 C2197 1.503 . S
C2205 C2204 1.370 . S
C2205 C2206 1.403 . S
C2206 C2205 1.403 . S
C2206 C2207 1.404 . S
C2206 C2209 1.539 . S
C2207 C2203 1.408 . S
C2207 C2206 1.404 . S
C2207 H2219 0.930 . S
C2208 C2204 1.524 . S
C2208 H2220 0.956 . S
C2208 H2221 0.961 . S
C2208 H2222 0.961 . S
C2209 C2206 1.539 . S
C2209 H2223 0.958 . S
C2209 H2224 0.961 . S
C2209 H2225 0.960 . S
H2210 C2194 0.931 . S
H2211 C2199 0.929 . S
H2212 C2200 0.960 . S
H2213 C2200 0.962 . S
H2214 C2200 0.960 . S
H2215 C2201 0.961 . S
H2216 C2201 0.961 . S
H2217 C2201 0.961 . S
H2218 C2202 0.931 . S
H2219 C2207 0.930 . S
H2220 C2208 0.956 . S
H2221 C2208 0.961 . S
H2222 C2208 0.961 . S
H2223 C2209 0.958 . S
H2224 C2209 0.961 . S
H2225 C2209 0.960 . S
C2226 C2227 1.391 . S
C2226 C2228 1.394 . S
C2226 H2242 0.931 . S
C2227 C2226 1.391 . S
C2227 C2231 1.376 . S
C2228 C2226 1.394 . S
C2228 C2229 1.369 . S
C2228 C2232 1.531 . S
C2229 C2228 1.369 . S
C2229 C2230 1.410 . S
C2229 C2237 1.503 . S
C2230 C2229 1.410 . S
C2230 C2231 1.392 . S
C2230 C2233 1.511 . S
C2231 C2227 1.376 . S
C2231 C2230 1.392 . S
C2231 H2243 0.929 . S
C2232 C2228 1.531 . S
C2232 H2244 0.960 . S
C2232 H2245 0.962 . S
C2232 H2246 0.960 . S
C2233 C2230 1.511 . S
C2233 H2247 0.961 . S
C2233 H2248 0.961 . S
C2233 H2249 0.961 . S
C2234 C2235 1.370 . S
C2234 C2236 1.363 . S
C2234 H2250 0.931 . S
C2235 C2234 1.370 . S
C2235 C2239 1.408 . S
C2236 C2234 1.363 . S
C2236 C2237 1.370 . S
C2236 C2240 1.524 . S
C2237 C2229 1.503 . S
C2237 C2236 1.370 . S
C2237 C2238 1.403 . S
C2238 C2237 1.403 . S
C2238 C2239 1.404 . S
C2238 C2241 1.539 . S
C2239 C2235 1.408 . S
C2239 C2238 1.404 . S
C2239 H2251 0.930 . S
C2240 C2236 1.524 . S
C2240 H2252 0.956 . S
C2240 H2253 0.961 . S
C2240 H2254 0.961 . S
C2241 C2238 1.539 . S
C2241 H2255 0.958 . S
C2241 H2256 0.961 . S
C2241 H2257 0.960 . S
H2242 C2226 0.931 . S
H2243 C2231 0.929 . S
H2244 C2232 0.960 . S
H2245 C2232 0.962 . S
H2246 C2232 0.960 . S
H2247 C2233 0.961 . S
H2248 C2233 0.961 . S
H2249 C2233 0.961 . S
H2250 C2234 0.931 . S
H2251 C2239 0.930 . S
H2252 C2240 0.956 . S
H2253 C2240 0.961 . S
H2254 C2240 0.961 . S
H2255 C2241 0.958 . S
H2256 C2241 0.961 . S
H2257 C2241 0.960 . S
C2258 C2259 1.391 . S
C2258 C2260 1.394 . S
C2258 H2274 0.931 . S
C2259 C2258 1.391 . S
C2259 C2263 1.376 . S
C2260 C2258 1.394 . S
C2260 C2261 1.369 . S
C2260 C2264 1.531 . S
C2261 C2260 1.369 . S
C2261 C2262 1.410 . S
C2261 C2269 1.503 . S
C2262 C2261 1.410 . S
C2262 C2263 1.392 . S
C2262 C2265 1.511 . S
C2263 C2259 1.376 . S
C2263 C2262 1.392 . S
C2263 H2275 0.929 . S
C2264 C2260 1.531 . S
C2264 H2276 0.960 . S
C2264 H2277 0.962 . S
C2264 H2278 0.960 . S
C2265 C2262 1.511 . S
C2265 H2279 0.961 . S
C2265 H2280 0.961 . S
C2265 H2281 0.961 . S
C2266 C2267 1.370 . S
C2266 C2268 1.363 . S
C2266 H2282 0.931 . S
C2267 C2266 1.370 . S
C2267 C2271 1.408 . S
C2268 C2266 1.363 . S
C2268 C2269 1.370 . S
C2268 C2272 1.524 . S
C2269 C2261 1.503 . S
C2269 C2268 1.370 . S
C2269 C2270 1.403 . S
C2270 C2269 1.403 . S
C2270 C2271 1.404 . S
C2270 C2273 1.539 . S
C2271 C2267 1.408 . S
C2271 C2270 1.404 . S
C2271 H2283 0.930 . S
C2272 C2268 1.524 . S
C2272 H2284 0.956 . S
C2272 H2285 0.961 . S
C2272 H2286 0.961 . S
C2273 C2270 1.539 . S
C2273 H2287 0.958 . S
C2273 H2288 0.961 . S
C2273 H2289 0.960 . S
H2274 C2258 0.931 . S
H2275 C2263 0.929 . S
H2276 C2264 0.960 . S
H2277 C2264 0.962 . S
H2278 C2264 0.960 . S
H2279 C2265 0.961 . S
H2280 C2265 0.961 . S
H2281 C2265 0.961 . S
H2282 C2266 0.931 . S
H2283 C2271 0.930 . S
H2284 C2272 0.956 . S
H2285 C2272 0.961 . S
H2286 C2272 0.961 . S
H2287 C2273 0.958 . S
H2288 C2273 0.961 . S
H2289 C2273 0.960 . S
C2290 C2291 1.391 . S
C2290 C2292 1.394 . S
C2290 H2306 0.931 . S
C2291 C2290 1.391 . S
C2291 C2295 1.376 . S
C2292 C2290 1.394 . S
C2292 C2293 1.369 . S
C2292 C2296 1.531 . S
C2293 C2292 1.369 . S
C2293 C2294 1.410 . S
C2293 C2301 1.503 . S
C2294 C2293 1.410 . S
C2294 C2295 1.392 . S
C2294 C2297 1.511 . S
C2295 C2291 1.376 . S
C2295 C2294 1.392 . S
C2295 H2307 0.929 . S
C2296 C2292 1.531 . S
C2296 H2308 0.960 . S
C2296 H2309 0.962 . S
C2296 H2310 0.960 . S
C2297 C2294 1.511 . S
C2297 H2311 0.961 . S
C2297 H2312 0.961 . S
C2297 H2313 0.961 . S
C2298 C2299 1.370 . S
C2298 C2300 1.363 . S
C2298 H2314 0.931 . S
C2299 C2298 1.370 . S
C2299 C2303 1.408 . S
C2300 C2298 1.363 . S
C2300 C2301 1.370 . S
C2300 C2304 1.524 . S
C2301 C2293 1.503 . S
C2301 C2300 1.370 . S
C2301 C2302 1.403 . S
C2302 C2301 1.403 . S
C2302 C2303 1.404 . S
C2302 C2305 1.539 . S
C2303 C2299 1.408 . S
C2303 C2302 1.404 . S
C2303 H2315 0.930 . S
C2304 C2300 1.524 . S
C2304 H2316 0.956 . S
C2304 H2317 0.961 . S
C2304 H2318 0.961 . S
C2305 C2302 1.539 . S
C2305 H2319 0.958 . S
C2305 H2320 0.961 . S
C2305 H2321 0.960 . S
H2306 C2290 0.931 . S
H2307 C2295 0.929 . S
H2308 C2296 0.960 . S
H2309 C2296 0.962 . S
H2310 C2296 0.960 . S
H2311 C2297 0.961 . S
H2312 C2297 0.961 . S
H2313 C2297 0.961 . S
H2314 C2298 0.931 . S
H2315 C2303 0.930 . S
H2316 C2304 0.956 . S
H2317 C2304 0.961 . S
H2318 C2304 0.961 . S
H2319 C2305 0.958 . S
H2320 C2305 0.961 . S
H2321 C2305 0.960 . S
C595 N170 2.085 . S
C603 C246 2.133 . S
C627 N184 1.163 . S
C635 C286 1.151 . S
C659 N158 1.691 . S
C667 C316 1.663 . S
C691 N145 1.560 . S
C699 C276 1.528 1_556 S
C731 C326 0.816 1_556 S
C723 N119 0.833 . S
C755 N131 1.820 . S
C763 C236 1.889 . S
C795 C265 1.778 1_556 S
C787 N144 1.753 . S
C827 C305 1.667 . S
C819 N118 1.670 . S
C851 N132 1.574 . S
C859 C331 1.565 . S
C883 N171 1.475 . S
C891 C291 1.465 . S
C915 N183 1.316 . S
C923 C345 1.333 . S
C955 C251 1.468 . S
C947 N157 1.469 . S
C987 C366 2.134 . S
C979 N14 2.102 . S
C1011 N28 1.151 . S
C1019 C406 1.158 . S
C1043 N2 1.656 . S
C1051 C436 1.668 . S
C1075 N223 1.565 . S
C1083 C396 1.537 . S
C1107 N197 0.840 . S
C1115 C446 0.838 . S
C1139 N209 1.825 . S
C1147 C356 1.872 . S
C1171 N222 1.757 . S
C1179 C385 1.781 . S
C1203 N196 1.678 . S
C1211 C425 1.673 . S
C1243 C451 1.565 . S
C1235 N210 1.573 . S
C1267 N15 1.486 . S
C1275 C411 1.467 . S
C1307 C465 1.333 . S
C1299 N27 1.327 . S
C1331 N1 1.455 . S
C1339 C371 1.456 . S
C1371 C486 2.133 . S
C1363 N92 2.081 . S
C1395 N106 1.163 . S
C1403 C526 1.151 . S
C1435 C556 1.656 . S
C1427 N80 1.680 . S
C1467 C516 1.544 . S
C1459 N67 1.535 . S
C1499 C566 0.839 . S
C1491 N41 0.835 . S
C1523 N53 1.852 . S
C1531 C476 1.866 . S
C1555 N66 1.779 . S
C1563 C505 1.783 . S
C1587 N40 1.665 . S
C1595 C545 1.667 . S
C1627 C571 1.580 . S
C1619 N54 1.553 . S
C1651 N93 1.465 . S
C1659 C531 1.482 . S
C1683 N105 1.321 . S
C1691 C585 1.332 . S
C1715 N79 1.474 . S
C1723 C491 1.468 . S
C1747 N200 1.032 . S
C1755 C263 1.020 . S
C1787 C303 2.017 . S
C1779 N213 1.988 . S
C1811 N226 1.593 . S
C1819 C322 1.590 . S
C1843 N83 1.813 . S
C1851 C282 1.778 . S
C1875 N96 1.790 . S
C1883 C343 1.848 . S
C1915 C242 1.144 . S
C1907 N109 1.155 . S
C1939 N44 1.018 . S
C1947 C383 1.034 . S
C1971 N57 1.975 . S
C1979 C423 2.014 . S
C2003 N70 1.562 . S
C2011 C442 1.581 . S
C2035 N161 1.794 . S
C2043 C402 1.777 . S
C2075 C463 1.850 . S
C2067 N174 1.795 . S
C2099 N187 1.161 . S
C2107 C362 1.150 . S
C2131 N122 1.009 . S
C2139 C503 1.035 . S
C2163 N135 2.011 . S
C2171 C543 2.008 . S
C2203 C562 1.576 . S
C2195 N148 1.560 . S
C2227 N5 1.821 . S
C2235 C522 1.789 . S
C2259 N18 1.791 . S
C2267 C583 1.849 . S
C2291 N31 1.177 . S
C2299 C482 1.159 . S
