# Generated by pormake.
# Topology pyr, (3,6)-cn, num edge types: 1
# Building blocks:
#     Node 0, Type 0, BuildingBlock: KAKCAD_clean_linker_0, # of connection points: 3
#     Node 1, Type 0, BuildingBlock: KAKCAD_clean_linker_0, # of connection points: 3
#     Node 2, Type 0, BuildingBlock: KAKCAD_clean_linker_0, # of connection points: 3
#     Node 3, Type 0, BuildingBlock: KAKCAD_clean_linker_0, # of connection points: 3
#     Node 4, Type 0, BuildingBlock: KAKCAD_clean_linker_0, # of connection points: 3
#     Node 5, Type 0, BuildingBlock: KAKCAD_clean_linker_0, # of connection points: 3
#     Node 6, Type 0, BuildingBlock: KAKCAD_clean_linker_0, # of connection points: 3
#     Node 7, Type 0, BuildingBlock: KAKCAD_clean_linker_0, # of connection points: 3
#     Node 8, Type 1, BuildingBlock: BETFEN_clean_sbu_0, # of connection points: 6
#     Node 9, Type 1, BuildingBlock: BETFEN_clean_sbu_0, # of connection points: 6
#     Node 10, Type 1, BuildingBlock: BETFEN_clean_sbu_0, # of connection points: 6
#     Node 11, Type 1, BuildingBlock: BETFEN_clean_sbu_0, # of connection points: 6
#     Edge 12, Type (0, 1), BuildingBlock: AJUNOK_clean_linker_0, # of connection points: 2
#     Edge 13, Type (0, 1), BuildingBlock: AJUNOK_clean_linker_0, # of connection points: 2
#     Edge 14, Type (0, 1), BuildingBlock: AJUNOK_clean_linker_0, # of connection points: 2
#     Edge 15, Type (0, 1), BuildingBlock: AJUNOK_clean_linker_0, # of connection points: 2
#     Edge 16, Type (0, 1), BuildingBlock: AJUNOK_clean_linker_0, # of connection points: 2
#     Edge 17, Type (0, 1), BuildingBlock: AJUNOK_clean_linker_0, # of connection points: 2
#     Edge 18, Type (0, 1), BuildingBlock: AJUNOK_clean_linker_0, # of connection points: 2
#     Edge 19, Type (0, 1), BuildingBlock: AJUNOK_clean_linker_0, # of connection points: 2
#     Edge 20, Type (0, 1), BuildingBlock: AJUNOK_clean_linker_0, # of connection points: 2
#     Edge 21, Type (0, 1), BuildingBlock: AJUNOK_clean_linker_0, # of connection points: 2
#     Edge 22, Type (0, 1), BuildingBlock: AJUNOK_clean_linker_0, # of connection points: 2
#     Edge 23, Type (0, 1), BuildingBlock: AJUNOK_clean_linker_0, # of connection points: 2
#     Edge 24, Type (0, 1), BuildingBlock: AJUNOK_clean_linker_0, # of connection points: 2
#     Edge 25, Type (0, 1), BuildingBlock: AJUNOK_clean_linker_0, # of connection points: 2
#     Edge 26, Type (0, 1), BuildingBlock: AJUNOK_clean_linker_0, # of connection points: 2
#     Edge 27, Type (0, 1), BuildingBlock: AJUNOK_clean_linker_0, # of connection points: 2
#     Edge 28, Type (0, 1), BuildingBlock: AJUNOK_clean_linker_0, # of connection points: 2
#     Edge 29, Type (0, 1), BuildingBlock: AJUNOK_clean_linker_0, # of connection points: 2
#     Edge 30, Type (0, 1), BuildingBlock: AJUNOK_clean_linker_0, # of connection points: 2
#     Edge 31, Type (0, 1), BuildingBlock: AJUNOK_clean_linker_0, # of connection points: 2
#     Edge 32, Type (0, 1), BuildingBlock: AJUNOK_clean_linker_0, # of connection points: 2
#     Edge 33, Type (0, 1), BuildingBlock: AJUNOK_clean_linker_0, # of connection points: 2
#     Edge 34, Type (0, 1), BuildingBlock: AJUNOK_clean_linker_0, # of connection points: 2
#     Edge 35, Type (0, 1), BuildingBlock: AJUNOK_clean_linker_0, # of connection points: 2
# Relax obj value: 0.167
# Max RMSD: 0.258
# Mean RMSD: 0.125
data_MOF--net-pyr--node1-BETFEN_clean_sbu_0--node2-KAKCAD_clean_linker_0--edge1-AJUNOK_clean_linker_0
_symmetry_space_group_name_H-M    P1
_symmetry_Int_Tables_number       1
_symmetry_cell_setting            triclinic
loop_
_symmetry_equiv_pos_as_xyz
'x, y, z'
_cell_length_a     35.629797
_cell_length_b     39.182418
_cell_length_c     35.147722
_cell_angle_alpha  91.422747
_cell_angle_beta   97.788122
_cell_angle_gamma 110.16925
loop_
_atom_site_label
_atom_site_type_symbol
_atom_site_fract_x
_atom_site_fract_y
_atom_site_fract_z
_atom_type_partial_charge
C0 C 0.339 0.34318 0.45252 0.0
C1 C 0.35614 0.32108 0.47415 0.0
C2 C 0.36075 0.36669 0.42766 0.0
C3 C 0.40011 0.36848 0.42352 0.0
C4 C 0.41883 0.3494 0.4483 0.0
C5 C 0.39703 0.3259 0.47337 0.0
C6 C 0.41694 0.3832 0.38831 0.0
C7 C 0.40901 0.41301 0.37232 0.0
C8 C 0.4106 0.41884 0.33307 0.0
C9 C 0.42477 0.39659 0.31109 0.0
C10 C 0.43531 0.36809 0.32727 0.0
C11 C 0.43173 0.36189 0.36596 0.0
C12 C 0.44242 0.34041 0.30236 0.0
C13 C 0.41582 0.32538 0.26795 0.0
C14 C 0.47279 0.32602 0.31461 0.0
C15 C 0.47552 0.29637 0.29354 0.0
C16 C 0.44757 0.28034 0.26024 0.0
C17 C 0.39018 0.44265 0.31334 0.0
C18 C 0.35501 0.44522 0.32544 0.0
C19 C 0.40176 0.45858 0.27924 0.0
C20 C 0.37689 0.47341 0.25618 0.0
C21 C 0.3407 0.47373 0.26742 0.0
C22 C 0.33084 0.46084 0.30291 0.0
C23 C 0.41836 0.29565 0.24715 0.0
H24 H 0.30742 0.33976 0.45174 0.0
H25 H 0.34496 0.38047 0.40882 0.0
H26 H 0.44927 0.35051 0.4462 0.0
H27 H 0.4112 0.30949 0.49003 0.0
H28 H 0.39827 0.42978 0.38982 0.0
H29 H 0.43611 0.33781 0.37722 0.0
H30 H 0.42489 0.39952 0.28056 0.0
H31 H 0.39173 0.33544 0.258 0.0
H32 H 0.49371 0.3371 0.341 0.0
H33 H 0.49838 0.28504 0.30411 0.0
H34 H 0.34415 0.43279 0.35085 0.0
H35 H 0.42902 0.45804 0.26931 0.0
H36 H 0.39678 0.28398 0.22129 0.0
H37 H 0.30271 0.46025 0.31188 0.0
H38 H 0.38504 0.48326 0.22884 0.0
C39 C 0.31787 0.86929 0.86015 0.0
C40 C 0.36039 0.883 0.86736 0.0
C41 C 0.29746 0.85494 0.82321 0.0
C42 C 0.31931 0.85382 0.7931 0.0
C43 C 0.36171 0.86707 0.80045 0.0
C44 C 0.38202 0.88182 0.83705 0.0
C45 C 0.29851 0.84124 0.75334 0.0
C46 C 0.27062 0.85624 0.73619 0.0
C47 C 0.25504 0.84859 0.69678 0.0
C48 C 0.2674 0.82515 0.67452 0.0
C49 C 0.29442 0.809 0.69187 0.0
C50 C 0.30979 0.81728 0.73122 0.0
C51 C 0.30939 0.78534 0.66932 0.0
C52 C 0.31129 0.75281 0.68387 0.0
C53 C 0.32713 0.79745 0.63651 0.0
C54 C 0.34877 0.77861 0.62017 0.0
C55 C 0.35261 0.74721 0.63617 0.0
C56 C 0.228 0.8673 0.6792 0.0
C57 C 0.19705 0.87037 0.69841 0.0
C58 C 0.23521 0.88507 0.64528 0.0
C59 C 0.21295 0.90674 0.63175 0.0
C60 C 0.18314 0.91093 0.65192 0.0
C61 C 0.17485 0.89193 0.6849 0.0
C62 C 0.33276 0.73401 0.66756 0.0
H63 H 0.30047 0.87004 0.88295 0.0
H64 H 0.26468 0.84493 0.81808 0.0
H65 H 0.37923 0.86731 0.77749 0.0
H66 H 0.41475 0.89345 0.84123 0.0
H67 H 0.26291 0.87569 0.75312 0.0
H68 H 0.33182 0.80605 0.74448 0.0
H69 H 0.25588 0.8193 0.64401 0.0
H70 H 0.29782 0.74291 0.70914 0.0
H71 H 0.3264 0.82264 0.62498 0.0
H72 H 0.36382 0.78933 0.59597 0.0
H73 H 0.19059 0.85667 0.72443 0.0
H74 H 0.25903 0.88335 0.63003 0.0
H75 H 0.33578 0.71033 0.68101 0.0
H76 H 0.15188 0.89453 0.70086 0.0
H77 H 0.21929 0.92046 0.60573 0.0
C78 C 0.78035 0.43479 0.93092 0.0
C79 C 0.8048 0.41506 0.94503 0.0
C80 C 0.74284 0.41697 0.90794 0.0
C81 C 0.72934 0.37913 0.89815 0.0
C82 C 0.7547 0.35979 0.91145 0.0
C83 C 0.79183 0.37751 0.9348 0.0
C84 C 0.68866 0.35959 0.87507 0.0
C85 C 0.6728 0.37586 0.8449 0.0
C86 C 0.6341 0.35786 0.82345 0.0
C87 C 0.61128 0.32228 0.83226 0.0
C88 C 0.62712 0.30536 0.86226 0.0
C89 C 0.66542 0.32448 0.88348 0.0
C90 C 0.60478 0.26801 0.87314 0.0
C91 C 0.56708 0.25964 0.8858 0.0
C92 C 0.62446 0.24242 0.87697 0.0
C93 C 0.60801 0.21018 0.89476 0.0
C94 C 0.57138 0.20254 0.90938 0.0
C95 C 0.61893 0.37712 0.79196 0.0
C96 C 0.62498 0.41441 0.79818 0.0
C97 C 0.60211 0.35995 0.7548 0.0
C98 C 0.59373 0.38016 0.72427 0.0
C99 C 0.60213 0.41793 0.73027 0.0
C100 C 0.61671 0.43446 0.76785 0.0
C101 C 0.55062 0.2273 0.90387 0.0
H102 H 0.78984 0.46382 0.93845 0.0
H103 H 0.72405 0.43273 0.89863 0.0
H104 H 0.74594 0.33087 0.90377 0.0
H105 H 0.81058 0.36188 0.94476 0.0
H106 H 0.69109 0.40252 0.83747 0.0
H107 H 0.67677 0.31203 0.90745 0.0
H108 H 0.58154 0.30793 0.81603 0.0
H109 H 0.55158 0.27908 0.88385 0.0
H110 H 0.65361 0.24814 0.86754 0.0
H111 H 0.62459 0.19162 0.89804 0.0
H112 H 0.63708 0.4284 0.82654 0.0
H113 H 0.59715 0.33134 0.74896 0.0
H114 H 0.52266 0.22265 0.91527 0.0
H115 H 0.62233 0.46321 0.77376 0.0
H116 H 0.58216 0.36656 0.69568 0.0
C117 C 0.89616 0.61108 0.2333 0.0
C118 C 0.93798 0.6223 0.23193 0.0
C119 C 0.88122 0.62572 0.26241 0.0
C120 C 0.9076 0.65243 0.29084 0.0
C121 C 0.94938 0.66409 0.28893 0.0
C122 C 0.96428 0.64927 0.26003 0.0
C123 C 0.89193 0.66777 0.3226 0.0
C124 C 0.85998 0.64496 0.34052 0.0
C125 C 0.84686 0.65875 0.37168 0.0
C126 C 0.86537 0.69587 0.38423 0.0
C127 C 0.89613 0.71976 0.36639 0.0
C128 C 0.90946 0.70524 0.33575 0.0
C129 C 0.91408 0.75951 0.38082 0.0
C130 C 0.89011 0.777 0.39602 0.0
C131 C 0.95546 0.77982 0.38185 0.0
C132 C 0.97239 0.81587 0.39859 0.0
C133 C 0.94862 0.8327 0.41523 0.0
C134 C 0.81373 0.63535 0.39187 0.0
C135 C 0.77629 0.6127 0.37127 0.0
C136 C 0.81798 0.63873 0.43236 0.0
C137 C 0.78528 0.62171 0.4516 0.0
C138 C 0.74728 0.60049 0.43105 0.0
C139 C 0.7434 0.59552 0.39064 0.0
C140 C 0.90715 0.81259 0.4135 0.0
H141 H 0.87494 0.59046 0.21217 0.0
H142 H 0.84886 0.61625 0.26243 0.0
H143 H 0.97085 0.68431 0.31026 0.0
H144 H 0.99659 0.65913 0.25963 0.0
H145 H 0.84631 0.61621 0.33124 0.0
H146 H 0.93292 0.72326 0.3215 0.0
H147 H 0.8555 0.7062 0.40841 0.0
H148 H 0.85793 0.76302 0.39509 0.0
H149 H 0.97519 0.76759 0.3708 0.0
H150 H 1.00438 0.83042 0.39893 0.0
H151 H 0.77182 0.60973 0.3401 0.0
H152 H 0.84651 0.65549 0.44925 0.0
H153 H 0.88777 0.82377 0.42671 0.0
H154 H 0.71446 0.57971 0.37382 0.0
H155 H 0.78954 0.62573 0.48272 0.0
C156 C 0.70555 0.71503 0.63487 0.0
C157 C 0.70958 0.75143 0.62923 0.0
C158 C 0.68195 0.69606 0.66166 0.0
C159 C 0.66269 0.71344 0.68389 0.0
C160 C 0.66455 0.74899 0.67591 0.0
C161 C 0.68753 0.76762 0.6489 0.0
C162 C 0.64666 0.69772 0.71918 0.0
C163 C 0.66789 0.68021 0.7434 0.0
C164 C 0.66004 0.6736 0.78122 0.0
C165 C 0.63044 0.68487 0.7947 0.0
C166 C 0.60968 0.7033 0.77136 0.0
C167 C 0.61591 0.70706 0.73284 0.0
C168 C 0.58972 0.72588 0.78952 0.0
C169 C 0.56954 0.71458 0.8213 0.0
C170 C 0.5968 0.76179 0.77902 0.0
C171 C 0.58693 0.78641 0.80128 0.0
C172 C 0.57008 0.77598 0.83483 0.0
C173 C 0.68747 0.66075 0.80829 0.0
C174 C 0.7032 0.63487 0.79552 0.0
C175 C 0.70097 0.67668 0.8463 0.0
C176 C 0.73053 0.66815 0.87027 0.0
C177 C 0.74809 0.64416 0.85661 0.0
C178 C 0.73328 0.62676 0.81938 0.0
C179 C 0.55996 0.73948 0.84387 0.0
H180 H 0.72223 0.70191 0.61997 0.0
H181 H 0.68063 0.6685 0.66645 0.0
H182 H 0.6511 0.7639 0.6927 0.0
H183 H 0.69073 0.7959 0.64588 0.0
H184 H 0.69328 0.67487 0.7342 0.0
H185 H 0.59927 0.72053 0.71455 0.0
H186 H 0.62593 0.68185 0.82444 0.0
H187 H 0.56295 0.68701 0.82985 0.0
H188 H 0.61292 0.77201 0.75532 0.0
H189 H 0.59529 0.81443 0.79375 0.0
H190 H 0.6931 0.62164 0.76667 0.0
H191 H 0.69017 0.69709 0.85721 0.0
H192 H 0.54624 0.73064 0.86927 0.0
H193 H 0.7461 0.60798 0.80811 0.0
H194 H 0.74052 0.68123 0.89919 0.0
C195 C 0.71891 0.14625 0.25799 0.0
C196 C 0.70981 0.16799 0.22975 0.0
C197 C 0.74417 0.16228 0.29222 0.0
C198 C 0.76068 0.20043 0.29894 0.0
C199 C 0.75323 0.22223 0.26975 0.0
C200 C 0.728 0.20605 0.23521 0.0
C201 C 0.78075 0.2166 0.33814 0.0
C202 C 0.80637 0.20168 0.35974 0.0
C203 C 0.81749 0.2101 0.39963 0.0
C204 C 0.80435 0.23544 0.41778 0.0
C205 C 0.77981 0.25171 0.396 0.0
C206 C 0.76854 0.24234 0.35623 0.0
C207 C 0.76023 0.2741 0.4144 0.0
C208 C 0.73707 0.26033 0.44355 0.0
C209 C 0.75841 0.30598 0.39806 0.0
C210 C 0.73174 0.32223 0.40863 0.0
C211 C 0.7062 0.30676 0.43552 0.0
C212 C 0.83986 0.18961 0.42184 0.0
C213 C 0.82735 0.15161 0.41434 0.0
C214 C 0.87509 0.20761 0.44812 0.0
C215 C 0.89864 0.18812 0.46484 0.0
C216 C 0.88719 0.15039 0.45552 0.0
C217 C 0.85077 0.13224 0.43091 0.0
C218 C 0.71024 0.27654 0.45404 0.0
H219 H 0.70511 0.1168 0.25415 0.0
H220 H 0.74872 0.14471 0.31433 0.0
H221 H 0.76568 0.25169 0.27422 0.0
H222 H 0.7211 0.22319 0.21367 0.0
H223 H 0.81617 0.18198 0.34565 0.0
H224 H 0.74719 0.25269 0.33998 0.0
H225 H 0.81176 0.24132 0.44874 0.0
H226 H 0.73755 0.23554 0.45627 0.0
H227 H 0.77616 0.31722 0.37566 0.0
H228 H 0.73007 0.34616 0.39476 0.0
H229 H 0.79986 0.13693 0.39471 0.0
H230 H 0.88523 0.23685 0.4545 0.0
H231 H 0.69102 0.2642 0.47503 0.0
H232 H 0.84109 0.10321 0.42331 0.0
H233 H 0.92612 0.20262 0.4845 0.0
C234 C 0.27614 0.62352 0.18829 0.0
C235 C 0.26868 0.63121 0.14969 0.0
C236 C 0.31378 0.64157 0.21091 0.0
C237 C 0.34493 0.66757 0.19535 0.0
C238 C 0.33792 0.67392 0.15624 0.0
C239 C 0.3002 0.65632 0.13387 0.0
C240 C 0.38379 0.6895 0.22008 0.0
C241 C 0.40198 0.67391 0.24929 0.0
C242 C 0.43822 0.6948 0.27309 0.0
C243 C 0.45699 0.73203 0.26682 0.0
C244 C 0.43911 0.74805 0.23734 0.0
C245 C 0.40248 0.72658 0.21475 0.0
C246 C 0.45798 0.78666 0.22802 0.0
C247 C 0.43458 0.80926 0.22407 0.0
C248 C 0.49632 0.79901 0.21635 0.0
C249 C 0.50991 0.83224 0.19913 0.0
C250 C 0.48559 0.85404 0.1935 0.0
C251 C 0.45504 0.67675 0.30448 0.0
C252 C 0.45958 0.68895 0.34336 0.0
C253 C 0.46121 0.64404 0.29585 0.0
C254 C 0.47046 0.62342 0.32525 0.0
C255 C 0.47334 0.63461 0.36425 0.0
C256 C 0.46834 0.668 0.37291 0.0
C257 C 0.44818 0.84244 0.20711 0.0
H258 H 0.25252 0.60416 0.20129 0.0
H259 H 0.31786 0.63608 0.24093 0.0
H260 H 0.36138 0.69312 0.14296 0.0
H261 H 0.29537 0.66351 0.10453 0.0
H262 H 0.38783 0.64531 0.25372 0.0
H263 H 0.3885 0.73905 0.1926 0.0
H264 H 0.48514 0.74829 0.28463 0.0
H265 H 0.40483 0.80044 0.23267 0.0
H266 H 0.51468 0.78191 0.2183 0.0
H267 H 0.53857 0.83988 0.18844 0.0
H268 H 0.45424 0.71368 0.35086 0.0
H269 H 0.45779 0.63388 0.26616 0.0
H270 H 0.42885 0.85862 0.20371 0.0
H271 H 0.46943 0.67725 0.40245 0.0
H272 H 0.47463 0.59822 0.31733 0.0
C273 C 0.16034 0.24496 0.70488 0.0
C274 C 0.11912 0.2304 0.68891 0.0
C275 C 0.17762 0.28083 0.72176 0.0
C276 C 0.15416 0.30316 0.72354 0.0
C277 C 0.11285 0.28857 0.70828 0.0
C278 C 0.09566 0.25284 0.69081 0.0
C279 C 0.17385 0.3425 0.73777 0.0
C280 C 0.20795 0.36391 0.72251 0.0
C281 C 0.22755 0.40113 0.73415 0.0
C282 C 0.21239 0.4172 0.76205 0.0
C283 C 0.17822 0.39627 0.77854 0.0
C284 C 0.15892 0.35888 0.76553 0.0
C285 C 0.16302 0.41316 0.80953 0.0
C286 C 0.16402 0.44945 0.80889 0.0
C287 C 0.1475 0.39322 0.84031 0.0
C288 C 0.13314 0.40882 0.86908 0.0
C289 C 0.13359 0.44487 0.86805 0.0
C290 C 0.26376 0.42224 0.71637 0.0
C291 C 0.29297 0.40658 0.71107 0.0
C292 C 0.26755 0.45598 0.70109 0.0
C293 C 0.2984 0.47239 0.67907 0.0
C294 C 0.32587 0.45528 0.67183 0.0
C295 C 0.32347 0.42281 0.68914 0.0
C296 C 0.14966 0.46502 0.83766 0.0
H297 H 0.17937 0.22862 0.70428 0.0
H298 H 0.2096 0.2913 0.73322 0.0
H299 H 0.09417 0.30528 0.70845 0.0
H300 H 0.06416 0.24323 0.67782 0.0
H301 H 0.21872 0.35152 0.70042 0.0
H302 H 0.1323 0.34239 0.77699 0.0
H303 H 0.22805 0.44569 0.7717 0.0
H304 H 0.17543 0.46584 0.7858 0.0
H305 H 0.14677 0.3655 0.84252 0.0
H306 H 0.12112 0.39239 0.89194 0.0
H307 H 0.29156 0.38104 0.72305 0.0
H308 H 0.24556 0.46876 0.70455 0.0
H309 H 0.15141 0.49309 0.83617 0.0
H310 H 0.3448 0.40944 0.68496 0.0
H311 H 0.29969 0.49758 0.66632 0.0
Pr312 Pr 1.00462 1.01411 0.57067 0.0
Pr313 Pr 0.06968 0.04872 0.53323 0.0
C314 C 0.94511 0.96731 0.60372 0.0
C315 C 0.90948 0.93345 0.59527 0.0
C316 C 0.87209 0.93366 0.60332 0.0
C317 C 0.83857 0.90144 0.5992 0.0
C318 C 0.84175 0.86825 0.58697 0.0
C319 C 0.87891 0.86815 0.57783 0.0
C320 C 0.9125 0.90054 0.58174 0.0
C321 C 0.04588 0.08507 0.60634 0.0
C322 C 0.08969 1.00047 0.59661 0.0
C323 C 0.1279 0.09076 0.49507 0.0
C324 C 0.16259 0.12496 0.49811 0.0
C325 C 0.17996 0.13616 0.46508 0.0
C326 C 0.21375 0.16791 0.46702 0.0
C327 C 0.23073 0.18913 0.50206 0.0
C328 C 0.21313 0.178 0.53523 0.0
C329 C 0.17926 0.14596 0.53328 0.0
C330 C 1.02616 0.97711 0.49949 0.0
C331 C 0.98696 0.06593 0.51008 0.0
O332 O 0.94226 0.99649 0.5885 0.0
O333 O 0.98086 0.96494 0.60461 0.0
O334 O 0.06365 0.06436 0.59555 0.0
O335 O 1.00713 0.06894 0.60003 0.0
O336 O 0.10619 0.03319 0.58528 0.0
O337 O 0.05029 0.98415 0.58841 0.0
O338 O 0.13222 0.0653 0.51645 0.0
O339 O 0.09203 0.09306 0.49272 0.0
O340 O 1.0102 0.99983 0.50825 0.0
O341 O 0.06498 0.99096 0.50822 0.0
O342 O 0.96972 0.03263 0.51967 0.0
O343 O 1.02638 0.08161 0.51888 0.0
H344 H 0.86912 0.95863 0.61405 0.0
H345 H 0.81064 0.90224 0.60742 0.0
H346 H 0.88217 0.84289 0.56854 0.0
H347 H 0.94099 0.8996 0.57519 0.0
H348 H 0.16747 0.12021 0.43774 0.0
H349 H 0.22646 0.17609 0.44095 0.0
H350 H 0.22584 0.19375 0.56263 0.0
H351 H 0.16631 0.13743 0.55911 0.0
Pr352 Pr 0.49184 0.03704 0.06709 0.0
Pr353 Pr 0.55614 1.02207 1.03803 0.0
C354 C 0.44342 0.0546 0.11065 0.0
C355 C 0.44458 0.08701 0.13382 0.0
C356 C 0.41301 0.10065 0.12588 0.0
C357 C 0.41372 0.13166 0.14688 0.0
C358 C 0.44579 0.14942 0.17669 0.0
C359 C 0.4776 0.1359 0.18444 0.0
C360 C 0.47706 0.10502 0.16319 0.0
C361 C 0.51737 0.08001 1.00588 0.0
C362 C 0.58659 0.08457 0.1053 0.0
C363 C 0.60388 1.00401 0.9945 0.0
C364 C 0.60002 0.96939 0.97424 0.0
C365 C 0.58371 0.93613 0.99069 0.0
C366 C 0.57689 0.90315 0.96993 0.0
C367 C 0.58569 0.90286 0.93221 0.0
C368 C 0.60212 0.93616 0.91588 0.0
C369 C 0.60932 0.96918 0.93679 0.0
C370 C 0.53158 0.97956 0.0996 0.0
C371 C 0.46161 0.97379 0.99947 0.0
O372 O 0.46841 0.03824 0.12361 0.0
O373 O 0.43992 0.05662 0.07339 0.0
O374 O 0.54063 0.07437 1.03349 0.0
O375 O 0.47985 0.06282 1.00911 0.0
O376 O 0.59674 0.0759 0.07294 0.0
O377 O 0.54931 0.06892 0.11229 0.0
O378 O 0.57745 1.01857 0.98073 0.0
O379 O 0.61012 1.00564 1.03214 0.0
O380 O 0.50773 0.98472 0.07206 0.0
O381 O 0.56894 0.99716 0.09605 0.0
O382 O 0.44979 0.98477 1.02976 0.0
O383 O 0.49948 0.98761 0.99379 0.0
H384 H 0.38787 0.08745 0.10314 0.0
H385 H 0.38932 0.14198 0.13949 0.0
H386 H 0.50272 0.14902 0.2072 0.0
H387 H 0.50207 0.09533 0.16975 0.0
H388 H 0.57541 0.93556 1.01927 0.0
H389 H 0.56363 0.87785 0.98294 0.0
H390 H 0.60941 0.93664 0.88691 0.0
H391 H 0.62146 0.99452 0.92348 0.0
Pr392 Pr 0.54986 0.56459 0.57325 0.0
Pr393 Pr 0.5193 0.48642 0.52831 0.0
C394 C 0.55854 0.63109 0.60355 0.0
C395 C 0.53022 0.6508 0.60314 0.0
C396 C 0.53695 0.67894 0.63139 0.0
C397 C 0.50807 0.69547 0.63305 0.0
C398 C 0.47202 0.68395 0.60644 0.0
C399 C 0.46613 0.65657 0.57733 0.0
C400 C 0.49487 0.63995 0.57586 0.0
C401 C 0.57529 0.51239 0.61089 0.0
C402 C 0.45637 0.50575 0.57909 0.0
C403 C 0.51032 0.4161 0.51353 0.0
C404 C 0.5296 0.39515 0.49332 0.0
C405 C 0.55289 0.41034 0.46474 0.0
C406 C 0.57799 0.39345 0.45162 0.0
C407 C 0.58032 0.36142 0.46723 0.0
C408 C 0.55529 0.34534 0.49433 0.0
C409 C 0.53003 0.36206 0.5072 0.0
C410 C 0.49877 0.53503 0.47895 0.0
C411 C 0.6075 0.54821 0.51379 0.0
O412 O 0.56895 0.62564 0.57031 0.0
O413 O 0.55033 0.6023 0.62334 0.0
O414 O 0.54062 0.5071 0.59226 0.0
O415 O 0.59833 0.5464 0.61107 0.0
O416 O 0.46477 0.47998 0.56093 0.0
O417 O 0.48145 0.54014 0.58341 0.0
O418 O 0.53338 0.43639 0.5438 0.0
O419 O 0.48891 0.43223 0.49277 0.0
O420 O 0.51679 0.54232 0.51325 0.0
O421 O 0.48909 0.50043 0.46938 0.0
O422 O 0.59846 0.57355 0.53218 0.0
O423 O 0.58523 0.51313 0.51283 0.0
H424 H 0.56407 0.6875 0.65262 0.0
H425 H 0.51333 0.71646 0.65585 0.0
H426 H 0.43906 0.6477 0.55599 0.0
H427 H 0.48915 0.61816 0.55383 0.0
H428 H 0.55325 0.43614 0.45408 0.0
H429 H 0.59723 0.40648 0.43093 0.0
H430 H 0.5564 0.32053 0.50656 0.0
H431 H 0.51242 0.35017 0.52949 0.0
Pr432 Pr 1.02682 0.55921 1.02378 0.0
Pr433 Pr 0.04267 0.50554 0.07683 0.0
C434 C 0.99967 0.60288 0.9783 0.0
C435 C 0.96265 0.61057 0.96596 0.0
C436 C 0.96375 0.63734 0.94011 0.0
C437 C 0.92837 0.64343 0.92562 0.0
C438 C 0.89128 0.623 0.93702 0.0
C439 C 0.89031 0.59621 0.96317 0.0
C440 C 0.92583 0.59005 0.97761 0.0
C441 C 0.10667 0.58069 0.06171 0.0
C442 C 1.00183 0.55987 0.1114 0.0
C443 C 0.07671 0.46586 0.12171 0.0
C444 C 0.11816 0.47052 0.13932 0.0
C445 C 0.12699 0.44047 0.15293 0.0
C446 C 0.1662 0.44471 0.17018 0.0
C447 C 0.19716 0.47914 0.17425 0.0
C448 C 0.18837 0.50918 0.16003 0.0
C449 C 0.14913 0.50484 0.14255 0.0
C450 C 0.96265 0.48173 1.03908 0.0
C451 C 0.0683 0.5059 0.98848 0.0
O452 O 0.99932 0.57098 0.96627 0.0
O453 O 1.01706 0.61276 1.014 0.0
O454 O 0.07552 0.56675 0.07685 0.0
O455 O 0.0976 0.58552 1.02578 0.0
O456 O 1.02828 0.54362 0.12074 0.0
O457 O 0.99013 0.56292 0.07461 0.0
O458 O 0.06113 0.48839 0.13528 0.0
O459 O 0.06896 0.46059 0.08423 0.0
O460 O 0.99343 0.49774 1.02388 0.0
O461 O 0.97286 0.47439 0.07389 0.0
O462 O 0.04344 0.52367 0.97915 0.0
O463 O 0.07813 0.50096 1.02512 0.0
H464 H 0.99187 0.65301 0.93045 0.0
H465 H 0.92989 0.66351 0.9047 0.0
H466 H 0.86209 0.57999 0.97226 0.0
H467 H 0.92451 0.56898 0.99733 0.0
H468 H 0.1035 0.41378 0.15049 0.0
H469 H 0.17215 0.42116 0.18109 0.0
H470 H 0.21179 0.5359 0.16238 0.0
H471 H 0.14283 0.52823 0.13175 0.0
C472 C 0.3305 0.25396 0.48006 0.0
C473 C 0.32916 0.28845 0.49027 0.0
C474 C 0.29967 0.22187 0.48618 0.0
C475 C 0.26641 0.22296 0.50296 0.0
H476 H 0.35399 0.25162 0.46471 0.0
H477 H 0.30091 0.19599 0.47606 0.0
S478 S 0.25117 0.30598 0.53966 0.0
N479 N 0.29396 0.32156 0.52179 0.0
N480 N 0.23578 0.26109 0.53307 0.0
C481 C 0.26615 0.25705 0.51598 0.0
C482 C 0.29753 0.28982 0.50961 0.0
C483 C 0.37101 0.92766 0.92354 0.0
C484 C 0.38258 0.9012 0.90538 0.0
C485 C 0.39558 0.94974 0.95589 0.0
C486 C 0.43263 0.9463 0.97059 0.0
H487 H 0.344 0.93278 0.91144 0.0
H488 H 0.38676 0.97105 0.96792 0.0
S489 S 0.47307 0.87709 0.93806 0.0
N490 N 0.43049 0.86928 0.90828 0.0
N491 N 0.4775 0.91192 0.96796 0.0
C492 C 0.44325 0.9185 0.95437 0.0
C493 C 0.41797 0.89561 0.92203 0.0
C494 C 0.56001 0.43072 0.67223 0.0
C495 C 0.59682 0.44058 0.69766 0.0
C496 C 0.55366 0.4535 0.6435 0.0
C497 C 0.58398 0.48692 0.63882 0.0
H498 H 0.53545 0.40582 0.67538 0.0
H499 H 0.52436 0.44525 0.62548 0.0
S500 S 0.68744 0.52315 0.69507 0.0
N501 N 0.66513 0.48459 0.71406 0.0
N502 N 0.65333 0.52712 0.66038 0.0
C503 C 0.6215 0.49622 0.66297 0.0
C504 C 0.62786 0.47318 0.69226 0.0
C505 C 0.93776 0.60282 0.16228 0.0
C506 C 0.95419 0.60577 0.2016 0.0
C507 C 0.95323 0.58814 0.13347 0.0
C508 C 0.98554 0.57519 0.14259 0.0
H509 H 0.9131 0.61251 0.15358 0.0
H510 H 0.93961 0.58691 0.10375 0.0
S511 S 0.03802 0.57493 0.24158 0.0
N512 N 1.00378 0.5932 0.24811 0.0
N513 N 0.03268 0.56579 0.19465 0.0
C514 C 1.00179 0.57752 0.18196 0.0
C515 C 0.98624 0.59273 0.21117 0.0
C516 C 0.48201 0.24513 0.22651 0.0
C517 C 0.44723 0.24649 0.24018 0.0
C518 C 0.48147 0.21354 0.2063 0.0
C519 C 0.4462 0.18216 0.19934 0.0
H520 H 0.50953 0.26887 0.23078 0.0
H521 H 0.50863 0.21394 0.19541 0.0
S522 S 0.34874 0.17065 0.23347 0.0
N523 N 0.37763 0.21315 0.24798 0.0
N524 N 0.37675 0.15364 0.21075 0.0
C525 C 0.41168 0.18292 0.21408 0.0
C526 C 0.41217 0.21509 0.23433 0.0
C527 C 0.11804 0.92178 0.63521 0.0
C528 C 0.16044 0.93495 0.63881 0.0
C529 C 0.09571 0.94367 0.62272 0.0
C530 C 0.11485 0.97969 0.61339 0.0
H531 H 0.10189 0.89405 0.64143 0.0
H532 H 0.06303 0.93185 0.61974 0.0
S533 S 0.22573 0.02795 0.6208 0.0
N534 N 0.22111 0.98681 0.63427 0.0
N535 N 0.17916 0.02805 0.61039 0.0
C536 C 0.15742 0.99354 0.61781 0.0
C537 C 0.18018 0.97112 0.6305 0.0
C538 C 0.87447 0.46226 0.95779 0.0
C539 C 0.84388 0.43338 0.9705 0.0
C540 C 0.91268 0.47806 0.98045 0.0
C541 C 0.92138 0.46589 1.01684 0.0
H542 H 0.86919 0.47201 0.9297 0.0
H543 H 0.93567 0.49975 0.9692 0.0
S544 S 0.85012 0.39302 0.06437 0.0
N545 N 0.82384 0.39451 1.02237 0.0
N546 N 0.89528 0.42453 0.06532 0.0
C547 C 0.89045 0.43794 1.03043 0.0
C548 C 0.8518 0.42156 1.00713 0.0
C549 C 0.70381 0.60897 0.47865 0.0
C550 C 0.7116 0.58584 0.45188 0.0
C551 C 0.67051 0.59645 0.49852 0.0
C552 C 0.64345 0.56004 0.49294 0.0
H553 H 0.72335 0.6373 0.48391 0.0
H554 H 0.66602 0.61572 0.51845 0.0
S555 S 0.65101 0.48792 0.42676 0.0
N556 N 0.68995 0.52448 0.42139 0.0
N557 N 0.62748 0.50078 0.45861 0.0
C558 C 0.65115 0.53644 0.46648 0.0
C559 C 0.68502 0.54937 0.44597 0.0
C560 C 0.29257 0.45861 0.20604 0.0
C561 C 0.30978 0.48148 0.24003 0.0
C562 C 0.25716 0.45933 0.18377 0.0
C563 C 0.23801 0.48326 0.19446 0.0
H564 H 0.30511 0.43841 0.19792 0.0
H565 H 0.24378 0.44005 0.15879 0.0
S566 S 0.27389 0.55161 0.27852 0.0
N567 N 0.30723 0.53075 0.28166 0.0
N568 N 0.24083 0.53253 0.23951 0.0
C569 C 0.2565 0.50801 0.22695 0.0
C570 C 0.29232 0.50695 0.24987 0.0
C571 C 0.58405 0.1628 0.9613 0.0
C572 C 0.55677 0.1702 0.93255 0.0
C573 C 0.57124 0.1333 0.9843 0.0
C574 C 0.53058 0.10986 0.97966 0.0
H575 H 0.61552 0.18041 0.96665 0.0
H576 H 0.5934 0.12925 1.00634 0.0
S577 S 0.44749 0.11544 0.90671 0.0
N578 N 0.48749 0.15018 0.89946 0.0
N579 N 0.46337 0.09509 0.94276 0.0
C580 C 0.50309 0.11644 0.95053 0.0
C581 C 0.51617 0.14651 0.92709 0.0
C582 C 1.00574 0.88024 0.45913 0.0
C583 C 0.96745 0.87017 0.43602 0.0
C584 C 1.02404 0.91468 0.47947 0.0
C585 C 1.00478 0.94063 0.47824 0.0
H586 H 1.02169 0.86117 0.46205 0.0
H587 H 0.05355 0.92088 0.49668 0.0
S588 S 0.90527 0.9294 0.42119 0.0
N589 N 0.91181 0.89047 0.41193 0.0
N590 N 0.94559 0.95434 0.45163 0.0
C591 C 0.96648 0.93114 0.45561 0.0
C592 C 0.94802 0.89622 0.43421 0.0
C593 C 0.42112 0.75281 0.62159 0.0
C594 C 0.38092 0.73061 0.62343 0.0
C595 C 0.4502 0.73757 0.6152 0.0
C596 C 0.44009 0.69957 0.61014 0.0
H597 H 0.43061 0.78215 0.62675 0.0
H598 H 0.48099 0.75563 0.61484 0.0
S599 S 0.33851 0.62961 0.61028 0.0
N600 N 0.33199 0.66885 0.6176 0.0
N601 N 0.38678 0.64009 0.60635 0.0
C602 C 0.3997 0.6771 0.61063 0.0
C603 C 0.37011 0.69264 0.61713 0.0
C604 C 0.78205 0.77733 0.62056 0.0
C605 C 0.74179 0.77492 0.60889 0.0
C606 C 0.81447 0.80621 0.61059 0.0
C607 C 0.8077 0.83365 0.58864 0.0
H608 H 0.78872 0.75854 0.64014 0.0
H609 H 0.84496 0.80854 0.62267 0.0
S610 S 0.70797 0.83544 0.5442 0.0
N611 N 0.69688 0.79906 0.56923 0.0
N612 N 0.75788 0.85341 0.55044 0.0
C613 C 0.76761 0.82957 0.57373 0.0
C614 C 0.73463 0.80017 0.58384 0.0
C615 C 0.63933 0.12947 0.2036 0.0
C616 C 0.6782 0.1505 0.1967 0.0
C617 C 0.60943 0.1095 0.17348 0.0
C618 C 0.61751 0.10946 0.13541 0.0
H619 H 0.63227 0.1279 0.23269 0.0
H620 H 0.58025 0.09295 0.18045 0.0
S621 S 0.71402 0.16263 0.10221 0.0
N622 N 0.72288 0.17223 0.14933 0.0
N623 N 0.66667 0.13433 0.09219 0.0
C624 C 0.65594 0.13159 0.12795 0.0
C625 C 0.68632 0.15227 0.15876 0.0
C626 C 0.45848 0.57235 0.3896 0.0
C627 C 0.47947 0.61034 0.39517 0.0
C628 C 0.46445 0.54858 0.41715 0.0
C629 C 0.4914 0.5616 0.45183 0.0
H630 H 0.4371 0.56072 0.36361 0.0
H631 H 0.44785 0.51962 0.41105 0.0
S632 S 0.55469 0.6583 0.48063 0.0
N633 N 0.52912 0.65963 0.43818 0.0
N634 N 0.53965 0.61497 0.49002 0.0
C635 C 0.51221 0.59946 0.45814 0.0
C636 C 0.50638 0.62377 0.4299 0.0
C637 C 0.12702 0.45697 0.93784 0.0
C638 C 0.1171 0.46114 0.89837 0.0
C639 C 0.11162 0.47173 0.9666 0.0
C640 C 0.08524 0.4912 0.95738 0.0
H641 H 0.14722 0.44239 0.94668 0.0
H642 H 0.12042 0.46764 0.99638 0.0
S643 S 0.04831 0.50859 0.85812 0.0
N644 N 0.07807 0.48537 0.85169 0.0
N645 N 0.04952 0.51316 0.90512 0.0
C646 C 0.07499 0.49545 0.91792 0.0
C647 C 0.09078 0.48049 0.88872 0.0
C648 C 0.55172 0.8307 0.84849 0.0
C649 C 0.56811 0.80457 0.8621 0.0
C650 C 0.55636 0.86183 0.87182 0.0
C651 C 0.57761 0.86798 0.90958 0.0
H652 H 0.53637 0.82763 0.81913 0.0
H653 H 0.544 0.88166 0.85995 0.0
S654 S 0.62583 0.80771 0.95907 0.0
N655 N 0.60576 0.78658 0.91598 0.0
N656 N 0.61437 0.84509 0.95986 0.0
C657 C 0.59279 0.84142 0.92406 0.0
C658 C 0.58805 0.8097 0.90031 0.0
C659 C 0.89671 0.09592 0.48513 0.0
C660 C 0.91352 0.1298 0.46994 0.0
C661 C 0.92046 0.07503 0.49712 0.0
C662 C 0.96201 0.08727 0.49449 0.0
H663 H 0.86492 0.08555 0.48801 0.0
H664 H 0.9062 0.04941 0.50917 0.0
S665 S 1.02009 0.173 0.45432 0.0
N666 N 0.97372 0.17376 0.45099 0.0
N667 N 1.01864 0.13488 0.4741 0.0
C668 C 0.97913 0.12094 0.47894 0.0
C669 C 0.95486 0.14213 0.4666 0.0
C670 C 0.19368 0.61539 0.1441 0.0
C671 C 0.22731 0.61563 0.12702 0.0
C672 C 0.15472 0.60378 0.12274 0.0
C673 C 0.14799 0.59244 0.08339 0.0
H674 H 0.19755 0.62516 0.17398 0.0
H675 H 0.12979 0.60434 0.137 0.0
S676 S 0.2244 0.58358 1.02597 0.0
N677 N 0.25033 0.59998 0.06911 0.0
N678 N 0.17712 0.57937 1.02875 0.0
C679 C 0.18091 0.5916 0.06609 0.0
C680 C 0.22056 0.60288 0.08796 0.0
C681 C 0.38428 0.50559 0.65081 0.0
C682 C 0.35595 0.46977 0.64501 0.0
C683 C 0.41554 0.51779 0.62815 0.0
C684 C 0.41955 0.49468 0.59867 0.0
H685 H 0.38331 0.52381 0.67404 0.0
H686 H 0.43762 0.54504 0.6349 0.0
S687 S 0.34898 0.40027 0.56818 0.0
N688 N 0.33119 0.41281 0.60498 0.0
N689 N 0.38918 0.43543 0.56247 0.0
C690 C 0.38973 0.45956 0.5912 0.0
C691 C 0.35822 0.4472 0.61431 0.0
C692 C 0.7852 0.60389 0.88355 0.0
C693 C 0.78348 0.63905 0.88004 0.0
C694 C 0.81959 0.59879 0.90332 0.0
C695 C 0.8536 0.62868 0.92006 0.0
H696 H 0.75995 0.58017 0.87053 0.0
H697 H 0.82006 0.57132 0.90436 0.0
S698 S 0.8639 0.72618 0.92053 0.0
N699 N 0.81869 0.7042 0.89566 0.0
N700 N 0.88261 0.69443 0.93375 0.0
C701 C 0.8518 0.66385 0.91778 0.0
C702 C 0.81693 0.66908 0.89759 0.0
C703 C 0.46943 0.89312 0.14225 0.0
C704 C 0.49765 0.88741 0.17134 0.0
C705 C 0.48023 0.92335 0.11987 0.0
C706 C 0.51977 0.94922 0.12551 0.0
H707 H 0.43886 0.87355 0.13604 0.0
H708 H 0.45759 0.92598 0.0974 0.0
S709 S 0.60421 0.94895 0.20008 0.0
N710 N 0.56625 0.91181 0.20609 0.0
N711 N 0.58667 0.96819 0.16399 0.0
C712 C 0.54801 0.9444 0.15514 0.0
C713 C 0.53698 0.91365 0.17795 0.0
C714 C 0.12211 0.17904 0.64521 0.0
C715 C 0.10099 0.19232 0.6697 0.0
C716 C 0.1049 0.1439 0.62582 0.0
C717 C 0.0657 0.12072 0.62973 0.0
H718 H 0.15185 0.19625 0.64019 0.0
H719 H 0.1219 0.13527 0.60673 0.0
S720 S 0.9994 0.14018 0.69367 0.0
N721 N 0.04013 0.17744 0.69946 0.0
N722 N 1.00745 0.11252 0.66217 0.0
C723 C 0.04476 0.13319 0.65491 0.0
C724 C 0.06242 0.16862 0.67502 0.0
C725 C 0.66887 0.32799 0.48081 0.0
C726 C 0.67395 0.32085 0.44283 0.0
C727 C 0.63819 0.34072 0.48834 0.0
C728 C 0.61145 0.34672 0.45816 0.0
H729 H 0.68904 0.32408 0.50489 0.0
H730 H 0.63578 0.34647 0.51804 0.0
S731 S 0.60961 0.32925 0.35374 0.0
N732 N 0.64807 0.31861 0.37469 0.0
N733 N 0.59061 0.34289 0.38903 0.0
C734 C 0.61579 0.33925 0.42009 0.0
C735 C 0.64697 0.32621 0.41238 0.0
loop_
_geom_bond_atom_site_label_1
_geom_bond_atom_site_label_2
_geom_bond_distance
_geom_bond_site_symmetry_2
_ccdc_geom_bond_type
C0 C1 1.386 . S
C0 C2 1.397 . S
C0 H24 0.931 . S
C1 C0 1.386 . S
C1 C5 1.397 . S
C2 C0 1.397 . S
C2 C3 1.384 . S
C2 H25 0.930 . S
C3 C2 1.384 . S
C3 C4 1.377 . S
C3 C6 1.481 . S
C4 C3 1.377 . S
C4 C5 1.389 . S
C4 H26 0.929 . S
C5 C1 1.397 . S
C5 C4 1.389 . S
C5 H27 0.931 . S
C6 C3 1.481 . S
C6 C7 1.387 . S
C6 C11 1.390 . S
C7 C6 1.387 . S
C7 C8 1.401 . S
C7 H28 0.930 . S
C8 C7 1.401 . S
C8 C9 1.376 . S
C8 C17 1.511 . S
C9 C8 1.376 . S
C9 C10 1.392 . S
C9 H30 0.931 . S
C10 C9 1.392 . S
C10 C11 1.361 . S
C10 C12 1.500 . S
C11 C6 1.390 . S
C11 C10 1.361 . S
C11 H29 0.931 . S
C12 C10 1.500 . S
C12 C13 1.371 . S
C12 C14 1.365 . S
C13 C12 1.371 . S
C13 C23 1.386 . S
C13 H31 0.931 . S
C14 C12 1.365 . S
C14 C15 1.409 . S
C14 H32 0.929 . S
C15 C14 1.409 . S
C15 C16 1.380 . S
C15 H33 0.930 . S
C16 C15 1.380 . S
C16 C23 1.357 . S
C17 C8 1.511 . S
C17 C18 1.341 . S
C17 C19 1.371 . S
C18 C17 1.341 . S
C18 C22 1.394 . S
C18 H34 0.930 . S
C19 C17 1.371 . S
C19 C20 1.392 . S
C19 H35 0.931 . S
C20 C19 1.392 . S
C20 C21 1.331 . S
C20 H38 0.932 . S
C21 C20 1.331 . S
C21 C22 1.336 . S
C22 C18 1.394 . S
C22 C21 1.336 . S
C22 H37 0.929 . S
C23 C13 1.386 . S
C23 C16 1.357 . S
C23 H36 0.928 . S
H24 C0 0.931 . S
H25 C2 0.930 . S
H26 C4 0.929 . S
H27 C5 0.931 . S
H28 C7 0.930 . S
H29 C11 0.931 . S
H30 C9 0.931 . S
H31 C13 0.931 . S
H32 C14 0.929 . S
H33 C15 0.930 . S
H34 C18 0.930 . S
H35 C19 0.931 . S
H36 C23 0.928 . S
H37 C22 0.929 . S
H38 C20 0.932 . S
C39 C40 1.386 . S
C39 C41 1.397 . S
C39 H63 0.931 . S
C40 C39 1.386 . S
C40 C44 1.397 . S
C41 C39 1.397 . S
C41 C42 1.384 . S
C41 H64 0.930 . S
C42 C41 1.384 . S
C42 C43 1.377 . S
C42 C45 1.481 . S
C43 C42 1.377 . S
C43 C44 1.389 . S
C43 H65 0.929 . S
C44 C40 1.397 . S
C44 C43 1.389 . S
C44 H66 0.931 . S
C45 C42 1.481 . S
C45 C46 1.387 . S
C45 C50 1.390 . S
C46 C45 1.387 . S
C46 C47 1.401 . S
C46 H67 0.930 . S
C47 C46 1.401 . S
C47 C48 1.376 . S
C47 C56 1.511 . S
C48 C47 1.376 . S
C48 C49 1.392 . S
C48 H69 0.931 . S
C49 C48 1.392 . S
C49 C50 1.361 . S
C49 C51 1.500 . S
C50 C45 1.390 . S
C50 C49 1.361 . S
C50 H68 0.931 . S
C51 C49 1.500 . S
C51 C52 1.371 . S
C51 C53 1.365 . S
C52 C51 1.371 . S
C52 C62 1.386 . S
C52 H70 0.931 . S
C53 C51 1.365 . S
C53 C54 1.409 . S
C53 H71 0.929 . S
C54 C53 1.409 . S
C54 C55 1.380 . S
C54 H72 0.930 . S
C55 C54 1.380 . S
C55 C62 1.357 . S
C56 C47 1.511 . S
C56 C57 1.341 . S
C56 C58 1.371 . S
C57 C56 1.341 . S
C57 C61 1.394 . S
C57 H73 0.930 . S
C58 C56 1.371 . S
C58 C59 1.392 . S
C58 H74 0.931 . S
C59 C58 1.392 . S
C59 C60 1.331 . S
C59 H77 0.932 . S
C60 C59 1.331 . S
C60 C61 1.336 . S
C61 C57 1.394 . S
C61 C60 1.336 . S
C61 H76 0.929 . S
C62 C52 1.386 . S
C62 C55 1.357 . S
C62 H75 0.928 . S
H63 C39 0.931 . S
H64 C41 0.930 . S
H65 C43 0.929 . S
H66 C44 0.931 . S
H67 C46 0.930 . S
H68 C50 0.931 . S
H69 C48 0.931 . S
H70 C52 0.931 . S
H71 C53 0.929 . S
H72 C54 0.930 . S
H73 C57 0.930 . S
H74 C58 0.931 . S
H75 C62 0.928 . S
H76 C61 0.929 . S
H77 C59 0.932 . S
C78 C79 1.386 . S
C78 C80 1.397 . S
C78 H102 0.931 . S
C79 C78 1.386 . S
C79 C83 1.397 . S
C80 C78 1.397 . S
C80 C81 1.384 . S
C80 H103 0.930 . S
C81 C80 1.384 . S
C81 C82 1.377 . S
C81 C84 1.481 . S
C82 C81 1.377 . S
C82 C83 1.389 . S
C82 H104 0.929 . S
C83 C79 1.397 . S
C83 C82 1.389 . S
C83 H105 0.931 . S
C84 C81 1.481 . S
C84 C85 1.387 . S
C84 C89 1.390 . S
C85 C84 1.387 . S
C85 C86 1.401 . S
C85 H106 0.930 . S
C86 C85 1.401 . S
C86 C87 1.376 . S
C86 C95 1.511 . S
C87 C86 1.376 . S
C87 C88 1.392 . S
C87 H108 0.931 . S
C88 C87 1.392 . S
C88 C89 1.361 . S
C88 C90 1.500 . S
C89 C84 1.390 . S
C89 C88 1.361 . S
C89 H107 0.931 . S
C90 C88 1.500 . S
C90 C91 1.371 . S
C90 C92 1.365 . S
C91 C90 1.371 . S
C91 C101 1.386 . S
C91 H109 0.931 . S
C92 C90 1.365 . S
C92 C93 1.409 . S
C92 H110 0.929 . S
C93 C92 1.409 . S
C93 C94 1.380 . S
C93 H111 0.930 . S
C94 C93 1.380 . S
C94 C101 1.357 . S
C95 C86 1.511 . S
C95 C96 1.341 . S
C95 C97 1.371 . S
C96 C95 1.341 . S
C96 C100 1.394 . S
C96 H112 0.930 . S
C97 C95 1.371 . S
C97 C98 1.392 . S
C97 H113 0.931 . S
C98 C97 1.392 . S
C98 C99 1.331 . S
C98 H116 0.932 . S
C99 C98 1.331 . S
C99 C100 1.336 . S
C100 C96 1.394 . S
C100 C99 1.336 . S
C100 H115 0.929 . S
C101 C91 1.386 . S
C101 C94 1.357 . S
C101 H114 0.928 . S
H102 C78 0.931 . S
H103 C80 0.930 . S
H104 C82 0.929 . S
H105 C83 0.931 . S
H106 C85 0.930 . S
H107 C89 0.931 . S
H108 C87 0.931 . S
H109 C91 0.931 . S
H110 C92 0.929 . S
H111 C93 0.930 . S
H112 C96 0.930 . S
H113 C97 0.931 . S
H114 C101 0.928 . S
H115 C100 0.929 . S
H116 C98 0.932 . S
C117 C118 1.386 . S
C117 C119 1.397 . S
C117 H141 0.931 . S
C118 C117 1.386 . S
C118 C122 1.397 . S
C119 C117 1.397 . S
C119 C120 1.384 . S
C119 H142 0.930 . S
C120 C119 1.384 . S
C120 C121 1.377 . S
C120 C123 1.481 . S
C121 C120 1.377 . S
C121 C122 1.389 . S
C121 H143 0.929 . S
C122 C118 1.397 . S
C122 C121 1.389 . S
C122 H144 0.931 . S
C123 C120 1.481 . S
C123 C124 1.387 . S
C123 C128 1.390 . S
C124 C123 1.387 . S
C124 C125 1.401 . S
C124 H145 0.930 . S
C125 C124 1.401 . S
C125 C126 1.376 . S
C125 C134 1.511 . S
C126 C125 1.376 . S
C126 C127 1.392 . S
C126 H147 0.931 . S
C127 C126 1.392 . S
C127 C128 1.361 . S
C127 C129 1.500 . S
C128 C123 1.390 . S
C128 C127 1.361 . S
C128 H146 0.931 . S
C129 C127 1.500 . S
C129 C130 1.371 . S
C129 C131 1.365 . S
C130 C129 1.371 . S
C130 C140 1.386 . S
C130 H148 0.931 . S
C131 C129 1.365 . S
C131 C132 1.409 . S
C131 H149 0.929 . S
C132 C131 1.409 . S
C132 C133 1.380 . S
C132 H150 0.930 . S
C133 C132 1.380 . S
C133 C140 1.357 . S
C134 C125 1.511 . S
C134 C135 1.341 . S
C134 C136 1.371 . S
C135 C134 1.341 . S
C135 C139 1.394 . S
C135 H151 0.930 . S
C136 C134 1.371 . S
C136 C137 1.392 . S
C136 H152 0.931 . S
C137 C136 1.392 . S
C137 C138 1.331 . S
C137 H155 0.932 . S
C138 C137 1.331 . S
C138 C139 1.336 . S
C139 C135 1.394 . S
C139 C138 1.336 . S
C139 H154 0.929 . S
C140 C130 1.386 . S
C140 C133 1.357 . S
C140 H153 0.928 . S
H141 C117 0.931 . S
H142 C119 0.930 . S
H143 C121 0.929 . S
H144 C122 0.931 . S
H145 C124 0.930 . S
H146 C128 0.931 . S
H147 C126 0.931 . S
H148 C130 0.931 . S
H149 C131 0.929 . S
H150 C132 0.930 . S
H151 C135 0.930 . S
H152 C136 0.931 . S
H153 C140 0.928 . S
H154 C139 0.929 . S
H155 C137 0.932 . S
C156 C157 1.386 . S
C156 C158 1.397 . S
C156 H180 0.931 . S
C157 C156 1.386 . S
C157 C161 1.397 . S
C158 C156 1.397 . S
C158 C159 1.384 . S
C158 H181 0.930 . S
C159 C158 1.384 . S
C159 C160 1.377 . S
C159 C162 1.481 . S
C160 C159 1.377 . S
C160 C161 1.389 . S
C160 H182 0.929 . S
C161 C157 1.397 . S
C161 C160 1.389 . S
C161 H183 0.931 . S
C162 C159 1.481 . S
C162 C163 1.387 . S
C162 C167 1.390 . S
C163 C162 1.387 . S
C163 C164 1.401 . S
C163 H184 0.930 . S
C164 C163 1.401 . S
C164 C165 1.376 . S
C164 C173 1.511 . S
C165 C164 1.376 . S
C165 C166 1.392 . S
C165 H186 0.931 . S
C166 C165 1.392 . S
C166 C167 1.361 . S
C166 C168 1.500 . S
C167 C162 1.390 . S
C167 C166 1.361 . S
C167 H185 0.931 . S
C168 C166 1.500 . S
C168 C169 1.371 . S
C168 C170 1.365 . S
C169 C168 1.371 . S
C169 C179 1.386 . S
C169 H187 0.931 . S
C170 C168 1.365 . S
C170 C171 1.409 . S
C170 H188 0.929 . S
C171 C170 1.409 . S
C171 C172 1.380 . S
C171 H189 0.930 . S
C172 C171 1.380 . S
C172 C179 1.357 . S
C173 C164 1.511 . S
C173 C174 1.341 . S
C173 C175 1.371 . S
C174 C173 1.341 . S
C174 C178 1.394 . S
C174 H190 0.930 . S
C175 C173 1.371 . S
C175 C176 1.392 . S
C175 H191 0.931 . S
C176 C175 1.392 . S
C176 C177 1.331 . S
C176 H194 0.932 . S
C177 C176 1.331 . S
C177 C178 1.336 . S
C178 C174 1.394 . S
C178 C177 1.336 . S
C178 H193 0.929 . S
C179 C169 1.386 . S
C179 C172 1.357 . S
C179 H192 0.928 . S
H180 C156 0.931 . S
H181 C158 0.930 . S
H182 C160 0.929 . S
H183 C161 0.931 . S
H184 C163 0.930 . S
H185 C167 0.931 . S
H186 C165 0.931 . S
H187 C169 0.931 . S
H188 C170 0.929 . S
H189 C171 0.930 . S
H190 C174 0.930 . S
H191 C175 0.931 . S
H192 C179 0.928 . S
H193 C178 0.929 . S
H194 C176 0.932 . S
C195 C196 1.386 . S
C195 C197 1.397 . S
C195 H219 0.931 . S
C196 C195 1.386 . S
C196 C200 1.397 . S
C197 C195 1.397 . S
C197 C198 1.384 . S
C197 H220 0.930 . S
C198 C197 1.384 . S
C198 C199 1.377 . S
C198 C201 1.481 . S
C199 C198 1.377 . S
C199 C200 1.389 . S
C199 H221 0.929 . S
C200 C196 1.397 . S
C200 C199 1.389 . S
C200 H222 0.931 . S
C201 C198 1.481 . S
C201 C202 1.387 . S
C201 C206 1.390 . S
C202 C201 1.387 . S
C202 C203 1.401 . S
C202 H223 0.930 . S
C203 C202 1.401 . S
C203 C204 1.376 . S
C203 C212 1.511 . S
C204 C203 1.376 . S
C204 C205 1.392 . S
C204 H225 0.931 . S
C205 C204 1.392 . S
C205 C206 1.361 . S
C205 C207 1.500 . S
C206 C201 1.390 . S
C206 C205 1.361 . S
C206 H224 0.931 . S
C207 C205 1.500 . S
C207 C208 1.371 . S
C207 C209 1.365 . S
C208 C207 1.371 . S
C208 C218 1.386 . S
C208 H226 0.931 . S
C209 C207 1.365 . S
C209 C210 1.409 . S
C209 H227 0.929 . S
C210 C209 1.409 . S
C210 C211 1.380 . S
C210 H228 0.930 . S
C211 C210 1.380 . S
C211 C218 1.357 . S
C212 C203 1.511 . S
C212 C213 1.341 . S
C212 C214 1.371 . S
C213 C212 1.341 . S
C213 C217 1.394 . S
C213 H229 0.930 . S
C214 C212 1.371 . S
C214 C215 1.392 . S
C214 H230 0.931 . S
C215 C214 1.392 . S
C215 C216 1.331 . S
C215 H233 0.932 . S
C216 C215 1.331 . S
C216 C217 1.336 . S
C217 C213 1.394 . S
C217 C216 1.336 . S
C217 H232 0.929 . S
C218 C208 1.386 . S
C218 C211 1.357 . S
C218 H231 0.928 . S
H219 C195 0.931 . S
H220 C197 0.930 . S
H221 C199 0.929 . S
H222 C200 0.931 . S
H223 C202 0.930 . S
H224 C206 0.931 . S
H225 C204 0.931 . S
H226 C208 0.931 . S
H227 C209 0.929 . S
H228 C210 0.930 . S
H229 C213 0.930 . S
H230 C214 0.931 . S
H231 C218 0.928 . S
H232 C217 0.929 . S
H233 C215 0.932 . S
C234 C235 1.386 . S
C234 C236 1.397 . S
C234 H258 0.931 . S
C235 C234 1.386 . S
C235 C239 1.397 . S
C236 C234 1.397 . S
C236 C237 1.384 . S
C236 H259 0.930 . S
C237 C236 1.384 . S
C237 C238 1.377 . S
C237 C240 1.481 . S
C238 C237 1.377 . S
C238 C239 1.389 . S
C238 H260 0.929 . S
C239 C235 1.397 . S
C239 C238 1.389 . S
C239 H261 0.931 . S
C240 C237 1.481 . S
C240 C241 1.387 . S
C240 C245 1.390 . S
C241 C240 1.387 . S
C241 C242 1.401 . S
C241 H262 0.930 . S
C242 C241 1.401 . S
C242 C243 1.376 . S
C242 C251 1.511 . S
C243 C242 1.376 . S
C243 C244 1.392 . S
C243 H264 0.931 . S
C244 C243 1.392 . S
C244 C245 1.361 . S
C244 C246 1.500 . S
C245 C240 1.390 . S
C245 C244 1.361 . S
C245 H263 0.931 . S
C246 C244 1.500 . S
C246 C247 1.371 . S
C246 C248 1.365 . S
C247 C246 1.371 . S
C247 C257 1.386 . S
C247 H265 0.931 . S
C248 C246 1.365 . S
C248 C249 1.409 . S
C248 H266 0.929 . S
C249 C248 1.409 . S
C249 C250 1.380 . S
C249 H267 0.930 . S
C250 C249 1.380 . S
C250 C257 1.357 . S
C251 C242 1.511 . S
C251 C252 1.341 . S
C251 C253 1.371 . S
C252 C251 1.341 . S
C252 C256 1.394 . S
C252 H268 0.930 . S
C253 C251 1.371 . S
C253 C254 1.392 . S
C253 H269 0.931 . S
C254 C253 1.392 . S
C254 C255 1.331 . S
C254 H272 0.932 . S
C255 C254 1.331 . S
C255 C256 1.336 . S
C256 C252 1.394 . S
C256 C255 1.336 . S
C256 H271 0.929 . S
C257 C247 1.386 . S
C257 C250 1.357 . S
C257 H270 0.928 . S
H258 C234 0.931 . S
H259 C236 0.930 . S
H260 C238 0.929 . S
H261 C239 0.931 . S
H262 C241 0.930 . S
H263 C245 0.931 . S
H264 C243 0.931 . S
H265 C247 0.931 . S
H266 C248 0.929 . S
H267 C249 0.930 . S
H268 C252 0.930 . S
H269 C253 0.931 . S
H270 C257 0.928 . S
H271 C256 0.929 . S
H272 C254 0.932 . S
C273 C274 1.386 . S
C273 C275 1.397 . S
C273 H297 0.931 . S
C274 C273 1.386 . S
C274 C278 1.397 . S
C275 C273 1.397 . S
C275 C276 1.384 . S
C275 H298 0.930 . S
C276 C275 1.384 . S
C276 C277 1.377 . S
C276 C279 1.481 . S
C277 C276 1.377 . S
C277 C278 1.389 . S
C277 H299 0.929 . S
C278 C274 1.397 . S
C278 C277 1.389 . S
C278 H300 0.931 . S
C279 C276 1.481 . S
C279 C280 1.387 . S
C279 C284 1.390 . S
C280 C279 1.387 . S
C280 C281 1.401 . S
C280 H301 0.930 . S
C281 C280 1.401 . S
C281 C282 1.376 . S
C281 C290 1.511 . S
C282 C281 1.376 . S
C282 C283 1.392 . S
C282 H303 0.931 . S
C283 C282 1.392 . S
C283 C284 1.361 . S
C283 C285 1.500 . S
C284 C279 1.390 . S
C284 C283 1.361 . S
C284 H302 0.931 . S
C285 C283 1.500 . S
C285 C286 1.371 . S
C285 C287 1.365 . S
C286 C285 1.371 . S
C286 C296 1.386 . S
C286 H304 0.931 . S
C287 C285 1.365 . S
C287 C288 1.409 . S
C287 H305 0.929 . S
C288 C287 1.409 . S
C288 C289 1.380 . S
C288 H306 0.930 . S
C289 C288 1.380 . S
C289 C296 1.357 . S
C290 C281 1.511 . S
C290 C291 1.341 . S
C290 C292 1.371 . S
C291 C290 1.341 . S
C291 C295 1.394 . S
C291 H307 0.930 . S
C292 C290 1.371 . S
C292 C293 1.392 . S
C292 H308 0.931 . S
C293 C292 1.392 . S
C293 C294 1.331 . S
C293 H311 0.932 . S
C294 C293 1.331 . S
C294 C295 1.336 . S
C295 C291 1.394 . S
C295 C294 1.336 . S
C295 H310 0.929 . S
C296 C286 1.386 . S
C296 C289 1.357 . S
C296 H309 0.928 . S
H297 C273 0.931 . S
H298 C275 0.930 . S
H299 C277 0.929 . S
H300 C278 0.931 . S
H301 C280 0.930 . S
H302 C284 0.931 . S
H303 C282 0.931 . S
H304 C286 0.931 . S
H305 C287 0.929 . S
H306 C288 0.930 . S
H307 C291 0.930 . S
H308 C292 0.931 . S
H309 C296 0.928 . S
H310 C295 0.929 . S
H311 C293 0.932 . S
Pr312 C314 2.880 . S
Pr312 O332 2.562 . S
Pr312 O333 2.490 . S
Pr312 O334 2.695 1_665 S
Pr312 O335 2.512 1_665 S
Pr312 O337 2.437 1_655 S
Pr312 O340 2.436 . S
Pr312 O342 2.438 1_565 S
Pr313 C323 2.880 . S
Pr313 O334 2.436 . S
Pr313 O336 2.438 1_545 S
Pr313 O338 2.562 . S
Pr313 O339 2.490 . S
Pr313 O340 2.695 1_445 S
Pr313 O341 2.512 1_545 S
Pr313 O343 2.437 1_455 S
C314 Pr312 2.880 . S
C314 C315 1.491 . S
C314 O332 1.254 . S
C314 O333 1.225 . S
C315 C314 1.491 . S
C315 C316 1.392 . S
C315 C320 1.356 . S
C316 C315 1.392 . S
C316 C317 1.368 . S
C316 H344 0.929 . S
C317 C316 1.368 . S
C317 C318 1.386 . S
C317 H345 0.929 . S
C318 C317 1.386 . S
C318 C319 1.373 . S
C319 C318 1.373 . S
C319 C320 1.409 . S
C319 H346 0.931 . S
C320 C315 1.356 . S
C320 C319 1.409 . S
C320 H347 0.930 . S
C321 O334 1.270 . S
C321 O335 1.248 . S
C322 O336 1.267 . S
C322 O337 1.278 . S
C323 Pr313 2.880 . S
C323 C324 1.491 . S
C323 O338 1.254 . S
C323 O339 1.225 . S
C324 C323 1.491 . S
C324 C325 1.392 . S
C324 C329 1.356 . S
C325 C324 1.392 . S
C325 C326 1.368 . S
C325 H348 0.929 . S
C326 C325 1.368 . S
C326 C327 1.386 . S
C326 H349 0.929 . S
C327 C326 1.386 . S
C327 C328 1.373 . S
C328 C327 1.373 . S
C328 C329 1.409 . S
C328 H350 0.931 . S
C329 C324 1.356 . S
C329 C328 1.409 . S
C329 H351 0.930 . S
C330 O340 1.270 . S
C330 O341 1.248 1_655 S
C331 O342 1.267 . S
C331 O343 1.278 . S
O332 Pr312 2.562 . S
O332 C314 1.254 . S
O333 Pr312 2.490 . S
O333 C314 1.225 . S
O334 Pr312 2.695 1_445 S
O334 Pr313 2.436 . S
O334 C321 1.270 . S
O335 Pr312 2.512 1_445 S
O335 C321 1.248 . S
O336 Pr313 2.438 1_565 S
O336 C322 1.267 . S
O337 Pr312 2.437 1_455 S
O337 C322 1.278 . S
O338 Pr313 2.562 . S
O338 C323 1.254 . S
O339 Pr313 2.490 . S
O339 C323 1.225 . S
O340 Pr312 2.436 . S
O340 Pr313 2.695 1_665 S
O340 C330 1.270 . S
O341 Pr313 2.512 1_565 S
O341 C330 1.248 1_455 S
O342 Pr312 2.438 1_545 S
O342 C331 1.267 . S
O343 Pr313 2.437 1_655 S
O343 C331 1.278 . S
H344 C316 0.929 . S
H345 C317 0.929 . S
H346 C319 0.931 . S
H347 C320 0.930 . S
H348 C325 0.929 . S
H349 C326 0.929 . S
H350 C328 0.931 . S
H351 C329 0.930 . S
Pr352 C354 2.880 . S
Pr352 O372 2.562 . S
Pr352 O373 2.490 . S
Pr352 O374 2.695 1_554 S
Pr352 O375 2.512 1_554 S
Pr352 O377 2.437 . S
Pr352 O380 2.436 1_545 S
Pr352 O382 2.438 1_544 S
Pr353 C363 2.856 1_554 S
Pr353 O374 2.423 1_564 S
Pr353 O376 2.461 1_565 S
Pr353 O378 2.531 1_554 S
Pr353 O379 2.478 1_554 S
Pr353 O380 2.717 . S
Pr353 O381 2.536 . S
Pr353 O383 2.425 1_554 S
C354 Pr352 2.880 . S
C354 C355 1.491 . S
C354 O372 1.254 . S
C354 O373 1.225 . S
C355 C354 1.491 . S
C355 C356 1.392 . S
C355 C360 1.356 . S
C356 C355 1.392 . S
C356 C357 1.368 . S
C356 H384 0.929 . S
C357 C356 1.368 . S
C357 C358 1.386 . S
C357 H385 0.929 . S
C358 C357 1.386 . S
C358 C359 1.373 . S
C359 C358 1.373 . S
C359 C360 1.409 . S
C359 H386 0.931 . S
C360 C355 1.356 . S
C360 C359 1.409 . S
C360 H387 0.930 . S
C361 O374 1.270 . S
C361 O375 1.248 . S
C362 O376 1.267 . S
C362 O377 1.278 . S
C363 Pr353 2.856 1_556 S
C363 C364 1.491 . S
C363 O378 1.254 . S
C363 O379 1.225 . S
C364 C363 1.491 . S
C364 C365 1.392 . S
C364 C369 1.356 . S
C365 C364 1.392 . S
C365 C366 1.368 . S
C365 H388 0.929 . S
C366 C365 1.368 . S
C366 C367 1.386 . S
C366 H389 0.929 . S
C367 C366 1.386 . S
C367 C368 1.373 . S
C368 C367 1.373 . S
C368 C369 1.409 . S
C368 H390 0.931 . S
C369 C364 1.356 . S
C369 C368 1.409 . S
C369 H391 0.930 . S
C370 O380 1.270 . S
C370 O381 1.248 . S
C371 O382 1.267 . S
C371 O383 1.278 . S
O372 Pr352 2.562 . S
O372 C354 1.254 . S
O373 Pr352 2.490 . S
O373 C354 1.225 . S
O374 Pr352 2.695 1_556 S
O374 Pr353 2.423 1_546 S
O374 C361 1.270 . S
O375 Pr352 2.512 1_556 S
O375 C361 1.248 . S
O376 Pr353 2.461 1_545 S
O376 C362 1.267 . S
O377 Pr352 2.437 . S
O377 C362 1.278 . S
O378 Pr353 2.531 1_556 S
O378 C363 1.254 . S
O379 Pr353 2.478 1_556 S
O379 C363 1.225 . S
O380 Pr352 2.436 1_565 S
O380 Pr353 2.717 . S
O380 C370 1.270 . S
O381 Pr353 2.536 . S
O381 C370 1.248 . S
O382 Pr352 2.438 1_566 S
O382 C371 1.267 . S
O383 Pr353 2.425 1_556 S
O383 C371 1.278 . S
H384 C356 0.929 . S
H385 C357 0.929 . S
H386 C359 0.931 . S
H387 C360 0.930 . S
H388 C365 0.929 . S
H389 C366 0.929 . S
H390 C368 0.931 . S
H391 C369 0.930 . S
Pr392 C394 2.880 . S
Pr392 O412 2.562 . S
Pr392 O413 2.490 . S
Pr392 O414 2.695 . S
Pr392 O415 2.512 . S
Pr392 O417 2.437 . S
Pr392 O420 2.436 . S
Pr392 O422 2.438 . S
Pr393 C403 2.880 . S
Pr393 O414 2.436 . S
Pr393 O416 2.438 . S
Pr393 O418 2.562 . S
Pr393 O419 2.490 . S
Pr393 O420 2.695 . S
Pr393 O421 2.512 . S
Pr393 O423 2.437 . S
C394 Pr392 2.880 . S
C394 C395 1.491 . S
C394 O412 1.254 . S
C394 O413 1.225 . S
C395 C394 1.491 . S
C395 C396 1.392 . S
C395 C400 1.356 . S
C396 C395 1.392 . S
C396 C397 1.368 . S
C396 H424 0.929 . S
C397 C396 1.368 . S
C397 C398 1.386 . S
C397 H425 0.929 . S
C398 C397 1.386 . S
C398 C399 1.373 . S
C399 C398 1.373 . S
C399 C400 1.409 . S
C399 H426 0.931 . S
C400 C395 1.356 . S
C400 C399 1.409 . S
C400 H427 0.930 . S
C401 O414 1.270 . S
C401 O415 1.248 . S
C402 O416 1.267 . S
C402 O417 1.278 . S
C403 Pr393 2.880 . S
C403 C404 1.491 . S
C403 O418 1.254 . S
C403 O419 1.225 . S
C404 C403 1.491 . S
C404 C405 1.392 . S
C404 C409 1.356 . S
C405 C404 1.392 . S
C405 C406 1.368 . S
C405 H428 0.929 . S
C406 C405 1.368 . S
C406 C407 1.386 . S
C406 H429 0.929 . S
C407 C406 1.386 . S
C407 C408 1.373 . S
C408 C407 1.373 . S
C408 C409 1.409 . S
C408 H430 0.931 . S
C409 C404 1.356 . S
C409 C408 1.409 . S
C409 H431 0.930 . S
C410 O420 1.270 . S
C410 O421 1.248 . S
C411 O422 1.267 . S
C411 O423 1.278 . S
O412 Pr392 2.562 . S
O412 C394 1.254 . S
O413 Pr392 2.490 . S
O413 C394 1.225 . S
O414 Pr392 2.695 . S
O414 Pr393 2.436 . S
O414 C401 1.270 . S
O415 Pr392 2.512 . S
O415 C401 1.248 . S
O416 Pr393 2.438 . S
O416 C402 1.267 . S
O417 Pr392 2.437 . S
O417 C402 1.278 . S
O418 Pr393 2.562 . S
O418 C403 1.254 . S
O419 Pr393 2.490 . S
O419 C403 1.225 . S
O420 Pr392 2.436 . S
O420 Pr393 2.695 . S
O420 C410 1.270 . S
O421 Pr393 2.512 . S
O421 C410 1.248 . S
O422 Pr392 2.438 . S
O422 C411 1.267 . S
O423 Pr393 2.437 . S
O423 C411 1.278 . S
H424 C396 0.929 . S
H425 C397 0.929 . S
H426 C399 0.931 . S
H427 C400 0.930 . S
H428 C405 0.929 . S
H429 C406 0.929 . S
H430 C408 0.931 . S
H431 C409 0.930 . S
Pr432 C434 2.880 . S
Pr432 O452 2.562 . S
Pr432 O453 2.490 . S
Pr432 O454 2.695 1_656 S
Pr432 O455 2.512 1_656 S
Pr432 O457 2.437 1_556 S
Pr432 O460 2.436 . S
Pr432 O462 2.438 1_655 S
Pr433 C443 2.880 . S
Pr433 O454 2.436 . S
Pr433 O456 2.438 1_455 S
Pr433 O458 2.562 . S
Pr433 O459 2.490 . S
Pr433 O460 2.695 1_454 S
Pr433 O461 2.512 1_454 S
Pr433 O463 2.437 1_554 S
C434 Pr432 2.880 . S
C434 C435 1.491 . S
C434 O452 1.254 . S
C434 O453 1.225 . S
C435 C434 1.491 . S
C435 C436 1.392 . S
C435 C440 1.356 . S
C436 C435 1.392 . S
C436 C437 1.368 . S
C436 H464 0.929 . S
C437 C436 1.368 . S
C437 C438 1.386 . S
C437 H465 0.929 . S
C438 C437 1.386 . S
C438 C439 1.373 . S
C439 C438 1.373 . S
C439 C440 1.409 . S
C439 H466 0.931 . S
C440 C435 1.356 . S
C440 C439 1.409 . S
C440 H467 0.930 . S
C441 O454 1.270 . S
C441 O455 1.248 . S
C442 O456 1.267 . S
C442 O457 1.278 . S
C443 Pr433 2.880 . S
C443 C444 1.491 . S
C443 O458 1.254 . S
C443 O459 1.225 . S
C444 C443 1.491 . S
C444 C445 1.392 . S
C444 C449 1.356 . S
C445 C444 1.392 . S
C445 C446 1.368 . S
C445 H468 0.929 . S
C446 C445 1.368 . S
C446 C447 1.386 . S
C446 H469 0.929 . S
C447 C446 1.386 . S
C447 C448 1.373 . S
C448 C447 1.373 . S
C448 C449 1.409 . S
C448 H470 0.931 . S
C449 C444 1.356 . S
C449 C448 1.409 . S
C449 H471 0.930 . S
C450 O460 1.270 . S
C450 O461 1.248 . S
C451 O462 1.267 . S
C451 O463 1.278 . S
O452 Pr432 2.562 . S
O452 C434 1.254 . S
O453 Pr432 2.490 . S
O453 C434 1.225 . S
O454 Pr432 2.695 1_454 S
O454 Pr433 2.436 . S
O454 C441 1.270 . S
O455 Pr432 2.512 1_454 S
O455 C441 1.248 . S
O456 Pr433 2.438 1_655 S
O456 C442 1.267 . S
O457 Pr432 2.437 1_554 S
O457 C442 1.278 . S
O458 Pr433 2.562 . S
O458 C443 1.254 . S
O459 Pr433 2.490 . S
O459 C443 1.225 . S
O460 Pr432 2.436 . S
O460 Pr433 2.695 1_656 S
O460 C450 1.270 . S
O461 Pr433 2.512 1_656 S
O461 C450 1.248 . S
O462 Pr432 2.438 1_455 S
O462 C451 1.267 . S
O463 Pr433 2.437 1_556 S
O463 C451 1.278 . S
H464 C436 0.929 . S
H465 C437 0.929 . S
H466 C439 0.931 . S
H467 C440 0.930 . S
H468 C445 0.929 . S
H469 C446 0.929 . S
H470 C448 0.931 . S
H471 C449 0.930 . S
C472 C473 1.369 . S
C472 C474 1.419 . S
C472 H476 0.930 . S
C473 C472 1.369 . S
C473 C482 1.429 . S
C474 C472 1.419 . S
C474 C475 1.363 . S
C474 H477 0.929 . S
C475 C474 1.363 . S
C475 C481 1.428 . S
H476 C472 0.930 . S
H477 C474 0.929 . S
S478 N479 1.613 . S
S478 N480 1.610 . S
N479 S478 1.613 . S
N479 C482 1.350 . S
N480 S478 1.610 . S
N480 C481 1.351 . S
C481 C475 1.428 . S
C481 N480 1.351 . S
C481 C482 1.434 . S
C482 C473 1.429 . S
C482 N479 1.350 . S
C482 C481 1.434 . S
C483 C484 1.369 . S
C483 C485 1.419 . S
C483 H487 0.930 . S
C484 C483 1.369 . S
C484 C493 1.429 . S
C485 C483 1.419 . S
C485 C486 1.363 . S
C485 H488 0.929 . S
C486 C485 1.363 . S
C486 C492 1.428 . S
H487 C483 0.930 . S
H488 C485 0.929 . S
S489 N490 1.613 . S
S489 N491 1.610 . S
N490 S489 1.613 . S
N490 C493 1.350 . S
N491 S489 1.610 . S
N491 C492 1.351 . S
C492 C486 1.428 . S
C492 N491 1.351 . S
C492 C493 1.434 . S
C493 C484 1.429 . S
C493 N490 1.350 . S
C493 C492 1.434 . S
C494 C495 1.369 . S
C494 C496 1.419 . S
C494 H498 0.930 . S
C495 C494 1.369 . S
C495 C504 1.429 . S
C496 C494 1.419 . S
C496 C497 1.363 . S
C496 H499 0.929 . S
C497 C496 1.363 . S
C497 C503 1.428 . S
H498 C494 0.930 . S
H499 C496 0.929 . S
S500 N501 1.613 . S
S500 N502 1.610 . S
N501 S500 1.613 . S
N501 C504 1.350 . S
N502 S500 1.610 . S
N502 C503 1.351 . S
C503 C497 1.428 . S
C503 N502 1.351 . S
C503 C504 1.434 . S
C504 C495 1.429 . S
C504 N501 1.350 . S
C504 C503 1.434 . S
C505 C506 1.369 . S
C505 C507 1.419 . S
C505 H509 0.930 . S
C506 C505 1.369 . S
C506 C515 1.429 . S
C507 C505 1.419 . S
C507 C508 1.363 . S
C507 H510 0.929 . S
C508 C507 1.363 . S
C508 C514 1.428 . S
H509 C505 0.930 . S
H510 C507 0.929 . S
S511 N512 1.613 . S
S511 N513 1.610 . S
N512 S511 1.613 . S
N512 C515 1.350 . S
N513 S511 1.610 . S
N513 C514 1.351 . S
C514 C508 1.428 . S
C514 N513 1.351 . S
C514 C515 1.434 . S
C515 C506 1.429 . S
C515 N512 1.350 . S
C515 C514 1.434 . S
C516 C517 1.369 . S
C516 C518 1.419 . S
C516 H520 0.930 . S
C517 C516 1.369 . S
C517 C526 1.429 . S
C518 C516 1.419 . S
C518 C519 1.363 . S
C518 H521 0.929 . S
C519 C518 1.363 . S
C519 C525 1.428 . S
H520 C516 0.930 . S
H521 C518 0.929 . S
S522 N523 1.613 . S
S522 N524 1.610 . S
N523 S522 1.613 . S
N523 C526 1.350 . S
N524 S522 1.610 . S
N524 C525 1.351 . S
C525 C519 1.428 . S
C525 N524 1.351 . S
C525 C526 1.434 . S
C526 C517 1.429 . S
C526 N523 1.350 . S
C526 C525 1.434 . S
C527 C528 1.369 . S
C527 C529 1.419 . S
C527 H531 0.930 . S
C528 C527 1.369 . S
C528 C537 1.429 . S
C529 C527 1.419 . S
C529 C530 1.363 . S
C529 H532 0.929 . S
C530 C529 1.363 . S
C530 C536 1.428 . S
H531 C527 0.930 . S
H532 C529 0.929 . S
S533 N534 1.613 . S
S533 N535 1.610 . S
N534 S533 1.613 . S
N534 C537 1.350 . S
N535 S533 1.610 . S
N535 C536 1.351 . S
C536 C530 1.428 . S
C536 N535 1.351 . S
C536 C537 1.434 . S
C537 C528 1.429 . S
C537 N534 1.350 . S
C537 C536 1.434 . S
C538 C539 1.369 . S
C538 C540 1.419 . S
C538 H542 0.930 . S
C539 C538 1.369 . S
C539 C548 1.429 . S
C540 C538 1.419 . S
C540 C541 1.363 . S
C540 H543 0.929 . S
C541 C540 1.363 . S
C541 C547 1.428 . S
H542 C538 0.930 . S
H543 C540 0.929 . S
S544 N545 1.613 . S
S544 N546 1.610 . S
N545 S544 1.613 . S
N545 C548 1.350 . S
N546 S544 1.610 . S
N546 C547 1.351 . S
C547 C541 1.428 . S
C547 N546 1.351 . S
C547 C548 1.434 . S
C548 C539 1.429 . S
C548 N545 1.350 . S
C548 C547 1.434 . S
C549 C550 1.369 . S
C549 C551 1.419 . S
C549 H553 0.930 . S
C550 C549 1.369 . S
C550 C559 1.429 . S
C551 C549 1.419 . S
C551 C552 1.363 . S
C551 H554 0.929 . S
C552 C551 1.363 . S
C552 C558 1.428 . S
H553 C549 0.930 . S
H554 C551 0.929 . S
S555 N556 1.613 . S
S555 N557 1.610 . S
N556 S555 1.613 . S
N556 C559 1.350 . S
N557 S555 1.610 . S
N557 C558 1.351 . S
C558 C552 1.428 . S
C558 N557 1.351 . S
C558 C559 1.434 . S
C559 C550 1.429 . S
C559 N556 1.350 . S
C559 C558 1.434 . S
C560 C561 1.369 . S
C560 C562 1.419 . S
C560 H564 0.930 . S
C561 C560 1.369 . S
C561 C570 1.429 . S
C562 C560 1.419 . S
C562 C563 1.363 . S
C562 H565 0.929 . S
C563 C562 1.363 . S
C563 C569 1.428 . S
H564 C560 0.930 . S
H565 C562 0.929 . S
S566 N567 1.613 . S
S566 N568 1.610 . S
N567 S566 1.613 . S
N567 C570 1.350 . S
N568 S566 1.610 . S
N568 C569 1.351 . S
C569 C563 1.428 . S
C569 N568 1.351 . S
C569 C570 1.434 . S
C570 C561 1.429 . S
C570 N567 1.350 . S
C570 C569 1.434 . S
C571 C572 1.369 . S
C571 C573 1.419 . S
C571 H575 0.930 . S
C572 C571 1.369 . S
C572 C581 1.429 . S
C573 C571 1.419 . S
C573 C574 1.363 . S
C573 H576 0.929 . S
C574 C573 1.363 . S
C574 C580 1.428 . S
H575 C571 0.930 . S
H576 C573 0.929 . S
S577 N578 1.613 . S
S577 N579 1.610 . S
N578 S577 1.613 . S
N578 C581 1.350 . S
N579 S577 1.610 . S
N579 C580 1.351 . S
C580 C574 1.428 . S
C580 N579 1.351 . S
C580 C581 1.434 . S
C581 C572 1.429 . S
C581 N578 1.350 . S
C581 C580 1.434 . S
C582 C583 1.369 . S
C582 C584 1.419 . S
C582 H586 0.930 . S
C583 C582 1.369 . S
C583 C592 1.429 . S
C584 C582 1.419 . S
C584 C585 1.363 . S
C584 H587 0.929 . S
C585 C584 1.363 . S
C585 C591 1.428 . S
H586 C582 0.930 . S
H587 C584 0.929 . S
S588 N589 1.613 . S
S588 N590 1.610 . S
N589 S588 1.613 . S
N589 C592 1.350 . S
N590 S588 1.610 . S
N590 C591 1.351 . S
C591 C585 1.428 . S
C591 N590 1.351 . S
C591 C592 1.434 . S
C592 C583 1.429 . S
C592 N589 1.350 . S
C592 C591 1.434 . S
C593 C594 1.369 . S
C593 C595 1.419 . S
C593 H597 0.930 . S
C594 C593 1.369 . S
C594 C603 1.429 . S
C595 C593 1.419 . S
C595 C596 1.363 . S
C595 H598 0.929 . S
C596 C595 1.363 . S
C596 C602 1.428 . S
H597 C593 0.930 . S
H598 C595 0.929 . S
S599 N600 1.613 . S
S599 N601 1.610 . S
N600 S599 1.613 . S
N600 C603 1.350 . S
N601 S599 1.610 . S
N601 C602 1.351 . S
C602 C596 1.428 . S
C602 N601 1.351 . S
C602 C603 1.434 . S
C603 C594 1.429 . S
C603 N600 1.350 . S
C603 C602 1.434 . S
C604 C605 1.369 . S
C604 C606 1.419 . S
C604 H608 0.930 . S
C605 C604 1.369 . S
C605 C614 1.429 . S
C606 C604 1.419 . S
C606 C607 1.363 . S
C606 H609 0.929 . S
C607 C606 1.363 . S
C607 C613 1.428 . S
H608 C604 0.930 . S
H609 C606 0.929 . S
S610 N611 1.613 . S
S610 N612 1.610 . S
N611 S610 1.613 . S
N611 C614 1.350 . S
N612 S610 1.610 . S
N612 C613 1.351 . S
C613 C607 1.428 . S
C613 N612 1.351 . S
C613 C614 1.434 . S
C614 C605 1.429 . S
C614 N611 1.350 . S
C614 C613 1.434 . S
C615 C616 1.369 . S
C615 C617 1.419 . S
C615 H619 0.930 . S
C616 C615 1.369 . S
C616 C625 1.429 . S
C617 C615 1.419 . S
C617 C618 1.363 . S
C617 H620 0.929 . S
C618 C617 1.363 . S
C618 C624 1.428 . S
H619 C615 0.930 . S
H620 C617 0.929 . S
S621 N622 1.613 . S
S621 N623 1.610 . S
N622 S621 1.613 . S
N622 C625 1.350 . S
N623 S621 1.610 . S
N623 C624 1.351 . S
C624 C618 1.428 . S
C624 N623 1.351 . S
C624 C625 1.434 . S
C625 C616 1.429 . S
C625 N622 1.350 . S
C625 C624 1.434 . S
C626 C627 1.369 . S
C626 C628 1.419 . S
C626 H630 0.930 . S
C627 C626 1.369 . S
C627 C636 1.429 . S
C628 C626 1.419 . S
C628 C629 1.363 . S
C628 H631 0.929 . S
C629 C628 1.363 . S
C629 C635 1.428 . S
H630 C626 0.930 . S
H631 C628 0.929 . S
S632 N633 1.613 . S
S632 N634 1.610 . S
N633 S632 1.613 . S
N633 C636 1.350 . S
N634 S632 1.610 . S
N634 C635 1.351 . S
C635 C629 1.428 . S
C635 N634 1.351 . S
C635 C636 1.434 . S
C636 C627 1.429 . S
C636 N633 1.350 . S
C636 C635 1.434 . S
C637 C638 1.369 . S
C637 C639 1.419 . S
C637 H641 0.930 . S
C638 C637 1.369 . S
C638 C647 1.429 . S
C639 C637 1.419 . S
C639 C640 1.363 . S
C639 H642 0.929 . S
C640 C639 1.363 . S
C640 C646 1.428 . S
H641 C637 0.930 . S
H642 C639 0.929 . S
S643 N644 1.613 . S
S643 N645 1.610 . S
N644 S643 1.613 . S
N644 C647 1.350 . S
N645 S643 1.610 . S
N645 C646 1.351 . S
C646 C640 1.428 . S
C646 N645 1.351 . S
C646 C647 1.434 . S
C647 C638 1.429 . S
C647 N644 1.350 . S
C647 C646 1.434 . S
C648 C649 1.369 . S
C648 C650 1.419 . S
C648 H652 0.930 . S
C649 C648 1.369 . S
C649 C658 1.429 . S
C650 C648 1.419 . S
C650 C651 1.363 . S
C650 H653 0.929 . S
C651 C650 1.363 . S
C651 C657 1.428 . S
H652 C648 0.930 . S
H653 C650 0.929 . S
S654 N655 1.613 . S
S654 N656 1.610 . S
N655 S654 1.613 . S
N655 C658 1.350 . S
N656 S654 1.610 . S
N656 C657 1.351 . S
C657 C651 1.428 . S
C657 N656 1.351 . S
C657 C658 1.434 . S
C658 C649 1.429 . S
C658 N655 1.350 . S
C658 C657 1.434 . S
C659 C660 1.369 . S
C659 C661 1.419 . S
C659 H663 0.930 . S
C660 C659 1.369 . S
C660 C669 1.429 . S
C661 C659 1.419 . S
C661 C662 1.363 . S
C661 H664 0.929 . S
C662 C661 1.363 . S
C662 C668 1.428 . S
H663 C659 0.930 . S
H664 C661 0.929 . S
S665 N666 1.613 . S
S665 N667 1.610 . S
N666 S665 1.613 . S
N666 C669 1.350 1_455 S
N667 S665 1.610 . S
N667 C668 1.351 1_455 S
C668 C662 1.428 . S
C668 N667 1.351 1_655 S
C668 C669 1.434 . S
C669 C660 1.429 . S
C669 N666 1.350 1_655 S
C669 C668 1.434 . S
C670 C671 1.369 . S
C670 C672 1.419 . S
C670 H674 0.930 . S
C671 C670 1.369 . S
C671 C680 1.429 . S
C672 C670 1.419 . S
C672 C673 1.363 . S
C672 H675 0.929 . S
C673 C672 1.363 . S
C673 C679 1.428 . S
H674 C670 0.930 . S
H675 C672 0.929 . S
S676 N677 1.613 . S
S676 N678 1.610 . S
N677 S676 1.613 . S
N677 C680 1.350 . S
N678 S676 1.610 . S
N678 C679 1.351 . S
C679 C673 1.428 . S
C679 N678 1.351 . S
C679 C680 1.434 . S
C680 C671 1.429 . S
C680 N677 1.350 . S
C680 C679 1.434 . S
C681 C682 1.369 . S
C681 C683 1.419 . S
C681 H685 0.930 . S
C682 C681 1.369 . S
C682 C691 1.429 . S
C683 C681 1.419 . S
C683 C684 1.363 . S
C683 H686 0.929 . S
C684 C683 1.363 . S
C684 C690 1.428 . S
H685 C681 0.930 . S
H686 C683 0.929 . S
S687 N688 1.613 . S
S687 N689 1.610 . S
N688 S687 1.613 . S
N688 C691 1.350 . S
N689 S687 1.610 . S
N689 C690 1.351 . S
C690 C684 1.428 . S
C690 N689 1.351 . S
C690 C691 1.434 . S
C691 C682 1.429 . S
C691 N688 1.350 . S
C691 C690 1.434 . S
C692 C693 1.369 . S
C692 C694 1.419 . S
C692 H696 0.930 . S
C693 C692 1.369 . S
C693 C702 1.429 . S
C694 C692 1.419 . S
C694 C695 1.363 . S
C694 H697 0.929 . S
C695 C694 1.363 . S
C695 C701 1.428 . S
H696 C692 0.930 . S
H697 C694 0.929 . S
S698 N699 1.613 . S
S698 N700 1.610 . S
N699 S698 1.613 . S
N699 C702 1.350 . S
N700 S698 1.610 . S
N700 C701 1.351 . S
C701 C695 1.428 . S
C701 N700 1.351 . S
C701 C702 1.434 . S
C702 C693 1.429 . S
C702 N699 1.350 . S
C702 C701 1.434 . S
C703 C704 1.369 . S
C703 C705 1.419 . S
C703 H707 0.930 . S
C704 C703 1.369 . S
C704 C713 1.429 . S
C705 C703 1.419 . S
C705 C706 1.363 . S
C705 H708 0.929 . S
C706 C705 1.363 . S
C706 C712 1.428 . S
H707 C703 0.930 . S
H708 C705 0.929 . S
S709 N710 1.613 . S
S709 N711 1.610 . S
N710 S709 1.613 . S
N710 C713 1.350 . S
N711 S709 1.610 . S
N711 C712 1.351 . S
C712 C706 1.428 . S
C712 N711 1.351 . S
C712 C713 1.434 . S
C713 C704 1.429 . S
C713 N710 1.350 . S
C713 C712 1.434 . S
C714 C715 1.369 . S
C714 C716 1.419 . S
C714 H718 0.930 . S
C715 C714 1.369 . S
C715 C724 1.429 . S
C716 C714 1.419 . S
C716 C717 1.363 . S
C716 H719 0.929 . S
C717 C716 1.363 . S
C717 C723 1.428 . S
H718 C714 0.930 . S
H719 C716 0.929 . S
S720 N721 1.613 . S
S720 N722 1.610 . S
N721 S720 1.613 . S
N721 C724 1.350 . S
N722 S720 1.610 . S
N722 C723 1.351 . S
C723 C717 1.428 . S
C723 N722 1.351 . S
C723 C724 1.434 . S
C724 C715 1.429 . S
C724 N721 1.350 . S
C724 C723 1.434 . S
C725 C726 1.369 . S
C725 C727 1.419 . S
C725 H729 0.930 . S
C726 C725 1.369 . S
C726 C735 1.429 . S
C727 C725 1.419 . S
C727 C728 1.363 . S
C727 H730 0.929 . S
C728 C727 1.363 . S
C728 C734 1.428 . S
H729 C725 0.930 . S
H730 C727 0.929 . S
S731 N732 1.613 . S
S731 N733 1.610 . S
N732 S731 1.613 . S
N732 C735 1.350 . S
N733 S731 1.610 . S
N733 C734 1.351 . S
C734 C728 1.428 . S
C734 N733 1.351 . S
C734 C735 1.434 . S
C735 C726 1.429 . S
C735 N732 1.350 . S
C735 C734 1.434 . S
C473 C1 1.364 . S
C475 C327 1.440 . S
C484 C40 1.697 . S
C486 C371 1.703 . S
C497 C401 2.387 . S
C495 C99 2.323 . S
C506 C118 2.778 . S
C508 C442 2.743 . S
C519 C358 1.036 . S
C517 C16 0.979 . S
C530 C322 2.538 . S
C528 C60 2.455 . S
C541 C450 1.262 . S
C539 C79 1.232 . S
C552 C411 2.406 . S
C550 C138 2.458 . S
C561 C21 1.578 . S
C563 C447 1.651 . S
C574 C361 2.154 . S
C572 C94 2.175 . S
C583 C133 2.084 . S
C585 C330 2.037 . S
C594 C55 2.070 . S
C596 C398 2.082 . S
C607 C318 1.437 . S
C605 C157 1.388 . S
C616 C196 1.688 . S
C618 C362 1.701 . S
C627 C255 2.339 . S
C629 C410 2.388 . S
C638 C289 2.771 . S
C640 C451 2.741 . S
C649 C172 0.980 . S
C651 C367 1.031 . S
C662 C331 2.539 . S
C660 C216 2.438 . S
C673 C441 1.262 . S
C671 C235 1.238 . S
C684 C402 2.400 . S
C682 C294 2.467 . S
C693 C177 1.603 . S
C695 C438 1.659 . S
C706 C370 2.157 . S
C704 C250 2.171 . S
C717 C321 2.038 . S
C715 C274 2.089 . S
C726 C211 2.069 . S
C728 C407 2.088 . S
