# Generated by pormake.
# Topology apo, (3,6)-cn, num edge types: 1
# Building blocks:
#     Node 0, Type 0, BuildingBlock: BELTOD_clean_linker_0, # of connection points: 3
#     Node 1, Type 0, BuildingBlock: BELTOD_clean_linker_0, # of connection points: 3
#     Node 2, Type 0, BuildingBlock: BELTOD_clean_linker_0, # of connection points: 3
#     Node 3, Type 0, BuildingBlock: BELTOD_clean_linker_0, # of connection points: 3
#     Node 4, Type 0, BuildingBlock: BELTOD_clean_linker_0, # of connection points: 3
#     Node 5, Type 0, BuildingBlock: BELTOD_clean_linker_0, # of connection points: 3
#     Node 6, Type 0, BuildingBlock: BELTOD_clean_linker_0, # of connection points: 3
#     Node 7, Type 0, BuildingBlock: BELTOD_clean_linker_0, # of connection points: 3
#     Node 8, Type 1, BuildingBlock: KUMBOL_clean_sbu_1, # of connection points: 6
#     Node 9, Type 1, BuildingBlock: KUMBOL_clean_sbu_1, # of connection points: 6
#     Node 10, Type 1, BuildingBlock: KUMBOL_clean_sbu_1, # of connection points: 6
#     Node 11, Type 1, BuildingBlock: KUMBOL_clean_sbu_1, # of connection points: 6
#     Edge 12, Type (0, 1), BuildingBlock: XIVTED_clean_linker_0, # of connection points: 2
#     Edge 13, Type (0, 1), BuildingBlock: XIVTED_clean_linker_0, # of connection points: 2
#     Edge 14, Type (0, 1), BuildingBlock: XIVTED_clean_linker_0, # of connection points: 2
#     Edge 15, Type (0, 1), BuildingBlock: XIVTED_clean_linker_0, # of connection points: 2
#     Edge 16, Type (0, 1), BuildingBlock: XIVTED_clean_linker_0, # of connection points: 2
#     Edge 17, Type (0, 1), BuildingBlock: XIVTED_clean_linker_0, # of connection points: 2
#     Edge 18, Type (0, 1), BuildingBlock: XIVTED_clean_linker_0, # of connection points: 2
#     Edge 19, Type (0, 1), BuildingBlock: XIVTED_clean_linker_0, # of connection points: 2
#     Edge 20, Type (0, 1), BuildingBlock: XIVTED_clean_linker_0, # of connection points: 2
#     Edge 21, Type (0, 1), BuildingBlock: XIVTED_clean_linker_0, # of connection points: 2
#     Edge 22, Type (0, 1), BuildingBlock: XIVTED_clean_linker_0, # of connection points: 2
#     Edge 23, Type (0, 1), BuildingBlock: XIVTED_clean_linker_0, # of connection points: 2
#     Edge 24, Type (0, 1), BuildingBlock: XIVTED_clean_linker_0, # of connection points: 2
#     Edge 25, Type (0, 1), BuildingBlock: XIVTED_clean_linker_0, # of connection points: 2
#     Edge 26, Type (0, 1), BuildingBlock: XIVTED_clean_linker_0, # of connection points: 2
#     Edge 27, Type (0, 1), BuildingBlock: XIVTED_clean_linker_0, # of connection points: 2
#     Edge 28, Type (0, 1), BuildingBlock: XIVTED_clean_linker_0, # of connection points: 2
#     Edge 29, Type (0, 1), BuildingBlock: XIVTED_clean_linker_0, # of connection points: 2
#     Edge 30, Type (0, 1), BuildingBlock: XIVTED_clean_linker_0, # of connection points: 2
#     Edge 31, Type (0, 1), BuildingBlock: XIVTED_clean_linker_0, # of connection points: 2
#     Edge 32, Type (0, 1), BuildingBlock: XIVTED_clean_linker_0, # of connection points: 2
#     Edge 33, Type (0, 1), BuildingBlock: XIVTED_clean_linker_0, # of connection points: 2
#     Edge 34, Type (0, 1), BuildingBlock: XIVTED_clean_linker_0, # of connection points: 2
#     Edge 35, Type (0, 1), BuildingBlock: XIVTED_clean_linker_0, # of connection points: 2
# Relax obj value: 0.009
# Max RMSD: 0.111
# Mean RMSD: 0.081
data_MOF--net-apo--node1-KUMBOL_clean_sbu_1--node2-BELTOD_clean_linker_0--edge1-XIVTED_clean_linker_0
_symmetry_space_group_name_H-M    P1
_symmetry_Int_Tables_number       1
_symmetry_cell_setting            triclinic
loop_
_symmetry_equiv_pos_as_xyz
'x, y, z'
_cell_length_a     27.541247
_cell_length_b     48.942597
_cell_length_c     60.278692
_cell_angle_alpha  89.659085
_cell_angle_beta   89.936084
_cell_angle_gamma 90.453102
loop_
_atom_site_label
_atom_site_type_symbol
_atom_site_fract_x
_atom_site_fract_y
_atom_site_fract_z
_atom_type_partial_charge
P0 P 0.34781 0.35446 0.41094 0.0
H1 H 0.39955 0.32886 0.4478 0.0
H2 H 0.39323 0.33311 0.48796 0.0
H3 H 0.27058 0.38681 0.47978 0.0
H4 H 0.27804 0.38288 0.43938 0.0
H5 H 0.35477 0.29676 0.40014 0.0
H6 H 0.30115 0.26517 0.38074 0.0
H7 H 0.19236 0.32808 0.37579 0.0
H8 H 0.24615 0.35949 0.39598 0.0
H9 H 0.37757 0.40853 0.42645 0.0
H10 H 0.31891 0.37362 0.36658 0.0
O11 O 0.40353 0.34282 0.40591 0.0
H12 H 0.38801 0.45246 0.40742 0.0
H13 H 0.32869 0.41754 0.34759 0.0
C14 C 0.3398 0.35597 0.44061 0.0
C15 C 0.37121 0.34152 0.45462 0.0
C16 C 0.3673 0.3438 0.47766 0.0
C17 C 0.3316 0.36046 0.4872 0.0
C18 C 0.29907 0.37419 0.47303 0.0
C19 C 0.30305 0.37186 0.44994 0.0
C20 C 0.30503 0.33072 0.39888 0.0
C21 C 0.31931 0.30377 0.395 0.0
C22 C 0.28862 0.28573 0.38377 0.0
C23 C 0.24282 0.29424 0.37618 0.0
C24 C 0.2274 0.32085 0.38131 0.0
C25 C 0.25821 0.33889 0.39272 0.0
C26 C 0.34587 0.38794 0.39822 0.0
C27 C 0.36549 0.41049 0.40943 0.0
C28 C 0.37187 0.43555 0.39848 0.0
C29 C 0.35894 0.4385 0.37603 0.0
C30 C 0.33814 0.41606 0.36499 0.0
C31 C 0.33232 0.39092 0.3759 0.0
P32 P 0.29152 0.09758 0.91325 0.0
H33 H 0.31591 0.06283 0.87603 0.0
H34 H 0.26863 0.0309 0.8535 0.0
H35 H 0.14192 0.04672 0.89353 0.0
H36 H 0.18923 0.07888 0.9159 0.0
H37 H 0.33102 0.15089 0.92551 0.0
H38 H 0.35346 0.19125 0.90334 0.0
H39 H 0.28863 0.15415 0.84558 0.0
H40 H 0.26616 0.11423 0.86763 0.0
H41 H 0.31697 0.07281 0.95566 0.0
H42 H 0.21177 0.13043 0.93132 0.0
O43 O 0.34771 0.08537 0.91559 0.0
H44 H 0.28247 0.07594 0.99282 0.0
H45 H 0.17641 0.13343 0.96871 0.0
C46 C 0.25634 0.07297 0.89782 0.0
C47 C 0.27805 0.05928 0.88008 0.0
C48 C 0.25093 0.04122 0.86711 0.0
C49 C 0.20161 0.03635 0.87177 0.0
C50 C 0.17999 0.04992 0.8897 0.0
C51 C 0.20705 0.06831 0.9025 0.0
C52 C 0.29683 0.12951 0.89833 0.0
C53 C 0.3205 0.1518 0.90821 0.0
C54 C 0.33333 0.17483 0.89553 0.0
C55 C 0.32327 0.1757 0.87267 0.0
C56 C 0.29747 0.15388 0.86309 0.0
C57 C 0.28438 0.13103 0.87579 0.0
C58 C 0.26739 0.10172 0.94082 0.0
C59 C 0.28678 0.08643 0.95837 0.0
C60 C 0.26705 0.08825 0.97965 0.0
C61 C 0.22693 0.10506 0.98372 0.0
C62 C 0.20729 0.12028 0.96604 0.0
C63 C 0.22757 0.11871 0.94475 0.0
P64 P 0.86154 0.14492 0.60081 0.0
H65 H 0.87891 0.1885 0.56916 0.0
H66 H 0.87121 0.19197 0.52898 0.0
H67 H 0.8164 0.109 0.52691 0.0
H68 H 0.82525 0.10559 0.56735 0.0
H69 H 0.86107 0.16537 0.64579 0.0
H70 H 0.80511 0.1941 0.66652 0.0
H71 H 0.71238 0.19971 0.60892 0.0
H72 H 0.7688 0.1709 0.58822 0.0
H73 H 0.92847 0.09948 0.59739 0.0
H74 H 0.79068 0.11486 0.62878 0.0
O75 O 0.91703 0.15726 0.60593 0.0
H76 H 0.93341 0.05559 0.61674 0.0
H77 H 0.7952 0.07092 0.64812 0.0
C78 C 0.85302 0.14677 0.57119 0.0
C79 C 0.86518 0.17106 0.56006 0.0
C80 C 0.86042 0.17305 0.53706 0.0
C81 C 0.84306 0.15077 0.52463 0.0
C82 C 0.83043 0.12643 0.53591 0.0
C83 C 0.83521 0.12449 0.55905 0.0
C84 C 0.81944 0.16633 0.61542 0.0
C85 C 0.82876 0.17287 0.6376 0.0
C86 C 0.79655 0.18912 0.64947 0.0
C87 C 0.75428 0.1992 0.63936 0.0
C88 C 0.74492 0.19251 0.61708 0.0
C89 C 0.7771 0.17602 0.60524 0.0
C90 C 0.85965 0.11061 0.61187 0.0
C91 C 0.89888 0.09318 0.60816 0.0
C92 C 0.90155 0.06804 0.61921 0.0
C93 C 0.86493 0.05985 0.6342 0.0
C94 C 0.82444 0.07684 0.63702 0.0
C95 C 0.82172 0.10194 0.62586 0.0
P96 P 0.78732 0.39375 0.09228 0.0
H97 H 0.80657 0.42144 0.13364 0.0
H98 H 0.76045 0.45378 0.15582 0.0
H99 H 0.64202 0.44874 0.10899 0.0
H100 H 0.68876 0.41655 0.08673 0.0
H101 H 0.87043 0.35748 0.09068 0.0
H102 H 0.89586 0.31905 0.11376 0.0
H103 H 0.76389 0.32562 0.15219 0.0
H104 H 0.73909 0.36446 0.12913 0.0
H105 H 0.77847 0.42229 0.05015 0.0
H106 H 0.73124 0.34528 0.07811 0.0
O107 O 0.83865 0.41041 0.08597 0.0
H108 H 0.74256 0.40991 0.01455 0.0
H109 H 0.69594 0.33241 0.04234 0.0
C110 C 0.75115 0.41662 0.10859 0.0
C111 C 0.7706 0.42723 0.1282 0.0
C112 C 0.74406 0.44561 0.14092 0.0
C113 C 0.69747 0.45381 0.1342 0.0
C114 C 0.678 0.44305 0.11449 0.0
C115 C 0.70461 0.42452 0.1018 0.0
C116 C 0.8034 0.36412 0.10847 0.0
C117 C 0.84693 0.35061 0.10405 0.0
C118 C 0.86126 0.3285 0.11719 0.0
C119 C 0.83205 0.31931 0.13495 0.0
C120 C 0.78764 0.33247 0.13891 0.0
C121 C 0.77331 0.3546 0.12568 0.0
C122 C 0.7584 0.38448 0.06659 0.0
C123 C 0.76051 0.40263 0.04857 0.0
C124 C 0.74013 0.39546 0.02819 0.0
C125 C 0.71695 0.36998 0.02546 0.0
C126 C 0.7134 0.35221 0.04387 0.0
C127 C 0.73388 0.35945 0.06429 0.0
P128 P 0.77834 0.60436 0.58984 0.0
H129 H 0.81202 0.6296 0.54876 0.0
H130 H 0.77494 0.6347 0.51222 0.0
H131 H 0.63895 0.60394 0.53855 0.0
H132 H 0.67661 0.59851 0.57497 0.0
H133 H 0.81528 0.60679 0.63465 0.0
H134 H 0.8404 0.64431 0.65856 0.0
H135 H 0.79733 0.70227 0.60806 0.0
H136 H 0.77121 0.66442 0.58432 0.0
H137 H 0.78504 0.54482 0.59055 0.0
H138 H 0.69867 0.60655 0.62215 0.0
O139 O 0.83207 0.59151 0.58275 0.0
H140 H 0.74397 0.50943 0.61248 0.0
H141 H 0.65747 0.57118 0.64435 0.0
C142 C 0.7474 0.61321 0.56448 0.0
C143 C 0.77399 0.62439 0.54674 0.0
C144 C 0.75259 0.62745 0.52586 0.0
C145 C 0.70405 0.61941 0.52234 0.0
C146 C 0.67666 0.60985 0.54058 0.0
C147 C 0.69814 0.60683 0.56148 0.0
C148 C 0.7909 0.6328 0.60782 0.0
C149 C 0.81052 0.62759 0.62884 0.0
C150 C 0.82533 0.64908 0.64241 0.0
C151 C 0.82127 0.67632 0.63516 0.0
C152 C 0.80056 0.68154 0.61422 0.0
C153 C 0.78572 0.65991 0.60059 0.0
C154 C 0.74553 0.57832 0.60507 0.0
C155 C 0.75724 0.55076 0.60224 0.0
C156 C 0.73383 0.53055 0.61485 0.0
C157 C 0.69785 0.53752 0.63035 0.0
C158 C 0.68492 0.56514 0.63251 0.0
C159 C 0.7086 0.58538 0.61995 0.0
P160 P 0.83031 0.8564 0.10147 0.0
H161 H 0.84928 0.86286 0.14835 0.0
H162 H 0.86534 0.90239 0.17171 0.0
H163 H 0.84548 0.95577 0.11511 0.0
H164 H 0.82794 0.91592 0.09192 0.0
H165 H 0.79495 0.80291 0.08809 0.0
H166 H 0.73466 0.77178 0.10434 0.0
H167 H 0.68991 0.83535 0.14924 0.0
H168 H 0.74893 0.86652 0.13241 0.0
H169 H 0.91292 0.8641 0.07233 0.0
H170 H 0.75711 0.86617 0.06634 0.0
O171 O 0.87726 0.83629 0.10743 0.0
H172 H 0.9214 0.8733 0.03287 0.0
H173 H 0.76515 0.87645 0.02652 0.0
C174 C 0.83789 0.88641 0.11839 0.0
C175 C 0.84802 0.88309 0.141 0.0
C176 C 0.85749 0.90574 0.15431 0.0
C177 C 0.85742 0.9323 0.14525 0.0
C178 C 0.84562 0.93564 0.12266 0.0
C179 C 0.83587 0.91284 0.10933 0.0
C180 C 0.77693 0.83692 0.10917 0.0
C181 C 0.77118 0.81036 0.10101 0.0
C182 C 0.73704 0.79249 0.11051 0.0
C183 C 0.70807 0.80083 0.12846 0.0
C184 C 0.71147 0.82818 0.13546 0.0
C185 C 0.74557 0.84606 0.12588 0.0
C186 C 0.83442 0.86403 0.0722 0.0
C187 C 0.88041 0.86664 0.06246 0.0
C188 C 0.88518 0.8722 0.03983 0.0
C189 C 0.84398 0.87577 0.02636 0.0
C190 C 0.79769 0.87349 0.03628 0.0
C191 C 0.79298 0.86776 0.05906 0.0
P192 P 0.28903 0.89127 0.41667 0.0
H193 H 0.33299 0.87785 0.45906 0.0
H194 H 0.29975 0.8651 0.4952 0.0
H195 H 0.15461 0.86827 0.46811 0.0
H196 H 0.18858 0.88028 0.43169 0.0
H197 H 0.36848 0.88338 0.38561 0.0
H198 H 0.39345 0.84481 0.36289 0.0
H199 H 0.27523 0.79634 0.3897 0.0
H200 H 0.25029 0.83522 0.41247 0.0
H201 H 0.22231 0.93494 0.42887 0.0
H202 H 0.2707 0.89619 0.3688 0.0
O203 O 0.33827 0.91013 0.42215 0.0
H204 H 0.17556 0.96756 0.40691 0.0
H205 H 0.22626 0.92927 0.3468 0.0
C206 C 0.26318 0.88076 0.44288 0.0
C207 C 0.294 0.87584 0.4609 0.0
C208 C 0.27488 0.86867 0.48161 0.0
C209 C 0.2244 0.86613 0.48472 0.0
C210 C 0.19364 0.87004 0.46633 0.0
C211 C 0.21295 0.87715 0.44554 0.0
C212 C 0.30805 0.86201 0.40098 0.0
C213 C 0.34816 0.86439 0.38677 0.0
C214 C 0.36216 0.8424 0.37364 0.0
C215 C 0.3363 0.81753 0.3745 0.0
C216 C 0.29616 0.81515 0.38887 0.0
C217 C 0.28186 0.83733 0.40186 0.0
C218 C 0.24907 0.91264 0.40057 0.0
C219 C 0.22226 0.93316 0.41097 0.0
C220 C 0.19608 0.95207 0.39835 0.0
C221 C 0.19704 0.95118 0.37499 0.0
C222 C 0.2237 0.93035 0.36469 0.0
C223 C 0.24945 0.91135 0.37734 0.0
P224 P 0.36047 0.64692 0.90102 0.0
H225 H 0.38952 0.63605 0.85584 0.0
H226 H 0.39901 0.59418 0.8345 0.0
H227 H 0.34975 0.54678 0.89103 0.0
H228 H 0.34063 0.58892 0.91235 0.0
H229 H 0.34644 0.70581 0.8989 0.0
H230 H 0.28605 0.73444 0.88057 0.0
H231 H 0.20906 0.66199 0.85912 0.0
H232 H 0.26996 0.6335 0.87738 0.0
H233 H 0.42011 0.62036 0.93457 0.0
H234 H 0.28439 0.66363 0.93254 0.0
O235 O 0.41287 0.66375 0.89753 0.0
H236 H 0.41695 0.61979 0.97519 0.0
H237 H 0.28082 0.66298 0.97298 0.0
C238 C 0.36525 0.61553 0.88576 0.0
C239 C 0.38072 0.61663 0.86362 0.0
C240 C 0.38569 0.59268 0.85138 0.0
C241 C 0.37526 0.5671 0.86106 0.0
C242 C 0.3587 0.56614 0.88318 0.0
C243 C 0.35346 0.59021 0.8954 0.0
C244 C 0.31326 0.66758 0.88906 0.0
C245 C 0.31646 0.69611 0.89031 0.0
C246 C 0.28168 0.71244 0.87996 0.0
C247 C 0.24292 0.7005 0.8682 0.0
C248 C 0.23893 0.67182 0.86769 0.0
C249 C 0.27366 0.65551 0.87817 0.0
C250 C 0.35264 0.64209 0.93051 0.0
C251 C 0.38915 0.62924 0.94286 0.0
C252 C 0.38725 0.62888 0.96608 0.0
C253 C 0.34891 0.64162 0.97735 0.0
C254 C 0.31128 0.6534 0.96482 0.0
C255 C 0.31314 0.65363 0.94164 0.0
C256 C 0.86156 0.09265 0.25837 0.0
C257 C 0.87171 0.04846 0.27606 0.0
C258 C 0.88707 0.07574 0.27273 0.0
C259 C 0.83156 0.03828 0.26425 0.0
C260 C 0.82041 0.08279 0.24697 0.0
C261 C 0.80591 0.05542 0.24979 0.0
N262 N 0.87755 0.11873 0.25528 0.0
C263 C 0.85213 0.1367 0.24248 0.0
C264 C 0.79518 0.10077 0.23306 0.0
C265 C 0.81084 0.12791 0.23099 0.0
Gd266 Gd 0.06297 0.13196 0.23378 0.0
Gd267 Gd 0.94647 0.13189 0.27532 0.0
N268 N 0.92586 0.08619 0.28391 0.0
C269 C 0.89649 0.03238 0.29155 0.0
C270 C 0.94752 0.07122 0.30027 0.0
C271 C 0.93402 0.04396 0.30396 0.0
H272 H 0.97441 0.08029 0.31097 0.0
H273 H 0.95205 0.03205 0.31665 0.0
H274 H 0.05602 0.19658 0.21654 0.0
H275 H 0.86418 0.15769 0.24099 0.0
H276 H 0.1078 0.23819 0.21579 0.0
H277 H 0.88585 0.01132 0.29458 0.0
H278 H 0.81953 0.01731 0.26648 0.0
H279 H 0.13568 0.08025 0.24939 0.0
H280 H 0.76336 0.09397 0.22402 0.0
H281 H 0.79115 0.14204 0.22053 0.0
H282 H 0.25827 0.20892 0.24801 0.0
H283 H 0.77467 0.04737 0.241 0.0
H284 H 0.27372 0.11418 0.26716 0.0
H285 H 0.21868 0.07423 0.26373 0.0
N286 N 0.14194 0.12352 0.24665 0.0
C287 C 0.17231 0.1455 0.24738 0.0
C288 C 0.15854 0.09801 0.2517 0.0
C289 C 0.23692 0.11703 0.26129 0.0
C290 C 0.20592 0.09445 0.25945 0.0
C291 C 0.22055 0.1429 0.25487 0.0
H292 H 0.28817 0.16444 0.2612 0.0
N293 N 0.1089 0.17241 0.2329 0.0
C294 C 0.15548 0.17061 0.24004 0.0
C295 C 0.16859 0.21839 0.2314 0.0
C296 C 0.18639 0.19371 0.23987 0.0
C297 C 0.09221 0.19592 0.22338 0.0
C298 C 0.12148 0.21939 0.22286 0.0
O299 O 0.94496 0.11402 0.24048 0.0
O300 O 0.01842 0.09365 0.23757 0.0
O301 O 0.04466 0.13552 0.19891 0.0
O302 O 0.11162 0.11615 0.20852 0.0
O303 O 0.01626 0.11436 0.28934 0.0
O304 O 0.0558 0.09703 0.25859 0.0
O305 O 0.05861 0.16649 0.25881 0.0
O306 O 0.01491 0.15063 0.28933 0.0
O307 O 0.90873 0.12963 0.30738 0.0
O308 O 0.90179 0.16569 0.28593 0.0
O309 O 0.99453 0.15329 0.22299 0.0
O310 O 0.95693 0.16993 0.25435 0.0
C311 C 0.97145 0.09319 0.23446 0.0
C312 C 0.04812 0.09789 0.28018 0.0
C313 C 0.07514 0.1019 0.17505 0.0
C314 C 0.0838 0.08759 0.1365 0.0
C315 C 0.04002 0.05889 0.16305 0.0
C316 C 0.04922 0.07782 0.17979 0.0
C317 C 0.05702 0.06373 0.1415 0.0
C318 C 0.09258 0.10665 0.15347 0.0
C319 C 0.08309 0.12266 0.19218 0.0
C320 C 0.23408 0.19135 0.24785 0.0
C321 C 0.25109 0.16602 0.25536 0.0
H322 H 0.19122 0.23659 0.23098 0.0
C323 C 0.0477 0.16679 0.2801 0.0
C324 C 0.9677 0.17153 0.2331 0.0
C325 C 0.85632 0.1664 0.32041 0.0
C326 C 0.82769 0.17353 0.35842 0.0
C327 C 0.78846 0.19648 0.32735 0.0
C328 C 0.82068 0.18437 0.31261 0.0
C329 C 0.79179 0.19113 0.35004 0.0
C330 C 0.85957 0.16086 0.34334 0.0
C331 C 0.88959 0.15358 0.30442 0.0
H332 H 0.01978 0.04037 0.16679 0.0
H333 H 0.03614 0.07376 0.19638 0.0
H334 H 0.05 0.04857 0.12886 0.0
H335 H 0.11237 0.1254 0.14984 0.0
H336 H 0.76073 0.21009 0.32116 0.0
H337 H 0.81735 0.18881 0.29505 0.0
H338 H 0.76593 0.20069 0.36102 0.0
H339 H 0.88764 0.14737 0.34942 0.0
C340 C 0.67608 0.36563 0.75626 0.0
C341 C 0.69861 0.41343 0.75963 0.0
C342 C 0.66453 0.39203 0.76233 0.0
C343 C 0.74376 0.40803 0.74977 0.0
C344 C 0.72211 0.35987 0.74724 0.0
C345 C 0.75544 0.38131 0.74355 0.0
N346 N 0.64345 0.34535 0.76051 0.0
C347 C 0.65605 0.31865 0.75797 0.0
C348 C 0.73381 0.33262 0.74294 0.0
C349 C 0.70089 0.31188 0.74866 0.0
Gd350 Gd 0.44671 0.35769 0.73579 0.0
Gd351 Gd 0.56804 0.35878 0.77474 0.0
N352 N 0.62044 0.3966 0.77156 0.0
C353 C 0.68657 0.43947 0.76731 0.0
C354 C 0.60968 0.42147 0.78043 0.0
C355 C 0.64217 0.44341 0.77805 0.0
H356 H 0.57541 0.42442 0.7888 0.0
H357 H 0.63303 0.46329 0.78453 0.0
H358 H 0.47646 0.30299 0.70376 0.0
H359 H 0.63163 0.30255 0.76333 0.0
H360 H 0.45858 0.25383 0.70271 0.0
H361 H 0.71173 0.45647 0.76553 0.0
H362 H 0.77026 0.42425 0.74733 0.0
H363 H 0.36402 0.38493 0.76881 0.0
H364 H 0.76876 0.32732 0.73598 0.0
H365 H 0.71027 0.29068 0.7462 0.0
H366 H 0.33171 0.24118 0.75641 0.0
H367 H 0.79084 0.37733 0.73646 0.0
H368 H 0.27047 0.32073 0.79274 0.0
H369 H 0.29372 0.3697 0.79163 0.0
N370 N 0.37984 0.34498 0.75754 0.0
C371 C 0.36633 0.31824 0.75701 0.0
C372 C 0.35363 0.36359 0.7692 0.0
C373 C 0.30091 0.32735 0.7826 0.0
C374 C 0.314 0.35501 0.78207 0.0
C375 C 0.327 0.30859 0.7699 0.0
H376 H 0.28552 0.27274 0.77984 0.0
N377 N 0.42978 0.31066 0.73124 0.0
C378 C 0.39267 0.30049 0.74385 0.0
C379 C 0.40512 0.25546 0.72875 0.0
C380 C 0.37986 0.27254 0.74318 0.0
C381 C 0.45145 0.29451 0.71576 0.0
C382 C 0.44041 0.26662 0.71468 0.0
O383 O 0.56169 0.39285 0.7492 0.0
O384 O 0.5123 0.37793 0.72027 0.0
O385 O 0.40656 0.35208 0.70466 0.0
O386 O 0.39915 0.38967 0.72384 0.0
O387 O 0.50524 0.38517 0.78523 0.0
O388 O 0.45713 0.39698 0.75488 0.0
O389 O 0.44891 0.34506 0.77217 0.0
O390 O 0.51954 0.32184 0.77391 0.0
O391 O 0.55008 0.36344 0.80956 0.0
O392 O 0.61808 0.34501 0.80029 0.0
O393 O 0.516 0.34108 0.72072 0.0
O394 O 0.55349 0.32336 0.7516 0.0
C395 C 0.54582 0.39418 0.72861 0.0
C396 C 0.47414 0.40132 0.77504 0.0
C397 C 0.35088 0.38672 0.69033 0.0
C398 C 0.32073 0.39197 0.65234 0.0
C399 C 0.27917 0.41382 0.68311 0.0
C400 C 0.31312 0.40331 0.69794 0.0
C401 C 0.28287 0.40826 0.66051 0.0
C402 C 0.35435 0.38083 0.66752 0.0
C403 C 0.3863 0.37587 0.7064 0.0
C404 C 0.34165 0.26264 0.75653 0.0
C405 C 0.31522 0.28063 0.76982 0.0
H406 H 0.39643 0.23387 0.72776 0.0
C407 C 0.47388 0.32414 0.77937 0.0
C408 C 0.54899 0.32534 0.72995 0.0
C409 C 0.58335 0.33157 0.83452 0.0
C410 C 0.59379 0.31969 0.87365 0.0
C411 C 0.55408 0.28789 0.84843 0.0
C412 C 0.5607 0.30627 0.83085 0.0
C413 C 0.57045 0.2945 0.86971 0.0
C414 C 0.59977 0.33819 0.85585 0.0
C415 C 0.58943 0.35164 0.81652 0.0
H416 H 0.24988 0.42639 0.68915 0.0
H417 H 0.3096 0.40795 0.71542 0.0
H418 H 0.25582 0.41664 0.64942 0.0
H419 H 0.38392 0.36836 0.66156 0.0
H420 H 0.53643 0.26839 0.84553 0.0
H421 H 0.54825 0.30079 0.81445 0.0
H422 H 0.56559 0.2797 0.88297 0.0
H423 H 0.61671 0.35795 0.8586 0.0
C424 C 0.85115 0.81919 0.76114 0.0
C425 C 0.86612 0.77621 0.77991 0.0
C426 C 0.87917 0.8036 0.77536 0.0
C427 C 0.82588 0.7645 0.76912 0.0
C428 C 0.80962 0.80794 0.75094 0.0
C429 C 0.79765 0.78034 0.75468 0.0
N430 N 0.86426 0.84562 0.75751 0.0
C431 C 0.83567 0.8626 0.74524 0.0
C432 C 0.78111 0.82489 0.73752 0.0
C433 C 0.7939 0.85243 0.73488 0.0
Gd434 Gd 0.05133 0.86443 0.7329 0.0
Gd435 Gd 0.9354 0.86104 0.77479 0.0
N436 N 0.91754 0.81567 0.78566 0.0
C437 C 0.89296 0.7617 0.79569 0.0
C438 C 0.94117 0.80229 0.80235 0.0
C439 C 0.93009 0.77497 0.80725 0.0
H440 H 0.96807 0.81267 0.81226 0.0
H441 H 0.94971 0.76431 0.82017 0.0
H442 H 0.04342 0.92639 0.71071 0.0
H443 H 0.84576 0.88385 0.74315 0.0
H444 H 0.08748 0.97077 0.71204 0.0
H445 H 0.88414 0.74062 0.79966 0.0
H446 H 0.8156 0.74341 0.77224 0.0
H447 H 0.13024 0.81791 0.75342 0.0
H448 H 0.74887 0.81703 0.72941 0.0
H449 H 0.77172 0.86578 0.72481 0.0
H450 H 0.22126 0.95365 0.76127 0.0
H451 H 0.76616 0.77121 0.74682 0.0
H452 H 0.24622 0.8612 0.78497 0.0
H453 H 0.20467 0.81764 0.776 0.0
N454 N 0.12547 0.86128 0.75228 0.0
C455 C 0.14975 0.88521 0.75554 0.0
C456 C 0.1462 0.83711 0.75837 0.0
C457 C 0.21256 0.86147 0.77569 0.0
C458 C 0.18917 0.83686 0.77071 0.0
C459 C 0.19375 0.886 0.76748 0.0
H460 H 0.25208 0.91206 0.77938 0.0
N461 N 0.09076 0.90699 0.73354 0.0
C462 C 0.13247 0.90867 0.74544 0.0
C463 C 0.14165 0.95616 0.73494 0.0
C464 C 0.15856 0.93349 0.74686 0.0
C465 C 0.07539 0.92852 0.72095 0.0
C466 C 0.10028 0.95353 0.72166 0.0
O467 O 0.9302 0.8437 0.73996 0.0
O468 O 0.00578 0.82597 0.73432 0.0
O469 O 0.04293 0.86793 0.69719 0.0
O470 O 0.10798 0.85024 0.71073 0.0
O471 O 0.00736 0.84386 0.78681 0.0
O472 O 0.04462 0.8271 0.75541 0.0
O473 O 0.0349 0.89992 0.75589 0.0
O474 O 0.00717 0.87743 0.78658 0.0
O475 O 0.90064 0.86102 0.80737 0.0
O476 O 0.89532 0.89629 0.78596 0.0
O477 O 0.98083 0.88219 0.72068 0.0
O478 O 0.93862 0.89773 0.75143 0.0
C479 C 0.95857 0.82503 0.73149 0.0
C480 C 0.03644 0.82641 0.77696 0.0
C481 C 0.08175 0.83466 0.67574 0.0
C482 C 0.09544 0.8211 0.63727 0.0
C483 C 0.06115 0.78874 0.66401 0.0
C484 C 0.06366 0.80848 0.68061 0.0
C485 C 0.07693 0.79494 0.64248 0.0
C486 C 0.09742 0.84092 0.65413 0.0
C487 C 0.0837 0.8559 0.69283 0.0
C488 C 0.20104 0.93469 0.75969 0.0
C489 C 0.21852 0.911 0.77005 0.0
H490 H 0.16075 0.97557 0.73554 0.0
C491 C 0.02931 0.89838 0.77747 0.0
C492 C 0.951 0.89943 0.73026 0.0
C493 C 0.90441 0.90449 0.82448 0.0
C494 C 0.90936 0.91396 0.86436 0.0
C495 C 0.94662 0.94512 0.83754 0.0
C496 C 0.93131 0.92851 0.82019 0.0
C497 C 0.93568 0.93803 0.8594 0.0
C498 C 0.89342 0.89735 0.84666 0.0
C499 C 0.88889 0.88665 0.80594 0.0
H500 H 0.04715 0.76853 0.66786 0.0
H501 H 0.05161 0.80336 0.69722 0.0
H502 H 0.07538 0.77909 0.63004 0.0
H503 H 0.11063 0.86137 0.65044 0.0
H504 H 0.96721 0.96358 0.83401 0.0
H505 H 0.94083 0.93451 0.8034 0.0
H506 H 0.94762 0.95162 0.87245 0.0
H507 H 0.87344 0.87863 0.8501 0.0
C508 C 0.6466 0.66298 0.25413 0.0
C509 C 0.64152 0.70856 0.26944 0.0
C510 C 0.6222 0.68195 0.26699 0.0
C511 C 0.68395 0.71614 0.25792 0.0
C512 C 0.68975 0.67032 0.24291 0.0
C513 C 0.70797 0.69708 0.24467 0.0
N514 N 0.62748 0.63741 0.25225 0.0
C515 C 0.65046 0.61788 0.24016 0.0
C516 C 0.71317 0.65052 0.23016 0.0
C517 C 0.69357 0.62415 0.22889 0.0
Gd518 Gd 0.43205 0.63292 0.23366 0.0
Gd519 Gd 0.5546 0.62884 0.27119 0.0
N520 N 0.58095 0.67406 0.27786 0.0
C521 C 0.61851 0.7265 0.28398 0.0
C522 C 0.56167 0.69057 0.29374 0.0
C523 C 0.57906 0.71724 0.29654 0.0
H524 H 0.53398 0.68313 0.30488 0.0
H525 H 0.56272 0.73042 0.30877 0.0
H526 H 0.45079 0.57177 0.20822 0.0
H527 H 0.63533 0.5975 0.23921 0.0
H528 H 0.41229 0.52664 0.20684 0.0
H529 H 0.63225 0.74708 0.28636 0.0
H530 H 0.69899 0.73657 0.25947 0.0
H531 H 0.35845 0.67153 0.26425 0.0
H532 H 0.74641 0.65537 0.2213 0.0
H533 H 0.71156 0.60869 0.21919 0.0
H534 H 0.26649 0.53637 0.24932 0.0
H535 H 0.74089 0.70317 0.23605 0.0
H536 H 0.23416 0.6232 0.28219 0.0
H537 H 0.27953 0.66699 0.28349 0.0
N538 N 0.3585 0.6305 0.25303 0.0
C539 C 0.33378 0.6064 0.25166 0.0
C540 C 0.33946 0.65218 0.26407 0.0
C541 C 0.2689 0.62504 0.27384 0.0
C542 C 0.29452 0.64975 0.27472 0.0
C543 C 0.28841 0.60298 0.26224 0.0
H544 H 0.22961 0.57458 0.26935 0.0
N545 N 0.39947 0.5884 0.23078 0.0
C546 C 0.35511 0.58468 0.24051 0.0
C547 C 0.35233 0.53799 0.22768 0.0
C548 C 0.33077 0.55923 0.23945 0.0
C549 C 0.4189 0.56822 0.21808 0.0
C550 C 0.39626 0.54263 0.21672 0.0
O551 O 0.56021 0.64726 0.2367 0.0
O552 O 0.48646 0.6678 0.23126 0.0
O553 O 0.41617 0.63165 0.19768 0.0
O554 O 0.37764 0.65926 0.21986 0.0
O555 O 0.48772 0.6492 0.28564 0.0
O556 O 0.45111 0.66886 0.25516 0.0
O557 O 0.42603 0.61195 0.26757 0.0
O558 O 0.50165 0.59384 0.27032 0.0
O559 O 0.56679 0.62526 0.30721 0.0
O560 O 0.61085 0.60241 0.28367 0.0
O561 O 0.49698 0.61135 0.21837 0.0
O562 O 0.53882 0.59346 0.24841 0.0
C563 C 0.53313 0.66582 0.22711 0.0
C564 C 0.45941 0.66779 0.27661 0.0
C565 C 0.35181 0.66072 0.18169 0.0
C566 C 0.33305 0.66724 0.14232 0.0
C567 C 0.28051 0.68638 0.17062 0.0
C568 C 0.31029 0.67582 0.18716 0.0
C569 C 0.29174 0.6822 0.14839 0.0
C570 C 0.36285 0.65618 0.15914 0.0
C571 C 0.38263 0.65011 0.19984 0.0
C572 C 0.28554 0.55581 0.24994 0.0
C573 C 0.26443 0.5776 0.26128 0.0
H574 H 0.33478 0.51816 0.22647 0.0
C575 C 0.45654 0.5949 0.27692 0.0
C576 C 0.52884 0.59427 0.22703 0.0
C577 C 0.62963 0.59492 0.32241 0.0
C578 C 0.64931 0.58933 0.36172 0.0
C579 C 0.68552 0.55953 0.33429 0.0
C580 C 0.66064 0.57309 0.31745 0.0
C581 C 0.67977 0.56746 0.35627 0.0
C582 C 0.62445 0.60322 0.34466 0.0
C583 C 0.60173 0.60785 0.30428 0.0
H584 H 0.24856 0.69788 0.17506 0.0
H585 H 0.30058 0.67944 0.20431 0.0
H586 H 0.26772 0.69052 0.13589 0.0
H587 H 0.39487 0.64469 0.1547 0.0
H588 H 0.70918 0.54271 0.33028 0.0
H589 H 0.6653 0.56621 0.30054 0.0
H590 H 0.69959 0.55664 0.36907 0.0
H591 H 0.60058 0.61995 0.34875 0.0
H592 H 0.15023 0.9452 0.33493 0.0
H593 H 0.07087 0.10142 0.32419 0.0
H594 H 0.1876 0.00606 0.38377 0.0
H595 H 0.07598 0.04644 0.26859 0.0
H596 H 0.10566 0.06561 0.34779 0.0
H597 H 0.11463 0.98097 0.31188 0.0
C598 C 0.15113 0.96604 0.34084 0.0
C599 C 0.17234 0.9725 0.36137 0.0
C600 C 0.09938 0.06145 0.3304 0.0
C601 C 0.13072 0.01358 0.33509 0.0
C602 C 0.07951 0.08183 0.31696 0.0
C603 C 0.07091 0.07691 0.2944 0.0
C604 C 0.11007 0.03584 0.32128 0.0
C605 C 0.08264 0.05119 0.28585 0.0
C606 C 0.1306 0.98646 0.32766 0.0
C607 C 0.1712 -0.0001 0.36827 0.0
N608 N 0.10139 0.03157 0.29931 0.0
N609 N 0.15079 0.01939 0.35517 0.0
H610 H 0.35446 0.55651 0.81729 0.0
H611 H 0.49098 0.41307 0.81864 0.0
H612 H 0.41646 0.51964 0.87586 0.0
H613 H 0.41583 0.44364 0.76084 0.0
H614 H 0.463 0.4521 0.83955 0.0
H615 H 0.37528 0.51559 0.7962 0.0
C616 C 0.37232 0.53979 0.82573 0.0
C617 C 0.38391 0.54159 0.84839 0.0
C618 C 0.4524 0.45031 0.82232 0.0
C619 C 0.40776 0.4947 0.82434 0.0
C620 C 0.46852 0.42796 0.81026 0.0
C621 C 0.45598 0.42499 0.78781 0.0
C622 C 0.42361 0.47014 0.81195 0.0
C623 C 0.42651 0.44506 0.77807 0.0
C624 C 0.384 0.5164 0.8137 0.0
C625 C 0.4064 0.51912 0.85851 0.0
N626 N 0.41151 0.46687 0.79018 0.0
N627 N 0.41785 0.49675 0.8464 0.0
H628 H 0.74258 0.49527 0.65177 0.0
H629 H 0.49797 0.43089 0.70267 0.0
H630 H 0.60161 0.53108 0.64164 0.0
H631 H 0.64145 0.40404 0.72008 0.0
H632 H 0.53417 0.46613 0.67843 0.0
H633 H 0.70525 0.46016 0.67526 0.0
C634 C 0.70367 0.49563 0.65437 0.0
C635 C 0.67515 0.5161 0.64464 0.0
C636 C 0.55776 0.45268 0.68772 0.0
C637 C 0.63209 0.47598 0.67173 0.0
C638 C 0.53714 0.43258 0.70145 0.0
C639 C 0.567 0.41514 0.71381 0.0
C640 C 0.60857 0.45498 0.68612 0.0
C641 C 0.61739 0.41786 0.71158 0.0
C642 C 0.6824 0.47567 0.66792 0.0
C643 C 0.62501 0.51581 0.64894 0.0
N644 N 0.63663 0.43737 0.698 0.0
N645 N 0.60503 0.49601 0.66211 0.0
H646 H 0.93003 0.93474 0.1761 0.0
H647 H 0.89218 0.09228 0.20679 0.0
H648 H 0.81865 0.98422 0.14605 0.0
H649 H 0.0022 0.04071 0.23528 0.0
H650 H 0.86127 0.05298 0.18572 0.0
H651 H 0.954 0.97331 0.19893 0.0
C652 C 0.91021 0.95366 0.17443 0.0
C653 C 0.87195 0.95607 0.15918 0.0
C654 C 0.89202 0.05026 0.19666 0.0
C655 C 0.89996 0.00082 0.18523 0.0
C656 C 0.90941 0.07261 0.20878 0.0
C657 C 0.94974 0.06966 0.22275 0.0
C658 C 0.91532 0.02488 0.19855 0.0
C659 C 0.97119 0.04388 0.22456 0.0
C660 C 0.92418 0.97581 0.18742 0.0
C661 C 0.84857 0.98144 0.15745 0.0
N662 N 0.95385 0.02256 0.21256 0.0
N663 N 0.86292 0.00283 0.17032 0.0
H664 H 0.89893 0.00998 0.62089 0.0
H665 H 0.89918 0.94461 0.74324 0.0
H666 H 0.84427 0.05196 0.67839 0.0
H667 H 0.9579 0.90531 0.68525 0.0
H668 H 0.87245 0.9826 0.71962 0.0
H669 H 0.91462 0.96995 0.64405 0.0
C670 C 0.8901 0.01076 0.63839 0.0
C671 C 0.87053 0.03448 0.6477 0.0
C672 C 0.89095 0.96555 0.71209 0.0
C673 C 0.88834 0.98855 0.67443 0.0
C674 C 0.90612 0.94382 0.72556 0.0
C675 C 0.93117 0.92177 0.71629 0.0
C676 C 0.90081 0.96517 0.68919 0.0
C677 C 0.93911 0.92191 0.69325 0.0
C678 C 0.89891 0.98784 0.65162 0.0
C679 C 0.85904 0.03408 0.67044 0.0
N680 N 0.92422 0.94327 0.68058 0.0
N681 N 0.86843 0.01158 0.68305 0.0
H682 H 0.68912 0.4555 0.17941 0.0
H683 H 0.52956 0.59176 0.1814 0.0
H684 H 0.64264 0.49725 0.11995 0.0
H685 H 0.58026 0.54938 0.23988 0.0
H686 H 0.56832 0.55702 0.15835 0.0
H687 H 0.64699 0.48936 0.20161 0.0
C688 C 0.67013 0.47186 0.17101 0.0
C689 C 0.66974 0.47361 0.14777 0.0
C690 C 0.57086 0.55536 0.17623 0.0
C691 C 0.62089 0.51251 0.17317 0.0
C692 C 0.54872 0.57517 0.1894 0.0
C693 C 0.55168 0.57355 0.21262 0.0
C694 C 0.59608 0.53379 0.18639 0.0
C695 C 0.5771 0.55161 0.22206 0.0
C696 C 0.64585 0.49115 0.18371 0.0
C697 C 0.64363 0.49498 0.13781 0.0
N698 N 0.59827 0.53268 0.20893 0.0
N699 N 0.62043 0.51367 0.15057 0.0
H700 H 0.44405 0.46744 0.37673 0.0
H701 H 0.36276 0.58323 0.29085 0.0
H702 H 0.30182 0.46734 0.34682 0.0
H703 H 0.51169 0.55965 0.30116 0.0
H704 H 0.33673 0.54647 0.31607 0.0
H705 H 0.46606 0.50743 0.35429 0.0
C706 C 0.4172 0.47608 0.36566 0.0
C707 C 0.37102 0.46403 0.36364 0.0
C708 C 0.37506 0.54942 0.31273 0.0
C709 C 0.39612 0.50976 0.33779 0.0
C710 C 0.38995 0.57033 0.29823 0.0
C711 C 0.43939 0.57417 0.2933 0.0
C712 C 0.41002 0.53274 0.32284 0.0
C713 C 0.4731 0.55727 0.30409 0.0
C714 C 0.42992 0.49876 0.35273 0.0
C715 C 0.33793 0.47589 0.34875 0.0
N716 N 0.45781 0.53738 0.31832 0.0
N717 N 0.35109 0.49814 0.33639 0.0
H718 H 0.19836 0.03405 0.82651 0.0
H719 H 0.04587 0.89551 0.82216 0.0
H720 H 0.13991 0.99533 0.88532 0.0
H721 H 0.0593 0.95004 0.766 0.0
H722 H 0.08443 0.93014 0.84549 0.0
H723 H 0.15315 0.00139 0.8037 0.0
C724 C 0.17598 0.01864 0.8346 0.0
C725 C 0.17295 0.0173 0.85782 0.0
C726 C 0.07905 0.93448 0.82804 0.0
C727 C 0.12122 0.97991 0.83187 0.0
C728 C 0.05709 0.91474 0.81469 0.0
C729 C 0.05061 0.91963 0.79191 0.0
C730 C 0.09507 0.95919 0.8185 0.0
C731 C 0.06526 0.94503 0.78325 0.0
C732 C 0.14997 0.00015 0.82159 0.0
C733 C 0.143 -0.00286 0.86746 0.0
N734 N 0.0873 0.96376 0.79648 0.0
N735 N 0.11859 0.97907 0.85444 0.0
H736 H 0.27384 0.11005 0.02348 0.0
H737 H 0.03724 0.08004 0.09674 0.0
H738 H 0.13068 0.10162 0.99529 0.0
H739 H 0.17429 0.106 0.12444 0.0
H740 H 0.07085 0.08667 0.05944 0.0
H741 H 0.23819 0.10776 0.06062 0.0
C742 C 0.23484 0.1078 0.02513 0.0
C743 C 0.20519 0.10591 0.00627 0.0
C744 C 0.09347 0.09106 0.07368 0.0
C745 C 0.16407 0.10314 0.04876 0.0
C746 C 0.07442 0.08712 0.09497 0.0
C747 C 0.10305 0.0924 0.11374 0.0
C748 C 0.14173 0.10007 0.07111 0.0
C749 C 0.15079 0.10188 0.11045 0.0
C750 C 0.21448 0.1066 0.04633 0.0
C751 C 0.15482 0.10333 0.00938 0.0
N752 N 0.1687 0.10522 0.08958 0.0
N753 N 0.13588 0.10177 0.03022 0.0
H754 H 0.34563 0.32211 0.52024 0.0
H755 H 0.30843 0.42915 0.61881 0.0
H756 H 0.31362 0.4075 0.51028 0.0
H757 H 0.34305 0.3444 0.63026 0.0
H758 H 0.31083 0.4212 0.57898 0.0
H759 H 0.34538 0.32946 0.56037 0.0
C760 C 0.33864 0.34242 0.52644 0.0
C761 C 0.32958 0.36421 0.51174 0.0
C762 C 0.31797 0.40429 0.59014 0.0
C763 C 0.32896 0.37271 0.5578 0.0
C764 C 0.31639 0.40879 0.61295 0.0
C765 C 0.32506 0.38735 0.62799 0.0
C766 C 0.32831 0.37811 0.58209 0.0
C767 C 0.33631 0.36156 0.61931 0.0
C768 C 0.33834 0.34656 0.54939 0.0
C769 C 0.32007 0.38997 0.52087 0.0
N770 N 0.33738 0.35763 0.59694 0.0
N771 N 0.32009 0.39347 0.54323 0.0
H772 H 0.63169 0.34281 0.01568 0.0
H773 H 0.67944 0.3452 0.88443 0.0
H774 H 0.75882 0.37845 0.98474 0.0
H775 H 0.55062 0.31001 0.91421 0.0
H776 H 0.7089 0.35721 0.92125 0.0
H777 H 0.60157 0.32989 0.97895 0.0
C778 C 0.65338 0.34782 1.0012 0.0
C779 C 0.69781 0.36186 0.00334 0.0
C780 C 0.67417 0.34686 0.91978 0.0
C781 C 0.66338 0.34728 0.96122 0.0
C782 C 0.65716 0.34013 0.8987 0.0
C783 C 0.61232 0.32667 0.89614 0.0
C784 C 0.64625 0.34013 0.93858 0.0
C785 C 0.58559 0.32014 0.91537 0.0
C786 C 0.63604 0.34056 0.98022 0.0
C787 C 0.72404 0.36807 0.98393 0.0
N788 N 0.6029 0.32698 0.93575 0.0
N789 N 0.70646 0.36075 0.96376 0.0
H790 H 0.81154 0.19471 0.50039 0.0
H791 H 0.84769 0.12578 0.38128 0.0
H792 H 0.86408 0.11246 0.49265 0.0
H793 H 0.81744 0.21121 0.39146 0.0
H794 H 0.8509 0.11929 0.42167 0.0
H795 H 0.80898 0.19971 0.46022 0.0
C796 C 0.82276 0.17769 0.49025 0.0
C797 C 0.83854 0.15321 0.50003 0.0
C798 C 0.84356 0.13943 0.415 0.0
C799 C 0.83516 0.15873 0.45368 0.0
C800 C 0.84201 0.1432 0.39194 0.0
C801 C 0.83183 0.16905 0.38286 0.0
C802 C 0.83482 0.16166 0.42908 0.0
C803 C 0.82435 0.19078 0.39758 0.0
C804 C 0.82111 0.18053 0.46724 0.0
C805 C 0.85139 0.13165 0.4859 0.0
N806 N 0.82584 0.18656 0.41985 0.0
N807 N 0.84958 0.13494 0.46345 0.0
H808 H 0.78862 0.85743 0.99108 0.0
H809 H 0.97008 0.91969 0.90002 0.0
H810 H 0.9132 0.90806 0.00621 0.0
H811 H 0.82646 0.89089 0.88287 0.0
H812 H 0.95221 0.91086 0.93892 0.0
H813 H 0.80312 0.86583 0.95142 0.0
C814 C 0.81874 0.87046 0.98616 0.0
C815 C 0.85001 0.88179 0.00216 0.0
C816 C 0.92447 0.90649 0.9267 0.0
C817 C 0.86725 0.89101 0.95675 0.0
C818 C 0.93459 0.91163 0.9044 0.0
C819 C 0.89948 0.90649 0.88802 0.0
C820 C 0.87898 0.89581 0.93291 0.0
C821 C 0.85473 0.89515 0.89485 0.0
C822 C 0.82714 0.87509 0.96348 0.0
C823 C 0.88874 0.89828 0.99462 0.0
N824 N 0.84569 0.89025 0.91678 0.0
N825 N 0.89635 0.90222 0.97257 0.0
H826 H 0.64717 0.57941 0.50401 0.0
H827 H 0.66305 0.63982 0.38037 0.0
H828 H 0.71588 0.65669 0.48818 0.0
H829 H 0.62546 0.55643 0.39666 0.0
H830 H 0.66699 0.6502 0.42023 0.0
H831 H 0.62299 0.57491 0.46533 0.0
C832 C 0.65642 0.59573 0.49251 0.0
C833 C 0.68394 0.6184 0.49942 0.0
C834 C 0.65726 0.62973 0.41504 0.0
C835 C 0.65701 0.61306 0.4548 0.0
C836 C 0.6547 0.62388 0.39235 0.0
C837 C 0.64433 0.5972 0.38532 0.0
C838 C 0.6489 0.60878 0.43069 0.0
C839 C 0.6341 0.57719 0.40145 0.0
C840 C 0.64293 0.59301 0.47033 0.0
C841 C 0.69538 0.63865 0.48355 0.0
N842 N 0.6369 0.58335 0.42335 0.0
N843 N 0.68219 0.63541 0.46196 0.0
H844 H 0.37368 0.60312 0.00896 0.0
H845 H 0.33217 0.70624 0.10993 0.0
H846 H 0.32716 0.68669 1.00179 0.0
H847 H 0.35846 0.62033 0.1201 0.0
H848 H 0.33936 0.69977 0.07005 0.0
H849 H 0.37601 0.60917 0.04939 0.0
C850 C 0.36403 0.62273 0.01586 0.0
C851 C 0.34976 0.64436 0.00194 0.0
C852 C 0.34379 0.68228 0.08092 0.0
C853 C 0.35265 0.65144 0.04809 0.0
C854 C 0.3397 0.68598 0.10373 0.0
C855 C 0.34406 0.66372 0.11835 0.0
C856 C 0.35229 0.65607 0.07247 0.0
C857 C 0.35484 0.63803 0.1094 0.0
C858 C 0.36527 0.62613 0.03892 0.0
C859 C 0.33748 0.66927 0.01183 0.0
N860 N 0.35817 0.63484 0.08698 0.0
N861 N 0.33926 0.67209 0.0342 0.0
H862 H 0.25546 0.88595 0.52473 0.0
H863 H 0.05629 0.80533 0.59726 0.0
H864 H 0.1472 0.83258 0.49608 0.0
H865 H 0.17503 0.85185 0.62512 0.0
H866 H 0.08663 0.81623 0.56006 0.0
H867 H 0.22388 0.87504 0.56152 0.0
C868 C 0.22522 0.87177 0.52615 0.0
C869 C 0.2043 0.86 0.50719 0.0
C870 C 0.10599 0.82406 0.57432 0.0
C871 C 0.16731 0.84767 0.5495 0.0
C872 C 0.08885 0.81772 0.5956 0.0
C873 C 0.11307 0.82768 0.61445 0.0
C874 C 0.14767 0.84052 0.5718 0.0
C875 C 0.15465 0.84403 0.61116 0.0
C876 C 0.20699 0.86566 0.54721 0.0
C877 C 0.16432 0.84231 0.51016 0.0
N878 N 0.17056 0.8499 0.59031 0.0
N879 N 0.14721 0.83664 0.5309 0.0
H880 H 0.27401 0.26035 0.34331 0.0
H881 H 0.01058 0.2025 0.31045 0.0
H882 H 0.14321 0.28622 0.37635 0.0
H883 H 0.14535 0.17306 0.28406 0.0
H884 H 0.05663 0.23428 0.33418 0.0
H885 H 0.22589 0.22963 0.32052 0.0
C886 C 0.23513 0.25941 0.34595 0.0
C887 C 0.21283 0.27574 0.36204 0.0
C888 C 0.07608 0.22105 0.32298 0.0
C889 C 0.15692 0.24063 0.3355 0.0
C890 C 0.04986 0.20295 0.30949 0.0
C891 C 0.07435 0.18591 0.29463 0.0
C892 C 0.12708 0.2218 0.32169 0.0
C893 C 0.1251 0.18688 0.29426 0.0
C894 C 0.20753 0.24192 0.33277 0.0
C895 C 0.162 0.27411 0.36413 0.0
N896 N 0.14974 0.20451 0.30748 0.0
N897 N 0.13575 0.25681 0.35105 0.0
H898 H 0.37034 0.17087 0.8331 0.0
H899 H 0.40328 0.33086 0.81071 0.0
H900 H 0.32227 0.23118 0.88 0.0
H901 H 0.49183 0.26962 0.7798 0.0
H902 H 0.36448 0.29501 0.83347 0.0
H903 H 0.40574 0.2073 0.81027 0.0
C904 C 0.36681 0.19184 0.83848 0.0
C905 C 0.34314 0.19803 0.85845 0.0
C906 C 0.39253 0.28947 0.82176 0.0
C907 C 0.38401 0.23984 0.83244 0.0
C908 C 0.41448 0.30985 0.80877 0.0
C909 C 0.4507 0.30306 0.79345 0.0
C910 C 0.4066 0.26216 0.81916 0.0
C911 C 0.46419 0.27564 0.79155 0.0
C912 C 0.3874 0.21259 0.82554 0.0
C913 C 0.34041 0.22554 0.86478 0.0
N914 N 0.44192 0.25615 0.80416 0.0
N915 N 0.36045 0.24549 0.85177 0.0
H916 H 0.72275 0.19196 0.68208 0.0
H917 H 0.57802 0.33312 0.687 0.0
H918 H 0.70876 0.24619 0.6258 0.0
H919 H 0.58009 0.27394 0.74025 0.0
H920 H 0.62524 0.30172 0.66405 0.0
H921 H 0.67056 0.222 0.70356 0.0
C922 C 0.70872 0.21023 0.67424 0.0
C923 C 0.72041 0.21664 0.65214 0.0
C924 C 0.61537 0.29561 0.68076 0.0
C925 C 0.66027 0.25117 0.67665 0.0
C926 C 0.58841 0.31349 0.69382 0.0
C927 C 0.57606 0.3063 0.71568 0.0
C928 C 0.62988 0.27032 0.68962 0.0
C929 C 0.59005 0.28059 0.72369 0.0
C930 C 0.67868 0.22732 0.68649 0.0
C931 C 0.70045 0.24036 0.64274 0.0
N932 N 0.61642 0.26361 0.71072 0.0
N933 N 0.6716 0.25686 0.65509 0.0
H934 H 0.87749 0.27213 0.12258 0.0
H935 H 0.9102 0.21437 0.24642 0.0
H936 H 0.8244 0.31425 0.18034 0.0
H937 H 0.97432 0.17841 0.18816 0.0
H938 H 0.87434 0.24981 0.22277 0.0
H939 H 0.90878 0.23615 0.14661 0.0
C940 C 0.87248 0.27387 0.14034 0.0
C941 C 0.84856 0.29642 0.14942 0.0
C942 C 0.89627 0.23412 0.21522 0.0
C943 C 0.88409 0.25498 0.17717 0.0
C944 C 0.91678 0.21388 0.22871 0.0
C945 C 0.94549 0.19334 0.21933 0.0
C946 C 0.9044 0.23375 0.19219 0.0
C947 C 0.95261 0.19377 0.19624 0.0
C948 C 0.89022 0.25322 0.15408 0.0
C949 C 0.84226 0.29717 0.17256 0.0
N950 N 0.93226 0.21359 0.18354 0.0
N951 N 0.8601 0.27683 0.18565 0.0
H952 H 0.78078 0.72664 0.64309 0.0
H953 H 0.99697 0.77497 0.72319 0.0
H954 H 0.90572 0.67762 0.659 0.0
H955 H 0.87291 0.82504 0.70832 0.0
H956 H 0.96349 0.73914 0.6996 0.0
H957 H 0.81336 0.76311 0.66664 0.0
C958 C 0.81511 0.72358 0.65145 0.0
C959 C 0.84037 0.69893 0.64915 0.0
C960 C 0.94339 0.7579 0.70153 0.0
C961 C 0.87772 0.74049 0.67621 0.0
C962 C 0.9626 0.77841 0.71495 0.0
C963 C 0.93763 0.803 0.71774 0.0
C964 C 0.89874 0.76193 0.69078 0.0
C965 C 0.89302 0.80624 0.70684 0.0
C966 C 0.83356 0.74434 0.66498 0.0
C967 C 0.88451 0.69604 0.66055 0.0
N968 N 0.87499 0.78596 0.69381 0.0
N969 N 0.9017 0.71651 0.67354 0.0
H970 H 0.61727 0.8073 0.14723 0.0
H971 H 0.61823 0.65921 0.20475 0.0
H972 H 0.73134 0.74815 0.13929 0.0
H973 H 0.5011 0.71621 0.21312 0.0
H974 H 0.65885 0.69163 0.18007 0.0
H975 H 0.57266 0.77434 0.17049 0.0
C976 C 0.63288 0.78739 0.15027 0.0
C977 C 0.67818 0.78054 0.14117 0.0
C978 C 0.62425 0.69714 0.18724 0.0
C979 C 0.62724 0.74271 0.16779 0.0
C980 C 0.60117 0.67867 0.20151 0.0
C981 C 0.55657 0.68515 0.21133 0.0
C982 C 0.60254 0.7224 0.18253 0.0
C983 C 0.53554 0.7104 0.20596 0.0
C984 C 0.6073 0.76855 0.16351 0.0
C985 C 0.69627 0.75429 0.14556 0.0
N986 N 0.55881 0.72817 0.19199 0.0
N987 N 0.67092 0.73648 0.15859 0.0
H988 H 0.34509 0.76332 0.38577 0.0
H989 H 0.42827 0.71837 0.26401 0.0
H990 H 0.36112 0.81921 0.33059 0.0
H991 H 0.44278 0.66616 0.32151 0.0
H992 H 0.39551 0.75412 0.28764 0.0
H993 H 0.37262 0.72603 0.36193 0.0
C994 C 0.35408 0.76769 0.36861 0.0
C995 C 0.35108 0.79443 0.36018 0.0
C996 C 0.40581 0.73485 0.29512 0.0
C997 C 0.38262 0.75197 0.33287 0.0
C998 C 0.42436 0.71438 0.28162 0.0
C999 C 0.43847 0.68929 0.29083 0.0
C1000 C 0.40092 0.7302 0.31804 0.0
C1001 C 0.43267 0.6853 0.31377 0.0
C1002 C 0.37005 0.74646 0.35506 0.0
C1003 C 0.36353 0.79899 0.33786 0.0
N1004 N 0.41431 0.70555 0.3266 0.0
N1005 N 0.37868 0.778 0.32501 0.0
H1006 H 0.2013 0.74855 0.88148 0.0
H1007 H 0.07191 0.77671 0.76464 0.0
H1008 H 0.20546 0.69239 0.8266 0.0
H1009 H 0.0616 0.83078 0.82066 0.0
H1010 H 0.1191 0.74494 0.78737 0.0
H1011 H 0.14832 0.77834 0.85982 0.0
C1012 C 0.19104 0.74246 0.86488 0.0
C1013 C 0.20805 0.71795 0.85583 0.0
C1014 C 0.10637 0.76369 0.79473 0.0
C1015 C 0.14719 0.75198 0.83091 0.0
C1016 C 0.07956 0.78185 0.78175 0.0
C1017 C 0.06312 0.80646 0.79076 0.0
C1018 C 0.11691 0.77022 0.8169 0.0
C1019 C 0.07355 0.812 0.81307 0.0
C1020 C 0.1606 0.75944 0.85254 0.0
C1021 C 0.19289 0.71094 0.83434 0.0
N1022 N 0.09998 0.7941 0.82534 0.0
N1023 N 0.1636 0.72793 0.82259 0.0
loop_
_geom_bond_atom_site_label_1
_geom_bond_atom_site_label_2
_geom_bond_distance
_geom_bond_site_symmetry_2
_ccdc_geom_bond_type
P0 O11 1.490 . S
P0 C14 1.812 . S
P0 C20 1.803 . S
P0 C26 1.819 . S
H1 C15 0.941 . S
H2 C16 0.939 . S
H3 C18 0.940 . S
H4 C19 0.940 . S
H5 C21 0.939 . S
H6 C22 0.942 . S
H7 C24 0.940 . S
H8 C25 0.939 . S
H9 C27 0.941 . S
H10 C31 0.939 . S
O11 P0 1.490 . S
H12 C28 0.939 . S
H13 C30 0.940 . S
C14 P0 1.812 . S
C14 C15 1.389 . S
C14 C19 1.391 . S
C15 H1 0.941 . S
C15 C14 1.389 . S
C15 C16 1.397 . S
C16 H2 0.939 . S
C16 C15 1.397 . S
C16 C17 1.378 . S
C17 C16 1.378 . S
C17 C18 1.378 . S
C18 H3 0.940 . S
C18 C17 1.378 . S
C18 C19 1.396 . S
C19 H4 0.940 . S
C19 C14 1.391 . S
C19 C18 1.396 . S
C20 P0 1.803 . S
C20 C21 1.378 . S
C20 C25 1.400 . S
C21 H5 0.939 . S
C21 C20 1.378 . S
C21 C22 1.361 . S
C22 H6 0.942 . S
C22 C21 1.361 . S
C22 C23 1.369 . S
C23 C22 1.369 . S
C23 C24 1.404 . S
C24 H7 0.940 . S
C24 C23 1.404 . S
C24 C25 1.389 . S
C25 H8 0.939 . S
C25 C20 1.400 . S
C25 C24 1.389 . S
C26 P0 1.819 . S
C26 C27 1.391 . S
C26 C31 1.391 . S
C27 H9 0.941 . S
C27 C26 1.391 . S
C27 C28 1.396 . S
C28 H12 0.939 . S
C28 C27 1.396 . S
C28 C29 1.397 . S
C29 C28 1.397 . S
C29 C30 1.385 . S
C30 H13 0.940 . S
C30 C29 1.385 . S
C30 C31 1.388 . S
C31 H10 0.939 . S
C31 C26 1.391 . S
C31 C30 1.388 . S
P32 O43 1.490 . S
P32 C46 1.812 . S
P32 C52 1.803 . S
P32 C58 1.819 . S
H33 C47 0.941 . S
H34 C48 0.939 . S
H35 C50 0.940 . S
H36 C51 0.940 . S
H37 C53 0.939 . S
H38 C54 0.942 . S
H39 C56 0.940 . S
H40 C57 0.939 . S
H41 C59 0.941 . S
H42 C63 0.939 . S
O43 P32 1.490 . S
H44 C60 0.939 . S
H45 C62 0.940 . S
C46 P32 1.812 . S
C46 C47 1.389 . S
C46 C51 1.391 . S
C47 H33 0.941 . S
C47 C46 1.389 . S
C47 C48 1.397 . S
C48 H34 0.939 . S
C48 C47 1.397 . S
C48 C49 1.378 . S
C49 C48 1.378 . S
C49 C50 1.378 . S
C50 H35 0.940 . S
C50 C49 1.378 . S
C50 C51 1.396 . S
C51 H36 0.940 . S
C51 C46 1.391 . S
C51 C50 1.396 . S
C52 P32 1.803 . S
C52 C53 1.378 . S
C52 C57 1.400 . S
C53 H37 0.939 . S
C53 C52 1.378 . S
C53 C54 1.361 . S
C54 H38 0.942 . S
C54 C53 1.361 . S
C54 C55 1.369 . S
C55 C54 1.369 . S
C55 C56 1.404 . S
C56 H39 0.940 . S
C56 C55 1.404 . S
C56 C57 1.389 . S
C57 H40 0.939 . S
C57 C52 1.400 . S
C57 C56 1.389 . S
C58 P32 1.819 . S
C58 C59 1.391 . S
C58 C63 1.391 . S
C59 H41 0.941 . S
C59 C58 1.391 . S
C59 C60 1.396 . S
C60 H44 0.939 . S
C60 C59 1.396 . S
C60 C61 1.397 . S
C61 C60 1.397 . S
C61 C62 1.385 . S
C62 H45 0.940 . S
C62 C61 1.385 . S
C62 C63 1.388 . S
C63 H42 0.939 . S
C63 C58 1.391 . S
C63 C62 1.388 . S
P64 O75 1.490 . S
P64 C78 1.812 . S
P64 C84 1.803 . S
P64 C90 1.819 . S
H65 C79 0.941 . S
H66 C80 0.939 . S
H67 C82 0.940 . S
H68 C83 0.940 . S
H69 C85 0.939 . S
H70 C86 0.942 . S
H71 C88 0.940 . S
H72 C89 0.939 . S
H73 C91 0.941 . S
H74 C95 0.939 . S
O75 P64 1.490 . S
H76 C92 0.939 . S
H77 C94 0.940 . S
C78 P64 1.812 . S
C78 C79 1.389 . S
C78 C83 1.391 . S
C79 H65 0.941 . S
C79 C78 1.389 . S
C79 C80 1.397 . S
C80 H66 0.939 . S
C80 C79 1.397 . S
C80 C81 1.378 . S
C81 C80 1.378 . S
C81 C82 1.378 . S
C82 H67 0.940 . S
C82 C81 1.378 . S
C82 C83 1.396 . S
C83 H68 0.940 . S
C83 C78 1.391 . S
C83 C82 1.396 . S
C84 P64 1.803 . S
C84 C85 1.378 . S
C84 C89 1.400 . S
C85 H69 0.939 . S
C85 C84 1.378 . S
C85 C86 1.361 . S
C86 H70 0.942 . S
C86 C85 1.361 . S
C86 C87 1.369 . S
C87 C86 1.369 . S
C87 C88 1.404 . S
C88 H71 0.940 . S
C88 C87 1.404 . S
C88 C89 1.389 . S
C89 H72 0.939 . S
C89 C84 1.400 . S
C89 C88 1.389 . S
C90 P64 1.819 . S
C90 C91 1.391 . S
C90 C95 1.391 . S
C91 H73 0.941 . S
C91 C90 1.391 . S
C91 C92 1.396 . S
C92 H76 0.939 . S
C92 C91 1.396 . S
C92 C93 1.397 . S
C93 C92 1.397 . S
C93 C94 1.385 . S
C94 H77 0.940 . S
C94 C93 1.385 . S
C94 C95 1.388 . S
C95 H74 0.939 . S
C95 C90 1.391 . S
C95 C94 1.388 . S
P96 O107 1.490 . S
P96 C110 1.812 . S
P96 C116 1.803 . S
P96 C122 1.819 . S
H97 C111 0.941 . S
H98 C112 0.939 . S
H99 C114 0.940 . S
H100 C115 0.940 . S
H101 C117 0.939 . S
H102 C118 0.942 . S
H103 C120 0.940 . S
H104 C121 0.939 . S
H105 C123 0.941 . S
H106 C127 0.939 . S
O107 P96 1.490 . S
H108 C124 0.939 . S
H109 C126 0.940 . S
C110 P96 1.812 . S
C110 C111 1.389 . S
C110 C115 1.391 . S
C111 H97 0.941 . S
C111 C110 1.389 . S
C111 C112 1.397 . S
C112 H98 0.939 . S
C112 C111 1.397 . S
C112 C113 1.378 . S
C113 C112 1.378 . S
C113 C114 1.378 . S
C114 H99 0.940 . S
C114 C113 1.378 . S
C114 C115 1.396 . S
C115 H100 0.940 . S
C115 C110 1.391 . S
C115 C114 1.396 . S
C116 P96 1.803 . S
C116 C117 1.378 . S
C116 C121 1.400 . S
C117 H101 0.939 . S
C117 C116 1.378 . S
C117 C118 1.361 . S
C118 H102 0.942 . S
C118 C117 1.361 . S
C118 C119 1.369 . S
C119 C118 1.369 . S
C119 C120 1.404 . S
C120 H103 0.940 . S
C120 C119 1.404 . S
C120 C121 1.389 . S
C121 H104 0.939 . S
C121 C116 1.400 . S
C121 C120 1.389 . S
C122 P96 1.819 . S
C122 C123 1.391 . S
C122 C127 1.391 . S
C123 H105 0.941 . S
C123 C122 1.391 . S
C123 C124 1.396 . S
C124 H108 0.939 . S
C124 C123 1.396 . S
C124 C125 1.397 . S
C125 C124 1.397 . S
C125 C126 1.385 . S
C126 H109 0.940 . S
C126 C125 1.385 . S
C126 C127 1.388 . S
C127 H106 0.939 . S
C127 C122 1.391 . S
C127 C126 1.388 . S
P128 O139 1.490 . S
P128 C142 1.812 . S
P128 C148 1.803 . S
P128 C154 1.819 . S
H129 C143 0.941 . S
H130 C144 0.939 . S
H131 C146 0.940 . S
H132 C147 0.940 . S
H133 C149 0.939 . S
H134 C150 0.942 . S
H135 C152 0.940 . S
H136 C153 0.939 . S
H137 C155 0.941 . S
H138 C159 0.939 . S
O139 P128 1.490 . S
H140 C156 0.939 . S
H141 C158 0.940 . S
C142 P128 1.812 . S
C142 C143 1.389 . S
C142 C147 1.391 . S
C143 H129 0.941 . S
C143 C142 1.389 . S
C143 C144 1.397 . S
C144 H130 0.939 . S
C144 C143 1.397 . S
C144 C145 1.378 . S
C145 C144 1.378 . S
C145 C146 1.378 . S
C146 H131 0.940 . S
C146 C145 1.378 . S
C146 C147 1.396 . S
C147 H132 0.940 . S
C147 C142 1.391 . S
C147 C146 1.396 . S
C148 P128 1.803 . S
C148 C149 1.378 . S
C148 C153 1.400 . S
C149 H133 0.939 . S
C149 C148 1.378 . S
C149 C150 1.361 . S
C150 H134 0.942 . S
C150 C149 1.361 . S
C150 C151 1.369 . S
C151 C150 1.369 . S
C151 C152 1.404 . S
C152 H135 0.940 . S
C152 C151 1.404 . S
C152 C153 1.389 . S
C153 H136 0.939 . S
C153 C148 1.400 . S
C153 C152 1.389 . S
C154 P128 1.819 . S
C154 C155 1.391 . S
C154 C159 1.391 . S
C155 H137 0.941 . S
C155 C154 1.391 . S
C155 C156 1.396 . S
C156 H140 0.939 . S
C156 C155 1.396 . S
C156 C157 1.397 . S
C157 C156 1.397 . S
C157 C158 1.385 . S
C158 H141 0.940 . S
C158 C157 1.385 . S
C158 C159 1.388 . S
C159 H138 0.939 . S
C159 C154 1.391 . S
C159 C158 1.388 . S
P160 O171 1.490 . S
P160 C174 1.812 . S
P160 C180 1.803 . S
P160 C186 1.819 . S
H161 C175 0.941 . S
H162 C176 0.939 . S
H163 C178 0.940 . S
H164 C179 0.940 . S
H165 C181 0.939 . S
H166 C182 0.942 . S
H167 C184 0.940 . S
H168 C185 0.939 . S
H169 C187 0.941 . S
H170 C191 0.939 . S
O171 P160 1.490 . S
H172 C188 0.939 . S
H173 C190 0.940 . S
C174 P160 1.812 . S
C174 C175 1.389 . S
C174 C179 1.391 . S
C175 H161 0.941 . S
C175 C174 1.389 . S
C175 C176 1.397 . S
C176 H162 0.939 . S
C176 C175 1.397 . S
C176 C177 1.378 . S
C177 C176 1.378 . S
C177 C178 1.378 . S
C178 H163 0.940 . S
C178 C177 1.378 . S
C178 C179 1.396 . S
C179 H164 0.940 . S
C179 C174 1.391 . S
C179 C178 1.396 . S
C180 P160 1.803 . S
C180 C181 1.378 . S
C180 C185 1.400 . S
C181 H165 0.939 . S
C181 C180 1.378 . S
C181 C182 1.361 . S
C182 H166 0.942 . S
C182 C181 1.361 . S
C182 C183 1.369 . S
C183 C182 1.369 . S
C183 C184 1.404 . S
C184 H167 0.940 . S
C184 C183 1.404 . S
C184 C185 1.389 . S
C185 H168 0.939 . S
C185 C180 1.400 . S
C185 C184 1.389 . S
C186 P160 1.819 . S
C186 C187 1.391 . S
C186 C191 1.391 . S
C187 H169 0.941 . S
C187 C186 1.391 . S
C187 C188 1.396 . S
C188 H172 0.939 . S
C188 C187 1.396 . S
C188 C189 1.397 . S
C189 C188 1.397 . S
C189 C190 1.385 . S
C190 H173 0.940 . S
C190 C189 1.385 . S
C190 C191 1.388 . S
C191 H170 0.939 . S
C191 C186 1.391 . S
C191 C190 1.388 . S
P192 O203 1.490 . S
P192 C206 1.812 . S
P192 C212 1.803 . S
P192 C218 1.819 . S
H193 C207 0.941 . S
H194 C208 0.939 . S
H195 C210 0.940 . S
H196 C211 0.940 . S
H197 C213 0.939 . S
H198 C214 0.942 . S
H199 C216 0.940 . S
H200 C217 0.939 . S
H201 C219 0.941 . S
H202 C223 0.939 . S
O203 P192 1.490 . S
H204 C220 0.939 . S
H205 C222 0.940 . S
C206 P192 1.812 . S
C206 C207 1.389 . S
C206 C211 1.391 . S
C207 H193 0.941 . S
C207 C206 1.389 . S
C207 C208 1.397 . S
C208 H194 0.939 . S
C208 C207 1.397 . S
C208 C209 1.378 . S
C209 C208 1.378 . S
C209 C210 1.378 . S
C210 H195 0.940 . S
C210 C209 1.378 . S
C210 C211 1.396 . S
C211 H196 0.940 . S
C211 C206 1.391 . S
C211 C210 1.396 . S
C212 P192 1.803 . S
C212 C213 1.378 . S
C212 C217 1.400 . S
C213 H197 0.939 . S
C213 C212 1.378 . S
C213 C214 1.361 . S
C214 H198 0.942 . S
C214 C213 1.361 . S
C214 C215 1.369 . S
C215 C214 1.369 . S
C215 C216 1.404 . S
C216 H199 0.940 . S
C216 C215 1.404 . S
C216 C217 1.389 . S
C217 H200 0.939 . S
C217 C212 1.400 . S
C217 C216 1.389 . S
C218 P192 1.819 . S
C218 C219 1.391 . S
C218 C223 1.391 . S
C219 H201 0.941 . S
C219 C218 1.391 . S
C219 C220 1.396 . S
C220 H204 0.939 . S
C220 C219 1.396 . S
C220 C221 1.397 . S
C221 C220 1.397 . S
C221 C222 1.385 . S
C222 H205 0.940 . S
C222 C221 1.385 . S
C222 C223 1.388 . S
C223 H202 0.939 . S
C223 C218 1.391 . S
C223 C222 1.388 . S
P224 O235 1.490 . S
P224 C238 1.812 . S
P224 C244 1.803 . S
P224 C250 1.819 . S
H225 C239 0.941 . S
H226 C240 0.939 . S
H227 C242 0.940 . S
H228 C243 0.940 . S
H229 C245 0.939 . S
H230 C246 0.942 . S
H231 C248 0.940 . S
H232 C249 0.939 . S
H233 C251 0.941 . S
H234 C255 0.939 . S
O235 P224 1.490 . S
H236 C252 0.939 . S
H237 C254 0.940 . S
C238 P224 1.812 . S
C238 C239 1.389 . S
C238 C243 1.391 . S
C239 H225 0.941 . S
C239 C238 1.389 . S
C239 C240 1.397 . S
C240 H226 0.939 . S
C240 C239 1.397 . S
C240 C241 1.378 . S
C241 C240 1.378 . S
C241 C242 1.378 . S
C242 H227 0.940 . S
C242 C241 1.378 . S
C242 C243 1.396 . S
C243 H228 0.940 . S
C243 C238 1.391 . S
C243 C242 1.396 . S
C244 P224 1.803 . S
C244 C245 1.378 . S
C244 C249 1.400 . S
C245 H229 0.939 . S
C245 C244 1.378 . S
C245 C246 1.361 . S
C246 H230 0.942 . S
C246 C245 1.361 . S
C246 C247 1.369 . S
C247 C246 1.369 . S
C247 C248 1.404 . S
C248 H231 0.940 . S
C248 C247 1.404 . S
C248 C249 1.389 . S
C249 H232 0.939 . S
C249 C244 1.400 . S
C249 C248 1.389 . S
C250 P224 1.819 . S
C250 C251 1.391 . S
C250 C255 1.391 . S
C251 H233 0.941 . S
C251 C250 1.391 . S
C251 C252 1.396 . S
C252 H236 0.939 . S
C252 C251 1.396 . S
C252 C253 1.397 . S
C253 C252 1.397 . S
C253 C254 1.385 . S
C254 H237 0.940 . S
C254 C253 1.385 . S
C254 C255 1.388 . S
C255 H234 0.939 . S
C255 C250 1.391 . S
C255 C254 1.388 . S
C256 C258 1.422 . S
C256 C260 1.415 . S
C256 N262 1.369 . S
C257 C258 1.421 . S
C257 C259 1.417 . S
C257 C269 1.422 . S
C258 C256 1.422 . S
C258 C257 1.421 . S
C258 N268 1.359 . S
C259 C257 1.417 . S
C259 C261 1.329 . S
C259 H278 0.930 . S
C260 C256 1.415 . S
C260 C261 1.437 . S
C260 C264 1.413 . S
C261 C259 1.329 . S
C261 C260 1.437 . S
C261 H283 0.929 . S
N262 C256 1.369 . S
N262 C263 1.338 . S
N262 Gd267 2.622 . S
C263 N262 1.338 . S
C263 C265 1.378 . S
C263 H275 0.929 . S
C264 C260 1.413 . S
C264 C265 1.348 . S
C264 H280 0.931 . S
C265 C263 1.378 . S
C265 C264 1.348 . S
C265 H281 0.930 . S
Gd266 N286 2.622 . S
Gd266 N293 2.570 . S
Gd266 O300 2.353 . S
Gd266 O301 2.468 . S
Gd266 O302 2.427 . S
Gd266 O304 2.388 . S
Gd266 O305 2.386 . S
Gd266 O309 2.307 . S
Gd266 C319 2.805 . S
Gd267 N262 2.622 . S
Gd267 N268 2.570 . S
Gd267 O299 2.386 . S
Gd267 O303 2.307 1_655 S
Gd267 O306 2.353 1_655 S
Gd267 O307 2.468 . S
Gd267 O308 2.427 . S
Gd267 O310 2.388 . S
Gd267 C331 2.805 . S
N268 C258 1.359 . S
N268 Gd267 2.570 . S
N268 C270 1.343 . S
C269 C257 1.422 . S
C269 C271 1.321 . S
C269 H277 0.931 . S
C270 N268 1.343 . S
C270 C271 1.390 . S
C270 H272 0.931 . S
C271 C269 1.321 . S
C271 C270 1.390 . S
C271 H273 0.930 . S
H272 C270 0.931 . S
H273 C271 0.930 . S
H274 C297 0.931 . S
H275 C263 0.929 . S
H276 C298 0.930 . S
H277 C269 0.931 . S
H278 C259 0.930 . S
H279 C288 0.929 . S
H280 C264 0.931 . S
H281 C265 0.930 . S
H282 C320 0.930 . S
H283 C261 0.929 . S
H284 C289 0.931 . S
H285 C290 0.930 . S
N286 Gd266 2.622 . S
N286 C287 1.369 . S
N286 C288 1.338 . S
C287 N286 1.369 . S
C287 C291 1.415 . S
C287 C294 1.422 . S
C288 H279 0.929 . S
C288 N286 1.338 . S
C288 C290 1.378 . S
C289 H284 0.931 . S
C289 C290 1.348 . S
C289 C291 1.413 . S
C290 H285 0.930 . S
C290 C288 1.378 . S
C290 C289 1.348 . S
C291 C287 1.415 . S
C291 C289 1.413 . S
C291 C321 1.437 . S
H292 C321 0.929 . S
N293 Gd266 2.570 . S
N293 C294 1.359 . S
N293 C297 1.343 . S
C294 C287 1.422 . S
C294 N293 1.359 . S
C294 C296 1.421 . S
C295 C296 1.422 . S
C295 C298 1.321 . S
C295 H322 0.931 . S
C296 C294 1.421 . S
C296 C295 1.422 . S
C296 C320 1.417 . S
C297 H274 0.931 . S
C297 N293 1.343 . S
C297 C298 1.390 . S
C298 H276 0.930 . S
C298 C295 1.321 . S
C298 C297 1.390 . S
O299 Gd267 2.386 . S
O299 C311 1.265 . S
O300 Gd266 2.353 . S
O300 C311 1.242 1_455 S
O301 Gd266 2.468 . S
O301 C319 1.263 . S
O302 Gd266 2.427 . S
O302 C319 1.252 . S
O303 Gd267 2.307 1_455 S
O303 C312 1.261 . S
O304 Gd266 2.388 . S
O304 C312 1.252 . S
O305 Gd266 2.386 . S
O305 C323 1.265 . S
O306 Gd267 2.353 1_455 S
O306 C323 1.242 . S
O307 Gd267 2.468 . S
O307 C331 1.263 . S
O308 Gd267 2.427 . S
O308 C331 1.252 . S
O309 Gd266 2.307 . S
O309 C324 1.261 1_455 S
O310 Gd267 2.388 . S
O310 C324 1.252 . S
C311 O299 1.265 . S
C311 O300 1.242 1_655 S
C312 O303 1.261 . S
C312 O304 1.252 . S
C313 C316 1.394 . S
C313 C318 1.370 . S
C313 C319 1.500 . S
C314 C317 1.383 . S
C314 C318 1.395 . S
C315 C316 1.396 . S
C315 C317 1.365 . S
C315 H332 0.929 . S
C316 C313 1.394 . S
C316 C315 1.396 . S
C316 H333 0.930 . S
C317 C314 1.383 . S
C317 C315 1.365 . S
C317 H334 0.931 . S
C318 C313 1.370 . S
C318 C314 1.395 . S
C318 H335 0.930 . S
C319 Gd266 2.805 . S
C319 O301 1.263 . S
C319 O302 1.252 . S
C319 C313 1.500 . S
C320 H282 0.930 . S
C320 C296 1.417 . S
C320 C321 1.329 . S
C321 C291 1.437 . S
C321 H292 0.929 . S
C321 C320 1.329 . S
H322 C295 0.931 . S
C323 O305 1.265 . S
C323 O306 1.242 . S
C324 O309 1.261 1_655 S
C324 O310 1.252 . S
C325 C328 1.394 . S
C325 C330 1.370 . S
C325 C331 1.500 . S
C326 C329 1.383 . S
C326 C330 1.395 . S
C327 C328 1.396 . S
C327 C329 1.365 . S
C327 H336 0.929 . S
C328 C325 1.394 . S
C328 C327 1.396 . S
C328 H337 0.930 . S
C329 C326 1.383 . S
C329 C327 1.365 . S
C329 H338 0.931 . S
C330 C325 1.370 . S
C330 C326 1.395 . S
C330 H339 0.930 . S
C331 Gd267 2.805 . S
C331 O307 1.263 . S
C331 O308 1.252 . S
C331 C325 1.500 . S
H332 C315 0.929 . S
H333 C316 0.930 . S
H334 C317 0.931 . S
H335 C318 0.930 . S
H336 C327 0.929 . S
H337 C328 0.930 . S
H338 C329 0.931 . S
H339 C330 0.930 . S
C340 C342 1.422 . S
C340 C344 1.415 . S
C340 N346 1.369 . S
C341 C342 1.421 . S
C341 C343 1.417 . S
C341 C353 1.422 . S
C342 C340 1.422 . S
C342 C341 1.421 . S
C342 N352 1.359 . S
C343 C341 1.417 . S
C343 C345 1.329 . S
C343 H362 0.930 . S
C344 C340 1.415 . S
C344 C345 1.437 . S
C344 C348 1.413 . S
C345 C343 1.329 . S
C345 C344 1.437 . S
C345 H367 0.929 . S
N346 C340 1.369 . S
N346 C347 1.338 . S
N346 Gd351 2.622 . S
C347 N346 1.338 . S
C347 C349 1.378 . S
C347 H359 0.929 . S
C348 C344 1.413 . S
C348 C349 1.348 . S
C348 H364 0.931 . S
C349 C347 1.378 . S
C349 C348 1.348 . S
C349 H365 0.930 . S
Gd350 N370 2.622 . S
Gd350 N377 2.570 . S
Gd350 O384 2.353 . S
Gd350 O385 2.468 . S
Gd350 O386 2.427 . S
Gd350 O388 2.388 . S
Gd350 O389 2.386 . S
Gd350 O393 2.307 . S
Gd350 C403 2.805 . S
Gd351 N346 2.622 . S
Gd351 N352 2.570 . S
Gd351 O383 2.386 . S
Gd351 O387 2.307 . S
Gd351 O390 2.353 . S
Gd351 O391 2.468 . S
Gd351 O392 2.427 . S
Gd351 O394 2.388 . S
Gd351 C415 2.805 . S
N352 C342 1.359 . S
N352 Gd351 2.570 . S
N352 C354 1.343 . S
C353 C341 1.422 . S
C353 C355 1.321 . S
C353 H361 0.931 . S
C354 N352 1.343 . S
C354 C355 1.390 . S
C354 H356 0.931 . S
C355 C353 1.321 . S
C355 C354 1.390 . S
C355 H357 0.930 . S
H356 C354 0.931 . S
H357 C355 0.930 . S
H358 C381 0.931 . S
H359 C347 0.929 . S
H360 C382 0.930 . S
H361 C353 0.931 . S
H362 C343 0.930 . S
H363 C372 0.929 . S
H364 C348 0.931 . S
H365 C349 0.930 . S
H366 C404 0.930 . S
H367 C345 0.929 . S
H368 C373 0.931 . S
H369 C374 0.930 . S
N370 Gd350 2.622 . S
N370 C371 1.369 . S
N370 C372 1.338 . S
C371 N370 1.369 . S
C371 C375 1.415 . S
C371 C378 1.422 . S
C372 H363 0.929 . S
C372 N370 1.338 . S
C372 C374 1.378 . S
C373 H368 0.931 . S
C373 C374 1.348 . S
C373 C375 1.413 . S
C374 H369 0.930 . S
C374 C372 1.378 . S
C374 C373 1.348 . S
C375 C371 1.415 . S
C375 C373 1.413 . S
C375 C405 1.437 . S
H376 C405 0.929 . S
N377 Gd350 2.570 . S
N377 C378 1.359 . S
N377 C381 1.343 . S
C378 C371 1.422 . S
C378 N377 1.359 . S
C378 C380 1.421 . S
C379 C380 1.422 . S
C379 C382 1.321 . S
C379 H406 0.931 . S
C380 C378 1.421 . S
C380 C379 1.422 . S
C380 C404 1.417 . S
C381 H358 0.931 . S
C381 N377 1.343 . S
C381 C382 1.390 . S
C382 H360 0.930 . S
C382 C379 1.321 . S
C382 C381 1.390 . S
O383 Gd351 2.386 . S
O383 C395 1.265 . S
O384 Gd350 2.353 . S
O384 C395 1.242 . S
O385 Gd350 2.468 . S
O385 C403 1.263 . S
O386 Gd350 2.427 . S
O386 C403 1.252 . S
O387 Gd351 2.307 . S
O387 C396 1.261 . S
O388 Gd350 2.388 . S
O388 C396 1.252 . S
O389 Gd350 2.386 . S
O389 C407 1.265 . S
O390 Gd351 2.353 . S
O390 C407 1.242 . S
O391 Gd351 2.468 . S
O391 C415 1.263 . S
O392 Gd351 2.427 . S
O392 C415 1.252 . S
O393 Gd350 2.307 . S
O393 C408 1.261 . S
O394 Gd351 2.388 . S
O394 C408 1.252 . S
C395 O383 1.265 . S
C395 O384 1.242 . S
C396 O387 1.261 . S
C396 O388 1.252 . S
C397 C400 1.394 . S
C397 C402 1.370 . S
C397 C403 1.500 . S
C398 C401 1.383 . S
C398 C402 1.395 . S
C399 C400 1.396 . S
C399 C401 1.365 . S
C399 H416 0.929 . S
C400 C397 1.394 . S
C400 C399 1.396 . S
C400 H417 0.930 . S
C401 C398 1.383 . S
C401 C399 1.365 . S
C401 H418 0.931 . S
C402 C397 1.370 . S
C402 C398 1.395 . S
C402 H419 0.930 . S
C403 Gd350 2.805 . S
C403 O385 1.263 . S
C403 O386 1.252 . S
C403 C397 1.500 . S
C404 H366 0.930 . S
C404 C380 1.417 . S
C404 C405 1.329 . S
C405 C375 1.437 . S
C405 H376 0.929 . S
C405 C404 1.329 . S
H406 C379 0.931 . S
C407 O389 1.265 . S
C407 O390 1.242 . S
C408 O393 1.261 . S
C408 O394 1.252 . S
C409 C412 1.394 . S
C409 C414 1.370 . S
C409 C415 1.500 . S
C410 C413 1.383 . S
C410 C414 1.395 . S
C411 C412 1.396 . S
C411 C413 1.365 . S
C411 H420 0.929 . S
C412 C409 1.394 . S
C412 C411 1.396 . S
C412 H421 0.930 . S
C413 C410 1.383 . S
C413 C411 1.365 . S
C413 H422 0.931 . S
C414 C409 1.370 . S
C414 C410 1.395 . S
C414 H423 0.930 . S
C415 Gd351 2.805 . S
C415 O391 1.263 . S
C415 O392 1.252 . S
C415 C409 1.500 . S
H416 C399 0.929 . S
H417 C400 0.930 . S
H418 C401 0.931 . S
H419 C402 0.930 . S
H420 C411 0.929 . S
H421 C412 0.930 . S
H422 C413 0.931 . S
H423 C414 0.930 . S
C424 C426 1.422 . S
C424 C428 1.415 . S
C424 N430 1.369 . S
C425 C426 1.421 . S
C425 C427 1.417 . S
C425 C437 1.422 . S
C426 C424 1.422 . S
C426 C425 1.421 . S
C426 N436 1.359 . S
C427 C425 1.417 . S
C427 C429 1.329 . S
C427 H446 0.930 . S
C428 C424 1.415 . S
C428 C429 1.437 . S
C428 C432 1.413 . S
C429 C427 1.329 . S
C429 C428 1.437 . S
C429 H451 0.929 . S
N430 C424 1.369 . S
N430 C431 1.338 . S
N430 Gd435 2.622 . S
C431 N430 1.338 . S
C431 C433 1.378 . S
C431 H443 0.929 . S
C432 C428 1.413 . S
C432 C433 1.348 . S
C432 H448 0.931 . S
C433 C431 1.378 . S
C433 C432 1.348 . S
C433 H449 0.930 . S
Gd434 N454 2.622 . S
Gd434 N461 2.570 . S
Gd434 O468 2.353 . S
Gd434 O469 2.468 . S
Gd434 O470 2.427 . S
Gd434 O472 2.388 . S
Gd434 O473 2.386 . S
Gd434 O477 2.307 . S
Gd434 C487 2.805 . S
Gd435 N430 2.622 . S
Gd435 N436 2.570 . S
Gd435 O467 2.386 . S
Gd435 O471 2.307 1_655 S
Gd435 O474 2.353 1_655 S
Gd435 O475 2.468 . S
Gd435 O476 2.427 . S
Gd435 O478 2.388 . S
Gd435 C499 2.805 . S
N436 C426 1.359 . S
N436 Gd435 2.570 . S
N436 C438 1.343 . S
C437 C425 1.422 . S
C437 C439 1.321 . S
C437 H445 0.931 . S
C438 N436 1.343 . S
C438 C439 1.390 . S
C438 H440 0.931 . S
C439 C437 1.321 . S
C439 C438 1.390 . S
C439 H441 0.930 . S
H440 C438 0.931 . S
H441 C439 0.930 . S
H442 C465 0.931 . S
H443 C431 0.929 . S
H444 C466 0.930 . S
H445 C437 0.931 . S
H446 C427 0.930 . S
H447 C456 0.929 . S
H448 C432 0.931 . S
H449 C433 0.930 . S
H450 C488 0.930 . S
H451 C429 0.929 . S
H452 C457 0.931 . S
H453 C458 0.930 . S
N454 Gd434 2.622 . S
N454 C455 1.369 . S
N454 C456 1.338 . S
C455 N454 1.369 . S
C455 C459 1.415 . S
C455 C462 1.422 . S
C456 H447 0.929 . S
C456 N454 1.338 . S
C456 C458 1.378 . S
C457 H452 0.931 . S
C457 C458 1.348 . S
C457 C459 1.413 . S
C458 H453 0.930 . S
C458 C456 1.378 . S
C458 C457 1.348 . S
C459 C455 1.415 . S
C459 C457 1.413 . S
C459 C489 1.437 . S
H460 C489 0.929 . S
N461 Gd434 2.570 . S
N461 C462 1.359 . S
N461 C465 1.343 . S
C462 C455 1.422 . S
C462 N461 1.359 . S
C462 C464 1.421 . S
C463 C464 1.422 . S
C463 C466 1.321 . S
C463 H490 0.931 . S
C464 C462 1.421 . S
C464 C463 1.422 . S
C464 C488 1.417 . S
C465 H442 0.931 . S
C465 N461 1.343 . S
C465 C466 1.390 . S
C466 H444 0.930 . S
C466 C463 1.321 . S
C466 C465 1.390 . S
O467 Gd435 2.386 . S
O467 C479 1.265 . S
O468 Gd434 2.353 . S
O468 C479 1.242 1_455 S
O469 Gd434 2.468 . S
O469 C487 1.263 . S
O470 Gd434 2.427 . S
O470 C487 1.252 . S
O471 Gd435 2.307 1_455 S
O471 C480 1.261 . S
O472 Gd434 2.388 . S
O472 C480 1.252 . S
O473 Gd434 2.386 . S
O473 C491 1.265 . S
O474 Gd435 2.353 1_455 S
O474 C491 1.242 . S
O475 Gd435 2.468 . S
O475 C499 1.263 . S
O476 Gd435 2.427 . S
O476 C499 1.252 . S
O477 Gd434 2.307 . S
O477 C492 1.261 1_455 S
O478 Gd435 2.388 . S
O478 C492 1.252 . S
C479 O467 1.265 . S
C479 O468 1.242 1_655 S
C480 O471 1.261 . S
C480 O472 1.252 . S
C481 C484 1.394 . S
C481 C486 1.370 . S
C481 C487 1.500 . S
C482 C485 1.383 . S
C482 C486 1.395 . S
C483 C484 1.396 . S
C483 C485 1.365 . S
C483 H500 0.929 . S
C484 C481 1.394 . S
C484 C483 1.396 . S
C484 H501 0.930 . S
C485 C482 1.383 . S
C485 C483 1.365 . S
C485 H502 0.931 . S
C486 C481 1.370 . S
C486 C482 1.395 . S
C486 H503 0.930 . S
C487 Gd434 2.805 . S
C487 O469 1.263 . S
C487 O470 1.252 . S
C487 C481 1.500 . S
C488 H450 0.930 . S
C488 C464 1.417 . S
C488 C489 1.329 . S
C489 C459 1.437 . S
C489 H460 0.929 . S
C489 C488 1.329 . S
H490 C463 0.931 . S
C491 O473 1.265 . S
C491 O474 1.242 . S
C492 O477 1.261 1_655 S
C492 O478 1.252 . S
C493 C496 1.394 . S
C493 C498 1.370 . S
C493 C499 1.500 . S
C494 C497 1.383 . S
C494 C498 1.395 . S
C495 C496 1.396 . S
C495 C497 1.365 . S
C495 H504 0.929 . S
C496 C493 1.394 . S
C496 C495 1.396 . S
C496 H505 0.930 . S
C497 C494 1.383 . S
C497 C495 1.365 . S
C497 H506 0.931 . S
C498 C493 1.370 . S
C498 C494 1.395 . S
C498 H507 0.930 . S
C499 Gd435 2.805 . S
C499 O475 1.263 . S
C499 O476 1.252 . S
C499 C493 1.500 . S
H500 C483 0.929 . S
H501 C484 0.930 . S
H502 C485 0.931 . S
H503 C486 0.930 . S
H504 C495 0.929 . S
H505 C496 0.930 . S
H506 C497 0.931 . S
H507 C498 0.930 . S
C508 C510 1.422 . S
C508 C512 1.415 . S
C508 N514 1.369 . S
C509 C510 1.421 . S
C509 C511 1.417 . S
C509 C521 1.422 . S
C510 C508 1.422 . S
C510 C509 1.421 . S
C510 N520 1.359 . S
C511 C509 1.417 . S
C511 C513 1.329 . S
C511 H530 0.930 . S
C512 C508 1.415 . S
C512 C513 1.437 . S
C512 C516 1.413 . S
C513 C511 1.329 . S
C513 C512 1.437 . S
C513 H535 0.929 . S
N514 C508 1.369 . S
N514 C515 1.338 . S
N514 Gd519 2.622 . S
C515 N514 1.338 . S
C515 C517 1.378 . S
C515 H527 0.929 . S
C516 C512 1.413 . S
C516 C517 1.348 . S
C516 H532 0.931 . S
C517 C515 1.378 . S
C517 C516 1.348 . S
C517 H533 0.930 . S
Gd518 N538 2.622 . S
Gd518 N545 2.570 . S
Gd518 O552 2.353 . S
Gd518 O553 2.468 . S
Gd518 O554 2.427 . S
Gd518 O556 2.388 . S
Gd518 O557 2.386 . S
Gd518 O561 2.307 . S
Gd518 C571 2.805 . S
Gd519 N514 2.622 . S
Gd519 N520 2.570 . S
Gd519 O551 2.386 . S
Gd519 O555 2.307 . S
Gd519 O558 2.353 . S
Gd519 O559 2.468 . S
Gd519 O560 2.427 . S
Gd519 O562 2.388 . S
Gd519 C583 2.805 . S
N520 C510 1.359 . S
N520 Gd519 2.570 . S
N520 C522 1.343 . S
C521 C509 1.422 . S
C521 C523 1.321 . S
C521 H529 0.931 . S
C522 N520 1.343 . S
C522 C523 1.390 . S
C522 H524 0.931 . S
C523 C521 1.321 . S
C523 C522 1.390 . S
C523 H525 0.930 . S
H524 C522 0.931 . S
H525 C523 0.930 . S
H526 C549 0.931 . S
H527 C515 0.929 . S
H528 C550 0.930 . S
H529 C521 0.931 . S
H530 C511 0.930 . S
H531 C540 0.929 . S
H532 C516 0.931 . S
H533 C517 0.930 . S
H534 C572 0.930 . S
H535 C513 0.929 . S
H536 C541 0.931 . S
H537 C542 0.930 . S
N538 Gd518 2.622 . S
N538 C539 1.369 . S
N538 C540 1.338 . S
C539 N538 1.369 . S
C539 C543 1.415 . S
C539 C546 1.422 . S
C540 H531 0.929 . S
C540 N538 1.338 . S
C540 C542 1.378 . S
C541 H536 0.931 . S
C541 C542 1.348 . S
C541 C543 1.413 . S
C542 H537 0.930 . S
C542 C540 1.378 . S
C542 C541 1.348 . S
C543 C539 1.415 . S
C543 C541 1.413 . S
C543 C573 1.437 . S
H544 C573 0.929 . S
N545 Gd518 2.570 . S
N545 C546 1.359 . S
N545 C549 1.343 . S
C546 C539 1.422 . S
C546 N545 1.359 . S
C546 C548 1.421 . S
C547 C548 1.422 . S
C547 C550 1.321 . S
C547 H574 0.931 . S
C548 C546 1.421 . S
C548 C547 1.422 . S
C548 C572 1.417 . S
C549 H526 0.931 . S
C549 N545 1.343 . S
C549 C550 1.390 . S
C550 H528 0.930 . S
C550 C547 1.321 . S
C550 C549 1.390 . S
O551 Gd519 2.386 . S
O551 C563 1.265 . S
O552 Gd518 2.353 . S
O552 C563 1.242 . S
O553 Gd518 2.468 . S
O553 C571 1.263 . S
O554 Gd518 2.427 . S
O554 C571 1.252 . S
O555 Gd519 2.307 . S
O555 C564 1.261 . S
O556 Gd518 2.388 . S
O556 C564 1.252 . S
O557 Gd518 2.386 . S
O557 C575 1.265 . S
O558 Gd519 2.353 . S
O558 C575 1.242 . S
O559 Gd519 2.468 . S
O559 C583 1.263 . S
O560 Gd519 2.427 . S
O560 C583 1.252 . S
O561 Gd518 2.307 . S
O561 C576 1.261 . S
O562 Gd519 2.388 . S
O562 C576 1.252 . S
C563 O551 1.265 . S
C563 O552 1.242 . S
C564 O555 1.261 . S
C564 O556 1.252 . S
C565 C568 1.394 . S
C565 C570 1.370 . S
C565 C571 1.500 . S
C566 C569 1.383 . S
C566 C570 1.395 . S
C567 C568 1.396 . S
C567 C569 1.365 . S
C567 H584 0.929 . S
C568 C565 1.394 . S
C568 C567 1.396 . S
C568 H585 0.930 . S
C569 C566 1.383 . S
C569 C567 1.365 . S
C569 H586 0.931 . S
C570 C565 1.370 . S
C570 C566 1.395 . S
C570 H587 0.930 . S
C571 Gd518 2.805 . S
C571 O553 1.263 . S
C571 O554 1.252 . S
C571 C565 1.500 . S
C572 H534 0.930 . S
C572 C548 1.417 . S
C572 C573 1.329 . S
C573 C543 1.437 . S
C573 H544 0.929 . S
C573 C572 1.329 . S
H574 C547 0.931 . S
C575 O557 1.265 . S
C575 O558 1.242 . S
C576 O561 1.261 . S
C576 O562 1.252 . S
C577 C580 1.394 . S
C577 C582 1.370 . S
C577 C583 1.500 . S
C578 C581 1.383 . S
C578 C582 1.395 . S
C579 C580 1.396 . S
C579 C581 1.365 . S
C579 H588 0.929 . S
C580 C577 1.394 . S
C580 C579 1.396 . S
C580 H589 0.930 . S
C581 C578 1.383 . S
C581 C579 1.365 . S
C581 H590 0.931 . S
C582 C577 1.370 . S
C582 C578 1.395 . S
C582 H591 0.930 . S
C583 Gd519 2.805 . S
C583 O559 1.263 . S
C583 O560 1.252 . S
C583 C577 1.500 . S
H584 C567 0.929 . S
H585 C568 0.930 . S
H586 C569 0.931 . S
H587 C570 0.930 . S
H588 C579 0.929 . S
H589 C580 0.930 . S
H590 C581 0.931 . S
H591 C582 0.930 . S
H592 C598 0.930 . S
H593 C602 0.930 . S
H594 C607 0.929 1_545 S
H595 C605 0.929 . S
H596 C600 0.929 . S
H597 C606 0.929 . S
C598 H592 0.930 . S
C598 C599 1.367 . S
C598 C606 1.378 . S
C599 C598 1.367 . S
C599 C607 1.433 . S
C600 H596 0.929 . S
C600 C602 1.378 . S
C600 C604 1.350 . S
C601 C604 1.463 . S
C601 C606 1.350 1_545 S
C601 N609 1.427 . S
C602 H593 0.930 . S
C602 C600 1.378 . S
C602 C603 1.367 . S
C603 C602 1.367 . S
C603 C605 1.433 . S
C604 C600 1.350 . S
C604 C601 1.463 . S
C604 N608 1.427 . S
C605 H595 0.929 . S
C605 C603 1.433 . S
C605 N608 1.384 . S
C606 H597 0.929 . S
C606 C598 1.378 . S
C606 C601 1.350 1_565 S
C607 H594 0.929 1_565 S
C607 C599 1.433 . S
C607 N609 1.384 1_565 S
N608 C604 1.427 . S
N608 C605 1.384 . S
N609 C601 1.427 . S
N609 C607 1.384 1_545 S
H610 C616 0.930 . S
H611 C620 0.930 . S
H612 C625 0.929 . S
H613 C623 0.929 . S
H614 C618 0.929 . S
H615 C624 0.929 . S
C616 H610 0.930 . S
C616 C617 1.367 . S
C616 C624 1.378 . S
C617 C616 1.367 . S
C617 C625 1.433 . S
C618 H614 0.929 . S
C618 C620 1.378 . S
C618 C622 1.350 . S
C619 C622 1.463 . S
C619 C624 1.350 . S
C619 N627 1.427 . S
C620 H611 0.930 . S
C620 C618 1.378 . S
C620 C621 1.367 . S
C621 C620 1.367 . S
C621 C623 1.433 . S
C622 C618 1.350 . S
C622 C619 1.463 . S
C622 N626 1.427 . S
C623 H613 0.929 . S
C623 C621 1.433 . S
C623 N626 1.384 . S
C624 H615 0.929 . S
C624 C616 1.378 . S
C624 C619 1.350 . S
C625 H612 0.929 . S
C625 C617 1.433 . S
C625 N627 1.384 . S
N626 C622 1.427 . S
N626 C623 1.384 . S
N627 C619 1.427 . S
N627 C625 1.384 . S
H628 C634 0.930 . S
H629 C638 0.930 . S
H630 C643 0.929 . S
H631 C641 0.929 . S
H632 C636 0.929 . S
H633 C642 0.929 . S
C634 H628 0.930 . S
C634 C635 1.367 . S
C634 C642 1.378 . S
C635 C634 1.367 . S
C635 C643 1.433 . S
C636 H632 0.929 . S
C636 C638 1.378 . S
C636 C640 1.350 . S
C637 C640 1.463 . S
C637 C642 1.350 . S
C637 N645 1.427 . S
C638 H629 0.930 . S
C638 C636 1.378 . S
C638 C639 1.367 . S
C639 C638 1.367 . S
C639 C641 1.433 . S
C640 C636 1.350 . S
C640 C637 1.463 . S
C640 N644 1.427 . S
C641 H631 0.929 . S
C641 C639 1.433 . S
C641 N644 1.384 . S
C642 H633 0.929 . S
C642 C634 1.378 . S
C642 C637 1.350 . S
C643 H630 0.929 . S
C643 C635 1.433 . S
C643 N645 1.384 . S
N644 C640 1.427 . S
N644 C641 1.384 . S
N645 C637 1.427 . S
N645 C643 1.384 . S
H646 C652 0.930 . S
H647 C656 0.930 . S
H648 C661 0.929 . S
H649 C659 0.929 . S
H650 C654 0.929 . S
H651 C660 0.929 . S
C652 H646 0.930 . S
C652 C653 1.367 . S
C652 C660 1.378 . S
C653 C652 1.367 . S
C653 C661 1.433 1_565 S
C654 H650 0.929 . S
C654 C656 1.378 . S
C654 C658 1.350 . S
C655 C658 1.463 . S
C655 C660 1.350 1_545 S
C655 N663 1.427 . S
C656 H647 0.930 . S
C656 C654 1.378 . S
C656 C657 1.367 . S
C657 C656 1.367 . S
C657 C659 1.433 . S
C658 C654 1.350 . S
C658 C655 1.463 . S
C658 N662 1.427 . S
C659 H649 0.929 . S
C659 C657 1.433 . S
C659 N662 1.384 . S
C660 H651 0.929 . S
C660 C652 1.378 . S
C660 C655 1.350 1_565 S
C661 H648 0.929 . S
C661 C653 1.433 1_545 S
C661 N663 1.384 . S
N662 C658 1.427 . S
N662 C659 1.384 . S
N663 C655 1.427 . S
N663 C661 1.384 . S
H664 C670 0.930 . S
H665 C674 0.930 . S
H666 C679 0.929 . S
H667 C677 0.929 . S
H668 C672 0.929 . S
H669 C678 0.929 . S
C670 H664 0.930 . S
C670 C671 1.367 . S
C670 C678 1.378 1_545 S
C671 C670 1.367 . S
C671 C679 1.433 . S
C672 H668 0.929 . S
C672 C674 1.378 . S
C672 C676 1.350 . S
C673 C676 1.463 . S
C673 C678 1.350 . S
C673 N681 1.427 1_565 S
C674 H665 0.930 . S
C674 C672 1.378 . S
C674 C675 1.367 . S
C675 C674 1.367 . S
C675 C677 1.433 . S
C676 C672 1.350 . S
C676 C673 1.463 . S
C676 N680 1.427 . S
C677 H667 0.929 . S
C677 C675 1.433 . S
C677 N680 1.384 . S
C678 H669 0.929 . S
C678 C670 1.378 1_565 S
C678 C673 1.350 . S
C679 H666 0.929 . S
C679 C671 1.433 . S
C679 N681 1.384 . S
N680 C676 1.427 . S
N680 C677 1.384 . S
N681 C673 1.427 1_545 S
N681 C679 1.384 . S
H682 C688 0.930 . S
H683 C692 0.930 . S
H684 C697 0.929 . S
H685 C695 0.929 . S
H686 C690 0.929 . S
H687 C696 0.929 . S
C688 H682 0.930 . S
C688 C689 1.367 . S
C688 C696 1.378 . S
C689 C688 1.367 . S
C689 C697 1.433 . S
C690 H686 0.929 . S
C690 C692 1.378 . S
C690 C694 1.350 . S
C691 C694 1.463 . S
C691 C696 1.350 . S
C691 N699 1.427 . S
C692 H683 0.930 . S
C692 C690 1.378 . S
C692 C693 1.367 . S
C693 C692 1.367 . S
C693 C695 1.433 . S
C694 C690 1.350 . S
C694 C691 1.463 . S
C694 N698 1.427 . S
C695 H685 0.929 . S
C695 C693 1.433 . S
C695 N698 1.384 . S
C696 H687 0.929 . S
C696 C688 1.378 . S
C696 C691 1.350 . S
C697 H684 0.929 . S
C697 C689 1.433 . S
C697 N699 1.384 . S
N698 C694 1.427 . S
N698 C695 1.384 . S
N699 C691 1.427 . S
N699 C697 1.384 . S
H700 C706 0.930 . S
H701 C710 0.930 . S
H702 C715 0.929 . S
H703 C713 0.929 . S
H704 C708 0.929 . S
H705 C714 0.929 . S
C706 H700 0.930 . S
C706 C707 1.367 . S
C706 C714 1.378 . S
C707 C706 1.367 . S
C707 C715 1.433 . S
C708 H704 0.929 . S
C708 C710 1.378 . S
C708 C712 1.350 . S
C709 C712 1.463 . S
C709 C714 1.350 . S
C709 N717 1.427 . S
C710 H701 0.930 . S
C710 C708 1.378 . S
C710 C711 1.367 . S
C711 C710 1.367 . S
C711 C713 1.433 . S
C712 C708 1.350 . S
C712 C709 1.463 . S
C712 N716 1.427 . S
C713 H703 0.929 . S
C713 C711 1.433 . S
C713 N716 1.384 . S
C714 H705 0.929 . S
C714 C706 1.378 . S
C714 C709 1.350 . S
C715 H702 0.929 . S
C715 C707 1.433 . S
C715 N717 1.384 . S
N716 C712 1.427 . S
N716 C713 1.384 . S
N717 C709 1.427 . S
N717 C715 1.384 . S
H718 C724 0.930 . S
H719 C728 0.930 . S
H720 C733 0.931 . S
H721 C731 0.929 . S
H722 C726 0.929 . S
H723 C732 0.929 . S
C724 H718 0.930 . S
C724 C725 1.367 . S
C724 C732 1.378 . S
C725 C724 1.367 . S
C725 C733 1.411 1_545 S
C726 H722 0.929 . S
C726 C728 1.378 . S
C726 C730 1.350 . S
C727 C730 1.463 . S
C727 C732 1.350 1_565 S
C727 N735 1.427 . S
C728 H719 0.930 . S
C728 C726 1.378 . S
C728 C729 1.367 . S
C729 C728 1.367 . S
C729 C731 1.433 . S
C730 C726 1.350 . S
C730 C727 1.463 . S
C730 N734 1.427 . S
C731 H721 0.929 . S
C731 C729 1.433 . S
C731 N734 1.384 . S
C732 H723 0.929 . S
C732 C724 1.378 . S
C732 C727 1.350 1_545 S
C733 H720 0.931 . S
C733 C725 1.411 1_565 S
C733 N735 1.404 . S
N734 C730 1.427 . S
N734 C731 1.384 . S
N735 C727 1.427 . S
N735 C733 1.404 . S
H736 C742 0.930 . S
H737 C746 0.930 . S
H738 C751 0.929 1_556 S
H739 C749 0.929 . S
H740 C744 0.929 . S
H741 C750 0.929 . S
C742 H736 0.930 . S
C742 C743 1.367 1_554 S
C742 C750 1.378 . S
C743 C742 1.367 1_556 S
C743 C751 1.433 1_556 S
C744 H740 0.929 . S
C744 C746 1.378 . S
C744 C748 1.350 . S
C745 C748 1.463 . S
C745 C750 1.350 . S
C745 N753 1.427 . S
C746 H737 0.930 . S
C746 C744 1.378 . S
C746 C747 1.367 . S
C747 C746 1.367 . S
C747 C749 1.433 . S
C748 C744 1.350 . S
C748 C745 1.463 . S
C748 N752 1.427 . S
C749 H739 0.929 . S
C749 C747 1.433 . S
C749 N752 1.384 . S
C750 H741 0.929 . S
C750 C742 1.378 . S
C750 C745 1.350 . S
C751 H738 0.929 1_554 S
C751 C743 1.433 1_554 S
C751 N753 1.384 . S
N752 C748 1.427 . S
N752 C749 1.384 . S
N753 C745 1.427 . S
N753 C751 1.384 . S
H754 C760 0.930 . S
H755 C764 0.930 . S
H756 C769 0.929 . S
H757 C767 0.929 . S
H758 C762 0.929 . S
H759 C768 0.929 . S
C760 H754 0.930 . S
C760 C761 1.367 . S
C760 C768 1.378 . S
C761 C760 1.367 . S
C761 C769 1.433 . S
C762 H758 0.929 . S
C762 C764 1.378 . S
C762 C766 1.350 . S
C763 C766 1.463 . S
C763 C768 1.350 . S
C763 N771 1.427 . S
C764 H755 0.930 . S
C764 C762 1.378 . S
C764 C765 1.367 . S
C765 C764 1.367 . S
C765 C767 1.433 . S
C766 C762 1.350 . S
C766 C763 1.463 . S
C766 N770 1.427 . S
C767 H757 0.929 . S
C767 C765 1.433 . S
C767 N770 1.384 . S
C768 H759 0.929 . S
C768 C760 1.378 . S
C768 C763 1.350 . S
C769 H756 0.929 . S
C769 C761 1.433 . S
C769 N771 1.384 . S
N770 C766 1.427 . S
N770 C767 1.384 . S
N771 C763 1.427 . S
N771 C769 1.384 . S
H772 C778 0.930 . S
H773 C782 0.930 . S
H774 C787 0.929 . S
H775 C785 0.929 . S
H776 C780 0.929 . S
H777 C786 0.929 . S
C778 H772 0.930 . S
C778 C779 1.367 . S
C778 C786 1.378 1_554 S
C779 C778 1.367 . S
C779 C787 1.433 1_554 S
C780 H776 0.929 . S
C780 C782 1.378 . S
C780 C784 1.350 . S
C781 C784 1.463 . S
C781 C786 1.350 . S
C781 N789 1.427 . S
C782 H773 0.930 . S
C782 C780 1.378 . S
C782 C783 1.367 . S
C783 C782 1.367 . S
C783 C785 1.433 . S
C784 C780 1.350 . S
C784 C781 1.463 . S
C784 N788 1.427 . S
C785 H775 0.929 . S
C785 C783 1.433 . S
C785 N788 1.384 . S
C786 H777 0.929 . S
C786 C778 1.378 1_556 S
C786 C781 1.350 . S
C787 H774 0.929 . S
C787 C779 1.433 1_556 S
C787 N789 1.384 . S
N788 C784 1.427 . S
N788 C785 1.384 . S
N789 C781 1.427 . S
N789 C787 1.384 . S
H790 C796 0.930 . S
H791 C800 0.930 . S
H792 C805 0.929 . S
H793 C803 0.929 . S
H794 C798 0.929 . S
H795 C804 0.929 . S
C796 H790 0.930 . S
C796 C797 1.367 . S
C796 C804 1.378 . S
C797 C796 1.367 . S
C797 C805 1.433 . S
C798 H794 0.929 . S
C798 C800 1.378 . S
C798 C802 1.350 . S
C799 C802 1.463 . S
C799 C804 1.350 . S
C799 N807 1.427 . S
C800 H791 0.930 . S
C800 C798 1.378 . S
C800 C801 1.367 . S
C801 C800 1.367 . S
C801 C803 1.433 . S
C802 C798 1.350 . S
C802 C799 1.463 . S
C802 N806 1.427 . S
C803 H793 0.929 . S
C803 C801 1.433 . S
C803 N806 1.384 . S
C804 H795 0.929 . S
C804 C796 1.378 . S
C804 C799 1.350 . S
C805 H792 0.929 . S
C805 C797 1.433 . S
C805 N807 1.384 . S
N806 C802 1.427 . S
N806 C803 1.384 . S
N807 C799 1.427 . S
N807 C805 1.384 . S
H808 C814 0.930 . S
H809 C818 0.930 . S
H810 C823 0.929 1_554 S
H811 C821 0.929 . S
H812 C816 0.929 . S
H813 C822 0.929 . S
C814 H808 0.930 . S
C814 C815 1.367 1_556 S
C814 C822 1.378 . S
C815 C814 1.367 1_554 S
C815 C823 1.433 1_554 S
C816 H812 0.929 . S
C816 C818 1.378 . S
C816 C820 1.350 . S
C817 C820 1.463 . S
C817 C822 1.350 . S
C817 N825 1.427 . S
C818 H809 0.930 . S
C818 C816 1.378 . S
C818 C819 1.367 . S
C819 C818 1.367 . S
C819 C821 1.433 . S
C820 C816 1.350 . S
C820 C817 1.463 . S
C820 N824 1.427 . S
C821 H811 0.929 . S
C821 C819 1.433 . S
C821 N824 1.384 . S
C822 H813 0.929 . S
C822 C814 1.378 . S
C822 C817 1.350 . S
C823 H810 0.929 1_556 S
C823 C815 1.433 1_556 S
C823 N825 1.384 . S
N824 C820 1.427 . S
N824 C821 1.384 . S
N825 C817 1.427 . S
N825 C823 1.384 . S
H826 C832 0.930 . S
H827 C836 0.930 . S
H828 C841 0.929 . S
H829 C839 0.929 . S
H830 C834 0.929 . S
H831 C840 0.929 . S
C832 H826 0.930 . S
C832 C833 1.367 . S
C832 C840 1.378 . S
C833 C832 1.367 . S
C833 C841 1.433 . S
C834 H830 0.929 . S
C834 C836 1.378 . S
C834 C838 1.350 . S
C835 C838 1.463 . S
C835 C840 1.350 . S
C835 N843 1.427 . S
C836 H827 0.930 . S
C836 C834 1.378 . S
C836 C837 1.367 . S
C837 C836 1.367 . S
C837 C839 1.433 . S
C838 C834 1.350 . S
C838 C835 1.463 . S
C838 N842 1.427 . S
C839 H829 0.929 . S
C839 C837 1.433 . S
C839 N842 1.384 . S
C840 H831 0.929 . S
C840 C832 1.378 . S
C840 C835 1.350 . S
C841 H828 0.929 . S
C841 C833 1.433 . S
C841 N843 1.384 . S
N842 C838 1.427 . S
N842 C839 1.384 . S
N843 C835 1.427 . S
N843 C841 1.384 . S
H844 C850 0.930 1_556 S
H845 C854 0.930 . S
H846 C859 0.929 . S
H847 C857 0.929 . S
H848 C852 0.929 . S
H849 C858 0.929 . S
C850 H844 0.930 1_554 S
C850 C851 1.367 1_554 S
C850 C858 1.378 . S
C851 C850 1.367 1_556 S
C851 C859 1.433 1_556 S
C852 H848 0.929 . S
C852 C854 1.378 . S
C852 C856 1.350 . S
C853 C856 1.463 . S
C853 C858 1.350 . S
C853 N861 1.427 . S
C854 H845 0.930 . S
C854 C852 1.378 . S
C854 C855 1.367 . S
C855 C854 1.367 . S
C855 C857 1.433 . S
C856 C852 1.350 . S
C856 C853 1.463 . S
C856 N860 1.427 . S
C857 H847 0.929 . S
C857 C855 1.433 . S
C857 N860 1.384 . S
C858 H849 0.929 . S
C858 C850 1.378 . S
C858 C853 1.350 . S
C859 H846 0.929 . S
C859 C851 1.433 1_554 S
C859 N861 1.384 . S
N860 C856 1.427 . S
N860 C857 1.384 . S
N861 C853 1.427 . S
N861 C859 1.384 . S
H862 C868 0.930 . S
H863 C872 0.930 . S
H864 C877 0.929 . S
H865 C875 0.929 . S
H866 C870 0.929 . S
H867 C876 0.929 . S
C868 H862 0.930 . S
C868 C869 1.367 . S
C868 C876 1.378 . S
C869 C868 1.367 . S
C869 C877 1.433 . S
C870 H866 0.929 . S
C870 C872 1.378 . S
C870 C874 1.350 . S
C871 C874 1.463 . S
C871 C876 1.350 . S
C871 N879 1.427 . S
C872 H863 0.930 . S
C872 C870 1.378 . S
C872 C873 1.367 . S
C873 C872 1.367 . S
C873 C875 1.433 . S
C874 C870 1.350 . S
C874 C871 1.463 . S
C874 N878 1.427 . S
C875 H865 0.929 . S
C875 C873 1.433 . S
C875 N878 1.384 . S
C876 H867 0.929 . S
C876 C868 1.378 . S
C876 C871 1.350 . S
C877 H864 0.929 . S
C877 C869 1.433 . S
C877 N879 1.384 . S
N878 C874 1.427 . S
N878 C875 1.384 . S
N879 C871 1.427 . S
N879 C877 1.384 . S
H880 C886 0.930 . S
H881 C890 0.930 . S
H882 C895 0.929 . S
H883 C893 0.929 . S
H884 C888 0.929 . S
H885 C894 0.929 . S
C886 H880 0.930 . S
C886 C887 1.367 . S
C886 C894 1.378 . S
C887 C886 1.367 . S
C887 C895 1.433 . S
C888 H884 0.929 . S
C888 C890 1.378 . S
C888 C892 1.350 . S
C889 C892 1.463 . S
C889 C894 1.350 . S
C889 N897 1.427 . S
C890 H881 0.930 . S
C890 C888 1.378 . S
C890 C891 1.367 . S
C891 C890 1.367 . S
C891 C893 1.433 . S
C892 C888 1.350 . S
C892 C889 1.463 . S
C892 N896 1.427 . S
C893 H883 0.929 . S
C893 C891 1.433 . S
C893 N896 1.384 . S
C894 H885 0.929 . S
C894 C886 1.378 . S
C894 C889 1.350 . S
C895 H882 0.929 . S
C895 C887 1.433 . S
C895 N897 1.384 . S
N896 C892 1.427 . S
N896 C893 1.384 . S
N897 C889 1.427 . S
N897 C895 1.384 . S
H898 C904 0.930 . S
H899 C908 0.930 . S
H900 C913 0.929 . S
H901 C911 0.929 . S
H902 C906 0.929 . S
H903 C912 0.929 . S
C904 H898 0.930 . S
C904 C905 1.367 . S
C904 C912 1.378 . S
C905 C904 1.367 . S
C905 C913 1.433 . S
C906 H902 0.929 . S
C906 C908 1.378 . S
C906 C910 1.350 . S
C907 C910 1.463 . S
C907 C912 1.350 . S
C907 N915 1.427 . S
C908 H899 0.930 . S
C908 C906 1.378 . S
C908 C909 1.367 . S
C909 C908 1.367 . S
C909 C911 1.433 . S
C910 C906 1.350 . S
C910 C907 1.463 . S
C910 N914 1.427 . S
C911 H901 0.929 . S
C911 C909 1.433 . S
C911 N914 1.384 . S
C912 H903 0.929 . S
C912 C904 1.378 . S
C912 C907 1.350 . S
C913 H900 0.929 . S
C913 C905 1.433 . S
C913 N915 1.384 . S
N914 C910 1.427 . S
N914 C911 1.384 . S
N915 C907 1.427 . S
N915 C913 1.384 . S
H916 C922 0.930 . S
H917 C926 0.930 . S
H918 C931 0.929 . S
H919 C929 0.929 . S
H920 C924 0.929 . S
H921 C930 0.929 . S
C922 H916 0.930 . S
C922 C923 1.367 . S
C922 C930 1.378 . S
C923 C922 1.367 . S
C923 C931 1.433 . S
C924 H920 0.929 . S
C924 C926 1.378 . S
C924 C928 1.350 . S
C925 C928 1.463 . S
C925 C930 1.350 . S
C925 N933 1.427 . S
C926 H917 0.930 . S
C926 C924 1.378 . S
C926 C927 1.367 . S
C927 C926 1.367 . S
C927 C929 1.433 . S
C928 C924 1.350 . S
C928 C925 1.463 . S
C928 N932 1.427 . S
C929 H919 0.929 . S
C929 C927 1.433 . S
C929 N932 1.384 . S
C930 H921 0.929 . S
C930 C922 1.378 . S
C930 C925 1.350 . S
C931 H918 0.929 . S
C931 C923 1.433 . S
C931 N933 1.384 . S
N932 C928 1.427 . S
N932 C929 1.384 . S
N933 C925 1.427 . S
N933 C931 1.384 . S
H934 C940 0.930 . S
H935 C944 0.930 . S
H936 C949 0.929 . S
H937 C947 0.929 . S
H938 C942 0.929 . S
H939 C948 0.929 . S
C940 H934 0.930 . S
C940 C941 1.367 . S
C940 C948 1.378 . S
C941 C940 1.367 . S
C941 C949 1.433 . S
C942 H938 0.929 . S
C942 C944 1.378 . S
C942 C946 1.350 . S
C943 C946 1.463 . S
C943 C948 1.350 . S
C943 N951 1.427 . S
C944 H935 0.930 . S
C944 C942 1.378 . S
C944 C945 1.367 . S
C945 C944 1.367 . S
C945 C947 1.433 . S
C946 C942 1.350 . S
C946 C943 1.463 . S
C946 N950 1.427 . S
C947 H937 0.929 . S
C947 C945 1.433 . S
C947 N950 1.384 . S
C948 H939 0.929 . S
C948 C940 1.378 . S
C948 C943 1.350 . S
C949 H936 0.929 . S
C949 C941 1.433 . S
C949 N951 1.384 . S
N950 C946 1.427 . S
N950 C947 1.384 . S
N951 C943 1.427 . S
N951 C949 1.384 . S
H952 C958 0.930 . S
H953 C962 0.934 . S
H954 C967 0.929 . S
H955 C965 0.929 . S
H956 C960 0.929 . S
H957 C966 0.929 . S
C958 H952 0.930 . S
C958 C959 1.367 . S
C958 C966 1.378 . S
C959 C958 1.367 . S
C959 C967 1.433 . S
C960 H956 0.929 . S
C960 C962 1.378 . S
C960 C964 1.350 . S
C961 C964 1.463 . S
C961 C966 1.350 . S
C961 N969 1.427 . S
C962 H953 0.934 . S
C962 C960 1.378 . S
C962 C963 1.367 . S
C963 C962 1.367 . S
C963 C965 1.433 . S
C964 C960 1.350 . S
C964 C961 1.463 . S
C964 N968 1.427 . S
C965 H955 0.929 . S
C965 C963 1.433 . S
C965 N968 1.384 . S
C966 H957 0.929 . S
C966 C958 1.378 . S
C966 C961 1.350 . S
C967 H954 0.929 . S
C967 C959 1.433 . S
C967 N969 1.384 . S
N968 C964 1.427 . S
N968 C965 1.384 . S
N969 C961 1.427 . S
N969 C967 1.384 . S
H970 C976 0.930 . S
H971 C980 0.930 . S
H972 C985 0.929 . S
H973 C983 0.929 . S
H974 C978 0.929 . S
H975 C984 0.929 . S
C976 H970 0.930 . S
C976 C977 1.367 . S
C976 C984 1.378 . S
C977 C976 1.367 . S
C977 C985 1.433 . S
C978 H974 0.929 . S
C978 C980 1.378 . S
C978 C982 1.350 . S
C979 C982 1.463 . S
C979 C984 1.350 . S
C979 N987 1.427 . S
C980 H971 0.930 . S
C980 C978 1.378 . S
C980 C981 1.367 . S
C981 C980 1.367 . S
C981 C983 1.433 . S
C982 C978 1.350 . S
C982 C979 1.463 . S
C982 N986 1.427 . S
C983 H973 0.929 . S
C983 C981 1.433 . S
C983 N986 1.384 . S
C984 H975 0.929 . S
C984 C976 1.378 . S
C984 C979 1.350 . S
C985 H972 0.929 . S
C985 C977 1.433 . S
C985 N987 1.384 . S
N986 C982 1.427 . S
N986 C983 1.384 . S
N987 C979 1.427 . S
N987 C985 1.384 . S
H988 C994 0.930 . S
H989 C998 0.930 . S
H990 C1003 0.929 . S
H991 C1001 0.929 . S
H992 C996 0.929 . S
H993 C1002 0.929 . S
C994 H988 0.930 . S
C994 C995 1.367 . S
C994 C1002 1.378 . S
C995 C994 1.367 . S
C995 C1003 1.433 . S
C996 H992 0.929 . S
C996 C998 1.378 . S
C996 C1000 1.350 . S
C997 C1000 1.463 . S
C997 C1002 1.350 . S
C997 N1005 1.427 . S
C998 H989 0.930 . S
C998 C996 1.378 . S
C998 C999 1.367 . S
C999 C998 1.367 . S
C999 C1001 1.433 . S
C1000 C996 1.350 . S
C1000 C997 1.463 . S
C1000 N1004 1.427 . S
C1001 H991 0.929 . S
C1001 C999 1.433 . S
C1001 N1004 1.384 . S
C1002 H993 0.929 . S
C1002 C994 1.378 . S
C1002 C997 1.350 . S
C1003 H990 0.929 . S
C1003 C995 1.433 . S
C1003 N1005 1.384 . S
N1004 C1000 1.427 . S
N1004 C1001 1.384 . S
N1005 C997 1.427 . S
N1005 C1003 1.384 . S
H1006 C1012 0.930 . S
H1007 C1016 0.930 . S
H1008 C1021 0.929 . S
H1009 C1019 0.929 . S
H1010 C1014 0.929 . S
H1011 C1020 0.929 . S
C1012 H1006 0.930 . S
C1012 C1013 1.367 . S
C1012 C1020 1.378 . S
C1013 C1012 1.367 . S
C1013 C1021 1.433 . S
C1014 H1010 0.929 . S
C1014 C1016 1.378 . S
C1014 C1018 1.350 . S
C1015 C1018 1.463 . S
C1015 C1020 1.350 . S
C1015 N1023 1.427 . S
C1016 H1007 0.930 . S
C1016 C1014 1.378 . S
C1016 C1017 1.367 . S
C1017 C1016 1.367 . S
C1017 C1019 1.433 . S
C1018 C1014 1.350 . S
C1018 C1015 1.463 . S
C1018 N1022 1.427 . S
C1019 H1009 0.929 . S
C1019 C1017 1.433 . S
C1019 N1022 1.384 . S
C1020 H1011 0.929 . S
C1020 C1012 1.378 . S
C1020 C1015 1.350 . S
C1021 H1008 0.929 . S
C1021 C1013 1.433 . S
C1021 N1023 1.384 . S
N1022 C1018 1.427 . S
N1022 C1019 1.384 . S
N1023 C1015 1.427 . S
N1023 C1021 1.384 . S
C599 C221 1.475 . S
C603 C312 1.477 . S
C621 C396 1.479 . S
C617 C241 1.442 . S
C639 C395 1.481 . S
C635 C157 1.461 . S
C653 C177 1.429 . S
C657 C311 1.481 . S
C675 C492 1.469 . S
C671 C93 1.443 . S
C693 C576 1.478 . S
C689 C113 1.479 . S
C707 C29 1.420 . S
C711 C575 1.478 . S
C725 C49 1.475 . S
C729 C491 1.482 . S
C747 C314 1.344 . S
C743 C61 1.502 . S
C765 C398 1.325 . S
C761 C17 1.463 . S
C783 C410 1.387 . S
C779 C125 1.527 . S
C801 C326 1.399 . S
C797 C81 1.487 . S
C819 C494 1.330 . S
C815 C189 1.455 . S
C833 C145 1.506 . S
C837 C578 1.333 . S
C855 C566 1.384 . S
C851 C253 1.480 . S
C869 C209 1.523 . S
C873 C482 1.386 . S
C891 C323 1.560 . S
C887 C23 1.506 . S
C909 C407 1.572 . S
C905 C55 1.557 . S
C923 C87 1.508 . S
C927 C408 1.541 . S
C945 C324 1.544 . S
C941 C119 1.548 . S
C963 C479 1.561 . S
C959 C151 1.557 . S
C977 C183 1.519 . S
C981 C563 1.573 . S
C995 C215 1.544 . S
C999 C564 1.534 . S
C1013 C247 1.501 . S
C1017 C480 1.546 . S
