# Generated by pormake.
# Topology anh, (6,3)-cn, num edge types: 1
# Building blocks:
#     Node 0, Type 0, BuildingBlock: GEDQOX_clean_sbu_0, # of connection points: 6
#     Node 1, Type 0, BuildingBlock: GEDQOX_clean_sbu_0, # of connection points: 6
#     Node 2, Type 0, BuildingBlock: GEDQOX_clean_sbu_0, # of connection points: 6
#     Node 3, Type 1, BuildingBlock: PAMTOO_clean_linker_0, # of connection points: 3
#     Node 4, Type 1, BuildingBlock: PAMTOO_clean_linker_0, # of connection points: 3
#     Node 5, Type 1, BuildingBlock: PAMTOO_clean_linker_0, # of connection points: 3
#     Node 6, Type 1, BuildingBlock: PAMTOO_clean_linker_0, # of connection points: 3
#     Node 7, Type 1, BuildingBlock: PAMTOO_clean_linker_0, # of connection points: 3
#     Node 8, Type 1, BuildingBlock: PAMTOO_clean_linker_0, # of connection points: 3
#     Edge 9, Type (0, 1), BuildingBlock: UVAHIK_clean_linker_0, # of connection points: 2
#     Edge 10, Type (0, 1), BuildingBlock: UVAHIK_clean_linker_0, # of connection points: 2
#     Edge 11, Type (0, 1), BuildingBlock: UVAHIK_clean_linker_0, # of connection points: 2
#     Edge 12, Type (0, 1), BuildingBlock: UVAHIK_clean_linker_0, # of connection points: 2
#     Edge 13, Type (0, 1), BuildingBlock: UVAHIK_clean_linker_0, # of connection points: 2
#     Edge 14, Type (0, 1), BuildingBlock: UVAHIK_clean_linker_0, # of connection points: 2
#     Edge 15, Type (0, 1), BuildingBlock: UVAHIK_clean_linker_0, # of connection points: 2
#     Edge 16, Type (0, 1), BuildingBlock: UVAHIK_clean_linker_0, # of connection points: 2
#     Edge 17, Type (0, 1), BuildingBlock: UVAHIK_clean_linker_0, # of connection points: 2
#     Edge 18, Type (0, 1), BuildingBlock: UVAHIK_clean_linker_0, # of connection points: 2
#     Edge 19, Type (0, 1), BuildingBlock: UVAHIK_clean_linker_0, # of connection points: 2
#     Edge 20, Type (0, 1), BuildingBlock: UVAHIK_clean_linker_0, # of connection points: 2
#     Edge 21, Type (0, 1), BuildingBlock: UVAHIK_clean_linker_0, # of connection points: 2
#     Edge 22, Type (0, 1), BuildingBlock: UVAHIK_clean_linker_0, # of connection points: 2
#     Edge 23, Type (0, 1), BuildingBlock: UVAHIK_clean_linker_0, # of connection points: 2
#     Edge 24, Type (0, 1), BuildingBlock: UVAHIK_clean_linker_0, # of connection points: 2
#     Edge 25, Type (0, 1), BuildingBlock: UVAHIK_clean_linker_0, # of connection points: 2
#     Edge 26, Type (0, 1), BuildingBlock: UVAHIK_clean_linker_0, # of connection points: 2
# Relax obj value: 0.136
# Max RMSD: 0.176
# Mean RMSD: 0.124
data_MOF--net-anh--node1-GEDQOX_clean_sbu_0--node2-PAMTOO_clean_linker_0--edge1-UVAHIK_clean_linker_0
_symmetry_space_group_name_H-M    P1
_symmetry_Int_Tables_number       1
_symmetry_cell_setting            triclinic
loop_
_symmetry_equiv_pos_as_xyz
'x, y, z'
_cell_length_a     39.889065
_cell_length_b     38.677055
_cell_length_c     64.297332
_cell_angle_alpha  89.202361
_cell_angle_beta   92.512469
_cell_angle_gamma 106.15901
loop_
_atom_site_label
_atom_site_type_symbol
_atom_site_fract_x
_atom_site_fract_y
_atom_site_fract_z
_atom_type_partial_charge
Nd0 Nd 0.09778 0.54271 0.13875 0.0
Nd1 Nd 0.07714 0.46266 0.145 0.0
C2 C 0.12694 0.60979 0.12701 0.0
C3 C 0.16047 0.63715 0.13153 0.0
C4 C 0.17839 0.65769 0.11525 0.0
C5 C 0.21029 0.68361 0.11926 0.0
C6 C 0.22486 0.68965 0.13969 0.0
C7 C 0.20681 0.66878 0.15596 0.0
C8 C 0.17507 0.6427 0.15191 0.0
C9 C 0.09074 0.52216 0.1796 0.0
C10 C 0.16082 0.49961 0.14237 0.0
C11 C 1.04902 0.39611 0.15812 0.0
C12 C 1.01393 0.37084 0.16076 0.0
C13 C 1.00177 0.36216 0.18087 0.0
C14 C 0.96909 0.33782 0.18377 0.0
C15 C 0.94788 0.32132 0.16661 0.0
C16 C 0.96007 0.32991 0.14647 0.0
C17 C 0.99272 0.35444 0.14356 0.0
C18 C 0.08484 0.48483 0.10435 0.0
C19 C 1.01397 0.50469 0.13917 0.0
O20 O 0.12844 0.58184 0.11625 0.0
O21 O 0.10545 0.60125 0.14225 0.0
O22 O 0.08078 0.54881 0.17166 0.0
O23 O 0.10534 0.50811 0.16635 0.0
O24 O 0.15152 0.52894 0.13665 0.0
O25 O 0.13692 0.47056 0.14864 0.0
O26 O 0.05826 0.42398 0.17056 0.0
O27 O 0.05921 0.40392 0.13913 0.0
O28 O 0.09506 0.45783 0.11172 0.0
O29 O 0.06994 0.49756 0.11793 0.0
O30 O 1.02339 0.47651 0.14689 0.0
O31 O 1.03809 0.53274 0.13195 0.0
H32 H 0.16775 0.6536 0.09939 0.0
H33 H 0.22368 0.69866 0.10628 0.0
H34 H 0.21688 0.67292 0.17191 0.0
H35 H 0.16192 0.62701 0.16476 0.0
H36 H 1.01769 0.37404 0.19443 0.0
H37 H 0.96071 0.33139 0.1995 0.0
H38 H 0.94424 0.31787 0.13292 0.0
H39 H 1.00131 0.36041 0.12783 0.0
Nd40 Nd 0.56116 0.99132 0.51109 0.0
Nd41 Nd 0.63614 0.01189 0.49965 0.0
C42 C 0.49886 0.96094 0.52581 0.0
C43 C 0.47124 0.92737 0.52124 0.0
C44 C 0.44967 0.90984 0.53702 0.0
C45 C 0.42351 0.87782 0.53283 0.0
C46 C 0.41835 0.86276 0.5127 0.0
C47 C 0.44031 0.88045 0.49697 0.0
C48 C 0.46658 0.91227 0.50122 0.0
C49 C 0.57097 0.99903 0.46907 0.0
C50 C 0.6004 0.92737 0.50423 0.0
C51 C 0.69683 0.04012 0.48242 0.0
C52 C 0.72356 0.07499 0.48037 0.0
C53 C 0.73578 0.08636 0.46062 0.0
C54 C 0.76213 0.11846 0.45823 0.0
C55 C 0.77707 0.13986 0.47562 0.0
C56 C 0.76429 0.12871 0.4954 0.0
C57 C 0.73775 0.09662 0.49775 0.0
C58 C 0.62672 1.00253 0.5416 0.0
C59 C 0.59805 0.07575 0.50908 0.0
O60 O 0.52784 0.95723 0.53463 0.0
O61 O 0.50436 0.98538 0.51113 0.0
O62 O 0.54781 0.01013 0.47841 0.0
O63 O 0.5871 0.9835 0.4816 0.0
O64 O 0.57555 0.93732 0.51341 0.0
O65 O 0.62523 0.95116 0.4946 0.0
O66 O 0.6667 0.03676 0.47254 0.0
O67 O 0.69383 0.02482 0.50077 0.0
O68 O 0.65034 0.99257 0.53193 0.0
O69 O 0.61028 0.01851 0.52948 0.0
O70 O 0.622 0.06638 0.49859 0.0
O71 O 0.574 0.05125 0.51883 0.0
H72 H 0.45311 0.92087 0.55262 0.0
H73 H 0.40757 0.8647 0.54543 0.0
H74 H 0.4369 0.87004 0.48124 0.0
H75 H 0.48316 0.92521 0.48882 0.0
H76 H 0.7251 0.07021 0.44698 0.0
H77 H 0.77074 0.12652 0.44272 0.0
H78 H 0.77533 0.14432 0.50914 0.0
H79 H 0.7287 0.08855 0.51319 0.0
Nd80 Nd 0.5636 0.47029 0.81705 0.0
Nd81 Nd 0.63778 0.49414 0.83229 0.0
C82 C 0.50187 0.46217 0.79792 0.0
C83 C 0.47425 0.48078 0.79848 0.0
C84 C 0.44108 0.46199 0.80517 0.0
C85 C 0.41572 0.47998 0.80795 0.0
C86 C 0.42296 0.51706 0.80388 0.0
C87 C 0.45562 0.53554 0.79628 0.0
C88 C 0.48108 0.51761 0.79367 0.0
C89 C 0.57262 0.46843 0.85982 0.0
C90 C 0.5993 0.5562 0.82693 0.0
C91 C 0.7002 0.50399 0.85081 0.0
C92 C 0.73372 0.49731 0.84611 0.0
C93 C 0.75003 0.47936 0.86069 0.0
C94 C 0.78311 0.47537 0.8572 0.0
C95 C 0.80068 0.48963 0.83913 0.0
C96 C 0.78359 0.50636 0.82418 0.0
C97 C 0.75041 0.51001 0.82758 0.0
C98 C 0.62946 0.49634 0.78963 0.0
C99 C 0.60119 0.40791 0.82264 0.0
O100 O 0.53133 0.47974 0.78981 0.0
O101 O 0.5065 0.44447 0.81477 0.0
O102 O 0.5494 0.44423 0.84921 0.0
O103 O 0.5888 0.49318 0.8481 0.0
O104 O 0.5763 0.53244 0.81519 0.0
O105 O 0.62282 0.54608 0.83871 0.0
O106 O 0.67398 0.47586 0.85435 0.0
O107 O 0.69102 0.5286 0.83966 0.0
O108 O 0.65303 0.51983 0.80037 0.0
O109 O 0.61295 0.47146 0.80116 0.0
O110 O 0.62434 0.43162 0.83441 0.0
O111 O 0.57739 0.41796 0.81112 0.0
H112 H 0.43514 0.43355 0.80885 0.0
H113 H 0.39063 0.46505 0.81365 0.0
H114 H 0.46202 0.5642 0.79322 0.0
H115 H 0.5064 0.53288 0.78847 0.0
H116 H 0.7375 0.46909 0.875 0.0
H117 H 0.7952 0.46175 0.86888 0.0
H118 H 0.79638 0.51809 0.81021 0.0
H119 H 0.73833 0.52373 0.81594 0.0
H120 H 0.64625 0.0641 0.24961 0.0
H121 H 0.55761 0.97221 0.2387 0.0
H122 H 0.61276 0.02832 0.1869 0.0
H123 H 0.53648 1.00251 0.17722 0.0
C124 C 0.52962 0.98363 0.19057 0.0
O125 O 0.55953 0.97551 0.1981 0.0
H126 H 0.51875 0.99707 0.20277 0.0
C127 C 0.62843 0.04588 0.23881 0.0
C128 C 0.6332 0.04982 0.21727 0.0
C129 C 0.60146 0.01791 0.24668 0.0
C130 C 0.57884 0.99366 0.23285 0.0
C131 C 0.58273 0.99775 0.21133 0.0
C132 C 0.6101 0.02544 0.20358 0.0
H133 H 0.60538 0.57266 0.56922 0.0
H134 H 0.61467 0.46638 0.55777 0.0
H135 H 0.60733 0.53637 0.50635 0.0
H136 H 0.58037 0.45233 0.49257 0.0
C137 C 0.58426 0.44634 0.50931 0.0
O138 O 0.61314 0.47213 0.51738 0.0
H139 H 0.56005 0.44732 0.51704 0.0
C140 C 0.60689 0.55192 0.55841 0.0
C141 C 0.60566 0.55868 0.53689 0.0
C142 C 0.61029 0.51888 0.56617 0.0
C143 C 0.61188 0.492 0.55211 0.0
C144 C 0.6108 0.49824 0.53062 0.0
C145 C 0.60808 0.53171 0.523 0.0
H146 H 0.13016 0.60239 0.89331 0.0
H147 H 0.19102 0.708 0.9126 0.0
H148 H 0.157 0.68853 0.84852 0.0
H149 H 0.23928 0.76198 0.88906 0.0
C150 C 0.22748 0.75174 0.87358 0.0
O151 O 0.19188 0.73673 0.87536 0.0
H152 H 0.23155 0.77551 0.8631 0.0
C153 C 0.14419 0.62979 0.88935 0.0
C154 C 0.14152 0.64229 0.86889 0.0
C155 C 0.16196 0.65315 0.90524 0.0
C156 C 0.17759 0.68943 0.90048 0.0
C157 C 0.17656 0.70179 0.87994 0.0
C158 C 0.15862 0.6783 0.8642 0.0
H159 H 1.04362 0.44131 0.39908 0.0
H160 H 0.13596 0.52894 0.41046 0.0
H161 H 0.07816 0.475 0.46197 0.0
H162 H 0.10594 0.55313 0.4693 0.0
C163 C 0.12523 0.55931 0.45684 0.0
O164 O 0.13176 0.52763 0.45096 0.0
H165 H 0.11386 0.57142 0.44344 0.0
C166 C 0.06183 0.45896 0.40997 0.0
C167 C 0.05722 0.45453 0.4315 0.0
C168 C 0.09016 0.4855 0.40224 0.0
C169 C 0.11428 0.50791 0.41622 0.0
C170 C 0.10968 0.50431 0.4377 0.0
C171 C 0.08151 0.47737 0.44533 0.0
H172 H 0.6024 0.91063 0.76223 0.0
H173 H 0.61393 0.0233 0.77198 0.0
H174 H 0.60824 0.95232 0.82448 0.0
H175 H 0.58266 0.02028 0.83614 0.0
C176 C 0.58636 0.02917 0.81968 0.0
O177 O 0.61457 0.01936 0.81246 0.0
H178 H 0.56177 0.01528 0.81079 0.0
C179 C 0.60478 0.93298 0.77271 0.0
C180 C 0.60456 0.92688 0.79432 0.0
C181 C 0.60829 0.96756 0.76442 0.0
C182 C 0.61104 0.99638 0.77804 0.0
C183 C 0.61104 0.99094 0.79962 0.0
C184 C 0.60818 0.95629 0.80777 0.0
H185 H 0.65928 0.49724 0.08397 0.0
H186 H 0.55258 0.49889 0.08886 0.0
H187 H 0.61851 0.5043 0.14436 0.0
H188 H 0.52956 0.46488 0.14845 0.0
C189 C 0.52434 0.47716 0.13336 0.0
O190 O 0.55392 0.5052 0.1289 0.0
H191 H 0.5201 0.45553 0.12148 0.0
C192 C 0.63792 0.49848 0.09355 0.0
C193 C 0.64362 0.50103 0.11527 0.0
C194 C 0.60528 0.49716 0.08393 0.0
C195 C 0.57752 0.49878 0.09622 0.0
C196 C 0.58149 0.50101 0.11797 0.0
C197 C 0.61479 0.50178 0.12762 0.0
C198 C 0.2099 0.46907 0.14802 0.0
C199 C 0.19889 0.49941 0.14165 0.0
C200 C 0.24522 0.46873 0.14713 0.0
C201 C 0.33136 0.51678 0.1231 0.0
H202 H 0.36986 0.46288 0.16429 0.0
C203 C 0.47055 0.49248 0.11599 0.0
C204 C 0.49009 0.48852 0.13425 0.0
C205 C 0.4362 0.4961 0.11682 0.0
C206 C 0.35997 0.47846 0.15267 0.0
H207 H 0.21788 0.55342 0.12927 0.0
H208 H 0.2789 0.55296 0.12785 0.0
H209 H 0.30952 0.46462 0.16609 0.0
H210 H 0.48829 0.48654 0.16783 0.0
H211 H 0.42944 0.49357 0.16939 0.0
H212 H 0.38205 0.53097 0.10985 0.0
C213 C 0.26016 0.52902 0.13337 0.0
C214 C 0.32473 0.47905 0.15355 0.0
C215 C 0.22483 0.5294 0.13433 0.0
C216 C 0.47443 0.4897 0.15339 0.0
C217 C 0.44014 0.49322 0.15424 0.0
C218 C 0.36661 0.51605 0.12217 0.0
C219 C 0.27127 0.49867 0.13976 0.0
C220 C 0.30949 0.49821 0.13879 0.0
C221 C 0.41984 0.49574 0.13597 0.0
C222 C 0.38183 0.49692 0.13696 0.0
H223 H 0.1911 0.44527 0.15368 0.0
H224 H 0.25192 0.44448 0.15196 0.0
H225 H 0.32115 0.53164 0.11121 0.0
H226 H 0.4813 0.49121 0.10093 0.0
H227 H 0.42197 0.4977 0.10228 0.0
C228 C 0.83213 0.17427 0.45872 0.0
C229 C 0.8062 0.17328 0.47304 0.0
C230 C 0.85896 0.20574 0.45574 0.0
C231 C 0.90706 0.29227 0.4797 0.0
H232 H 0.92962 0.32013 0.4227 0.0
C233 C 1.03102 0.40379 0.45606 0.0
C234 C 1.02694 0.42599 0.43918 0.0
C235 C 1.00319 0.37467 0.46178 0.0
C236 C 0.9235 0.31291 0.43871 0.0
H237 H 0.78866 0.2048 0.49569 0.0
H238 H 0.83592 0.25972 0.49063 0.0
H239 H 0.88312 0.2658 0.42955 0.0
H240 H 0.98973 0.43655 0.41606 0.0
H241 H 0.94145 0.38583 0.42593 0.0
H242 H 0.94763 0.33961 0.48878 0.0
C243 C 0.83538 0.23594 0.48177 0.0
C244 C 0.89709 0.28155 0.44264 0.0
C245 C 0.80833 0.20444 0.48467 0.0
C246 C 0.99401 0.41945 0.42881 0.0
C247 C 0.96632 0.3904 0.43447 0.0
C248 C 0.93377 0.3236 0.47576 0.0
C249 C 0.86076 0.23702 0.4671 0.0
C250 C 0.8886 0.27078 0.46316 0.0
C251 C 0.97077 0.36719 0.45071 0.0
C252 C 0.94223 0.33428 0.4552 0.0
H253 H 0.83187 0.15059 0.44985 0.0
H254 H 0.87848 0.20551 0.44459 0.0
H255 H 0.90123 0.28454 0.49568 0.0
H256 H 0.0561 0.408 0.4643 0.0
H257 H 1.00748 0.35717 0.4743 0.0
C258 C 0.62296 0.62067 0.83877 0.0
C259 C 0.59841 0.59447 0.82682 0.0
C260 C 0.6227 0.65688 0.83802 0.0
C261 C 0.56651 0.71628 0.82216 0.0
H262 H 0.65457 0.7906 0.82003 0.0
C263 C 0.57584 0.86032 0.79298 0.0
C264 C 0.60085 0.88965 0.80231 0.0
C265 C 0.57449 0.82494 0.79866 0.0
C266 C 0.62974 0.77028 0.82094 0.0
H267 H 0.5541 0.58606 0.8048 0.0
H268 H 0.55386 0.64885 0.80333 0.0
H269 H 0.65446 0.72784 0.82462 0.0
H270 H 0.64342 0.90469 0.82546 0.0
H271 H 0.64097 0.84266 0.83556 0.0
H272 H 0.5418 0.75864 0.81809 0.0
C273 C 0.57309 0.64149 0.81354 0.0
C274 C 0.62966 0.73419 0.82357 0.0
C275 C 0.57336 0.60537 0.81428 0.0
C276 C 0.62375 0.8827 0.81804 0.0
C277 C 0.62257 0.84715 0.82365 0.0
C278 C 0.5666 0.75231 0.8195 0.0
C279 C 0.59783 0.66785 0.82531 0.0
C280 C 0.59803 0.70659 0.82391 0.0
C281 C 0.59819 0.81778 0.81383 0.0
C282 C 0.59819 0.77979 0.81854 0.0
H283 H 0.6426 0.6133 0.84863 0.0
H284 H 0.64191 0.67625 0.8475 0.0
H285 H 0.54164 0.69596 0.8228 0.0
H286 H 0.55762 0.86474 0.78093 0.0
H287 H 0.55557 0.80314 0.7906 0.0
C288 C 0.96468 0.53339 0.12962 0.0
C289 C 0.97565 0.50435 0.13821 0.0
C290 C 0.92908 0.53317 0.12875 0.0
C291 C 0.83662 0.4716 0.13344 0.0
H292 H 0.8129 0.56183 0.13657 0.0
C293 C 0.68964 0.47614 0.13454 0.0
C294 C 0.68062 0.50437 0.12364 0.0
C295 C 0.72511 0.47623 0.13798 0.0
C296 C 0.81871 0.53623 0.13543 0.0
H297 H 0.95632 0.45206 0.1527 0.0
H298 H 0.89494 0.45179 0.15147 0.0
H299 H 0.87386 0.56158 0.13878 0.0
H300 H 0.70267 0.55492 0.10798 0.0
H301 H 0.76356 0.55556 0.11414 0.0
H302 H 0.78129 0.44631 0.13011 0.0
C303 C 0.91375 0.47479 0.14504 0.0
C304 C 0.85418 0.53608 0.13667 0.0
C305 C 0.94938 0.47503 0.14589 0.0
C306 C 0.70836 0.53307 0.11687 0.0
C307 C 0.74362 0.53333 0.12039 0.0
C308 C 0.80107 0.47175 0.13224 0.0
C309 C 0.90266 0.50389 0.13647 0.0
C310 C 0.86412 0.50381 0.13555 0.0
C311 C 0.75296 0.50463 0.13068 0.0
C312 C 0.79123 0.50411 0.13304 0.0
H313 H 0.98369 0.55651 0.12342 0.0
H314 H 0.92233 0.556 0.12166 0.0
H315 H 0.84243 0.44602 0.1322 0.0
H316 H 0.66923 0.45311 0.13957 0.0
H317 H 0.73062 0.45366 0.14616 0.0
C318 C 0.35743 0.82253 0.51725 0.0
C319 C 0.38999 0.82906 0.50804 0.0
C320 C 0.33057 0.79136 0.51251 0.0
C321 C 0.29889 0.72283 0.4719 0.0
H322 H 0.24234 0.66863 0.51531 0.0
C323 C 0.1894 0.592 0.45366 0.0
C324 C 0.1584 0.58655 0.46437 0.0
C325 C 0.21919 0.61953 0.45965 0.0
C326 C 0.25761 0.68364 0.50295 0.0
H327 H 0.41984 0.80708 0.48696 0.0
H328 H 0.37271 0.75314 0.47841 0.0
H329 H 0.2911 0.72077 0.5245 0.0
H330 H 0.1338 0.60646 0.48914 0.0
H331 H 0.18537 0.65482 0.4994 0.0
H332 H 0.265 0.68645 0.45026 0.0
C333 C 0.36799 0.77238 0.4892 0.0
C334 C 0.28562 0.71349 0.50825 0.0
C335 C 0.39497 0.8034 0.49407 0.0
C336 C 0.15763 0.60948 0.48097 0.0
C337 C 0.18728 0.63713 0.48688 0.0
C338 C 0.27071 0.69315 0.46657 0.0
C339 C 0.33546 0.76605 0.49832 0.0
C340 C 0.30645 0.73355 0.49278 0.0
C341 C 0.21845 0.64268 0.47624 0.0
C342 C 0.24951 0.67327 0.48201 0.0
H343 H 0.35235 0.84189 0.5278 0.0
H344 H 0.30564 0.7875 0.51959 0.0
H345 H 0.3142 0.738 0.45959 0.0
H346 H 0.19048 0.5752 0.44051 0.0
H347 H 0.24276 0.62274 0.4512 0.0
C348 C 0.62425 0.3567 0.83572 0.0
C349 C 0.60218 0.36973 0.82195 0.0
C350 C 0.62442 0.32047 0.83515 0.0
C351 C 0.57047 0.23061 0.81604 0.0
H352 H 0.65602 0.20288 0.82597 0.0
C353 C 0.57525 0.08479 0.8028 0.0
C354 C 0.59244 0.06954 0.81841 0.0
C355 C 0.5784 0.12178 0.80271 0.0
C356 C 0.63185 0.21015 0.82331 0.0
H357 H 0.56354 0.35481 0.79645 0.0
H358 H 0.56436 0.29232 0.79516 0.0
H359 H 0.65754 0.26644 0.82702 0.0
H360 H 0.62788 0.0812 0.84545 0.0
H361 H 0.63358 0.146 0.84532 0.0
H362 H 0.54483 0.17445 0.81218 0.0
C363 C 0.58098 0.30969 0.80679 0.0
C364 C 0.63268 0.24665 0.82397 0.0
C365 C 0.58066 0.34575 0.80744 0.0
C366 C 0.61419 0.0923 0.83334 0.0
C367 C 0.61751 0.12939 0.83319 0.0
C368 C 0.56969 0.19425 0.81525 0.0
C369 C 0.60262 0.29636 0.82073 0.0
C370 C 0.60198 0.25744 0.82029 0.0
C371 C 0.5991 0.14451 0.81811 0.0
C372 C 0.60035 0.18348 0.81882 0.0
H373 H 0.64113 0.37437 0.84713 0.0
H374 H 0.64117 0.31124 0.8463 0.0
H375 H 0.54612 0.23759 0.81359 0.0
H376 H 0.55868 0.06793 0.79094 0.0
H377 H 0.5644 0.13257 0.79062 0.0
C378 C 0.62584 0.87664 0.49548 0.0
C379 C 0.60018 0.88881 0.50508 0.0
C380 C 0.62604 0.84046 0.49712 0.0
C381 C 0.59516 0.76061 0.5308 0.0
H382 H 0.61327 0.70668 0.48425 0.0
C383 C 0.57704 0.6086 0.53801 0.0
C384 C 0.60209 0.59422 0.52949 0.0
C385 C 0.57614 0.64373 0.53333 0.0
C386 C 0.60853 0.72144 0.49747 0.0
H387 H 0.55412 0.87198 0.52356 0.0
H388 H 0.55451 0.80935 0.52635 0.0
H389 H 0.61363 0.7697 0.47946 0.0
H390 H 0.64506 0.60503 0.50871 0.0
H391 H 0.64389 0.66684 0.50065 0.0
H392 H 0.59051 0.71296 0.54894 0.0
C393 C 0.57476 0.82778 0.51776 0.0
C394 C 0.60872 0.75759 0.49471 0.0
C395 C 0.57445 0.86377 0.51605 0.0
C396 C 0.62533 0.61533 0.51541 0.0
C397 C 0.62462 0.65076 0.51082 0.0
C398 C 0.59513 0.72469 0.53358 0.0
C399 C 0.60073 0.81566 0.50852 0.0
C400 C 0.60168 0.77752 0.51132 0.0
C401 C 0.60051 0.66572 0.52012 0.0
C402 C 0.60142 0.70439 0.51693 0.0
H403 H 0.64603 0.89513 0.48689 0.0
H404 H 0.64655 0.83211 0.48991 0.0
H405 H 0.59042 0.7753 0.54407 0.0
H406 H 0.55842 0.5928 0.54866 0.0
H407 H 0.55652 0.65381 0.54033 0.0
C408 C 0.85059 0.48695 0.81698 0.0
C409 C 0.83776 0.49014 0.83672 0.0
C410 C 0.88639 0.49252 0.81451 0.0
C411 C 0.97088 0.50215 0.84387 0.0
H412 H 1.00869 0.5758 0.80303 0.0
C413 C 0.09111 0.63269 0.84317 0.0
C414 C 0.11629 0.61909 0.85374 0.0
C415 C 0.06134 0.6093 0.83377 0.0
C416 C 0.99861 0.55491 0.81435 0.0
H417 H 0.85269 0.5004 0.86942 0.0
H418 H 0.91454 0.50946 0.86517 0.0
H419 H 0.94609 0.54611 0.8022 0.0
H420 H 0.13238 0.57086 0.86041 0.0
H421 H 0.08045 0.52992 0.84377 0.0
H422 H 1.02268 0.51283 0.85711 0.0
C423 C 0.89699 0.50231 0.8516 0.0
C424 C 0.96276 0.53765 0.81376 0.0
C425 C 0.86137 0.49706 0.85404 0.0
C426 C 0.11303 0.58201 0.85269 0.0
C427 C 0.08327 0.55858 0.84322 0.0
C428 C 1.00663 0.5194 0.84448 0.0
C429 C 0.91003 0.50099 0.83176 0.0
C430 C 0.94834 0.51236 0.82916 0.0
C431 C 0.05619 0.57182 0.83469 0.0
C432 C 1.02067 0.54724 0.83035 0.0
H433 H 0.83307 0.481 0.80334 0.0
H434 H 0.89568 0.49101 0.79906 0.0
H435 H 0.96056 0.48231 0.85572 0.0
H436 H 0.09271 0.66108 0.8438 0.0
H437 H 1.041 0.62054 0.82749 0.0
C438 C 0.26633 0.75074 0.13321 0.0
C439 C 0.25847 0.71783 0.14409 0.0
C440 C 0.29747 0.77748 0.13764 0.0
C441 C 0.36454 0.80996 0.1792 0.0
H442 H 0.41918 0.863 0.13472 0.0
C443 C 0.49505 0.91876 0.1963 0.0
C444 C 0.50179 0.94999 0.18395 0.0
C445 C 0.46723 0.8887 0.19098 0.0
C446 C 0.40406 0.84875 0.14735 0.0
H447 H 0.27797 0.68713 0.16789 0.0
H448 H 0.3319 0.73413 0.17589 0.0
H449 H 0.36693 0.81413 0.12628 0.0
H450 H 0.48398 0.97481 0.15686 0.0
H451 H 0.43513 0.92279 0.14772 0.0
H452 H 0.40097 0.84504 0.20029 0.0
C453 C 0.31375 0.73923 0.16401 0.0
C454 C 0.37415 0.82067 0.14249 0.0
C455 C 0.28275 0.71234 0.15945 0.0
C456 C 0.47989 0.95074 0.16635 0.0
C457 C 0.45197 0.92084 0.1611 0.0
C458 C 0.39429 0.83823 0.18407 0.0
C459 C 0.32142 0.77213 0.15319 0.0
C460 C 0.35393 0.8011 0.15835 0.0
C461 C 0.44512 0.88943 0.17338 0.0
C462 C 0.41435 0.85819 0.16821 0.0
H463 H 0.24808 0.75625 0.12154 0.0
H464 H 0.30241 0.80274 0.12923 0.0
H465 H 0.34926 0.79566 0.19177 0.0
H466 H 0.51108 0.91774 0.21022 0.0
H467 H 0.46299 0.86493 0.20072 0.0
C468 C 0.57571 0.1253 0.52295 0.0
C469 C 0.59863 0.11435 0.5102 0.0
C470 C 0.5758 0.16149 0.5238 0.0
C471 C 0.62898 0.25469 0.5112 0.0
H472 H 0.54043 0.27673 0.51513 0.0
C473 C 0.61237 0.39846 0.49861 0.0
C474 C 0.58945 0.40915 0.51144 0.0
C475 C 0.61525 0.36314 0.49945 0.0
C476 C 0.56546 0.2711 0.51429 0.0
H477 H 0.63977 0.13322 0.48836 0.0
H478 H 0.63945 0.19611 0.48951 0.0
H479 H 0.54174 0.21424 0.51434 0.0
H480 H 0.55283 0.39184 0.53592 0.0
H481 H 0.55777 0.3302 0.53745 0.0
H482 H 0.65252 0.31178 0.51078 0.0
C483 C 0.62177 0.17684 0.49917 0.0
C484 C 0.56624 0.23515 0.51386 0.0
C485 C 0.62181 0.14063 0.49841 0.0
C486 C 0.57041 0.3842 0.52568 0.0
C487 C 0.57312 0.34886 0.52645 0.0
C488 C 0.62816 0.2907 0.51151 0.0
C489 C 0.59866 0.18781 0.51182 0.0
C490 C 0.59801 0.22635 0.51234 0.0
C491 C 0.59519 0.33769 0.51314 0.0
C492 C 0.59638 0.29939 0.51309 0.0
H493 H 0.55765 0.10591 0.53237 0.0
H494 H 0.55805 0.16885 0.53402 0.0
H495 H 0.65402 0.24912 0.51034 0.0
H496 H 0.62742 0.41726 0.48756 0.0
H497 H 0.63236 0.35548 0.4889 0.0
C498 C 0.39045 0.56287 0.79542 0.0
C499 C 0.39774 0.53704 0.80914 0.0
C500 C 0.36897 0.58381 0.80132 0.0
C501 C 0.34453 0.6216 0.84759 0.0
H502 H 0.26736 0.63746 0.81367 0.0
C503 C 0.25756 0.70277 0.87908 0.0
C504 C 0.24563 0.7256 0.8653 0.0
C505 C 0.27388 0.67816 0.87162 0.0
C506 C 0.28914 0.63374 0.82321 0.0
H507 H 0.38795 0.51247 0.8396 0.0
H508 H 0.35074 0.54926 0.84995 0.0
H509 H 0.29986 0.59724 0.80126 0.0
H510 H 0.24029 0.74012 0.83297 0.0
H511 H 0.27047 0.69832 0.81986 0.0
H512 H 0.33508 0.65879 0.8692 0.0
C513 C 0.36148 0.55315 0.83463 0.0
C514 C 0.30757 0.61057 0.81613 0.0
C515 C 0.38252 0.53194 0.82864 0.0
C516 C 0.24973 0.72302 0.84388 0.0
C517 C 0.26664 0.69879 0.8364 0.0
C518 C 0.32653 0.6451 0.85452 0.0
C519 C 0.35493 0.57961 0.82115 0.0
C520 C 0.33525 0.60412 0.82835 0.0
C521 C 0.27917 0.67621 0.85022 0.0
C522 C 0.2984 0.65131 0.84253 0.0
H523 H 0.40174 0.56719 0.78025 0.0
H524 H 0.36439 0.60416 0.79069 0.0
H525 H 0.36619 0.61755 0.85714 0.0
H526 H 0.25415 0.70393 0.89565 0.0
H527 H 0.28225 0.66059 0.88269 0.0
C528 C 0.90301 0.26253 0.15848 0.0
C529 C 0.91345 0.29485 0.16983 0.0
C530 C 0.87134 0.23692 0.16225 0.0
C531 C 0.80634 0.20876 0.20294 0.0
H532 H 0.74805 0.15304 0.15843 0.0
C533 C 0.67088 0.11373 0.21836 0.0
C534 C 0.66247 0.07929 0.20936 0.0
C535 C 0.70007 0.1407 0.21227 0.0
C536 C 0.7642 0.1682 0.17103 0.0
H537 H 0.89809 0.32623 0.19344 0.0
H538 H 0.84279 0.28185 0.19989 0.0
H539 H 0.80166 0.19906 0.15018 0.0
H540 H 0.67765 0.04657 0.18642 0.0
H541 H 0.72872 0.09381 0.17573 0.0
H542 H 0.76906 0.17799 0.22379 0.0
C543 C 0.85942 0.27583 0.18841 0.0
C544 C 0.79494 0.19455 0.16632 0.0
C545 C 0.89112 0.30132 0.18469 0.0
C546 C 0.68326 0.07289 0.19355 0.0
C547 C 0.71253 0.09995 0.18743 0.0
C548 C 0.77564 0.18257 0.20763 0.0
C549 C 0.8493 0.2431 0.17742 0.0
C550 C 0.81638 0.2152 0.18223 0.0
C551 C 0.72163 0.13398 0.197 0.0
C552 C 0.75414 0.16199 0.19175 0.0
H553 H 0.9198 0.25655 0.14708 0.0
H554 H 0.86461 0.21186 0.15368 0.0
H555 H 0.82254 0.22356 0.21564 0.0
H556 H 0.65498 0.11981 0.23026 0.0
H557 H 0.70589 0.16684 0.21963 0.0
C558 C 0.11179 0.48728 0.06974 0.0
C559 C 0.0934 0.50165 0.08384 0.0
C560 C 0.12108 0.50443 0.05069 0.0
C561 C 0.09983 0.57182 0.01446 0.0
H562 H 0.18942 0.57545 -0.008 0.0
C563 C 0.16836 0.60677 0.93149 0.0
C564 C 0.16134 0.63978 0.92695 0.0
C565 C 0.16335 0.59173 0.95138 0.0
C566 C 0.16429 0.57454 -0.00191 0.0
H567 H 0.07013 0.54499 0.08917 0.0
H568 H 0.08712 0.57544 0.05637 0.0
H569 H 0.17321 0.54473 0.02505 0.0
H570 H 0.1447 0.68352 0.93976 0.0
H571 H 0.13585 0.65717 0.9746 0.0
H572 H 0.09115 0.60198 0.98761 0.0
C573 C 0.09379 0.55057 0.05966 0.0
C574 C 0.15488 0.55677 0.01695 0.0
C575 C 0.08423 0.53324 0.07854 0.0
C576 C 0.15053 0.65817 0.94289 0.0
C577 C 0.14516 0.64295 0.96273 0.0
C578 C 0.1094 0.58987 -0.00424 0.0
C579 C 0.11235 0.53643 0.04546 0.0
C580 C 0.12248 0.55512 0.02535 0.0
C581 C 0.15086 0.60925 0.96704 0.0
C582 C 0.14167 0.59135 0.98736 0.0
H583 H 0.11912 0.46289 0.07346 0.0
H584 H 0.13487 0.49247 0.04001 0.0
H585 H 0.07439 0.57051 0.0202 0.0
H586 H 0.17687 0.59215 0.91947 0.0
H587 H 0.1678 0.56566 0.95424 0.0
C588 C 0.56208 0.02503 0.43425 0.0
C589 C 0.57516 1.00088 0.44639 0.0
C590 C 0.56574 0.0267 0.41271 0.0
C591 C 0.57176 0.97385 0.36802 0.0
H592 H 0.61642 0.06463 0.34152 0.0
C593 C 0.5977 0.98289 0.27995 0.0
C594 C 0.59687 0.01461 0.26938 0.0
C595 C 0.59532 0.98071 0.3016 0.0
C596 C 0.60326 0.03913 0.34853 0.0
H597 H 0.60219 0.95946 0.44571 0.0
H598 H 0.60757 0.96159 0.40781 0.0
H599 H 0.61143 0.06199 0.37917 0.0
H600 H 0.5917 0.06842 0.27278 0.0
H601 H 0.58565 0.06421 0.31032 0.0
H602 H 0.56208 0.95107 0.33752 0.0
C603 C 0.59485 0.97943 0.41505 0.0
C604 C 0.60072 0.03767 0.37014 0.0
C605 C 0.59189 0.97832 0.43666 0.0
C606 C 0.59273 0.04379 0.28068 0.0
C607 C 0.58961 0.0414 0.30223 0.0
C608 C 0.57362 0.97542 0.34634 0.0
C609 C 0.58189 1.00371 0.40292 0.0
C610 C 0.585 0.00503 0.38006 0.0
C611 C 0.59136 0.01001 0.31309 0.0
C612 C 0.5894 0.00811 0.33625 0.0
H613 H 0.54919 0.04278 0.44141 0.0
H614 H 0.55545 0.04555 0.40363 0.0
H615 H 0.55924 0.94843 0.37537 0.0
H616 H 0.60116 0.96015 0.27152 0.0
H617 H 0.59737 0.95629 0.30932 0.0
C618 C 0.64755 0.52456 0.75536 0.0
C619 C 0.62662 0.49594 0.76668 0.0
C620 C 0.64558 0.5243 0.73364 0.0
C621 C 0.58897 0.48352 0.68828 0.0
H622 H 0.67456 0.51968 0.65878 0.0
C623 C 0.59337 0.4809 0.59816 0.0
C624 C 0.61284 0.51301 0.58899 0.0
C625 C 0.59511 0.47616 0.61977 0.0
C626 C 0.65041 0.50968 0.6668 0.0
H627 H 0.58692 0.44475 0.76427 0.0
H628 H 0.58373 0.44399 0.72616 0.0
H629 H 0.67714 0.51623 0.69665 0.0
H630 H 0.6501 0.56487 0.59518 0.0
H631 H 0.65299 0.55671 0.63279 0.0
H632 H 0.56231 0.47712 0.65829 0.0
C633 C 0.60145 0.46683 0.73409 0.0
C634 C 0.65186 0.50778 0.6885 0.0
C635 C 0.60338 0.46714 0.75589 0.0
C636 C 0.6345 0.53998 0.60181 0.0
C637 C 0.63643 0.53516 0.62334 0.0
C638 C 0.58754 0.4853 0.66651 0.0
C639 C 0.6227 0.49534 0.72271 0.0
C640 C 0.62113 0.4952 0.69954 0.0
C641 C 0.61664 0.50329 0.63258 0.0
C642 C 0.61822 0.4989 0.65556 0.0
H643 H 0.66549 0.54725 0.7633 0.0
H644 H 0.66179 0.54705 0.7254 0.0
H645 H 0.56477 0.47403 0.69628 0.0
H646 H 0.57632 0.45973 0.58866 0.0
H647 H 0.57975 0.45121 0.62644 0.0
C648 C 0.64202 0.98051 0.57637 0.0
C649 C 0.62259 0.99919 0.5643 0.0
C650 C 0.63856 0.97741 0.59788 0.0
C651 C 0.61192 0.01961 0.64285 0.0
H652 H 0.60806 0.92817 0.66956 0.0
C653 C 0.5904 0.99434 0.73127 0.0
C654 C 0.60966 0.9733 0.74153 0.0
C655 C 0.59066 0.99818 0.70958 0.0
C656 C 0.6095 0.95402 0.6624 0.0
H657 H 0.58413 0.02916 0.56514 0.0
H658 H 0.5781 0.0238 0.6029 0.0
H659 H 0.61044 0.9332 0.63185 0.0
H660 H 0.64553 0.9412 0.73721 0.0
H661 H 0.64629 0.94813 0.69956 0.0
H662 H 0.61146 0.04055 0.67349 0.0
C663 C 0.59618 0.01176 0.59571 0.0
C664 C 0.61079 0.95686 0.64076 0.0
C665 C 0.59951 0.01468 0.57412 0.0
C666 C 0.62983 0.95696 0.72972 0.0
C667 C 0.63019 0.96088 0.70812 0.0
C668 C 0.61076 0.01681 0.66456 0.0
C669 C 0.61565 0.99302 0.60782 0.0
C670 C 0.6124 0.98976 0.63074 0.0
C671 C 0.61029 0.98115 0.69772 0.0
C672 C 0.60995 0.98406 0.67461 0.0
H673 H 0.66001 0.96832 0.5692 0.0
H674 H 0.65425 0.96319 0.60679 0.0
H675 H 0.61345 0.04542 0.63559 0.0
H676 H 0.57442 0.00707 0.73995 0.0
H677 H 0.57483 0.01376 0.70206 0.0
C678 C 0.6025 0.49709 0.89275 0.0
C679 C 0.57576 0.47019 0.8828 0.0
C680 C 0.60508 0.49957 0.91447 0.0
C681 C 0.57562 0.44781 0.96273 0.0
H682 H 0.60359 0.54255 0.98798 0.0
C683 C 0.571 0.47013 0.05148 0.0
C684 C 0.60047 0.49462 0.06086 0.0
C685 C 0.56712 0.46701 0.02978 0.0
C686 C 0.596 0.5159 0.98117 0.0
H687 H 0.5309 0.42458 0.8877 0.0
H688 H 0.53485 0.42928 0.92563 0.0
H689 H 0.59849 0.53706 0.9502 0.0
H690 H 0.64853 0.53564 0.0548 0.0
H691 H 0.64178 0.5302 0.01697 0.0
H692 H 0.57278 0.42677 -0.00618 0.0
C693 C 0.55425 0.44816 0.91673 0.0
C694 C 0.59317 0.51271 0.95948 0.0
C695 C 0.55183 0.44555 0.89498 0.0
C696 C 0.6257 0.51628 0.04805 0.0
C697 C 0.62167 0.51339 0.02638 0.0
C698 C 0.57821 0.45102 0.98444 0.0
C699 C 0.58082 0.47534 0.92677 0.0
C700 C 0.58317 0.47862 0.94994 0.0
C701 C 0.59244 0.48858 0.01698 0.0
C702 C 0.58864 0.48511 -0.00609 0.0
H703 H 0.6215 0.51628 0.88374 0.0
H704 H 0.62631 0.52038 0.9216 0.0
H705 H 0.56834 0.42112 0.95599 0.0
H706 H 0.55123 0.45293 0.06094 0.0
H707 H 0.54416 0.44787 0.023 0.0
C708 C 0.06845 0.52663 0.21459 0.0
C709 C 0.09101 0.51474 0.20214 0.0
C710 C 0.06997 0.5225 0.23615 0.0
C711 C 0.10556 0.4758 0.27929 0.0
H712 H 0.08714 0.55168 0.31189 0.0
C713 C 0.12381 0.48851 0.36987 0.0
C714 C 0.09343 0.4904 0.3795 0.0
C715 C 0.12584 0.49149 0.3482 0.0
C716 C 0.09235 0.53033 0.30296 0.0
H717 H 0.13235 0.48844 0.20228 0.0
H718 H 0.13609 0.48235 0.2402 0.0
H719 H 0.08656 0.55634 0.27411 0.0
H720 H 1.0418 0.49763 0.37433 0.0
H721 H 1.04575 0.50398 0.33653 0.0
H722 H 0.11222 0.45047 0.30854 0.0
C723 C 0.11662 0.4942 0.23331 0.0
C724 C 0.09172 0.53275 0.28128 0.0
C725 C 0.11462 0.49777 0.21159 0.0
C726 C 0.06544 0.49601 0.36721 0.0
C727 C 0.06775 0.49974 0.34566 0.0
C728 C 0.1068 0.47372 0.30107 0.0
C729 C 0.09464 0.50705 0.2459 0.0
C730 C 0.09757 0.50517 0.26909 0.0
C731 C 0.09783 0.49725 0.33594 0.0
C732 C 0.09958 0.50068 0.31304 0.0
H733 H 1.04967 0.53937 0.20764 0.0
H734 H 1.0518 0.53165 0.24517 0.0
H735 H 0.10991 0.45389 0.27049 0.0
H736 H 0.14562 0.48402 0.37908 0.0
H737 H 0.14934 0.48964 0.34101 0.0
loop_
_geom_bond_atom_site_label_1
_geom_bond_atom_site_label_2
_geom_bond_distance
_geom_bond_site_symmetry_2
_ccdc_geom_bond_type
Nd0 C2 2.836 . S
Nd0 O20 2.500 . S
Nd0 O21 2.492 . S
Nd0 O22 2.487 . S
Nd0 O23 2.687 . S
Nd0 O24 2.410 . S
Nd0 O29 2.414 . S
Nd0 O31 2.424 1_455 S
Nd1 C11 2.836 . S
Nd1 O23 2.417 1_655 S
Nd1 O25 2.424 1_655 S
Nd1 O26 2.500 . S
Nd1 O27 2.492 . S
Nd1 O28 2.487 . S
Nd1 O29 2.682 1_655 S
Nd1 O30 2.410 . S
C2 Nd0 2.836 . S
C2 C3 1.498 . S
C2 O20 1.258 . S
C2 O21 1.239 . S
C3 C2 1.498 . S
C3 C4 1.366 . S
C3 C8 1.407 . S
C4 C3 1.366 . S
C4 C5 1.392 . S
C4 H32 0.930 . S
C5 C4 1.392 . S
C5 C6 1.398 . S
C5 H33 0.929 . S
C6 C5 1.398 . S
C6 C7 1.352 . S
C7 C6 1.352 . S
C7 C8 1.384 . S
C7 H34 0.930 . S
C8 C3 1.407 . S
C8 C7 1.384 . S
C8 H35 0.929 . S
C9 O22 1.241 . S
C9 O23 1.275 . S
C10 O24 1.251 . S
C10 O25 1.268 . S
C11 Nd1 2.836 . S
C11 C12 1.498 . S
C11 O26 1.258 . S
C11 O27 1.239 . S
C12 C11 1.498 . S
C12 C13 1.366 . S
C12 C17 1.407 . S
C13 C12 1.366 . S
C13 C14 1.392 . S
C13 H36 0.930 . S
C14 C13 1.392 . S
C14 C15 1.398 . S
C14 H37 0.929 . S
C15 C14 1.398 . S
C15 C16 1.352 . S
C16 C15 1.352 . S
C16 C17 1.384 . S
C16 H38 0.930 . S
C17 C12 1.407 . S
C17 C16 1.384 . S
C17 H39 0.929 . S
C18 O28 1.241 1_455 S
C18 O29 1.273 . S
C19 O30 1.251 . S
C19 O31 1.268 . S
O20 Nd0 2.500 . S
O20 C2 1.258 . S
O21 Nd0 2.492 . S
O21 C2 1.239 . S
O22 Nd0 2.487 . S
O22 C9 1.241 . S
O23 Nd0 2.687 . S
O23 Nd1 2.417 1_455 S
O23 C9 1.275 . S
O24 Nd0 2.410 . S
O24 C10 1.251 . S
O25 Nd1 2.424 1_455 S
O25 C10 1.268 . S
O26 Nd1 2.500 . S
O26 C11 1.258 . S
O27 Nd1 2.492 . S
O27 C11 1.239 . S
O28 Nd1 2.487 . S
O28 C18 1.241 1_655 S
O29 Nd0 2.414 . S
O29 Nd1 2.682 1_455 S
O29 C18 1.273 . S
O30 Nd1 2.410 . S
O30 C19 1.251 . S
O31 Nd0 2.424 1_655 S
O31 C19 1.268 . S
H32 C4 0.930 . S
H33 C5 0.929 . S
H34 C7 0.930 . S
H35 C8 0.929 . S
H36 C13 0.930 . S
H37 C14 0.929 . S
H38 C16 0.930 . S
H39 C17 0.929 . S
Nd40 C42 2.836 . S
Nd40 O60 2.500 . S
Nd40 O61 2.492 . S
Nd40 O62 2.487 . S
Nd40 O63 2.682 1_565 S
Nd40 O64 2.410 . S
Nd40 O69 2.414 . S
Nd40 O71 2.424 1_565 S
Nd41 C51 2.836 . S
Nd41 O63 2.414 . S
Nd41 O65 2.424 1_545 S
Nd41 O66 2.500 . S
Nd41 O67 2.492 . S
Nd41 O68 2.487 . S
Nd41 O69 2.682 1_545 S
Nd41 O70 2.410 . S
C42 Nd40 2.836 . S
C42 C43 1.498 . S
C42 O60 1.258 . S
C42 O61 1.239 . S
C43 C42 1.498 . S
C43 C44 1.366 . S
C43 C48 1.407 . S
C44 C43 1.366 . S
C44 C45 1.392 . S
C44 H72 0.930 . S
C45 C44 1.392 . S
C45 C46 1.398 . S
C45 H73 0.929 . S
C46 C45 1.398 . S
C46 C47 1.352 . S
C47 C46 1.352 . S
C47 C48 1.384 . S
C47 H74 0.930 . S
C48 C43 1.407 . S
C48 C47 1.384 . S
C48 H75 0.929 . S
C49 O62 1.241 1_545 S
C49 O63 1.273 . S
C50 O64 1.251 . S
C50 O65 1.268 . S
C51 Nd41 2.836 . S
C51 C52 1.498 . S
C51 O66 1.258 . S
C51 O67 1.239 . S
C52 C51 1.498 . S
C52 C53 1.366 . S
C52 C57 1.407 . S
C53 C52 1.366 . S
C53 C54 1.392 . S
C53 H76 0.930 . S
C54 C53 1.392 . S
C54 C55 1.398 . S
C54 H77 0.929 . S
C55 C54 1.398 . S
C55 C56 1.352 . S
C56 C55 1.352 . S
C56 C57 1.384 . S
C56 H78 0.930 . S
C57 C52 1.407 . S
C57 C56 1.384 . S
C57 H79 0.929 . S
C58 O68 1.241 . S
C58 O69 1.273 1_545 S
C59 O70 1.251 . S
C59 O71 1.268 . S
O60 Nd40 2.500 . S
O60 C42 1.258 . S
O61 Nd40 2.492 . S
O61 C42 1.239 . S
O62 Nd40 2.487 . S
O62 C49 1.241 1_565 S
O63 Nd40 2.682 1_545 S
O63 Nd41 2.414 . S
O63 C49 1.273 . S
O64 Nd40 2.410 . S
O64 C50 1.251 . S
O65 Nd41 2.424 1_565 S
O65 C50 1.268 . S
O66 Nd41 2.500 . S
O66 C51 1.258 . S
O67 Nd41 2.492 . S
O67 C51 1.239 . S
O68 Nd41 2.487 . S
O68 C58 1.241 . S
O69 Nd40 2.414 . S
O69 Nd41 2.682 1_565 S
O69 C58 1.273 1_565 S
O70 Nd41 2.410 . S
O70 C59 1.251 . S
O71 Nd40 2.424 1_545 S
O71 C59 1.268 . S
H72 C44 0.930 . S
H73 C45 0.929 . S
H74 C47 0.930 . S
H75 C48 0.929 . S
H76 C53 0.930 . S
H77 C54 0.929 . S
H78 C56 0.930 . S
H79 C57 0.929 . S
Nd80 C82 2.836 . S
Nd80 O100 2.500 . S
Nd80 O101 2.492 . S
Nd80 O102 2.487 . S
Nd80 O103 2.682 . S
Nd80 O104 2.410 . S
Nd80 O109 2.414 . S
Nd80 O111 2.424 . S
Nd81 C91 2.836 . S
Nd81 O103 2.414 . S
Nd81 O105 2.424 . S
Nd81 O106 2.500 . S
Nd81 O107 2.492 . S
Nd81 O108 2.487 . S
Nd81 O109 2.682 . S
Nd81 O110 2.410 . S
C82 Nd80 2.836 . S
C82 C83 1.498 . S
C82 O100 1.258 . S
C82 O101 1.239 . S
C83 C82 1.498 . S
C83 C84 1.366 . S
C83 C88 1.407 . S
C84 C83 1.366 . S
C84 C85 1.392 . S
C84 H112 0.930 . S
C85 C84 1.392 . S
C85 C86 1.398 . S
C85 H113 0.929 . S
C86 C85 1.398 . S
C86 C87 1.352 . S
C87 C86 1.352 . S
C87 C88 1.384 . S
C87 H114 0.930 . S
C88 C83 1.407 . S
C88 C87 1.384 . S
C88 H115 0.929 . S
C89 O102 1.241 . S
C89 O103 1.273 . S
C90 O104 1.251 . S
C90 O105 1.268 . S
C91 Nd81 2.836 . S
C91 C92 1.498 . S
C91 O106 1.258 . S
C91 O107 1.239 . S
C92 C91 1.498 . S
C92 C93 1.366 . S
C92 C97 1.407 . S
C93 C92 1.366 . S
C93 C94 1.392 . S
C93 H116 0.930 . S
C94 C93 1.392 . S
C94 C95 1.398 . S
C94 H117 0.929 . S
C95 C94 1.398 . S
C95 C96 1.352 . S
C96 C95 1.352 . S
C96 C97 1.384 . S
C96 H118 0.930 . S
C97 C92 1.407 . S
C97 C96 1.384 . S
C97 H119 0.929 . S
C98 O108 1.241 . S
C98 O109 1.273 . S
C99 O110 1.251 . S
C99 O111 1.268 . S
O100 Nd80 2.500 . S
O100 C82 1.258 . S
O101 Nd80 2.492 . S
O101 C82 1.239 . S
O102 Nd80 2.487 . S
O102 C89 1.241 . S
O103 Nd80 2.682 . S
O103 Nd81 2.414 . S
O103 C89 1.273 . S
O104 Nd80 2.410 . S
O104 C90 1.251 . S
O105 Nd81 2.424 . S
O105 C90 1.268 . S
O106 Nd81 2.500 . S
O106 C91 1.258 . S
O107 Nd81 2.492 . S
O107 C91 1.239 . S
O108 Nd81 2.487 . S
O108 C98 1.241 . S
O109 Nd80 2.414 . S
O109 Nd81 2.682 . S
O109 C98 1.273 . S
O110 Nd81 2.410 . S
O110 C99 1.251 . S
O111 Nd80 2.424 . S
O111 C99 1.268 . S
H112 C84 0.930 . S
H113 C85 0.929 . S
H114 C87 0.930 . S
H115 C88 0.929 . S
H116 C93 0.930 . S
H117 C94 0.929 . S
H118 C96 0.930 . S
H119 C97 0.929 . S
H120 C127 0.929 . S
H121 C130 0.930 . S
H122 C132 0.929 . S
H123 C124 0.969 . S
C124 H123 0.969 . S
C124 O125 1.550 . S
C124 H126 0.973 . S
O125 C124 1.550 . S
O125 C131 1.412 . S
H126 C124 0.973 . S
C127 H120 0.929 . S
C127 C128 1.400 . S
C127 C129 1.364 . S
C128 C127 1.400 . S
C128 C132 1.377 . S
C129 C127 1.364 . S
C129 C130 1.374 1_545 S
C130 H121 0.930 . S
C130 C129 1.374 1_565 S
C130 C131 1.383 . S
C131 O125 1.412 . S
C131 C130 1.383 . S
C131 C132 1.394 1_565 S
C132 H122 0.929 . S
C132 C128 1.377 . S
C132 C131 1.394 1_545 S
H133 C140 0.929 . S
H134 C143 0.930 . S
H135 C145 0.929 . S
H136 C137 0.969 . S
C137 H136 0.969 . S
C137 O138 1.550 . S
C137 H139 0.973 . S
O138 C137 1.550 . S
O138 C144 1.412 . S
H139 C137 0.973 . S
C140 H133 0.929 . S
C140 C141 1.400 . S
C140 C142 1.364 . S
C141 C140 1.400 . S
C141 C145 1.377 . S
C142 C140 1.364 . S
C142 C143 1.374 . S
C143 H134 0.930 . S
C143 C142 1.374 . S
C143 C144 1.383 . S
C144 O138 1.412 . S
C144 C143 1.383 . S
C144 C145 1.394 . S
C145 H135 0.929 . S
C145 C141 1.377 . S
C145 C144 1.394 . S
H146 C153 0.929 . S
H147 C156 0.930 . S
H148 C158 0.929 . S
H149 C150 0.969 . S
C150 H149 0.969 . S
C150 O151 1.550 . S
C150 H152 0.973 . S
O151 C150 1.550 . S
O151 C157 1.412 . S
H152 C150 0.973 . S
C153 H146 0.929 . S
C153 C154 1.400 . S
C153 C155 1.364 . S
C154 C153 1.400 . S
C154 C158 1.377 . S
C155 C153 1.364 . S
C155 C156 1.374 . S
C156 H147 0.930 . S
C156 C155 1.374 . S
C156 C157 1.383 . S
C157 O151 1.412 . S
C157 C156 1.383 . S
C157 C158 1.394 . S
C158 H148 0.929 . S
C158 C154 1.377 . S
C158 C157 1.394 . S
H159 C166 0.929 . S
H160 C169 0.930 . S
H161 C171 0.929 . S
H162 C163 0.969 . S
C163 H162 0.969 . S
C163 O164 1.550 . S
C163 H165 0.973 . S
O164 C163 1.550 . S
O164 C170 1.412 . S
H165 C163 0.973 . S
C166 H159 0.929 . S
C166 C167 1.400 . S
C166 C168 1.363 1_655 S
C167 C166 1.400 . S
C167 C171 1.377 1_655 S
C168 C166 1.363 1_455 S
C168 C169 1.374 . S
C169 H160 0.930 . S
C169 C168 1.374 . S
C169 C170 1.383 . S
C170 O164 1.412 . S
C170 C169 1.383 . S
C170 C171 1.394 . S
C171 H161 0.929 . S
C171 C167 1.377 1_455 S
C171 C170 1.394 . S
H172 C179 0.929 . S
H173 C182 0.930 . S
H174 C184 0.929 . S
H175 C176 0.969 . S
C176 H175 0.969 . S
C176 O177 1.550 . S
C176 H178 0.973 . S
O177 C176 1.550 . S
O177 C183 1.412 . S
H178 C176 0.973 . S
C179 H172 0.929 . S
C179 C180 1.400 . S
C179 C181 1.364 1_565 S
C180 C179 1.400 . S
C180 C184 1.377 . S
C181 C179 1.364 1_545 S
C181 C182 1.374 . S
C182 H173 0.930 . S
C182 C181 1.374 . S
C182 C183 1.383 . S
C183 O177 1.412 . S
C183 C182 1.383 . S
C183 C184 1.394 1_545 S
C184 H174 0.929 . S
C184 C180 1.377 . S
C184 C183 1.394 1_565 S
H185 C192 0.929 . S
H186 C195 0.930 . S
H187 C197 0.929 . S
H188 C189 0.969 . S
C189 H188 0.969 . S
C189 O190 1.550 . S
C189 H191 0.973 . S
O190 C189 1.550 . S
O190 C196 1.412 . S
H191 C189 0.973 . S
C192 H185 0.929 . S
C192 C193 1.400 . S
C192 C194 1.364 . S
C193 C192 1.400 . S
C193 C197 1.377 . S
C194 C192 1.364 . S
C194 C195 1.374 . S
C195 H186 0.930 . S
C195 C194 1.374 . S
C195 C196 1.383 . S
C196 O190 1.412 . S
C196 C195 1.383 . S
C196 C197 1.394 . S
C197 H187 0.929 . S
C197 C193 1.377 . S
C197 C196 1.394 . S
C198 C199 1.349 . S
C198 C200 1.327 . S
C198 H223 0.950 . S
C199 C198 1.349 . S
C199 C215 1.349 . S
C200 C198 1.327 . S
C200 C219 1.429 . S
C200 H224 0.950 . S
C201 C218 1.574 . S
C201 C220 1.368 . S
C201 H225 0.949 . S
H202 C206 0.949 . S
C203 C204 1.349 . S
C203 C205 1.327 . S
C203 H226 0.950 . S
C204 C203 1.349 . S
C204 C216 1.349 . S
C205 C203 1.327 . S
C205 C221 1.429 . S
C205 H227 0.950 . S
C206 H202 0.949 . S
C206 C214 1.574 . S
C206 C222 1.368 . S
H207 C215 0.950 . S
H208 C213 0.950 . S
H209 C214 0.949 . S
H210 C216 0.950 . S
H211 C217 0.950 . S
H212 C218 0.949 . S
C213 H208 0.950 . S
C213 C215 1.327 . S
C213 C219 1.429 . S
C214 C206 1.574 . S
C214 H209 0.949 . S
C214 C220 1.368 . S
C215 C199 1.349 . S
C215 H207 0.950 . S
C215 C213 1.327 . S
C216 C204 1.349 . S
C216 H210 0.950 . S
C216 C217 1.327 . S
C217 H211 0.950 . S
C217 C216 1.327 . S
C217 C221 1.429 . S
C218 C201 1.574 . S
C218 H212 0.949 . S
C218 C222 1.368 . S
C219 C200 1.429 . S
C219 C213 1.429 . S
C219 C220 1.523 . S
C220 C201 1.368 . S
C220 C214 1.368 . S
C220 C219 1.523 . S
C221 C205 1.429 . S
C221 C217 1.429 . S
C221 C222 1.523 . S
C222 C206 1.368 . S
C222 C218 1.368 . S
C222 C221 1.523 . S
H223 C198 0.950 . S
H224 C200 0.950 . S
H225 C201 0.949 . S
H226 C203 0.950 . S
H227 C205 0.950 . S
C228 C229 1.349 . S
C228 C230 1.327 . S
C228 H253 0.950 . S
C229 C228 1.349 . S
C229 C245 1.349 . S
C230 C228 1.327 . S
C230 C249 1.429 . S
C230 H254 0.950 . S
C231 C248 1.574 . S
C231 C250 1.368 . S
C231 H255 0.949 . S
H232 C236 0.949 . S
C233 C234 1.349 . S
C233 C235 1.327 . S
C233 H256 0.950 . S
C234 C233 1.349 . S
C234 C246 1.349 . S
C235 C233 1.327 . S
C235 C251 1.429 . S
C235 H257 0.950 . S
C236 H232 0.949 . S
C236 C244 1.574 . S
C236 C252 1.368 . S
H237 C245 0.950 . S
H238 C243 0.950 . S
H239 C244 0.949 . S
H240 C246 0.950 . S
H241 C247 0.950 . S
H242 C248 0.949 . S
C243 H238 0.950 . S
C243 C245 1.327 . S
C243 C249 1.429 . S
C244 C236 1.574 . S
C244 H239 0.949 . S
C244 C250 1.368 . S
C245 C229 1.349 . S
C245 H237 0.950 . S
C245 C243 1.327 . S
C246 C234 1.349 . S
C246 H240 0.950 . S
C246 C247 1.327 . S
C247 H241 0.950 . S
C247 C246 1.327 . S
C247 C251 1.429 . S
C248 C231 1.574 . S
C248 H242 0.949 . S
C248 C252 1.368 . S
C249 C230 1.429 . S
C249 C243 1.429 . S
C249 C250 1.523 . S
C250 C231 1.368 . S
C250 C244 1.368 . S
C250 C249 1.523 . S
C251 C235 1.429 . S
C251 C247 1.429 . S
C251 C252 1.523 . S
C252 C236 1.368 . S
C252 C248 1.368 . S
C252 C251 1.523 . S
H253 C228 0.950 . S
H254 C230 0.950 . S
H255 C231 0.949 . S
H256 C233 0.950 . S
H257 C235 0.950 . S
C258 C259 1.349 . S
C258 C260 1.327 . S
C258 H283 0.950 . S
C259 C258 1.349 . S
C259 C275 1.349 . S
C260 C258 1.327 . S
C260 C279 1.429 . S
C260 H284 0.950 . S
C261 C278 1.574 . S
C261 C280 1.368 . S
C261 H285 0.949 . S
H262 C266 0.949 . S
C263 C264 1.349 . S
C263 C265 1.327 . S
C263 H286 0.950 . S
C264 C263 1.349 . S
C264 C276 1.349 . S
C265 C263 1.327 . S
C265 C281 1.429 . S
C265 H287 0.950 . S
C266 H262 0.949 . S
C266 C274 1.574 . S
C266 C282 1.368 . S
H267 C275 0.950 . S
H268 C273 0.950 . S
H269 C274 0.949 . S
H270 C276 0.950 . S
H271 C277 0.950 . S
H272 C278 0.949 . S
C273 H268 0.950 . S
C273 C275 1.327 . S
C273 C279 1.429 . S
C274 C266 1.574 . S
C274 H269 0.949 . S
C274 C280 1.368 . S
C275 C259 1.349 . S
C275 H267 0.950 . S
C275 C273 1.327 . S
C276 C264 1.349 . S
C276 H270 0.950 . S
C276 C277 1.327 . S
C277 H271 0.950 . S
C277 C276 1.327 . S
C277 C281 1.429 . S
C278 C261 1.574 . S
C278 H272 0.949 . S
C278 C282 1.368 . S
C279 C260 1.429 . S
C279 C273 1.429 . S
C279 C280 1.523 . S
C280 C261 1.368 . S
C280 C274 1.368 . S
C280 C279 1.523 . S
C281 C265 1.429 . S
C281 C277 1.429 . S
C281 C282 1.523 . S
C282 C266 1.368 . S
C282 C278 1.368 . S
C282 C281 1.523 . S
H283 C258 0.950 . S
H284 C260 0.950 . S
H285 C261 0.949 . S
H286 C263 0.950 . S
H287 C265 0.950 . S
C288 C289 1.349 . S
C288 C290 1.327 . S
C288 H313 0.950 . S
C289 C288 1.349 . S
C289 C305 1.349 . S
C290 C288 1.327 . S
C290 C309 1.429 . S
C290 H314 0.950 . S
C291 C308 1.574 . S
C291 C310 1.368 . S
C291 H315 0.949 . S
H292 C296 0.949 . S
C293 C294 1.349 . S
C293 C295 1.327 . S
C293 H316 0.950 . S
C294 C293 1.349 . S
C294 C306 1.349 . S
C295 C293 1.327 . S
C295 C311 1.429 . S
C295 H317 0.950 . S
C296 H292 0.949 . S
C296 C304 1.574 . S
C296 C312 1.368 . S
H297 C305 0.950 . S
H298 C303 0.950 . S
H299 C304 0.949 . S
H300 C306 0.950 . S
H301 C307 0.950 . S
H302 C308 0.949 . S
C303 H298 0.950 . S
C303 C305 1.327 . S
C303 C309 1.429 . S
C304 C296 1.574 . S
C304 H299 0.949 . S
C304 C310 1.368 . S
C305 C289 1.349 . S
C305 H297 0.950 . S
C305 C303 1.327 . S
C306 C294 1.349 . S
C306 H300 0.950 . S
C306 C307 1.327 . S
C307 H301 0.950 . S
C307 C306 1.327 . S
C307 C311 1.429 . S
C308 C291 1.574 . S
C308 H302 0.949 . S
C308 C312 1.368 . S
C309 C290 1.429 . S
C309 C303 1.429 . S
C309 C310 1.523 . S
C310 C291 1.368 . S
C310 C304 1.368 . S
C310 C309 1.523 . S
C311 C295 1.429 . S
C311 C307 1.429 . S
C311 C312 1.523 . S
C312 C296 1.368 . S
C312 C308 1.368 . S
C312 C311 1.523 . S
H313 C288 0.950 . S
H314 C290 0.950 . S
H315 C291 0.949 . S
H316 C293 0.950 . S
H317 C295 0.950 . S
C318 C319 1.349 . S
C318 C320 1.327 . S
C318 H343 0.950 . S
C319 C318 1.349 . S
C319 C335 1.349 . S
C320 C318 1.327 . S
C320 C339 1.429 . S
C320 H344 0.950 . S
C321 C338 1.574 . S
C321 C340 1.368 . S
C321 H345 0.949 . S
H322 C326 0.949 . S
C323 C324 1.349 . S
C323 C325 1.327 . S
C323 H346 0.950 . S
C324 C323 1.349 . S
C324 C336 1.349 . S
C325 C323 1.327 . S
C325 C341 1.429 . S
C325 H347 0.950 . S
C326 H322 0.949 . S
C326 C334 1.574 . S
C326 C342 1.368 . S
H327 C335 0.950 . S
H328 C333 0.950 . S
H329 C334 0.949 . S
H330 C336 0.950 . S
H331 C337 0.950 . S
H332 C338 0.949 . S
C333 H328 0.950 . S
C333 C335 1.327 . S
C333 C339 1.429 . S
C334 C326 1.574 . S
C334 H329 0.949 . S
C334 C340 1.368 . S
C335 C319 1.349 . S
C335 H327 0.950 . S
C335 C333 1.327 . S
C336 C324 1.349 . S
C336 H330 0.950 . S
C336 C337 1.327 . S
C337 H331 0.950 . S
C337 C336 1.327 . S
C337 C341 1.429 . S
C338 C321 1.574 . S
C338 H332 0.949 . S
C338 C342 1.368 . S
C339 C320 1.429 . S
C339 C333 1.429 . S
C339 C340 1.523 . S
C340 C321 1.368 . S
C340 C334 1.368 . S
C340 C339 1.523 . S
C341 C325 1.429 . S
C341 C337 1.429 . S
C341 C342 1.523 . S
C342 C326 1.368 . S
C342 C338 1.368 . S
C342 C341 1.523 . S
H343 C318 0.950 . S
H344 C320 0.950 . S
H345 C321 0.949 . S
H346 C323 0.950 . S
H347 C325 0.950 . S
C348 C349 1.349 . S
C348 C350 1.327 . S
C348 H373 0.950 . S
C349 C348 1.349 . S
C349 C365 1.349 . S
C350 C348 1.327 . S
C350 C369 1.429 . S
C350 H374 0.950 . S
C351 C368 1.574 . S
C351 C370 1.368 . S
C351 H375 0.949 . S
H352 C356 0.949 . S
C353 C354 1.349 . S
C353 C355 1.327 . S
C353 H376 0.950 . S
C354 C353 1.349 . S
C354 C366 1.349 . S
C355 C353 1.327 . S
C355 C371 1.429 . S
C355 H377 0.950 . S
C356 H352 0.949 . S
C356 C364 1.574 . S
C356 C372 1.368 . S
H357 C365 0.950 . S
H358 C363 0.950 . S
H359 C364 0.949 . S
H360 C366 0.950 . S
H361 C367 0.950 . S
H362 C368 0.949 . S
C363 H358 0.950 . S
C363 C365 1.327 . S
C363 C369 1.429 . S
C364 C356 1.574 . S
C364 H359 0.949 . S
C364 C370 1.368 . S
C365 C349 1.349 . S
C365 H357 0.950 . S
C365 C363 1.327 . S
C366 C354 1.349 . S
C366 H360 0.950 . S
C366 C367 1.327 . S
C367 H361 0.950 . S
C367 C366 1.327 . S
C367 C371 1.429 . S
C368 C351 1.574 . S
C368 H362 0.949 . S
C368 C372 1.368 . S
C369 C350 1.429 . S
C369 C363 1.429 . S
C369 C370 1.523 . S
C370 C351 1.368 . S
C370 C364 1.368 . S
C370 C369 1.523 . S
C371 C355 1.429 . S
C371 C367 1.429 . S
C371 C372 1.523 . S
C372 C356 1.368 . S
C372 C368 1.368 . S
C372 C371 1.523 . S
H373 C348 0.950 . S
H374 C350 0.950 . S
H375 C351 0.949 . S
H376 C353 0.950 . S
H377 C355 0.950 . S
C378 C379 1.349 . S
C378 C380 1.327 . S
C378 H403 0.950 . S
C379 C378 1.349 . S
C379 C395 1.349 . S
C380 C378 1.327 . S
C380 C399 1.429 . S
C380 H404 0.950 . S
C381 C398 1.574 . S
C381 C400 1.368 . S
C381 H405 0.949 . S
H382 C386 0.949 . S
C383 C384 1.349 . S
C383 C385 1.327 . S
C383 H406 0.950 . S
C384 C383 1.349 . S
C384 C396 1.349 . S
C385 C383 1.327 . S
C385 C401 1.429 . S
C385 H407 0.950 . S
C386 H382 0.949 . S
C386 C394 1.574 . S
C386 C402 1.368 . S
H387 C395 0.950 . S
H388 C393 0.950 . S
H389 C394 0.949 . S
H390 C396 0.950 . S
H391 C397 0.950 . S
H392 C398 0.949 . S
C393 H388 0.950 . S
C393 C395 1.327 . S
C393 C399 1.429 . S
C394 C386 1.574 . S
C394 H389 0.949 . S
C394 C400 1.368 . S
C395 C379 1.349 . S
C395 H387 0.950 . S
C395 C393 1.327 . S
C396 C384 1.349 . S
C396 H390 0.950 . S
C396 C397 1.327 . S
C397 H391 0.950 . S
C397 C396 1.327 . S
C397 C401 1.429 . S
C398 C381 1.574 . S
C398 H392 0.949 . S
C398 C402 1.368 . S
C399 C380 1.429 . S
C399 C393 1.429 . S
C399 C400 1.523 . S
C400 C381 1.368 . S
C400 C394 1.368 . S
C400 C399 1.523 . S
C401 C385 1.429 . S
C401 C397 1.429 . S
C401 C402 1.523 . S
C402 C386 1.368 . S
C402 C398 1.368 . S
C402 C401 1.523 . S
H403 C378 0.950 . S
H404 C380 0.950 . S
H405 C381 0.949 . S
H406 C383 0.950 . S
H407 C385 0.950 . S
C408 C409 1.349 . S
C408 C410 1.327 . S
C408 H433 0.950 . S
C409 C408 1.349 . S
C409 C425 1.349 . S
C410 C408 1.327 . S
C410 C429 1.429 . S
C410 H434 0.950 . S
C411 C428 1.574 . S
C411 C430 1.368 . S
C411 H435 0.949 . S
H412 C416 0.949 . S
C413 C414 1.349 . S
C413 C415 1.327 1_455 S
C413 H436 0.950 . S
C414 C413 1.349 . S
C414 C426 1.349 . S
C415 C413 1.327 1_655 S
C415 C431 1.429 . S
C415 H437 0.950 . S
C416 H412 0.949 . S
C416 C424 1.574 . S
C416 C432 1.368 . S
H417 C425 0.950 . S
H418 C423 0.950 . S
H419 C424 0.949 . S
H420 C426 0.950 . S
H421 C427 0.950 . S
H422 C428 0.949 . S
C423 H418 0.950 . S
C423 C425 1.327 . S
C423 C429 1.429 . S
C424 C416 1.574 . S
C424 H419 0.949 . S
C424 C430 1.368 . S
C425 C409 1.349 . S
C425 H417 0.950 . S
C425 C423 1.327 . S
C426 C414 1.349 . S
C426 H420 0.950 . S
C426 C427 1.327 1_455 S
C427 H421 0.950 . S
C427 C426 1.327 1_655 S
C427 C431 1.429 . S
C428 C411 1.574 . S
C428 H422 0.949 . S
C428 C432 1.368 . S
C429 C410 1.429 . S
C429 C423 1.429 . S
C429 C430 1.523 . S
C430 C411 1.368 . S
C430 C424 1.368 . S
C430 C429 1.523 . S
C431 C415 1.429 . S
C431 C427 1.429 . S
C431 C432 1.523 . S
C432 C416 1.368 . S
C432 C428 1.368 . S
C432 C431 1.523 . S
H433 C408 0.950 . S
H434 C410 0.950 . S
H435 C411 0.949 . S
H436 C413 0.950 . S
H437 C415 0.950 . S
C438 C439 1.349 . S
C438 C440 1.327 . S
C438 H463 0.950 . S
C439 C438 1.349 . S
C439 C455 1.349 . S
C440 C438 1.327 . S
C440 C459 1.429 . S
C440 H464 0.950 . S
C441 C458 1.574 . S
C441 C460 1.368 . S
C441 H465 0.949 . S
H442 C446 0.949 . S
C443 C444 1.349 . S
C443 C445 1.327 . S
C443 H466 0.950 . S
C444 C443 1.349 . S
C444 C456 1.349 . S
C445 C443 1.327 . S
C445 C461 1.429 . S
C445 H467 0.950 . S
C446 H442 0.949 . S
C446 C454 1.574 . S
C446 C462 1.368 . S
H447 C455 0.950 . S
H448 C453 0.950 . S
H449 C454 0.949 . S
H450 C456 0.950 . S
H451 C457 0.950 . S
H452 C458 0.949 . S
C453 H448 0.950 . S
C453 C455 1.327 . S
C453 C459 1.429 . S
C454 C446 1.574 . S
C454 H449 0.949 . S
C454 C460 1.368 . S
C455 C439 1.349 . S
C455 H447 0.950 . S
C455 C453 1.327 . S
C456 C444 1.349 . S
C456 H450 0.950 . S
C456 C457 1.327 . S
C457 H451 0.950 . S
C457 C456 1.327 . S
C457 C461 1.429 . S
C458 C441 1.574 . S
C458 H452 0.949 . S
C458 C462 1.368 . S
C459 C440 1.429 . S
C459 C453 1.429 . S
C459 C460 1.523 . S
C460 C441 1.368 . S
C460 C454 1.368 . S
C460 C459 1.523 . S
C461 C445 1.429 . S
C461 C457 1.429 . S
C461 C462 1.523 . S
C462 C446 1.368 . S
C462 C458 1.368 . S
C462 C461 1.523 . S
H463 C438 0.950 . S
H464 C440 0.950 . S
H465 C441 0.949 . S
H466 C443 0.950 . S
H467 C445 0.950 . S
C468 C469 1.349 . S
C468 C470 1.327 . S
C468 H493 0.950 . S
C469 C468 1.349 . S
C469 C485 1.349 . S
C470 C468 1.327 . S
C470 C489 1.429 . S
C470 H494 0.950 . S
C471 C488 1.574 . S
C471 C490 1.368 . S
C471 H495 0.949 . S
H472 C476 0.949 . S
C473 C474 1.349 . S
C473 C475 1.327 . S
C473 H496 0.950 . S
C474 C473 1.349 . S
C474 C486 1.349 . S
C475 C473 1.327 . S
C475 C491 1.429 . S
C475 H497 0.950 . S
C476 H472 0.949 . S
C476 C484 1.574 . S
C476 C492 1.368 . S
H477 C485 0.950 . S
H478 C483 0.950 . S
H479 C484 0.949 . S
H480 C486 0.950 . S
H481 C487 0.950 . S
H482 C488 0.949 . S
C483 H478 0.950 . S
C483 C485 1.327 . S
C483 C489 1.429 . S
C484 C476 1.574 . S
C484 H479 0.949 . S
C484 C490 1.368 . S
C485 C469 1.349 . S
C485 H477 0.950 . S
C485 C483 1.327 . S
C486 C474 1.349 . S
C486 H480 0.950 . S
C486 C487 1.327 . S
C487 H481 0.950 . S
C487 C486 1.327 . S
C487 C491 1.429 . S
C488 C471 1.574 . S
C488 H482 0.949 . S
C488 C492 1.368 . S
C489 C470 1.429 . S
C489 C483 1.429 . S
C489 C490 1.523 . S
C490 C471 1.368 . S
C490 C484 1.368 . S
C490 C489 1.523 . S
C491 C475 1.429 . S
C491 C487 1.429 . S
C491 C492 1.523 . S
C492 C476 1.368 . S
C492 C488 1.368 . S
C492 C491 1.523 . S
H493 C468 0.950 . S
H494 C470 0.950 . S
H495 C471 0.949 . S
H496 C473 0.950 . S
H497 C475 0.950 . S
C498 C499 1.349 . S
C498 C500 1.327 . S
C498 H523 0.950 . S
C499 C498 1.349 . S
C499 C515 1.349 . S
C500 C498 1.327 . S
C500 C519 1.429 . S
C500 H524 0.950 . S
C501 C518 1.574 . S
C501 C520 1.368 . S
C501 H525 0.949 . S
H502 C506 0.949 . S
C503 C504 1.349 . S
C503 C505 1.327 . S
C503 H526 0.950 . S
C504 C503 1.349 . S
C504 C516 1.349 . S
C505 C503 1.327 . S
C505 C521 1.429 . S
C505 H527 0.950 . S
C506 H502 0.949 . S
C506 C514 1.574 . S
C506 C522 1.368 . S
H507 C515 0.950 . S
H508 C513 0.950 . S
H509 C514 0.949 . S
H510 C516 0.950 . S
H511 C517 0.950 . S
H512 C518 0.949 . S
C513 H508 0.950 . S
C513 C515 1.327 . S
C513 C519 1.429 . S
C514 C506 1.574 . S
C514 H509 0.949 . S
C514 C520 1.368 . S
C515 C499 1.349 . S
C515 H507 0.950 . S
C515 C513 1.327 . S
C516 C504 1.349 . S
C516 H510 0.950 . S
C516 C517 1.327 . S
C517 H511 0.950 . S
C517 C516 1.327 . S
C517 C521 1.429 . S
C518 C501 1.574 . S
C518 H512 0.949 . S
C518 C522 1.368 . S
C519 C500 1.429 . S
C519 C513 1.429 . S
C519 C520 1.523 . S
C520 C501 1.368 . S
C520 C514 1.368 . S
C520 C519 1.523 . S
C521 C505 1.429 . S
C521 C517 1.429 . S
C521 C522 1.523 . S
C522 C506 1.368 . S
C522 C518 1.368 . S
C522 C521 1.523 . S
H523 C498 0.950 . S
H524 C500 0.950 . S
H525 C501 0.949 . S
H526 C503 0.950 . S
H527 C505 0.950 . S
C528 C529 1.349 . S
C528 C530 1.327 . S
C528 H553 0.950 . S
C529 C528 1.349 . S
C529 C545 1.349 . S
C530 C528 1.327 . S
C530 C549 1.429 . S
C530 H554 0.950 . S
C531 C548 1.574 . S
C531 C550 1.368 . S
C531 H555 0.949 . S
H532 C536 0.949 . S
C533 C534 1.349 . S
C533 C535 1.327 . S
C533 H556 0.950 . S
C534 C533 1.349 . S
C534 C546 1.349 . S
C535 C533 1.327 . S
C535 C551 1.429 . S
C535 H557 0.950 . S
C536 H532 0.949 . S
C536 C544 1.574 . S
C536 C552 1.368 . S
H537 C545 0.950 . S
H538 C543 0.950 . S
H539 C544 0.949 . S
H540 C546 0.950 . S
H541 C547 0.950 . S
H542 C548 0.949 . S
C543 H538 0.950 . S
C543 C545 1.327 . S
C543 C549 1.429 . S
C544 C536 1.574 . S
C544 H539 0.949 . S
C544 C550 1.368 . S
C545 C529 1.349 . S
C545 H537 0.950 . S
C545 C543 1.327 . S
C546 C534 1.349 . S
C546 H540 0.950 . S
C546 C547 1.327 . S
C547 H541 0.950 . S
C547 C546 1.327 . S
C547 C551 1.429 . S
C548 C531 1.574 . S
C548 H542 0.949 . S
C548 C552 1.368 . S
C549 C530 1.429 . S
C549 C543 1.429 . S
C549 C550 1.523 . S
C550 C531 1.368 . S
C550 C544 1.368 . S
C550 C549 1.523 . S
C551 C535 1.429 . S
C551 C547 1.429 . S
C551 C552 1.523 . S
C552 C536 1.368 . S
C552 C548 1.368 . S
C552 C551 1.523 . S
H553 C528 0.950 . S
H554 C530 0.950 . S
H555 C531 0.949 . S
H556 C533 0.950 . S
H557 C535 0.950 . S
C558 C559 1.349 . S
C558 C560 1.327 . S
C558 H583 0.950 . S
C559 C558 1.349 . S
C559 C575 1.349 1_455 S
C560 C558 1.327 . S
C560 C579 1.429 . S
C560 H584 0.950 . S
C561 C578 1.574 1_554 S
C561 C580 1.368 . S
C561 H585 0.949 1_455 S
H562 C566 0.949 1_556 S
C563 C564 1.349 . S
C563 C565 1.327 . S
C563 H586 0.950 . S
C564 C563 1.349 . S
C564 C576 1.349 . S
C565 C563 1.327 . S
C565 C581 1.429 . S
C565 H587 0.950 . S
C566 H562 0.949 1_554 S
C566 C574 1.574 . S
C566 C582 1.368 1_554 S
H567 C575 0.950 . S
H568 C573 0.950 . S
H569 C574 0.949 . S
H570 C576 0.950 . S
H571 C577 0.950 . S
H572 C578 0.949 1_655 S
C573 H568 0.950 . S
C573 C575 1.327 . S
C573 C579 1.429 1_655 S
C574 C566 1.574 . S
C574 H569 0.949 . S
C574 C580 1.368 . S
C575 C559 1.349 1_655 S
C575 H567 0.950 . S
C575 C573 1.327 . S
C576 C564 1.349 . S
C576 H570 0.950 . S
C576 C577 1.327 . S
C577 H571 0.950 . S
C577 C576 1.327 . S
C577 C581 1.429 . S
C578 C561 1.574 1_556 S
C578 H572 0.949 1_455 S
C578 C582 1.368 . S
C579 C560 1.429 . S
C579 C573 1.429 1_455 S
C579 C580 1.523 . S
C580 C561 1.368 . S
C580 C574 1.368 . S
C580 C579 1.523 . S
C581 C565 1.429 . S
C581 C577 1.429 . S
C581 C582 1.523 . S
C582 C566 1.368 1_556 S
C582 C578 1.368 . S
C582 C581 1.523 . S
H583 C558 0.950 . S
H584 C560 0.950 . S
H585 C561 0.949 1_655 S
H586 C563 0.950 . S
H587 C565 0.950 . S
C588 C589 1.349 . S
C588 C590 1.327 . S
C588 H613 0.950 . S
C589 C588 1.349 . S
C589 C605 1.349 1_545 S
C590 C588 1.327 . S
C590 C609 1.429 . S
C590 H614 0.950 . S
C591 C608 1.574 . S
C591 C610 1.368 1_565 S
C591 H615 0.949 . S
H592 C596 0.949 . S
C593 C594 1.349 1_565 S
C593 C595 1.327 . S
C593 H616 0.950 . S
C594 C593 1.349 1_545 S
C594 C606 1.349 . S
C595 C593 1.327 . S
C595 C611 1.429 1_565 S
C595 H617 0.950 . S
C596 H592 0.949 . S
C596 C604 1.574 . S
C596 C612 1.368 . S
H597 C605 0.950 . S
H598 C603 0.950 . S
H599 C604 0.949 . S
H600 C606 0.950 . S
H601 C607 0.950 . S
H602 C608 0.949 . S
C603 H598 0.950 . S
C603 C605 1.327 . S
C603 C609 1.429 1_565 S
C604 C596 1.574 . S
C604 H599 0.949 . S
C604 C610 1.368 . S
C605 C589 1.349 1_565 S
C605 H597 0.950 . S
C605 C603 1.327 . S
C606 C594 1.349 . S
C606 H600 0.950 . S
C606 C607 1.327 . S
C607 H601 0.950 . S
C607 C606 1.327 . S
C607 C611 1.429 . S
C608 C591 1.574 . S
C608 H602 0.949 . S
C608 C612 1.368 1_565 S
C609 C590 1.429 . S
C609 C603 1.429 1_545 S
C609 C610 1.523 . S
C610 C591 1.368 1_545 S
C610 C604 1.368 . S
C610 C609 1.523 . S
C611 C595 1.429 1_545 S
C611 C607 1.429 . S
C611 C612 1.523 . S
C612 C596 1.368 . S
C612 C608 1.368 1_545 S
C612 C611 1.523 . S
H613 C588 0.950 . S
H614 C590 0.950 . S
H615 C591 0.949 . S
H616 C593 0.950 . S
H617 C595 0.950 . S
C618 C619 1.349 . S
C618 C620 1.327 . S
C618 H643 0.950 . S
C619 C618 1.349 . S
C619 C635 1.349 . S
C620 C618 1.327 . S
C620 C639 1.429 . S
C620 H644 0.950 . S
C621 C638 1.574 . S
C621 C640 1.368 . S
C621 H645 0.949 . S
H622 C626 0.949 . S
C623 C624 1.349 . S
C623 C625 1.327 . S
C623 H646 0.950 . S
C624 C623 1.349 . S
C624 C636 1.349 . S
C625 C623 1.327 . S
C625 C641 1.429 . S
C625 H647 0.950 . S
C626 H622 0.949 . S
C626 C634 1.574 . S
C626 C642 1.368 . S
H627 C635 0.950 . S
H628 C633 0.950 . S
H629 C634 0.949 . S
H630 C636 0.950 . S
H631 C637 0.950 . S
H632 C638 0.949 . S
C633 H628 0.950 . S
C633 C635 1.327 . S
C633 C639 1.429 . S
C634 C626 1.574 . S
C634 H629 0.949 . S
C634 C640 1.368 . S
C635 C619 1.349 . S
C635 H627 0.950 . S
C635 C633 1.327 . S
C636 C624 1.349 . S
C636 H630 0.950 . S
C636 C637 1.327 . S
C637 H631 0.950 . S
C637 C636 1.327 . S
C637 C641 1.429 . S
C638 C621 1.574 . S
C638 H632 0.949 . S
C638 C642 1.368 . S
C639 C620 1.429 . S
C639 C633 1.429 . S
C639 C640 1.523 . S
C640 C621 1.368 . S
C640 C634 1.368 . S
C640 C639 1.523 . S
C641 C625 1.429 . S
C641 C637 1.429 . S
C641 C642 1.523 . S
C642 C626 1.368 . S
C642 C638 1.368 . S
C642 C641 1.523 . S
H643 C618 0.950 . S
H644 C620 0.950 . S
H645 C621 0.949 . S
H646 C623 0.950 . S
H647 C625 0.950 . S
C648 C649 1.325 1_565 S
C648 C650 1.327 . S
C648 H673 0.950 . S
C649 C648 1.325 1_545 S
C649 C665 1.375 . S
C650 C648 1.327 . S
C650 C669 1.429 1_565 S
C650 H674 0.950 . S
C651 C668 1.574 . S
C651 C670 1.368 . S
C651 H675 0.949 . S
H652 C656 0.949 . S
C653 C654 1.349 . S
C653 C655 1.327 . S
C653 H676 0.950 . S
C654 C653 1.349 . S
C654 C666 1.349 1_545 S
C655 C653 1.327 . S
C655 C671 1.429 . S
C655 H677 0.950 . S
C656 H652 0.949 . S
C656 C664 1.574 . S
C656 C672 1.368 1_565 S
H657 C665 0.950 . S
H658 C663 0.950 . S
H659 C664 0.949 . S
H660 C666 0.950 . S
H661 C667 0.950 . S
H662 C668 0.949 . S
C663 H658 0.950 . S
C663 C665 1.327 . S
C663 C669 1.429 . S
C664 C656 1.574 . S
C664 H659 0.949 . S
C664 C670 1.368 1_565 S
C665 C649 1.375 . S
C665 H657 0.950 . S
C665 C663 1.327 . S
C666 C654 1.349 1_565 S
C666 H660 0.950 . S
C666 C667 1.327 . S
C667 H661 0.950 . S
C667 C666 1.327 . S
C667 C671 1.429 1_565 S
C668 C651 1.574 . S
C668 H662 0.949 . S
C668 C672 1.368 . S
C669 C650 1.429 1_545 S
C669 C663 1.429 . S
C669 C670 1.523 . S
C670 C651 1.368 . S
C670 C664 1.368 1_545 S
C670 C669 1.523 . S
C671 C655 1.429 . S
C671 C667 1.429 1_545 S
C671 C672 1.523 . S
C672 C656 1.368 1_545 S
C672 C668 1.368 . S
C672 C671 1.523 . S
H673 C648 0.950 . S
H674 C650 0.950 . S
H675 C651 0.949 . S
H676 C653 0.950 . S
H677 C655 0.950 . S
C678 C679 1.349 . S
C678 C680 1.327 . S
C678 H703 0.950 . S
C679 C678 1.349 . S
C679 C695 1.349 . S
C680 C678 1.327 . S
C680 C699 1.429 . S
C680 H704 0.950 . S
C681 C698 1.574 . S
C681 C700 1.368 . S
C681 H705 0.949 . S
H682 C686 0.949 1_554 S
C683 C684 1.349 . S
C683 C685 1.327 . S
C683 H706 0.950 . S
C684 C683 1.349 . S
C684 C696 1.349 . S
C685 C683 1.327 . S
C685 C701 1.429 . S
C685 H707 0.950 . S
C686 H682 0.949 1_556 S
C686 C694 1.574 . S
C686 C702 1.368 1_556 S
H687 C695 0.950 . S
H688 C693 0.950 . S
H689 C694 0.949 . S
H690 C696 0.950 . S
H691 C697 0.950 . S
H692 C698 0.949 1_554 S
C693 H688 0.950 . S
C693 C695 1.327 . S
C693 C699 1.429 . S
C694 C686 1.574 . S
C694 H689 0.949 . S
C694 C700 1.368 . S
C695 C679 1.349 . S
C695 H687 0.950 . S
C695 C693 1.327 . S
C696 C684 1.349 . S
C696 H690 0.950 . S
C696 C697 1.327 . S
C697 H691 0.950 . S
C697 C696 1.327 . S
C697 C701 1.429 . S
C698 C681 1.574 . S
C698 H692 0.949 1_556 S
C698 C702 1.368 1_556 S
C699 C680 1.429 . S
C699 C693 1.429 . S
C699 C700 1.523 . S
C700 C681 1.368 . S
C700 C694 1.368 . S
C700 C699 1.523 . S
C701 C685 1.429 . S
C701 C697 1.429 . S
C701 C702 1.523 . S
C702 C686 1.368 1_554 S
C702 C698 1.368 1_554 S
C702 C701 1.523 . S
H703 C678 0.950 . S
H704 C680 0.950 . S
H705 C681 0.949 . S
H706 C683 0.950 . S
H707 C685 0.950 . S
C708 C709 1.349 . S
C708 C710 1.327 . S
C708 H733 0.950 1_455 S
C709 C708 1.349 . S
C709 C725 1.349 . S
C710 C708 1.327 . S
C710 C729 1.429 . S
C710 H734 0.950 . S
C711 C728 1.574 . S
C711 C730 1.368 . S
C711 H735 0.949 . S
H712 C716 0.949 . S
C713 C714 1.349 . S
C713 C715 1.327 . S
C713 H736 0.950 . S
C714 C713 1.349 . S
C714 C726 1.349 . S
C715 C713 1.327 . S
C715 C731 1.429 . S
C715 H737 0.950 . S
C716 H712 0.949 . S
C716 C724 1.574 . S
C716 C732 1.368 . S
H717 C725 0.950 . S
H718 C723 0.950 . S
H719 C724 0.949 . S
H720 C726 0.950 . S
H721 C727 0.950 . S
H722 C728 0.949 . S
C723 H718 0.950 . S
C723 C725 1.327 . S
C723 C729 1.429 . S
C724 C716 1.574 . S
C724 H719 0.949 . S
C724 C730 1.368 . S
C725 C709 1.349 . S
C725 H717 0.950 . S
C725 C723 1.327 . S
C726 C714 1.349 . S
C726 H720 0.950 . S
C726 C727 1.327 . S
C727 H721 0.950 . S
C727 C726 1.327 . S
C727 C731 1.429 . S
C728 C711 1.574 . S
C728 H722 0.949 . S
C728 C732 1.368 . S
C729 C710 1.429 . S
C729 C723 1.429 . S
C729 C730 1.523 . S
C730 C711 1.368 . S
C730 C724 1.368 . S
C730 C729 1.523 . S
C731 C715 1.429 . S
C731 C727 1.429 . S
C731 C732 1.523 . S
C732 C716 1.368 . S
C732 C728 1.368 . S
C732 C731 1.523 . S
H733 C708 0.950 1_655 S
H734 C710 0.950 . S
H735 C711 0.949 . S
H736 C713 0.950 . S
H737 C715 0.950 . S
C199 C10 3.158 . S
C204 C189 2.957 . S
C229 C55 1.052 . S
C234 C167 1.045 . S
C259 C90 1.800 . S
C264 C180 1.784 . S
C289 C19 2.867 . S
C294 C193 2.853 . S
C324 C163 1.304 . S
C319 C46 1.364 . S
C354 C176 1.899 . S
C349 C99 2.026 . S
C379 C50 1.800 . S
C384 C141 1.777 . S
C409 C95 0.302 . S
C414 C154 0.305 . S
C439 C6 1.293 . S
C444 C124 1.216 . S
C474 C137 1.874 . S
C469 C59 2.012 . S
C504 C150 0.483 . S
C499 C86 0.451 . S
C529 C15 1.092 . S
C534 C128 1.087 . S
C564 C155 1.294 . S
C559 C18 1.271 . S
C589 C49 1.479 . S
C594 C129 1.553 . S
C619 C98 1.468 . S
C624 C142 1.505 . S
C654 C181 1.502 . S
C649 C58 1.464 . S
C684 C194 1.749 . S
C679 C89 1.657 . S
C709 C9 1.502 . S
C714 C168 1.579 . S
