# Generated by pormake.
# Topology sit, (3,6)-cn, num edge types: 1
# Building blocks:
#     Node 0, Type 0, BuildingBlock: BELTOD_clean_linker_0, # of connection points: 3
#     Node 1, Type 0, BuildingBlock: BELTOD_clean_linker_0, # of connection points: 3
#     Node 2, Type 0, BuildingBlock: BELTOD_clean_linker_0, # of connection points: 3
#     Node 3, Type 0, BuildingBlock: BELTOD_clean_linker_0, # of connection points: 3
#     Node 4, Type 1, BuildingBlock: MIDCAF_clean_sbu_0, # of connection points: 6
#     Node 5, Type 1, BuildingBlock: MIDCAF_clean_sbu_0, # of connection points: 6
#     Edge 6, Type (0, 1), BuildingBlock: CIFDUS_clean_linker_0, # of connection points: 2
#     Edge 7, Type (0, 1), BuildingBlock: CIFDUS_clean_linker_0, # of connection points: 2
#     Edge 8, Type (0, 1), BuildingBlock: CIFDUS_clean_linker_0, # of connection points: 2
#     Edge 9, Type (0, 1), BuildingBlock: CIFDUS_clean_linker_0, # of connection points: 2
#     Edge 10, Type (0, 1), BuildingBlock: CIFDUS_clean_linker_0, # of connection points: 2
#     Edge 11, Type (0, 1), BuildingBlock: CIFDUS_clean_linker_0, # of connection points: 2
#     Edge 12, Type (0, 1), BuildingBlock: CIFDUS_clean_linker_0, # of connection points: 2
#     Edge 13, Type (0, 1), BuildingBlock: CIFDUS_clean_linker_0, # of connection points: 2
#     Edge 14, Type (0, 1), BuildingBlock: CIFDUS_clean_linker_0, # of connection points: 2
#     Edge 15, Type (0, 1), BuildingBlock: CIFDUS_clean_linker_0, # of connection points: 2
#     Edge 16, Type (0, 1), BuildingBlock: CIFDUS_clean_linker_0, # of connection points: 2
#     Edge 17, Type (0, 1), BuildingBlock: CIFDUS_clean_linker_0, # of connection points: 2
# Relax obj value: 0.105
# Max RMSD: 0.192
# Mean RMSD: 0.101
data_MOF--net-sit--node1-MIDCAF_clean_sbu_0--node2-BELTOD_clean_linker_0--edge1-CIFDUS_clean_linker_0
_symmetry_space_group_name_H-M    P1
_symmetry_Int_Tables_number       1
_symmetry_cell_setting            triclinic
loop_
_symmetry_equiv_pos_as_xyz
'x, y, z'
_cell_length_a     23.834572
_cell_length_b     30.672207
_cell_length_c     35.958188
_cell_angle_alpha  90.198198
_cell_angle_beta   90.009744
_cell_angle_gamma 83.760463
loop_
_atom_site_label
_atom_site_type_symbol
_atom_site_fract_x
_atom_site_fract_y
_atom_site_fract_z
_atom_type_partial_charge
P0 P 0.09105 0.27515 0.96699 0.0
H1 H 0.21247 0.26767 0.95331 0.0
H2 H 0.27899 0.32238 0.94574 0.0
H3 H 0.1469 0.42533 0.97271 0.0
H4 H 0.08111 0.37098 0.9807 0.0
H5 H 0.06839 0.18857 0.99241 0.0
H6 H 0.05112 0.15923 0.05416 0.0
H7 H 0.07684 0.2842 0.10331 0.0
H8 H 0.09434 0.31324 0.04165 0.0
H9 H 0.03457 0.27424 0.89491 0.0
H10 H 0.00158 0.33394 0.00246 0.0
O11 O 0.11374 0.23421 0.93816 0.0
H12 H 0.95245 0.31787 0.86967 0.0
H13 H 0.92403 0.38187 0.97676 0.0
C14 C 0.14127 0.31508 0.96647 0.0
C15 C 0.19793 0.30194 0.95797 0.0
C16 C 0.23596 0.33321 0.95388 0.0
C17 C 0.21779 0.37814 0.95827 0.0
C18 C 0.16172 0.391 0.9686 0.0
C19 C 0.12395 0.3597 0.97303 0.0
C20 C 0.08327 0.25289 0.01258 0.0
C21 C 0.07113 0.20943 0.01655 0.0
C22 C 0.06137 0.19266 0.05178 0.0
C23 C 0.06259 0.21946 0.08343 0.0
C24 C 0.07525 0.26292 0.07931 0.0
C25 C 0.08554 0.27949 0.04414 0.0
C26 C 0.02436 0.30096 0.95051 0.0
C27 C 0.00948 0.29676 0.91316 0.0
C28 C 0.96295 0.32268 0.89855 0.0
C29 C 0.93178 0.35487 0.92062 0.0
C30 C 0.94586 0.3575 0.95858 0.0
C31 C -0.00917 0.33012 0.97347 0.0
P32 P 0.02441 0.68519 0.10162 0.0
H33 H 0.14293 0.65529 0.11539 0.0
H34 H 0.22122 0.62893 0.07427 0.0
H35 H 0.10892 0.64519 0.97967 0.0
H36 H 0.03193 0.67317 0.02064 0.0
H37 H 0.9553 0.74148 0.15226 0.0
H38 H 0.95757 0.81711 0.1729 0.0
H39 H 0.0986 0.82978 0.09968 0.0
H40 H 0.09608 0.75374 0.07915 0.0
H41 H 0.97185 0.60631 0.08455 0.0
H42 H 0.93432 0.74569 0.06793 0.0
O43 O 0.0299 0.65531 0.1404 0.0
H44 H 0.88569 0.59367 0.05067 0.0
H45 H 0.84814 0.73328 0.03478 0.0
C46 C 0.08157 0.66564 0.07115 0.0
C47 C 0.13531 0.65302 0.08579 0.0
C48 C 0.17985 0.63758 0.06227 0.0
C49 C 0.17131 0.63458 0.02364 0.0
C50 C 0.11717 0.64737 0.00919 0.0
C51 C 0.0729 0.66315 0.03269 0.0
C52 C 0.02577 0.74188 0.11452 0.0
C53 C -0.01359 0.76066 0.14043 0.0
C54 C -0.01261 0.80409 0.15186 0.0
C55 C 0.02808 0.82962 0.13775 0.0
C56 C 0.06687 0.81092 0.11113 0.0
C57 C 0.06553 0.76741 0.09945 0.0
C58 C 0.95875 0.67693 0.0795 0.0
C59 C 0.94463 0.63417 0.07413 0.0
C60 C 0.89577 0.62697 0.05461 0.0
C61 C 0.86019 0.66255 0.04042 0.0
C62 C 0.8744 0.70536 0.04599 0.0
C63 C 0.92362 0.71246 0.06504 0.0
P64 P 0.57135 0.75168 0.45262 0.0
H65 H 0.67761 0.73013 0.4131 0.0
H66 H 0.75105 0.77457 0.39297 0.0
H67 H 0.66309 0.88777 0.4477 0.0
H68 H 0.59119 0.84276 0.46885 0.0
H69 H 0.52785 0.67256 0.4795 0.0
H70 H 0.53207 0.63665 0.5403 0.0
H71 H 0.64307 0.72901 0.58 0.0
H72 H 0.63817 0.76498 0.51935 0.0
H73 H 0.49681 0.79401 0.39668 0.0
H74 H 0.5085 0.79317 0.51638 0.0
O75 O 0.56396 0.71666 0.41778 0.0
H76 H 0.41464 0.84876 0.40018 0.0
H77 H 0.42673 0.84855 0.52013 0.0
C78 C 0.62835 0.78335 0.44166 0.0
C79 C 0.67447 0.76441 0.421 0.0
C80 C 0.71614 0.78998 0.40928 0.0
C81 C 0.71234 0.835 0.41807 0.0
C82 C 0.66736 0.85328 0.44042 0.0
C83 C 0.62591 0.82757 0.45229 0.0
C84 C 0.58322 0.72104 0.49488 0.0
C85 C 0.55417 0.68437 0.50106 0.0
C86 C 0.55673 0.6638 0.53574 0.0
C87 C 0.5878 0.68008 0.56488 0.0
C88 C 0.6185 0.71594 0.55809 0.0
C89 C 0.61603 0.73636 0.52339 0.0
C90 C 0.50778 0.78874 0.45622 0.0
C91 C 0.4813 0.80533 0.42373 0.0
C92 C 0.43488 0.83712 0.4258 0.0
C93 C 0.41444 0.85324 0.46047 0.0
C94 C 0.44122 0.83653 0.49306 0.0
C95 C 0.48781 0.8047 0.49092 0.0
P96 P 0.52013 0.19281 0.60178 0.0
H97 H 0.64129 0.18349 0.61574 0.0
H98 H 0.72263 0.15273 0.579 0.0
H99 H 0.60989 0.11759 0.4923 0.0
H100 H 0.52978 0.15022 0.52798 0.0
H101 H 0.45275 0.25501 0.64867 0.0
H102 H 0.45672 0.33236 0.66289 0.0
H103 H 0.59089 0.33682 0.58257 0.0
H104 H 0.58672 0.25903 0.56861 0.0
H105 H 0.46293 0.11388 0.60003 0.0
H106 H 0.43913 0.2437 0.55292 0.0
O107 O 0.52406 0.16931 0.64361 0.0
H108 H 0.38413 0.0927 0.56281 0.0
H109 H 0.36021 0.22285 0.51589 0.0
C110 C 0.57949 0.16926 0.57473 0.0
C111 C 0.6343 0.16914 0.58879 0.0
C112 C 0.68067 0.15113 0.5679 0.0
C113 C 0.67287 0.13257 0.53265 0.0
C114 C 0.61762 0.13215 0.51905 0.0
C115 C 0.57149 0.15065 0.5397 0.0
C116 C 0.52018 0.25107 0.60827 0.0
C117 C 0.48256 0.27278 0.6338 0.0
C118 C 0.48448 0.31721 0.64156 0.0
C119 C 0.52417 0.34092 0.62383 0.0
C120 C 0.56017 0.31944 0.5969 0.0
C121 C 0.55795 0.27489 0.58902 0.0
C122 C 0.45597 0.18058 0.57981 0.0
C123 C 0.43982 0.13811 0.58237 0.0
C124 C 0.39527 0.12593 0.56086 0.0
C125 C 0.36613 0.15616 0.53652 0.0
C126 C 0.38148 0.19909 0.5348 0.0
C127 C 0.42646 0.21108 0.55603 0.0
Zn128 Zn 0.01107 0.13516 0.35763 0.0
Zn129 Zn 0.06819 0.97689 0.35725 0.0
Zn130 Zn 0.0431 0.05266 0.35651 0.0
C131 C 0.09077 0.996 0.28721 0.0
C132 C 0.95909 0.98011 0.37143 0.0
O133 O 0.10557 0.08248 0.3913 0.0
O134 O 0.06737 0.15135 0.39424 0.0
C135 C 0.0353 0.1153 0.28399 0.0
O136 O 0.05742 0.02954 0.29815 0.0
O137 O 0.11362 0.96976 0.31105 0.0
O138 O -0.00536 0.95345 0.35494 0.0
O139 O 0.97132 1.01919 0.3787 0.0
O140 O 0.02188 0.14781 0.30495 0.0
O141 O 0.04394 0.07647 0.2979 0.0
O142 O 0.95881 0.06465 0.38403 0.0
O143 O 0.93294 0.13535 0.37497 0.0
C144 C 0.92231 0.09875 0.38731 0.0
O145 O 0.12334 0.03507 0.38806 0.0
O146 O 0.11015 0.96778 0.40423 0.0
C147 C 0.10561 0.12186 0.40396 0.0
C148 C 0.13933 0.99955 0.40612 0.0
Zn149 Zn 0.52524 0.64429 0.85694 0.0
Zn150 Zn 0.55198 0.48752 0.83619 0.0
Zn151 Zn 0.53891 0.56231 0.84543 0.0
C152 C 0.51357 0.51513 0.77037 0.0
C153 C 0.47647 0.49476 0.89068 0.0
O154 O 0.61165 0.57819 0.87898 0.0
O155 O 0.58429 0.64657 0.89568 0.0
C156 C 0.54454 0.63367 0.78093 0.0
O157 O 0.5336 0.5489 0.78447 0.0
O158 O 0.50692 0.48284 0.79079 0.0
O159 O 0.51896 0.46814 0.88298 0.0
O160 O 0.47072 0.53282 0.87516 0.0
O161 O 0.54242 0.66258 0.8061 0.0
O162 O 0.54051 0.59336 0.78965 0.0
O163 O 0.45776 0.57866 0.87554 0.0
O164 O 0.4453 0.65102 0.87244 0.0
C165 C 0.42722 0.61536 0.88136 0.0
O166 O 0.62048 0.53293 0.86922 0.0
O167 O 0.63498 0.47595 0.83163 0.0
C168 C 0.61949 0.6128 0.89782 0.0
C169 C 0.6528 0.49964 0.85676 0.0
H170 H 0.10264 0.14205 0.11624 0.0
H171 H -0.01034 0.26017 0.13349 0.0
H172 H 0.96787 0.23593 0.19581 0.0
H173 H -0.01571 0.18367 0.2462 0.0
H174 H 0.10111 0.06735 0.23195 0.0
H175 H 0.1167 0.08748 0.16717 0.0
C176 C 0.07289 0.16216 0.13362 0.0
C177 C 0.04822 0.20306 0.12053 0.0
C178 C 0.06094 0.14818 0.16971 0.0
C179 C 0.00989 0.22896 0.14325 0.0
C180 C -0.00282 0.21503 0.17876 0.0
C181 C 0.01297 0.16246 0.22891 0.0
C182 C 0.04114 0.12378 0.24378 0.0
C183 C 0.02307 0.17509 0.19241 0.0
C184 C 0.07782 0.09662 0.22093 0.0
C185 C 0.08733 0.10854 0.18404 0.0
H186 H 0.12373 0.8635 0.15904 0.0
H187 H 0.94309 0.89462 0.15329 0.0
H188 H 0.94897 0.95864 0.19317 0.0
H189 H 0.00317 0.99563 0.23972 0.0
H190 H 0.1824 0.95983 0.24912 0.0
H191 H 0.17999 0.90939 0.19658 0.0
C192 C 0.08586 0.88511 0.16544 0.0
C193 C 0.03295 0.87379 0.15386 0.0
C194 C 0.08941 0.92115 0.1892 0.0
C195 C -0.01577 0.90209 0.16259 0.0
C196 C -0.01243 0.93875 0.18534 0.0
C197 C 0.04196 0.97822 0.2291 0.0
C198 C 0.09282 0.98107 0.24823 0.0
C199 C 0.03961 0.94728 0.20033 0.0
C200 C 0.14281 0.95799 0.23469 0.0
C201 C 0.14128 0.92875 0.20498 0.0
H202 H 0.56809 0.72764 0.62736 0.0
H203 H 0.59553 0.59417 0.58789 0.0
H204 H 0.5842 0.56727 0.6514 0.0
H205 H 0.56726 0.58255 0.71847 0.0
H206 H 0.53757 0.71716 0.75565 0.0
H207 H 0.55015 0.74263 0.69283 0.0
C208 C 0.57246 0.69263 0.6327 0.0
C209 C 0.58338 0.66296 0.60315 0.0
C210 C 0.56545 0.6776 0.6689 0.0
C211 C 0.58726 0.61767 0.61031 0.0
C212 C 0.58084 0.60232 0.64656 0.0
C213 C 0.56284 0.61733 0.71274 0.0
C214 C 0.55113 0.64768 0.7419 0.0
C215 C 0.56978 0.63207 0.67614 0.0
C216 C 0.54663 0.69284 0.73394 0.0
C217 C 0.55379 0.70761 0.69793 0.0
H218 H 0.443 0.40771 0.64113 0.0
H219 H 0.62358 0.37486 0.63721 0.0
H220 H 0.63681 0.43912 0.67485 0.0
H221 H 0.59627 0.49171 0.72182 0.0
H222 H 0.41597 0.51857 0.73162 0.0
H223 H 0.40315 0.47103 0.67826 0.0
C224 C 0.48528 0.41521 0.64784 0.0
C225 C 0.5321 0.38585 0.63716 0.0
C226 C 0.49252 0.45129 0.67085 0.0
C227 C 0.58669 0.39666 0.64517 0.0
C228 C 0.59433 0.4333 0.66702 0.0
C229 C 0.55438 0.48901 0.7108 0.0
C230 C 0.50709 0.50857 0.73028 0.0
C231 C 0.54748 0.45922 0.68183 0.0
C232 C 0.45288 0.50423 0.71658 0.0
C233 C 0.44561 0.47634 0.68654 0.0
H234 H 0.32565 0.37984 0.98146 0.0
H235 H 0.19591 0.45084 0.91501 0.0
H236 H 0.26359 0.499 0.89227 0.0
H237 H 0.36284 0.5129 0.88389 0.0
H238 H 0.49238 0.44039 0.94952 0.0
H239 H 0.4218 0.40091 0.98001 0.0
C240 C 0.31218 0.4062 0.96234 0.0
C241 C 0.25633 0.41138 0.94944 0.0
C242 C 0.35141 0.43322 0.94897 0.0
C243 C 0.23887 0.44619 0.92527 0.0
C244 C 0.27759 0.47355 0.91207 0.0
C245 C 0.37517 0.48948 0.90573 0.0
C246 C 0.43249 0.47937 0.91446 0.0
C247 C 0.33443 0.46633 0.9227 0.0
C248 C 0.44833 0.44849 0.94233 0.0
C249 C 0.4081 0.42581 0.95966 0.0
H250 H 0.85187 0.6058 0.98306 0.0
H251 H 0.75418 0.70353 0.04981 0.0
H252 H 0.67039 0.69506 0.01242 0.0
H253 H 0.62601 0.66198 0.95958 0.0
H254 H 0.72457 0.56817 0.8899 0.0
H255 H 0.8067 0.57189 0.93012 0.0
C256 C 0.81199 0.62477 0.98962 0.0
C257 C 0.809 0.65525 0.01904 0.0
C258 C 0.76426 0.62019 0.96765 0.0
C259 C 0.75743 0.68014 0.02706 0.0
C260 C 0.70959 0.67525 0.00577 0.0
C261 C 0.66546 0.64223 0.95327 0.0
C262 C 0.66894 0.61389 0.92237 0.0
C263 C 0.71273 0.64579 0.97576 0.0
C264 C 0.72028 0.58874 0.91439 0.0
C265 C 0.76745 0.59146 0.93706 0.0
H266 H 0.83759 0.39764 0.95468 0.0
H267 H 0.92331 0.38481 0.8484 0.0
H268 H 0.84628 0.43087 0.81984 0.0
H269 H 0.75143 0.47093 0.82391 0.0
H270 H 0.67119 0.49117 0.93083 0.0
H271 H 0.7513 0.44815 0.9607 0.0
C272 C 0.84075 0.40555 0.9255 0.0
C273 C 0.88621 0.38612 0.90383 0.0
C274 C 0.79755 0.43407 0.90936 0.0
C275 C 0.88807 0.39711 0.86582 0.0
C276 C 0.84433 0.42423 0.84938 0.0
C277 C 0.75236 0.46673 0.85387 0.0
C278 C 0.7059 0.48382 0.87527 0.0
C279 C 0.79843 0.4422 0.87073 0.0
C280 C 0.70701 0.47843 0.91399 0.0
C281 C 0.75243 0.45349 0.93094 0.0
H282 H 0.19316 0.66892 0.95642 0.0
H283 H 0.25769 0.56879 0.03409 0.0
H284 H 0.34097 0.55083 -0.0051 0.0
H285 H 0.39956 0.56905 0.94161 0.0
H286 H 0.3331 0.66834 0.86406 0.0
H287 H 0.24601 0.68102 0.90009 0.0
C288 C 0.2247 0.64248 0.96448 0.0
C289 C 0.21932 0.62056 -0.00165 0.0
C290 C 0.27229 0.63238 0.94192 0.0
C291 C 0.26129 0.58684 0.00852 0.0
C292 C 0.30879 0.57639 0.98606 0.0
C293 C 0.3651 0.59224 0.93199 0.0
C294 C 0.37211 0.61725 0.90004 0.0
C295 C 0.31532 0.59964 0.9531 0.0
C296 C 0.32828 0.64859 0.88855 0.0
C297 C 0.27863 0.65592 0.90916 0.0
H298 H 0.76042 0.90119 0.45307 0.0
H299 H 0.75736 0.83203 0.34837 0.0
H300 H 0.82954 0.87433 0.32368 0.0
H301 H 0.8979 0.92717 0.33299 0.0
H302 H 0.9039 0.99535 0.43746 0.0
H303 H 0.82427 0.95893 0.46061 0.0
C304 C 0.77493 0.89583 0.42468 0.0
C305 C 0.75415 0.86285 0.40287 0.0
C306 C 0.81635 0.92056 0.41047 0.0
C307 C 0.77369 0.85627 0.36616 0.0
C308 C 0.8146 0.88073 0.35185 0.0
C309 C 0.88101 0.93457 0.3606 0.0
C310 C 0.90569 0.96449 0.38334 0.0
C311 C 0.83688 0.91235 0.37395 0.0
C312 C 0.88398 0.97372 0.41908 0.0
C313 C 0.83927 0.95218 0.4325 0.0
H314 H 0.26243 0.19907 0.52345 0.0
H315 H 0.37111 0.0826 0.49342 0.0
H316 H 0.30022 0.06159 0.44968 0.0
H317 H 0.20898 0.07872 0.41791 0.0
H318 H 0.09902 0.19314 0.44982 0.0
H319 H 0.16935 0.21367 0.49391 0.0
C320 C 0.27047 0.16911 0.50729 0.0
C321 C 0.32181 0.14246 0.51156 0.0
C322 C 0.22957 0.15722 0.48227 0.0
C323 C 0.3316 0.10343 0.49083 0.0
C324 C 0.29127 0.09155 0.46566 0.0
C325 C 0.19993 0.10719 0.43523 0.0
C326 C 0.1486 0.13357 0.4309 0.0
C327 C 0.24025 0.11835 0.461 0.0
C328 C 0.1383 0.17203 0.45245 0.0
C329 C 0.1784 0.18378 0.47782 0.0
H330 H 0.39126 0.92542 0.41724 0.0
H331 H 0.32442 0.85485 0.50776 0.0
H332 H 0.23522 0.90201 0.5041 0.0
H333 H 0.17153 0.95453 0.46822 0.0
H334 H 0.23584 1.01909 0.37356 0.0
H335 H 0.33076 0.98387 0.38607 0.0
C336 C 0.35729 0.92063 0.43637 0.0
C337 C 0.36406 0.88617 0.46224 0.0
C338 C 0.30562 0.94696 0.43336 0.0
C339 C 0.32029 0.88108 0.48753 0.0
C340 C 0.26913 0.90788 0.48531 0.0
C341 C 0.20687 0.96201 0.45124 0.0
C342 C 0.19711 0.99006 0.42056 0.0
C343 C 0.26065 0.93978 0.45742 0.0
C344 C 0.24271 0.99865 0.39801 0.0
C345 C 0.29679 0.97794 0.40479 0.0
H346 H 0.68424 0.14167 0.45802 0.0
H347 H 0.77263 0.08649 0.55464 0.0
H348 H 0.85662 0.06602 0.51679 0.0
H349 H 0.90765 0.07083 0.45738 0.0
H350 H 0.81838 0.12624 0.36153 0.0
H351 H 0.73125 0.13861 0.39775 0.0
C352 C 0.72127 0.12417 0.47076 0.0
C353 C 0.72214 0.11603 0.50924 0.0
C354 C 0.7692 0.11245 0.44889 0.0
C355 C 0.77111 0.09401 0.52524 0.0
C356 C 0.81906 0.08203 0.50358 0.0
C357 C 0.86849 0.08407 0.44427 0.0
C358 C 0.86868 0.09689 0.40687 0.0
C359 C 0.81897 0.09197 0.46553 0.0
C360 C 0.81859 0.11565 0.39026 0.0
C361 C 0.76903 0.12298 0.41099 0.0
loop_
_geom_bond_atom_site_label_1
_geom_bond_atom_site_label_2
_geom_bond_distance
_geom_bond_site_symmetry_2
_ccdc_geom_bond_type
P0 O11 1.490 . S
P0 C14 1.812 . S
P0 C20 1.803 1_556 S
P0 C26 1.819 . S
H1 C15 0.941 . S
H2 C16 0.939 . S
H3 C18 0.940 . S
H4 C19 0.940 1_554 S
H5 C21 0.939 . S
H6 C22 0.942 . S
H7 C24 0.940 . S
H8 C25 0.939 . S
H9 C27 0.941 . S
H10 C31 0.939 . S
O11 P0 1.490 . S
H12 C28 0.939 1_655 S
H13 C30 0.940 . S
C14 P0 1.812 . S
C14 C15 1.389 . S
C14 C19 1.391 . S
C15 H1 0.941 . S
C15 C14 1.389 . S
C15 C16 1.397 . S
C16 H2 0.939 . S
C16 C15 1.397 . S
C16 C17 1.378 . S
C17 C16 1.378 . S
C17 C18 1.378 . S
C18 H3 0.940 . S
C18 C17 1.378 . S
C18 C19 1.396 . S
C19 H4 0.940 1_556 S
C19 C14 1.391 . S
C19 C18 1.396 . S
C20 P0 1.803 1_554 S
C20 C21 1.378 . S
C20 C25 1.400 . S
C21 H5 0.939 . S
C21 C20 1.378 . S
C21 C22 1.361 . S
C22 H6 0.942 . S
C22 C21 1.361 . S
C22 C23 1.369 . S
C23 C22 1.369 . S
C23 C24 1.404 . S
C24 H7 0.940 . S
C24 C23 1.404 . S
C24 C25 1.389 . S
C25 H8 0.939 . S
C25 C20 1.400 . S
C25 C24 1.389 . S
C26 P0 1.819 . S
C26 C27 1.391 . S
C26 C31 1.391 1_556 S
C27 H9 0.941 . S
C27 C26 1.391 . S
C27 C28 1.396 . S
C28 H12 0.939 1_455 S
C28 C27 1.396 . S
C28 C29 1.397 1_455 S
C29 C28 1.397 1_655 S
C29 C30 1.385 1_556 S
C30 H13 0.940 . S
C30 C29 1.385 1_554 S
C30 C31 1.388 1_655 S
C31 H10 0.939 . S
C31 C26 1.391 1_554 S
C31 C30 1.388 1_455 S
P32 O43 1.490 . S
P32 C46 1.812 . S
P32 C52 1.803 . S
P32 C58 1.819 1_455 S
H33 C47 0.941 . S
H34 C48 0.939 . S
H35 C50 0.940 . S
H36 C51 0.940 . S
H37 C53 0.939 . S
H38 C54 0.942 . S
H39 C56 0.940 . S
H40 C57 0.939 . S
H41 C59 0.941 . S
H42 C63 0.939 . S
O43 P32 1.490 . S
H44 C60 0.939 . S
H45 C62 0.939 1_556 S
C46 P32 1.812 . S
C46 C47 1.389 . S
C46 C51 1.391 1_554 S
C47 H33 0.941 . S
C47 C46 1.389 . S
C47 C48 1.397 . S
C48 H34 0.939 . S
C48 C47 1.397 . S
C48 C49 1.378 1_554 S
C49 C48 1.378 1_556 S
C49 C50 1.378 . S
C50 H35 0.940 . S
C50 C49 1.378 . S
C50 C51 1.396 . S
C51 H36 0.940 . S
C51 C46 1.391 1_556 S
C51 C50 1.396 . S
C52 P32 1.803 . S
C52 C53 1.378 1_455 S
C52 C57 1.400 . S
C53 H37 0.939 . S
C53 C52 1.378 1_655 S
C53 C54 1.361 . S
C54 H38 0.942 . S
C54 C53 1.361 . S
C54 C55 1.371 . S
C55 C54 1.371 . S
C55 C56 1.402 1_655 S
C56 H39 0.940 . S
C56 C55 1.402 1_455 S
C56 C57 1.389 . S
C57 H40 0.939 . S
C57 C52 1.400 . S
C57 C56 1.389 . S
C58 P32 1.819 1_655 S
C58 C59 1.391 . S
C58 C63 1.391 . S
C59 H41 0.941 . S
C59 C58 1.391 . S
C59 C60 1.396 1_554 S
C60 H44 0.939 . S
C60 C59 1.396 1_556 S
C60 C61 1.397 . S
C61 C60 1.397 . S
C61 C62 1.385 1_556 S
C62 H45 0.939 1_554 S
C62 C61 1.385 1_554 S
C62 C63 1.388 . S
C63 H42 0.939 . S
C63 C58 1.391 . S
C63 C62 1.388 . S
P64 O75 1.490 . S
P64 C78 1.812 . S
P64 C84 1.803 . S
P64 C90 1.819 . S
H65 C79 0.941 . S
H66 C80 0.939 . S
H67 C82 0.940 . S
H68 C83 0.940 . S
H69 C85 0.939 . S
H70 C86 0.942 . S
H71 C88 0.940 . S
H72 C89 0.939 . S
H73 C91 0.941 . S
H74 C95 0.939 . S
O75 P64 1.490 . S
H76 C92 0.939 . S
H77 C94 0.940 . S
C78 P64 1.812 . S
C78 C79 1.389 . S
C78 C83 1.391 . S
C79 H65 0.941 . S
C79 C78 1.389 . S
C79 C80 1.397 . S
C80 H66 0.939 . S
C80 C79 1.397 . S
C80 C81 1.378 . S
C81 C80 1.378 . S
C81 C82 1.378 . S
C82 H67 0.940 . S
C82 C81 1.378 . S
C82 C83 1.396 . S
C83 H68 0.940 . S
C83 C78 1.391 . S
C83 C82 1.396 . S
C84 P64 1.803 . S
C84 C85 1.378 . S
C84 C89 1.400 . S
C85 H69 0.939 . S
C85 C84 1.378 . S
C85 C86 1.361 . S
C86 H70 0.942 . S
C86 C85 1.361 . S
C86 C87 1.369 . S
C87 C86 1.369 . S
C87 C88 1.404 . S
C88 H71 0.940 . S
C88 C87 1.404 . S
C88 C89 1.389 . S
C89 H72 0.939 . S
C89 C84 1.400 . S
C89 C88 1.389 . S
C90 P64 1.819 . S
C90 C91 1.391 . S
C90 C95 1.391 . S
C91 H73 0.941 . S
C91 C90 1.391 . S
C91 C92 1.396 . S
C92 H76 0.939 . S
C92 C91 1.396 . S
C92 C93 1.397 . S
C93 C92 1.397 . S
C93 C94 1.385 . S
C94 H77 0.940 . S
C94 C93 1.385 . S
C94 C95 1.388 . S
C95 H74 0.939 . S
C95 C90 1.391 . S
C95 C94 1.388 . S
P96 O107 1.490 . S
P96 C110 1.812 . S
P96 C116 1.803 . S
P96 C122 1.819 . S
H97 C111 0.941 . S
H98 C112 0.939 . S
H99 C114 0.940 . S
H100 C115 0.940 . S
H101 C117 0.939 . S
H102 C118 0.942 . S
H103 C120 0.940 . S
H104 C121 0.939 . S
H105 C123 0.941 . S
H106 C127 0.939 . S
O107 P96 1.490 . S
H108 C124 0.939 . S
H109 C126 0.940 . S
C110 P96 1.812 . S
C110 C111 1.389 . S
C110 C115 1.391 . S
C111 H97 0.941 . S
C111 C110 1.389 . S
C111 C112 1.397 . S
C112 H98 0.939 . S
C112 C111 1.397 . S
C112 C113 1.378 . S
C113 C112 1.378 . S
C113 C114 1.378 . S
C114 H99 0.940 . S
C114 C113 1.378 . S
C114 C115 1.396 . S
C115 H100 0.940 . S
C115 C110 1.391 . S
C115 C114 1.396 . S
C116 P96 1.803 . S
C116 C117 1.378 . S
C116 C121 1.400 . S
C117 H101 0.939 . S
C117 C116 1.378 . S
C117 C118 1.361 . S
C118 H102 0.942 . S
C118 C117 1.361 . S
C118 C119 1.369 . S
C119 C118 1.369 . S
C119 C120 1.404 . S
C120 H103 0.940 . S
C120 C119 1.404 . S
C120 C121 1.389 . S
C121 H104 0.939 . S
C121 C116 1.400 . S
C121 C120 1.389 . S
C122 P96 1.819 . S
C122 C123 1.391 . S
C122 C127 1.391 . S
C123 H105 0.941 . S
C123 C122 1.391 . S
C123 C124 1.396 . S
C124 H108 0.939 . S
C124 C123 1.396 . S
C124 C125 1.397 . S
C125 C124 1.397 . S
C125 C126 1.385 . S
C126 H109 0.940 . S
C126 C125 1.385 . S
C126 C127 1.388 . S
C127 H106 0.939 . S
C127 C122 1.391 . S
C127 C126 1.388 . S
Zn128 O134 1.920 . S
Zn128 O140 1.898 . S
Zn128 O143 1.905 1_455 S
Zn129 O137 1.905 . S
Zn129 O138 1.898 . S
Zn129 O146 1.920 . S
Zn130 O133 2.080 . S
Zn130 O136 2.114 1_545 S
Zn130 O139 2.120 1_545 S
Zn130 O141 2.120 . S
Zn130 O142 2.114 1_455 S
Zn130 O145 2.080 1_545 S
C131 O136 1.166 . S
C131 O137 1.182 . S
C132 O138 1.167 . S
C132 O139 1.299 . S
O133 Zn130 2.080 . S
O133 C147 1.305 . S
O134 Zn128 1.920 . S
O134 C147 1.234 . S
C135 O140 1.167 . S
C135 O141 1.299 . S
O136 Zn130 2.114 1_565 S
O136 C131 1.166 . S
O137 Zn129 1.905 . S
O137 C131 1.182 . S
O138 Zn129 1.898 . S
O138 C132 1.167 . S
O139 Zn130 2.120 1_565 S
O139 C132 1.299 . S
O140 Zn128 1.898 . S
O140 C135 1.167 . S
O141 Zn130 2.120 . S
O141 C135 1.299 . S
O142 Zn130 2.114 1_655 S
O142 C144 1.166 . S
O143 Zn128 1.905 1_655 S
O143 C144 1.182 . S
C144 O142 1.166 . S
C144 O143 1.182 . S
O145 Zn130 2.080 1_565 S
O145 C148 1.305 . S
O146 Zn129 1.920 . S
O146 C148 1.234 . S
C147 O133 1.305 . S
C147 O134 1.234 . S
C148 O145 1.305 . S
C148 O146 1.234 . S
Zn149 O155 1.920 . S
Zn149 O161 1.898 . S
Zn149 O164 1.905 . S
Zn150 O158 1.905 . S
Zn150 O159 1.898 . S
Zn150 O167 1.920 . S
Zn151 O154 2.080 . S
Zn151 O157 2.114 . S
Zn151 O160 2.120 . S
Zn151 O162 2.120 . S
Zn151 O163 2.114 . S
Zn151 O166 2.080 . S
C152 O157 1.166 . S
C152 O158 1.182 . S
C153 O159 1.167 . S
C153 O160 1.299 . S
O154 Zn151 2.080 . S
O154 C168 1.305 . S
O155 Zn149 1.920 . S
O155 C168 1.234 . S
C156 O161 1.167 . S
C156 O162 1.299 . S
O157 Zn151 2.114 . S
O157 C152 1.166 . S
O158 Zn150 1.905 . S
O158 C152 1.182 . S
O159 Zn150 1.898 . S
O159 C153 1.167 . S
O160 Zn151 2.120 . S
O160 C153 1.299 . S
O161 Zn149 1.898 . S
O161 C156 1.167 . S
O162 Zn151 2.120 . S
O162 C156 1.299 . S
O163 Zn151 2.114 . S
O163 C165 1.166 . S
O164 Zn149 1.905 . S
O164 C165 1.182 . S
C165 O163 1.166 . S
C165 O164 1.182 . S
O166 Zn151 2.080 . S
O166 C169 1.305 . S
O167 Zn150 1.920 . S
O167 C169 1.234 . S
C168 O154 1.305 . S
C168 O155 1.234 . S
C169 O166 1.305 . S
C169 O167 1.234 . S
H170 C176 0.930 . S
H171 C179 0.930 . S
H172 C180 0.930 . S
H173 C181 0.930 . S
H174 C184 0.930 . S
H175 C185 0.930 . S
C176 H170 0.930 . S
C176 C177 1.355 . S
C176 C178 1.415 . S
C177 C176 1.355 . S
C177 C179 1.419 . S
C178 C176 1.415 . S
C178 C183 1.425 . S
C178 C185 1.409 . S
C179 H171 0.930 . S
C179 C177 1.419 . S
C179 C180 1.362 . S
C180 H172 0.930 . S
C180 C179 1.362 . S
C180 C183 1.409 . S
C181 H173 0.930 . S
C181 C182 1.355 . S
C181 C183 1.415 . S
C182 C181 1.355 . S
C182 C184 1.419 . S
C183 C178 1.425 . S
C183 C180 1.409 . S
C183 C181 1.415 . S
C184 H174 0.930 . S
C184 C182 1.419 . S
C184 C185 1.362 . S
C185 H175 0.930 . S
C185 C178 1.409 . S
C185 C184 1.362 . S
H186 C192 0.930 . S
H187 C195 0.930 . S
H188 C196 0.930 . S
H189 C197 0.930 . S
H190 C200 0.930 . S
H191 C201 0.930 . S
C192 H186 0.930 . S
C192 C193 1.355 1_455 S
C192 C194 1.415 . S
C193 C192 1.355 1_655 S
C193 C195 1.419 . S
C194 C192 1.415 . S
C194 C199 1.425 . S
C194 C201 1.409 . S
C195 H187 0.930 . S
C195 C193 1.419 . S
C195 C196 1.362 . S
C196 H188 0.930 . S
C196 C195 1.362 . S
C196 C199 1.409 1_655 S
C197 H189 0.930 . S
C197 C198 1.355 . S
C197 C199 1.415 . S
C198 C197 1.355 . S
C198 C200 1.419 . S
C199 C194 1.425 . S
C199 C196 1.409 1_455 S
C199 C197 1.415 . S
C200 H190 0.930 . S
C200 C198 1.419 . S
C200 C201 1.362 . S
C201 H191 0.930 . S
C201 C194 1.409 . S
C201 C200 1.362 . S
H202 C208 0.930 . S
H203 C211 0.930 . S
H204 C212 0.930 . S
H205 C213 0.930 . S
H206 C216 0.930 . S
H207 C217 0.930 . S
C208 H202 0.930 . S
C208 C209 1.355 . S
C208 C210 1.415 . S
C209 C208 1.355 . S
C209 C211 1.419 . S
C210 C208 1.415 . S
C210 C215 1.425 . S
C210 C217 1.409 . S
C211 H203 0.930 . S
C211 C209 1.419 . S
C211 C212 1.362 . S
C212 H204 0.930 . S
C212 C211 1.362 . S
C212 C215 1.409 . S
C213 H205 0.930 . S
C213 C214 1.355 . S
C213 C215 1.415 . S
C214 C213 1.355 . S
C214 C216 1.419 . S
C215 C210 1.425 . S
C215 C212 1.409 . S
C215 C213 1.415 . S
C216 H206 0.930 . S
C216 C214 1.419 . S
C216 C217 1.362 . S
C217 H207 0.930 . S
C217 C210 1.409 . S
C217 C216 1.362 . S
H218 C224 0.930 . S
H219 C227 0.930 . S
H220 C228 0.930 . S
H221 C229 0.930 . S
H222 C232 0.930 . S
H223 C233 0.930 . S
C224 H218 0.930 . S
C224 C225 1.355 . S
C224 C226 1.415 . S
C225 C224 1.355 . S
C225 C227 1.419 . S
C226 C224 1.415 . S
C226 C231 1.425 . S
C226 C233 1.409 . S
C227 H219 0.930 . S
C227 C225 1.419 . S
C227 C228 1.362 . S
C228 H220 0.930 . S
C228 C227 1.362 . S
C228 C231 1.409 . S
C229 H221 0.930 . S
C229 C230 1.355 . S
C229 C231 1.415 . S
C230 C229 1.355 . S
C230 C232 1.419 . S
C231 C226 1.425 . S
C231 C228 1.409 . S
C231 C229 1.415 . S
C232 H222 0.930 . S
C232 C230 1.419 . S
C232 C233 1.362 . S
C233 H223 0.930 . S
C233 C226 1.409 . S
C233 C232 1.362 . S
H234 C240 0.930 . S
H235 C243 0.930 . S
H236 C244 0.930 . S
H237 C245 0.930 . S
H238 C248 0.930 . S
H239 C249 0.930 . S
C240 H234 0.930 . S
C240 C241 1.355 . S
C240 C242 1.415 . S
C241 C240 1.355 . S
C241 C243 1.419 . S
C242 C240 1.415 . S
C242 C247 1.425 . S
C242 C249 1.409 . S
C243 H235 0.930 . S
C243 C241 1.419 . S
C243 C244 1.362 . S
C244 H236 0.930 . S
C244 C243 1.362 . S
C244 C247 1.409 . S
C245 H237 0.930 . S
C245 C246 1.355 . S
C245 C247 1.415 . S
C246 C245 1.355 . S
C246 C248 1.419 . S
C247 C242 1.425 . S
C247 C244 1.409 . S
C247 C245 1.415 . S
C248 H238 0.930 . S
C248 C246 1.419 . S
C248 C249 1.362 . S
C249 H239 0.930 . S
C249 C242 1.409 . S
C249 C248 1.362 . S
H250 C256 0.930 . S
H251 C259 0.930 1_554 S
H252 C260 0.930 1_554 S
H253 C261 0.930 . S
H254 C264 0.930 . S
H255 C265 0.930 . S
C256 H250 0.930 . S
C256 C257 1.355 . S
C256 C258 1.415 . S
C257 C256 1.355 . S
C257 C259 1.419 . S
C258 C256 1.415 . S
C258 C263 1.425 . S
C258 C265 1.409 . S
C259 H251 0.930 1_556 S
C259 C257 1.419 . S
C259 C260 1.362 . S
C260 H252 0.930 1_556 S
C260 C259 1.362 . S
C260 C263 1.409 . S
C261 H253 0.930 . S
C261 C262 1.355 . S
C261 C263 1.415 . S
C262 C261 1.355 . S
C262 C264 1.419 . S
C263 C258 1.425 . S
C263 C260 1.409 . S
C263 C261 1.415 . S
C264 H254 0.930 . S
C264 C262 1.419 . S
C264 C265 1.362 . S
C265 H255 0.930 . S
C265 C258 1.409 . S
C265 C264 1.362 . S
H266 C272 0.930 . S
H267 C275 0.930 . S
H268 C276 0.930 . S
H269 C277 0.930 . S
H270 C280 0.930 . S
H271 C281 0.930 . S
C272 H266 0.930 . S
C272 C273 1.355 . S
C272 C274 1.415 . S
C273 C272 1.355 . S
C273 C275 1.419 . S
C274 C272 1.415 . S
C274 C279 1.425 . S
C274 C281 1.409 . S
C275 H267 0.930 . S
C275 C273 1.419 . S
C275 C276 1.362 . S
C276 H268 0.930 . S
C276 C275 1.362 . S
C276 C279 1.409 . S
C277 H269 0.930 . S
C277 C278 1.355 . S
C277 C279 1.415 . S
C278 C277 1.355 . S
C278 C280 1.419 . S
C279 C274 1.425 . S
C279 C276 1.409 . S
C279 C277 1.415 . S
C280 H270 0.930 . S
C280 C278 1.419 . S
C280 C281 1.362 . S
C281 H271 0.930 . S
C281 C274 1.409 . S
C281 C280 1.362 . S
H282 C288 0.930 . S
H283 C291 0.930 1_554 S
H284 C292 0.946 . S
H285 C293 0.930 . S
H286 C296 0.930 . S
H287 C297 0.930 . S
C288 H282 0.930 . S
C288 C289 1.355 . S
C288 C290 1.415 . S
C289 C288 1.355 . S
C289 C291 1.419 . S
C290 C288 1.415 . S
C290 C295 1.425 . S
C290 C297 1.409 . S
C291 H283 0.930 1_556 S
C291 C289 1.419 . S
C291 C292 1.362 . S
C292 H284 0.946 . S
C292 C291 1.362 . S
C292 C295 1.409 . S
C293 H285 0.930 . S
C293 C294 1.355 . S
C293 C295 1.415 . S
C294 C293 1.355 . S
C294 C296 1.419 . S
C295 C290 1.425 . S
C295 C292 1.409 . S
C295 C293 1.415 . S
C296 H286 0.930 . S
C296 C294 1.419 . S
C296 C297 1.362 . S
C297 H287 0.930 . S
C297 C290 1.409 . S
C297 C296 1.362 . S
H298 C304 0.930 . S
H299 C307 0.930 . S
H300 C308 0.930 . S
H301 C309 0.930 . S
H302 C312 0.930 . S
H303 C313 0.930 . S
C304 H298 0.930 . S
C304 C305 1.355 . S
C304 C306 1.415 . S
C305 C304 1.355 . S
C305 C307 1.419 . S
C306 C304 1.415 . S
C306 C311 1.425 . S
C306 C313 1.409 . S
C307 H299 0.930 . S
C307 C305 1.419 . S
C307 C308 1.362 . S
C308 H300 0.930 . S
C308 C307 1.362 . S
C308 C311 1.409 . S
C309 H301 0.930 . S
C309 C310 1.355 . S
C309 C311 1.415 . S
C310 C309 1.355 . S
C310 C312 1.419 1_655 S
C311 C306 1.425 . S
C311 C308 1.409 . S
C311 C309 1.415 . S
C312 H302 0.930 . S
C312 C310 1.419 1_455 S
C312 C313 1.362 1_455 S
C313 H303 0.930 . S
C313 C306 1.409 . S
C313 C312 1.362 1_655 S
H314 C320 0.930 . S
H315 C323 0.930 . S
H316 C324 0.930 . S
H317 C325 0.930 . S
H318 C328 0.930 . S
H319 C329 0.930 . S
C320 H314 0.930 . S
C320 C321 1.355 . S
C320 C322 1.415 . S
C321 C320 1.355 . S
C321 C323 1.419 . S
C322 C320 1.415 . S
C322 C327 1.425 . S
C322 C329 1.409 . S
C323 H315 0.930 . S
C323 C321 1.419 . S
C323 C324 1.362 . S
C324 H316 0.930 . S
C324 C323 1.362 . S
C324 C327 1.409 . S
C325 H317 0.930 . S
C325 C326 1.355 . S
C325 C327 1.415 . S
C326 C325 1.355 . S
C326 C328 1.419 . S
C327 C322 1.425 . S
C327 C324 1.409 . S
C327 C325 1.415 . S
C328 H318 0.930 . S
C328 C326 1.419 . S
C328 C329 1.362 . S
C329 H319 0.930 . S
C329 C322 1.409 . S
C329 C328 1.362 . S
H330 C336 0.930 . S
H331 C339 0.930 . S
H332 C340 0.930 . S
H333 C341 0.930 . S
H334 C344 0.930 . S
H335 C345 0.930 . S
C336 H330 0.930 . S
C336 C337 1.355 . S
C336 C338 1.415 . S
C337 C336 1.355 . S
C337 C339 1.419 . S
C338 C336 1.415 . S
C338 C343 1.425 . S
C338 C345 1.409 . S
C339 H331 0.930 . S
C339 C337 1.419 . S
C339 C340 1.362 . S
C340 H332 0.930 . S
C340 C339 1.362 . S
C340 C343 1.409 . S
C341 H333 0.930 . S
C341 C342 1.355 . S
C341 C343 1.415 . S
C342 C341 1.355 . S
C342 C344 1.419 . S
C343 C338 1.425 . S
C343 C340 1.409 . S
C343 C341 1.415 . S
C344 H334 0.930 . S
C344 C342 1.419 . S
C344 C345 1.362 . S
C345 H335 0.930 . S
C345 C338 1.409 . S
C345 C344 1.362 . S
H346 C352 0.930 . S
H347 C355 0.930 . S
H348 C356 0.930 . S
H349 C357 0.930 . S
H350 C360 0.930 . S
H351 C361 0.930 . S
C352 H346 0.930 . S
C352 C353 1.355 . S
C352 C354 1.415 . S
C353 C352 1.355 . S
C353 C355 1.419 . S
C354 C352 1.415 . S
C354 C359 1.425 . S
C354 C361 1.409 . S
C355 H347 0.930 . S
C355 C353 1.419 . S
C355 C356 1.362 . S
C356 H348 0.930 . S
C356 C355 1.362 . S
C356 C359 1.409 . S
C357 H349 0.930 . S
C357 C358 1.355 . S
C357 C359 1.415 . S
C358 C357 1.355 . S
C358 C360 1.419 . S
C359 C354 1.425 . S
C359 C356 1.409 . S
C359 C357 1.415 . S
C360 H350 0.930 . S
C360 C358 1.419 . S
C360 C361 1.362 . S
C361 H351 0.930 . S
C361 C354 1.409 . S
C361 C360 1.362 . S
C182 C135 1.444 . S
C177 C23 1.521 . S
C198 C131 1.396 . S
C193 C55 1.495 . S
C214 C156 1.379 . S
C209 C87 1.519 . S
C225 C119 1.414 . S
C230 C152 1.477 . S
C241 C17 1.282 . S
C246 C153 1.055 . S
C262 C168 1.177 . S
C257 C61 1.253 . S
C273 C29 1.663 . S
C278 C169 1.489 . S
C294 C165 1.514 . S
C289 C49 1.596 . S
C310 C132 1.038 1_655 S
C305 C81 1.284 . S
C321 C125 1.264 . S
C326 C147 1.183 . S
C342 C148 1.567 . S
C337 C93 1.672 . S
C358 C144 1.493 . S
C353 C113 1.599 . S
