# Generated by pormake.
# Topology anh, (6,3)-cn, num edge types: 1
# Building blocks:
#     Node 0, Type 0, BuildingBlock: INOVEN_clean_sbu_0, # of connection points: 6
#     Node 1, Type 0, BuildingBlock: INOVEN_clean_sbu_0, # of connection points: 6
#     Node 2, Type 0, BuildingBlock: INOVEN_clean_sbu_0, # of connection points: 6
#     Node 3, Type 1, BuildingBlock: KAKCAD_clean_linker_0, # of connection points: 3
#     Node 4, Type 1, BuildingBlock: KAKCAD_clean_linker_0, # of connection points: 3
#     Node 5, Type 1, BuildingBlock: KAKCAD_clean_linker_0, # of connection points: 3
#     Node 6, Type 1, BuildingBlock: KAKCAD_clean_linker_0, # of connection points: 3
#     Node 7, Type 1, BuildingBlock: KAKCAD_clean_linker_0, # of connection points: 3
#     Node 8, Type 1, BuildingBlock: KAKCAD_clean_linker_0, # of connection points: 3
#     Edge 9, Type (0, 1), BuildingBlock: ZUJKAS_clean_linker_0, # of connection points: 2
#     Edge 10, Type (0, 1), BuildingBlock: ZUJKAS_clean_linker_0, # of connection points: 2
#     Edge 11, Type (0, 1), BuildingBlock: ZUJKAS_clean_linker_0, # of connection points: 2
#     Edge 12, Type (0, 1), BuildingBlock: ZUJKAS_clean_linker_0, # of connection points: 2
#     Edge 13, Type (0, 1), BuildingBlock: ZUJKAS_clean_linker_0, # of connection points: 2
#     Edge 14, Type (0, 1), BuildingBlock: ZUJKAS_clean_linker_0, # of connection points: 2
#     Edge 15, Type (0, 1), BuildingBlock: ZUJKAS_clean_linker_0, # of connection points: 2
#     Edge 16, Type (0, 1), BuildingBlock: ZUJKAS_clean_linker_0, # of connection points: 2
#     Edge 17, Type (0, 1), BuildingBlock: ZUJKAS_clean_linker_0, # of connection points: 2
#     Edge 18, Type (0, 1), BuildingBlock: ZUJKAS_clean_linker_0, # of connection points: 2
#     Edge 19, Type (0, 1), BuildingBlock: ZUJKAS_clean_linker_0, # of connection points: 2
#     Edge 20, Type (0, 1), BuildingBlock: ZUJKAS_clean_linker_0, # of connection points: 2
#     Edge 21, Type (0, 1), BuildingBlock: ZUJKAS_clean_linker_0, # of connection points: 2
#     Edge 22, Type (0, 1), BuildingBlock: ZUJKAS_clean_linker_0, # of connection points: 2
#     Edge 23, Type (0, 1), BuildingBlock: ZUJKAS_clean_linker_0, # of connection points: 2
#     Edge 24, Type (0, 1), BuildingBlock: ZUJKAS_clean_linker_0, # of connection points: 2
#     Edge 25, Type (0, 1), BuildingBlock: ZUJKAS_clean_linker_0, # of connection points: 2
#     Edge 26, Type (0, 1), BuildingBlock: ZUJKAS_clean_linker_0, # of connection points: 2
# Relax obj value: 0.161
# Max RMSD: 0.202
# Mean RMSD: 0.151
data_MOF--net-anh--node1-INOVEN_clean_sbu_0--node2-KAKCAD_clean_linker_0--edge1-ZUJKAS_clean_linker_0
_symmetry_space_group_name_H-M    P1
_symmetry_Int_Tables_number       1
_symmetry_cell_setting            triclinic
loop_
_symmetry_equiv_pos_as_xyz
'x, y, z'
_cell_length_a     45.600153
_cell_length_b     52.624487
_cell_length_c     82.753742
_cell_angle_alpha  93.38847
_cell_angle_beta   88.989065
_cell_angle_gamma 127.16437
loop_
_atom_site_label
_atom_site_type_symbol
_atom_site_fract_x
_atom_site_fract_y
_atom_site_fract_z
_atom_type_partial_charge
Gd0 Gd 0.105 0.53195 0.14785 0.0
Gd1 Gd 0.05825 0.55181 0.15921 0.0
C2 C 0.14518 0.60685 0.1577 0.0
C3 C 0.15433 0.52871 0.13466 0.0
C4 C 0.19114 0.54185 0.14087 0.0
C5 C 0.19847 0.54723 0.15765 0.0
C6 C 0.21917 0.54933 0.13022 0.0
C7 C 0.26053 0.56451 0.15314 0.0
C8 C 0.25378 0.56073 0.13632 0.0
C9 C 0.23281 0.55818 0.16374 0.0
C10 C 0.09037 0.52567 0.17969 0.0
C11 C 1.02025 0.47797 0.15096 0.0
C12 C 1.01963 0.56475 0.17529 0.0
C13 C 0.97964 0.54316 0.1771 0.0
C14 C 0.9588 0.51564 0.16666 0.0
C15 C 0.96288 0.54691 0.19043 0.0
C16 C 0.90516 0.49498 0.18314 0.0
C17 C 0.92564 0.52304 0.19335 0.0
C18 C 0.92198 0.49178 0.16965 0.0
C19 C 0.05315 0.53723 0.1269 0.0
O20 O 0.14881 0.58377 0.15547 0.0
O21 O 0.11247 0.60069 0.15855 0.0
O22 O 0.12706 0.5058 0.14277 0.0
O23 O 0.1496 0.5498 0.13099 0.0
O24 O 0.09314 0.50625 0.17073 0.0
O25 O 0.09781 0.5484 0.17167 0.0
O26 O 1.02153 0.49867 0.16135 0.0
O27 O 1.04815 0.48713 0.14136 0.0
O28 O 1.03115 0.57439 0.16069 0.0
O29 O 1.03662 0.55493 0.18204 0.0
O30 O 1.02561 0.53088 0.13545 0.0
O31 O 0.08186 0.55219 0.13563 0.0
H32 H 0.1773 0.54221 0.16605 0.0
H33 H 0.21405 0.54569 0.11725 0.0
H34 H 0.27469 0.56511 0.12794 0.0
H35 H 0.23746 0.56094 0.17673 0.0
H36 H 0.97133 0.51205 0.15644 0.0
H37 H 0.97879 0.56775 0.19878 0.0
H38 H 0.91315 0.52605 0.2038 0.0
H39 H 0.90665 0.47071 0.1614 0.0
Gd40 Gd 0.59176 0.01467 0.4867 0.0
Gd41 Gd 0.54407 0.03526 0.48087 0.0
C42 C 0.50368 0.9611 0.47972 0.0
C43 C 0.62058 0.98845 0.49684 0.0
C44 C 0.61019 0.95633 0.49893 0.0
C45 C 0.63434 0.94954 0.49375 0.0
C46 C 0.57708 0.93257 0.50616 0.0
C47 C 0.59316 0.89599 0.50339 0.0
C48 C 0.56874 0.9027 0.50844 0.0
C49 C 0.6259 0.91967 0.4959 0.0
C50 C 0.5885 0.02613 0.45573 0.0
C51 C 0.63319 0.08927 0.48676 0.0
C52 C 0.51656 0.06293 0.4714 0.0
C53 C 0.52221 0.09332 0.47588 0.0
C54 C 0.51239 0.0988 0.49117 0.0
C55 C 0.53776 0.11732 0.46479 0.0
C56 C 0.53425 0.15194 0.48429 0.0
C57 C 0.54381 0.14634 0.46895 0.0
C58 C 0.51829 0.12771 0.49531 0.0
C59 C 0.54943 0.026 0.51212 0.0
O60 O 0.53368 0.96841 0.48703 0.0
O61 O 0.50308 0.98333 0.47353 0.0
O62 O 0.62292 0.99631 0.48193 0.0
O63 O 0.60563 0.9982 0.50645 0.0
O64 O 0.6179 0.03303 0.46274 0.0
O65 O 0.56158 0.0119 0.46508 0.0
O66 O 0.60157 0.08212 0.48158 0.0
O67 O 0.63591 0.06715 0.49136 0.0
O68 O 0.50116 0.04125 0.48214 0.0
O69 O 0.54368 0.06522 0.46406 0.0
O70 O 0.51992 0.0196 0.50556 0.0
O71 O 0.57524 0.03907 0.50224 0.0
H72 H 0.66002 0.96754 0.48816 0.0
H73 H 0.5578 0.93712 0.51014 0.0
H74 H 0.54314 0.88481 0.5141 0.0
H75 H 0.64547 0.91538 0.49206 0.0
H76 H 0.50017 0.08079 0.50001 0.0
H77 H 0.54551 0.11372 0.45291 0.0
H78 H 0.5565 0.16457 0.46023 0.0
H79 H 0.50998 0.13094 0.50712 0.0
Gd80 Gd 0.61452 0.56152 0.8447 0.0
Gd81 Gd 0.56288 0.48974 0.84701 0.0
C82 C 0.5254 0.52492 0.84798 0.0
C83 C 0.64743 0.61966 0.83677 0.0
C84 C 0.63839 0.64161 0.83389 0.0
C85 C 0.66383 0.67405 0.83874 0.0
C86 C 0.60515 0.63089 0.82625 0.0
C87 C 0.62354 0.68518 0.82796 0.0
C88 C 0.59787 0.65253 0.82325 0.0
C89 C 0.65648 0.69563 0.83584 0.0
C90 C 0.60545 0.54106 0.8747 0.0
C91 C 0.65275 0.52687 0.84491 0.0
C92 C 0.53098 0.43149 0.85449 0.0
C93 C 0.5378 0.40771 0.85133 0.0
C94 C 0.56591 0.41393 0.841 0.0
C95 C 0.51556 0.37826 0.85839 0.0
C96 C 0.54865 0.3608 0.84441 0.0
C97 C 0.52092 0.35499 0.85498 0.0
C98 C 0.57131 0.39069 0.83757 0.0
C99 C 0.57255 0.50955 0.81676 0.0
O100 O 0.55738 0.5498 0.84275 0.0
O101 O 0.52202 0.49971 0.85279 0.0
O102 O 0.64542 0.61202 0.85172 0.0
O103 O 0.63455 0.59548 0.82617 0.0
O104 O 0.63672 0.56539 0.86962 0.0
O105 O 0.58048 0.52997 0.86407 0.0
O106 O 0.6197 0.50081 0.84832 0.0
O107 O 0.65741 0.55326 0.84128 0.0
O108 O 0.52148 0.43899 0.84185 0.0
O109 O 0.55505 0.45639 0.86401 0.0
O110 O 0.54163 0.48491 0.8218 0.0
O111 O 0.59735 0.52113 0.82754 0.0
H112 H 0.68962 0.68278 0.84465 0.0
H113 H 0.58495 0.60588 0.82251 0.0
H114 H 0.57207 0.64369 0.81732 0.0
H115 H 0.677 0.72065 0.83946 0.0
H116 H 0.58332 0.43658 0.83541 0.0
H117 H 0.49384 0.37314 0.86645 0.0
H118 H 0.50336 0.33246 0.86065 0.0
H119 H 0.59263 0.39587 0.82924 0.0
C120 C 0.59778 0.07258 0.27581 0.0
C121 C 0.59193 0.04693 0.28367 0.0
C122 C 0.60037 0.07341 0.25894 0.0
C123 C 0.59715 0.04861 0.24958 0.0
C124 C 0.5923 0.02344 0.2575 0.0
C125 C 0.58971 0.02261 0.27432 0.0
C126 C 0.59705 0.04809 0.23159 0.0
C127 C 0.62206 0.07589 0.22343 0.0
C128 C 0.6213 0.07549 0.20638 0.0
C129 C 0.59475 0.04654 0.19753 0.0
C130 C 0.56995 0.01847 0.20559 0.0
C131 C 0.5713 0.01954 0.22254 0.0
C132 C 0.54169 0.98764 0.19672 0.0
C133 C 0.51502 0.98454 0.18672 0.0
C134 C 0.53853 0.96019 0.19995 0.0
C135 C 0.50827 0.93002 0.19404 0.0
C136 C 0.48011 0.92649 0.18495 0.0
C137 C 0.64886 0.10527 0.19803 0.0
C138 C 0.65974 0.13511 0.20465 0.0
C139 C 0.66587 0.1044 0.18388 0.0
C140 C 0.69373 0.13271 0.17682 0.0
C141 C 0.70535 0.16262 0.18374 0.0
C142 C 0.68765 0.16335 0.19766 0.0
C143 C 0.48441 0.95421 0.18093 0.0
H144 H 0.59933 0.09157 0.28264 0.0
H145 H 0.60374 0.09297 0.25319 0.0
H146 H 0.5904 0.00427 0.25067 0.0
H147 H 0.58604 1.00288 0.28002 0.0
H148 H 0.64278 0.0977 0.23041 0.0
H149 H 0.55138 0.99807 0.22873 0.0
H150 H 0.59338 0.04575 0.18443 0.0
H151 H 0.51673 0.00536 0.18419 0.0
H152 H 0.55894 0.96202 0.20753 0.0
H153 H 0.50646 0.90936 0.19701 0.0
H154 H 0.64691 0.13674 0.21539 0.0
H155 H 0.65842 0.0819 0.1785 0.0
H156 H 0.46322 0.95244 0.17403 0.0
H157 H 0.696 0.18583 0.20349 0.0
H158 H 0.7063 0.13111 0.16597 0.0
C159 C 0.56621 0.54467 0.63825 0.0
C160 C 0.59252 0.54352 0.64602 0.0
C161 C 0.56374 0.54297 0.62136 0.0
C162 C 0.58748 0.54001 0.61184 0.0
C163 C 0.61393 0.53903 0.6196 0.0
C164 C 0.61648 0.54083 0.63651 0.0
C165 C 0.58445 0.53776 0.59387 0.0
C166 C 0.57904 0.55747 0.5859 0.0
C167 C 0.57577 0.55536 0.56893 0.0
C168 C 0.57793 0.5331 0.55987 0.0
C169 C 0.58316 0.51301 0.56766 0.0
C170 C 0.58651 0.51563 0.58465 0.0
C171 C 0.58407 0.48852 0.55827 0.0
C172 C 0.55778 0.46875 0.54591 0.0
C173 C 0.61006 0.48359 0.56223 0.0
C174 C 0.60909 0.45884 0.55439 0.0
C175 C 0.582 0.43828 0.54242 0.0
C176 C 0.57055 0.57688 0.56088 0.0
C177 C 0.54471 0.58127 0.56675 0.0
C178 C 0.59265 0.59449 0.54794 0.0
C179 C 0.58998 0.61701 0.54143 0.0
C180 C 0.56492 0.62218 0.54765 0.0
C181 C 0.5418 0.60352 0.56016 0.0
C182 C 0.55671 0.44386 0.53809 0.0
H183 H 0.54759 0.54706 0.64523 0.0
H184 H 0.54285 0.54351 0.61576 0.0
H185 H 0.63285 0.53706 0.61261 0.0
H186 H 0.63682 0.53959 0.64212 0.0
H187 H 0.57823 0.57511 0.5929 0.0
H188 H 0.58954 0.49965 0.59076 0.0
H189 H 0.57539 0.53133 0.54678 0.0
H190 H 0.53716 0.47176 0.5427 0.0
H191 H 0.63104 0.49877 0.57151 0.0
H192 H 0.62951 0.4557 0.55778 0.0
H193 H 0.52692 0.56765 0.57655 0.0
H194 H 0.613 0.59175 0.54327 0.0
H195 H 0.53524 0.42831 0.52906 0.0
H196 H 0.52156 0.60625 0.565 0.0
H197 H 0.60851 0.63114 0.53193 0.0
C198 C 0.10761 0.54421 0.94632 0.0
C199 C 0.07311 0.52227 0.9532 0.0
C200 C 0.11133 0.54515 0.9295 0.0
C201 C 0.08061 0.52436 0.91915 0.0
C202 C 1.04619 0.50229 0.92597 0.0
C203 C 1.04251 0.50117 0.94278 0.0
C204 C 0.08422 0.52603 0.90127 0.0
C205 C 0.1133 0.52826 0.89358 0.0
C206 C 0.11694 0.52962 0.87667 0.0
C207 C 0.0905 0.52884 0.86732 0.0
C208 C 0.06151 0.52744 0.87505 0.0
C209 C 0.05871 0.52577 0.89192 0.0
C210 C 1.03408 0.52889 0.86638 0.0
C211 C 1.03638 0.55678 0.86825 0.0
C212 C 1.00139 0.50089 0.85972 0.0
C213 C 0.97131 0.50057 0.85556 0.0
C214 C 0.97297 0.52823 0.85805 0.0
C215 C 0.14916 0.53231 0.86956 0.0
C216 C 0.18502 0.55709 0.87538 0.0
C217 C 0.14435 0.50785 0.85917 0.0
C218 C 0.1744 0.50751 0.85531 0.0
C219 C 0.21017 0.53182 0.8616 0.0
C220 C 0.21501 0.55697 0.8714 0.0
C221 C 1.00645 0.55653 0.86408 0.0
H222 H 0.13169 0.56118 0.95392 0.0
H223 H 0.13813 0.56268 0.9246 0.0
H224 H 1.02211 0.48566 0.91829 0.0
H225 H 1.01566 0.48353 0.94759 0.0
H226 H 0.13296 0.52833 0.9008 0.0
H227 H 1.03672 0.52487 0.89787 0.0
H228 H 0.09305 0.53022 0.85431 0.0
H229 H 0.06076 0.57848 0.87381 0.0
H230 H 0.99839 0.47882 0.85853 0.0
H231 H 0.94639 0.47836 0.85075 0.0
H232 H 0.18965 0.57609 0.88357 0.0
H233 H 0.11706 0.48815 0.85468 0.0
H234 H 1.00901 0.57826 0.86645 0.0
H235 H 0.24179 0.57596 0.87665 0.0
H236 H 0.16949 0.48788 0.84759 0.0
C237 C 1.03478 0.50118 0.36115 0.0
C238 C 0.06765 0.51386 0.35282 0.0
C239 C 1.03446 0.50134 0.37805 0.0
C240 C 0.06699 0.51415 0.38702 0.0
C241 C 0.09979 0.52658 0.37868 0.0
C242 C 0.10012 0.52646 0.36179 0.0
C243 C 0.06679 0.51511 0.40502 0.0
C244 C 1.03765 0.48918 0.41316 0.0
C245 C 1.0363 0.49027 0.43019 0.0
C246 C 0.06526 0.51787 0.43912 0.0
C247 C 0.09512 0.54378 0.43112 0.0
C248 C 0.09546 0.5422 0.41413 0.0
C249 C 0.12604 0.57311 0.44018 0.0
C250 C 0.11953 0.58981 0.45168 0.0
C251 C 0.16251 0.58619 0.43616 0.0
C252 C 0.1918 0.61595 0.44297 0.0
C253 C 0.18532 0.63349 0.45388 0.0
C254 C 1.00472 0.46214 0.43832 0.0
C255 C 0.96906 0.44445 0.43137 0.0
C256 C 1.01002 0.45147 0.45241 0.0
C257 C 0.98068 0.42306 0.45892 0.0
C258 C 0.94565 0.40467 0.45137 0.0
C259 C 0.94002 0.41598 0.43773 0.0
C260 C 0.1489 0.61984 0.45839 0.0
H261 H 1.00919 0.49095 0.35462 0.0
H262 H 1.00879 0.49188 0.3841 0.0
H263 H 0.12526 0.53633 0.38521 0.0
H264 H 0.126 0.53672 0.35577 0.0
H265 H 1.01627 0.46773 0.40615 0.0
H266 H 0.11775 0.56263 0.40796 0.0
H267 H 0.06469 0.51924 0.45222 0.0
H268 H 0.09165 0.58032 0.45491 0.0
H269 H 0.1683 0.57373 0.42738 0.0
H270 H 0.21943 0.62585 0.43912 0.0
H271 H 0.96364 0.45234 0.42081 0.0
H272 H 1.0371 0.46434 0.45803 0.0
H273 H 0.14307 0.63267 0.46687 0.0
H274 H 0.91311 0.40258 0.43186 0.0
H275 H 0.98572 0.41481 0.46945 0.0
C276 C 0.56162 0.99143 0.69198 0.0
C277 C 0.58203 0.0203 0.68422 0.0
C278 C 0.56271 0.99147 0.70886 0.0
C279 C 0.58454 0.02039 0.71836 0.0
C280 C 0.60537 0.04925 0.71052 0.0
C281 C 0.60397 0.0492 0.69366 0.0
C282 C 0.58533 0.02053 0.73636 0.0
C283 C 0.58457 0.99702 0.74401 0.0
C284 C 0.58501 0.99682 0.76098 0.0
C285 C 0.5867 0.02084 0.77041 0.0
C286 C 0.58753 0.04463 0.76298 0.0
C287 C 0.58662 0.0441 0.74598 0.0
C288 C 0.58852 0.06982 0.77274 0.0
C289 C 0.56522 0.06205 0.78594 0.0
C290 C 0.61142 0.10164 0.7683 0.0
C291 C 0.61018 0.12495 0.77649 0.0
C292 C 0.58598 0.11704 0.78933 0.0
C293 C 0.5839 0.97144 0.76866 0.0
C294 C 0.55882 0.9394 0.76289 0.0
C295 C 0.60883 0.97908 0.78121 0.0
C296 C 0.6095 0.95527 0.78747 0.0
C297 C 0.58504 0.92326 0.78138 0.0
C298 C 0.55926 0.9156 0.76921 0.0
C299 C 0.56388 0.0854 0.79412 0.0
H300 H 0.54413 0.96881 0.68502 0.0
H301 H 0.54585 0.96882 0.71446 0.0
H302 H 0.62305 0.07194 0.7174 0.0
H303 H 0.62038 0.0718 0.68799 0.0
H304 H 0.58447 0.97913 0.73675 0.0
H305 H 0.58589 0.06168 0.74022 0.0
H306 H 0.58721 0.02092 0.78351 0.0
H307 H 0.54712 0.03772 0.7896 0.0
H308 H 0.62998 0.10846 0.7583 0.0
H309 H 0.62734 0.14898 0.77238 0.0
H310 H 0.53888 0.93273 0.7534 0.0
H311 H 0.62867 1.00362 0.7858 0.0
H312 H 0.54525 0.07859 0.80408 0.0
H313 H 0.53941 0.89116 0.7645 0.0
H314 H 0.62998 0.96215 0.79671 0.0
C315 C 0.52023 0.38739 0.03646 0.0
C316 C 0.53202 0.41756 0.03198 0.0
C317 C 0.51046 0.37877 0.05249 0.0
C318 C 0.51242 0.40026 0.0642 0.0
C319 C 0.52613 0.43096 0.05981 0.0
C320 C 0.53567 0.43945 0.0439 0.0
C321 C 0.49892 0.39083 0.08084 0.0
C322 C 0.5103 0.37668 0.09025 0.0
C323 C 0.50063 0.37131 0.10668 0.0
C324 C 0.47834 0.37937 0.11325 0.0
C325 C 0.46913 0.39552 0.10435 0.0
C326 C 0.47784 0.3996 0.08795 0.0
C327 C 0.45772 0.41374 0.11294 0.0
C328 C 0.43345 0.40128 0.12595 0.0
C329 C 0.47512 0.44567 0.10941 0.0
C330 C 0.46926 0.46491 0.11887 0.0
C331 C 0.4461 0.45288 0.13222 0.0
C332 C 0.51832 0.36233 0.11767 0.0
C333 C 0.52943 0.34363 0.11199 0.0
C334 C 0.52685 0.37473 0.13389 0.0
C335 C 0.54658 0.36947 0.14391 0.0
C336 C 0.56011 0.35297 0.13791 0.0
C337 C 0.55041 0.33924 0.12196 0.0
C338 C 0.42768 0.42067 0.13551 0.0
H339 H 0.51728 0.37011 0.02748 0.0
H340 H 0.50015 0.35502 0.05559 0.0
H341 H 0.52902 0.44839 0.06866 0.0
H342 H 0.54557 0.46315 0.04088 0.0
H343 H 0.52878 0.37211 0.08505 0.0
H344 H 0.46979 0.41128 0.0809 0.0
H345 H 0.47063 0.37553 0.1258 0.0
H346 H 0.41953 0.37675 0.12895 0.0
H347 H 0.49456 0.45635 0.09971 0.0
H348 H 0.48312 0.48936 0.11575 0.0
H349 H 0.52292 0.33315 0.09971 0.0
H350 H 0.52007 0.39001 0.13887 0.0
H351 H 0.40952 0.41068 0.14568 0.0
H352 H 0.5604 0.32639 0.11692 0.0
H353 H 0.55264 0.37969 0.15624 0.0
H354 H 0.26488 0.52875 0.17354 0.0
H355 H 0.31798 0.5301 0.1787 0.0
H356 H 0.38617 0.61567 0.15244 0.0
H357 H 0.33191 0.61304 0.14641 0.0
H358 H 0.391 0.57469 0.13956 0.0
H359 H 0.40846 0.56912 0.20411 0.0
H360 H 0.3606 0.53936 0.19944 0.0
H361 H 0.38127 0.58099 0.19714 0.0
C362 C 0.29147 0.54851 0.16938 0.0
C363 C 0.29441 0.57063 0.15947 0.0
C364 C 0.32208 0.54955 0.17252 0.0
C365 C 0.35645 0.57324 0.16616 0.0
C366 C 0.36002 0.59718 0.15752 0.0
H367 H 0.49814 0.51544 0.14254 0.0
H368 H 0.48712 0.55259 0.15454 0.0
C369 C 0.32909 0.59566 0.15402 0.0
C370 C 0.38516 0.56821 0.16526 0.0
H371 H 0.41563 0.53331 0.18559 0.0
C372 C 0.39772 0.567 0.14981 0.0
C373 C 0.39443 0.55835 0.17856 0.0
C374 C 0.38572 0.56244 0.19574 0.0
C375 C 0.41523 0.55273 0.14699 0.0
C376 C 0.42005 0.53917 0.15992 0.0
C377 C 0.41112 0.54324 0.17566 0.0
C378 C 0.42851 0.5165 0.15654 0.0
C379 C 0.4254 0.54956 0.12992 0.0
C380 C 0.39923 0.48389 0.15421 0.0
C381 C 0.40522 0.46273 0.1471 0.0
C382 C 0.44065 0.47395 0.14225 0.0
C383 C 0.47038 0.50626 0.14581 0.0
C384 C 0.4643 0.52744 0.15285 0.0
H385 H 0.42026 0.56186 0.12125 0.0
H386 H 0.45499 0.55984 0.12961 0.0
H387 H 0.40925 0.52391 0.12581 0.0
H388 H 0.37134 0.47521 0.15687 0.0
H389 H 0.38176 0.43808 0.14447 0.0
H390 H 0.70508 0.11193 0.48491 0.0
H391 H 0.75896 0.16714 0.48191 0.0
H392 H 0.69021 0.19798 0.48627 0.0
H393 H 0.63609 0.14265 0.48845 0.0
H394 H 0.73133 0.2229 0.46191 0.0
H395 H 0.82183 0.24266 0.51242 0.0
H396 H 0.80884 0.20859 0.49956 0.0
H397 H 0.77416 0.20818 0.51064 0.0
C398 C 0.70159 0.13058 0.4855 0.0
C399 C 0.66637 0.12296 0.48691 0.0
C400 C 0.73249 0.16222 0.4839 0.0
C401 C 0.72893 0.18699 0.48413 0.0
C402 C 0.69381 0.17941 0.48607 0.0
H403 H 0.92019 0.38942 0.48224 0.0
H404 H 0.86719 0.33735 0.49101 0.0
C405 C 0.66286 0.14775 0.48734 0.0
C406 C 0.76101 0.22024 0.48089 0.0
H407 H 0.8512 0.27956 0.49127 0.0
C408 C 0.75737 0.23536 0.4685 0.0
C409 C 0.79496 0.23692 0.4896 0.0
C410 C 0.80006 0.22336 0.50391 0.0
C411 C 0.78677 0.26612 0.46429 0.0
C412 C 0.82143 0.28188 0.47222 0.0
C413 C 0.82485 0.26729 0.48497 0.0
C414 C 0.85446 0.31317 0.4672 0.0
C415 C 0.78007 0.28149 0.45149 0.0
C416 C 0.86558 0.31671 0.45103 0.0
C417 C 0.89531 0.34638 0.44601 0.0
C418 C 0.91519 0.37303 0.4571 0.0
C419 C 0.90524 0.36925 0.47344 0.0
C420 C 0.875 0.33956 0.47844 0.0
H421 H 0.75061 0.27162 0.45076 0.0
H422 H 0.79688 0.30777 0.45392 0.0
H423 H 0.78744 0.27648 0.4395 0.0
H424 H 0.85107 0.29652 0.44224 0.0
H425 H 0.90288 0.34848 0.4334 0.0
H426 H 0.59617 0.68908 0.79982 0.0
H427 H 0.58806 0.72932 0.79339 0.0
H428 H 0.62671 0.77401 0.84147 0.0
H429 H 0.63524 0.73405 0.84792 0.0
H430 H 0.54584 0.74552 0.80699 0.0
H431 H 0.69386 0.84856 0.81358 0.0
H432 H 0.67794 0.8077 0.81284 0.0
H433 H 0.67513 0.82597 0.83127 0.0
C434 C 0.60267 0.70733 0.80907 0.0
C435 C 0.61663 0.70852 0.82434 0.0
C436 C 0.59815 0.73039 0.80536 0.0
C437 C 0.60748 0.75508 0.81684 0.0
C438 C 0.6203 0.75573 0.83227 0.0
H439 H 0.59868 0.91609 0.81243 0.0
H440 H 0.60308 0.87509 0.82169 0.0
C441 C 0.62506 0.73281 0.83596 0.0
C442 C 0.60375 0.78008 0.81261 0.0
H443 H 0.65225 0.86051 0.8093 0.0
C444 C 0.56912 0.77065 0.80748 0.0
C445 C 0.63416 0.8129 0.81325 0.0
C446 C 0.67245 0.82444 0.81789 0.0
C447 C 0.56405 0.79314 0.80304 0.0
C448 C 0.59446 0.82587 0.80363 0.0
C449 C 0.62897 0.83539 0.80895 0.0
C450 C 0.59135 0.85045 0.79811 0.0
C451 C 0.52615 0.78178 0.79786 0.0
C452 C 0.58382 0.8504 0.78175 0.0
C453 C 0.58173 0.87395 0.77638 0.0
C454 C 0.58705 0.89808 0.78727 0.0
C455 C 0.59476 0.8981 0.80368 0.0
C456 C 0.59707 0.87459 0.80902 0.0
H457 H 0.50439 0.75731 0.80166 0.0
H458 H 0.52031 0.79825 0.80299 0.0
H459 H 0.5247 0.78133 0.78447 0.0
H460 H 0.58007 0.83236 0.77308 0.0
H461 H 0.57661 0.87354 0.7636 0.0
H462 H 0.8714 0.43098 0.18312 0.0
H463 H 0.805 0.38793 0.18269 0.0
H464 H 0.78445 0.4579 0.18863 0.0
H465 H 0.85066 0.50089 0.18936 0.0
H466 H 0.7339 0.40135 0.20495 0.0
H467 H 0.75128 0.37537 0.14055 0.0
H468 H 0.77579 0.37201 0.15598 0.0
H469 H 0.78814 0.41054 0.15207 0.0
C470 C 0.85262 0.43705 0.18464 0.0
C471 C 0.86597 0.4692 0.186 0.0
C472 C 0.8148 0.41249 0.1844 0.0
C473 C 0.7899 0.4198 0.18528 0.0
C474 C 0.80328 0.45179 0.18791 0.0
H475 H 0.61459 0.40231 0.15753 0.0
H476 H 0.66215 0.40578 0.17232 0.0
C477 C 0.84107 0.47634 0.18832 0.0
C478 C 0.75034 0.39519 0.18138 0.0
H479 H 0.69233 0.35582 0.14857 0.0
C480 C 0.72459 0.39057 0.19275 0.0
C481 C 0.73819 0.38071 0.16552 0.0
C482 C 0.76465 0.38488 0.15275 0.0
C483 C 0.68757 0.37448 0.18824 0.0
C484 C 0.67639 0.36328 0.17192 0.0
C485 C 0.70113 0.3646 0.16105 0.0
C486 C 0.64321 0.35783 0.16503 0.0
C487 C 0.66133 0.3716 0.20069 0.0
C488 C 0.61684 0.32975 0.15573 0.0
C489 C 0.58893 0.32749 0.14724 0.0
C490 C 0.58743 0.35348 0.14777 0.0
C491 C 0.61389 0.38135 0.15723 0.0
C492 C 0.64126 0.38341 0.16577 0.0
H493 H 0.66877 0.36917 0.21291 0.0
H494 H 0.66311 0.39363 0.20124 0.0
H495 H 0.63246 0.3508 0.19762 0.0
H496 H 0.61839 0.30997 0.15477 0.0
H497 H 0.56895 0.30566 0.14011 0.0
H498 H 0.43494 0.93769 0.46862 0.0
H499 H 0.38004 0.88205 0.46633 0.0
H500 H 0.4422 0.8522 0.48461 0.0
H501 H 0.49704 0.90785 0.48734 0.0
H502 H 0.36796 0.83232 0.44822 0.0
H503 H 0.35343 0.8058 0.51297 0.0
H504 H 0.3839 0.84594 0.50635 0.0
H505 H 0.3977 0.82028 0.50524 0.0
C506 C 0.43695 0.91933 0.47224 0.0
C507 C 0.47041 0.92729 0.47822 0.0
C508 C 0.40549 0.88751 0.47093 0.0
C509 C 0.40675 0.86294 0.47557 0.0
C510 C 0.44023 0.87077 0.48137 0.0
H511 H 0.25432 0.6561 0.46437 0.0
H512 H 0.30733 0.71193 0.4704 0.0
C513 C 0.47167 0.90263 0.4828 0.0
C514 C 0.37339 0.82909 0.47367 0.0
H515 H 0.31566 0.76131 0.49405 0.0
C516 C 0.3564 0.8169 0.45828 0.0
C517 C 0.35828 0.8089 0.4868 0.0
C518 C 0.37403 0.82094 0.5038 0.0
C519 C 0.32517 0.78504 0.45559 0.0
C520 C 0.31031 0.76485 0.46866 0.0
C521 C 0.32719 0.77691 0.48406 0.0
C522 C 0.27748 0.731 0.46642 0.0
C523 C 0.30864 0.77296 0.43871 0.0
C524 C 0.24295 0.72324 0.46263 0.0
C525 C 0.21263 0.69141 0.45921 0.0
C526 C 0.21633 0.66675 0.45948 0.0
C527 C 0.25069 0.67457 0.46389 0.0
C528 C 0.28094 0.7064 0.4674 0.0
H529 H 0.32729 0.78964 0.42946 0.0
H530 H 0.30215 0.74921 0.43562 0.0
H531 H 0.28254 0.77018 0.43811 0.0
H532 H 0.23968 0.7419 0.46195 0.0
H533 H 0.18667 0.68624 0.45572 0.0
H534 H 0.49465 0.29672 0.83832 0.0
H535 H 0.50198 0.25526 0.83084 0.0
H536 H 0.61998 0.32599 0.83259 0.0
H537 H 0.61295 0.36751 0.84064 0.0
H538 H 0.53556 0.25147 0.80372 0.0
H539 H 0.60528 0.25676 0.85954 0.0
H540 H 0.58217 0.27495 0.85877 0.0
H541 H 0.6274 0.29449 0.85067 0.0
C542 C 0.5222 0.30342 0.83742 0.0
C543 C 0.55322 0.33547 0.84018 0.0
C544 C 0.52633 0.2797 0.83303 0.0
C545 C 0.56151 0.28743 0.83138 0.0
C546 C 0.59256 0.31936 0.8341 0.0
H547 H 0.64126 0.18004 0.79785 0.0
H548 H 0.63501 0.22102 0.80834 0.0
C549 C 0.58848 0.34314 0.83851 0.0
C550 C 0.56553 0.26224 0.82606 0.0
H551 H 0.60203 0.22487 0.83702 0.0
C552 C 0.54991 0.24552 0.81104 0.0
C553 C 0.5844 0.25462 0.8356 0.0
C554 C 0.60051 0.27091 0.85211 0.0
C555 C 0.55308 0.22171 0.8052 0.0
C556 C 0.57185 0.21402 0.81475 0.0
C557 C 0.5876 0.23079 0.82974 0.0
C558 C 0.5756 0.18877 0.80926 0.0
C559 C 0.53699 0.20545 0.78867 0.0
C560 C 0.54433 0.15691 0.80668 0.0
C561 C 0.54778 0.13347 0.80062 0.0
C562 C 0.58262 0.14142 0.79708 0.0
C563 C 0.61399 0.1732 0.80022 0.0
C564 C 0.6105 0.19661 0.8063 0.0
H565 H 0.53162 0.21932 0.78134 0.0
H566 H 0.5557 0.20198 0.78191 0.0
H567 H 0.51045 0.18161 0.7901 0.0
H568 H 0.51717 0.15026 0.80914 0.0
H569 H 0.52303 0.10933 0.79824 0.0
H570 H 0.568 0.86352 0.53105 0.0
H571 H 0.5598 0.81441 0.5366 0.0
H572 H 0.59205 0.80888 0.48799 0.0
H573 H 0.60078 0.8582 0.48243 0.0
H574 H 0.51592 0.75348 0.52263 0.0
H575 H 0.66331 0.80602 0.51481 0.0
H576 H 0.64719 0.83004 0.51616 0.0
H577 H 0.64199 0.80824 0.49749 0.0
C578 C 0.57299 0.85166 0.5215 0.0
C579 C 0.58537 0.86488 0.50635 0.0
C580 C 0.56841 0.82367 0.5247 0.0
C581 C 0.57606 0.80834 0.51282 0.0
C582 C 0.58698 0.82078 0.49748 0.0
H583 H 0.57245 0.64049 0.51643 0.0
H584 H 0.57324 0.68422 0.50707 0.0
C585 C 0.59184 0.8489 0.49431 0.0
C586 C 0.5731 0.77965 0.51663 0.0
H587 H 0.62279 0.75083 0.51914 0.0
C588 C 0.53928 0.7529 0.52186 0.0
C589 C 0.60363 0.77891 0.51562 0.0
C590 C 0.64117 0.80741 0.51086 0.0
C591 C 0.53517 0.72546 0.52609 0.0
C592 C 0.56574 0.72488 0.5252 0.0
C593 C 0.59937 0.75135 0.51972 0.0
C594 C 0.56398 0.69771 0.5307 0.0
C595 C 0.49813 0.69724 0.53145 0.0
C596 C 0.55892 0.6911 0.5471 0.0
C597 C 0.55892 0.66647 0.55253 0.0
C598 C 0.56392 0.64782 0.54165 0.0
C599 C 0.56888 0.65451 0.52517 0.0
C600 C 0.56911 0.67934 0.51977 0.0
H601 H 0.47563 0.69835 0.52776 0.0
H602 H 0.49201 0.67446 0.52634 0.0
H603 H 0.49843 0.69707 0.54485 0.0
H604 H 0.55572 0.70545 0.55578 0.0
H605 H 0.55589 0.66259 0.56535 0.0
H606 H 0.72522 0.57498 0.83834 0.0
H607 H 0.77834 0.57426 0.83953 0.0
H608 H 0.70802 0.47734 0.85407 0.0
H609 H 0.65472 0.47765 0.85261 0.0
H610 H 0.80962 0.56699 0.86436 0.0
H611 H 0.76216 0.4681 0.81828 0.0
H612 H 0.73967 0.4868 0.82096 0.0
H613 H 0.73015 0.45692 0.83429 0.0
C614 C 0.72088 0.55336 0.84167 0.0
C615 C 0.68533 0.52631 0.84527 0.0
C616 C 0.75146 0.55301 0.84238 0.0
C617 C 0.7475 0.52557 0.84662 0.0
C618 C 0.71205 0.49861 0.85034 0.0
H619 H 0.89973 0.4795 0.86337 0.0
H620 H 0.84627 0.47923 0.86033 0.0
C621 C 0.68144 0.49891 0.8496 0.0
C622 C 0.78052 0.52559 0.84767 0.0
H623 H 0.815 0.48569 0.83417 0.0
C624 C 0.81079 0.5493 0.85765 0.0
C625 C 0.78244 0.50254 0.839 0.0
C626 C 0.75204 0.47734 0.82741 0.0
C627 C 0.8422 0.55022 0.85945 0.0
C628 C 0.84408 0.52713 0.85082 0.0
C629 C 0.81383 0.50343 0.84083 0.0
C630 C 0.87699 0.52707 0.85207 0.0
C631 C 0.87269 0.57548 0.87099 0.0
C632 C 0.91239 0.55372 0.84809 0.0
C633 C 0.94319 0.55389 0.84972 0.0
C634 C 0.93962 0.52732 0.85529 0.0
C635 C 0.90391 0.50033 0.85886 0.0
C636 C 0.87313 0.5002 0.85722 0.0
H637 H 0.86296 0.58543 0.87987 0.0
H638 H 0.88441 0.56575 0.87773 0.0
H639 H 0.89503 0.59541 0.86402 0.0
H640 H 0.91629 0.5745 0.84367 0.0
H641 H 0.96987 0.57492 0.84652 0.0
H642 H 0.15026 0.66162 0.15928 0.0
H643 H 0.20615 0.71687 0.16187 0.0
H644 H 0.2721 0.6834 0.16333 0.0
H645 H 0.21661 0.62823 0.16036 0.0
H646 H 0.25709 0.74772 0.18581 0.0
H647 H 0.32414 0.748 0.12935 0.0
H648 H 0.2766 0.71637 0.13332 0.0
H649 H 0.31283 0.71669 0.14191 0.0
C650 C 0.17666 0.66599 0.16008 0.0
C651 C 0.17889 0.64043 0.15953 0.0
C652 C 0.20861 0.69762 0.16154 0.0
C653 C 0.24343 0.70436 0.16247 0.0
C654 C 0.24568 0.67888 0.16217 0.0
H655 H 0.44347 0.87492 0.20367 0.0
H656 H 0.38621 0.82209 0.19737 0.0
C657 C 0.21381 0.64728 0.16061 0.0
C658 C 0.27727 0.73796 0.16446 0.0
H659 H 0.36234 0.79151 0.14893 0.0
C660 C 0.27995 0.75736 0.17765 0.0
C661 C 0.30693 0.75079 0.15368 0.0
C662 C 0.3049 0.73199 0.13868 0.0
C663 C 0.31186 0.7888 0.18066 0.0
C664 C 0.34231 0.80099 0.17042 0.0
C665 C 0.33919 0.78202 0.1569 0.0
C666 C 0.37794 0.83299 0.17384 0.0
C667 C 0.31252 0.8087 0.19477 0.0
C668 C 0.39321 0.85645 0.16245 0.0
C669 C 0.42655 0.88672 0.1659 0.0
C670 C 0.44538 0.89402 0.18077 0.0
C671 C 0.43016 0.87016 0.192 0.0
C672 C 0.39703 0.83999 0.18853 0.0
H673 H 0.28426 0.79991 0.19813 0.0
H674 H 0.32566 0.80716 0.20544 0.0
H675 H 0.32849 0.83418 0.19198 0.0
H676 H 0.37912 0.85145 0.15097 0.0
H677 H 0.43763 0.90433 0.15689 0.0
H678 H 0.55894 0.18624 0.51353 0.0
H679 H 0.56778 0.23596 0.52138 0.0
H680 H 0.53544 0.23848 0.47321 0.0
H681 H 0.52501 0.18798 0.46541 0.0
H682 H 0.61433 0.29536 0.509 0.0
H683 H 0.46844 0.24852 0.50132 0.0
H684 H 0.48199 0.22265 0.50164 0.0
H685 H 0.48791 0.24286 0.48371 0.0
C686 C 0.5532 0.19709 0.50464 0.0
C687 C 0.54088 0.18287 0.48887 0.0
C688 C 0.55857 0.22568 0.50912 0.0
C689 C 0.55172 0.24068 0.49796 0.0
C690 C 0.5402 0.22699 0.48211 0.0
H691 H 0.56614 0.41453 0.51068 0.0
H692 H 0.56027 0.36775 0.49892 0.0
C693 C 0.53469 0.1983 0.47762 0.0
C694 C 0.55701 0.27078 0.50299 0.0
H695 H 0.5117 0.30377 0.5082 0.0
C696 C 0.59191 0.29722 0.5088 0.0
C697 C 0.52774 0.2732 0.50267 0.0
C698 C 0.48932 0.24526 0.49714 0.0
C699 C 0.5983 0.32594 0.51436 0.0
C700 C 0.56889 0.32814 0.51432 0.0
C701 C 0.5342 0.30199 0.50819 0.0
C702 C 0.57313 0.35683 0.52131 0.0
C703 C 0.63654 0.35374 0.52017 0.0
C704 C 0.58182 0.36592 0.53783 0.0
C705 C 0.58494 0.39243 0.5446 0.0
C706 C 0.57932 0.41042 0.53501 0.0
C707 C 0.57039 0.40111 0.51845 0.0
C708 C 0.56719 0.37449 0.51169 0.0
H709 H 0.65769 0.35135 0.51532 0.0
H710 H 0.6433 0.37671 0.51658 0.0
H711 H 0.63805 0.35462 0.53358 0.0
H712 H 0.58562 0.35217 0.54556 0.0
H713 H 0.59099 0.3984 0.55746 0.0
H714 H 0.45373 0.47672 0.85544 0.0
H715 H 0.40085 0.47785 0.85663 0.0
H716 H 0.47038 0.5762 0.84424 0.0
H717 H 0.52313 0.57495 0.84257 0.0
H718 H 0.38549 0.51064 0.87528 0.0
H719 H 0.38828 0.54231 0.81241 0.0
H720 H 0.41597 0.53084 0.81912 0.0
H721 H 0.43082 0.57105 0.82326 0.0
C722 C 0.45784 0.49859 0.85286 0.0
C723 C 0.49295 0.52567 0.8488 0.0
C724 C 0.42741 0.49922 0.85357 0.0
C725 C 0.431 0.52691 0.85022 0.0
C726 C 0.4662 0.55415 0.84641 0.0
H727 H 0.28278 0.58119 0.85583 0.0
H728 H 0.33514 0.57945 0.85306 0.0
C729 C 0.49661 0.55348 0.84559 0.0
C730 C 0.39823 0.52741 0.8512 0.0
H731 H 0.34854 0.54484 0.83034 0.0
C732 C 0.37737 0.51792 0.86537 0.0
C733 C 0.38717 0.53688 0.83835 0.0
C734 C 0.40649 0.54553 0.82237 0.0
C735 C 0.34668 0.5182 0.86714 0.0
C736 C 0.33586 0.52791 0.85436 0.0
C737 C 0.35666 0.53744 0.8402 0.0
C738 C 0.30332 0.52857 0.85553 0.0
C739 C 0.32654 0.5088 0.88291 0.0
C740 C 0.26747 0.5005 0.8575 0.0
C741 C 0.23729 0.5014 0.85904 0.0
C742 C 0.24202 0.53044 0.85871 0.0
C743 C 0.27788 0.55841 0.85637 0.0
C744 C 0.30798 0.55744 0.8547 0.0
H745 H 0.3432 0.50942 0.89279 0.0
H746 H 0.31915 0.52484 0.88668 0.0
H747 H 0.30071 0.48408 0.88131 0.0
H748 H 0.26279 0.47778 0.85791 0.0
H749 H 0.21034 0.47936 0.86094 0.0
H750 H 0.95407 0.45406 0.16456 0.0
H751 H 0.90105 0.39824 0.16619 0.0
H752 H 0.95834 0.36872 0.139 0.0
H753 H 1.01184 0.42495 0.13714 0.0
H754 H 0.85932 0.34699 0.13857 0.0
H755 H 0.92789 0.32407 0.1843 0.0
H756 H 0.94287 0.36391 0.18108 0.0
H757 H 0.95261 0.34364 0.16639 0.0
C758 C 0.95544 0.43581 0.15879 0.0
C759 C 0.98733 0.44402 0.15077 0.0
C760 C 0.92501 0.40388 0.15972 0.0
C761 C 0.9259 0.37939 0.15282 0.0
C762 C 0.95726 0.38735 0.14447 0.0
H763 H 0.76895 0.1763 0.17062 0.0
H764 H 0.82133 0.22699 0.1608 0.0
C765 C 0.98772 0.41945 0.14338 0.0
C766 C 0.89432 0.34563 0.155 0.0
H767 H 0.86618 0.28242 0.17745 0.0
C768 C 0.86082 0.33268 0.14693 0.0
C769 C 0.89646 0.32709 0.16589 0.0
C770 C 0.93175 0.34022 0.17502 0.0
C771 C 0.82921 0.30168 0.14959 0.0
C772 C 0.8309 0.28351 0.161 0.0
C773 C 0.86477 0.29627 0.16873 0.0
C774 C 0.79768 0.25194 0.1657 0.0
C775 C 0.79445 0.2887 0.14004 0.0
C776 C 0.76676 0.24889 0.17171 0.0
C777 C 0.73646 0.21976 0.17708 0.0
C778 C 0.73655 0.19303 0.17687 0.0
C779 C 0.7675 0.1961 0.17074 0.0
C780 C 0.7977 0.22521 0.16523 0.0
H781 H 0.80073 0.30013 0.12832 0.0
H782 H 0.77785 0.26245 0.13755 0.0
H783 H 0.7776 0.29403 0.14705 0.0
H784 H 0.76633 0.26927 0.1726 0.0
H785 H 0.71305 0.21832 0.18154 0.0
H786 H 0.99535 0.51313 0.10577 0.0
H787 H 0.99552 0.50718 0.0761 0.0
H788 H 0.10943 0.5441 0.07835 0.0
H789 H 0.10955 0.5504 0.10788 0.0
H790 H 1.04721 0.55997 0.0551 0.0
H791 H 0.05559 0.45877 0.04902 0.0
H792 H 1.03906 0.46714 0.06702 0.0
H793 H 0.0875 0.49104 0.0633 0.0
C794 C 1.02032 0.51976 0.09992 0.0
C795 C 0.05243 0.53218 0.10911 0.0
C796 C 1.02038 0.51636 0.083 0.0
C797 C 0.05238 0.5249 0.07507 0.0
C798 C 0.08432 0.53695 0.08426 0.0
H799 H 0.12102 0.53063 0.97644 0.0
H800 H 0.11491 0.53136 0.00583 0.0
C801 C 0.08436 0.54061 0.10112 0.0
C802 C 0.05311 0.52271 0.05715 0.0
H803 H 0.06413 0.48526 0.02521 0.0
C804 C 0.05058 0.54347 0.04851 0.0
C805 C 0.05785 0.50135 0.04868 0.0
C806 C 0.0599 0.47809 0.05741 0.0
C807 C 0.05366 0.54407 0.03159 0.0
C808 C 0.05837 0.52265 0.02306 0.0
C809 C 0.06051 0.50165 0.03174 0.0
C810 C 0.06175 0.52203 0.00516 0.0
C811 C 0.05314 0.56842 0.02311 0.0
C812 C 1.03371 0.51613 0.99497 0.0
C813 C 1.03738 0.51619 0.97816 0.0
C814 C 0.06897 0.52171 0.97113 0.0
C815 C 0.09664 0.5269 0.98139 0.0
C816 C 0.09305 0.52705 -0.00179 0.0
H817 H 0.05991 0.58854 0.0316 0.0
H818 H 0.07298 0.57826 0.01309 0.0
H819 H 1.02517 0.55683 0.01794 0.0
H820 H 1.00893 0.51148 2e-05 0.0
H821 H 1.01562 0.51238 0.97069 0.0
H822 H 0.52777 0.00822 0.43811 0.0
H823 H 0.52378 0.01136 0.40878 0.0
H824 H 0.63949 0.05499 0.40505 0.0
H825 H 0.64364 0.05186 0.43417 0.0
H826 H 0.5659 0.06655 0.38876 0.0
H827 H 0.58677 0.97456 0.37294 0.0
H828 H 0.57359 0.97967 0.39287 0.0
H829 H 0.62067 0.00634 0.38688 0.0
C830 C 0.55232 0.01857 0.431 0.0
C831 C 0.58593 0.02948 0.43834 0.0
C832 C 0.55003 0.02039 0.4143 0.0
C833 C 0.58123 0.03296 0.40476 0.0
C834 C 0.61498 0.04474 0.41218 0.0
H835 H 0.63153 0.09537 0.3072 0.0
H836 H 0.62566 0.09165 0.33659 0.0
C837 C 0.61732 0.04301 0.42881 0.0
C838 C 0.57871 0.03326 0.38697 0.0
H839 H 0.59081 0.00453 0.35147 0.0
C840 C 0.57106 0.05284 0.38057 0.0
C841 C 0.585 0.01503 0.37635 0.0
C842 C 0.59165 0.99246 0.38256 0.0
C843 C 0.5707 0.05543 0.36377 0.0
C844 C 0.5786 0.03824 0.35319 0.0
C845 C 0.5851 0.01792 0.35961 0.0
C846 C 0.58062 0.04107 0.33542 0.0
C847 C 0.56168 0.07636 0.35749 0.0
C848 C 0.5576 0.01381 0.32501 0.0
C849 C 0.56097 0.01584 0.30824 0.0
C850 C 0.58763 0.04517 0.30152 0.0
C851 C 0.61041 0.07253 0.31198 0.0
C852 C 0.60703 0.07046 0.32878 0.0
H853 H 0.54676 0.08081 0.36656 0.0
H854 H 0.58764 0.09977 0.35477 0.0
H855 H 0.54466 0.0654 0.34618 0.0
H856 H 0.5371 0.99088 0.32989 0.0
H857 H 0.54261 0.99441 0.30053 0.0
H858 H 0.63812 0.55269 0.8024 0.0
H859 H 0.64758 0.56597 0.77386 0.0
H860 H 0.53033 0.50071 0.76474 0.0
H861 H 0.52074 0.48749 0.7931 0.0
H862 H 0.62474 0.52123 0.74664 0.0
H863 H 0.561 0.58335 0.74474 0.0
H864 H 0.57568 0.57764 0.76343 0.0
H865 H 0.53262 0.54555 0.75379 0.0
C866 C 0.61441 0.54149 0.79431 0.0
C867 C 0.5787 0.51908 0.79991 0.0
C868 C 0.61984 0.54905 0.77805 0.0
C869 C 0.58961 0.53462 0.76727 0.0
C870 C 0.55396 0.51255 0.77293 0.0
H871 H 0.53529 0.51238 0.66683 0.0
H872 H 0.53831 0.5134 0.69634 0.0
C873 C 0.54855 0.50487 0.7891 0.0
C874 C 0.59505 0.54093 0.74985 0.0
H875 H 0.56972 0.56515 0.71922 0.0
C876 C 0.61326 0.5313 0.74064 0.0
C877 C 0.57995 0.55401 0.74212 0.0
C878 C 0.56151 0.56603 0.75154 0.0
C879 C 0.61519 0.53293 0.72374 0.0
C880 C 0.59904 0.54508 0.71593 0.0
C881 C 0.58193 0.55572 0.72523 0.0
C882 C 0.59781 0.54534 0.69805 0.0
C883 C 0.63295 0.52025 0.71432 0.0
C884 C 0.63027 0.56329 0.68924 0.0
C885 C 0.62863 0.56277 0.67234 0.0
C886 C 0.59446 0.54451 0.66398 0.0
C887 C 0.56202 0.52696 0.6729 0.0
C888 C 0.5637 0.52742 0.68976 0.0
H889 H 0.63671 0.50542 0.72171 0.0
H890 H 0.6162 0.50567 0.70333 0.0
H891 H 0.66047 0.54061 0.71038 0.0
H892 H 0.65687 0.5778 0.69543 0.0
H893 H 0.65409 0.57694 0.66584 0.0
H894 H 0.49772 0.00499 0.53524 0.0
H895 H 0.5054 1.00371 0.56428 0.0
H896 H 0.61827 0.04009 0.55721 0.0
H897 H 0.61111 0.04263 0.52821 0.0
H898 H 0.5222 0.97185 0.58097 0.0
H899 H 0.63023 0.10217 0.59237 0.0
H900 H 0.60442 0.08505 0.57351 0.0
H901 H 0.64244 0.08412 0.57742 0.0
C902 C 0.5242 0.0128 0.5399 0.0
C903 C 0.55388 0.02405 0.52951 0.0
C904 C 0.52854 0.01199 0.55648 0.0
C905 C 0.56259 0.02231 0.56298 0.0
C906 C 0.59201 0.03275 0.55254 0.0
H907 H 0.58674 0.98326 0.66135 0.0
H908 H 0.58301 0.98331 0.63186 0.0
C909 C 0.5878 0.03389 0.53595 0.0
C910 C 0.567 0.02204 0.58069 0.0
H911 H 0.61654 0.06975 0.61425 0.0
C912 C 0.54283 0.99325 0.58825 0.0
C913 C 0.5936 0.05008 0.59022 0.0
C914 C 0.61892 0.08217 0.58302 0.0
C915 C 0.54444 0.99171 0.60507 0.0
C916 C 0.57168 0.01957 0.61453 0.0
C917 C 0.59589 0.04834 0.60696 0.0
C918 C 0.5747 0.01975 0.63238 0.0
C919 C 0.51617 0.96048 0.61255 0.0
C920 C 0.57251 0.04093 0.64247 0.0
C921 C 0.57518 0.04127 0.65929 0.0
C922 C 0.57995 0.02032 0.66635 0.0
C923 C 0.5825 0.99932 0.65624 0.0
C924 C 0.58023 0.99925 0.6394 0.0
H925 H 0.49152 0.94442 0.60449 0.0
H926 H 0.52842 0.94803 0.61464 0.0
H927 H 0.50717 0.96447 0.62436 0.0
H928 H 0.56832 0.05701 0.63733 0.0
H929 H 0.57285 0.05754 0.66678 0.0
H930 H 0.54074 0.49321 0.88751 0.0
H931 H 0.53157 0.47051 0.91376 0.0
H932 H 0.64874 0.53423 0.92337 0.0
H933 H 0.65801 0.55742 0.8972 0.0
H934 H 0.55867 0.44033 0.92649 0.0
H935 H 0.60718 0.55203 0.96278 0.0
H936 H 0.59677 0.54674 0.94136 0.0
H937 H 0.63948 0.55599 0.9484 0.0
C938 C 0.56452 0.5024 0.89524 0.0
C939 C 0.60005 0.52725 0.89044 0.0
C940 C 0.55927 0.48934 0.91019 0.0
C941 C 0.58943 0.50096 0.92058 0.0
C942 C 0.62504 0.52534 0.91565 0.0
H943 H 0.573 0.41057 0.01007 0.0
H944 H 0.58829 0.42934 0.9825 0.0
C945 C 0.6303 0.53851 0.90071 0.0
C946 C 0.5833 0.48794 0.93672 0.0
H947 H 0.5916 0.50825 0.97719 0.0
C948 C 0.56598 0.45515 0.9376 0.0
C949 C 0.59263 0.50734 0.95115 0.0
C950 C 0.60975 0.54242 0.95096 0.0
C951 C 0.55733 0.44114 0.95258 0.0
C952 C 0.56677 0.46059 0.967 0.0
C953 C 0.58459 0.49344 0.9661 0.0
C954 C 0.55619 0.44724 0.98317 0.0
C955 C 0.53704 0.40554 0.95283 0.0
C956 C 0.53323 0.45115 0.99265 0.0
C957 C 0.52478 0.44075 0.00832 0.0
C958 C 0.53916 0.42623 0.01488 0.0
C959 C 0.56137 0.42149 0.00525 0.0
C960 C 0.57004 0.43214 0.98952 0.0
H961 H 0.52501 0.39319 0.94075 0.0
H962 H 0.55648 0.40074 0.9565 0.0
H963 H 0.51462 0.39514 0.96174 0.0
H964 H 0.52212 0.46261 0.98796 0.0
H965 H 0.50716 0.44429 0.01538 0.0
H966 H 0.0978 0.57086 0.2011 0.0
H967 H 0.09183 0.56876 0.2306 0.0
H968 H 0.0663 0.47519 0.22753 0.0
H969 H 0.07195 0.47704 0.19805 0.0
H970 H 1.01926 0.48177 0.24815 0.0
H971 H 0.16837 0.57632 0.26143 0.0
H972 H 0.14665 0.5867 0.24823 0.0
H973 H 0.15093 0.55595 0.24168 0.0
C974 C 0.09071 0.54979 0.20673 0.0
C975 C 0.08548 0.52416 0.19735 0.0
C976 C 0.08751 0.5487 0.22356 0.0
C977 C 0.07907 0.52198 0.23122 0.0
C978 C 0.07297 0.49606 0.22182 0.0
H979 H 0.10513 0.50138 0.33173 0.0
H980 H 0.10685 0.50313 0.30224 0.0
C981 C 0.0763 0.49719 0.20502 0.0
C982 C 0.07704 0.52111 0.24907 0.0
H983 H 0.12918 0.55612 0.28385 0.0
C984 C 1.04322 0.49804 0.25598 0.0
C985 C 0.10851 0.54215 0.25919 0.0
C986 C 0.14579 0.56655 0.25232 0.0
C987 C 1.03996 0.49561 0.27282 0.0
C988 C 0.07131 0.517 0.28296 0.0
C989 C 0.10518 0.5399 0.27603 0.0
C990 C 0.06973 0.51565 0.3008 0.0
C991 C 1.00323 0.46981 0.27964 0.0
C992 C 0.04853 0.52239 0.30974 0.0
C993 C 1.04769 0.52165 0.32661 0.0
C994 C 0.06815 0.51424 0.33485 0.0
C995 C 0.08941 0.50755 0.32581 0.0
C996 C 0.09029 0.50837 0.30895 0.0
H997 H 0.98421 0.4511 0.27018 0.0
H998 H 1.00673 0.45833 0.28948 0.0
H999 H 0.99019 0.48061 0.28483 0.0
H1000 H 1.03302 0.52865 0.30368 0.0
H1001 H 1.03155 0.52749 0.33321 0.0
loop_
_geom_bond_atom_site_label_1
_geom_bond_atom_site_label_2
_geom_bond_distance
_geom_bond_site_symmetry_2
_ccdc_geom_bond_type
Gd0 C3 2.818 . S
Gd0 O20 2.377 . S
Gd0 O22 2.448 . S
Gd0 O23 2.506 . S
Gd0 O24 2.435 . S
Gd0 O25 2.717 . S
Gd0 O27 2.395 1_455 S
Gd0 O31 2.327 . S
Gd1 C12 2.818 1_455 S
Gd1 O21 2.395 . S
Gd1 O25 2.327 . S
Gd1 O26 2.377 1_455 S
Gd1 O28 2.448 1_455 S
Gd1 O29 2.506 1_455 S
Gd1 O30 2.435 . S
Gd1 O31 2.717 . S
C2 O20 1.240 . S
C2 O21 1.240 . S
C3 Gd0 2.818 . S
C3 C4 1.510 . S
C3 O22 1.249 . S
C3 O23 1.252 . S
C4 C3 1.510 . S
C4 C5 1.404 . S
C4 C6 1.352 . S
C5 C4 1.404 . S
C5 C9 1.389 . S
C5 H32 0.930 . S
C6 C4 1.352 . S
C6 C8 1.374 . S
C6 H33 0.931 . S
C7 C8 1.359 . S
C7 C9 1.364 . S
C8 C6 1.374 . S
C8 C7 1.359 . S
C8 H34 0.931 . S
C9 C5 1.389 . S
C9 C7 1.364 . S
C9 H35 0.931 . S
C10 O24 1.256 . S
C10 O25 1.257 . S
C11 O26 1.240 . S
C11 O27 1.240 . S
C12 Gd1 2.818 1_655 S
C12 C13 1.510 . S
C12 O28 1.249 . S
C12 O29 1.252 . S
C13 C12 1.510 . S
C13 C14 1.404 . S
C13 C15 1.352 . S
C14 C13 1.404 . S
C14 C18 1.389 . S
C14 H36 0.930 . S
C15 C13 1.352 . S
C15 C17 1.374 . S
C15 H37 0.931 . S
C16 C17 1.359 . S
C16 C18 1.364 . S
C17 C15 1.374 . S
C17 C16 1.359 . S
C17 H38 0.931 . S
C18 C14 1.389 . S
C18 C16 1.364 . S
C18 H39 0.931 . S
C19 O30 1.256 . S
C19 O31 1.257 . S
O20 Gd0 2.377 . S
O20 C2 1.240 . S
O21 Gd1 2.395 . S
O21 C2 1.240 . S
O22 Gd0 2.448 . S
O22 C3 1.249 . S
O23 Gd0 2.506 . S
O23 C3 1.252 . S
O24 Gd0 2.435 . S
O24 C10 1.256 . S
O25 Gd0 2.717 . S
O25 Gd1 2.327 . S
O25 C10 1.257 . S
O26 Gd1 2.377 1_655 S
O26 C11 1.240 . S
O27 Gd0 2.395 1_655 S
O27 C11 1.240 . S
O28 Gd1 2.448 1_655 S
O28 C12 1.249 . S
O29 Gd1 2.506 1_655 S
O29 C12 1.252 . S
O30 Gd1 2.435 . S
O30 C19 1.256 . S
O31 Gd0 2.327 . S
O31 Gd1 2.717 . S
O31 C19 1.257 . S
H32 C5 0.930 . S
H33 C6 0.931 . S
H34 C8 0.931 . S
H35 C9 0.931 . S
H36 C14 0.930 . S
H37 C15 0.931 . S
H38 C17 0.931 . S
H39 C18 0.931 . S
Gd40 C43 2.818 . S
Gd40 O60 2.377 . S
Gd40 O62 2.448 . S
Gd40 O63 2.506 . S
Gd40 O64 2.435 . S
Gd40 O65 2.717 1_565 S
Gd40 O67 2.395 1_565 S
Gd40 O71 2.327 1_565 S
Gd41 C52 2.818 . S
Gd41 O61 2.395 1_545 S
Gd41 O65 2.327 . S
Gd41 O66 2.377 . S
Gd41 O68 2.448 . S
Gd41 O69 2.506 . S
Gd41 O70 2.435 . S
Gd41 O71 2.717 . S
C42 O60 1.240 . S
C42 O61 1.240 . S
C43 Gd40 2.818 . S
C43 C44 1.510 . S
C43 O62 1.249 . S
C43 O63 1.252 . S
C44 C43 1.510 . S
C44 C45 1.404 . S
C44 C46 1.352 . S
C45 C44 1.404 . S
C45 C49 1.389 . S
C45 H72 0.930 . S
C46 C44 1.352 . S
C46 C48 1.374 . S
C46 H73 0.931 . S
C47 C48 1.359 . S
C47 C49 1.364 . S
C48 C46 1.374 . S
C48 C47 1.359 . S
C48 H74 0.931 . S
C49 C45 1.389 . S
C49 C47 1.364 . S
C49 H75 0.931 . S
C50 O64 1.256 1_545 S
C50 O65 1.257 . S
C51 O66 1.240 . S
C51 O67 1.240 . S
C52 Gd41 2.818 . S
C52 C53 1.510 . S
C52 O68 1.249 . S
C52 O69 1.252 . S
C53 C52 1.510 . S
C53 C54 1.404 . S
C53 C55 1.352 . S
C54 C53 1.404 . S
C54 C58 1.389 . S
C54 H76 0.930 . S
C55 C53 1.352 . S
C55 C57 1.374 . S
C55 H77 0.931 . S
C56 C57 1.359 . S
C56 C58 1.364 . S
C57 C55 1.374 . S
C57 C56 1.359 . S
C57 H78 0.931 . S
C58 C54 1.389 . S
C58 C56 1.364 . S
C58 H79 0.931 . S
C59 O70 1.256 . S
C59 O71 1.257 . S
O60 Gd40 2.377 . S
O60 C42 1.240 . S
O61 Gd41 2.395 1_565 S
O61 C42 1.240 . S
O62 Gd40 2.448 . S
O62 C43 1.249 . S
O63 Gd40 2.506 . S
O63 C43 1.252 . S
O64 Gd40 2.435 . S
O64 C50 1.256 1_565 S
O65 Gd40 2.717 1_545 S
O65 Gd41 2.327 . S
O65 C50 1.257 . S
O66 Gd41 2.377 . S
O66 C51 1.240 . S
O67 Gd40 2.395 1_545 S
O67 C51 1.240 . S
O68 Gd41 2.448 . S
O68 C52 1.249 . S
O69 Gd41 2.506 . S
O69 C52 1.252 . S
O70 Gd41 2.435 . S
O70 C59 1.256 . S
O71 Gd40 2.327 1_545 S
O71 Gd41 2.717 . S
O71 C59 1.257 . S
H72 C45 0.930 . S
H73 C46 0.931 . S
H74 C48 0.931 . S
H75 C49 0.931 . S
H76 C54 0.930 . S
H77 C55 0.931 . S
H78 C57 0.931 . S
H79 C58 0.931 . S
Gd80 C83 2.818 . S
Gd80 O100 2.377 . S
Gd80 O102 2.448 . S
Gd80 O103 2.506 . S
Gd80 O104 2.435 . S
Gd80 O105 2.717 . S
Gd80 O107 2.395 . S
Gd80 O111 2.327 . S
Gd81 C92 2.818 . S
Gd81 O101 2.395 . S
Gd81 O105 2.327 . S
Gd81 O106 2.377 . S
Gd81 O108 2.448 . S
Gd81 O109 2.506 . S
Gd81 O110 2.435 . S
Gd81 O111 2.717 . S
C82 O100 1.240 . S
C82 O101 1.240 . S
C83 Gd80 2.818 . S
C83 C84 1.510 . S
C83 O102 1.249 . S
C83 O103 1.252 . S
C84 C83 1.510 . S
C84 C85 1.404 . S
C84 C86 1.352 . S
C85 C84 1.404 . S
C85 C89 1.389 . S
C85 H112 0.930 . S
C86 C84 1.352 . S
C86 C88 1.374 . S
C86 H113 0.931 . S
C87 C88 1.359 . S
C87 C89 1.364 . S
C88 C86 1.374 . S
C88 C87 1.359 . S
C88 H114 0.931 . S
C89 C85 1.389 . S
C89 C87 1.364 . S
C89 H115 0.931 . S
C90 O104 1.256 . S
C90 O105 1.257 . S
C91 O106 1.240 . S
C91 O107 1.240 . S
C92 Gd81 2.818 . S
C92 C93 1.510 . S
C92 O108 1.249 . S
C92 O109 1.252 . S
C93 C92 1.510 . S
C93 C94 1.404 . S
C93 C95 1.352 . S
C94 C93 1.404 . S
C94 C98 1.389 . S
C94 H116 0.930 . S
C95 C93 1.352 . S
C95 C97 1.374 . S
C95 H117 0.931 . S
C96 C97 1.359 . S
C96 C98 1.364 . S
C97 C95 1.374 . S
C97 C96 1.359 . S
C97 H118 0.931 . S
C98 C94 1.389 . S
C98 C96 1.364 . S
C98 H119 0.931 . S
C99 O110 1.256 . S
C99 O111 1.257 . S
O100 Gd80 2.377 . S
O100 C82 1.240 . S
O101 Gd81 2.395 . S
O101 C82 1.240 . S
O102 Gd80 2.448 . S
O102 C83 1.249 . S
O103 Gd80 2.506 . S
O103 C83 1.252 . S
O104 Gd80 2.435 . S
O104 C90 1.256 . S
O105 Gd80 2.717 . S
O105 Gd81 2.327 . S
O105 C90 1.257 . S
O106 Gd81 2.377 . S
O106 C91 1.240 . S
O107 Gd80 2.395 . S
O107 C91 1.240 . S
O108 Gd81 2.448 . S
O108 C92 1.249 . S
O109 Gd81 2.506 . S
O109 C92 1.252 . S
O110 Gd81 2.435 . S
O110 C99 1.256 . S
O111 Gd80 2.327 . S
O111 Gd81 2.717 . S
O111 C99 1.257 . S
H112 C85 0.930 . S
H113 C86 0.931 . S
H114 C88 0.931 . S
H115 C89 0.931 . S
H116 C94 0.930 . S
H117 C95 0.931 . S
H118 C97 0.931 . S
H119 C98 0.931 . S
C120 C121 1.386 . S
C120 C122 1.397 . S
C120 H144 0.931 . S
C121 C120 1.386 . S
C121 C125 1.374 1_545 S
C122 C120 1.397 . S
C122 C123 1.384 . S
C122 H145 0.930 . S
C123 C122 1.384 . S
C123 C124 1.377 1_545 S
C123 C126 1.481 . S
C124 C123 1.377 1_565 S
C124 C125 1.389 . S
C124 H146 0.929 . S
C125 C121 1.374 1_565 S
C125 C124 1.389 . S
C125 H147 0.955 . S
C126 C123 1.481 . S
C126 C127 1.387 . S
C126 C131 1.390 1_545 S
C127 C126 1.387 . S
C127 C128 1.401 . S
C127 H148 0.930 . S
C128 C127 1.401 . S
C128 C129 1.376 . S
C128 C137 1.511 . S
C129 C128 1.376 . S
C129 C130 1.392 1_545 S
C129 H150 0.931 . S
C130 C129 1.392 1_565 S
C130 C131 1.361 . S
C130 C132 1.500 . S
C131 C126 1.390 1_565 S
C131 C130 1.361 . S
C131 H149 0.931 . S
C132 C130 1.500 . S
C132 C133 1.371 . S
C132 C134 1.365 . S
C133 C132 1.371 . S
C133 C143 1.386 . S
C133 H151 0.931 . S
C134 C132 1.365 . S
C134 C135 1.409 . S
C134 H152 0.929 . S
C135 C134 1.409 . S
C135 C136 1.380 . S
C135 H153 0.930 . S
C136 C135 1.380 . S
C136 C143 1.357 . S
C137 C128 1.511 . S
C137 C138 1.341 . S
C137 C139 1.371 . S
C138 C137 1.341 . S
C138 C142 1.394 . S
C138 H154 0.930 . S
C139 C137 1.371 . S
C139 C140 1.392 . S
C139 H155 0.931 . S
C140 C139 1.392 . S
C140 C141 1.331 . S
C140 H158 0.932 . S
C141 C140 1.331 . S
C141 C142 1.336 . S
C142 C138 1.394 . S
C142 C141 1.336 . S
C142 H157 0.929 . S
C143 C133 1.386 . S
C143 C136 1.357 . S
C143 H156 0.928 . S
H144 C120 0.931 . S
H145 C122 0.930 . S
H146 C124 0.929 . S
H147 C125 0.955 . S
H148 C127 0.930 . S
H149 C131 0.931 . S
H150 C129 0.931 . S
H151 C133 0.931 . S
H152 C134 0.929 . S
H153 C135 0.930 . S
H154 C138 0.930 . S
H155 C139 0.931 . S
H156 C143 0.928 . S
H157 C142 0.929 . S
H158 C140 0.932 . S
C159 C160 1.386 . S
C159 C161 1.397 . S
C159 H183 0.931 . S
C160 C159 1.386 . S
C160 C164 1.397 . S
C161 C159 1.397 . S
C161 C162 1.384 . S
C161 H184 0.930 . S
C162 C161 1.384 . S
C162 C163 1.377 . S
C162 C165 1.481 . S
C163 C162 1.377 . S
C163 C164 1.389 . S
C163 H185 0.929 . S
C164 C160 1.397 . S
C164 C163 1.389 . S
C164 H186 0.931 . S
C165 C162 1.481 . S
C165 C166 1.387 . S
C165 C170 1.390 . S
C166 C165 1.387 . S
C166 C167 1.401 . S
C166 H187 0.930 . S
C167 C166 1.401 . S
C167 C168 1.376 . S
C167 C176 1.511 . S
C168 C167 1.376 . S
C168 C169 1.392 . S
C168 H189 0.931 . S
C169 C168 1.392 . S
C169 C170 1.361 . S
C169 C171 1.500 . S
C170 C165 1.390 . S
C170 C169 1.361 . S
C170 H188 0.931 . S
C171 C169 1.500 . S
C171 C172 1.371 . S
C171 C173 1.365 . S
C172 C171 1.371 . S
C172 C182 1.386 . S
C172 H190 0.931 . S
C173 C171 1.365 . S
C173 C174 1.409 . S
C173 H191 0.929 . S
C174 C173 1.409 . S
C174 C175 1.380 . S
C174 H192 0.930 . S
C175 C174 1.380 . S
C175 C182 1.357 . S
C176 C167 1.511 . S
C176 C177 1.341 . S
C176 C178 1.371 . S
C177 C176 1.341 . S
C177 C181 1.394 . S
C177 H193 0.930 . S
C178 C176 1.371 . S
C178 C179 1.392 . S
C178 H194 0.931 . S
C179 C178 1.392 . S
C179 C180 1.331 . S
C179 H197 0.932 . S
C180 C179 1.331 . S
C180 C181 1.336 . S
C181 C177 1.394 . S
C181 C180 1.336 . S
C181 H196 0.929 . S
C182 C172 1.386 . S
C182 C175 1.357 . S
C182 H195 0.928 . S
H183 C159 0.931 . S
H184 C161 0.930 . S
H185 C163 0.929 . S
H186 C164 0.931 . S
H187 C166 0.930 . S
H188 C170 0.931 . S
H189 C168 0.931 . S
H190 C172 0.931 . S
H191 C173 0.929 . S
H192 C174 0.930 . S
H193 C177 0.930 . S
H194 C178 0.931 . S
H195 C182 0.928 . S
H196 C181 0.929 . S
H197 C179 0.932 . S
C198 C199 1.386 . S
C198 C200 1.397 . S
C198 H222 0.931 . S
C199 C198 1.386 . S
C199 C203 1.397 . S
C200 C198 1.397 . S
C200 C201 1.384 . S
C200 H223 0.930 . S
C201 C200 1.384 . S
C201 C202 1.377 . S
C201 C204 1.481 . S
C202 C201 1.377 . S
C202 C203 1.389 . S
C202 H224 0.929 . S
C203 C199 1.397 . S
C203 C202 1.389 . S
C203 H225 0.931 . S
C204 C201 1.481 . S
C204 C205 1.387 . S
C204 C209 1.390 . S
C205 C204 1.387 . S
C205 C206 1.401 . S
C205 H226 0.930 . S
C206 C205 1.401 . S
C206 C207 1.376 . S
C206 C215 1.511 . S
C207 C206 1.376 . S
C207 C208 1.392 . S
C207 H228 0.931 . S
C208 C207 1.392 . S
C208 C209 1.361 . S
C208 C210 1.500 . S
C209 C204 1.390 . S
C209 C208 1.361 . S
C209 H227 0.931 . S
C210 C208 1.500 . S
C210 C211 1.371 . S
C210 C212 1.365 1_455 S
C211 C210 1.371 . S
C211 C221 1.386 1_455 S
C211 H229 0.931 . S
C212 C210 1.365 1_655 S
C212 C213 1.409 . S
C212 H230 0.929 . S
C213 C212 1.409 . S
C213 C214 1.380 . S
C213 H231 0.930 . S
C214 C213 1.380 . S
C214 C221 1.357 . S
C215 C206 1.511 . S
C215 C216 1.341 . S
C215 C217 1.371 . S
C216 C215 1.341 . S
C216 C220 1.394 . S
C216 H232 0.930 . S
C217 C215 1.371 . S
C217 C218 1.392 . S
C217 H233 0.931 . S
C218 C217 1.392 . S
C218 C219 1.331 . S
C218 H236 0.932 . S
C219 C218 1.331 . S
C219 C220 1.336 . S
C220 C216 1.394 . S
C220 C219 1.336 . S
C220 H235 0.929 . S
C221 C211 1.386 1_655 S
C221 C214 1.357 . S
C221 H234 0.928 . S
H222 C198 0.931 . S
H223 C200 0.930 . S
H224 C202 0.929 . S
H225 C203 0.931 . S
H226 C205 0.930 . S
H227 C209 0.931 . S
H228 C207 0.931 . S
H229 C211 0.931 . S
H230 C212 0.929 . S
H231 C213 0.930 . S
H232 C216 0.930 . S
H233 C217 0.931 . S
H234 C221 0.928 . S
H235 C220 0.929 . S
H236 C218 0.932 . S
C237 C238 1.386 . S
C237 C239 1.397 . S
C237 H261 0.931 . S
C238 C237 1.386 . S
C238 C242 1.397 1_655 S
C239 C237 1.397 . S
C239 C240 1.384 . S
C239 H262 0.930 . S
C240 C239 1.384 . S
C240 C241 1.377 1_655 S
C240 C243 1.481 . S
C241 C240 1.377 1_455 S
C241 C242 1.389 . S
C241 H263 0.929 . S
C242 C238 1.397 1_455 S
C242 C241 1.389 . S
C242 H264 0.931 . S
C243 C240 1.481 . S
C243 C244 1.387 . S
C243 C248 1.390 1_655 S
C244 C243 1.387 . S
C244 C245 1.401 . S
C244 H265 0.930 . S
C245 C244 1.401 . S
C245 C246 1.385 . S
C245 C254 1.511 . S
C246 C245 1.385 . S
C246 C247 1.383 1_655 S
C246 H267 0.931 . S
C247 C246 1.383 1_455 S
C247 C248 1.361 . S
C247 C249 1.500 . S
C248 C243 1.390 1_455 S
C248 C247 1.361 . S
C248 H266 0.931 . S
C249 C247 1.500 . S
C249 C250 1.371 . S
C249 C251 1.365 . S
C250 C249 1.371 . S
C250 C260 1.386 . S
C250 H268 0.931 . S
C251 C249 1.365 . S
C251 C252 1.409 . S
C251 H269 0.929 . S
C252 C251 1.409 . S
C252 C253 1.380 . S
C252 H270 0.930 . S
C253 C252 1.380 . S
C253 C260 1.357 . S
C254 C245 1.511 . S
C254 C255 1.341 . S
C254 C256 1.371 . S
C255 C254 1.341 . S
C255 C259 1.394 . S
C255 H271 0.930 . S
C256 C254 1.371 . S
C256 C257 1.392 . S
C256 H272 0.931 . S
C257 C256 1.392 . S
C257 C258 1.331 . S
C257 H275 0.932 . S
C258 C257 1.331 . S
C258 C259 1.336 . S
C259 C255 1.394 . S
C259 C258 1.336 . S
C259 H274 0.929 . S
C260 C250 1.386 . S
C260 C253 1.357 . S
C260 H273 0.928 . S
H261 C237 0.931 . S
H262 C239 0.930 . S
H263 C241 0.929 . S
H264 C242 0.931 . S
H265 C244 0.930 . S
H266 C248 0.931 . S
H267 C246 0.931 . S
H268 C250 0.931 . S
H269 C251 0.929 . S
H270 C252 0.930 . S
H271 C255 0.930 . S
H272 C256 0.931 . S
H273 C260 0.928 . S
H274 C259 0.929 . S
H275 C257 0.932 . S
C276 C277 1.386 . S
C276 C278 1.397 . S
C276 H300 0.931 . S
C277 C276 1.386 . S
C277 C281 1.397 1_565 S
C278 C276 1.397 . S
C278 C279 1.373 1_565 S
C278 H301 0.930 . S
C279 C278 1.373 1_545 S
C279 C280 1.389 . S
C279 C282 1.480 . S
C280 C279 1.389 . S
C280 C281 1.389 . S
C280 H302 0.929 . S
C281 C277 1.397 1_545 S
C281 C280 1.389 . S
C281 H303 0.931 . S
C282 C279 1.480 . S
C282 C283 1.387 1_545 S
C282 C287 1.390 . S
C283 C282 1.387 1_565 S
C283 C284 1.401 . S
C283 H304 0.930 . S
C284 C283 1.401 . S
C284 C285 1.376 1_565 S
C284 C293 1.511 . S
C285 C284 1.376 1_545 S
C285 C286 1.392 . S
C285 H306 0.931 . S
C286 C285 1.392 . S
C286 C287 1.361 . S
C286 C288 1.500 . S
C287 C282 1.390 . S
C287 C286 1.361 . S
C287 H305 0.931 . S
C288 C286 1.500 . S
C288 C289 1.371 . S
C288 C290 1.365 . S
C289 C288 1.371 . S
C289 C299 1.386 . S
C289 H307 0.931 . S
C290 C288 1.365 . S
C290 C291 1.409 . S
C290 H308 0.929 . S
C291 C290 1.409 . S
C291 C292 1.380 . S
C291 H309 0.930 . S
C292 C291 1.380 . S
C292 C299 1.357 . S
C293 C284 1.511 . S
C293 C294 1.341 . S
C293 C295 1.371 . S
C294 C293 1.341 . S
C294 C298 1.394 . S
C294 H310 0.930 . S
C295 C293 1.371 . S
C295 C296 1.392 . S
C295 H311 0.931 . S
C296 C295 1.392 . S
C296 C297 1.331 . S
C296 H314 0.932 . S
C297 C296 1.331 . S
C297 C298 1.336 . S
C298 C294 1.394 . S
C298 C297 1.336 . S
C298 H313 0.929 . S
C299 C289 1.386 . S
C299 C292 1.357 . S
C299 H312 0.928 . S
H300 C276 0.931 . S
H301 C278 0.930 . S
H302 C280 0.929 . S
H303 C281 0.931 . S
H304 C283 0.930 . S
H305 C287 0.931 . S
H306 C285 0.931 . S
H307 C289 0.931 . S
H308 C290 0.929 . S
H309 C291 0.930 . S
H310 C294 0.930 . S
H311 C295 0.931 . S
H312 C299 0.928 . S
H313 C298 0.929 . S
H314 C296 0.932 . S
C315 C316 1.386 . S
C315 C317 1.397 . S
C315 H339 0.931 . S
C316 C315 1.386 . S
C316 C320 1.397 . S
C317 C315 1.397 . S
C317 C318 1.384 . S
C317 H340 0.930 . S
C318 C317 1.384 . S
C318 C319 1.377 . S
C318 C321 1.481 . S
C319 C318 1.377 . S
C319 C320 1.389 . S
C319 H341 0.929 . S
C320 C316 1.397 . S
C320 C319 1.389 . S
C320 H342 0.931 . S
C321 C318 1.481 . S
C321 C322 1.387 . S
C321 C326 1.390 . S
C322 C321 1.387 . S
C322 C323 1.401 . S
C322 H343 0.930 . S
C323 C322 1.401 . S
C323 C324 1.376 . S
C323 C332 1.511 . S
C324 C323 1.376 . S
C324 C325 1.392 . S
C324 H345 0.931 . S
C325 C324 1.392 . S
C325 C326 1.361 . S
C325 C327 1.500 . S
C326 C321 1.390 . S
C326 C325 1.361 . S
C326 H344 0.931 . S
C327 C325 1.500 . S
C327 C328 1.371 . S
C327 C329 1.365 . S
C328 C327 1.371 . S
C328 C338 1.386 . S
C328 H346 0.931 . S
C329 C327 1.365 . S
C329 C330 1.409 . S
C329 H347 0.929 . S
C330 C329 1.409 . S
C330 C331 1.380 . S
C330 H348 0.930 . S
C331 C330 1.380 . S
C331 C338 1.357 . S
C332 C323 1.511 . S
C332 C333 1.341 . S
C332 C334 1.371 . S
C333 C332 1.341 . S
C333 C337 1.394 . S
C333 H349 0.930 . S
C334 C332 1.371 . S
C334 C335 1.392 . S
C334 H350 0.931 . S
C335 C334 1.392 . S
C335 C336 1.331 . S
C335 H353 0.932 . S
C336 C335 1.331 . S
C336 C337 1.336 . S
C337 C333 1.394 . S
C337 C336 1.336 . S
C337 H352 0.929 . S
C338 C328 1.386 . S
C338 C331 1.357 . S
C338 H351 0.928 . S
H339 C315 0.931 . S
H340 C317 0.930 . S
H341 C319 0.929 . S
H342 C320 0.931 . S
H343 C322 0.930 . S
H344 C326 0.931 . S
H345 C324 0.931 . S
H346 C328 0.931 . S
H347 C329 0.929 . S
H348 C330 0.930 . S
H349 C333 0.930 . S
H350 C334 0.931 . S
H351 C338 0.928 . S
H352 C337 0.929 . S
H353 C335 0.932 . S
H354 C362 0.929 . S
H355 C364 0.930 . S
H356 C366 0.930 . S
H357 C369 0.929 . S
H358 C372 0.930 . S
H359 C374 0.960 . S
H360 C374 0.960 . S
H361 C374 0.960 . S
C362 H354 0.929 . S
C362 C363 1.377 . S
C362 C364 1.384 . S
C363 C362 1.377 . S
C363 C369 1.390 . S
C364 H355 0.930 . S
C364 C362 1.384 . S
C364 C365 1.372 . S
C365 C364 1.372 . S
C365 C366 1.400 . S
C365 C370 1.490 . S
C366 H356 0.930 . S
C366 C365 1.400 . S
C366 C369 1.386 . S
H367 C383 0.930 . S
H368 C384 0.931 . S
C369 H357 0.929 . S
C369 C363 1.390 . S
C369 C366 1.386 . S
C370 C365 1.490 . S
C370 C372 1.395 . S
C370 C373 1.403 . S
H371 C377 0.930 . S
C372 H358 0.930 . S
C372 C370 1.395 . S
C372 C375 1.403 . S
C373 C370 1.403 . S
C373 C374 1.524 . S
C373 C377 1.400 . S
C374 H359 0.960 . S
C374 H360 0.960 . S
C374 H361 0.960 . S
C374 C373 1.524 . S
C375 C372 1.403 . S
C375 C376 1.392 . S
C375 C379 1.495 . S
C376 C375 1.392 . S
C376 C377 1.385 . S
C376 C378 1.478 . S
C377 H371 0.930 . S
C377 C373 1.400 . S
C377 C376 1.385 . S
C378 C376 1.478 . S
C378 C380 1.381 . S
C378 C384 1.383 . S
C379 C375 1.495 . S
C379 H385 0.959 . S
C379 H386 0.961 . S
C379 H387 0.960 . S
C380 C378 1.381 . S
C380 C381 1.394 . S
C380 H388 0.930 . S
C381 C380 1.394 . S
C381 C382 1.383 . S
C381 H389 0.929 . S
C382 C381 1.383 . S
C382 C383 1.377 . S
C383 H367 0.930 . S
C383 C382 1.377 . S
C383 C384 1.379 . S
C384 H368 0.931 . S
C384 C378 1.383 . S
C384 C383 1.379 . S
H385 C379 0.959 . S
H386 C379 0.961 . S
H387 C379 0.960 . S
H388 C380 0.930 . S
H389 C381 0.929 . S
H390 C398 0.929 . S
H391 C400 0.930 . S
H392 C402 0.930 . S
H393 C405 0.929 . S
H394 C408 0.930 . S
H395 C410 0.960 . S
H396 C410 0.960 . S
H397 C410 0.960 . S
C398 H390 0.929 . S
C398 C399 1.377 . S
C398 C400 1.384 . S
C399 C398 1.377 . S
C399 C405 1.390 . S
C400 H391 0.930 . S
C400 C398 1.384 . S
C400 C401 1.372 . S
C401 C400 1.372 . S
C401 C402 1.400 . S
C401 C406 1.490 . S
C402 H392 0.930 . S
C402 C401 1.400 . S
C402 C405 1.386 . S
H403 C419 0.930 . S
H404 C420 0.931 . S
C405 H393 0.929 . S
C405 C399 1.390 . S
C405 C402 1.386 . S
C406 C401 1.490 . S
C406 C408 1.395 . S
C406 C409 1.403 . S
H407 C413 0.930 . S
C408 H394 0.930 . S
C408 C406 1.395 . S
C408 C411 1.403 . S
C409 C406 1.403 . S
C409 C410 1.524 . S
C409 C413 1.400 . S
C410 H395 0.960 . S
C410 H396 0.960 . S
C410 H397 0.960 . S
C410 C409 1.524 . S
C411 C408 1.403 . S
C411 C412 1.392 . S
C411 C415 1.495 . S
C412 C411 1.392 . S
C412 C413 1.385 . S
C412 C414 1.478 . S
C413 H407 0.930 . S
C413 C409 1.400 . S
C413 C412 1.385 . S
C414 C412 1.478 . S
C414 C416 1.381 . S
C414 C420 1.383 . S
C415 C411 1.495 . S
C415 H421 0.959 . S
C415 H422 0.961 . S
C415 H423 0.960 . S
C416 C414 1.381 . S
C416 C417 1.394 . S
C416 H424 0.930 . S
C417 C416 1.394 . S
C417 C418 1.383 . S
C417 H425 0.929 . S
C418 C417 1.383 . S
C418 C419 1.377 . S
C419 H403 0.930 . S
C419 C418 1.377 . S
C419 C420 1.379 . S
C420 H404 0.931 . S
C420 C414 1.383 . S
C420 C419 1.379 . S
H421 C415 0.959 . S
H422 C415 0.961 . S
H423 C415 0.960 . S
H424 C416 0.930 . S
H425 C417 0.929 . S
H426 C434 0.929 . S
H427 C436 0.930 . S
H428 C438 0.930 . S
H429 C441 0.929 . S
H430 C444 0.930 . S
H431 C446 0.960 . S
H432 C446 0.960 . S
H433 C446 0.960 . S
C434 H426 0.929 . S
C434 C435 1.377 . S
C434 C436 1.384 . S
C435 C434 1.377 . S
C435 C441 1.390 . S
C436 H427 0.930 . S
C436 C434 1.384 . S
C436 C437 1.372 . S
C437 C436 1.372 . S
C437 C438 1.400 . S
C437 C442 1.490 . S
C438 H428 0.930 . S
C438 C437 1.400 . S
C438 C441 1.386 . S
H439 C455 0.930 . S
H440 C456 0.931 . S
C441 H429 0.929 . S
C441 C435 1.390 . S
C441 C438 1.386 . S
C442 C437 1.490 . S
C442 C444 1.395 . S
C442 C445 1.403 . S
H443 C449 0.930 . S
C444 H430 0.930 . S
C444 C442 1.395 . S
C444 C447 1.403 . S
C445 C442 1.403 . S
C445 C446 1.524 . S
C445 C449 1.400 . S
C446 H431 0.960 . S
C446 H432 0.960 . S
C446 H433 0.960 . S
C446 C445 1.524 . S
C447 C444 1.403 . S
C447 C448 1.392 . S
C447 C451 1.495 . S
C448 C447 1.392 . S
C448 C449 1.385 . S
C448 C450 1.478 . S
C449 H443 0.930 . S
C449 C445 1.400 . S
C449 C448 1.385 . S
C450 C448 1.478 . S
C450 C452 1.381 . S
C450 C456 1.383 . S
C451 C447 1.495 . S
C451 H457 0.959 . S
C451 H458 0.961 . S
C451 H459 0.960 . S
C452 C450 1.381 . S
C452 C453 1.394 . S
C452 H460 0.930 . S
C453 C452 1.394 . S
C453 C454 1.383 . S
C453 H461 0.929 . S
C454 C453 1.383 . S
C454 C455 1.377 . S
C455 H439 0.930 . S
C455 C454 1.377 . S
C455 C456 1.379 . S
C456 H440 0.931 . S
C456 C450 1.383 . S
C456 C455 1.379 . S
H457 C451 0.959 . S
H458 C451 0.961 . S
H459 C451 0.960 . S
H460 C452 0.930 . S
H461 C453 0.929 . S
H462 C470 0.929 . S
H463 C472 0.930 . S
H464 C474 0.930 . S
H465 C477 0.929 . S
H466 C480 0.930 . S
H467 C482 0.960 . S
H468 C482 0.960 . S
H469 C482 0.960 . S
C470 H462 0.929 . S
C470 C471 1.377 . S
C470 C472 1.384 . S
C471 C470 1.377 . S
C471 C477 1.390 . S
C472 H463 0.930 . S
C472 C470 1.384 . S
C472 C473 1.372 . S
C473 C472 1.372 . S
C473 C474 1.400 . S
C473 C478 1.490 . S
C474 H464 0.930 . S
C474 C473 1.400 . S
C474 C477 1.386 . S
H475 C491 0.930 . S
H476 C492 0.931 . S
C477 H465 0.929 . S
C477 C471 1.390 . S
C477 C474 1.386 . S
C478 C473 1.490 . S
C478 C480 1.395 . S
C478 C481 1.403 . S
H479 C485 0.930 . S
C480 H466 0.930 . S
C480 C478 1.395 . S
C480 C483 1.403 . S
C481 C478 1.403 . S
C481 C482 1.524 . S
C481 C485 1.400 . S
C482 H467 0.960 . S
C482 H468 0.960 . S
C482 H469 0.960 . S
C482 C481 1.524 . S
C483 C480 1.403 . S
C483 C484 1.392 . S
C483 C487 1.495 . S
C484 C483 1.392 . S
C484 C485 1.385 . S
C484 C486 1.478 . S
C485 H479 0.930 . S
C485 C481 1.400 . S
C485 C484 1.385 . S
C486 C484 1.478 . S
C486 C488 1.381 . S
C486 C492 1.383 . S
C487 C483 1.495 . S
C487 H493 0.959 . S
C487 H494 0.961 . S
C487 H495 0.960 . S
C488 C486 1.381 . S
C488 C489 1.394 . S
C488 H496 0.930 . S
C489 C488 1.394 . S
C489 C490 1.383 . S
C489 H497 0.929 . S
C490 C489 1.383 . S
C490 C491 1.377 . S
C491 H475 0.930 . S
C491 C490 1.377 . S
C491 C492 1.379 . S
C492 H476 0.931 . S
C492 C486 1.383 . S
C492 C491 1.379 . S
H493 C487 0.959 . S
H494 C487 0.961 . S
H495 C487 0.960 . S
H496 C488 0.930 . S
H497 C489 0.929 . S
H498 C506 0.929 . S
H499 C508 0.930 . S
H500 C510 0.930 . S
H501 C513 0.929 . S
H502 C516 0.930 . S
H503 C518 0.960 . S
H504 C518 0.960 . S
H505 C518 0.960 . S
C506 H498 0.929 . S
C506 C507 1.377 . S
C506 C508 1.384 . S
C507 C506 1.377 . S
C507 C513 1.390 . S
C508 H499 0.930 . S
C508 C506 1.384 . S
C508 C509 1.372 . S
C509 C508 1.372 . S
C509 C510 1.400 . S
C509 C514 1.490 . S
C510 H500 0.930 . S
C510 C509 1.400 . S
C510 C513 1.386 . S
H511 C527 0.930 . S
H512 C528 0.931 . S
C513 H501 0.929 . S
C513 C507 1.390 . S
C513 C510 1.386 . S
C514 C509 1.490 . S
C514 C516 1.395 . S
C514 C517 1.403 . S
H515 C521 0.930 . S
C516 H502 0.930 . S
C516 C514 1.395 . S
C516 C519 1.403 . S
C517 C514 1.403 . S
C517 C518 1.524 . S
C517 C521 1.400 . S
C518 H503 0.960 . S
C518 H504 0.960 . S
C518 H505 0.960 . S
C518 C517 1.524 . S
C519 C516 1.403 . S
C519 C520 1.392 . S
C519 C523 1.495 . S
C520 C519 1.392 . S
C520 C521 1.385 . S
C520 C522 1.478 . S
C521 H515 0.930 . S
C521 C517 1.400 . S
C521 C520 1.385 . S
C522 C520 1.478 . S
C522 C524 1.381 . S
C522 C528 1.383 . S
C523 C519 1.495 . S
C523 H529 0.959 . S
C523 H530 0.961 . S
C523 H531 0.960 . S
C524 C522 1.381 . S
C524 C525 1.394 . S
C524 H532 0.930 . S
C525 C524 1.394 . S
C525 C526 1.383 . S
C525 H533 0.929 . S
C526 C525 1.383 . S
C526 C527 1.377 . S
C527 H511 0.930 . S
C527 C526 1.377 . S
C527 C528 1.379 . S
C528 H512 0.931 . S
C528 C522 1.383 . S
C528 C527 1.379 . S
H529 C523 0.959 . S
H530 C523 0.961 . S
H531 C523 0.960 . S
H532 C524 0.930 . S
H533 C525 0.929 . S
H534 C542 0.929 . S
H535 C544 0.930 . S
H536 C546 0.930 . S
H537 C549 0.929 . S
H538 C552 0.930 . S
H539 C554 0.960 . S
H540 C554 0.960 . S
H541 C554 0.960 . S
C542 H534 0.929 . S
C542 C543 1.377 . S
C542 C544 1.384 . S
C543 C542 1.377 . S
C543 C549 1.390 . S
C544 H535 0.930 . S
C544 C542 1.384 . S
C544 C545 1.372 . S
C545 C544 1.372 . S
C545 C546 1.400 . S
C545 C550 1.490 . S
C546 H536 0.930 . S
C546 C545 1.400 . S
C546 C549 1.386 . S
H547 C563 0.930 . S
H548 C564 0.931 . S
C549 H537 0.929 . S
C549 C543 1.390 . S
C549 C546 1.386 . S
C550 C545 1.490 . S
C550 C552 1.395 . S
C550 C553 1.403 . S
H551 C557 0.930 . S
C552 H538 0.930 . S
C552 C550 1.395 . S
C552 C555 1.403 . S
C553 C550 1.403 . S
C553 C554 1.524 . S
C553 C557 1.400 . S
C554 H539 0.960 . S
C554 H540 0.960 . S
C554 H541 0.960 . S
C554 C553 1.524 . S
C555 C552 1.403 . S
C555 C556 1.392 . S
C555 C559 1.495 . S
C556 C555 1.392 . S
C556 C557 1.385 . S
C556 C558 1.478 . S
C557 H551 0.930 . S
C557 C553 1.400 . S
C557 C556 1.385 . S
C558 C556 1.478 . S
C558 C560 1.381 . S
C558 C564 1.383 . S
C559 C555 1.495 . S
C559 H565 0.959 . S
C559 H566 0.961 . S
C559 H567 0.960 . S
C560 C558 1.381 . S
C560 C561 1.394 . S
C560 H568 0.930 . S
C561 C560 1.394 . S
C561 C562 1.383 . S
C561 H569 0.929 . S
C562 C561 1.383 . S
C562 C563 1.377 . S
C563 H547 0.930 . S
C563 C562 1.377 . S
C563 C564 1.379 . S
C564 H548 0.931 . S
C564 C558 1.383 . S
C564 C563 1.379 . S
H565 C559 0.959 . S
H566 C559 0.961 . S
H567 C559 0.960 . S
H568 C560 0.930 . S
H569 C561 0.929 . S
H570 C578 0.929 . S
H571 C580 0.930 . S
H572 C582 0.930 . S
H573 C585 0.929 . S
H574 C588 0.930 . S
H575 C590 0.960 . S
H576 C590 0.960 . S
H577 C590 0.960 . S
C578 H570 0.929 . S
C578 C579 1.377 . S
C578 C580 1.384 . S
C579 C578 1.377 . S
C579 C585 1.390 . S
C580 H571 0.930 . S
C580 C578 1.384 . S
C580 C581 1.372 . S
C581 C580 1.372 . S
C581 C582 1.400 . S
C581 C586 1.490 . S
C582 H572 0.930 . S
C582 C581 1.400 . S
C582 C585 1.386 . S
H583 C599 0.930 . S
H584 C600 0.931 . S
C585 H573 0.929 . S
C585 C579 1.390 . S
C585 C582 1.386 . S
C586 C581 1.490 . S
C586 C588 1.395 . S
C586 C589 1.403 . S
H587 C593 0.930 . S
C588 H574 0.930 . S
C588 C586 1.395 . S
C588 C591 1.403 . S
C589 C586 1.403 . S
C589 C590 1.524 . S
C589 C593 1.400 . S
C590 H575 0.960 . S
C590 H576 0.960 . S
C590 H577 0.960 . S
C590 C589 1.524 . S
C591 C588 1.403 . S
C591 C592 1.392 . S
C591 C595 1.495 . S
C592 C591 1.392 . S
C592 C593 1.385 . S
C592 C594 1.478 . S
C593 H587 0.930 . S
C593 C589 1.400 . S
C593 C592 1.385 . S
C594 C592 1.478 . S
C594 C596 1.381 . S
C594 C600 1.383 . S
C595 C591 1.495 . S
C595 H601 0.959 . S
C595 H602 0.961 . S
C595 H603 0.960 . S
C596 C594 1.381 . S
C596 C597 1.394 . S
C596 H604 0.930 . S
C597 C596 1.394 . S
C597 C598 1.383 . S
C597 H605 0.929 . S
C598 C597 1.383 . S
C598 C599 1.377 . S
C599 H583 0.930 . S
C599 C598 1.377 . S
C599 C600 1.379 . S
C600 H584 0.931 . S
C600 C594 1.383 . S
C600 C599 1.379 . S
H601 C595 0.959 . S
H602 C595 0.961 . S
H603 C595 0.960 . S
H604 C596 0.930 . S
H605 C597 0.929 . S
H606 C614 0.929 . S
H607 C616 0.930 . S
H608 C618 0.930 . S
H609 C621 0.929 . S
H610 C624 0.930 . S
H611 C626 0.960 . S
H612 C626 0.960 . S
H613 C626 0.960 . S
C614 H606 0.929 . S
C614 C615 1.377 . S
C614 C616 1.384 . S
C615 C614 1.377 . S
C615 C621 1.390 . S
C616 H607 0.930 . S
C616 C614 1.384 . S
C616 C617 1.372 . S
C617 C616 1.372 . S
C617 C618 1.400 . S
C617 C622 1.490 . S
C618 H608 0.930 . S
C618 C617 1.400 . S
C618 C621 1.386 . S
H619 C635 0.930 . S
H620 C636 0.931 . S
C621 H609 0.929 . S
C621 C615 1.390 . S
C621 C618 1.386 . S
C622 C617 1.490 . S
C622 C624 1.395 . S
C622 C625 1.403 . S
H623 C629 0.930 . S
C624 H610 0.930 . S
C624 C622 1.395 . S
C624 C627 1.403 . S
C625 C622 1.403 . S
C625 C626 1.524 . S
C625 C629 1.400 . S
C626 H611 0.960 . S
C626 H612 0.960 . S
C626 H613 0.960 . S
C626 C625 1.524 . S
C627 C624 1.403 . S
C627 C628 1.392 . S
C627 C631 1.495 . S
C628 C627 1.392 . S
C628 C629 1.385 . S
C628 C630 1.478 . S
C629 H623 0.930 . S
C629 C625 1.400 . S
C629 C628 1.385 . S
C630 C628 1.478 . S
C630 C632 1.381 . S
C630 C636 1.383 . S
C631 C627 1.495 . S
C631 H637 0.959 . S
C631 H638 0.961 . S
C631 H639 0.960 . S
C632 C630 1.381 . S
C632 C633 1.394 . S
C632 H640 0.930 . S
C633 C632 1.394 . S
C633 C634 1.383 . S
C633 H641 0.929 . S
C634 C633 1.383 . S
C634 C635 1.377 . S
C635 H619 0.930 . S
C635 C634 1.377 . S
C635 C636 1.379 . S
C636 H620 0.931 . S
C636 C630 1.383 . S
C636 C635 1.379 . S
H637 C631 0.959 . S
H638 C631 0.961 . S
H639 C631 0.960 . S
H640 C632 0.930 . S
H641 C633 0.929 . S
H642 C650 0.929 . S
H643 C652 0.930 . S
H644 C654 0.930 . S
H645 C657 0.929 . S
H646 C660 0.930 . S
H647 C662 0.960 . S
H648 C662 0.960 . S
H649 C662 0.960 . S
C650 H642 0.929 . S
C650 C651 1.377 . S
C650 C652 1.384 . S
C651 C650 1.377 . S
C651 C657 1.390 . S
C652 H643 0.930 . S
C652 C650 1.384 . S
C652 C653 1.372 . S
C653 C652 1.372 . S
C653 C654 1.400 . S
C653 C658 1.490 . S
C654 H644 0.930 . S
C654 C653 1.400 . S
C654 C657 1.386 . S
H655 C671 0.930 . S
H656 C672 0.931 . S
C657 H645 0.929 . S
C657 C651 1.390 . S
C657 C654 1.386 . S
C658 C653 1.490 . S
C658 C660 1.395 . S
C658 C661 1.403 . S
H659 C665 0.930 . S
C660 H646 0.930 . S
C660 C658 1.395 . S
C660 C663 1.403 . S
C661 C658 1.403 . S
C661 C662 1.524 . S
C661 C665 1.400 . S
C662 H647 0.960 . S
C662 H648 0.960 . S
C662 H649 0.960 . S
C662 C661 1.524 . S
C663 C660 1.403 . S
C663 C664 1.392 . S
C663 C667 1.495 . S
C664 C663 1.392 . S
C664 C665 1.385 . S
C664 C666 1.478 . S
C665 H659 0.930 . S
C665 C661 1.400 . S
C665 C664 1.385 . S
C666 C664 1.478 . S
C666 C668 1.381 . S
C666 C672 1.383 . S
C667 C663 1.495 . S
C667 H673 0.959 . S
C667 H674 0.961 . S
C667 H675 0.960 . S
C668 C666 1.381 . S
C668 C669 1.394 . S
C668 H676 0.930 . S
C669 C668 1.394 . S
C669 C670 1.383 . S
C669 H677 0.929 . S
C670 C669 1.383 . S
C670 C671 1.377 . S
C671 H655 0.930 . S
C671 C670 1.377 . S
C671 C672 1.379 . S
C672 H656 0.931 . S
C672 C666 1.383 . S
C672 C671 1.379 . S
H673 C667 0.959 . S
H674 C667 0.961 . S
H675 C667 0.960 . S
H676 C668 0.930 . S
H677 C669 0.929 . S
H678 C686 0.929 . S
H679 C688 0.930 . S
H680 C690 0.930 . S
H681 C693 0.929 . S
H682 C696 0.930 . S
H683 C698 0.960 . S
H684 C698 0.960 . S
H685 C698 0.960 . S
C686 H678 0.929 . S
C686 C687 1.377 . S
C686 C688 1.384 . S
C687 C686 1.377 . S
C687 C693 1.390 . S
C688 H679 0.930 . S
C688 C686 1.384 . S
C688 C689 1.372 . S
C689 C688 1.372 . S
C689 C690 1.400 . S
C689 C694 1.490 . S
C690 H680 0.930 . S
C690 C689 1.400 . S
C690 C693 1.386 . S
H691 C707 0.930 . S
H692 C708 0.931 . S
C693 H681 0.929 . S
C693 C687 1.390 . S
C693 C690 1.386 . S
C694 C689 1.490 . S
C694 C696 1.395 . S
C694 C697 1.403 . S
H695 C701 0.930 . S
C696 H682 0.930 . S
C696 C694 1.395 . S
C696 C699 1.403 . S
C697 C694 1.403 . S
C697 C698 1.524 . S
C697 C701 1.400 . S
C698 H683 0.960 . S
C698 H684 0.960 . S
C698 H685 0.960 . S
C698 C697 1.524 . S
C699 C696 1.403 . S
C699 C700 1.392 . S
C699 C703 1.495 . S
C700 C699 1.392 . S
C700 C701 1.385 . S
C700 C702 1.478 . S
C701 H695 0.930 . S
C701 C697 1.400 . S
C701 C700 1.385 . S
C702 C700 1.478 . S
C702 C704 1.381 . S
C702 C708 1.383 . S
C703 C699 1.495 . S
C703 H709 0.959 . S
C703 H710 0.961 . S
C703 H711 0.960 . S
C704 C702 1.381 . S
C704 C705 1.394 . S
C704 H712 0.930 . S
C705 C704 1.394 . S
C705 C706 1.383 . S
C705 H713 0.929 . S
C706 C705 1.383 . S
C706 C707 1.377 . S
C707 H691 0.930 . S
C707 C706 1.377 . S
C707 C708 1.379 . S
C708 H692 0.931 . S
C708 C702 1.383 . S
C708 C707 1.379 . S
H709 C703 0.959 . S
H710 C703 0.961 . S
H711 C703 0.960 . S
H712 C704 0.930 . S
H713 C705 0.929 . S
H714 C722 0.929 . S
H715 C724 0.930 . S
H716 C726 0.930 . S
H717 C729 0.929 . S
H718 C732 0.930 . S
H719 C734 0.960 . S
H720 C734 0.960 . S
H721 C734 0.960 . S
C722 H714 0.929 . S
C722 C723 1.377 . S
C722 C724 1.384 . S
C723 C722 1.377 . S
C723 C729 1.390 . S
C724 H715 0.930 . S
C724 C722 1.384 . S
C724 C725 1.372 . S
C725 C724 1.372 . S
C725 C726 1.400 . S
C725 C730 1.490 . S
C726 H716 0.930 . S
C726 C725 1.400 . S
C726 C729 1.386 . S
H727 C743 0.930 . S
H728 C744 0.931 . S
C729 H717 0.929 . S
C729 C723 1.390 . S
C729 C726 1.386 . S
C730 C725 1.490 . S
C730 C732 1.395 . S
C730 C733 1.403 . S
H731 C737 0.930 . S
C732 H718 0.930 . S
C732 C730 1.395 . S
C732 C735 1.403 . S
C733 C730 1.403 . S
C733 C734 1.524 . S
C733 C737 1.400 . S
C734 H719 0.960 . S
C734 H720 0.960 . S
C734 H721 0.960 . S
C734 C733 1.524 . S
C735 C732 1.403 . S
C735 C736 1.392 . S
C735 C739 1.495 . S
C736 C735 1.392 . S
C736 C737 1.385 . S
C736 C738 1.478 . S
C737 H731 0.930 . S
C737 C733 1.400 . S
C737 C736 1.385 . S
C738 C736 1.478 . S
C738 C740 1.381 . S
C738 C744 1.383 . S
C739 C735 1.495 . S
C739 H745 0.959 . S
C739 H746 0.961 . S
C739 H747 0.960 . S
C740 C738 1.381 . S
C740 C741 1.394 . S
C740 H748 0.930 . S
C741 C740 1.394 . S
C741 C742 1.383 . S
C741 H749 0.929 . S
C742 C741 1.383 . S
C742 C743 1.377 . S
C743 H727 0.930 . S
C743 C742 1.377 . S
C743 C744 1.379 . S
C744 H728 0.931 . S
C744 C738 1.383 . S
C744 C743 1.379 . S
H745 C739 0.959 . S
H746 C739 0.961 . S
H747 C739 0.960 . S
H748 C740 0.930 . S
H749 C741 0.929 . S
H750 C758 0.929 . S
H751 C760 0.930 . S
H752 C762 0.930 . S
H753 C765 0.929 . S
H754 C768 0.930 . S
H755 C770 0.960 . S
H756 C770 0.960 . S
H757 C770 0.960 . S
C758 H750 0.929 . S
C758 C759 1.377 . S
C758 C760 1.384 . S
C759 C758 1.377 . S
C759 C765 1.390 . S
C760 H751 0.930 . S
C760 C758 1.384 . S
C760 C761 1.372 . S
C761 C760 1.372 . S
C761 C762 1.400 . S
C761 C766 1.490 . S
C762 H752 0.930 . S
C762 C761 1.400 . S
C762 C765 1.386 . S
H763 C779 0.930 . S
H764 C780 0.931 . S
C765 H753 0.929 . S
C765 C759 1.390 . S
C765 C762 1.386 . S
C766 C761 1.490 . S
C766 C768 1.395 . S
C766 C769 1.403 . S
H767 C773 0.930 . S
C768 H754 0.930 . S
C768 C766 1.395 . S
C768 C771 1.403 . S
C769 C766 1.403 . S
C769 C770 1.524 . S
C769 C773 1.400 . S
C770 H755 0.960 . S
C770 H756 0.960 . S
C770 H757 0.960 . S
C770 C769 1.524 . S
C771 C768 1.403 . S
C771 C772 1.392 . S
C771 C775 1.495 . S
C772 C771 1.392 . S
C772 C773 1.385 . S
C772 C774 1.478 . S
C773 H767 0.930 . S
C773 C769 1.400 . S
C773 C772 1.385 . S
C774 C772 1.478 . S
C774 C776 1.381 . S
C774 C780 1.383 . S
C775 C771 1.495 . S
C775 H781 0.959 . S
C775 H782 0.961 . S
C775 H783 0.960 . S
C776 C774 1.381 . S
C776 C777 1.394 . S
C776 H784 0.930 . S
C777 C776 1.394 . S
C777 C778 1.383 . S
C777 H785 0.929 . S
C778 C777 1.383 . S
C778 C779 1.377 . S
C779 H763 0.930 . S
C779 C778 1.377 . S
C779 C780 1.379 . S
C780 H764 0.931 . S
C780 C774 1.383 . S
C780 C779 1.379 . S
H781 C775 0.959 . S
H782 C775 0.961 . S
H783 C775 0.960 . S
H784 C776 0.930 . S
H785 C777 0.929 . S
H786 C794 0.929 1_655 S
H787 C796 0.930 1_655 S
H788 C798 0.930 . S
H789 C801 0.929 . S
H790 C804 0.930 . S
H791 C806 0.960 . S
H792 C806 0.960 . S
H793 C806 0.960 . S
C794 H786 0.929 1_455 S
C794 C795 1.377 . S
C794 C796 1.384 . S
C795 C794 1.377 . S
C795 C801 1.390 . S
C796 H787 0.930 1_455 S
C796 C794 1.384 . S
C796 C797 1.372 . S
C797 C796 1.372 . S
C797 C798 1.400 . S
C797 C802 1.490 . S
C798 H788 0.930 . S
C798 C797 1.400 . S
C798 C801 1.386 . S
H799 C815 0.930 . S
H800 C816 0.931 . S
C801 H789 0.929 . S
C801 C795 1.390 . S
C801 C798 1.386 . S
C802 C797 1.490 . S
C802 C804 1.395 . S
C802 C805 1.403 . S
H803 C809 0.930 . S
C804 H790 0.930 . S
C804 C802 1.395 . S
C804 C807 1.403 . S
C805 C802 1.403 . S
C805 C806 1.524 . S
C805 C809 1.400 . S
C806 H791 0.960 . S
C806 H792 0.960 . S
C806 H793 0.960 . S
C806 C805 1.524 . S
C807 C804 1.403 . S
C807 C808 1.392 . S
C807 C811 1.495 . S
C808 C807 1.392 . S
C808 C809 1.385 . S
C808 C810 1.478 . S
C809 H803 0.930 . S
C809 C805 1.400 . S
C809 C808 1.385 . S
C810 C808 1.478 . S
C810 C812 1.381 . S
C810 C816 1.383 . S
C811 C807 1.495 . S
C811 H817 0.959 . S
C811 H818 0.961 . S
C811 H819 0.960 . S
C812 C810 1.381 . S
C812 C813 1.394 1_554 S
C812 H820 0.930 1_455 S
C813 C812 1.394 1_556 S
C813 C814 1.383 . S
C813 H821 0.919 1_455 S
C814 C813 1.383 . S
C814 C815 1.377 . S
C815 H799 0.930 . S
C815 C814 1.377 . S
C815 C816 1.379 1_556 S
C816 H800 0.931 . S
C816 C810 1.383 . S
C816 C815 1.379 1_554 S
H817 C811 0.959 . S
H818 C811 0.961 . S
H819 C811 0.960 . S
H820 C812 0.930 1_655 S
H821 C813 0.919 1_655 S
H822 C830 0.929 . S
H823 C832 0.930 . S
H824 C834 0.930 . S
H825 C837 0.929 . S
H826 C840 0.930 . S
H827 C842 0.960 . S
H828 C842 0.960 . S
H829 C842 0.960 1_545 S
C830 H822 0.929 . S
C830 C831 1.377 1_565 S
C830 C832 1.384 . S
C831 C830 1.377 1_545 S
C831 C837 1.390 . S
C832 H823 0.930 . S
C832 C830 1.384 . S
C832 C833 1.372 1_565 S
C833 C832 1.372 1_545 S
C833 C834 1.400 . S
C833 C838 1.490 . S
C834 H824 0.930 . S
C834 C833 1.400 . S
C834 C837 1.386 . S
H835 C851 0.930 . S
H836 C852 0.931 . S
C837 H825 0.929 . S
C837 C831 1.390 . S
C837 C834 1.386 . S
C838 C833 1.490 . S
C838 C840 1.395 . S
C838 C841 1.403 . S
H839 C845 0.930 . S
C840 H826 0.930 . S
C840 C838 1.395 . S
C840 C843 1.403 . S
C841 C838 1.403 . S
C841 C842 1.524 1_545 S
C841 C845 1.400 . S
C842 H827 0.960 . S
C842 H828 0.960 . S
C842 H829 0.960 1_565 S
C842 C841 1.524 1_565 S
C843 C840 1.403 . S
C843 C844 1.392 . S
C843 C847 1.495 . S
C844 C843 1.392 . S
C844 C845 1.385 . S
C844 C846 1.478 . S
C845 H839 0.930 . S
C845 C841 1.400 . S
C845 C844 1.385 . S
C846 C844 1.478 . S
C846 C848 1.381 . S
C846 C852 1.383 . S
C847 C843 1.495 . S
C847 H853 0.959 . S
C847 H854 0.961 . S
C847 H855 0.960 . S
C848 C846 1.381 . S
C848 C849 1.394 . S
C848 H856 0.930 1_545 S
C849 C848 1.394 . S
C849 C850 1.383 . S
C849 H857 0.929 1_545 S
C850 C849 1.383 . S
C850 C851 1.377 . S
C851 H835 0.930 . S
C851 C850 1.377 . S
C851 C852 1.379 . S
C852 H836 0.931 . S
C852 C846 1.383 . S
C852 C851 1.379 . S
H853 C847 0.959 . S
H854 C847 0.961 . S
H855 C847 0.960 . S
H856 C848 0.930 1_565 S
H857 C849 0.929 1_565 S
H858 C866 0.929 . S
H859 C868 0.930 . S
H860 C870 0.930 . S
H861 C873 0.929 . S
H862 C876 0.930 . S
H863 C878 0.960 . S
H864 C878 0.960 . S
H865 C878 0.960 . S
C866 H858 0.929 . S
C866 C867 1.377 . S
C866 C868 1.384 . S
C867 C866 1.377 . S
C867 C873 1.390 . S
C868 H859 0.930 . S
C868 C866 1.384 . S
C868 C869 1.372 . S
C869 C868 1.372 . S
C869 C870 1.400 . S
C869 C874 1.490 . S
C870 H860 0.930 . S
C870 C869 1.400 . S
C870 C873 1.386 . S
H871 C887 0.930 . S
H872 C888 0.931 . S
C873 H861 0.929 . S
C873 C867 1.390 . S
C873 C870 1.386 . S
C874 C869 1.490 . S
C874 C876 1.395 . S
C874 C877 1.403 . S
H875 C881 0.930 . S
C876 H862 0.930 . S
C876 C874 1.395 . S
C876 C879 1.403 . S
C877 C874 1.403 . S
C877 C878 1.524 . S
C877 C881 1.400 . S
C878 H863 0.960 . S
C878 H864 0.960 . S
C878 H865 0.960 . S
C878 C877 1.524 . S
C879 C876 1.403 . S
C879 C880 1.392 . S
C879 C883 1.495 . S
C880 C879 1.392 . S
C880 C881 1.385 . S
C880 C882 1.478 . S
C881 H875 0.930 . S
C881 C877 1.400 . S
C881 C880 1.385 . S
C882 C880 1.478 . S
C882 C884 1.381 . S
C882 C888 1.383 . S
C883 C879 1.495 . S
C883 H889 0.959 . S
C883 H890 0.961 . S
C883 H891 0.960 . S
C884 C882 1.381 . S
C884 C885 1.394 . S
C884 H892 0.930 . S
C885 C884 1.394 . S
C885 C886 1.383 . S
C885 H893 0.929 . S
C886 C885 1.383 . S
C886 C887 1.377 . S
C887 H871 0.930 . S
C887 C886 1.377 . S
C887 C888 1.379 . S
C888 H872 0.931 . S
C888 C882 1.383 . S
C888 C887 1.379 . S
H889 C883 0.959 . S
H890 C883 0.961 . S
H891 C883 0.960 . S
H892 C884 0.930 . S
H893 C885 0.929 . S
H894 C902 0.929 . S
H895 C904 0.930 . S
H896 C906 0.930 . S
H897 C909 0.929 . S
H898 C912 0.930 . S
H899 C914 0.960 . S
H900 C914 0.960 . S
H901 C914 0.960 . S
C902 H894 0.929 . S
C902 C903 1.377 . S
C902 C904 1.384 . S
C903 C902 1.377 . S
C903 C909 1.390 . S
C904 H895 0.930 . S
C904 C902 1.384 . S
C904 C905 1.372 . S
C905 C904 1.372 . S
C905 C906 1.400 . S
C905 C910 1.490 . S
C906 H896 0.930 . S
C906 C905 1.400 . S
C906 C909 1.386 . S
H907 C923 0.930 . S
H908 C924 0.931 . S
C909 H897 0.929 . S
C909 C903 1.390 . S
C909 C906 1.386 . S
C910 C905 1.490 . S
C910 C912 1.395 1_545 S
C910 C913 1.403 . S
H911 C917 0.930 . S
C912 H898 0.930 . S
C912 C910 1.395 1_565 S
C912 C915 1.403 . S
C913 C910 1.403 . S
C913 C914 1.524 . S
C913 C917 1.400 . S
C914 H899 0.960 . S
C914 H900 0.960 . S
C914 H901 0.960 . S
C914 C913 1.524 . S
C915 C912 1.403 . S
C915 C916 1.392 . S
C915 C919 1.495 . S
C916 C915 1.392 . S
C916 C917 1.385 1_565 S
C916 C918 1.478 . S
C917 H911 0.930 . S
C917 C913 1.400 . S
C917 C916 1.385 1_545 S
C918 C916 1.478 . S
C918 C920 1.381 1_565 S
C918 C924 1.383 . S
C919 C915 1.495 . S
C919 H925 0.959 . S
C919 H926 0.961 . S
C919 H927 0.960 . S
C920 C918 1.381 1_545 S
C920 C921 1.394 . S
C920 H928 0.930 . S
C921 C920 1.394 . S
C921 C922 1.383 1_545 S
C921 H929 0.929 . S
C922 C921 1.383 1_565 S
C922 C923 1.377 . S
C923 H907 0.930 . S
C923 C922 1.377 . S
C923 C924 1.379 . S
C924 H908 0.931 . S
C924 C918 1.383 . S
C924 C923 1.379 . S
H925 C919 0.959 . S
H926 C919 0.961 . S
H927 C919 0.960 . S
H928 C920 0.930 . S
H929 C921 0.929 . S
H930 C938 0.929 . S
H931 C940 0.930 . S
H932 C942 0.930 . S
H933 C945 0.929 . S
H934 C948 0.930 . S
H935 C950 0.960 . S
H936 C950 0.960 . S
H937 C950 0.960 . S
C938 H930 0.929 . S
C938 C939 1.377 . S
C938 C940 1.384 . S
C939 C938 1.377 . S
C939 C945 1.390 . S
C940 H931 0.930 . S
C940 C938 1.384 . S
C940 C941 1.372 . S
C941 C940 1.372 . S
C941 C942 1.400 . S
C941 C946 1.490 . S
C942 H932 0.930 . S
C942 C941 1.400 . S
C942 C945 1.386 . S
H943 C959 0.930 . S
H944 C960 0.931 . S
C945 H933 0.929 . S
C945 C939 1.390 . S
C945 C942 1.386 . S
C946 C941 1.490 . S
C946 C948 1.395 . S
C946 C949 1.403 . S
H947 C953 0.930 . S
C948 H934 0.930 . S
C948 C946 1.395 . S
C948 C951 1.403 . S
C949 C946 1.403 . S
C949 C950 1.524 . S
C949 C953 1.400 . S
C950 H935 0.960 . S
C950 H936 0.960 . S
C950 H937 0.960 . S
C950 C949 1.524 . S
C951 C948 1.403 . S
C951 C952 1.392 . S
C951 C955 1.495 . S
C952 C951 1.392 . S
C952 C953 1.385 . S
C952 C954 1.478 . S
C953 H947 0.930 . S
C953 C949 1.400 . S
C953 C952 1.385 . S
C954 C952 1.478 . S
C954 C956 1.381 . S
C954 C960 1.383 . S
C955 C951 1.495 . S
C955 H961 0.959 . S
C955 H962 0.961 . S
C955 H963 0.960 . S
C956 C954 1.381 . S
C956 C957 1.394 1_556 S
C956 H964 0.930 . S
C957 C956 1.394 1_554 S
C957 C958 1.383 . S
C957 H965 0.929 . S
C958 C957 1.383 . S
C958 C959 1.377 . S
C959 H943 0.930 . S
C959 C958 1.377 . S
C959 C960 1.379 1_554 S
C960 H944 0.931 . S
C960 C954 1.383 . S
C960 C959 1.379 1_556 S
H961 C955 0.959 . S
H962 C955 0.961 . S
H963 C955 0.960 . S
H964 C956 0.930 . S
H965 C957 0.929 . S
H966 C974 0.929 . S
H967 C976 0.930 . S
H968 C978 0.930 . S
H969 C981 0.929 . S
H970 C984 0.930 . S
H971 C986 0.960 . S
H972 C986 0.960 . S
H973 C986 0.960 . S
C974 H966 0.929 . S
C974 C975 1.377 1_655 S
C974 C976 1.384 . S
C975 C974 1.377 1_455 S
C975 C981 1.390 . S
C976 H967 0.930 . S
C976 C974 1.384 . S
C976 C977 1.372 1_655 S
C977 C976 1.372 1_455 S
C977 C978 1.400 . S
C977 C982 1.490 . S
C978 H968 0.930 . S
C978 C977 1.400 . S
C978 C981 1.386 . S
H979 C995 0.930 . S
H980 C996 0.931 . S
C981 H969 0.929 . S
C981 C975 1.390 . S
C981 C978 1.386 . S
C982 C977 1.490 . S
C982 C984 1.395 1_455 S
C982 C985 1.403 . S
H983 C989 0.930 . S
C984 H970 0.930 . S
C984 C982 1.395 1_655 S
C984 C987 1.403 . S
C985 C982 1.403 . S
C985 C986 1.524 . S
C985 C989 1.400 . S
C986 H971 0.960 . S
C986 H972 0.960 . S
C986 H973 0.960 . S
C986 C985 1.524 . S
C987 C984 1.403 . S
C987 C988 1.392 1_655 S
C987 C991 1.495 . S
C988 C987 1.392 1_455 S
C988 C989 1.385 . S
C988 C990 1.478 1_455 S
C989 H983 0.930 . S
C989 C985 1.400 . S
C989 C988 1.385 . S
C990 C988 1.478 1_655 S
C990 C992 1.381 . S
C990 C996 1.383 1_655 S
C991 C987 1.495 . S
C991 H997 0.959 . S
C991 H998 0.961 . S
C991 H999 0.960 . S
C992 C990 1.381 . S
C992 C993 1.394 . S
C992 H1000 0.930 . S
C993 C992 1.394 . S
C993 C994 1.383 . S
C993 H1001 0.929 . S
C994 C993 1.383 . S
C994 C995 1.377 1_655 S
C995 H979 0.930 . S
C995 C994 1.377 1_455 S
C995 C996 1.379 . S
C996 H980 0.931 . S
C996 C990 1.383 1_455 S
C996 C995 1.379 . S
H997 C991 0.959 . S
H998 C991 0.961 . S
H999 C991 0.960 . S
H1000 C992 0.930 . S
H1001 C993 0.929 . S
C363 C7 0.522 . S
C382 C331 0.514 . S
C399 C51 1.853 . S
C418 C258 1.807 . S
C435 C87 1.141 . S
C454 C297 1.149 . S
C471 C16 0.294 . S
C490 C336 0.292 . S
C526 C253 1.928 . S
C507 C42 1.984 . S
C562 C292 1.283 . S
C543 C96 1.297 . S
C579 C47 1.139 . S
C598 C180 1.138 . S
C615 C91 3.084 . S
C634 C214 3.036 . S
C651 C2 2.024 . S
C670 C136 1.995 . S
C706 C175 1.252 . S
C687 C56 1.261 . S
C742 C219 2.860 . S
C723 C82 2.899 . S
C759 C11 1.843 . S
C778 C141 1.826 . S
C814 C199 1.758 . S
C795 C19 1.694 . S
C831 C50 1.341 . S
C850 C121 1.385 . S
C867 C99 1.467 . S
C886 C160 1.509 . S
C922 C277 1.492 . S
C903 C59 1.448 . S
C958 C316 1.141 . S
C939 C90 1.114 . S
C975 C10 1.346 . S
C994 C238 1.376 . S
