# Generated by pormake.
# Topology tsx, (6,3)-cn, num edge types: 1
# Building blocks:
#     Node 0, Type 0, BuildingBlock: JUFBIX_clean_sbu_0, # of connection points: 6
#     Node 1, Type 0, BuildingBlock: JUFBIX_clean_sbu_0, # of connection points: 6
#     Node 2, Type 1, BuildingBlock: VETTIZ_charged_linker_0, # of connection points: 3
#     Node 3, Type 1, BuildingBlock: VETTIZ_charged_linker_0, # of connection points: 3
#     Node 4, Type 1, BuildingBlock: VETTIZ_charged_linker_0, # of connection points: 3
#     Node 5, Type 1, BuildingBlock: VETTIZ_charged_linker_0, # of connection points: 3
#     Edge 6, Type (0, 1), BuildingBlock: XIVTED_clean_linker_0, # of connection points: 2
#     Edge 7, Type (0, 1), BuildingBlock: XIVTED_clean_linker_0, # of connection points: 2
#     Edge 8, Type (0, 1), BuildingBlock: XIVTED_clean_linker_0, # of connection points: 2
#     Edge 9, Type (0, 1), BuildingBlock: XIVTED_clean_linker_0, # of connection points: 2
#     Edge 10, Type (0, 1), BuildingBlock: XIVTED_clean_linker_0, # of connection points: 2
#     Edge 11, Type (0, 1), BuildingBlock: XIVTED_clean_linker_0, # of connection points: 2
#     Edge 12, Type (0, 1), BuildingBlock: XIVTED_clean_linker_0, # of connection points: 2
#     Edge 13, Type (0, 1), BuildingBlock: XIVTED_clean_linker_0, # of connection points: 2
#     Edge 14, Type (0, 1), BuildingBlock: XIVTED_clean_linker_0, # of connection points: 2
#     Edge 15, Type (0, 1), BuildingBlock: XIVTED_clean_linker_0, # of connection points: 2
#     Edge 16, Type (0, 1), BuildingBlock: XIVTED_clean_linker_0, # of connection points: 2
#     Edge 17, Type (0, 1), BuildingBlock: XIVTED_clean_linker_0, # of connection points: 2
# Relax obj value: 0.164
# Max RMSD: 0.169
# Mean RMSD: 0.137
data_MOF--net-tsx--node1-JUFBIX_clean_sbu_0--node2-VETTIZ_charged_linker_0--edge1-XIVTED_clean_linker_0
_symmetry_space_group_name_H-M    P1
_symmetry_Int_Tables_number       1
_symmetry_cell_setting            triclinic
loop_
_symmetry_equiv_pos_as_xyz
'x, y, z'
_cell_length_a     23.3922
_cell_length_b     27.864269
_cell_length_c     44.842027
_cell_angle_alpha  92.568138
_cell_angle_beta   89.434992
_cell_angle_gamma 97.684214
loop_
_atom_site_label
_atom_site_type_symbol
_atom_site_fract_x
_atom_site_fract_y
_atom_site_fract_z
_atom_type_partial_charge
Co0 Co 0.11059 0.98834 -0.00085 0.0
C1 C 0.05166 0.01956 0.95068 0.0
Co2 Co 0.04957 0.04134 0.01013 0.0
C3 C 0.17732 0.90506 -0.00272 0.0
C4 C 0.20059 0.95675 0.96382 0.0
N5 N 0.16344 0.94681 0.98662 0.0
N6 N 0.22223 0.88944 0.98215 0.0
C7 C 0.23669 0.92191 0.96113 0.0
H8 H 0.15642 0.88752 0.01632 0.0
H9 H 0.20216 0.98811 0.95031 0.0
C10 C 0.10891 0.01106 0.05856 0.0
N11 N 0.99845 0.08468 0.02241 0.0
C12 C 0.95125 0.09591 0.00846 0.0
C13 C 1.00351 0.11423 0.04717 0.0
N14 N 0.92694 0.13142 0.02345 0.0
C15 C 0.9598 0.14256 0.04797 0.0
C16 C 1.00002 0.94453 0.01053 0.0
O17 O 0.13078 0.98318 0.03976 0.0
O18 O 0.07356 0.03822 0.04987 0.0
O19 O 0.99185 0.98845 0.0154 0.0
O20 O 0.05003 0.93503 0.00264 0.0
O21 O 0.02695 0.04369 0.97036 0.0
H22 H 0.03766 0.1162 0.06341 0.0
H23 H 0.93628 0.07945 -0.01283 0.0
O24 O 0.08965 0.994 0.95848 0.0
O25 O 0.1701 0.04302 -0.00383 0.0
O26 O 0.10731 0.09391 0.00463 0.0
C27 C 0.15866 0.08641 -0.0011 0.0
H28 H 0.27137 0.92066 0.94506 0.0
H29 H 0.95363 0.16978 0.06522 0.0
Co30 Co 0.52116 0.50258 0.49308 0.0
C31 C 0.4581 0.53855 0.448 0.0
Co32 Co 0.46142 0.55505 0.50805 0.0
C33 C 0.5889 0.41976 0.48732 0.0
C34 C 0.60526 0.47125 0.45319 0.0
N35 N 0.5725 0.46135 0.47763 0.0
N36 N 0.6311 0.40406 0.46996 0.0
C37 C 0.64104 0.43646 0.44848 0.0
H38 H 0.57171 0.40233 0.5072 0.0
H39 H 0.60402 0.50252 0.43988 0.0
C40 C 0.526 0.5206 0.5531 0.0
N41 N 0.41159 0.5975 0.52327 0.0
C42 C 0.3612 0.60784 0.51221 0.0
C43 C 0.42126 0.62734 0.54773 0.0
N44 N 0.33929 0.64311 0.52873 0.0
C45 C 0.37712 0.65502 0.55121 0.0
C46 C 0.41158 0.45815 0.50602 0.0
O47 O 0.54675 0.49554 0.53234 0.0
O48 O 0.48798 0.54725 0.54706 0.0
O49 O 0.40346 0.50182 0.51201 0.0
O50 O 0.46132 0.44911 0.49733 0.0
O51 O 0.43698 0.56273 0.46899 0.0
H52 H 0.45884 0.62985 0.56182 0.0
H53 H 0.34213 0.59095 0.49182 0.0
O54 O 0.49457 0.51028 0.45374 0.0
O55 O 0.5803 0.5579 0.48933 0.0
O56 O 0.51904 0.60757 0.50376 0.0
C57 C 0.56925 0.60094 0.49512 0.0
H58 H 0.67233 0.43522 0.43061 0.0
H59 H 0.37387 0.68229 0.56886 0.0
C60 C 0.01563 0.86461 0.46077 0.0
C61 C 0.05136 0.83069 0.44979 0.0
C62 C 0.06894 0.83148 0.41972 0.0
C63 C 0.02024 0.90124 0.41249 0.0
C64 C 0.99974 0.89915 0.44143 0.0
C65 C 0.9611 0.93775 0.44825 0.0
H66 H 0.87546 0.15079 0.40689 0.0
C67 C 1.00161 0.94387 0.39906 0.0
C68 C 0.96733 0.96636 0.41988 0.0
H69 H 0.82465 0.07514 0.48686 0.0
H70 H 0.87736 0.00907 0.46972 0.0
H71 H 1.00806 0.12879 0.40311 0.0
H72 H 0.84889 0.05937 0.36454 0.0
H73 H 0.90243 0.05255 0.33763 0.0
H74 H 0.8879 0.11262 0.34933 0.0
H75 H 0.96894 0.15541 0.37534 0.0
H76 H 0.02079 0.11524 0.3651 0.0
C77 C 0.98424 0.9683 0.47613 0.0
C78 C 0.89904 0.91184 0.45169 0.0
C79 C 0.07453 0.98518 0.29551 0.0
C80 C 0.06641 0.0223 0.27648 0.0
C81 C 0.03433 0.05916 0.28693 0.0
C82 C 1.00992 0.05841 0.31563 0.0
C83 C 0.01733 0.02026 0.33409 0.0
C84 C 0.04939 0.9847 0.32387 0.0
C85 C 0.05224 0.94653 0.34608 0.0
C86 C 0.01582 0.96459 0.37126 0.0
C87 C 0.99571 0.0078 0.36427 0.0
C88 C 0.11639 0.9481 0.35518 0.0
C89 C 0.02395 0.89728 0.33186 0.0
C90 C 0.87646 0.12049 0.42112 0.0
C91 C 0.84713 0.11891 0.44862 0.0
C92 C 0.84746 0.07761 0.46574 0.0
C93 C 0.8785 0.03961 0.45599 0.0
C94 C 0.90947 0.04282 0.42891 0.0
C95 C 0.90658 0.08237 0.41169 0.0
C96 C 0.93738 0.07849 0.38238 0.0
C97 C 0.96097 0.03086 0.38504 0.0
C98 C 0.94562 0.01003 0.41255 0.0
C99 C 0.98625 0.12178 0.3811 0.0
C100 C 0.89227 0.07594 0.357 0.0
H101 H 0.07024 0.86553 0.37878 0.0
H102 H 1.00097 0.86438 0.48375 0.0
H103 H 0.86643 0.93682 0.45044 0.0
H104 H 0.89404 0.89281 0.47299 0.0
H105 H 0.88853 0.88414 0.43322 0.0
H106 H 0.0319 0.97767 0.4747 0.0
H107 H 0.97401 0.94795 0.49668 0.0
H108 H 0.96682 1.00305 0.47858 0.0
H109 H 0.09955 0.95664 0.28844 0.0
H110 H 0.02668 0.08793 0.27263 0.0
H111 H 0.98566 0.08725 0.32216 0.0
H112 H 0.13962 0.98564 0.35482 0.0
H113 H 0.13933 0.92499 0.33963 0.0
H114 H 0.12178 0.93724 0.37825 0.0
H115 H 0.98989 0.90246 0.3156 0.0
H116 H 1.00123 0.8732 0.3484 0.0
H117 H 0.05628 0.87793 0.31973 0.0
H118 H 0.09674 0.8061 0.4108 0.0
C119 C 0.05384 0.86646 0.40114 0.0
C120 C 0.05649 0.16806 0.54793 0.0
C121 C 0.09047 0.20764 0.56241 0.0
C122 C 0.087 0.21423 0.59362 0.0
C123 C 0.01918 0.14106 0.59602 0.0
C124 C 0.02039 0.13556 0.56522 0.0
C125 C 0.97906 0.09236 0.55402 0.0
H126 H 0.81775 0.88016 0.58583 0.0
C127 C 0.98011 0.10024 0.6077 0.0
C128 C 0.95557 0.07174 0.58329 0.0
H129 H 0.8374 0.94513 0.50034 0.0
H130 H 0.89447 0.01661 0.52303 0.0
H131 H 0.9454 0.91924 0.61474 0.0
H132 H 0.78036 0.97086 0.61629 0.0
H133 H 0.81352 0.99351 0.64991 0.0
H134 H 0.79774 0.92874 0.64273 0.0
H135 H 0.88133 0.88911 0.63172 0.0
H136 H 0.92815 0.93537 0.65192 0.0
C137 C 1.01388 0.05702 0.53649 0.0
C138 C 0.93147 0.11061 0.53539 0.0
C139 C 0.97726 0.07375 0.71897 0.0
C140 C 0.94853 0.03725 0.73631 0.0
C141 C 0.90894 1.00055 0.72267 0.0
C142 C 0.8999 0.99909 0.69182 0.0
C143 C 0.93064 0.03479 0.67452 0.0
C144 C 0.96733 0.07202 0.68823 0.0
C145 C 0.99477 0.10765 0.66644 0.0
C146 C 0.96914 0.08514 0.63725 0.0
C147 C 0.93256 0.0421 0.64215 0.0
C148 C 0.06093 0.10735 0.6677 0.0
C149 C 0.97488 0.15768 0.67424 0.0
C150 C 0.83516 0.90945 0.5719 0.0
C151 C 0.82651 0.90592 0.54092 0.0
C152 C 0.84643 0.94611 0.52389 0.0
C153 C 0.8786 0.98768 0.53713 0.0
C154 C 0.88867 0.98983 0.56799 0.0
C155 C 0.86501 0.95189 0.58494 0.0
C156 C 0.8735 0.96281 0.61776 0.0
C157 C 0.90823 0.01283 0.61765 0.0
C158 C 0.9184 0.02807 0.5884 0.0
C159 C 0.90869 0.92467 0.62994 0.0
C160 C 0.8134 0.9638 0.63264 0.0
H161 H 0.05154 0.18804 0.63416 0.0
H162 H 0.05764 0.16292 0.52386 0.0
H163 H 0.8885 0.08963 0.5389 0.0
H164 H 0.94213 0.10955 0.51119 0.0
H165 H 0.92583 0.14864 0.54205 0.0
H166 H 0.0529 0.05143 0.54919 0.0
H167 H 0.02824 0.07138 0.51454 0.0
H168 H 0.98901 0.02089 0.53267 0.0
H169 H 1.00723 0.10278 0.7291 0.0
H170 H 0.88647 0.97208 0.73575 0.0
H171 H 0.87032 0.9696 0.6826 0.0
H172 H 0.07127 0.06959 0.6685 0.0
H173 H 0.07952 0.12785 0.68795 0.0
H174 H 0.08408 0.12237 0.64799 0.0
H175 H 0.93316 0.15391 0.68662 0.0
H176 H 0.96646 0.17718 0.65409 0.0
H177 H 1.00705 0.18099 0.68841 0.0
H178 H 0.11269 0.24467 0.60507 0.0
C179 C 0.05163 0.18124 0.61046 0.0
C180 C 0.62292 0.36523 0.94868 0.0
C181 C 0.66271 0.33623 0.93607 0.0
C182 C 0.68202 0.34375 0.90659 0.0
C183 C 0.62421 0.409 0.90298 0.0
C184 C 0.604 0.40122 0.93162 0.0
C185 C 0.56145 0.43537 0.94095 0.0
H186 H 0.45614 0.64636 0.91446 0.0
C187 C 0.59962 0.45084 0.89195 0.0
C188 C 0.56414 0.46791 0.91443 0.0
H189 H 0.41379 0.55601 -0.01071 0.0
H190 H 0.47107 0.49611 0.96747 0.0
H191 H 0.59021 0.63129 0.9036 0.0
H192 H 0.42776 0.56283 0.86935 0.0
H193 H 0.47708 0.55311 0.84076 0.0
H194 H 0.4662 0.61428 0.85209 0.0
H195 H 0.54357 0.65916 0.88008 0.0
H196 H 0.59649 0.62385 0.86445 0.0
C197 C 0.58245 0.46297 0.97031 0.0
C198 C 0.5017 0.40469 0.94312 0.0
C199 C 0.63887 0.49836 0.78518 0.0
C200 C 0.61941 0.53401 0.76811 0.0
C201 C 0.59054 0.56987 0.78265 0.0
C202 C 0.57851 0.56865 0.81324 0.0
C203 C 0.59471 0.53084 0.82952 0.0
C204 C 0.62566 0.49725 0.81567 0.0
C205 C 0.63875 0.45941 0.83648 0.0
C206 C 0.60738 0.47424 0.86453 0.0
C207 C 0.58194 0.51609 0.86033 0.0
C208 C 0.7051 0.46503 0.84091 0.0
C209 C 0.61184 0.4091 0.82333 0.0
C210 C 0.46016 0.61412 0.92651 0.0
C211 C 0.43269 0.60677 0.95418 0.0
C212 C 0.43603 0.56303 0.96832 0.0
C213 C 0.46951 0.5286 0.95579 0.0
C214 C 0.49918 0.53779 0.92873 0.0
C215 C 0.49205 0.5792 0.91409 0.0
C216 C 0.51927 0.58036 0.88369 0.0
C217 C 0.54747 0.53449 0.88317 0.0
C218 C 0.53689 0.50987 0.90981 0.0
C219 C 0.56465 0.62615 0.88263 0.0
C220 C 0.47047 0.57781 0.86014 0.0
H221 H 0.68035 0.38404 0.86798 0.0
H222 H 0.60707 0.36003 0.97123 0.0
H223 H 0.46615 0.42696 0.94485 0.0
H224 H 0.5 0.38074 0.96234 0.0
H225 H 0.49281 0.38091 0.92263 0.0
H226 H 0.6298 0.47455 0.96945 0.0
H227 H 0.57325 0.43956 -0.01034 0.0
H228 H 0.56299 0.49646 0.97462 0.0
H229 H 0.6621 0.47082 0.77487 0.0
H230 H 0.57452 0.59763 0.77018 0.0
H231 H 0.55553 0.59642 0.8228 0.0
H232 H 0.72592 0.50225 0.83625 0.0
H233 H 0.72532 0.43939 0.8258 0.0
H234 H 0.71713 0.45982 0.86425 0.0
H235 H 0.56856 0.41116 0.81376 0.0
H236 H 0.6044 0.38123 0.84017 0.0
H237 H 0.63929 0.39594 0.8052 0.0
H238 H 0.71324 0.32249 0.8965 0.0
C239 C 0.66329 0.37997 0.89011 0.0
C240 C 0.64329 0.65663 0.05123 0.0
C241 C 0.66866 0.69984 0.06595 0.0
C242 C 0.65107 0.71116 0.09526 0.0
C243 C 0.58537 0.63645 0.09536 0.0
C244 C 0.60131 0.62564 0.06628 0.0
C245 C 0.56756 0.57911 0.05395 0.0
H246 H 0.39912 0.3687 0.08309 0.0
C247 C 0.5433 0.59618 0.10537 0.0
C248 C 0.53276 0.56215 0.08133 0.0
H249 H 0.44916 0.42176 -0.00327 0.0
H250 H 0.49819 0.49653 0.01995 0.0
H251 H 0.51244 0.41318 0.12203 0.0
H252 H 0.35173 0.46186 0.10119 0.0
H253 H 0.36834 0.48608 0.13723 0.0
H254 H 0.35739 0.42113 0.13052 0.0
H255 H 0.44437 0.3883 0.13746 0.0
H256 H 0.4878 0.43999 0.1551 0.0
C257 C 0.61022 0.54367 0.04396 0.0
C258 C 0.52828 0.59123 0.02845 0.0
C259 C 0.47252 0.59574 0.21314 0.0
C260 C 0.4412 0.55957 0.23008 0.0
C261 C 0.42144 0.51425 0.21583 0.0
C262 C 0.43235 0.50513 0.1856 0.0
C263 C 0.46415 0.54129 0.16921 0.0
C264 C 0.48411 0.58555 0.18297 0.0
C265 C 0.52103 0.61806 0.16238 0.0
C266 C 0.51788 0.58644 0.13375 0.0
C267 C 0.48418 0.54182 0.138 0.0
C268 C 0.58304 0.62771 0.17535 0.0
C269 C 0.49208 0.66426 0.15875 0.0
C270 C 0.42202 0.39586 0.0692 0.0
C271 C 0.42362 0.3884 0.03812 0.0
C272 C 0.4503 0.42591 0.02068 0.0
C273 C 0.47794 0.46925 0.03413 0.0
C274 C 0.47683 0.47574 0.06531 0.0
C275 C 0.4473 0.44004 0.08215 0.0
C276 C 0.44177 0.4562 0.11423 0.0
C277 C 0.47417 0.50704 0.11403 0.0
C278 C 0.49646 0.51779 0.08558 0.0
C279 C 0.47273 0.42268 0.13344 0.0
C280 C 0.37663 0.45613 0.12146 0.0
H281 H 0.59855 0.6904 0.13236 0.0
H282 H 0.65524 0.64766 0.02846 0.0
H283 H 0.48421 0.57127 0.03009 0.0
H284 H 0.54674 0.58306 0.00617 0.0
H285 H 0.52206 0.63016 0.02937 0.0
H286 H 0.64064 0.53965 0.06231 0.0
H287 H 0.63592 0.55718 0.02436 0.0
H288 H 0.5883 0.50709 0.03777 0.0
H289 H 0.48863 0.63098 0.2231 0.0
H290 H 0.39908 0.48486 0.22817 0.0
H291 H 0.4165 0.46977 0.17638 0.0
H292 H 0.59201 0.59819 0.18982 0.0
H293 H 0.58969 0.66214 0.18909 0.0
H294 H 0.61677 0.62858 0.15786 0.0
H295 H 0.44457 0.65479 0.15626 0.0
H296 H 0.50664 0.68372 0.13855 0.0
H297 H 0.50004 0.68956 0.17858 0.0
H298 H 0.67012 0.74419 0.10701 0.0
C299 C 0.60974 0.67977 0.11002 0.0
H300 H 0.27476 0.08899 0.00828 0.0
H301 H 0.34171 0.37673 -0.00567 0.0
H302 H 0.14646 0.17899 0.98574 0.0
H303 H 0.43777 0.29622 0.0513 0.0
H304 H 0.28251 0.30065 0.97808 0.0
H305 H 0.3472 0.16152 0.01142 0.0
C306 C 0.26209 0.12384 0.00349 0.0
C307 C 0.20448 0.12817 -0.00291 0.0
C308 C 0.31716 0.29965 -0.00621 0.0
C309 C 0.28683 0.21076 0.00035 0.0
C310 C 0.35107 0.34288 0.00288 0.0
C311 C 0.39413 0.34257 0.02436 0.0
C312 C 0.32707 0.25591 0.00598 0.0
C313 C 0.40445 0.29787 0.03493 0.0
C314 C 0.3033 0.16513 0.0054 0.0
C315 C 0.1903 0.17418 -0.00888 0.0
N316 N 0.37094 0.2563 0.02576 0.0
N317 N 0.23113 0.21371 -0.00701 0.0
H318 H 0.33694 0.88999 0.98372 0.0
H319 H 0.31954 0.60094 0.97331 0.0
H320 H 0.17618 0.79623 -0.00832 0.0
H321 H 0.47519 0.70124 0.96476 0.0
H322 H 0.26682 0.66964 -0.0127 0.0
H323 H 0.38876 0.81982 0.98432 0.0
C324 C 0.31268 0.8544 0.98595 0.0
C325 C 0.25232 0.84875 -0.01259 0.0
C326 C 0.31268 0.67646 0.9828 0.0
C327 C 0.31125 0.76752 -0.01246 0.0
C328 C 0.34275 0.63729 0.975 0.0
C329 C 0.40161 0.64562 0.96761 0.0
C330 C 0.34195 0.72404 0.98332 0.0
C331 C 0.42968 0.69333 0.96994 0.0
C332 C 0.34219 0.81423 0.98626 0.0
C333 C 0.22281 0.80194 -0.00944 0.0
N334 N 0.39961 0.73058 0.97734 0.0
N335 N 0.25252 0.76289 -0.00994 0.0
H336 H 0.99939 0.84502 0.00743 0.0
H337 H 0.66983 0.79659 0.06045 0.0
H338 H 0.88815 0.95571 0.02209 0.0
H339 H 0.76972 0.68026 0.03926 0.0
H340 H 0.74914 0.85448 0.04308 0.0
H341 H 0.91634 0.78307 0.01617 0.0
C342 C 0.95762 0.85629 0.01232 0.0
C343 C 0.95093 0.9057 0.0143 0.0
C344 C 0.75385 0.81631 0.04191 0.0
C345 C 0.85607 0.83528 0.0242 0.0
C346 C 0.70847 0.78329 0.05181 0.0
C347 C 0.7135 0.73374 0.05143 0.0
C348 C 0.80525 0.79989 0.03184 0.0
C349 C 0.76426 0.71827 0.03981 0.0
C350 C 0.91026 0.82095 0.01725 0.0
C351 C 0.89574 0.91819 0.02059 0.0
N352 N 0.80862 0.75134 0.03079 0.0
N353 N 0.85078 0.88335 0.02542 0.0
H354 H 0.84688 0.10092 0.98023 0.0
H355 H 0.7056 0.34755 -0.00708 0.0
H356 H 0.89752 0.21818 0.04494 0.0
H357 H 0.67774 0.2433 0.91873 0.0
H358 H 0.76186 0.29288 0.01768 0.0
H359 H 0.77245 0.14592 0.96227 0.0
C360 C 0.8426 0.13592 -0.00923 0.0
C361 C 0.8796 0.15571 0.01401 0.0
C362 C 0.74284 0.2817 -0.00386 0.0
C363 C 0.79337 0.20723 -0.00628 0.0
C364 C 0.71029 0.31271 0.98214 0.0
C365 C 0.68756 0.30015 0.9536 0.0
C366 C 0.75252 0.23777 0.98151 0.0
C367 C 0.69536 0.25469 0.94054 0.0
C368 C 0.79969 0.16152 0.98057 0.0
C369 C 0.87046 0.20096 0.0271 0.0
N370 N 0.72759 0.22535 0.95446 0.0
N371 N 0.82865 0.22518 0.01666 0.0
H372 H 0.68624 0.60564 0.50322 0.0
H373 H 0.73774 0.89589 0.50065 0.0
H374 H 0.55349 0.6932 0.48401 0.0
H375 H 0.8455 0.81298 0.54945 0.0
H376 H 0.68092 0.81999 0.48245 0.0
H377 H 0.75598 0.6799 0.50833 0.0
C378 C 0.67212 0.64034 0.49948 0.0
C379 C 0.61403 0.64346 0.49352 0.0
C380 C 0.71741 0.81846 0.49689 0.0
C381 C 0.69305 0.72802 0.49918 0.0
C382 C 0.74993 0.86169 0.50715 0.0
C383 C 0.79575 0.86063 0.52692 0.0
C384 C 0.73129 0.77392 0.50621 0.0
C385 C 0.80975 0.81532 0.53467 0.0
C386 C 0.71171 0.68263 0.50256 0.0
C387 C 0.59779 0.6893 0.489 0.0
N388 N 0.77746 0.77376 0.52444 0.0
N389 N 0.63698 0.72976 0.49206 0.0
H390 H 0.5898 0.31399 0.48891 0.0
H391 H 0.88969 0.21471 0.44886 0.0
H392 H 0.74404 0.40079 0.45876 0.0
H393 H 0.73637 0.11901 0.47111 0.0
H394 H 0.83815 0.28403 0.459 0.0
H395 H 0.6432 0.24322 0.48891 0.0
C396 C 0.63497 0.31828 0.4827 0.0
C397 C 0.66233 0.36322 0.47347 0.0
C398 C 0.81553 0.24801 0.46189 0.0
C399 C 0.72354 0.28281 0.47338 0.0
C400 C 0.84508 0.20831 0.45607 0.0
C401 C 0.81717 0.16088 0.45875 0.0
C402 C 0.75709 0.24071 0.47035 0.0
C403 C 0.75954 0.15496 0.46872 0.0
C404 C 0.66533 0.2779 0.48253 0.0
C405 C 0.72089 0.36673 0.4655 0.0
N406 N 0.73114 0.19438 0.47384 0.0
N407 N 0.74922 0.32727 0.46554 0.0
H408 H 0.41088 0.35901 0.49892 0.0
H409 H 0.08725 0.30405 0.55917 0.0
H410 H 0.30029 0.46816 0.52022 0.0
H411 H 0.18573 0.19058 0.52982 0.0
H412 H 0.16319 0.36417 0.5406 0.0
H413 H 0.32851 0.29607 0.50661 0.0
C414 C 0.36937 0.36975 0.50506 0.0
C415 C 0.36272 0.41896 0.50924 0.0
C416 C 0.16813 0.32615 0.53774 0.0
C417 C 0.26854 0.34738 0.5179 0.0
C418 C 0.12458 0.29191 0.5482 0.0
C419 C 0.13045 0.24255 0.54587 0.0
C420 C 0.21858 0.31103 0.52536 0.0
C421 C 0.17969 0.22844 0.53174 0.0
C422 C 0.32237 0.33385 0.50935 0.0
C423 C 0.30784 0.43077 0.51703 0.0
N424 N 0.22242 0.26263 0.52235 0.0
N425 N 0.2632 0.39535 0.52124 0.0
H426 H 0.31476 0.73123 0.55047 0.0
H427 H 0.04971 0.73297 0.44085 0.0
H428 H 0.24819 0.60894 0.49251 0.0
H429 H 0.1115 0.85225 0.50172 0.0
H430 H 0.11248 0.68269 0.46472 0.0
H431 H 0.23329 0.77173 0.53763 0.0
C432 C 0.28286 0.71239 0.53532 0.0
C433 C 0.28916 0.66637 0.52245 0.0
C434 C 0.1116 0.71953 0.47331 0.0
C435 C 0.19521 0.71353 0.50725 0.0
C436 C 0.07545 0.74812 0.45982 0.0
C437 C 0.07571 0.79688 0.46926 0.0
C438 C 0.1489 0.73999 0.4962 0.0
C439 C 0.10985 0.81478 0.49386 0.0
C440 C 0.23616 0.73584 0.5279 0.0
C441 C 0.24611 0.6446 0.50264 0.0
N442 N 0.14584 0.78659 0.50616 0.0
N443 N 0.20134 0.6685 0.4955 0.0
H444 H 0.12943 0.93612 0.09287 0.0
H445 H 0.11423 0.0986 0.24375 0.0
H446 H 0.1187 0.08959 0.09653 0.0
H447 H 0.06923 0.94298 0.2383 0.0
H448 H 0.14167 0.09601 0.19103 0.0
H449 H 0.13431 0.93873 0.14774 0.0
C450 C 0.12944 0.97044 0.10522 0.0
C451 C 0.12273 0.01255 0.09046 0.0
C452 C 0.12641 0.06241 0.20154 0.0
C453 C 0.12832 0.01589 0.15254 0.0
C454 C 0.11034 0.0639 0.23154 0.0
C455 C 0.0886 0.02106 0.2454 0.0
C456 C 0.12075 0.01779 0.18527 0.0
C457 C 0.086 0.97694 0.22864 0.0
C458 C 0.13187 0.9719 0.13641 0.0
C459 C 0.12281 0.05618 0.10727 0.0
N460 N 0.10136 0.97649 0.19938 0.0
N461 N 0.12507 0.05668 0.13744 0.0
H462 H 0.11406 0.99513 0.90189 0.0
H463 H 0.87354 0.02856 0.78348 0.0
H464 H 0.95475 0.0482 0.92767 0.0
H465 H 0.05461 0.04205 0.7612 0.0
H466 H 0.8982 0.02396 0.83631 0.0
H467 H 0.08842 0.9999 0.8494 0.0
C468 C 0.07363 0.0076 0.89648 0.0
C469 C 0.0365 0.02143 0.91905 0.0
C470 C 0.93243 0.02813 0.81981 0.0
C471 C 1.0069 0.02655 0.85937 0.0
C472 C 0.91841 0.03057 0.78981 0.0
C473 C 0.96223 0.03589 0.76821 0.0
C474 C 0.99049 0.03004 0.82799 0.0
C475 C 0.01973 0.03844 0.77734 0.0
C476 C 0.05921 0.01052 0.86661 0.0
C477 C 0.98471 0.03747 0.91089 0.0
N478 N 0.03225 0.03512 0.80658 0.0
N479 N 0.97122 0.03935 0.88164 0.0
H480 H 0.52838 0.59491 0.59424 0.0
H481 H 0.60634 0.45242 0.73086 0.0
H482 H 0.57632 0.45116 0.58108 0.0
H483 H 0.63968 0.60863 0.72975 0.0
H484 H 0.59511 0.44895 0.67673 0.0
H485 H 0.56516 0.59877 0.64497 0.0
C486 C 0.54648 0.56401 0.60212 0.0
C487 C 0.54868 0.52238 0.58365 0.0
C488 C 0.60592 0.48387 0.68833 0.0
C489 C 0.59103 0.52665 0.6417 0.0
C490 C 0.61271 0.48598 0.71925 0.0
C491 C 0.62309 0.53103 0.73504 0.0
C492 C 0.60854 0.52706 0.67324 0.0
C493 C 0.63008 0.57319 0.71867 0.0
C494 C 0.56808 0.56648 0.63096 0.0
C495 C 0.57361 0.48378 0.59478 0.0
N496 N 0.62165 0.57022 0.68872 0.0
N497 N 0.59315 0.48652 0.62338 0.0
H498 H 0.43043 0.46855 0.4046 0.0
H499 H 0.51323 0.61496 0.27049 0.0
H500 H 0.45389 0.62353 0.42133 0.0
H501 H 0.35043 0.52085 0.26506 0.0
H502 H 0.50543 0.61621 0.3248 0.0
H503 H 0.41429 0.4809 0.35155 0.0
C504 C 0.43157 0.50507 0.39704 0.0
C505 C 0.44322 0.54515 0.417 0.0
C506 C 0.47118 0.59599 0.31148 0.0
C507 C 0.42665 0.55933 0.35701 0.0
C508 C 0.47526 0.59536 0.28044 0.0
C509 C 0.43295 0.56694 0.26285 0.0
C510 C 0.42552 0.56703 0.32494 0.0
C511 C 0.38532 0.54177 0.2775 0.0
C512 C 0.42213 0.51204 0.36703 0.0
C513 C 0.44455 0.59186 0.4064 0.0
N514 N 0.38365 0.54133 0.30774 0.0
N515 N 0.43766 0.59784 0.3768 0.0
loop_
_geom_bond_atom_site_label_1
_geom_bond_atom_site_label_2
_geom_bond_distance
_geom_bond_site_symmetry_2
_ccdc_geom_bond_type
Co0 N5 2.057 . S
Co0 O17 2.021 . S
Co0 O20 2.062 1_455 S
Co0 O24 2.117 1_554 S
Co0 O25 2.020 1_565 S
C1 O21 1.259 1_455 S
C1 O24 1.258 1_545 S
Co2 N11 2.057 . S
Co2 O18 2.117 . S
Co2 O19 2.020 1_545 S
Co2 O21 2.021 1_554 S
Co2 O26 2.062 1_655 S
C3 N5 1.316 . S
C3 N6 1.347 . S
C3 H8 0.931 . S
C4 N5 1.375 1_556 S
C4 C7 1.350 . S
C4 H9 0.930 . S
N5 Co0 2.057 . S
N5 C3 1.316 . S
N5 C4 1.375 1_554 S
N6 C3 1.347 . S
N6 C7 1.373 1_554 S
C7 C4 1.350 . S
C7 N6 1.373 1_556 S
C7 H28 0.931 . S
H8 C3 0.931 . S
H9 C4 0.930 . S
C10 O17 1.259 1_545 S
C10 O18 1.258 1_455 S
N11 Co2 2.057 . S
N11 C12 1.316 . S
N11 C13 1.375 . S
C12 N11 1.316 . S
C12 N14 1.347 . S
C12 H23 0.931 1_554 S
C13 N11 1.375 . S
C13 C15 1.350 . S
C13 H22 0.930 . S
N14 C12 1.347 . S
N14 C15 1.373 . S
C15 C13 1.350 . S
C15 N14 1.373 . S
C15 H29 0.931 . S
C16 O19 1.256 . S
C16 O20 1.255 . S
O17 Co0 2.021 . S
O17 C10 1.259 1_565 S
O18 Co2 2.117 . S
O18 C10 1.258 1_655 S
O19 Co2 2.020 1_565 S
O19 C16 1.256 . S
O20 Co0 2.062 1_655 S
O20 C16 1.255 . S
O21 C1 1.259 1_655 S
O21 Co2 2.021 1_556 S
H22 C13 0.930 . S
H23 C12 0.931 1_556 S
O24 Co0 2.117 1_556 S
O24 C1 1.258 1_565 S
O25 Co0 2.020 1_545 S
O25 C27 1.256 . S
O26 Co2 2.062 1_455 S
O26 C27 1.255 . S
C27 O25 1.256 . S
C27 O26 1.255 . S
H28 C7 0.931 . S
H29 C15 0.931 . S
Co30 N35 2.057 . S
Co30 O47 2.021 . S
Co30 O50 2.062 . S
Co30 O54 2.117 . S
Co30 O55 2.020 . S
C31 O51 1.259 . S
C31 O54 1.258 . S
Co32 N41 2.057 . S
Co32 O48 2.117 . S
Co32 O49 2.020 . S
Co32 O51 2.021 . S
Co32 O56 2.062 . S
C33 N35 1.316 . S
C33 N36 1.347 . S
C33 H38 0.931 . S
C34 N35 1.375 . S
C34 C37 1.350 . S
C34 H39 0.930 . S
N35 Co30 2.057 . S
N35 C33 1.316 . S
N35 C34 1.375 . S
N36 C33 1.347 . S
N36 C37 1.373 . S
C37 C34 1.350 . S
C37 N36 1.373 . S
C37 H58 0.931 . S
H38 C33 0.931 . S
H39 C34 0.930 . S
C40 O47 1.259 . S
C40 O48 1.258 . S
N41 Co32 2.057 . S
N41 C42 1.316 . S
N41 C43 1.375 . S
C42 N41 1.316 . S
C42 N44 1.347 . S
C42 H53 0.931 . S
C43 N41 1.375 . S
C43 C45 1.350 . S
C43 H52 0.930 . S
N44 C42 1.347 . S
N44 C45 1.373 . S
C45 C43 1.350 . S
C45 N44 1.373 . S
C45 H59 0.931 . S
C46 O49 1.256 . S
C46 O50 1.255 . S
O47 Co30 2.021 . S
O47 C40 1.259 . S
O48 Co32 2.117 . S
O48 C40 1.258 . S
O49 Co32 2.020 . S
O49 C46 1.256 . S
O50 Co30 2.062 . S
O50 C46 1.255 . S
O51 C31 1.259 . S
O51 Co32 2.021 . S
H52 C43 0.930 . S
H53 C42 0.931 . S
O54 Co30 2.117 . S
O54 C31 1.258 . S
O55 Co30 2.020 . S
O55 C57 1.256 . S
O56 Co32 2.062 . S
O56 C57 1.255 . S
C57 O55 1.256 . S
C57 O56 1.255 . S
H58 C37 0.931 . S
H59 C45 0.931 . S
C60 C61 1.391 . S
C60 C64 1.391 . S
C60 H102 0.948 . S
C61 C60 1.391 . S
C61 C62 1.391 . S
C62 C61 1.391 . S
C62 H118 0.947 . S
C62 C119 1.392 . S
C63 C64 1.391 . S
C63 C67 1.397 . S
C63 C119 1.419 . S
C64 C60 1.391 . S
C64 C63 1.391 . S
C64 C65 1.399 . S
C65 C64 1.399 . S
C65 C68 1.396 . S
C65 C77 1.453 1_565 S
C65 C78 1.684 1_455 S
H66 C90 0.948 . S
C67 C63 1.397 . S
C67 C68 1.394 . S
C67 C86 1.723 . S
C68 C65 1.396 . S
C68 C67 1.394 . S
C68 C98 1.723 1_465 S
H69 C92 0.947 . S
H70 C93 0.948 . S
H71 C99 0.982 . S
H72 C100 0.979 . S
H73 C100 0.980 . S
H74 C100 0.983 . S
H75 C99 0.979 . S
H76 C99 0.977 . S
C77 C65 1.453 1_545 S
C77 H106 0.982 . S
C77 H107 0.979 1_545 S
C77 H108 0.977 . S
C78 C65 1.684 1_655 S
C78 H103 0.979 . S
C78 H104 0.980 . S
C78 H105 0.983 . S
C79 C80 1.391 1_465 S
C79 C84 1.391 . S
C79 H109 0.948 . S
C80 C79 1.391 1_645 S
C80 C81 1.391 . S
C81 C80 1.391 . S
C81 C82 1.392 . S
C81 H110 0.947 . S
C82 C81 1.392 . S
C82 C83 1.419 . S
C82 H111 0.948 . S
C83 C82 1.419 . S
C83 C84 1.391 1_645 S
C83 C87 1.397 . S
C84 C79 1.391 . S
C84 C83 1.391 1_465 S
C84 C85 1.399 . S
C85 C84 1.399 . S
C85 C86 1.396 . S
C85 C88 1.453 . S
C85 C89 1.684 . S
C86 C67 1.723 . S
C86 C85 1.396 . S
C86 C87 1.394 1_465 S
C87 C83 1.397 . S
C87 C86 1.394 1_645 S
C87 C97 1.723 . S
C88 C85 1.453 . S
C88 H112 0.982 . S
C88 H113 0.979 . S
C88 H114 0.977 . S
C89 C85 1.684 . S
C89 H115 0.980 1_455 S
C89 H116 0.980 . S
C89 H117 0.983 . S
C90 H66 0.948 . S
C90 C91 1.391 . S
C90 C95 1.391 . S
C91 C90 1.391 . S
C91 C92 1.391 . S
C92 H69 0.947 . S
C92 C91 1.391 . S
C92 C93 1.392 . S
C93 H70 0.948 . S
C93 C92 1.392 . S
C93 C94 1.419 . S
C94 C93 1.419 . S
C94 C95 1.391 . S
C94 C98 1.397 . S
C95 C90 1.391 . S
C95 C94 1.391 . S
C95 C96 1.399 . S
C96 C95 1.399 . S
C96 C97 1.396 . S
C96 C99 1.453 . S
C96 C100 1.684 . S
C97 C87 1.723 . S
C97 C96 1.396 . S
C97 C98 1.394 . S
C98 C68 1.723 1_645 S
C98 C94 1.397 . S
C98 C97 1.394 . S
C99 H71 0.982 . S
C99 H75 0.979 . S
C99 H76 0.977 . S
C99 C96 1.453 . S
C100 H72 0.979 . S
C100 H73 0.980 . S
C100 H74 0.983 . S
C100 C96 1.684 . S
H101 C119 0.948 . S
H102 C60 0.948 . S
H103 C78 0.979 . S
H104 C78 0.980 . S
H105 C78 0.983 . S
H106 C77 0.982 . S
H107 C77 0.979 1_565 S
H108 C77 0.977 . S
H109 C79 0.948 . S
H110 C81 0.947 . S
H111 C82 0.948 . S
H112 C88 0.982 . S
H113 C88 0.979 . S
H114 C88 0.977 . S
H115 C89 0.980 1_655 S
H116 C89 0.980 . S
H117 C89 0.983 . S
H118 C62 0.947 . S
C119 C62 1.392 . S
C119 C63 1.419 . S
C119 H101 0.948 . S
C120 C121 1.391 . S
C120 C124 1.391 . S
C120 H162 0.948 . S
C121 C120 1.391 . S
C121 C122 1.391 . S
C122 C121 1.391 . S
C122 H178 0.947 . S
C122 C179 1.392 . S
C123 C124 1.391 . S
C123 C127 1.397 . S
C123 C179 1.419 . S
C124 C120 1.391 . S
C124 C123 1.391 . S
C124 C125 1.399 . S
C125 C124 1.399 . S
C125 C128 1.396 . S
C125 C137 1.453 . S
C125 C138 1.684 1_455 S
H126 C150 0.948 . S
C127 C123 1.397 . S
C127 C128 1.394 . S
C127 C146 1.723 . S
C128 C125 1.396 . S
C128 C127 1.394 . S
C128 C158 1.723 1_445 S
H129 C152 0.947 . S
H130 C153 0.948 . S
H131 C159 0.982 . S
H132 C160 0.979 . S
H133 C160 0.980 . S
H134 C160 0.983 . S
H135 C159 0.979 . S
H136 C159 0.977 . S
C137 C125 1.453 . S
C137 H166 0.982 . S
C137 H167 0.979 . S
C137 H168 0.977 1_545 S
C138 C125 1.684 1_655 S
C138 H163 0.979 . S
C138 H164 0.980 . S
C138 H165 0.983 1_655 S
C139 C140 1.391 1_455 S
C139 C144 1.391 . S
C139 H169 0.948 . S
C140 C139 1.391 1_655 S
C140 C141 1.391 1_545 S
C141 C140 1.391 1_565 S
C141 C142 1.392 . S
C141 H170 0.947 . S
C142 C141 1.392 . S
C142 C143 1.419 1_565 S
C142 H171 0.948 . S
C143 C142 1.419 1_545 S
C143 C144 1.391 1_655 S
C143 C147 1.397 . S
C144 C139 1.391 . S
C144 C143 1.391 1_455 S
C144 C145 1.399 . S
C145 C144 1.399 . S
C145 C146 1.396 . S
C145 C148 1.453 . S
C145 C149 1.684 . S
C146 C127 1.723 . S
C146 C145 1.396 . S
C146 C147 1.394 1_455 S
C147 C143 1.397 . S
C147 C146 1.394 1_655 S
C147 C157 1.723 1_545 S
C148 C145 1.453 . S
C148 H172 0.982 . S
C148 H173 0.979 . S
C148 H174 0.977 . S
C149 C145 1.684 . S
C149 H175 0.979 . S
C149 H176 0.980 . S
C149 H177 0.983 . S
C150 H126 0.948 . S
C150 C151 1.391 . S
C150 C155 1.391 . S
C151 C150 1.391 . S
C151 C152 1.391 . S
C152 H129 0.947 . S
C152 C151 1.391 . S
C152 C153 1.392 . S
C153 H130 0.948 . S
C153 C152 1.392 . S
C153 C154 1.419 . S
C154 C153 1.419 . S
C154 C155 1.391 . S
C154 C158 1.397 . S
C155 C150 1.391 . S
C155 C154 1.391 . S
C155 C156 1.399 . S
C156 C155 1.399 . S
C156 C157 1.396 . S
C156 C159 1.453 . S
C156 C160 1.684 . S
C157 C147 1.723 1_565 S
C157 C156 1.396 . S
C157 C158 1.394 . S
C158 C128 1.723 1_665 S
C158 C154 1.397 . S
C158 C157 1.394 . S
C159 H131 0.982 . S
C159 H135 0.979 . S
C159 H136 0.977 . S
C159 C156 1.453 . S
C160 H132 0.979 . S
C160 H133 0.980 . S
C160 H134 0.983 . S
C160 C156 1.684 . S
H161 C179 0.948 . S
H162 C120 0.948 . S
H163 C138 0.979 . S
H164 C138 0.980 . S
H165 C138 0.983 1_455 S
H166 C137 0.982 . S
H167 C137 0.979 . S
H168 C137 0.977 1_565 S
H169 C139 0.948 . S
H170 C141 0.947 . S
H171 C142 0.948 . S
H172 C148 0.982 . S
H173 C148 0.979 . S
H174 C148 0.977 . S
H175 C149 0.979 . S
H176 C149 0.980 . S
H177 C149 0.983 . S
H178 C122 0.947 . S
C179 C122 1.392 . S
C179 C123 1.419 . S
C179 H161 0.948 . S
C180 C181 1.391 . S
C180 C184 1.391 . S
C180 H222 0.948 1_556 S
C181 C180 1.391 . S
C181 C182 1.391 . S
C182 C181 1.391 . S
C182 H238 0.947 . S
C182 C239 1.392 . S
C183 C184 1.391 . S
C183 C187 1.397 . S
C183 C239 1.419 . S
C184 C180 1.391 . S
C184 C183 1.391 . S
C184 C185 1.399 . S
C185 C184 1.399 . S
C185 C188 1.396 . S
C185 C197 1.453 1_556 S
C185 C198 1.684 1_556 S
H186 C210 0.948 . S
C187 C183 1.397 . S
C187 C188 1.394 . S
C187 C206 1.723 . S
C188 C185 1.396 . S
C188 C187 1.394 . S
C188 C218 1.723 . S
H189 C212 0.947 . S
H190 C213 0.948 1_554 S
H191 C219 0.982 . S
H192 C220 0.979 . S
H193 C220 0.980 . S
H194 C220 0.983 . S
H195 C219 0.979 . S
H196 C219 0.977 . S
C197 C185 1.453 1_554 S
C197 H226 0.982 1_554 S
C197 H227 0.979 . S
C197 H228 0.977 . S
C198 C185 1.684 1_554 S
C198 H223 0.979 . S
C198 H224 0.980 . S
C198 H225 0.983 . S
C199 C200 1.391 . S
C199 C204 1.391 . S
C199 H229 0.948 . S
C200 C199 1.391 . S
C200 C201 1.391 . S
C201 C200 1.391 . S
C201 C202 1.392 . S
C201 H230 0.947 . S
C202 C201 1.392 . S
C202 C203 1.419 . S
C202 H231 0.948 . S
C203 C202 1.419 . S
C203 C204 1.391 . S
C203 C207 1.397 . S
C204 C199 1.391 . S
C204 C203 1.391 . S
C204 C205 1.399 . S
C205 C204 1.399 . S
C205 C206 1.396 . S
C205 C208 1.453 . S
C205 C209 1.684 . S
C206 C187 1.723 . S
C206 C205 1.396 . S
C206 C207 1.394 . S
C207 C203 1.397 . S
C207 C206 1.394 . S
C207 C217 1.723 . S
C208 C205 1.453 . S
C208 H232 0.982 . S
C208 H233 0.979 . S
C208 H234 0.977 . S
C209 C205 1.684 . S
C209 H235 0.979 . S
C209 H236 0.980 . S
C209 H237 0.983 . S
C210 H186 0.948 . S
C210 C211 1.391 . S
C210 C215 1.391 . S
C211 C210 1.391 . S
C211 C212 1.391 1_556 S
C212 H189 0.947 . S
C212 C211 1.391 1_554 S
C212 C213 1.392 1_554 S
C213 H190 0.948 1_556 S
C213 C212 1.392 1_556 S
C213 C214 1.419 . S
C214 C213 1.419 . S
C214 C215 1.391 . S
C214 C218 1.397 . S
C215 C210 1.391 . S
C215 C214 1.391 . S
C215 C216 1.399 . S
C216 C215 1.399 . S
C216 C217 1.396 . S
C216 C219 1.453 . S
C216 C220 1.684 . S
C217 C207 1.723 . S
C217 C216 1.396 . S
C217 C218 1.394 . S
C218 C188 1.723 . S
C218 C214 1.397 . S
C218 C217 1.394 . S
C219 H191 0.982 . S
C219 H195 0.979 . S
C219 H196 0.977 . S
C219 C216 1.453 . S
C220 H192 0.979 . S
C220 H193 0.980 . S
C220 H194 0.983 . S
C220 C216 1.684 . S
H221 C239 0.948 . S
H222 C180 0.948 1_554 S
H223 C198 0.979 . S
H224 C198 0.980 . S
H225 C198 0.983 . S
H226 C197 0.982 1_556 S
H227 C197 0.979 . S
H228 C197 0.977 . S
H229 C199 0.948 . S
H230 C201 0.947 . S
H231 C202 0.948 . S
H232 C208 0.982 . S
H233 C208 0.979 . S
H234 C208 0.977 . S
H235 C209 0.979 . S
H236 C209 0.980 . S
H237 C209 0.983 . S
H238 C182 0.947 . S
C239 C182 1.392 . S
C239 C183 1.419 . S
C239 H221 0.948 . S
C240 C241 1.391 . S
C240 C244 1.391 . S
C240 H282 0.948 . S
C241 C240 1.391 . S
C241 C242 1.391 . S
C242 C241 1.391 . S
C242 H298 0.947 . S
C242 C299 1.392 . S
C243 C244 1.391 . S
C243 C247 1.397 . S
C243 C299 1.419 . S
C244 C240 1.391 . S
C244 C243 1.391 . S
C244 C245 1.399 . S
C245 C244 1.399 . S
C245 C248 1.396 . S
C245 C257 1.453 . S
C245 C258 1.684 . S
H246 C270 0.948 . S
C247 C243 1.397 . S
C247 C248 1.394 . S
C247 C266 1.723 . S
C248 C245 1.396 . S
C248 C247 1.394 . S
C248 C278 1.723 . S
H249 C272 0.947 1_556 S
H250 C273 0.948 . S
H251 C279 0.982 . S
H252 C280 0.979 . S
H253 C280 0.980 . S
H254 C280 0.983 . S
H255 C279 0.979 . S
H256 C279 0.977 . S
C257 C245 1.453 . S
C257 H286 0.982 . S
C257 H287 0.963 1_554 S
C257 H288 0.977 . S
C258 C245 1.684 . S
C258 H283 0.979 . S
C258 H284 0.980 . S
C258 H285 0.983 1_554 S
C259 C260 1.391 . S
C259 C264 1.391 . S
C259 H289 0.948 . S
C260 C259 1.391 . S
C260 C261 1.391 . S
C261 C260 1.391 . S
C261 C262 1.392 . S
C261 H290 0.947 . S
C262 C261 1.392 . S
C262 C263 1.419 . S
C262 H291 0.948 . S
C263 C262 1.419 . S
C263 C264 1.391 . S
C263 C267 1.397 . S
C264 C259 1.391 . S
C264 C263 1.391 . S
C264 C265 1.399 . S
C265 C264 1.399 . S
C265 C266 1.396 . S
C265 C268 1.453 . S
C265 C269 1.684 . S
C266 C247 1.723 . S
C266 C265 1.396 . S
C266 C267 1.394 . S
C267 C263 1.397 . S
C267 C266 1.394 . S
C267 C277 1.723 . S
C268 C265 1.453 . S
C268 H292 0.982 . S
C268 H293 0.979 . S
C268 H294 0.977 . S
C269 C265 1.684 . S
C269 H295 0.979 . S
C269 H296 0.980 . S
C269 H297 0.983 . S
C270 H246 0.948 . S
C270 C271 1.391 . S
C270 C275 1.391 . S
C271 C270 1.391 . S
C271 C272 1.391 . S
C272 H249 0.947 1_554 S
C272 C271 1.391 . S
C272 C273 1.392 . S
C273 H250 0.948 . S
C273 C272 1.392 . S
C273 C274 1.419 . S
C274 C273 1.419 . S
C274 C275 1.391 . S
C274 C278 1.397 . S
C275 C270 1.391 . S
C275 C274 1.391 . S
C275 C276 1.399 . S
C276 C275 1.399 . S
C276 C277 1.396 . S
C276 C279 1.453 . S
C276 C280 1.684 . S
C277 C267 1.723 . S
C277 C276 1.396 . S
C277 C278 1.394 . S
C278 C248 1.723 . S
C278 C274 1.397 . S
C278 C277 1.394 . S
C279 H251 0.982 . S
C279 H255 0.979 . S
C279 H256 0.977 . S
C279 C276 1.453 . S
C280 H252 0.979 . S
C280 H253 0.980 . S
C280 H254 0.983 . S
C280 C276 1.684 . S
H281 C299 0.948 . S
H282 C240 0.948 . S
H283 C258 0.979 . S
H284 C258 0.980 . S
H285 C258 0.983 1_556 S
H286 C257 0.982 . S
H287 C257 0.963 1_556 S
H288 C257 0.977 . S
H289 C259 0.948 . S
H290 C261 0.947 . S
H291 C262 0.948 . S
H292 C268 0.982 . S
H293 C268 0.979 . S
H294 C268 0.977 . S
H295 C269 0.979 . S
H296 C269 0.980 . S
H297 C269 0.983 . S
H298 C242 0.947 . S
C299 C242 1.392 . S
C299 C243 1.419 . S
C299 H281 0.948 . S
H300 C306 0.930 . S
H301 C310 0.930 1_556 S
H302 C315 0.949 . S
H303 C313 0.929 . S
H304 C308 0.929 1_556 S
H305 C314 0.929 . S
C306 H300 0.930 . S
C306 C307 1.367 . S
C306 C314 1.378 . S
C307 C306 1.367 . S
C307 C315 1.414 1_554 S
C308 H304 0.929 1_554 S
C308 C310 1.378 . S
C308 C312 1.350 . S
C309 C312 1.463 . S
C309 C314 1.350 . S
C309 N317 1.427 . S
C310 H301 0.930 1_554 S
C310 C308 1.378 . S
C310 C311 1.367 . S
C311 C310 1.367 . S
C311 C313 1.433 . S
C312 C308 1.350 . S
C312 C309 1.463 . S
C312 N316 1.427 . S
C313 H303 0.929 . S
C313 C311 1.433 . S
C313 N316 1.384 . S
C314 H305 0.929 . S
C314 C306 1.378 . S
C314 C309 1.350 . S
C315 H302 0.949 . S
C315 C307 1.414 1_556 S
C315 N317 1.383 1_556 S
N316 C312 1.427 . S
N316 C313 1.384 . S
N317 C309 1.427 . S
N317 C315 1.383 1_554 S
H318 C324 0.930 . S
H319 C328 0.930 . S
H320 C333 0.929 . S
H321 C331 0.929 . S
H322 C326 0.929 . S
H323 C332 0.929 . S
C324 H318 0.930 . S
C324 C325 1.367 . S
C324 C332 1.378 . S
C325 C324 1.367 . S
C325 C333 1.433 1_554 S
C326 H322 0.929 . S
C326 C328 1.378 . S
C326 C330 1.350 1_556 S
C327 C330 1.463 . S
C327 C332 1.350 . S
C327 N335 1.427 1_554 S
C328 H319 0.930 . S
C328 C326 1.378 . S
C328 C329 1.379 . S
C329 C328 1.379 . S
C329 C331 1.419 1_556 S
C330 C326 1.350 1_554 S
C330 C327 1.463 . S
C330 N334 1.427 . S
C331 H321 0.929 . S
C331 C329 1.419 1_554 S
C331 N334 1.384 . S
C332 H323 0.929 . S
C332 C324 1.378 . S
C332 C327 1.350 . S
C333 H320 0.929 . S
C333 C325 1.433 1_556 S
C333 N335 1.384 . S
N334 C330 1.427 . S
N334 C331 1.384 . S
N335 C327 1.427 1_556 S
N335 C333 1.384 . S
H336 C342 0.930 1_556 S
H337 C346 0.930 . S
H338 C351 0.929 . S
H339 C349 0.929 . S
H340 C344 0.929 . S
H341 C350 0.917 1_556 S
C342 H336 0.930 1_554 S
C342 C343 1.367 . S
C342 C350 1.378 . S
C343 C342 1.367 . S
C343 C351 1.433 . S
C344 H340 0.929 . S
C344 C346 1.378 . S
C344 C348 1.350 . S
C345 C348 1.463 . S
C345 C350 1.350 . S
C345 N353 1.427 . S
C346 H337 0.930 . S
C346 C344 1.378 . S
C346 C347 1.367 . S
C347 C346 1.367 . S
C347 C349 1.433 . S
C348 C344 1.350 . S
C348 C345 1.463 . S
C348 N352 1.427 . S
C349 H339 0.929 . S
C349 C347 1.433 . S
C349 N352 1.384 . S
C350 H341 0.917 1_554 S
C350 C342 1.378 . S
C350 C345 1.350 . S
C351 H338 0.929 . S
C351 C343 1.433 . S
C351 N353 1.384 . S
N352 C348 1.427 . S
N352 C349 1.384 . S
N353 C345 1.427 . S
N353 C351 1.384 . S
H354 C360 0.930 . S
H355 C364 0.930 . S
H356 C369 0.929 . S
H357 C367 0.929 . S
H358 C362 0.929 . S
H359 C368 0.929 . S
C360 H354 0.930 . S
C360 C361 1.367 1_556 S
C360 C368 1.378 . S
C361 C360 1.367 1_554 S
C361 C369 1.433 . S
C362 H358 0.929 . S
C362 C364 1.378 . S
C362 C366 1.350 . S
C363 C366 1.463 . S
C363 C368 1.350 1_554 S
C363 N371 1.427 . S
C364 H355 0.930 . S
C364 C362 1.378 . S
C364 C365 1.367 1_554 S
C365 C364 1.367 1_556 S
C365 C367 1.433 . S
C366 C362 1.350 . S
C366 C363 1.463 . S
C366 N370 1.427 1_554 S
C367 H357 0.929 . S
C367 C365 1.433 . S
C367 N370 1.384 . S
C368 H359 0.929 . S
C368 C360 1.378 . S
C368 C363 1.350 1_556 S
C369 H356 0.929 . S
C369 C361 1.433 . S
C369 N371 1.384 . S
N370 C366 1.427 1_556 S
N370 C367 1.384 . S
N371 C363 1.427 . S
N371 C369 1.384 . S
H372 C378 0.930 . S
H373 C382 0.930 . S
H374 C387 0.929 . S
H375 C385 0.929 . S
H376 C380 0.929 . S
H377 C386 0.929 . S
C378 H372 0.930 . S
C378 C379 1.367 . S
C378 C386 1.378 . S
C379 C378 1.367 . S
C379 C387 1.433 . S
C380 H376 0.929 . S
C380 C382 1.378 . S
C380 C384 1.350 . S
C381 C384 1.463 . S
C381 C386 1.350 . S
C381 N389 1.427 . S
C382 H373 0.930 . S
C382 C380 1.378 . S
C382 C383 1.367 . S
C383 C382 1.367 . S
C383 C385 1.433 . S
C384 C380 1.350 . S
C384 C381 1.463 . S
C384 N388 1.427 . S
C385 H375 0.929 . S
C385 C383 1.433 . S
C385 N388 1.384 . S
C386 H377 0.929 . S
C386 C378 1.378 . S
C386 C381 1.350 . S
C387 H374 0.929 . S
C387 C379 1.433 . S
C387 N389 1.384 . S
N388 C384 1.427 . S
N388 C385 1.384 . S
N389 C381 1.427 . S
N389 C387 1.384 . S
H390 C396 0.930 . S
H391 C400 0.930 . S
H392 C405 0.929 . S
H393 C403 0.929 . S
H394 C398 0.929 . S
H395 C404 0.929 . S
C396 H390 0.930 . S
C396 C397 1.367 . S
C396 C404 1.378 . S
C397 C396 1.367 . S
C397 C405 1.433 . S
C398 H394 0.929 . S
C398 C400 1.378 . S
C398 C402 1.350 . S
C399 C402 1.463 . S
C399 C404 1.350 . S
C399 N407 1.427 . S
C400 H391 0.930 . S
C400 C398 1.378 . S
C400 C401 1.367 . S
C401 C400 1.367 . S
C401 C403 1.433 . S
C402 C398 1.350 . S
C402 C399 1.463 . S
C402 N406 1.427 . S
C403 H393 0.929 . S
C403 C401 1.433 . S
C403 N406 1.384 . S
C404 H395 0.929 . S
C404 C396 1.378 . S
C404 C399 1.350 . S
C405 H392 0.929 . S
C405 C397 1.433 . S
C405 N407 1.384 . S
N406 C402 1.427 . S
N406 C403 1.384 . S
N407 C399 1.427 . S
N407 C405 1.384 . S
H408 C414 0.930 . S
H409 C418 0.930 . S
H410 C423 0.929 . S
H411 C421 0.929 . S
H412 C416 0.929 . S
H413 C422 0.929 . S
C414 H408 0.930 . S
C414 C415 1.367 . S
C414 C422 1.378 . S
C415 C414 1.367 . S
C415 C423 1.433 . S
C416 H412 0.929 . S
C416 C418 1.378 . S
C416 C420 1.350 . S
C417 C420 1.463 . S
C417 C422 1.350 . S
C417 N425 1.427 . S
C418 H409 0.930 . S
C418 C416 1.378 . S
C418 C419 1.367 . S
C419 C418 1.367 . S
C419 C421 1.433 . S
C420 C416 1.350 . S
C420 C417 1.463 . S
C420 N424 1.427 . S
C421 H411 0.929 . S
C421 C419 1.433 . S
C421 N424 1.384 . S
C422 H413 0.929 . S
C422 C414 1.378 . S
C422 C417 1.350 . S
C423 H410 0.929 . S
C423 C415 1.433 . S
C423 N425 1.384 . S
N424 C420 1.427 . S
N424 C421 1.384 . S
N425 C417 1.427 . S
N425 C423 1.384 . S
H426 C432 0.930 . S
H427 C436 0.930 . S
H428 C441 0.929 . S
H429 C439 0.929 . S
H430 C434 0.929 . S
H431 C440 0.929 . S
C432 H426 0.930 . S
C432 C433 1.367 . S
C432 C440 1.378 . S
C433 C432 1.367 . S
C433 C441 1.433 . S
C434 H430 0.929 . S
C434 C436 1.378 . S
C434 C438 1.350 . S
C435 C438 1.463 . S
C435 C440 1.350 . S
C435 N443 1.427 . S
C436 H427 0.930 . S
C436 C434 1.378 . S
C436 C437 1.367 . S
C437 C436 1.367 . S
C437 C439 1.433 . S
C438 C434 1.350 . S
C438 C435 1.463 . S
C438 N442 1.427 . S
C439 H429 0.929 . S
C439 C437 1.433 . S
C439 N442 1.384 . S
C440 H431 0.929 . S
C440 C432 1.378 . S
C440 C435 1.350 . S
C441 H428 0.929 . S
C441 C433 1.433 . S
C441 N443 1.384 . S
N442 C438 1.427 . S
N442 C439 1.384 . S
N443 C435 1.427 . S
N443 C441 1.384 . S
H444 C450 0.930 . S
H445 C454 0.930 . S
H446 C459 0.929 . S
H447 C457 0.929 . S
H448 C452 0.929 . S
H449 C458 0.929 . S
C450 H444 0.930 . S
C450 C451 1.367 1_565 S
C450 C458 1.378 . S
C451 C450 1.367 1_545 S
C451 C459 1.433 1_455 S
C452 H448 0.929 . S
C452 C454 1.378 . S
C452 C456 1.350 1_655 S
C453 C456 1.463 . S
C453 C458 1.350 1_545 S
C453 N461 1.427 1_455 S
C454 H445 0.930 . S
C454 C452 1.378 . S
C454 C455 1.367 1_655 S
C455 C454 1.367 1_455 S
C455 C457 1.433 1_545 S
C456 C452 1.350 1_455 S
C456 C453 1.463 . S
C456 N460 1.427 1_545 S
C457 H447 0.929 . S
C457 C455 1.433 1_565 S
C457 N460 1.384 . S
C458 H449 0.929 . S
C458 C450 1.378 . S
C458 C453 1.350 1_565 S
C459 H446 0.929 . S
C459 C451 1.433 1_655 S
C459 N461 1.384 . S
N460 C456 1.427 1_565 S
N460 C457 1.384 . S
N461 C453 1.427 1_655 S
N461 C459 1.384 . S
H462 C468 0.930 . S
H463 C472 0.930 1_565 S
H464 C477 0.929 . S
H465 C475 0.929 . S
H466 C470 0.929 1_565 S
H467 C476 0.929 . S
C468 H462 0.930 . S
C468 C469 1.367 . S
C468 C476 1.378 . S
C469 C468 1.367 . S
C469 C477 1.433 1_445 S
C470 H466 0.929 1_545 S
C470 C472 1.378 . S
C470 C474 1.350 1_655 S
C471 C474 1.463 . S
C471 C476 1.350 . S
C471 N479 1.427 1_445 S
C472 H463 0.930 1_545 S
C472 C470 1.378 . S
C472 C473 1.367 1_655 S
C473 C472 1.367 1_455 S
C473 C475 1.433 . S
C474 C470 1.350 1_455 S
C474 C471 1.463 . S
C474 N478 1.427 . S
C475 H465 0.929 . S
C475 C473 1.433 . S
C475 N478 1.384 . S
C476 H467 0.929 . S
C476 C468 1.378 . S
C476 C471 1.350 . S
C477 H464 0.929 . S
C477 C469 1.433 1_665 S
C477 N479 1.384 . S
N478 C474 1.427 . S
N478 C475 1.384 . S
N479 C471 1.427 1_665 S
N479 C477 1.384 . S
H480 C486 0.930 . S
H481 C490 0.930 . S
H482 C495 0.929 . S
H483 C493 0.929 . S
H484 C488 0.929 . S
H485 C494 0.929 . S
C486 H480 0.930 . S
C486 C487 1.367 . S
C486 C494 1.378 . S
C487 C486 1.367 . S
C487 C495 1.433 . S
C488 H484 0.929 . S
C488 C490 1.378 . S
C488 C492 1.350 . S
C489 C492 1.463 . S
C489 C494 1.350 . S
C489 N497 1.427 . S
C490 H481 0.930 . S
C490 C488 1.378 . S
C490 C491 1.367 . S
C491 C490 1.367 . S
C491 C493 1.433 . S
C492 C488 1.350 . S
C492 C489 1.463 . S
C492 N496 1.427 . S
C493 H483 0.929 . S
C493 C491 1.433 . S
C493 N496 1.384 . S
C494 H485 0.929 . S
C494 C486 1.378 . S
C494 C489 1.350 . S
C495 H482 0.929 . S
C495 C487 1.433 . S
C495 N497 1.384 . S
N496 C492 1.427 . S
N496 C493 1.384 . S
N497 C489 1.427 . S
N497 C495 1.384 . S
H498 C504 0.930 . S
H499 C508 0.930 . S
H500 C513 0.929 . S
H501 C511 0.929 . S
H502 C506 0.929 . S
H503 C512 0.929 . S
C504 H498 0.930 . S
C504 C505 1.367 . S
C504 C512 1.378 . S
C505 C504 1.367 . S
C505 C513 1.433 . S
C506 H502 0.929 . S
C506 C508 1.378 . S
C506 C510 1.350 . S
C507 C510 1.463 . S
C507 C512 1.350 . S
C507 N515 1.427 . S
C508 H499 0.930 . S
C508 C506 1.378 . S
C508 C509 1.367 . S
C509 C508 1.367 . S
C509 C511 1.433 . S
C510 C506 1.350 . S
C510 C507 1.463 . S
C510 N514 1.427 . S
C511 H501 0.929 . S
C511 C509 1.433 . S
C511 N514 1.384 . S
C512 H503 0.929 . S
C512 C504 1.378 . S
C512 C507 1.350 . S
C513 H500 0.929 . S
C513 C505 1.433 . S
C513 N515 1.384 . S
N514 C510 1.427 . S
N514 C511 1.384 . S
N515 C507 1.427 . S
N515 C513 1.384 . S
C311 C271 1.484 . S
C307 C27 1.493 . S
C325 N6 1.399 . S
C329 C211 1.434 . S
C343 C16 1.471 . S
C347 C241 1.360 . S
C361 N14 1.405 . S
C365 C181 1.342 . S
C379 C57 1.493 . S
C383 C151 1.481 . S
C397 N36 1.402 . S
C401 C91 1.435 . S
C419 C121 1.362 . S
C415 C46 1.471 . S
C437 C61 1.322 . S
C433 N44 1.399 . S
C451 C10 1.386 . S
C455 C80 1.362 1_455 S
C469 C1 1.532 . S
C473 C140 1.503 1_455 S
C491 C200 1.372 . S
C487 C40 1.390 . S
C505 C31 1.530 . S
C509 C260 1.513 . S
