# Generated by pormake.
# Topology anh, (6,3)-cn, num edge types: 1
# Building blocks:
#     Node 0, Type 0, BuildingBlock: GEDQOX_clean_sbu_0, # of connection points: 6
#     Node 1, Type 0, BuildingBlock: GEDQOX_clean_sbu_0, # of connection points: 6
#     Node 2, Type 0, BuildingBlock: GEDQOX_clean_sbu_0, # of connection points: 6
#     Node 3, Type 1, BuildingBlock: QEWDON_clean_linker_0, # of connection points: 3
#     Node 4, Type 1, BuildingBlock: QEWDON_clean_linker_0, # of connection points: 3
#     Node 5, Type 1, BuildingBlock: QEWDON_clean_linker_0, # of connection points: 3
#     Node 6, Type 1, BuildingBlock: QEWDON_clean_linker_0, # of connection points: 3
#     Node 7, Type 1, BuildingBlock: QEWDON_clean_linker_0, # of connection points: 3
#     Node 8, Type 1, BuildingBlock: QEWDON_clean_linker_0, # of connection points: 3
#     Edge 9, Type (0, 1), BuildingBlock: XIVTED_clean_linker_0, # of connection points: 2
#     Edge 10, Type (0, 1), BuildingBlock: XIVTED_clean_linker_0, # of connection points: 2
#     Edge 11, Type (0, 1), BuildingBlock: XIVTED_clean_linker_0, # of connection points: 2
#     Edge 12, Type (0, 1), BuildingBlock: XIVTED_clean_linker_0, # of connection points: 2
#     Edge 13, Type (0, 1), BuildingBlock: XIVTED_clean_linker_0, # of connection points: 2
#     Edge 14, Type (0, 1), BuildingBlock: XIVTED_clean_linker_0, # of connection points: 2
#     Edge 15, Type (0, 1), BuildingBlock: XIVTED_clean_linker_0, # of connection points: 2
#     Edge 16, Type (0, 1), BuildingBlock: XIVTED_clean_linker_0, # of connection points: 2
#     Edge 17, Type (0, 1), BuildingBlock: XIVTED_clean_linker_0, # of connection points: 2
#     Edge 18, Type (0, 1), BuildingBlock: XIVTED_clean_linker_0, # of connection points: 2
#     Edge 19, Type (0, 1), BuildingBlock: XIVTED_clean_linker_0, # of connection points: 2
#     Edge 20, Type (0, 1), BuildingBlock: XIVTED_clean_linker_0, # of connection points: 2
#     Edge 21, Type (0, 1), BuildingBlock: XIVTED_clean_linker_0, # of connection points: 2
#     Edge 22, Type (0, 1), BuildingBlock: XIVTED_clean_linker_0, # of connection points: 2
#     Edge 23, Type (0, 1), BuildingBlock: XIVTED_clean_linker_0, # of connection points: 2
#     Edge 24, Type (0, 1), BuildingBlock: XIVTED_clean_linker_0, # of connection points: 2
#     Edge 25, Type (0, 1), BuildingBlock: XIVTED_clean_linker_0, # of connection points: 2
#     Edge 26, Type (0, 1), BuildingBlock: XIVTED_clean_linker_0, # of connection points: 2
# Relax obj value: 0.132
# Max RMSD: 0.179
# Mean RMSD: 0.123
data_MOF--net-anh--node1-GEDQOX_clean_sbu_0--node2-QEWDON_clean_linker_0--edge1-XIVTED_clean_linker_0
_symmetry_space_group_name_H-M    P1
_symmetry_Int_Tables_number       1
_symmetry_cell_setting            triclinic
loop_
_symmetry_equiv_pos_as_xyz
'x, y, z'
_cell_length_a     31.846659
_cell_length_b     31.353688
_cell_length_c     48.365386
_cell_angle_alpha  95.452319
_cell_angle_beta   94.364699
_cell_angle_gamma 101.29923
loop_
_atom_site_label
_atom_site_type_symbol
_atom_site_fract_x
_atom_site_fract_y
_atom_site_fract_z
_atom_type_partial_charge
Nd0 Nd 0.14611 0.60505 0.149 0.0
Nd1 Nd 0.12806 0.51151 0.16312 0.0
C2 C 0.17616 0.6805 0.13012 0.0
C3 C 0.21726 0.71226 0.13485 0.0
C4 C 0.2265 0.74514 0.11725 0.0
C5 C 0.26527 0.77596 0.12206 0.0
C6 C 0.29542 0.77445 0.14465 0.0
C7 C 0.28607 0.74087 0.16198 0.0
C8 C 0.24743 0.71 0.15706 0.0
C9 C 0.13937 0.59583 0.20449 0.0
C10 C 0.22814 0.5547 0.16003 0.0
C11 C 0.09856 0.43794 0.18437 0.0
C12 C 1.05586 0.40985 0.18463 0.0
C13 C 1.05012 0.37601 0.2018 0.0
C14 C 1.0096 0.3488 0.20176 0.0
C15 C 0.97418 0.35504 0.18449 0.0
C16 C 0.98015 0.38945 0.16757 0.0
C17 C 1.0206 0.41654 0.16762 0.0
C18 C 0.13821 0.51998 0.10827 0.0
C19 C 1.04596 0.5603 0.1473 0.0
O20 O 0.17727 0.64254 0.11675 0.0
O21 O 0.15349 0.67703 0.15153 0.0
O22 O 0.12374 0.62464 0.19175 0.0
O23 O 0.1591 0.57458 0.18845 0.0
O24 O 0.21318 0.58612 0.14849 0.0
O25 O 0.20212 0.52426 0.17138 0.0
O26 O 0.10469 0.47665 0.19861 0.0
O27 O 0.11377 0.43914 0.16003 0.0
O28 O 0.15206 0.49057 0.12152 0.0
O29 O 0.11721 0.54154 0.12331 0.0
O30 O 1.06004 0.53001 0.16072 0.0
O31 O 1.07325 0.59029 0.1366 0.0
H32 H 0.20366 0.7471 0.09987 0.0
H33 H 0.27165 0.80087 0.10802 0.0
H34 H 0.30813 0.73896 0.17978 0.0
H35 H 0.24084 0.68465 0.17081 0.0
H36 H 1.07704 0.37042 0.21506 0.0
H37 H 1.00622 0.3224 0.21485 0.0
H38 H 0.95347 0.39567 0.15437 0.0
H39 H 1.0244 0.44259 0.15426 0.0
Nd40 Nd 0.57651 0.03946 0.5073 0.0
Nd41 Nd 0.67197 0.05183 0.49955 0.0
C42 C 0.49866 0.01319 0.52292 0.0
C43 C 0.46653 0.97187 0.51873 0.0
C44 C 0.43454 0.96405 0.53703 0.0
C45 C 0.40349 0.92509 0.53294 0.0
C46 C 0.40381 0.89326 0.51038 0.0
C47 C 0.43651 0.90114 0.49234 0.0
C48 C 0.46763 0.93997 0.49655 0.0
C49 C 0.5955 0.04738 0.45366 0.0
C50 C 0.62175 0.95238 0.49829 0.0
C51 C 0.74975 0.07837 0.48378 0.0
C52 C 0.77802 0.12076 0.48091 0.0
C53 C 0.76152 0.15504 0.47036 0.0
C54 C 0.7887 0.19543 0.46867 0.0
C55 C 0.83279 0.20247 0.47776 0.0
C56 C 0.84916 0.16799 0.4882 0.0
C57 C 0.82204 0.12753 0.48968 0.0
C58 C 0.65207 0.04549 0.55337 0.0
C59 C 0.62629 0.13826 0.50892 0.0
O60 O 0.53393 0.01309 0.53864 0.0
O61 O 0.50594 0.0331 0.50066 0.0
O62 O 0.56562 0.0639 0.46481 0.0
O63 O 0.61259 0.02529 0.4701 0.0
O64 O 0.58934 0.9695 0.50646 0.0
O65 O 0.65719 0.97698 0.49138 0.0
O66 O 0.71506 0.06624 0.46627 0.0
O67 O 0.74291 0.07023 0.50925 0.0
O68 O 0.6819 0.02804 0.54277 0.0
O69 O 0.63571 0.06692 0.53624 0.0
O70 O 0.65753 0.1215 0.49844 0.0
O71 O 0.5932 0.11339 0.51825 0.0
H72 H 0.43348 0.98814 0.55443 0.0
H73 H 0.37936 0.9199 0.54755 0.0
H74 H 0.43758 0.87779 0.47455 0.0
H75 H 0.49231 0.94531 0.48229 0.0
H76 H 0.72756 0.15083 0.46372 0.0
H77 H 0.77501 0.22151 0.46089 0.0
H78 H 0.88301 0.17227 0.49516 0.0
H79 H 0.83541 0.10157 0.49792 0.0
Nd80 Nd 0.58439 0.5523 0.81385 0.0
Nd81 Nd 0.68537 0.57248 0.83483 0.0
C82 C 0.51467 0.54825 0.78009 0.0
C83 C 0.48124 0.57431 0.77888 0.0
C84 C 0.46107 0.57966 0.75304 0.0
C85 C 0.43042 0.60599 0.7517 0.0
C86 C 0.41949 0.62731 0.77625 0.0
C87 C 0.44045 0.62223 0.80207 0.0
C88 C 0.47123 0.59624 0.80334 0.0
C89 C 0.59734 0.56672 0.87155 0.0
C90 C 0.63941 0.65436 0.8312 0.0
C91 C 0.76177 0.56824 0.85738 0.0
C92 C 0.78559 0.53242 0.85448 0.0
C93 C 0.76967 0.4912 0.86323 0.0
C94 C 0.79093 0.45662 0.85811 0.0
C95 C 0.82796 0.46251 0.84378 0.0
C96 C 0.84368 0.50368 0.83504 0.0
C97 C 0.82285 0.53827 0.84045 0.0
C98 C 0.66339 0.57031 0.77884 0.0
C99 C 0.62999 0.46906 0.82165 0.0
O100 O 0.55283 0.56895 0.77524 0.0
O101 O 0.51557 0.52449 0.80103 0.0
O102 O 0.55911 0.55816 0.85812 0.0
O103 O 0.6245 0.56825 0.85406 0.0
O104 O 0.60743 0.62723 0.81543 0.0
O105 O 0.67063 0.64046 0.84512 0.0
O106 O 0.72744 0.5615 0.87094 0.0
O107 O 0.75619 0.58719 0.83477 0.0
O108 O 0.69649 0.59741 0.79214 0.0
O109 O 0.64499 0.54473 0.79483 0.0
O110 O 0.66635 0.49699 0.83099 0.0
O111 O 0.59458 0.48176 0.81262 0.0
H112 H 0.46914 0.56358 0.73391 0.0
H113 H 0.41525 0.60955 0.73148 0.0
H114 H 0.43232 0.63734 0.82146 0.0
H115 H 0.48704 0.59309 0.82347 0.0
H116 H 0.74065 0.48545 0.87381 0.0
H117 H 0.7785 0.42536 0.86533 0.0
H118 H 0.87293 0.50957 0.82469 0.0
H119 H 0.83567 0.56959 0.83342 0.0
H120 H 0.6414 0.10954 0.24364 0.0
C121 C 0.61898 0.08089 0.23334 0.0
C122 C 0.60321 0.04636 0.24876 0.0
C123 C 0.60441 0.07944 0.20501 0.0
H124 H 0.55943 0.98421 0.24759 0.0
C125 C 0.57316 0.00991 0.23547 0.0
C126 C 0.5579 0.0081 0.20729 0.0
C127 C 0.57407 0.04276 0.19216 0.0
C128 C 0.61831 0.11741 0.18926 0.0
H129 H 0.56266 0.04134 0.17033 0.0
C130 C 0.66182 0.13899 0.19105 0.0
C131 C 0.67457 0.17452 0.17562 0.0
C132 C 0.58763 0.13236 0.17229 0.0
H133 H 0.55385 0.117 0.1709 0.0
C134 C 0.60003 0.16775 0.15726 0.0
H135 H 0.68581 0.12737 0.20376 0.0
C136 C 0.64313 0.18867 0.15883 0.0
H137 H 0.65178 0.21634 0.14711 0.0
H138 H 0.5761 0.17911 0.14439 0.0
H139 H 0.60437 0.57277 0.5588 0.0
C140 C 0.6118 0.54166 0.55137 0.0
C141 C 0.62372 0.51463 0.57089 0.0
C142 C 0.60636 0.5272 0.52255 0.0
H143 H 0.64013 0.45226 0.57647 0.0
C144 C 0.63146 0.47343 0.56147 0.0
C145 C 0.62614 0.45831 0.53301 0.0
C146 C 0.61396 0.48535 0.51365 0.0
C147 C 0.5891 0.55381 0.50203 0.0
H148 H 0.61005 0.4734 0.49166 0.0
C149 C 0.60001 0.60013 0.50541 0.0
C150 C 0.58108 0.62453 0.48676 0.0
C151 C 0.5596 0.53265 0.47936 0.0
H152 H 0.54936 0.49738 0.4764 0.0
C153 C 0.54176 0.5567 0.46053 0.0
H154 H 0.62245 0.61722 0.52274 0.0
C155 C 0.55222 0.60223 0.46421 0.0
H156 H 0.53758 0.62013 0.44939 0.0
H157 H 0.51915 0.53994 0.44323 0.0
H158 H 0.15607 0.60946 0.90104 0.0
C159 C 0.13885 0.57705 0.89234 0.0
C160 C 0.13952 0.54121 0.90761 0.0
C161 C 0.11413 0.57155 0.86651 0.0
H162 H 0.11677 0.47193 0.90813 0.0
C163 C 0.11685 0.49942 0.89614 0.0
C164 C 0.09076 0.49359 0.8708 0.0
C165 C 0.09009 0.53002 0.85598 0.0
C166 C 0.1123 0.60924 0.85061 0.0
H167 H 1.06942 0.52679 0.83673 0.0
C168 C 0.15016 0.63276 0.84199 0.0
C169 C 0.14858 0.66488 0.82379 0.0
C170 C 1.07268 0.61951 0.84198 0.0
H171 H 1.043 0.60168 0.84842 0.0
C172 C 1.07112 0.65248 0.8246 0.0
H173 H 0.18061 0.6239 0.84789 0.0
C174 C 0.10885 0.67466 0.81512 0.0
H175 H 0.10703 0.69889 0.80077 0.0
H176 H 1.04047 0.66003 0.81786 0.0
H177 H 1.0661 0.54849 0.41451 0.0
C178 C 0.09467 0.57057 0.42484 0.0
C179 C 0.128 0.58762 0.40901 0.0
C180 C 0.09761 0.58308 0.45377 0.0
H181 H 0.18933 0.6316 0.40991 0.0
C182 C 0.16447 0.61711 0.42231 0.0
C183 C 0.16766 0.63064 0.451 0.0
C184 C 0.1343 0.61319 0.46662 0.0
C185 C 1.06168 0.56674 0.4705 0.0
H186 H 0.13693 0.62317 0.48887 0.0
C187 C 1.04095 0.52217 0.46739 0.0
C188 C 1.00855 0.50704 0.48452 0.0
C189 C 1.04845 0.59603 0.49025 0.0
H190 H 1.06308 0.63058 0.49274 0.0
C191 C 1.01598 0.58124 0.50689 0.0
H192 H 1.05103 0.49909 0.45246 0.0
C193 C 0.99634 0.53706 0.50422 0.0
H194 H 0.97123 0.52635 0.51744 0.0
H195 H 1.00609 0.60411 0.522 0.0
H196 H 0.61054 0.02343 0.76978 0.0
C197 C 0.61666 0.058 0.77713 0.0
C198 C 0.62289 0.08857 0.75758 0.0
C199 C 0.61612 0.0719 0.80573 0.0
H200 H 0.63399 0.15711 0.75178 0.0
C201 C 0.62919 0.13336 0.76675 0.0
C202 C 0.62848 0.14796 0.7949 0.0
C203 C 0.62224 0.1173 0.8143 0.0
C204 C 0.60763 0.03934 0.82647 0.0
H205 H 0.6227 0.1292 0.83611 0.0
C206 C 0.62104 0.99881 0.82328 0.0
C207 C 0.61279 0.96862 0.84305 0.0
C208 C 0.58533 0.04851 0.84968 0.0
H209 H 0.57298 0.07825 0.85251 0.0
C210 C 0.57773 0.019 0.86943 0.0
H211 H 0.63848 0.99086 0.80578 0.0
C212 C 0.59142 0.97944 0.86625 0.0
H213 H 0.5842 0.95671 0.88159 0.0
H214 H 0.56058 0.02661 0.88713 0.0
H215 H 0.60851 0.56978 0.09098 0.0
C216 C 0.64114 0.56781 0.09774 0.0
C217 C 0.6704 0.56541 0.07748 0.0
C218 C 0.65382 0.56818 0.12642 0.0
H219 H 0.73642 0.56472 0.07079 0.0
C220 C 0.71345 0.565 0.08619 0.0
C221 C 0.72768 0.56528 0.11439 0.0
C222 C 0.69734 0.56545 0.13427 0.0
C223 C 0.6226 0.57398 0.14808 0.0
H224 H 0.70829 0.56444 0.15586 0.0
C225 C 0.57677 0.56234 0.14208 0.0
C226 C 0.5489 0.56927 0.16295 0.0
C227 C 0.63894 0.59342 0.17527 0.0
H228 H 0.67305 0.60508 0.18089 0.0
C229 C 0.61165 0.59962 0.19579 0.0
H230 H 0.5625 0.54729 0.12159 0.0
C231 C 0.56724 0.58757 0.18981 0.0
H232 H 0.54703 0.59367 0.20617 0.0
H233 H 0.62509 0.61457 0.21649 0.0
H234 H 0.27559 0.50286 0.18679 0.0
H235 H 0.49747 0.59736 0.12283 0.0
H236 H 0.28821 0.60382 0.1315 0.0
H237 H 0.49031 0.52062 0.19224 0.0
H238 H 0.41899 0.59181 0.12076 0.0
H239 H 0.35222 0.50185 0.18486 0.0
C240 C 0.29432 0.52481 0.17423 0.0
C241 C 0.27504 0.55362 0.15943 0.0
C242 C 0.43452 0.57574 0.13624 0.0
C243 C 0.36332 0.55223 0.15681 0.0
C244 C 0.4793 0.57848 0.13719 0.0
C245 C 0.50066 0.55932 0.15767 0.0
C246 C 0.41064 0.5533 0.15575 0.0
C247 C 0.47532 0.53592 0.17609 0.0
C248 C 0.33821 0.5242 0.17311 0.0
C249 C 0.30139 0.58117 0.14344 0.0
N250 N 0.43198 0.53368 0.17474 0.0
N251 N 0.34386 0.57972 0.14252 0.0
H252 H 0.83702 0.25597 0.43575 0.0
H253 H 0.99749 0.45585 0.52692 0.0
H254 H 0.89347 0.24822 0.51861 0.0
H255 H 0.97133 0.45174 0.43783 0.0
H256 H 0.95726 0.38052 0.52442 0.0
H257 H 0.88311 0.32863 0.43618 0.0
C258 C 0.8591 0.26955 0.45402 0.0
C259 C 0.86137 0.24598 0.4772 0.0
C260 C 0.96053 0.39587 0.50535 0.0
C261 C 0.91411 0.32903 0.47782 0.0
C262 C 0.98339 0.4389 0.50679 0.0
C263 C 0.98755 0.46005 0.48255 0.0
C264 C 0.94104 0.37384 0.47953 0.0
C265 C 0.96898 0.43649 0.45697 0.0
C266 C 0.88559 0.31086 0.45417 0.0
C267 C 0.8909 0.26499 0.50019 0.0
N268 N 0.94609 0.39475 0.45614 0.0
N269 N 0.91582 0.30544 0.49999 0.0
H270 H 0.68602 0.72113 0.86913 0.0
H271 H 0.59787 0.90978 0.79601 0.0
H272 H 0.59489 0.69638 0.79579 0.0
H273 H 0.65299 0.92747 0.88158 0.0
H274 H 0.60856 0.83416 0.792 0.0
H275 H 0.68506 0.79944 0.87072 0.0
C276 C 0.66599 0.73211 0.85331 0.0
C277 C 0.64027 0.70202 0.83242 0.0
C278 C 0.61863 0.85472 0.81158 0.0
C279 C 0.63944 0.79152 0.83393 0.0
C280 C 0.6129 0.89797 0.81379 0.0
C281 C 0.62433 0.92484 0.83921 0.0
C282 C 0.63636 0.83834 0.83486 0.0
C283 C 0.64329 0.90767 0.8617 0.0
C284 C 0.66541 0.77678 0.85426 0.0
C285 C 0.61495 0.71822 0.81245 0.0
N286 N 0.64862 0.86552 0.85903 0.0
N287 N 0.61524 0.76177 0.81368 0.0
H288 H 0.97834 0.50584 0.16749 0.0
H289 H 0.79698 0.61842 0.09675 0.0
H290 H 1.00495 0.6156 0.11956 0.0
H291 H 0.76634 0.51598 0.1498 0.0
H292 H 0.87314 0.61726 0.10559 0.0
H293 H 0.90138 0.50793 0.16168 0.0
C294 C 0.96818 0.53038 0.15573 0.0
C295 C 0.99865 0.56056 0.14397 0.0
C296 C 0.84999 0.59504 0.11545 0.0
C297 C 0.91 0.56313 0.13727 0.0
C298 C 0.80625 0.59562 0.11035 0.0
C299 C 0.77476 0.567 0.12232 0.0
C300 C 0.86315 0.56541 0.13265 0.0
C301 C 0.78925 0.53875 0.14015 0.0
C302 C 0.92409 0.53159 0.15249 0.0
C303 C 0.98308 0.59157 0.12903 0.0
N304 N 0.83222 0.53842 0.14458 0.0
N305 N 0.9402 0.59194 0.12611 0.0
H306 H 0.31777 0.88382 0.51763 0.0
H307 H 0.25348 0.63817 0.44435 0.0
H308 H 0.41135 0.8098 0.491 0.0
H309 H 0.16496 0.70335 0.48644 0.0
H310 H 0.31198 0.70029 0.46157 0.0
H311 H 0.26167 0.81785 0.50692 0.0
C312 C 0.32673 0.85365 0.50985 0.0
C313 C 0.36956 0.85265 0.50515 0.0
C314 C 0.27985 0.70083 0.46729 0.0
C315 C 0.30495 0.77687 0.49228 0.0
C316 C 0.24645 0.66543 0.45741 0.0
C317 C 0.20426 0.66565 0.4639 0.0
C318 C 0.27098 0.73703 0.48352 0.0
C319 C 0.19704 0.70165 0.4811 0.0
C320 C 0.29453 0.81596 0.50359 0.0
C321 C 0.37878 0.81253 0.4945 0.0
N322 N 0.22995 0.73606 0.49007 0.0
N323 N 0.34675 0.7764 0.48827 0.0
H324 H 0.56068 0.40054 0.81876 0.0
H325 H 0.69332 0.2153 0.78679 0.0
H326 H 0.69923 0.42932 0.82137 0.0
H327 H 0.57121 0.18802 0.82116 0.0
H328 H 0.69476 0.29395 0.79582 0.0
H329 H 0.56181 0.32222 0.81568 0.0
C330 C 0.59131 0.39044 0.81869 0.0
C331 C 0.6299 0.42158 0.82028 0.0
C332 C 0.66788 0.27078 0.80169 0.0
C333 C 0.63135 0.33212 0.81655 0.0
C334 C 0.66709 0.22602 0.79655 0.0
C335 C 0.6322 0.19535 0.80339 0.0
C336 C 0.63303 0.28493 0.81311 0.0
C337 C 0.59885 0.21076 0.81585 0.0
C338 C 0.59193 0.34578 0.81711 0.0
C339 C 0.66869 0.40654 0.82029 0.0
N340 N 0.59977 0.25452 0.81998 0.0
N341 N 0.66839 0.36292 0.81816 0.0
H342 H 0.5486 0.89202 0.50174 0.0
H343 H 0.65895 0.68307 0.49661 0.0
H344 H 0.6838 0.90246 0.49209 0.0
H345 H 0.52208 0.67658 0.48629 0.0
H346 H 0.67068 0.76355 0.5 0.0
H347 H 0.54029 0.81324 0.50073 0.0
C348 C 0.57668 0.8778 0.4994 0.0
C349 C 0.61702 0.90412 0.49694 0.0
C350 C 0.63813 0.7444 0.49704 0.0
C351 C 0.60759 0.8131 0.49589 0.0
C352 C 0.63144 0.6986 0.49532 0.0
C353 C 0.58949 0.67317 0.49098 0.0
C354 C 0.60257 0.76474 0.49478 0.0
C355 C 0.55497 0.69488 0.48928 0.0
C356 C 0.57184 0.8326 0.49879 0.0
C357 C 0.65207 0.88346 0.4939 0.0
N358 N 0.56227 0.73922 0.4912 0.0
N359 N 0.64659 0.83912 0.49355 0.0
H360 H 0.86306 0.43345 0.79739 0.0
H361 H 1.0463 0.4391 0.90499 0.0
H362 H 0.85285 0.41447 0.88389 0.0
H363 H 1.05917 0.45321 0.81788 0.0
H364 H 0.97652 0.39227 0.89231 0.0
H365 H 0.92804 0.40317 0.79881 0.0
C366 C 0.87373 0.42142 0.81642 0.0
C367 C 0.85403 0.42845 0.84095 0.0
C368 C 0.99496 0.40453 0.87578 0.0
C369 C 0.92881 0.39523 0.84302 0.0
C370 C 1.0354 0.43133 0.88302 0.0
C371 C 1.05786 0.45257 0.86258 0.0
C372 C 0.97616 0.40061 0.84819 0.0
C373 C 1.04177 0.4399 0.83453 0.0
C374 C 0.91084 0.40407 0.81726 0.0
C375 C 0.86801 0.41096 0.86474 0.0
N376 N 1.00111 0.41613 0.8282 0.0
N377 N 0.9055 0.39649 0.86549 0.0
H378 H 0.30687 0.86247 0.13973 0.0
H379 H 0.54846 0.92005 0.21143 0.0
H380 H 0.37625 0.76421 0.16352 0.0
H381 H 0.48563 0.01409 0.17471 0.0
H382 H 0.48613 0.86221 0.19374 0.0
H383 H 0.37248 0.91815 0.15175 0.0
C384 C 0.33597 0.85242 0.14716 0.0
C385 C 0.33581 0.80842 0.15067 0.0
C386 C 0.48615 0.89544 0.18933 0.0
C387 C 0.41113 0.87245 0.16503 0.0
C388 C 0.52165 0.92845 0.1995 0.0
C389 C 0.52224 0.97196 0.19457 0.0
C390 C 0.45074 0.90604 0.17436 0.0
C391 C 0.48679 0.98095 0.17877 0.0
C392 C 0.37344 0.88437 0.15419 0.0
C393 C 0.37451 0.79774 0.16092 0.0
N394 N 0.45238 0.94837 0.16944 0.0
N395 N 0.41048 0.82953 0.16788 0.0
H396 H 0.69753 0.20383 0.50929 0.0
H397 H 0.56508 0.39458 0.50258 0.0
H398 H 0.55964 0.18124 0.5107 0.0
H399 H 0.69322 0.41777 0.54444 0.0
H400 H 0.56617 0.31634 0.49415 0.0
H401 H 0.69963 0.2829 0.51178 0.0
C402 C 0.66772 0.21547 0.51001 0.0
C403 C 0.62836 0.18598 0.51005 0.0
C404 C 0.59421 0.33869 0.50488 0.0
C405 C 0.63055 0.27595 0.51226 0.0
C406 C 0.59376 0.38326 0.50945 0.0
C407 C 0.62913 0.41249 0.52418 0.0
C408 C 0.63057 0.32342 0.51471 0.0
C409 C 0.66531 0.39614 0.53303 0.0
C410 C 0.66899 0.26049 0.51147 0.0
C411 C 0.59071 0.20284 0.51095 0.0
N412 N 0.66516 0.35264 0.52813 0.0
N413 N 0.5927 0.24667 0.51187 0.0
H414 H 0.41402 0.70283 0.80849 0.0
H415 H 0.16156 0.65909 0.76882 0.0
H416 H 0.34353 0.60746 0.7424 0.0
H417 H 0.22526 0.70931 0.85057 0.0
H418 H 0.23183 0.66776 0.75016 0.0
H419 H 0.34875 0.73134 0.81455 0.0
C420 C 0.38509 0.68832 0.79494 0.0
C421 C 0.38393 0.65168 0.77554 0.0
C422 C 0.23029 0.67824 0.77199 0.0
C423 C 0.30966 0.68486 0.78199 0.0
C424 C 0.1903 0.67362 0.78258 0.0
C425 C 0.18802 0.68301 0.81127 0.0
C426 C 0.26789 0.69247 0.7903 0.0
C427 C 0.226 0.70132 0.82835 0.0
C428 C 0.34801 0.70488 0.79829 0.0
C429 C 0.34598 0.63541 0.75782 0.0
N430 N 0.26456 0.70481 0.81769 0.0
N431 N 0.31011 0.6516 0.76183 0.0
H432 H 0.93372 0.32144 0.22835 0.0
H433 H 0.71947 0.20108 0.1322 0.0
H434 H 0.91678 0.32116 0.13894 0.0
H435 H 0.73415 0.19923 0.22148 0.0
H436 H 0.79308 0.24256 0.13442 0.0
H437 H 0.86234 0.27411 0.22642 0.0
C438 C 0.91515 0.31121 0.2083 0.0
C439 C 0.93125 0.32557 0.18378 0.0
C440 C 0.78037 0.23302 0.15356 0.0
C441 C 0.84938 0.27163 0.18146 0.0
C442 C 0.73822 0.20945 0.15231 0.0
C443 C 0.72043 0.19701 0.17673 0.0
C444 C 0.80517 0.24449 0.17943 0.0
C445 C 0.74661 0.208 0.20212 0.0
C446 C 0.87432 0.28434 0.20723 0.0
C447 C 0.90548 0.31161 0.15843 0.0
N448 N 0.78758 0.23138 0.20285 0.0
N449 N 0.86591 0.28556 0.15796 0.0
H450 H 0.19556 0.48747 0.07795 0.0
H451 H 0.18818 0.49243 0.93504 0.0
H452 H 0.10538 0.57348 0.07475 0.0
H453 H 0.12776 0.60339 0.94804 0.0
H454 H 0.19806 0.49103 0.98515 0.0
H455 H 0.21111 0.5001 0.03063 0.0
C456 C 0.17869 0.50872 0.06706 0.0
C457 C 0.14841 0.52867 0.07993 0.0
C458 C 0.18395 0.51675 0.97741 0.0
C459 C 0.16499 0.54248 0.02525 0.0
C460 C 0.17819 0.51737 0.94859 0.0
C461 C 0.15675 0.54774 0.93737 0.0
C462 C 0.16806 0.54681 -0.00483 0.0
C463 C 0.1446 0.57947 0.9558 0.0
C464 C 0.18741 0.51581 0.03987 0.0
C465 C 0.12842 0.5569 0.06532 0.0
N466 N 0.1497 0.57764 0.98376 0.0
N467 N 0.13675 0.56261 0.03862 0.0
H468 H 0.57455 0.10667 0.4207 0.0
H469 H 0.62565 0.98459 0.28034 0.0
H470 H 0.63798 0.99712 0.42063 0.0
H471 H 0.60327 0.11632 0.28697 0.0
H472 H 0.63162 0.98797 0.3314 0.0
H473 H 0.58539 0.11045 0.37153 0.0
C474 C 0.59097 0.08351 0.41029 0.0
C475 C 0.60504 0.05127 0.42457 0.0
C476 C 0.62613 0.01637 0.32167 0.0
C477 C 0.61728 0.05512 0.3682 0.0
C478 C 0.62262 0.01443 0.29258 0.0
C479 C 0.61377 0.05017 0.27943 0.0
C480 C 0.61999 0.05405 0.33767 0.0
C481 C 0.61038 0.08812 0.29624 0.0
C482 C 0.59735 0.0858 0.38225 0.0
C483 C 0.6265 0.02233 0.41023 0.0
N484 N 0.61288 0.08882 0.32445 0.0
N485 N 0.63147 0.02453 0.38264 0.0
H486 H 0.60213 0.50809 0.74727 0.0
H487 H 0.6646 0.59214 0.60132 0.0
H488 H 0.7001 0.62235 0.74127 0.0
H489 H 0.58581 0.46625 0.60949 0.0
H490 H 0.6704 0.60959 0.6523 0.0
H491 H 0.58804 0.49812 0.69644 0.0
C492 C 0.62046 0.53126 0.73522 0.0
C493 C 0.65253 0.56589 0.74839 0.0
C494 C 0.65169 0.57825 0.64287 0.0
C495 C 0.63677 0.55464 0.69024 0.0
C496 C 0.64825 0.56841 0.61384 0.0
C497 C 0.62519 0.52751 0.6013 0.0
C498 C 0.63151 0.54709 0.65931 0.0
C499 C 0.60456 0.49786 0.6184 0.0
C500 C 0.6125 0.52552 0.70621 0.0
C501 C 0.67527 0.59505 0.73184 0.0
N502 N 0.60833 0.50817 0.64648 0.0
N503 N 0.66711 0.58866 0.70357 0.0
H504 H 0.59367 0.0844 0.5788 0.0
H505 H 0.66482 0.02945 0.73182 0.0
H506 H 0.68949 0.00749 0.59481 0.0
H507 H 0.57842 0.11581 0.71457 0.0
H508 H 0.66799 0.01317 0.6814 0.0
H509 H 0.58162 0.08876 0.62813 0.0
C510 C 0.61204 0.06825 0.59273 0.0
C511 C 0.6429 0.04591 0.58282 0.0
C512 C 0.64811 0.03543 0.68868 0.0
C513 C 0.62942 0.05082 0.6394 0.0
C514 C 0.64612 0.0445 0.7174 0.0
C515 C 0.62176 0.07443 0.72733 0.0
C516 C 0.62534 0.05626 0.66986 0.0
C517 C 0.59822 0.09316 0.7078 0.0
C518 C 0.60518 0.07073 0.62091 0.0
C519 C 0.6656 0.0253 0.60171 0.0
N520 N 0.60079 0.08396 0.68007 0.0
N521 N 0.65861 0.02848 0.62917 0.0
H522 H 0.54968 0.59119 0.91283 0.0
H523 H 0.69545 0.51739 0.03365 0.0
H524 H 0.66508 0.54328 0.89938 0.0
H525 H 0.61384 0.60949 0.05159 0.0
H526 H 0.67718 0.51858 0.98396 0.0
H527 H 0.56542 0.59063 0.96346 0.0
C528 C 0.57849 0.58089 0.92058 0.0
C529 C 0.60672 0.56813 0.90204 0.0
C530 C 0.66327 0.53856 -0.00124 0.0
C531 C 0.62435 0.56646 0.95951 0.0
C532 C 0.67383 0.53808 0.02722 0.0
C533 C 0.65674 0.56388 0.04706 0.0
C534 C 0.63483 0.56452 0.98978 0.0
C535 C 0.6277 0.58885 0.0372 0.0
C536 C 0.58745 0.58062 0.94938 0.0
C537 C 0.64331 0.55464 0.91302 0.0
N538 N 0.61768 0.58858 0.00926 0.0
N539 N 0.65095 0.5539 0.94097 0.0
H540 H 0.18124 0.54703 0.23654 0.0
H541 H 1.06151 0.59599 0.37217 0.0
H542 H 1.08631 0.62799 0.23904 0.0
H543 H 0.18563 0.56017 0.376 0.0
H544 H 1.06062 0.59252 0.32121 0.0
H545 H 0.17422 0.53742 0.28584 0.0
C546 C 0.15881 0.56263 0.24747 0.0
C547 C 0.13463 0.58872 0.23389 0.0
C548 C 1.08778 0.58489 0.33321 0.0
C549 C 0.12602 0.5774 0.28996 0.0
C550 C 1.0881 0.58645 0.36219 0.0
C551 C 0.12375 0.57845 0.37821 0.0
C552 C 0.12314 0.5748 0.32021 0.0
C553 C 0.15767 0.56679 0.36433 0.0
C554 C 0.15483 0.55714 0.27554 0.0
C555 C 0.10585 0.60799 0.24889 0.0
N556 N 0.15662 0.56544 0.33612 0.0
N557 N 0.10232 0.60194 0.27615 0.0
loop_
_geom_bond_atom_site_label_1
_geom_bond_atom_site_label_2
_geom_bond_distance
_geom_bond_site_symmetry_2
_ccdc_geom_bond_type
Nd0 C2 2.836 . S
Nd0 O20 2.500 . S
Nd0 O21 2.492 . S
Nd0 O22 2.487 . S
Nd0 O23 2.682 . S
Nd0 O24 2.410 . S
Nd0 O29 2.414 . S
Nd0 O31 2.424 1_455 S
Nd1 C11 2.836 1_455 S
Nd1 O23 2.414 . S
Nd1 O25 2.424 . S
Nd1 O26 2.500 1_455 S
Nd1 O27 2.492 1_455 S
Nd1 O28 2.487 . S
Nd1 O29 2.682 . S
Nd1 O30 2.410 1_455 S
C2 Nd0 2.836 . S
C2 C3 1.498 . S
C2 O20 1.258 . S
C2 O21 1.239 . S
C3 C2 1.498 . S
C3 C4 1.366 . S
C3 C8 1.407 . S
C4 C3 1.366 . S
C4 C5 1.392 . S
C4 H32 0.930 . S
C5 C4 1.392 . S
C5 C6 1.398 . S
C5 H33 0.929 . S
C6 C5 1.398 . S
C6 C7 1.352 . S
C7 C6 1.352 . S
C7 C8 1.384 . S
C7 H34 0.930 . S
C8 C3 1.407 . S
C8 C7 1.384 . S
C8 H35 0.929 . S
C9 O22 1.241 . S
C9 O23 1.273 . S
C10 O24 1.251 . S
C10 O25 1.268 . S
C11 Nd1 2.836 1_655 S
C11 C12 1.498 . S
C11 O26 1.258 . S
C11 O27 1.239 . S
C12 C11 1.498 . S
C12 C13 1.366 . S
C12 C17 1.407 . S
C13 C12 1.366 . S
C13 C14 1.392 . S
C13 H36 0.930 . S
C14 C13 1.392 . S
C14 C15 1.398 . S
C14 H37 0.929 . S
C15 C14 1.398 . S
C15 C16 1.352 . S
C16 C15 1.352 . S
C16 C17 1.384 . S
C16 H38 0.930 . S
C17 C12 1.407 . S
C17 C16 1.384 . S
C17 H39 0.929 . S
C18 O28 1.241 . S
C18 O29 1.273 . S
C19 O30 1.251 . S
C19 O31 1.268 . S
O20 Nd0 2.500 . S
O20 C2 1.258 . S
O21 Nd0 2.492 . S
O21 C2 1.239 . S
O22 Nd0 2.487 . S
O22 C9 1.241 . S
O23 Nd0 2.682 . S
O23 Nd1 2.414 . S
O23 C9 1.273 . S
O24 Nd0 2.410 . S
O24 C10 1.251 . S
O25 Nd1 2.424 . S
O25 C10 1.268 . S
O26 Nd1 2.500 1_655 S
O26 C11 1.258 . S
O27 Nd1 2.492 1_655 S
O27 C11 1.239 . S
O28 Nd1 2.487 . S
O28 C18 1.241 . S
O29 Nd0 2.414 . S
O29 Nd1 2.682 . S
O29 C18 1.273 . S
O30 Nd1 2.410 1_655 S
O30 C19 1.251 . S
O31 Nd0 2.424 1_655 S
O31 C19 1.268 . S
H32 C4 0.930 . S
H33 C5 0.929 . S
H34 C7 0.930 . S
H35 C8 0.929 . S
H36 C13 0.930 . S
H37 C14 0.929 . S
H38 C16 0.930 . S
H39 C17 0.929 . S
Nd40 C42 2.836 1_545 S
Nd40 O60 2.500 1_545 S
Nd40 O61 2.492 1_545 S
Nd40 O62 2.487 . S
Nd40 O63 2.682 . S
Nd40 O64 2.410 1_545 S
Nd40 O69 2.414 . S
Nd40 O71 2.424 . S
Nd41 C51 2.836 . S
Nd41 O63 2.414 . S
Nd41 O65 2.424 1_545 S
Nd41 O66 2.500 . S
Nd41 O67 2.492 . S
Nd41 O68 2.487 . S
Nd41 O69 2.682 . S
Nd41 O70 2.410 . S
C42 Nd40 2.836 1_565 S
C42 C43 1.498 . S
C42 O60 1.258 . S
C42 O61 1.239 . S
C43 C42 1.498 . S
C43 C44 1.366 . S
C43 C48 1.407 . S
C44 C43 1.366 . S
C44 C45 1.392 . S
C44 H72 0.930 . S
C45 C44 1.392 . S
C45 C46 1.398 . S
C45 H73 0.929 . S
C46 C45 1.398 . S
C46 C47 1.352 . S
C47 C46 1.352 . S
C47 C48 1.384 . S
C47 H74 0.930 . S
C48 C43 1.407 . S
C48 C47 1.384 . S
C48 H75 0.929 . S
C49 O62 1.241 . S
C49 O63 1.273 . S
C50 O64 1.251 . S
C50 O65 1.268 . S
C51 Nd41 2.836 . S
C51 C52 1.498 . S
C51 O66 1.258 . S
C51 O67 1.239 . S
C52 C51 1.498 . S
C52 C53 1.366 . S
C52 C57 1.407 . S
C53 C52 1.366 . S
C53 C54 1.392 . S
C53 H76 0.930 . S
C54 C53 1.392 . S
C54 C55 1.398 . S
C54 H77 0.929 . S
C55 C54 1.398 . S
C55 C56 1.352 . S
C56 C55 1.352 . S
C56 C57 1.384 . S
C56 H78 0.930 . S
C57 C52 1.407 . S
C57 C56 1.384 . S
C57 H79 0.929 . S
C58 O68 1.241 . S
C58 O69 1.273 . S
C59 O70 1.251 . S
C59 O71 1.268 . S
O60 Nd40 2.500 1_565 S
O60 C42 1.258 . S
O61 Nd40 2.492 1_565 S
O61 C42 1.239 . S
O62 Nd40 2.487 . S
O62 C49 1.241 . S
O63 Nd40 2.682 . S
O63 Nd41 2.414 . S
O63 C49 1.273 . S
O64 Nd40 2.410 1_565 S
O64 C50 1.251 . S
O65 Nd41 2.424 1_565 S
O65 C50 1.268 . S
O66 Nd41 2.500 . S
O66 C51 1.258 . S
O67 Nd41 2.492 . S
O67 C51 1.239 . S
O68 Nd41 2.487 . S
O68 C58 1.241 . S
O69 Nd40 2.414 . S
O69 Nd41 2.682 . S
O69 C58 1.273 . S
O70 Nd41 2.410 . S
O70 C59 1.251 . S
O71 Nd40 2.424 . S
O71 C59 1.268 . S
H72 C44 0.930 . S
H73 C45 0.929 . S
H74 C47 0.930 . S
H75 C48 0.929 . S
H76 C53 0.930 . S
H77 C54 0.929 . S
H78 C56 0.930 . S
H79 C57 0.929 . S
Nd80 C82 2.836 . S
Nd80 O100 2.500 . S
Nd80 O101 2.492 . S
Nd80 O102 2.487 . S
Nd80 O103 2.682 . S
Nd80 O104 2.410 . S
Nd80 O109 2.414 . S
Nd80 O111 2.424 . S
Nd81 C91 2.836 . S
Nd81 O103 2.414 . S
Nd81 O105 2.424 . S
Nd81 O106 2.500 . S
Nd81 O107 2.492 . S
Nd81 O108 2.487 . S
Nd81 O109 2.682 . S
Nd81 O110 2.410 . S
C82 Nd80 2.836 . S
C82 C83 1.498 . S
C82 O100 1.258 . S
C82 O101 1.239 . S
C83 C82 1.498 . S
C83 C84 1.366 . S
C83 C88 1.407 . S
C84 C83 1.366 . S
C84 C85 1.392 . S
C84 H112 0.930 . S
C85 C84 1.392 . S
C85 C86 1.398 . S
C85 H113 0.929 . S
C86 C85 1.398 . S
C86 C87 1.352 . S
C87 C86 1.352 . S
C87 C88 1.384 . S
C87 H114 0.930 . S
C88 C83 1.407 . S
C88 C87 1.384 . S
C88 H115 0.929 . S
C89 O102 1.241 . S
C89 O103 1.273 . S
C90 O104 1.251 . S
C90 O105 1.268 . S
C91 Nd81 2.836 . S
C91 C92 1.498 . S
C91 O106 1.258 . S
C91 O107 1.239 . S
C92 C91 1.498 . S
C92 C93 1.366 . S
C92 C97 1.407 . S
C93 C92 1.366 . S
C93 C94 1.392 . S
C93 H116 0.930 . S
C94 C93 1.392 . S
C94 C95 1.398 . S
C94 H117 0.929 . S
C95 C94 1.398 . S
C95 C96 1.352 . S
C96 C95 1.352 . S
C96 C97 1.384 . S
C96 H118 0.930 . S
C97 C92 1.407 . S
C97 C96 1.384 . S
C97 H119 0.929 . S
C98 O108 1.241 . S
C98 O109 1.273 . S
C99 O110 1.251 . S
C99 O111 1.268 . S
O100 Nd80 2.500 . S
O100 C82 1.258 . S
O101 Nd80 2.492 . S
O101 C82 1.239 . S
O102 Nd80 2.487 . S
O102 C89 1.241 . S
O103 Nd80 2.682 . S
O103 Nd81 2.414 . S
O103 C89 1.273 . S
O104 Nd80 2.410 . S
O104 C90 1.251 . S
O105 Nd81 2.424 . S
O105 C90 1.268 . S
O106 Nd81 2.500 . S
O106 C91 1.258 . S
O107 Nd81 2.492 . S
O107 C91 1.239 . S
O108 Nd81 2.487 . S
O108 C98 1.241 . S
O109 Nd80 2.414 . S
O109 Nd81 2.682 . S
O109 C98 1.273 . S
O110 Nd81 2.410 . S
O110 C99 1.251 . S
O111 Nd80 2.424 . S
O111 C99 1.268 . S
H112 C84 0.930 . S
H113 C85 0.929 . S
H114 C87 0.930 . S
H115 C88 0.929 . S
H116 C93 0.930 . S
H117 C94 0.929 . S
H118 C96 0.930 . S
H119 C97 0.929 . S
H120 C121 0.949 . S
C121 H120 0.949 . S
C121 C122 1.395 . S
C121 C123 1.391 . S
C122 C121 1.395 . S
C122 C125 1.390 . S
C123 C121 1.391 . S
C123 C127 1.387 . S
C123 C128 1.491 . S
H124 C125 0.950 . S
C125 C122 1.390 . S
C125 H124 0.950 . S
C125 C126 1.378 . S
C126 C125 1.378 . S
C126 C127 1.409 . S
C127 C123 1.387 . S
C127 C126 1.409 . S
C127 H129 0.951 . S
C128 C123 1.491 . S
C128 C130 1.382 . S
C128 C132 1.404 . S
H129 C127 0.951 . S
C130 C128 1.382 . S
C130 C131 1.390 . S
C130 H135 0.949 . S
C131 C130 1.390 . S
C131 C136 1.399 . S
C132 C128 1.404 . S
C132 H133 0.950 . S
C132 C134 1.375 . S
H133 C132 0.950 . S
C134 C132 1.375 . S
C134 C136 1.382 . S
C134 H138 0.950 . S
H135 C130 0.949 . S
C136 C131 1.399 . S
C136 C134 1.382 . S
C136 H137 0.952 . S
H137 C136 0.952 . S
H138 C134 0.950 . S
H139 C140 0.949 . S
C140 H139 0.949 . S
C140 C141 1.395 . S
C140 C142 1.391 . S
C141 C140 1.395 . S
C141 C144 1.390 . S
C142 C140 1.391 . S
C142 C146 1.387 . S
C142 C147 1.491 . S
H143 C144 0.950 . S
C144 C141 1.390 . S
C144 H143 0.950 . S
C144 C145 1.378 . S
C145 C144 1.378 . S
C145 C146 1.409 . S
C146 C142 1.387 . S
C146 C145 1.409 . S
C146 H148 0.951 . S
C147 C142 1.491 . S
C147 C149 1.382 . S
C147 C151 1.404 . S
H148 C146 0.951 . S
C149 C147 1.382 . S
C149 C150 1.390 . S
C149 H154 0.949 . S
C150 C149 1.390 . S
C150 C155 1.399 . S
C151 C147 1.404 . S
C151 H152 0.950 . S
C151 C153 1.375 . S
H152 C151 0.950 . S
C153 C151 1.375 . S
C153 C155 1.382 . S
C153 H157 0.950 . S
H154 C149 0.949 . S
C155 C150 1.399 . S
C155 C153 1.382 . S
C155 H156 0.952 . S
H156 C155 0.952 . S
H157 C153 0.950 . S
H158 C159 0.949 . S
C159 H158 0.949 . S
C159 C160 1.395 . S
C159 C161 1.391 . S
C160 C159 1.395 . S
C160 C163 1.390 . S
C161 C159 1.391 . S
C161 C165 1.387 . S
C161 C166 1.491 . S
H162 C163 0.950 1_655 S
C163 C160 1.390 . S
C163 H162 0.950 1_455 S
C163 C164 1.378 . S
C164 C163 1.378 . S
C164 C165 1.409 . S
C165 C161 1.387 . S
C165 C164 1.409 . S
C165 H167 0.951 . S
C166 C161 1.491 . S
C166 C168 1.382 . S
C166 C170 1.404 . S
H167 C165 0.951 . S
C168 C166 1.382 . S
C168 C169 1.390 . S
C168 H173 0.949 . S
C169 C168 1.390 . S
C169 C174 1.399 . S
C170 C166 1.404 . S
C170 H171 0.950 . S
C170 C172 1.375 . S
H171 C170 0.950 . S
C172 C170 1.375 . S
C172 C174 1.382 . S
C172 H176 0.950 . S
H173 C168 0.949 . S
C174 C169 1.399 . S
C174 C172 1.382 . S
C174 H175 0.952 . S
H175 C174 0.952 . S
H176 C172 0.950 . S
H177 C178 0.949 1_655 S
C178 H177 0.949 1_455 S
C178 C179 1.395 . S
C178 C180 1.391 . S
C179 C178 1.395 . S
C179 C182 1.390 . S
C180 C178 1.391 . S
C180 C184 1.387 . S
C180 C185 1.491 1_455 S
H181 C182 0.950 . S
C182 C179 1.390 . S
C182 H181 0.950 . S
C182 C183 1.378 . S
C183 C182 1.378 . S
C183 C184 1.409 . S
C184 C180 1.387 . S
C184 C183 1.409 . S
C184 H186 0.951 . S
C185 C180 1.491 1_655 S
C185 C187 1.382 . S
C185 C189 1.404 . S
H186 C184 0.951 . S
C187 C185 1.382 . S
C187 C188 1.390 . S
C187 H192 0.949 . S
C188 C187 1.390 . S
C188 C193 1.399 . S
C189 C185 1.404 . S
C189 H190 0.950 . S
C189 C191 1.375 . S
H190 C189 0.950 . S
C191 C189 1.375 . S
C191 C193 1.382 . S
C191 H195 0.950 . S
H192 C187 0.949 . S
C193 C188 1.399 . S
C193 C191 1.382 . S
C193 H194 0.952 . S
H194 C193 0.952 . S
H195 C191 0.950 . S
H196 C197 0.949 1_565 S
C197 H196 0.949 1_545 S
C197 C198 1.395 . S
C197 C199 1.391 . S
C198 C197 1.395 . S
C198 C201 1.390 . S
C199 C197 1.391 . S
C199 C203 1.387 . S
C199 C204 1.491 1_545 S
H200 C201 0.950 . S
C201 C198 1.390 . S
C201 H200 0.950 . S
C201 C202 1.378 . S
C202 C201 1.378 . S
C202 C203 1.409 . S
C203 C199 1.387 . S
C203 C202 1.409 . S
C203 H205 0.951 . S
C204 C199 1.491 1_565 S
C204 C206 1.382 . S
C204 C208 1.404 . S
H205 C203 0.951 . S
C206 C204 1.382 . S
C206 C207 1.390 . S
C206 H211 0.949 . S
C207 C206 1.390 . S
C207 C212 1.399 . S
C208 C204 1.404 . S
C208 H209 0.950 1_565 S
C208 C210 1.375 . S
H209 C208 0.950 1_545 S
C210 C208 1.375 . S
C210 C212 1.382 . S
C210 H214 0.950 . S
H211 C206 0.949 . S
C212 C207 1.399 . S
C212 C210 1.382 . S
C212 H213 0.952 . S
H213 C212 0.952 . S
H214 C210 0.950 . S
H215 C216 0.949 . S
C216 H215 0.949 . S
C216 C217 1.395 . S
C216 C218 1.391 . S
C217 C216 1.395 . S
C217 C220 1.390 . S
C218 C216 1.391 . S
C218 C222 1.387 . S
C218 C223 1.491 . S
H219 C220 0.950 . S
C220 C217 1.390 . S
C220 H219 0.950 . S
C220 C221 1.378 . S
C221 C220 1.378 . S
C221 C222 1.409 . S
C222 C218 1.387 . S
C222 C221 1.409 . S
C222 H224 0.951 . S
C223 C218 1.491 . S
C223 C225 1.382 . S
C223 C227 1.404 . S
H224 C222 0.951 . S
C225 C223 1.382 . S
C225 C226 1.390 . S
C225 H230 0.949 . S
C226 C225 1.390 . S
C226 C231 1.399 . S
C227 C223 1.404 . S
C227 H228 0.950 . S
C227 C229 1.375 . S
H228 C227 0.950 . S
C229 C227 1.375 . S
C229 C231 1.382 . S
C229 H233 0.950 . S
H230 C225 0.949 . S
C231 C226 1.399 . S
C231 C229 1.382 . S
C231 H232 0.952 . S
H232 C231 0.952 . S
H233 C229 0.950 . S
H234 C240 0.930 . S
H235 C244 0.930 . S
H236 C249 0.929 . S
H237 C247 0.929 . S
H238 C242 0.929 . S
H239 C248 0.929 . S
C240 H234 0.930 . S
C240 C241 1.367 . S
C240 C248 1.378 . S
C241 C240 1.367 . S
C241 C249 1.433 . S
C242 H238 0.929 . S
C242 C244 1.378 . S
C242 C246 1.350 . S
C243 C246 1.463 . S
C243 C248 1.350 . S
C243 N251 1.427 . S
C244 H235 0.930 . S
C244 C242 1.378 . S
C244 C245 1.367 . S
C245 C244 1.367 . S
C245 C247 1.433 . S
C246 C242 1.350 . S
C246 C243 1.463 . S
C246 N250 1.427 . S
C247 H237 0.929 . S
C247 C245 1.433 . S
C247 N250 1.384 . S
C248 H239 0.929 . S
C248 C240 1.378 . S
C248 C243 1.350 . S
C249 H236 0.929 . S
C249 C241 1.433 . S
C249 N251 1.384 . S
N250 C246 1.427 . S
N250 C247 1.384 . S
N251 C243 1.427 . S
N251 C249 1.384 . S
H252 C258 0.930 . S
H253 C262 0.930 . S
H254 C267 0.929 . S
H255 C265 0.929 . S
H256 C260 0.929 . S
H257 C266 0.929 . S
C258 H252 0.930 . S
C258 C259 1.367 . S
C258 C266 1.378 . S
C259 C258 1.367 . S
C259 C267 1.433 . S
C260 H256 0.929 . S
C260 C262 1.378 . S
C260 C264 1.350 . S
C261 C264 1.463 . S
C261 C266 1.350 . S
C261 N269 1.427 . S
C262 H253 0.930 . S
C262 C260 1.378 . S
C262 C263 1.367 . S
C263 C262 1.367 . S
C263 C265 1.433 . S
C264 C260 1.350 . S
C264 C261 1.463 . S
C264 N268 1.427 . S
C265 H255 0.929 . S
C265 C263 1.433 . S
C265 N268 1.384 . S
C266 H257 0.929 . S
C266 C258 1.378 . S
C266 C261 1.350 . S
C267 H254 0.929 . S
C267 C259 1.433 . S
C267 N269 1.384 . S
N268 C264 1.427 . S
N268 C265 1.384 . S
N269 C261 1.427 . S
N269 C267 1.384 . S
H270 C276 0.930 . S
H271 C280 0.930 . S
H272 C285 0.929 . S
H273 C283 0.929 . S
H274 C278 0.929 . S
H275 C284 0.929 . S
C276 H270 0.930 . S
C276 C277 1.367 . S
C276 C284 1.378 . S
C277 C276 1.367 . S
C277 C285 1.433 . S
C278 H274 0.929 . S
C278 C280 1.378 . S
C278 C282 1.350 . S
C279 C282 1.463 . S
C279 C284 1.350 . S
C279 N287 1.427 . S
C280 H271 0.930 . S
C280 C278 1.378 . S
C280 C281 1.367 . S
C281 C280 1.367 . S
C281 C283 1.433 . S
C282 C278 1.350 . S
C282 C279 1.463 . S
C282 N286 1.427 . S
C283 H273 0.929 . S
C283 C281 1.433 . S
C283 N286 1.384 . S
C284 H275 0.929 . S
C284 C276 1.378 . S
C284 C279 1.350 . S
C285 H272 0.929 . S
C285 C277 1.433 . S
C285 N287 1.384 . S
N286 C282 1.427 . S
N286 C283 1.384 . S
N287 C279 1.427 . S
N287 C285 1.384 . S
H288 C294 0.930 . S
H289 C298 0.930 . S
H290 C303 0.929 . S
H291 C301 0.929 . S
H292 C296 0.929 . S
H293 C302 0.929 . S
C294 H288 0.930 . S
C294 C295 1.367 . S
C294 C302 1.378 . S
C295 C294 1.367 . S
C295 C303 1.433 . S
C296 H292 0.929 . S
C296 C298 1.378 . S
C296 C300 1.350 . S
C297 C300 1.463 . S
C297 C302 1.350 . S
C297 N305 1.427 . S
C298 H289 0.930 . S
C298 C296 1.378 . S
C298 C299 1.367 . S
C299 C298 1.367 . S
C299 C301 1.433 . S
C300 C296 1.350 . S
C300 C297 1.463 . S
C300 N304 1.427 . S
C301 H291 0.929 . S
C301 C299 1.433 . S
C301 N304 1.384 . S
C302 H293 0.929 . S
C302 C294 1.378 . S
C302 C297 1.350 . S
C303 H290 0.929 . S
C303 C295 1.433 . S
C303 N305 1.384 . S
N304 C300 1.427 . S
N304 C301 1.384 . S
N305 C297 1.427 . S
N305 C303 1.384 . S
H306 C312 0.930 . S
H307 C316 0.930 . S
H308 C321 0.929 . S
H309 C319 0.929 . S
H310 C314 0.929 . S
H311 C320 0.929 . S
C312 H306 0.930 . S
C312 C313 1.367 . S
C312 C320 1.378 . S
C313 C312 1.367 . S
C313 C321 1.433 . S
C314 H310 0.929 . S
C314 C316 1.378 . S
C314 C318 1.350 . S
C315 C318 1.463 . S
C315 C320 1.350 . S
C315 N323 1.427 . S
C316 H307 0.930 . S
C316 C314 1.378 . S
C316 C317 1.367 . S
C317 C316 1.367 . S
C317 C319 1.433 . S
C318 C314 1.350 . S
C318 C315 1.463 . S
C318 N322 1.427 . S
C319 H309 0.929 . S
C319 C317 1.433 . S
C319 N322 1.384 . S
C320 H311 0.929 . S
C320 C312 1.378 . S
C320 C315 1.350 . S
C321 H308 0.929 . S
C321 C313 1.433 . S
C321 N323 1.384 . S
N322 C318 1.427 . S
N322 C319 1.384 . S
N323 C315 1.427 . S
N323 C321 1.384 . S
H324 C330 0.930 . S
H325 C334 0.930 . S
H326 C339 0.929 . S
H327 C337 0.929 . S
H328 C332 0.929 . S
H329 C338 0.929 . S
C330 H324 0.930 . S
C330 C331 1.367 . S
C330 C338 1.378 . S
C331 C330 1.367 . S
C331 C339 1.433 . S
C332 H328 0.929 . S
C332 C334 1.378 . S
C332 C336 1.350 . S
C333 C336 1.463 . S
C333 C338 1.350 . S
C333 N341 1.427 . S
C334 H325 0.930 . S
C334 C332 1.378 . S
C334 C335 1.367 . S
C335 C334 1.367 . S
C335 C337 1.433 . S
C336 C332 1.350 . S
C336 C333 1.463 . S
C336 N340 1.427 . S
C337 H327 0.929 . S
C337 C335 1.433 . S
C337 N340 1.384 . S
C338 H329 0.929 . S
C338 C330 1.378 . S
C338 C333 1.350 . S
C339 H326 0.929 . S
C339 C331 1.433 . S
C339 N341 1.384 . S
N340 C336 1.427 . S
N340 C337 1.384 . S
N341 C333 1.427 . S
N341 C339 1.384 . S
H342 C348 0.930 . S
H343 C352 0.930 . S
H344 C357 0.929 . S
H345 C355 0.929 . S
H346 C350 0.929 . S
H347 C356 0.929 . S
C348 H342 0.930 . S
C348 C349 1.367 . S
C348 C356 1.378 . S
C349 C348 1.367 . S
C349 C357 1.433 . S
C350 H346 0.929 . S
C350 C352 1.378 . S
C350 C354 1.350 . S
C351 C354 1.463 . S
C351 C356 1.350 . S
C351 N359 1.427 . S
C352 H343 0.930 . S
C352 C350 1.378 . S
C352 C353 1.367 . S
C353 C352 1.367 . S
C353 C355 1.433 . S
C354 C350 1.350 . S
C354 C351 1.463 . S
C354 N358 1.427 . S
C355 H345 0.929 . S
C355 C353 1.433 . S
C355 N358 1.384 . S
C356 H347 0.929 . S
C356 C348 1.378 . S
C356 C351 1.350 . S
C357 H344 0.929 . S
C357 C349 1.433 . S
C357 N359 1.384 . S
N358 C354 1.427 . S
N358 C355 1.384 . S
N359 C351 1.427 . S
N359 C357 1.384 . S
H360 C366 0.930 . S
H361 C370 0.930 . S
H362 C375 0.929 . S
H363 C373 0.929 . S
H364 C368 0.929 . S
H365 C374 0.929 . S
C366 H360 0.930 . S
C366 C367 1.367 . S
C366 C374 1.378 . S
C367 C366 1.367 . S
C367 C375 1.433 . S
C368 H364 0.929 . S
C368 C370 1.378 . S
C368 C372 1.350 . S
C369 C372 1.463 . S
C369 C374 1.350 . S
C369 N377 1.427 . S
C370 H361 0.930 . S
C370 C368 1.378 . S
C370 C371 1.367 . S
C371 C370 1.367 . S
C371 C373 1.433 . S
C372 C368 1.350 . S
C372 C369 1.463 . S
C372 N376 1.427 . S
C373 H363 0.929 . S
C373 C371 1.433 . S
C373 N376 1.384 . S
C374 H365 0.929 . S
C374 C366 1.378 . S
C374 C369 1.350 . S
C375 H362 0.929 . S
C375 C367 1.433 . S
C375 N377 1.384 . S
N376 C372 1.427 . S
N376 C373 1.384 . S
N377 C369 1.427 . S
N377 C375 1.384 . S
H378 C384 0.930 . S
H379 C388 0.930 . S
H380 C393 0.929 . S
H381 C391 0.929 1_545 S
H382 C386 0.929 . S
H383 C392 0.929 . S
C384 H378 0.930 . S
C384 C385 1.367 . S
C384 C392 1.378 . S
C385 C384 1.367 . S
C385 C393 1.433 . S
C386 H382 0.929 . S
C386 C388 1.378 . S
C386 C390 1.350 . S
C387 C390 1.463 . S
C387 C392 1.350 . S
C387 N395 1.427 . S
C388 H379 0.930 . S
C388 C386 1.378 . S
C388 C389 1.367 . S
C389 C388 1.367 . S
C389 C391 1.433 . S
C390 C386 1.350 . S
C390 C387 1.463 . S
C390 N394 1.427 . S
C391 H381 0.929 1_565 S
C391 C389 1.433 . S
C391 N394 1.384 . S
C392 H383 0.929 . S
C392 C384 1.378 . S
C392 C387 1.350 . S
C393 H380 0.929 . S
C393 C385 1.433 . S
C393 N395 1.384 . S
N394 C390 1.427 . S
N394 C391 1.384 . S
N395 C387 1.427 . S
N395 C393 1.384 . S
H396 C402 0.930 . S
H397 C406 0.930 . S
H398 C411 0.929 . S
H399 C409 0.929 . S
H400 C404 0.929 . S
H401 C410 0.929 . S
C402 H396 0.930 . S
C402 C403 1.367 . S
C402 C410 1.378 . S
C403 C402 1.367 . S
C403 C411 1.433 . S
C404 H400 0.929 . S
C404 C406 1.378 . S
C404 C408 1.350 . S
C405 C408 1.463 . S
C405 C410 1.350 . S
C405 N413 1.427 . S
C406 H397 0.930 . S
C406 C404 1.378 . S
C406 C407 1.367 . S
C407 C406 1.367 . S
C407 C409 1.433 . S
C408 C404 1.350 . S
C408 C405 1.463 . S
C408 N412 1.427 . S
C409 H399 0.929 . S
C409 C407 1.433 . S
C409 N412 1.384 . S
C410 H401 0.929 . S
C410 C402 1.378 . S
C410 C405 1.350 . S
C411 H398 0.929 . S
C411 C403 1.433 . S
C411 N413 1.384 . S
N412 C408 1.427 . S
N412 C409 1.384 . S
N413 C405 1.427 . S
N413 C411 1.384 . S
H414 C420 0.930 . S
H415 C424 0.930 . S
H416 C429 0.929 . S
H417 C427 0.929 . S
H418 C422 0.929 . S
H419 C428 0.929 . S
C420 H414 0.930 . S
C420 C421 1.367 . S
C420 C428 1.378 . S
C421 C420 1.367 . S
C421 C429 1.433 . S
C422 H418 0.929 . S
C422 C424 1.378 . S
C422 C426 1.350 . S
C423 C426 1.463 . S
C423 C428 1.350 . S
C423 N431 1.427 . S
C424 H415 0.930 . S
C424 C422 1.378 . S
C424 C425 1.367 . S
C425 C424 1.367 . S
C425 C427 1.433 . S
C426 C422 1.350 . S
C426 C423 1.463 . S
C426 N430 1.427 . S
C427 H417 0.929 . S
C427 C425 1.433 . S
C427 N430 1.384 . S
C428 H419 0.929 . S
C428 C420 1.378 . S
C428 C423 1.350 . S
C429 H416 0.929 . S
C429 C421 1.433 . S
C429 N431 1.384 . S
N430 C426 1.427 . S
N430 C427 1.384 . S
N431 C423 1.427 . S
N431 C429 1.384 . S
H432 C438 0.930 . S
H433 C442 0.930 . S
H434 C447 0.929 . S
H435 C445 0.929 . S
H436 C440 0.929 . S
H437 C446 0.929 . S
C438 H432 0.930 . S
C438 C439 1.367 . S
C438 C446 1.378 . S
C439 C438 1.367 . S
C439 C447 1.433 . S
C440 H436 0.929 . S
C440 C442 1.378 . S
C440 C444 1.350 . S
C441 C444 1.463 . S
C441 C446 1.350 . S
C441 N449 1.427 . S
C442 H433 0.930 . S
C442 C440 1.378 . S
C442 C443 1.367 . S
C443 C442 1.367 . S
C443 C445 1.433 . S
C444 C440 1.350 . S
C444 C441 1.463 . S
C444 N448 1.427 . S
C445 H435 0.929 . S
C445 C443 1.433 . S
C445 N448 1.384 . S
C446 H437 0.929 . S
C446 C438 1.378 . S
C446 C441 1.350 . S
C447 H434 0.929 . S
C447 C439 1.433 . S
C447 N449 1.384 . S
N448 C444 1.427 . S
N448 C445 1.384 . S
N449 C441 1.427 . S
N449 C447 1.384 . S
H450 C456 0.930 . S
H451 C460 0.930 1_655 S
H452 C465 0.929 1_655 S
H453 C463 0.929 . S
H454 C458 0.929 1_655 S
H455 C464 0.929 . S
C456 H450 0.930 . S
C456 C457 1.367 . S
C456 C464 1.378 . S
C457 C456 1.367 . S
C457 C465 1.433 . S
C458 H454 0.929 1_455 S
C458 C460 1.378 . S
C458 C462 1.350 . S
C459 C462 1.463 1_554 S
C459 C464 1.350 . S
C459 N467 1.427 . S
C460 H451 0.930 1_455 S
C460 C458 1.378 . S
C460 C461 1.367 . S
C461 C460 1.367 . S
C461 C463 1.433 . S
C462 C458 1.350 . S
C462 C459 1.463 1_556 S
C462 N466 1.427 . S
C463 H453 0.929 . S
C463 C461 1.433 . S
C463 N466 1.384 . S
C464 H455 0.929 . S
C464 C456 1.378 . S
C464 C459 1.350 . S
C465 H452 0.929 1_455 S
C465 C457 1.433 . S
C465 N467 1.384 . S
N466 C462 1.427 . S
N466 C463 1.384 . S
N467 C459 1.427 . S
N467 C465 1.384 . S
H468 C474 0.930 . S
H469 C478 0.930 . S
H470 C483 0.929 . S
H471 C481 0.929 . S
H472 C476 0.929 . S
H473 C482 0.929 . S
C474 H468 0.930 . S
C474 C475 1.367 . S
C474 C482 1.378 . S
C475 C474 1.367 . S
C475 C483 1.433 . S
C476 H472 0.929 . S
C476 C478 1.378 . S
C476 C480 1.350 . S
C477 C480 1.463 . S
C477 C482 1.350 . S
C477 N485 1.427 . S
C478 H469 0.930 . S
C478 C476 1.378 . S
C478 C479 1.367 . S
C479 C478 1.367 . S
C479 C481 1.433 . S
C480 C476 1.350 . S
C480 C477 1.463 . S
C480 N484 1.427 . S
C481 H471 0.929 . S
C481 C479 1.433 . S
C481 N484 1.384 . S
C482 H473 0.929 . S
C482 C474 1.378 . S
C482 C477 1.350 . S
C483 H470 0.929 . S
C483 C475 1.433 . S
C483 N485 1.384 . S
N484 C480 1.427 . S
N484 C481 1.384 . S
N485 C477 1.427 . S
N485 C483 1.384 . S
H486 C492 0.930 . S
H487 C496 0.930 . S
H488 C501 0.929 . S
H489 C499 0.929 . S
H490 C494 0.929 . S
H491 C500 0.929 . S
C492 H486 0.930 . S
C492 C493 1.367 . S
C492 C500 1.378 . S
C493 C492 1.367 . S
C493 C501 1.433 . S
C494 H490 0.929 . S
C494 C496 1.378 . S
C494 C498 1.350 . S
C495 C498 1.463 . S
C495 C500 1.350 . S
C495 N503 1.427 . S
C496 H487 0.930 . S
C496 C494 1.378 . S
C496 C497 1.367 . S
C497 C496 1.367 . S
C497 C499 1.433 . S
C498 C494 1.350 . S
C498 C495 1.463 . S
C498 N502 1.427 . S
C499 H489 0.929 . S
C499 C497 1.433 . S
C499 N502 1.384 . S
C500 H491 0.929 . S
C500 C492 1.378 . S
C500 C495 1.350 . S
C501 H488 0.929 . S
C501 C493 1.433 . S
C501 N503 1.384 . S
N502 C498 1.427 . S
N502 C499 1.384 . S
N503 C495 1.427 . S
N503 C501 1.384 . S
H504 C510 0.930 . S
H505 C514 0.930 . S
H506 C519 0.929 . S
H507 C517 0.929 . S
H508 C512 0.929 . S
H509 C518 0.929 . S
C510 H504 0.930 . S
C510 C511 1.367 . S
C510 C518 1.378 . S
C511 C510 1.367 . S
C511 C519 1.433 . S
C512 H508 0.929 . S
C512 C514 1.378 . S
C512 C516 1.350 . S
C513 C516 1.463 . S
C513 C518 1.350 . S
C513 N521 1.427 . S
C514 H505 0.930 . S
C514 C512 1.378 . S
C514 C515 1.367 . S
C515 C514 1.367 . S
C515 C517 1.433 . S
C516 C512 1.350 . S
C516 C513 1.463 . S
C516 N520 1.427 . S
C517 H507 0.929 . S
C517 C515 1.433 . S
C517 N520 1.384 . S
C518 H509 0.929 . S
C518 C510 1.378 . S
C518 C513 1.350 . S
C519 H506 0.929 . S
C519 C511 1.433 . S
C519 N521 1.384 . S
N520 C516 1.427 . S
N520 C517 1.384 . S
N521 C513 1.427 . S
N521 C519 1.384 . S
H522 C528 0.930 . S
H523 C532 0.930 . S
H524 C537 0.929 . S
H525 C535 0.929 . S
H526 C530 0.929 . S
H527 C536 0.929 . S
C528 H522 0.930 . S
C528 C529 1.367 . S
C528 C536 1.378 . S
C529 C528 1.367 . S
C529 C537 1.433 . S
C530 H526 0.929 . S
C530 C532 1.378 . S
C530 C534 1.350 . S
C531 C534 1.463 1_556 S
C531 C536 1.350 . S
C531 N539 1.427 . S
C532 H523 0.930 . S
C532 C530 1.378 . S
C532 C533 1.367 . S
C533 C532 1.367 . S
C533 C535 1.433 . S
C534 C530 1.350 . S
C534 C531 1.463 1_554 S
C534 N538 1.427 . S
C535 H525 0.929 . S
C535 C533 1.433 . S
C535 N538 1.384 . S
C536 H527 0.929 . S
C536 C528 1.378 . S
C536 C531 1.350 . S
C537 H524 0.929 . S
C537 C529 1.433 . S
C537 N539 1.384 . S
N538 C534 1.427 . S
N538 C535 1.384 . S
N539 C531 1.427 . S
N539 C537 1.384 . S
H540 C546 0.930 . S
H541 C550 0.930 . S
H542 C555 0.929 . S
H543 C553 0.929 . S
H544 C548 0.929 . S
H545 C554 0.929 . S
C546 H540 0.930 . S
C546 C547 1.367 . S
C546 C554 1.378 . S
C547 C546 1.367 . S
C547 C555 1.433 . S
C548 H544 0.929 . S
C548 C550 1.378 . S
C548 C552 1.350 . S
C549 C552 1.463 . S
C549 C554 1.350 . S
C549 N557 1.427 . S
C550 H541 0.930 . S
C550 C548 1.378 . S
C550 C551 1.367 . S
C551 C550 1.367 . S
C551 C553 1.433 . S
C552 C548 1.350 . S
C552 C549 1.463 . S
C552 N556 1.427 . S
C553 H543 0.929 . S
C553 C551 1.433 . S
C553 N556 1.384 . S
C554 H545 0.929 . S
C554 C546 1.378 . S
C554 C549 1.350 . S
C555 H542 0.929 . S
C555 C547 1.433 . S
C555 N557 1.384 . S
N556 C552 1.427 . S
N556 C553 1.384 . S
N557 C549 1.427 . S
N557 C555 1.384 . S
C241 C10 3.243 . S
C245 C226 3.158 . S
C259 C55 1.315 . S
C263 C188 1.240 . S
C277 C90 1.994 . S
C281 C207 1.942 . S
C295 C19 2.951 . S
C299 C221 2.925 . S
C317 C183 1.111 . S
C313 C46 1.120 . S
C335 C202 1.908 . S
C331 C99 1.921 . S
C349 C50 2.001 . S
C353 C150 1.943 . S
C367 C95 0.445 . S
C371 C164 0.371 1_655 S
C385 C6 1.141 . S
C389 C126 1.123 1_565 S
C407 C145 1.870 . S
C403 C59 1.894 . S
C425 C169 0.613 . S
C421 C86 0.536 . S
C439 C15 1.312 . S
C443 C131 1.253 . S
C461 C160 1.341 . S
C457 C18 1.302 . S
C475 C49 1.563 . S
C479 C122 1.565 . S
C493 C98 1.511 . S
C497 C141 1.523 . S
C515 C198 1.531 . S
C511 C58 1.472 . S
C533 C217 1.765 . S
C529 C89 1.673 . S
C547 C9 1.569 . S
C551 C179 1.558 . S
