# Generated by pormake.
# Topology pth, (4,4)-cn, num edge types: 1
# Building blocks:
#     Node 0, Type 0, BuildingBlock: NAHDIM_clean_sbu_0, # of connection points: 4
#     Node 1, Type 0, BuildingBlock: NAHDIM_clean_sbu_0, # of connection points: 4
#     Node 2, Type 0, BuildingBlock: NAHDIM_clean_sbu_0, # of connection points: 4
#     Node 3, Type 1, BuildingBlock: AZAVOO_clean_linker_0, # of connection points: 4
#     Node 4, Type 1, BuildingBlock: AZAVOO_clean_linker_0, # of connection points: 4
#     Node 5, Type 1, BuildingBlock: AZAVOO_clean_linker_0, # of connection points: 4
#     Edge 6, Type (0, 1), BuildingBlock: FUNLAD_clean_linker_0, # of connection points: 2
#     Edge 7, Type (0, 1), BuildingBlock: FUNLAD_clean_linker_0, # of connection points: 2
#     Edge 8, Type (0, 1), BuildingBlock: FUNLAD_clean_linker_0, # of connection points: 2
#     Edge 9, Type (0, 1), BuildingBlock: FUNLAD_clean_linker_0, # of connection points: 2
#     Edge 10, Type (0, 1), BuildingBlock: FUNLAD_clean_linker_0, # of connection points: 2
#     Edge 11, Type (0, 1), BuildingBlock: FUNLAD_clean_linker_0, # of connection points: 2
#     Edge 12, Type (0, 1), BuildingBlock: FUNLAD_clean_linker_0, # of connection points: 2
#     Edge 13, Type (0, 1), BuildingBlock: FUNLAD_clean_linker_0, # of connection points: 2
#     Edge 14, Type (0, 1), BuildingBlock: FUNLAD_clean_linker_0, # of connection points: 2
#     Edge 15, Type (0, 1), BuildingBlock: FUNLAD_clean_linker_0, # of connection points: 2
#     Edge 16, Type (0, 1), BuildingBlock: FUNLAD_clean_linker_0, # of connection points: 2
#     Edge 17, Type (0, 1), BuildingBlock: FUNLAD_clean_linker_0, # of connection points: 2
# Relax obj value: 0.150
# Max RMSD: 0.228
# Mean RMSD: 0.208
data_MOF--net-pth--node1-NAHDIM_clean_sbu_0--node2-AZAVOO_clean_linker_0--edge1-FUNLAD_clean_linker_0
_symmetry_space_group_name_H-M    P1
_symmetry_Int_Tables_number       1
_symmetry_cell_setting            triclinic
loop_
_symmetry_equiv_pos_as_xyz
'x, y, z'
_cell_length_a     29.74917
_cell_length_b     30.100253
_cell_length_c     79.54506
_cell_angle_alpha  93.987989
_cell_angle_beta   88.957743
_cell_angle_gamma 120.51396
loop_
_atom_site_label
_atom_site_type_symbol
_atom_site_fract_x
_atom_site_fract_y
_atom_site_fract_z
_atom_type_partial_charge
C0 C 0.12273 0.02021 0.0721 0.0
O1 O 0.15294 0.06919 0.07712 0.0
O2 O 0.04145 0.08341 0.07103 0.0
Zn3 Zn 0.07433 0.06133 0.05258 0.0
O4 O 0.02958 0.03256 0.03151 0.0
C5 C 0.17312 0.12098 0.03662 0.0
O6 O 0.16325 0.07541 0.03022 0.0
O7 O 0.08701 0.00772 0.06114 0.0
C8 C 0.9868 0.03143 0.02932 0.0
O9 O 0.9684 0.04865 0.04163 0.0
C10 C 0.04214 0.12579 0.07041 0.0
O11 O 0.06162 0.15275 0.05715 0.0
O12 O 0.14128 0.12376 0.04685 0.0
C13 C 0.06366 0.13965 0.35937 0.0
O14 O 0.02452 0.09554 0.36385 0.0
O15 O 0.09609 0.0435 0.37319 0.0
Zn16 Zn 0.11592 0.11462 0.38302 0.0
O17 O 0.06975 0.11039 0.4022 0.0
C18 C 0.22208 0.13809 0.38562 0.0
O19 O 0.20873 0.10687 0.37189 0.0
O20 O 0.10876 0.15606 0.3657 0.0
C21 C 0.07388 0.09573 0.41639 0.0
O22 O 0.10832 0.08141 0.41845 0.0
C23 C 0.05295 0.00258 0.37548 0.0
O24 O 0.01691 0.00555 0.38443 0.0
O25 O 0.18927 0.149 0.39215 0.0
C26 C 0.17316 0.06566 0.70678 0.0
O27 O 0.18023 0.11151 0.71144 0.0
O28 O 0.02899 0.04379 0.70451 0.0
Zn29 Zn 0.07609 0.03947 0.72128 0.0
O30 O 0.11509 0.10582 0.73585 0.0
C31 C 0.99531 0.99227 0.74336 0.0
O32 O 0.99588 0.03505 0.74054 0.0
O33 O 0.12933 0.0258 0.70943 0.0
C34 C 0.1135 0.14679 0.73443 0.0
O35 O 0.0816 0.14695 0.72327 0.0
C36 C 0.04027 0.05827 0.68963 0.0
O37 O 0.0874 0.07341 0.68407 0.0
O38 O 0.02901 0.98361 0.73624 0.0
H39 H 0.00882 0.4271 0.11718 0.0
H40 H 0.01987 0.85555 0.25294 0.0
H41 H 0.92515 0.41504 0.20838 0.0
H42 H 0.9321 0.34896 0.19086 0.0
H43 H 0.10027 0.44087 0.19553 0.0
H44 H 0.09272 0.50732 0.21273 0.0
H45 H 0.93452 0.47332 0.18084 0.0
H46 H 0.94992 0.44496 0.15285 0.0
H47 H 0.11481 0.5562 0.15921 0.0
H48 H 0.09882 0.58381 0.18725 0.0
H49 H 0.93754 0.572 0.18232 0.0
H50 H 0.95266 0.62694 0.15908 0.0
H51 H 0.10413 0.73914 0.18076 0.0
H52 H 0.08929 0.68302 0.20357 0.0
H53 H 0.91514 0.61246 0.21998 0.0
H54 H 0.90708 0.68844 0.22742 0.0
H55 H 0.06605 0.77093 0.24677 0.0
H56 H 0.07363 0.69487 0.23912 0.0
H57 H 0.90578 0.5441 0.25299 0.0
H58 H 0.89407 0.58107 0.27996 0.0
H59 H 0.0615 0.66822 0.28795 0.0
H60 H 0.0724 0.62985 0.26126 0.0
H61 H 0.92664 0.4331 0.24412 0.0
H62 H 0.93936 0.38013 0.26345 0.0
H63 H 0.10008 0.50175 0.27164 0.0
H64 H 0.08723 0.55356 0.25203 0.0
O65 O 0.00336 0.44005 0.12803 0.0
O66 O 0.08743 0.49943 0.13159 0.0
O67 O 0.94061 0.78108 0.23959 0.0
O68 O 0.02204 0.82504 0.2498 0.0
C69 C 0.00458 0.51217 0.21649 0.0
C70 C 0.00705 0.54355 0.20369 0.0
C71 C 0.0051 0.58874 0.20789 0.0
C72 C -0.00088 0.60176 0.22482 0.0
C73 C 0.99711 0.57052 0.23764 0.0
C74 C 0.00094 0.52628 0.23349 0.0
C75 C 0.00844 0.4659 0.21168 0.0
C76 C 0.96335 0.41972 0.20624 0.0
C77 C 0.96746 0.3821 0.19618 0.0
C78 C 0.01679 0.3903 0.19152 0.0
C79 C 0.06176 0.43405 0.19864 0.0
C80 C 0.05758 0.47169 0.20864 0.0
C81 C 0.01556 0.53057 0.18601 0.0
C82 C 0.97382 0.49184 0.17607 0.0
C83 C 0.98278 0.47562 0.16012 0.0
C84 C 0.03365 0.49812 0.15383 0.0
C85 C 0.07519 0.53799 0.16369 0.0
C86 C 0.06616 0.55404 0.17966 0.0
C87 C 0.01227 0.62372 0.1946 0.0
C88 C 0.97383 0.60857 0.18204 0.0
C89 C 0.98248 0.64008 0.16884 0.0
C90 C 0.0297 0.68733 0.16805 0.0
C91 C 0.06772 0.70265 0.18087 0.0
C92 C 0.0591 0.67101 0.194 0.0
C93 C 0.9948 0.64817 0.22913 0.0
C94 C 0.94814 0.64705 0.2258 0.0
C95 C 0.94366 0.69044 0.23008 0.0
C96 C 0.9859 0.73573 0.23775 0.0
C97 C 0.03273 0.73668 0.24094 0.0
C98 C 0.03716 0.69329 0.23663 0.0
C99 C 0.98988 0.58424 0.25528 0.0
C100 C 0.9397 0.56993 0.26087 0.0
C101 C 0.93318 0.5915 0.27617 0.0
C102 C 0.97686 0.62806 0.28604 0.0
C103 C 0.02695 0.63974 0.28081 0.0
C104 C 0.03336 0.61792 0.26555 0.0
C105 C 0.00593 0.49717 0.24683 0.0
C106 C 0.96426 0.44845 0.25033 0.0
C107 C 0.97161 0.4184 0.26137 0.0
C108 C 0.02085 0.43666 0.26896 0.0
C109 C 0.06193 0.48632 0.2658 0.0
C110 C 0.05454 0.51621 0.25478 0.0
C111 C 0.04329 0.47948 0.13715 0.0
C112 C 0.98128 0.78185 0.2424 0.0
H113 H 0.669 0.08594 0.43724 0.0
H114 H 0.33387 0.13862 0.57674 0.0
H115 H 0.63653 -0.00187 0.52287 0.0
H116 H 0.71407 -0.00201 0.51229 0.0
H117 H 0.812 0.1444 0.54028 0.0
H118 H 0.73392 0.14483 0.55038 0.0
H119 H 0.56285 0.02034 0.50118 0.0
H120 H 0.59521 0.03416 0.47239 0.0
H121 H 0.72756 0.18138 0.48994 0.0
H122 H 0.69437 0.1673 0.51863 0.0
H123 H 0.47305 0.02376 0.51521 0.0
H124 H 0.43374 0.04748 0.49325 0.0
H125 H 0.55603 0.20723 0.50156 0.0
H126 H 0.59505 0.18307 0.52346 0.0
H127 H 0.4436 -0.00139 0.5532 0.0
H128 H 0.36623 0.00272 0.56176 0.0
H129 H 0.45878 0.16975 0.5653 0.0
H130 H 0.53584 0.16496 0.55683 0.0
H131 H 0.50475 0.97796 0.57615 0.0
H132 H 0.45321 0.96563 0.6016 0.0
H133 H 0.53492 0.13118 0.61281 0.0
H134 H 0.58468 0.14296 0.58706 0.0
H135 H 0.62844 0.98668 0.56325 0.0
H136 H 0.6919 0.98607 0.5823 0.0
H137 H 0.73495 0.13979 0.60266 0.0
H138 H 0.67258 0.14053 0.58326 0.0
O139 O 0.65686 0.0813 0.44872 0.0
O140 O 0.72435 0.1565 0.45839 0.0
O141 O 0.31777 0.04992 0.57106 0.0
O142 O 0.36367 0.13587 0.57316 0.0
C143 C 0.63269 0.07434 0.54187 0.0
C144 C 0.60638 0.08427 0.52939 0.0
C145 C 0.56176 0.08734 0.53358 0.0
C146 C 0.54238 0.07876 0.55004 0.0
C147 C 0.56888 0.06917 0.56256 0.0
C148 C 0.61459 0.0679 0.55857 0.0
C149 C 0.67974 0.07155 0.53731 0.0
C150 C 0.67477 0.02976 0.52689 0.0
C151 C 0.71911 0.02959 0.52098 0.0
C152 C 0.76921 0.07127 0.52542 0.0
C153 C 0.77395 0.11203 0.5365 0.0
C154 C 0.72951 0.1122 0.54237 0.0
C155 C 0.6263 0.09279 0.51195 0.0
C156 C 0.59872 0.05561 0.49875 0.0
C157 C 0.61736 0.06357 0.48233 0.0
C158 C 0.66401 0.10887 0.47886 0.0
C159 C 0.69154 0.14606 0.49217 0.0
C160 C 0.67276 0.13809 0.50857 0.0
C161 C 0.53673 0.10176 0.52084 0.0
C162 C 0.49109 0.06383 0.5123 0.0
C163 C 0.46901 0.07739 0.49973 0.0
C164 C 0.49205 0.12916 0.49569 0.0
C165 C 0.53735 0.16714 0.50451 0.0
C166 C 0.55968 0.15346 0.51695 0.0
C167 C 0.49511 0.08147 0.55439 0.0
C168 C 0.44693 0.036 0.55577 0.0
C169 C 0.40289 0.03849 0.56068 0.0
C170 C 0.40635 0.08661 0.56425 0.0
C171 C 0.45474 0.1321 0.56266 0.0
C172 C 0.49876 0.12952 0.55777 0.0
C173 C 0.54831 0.0613 0.57983 0.0
C174 C 0.51251 0.01134 0.58441 0.0
C175 C 0.48313 0.00442 0.59894 0.0
C176 C 0.48941 0.04749 0.60907 0.0
C177 C 0.52843 0.09729 0.60508 0.0
C178 C 0.55737 0.10413 0.59051 0.0
C179 C 0.64581 0.06354 0.57196 0.0
C180 C 0.65092 0.01974 0.57207 0.0
C181 C 0.68711 0.01949 0.58296 0.0
C182 C 0.71874 0.0631 0.59388 0.0
C183 C 0.71172 0.10595 0.59422 0.0
C184 C 0.67562 0.10617 0.58333 0.0
C185 C 0.68372 0.11718 0.46141 0.0
C186 C 0.35983 0.08947 0.56968 0.0
H187 H 0.64486 0.74849 0.99297 0.0
H188 H 0.25632 0.27438 0.8683 0.0
H189 H 0.56663 0.73912 0.89523 0.0
H190 H 0.63781 0.82207 0.90714 0.0
H191 H 0.73269 0.75244 0.91241 0.0
H192 H 0.66201 0.67049 0.89995 0.0
H193 H 0.53424 0.68855 0.92785 0.0
H194 H 0.57473 0.72332 0.95582 0.0
H195 H 0.63649 0.62034 0.95306 0.0
H196 H 0.59638 0.58645 0.92499 0.0
H197 H 0.44351 0.57175 0.93193 0.0
H198 H 0.41319 0.51484 0.95527 0.0
H199 H 0.4724 0.42298 0.93043 0.0
H200 H 0.50429 0.48123 0.90761 0.0
H201 H 0.37433 0.52471 0.89426 0.0
H202 H 0.29408 0.44074 0.88955 0.0
H203 H 0.38521 0.37353 0.87059 0.0
H204 H 0.46503 0.45764 0.87545 0.0
H205 H 0.42892 0.60256 0.86069 0.0
H206 H 0.37679 0.56341 0.83467 0.0
H207 H 0.45451 0.47595 0.82482 0.0
H208 H 0.5076 0.51691 0.85047 0.0
H209 H 0.54641 0.71076 0.86309 0.0
H210 H 0.60515 0.76132 0.84094 0.0
H211 H 0.66511 0.65694 0.83644 0.0
H212 H 0.60745 0.60777 0.85879 0.0
O213 O 0.62888 0.73393 0.98194 0.0
O214 O 0.65893 0.67956 0.98005 0.0
O215 O 0.2423 0.34445 0.88009 0.0
O216 O 0.28739 0.30801 0.87031 0.0
C217 C 0.56281 0.64703 0.89354 0.0
C218 C 0.53961 0.61569 0.90717 0.0
C219 C 0.49607 0.56554 0.90423 0.0
C220 C 0.4736 0.54816 0.88791 0.0
C221 C 0.4967 0.57971 0.87434 0.0
C222 C 0.54245 0.62826 0.87704 0.0
C223 C 0.60935 0.69902 0.89677 0.0
C224 C 0.60357 0.74249 0.89836 0.0
C225 C 0.64402 0.78959 0.90535 0.0
C226 C 0.69065 0.79369 0.91095 0.0
C227 C 0.69757 0.75087 0.9081 0.0
C228 C 0.65721 0.70392 0.90102 0.0
C229 C 0.56233 0.63497 0.92444 0.0
C230 C 0.55648 0.67354 0.93334 0.0
C231 C 0.57964 0.6933 0.9493 0.0
C232 C 0.60887 0.67462 0.95668 0.0
C233 C 0.61423 0.63557 0.94775 0.0
C234 C 0.59121 0.616 0.93175 0.0
C235 C 0.47567 0.53026 0.91807 0.0
C236 C 0.44988 0.53932 0.9316 0.0
C237 C 0.43249 0.50671 0.94486 0.0
C238 C 0.4405 0.46442 0.94472 0.0
C239 C 0.46635 0.45562 0.93108 0.0
C240 C 0.48395 0.48839 0.91791 0.0
C241 C 0.42526 0.49714 0.8851 0.0
C242 C 0.37676 0.49174 0.88909 0.0
C243 C 0.33106 0.44379 0.88638 0.0
C244 C 0.33322 0.40041 0.87966 0.0
C245 C 0.3821 0.4061 0.87575 0.0
C246 C 0.42774 0.45408 0.87847 0.0
C247 C 0.47164 0.56222 0.85742 0.0
C248 C 0.4354 0.57586 0.85265 0.0
C249 C 0.40541 0.55312 0.83788 0.0
C250 C 0.41103 0.5161 0.82774 0.0
C251 C 0.44951 0.5047 0.83219 0.0
C252 C 0.47971 0.52777 0.84689 0.0
C253 C 0.57312 0.65599 0.86255 0.0
C254 C 0.57202 0.69879 0.85719 0.0
C255 C 0.60532 0.72733 0.8445 0.0
C256 C 0.64008 0.71333 0.83706 0.0
C257 C 0.63947 0.66921 0.84212 0.0
C258 C 0.60634 0.64088 0.85477 0.0
C259 C 0.63378 0.69601 0.97358 0.0
C260 C 0.28481 0.34939 0.87673 0.0
C261 C 0.02685 0.19378 0.0844 0.0
C262 C 0.02596 0.14686 0.08509 0.0
C263 C 0.01691 0.21657 0.09876 0.0
C264 C 0.00643 0.19313 0.11418 0.0
C265 C 0.00258 0.14481 0.11462 0.0
C266 C 0.01243 0.12193 0.10023 0.0
C267 C 0.00053 0.21864 0.13003 0.0
C268 C 0.02599 0.27048 0.13284 0.0
C269 C 0.02388 0.29877 0.14865 0.0
C270 C 0.05827 0.35241 0.15044 0.0
C271 C 0.05701 0.38159 0.16462 0.0
C272 C 0.02128 0.35785 0.17746 0.0
H273 H 0.96046 0.23374 0.16071 0.0
C274 C 0.98714 0.30408 0.17584 0.0
C275 C 0.9883 0.27475 0.16158 0.0
H276 H 0.95903 0.28478 0.18551 0.0
H277 H 0.03623 0.21352 0.07285 0.0
H278 H 0.01793 0.25274 0.09775 0.0
H279 H 0.99377 0.12557 0.12627 0.0
H280 H 0.01097 0.08548 0.10114 0.0
H281 H 0.97788 0.19393 0.13989 0.0
H282 H 0.05169 0.29406 0.12319 0.0
H283 H 0.08582 0.37216 0.14067 0.0
H284 H 0.08288 0.42313 0.16522 0.0
C285 C 0.04504 0.08038 0.44633 0.0
C286 C 0.04144 0.09675 0.43054 0.0
C287 C 0.01504 0.08264 0.45975 0.0
C288 C 0.98079 0.10126 0.45758 0.0
C289 C 0.97758 0.11785 0.44183 0.0
C290 C 0.0073 0.1154 0.42844 0.0
C291 C 0.94841 0.1051 0.47136 0.0
C292 C 0.93358 0.07607 0.48475 0.0
C293 C 0.89607 0.07725 0.49706 0.0
C294 C 0.85996 0.03155 0.50432 0.0
C295 C 0.81993 0.02998 0.51422 0.0
C296 C 0.81573 0.07433 0.51718 0.0
H297 H 0.92237 0.15883 0.49607 0.0
C298 C 0.85409 0.12093 0.51086 0.0
C299 C 0.89399 0.12246 0.50097 0.0
H300 H 0.85198 0.15578 0.51286 0.0
H301 H 0.0713 0.06618 0.44838 0.0
H302 H 0.01959 0.07071 0.47181 0.0
H303 H 0.95172 0.13258 0.43982 0.0
H304 H 0.00372 0.12853 0.41647 0.0
H305 H 0.9328 0.13025 0.46964 0.0
H306 H 0.94454 0.04703 0.4858 0.0
H307 H 0.86125 0.99641 0.50171 0.0
H308 H 0.79145 0.99373 0.51919 0.0
C309 C 0.91932 0.96628 0.76226 0.0
C310 C 0.95526 0.9549 0.75434 0.0
C311 C 0.88085 0.93125 0.77249 0.0
C312 C 0.87707 0.88364 0.77494 0.0
C313 C 0.91348 0.87257 0.76724 0.0
C314 C 0.95211 0.90774 0.75698 0.0
C315 C 0.8373 0.84598 0.78607 0.0
C316 C 0.79177 0.84397 0.78952 0.0
C317 C 0.75316 0.80872 0.80145 0.0
C318 C 0.70137 0.79777 0.80043 0.0
C319 C 0.66442 0.76653 0.81188 0.0
C320 C 0.67862 0.74576 0.82464 0.0
H321 H 0.80723 0.79722 0.81602 0.0
C322 C 0.73051 0.75698 0.82574 0.0
C323 C 0.76742 0.78822 0.81433 0.0
H324 H 0.74298 0.74261 0.83569 0.0
H325 H 0.92097 0.00252 0.76064 0.0
H326 H 0.85494 0.94228 0.77869 0.0
H327 H 0.91188 0.83647 0.7691 0.0
H328 H 0.97936 0.89792 0.75111 0.0
H329 H 0.84552 0.81825 0.79116 0.0
H330 H 0.78142 0.86829 0.7831 0.0
H331 H 0.68943 0.81345 0.79074 0.0
H332 H 0.62468 0.75839 0.81068 0.0
C333 C 0.16063 0.99259 0.09417 0.0
C334 C 0.12549 0.97955 0.08062 0.0
C335 C 0.1583 0.95408 0.10363 0.0
C336 C 0.12055 0.90201 0.09982 0.0
C337 C 0.08782 0.88869 0.08555 0.0
C338 C 0.09021 0.92711 0.07608 0.0
C339 C 0.11448 0.86291 0.11141 0.0
C340 C 0.06759 0.82145 0.11428 0.0
C341 C 0.05878 0.78595 0.12761 0.0
C342 C 0.00912 0.75949 0.13466 0.0
C343 C -0.00043 0.72732 0.14772 0.0
C344 C 0.03945 0.72051 0.15389 0.0
H345 H 0.1367 0.79654 0.12796 0.0
C346 C 0.08882 0.74585 0.1465 0.0
C347 C 0.09842 0.77818 0.13347 0.0
H348 H 0.11998 0.74034 0.1507 0.0
H349 H 0.18866 0.03262 0.09788 0.0
H350 H 0.18446 0.96523 0.11442 0.0
H351 H 0.05964 0.84873 0.08186 0.0
H352 H 0.0632 0.9157 0.06552 0.0
H353 H 0.14817 0.87171 0.1191 0.0
H354 H 0.03319 0.8159 0.10773 0.0
H355 H 0.97782 0.76459 0.13031 0.0
H356 H 0.96122 0.70866 0.15321 0.0
C357 C 0.28515 0.18677 0.40959 0.0
C358 C 0.27075 0.15311 0.39498 0.0
C359 C 0.32604 0.19431 0.42002 0.0
C360 C 0.35294 0.1677 0.41615 0.0
C361 C 0.34113 0.13732 0.40087 0.0
C362 C 0.30044 0.13003 0.39038 0.0
C363 C 0.39058 0.16731 0.4281 0.0
C364 C 0.39157 0.17875 0.44483 0.0
C365 C 0.42139 0.1682 0.45708 0.0
C366 C 0.43719 0.19758 0.47257 0.0
C367 C 0.46118 0.18564 0.485 0.0
C368 C 0.4689 0.14341 0.48227 0.0
H369 H 0.41679 0.1018 0.44269 0.0
C370 C 0.4534 0.11414 0.46674 0.0
C371 C 0.4299 0.12638 0.45425 0.0
H372 H 0.45913 0.08151 0.4643 0.0
H373 H 0.26367 0.20597 0.41329 0.0
H374 H 0.3353 0.22001 0.43124 0.0
H375 H 0.36167 0.11697 0.39742 0.0
H376 H 0.29066 0.10423 0.37912 0.0
H377 H 0.41518 0.15267 0.42311 0.0
H378 H 0.36799 0.19416 0.45008 0.0
H379 H 0.43038 0.2295 0.47514 0.0
H380 H 0.47234 0.20852 0.49693 0.0
C381 C 0.14915 0.24045 0.74364 0.0
C382 C 0.15133 0.19499 0.74414 0.0
C383 C 0.18675 0.28638 0.75229 0.0
C384 C 0.22729 0.28755 0.76153 0.0
C385 C 0.22946 0.24219 0.76192 0.0
C386 C 0.19177 0.19637 0.75346 0.0
C387 C 0.26861 0.33513 0.77073 0.0
C388 C 0.26149 0.37347 0.7773 0.0
C389 C 0.30109 0.41586 0.78877 0.0
C390 C 0.28443 0.43401 0.80282 0.0
C391 C 0.32043 0.46838 0.81515 0.0
C392 C 0.37398 0.48593 0.81351 0.0
H393 H 0.36904 0.42397 0.77552 0.0
C394 C 0.39092 0.47062 0.79879 0.0
C395 C 0.35485 0.43591 0.78654 0.0
H396 H 0.43198 0.48446 0.79692 0.0
H397 H 0.11869 0.24069 0.73646 0.0
H398 H 0.18453 0.32094 0.75142 0.0
H399 H 0.26036 0.24208 0.7689 0.0
H400 H 0.19493 0.16219 0.75402 0.0
H401 H 0.30474 0.33614 0.77358 0.0
H402 H 0.22372 0.37044 0.77604 0.0
H403 H 0.24323 0.41938 0.80475 0.0
H404 H 0.30587 0.47898 0.82637 0.0
C405 C 0.01066 0.07157 0.66204 0.0
C406 C -0.00034 0.05629 0.67862 0.0
C407 C 0.97159 0.0684 0.65163 0.0
C408 C 0.92074 0.05008 0.65765 0.0
C409 C 0.90986 0.03457 0.67417 0.0
C410 C 0.94883 0.03785 0.68457 0.0
C411 C 0.8776 0.04502 0.64704 0.0
C412 C 0.88515 0.07316 0.63373 0.0
C413 C 0.84156 0.06925 0.62365 0.0
C414 C 0.85035 0.11189 0.61498 0.0
C415 C 0.81039 0.10996 0.60545 0.0
C416 C 0.76075 0.06507 0.60425 0.0
H417 H 0.78418 0.98966 0.62829 0.0
C418 C 0.75211 0.02198 0.61267 0.0
C419 C 0.79209 0.02395 0.62225 0.0
H420 H 0.71432 0.9868 0.61194 0.0
H421 H 0.04931 0.08553 0.65704 0.0
H422 H 0.98125 0.07931 0.63881 0.0
H423 H 0.87101 0.02 0.67911 0.0
H424 H 0.93889 0.02555 0.69726 0.0
H425 H 0.83809 0.01923 0.65104 0.0
H426 H 0.92446 0.10254 0.63066 0.0
H427 H 0.88822 0.14701 0.61566 0.0
H428 H 0.81863 0.14343 0.5988 0.0
C429 C 0.91013 0.00794 0.01052 0.0
C430 C 0.95823 0.0109 0.01299 0.0
C431 C 0.88265 0.98739 0.99521 0.0
C432 C 0.90298 0.96967 0.98197 0.0
C433 C 0.95124 0.97307 0.98444 0.0
C434 C 0.97867 0.99359 -0.00026 0.0
C435 C 0.87342 0.94358 0.96599 0.0
C436 C 0.83363 0.94805 0.96029 0.0
C437 C 0.79936 0.9145 0.94594 0.0
C438 C 0.74623 0.89884 0.94634 0.0
C439 C 0.71126 0.86147 0.93441 0.0
C440 C 0.72889 0.83956 0.92166 0.0
H441 H 0.85872 0.90811 0.93146 0.0
C442 C 0.78269 0.85814 0.92052 0.0
C443 C 0.81765 0.89532 0.93253 0.0
H444 H 0.7976 0.84284 0.91061 0.0
H445 H 0.89321 0.02073 0.02052 0.0
H446 H 0.84488 0.98407 0.9941 0.0
H447 H 0.96762 0.95931 0.97454 0.0
H448 H 0.0157 0.99538 0.0012 0.0
H449 H 0.88374 0.91775 0.95905 0.0
H450 H 0.82256 0.97335 0.96715 0.0
H451 H 0.73124 0.91335 0.95647 0.0
H452 H 0.67004 0.84771 0.9358 0.0
C453 C 0.9947 0.90718 0.36878 0.0
C454 C 0.04401 0.95213 0.36818 0.0
C455 C 0.98636 0.85989 0.36145 0.0
C456 C 0.0273 0.85676 0.3534 0.0
C457 C 0.07685 0.90137 0.3533 0.0
C458 C 0.08509 0.94858 0.3605 0.0
C459 C 0.02 0.80831 0.34464 0.0
C460 C 0.97431 0.77122 0.33752 0.0
C461 C 0.97062 0.7288 0.32584 0.0
C462 C 0.9355 0.71092 0.31209 0.0
C463 C 0.93591 0.67634 0.29954 0.0
C464 C 0.971 0.65825 0.30061 0.0
H465 H 0.02969 0.71986 0.33827 0.0
C466 C 0.00361 0.67338 0.315 0.0
C467 C 0.00342 0.70828 0.3275 0.0
H468 H 0.03022 0.65922 0.31639 0.0
H469 H 0.9624 0.90855 0.37477 0.0
H470 H 0.94797 0.826 0.36219 0.0
H471 H 0.10916 0.9 0.34729 0.0
H472 H 0.12372 0.98235 0.35997 0.0
H473 H 0.05495 0.80612 0.34231 0.0
H474 H 0.94032 0.77568 0.33839 0.0
H475 H 0.90959 0.72587 0.31058 0.0
H476 H 0.91061 0.666 0.28858 0.0
C477 C 0.20635 0.0155 0.68941 0.0
C478 C 0.2154 0.06178 0.69802 0.0
C479 C 0.24594 0.01419 0.67995 0.0
C480 C 0.29539 0.05916 0.6791 0.0
C481 C 0.30464 0.10464 0.68826 0.0
C482 C 0.26526 0.10598 0.69759 0.0
C483 C 0.33684 0.06242 0.66768 0.0
C484 C 0.33822 0.02168 0.66015 0.0
C485 C 0.37776 0.02875 0.6473 0.0
C486 C 0.39636 0.99417 0.64553 0.0
C487 C 0.43335 0.00046 0.63333 0.0
C488 C 0.45192 0.04119 0.62258 0.0
H489 H 0.38054 0.09486 0.6368 0.0
C490 C 0.43228 0.07496 0.62416 0.0
C491 C 0.39567 0.06881 0.63632 0.0
H492 H 0.44419 0.10554 0.61569 0.0
H493 H 0.16825 0.98084 0.68949 0.0
H494 H 0.23684 0.97855 0.67285 0.0
H495 H 0.34223 0.13986 0.68785 0.0
H496 H 0.27375 0.14218 0.70421 0.0
H497 H 0.36797 0.1011 0.66521 0.0
H498 H 0.31075 0.9827 0.6635 0.0
H499 H 0.38262 0.96259 0.65369 0.0
H500 H 0.44756 0.97364 0.63236 0.0
C501 C 0.2472 0.16651 0.01704 0.0
C502 C 0.21646 0.16885 0.03028 0.0
C503 C 0.28295 0.21134 0.00942 0.0
C504 C 0.2889 0.25953 0.01501 0.0
C505 C 0.26003 0.26204 0.0288 0.0
C506 C 0.22434 0.21728 0.03641 0.0
C507 C 0.3196 0.30649 0.00561 0.0
C508 C 0.35667 0.31252 0.99453 0.0
C509 C 0.37955 0.35504 0.983 0.0
C510 C 0.4292 0.37104 0.97649 0.0
C511 C 0.44974 0.40772 0.96444 0.0
C512 C 0.42063 0.42858 0.95847 0.0
H513 H 0.31161 0.36395 0.9815 0.0
C514 C 0.37119 0.41303 0.96516 0.0
C515 C 0.3508 0.37662 0.97725 0.0
H516 H 0.34729 0.42749 0.96058 0.0
H517 H 0.242 0.12977 0.01202 0.0
H518 H 0.3035 0.20735 -0.00139 0.0
H519 H 0.26369 0.29855 0.03334 0.0
H520 H 0.20146 0.22049 0.04666 0.0
H521 H 0.30993 0.33675 0.00758 0.0
H522 H 0.37045 0.28527 0.99362 0.0
H523 H 0.45194 0.35473 0.98062 0.0
H524 H 0.48825 0.41937 0.9597 0.0
C525 C 0.09481 0.22133 0.34489 0.0
C526 C 0.05459 0.17126 0.34799 0.0
C527 C 0.08551 0.25223 0.33486 0.0
C528 C 0.0358 0.23344 0.32751 0.0
C529 C 0.99573 0.18333 0.33058 0.0
C530 C 0.00499 0.15251 0.34068 0.0
C531 C 0.0236 0.26546 0.31718 0.0
C532 C 0.06018 0.30675 0.30945 0.0
C533 C 0.04828 0.33905 0.29918 0.0
C534 C 0.085 0.36935 0.28743 0.0
C535 C 0.07603 0.40092 0.27766 0.0
C536 C 0.03019 0.40327 0.27951 0.0
H537 H 0.97399 0.32039 0.31046 0.0
C538 C 0.9935 0.3733 0.29135 0.0
C539 C 0.00251 0.34171 0.30116 0.0
H540 H 0.95821 0.37496 0.29323 0.0
H541 H 0.13333 0.23715 0.3505 0.0
H542 H 0.11714 0.29114 0.33333 0.0
H543 H 0.957 0.16796 0.3252 0.0
H544 H 0.97308 0.11415 0.34286 0.0
H545 H 0.98269 0.25304 0.3154 0.0
H546 H 0.10058 0.31634 0.30996 0.0
H547 H 0.12068 0.36831 0.28569 0.0
H548 H 0.10477 0.42302 0.26849 0.0
loop_
_geom_bond_atom_site_label_1
_geom_bond_atom_site_label_2
_geom_bond_distance
_geom_bond_site_symmetry_2
_ccdc_geom_bond_type
C0 O1 1.160 . S
C0 O7 1.185 . S
O1 C0 1.160 . S
O2 Zn3 1.899 . S
O2 C10 1.284 . S
Zn3 O2 1.899 . S
Zn3 O4 2.032 . S
Zn3 O7 2.086 . S
Zn3 O12 1.977 . S
O4 Zn3 2.032 . S
O4 C8 1.277 . S
C5 O6 1.203 . S
C5 O12 1.267 . S
O6 C5 1.203 . S
O7 C0 1.185 . S
O7 Zn3 2.086 . S
C8 O4 1.277 . S
C8 O9 1.211 . S
O9 C8 1.211 . S
C10 O2 1.284 . S
C10 O11 1.273 . S
O11 C10 1.273 . S
O12 Zn3 1.977 . S
O12 C5 1.267 . S
C13 O14 1.160 . S
C13 O20 1.185 . S
O14 C13 1.160 . S
O15 Zn16 1.899 . S
O15 C23 1.284 1_545 S
Zn16 O15 1.899 . S
Zn16 O17 2.032 . S
Zn16 O20 2.086 . S
Zn16 O25 1.977 . S
O17 Zn16 2.032 . S
O17 C21 1.278 . S
C18 O19 1.203 . S
C18 O25 1.267 . S
O19 C18 1.203 . S
O20 C13 1.185 . S
O20 Zn16 2.086 . S
C21 O17 1.278 . S
C21 O22 1.211 . S
O22 C21 1.211 . S
C23 O15 1.284 1_565 S
C23 O24 1.273 . S
O24 C23 1.273 . S
O25 Zn16 1.977 . S
O25 C18 1.267 . S
C26 O27 1.160 . S
C26 O33 1.185 . S
O27 C26 1.160 . S
O28 Zn29 1.899 . S
O28 C36 1.284 . S
Zn29 O28 1.899 . S
Zn29 O30 2.032 . S
Zn29 O33 2.086 . S
Zn29 O38 1.977 . S
O30 Zn29 2.032 . S
O30 C34 1.278 . S
C31 O32 1.203 . S
C31 O38 1.267 . S
O32 C31 1.203 . S
O33 C26 1.185 . S
O33 Zn29 2.086 . S
C34 O30 1.278 . S
C34 O35 1.211 . S
O35 C34 1.211 . S
C36 O28 1.284 . S
C36 O37 1.273 . S
O37 C36 1.273 . S
O38 Zn29 1.977 . S
O38 C31 1.267 . S
H39 O65 0.856 . S
H40 O68 0.854 . S
H41 C76 0.930 . S
H42 C77 0.930 . S
H43 C79 0.930 . S
H44 C80 0.930 . S
H45 C82 0.931 1_655 S
H46 C83 0.930 1_655 S
H47 C85 0.930 . S
H48 C86 0.929 . S
H49 C88 0.930 1_655 S
H50 C89 0.931 1_655 S
H51 C91 0.930 . S
H52 C92 0.929 . S
H53 C94 0.931 1_655 S
H54 C95 0.930 1_655 S
H55 C97 0.930 . S
H56 C98 0.932 . S
H57 C100 0.930 . S
H58 C101 0.929 . S
H59 C103 0.931 . S
H60 C104 0.930 . S
H61 C106 0.929 1_655 S
H62 C107 0.931 1_655 S
H63 C109 0.930 . S
H64 C110 0.929 . S
O65 H39 0.856 . S
O65 C111 1.300 . S
O66 C111 1.209 . S
O67 C112 1.199 . S
O68 H40 0.854 . S
O68 C112 1.297 . S
C69 C70 1.404 . S
C69 C74 1.397 . S
C69 C75 1.492 . S
C70 C69 1.404 . S
C70 C71 1.396 . S
C70 C81 1.492 . S
C71 C70 1.396 . S
C71 C72 1.397 . S
C71 C87 1.509 . S
C72 C71 1.397 . S
C72 C73 1.412 . S
C72 C93 1.485 . S
C73 C72 1.412 . S
C73 C74 1.388 . S
C73 C99 1.490 . S
C74 C69 1.397 . S
C74 C73 1.388 . S
C74 C105 1.519 . S
C75 C69 1.492 . S
C75 C76 1.363 1_455 S
C75 C80 1.390 . S
C76 H41 0.930 . S
C76 C75 1.363 1_655 S
C76 C77 1.372 . S
C77 H42 0.930 . S
C77 C76 1.372 . S
C77 C78 1.383 1_655 S
C78 C77 1.383 1_455 S
C78 C79 1.395 . S
C79 H43 0.930 . S
C79 C78 1.395 . S
C79 C80 1.362 . S
C80 H44 0.930 . S
C80 C75 1.390 . S
C80 C79 1.362 . S
C81 C70 1.492 . S
C81 C82 1.377 . S
C81 C86 1.397 . S
C82 H45 0.931 1_455 S
C82 C81 1.377 . S
C82 C83 1.376 . S
C83 H46 0.930 1_455 S
C83 C82 1.376 . S
C83 C84 1.376 . S
C84 C83 1.376 . S
C84 C85 1.378 . S
C84 C111 1.486 . S
C85 H47 0.930 . S
C85 C84 1.378 . S
C85 C86 1.376 . S
C86 H48 0.929 . S
C86 C81 1.397 . S
C86 C85 1.376 . S
C87 C71 1.509 . S
C87 C88 1.391 . S
C87 C92 1.386 . S
C88 H49 0.930 1_455 S
C88 C87 1.391 . S
C88 C89 1.375 . S
C89 H50 0.931 1_455 S
C89 C88 1.375 . S
C89 C90 1.375 . S
C90 C89 1.375 . S
C90 C91 1.361 . S
C91 H51 0.930 . S
C91 C90 1.361 . S
C91 C92 1.399 . S
C92 H52 0.929 . S
C92 C87 1.386 . S
C92 C91 1.399 . S
C93 C72 1.485 . S
C93 C94 1.394 . S
C93 C98 1.360 . S
C94 H53 0.931 1_455 S
C94 C93 1.394 . S
C94 C95 1.372 . S
C95 H54 0.930 1_455 S
C95 C94 1.372 . S
C95 C96 1.397 . S
C96 C95 1.397 . S
C96 C97 1.390 . S
C96 C112 1.476 . S
C97 H55 0.930 . S
C97 C96 1.390 . S
C97 C98 1.366 . S
C98 H56 0.932 . S
C98 C93 1.360 . S
C98 C97 1.366 . S
C99 C73 1.490 . S
C99 C100 1.380 1_455 S
C99 C104 1.386 . S
C100 H57 0.930 . S
C100 C99 1.380 1_655 S
C100 C101 1.381 . S
C101 H58 0.929 . S
C101 C100 1.381 . S
C101 C102 1.371 1_655 S
C102 C101 1.371 1_455 S
C102 C103 1.380 . S
C103 H59 0.931 . S
C103 C102 1.380 . S
C103 C104 1.387 . S
C104 H60 0.930 . S
C104 C99 1.386 . S
C104 C103 1.387 . S
C105 C74 1.519 . S
C105 C106 1.377 . S
C105 C110 1.361 . S
C106 H61 0.929 1_455 S
C106 C105 1.377 . S
C106 C107 1.386 . S
C107 H62 0.931 1_455 S
C107 C106 1.386 . S
C107 C108 1.363 . S
C108 C107 1.363 . S
C108 C109 1.385 . S
C109 H63 0.930 . S
C109 C108 1.385 . S
C109 C110 1.396 . S
C110 H64 0.929 . S
C110 C105 1.361 . S
C110 C109 1.396 . S
C111 O65 1.300 . S
C111 O66 1.209 . S
C111 C84 1.486 . S
C112 O67 1.199 . S
C112 O68 1.297 . S
C112 C96 1.476 . S
H113 O139 0.856 . S
H114 O142 0.854 . S
H115 C150 0.930 . S
H116 C151 0.930 1_565 S
H117 C153 0.930 . S
H118 C154 0.930 . S
H119 C156 0.931 . S
H120 C157 0.930 . S
H121 C159 0.930 . S
H122 C160 0.929 . S
H123 C162 0.930 . S
H124 C163 0.931 . S
H125 C165 0.930 . S
H126 C166 0.929 . S
H127 C168 0.931 . S
H128 C169 0.930 . S
H129 C171 0.930 . S
H130 C172 0.932 . S
H131 C174 0.930 . S
H132 C175 0.929 1_565 S
H133 C177 0.931 . S
H134 C178 0.930 . S
H135 C180 0.929 . S
H136 C181 0.931 . S
H137 C183 0.930 . S
H138 C184 0.929 . S
O139 H113 0.856 . S
O139 C185 1.300 . S
O140 C185 1.209 . S
O141 C186 1.199 . S
O142 H114 0.854 . S
O142 C186 1.297 . S
C143 C144 1.404 . S
C143 C148 1.397 . S
C143 C149 1.492 . S
C144 C143 1.404 . S
C144 C145 1.396 . S
C144 C155 1.492 . S
C145 C144 1.396 . S
C145 C146 1.397 . S
C145 C161 1.509 . S
C146 C145 1.397 . S
C146 C147 1.412 . S
C146 C167 1.485 . S
C147 C146 1.412 . S
C147 C148 1.388 . S
C147 C173 1.490 . S
C148 C143 1.397 . S
C148 C147 1.388 . S
C148 C179 1.519 . S
C149 C143 1.492 . S
C149 C150 1.363 . S
C149 C154 1.390 . S
C150 H115 0.930 . S
C150 C149 1.363 . S
C150 C151 1.372 . S
C151 H116 0.930 1_545 S
C151 C150 1.372 . S
C151 C152 1.383 . S
C152 C151 1.383 . S
C152 C153 1.395 . S
C153 H117 0.930 . S
C153 C152 1.395 . S
C153 C154 1.362 . S
C154 H118 0.930 . S
C154 C149 1.390 . S
C154 C153 1.362 . S
C155 C144 1.492 . S
C155 C156 1.377 . S
C155 C160 1.397 . S
C156 H119 0.931 . S
C156 C155 1.377 . S
C156 C157 1.376 . S
C157 H120 0.930 . S
C157 C156 1.376 . S
C157 C158 1.376 . S
C158 C157 1.376 . S
C158 C159 1.378 . S
C158 C185 1.486 . S
C159 H121 0.930 . S
C159 C158 1.378 . S
C159 C160 1.376 . S
C160 H122 0.929 . S
C160 C155 1.397 . S
C160 C159 1.376 . S
C161 C145 1.509 . S
C161 C162 1.391 . S
C161 C166 1.386 . S
C162 H123 0.930 . S
C162 C161 1.391 . S
C162 C163 1.375 . S
C163 H124 0.931 . S
C163 C162 1.375 . S
C163 C164 1.375 . S
C164 C163 1.375 . S
C164 C165 1.361 . S
C165 H125 0.930 . S
C165 C164 1.361 . S
C165 C166 1.399 . S
C166 H126 0.929 . S
C166 C161 1.386 . S
C166 C165 1.399 . S
C167 C146 1.485 . S
C167 C168 1.394 . S
C167 C172 1.360 . S
C168 H127 0.931 . S
C168 C167 1.394 . S
C168 C169 1.372 . S
C169 H128 0.930 . S
C169 C168 1.372 . S
C169 C170 1.397 . S
C170 C169 1.397 . S
C170 C171 1.390 . S
C170 C186 1.476 . S
C171 H129 0.930 . S
C171 C170 1.390 . S
C171 C172 1.366 . S
C172 H130 0.932 . S
C172 C167 1.360 . S
C172 C171 1.366 . S
C173 C147 1.490 . S
C173 C174 1.380 . S
C173 C178 1.386 . S
C174 H131 0.930 . S
C174 C173 1.380 . S
C174 C175 1.381 . S
C175 H132 0.929 1_545 S
C175 C174 1.381 . S
C175 C176 1.371 . S
C176 C175 1.371 . S
C176 C177 1.380 . S
C177 H133 0.931 . S
C177 C176 1.380 . S
C177 C178 1.387 . S
C178 H134 0.930 . S
C178 C173 1.386 . S
C178 C177 1.387 . S
C179 C148 1.519 . S
C179 C180 1.377 . S
C179 C184 1.361 . S
C180 H135 0.929 . S
C180 C179 1.377 . S
C180 C181 1.386 . S
C181 H136 0.931 . S
C181 C180 1.386 . S
C181 C182 1.363 . S
C182 C181 1.363 . S
C182 C183 1.385 . S
C183 H137 0.930 . S
C183 C182 1.385 . S
C183 C184 1.396 . S
C184 H138 0.929 . S
C184 C179 1.361 . S
C184 C183 1.396 . S
C185 O139 1.300 . S
C185 O140 1.209 . S
C185 C158 1.486 . S
C186 O141 1.199 . S
C186 O142 1.297 . S
C186 C170 1.476 . S
H187 O213 0.856 . S
H188 O216 0.854 . S
H189 C224 0.930 . S
H190 C225 0.930 . S
H191 C227 0.930 . S
H192 C228 0.930 . S
H193 C230 0.931 . S
H194 C231 0.930 . S
H195 C233 0.930 . S
H196 C234 0.929 . S
H197 C236 0.930 . S
H198 C237 0.931 . S
H199 C239 0.930 . S
H200 C240 0.929 . S
H201 C242 0.931 . S
H202 C243 0.930 . S
H203 C245 0.930 . S
H204 C246 0.932 . S
H205 C248 0.930 . S
H206 C249 0.929 . S
H207 C251 0.931 . S
H208 C252 0.930 . S
H209 C254 0.929 . S
H210 C255 0.931 . S
H211 C257 0.930 . S
H212 C258 0.929 . S
O213 H187 0.856 . S
O213 C259 1.300 1_554 S
O214 C259 1.209 . S
O215 C260 1.199 . S
O216 H188 0.854 . S
O216 C260 1.297 . S
C217 C218 1.404 . S
C217 C222 1.397 . S
C217 C223 1.492 . S
C218 C217 1.404 . S
C218 C219 1.396 . S
C218 C229 1.492 . S
C219 C218 1.396 . S
C219 C220 1.397 . S
C219 C235 1.509 . S
C220 C219 1.397 . S
C220 C221 1.412 . S
C220 C241 1.485 . S
C221 C220 1.412 . S
C221 C222 1.388 . S
C221 C247 1.490 . S
C222 C217 1.397 . S
C222 C221 1.388 . S
C222 C253 1.519 . S
C223 C217 1.492 . S
C223 C224 1.363 . S
C223 C228 1.390 . S
C224 H189 0.930 . S
C224 C223 1.363 . S
C224 C225 1.372 . S
C225 H190 0.930 . S
C225 C224 1.372 . S
C225 C226 1.383 . S
C226 C225 1.383 . S
C226 C227 1.395 . S
C227 H191 0.930 . S
C227 C226 1.395 . S
C227 C228 1.362 . S
C228 H192 0.930 . S
C228 C223 1.390 . S
C228 C227 1.362 . S
C229 C218 1.492 . S
C229 C230 1.377 . S
C229 C234 1.397 . S
C230 H193 0.931 . S
C230 C229 1.377 . S
C230 C231 1.376 . S
C231 H194 0.930 . S
C231 C230 1.376 . S
C231 C232 1.376 . S
C232 C231 1.376 . S
C232 C233 1.378 . S
C232 C259 1.486 . S
C233 H195 0.930 . S
C233 C232 1.378 . S
C233 C234 1.376 . S
C234 H196 0.929 . S
C234 C229 1.397 . S
C234 C233 1.376 . S
C235 C219 1.509 . S
C235 C236 1.391 . S
C235 C240 1.386 . S
C236 H197 0.930 . S
C236 C235 1.391 . S
C236 C237 1.375 . S
C237 H198 0.931 . S
C237 C236 1.375 . S
C237 C238 1.375 . S
C238 C237 1.375 . S
C238 C239 1.361 . S
C239 H199 0.930 . S
C239 C238 1.361 . S
C239 C240 1.399 . S
C240 H200 0.929 . S
C240 C235 1.386 . S
C240 C239 1.399 . S
C241 C220 1.485 . S
C241 C242 1.394 . S
C241 C246 1.360 . S
C242 H201 0.931 . S
C242 C241 1.394 . S
C242 C243 1.372 . S
C243 H202 0.930 . S
C243 C242 1.372 . S
C243 C244 1.397 . S
C244 C243 1.397 . S
C244 C245 1.390 . S
C244 C260 1.476 . S
C245 H203 0.930 . S
C245 C244 1.390 . S
C245 C246 1.366 . S
C246 H204 0.932 . S
C246 C241 1.360 . S
C246 C245 1.366 . S
C247 C221 1.490 . S
C247 C248 1.380 . S
C247 C252 1.386 . S
C248 H205 0.930 . S
C248 C247 1.380 . S
C248 C249 1.381 . S
C249 H206 0.929 . S
C249 C248 1.381 . S
C249 C250 1.371 . S
C250 C249 1.371 . S
C250 C251 1.380 . S
C251 H207 0.931 . S
C251 C250 1.380 . S
C251 C252 1.387 . S
C252 H208 0.930 . S
C252 C247 1.386 . S
C252 C251 1.387 . S
C253 C222 1.519 . S
C253 C254 1.377 . S
C253 C258 1.361 . S
C254 H209 0.929 . S
C254 C253 1.377 . S
C254 C255 1.386 . S
C255 H210 0.931 . S
C255 C254 1.386 . S
C255 C256 1.363 . S
C256 C255 1.363 . S
C256 C257 1.385 . S
C257 H211 0.930 . S
C257 C256 1.385 . S
C257 C258 1.396 . S
C258 H212 0.929 . S
C258 C253 1.361 . S
C258 C257 1.396 . S
C259 O213 1.300 1_556 S
C259 O214 1.209 . S
C259 C232 1.486 . S
C260 O215 1.199 . S
C260 O216 1.297 . S
C260 C244 1.476 . S
C261 C262 1.386 . S
C261 C263 1.383 . S
C261 H277 0.951 . S
C262 C261 1.386 . S
C262 C266 1.383 . S
C263 C261 1.383 . S
C263 C264 1.402 . S
C263 H278 0.951 . S
C264 C263 1.402 . S
C264 C265 1.375 . S
C264 C267 1.481 . S
C265 C264 1.375 . S
C265 C266 1.367 . S
C265 H279 0.952 . S
C266 C262 1.383 . S
C266 C265 1.367 . S
C266 H280 0.950 . S
C267 C264 1.481 . S
C267 C268 1.297 . S
C267 H281 0.950 . S
C268 C267 1.297 . S
C268 C269 1.479 . S
C268 H282 0.950 . S
C269 C268 1.479 . S
C269 C270 1.375 . S
C269 C275 1.404 1_455 S
C270 C269 1.375 . S
C270 C271 1.369 . S
C270 H283 0.950 . S
C271 C270 1.369 . S
C271 C272 1.392 . S
C271 H284 0.951 . S
C272 C271 1.392 . S
C272 C274 1.384 1_455 S
H273 C275 0.949 . S
C274 C272 1.384 1_655 S
C274 C275 1.385 . S
C274 H276 0.950 . S
C275 C269 1.404 1_655 S
C275 H273 0.949 . S
C275 C274 1.385 . S
H276 C274 0.950 . S
H277 C261 0.951 . S
H278 C263 0.951 . S
H279 C265 0.952 . S
H280 C266 0.950 . S
H281 C267 0.950 . S
H282 C268 0.950 . S
H283 C270 0.950 . S
H284 C271 0.951 . S
C285 C286 1.386 . S
C285 C287 1.383 . S
C285 H301 0.951 . S
C286 C285 1.386 . S
C286 C290 1.383 . S
C287 C285 1.383 . S
C287 C288 1.402 . S
C287 H302 0.951 . S
C288 C287 1.402 . S
C288 C289 1.375 . S
C288 C291 1.481 . S
C289 C288 1.375 . S
C289 C290 1.367 . S
C289 H303 0.951 . S
C290 C286 1.383 . S
C290 C289 1.367 . S
C290 H304 0.950 . S
C291 C288 1.481 . S
C291 C292 1.297 . S
C291 H305 0.950 . S
C292 C291 1.297 . S
C292 C293 1.479 . S
C292 H306 0.950 . S
C293 C292 1.479 . S
C293 C294 1.375 . S
C293 C299 1.404 . S
C294 C293 1.375 . S
C294 C295 1.369 . S
C294 H307 0.950 . S
C295 C294 1.369 . S
C295 C296 1.392 . S
C295 H308 0.951 . S
C296 C295 1.392 . S
C296 C298 1.384 . S
H297 C299 0.949 . S
C298 C296 1.384 . S
C298 C299 1.385 . S
C298 H300 0.950 . S
C299 C293 1.404 . S
C299 H297 0.949 . S
C299 C298 1.385 . S
H300 C298 0.950 . S
H301 C285 0.951 . S
H302 C287 0.951 . S
H303 C289 0.951 . S
H304 C290 0.950 . S
H305 C291 0.950 . S
H306 C292 0.950 . S
H307 C294 0.950 . S
H308 C295 0.951 . S
C309 C310 1.386 . S
C309 C311 1.383 . S
C309 H325 0.951 . S
C310 C309 1.386 . S
C310 C314 1.383 . S
C311 C309 1.383 . S
C311 C312 1.402 . S
C311 H326 0.951 . S
C312 C311 1.402 . S
C312 C313 1.375 . S
C312 C315 1.481 . S
C313 C312 1.375 . S
C313 C314 1.367 . S
C313 H327 0.951 . S
C314 C310 1.383 . S
C314 C313 1.367 . S
C314 H328 0.950 1_655 S
C315 C312 1.481 . S
C315 C316 1.297 . S
C315 H329 0.950 . S
C316 C315 1.297 . S
C316 C317 1.479 . S
C316 H330 0.950 . S
C317 C316 1.479 . S
C317 C318 1.375 . S
C317 C323 1.404 . S
C318 C317 1.375 . S
C318 C319 1.369 . S
C318 H331 0.950 . S
C319 C318 1.369 . S
C319 C320 1.392 . S
C319 H332 0.951 . S
C320 C319 1.392 . S
C320 C322 1.384 . S
H321 C323 0.949 . S
C322 C320 1.384 . S
C322 C323 1.385 . S
C322 H324 0.950 . S
C323 C317 1.404 . S
C323 H321 0.949 . S
C323 C322 1.385 . S
H324 C322 0.950 . S
H325 C309 0.951 . S
H326 C311 0.951 . S
H327 C313 0.951 . S
H328 C314 0.950 1_455 S
H329 C315 0.950 . S
H330 C316 0.950 . S
H331 C318 0.950 . S
H332 C319 0.951 . S
C333 C334 1.386 . S
C333 C335 1.383 . S
C333 H349 0.951 . S
C334 C333 1.386 . S
C334 C338 1.383 . S
C335 C333 1.383 . S
C335 C336 1.402 . S
C335 H350 0.951 . S
C336 C335 1.402 . S
C336 C337 1.375 . S
C336 C339 1.481 . S
C337 C336 1.375 . S
C337 C338 1.367 . S
C337 H351 0.951 . S
C338 C334 1.383 . S
C338 C337 1.367 . S
C338 H352 0.950 . S
C339 C336 1.481 . S
C339 C340 1.297 . S
C339 H353 0.950 . S
C340 C339 1.297 . S
C340 C341 1.479 . S
C340 H354 0.950 . S
C341 C340 1.479 . S
C341 C342 1.375 . S
C341 C347 1.404 . S
C342 C341 1.375 . S
C342 C343 1.369 . S
C342 H355 0.950 1_455 S
C343 C342 1.369 . S
C343 C344 1.392 . S
C343 H356 0.951 . S
C344 C343 1.392 . S
C344 C346 1.384 . S
H345 C347 0.949 . S
C346 C344 1.384 . S
C346 C347 1.385 . S
C346 H348 0.950 . S
C347 C341 1.404 . S
C347 H345 0.949 . S
C347 C346 1.385 . S
H348 C346 0.950 . S
H349 C333 0.951 . S
H350 C335 0.951 . S
H351 C337 0.951 . S
H352 C338 0.950 . S
H353 C339 0.950 . S
H354 C340 0.950 . S
H355 C342 0.950 1_655 S
H356 C343 0.951 . S
C357 C358 1.386 . S
C357 C359 1.383 . S
C357 H373 0.951 . S
C358 C357 1.386 . S
C358 C362 1.383 . S
C359 C357 1.383 . S
C359 C360 1.402 . S
C359 H374 0.951 . S
C360 C359 1.402 . S
C360 C361 1.375 . S
C360 C363 1.481 . S
C361 C360 1.375 . S
C361 C362 1.367 . S
C361 H375 0.951 . S
C362 C358 1.383 . S
C362 C361 1.367 . S
C362 H376 0.950 . S
C363 C360 1.481 . S
C363 C364 1.297 . S
C363 H377 0.950 . S
C364 C363 1.297 . S
C364 C365 1.479 . S
C364 H378 0.950 . S
C365 C364 1.479 . S
C365 C366 1.375 . S
C365 C371 1.404 . S
C366 C365 1.375 . S
C366 C367 1.369 . S
C366 H379 0.950 . S
C367 C366 1.369 . S
C367 C368 1.392 . S
C367 H380 0.951 . S
C368 C367 1.392 . S
C368 C370 1.384 . S
H369 C371 0.949 . S
C370 C368 1.384 . S
C370 C371 1.385 . S
C370 H372 0.950 . S
C371 C365 1.404 . S
C371 H369 0.949 . S
C371 C370 1.385 . S
H372 C370 0.950 . S
H373 C357 0.951 . S
H374 C359 0.951 . S
H375 C361 0.951 . S
H376 C362 0.950 . S
H377 C363 0.950 . S
H378 C364 0.950 . S
H379 C366 0.950 . S
H380 C367 0.951 . S
C381 C382 1.386 . S
C381 C383 1.383 . S
C381 H397 0.951 . S
C382 C381 1.386 . S
C382 C386 1.383 . S
C383 C381 1.383 . S
C383 C384 1.402 . S
C383 H398 0.951 . S
C384 C383 1.402 . S
C384 C385 1.375 . S
C384 C387 1.481 . S
C385 C384 1.375 . S
C385 C386 1.367 . S
C385 H399 0.951 . S
C386 C382 1.383 . S
C386 C385 1.367 . S
C386 H400 0.950 . S
C387 C384 1.481 . S
C387 C388 1.297 . S
C387 H401 0.950 . S
C388 C387 1.297 . S
C388 C389 1.479 . S
C388 H402 0.950 . S
C389 C388 1.479 . S
C389 C390 1.375 . S
C389 C395 1.404 . S
C390 C389 1.375 . S
C390 C391 1.369 . S
C390 H403 0.950 . S
C391 C390 1.369 . S
C391 C392 1.392 . S
C391 H404 0.951 . S
C392 C391 1.392 . S
C392 C394 1.384 . S
H393 C395 0.949 . S
C394 C392 1.384 . S
C394 C395 1.385 . S
C394 H396 0.950 . S
C395 C389 1.404 . S
C395 H393 0.949 . S
C395 C394 1.385 . S
H396 C394 0.950 . S
H397 C381 0.951 . S
H398 C383 0.951 . S
H399 C385 0.951 . S
H400 C386 0.950 . S
H401 C387 0.950 . S
H402 C388 0.950 . S
H403 C390 0.950 . S
H404 C391 0.951 . S
C405 C406 1.386 1_455 S
C405 C407 1.383 1_455 S
C405 H421 0.951 . S
C406 C405 1.386 1_655 S
C406 C410 1.383 . S
C407 C405 1.383 1_655 S
C407 C408 1.402 . S
C407 H422 0.951 . S
C408 C407 1.402 . S
C408 C409 1.375 . S
C408 C411 1.481 . S
C409 C408 1.375 . S
C409 C410 1.367 . S
C409 H423 0.951 . S
C410 C406 1.383 . S
C410 C409 1.367 . S
C410 H424 0.950 . S
C411 C408 1.481 . S
C411 C412 1.297 . S
C411 H425 0.950 . S
C412 C411 1.297 . S
C412 C413 1.479 . S
C412 H426 0.950 . S
C413 C412 1.479 . S
C413 C414 1.375 . S
C413 C419 1.404 . S
C414 C413 1.375 . S
C414 C415 1.369 . S
C414 H427 0.950 . S
C415 C414 1.369 . S
C415 C416 1.392 . S
C415 H428 0.951 . S
C416 C415 1.392 . S
C416 C418 1.384 . S
H417 C419 0.949 . S
C418 C416 1.384 . S
C418 C419 1.385 . S
C418 H420 0.950 . S
C419 C413 1.404 . S
C419 H417 0.949 . S
C419 C418 1.385 . S
H420 C418 0.950 . S
H421 C405 0.951 . S
H422 C407 0.951 . S
H423 C409 0.951 . S
H424 C410 0.950 . S
H425 C411 0.950 . S
H426 C412 0.950 . S
H427 C414 0.950 . S
H428 C415 0.951 . S
C429 C430 1.386 . S
C429 C431 1.383 . S
C429 H445 0.951 . S
C430 C429 1.386 . S
C430 C434 1.383 . S
C431 C429 1.383 . S
C431 C432 1.402 1_554 S
C431 H446 0.951 . S
C432 C431 1.402 1_556 S
C432 C433 1.375 . S
C432 C435 1.481 . S
C433 C432 1.375 . S
C433 C434 1.367 1_556 S
C433 H447 0.951 . S
C434 C430 1.383 . S
C434 C433 1.367 1_554 S
C434 H448 0.951 1_665 S
C435 C432 1.481 . S
C435 C436 1.297 . S
C435 H449 0.950 . S
C436 C435 1.297 . S
C436 C437 1.479 . S
C436 H450 0.950 . S
C437 C436 1.479 . S
C437 C438 1.375 . S
C437 C443 1.404 . S
C438 C437 1.375 . S
C438 C439 1.369 . S
C438 H451 0.950 . S
C439 C438 1.369 . S
C439 C440 1.392 . S
C439 H452 0.951 . S
C440 C439 1.392 . S
C440 C442 1.384 . S
H441 C443 0.949 . S
C442 C440 1.384 . S
C442 C443 1.385 . S
C442 H444 0.950 . S
C443 C437 1.404 . S
C443 H441 0.949 . S
C443 C442 1.385 . S
H444 C442 0.950 . S
H445 C429 0.951 . S
H446 C431 0.951 . S
H447 C433 0.951 . S
H448 C434 0.951 1_445 S
H449 C435 0.950 . S
H450 C436 0.950 . S
H451 C438 0.950 . S
H452 C439 0.951 . S
C453 C454 1.386 . S
C453 C455 1.383 . S
C453 H469 0.951 1_455 S
C454 C453 1.386 . S
C454 C458 1.383 . S
C455 C453 1.383 . S
C455 C456 1.402 . S
C455 H470 0.951 1_455 S
C456 C455 1.402 . S
C456 C457 1.375 . S
C456 C459 1.481 . S
C457 C456 1.375 . S
C457 C458 1.367 . S
C457 H471 0.951 . S
C458 C454 1.383 . S
C458 C457 1.367 . S
C458 H472 0.950 . S
C459 C456 1.481 . S
C459 C460 1.297 . S
C459 H473 0.950 . S
C460 C459 1.297 . S
C460 C461 1.479 . S
C460 H474 0.950 1_455 S
C461 C460 1.479 . S
C461 C462 1.375 1_455 S
C461 C467 1.404 . S
C462 C461 1.375 1_655 S
C462 C463 1.369 . S
C462 H475 0.950 . S
C463 C462 1.369 . S
C463 C464 1.392 1_655 S
C463 H476 0.951 . S
C464 C463 1.392 1_455 S
C464 C466 1.384 . S
H465 C467 0.949 . S
C466 C464 1.384 . S
C466 C467 1.385 . S
C466 H468 0.950 . S
C467 C461 1.404 . S
C467 H465 0.949 . S
C467 C466 1.385 . S
H468 C466 0.950 . S
H469 C453 0.951 1_655 S
H470 C455 0.951 1_655 S
H471 C457 0.951 . S
H472 C458 0.950 . S
H473 C459 0.950 . S
H474 C460 0.950 1_655 S
H475 C462 0.950 . S
H476 C463 0.951 . S
C477 C478 1.386 . S
C477 C479 1.383 . S
C477 H493 0.951 1_545 S
C478 C477 1.386 . S
C478 C482 1.383 . S
C479 C477 1.383 . S
C479 C480 1.402 . S
C479 H494 0.951 1_545 S
C480 C479 1.402 . S
C480 C481 1.375 . S
C480 C483 1.481 . S
C481 C480 1.375 . S
C481 C482 1.367 . S
C481 H495 0.951 . S
C482 C478 1.383 . S
C482 C481 1.367 . S
C482 H496 0.950 . S
C483 C480 1.481 . S
C483 C484 1.297 . S
C483 H497 0.950 . S
C484 C483 1.297 . S
C484 C485 1.479 . S
C484 H498 0.950 . S
C485 C484 1.479 . S
C485 C486 1.375 . S
C485 C491 1.404 . S
C486 C485 1.375 . S
C486 C487 1.369 . S
C486 H499 0.950 1_545 S
C487 C486 1.369 . S
C487 C488 1.392 . S
C487 H500 0.951 1_545 S
C488 C487 1.392 . S
C488 C490 1.384 . S
H489 C491 0.949 . S
C490 C488 1.384 . S
C490 C491 1.385 . S
C490 H492 0.950 . S
C491 C485 1.404 . S
C491 H489 0.949 . S
C491 C490 1.385 . S
H492 C490 0.950 . S
H493 C477 0.951 1_565 S
H494 C479 0.951 1_565 S
H495 C481 0.951 . S
H496 C482 0.950 . S
H497 C483 0.950 . S
H498 C484 0.950 . S
H499 C486 0.950 1_565 S
H500 C487 0.951 1_565 S
C501 C502 1.386 . S
C501 C503 1.383 . S
C501 H517 0.951 . S
C502 C501 1.386 . S
C502 C506 1.383 . S
C503 C501 1.383 . S
C503 C504 1.402 . S
C503 H518 0.951 . S
C504 C503 1.402 . S
C504 C505 1.375 . S
C504 C507 1.481 1_554 S
C505 C504 1.375 . S
C505 C506 1.367 . S
C505 H519 0.951 . S
C506 C502 1.383 . S
C506 C505 1.367 . S
C506 H520 0.950 . S
C507 C504 1.481 1_556 S
C507 C508 1.297 . S
C507 H521 0.950 . S
C508 C507 1.297 . S
C508 C509 1.479 . S
C508 H522 0.950 . S
C509 C508 1.479 . S
C509 C510 1.375 . S
C509 C515 1.404 . S
C510 C509 1.375 . S
C510 C511 1.369 . S
C510 H523 0.950 . S
C511 C510 1.369 . S
C511 C512 1.392 . S
C511 H524 0.951 . S
C512 C511 1.392 . S
C512 C514 1.384 . S
H513 C515 0.949 . S
C514 C512 1.384 . S
C514 C515 1.385 . S
C514 H516 0.950 . S
C515 C509 1.404 . S
C515 H513 0.949 . S
C515 C514 1.385 . S
H516 C514 0.950 . S
H517 C501 0.951 . S
H518 C503 0.951 . S
H519 C505 0.951 . S
H520 C506 0.950 . S
H521 C507 0.950 . S
H522 C508 0.950 . S
H523 C510 0.950 . S
H524 C511 0.951 . S
C525 C526 1.386 . S
C525 C527 1.383 . S
C525 H541 0.951 . S
C526 C525 1.386 . S
C526 C530 1.383 . S
C527 C525 1.383 . S
C527 C528 1.402 . S
C527 H542 0.951 . S
C528 C527 1.402 . S
C528 C529 1.375 . S
C528 C531 1.481 . S
C529 C528 1.375 . S
C529 C530 1.367 . S
C529 H543 0.951 1_455 S
C530 C526 1.383 . S
C530 C529 1.367 . S
C530 H544 0.950 . S
C531 C528 1.481 . S
C531 C532 1.297 . S
C531 H545 0.950 . S
C532 C531 1.297 . S
C532 C533 1.479 . S
C532 H546 0.950 . S
C533 C532 1.479 . S
C533 C534 1.375 . S
C533 C539 1.404 . S
C534 C533 1.375 . S
C534 C535 1.369 . S
C534 H547 0.950 . S
C535 C534 1.369 . S
C535 C536 1.392 . S
C535 H548 0.951 . S
C536 C535 1.392 . S
C536 C538 1.384 . S
H537 C539 0.949 1_655 S
C538 C536 1.384 . S
C538 C539 1.385 . S
C538 H540 0.950 1_455 S
C539 C533 1.404 . S
C539 H537 0.949 1_455 S
C539 C538 1.385 . S
H540 C538 0.950 1_655 S
H541 C525 0.951 . S
H542 C527 0.951 . S
H543 C529 0.951 1_655 S
H544 C530 0.950 . S
H545 C531 0.950 . S
H546 C532 0.950 . S
H547 C534 0.950 . S
H548 C535 0.951 . S
C272 C78 1.285 . S
C262 C10 1.351 . S
C286 C21 1.304 1_655 S
C296 C152 1.334 . S
C310 C31 2.034 1_665 S
C320 C256 2.084 . S
C334 C0 0.740 1_565 S
C344 C90 0.680 . S
C368 C164 0.611 . S
C358 C18 0.603 . S
C382 C34 1.421 . S
C392 C250 1.281 . S
C416 C182 2.088 . S
C406 C36 2.104 1_655 S
C430 C8 1.296 1_665 S
C440 C226 1.375 . S
C464 C102 1.274 . S
C454 C23 1.450 . S
C488 C176 1.168 . S
C478 C26 1.263 . S
C512 C238 0.670 . S
C502 C5 0.676 . S
C526 C13 2.019 . S
C536 C108 2.100 . S
