# Generated by pormake.
# Topology pth, (4,4)-cn, num edge types: 1
# Building blocks:
#     Node 0, Type 0, BuildingBlock: AZAVOO_clean_sbu_0, # of connection points: 4
#     Node 1, Type 0, BuildingBlock: AZAVOO_clean_sbu_0, # of connection points: 4
#     Node 2, Type 0, BuildingBlock: AZAVOO_clean_sbu_0, # of connection points: 4
#     Node 3, Type 1, BuildingBlock: MUDLON_clean_linker_0, # of connection points: 4
#     Node 4, Type 1, BuildingBlock: MUDLON_clean_linker_0, # of connection points: 4
#     Node 5, Type 1, BuildingBlock: MUDLON_clean_linker_0, # of connection points: 4
#     Edge 6, Type (0, 1), BuildingBlock: UVAHIK_clean_linker_0, # of connection points: 2
#     Edge 7, Type (0, 1), BuildingBlock: UVAHIK_clean_linker_0, # of connection points: 2
#     Edge 8, Type (0, 1), BuildingBlock: UVAHIK_clean_linker_0, # of connection points: 2
#     Edge 9, Type (0, 1), BuildingBlock: UVAHIK_clean_linker_0, # of connection points: 2
#     Edge 10, Type (0, 1), BuildingBlock: UVAHIK_clean_linker_0, # of connection points: 2
#     Edge 11, Type (0, 1), BuildingBlock: UVAHIK_clean_linker_0, # of connection points: 2
#     Edge 12, Type (0, 1), BuildingBlock: UVAHIK_clean_linker_0, # of connection points: 2
#     Edge 13, Type (0, 1), BuildingBlock: UVAHIK_clean_linker_0, # of connection points: 2
#     Edge 14, Type (0, 1), BuildingBlock: UVAHIK_clean_linker_0, # of connection points: 2
#     Edge 15, Type (0, 1), BuildingBlock: UVAHIK_clean_linker_0, # of connection points: 2
#     Edge 16, Type (0, 1), BuildingBlock: UVAHIK_clean_linker_0, # of connection points: 2
#     Edge 17, Type (0, 1), BuildingBlock: UVAHIK_clean_linker_0, # of connection points: 2
# Relax obj value: 0.076
# Max RMSD: 0.214
# Mean RMSD: 0.136
data_MOF--net-pth--node1-AZAVOO_clean_sbu_0--node2-MUDLON_clean_linker_0--edge1-UVAHIK_clean_linker_0
_symmetry_space_group_name_H-M    P1
_symmetry_Int_Tables_number       1
_symmetry_cell_setting            triclinic
loop_
_symmetry_equiv_pos_as_xyz
'x, y, z'
_cell_length_a     40.57772
_cell_length_b     41.295832
_cell_length_c     81.349054
_cell_angle_alpha  90.769687
_cell_angle_beta   92.342234
_cell_angle_gamma 121.61267
loop_
_atom_site_label
_atom_site_type_symbol
_atom_site_fract_x
_atom_site_fract_y
_atom_site_fract_z
_atom_type_partial_charge
Mg0 Mg 0.1036 0.04424 0.03034 0.0
O1 O 0.04771 0.00368 0.01491 0.0
O2 O 0.0346 0.03839 -0.00193 0.0
Mg3 Mg 0.08418 0.10046 0.00141 0.0
C4 C 0.02609 0.00651 0.0039 0.0
C5 C 0.10452 0.97732 0.04744 0.0
O6 O 0.13002 0.98479 0.03638 0.0
O7 O 0.07129 0.06533 0.04496 0.0
O8 O 0.06318 0.10159 0.02706 0.0
O9 O 0.13992 0.03913 0.01173 0.0
O10 O 0.12246 0.08164 0.01131 0.0
C11 C 0.05947 0.08769 0.04128 0.0
C12 C 0.13949 0.06655 0.00442 0.0
O13 O 0.08901 0.99718 0.04822 0.0
Mg14 Mg 0.97647 0.00171 0.34948 0.0
O15 O 0.01975 0.01601 0.37142 0.0
O16 O 0.02559 0.0649 0.38616 0.0
Mg17 Mg 0.98697 0.08287 0.37337 0.0
C18 C 0.03444 0.03987 0.38366 0.0
C19 C 0.98823 0.93371 0.34617 0.0
O20 O 0.97194 0.92722 0.36036 0.0
O21 O 0.0224 0.05339 0.33623 0.0
O22 O 0.02598 0.1007 0.35158 0.0
O23 O 0.9265 0.96464 0.36516 0.0
O24 O 0.95043 0.0258 0.36176 0.0
C25 C 0.03658 0.08879 0.33953 0.0
C26 C 0.92616 0.99513 0.36867 0.0
O27 O 0.99471 0.96294 0.33851 0.0
Mg28 Mg 0.98734 0.95605 0.69245 0.0
O29 O 0.02657 0.01244 0.70699 0.0
O30 O 0.99098 0.02453 0.7233 0.0
Mg31 Mg 0.92814 0.97543 0.71893 0.0
C32 C 0.02352 0.03353 0.71768 0.0
C33 C 0.03929 0.94648 0.66753 0.0
O34 O 0.01109 0.91061 0.66746 0.0
O35 O 0.96488 0.98504 0.67575 0.0
O36 O 0.92853 0.99489 0.69264 0.0
O37 O 0.99387 0.92343 0.71277 0.0
O38 O 0.94861 0.93804 0.71093 0.0
C39 C 0.9424 0.99719 0.67859 0.0
C40 C 0.96517 0.92347 0.71914 0.0
O41 O 0.03705 0.97104 0.67616 0.0
H42 H 0.90384 0.59939 0.21153 0.0
N43 N 0.9526 0.58917 0.19472 0.0
H44 H 0.91849 0.63925 0.23665 0.0
H45 H 0.02273 0.62885 0.21216 0.0
H46 H 0.03792 0.67003 0.23687 0.0
H47 H 0.02591 0.63532 0.18413 0.0
H48 H 0.04442 0.68164 0.16268 0.0
H49 H 0.90566 0.5973 0.17388 0.0
H50 H 0.92379 0.64284 0.15197 0.0
H51 H 0.93732 0.54151 0.21944 0.0
H52 H 0.9809 0.5633 0.17056 0.0
H53 H 0.94394 0.48654 0.22035 0.0
H54 H 0.98673 0.50794 0.17152 0.0
H55 H 0.93422 0.29727 0.21752 0.0
H56 H 0.96587 0.28134 0.23942 0.0
H57 H 0.07447 0.38516 0.23192 0.0
H58 H 0.04244 0.40125 0.21026 0.0
H59 H 0.03521 0.37298 0.18366 0.0
H60 H 0.04167 0.3366 0.16162 0.0
H61 H 0.91715 0.26403 0.15573 0.0
H62 H 0.91071 0.30044 0.17818 0.0
H63 H 0.91268 0.36561 0.20754 0.0
H64 H 0.91107 0.42393 0.20684 0.0
H65 H 0.02274 0.48172 0.18542 0.0
N66 N 0.9675 0.35485 0.19769 0.0
H67 H 0.02367 0.42305 0.18588 0.0
C68 C 0.96217 0.61165 0.20986 0.0
C69 C 0.93304 0.61447 0.21712 0.0
C70 C 0.94141 0.63703 0.23143 0.0
C71 C 0.97933 0.65765 0.23859 0.0
C72 C 0.00854 0.65455 0.23146 0.0
C73 C -5e-05 0.63133 0.21731 0.0
C74 C 0.96426 0.61297 0.18067 0.0
C75 C 0.00345 0.63669 0.17716 0.0
C76 C 0.01396 0.6629 0.16475 0.0
C77 C 0.98558 0.66609 0.15571 0.0
C78 C 0.94637 0.64143 0.15888 0.0
C79 C 0.93591 0.61521 0.17126 0.0
C80 C 0.96031 0.55852 0.19532 0.0
C81 C 0.94923 0.5353 0.20904 0.0
C82 C 0.95248 0.50337 0.20948 0.0
C83 C 0.96604 0.49299 0.19603 0.0
C84 C 0.97698 0.51572 0.18223 0.0
C85 C 0.97374 0.5478 0.18176 0.0
C86 C 0.98584 0.35013 0.2122 0.0
C87 C 0.9646 0.317 0.22091 0.0
C88 C 0.98274 0.30801 0.23338 0.0
C89 C 0.02269 0.33195 0.23726 0.0
C90 C 0.04372 0.36608 0.22904 0.0
C91 C 0.02537 0.37531 0.2167 0.0
C92 C 0.97227 0.33915 0.1827 0.0
C93 C 0.00917 0.34984 0.17751 0.0
C94 C 0.01291 0.3289 0.16493 0.0
C95 C 0.97992 0.29732 0.15718 0.0
C96 C 0.94301 0.28835 0.16153 0.0
C97 C 0.9393 0.30906 0.17428 0.0
C98 C 0.96808 0.38989 0.1968 0.0
C99 C 0.93672 0.39091 0.20269 0.0
C100 C 0.93604 0.42429 0.20237 0.0
C101 C 0.96694 0.45753 0.19618 0.0
C102 C 0.99839 0.45648 0.19016 0.0
C103 C -0.00097 0.42295 0.19049 0.0
H104 H 0.75003 0.16483 0.53744 0.0
N105 N 0.68257 0.1158 0.52174 0.0
H106 H 0.7837 0.1515 0.55956 0.0
H107 H 0.65171 0.05022 0.53878 0.0
H108 H 0.68574 0.03634 0.56045 0.0
H109 H 0.64366 0.04124 0.5103 0.0
H110 H 0.66307 0.01501 0.48822 0.0
H111 H 0.73838 0.1541 0.50132 0.0
H112 H 0.75836 0.12823 0.47937 0.0
H113 H 0.6531 0.12918 0.54851 0.0
H114 H 0.62504 0.0927 0.49701 0.0
H115 H 0.59167 0.12567 0.55003 0.0
H116 H 0.56391 0.08917 0.49876 0.0
H117 H 0.41262 0.15192 0.54425 0.0
H118 H 0.36948 0.12859 0.567 0.0
H119 H 0.36823 0.02329 0.56445 0.0
H120 H 0.41056 0.04659 0.54141 0.0
H121 H 0.37753 0.04387 0.51429 0.0
H122 H 0.33014 0.03152 0.49193 0.0
H123 H 0.39086 0.15162 0.48273 0.0
H124 H 0.43814 0.16385 0.50541 0.0
H125 H 0.50627 0.16572 0.53833 0.0
H126 H 0.56516 0.16314 0.53785 0.0
H127 H 0.49987 0.05293 0.51247 0.0
N128 N 0.43579 0.11418 0.52641 0.0
H129 H 0.44125 0.0556 0.51305 0.0
C130 C 0.69875 0.10852 0.53634 0.0
C131 C 0.73556 0.13703 0.5427 0.0
C132 C 0.75466 0.12938 0.55528 0.0
C133 C 0.73736 0.0928 0.56152 0.0
C134 C 0.69978 0.06462 0.55566 0.0
C135 C 0.68041 0.0725 0.54327 0.0
C136 C 0.68973 0.0998 0.50743 0.0
C137 C 0.66851 0.0604 0.50351 0.0
C138 C 0.67967 0.04543 0.4909 0.0
C139 C 0.71229 0.06949 0.48205 0.0
C140 C 0.73269 0.10893 0.48573 0.0
C141 C 0.72145 0.12383 0.49828 0.0
C142 C 0.64372 0.109 0.52292 0.0
C143 C 0.63351 0.11915 0.53765 0.0
C144 C 0.59847 0.11767 0.5385 0.0
C145 C 0.57285 0.1067 0.52456 0.0
C146 C 0.58271 0.09679 0.50981 0.0
C147 C 0.61791 0.09856 0.5089 0.0
C148 C 0.41483 0.10119 0.54117 0.0
C149 C 0.40354 0.12411 0.54883 0.0
C150 C 0.37903 0.11074 0.56187 0.0
C151 C 0.36532 0.074 0.56754 0.0
C152 C 0.37789 0.05153 0.56024 0.0
C153 C 0.40237 0.06494 0.54714 0.0
C154 C 0.41143 0.105 0.51156 0.0
C155 C 0.38131 0.0675 0.50725 0.0
C156 C 0.35419 0.06041 0.4944 0.0
C157 C 0.35656 0.09064 0.48567 0.0
C158 C 0.38799 0.12781 0.48939 0.0
C159 C 0.41514 0.13484 0.50222 0.0
C160 C 0.46952 0.11125 0.52561 0.0
C161 C 0.50477 0.14106 0.53267 0.0
C162 C 0.53821 0.13939 0.53249 0.0
C163 C 0.537 0.10778 0.52515 0.0
C164 C 0.50163 0.07776 0.51808 0.0
C165 C 0.46807 0.07932 0.5184 0.0
H166 H 0.63669 0.72128 0.88978 0.0
N167 N 0.62093 0.65523 0.87706 0.0
H168 H 0.67613 0.75429 0.91465 0.0
H169 H 0.63939 0.62141 0.9021 0.0
H170 H 0.67677 0.65327 0.92748 0.0
H171 H 0.6903 0.65884 0.87692 0.0
H172 H 0.7411 0.69303 0.85766 0.0
H173 H 0.61821 0.69162 0.8509 0.0
H174 H 0.66914 0.72618 0.83158 0.0
H175 H 0.54534 0.62308 0.8708 0.0
H176 H 0.63525 0.59722 0.87527 0.0
H177 H 0.49848 0.55707 0.8618 0.0
H178 H 0.58864 0.53116 0.86724 0.0
H179 H 0.36591 0.36816 0.85367 0.0
H180 H 0.32862 0.3222 0.87382 0.0
H181 H 0.41419 0.28989 0.87757 0.0
H182 H 0.45286 0.3382 0.85793 0.0
H183 H 0.43042 0.33569 0.81834 0.0
H184 H 0.38443 0.30941 0.79449 0.0
H185 H 0.34351 0.38426 0.8064 0.0
H186 H 0.38949 0.41012 0.83036 0.0
H187 H 0.41754 0.42842 0.86018 0.0
H188 H 0.4627 0.49355 0.86983 0.0
H189 H 0.55321 0.49337 0.84362 0.0
N190 N 0.43458 0.38276 0.84182 0.0
H191 H 0.50798 0.42697 0.83475 0.0
C192 C 0.6353 0.6691 0.8938 0.0
C193 C 0.64454 0.70597 0.89819 0.0
C194 C 0.66707 0.72476 0.91252 0.0
C195 C 0.68038 0.70677 0.92308 0.0
C196 C 0.66809 0.6685 0.91944 0.0
C197 C 0.64617 0.64995 0.90487 0.0
C198 C 0.65031 0.67261 0.86525 0.0
C199 C 0.68511 0.67282 0.86689 0.0
C200 C 0.71417 0.69241 0.85589 0.0
C201 C 0.7091 0.7124 0.84321 0.0
C202 C 0.67396 0.71137 0.84138 0.0
C203 C 0.64483 0.69155 0.8523 0.0
C204 C 0.59361 0.61514 0.87391 0.0
C205 C 0.55471 0.60291 0.87023 0.0
C206 C 0.52801 0.56515 0.86512 0.0
C207 C 0.53975 0.53869 0.8637 0.0
C208 C 0.57866 0.55084 0.86785 0.0
C209 C 0.60538 0.58869 0.87272 0.0
C210 C 0.41269 0.35709 0.85443 0.0
C211 C 0.37724 0.35189 0.85902 0.0
C212 C 0.35547 0.32497 0.87041 0.0
C213 C 0.36808 0.3019 0.87723 0.0
C214 C 0.40376 0.30741 0.87274 0.0
C215 C 0.42585 0.33486 0.86149 0.0
C216 C 0.41324 0.37452 0.82618 0.0
C217 C 0.4123 0.34717 0.8155 0.0
C218 C 0.38605 0.3323 0.80185 0.0
C219 C 0.36003 0.34452 0.79862 0.0
C220 C 0.36283 0.37392 0.8087 0.0
C221 C 0.38927 0.38888 0.82236 0.0
C222 C 0.45955 0.42234 0.8469 0.0
C223 C 0.44703 0.442 0.85655 0.0
C224 C 0.47298 0.47969 0.86197 0.0
C225 C 0.51182 0.49878 0.85767 0.0
C226 C 0.52383 0.47937 0.84756 0.0
C227 C 0.49797 0.44155 0.84232 0.0
C228 C 0.0212 0.11627 0.04958 0.0
C229 C 0.04304 0.09997 0.05408 0.0
C230 C 0.00936 0.13193 0.06157 0.0
C231 C 0.04182 0.17993 0.10157 0.0
H232 H 0.93999 0.16679 0.10223 0.0
C233 C 0.00802 0.25802 0.15055 0.0
C234 C 0.98425 0.2719 0.14573 0.0
C235 C 0.01214 0.23361 0.14003 0.0
C236 C 0.96871 0.17113 0.10209 0.0
H237 H 0.06813 0.08582 0.07472 0.0
H238 H 0.04792 0.11388 0.09568 0.0
H239 H 0.95132 0.12852 0.08275 0.0
H240 H 0.94583 0.2711 0.12626 0.0
H241 H 0.95416 0.22952 0.10745 0.0
H242 H 0.06001 0.22358 0.12026 0.0
C243 C 0.03999 0.11438 0.08285 0.0
C244 C 0.97505 0.14901 0.09102 0.0
C245 C 0.05137 0.0982 0.07086 0.0
C246 C 0.96433 0.2607 0.13022 0.0
C247 C 0.96892 0.23668 0.11954 0.0
C248 C 0.03568 0.20238 0.11245 0.0
C249 C 0.01954 0.13202 0.07827 0.0
C250 C 0.0117 0.1533 0.09066 0.0
C251 C 0.99303 0.22295 0.1243 0.0
C252 C -0.00093 0.19837 0.11285 0.0
H253 H 0.01408 0.11781 0.03675 0.0
H254 H 0.9938 0.14554 0.05771 0.0
H255 H 0.07055 0.1843 0.10132 0.0
H256 H 0.02305 0.26565 0.16261 0.0
H257 H 0.03014 0.22291 0.14431 0.0
C258 C 0.89563 0.02748 0.38106 0.0
C259 C 0.90035 0.99616 0.38065 0.0
C260 C 0.87283 0.03037 0.39255 0.0
C261 C 0.79518 0.97747 0.4207 0.0
H262 H 0.83676 0.07888 0.44005 0.0
C263 C 0.72779 0.02087 0.47272 0.0
C264 C 0.7266 0.05374 0.46966 0.0
C265 C 0.74589 0.00898 0.46201 0.0
C266 C 0.82473 0.05045 0.4347 0.0
H267 H 0.88378 0.94251 0.39162 0.0
H268 H 0.84383 0.94788 0.41215 0.0
H269 H 0.87567 0.06701 0.42186 0.0
H270 H 0.74079 0.09808 0.45232 0.0
H271 H 0.77299 0.07778 0.43387 0.0
H272 H 0.74412 0.96122 0.43382 0.0
C273 C 0.85788 0.97008 0.40342 0.0
C274 C 0.84695 0.04361 0.42428 0.0
C275 C 0.88077 0.96707 0.39174 0.0
C276 C 0.74202 0.07321 0.45523 0.0
C277 C 0.76033 0.06154 0.44465 0.0
C278 C 0.77294 0.9843 0.43133 0.0
C279 C 0.8543 0.00218 0.40408 0.0
C280 C 0.83205 0.00738 0.41676 0.0
C281 C 0.76332 0.02996 0.44817 0.0
C282 C 0.78723 0.02114 0.43803 0.0
H283 H 0.9096 0.04999 0.37245 0.0
H284 H 0.86976 0.05489 0.3924 0.0
H285 H 0.78297 0.94928 0.41507 0.0
H286 H 0.71643 0.00539 0.4838 0.0
H287 H 0.74795 0.98458 0.46498 0.0
C288 C 0.94751 0.87241 0.73922 0.0
C289 C 0.95113 0.90703 0.73515 0.0
C290 C 0.92703 0.85313 0.75287 0.0
C291 C 0.8475 0.84448 0.77569 0.0
H292 H 0.8702 0.78689 0.80643 0.0
C293 C 0.75057 0.77273 0.82897 0.0
C294 C 0.74087 0.73558 0.83229 0.0
C295 C 0.77973 0.79453 0.81837 0.0
C296 C 0.86338 0.8026 0.79783 0.0
H297 H 0.94075 0.95097 0.74315 0.0
H298 H 0.90538 0.91771 0.7669 0.0
H299 H 0.9171 0.82455 0.78604 0.0
H300 H 0.75456 0.6923 0.82746 0.0
H301 H 0.80528 0.73029 0.80859 0.0
H302 H 0.79371 0.82229 0.78702 0.0
C303 C 0.91699 0.90468 0.7593 0.0
C304 C 0.89023 0.82418 0.78621 0.0
C305 C 0.9371 0.92368 0.74567 0.0
C306 C 0.76157 0.72093 0.82512 0.0
C307 C 0.79067 0.74272 0.81439 0.0
C308 C 0.82076 0.82293 0.78717 0.0
C309 C 0.91026 0.86848 0.76263 0.0
C310 C 0.88263 0.8456 0.77514 0.0
C311 C 0.79968 0.77959 0.81073 0.0
C312 C 0.82845 0.80198 0.79847 0.0
H313 H 0.95823 0.8591 0.73128 0.0
H314 H 0.92234 0.82528 0.75516 0.0
H315 H 0.84031 0.85984 0.76701 0.0
H316 H 0.73567 0.78503 0.83462 0.0
H317 H 0.78658 0.82316 0.81613 0.0
C318 C 0.11084 0.92399 0.058 0.0
C319 C 0.09322 0.94555 0.05859 0.0
C320 C 0.09969 0.89358 0.06835 0.0
C321 C 0.05086 0.85456 0.10691 0.0
H322 H 0.03877 0.76056 0.08982 0.0
C323 C 0.97905 0.71779 0.14331 0.0
C324 C 0.99698 0.69647 0.14369 0.0
C325 C 0.99091 0.74769 0.13266 0.0
C326 C 0.0424 0.78676 0.09481 0.0
H327 H 0.04998 0.95202 0.07049 0.0
H328 H 0.03027 0.89878 0.08837 0.0
H329 H 0.05961 0.81406 0.07186 0.0
H330 H 0.04086 0.6893 0.13291 0.0
H331 H 0.06189 0.7419 0.11436 0.0
H332 H 0.03347 0.82724 0.12983 0.0
C333 C 0.05311 0.9057 0.08009 0.0
C334 C 0.05438 0.81742 0.08453 0.0
C335 C 0.06428 0.93611 0.06977 0.0
C336 C 0.02669 0.70539 0.13299 0.0
C337 C 0.03849 0.73528 0.12227 0.0
C338 C 0.03882 0.82392 0.11716 0.0
C339 C 0.07066 0.88405 0.0795 0.0
C340 C 0.05859 0.85163 0.09046 0.0
C341 C 0.02096 0.75698 0.12211 0.0
C342 C 0.03429 0.78962 0.11121 0.0
H343 H 0.13329 0.93056 0.04956 0.0
H344 H 0.11413 0.87779 0.06773 0.0
H345 H 0.0545 0.88073 0.11195 0.0
H346 H 0.9564 0.71197 0.15154 0.0
H347 H 0.97651 0.76357 0.13268 0.0
C348 C 0.0756 0.01344 0.39233 0.0
C349 C 0.06412 0.03982 0.39487 0.0
C350 C 0.10537 0.0151 0.40233 0.0
C351 C 0.16131 0.05548 0.44221 0.0
H352 H 0.24041 0.04621 0.42133 0.0
C353 C 0.30962 0.10795 0.47468 0.0
C354 C 0.32434 0.08386 0.47398 0.0
C355 C 0.27711 0.10002 0.46483 0.0
C356 C 0.2183 0.04842 0.42735 0.0
H357 H 0.07452 0.08817 0.41016 0.0
H358 H 0.12649 0.09127 0.42736 0.0
H359 H 0.18366 0.03577 0.40488 0.0
H360 H 0.31716 0.03313 0.46202 0.0
H361 H 0.26006 0.01924 0.4447 0.0
H362 H 0.19631 0.06892 0.46458 0.0
C363 C 0.11221 0.06898 0.4178 0.0
C364 C 0.18576 0.04235 0.41795 0.0
C365 C 0.0825 0.06731 0.40785 0.0
C366 C 0.30634 0.0521 0.46288 0.0
C367 C 0.27384 0.04427 0.45292 0.0
C368 C 0.19386 0.0617 0.45155 0.0
C369 C 0.12424 0.04312 0.41508 0.0
C370 C 0.15719 0.0464 0.42524 0.0
C371 C 0.25856 0.06785 0.45401 0.0
C372 C 0.22299 0.05884 0.44418 0.0
H373 H 0.06199 0.9918 0.38249 0.0
H374 H 0.11364 0.99447 0.40004 0.0
H375 H 0.13945 0.05803 0.44827 0.0
H376 H 0.32248 0.13235 0.48325 0.0
H377 H 0.2663 0.119 0.46577 0.0
C378 C 0.05723 0.09243 0.73618 0.0
C379 C 0.05881 0.06976 0.72356 0.0
C380 C 0.09058 0.12645 0.74179 0.0
C381 C 0.197 0.17466 0.74371 0.0
H382 H 0.19281 0.26296 0.75693 0.0
C383 C 0.3327 0.30953 0.77122 0.0
C384 C 0.3273 0.32321 0.78616 0.0
C385 C 0.30083 0.28361 0.76094 0.0
C386 C 0.19441 0.23852 0.75329 0.0
H387 H 0.09672 0.06561 0.70671 0.0
H388 H 0.1547 0.12507 0.71639 0.0
H389 H 0.13506 0.20701 0.74418 0.0
H390 H 0.28423 0.3219 0.80156 0.0
H391 H 0.22883 0.27699 0.78363 0.0
H392 H 0.25599 0.20571 0.75311 0.0
C393 C 0.12777 0.11624 0.72213 0.0
C394 C 0.16132 0.20644 0.74604 0.0
C395 C 0.09446 0.08217 0.71655 0.0
C396 C 0.28949 0.31234 0.79005 0.0
C397 C 0.25766 0.28648 0.77977 0.0
C398 C 0.23005 0.20672 0.75091 0.0
C399 C 0.12629 0.13867 0.73488 0.0
C400 C 0.16208 0.1739 0.74141 0.0
C401 C 0.26291 0.27087 0.76538 0.0
C402 C 0.22898 0.23879 0.75602 0.0
H403 H 0.0303 0.08376 0.74188 0.0
H404 H 0.08853 0.14274 0.7518 0.0
H405 H 0.19848 0.14992 0.74052 0.0
H406 H 0.36151 0.31784 0.76775 0.0
H407 H 0.30582 0.27262 0.74977 0.0
C408 C 0.9186 0.03862 0.66873 0.0
C409 C 0.92993 0.01258 0.6651 0.0
C410 C 0.90251 0.05004 0.65635 0.0
C411 C 0.84242 0.01392 0.61903 0.0
H412 H 0.87323 0.11867 0.61222 0.0
C413 C 0.76364 0.05236 0.56979 0.0
C414 C 0.75962 0.08345 0.57326 0.0
C415 C 0.78664 0.0447 0.58026 0.0
C416 C 0.86385 0.08922 0.61412 0.0
H417 H 0.9344 0.97891 0.64565 0.0
H418 H 0.90514 0.99825 0.62398 0.0
H419 H 0.91142 0.10482 0.63155 0.0
H420 H 0.7756 0.13049 0.59045 0.0
H421 H 0.81439 0.11622 0.60923 0.0
H422 H 0.79384 0.99791 0.60235 0.0
C423 C 0.90918 0.00999 0.63641 0.0
C424 C 0.88599 0.0814 0.62507 0.0
C425 C 0.92606 -0.00086 0.64875 0.0
C426 C 0.77846 0.10644 0.58751 0.0
C427 C 0.80095 0.09841 0.59815 0.0
C428 C 0.81988 0.02166 0.6083 0.0
C429 C 0.89679 0.03511 0.64018 0.0
C430 C 0.87535 0.04369 0.62765 0.0
C431 C 0.80565 0.06763 0.59459 0.0
C432 C 0.83016 0.05943 0.60576 0.0
H433 H 0.92142 0.04956 0.68122 0.0
H434 H 0.89297 0.06928 0.65956 0.0
H435 H 0.83332 0.98456 0.62103 0.0
H436 H 0.74984 0.03459 0.55872 0.0
H437 H 0.79009 0.02123 0.5769 0.0
C438 C 0.98452 0.93574 -0.00084 0.0
C439 C 0.98927 0.9719 -0.0019 0.0
C440 C 0.9496 0.90313 0.99361 0.0
C441 C 0.84631 0.86415 0.9863 0.0
H442 H 0.84991 0.80147 0.9514 0.0
C443 C 0.71195 0.76041 0.94465 0.0
C444 C 0.71046 0.72932 0.93654 0.0
C445 C 0.74413 0.78584 0.95489 0.0
C446 C 0.84815 0.81788 0.96144 0.0
H447 H 0.96092 0.00217 0.99083 0.0
H448 H 0.89966 0.94502 0.9815 0.0
H449 H 0.91 0.85381 0.9642 0.0
H450 H 0.74088 0.69924 0.93407 0.0
H451 H 0.79518 0.74169 0.95278 0.0
H452 H 0.7846 0.82816 0.98381 0.0
C453 C 0.9231 0.94208 0.98648 0.0
C454 C 0.88272 0.84808 0.96867 0.0
C455 C 0.95823 0.97473 0.99168 0.0
C456 C 0.74058 0.72262 0.94008 0.0
C457 C 0.77234 0.74756 0.95061 0.0
C458 C 0.81166 0.83343 0.97931 0.0
C459 C 0.9186 0.90607 0.9873 0.0
C460 C 0.88207 0.87191 0.9809 0.0
C461 C 0.77535 0.7804 0.95762 0.0
C462 C 0.81205 0.81034 0.96651 0.0
H463 H 0.00796 0.93271 0.00405 0.0
H464 H 0.94671 0.87558 0.99433 0.0
H465 H 0.8452 0.88204 -0.00415 0.0
H466 H 0.68891 0.76605 0.94261 0.0
H467 H 0.74519 0.81074 0.95997 0.0
C468 C 0.97981 0.86922 0.34484 0.0
C469 C 0.99579 0.9057 0.33855 0.0
C470 C 0.98358 0.84144 0.33669 0.0
C471 C 0.03802 0.82496 0.30606 0.0
H472 H 0.93969 0.73218 0.29475 0.0
C473 C 0.01731 0.7223 0.25239 0.0
C474 C 0.9884 0.68369 0.25299 0.0
C475 C 0.02257 0.74797 0.26509 0.0
C476 C 0.96762 0.75738 0.29808 0.0
H477 H 0.03011 0.94233 0.31932 0.0
H478 H 0.03697 0.89379 0.30518 0.0
H479 H 0.9419 0.77998 0.31322 0.0
H480 H 0.94409 0.64094 0.26768 0.0
H481 H 0.95428 0.68532 0.29025 0.0
H482 H 0.06384 0.80244 0.29092 0.0
C483 C 0.02143 0.88673 0.31638 0.0
C484 C 0.96879 0.78489 0.30864 0.0
C485 C 0.01726 0.9144 0.32441 0.0
C486 C 0.96627 0.67074 0.26689 0.0
C487 C 0.97198 0.69624 0.27974 0.0
C488 C 0.03698 0.79715 0.29567 0.0
C489 C 0.00385 0.84976 0.32223 0.0
C490 C 0.00383 0.81922 0.31248 0.0
C491 C -0.00061 0.7354 0.27878 0.0
C492 C 0.0016 0.7633 0.29126 0.0
H493 H 0.96322 0.86166 0.35574 0.0
H494 H 0.96999 0.81319 0.3415 0.0
H495 H 0.06547 0.85111 0.30897 0.0
H496 H 0.03452 0.73295 0.24171 0.0
H497 H 0.04358 0.77789 0.26376 0.0
C498 C 0.07555 0.93259 0.64717 0.0
C499 C 0.07396 0.95835 0.65808 0.0
C500 C 0.10851 0.94413 0.6383 0.0
C501 C 0.1948 0.03087 0.62419 0.0
H502 H 0.23238 0.96318 0.61639 0.0
C503 C 0.33784 0.08185 0.59334 0.0
C504 C 0.33587 0.05845 0.58014 0.0
C505 C 0.30772 0.06858 0.60404 0.0
C506 C 0.22208 0.9823 0.61843 0.0
H507 H 0.106 0.01621 0.66847 0.0
H508 H 0.16351 0.03601 0.6533 0.0
H509 H 0.1756 0.94206 0.63257 0.0
H510 H 0.30121 0.00225 0.56821 0.0
H511 H 0.24894 0.97899 0.58705 0.0
H512 H 0.24126 0.0711 0.6101 0.0
C513 C 0.13907 0.00715 0.65128 0.0
C514 C 0.1895 0.97018 0.62763 0.0
C515 C 0.10611 0.99572 0.66005 0.0
C516 C 0.30392 0.02087 0.57837 0.0
C517 C 0.27389 0.00754 0.58913 0.0
C518 C 0.22744 0.04303 0.61511 0.0
C519 C 0.14062 0.9816 0.64022 0.0
C520 C 0.17542 0.99432 0.63058 0.0
C521 C 0.27509 0.03155 0.60184 0.0
C522 C 0.24138 0.01887 0.6121 0.0
H523 H 0.05123 0.90361 0.64536 0.0
H524 H 0.10854 0.92385 0.62972 0.0
H525 H 0.18433 0.04994 0.62593 0.0
H526 H 0.36238 0.11069 0.59524 0.0
H527 H 0.30969 0.08749 0.61391 0.0
C528 C 0.14244 0.09304 0.97684 0.0
C529 C 0.15876 0.081 0.98896 0.0
C530 C 0.16305 0.11146 0.96318 0.0
C531 C 0.25235 0.13755 0.94104 0.0
H532 H 0.24095 0.2209 0.92726 0.0
C533 C 0.36048 0.26387 0.90231 0.0
C534 C 0.34364 0.27197 0.88876 0.0
C535 C 0.33717 0.23684 0.91347 0.0
C536 C 0.24418 0.19752 0.93091 0.0
H537 H 0.20849 0.07716 -0.00385 0.0
H538 H 0.24549 0.11095 0.9727 0.0
H539 H 0.20119 0.18008 0.94854 0.0
H540 H 0.28892 0.25635 0.87594 0.0
H541 H 0.24852 0.21053 0.89581 0.0
H542 H 0.29698 0.15679 0.92377 0.0
C543 C 0.21639 0.10537 0.97339 0.0
C544 C 0.22118 0.17385 0.94302 0.0
C545 C 0.1953 0.08612 0.98688 0.0
C546 C 0.30297 0.25171 0.88646 0.0
C547 C 0.27976 0.22522 0.89774 0.0
C548 C 0.27591 0.16178 0.9291 0.0
C549 C 0.20089 0.11913 0.96156 0.0
C550 C 0.2248 0.14342 0.94823 0.0
C551 C 0.29664 0.21783 0.91141 0.0
C552 C 0.27187 0.19185 0.92392 0.0
H553 H 0.11388 0.08857 0.978 0.0
H554 H 0.14954 0.12037 0.95406 0.0
H555 H 0.25566 0.11418 0.94455 0.0
H556 H 0.39164 0.27914 0.90458 0.0
H557 H 0.35077 0.23175 0.92403 0.0
C558 C 0.08966 0.15422 0.33394 0.0
C559 C 0.06158 0.11737 0.32792 0.0
C560 C 0.10441 0.1847 0.32349 0.0
C561 C 0.09742 0.21157 0.28016 0.0
H562 H 0.08352 0.28676 0.30257 0.0
C563 C 0.0758 0.3199 0.2446 0.0
C564 C 0.04246 0.31958 0.24896 0.0
C565 C 0.09122 0.30316 0.25459 0.0
C566 C 0.08784 0.26623 0.29614 0.0
H567 H 0.03003 0.0826 0.30606 0.0
H568 H 0.05457 0.1358 0.28787 0.0
H569 H 0.08992 0.241 0.31848 0.0
H570 H 0.00042 0.30355 0.26755 0.0
H571 H 0.02717 0.27439 0.28498 0.0
H572 H 0.09225 0.2354 0.25769 0.0
C573 C 0.06595 0.1414 0.30055 0.0
C574 C 0.09207 0.2402 0.30528 0.0
C575 C 0.05177 0.11077 0.31097 0.0
C576 C 0.02602 0.30401 0.26388 0.0
C577 C 0.04158 0.28761 0.27391 0.0
C578 C 0.09308 0.23767 0.271 0.0
C579 C 0.09056 0.17898 0.30692 0.0
C580 C 0.09538 0.21156 0.29738 0.0
C581 C 0.07381 0.28623 0.2692 0.0
C582 C 0.08663 0.26422 0.27889 0.0
H583 H 0.098 0.15989 0.34697 0.0
H584 H 0.12428 0.21311 0.32869 0.0
H585 H 0.10046 0.19026 0.2737 0.0
H586 H 0.08884 0.33147 0.23308 0.0
H587 H 0.11618 0.30267 0.25071 0.0
loop_
_geom_bond_atom_site_label_1
_geom_bond_atom_site_label_2
_geom_bond_distance
_geom_bond_site_symmetry_2
_ccdc_geom_bond_type
Mg0 O1 2.028 1_545 S
Mg0 O7 1.986 . S
Mg0 O9 2.114 . S
Mg0 O10 2.251 . S
Mg0 O13 2.010 . S
O1 Mg0 2.028 1_565 S
O1 C4 1.250 1_455 S
O2 Mg3 2.028 1_655 S
O2 C4 1.246 1_545 S
Mg3 O2 2.028 1_455 S
Mg3 O8 2.032 . S
Mg3 O10 2.079 . S
C4 O1 1.250 1_655 S
C4 O2 1.246 1_565 S
C5 O6 1.264 . S
C5 O13 1.249 1_565 S
O6 C5 1.264 . S
O7 Mg0 1.986 . S
O7 C11 1.246 . S
O8 Mg3 2.032 . S
O8 C11 1.259 . S
O9 Mg0 2.114 . S
O9 C12 1.252 . S
O10 Mg0 2.251 . S
O10 Mg3 2.079 . S
O10 C12 1.273 . S
C11 O7 1.246 . S
C11 O8 1.259 . S
C12 O9 1.252 . S
C12 O10 1.273 . S
O13 Mg0 2.010 . S
O13 C5 1.249 1_545 S
Mg14 O15 2.028 1_655 S
Mg14 O21 1.986 1_655 S
Mg14 O23 2.114 1_545 S
Mg14 O24 2.251 . S
Mg14 O27 2.010 1_545 S
O15 Mg14 2.028 1_455 S
O15 C18 1.250 . S
O16 Mg17 2.028 . S
O16 C18 1.248 . S
Mg17 O16 2.028 . S
Mg17 O22 2.032 . S
Mg17 O24 2.079 1_455 S
C18 O15 1.250 . S
C18 O16 1.248 . S
C19 O20 1.264 . S
C19 O27 1.249 . S
O20 C19 1.264 . S
O21 Mg14 1.986 1_455 S
O21 C25 1.246 . S
O22 Mg17 2.032 . S
O22 C25 1.259 . S
O23 Mg14 2.114 1_565 S
O23 C26 1.252 . S
O24 Mg14 2.251 . S
O24 Mg17 2.079 1_655 S
O24 C26 1.273 1_545 S
C25 O21 1.246 . S
C25 O22 1.259 . S
C26 O23 1.252 . S
C26 O24 1.273 1_565 S
O27 Mg14 2.010 1_565 S
O27 C19 1.249 . S
Mg28 O29 2.028 1_565 S
Mg28 O35 1.986 1_465 S
Mg28 O37 2.114 . S
Mg28 O38 2.251 1_455 S
Mg28 O41 2.010 . S
O29 Mg28 2.028 1_545 S
O29 C32 1.250 . S
O30 Mg31 2.028 1_455 S
O30 C32 1.248 . S
Mg31 O30 2.028 1_655 S
Mg31 O36 2.032 . S
Mg31 O38 2.079 1_545 S
C32 O29 1.250 . S
C32 O30 1.248 . S
C33 O34 1.264 . S
C33 O41 1.249 . S
O34 C33 1.264 . S
O35 Mg28 1.986 1_645 S
O35 C39 1.246 . S
O36 Mg31 2.032 . S
O36 C39 1.259 . S
O37 Mg28 2.114 . S
O37 C40 1.252 1_455 S
O38 Mg28 2.251 1_655 S
O38 Mg31 2.079 1_565 S
O38 C40 1.273 . S
C39 O35 1.246 . S
C39 O36 1.259 . S
C40 O37 1.252 1_655 S
C40 O38 1.273 . S
O41 Mg28 2.010 . S
O41 C33 1.249 . S
H42 C69 0.929 . S
N43 C68 1.433 . S
N43 C74 1.435 . S
N43 C80 1.423 . S
H44 C70 0.944 . S
H45 C73 0.931 . S
H46 C72 0.929 . S
H47 C75 0.930 . S
H48 C76 0.932 . S
H49 C79 0.929 . S
H50 C78 0.931 1_655 S
H51 C81 0.929 . S
H52 C85 0.932 . S
H53 C82 0.931 . S
H54 C84 0.929 . S
H55 C87 0.929 . S
H56 C88 0.929 . S
H57 C90 0.929 . S
H58 C91 0.931 . S
H59 C93 0.930 . S
H60 C94 0.932 . S
H61 C96 0.931 1_655 S
H62 C97 0.929 . S
H63 C99 0.929 . S
H64 C100 0.931 . S
H65 C102 0.929 . S
N66 C86 1.433 . S
N66 C92 1.435 . S
N66 C98 1.423 . S
H67 C103 0.932 . S
C68 N43 1.433 . S
C68 C69 1.363 1_455 S
C68 C73 1.370 . S
C69 H42 0.929 . S
C69 C68 1.363 1_655 S
C69 C70 1.383 . S
C70 H44 0.944 . S
C70 C69 1.383 . S
C70 C71 1.346 1_655 S
C71 C70 1.346 1_455 S
C71 C72 1.406 . S
C72 H46 0.929 . S
C72 C71 1.406 . S
C72 C73 1.391 . S
C73 H45 0.931 . S
C73 C68 1.370 . S
C73 C72 1.391 . S
C74 N43 1.435 . S
C74 C75 1.358 . S
C74 C79 1.371 1_455 S
C75 H47 0.930 . S
C75 C74 1.358 . S
C75 C76 1.405 . S
C76 H48 0.932 . S
C76 C75 1.405 . S
C76 C77 1.383 . S
C77 C76 1.383 . S
C77 C78 1.393 . S
C78 H50 0.931 1_455 S
C78 C77 1.393 . S
C78 C79 1.382 1_455 S
C79 H49 0.929 . S
C79 C74 1.371 1_655 S
C79 C78 1.382 1_655 S
C80 N43 1.423 . S
C80 C81 1.362 1_455 S
C80 C85 1.388 . S
C81 H51 0.929 . S
C81 C80 1.362 1_655 S
C81 C82 1.376 . S
C82 H53 0.931 . S
C82 C81 1.376 . S
C82 C83 1.389 1_655 S
C83 C82 1.389 1_455 S
C83 C84 1.350 . S
C83 C101 1.472 . S
C84 H54 0.929 . S
C84 C83 1.350 . S
C84 C85 1.443 . S
C85 H52 0.932 . S
C85 C80 1.388 . S
C85 C84 1.443 . S
C86 N66 1.433 . S
C86 C87 1.363 1_455 S
C86 C91 1.370 . S
C87 H55 0.929 . S
C87 C86 1.363 1_655 S
C87 C88 1.389 . S
C88 H56 0.929 . S
C88 C87 1.389 . S
C88 C89 1.355 1_655 S
C89 C88 1.355 1_455 S
C89 C90 1.406 . S
C90 H57 0.929 . S
C90 C89 1.406 . S
C90 C91 1.391 . S
C91 H58 0.931 . S
C91 C86 1.370 . S
C91 C90 1.391 . S
C92 N66 1.435 . S
C92 C93 1.358 . S
C92 C97 1.371 1_455 S
C93 H59 0.930 . S
C93 C92 1.358 . S
C93 C94 1.405 . S
C94 H60 0.932 . S
C94 C93 1.405 . S
C94 C95 1.383 . S
C95 C94 1.383 . S
C95 C96 1.393 . S
C96 H61 0.931 1_455 S
C96 C95 1.393 . S
C96 C97 1.382 1_455 S
C97 H62 0.929 . S
C97 C92 1.371 1_655 S
C97 C96 1.382 1_655 S
C98 N66 1.423 . S
C98 C99 1.362 1_455 S
C98 C103 1.388 . S
C99 H63 0.929 . S
C99 C98 1.362 1_655 S
C99 C100 1.376 . S
C100 H64 0.931 . S
C100 C99 1.376 . S
C100 C101 1.394 1_655 S
C101 C83 1.472 . S
C101 C100 1.394 1_455 S
C101 C102 1.355 . S
C102 H65 0.929 . S
C102 C101 1.355 . S
C102 C103 1.443 . S
C103 H67 0.932 . S
C103 C98 1.388 . S
C103 C102 1.443 . S
H104 C131 0.929 . S
N105 C130 1.433 . S
N105 C136 1.435 . S
N105 C142 1.423 . S
H106 C132 0.930 . S
H107 C135 0.931 . S
H108 C134 0.929 . S
H109 C137 0.930 . S
H110 C138 0.932 . S
H111 C141 0.929 . S
H112 C140 0.931 . S
H113 C143 0.929 . S
H114 C147 0.932 . S
H115 C144 0.931 . S
H116 C146 0.929 . S
H117 C149 0.929 . S
H118 C150 0.930 . S
H119 C152 0.929 . S
H120 C153 0.931 . S
H121 C155 0.930 . S
H122 C156 0.932 . S
H123 C158 0.931 . S
H124 C159 0.929 . S
H125 C161 0.929 . S
H126 C162 0.931 . S
H127 C164 0.929 . S
N128 C148 1.433 . S
N128 C154 1.435 . S
N128 C160 1.423 . S
H129 C165 0.932 . S
C130 N105 1.433 . S
C130 C131 1.363 . S
C130 C135 1.370 . S
C131 H104 0.929 . S
C131 C130 1.363 . S
C131 C132 1.385 . S
C132 H106 0.930 . S
C132 C131 1.385 . S
C132 C133 1.357 . S
C133 C132 1.357 . S
C133 C134 1.406 . S
C134 H108 0.929 . S
C134 C133 1.406 . S
C134 C135 1.391 . S
C135 H107 0.931 . S
C135 C130 1.370 . S
C135 C134 1.391 . S
C136 N105 1.435 . S
C136 C137 1.358 . S
C136 C141 1.371 . S
C137 H109 0.930 . S
C137 C136 1.358 . S
C137 C138 1.405 . S
C138 H110 0.932 . S
C138 C137 1.405 . S
C138 C139 1.383 . S
C139 C138 1.383 . S
C139 C140 1.393 . S
C140 H112 0.931 . S
C140 C139 1.393 . S
C140 C141 1.382 . S
C141 H111 0.929 . S
C141 C136 1.371 . S
C141 C140 1.382 . S
C142 N105 1.423 . S
C142 C143 1.362 . S
C142 C147 1.388 . S
C143 H113 0.929 . S
C143 C142 1.362 . S
C143 C144 1.376 . S
C144 H115 0.931 . S
C144 C143 1.376 . S
C144 C145 1.396 . S
C145 C144 1.396 . S
C145 C146 1.348 . S
C145 C163 1.472 . S
C146 H116 0.929 . S
C146 C145 1.348 . S
C146 C147 1.443 . S
C147 H114 0.932 . S
C147 C142 1.388 . S
C147 C146 1.443 . S
C148 N128 1.433 . S
C148 C149 1.363 . S
C148 C153 1.370 . S
C149 H117 0.929 . S
C149 C148 1.363 . S
C149 C150 1.385 . S
C150 H118 0.930 . S
C150 C149 1.385 . S
C150 C151 1.357 . S
C151 C150 1.357 . S
C151 C152 1.406 . S
C152 H119 0.929 . S
C152 C151 1.406 . S
C152 C153 1.391 . S
C153 H120 0.931 . S
C153 C148 1.370 . S
C153 C152 1.391 . S
C154 N128 1.435 . S
C154 C155 1.358 . S
C154 C159 1.371 . S
C155 H121 0.930 . S
C155 C154 1.358 . S
C155 C156 1.405 . S
C156 H122 0.932 . S
C156 C155 1.405 . S
C156 C157 1.383 . S
C157 C156 1.383 . S
C157 C158 1.393 . S
C158 H123 0.931 . S
C158 C157 1.393 . S
C158 C159 1.382 . S
C159 H124 0.929 . S
C159 C154 1.371 . S
C159 C158 1.382 . S
C160 N128 1.423 . S
C160 C161 1.362 . S
C160 C165 1.388 . S
C161 H125 0.929 . S
C161 C160 1.362 . S
C161 C162 1.376 . S
C162 H126 0.931 . S
C162 C161 1.376 . S
C162 C163 1.396 . S
C163 C145 1.472 . S
C163 C162 1.396 . S
C163 C164 1.348 . S
C164 H127 0.929 . S
C164 C163 1.348 . S
C164 C165 1.443 . S
C165 H129 0.932 . S
C165 C160 1.388 . S
C165 C164 1.443 . S
H166 C193 0.929 . S
N167 C192 1.433 . S
N167 C198 1.435 . S
N167 C204 1.423 . S
H168 C194 0.930 . S
H169 C197 0.931 . S
H170 C196 0.929 . S
H171 C199 0.930 . S
H172 C200 0.932 . S
H173 C203 0.929 . S
H174 C202 0.931 . S
H175 C205 0.929 . S
H176 C209 0.932 . S
H177 C206 0.931 . S
H178 C208 0.929 . S
H179 C211 0.929 . S
H180 C212 0.930 . S
H181 C214 0.929 . S
H182 C215 0.931 . S
H183 C217 0.930 . S
H184 C218 0.932 . S
H185 C220 0.931 . S
H186 C221 0.929 . S
H187 C223 0.929 . S
H188 C224 0.931 . S
H189 C226 0.929 . S
N190 C210 1.433 . S
N190 C216 1.435 . S
N190 C222 1.423 . S
H191 C227 0.932 . S
C192 N167 1.433 . S
C192 C193 1.363 . S
C192 C197 1.370 . S
C193 H166 0.929 . S
C193 C192 1.363 . S
C193 C194 1.385 . S
C194 H168 0.930 . S
C194 C193 1.385 . S
C194 C195 1.357 . S
C195 C194 1.357 . S
C195 C196 1.406 . S
C196 H170 0.929 . S
C196 C195 1.406 . S
C196 C197 1.391 . S
C197 H169 0.931 . S
C197 C192 1.370 . S
C197 C196 1.391 . S
C198 N167 1.435 . S
C198 C199 1.358 . S
C198 C203 1.371 . S
C199 H171 0.930 . S
C199 C198 1.358 . S
C199 C200 1.405 . S
C200 H172 0.932 . S
C200 C199 1.405 . S
C200 C201 1.383 . S
C201 C200 1.383 . S
C201 C202 1.393 . S
C202 H174 0.931 . S
C202 C201 1.393 . S
C202 C203 1.382 . S
C203 H173 0.929 . S
C203 C198 1.371 . S
C203 C202 1.382 . S
C204 N167 1.423 . S
C204 C205 1.362 . S
C204 C209 1.388 . S
C205 H175 0.929 . S
C205 C204 1.362 . S
C205 C206 1.376 . S
C206 H177 0.931 . S
C206 C205 1.376 . S
C206 C207 1.396 . S
C207 C206 1.396 . S
C207 C208 1.348 . S
C207 C225 1.472 . S
C208 H178 0.929 . S
C208 C207 1.348 . S
C208 C209 1.443 . S
C209 H176 0.932 . S
C209 C204 1.388 . S
C209 C208 1.443 . S
C210 N190 1.433 . S
C210 C211 1.363 . S
C210 C215 1.370 . S
C211 H179 0.929 . S
C211 C210 1.363 . S
C211 C212 1.385 . S
C212 H180 0.930 . S
C212 C211 1.385 . S
C212 C213 1.357 . S
C213 C212 1.357 . S
C213 C214 1.406 . S
C214 H181 0.929 . S
C214 C213 1.406 . S
C214 C215 1.391 . S
C215 H182 0.931 . S
C215 C210 1.370 . S
C215 C214 1.391 . S
C216 N190 1.435 . S
C216 C217 1.358 . S
C216 C221 1.371 . S
C217 H183 0.930 . S
C217 C216 1.358 . S
C217 C218 1.405 . S
C218 H184 0.932 . S
C218 C217 1.405 . S
C218 C219 1.383 . S
C219 C218 1.383 . S
C219 C220 1.393 . S
C220 H185 0.931 . S
C220 C219 1.393 . S
C220 C221 1.382 . S
C221 H186 0.929 . S
C221 C216 1.371 . S
C221 C220 1.382 . S
C222 N190 1.423 . S
C222 C223 1.362 . S
C222 C227 1.388 . S
C223 H187 0.929 . S
C223 C222 1.362 . S
C223 C224 1.376 . S
C224 H188 0.931 . S
C224 C223 1.376 . S
C224 C225 1.396 . S
C225 C207 1.472 . S
C225 C224 1.396 . S
C225 C226 1.348 . S
C226 H189 0.929 . S
C226 C225 1.348 . S
C226 C227 1.443 . S
C227 H191 0.932 . S
C227 C222 1.388 . S
C227 C226 1.443 . S
C228 C229 1.349 . S
C228 C230 1.327 . S
C228 H253 0.950 . S
C229 C228 1.349 . S
C229 C245 1.349 . S
C230 C228 1.327 . S
C230 C249 1.429 . S
C230 H254 0.950 . S
C231 C248 1.574 . S
C231 C250 1.368 . S
C231 H255 0.949 . S
H232 C236 0.949 . S
C233 C234 1.349 . S
C233 C235 1.327 . S
C233 H256 0.950 . S
C234 C233 1.349 . S
C234 C246 1.349 . S
C235 C233 1.327 . S
C235 C251 1.429 . S
C235 H257 0.950 . S
C236 H232 0.949 . S
C236 C244 1.574 . S
C236 C252 1.368 . S
H237 C245 0.950 . S
H238 C243 0.950 . S
H239 C244 0.949 . S
H240 C246 0.950 . S
H241 C247 0.950 . S
H242 C248 0.949 . S
C243 H238 0.950 . S
C243 C245 1.327 . S
C243 C249 1.429 . S
C244 C236 1.574 . S
C244 H239 0.949 . S
C244 C250 1.368 . S
C245 C229 1.349 . S
C245 H237 0.950 . S
C245 C243 1.327 . S
C246 C234 1.349 . S
C246 H240 0.950 . S
C246 C247 1.327 . S
C247 H241 0.950 . S
C247 C246 1.327 . S
C247 C251 1.429 . S
C248 C231 1.574 . S
C248 H242 0.949 . S
C248 C252 1.368 . S
C249 C230 1.429 . S
C249 C243 1.429 . S
C249 C250 1.523 . S
C250 C231 1.368 . S
C250 C244 1.368 . S
C250 C249 1.523 . S
C251 C235 1.429 . S
C251 C247 1.429 . S
C251 C252 1.523 . S
C252 C236 1.368 . S
C252 C248 1.368 . S
C252 C251 1.523 . S
H253 C228 0.950 . S
H254 C230 0.950 . S
H255 C231 0.949 . S
H256 C233 0.950 . S
H257 C235 0.950 . S
C258 C259 1.349 1_545 S
C258 C260 1.327 . S
C258 H283 0.950 . S
C259 C258 1.349 1_565 S
C259 C275 1.349 . S
C260 C258 1.327 . S
C260 C279 1.429 . S
C260 H284 0.950 . S
C261 C278 1.574 . S
C261 C280 1.368 1_565 S
C261 H285 0.949 . S
H262 C266 0.949 . S
C263 C264 1.349 . S
C263 C265 1.327 . S
C263 H286 0.950 1_545 S
C264 C263 1.349 . S
C264 C276 1.349 . S
C265 C263 1.327 . S
C265 C281 1.429 . S
C265 H287 0.950 1_545 S
C266 H262 0.949 . S
C266 C274 1.574 . S
C266 C282 1.368 . S
H267 C275 0.950 . S
H268 C273 0.950 . S
H269 C274 0.949 . S
H270 C276 0.950 . S
H271 C277 0.950 . S
H272 C278 0.949 . S
C273 H268 0.950 . S
C273 C275 1.327 . S
C273 C279 1.429 1_565 S
C274 C266 1.574 . S
C274 H269 0.949 . S
C274 C280 1.368 . S
C275 C259 1.349 . S
C275 H267 0.950 . S
C275 C273 1.327 . S
C276 C264 1.349 . S
C276 H270 0.950 . S
C276 C277 1.327 . S
C277 H271 0.950 . S
C277 C276 1.327 . S
C277 C281 1.429 . S
C278 C261 1.574 . S
C278 H272 0.949 . S
C278 C282 1.368 1_565 S
C279 C260 1.429 . S
C279 C273 1.429 1_545 S
C279 C280 1.523 . S
C280 C261 1.368 1_545 S
C280 C274 1.368 . S
C280 C279 1.523 . S
C281 C265 1.429 . S
C281 C277 1.429 . S
C281 C282 1.523 . S
C282 C266 1.368 . S
C282 C278 1.368 1_545 S
C282 C281 1.523 . S
H283 C258 0.950 . S
H284 C260 0.950 . S
H285 C261 0.949 . S
H286 C263 0.950 1_565 S
H287 C265 0.950 1_565 S
C288 C289 1.349 . S
C288 C290 1.327 . S
C288 H313 0.950 . S
C289 C288 1.349 . S
C289 C305 1.349 . S
C290 C288 1.327 . S
C290 C309 1.429 . S
C290 H314 0.950 . S
C291 C308 1.574 . S
C291 C310 1.368 . S
C291 H315 0.949 . S
H292 C296 0.949 . S
C293 C294 1.349 . S
C293 C295 1.327 . S
C293 H316 0.950 . S
C294 C293 1.349 . S
C294 C306 1.349 . S
C295 C293 1.327 . S
C295 C311 1.429 . S
C295 H317 0.950 . S
C296 H292 0.949 . S
C296 C304 1.574 . S
C296 C312 1.368 . S
H297 C305 0.950 . S
H298 C303 0.950 . S
H299 C304 0.949 . S
H300 C306 0.950 . S
H301 C307 0.950 . S
H302 C308 0.949 . S
C303 H298 0.950 . S
C303 C305 1.327 . S
C303 C309 1.429 . S
C304 C296 1.574 . S
C304 H299 0.949 . S
C304 C310 1.368 . S
C305 C289 1.349 . S
C305 H297 0.950 . S
C305 C303 1.327 . S
C306 C294 1.349 . S
C306 H300 0.950 . S
C306 C307 1.327 . S
C307 H301 0.950 . S
C307 C306 1.327 . S
C307 C311 1.429 . S
C308 C291 1.574 . S
C308 H302 0.949 . S
C308 C312 1.368 . S
C309 C290 1.429 . S
C309 C303 1.429 . S
C309 C310 1.523 . S
C310 C291 1.368 . S
C310 C304 1.368 . S
C310 C309 1.523 . S
C311 C295 1.429 . S
C311 C307 1.429 . S
C311 C312 1.523 . S
C312 C296 1.368 . S
C312 C308 1.368 . S
C312 C311 1.523 . S
H313 C288 0.950 . S
H314 C290 0.950 . S
H315 C291 0.949 . S
H316 C293 0.950 . S
H317 C295 0.950 . S
C318 C319 1.349 . S
C318 C320 1.327 . S
C318 H343 0.950 . S
C319 C318 1.349 . S
C319 C335 1.349 . S
C320 C318 1.327 . S
C320 C339 1.429 . S
C320 H344 0.950 . S
C321 C338 1.574 . S
C321 C340 1.368 . S
C321 H345 0.949 . S
H322 C326 0.949 . S
C323 C324 1.349 . S
C323 C325 1.327 . S
C323 H346 0.950 . S
C324 C323 1.349 . S
C324 C336 1.349 . S
C325 C323 1.327 . S
C325 C341 1.429 . S
C325 H347 0.950 . S
C326 H322 0.949 . S
C326 C334 1.574 . S
C326 C342 1.368 . S
H327 C335 0.950 . S
H328 C333 0.950 . S
H329 C334 0.949 . S
H330 C336 0.950 . S
H331 C337 0.950 . S
H332 C338 0.949 . S
C333 H328 0.950 . S
C333 C335 1.327 . S
C333 C339 1.429 . S
C334 C326 1.574 . S
C334 H329 0.949 . S
C334 C340 1.368 . S
C335 C319 1.349 . S
C335 H327 0.950 . S
C335 C333 1.327 . S
C336 C324 1.349 . S
C336 H330 0.950 . S
C336 C337 1.327 . S
C337 H331 0.950 . S
C337 C336 1.327 . S
C337 C341 1.429 . S
C338 C321 1.574 . S
C338 H332 0.949 . S
C338 C342 1.368 . S
C339 C320 1.429 . S
C339 C333 1.429 . S
C339 C340 1.523 . S
C340 C321 1.368 . S
C340 C334 1.368 . S
C340 C339 1.523 . S
C341 C325 1.429 . S
C341 C337 1.429 . S
C341 C342 1.523 . S
C342 C326 1.368 . S
C342 C338 1.368 . S
C342 C341 1.523 . S
H343 C318 0.950 . S
H344 C320 0.950 . S
H345 C321 0.949 . S
H346 C323 0.950 . S
H347 C325 0.950 . S
C348 C349 1.349 . S
C348 C350 1.327 . S
C348 H373 0.950 1_545 S
C349 C348 1.349 . S
C349 C365 1.349 . S
C350 C348 1.327 . S
C350 C369 1.429 . S
C350 H374 0.950 1_545 S
C351 C368 1.574 . S
C351 C370 1.368 . S
C351 H375 0.949 . S
H352 C356 0.949 1_565 S
C353 C354 1.349 . S
C353 C355 1.327 . S
C353 H376 0.950 . S
C354 C353 1.349 . S
C354 C366 1.349 . S
C355 C353 1.327 . S
C355 C371 1.429 . S
C355 H377 0.950 . S
C356 H352 0.949 1_545 S
C356 C364 1.574 . S
C356 C372 1.368 . S
H357 C365 0.950 . S
H358 C363 0.950 . S
H359 C364 0.949 1_565 S
H360 C366 0.950 1_565 S
H361 C367 0.950 1_565 S
H362 C368 0.949 . S
C363 H358 0.950 . S
C363 C365 1.327 . S
C363 C369 1.429 . S
C364 C356 1.574 . S
C364 H359 0.949 1_545 S
C364 C370 1.368 . S
C365 C349 1.349 . S
C365 H357 0.950 . S
C365 C363 1.327 . S
C366 C354 1.349 . S
C366 H360 0.950 1_545 S
C366 C367 1.327 . S
C367 H361 0.950 1_545 S
C367 C366 1.327 . S
C367 C371 1.429 . S
C368 C351 1.574 . S
C368 H362 0.949 . S
C368 C372 1.368 . S
C369 C350 1.429 . S
C369 C363 1.429 . S
C369 C370 1.523 . S
C370 C351 1.368 . S
C370 C364 1.368 . S
C370 C369 1.523 . S
C371 C355 1.429 . S
C371 C367 1.429 . S
C371 C372 1.523 . S
C372 C356 1.368 . S
C372 C368 1.368 . S
C372 C371 1.523 . S
H373 C348 0.950 1_565 S
H374 C350 0.950 1_565 S
H375 C351 0.949 . S
H376 C353 0.950 . S
H377 C355 0.950 . S
C378 C379 1.349 . S
C378 C380 1.327 . S
C378 H403 0.950 . S
C379 C378 1.349 . S
C379 C395 1.349 . S
C380 C378 1.327 . S
C380 C399 1.429 . S
C380 H404 0.950 . S
C381 C398 1.574 . S
C381 C400 1.368 . S
C381 H405 0.949 . S
H382 C386 0.949 . S
C383 C384 1.349 . S
C383 C385 1.327 . S
C383 H406 0.950 . S
C384 C383 1.349 . S
C384 C396 1.349 . S
C385 C383 1.327 . S
C385 C401 1.429 . S
C385 H407 0.950 . S
C386 H382 0.949 . S
C386 C394 1.574 . S
C386 C402 1.368 . S
H387 C395 0.950 . S
H388 C393 0.950 . S
H389 C394 0.949 . S
H390 C396 0.950 . S
H391 C397 0.950 . S
H392 C398 0.949 . S
C393 H388 0.950 . S
C393 C395 1.327 . S
C393 C399 1.429 . S
C394 C386 1.574 . S
C394 H389 0.949 . S
C394 C400 1.368 . S
C395 C379 1.349 . S
C395 H387 0.950 . S
C395 C393 1.327 . S
C396 C384 1.349 . S
C396 H390 0.950 . S
C396 C397 1.327 . S
C397 H391 0.950 . S
C397 C396 1.327 . S
C397 C401 1.429 . S
C398 C381 1.574 . S
C398 H392 0.949 . S
C398 C402 1.368 . S
C399 C380 1.429 . S
C399 C393 1.429 . S
C399 C400 1.523 . S
C400 C381 1.368 . S
C400 C394 1.368 . S
C400 C399 1.523 . S
C401 C385 1.429 . S
C401 C397 1.429 . S
C401 C402 1.523 . S
C402 C386 1.368 . S
C402 C398 1.368 . S
C402 C401 1.523 . S
H403 C378 0.950 . S
H404 C380 0.950 . S
H405 C381 0.949 . S
H406 C383 0.950 . S
H407 C385 0.950 . S
C408 C409 1.349 . S
C408 C410 1.327 . S
C408 H433 0.950 . S
C409 C408 1.349 . S
C409 C425 1.349 . S
C410 C408 1.327 . S
C410 C429 1.429 . S
C410 H434 0.950 . S
C411 C428 1.574 . S
C411 C430 1.368 . S
C411 H435 0.949 1_545 S
H412 C416 0.949 . S
C413 C414 1.349 . S
C413 C415 1.327 . S
C413 H436 0.950 1_545 S
C414 C413 1.349 . S
C414 C426 1.349 . S
C415 C413 1.327 . S
C415 C431 1.429 . S
C415 H437 0.950 1_545 S
C416 H412 0.949 . S
C416 C424 1.574 . S
C416 C432 1.368 . S
H417 C425 0.950 1_565 S
H418 C423 0.950 1_565 S
H419 C424 0.949 . S
H420 C426 0.950 . S
H421 C427 0.950 . S
H422 C428 0.949 1_565 S
C423 H418 0.950 1_545 S
C423 C425 1.327 . S
C423 C429 1.429 . S
C424 C416 1.574 . S
C424 H419 0.949 . S
C424 C430 1.368 . S
C425 C409 1.349 . S
C425 H417 0.950 1_545 S
C425 C423 1.327 . S
C426 C414 1.349 . S
C426 H420 0.950 . S
C426 C427 1.327 . S
C427 H421 0.950 . S
C427 C426 1.327 . S
C427 C431 1.429 . S
C428 C411 1.574 . S
C428 H422 0.949 1_545 S
C428 C432 1.368 . S
C429 C410 1.429 . S
C429 C423 1.429 . S
C429 C430 1.523 . S
C430 C411 1.368 . S
C430 C424 1.368 . S
C430 C429 1.523 . S
C431 C415 1.429 . S
C431 C427 1.429 . S
C431 C432 1.523 . S
C432 C416 1.368 . S
C432 C428 1.368 . S
C432 C431 1.523 . S
H433 C408 0.950 . S
H434 C410 0.950 . S
H435 C411 0.949 1_565 S
H436 C413 0.950 1_565 S
H437 C415 0.950 1_565 S
C438 C439 1.349 1_556 S
C438 C440 1.327 . S
C438 H463 0.950 . S
C439 C438 1.349 1_554 S
C439 C455 1.349 . S
C440 C438 1.327 . S
C440 C459 1.429 . S
C440 H464 0.950 . S
C441 C458 1.574 . S
C441 C460 1.368 . S
C441 H465 0.949 . S
H442 C446 0.949 . S
C443 C444 1.349 . S
C443 C445 1.327 . S
C443 H466 0.950 . S
C444 C443 1.349 . S
C444 C456 1.349 . S
C445 C443 1.327 . S
C445 C461 1.429 . S
C445 H467 0.950 . S
C446 H442 0.949 . S
C446 C454 1.574 . S
C446 C462 1.368 . S
H447 C455 0.950 . S
H448 C453 0.950 . S
H449 C454 0.949 . S
H450 C456 0.950 . S
H451 C457 0.950 . S
H452 C458 0.949 . S
C453 H448 0.950 . S
C453 C455 1.327 . S
C453 C459 1.429 1_554 S
C454 C446 1.574 . S
C454 H449 0.949 . S
C454 C460 1.368 . S
C455 C439 1.349 . S
C455 H447 0.950 . S
C455 C453 1.327 . S
C456 C444 1.349 . S
C456 H450 0.950 . S
C456 C457 1.327 . S
C457 H451 0.950 . S
C457 C456 1.327 . S
C457 C461 1.429 . S
C458 C441 1.574 . S
C458 H452 0.949 . S
C458 C462 1.368 . S
C459 C440 1.429 . S
C459 C453 1.429 1_556 S
C459 C460 1.523 . S
C460 C441 1.368 . S
C460 C454 1.368 . S
C460 C459 1.523 . S
C461 C445 1.429 . S
C461 C457 1.429 . S
C461 C462 1.523 . S
C462 C446 1.368 . S
C462 C458 1.368 . S
C462 C461 1.523 . S
H463 C438 0.950 . S
H464 C440 0.950 . S
H465 C441 0.949 . S
H466 C443 0.950 . S
H467 C445 0.950 . S
C468 C469 1.349 . S
C468 C470 1.327 . S
C468 H493 0.950 . S
C469 C468 1.349 . S
C469 C485 1.349 1_655 S
C470 C468 1.327 . S
C470 C489 1.429 . S
C470 H494 0.950 . S
C471 C488 1.574 . S
C471 C490 1.403 . S
C471 H495 0.949 . S
H472 C476 0.949 . S
C473 C474 1.349 . S
C473 C475 1.327 . S
C473 H496 0.950 . S
C474 C473 1.349 . S
C474 C486 1.349 1_455 S
C475 C473 1.327 . S
C475 C491 1.429 . S
C475 H497 0.950 . S
C476 H472 0.949 . S
C476 C484 1.574 . S
C476 C492 1.368 1_655 S
H477 C485 0.950 . S
H478 C483 0.950 . S
H479 C484 0.949 . S
H480 C486 0.950 . S
H481 C487 0.950 . S
H482 C488 0.949 . S
C483 H478 0.950 . S
C483 C485 1.327 . S
C483 C489 1.429 1_455 S
C484 C476 1.574 . S
C484 H479 0.949 . S
C484 C490 1.349 1_655 S
C485 C469 1.349 1_455 S
C485 H477 0.950 . S
C485 C483 1.327 . S
C486 C474 1.349 1_655 S
C486 H480 0.950 . S
C486 C487 1.327 . S
C487 H481 0.950 . S
C487 C486 1.327 . S
C487 C491 1.429 1_655 S
C488 C471 1.574 . S
C488 H482 0.949 . S
C488 C492 1.368 . S
C489 C470 1.429 . S
C489 C483 1.429 1_655 S
C489 C490 1.504 1_655 S
C490 C471 1.403 . S
C490 C484 1.349 1_455 S
C490 C489 1.504 1_455 S
C491 C475 1.429 . S
C491 C487 1.429 1_455 S
C491 C492 1.523 . S
C492 C476 1.368 1_455 S
C492 C488 1.368 . S
C492 C491 1.523 . S
H493 C468 0.950 . S
H494 C470 0.950 . S
H495 C471 0.949 . S
H496 C473 0.950 . S
H497 C475 0.950 . S
C498 C499 1.349 . S
C498 C500 1.327 . S
C498 H523 0.950 . S
C499 C498 1.349 . S
C499 C515 1.349 1_565 S
C500 C498 1.327 . S
C500 C519 1.429 1_565 S
C500 H524 0.950 . S
C501 C518 1.574 . S
C501 C520 1.368 . S
C501 H525 0.949 . S
H502 C506 0.949 . S
C503 C504 1.349 . S
C503 C505 1.327 . S
C503 H526 0.950 . S
C504 C503 1.349 . S
C504 C516 1.349 . S
C505 C503 1.327 . S
C505 C521 1.429 . S
C505 H527 0.950 . S
C506 H502 0.949 . S
C506 C514 1.574 . S
C506 C522 1.368 1_565 S
H507 C515 0.950 . S
H508 C513 0.950 . S
H509 C514 0.949 . S
H510 C516 0.950 1_565 S
H511 C517 0.973 . S
H512 C518 0.949 . S
C513 H508 0.950 . S
C513 C515 1.327 . S
C513 C519 1.429 . S
C514 C506 1.574 . S
C514 H509 0.949 . S
C514 C520 1.368 1_565 S
C515 C499 1.349 1_545 S
C515 H507 0.950 . S
C515 C513 1.327 . S
C516 C504 1.349 . S
C516 H510 0.950 1_545 S
C516 C517 1.337 1_545 S
C517 H511 0.973 . S
C517 C516 1.337 1_565 S
C517 C521 1.396 1_565 S
C518 C501 1.574 . S
C518 H512 0.949 . S
C518 C522 1.368 . S
C519 C500 1.429 1_545 S
C519 C513 1.429 . S
C519 C520 1.523 . S
C520 C501 1.368 . S
C520 C514 1.368 1_545 S
C520 C519 1.523 . S
C521 C505 1.429 . S
C521 C517 1.396 1_545 S
C521 C522 1.523 . S
C522 C506 1.368 1_545 S
C522 C518 1.368 . S
C522 C521 1.523 . S
H523 C498 0.950 . S
H524 C500 0.950 . S
H525 C501 0.949 . S
H526 C503 0.950 . S
H527 C505 0.950 . S
C528 C529 1.349 1_556 S
C528 C530 1.327 . S
C528 H553 0.950 . S
C529 C528 1.349 1_554 S
C529 C545 1.349 . S
C530 C528 1.327 . S
C530 C549 1.429 . S
C530 H554 0.950 . S
C531 C548 1.574 . S
C531 C550 1.368 . S
C531 H555 0.949 . S
H532 C536 0.949 . S
C533 C534 1.349 . S
C533 C535 1.327 . S
C533 H556 0.950 . S
C534 C533 1.349 . S
C534 C546 1.349 . S
C535 C533 1.327 . S
C535 C551 1.429 . S
C535 H557 0.950 . S
C536 H532 0.949 . S
C536 C544 1.574 . S
C536 C552 1.368 . S
H537 C545 0.950 . S
H538 C543 0.952 1_554 S
H539 C544 0.949 . S
H540 C546 0.950 . S
H541 C547 0.950 . S
H542 C548 0.949 . S
C543 H538 0.952 1_556 S
C543 C545 1.331 1_556 S
C543 C549 1.422 . S
C544 C536 1.574 . S
C544 H539 0.949 . S
C544 C550 1.368 . S
C545 C529 1.349 . S
C545 H537 0.950 . S
C545 C543 1.331 1_554 S
C546 C534 1.349 . S
C546 H540 0.950 . S
C546 C547 1.327 . S
C547 H541 0.950 . S
C547 C546 1.327 . S
C547 C551 1.429 . S
C548 C531 1.574 . S
C548 H542 0.949 . S
C548 C552 1.368 . S
C549 C530 1.429 . S
C549 C543 1.422 . S
C549 C550 1.523 . S
C550 C531 1.368 . S
C550 C544 1.368 . S
C550 C549 1.523 . S
C551 C535 1.429 . S
C551 C547 1.429 . S
C551 C552 1.523 . S
C552 C536 1.368 . S
C552 C548 1.368 . S
C552 C551 1.523 . S
H553 C528 0.950 . S
H554 C530 0.950 . S
H555 C531 0.949 . S
H556 C533 0.950 . S
H557 C535 0.950 . S
C558 C559 1.349 . S
C558 C560 1.327 . S
C558 H583 0.950 . S
C559 C558 1.349 . S
C559 C575 1.349 . S
C560 C558 1.327 . S
C560 C579 1.429 . S
C560 H584 0.950 . S
C561 C578 1.574 . S
C561 C580 1.368 . S
C561 H585 0.949 . S
H562 C566 0.949 . S
C563 C564 1.349 . S
C563 C565 1.327 . S
C563 H586 0.950 . S
C564 C563 1.349 . S
C564 C576 1.349 . S
C565 C563 1.327 . S
C565 C581 1.429 . S
C565 H587 0.950 . S
C566 H562 0.949 . S
C566 C574 1.574 . S
C566 C582 1.368 . S
H567 C575 0.950 . S
H568 C573 0.950 . S
H569 C574 0.949 . S
H570 C576 0.950 . S
H571 C577 0.950 . S
H572 C578 0.949 . S
C573 H568 0.950 . S
C573 C575 1.327 . S
C573 C579 1.429 . S
C574 C566 1.574 . S
C574 H569 0.949 . S
C574 C580 1.368 . S
C575 C559 1.349 . S
C575 H567 0.950 . S
C575 C573 1.327 . S
C576 C564 1.349 . S
C576 H570 0.950 . S
C576 C577 1.327 . S
C577 H571 0.950 . S
C577 C576 1.327 . S
C577 C581 1.429 . S
C578 C561 1.574 . S
C578 H572 0.949 . S
C578 C582 1.368 . S
C579 C560 1.429 . S
C579 C573 1.429 . S
C579 C580 1.523 . S
C580 C561 1.368 . S
C580 C574 1.368 . S
C580 C579 1.523 . S
C581 C565 1.429 . S
C581 C577 1.429 . S
C581 C582 1.523 . S
C582 C566 1.368 . S
C582 C578 1.368 . S
C582 C581 1.523 . S
H583 C558 0.950 . S
H584 C560 0.950 . S
H585 C561 0.949 . S
H586 C563 0.950 . S
H587 C565 0.950 . S
C234 C95 1.176 . S
C229 C11 1.174 . S
C259 C26 1.393 . S
C264 C139 1.392 . S
C289 C40 1.270 . S
C294 C201 1.267 . S
C319 C5 1.065 . S
C324 C77 1.187 . S
C354 C157 1.370 . S
C349 C18 1.367 . S
C379 C32 1.234 . S
C384 C219 1.239 . S
C414 C133 1.343 . S
C409 C39 1.404 . S
C439 C4 1.593 . S
C444 C195 1.506 . S
C474 C71 1.477 . S
C469 C19 1.422 . S
C504 C151 1.380 . S
C499 C33 1.310 . S
C534 C213 1.533 . S
C529 C12 1.614 . S
C559 C25 1.537 . S
C564 C89 1.474 . S
