# Generated by pormake.
# Topology apo, (3,6)-cn, num edge types: 1
# Building blocks:
#     Node 0, Type 0, BuildingBlock: BETDIP_clean_linker_0, # of connection points: 3
#     Node 1, Type 0, BuildingBlock: BETDIP_clean_linker_0, # of connection points: 3
#     Node 2, Type 0, BuildingBlock: BETDIP_clean_linker_0, # of connection points: 3
#     Node 3, Type 0, BuildingBlock: BETDIP_clean_linker_0, # of connection points: 3
#     Node 4, Type 0, BuildingBlock: BETDIP_clean_linker_0, # of connection points: 3
#     Node 5, Type 0, BuildingBlock: BETDIP_clean_linker_0, # of connection points: 3
#     Node 6, Type 0, BuildingBlock: BETDIP_clean_linker_0, # of connection points: 3
#     Node 7, Type 0, BuildingBlock: BETDIP_clean_linker_0, # of connection points: 3
#     Node 8, Type 1, BuildingBlock: KUMJIN_clean_sbu_1, # of connection points: 6
#     Node 9, Type 1, BuildingBlock: KUMJIN_clean_sbu_1, # of connection points: 6
#     Node 10, Type 1, BuildingBlock: KUMJIN_clean_sbu_1, # of connection points: 6
#     Node 11, Type 1, BuildingBlock: KUMJIN_clean_sbu_1, # of connection points: 6
#     Edge 12, Type (0, 1), BuildingBlock: KIFKEQ_clean_linker_1, # of connection points: 2
#     Edge 13, Type (0, 1), BuildingBlock: KIFKEQ_clean_linker_1, # of connection points: 2
#     Edge 14, Type (0, 1), BuildingBlock: KIFKEQ_clean_linker_1, # of connection points: 2
#     Edge 15, Type (0, 1), BuildingBlock: KIFKEQ_clean_linker_1, # of connection points: 2
#     Edge 16, Type (0, 1), BuildingBlock: KIFKEQ_clean_linker_1, # of connection points: 2
#     Edge 17, Type (0, 1), BuildingBlock: KIFKEQ_clean_linker_1, # of connection points: 2
#     Edge 18, Type (0, 1), BuildingBlock: KIFKEQ_clean_linker_1, # of connection points: 2
#     Edge 19, Type (0, 1), BuildingBlock: KIFKEQ_clean_linker_1, # of connection points: 2
#     Edge 20, Type (0, 1), BuildingBlock: KIFKEQ_clean_linker_1, # of connection points: 2
#     Edge 21, Type (0, 1), BuildingBlock: KIFKEQ_clean_linker_1, # of connection points: 2
#     Edge 22, Type (0, 1), BuildingBlock: KIFKEQ_clean_linker_1, # of connection points: 2
#     Edge 23, Type (0, 1), BuildingBlock: KIFKEQ_clean_linker_1, # of connection points: 2
#     Edge 24, Type (0, 1), BuildingBlock: KIFKEQ_clean_linker_1, # of connection points: 2
#     Edge 25, Type (0, 1), BuildingBlock: KIFKEQ_clean_linker_1, # of connection points: 2
#     Edge 26, Type (0, 1), BuildingBlock: KIFKEQ_clean_linker_1, # of connection points: 2
#     Edge 27, Type (0, 1), BuildingBlock: KIFKEQ_clean_linker_1, # of connection points: 2
#     Edge 28, Type (0, 1), BuildingBlock: KIFKEQ_clean_linker_1, # of connection points: 2
#     Edge 29, Type (0, 1), BuildingBlock: KIFKEQ_clean_linker_1, # of connection points: 2
#     Edge 30, Type (0, 1), BuildingBlock: KIFKEQ_clean_linker_1, # of connection points: 2
#     Edge 31, Type (0, 1), BuildingBlock: KIFKEQ_clean_linker_1, # of connection points: 2
#     Edge 32, Type (0, 1), BuildingBlock: KIFKEQ_clean_linker_1, # of connection points: 2
#     Edge 33, Type (0, 1), BuildingBlock: KIFKEQ_clean_linker_1, # of connection points: 2
#     Edge 34, Type (0, 1), BuildingBlock: KIFKEQ_clean_linker_1, # of connection points: 2
#     Edge 35, Type (0, 1), BuildingBlock: KIFKEQ_clean_linker_1, # of connection points: 2
# Relax obj value: 0.037
# Max RMSD: 0.197
# Mean RMSD: 0.156
data_MOF--net-apo--node1-KUMJIN_clean_sbu_1--node2-BETDIP_clean_linker_0--edge1-KIFKEQ_clean_linker_1
_symmetry_space_group_name_H-M    P1
_symmetry_Int_Tables_number       1
_symmetry_cell_setting            triclinic
loop_
_symmetry_equiv_pos_as_xyz
'x, y, z'
_cell_length_a     27.887497
_cell_length_b     42.685601
_cell_length_c     52.311801
_cell_angle_alpha  90.062274
_cell_angle_beta   89.833674
_cell_angle_gamma 90.273613
loop_
_atom_site_label
_atom_site_type_symbol
_atom_site_fract_x
_atom_site_fract_y
_atom_site_fract_z
_atom_type_partial_charge
H0 H 0.29477 0.34265 0.44444 0.0
H1 H 0.30048 0.38391 0.36953 0.0
H2 H 0.37738 0.42666 0.43179 0.0
H3 H 0.21478 0.36419 0.3748 0.0
C4 C 0.2277 0.3406 0.37833 0.0
C5 C 0.30761 0.36095 0.43176 0.0
C6 C 0.33741 0.3849 0.44125 0.0
C7 C 0.2939 0.36062 0.40599 0.0
C8 C 0.31072 0.38427 0.38949 0.0
C9 C 0.34099 0.40821 0.39863 0.0
C10 C 0.3541 0.40829 0.42454 0.0
N11 N 0.26424 0.3359 0.39681 0.0
H12 H 0.23236 0.16172 0.94891 0.0
H13 H 0.21585 0.12396 0.87323 0.0
H14 H 0.14692 0.07873 0.93687 0.0
H15 H 0.29114 0.14493 0.8692 0.0
C16 C 0.28633 0.16767 0.87817 0.0
C17 C 0.21705 0.14428 0.93623 0.0
C18 C 0.18875 0.11978 0.94623 0.0
C19 C 0.22782 0.14561 0.91004 0.0
C20 C 0.20841 0.12282 0.89351 0.0
C21 C 0.17941 0.09843 0.90302 0.0
C22 C 0.16988 0.09715 0.92941 0.0
N23 N 0.25803 0.17013 0.90077 0.0
H24 H 0.78337 0.17806 0.58099 0.0
H25 H 0.7962 0.13485 0.65479 0.0
H26 H 0.85306 0.08867 0.58837 0.0
H27 H 0.79548 0.18657 0.66744 0.0
C28 C 0.76637 0.19534 0.65572 0.0
C29 C 0.79591 0.15888 0.59275 0.0
C30 C 0.81947 0.1333 0.58141 0.0
C31 C 0.78804 0.15994 0.61918 0.0
C32 C 0.80348 0.13487 0.63446 0.0
C33 C 0.82671 0.10899 0.62346 0.0
C34 C 0.83437 0.1083 0.5969 0.0
N35 N 0.76281 0.18583 0.62973 0.0
H36 H 0.73855 0.33795 0.08154 0.0
H37 H 0.74017 0.38561 0.15389 0.0
H38 H 0.64978 0.41915 0.0937 0.0
H39 H 0.81648 0.36561 0.15464 0.0
C40 C 0.81049 0.34205 0.1474 0.0
C41 C 0.72611 0.35696 0.09356 0.0
C42 C 0.6923 0.37845 0.08421 0.0
C43 C 0.74433 0.35966 0.11836 0.0
C44 C 0.72766 0.38377 0.13437 0.0
C45 C 0.69305 0.40495 0.12563 0.0
C46 C 0.67552 0.40221 0.10058 0.0
N47 N 0.77791 0.33704 0.12695 0.0
H48 H 0.74194 0.65674 0.57586 0.0
H49 H 0.7178 0.62351 0.65235 0.0
H50 H 0.65554 0.57427 0.58902 0.0
H51 H 0.72151 0.67634 0.66052 0.0
C52 C 0.75247 0.68303 0.64907 0.0
C53 C 0.7254 0.63998 0.58873 0.0
C54 C 0.69826 0.6148 0.57896 0.0
C55 C 0.73139 0.64386 0.61516 0.0
C56 C 0.7114 0.62164 0.632 0.0
C57 C 0.68459 0.5962 0.62266 0.0
C58 C 0.67776 0.59321 0.59618 0.0
N59 N 0.75861 0.66983 0.6243 0.0
H60 H 0.77252 0.85233 0.07666 0.0
H61 H 0.79395 0.88271 0.15407 0.0
H62 H 0.85833 0.93431 0.09239 0.0
H63 H 0.80059 0.82394 0.15624 0.0
C64 C 0.76556 0.82091 0.14748 0.0
C65 C 0.78858 0.86869 0.09 0.0
C66 C 0.8161 0.89417 0.081 0.0
C67 C 0.78196 0.8639 0.11631 0.0
C68 C 0.80105 0.8856 0.13384 0.0
C69 C 0.82734 0.91171 0.12524 0.0
C70 C 0.83569 0.91522 0.0989 0.0
N71 N 0.75458 0.8377 0.12479 0.0
H72 H 0.23505 0.83562 0.44272 0.0
H73 H 0.2108 0.87965 0.37028 0.0
H74 H 0.15927 0.92325 0.43903 0.0
H75 H 0.27854 0.85559 0.3595 0.0
C76 C 0.27727 0.83323 0.36937 0.0
C77 C 0.22066 0.85496 0.43182 0.0
C78 C 0.19562 0.87921 0.44426 0.0
C79 C 0.22782 0.85546 0.40532 0.0
C80 C 0.20794 0.87993 0.3909 0.0
C81 C 0.18301 0.90449 0.40285 0.0
C82 C 0.17709 0.90393 0.42957 0.0
N83 N 0.25472 0.83091 0.39374 0.0
H84 H 0.28011 0.67868 0.94225 0.0
H85 H 0.2889 0.63435 0.86866 0.0
H86 H 0.34772 0.58866 0.93472 0.0
H87 H 0.29037 0.68661 0.8561 0.0
C88 C 0.26108 0.69526 0.86785 0.0
C89 C 0.29153 0.65917 0.93046 0.0
C90 C 0.31512 0.63362 0.94162 0.0
C91 C 0.28254 0.65985 0.90419 0.0
C92 C 0.29702 0.6345 0.88888 0.0
C93 C 0.32049 0.60865 0.89969 0.0
C94 C 0.32899 0.60823 0.9262 0.0
N95 N 0.25738 0.68575 0.8938 0.0
Eu96 Eu 0.06961 0.11925 0.24347 0.0
C97 C 0.85842 0.08581 0.26538 0.0
N98 N 0.87888 0.11478 0.26419 0.0
C99 C 0.81507 0.13303 0.2376 0.0
C100 C 0.8157 0.07919 0.25201 0.0
C101 C 0.85765 0.13846 0.25096 0.0
C102 C 0.7941 0.10324 0.23803 0.0
C103 C 0.8612 0.03206 0.28037 0.0
C104 C 0.88133 0.06245 0.27927 0.0
C105 C 0.81905 0.02529 0.26675 0.0
C106 C 0.79634 0.04879 0.25266 0.0
Eu107 Eu 0.94991 0.12203 0.2878 0.0
N108 N 0.92249 0.06952 0.29211 0.0
C109 C 0.88338 0.0095 0.2956 0.0
C110 C 0.9414 0.04838 0.3088 0.0
C111 C 0.92311 0.01789 0.31026 0.0
H112 H 0.87346 0.16159 0.25091 0.0
H113 H 0.93903 1.00108 0.32315 0.0
H114 H 0.14876 0.07937 0.27827 0.0
H115 H 0.07946 0.24028 0.20816 0.0
H116 H 0.96938 0.05502 0.3218 0.0
H117 H 0.86902 0.98592 0.29695 0.0
H118 H 0.05026 0.18599 0.20904 0.0
H119 H 0.79844 0.15181 0.22701 0.0
H120 H 0.80337 1.00203 0.26727 0.0
H121 H 0.76375 0.04321 0.24236 0.0
H122 H 0.2234 0.08943 0.30248 0.0
H123 H 0.76127 0.09906 0.22752 0.0
H124 H 0.14859 0.25593 0.23485 0.0
N125 N 0.14224 0.12642 0.26572 0.0
C126 C 0.16173 0.15567 0.26521 0.0
C127 C 0.20631 0.10827 0.29217 0.0
C128 C 0.20397 0.16253 0.27891 0.0
C129 C 0.16407 0.10265 0.27855 0.0
C130 C 0.2262 0.13838 0.29249 0.0
N131 N 0.09738 0.17168 0.23872 0.0
C132 C 0.07817 0.19278 0.22209 0.0
C133 C 0.15755 0.20964 0.25098 0.0
C134 C 0.1383 0.17901 0.25164 0.0
C135 C 0.13494 0.23216 0.23588 0.0
C136 C 0.0957 0.22348 0.22094 0.0
H137 H 0.25872 0.14272 0.30324 0.0
H138 H 0.25449 0.19901 0.28947 0.0
H139 H 0.21408 0.24019 0.26489 0.0
O140 O 0.08089 0.11888 0.20153 0.0
O141 O 0.07469 0.13846 0.28397 0.0
O142 O 1.00274 0.16253 0.29188 0.0
O143 O 0.1262 0.09098 0.22664 0.0
O144 O 1.00368 0.14507 0.22822 0.0
O145 O 0.96686 0.16492 0.26437 0.0
O146 O 0.93151 0.12081 0.32911 0.0
O147 O 0.94628 0.10229 0.24731 0.0
O148 O 0.01847 0.07803 0.24178 0.0
O149 O 0.89276 0.1511 0.30273 0.0
O150 O 0.01544 0.09727 0.30408 0.0
O151 O 0.05522 0.07703 0.26876 0.0
C152 C 0.04971 0.16154 0.29358 0.0
C153 C 0.144 0.08702 0.18132 0.0
C154 C 0.16117 0.08423 0.13551 0.0
C155 C 0.19441 0.06036 0.14019 0.0
C156 C 0.17789 0.06326 0.18546 0.0
C157 C 0.20287 0.0501 0.16503 0.0
C158 C 0.13604 0.09773 0.15616 0.0
C159 C 0.97583 0.16576 0.23972 0.0
C160 C 0.11639 0.09928 0.20337 0.0
C161 C 0.22231 0.19322 0.27888 0.0
C162 C 0.19916 0.2167 0.26496 0.0
C163 C 0.97211 0.07931 0.23806 0.0
C164 C 0.86554 0.15274 0.34663 0.0
C165 C 0.83873 0.15334 0.39113 0.0
C166 C 0.80066 0.173 0.38425 0.0
C167 C 0.82728 0.17264 0.34032 0.0
C168 C 0.87151 0.14341 0.37227 0.0
C169 C 0.79522 0.18271 0.35903 0.0
C170 C 0.04513 0.077 0.29342 0.0
C171 C 0.89713 0.14103 0.326 0.0
H172 H 0.21402 0.04971 0.12454 0.0
H173 H 0.18479 0.0545 0.20452 0.0
H174 H 0.22867 0.03172 0.16844 0.0
H175 H 0.11 0.11596 0.15256 0.0
H176 H 0.77528 0.18107 0.39851 0.0
H177 H 0.82167 0.18021 0.3208 0.0
H178 H 0.90069 0.12801 0.37745 0.0
H179 H 0.76584 0.19794 0.35394 0.0
Eu180 Eu 0.44139 0.38909 0.74077 0.0
C181 C 0.65016 0.42411 0.76967 0.0
N182 N 0.62987 0.39521 0.772 0.0
C183 C 0.69961 0.3715 0.75362 0.0
C184 C 0.69598 0.4278 0.75856 0.0
C185 C 0.65398 0.36901 0.76459 0.0
C186 C 0.72062 0.40103 0.75047 0.0
C187 C 0.64415 0.48047 0.77501 0.0
C188 C 0.6243 0.45018 0.77768 0.0
C189 C 0.68965 0.48422 0.76381 0.0
C190 C 0.71548 0.45797 0.75563 0.0
Eu191 Eu 0.55218 0.39335 0.78975 0.0
N192 N 0.57962 0.44597 0.78779 0.0
C193 C 0.61778 0.50613 0.78382 0.0
C194 C 0.55538 0.4707 0.79797 0.0
C195 C 0.57355 0.50115 0.79571 0.0
H196 H 0.63829 0.34615 0.7675 0.0
H197 H 0.55371 0.52073 0.80346 0.0
H198 H 0.35793 0.44195 0.75677 0.0
H199 H 0.42884 0.26108 0.73563 0.0
H200 H 0.5228 0.46714 0.80853 0.0
H201 H 0.63177 0.52976 0.78211 0.0
H202 H 0.46704 0.3125 0.72969 0.0
H203 H 0.71857 0.35066 0.74766 0.0
H204 H 0.70528 0.50733 0.76148 0.0
H205 H 0.75054 0.46127 0.74703 0.0
H206 H 0.27444 0.44269 0.77267 0.0
H207 H 0.75589 0.4029 0.74185 0.0
H208 H 0.34583 0.25756 0.75214 0.0
N209 N 0.36125 0.39232 0.75485 0.0
C210 C 0.33743 0.36467 0.75767 0.0
C211 C 0.29181 0.42059 0.76865 0.0
C212 C 0.28965 0.364 0.76657 0.0
C213 C 0.33921 0.42011 0.75991 0.0
C214 C 0.26695 0.39242 0.77209 0.0
N215 N 0.40789 0.33817 0.74435 0.0
C216 C 0.43155 0.31149 0.73765 0.0
C217 C 0.33766 0.30783 0.75544 0.0
C218 C 0.36126 0.33686 0.75217 0.0
C219 C 0.36265 0.28032 0.74979 0.0
C220 C 0.40961 0.2822 0.74061 0.0
H221 H 0.23026 0.39287 0.77895 0.0
H222 H 0.22953 0.33413 0.77677 0.0
H223 H 0.27154 0.28501 0.76707 0.0
O224 O 0.44848 0.37864 0.69997 0.0
O225 O 0.43071 0.36819 0.78046 0.0
O226 O 0.50493 0.34998 0.79212 0.0
O227 O 0.39114 0.40841 0.71311 0.0
O228 O 0.51103 0.36405 0.72986 0.0
O229 O 0.54594 0.34814 0.76771 0.0
O230 O 0.55355 0.40321 0.83078 0.0
O231 O 0.56063 0.41211 0.74911 0.0
O232 O 0.48718 0.43289 0.7402 0.0
O233 O 0.60567 0.37179 0.81442 0.0
O234 O 0.48138 0.41549 0.80156 0.0
O235 O 0.44617 0.43355 0.76448 0.0
C236 C 0.4579 0.34887 0.79338 0.0
C237 C 0.42234 0.41826 0.67193 0.0
C238 C 0.42089 0.42899 0.62595 0.0
C239 C 0.43778 0.45954 0.63107 0.0
C240 C 0.43946 0.44868 0.67645 0.0
C241 C 0.44725 0.46915 0.65609 0.0
C242 C 0.41351 0.40841 0.64672 0.0
C243 C 0.54078 0.3461 0.74279 0.0
C244 C 0.41312 0.39672 0.69334 0.0
C245 C 0.26618 0.3351 0.76988 0.0
C246 C 0.29012 0.30711 0.76435 0.0
C247 C 0.5339 0.43295 0.73759 0.0
C248 C 0.57885 0.36106 0.85627 0.0
C249 C 0.58222 0.34799 0.90171 0.0
C250 C 0.56056 0.31889 0.89621 0.0
C251 C 0.55746 0.3319 0.85126 0.0
C252 C 0.59107 0.36907 0.88148 0.0
C253 C 0.54822 0.31101 0.87116 0.0
C254 C 0.45174 0.43431 0.78949 0.0
C255 C 0.58783 0.38339 0.83538 0.0
H256 H 0.44293 0.47634 0.61581 0.0
H257 H 0.44629 0.45667 0.69574 0.0
H258 H 0.46019 0.49268 0.65974 0.0
H259 H 0.40115 0.38465 0.6434 0.0
H260 H 0.55394 0.30191 0.91119 0.0
H261 H 0.54817 0.32525 0.83196 0.0
H262 H 0.60706 0.39179 0.88529 0.0
H263 H 0.53179 0.28852 0.86713 0.0
Eu264 Eu 0.05544 0.89383 0.73624 0.0
C265 C 0.83335 0.87321 0.76766 0.0
N266 N 0.86061 0.89956 0.77012 0.0
C267 C 0.79483 0.93122 0.75641 0.0
C268 C 0.78564 0.87493 0.75894 0.0
C269 C 0.84204 0.92836 0.765 0.0
C270 C 0.76656 0.90439 0.75326 0.0
C271 C 0.82662 0.8165 0.7702 0.0
C272 C 0.85355 0.84428 0.77333 0.0
C273 C 0.77913 0.81818 0.76149 0.0
C274 C 0.75868 0.84729 0.75592 0.0
Eu275 Eu 0.94007 0.89226 0.7841 0.0
N276 N 0.90041 0.84324 0.78062 0.0
C277 C 0.84845 0.78781 0.77558 0.0
C278 C 0.92118 0.81543 0.78693 0.0
C279 C 0.89578 0.78732 0.78419 0.0
H280 H 0.86339 0.94918 0.76801 0.0
H281 H 0.91268 0.76527 0.78881 0.0
H282 H 0.13867 0.86009 0.77288 0.0
H283 H 0.0478 0.01354 0.69845 0.0
H284 H 0.95721 0.8147 0.79414 0.0
H285 H 0.82901 0.76595 0.77331 0.0
H286 H 0.02637 0.95771 0.70055 0.0
H287 H 0.78024 0.95411 0.75231 0.0
H288 H 0.75797 0.79706 0.75886 0.0
H289 H 0.72203 0.84817 0.74914 0.0
H290 H 0.21183 0.8755 0.79659 0.0
H291 H 0.73004 0.90669 0.74652 0.0
H292 H 0.11393 0.03421 0.72505 0.0
N293 N 0.12472 0.90621 0.75984 0.0
C294 C 0.14006 0.93648 0.75841 0.0
C295 C 0.19182 0.89288 0.78607 0.0
C296 C 0.18138 0.94631 0.77173 0.0
C297 C 0.15039 0.88423 0.77279 0.0
C298 C 0.20719 0.92409 0.7857 0.0
N299 N 0.0744 0.94758 0.7309 0.0
C300 C 0.05274 0.96675 0.71361 0.0
C301 C 0.12871 0.98936 0.74257 0.0
C302 C 0.11365 0.9578 0.74405 0.0
C303 C 0.10348 0.00982 0.7267 0.0
C304 C 0.06593 0.9983 0.71178 0.0
H305 H 0.23913 0.93075 0.79617 0.0
H306 H 0.22681 0.98596 0.78116 0.0
H307 H 0.18089 0.02358 0.7556 0.0
O308 O 0.08206 0.89848 0.6964 0.0
O309 O 0.05837 0.91058 0.77786 0.0
O310 O 0.98705 0.93532 0.78298 0.0
O311 O 0.11187 0.86345 0.72227 0.0
O312 O 0.98561 0.91491 0.72174 0.0
O313 O 0.9496 0.93456 0.75827 0.0
O314 O 0.9499 0.88401 0.825 0.0
O315 O 0.93111 0.86468 0.74756 0.0
O316 O 1.00117 0.85714 0.72397 0.0
O317 O 0.88993 0.91152 0.81198 0.0
O318 O 0.00636 0.86454 0.79558 0.0
O319 O 0.04121 0.84898 0.75761 0.0
C320 C 0.03315 0.93384 0.78718 0.0
C321 C 0.14725 0.8651 0.68003 0.0
C322 C 0.17751 0.86386 0.63612 0.0
C323 C 0.21544 0.84473 0.64419 0.0
C324 C 0.18547 0.84582 0.68749 0.0
C325 C 0.2192 0.83571 0.66967 0.0
C326 C 0.1431 0.87389 0.65413 0.0
C327 C 0.95504 0.93385 0.73322 0.0
C328 C 0.11302 0.87607 0.69968 0.0
C329 C 0.19543 0.97791 0.77085 0.0
C330 C 0.16914 0.99937 0.75637 0.0
C331 C 0.95547 0.85189 0.72878 0.0
C332 C 0.92124 0.92353 0.85256 0.0
C333 C 0.91371 0.9367 0.89791 0.0
C334 C 0.93283 0.96662 0.89249 0.0
C335 C 0.94041 0.95333 0.84767 0.0
C336 C 0.90841 0.91519 0.87762 0.0
C337 C 0.94635 0.9747 0.8676 0.0
C338 C 0.03538 0.84632 0.78238 0.0
C339 C 0.91334 0.90112 0.83167 0.0
H340 H 0.24203 0.83646 0.63066 0.0
H341 H 0.18964 0.8387 0.70724 0.0
H342 H 0.2485 0.8209 0.67564 0.0
H343 H 0.11384 0.88874 0.64809 0.0
H344 H 0.93659 0.98412 0.90735 0.0
H345 H 0.9502 0.96012 0.82842 0.0
H346 H 0.89444 0.89186 0.8812 0.0
H347 H 0.96092 0.99776 0.8637 0.0
Eu348 Eu 0.46004 0.61484 0.22868 0.0
C349 C 0.65985 0.65405 0.25816 0.0
N350 N 0.63903 0.62548 0.26177 0.0
C351 C 0.70687 0.60061 0.24216 0.0
C352 C 0.70411 0.657 0.24521 0.0
C353 C 0.66333 0.59885 0.25541 0.0
C354 C 0.72692 0.62983 0.2366 0.0
C355 C 0.65968 0.71015 0.26613 0.0
C356 C 0.63805 0.68037 0.26851 0.0
C357 C 0.70274 0.71328 0.25238 0.0
C358 C 0.72485 0.68678 0.24192 0.0
Eu359 Eu 0.56346 0.62583 0.28288 0.0
N360 N 0.59573 0.67685 0.2811 0.0
C361 C 0.63745 0.73585 0.27778 0.0
C362 C 0.57502 0.70143 0.29358 0.0
C363 C 0.59523 0.7314 0.29182 0.0
H364 H 0.64988 0.57605 0.2608 0.0
H365 H 0.57823 0.75104 0.30123 0.0
H366 H 0.36121 0.63071 0.26222 0.0
H367 H 0.50016 0.51314 0.16866 0.0
H368 H 0.54232 0.69786 0.30437 0.0
H369 H 0.65291 0.75912 0.27634 0.0
H370 H 0.5093 0.56749 0.184 0.0
H371 H 0.7253 0.5794 0.2366 0.0
H372 H 0.71956 0.73603 0.25002 0.0
H373 H 0.75855 0.68949 0.23178 0.0
H374 H 0.28738 0.60346 0.27683 0.0
H375 H 0.76089 0.63111 0.22654 0.0
H376 H 0.43376 0.48004 0.185 0.0
N377 N 0.38892 0.59065 0.24323 0.0
C378 C 0.38074 0.56087 0.23523 0.0
C379 C 0.31352 0.59114 0.26532 0.0
C380 C 0.33924 0.54443 0.24302 0.0
C381 C 0.35522 0.60647 0.25709 0.0
C382 C 0.30578 0.55985 0.25853 0.0
N383 N 0.45213 0.56407 0.21088 0.0
C384 C 0.48156 0.55283 0.19214 0.0
C385 C 0.40595 0.51621 0.20996 0.0
C386 C 0.4137 0.54701 0.21891 0.0
C387 C 0.43834 0.50365 0.19227 0.0
C388 C 0.4759 0.52223 0.18302 0.0
H389 H 0.27346 0.54801 0.26493 0.0
H390 H 0.30084 0.50025 0.24085 0.0
H391 H 0.35926 0.47553 0.21192 0.0
O392 O 0.42728 0.61518 0.19041 0.0
O393 O 0.44824 0.59254 0.26798 0.0
O394 O 0.52353 0.57969 0.28289 0.0
O395 O 0.42332 0.65662 0.215 0.0
O396 O 0.53618 0.59879 0.22053 0.0
O397 O 0.56511 0.58099 0.259 0.0
O398 O 0.55147 0.62948 0.32414 0.0
O399 O 0.54249 0.66397 0.25452 0.0
O400 O 0.53086 0.63705 0.21757 0.0
O401 O 0.62079 0.61586 0.30996 0.0
O402 O 0.48962 0.64322 0.29438 0.0
O403 O 0.4495 0.65504 0.25661 0.0
C404 C 0.47687 0.57563 0.28234 0.0
C405 C 0.38404 0.66046 0.1737 0.0
C406 C 0.35338 0.66472 0.13017 0.0
C407 C 0.32567 0.69052 0.13773 0.0
C408 C 0.35657 0.68661 0.18075 0.0
C409 C 0.32757 0.70149 0.16283 0.0
C410 C 0.38274 0.64978 0.14822 0.0
C411 C 0.5602 0.57832 0.23406 0.0
C412 C 0.41179 0.64367 0.19331 0.0
C413 C 0.33225 0.51339 0.23486 0.0
C414 C 0.36558 0.49929 0.21842 0.0
C415 C 0.54851 0.66125 0.22977 0.0
C416 C 0.59658 0.59493 0.34949 0.0
C417 C 0.61485 0.57861 0.39309 0.0
C418 C 0.60407 0.54749 0.38624 0.0
C419 C 0.58612 0.56375 0.34301 0.0
C420 C 0.61058 0.60233 0.37456 0.0
C421 C 0.58957 0.5402 0.36139 0.0
C422 C 0.45637 0.6583 0.28145 0.0
C423 C 0.59409 0.61973 0.33011 0.0
H424 H 0.30297 0.70241 0.12408 0.0
H425 H 0.3568 0.69523 0.20024 0.0
H426 H 0.30626 0.72148 0.16846 0.0
H427 H 0.4038 0.62965 0.14252 0.0
H428 H 0.60649 0.52882 0.40018 0.0
H429 H 0.57545 0.55763 0.32374 0.0
H430 H 0.61916 0.6264 0.37947 0.0
H431 H 0.58122 0.5162 0.35632 0.0
H432 H 0.22544 0.93385 0.36202 0.0
H433 H 0.09715 0.93497 0.40857 0.0
H434 H 0.19322 0.97593 0.33583 0.0
H435 H 0.06538 0.97751 0.38256 0.0
H436 H 0.09256 0.0242 0.2781 0.0
H437 H 0.12669 0.98336 0.30493 0.0
H438 H 0.08193 0.03368 0.37249 0.0
H439 H 0.04791 0.07468 0.34571 0.0
C440 C 0.19024 0.94291 0.36659 0.0
C441 C 0.16378 0.93084 0.38735 0.0
C442 C 0.17185 0.96709 0.3516 0.0
C443 C 0.12674 0.97998 0.3571 0.0
C444 C 0.10052 0.96829 0.37803 0.0
C445 C 0.11877 0.94394 0.39295 0.0
C446 C 0.09023 0.0267 0.29867 0.0
C447 C 0.06722 0.05265 0.30974 0.0
C448 C 0.10991 1.00332 0.31404 0.0
C449 C 0.10684 1.00525 0.34082 0.0
C450 C 0.08428 0.03133 0.35191 0.0
C451 C 0.06494 0.05485 0.33655 0.0
H452 H 0.36681 0.61251 0.85376 0.0
H453 H 0.31052 0.54568 0.9081 0.0
H454 H 0.39426 0.56979 0.82659 0.0
H455 H 0.33693 0.50277 0.88066 0.0
H456 H 0.44248 0.43649 0.8413 0.0
H457 H 0.40867 0.47803 0.86725 0.0
H458 H 0.3695 0.52834 0.79881 0.0
H459 H 0.4056 0.48721 0.77273 0.0
C460 C 0.3598 0.58863 0.85973 0.0
C461 C 0.33662 0.58244 0.88309 0.0
C462 C 0.37532 0.5641 0.84409 0.0
C463 C 0.36778 0.53274 0.85134 0.0
C464 C 0.34405 0.5266 0.87462 0.0
C465 C 0.32887 0.55116 0.89037 0.0
C466 C 0.42646 0.45632 0.83171 0.0
C467 C 0.42676 0.45848 0.80488 0.0
C468 C 0.40665 0.48009 0.84665 0.0
C469 C 0.38628 0.50664 0.8352 0.0
C470 C 0.38545 0.50844 0.80831 0.0
C471 C 0.4056 0.48467 0.79332 0.0
H472 H 0.68431 0.53251 0.61738 0.0
H473 H 0.63822 0.6064 0.66816 0.0
H474 H 0.64866 0.49362 0.64587 0.0
H475 H 0.60363 0.56735 0.69707 0.0
H476 H 0.49838 0.49024 0.72463 0.0
H477 H 0.53591 0.52995 0.69753 0.0
H478 H 0.66031 0.47097 0.68856 0.0
H479 H 0.62201 0.43082 0.71488 0.0
C480 C 0.66654 0.54044 0.63464 0.0
C481 C 0.6639 0.57255 0.64045 0.0
C482 C 0.64659 0.51813 0.6511 0.0
C483 C 0.62335 0.52739 0.67375 0.0
C484 C 0.62092 0.55949 0.67966 0.0
C485 C 0.64112 0.58182 0.66323 0.0
C486 C 0.53361 0.48569 0.71672 0.0
C487 C 0.55712 0.45733 0.72172 0.0
C488 C 0.55534 0.50859 0.70144 0.0
C489 C 0.60106 0.5036 0.69084 0.0
C490 C 0.62481 0.47537 0.69616 0.0
C491 C 0.60306 0.45249 0.71142 0.0
H492 H 0.82728 0.97521 0.11913 0.0
H493 H 0.86803 0.90303 0.17255 0.0
H494 H 0.8608 0.01489 0.14724 0.0
H495 H 0.89957 0.94308 0.20147 0.0
H496 H 1.00376 0.01977 0.22999 0.0
H497 H 0.96634 0.97888 0.20416 0.0
H498 H 0.84931 0.04134 0.18681 0.0
H499 H 0.88835 0.08269 0.21136 0.0
C500 C 0.84331 0.9678 0.13695 0.0
C501 C 0.84546 0.93586 0.14342 0.0
C502 C 0.86194 0.99065 0.15328 0.0
C503 C 0.88294 0.98226 0.17667 0.0
C504 C 0.88419 0.95036 0.18345 0.0
C505 C 0.86564 0.92741 0.16701 0.0
C506 C 0.97012 0.02476 0.22055 0.0
C507 C 0.94877 0.05437 0.22284 0.0
C508 C 0.94834 1.00119 0.206 0.0
C509 C 0.9047 0.00672 0.1934 0.0
C510 C 0.88316 0.03631 0.19598 0.0
C511 C 0.90517 0.05992 0.21035 0.0
H512 H 0.81349 0.04621 0.6158 0.0
H513 H 0.87697 0.11275 0.668 0.0
H514 H 0.84016 1.00318 0.64287 0.0
H515 H 0.90521 0.06991 0.69465 0.0
H516 H 0.91606 0.9892 0.74944 0.0
H517 H 0.88123 0.0304 0.72342 0.0
H518 H 0.90952 0.97595 0.65533 0.0
H519 H 0.94153 0.93397 0.68156 0.0
C520 C 0.83355 0.05157 0.63298 0.0
C521 C 0.84315 0.08279 0.63982 0.0
C522 C 0.84898 0.02694 0.64848 0.0
C523 C 0.87492 0.03295 0.67103 0.0
C524 C 0.88453 0.0643 0.67776 0.0
C525 C 0.86859 0.0889 0.66242 0.0
C526 C 0.91387 0.98572 0.72897 0.0
C527 C 0.93139 0.95822 0.71759 0.0
C528 C 0.89455 0.0096 0.71397 0.0
C529 C 0.89281 0.00673 0.68717 0.0
C530 C 0.9096 0.97892 0.67588 0.0
C531 C 0.92836 0.9549 0.69092 0.0
H532 H 0.74563 0.44948 0.15034 0.0
H533 H 0.60056 0.41659 0.13941 0.0
H534 H 0.71603 0.4915 0.17827 0.0
H535 H 0.57114 0.45807 0.16796 0.0
H536 H 0.55839 0.51632 0.2457 0.0
H537 H 0.59173 0.47317 0.22008 0.0
H538 H 0.65038 0.5401 0.16658 0.0
H539 H 0.61565 0.58306 0.19164 0.0
C540 C 0.70751 0.45117 0.1541 0.0
C541 C 0.67526 0.42999 0.14275 0.0
C542 C 0.69067 0.47511 0.16999 0.0
C543 C 0.64148 0.47772 0.17527 0.0
C544 C 0.60928 0.45626 0.16426 0.0
C545 C 0.626 0.43277 0.14789 0.0
C546 C 0.57899 0.52167 0.22865 0.0
C547 C 0.58472 0.55278 0.22053 0.0
C548 C 0.59767 0.49712 0.21398 0.0
C549 C 0.62348 0.50351 0.19146 0.0
C550 C 0.63071 0.53472 0.18393 0.0
C551 C 0.61094 0.55916 0.19819 0.0
H552 H 0.34449 0.47138 0.40714 0.0
H553 H 0.37919 0.40103 0.3508 0.0
H554 H 0.3763 0.51202 0.37899 0.0
H555 H 0.41203 0.44147 0.32282 0.0
H556 H 0.427 0.52347 0.26852 0.0
H557 H 0.39094 0.48413 0.29631 0.0
H558 H 0.44982 0.53207 0.3621 0.0
H559 H 0.48238 0.57274 0.33398 0.0
C560 C 0.35925 0.4646 0.38878 0.0
C561 C 0.35935 0.43301 0.38118 0.0
C562 C 0.37765 0.48788 0.37266 0.0
C563 C 0.39692 0.48011 0.3486 0.0
C564 C 0.39678 0.44845 0.341 0.0
C565 C 0.37804 0.42522 0.35705 0.0
C566 C 0.4306 0.52613 0.28891 0.0
C567 C 0.45596 0.55156 0.29917 0.0
C568 C 0.41102 0.50317 0.3049 0.0
C569 C 0.41722 0.50487 0.33156 0.0
C570 C 0.44346 0.53025 0.34175 0.0
C571 C 0.46258 0.55336 0.32568 0.0
H572 H 0.17218 0.03511 0.91103 0.0
H573 H 0.14135 0.10667 0.85518 0.0
H574 H 0.13752 0.99559 0.88289 0.0
H575 H 0.10882 0.06692 0.82651 0.0
H576 H 1.00385 0.99377 0.79505 0.0
H577 H 0.03991 0.03327 0.82276 0.0
H578 H 0.15113 0.9679 0.84342 0.0
H579 H 0.11338 0.92794 0.81665 0.0
C580 C 0.15803 0.04243 0.89274 0.0
C581 C 0.15937 0.07415 0.88547 0.0
C582 C 0.13873 0.01967 0.87644 0.0
C583 C 0.12034 0.02801 0.85239 0.0
C584 C 0.12211 0.05968 0.84501 0.0
C585 C 0.14131 0.08245 0.86134 0.0
C586 C 0.0359 0.98784 0.80561 0.0
C587 C 0.05598 0.95784 0.8036 0.0
C588 C 0.05689 0.01058 0.8213 0.0
C589 C 0.09859 1.00388 0.8353 0.0
C590 C 0.11875 0.97381 0.83316 0.0
C591 C 0.09751 0.95101 0.81757 0.0
H592 H 0.19346 0.06685 0.97515 0.0
H593 H 0.16562 0.16602 0.98085 0.0
H594 H 0.17988 0.06115 0.02074 0.0
H595 H 0.15121 0.1603 0.02682 0.0
H596 H 0.18891 0.13884 0.1127 0.0
H597 H 0.19162 0.14953 0.06667 0.0
H598 H 0.11874 0.06166 0.0523 0.0
H599 H 0.11801 0.05076 0.09809 0.0
C600 C 0.18372 0.08741 0.98612 0.0
C601 C 0.18027 0.11684 0.97428 0.0
C602 C 0.17572 0.08415 0.01233 0.0
C603 C 0.16374 0.11018 0.02755 0.0
C604 C 0.1606 0.13975 0.01577 0.0
C605 C 0.16887 0.14305 0.98942 0.0
C606 C 0.17251 0.12231 0.09961 0.0
C607 C 0.1532 0.09404 0.10876 0.0
C608 C 0.17405 0.12834 0.07326 0.0
C609 C 0.15616 0.1062 0.05565 0.0
C610 C 0.13399 0.07888 0.06518 0.0
C611 C 0.13295 0.07276 0.0914 0.0
H612 H 0.27731 0.38497 0.48243 0.0
H613 H 0.42695 0.38846 0.4617 0.0
H614 H 0.29826 0.39333 0.52719 0.0
H615 H 0.4486 0.39505 0.5065 0.0
H616 H 0.46884 0.44551 0.58198 0.0
H617 H 0.44852 0.4327 0.53824 0.0
H618 H 0.33128 0.37461 0.56497 0.0
H619 H 0.34911 0.38971 0.60874 0.0
C620 C 0.3148 0.38683 0.48762 0.0
C621 C 0.35051 0.38626 0.46868 0.0
C622 C 0.32696 0.3915 0.5133 0.0
C623 C 0.37526 0.39519 0.52068 0.0
C624 C 0.41099 0.3932 0.50165 0.0
C625 C 0.39872 0.38913 0.47596 0.0
C626 C 0.43827 0.43035 0.57862 0.0
C627 C 0.41042 0.419 0.59911 0.0
C628 C 0.42708 0.42246 0.55338 0.0
C629 C 0.38817 0.40248 0.5478 0.0
C630 C 0.36105 0.39044 0.56834 0.0
C631 C 0.37182 0.39873 0.5936 0.0
H632 H 0.60114 0.38745 0.0659 0.0
H633 H 0.74498 0.36473 0.04146 0.0
H634 H 0.57371 0.38368 0.02178 0.0
H635 H 0.71714 0.35935 0.99768 0.0
H636 H 0.66385 0.37796 0.91795 0.0
H637 H 0.68886 0.38837 0.96173 0.0
H638 H 0.55892 0.34465 0.98975 0.0
H639 H 0.5328 0.33573 0.94599 0.0
C640 C 0.62695 0.38173 0.05114 0.0
C641 C 0.67525 0.37627 0.0573 0.0
C642 C 0.61111 0.37921 0.02585 0.0
C643 C 0.64315 0.37113 1.00612 0.0
C644 C 0.69153 0.36599 0.01228 0.0
C645 C 0.70737 0.36861 0.0375 0.0
C646 C 0.64019 0.37109 0.93342 0.0
C647 C 0.5964 0.35584 0.9284 0.0
C648 C 0.65483 0.37669 0.95857 0.0
C649 C 0.62614 0.36711 0.97934 0.0
C650 C 0.5818 0.35258 0.97428 0.0
C651 C 0.56709 0.34709 0.94915 0.0
H652 H 0.85594 0.18031 0.55171 0.0
H653 H 0.80354 0.08507 0.54799 0.0
H654 H 0.86715 0.18046 0.50535 0.0
H655 H 0.81501 0.08516 0.50157 0.0
H656 H 0.77229 0.1229 0.41989 0.0
H657 H 0.77341 0.11445 0.46606 0.0
H658 H 0.91558 0.15476 0.46972 0.0
H659 H 0.9144 0.16298 0.42325 0.0
C660 C 0.84702 0.15937 0.54096 0.0
C661 C 0.82851 0.13277 0.55342 0.0
C662 C 0.85397 0.15933 0.51448 0.0
C663 C 0.84204 0.1328 0.49985 0.0
C664 C 0.82437 0.10597 0.51237 0.0
C665 C 0.81799 0.10588 0.53891 0.0
C666 C 0.80413 0.12932 0.43054 0.0
C667 C 0.84323 0.14361 0.41815 0.0
C668 C 0.80487 0.12441 0.45692 0.0
C669 C 0.84447 0.13412 0.47151 0.0
C670 C 0.88445 0.14726 0.45894 0.0
C671 C 0.88399 0.15174 0.43241 0.0
H672 H 0.82162 0.94978 0.05488 0.0
H673 H 0.8313 0.84959 0.04362 0.0
H674 H 0.84552 0.95818 1.01063 0.0
H675 H 0.85273 0.85834 0.99875 0.0
H676 H 0.83804 0.89922 0.91331 0.0
H677 H 0.81283 0.88685 0.95693 0.0
H678 H 0.92811 0.94378 0.98652 0.0
H679 H 0.95535 0.95485 0.94318 0.0
C680 C 0.82879 0.92949 0.04306 0.0
C681 C 0.82534 0.89896 0.05313 0.0
C682 C 0.84219 0.93439 0.01764 0.0
C683 C 0.85139 0.90892 1.00144 0.0
C684 C 0.84575 0.87836 1.01093 0.0
C685 C 0.8332 0.8734 0.03659 0.0
C686 C 0.85879 0.90862 0.92903 0.0
C687 C 0.89874 0.92826 0.92451 0.0
C688 C 0.84405 0.90162 0.954 0.0
C689 C 0.86833 0.91458 0.97498 0.0
C690 C 0.90843 0.93384 0.97061 0.0
C691 C 0.92375 0.94035 0.94572 0.0
H692 H 0.69693 0.56025 0.55138 0.0
H693 H 0.68226 0.66042 0.54286 0.0
H694 H 0.6783 0.55311 0.50652 0.0
H695 H 0.66666 0.65342 0.49735 0.0
H696 H 0.58304 0.62533 0.42466 0.0
H697 H 0.60621 0.63532 0.46893 0.0
H698 H 0.70767 0.55918 0.46478 0.0
H699 H 0.68315 0.54869 0.42095 0.0
C700 C 0.68997 0.58083 0.53991 0.0
C701 C 0.69065 0.61091 0.55091 0.0
C702 C 0.67997 0.57676 0.51398 0.0
C703 C 0.67096 0.60267 0.49813 0.0
C704 C 0.67276 0.63286 0.50898 0.0
C705 C 0.68239 0.63692 0.53505 0.0
C706 C 0.61053 0.61093 0.43324 0.0
C707 C 0.63094 0.58604 0.41946 0.0
C708 C 0.62401 0.61671 0.45858 0.0
C709 C 0.65863 0.59792 0.47064 0.0
C710 C 0.68009 0.57368 0.45644 0.0
C711 C 0.66619 0.5677 0.43126 0.0
H712 H 0.3634 0.67846 0.96812 0.0
H713 H 0.29066 0.58975 0.97739 0.0
H714 H 0.37703 0.68108 0.01429 0.0
H715 H 0.30344 0.59266 0.02381 0.0
H716 H 0.27495 0.64542 0.10365 0.0
H717 H 0.26992 0.63335 0.05793 0.0
H718 H 0.42227 0.64916 0.05029 0.0
H719 H 0.4274 0.66055 0.09625 0.0
C720 C 0.35061 0.65946 0.98009 0.0
C721 C 0.32585 0.63397 0.96932 0.0
C722 C 0.35867 0.66084 1.00642 0.0
C723 C 0.34132 0.63705 0.02254 0.0
C724 C 0.31713 0.61129 0.01175 0.0
C725 C 0.30995 0.60959 0.98529 0.0
C726 C 0.30741 0.64573 0.09223 0.0
C727 C 0.35153 0.65391 0.10332 0.0
C728 C 0.3046 0.63872 0.06617 0.0
C729 C 0.3457 0.64041 0.05064 0.0
C730 C 0.39008 0.64777 0.06188 0.0
C731 C 0.39306 0.65413 0.08809 0.0
H732 H 0.11685 0.89573 0.47295 0.0
H733 H 0.26257 0.86298 0.47988 0.0
H734 H 0.10941 0.89672 0.51953 0.0
H735 H 0.25446 0.86259 0.52609 0.0
H736 H 0.24738 0.89113 0.60755 0.0
H737 H 0.2492 0.89802 0.56134 0.0
H738 H 0.1044 0.862 0.55644 0.0
H739 H 0.10239 0.85599 0.60304 0.0
C740 C 0.1473 0.88877 0.48438 0.0
C741 C 0.19033 0.87926 0.47263 0.0
C742 C 0.14285 0.88906 0.51108 0.0
C743 C 0.18141 0.87995 0.52663 0.0
C744 C 0.22427 0.87031 0.5148 0.0
C745 C 0.22871 0.87007 0.48821 0.0
C746 C 0.2157 0.88517 0.59659 0.0
C747 C 0.17491 0.87278 0.60878 0.0
C748 C 0.21682 0.88886 0.5701 0.0
C749 C 0.17735 0.87991 0.55506 0.0
C750 C 0.13542 0.86919 0.56742 0.0
C751 C 0.13418 0.86576 0.59409 0.0
H752 H 0.26288 0.28243 0.36696 0.0
H753 H 0.13546 0.33888 0.36268 0.0
H754 H 0.22129 0.2396 0.34539 0.0
H755 H 0.09214 0.29548 0.34321 0.0
H756 H 0.03386 0.22381 0.28839 0.0
H757 H 0.07871 0.26682 0.30756 0.0
H758 H 0.16707 0.19989 0.34777 0.0
H759 H 0.12426 0.15725 0.32675 0.0
C760 C 0.22558 0.28537 0.36179 0.0
C761 C 0.20223 0.31384 0.36649 0.0
C762 C 0.20145 0.26073 0.34955 0.0
C763 C 0.1529 0.26367 0.3424 0.0
C764 C 0.12964 0.29224 0.34766 0.0
C765 C 0.15426 0.31713 0.35914 0.0
C766 C 0.06277 0.2185 0.30148 0.0
C767 C 0.07534 0.18737 0.3064 0.0
C768 C 0.0885 0.24314 0.31264 0.0
C769 C 0.12656 0.23723 0.32967 0.0
C770 C 0.13874 0.20576 0.33456 0.0
C771 C 0.11383 0.18117 0.32278 0.0
H772 H 0.28305 0.22957 0.89325 0.0
H773 H 0.34771 0.16724 0.83817 0.0
H774 H 0.32585 0.27388 0.874 0.0
H775 H 0.39003 0.21142 0.81875 0.0
H776 H 0.49505 0.29186 0.80615 0.0
H777 H 0.45463 0.24881 0.82821 0.0
H778 H 0.32582 0.30424 0.83377 0.0
H779 H 0.3668 0.34767 0.81253 0.0
C780 C 0.30646 0.22534 0.87707 0.0
C781 C 0.31222 0.19495 0.86722 0.0
C782 C 0.33077 0.25072 0.86596 0.0
C783 C 0.36149 0.24617 0.84488 0.0
C784 C 0.36725 0.21569 0.83519 0.0
C785 C 0.34281 0.19042 0.8462 0.0
C786 C 0.45841 0.29506 0.81251 0.0
C787 C 0.43424 0.32323 0.80776 0.0
C788 C 0.43503 0.27025 0.82486 0.0
C789 C 0.38695 0.27305 0.83273 0.0
C790 C 0.36301 0.30143 0.82826 0.0
C791 C 0.3864 0.32622 0.81591 0.0
H792 H 0.77055 0.22047 0.70301 0.0
H793 H 0.68528 0.22085 0.63428 0.0
H794 H 0.71457 0.25662 0.72316 0.0
H795 H 0.62829 0.25644 0.65465 0.0
H796 H 0.56549 0.346 0.6921 0.0
H797 H 0.61928 0.3097 0.67017 0.0
H798 H 0.63466 0.25687 0.74007 0.0
H799 H 0.58191 0.29341 0.76199 0.0
C800 C 0.73969 0.22828 0.69225 0.0
C801 C 0.73228 0.21787 0.66714 0.0
C802 C 0.70737 0.2488 0.70384 0.0
C803 C 0.66661 0.25926 0.69063 0.0
C804 C 0.65949 0.24908 0.66531 0.0
C805 C 0.69203 0.22858 0.65367 0.0
C806 C 0.58007 0.32644 0.70268 0.0
C807 C 0.5699 0.32274 0.72883 0.0
C808 C 0.61083 0.30561 0.69011 0.0
C809 C 0.63179 0.28054 0.70342 0.0
C810 C 0.62011 0.27631 0.72937 0.0
C811 C 0.58962 0.29716 0.74191 0.0
H812 H 0.80482 0.2791 0.13597 0.0
H813 H 0.87709 0.34597 0.18461 0.0
H814 H 0.84706 0.23632 0.15712 0.0
H815 H 0.92005 0.30339 0.20538 0.0
H816 H 0.96407 0.1698 0.18764 0.0
H817 H 0.92657 0.21244 0.1637 0.0
H818 H 0.89925 0.26151 0.2345 0.0
H819 H 0.9374 0.21968 0.25814 0.0
C820 C 0.83009 0.28468 0.151 0.0
C821 C 0.83755 0.31584 0.1588 0.0
C822 C 0.8545 0.26018 0.16301 0.0
C823 C 0.88671 0.26642 0.18305 0.0
C824 C 0.8949 0.29772 0.19031 0.0
C825 C 0.87052 0.32212 0.17835 0.0
C826 C 0.95032 0.18983 0.19799 0.0
C827 C 0.95387 0.19139 0.22476 0.0
C828 C 0.92856 0.21413 0.18433 0.0
C829 C 0.91015 0.24047 0.19718 0.0
C830 C 0.91376 0.24186 0.22394 0.0
C831 C 0.93533 0.21769 0.23753 0.0
H832 H 0.73958 0.71732 0.6918 0.0
H833 H 0.8379 0.70456 0.62878 0.0
H834 H 0.79084 0.75874 0.70894 0.0
H835 H 0.88943 0.74624 0.64596 0.0
H836 H 0.98947 0.79857 0.70585 0.0
H837 H 0.94176 0.75748 0.68488 0.0
H838 H 0.81397 0.81274 0.69575 0.0
H839 H 0.86138 0.85359 0.7162 0.0
C840 C 0.77216 0.72347 0.6816 0.0
C841 C 0.78457 0.70794 0.6589 0.0
C842 C 0.80139 0.74725 0.69133 0.0
C843 C 0.84395 0.7559 0.67866 0.0
C844 C 0.8569 0.73999 0.65614 0.0
C845 C 0.8273 0.7163 0.64625 0.0
C846 C 0.95135 0.80209 0.70325 0.0
C847 C 0.92897 0.82901 0.71297 0.0
C848 C 0.92406 0.7786 0.69134 0.0
C849 C 0.87404 0.78172 0.68902 0.0
C850 C 0.85226 0.80935 0.69772 0.0
C851 C 0.87942 0.83274 0.70944 0.0
H852 H 0.78854 0.77173 0.17759 0.0
H853 H 0.66811 0.81638 0.14124 0.0
H854 H 0.73446 0.73222 0.19598 0.0
H855 H 0.61384 0.77746 0.16048 0.0
H856 H 0.54626 0.72458 0.23486 0.0
H857 H 0.59784 0.76323 0.21329 0.0
H858 H 0.66992 0.68863 0.17316 0.0
H859 H 0.61724 0.65006 0.19406 0.0
C860 C 0.75051 0.77303 0.17355 0.0
C861 C 0.73248 0.79691 0.1579 0.0
C862 C 0.71971 0.75047 0.18403 0.0
C863 C 0.67017 0.75194 0.1796 0.0
C864 C 0.65198 0.77594 0.16412 0.0
C865 C 0.68298 0.79805 0.15307 0.0
C866 C 0.57271 0.71659 0.22115 0.0
C867 C 0.57775 0.68452 0.21591 0.0
C868 C 0.60203 0.7386 0.20884 0.0
C869 C 0.63756 0.72877 0.19158 0.0
C870 C 0.64261 0.69668 0.18635 0.0
C871 C 0.61242 0.67474 0.19814 0.0
H872 H 0.32015 0.8321 0.32312 0.0
H873 H 0.29021 0.7737 0.38863 0.0
H874 H 0.36161 0.78868 0.30248 0.0
H875 H 0.33147 0.72997 0.36784 0.0
H876 H 0.45863 0.67355 0.33249 0.0
H877 H 0.41381 0.71469 0.35429 0.0
H878 H 0.34263 0.73746 0.28356 0.0
H879 H 0.38752 0.69673 0.26166 0.0
C880 C 0.32234 0.80989 0.33305 0.0
C881 C 0.30194 0.80627 0.35742 0.0
C882 C 0.34582 0.78497 0.32118 0.0
C883 C 0.34962 0.75581 0.33346 0.0
C884 C 0.32941 0.75221 0.35797 0.0
C885 C 0.30561 0.77719 0.36982 0.0
C886 C 0.43323 0.68718 0.32158 0.0
C887 C 0.42705 0.68189 0.29523 0.0
C888 C 0.40737 0.71067 0.33415 0.0
C889 C 0.37492 0.72949 0.32063 0.0
C890 C 0.36793 0.7237 0.29444 0.0
C891 C 0.39357 0.70019 0.28191 0.0
H892 H 0.17813 0.71876 0.88895 0.0
H893 H 0.26718 0.72236 0.82138 0.0
H894 H 0.12105 0.75426 0.86887 0.0
H895 H 0.21123 0.75861 0.80158 0.0
H896 H 0.08063 0.79565 0.76195 0.0
H897 H 0.13323 0.75894 0.78344 0.0
H898 H 0.10994 0.80743 0.85496 0.0
H899 H 0.05593 0.84368 0.83349 0.0
C900 C 0.18571 0.72739 0.86989 0.0
C901 C 0.22701 0.7178 0.85664 0.0
C902 C 0.15311 0.74784 0.85842 0.0
C903 C 0.16129 0.75916 0.83351 0.0
C904 C 0.20316 0.74986 0.82055 0.0
C905 C 0.23547 0.7293 0.83194 0.0
C906 C 0.08642 0.79836 0.7823 0.0
C907 C 0.06423 0.82264 0.796 0.0
C908 C 0.11692 0.77744 0.79461 0.0
C909 C 0.12641 0.78042 0.8209 0.0
C910 C 0.10317 0.80425 0.83475 0.0
C911 C 0.07226 0.82507 0.82244 0.0
loop_
_geom_bond_atom_site_label_1
_geom_bond_atom_site_label_2
_geom_bond_distance
_geom_bond_site_symmetry_2
_ccdc_geom_bond_type
H0 C5 0.930 . S
H1 C8 0.930 . S
H2 C10 0.930 . S
H3 C4 1.016 . S
C4 H3 1.016 . S
C4 N11 1.286 . S
C5 H0 0.930 . S
C5 C6 1.397 . S
C5 C7 1.361 . S
C6 C5 1.397 . S
C6 C10 1.390 . S
C7 C5 1.361 . S
C7 C8 1.393 . S
C7 N11 1.413 . S
C8 H1 0.930 . S
C8 C7 1.393 . S
C8 C9 1.399 . S
C9 C8 1.399 . S
C9 C10 1.381 . S
C10 H2 0.930 . S
C10 C6 1.390 . S
C10 C9 1.381 . S
N11 C4 1.286 . S
N11 C7 1.413 . S
H12 C17 0.930 . S
H13 C20 0.930 . S
H14 C22 0.930 . S
H15 C16 1.016 . S
C16 H15 1.016 . S
C16 N23 1.286 . S
C17 H12 0.930 . S
C17 C18 1.397 . S
C17 C19 1.361 . S
C18 C17 1.397 . S
C18 C22 1.390 . S
C19 C17 1.361 . S
C19 C20 1.393 . S
C19 N23 1.413 . S
C20 H13 0.930 . S
C20 C19 1.393 . S
C20 C21 1.399 . S
C21 C20 1.399 . S
C21 C22 1.381 . S
C22 H14 0.930 . S
C22 C18 1.390 . S
C22 C21 1.381 . S
N23 C16 1.286 . S
N23 C19 1.413 . S
H24 C29 0.930 . S
H25 C32 0.930 . S
H26 C34 0.930 . S
H27 C28 1.016 . S
C28 H27 1.016 . S
C28 N35 1.286 . S
C29 H24 0.930 . S
C29 C30 1.397 . S
C29 C31 1.361 . S
C30 C29 1.397 . S
C30 C34 1.390 . S
C31 C29 1.361 . S
C31 C32 1.393 . S
C31 N35 1.413 . S
C32 H25 0.930 . S
C32 C31 1.393 . S
C32 C33 1.399 . S
C33 C32 1.399 . S
C33 C34 1.381 . S
C34 H26 0.930 . S
C34 C30 1.390 . S
C34 C33 1.381 . S
N35 C28 1.286 . S
N35 C31 1.413 . S
H36 C41 0.930 . S
H37 C44 0.930 . S
H38 C46 0.930 . S
H39 C40 1.016 . S
C40 H39 1.016 . S
C40 N47 1.286 . S
C41 H36 0.930 . S
C41 C42 1.397 . S
C41 C43 1.361 . S
C42 C41 1.397 . S
C42 C46 1.390 . S
C43 C41 1.361 . S
C43 C44 1.393 . S
C43 N47 1.413 . S
C44 H37 0.930 . S
C44 C43 1.393 . S
C44 C45 1.399 . S
C45 C44 1.399 . S
C45 C46 1.381 . S
C46 H38 0.930 . S
C46 C42 1.390 . S
C46 C45 1.381 . S
N47 C40 1.286 . S
N47 C43 1.413 . S
H48 C53 0.930 . S
H49 C56 0.930 . S
H50 C58 0.930 . S
H51 C52 1.016 . S
C52 H51 1.016 . S
C52 N59 1.286 . S
C53 H48 0.930 . S
C53 C54 1.397 . S
C53 C55 1.361 . S
C54 C53 1.397 . S
C54 C58 1.390 . S
C55 C53 1.361 . S
C55 C56 1.393 . S
C55 N59 1.413 . S
C56 H49 0.930 . S
C56 C55 1.393 . S
C56 C57 1.399 . S
C57 C56 1.399 . S
C57 C58 1.381 . S
C58 H50 0.930 . S
C58 C54 1.390 . S
C58 C57 1.381 . S
N59 C52 1.286 . S
N59 C55 1.413 . S
H60 C65 0.930 . S
H61 C68 0.930 . S
H62 C70 0.930 . S
H63 C64 1.016 . S
C64 H63 1.016 . S
C64 N71 1.286 . S
C65 H60 0.930 . S
C65 C66 1.397 . S
C65 C67 1.361 . S
C66 C65 1.397 . S
C66 C70 1.390 . S
C67 C65 1.361 . S
C67 C68 1.393 . S
C67 N71 1.413 . S
C68 H61 0.930 . S
C68 C67 1.393 . S
C68 C69 1.399 . S
C69 C68 1.399 . S
C69 C70 1.381 . S
C70 H62 0.930 . S
C70 C66 1.390 . S
C70 C69 1.381 . S
N71 C64 1.286 . S
N71 C67 1.413 . S
H72 C77 0.930 . S
H73 C80 0.930 . S
H74 C82 0.930 . S
H75 C76 1.016 . S
C76 H75 1.016 . S
C76 N83 1.286 . S
C77 H72 0.930 . S
C77 C78 1.397 . S
C77 C79 1.361 . S
C78 C77 1.397 . S
C78 C82 1.390 . S
C79 C77 1.361 . S
C79 C80 1.393 . S
C79 N83 1.413 . S
C80 H73 0.930 . S
C80 C79 1.393 . S
C80 C81 1.399 . S
C81 C80 1.399 . S
C81 C82 1.381 . S
C82 H74 0.930 . S
C82 C78 1.390 . S
C82 C81 1.381 . S
N83 C76 1.286 . S
N83 C79 1.413 . S
H84 C89 0.930 . S
H85 C92 0.930 . S
H86 C94 0.930 . S
H87 C88 1.016 . S
C88 H87 1.016 . S
C88 N95 1.286 . S
C89 H84 0.930 . S
C89 C90 1.397 . S
C89 C91 1.361 . S
C90 C89 1.397 . S
C90 C94 1.390 . S
C91 C89 1.361 . S
C91 C92 1.393 . S
C91 N95 1.413 . S
C92 H85 0.930 . S
C92 C91 1.393 . S
C92 C93 1.399 . S
C93 C92 1.399 . S
C93 C94 1.381 . S
C94 H86 0.930 . S
C94 C90 1.390 . S
C94 C93 1.381 . S
N95 C88 1.286 . S
N95 C91 1.413 . S
Eu96 N125 2.600 . S
Eu96 N131 2.562 . S
Eu96 O140 2.462 . S
Eu96 O141 2.373 . S
Eu96 O143 2.432 . S
Eu96 O144 2.291 . S
Eu96 O148 2.348 . S
Eu96 O151 2.372 . S
Eu96 C160 2.787 . S
C97 N98 1.365 . S
C97 C100 1.405 . S
C97 C104 1.448 . S
N98 C97 1.365 . S
N98 C101 1.319 . S
N98 Eu107 2.600 . S
C99 C101 1.397 . S
C99 C102 1.367 . S
C99 H119 0.931 . S
C100 C97 1.405 . S
C100 C102 1.403 . S
C100 C106 1.439 . S
C101 N98 1.319 . S
C101 C99 1.397 . S
C101 H112 0.930 . S
C102 C99 1.367 . S
C102 C100 1.403 . S
C102 H123 0.929 . S
C103 C104 1.430 . S
C103 C105 1.387 . S
C103 C109 1.404 1_545 S
C104 C97 1.448 . S
C104 C103 1.430 . S
C104 N108 1.351 . S
C105 C103 1.387 . S
C105 C106 1.374 . S
C105 H120 0.931 . S
C106 C100 1.439 . S
C106 C105 1.374 . S
C106 H121 0.931 . S
Eu107 N98 2.600 . S
Eu107 N108 2.562 . S
Eu107 O142 2.335 1_655 S
Eu107 O145 2.372 . S
Eu107 O146 2.462 . S
Eu107 O147 2.373 . S
Eu107 O149 2.432 . S
Eu107 O150 2.291 1_655 S
Eu107 C171 2.787 . S
N108 C104 1.351 . S
N108 Eu107 2.562 . S
N108 C110 1.325 . S
C109 C103 1.404 1_565 S
C109 C111 1.366 . S
C109 H117 0.930 . S
C110 N108 1.325 . S
C110 C111 1.416 1_545 S
C110 H116 0.929 . S
C111 C109 1.366 . S
C111 C110 1.416 1_565 S
C111 H113 0.930 . S
H112 C101 0.930 . S
H113 C111 0.930 . S
H114 C129 0.930 . S
H115 C136 0.930 . S
H116 C110 0.929 . S
H117 C109 0.930 . S
H118 C132 0.929 . S
H119 C99 0.931 . S
H120 C105 0.931 . S
H121 C106 0.931 . S
H122 C127 0.931 . S
H123 C102 0.929 . S
H124 C135 0.930 . S
N125 Eu96 2.600 . S
N125 C126 1.365 . S
N125 C129 1.319 . S
C126 N125 1.365 . S
C126 C128 1.405 . S
C126 C134 1.448 . S
C127 H122 0.931 . S
C127 C129 1.397 . S
C127 C130 1.367 . S
C128 C126 1.405 . S
C128 C130 1.403 . S
C128 C161 1.439 . S
C129 H114 0.930 . S
C129 N125 1.319 . S
C129 C127 1.397 . S
C130 C127 1.367 . S
C130 C128 1.403 . S
C130 H137 0.929 . S
N131 Eu96 2.562 . S
N131 C132 1.325 . S
N131 C134 1.351 . S
C132 H118 0.929 . S
C132 N131 1.325 . S
C132 C136 1.416 . S
C133 C134 1.430 . S
C133 C135 1.404 . S
C133 C162 1.387 . S
C134 C126 1.448 . S
C134 N131 1.351 . S
C134 C133 1.430 . S
C135 H124 0.930 . S
C135 C133 1.404 . S
C135 C136 1.366 . S
C136 H115 0.930 . S
C136 C132 1.416 . S
C136 C135 1.366 . S
H137 C130 0.929 . S
H138 C161 0.931 . S
H139 C162 0.931 . S
O140 Eu96 2.462 . S
O140 C160 1.252 . S
O141 Eu96 2.373 . S
O141 C152 1.249 . S
O142 Eu107 2.335 1_455 S
O142 C152 1.264 . S
O143 Eu96 2.432 . S
O143 C160 1.268 . S
O144 Eu96 2.291 . S
O144 C159 1.256 1_455 S
O145 Eu107 2.372 . S
O145 C159 1.257 . S
O146 Eu107 2.462 . S
O146 C171 1.252 . S
O147 Eu107 2.373 . S
O147 C163 1.249 . S
O148 Eu96 2.348 . S
O148 C163 1.247 1_455 S
O149 Eu107 2.432 . S
O149 C171 1.268 . S
O150 Eu107 2.291 1_455 S
O150 C170 1.255 . S
O151 Eu96 2.372 . S
O151 C170 1.257 . S
C152 O141 1.249 . S
C152 O142 1.264 . S
C153 C156 1.382 . S
C153 C158 1.390 . S
C153 C160 1.506 . S
C154 C155 1.398 . S
C154 C158 1.392 . S
C155 C154 1.398 . S
C155 C157 1.372 . S
C155 H172 0.931 . S
C156 C153 1.382 . S
C156 C157 1.390 . S
C156 H173 0.931 . S
C157 C155 1.372 . S
C157 C156 1.390 . S
C157 H174 0.929 . S
C158 C153 1.390 . S
C158 C154 1.392 . S
C158 H175 0.930 . S
C159 O144 1.256 1_655 S
C159 O145 1.257 . S
C160 Eu96 2.787 . S
C160 O140 1.252 . S
C160 O143 1.268 . S
C160 C153 1.506 . S
C161 C128 1.439 . S
C161 H138 0.931 . S
C161 C162 1.374 . S
C162 C133 1.387 . S
C162 H139 0.931 . S
C162 C161 1.374 . S
C163 O147 1.249 . S
C163 O148 1.247 1_655 S
C164 C167 1.382 . S
C164 C168 1.390 . S
C164 C171 1.506 . S
C165 C166 1.398 . S
C165 C168 1.392 . S
C166 C165 1.398 . S
C166 C169 1.372 . S
C166 H176 0.931 . S
C167 C164 1.382 . S
C167 C169 1.390 . S
C167 H177 0.931 . S
C168 C164 1.390 . S
C168 C165 1.392 . S
C168 H178 0.930 . S
C169 C166 1.372 . S
C169 C167 1.390 . S
C169 H179 0.929 . S
C170 O150 1.255 . S
C170 O151 1.257 . S
C171 Eu107 2.787 . S
C171 O146 1.252 . S
C171 O149 1.268 . S
C171 C164 1.506 . S
H172 C155 0.931 . S
H173 C156 0.931 . S
H174 C157 0.929 . S
H175 C158 0.930 . S
H176 C166 0.931 . S
H177 C167 0.931 . S
H178 C168 0.930 . S
H179 C169 0.929 . S
Eu180 N209 2.600 . S
Eu180 N215 2.562 . S
Eu180 O224 2.462 . S
Eu180 O225 2.373 . S
Eu180 O227 2.432 . S
Eu180 O228 2.291 . S
Eu180 O232 2.335 . S
Eu180 O235 2.372 . S
Eu180 C244 2.787 . S
C181 N182 1.365 . S
C181 C184 1.405 . S
C181 C188 1.448 . S
N182 C181 1.365 . S
N182 C185 1.319 . S
N182 Eu191 2.600 . S
C183 C185 1.397 . S
C183 C186 1.367 . S
C183 H203 0.931 . S
C184 C181 1.405 . S
C184 C186 1.403 . S
C184 C190 1.439 . S
C185 N182 1.319 . S
C185 C183 1.397 . S
C185 H196 0.930 . S
C186 C183 1.367 . S
C186 C184 1.403 . S
C186 H207 0.929 . S
C187 C188 1.430 . S
C187 C189 1.387 . S
C187 C193 1.404 . S
C188 C181 1.448 . S
C188 C187 1.430 . S
C188 N192 1.351 . S
C189 C187 1.387 . S
C189 C190 1.374 . S
C189 H204 0.931 . S
C190 C184 1.439 . S
C190 C189 1.374 . S
C190 H205 0.931 . S
Eu191 N182 2.600 . S
Eu191 N192 2.562 . S
Eu191 O226 2.335 . S
Eu191 O229 2.372 . S
Eu191 O230 2.462 . S
Eu191 O231 2.373 . S
Eu191 O233 2.432 . S
Eu191 O234 2.291 . S
Eu191 C255 2.787 . S
N192 C188 1.351 . S
N192 Eu191 2.562 . S
N192 C194 1.325 . S
C193 C187 1.404 . S
C193 C195 1.366 . S
C193 H201 0.930 . S
C194 N192 1.325 . S
C194 C195 1.416 . S
C194 H200 0.929 . S
C195 C193 1.366 . S
C195 C194 1.416 . S
C195 H197 0.930 . S
H196 C185 0.930 . S
H197 C195 0.930 . S
H198 C213 0.930 . S
H199 C220 0.930 . S
H200 C194 0.929 . S
H201 C193 0.930 . S
H202 C216 0.929 . S
H203 C183 0.931 . S
H204 C189 0.931 . S
H205 C190 0.931 . S
H206 C211 0.931 . S
H207 C186 0.929 . S
H208 C219 0.930 . S
N209 Eu180 2.600 . S
N209 C210 1.365 . S
N209 C213 1.319 . S
C210 N209 1.365 . S
C210 C212 1.405 . S
C210 C218 1.448 . S
C211 H206 0.931 . S
C211 C213 1.397 . S
C211 C214 1.367 . S
C212 C210 1.405 . S
C212 C214 1.403 . S
C212 C245 1.439 . S
C213 H198 0.930 . S
C213 N209 1.319 . S
C213 C211 1.397 . S
C214 C211 1.367 . S
C214 C212 1.403 . S
C214 H221 0.929 . S
N215 Eu180 2.562 . S
N215 C216 1.325 . S
N215 C218 1.351 . S
C216 H202 0.929 . S
C216 N215 1.325 . S
C216 C220 1.416 . S
C217 C218 1.430 . S
C217 C219 1.404 . S
C217 C246 1.387 . S
C218 C210 1.448 . S
C218 N215 1.351 . S
C218 C217 1.430 . S
C219 H208 0.930 . S
C219 C217 1.404 . S
C219 C220 1.366 . S
C220 H199 0.930 . S
C220 C216 1.416 . S
C220 C219 1.366 . S
H221 C214 0.929 . S
H222 C245 0.931 . S
H223 C246 0.931 . S
O224 Eu180 2.462 . S
O224 C244 1.252 . S
O225 Eu180 2.373 . S
O225 C236 1.249 . S
O226 Eu191 2.335 . S
O226 C236 1.264 . S
O227 Eu180 2.432 . S
O227 C244 1.268 . S
O228 Eu180 2.291 . S
O228 C243 1.255 . S
O229 Eu191 2.372 . S
O229 C243 1.257 . S
O230 Eu191 2.462 . S
O230 C255 1.252 . S
O231 Eu191 2.373 . S
O231 C247 1.249 . S
O232 Eu180 2.335 . S
O232 C247 1.264 . S
O233 Eu191 2.432 . S
O233 C255 1.268 . S
O234 Eu191 2.291 . S
O234 C254 1.255 . S
O235 Eu180 2.372 . S
O235 C254 1.257 . S
C236 O225 1.249 . S
C236 O226 1.264 . S
C237 C240 1.382 . S
C237 C242 1.390 . S
C237 C244 1.506 . S
C238 C239 1.398 . S
C238 C242 1.392 . S
C239 C238 1.398 . S
C239 C241 1.372 . S
C239 H256 0.931 . S
C240 C237 1.382 . S
C240 C241 1.390 . S
C240 H257 0.931 . S
C241 C239 1.372 . S
C241 C240 1.390 . S
C241 H258 0.929 . S
C242 C237 1.390 . S
C242 C238 1.392 . S
C242 H259 0.930 . S
C243 O228 1.255 . S
C243 O229 1.257 . S
C244 Eu180 2.787 . S
C244 O224 1.252 . S
C244 O227 1.268 . S
C244 C237 1.506 . S
C245 C212 1.439 . S
C245 H222 0.931 . S
C245 C246 1.374 . S
C246 C217 1.387 . S
C246 H223 0.931 . S
C246 C245 1.374 . S
C247 O231 1.249 . S
C247 O232 1.264 . S
C248 C251 1.382 . S
C248 C252 1.390 . S
C248 C255 1.506 . S
C249 C250 1.398 . S
C249 C252 1.392 . S
C250 C249 1.398 . S
C250 C253 1.372 . S
C250 H260 0.931 . S
C251 C248 1.382 . S
C251 C253 1.390 . S
C251 H261 0.931 . S
C252 C248 1.390 . S
C252 C249 1.392 . S
C252 H262 0.930 . S
C253 C250 1.372 . S
C253 C251 1.390 . S
C253 H263 0.929 . S
C254 O234 1.255 . S
C254 O235 1.257 . S
C255 Eu191 2.787 . S
C255 O230 1.252 . S
C255 O233 1.268 . S
C255 C248 1.506 . S
H256 C239 0.931 . S
H257 C240 0.931 . S
H258 C241 0.929 . S
H259 C242 0.930 . S
H260 C250 0.931 . S
H261 C251 0.931 . S
H262 C252 0.930 . S
H263 C253 0.929 . S
Eu264 N293 2.600 . S
Eu264 N299 2.562 . S
Eu264 O308 2.462 . S
Eu264 O309 2.373 . S
Eu264 O311 2.432 . S
Eu264 O312 2.291 . S
Eu264 O316 2.335 . S
Eu264 O319 2.372 . S
Eu264 C328 2.787 . S
C265 N266 1.365 . S
C265 C268 1.405 . S
C265 C272 1.448 . S
N266 C265 1.365 . S
N266 C269 1.319 . S
N266 Eu275 2.600 . S
C267 C269 1.397 . S
C267 C270 1.367 . S
C267 H287 0.931 . S
C268 C265 1.405 . S
C268 C270 1.403 . S
C268 C274 1.439 . S
C269 N266 1.319 . S
C269 C267 1.397 . S
C269 H280 0.930 . S
C270 C267 1.367 . S
C270 C268 1.403 . S
C270 H291 0.929 . S
C271 C272 1.430 . S
C271 C273 1.387 . S
C271 C277 1.404 . S
C272 C265 1.448 . S
C272 C271 1.430 . S
C272 N276 1.351 . S
C273 C271 1.387 . S
C273 C274 1.374 . S
C273 H288 0.931 . S
C274 C268 1.439 . S
C274 C273 1.374 . S
C274 H289 0.931 . S
Eu275 N266 2.600 . S
Eu275 N276 2.562 . S
Eu275 O310 2.335 1_655 S
Eu275 O313 2.372 . S
Eu275 O314 2.462 . S
Eu275 O315 2.373 . S
Eu275 O317 2.432 . S
Eu275 O318 2.291 1_655 S
Eu275 C339 2.787 . S
N276 C272 1.351 . S
N276 Eu275 2.562 . S
N276 C278 1.325 . S
C277 C271 1.404 . S
C277 C279 1.366 . S
C277 H285 0.930 . S
C278 N276 1.325 . S
C278 C279 1.416 . S
C278 H284 0.929 . S
C279 C277 1.366 . S
C279 C278 1.416 . S
C279 H281 0.930 . S
H280 C269 0.930 . S
H281 C279 0.930 . S
H282 C297 0.930 . S
H283 C304 0.930 . S
H284 C278 0.929 . S
H285 C277 0.930 . S
H286 C300 0.929 . S
H287 C267 0.931 . S
H288 C273 0.931 . S
H289 C274 0.931 . S
H290 C295 0.931 . S
H291 C270 0.929 . S
H292 C303 0.930 . S
N293 Eu264 2.600 . S
N293 C294 1.365 . S
N293 C297 1.319 . S
C294 N293 1.365 . S
C294 C296 1.405 . S
C294 C302 1.448 . S
C295 H290 0.931 . S
C295 C297 1.397 . S
C295 C298 1.367 . S
C296 C294 1.405 . S
C296 C298 1.403 . S
C296 C329 1.439 . S
C297 H282 0.930 . S
C297 N293 1.319 . S
C297 C295 1.397 . S
C298 C295 1.367 . S
C298 C296 1.403 . S
C298 H305 0.929 . S
N299 Eu264 2.562 . S
N299 C300 1.325 . S
N299 C302 1.351 . S
C300 H286 0.929 . S
C300 N299 1.325 . S
C300 C304 1.416 1_565 S
C301 C302 1.430 . S
C301 C303 1.404 1_565 S
C301 C330 1.387 . S
C302 C294 1.448 . S
C302 N299 1.351 . S
C302 C301 1.430 . S
C303 H292 0.930 . S
C303 C301 1.404 1_545 S
C303 C304 1.366 . S
C304 H283 0.930 . S
C304 C300 1.416 1_545 S
C304 C303 1.366 . S
H305 C298 0.929 . S
H306 C329 0.931 . S
H307 C330 0.931 . S
O308 Eu264 2.462 . S
O308 C328 1.252 . S
O309 Eu264 2.373 . S
O309 C320 1.249 . S
O310 Eu275 2.335 1_455 S
O310 C320 1.264 . S
O311 Eu264 2.432 . S
O311 C328 1.268 . S
O312 Eu264 2.291 . S
O312 C327 1.255 1_455 S
O313 Eu275 2.372 . S
O313 C327 1.257 . S
O314 Eu275 2.462 . S
O314 C339 1.252 . S
O315 Eu275 2.373 . S
O315 C331 1.249 . S
O316 Eu264 2.335 . S
O316 C331 1.264 1_455 S
O317 Eu275 2.432 . S
O317 C339 1.268 . S
O318 Eu275 2.291 1_455 S
O318 C338 1.255 . S
O319 Eu264 2.372 . S
O319 C338 1.257 . S
C320 O309 1.249 . S
C320 O310 1.264 . S
C321 C324 1.382 . S
C321 C326 1.390 . S
C321 C328 1.506 . S
C322 C323 1.398 . S
C322 C326 1.392 . S
C323 C322 1.398 . S
C323 C325 1.372 . S
C323 H340 0.931 . S
C324 C321 1.382 . S
C324 C325 1.390 . S
C324 H341 0.931 . S
C325 C323 1.372 . S
C325 C324 1.390 . S
C325 H342 0.929 . S
C326 C321 1.390 . S
C326 C322 1.392 . S
C326 H343 0.930 . S
C327 O312 1.255 1_655 S
C327 O313 1.257 . S
C328 Eu264 2.787 . S
C328 O308 1.252 . S
C328 O311 1.268 . S
C328 C321 1.506 . S
C329 C296 1.439 . S
C329 H306 0.931 . S
C329 C330 1.374 . S
C330 C301 1.387 . S
C330 H307 0.931 . S
C330 C329 1.374 . S
C331 O315 1.249 . S
C331 O316 1.264 1_655 S
C332 C335 1.382 . S
C332 C336 1.390 . S
C332 C339 1.506 . S
C333 C334 1.398 . S
C333 C336 1.392 . S
C334 C333 1.398 . S
C334 C337 1.372 . S
C334 H344 0.931 . S
C335 C332 1.382 . S
C335 C337 1.390 . S
C335 H345 0.931 . S
C336 C332 1.390 . S
C336 C333 1.392 . S
C336 H346 0.930 . S
C337 C334 1.372 . S
C337 C335 1.390 . S
C337 H347 0.929 . S
C338 O318 1.255 . S
C338 O319 1.257 . S
C339 Eu275 2.787 . S
C339 O314 1.252 . S
C339 O317 1.268 . S
C339 C332 1.506 . S
H340 C323 0.931 . S
H341 C324 0.931 . S
H342 C325 0.929 . S
H343 C326 0.930 . S
H344 C334 0.931 . S
H345 C335 0.931 . S
H346 C336 0.930 . S
H347 C337 0.929 . S
Eu348 N377 2.600 . S
Eu348 N383 2.562 . S
Eu348 O392 2.462 . S
Eu348 O393 2.373 . S
Eu348 O395 2.432 . S
Eu348 O396 2.291 . S
Eu348 O400 2.335 . S
Eu348 O403 2.372 . S
Eu348 C412 2.787 . S
C349 N350 1.365 . S
C349 C352 1.405 . S
C349 C356 1.448 . S
N350 C349 1.365 . S
N350 C353 1.319 . S
N350 Eu359 2.600 . S
C351 C353 1.397 . S
C351 C354 1.367 . S
C351 H371 0.931 . S
C352 C349 1.405 . S
C352 C354 1.403 . S
C352 C358 1.439 . S
C353 N350 1.319 . S
C353 C351 1.397 . S
C353 H364 0.930 . S
C354 C351 1.367 . S
C354 C352 1.403 . S
C354 H375 0.929 . S
C355 C356 1.430 . S
C355 C357 1.387 . S
C355 C361 1.404 . S
C356 C349 1.448 . S
C356 C355 1.430 . S
C356 N360 1.351 . S
C357 C355 1.387 . S
C357 C358 1.374 . S
C357 H372 0.931 . S
C358 C352 1.439 . S
C358 C357 1.374 . S
C358 H373 0.931 . S
Eu359 N350 2.600 . S
Eu359 N360 2.562 . S
Eu359 O394 2.335 . S
Eu359 O397 2.372 . S
Eu359 O398 2.462 . S
Eu359 O399 2.373 . S
Eu359 O401 2.432 . S
Eu359 O402 2.291 . S
Eu359 C423 2.787 . S
N360 C356 1.351 . S
N360 Eu359 2.562 . S
N360 C362 1.325 . S
C361 C355 1.404 . S
C361 C363 1.366 . S
C361 H369 0.930 . S
C362 N360 1.325 . S
C362 C363 1.416 . S
C362 H368 0.929 . S
C363 C361 1.366 . S
C363 C362 1.416 . S
C363 H365 0.930 . S
H364 C353 0.930 . S
H365 C363 0.930 . S
H366 C381 0.930 . S
H367 C388 0.930 . S
H368 C362 0.929 . S
H369 C361 0.930 . S
H370 C384 0.929 . S
H371 C351 0.931 . S
H372 C357 0.931 . S
H373 C358 0.931 . S
H374 C379 0.931 . S
H375 C354 0.929 . S
H376 C387 0.930 . S
N377 Eu348 2.600 . S
N377 C378 1.365 . S
N377 C381 1.319 . S
C378 N377 1.365 . S
C378 C380 1.405 . S
C378 C386 1.448 . S
C379 H374 0.931 . S
C379 C381 1.397 . S
C379 C382 1.367 . S
C380 C378 1.405 . S
C380 C382 1.403 . S
C380 C413 1.439 . S
C381 H366 0.930 . S
C381 N377 1.319 . S
C381 C379 1.397 . S
C382 C379 1.367 . S
C382 C380 1.403 . S
C382 H389 0.929 . S
N383 Eu348 2.562 . S
N383 C384 1.325 . S
N383 C386 1.351 . S
C384 H370 0.929 . S
C384 N383 1.325 . S
C384 C388 1.416 . S
C385 C386 1.430 . S
C385 C387 1.404 . S
C385 C414 1.387 . S
C386 C378 1.448 . S
C386 N383 1.351 . S
C386 C385 1.430 . S
C387 H376 0.930 . S
C387 C385 1.404 . S
C387 C388 1.366 . S
C388 H367 0.930 . S
C388 C384 1.416 . S
C388 C387 1.366 . S
H389 C382 0.929 . S
H390 C413 0.931 . S
H391 C414 0.931 . S
O392 Eu348 2.462 . S
O392 C412 1.252 . S
O393 Eu348 2.373 . S
O393 C404 1.249 . S
O394 Eu359 2.335 . S
O394 C404 1.264 . S
O395 Eu348 2.432 . S
O395 C412 1.268 . S
O396 Eu348 2.291 . S
O396 C411 1.255 . S
O397 Eu359 2.372 . S
O397 C411 1.257 . S
O398 Eu359 2.462 . S
O398 C423 1.252 . S
O399 Eu359 2.373 . S
O399 C415 1.249 . S
O400 Eu348 2.335 . S
O400 C415 1.264 . S
O401 Eu359 2.432 . S
O401 C423 1.268 . S
O402 Eu359 2.291 . S
O402 C422 1.255 . S
O403 Eu348 2.372 . S
O403 C422 1.257 . S
C404 O393 1.249 . S
C404 O394 1.264 . S
C405 C408 1.382 . S
C405 C410 1.390 . S
C405 C412 1.506 . S
C406 C407 1.398 . S
C406 C410 1.392 . S
C407 C406 1.398 . S
C407 C409 1.372 . S
C407 H424 0.931 . S
C408 C405 1.382 . S
C408 C409 1.390 . S
C408 H425 0.931 . S
C409 C407 1.372 . S
C409 C408 1.390 . S
C409 H426 0.929 . S
C410 C405 1.390 . S
C410 C406 1.392 . S
C410 H427 0.930 . S
C411 O396 1.255 . S
C411 O397 1.257 . S
C412 Eu348 2.787 . S
C412 O392 1.252 . S
C412 O395 1.268 . S
C412 C405 1.506 . S
C413 C380 1.439 . S
C413 H390 0.931 . S
C413 C414 1.374 . S
C414 C385 1.387 . S
C414 H391 0.931 . S
C414 C413 1.374 . S
C415 O399 1.249 . S
C415 O400 1.264 . S
C416 C419 1.382 . S
C416 C420 1.390 . S
C416 C423 1.506 . S
C417 C418 1.398 . S
C417 C420 1.392 . S
C418 C417 1.398 . S
C418 C421 1.372 . S
C418 H428 0.931 . S
C419 C416 1.382 . S
C419 C421 1.390 . S
C419 H429 0.931 . S
C420 C416 1.390 . S
C420 C417 1.392 . S
C420 H430 0.930 . S
C421 C418 1.372 . S
C421 C419 1.390 . S
C421 H431 0.929 . S
C422 O402 1.255 . S
C422 O403 1.257 . S
C423 Eu359 2.787 . S
C423 O398 1.252 . S
C423 O401 1.268 . S
C423 C416 1.506 . S
H424 C407 0.931 . S
H425 C408 0.931 . S
H426 C409 0.929 . S
H427 C410 0.930 . S
H428 C418 0.931 . S
H429 C419 0.931 . S
H430 C420 0.930 . S
H431 C421 0.929 . S
H432 C440 0.950 . S
H433 C445 0.950 . S
H434 C442 0.950 . S
H435 C444 0.950 . S
H436 C446 0.950 . S
H437 C448 0.950 . S
H438 C450 0.950 . S
H439 C451 0.950 . S
C440 H432 0.950 . S
C440 C441 1.386 . S
C440 C442 1.391 . S
C441 C440 1.386 . S
C441 C445 1.393 . S
C442 H434 0.950 . S
C442 C440 1.391 . S
C442 C443 1.400 . S
C443 C442 1.400 . S
C443 C444 1.398 . S
C443 C449 1.491 . S
C444 H435 0.950 . S
C444 C443 1.398 . S
C444 C445 1.391 . S
C445 H433 0.950 . S
C445 C441 1.393 . S
C445 C444 1.391 . S
C446 H436 0.950 . S
C446 C447 1.386 . S
C446 C448 1.391 1_545 S
C447 C446 1.386 . S
C447 C451 1.393 . S
C448 H437 0.950 . S
C448 C446 1.391 1_565 S
C448 C449 1.400 . S
C449 C443 1.491 . S
C449 C448 1.400 . S
C449 C450 1.398 1_565 S
C450 H438 0.950 . S
C450 C449 1.398 1_545 S
C450 C451 1.391 . S
C451 H439 0.950 . S
C451 C447 1.393 . S
C451 C450 1.391 . S
H452 C460 0.950 . S
H453 C465 0.950 . S
H454 C462 0.950 . S
H455 C464 0.950 . S
H456 C466 0.950 . S
H457 C468 0.950 . S
H458 C470 0.950 . S
H459 C471 0.950 . S
C460 H452 0.950 . S
C460 C461 1.386 . S
C460 C462 1.391 . S
C461 C460 1.386 . S
C461 C465 1.393 . S
C462 H454 0.950 . S
C462 C460 1.391 . S
C462 C463 1.400 . S
C463 C462 1.400 . S
C463 C464 1.398 . S
C463 C469 1.491 . S
C464 H455 0.950 . S
C464 C463 1.398 . S
C464 C465 1.391 . S
C465 H453 0.950 . S
C465 C461 1.393 . S
C465 C464 1.391 . S
C466 H456 0.950 . S
C466 C467 1.386 . S
C466 C468 1.391 . S
C467 C466 1.386 . S
C467 C471 1.393 . S
C468 H457 0.950 . S
C468 C466 1.391 . S
C468 C469 1.400 . S
C469 C463 1.491 . S
C469 C468 1.400 . S
C469 C470 1.398 . S
C470 H458 0.950 . S
C470 C469 1.398 . S
C470 C471 1.391 . S
C471 H459 0.950 . S
C471 C467 1.393 . S
C471 C470 1.391 . S
H472 C480 0.950 . S
H473 C485 0.950 . S
H474 C482 0.950 . S
H475 C484 0.950 . S
H476 C486 0.950 . S
H477 C488 0.950 . S
H478 C490 0.950 . S
H479 C491 0.950 . S
C480 H472 0.950 . S
C480 C481 1.386 . S
C480 C482 1.391 . S
C481 C480 1.386 . S
C481 C485 1.393 . S
C482 H474 0.950 . S
C482 C480 1.391 . S
C482 C483 1.400 . S
C483 C482 1.400 . S
C483 C484 1.398 . S
C483 C489 1.491 . S
C484 H475 0.950 . S
C484 C483 1.398 . S
C484 C485 1.391 . S
C485 H473 0.950 . S
C485 C481 1.393 . S
C485 C484 1.391 . S
C486 H476 0.950 . S
C486 C487 1.386 . S
C486 C488 1.391 . S
C487 C486 1.386 . S
C487 C491 1.393 . S
C488 H477 0.950 . S
C488 C486 1.391 . S
C488 C489 1.400 . S
C489 C483 1.491 . S
C489 C488 1.400 . S
C489 C490 1.398 . S
C490 H478 0.950 . S
C490 C489 1.398 . S
C490 C491 1.391 . S
C491 H479 0.950 . S
C491 C487 1.393 . S
C491 C490 1.391 . S
H492 C500 0.950 . S
H493 C505 0.950 . S
H494 C502 0.950 . S
H495 C504 0.950 . S
H496 C506 0.950 1_565 S
H497 C508 0.950 . S
H498 C510 0.950 . S
H499 C511 0.950 . S
C500 H492 0.950 . S
C500 C501 1.386 . S
C500 C502 1.391 . S
C501 C500 1.386 . S
C501 C505 1.393 . S
C502 H494 0.950 . S
C502 C500 1.391 . S
C502 C503 1.400 . S
C503 C502 1.400 . S
C503 C504 1.398 . S
C503 C509 1.491 . S
C504 H495 0.950 . S
C504 C503 1.398 . S
C504 C505 1.391 . S
C505 H493 0.950 . S
C505 C501 1.393 . S
C505 C504 1.391 . S
C506 H496 0.950 1_545 S
C506 C507 1.386 . S
C506 C508 1.391 1_545 S
C507 C506 1.386 . S
C507 C511 1.393 . S
C508 H497 0.950 . S
C508 C506 1.391 1_565 S
C508 C509 1.400 . S
C509 C503 1.491 . S
C509 C508 1.400 . S
C509 C510 1.398 1_565 S
C510 H498 0.950 . S
C510 C509 1.398 1_545 S
C510 C511 1.391 . S
C511 H499 0.950 . S
C511 C507 1.393 . S
C511 C510 1.391 . S
H512 C520 0.950 . S
H513 C525 0.950 . S
H514 C522 0.950 . S
H515 C524 0.950 . S
H516 C526 0.950 . S
H517 C528 0.950 . S
H518 C530 0.950 . S
H519 C531 0.950 . S
C520 H512 0.950 . S
C520 C521 1.386 . S
C520 C522 1.391 . S
C521 C520 1.386 . S
C521 C525 1.393 . S
C522 H514 0.950 . S
C522 C520 1.391 . S
C522 C523 1.400 . S
C523 C522 1.400 . S
C523 C524 1.398 . S
C523 C529 1.491 . S
C524 H515 0.950 . S
C524 C523 1.398 . S
C524 C525 1.391 . S
C525 H513 0.950 . S
C525 C521 1.393 . S
C525 C524 1.391 . S
C526 H516 0.950 . S
C526 C527 1.386 1_545 S
C526 C528 1.391 . S
C527 C526 1.386 1_565 S
C527 C531 1.393 . S
C528 H517 0.950 . S
C528 C526 1.391 . S
C528 C529 1.400 . S
C529 C523 1.491 . S
C529 C528 1.400 . S
C529 C530 1.398 1_545 S
C530 H518 0.950 . S
C530 C529 1.398 1_565 S
C530 C531 1.391 . S
C531 H519 0.950 . S
C531 C527 1.393 . S
C531 C530 1.391 . S
H532 C540 0.950 . S
H533 C545 0.950 . S
H534 C542 0.950 . S
H535 C544 0.950 . S
H536 C546 0.950 . S
H537 C548 0.950 . S
H538 C550 0.950 . S
H539 C551 0.950 . S
C540 H532 0.950 . S
C540 C541 1.386 . S
C540 C542 1.391 . S
C541 C540 1.386 . S
C541 C545 1.393 . S
C542 H534 0.950 . S
C542 C540 1.391 . S
C542 C543 1.400 . S
C543 C542 1.400 . S
C543 C544 1.398 . S
C543 C549 1.491 . S
C544 H535 0.950 . S
C544 C543 1.398 . S
C544 C545 1.391 . S
C545 H533 0.950 . S
C545 C541 1.393 . S
C545 C544 1.391 . S
C546 H536 0.950 . S
C546 C547 1.386 . S
C546 C548 1.391 . S
C547 C546 1.386 . S
C547 C551 1.393 . S
C548 H537 0.950 . S
C548 C546 1.391 . S
C548 C549 1.400 . S
C549 C543 1.491 . S
C549 C548 1.400 . S
C549 C550 1.398 . S
C550 H538 0.950 . S
C550 C549 1.398 . S
C550 C551 1.391 . S
C551 H539 0.950 . S
C551 C547 1.393 . S
C551 C550 1.391 . S
H552 C560 0.950 . S
H553 C565 0.950 . S
H554 C562 0.950 . S
H555 C564 0.950 . S
H556 C566 0.950 . S
H557 C568 0.950 . S
H558 C570 0.950 . S
H559 C571 0.950 . S
C560 H552 0.950 . S
C560 C561 1.386 . S
C560 C562 1.391 . S
C561 C560 1.386 . S
C561 C565 1.393 . S
C562 H554 0.950 . S
C562 C560 1.391 . S
C562 C563 1.400 . S
C563 C562 1.400 . S
C563 C564 1.398 . S
C563 C569 1.491 . S
C564 H555 0.950 . S
C564 C563 1.398 . S
C564 C565 1.391 . S
C565 H553 0.950 . S
C565 C561 1.393 . S
C565 C564 1.391 . S
C566 H556 0.950 . S
C566 C567 1.386 . S
C566 C568 1.391 . S
C567 C566 1.386 . S
C567 C571 1.393 . S
C568 H557 0.950 . S
C568 C566 1.391 . S
C568 C569 1.400 . S
C569 C563 1.491 . S
C569 C568 1.400 . S
C569 C570 1.398 . S
C570 H558 0.950 . S
C570 C569 1.398 . S
C570 C571 1.391 . S
C571 H559 0.950 . S
C571 C567 1.393 . S
C571 C570 1.391 . S
H572 C580 0.950 . S
H573 C585 0.950 . S
H574 C582 0.950 . S
H575 C584 0.950 . S
H576 C586 0.950 . S
H577 C588 0.950 . S
H578 C590 0.950 . S
H579 C591 0.950 . S
C580 H572 0.950 . S
C580 C581 1.386 . S
C580 C582 1.391 . S
C581 C580 1.386 . S
C581 C585 1.393 . S
C582 H574 0.950 . S
C582 C580 1.391 . S
C582 C583 1.400 . S
C583 C582 1.400 . S
C583 C584 1.398 . S
C583 C589 1.491 . S
C584 H575 0.950 . S
C584 C583 1.398 . S
C584 C585 1.391 . S
C585 H573 0.950 . S
C585 C581 1.393 . S
C585 C584 1.391 . S
C586 H576 0.950 . S
C586 C587 1.386 1_545 S
C586 C588 1.391 . S
C587 C586 1.386 1_565 S
C587 C591 1.393 . S
C588 H577 0.950 . S
C588 C586 1.391 . S
C588 C589 1.400 . S
C589 C583 1.491 . S
C589 C588 1.400 . S
C589 C590 1.398 1_545 S
C590 H578 0.950 . S
C590 C589 1.398 1_565 S
C590 C591 1.391 . S
C591 H579 0.950 . S
C591 C587 1.393 . S
C591 C590 1.391 . S
H592 C600 0.950 . S
H593 C605 0.950 . S
H594 C602 0.950 1_554 S
H595 C604 0.942 1_554 S
H596 C606 0.950 . S
H597 C608 0.950 . S
H598 C610 0.950 . S
H599 C611 0.950 . S
C600 H592 0.950 . S
C600 C601 1.386 . S
C600 C602 1.391 . S
C601 C600 1.386 . S
C601 C605 1.393 . S
C602 H594 0.950 1_556 S
C602 C600 1.391 . S
C602 C603 1.400 1_556 S
C603 C602 1.400 1_554 S
C603 C604 1.393 1_554 S
C603 C609 1.491 . S
C604 H595 0.942 1_556 S
C604 C603 1.393 1_556 S
C604 C605 1.404 . S
C605 H593 0.950 . S
C605 C601 1.393 . S
C605 C604 1.404 . S
C606 H596 0.950 . S
C606 C607 1.386 . S
C606 C608 1.391 . S
C607 C606 1.386 . S
C607 C611 1.393 . S
C608 H597 0.950 . S
C608 C606 1.391 . S
C608 C609 1.400 . S
C609 C603 1.491 . S
C609 C608 1.400 . S
C609 C610 1.398 . S
C610 H598 0.950 . S
C610 C609 1.398 . S
C610 C611 1.391 . S
C611 H599 0.950 . S
C611 C607 1.393 . S
C611 C610 1.391 . S
H612 C620 0.950 . S
H613 C625 0.950 . S
H614 C622 0.950 . S
H615 C624 0.950 . S
H616 C626 0.950 . S
H617 C628 0.950 . S
H618 C630 0.950 . S
H619 C631 0.950 . S
C620 H612 0.950 . S
C620 C621 1.386 . S
C620 C622 1.391 . S
C621 C620 1.386 . S
C621 C625 1.393 . S
C622 H614 0.950 . S
C622 C620 1.391 . S
C622 C623 1.400 . S
C623 C622 1.400 . S
C623 C624 1.398 . S
C623 C629 1.491 . S
C624 H615 0.950 . S
C624 C623 1.398 . S
C624 C625 1.391 . S
C625 H613 0.950 . S
C625 C621 1.393 . S
C625 C624 1.391 . S
C626 H616 0.950 . S
C626 C627 1.386 . S
C626 C628 1.391 . S
C627 C626 1.386 . S
C627 C631 1.393 . S
C628 H617 0.950 . S
C628 C626 1.391 . S
C628 C629 1.400 . S
C629 C623 1.491 . S
C629 C628 1.400 . S
C629 C630 1.398 . S
C630 H618 0.950 . S
C630 C629 1.398 . S
C630 C631 1.391 . S
C631 H619 0.950 . S
C631 C627 1.393 . S
C631 C630 1.391 . S
H632 C640 0.950 . S
H633 C645 0.950 . S
H634 C642 0.950 . S
H635 C644 0.950 . S
H636 C646 0.950 . S
H637 C648 0.950 . S
H638 C650 0.950 . S
H639 C651 0.950 . S
C640 H632 0.950 . S
C640 C641 1.386 . S
C640 C642 1.391 . S
C641 C640 1.386 . S
C641 C645 1.393 . S
C642 H634 0.950 . S
C642 C640 1.391 . S
C642 C643 1.400 1_554 S
C643 C642 1.400 1_556 S
C643 C644 1.398 . S
C643 C649 1.491 . S
C644 H635 0.950 . S
C644 C643 1.398 . S
C644 C645 1.391 1_556 S
C645 H633 0.950 . S
C645 C641 1.393 . S
C645 C644 1.391 1_554 S
C646 H636 0.950 . S
C646 C647 1.386 . S
C646 C648 1.391 . S
C647 C646 1.386 . S
C647 C651 1.393 . S
C648 H637 0.950 . S
C648 C646 1.391 . S
C648 C649 1.400 . S
C649 C643 1.491 . S
C649 C648 1.400 . S
C649 C650 1.398 . S
C650 H638 0.950 . S
C650 C649 1.398 . S
C650 C651 1.391 . S
C651 H639 0.950 . S
C651 C647 1.393 . S
C651 C650 1.391 . S
H652 C660 0.950 . S
H653 C665 0.950 . S
H654 C662 0.950 . S
H655 C664 0.950 . S
H656 C666 0.950 . S
H657 C668 0.950 . S
H658 C670 0.950 . S
H659 C671 0.950 . S
C660 H652 0.950 . S
C660 C661 1.386 . S
C660 C662 1.391 . S
C661 C660 1.386 . S
C661 C665 1.393 . S
C662 H654 0.950 . S
C662 C660 1.391 . S
C662 C663 1.400 . S
C663 C662 1.400 . S
C663 C664 1.398 . S
C663 C669 1.491 . S
C664 H655 0.950 . S
C664 C663 1.398 . S
C664 C665 1.391 . S
C665 H653 0.950 . S
C665 C661 1.393 . S
C665 C664 1.391 . S
C666 H656 0.950 . S
C666 C667 1.386 . S
C666 C668 1.391 . S
C667 C666 1.386 . S
C667 C671 1.393 . S
C668 H657 0.950 . S
C668 C666 1.391 . S
C668 C669 1.400 . S
C669 C663 1.491 . S
C669 C668 1.400 . S
C669 C670 1.398 . S
C670 H658 0.950 . S
C670 C669 1.398 . S
C670 C671 1.391 . S
C671 H659 0.950 . S
C671 C667 1.393 . S
C671 C670 1.391 . S
H672 C680 0.950 . S
H673 C685 0.950 . S
H674 C682 0.950 1_556 S
H675 C684 0.950 1_556 S
H676 C686 0.950 . S
H677 C688 0.950 . S
H678 C690 0.950 . S
H679 C691 0.950 . S
C680 H672 0.950 . S
C680 C681 1.386 . S
C680 C682 1.391 . S
C681 C680 1.386 . S
C681 C685 1.393 . S
C682 H674 0.950 1_554 S
C682 C680 1.391 . S
C682 C683 1.400 1_554 S
C683 C682 1.400 1_556 S
C683 C684 1.398 1_556 S
C683 C689 1.491 . S
C684 H675 0.950 1_554 S
C684 C683 1.398 1_554 S
C684 C685 1.391 . S
C685 H673 0.950 . S
C685 C681 1.393 . S
C685 C684 1.391 . S
C686 H676 0.950 . S
C686 C687 1.386 . S
C686 C688 1.391 . S
C687 C686 1.386 . S
C687 C691 1.393 . S
C688 H677 0.950 . S
C688 C686 1.391 . S
C688 C689 1.400 . S
C689 C683 1.491 . S
C689 C688 1.400 . S
C689 C690 1.398 . S
C690 H678 0.950 . S
C690 C689 1.398 . S
C690 C691 1.391 . S
C691 H679 0.950 . S
C691 C687 1.393 . S
C691 C690 1.391 . S
H692 C700 0.950 . S
H693 C705 0.950 . S
H694 C702 0.950 . S
H695 C704 0.950 . S
H696 C706 0.950 . S
H697 C708 0.950 . S
H698 C710 0.950 . S
H699 C711 0.950 . S
C700 H692 0.950 . S
C700 C701 1.386 . S
C700 C702 1.391 . S
C701 C700 1.386 . S
C701 C705 1.393 . S
C702 H694 0.950 . S
C702 C700 1.391 . S
C702 C703 1.400 . S
C703 C702 1.400 . S
C703 C704 1.398 . S
C703 C709 1.491 . S
C704 H695 0.950 . S
C704 C703 1.398 . S
C704 C705 1.391 . S
C705 H693 0.950 . S
C705 C701 1.393 . S
C705 C704 1.391 . S
C706 H696 0.950 . S
C706 C707 1.386 . S
C706 C708 1.391 . S
C707 C706 1.386 . S
C707 C711 1.393 . S
C708 H697 0.950 . S
C708 C706 1.391 . S
C708 C709 1.400 . S
C709 C703 1.491 . S
C709 C708 1.400 . S
C709 C710 1.398 . S
C710 H698 0.950 . S
C710 C709 1.398 . S
C710 C711 1.391 . S
C711 H699 0.950 . S
C711 C707 1.393 . S
C711 C710 1.391 . S
H712 C720 0.950 . S
H713 C725 0.950 . S
H714 C722 0.950 . S
H715 C724 0.927 1_554 S
H716 C726 0.950 . S
H717 C728 0.950 . S
H718 C730 0.950 . S
H719 C731 0.950 . S
C720 H712 0.950 . S
C720 C721 1.386 . S
C720 C722 1.391 . S
C721 C720 1.386 . S
C721 C725 1.393 . S
C722 H714 0.950 . S
C722 C720 1.391 . S
C722 C723 1.400 1_556 S
C723 C722 1.400 1_554 S
C723 C724 1.387 1_554 S
C723 C729 1.491 . S
C724 H715 0.927 1_556 S
C724 C723 1.387 1_556 S
C724 C725 1.425 . S
C725 H713 0.950 . S
C725 C721 1.393 . S
C725 C724 1.425 . S
C726 H716 0.950 . S
C726 C727 1.386 . S
C726 C728 1.391 . S
C727 C726 1.386 . S
C727 C731 1.393 . S
C728 H717 0.950 . S
C728 C726 1.391 . S
C728 C729 1.400 . S
C729 C723 1.491 . S
C729 C728 1.400 . S
C729 C730 1.398 . S
C730 H718 0.950 . S
C730 C729 1.398 . S
C730 C731 1.391 . S
C731 H719 0.950 . S
C731 C727 1.393 . S
C731 C730 1.391 . S
H732 C740 0.950 . S
H733 C745 0.950 . S
H734 C742 0.950 . S
H735 C744 0.950 . S
H736 C746 0.950 . S
H737 C748 0.950 . S
H738 C750 0.950 . S
H739 C751 0.950 . S
C740 H732 0.950 . S
C740 C741 1.386 . S
C740 C742 1.391 . S
C741 C740 1.386 . S
C741 C745 1.393 . S
C742 H734 0.950 . S
C742 C740 1.391 . S
C742 C743 1.400 . S
C743 C742 1.400 . S
C743 C744 1.398 . S
C743 C749 1.491 . S
C744 H735 0.950 . S
C744 C743 1.398 . S
C744 C745 1.391 . S
C745 H733 0.950 . S
C745 C741 1.393 . S
C745 C744 1.391 . S
C746 H736 0.950 . S
C746 C747 1.386 . S
C746 C748 1.391 . S
C747 C746 1.386 . S
C747 C751 1.393 . S
C748 H737 0.950 . S
C748 C746 1.391 . S
C748 C749 1.400 . S
C749 C743 1.491 . S
C749 C748 1.400 . S
C749 C750 1.398 . S
C750 H738 0.950 . S
C750 C749 1.398 . S
C750 C751 1.391 . S
C751 H739 0.950 . S
C751 C747 1.393 . S
C751 C750 1.391 . S
H752 C760 0.950 . S
H753 C765 0.950 . S
H754 C762 0.950 . S
H755 C764 0.950 . S
H756 C766 0.950 . S
H757 C768 0.950 . S
H758 C770 0.950 . S
H759 C771 0.950 . S
C760 H752 0.950 . S
C760 C761 1.386 . S
C760 C762 1.391 . S
C761 C760 1.386 . S
C761 C765 1.393 . S
C762 H754 0.950 . S
C762 C760 1.391 . S
C762 C763 1.400 . S
C763 C762 1.400 . S
C763 C764 1.398 . S
C763 C769 1.491 . S
C764 H755 0.950 . S
C764 C763 1.398 . S
C764 C765 1.391 . S
C765 H753 0.950 . S
C765 C761 1.393 . S
C765 C764 1.391 . S
C766 H756 0.950 . S
C766 C767 1.386 . S
C766 C768 1.391 . S
C767 C766 1.386 . S
C767 C771 1.393 . S
C768 H757 0.950 . S
C768 C766 1.391 . S
C768 C769 1.400 . S
C769 C763 1.491 . S
C769 C768 1.400 . S
C769 C770 1.398 . S
C770 H758 0.950 . S
C770 C769 1.398 . S
C770 C771 1.391 . S
C771 H759 0.950 . S
C771 C767 1.393 . S
C771 C770 1.391 . S
H772 C780 0.950 . S
H773 C785 0.950 . S
H774 C782 0.950 . S
H775 C784 0.950 . S
H776 C786 0.950 . S
H777 C788 0.950 . S
H778 C790 0.950 . S
H779 C791 0.950 . S
C780 H772 0.950 . S
C780 C781 1.386 . S
C780 C782 1.391 . S
C781 C780 1.386 . S
C781 C785 1.393 . S
C782 H774 0.950 . S
C782 C780 1.391 . S
C782 C783 1.400 . S
C783 C782 1.400 . S
C783 C784 1.398 . S
C783 C789 1.491 . S
C784 H775 0.950 . S
C784 C783 1.398 . S
C784 C785 1.391 . S
C785 H773 0.950 . S
C785 C781 1.393 . S
C785 C784 1.391 . S
C786 H776 0.950 . S
C786 C787 1.386 . S
C786 C788 1.391 . S
C787 C786 1.386 . S
C787 C791 1.393 . S
C788 H777 0.950 . S
C788 C786 1.391 . S
C788 C789 1.400 . S
C789 C783 1.491 . S
C789 C788 1.400 . S
C789 C790 1.398 . S
C790 H778 0.950 . S
C790 C789 1.398 . S
C790 C791 1.391 . S
C791 H779 0.950 . S
C791 C787 1.393 . S
C791 C790 1.391 . S
H792 C800 0.950 . S
H793 C805 0.950 . S
H794 C802 0.950 . S
H795 C804 0.950 . S
H796 C806 0.950 . S
H797 C808 0.950 . S
H798 C810 0.950 . S
H799 C811 0.950 . S
C800 H792 0.950 . S
C800 C801 1.386 . S
C800 C802 1.391 . S
C801 C800 1.386 . S
C801 C805 1.393 . S
C802 H794 0.950 . S
C802 C800 1.391 . S
C802 C803 1.400 . S
C803 C802 1.400 . S
C803 C804 1.398 . S
C803 C809 1.491 . S
C804 H795 0.950 . S
C804 C803 1.398 . S
C804 C805 1.391 . S
C805 H793 0.950 . S
C805 C801 1.393 . S
C805 C804 1.391 . S
C806 H796 0.950 . S
C806 C807 1.386 . S
C806 C808 1.391 . S
C807 C806 1.386 . S
C807 C811 1.393 . S
C808 H797 0.950 . S
C808 C806 1.391 . S
C808 C809 1.400 . S
C809 C803 1.491 . S
C809 C808 1.400 . S
C809 C810 1.398 . S
C810 H798 0.950 . S
C810 C809 1.398 . S
C810 C811 1.391 . S
C811 H799 0.950 . S
C811 C807 1.393 . S
C811 C810 1.391 . S
H812 C820 0.950 . S
H813 C825 0.950 . S
H814 C822 0.950 . S
H815 C824 0.950 . S
H816 C826 0.950 . S
H817 C828 0.950 . S
H818 C830 0.950 . S
H819 C831 0.950 . S
C820 H812 0.950 . S
C820 C821 1.386 . S
C820 C822 1.391 . S
C821 C820 1.386 . S
C821 C825 1.393 . S
C822 H814 0.950 . S
C822 C820 1.391 . S
C822 C823 1.400 . S
C823 C822 1.400 . S
C823 C824 1.398 . S
C823 C829 1.491 . S
C824 H815 0.950 . S
C824 C823 1.398 . S
C824 C825 1.391 . S
C825 H813 0.950 . S
C825 C821 1.393 . S
C825 C824 1.391 . S
C826 H816 0.950 . S
C826 C827 1.386 . S
C826 C828 1.391 . S
C827 C826 1.386 . S
C827 C831 1.393 . S
C828 H817 0.950 . S
C828 C826 1.391 . S
C828 C829 1.400 . S
C829 C823 1.491 . S
C829 C828 1.400 . S
C829 C830 1.398 . S
C830 H818 0.950 . S
C830 C829 1.398 . S
C830 C831 1.391 . S
C831 H819 0.950 . S
C831 C827 1.393 . S
C831 C830 1.391 . S
H832 C840 0.950 . S
H833 C845 0.950 . S
H834 C842 0.950 . S
H835 C844 0.950 . S
H836 C846 0.964 . S
H837 C848 0.950 . S
H838 C850 0.950 . S
H839 C851 0.950 . S
C840 H832 0.950 . S
C840 C841 1.386 . S
C840 C842 1.391 . S
C841 C840 1.386 . S
C841 C845 1.393 . S
C842 H834 0.950 . S
C842 C840 1.391 . S
C842 C843 1.400 . S
C843 C842 1.400 . S
C843 C844 1.398 . S
C843 C849 1.491 . S
C844 H835 0.950 . S
C844 C843 1.398 . S
C844 C845 1.391 . S
C845 H833 0.950 . S
C845 C841 1.393 . S
C845 C844 1.391 . S
C846 H836 0.964 . S
C846 C847 1.386 . S
C846 C848 1.391 . S
C847 C846 1.386 . S
C847 C851 1.393 . S
C848 H837 0.950 . S
C848 C846 1.391 . S
C848 C849 1.400 . S
C849 C843 1.491 . S
C849 C848 1.400 . S
C849 C850 1.398 . S
C850 H838 0.950 . S
C850 C849 1.398 . S
C850 C851 1.391 . S
C851 H839 0.950 . S
C851 C847 1.393 . S
C851 C850 1.391 . S
H852 C860 0.950 . S
H853 C865 0.950 . S
H854 C862 0.950 . S
H855 C864 0.950 . S
H856 C866 0.950 . S
H857 C868 0.950 . S
H858 C870 0.950 . S
H859 C871 0.950 . S
C860 H852 0.950 . S
C860 C861 1.386 . S
C860 C862 1.391 . S
C861 C860 1.386 . S
C861 C865 1.393 . S
C862 H854 0.950 . S
C862 C860 1.391 . S
C862 C863 1.400 . S
C863 C862 1.400 . S
C863 C864 1.398 . S
C863 C869 1.491 . S
C864 H855 0.950 . S
C864 C863 1.398 . S
C864 C865 1.391 . S
C865 H853 0.950 . S
C865 C861 1.393 . S
C865 C864 1.391 . S
C866 H856 0.950 . S
C866 C867 1.386 . S
C866 C868 1.391 . S
C867 C866 1.386 . S
C867 C871 1.393 . S
C868 H857 0.950 . S
C868 C866 1.391 . S
C868 C869 1.400 . S
C869 C863 1.491 . S
C869 C868 1.400 . S
C869 C870 1.398 . S
C870 H858 0.950 . S
C870 C869 1.398 . S
C870 C871 1.391 . S
C871 H859 0.950 . S
C871 C867 1.393 . S
C871 C870 1.391 . S
H872 C880 0.950 . S
H873 C885 0.950 . S
H874 C882 0.950 . S
H875 C884 0.950 . S
H876 C886 0.950 . S
H877 C888 0.950 . S
H878 C890 0.950 . S
H879 C891 0.950 . S
C880 H872 0.950 . S
C880 C881 1.386 . S
C880 C882 1.391 . S
C881 C880 1.386 . S
C881 C885 1.393 . S
C882 H874 0.950 . S
C882 C880 1.391 . S
C882 C883 1.400 . S
C883 C882 1.400 . S
C883 C884 1.398 . S
C883 C889 1.491 . S
C884 H875 0.950 . S
C884 C883 1.398 . S
C884 C885 1.391 . S
C885 H873 0.950 . S
C885 C881 1.393 . S
C885 C884 1.391 . S
C886 H876 0.950 . S
C886 C887 1.386 . S
C886 C888 1.391 . S
C887 C886 1.386 . S
C887 C891 1.393 . S
C888 H877 0.950 . S
C888 C886 1.391 . S
C888 C889 1.400 . S
C889 C883 1.491 . S
C889 C888 1.400 . S
C889 C890 1.398 . S
C890 H878 0.950 . S
C890 C889 1.398 . S
C890 C891 1.391 . S
C891 H879 0.950 . S
C891 C887 1.393 . S
C891 C890 1.391 . S
H892 C900 0.950 . S
H893 C905 0.950 . S
H894 C902 0.950 . S
H895 C904 0.950 . S
H896 C906 0.950 . S
H897 C908 0.950 . S
H898 C910 0.950 . S
H899 C911 0.950 . S
C900 H892 0.950 . S
C900 C901 1.386 . S
C900 C902 1.391 . S
C901 C900 1.386 . S
C901 C905 1.393 . S
C902 H894 0.950 . S
C902 C900 1.391 . S
C902 C903 1.400 . S
C903 C902 1.400 . S
C903 C904 1.398 . S
C903 C909 1.491 . S
C904 H895 0.950 . S
C904 C903 1.398 . S
C904 C905 1.391 . S
C905 H893 0.950 . S
C905 C901 1.393 . S
C905 C904 1.391 . S
C906 H896 0.950 . S
C906 C907 1.386 . S
C906 C908 1.391 . S
C907 C906 1.386 . S
C907 C911 1.393 . S
C908 H897 0.950 . S
C908 C906 1.391 . S
C908 C909 1.400 . S
C909 C903 1.491 . S
C909 C908 1.400 . S
C909 C910 1.398 . S
C910 H898 0.950 . S
C910 C909 1.398 . S
C910 C911 1.391 . S
C911 H899 0.950 . S
C911 C907 1.393 . S
C911 C910 1.391 . S
C441 C81 1.686 . S
C447 C170 1.674 . S
C467 C254 1.661 . S
C461 C93 1.682 . S
C487 C247 1.674 . S
C481 C57 1.682 . S
C501 C69 1.681 . S
C507 C163 1.671 . S
C527 C327 1.664 . S
C521 C33 1.676 . S
C547 C411 1.661 . S
C541 C45 1.678 . S
C561 C9 1.669 . S
C567 C404 1.671 . S
C581 C21 1.669 . S
C587 C320 1.672 . S
C607 C154 1.472 . S
C601 C18 1.616 . S
C627 C238 1.448 . S
C621 C6 1.611 . S
C647 C249 1.404 . S
C641 C42 1.620 . S
C667 C165 1.381 . S
C661 C30 1.613 . S
C687 C333 1.441 . S
C681 C66 1.616 . S
C701 C54 1.615 . S
C707 C417 1.449 . S
C727 C406 1.427 . S
C721 C90 1.627 . S
C741 C78 1.626 . S
C747 C322 1.427 . S
C767 C152 1.535 . S
C761 C4 1.526 . S
C787 C236 1.538 . S
C781 C16 1.530 . S
C801 C28 1.521 . S
C807 C243 1.506 . S
C827 C159 1.502 . S
C821 C40 1.525 . S
C847 C331 1.535 . S
C841 C52 1.512 . S
C861 C64 1.517 . S
C867 C415 1.535 . S
C881 C76 1.518 . S
C887 C422 1.509 . S
C901 C88 1.517 . S
C907 C338 1.503 . S
