# Generated by pormake.
# Topology ptr, (4,4)-cn, num edge types: 1
# Building blocks:
#     Node 0, Type 0, BuildingBlock: CEKHIL_clean_sbu_0, # of connection points: 4
#     Node 1, Type 0, BuildingBlock: CEKHIL_clean_sbu_0, # of connection points: 4
#     Node 2, Type 0, BuildingBlock: CEKHIL_clean_sbu_0, # of connection points: 4
#     Node 3, Type 0, BuildingBlock: CEKHIL_clean_sbu_0, # of connection points: 4
#     Node 4, Type 0, BuildingBlock: CEKHIL_clean_sbu_0, # of connection points: 4
#     Node 5, Type 0, BuildingBlock: CEKHIL_clean_sbu_0, # of connection points: 4
#     Node 6, Type 0, BuildingBlock: CEKHIL_clean_sbu_0, # of connection points: 4
#     Node 7, Type 0, BuildingBlock: CEKHIL_clean_sbu_0, # of connection points: 4
#     Node 8, Type 0, BuildingBlock: CEKHIL_clean_sbu_0, # of connection points: 4
#     Node 9, Type 0, BuildingBlock: CEKHIL_clean_sbu_0, # of connection points: 4
#     Node 10, Type 0, BuildingBlock: CEKHIL_clean_sbu_0, # of connection points: 4
#     Node 11, Type 0, BuildingBlock: CEKHIL_clean_sbu_0, # of connection points: 4
#     Node 12, Type 0, BuildingBlock: CEKHIL_clean_sbu_0, # of connection points: 4
#     Node 13, Type 0, BuildingBlock: CEKHIL_clean_sbu_0, # of connection points: 4
#     Node 14, Type 0, BuildingBlock: CEKHIL_clean_sbu_0, # of connection points: 4
#     Node 15, Type 0, BuildingBlock: CEKHIL_clean_sbu_0, # of connection points: 4
#     Node 16, Type 0, BuildingBlock: CEKHIL_clean_sbu_0, # of connection points: 4
#     Node 17, Type 0, BuildingBlock: CEKHIL_clean_sbu_0, # of connection points: 4
#     Node 18, Type 1, BuildingBlock: NAWXER_clean_linker_0, # of connection points: 4
#     Node 19, Type 1, BuildingBlock: NAWXER_clean_linker_0, # of connection points: 4
#     Node 20, Type 1, BuildingBlock: NAWXER_clean_linker_0, # of connection points: 4
#     Node 21, Type 1, BuildingBlock: NAWXER_clean_linker_0, # of connection points: 4
#     Node 22, Type 1, BuildingBlock: NAWXER_clean_linker_0, # of connection points: 4
#     Node 23, Type 1, BuildingBlock: NAWXER_clean_linker_0, # of connection points: 4
#     Node 24, Type 1, BuildingBlock: NAWXER_clean_linker_0, # of connection points: 4
#     Node 25, Type 1, BuildingBlock: NAWXER_clean_linker_0, # of connection points: 4
#     Node 26, Type 1, BuildingBlock: NAWXER_clean_linker_0, # of connection points: 4
#     Node 27, Type 1, BuildingBlock: NAWXER_clean_linker_0, # of connection points: 4
#     Node 28, Type 1, BuildingBlock: NAWXER_clean_linker_0, # of connection points: 4
#     Node 29, Type 1, BuildingBlock: NAWXER_clean_linker_0, # of connection points: 4
#     Node 30, Type 1, BuildingBlock: NAWXER_clean_linker_0, # of connection points: 4
#     Node 31, Type 1, BuildingBlock: NAWXER_clean_linker_0, # of connection points: 4
#     Node 32, Type 1, BuildingBlock: NAWXER_clean_linker_0, # of connection points: 4
#     Node 33, Type 1, BuildingBlock: NAWXER_clean_linker_0, # of connection points: 4
#     Node 34, Type 1, BuildingBlock: NAWXER_clean_linker_0, # of connection points: 4
#     Node 35, Type 1, BuildingBlock: NAWXER_clean_linker_0, # of connection points: 4
#     Edge 36, Type (0, 1), BuildingBlock: UVAHIK_clean_linker_0, # of connection points: 2
#     Edge 37, Type (0, 1), BuildingBlock: UVAHIK_clean_linker_0, # of connection points: 2
#     Edge 38, Type (0, 1), BuildingBlock: UVAHIK_clean_linker_0, # of connection points: 2
#     Edge 39, Type (0, 1), BuildingBlock: UVAHIK_clean_linker_0, # of connection points: 2
#     Edge 40, Type (0, 1), BuildingBlock: UVAHIK_clean_linker_0, # of connection points: 2
#     Edge 41, Type (0, 1), BuildingBlock: UVAHIK_clean_linker_0, # of connection points: 2
#     Edge 42, Type (0, 1), BuildingBlock: UVAHIK_clean_linker_0, # of connection points: 2
#     Edge 43, Type (0, 1), BuildingBlock: UVAHIK_clean_linker_0, # of connection points: 2
#     Edge 44, Type (0, 1), BuildingBlock: UVAHIK_clean_linker_0, # of connection points: 2
#     Edge 45, Type (0, 1), BuildingBlock: UVAHIK_clean_linker_0, # of connection points: 2
#     Edge 46, Type (0, 1), BuildingBlock: UVAHIK_clean_linker_0, # of connection points: 2
#     Edge 47, Type (0, 1), BuildingBlock: UVAHIK_clean_linker_0, # of connection points: 2
#     Edge 48, Type (0, 1), BuildingBlock: UVAHIK_clean_linker_0, # of connection points: 2
#     Edge 49, Type (0, 1), BuildingBlock: UVAHIK_clean_linker_0, # of connection points: 2
#     Edge 50, Type (0, 1), BuildingBlock: UVAHIK_clean_linker_0, # of connection points: 2
#     Edge 51, Type (0, 1), BuildingBlock: UVAHIK_clean_linker_0, # of connection points: 2
#     Edge 52, Type (0, 1), BuildingBlock: UVAHIK_clean_linker_0, # of connection points: 2
#     Edge 53, Type (0, 1), BuildingBlock: UVAHIK_clean_linker_0, # of connection points: 2
#     Edge 54, Type (0, 1), BuildingBlock: UVAHIK_clean_linker_0, # of connection points: 2
#     Edge 55, Type (0, 1), BuildingBlock: UVAHIK_clean_linker_0, # of connection points: 2
#     Edge 56, Type (0, 1), BuildingBlock: UVAHIK_clean_linker_0, # of connection points: 2
#     Edge 57, Type (0, 1), BuildingBlock: UVAHIK_clean_linker_0, # of connection points: 2
#     Edge 58, Type (0, 1), BuildingBlock: UVAHIK_clean_linker_0, # of connection points: 2
#     Edge 59, Type (0, 1), BuildingBlock: UVAHIK_clean_linker_0, # of connection points: 2
#     Edge 60, Type (0, 1), BuildingBlock: UVAHIK_clean_linker_0, # of connection points: 2
#     Edge 61, Type (0, 1), BuildingBlock: UVAHIK_clean_linker_0, # of connection points: 2
#     Edge 62, Type (0, 1), BuildingBlock: UVAHIK_clean_linker_0, # of connection points: 2
#     Edge 63, Type (0, 1), BuildingBlock: UVAHIK_clean_linker_0, # of connection points: 2
#     Edge 64, Type (0, 1), BuildingBlock: UVAHIK_clean_linker_0, # of connection points: 2
#     Edge 65, Type (0, 1), BuildingBlock: UVAHIK_clean_linker_0, # of connection points: 2
#     Edge 66, Type (0, 1), BuildingBlock: UVAHIK_clean_linker_0, # of connection points: 2
#     Edge 67, Type (0, 1), BuildingBlock: UVAHIK_clean_linker_0, # of connection points: 2
#     Edge 68, Type (0, 1), BuildingBlock: UVAHIK_clean_linker_0, # of connection points: 2
#     Edge 69, Type (0, 1), BuildingBlock: UVAHIK_clean_linker_0, # of connection points: 2
#     Edge 70, Type (0, 1), BuildingBlock: UVAHIK_clean_linker_0, # of connection points: 2
#     Edge 71, Type (0, 1), BuildingBlock: UVAHIK_clean_linker_0, # of connection points: 2
#     Edge 72, Type (0, 1), BuildingBlock: UVAHIK_clean_linker_0, # of connection points: 2
#     Edge 73, Type (0, 1), BuildingBlock: UVAHIK_clean_linker_0, # of connection points: 2
#     Edge 74, Type (0, 1), BuildingBlock: UVAHIK_clean_linker_0, # of connection points: 2
#     Edge 75, Type (0, 1), BuildingBlock: UVAHIK_clean_linker_0, # of connection points: 2
#     Edge 76, Type (0, 1), BuildingBlock: UVAHIK_clean_linker_0, # of connection points: 2
#     Edge 77, Type (0, 1), BuildingBlock: UVAHIK_clean_linker_0, # of connection points: 2
#     Edge 78, Type (0, 1), BuildingBlock: UVAHIK_clean_linker_0, # of connection points: 2
#     Edge 79, Type (0, 1), BuildingBlock: UVAHIK_clean_linker_0, # of connection points: 2
#     Edge 80, Type (0, 1), BuildingBlock: UVAHIK_clean_linker_0, # of connection points: 2
#     Edge 81, Type (0, 1), BuildingBlock: UVAHIK_clean_linker_0, # of connection points: 2
#     Edge 82, Type (0, 1), BuildingBlock: UVAHIK_clean_linker_0, # of connection points: 2
#     Edge 83, Type (0, 1), BuildingBlock: UVAHIK_clean_linker_0, # of connection points: 2
#     Edge 84, Type (0, 1), BuildingBlock: UVAHIK_clean_linker_0, # of connection points: 2
#     Edge 85, Type (0, 1), BuildingBlock: UVAHIK_clean_linker_0, # of connection points: 2
#     Edge 86, Type (0, 1), BuildingBlock: UVAHIK_clean_linker_0, # of connection points: 2
#     Edge 87, Type (0, 1), BuildingBlock: UVAHIK_clean_linker_0, # of connection points: 2
#     Edge 88, Type (0, 1), BuildingBlock: UVAHIK_clean_linker_0, # of connection points: 2
#     Edge 89, Type (0, 1), BuildingBlock: UVAHIK_clean_linker_0, # of connection points: 2
#     Edge 90, Type (0, 1), BuildingBlock: UVAHIK_clean_linker_0, # of connection points: 2
#     Edge 91, Type (0, 1), BuildingBlock: UVAHIK_clean_linker_0, # of connection points: 2
#     Edge 92, Type (0, 1), BuildingBlock: UVAHIK_clean_linker_0, # of connection points: 2
#     Edge 93, Type (0, 1), BuildingBlock: UVAHIK_clean_linker_0, # of connection points: 2
#     Edge 94, Type (0, 1), BuildingBlock: UVAHIK_clean_linker_0, # of connection points: 2
#     Edge 95, Type (0, 1), BuildingBlock: UVAHIK_clean_linker_0, # of connection points: 2
#     Edge 96, Type (0, 1), BuildingBlock: UVAHIK_clean_linker_0, # of connection points: 2
#     Edge 97, Type (0, 1), BuildingBlock: UVAHIK_clean_linker_0, # of connection points: 2
#     Edge 98, Type (0, 1), BuildingBlock: UVAHIK_clean_linker_0, # of connection points: 2
#     Edge 99, Type (0, 1), BuildingBlock: UVAHIK_clean_linker_0, # of connection points: 2
#     Edge 100, Type (0, 1), BuildingBlock: UVAHIK_clean_linker_0, # of connection points: 2
#     Edge 101, Type (0, 1), BuildingBlock: UVAHIK_clean_linker_0, # of connection points: 2
#     Edge 102, Type (0, 1), BuildingBlock: UVAHIK_clean_linker_0, # of connection points: 2
#     Edge 103, Type (0, 1), BuildingBlock: UVAHIK_clean_linker_0, # of connection points: 2
#     Edge 104, Type (0, 1), BuildingBlock: UVAHIK_clean_linker_0, # of connection points: 2
#     Edge 105, Type (0, 1), BuildingBlock: UVAHIK_clean_linker_0, # of connection points: 2
#     Edge 106, Type (0, 1), BuildingBlock: UVAHIK_clean_linker_0, # of connection points: 2
#     Edge 107, Type (0, 1), BuildingBlock: UVAHIK_clean_linker_0, # of connection points: 2
# Relax obj value: 0.032
# Max RMSD: 0.130
# Mean RMSD: 0.053
data_MOF--net-ptr--node1-CEKHIL_clean_sbu_0--node2-NAWXER_clean_linker_0--edge1-UVAHIK_clean_linker_0
_symmetry_space_group_name_H-M    P1
_symmetry_Int_Tables_number       1
_symmetry_cell_setting            triclinic
loop_
_symmetry_equiv_pos_as_xyz
'x, y, z'
_cell_length_a     108.64456
_cell_length_b     107.49032
_cell_length_c     80.308378
_cell_angle_alpha  90.944475
_cell_angle_beta   89.460649
_cell_angle_gamma 120.91776
loop_
_atom_site_label
_atom_site_type_symbol
_atom_site_fract_x
_atom_site_fract_y
_atom_site_fract_z
_atom_type_partial_charge
Co0 Co 0.00875 0.3413 0.00644 0.0
O1 O 0.01521 0.33169 0.02066 0.0
O2 O 0.02941 0.35312 0.00931 0.0
C3 C 0.99438 0.32175 0.99051 0.0
O4 O 0.00569 0.35408 0.99055 0.0
Co5 Co 0.97639 0.33148 0.00661 0.0
O6 O 0.98192 0.34392 0.98664 0.0
C7 C 0.99469 0.34915 0.03445 0.0
C8 C 0.02806 0.3427 0.01868 0.0
C9 C 0.99488 0.35334 0.98306 0.0
O10 O 0.00582 0.3512 0.0263 0.0
O11 O 0.98183 0.34052 0.02949 0.0
O12 O 0.00807 0.32932 0.98749 0.0
O13 O 0.9902 0.32537 0.00387 0.0
Co14 Co 0.65884 0.65949 0.01036 0.0
O15 O 0.67051 0.66914 0.99128 0.0
O16 O 0.6672 0.64864 0.0016 0.0
C17 C 0.66753 0.67956 0.02648 0.0
O18 O 0.64817 0.64658 0.03003 0.0
Co19 Co 0.63669 0.66673 0.02476 0.0
O20 O 0.63718 0.65616 0.04454 0.0
C21 C 0.62993 0.64882 0.994 0.0
C22 C 0.67333 0.65879 0.99058 0.0
C23 C 0.64145 0.64716 0.04302 0.0
O24 O 0.64153 0.64848 0.99555 0.0
O25 O 0.62651 0.6561 0.00379 0.0
O26 O 0.67438 0.67261 0.02527 0.0
O27 O 0.65629 0.67476 0.01721 0.0
Co28 Co 0.33872 0.00061 0.00659 0.0
O29 O 0.32967 0.00573 0.98993 0.0
O30 O 0.34987 0.02136 0.00284 0.0
C31 C 0.31875 0.98648 0.02146 0.0
O32 O 0.35083 0.99909 0.02484 0.0
Co33 Co 0.33021 0.96845 0.0096 0.0
O34 O 0.34136 0.97548 0.03058 0.0
C35 C 0.34918 0.98584 0.98225 0.0
C36 C 0.34009 0.01901 0.99191 0.0
C37 C 0.35015 0.98887 0.03371 0.0
O38 O 0.34987 0.9972 0.98875 0.0
O39 O 0.34105 0.97308 0.98796 0.0
O40 O 0.32578 0.00046 0.02364 0.0
O41 O 0.32313 0.98169 0.00931 0.0
Co42 Co 0.9984 0.66402 0.00942 0.0
O43 O 0.99485 0.67482 0.99333 0.0
O44 O 0.97824 0.65378 0.00375 0.0
C45 C 0.0122 0.68306 0.0263 0.0
O46 O 0.99794 0.65006 0.02664 0.0
Co47 Co 0.02918 0.67027 0.01567 0.0
O48 O 0.02038 0.65856 0.03591 0.0
C49 C 0.0134 0.65346 0.9858 0.0
C50 C 0.98148 0.66456 0.99393 0.0
C51 C 0.00688 0.64982 0.03685 0.0
O52 O 0.00217 0.65341 0.99109 0.0
O53 O 0.02555 0.66039 0.99321 0.0
O54 O 0.99831 0.6765 0.02727 0.0
O55 O 0.01722 0.67874 0.01435 0.0
Co56 Co 0.34169 0.34499 0.0059 0.0
O57 O 0.32946 0.33458 0.02438 0.0
O58 O 0.33334 0.35563 0.01512 0.0
C59 C 0.33356 0.3259 0.98828 0.0
O60 O 0.35292 0.35873 0.98708 0.0
Co61 Co 0.36431 0.33822 0.99164 0.0
O62 O 0.36539 0.35059 0.97292 0.0
C63 C 0.36953 0.35383 0.02383 0.0
C64 C 0.32683 0.34507 0.02557 0.0
C65 C 0.36068 0.35923 0.97461 0.0
O66 O 0.35862 0.35525 0.02138 0.0
O67 O 0.37285 0.34643 0.01411 0.0
O68 O 0.32647 0.33255 0.99021 0.0
O69 O 0.34444 0.33013 0.998 0.0
Co70 Co 0.66168 0.99927 0.00963 0.0
O71 O 0.66959 0.99323 0.0268 0.0
O72 O 0.6494 0.97862 0.01323 0.0
C73 C 0.68228 0.0125 0.99536 0.0
O74 O 0.6505 0.00167 0.99089 0.0
Co75 Co 0.67225 0.03195 0.00569 0.0
O76 O 0.66167 0.02528 0.98434 0.0
C77 C 0.65183 0.01546 0.03255 0.0
C78 C 0.65866 0.98026 0.02451 0.0
C79 C 0.65214 0.01205 0.98153 0.0
O80 O 0.65085 0.00369 0.02698 0.0
O81 O 0.66037 0.02795 0.0264 0.0
O82 O 0.67461 0.99854 0.99312 0.0
O83 O 0.67802 0.01773 0.00715 0.0
Co84 Co 0.67198 0.67845 0.33842 0.0
O85 O 0.67433 0.66851 0.35671 0.0
O86 O 0.69174 0.68875 0.3456 0.0
C87 C 0.65893 0.65848 0.32244 0.0
O88 O 0.67391 0.69158 0.3193 0.0
Co89 Co 0.64198 0.6721 0.32731 0.0
O90 O 0.65241 0.68325 0.30727 0.0
C91 C 0.65512 0.68894 0.35827 0.0
C92 C 0.6878 0.67858 0.35653 0.0
C93 C 0.66598 0.69172 0.30758 0.0
O94 O 0.66711 0.68989 0.35448 0.0
O95 O 0.64361 0.68135 0.34978 0.0
O96 O 0.67284 0.66487 0.3226 0.0
O97 O 0.65344 0.66368 0.33269 0.0
Co98 Co 0.32721 0.99336 0.34827 0.0
O99 O 0.34045 0.00288 0.33027 0.0
O100 O 0.33527 0.98185 0.34097 0.0
C101 C 0.3353 0.01334 0.3645 0.0
O102 O 0.31486 0.98046 0.36716 0.0
Co103 Co 0.30481 0.00149 0.35942 0.0
O104 O 0.3029 0.99004 0.37947 0.0
C105 C 0.30029 0.98456 0.32831 0.0
C106 C 0.34256 0.99203 0.33027 0.0
C107 C 0.30704 0.9809 0.37901 0.0
O108 O 0.31093 0.983 0.33195 0.0
O109 O 0.29684 0.99242 0.33701 0.0
O110 O 0.34192 0.00613 0.36436 0.0
O111 O 0.3248 0.00886 0.35413 0.0
Co112 Co 0.00952 0.33611 0.34127 0.0
O113 O 0.00028 0.34008 0.32359 0.0
O114 O 0.0209 0.3563 0.33524 0.0
C115 C 0.98961 0.32338 0.35687 0.0
O116 O 0.02203 0.3363 0.36021 0.0
Co117 Co 0.00094 0.30456 0.34986 0.0
O118 O 0.01248 0.31377 0.37016 0.0
C119 C 0.01906 0.31863 0.32037 0.0
C120 C 0.0109 0.35339 0.32442 0.0
C121 C 0.02154 0.32734 0.37103 0.0
O122 O 0.02003 0.33074 0.32444 0.0
O123 O 0.01126 0.30683 0.32827 0.0
O124 O 0.99674 0.33748 0.35758 0.0
O125 O 0.99405 0.31763 0.34595 0.0
Co126 Co 0.66191 0.99049 0.34393 0.0
O127 O 0.65756 -5e-05 0.32684 0.0
O128 O 0.64183 0.97896 0.33814 0.0
C129 C 0.67474 0.01025 0.36024 0.0
O130 O 0.66227 0.97762 0.36207 0.0
Co131 Co 0.69343 0.99915 0.35098 0.0
O132 O 0.68499 0.98603 0.37022 0.0
C133 C 0.67894 0.98225 0.32071 0.0
C134 C 0.64448 0.98905 0.32752 0.0
C135 C 0.67152 0.97728 0.37167 0.0
O136 O 0.6669 0.9802 0.32631 0.0
O137 O 0.69094 0.99056 0.328 0.0
O138 O 0.66081 0.00306 0.36102 0.0
O139 O 0.68026 0.00609 0.34873 0.0
Co140 Co 0.01009 0.67593 0.34282 0.0
O141 O 0.9968 0.66493 0.36025 0.0
O142 O 0.99942 0.68501 0.34947 0.0
C143 C 0.00521 0.65696 0.32605 0.0
O144 O 0.02205 0.68989 0.32445 0.0
Co145 Co 0.03569 0.67192 0.33362 0.0
O146 O 0.03755 0.6838 0.31406 0.0
C147 C 0.03633 0.6871 0.36483 0.0
C148 C 0.99289 0.67449 0.35998 0.0
C149 C 0.03146 0.69124 0.31362 0.0
O150 O 0.02531 0.68758 0.36003 0.0
O151 O 0.0413 0.68027 0.35672 0.0
O152 O 0.99691 0.66238 0.32598 0.0
O153 O 0.01519 0.66226 0.33716 0.0
Co154 Co 0.3282 0.3357 0.34144 0.0
O155 O 0.33923 0.33419 0.35906 0.0
O156 O 0.31833 0.3162 0.34994 0.0
C157 C 0.34682 0.34765 0.32379 0.0
O158 O 0.31397 0.33278 0.32315 0.0
Co159 Co 0.33396 0.36532 0.32869 0.0
O160 O 0.32254 0.3536 0.30923 0.0
C161 C 0.31813 0.35369 0.36031 0.0
C162 C 0.32922 0.32062 0.35991 0.0
C163 C 0.31378 0.34004 0.31067 0.0
O164 O 0.31809 0.34178 0.35799 0.0
O165 O 0.32452 0.36454 0.35057 0.0
O166 O 0.34037 0.33362 0.32489 0.0
O167 O 0.34255 0.35399 0.33412 0.0
Co168 Co 0.33847 0.0125 0.67483 0.0
O169 O 0.34341 0.00346 0.69181 0.0
O170 O 0.35849 0.02479 0.68079 0.0
C171 C 0.32649 0.99238 0.65879 0.0
O172 O 0.3375 0.02498 0.65659 0.0
Co173 Co 0.30675 0.00221 0.66681 0.0
O174 O 0.31497 0.01437 0.64682 0.0
C175 C 0.32041 0.02038 0.69679 0.0
C176 C 0.35631 0.01465 0.69113 0.0
C177 C 0.32823 0.02409 0.64601 0.0
O178 O 0.33265 0.02217 0.6924 0.0
O179 O 0.30876 0.01212 0.68885 0.0
O180 O 0.34037 0.00041 0.65774 0.0
O181 O 0.32052 0.99619 0.67011 0.0
Co182 Co 0.99392 0.32519 0.67503 0.0
O183 O 0.00619 0.33577 0.65659 0.0
O184 O 0.00442 0.31614 0.6676 0.0
C185 C 0.99968 0.3448 0.69119 0.0
O186 O 0.98315 0.31158 0.69419 0.0
Co187 Co 0.96892 0.32905 0.68755 0.0
O188 O 0.96913 0.31835 0.7073 0.0
C189 C 0.96558 0.3121 0.65663 0.0
C190 C 0.01035 0.3264 0.6567 0.0
C191 C 0.97493 0.31065 0.70636 0.0
O192 O 0.9777 0.31296 0.65908 0.0
O193 O 0.96078 0.31845 0.66594 0.0
O194 O 0.00799 0.3394 0.69078 0.0
O195 O 0.98891 0.33888 0.68114 0.0
Co196 Co 0.67485 0.66831 0.67483 0.0
O197 O 0.66426 0.67049 0.65724 0.0
O198 O 0.68502 0.68811 0.66716 0.0
C199 C 0.65592 0.65585 0.69189 0.0
O200 O 0.68854 0.67032 0.6933 0.0
Co201 Co 0.66829 0.6378 0.68541 0.0
O202 O 0.67984 0.64859 0.70526 0.0
C203 C 0.68424 0.65057 0.65428 0.0
C204 C 0.67437 0.68403 0.65692 0.0
C205 C 0.68854 0.66225 0.70497 0.0
O206 O 0.68524 0.66274 0.65812 0.0
O207 O 0.67695 0.63905 0.66284 0.0
O208 O 0.66239 0.66991 0.6914 0.0
O209 O 0.66027 0.64985 0.68119 0.0
Co210 Co 0.32835 0.32583 0.67743 0.0
O211 O 0.325 0.33588 0.66012 0.0
O212 O 0.30833 0.31519 0.67122 0.0
C213 C 0.34159 0.34553 0.69369 0.0
O214 O 0.3275 0.31244 0.69564 0.0
Co215 Co 0.35895 0.33272 0.6862 0.0
O216 O 0.34953 0.32068 0.70606 0.0
C217 C 0.34487 0.31625 0.65538 0.0
C218 C 0.31167 0.32548 0.66063 0.0
C219 C 0.33599 0.31206 0.70642 0.0
O220 O 0.33297 0.31507 0.66011 0.0
O221 O 0.35666 0.3238 0.66338 0.0
O222 O 0.32767 0.33874 0.69436 0.0
O223 O 0.34694 0.34086 0.68255 0.0
Co224 Co 0.67561 0.01029 0.67095 0.0
O225 O 0.66288 0.00134 0.68949 0.0
O226 O 0.66848 0.0225 0.67884 0.0
C227 C 0.66616 0.99007 0.65495 0.0
O228 O 0.68765 0.02272 0.65163 0.0
Co229 Co 0.69656 0.00068 0.65861 0.0
O230 O 0.69853 0.01228 0.63867 0.0
C231 C 0.70297 0.01826 0.68952 0.0
C232 C 0.66127 0.0125 0.68976 0.0
C233 C 0.69495 0.02185 0.63944 0.0
O234 O 0.6925 0.02026 0.68653 0.0
O235 O 0.70564 0.00993 0.68059 0.0
O236 O 0.66021 0.99792 0.65541 0.0
O237 O 0.67691 0.99414 0.66484 0.0
Co238 Co 0.99015 0.66578 0.6745 0.0
O239 O 0.99941 0.66207 0.69241 0.0
O240 O 0.97878 0.64568 0.68094 0.0
C241 C 0.01016 0.67823 0.65899 0.0
O242 O 0.97756 0.66522 0.65548 0.0
Co243 Co 0.99854 0.69689 0.66457 0.0
O244 O 0.98764 0.68723 0.64397 0.0
C245 C 0.98027 0.6835 0.69423 0.0
C246 C 0.98879 0.64875 0.69181 0.0
C247 C 0.97835 0.67372 0.64387 0.0
O248 O 0.97968 0.67143 0.69098 0.0
O249 O 0.9878 0.69502 0.68576 0.0
O250 O 0.00285 0.66414 0.65834 0.0
O251 O 0.00572 0.68421 0.66959 0.0
C252 C 0.20994 0.32797 0.14472 0.0
C253 C 0.20853 0.32234 0.1285 0.0
C254 C 0.19782 0.32549 0.15368 0.0
C255 C 0.18403 0.31687 0.14679 0.0
C256 C 0.19482 0.31398 0.12148 0.0
C257 C 0.18268 0.31123 0.13057 0.0
C258 C 0.17108 0.31467 0.15572 0.0
C259 C 0.19242 0.2976 0.18761 0.0
C260 C 0.19671 0.30447 0.20328 0.0
C261 C 0.18272 0.29924 0.17792 0.0
C262 C 0.17757 0.30821 0.18348 0.0
C263 C 0.19082 0.31264 0.20929 0.0
C264 C 0.18135 0.3145 0.19948 0.0
C265 C 0.16838 0.31128 0.17281 0.0
C266 C 0.11062 0.30648 0.18348 0.0
C267 C 0.11335 0.31282 0.19944 0.0
C268 C 0.12164 0.30648 0.17431 0.0
C269 C 0.13567 0.31333 0.18074 0.0
C270 C 0.12721 0.31923 0.20609 0.0
C271 C 0.13827 0.31955 0.1968 0.0
C272 C 0.14768 0.31365 0.17138 0.0
C273 C 0.13084 0.33464 0.13696 0.0
C274 C 0.12533 0.32683 0.12196 0.0
C275 C 0.13884 0.3313 0.14763 0.0
C276 C 0.14137 0.32006 0.14349 0.0
C277 C 0.12808 0.31573 0.11779 0.0
C278 C 0.13608 0.31245 0.1284 0.0
C279 C 0.15021 0.31664 0.1542 0.0
H280 H 0.22046 0.33466 0.15025 0.0
H281 H 0.19926 0.33052 0.16586 0.0
H282 H 0.1935 0.30955 0.10897 0.0
H283 H 0.1722 0.30475 0.12488 0.0
H284 H 0.19666 0.29107 0.18281 0.0
H285 H 0.17953 0.29376 0.16593 0.0
H286 H 0.19399 0.3181 0.22131 0.0
H287 H 0.17738 0.3213 0.20417 0.0
H288 H 0.09991 0.30126 0.17827 0.0
H289 H 0.11911 0.301 0.16231 0.0
H290 H 0.12949 0.32413 0.21844 0.0
H291 H 0.14893 0.32474 0.20217 0.0
H292 H 0.12887 0.34322 0.14053 0.0
H293 H 0.14311 0.33755 0.15903 0.0
H294 H 0.1242 0.30969 0.10619 0.0
H295 H 0.13811 0.30389 0.12484 0.0
N296 N 0.16176 0.31699 0.1471 0.0
N297 N 0.15688 0.31109 0.17995 0.0
C298 C 0.67101 0.87533 0.1358 0.0
C299 C 0.67796 0.88085 0.12053 0.0
C300 C 0.67488 0.86736 0.14577 0.0
C301 C 0.68612 0.86518 0.14095 0.0
C302 C 0.68878 0.87817 0.11535 0.0
C303 C 0.69284 0.87042 0.1255 0.0
C304 C 0.6904 0.85681 0.15147 0.0
C305 C 0.69744 0.89503 0.18282 0.0
C306 C 0.68792 0.8909 0.19638 0.0
C307 C 0.69898 0.88465 0.17386 0.0
C308 C 0.69103 0.86999 0.17835 0.0
C309 C 0.68017 0.87625 0.20098 0.0
C310 C 0.6818 0.86592 0.19212 0.0
C311 C 0.69225 0.85876 0.16891 0.0
C312 C 0.7101 0.81522 0.18621 0.0
C313 C 0.70192 0.80977 0.20078 0.0
C314 C 0.70892 0.82531 0.17661 0.0
C315 C 0.69905 0.82959 0.18105 0.0
C316 C 0.69285 0.81484 0.20584 0.0
C317 C 0.69139 0.82461 0.19604 0.0
C318 C 0.69634 0.83899 0.1702 0.0
C319 C 0.6862 0.79942 0.13987 0.0
C320 C 0.69454 0.80239 0.12538 0.0
C321 C 0.68599 0.81062 0.14867 0.0
C322 C 0.69449 0.82504 0.14344 0.0
C323 C 0.70267 0.81675 0.11985 0.0
C324 C 0.70265 0.82798 0.12882 0.0
C325 C 0.69451 0.83704 0.15273 0.0
H326 H 0.66244 0.87701 0.1399 0.0
H327 H 0.66899 0.86283 0.15719 0.0
H328 H 0.69428 0.8823 0.10362 0.0
H329 H 0.70135 0.86866 0.12135 0.0
H330 H 0.70355 0.90625 0.17903 0.0
H331 H 0.70635 0.88804 0.16342 0.0
H332 H 0.67296 0.8728 0.21156 0.0
H333 H 0.67567 0.85469 0.19587 0.0
H334 H 0.7173 0.81159 0.18221 0.0
H335 H 0.71544 0.82945 0.16551 0.0
H336 H 0.68642 0.81076 0.21703 0.0
H337 H 0.68387 0.82788 0.1999 0.0
H338 H 0.67961 0.78839 0.14417 0.0
H339 H 0.67918 0.808 0.15955 0.0
H340 H 0.70915 0.81929 0.10868 0.0
H341 H 0.70911 0.83899 0.12443 0.0
N342 N 0.69175 0.84611 0.14406 0.0
N343 N 0.69503 0.84972 0.17757 0.0
C344 C 0.11696 0.80475 0.13963 0.0
C345 C 0.10862 0.80641 0.1276 0.0
C346 C 0.12689 0.81661 0.14915 0.0
C347 C 0.12867 0.83036 0.14682 0.0
C348 C 0.11036 0.82017 0.12533 0.0
C349 C 0.12045 0.8321 0.13476 0.0
C350 C 0.13964 0.84296 0.15646 0.0
C351 C 0.10367 0.81526 0.19136 0.0
C352 C 0.10759 0.80827 0.20296 0.0
C353 C 0.11418 0.82675 0.18201 0.0
C354 C 0.12875 0.83145 0.18421 0.0
C355 C 0.1222 0.81326 0.20541 0.0
C356 C 0.13269 0.82481 0.19622 0.0
C357 C 0.14003 0.84315 0.17401 0.0
C358 C 0.19215 0.9015 0.19049 0.0
C359 C 0.19845 0.89708 0.20245 0.0
C360 C 0.18045 0.89118 0.18107 0.0
C361 C 0.17489 0.87631 0.18351 0.0
C362 C 0.19268 0.88219 0.20501 0.0
C363 C 0.18097 0.87192 0.19571 0.0
C364 C 0.16272 0.86514 0.17357 0.0
C365 C 0.20011 0.88816 0.13887 0.0
C366 C 0.19764 0.89412 0.12479 0.0
C367 C 0.1887 0.87864 0.14897 0.0
C368 C 0.17465 0.87532 0.14555 0.0
C369 C 0.18357 0.89047 0.12101 0.0
C370 C 0.17217 0.88117 0.13134 0.0
C371 C 0.16239 0.86494 0.15594 0.0
H372 H 0.11578 0.79425 0.14167 0.0
H373 H 0.13333 0.81509 0.15818 0.0
H374 H 0.10416 0.82175 0.11602 0.0
H375 H 0.12181 0.84267 0.13269 0.0
H376 H 0.09247 0.81163 0.18925 0.0
H377 H 0.11093 0.8319 0.173 0.0
H378 H 0.12552 0.80818 0.21444 0.0
H379 H 0.14387 0.82833 0.1982 0.0
H380 H 0.19638 0.91291 0.18828 0.0
H381 H 0.17577 0.8948 0.17189 0.0
H382 H 0.19714 0.87847 0.21435 0.0
H383 H 0.17678 0.86051 0.19788 0.0
H384 H 0.21084 0.89058 0.14182 0.0
H385 H 0.19087 0.87371 0.1593 0.0
H386 H 0.18143 0.8949 0.11015 0.0
H387 H 0.16141 0.87856 0.12823 0.0
N388 N 0.15078 0.85389 0.14808 0.0
N389 N 0.15158 0.85418 0.18188 0.0
C390 C 0.3218 0.12141 0.83074 0.0
C391 C 0.30953 0.11045 0.82246 0.0
C392 C 0.32117 0.13211 0.84017 0.0
C393 C 0.30831 0.13216 0.84136 0.0
C394 C 0.29657 0.1104 0.82409 0.0
C395 C 0.29604 0.12127 0.83327 0.0
C396 C 0.30788 0.14399 0.85033 0.0
C397 C 0.30735 0.11384 0.8886 0.0
C398 C 0.3202 0.11995 0.89776 0.0
C399 C 0.30428 0.12253 0.87881 0.0
C400 C 0.31396 0.13751 0.87802 0.0
C401 C 0.32976 0.13503 0.89713 0.0
C402 C 0.3266 0.14373 0.88746 0.0
C403 C 0.31094 0.14678 0.86749 0.0
C404 C 0.29893 0.19543 0.87929 0.0
C405 C 0.30998 0.20405 0.89062 0.0
C406 C 0.29829 0.1834 0.87152 0.0
C407 C 0.30888 0.17992 0.87458 0.0
C408 C 0.32019 0.20013 0.89423 0.0
C409 C 0.31964 0.18819 0.88629 0.0
C410 C 0.30876 0.16766 0.86573 0.0
C411 C 0.31806 0.20046 0.82674 0.0
C412 C 0.306 0.19702 0.81694 0.0
C413 C 0.3181 0.19008 0.83689 0.0
C414 C 0.30616 0.17597 0.83738 0.0
C415 C 0.29411 0.18274 0.81731 0.0
C416 C 0.29426 0.17227 0.82731 0.0
C417 C 0.30628 0.16518 0.84841 0.0
H418 H 0.33204 0.12204 0.82957 0.0
H419 H 0.33081 0.14057 0.84618 0.0
H420 H 0.28682 0.102 0.81824 0.0
H421 H 0.28602 0.12115 0.8341 0.0
H422 H 0.29955 0.10234 0.88909 0.0
H423 H 0.29429 0.11755 0.87194 0.0
H424 H 0.33982 0.14011 0.90385 0.0
H425 H 0.33419 0.1553 0.88705 0.0
H426 H 0.2909 0.19811 0.87616 0.0
H427 H 0.28955 0.17688 0.86302 0.0
H428 H 0.32864 0.20628 0.90321 0.0
H429 H 0.32779 0.18558 0.88908 0.0
H430 H 0.32759 0.21116 0.82646 0.0
H431 H 0.32751 0.19306 0.84434 0.0
H432 H 0.28458 0.17969 0.81009 0.0
H433 H 0.28496 0.1614 0.82751 0.0
N434 N 0.30575 0.15334 0.84137 0.0
N435 N 0.31122 0.15848 0.87458 0.0
C436 C 0.89673 0.19129 0.88169 0.0
C437 C 0.89256 0.1994 0.89164 0.0
C438 C 0.88652 0.17914 0.87269 0.0
C439 C 0.87197 0.17489 0.87344 0.0
C440 C 0.87793 0.19498 0.89249 0.0
C441 C 0.86773 0.18278 0.88358 0.0
C442 C 0.86107 0.1622 0.86382 0.0
C443 C 0.88648 0.19669 0.82645 0.0
C444 C 0.89592 0.19399 0.8171 0.0
C445 C 0.87563 0.18582 0.83605 0.0
C446 C 0.8739 0.17198 0.83646 0.0
C447 C 0.89407 0.18003 0.81751 0.0
C448 C 0.88306 0.16908 0.82698 0.0
C449 C 0.8623 0.16052 0.84654 0.0
C450 C 0.80301 0.11354 0.828 0.0
C451 C 0.80607 0.10632 0.81535 0.0
C452 C 0.81389 0.12374 0.83835 0.0
C453 C 0.82803 0.12674 0.83655 0.0
C454 C 0.82025 0.10935 0.81355 0.0
C455 C 0.83112 0.11949 0.82402 0.0
C456 C 0.8398 0.13828 0.84669 0.0
C457 C 0.81068 0.10429 0.88316 0.0
C458 C 0.80343 0.10887 0.89394 0.0
C459 C 0.82213 0.11431 0.87339 0.0
C460 C 0.82655 0.12909 0.8742 0.0
C461 C 0.80797 0.12371 0.89474 0.0
C462 C 0.81949 0.13371 0.88509 0.0
C463 C 0.83871 0.13986 0.86408 0.0
H464 H 0.90785 0.19419 0.88101 0.0
H465 H 0.88999 0.173 0.86524 0.0
H466 H 0.87435 0.20107 0.89983 0.0
H467 H 0.85655 0.17967 0.88434 0.0
H468 H 0.88725 0.20714 0.82613 0.0
H469 H 0.86847 0.18819 0.84304 0.0
H470 H 0.90119 0.17756 0.81064 0.0
H471 H 0.88183 0.15842 0.82712 0.0
H472 H 0.79221 0.11141 0.82983 0.0
H473 H 0.81127 0.12954 0.8475 0.0
H474 H 0.82305 0.10419 0.80376 0.0
H475 H 0.84199 0.1218 0.8222 0.0
H476 H 0.80767 0.09301 0.88245 0.0
H477 H 0.82763 0.11054 0.86533 0.0
H478 H 0.80252 0.12762 0.90267 0.0
H479 H 0.82274 0.14507 0.88592 0.0
N480 N 0.84932 0.15183 0.87194 0.0
N481 N 0.85165 0.14863 0.83861 0.0
C482 C 0.80314 0.69602 0.88395 0.0
C483 C 0.79455 0.68281 0.89213 0.0
C484 C 0.81538 0.69854 0.87519 0.0
C485 C 0.81926 0.68793 0.87459 0.0
C486 C 0.79858 0.67231 0.89169 0.0
C487 C 0.81091 0.67491 0.88312 0.0
C488 C 0.8319 0.69019 0.865 0.0
C489 C 0.79834 0.68295 0.82803 0.0
C490 C 0.80166 0.69533 0.81884 0.0
C491 C 0.80881 0.68253 0.83748 0.0
C492 C 0.82285 0.69451 0.83806 0.0
C493 C 0.81582 0.70725 0.81922 0.0
C494 C 0.82635 0.70679 0.82868 0.0
C495 C 0.83389 0.69387 0.84799 0.0
C496 C 0.87684 0.67881 0.82613 0.0
C497 C 0.88671 0.6909 0.81691 0.0
C498 C 0.86679 0.67956 0.83637 0.0
C499 C 0.86637 0.69239 0.83746 0.0
C500 C 0.88634 0.70376 0.8181 0.0
C501 C 0.87611 0.70444 0.82815 0.0
C502 C 0.85533 0.69293 0.84777 0.0
C503 C 0.88767 0.69359 0.88268 0.0
C504 C 0.88218 0.68217 0.89413 0.0
C505 C 0.87842 0.69605 0.87319 0.0
C506 C 0.86348 0.68693 0.87462 0.0
C507 C 0.86721 0.67325 0.89577 0.0
C508 C 0.85799 0.67561 0.88612 0.0
C509 C 0.85344 0.68944 0.86487 0.0
H510 H 0.80025 0.70427 0.8841 0.0
H511 H 0.8218 0.70875 0.86887 0.0
H512 H 0.79225 0.66212 0.89807 0.0
H513 H 0.81376 0.66662 0.88287 0.0
H514 H 0.78768 0.67341 0.82766 0.0
H515 H 0.80597 0.67276 0.84421 0.0
H516 H 0.81874 0.71696 0.81233 0.0
H517 H 0.83717 0.71609 0.82884 0.0
H518 H 0.87694 0.66878 0.82544 0.0
H519 H 0.8592 0.67007 0.84328 0.0
H520 H 0.89376 0.71318 0.81097 0.0
H521 H 0.87585 0.71437 0.82874 0.0
H522 H 0.89912 0.70064 0.88099 0.0
H523 H 0.88301 0.7052 0.8649 0.0
H524 H 0.86257 0.66457 0.9047 0.0
H525 H 0.84651 0.66854 0.88766 0.0
N526 N 0.84172 0.68811 0.87277 0.0
N527 N 0.84555 0.69513 0.84 0.0
C528 C 0.77919 0.64271 0.46366 0.0
C529 C 0.78441 0.65566 0.45474 0.0
C530 C 0.78848 0.64029 0.47312 0.0
C531 C 0.80318 0.65074 0.47379 0.0
C532 C 0.79917 0.66603 0.45542 0.0
C533 C 0.80846 0.66352 0.4647 0.0
C534 C 0.81319 0.64842 0.48371 0.0
C535 C 0.78618 0.65603 0.52012 0.0
C536 C 0.77822 0.64471 0.53132 0.0
C537 C 0.79678 0.65607 0.51014 0.0
C538 C 0.79944 0.6446 0.51081 0.0
C539 C 0.781 0.6333 0.53209 0.0
C540 C 0.79154 0.63329 0.52196 0.0
C541 C 0.81111 0.6449 0.5008 0.0
C542 C 0.8685 0.65608 0.52114 0.0
C543 C 0.8654 0.64379 0.53039 0.0
C544 C 0.85791 0.65623 0.51164 0.0
C545 C 0.84395 0.64412 0.51113 0.0
C546 C 0.85131 0.63173 0.53007 0.0
C547 C 0.84065 0.63194 0.52061 0.0
C548 C 0.83283 0.64446 0.50102 0.0
C549 C 0.86278 0.64081 0.46521 0.0
C550 C 0.87155 0.65377 0.45665 0.0
C551 C 0.85082 0.63887 0.4741 0.0
C552 C 0.84738 0.64981 0.47447 0.0
C553 C 0.86801 0.66464 0.45692 0.0
C554 C 0.85594 0.66261 0.46562 0.0
C555 C 0.83487 0.64798 0.48398 0.0
H556 H 0.76795 0.63435 0.46318 0.0
H557 H 0.78423 0.63022 0.4798 0.0
H558 H 0.80358 0.67622 0.44899 0.0
H559 H 0.81977 0.67171 0.46506 0.0
H560 H 0.78427 0.66494 0.51909 0.0
H561 H 0.80306 0.66522 0.50211 0.0
H562 H 0.77528 0.62455 0.54078 0.0
H563 H 0.79357 0.62446 0.52291 0.0
H564 H 0.87908 0.66573 0.52144 0.0
H565 H 0.8606 0.66591 0.50479 0.0
H566 H 0.84855 0.62206 0.53698 0.0
H567 H 0.8299 0.62253 0.52047 0.0
H568 H 0.86531 0.63229 0.4652 0.0
H569 H 0.84422 0.62882 0.48066 0.0
H570 H 0.87452 0.67465 0.45027 0.0
H571 H 0.85341 0.67113 0.46568 0.0
N572 N 0.82504 0.64991 0.47599 0.0
N573 N 0.82099 0.64297 0.5088 0.0
C574 C 0.34357 0.21328 0.46542 0.0
C575 C 0.35388 0.22239 0.45376 0.0
C576 C 0.34605 0.20428 0.47538 0.0
C577 C 0.35891 0.20422 0.47394 0.0
C578 C 0.36667 0.22215 0.45213 0.0
C579 C 0.3691 0.21302 0.46204 0.0
C580 C 0.36148 0.19475 0.4847 0.0
C581 C 0.36517 0.23076 0.5174 0.0
C582 C 0.35428 0.22619 0.52946 0.0
C583 C 0.36708 0.22062 0.50845 0.0
C584 C 0.3581 0.20572 0.51137 0.0
C585 C 0.34535 0.21127 0.53238 0.0
C586 C 0.34731 0.20115 0.52349 0.0
C587 C 0.36011 0.19484 0.50221 0.0
C588 C 0.37045 0.14705 0.52341 0.0
C589 C 0.3587 0.13966 0.53425 0.0
C590 C 0.37177 0.15831 0.51358 0.0
C591 C 0.36136 0.16237 0.51446 0.0
C592 C 0.34853 0.14401 0.53537 0.0
C593 C 0.3499 0.1553 0.52566 0.0
C594 C 0.36216 0.17387 0.50379 0.0
C595 C 0.35204 0.13653 0.46943 0.0
C596 C 0.36354 0.13923 0.45893 0.0
C597 C 0.35226 0.14783 0.47846 0.0
C598 C 0.36399 0.16203 0.47718 0.0
C599 C 0.37536 0.15343 0.45775 0.0
C600 C 0.3755 0.1648 0.46669 0.0
C601 C 0.36387 0.17397 0.48633 0.0
H602 H 0.33367 0.21329 0.46705 0.0
H603 H 0.33791 0.19735 0.48425 0.0
H604 H 0.37473 0.22894 0.44311 0.0
H605 H 0.37902 0.21301 0.46062 0.0
H606 H 0.3722 0.24218 0.51486 0.0
H607 H 0.37568 0.22443 0.4994 0.0
H608 H 0.33703 0.20743 0.54179 0.0
H609 H 0.34032 0.18972 0.52602 0.0
H610 H 0.37846 0.14393 0.52231 0.0
H611 H 0.38087 0.16381 0.50526 0.0
H612 H 0.3395 0.13869 0.54381 0.0
H613 H 0.34181 0.15831 0.52664 0.0
H614 H 0.34284 0.12567 0.4706 0.0
H615 H 0.34318 0.14551 0.4863 0.0
H616 H 0.38428 0.15579 0.44961 0.0
H617 H 0.38458 0.17572 0.46546 0.0
N618 N 0.36346 0.1844 0.4774 0.0
N619 N 0.36035 0.18431 0.51106 0.0
C620 C 0.78368 0.13526 0.46544 0.0
C621 C 0.77492 0.13669 0.45381 0.0
C622 C 0.79399 0.14732 0.4744 0.0
C623 C 0.79572 0.16102 0.47189 0.0
C624 C 0.7768 0.15046 0.45114 0.0
C625 C 0.78726 0.16258 0.46 0.0
C626 C 0.80642 0.17363 0.48173 0.0
C627 C 0.7697 0.14457 0.5149 0.0
C628 C 0.77352 0.13972 0.52895 0.0
C629 C 0.78025 0.15596 0.50549 0.0
C630 C 0.79486 0.16227 0.50959 0.0
C631 C 0.788 0.14647 0.53354 0.0
C632 C 0.79857 0.15759 0.52391 0.0
C633 C 0.80641 0.17384 0.49934 0.0
C634 C 0.86053 0.23127 0.51596 0.0
C635 C 0.86465 0.22639 0.52973 0.0
C636 C 0.84894 0.22143 0.50607 0.0
C637 C 0.84164 0.20649 0.50947 0.0
C638 C 0.85719 0.21157 0.53336 0.0
C639 C 0.84585 0.20171 0.52329 0.0
C640 C 0.82934 0.19568 0.49926 0.0
C641 C 0.86662 0.21716 0.46397 0.0
C642 C 0.86522 0.22631 0.45283 0.0
C643 C 0.85486 0.20713 0.4733 0.0
C644 C 0.84151 0.20608 0.47164 0.0
C645 C 0.8518 0.22513 0.45108 0.0
C646 C 0.83999 0.21497 0.46029 0.0
C647 C 0.82914 0.19562 0.48166 0.0
H648 H 0.7824 0.12477 0.46781 0.0
H649 H 0.80056 0.14594 0.48338 0.0
H650 H 0.77028 0.15186 0.44211 0.0
H651 H 0.78856 0.17311 0.45782 0.0
H652 H 0.75854 0.13963 0.5113 0.0
H653 H 0.77696 0.15977 0.49502 0.0
H654 H 0.79117 0.14287 0.54434 0.0
H655 H 0.8097 0.16233 0.52751 0.0
H656 H 0.86601 0.24272 0.51316 0.0
H657 H 0.84559 0.22555 0.49595 0.0
H658 H 0.86019 0.20761 0.54398 0.0
H659 H 0.84038 0.1903 0.52629 0.0
H660 H 0.87686 0.21789 0.46561 0.0
H661 H 0.85619 0.20022 0.48185 0.0
H662 H 0.8504 0.23193 0.44243 0.0
H663 H 0.82972 0.2142 0.45877 0.0
N664 N 0.81769 0.18461 0.47355 0.0
N665 N 0.81793 0.1848 0.50735 0.0
C666 C 0.9823 0.53201 0.1571 0.0
C667 C 0.99078 0.53745 0.14277 0.0
C668 C 0.98353 0.52222 0.16716 0.0
C669 C 0.9937 0.51818 0.16344 0.0
C670 C 0.00042 0.5329 0.13854 0.0
C671 C 0.00192 0.52339 0.14882 0.0
C672 C 0.99558 0.50825 0.17435 0.0
C673 C 0.00624 0.54694 0.20681 0.0
C674 C 0.99586 0.54399 0.21913 0.0
C675 C 0.00611 0.53562 0.19788 0.0
C676 C 0.99561 0.52116 0.20115 0.0
C677 C 0.98536 0.52951 0.22239 0.0
C678 C 0.98534 0.51818 0.21358 0.0
C679 C 0.99558 0.50915 0.19196 0.0
C680 C 0.01308 0.46711 0.21278 0.0
C681 C 0.00269 0.45909 0.22492 0.0
C682 C 0.01154 0.47663 0.20257 0.0
C683 C 0.99958 0.47828 0.2043 0.0
C684 C 0.99083 0.46092 0.22677 0.0
C685 C 0.98936 0.47053 0.21664 0.0
C686 C 0.99791 0.48836 0.19358 0.0
C687 C 0.98911 0.45067 0.15999 0.0
C688 C 0.00121 0.454 0.15016 0.0
C689 C 0.9882 0.46161 0.16849 0.0
C690 C 0.99924 0.47611 0.16712 0.0
C691 C 0.01232 0.46862 0.14901 0.0
C692 C 0.01123 0.47958 0.15723 0.0
C693 C 0.99828 0.48766 0.17606 0.0
H694 H 0.97463 0.53523 0.16041 0.0
H695 H 0.9765 0.51783 0.17783 0.0
H696 H 0.00702 0.53697 0.12747 0.0
H697 H 0.00967 0.52028 0.1455 0.0
H698 H 0.01443 0.55801 0.20405 0.0
H699 H 0.01427 0.53813 0.1885 0.0
H700 H 0.97736 0.52695 0.23198 0.0
H701 H 0.97723 0.50708 0.21637 0.0
H702 H 0.0223 0.46589 0.21102 0.0
H703 H 0.01975 0.48276 0.19338 0.0
H704 H 0.98275 0.45503 0.23617 0.0
H705 H 0.98014 0.47178 0.21829 0.0
H706 H 0.98017 0.43966 0.16092 0.0
H707 H 0.9788 0.45878 0.17599 0.0
H708 H 0.02194 0.47164 0.14189 0.0
H709 H 0.01989 0.49074 0.15614 0.0
N710 N 0.99709 0.49759 0.16707 0.0
N711 N 0.99656 0.49907 0.20091 0.0
C712 C 0.47809 0.43835 0.16082 0.0
C713 C 0.47335 0.44345 0.14779 0.0
C714 C 0.48911 0.44811 0.17141 0.0
C715 C 0.49543 0.46313 0.16928 0.0
C716 C 0.4797 0.45848 0.14575 0.0
C717 C 0.49067 0.4682 0.15633 0.0
C718 C 0.50732 0.47374 0.18002 0.0
C719 C 0.46855 0.45129 0.21275 0.0
C720 C 0.46948 0.44225 0.22448 0.0
C721 C 0.48071 0.46141 0.20405 0.0
C722 C 0.49403 0.46264 0.20686 0.0
C723 C 0.48287 0.44361 0.22741 0.0
C724 C 0.49508 0.45383 0.21877 0.0
C725 C 0.50687 0.47332 0.19758 0.0
C726 C 0.5524 0.533 0.21659 0.0
C727 C 0.56042 0.53097 0.22872 0.0
C728 C 0.54238 0.52133 0.2069 0.0
C729 C 0.5402 0.50742 0.20915 0.0
C730 C 0.55812 0.51699 0.23109 0.0
C731 C 0.54795 0.50526 0.22148 0.0
C732 C 0.5297 0.49517 0.19871 0.0
C733 C 0.56771 0.52437 0.167 0.0
C734 C 0.56448 0.52953 0.15274 0.0
C735 C 0.55672 0.51307 0.17609 0.0
C736 C 0.54228 0.50713 0.17144 0.0
C737 C 0.55015 0.52322 0.14768 0.0
C738 C 0.53916 0.51218 0.15697 0.0
C739 C 0.53029 0.49545 0.18111 0.0
H740 H 0.47355 0.42683 0.16254 0.0
H741 H 0.49284 0.44393 0.18107 0.0
H742 H 0.47616 0.46276 0.13598 0.0
H743 H 0.49538 0.47974 0.15445 0.0
H744 H 0.45838 0.45045 0.21017 0.0
H745 H 0.47972 0.46829 0.19513 0.0
H746 H 0.48393 0.43691 0.23653 0.0
H747 H 0.5053 0.45474 0.22122 0.0
H748 H 0.55401 0.54366 0.21446 0.0
H749 H 0.53635 0.52316 0.1976 0.0
H750 H 0.56406 0.51513 0.24048 0.0
H751 H 0.54629 0.49456 0.22348 0.0
H752 H 0.57873 0.52898 0.17097 0.0
H753 H 0.55956 0.50898 0.18669 0.0
H754 H 0.54742 0.52707 0.13674 0.0
H755 H 0.52817 0.50773 0.15296 0.0
N756 N 0.519 0.48476 0.17251 0.0
N757 N 0.5181 0.48404 0.2063 0.0
C758 C 0.45978 0.00611 0.21443 0.0
C759 C 0.4527 0.99498 0.22611 0.0
C760 C 0.4708 0.00692 0.20452 0.0
C761 C 0.47471 0.99638 0.2057 0.0
C762 C 0.45693 0.98468 0.22758 0.0
C763 C 0.46781 0.98538 0.21749 0.0
C764 C 0.4864 0.99709 0.1953 0.0
C765 C 0.45214 0.99122 0.15995 0.0
C766 C 0.45629 0.00231 0.14826 0.0
C767 C 0.46239 0.99045 0.16952 0.0
C768 C 0.47701 0.00101 0.16804 0.0
C769 C 0.47098 0.01268 0.14653 0.0
C770 C 0.48121 0.01202 0.1563 0.0
C771 C 0.48799 0.00025 0.17807 0.0
C772 C 0.53536 0.991 0.15626 0.0
C773 C 0.5451 0.00421 0.14862 0.0
C774 C 0.52402 0.98974 0.16593 0.0
C775 C 0.52206 0.00159 0.16797 0.0
C776 C 0.54311 0.0161 0.15091 0.0
C777 C 0.5316 0.01473 0.16031 0.0
C778 C 0.50993 0.00022 0.17786 0.0
C779 C 0.54287 0.00459 0.21474 0.0
C780 C 0.53855 0.99176 0.22353 0.0
C781 C 0.53302 0.0061 0.20525 0.0
C782 C 0.51864 0.99485 0.2044 0.0
C783 C 0.52409 0.9805 0.22261 0.0
C784 C 0.51421 0.9821 0.21326 0.0
C785 C 0.50807 0.99657 0.19483 0.0
H786 H 0.45678 0.01419 0.21282 0.0
H787 H 0.47627 0.01584 0.19596 0.0
H788 H 0.45198 0.97615 0.23669 0.0
H789 H 0.4708 0.97726 0.21886 0.0
H790 H 0.44095 0.98311 0.16179 0.0
H791 H 0.45885 0.98154 0.17805 0.0
H792 H 0.47462 0.0212 0.13744 0.0
H793 H 0.49244 0.02015 0.15471 0.0
H794 H 0.53629 0.9815 0.15455 0.0
H795 H 0.51663 0.97944 0.17159 0.0
H796 H 0.5505 0.02653 0.14556 0.0
H797 H 0.53026 0.024 0.16181 0.0
H798 H 0.55381 0.01363 0.21544 0.0
H799 H 0.53659 0.01618 0.19882 0.0
H800 H 0.52039 0.97039 0.22901 0.0
H801 H 0.50313 0.97332 0.2128 0.0
N802 N 0.49642 0.99518 0.20293 0.0
N803 N 0.49982 0.00188 0.17008 0.0
C804 C 0.55248 0.01749 0.80603 0.0
C805 C 0.55023 0.00762 0.79306 0.0
C806 C 0.5409 0.01613 0.81526 0.0
C807 C 0.52687 0.00488 0.81164 0.0
C808 C 0.53617 0.9964 0.78943 0.0
C809 C 0.52457 0.99514 0.79855 0.0
C810 C 0.51454 0.00368 0.821 0.0
C811 C 0.53834 0.9913 0.85603 0.0
C812 C 0.54509 0.00142 0.86908 0.0
C813 C 0.52812 0.99182 0.84608 0.0
C814 C 0.52445 0.00244 0.84904 0.0
C815 C 0.5412 0.01187 0.87216 0.0
C816 C 0.53089 0.01229 0.86233 0.0
C817 C 0.51374 0.00321 0.83856 0.0
C818 C 0.45424 0.99173 0.85194 0.0
C819 C 0.45692 0.00103 0.86571 0.0
C820 C 0.4656 0.99257 0.8427 0.0
C821 C 0.47986 0.0028 0.84697 0.0
C822 C 0.47121 0.01119 0.87002 0.0
C823 C 0.48257 0.01199 0.86079 0.0
C824 C 0.49199 0.00356 0.83753 0.0
C825 C 0.47027 0.01842 0.80259 0.0
C826 C 0.46332 0.00875 0.78922 0.0
C827 C 0.47983 0.0169 0.81265 0.0
C828 C 0.48261 0.00568 0.80951 0.0
C829 C 0.46627 0.99764 0.786 0.0
C830 C 0.47593 0.9962 0.79597 0.0
C831 C 0.49285 0.0041 0.81997 0.0
H832 H 0.56321 0.0262 0.80912 0.0
H833 H 0.54288 0.02395 0.8251 0.0
H834 H 0.53413 0.98874 0.77937 0.0
H835 H 0.51381 0.98649 0.79546 0.0
H836 H 0.54113 0.98314 0.85336 0.0
H837 H 0.52305 0.98391 0.8361 0.0
H838 H 0.54608 0.01967 0.88228 0.0
H839 H 0.52812 0.02048 0.86493 0.0
H840 H 0.44336 0.98382 0.84828 0.0
H841 H 0.46323 0.9851 0.83234 0.0
H842 H 0.47363 0.01834 0.88072 0.0
H843 H 0.49348 0.01985 0.86442 0.0
H844 H 0.46817 0.02705 0.8054 0.0
H845 H 0.4851 0.02453 0.82283 0.0
H846 H 0.46121 0.99015 0.77565 0.0
H847 H 0.47807 0.98758 0.79323 0.0
N848 N 0.50404 0.00403 0.81235 0.0
N849 N 0.50253 0.00325 0.84617 0.0
C850 C 0.98867 0.5348 0.80139 0.0
C851 C 0.99899 0.54321 0.78936 0.0
C852 C 0.99053 0.52536 0.81136 0.0
C853 C 0.00273 0.52414 0.80948 0.0
C854 C 0.01109 0.54179 0.78732 0.0
C855 C 0.01287 0.53223 0.79719 0.0
C856 C 0.00473 0.5142 0.8201 0.0
C857 C 0.01199 0.55119 0.85373 0.0
C858 C 0.00172 0.54737 0.86644 0.0
C859 C 0.0125 0.54049 0.84416 0.0
C860 C 0.0027 0.52575 0.84705 0.0
C861 C 0.99183 0.53258 0.86918 0.0
C862 C 0.9924 0.52189 0.85967 0.0
C863 C 0.00367 0.51434 0.83764 0.0
C864 C 0.01734 0.46894 0.85825 0.0
C865 C 0.00649 0.4616 0.87018 0.0
C866 C 0.01725 0.47935 0.8481 0.0
C867 C 0.00626 0.48254 0.84962 0.0
C868 C 0.99569 0.46507 0.8719 0.0
C869 C 0.99563 0.47548 0.86178 0.0
C870 C 0.00587 0.49343 0.83892 0.0
C871 C 0.99804 0.45655 0.80484 0.0
C872 C 0.00942 0.46016 0.79371 0.0
C873 C 0.99738 0.46736 0.81394 0.0
C874 C 0.00808 0.48198 0.81208 0.0
C875 C 0.02015 0.4748 0.7919 0.0
C876 C 0.01939 0.48564 0.8009 0.0
C877 C 0.00722 0.49346 0.82141 0.0
H878 H 0.97928 0.53571 0.8033 0.0
H879 H 0.9824 0.519 0.82053 0.0
H880 H 0.01912 0.54801 0.778 0.0
H881 H 0.02228 0.53132 0.79543 0.0
H882 H 0.01995 0.56244 0.85149 0.0
H883 H 0.02079 0.54374 0.83478 0.0
H884 H 0.98366 0.52924 0.87872 0.0
H885 H 0.98477 0.51058 0.86214 0.0
H886 H 0.02579 0.46651 0.85661 0.0
H887 H 0.02579 0.48492 0.8391 0.0
H888 H 0.98733 0.45982 0.88118 0.0
H889 H 0.98714 0.47789 0.86332 0.0
H890 H 0.98966 0.44534 0.8065 0.0
H891 H 0.98842 0.46432 0.82231 0.0
H892 H 0.02893 0.47788 0.78325 0.0
H893 H 0.02768 0.49688 0.79921 0.0
N894 N 0.00661 0.50385 0.81264 0.0
N895 N 0.00414 0.50387 0.84636 0.0
C896 C 0.52611 0.56673 0.80291 0.0
C897 C 0.53232 0.56186 0.79099 0.0
C898 C 0.51369 0.55685 0.81145 0.0
C899 C 0.50739 0.54186 0.80857 0.0
C900 C 0.52565 0.54686 0.78769 0.0
C901 C 0.51335 0.537 0.79639 0.0
C902 C 0.49446 0.53116 0.81785 0.0
C903 C 0.5285 0.55318 0.85731 0.0
C904 C 0.52633 0.56248 0.86784 0.0
C905 C 0.5177 0.5435 0.84649 0.0
C906 C 0.50449 0.54286 0.84604 0.0
C907 C 0.51307 0.56187 0.86719 0.0
C908 C 0.5022 0.55202 0.85654 0.0
C909 C 0.49282 0.53213 0.83523 0.0
C910 C 0.44546 0.47369 0.8527 0.0
C911 C 0.43625 0.47628 0.86265 0.0
C912 C 0.45623 0.48473 0.84321 0.0
C913 C 0.4581 0.49864 0.84352 0.0
C914 C 0.43813 0.49027 0.86281 0.0
C915 C 0.44907 0.50139 0.85346 0.0
C916 C 0.46997 0.51041 0.83406 0.0
C917 C 0.43598 0.48142 0.79775 0.0
C918 C 0.43991 0.47302 0.78798 0.0
C919 C 0.44628 0.49336 0.80693 0.0
C920 C 0.46072 0.49715 0.80651 0.0
C921 C 0.45445 0.47704 0.7874 0.0
C922 C 0.46476 0.48906 0.79646 0.0
C923 C 0.47161 0.50935 0.81674 0.0
H924 H 0.53093 0.57816 0.80584 0.0
H925 H 0.50903 0.56098 0.82029 0.0
H926 H 0.52987 0.54271 0.77829 0.0
H927 H 0.50858 0.52552 0.79372 0.0
H928 H 0.53841 0.55308 0.85768 0.0
H929 H 0.51955 0.53629 0.8387 0.0
H930 H 0.51107 0.569 0.87489 0.0
H931 H 0.49203 0.55163 0.85638 0.0
H932 H 0.44465 0.46322 0.85255 0.0
H933 H 0.46332 0.48248 0.8359 0.0
H934 H 0.43116 0.49265 0.87015 0.0
H935 H 0.45042 0.5121 0.85389 0.0
H936 H 0.42495 0.47886 0.79822 0.0
H937 H 0.44298 0.49965 0.81436 0.0
H938 H 0.45787 0.47072 0.78023 0.0
H939 H 0.47585 0.4918 0.79599 0.0
N940 N 0.4838 0.51972 0.80929 0.0
N941 N 0.48061 0.52177 0.84267 0.0
C942 C 0.65562 0.78732 0.49757 0.0
C943 C 0.64522 0.77906 0.4854 0.0
C944 C 0.65427 0.79731 0.5076 0.0
C945 C 0.6424 0.79906 0.50584 0.0
C946 C 0.63349 0.78105 0.48351 0.0
C947 C 0.63213 0.79098 0.49359 0.0
C948 C 0.64089 0.80977 0.51607 0.0
C949 C 0.63929 0.77655 0.55036 0.0
C950 C 0.6501 0.78221 0.5626 0.0
C951 C 0.63643 0.78573 0.54121 0.0
C952 C 0.64458 0.80082 0.54375 0.0
C953 C 0.65779 0.79729 0.5656 0.0
C954 C 0.65505 0.80647 0.55628 0.0
C955 C 0.64221 0.81082 0.53363 0.0
C956 C 0.6254 0.8551 0.55037 0.0
C957 C 0.63613 0.86382 0.562 0.0
C958 C 0.62616 0.84432 0.54126 0.0
C959 C 0.63771 0.84213 0.54353 0.0
C960 C 0.6475 0.86134 0.56448 0.0
C961 C 0.64821 0.85053 0.55542 0.0
C962 C 0.63898 0.83117 0.53355 0.0
C963 C 0.64635 0.86623 0.49802 0.0
C964 C 0.63676 0.86169 0.48455 0.0
C965 C 0.6466 0.85606 0.5084 0.0
C966 C 0.63706 0.84115 0.50575 0.0
C967 C 0.62724 0.84677 0.48187 0.0
C968 C 0.62742 0.8366 0.49235 0.0
C969 C 0.63789 0.83026 0.516 0.0
H970 H 0.66476 0.78603 0.49938 0.0
H971 H 0.66256 0.80373 0.51667 0.0
H972 H 0.62546 0.77512 0.47402 0.0
H973 H 0.623 0.79232 0.49184 0.0
H974 H 0.63317 0.76503 0.5476 0.0
H975 H 0.62793 0.78101 0.53203 0.0
H976 H 0.66593 0.80203 0.5752 0.0
H977 H 0.66131 0.81805 0.5587 0.0
H978 H 0.61636 0.85653 0.54839 0.0
H979 H 0.61774 0.83772 0.53241 0.0
H980 H 0.65606 0.86797 0.57315 0.0
H981 H 0.65719 0.84899 0.55739 0.0
H982 H 0.65404 0.87763 0.50018 0.0
H983 H 0.65455 0.85988 0.5182 0.0
H984 H 0.61971 0.84296 0.47161 0.0
H985 H 0.62008 0.82516 0.48994 0.0
N986 N 0.63873 0.8195 0.50799 0.0
N987 N 0.64125 0.82153 0.54166 0.0
C988 C 0.14066 0.7727 0.50303 0.0
C989 C 0.13428 0.77699 0.49103 0.0
C990 C 0.15253 0.78309 0.51213 0.0
C991 C 0.15814 0.79793 0.50941 0.0
C992 C 0.14017 0.79185 0.4881 0.0
C993 C 0.15203 0.8022 0.49714 0.0
C994 C 0.17024 0.80916 0.51936 0.0
C995 C 0.1322 0.78484 0.55231 0.0
C996 C 0.13448 0.77789 0.56554 0.0
C997 C 0.14381 0.79555 0.54338 0.0
C998 C 0.15789 0.79912 0.54711 0.0
C999 C 0.14858 0.78202 0.5699 0.0
C1000 C 0.1602 0.79254 0.56072 0.0
C1001 C 0.17021 0.80971 0.53695 0.0
C1002 C 0.22011 0.86982 0.55072 0.0
C1003 C 0.22654 0.86729 0.56429 0.0
C1004 C 0.20897 0.85821 0.54199 0.0
C1005 C 0.2044 0.84386 0.54632 0.0
C1006 C 0.22149 0.85295 0.56915 0.0
C1007 C 0.21051 0.84133 0.56021 0.0
C1008 C 0.19316 0.83149 0.53655 0.0
C1009 C 0.23069 0.85792 0.50304 0.0
C1010 C 0.22737 0.86312 0.48889 0.0
C1011 C 0.21971 0.84698 0.51253 0.0
C1012 C 0.20524 0.84155 0.50843 0.0
C1013 C 0.21298 0.8571 0.48423 0.0
C1014 C 0.20202 0.84646 0.49394 0.0
C1015 C 0.19331 0.83073 0.51892 0.0
H1016 H 0.13635 0.76132 0.50554 0.0
H1017 H 0.15724 0.77956 0.52137 0.0
H1018 H 0.13566 0.79548 0.47871 0.0
H1019 H 0.15629 0.8136 0.49476 0.0
H1020 H 0.12143 0.78205 0.54897 0.0
H1021 H 0.14175 0.80092 0.53344 0.0
H1022 H 0.15058 0.77686 0.58013 0.0
H1023 H 0.17097 0.79528 0.56401 0.0
H1024 H 0.22361 0.88078 0.54696 0.0
H1025 H 0.20404 0.86047 0.53172 0.0
H1026 H 0.22625 0.85075 0.57964 0.0
H1027 H 0.20699 0.83035 0.56394 0.0
H1028 H 0.24175 0.86232 0.50671 0.0
H1029 H 0.22255 0.84296 0.52321 0.0
H1030 H 0.2102 0.86098 0.47335 0.0
H1031 H 0.19098 0.84233 0.49034 0.0
N1032 N 0.18175 0.81968 0.51107 0.0
N1033 N 0.18171 0.82082 0.54488 0.0
C1034 C 0.22923 0.36918 0.49869 0.0
C1035 C 0.22643 0.3626 0.48283 0.0
C1036 C 0.21809 0.36859 0.50821 0.0
C1037 C 0.20388 0.3609 0.50228 0.0
C1038 C 0.21237 0.35541 0.47666 0.0
C1039 C 0.2012 0.35451 0.48631 0.0
C1040 C 0.1917 0.35974 0.51216 0.0
C1041 C 0.21142 0.34036 0.54362 0.0
C1042 C 0.21591 0.34672 0.55949 0.0
C1043 C 0.20284 0.34355 0.53387 0.0
C1044 C 0.19906 0.3536 0.53956 0.0
C1045 C 0.21172 0.35634 0.56545 0.0
C1046 C 0.20339 0.35977 0.55555 0.0
C1047 C 0.18983 0.357 0.52947 0.0
C1048 C 0.12972 0.34416 0.54191 0.0
C1049 C 0.13169 0.3512 0.55738 0.0
C1050 C 0.14154 0.34618 0.53263 0.0
C1051 C 0.15557 0.35573 0.53835 0.0
C1052 C 0.14568 0.36038 0.56337 0.0
C1053 C 0.15751 0.36265 0.55392 0.0
C1054 C 0.16826 0.35781 0.52885 0.0
C1055 C 0.14337 0.36996 0.49493 0.0
C1056 C 0.1372 0.35987 0.48174 0.0
C1057 C 0.15432 0.37043 0.50452 0.0
C1058 C 0.15925 0.36087 0.50094 0.0
C1059 C 0.14257 0.35075 0.47784 0.0
C1060 C 0.15356 0.35134 0.48726 0.0
C1061 C 0.16996 0.36022 0.51151 0.0
H1062 H 0.24007 0.37497 0.50356 0.0
H1063 H 0.2206 0.37414 0.52017 0.0
H1064 H 0.20999 0.35027 0.46444 0.0
H1065 H 0.19041 0.34865 0.48132 0.0
H1066 H 0.21432 0.33271 0.5389 0.0
H1067 H 0.1991 0.3381 0.52193 0.0
H1068 H 0.21505 0.36134 0.57768 0.0
H1069 H 0.20039 0.36733 0.56035 0.0
H1070 H 0.11902 0.33679 0.53721 0.0
H1071 H 0.13965 0.3401 0.52112 0.0
H1072 H 0.14744 0.36588 0.57531 0.0
H1073 H 0.1682 0.36985 0.55875 0.0
H1074 H 0.13942 0.37711 0.49814 0.0
H1075 H 0.15874 0.37802 0.51489 0.0
H1076 H 0.13812 0.34303 0.46758 0.0
H1077 H 0.15728 0.34396 0.4842 0.0
N1078 N 0.18158 0.36106 0.50391 0.0
N1079 N 0.17831 0.35638 0.53712 0.0
C1080 C 0.0091 0.37196 0.05108 0.0
C1081 C 0.99685 0.35807 0.04957 0.0
C1082 C 0.0104 0.38115 0.06432 0.0
C1083 C 0.98776 0.38623 0.09553 0.0
H1084 H 0.02476 0.41744 0.11093 0.0
C1085 C 0.9957 0.42821 0.14725 0.0
C1086 C 0.00206 0.44233 0.14085 0.0
C1087 C 0.99575 0.41709 0.13803 0.0
C1088 C 0.01438 0.40869 0.10678 0.0
H1089 H 0.97681 0.34251 0.06126 0.0
H1090 H 0.97941 0.35819 0.08488 0.0
H1091 H 0.02361 0.3988 0.09209 0.0
H1092 H 0.01368 0.45569 0.11965 0.0
H1093 H 0.01434 0.43642 0.10407 0.0
H1094 H 0.97863 0.39611 0.11062 0.0
C1095 C 0.98775 0.36231 0.07549 0.0
C1096 C 0.01368 0.39808 0.09588 0.0
C1097 C 0.98629 0.35324 0.06202 0.0
C1098 C 0.00891 0.4451 0.12522 0.0
C1099 C 0.00924 0.43406 0.1162 0.0
C1100 C 0.98847 0.39665 0.10674 0.0
C1101 C 0.99964 0.37655 0.07659 0.0
C1102 C 0.00037 0.38689 0.08975 0.0
C1103 C 0.00249 0.41995 0.12243 0.0
C1104 C 0.00178 0.40811 0.11214 0.0
H1105 H 0.01737 0.37602 0.0416 0.0
H1106 H 0.0196 0.39207 0.06446 0.0
H1107 H 0.97732 0.37802 0.09093 0.0
H1108 H 0.99062 0.42567 0.15938 0.0
H1109 H 0.99052 0.40625 0.14306 0.0
C1110 C 0.63479 0.62231 0.05202 0.0
C1111 C 0.63744 0.63622 0.0561 0.0
C1112 C 0.62947 0.61147 0.06401 0.0
C1113 C 0.61032 0.60238 0.10472 0.0
H1114 H 0.61624 0.56977 0.10195 0.0
C1115 C 0.58489 0.55514 0.15121 0.0
C1116 C 0.57592 0.54173 0.14328 0.0
C1117 C 0.59459 0.56715 0.14191 0.0
C1118 C 0.61458 0.57887 0.10288 0.0
H1119 H 0.63751 0.65001 0.07613 0.0
H1120 H 0.62898 0.63138 0.09727 0.0
H1121 H 0.62979 0.59042 0.08364 0.0
H1122 H 0.57044 0.53007 0.1197 0.0
H1123 H 0.58774 0.55102 0.10345 0.0
H1124 H 0.59526 0.59081 0.12417 0.0
C1125 C 0.63036 0.62856 0.08468 0.0
C1126 C 0.62224 0.59066 0.09232 0.0
C1127 C 0.63536 0.6393 0.07259 0.0
C1128 C 0.57725 0.54033 0.12605 0.0
C1129 C 0.58716 0.55226 0.1168 0.0
C1130 C 0.60292 0.59074 0.11549 0.0
C1131 C 0.62695 0.61437 0.08046 0.0
C1132 C 0.61998 0.60246 0.09283 0.0
C1133 C 0.59569 0.56583 0.1246 0.0
C1134 C 0.60478 0.57877 0.11445 0.0
H1135 H 0.63621 0.61961 0.03937 0.0
H1136 H 0.62679 0.60067 0.06012 0.0
H1137 H 0.60799 0.61103 0.10534 0.0
H1138 H 0.58396 0.55646 0.16448 0.0
H1139 H 0.60107 0.57753 0.14816 0.0
C1140 C 0.37149 0.00687 0.05085 0.0
C1141 C 0.36038 0.99252 0.04766 0.0
C1142 C 0.38162 0.00991 0.06335 0.0
C1143 C 0.38816 0.99358 0.10037 0.0
H1144 H 0.42836 0.0194 0.08991 0.0
C1145 C 0.43324 0.98991 0.13202 0.0
C1146 C 0.44533 0.00283 0.13773 0.0
C1147 C 0.42284 0.99029 0.12234 0.0
C1148 C 0.41717 0.01232 0.09309 0.0
H1149 H 0.35108 0.97019 0.0555 0.0
H1150 H 0.3687 0.97543 0.07683 0.0
H1151 H 0.40997 0.01731 0.07081 0.0
H1152 H 0.45587 0.02632 0.1376 0.0
H1153 H 0.43785 0.02692 0.12017 0.0
H1154 H 0.39539 0.98812 0.12225 0.0
C1155 C 0.36954 0.98441 0.06994 0.0
C1156 C 0.40662 0.01115 0.0822 0.0
C1157 C 0.35946 0.98138 0.05754 0.0
C1158 C 0.44682 0.01616 0.13326 0.0
C1159 C 0.43648 0.01653 0.12335 0.0
C1160 C 0.39868 0.99464 0.11113 0.0
C1161 C 0.38083 0.99867 0.07294 0.0
C1162 C 0.39199 0.00148 0.08551 0.0
C1163 C 0.42434 0.00358 0.11791 0.0
C1164 C 0.41328 0.00376 0.10741 0.0
H1165 H 0.37252 0.01572 0.04351 0.0
H1166 H 0.39011 0.02104 0.06544 0.0
H1167 H 0.377 0.9863 0.10353 0.0
H1168 H 0.43186 0.97945 0.13481 0.0
H1169 H 0.41372 0.98015 0.11804 0.0
C1170 C 0.35863 0.97568 0.96065 0.0
C1171 C 0.35877 0.98772 0.96801 0.0
C1172 C 0.36839 0.97756 0.94806 0.0
C1173 C 0.40399 0.0046 0.9324 0.0
H1174 H 0.39351 0.97836 0.89443 0.0
C1175 C 0.44509 0.01245 0.8815 0.0
C1176 C 0.44488 -0.0001 0.87582 0.0
C1177 C 0.43401 0.01138 0.89152 0.0
C1178 C 0.39663 0.98571 0.90503 0.0
H1179 H 0.36904 0.01118 0.96742 0.0
H1180 H 0.386 0.0144 0.94544 0.0
H1181 H 0.37501 0.97571 0.91401 0.0
H1182 H 0.43286 0.9764 0.87619 0.0
H1183 H 0.41358 0.97452 0.89376 0.0
H1184 H 0.42562 0.01443 0.92368 0.0
C1185 C 0.37844 0.00352 0.94958 0.0
C1186 C 0.38603 0.9842 0.91623 0.0
C1187 C 0.36865 0.00165 0.96213 0.0
C1188 C 0.43324 0.98626 0.88018 0.0
C1189 C 0.42218 0.98519 0.89023 0.0
C1190 C 0.41459 0.00608 0.92124 0.0
C1191 C 0.37854 0.99152 0.94257 0.0
C1192 C 0.38961 0.99356 0.93012 0.0
C1193 C 0.42248 0.99774 0.89613 0.0
C1194 C 0.41106 0.99658 0.9075 0.0
H1195 H 0.35117 0.96478 0.96482 0.0
H1196 H 0.36828 0.96809 0.94302 0.0
H1197 H 0.40715 0.01185 0.94311 0.0
H1198 H 0.45381 0.02311 0.87814 0.0
H1199 H 0.43446 0.02125 0.89561 0.0
C1200 C 0.01111 0.37629 0.9674 0.0
C1201 C 0.99736 0.36418 0.97023 0.0
C1202 C 0.01303 0.38695 0.95609 0.0
C1203 C 0.99263 0.4016 0.93658 0.0
H1204 H 0.02427 0.4194 0.90528 0.0
C1205 C 0.99336 0.43747 0.88412 0.0
C1206 C 0.00633 0.45035 0.88084 0.0
C1207 C 0.993 0.42711 0.89468 0.0
C1208 C 0.01546 0.41463 0.91408 0.0
H1209 H 0.975 0.35351 0.96273 0.0
H1210 H 0.9784 0.3719 0.94307 0.0
H1211 H 0.02247 0.40101 0.92439 0.0
H1212 H 0.02918 0.46235 0.88591 0.0
H1213 H 0.02856 0.44422 0.90445 0.0
H1214 H 0.98558 0.41513 0.92641 0.0
C1215 C 0.98764 0.37336 0.94983 0.0
C1216 C 0.01444 0.40411 0.92501 0.0
C1217 C 0.98572 0.36276 0.96108 0.0
C1218 C 0.01903 0.45248 0.88808 0.0
C1219 C 0.01867 0.4421 0.8987 0.0
C1220 C 0.99365 0.41208 0.92571 0.0
C1221 C 0.00125 0.3857 0.94741 0.0
C1222 C 0.00289 0.39735 0.93624 0.0
C1223 C 0.00562 0.42937 0.90228 0.0
C1224 C 0.00497 0.4186 0.91419 0.0
H1225 H 0.02032 0.37773 0.97421 0.0
H1226 H 0.02365 0.39636 0.95452 0.0
H1227 H 0.98378 0.39685 0.94534 0.0
H1228 H 0.98344 0.43536 0.87846 0.0
H1229 H 0.98281 0.41728 0.89688 0.0
C1230 C 0.60553 0.63669 0.98114 0.0
C1231 C 0.61994 0.64036 0.98031 0.0
C1232 C 0.59605 0.62884 0.96823 0.0
C1233 C 0.59133 0.60535 0.93148 0.0
H1234 H 0.56131 0.61333 0.92091 0.0
C1235 C 0.55232 0.57903 0.87561 0.0
C1236 C 0.53768 0.57244 0.8798 0.0
C1237 C 0.56293 0.58792 0.88712 0.0
C1238 C 0.56963 0.61099 0.92377 0.0
H1239 H 0.63572 0.63873 0.9652 0.0
H1240 H 0.61926 0.62541 0.94238 0.0
H1241 H 0.579 0.6279 0.94215 0.0
H1242 H 0.52285 0.5701 0.89955 0.0
H1243 H 0.54137 0.58603 0.91929 0.0
H1244 H 0.58199 0.58858 0.91275 0.0
C1245 C 0.61519 0.62829 0.9532 0.0
C1246 C 0.57973 0.61925 0.936 0.0
C1247 C 0.62465 0.63599 0.96626 0.0
C1248 C 0.53396 0.5752 0.8957 0.0
C1249 C 0.54456 0.58426 0.90707 0.0
C1250 C 0.58134 0.59722 0.91905 0.0
C1251 C 0.60076 0.62464 0.95402 0.0
C1252 C 0.59057 0.61639 0.94023 0.0
C1253 C 0.55913 0.59061 0.90294 0.0
C1254 C 0.57028 0.59983 0.91527 0.0
H1255 H 0.60151 0.63974 0.99187 0.0
H1256 H 0.58496 0.62593 0.96953 0.0
H1257 H 0.59939 0.60268 0.93452 0.0
H1258 H 0.55561 0.5774 0.86341 0.0
H1259 H 0.57411 0.59281 0.8836 0.0
C1260 C 0.02382 0.64381 0.9648 0.0
C1261 C 0.01196 0.64438 0.97098 0.0
C1262 C 0.02216 0.63429 0.95177 0.0
C1263 C 0.01659 0.6174 0.91903 0.0
H1264 H 0.98451 0.57803 0.92335 0.0
C1265 C 0.00459 0.572 0.87058 0.0
C1266 C 0.00169 0.55873 0.87724 0.0
C1267 C 0.00513 0.58287 0.88092 0.0
C1268 C 0.99352 0.58897 0.92198 0.0
H1269 H 0.98912 0.63575 0.96773 0.0
H1270 H 0.98629 0.61919 0.94502 0.0
H1271 H 0.98712 0.59671 0.94308 0.0
H1272 H 0.99717 0.54658 0.90007 0.0
H1273 H 0.99791 0.56542 0.91799 0.0
H1274 H 0.02318 0.60952 0.89816 0.0
C1275 C 0.99684 0.626 0.95042 0.0
C1276 C 0.99493 0.59971 0.93317 0.0
C1277 C 0.9985 0.63555 0.9634 0.0
C1278 C 0.99915 0.55653 0.89445 0.0
C1279 C 0.99961 0.56735 0.90474 0.0
C1280 C 0.01512 0.60666 0.90776 0.0
C1281 C 0.0086 0.62509 0.94465 0.0
C1282 C 0.00659 0.614 0.93195 0.0
C1283 C 0.00268 0.58067 0.89812 0.0
C1284 C 0.00368 0.59229 0.90927 0.0
H1285 H 0.03435 0.65045 0.97028 0.0
H1286 H 0.03141 0.63375 0.94768 0.0
H1287 H 0.02562 0.62834 0.9177 0.0
H1288 H 0.00639 0.57398 0.85735 0.0
H1289 H 0.00737 0.59297 0.87544 0.0
C1290 C 0.36535 0.38371 0.96663 0.0
C1291 C 0.3651 0.37085 0.96229 0.0
C1292 C 0.37074 0.39522 0.9555 0.0
C1293 C 0.37861 0.40502 0.91165 0.0
H1294 H 0.41019 0.44149 0.92834 0.0
C1295 C 0.4182 0.45 0.86787 0.0
C1296 C 0.4252 0.46456 0.87329 0.0
C1297 C 0.40896 0.43885 0.87846 0.0
C1298 C 0.40118 0.43153 0.92349 0.0
H1299 H 0.36966 0.35973 0.94261 0.0
H1300 H 0.3788 0.37976 0.92306 0.0
H1301 H 0.3971 0.42137 0.94725 0.0
H1302 H 0.42732 0.47877 0.89401 0.0
H1303 H 0.41061 0.45944 0.91209 0.0
H1304 H 0.38251 0.41513 0.88793 0.0
C1305 C 0.37493 0.38094 0.93512 0.0
C1306 C 0.39373 0.41998 0.93436 0.0
C1307 C 0.36979 0.36952 0.94634 0.0
C1308 C 0.4221 0.46772 0.88931 0.0
C1309 C 0.41266 0.45657 0.89982 0.0
C1310 C 0.38589 0.41666 0.90081 0.0
C1311 C 0.37571 0.39398 0.93972 0.0
C1312 C 0.38256 0.40655 0.92848 0.0
C1313 C 0.40624 0.44196 0.8947 0.0
C1314 C 0.39748 0.43 0.90651 0.0
H1315 H 0.36184 0.38508 0.97883 0.0
H1316 H 0.37118 0.40516 0.9593 0.0
H1317 H 0.36993 0.39478 0.90687 0.0
H1318 H 0.42005 0.44714 0.85549 0.0
H1319 H 0.40437 0.42777 0.87406 0.0
C1320 C 0.62931 0.99528 0.96586 0.0
C1321 C 0.64188 0.00895 0.96775 0.0
C1322 C 0.61886 0.99316 0.95418 0.0
C1323 C 0.60559 0.0141 0.9338 0.0
H1324 H 0.58606 0.9816 0.90298 0.0
C1325 C 0.56907 0.01423 0.88301 0.0
C1326 C 0.55625 0.00124 0.87939 0.0
C1327 C 0.57942 0.01428 0.8932 0.0
C1328 C 0.59128 0.99065 0.91166 0.0
H1329 H 0.65371 0.0308 0.95798 0.0
H1330 H 0.63558 0.02708 0.93784 0.0
H1331 H 0.60435 0.98292 0.92179 0.0
H1332 H 0.5443 0.97805 0.88339 0.0
H1333 H 0.5623 0.97814 0.90153 0.0
H1334 H 0.59251 0.02178 0.92411 0.0
C1335 C 0.63368 0.01809 0.94556 0.0
C1336 C 0.60177 0.9914 0.92238 0.0
C1337 C 0.64409 0.02018 0.9571 0.0
C1338 C 0.55412 0.98822 0.88591 0.0
C1339 C 0.56446 0.98827 0.89626 0.0
C1340 C 0.59508 0.01329 0.92325 0.0
C1341 C 0.62079 0.0047 0.94428 0.0
C1342 C 0.60917 0.00327 0.93336 0.0
C1343 C 0.57717 0.00135 0.90019 0.0
C1344 C 0.58793 0.00169 0.91185 0.0
H1345 H 0.62727 0.98638 0.97383 0.0
H1346 H 0.60901 0.98272 0.95343 0.0
H1347 H 0.61089 0.02321 0.9424 0.0
H1348 H 0.57112 0.02439 0.87789 0.0
H1349 H 0.58923 0.02449 0.89558 0.0
C1350 C 0.63879 0.02539 0.04841 0.0
C1351 C 0.64218 0.0145 0.04625 0.0
C1352 C 0.62915 0.02426 0.06075 0.0
C1353 C 0.60031 0.99737 0.08836 0.0
H1354 H 0.60415 0.03216 0.10875 0.0
C1355 C 0.56388 0.99772 0.14182 0.0
C1356 C 0.55709 0.00552 0.13808 0.0
C1357 C 0.57487 0.99871 0.13166 0.0
C1358 C 0.60298 0.02238 0.10314 0.0
H1359 H 0.6384 0.99404 0.05566 0.0
H1360 H 0.62202 0.99233 0.0777 0.0
H1361 H 0.62267 0.03413 0.08973 0.0
H1362 H 0.55663 0.0204 0.12043 0.0
H1363 H 0.57622 0.02259 0.10328 0.0
H1364 H 0.58072 0.98568 0.10225 0.0
C1365 C 0.62645 0.00155 0.06952 0.0
C1366 C 0.61352 0.02347 0.09214 0.0
C1367 C 0.63592 0.00257 0.05695 0.0
C1368 C 0.56175 0.01448 0.12401 0.0
C1369 C 0.57292 0.01568 0.11408 0.0
C1370 C 0.58991 0.99627 0.09963 0.0
C1371 C 0.62282 0.01233 0.07149 0.0
C1372 C 0.61219 0.01102 0.08431 0.0
C1373 C 0.57951 0.00774 0.11775 0.0
C1374 C 0.59105 0.00879 0.10687 0.0
H1375 H 0.64329 0.03465 0.04025 0.0
H1376 H 0.62642 0.03262 0.06154 0.0
H1377 H 0.59875 0.98755 0.08244 0.0
H1378 H 0.56083 0.99093 0.15269 0.0
H1379 H 0.57988 0.99256 0.13478 0.0
C1380 C 0.99 0.62423 0.04539 0.0
C1381 C 0.00159 0.63816 0.04922 0.0
C1382 C 0.98637 0.61267 0.05605 0.0
C1383 C 0.98825 0.60231 0.09826 0.0
H1384 H 0.99398 0.57247 0.07864 0.0
C1385 C 0.99393 0.56186 0.13894 0.0
C1386 C 0.98977 0.54809 0.13242 0.0
C1387 C 0.9936 0.57222 0.12897 0.0
C1388 C 0.99196 0.58045 0.08432 0.0
H1389 H 0.01789 0.65112 0.06759 0.0
H1390 H 0.01115 0.63098 0.08652 0.0
H1391 H 0.99558 0.59155 0.06123 0.0
H1392 H 0.98156 0.53399 0.11076 0.0
H1393 H 0.98018 0.55172 0.09351 0.0
H1394 H 0.98429 0.59117 0.12127 0.0
C1395 C 0.00507 0.62901 0.07517 0.0
C1396 C 0.99297 0.59143 0.07431 0.0
C1397 C 0.00894 0.64048 0.06433 0.0
C1398 C 0.98492 0.54464 0.11595 0.0
C1399 C 0.98426 0.55487 0.10607 0.0
C1400 C 0.9869 0.59113 0.10824 0.0
C1401 C 0.99401 0.61495 0.0709 0.0
C1402 C 0.99137 0.60258 0.08124 0.0
C1403 C 0.98879 0.5689 0.11235 0.0
C1404 C 0.98903 0.58018 0.10149 0.0
H1405 H 0.98423 0.62212 0.03377 0.0
H1406 H 0.9778 0.60189 0.05255 0.0
H1407 H 0.98693 0.6108 0.10383 0.0
H1408 H 0.99779 0.56473 0.15163 0.0
H1409 H 0.99748 0.58294 0.13423 0.0
C1410 C 0.37715 0.37127 0.04814 0.0
C1411 C 0.37901 0.36142 0.03827 0.0
C1412 C 0.38666 0.37899 0.06114 0.0
C1413 C 0.42365 0.39171 0.07428 0.0
H1414 H 0.41161 0.40053 0.11621 0.0
C1415 C 0.44983 0.42064 0.14173 0.0
C1416 C 0.46213 0.43321 0.13601 0.0
C1417 C 0.43926 0.41114 0.1305 0.0
C1418 C 0.41511 0.39804 0.10462 0.0
H1419 H 0.39198 0.35151 0.03488 0.0
H1420 H 0.40836 0.36481 0.05759 0.0
H1421 H 0.39357 0.38479 0.09569 0.0
H1422 H 0.47311 0.44554 0.11405 0.0
H1423 H 0.45465 0.42916 0.09456 0.0
H1424 H 0.44515 0.40482 0.08317 0.0
C1425 C 0.39975 0.3668 0.05506 0.0
C1426 C 0.4048 0.38916 0.09281 0.0
C1427 C 0.3903 0.35913 0.04206 0.0
C1428 C 0.46368 0.43604 0.11887 0.0
C1429 C 0.45318 0.42656 0.10768 0.0
C1430 C 0.43393 0.40058 0.08604 0.0
C1431 C 0.39819 0.37699 0.06457 0.0
C1432 C 0.40898 0.38597 0.07747 0.0
C1433 C 0.44086 0.41399 0.11334 0.0
C1434 C 0.4298 0.40396 0.10128 0.0
H1435 H 0.36855 0.37329 0.0456 0.0
H1436 H 0.38523 0.38685 0.06816 0.0
H1437 H 0.42725 0.38961 0.06251 0.0
H1438 H 0.44829 0.41823 0.15489 0.0
H1439 H 0.42993 0.40148 0.13522 0.0
C1440 C 0.6412 0.69391 0.37959 0.0
C1441 C 0.65452 0.69718 0.37291 0.0
C1442 C 0.64048 0.70201 0.39291 0.0
C1443 C 0.66207 0.72841 0.42638 0.0
H1444 H 0.63183 0.73744 0.4246 0.0
C1445 C 0.66018 0.77221 0.46782 0.0
C1446 C 0.64673 0.76867 0.47437 0.0
C1447 C 0.66138 0.76283 0.45654 0.0
C1448 C 0.64023 0.73487 0.42538 0.0
H1449 H 0.67757 0.71138 0.37523 0.0
H1450 H 0.67629 0.72579 0.39823 0.0
H1451 H 0.63357 0.72251 0.40274 0.0
H1452 H 0.62411 0.75213 0.47487 0.0
H1453 H 0.62621 0.73592 0.45502 0.0
H1454 H 0.66888 0.74118 0.44891 0.0
C1455 C 0.6664 0.71678 0.39335 0.0
C1456 C 0.64122 0.72628 0.41287 0.0
C1457 C 0.66713 0.70856 0.3801 0.0
C1458 C 0.63459 0.75535 0.46978 0.0
C1459 C 0.63578 0.74603 0.45845 0.0
C1460 C 0.66114 0.73714 0.43887 0.0
C1461 C 0.65304 0.7137 0.39978 0.0
C1462 C 0.65211 0.72288 0.41322 0.0
C1463 C 0.64915 0.74977 0.45153 0.0
C1464 C 0.65017 0.7404 0.43851 0.0
H1465 H 0.63127 0.68509 0.37452 0.0
H1466 H 0.63002 0.6991 0.39779 0.0
H1467 H 0.67048 0.72587 0.42716 0.0
H1468 H 0.66973 0.78245 0.47094 0.0
H1469 H 0.67181 0.76605 0.45129 0.0
C1470 C 0.29963 0.95594 0.38836 0.0
C1471 C 0.30185 0.96975 0.39204 0.0
C1472 C 0.29363 0.945 0.40023 0.0
C1473 C 0.27238 0.93536 0.43959 0.0
H1474 H 0.27976 0.90368 0.43901 0.0
C1475 C 0.24753 0.88878 0.48709 0.0
C1476 C 0.23876 0.87524 0.47932 0.0
C1477 C 0.25711 0.90076 0.47766 0.0
C1478 C 0.27769 0.91252 0.43933 0.0
H1479 H 0.30028 0.98323 0.41127 0.0
H1480 H 0.29057 0.96447 0.43231 0.0
H1481 H 0.29351 0.92431 0.42075 0.0
H1482 H 0.23345 0.86334 0.45592 0.0
H1483 H 0.25062 0.88424 0.43946 0.0
H1484 H 0.25677 0.92359 0.4585 0.0
C1485 C 0.29283 0.96178 0.42005 0.0
C1486 C 0.28545 0.92429 0.42877 0.0
C1487 C 0.2985 0.97261 0.40803 0.0
C1488 C 0.24015 0.87369 0.46214 0.0
C1489 C 0.24996 0.88559 0.45278 0.0
C1490 C 0.26488 0.92376 0.45039 0.0
C1491 C 0.29001 0.94771 0.41622 0.0
C1492 C 0.28271 0.93576 0.4285 0.0
C1493 C 0.25828 0.89928 0.46041 0.0
C1494 C 0.26729 0.91214 0.45014 0.0
H1495 H 0.302 0.95339 0.37607 0.0
H1496 H 0.29142 0.9343 0.3966 0.0
H1497 H 0.26968 0.94375 0.4396 0.0
H1498 H 0.24653 0.89021 0.50032 0.0
H1499 H 0.26343 0.91123 0.48378 0.0
C1500 C 0.0322 0.32287 0.39606 0.0
C1501 C 0.03256 0.33264 0.38435 0.0
C1502 C 0.04332 0.32724 0.40746 0.0
C1503 C 0.07383 0.35808 0.42836 0.0
H1504 H 0.0884 0.33188 0.42965 0.0
C1505 C 0.12517 0.3702 0.46496 0.0
C1506 C 0.12478 0.35825 0.47236 0.0
C1507 C 0.11384 0.36817 0.4548 0.0
C1508 C 0.08436 0.33923 0.42966 0.0
H1509 H 0.0446 0.35498 0.37617 0.0
H1510 H 0.0641 0.36261 0.39628 0.0
H1511 H 0.06866 0.32651 0.4112 0.0
H1512 H 0.11195 0.33506 0.47599 0.0
H1513 H 0.0921 0.33155 0.45874 0.0
H1514 H 0.0895 0.3707 0.44709 0.0
C1515 C 0.05515 0.35154 0.39648 0.0
C1516 C 0.07307 0.33617 0.41902 0.0
C1517 C 0.044 0.34714 0.38494 0.0
C1518 C 0.11263 0.3444 0.47014 0.0
C1519 C 0.1013 0.34241 0.46019 0.0
C1520 C 0.08513 0.36111 0.43918 0.0
C1521 C 0.05508 0.3415 0.40753 0.0
C1522 C 0.06754 0.34542 0.41841 0.0
C1523 C 0.10191 0.35418 0.45201 0.0
C1524 C 0.09037 0.35158 0.44012 0.0
H1525 H 0.02351 0.31167 0.39617 0.0
H1526 H 0.04286 0.31934 0.41604 0.0
H1527 H 0.06976 0.36539 0.4281 0.0
H1528 H 0.13445 0.38098 0.46651 0.0
H1529 H 0.11467 0.37747 0.44867 0.0
C1530 C 0.03063 0.30699 0.3049 0.0
C1531 C 0.02758 0.31818 0.30613 0.0
C1532 C 0.03869 0.30639 0.29165 0.0
C1533 C 0.06411 0.32877 0.25845 0.0
H1534 H 0.05653 0.29115 0.24272 0.0
C1535 C 0.09514 0.32011 0.20425 0.0
C1536 C 0.10176 0.31255 0.20942 0.0
C1537 C 0.08491 0.3207 0.21441 0.0
C1538 C 0.0587 0.30171 0.24696 0.0
H1539 H 0.03052 0.33751 0.29428 0.0
H1540 H 0.04425 0.33621 0.27072 0.0
H1541 H 0.04056 0.29253 0.26319 0.0
H1542 H 0.1028 0.29938 0.22882 0.0
H1543 H 0.08452 0.29997 0.24637 0.0
H1544 H 0.0822 0.33784 0.24188 0.0
C1545 C 0.04067 0.32805 0.28025 0.0
C1546 C 0.04965 0.30254 0.25879 0.0
C1547 C 0.03276 0.32878 0.29372 0.0
C1548 C 0.09777 0.30525 0.22462 0.0
C1549 C 0.08733 0.30556 0.23459 0.0
C1550 C 0.07302 0.32792 0.24636 0.0
C1551 C 0.04374 0.31683 0.27905 0.0
C1552 C 0.05246 0.31607 0.26506 0.0
C1553 C 0.08095 0.31343 0.22967 0.0
C1554 C 0.07057 0.31438 0.24084 0.0
H1555 H 0.02699 0.29876 0.31437 0.0
H1556 H 0.04115 0.29782 0.29148 0.0
H1557 H 0.06672 0.33937 0.26306 0.0
H1558 H 0.09816 0.32587 0.19257 0.0
H1559 H 0.08009 0.32681 0.21039 0.0
C1560 C 0.68407 0.71687 0.2988 0.0
C1561 C 0.67261 0.70297 0.29472 0.0
C1562 C 0.68914 0.72807 0.28727 0.0
C1563 C 0.67748 0.7377 0.24842 0.0
H1564 H 0.7161 0.77116 0.25006 0.0
C1565 C 0.69824 0.78491 0.20216 0.0
C1566 C 0.702 0.7981 0.21017 0.0
C1567 C 0.69642 0.77315 0.21136 0.0
C1568 C 0.70531 0.76183 0.24946 0.0
H1569 H 0.65811 0.68957 0.27507 0.0
H1570 H 0.66751 0.70876 0.25457 0.0
H1571 H 0.70976 0.75033 0.26758 0.0
H1572 H 0.70746 0.80966 0.23381 0.0
H1573 H 0.70473 0.78915 0.24989 0.0
H1574 H 0.67325 0.74919 0.22996 0.0
C1575 C 0.67217 0.71134 0.26691 0.0
C1576 C 0.7016 0.74992 0.25959 0.0
C1577 C 0.66685 0.70025 0.2786 0.0
C1578 C 0.70457 0.79957 0.2274 0.0
C1579 C 0.70307 0.78791 0.23654 0.0
C1580 C 0.68131 0.74945 0.23804 0.0
C1581 C 0.6831 0.72553 0.27121 0.0
C1582 C 0.68754 0.73776 0.25943 0.0
C1583 C 0.69865 0.77451 0.22865 0.0
C1584 C 0.69517 0.76168 0.23866 0.0
H1585 H 0.68863 0.71928 0.31121 0.0
H1586 H 0.6974 0.73882 0.29125 0.0
H1587 H 0.66647 0.72881 0.24813 0.0
H1588 H 0.69608 0.7835 0.1889 0.0
H1589 H 0.69299 0.76289 0.20505 0.0
C1590 C 0.29394 0.96706 0.30425 0.0
C1591 C 0.29144 0.97677 0.31351 0.0
C1592 C 0.28527 0.95943 0.29061 0.0
C1593 C 0.25961 0.95924 0.26051 0.0
H1594 H 0.24516 0.91796 0.25763 0.0
C1595 C 0.21081 0.9197 0.22011 0.0
C1596 C 0.21084 0.90784 0.21255 0.0
C1597 C 0.2219 0.92906 0.23086 0.0
C1598 C 0.24928 0.92952 0.25804 0.0
H1599 H 0.27798 0.98626 0.3154 0.0
H1600 H 0.26288 0.9729 0.29175 0.0
H1601 H 0.26232 0.93252 0.27927 0.0
H1602 H 0.2229 0.89697 0.20949 0.0
H1603 H 0.24234 0.91339 0.22807 0.0
H1604 H 0.24641 0.95619 0.23938 0.0
C1605 C 0.27162 0.97128 0.29495 0.0
C1606 C 0.25911 0.93786 0.27048 0.0
C1607 C 0.28023 0.97886 0.30861 0.0
C1608 C 0.22247 0.90588 0.2154 0.0
C1609 C 0.23358 0.91526 0.22606 0.0
C1610 C 0.24979 0.9509 0.24802 0.0
C1611 C 0.27396 0.9614 0.28588 0.0
C1612 C 0.26426 0.95278 0.27196 0.0
C1613 C 0.23329 0.92679 0.23419 0.0
C1614 C 0.24439 0.9359 0.24676 0.0
H1615 H 0.30251 0.96523 0.30761 0.0
H1616 H 0.28743 0.95199 0.28376 0.0
H1617 H 0.26354 0.97076 0.26121 0.0
H1618 H 0.20193 0.92141 0.21823 0.0
H1619 H 0.22126 0.93774 0.23705 0.0
C1620 C 0.66598 0.9636 0.29814 0.0
C1621 C 0.67894 0.97431 0.30545 0.0
C1622 C 0.66607 0.95556 0.28432 0.0
C1623 C 0.6891 0.95496 0.25045 0.0
H1624 H 0.6643 0.91323 0.25307 0.0
C1625 C 0.69822 0.91488 0.21127 0.0
C1626 C 0.68617 0.90177 0.20602 0.0
C1627 C 0.69658 0.92454 0.22158 0.0
C1628 C 0.67111 0.92487 0.25194 0.0
H1629 H 0.70216 0.98526 0.30354 0.0
H1630 H 0.70226 0.9712 0.27957 0.0
H1631 H 0.66263 0.92871 0.27428 0.0
H1632 H 0.66295 0.88887 0.20657 0.0
H1633 H 0.66005 0.90581 0.22434 0.0
H1634 H 0.69773 0.95109 0.22821 0.0
C1635 C 0.69204 0.96909 0.28446 0.0
C1636 C 0.67015 0.93374 0.26412 0.0
C1637 C 0.69196 0.97707 0.2983 0.0
C1638 C 0.67244 0.89879 0.21069 0.0
C1639 C 0.67079 0.90848 0.22089 0.0
C1640 C 0.69002 0.94608 0.2382 0.0
C1641 C 0.6791 0.95812 0.27746 0.0
C1642 C 0.67928 0.94887 0.26366 0.0
C1643 C 0.68285 0.92133 0.22674 0.0
C1644 C 0.68118 0.93091 0.23894 0.0
H1645 H 0.65575 0.96123 0.30325 0.0
H1646 H 0.65592 0.94727 0.27908 0.0
H1647 H 0.69615 0.9666 0.24965 0.0
H1648 H 0.70894 0.9174 0.20796 0.0
H1649 H 0.70612 0.93425 0.22601 0.0
C1650 C 0.04512 0.70306 0.28762 0.0
C1651 C 0.03585 0.70225 0.30044 0.0
C1652 C 0.04992 0.71385 0.27566 0.0
C1653 C 0.05659 0.7505 0.26941 0.0
H1654 H 0.06287 0.74278 0.22373 0.0
C1655 C 0.08536 0.79597 0.22062 0.0
C1656 C 0.09657 0.79557 0.21225 0.0
C1657 C 0.07549 0.78416 0.23014 0.0
C1658 C 0.06115 0.74509 0.23644 0.0
H1659 H 0.02408 0.71202 0.31046 0.0
H1660 H 0.03251 0.7309 0.28947 0.0
H1661 H 0.04971 0.72263 0.24274 0.0
H1662 H 0.10595 0.78242 0.20666 0.0
H1663 H 0.08878 0.76186 0.22317 0.0
H1664 H 0.06837 0.77301 0.26315 0.0
C1665 C 0.03612 0.7232 0.28881 0.0
C1666 C 0.05365 0.73357 0.24733 0.0
C1667 C 0.03124 0.71234 0.30078 0.0
C1668 C 0.09749 0.78305 0.21313 0.0
C1669 C 0.08757 0.77123 0.22244 0.0
C1670 C 0.06407 0.76204 0.25847 0.0
C1671 C 0.0456 0.72413 0.27618 0.0
C1672 C 0.05166 0.73617 0.26407 0.0
C1673 C 0.07656 0.77171 0.23119 0.0
C1674 C 0.06679 0.75946 0.24202 0.0
H1675 H 0.04887 0.69548 0.28691 0.0
H1676 H 0.0574 0.71439 0.26627 0.0
H1677 H 0.05533 0.75288 0.28226 0.0
H1678 H 0.08445 0.80553 0.22017 0.0
H1679 H 0.06707 0.78479 0.23672 0.0
C1680 C 0.30484 0.33743 0.28158 0.0
C1681 C 0.30225 0.33281 0.29815 0.0
C1682 C 0.29362 0.33186 0.27007 0.0
C1683 C 0.25468 0.30363 0.26402 0.0
H1684 H 0.25687 0.33169 0.23256 0.0
C1685 C 0.20633 0.30106 0.23001 0.0
C1686 C 0.20806 0.30405 0.2129 0.0
C1687 C 0.21768 0.30228 0.23941 0.0
C1688 C 0.25619 0.32368 0.24114 0.0
H1689 H 0.28604 0.31844 0.31562 0.0
H1690 H 0.26629 0.30923 0.29584 0.0
H1691 H 0.27701 0.33825 0.25085 0.0
H1692 H 0.22284 0.3103 0.19211 0.0
H1693 H 0.24279 0.31272 0.20864 0.0
H1694 H 0.23334 0.28943 0.25475 0.0
C1695 C 0.27701 0.3168 0.29146 0.0
C1696 C 0.26779 0.32738 0.2516 0.0
C1697 C 0.28833 0.32212 0.30287 0.0
C1698 C 0.22119 0.30782 0.20525 0.0
C1699 C 0.23261 0.30929 0.2147 0.0
C1700 C 0.24294 0.30004 0.25374 0.0
C1701 C 0.27945 0.32183 0.27496 0.0
C1702 C 0.26723 0.31744 0.26325 0.0
C1703 C 0.23103 0.30676 0.23191 0.0
C1704 C 0.2436 0.31005 0.24224 0.0
H1705 H 0.31553 0.34553 0.27756 0.0
H1706 H 0.29608 0.33566 0.25739 0.0
H1707 H 0.25388 0.29557 0.27259 0.0
H1708 H 0.19629 0.29808 0.23617 0.0
H1709 H 0.21623 0.30036 0.25268 0.0
C1710 C 0.30598 0.36534 0.37456 0.0
C1711 C 0.31014 0.35494 0.37467 0.0
C1712 C 0.29834 0.3666 0.38788 0.0
C1713 C 0.27605 0.34671 0.42444 0.0
H1714 H 0.28111 0.38439 0.43513 0.0
C1715 C 0.24602 0.35716 0.47824 0.0
C1716 C 0.23808 0.36322 0.47256 0.0
C1717 C 0.25618 0.35665 0.46786 0.0
C1718 C 0.27964 0.37382 0.4323 0.0
H1719 H 0.30968 0.3378 0.38901 0.0
H1720 H 0.29673 0.34031 0.41262 0.0
H1721 H 0.2966 0.38246 0.41441 0.0
H1722 H 0.23473 0.3739 0.45199 0.0
H1723 H 0.25283 0.37346 0.43401 0.0
H1724 H 0.25917 0.33822 0.44264 0.0
C1725 C 0.29907 0.34728 0.40201 0.0
C1726 C 0.28842 0.37266 0.42034 0.0
C1727 C 0.30656 0.34587 0.38851 0.0
C1728 C 0.24075 0.36918 0.4566 0.0
C1729 C 0.2511 0.36897 0.44637 0.0
C1730 C 0.26744 0.34793 0.43664 0.0
C1731 C 0.29484 0.35766 0.40186 0.0
C1732 C 0.2865 0.35903 0.4159 0.0
C1733 C 0.25876 0.36252 0.45181 0.0
C1734 C 0.26895 0.36145 0.44039 0.0
H1735 H 0.30839 0.37239 0.36401 0.0
H1736 H 0.29496 0.37445 0.38702 0.0
H1737 H 0.27412 0.33602 0.42128 0.0
H1738 H 0.24404 0.35243 0.4905 0.0
H1739 H 0.26199 0.35165 0.47231 0.0
C1740 C 0.65177 0.9562 0.38726 0.0
C1741 C 0.6665 0.9657 0.38427 0.0
C1742 C 0.64718 0.94469 0.39833 0.0
C1743 C 0.65888 0.92118 0.41566 0.0
H1744 H 0.63002 0.91204 0.44973 0.0
C1745 C 0.6373 0.87019 0.45553 0.0
C1746 C 0.63735 0.87251 0.47281 0.0
C1747 C 0.63922 0.88093 0.44444 0.0
C1748 C 0.63808 0.91448 0.44025 0.0
H1749 H 0.68792 0.9707 0.39101 0.0
H1750 H 0.67988 0.95067 0.41011 0.0
H1751 H 0.63687 0.93249 0.43116 0.0
H1752 H 0.63876 0.88762 0.49199 0.0
H1753 H 0.64215 0.90643 0.47257 0.0
H1754 H 0.66027 0.90336 0.42477 0.0
C1755 C 0.6719 0.95207 0.40381 0.0
C1756 C 0.64192 0.9261 0.42958 0.0
C1757 C 0.67649 0.96361 0.39291 0.0
C1758 C 0.63881 0.88559 0.47874 0.0
C1759 C 0.64062 0.89629 0.46763 0.0
C1760 C 0.65494 0.90951 0.42618 0.0
C1761 C 0.65721 0.94238 0.40647 0.0
C1762 C 0.65251 0.92967 0.41733 0.0
C1763 C 0.64114 0.89418 0.45038 0.0
C1764 C 0.6446 0.9061 0.43868 0.0
H1765 H 0.64378 0.9575 0.38086 0.0
H1766 H 0.63578 0.93735 0.40013 0.0
H1767 H 0.66696 0.92359 0.40621 0.0
H1768 H 0.63631 0.86028 0.45058 0.0
H1769 H 0.63944 0.87895 0.4312 0.0
C1770 C 0.04036 0.70437 0.38856 0.0
C1771 C 0.04386 0.69496 0.38028 0.0
C1772 C 0.04795 0.71215 0.40276 0.0
C1773 C 0.07216 0.71331 0.43571 0.0
H1774 H 0.08679 0.75467 0.43646 0.0
C1775 C 0.12132 0.75383 0.47442 0.0
C1776 C 0.12167 0.76609 0.48132 0.0
C1777 C 0.10996 0.74418 0.46418 0.0
C1778 C 0.08258 0.7431 0.43664 0.0
H1779 H 0.05785 0.68607 0.38079 0.0
H1780 H 0.07105 0.69964 0.40536 0.0
H1781 H 0.07 0.73948 0.41478 0.0
H1782 H 0.11002 0.77744 0.4837 0.0
H1783 H 0.09012 0.76054 0.46591 0.0
H1784 H 0.08497 0.71698 0.45738 0.0
C1785 C 0.06238 0.70094 0.40097 0.0
C1786 C 0.07296 0.73439 0.4242 0.0
C1787 C 0.05488 0.69325 0.38677 0.0
C1788 C 0.11016 0.76822 0.47829 0.0
C1789 C 0.09877 0.75855 0.46811 0.0
C1790 C 0.08175 0.72201 0.44818 0.0
C1791 C 0.05911 0.71058 0.40904 0.0
C1792 C 0.06789 0.71946 0.42339 0.0
C1793 C 0.09866 0.74655 0.4607 0.0
C1794 C 0.08731 0.73705 0.44858 0.0
H1795 H 0.0319 0.70591 0.38394 0.0
H1796 H 0.04514 0.71944 0.4088 0.0
H1797 H 0.06824 0.70179 0.43556 0.0
H1798 H 0.1301 0.75199 0.47641 0.0
H1799 H 0.11031 0.73516 0.45849 0.0
C1800 C 0.33063 0.03457 0.72344 0.0
C1801 C 0.31966 0.0285 0.71145 0.0
C1802 C 0.32969 0.04219 0.73723 0.0
C1803 C 0.30338 0.04845 0.76059 0.0
H1804 H 0.33741 0.08345 0.77622 0.0
C1805 C 0.30222 0.0944 0.79689 0.0
C1806 C 0.31039 0.09954 0.81159 0.0
C1807 C 0.30332 0.08456 0.78638 0.0
C1808 C 0.32787 0.07359 0.77209 0.0
H1809 H 0.29924 0.02595 0.70437 0.0
H1810 H 0.29785 0.03956 0.72786 0.0
H1811 H 0.33959 0.06854 0.75444 0.0
H1812 H 0.32597 0.09796 0.8268 0.0
H1813 H 0.32831 0.08121 0.80793 0.0
H1814 H 0.29162 0.054 0.77767 0.0
C1815 C 0.30696 0.03806 0.72707 0.0
C1816 C 0.32909 0.06501 0.75967 0.0
C1817 C 0.30781 0.03031 0.71348 0.0
C1818 C 0.3197 0.09449 0.81547 0.0
C1819 C 0.32099 0.08484 0.80475 0.0
C1820 C 0.30215 0.05715 0.77278 0.0
C1821 C 0.31782 0.04404 0.73921 0.0
C1822 C 0.31681 0.05247 0.75353 0.0
C1823 C 0.31281 0.0798 0.79013 0.0
C1824 C 0.31434 0.0699 0.77845 0.0
H1825 H 0.33987 0.0333 0.72227 0.0
H1826 H 0.33819 0.04652 0.7464 0.0
H1827 H 0.29374 0.03867 0.75654 0.0
H1828 H 0.2952 0.09825 0.79321 0.0
H1829 H 0.29703 0.08096 0.77504 0.0
C1830 C 0.96575 0.30049 0.73465 0.0
C1831 C 0.97095 0.29931 0.71897 0.0
C1832 C 0.96054 0.2891 0.74591 0.0
C1833 C 0.94207 0.25012 0.74639 0.0
H1834 H 0.95101 0.2548 0.79352 0.0
C1835 C 0.91104 0.20239 0.79107 0.0
C1836 C 0.90734 0.20564 0.80669 0.0
C1837 C 0.92102 0.21346 0.78084 0.0
C1838 C 0.94826 0.25331 0.78043 0.0
H1839 H 0.97518 0.28543 0.70302 0.0
H1840 H 0.96571 0.26536 0.72262 0.0
H1841 H 0.96456 0.27519 0.77489 0.0
H1842 H 0.91192 0.22317 0.8241 0.0
H1843 H 0.92854 0.2424 0.80599 0.0
H1844 H 0.92524 0.22863 0.75185 0.0
C1845 C 0.96581 0.27518 0.72617 0.0
C1846 C 0.95611 0.26498 0.76977 0.0
C1847 C 0.97128 0.28669 0.71502 0.0
C1848 C 0.91423 0.22022 0.81201 0.0
C1849 C 0.92401 0.2313 0.80169 0.0
C1850 C 0.93405 0.23854 0.75707 0.0
C1851 C 0.9602 0.27621 0.74162 0.0
C1852 C 0.95296 0.26354 0.75269 0.0
C1853 C 0.92741 0.2281 0.78584 0.0
C1854 C 0.93688 0.24002 0.77429 0.0
H1855 H 0.96542 0.3101 0.73808 0.0
H1856 H 0.95618 0.29012 0.7577 0.0
H1857 H 0.93931 0.24879 0.73329 0.0
H1858 H 0.90593 0.19132 0.78646 0.0
H1859 H 0.92355 0.21051 0.76888 0.0
C1860 C 0.71341 0.68046 0.71461 0.0
C1861 C 0.69963 0.66874 0.71808 0.0
C1862 C 0.72438 0.68528 0.72645 0.0
C1863 C 0.7335 0.67175 0.76386 0.0
H1864 H 0.7654 0.71135 0.76758 0.0
C1865 C 0.77617 0.68878 0.81444 0.0
C1866 C 0.79038 0.69546 0.80859 0.0
C1867 C 0.7652 0.68732 0.80417 0.0
C1868 C 0.75654 0.70026 0.76662 0.0
H1869 H 0.68618 0.65359 0.73701 0.0
H1870 H 0.70498 0.6624 0.7579 0.0
H1871 H 0.74563 0.70553 0.74851 0.0
H1872 H 0.80428 0.70653 0.7876 0.0
H1873 H 0.78506 0.70421 0.76976 0.0
H1874 H 0.7443 0.66653 0.78209 0.0
C1875 C 0.70762 0.66749 0.74583 0.0
C1876 C 0.74525 0.69688 0.75566 0.0
C1877 C 0.69678 0.6625 0.73391 0.0
C1878 C 0.79348 0.70141 0.79254 0.0
C1879 C 0.78248 0.70007 0.78231 0.0
C1880 C 0.74463 0.67516 0.77494 0.0
C1881 C 0.72169 0.67862 0.7421 0.0
C1882 C 0.73358 0.68255 0.75412 0.0
C1883 C 0.7682 0.69265 0.78789 0.0
C1884 C 0.75628 0.68941 0.77641 0.0
H1885 H 0.71591 0.68543 0.70247 0.0
H1886 H 0.73507 0.69379 0.72304 0.0
H1887 H 0.72498 0.66052 0.76272 0.0
H1888 H 0.77345 0.68441 0.82688 0.0
H1889 H 0.7543 0.68176 0.80886 0.0
C1890 C 0.68926 0.63636 0.63312 0.0
C1891 C 0.69232 0.64986 0.63969 0.0
C1892 C 0.69746 0.63558 0.62011 0.0
C1893 C 0.72412 0.65745 0.58748 0.0
H1894 H 0.73394 0.62758 0.59043 0.0
C1895 C 0.77003 0.65823 0.54971 0.0
C1896 C 0.7674 0.64506 0.54252 0.0
C1897 C 0.76005 0.65858 0.5605 0.0
C1898 C 0.73115 0.63587 0.58932 0.0
H1899 H 0.70622 0.67315 0.63745 0.0
H1900 H 0.72077 0.67179 0.61502 0.0
H1901 H 0.71806 0.62876 0.61115 0.0
H1902 H 0.752 0.62195 0.54082 0.0
H1903 H 0.7347 0.62255 0.55994 0.0
H1904 H 0.7376 0.66477 0.56586 0.0
C1905 C 0.71185 0.66179 0.61972 0.0
C1906 C 0.72201 0.63653 0.60117 0.0
C1907 C 0.70355 0.66258 0.63265 0.0
C1908 C 0.75449 0.63225 0.54634 0.0
C1909 C 0.74456 0.63259 0.55724 0.0
C1910 C 0.73336 0.65685 0.5757 0.0
C1911 C 0.70903 0.64827 0.61344 0.0
C1912 C 0.71841 0.64736 0.60045 0.0
C1913 C 0.74726 0.64575 0.56447 0.0
C1914 C 0.73701 0.64608 0.57654 0.0
H1915 H 0.68057 0.62634 0.6381 0.0
H1916 H 0.69475 0.62499 0.61534 0.0
H1917 H 0.7214 0.66578 0.58638 0.0
H1918 H 0.77997 0.66827 0.54733 0.0
H1919 H 0.76253 0.66885 0.56608 0.0
C1920 C 0.3228 0.03439 0.62131 0.0
C1921 C 0.33281 0.03528 0.63297 0.0
C1922 C 0.3266 0.04546 0.60994 0.0
C1923 C 0.35689 0.07694 0.58963 0.0
H1924 H 0.32933 0.0894 0.58534 0.0
C1925 C 0.36834 0.12827 0.55325 0.0
C1926 C 0.35683 0.12734 0.54429 0.0
C1927 C 0.36619 0.11694 0.56356 0.0
C1928 C 0.33707 0.08594 0.58618 0.0
H1929 H 0.35491 0.04831 0.64126 0.0
H1930 H 0.36152 0.06771 0.6213 0.0
H1931 H 0.32428 0.06978 0.60402 0.0
H1932 H 0.33429 0.11351 0.53833 0.0
H1933 H 0.33057 0.09371 0.55605 0.0
H1934 H 0.36965 0.09314 0.57166 0.0
C1935 C 0.35072 0.05838 0.62103 0.0
C1936 C 0.33418 0.0747 0.59693 0.0
C1937 C 0.34691 0.04728 0.6325 0.0
C1938 C 0.34329 0.11466 0.54536 0.0
C1939 C 0.34116 0.10333 0.55556 0.0
C1940 C 0.35977 0.0882 0.57877 0.0
C1941 C 0.3405 0.05771 0.60987 0.0
C1942 C 0.34398 0.06996 0.59868 0.0
C1943 C 0.3525 0.10443 0.56504 0.0
C1944 C 0.34981 0.09273 0.57681 0.0
H1945 H 0.31189 0.02526 0.62114 0.0
H1946 H 0.31856 0.04449 0.60127 0.0
H1947 H 0.36462 0.07348 0.59068 0.0
H1948 H 0.37889 0.13796 0.5527 0.0
H1949 H 0.37513 0.11818 0.57077 0.0
C1950 C 0.96252 0.30102 0.62798 0.0
C1951 C 0.95654 0.30341 0.6424 0.0
C1952 C 0.95384 0.29373 0.61416 0.0
C1953 C 0.9182 0.28341 0.59647 0.0
H1954 H 0.92297 0.25572 0.56989 0.0
C1955 C 0.87331 0.23764 0.5577 0.0
C1956 C 0.87627 0.23672 0.54085 0.0
C1957 C 0.88425 0.24708 0.56848 0.0
C1958 C 0.92168 0.26358 0.57711 0.0
H1959 H 0.93672 0.29936 0.65399 0.0
H1960 H 0.92164 0.2863 0.63037 0.0
H1961 H 0.94009 0.26947 0.5922 0.0
H1962 H 0.89283 0.2447 0.52192 0.0
H1963 H 0.91225 0.26106 0.54109 0.0
H1964 H 0.89937 0.27693 0.58194 0.0
C1965 C 0.93306 0.29052 0.62933 0.0
C1966 C 0.93147 0.27147 0.58984 0.0
C1967 C 0.94171 0.29793 0.64296 0.0
C1968 C 0.89035 0.24534 0.5349 0.0
C1969 C 0.9014 0.25459 0.54581 0.0
C1970 C 0.90834 0.27538 0.58397 0.0
C1971 C 0.93902 0.28859 0.61461 0.0
C1972 C 0.92963 0.28123 0.59994 0.0
C1973 C 0.89839 0.25555 0.56266 0.0
C1974 C 0.90984 0.26521 0.57441 0.0
H1975 H 0.97394 0.30516 0.62719 0.0
H1976 H 0.9588 0.29246 0.60301 0.0
H1977 H 0.91669 0.29115 0.60362 0.0
H1978 H 0.8625 0.23107 0.5625 0.0
H1979 H 0.88171 0.2476 0.58146 0.0
C1980 C 0.35797 0.31028 0.63386 0.0
C1981 C 0.34497 0.30829 0.64017 0.0
C1982 C 0.3581 0.30243 0.61991 0.0
C1983 C 0.3355 0.26837 0.5973 0.0
H1984 H 0.36526 0.28584 0.56365 0.0
C1985 C 0.33879 0.23453 0.54297 0.0
C1986 C 0.35253 0.2369 0.53947 0.0
C1987 C 0.33711 0.2441 0.55338 0.0
C1988 C 0.35693 0.28079 0.573 0.0
H1989 H 0.3219 0.29667 0.63646 0.0
H1990 H 0.32217 0.28292 0.6121 0.0
H1991 H 0.36364 0.30107 0.5854 0.0
H1992 H 0.37528 0.2513 0.54389 0.0
H1993 H 0.37237 0.26792 0.56216 0.0
H1994 H 0.32904 0.24804 0.58525 0.0
C1995 C 0.33224 0.29052 0.61807 0.0
C1996 C 0.35599 0.28951 0.58543 0.0
C1997 C 0.33211 0.29844 0.63199 0.0
C1998 C 0.36457 0.24927 0.5462 0.0
C1999 C 0.36289 0.25881 0.55665 0.0
C2000 C 0.33647 0.25964 0.58491 0.0
C2001 C 0.34524 0.29236 0.61196 0.0
C2002 C 0.34541 0.28336 0.59787 0.0
C2003 C 0.34913 0.25623 0.56055 0.0
C2004 C 0.34734 0.26571 0.57277 0.0
H2005 H 0.3681 0.3178 0.63978 0.0
H2006 H 0.36827 0.30396 0.61564 0.0
H2007 H 0.32735 0.26328 0.60683 0.0
H2008 H 0.32932 0.22521 0.53774 0.0
H2009 H 0.32638 0.24193 0.5559 0.0
C2010 C 0.70333 0.03 0.61032 0.0
C2011 C 0.70018 0.03296 0.62637 0.0
C2012 C 0.70901 0.04079 0.59825 0.0
C2013 C 0.71648 0.07827 0.58948 0.0
H2014 H 0.74498 0.07887 0.55952 0.0
C2015 C 0.76119 0.12892 0.55583 0.0
C2016 C 0.76254 0.12738 0.53864 0.0
C2017 C 0.75161 0.11696 0.56526 0.0
C2018 C 0.73692 0.07873 0.5677 0.0
H2019 H 0.7004 0.04951 0.64237 0.0
H2020 H 0.71094 0.06849 0.62174 0.0
H2021 H 0.73213 0.05874 0.5785 0.0
H2022 H 0.75497 0.11235 0.51769 0.0
H2023 H 0.73847 0.09122 0.53435 0.0
H2024 H 0.72211 0.09885 0.57921 0.0
C2025 C 0.70858 0.05774 0.61812 0.0
C2026 C 0.72946 0.06714 0.57854 0.0
C2027 C 0.70261 0.04686 0.63005 0.0
C2028 C 0.75401 0.11377 0.53094 0.0
C2029 C 0.74466 0.10173 0.54043 0.0
C2030 C 0.72418 0.09001 0.57888 0.0
C2031 C 0.71198 0.05491 0.60208 0.0
C2032 C 0.71921 0.0668 0.58972 0.0
C2033 C 0.74347 0.10322 0.55768 0.0
C2034 C 0.73453 0.09037 0.56799 0.0
H2035 H 0.7014 0.01932 0.60707 0.0
H2036 H 0.71112 0.03803 0.58596 0.0
H2037 H 0.70846 0.07829 0.59757 0.0
H2038 H 0.76769 0.13935 0.56199 0.0
H2039 H 0.75094 0.11833 0.57857 0.0
C2040 C 0.9535 0.65618 0.63358 0.0
C2041 C 0.96737 0.66796 0.63058 0.0
C2042 C 0.94266 0.65191 0.6217 0.0
C2043 C 0.93387 0.66677 0.5852 0.0
H2044 H 0.90192 0.62731 0.58021 0.0
C2045 C 0.89107 0.65086 0.53477 0.0
C2046 C 0.87683 0.64387 0.54058 0.0
C2047 C 0.9021 0.65229 0.54491 0.0
C2048 C 0.91079 0.63837 0.58153 0.0
H2049 H 0.98103 0.68385 0.61238 0.0
H2050 H 0.9624 0.67603 0.59138 0.0
H2051 H 0.92162 0.63251 0.59905 0.0
H2052 H 0.863 0.63232 0.56146 0.0
H2053 H 0.88231 0.63455 0.57902 0.0
H2054 H 0.92313 0.67256 0.5675 0.0
C2055 C 0.95964 0.67044 0.60315 0.0
C2056 C 0.92205 0.64139 0.59236 0.0
C2057 C 0.97038 0.67487 0.61514 0.0
C2058 C 0.87381 0.63767 0.5565 0.0
C2059 C 0.88486 0.63897 0.5666 0.0
C2060 C 0.92276 0.66372 0.57423 0.0
C2061 C 0.94551 0.65919 0.60644 0.0
C2062 C 0.93373 0.65567 0.59441 0.0
C2063 C 0.89915 0.6466 0.56103 0.0
C2064 C 0.91108 0.64952 0.57233 0.0
H2065 H 0.95085 0.65068 0.64541 0.0
H2066 H 0.93192 0.64331 0.62481 0.0
H2067 H 0.94241 0.67796 0.58672 0.0
H2068 H 0.89376 0.65543 0.52242 0.0
H2069 H 0.913 0.65804 0.54022 0.0
C2070 C 0.96645 0.67385 0.72088 0.0
C2071 C 0.97154 0.68413 0.70812 0.0
C2072 C 0.95816 0.67457 0.73389 0.0
C2073 C 0.94774 0.69955 0.75369 0.0
H2074 H 0.91632 0.66393 0.77147 0.0
C2075 C 0.91174 0.70046 0.80641 0.0
C2076 C 0.89708 0.68992 0.80571 0.0
C2077 C 0.92147 0.69951 0.79573 0.0
C2078 C 0.92495 0.674 0.76655 0.0
H2079 H 0.97168 0.70305 0.69886 0.0
H2080 H 0.95687 0.70398 0.72102 0.0
H2081 H 0.93181 0.66279 0.75027 0.0
H2082 H 0.88102 0.67025 0.79326 0.0
H2083 H 0.89783 0.66886 0.77417 0.0
H2084 H 0.94039 0.71075 0.76919 0.0
C2085 C 0.95965 0.69565 0.72142 0.0
C2086 C 0.93402 0.67334 0.75455 0.0
C2087 C 0.96809 0.69506 0.7086 0.0
C2088 C 0.89231 0.67843 0.79415 0.0
C2089 C 0.90199 0.6776 0.7833 0.0
C2090 C 0.93855 0.7002 0.76549 0.0
C2091 C 0.9546 0.68546 0.7343 0.0
C2092 C 0.94545 0.68611 0.74782 0.0
C2093 C 0.91671 0.68813 0.78392 0.0
C2094 C 0.92694 0.68743 0.77198 0.0
H2095 H 0.969 0.66534 0.72091 0.0
H2096 H 0.95465 0.66665 0.74369 0.0
H2097 H 0.95659 0.70964 0.74909 0.0
H2098 H 0.91568 0.70934 0.81535 0.0
H2099 H 0.93274 0.70767 0.79683 0.0
C2100 C 0.3173 0.28718 0.71559 0.0
C2101 C 0.32997 0.30045 0.71895 0.0
C2102 C 0.31244 0.27566 0.72665 0.0
C2103 C 0.31379 0.26609 0.76965 0.0
H2104 H 0.31062 0.23097 0.75131 0.0
C2105 C 0.31315 0.22288 0.81162 0.0
C2106 C 0.30603 0.20828 0.80632 0.0
C2107 C 0.3141 0.23365 0.80126 0.0
C2108 C 0.3111 0.24051 0.75666 0.0
H2109 H 0.34706 0.31229 0.73688 0.0
H2110 H 0.33829 0.29226 0.75643 0.0
H2111 H 0.31539 0.25072 0.73288 0.0
H2112 H 0.29385 0.19359 0.78601 0.0
H2113 H 0.29479 0.21221 0.76837 0.0
H2114 H 0.30926 0.25593 0.79338 0.0
C2115 C 0.33226 0.29076 0.74515 0.0
C2116 C 0.31392 0.25187 0.74606 0.0
C2117 C 0.3373 0.30218 0.73393 0.0
C2118 C 0.29935 0.20468 0.79061 0.0
C2119 C 0.3001 0.21544 0.78034 0.0
C2120 C 0.31068 0.25463 0.78024 0.0
C2121 C 0.31996 0.27732 0.74144 0.0
C2122 C 0.31556 0.26484 0.7525 0.0
C2123 C 0.30771 0.23012 0.78539 0.0
C2124 C 0.3096 0.24178 0.77394 0.0
H2125 H 0.31145 0.28551 0.70412 0.0
H2126 H 0.3029 0.2654 0.72357 0.0
H2127 H 0.31488 0.27596 0.77488 0.0
H2128 H 0.31814 0.22609 0.82377 0.0
H2129 H 0.32022 0.2448 0.80559 0.0
C2130 C 0.72285 0.02275 0.7089 0.0
C2131 C 0.71264 0.0262 0.7037 0.0
C2132 C 0.7323 0.03052 0.72188 0.0
C2133 C 0.73826 0.05568 0.75726 0.0
H2134 H 0.77782 0.06554 0.75249 0.0
C2135 C 0.78437 0.09926 0.79781 0.0
C2136 C 0.79465 0.09614 0.80365 0.0
C2137 C 0.77386 0.08996 0.78646 0.0
C2138 C 0.76677 0.06272 0.7541 0.0
H2139 H 0.7043 0.04047 0.70826 0.0
H2140 H 0.72101 0.05422 0.73065 0.0
H2141 H 0.76042 0.05086 0.73106 0.0
H2142 H 0.80169 0.08057 0.80237 0.0
H2143 H 0.78345 0.06443 0.78233 0.0
H2144 H 0.74477 0.06788 0.78015 0.0
C2145 C 0.72153 0.04533 0.72489 0.0
C2146 C 0.75678 0.05428 0.74183 0.0
C2147 C 0.71199 0.03748 0.71197 0.0
C2148 C 0.79409 0.08342 0.79794 0.0
C2149 C 0.78363 0.07416 0.7865 0.0
C2150 C 0.74829 0.06421 0.76947 0.0
C2151 C 0.73188 0.042 0.72992 0.0
C2152 C 0.7424 0.05069 0.74322 0.0
C2153 C 0.77344 0.07737 0.78059 0.0
C2154 C 0.76266 0.06786 0.76798 0.0
H2155 H 0.72357 0.01404 0.70294 0.0
H2156 H 0.73994 0.02748 0.72564 0.0
H2157 H 0.72723 0.05292 0.75887 0.0
H2158 H 0.78463 0.10909 0.80167 0.0
H2159 H 0.76629 0.09283 0.78194 0.0
C2160 C 0.05341 0.35608 0.02952 0.0
C2161 C 0.04034 0.34305 0.0269 0.0
C2162 C 0.06453 0.35611 0.03831 0.0
C2163 C 0.07766 0.33212 0.05076 0.0
H2164 H 0.09375 0.35737 0.08947 0.0
C2165 C 0.10436 0.31887 0.10295 0.0
C2166 C 0.11674 0.33018 0.11057 0.0
C2167 C 0.09652 0.32186 0.09174 0.0
C2168 C 0.08956 0.35041 0.07854 0.0
H2169 H 0.02879 0.31984 0.03095 0.0
H2170 H 0.04811 0.31988 0.04592 0.0
H2171 H 0.07786 0.36043 0.07079 0.0
H2172 H 0.13054 0.35354 0.11251 0.0
H2173 H 0.1168 0.3588 0.09283 0.0
H2174 H 0.08909 0.32194 0.0585 0.0
C2175 C 0.04983 0.33006 0.04129 0.0
C2176 C 0.08048 0.35219 0.06785 0.0
C2177 C 0.03872 0.33006 0.0328 0.0
C2178 C 0.12097 0.34459 0.10694 0.0
C2179 C 0.11312 0.3476 0.09566 0.0
C2180 C 0.08676 0.3304 0.06135 0.0
C2181 C 0.06281 0.34307 0.04427 0.0
C2182 C 0.07414 0.34279 0.05412 0.0
C2183 C 0.10087 0.33625 0.08781 0.0
C2184 C 0.09249 0.33924 0.07564 0.0
H2185 H 0.05491 0.36625 0.02515 0.0
H2186 H 0.07446 0.36628 0.04043 0.0
H2187 H 0.07309 0.32487 0.04011 0.0
H2188 H 0.10066 0.30765 0.10574 0.0
H2189 H 0.08693 0.31286 0.08627 0.0
C2190 C 0.68143 0.69491 0.05103 0.0
C2191 C 0.67227 0.69229 0.0375 0.0
C2192 C 0.68583 0.7071 0.06134 0.0
C2193 C 0.69283 0.74373 0.06146 0.0
H2194 H 0.68149 0.73905 0.10792 0.0
C2195 C 0.69172 0.7891 0.09859 0.0
C2196 C 0.69437 0.79047 0.11577 0.0
C2197 C 0.69092 0.77752 0.08956 0.0
C2198 C 0.68506 0.74064 0.09508 0.0
H2199 H 0.66065 0.70035 0.02397 0.0
H2200 H 0.66869 0.72183 0.04167 0.0
H2201 H 0.677 0.71792 0.09124 0.0
H2202 H 0.69873 0.78113 0.13696 0.0
H2203 H 0.69784 0.76109 0.12111 0.0
H2204 H 0.70104 0.76637 0.06512 0.0
C2205 C 0.67233 0.71439 0.04439 0.0
C2206 C 0.68242 0.72851 0.08555 0.0
C2207 C 0.66768 0.70209 0.03435 0.0
C2208 C 0.69652 0.7802 0.12373 0.0
C2209 C 0.69595 0.76871 0.11464 0.0
C2210 C 0.69572 0.75589 0.07103 0.0
C2211 C 0.6814 0.71698 0.05796 0.0
C2212 C 0.68596 0.72994 0.06859 0.0
C2213 C 0.693 0.76713 0.09745 0.0
C2214 C 0.69149 0.75446 0.08785 0.0
H2215 H 0.68507 0.68747 0.05373 0.0
H2216 H 0.69282 0.70893 0.0718 0.0
H2217 H 0.69576 0.74506 0.0484 0.0
H2218 H 0.68985 0.79679 0.09221 0.0
H2219 H 0.68829 0.77652 0.07645 0.0
C2220 C 0.30466 0.98173 0.04772 0.0
C2221 C 0.30658 0.97676 0.0322 0.0
C2222 C 0.29295 0.97269 0.05776 0.0
C2223 C 0.2641 0.93398 0.06311 0.0
H2224 H 0.24682 0.9512 0.09021 0.0
C2225 C 0.20934 0.90091 0.09678 0.0
C2226 C 0.20975 0.90389 0.11392 0.0
C2227 C 0.22109 0.90977 0.08666 0.0
C2228 C 0.25159 0.94628 0.08273 0.0
H2229 H 0.29782 0.95852 0.01496 0.0
H2230 H 0.27702 0.94291 0.03209 0.0
H2231 H 0.26738 0.96662 0.07265 0.0
H2232 H 0.22248 0.91853 0.13392 0.0
H2233 H 0.24291 0.93432 0.11608 0.0
H2234 H 0.24785 0.91356 0.07289 0.0
C2235 C 0.28474 0.95361 0.03683 0.0
C2236 C 0.26345 0.9551 0.07274 0.0
C2237 C 0.29662 0.96258 0.02692 0.0
C2238 C 0.22196 0.91602 0.12073 0.0
C2239 C 0.23358 0.92505 0.11055 0.0
C2240 C 0.25208 0.92514 0.07286 0.0
C2241 C 0.28271 0.95855 0.05238 0.0
C2242 C 0.26995 0.94909 0.06287 0.0
C2243 C 0.23329 0.92192 0.09347 0.0
C2244 C 0.24579 0.93123 0.08282 0.0
H2245 H 0.31227 0.99259 0.05216 0.0
H2246 H 0.29199 0.9768 0.0698 0.0
H2247 H 0.26893 0.92895 0.05596 0.0
H2248 H 0.20007 0.89155 0.0913 0.0
H2249 H 0.22062 0.9072 0.07349 0.0
C2250 C 0.34788 0.04519 0.98765 0.0
C2251 C 0.34039 0.03067 0.98214 0.0
C2252 C 0.34672 0.05576 0.97895 0.0
C2253 C 0.3224 0.05848 0.94896 0.0
H2254 H 0.3539 0.0979 0.94301 0.0
C2255 C 0.31979 0.09663 0.902 0.0
C2256 C 0.32361 0.11057 0.90781 0.0
C2257 C 0.32253 0.08761 0.91158 0.0
C2258 C 0.345 0.08694 0.94471 0.0
H2259 H 0.3266 0.01596 0.96273 0.0
H2260 H 0.32503 0.0343 0.94735 0.0
H2261 H 0.35774 0.08082 0.95868 0.0
H2262 H 0.33354 0.12598 0.92828 0.0
H2263 H 0.33864 0.11026 0.94482 0.0
H2264 H 0.30977 0.06447 0.93469 0.0
C2265 C 0.33132 0.03755 0.95867 0.0
C2266 C 0.34718 0.07717 0.95371 0.0
C2267 C 0.33231 0.02703 0.96744 0.0
C2268 C 0.33059 0.11539 0.9233 0.0
C2269 C 0.33349 0.10639 0.93282 0.0
C2270 C 0.3203 0.06815 0.93985 0.0
C2271 C 0.33818 0.05198 0.96452 0.0
C2272 C 0.33593 0.06275 0.95574 0.0
C2273 C 0.32932 0.09235 0.92712 0.0
C2274 C 0.3316 0.08242 0.93747 0.0
H2275 H 0.35417 0.04827 0.99897 0.0
H2276 H 0.35212 0.06676 0.98383 0.0
H2277 H 0.31337 0.0476 0.95068 0.0
H2278 H 0.31473 0.09267 0.88997 0.0
H2279 H 0.3194 0.0769 0.90678 0.0
C2280 C 0.98878 0.30718 0.96407 0.0
C2281 C 0.98419 0.30994 0.97935 0.0
C2282 C 0.97911 0.29581 0.95369 0.0
C2283 C 0.94008 0.27117 0.94621 0.0
H2284 H 0.95232 0.24722 0.92349 0.0
C2285 C 0.90025 0.21542 0.91719 0.0
C2286 C 0.9034 0.2124 0.90114 0.0
C2287 C 0.91031 0.22775 0.92602 0.0
C2288 C 0.9488 0.25391 0.92963 0.0
H2289 H 0.96592 0.30303 0.99577 0.0
H2290 H 0.94915 0.28305 0.97792 0.0
H2291 H 0.96952 0.26807 0.94018 0.0
H2292 H 0.91967 0.2201 0.88177 0.0
H2293 H 0.93735 0.24148 0.8974 0.0
H2294 H 0.91926 0.25677 0.93595 0.0
C2295 C 0.96012 0.2898 0.97372 0.0
C2296 C 0.95865 0.26588 0.93915 0.0
C2297 C 0.96976 0.3012 0.98402 0.0
C2298 C 0.91695 0.22196 0.8942 0.0
C2299 C 0.92707 0.23423 0.90311 0.0
C2300 C 0.93021 0.25915 0.93681 0.0
C2301 C 0.96466 0.28694 0.95843 0.0
C2302 C 0.95438 0.2746 0.94767 0.0
C2303 C 0.92381 0.23728 0.91907 0.0
C2304 C 0.93444 0.25034 0.92853 0.0
H2305 H 0.99985 0.3138 0.96011 0.0
H2306 H 0.98293 0.29405 0.94189 0.0
H2307 H 0.93648 0.27781 0.9523 0.0
H2308 H 0.89005 0.20817 0.92306 0.0
H2309 H 0.9076 0.22971 0.93842 0.0
C2310 C 0.68787 0.66837 0.96468 0.0
C2311 C 0.68379 0.65917 0.97843 0.0
C2312 C 0.69879 0.66992 0.95404 0.0
C2313 C 0.72137 0.6541 0.94287 0.0
H2314 H 0.74747 0.69304 0.92732 0.0
C2315 C 0.76846 0.66675 0.89861 0.0
C2316 C 0.7814 0.67992 0.9011 0.0
C2317 C 0.75606 0.66391 0.90721 0.0
C2318 C 0.74039 0.68212 0.93168 0.0
H2319 H 0.68763 0.64406 0.99161 0.0
H2320 H 0.70704 0.64711 0.9734 0.0
H2321 H 0.72674 0.68828 0.94386 0.0
H2322 H 0.79161 0.7004 0.9146 0.0
H2323 H 0.77011 0.69534 0.93001 0.0
H2324 H 0.73546 0.64812 0.93139 0.0
C2325 C 0.70161 0.6529 0.97055 0.0
C2326 C 0.72832 0.67932 0.94095 0.0
C2327 C 0.69052 0.65118 0.98105 0.0
C2328 C 0.78172 0.69022 0.91233 0.0
C2329 C 0.76937 0.68732 0.92109 0.0
C2330 C 0.73354 0.65694 0.93374 0.0
C2331 C 0.70606 0.66249 0.95707 0.0
C2332 C 0.71865 0.66528 0.9467 0.0
C2333 C 0.75637 0.67412 0.91864 0.0
C2334 C 0.74324 0.671 0.92807 0.0
H2335 H 0.68275 0.67455 0.96225 0.0
H2336 H 0.70165 0.67711 0.94356 0.0
H2337 H 0.71409 0.64311 0.94691 0.0
H2338 H 0.76789 0.6587 0.88985 0.0
H2339 H 0.74621 0.65376 0.90474 0.0
C2340 C 0.95671 0.6533 0.98187 0.0
C2341 C 0.97055 0.66543 0.98407 0.0
C2342 C 0.94651 0.65437 0.97248 0.0
C2343 C 0.93702 0.68062 0.95872 0.0
H2344 H 0.91674 0.65346 0.92259 0.0
C2345 C 0.90482 0.69153 0.9108 0.0
C2346 C 0.89199 0.67973 0.90456 0.0
C2347 C 0.91394 0.68925 0.92075 0.0
C2348 C 0.92211 0.66101 0.9328 0.0
H2349 H 0.98453 0.68818 0.97828 0.0
H2350 H 0.96668 0.69006 0.96217 0.0
H2351 H 0.93312 0.65012 0.93997 0.0
H2352 H 0.87887 0.65623 0.90377 0.0
H2353 H 0.89443 0.6523 0.9217 0.0
H2354 H 0.92595 0.69141 0.95189 0.0
C2355 C 0.96373 0.67974 0.96765 0.0
C2356 C 0.93152 0.65909 0.94271 0.0
C2357 C 0.97397 0.67863 0.97679 0.0
C2358 C 0.88854 0.66559 0.90853 0.0
C2359 C 0.89759 0.66332 0.91864 0.0
C2360 C 0.9275 0.68243 0.94898 0.0
C2361 C 0.94992 0.66764 0.96539 0.0
C2362 C 0.9392 0.669 0.95561 0.0
C2363 C 0.9104 0.67513 0.92491 0.0
C2364 C 0.92007 0.67277 0.93573 0.0
H2365 H 0.9538 0.64299 0.98732 0.0
H2366 H 0.93589 0.64489 0.97094 0.0
H2367 H 0.94268 0.68831 0.96874 0.0
H2368 H 0.90776 0.70257 0.90821 0.0
H2369 H 0.92382 0.69861 0.92509 0.0
C2370 C 0.34018 0.31115 0.9703 0.0
C2371 C 0.32989 0.31462 0.97539 0.0
C2372 C 0.33671 0.30011 0.95862 0.0
C2373 C 0.30754 0.26584 0.94461 0.0
H2374 H 0.33244 0.27087 0.90718 0.0
C2375 C 0.2986 0.21734 0.90325 0.0
C2376 C 0.31101 0.21718 0.89844 0.0
C2377 C 0.29966 0.22974 0.91061 0.0
C2378 C 0.32544 0.26924 0.91765 0.0
H2379 H 0.30794 0.30939 0.9722 0.0
H2380 H 0.3017 0.28959 0.95202 0.0
H2381 H 0.33663 0.29194 0.9237 0.0
H2382 H 0.33425 0.23012 0.8973 0.0
H2383 H 0.33613 0.25136 0.91082 0.0
H2384 H 0.29685 0.24309 0.93928 0.0
C2385 C 0.31249 0.29563 0.95697 0.0
C2386 C 0.32778 0.28132 0.927 0.0
C2387 C 0.31607 0.30693 0.96844 0.0
C2388 C 0.32447 0.22975 0.90108 0.0
C2389 C 0.32554 0.24206 0.90858 0.0
C2390 C 0.30532 0.2537 0.93541 0.0
C2391 C 0.3228 0.29213 0.95202 0.0
C2392 C 0.31904 0.27968 0.94075 0.0
C2393 C 0.31315 0.24223 0.91345 0.0
C2394 C 0.31446 0.25522 0.92205 0.0
H2395 H 0.35092 0.3169 0.97541 0.0
H2396 H 0.34479 0.2975 0.95513 0.0
H2397 H 0.30074 0.26431 0.95527 0.0
H2398 H 0.28805 0.20783 0.90155 0.0
H2399 H 0.28989 0.22951 0.91405 0.0
C2400 C 0.70397 0.0365 0.9891 0.0
C2401 C 0.69473 0.02186 0.98474 0.0
C2402 C 0.71587 0.04537 0.9792 0.0
C2403 C 0.72986 0.04962 0.93682 0.0
H2404 H 0.7669 0.07405 0.95773 0.0
C2405 C 0.78128 0.08435 0.89812 0.0
C2406 C 0.79122 0.09826 0.90437 0.0
C2407 C 0.7697 0.07451 0.90787 0.0
C2408 C 0.75662 0.06745 0.95169 0.0
H2409 H 0.69054 0.00505 0.96649 0.0
H2410 H 0.71127 0.02064 0.94902 0.0
H2411 H 0.7462 0.05804 0.97477 0.0
H2412 H 0.79685 0.11255 0.92598 0.0
H2413 H 0.77641 0.09571 0.94262 0.0
H2414 H 0.74011 0.05928 0.9138 0.0
C2415 C 0.70932 0.02521 0.96015 0.0
C2416 C 0.74477 0.05824 0.96147 0.0
C2417 C 0.69751 0.01629 0.97018 0.0
C2418 C 0.78931 0.10203 0.92063 0.0
C2419 C 0.77767 0.09226 0.93031 0.0
C2420 C 0.74167 0.05896 0.92704 0.0
C2421 C 0.71865 0.03982 0.96462 0.0
C2422 C 0.73127 0.04929 0.95414 0.0
C2423 C 0.7677 0.07837 0.92406 0.0
C2424 C 0.7552 0.06806 0.93436 0.0
H2425 H 0.70208 0.0411 0.00024 0.0
H2426 H 0.72281 0.05663 0.98284 0.0
H2427 H 0.71953 0.04292 0.93088 0.0
H2428 H 0.7823 0.08111 0.88559 0.0
H2429 H 0.76235 0.06385 0.90271 0.0
C2430 C 0.66339 0.9708 0.05019 0.0
C2431 C 0.65719 0.96808 0.0343 0.0
C2432 C 0.6631 0.95966 0.05918 0.0
C2433 C 0.66449 0.92735 0.05405 0.0
H2434 H 0.65167 0.91967 0.09995 0.0
C2435 C 0.67072 0.88615 0.09321 0.0
C2436 C 0.67399 0.88951 0.11016 0.0
C2437 C 0.66686 0.89433 0.08353 0.0
C2438 C 0.65549 0.92178 0.08722 0.0
H2439 H 0.64568 0.95159 0.01534 0.0
H2440 H 0.64562 0.93205 0.03094 0.0
H2441 H 0.64792 0.93649 0.08388 0.0
H2442 H 0.6761 0.90416 0.13024 0.0
H2443 H 0.67003 0.91882 0.11332 0.0
H2444 H 0.67287 0.91342 0.05753 0.0
C2445 C 0.65048 0.94281 0.03647 0.0
C2446 C 0.65318 0.93131 0.07799 0.0
C2447 C 0.65046 0.95393 0.02762 0.0
C2448 C 0.67345 0.90125 0.11723 0.0
C2449 C 0.66985 0.90957 0.10752 0.0
C2450 C 0.66705 0.91802 0.06337 0.0
C2451 C 0.65687 0.94563 0.05229 0.0
C2452 C 0.65782 0.9343 0.0614 0.0
C2453 C 0.66643 0.9062 0.09053 0.0
C2454 C 0.66278 0.91528 0.08018 0.0
H2455 H 0.66861 0.98161 0.05564 0.0
H2456 H 0.66818 0.96211 0.0713 0.0
H2457 H 0.66831 0.92963 0.04132 0.0
H2458 H 0.67094 0.87706 0.08752 0.0
H2459 H 0.66409 0.89122 0.0706 0.0
C2460 C 0.01618 0.70176 0.04793 0.0
C2461 C 0.02169 0.69501 0.03775 0.0
C2462 C 0.02533 0.71368 0.05798 0.0
C2463 C 0.06377 0.7422 0.0623 0.0
H2464 H 0.05178 0.74841 0.10574 0.0
C2465 C 0.10284 0.78491 0.10956 0.0
C2466 C 0.09843 0.79384 0.1172 0.0
C2467 C 0.09327 0.77296 0.09986 0.0
C2468 C 0.0552 0.74685 0.09357 0.0
H2469 H 0.04098 0.69503 0.03055 0.0
H2470 H 0.05688 0.71547 0.04847 0.0
H2471 H 0.03548 0.7269 0.08929 0.0
H2472 H 0.08059 0.79725 0.12082 0.0
H2473 H 0.06374 0.77616 0.10392 0.0
H2474 H 0.08362 0.762 0.06682 0.0
C2475 C 0.04557 0.71191 0.04835 0.0
C2476 C 0.04587 0.73456 0.08411 0.0
C2477 C 0.03645 0.70012 0.03815 0.0
C2478 C 0.08426 0.79058 0.11498 0.0
C2479 C 0.07462 0.77848 0.10544 0.0
C2480 C 0.07314 0.75438 0.07183 0.0
C2481 C 0.04018 0.719 0.0582 0.0
C2482 C 0.05005 0.73205 0.06836 0.0
C2483 C 0.07906 0.76959 0.09776 0.0
C2484 C 0.06896 0.75682 0.08756 0.0
H2485 H 0.00484 0.69808 0.04781 0.0
H2486 H 0.0208 0.71895 0.06523 0.0
H2487 H 0.06726 0.74084 0.05009 0.0
H2488 H 0.11374 0.78725 0.11098 0.0
H2489 H 0.09695 0.76623 0.09417 0.0
C2490 C 0.30986 0.35287 0.03514 0.0
C2491 C 0.31629 0.34457 0.03766 0.0
C2492 C 0.29891 0.35141 0.04569 0.0
C2493 C 0.28335 0.34084 0.08693 0.0
H2494 H 0.24714 0.32947 0.06555 0.0
C2495 C 0.23146 0.32242 0.1249 0.0
C2496 C 0.22137 0.32558 0.11867 0.0
C2497 C 0.24344 0.32523 0.11538 0.0
C2498 C 0.25721 0.33292 0.07176 0.0
H2499 H 0.31679 0.32873 0.05355 0.0
H2500 H 0.29787 0.32649 0.07231 0.0
H2501 H 0.26781 0.33432 0.04863 0.0
H2502 H 0.21598 0.33453 0.09798 0.0
H2503 H 0.23716 0.34009 0.08164 0.0
H2504 H 0.273 0.33991 0.11004 0.0
C2505 C 0.30122 0.33397 0.06206 0.0
C2506 C 0.26902 0.33561 0.06204 0.0
C2507 C 0.31198 0.33522 0.0513 0.0
C2508 C 0.22355 0.33184 0.10293 0.0
C2509 C 0.23565 0.33492 0.09355 0.0
C2510 C 0.2716 0.33843 0.09668 0.0
C2511 C 0.29442 0.34185 0.05913 0.0
C2512 C 0.28215 0.33952 0.06954 0.0
C2513 C 0.2457 0.33152 0.09955 0.0
C2514 C 0.25834 0.33435 0.08923 0.0
H2515 H 0.31296 0.36014 0.0247 0.0
H2516 H 0.29384 0.35763 0.04327 0.0
H2517 H 0.29342 0.34392 0.09296 0.0
H2518 H 0.22991 0.3175 0.137 0.0
H2519 H 0.25076 0.32221 0.12034 0.0
C2520 C 0.69331 0.66872 0.38146 0.0
C2521 C 0.69818 0.67801 0.36773 0.0
C2522 C 0.703 0.66735 0.39143 0.0
C2523 C 0.73755 0.66976 0.38951 0.0
H2524 H 0.73634 0.67096 0.43775 0.0
C2525 C 0.77911 0.66583 0.42963 0.0
C2526 C 0.77455 0.65839 0.44478 0.0
C2527 C 0.77003 0.66874 0.42048 0.0
C2528 C 0.7367 0.67037 0.42429 0.0
H2529 H 0.71701 0.69333 0.35383 0.0
H2530 H 0.73396 0.69071 0.37114 0.0
H2531 H 0.72012 0.67541 0.42156 0.0
H2532 H 0.75671 0.64817 0.46211 0.0
H2533 H 0.74065 0.65258 0.44576 0.0
H2534 H 0.7537 0.66422 0.39208 0.0
C2535 C 0.72264 0.68456 0.37418 0.0
C2536 C 0.72746 0.67302 0.41505 0.0
C2537 C 0.71296 0.68611 0.36435 0.0
C2538 C 0.76056 0.65377 0.45041 0.0
C2539 C 0.75141 0.65652 0.44115 0.0
C2540 C 0.74664 0.66691 0.39873 0.0
C2541 C 0.71772 0.67507 0.38772 0.0
C2542 C 0.72781 0.67275 0.39757 0.0
C2543 C 0.75604 0.66412 0.42609 0.0
C2544 C 0.74635 0.66718 0.41626 0.0
H2545 H 0.68198 0.66236 0.38439 0.0
H2546 H 0.69892 0.65989 0.40174 0.0
H2547 H 0.73787 0.66927 0.37604 0.0
H2548 H 0.78971 0.66936 0.42473 0.0
H2549 H 0.77408 0.67477 0.40907 0.0
C2550 C 0.33099 0.03242 0.37587 0.0
C2551 C 0.33958 0.02617 0.37529 0.0
C2552 C 0.33534 0.04518 0.3849 0.0
C2553 C 0.35928 0.06889 0.41828 0.0
H2554 H 0.35187 0.09682 0.39772 0.0
C2555 C 0.37431 0.12477 0.44831 0.0
C2556 C 0.36282 0.12727 0.44875 0.0
C2557 C 0.37325 0.11313 0.439 0.0
C2558 C 0.35401 0.08912 0.40361 0.0
H2559 H 0.3593 0.02812 0.38411 0.0
H2560 H 0.36705 0.05067 0.39991 0.0
H2561 H 0.34675 0.07495 0.38237 0.0
H2562 H 0.34143 0.11989 0.43954 0.0
H2563 H 0.33963 0.09971 0.42321 0.0
H2564 H 0.36645 0.08317 0.43962 0.0
C2565 C 0.35688 0.04559 0.3934 0.0
C2566 C 0.35103 0.07658 0.39486 0.0
C2567 C 0.35247 0.03272 0.38436 0.0
C2568 C 0.35039 0.11812 0.43952 0.0
C2569 C 0.34942 0.10666 0.43008 0.0
C2570 C 0.36236 0.08155 0.42703 0.0
C2571 C 0.34846 0.05209 0.3935 0.0
C2572 C 0.35323 0.06611 0.40226 0.0
C2573 C 0.3608 0.10401 0.42976 0.0
C2574 C 0.35938 0.09157 0.41991 0.0
H2575 H 0.32092 0.02756 0.36916 0.0
H2576 H 0.32842 0.04968 0.38508 0.0
H2577 H 0.36106 0.06102 0.42433 0.0
H2578 H 0.38398 0.13166 0.4554 0.0
H2579 H 0.38218 0.11132 0.43891 0.0
C2580 C 0.9715 0.2993 0.36811 0.0
C2581 C 0.97725 0.31435 0.36776 0.0
C2582 C 0.95935 0.29047 0.3776 0.0
C2583 C 0.93665 0.2908 0.41211 0.0
H2584 H 0.90903 0.25331 0.39302 0.0
C2585 C 0.88113 0.2514 0.44185 0.0
C2586 C 0.87774 0.23694 0.44297 0.0
C2587 C 0.8931 0.26143 0.43273 0.0
C2588 C 0.91668 0.26371 0.39854 0.0
H2589 H 0.97496 0.33203 0.37731 0.0
H2590 H 0.95343 0.31652 0.39371 0.0
H2591 H 0.93026 0.2699 0.37713 0.0
H2592 H 0.88402 0.22156 0.43527 0.0
H2593 H 0.90484 0.23903 0.41924 0.0
H2594 H 0.92283 0.28453 0.43348 0.0
C2595 C 0.95847 0.31157 0.38681 0.0
C2596 C 0.92888 0.27322 0.38948 0.0
C2597 C 0.97075 0.32045 0.37738 0.0
C2598 C 0.88645 0.23266 0.4347 0.0
C2599 C 0.89828 0.24263 0.42544 0.0
C2600 C 0.92433 0.28131 0.42113 0.0
C2601 C 0.95252 0.29644 0.38686 0.0
C2602 C 0.93915 0.28678 0.39625 0.0
C2603 C 0.90175 0.25711 0.42438 0.0
C2604 C 0.91435 0.26759 0.41452 0.0
H2605 H 0.97633 0.29428 0.36095 0.0
H2606 H 0.95531 0.27893 0.37767 0.0
H2607 H 0.94438 0.3011 0.41776 0.0
H2608 H 0.87464 0.25499 0.44821 0.0
H2609 H 0.8955 0.27251 0.43204 0.0
C2610 C 0.02308 0.37891 0.3139 0.0
C2611 C 0.01116 0.36471 0.31395 0.0
C2612 C 0.02289 0.38964 0.30444 0.0
C2613 C 0.99783 0.39892 0.2863 0.0
H2614 H 0.02948 0.42436 0.25755 0.0
C2615 C 0.99232 0.43485 0.23831 0.0
C2616 C 0.00416 0.44876 0.23553 0.0
C2617 C 0.99367 0.42504 0.24819 0.0
C2618 C 0.02063 0.4175 0.26571 0.0
H2619 H 0.98979 0.35058 0.30397 0.0
H2620 H 0.98946 0.36928 0.28763 0.0
H2621 H 0.03116 0.40655 0.27436 0.0
H2622 H 0.02667 0.46341 0.24106 0.0
H2623 H 0.029 0.44639 0.25859 0.0
H2624 H 0.98732 0.40987 0.27792 0.0
C2625 C 0.99891 0.37214 0.29494 0.0
C2626 C 0.0216 0.40728 0.27529 0.0
C2627 C 0.99914 0.36142 0.30423 0.0
C2628 C 0.01739 0.45269 0.24285 0.0
C2629 C 0.01873 0.44292 0.25286 0.0
C2630 C 0.9969 0.40919 0.27686 0.0
C2631 C 0.01072 0.38639 0.29504 0.0
C2632 C 0.01012 0.39777 0.28551 0.0
C2633 C 0.00687 0.42897 0.25565 0.0
C2634 C 0.00821 0.41849 0.26626 0.0
H2635 H 0.0325 0.38175 0.32126 0.0
H2636 H 0.03213 0.40055 0.30479 0.0
H2637 H 0.98892 0.3919 0.29431 0.0
H2638 H 0.98205 0.43144 0.23261 0.0
H2639 H 0.98439 0.4143 0.24976 0.0
C2640 C 0.63508 0.64075 0.31038 0.0
C2641 C 0.64979 0.6458 0.31167 0.0
C2642 C 0.62607 0.62818 0.30125 0.0
C2643 C 0.62559 0.60272 0.26926 0.0
H2644 H 0.58777 0.57718 0.28775 0.0
C2645 C 0.585 0.54605 0.24109 0.0
C2646 C 0.57105 0.54344 0.23892 0.0
C2647 C 0.59515 0.55818 0.2502 0.0
C2648 C 0.59828 0.58424 0.28241 0.0
H2649 H 0.66671 0.64188 0.3041 0.0
H2650 H 0.65088 0.61966 0.28832 0.0
H2651 H 0.60466 0.59917 0.3029 0.0
H2652 H 0.55665 0.55124 0.24482 0.0
H2653 H 0.5743 0.57235 0.26081 0.0
H2654 H 0.6191 0.58759 0.24879 0.0
C2655 C 0.64634 0.62554 0.29421 0.0
C2656 C 0.60794 0.59687 0.29103 0.0
C2657 C 0.6554 0.63823 0.30328 0.0
C2658 C 0.56736 0.55305 0.24621 0.0
C2659 C 0.57742 0.56506 0.25546 0.0
C2660 C 0.61593 0.58998 0.26067 0.0
C2661 C 0.63152 0.62025 0.29331 0.0
C2662 C 0.62163 0.60641 0.28444 0.0
C2663 C 0.59144 0.56779 0.25748 0.0
C2664 C 0.6021 0.58074 0.26705 0.0
H2665 H 0.63045 0.64643 0.31658 0.0
H2666 H 0.61479 0.62466 0.30047 0.0
H2667 H 0.636 0.60987 0.26376 0.0
H2668 H 0.58814 0.53885 0.23549 0.0
H2669 H 0.60586 0.56001 0.25165 0.0
C2670 C 0.35345 0.97877 0.31668 0.0
C2671 C 0.35315 0.9916 0.31901 0.0
C2672 C 0.36384 0.97861 0.3064 0.0
C2673 C 0.40005 0.00215 0.29085 0.0
H2674 H 0.38997 0.97341 0.25565 0.0
C2675 C 0.44184 0.00698 0.24282 0.0
C2676 C 0.44107 0.99423 0.23684 0.0
C2677 C 0.43093 0.0063 0.25281 0.0
C2678 C 0.39302 0.98138 0.26559 0.0
H2679 H 0.36341 0.01428 0.31238 0.0
H2680 H 0.38168 0.01403 0.29471 0.0
H2681 H 0.37116 0.97262 0.27329 0.0
H2682 H 0.42804 0.97072 0.23666 0.0
H2683 H 0.4094 0.96953 0.25473 0.0
H2684 H 0.42188 0.01073 0.28363 0.0
C2685 C 0.37386 0.00411 0.30077 0.0
C2686 C 0.38222 0.98094 0.27563 0.0
C2687 C 0.36336 0.00422 0.3108 0.0
C2688 C 0.42912 0.98077 0.24121 0.0
C2689 C 0.41829 0.98009 0.25138 0.0
C2690 C 0.41086 0.00247 0.28101 0.0
C2691 C 0.37423 0.99133 0.29853 0.0
C2692 C 0.38564 0.99142 0.28823 0.0
C2693 C 0.41903 0.99285 0.25731 0.0
C2694 C 0.4075 0.99218 0.26813 0.0
H2695 H 0.34569 0.96888 0.32283 0.0
H2696 H 0.36395 0.96863 0.3049 0.0
H2697 H 0.40297 0.01023 0.30066 0.0
H2698 H 0.45095 0.01754 0.23995 0.0
H2699 H 0.4318 0.01637 0.25688 0.0
C2700 C 0.63711 0.99729 0.3027 0.0
C2701 C 0.63324 0.98827 0.31659 0.0
C2702 C 0.62662 0.99691 0.29246 0.0
C2703 C 0.58774 0.97494 0.28198 0.0
H2704 H 0.59527 0.01123 0.26321 0.0
C2705 C 0.54491 0.98298 0.24913 0.0
C2706 C 0.54905 0.99027 0.23384 0.0
C2707 C 0.5549 0.98202 0.25904 0.0
C2708 C 0.59307 0.001 0.26827 0.0
H2709 H 0.61535 0.9717 0.33065 0.0
H2710 H 0.59694 0.97137 0.31312 0.0
H2711 H 0.61306 0.01101 0.28117 0.0
H2712 H 0.56694 0.00183 0.21681 0.0
H2713 H 0.58441 0.00054 0.23439 0.0
H2714 H 0.56748 0.9651 0.26935 0.0
C2715 C 0.6081 0.97851 0.30986 0.0
C2716 C 0.60329 0.00083 0.27852 0.0
C2717 C 0.61864 0.97875 0.31998 0.0
C2718 C 0.56341 0.99642 0.22865 0.0
C2719 C 0.57342 0.99562 0.23867 0.0
C2720 C 0.57742 0.97516 0.2719 0.0
C2721 C 0.61196 0.98766 0.29601 0.0
C2722 C 0.60084 0.98779 0.2854 0.0
C2723 C 0.56928 0.98849 0.25399 0.0
C2724 C 0.58005 0.98817 0.26485 0.0
H2725 H 0.6483 0.00462 0.29965 0.0
H2726 H 0.63004 0.00385 0.2817 0.0
H2727 H 0.58553 0.96466 0.28685 0.0
H2728 H 0.53402 0.97831 0.25369 0.0
H2729 H 0.55146 0.97657 0.27088 0.0
C2730 C 0.9914 0.638 0.30416 0.0
C2731 C 0.00381 0.64588 0.3139 0.0
C2732 C 0.98996 0.62699 0.29331 0.0
C2733 C 0.00491 0.60311 0.28607 0.0
H2734 H 0.98656 0.59598 0.24292 0.0
C2735 C 0.00926 0.56674 0.23615 0.0
C2736 C 0.99631 0.55595 0.229 0.0
C2737 C 0.00965 0.57771 0.24607 0.0
C2738 C 0.99162 0.59782 0.255 0.0
H2739 H 0.02466 0.64886 0.31947 0.0
H2740 H 0.02241 0.63018 0.30025 0.0
H2741 H 0.98834 0.6154 0.26099 0.0
H2742 H 0.97369 0.54836 0.22619 0.0
H2743 H 0.97442 0.56776 0.24346 0.0
H2744 H 0.0085 0.58579 0.27989 0.0
C2745 C 0.01355 0.63205 0.30132 0.0
C2746 C 0.9926 0.60889 0.26537 0.0
C2747 C 0.01489 0.64287 0.31227 0.0
C2748 C 0.98379 0.55651 0.23166 0.0
C2749 C 0.98422 0.56763 0.24141 0.0
C2750 C 0.00409 0.59221 0.27564 0.0
C2751 C 0.00097 0.62379 0.29191 0.0
C2752 C 0.99938 0.61174 0.28098 0.0
C2753 C 0.99712 0.57821 0.24887 0.0
C2754 C 0.99754 0.58953 0.25998 0.0
H2755 H 0.98268 0.6401 0.3052 0.0
H2756 H 0.98008 0.62078 0.28635 0.0
H2757 H 0.00985 0.60471 0.29818 0.0
H2758 H 0.01903 0.5665 0.23438 0.0
H2759 H 0.01975 0.58582 0.25158 0.0
C2760 C 0.36313 0.37066 0.30901 0.0
C2761 C 0.35827 0.35594 0.31151 0.0
C2762 C 0.37439 0.37881 0.29803 0.0
C2763 C 0.40624 0.38091 0.27977 0.0
H2764 H 0.4048 0.40798 0.24969 0.0
C2765 C 0.4534 0.41725 0.23569 0.0
C2766 C 0.45651 0.43154 0.23371 0.0
C2767 C 0.44098 0.40712 0.24408 0.0
C2768 C 0.40545 0.40059 0.25814 0.0
H2769 H 0.36125 0.33813 0.30432 0.0
H2770 H 0.38116 0.3525 0.28519 0.0
H2771 H 0.38367 0.39177 0.26605 0.0
H2772 H 0.44927 0.44655 0.23932 0.0
H2773 H 0.42779 0.42904 0.2542 0.0
H2774 H 0.42814 0.39001 0.2723 0.0
C2775 C 0.3762 0.35768 0.29176 0.0
C2776 C 0.39331 0.39126 0.26744 0.0
C2777 C 0.36478 0.34946 0.30263 0.0
C2778 C 0.44703 0.43555 0.24042 0.0
C2779 C 0.43469 0.42548 0.2489 0.0
C2780 C 0.41843 0.39033 0.27056 0.0
C2781 C 0.38115 0.37246 0.28942 0.0
C2782 C 0.39364 0.38146 0.27852 0.0
C2783 C 0.43145 0.41111 0.25076 0.0
C2784 C 0.41825 0.40044 0.2598 0.0
H2785 H 0.35833 0.37596 0.31567 0.0
H2786 H 0.37808 0.3902 0.29662 0.0
H2787 H 0.40683 0.37356 0.28834 0.0
H2788 H 0.46043 0.41382 0.23048 0.0
H2789 H 0.43874 0.39612 0.2451 0.0
C2790 C 0.34336 0.31543 0.38005 0.0
C2791 C 0.33069 0.31056 0.37091 0.0
C2792 C 0.34534 0.30577 0.38943 0.0
C2793 C 0.33253 0.26669 0.39285 0.0
H2794 H 0.3529 0.27868 0.43493 0.0
C2795 C 0.3378 0.22719 0.43624 0.0
C2796 C 0.35129 0.23221 0.44355 0.0
C2797 C 0.33511 0.23659 0.42729 0.0
C2798 C 0.34731 0.27523 0.42312 0.0
H2799 H 0.30995 0.29179 0.36484 0.0
H2800 H 0.31326 0.27495 0.38154 0.0
H2801 H 0.34796 0.2953 0.42019 0.0
H2802 H 0.37255 0.25099 0.44713 0.0
H2803 H 0.36788 0.26742 0.43142 0.0
H2804 H 0.3318 0.24656 0.39591 0.0
C2805 C 0.32181 0.2862 0.38117 0.0
C2806 C 0.34448 0.28474 0.41466 0.0
C2807 C 0.31986 0.29587 0.3717 0.0
C2808 C 0.36209 0.24679 0.44154 0.0
C2809 C 0.35936 0.25622 0.4327 0.0
C2810 C 0.33529 0.25714 0.40137 0.0
C2811 C 0.33466 0.291 0.39 0.0
C2812 C 0.33713 0.28064 0.39936 0.0
C2813 C 0.34582 0.25124 0.42556 0.0
C2814 C 0.34279 0.26133 0.41655 0.0
H2815 H 0.35194 0.32667 0.37964 0.0
H2816 H 0.35544 0.30984 0.39586 0.0
H2817 H 0.32707 0.26324 0.38098 0.0
H2818 H 0.3293 0.21598 0.43745 0.0
H2819 H 0.32454 0.23245 0.42203 0.0
C2820 C 0.6986 0.02765 0.37261 0.0
C2821 C 0.68381 0.02235 0.37174 0.0
C2822 C 0.70739 0.03944 0.38294 0.0
C2823 C 0.71066 0.07198 0.40163 0.0
H2824 H 0.7393 0.07133 0.42945 0.0
C2825 C 0.74973 0.12089 0.44339 0.0
C2826 C 0.76385 0.12375 0.44458 0.0
C2827 C 0.73915 0.10825 0.43541 0.0
C2828 C 0.73148 0.07177 0.42161 0.0
H2829 H 0.66657 0.02515 0.38104 0.0
H2830 H 0.6821 0.04607 0.39898 0.0
H2831 H 0.72214 0.04949 0.41422 0.0
H2832 H 0.77812 0.11599 0.43787 0.0
H2833 H 0.75984 0.09418 0.4236 0.0
H2834 H 0.72029 0.09439 0.40852 0.0
C2835 C 0.68681 0.04099 0.39169 0.0
C2836 C 0.7216 0.05922 0.41298 0.0
C2837 C 0.67794 0.02901 0.38151 0.0
C2838 C 0.76727 0.11393 0.43735 0.0
C2839 C 0.75676 0.10139 0.42925 0.0
C2840 C 0.72065 0.08461 0.41015 0.0
C2841 C 0.70162 0.04631 0.39246 0.0
C2842 C 0.71123 0.05926 0.40274 0.0
C2843 C 0.74252 0.09829 0.42835 0.0
C2844 C 0.73133 0.0847 0.42005 0.0
H2845 H 0.70342 0.02274 0.36524 0.0
H2846 H 0.7188 0.04342 0.38318 0.0
H2847 H 0.70284 0.07232 0.39369 0.0
H2848 H 0.74679 0.12823 0.44901 0.0
H2849 H 0.72828 0.10614 0.4351 0.0
C2850 C 0.9747 0.68125 0.36774 0.0
C2851 C 0.98129 0.6732 0.37088 0.0
C2852 C 0.96322 0.67943 0.37757 0.0
C2853 C 0.93559 0.65349 0.40686 0.0
H2854 H 0.93023 0.68587 0.41634 0.0
C2855 C 0.88337 0.64529 0.43631 0.0
C2856 C 0.88436 0.65597 0.44744 0.0
C2857 C 0.8954 0.64752 0.42733 0.0
C2858 C 0.93163 0.67672 0.41401 0.0
H2859 H 0.98138 0.65732 0.38708 0.0
H2860 H 0.96173 0.65452 0.40459 0.0
H2861 H 0.9512 0.68986 0.40076 0.0
H2862 H 0.8987 0.67715 0.4583 0.0
H2863 H 0.91984 0.68091 0.44307 0.0
H2864 H 0.91633 0.64047 0.42066 0.0
C2865 C 0.96508 0.6619 0.39424 0.0
C2866 C 0.94358 0.67898 0.40482 0.0
C2867 C 0.97642 0.66357 0.38427 0.0
C2868 C 0.89763 0.66883 0.44962 0.0
C2869 C 0.90971 0.67099 0.44083 0.0
C2870 C 0.92374 0.65127 0.41621 0.0
C2871 C 0.9582 0.66967 0.3909 0.0
C2872 C 0.94568 0.66738 0.40105 0.0
C2873 C 0.90874 0.66041 0.42948 0.0
C2874 C 0.92155 0.66284 0.41982 0.0
H2875 H 0.97819 0.6887 0.35744 0.0
H2876 H 0.95808 0.68545 0.37444 0.0
H2877 H 0.93671 0.64424 0.40401 0.0
H2878 H 0.8732 0.63534 0.43428 0.0
H2879 H 0.89415 0.63924 0.41849 0.0
C2880 C 0.38164 0.02794 0.70192 0.0
C2881 C 0.36796 0.01535 0.70124 0.0
C2882 C 0.39265 0.02816 0.71113 0.0
C2883 C 0.40401 0.00383 0.72688 0.0
H2884 H 0.4269 0.03454 0.75873 0.0
C2885 C 0.43972 0.99792 0.77452 0.0
C2886 C 0.45298 0.01019 0.77872 0.0
C2887 C 0.42992 0.99921 0.76467 0.0
C2888 C 0.42077 0.02599 0.7497 0.0
H2889 H 0.35506 0.9932 0.70979 0.0
H2890 H 0.37422 0.99358 0.72562 0.0
H2891 H 0.40894 0.03589 0.74201 0.0
H2892 H 0.46644 0.03343 0.77578 0.0
H2893 H 0.44945 0.03569 0.75827 0.0
H2894 H 0.41581 0.99395 0.7343 0.0
C2895 C 0.37647 0.00324 0.71903 0.0
C2896 C 0.41047 0.02677 0.74017 0.0
C2897 C 0.36548 0.00307 0.71003 0.0
C2898 C 0.45624 0.0238 0.77286 0.0
C2899 C 0.44648 0.02509 0.76287 0.0
C2900 C 0.41437 0.00311 0.73626 0.0
C2901 C 0.3902 0.01574 0.71959 0.0
C2902 C 0.40184 0.01557 0.72886 0.0
C2903 C 0.43319 0.0128 0.75863 0.0
C2904 C 0.42273 0.01405 0.748 0.0
H2905 H 0.38386 0.03757 0.69529 0.0
H2906 H 0.40316 0.03793 0.71133 0.0
H2907 H 0.39766 0.99516 0.71805 0.0
H2908 H 0.43683 0.98732 0.77907 0.0
H2909 H 0.41968 0.98955 0.76199 0.0
C2910 C 0.99128 0.36033 0.70405 0.0
C2911 C 0.00191 0.35665 0.70268 0.0
C2912 C 0.99337 0.37192 0.71414 0.0
C2913 C 0.01494 0.39605 0.74886 0.0
H2914 H 0.00042 0.4197 0.732 0.0
C2915 C 0.02242 0.44823 0.78203 0.0
C2916 C 0.00976 0.44871 0.78356 0.0
C2917 C 0.02264 0.43743 0.77229 0.0
C2918 C 0.00449 0.41316 0.73689 0.0
H2919 H 0.02302 0.36205 0.71105 0.0
H2920 H 0.02685 0.38263 0.72859 0.0
H2921 H 0.99894 0.40016 0.71474 0.0
H2922 H 0.9875 0.4384 0.77601 0.0
H2923 H 0.98792 0.41965 0.75892 0.0
H2924 H 0.02054 0.40927 0.77104 0.0
C2925 C 0.0168 0.37639 0.72196 0.0
C2926 C 0.0036 0.40193 0.72704 0.0
C2927 C 0.01463 0.36465 0.71189 0.0
C2928 C 0.99737 0.43822 0.77516 0.0
C2929 C 0.99764 0.42757 0.76528 0.0
C2930 C 0.01594 0.40742 0.7587 0.0
C2931 C 0.00624 0.38027 0.72299 0.0
C2932 C 0.00849 0.39301 0.73304 0.0
C2933 C 0.01028 0.42709 0.7637 0.0
C2934 C 0.01043 0.41586 0.75291 0.0
H2935 H 0.98129 0.3543 0.69725 0.0
H2936 H 0.98486 0.37433 0.71498 0.0
H2937 H 0.01875 0.38934 0.75388 0.0
H2938 H 0.0321 0.45615 0.78847 0.0
H2939 H 0.03253 0.43731 0.77122 0.0
C2940 C 0.63682 0.65295 0.7119 0.0
C2941 C 0.64433 0.64716 0.70383 0.0
C2942 C 0.62513 0.64425 0.72221 0.0
C2943 C 0.59896 0.60536 0.73043 0.0
H2944 H 0.58977 0.62059 0.76963 0.0
C2945 C 0.55604 0.56864 0.7779 0.0
C2946 C 0.54566 0.57231 0.78199 0.0
C2947 C 0.56834 0.5782 0.76899 0.0
C2948 C 0.5922 0.61625 0.75866 0.0
H2949 H 0.646 0.62801 0.70083 0.0
H2950 H 0.62612 0.61306 0.71928 0.0
H2951 H 0.61112 0.63656 0.75327 0.0
H2952 H 0.54027 0.58909 0.77997 0.0
H2953 H 0.56202 0.60594 0.76483 0.0
H2954 H 0.58023 0.58499 0.73609 0.0
C2955 C 0.62881 0.62411 0.71722 0.0
C2956 C 0.60439 0.62538 0.74924 0.0
C2957 C 0.6403 0.63272 0.70673 0.0
C2958 C 0.5481 0.58596 0.77727 0.0
C2959 C 0.56053 0.59561 0.76855 0.0
C2960 C 0.58694 0.59622 0.73997 0.0
C2961 C 0.62086 0.62965 0.72484 0.0
C2962 C 0.60794 0.62004 0.735 0.0
C2963 C 0.57066 0.59173 0.76417 0.0
C2964 C 0.58345 0.60156 0.75416 0.0
H2965 H 0.63969 0.66406 0.70983 0.0
H2966 H 0.6192 0.64887 0.72772 0.0
H2967 H 0.60109 0.60092 0.71933 0.0
H2968 H 0.55473 0.5584 0.78165 0.0
H2969 H 0.5761 0.57504 0.76595 0.0
C2970 C 0.66043 0.68997 0.63743 0.0
C2971 C 0.67328 0.69435 0.64596 0.0
C2972 C 0.65893 0.69976 0.62774 0.0
C2973 C 0.67438 0.73916 0.62151 0.0
H2974 H 0.65076 0.72561 0.58178 0.0
C2975 C 0.66765 0.77701 0.57651 0.0
C2976 C 0.65342 0.77247 0.57206 0.0
C2977 C 0.67079 0.76782 0.5852 0.0
C2978 C 0.65733 0.72952 0.59289 0.0
H2979 H 0.69478 0.71236 0.65074 0.0
H2980 H 0.69232 0.72943 0.63337 0.0
H2981 H 0.65548 0.70903 0.59689 0.0
H2982 H 0.63133 0.75469 0.57366 0.0
H2983 H 0.63692 0.73855 0.58836 0.0
H2984 H 0.67635 0.75975 0.61722 0.0
C2985 C 0.68327 0.71849 0.63448 0.0
C2986 C 0.66001 0.72002 0.60161 0.0
C2987 C 0.68472 0.70869 0.64435 0.0
C2988 C 0.64244 0.75848 0.57654 0.0
C2989 C 0.64561 0.74923 0.58503 0.0
C2990 C 0.67184 0.74871 0.61265 0.0
C2991 C 0.6703 0.71417 0.62615 0.0
C2992 C 0.66838 0.72463 0.6162 0.0
C2993 C 0.65981 0.7538 0.58944 0.0
C2994 C 0.66311 0.74392 0.5984 0.0
H2995 H 0.65137 0.67902 0.63851 0.0
H2996 H 0.64868 0.69607 0.62183 0.0
H2997 H 0.6807 0.74306 0.6328 0.0
H2998 H 0.67643 0.78759 0.57302 0.0
H2999 H 0.68184 0.77155 0.58832 0.0
C3000 C 0.30403 0.96892 0.65318 0.0
C3001 C 0.31791 0.97949 0.64812 0.0
C3002 C 0.2958 0.95651 0.64346 0.0
C3003 C 0.28873 0.94276 0.6016 0.0
H3004 H 0.27162 0.90487 0.62177 0.0
C3005 C 0.25024 0.89051 0.56467 0.0
C3006 C 0.23844 0.87962 0.57338 0.0
C3007 C 0.26135 0.90234 0.57321 0.0
C3008 C 0.27616 0.91536 0.61597 0.0
H3009 H 0.33403 0.98551 0.62886 0.0
H3010 H 0.31929 0.96383 0.61144 0.0
H3011 H 0.28845 0.92643 0.63772 0.0
H3012 H 0.22888 0.8725 0.59773 0.0
H3013 H 0.24791 0.89337 0.61264 0.0
H3014 H 0.2759 0.93193 0.58019 0.0
C3015 C 0.31497 0.96516 0.62309 0.0
C3016 C 0.28589 0.92766 0.62508 0.0
C3017 C 0.32337 0.97749 0.63304 0.0
C3018 C 0.23795 0.8807 0.59077 0.0
C3019 C 0.24893 0.89264 0.59929 0.0
C3020 C 0.27879 0.93047 0.59256 0.0
C3021 C 0.30117 0.95454 0.62833 0.0
C3022 C 0.2921 0.94147 0.61805 0.0
C3023 C 0.26077 0.90365 0.59063 0.0
C3024 C 0.27219 0.91661 0.59973 0.0
H3025 H 0.29957 0.97016 0.66478 0.0
H3026 H 0.28513 0.94852 0.64766 0.0
H3027 H 0.29331 0.95333 0.59599 0.0
H3028 H 0.25092 0.88982 0.55125 0.0
H3029 H 0.27039 0.91043 0.56614 0.0
C3030 C 0.02963 0.3211 0.64948 0.0
C3031 C 0.02185 0.3278 0.64552 0.0
C3032 C 0.04124 0.32331 0.63962 0.0
C3033 C 0.05656 0.33228 0.59817 0.0
H3034 H 0.09336 0.3477 0.62001 0.0
C3035 C 0.10846 0.35061 0.56039 0.0
C3036 C 0.11914 0.34869 0.56739 0.0
C3037 C 0.09654 0.34811 0.56982 0.0
C3038 C 0.08315 0.34314 0.6137 0.0
H3039 H 0.01975 0.34164 0.62786 0.0
H3040 H 0.03983 0.34513 0.61031 0.0
H3041 H 0.07228 0.34245 0.6364 0.0
H3042 H 0.12571 0.34243 0.58953 0.0
H3043 H 0.10466 0.33743 0.60582 0.0
H3044 H 0.06715 0.33241 0.57557 0.0
C3045 C 0.03702 0.33834 0.62116 0.0
C3046 C 0.0711 0.34023 0.62312 0.0
C3047 C 0.02559 0.33637 0.63122 0.0
C3048 C 0.11768 0.34414 0.58394 0.0
C3049 C 0.10563 0.34137 0.59327 0.0
C3050 C 0.06855 0.33492 0.58877 0.0
C3051 C 0.04508 0.332 0.62544 0.0
C3052 C 0.05773 0.33482 0.61543 0.0
C3053 C 0.09489 0.34336 0.58638 0.0
C3054 C 0.08205 0.34045 0.59639 0.0
H3055 H 0.02701 0.31447 0.66046 0.0
H3056 H 0.04726 0.31825 0.6431 0.0
H3057 H 0.04631 0.32801 0.592 0.0
H3058 H 0.10944 0.35423 0.54768 0.0
H3059 H 0.08871 0.35008 0.56414 0.0
C3060 C 0.30516 0.33378 0.63515 0.0
C3061 C 0.30085 0.3256 0.64978 0.0
C3062 C 0.2951 0.33448 0.62516 0.0
C3063 C 0.26179 0.33391 0.62708 0.0
H3064 H 0.25901 0.3256 0.57965 0.0
C3065 C 0.22086 0.3384 0.58616 0.0
C3066 C 0.22494 0.34327 0.56982 0.0
C3067 C 0.22937 0.33507 0.59588 0.0
C3068 C 0.25977 0.32819 0.59282 0.0
H3069 H 0.28267 0.31169 0.66544 0.0
H3070 H 0.26506 0.31332 0.64814 0.0
H3071 H 0.27535 0.32192 0.59659 0.0
H3072 H 0.24113 0.34877 0.55082 0.0
H3073 H 0.25638 0.34366 0.56794 0.0
H3074 H 0.24687 0.34092 0.62337 0.0
C3075 C 0.27622 0.319 0.64437 0.0
C3076 C 0.26905 0.32595 0.60252 0.0
C3077 C 0.28626 0.31803 0.65419 0.0
C3078 C 0.23771 0.34488 0.56336 0.0
C3079 C 0.24637 0.34183 0.57317 0.0
C3080 C 0.25272 0.33644 0.61735 0.0
C3081 C 0.28058 0.32726 0.6298 0.0
C3082 C 0.27017 0.32884 0.6197 0.0
C3083 C 0.24231 0.33683 0.58956 0.0
C3084 C 0.25163 0.33369 0.60005 0.0
H3085 H 0.31634 0.33968 0.63144 0.0
H3086 H 0.29871 0.34098 0.61403 0.0
H3087 H 0.26262 0.33637 0.64031 0.0
H3088 H 0.21097 0.33695 0.59133 0.0
H3089 H 0.22571 0.33099 0.60829 0.0
C3090 C 0.65123 0.97406 0.63121 0.0
C3091 C 0.66074 0.97691 0.64445 0.0
C3092 C 0.64604 0.96134 0.6216 0.0
C3093 C 0.63863 0.92431 0.6237 0.0
H3094 H 0.64592 0.92623 0.5762 0.0
C3095 C 0.63994 0.87846 0.58813 0.0
C3096 C 0.63566 0.87561 0.57137 0.0
C3097 C 0.64044 0.89012 0.59668 0.0
C3098 C 0.64349 0.92542 0.58938 0.0
H3099 H 0.67222 0.96874 0.65807 0.0
H3100 H 0.66293 0.9465 0.64159 0.0
H3101 H 0.65136 0.94822 0.59172 0.0
H3102 H 0.6282 0.88262 0.55057 0.0
H3103 H 0.62864 0.90272 0.56569 0.0
H3104 H 0.63082 0.90161 0.62155 0.0
C3105 C 0.65955 0.95408 0.63859 0.0
C3106 C 0.64665 0.93803 0.59824 0.0
C3107 C 0.66492 0.96686 0.64793 0.0
C3108 C 0.63145 0.88444 0.56352 0.0
C3109 C 0.63187 0.89608 0.57212 0.0
C3110 C 0.63529 0.91169 0.61484 0.0
C3111 C 0.65005 0.95119 0.62537 0.0
C3112 C 0.64465 0.93763 0.61555 0.0
C3113 C 0.63654 0.89917 0.58876 0.0
C3114 C 0.63812 0.91216 0.59766 0.0
H3115 H 0.64787 0.98167 0.62825 0.0
H3116 H 0.63874 0.95932 0.61142 0.0
H3117 H 0.63683 0.92373 0.63703 0.0
H3118 H 0.64303 0.87176 0.59466 0.0
H3119 H 0.64431 0.89226 0.60939 0.0
C3120 C 0.0253 0.68144 0.63377 0.0
C3121 C 0.02294 0.68704 0.64859 0.0
C3122 C 0.03748 0.69006 0.62405 0.0
C3123 C 0.07419 0.71985 0.62649 0.0
H3124 H 0.06998 0.72949 0.58143 0.0
C3125 C 0.1213 0.76711 0.59208 0.0
C3126 C 0.12211 0.76633 0.5747 0.0
C3127 C 0.10935 0.75643 0.60064 0.0
C3128 C 0.07145 0.72671 0.59385 0.0
H3129 H 0.03147 0.70588 0.66502 0.0
H3130 H 0.05291 0.72071 0.64833 0.0
H3131 H 0.04881 0.7121 0.59699 0.0
H3132 H 0.11144 0.75364 0.55262 0.0
H3133 H 0.09087 0.73461 0.56754 0.0
H3134 H 0.09675 0.7341 0.62345 0.0
C3135 C 0.04529 0.70976 0.64415 0.0
C3136 C 0.05928 0.71678 0.60276 0.0
C3137 C 0.033 0.7013 0.65362 0.0
C3138 C 0.11095 0.75453 0.56603 0.0
C3139 C 0.09913 0.74369 0.57461 0.0
C3140 C 0.08639 0.72954 0.61751 0.0
C3141 C 0.04761 0.70424 0.62927 0.0
C3142 C 0.06054 0.7135 0.61924 0.0
C3143 C 0.09808 0.74455 0.59204 0.0
C3144 C 0.08518 0.73336 0.60117 0.0
H3145 H 0.01767 0.67049 0.62961 0.0
H3146 H 0.03909 0.68563 0.61259 0.0
H3147 H 0.0754 0.71736 0.63918 0.0
H3148 H 0.12973 0.77619 0.599 0.0
H3149 H 0.10886 0.7577 0.61399 0.0
C3150 C 0.97669 0.62335 0.70271 0.0
C3151 C 0.98851 0.6376 0.70263 0.0
C3152 C 0.97682 0.6128 0.71259 0.0
C3153 C 0.99591 0.60865 0.74841 0.0
H3154 H 0.98066 0.56975 0.73044 0.0
C3155 C 0.00876 0.56778 0.77696 0.0
C3156 C 0.99721 0.55358 0.77918 0.0
C3157 C 0.00698 0.57772 0.76787 0.0
C3158 C 0.98484 0.58053 0.73568 0.0
H3159 H 0.00973 0.65196 0.71284 0.0
H3160 H 0.01011 0.63361 0.72966 0.0
H3161 H 0.97865 0.58769 0.71432 0.0
H3162 H 0.97484 0.53855 0.77333 0.0
H3163 H 0.97176 0.55594 0.75732 0.0
H3164 H 0.0024 0.60155 0.76957 0.0
C3165 C 0.00058 0.63057 0.72245 0.0
C3166 C 0.98364 0.59081 0.72648 0.0
C3167 C 0.0004 0.6411 0.71269 0.0
C3168 C 0.9839 0.54946 0.77192 0.0
C3169 C 0.98217 0.55937 0.76267 0.0
C3170 C 0.99721 0.59842 0.75751 0.0
C3171 C 0.98881 0.61627 0.72252 0.0
C3172 C 0.98929 0.60505 0.73266 0.0
C3173 C 0.99366 0.57364 0.76066 0.0
C3174 C 0.9918 0.5843 0.75119 0.0
H3175 H 0.96735 0.62034 0.69511 0.0
H3176 H 0.9675 0.60195 0.71249 0.0
H3177 H 0.0001 0.61939 0.75375 0.0
H3178 H 0.0191 0.57129 0.78252 0.0
H3179 H 0.01607 0.58861 0.76639 0.0
C3180 C 0.34518 0.36204 0.71799 0.0
C3181 C 0.35087 0.35815 0.70446 0.0
C3182 C 0.35406 0.3744 0.72766 0.0
C3183 C 0.38711 0.40957 0.72506 0.0
H3184 H 0.38863 0.40837 0.77318 0.0
C3185 C 0.43209 0.45663 0.76272 0.0
C3186 C 0.42891 0.46006 0.77853 0.0
C3187 C 0.42191 0.4443 0.754 0.0
C3188 C 0.38817 0.40898 0.75977 0.0
H3189 H 0.37029 0.364 0.69057 0.0
H3190 H 0.38566 0.38561 0.70725 0.0
H3191 H 0.37176 0.38652 0.75755 0.0
H3192 H 0.41241 0.4531 0.79755 0.0
H3193 H 0.39445 0.43195 0.78202 0.0
H3194 H 0.40327 0.43198 0.72711 0.0
C3195 C 0.37438 0.37914 0.71038 0.0
C3196 C 0.37854 0.39644 0.75085 0.0
C3197 C 0.36558 0.36672 0.70089 0.0
C3198 C 0.41519 0.45091 0.78531 0.0
C3199 C 0.40494 0.43864 0.7765 0.0
C3200 C 0.39659 0.42213 0.73396 0.0
C3201 C 0.3687 0.38315 0.72377 0.0
C3202 C 0.37811 0.39659 0.7334 0.0
C3203 C 0.40819 0.43515 0.76075 0.0
C3204 C 0.39743 0.42196 0.75141 0.0
H3205 H 0.33387 0.3556 0.72103 0.0
H3206 H 0.34944 0.3773 0.73792 0.0
H3207 H 0.38682 0.41001 0.71161 0.0
H3208 H 0.44246 0.4635 0.75699 0.0
H3209 H 0.42491 0.44186 0.74202 0.0
C3210 C 0.64217 0.00143 0.71147 0.0
C3211 C 0.65127 0.0134 0.70162 0.0
C3212 C 0.63221 0.00188 0.72216 0.0
C3213 C 0.61263 0.02127 0.72929 0.0
H3214 H 0.60308 0.0011 0.77134 0.0
C3215 C 0.57301 0.02265 0.77706 0.0
C3216 C 0.56252 0.00909 0.78323 0.0
C3217 C 0.5845 0.024 0.76763 0.0
C3218 C 0.6056 0.00672 0.7596 0.0
H3219 H 0.65731 0.0354 0.69551 0.0
H3220 H 0.64011 0.03635 0.71453 0.0
H3221 H 0.6224 0.00243 0.7543 0.0
H3222 H 0.55591 0.98638 0.78463 0.0
H3223 H 0.57607 0.98875 0.76823 0.0
H3224 H 0.59586 0.02564 0.73476 0.0
C3225 C 0.64047 0.02647 0.71373 0.0
C3226 C 0.61664 0.00746 0.7498 0.0
C3227 C 0.65038 0.02597 0.7029 0.0
C3228 C 0.5638 0.99693 0.77992 0.0
C3229 C 0.57538 0.99831 0.77068 0.0
C3230 C 0.60169 0.02066 0.73919 0.0
C3231 C 0.63118 0.01438 0.7234 0.0
C3232 C 0.62015 0.01455 0.73439 0.0
C3233 C 0.58582 0.01185 0.76439 0.0
C3234 C 0.59794 0.0132 0.75432 0.0
H3235 H 0.64253 0.99154 0.7107 0.0
H3236 H 0.62507 0.99226 0.72916 0.0
H3237 H 0.61489 0.02664 0.71741 0.0
H3238 H 0.57221 0.03217 0.77933 0.0
H3239 H 0.59244 0.03456 0.763 0.0
loop_
_geom_bond_atom_site_label_1
_geom_bond_atom_site_label_2
_geom_bond_distance
_geom_bond_site_symmetry_2
_ccdc_geom_bond_type
Co0 O1 2.216 . S
Co0 O2 2.091 . S
Co0 O4 2.004 1_554 S
Co0 O10 2.021 . S
Co0 O12 2.137 1_454 S
Co0 O13 2.244 1_455 S
O1 Co0 2.216 . S
O1 C8 1.247 . S
O2 Co0 2.091 . S
O2 C8 1.261 . S
C3 O12 1.247 . S
C3 O13 1.272 1_556 S
O4 Co0 2.004 1_556 S
O4 C9 1.259 . S
Co5 O6 2.061 1_554 S
Co5 O11 2.052 . S
Co5 O13 2.135 . S
O6 Co5 2.061 1_556 S
O6 C9 1.235 1_655 S
C7 O10 1.238 1_655 S
C7 O11 1.241 . S
C8 O1 1.247 . S
C8 O2 1.261 . S
C9 O4 1.259 . S
C9 O6 1.235 1_455 S
O10 Co0 2.021 . S
O10 C7 1.238 1_455 S
O11 Co5 2.052 . S
O11 C7 1.241 . S
O12 Co0 2.137 1_656 S
O12 C3 1.247 . S
O13 Co0 2.244 1_655 S
O13 C3 1.272 1_554 S
O13 Co5 2.135 . S
Co14 O15 2.216 1_554 S
Co14 O16 2.091 . S
Co14 O18 2.004 . S
Co14 O24 2.021 1_554 S
Co14 O26 2.137 . S
Co14 O27 2.244 . S
O15 Co14 2.216 1_556 S
O15 C22 1.247 . S
O16 Co14 2.091 . S
O16 C22 1.261 1_554 S
C17 O26 1.247 . S
C17 O27 1.272 . S
O18 Co14 2.004 . S
O18 C23 1.259 . S
Co19 O20 2.061 . S
Co19 O25 2.052 1_554 S
Co19 O27 2.135 . S
O20 Co19 2.061 . S
O20 C23 1.235 . S
C21 O24 1.238 . S
C21 O25 1.241 . S
C22 O15 1.247 . S
C22 O16 1.261 1_556 S
C23 O18 1.259 . S
C23 O20 1.235 . S
O24 Co14 2.021 1_556 S
O24 C21 1.238 . S
O25 Co19 2.052 1_556 S
O25 C21 1.241 . S
O26 Co14 2.137 . S
O26 C17 1.247 . S
O27 Co14 2.244 . S
O27 C17 1.272 . S
O27 Co19 2.135 . S
Co28 O29 2.216 1_554 S
Co28 O30 2.091 . S
Co28 O32 2.004 . S
Co28 O38 2.021 1_554 S
Co28 O40 2.137 . S
Co28 O41 2.244 1_545 S
O29 Co28 2.216 1_556 S
O29 C36 1.247 . S
O30 Co28 2.091 . S
O30 C36 1.261 1_554 S
C31 O40 1.247 1_565 S
C31 O41 1.272 . S
O32 Co28 2.004 . S
O32 C37 1.259 . S
Co33 O34 2.061 . S
Co33 O39 2.052 1_554 S
Co33 O41 2.135 . S
O34 Co33 2.061 . S
O34 C37 1.235 1_565 S
C35 O38 1.228 1_565 S
C35 O39 1.250 . S
C36 O29 1.247 . S
C36 O30 1.261 1_556 S
C37 O32 1.259 . S
C37 O34 1.235 1_545 S
O38 Co28 2.021 1_556 S
O38 C35 1.228 1_545 S
O39 Co33 2.052 1_556 S
O39 C35 1.250 . S
O40 Co28 2.137 . S
O40 C31 1.247 1_545 S
O41 Co28 2.244 1_565 S
O41 C31 1.272 . S
O41 Co33 2.135 . S
Co42 O43 2.216 1_554 S
Co42 O44 2.091 . S
Co42 O46 2.004 . S
Co42 O52 2.021 1_554 S
Co42 O54 2.137 1_655 S
Co42 O55 2.244 1_655 S
O43 Co42 2.216 1_556 S
O43 C50 1.247 . S
O44 Co42 2.091 . S
O44 C50 1.261 1_554 S
C45 O54 1.247 . S
C45 O55 1.272 . S
O46 Co42 2.004 . S
O46 C51 1.295 . S
Co47 O48 2.061 . S
Co47 O53 2.052 1_554 S
Co47 O55 2.135 . S
O48 Co47 2.061 . S
O48 C51 1.198 1_455 S
C49 O52 1.238 1_455 S
C49 O53 1.241 . S
C50 O43 1.247 . S
C50 O44 1.261 1_556 S
C51 O46 1.295 . S
C51 O48 1.198 1_655 S
O52 Co42 2.021 1_556 S
O52 C49 1.238 1_655 S
O53 Co47 2.052 1_556 S
O53 C49 1.241 . S
O54 Co42 2.137 1_455 S
O54 C45 1.247 . S
O55 Co42 2.244 1_455 S
O55 C45 1.272 . S
O55 Co47 2.135 . S
Co56 O57 2.216 . S
Co56 O58 2.091 . S
Co56 O60 2.004 1_554 S
Co56 O66 2.021 . S
Co56 O68 2.137 1_554 S
Co56 O69 2.249 . S
O57 Co56 2.216 . S
O57 C64 1.247 . S
O58 Co56 2.091 . S
O58 C64 1.261 . S
C59 O68 1.247 . S
C59 O69 1.260 1_556 S
O60 Co56 2.004 1_556 S
O60 C65 1.259 . S
Co61 O62 2.097 . S
Co61 O67 1.991 1_556 S
Co61 O69 2.132 1_556 S
O62 Co61 2.097 . S
O62 C65 1.235 . S
C63 O66 1.238 . S
C63 O67 1.241 . S
C64 O57 1.247 . S
C64 O58 1.261 . S
C65 O60 1.259 . S
C65 O62 1.235 . S
O66 Co56 2.021 . S
O66 C63 1.238 . S
O67 Co61 1.991 1_554 S
O67 C63 1.241 . S
O68 Co56 2.137 1_556 S
O68 C59 1.247 . S
O69 Co56 2.249 . S
O69 C59 1.260 1_554 S
O69 Co61 2.132 1_554 S
Co70 O71 2.216 . S
Co70 O72 2.091 . S
Co70 O74 2.004 1_554 S
Co70 O80 2.021 . S
Co70 O82 2.137 1_564 S
Co70 O83 2.244 1_565 S
O71 Co70 2.216 . S
O71 C78 1.247 . S
O72 Co70 2.091 . S
O72 C78 1.261 . S
C73 O82 1.247 . S
C73 O83 1.272 1_556 S
O74 Co70 2.004 1_556 S
O74 C79 1.295 . S
Co75 O76 2.061 1_554 S
Co75 O81 2.052 . S
Co75 O83 2.135 . S
O76 Co75 2.061 1_556 S
O76 C79 1.199 1_545 S
C77 O80 1.238 1_545 S
C77 O81 1.241 . S
C78 O71 1.247 . S
C78 O72 1.261 . S
C79 O74 1.295 . S
C79 O76 1.199 1_565 S
O80 Co70 2.021 . S
O80 C77 1.238 1_565 S
O81 Co75 2.052 . S
O81 C77 1.241 . S
O82 Co70 2.137 1_546 S
O82 C73 1.247 . S
O83 Co70 2.244 1_545 S
O83 C73 1.272 1_554 S
O83 Co75 2.135 . S
Co84 O85 2.216 . S
Co84 O86 2.091 . S
Co84 O88 2.004 . S
Co84 O94 2.021 . S
Co84 O96 2.137 . S
Co84 O97 2.244 . S
O85 Co84 2.216 . S
O85 C92 1.247 . S
O86 Co84 2.091 . S
O86 C92 1.261 . S
C87 O96 1.247 . S
C87 O97 1.272 . S
O88 Co84 2.004 . S
O88 C93 1.259 . S
Co89 O90 2.061 . S
Co89 O95 2.052 . S
Co89 O97 2.135 . S
O90 Co89 2.061 . S
O90 C93 1.235 . S
C91 O94 1.238 . S
C91 O95 1.241 . S
C92 O85 1.247 . S
C92 O86 1.261 . S
C93 O88 1.259 . S
C93 O90 1.235 . S
O94 Co84 2.021 . S
O94 C91 1.238 . S
O95 Co89 2.052 . S
O95 C91 1.241 . S
O96 Co84 2.137 . S
O96 C87 1.247 . S
O97 Co84 2.244 . S
O97 C87 1.272 . S
O97 Co89 2.135 . S
Co98 O99 2.216 . S
Co98 O100 2.091 . S
Co98 O102 2.004 . S
Co98 O108 2.021 . S
Co98 O110 2.137 1_565 S
Co98 O111 2.240 . S
O99 Co98 2.216 . S
O99 C106 1.247 . S
O100 Co98 2.091 . S
O100 C106 1.261 . S
C101 O110 1.247 . S
C101 O111 1.272 1_545 S
O102 Co98 2.004 . S
O102 C107 1.259 . S
Co103 O104 2.061 . S
Co103 O109 2.052 . S
Co103 O111 2.134 . S
O104 Co103 2.061 . S
O104 C107 1.235 . S
C105 O108 1.238 . S
C105 O109 1.241 . S
C106 O99 1.247 . S
C106 O100 1.261 . S
C107 O102 1.259 . S
C107 O104 1.235 . S
O108 Co98 2.021 . S
O108 C105 1.238 . S
O109 Co103 2.052 . S
O109 C105 1.241 . S
O110 Co98 2.137 1_545 S
O110 C101 1.247 . S
O111 Co98 2.240 . S
O111 C101 1.272 1_565 S
O111 Co103 2.134 . S
Co112 O113 2.216 . S
Co112 O114 2.091 . S
Co112 O116 2.004 . S
Co112 O122 2.021 . S
Co112 O124 2.137 . S
Co112 O125 2.244 . S
O113 Co112 2.216 . S
O113 C120 1.247 . S
O114 Co112 2.091 . S
O114 C120 1.261 . S
C115 O124 1.247 1_655 S
C115 O125 1.272 1_655 S
O116 Co112 2.004 . S
O116 C121 1.259 . S
Co117 O118 2.061 . S
Co117 O123 2.052 . S
Co117 O125 2.135 . S
O118 Co117 2.061 . S
O118 C121 1.235 . S
C119 O122 1.238 . S
C119 O123 1.241 . S
C120 O113 1.247 . S
C120 O114 1.261 . S
C121 O116 1.259 . S
C121 O118 1.235 . S
O122 Co112 2.021 . S
O122 C119 1.238 . S
O123 Co117 2.052 . S
O123 C119 1.241 . S
O124 Co112 2.137 . S
O124 C115 1.247 1_455 S
O125 Co112 2.244 . S
O125 C115 1.272 1_455 S
O125 Co117 2.135 . S
Co126 O127 2.216 . S
Co126 O128 2.091 . S
Co126 O130 2.004 . S
Co126 O136 2.021 . S
Co126 O138 2.137 1_565 S
Co126 O139 2.249 . S
O127 Co126 2.216 . S
O127 C134 1.247 . S
O128 Co126 2.091 . S
O128 C134 1.261 . S
C129 O138 1.247 . S
C129 O139 1.245 1_545 S
O130 Co126 2.004 . S
O130 C135 1.259 . S
Co131 O132 2.061 . S
Co131 O137 2.052 . S
Co131 O139 2.165 . S
O132 Co131 2.061 . S
O132 C135 1.235 . S
C133 O136 1.238 . S
C133 O137 1.241 . S
C134 O127 1.247 . S
C134 O128 1.261 . S
C135 O130 1.259 . S
C135 O132 1.235 . S
O136 Co126 2.021 . S
O136 C133 1.238 . S
O137 Co131 2.052 . S
O137 C133 1.241 . S
O138 Co126 2.137 1_545 S
O138 C129 1.247 . S
O139 Co126 2.249 . S
O139 C129 1.245 1_565 S
O139 Co131 2.165 . S
Co140 O141 2.216 1_455 S
Co140 O142 2.091 1_455 S
Co140 O144 2.004 . S
Co140 O150 2.021 . S
Co140 O152 2.138 1_455 S
Co140 O153 2.244 . S
O141 Co140 2.216 1_655 S
O141 C148 1.247 . S
O142 Co140 2.091 1_655 S
O142 C148 1.261 . S
C143 O152 1.250 1_455 S
C143 O153 1.272 . S
O144 Co140 2.004 . S
O144 C149 1.259 . S
Co145 O146 2.061 . S
Co145 O151 2.052 . S
Co145 O153 2.135 . S
O146 Co145 2.061 . S
O146 C149 1.235 . S
C147 O150 1.238 . S
C147 O151 1.241 . S
C148 O141 1.247 . S
C148 O142 1.261 . S
C149 O144 1.259 . S
C149 O146 1.235 . S
O150 Co140 2.021 . S
O150 C147 1.238 . S
O151 Co145 2.052 . S
O151 C147 1.241 . S
O152 Co140 2.138 1_655 S
O152 C143 1.250 1_655 S
O153 Co140 2.244 . S
O153 C143 1.272 . S
O153 Co145 2.135 . S
Co154 O155 2.216 . S
Co154 O156 2.091 . S
Co154 O158 2.004 . S
Co154 O164 2.021 . S
Co154 O166 2.137 . S
Co154 O167 2.244 . S
O155 Co154 2.216 . S
O155 C162 1.247 . S
O156 Co154 2.091 . S
O156 C162 1.261 . S
C157 O166 1.247 . S
C157 O167 1.272 . S
O158 Co154 2.004 . S
O158 C163 1.259 . S
Co159 O160 2.061 . S
Co159 O165 2.052 . S
Co159 O167 2.135 . S
O160 Co159 2.061 . S
O160 C163 1.235 . S
C161 O164 1.238 . S
C161 O165 1.241 . S
C162 O155 1.247 . S
C162 O156 1.261 . S
C163 O158 1.259 . S
C163 O160 1.235 . S
O164 Co154 2.021 . S
O164 C161 1.238 . S
O165 Co159 2.052 . S
O165 C161 1.241 . S
O166 Co154 2.137 . S
O166 C157 1.247 . S
O167 Co154 2.244 . S
O167 C157 1.272 . S
O167 Co159 2.135 . S
Co168 O169 2.216 . S
Co168 O170 2.091 . S
Co168 O172 2.004 . S
Co168 O178 2.021 . S
Co168 O180 2.154 . S
Co168 O181 2.244 . S
O169 Co168 2.216 . S
O169 C176 1.247 . S
O170 Co168 2.091 . S
O170 C176 1.261 . S
C171 O180 1.253 1_565 S
C171 O181 1.272 1_565 S
O172 Co168 2.004 . S
O172 C177 1.259 . S
Co173 O174 2.061 . S
Co173 O179 2.052 . S
Co173 O181 2.135 . S
O174 Co173 2.061 . S
O174 C177 1.235 . S
C175 O178 1.238 . S
C175 O179 1.241 . S
C176 O169 1.247 . S
C176 O170 1.261 . S
C177 O172 1.259 . S
C177 O174 1.235 . S
O178 Co168 2.021 . S
O178 C175 1.238 . S
O179 Co173 2.052 . S
O179 C175 1.241 . S
O180 Co168 2.154 . S
O180 C171 1.253 1_545 S
O181 Co168 2.244 . S
O181 C171 1.272 1_545 S
O181 Co173 2.135 . S
Co182 O183 2.216 1_655 S
Co182 O184 2.091 1_655 S
Co182 O186 2.004 . S
Co182 O192 2.021 . S
Co182 O194 2.137 1_655 S
Co182 O195 2.244 . S
O183 Co182 2.216 1_455 S
O183 C190 1.247 . S
O184 Co182 2.091 1_455 S
O184 C190 1.261 . S
C185 O194 1.247 1_655 S
C185 O195 1.272 . S
O186 Co182 2.004 . S
O186 C191 1.259 . S
Co187 O188 2.061 . S
Co187 O193 2.052 . S
Co187 O195 2.135 . S
O188 Co187 2.061 . S
O188 C191 1.235 . S
C189 O192 1.238 . S
C189 O193 1.241 . S
C190 O183 1.247 . S
C190 O184 1.261 . S
C191 O186 1.259 . S
C191 O188 1.235 . S
O192 Co182 2.021 . S
O192 C189 1.238 . S
O193 Co187 2.052 . S
O193 C189 1.241 . S
O194 Co182 2.137 1_455 S
O194 C185 1.247 1_455 S
O195 Co182 2.244 . S
O195 C185 1.272 . S
O195 Co187 2.135 . S
Co196 O197 2.216 . S
Co196 O198 2.091 . S
Co196 O200 2.004 . S
Co196 O206 2.021 . S
Co196 O208 2.137 . S
Co196 O209 2.244 . S
O197 Co196 2.216 . S
O197 C204 1.247 . S
O198 Co196 2.091 . S
O198 C204 1.261 . S
C199 O208 1.247 . S
C199 O209 1.272 . S
O200 Co196 2.004 . S
O200 C205 1.259 . S
Co201 O202 2.061 . S
Co201 O207 2.052 . S
Co201 O209 2.135 . S
O202 Co201 2.061 . S
O202 C205 1.235 . S
C203 O206 1.238 . S
C203 O207 1.241 . S
C204 O197 1.247 . S
C204 O198 1.261 . S
C205 O200 1.259 . S
C205 O202 1.235 . S
O206 Co196 2.021 . S
O206 C203 1.238 . S
O207 Co201 2.052 . S
O207 C203 1.241 . S
O208 Co196 2.137 . S
O208 C199 1.247 . S
O209 Co196 2.244 . S
O209 C199 1.272 . S
O209 Co201 2.135 . S
Co210 O211 2.216 . S
Co210 O212 2.091 . S
Co210 O214 2.004 . S
Co210 O220 2.021 . S
Co210 O222 2.137 . S
Co210 O223 2.244 . S
O211 Co210 2.216 . S
O211 C218 1.247 . S
O212 Co210 2.091 . S
O212 C218 1.261 . S
C213 O222 1.247 . S
C213 O223 1.272 . S
O214 Co210 2.004 . S
O214 C219 1.259 . S
Co215 O216 2.061 . S
Co215 O221 2.052 . S
Co215 O223 2.135 . S
O216 Co215 2.061 . S
O216 C219 1.235 . S
C217 O220 1.238 . S
C217 O221 1.241 . S
C218 O211 1.247 . S
C218 O212 1.261 . S
C219 O214 1.259 . S
C219 O216 1.235 . S
O220 Co210 2.021 . S
O220 C217 1.238 . S
O221 Co215 2.052 . S
O221 C217 1.241 . S
O222 Co210 2.137 . S
O222 C213 1.247 . S
O223 Co210 2.244 . S
O223 C213 1.272 . S
O223 Co215 2.135 . S
Co224 O225 2.216 . S
Co224 O226 2.091 . S
Co224 O228 2.004 . S
Co224 O234 2.021 . S
Co224 O236 2.136 . S
Co224 O237 2.244 . S
O225 Co224 2.216 . S
O225 C232 1.247 . S
O226 Co224 2.091 . S
O226 C232 1.261 . S
C227 O236 1.249 1_565 S
C227 O237 1.272 1_565 S
O228 Co224 2.004 . S
O228 C233 1.259 . S
Co229 O230 2.061 . S
Co229 O235 2.052 . S
Co229 O237 2.135 . S
O230 Co229 2.061 . S
O230 C233 1.235 . S
C231 O234 1.238 . S
C231 O235 1.241 . S
C232 O225 1.247 . S
C232 O226 1.261 . S
C233 O228 1.259 . S
C233 O230 1.235 . S
O234 Co224 2.021 . S
O234 C231 1.238 . S
O235 Co229 2.052 . S
O235 C231 1.241 . S
O236 Co224 2.136 . S
O236 C227 1.249 1_545 S
O237 Co224 2.244 . S
O237 C227 1.272 1_545 S
O237 Co229 2.135 . S
Co238 O239 2.216 . S
Co238 O240 2.091 . S
Co238 O242 2.004 . S
Co238 O248 2.021 . S
Co238 O250 2.159 . S
Co238 O251 2.244 . S
O239 Co238 2.216 . S
O239 C246 1.247 . S
O240 Co238 2.091 . S
O240 C246 1.261 . S
C241 O250 1.254 1_455 S
C241 O251 1.272 1_455 S
O242 Co238 2.004 . S
O242 C247 1.259 . S
Co243 O244 2.061 . S
Co243 O249 2.052 . S
Co243 O251 2.135 . S
O244 Co243 2.061 . S
O244 C247 1.235 . S
C245 O248 1.238 . S
C245 O249 1.241 . S
C246 O239 1.247 . S
C246 O240 1.261 . S
C247 O242 1.259 . S
C247 O244 1.235 . S
O248 Co238 2.021 . S
O248 C245 1.238 . S
O249 Co243 2.052 . S
O249 C245 1.241 . S
O250 Co238 2.159 . S
O250 C241 1.254 1_655 S
O251 Co238 2.244 . S
O251 C241 1.272 1_655 S
O251 Co243 2.135 . S
C252 C253 1.384 . S
C252 C254 1.384 . S
C252 H280 0.931 . S
C253 C252 1.384 . S
C253 C256 1.382 . S
C254 C252 1.384 . S
C254 C255 1.381 . S
C254 H281 0.930 . S
C255 C254 1.381 . S
C255 C257 1.381 . S
C255 C258 1.487 . S
C256 C253 1.382 . S
C256 C257 1.387 . S
C256 H282 0.930 . S
C257 C255 1.381 . S
C257 C256 1.387 . S
C257 H283 0.931 . S
C258 C255 1.487 . S
C258 C265 1.399 . S
C258 N296 1.343 . S
C259 C260 1.384 . S
C259 C261 1.384 . S
C259 H284 0.931 . S
C260 C259 1.384 . S
C260 C263 1.382 . S
C261 C259 1.384 . S
C261 C262 1.381 . S
C261 H285 0.930 . S
C262 C261 1.381 . S
C262 C264 1.381 . S
C262 C265 1.487 . S
C263 C260 1.382 . S
C263 C264 1.387 . S
C263 H286 0.930 . S
C264 C262 1.381 . S
C264 C263 1.387 . S
C264 H287 0.931 . S
C265 C258 1.399 . S
C265 C262 1.487 . S
C265 N297 1.343 . S
C266 C267 1.384 . S
C266 C268 1.384 . S
C266 H288 0.931 . S
C267 C266 1.384 . S
C267 C270 1.382 . S
C268 C266 1.384 . S
C268 C269 1.381 . S
C268 H289 0.930 . S
C269 C268 1.381 . S
C269 C271 1.381 . S
C269 C272 1.487 . S
C270 C267 1.382 . S
C270 C271 1.387 . S
C270 H290 0.930 . S
C271 C269 1.381 . S
C271 C270 1.387 . S
C271 H291 0.931 . S
C272 C269 1.487 . S
C272 C279 1.399 . S
C272 N297 1.343 . S
C273 C274 1.384 . S
C273 C275 1.384 . S
C273 H292 0.931 . S
C274 C273 1.384 . S
C274 C277 1.382 . S
C275 C273 1.384 . S
C275 C276 1.381 . S
C275 H293 0.930 . S
C276 C275 1.381 . S
C276 C278 1.381 . S
C276 C279 1.487 . S
C277 C274 1.382 . S
C277 C278 1.387 . S
C277 H294 0.930 . S
C278 C276 1.381 . S
C278 C277 1.387 . S
C278 H295 0.931 . S
C279 C272 1.399 . S
C279 C276 1.487 . S
C279 N296 1.343 . S
H280 C252 0.931 . S
H281 C254 0.930 . S
H282 C256 0.930 . S
H283 C257 0.931 . S
H284 C259 0.931 . S
H285 C261 0.930 . S
H286 C263 0.930 . S
H287 C264 0.931 . S
H288 C266 0.931 . S
H289 C268 0.930 . S
H290 C270 0.930 . S
H291 C271 0.931 . S
H292 C273 0.931 . S
H293 C275 0.930 . S
H294 C277 0.930 . S
H295 C278 0.931 . S
N296 C258 1.343 . S
N296 C279 1.343 . S
N297 C265 1.343 . S
N297 C272 1.343 . S
C298 C299 1.384 . S
C298 C300 1.384 . S
C298 H326 0.931 . S
C299 C298 1.384 . S
C299 C302 1.382 . S
C300 C298 1.384 . S
C300 C301 1.381 . S
C300 H327 0.930 . S
C301 C300 1.381 . S
C301 C303 1.381 . S
C301 C304 1.487 . S
C302 C299 1.382 . S
C302 C303 1.387 . S
C302 H328 0.930 . S
C303 C301 1.381 . S
C303 C302 1.387 . S
C303 H329 0.931 . S
C304 C301 1.487 . S
C304 C311 1.399 . S
C304 N342 1.343 . S
C305 C306 1.384 . S
C305 C307 1.384 . S
C305 H330 0.931 . S
C306 C305 1.384 . S
C306 C309 1.382 . S
C307 C305 1.384 . S
C307 C308 1.381 . S
C307 H331 0.930 . S
C308 C307 1.381 . S
C308 C310 1.381 . S
C308 C311 1.487 . S
C309 C306 1.382 . S
C309 C310 1.387 . S
C309 H332 0.930 . S
C310 C308 1.381 . S
C310 C309 1.387 . S
C310 H333 0.931 . S
C311 C304 1.399 . S
C311 C308 1.487 . S
C311 N343 1.343 . S
C312 C313 1.384 . S
C312 C314 1.384 . S
C312 H334 0.931 . S
C313 C312 1.384 . S
C313 C316 1.382 . S
C314 C312 1.384 . S
C314 C315 1.381 . S
C314 H335 0.930 . S
C315 C314 1.381 . S
C315 C317 1.381 . S
C315 C318 1.487 . S
C316 C313 1.382 . S
C316 C317 1.387 . S
C316 H336 0.930 . S
C317 C315 1.381 . S
C317 C316 1.387 . S
C317 H337 0.931 . S
C318 C315 1.487 . S
C318 C325 1.399 . S
C318 N343 1.343 . S
C319 C320 1.384 . S
C319 C321 1.384 . S
C319 H338 0.931 . S
C320 C319 1.384 . S
C320 C323 1.382 . S
C321 C319 1.384 . S
C321 C322 1.381 . S
C321 H339 0.930 . S
C322 C321 1.381 . S
C322 C324 1.381 . S
C322 C325 1.487 . S
C323 C320 1.382 . S
C323 C324 1.387 . S
C323 H340 0.930 . S
C324 C322 1.381 . S
C324 C323 1.387 . S
C324 H341 0.931 . S
C325 C318 1.399 . S
C325 C322 1.487 . S
C325 N342 1.343 . S
H326 C298 0.931 . S
H327 C300 0.930 . S
H328 C302 0.930 . S
H329 C303 0.931 . S
H330 C305 0.931 . S
H331 C307 0.930 . S
H332 C309 0.930 . S
H333 C310 0.931 . S
H334 C312 0.931 . S
H335 C314 0.930 . S
H336 C316 0.930 . S
H337 C317 0.931 . S
H338 C319 0.931 . S
H339 C321 0.930 . S
H340 C323 0.930 . S
H341 C324 0.931 . S
N342 C304 1.343 . S
N342 C325 1.343 . S
N343 C311 1.343 . S
N343 C318 1.343 . S
C344 C345 1.384 . S
C344 C346 1.384 . S
C344 H372 0.931 . S
C345 C344 1.384 . S
C345 C348 1.382 . S
C346 C344 1.384 . S
C346 C347 1.381 . S
C346 H373 0.930 . S
C347 C346 1.381 . S
C347 C349 1.381 . S
C347 C350 1.487 . S
C348 C345 1.382 . S
C348 C349 1.387 . S
C348 H374 0.930 . S
C349 C347 1.381 . S
C349 C348 1.387 . S
C349 H375 0.931 . S
C350 C347 1.487 . S
C350 C357 1.399 . S
C350 N388 1.343 . S
C351 C352 1.384 . S
C351 C353 1.384 . S
C351 H376 0.931 . S
C352 C351 1.384 . S
C352 C355 1.382 . S
C353 C351 1.384 . S
C353 C354 1.381 . S
C353 H377 0.930 . S
C354 C353 1.381 . S
C354 C356 1.381 . S
C354 C357 1.487 . S
C355 C352 1.382 . S
C355 C356 1.387 . S
C355 H378 0.930 . S
C356 C354 1.381 . S
C356 C355 1.387 . S
C356 H379 0.931 . S
C357 C350 1.399 . S
C357 C354 1.487 . S
C357 N389 1.343 . S
C358 C359 1.384 . S
C358 C360 1.384 . S
C358 H380 0.931 . S
C359 C358 1.384 . S
C359 C362 1.382 . S
C360 C358 1.384 . S
C360 C361 1.381 . S
C360 H381 0.930 . S
C361 C360 1.381 . S
C361 C363 1.381 . S
C361 C364 1.487 . S
C362 C359 1.382 . S
C362 C363 1.387 . S
C362 H382 0.930 . S
C363 C361 1.381 . S
C363 C362 1.387 . S
C363 H383 0.931 . S
C364 C361 1.487 . S
C364 C371 1.399 . S
C364 N389 1.343 . S
C365 C366 1.384 . S
C365 C367 1.384 . S
C365 H384 0.931 . S
C366 C365 1.384 . S
C366 C369 1.382 . S
C367 C365 1.384 . S
C367 C368 1.381 . S
C367 H385 0.930 . S
C368 C367 1.381 . S
C368 C370 1.381 . S
C368 C371 1.487 . S
C369 C366 1.382 . S
C369 C370 1.387 . S
C369 H386 0.930 . S
C370 C368 1.381 . S
C370 C369 1.387 . S
C370 H387 0.931 . S
C371 C364 1.399 . S
C371 C368 1.487 . S
C371 N388 1.343 . S
H372 C344 0.931 . S
H373 C346 0.930 . S
H374 C348 0.930 . S
H375 C349 0.931 . S
H376 C351 0.931 . S
H377 C353 0.930 . S
H378 C355 0.930 . S
H379 C356 0.931 . S
H380 C358 0.931 . S
H381 C360 0.930 . S
H382 C362 0.930 . S
H383 C363 0.931 . S
H384 C365 0.931 . S
H385 C367 0.930 . S
H386 C369 0.930 . S
H387 C370 0.931 . S
N388 C350 1.343 . S
N388 C371 1.343 . S
N389 C357 1.343 . S
N389 C364 1.343 . S
C390 C391 1.384 . S
C390 C392 1.384 . S
C390 H418 0.931 . S
C391 C390 1.384 . S
C391 C394 1.382 . S
C392 C390 1.384 . S
C392 C393 1.381 . S
C392 H419 0.930 . S
C393 C392 1.381 . S
C393 C395 1.381 . S
C393 C396 1.487 . S
C394 C391 1.382 . S
C394 C395 1.387 . S
C394 H420 0.930 . S
C395 C393 1.381 . S
C395 C394 1.387 . S
C395 H421 0.931 . S
C396 C393 1.487 . S
C396 C403 1.399 . S
C396 N434 1.343 . S
C397 C398 1.384 . S
C397 C399 1.384 . S
C397 H422 0.931 . S
C398 C397 1.384 . S
C398 C401 1.382 . S
C399 C397 1.384 . S
C399 C400 1.381 . S
C399 H423 0.930 . S
C400 C399 1.381 . S
C400 C402 1.381 . S
C400 C403 1.487 . S
C401 C398 1.382 . S
C401 C402 1.387 . S
C401 H424 0.930 . S
C402 C400 1.381 . S
C402 C401 1.387 . S
C402 H425 0.931 . S
C403 C396 1.399 . S
C403 C400 1.487 . S
C403 N435 1.343 . S
C404 C405 1.384 . S
C404 C406 1.384 . S
C404 H426 0.931 . S
C405 C404 1.384 . S
C405 C408 1.382 . S
C406 C404 1.384 . S
C406 C407 1.381 . S
C406 H427 0.930 . S
C407 C406 1.381 . S
C407 C409 1.381 . S
C407 C410 1.487 . S
C408 C405 1.382 . S
C408 C409 1.387 . S
C408 H428 0.930 . S
C409 C407 1.381 . S
C409 C408 1.387 . S
C409 H429 0.931 . S
C410 C407 1.487 . S
C410 C417 1.399 . S
C410 N435 1.343 . S
C411 C412 1.384 . S
C411 C413 1.384 . S
C411 H430 0.931 . S
C412 C411 1.384 . S
C412 C415 1.382 . S
C413 C411 1.384 . S
C413 C414 1.381 . S
C413 H431 0.930 . S
C414 C413 1.381 . S
C414 C416 1.381 . S
C414 C417 1.487 . S
C415 C412 1.382 . S
C415 C416 1.387 . S
C415 H432 0.930 . S
C416 C414 1.381 . S
C416 C415 1.387 . S
C416 H433 0.931 . S
C417 C410 1.399 . S
C417 C414 1.487 . S
C417 N434 1.343 . S
H418 C390 0.931 . S
H419 C392 0.930 . S
H420 C394 0.930 . S
H421 C395 0.931 . S
H422 C397 0.931 . S
H423 C399 0.930 . S
H424 C401 0.930 . S
H425 C402 0.931 . S
H426 C404 0.931 . S
H427 C406 0.930 . S
H428 C408 0.930 . S
H429 C409 0.931 . S
H430 C411 0.931 . S
H431 C413 0.930 . S
H432 C415 0.930 . S
H433 C416 0.931 . S
N434 C396 1.343 . S
N434 C417 1.343 . S
N435 C403 1.343 . S
N435 C410 1.343 . S
C436 C437 1.384 . S
C436 C438 1.384 . S
C436 H464 0.931 . S
C437 C436 1.384 . S
C437 C440 1.382 . S
C438 C436 1.384 . S
C438 C439 1.381 . S
C438 H465 0.930 . S
C439 C438 1.381 . S
C439 C441 1.381 . S
C439 C442 1.487 . S
C440 C437 1.382 . S
C440 C441 1.387 . S
C440 H466 0.930 . S
C441 C439 1.381 . S
C441 C440 1.387 . S
C441 H467 0.931 . S
C442 C439 1.487 . S
C442 C449 1.399 . S
C442 N480 1.343 . S
C443 C444 1.384 . S
C443 C445 1.384 . S
C443 H468 0.931 . S
C444 C443 1.384 . S
C444 C447 1.382 . S
C445 C443 1.384 . S
C445 C446 1.381 . S
C445 H469 0.930 . S
C446 C445 1.381 . S
C446 C448 1.381 . S
C446 C449 1.487 . S
C447 C444 1.382 . S
C447 C448 1.387 . S
C447 H470 0.930 . S
C448 C446 1.381 . S
C448 C447 1.387 . S
C448 H471 0.931 . S
C449 C442 1.399 . S
C449 C446 1.487 . S
C449 N481 1.343 . S
C450 C451 1.384 . S
C450 C452 1.384 . S
C450 H472 0.931 . S
C451 C450 1.384 . S
C451 C454 1.382 . S
C452 C450 1.384 . S
C452 C453 1.381 . S
C452 H473 0.930 . S
C453 C452 1.381 . S
C453 C455 1.381 . S
C453 C456 1.487 . S
C454 C451 1.382 . S
C454 C455 1.387 . S
C454 H474 0.930 . S
C455 C453 1.381 . S
C455 C454 1.387 . S
C455 H475 0.931 . S
C456 C453 1.487 . S
C456 C463 1.399 . S
C456 N481 1.343 . S
C457 C458 1.384 . S
C457 C459 1.384 . S
C457 H476 0.931 . S
C458 C457 1.384 . S
C458 C461 1.382 . S
C459 C457 1.384 . S
C459 C460 1.381 . S
C459 H477 0.930 . S
C460 C459 1.381 . S
C460 C462 1.381 . S
C460 C463 1.487 . S
C461 C458 1.382 . S
C461 C462 1.387 . S
C461 H478 0.930 . S
C462 C460 1.381 . S
C462 C461 1.387 . S
C462 H479 0.931 . S
C463 C456 1.399 . S
C463 C460 1.487 . S
C463 N480 1.343 . S
H464 C436 0.931 . S
H465 C438 0.930 . S
H466 C440 0.930 . S
H467 C441 0.931 . S
H468 C443 0.931 . S
H469 C445 0.930 . S
H470 C447 0.930 . S
H471 C448 0.931 . S
H472 C450 0.931 . S
H473 C452 0.930 . S
H474 C454 0.930 . S
H475 C455 0.931 . S
H476 C457 0.931 . S
H477 C459 0.930 . S
H478 C461 0.930 . S
H479 C462 0.931 . S
N480 C442 1.343 . S
N480 C463 1.343 . S
N481 C449 1.343 . S
N481 C456 1.343 . S
C482 C483 1.384 . S
C482 C484 1.384 . S
C482 H510 0.931 . S
C483 C482 1.384 . S
C483 C486 1.382 . S
C484 C482 1.384 . S
C484 C485 1.381 . S
C484 H511 0.930 . S
C485 C484 1.381 . S
C485 C487 1.381 . S
C485 C488 1.487 . S
C486 C483 1.382 . S
C486 C487 1.387 . S
C486 H512 0.930 . S
C487 C485 1.381 . S
C487 C486 1.387 . S
C487 H513 0.931 . S
C488 C485 1.487 . S
C488 C495 1.399 . S
C488 N526 1.343 . S
C489 C490 1.384 . S
C489 C491 1.384 . S
C489 H514 0.931 . S
C490 C489 1.384 . S
C490 C493 1.382 . S
C491 C489 1.384 . S
C491 C492 1.381 . S
C491 H515 0.930 . S
C492 C491 1.381 . S
C492 C494 1.381 . S
C492 C495 1.487 . S
C493 C490 1.382 . S
C493 C494 1.387 . S
C493 H516 0.930 . S
C494 C492 1.381 . S
C494 C493 1.387 . S
C494 H517 0.931 . S
C495 C488 1.399 . S
C495 C492 1.487 . S
C495 N527 1.343 . S
C496 C497 1.384 . S
C496 C498 1.384 . S
C496 H518 0.931 . S
C497 C496 1.384 . S
C497 C500 1.382 . S
C498 C496 1.384 . S
C498 C499 1.381 . S
C498 H519 0.930 . S
C499 C498 1.381 . S
C499 C501 1.381 . S
C499 C502 1.487 . S
C500 C497 1.382 . S
C500 C501 1.387 . S
C500 H520 0.930 . S
C501 C499 1.381 . S
C501 C500 1.387 . S
C501 H521 0.931 . S
C502 C499 1.487 . S
C502 C509 1.399 . S
C502 N527 1.343 . S
C503 C504 1.384 . S
C503 C505 1.384 . S
C503 H522 0.931 . S
C504 C503 1.384 . S
C504 C507 1.382 . S
C505 C503 1.384 . S
C505 C506 1.381 . S
C505 H523 0.930 . S
C506 C505 1.381 . S
C506 C508 1.381 . S
C506 C509 1.487 . S
C507 C504 1.382 . S
C507 C508 1.387 . S
C507 H524 0.930 . S
C508 C506 1.381 . S
C508 C507 1.387 . S
C508 H525 0.931 . S
C509 C502 1.399 . S
C509 C506 1.487 . S
C509 N526 1.343 . S
H510 C482 0.931 . S
H511 C484 0.930 . S
H512 C486 0.930 . S
H513 C487 0.931 . S
H514 C489 0.931 . S
H515 C491 0.930 . S
H516 C493 0.930 . S
H517 C494 0.931 . S
H518 C496 0.931 . S
H519 C498 0.930 . S
H520 C500 0.930 . S
H521 C501 0.931 . S
H522 C503 0.931 . S
H523 C505 0.930 . S
H524 C507 0.930 . S
H525 C508 0.931 . S
N526 C488 1.343 . S
N526 C509 1.343 . S
N527 C495 1.343 . S
N527 C502 1.343 . S
C528 C529 1.384 . S
C528 C530 1.384 . S
C528 H556 0.931 . S
C529 C528 1.384 . S
C529 C532 1.382 . S
C530 C528 1.384 . S
C530 C531 1.381 . S
C530 H557 0.930 . S
C531 C530 1.381 . S
C531 C533 1.381 . S
C531 C534 1.487 . S
C532 C529 1.382 . S
C532 C533 1.387 . S
C532 H558 0.930 . S
C533 C531 1.381 . S
C533 C532 1.387 . S
C533 H559 0.931 . S
C534 C531 1.487 . S
C534 C541 1.399 . S
C534 N572 1.343 . S
C535 C536 1.384 . S
C535 C537 1.384 . S
C535 H560 0.931 . S
C536 C535 1.384 . S
C536 C539 1.382 . S
C537 C535 1.384 . S
C537 C538 1.381 . S
C537 H561 0.930 . S
C538 C537 1.381 . S
C538 C540 1.381 . S
C538 C541 1.487 . S
C539 C536 1.382 . S
C539 C540 1.387 . S
C539 H562 0.930 . S
C540 C538 1.381 . S
C540 C539 1.387 . S
C540 H563 0.931 . S
C541 C534 1.399 . S
C541 C538 1.487 . S
C541 N573 1.343 . S
C542 C543 1.384 . S
C542 C544 1.384 . S
C542 H564 0.931 . S
C543 C542 1.384 . S
C543 C546 1.382 . S
C544 C542 1.384 . S
C544 C545 1.381 . S
C544 H565 0.930 . S
C545 C544 1.381 . S
C545 C547 1.381 . S
C545 C548 1.487 . S
C546 C543 1.382 . S
C546 C547 1.387 . S
C546 H566 0.930 . S
C547 C545 1.381 . S
C547 C546 1.387 . S
C547 H567 0.931 . S
C548 C545 1.487 . S
C548 C555 1.399 . S
C548 N573 1.343 . S
C549 C550 1.384 . S
C549 C551 1.384 . S
C549 H568 0.931 . S
C550 C549 1.384 . S
C550 C553 1.382 . S
C551 C549 1.384 . S
C551 C552 1.381 . S
C551 H569 0.930 . S
C552 C551 1.381 . S
C552 C554 1.381 . S
C552 C555 1.487 . S
C553 C550 1.382 . S
C553 C554 1.387 . S
C553 H570 0.930 . S
C554 C552 1.381 . S
C554 C553 1.387 . S
C554 H571 0.931 . S
C555 C548 1.399 . S
C555 C552 1.487 . S
C555 N572 1.343 . S
H556 C528 0.931 . S
H557 C530 0.930 . S
H558 C532 0.930 . S
H559 C533 0.931 . S
H560 C535 0.931 . S
H561 C537 0.930 . S
H562 C539 0.930 . S
H563 C540 0.931 . S
H564 C542 0.931 . S
H565 C544 0.930 . S
H566 C546 0.930 . S
H567 C547 0.931 . S
H568 C549 0.931 . S
H569 C551 0.930 . S
H570 C553 0.930 . S
H571 C554 0.931 . S
N572 C534 1.343 . S
N572 C555 1.343 . S
N573 C541 1.343 . S
N573 C548 1.343 . S
C574 C575 1.384 . S
C574 C576 1.384 . S
C574 H602 0.931 . S
C575 C574 1.384 . S
C575 C578 1.382 . S
C576 C574 1.384 . S
C576 C577 1.381 . S
C576 H603 0.930 . S
C577 C576 1.381 . S
C577 C579 1.381 . S
C577 C580 1.487 . S
C578 C575 1.382 . S
C578 C579 1.387 . S
C578 H604 0.930 . S
C579 C577 1.381 . S
C579 C578 1.387 . S
C579 H605 0.931 . S
C580 C577 1.487 . S
C580 C587 1.399 . S
C580 N618 1.343 . S
C581 C582 1.384 . S
C581 C583 1.384 . S
C581 H606 0.931 . S
C582 C581 1.384 . S
C582 C585 1.382 . S
C583 C581 1.384 . S
C583 C584 1.381 . S
C583 H607 0.930 . S
C584 C583 1.381 . S
C584 C586 1.381 . S
C584 C587 1.487 . S
C585 C582 1.382 . S
C585 C586 1.387 . S
C585 H608 0.930 . S
C586 C584 1.381 . S
C586 C585 1.387 . S
C586 H609 0.931 . S
C587 C580 1.399 . S
C587 C584 1.487 . S
C587 N619 1.343 . S
C588 C589 1.384 . S
C588 C590 1.384 . S
C588 H610 0.931 . S
C589 C588 1.384 . S
C589 C592 1.382 . S
C590 C588 1.384 . S
C590 C591 1.381 . S
C590 H611 0.930 . S
C591 C590 1.381 . S
C591 C593 1.381 . S
C591 C594 1.487 . S
C592 C589 1.382 . S
C592 C593 1.387 . S
C592 H612 0.930 . S
C593 C591 1.381 . S
C593 C592 1.387 . S
C593 H613 0.931 . S
C594 C591 1.487 . S
C594 C601 1.399 . S
C594 N619 1.343 . S
C595 C596 1.384 . S
C595 C597 1.384 . S
C595 H614 0.931 . S
C596 C595 1.384 . S
C596 C599 1.382 . S
C597 C595 1.384 . S
C597 C598 1.381 . S
C597 H615 0.930 . S
C598 C597 1.381 . S
C598 C600 1.381 . S
C598 C601 1.487 . S
C599 C596 1.382 . S
C599 C600 1.387 . S
C599 H616 0.930 . S
C600 C598 1.381 . S
C600 C599 1.387 . S
C600 H617 0.931 . S
C601 C594 1.399 . S
C601 C598 1.487 . S
C601 N618 1.343 . S
H602 C574 0.931 . S
H603 C576 0.930 . S
H604 C578 0.930 . S
H605 C579 0.931 . S
H606 C581 0.931 . S
H607 C583 0.930 . S
H608 C585 0.930 . S
H609 C586 0.931 . S
H610 C588 0.931 . S
H611 C590 0.930 . S
H612 C592 0.930 . S
H613 C593 0.931 . S
H614 C595 0.931 . S
H615 C597 0.930 . S
H616 C599 0.930 . S
H617 C600 0.931 . S
N618 C580 1.343 . S
N618 C601 1.343 . S
N619 C587 1.343 . S
N619 C594 1.343 . S
C620 C621 1.384 . S
C620 C622 1.384 . S
C620 H648 0.931 . S
C621 C620 1.384 . S
C621 C624 1.382 . S
C622 C620 1.384 . S
C622 C623 1.381 . S
C622 H649 0.930 . S
C623 C622 1.381 . S
C623 C625 1.381 . S
C623 C626 1.487 . S
C624 C621 1.382 . S
C624 C625 1.387 . S
C624 H650 0.930 . S
C625 C623 1.381 . S
C625 C624 1.387 . S
C625 H651 0.931 . S
C626 C623 1.487 . S
C626 C633 1.399 . S
C626 N664 1.343 . S
C627 C628 1.384 . S
C627 C629 1.384 . S
C627 H652 0.931 . S
C628 C627 1.384 . S
C628 C631 1.382 . S
C629 C627 1.384 . S
C629 C630 1.381 . S
C629 H653 0.930 . S
C630 C629 1.381 . S
C630 C632 1.381 . S
C630 C633 1.487 . S
C631 C628 1.382 . S
C631 C632 1.387 . S
C631 H654 0.930 . S
C632 C630 1.381 . S
C632 C631 1.387 . S
C632 H655 0.931 . S
C633 C626 1.399 . S
C633 C630 1.487 . S
C633 N665 1.343 . S
C634 C635 1.384 . S
C634 C636 1.384 . S
C634 H656 0.931 . S
C635 C634 1.384 . S
C635 C638 1.382 . S
C636 C634 1.384 . S
C636 C637 1.381 . S
C636 H657 0.930 . S
C637 C636 1.381 . S
C637 C639 1.381 . S
C637 C640 1.487 . S
C638 C635 1.382 . S
C638 C639 1.387 . S
C638 H658 0.930 . S
C639 C637 1.381 . S
C639 C638 1.387 . S
C639 H659 0.931 . S
C640 C637 1.487 . S
C640 C647 1.399 . S
C640 N665 1.343 . S
C641 C642 1.384 . S
C641 C643 1.384 . S
C641 H660 0.931 . S
C642 C641 1.384 . S
C642 C645 1.382 . S
C643 C641 1.384 . S
C643 C644 1.381 . S
C643 H661 0.930 . S
C644 C643 1.381 . S
C644 C646 1.381 . S
C644 C647 1.487 . S
C645 C642 1.382 . S
C645 C646 1.387 . S
C645 H662 0.930 . S
C646 C644 1.381 . S
C646 C645 1.387 . S
C646 H663 0.931 . S
C647 C640 1.399 . S
C647 C644 1.487 . S
C647 N664 1.343 . S
H648 C620 0.931 . S
H649 C622 0.930 . S
H650 C624 0.930 . S
H651 C625 0.931 . S
H652 C627 0.931 . S
H653 C629 0.930 . S
H654 C631 0.930 . S
H655 C632 0.931 . S
H656 C634 0.931 . S
H657 C636 0.930 . S
H658 C638 0.930 . S
H659 C639 0.931 . S
H660 C641 0.931 . S
H661 C643 0.930 . S
H662 C645 0.930 . S
H663 C646 0.931 . S
N664 C626 1.343 . S
N664 C647 1.343 . S
N665 C633 1.343 . S
N665 C640 1.343 . S
C666 C667 1.384 . S
C666 C668 1.384 . S
C666 H694 0.931 . S
C667 C666 1.384 . S
C667 C670 1.382 1_655 S
C668 C666 1.384 . S
C668 C669 1.402 . S
C668 H695 0.930 . S
C669 C668 1.402 . S
C669 C671 1.371 1_655 S
C669 C672 1.474 1_655 S
C670 C667 1.382 1_455 S
C670 C671 1.387 . S
C670 H696 0.930 . S
C671 C669 1.371 1_455 S
C671 C670 1.387 . S
C671 H697 0.931 . S
C672 C669 1.474 1_455 S
C672 C679 1.399 1_455 S
C672 N710 1.311 . S
C673 C674 1.384 . S
C673 C675 1.384 . S
C673 H698 0.931 . S
C674 C673 1.384 . S
C674 C677 1.382 1_455 S
C675 C673 1.384 . S
C675 C676 1.383 1_455 S
C675 H699 0.930 . S
C676 C675 1.383 1_655 S
C676 C678 1.377 . S
C676 C679 1.496 . S
C677 C674 1.382 1_655 S
C677 C678 1.387 . S
C677 H700 0.930 . S
C678 C676 1.377 . S
C678 C677 1.387 . S
C678 H701 0.931 . S
C679 C672 1.399 1_655 S
C679 C676 1.496 . S
C679 N711 1.361 . S
C680 C681 1.384 . S
C680 C682 1.384 . S
C680 H702 0.931 . S
C681 C680 1.384 . S
C681 C684 1.382 1_455 S
C682 C680 1.384 . S
C682 C683 1.423 . S
C682 H703 0.930 . S
C683 C682 1.423 . S
C683 C685 1.361 1_455 S
C683 C686 1.465 . S
C684 C681 1.382 1_655 S
C684 C685 1.387 . S
C684 H704 0.930 . S
C685 C683 1.361 1_655 S
C685 C684 1.387 . S
C685 H705 0.931 . S
C686 C683 1.465 . S
C686 C693 1.399 . S
C686 N711 1.321 1_455 S
C687 C688 1.384 . S
C687 C689 1.384 . S
C687 H706 0.931 . S
C688 C687 1.384 . S
C688 C691 1.382 1_655 S
C689 C687 1.384 . S
C689 C690 1.379 1_655 S
C689 H707 0.930 . S
C690 C689 1.379 1_455 S
C690 C692 1.389 . S
C690 C693 1.496 . S
C691 C688 1.382 1_455 S
C691 C692 1.387 . S
C691 H708 0.930 . S
C692 C690 1.389 . S
C692 C691 1.387 . S
C692 H709 0.931 . S
C693 C686 1.399 . S
C693 C690 1.496 . S
C693 N710 1.361 . S
H694 C666 0.931 . S
H695 C668 0.930 . S
H696 C670 0.930 . S
H697 C671 0.931 . S
H698 C673 0.931 . S
H699 C675 0.930 . S
H700 C677 0.930 . S
H701 C678 0.931 . S
H702 C680 0.931 . S
H703 C682 0.930 . S
H704 C684 0.930 . S
H705 C685 0.931 . S
H706 C687 0.931 . S
H707 C689 0.930 . S
H708 C691 0.930 . S
H709 C692 0.931 . S
N710 C672 1.311 . S
N710 C693 1.361 . S
N711 C679 1.361 . S
N711 C686 1.321 1_655 S
C712 C713 1.384 . S
C712 C714 1.384 . S
C712 H740 0.931 . S
C713 C712 1.384 . S
C713 C716 1.382 . S
C714 C712 1.384 . S
C714 C715 1.381 . S
C714 H741 0.930 . S
C715 C714 1.381 . S
C715 C717 1.381 . S
C715 C718 1.487 . S
C716 C713 1.382 . S
C716 C717 1.387 . S
C716 H742 0.930 . S
C717 C715 1.381 . S
C717 C716 1.387 . S
C717 H743 0.931 . S
C718 C715 1.487 . S
C718 C725 1.399 . S
C718 N756 1.343 . S
C719 C720 1.384 . S
C719 C721 1.384 . S
C719 H744 0.931 . S
C720 C719 1.384 . S
C720 C723 1.382 . S
C721 C719 1.384 . S
C721 C722 1.381 . S
C721 H745 0.930 . S
C722 C721 1.381 . S
C722 C724 1.381 . S
C722 C725 1.487 . S
C723 C720 1.382 . S
C723 C724 1.387 . S
C723 H746 0.930 . S
C724 C722 1.381 . S
C724 C723 1.387 . S
C724 H747 0.931 . S
C725 C718 1.399 . S
C725 C722 1.487 . S
C725 N757 1.343 . S
C726 C727 1.384 . S
C726 C728 1.384 . S
C726 H748 0.931 . S
C727 C726 1.384 . S
C727 C730 1.382 . S
C728 C726 1.384 . S
C728 C729 1.381 . S
C728 H749 0.930 . S
C729 C728 1.381 . S
C729 C731 1.381 . S
C729 C732 1.487 . S
C730 C727 1.382 . S
C730 C731 1.387 . S
C730 H750 0.930 . S
C731 C729 1.381 . S
C731 C730 1.387 . S
C731 H751 0.931 . S
C732 C729 1.487 . S
C732 C739 1.399 . S
C732 N757 1.343 . S
C733 C734 1.384 . S
C733 C735 1.384 . S
C733 H752 0.931 . S
C734 C733 1.384 . S
C734 C737 1.382 . S
C735 C733 1.384 . S
C735 C736 1.381 . S
C735 H753 0.930 . S
C736 C735 1.381 . S
C736 C738 1.381 . S
C736 C739 1.487 . S
C737 C734 1.382 . S
C737 C738 1.387 . S
C737 H754 0.930 . S
C738 C736 1.381 . S
C738 C737 1.387 . S
C738 H755 0.931 . S
C739 C732 1.399 . S
C739 C736 1.487 . S
C739 N756 1.343 . S
H740 C712 0.931 . S
H741 C714 0.930 . S
H742 C716 0.930 . S
H743 C717 0.931 . S
H744 C719 0.931 . S
H745 C721 0.930 . S
H746 C723 0.930 . S
H747 C724 0.931 . S
H748 C726 0.931 . S
H749 C728 0.930 . S
H750 C730 0.930 . S
H751 C731 0.931 . S
H752 C733 0.931 . S
H753 C735 0.930 . S
H754 C737 0.930 . S
H755 C738 0.931 . S
N756 C718 1.343 . S
N756 C739 1.343 . S
N757 C725 1.343 . S
N757 C732 1.343 . S
C758 C759 1.384 1_545 S
C758 C760 1.384 . S
C758 H786 0.931 . S
C759 C758 1.384 1_565 S
C759 C762 1.382 . S
C760 C758 1.384 . S
C760 C761 1.381 1_545 S
C760 H787 0.930 . S
C761 C760 1.381 1_565 S
C761 C763 1.381 . S
C761 C764 1.487 . S
C762 C759 1.382 . S
C762 C763 1.387 . S
C762 H788 0.930 . S
C763 C761 1.381 . S
C763 C762 1.387 . S
C763 H789 0.931 . S
C764 C761 1.487 . S
C764 C771 1.399 1_565 S
C764 N802 1.343 . S
C765 C766 1.384 1_565 S
C765 C767 1.384 . S
C765 H790 0.931 . S
C766 C765 1.384 1_545 S
C766 C769 1.382 . S
C767 C765 1.384 . S
C767 C768 1.381 1_565 S
C767 H791 0.930 . S
C768 C767 1.381 1_545 S
C768 C770 1.381 . S
C768 C771 1.487 . S
C769 C766 1.382 . S
C769 C770 1.387 . S
C769 H792 0.930 . S
C770 C768 1.381 . S
C770 C769 1.387 . S
C770 H793 0.931 . S
C771 C764 1.399 1_545 S
C771 C768 1.487 . S
C771 N803 1.343 . S
C772 C773 1.384 1_565 S
C772 C774 1.384 . S
C772 H794 0.931 . S
C773 C772 1.384 1_545 S
C773 C776 1.382 . S
C774 C772 1.384 . S
C774 C775 1.381 1_565 S
C774 H795 0.930 . S
C775 C774 1.381 1_545 S
C775 C777 1.381 . S
C775 C778 1.456 . S
C776 C773 1.382 . S
C776 C777 1.387 . S
C776 H796 0.930 . S
C777 C775 1.381 . S
C777 C776 1.387 . S
C777 H797 0.931 . S
C778 C775 1.456 . S
C778 C785 1.389 1_545 S
C778 N803 1.393 . S
C779 C780 1.384 1_545 S
C779 C781 1.384 . S
C779 H798 0.931 . S
C780 C779 1.384 1_565 S
C780 C783 1.382 . S
C781 C779 1.384 . S
C781 C782 1.381 1_545 S
C781 H799 0.930 . S
C782 C781 1.381 1_565 S
C782 C784 1.381 . S
C782 C785 1.487 . S
C783 C780 1.382 . S
C783 C784 1.387 . S
C783 H800 0.930 . S
C784 C782 1.381 . S
C784 C783 1.387 . S
C784 H801 0.931 . S
C785 C778 1.389 1_565 S
C785 C782 1.487 . S
C785 N802 1.343 . S
H786 C758 0.931 . S
H787 C760 0.930 . S
H788 C762 0.930 . S
H789 C763 0.931 . S
H790 C765 0.931 . S
H791 C767 0.930 . S
H792 C769 0.930 . S
H793 C770 0.931 . S
H794 C772 0.931 . S
H795 C774 0.930 . S
H796 C776 0.930 . S
H797 C777 0.931 . S
H798 C779 0.931 . S
H799 C781 0.930 . S
H800 C783 0.930 . S
H801 C784 0.931 . S
N802 C764 1.343 . S
N802 C785 1.343 . S
N803 C771 1.343 . S
N803 C778 1.393 . S
C804 C805 1.384 . S
C804 C806 1.384 . S
C804 H832 0.931 . S
C805 C804 1.384 . S
C805 C808 1.382 1_545 S
C806 C804 1.384 . S
C806 C807 1.380 . S
C806 H833 0.930 . S
C807 C806 1.380 . S
C807 C809 1.386 1_545 S
C807 C810 1.488 1_545 S
C808 C805 1.382 1_565 S
C808 C809 1.387 . S
C808 H834 0.930 . S
C809 C807 1.386 1_565 S
C809 C808 1.387 . S
C809 H835 0.931 . S
C810 C807 1.488 1_565 S
C810 C817 1.399 1_565 S
C810 N848 1.363 . S
C811 C812 1.384 . S
C811 C813 1.384 . S
C811 H836 0.931 . S
C812 C811 1.384 . S
C812 C815 1.382 1_565 S
C813 C811 1.384 . S
C813 C814 1.397 . S
C813 H837 0.930 . S
C814 C813 1.397 . S
C814 C816 1.374 1_565 S
C814 C817 1.475 1_565 S
C815 C812 1.382 1_545 S
C815 C816 1.387 . S
C815 H838 0.930 . S
C816 C814 1.374 1_545 S
C816 C815 1.387 . S
C816 H839 0.931 . S
C817 C810 1.399 1_545 S
C817 C814 1.475 1_545 S
C817 N849 1.313 . S
C818 C819 1.384 . S
C818 C820 1.384 . S
C818 H840 0.931 . S
C819 C818 1.384 . S
C819 C822 1.382 1_565 S
C820 C818 1.384 . S
C820 C821 1.380 1_565 S
C820 H841 0.930 . S
C821 C820 1.380 1_545 S
C821 C823 1.386 . S
C821 C824 1.497 . S
C822 C819 1.382 1_545 S
C822 C823 1.387 . S
C822 H842 0.930 . S
C823 C821 1.386 . S
C823 C822 1.387 . S
C823 H843 0.931 . S
C824 C821 1.497 . S
C824 C831 1.399 . S
C824 N849 1.363 . S
C825 C826 1.384 . S
C825 C827 1.384 . S
C825 H844 0.931 . S
C826 C825 1.384 . S
C826 C829 1.382 1_545 S
C827 C825 1.384 . S
C827 C828 1.417 . S
C827 H845 0.930 . S
C828 C827 1.417 . S
C828 C830 1.364 1_545 S
C828 C831 1.466 . S
C829 C826 1.382 1_565 S
C829 C830 1.387 . S
C829 H846 0.930 . S
C830 C828 1.364 1_565 S
C830 C829 1.387 . S
C830 H847 0.931 . S
C831 C824 1.399 . S
C831 C828 1.466 . S
C831 N848 1.322 1_545 S
H832 C804 0.931 . S
H833 C806 0.930 . S
H834 C808 0.930 . S
H835 C809 0.931 . S
H836 C811 0.931 . S
H837 C813 0.930 . S
H838 C815 0.930 . S
H839 C816 0.931 . S
H840 C818 0.931 . S
H841 C820 0.930 . S
H842 C822 0.930 . S
H843 C823 0.931 . S
H844 C825 0.931 . S
H845 C827 0.930 . S
H846 C829 0.930 . S
H847 C830 0.931 . S
N848 C810 1.363 . S
N848 C831 1.322 1_565 S
N849 C817 1.313 . S
N849 C824 1.363 . S
C850 C851 1.384 . S
C850 C852 1.384 . S
C850 H878 0.931 . S
C851 C850 1.384 . S
C851 C854 1.382 1_655 S
C852 C850 1.384 . S
C852 C853 1.432 . S
C852 H879 0.930 . S
C853 C852 1.432 . S
C853 C855 1.356 1_655 S
C853 C856 1.463 . S
C854 C851 1.382 1_455 S
C854 C855 1.387 . S
C854 H880 0.930 . S
C855 C853 1.356 1_455 S
C855 C854 1.387 . S
C855 H881 0.931 . S
C856 C853 1.463 . S
C856 C863 1.399 . S
C856 N894 1.323 1_655 S
C857 C858 1.384 . S
C857 C859 1.384 . S
C857 H882 0.931 . S
C858 C857 1.384 . S
C858 C861 1.382 1_455 S
C859 C857 1.384 . S
C859 C860 1.381 1_455 S
C859 H883 0.930 . S
C860 C859 1.381 1_655 S
C860 C862 1.383 . S
C860 C863 1.498 . S
C861 C858 1.382 1_655 S
C861 C862 1.387 . S
C861 H884 0.930 . S
C862 C860 1.383 . S
C862 C861 1.387 . S
C862 H885 0.931 . S
C863 C856 1.399 . S
C863 C860 1.498 . S
C863 N895 1.359 . S
C864 C865 1.384 . S
C864 C866 1.384 . S
C864 H886 0.931 . S
C865 C864 1.384 . S
C865 C868 1.382 1_455 S
C866 C864 1.384 . S
C866 C867 1.412 . S
C866 H887 0.930 . S
C867 C866 1.412 . S
C867 C869 1.366 1_455 S
C867 C870 1.472 1_455 S
C868 C865 1.382 1_655 S
C868 C869 1.387 . S
C868 H888 0.930 . S
C869 C867 1.366 1_655 S
C869 C868 1.387 . S
C869 H889 0.931 . S
C870 C867 1.472 1_655 S
C870 C877 1.399 1_655 S
C870 N895 1.313 . S
C871 C872 1.384 . S
C871 C873 1.384 . S
C871 H890 0.931 . S
C872 C871 1.384 . S
C872 C875 1.382 1_655 S
C873 C871 1.384 . S
C873 C874 1.381 . S
C873 H891 0.930 . S
C874 C873 1.381 . S
C874 C876 1.383 1_655 S
C874 C877 1.489 1_655 S
C875 C872 1.382 1_455 S
C875 C876 1.387 . S
C875 H892 0.930 . S
C876 C874 1.383 1_455 S
C876 C875 1.387 . S
C876 H893 0.931 . S
C877 C870 1.399 1_455 S
C877 C874 1.489 1_455 S
C877 N894 1.359 . S
H878 C850 0.931 . S
H879 C852 0.930 . S
H880 C854 0.930 . S
H881 C855 0.931 . S
H882 C857 0.931 . S
H883 C859 0.930 . S
H884 C861 0.930 . S
H885 C862 0.931 . S
H886 C864 0.931 . S
H887 C866 0.930 . S
H888 C868 0.930 . S
H889 C869 0.931 . S
H890 C871 0.931 . S
H891 C873 0.930 . S
H892 C875 0.930 . S
H893 C876 0.931 . S
N894 C856 1.323 1_455 S
N894 C877 1.359 . S
N895 C863 1.359 . S
N895 C870 1.313 . S
C896 C897 1.384 . S
C896 C898 1.384 . S
C896 H924 0.931 . S
C897 C896 1.384 . S
C897 C900 1.382 . S
C898 C896 1.384 . S
C898 C899 1.381 . S
C898 H925 0.930 . S
C899 C898 1.381 . S
C899 C901 1.381 . S
C899 C902 1.487 . S
C900 C897 1.382 . S
C900 C901 1.387 . S
C900 H926 0.930 . S
C901 C899 1.381 . S
C901 C900 1.387 . S
C901 H927 0.931 . S
C902 C899 1.487 . S
C902 C909 1.399 . S
C902 N940 1.343 . S
C903 C904 1.384 . S
C903 C905 1.384 . S
C903 H928 0.931 . S
C904 C903 1.384 . S
C904 C907 1.382 . S
C905 C903 1.384 . S
C905 C906 1.381 . S
C905 H929 0.930 . S
C906 C905 1.381 . S
C906 C908 1.381 . S
C906 C909 1.487 . S
C907 C904 1.382 . S
C907 C908 1.387 . S
C907 H930 0.930 . S
C908 C906 1.381 . S
C908 C907 1.387 . S
C908 H931 0.931 . S
C909 C902 1.399 . S
C909 C906 1.487 . S
C909 N941 1.343 . S
C910 C911 1.384 . S
C910 C912 1.384 . S
C910 H932 0.931 . S
C911 C910 1.384 . S
C911 C914 1.382 . S
C912 C910 1.384 . S
C912 C913 1.381 . S
C912 H933 0.930 . S
C913 C912 1.381 . S
C913 C915 1.381 . S
C913 C916 1.487 . S
C914 C911 1.382 . S
C914 C915 1.387 . S
C914 H934 0.930 . S
C915 C913 1.381 . S
C915 C914 1.387 . S
C915 H935 0.931 . S
C916 C913 1.487 . S
C916 C923 1.399 . S
C916 N941 1.343 . S
C917 C918 1.384 . S
C917 C919 1.384 . S
C917 H936 0.931 . S
C918 C917 1.384 . S
C918 C921 1.382 . S
C919 C917 1.384 . S
C919 C920 1.381 . S
C919 H937 0.930 . S
C920 C919 1.381 . S
C920 C922 1.381 . S
C920 C923 1.487 . S
C921 C918 1.382 . S
C921 C922 1.387 . S
C921 H938 0.930 . S
C922 C920 1.381 . S
C922 C921 1.387 . S
C922 H939 0.931 . S
C923 C916 1.399 . S
C923 C920 1.487 . S
C923 N940 1.343 . S
H924 C896 0.931 . S
H925 C898 0.930 . S
H926 C900 0.930 . S
H927 C901 0.931 . S
H928 C903 0.931 . S
H929 C905 0.930 . S
H930 C907 0.930 . S
H931 C908 0.931 . S
H932 C910 0.931 . S
H933 C912 0.930 . S
H934 C914 0.930 . S
H935 C915 0.931 . S
H936 C917 0.931 . S
H937 C919 0.930 . S
H938 C921 0.930 . S
H939 C922 0.931 . S
N940 C902 1.343 . S
N940 C923 1.343 . S
N941 C909 1.343 . S
N941 C916 1.343 . S
C942 C943 1.384 . S
C942 C944 1.384 . S
C942 H970 0.931 . S
C943 C942 1.384 . S
C943 C946 1.382 . S
C944 C942 1.384 . S
C944 C945 1.381 . S
C944 H971 0.930 . S
C945 C944 1.381 . S
C945 C947 1.381 . S
C945 C948 1.487 . S
C946 C943 1.382 . S
C946 C947 1.387 . S
C946 H972 0.930 . S
C947 C945 1.381 . S
C947 C946 1.387 . S
C947 H973 0.931 . S
C948 C945 1.487 . S
C948 C955 1.399 . S
C948 N986 1.343 . S
C949 C950 1.384 . S
C949 C951 1.384 . S
C949 H974 0.931 . S
C950 C949 1.384 . S
C950 C953 1.382 . S
C951 C949 1.384 . S
C951 C952 1.381 . S
C951 H975 0.930 . S
C952 C951 1.381 . S
C952 C954 1.381 . S
C952 C955 1.487 . S
C953 C950 1.382 . S
C953 C954 1.387 . S
C953 H976 0.930 . S
C954 C952 1.381 . S
C954 C953 1.387 . S
C954 H977 0.931 . S
C955 C948 1.399 . S
C955 C952 1.487 . S
C955 N987 1.343 . S
C956 C957 1.384 . S
C956 C958 1.384 . S
C956 H978 0.931 . S
C957 C956 1.384 . S
C957 C960 1.382 . S
C958 C956 1.384 . S
C958 C959 1.381 . S
C958 H979 0.930 . S
C959 C958 1.381 . S
C959 C961 1.381 . S
C959 C962 1.487 . S
C960 C957 1.382 . S
C960 C961 1.387 . S
C960 H980 0.930 . S
C961 C959 1.381 . S
C961 C960 1.387 . S
C961 H981 0.931 . S
C962 C959 1.487 . S
C962 C969 1.399 . S
C962 N987 1.343 . S
C963 C964 1.384 . S
C963 C965 1.384 . S
C963 H982 0.931 . S
C964 C963 1.384 . S
C964 C967 1.382 . S
C965 C963 1.384 . S
C965 C966 1.381 . S
C965 H983 0.930 . S
C966 C965 1.381 . S
C966 C968 1.381 . S
C966 C969 1.487 . S
C967 C964 1.382 . S
C967 C968 1.387 . S
C967 H984 0.930 . S
C968 C966 1.381 . S
C968 C967 1.387 . S
C968 H985 0.931 . S
C969 C962 1.399 . S
C969 C966 1.487 . S
C969 N986 1.343 . S
H970 C942 0.931 . S
H971 C944 0.930 . S
H972 C946 0.930 . S
H973 C947 0.931 . S
H974 C949 0.931 . S
H975 C951 0.930 . S
H976 C953 0.930 . S
H977 C954 0.931 . S
H978 C956 0.931 . S
H979 C958 0.930 . S
H980 C960 0.930 . S
H981 C961 0.931 . S
H982 C963 0.931 . S
H983 C965 0.930 . S
H984 C967 0.930 . S
H985 C968 0.931 . S
N986 C948 1.343 . S
N986 C969 1.343 . S
N987 C955 1.343 . S
N987 C962 1.343 . S
C988 C989 1.384 . S
C988 C990 1.384 . S
C988 H1016 0.931 . S
C989 C988 1.384 . S
C989 C992 1.382 . S
C990 C988 1.384 . S
C990 C991 1.381 . S
C990 H1017 0.930 . S
C991 C990 1.381 . S
C991 C993 1.381 . S
C991 C994 1.487 . S
C992 C989 1.382 . S
C992 C993 1.387 . S
C992 H1018 0.930 . S
C993 C991 1.381 . S
C993 C992 1.387 . S
C993 H1019 0.931 . S
C994 C991 1.487 . S
C994 C1001 1.399 . S
C994 N1032 1.343 . S
C995 C996 1.384 . S
C995 C997 1.384 . S
C995 H1020 0.931 . S
C996 C995 1.384 . S
C996 C999 1.382 . S
C997 C995 1.384 . S
C997 C998 1.381 . S
C997 H1021 0.930 . S
C998 C997 1.381 . S
C998 C1000 1.381 . S
C998 C1001 1.487 . S
C999 C996 1.382 . S
C999 C1000 1.387 . S
C999 H1022 0.930 . S
C1000 C998 1.381 . S
C1000 C999 1.387 . S
C1000 H1023 0.931 . S
C1001 C994 1.399 . S
C1001 C998 1.487 . S
C1001 N1033 1.343 . S
C1002 C1003 1.384 . S
C1002 C1004 1.384 . S
C1002 H1024 0.931 . S
C1003 C1002 1.384 . S
C1003 C1006 1.382 . S
C1004 C1002 1.384 . S
C1004 C1005 1.381 . S
C1004 H1025 0.930 . S
C1005 C1004 1.381 . S
C1005 C1007 1.381 . S
C1005 C1008 1.487 . S
C1006 C1003 1.382 . S
C1006 C1007 1.387 . S
C1006 H1026 0.930 . S
C1007 C1005 1.381 . S
C1007 C1006 1.387 . S
C1007 H1027 0.931 . S
C1008 C1005 1.487 . S
C1008 C1015 1.399 . S
C1008 N1033 1.343 . S
C1009 C1010 1.384 . S
C1009 C1011 1.384 . S
C1009 H1028 0.931 . S
C1010 C1009 1.384 . S
C1010 C1013 1.382 . S
C1011 C1009 1.384 . S
C1011 C1012 1.381 . S
C1011 H1029 0.930 . S
C1012 C1011 1.381 . S
C1012 C1014 1.381 . S
C1012 C1015 1.487 . S
C1013 C1010 1.382 . S
C1013 C1014 1.387 . S
C1013 H1030 0.930 . S
C1014 C1012 1.381 . S
C1014 C1013 1.387 . S
C1014 H1031 0.931 . S
C1015 C1008 1.399 . S
C1015 C1012 1.487 . S
C1015 N1032 1.343 . S
H1016 C988 0.931 . S
H1017 C990 0.930 . S
H1018 C992 0.930 . S
H1019 C993 0.931 . S
H1020 C995 0.931 . S
H1021 C997 0.930 . S
H1022 C999 0.930 . S
H1023 C1000 0.931 . S
H1024 C1002 0.931 . S
H1025 C1004 0.930 . S
H1026 C1006 0.930 . S
H1027 C1007 0.931 . S
H1028 C1009 0.931 . S
H1029 C1011 0.930 . S
H1030 C1013 0.930 . S
H1031 C1014 0.931 . S
N1032 C994 1.343 . S
N1032 C1015 1.343 . S
N1033 C1001 1.343 . S
N1033 C1008 1.343 . S
C1034 C1035 1.384 . S
C1034 C1036 1.384 . S
C1034 H1062 0.931 . S
C1035 C1034 1.384 . S
C1035 C1038 1.382 . S
C1036 C1034 1.384 . S
C1036 C1037 1.381 . S
C1036 H1063 0.930 . S
C1037 C1036 1.381 . S
C1037 C1039 1.381 . S
C1037 C1040 1.487 . S
C1038 C1035 1.382 . S
C1038 C1039 1.387 . S
C1038 H1064 0.930 . S
C1039 C1037 1.381 . S
C1039 C1038 1.387 . S
C1039 H1065 0.931 . S
C1040 C1037 1.487 . S
C1040 C1047 1.399 . S
C1040 N1078 1.343 . S
C1041 C1042 1.384 . S
C1041 C1043 1.384 . S
C1041 H1066 0.931 . S
C1042 C1041 1.384 . S
C1042 C1045 1.382 . S
C1043 C1041 1.384 . S
C1043 C1044 1.381 . S
C1043 H1067 0.930 . S
C1044 C1043 1.381 . S
C1044 C1046 1.381 . S
C1044 C1047 1.487 . S
C1045 C1042 1.382 . S
C1045 C1046 1.387 . S
C1045 H1068 0.930 . S
C1046 C1044 1.381 . S
C1046 C1045 1.387 . S
C1046 H1069 0.931 . S
C1047 C1040 1.399 . S
C1047 C1044 1.487 . S
C1047 N1079 1.343 . S
C1048 C1049 1.384 . S
C1048 C1050 1.384 . S
C1048 H1070 0.931 . S
C1049 C1048 1.384 . S
C1049 C1052 1.382 . S
C1050 C1048 1.384 . S
C1050 C1051 1.381 . S
C1050 H1071 0.930 . S
C1051 C1050 1.381 . S
C1051 C1053 1.381 . S
C1051 C1054 1.487 . S
C1052 C1049 1.382 . S
C1052 C1053 1.387 . S
C1052 H1072 0.930 . S
C1053 C1051 1.381 . S
C1053 C1052 1.387 . S
C1053 H1073 0.931 . S
C1054 C1051 1.487 . S
C1054 C1061 1.399 . S
C1054 N1079 1.343 . S
C1055 C1056 1.384 . S
C1055 C1057 1.384 . S
C1055 H1074 0.931 . S
C1056 C1055 1.384 . S
C1056 C1059 1.382 . S
C1057 C1055 1.384 . S
C1057 C1058 1.381 . S
C1057 H1075 0.930 . S
C1058 C1057 1.381 . S
C1058 C1060 1.381 . S
C1058 C1061 1.487 . S
C1059 C1056 1.382 . S
C1059 C1060 1.387 . S
C1059 H1076 0.930 . S
C1060 C1058 1.381 . S
C1060 C1059 1.387 . S
C1060 H1077 0.931 . S
C1061 C1054 1.399 . S
C1061 C1058 1.487 . S
C1061 N1078 1.343 . S
H1062 C1034 0.931 . S
H1063 C1036 0.930 . S
H1064 C1038 0.930 . S
H1065 C1039 0.931 . S
H1066 C1041 0.931 . S
H1067 C1043 0.930 . S
H1068 C1045 0.930 . S
H1069 C1046 0.931 . S
H1070 C1048 0.931 . S
H1071 C1050 0.930 . S
H1072 C1052 0.930 . S
H1073 C1053 0.931 . S
H1074 C1055 0.931 . S
H1075 C1057 0.930 . S
H1076 C1059 0.930 . S
H1077 C1060 0.931 . S
N1078 C1040 1.343 . S
N1078 C1061 1.343 . S
N1079 C1047 1.343 . S
N1079 C1054 1.343 . S
C1080 C1081 1.349 1_455 S
C1080 C1082 1.327 . S
C1080 H1105 0.950 . S
C1081 C1080 1.349 1_655 S
C1081 C1097 1.349 . S
C1082 C1080 1.327 . S
C1082 C1101 1.429 1_455 S
C1082 H1106 0.950 . S
C1083 C1100 1.574 . S
C1083 C1102 1.368 . S
C1083 H1107 0.949 . S
H1084 C1088 0.949 . S
C1085 C1086 1.349 . S
C1085 C1087 1.327 . S
C1085 H1108 0.950 . S
C1086 C1085 1.349 . S
C1086 C1098 1.349 1_655 S
C1087 C1085 1.327 . S
C1087 C1103 1.429 . S
C1087 H1109 0.950 . S
C1088 H1084 0.949 . S
C1088 C1096 1.574 . S
C1088 C1104 1.368 1_455 S
H1089 C1097 0.950 . S
H1090 C1095 0.950 . S
H1091 C1096 0.949 . S
H1092 C1098 0.950 . S
H1093 C1099 0.950 . S
H1094 C1100 0.949 . S
C1095 H1090 0.950 . S
C1095 C1097 1.327 . S
C1095 C1101 1.429 . S
C1096 C1088 1.574 . S
C1096 H1091 0.949 . S
C1096 C1102 1.368 1_455 S
C1097 C1081 1.349 . S
C1097 H1089 0.950 . S
C1097 C1095 1.327 . S
C1098 C1086 1.349 1_455 S
C1098 H1092 0.950 . S
C1098 C1099 1.327 . S
C1099 H1093 0.950 . S
C1099 C1098 1.327 . S
C1099 C1103 1.429 1_455 S
C1100 C1083 1.574 . S
C1100 H1094 0.949 . S
C1100 C1104 1.368 . S
C1101 C1082 1.429 1_655 S
C1101 C1095 1.429 . S
C1101 C1102 1.523 . S
C1102 C1083 1.368 . S
C1102 C1096 1.368 1_655 S
C1102 C1101 1.523 . S
C1103 C1087 1.429 . S
C1103 C1099 1.429 1_655 S
C1103 C1104 1.523 . S
C1104 C1088 1.368 1_655 S
C1104 C1100 1.368 . S
C1104 C1103 1.523 . S
H1105 C1080 0.950 . S
H1106 C1082 0.950 . S
H1107 C1083 0.949 . S
H1108 C1085 0.950 . S
H1109 C1087 0.950 . S
C1110 C1111 1.349 . S
C1110 C1112 1.327 . S
C1110 H1135 0.950 . S
C1111 C1110 1.349 . S
C1111 C1127 1.349 . S
C1112 C1110 1.327 . S
C1112 C1131 1.429 . S
C1112 H1136 0.950 . S
C1113 C1130 1.574 . S
C1113 C1132 1.368 . S
C1113 H1137 0.949 . S
H1114 C1118 0.949 . S
C1115 C1116 1.349 . S
C1115 C1117 1.327 . S
C1115 H1138 0.950 . S
C1116 C1115 1.349 . S
C1116 C1128 1.349 . S
C1117 C1115 1.327 . S
C1117 C1133 1.429 . S
C1117 H1139 0.950 . S
C1118 H1114 0.949 . S
C1118 C1126 1.574 . S
C1118 C1134 1.368 . S
H1119 C1127 0.950 . S
H1120 C1125 0.950 . S
H1121 C1126 0.949 . S
H1122 C1128 0.950 . S
H1123 C1129 0.950 . S
H1124 C1130 0.949 . S
C1125 H1120 0.950 . S
C1125 C1127 1.327 . S
C1125 C1131 1.429 . S
C1126 C1118 1.574 . S
C1126 H1121 0.949 . S
C1126 C1132 1.368 . S
C1127 C1111 1.349 . S
C1127 H1119 0.950 . S
C1127 C1125 1.327 . S
C1128 C1116 1.349 . S
C1128 H1122 0.950 . S
C1128 C1129 1.327 . S
C1129 H1123 0.950 . S
C1129 C1128 1.327 . S
C1129 C1133 1.429 . S
C1130 C1113 1.574 . S
C1130 H1124 0.949 . S
C1130 C1134 1.368 . S
C1131 C1112 1.429 . S
C1131 C1125 1.429 . S
C1131 C1132 1.523 . S
C1132 C1113 1.368 . S
C1132 C1126 1.368 . S
C1132 C1131 1.523 . S
C1133 C1117 1.429 . S
C1133 C1129 1.429 . S
C1133 C1134 1.523 . S
C1134 C1118 1.368 . S
C1134 C1130 1.368 . S
C1134 C1133 1.523 . S
H1135 C1110 0.950 . S
H1136 C1112 0.950 . S
H1137 C1113 0.949 . S
H1138 C1115 0.950 . S
H1139 C1117 0.950 . S
C1140 C1141 1.349 . S
C1140 C1142 1.327 . S
C1140 H1165 0.950 . S
C1141 C1140 1.349 . S
C1141 C1157 1.349 1_545 S
C1142 C1140 1.327 . S
C1142 C1161 1.429 . S
C1142 H1166 0.950 . S
C1143 C1160 1.574 . S
C1143 C1162 1.368 1_565 S
C1143 H1167 0.949 . S
H1144 C1148 0.949 . S
C1145 C1146 1.349 1_565 S
C1145 C1147 1.327 . S
C1145 H1168 0.950 . S
C1146 C1145 1.349 1_545 S
C1146 C1158 1.349 . S
C1147 C1145 1.327 . S
C1147 C1163 1.429 1_565 S
C1147 H1169 0.950 . S
C1148 H1144 0.949 . S
C1148 C1156 1.574 . S
C1148 C1164 1.368 . S
H1149 C1157 0.950 . S
H1150 C1155 0.950 . S
H1151 C1156 0.949 . S
H1152 C1158 0.950 . S
H1153 C1159 0.950 . S
H1154 C1160 0.949 . S
C1155 H1150 0.950 . S
C1155 C1157 1.327 . S
C1155 C1161 1.429 1_565 S
C1156 C1148 1.574 . S
C1156 H1151 0.949 . S
C1156 C1162 1.368 . S
C1157 C1141 1.349 1_565 S
C1157 H1149 0.950 . S
C1157 C1155 1.327 . S
C1158 C1146 1.349 . S
C1158 H1152 0.950 . S
C1158 C1159 1.327 . S
C1159 H1153 0.950 . S
C1159 C1158 1.327 . S
C1159 C1163 1.429 . S
C1160 C1143 1.574 . S
C1160 H1154 0.949 . S
C1160 C1164 1.368 1_565 S
C1161 C1142 1.429 . S
C1161 C1155 1.429 1_545 S
C1161 C1162 1.523 . S
C1162 C1143 1.368 1_545 S
C1162 C1156 1.368 . S
C1162 C1161 1.523 . S
C1163 C1147 1.429 1_545 S
C1163 C1159 1.429 . S
C1163 C1164 1.523 . S
C1164 C1148 1.368 . S
C1164 C1160 1.368 1_545 S
C1164 C1163 1.523 . S
H1165 C1140 0.950 . S
H1166 C1142 0.950 . S
H1167 C1143 0.949 . S
H1168 C1145 0.950 . S
H1169 C1147 0.950 . S
C1170 C1171 1.349 1_565 S
C1170 C1172 1.327 . S
C1170 H1195 0.950 . S
C1171 C1170 1.349 1_545 S
C1171 C1187 1.349 . S
C1172 C1170 1.327 . S
C1172 C1191 1.424 1_565 S
C1172 H1196 0.950 . S
C1173 C1190 1.574 . S
C1173 C1192 1.371 1_545 S
C1173 H1197 0.949 . S
H1174 C1178 0.949 . S
C1175 C1176 1.349 1_545 S
C1175 C1177 1.327 . S
C1175 H1198 0.950 . S
C1176 C1175 1.349 1_565 S
C1176 C1188 1.349 . S
C1177 C1175 1.327 . S
C1177 C1193 1.429 1_545 S
C1177 H1199 0.950 . S
C1178 H1174 0.949 . S
C1178 C1186 1.574 . S
C1178 C1194 1.387 . S
H1179 C1187 0.950 . S
H1180 C1185 0.950 . S
H1181 C1186 0.949 . S
H1182 C1188 0.950 . S
H1183 C1189 0.950 . S
H1184 C1190 0.949 . S
C1185 H1180 0.950 . S
C1185 C1187 1.327 . S
C1185 C1191 1.445 . S
C1186 C1178 1.574 . S
C1186 H1181 0.949 . S
C1186 C1192 1.364 . S
C1187 C1171 1.349 . S
C1187 H1179 0.950 . S
C1187 C1185 1.327 . S
C1188 C1176 1.349 . S
C1188 H1182 0.950 . S
C1188 C1189 1.327 . S
C1189 H1183 0.950 . S
C1189 C1188 1.327 . S
C1189 C1193 1.429 . S
C1190 C1173 1.574 . S
C1190 H1184 0.949 . S
C1190 C1194 1.333 1_545 S
C1191 C1172 1.424 1_545 S
C1191 C1185 1.445 . S
C1191 C1192 1.516 1_545 S
C1192 C1173 1.371 1_565 S
C1192 C1186 1.364 . S
C1192 C1191 1.516 1_565 S
C1193 C1177 1.429 1_565 S
C1193 C1189 1.429 . S
C1193 C1194 1.548 . S
C1194 C1178 1.387 . S
C1194 C1190 1.333 1_565 S
C1194 C1193 1.548 . S
H1195 C1170 0.950 . S
H1196 C1172 0.950 . S
H1197 C1173 0.949 . S
H1198 C1175 0.950 . S
H1199 C1177 0.950 . S
C1200 C1201 1.349 . S
C1200 C1202 1.327 . S
C1200 H1225 0.950 . S
C1201 C1200 1.349 . S
C1201 C1217 1.349 1_455 S
C1202 C1200 1.327 . S
C1202 C1221 1.429 . S
C1202 H1226 0.950 . S
C1203 C1220 1.574 . S
C1203 C1222 1.368 1_655 S
C1203 H1227 0.949 . S
H1204 C1208 0.949 . S
C1205 C1206 1.349 1_655 S
C1205 C1207 1.327 . S
C1205 H1228 0.950 . S
C1206 C1205 1.349 1_455 S
C1206 C1218 1.349 . S
C1207 C1205 1.327 . S
C1207 C1223 1.429 1_655 S
C1207 H1229 0.950 . S
C1208 H1204 0.949 . S
C1208 C1216 1.574 . S
C1208 C1224 1.368 . S
H1209 C1217 0.950 . S
H1210 C1215 0.950 . S
H1211 C1216 0.949 . S
H1212 C1218 0.950 . S
H1213 C1219 0.950 . S
H1214 C1220 0.949 . S
C1215 H1210 0.950 . S
C1215 C1217 1.327 . S
C1215 C1221 1.429 1_655 S
C1216 C1208 1.574 . S
C1216 H1211 0.949 . S
C1216 C1222 1.368 . S
C1217 C1201 1.349 1_655 S
C1217 H1209 0.950 . S
C1217 C1215 1.327 . S
C1218 C1206 1.349 . S
C1218 H1212 0.950 . S
C1218 C1219 1.327 . S
C1219 H1213 0.950 . S
C1219 C1218 1.327 . S
C1219 C1223 1.429 . S
C1220 C1203 1.574 . S
C1220 H1214 0.949 . S
C1220 C1224 1.368 1_655 S
C1221 C1202 1.429 . S
C1221 C1215 1.429 1_455 S
C1221 C1222 1.523 . S
C1222 C1203 1.368 1_455 S
C1222 C1216 1.368 . S
C1222 C1221 1.523 . S
C1223 C1207 1.429 1_455 S
C1223 C1219 1.429 . S
C1223 C1224 1.523 . S
C1224 C1208 1.368 . S
C1224 C1220 1.368 1_455 S
C1224 C1223 1.523 . S
H1225 C1200 0.950 . S
H1226 C1202 0.950 . S
H1227 C1203 0.949 . S
H1228 C1205 0.950 . S
H1229 C1207 0.950 . S
C1230 C1231 1.349 . S
C1230 C1232 1.327 . S
C1230 H1255 0.950 . S
C1231 C1230 1.349 . S
C1231 C1247 1.349 . S
C1232 C1230 1.327 . S
C1232 C1251 1.429 . S
C1232 H1256 0.950 . S
C1233 C1250 1.574 . S
C1233 C1252 1.368 . S
C1233 H1257 0.949 . S
H1234 C1238 0.949 . S
C1235 C1236 1.349 . S
C1235 C1237 1.327 . S
C1235 H1258 0.950 . S
C1236 C1235 1.349 . S
C1236 C1248 1.349 . S
C1237 C1235 1.327 . S
C1237 C1253 1.429 . S
C1237 H1259 0.950 . S
C1238 H1234 0.949 . S
C1238 C1246 1.574 . S
C1238 C1254 1.368 . S
H1239 C1247 0.950 . S
H1240 C1245 0.950 . S
H1241 C1246 0.949 . S
H1242 C1248 0.950 . S
H1243 C1249 0.950 . S
H1244 C1250 0.949 . S
C1245 H1240 0.950 . S
C1245 C1247 1.327 . S
C1245 C1251 1.429 . S
C1246 C1238 1.574 . S
C1246 H1241 0.949 . S
C1246 C1252 1.368 . S
C1247 C1231 1.349 . S
C1247 H1239 0.950 . S
C1247 C1245 1.327 . S
C1248 C1236 1.349 . S
C1248 H1242 0.950 . S
C1248 C1249 1.327 . S
C1249 H1243 0.950 . S
C1249 C1248 1.327 . S
C1249 C1253 1.429 . S
C1250 C1233 1.574 . S
C1250 H1244 0.949 . S
C1250 C1254 1.368 . S
C1251 C1232 1.429 . S
C1251 C1245 1.429 . S
C1251 C1252 1.523 . S
C1252 C1233 1.368 . S
C1252 C1246 1.368 . S
C1252 C1251 1.523 . S
C1253 C1237 1.429 . S
C1253 C1249 1.429 . S
C1253 C1254 1.523 . S
C1254 C1238 1.368 . S
C1254 C1250 1.368 . S
C1254 C1253 1.523 . S
H1255 C1230 0.950 . S
H1256 C1232 0.950 . S
H1257 C1233 0.949 . S
H1258 C1235 0.950 . S
H1259 C1237 0.950 . S
C1260 C1261 1.325 . S
C1260 C1262 1.339 . S
C1260 H1285 0.948 1_455 S
C1261 C1260 1.325 . S
C1261 C1277 1.349 . S
C1262 C1260 1.339 . S
C1262 C1281 1.435 . S
C1262 H1286 0.968 1_455 S
C1263 C1280 1.574 . S
C1263 C1282 1.368 . S
C1263 H1287 0.949 . S
H1264 C1268 0.944 . S
C1265 C1266 1.349 . S
C1265 C1267 1.327 . S
C1265 H1288 0.950 . S
C1266 C1265 1.349 . S
C1266 C1278 1.346 1_455 S
C1267 C1265 1.327 . S
C1267 C1283 1.429 . S
C1267 H1289 0.950 . S
C1268 H1264 0.944 . S
C1268 C1276 1.576 1_655 S
C1268 C1284 1.368 1_655 S
H1269 C1277 0.950 . S
H1270 C1275 0.950 . S
H1271 C1276 0.950 1_655 S
H1272 C1278 0.933 . S
H1273 C1279 0.953 . S
H1274 C1280 0.949 . S
C1275 H1270 0.950 . S
C1275 C1277 1.327 . S
C1275 C1281 1.429 . S
C1276 C1268 1.576 1_455 S
C1276 H1271 0.950 1_455 S
C1276 C1282 1.371 . S
C1277 C1261 1.349 . S
C1277 H1269 0.950 . S
C1277 C1275 1.327 . S
C1278 C1266 1.346 1_655 S
C1278 H1272 0.933 . S
C1278 C1279 1.333 . S
C1279 H1273 0.953 . S
C1279 C1278 1.333 . S
C1279 C1283 1.444 1_655 S
C1280 C1263 1.574 . S
C1280 H1274 0.949 . S
C1280 C1284 1.368 . S
C1281 C1262 1.435 . S
C1281 C1275 1.429 . S
C1281 C1282 1.523 . S
C1282 C1263 1.368 . S
C1282 C1276 1.371 . S
C1282 C1281 1.523 . S
C1283 C1267 1.429 . S
C1283 C1279 1.444 1_455 S
C1283 C1284 1.523 . S
C1284 C1268 1.368 1_455 S
C1284 C1280 1.368 . S
C1284 C1283 1.523 . S
H1285 C1260 0.948 1_655 S
H1286 C1262 0.968 1_655 S
H1287 C1263 0.949 . S
H1288 C1265 0.950 . S
H1289 C1267 0.950 . S
C1290 C1291 1.349 . S
C1290 C1292 1.327 . S
C1290 H1315 0.950 . S
C1291 C1290 1.349 . S
C1291 C1307 1.349 . S
C1292 C1290 1.327 . S
C1292 C1311 1.429 . S
C1292 H1316 0.950 . S
C1293 C1310 1.574 . S
C1293 C1312 1.368 . S
C1293 H1317 0.949 . S
H1294 C1298 0.949 . S
C1295 C1296 1.349 . S
C1295 C1297 1.327 . S
C1295 H1318 0.950 . S
C1296 C1295 1.349 . S
C1296 C1308 1.349 . S
C1297 C1295 1.327 . S
C1297 C1313 1.429 . S
C1297 H1319 0.950 . S
C1298 H1294 0.949 . S
C1298 C1306 1.574 . S
C1298 C1314 1.368 . S
H1299 C1307 0.950 . S
H1300 C1305 0.950 . S
H1301 C1306 0.949 . S
H1302 C1308 0.950 . S
H1303 C1309 0.950 . S
H1304 C1310 0.949 . S
C1305 H1300 0.950 . S
C1305 C1307 1.327 . S
C1305 C1311 1.429 . S
C1306 C1298 1.574 . S
C1306 H1301 0.949 . S
C1306 C1312 1.368 . S
C1307 C1291 1.349 . S
C1307 H1299 0.950 . S
C1307 C1305 1.327 . S
C1308 C1296 1.349 . S
C1308 H1302 0.950 . S
C1308 C1309 1.327 . S
C1309 H1303 0.950 . S
C1309 C1308 1.327 . S
C1309 C1313 1.429 . S
C1310 C1293 1.574 . S
C1310 H1304 0.949 . S
C1310 C1314 1.368 . S
C1311 C1292 1.429 . S
C1311 C1305 1.429 . S
C1311 C1312 1.523 . S
C1312 C1293 1.368 . S
C1312 C1306 1.368 . S
C1312 C1311 1.523 . S
C1313 C1297 1.429 . S
C1313 C1309 1.429 . S
C1313 C1314 1.523 . S
C1314 C1298 1.368 . S
C1314 C1310 1.368 . S
C1314 C1313 1.523 . S
H1315 C1290 0.950 . S
H1316 C1292 0.950 . S
H1317 C1293 0.949 . S
H1318 C1295 0.950 . S
H1319 C1297 0.950 . S
C1320 C1321 1.349 . S
C1320 C1322 1.327 . S
C1320 H1345 0.950 . S
C1321 C1320 1.349 . S
C1321 C1337 1.349 1_565 S
C1322 C1320 1.327 . S
C1322 C1341 1.429 . S
C1322 H1346 0.950 . S
C1323 C1340 1.574 . S
C1323 C1342 1.368 1_545 S
C1323 H1347 0.949 . S
H1324 C1328 0.949 . S
C1325 C1326 1.349 1_545 S
C1325 C1327 1.327 . S
C1325 H1348 0.950 . S
C1326 C1325 1.349 1_565 S
C1326 C1338 1.349 . S
C1327 C1325 1.327 . S
C1327 C1343 1.429 1_545 S
C1327 H1349 0.950 . S
C1328 H1324 0.949 . S
C1328 C1336 1.574 . S
C1328 C1344 1.368 . S
H1329 C1337 0.950 . S
H1330 C1335 0.950 . S
H1331 C1336 0.949 . S
H1332 C1338 0.950 . S
H1333 C1339 0.950 . S
H1334 C1340 0.949 . S
C1335 H1330 0.950 . S
C1335 C1337 1.327 . S
C1335 C1341 1.429 1_545 S
C1336 C1328 1.574 . S
C1336 H1331 0.949 . S
C1336 C1342 1.368 . S
C1337 C1321 1.349 1_545 S
C1337 H1329 0.950 . S
C1337 C1335 1.327 . S
C1338 C1326 1.349 . S
C1338 H1332 0.950 . S
C1338 C1339 1.327 . S
C1339 H1333 0.950 . S
C1339 C1338 1.327 . S
C1339 C1343 1.429 . S
C1340 C1323 1.574 . S
C1340 H1334 0.949 . S
C1340 C1344 1.368 1_545 S
C1341 C1322 1.429 . S
C1341 C1335 1.429 1_565 S
C1341 C1342 1.523 . S
C1342 C1323 1.368 1_565 S
C1342 C1336 1.368 . S
C1342 C1341 1.523 . S
C1343 C1327 1.429 1_565 S
C1343 C1339 1.429 . S
C1343 C1344 1.523 . S
C1344 C1328 1.368 . S
C1344 C1340 1.368 1_565 S
C1344 C1343 1.523 . S
H1345 C1320 0.950 . S
H1346 C1322 0.950 . S
H1347 C1323 0.949 . S
H1348 C1325 0.950 . S
H1349 C1327 0.950 . S
C1350 C1351 1.349 . S
C1350 C1352 1.327 . S
C1350 H1375 0.950 . S
C1351 C1350 1.349 . S
C1351 C1367 1.349 1_545 S
C1352 C1350 1.327 . S
C1352 C1371 1.429 . S
C1352 H1376 0.950 . S
C1353 C1370 1.574 . S
C1353 C1372 1.368 1_565 S
C1353 H1377 0.949 . S
H1354 C1358 0.949 . S
C1355 C1356 1.349 1_565 S
C1355 C1357 1.327 . S
C1355 H1378 0.950 . S
C1356 C1355 1.349 1_545 S
C1356 C1368 1.349 . S
C1357 C1355 1.327 . S
C1357 C1373 1.429 1_565 S
C1357 H1379 0.950 . S
C1358 H1354 0.949 . S
C1358 C1366 1.574 . S
C1358 C1374 1.368 . S
H1359 C1367 0.950 . S
H1360 C1365 0.950 . S
H1361 C1366 0.949 . S
H1362 C1368 0.950 . S
H1363 C1369 0.950 . S
H1364 C1370 0.949 . S
C1365 H1360 0.950 . S
C1365 C1367 1.327 . S
C1365 C1371 1.429 1_565 S
C1366 C1358 1.574 . S
C1366 H1361 0.949 . S
C1366 C1372 1.368 . S
C1367 C1351 1.349 1_565 S
C1367 H1359 0.950 . S
C1367 C1365 1.327 . S
C1368 C1356 1.349 . S
C1368 H1362 0.950 . S
C1368 C1369 1.327 . S
C1369 H1363 0.950 . S
C1369 C1368 1.327 . S
C1369 C1373 1.429 . S
C1370 C1353 1.574 . S
C1370 H1364 0.949 . S
C1370 C1374 1.368 1_565 S
C1371 C1352 1.429 . S
C1371 C1365 1.429 1_545 S
C1371 C1372 1.523 . S
C1372 C1353 1.368 1_545 S
C1372 C1366 1.368 . S
C1372 C1371 1.523 . S
C1373 C1357 1.429 1_545 S
C1373 C1369 1.429 . S
C1373 C1374 1.523 . S
C1374 C1358 1.368 . S
C1374 C1370 1.368 1_545 S
C1374 C1373 1.523 . S
H1375 C1350 0.950 . S
H1376 C1352 0.950 . S
H1377 C1353 0.949 . S
H1378 C1355 0.950 . S
H1379 C1357 0.950 . S
C1380 C1381 1.349 . S
C1380 C1382 1.327 . S
C1380 H1405 0.950 . S
C1381 C1380 1.349 . S
C1381 C1397 1.349 . S
C1382 C1380 1.327 . S
C1382 C1401 1.429 . S
C1382 H1406 0.950 . S
C1383 C1400 1.574 . S
C1383 C1402 1.368 . S
C1383 H1407 0.949 . S
H1384 C1388 0.949 . S
C1385 C1386 1.349 . S
C1385 C1387 1.327 . S
C1385 H1408 0.950 . S
C1386 C1385 1.349 . S
C1386 C1398 1.349 . S
C1387 C1385 1.327 . S
C1387 C1403 1.429 . S
C1387 H1409 0.950 . S
C1388 H1384 0.949 . S
C1388 C1396 1.574 . S
C1388 C1404 1.368 . S
H1389 C1397 0.950 . S
H1390 C1395 0.950 . S
H1391 C1396 0.949 . S
H1392 C1398 0.950 . S
H1393 C1399 0.950 . S
H1394 C1400 0.949 . S
C1395 H1390 0.950 . S
C1395 C1397 1.327 . S
C1395 C1401 1.429 . S
C1396 C1388 1.574 . S
C1396 H1391 0.949 . S
C1396 C1402 1.368 . S
C1397 C1381 1.349 . S
C1397 H1389 0.950 . S
C1397 C1395 1.327 . S
C1398 C1386 1.349 . S
C1398 H1392 0.950 . S
C1398 C1399 1.327 . S
C1399 H1393 0.950 . S
C1399 C1398 1.327 . S
C1399 C1403 1.429 . S
C1400 C1383 1.574 . S
C1400 H1394 0.949 . S
C1400 C1404 1.368 . S
C1401 C1382 1.429 . S
C1401 C1395 1.429 . S
C1401 C1402 1.523 . S
C1402 C1383 1.368 . S
C1402 C1396 1.368 . S
C1402 C1401 1.523 . S
C1403 C1387 1.429 . S
C1403 C1399 1.429 . S
C1403 C1404 1.523 . S
C1404 C1388 1.368 . S
C1404 C1400 1.368 . S
C1404 C1403 1.523 . S
H1405 C1380 0.950 . S
H1406 C1382 0.950 . S
H1407 C1383 0.949 . S
H1408 C1385 0.950 . S
H1409 C1387 0.950 . S
C1410 C1411 1.349 . S
C1410 C1412 1.327 . S
C1410 H1435 0.950 . S
C1411 C1410 1.349 . S
C1411 C1427 1.349 . S
C1412 C1410 1.327 . S
C1412 C1431 1.429 . S
C1412 H1436 0.950 . S
C1413 C1430 1.574 . S
C1413 C1432 1.368 . S
C1413 H1437 0.949 . S
H1414 C1418 0.949 . S
C1415 C1416 1.349 . S
C1415 C1417 1.327 . S
C1415 H1438 0.950 . S
C1416 C1415 1.349 . S
C1416 C1428 1.349 . S
C1417 C1415 1.327 . S
C1417 C1433 1.429 . S
C1417 H1439 0.950 . S
C1418 H1414 0.949 . S
C1418 C1426 1.574 . S
C1418 C1434 1.368 . S
H1419 C1427 0.950 . S
H1420 C1425 0.950 . S
H1421 C1426 0.949 . S
H1422 C1428 0.950 . S
H1423 C1429 0.950 . S
H1424 C1430 0.949 . S
C1425 H1420 0.950 . S
C1425 C1427 1.327 . S
C1425 C1431 1.429 . S
C1426 C1418 1.574 . S
C1426 H1421 0.949 . S
C1426 C1432 1.368 . S
C1427 C1411 1.349 . S
C1427 H1419 0.950 . S
C1427 C1425 1.327 . S
C1428 C1416 1.349 . S
C1428 H1422 0.950 . S
C1428 C1429 1.327 . S
C1429 H1423 0.950 . S
C1429 C1428 1.327 . S
C1429 C1433 1.429 . S
C1430 C1413 1.574 . S
C1430 H1424 0.949 . S
C1430 C1434 1.368 . S
C1431 C1412 1.429 . S
C1431 C1425 1.429 . S
C1431 C1432 1.523 . S
C1432 C1413 1.368 . S
C1432 C1426 1.368 . S
C1432 C1431 1.523 . S
C1433 C1417 1.429 . S
C1433 C1429 1.429 . S
C1433 C1434 1.523 . S
C1434 C1418 1.368 . S
C1434 C1430 1.368 . S
C1434 C1433 1.523 . S
H1435 C1410 0.950 . S
H1436 C1412 0.950 . S
H1437 C1413 0.949 . S
H1438 C1415 0.950 . S
H1439 C1417 0.950 . S
C1440 C1441 1.349 . S
C1440 C1442 1.327 . S
C1440 H1465 0.950 . S
C1441 C1440 1.349 . S
C1441 C1457 1.349 . S
C1442 C1440 1.327 . S
C1442 C1461 1.429 . S
C1442 H1466 0.950 . S
C1443 C1460 1.574 . S
C1443 C1462 1.368 . S
C1443 H1467 0.949 . S
H1444 C1448 0.949 . S
C1445 C1446 1.349 . S
C1445 C1447 1.327 . S
C1445 H1468 0.950 . S
C1446 C1445 1.349 . S
C1446 C1458 1.349 . S
C1447 C1445 1.327 . S
C1447 C1463 1.429 . S
C1447 H1469 0.950 . S
C1448 H1444 0.949 . S
C1448 C1456 1.574 . S
C1448 C1464 1.368 . S
H1449 C1457 0.950 . S
H1450 C1455 0.950 . S
H1451 C1456 0.949 . S
H1452 C1458 0.950 . S
H1453 C1459 0.950 . S
H1454 C1460 0.949 . S
C1455 H1450 0.950 . S
C1455 C1457 1.327 . S
C1455 C1461 1.429 . S
C1456 C1448 1.574 . S
C1456 H1451 0.949 . S
C1456 C1462 1.368 . S
C1457 C1441 1.349 . S
C1457 H1449 0.950 . S
C1457 C1455 1.327 . S
C1458 C1446 1.349 . S
C1458 H1452 0.950 . S
C1458 C1459 1.327 . S
C1459 H1453 0.950 . S
C1459 C1458 1.327 . S
C1459 C1463 1.429 . S
C1460 C1443 1.574 . S
C1460 H1454 0.949 . S
C1460 C1464 1.368 . S
C1461 C1442 1.429 . S
C1461 C1455 1.429 . S
C1461 C1462 1.523 . S
C1462 C1443 1.368 . S
C1462 C1456 1.368 . S
C1462 C1461 1.523 . S
C1463 C1447 1.429 . S
C1463 C1459 1.429 . S
C1463 C1464 1.523 . S
C1464 C1448 1.368 . S
C1464 C1460 1.368 . S
C1464 C1463 1.523 . S
H1465 C1440 0.950 . S
H1466 C1442 0.950 . S
H1467 C1443 0.949 . S
H1468 C1445 0.950 . S
H1469 C1447 0.950 . S
C1470 C1471 1.349 . S
C1470 C1472 1.327 . S
C1470 H1495 0.950 . S
C1471 C1470 1.349 . S
C1471 C1487 1.349 . S
C1472 C1470 1.327 . S
C1472 C1491 1.429 . S
C1472 H1496 0.950 . S
C1473 C1490 1.574 . S
C1473 C1492 1.368 . S
C1473 H1497 0.949 . S
H1474 C1478 0.949 . S
C1475 C1476 1.349 . S
C1475 C1477 1.327 . S
C1475 H1498 0.950 . S
C1476 C1475 1.349 . S
C1476 C1488 1.349 . S
C1477 C1475 1.327 . S
C1477 C1493 1.429 . S
C1477 H1499 0.950 . S
C1478 H1474 0.949 . S
C1478 C1486 1.574 . S
C1478 C1494 1.368 . S
H1479 C1487 0.950 . S
H1480 C1485 0.950 . S
H1481 C1486 0.949 . S
H1482 C1488 0.950 . S
H1483 C1489 0.950 . S
H1484 C1490 0.949 . S
C1485 H1480 0.950 . S
C1485 C1487 1.327 . S
C1485 C1491 1.429 . S
C1486 C1478 1.574 . S
C1486 H1481 0.949 . S
C1486 C1492 1.368 . S
C1487 C1471 1.349 . S
C1487 H1479 0.950 . S
C1487 C1485 1.327 . S
C1488 C1476 1.349 . S
C1488 H1482 0.950 . S
C1488 C1489 1.327 . S
C1489 H1483 0.950 . S
C1489 C1488 1.327 . S
C1489 C1493 1.429 . S
C1490 C1473 1.574 . S
C1490 H1484 0.949 . S
C1490 C1494 1.368 . S
C1491 C1472 1.429 . S
C1491 C1485 1.429 . S
C1491 C1492 1.523 . S
C1492 C1473 1.368 . S
C1492 C1486 1.368 . S
C1492 C1491 1.523 . S
C1493 C1477 1.429 . S
C1493 C1489 1.429 . S
C1493 C1494 1.523 . S
C1494 C1478 1.368 . S
C1494 C1490 1.368 . S
C1494 C1493 1.523 . S
H1495 C1470 0.950 . S
H1496 C1472 0.950 . S
H1497 C1473 0.949 . S
H1498 C1475 0.950 . S
H1499 C1477 0.950 . S
C1500 C1501 1.349 . S
C1500 C1502 1.327 . S
C1500 H1525 0.950 . S
C1501 C1500 1.349 . S
C1501 C1517 1.349 . S
C1502 C1500 1.327 . S
C1502 C1521 1.429 . S
C1502 H1526 0.950 . S
C1503 C1520 1.574 . S
C1503 C1522 1.368 . S
C1503 H1527 0.949 . S
H1504 C1508 0.949 . S
C1505 C1506 1.349 . S
C1505 C1507 1.327 . S
C1505 H1528 0.950 . S
C1506 C1505 1.349 . S
C1506 C1518 1.349 . S
C1507 C1505 1.327 . S
C1507 C1523 1.429 . S
C1507 H1529 0.950 . S
C1508 H1504 0.949 . S
C1508 C1516 1.574 . S
C1508 C1524 1.368 . S
H1509 C1517 0.950 . S
H1510 C1515 0.950 . S
H1511 C1516 0.949 . S
H1512 C1518 0.950 . S
H1513 C1519 0.950 . S
H1514 C1520 0.949 . S
C1515 H1510 0.950 . S
C1515 C1517 1.327 . S
C1515 C1521 1.429 . S
C1516 C1508 1.574 . S
C1516 H1511 0.949 . S
C1516 C1522 1.368 . S
C1517 C1501 1.349 . S
C1517 H1509 0.950 . S
C1517 C1515 1.327 . S
C1518 C1506 1.349 . S
C1518 H1512 0.950 . S
C1518 C1519 1.327 . S
C1519 H1513 0.950 . S
C1519 C1518 1.327 . S
C1519 C1523 1.429 . S
C1520 C1503 1.574 . S
C1520 H1514 0.949 . S
C1520 C1524 1.368 . S
C1521 C1502 1.429 . S
C1521 C1515 1.429 . S
C1521 C1522 1.523 . S
C1522 C1503 1.368 . S
C1522 C1516 1.368 . S
C1522 C1521 1.523 . S
C1523 C1507 1.429 . S
C1523 C1519 1.429 . S
C1523 C1524 1.523 . S
C1524 C1508 1.368 . S
C1524 C1520 1.368 . S
C1524 C1523 1.523 . S
H1525 C1500 0.950 . S
H1526 C1502 0.950 . S
H1527 C1503 0.949 . S
H1528 C1505 0.950 . S
H1529 C1507 0.950 . S
C1530 C1531 1.349 . S
C1530 C1532 1.327 . S
C1530 H1555 0.950 . S
C1531 C1530 1.349 . S
C1531 C1547 1.349 . S
C1532 C1530 1.327 . S
C1532 C1551 1.429 . S
C1532 H1556 0.950 . S
C1533 C1550 1.574 . S
C1533 C1552 1.368 . S
C1533 H1557 0.949 . S
H1534 C1538 0.949 . S
C1535 C1536 1.349 . S
C1535 C1537 1.327 . S
C1535 H1558 0.950 . S
C1536 C1535 1.349 . S
C1536 C1548 1.349 . S
C1537 C1535 1.327 . S
C1537 C1553 1.429 . S
C1537 H1559 0.950 . S
C1538 H1534 0.949 . S
C1538 C1546 1.574 . S
C1538 C1554 1.368 . S
H1539 C1547 0.950 . S
H1540 C1545 0.950 . S
H1541 C1546 0.949 . S
H1542 C1548 0.950 . S
H1543 C1549 0.950 . S
H1544 C1550 0.949 . S
C1545 H1540 0.950 . S
C1545 C1547 1.327 . S
C1545 C1551 1.429 . S
C1546 C1538 1.574 . S
C1546 H1541 0.949 . S
C1546 C1552 1.368 . S
C1547 C1531 1.349 . S
C1547 H1539 0.950 . S
C1547 C1545 1.327 . S
C1548 C1536 1.349 . S
C1548 H1542 0.950 . S
C1548 C1549 1.327 . S
C1549 H1543 0.950 . S
C1549 C1548 1.327 . S
C1549 C1553 1.429 . S
C1550 C1533 1.574 . S
C1550 H1544 0.949 . S
C1550 C1554 1.368 . S
C1551 C1532 1.429 . S
C1551 C1545 1.429 . S
C1551 C1552 1.523 . S
C1552 C1533 1.368 . S
C1552 C1546 1.368 . S
C1552 C1551 1.523 . S
C1553 C1537 1.429 . S
C1553 C1549 1.429 . S
C1553 C1554 1.523 . S
C1554 C1538 1.368 . S
C1554 C1550 1.368 . S
C1554 C1553 1.523 . S
H1555 C1530 0.950 . S
H1556 C1532 0.950 . S
H1557 C1533 0.949 . S
H1558 C1535 0.950 . S
H1559 C1537 0.950 . S
C1560 C1561 1.349 . S
C1560 C1562 1.327 . S
C1560 H1585 0.950 . S
C1561 C1560 1.349 . S
C1561 C1577 1.349 . S
C1562 C1560 1.327 . S
C1562 C1581 1.429 . S
C1562 H1586 0.950 . S
C1563 C1580 1.574 . S
C1563 C1582 1.368 . S
C1563 H1587 0.949 . S
H1564 C1568 0.949 . S
C1565 C1566 1.349 . S
C1565 C1567 1.327 . S
C1565 H1588 0.950 . S
C1566 C1565 1.349 . S
C1566 C1578 1.349 . S
C1567 C1565 1.327 . S
C1567 C1583 1.429 . S
C1567 H1589 0.950 . S
C1568 H1564 0.949 . S
C1568 C1576 1.574 . S
C1568 C1584 1.368 . S
H1569 C1577 0.950 . S
H1570 C1575 0.950 . S
H1571 C1576 0.949 . S
H1572 C1578 0.950 . S
H1573 C1579 0.950 . S
H1574 C1580 0.949 . S
C1575 H1570 0.950 . S
C1575 C1577 1.327 . S
C1575 C1581 1.429 . S
C1576 C1568 1.574 . S
C1576 H1571 0.949 . S
C1576 C1582 1.368 . S
C1577 C1561 1.349 . S
C1577 H1569 0.950 . S
C1577 C1575 1.327 . S
C1578 C1566 1.349 . S
C1578 H1572 0.950 . S
C1578 C1579 1.327 . S
C1579 H1573 0.950 . S
C1579 C1578 1.327 . S
C1579 C1583 1.429 . S
C1580 C1563 1.574 . S
C1580 H1574 0.949 . S
C1580 C1584 1.368 . S
C1581 C1562 1.429 . S
C1581 C1575 1.429 . S
C1581 C1582 1.523 . S
C1582 C1563 1.368 . S
C1582 C1576 1.368 . S
C1582 C1581 1.523 . S
C1583 C1567 1.429 . S
C1583 C1579 1.429 . S
C1583 C1584 1.523 . S
C1584 C1568 1.368 . S
C1584 C1580 1.368 . S
C1584 C1583 1.523 . S
H1585 C1560 0.950 . S
H1586 C1562 0.950 . S
H1587 C1563 0.949 . S
H1588 C1565 0.950 . S
H1589 C1567 0.950 . S
C1590 C1591 1.349 . S
C1590 C1592 1.327 . S
C1590 H1615 0.950 . S
C1591 C1590 1.349 . S
C1591 C1607 1.349 . S
C1592 C1590 1.327 . S
C1592 C1611 1.429 . S
C1592 H1616 0.950 . S
C1593 C1610 1.574 . S
C1593 C1612 1.368 . S
C1593 H1617 0.949 . S
H1594 C1598 0.949 . S
C1595 C1596 1.349 . S
C1595 C1597 1.327 . S
C1595 H1618 0.950 . S
C1596 C1595 1.349 . S
C1596 C1608 1.349 . S
C1597 C1595 1.327 . S
C1597 C1613 1.429 . S
C1597 H1619 0.950 . S
C1598 H1594 0.949 . S
C1598 C1606 1.574 . S
C1598 C1614 1.368 . S
H1599 C1607 0.950 . S
H1600 C1605 0.950 . S
H1601 C1606 0.949 . S
H1602 C1608 0.950 . S
H1603 C1609 0.950 . S
H1604 C1610 0.949 . S
C1605 H1600 0.950 . S
C1605 C1607 1.327 . S
C1605 C1611 1.429 . S
C1606 C1598 1.574 . S
C1606 H1601 0.949 . S
C1606 C1612 1.368 . S
C1607 C1591 1.349 . S
C1607 H1599 0.950 . S
C1607 C1605 1.327 . S
C1608 C1596 1.349 . S
C1608 H1602 0.950 . S
C1608 C1609 1.327 . S
C1609 H1603 0.950 . S
C1609 C1608 1.327 . S
C1609 C1613 1.429 . S
C1610 C1593 1.574 . S
C1610 H1604 0.949 . S
C1610 C1614 1.368 . S
C1611 C1592 1.429 . S
C1611 C1605 1.429 . S
C1611 C1612 1.523 . S
C1612 C1593 1.368 . S
C1612 C1606 1.368 . S
C1612 C1611 1.523 . S
C1613 C1597 1.429 . S
C1613 C1609 1.429 . S
C1613 C1614 1.523 . S
C1614 C1598 1.368 . S
C1614 C1610 1.368 . S
C1614 C1613 1.523 . S
H1615 C1590 0.950 . S
H1616 C1592 0.950 . S
H1617 C1593 0.949 . S
H1618 C1595 0.950 . S
H1619 C1597 0.950 . S
C1620 C1621 1.349 . S
C1620 C1622 1.327 . S
C1620 H1645 0.950 . S
C1621 C1620 1.349 . S
C1621 C1637 1.349 . S
C1622 C1620 1.327 . S
C1622 C1641 1.429 . S
C1622 H1646 0.950 . S
C1623 C1640 1.574 . S
C1623 C1642 1.368 . S
C1623 H1647 0.949 . S
H1624 C1628 0.949 . S
C1625 C1626 1.349 . S
C1625 C1627 1.327 . S
C1625 H1648 0.950 . S
C1626 C1625 1.349 . S
C1626 C1638 1.349 . S
C1627 C1625 1.327 . S
C1627 C1643 1.429 . S
C1627 H1649 0.950 . S
C1628 H1624 0.949 . S
C1628 C1636 1.574 . S
C1628 C1644 1.368 . S
H1629 C1637 0.950 . S
H1630 C1635 0.950 . S
H1631 C1636 0.949 . S
H1632 C1638 0.950 . S
H1633 C1639 0.950 . S
H1634 C1640 0.949 . S
C1635 H1630 0.950 . S
C1635 C1637 1.327 . S
C1635 C1641 1.429 . S
C1636 C1628 1.574 . S
C1636 H1631 0.949 . S
C1636 C1642 1.368 . S
C1637 C1621 1.349 . S
C1637 H1629 0.950 . S
C1637 C1635 1.327 . S
C1638 C1626 1.349 . S
C1638 H1632 0.950 . S
C1638 C1639 1.327 . S
C1639 H1633 0.950 . S
C1639 C1638 1.327 . S
C1639 C1643 1.429 . S
C1640 C1623 1.574 . S
C1640 H1634 0.949 . S
C1640 C1644 1.368 . S
C1641 C1622 1.429 . S
C1641 C1635 1.429 . S
C1641 C1642 1.523 . S
C1642 C1623 1.368 . S
C1642 C1636 1.368 . S
C1642 C1641 1.523 . S
C1643 C1627 1.429 . S
C1643 C1639 1.429 . S
C1643 C1644 1.523 . S
C1644 C1628 1.368 . S
C1644 C1640 1.368 . S
C1644 C1643 1.523 . S
H1645 C1620 0.950 . S
H1646 C1622 0.950 . S
H1647 C1623 0.949 . S
H1648 C1625 0.950 . S
H1649 C1627 0.950 . S
C1650 C1651 1.349 . S
C1650 C1652 1.327 . S
C1650 H1675 0.950 . S
C1651 C1650 1.349 . S
C1651 C1667 1.349 . S
C1652 C1650 1.327 . S
C1652 C1671 1.429 . S
C1652 H1676 0.950 . S
C1653 C1670 1.574 . S
C1653 C1672 1.368 . S
C1653 H1677 0.949 . S
H1654 C1658 0.949 . S
C1655 C1656 1.349 . S
C1655 C1657 1.327 . S
C1655 H1678 0.950 . S
C1656 C1655 1.349 . S
C1656 C1668 1.349 . S
C1657 C1655 1.327 . S
C1657 C1673 1.429 . S
C1657 H1679 0.950 . S
C1658 H1654 0.949 . S
C1658 C1666 1.574 . S
C1658 C1674 1.368 . S
H1659 C1667 0.950 . S
H1660 C1665 0.950 . S
H1661 C1666 0.949 . S
H1662 C1668 0.950 . S
H1663 C1669 0.950 . S
H1664 C1670 0.949 . S
C1665 H1660 0.950 . S
C1665 C1667 1.327 . S
C1665 C1671 1.429 . S
C1666 C1658 1.574 . S
C1666 H1661 0.949 . S
C1666 C1672 1.368 . S
C1667 C1651 1.349 . S
C1667 H1659 0.950 . S
C1667 C1665 1.327 . S
C1668 C1656 1.349 . S
C1668 H1662 0.950 . S
C1668 C1669 1.327 . S
C1669 H1663 0.950 . S
C1669 C1668 1.327 . S
C1669 C1673 1.429 . S
C1670 C1653 1.574 . S
C1670 H1664 0.949 . S
C1670 C1674 1.368 . S
C1671 C1652 1.429 . S
C1671 C1665 1.429 . S
C1671 C1672 1.523 . S
C1672 C1653 1.368 . S
C1672 C1666 1.368 . S
C1672 C1671 1.523 . S
C1673 C1657 1.429 . S
C1673 C1669 1.429 . S
C1673 C1674 1.523 . S
C1674 C1658 1.368 . S
C1674 C1670 1.368 . S
C1674 C1673 1.523 . S
H1675 C1650 0.950 . S
H1676 C1652 0.950 . S
H1677 C1653 0.949 . S
H1678 C1655 0.950 . S
H1679 C1657 0.950 . S
C1680 C1681 1.349 . S
C1680 C1682 1.327 . S
C1680 H1705 0.950 . S
C1681 C1680 1.349 . S
C1681 C1697 1.349 . S
C1682 C1680 1.327 . S
C1682 C1701 1.429 . S
C1682 H1706 0.950 . S
C1683 C1700 1.574 . S
C1683 C1702 1.368 . S
C1683 H1707 0.949 . S
H1684 C1688 0.949 . S
C1685 C1686 1.349 . S
C1685 C1687 1.327 . S
C1685 H1708 0.950 . S
C1686 C1685 1.349 . S
C1686 C1698 1.349 . S
C1687 C1685 1.327 . S
C1687 C1703 1.429 . S
C1687 H1709 0.950 . S
C1688 H1684 0.949 . S
C1688 C1696 1.574 . S
C1688 C1704 1.368 . S
H1689 C1697 0.950 . S
H1690 C1695 0.950 . S
H1691 C1696 0.949 . S
H1692 C1698 0.950 . S
H1693 C1699 0.950 . S
H1694 C1700 0.949 . S
C1695 H1690 0.950 . S
C1695 C1697 1.327 . S
C1695 C1701 1.429 . S
C1696 C1688 1.574 . S
C1696 H1691 0.949 . S
C1696 C1702 1.368 . S
C1697 C1681 1.349 . S
C1697 H1689 0.950 . S
C1697 C1695 1.327 . S
C1698 C1686 1.349 . S
C1698 H1692 0.950 . S
C1698 C1699 1.327 . S
C1699 H1693 0.950 . S
C1699 C1698 1.327 . S
C1699 C1703 1.429 . S
C1700 C1683 1.574 . S
C1700 H1694 0.949 . S
C1700 C1704 1.368 . S
C1701 C1682 1.429 . S
C1701 C1695 1.429 . S
C1701 C1702 1.523 . S
C1702 C1683 1.368 . S
C1702 C1696 1.368 . S
C1702 C1701 1.523 . S
C1703 C1687 1.429 . S
C1703 C1699 1.429 . S
C1703 C1704 1.523 . S
C1704 C1688 1.368 . S
C1704 C1700 1.368 . S
C1704 C1703 1.523 . S
H1705 C1680 0.950 . S
H1706 C1682 0.950 . S
H1707 C1683 0.949 . S
H1708 C1685 0.950 . S
H1709 C1687 0.950 . S
C1710 C1711 1.349 . S
C1710 C1712 1.327 . S
C1710 H1735 0.950 . S
C1711 C1710 1.349 . S
C1711 C1727 1.349 . S
C1712 C1710 1.327 . S
C1712 C1731 1.429 . S
C1712 H1736 0.950 . S
C1713 C1730 1.574 . S
C1713 C1732 1.368 . S
C1713 H1737 0.949 . S
H1714 C1718 0.949 . S
C1715 C1716 1.349 . S
C1715 C1717 1.327 . S
C1715 H1738 0.950 . S
C1716 C1715 1.349 . S
C1716 C1728 1.349 . S
C1717 C1715 1.327 . S
C1717 C1733 1.429 . S
C1717 H1739 0.950 . S
C1718 H1714 0.949 . S
C1718 C1726 1.574 . S
C1718 C1734 1.368 . S
H1719 C1727 0.950 . S
H1720 C1725 0.950 . S
H1721 C1726 0.949 . S
H1722 C1728 0.950 . S
H1723 C1729 0.950 . S
H1724 C1730 0.949 . S
C1725 H1720 0.950 . S
C1725 C1727 1.327 . S
C1725 C1731 1.429 . S
C1726 C1718 1.574 . S
C1726 H1721 0.949 . S
C1726 C1732 1.368 . S
C1727 C1711 1.349 . S
C1727 H1719 0.950 . S
C1727 C1725 1.327 . S
C1728 C1716 1.349 . S
C1728 H1722 0.950 . S
C1728 C1729 1.327 . S
C1729 H1723 0.950 . S
C1729 C1728 1.327 . S
C1729 C1733 1.429 . S
C1730 C1713 1.574 . S
C1730 H1724 0.949 . S
C1730 C1734 1.368 . S
C1731 C1712 1.429 . S
C1731 C1725 1.429 . S
C1731 C1732 1.523 . S
C1732 C1713 1.368 . S
C1732 C1726 1.368 . S
C1732 C1731 1.523 . S
C1733 C1717 1.429 . S
C1733 C1729 1.429 . S
C1733 C1734 1.523 . S
C1734 C1718 1.368 . S
C1734 C1730 1.368 . S
C1734 C1733 1.523 . S
H1735 C1710 0.950 . S
H1736 C1712 0.950 . S
H1737 C1713 0.949 . S
H1738 C1715 0.950 . S
H1739 C1717 0.950 . S
C1740 C1741 1.349 . S
C1740 C1742 1.327 . S
C1740 H1765 0.950 . S
C1741 C1740 1.349 . S
C1741 C1757 1.349 . S
C1742 C1740 1.327 . S
C1742 C1761 1.429 . S
C1742 H1766 0.950 . S
C1743 C1760 1.574 . S
C1743 C1762 1.368 . S
C1743 H1767 0.949 . S
H1744 C1748 0.949 . S
C1745 C1746 1.349 . S
C1745 C1747 1.327 . S
C1745 H1768 0.950 . S
C1746 C1745 1.349 . S
C1746 C1758 1.349 . S
C1747 C1745 1.327 . S
C1747 C1763 1.429 . S
C1747 H1769 0.950 . S
C1748 H1744 0.949 . S
C1748 C1756 1.574 . S
C1748 C1764 1.368 . S
H1749 C1757 0.950 . S
H1750 C1755 0.950 . S
H1751 C1756 0.949 . S
H1752 C1758 0.950 . S
H1753 C1759 0.950 . S
H1754 C1760 0.949 . S
C1755 H1750 0.950 . S
C1755 C1757 1.327 . S
C1755 C1761 1.429 . S
C1756 C1748 1.574 . S
C1756 H1751 0.949 . S
C1756 C1762 1.368 . S
C1757 C1741 1.349 . S
C1757 H1749 0.950 . S
C1757 C1755 1.327 . S
C1758 C1746 1.349 . S
C1758 H1752 0.950 . S
C1758 C1759 1.327 . S
C1759 H1753 0.950 . S
C1759 C1758 1.327 . S
C1759 C1763 1.429 . S
C1760 C1743 1.574 . S
C1760 H1754 0.949 . S
C1760 C1764 1.368 . S
C1761 C1742 1.429 . S
C1761 C1755 1.429 . S
C1761 C1762 1.523 . S
C1762 C1743 1.368 . S
C1762 C1756 1.368 . S
C1762 C1761 1.523 . S
C1763 C1747 1.429 . S
C1763 C1759 1.429 . S
C1763 C1764 1.523 . S
C1764 C1748 1.368 . S
C1764 C1760 1.368 . S
C1764 C1763 1.523 . S
H1765 C1740 0.950 . S
H1766 C1742 0.950 . S
H1767 C1743 0.949 . S
H1768 C1745 0.950 . S
H1769 C1747 0.950 . S
C1770 C1771 1.349 . S
C1770 C1772 1.327 . S
C1770 H1795 0.950 . S
C1771 C1770 1.349 . S
C1771 C1787 1.349 . S
C1772 C1770 1.327 . S
C1772 C1791 1.429 . S
C1772 H1796 0.950 . S
C1773 C1790 1.574 . S
C1773 C1792 1.368 . S
C1773 H1797 0.949 . S
H1774 C1778 0.949 . S
C1775 C1776 1.349 . S
C1775 C1777 1.327 . S
C1775 H1798 0.950 . S
C1776 C1775 1.349 . S
C1776 C1788 1.349 . S
C1777 C1775 1.327 . S
C1777 C1793 1.429 . S
C1777 H1799 0.950 . S
C1778 H1774 0.949 . S
C1778 C1786 1.574 . S
C1778 C1794 1.368 . S
H1779 C1787 0.950 . S
H1780 C1785 0.950 . S
H1781 C1786 0.949 . S
H1782 C1788 0.950 . S
H1783 C1789 0.950 . S
H1784 C1790 0.949 . S
C1785 H1780 0.950 . S
C1785 C1787 1.327 . S
C1785 C1791 1.429 . S
C1786 C1778 1.574 . S
C1786 H1781 0.949 . S
C1786 C1792 1.368 . S
C1787 C1771 1.349 . S
C1787 H1779 0.950 . S
C1787 C1785 1.327 . S
C1788 C1776 1.349 . S
C1788 H1782 0.950 . S
C1788 C1789 1.327 . S
C1789 H1783 0.950 . S
C1789 C1788 1.327 . S
C1789 C1793 1.429 . S
C1790 C1773 1.574 . S
C1790 H1784 0.949 . S
C1790 C1794 1.368 . S
C1791 C1772 1.429 . S
C1791 C1785 1.429 . S
C1791 C1792 1.523 . S
C1792 C1773 1.368 . S
C1792 C1786 1.368 . S
C1792 C1791 1.523 . S
C1793 C1777 1.429 . S
C1793 C1789 1.429 . S
C1793 C1794 1.523 . S
C1794 C1778 1.368 . S
C1794 C1790 1.368 . S
C1794 C1793 1.523 . S
H1795 C1770 0.950 . S
H1796 C1772 0.950 . S
H1797 C1773 0.949 . S
H1798 C1775 0.950 . S
H1799 C1777 0.950 . S
C1800 C1801 1.349 . S
C1800 C1802 1.327 . S
C1800 H1825 0.950 . S
C1801 C1800 1.349 . S
C1801 C1817 1.349 . S
C1802 C1800 1.327 . S
C1802 C1821 1.429 . S
C1802 H1826 0.950 . S
C1803 C1820 1.574 . S
C1803 C1822 1.368 . S
C1803 H1827 0.949 . S
H1804 C1808 0.949 . S
C1805 C1806 1.349 . S
C1805 C1807 1.327 . S
C1805 H1828 0.950 . S
C1806 C1805 1.349 . S
C1806 C1818 1.349 . S
C1807 C1805 1.327 . S
C1807 C1823 1.429 . S
C1807 H1829 0.950 . S
C1808 H1804 0.949 . S
C1808 C1816 1.574 . S
C1808 C1824 1.368 . S
H1809 C1817 0.950 . S
H1810 C1815 0.950 . S
H1811 C1816 0.949 . S
H1812 C1818 0.950 . S
H1813 C1819 0.950 . S
H1814 C1820 0.949 . S
C1815 H1810 0.950 . S
C1815 C1817 1.327 . S
C1815 C1821 1.429 . S
C1816 C1808 1.574 . S
C1816 H1811 0.949 . S
C1816 C1822 1.368 . S
C1817 C1801 1.349 . S
C1817 H1809 0.950 . S
C1817 C1815 1.327 . S
C1818 C1806 1.349 . S
C1818 H1812 0.950 . S
C1818 C1819 1.327 . S
C1819 H1813 0.950 . S
C1819 C1818 1.327 . S
C1819 C1823 1.429 . S
C1820 C1803 1.574 . S
C1820 H1814 0.949 . S
C1820 C1824 1.368 . S
C1821 C1802 1.429 . S
C1821 C1815 1.429 . S
C1821 C1822 1.523 . S
C1822 C1803 1.368 . S
C1822 C1816 1.368 . S
C1822 C1821 1.523 . S
C1823 C1807 1.429 . S
C1823 C1819 1.429 . S
C1823 C1824 1.523 . S
C1824 C1808 1.368 . S
C1824 C1820 1.368 . S
C1824 C1823 1.523 . S
H1825 C1800 0.950 . S
H1826 C1802 0.950 . S
H1827 C1803 0.949 . S
H1828 C1805 0.950 . S
H1829 C1807 0.950 . S
C1830 C1831 1.349 . S
C1830 C1832 1.327 . S
C1830 H1855 0.950 . S
C1831 C1830 1.349 . S
C1831 C1847 1.349 . S
C1832 C1830 1.327 . S
C1832 C1851 1.429 . S
C1832 H1856 0.950 . S
C1833 C1850 1.574 . S
C1833 C1852 1.368 . S
C1833 H1857 0.949 . S
H1834 C1838 0.949 . S
C1835 C1836 1.349 . S
C1835 C1837 1.327 . S
C1835 H1858 0.950 . S
C1836 C1835 1.349 . S
C1836 C1848 1.349 . S
C1837 C1835 1.327 . S
C1837 C1853 1.429 . S
C1837 H1859 0.950 . S
C1838 H1834 0.949 . S
C1838 C1846 1.574 . S
C1838 C1854 1.368 . S
H1839 C1847 0.950 . S
H1840 C1845 0.950 . S
H1841 C1846 0.949 . S
H1842 C1848 0.950 . S
H1843 C1849 0.950 . S
H1844 C1850 0.949 . S
C1845 H1840 0.950 . S
C1845 C1847 1.327 . S
C1845 C1851 1.429 . S
C1846 C1838 1.574 . S
C1846 H1841 0.949 . S
C1846 C1852 1.368 . S
C1847 C1831 1.349 . S
C1847 H1839 0.950 . S
C1847 C1845 1.327 . S
C1848 C1836 1.349 . S
C1848 H1842 0.950 . S
C1848 C1849 1.327 . S
C1849 H1843 0.950 . S
C1849 C1848 1.327 . S
C1849 C1853 1.429 . S
C1850 C1833 1.574 . S
C1850 H1844 0.949 . S
C1850 C1854 1.368 . S
C1851 C1832 1.429 . S
C1851 C1845 1.429 . S
C1851 C1852 1.523 . S
C1852 C1833 1.368 . S
C1852 C1846 1.368 . S
C1852 C1851 1.523 . S
C1853 C1837 1.429 . S
C1853 C1849 1.429 . S
C1853 C1854 1.523 . S
C1854 C1838 1.368 . S
C1854 C1850 1.368 . S
C1854 C1853 1.523 . S
H1855 C1830 0.950 . S
H1856 C1832 0.950 . S
H1857 C1833 0.949 . S
H1858 C1835 0.950 . S
H1859 C1837 0.950 . S
C1860 C1861 1.349 . S
C1860 C1862 1.327 . S
C1860 H1885 0.950 . S
C1861 C1860 1.349 . S
C1861 C1877 1.349 . S
C1862 C1860 1.327 . S
C1862 C1881 1.429 . S
C1862 H1886 0.950 . S
C1863 C1880 1.574 . S
C1863 C1882 1.368 . S
C1863 H1887 0.949 . S
H1864 C1868 0.949 . S
C1865 C1866 1.349 . S
C1865 C1867 1.327 . S
C1865 H1888 0.950 . S
C1866 C1865 1.349 . S
C1866 C1878 1.349 . S
C1867 C1865 1.327 . S
C1867 C1883 1.429 . S
C1867 H1889 0.950 . S
C1868 H1864 0.949 . S
C1868 C1876 1.574 . S
C1868 C1884 1.368 . S
H1869 C1877 0.950 . S
H1870 C1875 0.950 . S
H1871 C1876 0.949 . S
H1872 C1878 0.950 . S
H1873 C1879 0.950 . S
H1874 C1880 0.949 . S
C1875 H1870 0.950 . S
C1875 C1877 1.327 . S
C1875 C1881 1.429 . S
C1876 C1868 1.574 . S
C1876 H1871 0.949 . S
C1876 C1882 1.368 . S
C1877 C1861 1.349 . S
C1877 H1869 0.950 . S
C1877 C1875 1.327 . S
C1878 C1866 1.349 . S
C1878 H1872 0.950 . S
C1878 C1879 1.327 . S
C1879 H1873 0.950 . S
C1879 C1878 1.327 . S
C1879 C1883 1.429 . S
C1880 C1863 1.574 . S
C1880 H1874 0.949 . S
C1880 C1884 1.368 . S
C1881 C1862 1.429 . S
C1881 C1875 1.429 . S
C1881 C1882 1.523 . S
C1882 C1863 1.368 . S
C1882 C1876 1.368 . S
C1882 C1881 1.523 . S
C1883 C1867 1.429 . S
C1883 C1879 1.429 . S
C1883 C1884 1.523 . S
C1884 C1868 1.368 . S
C1884 C1880 1.368 . S
C1884 C1883 1.523 . S
H1885 C1860 0.950 . S
H1886 C1862 0.950 . S
H1887 C1863 0.949 . S
H1888 C1865 0.950 . S
H1889 C1867 0.950 . S
C1890 C1891 1.349 . S
C1890 C1892 1.327 . S
C1890 H1915 0.950 . S
C1891 C1890 1.349 . S
C1891 C1907 1.349 . S
C1892 C1890 1.327 . S
C1892 C1911 1.429 . S
C1892 H1916 0.950 . S
C1893 C1910 1.574 . S
C1893 C1912 1.368 . S
C1893 H1917 0.949 . S
H1894 C1898 0.949 . S
C1895 C1896 1.349 . S
C1895 C1897 1.327 . S
C1895 H1918 0.950 . S
C1896 C1895 1.349 . S
C1896 C1908 1.349 . S
C1897 C1895 1.327 . S
C1897 C1913 1.429 . S
C1897 H1919 0.950 . S
C1898 H1894 0.949 . S
C1898 C1906 1.574 . S
C1898 C1914 1.368 . S
H1899 C1907 0.950 . S
H1900 C1905 0.950 . S
H1901 C1906 0.949 . S
H1902 C1908 0.950 . S
H1903 C1909 0.950 . S
H1904 C1910 0.949 . S
C1905 H1900 0.950 . S
C1905 C1907 1.327 . S
C1905 C1911 1.429 . S
C1906 C1898 1.574 . S
C1906 H1901 0.949 . S
C1906 C1912 1.368 . S
C1907 C1891 1.349 . S
C1907 H1899 0.950 . S
C1907 C1905 1.327 . S
C1908 C1896 1.349 . S
C1908 H1902 0.950 . S
C1908 C1909 1.327 . S
C1909 H1903 0.950 . S
C1909 C1908 1.327 . S
C1909 C1913 1.429 . S
C1910 C1893 1.574 . S
C1910 H1904 0.949 . S
C1910 C1914 1.368 . S
C1911 C1892 1.429 . S
C1911 C1905 1.429 . S
C1911 C1912 1.523 . S
C1912 C1893 1.368 . S
C1912 C1906 1.368 . S
C1912 C1911 1.523 . S
C1913 C1897 1.429 . S
C1913 C1909 1.429 . S
C1913 C1914 1.523 . S
C1914 C1898 1.368 . S
C1914 C1910 1.368 . S
C1914 C1913 1.523 . S
H1915 C1890 0.950 . S
H1916 C1892 0.950 . S
H1917 C1893 0.949 . S
H1918 C1895 0.950 . S
H1919 C1897 0.950 . S
C1920 C1921 1.349 . S
C1920 C1922 1.327 . S
C1920 H1945 0.950 . S
C1921 C1920 1.349 . S
C1921 C1937 1.349 . S
C1922 C1920 1.327 . S
C1922 C1941 1.429 . S
C1922 H1946 0.950 . S
C1923 C1940 1.574 . S
C1923 C1942 1.368 . S
C1923 H1947 0.949 . S
H1924 C1928 0.949 . S
C1925 C1926 1.349 . S
C1925 C1927 1.327 . S
C1925 H1948 0.950 . S
C1926 C1925 1.349 . S
C1926 C1938 1.349 . S
C1927 C1925 1.327 . S
C1927 C1943 1.429 . S
C1927 H1949 0.950 . S
C1928 H1924 0.949 . S
C1928 C1936 1.574 . S
C1928 C1944 1.368 . S
H1929 C1937 0.950 . S
H1930 C1935 0.950 . S
H1931 C1936 0.949 . S
H1932 C1938 0.950 . S
H1933 C1939 0.950 . S
H1934 C1940 0.949 . S
C1935 H1930 0.950 . S
C1935 C1937 1.327 . S
C1935 C1941 1.429 . S
C1936 C1928 1.574 . S
C1936 H1931 0.949 . S
C1936 C1942 1.368 . S
C1937 C1921 1.349 . S
C1937 H1929 0.950 . S
C1937 C1935 1.327 . S
C1938 C1926 1.349 . S
C1938 H1932 0.950 . S
C1938 C1939 1.327 . S
C1939 H1933 0.950 . S
C1939 C1938 1.327 . S
C1939 C1943 1.429 . S
C1940 C1923 1.574 . S
C1940 H1934 0.949 . S
C1940 C1944 1.368 . S
C1941 C1922 1.429 . S
C1941 C1935 1.429 . S
C1941 C1942 1.523 . S
C1942 C1923 1.368 . S
C1942 C1936 1.368 . S
C1942 C1941 1.523 . S
C1943 C1927 1.429 . S
C1943 C1939 1.429 . S
C1943 C1944 1.523 . S
C1944 C1928 1.368 . S
C1944 C1940 1.368 . S
C1944 C1943 1.523 . S
H1945 C1920 0.950 . S
H1946 C1922 0.950 . S
H1947 C1923 0.949 . S
H1948 C1925 0.950 . S
H1949 C1927 0.950 . S
C1950 C1951 1.349 . S
C1950 C1952 1.327 . S
C1950 H1975 0.950 . S
C1951 C1950 1.349 . S
C1951 C1967 1.349 . S
C1952 C1950 1.327 . S
C1952 C1971 1.429 . S
C1952 H1976 0.950 . S
C1953 C1970 1.574 . S
C1953 C1972 1.368 . S
C1953 H1977 0.949 . S
H1954 C1958 0.949 . S
C1955 C1956 1.349 . S
C1955 C1957 1.327 . S
C1955 H1978 0.950 . S
C1956 C1955 1.349 . S
C1956 C1968 1.349 . S
C1957 C1955 1.327 . S
C1957 C1973 1.429 . S
C1957 H1979 0.950 . S
C1958 H1954 0.949 . S
C1958 C1966 1.574 . S
C1958 C1974 1.368 . S
H1959 C1967 0.950 . S
H1960 C1965 0.950 . S
H1961 C1966 0.949 . S
H1962 C1968 0.950 . S
H1963 C1969 0.950 . S
H1964 C1970 0.949 . S
C1965 H1960 0.950 . S
C1965 C1967 1.327 . S
C1965 C1971 1.429 . S
C1966 C1958 1.574 . S
C1966 H1961 0.949 . S
C1966 C1972 1.368 . S
C1967 C1951 1.349 . S
C1967 H1959 0.950 . S
C1967 C1965 1.327 . S
C1968 C1956 1.349 . S
C1968 H1962 0.950 . S
C1968 C1969 1.327 . S
C1969 H1963 0.950 . S
C1969 C1968 1.327 . S
C1969 C1973 1.429 . S
C1970 C1953 1.574 . S
C1970 H1964 0.949 . S
C1970 C1974 1.368 . S
C1971 C1952 1.429 . S
C1971 C1965 1.429 . S
C1971 C1972 1.523 . S
C1972 C1953 1.368 . S
C1972 C1966 1.368 . S
C1972 C1971 1.523 . S
C1973 C1957 1.429 . S
C1973 C1969 1.429 . S
C1973 C1974 1.523 . S
C1974 C1958 1.368 . S
C1974 C1970 1.368 . S
C1974 C1973 1.523 . S
H1975 C1950 0.950 . S
H1976 C1952 0.950 . S
H1977 C1953 0.949 . S
H1978 C1955 0.950 . S
H1979 C1957 0.950 . S
C1980 C1981 1.349 . S
C1980 C1982 1.327 . S
C1980 H2005 0.950 . S
C1981 C1980 1.349 . S
C1981 C1997 1.349 . S
C1982 C1980 1.327 . S
C1982 C2001 1.429 . S
C1982 H2006 0.950 . S
C1983 C2000 1.574 . S
C1983 C2002 1.368 . S
C1983 H2007 0.949 . S
H1984 C1988 0.949 . S
C1985 C1986 1.349 . S
C1985 C1987 1.327 . S
C1985 H2008 0.950 . S
C1986 C1985 1.349 . S
C1986 C1998 1.349 . S
C1987 C1985 1.327 . S
C1987 C2003 1.429 . S
C1987 H2009 0.950 . S
C1988 H1984 0.949 . S
C1988 C1996 1.574 . S
C1988 C2004 1.368 . S
H1989 C1997 0.950 . S
H1990 C1995 0.950 . S
H1991 C1996 0.949 . S
H1992 C1998 0.950 . S
H1993 C1999 0.950 . S
H1994 C2000 0.949 . S
C1995 H1990 0.950 . S
C1995 C1997 1.327 . S
C1995 C2001 1.429 . S
C1996 C1988 1.574 . S
C1996 H1991 0.949 . S
C1996 C2002 1.368 . S
C1997 C1981 1.349 . S
C1997 H1989 0.950 . S
C1997 C1995 1.327 . S
C1998 C1986 1.349 . S
C1998 H1992 0.950 . S
C1998 C1999 1.327 . S
C1999 H1993 0.950 . S
C1999 C1998 1.327 . S
C1999 C2003 1.429 . S
C2000 C1983 1.574 . S
C2000 H1994 0.949 . S
C2000 C2004 1.368 . S
C2001 C1982 1.429 . S
C2001 C1995 1.429 . S
C2001 C2002 1.523 . S
C2002 C1983 1.368 . S
C2002 C1996 1.368 . S
C2002 C2001 1.523 . S
C2003 C1987 1.429 . S
C2003 C1999 1.429 . S
C2003 C2004 1.523 . S
C2004 C1988 1.368 . S
C2004 C2000 1.368 . S
C2004 C2003 1.523 . S
H2005 C1980 0.950 . S
H2006 C1982 0.950 . S
H2007 C1983 0.949 . S
H2008 C1985 0.950 . S
H2009 C1987 0.950 . S
C2010 C2011 1.349 . S
C2010 C2012 1.327 . S
C2010 H2035 0.950 . S
C2011 C2010 1.349 . S
C2011 C2027 1.349 . S
C2012 C2010 1.327 . S
C2012 C2031 1.429 . S
C2012 H2036 0.950 . S
C2013 C2030 1.574 . S
C2013 C2032 1.368 . S
C2013 H2037 0.949 . S
H2014 C2018 0.949 . S
C2015 C2016 1.349 . S
C2015 C2017 1.327 . S
C2015 H2038 0.950 . S
C2016 C2015 1.349 . S
C2016 C2028 1.349 . S
C2017 C2015 1.327 . S
C2017 C2033 1.429 . S
C2017 H2039 0.950 . S
C2018 H2014 0.949 . S
C2018 C2026 1.574 . S
C2018 C2034 1.368 . S
H2019 C2027 0.950 . S
H2020 C2025 0.950 . S
H2021 C2026 0.949 . S
H2022 C2028 0.950 . S
H2023 C2029 0.950 . S
H2024 C2030 0.949 . S
C2025 H2020 0.950 . S
C2025 C2027 1.327 . S
C2025 C2031 1.429 . S
C2026 C2018 1.574 . S
C2026 H2021 0.949 . S
C2026 C2032 1.368 . S
C2027 C2011 1.349 . S
C2027 H2019 0.950 . S
C2027 C2025 1.327 . S
C2028 C2016 1.349 . S
C2028 H2022 0.950 . S
C2028 C2029 1.327 . S
C2029 H2023 0.950 . S
C2029 C2028 1.327 . S
C2029 C2033 1.429 . S
C2030 C2013 1.574 . S
C2030 H2024 0.949 . S
C2030 C2034 1.368 . S
C2031 C2012 1.429 . S
C2031 C2025 1.429 . S
C2031 C2032 1.523 . S
C2032 C2013 1.368 . S
C2032 C2026 1.368 . S
C2032 C2031 1.523 . S
C2033 C2017 1.429 . S
C2033 C2029 1.429 . S
C2033 C2034 1.523 . S
C2034 C2018 1.368 . S
C2034 C2030 1.368 . S
C2034 C2033 1.523 . S
H2035 C2010 0.950 . S
H2036 C2012 0.950 . S
H2037 C2013 0.949 . S
H2038 C2015 0.950 . S
H2039 C2017 0.950 . S
C2040 C2041 1.349 . S
C2040 C2042 1.327 . S
C2040 H2065 0.950 . S
C2041 C2040 1.349 . S
C2041 C2057 1.349 . S
C2042 C2040 1.327 . S
C2042 C2061 1.429 . S
C2042 H2066 0.950 . S
C2043 C2060 1.574 . S
C2043 C2062 1.368 . S
C2043 H2067 0.949 . S
H2044 C2048 0.949 . S
C2045 C2046 1.349 . S
C2045 C2047 1.327 . S
C2045 H2068 0.950 . S
C2046 C2045 1.349 . S
C2046 C2058 1.349 . S
C2047 C2045 1.327 . S
C2047 C2063 1.429 . S
C2047 H2069 0.950 . S
C2048 H2044 0.949 . S
C2048 C2056 1.574 . S
C2048 C2064 1.368 . S
H2049 C2057 0.950 . S
H2050 C2055 0.950 . S
H2051 C2056 0.949 . S
H2052 C2058 0.950 . S
H2053 C2059 0.950 . S
H2054 C2060 0.949 . S
C2055 H2050 0.950 . S
C2055 C2057 1.327 . S
C2055 C2061 1.429 . S
C2056 C2048 1.574 . S
C2056 H2051 0.949 . S
C2056 C2062 1.368 . S
C2057 C2041 1.349 . S
C2057 H2049 0.950 . S
C2057 C2055 1.327 . S
C2058 C2046 1.349 . S
C2058 H2052 0.950 . S
C2058 C2059 1.327 . S
C2059 H2053 0.950 . S
C2059 C2058 1.327 . S
C2059 C2063 1.429 . S
C2060 C2043 1.574 . S
C2060 H2054 0.949 . S
C2060 C2064 1.368 . S
C2061 C2042 1.429 . S
C2061 C2055 1.429 . S
C2061 C2062 1.523 . S
C2062 C2043 1.368 . S
C2062 C2056 1.368 . S
C2062 C2061 1.523 . S
C2063 C2047 1.429 . S
C2063 C2059 1.429 . S
C2063 C2064 1.523 . S
C2064 C2048 1.368 . S
C2064 C2060 1.368 . S
C2064 C2063 1.523 . S
H2065 C2040 0.950 . S
H2066 C2042 0.950 . S
H2067 C2043 0.949 . S
H2068 C2045 0.950 . S
H2069 C2047 0.950 . S
C2070 C2071 1.349 . S
C2070 C2072 1.327 . S
C2070 H2095 0.950 . S
C2071 C2070 1.349 . S
C2071 C2087 1.349 . S
C2072 C2070 1.327 . S
C2072 C2091 1.429 . S
C2072 H2096 0.950 . S
C2073 C2090 1.574 . S
C2073 C2092 1.368 . S
C2073 H2097 0.949 . S
H2074 C2078 0.949 . S
C2075 C2076 1.349 . S
C2075 C2077 1.327 . S
C2075 H2098 0.950 . S
C2076 C2075 1.349 . S
C2076 C2088 1.349 . S
C2077 C2075 1.327 . S
C2077 C2093 1.429 . S
C2077 H2099 0.950 . S
C2078 H2074 0.949 . S
C2078 C2086 1.574 . S
C2078 C2094 1.368 . S
H2079 C2087 0.950 . S
H2080 C2085 0.950 . S
H2081 C2086 0.949 . S
H2082 C2088 0.950 . S
H2083 C2089 0.950 . S
H2084 C2090 0.949 . S
C2085 H2080 0.950 . S
C2085 C2087 1.327 . S
C2085 C2091 1.429 . S
C2086 C2078 1.574 . S
C2086 H2081 0.949 . S
C2086 C2092 1.368 . S
C2087 C2071 1.349 . S
C2087 H2079 0.950 . S
C2087 C2085 1.327 . S
C2088 C2076 1.349 . S
C2088 H2082 0.950 . S
C2088 C2089 1.327 . S
C2089 H2083 0.950 . S
C2089 C2088 1.327 . S
C2089 C2093 1.429 . S
C2090 C2073 1.574 . S
C2090 H2084 0.949 . S
C2090 C2094 1.368 . S
C2091 C2072 1.429 . S
C2091 C2085 1.429 . S
C2091 C2092 1.523 . S
C2092 C2073 1.368 . S
C2092 C2086 1.368 . S
C2092 C2091 1.523 . S
C2093 C2077 1.429 . S
C2093 C2089 1.429 . S
C2093 C2094 1.523 . S
C2094 C2078 1.368 . S
C2094 C2090 1.368 . S
C2094 C2093 1.523 . S
H2095 C2070 0.950 . S
H2096 C2072 0.950 . S
H2097 C2073 0.949 . S
H2098 C2075 0.950 . S
H2099 C2077 0.950 . S
C2100 C2101 1.349 . S
C2100 C2102 1.327 . S
C2100 H2125 0.950 . S
C2101 C2100 1.349 . S
C2101 C2117 1.349 . S
C2102 C2100 1.327 . S
C2102 C2121 1.429 . S
C2102 H2126 0.950 . S
C2103 C2120 1.574 . S
C2103 C2122 1.368 . S
C2103 H2127 0.949 . S
H2104 C2108 0.949 . S
C2105 C2106 1.349 . S
C2105 C2107 1.327 . S
C2105 H2128 0.950 . S
C2106 C2105 1.349 . S
C2106 C2118 1.349 . S
C2107 C2105 1.327 . S
C2107 C2123 1.429 . S
C2107 H2129 0.950 . S
C2108 H2104 0.949 . S
C2108 C2116 1.574 . S
C2108 C2124 1.368 . S
H2109 C2117 0.950 . S
H2110 C2115 0.950 . S
H2111 C2116 0.949 . S
H2112 C2118 0.950 . S
H2113 C2119 0.950 . S
H2114 C2120 0.949 . S
C2115 H2110 0.950 . S
C2115 C2117 1.327 . S
C2115 C2121 1.429 . S
C2116 C2108 1.574 . S
C2116 H2111 0.949 . S
C2116 C2122 1.368 . S
C2117 C2101 1.349 . S
C2117 H2109 0.950 . S
C2117 C2115 1.327 . S
C2118 C2106 1.349 . S
C2118 H2112 0.950 . S
C2118 C2119 1.327 . S
C2119 H2113 0.950 . S
C2119 C2118 1.327 . S
C2119 C2123 1.429 . S
C2120 C2103 1.574 . S
C2120 H2114 0.949 . S
C2120 C2124 1.368 . S
C2121 C2102 1.429 . S
C2121 C2115 1.429 . S
C2121 C2122 1.523 . S
C2122 C2103 1.368 . S
C2122 C2116 1.368 . S
C2122 C2121 1.523 . S
C2123 C2107 1.429 . S
C2123 C2119 1.429 . S
C2123 C2124 1.523 . S
C2124 C2108 1.368 . S
C2124 C2120 1.368 . S
C2124 C2123 1.523 . S
H2125 C2100 0.950 . S
H2126 C2102 0.950 . S
H2127 C2103 0.949 . S
H2128 C2105 0.950 . S
H2129 C2107 0.950 . S
C2130 C2131 1.349 . S
C2130 C2132 1.327 . S
C2130 H2155 0.950 . S
C2131 C2130 1.349 . S
C2131 C2147 1.349 . S
C2132 C2130 1.327 . S
C2132 C2151 1.429 . S
C2132 H2156 0.950 . S
C2133 C2150 1.574 . S
C2133 C2152 1.368 . S
C2133 H2157 0.949 . S
H2134 C2138 0.949 . S
C2135 C2136 1.349 . S
C2135 C2137 1.327 . S
C2135 H2158 0.950 . S
C2136 C2135 1.349 . S
C2136 C2148 1.349 . S
C2137 C2135 1.327 . S
C2137 C2153 1.429 . S
C2137 H2159 0.950 . S
C2138 H2134 0.949 . S
C2138 C2146 1.574 . S
C2138 C2154 1.368 . S
H2139 C2147 0.950 . S
H2140 C2145 0.950 . S
H2141 C2146 0.949 . S
H2142 C2148 0.950 . S
H2143 C2149 0.950 . S
H2144 C2150 0.949 . S
C2145 H2140 0.950 . S
C2145 C2147 1.327 . S
C2145 C2151 1.429 . S
C2146 C2138 1.574 . S
C2146 H2141 0.949 . S
C2146 C2152 1.368 . S
C2147 C2131 1.349 . S
C2147 H2139 0.950 . S
C2147 C2145 1.327 . S
C2148 C2136 1.349 . S
C2148 H2142 0.950 . S
C2148 C2149 1.327 . S
C2149 H2143 0.950 . S
C2149 C2148 1.327 . S
C2149 C2153 1.429 . S
C2150 C2133 1.574 . S
C2150 H2144 0.949 . S
C2150 C2154 1.368 . S
C2151 C2132 1.429 . S
C2151 C2145 1.429 . S
C2151 C2152 1.523 . S
C2152 C2133 1.368 . S
C2152 C2146 1.368 . S
C2152 C2151 1.523 . S
C2153 C2137 1.429 . S
C2153 C2149 1.429 . S
C2153 C2154 1.523 . S
C2154 C2138 1.368 . S
C2154 C2150 1.368 . S
C2154 C2153 1.523 . S
H2155 C2130 0.950 . S
H2156 C2132 0.950 . S
H2157 C2133 0.949 . S
H2158 C2135 0.950 . S
H2159 C2137 0.950 . S
C2160 C2161 1.349 . S
C2160 C2162 1.327 . S
C2160 H2185 0.950 . S
C2161 C2160 1.349 . S
C2161 C2177 1.349 . S
C2162 C2160 1.327 . S
C2162 C2181 1.429 . S
C2162 H2186 0.950 . S
C2163 C2180 1.574 . S
C2163 C2182 1.368 . S
C2163 H2187 0.949 . S
H2164 C2168 0.949 . S
C2165 C2166 1.349 . S
C2165 C2167 1.327 . S
C2165 H2188 0.950 . S
C2166 C2165 1.349 . S
C2166 C2178 1.349 . S
C2167 C2165 1.327 . S
C2167 C2183 1.429 . S
C2167 H2189 0.950 . S
C2168 H2164 0.949 . S
C2168 C2176 1.574 . S
C2168 C2184 1.368 . S
H2169 C2177 0.950 . S
H2170 C2175 0.950 . S
H2171 C2176 0.949 . S
H2172 C2178 0.950 . S
H2173 C2179 0.950 . S
H2174 C2180 0.949 . S
C2175 H2170 0.950 . S
C2175 C2177 1.327 . S
C2175 C2181 1.429 . S
C2176 C2168 1.574 . S
C2176 H2171 0.949 . S
C2176 C2182 1.368 . S
C2177 C2161 1.349 . S
C2177 H2169 0.950 . S
C2177 C2175 1.327 . S
C2178 C2166 1.349 . S
C2178 H2172 0.950 . S
C2178 C2179 1.327 . S
C2179 H2173 0.950 . S
C2179 C2178 1.327 . S
C2179 C2183 1.429 . S
C2180 C2163 1.574 . S
C2180 H2174 0.949 . S
C2180 C2184 1.368 . S
C2181 C2162 1.429 . S
C2181 C2175 1.429 . S
C2181 C2182 1.523 . S
C2182 C2163 1.368 . S
C2182 C2176 1.368 . S
C2182 C2181 1.523 . S
C2183 C2167 1.429 . S
C2183 C2179 1.429 . S
C2183 C2184 1.523 . S
C2184 C2168 1.368 . S
C2184 C2180 1.368 . S
C2184 C2183 1.523 . S
H2185 C2160 0.950 . S
H2186 C2162 0.950 . S
H2187 C2163 0.949 . S
H2188 C2165 0.950 . S
H2189 C2167 0.950 . S
C2190 C2191 1.349 . S
C2190 C2192 1.327 . S
C2190 H2215 0.950 . S
C2191 C2190 1.349 . S
C2191 C2207 1.349 . S
C2192 C2190 1.327 . S
C2192 C2211 1.429 . S
C2192 H2216 0.950 . S
C2193 C2210 1.574 . S
C2193 C2212 1.368 . S
C2193 H2217 0.949 . S
H2194 C2198 0.949 . S
C2195 C2196 1.349 . S
C2195 C2197 1.327 . S
C2195 H2218 0.950 . S
C2196 C2195 1.349 . S
C2196 C2208 1.349 . S
C2197 C2195 1.327 . S
C2197 C2213 1.429 . S
C2197 H2219 0.950 . S
C2198 H2194 0.949 . S
C2198 C2206 1.574 . S
C2198 C2214 1.368 . S
H2199 C2207 0.950 . S
H2200 C2205 0.950 . S
H2201 C2206 0.949 . S
H2202 C2208 0.950 . S
H2203 C2209 0.950 . S
H2204 C2210 0.949 . S
C2205 H2200 0.950 . S
C2205 C2207 1.327 . S
C2205 C2211 1.429 . S
C2206 C2198 1.574 . S
C2206 H2201 0.949 . S
C2206 C2212 1.368 . S
C2207 C2191 1.349 . S
C2207 H2199 0.950 . S
C2207 C2205 1.327 . S
C2208 C2196 1.349 . S
C2208 H2202 0.950 . S
C2208 C2209 1.327 . S
C2209 H2203 0.950 . S
C2209 C2208 1.327 . S
C2209 C2213 1.429 . S
C2210 C2193 1.574 . S
C2210 H2204 0.949 . S
C2210 C2214 1.368 . S
C2211 C2192 1.429 . S
C2211 C2205 1.429 . S
C2211 C2212 1.523 . S
C2212 C2193 1.368 . S
C2212 C2206 1.368 . S
C2212 C2211 1.523 . S
C2213 C2197 1.429 . S
C2213 C2209 1.429 . S
C2213 C2214 1.523 . S
C2214 C2198 1.368 . S
C2214 C2210 1.368 . S
C2214 C2213 1.523 . S
H2215 C2190 0.950 . S
H2216 C2192 0.950 . S
H2217 C2193 0.949 . S
H2218 C2195 0.950 . S
H2219 C2197 0.950 . S
C2220 C2221 1.349 . S
C2220 C2222 1.327 . S
C2220 H2245 0.950 . S
C2221 C2220 1.349 . S
C2221 C2237 1.349 . S
C2222 C2220 1.327 . S
C2222 C2241 1.429 . S
C2222 H2246 0.950 . S
C2223 C2240 1.574 . S
C2223 C2242 1.368 . S
C2223 H2247 0.949 . S
H2224 C2228 0.949 . S
C2225 C2226 1.349 . S
C2225 C2227 1.327 . S
C2225 H2248 0.950 . S
C2226 C2225 1.349 . S
C2226 C2238 1.349 . S
C2227 C2225 1.327 . S
C2227 C2243 1.429 . S
C2227 H2249 0.950 . S
C2228 H2224 0.949 . S
C2228 C2236 1.574 . S
C2228 C2244 1.368 . S
H2229 C2237 0.950 . S
H2230 C2235 0.950 . S
H2231 C2236 0.949 . S
H2232 C2238 0.950 . S
H2233 C2239 0.950 . S
H2234 C2240 0.949 . S
C2235 H2230 0.950 . S
C2235 C2237 1.327 . S
C2235 C2241 1.429 . S
C2236 C2228 1.574 . S
C2236 H2231 0.949 . S
C2236 C2242 1.368 . S
C2237 C2221 1.349 . S
C2237 H2229 0.950 . S
C2237 C2235 1.327 . S
C2238 C2226 1.349 . S
C2238 H2232 0.950 . S
C2238 C2239 1.327 . S
C2239 H2233 0.950 . S
C2239 C2238 1.327 . S
C2239 C2243 1.429 . S
C2240 C2223 1.574 . S
C2240 H2234 0.949 . S
C2240 C2244 1.368 . S
C2241 C2222 1.429 . S
C2241 C2235 1.429 . S
C2241 C2242 1.523 . S
C2242 C2223 1.368 . S
C2242 C2236 1.368 . S
C2242 C2241 1.523 . S
C2243 C2227 1.429 . S
C2243 C2239 1.429 . S
C2243 C2244 1.523 . S
C2244 C2228 1.368 . S
C2244 C2240 1.368 . S
C2244 C2243 1.523 . S
H2245 C2220 0.950 . S
H2246 C2222 0.950 . S
H2247 C2223 0.949 . S
H2248 C2225 0.950 . S
H2249 C2227 0.950 . S
C2250 C2251 1.349 . S
C2250 C2252 1.327 . S
C2250 H2275 0.950 1_556 S
C2251 C2250 1.349 . S
C2251 C2267 1.349 . S
C2252 C2250 1.327 . S
C2252 C2271 1.429 . S
C2252 H2276 0.950 . S
C2253 C2270 1.574 . S
C2253 C2272 1.368 . S
C2253 H2277 0.949 . S
H2254 C2258 0.949 . S
C2255 C2256 1.349 . S
C2255 C2257 1.327 . S
C2255 H2278 0.950 . S
C2256 C2255 1.349 . S
C2256 C2268 1.349 . S
C2257 C2255 1.327 . S
C2257 C2273 1.429 . S
C2257 H2279 0.950 . S
C2258 H2254 0.949 . S
C2258 C2266 1.574 . S
C2258 C2274 1.368 . S
H2259 C2267 0.950 . S
H2260 C2265 0.950 . S
H2261 C2266 0.949 . S
H2262 C2268 0.950 . S
H2263 C2269 0.950 . S
H2264 C2270 0.949 . S
C2265 H2260 0.950 . S
C2265 C2267 1.327 . S
C2265 C2271 1.429 . S
C2266 C2258 1.574 . S
C2266 H2261 0.949 . S
C2266 C2272 1.368 . S
C2267 C2251 1.349 . S
C2267 H2259 0.950 . S
C2267 C2265 1.327 . S
C2268 C2256 1.349 . S
C2268 H2262 0.950 . S
C2268 C2269 1.327 . S
C2269 H2263 0.950 . S
C2269 C2268 1.327 . S
C2269 C2273 1.429 . S
C2270 C2253 1.574 . S
C2270 H2264 0.949 . S
C2270 C2274 1.368 . S
C2271 C2252 1.429 . S
C2271 C2265 1.429 . S
C2271 C2272 1.523 . S
C2272 C2253 1.368 . S
C2272 C2266 1.368 . S
C2272 C2271 1.523 . S
C2273 C2257 1.429 . S
C2273 C2269 1.429 . S
C2273 C2274 1.523 . S
C2274 C2258 1.368 . S
C2274 C2270 1.368 . S
C2274 C2273 1.523 . S
H2275 C2250 0.950 1_554 S
H2276 C2252 0.950 . S
H2277 C2253 0.949 . S
H2278 C2255 0.950 . S
H2279 C2257 0.950 . S
C2280 C2281 1.349 . S
C2280 C2282 1.327 . S
C2280 H2305 0.950 . S
C2281 C2280 1.349 . S
C2281 C2297 1.349 . S
C2282 C2280 1.327 . S
C2282 C2301 1.429 . S
C2282 H2306 0.950 . S
C2283 C2300 1.574 . S
C2283 C2302 1.368 . S
C2283 H2307 0.949 . S
H2284 C2288 0.949 . S
C2285 C2286 1.349 . S
C2285 C2287 1.327 . S
C2285 H2308 0.950 . S
C2286 C2285 1.349 . S
C2286 C2298 1.349 . S
C2287 C2285 1.327 . S
C2287 C2303 1.429 . S
C2287 H2309 0.950 . S
C2288 H2284 0.949 . S
C2288 C2296 1.574 . S
C2288 C2304 1.368 . S
H2289 C2297 0.950 . S
H2290 C2295 0.950 . S
H2291 C2296 0.949 . S
H2292 C2298 0.950 . S
H2293 C2299 0.950 . S
H2294 C2300 0.949 . S
C2295 H2290 0.950 . S
C2295 C2297 1.327 . S
C2295 C2301 1.429 . S
C2296 C2288 1.574 . S
C2296 H2291 0.949 . S
C2296 C2302 1.368 . S
C2297 C2281 1.349 . S
C2297 H2289 0.950 . S
C2297 C2295 1.327 . S
C2298 C2286 1.349 . S
C2298 H2292 0.950 . S
C2298 C2299 1.327 . S
C2299 H2293 0.950 . S
C2299 C2298 1.327 . S
C2299 C2303 1.429 . S
C2300 C2283 1.574 . S
C2300 H2294 0.949 . S
C2300 C2304 1.368 . S
C2301 C2282 1.429 . S
C2301 C2295 1.429 . S
C2301 C2302 1.523 . S
C2302 C2283 1.368 . S
C2302 C2296 1.368 . S
C2302 C2301 1.523 . S
C2303 C2287 1.429 . S
C2303 C2299 1.429 . S
C2303 C2304 1.523 . S
C2304 C2288 1.368 . S
C2304 C2300 1.368 . S
C2304 C2303 1.523 . S
H2305 C2280 0.950 . S
H2306 C2282 0.950 . S
H2307 C2283 0.949 . S
H2308 C2285 0.950 . S
H2309 C2287 0.950 . S
C2310 C2311 1.349 . S
C2310 C2312 1.327 . S
C2310 H2335 0.950 . S
C2311 C2310 1.349 . S
C2311 C2327 1.349 . S
C2312 C2310 1.327 . S
C2312 C2331 1.429 . S
C2312 H2336 0.950 . S
C2313 C2330 1.574 . S
C2313 C2332 1.368 . S
C2313 H2337 0.949 . S
H2314 C2318 0.949 . S
C2315 C2316 1.349 . S
C2315 C2317 1.327 . S
C2315 H2338 0.950 . S
C2316 C2315 1.349 . S
C2316 C2328 1.349 . S
C2317 C2315 1.327 . S
C2317 C2333 1.429 . S
C2317 H2339 0.950 . S
C2318 H2314 0.949 . S
C2318 C2326 1.574 . S
C2318 C2334 1.368 . S
H2319 C2327 0.950 . S
H2320 C2325 0.950 . S
H2321 C2326 0.949 . S
H2322 C2328 0.950 . S
H2323 C2329 0.950 . S
H2324 C2330 0.949 . S
C2325 H2320 0.950 . S
C2325 C2327 1.327 . S
C2325 C2331 1.429 . S
C2326 C2318 1.574 . S
C2326 H2321 0.949 . S
C2326 C2332 1.368 . S
C2327 C2311 1.349 . S
C2327 H2319 0.950 . S
C2327 C2325 1.327 . S
C2328 C2316 1.349 . S
C2328 H2322 0.950 . S
C2328 C2329 1.327 . S
C2329 H2323 0.950 . S
C2329 C2328 1.327 . S
C2329 C2333 1.429 . S
C2330 C2313 1.574 . S
C2330 H2324 0.949 . S
C2330 C2334 1.368 . S
C2331 C2312 1.429 . S
C2331 C2325 1.429 . S
C2331 C2332 1.523 . S
C2332 C2313 1.368 . S
C2332 C2326 1.368 . S
C2332 C2331 1.523 . S
C2333 C2317 1.429 . S
C2333 C2329 1.429 . S
C2333 C2334 1.523 . S
C2334 C2318 1.368 . S
C2334 C2330 1.368 . S
C2334 C2333 1.523 . S
H2335 C2310 0.950 . S
H2336 C2312 0.950 . S
H2337 C2313 0.949 . S
H2338 C2315 0.950 . S
H2339 C2317 0.950 . S
C2340 C2341 1.349 . S
C2340 C2342 1.327 . S
C2340 H2365 0.950 . S
C2341 C2340 1.349 . S
C2341 C2357 1.349 . S
C2342 C2340 1.327 . S
C2342 C2361 1.429 . S
C2342 H2366 0.950 . S
C2343 C2360 1.574 . S
C2343 C2362 1.368 . S
C2343 H2367 0.949 . S
H2344 C2348 0.949 . S
C2345 C2346 1.349 . S
C2345 C2347 1.327 . S
C2345 H2368 0.950 . S
C2346 C2345 1.349 . S
C2346 C2358 1.349 . S
C2347 C2345 1.327 . S
C2347 C2363 1.429 . S
C2347 H2369 0.950 . S
C2348 H2344 0.949 . S
C2348 C2356 1.574 . S
C2348 C2364 1.368 . S
H2349 C2357 0.950 . S
H2350 C2355 0.950 . S
H2351 C2356 0.949 . S
H2352 C2358 0.950 . S
H2353 C2359 0.950 . S
H2354 C2360 0.949 . S
C2355 H2350 0.950 . S
C2355 C2357 1.327 . S
C2355 C2361 1.429 . S
C2356 C2348 1.574 . S
C2356 H2351 0.949 . S
C2356 C2362 1.368 . S
C2357 C2341 1.349 . S
C2357 H2349 0.950 . S
C2357 C2355 1.327 . S
C2358 C2346 1.349 . S
C2358 H2352 0.950 . S
C2358 C2359 1.327 . S
C2359 H2353 0.950 . S
C2359 C2358 1.327 . S
C2359 C2363 1.429 . S
C2360 C2343 1.574 . S
C2360 H2354 0.949 . S
C2360 C2364 1.368 . S
C2361 C2342 1.429 . S
C2361 C2355 1.429 . S
C2361 C2362 1.523 . S
C2362 C2343 1.368 . S
C2362 C2356 1.368 . S
C2362 C2361 1.523 . S
C2363 C2347 1.429 . S
C2363 C2359 1.429 . S
C2363 C2364 1.523 . S
C2364 C2348 1.368 . S
C2364 C2360 1.368 . S
C2364 C2363 1.523 . S
H2365 C2340 0.950 . S
H2366 C2342 0.950 . S
H2367 C2343 0.949 . S
H2368 C2345 0.950 . S
H2369 C2347 0.950 . S
C2370 C2371 1.349 . S
C2370 C2372 1.327 . S
C2370 H2395 0.950 . S
C2371 C2370 1.349 . S
C2371 C2387 1.349 . S
C2372 C2370 1.327 . S
C2372 C2391 1.429 . S
C2372 H2396 0.950 . S
C2373 C2390 1.574 . S
C2373 C2392 1.368 . S
C2373 H2397 0.949 . S
H2374 C2378 0.949 . S
C2375 C2376 1.349 . S
C2375 C2377 1.327 . S
C2375 H2398 0.950 . S
C2376 C2375 1.349 . S
C2376 C2388 1.349 . S
C2377 C2375 1.327 . S
C2377 C2393 1.429 . S
C2377 H2399 0.950 . S
C2378 H2374 0.949 . S
C2378 C2386 1.574 . S
C2378 C2394 1.368 . S
H2379 C2387 0.950 . S
H2380 C2385 0.950 . S
H2381 C2386 0.949 . S
H2382 C2388 0.950 . S
H2383 C2389 0.950 . S
H2384 C2390 0.949 . S
C2385 H2380 0.950 . S
C2385 C2387 1.327 . S
C2385 C2391 1.429 . S
C2386 C2378 1.574 . S
C2386 H2381 0.949 . S
C2386 C2392 1.368 . S
C2387 C2371 1.349 . S
C2387 H2379 0.950 . S
C2387 C2385 1.327 . S
C2388 C2376 1.349 . S
C2388 H2382 0.950 . S
C2388 C2389 1.327 . S
C2389 H2383 0.950 . S
C2389 C2388 1.327 . S
C2389 C2393 1.429 . S
C2390 C2373 1.574 . S
C2390 H2384 0.949 . S
C2390 C2394 1.368 . S
C2391 C2372 1.429 . S
C2391 C2385 1.429 . S
C2391 C2392 1.523 . S
C2392 C2373 1.368 . S
C2392 C2386 1.368 . S
C2392 C2391 1.523 . S
C2393 C2377 1.429 . S
C2393 C2389 1.429 . S
C2393 C2394 1.523 . S
C2394 C2378 1.368 . S
C2394 C2390 1.368 . S
C2394 C2393 1.523 . S
H2395 C2370 0.950 . S
H2396 C2372 0.950 . S
H2397 C2373 0.949 . S
H2398 C2375 0.950 . S
H2399 C2377 0.950 . S
C2400 C2401 1.349 . S
C2400 C2402 1.327 . S
C2400 H2425 0.950 1_556 S
C2401 C2400 1.349 . S
C2401 C2417 1.349 . S
C2402 C2400 1.327 . S
C2402 C2421 1.429 . S
C2402 H2426 0.950 . S
C2403 C2420 1.574 . S
C2403 C2422 1.368 . S
C2403 H2427 0.949 . S
H2404 C2408 0.949 . S
C2405 C2406 1.349 . S
C2405 C2407 1.327 . S
C2405 H2428 0.950 . S
C2406 C2405 1.349 . S
C2406 C2418 1.349 . S
C2407 C2405 1.327 . S
C2407 C2423 1.429 . S
C2407 H2429 0.950 . S
C2408 H2404 0.949 . S
C2408 C2416 1.574 . S
C2408 C2424 1.368 . S
H2409 C2417 0.950 . S
H2410 C2415 0.950 . S
H2411 C2416 0.949 . S
H2412 C2418 0.950 . S
H2413 C2419 0.950 . S
H2414 C2420 0.949 . S
C2415 H2410 0.950 . S
C2415 C2417 1.327 . S
C2415 C2421 1.429 . S
C2416 C2408 1.574 . S
C2416 H2411 0.949 . S
C2416 C2422 1.368 . S
C2417 C2401 1.349 . S
C2417 H2409 0.950 . S
C2417 C2415 1.327 . S
C2418 C2406 1.349 . S
C2418 H2412 0.950 . S
C2418 C2419 1.327 . S
C2419 H2413 0.950 . S
C2419 C2418 1.327 . S
C2419 C2423 1.429 . S
C2420 C2403 1.574 . S
C2420 H2414 0.949 . S
C2420 C2424 1.368 . S
C2421 C2402 1.429 . S
C2421 C2415 1.429 . S
C2421 C2422 1.523 . S
C2422 C2403 1.368 . S
C2422 C2416 1.368 . S
C2422 C2421 1.523 . S
C2423 C2407 1.429 . S
C2423 C2419 1.429 . S
C2423 C2424 1.523 . S
C2424 C2408 1.368 . S
C2424 C2420 1.368 . S
C2424 C2423 1.523 . S
H2425 C2400 0.950 1_554 S
H2426 C2402 0.950 . S
H2427 C2403 0.949 . S
H2428 C2405 0.950 . S
H2429 C2407 0.950 . S
C2430 C2431 1.349 . S
C2430 C2432 1.327 . S
C2430 H2455 0.950 . S
C2431 C2430 1.349 . S
C2431 C2447 1.349 . S
C2432 C2430 1.327 . S
C2432 C2451 1.429 . S
C2432 H2456 0.950 . S
C2433 C2450 1.574 . S
C2433 C2452 1.368 . S
C2433 H2457 0.949 . S
H2434 C2438 0.949 . S
C2435 C2436 1.349 . S
C2435 C2437 1.327 . S
C2435 H2458 0.950 . S
C2436 C2435 1.349 . S
C2436 C2448 1.349 . S
C2437 C2435 1.327 . S
C2437 C2453 1.429 . S
C2437 H2459 0.950 . S
C2438 H2434 0.949 . S
C2438 C2446 1.574 . S
C2438 C2454 1.368 . S
H2439 C2447 0.950 . S
H2440 C2445 0.950 . S
H2441 C2446 0.949 . S
H2442 C2448 0.950 . S
H2443 C2449 0.950 . S
H2444 C2450 0.949 . S
C2445 H2440 0.950 . S
C2445 C2447 1.327 . S
C2445 C2451 1.429 . S
C2446 C2438 1.574 . S
C2446 H2441 0.949 . S
C2446 C2452 1.368 . S
C2447 C2431 1.349 . S
C2447 H2439 0.950 . S
C2447 C2445 1.327 . S
C2448 C2436 1.349 . S
C2448 H2442 0.950 . S
C2448 C2449 1.327 . S
C2449 H2443 0.950 . S
C2449 C2448 1.327 . S
C2449 C2453 1.429 . S
C2450 C2433 1.574 . S
C2450 H2444 0.949 . S
C2450 C2454 1.368 . S
C2451 C2432 1.429 . S
C2451 C2445 1.429 . S
C2451 C2452 1.523 . S
C2452 C2433 1.368 . S
C2452 C2446 1.368 . S
C2452 C2451 1.523 . S
C2453 C2437 1.429 . S
C2453 C2449 1.429 . S
C2453 C2454 1.523 . S
C2454 C2438 1.368 . S
C2454 C2450 1.368 . S
C2454 C2453 1.523 . S
H2455 C2430 0.950 . S
H2456 C2432 0.950 . S
H2457 C2433 0.949 . S
H2458 C2435 0.950 . S
H2459 C2437 0.950 . S
C2460 C2461 1.349 . S
C2460 C2462 1.327 . S
C2460 H2485 0.950 . S
C2461 C2460 1.349 . S
C2461 C2477 1.349 . S
C2462 C2460 1.327 . S
C2462 C2481 1.429 . S
C2462 H2486 0.950 . S
C2463 C2480 1.574 . S
C2463 C2482 1.368 . S
C2463 H2487 0.949 . S
H2464 C2468 0.949 . S
C2465 C2466 1.349 . S
C2465 C2467 1.327 . S
C2465 H2488 0.950 . S
C2466 C2465 1.349 . S
C2466 C2478 1.349 . S
C2467 C2465 1.327 . S
C2467 C2483 1.429 . S
C2467 H2489 0.950 . S
C2468 H2464 0.949 . S
C2468 C2476 1.574 . S
C2468 C2484 1.368 . S
H2469 C2477 0.950 . S
H2470 C2475 0.950 . S
H2471 C2476 0.949 . S
H2472 C2478 0.950 . S
H2473 C2479 0.950 . S
H2474 C2480 0.949 . S
C2475 H2470 0.950 . S
C2475 C2477 1.327 . S
C2475 C2481 1.429 . S
C2476 C2468 1.574 . S
C2476 H2471 0.949 . S
C2476 C2482 1.368 . S
C2477 C2461 1.349 . S
C2477 H2469 0.950 . S
C2477 C2475 1.327 . S
C2478 C2466 1.349 . S
C2478 H2472 0.950 . S
C2478 C2479 1.327 . S
C2479 H2473 0.950 . S
C2479 C2478 1.327 . S
C2479 C2483 1.429 . S
C2480 C2463 1.574 . S
C2480 H2474 0.949 . S
C2480 C2484 1.368 . S
C2481 C2462 1.429 . S
C2481 C2475 1.429 . S
C2481 C2482 1.523 . S
C2482 C2463 1.368 . S
C2482 C2476 1.368 . S
C2482 C2481 1.523 . S
C2483 C2467 1.429 . S
C2483 C2479 1.429 . S
C2483 C2484 1.523 . S
C2484 C2468 1.368 . S
C2484 C2480 1.368 . S
C2484 C2483 1.523 . S
H2485 C2460 0.950 . S
H2486 C2462 0.950 . S
H2487 C2463 0.949 . S
H2488 C2465 0.950 . S
H2489 C2467 0.950 . S
C2490 C2491 1.349 . S
C2490 C2492 1.327 . S
C2490 H2515 0.950 . S
C2491 C2490 1.349 . S
C2491 C2507 1.349 . S
C2492 C2490 1.327 . S
C2492 C2511 1.429 . S
C2492 H2516 0.950 . S
C2493 C2510 1.574 . S
C2493 C2512 1.368 . S
C2493 H2517 0.949 . S
H2494 C2498 0.949 . S
C2495 C2496 1.349 . S
C2495 C2497 1.327 . S
C2495 H2518 0.950 . S
C2496 C2495 1.349 . S
C2496 C2508 1.349 . S
C2497 C2495 1.327 . S
C2497 C2513 1.429 . S
C2497 H2519 0.950 . S
C2498 H2494 0.949 . S
C2498 C2506 1.574 . S
C2498 C2514 1.368 . S
H2499 C2507 0.950 . S
H2500 C2505 0.950 . S
H2501 C2506 0.949 . S
H2502 C2508 0.950 . S
H2503 C2509 0.950 . S
H2504 C2510 0.949 . S
C2505 H2500 0.950 . S
C2505 C2507 1.327 . S
C2505 C2511 1.429 . S
C2506 C2498 1.574 . S
C2506 H2501 0.949 . S
C2506 C2512 1.368 . S
C2507 C2491 1.349 . S
C2507 H2499 0.950 . S
C2507 C2505 1.327 . S
C2508 C2496 1.349 . S
C2508 H2502 0.950 . S
C2508 C2509 1.327 . S
C2509 H2503 0.950 . S
C2509 C2508 1.327 . S
C2509 C2513 1.429 . S
C2510 C2493 1.574 . S
C2510 H2504 0.949 . S
C2510 C2514 1.368 . S
C2511 C2492 1.429 . S
C2511 C2505 1.429 . S
C2511 C2512 1.523 . S
C2512 C2493 1.368 . S
C2512 C2506 1.368 . S
C2512 C2511 1.523 . S
C2513 C2497 1.429 . S
C2513 C2509 1.429 . S
C2513 C2514 1.523 . S
C2514 C2498 1.368 . S
C2514 C2510 1.368 . S
C2514 C2513 1.523 . S
H2515 C2490 0.950 . S
H2516 C2492 0.950 . S
H2517 C2493 0.949 . S
H2518 C2495 0.950 . S
H2519 C2497 0.950 . S
C2520 C2521 1.349 . S
C2520 C2522 1.327 . S
C2520 H2545 0.950 . S
C2521 C2520 1.349 . S
C2521 C2537 1.349 . S
C2522 C2520 1.327 . S
C2522 C2541 1.429 . S
C2522 H2546 0.950 . S
C2523 C2540 1.574 . S
C2523 C2542 1.368 . S
C2523 H2547 0.949 . S
H2524 C2528 0.949 . S
C2525 C2526 1.349 . S
C2525 C2527 1.327 . S
C2525 H2548 0.950 . S
C2526 C2525 1.349 . S
C2526 C2538 1.349 . S
C2527 C2525 1.327 . S
C2527 C2543 1.429 . S
C2527 H2549 0.950 . S
C2528 H2524 0.949 . S
C2528 C2536 1.574 . S
C2528 C2544 1.368 . S
H2529 C2537 0.950 . S
H2530 C2535 0.950 . S
H2531 C2536 0.949 . S
H2532 C2538 0.950 . S
H2533 C2539 0.950 . S
H2534 C2540 0.949 . S
C2535 H2530 0.950 . S
C2535 C2537 1.327 . S
C2535 C2541 1.429 . S
C2536 C2528 1.574 . S
C2536 H2531 0.949 . S
C2536 C2542 1.368 . S
C2537 C2521 1.349 . S
C2537 H2529 0.950 . S
C2537 C2535 1.327 . S
C2538 C2526 1.349 . S
C2538 H2532 0.950 . S
C2538 C2539 1.327 . S
C2539 H2533 0.950 . S
C2539 C2538 1.327 . S
C2539 C2543 1.429 . S
C2540 C2523 1.574 . S
C2540 H2534 0.949 . S
C2540 C2544 1.368 . S
C2541 C2522 1.429 . S
C2541 C2535 1.429 . S
C2541 C2542 1.523 . S
C2542 C2523 1.368 . S
C2542 C2536 1.368 . S
C2542 C2541 1.523 . S
C2543 C2527 1.429 . S
C2543 C2539 1.429 . S
C2543 C2544 1.523 . S
C2544 C2528 1.368 . S
C2544 C2540 1.368 . S
C2544 C2543 1.523 . S
H2545 C2520 0.950 . S
H2546 C2522 0.950 . S
H2547 C2523 0.949 . S
H2548 C2525 0.950 . S
H2549 C2527 0.950 . S
C2550 C2551 1.349 . S
C2550 C2552 1.327 . S
C2550 H2575 0.950 . S
C2551 C2550 1.349 . S
C2551 C2567 1.349 . S
C2552 C2550 1.327 . S
C2552 C2571 1.429 . S
C2552 H2576 0.950 . S
C2553 C2570 1.574 . S
C2553 C2572 1.368 . S
C2553 H2577 0.949 . S
H2554 C2558 0.949 . S
C2555 C2556 1.349 . S
C2555 C2557 1.327 . S
C2555 H2578 0.950 . S
C2556 C2555 1.349 . S
C2556 C2568 1.349 . S
C2557 C2555 1.327 . S
C2557 C2573 1.429 . S
C2557 H2579 0.950 . S
C2558 H2554 0.949 . S
C2558 C2566 1.574 . S
C2558 C2574 1.368 . S
H2559 C2567 0.950 . S
H2560 C2565 0.950 . S
H2561 C2566 0.949 . S
H2562 C2568 0.950 . S
H2563 C2569 0.950 . S
H2564 C2570 0.949 . S
C2565 H2560 0.950 . S
C2565 C2567 1.327 . S
C2565 C2571 1.429 . S
C2566 C2558 1.574 . S
C2566 H2561 0.949 . S
C2566 C2572 1.368 . S
C2567 C2551 1.349 . S
C2567 H2559 0.950 . S
C2567 C2565 1.327 . S
C2568 C2556 1.349 . S
C2568 H2562 0.950 . S
C2568 C2569 1.327 . S
C2569 H2563 0.950 . S
C2569 C2568 1.327 . S
C2569 C2573 1.429 . S
C2570 C2553 1.574 . S
C2570 H2564 0.949 . S
C2570 C2574 1.368 . S
C2571 C2552 1.429 . S
C2571 C2565 1.429 . S
C2571 C2572 1.523 . S
C2572 C2553 1.368 . S
C2572 C2566 1.368 . S
C2572 C2571 1.523 . S
C2573 C2557 1.429 . S
C2573 C2569 1.429 . S
C2573 C2574 1.523 . S
C2574 C2558 1.368 . S
C2574 C2570 1.368 . S
C2574 C2573 1.523 . S
H2575 C2550 0.950 . S
H2576 C2552 0.950 . S
H2577 C2553 0.949 . S
H2578 C2555 0.950 . S
H2579 C2557 0.950 . S
C2580 C2581 1.349 . S
C2580 C2582 1.327 . S
C2580 H2605 0.950 . S
C2581 C2580 1.349 . S
C2581 C2597 1.349 . S
C2582 C2580 1.327 . S
C2582 C2601 1.429 . S
C2582 H2606 0.950 . S
C2583 C2600 1.574 . S
C2583 C2602 1.368 . S
C2583 H2607 0.949 . S
H2584 C2588 0.949 . S
C2585 C2586 1.349 . S
C2585 C2587 1.327 . S
C2585 H2608 0.950 . S
C2586 C2585 1.349 . S
C2586 C2598 1.349 . S
C2587 C2585 1.327 . S
C2587 C2603 1.429 . S
C2587 H2609 0.950 . S
C2588 H2584 0.949 . S
C2588 C2596 1.574 . S
C2588 C2604 1.368 . S
H2589 C2597 0.950 . S
H2590 C2595 0.950 . S
H2591 C2596 0.949 . S
H2592 C2598 0.950 . S
H2593 C2599 0.950 . S
H2594 C2600 0.949 . S
C2595 H2590 0.950 . S
C2595 C2597 1.327 . S
C2595 C2601 1.429 . S
C2596 C2588 1.574 . S
C2596 H2591 0.949 . S
C2596 C2602 1.368 . S
C2597 C2581 1.349 . S
C2597 H2589 0.950 . S
C2597 C2595 1.327 . S
C2598 C2586 1.349 . S
C2598 H2592 0.950 . S
C2598 C2599 1.327 . S
C2599 H2593 0.950 . S
C2599 C2598 1.327 . S
C2599 C2603 1.429 . S
C2600 C2583 1.574 . S
C2600 H2594 0.949 . S
C2600 C2604 1.368 . S
C2601 C2582 1.429 . S
C2601 C2595 1.429 . S
C2601 C2602 1.523 . S
C2602 C2583 1.368 . S
C2602 C2596 1.368 . S
C2602 C2601 1.523 . S
C2603 C2587 1.429 . S
C2603 C2599 1.429 . S
C2603 C2604 1.523 . S
C2604 C2588 1.368 . S
C2604 C2600 1.368 . S
C2604 C2603 1.523 . S
H2605 C2580 0.950 . S
H2606 C2582 0.950 . S
H2607 C2583 0.949 . S
H2608 C2585 0.950 . S
H2609 C2587 0.950 . S
C2610 C2611 1.349 . S
C2610 C2612 1.327 . S
C2610 H2635 0.950 . S
C2611 C2610 1.349 . S
C2611 C2627 1.349 . S
C2612 C2610 1.327 . S
C2612 C2631 1.429 . S
C2612 H2636 0.950 . S
C2613 C2630 1.574 . S
C2613 C2632 1.368 1_655 S
C2613 H2637 0.949 . S
H2614 C2618 0.949 . S
C2615 C2616 1.349 1_655 S
C2615 C2617 1.327 . S
C2615 H2638 0.950 . S
C2616 C2615 1.349 1_455 S
C2616 C2628 1.349 . S
C2617 C2615 1.327 . S
C2617 C2633 1.429 1_655 S
C2617 H2639 0.950 . S
C2618 H2614 0.949 . S
C2618 C2626 1.574 . S
C2618 C2634 1.368 . S
H2619 C2627 0.950 1_655 S
H2620 C2625 0.912 1_655 S
H2621 C2626 0.949 . S
H2622 C2628 0.950 . S
H2623 C2629 0.950 . S
H2624 C2630 0.949 . S
C2625 H2620 0.912 1_455 S
C2625 C2627 1.348 . S
C2625 C2631 1.445 . S
C2626 C2618 1.574 . S
C2626 H2621 0.949 . S
C2626 C2632 1.368 . S
C2627 C2611 1.349 . S
C2627 H2619 0.950 1_455 S
C2627 C2625 1.348 . S
C2628 C2616 1.349 . S
C2628 H2622 0.950 . S
C2628 C2629 1.327 . S
C2629 H2623 0.950 . S
C2629 C2628 1.327 . S
C2629 C2633 1.429 . S
C2630 C2613 1.574 . S
C2630 H2624 0.949 . S
C2630 C2634 1.368 1_655 S
C2631 C2612 1.429 . S
C2631 C2625 1.445 . S
C2631 C2632 1.523 . S
C2632 C2613 1.368 1_455 S
C2632 C2626 1.368 . S
C2632 C2631 1.523 . S
C2633 C2617 1.429 1_455 S
C2633 C2629 1.429 . S
C2633 C2634 1.523 . S
C2634 C2618 1.368 . S
C2634 C2630 1.368 1_455 S
C2634 C2633 1.523 . S
H2635 C2610 0.950 . S
H2636 C2612 0.950 . S
H2637 C2613 0.949 . S
H2638 C2615 0.950 . S
H2639 C2617 0.950 . S
C2640 C2641 1.349 . S
C2640 C2642 1.327 . S
C2640 H2665 0.950 . S
C2641 C2640 1.349 . S
C2641 C2657 1.349 . S
C2642 C2640 1.327 . S
C2642 C2661 1.429 . S
C2642 H2666 0.950 . S
C2643 C2660 1.574 . S
C2643 C2662 1.368 . S
C2643 H2667 0.949 . S
H2644 C2648 0.949 . S
C2645 C2646 1.349 . S
C2645 C2647 1.327 . S
C2645 H2668 0.950 . S
C2646 C2645 1.349 . S
C2646 C2658 1.349 . S
C2647 C2645 1.327 . S
C2647 C2663 1.429 . S
C2647 H2669 0.950 . S
C2648 H2644 0.949 . S
C2648 C2656 1.574 . S
C2648 C2664 1.368 . S
H2649 C2657 0.950 . S
H2650 C2655 0.950 . S
H2651 C2656 0.949 . S
H2652 C2658 0.950 . S
H2653 C2659 0.950 . S
H2654 C2660 0.949 . S
C2655 H2650 0.950 . S
C2655 C2657 1.327 . S
C2655 C2661 1.429 . S
C2656 C2648 1.574 . S
C2656 H2651 0.949 . S
C2656 C2662 1.368 . S
C2657 C2641 1.349 . S
C2657 H2649 0.950 . S
C2657 C2655 1.327 . S
C2658 C2646 1.349 . S
C2658 H2652 0.950 . S
C2658 C2659 1.327 . S
C2659 H2653 0.950 . S
C2659 C2658 1.327 . S
C2659 C2663 1.429 . S
C2660 C2643 1.574 . S
C2660 H2654 0.949 . S
C2660 C2664 1.368 . S
C2661 C2642 1.429 . S
C2661 C2655 1.429 . S
C2661 C2662 1.523 . S
C2662 C2643 1.368 . S
C2662 C2656 1.368 . S
C2662 C2661 1.523 . S
C2663 C2647 1.429 . S
C2663 C2659 1.429 . S
C2663 C2664 1.523 . S
C2664 C2648 1.368 . S
C2664 C2660 1.368 . S
C2664 C2663 1.523 . S
H2665 C2640 0.950 . S
H2666 C2642 0.950 . S
H2667 C2643 0.949 . S
H2668 C2645 0.950 . S
H2669 C2647 0.950 . S
C2670 C2671 1.349 . S
C2670 C2672 1.327 . S
C2670 H2695 0.950 . S
C2671 C2670 1.349 . S
C2671 C2687 1.338 1_565 S
C2672 C2670 1.327 . S
C2672 C2691 1.429 . S
C2672 H2696 0.950 . S
C2673 C2690 1.574 . S
C2673 C2692 1.368 1_545 S
C2673 H2697 0.949 . S
H2674 C2678 0.949 . S
C2675 C2676 1.349 1_545 S
C2675 C2677 1.327 . S
C2675 H2698 0.950 . S
C2676 C2675 1.349 1_565 S
C2676 C2688 1.349 . S
C2677 C2675 1.327 . S
C2677 C2693 1.429 1_545 S
C2677 H2699 0.950 . S
C2678 H2674 0.949 . S
C2678 C2686 1.574 . S
C2678 C2694 1.368 . S
H2679 C2687 1.002 . S
H2680 C2685 0.950 . S
H2681 C2686 0.949 . S
H2682 C2688 0.950 . S
H2683 C2689 0.950 . S
H2684 C2690 0.949 . S
C2685 H2680 0.950 . S
C2685 C2687 1.295 . S
C2685 C2691 1.429 1_545 S
C2686 C2678 1.574 . S
C2686 H2681 0.949 . S
C2686 C2692 1.368 . S
C2687 C2671 1.338 1_545 S
C2687 H2679 1.002 . S
C2687 C2685 1.295 . S
C2688 C2676 1.349 . S
C2688 H2682 0.950 . S
C2688 C2689 1.327 . S
C2689 H2683 0.950 . S
C2689 C2688 1.327 . S
C2689 C2693 1.429 . S
C2690 C2673 1.574 . S
C2690 H2684 0.949 . S
C2690 C2694 1.368 1_545 S
C2691 C2672 1.429 . S
C2691 C2685 1.429 1_565 S
C2691 C2692 1.523 . S
C2692 C2673 1.368 1_565 S
C2692 C2686 1.368 . S
C2692 C2691 1.523 . S
C2693 C2677 1.429 1_565 S
C2693 C2689 1.429 . S
C2693 C2694 1.523 . S
C2694 C2678 1.368 . S
C2694 C2690 1.368 1_565 S
C2694 C2693 1.523 . S
H2695 C2670 0.950 . S
H2696 C2672 0.950 . S
H2697 C2673 0.949 . S
H2698 C2675 0.950 . S
H2699 C2677 0.950 . S
C2700 C2701 1.349 1_545 S
C2700 C2702 1.327 . S
C2700 H2725 0.950 . S
C2701 C2700 1.349 1_565 S
C2701 C2717 1.349 . S
C2702 C2700 1.327 . S
C2702 C2721 1.429 1_545 S
C2702 H2726 0.950 . S
C2703 C2720 1.574 . S
C2703 C2722 1.368 . S
C2703 H2727 0.949 . S
H2704 C2708 0.949 . S
C2705 C2706 1.349 . S
C2705 C2707 1.327 . S
C2705 H2728 0.950 . S
C2706 C2705 1.349 . S
C2706 C2718 1.349 1_565 S
C2707 C2705 1.327 . S
C2707 C2723 1.429 . S
C2707 H2729 0.950 . S
C2708 H2704 0.949 . S
C2708 C2716 1.574 . S
C2708 C2724 1.368 1_545 S
H2709 C2717 0.950 . S
H2710 C2715 0.950 . S
H2711 C2716 0.949 . S
H2712 C2718 0.950 . S
H2713 C2719 0.950 . S
H2714 C2720 0.949 . S
C2715 H2710 0.950 . S
C2715 C2717 1.327 . S
C2715 C2721 1.429 . S
C2716 C2708 1.574 . S
C2716 H2711 0.949 . S
C2716 C2722 1.368 1_545 S
C2717 C2701 1.349 . S
C2717 H2709 0.950 . S
C2717 C2715 1.327 . S
C2718 C2706 1.349 1_545 S
C2718 H2712 0.950 . S
C2718 C2719 1.327 . S
C2719 H2713 0.950 . S
C2719 C2718 1.327 . S
C2719 C2723 1.429 1_545 S
C2720 C2703 1.574 . S
C2720 H2714 0.949 . S
C2720 C2724 1.368 . S
C2721 C2702 1.429 1_565 S
C2721 C2715 1.429 . S
C2721 C2722 1.523 . S
C2722 C2703 1.368 . S
C2722 C2716 1.368 1_565 S
C2722 C2721 1.523 . S
C2723 C2707 1.429 . S
C2723 C2719 1.429 1_565 S
C2723 C2724 1.523 . S
C2724 C2708 1.368 1_565 S
C2724 C2720 1.368 . S
C2724 C2723 1.523 . S
H2725 C2700 0.950 . S
H2726 C2702 0.950 . S
H2727 C2703 0.949 . S
H2728 C2705 0.950 . S
H2729 C2707 0.950 . S
C2730 C2731 1.349 . S
C2730 C2732 1.312 . S
C2730 H2755 0.950 1_455 S
C2731 C2730 1.349 . S
C2731 C2747 1.349 . S
C2732 C2730 1.312 . S
C2732 C2751 1.463 . S
C2732 H2756 0.931 1_455 S
C2733 C2750 1.574 . S
C2733 C2752 1.368 . S
C2733 H2757 0.949 . S
H2734 C2738 0.949 . S
C2735 C2736 1.349 . S
C2735 C2737 1.327 . S
C2735 H2758 0.950 . S
C2736 C2735 1.349 . S
C2736 C2748 1.349 1_455 S
C2737 C2735 1.327 . S
C2737 C2753 1.429 . S
C2737 H2759 0.950 . S
C2738 H2734 0.949 . S
C2738 C2746 1.574 . S
C2738 C2754 1.368 1_655 S
H2739 C2747 0.950 . S
H2740 C2745 0.950 . S
H2741 C2746 0.949 . S
H2742 C2748 0.950 . S
H2743 C2749 0.950 . S
H2744 C2750 0.949 . S
C2745 H2740 0.950 . S
C2745 C2747 1.327 . S
C2745 C2751 1.429 . S
C2746 C2738 1.574 . S
C2746 H2741 0.949 . S
C2746 C2752 1.368 1_655 S
C2747 C2731 1.349 . S
C2747 H2739 0.950 . S
C2747 C2745 1.327 . S
C2748 C2736 1.349 1_655 S
C2748 H2742 0.950 . S
C2748 C2749 1.327 . S
C2749 H2743 0.950 . S
C2749 C2748 1.327 . S
C2749 C2753 1.429 1_655 S
C2750 C2733 1.574 . S
C2750 H2744 0.949 . S
C2750 C2754 1.368 . S
C2751 C2732 1.463 . S
C2751 C2745 1.429 . S
C2751 C2752 1.523 . S
C2752 C2733 1.368 . S
C2752 C2746 1.368 1_455 S
C2752 C2751 1.523 . S
C2753 C2737 1.429 . S
C2753 C2749 1.429 1_455 S
C2753 C2754 1.523 . S
C2754 C2738 1.368 1_455 S
C2754 C2750 1.368 . S
C2754 C2753 1.523 . S
H2755 C2730 0.950 1_655 S
H2756 C2732 0.931 1_655 S
H2757 C2733 0.949 . S
H2758 C2735 0.950 . S
H2759 C2737 0.950 . S
C2760 C2761 1.349 . S
C2760 C2762 1.327 . S
C2760 H2785 0.950 . S
C2761 C2760 1.349 . S
C2761 C2777 1.349 . S
C2762 C2760 1.327 . S
C2762 C2781 1.429 . S
C2762 H2786 0.950 . S
C2763 C2780 1.574 . S
C2763 C2782 1.368 . S
C2763 H2787 0.949 . S
H2764 C2768 0.949 . S
C2765 C2766 1.349 . S
C2765 C2767 1.327 . S
C2765 H2788 0.950 . S
C2766 C2765 1.349 . S
C2766 C2778 1.349 . S
C2767 C2765 1.327 . S
C2767 C2783 1.429 . S
C2767 H2789 0.950 . S
C2768 H2764 0.949 . S
C2768 C2776 1.574 . S
C2768 C2784 1.368 . S
H2769 C2777 0.950 . S
H2770 C2775 0.950 . S
H2771 C2776 0.949 . S
H2772 C2778 0.950 . S
H2773 C2779 0.950 . S
H2774 C2780 0.949 . S
C2775 H2770 0.950 . S
C2775 C2777 1.327 . S
C2775 C2781 1.429 . S
C2776 C2768 1.574 . S
C2776 H2771 0.949 . S
C2776 C2782 1.368 . S
C2777 C2761 1.349 . S
C2777 H2769 0.950 . S
C2777 C2775 1.327 . S
C2778 C2766 1.349 . S
C2778 H2772 0.950 . S
C2778 C2779 1.327 . S
C2779 H2773 0.950 . S
C2779 C2778 1.327 . S
C2779 C2783 1.429 . S
C2780 C2763 1.574 . S
C2780 H2774 0.949 . S
C2780 C2784 1.368 . S
C2781 C2762 1.429 . S
C2781 C2775 1.429 . S
C2781 C2782 1.523 . S
C2782 C2763 1.368 . S
C2782 C2776 1.368 . S
C2782 C2781 1.523 . S
C2783 C2767 1.429 . S
C2783 C2779 1.429 . S
C2783 C2784 1.523 . S
C2784 C2768 1.368 . S
C2784 C2780 1.368 . S
C2784 C2783 1.523 . S
H2785 C2760 0.950 . S
H2786 C2762 0.950 . S
H2787 C2763 0.949 . S
H2788 C2765 0.950 . S
H2789 C2767 0.950 . S
C2790 C2791 1.349 . S
C2790 C2792 1.327 . S
C2790 H2815 0.950 . S
C2791 C2790 1.349 . S
C2791 C2807 1.349 . S
C2792 C2790 1.327 . S
C2792 C2811 1.429 . S
C2792 H2816 0.950 . S
C2793 C2810 1.574 . S
C2793 C2812 1.368 . S
C2793 H2817 0.949 . S
H2794 C2798 0.949 . S
C2795 C2796 1.349 . S
C2795 C2797 1.327 . S
C2795 H2818 0.950 . S
C2796 C2795 1.349 . S
C2796 C2808 1.349 . S
C2797 C2795 1.327 . S
C2797 C2813 1.429 . S
C2797 H2819 0.950 . S
C2798 H2794 0.949 . S
C2798 C2806 1.574 . S
C2798 C2814 1.368 . S
H2799 C2807 0.950 . S
H2800 C2805 0.950 . S
H2801 C2806 0.949 . S
H2802 C2808 0.950 . S
H2803 C2809 0.950 . S
H2804 C2810 0.949 . S
C2805 H2800 0.950 . S
C2805 C2807 1.327 . S
C2805 C2811 1.429 . S
C2806 C2798 1.574 . S
C2806 H2801 0.949 . S
C2806 C2812 1.368 . S
C2807 C2791 1.349 . S
C2807 H2799 0.950 . S
C2807 C2805 1.327 . S
C2808 C2796 1.349 . S
C2808 H2802 0.950 . S
C2808 C2809 1.327 . S
C2809 H2803 0.950 . S
C2809 C2808 1.327 . S
C2809 C2813 1.429 . S
C2810 C2793 1.574 . S
C2810 H2804 0.949 . S
C2810 C2814 1.368 . S
C2811 C2792 1.429 . S
C2811 C2805 1.429 . S
C2811 C2812 1.523 . S
C2812 C2793 1.368 . S
C2812 C2806 1.368 . S
C2812 C2811 1.523 . S
C2813 C2797 1.429 . S
C2813 C2809 1.429 . S
C2813 C2814 1.523 . S
C2814 C2798 1.368 . S
C2814 C2810 1.368 . S
C2814 C2813 1.523 . S
H2815 C2790 0.950 . S
H2816 C2792 0.950 . S
H2817 C2793 0.949 . S
H2818 C2795 0.950 . S
H2819 C2797 0.950 . S
C2820 C2821 1.349 . S
C2820 C2822 1.327 . S
C2820 H2845 0.950 . S
C2821 C2820 1.349 . S
C2821 C2837 1.349 . S
C2822 C2820 1.327 . S
C2822 C2841 1.429 . S
C2822 H2846 0.950 . S
C2823 C2840 1.574 . S
C2823 C2842 1.368 . S
C2823 H2847 0.949 . S
H2824 C2828 0.949 . S
C2825 C2826 1.349 . S
C2825 C2827 1.327 . S
C2825 H2848 0.950 . S
C2826 C2825 1.349 . S
C2826 C2838 1.349 . S
C2827 C2825 1.327 . S
C2827 C2843 1.429 . S
C2827 H2849 0.950 . S
C2828 H2824 0.949 . S
C2828 C2836 1.574 . S
C2828 C2844 1.368 . S
H2829 C2837 0.950 . S
H2830 C2835 0.950 . S
H2831 C2836 0.949 . S
H2832 C2838 0.950 . S
H2833 C2839 0.950 . S
H2834 C2840 0.949 . S
C2835 H2830 0.950 . S
C2835 C2837 1.327 . S
C2835 C2841 1.429 . S
C2836 C2828 1.574 . S
C2836 H2831 0.949 . S
C2836 C2842 1.368 . S
C2837 C2821 1.349 . S
C2837 H2829 0.950 . S
C2837 C2835 1.327 . S
C2838 C2826 1.349 . S
C2838 H2832 0.950 . S
C2838 C2839 1.327 . S
C2839 H2833 0.950 . S
C2839 C2838 1.327 . S
C2839 C2843 1.429 . S
C2840 C2823 1.574 . S
C2840 H2834 0.949 . S
C2840 C2844 1.368 . S
C2841 C2822 1.429 . S
C2841 C2835 1.429 . S
C2841 C2842 1.523 . S
C2842 C2823 1.368 . S
C2842 C2836 1.368 . S
C2842 C2841 1.523 . S
C2843 C2827 1.429 . S
C2843 C2839 1.429 . S
C2843 C2844 1.523 . S
C2844 C2828 1.368 . S
C2844 C2840 1.368 . S
C2844 C2843 1.523 . S
H2845 C2820 0.950 . S
H2846 C2822 0.950 . S
H2847 C2823 0.949 . S
H2848 C2825 0.950 . S
H2849 C2827 0.950 . S
C2850 C2851 1.349 . S
C2850 C2852 1.327 . S
C2850 H2875 0.950 . S
C2851 C2850 1.349 . S
C2851 C2867 1.349 . S
C2852 C2850 1.327 . S
C2852 C2871 1.429 . S
C2852 H2876 0.950 . S
C2853 C2870 1.574 . S
C2853 C2872 1.368 . S
C2853 H2877 0.949 . S
H2854 C2858 0.949 . S
C2855 C2856 1.349 . S
C2855 C2857 1.327 . S
C2855 H2878 0.950 . S
C2856 C2855 1.349 . S
C2856 C2868 1.349 . S
C2857 C2855 1.327 . S
C2857 C2873 1.429 . S
C2857 H2879 0.950 . S
C2858 H2854 0.949 . S
C2858 C2866 1.574 . S
C2858 C2874 1.368 . S
H2859 C2867 0.950 . S
H2860 C2865 0.950 . S
H2861 C2866 0.949 . S
H2862 C2868 0.950 . S
H2863 C2869 0.950 . S
H2864 C2870 0.949 . S
C2865 H2860 0.950 . S
C2865 C2867 1.327 . S
C2865 C2871 1.429 . S
C2866 C2858 1.574 . S
C2866 H2861 0.949 . S
C2866 C2872 1.368 . S
C2867 C2851 1.349 . S
C2867 H2859 0.950 . S
C2867 C2865 1.327 . S
C2868 C2856 1.349 . S
C2868 H2862 0.950 . S
C2868 C2869 1.327 . S
C2869 H2863 0.950 . S
C2869 C2868 1.327 . S
C2869 C2873 1.429 . S
C2870 C2853 1.574 . S
C2870 H2864 0.949 . S
C2870 C2874 1.368 . S
C2871 C2852 1.429 . S
C2871 C2865 1.429 . S
C2871 C2872 1.523 . S
C2872 C2853 1.368 . S
C2872 C2866 1.368 . S
C2872 C2871 1.523 . S
C2873 C2857 1.429 . S
C2873 C2869 1.429 . S
C2873 C2874 1.523 . S
C2874 C2858 1.368 . S
C2874 C2870 1.368 . S
C2874 C2873 1.523 . S
H2875 C2850 0.950 . S
H2876 C2852 0.950 . S
H2877 C2853 0.949 . S
H2878 C2855 0.950 . S
H2879 C2857 0.950 . S
C2880 C2881 1.349 . S
C2880 C2882 1.327 . S
C2880 H2905 0.950 . S
C2881 C2880 1.349 . S
C2881 C2897 1.349 1_545 S
C2882 C2880 1.327 . S
C2882 C2901 1.429 . S
C2882 H2906 0.950 . S
C2883 C2900 1.574 . S
C2883 C2902 1.368 1_565 S
C2883 H2907 0.949 . S
H2884 C2888 0.949 . S
C2885 C2886 1.349 1_565 S
C2885 C2887 1.327 . S
C2885 H2908 0.950 . S
C2886 C2885 1.349 1_545 S
C2886 C2898 1.349 . S
C2887 C2885 1.327 . S
C2887 C2903 1.429 1_565 S
C2887 H2909 0.950 . S
C2888 H2884 0.949 . S
C2888 C2896 1.574 . S
C2888 C2904 1.368 . S
H2889 C2897 0.950 . S
H2890 C2895 0.950 . S
H2891 C2896 0.949 . S
H2892 C2898 0.950 . S
H2893 C2899 0.950 . S
H2894 C2900 0.949 . S
C2895 H2890 0.950 . S
C2895 C2897 1.327 . S
C2895 C2901 1.429 1_565 S
C2896 C2888 1.574 . S
C2896 H2891 0.949 . S
C2896 C2902 1.368 . S
C2897 C2881 1.349 1_565 S
C2897 H2889 0.950 . S
C2897 C2895 1.327 . S
C2898 C2886 1.349 . S
C2898 H2892 0.950 . S
C2898 C2899 1.327 . S
C2899 H2893 0.950 . S
C2899 C2898 1.327 . S
C2899 C2903 1.429 . S
C2900 C2883 1.574 . S
C2900 H2894 0.949 . S
C2900 C2904 1.368 1_565 S
C2901 C2882 1.429 . S
C2901 C2895 1.429 1_545 S
C2901 C2902 1.523 . S
C2902 C2883 1.368 1_545 S
C2902 C2896 1.368 . S
C2902 C2901 1.523 . S
C2903 C2887 1.429 1_545 S
C2903 C2899 1.429 . S
C2903 C2904 1.523 . S
C2904 C2888 1.368 . S
C2904 C2900 1.368 1_545 S
C2904 C2903 1.523 . S
H2905 C2880 0.950 . S
H2906 C2882 0.950 . S
H2907 C2883 0.949 . S
H2908 C2885 0.950 . S
H2909 C2887 0.950 . S
C2910 C2911 1.349 . S
C2910 C2912 1.327 . S
C2910 H2935 0.950 . S
C2911 C2910 1.349 . S
C2911 C2927 1.349 1_655 S
C2912 C2910 1.327 . S
C2912 C2931 1.429 . S
C2912 H2936 0.950 . S
C2913 C2930 1.574 . S
C2913 C2932 1.368 1_455 S
C2913 H2937 0.949 . S
H2914 C2918 0.949 . S
C2915 C2916 1.349 1_455 S
C2915 C2917 1.327 . S
C2915 H2938 0.950 . S
C2916 C2915 1.349 1_655 S
C2916 C2928 1.349 . S
C2917 C2915 1.327 . S
C2917 C2933 1.429 1_455 S
C2917 H2939 0.950 . S
C2918 H2914 0.949 . S
C2918 C2926 1.574 . S
C2918 C2934 1.368 . S
H2919 C2927 0.950 . S
H2920 C2925 0.950 . S
H2921 C2926 0.949 . S
H2922 C2928 0.950 . S
H2923 C2929 0.950 . S
H2924 C2930 0.949 . S
C2925 H2920 0.950 . S
C2925 C2927 1.327 . S
C2925 C2931 1.429 1_455 S
C2926 C2918 1.574 . S
C2926 H2921 0.949 . S
C2926 C2932 1.368 . S
C2927 C2911 1.349 1_455 S
C2927 H2919 0.950 . S
C2927 C2925 1.327 . S
C2928 C2916 1.349 . S
C2928 H2922 0.950 . S
C2928 C2929 1.327 . S
C2929 H2923 0.950 . S
C2929 C2928 1.327 . S
C2929 C2933 1.429 . S
C2930 C2913 1.574 . S
C2930 H2924 0.949 . S
C2930 C2934 1.368 1_455 S
C2931 C2912 1.429 . S
C2931 C2925 1.429 1_655 S
C2931 C2932 1.523 . S
C2932 C2913 1.368 1_655 S
C2932 C2926 1.368 . S
C2932 C2931 1.523 . S
C2933 C2917 1.429 1_655 S
C2933 C2929 1.429 . S
C2933 C2934 1.523 . S
C2934 C2918 1.368 . S
C2934 C2930 1.368 1_655 S
C2934 C2933 1.523 . S
H2935 C2910 0.950 . S
H2936 C2912 0.950 . S
H2937 C2913 0.949 . S
H2938 C2915 0.950 . S
H2939 C2917 0.950 . S
C2940 C2941 1.349 . S
C2940 C2942 1.327 . S
C2940 H2965 0.950 . S
C2941 C2940 1.349 . S
C2941 C2957 1.349 . S
C2942 C2940 1.327 . S
C2942 C2961 1.429 . S
C2942 H2966 0.950 . S
C2943 C2960 1.574 . S
C2943 C2962 1.368 . S
C2943 H2967 0.949 . S
H2944 C2948 0.949 . S
C2945 C2946 1.349 . S
C2945 C2947 1.327 . S
C2945 H2968 0.950 . S
C2946 C2945 1.349 . S
C2946 C2958 1.349 . S
C2947 C2945 1.327 . S
C2947 C2963 1.429 . S
C2947 H2969 0.950 . S
C2948 H2944 0.949 . S
C2948 C2956 1.574 . S
C2948 C2964 1.368 . S
H2949 C2957 0.950 . S
H2950 C2955 0.950 . S
H2951 C2956 0.949 . S
H2952 C2958 0.950 . S
H2953 C2959 0.950 . S
H2954 C2960 0.949 . S
C2955 H2950 0.950 . S
C2955 C2957 1.327 . S
C2955 C2961 1.429 . S
C2956 C2948 1.574 . S
C2956 H2951 0.949 . S
C2956 C2962 1.368 . S
C2957 C2941 1.349 . S
C2957 H2949 0.950 . S
C2957 C2955 1.327 . S
C2958 C2946 1.349 . S
C2958 H2952 0.950 . S
C2958 C2959 1.327 . S
C2959 H2953 0.950 . S
C2959 C2958 1.327 . S
C2959 C2963 1.429 . S
C2960 C2943 1.574 . S
C2960 H2954 0.949 . S
C2960 C2964 1.368 . S
C2961 C2942 1.429 . S
C2961 C2955 1.429 . S
C2961 C2962 1.523 . S
C2962 C2943 1.368 . S
C2962 C2956 1.368 . S
C2962 C2961 1.523 . S
C2963 C2947 1.429 . S
C2963 C2959 1.429 . S
C2963 C2964 1.523 . S
C2964 C2948 1.368 . S
C2964 C2960 1.368 . S
C2964 C2963 1.523 . S
H2965 C2940 0.950 . S
H2966 C2942 0.950 . S
H2967 C2943 0.949 . S
H2968 C2945 0.950 . S
H2969 C2947 0.950 . S
C2970 C2971 1.349 . S
C2970 C2972 1.327 . S
C2970 H2995 0.950 . S
C2971 C2970 1.349 . S
C2971 C2987 1.349 . S
C2972 C2970 1.327 . S
C2972 C2991 1.429 . S
C2972 H2996 0.950 . S
C2973 C2990 1.574 . S
C2973 C2992 1.368 . S
C2973 H2997 0.949 . S
H2974 C2978 0.949 . S
C2975 C2976 1.349 . S
C2975 C2977 1.327 . S
C2975 H2998 0.950 . S
C2976 C2975 1.349 . S
C2976 C2988 1.349 . S
C2977 C2975 1.327 . S
C2977 C2993 1.429 . S
C2977 H2999 0.950 . S
C2978 H2974 0.949 . S
C2978 C2986 1.574 . S
C2978 C2994 1.368 . S
H2979 C2987 0.950 . S
H2980 C2985 0.950 . S
H2981 C2986 0.949 . S
H2982 C2988 0.950 . S
H2983 C2989 0.950 . S
H2984 C2990 0.949 . S
C2985 H2980 0.950 . S
C2985 C2987 1.327 . S
C2985 C2991 1.429 . S
C2986 C2978 1.574 . S
C2986 H2981 0.949 . S
C2986 C2992 1.368 . S
C2987 C2971 1.349 . S
C2987 H2979 0.950 . S
C2987 C2985 1.327 . S
C2988 C2976 1.349 . S
C2988 H2982 0.950 . S
C2988 C2989 1.327 . S
C2989 H2983 0.950 . S
C2989 C2988 1.327 . S
C2989 C2993 1.429 . S
C2990 C2973 1.574 . S
C2990 H2984 0.949 . S
C2990 C2994 1.368 . S
C2991 C2972 1.429 . S
C2991 C2985 1.429 . S
C2991 C2992 1.523 . S
C2992 C2973 1.368 . S
C2992 C2986 1.368 . S
C2992 C2991 1.523 . S
C2993 C2977 1.429 . S
C2993 C2989 1.429 . S
C2993 C2994 1.523 . S
C2994 C2978 1.368 . S
C2994 C2990 1.368 . S
C2994 C2993 1.523 . S
H2995 C2970 0.950 . S
H2996 C2972 0.950 . S
H2997 C2973 0.949 . S
H2998 C2975 0.950 . S
H2999 C2977 0.950 . S
C3000 C3001 1.349 . S
C3000 C3002 1.327 . S
C3000 H3025 0.950 . S
C3001 C3000 1.349 . S
C3001 C3017 1.349 . S
C3002 C3000 1.327 . S
C3002 C3021 1.429 . S
C3002 H3026 0.950 . S
C3003 C3020 1.574 . S
C3003 C3022 1.368 . S
C3003 H3027 0.949 . S
H3004 C3008 0.949 . S
C3005 C3006 1.349 . S
C3005 C3007 1.327 . S
C3005 H3028 0.950 . S
C3006 C3005 1.349 . S
C3006 C3018 1.349 . S
C3007 C3005 1.327 . S
C3007 C3023 1.429 . S
C3007 H3029 0.950 . S
C3008 H3004 0.949 . S
C3008 C3016 1.574 . S
C3008 C3024 1.368 . S
H3009 C3017 0.950 . S
H3010 C3015 0.950 . S
H3011 C3016 0.949 . S
H3012 C3018 0.950 . S
H3013 C3019 0.950 . S
H3014 C3020 0.949 . S
C3015 H3010 0.950 . S
C3015 C3017 1.327 . S
C3015 C3021 1.429 . S
C3016 C3008 1.574 . S
C3016 H3011 0.949 . S
C3016 C3022 1.368 . S
C3017 C3001 1.349 . S
C3017 H3009 0.950 . S
C3017 C3015 1.327 . S
C3018 C3006 1.349 . S
C3018 H3012 0.950 . S
C3018 C3019 1.327 . S
C3019 H3013 0.950 . S
C3019 C3018 1.327 . S
C3019 C3023 1.429 . S
C3020 C3003 1.574 . S
C3020 H3014 0.949 . S
C3020 C3024 1.368 . S
C3021 C3002 1.429 . S
C3021 C3015 1.429 . S
C3021 C3022 1.523 . S
C3022 C3003 1.368 . S
C3022 C3016 1.368 . S
C3022 C3021 1.523 . S
C3023 C3007 1.429 . S
C3023 C3019 1.429 . S
C3023 C3024 1.523 . S
C3024 C3008 1.368 . S
C3024 C3020 1.368 . S
C3024 C3023 1.523 . S
H3025 C3000 0.950 . S
H3026 C3002 0.950 . S
H3027 C3003 0.949 . S
H3028 C3005 0.950 . S
H3029 C3007 0.950 . S
C3030 C3031 1.349 . S
C3030 C3032 1.327 . S
C3030 H3055 0.950 . S
C3031 C3030 1.349 . S
C3031 C3047 1.349 . S
C3032 C3030 1.327 . S
C3032 C3051 1.429 . S
C3032 H3056 0.950 . S
C3033 C3050 1.574 . S
C3033 C3052 1.368 . S
C3033 H3057 0.949 . S
H3034 C3038 0.949 . S
C3035 C3036 1.349 . S
C3035 C3037 1.327 . S
C3035 H3058 0.950 . S
C3036 C3035 1.349 . S
C3036 C3048 1.349 . S
C3037 C3035 1.327 . S
C3037 C3053 1.429 . S
C3037 H3059 0.950 . S
C3038 H3034 0.949 . S
C3038 C3046 1.574 . S
C3038 C3054 1.368 . S
H3039 C3047 0.950 . S
H3040 C3045 0.950 . S
H3041 C3046 0.949 . S
H3042 C3048 0.950 . S
H3043 C3049 0.950 . S
H3044 C3050 0.949 . S
C3045 H3040 0.950 . S
C3045 C3047 1.327 . S
C3045 C3051 1.429 . S
C3046 C3038 1.574 . S
C3046 H3041 0.949 . S
C3046 C3052 1.368 . S
C3047 C3031 1.349 . S
C3047 H3039 0.950 . S
C3047 C3045 1.327 . S
C3048 C3036 1.349 . S
C3048 H3042 0.950 . S
C3048 C3049 1.327 . S
C3049 H3043 0.950 . S
C3049 C3048 1.327 . S
C3049 C3053 1.429 . S
C3050 C3033 1.574 . S
C3050 H3044 0.949 . S
C3050 C3054 1.368 . S
C3051 C3032 1.429 . S
C3051 C3045 1.429 . S
C3051 C3052 1.523 . S
C3052 C3033 1.368 . S
C3052 C3046 1.368 . S
C3052 C3051 1.523 . S
C3053 C3037 1.429 . S
C3053 C3049 1.429 . S
C3053 C3054 1.523 . S
C3054 C3038 1.368 . S
C3054 C3050 1.368 . S
C3054 C3053 1.523 . S
H3055 C3030 0.950 . S
H3056 C3032 0.950 . S
H3057 C3033 0.949 . S
H3058 C3035 0.950 . S
H3059 C3037 0.950 . S
C3060 C3061 1.349 . S
C3060 C3062 1.327 . S
C3060 H3085 0.950 . S
C3061 C3060 1.349 . S
C3061 C3077 1.349 . S
C3062 C3060 1.327 . S
C3062 C3081 1.429 . S
C3062 H3086 0.950 . S
C3063 C3080 1.574 . S
C3063 C3082 1.368 . S
C3063 H3087 0.949 . S
H3064 C3068 0.949 . S
C3065 C3066 1.349 . S
C3065 C3067 1.327 . S
C3065 H3088 0.950 . S
C3066 C3065 1.349 . S
C3066 C3078 1.349 . S
C3067 C3065 1.327 . S
C3067 C3083 1.429 . S
C3067 H3089 0.950 . S
C3068 H3064 0.949 . S
C3068 C3076 1.574 . S
C3068 C3084 1.368 . S
H3069 C3077 0.950 . S
H3070 C3075 0.950 . S
H3071 C3076 0.949 . S
H3072 C3078 0.950 . S
H3073 C3079 0.950 . S
H3074 C3080 0.949 . S
C3075 H3070 0.950 . S
C3075 C3077 1.327 . S
C3075 C3081 1.429 . S
C3076 C3068 1.574 . S
C3076 H3071 0.949 . S
C3076 C3082 1.368 . S
C3077 C3061 1.349 . S
C3077 H3069 0.950 . S
C3077 C3075 1.327 . S
C3078 C3066 1.349 . S
C3078 H3072 0.950 . S
C3078 C3079 1.327 . S
C3079 H3073 0.950 . S
C3079 C3078 1.327 . S
C3079 C3083 1.429 . S
C3080 C3063 1.574 . S
C3080 H3074 0.949 . S
C3080 C3084 1.368 . S
C3081 C3062 1.429 . S
C3081 C3075 1.429 . S
C3081 C3082 1.523 . S
C3082 C3063 1.368 . S
C3082 C3076 1.368 . S
C3082 C3081 1.523 . S
C3083 C3067 1.429 . S
C3083 C3079 1.429 . S
C3083 C3084 1.523 . S
C3084 C3068 1.368 . S
C3084 C3080 1.368 . S
C3084 C3083 1.523 . S
H3085 C3060 0.950 . S
H3086 C3062 0.950 . S
H3087 C3063 0.949 . S
H3088 C3065 0.950 . S
H3089 C3067 0.950 . S
C3090 C3091 1.349 . S
C3090 C3092 1.327 . S
C3090 H3115 0.950 . S
C3091 C3090 1.349 . S
C3091 C3107 1.349 . S
C3092 C3090 1.327 . S
C3092 C3111 1.429 . S
C3092 H3116 0.950 . S
C3093 C3110 1.574 . S
C3093 C3112 1.368 . S
C3093 H3117 0.949 . S
H3094 C3098 0.949 . S
C3095 C3096 1.349 . S
C3095 C3097 1.327 . S
C3095 H3118 0.950 . S
C3096 C3095 1.349 . S
C3096 C3108 1.349 . S
C3097 C3095 1.327 . S
C3097 C3113 1.429 . S
C3097 H3119 0.950 . S
C3098 H3094 0.949 . S
C3098 C3106 1.574 . S
C3098 C3114 1.368 . S
H3099 C3107 0.950 . S
H3100 C3105 0.950 . S
H3101 C3106 0.949 . S
H3102 C3108 0.950 . S
H3103 C3109 0.950 . S
H3104 C3110 0.949 . S
C3105 H3100 0.950 . S
C3105 C3107 1.327 . S
C3105 C3111 1.429 . S
C3106 C3098 1.574 . S
C3106 H3101 0.949 . S
C3106 C3112 1.368 . S
C3107 C3091 1.349 . S
C3107 H3099 0.950 . S
C3107 C3105 1.327 . S
C3108 C3096 1.349 . S
C3108 H3102 0.950 . S
C3108 C3109 1.327 . S
C3109 H3103 0.950 . S
C3109 C3108 1.327 . S
C3109 C3113 1.429 . S
C3110 C3093 1.574 . S
C3110 H3104 0.949 . S
C3110 C3114 1.368 . S
C3111 C3092 1.429 . S
C3111 C3105 1.429 . S
C3111 C3112 1.523 . S
C3112 C3093 1.368 . S
C3112 C3106 1.368 . S
C3112 C3111 1.523 . S
C3113 C3097 1.429 . S
C3113 C3109 1.429 . S
C3113 C3114 1.523 . S
C3114 C3098 1.368 . S
C3114 C3110 1.368 . S
C3114 C3113 1.523 . S
H3115 C3090 0.950 . S
H3116 C3092 0.950 . S
H3117 C3093 0.949 . S
H3118 C3095 0.950 . S
H3119 C3097 0.950 . S
C3120 C3121 1.349 . S
C3120 C3122 1.327 . S
C3120 H3145 0.950 . S
C3121 C3120 1.349 . S
C3121 C3137 1.349 . S
C3122 C3120 1.327 . S
C3122 C3141 1.429 . S
C3122 H3146 0.950 . S
C3123 C3140 1.574 . S
C3123 C3142 1.368 . S
C3123 H3147 0.949 . S
H3124 C3128 0.949 . S
C3125 C3126 1.349 . S
C3125 C3127 1.327 . S
C3125 H3148 0.950 . S
C3126 C3125 1.349 . S
C3126 C3138 1.349 . S
C3127 C3125 1.327 . S
C3127 C3143 1.429 . S
C3127 H3149 0.950 . S
C3128 H3124 0.949 . S
C3128 C3136 1.574 . S
C3128 C3144 1.368 . S
H3129 C3137 0.950 . S
H3130 C3135 0.950 . S
H3131 C3136 0.949 . S
H3132 C3138 0.950 . S
H3133 C3139 0.950 . S
H3134 C3140 0.949 . S
C3135 H3130 0.950 . S
C3135 C3137 1.327 . S
C3135 C3141 1.429 . S
C3136 C3128 1.574 . S
C3136 H3131 0.949 . S
C3136 C3142 1.368 . S
C3137 C3121 1.349 . S
C3137 H3129 0.950 . S
C3137 C3135 1.327 . S
C3138 C3126 1.349 . S
C3138 H3132 0.950 . S
C3138 C3139 1.327 . S
C3139 H3133 0.950 . S
C3139 C3138 1.327 . S
C3139 C3143 1.429 . S
C3140 C3123 1.574 . S
C3140 H3134 0.949 . S
C3140 C3144 1.368 . S
C3141 C3122 1.429 . S
C3141 C3135 1.429 . S
C3141 C3142 1.523 . S
C3142 C3123 1.368 . S
C3142 C3136 1.368 . S
C3142 C3141 1.523 . S
C3143 C3127 1.429 . S
C3143 C3139 1.429 . S
C3143 C3144 1.523 . S
C3144 C3128 1.368 . S
C3144 C3140 1.368 . S
C3144 C3143 1.523 . S
H3145 C3120 0.950 . S
H3146 C3122 0.950 . S
H3147 C3123 0.949 . S
H3148 C3125 0.950 . S
H3149 C3127 0.950 . S
C3150 C3151 1.349 . S
C3150 C3152 1.327 . S
C3150 H3175 0.950 . S
C3151 C3150 1.349 . S
C3151 C3167 1.349 . S
C3152 C3150 1.327 . S
C3152 C3171 1.429 . S
C3152 H3176 0.950 . S
C3153 C3170 1.526 1_655 S
C3153 C3172 1.390 . S
C3153 H3177 0.953 1_655 S
H3154 C3158 0.949 . S
C3155 C3156 1.349 1_455 S
C3155 C3157 1.327 . S
C3155 H3178 0.950 . S
C3156 C3155 1.349 1_655 S
C3156 C3168 1.349 . S
C3157 C3155 1.327 . S
C3157 C3173 1.429 1_455 S
C3157 H3179 0.950 . S
C3158 H3154 0.949 . S
C3158 C3166 1.574 . S
C3158 C3174 1.368 . S
H3159 C3167 0.953 1_455 S
H3160 C3165 0.950 1_455 S
H3161 C3166 0.949 . S
H3162 C3168 0.950 . S
H3163 C3169 0.950 . S
H3164 C3170 0.975 . S
C3165 H3160 0.950 1_655 S
C3165 C3167 1.327 . S
C3165 C3171 1.429 . S
C3166 C3158 1.574 . S
C3166 H3161 0.949 . S
C3166 C3172 1.368 . S
C3167 C3151 1.349 . S
C3167 H3159 0.953 1_655 S
C3167 C3165 1.327 . S
C3168 C3156 1.349 . S
C3168 H3162 0.950 . S
C3168 C3169 1.327 . S
C3169 H3163 0.950 . S
C3169 C3168 1.327 . S
C3169 C3173 1.429 . S
C3170 C3153 1.526 1_455 S
C3170 H3164 0.975 . S
C3170 C3174 1.367 1_455 S
C3171 C3152 1.429 . S
C3171 C3165 1.429 . S
C3171 C3172 1.523 . S
C3172 C3153 1.390 . S
C3172 C3166 1.368 . S
C3172 C3171 1.523 . S
C3173 C3157 1.429 1_655 S
C3173 C3169 1.429 . S
C3173 C3174 1.523 . S
C3174 C3158 1.368 . S
C3174 C3170 1.367 1_655 S
C3174 C3173 1.523 . S
H3175 C3150 0.950 . S
H3176 C3152 0.950 . S
H3177 C3153 0.953 1_455 S
H3178 C3155 0.950 . S
H3179 C3157 0.950 . S
C3180 C3181 1.349 . S
C3180 C3182 1.327 . S
C3180 H3205 0.950 . S
C3181 C3180 1.349 . S
C3181 C3197 1.349 . S
C3182 C3180 1.327 . S
C3182 C3201 1.429 . S
C3182 H3206 0.950 . S
C3183 C3200 1.574 . S
C3183 C3202 1.368 . S
C3183 H3207 0.949 . S
H3184 C3188 0.949 . S
C3185 C3186 1.349 . S
C3185 C3187 1.327 . S
C3185 H3208 0.950 . S
C3186 C3185 1.349 . S
C3186 C3198 1.349 . S
C3187 C3185 1.327 . S
C3187 C3203 1.429 . S
C3187 H3209 0.950 . S
C3188 H3184 0.949 . S
C3188 C3196 1.574 . S
C3188 C3204 1.368 . S
H3189 C3197 0.950 . S
H3190 C3195 0.950 . S
H3191 C3196 0.949 . S
H3192 C3198 0.950 . S
H3193 C3199 0.950 . S
H3194 C3200 0.949 . S
C3195 H3190 0.950 . S
C3195 C3197 1.327 . S
C3195 C3201 1.429 . S
C3196 C3188 1.574 . S
C3196 H3191 0.949 . S
C3196 C3202 1.368 . S
C3197 C3181 1.349 . S
C3197 H3189 0.950 . S
C3197 C3195 1.327 . S
C3198 C3186 1.349 . S
C3198 H3192 0.950 . S
C3198 C3199 1.327 . S
C3199 H3193 0.950 . S
C3199 C3198 1.327 . S
C3199 C3203 1.429 . S
C3200 C3183 1.574 . S
C3200 H3194 0.949 . S
C3200 C3204 1.368 . S
C3201 C3182 1.429 . S
C3201 C3195 1.429 . S
C3201 C3202 1.523 . S
C3202 C3183 1.368 . S
C3202 C3196 1.368 . S
C3202 C3201 1.523 . S
C3203 C3187 1.429 . S
C3203 C3199 1.429 . S
C3203 C3204 1.523 . S
C3204 C3188 1.368 . S
C3204 C3200 1.368 . S
C3204 C3203 1.523 . S
H3205 C3180 0.950 . S
H3206 C3182 0.950 . S
H3207 C3183 0.949 . S
H3208 C3185 0.950 . S
H3209 C3187 0.950 . S
C3210 C3211 1.381 . S
C3210 C3212 1.374 1_545 S
C3210 H3235 0.900 1_545 S
C3211 C3210 1.381 . S
C3211 C3227 1.349 . S
C3212 C3210 1.374 1_565 S
C3212 C3231 1.365 1_565 S
C3212 H3236 0.993 . S
C3213 C3230 1.574 . S
C3213 C3232 1.368 . S
C3213 H3237 0.949 . S
H3214 C3218 0.949 . S
C3215 C3216 1.349 . S
C3215 C3217 1.327 . S
C3215 H3238 0.950 . S
C3216 C3215 1.349 . S
C3216 C3228 1.349 1_545 S
C3217 C3215 1.327 . S
C3217 C3233 1.429 . S
C3217 H3239 0.950 . S
C3218 H3214 0.949 . S
C3218 C3226 1.574 . S
C3218 C3234 1.368 1_565 S
H3219 C3227 0.950 . S
H3220 C3225 0.950 . S
H3221 C3226 0.949 . S
H3222 C3228 0.950 . S
H3223 C3229 0.950 . S
H3224 C3230 0.949 . S
C3225 H3220 0.950 . S
C3225 C3227 1.327 . S
C3225 C3231 1.429 . S
C3226 C3218 1.574 . S
C3226 H3221 0.949 . S
C3226 C3232 1.368 1_565 S
C3227 C3211 1.349 . S
C3227 H3219 0.950 . S
C3227 C3225 1.327 . S
C3228 C3216 1.349 1_565 S
C3228 H3222 0.950 . S
C3228 C3229 1.327 . S
C3229 H3223 0.950 . S
C3229 C3228 1.327 . S
C3229 C3233 1.429 1_565 S
C3230 C3213 1.574 . S
C3230 H3224 0.949 . S
C3230 C3234 1.368 . S
C3231 C3212 1.365 1_545 S
C3231 C3225 1.429 . S
C3231 C3232 1.523 . S
C3232 C3213 1.368 . S
C3232 C3226 1.368 1_545 S
C3232 C3231 1.523 . S
C3233 C3217 1.429 . S
C3233 C3229 1.429 1_545 S
C3233 C3234 1.523 . S
C3234 C3218 1.368 1_545 S
C3234 C3230 1.368 . S
C3234 C3233 1.523 . S
H3235 C3210 0.900 1_565 S
H3236 C3212 0.993 . S
H3237 C3213 0.949 . S
H3238 C3215 0.950 . S
H3239 C3217 0.950 . S
C1081 C7 1.411 . S
C1086 C688 1.436 . S
C1111 C23 1.590 . S
C1116 C734 1.587 . S
C1146 C766 1.463 . S
C1141 C37 1.429 . S
C1171 C35 1.419 1_545 S
C1176 C819 1.441 . S
C1201 C9 1.431 . S
C1206 C865 1.469 . S
C1231 C21 1.570 . S
C1236 C904 1.603 . S
C1261 C49 1.403 . S
C1266 C858 1.422 . S
C1296 C911 1.593 . S
C1291 C65 1.588 . S
C1326 C812 1.484 . S
C1321 C79 1.445 . S
C1351 C77 1.395 . S
C1356 C773 1.415 . S
C1386 C667 1.478 . S
C1381 C51 1.441 . S
C1411 C63 1.566 . S
C1416 C713 1.589 . S
C1441 C91 1.664 . S
C1446 C943 1.699 . S
C1471 C107 1.668 . S
C1476 C1010 1.653 . S
C1506 C1056 1.647 . S
C1501 C121 1.663 . S
C1531 C119 1.593 . S
C1536 C267 1.610 . S
C1561 C93 1.669 . S
C1566 C313 1.659 . S
C1591 C105 1.618 . S
C1596 C359 1.632 . S
C1621 C133 1.542 . S
C1626 C306 1.560 . S
C1651 C149 1.639 . S
C1656 C352 1.629 . S
C1686 C260 1.660 . S
C1681 C163 1.670 . S
C1716 C1035 1.733 . S
C1711 C161 1.711 . S
C1746 C964 1.643 . S
C1741 C135 1.647 . S
C1776 C989 1.677 . S
C1771 C147 1.652 . S
C1801 C175 1.547 . S
C1806 C391 1.576 . S
C1831 C191 1.631 . S
C1836 C444 1.632 . S
C1861 C205 1.666 . S
C1866 C490 1.668 . S
C1891 C203 1.706 . S
C1896 C536 1.739 . S
C1926 C589 1.645 . S
C1921 C177 1.660 . S
C1956 C635 1.679 . S
C1951 C189 1.654 . S
C1986 C582 1.698 . S
C1981 C217 1.674 . S
C2016 C628 1.662 . S
C2011 C233 1.676 . S
C2041 C247 1.655 . S
C2046 C543 1.651 . S
C2076 C497 1.614 . S
C2071 C245 1.586 . S
C2101 C219 1.666 . S
C2106 C412 1.667 . S
C2136 C451 1.649 . S
C2131 C231 1.624 . S
C2166 C274 1.623 . S
C2161 C8 1.635 . S
C2191 C17 1.515 . S
C2196 C320 1.505 . S
C2226 C366 1.629 . S
C2221 C31 1.631 . S
C2256 C398 1.627 . S
C2251 C36 1.650 . S
C2286 C437 1.593 . S
C2281 C3 1.609 . S
C2316 C483 1.500 . S
C2311 C22 1.526 . S
C2341 C50 1.646 . S
C2346 C504 1.631 . S
C2371 C59 1.508 . S
C2376 C405 1.488 . S
C2401 C73 1.605 . S
C2406 C458 1.591 . S
C2431 C78 1.675 . S
C2436 C299 1.671 . S
C2466 C345 1.597 . S
C2461 C45 1.598 . S
C2491 C64 1.525 . S
C2496 C253 1.510 . S
C2526 C529 1.561 . S
C2521 C92 1.584 . S
C2551 C101 1.692 . S
C2556 C596 1.679 . S
C2581 C115 1.702 . S
C2586 C642 1.690 . S
C2616 C681 1.409 . S
C2611 C120 1.404 . S
C2641 C87 1.587 . S
C2646 C727 1.578 . S
C2671 C106 1.358 . S
C2676 C759 1.362 . S
C2701 C134 1.380 . S
C2706 C780 1.376 . S
C2731 C143 1.386 . S
C2736 C674 1.387 . S
C2766 C720 1.599 . S
C2761 C157 1.606 . S
C2791 C162 1.607 . S
C2796 C575 1.593 . S
C2821 C129 1.690 . S
C2826 C621 1.675 . S
C2856 C550 1.660 . S
C2851 C148 1.688 . S
C2886 C826 1.393 . S
C2881 C176 1.387 . S
C2911 C185 1.382 . S
C2916 C872 1.383 . S
C2941 C199 1.599 . S
C2946 C897 1.583 . S
C2976 C950 1.565 . S
C2971 C204 1.588 . S
C3006 C1003 1.679 . S
C3001 C171 1.694 . S
C3031 C190 1.693 . S
C3036 C1049 1.677 . S
C3061 C218 1.595 . S
C3066 C1042 1.582 . S
C3091 C227 1.685 . S
C3096 C957 1.662 . S
C3126 C996 1.674 . S
C3121 C241 1.687 . S
C3156 C851 1.396 . S
C3151 C246 1.391 . S
C3186 C918 1.575 . S
C3181 C213 1.594 . S
C3211 C232 1.368 . S
C3216 C805 1.371 . S
