# Generated by pormake.
# Topology tsx, (6,3)-cn, num edge types: 1
# Building blocks:
#     Node 0, Type 0, BuildingBlock: FUNLAD_clean_sbu_0, # of connection points: 6
#     Node 1, Type 0, BuildingBlock: FUNLAD_clean_sbu_0, # of connection points: 6
#     Node 2, Type 1, BuildingBlock: ESEHIV_clean_linker_0, # of connection points: 3
#     Node 3, Type 1, BuildingBlock: ESEHIV_clean_linker_0, # of connection points: 3
#     Node 4, Type 1, BuildingBlock: ESEHIV_clean_linker_0, # of connection points: 3
#     Node 5, Type 1, BuildingBlock: ESEHIV_clean_linker_0, # of connection points: 3
#     Edge 6, Type (0, 1), BuildingBlock: FUNLAD_clean_linker_1, # of connection points: 2
#     Edge 7, Type (0, 1), BuildingBlock: FUNLAD_clean_linker_1, # of connection points: 2
#     Edge 8, Type (0, 1), BuildingBlock: FUNLAD_clean_linker_1, # of connection points: 2
#     Edge 9, Type (0, 1), BuildingBlock: FUNLAD_clean_linker_1, # of connection points: 2
#     Edge 10, Type (0, 1), BuildingBlock: FUNLAD_clean_linker_1, # of connection points: 2
#     Edge 11, Type (0, 1), BuildingBlock: FUNLAD_clean_linker_1, # of connection points: 2
#     Edge 12, Type (0, 1), BuildingBlock: FUNLAD_clean_linker_1, # of connection points: 2
#     Edge 13, Type (0, 1), BuildingBlock: FUNLAD_clean_linker_1, # of connection points: 2
#     Edge 14, Type (0, 1), BuildingBlock: FUNLAD_clean_linker_1, # of connection points: 2
#     Edge 15, Type (0, 1), BuildingBlock: FUNLAD_clean_linker_1, # of connection points: 2
#     Edge 16, Type (0, 1), BuildingBlock: FUNLAD_clean_linker_1, # of connection points: 2
#     Edge 17, Type (0, 1), BuildingBlock: FUNLAD_clean_linker_1, # of connection points: 2
# Relax obj value: 0.164
# Max RMSD: 0.154
# Mean RMSD: 0.081
data_MOF--net-tsx--node1-FUNLAD_clean_sbu_0--node2-ESEHIV_clean_linker_0--edge1-FUNLAD_clean_linker_1
_symmetry_space_group_name_H-M    P1
_symmetry_Int_Tables_number       1
_symmetry_cell_setting            triclinic
loop_
_symmetry_equiv_pos_as_xyz
'x, y, z'
_cell_length_a     18.442067
_cell_length_b     20.448486
_cell_length_c     41.882997
_cell_angle_alpha  91.057751
_cell_angle_beta   91.69899
_cell_angle_gamma 90.053944
loop_
_atom_site_label
_atom_site_type_symbol
_atom_site_fract_x
_atom_site_fract_y
_atom_site_fract_z
_atom_type_partial_charge
C0 C 0.91147 0.90755 -0.00222 0.0
N1 N 0.02548 0.00614 0.07181 0.0
C2 C 0.963 0.99866 0.0878 0.0
C3 C 0.96445 0.99759 0.12103 0.0
C4 C 0.0307 0.00399 0.13807 0.0
C5 C 0.0946 0.01187 0.12098 0.0
C6 C 0.09063 0.01262 0.08763 0.0
Zn7 Zn 0.01864 0.00813 0.02333 0.0
C8 C 0.12175 0.91941 0.99291 0.0
N9 N 0.99775 0.01241 0.92203 0.0
C10 C 0.93291 0.018 0.90596 0.0
C11 C 0.06141 0.01433 0.9065 0.0
C12 C 0.06165 0.02324 0.87366 0.0
C13 C 0.99593 0.03007 0.85643 0.0
C14 C 0.93062 0.02701 0.87293 0.0
Zn15 Zn 0.004 0.00907 0.97061 0.0
O16 O 0.94544 0.92783 0.02291 0.0
C17 C 0.90052 0.09765 0.00098 0.0
O18 O 0.92323 0.9342 0.97124 0.0
H19 H 0.11242 0.01053 0.91972 0.0
H20 H 0.91175 0.99373 0.07477 0.0
H21 H 0.88299 0.01711 0.91888 0.0
O22 O 0.92966 0.0742 0.02608 0.0
O23 O 0.92298 0.08009 0.97379 0.0
H24 H 0.13955 0.0188 0.07437 0.0
O25 O 0.0834 0.0842 0.97047 0.0
O26 O 0.09323 0.08815 0.02279 0.0
O27 O 0.08614 0.93751 0.96824 0.0
O28 O 0.10608 0.94232 0.02022 0.0
C29 C 0.11184 0.10909 -0.00419 0.0
H30 H 0.91403 0.99165 0.13332 0.0
H31 H 0.14693 0.01852 0.1329 0.0
H32 H 0.11308 0.0254 0.86185 0.0
H33 H 0.87843 0.03321 0.86095 0.0
C34 C 0.40637 0.38809 0.51168 0.0
N35 N 0.52855 0.49372 0.58125 0.0
C36 C 0.46612 0.49631 0.59772 0.0
C37 C 0.46841 0.49932 0.63102 0.0
C38 C 0.5358 0.49911 0.64764 0.0
C39 C 0.59933 0.49784 0.63 0.0
C40 C 0.59452 0.49492 0.59666 0.0
Zn41 Zn 0.52111 0.48651 0.53261 0.0
C42 C 0.6181 0.38371 0.50714 0.0
N43 N 0.50034 0.46992 0.43099 0.0
C44 C 0.4366 0.47874 0.41443 0.0
C45 C 0.56393 0.46287 0.41564 0.0
C46 C 0.56542 0.46609 0.38248 0.0
C47 C 0.50123 0.47777 0.36482 0.0
C48 C 0.43572 0.48285 0.3811 0.0
Zn49 Zn 0.50609 0.47551 0.4798 0.0
O50 O 0.43926 0.41412 0.53579 0.0
C51 C 0.41098 0.57997 0.50631 0.0
O52 O 0.42273 0.40475 0.48368 0.0
H53 H 0.6142 0.45668 0.42917 0.0
H54 H 0.41424 0.49588 0.58499 0.0
H55 H 0.38662 0.48407 0.4271 0.0
O56 O 0.44172 0.56135 0.53206 0.0
O57 O 0.42701 0.5523 0.47997 0.0
H58 H 0.64349 0.49313 0.58308 0.0
O59 O 0.58893 0.54652 0.47628 0.0
O60 O 0.60242 0.55833 0.52831 0.0
O61 O 0.5859 0.39916 0.48106 0.0
O62 O 0.60142 0.41272 0.53292 0.0
C63 C 0.62016 0.5739 0.50035 0.0
H64 H 0.41776 0.50249 0.64331 0.0
H65 H 0.65228 0.49831 0.64192 0.0
H66 H 0.61688 0.46143 0.37081 0.0
H67 H 0.38443 0.49 0.36845 0.0
H68 H 0.98359 0.07656 0.38179 0.0
H69 H 0.12053 0.90878 0.39575 0.0
H70 H 0.99998 0.98712 0.47368 0.0
C71 C 0.00577 0.03886 0.39706 0.0
C72 C 0.98648 0.03809 0.4292 0.0
C73 C 0.05403 0.99235 0.38477 0.0
C74 C 0.0836 0.94523 0.40509 0.0
C75 C 0.06467 0.94342 0.43717 0.0
C76 C 0.0163 0.98999 0.44931 0.0
H77 H 0.87142 0.96024 0.60996 0.0
H78 H 0.0301 0.11261 0.60531 0.0
H79 H 0.99507 0.98017 0.52551 0.0
C80 C 0.91172 0.98608 0.59663 0.0
C81 C 0.92685 0.96508 0.56556 0.0
C82 C 0.94981 0.03809 0.6113 0.0
C83 C 0.00114 0.07219 0.59389 0.0
C84 C 0.01593 0.05292 0.56224 0.0
C85 C 0.98047 0.99768 0.54883 0.0
H86 H 0.4416 0.60171 0.90123 0.0
H87 H 0.55876 0.42014 0.8975 0.0
H88 H 0.54413 0.5258 0.98635 0.0
C89 C 0.4722 0.56376 0.91329 0.0
C90 C 0.48695 0.5686 0.94644 0.0
C91 C 0.49957 0.51145 0.89521 0.0
C92 C 0.5392 0.4622 0.91079 0.0
C93 C 0.55509 0.4675 0.94363 0.0
C94 C 0.53066 0.5214 0.96113 0.0
H95 H 0.41601 0.43884 0.11585 0.0
H96 H 0.56231 0.60245 0.11787 0.0
H97 H 0.54275 0.4781 0.03397 0.0
C98 C 0.45501 0.46906 0.10396 0.0
C99 C 0.47394 0.45318 0.07266 0.0
C100 C 0.48704 0.52205 0.12054 0.0
C101 C 0.53729 0.56128 0.10514 0.0
C102 C 0.55678 0.54631 0.07357 0.0
C103 C 0.52587 0.49141 0.05766 0.0
H104 H 0.1737 0.18219 0.96966 0.0
C105 C 0.16586 0.16185 0.99312 0.0
H106 H 0.20153 0.16281 0.04148 0.0
H107 H 0.50539 0.29161 0.01763 0.0
H108 H 0.54217 0.17739 0.01868 0.0
H109 H 0.45038 0.08925 0.01792 0.0
H110 H 0.32156 0.11479 0.01592 0.0
C111 C 0.2061 0.18452 0.01814 0.0
C112 C 0.26123 0.23693 0.01442 0.0
C113 C 0.33607 0.22101 0.01567 0.0
C114 C 0.38902 0.27163 0.0163 0.0
C115 C 0.46336 0.2547 0.01751 0.0
C116 C 0.485 0.18947 0.018 0.0
C117 C 0.43331 0.13988 0.01754 0.0
C118 C 0.3596 0.15517 0.01647 0.0
H119 H 0.42039 0.35719 0.07314 0.0
C120 C 0.43915 0.39492 0.05732 0.0
H121 H 0.43167 0.42945 0.01 0.0
H122 H 0.12245 0.28455 0.009 0.0
H123 H 0.08743 0.39818 0.00372 0.0
H124 H 0.17987 0.48538 0.00328 0.0
H125 H 0.30815 0.4594 0.00853 0.0
C126 C 0.41934 0.39042 0.02624 0.0
C127 C 0.36712 0.33795 0.01596 0.0
C128 C 0.29274 0.35361 0.01154 0.0
C129 C 0.23952 0.30312 0.0112 0.0
C130 C 0.16531 0.32062 0.00871 0.0
C131 C 0.14441 0.38576 0.0058 0.0
C132 C 0.19646 0.43489 0.00563 0.0
C133 C 0.26983 0.41935 0.00869 0.0
H134 H 0.19054 0.8539 0.96512 0.0
C135 C 0.18114 0.87262 0.98913 0.0
H136 H 0.21475 0.86931 0.03792 0.0
H137 H 0.33774 0.58365 0.0041 0.0
H138 H 0.25136 0.55946 0.04511 0.0
H139 H 0.17729 0.64718 0.06885 0.0
H140 H 0.19015 0.75991 0.05223 0.0
C141 C 0.22394 0.85282 0.01357 0.0
C142 C 0.28171 0.80434 0.0072 0.0
C143 C 0.27412 0.73937 0.01768 0.0
C144 C 0.31603 0.68878 0.00372 0.0
C145 C 0.30662 0.62376 0.01385 0.0
C146 C 0.25734 0.60929 0.03731 0.0
C147 C 0.21573 0.65874 0.05074 0.0
C148 C 0.2235 0.72313 0.04099 0.0
H149 H 0.48739 0.63722 0.98813 0.0
C150 C 0.458 0.62261 0.96626 0.0
H151 H 0.36105 0.63469 0.93875 0.0
H152 H 0.32416 0.92634 0.98988 0.0
H153 H 0.41791 0.95184 0.95226 0.0
H154 H 0.48814 0.86363 0.92663 0.0
H155 H 0.46565 0.7496 0.93868 0.0
C156 C 0.39422 0.65087 0.95924 0.0
C157 C 0.36493 0.70385 0.9795 0.0
C158 C 0.37924 0.76974 0.97217 0.0
C159 C 0.33804 0.82031 0.98642 0.0
C160 C 0.35311 0.88607 0.97898 0.0
C161 C 0.4069 0.90127 0.95764 0.0
C162 C 0.4465 0.8516 0.94324 0.0
C163 C 0.43298 0.78643 0.95028 0.0
H164 H 0.80899 0.85765 0.9832 0.0
C165 C 0.85485 0.85688 8e-05 0.0
H166 H 0.90377 0.8132 0.04025 0.0
H167 H 0.64004 0.70986 0.11202 0.0
H168 H 0.69358 0.78828 0.1496 0.0
H169 H 0.79129 0.86212 0.1336 0.0
H170 H 0.83687 0.85701 0.08016 0.0
C171 C 0.85711 0.81325 0.02376 0.0
C172 C 0.79367 0.77164 0.03175 0.0
C173 C 0.76536 0.77711 0.06287 0.0
C174 C 0.70682 0.73648 0.07169 0.0
C175 C 0.68259 0.74084 0.1035 0.0
C176 C 0.71311 0.78555 0.12549 0.0
C177 C 0.76824 0.82694 0.11652 0.0
C178 C 0.7942 0.82309 0.08568 0.0
H179 H 0.6569 0.55978 0.04648 0.0
C180 C 0.61301 0.58548 0.05805 0.0
H181 H 0.56654 0.67606 0.07003 0.0
H182 H 0.84068 0.74047 0.97177 0.0
H183 H 0.78047 0.66868 0.93263 0.0
H184 H 0.66804 0.61047 0.94548 0.0
H185 H 0.61711 0.62207 -0.00206 0.0
C186 C 0.6116 0.65131 0.05883 0.0
C187 C 0.67409 0.6923 0.04899 0.0
C188 C 0.70056 0.68862 0.01749 0.0
C189 C 0.76225 0.72618 0.00928 0.0
C190 C 0.79143 0.71653 0.97866 0.0
C191 C 0.75778 0.67492 0.95603 0.0
C192 C 0.69474 0.64188 0.96331 0.0
C193 C 0.66633 0.6485 0.99362 0.0
H194 H 0.8048 0.14012 0.02401 0.0
C195 C 0.83861 0.14239 0.00324 0.0
H196 H 0.8568 0.18511 0.95892 0.0
H197 H 0.55542 0.27628 0.91302 0.0
H198 H 0.58174 0.19063 0.87456 0.0
H199 H 0.68505 0.11597 0.88347 0.0
H200 H 0.76337 0.12753 0.93067 0.0
C201 C 0.82256 0.18378 0.97961 0.0
C202 C 0.75393 0.22168 0.97798 0.0
C203 C 0.70645 0.21205 0.95099 0.0
C204 C 0.64561 0.25369 0.94637 0.0
C205 C 0.60167 0.24546 0.91821 0.0
C206 C 0.61613 0.19633 0.89583 0.0
C207 C 0.67434 0.15441 0.90081 0.0
C208 C 0.71911 0.16188 0.92799 0.0
H209 H 0.65505 0.43234 0.9673 0.0
C210 C 0.60067 0.41807 0.9592 0.0
H211 H 0.52389 0.34261 0.95273 0.0
H212 H 0.83467 0.25629 0.03222 0.0
H213 H 0.79967 0.33325 0.07359 0.0
H214 H 0.68429 0.39402 0.06883 0.0
H215 H 0.60486 0.37931 0.02186 0.0
C216 C 0.57847 0.35581 0.961 0.0
C217 C 0.63127 0.3035 0.96927 0.0
C218 C 0.67373 0.30796 -0.002 0.0
C219 C 0.73718 0.26923 0.00177 0.0
C220 C 0.78327 0.28088 0.02896 0.0
C221 C 0.76418 0.32557 0.0528 0.0
C222 C 0.69948 0.36003 0.05006 0.0
C223 C 0.65472 0.35163 0.02296 0.0
H224 H 0.68371 0.63972 0.47082 0.0
C225 C 0.67325 0.62609 0.49524 0.0
H226 H 0.69207 0.64889 0.5441 0.0
H227 H 0.96508 0.81572 0.48909 0.0
H228 H 0.01679 0.7107 0.47334 0.0
H229 H 0.94583 0.6089 0.47719 0.0
H230 H 0.82228 0.61139 0.49589 0.0
C231 C 0.70454 0.66001 0.51958 0.0
C232 C 0.74623 0.72048 0.51392 0.0
C233 C 0.81841 0.71754 0.50316 0.0
C234 C 0.8601 0.77589 0.50171 0.0
C235 C 0.93193 0.77235 0.49099 0.0
C236 C 0.96196 0.7126 0.48186 0.0
C237 C 0.9219 0.65527 0.48394 0.0
C238 C 0.85101 0.65736 0.49462 0.0
H239 H 0.85699 0.87865 0.56922 0.0
C240 C 0.88613 0.90784 0.55228 0.0
H241 H 0.90504 0.91877 0.50271 0.0
H242 H 0.60533 0.74424 0.52994 0.0
H243 H 0.55144 0.85068 0.54012 0.0
H244 H 0.62385 0.95172 0.53604 0.0
H245 H 0.75092 0.94629 0.52186 0.0
C246 C 0.87835 0.8918 0.52107 0.0
C247 C 0.82997 0.83607 0.51176 0.0
C248 C 0.75534 0.83984 0.51854 0.0
C249 C 0.7136 0.78187 0.52021 0.0
C250 C 0.63972 0.78689 0.52831 0.0
C251 C 0.60805 0.84768 0.53411 0.0
C252 C 0.6488 0.90454 0.53187 0.0
C253 C 0.72161 0.90089 0.5241 0.0
H254 H 0.70748 0.32846 0.53015 0.0
C255 C 0.67672 0.33453 0.50786 0.0
H256 H 0.66512 0.30587 0.4594 0.0
H257 H 0.98267 0.21008 0.43917 0.0
H258 H 0.98103 0.3108 0.40953 0.0
H259 H 0.87782 0.38702 0.41291 0.0
H260 H 0.77581 0.363 0.44597 0.0
C261 C 0.69409 0.29858 0.48204 0.0
C262 C 0.75829 0.25413 0.48215 0.0
C263 C 0.81707 0.26845 0.46232 0.0
C264 C 0.87603 0.22403 0.45993 0.0
C265 C 0.93508 0.24071 0.44077 0.0
C266 C 0.93525 0.29879 0.42393 0.0
C267 C 0.87725 0.34176 0.4259 0.0
C268 C 0.81885 0.32717 0.44489 0.0
H269 H 0.89477 0.10544 0.42168 0.0
C270 C 0.93202 0.08646 0.4399 0.0
H271 H 0.96615 0.09553 0.48849 0.0
H272 H 0.65586 0.21168 0.52343 0.0
H273 H 0.66421 0.11644 0.55685 0.0
H274 H 0.76969 0.04275 0.55452 0.0
H275 H 0.86551 0.06198 0.51729 0.0
C276 C 0.9295 0.11222 0.46963 0.0
C277 C 0.87559 0.16456 0.47688 0.0
C278 C 0.82019 0.15298 0.49882 0.0
C279 C 0.7607 0.19711 0.50107 0.0
C280 C 0.70386 0.18176 0.52169 0.0
C281 C 0.70761 0.12678 0.54083 0.0
C282 C 0.76677 0.08501 0.53936 0.0
C283 C 0.82176 0.09694 0.51814 0.0
H284 H 0.34191 0.32465 0.54161 0.0
C285 C 0.35019 0.33865 0.51705 0.0
H286 H 0.31376 0.32577 0.46891 0.0
H287 H 0.20644 0.07429 0.5577 0.0
H288 H 0.3314 0.03954 0.55513 0.0
H289 H 0.42108 0.10512 0.52704 0.0
H290 H 0.38592 0.20681 0.50179 0.0
C291 C 0.30878 0.31107 0.49354 0.0
C292 C 0.25179 0.26304 0.50169 0.0
C293 C 0.27197 0.20197 0.5147 0.0
C294 C 0.21942 0.16276 0.52958 0.0
C295 C 0.24279 0.10474 0.54474 0.0
C296 C 0.31477 0.08437 0.54368 0.0
C297 C 0.36532 0.12138 0.52797 0.0
C298 C 0.34455 0.17971 0.51373 0.0
H299 H 0.09105 0.06241 0.52211 0.0
C300 C 0.06984 0.08768 0.54292 0.0
H301 H 0.06763 0.17792 0.56833 0.0
H302 H 0.19383 0.37238 0.47441 0.0
H303 H 0.06681 0.40407 0.47321 0.0
H304 H 0.97461 0.33461 0.4974 0.0
H305 H 0.00846 0.23253 0.52244 0.0
C306 C 0.09223 0.14919 0.54953 0.0
C307 C 0.14594 0.18353 0.52996 0.0
C308 C 0.12479 0.24161 0.5142 0.0
C309 C 0.17783 0.28149 0.50009 0.0
C310 C 0.1556 0.34032 0.48546 0.0
C311 C 0.08294 0.35902 0.48457 0.0
C312 C 0.03102 0.31991 0.4982 0.0
C313 C 0.05125 0.26163 0.51267 0.0
H314 H 0.35504 0.66166 0.53027 0.0
C315 C 0.36054 0.636 0.5075 0.0
H316 H 0.33167 0.63419 0.45845 0.0
H317 H 0.08832 0.83984 0.52013 0.0
H318 H 0.04729 0.74881 0.55152 0.0
H319 H 0.11131 0.64291 0.5501 0.0
H320 H 0.218 0.62797 0.51825 0.0
C321 C 0.32454 0.65811 0.48154 0.0
C322 C 0.2834 0.72096 0.48238 0.0
C323 C 0.21933 0.72775 0.50019 0.0
C324 C 0.18001 0.78768 0.49973 0.0
C325 C 0.11847 0.79451 0.51888 0.0
C326 C 0.0947 0.74286 0.53711 0.0
C327 C 0.13086 0.68329 0.53636 0.0
C328 C 0.19234 0.67547 0.5181 0.0
H329 H 0.07562 0.8403 0.44969 0.0
C330 C 0.0935 0.88941 0.45655 0.0
H331 H 0.1763 0.94584 0.47894 0.0
H332 H 0.40794 0.7272 0.44844 0.0
H333 H 0.44814 0.81825 0.41725 0.0
H334 H 0.37612 0.91959 0.414 0.0
H335 H 0.26411 0.93085 0.44222 0.0
C336 C 0.15454 0.89698 0.47447 0.0
C337 C 0.20249 0.8394 0.48025 0.0
C338 C 0.26782 0.8335 0.46337 0.0
C339 C 0.30851 0.77447 0.46463 0.0
C340 C 0.37405 0.77034 0.44786 0.0
C341 C 0.39796 0.82235 0.42991 0.0
C342 C 0.35748 0.87942 0.42812 0.0
C343 C 0.29314 0.88519 0.44452 0.0
H344 H 0.97749 0.01038 0.18447 0.0
C345 C 0.02976 0.00376 0.17343 0.0
H346 H 0.14181 0.98624 0.18313 0.0
H347 H 0.11196 0.1133 0.32248 0.0
H348 H 0.18669 0.19436 0.29737 0.0
H349 H 0.21391 0.18462 0.24015 0.0
H350 H 0.16667 0.09371 0.20768 0.0
C351 C 0.08826 0.99355 0.19256 0.0
C352 C 0.08063 0.99423 0.22774 0.0
C353 C 0.10991 0.04694 0.24639 0.0
C354 C 0.09432 0.05252 0.27934 0.0
C355 C 0.12259 0.10651 0.29736 0.0
C356 C 0.16542 0.15343 0.28324 0.0
C357 C 0.18072 0.14796 0.25102 0.0
C358 C 0.15327 0.09555 0.23265 0.0
H359 H 0.12534 0.96839 0.3446 0.0
C360 C 0.07426 0.99123 0.35081 0.0
H361 H 0.97621 0.03116 0.3321 0.0
H362 H 0.02681 0.88127 0.19986 0.0
H363 H 0.95365 0.79938 0.22516 0.0
H364 H 0.92336 0.81092 0.28198 0.0
H365 H 0.96654 0.90416 0.31388 0.0
C366 C 0.02997 0.01263 0.32727 0.0
C367 C 0.04996 0.00511 0.29344 0.0
C368 C 0.02336 0.95086 0.27514 0.0
C369 C 0.03955 0.94491 0.2423 0.0
C370 C 0.01424 0.88919 0.2247 0.0
C371 C 0.97266 0.84158 0.23899 0.0
C372 C 0.9557 0.84803 0.27099 0.0
C373 C 0.98073 0.90184 0.289 0.0
H374 H 0.05142 0.05484 0.81231 0.0
C375 C 0.999 0.04171 0.82165 0.0
H376 H 0.8893 0.02028 0.80846 0.0
H377 H 0.90785 0.17262 0.67807 0.0
H378 H 0.82698 0.24345 0.70765 0.0
H379 H 0.80334 0.22342 0.76432 0.0
H380 H 0.86023 0.13242 0.79177 0.0
C381 C 0.94289 0.0335 0.80078 0.0
C382 C 0.95326 0.04284 0.76611 0.0
C383 C 0.91906 0.09589 0.75044 0.0
C384 C 0.93237 0.10729 0.71775 0.0
C385 C 0.89862 0.16126 0.70275 0.0
C386 C 0.85242 0.20243 0.71949 0.0
C387 C 0.83916 0.19119 0.75141 0.0
C388 C 0.87211 0.13875 0.76687 0.0
H389 H 0.8854 0.0366 0.65486 0.0
C390 C 0.93673 0.05253 0.64541 0.0
H391 H 0.04327 0.08383 0.65801 0.0
H392 H 0.01957 0.93116 0.78771 0.0
H393 H 0.10027 0.86078 0.75817 0.0
H394 H 0.12749 0.8834 0.70213 0.0
H395 H 0.07358 0.97617 0.67528 0.0
C396 C 0.98922 0.07309 0.66609 0.0
C397 C 0.97954 0.06539 0.70086 0.0
C398 C 0.01361 0.0122 0.71648 0.0
C399 C 0.99938 1.00012 0.74898 0.0
C400 C 0.0307 0.9443 0.76345 0.0
C401 C 0.07664 0.90302 0.74666 0.0
C402 C 0.09183 0.91567 0.7151 0.0
C403 C 0.06056 0.96927 0.70001 0.0
H404 H 0.5939 0.51587 0.69408 0.0
C405 C 0.54202 0.50138 0.68308 0.0
H406 H 0.43722 0.46479 0.6923 0.0
H407 H 0.52072 0.36222 0.82937 0.0
H408 H 0.50428 0.26029 0.7995 0.0
H409 H 0.48563 0.25987 0.74092 0.0
H410 H 0.48293 0.3614 0.71188 0.0
C411 C 0.48799 0.48427 0.70215 0.0
C412 C 0.49855 0.48508 0.73748 0.0
C413 C 0.50023 0.42523 0.75403 0.0
C414 C 0.51195 0.42541 0.78772 0.0
C415 C 0.5128 0.36494 0.80373 0.0
C416 C 0.50332 0.30603 0.78688 0.0
C417 C 0.49274 0.3058 0.75391 0.0
C418 C 0.4912 0.3645 0.73754 0.0
H419 H 0.43867 0.5341 0.85041 0.0
C420 C 0.4868 0.50997 0.86012 0.0
H421 H 0.58466 0.46186 0.84882 0.0
H422 H 0.48977 0.6089 0.71358 0.0
H423 H 0.51099 0.71055 0.74308 0.0
H424 H 0.54092 0.71037 0.80088 0.0
H425 H 0.5483 0.60871 0.82959 0.0
C426 C 0.53516 0.48475 0.83991 0.0
C427 C 0.5222 0.4854 0.80475 0.0
C428 C 0.52123 0.5453 0.78816 0.0
C429 C 0.50758 0.54522 0.75457 0.0
C430 C 0.50283 0.60588 0.73885 0.0
C431 C 0.51446 0.66468 0.75553 0.0
C432 C 0.53103 0.6646 0.78809 0.0
C433 C 0.53457 0.6058 0.80433 0.0
H434 H 0.55375 0.46493 0.31844 0.0
C435 C 0.50557 0.48416 0.3297 0.0
H436 H 0.41001 0.53973 0.32186 0.0
H437 H 0.52252 0.66682 0.19587 0.0
H438 H 0.51504 0.76134 0.23159 0.0
H439 H 0.48685 0.74819 0.28834 0.0
H440 H 0.4654 0.64066 0.3097 0.0
C441 C 0.45617 0.51554 0.31137 0.0
C442 C 0.46808 0.52379 0.27665 0.0
C443 C 0.48063 0.58709 0.26462 0.0
C444 C 0.49776 0.59469 0.23199 0.0
C445 C 0.50973 0.65838 0.22051 0.0
C446 C 0.50563 0.713 0.24075 0.0
C447 C 0.48972 0.70559 0.2727 0.0
C448 C 0.47744 0.64353 0.28464 0.0
H449 H 0.41537 0.51664 0.16163 0.0
C450 C 0.46884 0.53217 0.15442 0.0
H451 H 0.57389 0.56044 0.1712 0.0
H452 H 0.43561 0.39676 0.29058 0.0
H453 H 0.44804 0.30201 0.25554 0.0
H454 H 0.48946 0.31407 0.20048 0.0
H455 H 0.51688 0.42092 0.17997 0.0
C456 C 0.51905 0.54705 0.17726 0.0
C457 C 0.50261 0.53907 0.21154 0.0
C458 C 0.49065 0.47564 0.22365 0.0
C459 C 0.47098 0.46825 0.25593 0.0
C460 C 0.45426 0.40488 0.26674 0.0
C461 C 0.4606 0.35008 0.24679 0.0
C462 C 0.48359 0.3569 0.21577 0.0
C463 C 0.49859 0.41873 0.20421 0.0
loop_
_geom_bond_atom_site_label_1
_geom_bond_atom_site_label_2
_geom_bond_distance
_geom_bond_site_symmetry_2
_ccdc_geom_bond_type
C0 O16 1.251 . S
C0 O18 1.254 1_554 S
N1 C2 1.333 1_445 S
N1 C6 1.307 . S
N1 Zn7 2.020 . S
C2 N1 1.333 1_665 S
C2 C3 1.379 . S
C2 H20 0.952 . S
C3 C2 1.379 . S
C3 C4 1.390 1_665 S
C3 H30 0.949 . S
C4 C3 1.390 1_445 S
C4 C5 1.357 . S
C5 C4 1.357 . S
C5 C6 1.370 . S
C5 H31 0.950 . S
C6 N1 1.307 . S
C6 C5 1.370 . S
C6 H24 0.948 . S
Zn7 N1 2.020 . S
Zn7 O16 2.039 1_445 S
Zn7 O22 2.034 1_455 S
Zn7 O26 2.025 . S
Zn7 O28 2.024 1_545 S
C8 O27 1.246 1_554 S
C8 O28 1.249 . S
N9 C10 1.307 1_445 S
N9 C11 1.333 . S
N9 Zn15 2.020 . S
C10 N9 1.307 1_665 S
C10 C14 1.370 . S
C10 H21 0.948 . S
C11 N9 1.333 . S
C11 C12 1.379 . S
C11 H19 0.952 . S
C12 C11 1.379 . S
C12 C13 1.390 . S
C12 H32 0.949 . S
C13 C12 1.390 . S
C13 C14 1.357 1_445 S
C14 C10 1.370 . S
C14 C13 1.357 1_665 S
C14 H33 0.950 . S
Zn15 N9 2.020 . S
Zn15 O18 2.025 1_445 S
Zn15 O23 2.024 1_455 S
Zn15 O25 2.039 . S
Zn15 O27 2.034 1_545 S
O16 C0 1.251 . S
O16 Zn7 2.039 1_665 S
C17 O22 1.246 . S
C17 O23 1.249 1_554 S
O18 C0 1.254 1_556 S
O18 Zn15 2.025 1_665 S
H19 C11 0.952 . S
H20 C2 0.952 . S
H21 C10 0.948 . S
O22 Zn7 2.034 1_655 S
O22 C17 1.246 . S
O23 Zn15 2.024 1_655 S
O23 C17 1.249 1_556 S
H24 C6 0.948 . S
O25 Zn15 2.039 . S
O25 C29 1.251 1_556 S
O26 Zn7 2.025 . S
O26 C29 1.254 . S
O27 C8 1.246 1_556 S
O27 Zn15 2.034 1_565 S
O28 Zn7 2.024 1_565 S
O28 C8 1.249 . S
C29 O25 1.251 1_554 S
C29 O26 1.254 . S
H30 C3 0.949 . S
H31 C5 0.950 . S
H32 C12 0.949 . S
H33 C14 0.950 . S
C34 O50 1.251 . S
C34 O52 1.254 . S
N35 C36 1.333 . S
N35 C40 1.307 . S
N35 Zn41 2.020 . S
C36 N35 1.333 . S
C36 C37 1.379 . S
C36 H54 0.952 . S
C37 C36 1.379 . S
C37 C38 1.390 . S
C37 H64 0.949 . S
C38 C37 1.390 . S
C38 C39 1.357 . S
C39 C38 1.357 . S
C39 C40 1.370 . S
C39 H65 0.950 . S
C40 N35 1.307 . S
C40 C39 1.370 . S
C40 H58 0.948 . S
Zn41 N35 2.020 . S
Zn41 O50 2.039 . S
Zn41 O56 2.034 . S
Zn41 O60 2.025 . S
Zn41 O62 2.024 . S
C42 O61 1.246 . S
C42 O62 1.249 . S
N43 C44 1.307 . S
N43 C45 1.333 . S
N43 Zn49 2.020 . S
C44 N43 1.307 . S
C44 C48 1.370 . S
C44 H55 0.948 . S
C45 N43 1.333 . S
C45 C46 1.379 . S
C45 H53 0.952 . S
C46 C45 1.379 . S
C46 C47 1.390 . S
C46 H66 0.949 . S
C47 C46 1.390 . S
C47 C48 1.357 . S
C48 C44 1.370 . S
C48 C47 1.357 . S
C48 H67 0.950 . S
Zn49 N43 2.020 . S
Zn49 O52 2.025 . S
Zn49 O57 2.024 . S
Zn49 O59 2.039 . S
Zn49 O61 2.034 . S
O50 C34 1.251 . S
O50 Zn41 2.039 . S
C51 O56 1.246 . S
C51 O57 1.249 . S
O52 C34 1.254 . S
O52 Zn49 2.025 . S
H53 C45 0.952 . S
H54 C36 0.952 . S
H55 C44 0.948 . S
O56 Zn41 2.034 . S
O56 C51 1.246 . S
O57 Zn49 2.024 . S
O57 C51 1.249 . S
H58 C40 0.948 . S
O59 Zn49 2.039 . S
O59 C63 1.251 . S
O60 Zn41 2.025 . S
O60 C63 1.254 . S
O61 C42 1.246 . S
O61 Zn49 2.034 . S
O62 Zn41 2.024 . S
O62 C42 1.249 . S
C63 O59 1.251 . S
C63 O60 1.254 . S
H64 C37 0.949 . S
H65 C39 0.950 . S
H66 C46 0.949 . S
H67 C48 0.950 . S
H68 C71 0.931 . S
H69 C74 0.928 . S
H70 C76 0.930 . S
C71 H68 0.931 . S
C71 C72 1.413 . S
C71 C73 1.368 1_545 S
C72 C71 1.413 . S
C72 C76 1.429 1_645 S
C73 C71 1.368 1_565 S
C73 C74 1.365 1_655 S
C74 H69 0.928 . S
C74 C73 1.365 1_455 S
C74 C75 1.404 . S
C75 C74 1.404 . S
C75 C76 1.391 . S
C76 H70 0.930 . S
C76 C72 1.429 1_465 S
C76 C75 1.391 . S
H77 C80 0.931 . S
H78 C83 0.928 . S
H79 C85 0.930 . S
C80 H77 0.931 . S
C80 C81 1.413 . S
C80 C82 1.360 1_665 S
C81 C80 1.413 . S
C81 C85 1.429 1_665 S
C82 C80 1.360 1_445 S
C82 C83 1.372 . S
C83 H78 0.928 . S
C83 C82 1.372 . S
C83 C84 1.404 . S
C84 C83 1.404 . S
C84 C85 1.391 . S
C85 H79 0.930 . S
C85 C81 1.429 1_445 S
C85 C84 1.391 . S
H86 C89 0.931 . S
H87 C92 0.928 . S
H88 C94 0.936 . S
C89 H86 0.931 . S
C89 C90 1.413 . S
C89 C91 1.360 . S
C90 C89 1.413 . S
C90 C94 1.429 . S
C91 C89 1.360 . S
C91 C92 1.372 . S
C92 H87 0.928 . S
C92 C91 1.372 . S
C92 C93 1.404 . S
C93 C92 1.404 . S
C93 C94 1.391 . S
C94 H88 0.936 . S
C94 C90 1.429 . S
C94 C93 1.391 . S
H95 C98 0.931 . S
H96 C101 0.928 . S
H97 C103 0.930 . S
C98 H95 0.931 . S
C98 C99 1.413 . S
C98 C100 1.360 . S
C99 C98 1.413 . S
C99 C103 1.429 . S
C100 C98 1.360 . S
C100 C101 1.372 . S
C101 H96 0.928 . S
C101 C100 1.372 . S
C101 C102 1.404 . S
C102 C101 1.404 . S
C102 C103 1.391 . S
C103 H97 0.930 . S
C103 C99 1.429 . S
C103 C102 1.391 . S
H104 C105 0.951 1_556 S
C105 H104 0.951 1_554 S
C105 C111 1.265 . S
H106 C111 0.950 . S
H107 C115 0.949 . S
H108 C116 0.950 . S
H109 C117 0.951 . S
H110 C118 0.951 . S
C111 C105 1.265 . S
C111 H106 0.950 . S
C111 C112 1.478 . S
C112 C111 1.478 . S
C112 C113 1.397 . S
C112 C129 1.394 . S
C113 C112 1.397 . S
C113 C114 1.438 . S
C113 C118 1.429 . S
C114 C113 1.438 . S
C114 C115 1.428 . S
C114 C127 1.394 . S
C115 H107 0.949 . S
C115 C114 1.428 . S
C115 C116 1.345 . S
C116 H108 0.950 . S
C116 C115 1.345 . S
C116 C117 1.424 . S
C117 H109 0.951 . S
C117 C116 1.424 . S
C117 C118 1.347 . S
C118 H110 0.951 . S
C118 C113 1.429 . S
C118 C117 1.347 . S
H119 C120 0.951 . S
C120 H119 0.951 . S
C120 C126 1.265 . S
H121 C126 0.950 . S
H122 C130 0.949 . S
H123 C131 0.950 . S
H124 C132 0.951 . S
H125 C133 0.951 . S
C126 C120 1.265 . S
C126 H121 0.950 . S
C126 C127 1.478 . S
C127 C114 1.394 . S
C127 C126 1.478 . S
C127 C128 1.397 . S
C128 C127 1.397 . S
C128 C129 1.438 . S
C128 C133 1.429 . S
C129 C112 1.394 . S
C129 C128 1.438 . S
C129 C130 1.428 . S
C130 H122 0.949 . S
C130 C129 1.428 . S
C130 C131 1.345 . S
C131 H123 0.950 . S
C131 C130 1.345 . S
C131 C132 1.424 . S
C132 H124 0.951 . S
C132 C131 1.424 . S
C132 C133 1.347 . S
C133 H125 0.951 . S
C133 C128 1.429 . S
C133 C132 1.347 . S
H134 C135 0.933 1_556 S
C135 H134 0.933 1_554 S
C135 C141 1.273 . S
H136 C141 0.950 . S
H137 C145 0.949 . S
H138 C146 0.950 . S
H139 C147 0.951 . S
H140 C148 0.951 . S
C141 C135 1.273 . S
C141 H136 0.950 . S
C141 C142 1.470 1_554 S
C142 C141 1.470 1_556 S
C142 C143 1.383 1_556 S
C142 C159 1.416 . S
C143 C142 1.383 1_554 S
C143 C144 1.438 . S
C143 C148 1.429 . S
C144 C143 1.438 . S
C144 C145 1.428 . S
C144 C157 1.394 1_554 S
C145 H137 0.949 . S
C145 C144 1.428 . S
C145 C146 1.345 . S
C146 H138 0.950 . S
C146 C145 1.345 . S
C146 C147 1.424 . S
C147 H139 0.951 . S
C147 C146 1.424 . S
C147 C148 1.347 . S
C148 H140 0.951 . S
C148 C143 1.429 . S
C148 C147 1.347 . S
H149 C150 0.951 . S
C150 H149 0.951 . S
C150 C156 1.265 . S
H151 C156 0.950 . S
H152 C160 0.949 . S
H153 C161 0.950 . S
H154 C162 0.951 . S
H155 C163 0.951 . S
C156 C150 1.265 . S
C156 H151 0.950 . S
C156 C157 1.478 . S
C157 C144 1.394 1_556 S
C157 C156 1.478 . S
C157 C158 1.397 . S
C158 C157 1.397 . S
C158 C159 1.438 . S
C158 C163 1.429 . S
C159 C142 1.416 . S
C159 C158 1.438 . S
C159 C160 1.428 . S
C160 H152 0.949 . S
C160 C159 1.428 . S
C160 C161 1.345 . S
C161 H153 0.950 . S
C161 C160 1.345 . S
C161 C162 1.424 . S
C162 H154 0.951 . S
C162 C161 1.424 . S
C162 C163 1.347 . S
C163 H155 0.951 . S
C163 C158 1.429 . S
C163 C162 1.347 . S
H164 C165 0.951 . S
C165 H164 0.951 . S
C165 C171 1.265 . S
H166 C171 0.950 . S
H167 C175 0.949 . S
H168 C176 0.950 . S
H169 C177 0.951 . S
H170 C178 0.951 . S
C171 C165 1.265 . S
C171 H166 0.950 . S
C171 C172 1.478 . S
C172 C171 1.478 . S
C172 C173 1.397 . S
C172 C189 1.394 1_554 S
C173 C172 1.397 . S
C173 C174 1.438 . S
C173 C178 1.429 . S
C174 C173 1.438 . S
C174 C175 1.428 . S
C174 C187 1.394 . S
C175 H167 0.949 . S
C175 C174 1.428 . S
C175 C176 1.345 . S
C176 H168 0.950 . S
C176 C175 1.345 . S
C176 C177 1.424 . S
C177 H169 0.951 . S
C177 C176 1.424 . S
C177 C178 1.347 . S
C178 H170 0.951 . S
C178 C173 1.429 . S
C178 C177 1.347 . S
H179 C180 0.951 . S
C180 H179 0.951 . S
C180 C186 1.265 . S
H181 C186 0.950 . S
H182 C190 0.949 . S
H183 C191 0.950 . S
H184 C192 0.951 . S
H185 C193 0.951 . S
C186 C180 1.265 . S
C186 H181 0.950 . S
C186 C187 1.478 . S
C187 C174 1.394 . S
C187 C186 1.478 . S
C187 C188 1.408 . S
C188 C187 1.408 . S
C188 C189 1.436 1_554 S
C188 C193 1.419 1_554 S
C189 C172 1.394 1_556 S
C189 C188 1.436 1_556 S
C189 C190 1.428 . S
C190 H182 0.949 . S
C190 C189 1.428 . S
C190 C191 1.345 . S
C191 H183 0.950 . S
C191 C190 1.345 . S
C191 C192 1.424 . S
C192 H184 0.951 . S
C192 C191 1.424 . S
C192 C193 1.347 . S
C193 H185 0.951 . S
C193 C188 1.419 1_556 S
C193 C192 1.347 . S
H194 C195 0.951 . S
C195 H194 0.951 . S
C195 C201 1.265 1_554 S
H196 C201 0.950 . S
H197 C205 0.949 . S
H198 C206 0.950 . S
H199 C207 0.951 . S
H200 C208 0.951 . S
C201 C195 1.265 1_556 S
C201 H196 0.950 . S
C201 C202 1.478 . S
C202 C201 1.478 . S
C202 C203 1.397 . S
C202 C219 1.394 1_556 S
C203 C202 1.397 . S
C203 C204 1.438 . S
C203 C208 1.429 . S
C204 C203 1.438 . S
C204 C205 1.428 . S
C204 C217 1.394 . S
C205 H197 0.949 . S
C205 C204 1.428 . S
C205 C206 1.345 . S
C206 H198 0.950 . S
C206 C205 1.345 . S
C206 C207 1.424 . S
C207 H199 0.951 . S
C207 C206 1.424 . S
C207 C208 1.347 . S
C208 H200 0.951 . S
C208 C203 1.429 . S
C208 C207 1.347 . S
H209 C210 0.951 . S
C210 H209 0.951 . S
C210 C216 1.265 . S
H211 C216 0.950 . S
H212 C220 0.949 . S
H213 C221 0.950 . S
H214 C222 0.951 . S
H215 C223 0.951 . S
C216 C210 1.265 . S
C216 H211 0.950 . S
C216 C217 1.478 . S
C217 C204 1.394 . S
C217 C216 1.478 . S
C217 C218 1.397 1_556 S
C218 C217 1.397 1_554 S
C218 C219 1.438 . S
C218 C223 1.429 . S
C219 C202 1.394 1_554 S
C219 C218 1.438 . S
C219 C220 1.428 . S
C220 H212 0.949 . S
C220 C219 1.428 . S
C220 C221 1.345 . S
C221 H213 0.950 . S
C221 C220 1.345 . S
C221 C222 1.424 . S
C222 H214 0.951 . S
C222 C221 1.424 . S
C222 C223 1.347 . S
C223 H215 0.951 . S
C223 C218 1.429 . S
C223 C222 1.347 . S
H224 C225 0.951 . S
C225 H224 0.951 . S
C225 C231 1.265 . S
H226 C231 0.950 . S
H227 C235 0.949 . S
H228 C236 0.950 . S
H229 C237 0.951 . S
H230 C238 0.951 . S
C231 C225 1.265 . S
C231 H226 0.950 . S
C231 C232 1.478 . S
C232 C231 1.478 . S
C232 C233 1.397 . S
C232 C249 1.394 . S
C233 C232 1.397 . S
C233 C234 1.438 . S
C233 C238 1.429 . S
C234 C233 1.438 . S
C234 C235 1.428 . S
C234 C247 1.394 . S
C235 H227 0.949 . S
C235 C234 1.428 . S
C235 C236 1.345 . S
C236 H228 0.950 . S
C236 C235 1.345 . S
C236 C237 1.424 . S
C237 H229 0.951 . S
C237 C236 1.424 . S
C237 C238 1.347 . S
C238 H230 0.951 . S
C238 C233 1.429 . S
C238 C237 1.347 . S
H239 C240 0.951 . S
C240 H239 0.951 . S
C240 C246 1.265 . S
H241 C246 0.950 . S
H242 C250 0.949 . S
H243 C251 0.950 . S
H244 C252 0.951 . S
H245 C253 0.951 . S
C246 C240 1.265 . S
C246 H241 0.950 . S
C246 C247 1.478 . S
C247 C234 1.394 . S
C247 C246 1.478 . S
C247 C248 1.397 . S
C248 C247 1.397 . S
C248 C249 1.438 . S
C248 C253 1.429 . S
C249 C232 1.394 . S
C249 C248 1.438 . S
C249 C250 1.428 . S
C250 H242 0.949 . S
C250 C249 1.428 . S
C250 C251 1.345 . S
C251 H243 0.950 . S
C251 C250 1.345 . S
C251 C252 1.424 . S
C252 H244 0.951 . S
C252 C251 1.424 . S
C252 C253 1.347 . S
C253 H245 0.951 . S
C253 C248 1.429 . S
C253 C252 1.347 . S
H254 C255 0.951 . S
C255 H254 0.951 . S
C255 C261 1.265 . S
H256 C261 0.950 . S
H257 C265 0.949 . S
H258 C266 0.950 . S
H259 C267 0.951 . S
H260 C268 0.951 . S
C261 C255 1.265 . S
C261 H256 0.950 . S
C261 C262 1.478 . S
C262 C261 1.478 . S
C262 C263 1.397 . S
C262 C279 1.394 . S
C263 C262 1.397 . S
C263 C264 1.438 . S
C263 C268 1.429 . S
C264 C263 1.438 . S
C264 C265 1.428 . S
C264 C277 1.394 . S
C265 H257 0.949 . S
C265 C264 1.428 . S
C265 C266 1.345 . S
C266 H258 0.950 . S
C266 C265 1.345 . S
C266 C267 1.424 . S
C267 H259 0.951 . S
C267 C266 1.424 . S
C267 C268 1.347 . S
C268 H260 0.951 . S
C268 C263 1.429 . S
C268 C267 1.347 . S
H269 C270 0.951 . S
C270 H269 0.951 . S
C270 C276 1.265 . S
H271 C276 0.950 . S
H272 C280 0.949 . S
H273 C281 0.950 . S
H274 C282 0.951 . S
H275 C283 0.951 . S
C276 C270 1.265 . S
C276 H271 0.950 . S
C276 C277 1.478 . S
C277 C264 1.394 . S
C277 C276 1.478 . S
C277 C278 1.397 . S
C278 C277 1.397 . S
C278 C279 1.438 . S
C278 C283 1.429 . S
C279 C262 1.394 . S
C279 C278 1.438 . S
C279 C280 1.428 . S
C280 H272 0.949 . S
C280 C279 1.428 . S
C280 C281 1.345 . S
C281 H273 0.950 . S
C281 C280 1.345 . S
C281 C282 1.424 . S
C282 H274 0.951 . S
C282 C281 1.424 . S
C282 C283 1.347 . S
C283 H275 0.951 . S
C283 C278 1.429 . S
C283 C282 1.347 . S
H284 C285 0.951 . S
C285 H284 0.951 . S
C285 C291 1.265 . S
H286 C291 0.950 . S
H287 C295 0.949 . S
H288 C296 0.950 . S
H289 C297 0.951 . S
H290 C298 0.951 . S
C291 C285 1.265 . S
C291 H286 0.950 . S
C291 C292 1.478 . S
C292 C291 1.478 . S
C292 C293 1.397 . S
C292 C309 1.394 . S
C293 C292 1.397 . S
C293 C294 1.438 . S
C293 C298 1.429 . S
C294 C293 1.438 . S
C294 C295 1.428 . S
C294 C307 1.394 . S
C295 H287 0.949 . S
C295 C294 1.428 . S
C295 C296 1.345 . S
C296 H288 0.950 . S
C296 C295 1.345 . S
C296 C297 1.424 . S
C297 H289 0.951 . S
C297 C296 1.424 . S
C297 C298 1.347 . S
C298 H290 0.951 . S
C298 C293 1.429 . S
C298 C297 1.347 . S
H299 C300 0.951 . S
C300 H299 0.951 . S
C300 C306 1.265 . S
H301 C306 0.950 . S
H302 C310 0.949 . S
H303 C311 0.950 . S
H304 C312 0.951 . S
H305 C313 0.951 . S
C306 C300 1.265 . S
C306 H301 0.950 . S
C306 C307 1.478 . S
C307 C294 1.394 . S
C307 C306 1.478 . S
C307 C308 1.397 . S
C308 C307 1.397 . S
C308 C309 1.438 . S
C308 C313 1.429 . S
C309 C292 1.394 . S
C309 C308 1.438 . S
C309 C310 1.428 . S
C310 H302 0.949 . S
C310 C309 1.428 . S
C310 C311 1.345 . S
C311 H303 0.950 . S
C311 C310 1.345 . S
C311 C312 1.424 . S
C312 H304 0.951 . S
C312 C311 1.424 . S
C312 C313 1.347 . S
C313 H305 0.951 . S
C313 C308 1.429 . S
C313 C312 1.347 . S
H314 C315 0.951 . S
C315 H314 0.951 . S
C315 C321 1.265 . S
H316 C321 0.950 . S
H317 C325 0.949 . S
H318 C326 0.950 . S
H319 C327 0.951 . S
H320 C328 0.951 . S
C321 C315 1.265 . S
C321 H316 0.950 . S
C321 C322 1.478 . S
C322 C321 1.478 . S
C322 C323 1.397 . S
C322 C339 1.394 . S
C323 C322 1.397 . S
C323 C324 1.438 . S
C323 C328 1.429 . S
C324 C323 1.438 . S
C324 C325 1.428 . S
C324 C337 1.394 . S
C325 H317 0.949 . S
C325 C324 1.428 . S
C325 C326 1.345 . S
C326 H318 0.950 . S
C326 C325 1.345 . S
C326 C327 1.424 . S
C327 H319 0.951 . S
C327 C326 1.424 . S
C327 C328 1.347 . S
C328 H320 0.951 . S
C328 C323 1.429 . S
C328 C327 1.347 . S
H329 C330 0.951 . S
C330 H329 0.951 . S
C330 C336 1.265 . S
H331 C336 0.950 . S
H332 C340 0.949 . S
H333 C341 0.950 . S
H334 C342 0.951 . S
H335 C343 0.951 . S
C336 C330 1.265 . S
C336 H331 0.950 . S
C336 C337 1.478 . S
C337 C324 1.394 . S
C337 C336 1.478 . S
C337 C338 1.397 . S
C338 C337 1.397 . S
C338 C339 1.438 . S
C338 C343 1.429 . S
C339 C322 1.394 . S
C339 C338 1.438 . S
C339 C340 1.428 . S
C340 H332 0.949 . S
C340 C339 1.428 . S
C340 C341 1.345 . S
C341 H333 0.950 . S
C341 C340 1.345 . S
C341 C342 1.424 . S
C342 H334 0.951 . S
C342 C341 1.424 . S
C342 C343 1.347 . S
C343 H335 0.951 . S
C343 C338 1.429 . S
C343 C342 1.347 . S
H344 C345 0.951 . S
C345 H344 0.951 . S
C345 C351 1.265 1_655 S
H346 C351 0.950 . S
H347 C355 0.949 . S
H348 C356 0.950 . S
H349 C357 0.951 . S
H350 C358 0.951 . S
C351 C345 1.265 1_455 S
C351 H346 0.950 . S
C351 C352 1.478 . S
C352 C351 1.478 . S
C352 C353 1.397 . S
C352 C369 1.394 1_445 S
C353 C352 1.397 . S
C353 C354 1.438 . S
C353 C358 1.429 . S
C354 C353 1.438 . S
C354 C355 1.428 . S
C354 C367 1.394 1_455 S
C355 H347 0.949 . S
C355 C354 1.428 . S
C355 C356 1.345 . S
C356 H348 0.950 . S
C356 C355 1.345 . S
C356 C357 1.424 . S
C357 H349 0.951 . S
C357 C356 1.424 . S
C357 C358 1.347 . S
C358 H350 0.951 . S
C358 C353 1.429 . S
C358 C357 1.347 . S
H359 C360 0.951 . S
C360 H359 0.951 . S
C360 C366 1.265 1_445 S
H361 C366 0.951 . S
H362 C370 0.949 . S
H363 C371 0.950 . S
H364 C372 0.951 . S
H365 C373 0.951 . S
C366 C360 1.265 1_665 S
C366 H361 0.951 . S
C366 C367 1.477 1_565 S
C367 C354 1.394 1_655 S
C367 C366 1.477 1_545 S
C367 C368 1.397 1_545 S
C368 C367 1.397 1_565 S
C368 C369 1.438 . S
C368 C373 1.429 . S
C369 C352 1.394 1_665 S
C369 C368 1.438 . S
C369 C370 1.428 . S
C370 H362 0.949 . S
C370 C369 1.428 . S
C370 C371 1.345 . S
C371 H363 0.950 . S
C371 C370 1.345 . S
C371 C372 1.424 . S
C372 H364 0.951 . S
C372 C371 1.424 . S
C372 C373 1.347 . S
C373 H365 0.951 . S
C373 C368 1.429 . S
C373 C372 1.347 . S
H374 C375 0.951 . S
C375 H374 0.951 . S
C375 C381 1.265 1_445 S
H376 C381 0.950 . S
H377 C385 0.949 . S
H378 C386 0.950 . S
H379 C387 0.951 . S
H380 C388 0.951 . S
C381 C375 1.265 1_665 S
C381 H376 0.950 . S
C381 C382 1.478 1_655 S
C382 C381 1.478 1_455 S
C382 C383 1.397 1_465 S
C382 C399 1.394 . S
C383 C382 1.397 1_645 S
C383 C384 1.438 . S
C383 C388 1.429 . S
C384 C383 1.438 . S
C384 C385 1.428 . S
C384 C397 1.394 1_655 S
C385 H377 0.949 . S
C385 C384 1.428 . S
C385 C386 1.345 . S
C386 H378 0.950 . S
C386 C385 1.345 . S
C386 C387 1.424 . S
C387 H379 0.951 . S
C387 C386 1.424 . S
C387 C388 1.347 . S
C388 H380 0.951 . S
C388 C383 1.429 . S
C388 C387 1.347 . S
H389 C390 0.951 1_665 S
C390 H389 0.951 1_445 S
C390 C396 1.265 . S
H391 C396 0.950 . S
H392 C400 0.949 . S
H393 C401 0.950 . S
H394 C402 0.951 . S
H395 C403 0.951 . S
C396 C390 1.265 . S
C396 H391 0.950 . S
C396 C397 1.478 . S
C397 C384 1.394 1_455 S
C397 C396 1.478 . S
C397 C398 1.395 1_545 S
C398 C397 1.395 1_565 S
C398 C399 1.439 . S
C398 C403 1.430 . S
C399 C382 1.394 . S
C399 C398 1.439 . S
C399 C400 1.428 . S
C400 H392 0.949 . S
C400 C399 1.428 . S
C400 C401 1.345 . S
C401 H393 0.950 . S
C401 C400 1.345 . S
C401 C402 1.424 . S
C402 H394 0.951 . S
C402 C401 1.424 . S
C402 C403 1.347 . S
C403 H395 0.951 . S
C403 C398 1.430 . S
C403 C402 1.347 . S
H404 C405 0.951 . S
C405 H404 0.951 . S
C405 C411 1.265 . S
H406 C411 0.950 . S
H407 C415 0.949 . S
H408 C416 0.950 . S
H409 C417 0.951 . S
H410 C418 0.951 . S
C411 C405 1.265 . S
C411 H406 0.950 . S
C411 C412 1.478 . S
C412 C411 1.478 . S
C412 C413 1.397 . S
C412 C429 1.394 . S
C413 C412 1.397 . S
C413 C414 1.438 . S
C413 C418 1.429 . S
C414 C413 1.438 . S
C414 C415 1.428 . S
C414 C427 1.394 . S
C415 H407 0.949 . S
C415 C414 1.428 . S
C415 C416 1.345 . S
C416 H408 0.950 . S
C416 C415 1.345 . S
C416 C417 1.424 . S
C417 H409 0.951 . S
C417 C416 1.424 . S
C417 C418 1.347 . S
C418 H410 0.951 . S
C418 C413 1.429 . S
C418 C417 1.347 . S
H419 C420 0.951 . S
C420 H419 0.951 . S
C420 C426 1.265 . S
H421 C426 0.950 . S
H422 C430 0.949 . S
H423 C431 0.950 . S
H424 C432 0.951 . S
H425 C433 0.951 . S
C426 C420 1.265 . S
C426 H421 0.950 . S
C426 C427 1.478 . S
C427 C414 1.394 . S
C427 C426 1.478 . S
C427 C428 1.397 . S
C428 C427 1.397 . S
C428 C429 1.438 . S
C428 C433 1.429 . S
C429 C412 1.394 . S
C429 C428 1.438 . S
C429 C430 1.428 . S
C430 H422 0.949 . S
C430 C429 1.428 . S
C430 C431 1.345 . S
C431 H423 0.950 . S
C431 C430 1.345 . S
C431 C432 1.424 . S
C432 H424 0.951 . S
C432 C431 1.424 . S
C432 C433 1.347 . S
C433 H425 0.951 . S
C433 C428 1.429 . S
C433 C432 1.347 . S
H434 C435 0.951 . S
C435 H434 0.951 . S
C435 C441 1.265 . S
H436 C441 0.950 . S
H437 C445 0.949 . S
H438 C446 0.950 . S
H439 C447 0.951 . S
H440 C448 0.951 . S
C441 C435 1.265 . S
C441 H436 0.950 . S
C441 C442 1.478 . S
C442 C441 1.478 . S
C442 C443 1.397 . S
C442 C459 1.394 . S
C443 C442 1.397 . S
C443 C444 1.438 . S
C443 C448 1.429 . S
C444 C443 1.438 . S
C444 C445 1.428 . S
C444 C457 1.394 . S
C445 H437 0.949 . S
C445 C444 1.428 . S
C445 C446 1.345 . S
C446 H438 0.950 . S
C446 C445 1.345 . S
C446 C447 1.424 . S
C447 H439 0.951 . S
C447 C446 1.424 . S
C447 C448 1.347 . S
C448 H440 0.951 . S
C448 C443 1.429 . S
C448 C447 1.347 . S
H449 C450 0.951 . S
C450 H449 0.951 . S
C450 C456 1.265 . S
H451 C456 0.950 . S
H452 C460 0.949 . S
H453 C461 0.950 . S
H454 C462 0.951 . S
H455 C463 0.951 . S
C456 C450 1.265 . S
C456 H451 0.950 . S
C456 C457 1.478 . S
C457 C444 1.394 . S
C457 C456 1.478 . S
C457 C458 1.397 . S
C458 C457 1.397 . S
C458 C459 1.438 . S
C458 C463 1.429 . S
C459 C442 1.394 . S
C459 C458 1.438 . S
C459 C460 1.428 . S
C460 H452 0.949 . S
C460 C459 1.428 . S
C460 C461 1.345 . S
C461 H453 0.950 . S
C461 C460 1.345 . S
C461 C462 1.424 . S
C462 H454 0.951 . S
C462 C461 1.424 . S
C462 C463 1.347 . S
C463 H455 0.951 . S
C463 C458 1.429 . S
C463 C462 1.347 . S
C120 C99 1.312 . S
C105 C29 1.369 . S
C135 C8 1.356 . S
C150 C90 1.366 . S
C165 C0 1.356 . S
C180 C102 1.337 . S
C195 C17 1.340 . S
C210 C93 1.328 . S
C225 C63 1.361 . S
C240 C81 1.330 . S
C255 C42 1.355 . S
C270 C72 1.331 . S
C300 C84 1.350 . S
C285 C34 1.350 . S
C330 C75 1.309 . S
C315 C51 1.373 . S
C345 C4 1.485 1_655 S
C360 C73 1.477 1_445 S
C375 C13 1.487 . S
C390 C82 1.479 . S
C420 C91 1.481 . S
C405 C38 1.472 . S
C435 C47 1.483 . S
C450 C100 1.477 . S
