# Generated by pormake.
# Topology ftw, (4,12)-cn, num edge types: 1
# Building blocks:
#     Node 0, Type 0, BuildingBlock: MIFKUJ_clean_linker_1, # of connection points: 4
#     Node 1, Type 0, BuildingBlock: MIFKUJ_clean_linker_1, # of connection points: 4
#     Node 2, Type 0, BuildingBlock: MIFKUJ_clean_linker_1, # of connection points: 4
#     Node 3, Type 1, BuildingBlock: EZIPEK_clean_sbu_0, # of connection points: 12
#     Edge 4, Type (0, 1), BuildingBlock: KIFKEQ_clean_linker_1, # of connection points: 2
#     Edge 5, Type (0, 1), BuildingBlock: KIFKEQ_clean_linker_1, # of connection points: 2
#     Edge 6, Type (0, 1), BuildingBlock: KIFKEQ_clean_linker_1, # of connection points: 2
#     Edge 7, Type (0, 1), BuildingBlock: KIFKEQ_clean_linker_1, # of connection points: 2
#     Edge 8, Type (0, 1), BuildingBlock: KIFKEQ_clean_linker_1, # of connection points: 2
#     Edge 9, Type (0, 1), BuildingBlock: KIFKEQ_clean_linker_1, # of connection points: 2
#     Edge 10, Type (0, 1), BuildingBlock: KIFKEQ_clean_linker_1, # of connection points: 2
#     Edge 11, Type (0, 1), BuildingBlock: KIFKEQ_clean_linker_1, # of connection points: 2
#     Edge 12, Type (0, 1), BuildingBlock: KIFKEQ_clean_linker_1, # of connection points: 2
#     Edge 13, Type (0, 1), BuildingBlock: KIFKEQ_clean_linker_1, # of connection points: 2
#     Edge 14, Type (0, 1), BuildingBlock: KIFKEQ_clean_linker_1, # of connection points: 2
#     Edge 15, Type (0, 1), BuildingBlock: KIFKEQ_clean_linker_1, # of connection points: 2
# Relax obj value: 0.048
# Max RMSD: 0.168
# Mean RMSD: 0.128
data_MOF--net-ftw--node1-EZIPEK_clean_sbu_0--node2-MIFKUJ_clean_linker_1--edge1-KIFKEQ_clean_linker_1
_symmetry_space_group_name_H-M    P1
_symmetry_Int_Tables_number       1
_symmetry_cell_setting            triclinic
loop_
_symmetry_equiv_pos_as_xyz
'x, y, z'
_cell_length_a     28.098152
_cell_length_b     29.249805
_cell_length_c     28.486985
_cell_angle_alpha  89.842642
_cell_angle_beta   89.821117
_cell_angle_gamma 90.018699
loop_
_atom_site_label
_atom_site_type_symbol
_atom_site_fract_x
_atom_site_fract_y
_atom_site_fract_z
_atom_type_partial_charge
H0 H 0.06527 0.59675 0.59211 0.0
H1 H 0.06585 0.65877 0.64924 0.0
H2 H 0.926 0.7003 0.60292 0.0
H3 H 0.92639 0.63882 0.5449 0.0
H4 H 0.00221 0.52794 0.59585 0.0
H5 H 0.05412 0.63397 0.4722 0.0
H6 H 0.05535 0.69638 0.41434 0.0
H7 H 0.91003 0.66542 0.37711 0.0
H8 H 0.90913 0.60323 0.43466 0.0
H9 H 0.91397 0.46783 0.4194 0.0
H10 H 0.91438 0.40678 0.36209 0.0
H11 H 0.03758 0.34746 0.42956 0.0
H12 H 0.03939 0.41125 0.48436 0.0
H13 H 0.97216 0.53042 0.42482 0.0
H14 H 0.91838 0.42515 0.54953 0.0
H15 H 0.91659 0.36297 0.60768 0.0
H16 H 0.06251 0.39225 0.64407 0.0
H17 H 0.06395 0.45422 0.58629 0.0
C18 C -0.00408 0.61312 0.56392 0.0
C19 C 0.0351 0.61977 0.59364 0.0
C20 C 0.03511 0.65503 0.62676 0.0
C21 C -0.00436 0.68435 0.63147 0.0
C22 C 0.95724 0.6788 0.60023 0.0
C23 C 0.95742 0.64362 0.56682 0.0
C24 C -0.00737 0.57081 0.53505 0.0
C25 C -0.00374 0.52842 0.55823 0.0
C26 C 0.9832 0.57136 0.48632 0.0
C27 C 0.98141 0.61412 0.45803 0.0
C28 C 0.0222 0.64137 0.45235 0.0
C29 C 0.02303 0.67665 0.41889 0.0
C30 C 0.98288 0.68568 0.39087 0.0
C31 C 0.94142 0.65965 0.39828 0.0
C32 C 0.94084 0.62407 0.43121 0.0
C33 C 0.97662 0.44463 0.45662 0.0
C34 C 0.94104 0.44159 0.42215 0.0
C35 C 0.94104 0.40605 0.3894 0.0
C36 C 0.9762 0.37173 0.39048 0.0
C37 C 0.01043 0.37353 0.4266 0.0
C38 C 0.01092 0.40971 0.45889 0.0
C39 C 0.98088 0.48705 0.48563 0.0
C40 C 0.97768 0.52962 0.46249 0.0
C41 C -0.00974 0.48663 0.53453 0.0
C42 C -0.00859 0.44413 0.56329 0.0
C43 C 0.95027 0.41746 0.56931 0.0
C44 C 0.94914 0.38229 0.60292 0.0
C45 C -0.01067 0.37283 0.63072 0.0
C46 C 0.03107 0.39836 0.62306 0.0
C47 C 0.03196 0.43381 0.59001 0.0
H48 H 0.42043 0.07783 0.42799 0.0
H49 H 0.36931 0.0789 0.35907 0.0
H50 H 0.39746 0.93528 0.33671 0.0
H51 H 0.4484 0.93434 0.40654 0.0
H52 H 0.39947 0.02699 0.50425 0.0
H53 H 0.52562 0.05098 0.40179 0.0
H54 H 0.58516 0.04621 0.33994 0.0
H55 H 0.62672 0.91241 0.3899 0.0
H56 H 0.56653 0.9174 0.45219 0.0
H57 H 0.54915 0.93582 0.60479 0.0
H58 H 0.60333 0.94416 0.6712 0.0
H59 H 0.57641 0.08962 0.67289 0.0
H60 H 0.52249 0.08108 0.60608 0.0
H61 H 0.56814 0.98022 0.52016 0.0
H62 H 0.44503 0.97463 0.63601 0.0
H63 H 0.38911 0.99531 0.69821 0.0
H64 H 0.34692 0.11487 0.61957 0.0
H65 H 0.40455 0.09544 0.55816 0.0
C66 C 0.43773 1.00595 0.42232 0.0
C67 C 0.41619 0.04677 0.40776 0.0
C68 C 0.38735 0.0474 0.36822 0.0
C69 C 0.37935 1.0071 0.34277 0.0
C70 C 0.40283 0.96668 0.35607 0.0
C71 C 0.43204 0.96615 0.39561 0.0
C72 C 0.46223 1.00436 0.46787 0.0
C73 C 0.43658 1.01732 0.50779 0.0
C74 C 0.51005 0.99061 0.47229 0.0
C75 C 0.54116 0.98421 0.43106 0.0
C76 C 0.54642 1.01996 0.39858 0.0
C77 C 0.58063 1.01727 0.36333 0.0
C78 C 0.61051 0.97891 0.36015 0.0
C79 C 0.60437 0.94251 0.39188 0.0
C80 C 0.56991 0.94518 0.42717 0.0
C81 C 0.53195 1.00781 0.60085 0.0
C82 C 0.55427 0.96931 0.62013 0.0
C83 C 0.58494 0.9741 0.65809 0.0
C84 C 0.59406 1.01757 0.67684 0.0
C85 C 0.57012 0.05584 0.65871 0.0
C86 C 0.53915 0.05096 0.62094 0.0
C87 C 0.5056 1.0037 0.55656 0.0
C88 C 0.53084 0.98929 0.51682 0.0
C89 C 0.45798 1.01822 0.55203 0.0
C90 C 0.42908 0.03353 0.59247 0.0
C91 C 0.42513 1.00618 0.63283 0.0
C92 C 0.39312 1.01791 0.66826 0.0
C93 C 0.36399 0.05658 0.66331 0.0
C94 C 0.36913 0.08488 0.62388 0.0
C95 C 0.40179 0.07366 0.58888 0.0
H96 H 0.56447 0.60012 0.93078 0.0
H97 H 0.62124 0.66332 0.93045 0.0
H98 H 0.57998 0.69701 0.07257 0.0
H99 H 0.52228 0.63436 0.07204 0.0
H100 H 0.57239 0.52852 0.99189 0.0
H101 H 0.45819 0.64334 0.95306 0.0
H102 H 0.40218 0.70755 0.95453 0.0
H103 H 0.34062 0.65526 0.08278 0.0
H104 H 0.39784 0.59234 0.08265 0.0
H105 H 0.40709 0.45651 0.08613 0.0
H106 H 0.35073 0.39275 0.08622 0.0
H107 H 0.39414 0.35809 0.94513 0.0
H108 H 0.45048 0.42213 0.94522 0.0
H109 H 0.39917 0.52789 0.02445 0.0
H110 H 0.52078 0.4229 0.0724 0.0
H111 H 0.57708 0.35894 0.07408 0.0
H112 H 0.6223 0.39245 0.93307 0.0
H113 H 0.56593 0.45622 0.93155 0.0
C114 C 0.53917 0.61265 1.00139 0.0
C115 C 0.56712 0.62168 0.96154 0.0
C116 C 0.59984 0.65755 0.96159 0.0
C117 C 0.60572 0.68482 1.00175 0.0
C118 C 0.57614 0.67693 0.04093 0.0
C119 C 0.54311 0.64114 0.04071 0.0
C120 C 0.5104 0.57032 1.00367 0.0
C121 C 0.53429 0.52849 0.99828 0.0
C122 C 0.4611 0.57032 0.01389 0.0
C123 C 0.43249 0.61291 0.01786 0.0
C124 C 0.43386 0.64647 0.98243 0.0
C125 C 0.40166 0.68297 0.98305 0.0
C126 C 0.36701 0.68589 0.01855 0.0
C127 C 0.36682 0.65342 0.05485 0.0
C128 C 0.39948 0.61752 0.05473 0.0
C129 C 0.43301 0.4439 0.01575 0.0
C130 C 0.40508 0.43463 0.05557 0.0
C131 C 0.37302 0.39816 0.05561 0.0
C132 C 0.36789 0.37068 0.01556 0.0
C133 C 0.39711 0.37902 0.9763 0.0
C134 C 0.42958 0.41525 0.97647 0.0
C135 C 0.4613 0.48652 0.01325 0.0
C136 C 0.4373 0.52825 0.01831 0.0
C137 C 0.5105 0.48662 1.00335 0.0
C138 C 0.53905 0.44411 1.00175 0.0
C139 C 0.54206 0.41581 0.04149 0.0
C140 C 0.57453 0.37962 0.04259 0.0
C141 C 0.60423 0.37095 1.00381 0.0
C142 C 0.59963 0.39813 0.96332 0.0
C143 C 0.56756 0.43459 0.96244 0.0
C144 C 0.98305 0.14106 0.89652 0.0
C145 C -0.01189 0.13927 0.12633 0.0
C146 C 0.98519 0.91903 0.89497 0.0
C147 C -0.01111 0.91738 0.12502 0.0
C148 C 0.10229 0.91919 1.00645 0.0
C149 C 0.1013 0.13966 1.00972 0.0
C150 C 0.87083 0.9185 0.01198 0.0
C151 C 0.8696 0.13877 0.01458 0.0
C152 C 0.87565 1.01987 0.12751 0.0
C153 C 0.106 0.02678 0.11813 0.0
C154 C 0.86656 0.03062 0.90285 0.0
C155 C 0.09668 0.03468 0.89345 0.0
Eu156 Eu 0.98546 0.1169 0.01137 0.0
O157 O 0.02913 0.07004 0.05093 0.0
O158 O 0.94276 0.07049 0.97068 0.0
Eu159 Eu 0.0745 0.02928 1.00694 0.0
Eu160 Eu 0.89791 0.02881 0.01413 0.0
O161 O 0.02566 0.07062 0.96781 0.0
O162 O 0.94543 0.0701 0.05503 0.0
Eu163 Eu 0.98277 0.02991 0.92164 0.0
Eu164 Eu -0.01036 0.02852 0.09978 0.0
O165 O 0.02651 0.98814 0.96656 0.0
O166 O 0.02953 0.98774 0.05061 0.0
O167 O 0.94691 0.98786 0.05339 0.0
O168 O 0.9432 0.98803 0.9702 0.0
Eu169 Eu -0.01337 0.94128 1.01012 0.0
O170 O 0.98406 0.15536 0.9412 0.0
O171 O 0.98532 0.15408 0.08187 0.0
O172 O 0.98597 0.90417 0.93953 0.0
O173 O -0.01228 0.90301 0.08037 0.0
O174 O 0.11565 0.96287 1.00358 0.0
O175 O 0.1148 0.09598 1.00841 0.0
O176 O 0.85737 0.96221 0.0125 0.0
O177 O 0.85655 0.09495 0.01624 0.0
O178 O 0.92084 1.02317 0.14143 0.0
O179 O 0.06179 0.02693 0.13547 0.0
O180 O 0.91082 0.03028 0.88565 0.0
O181 O 0.0513 0.03476 0.87991 0.0
O182 O 0.91583 0.90366 0.0116 0.0
O183 O 0.05752 0.90417 1.01 0.0
O184 O 0.9144 0.15404 0.01273 0.0
O185 O 0.05632 0.1546 1.01039 0.0
O186 O -0.00935 0.09552 0.1398 0.0
O187 O -0.00976 0.96099 0.13874 0.0
O188 O 0.98192 0.09746 0.88277 0.0
O189 O 0.98402 0.96289 0.88164 0.0
O190 O 0.11219 0.03203 0.93743 0.0
O191 O 0.11758 0.02752 0.07286 0.0
O192 O 0.85493 0.03031 0.94811 0.0
O193 O 0.86048 1.02239 0.0834 0.0
H194 H 0.05531 0.32888 0.35302 0.0
H195 H 0.90183 0.33257 0.34135 0.0
H196 H 0.05859 0.27276 0.29002 0.0
H197 H 0.906 0.27862 0.27646 0.0
H198 H 0.94648 0.22412 0.12604 0.0
H199 H 0.94349 0.27953 0.19048 0.0
H200 H 0.02685 0.18857 0.27674 0.0
H201 H 0.02907 0.1328 0.21294 0.0
C202 C 0.02216 0.31766 0.33761 0.0
C203 C 0.97825 0.33581 0.35284 0.0
C204 C 0.02423 0.2857 0.30107 0.0
C205 C 0.98261 0.27163 0.27805 0.0
C206 C 0.93874 0.28938 0.2931 0.0
C207 C 0.93651 0.32059 0.33029 0.0
C208 C 0.96434 0.21605 0.15867 0.0
C209 C -0.01205 0.17401 0.16435 0.0
C210 C 0.96236 0.24763 0.19563 0.0
C211 C 0.98489 0.23831 0.23865 0.0
C212 C 0.00933 0.19674 0.24395 0.0
C213 C 0.0104 0.16476 0.20745 0.0
H214 H 0.70281 0.95301 0.3741 0.0
H215 H 0.60678 1.0052 0.26858 0.0
H216 H 0.76896 0.95908 0.3185 0.0
H217 H 0.67287 1.01315 0.21396 0.0
H218 H 0.78913 0.9819 0.11243 0.0
H219 H 0.72683 0.96663 0.16909 0.0
H220 H 0.81554 1.02007 0.27983 0.0
H221 H 0.87919 0.03449 0.22273 0.0
C222 C 0.69579 0.96525 0.33888 0.0
C223 C 0.64972 0.97862 0.32554 0.0
C224 C 0.73372 0.96933 0.30736 0.0
C225 C 0.72609 0.98673 0.26202 0.0
C226 C 0.67979 0.99914 0.2485 0.0
C227 C 0.642 0.99497 0.27986 0.0
C228 C 0.79549 0.9907 0.1488 0.0
C229 C 0.83878 1.0103 0.16303 0.0
C230 C 0.75969 0.98186 0.18127 0.0
C231 C 0.76605 0.99273 0.22872 0.0
C232 C 0.80981 1.01112 0.24341 0.0
C233 C 0.84606 1.01967 0.21078 0.0
H234 H 0.05345 0.69924 0.32566 0.0
H235 H 0.91595 0.75022 0.36866 0.0
H236 H 0.05484 0.75417 0.26068 0.0
H237 H 0.91715 0.80479 0.30356 0.0
H238 H 0.96331 0.92991 0.21659 0.0
H239 H 0.9626 0.87423 0.28012 0.0
H240 H 0.01136 0.76987 0.18457 0.0
H241 H 0.01227 0.82593 0.1204 0.0
C242 C 0.0237 0.72241 0.32147 0.0
C243 C 0.98466 0.72047 0.3525 0.0
C244 C 0.02426 0.75351 0.28391 0.0
C245 C 0.98607 0.7838 0.27684 0.0
C246 C 0.94728 0.78214 0.30817 0.0
C247 C 0.94647 0.75072 0.34534 0.0
C248 C 0.97403 0.89515 0.2089 0.0
C249 C -0.01203 0.88252 0.16321 0.0
C250 C 0.97327 0.86312 0.2454 0.0
C251 C -0.01314 0.81758 0.23748 0.0
C252 C 0.00101 0.8048 0.19189 0.0
C253 C 0.00121 0.83683 0.15506 0.0
H254 H 0.3668 0.06981 0.27298 0.0
H255 H 0.30908 0.94438 0.32996 0.0
H256 H 0.29987 0.07506 0.21897 0.0
H257 H 0.24289 0.94883 0.27486 0.0
H258 H 0.10405 1.00561 0.21201 0.0
H259 H 0.17219 0.99919 0.26474 0.0
H260 H 0.26676 0.03575 0.15078 0.0
H261 H 0.19932 0.04326 0.09861 0.0
C262 C 0.3401 0.04308 0.27344 0.0
C263 C 0.34299 1.00676 0.30558 0.0
C264 C 0.30197 0.04595 0.24246 0.0
C265 C 0.26606 1.01253 0.24311 0.0
C266 C 0.26976 0.97539 0.27419 0.0
C267 C 0.30797 0.97248 0.30514 0.0
C268 C 0.13934 1.01262 0.19838 0.0
C269 C 0.14623 1.02479 0.15114 0.0
C270 C 0.17832 1.00851 0.22839 0.0
C271 C 0.22468 1.01675 0.21166 0.0
C272 C 0.2314 0.02952 0.16467 0.0
C273 C 0.19265 0.03352 0.13475 0.0
H274 H 0.02894 0.67612 0.72173 0.0
H275 H 0.95759 0.77124 0.62948 0.0
H276 H 0.02675 0.73222 0.78447 0.0
H277 H 0.95298 0.8265 0.69316 0.0
H278 H -0.00227 0.93341 0.80054 0.0
H279 H 0.00014 0.87732 0.73795 0.0
H280 H 0.97581 0.76936 0.83902 0.0
H281 H 0.97475 0.82555 0.90211 0.0
C282 C 0.01289 0.70906 0.71463 0.0
C283 C -0.00619 0.71904 0.67009 0.0
C284 C 0.01094 0.7411 0.75105 0.0
C285 C -0.01039 0.78412 0.74423 0.0
C286 C 0.97027 0.79405 0.69976 0.0
C287 C 0.97239 0.76203 0.66324 0.0
C288 C -0.00722 0.89775 0.80964 0.0
C289 C 0.98605 0.88424 0.8567 0.0
C290 C -0.00611 0.86545 0.77347 0.0
C291 C -0.01196 0.81857 0.78308 0.0
C292 C 0.98115 0.80502 0.83015 0.0
C293 C 0.9803 0.83736 0.86645 0.0
H294 H 0.27042 0.0636 0.64266 0.0
H295 H 0.36936 0.06452 0.75817 0.0
H296 H 0.2039 0.06149 0.69769 0.0
H297 H 0.30298 0.06481 0.81365 0.0
H298 H 0.18426 0.99669 0.89431 0.0
H299 H 0.24834 1.00853 0.83834 0.0
H300 H 0.15748 0.09757 0.7566 0.0
H301 H 0.09239 0.08378 0.81204 0.0
C302 C 0.2777 0.06478 0.67997 0.0
C303 C 0.32466 0.0639 0.69651 0.0
C304 C 0.23969 0.06365 0.7115 0.0
C305 C 0.24813 0.0622 0.76007 0.0
C306 C 0.2953 0.06456 0.77642 0.0
C307 C 0.33328 0.06484 0.74486 0.0
C308 C 0.17797 1.01858 0.8642 0.0
C309 C 0.13357 0.03932 0.85729 0.0
C310 C 0.21483 0.02584 0.83241 0.0
C311 C 0.20836 0.05471 0.79343 0.0
C312 C 0.16353 0.07493 0.78612 0.0
C313 C 0.12627 0.067 0.81769 0.0
H314 H 0.91917 0.36011 0.69654 0.0
H315 H 0.05555 0.30744 0.65225 0.0
H316 H 0.91768 0.30517 0.76155 0.0
H317 H 0.05425 0.25287 0.71734 0.0
H318 H 0.00725 0.12829 0.80459 0.0
H319 H 0.00801 0.18398 0.74114 0.0
H320 H 0.96187 0.28891 0.83728 0.0
H321 H 0.96098 0.23284 0.90144 0.0
C322 C 0.94864 0.33656 0.70046 0.0
C323 C -0.0126 0.33804 0.66908 0.0
C324 C 0.94804 0.30547 0.73803 0.0
C325 C 0.98589 0.2747 0.74473 0.0
C326 C 0.02438 0.27589 0.71303 0.0
C327 C 0.02525 0.30731 0.67586 0.0
C328 C -0.00287 0.16317 0.81246 0.0
C329 C 0.98392 0.17594 0.85833 0.0
C330 C -0.00209 0.19521 0.77597 0.0
C331 C 0.98505 0.24091 0.78407 0.0
C332 C 0.97163 0.25385 0.82983 0.0
C333 C 0.97143 0.2218 0.86664 0.0
H334 H 0.66576 0.07995 0.67653 0.0
H335 H 0.60739 0.96707 0.75616 0.0
H336 H 0.73195 0.0853 0.73164 0.0
H337 H 0.67404 0.97182 0.81073 0.0
H338 H 0.77195 0.02615 0.92396 0.0
H339 H 0.70542 0.02609 0.8702 0.0
H340 H 0.80239 0.0358 0.75267 0.0
H341 H 0.86982 0.03646 0.80662 0.0
C342 C 0.66683 0.05673 0.7062 0.0
C343 C 0.63153 1.02321 0.71238 0.0
C344 C 0.70492 0.05941 0.73727 0.0
C345 C 0.70808 0.02883 0.77514 0.0
C346 C 0.6722 0.99599 0.78191 0.0
C347 C 0.63429 0.99312 0.75068 0.0
C348 C 0.77945 0.0284 0.88671 0.0
C349 C 0.82642 0.03114 0.86959 0.0
C350 C 0.74116 0.02816 0.85597 0.0
C351 C 0.74887 0.03075 0.80745 0.0
C352 C 0.79561 0.03413 0.79009 0.0
C353 C 0.83415 0.03421 0.82093 0.0
H354 H 0.30406 0.35557 0.94536 0.0
H355 H 0.34583 0.30688 0.08242 0.0
H356 H 0.23904 0.30002 0.94414 0.0
H357 H 0.2805 0.25164 0.0814 0.0
H358 H 0.19368 0.126 0.03511 0.0
H359 H 0.25822 0.18143 0.03595 0.0
H360 H 0.16175 0.28653 0.98837 0.0
H361 H 0.09669 0.23088 0.98724 0.0
C362 C 0.29958 0.33269 0.97501 0.0
C363 C 0.33009 0.33537 0.01392 0.0
C364 C 0.26206 0.30132 0.97454 0.0
C365 C 0.25464 0.27168 0.01274 0.0
C366 C 0.28556 0.27392 0.05136 0.0
C367 C 0.32276 0.30562 0.05206 0.0
C368 C 0.18608 0.16088 0.02468 0.0
C369 C 0.13998 0.17399 0.01094 0.0
C370 C 0.22307 0.19268 0.02551 0.0
C371 C 0.21501 0.23824 0.01222 0.0
C372 C 0.169 0.25149 0.99843 0.0
C373 C 0.13174 0.21973 0.9981 0.0
H374 H 0.37601 0.77876 0.01323 0.0
H375 H 0.27207 0.67037 0.0175 0.0
H376 H 0.3121 0.83538 0.01076 0.0
H377 H 0.20811 0.72615 0.01214 0.0
H378 H 0.10206 0.83611 0.04994 0.0
H379 H 0.16654 0.7808 0.05366 0.0
H380 H 0.25292 0.86836 0.96513 0.0
H381 H 0.18918 0.92471 0.96392 0.0
C382 C 0.33937 0.76721 0.01315 0.0
C383 C 0.32876 0.72045 0.01597 0.0
C384 C 0.30267 0.79951 0.01138 0.0
C385 C 0.2546 0.78558 0.01137 0.0
C386 C 0.24441 0.73848 0.01329 0.0
C387 C 0.28104 0.70638 0.01604 0.0
C388 C 0.13481 0.84336 0.03116 0.0
C389 C 0.14061 0.88466 1.00665 0.0
C390 C 0.17183 0.81154 0.03305 0.0
C391 C 0.21524 0.8198 1.00959 0.0
C392 C 0.22057 0.86102 0.98447 0.0
C393 C 0.18387 0.89325 0.98343 0.0
H394 H 0.66726 0.35637 0.0749 0.0
H395 H 0.62662 0.30623 0.93833 0.0
H396 H 0.73169 0.30028 0.07798 0.0
H397 H 0.6913 0.25034 0.94127 0.0
H398 H 0.77682 0.12476 0.99065 0.0
H399 H 0.71244 0.1804 0.98882 0.0
H400 H 0.80936 0.28577 0.03441 0.0
H401 H 0.87421 0.22998 0.03644 0.0
C402 C 0.67187 0.33306 0.04575 0.0
C403 C 0.64184 0.33549 1.00644 0.0
C404 C 0.70903 0.30135 0.04731 0.0
C405 C 0.71655 0.27108 1.00982 0.0
C406 C 0.68613 0.2731 0.97078 0.0
C407 C 0.64932 0.30518 0.96899 0.0
C408 C 0.78452 0.15973 1.00052 0.0
C409 C 0.83071 0.17291 0.01382 0.0
C410 C 0.74764 0.19164 0.99911 0.0
C411 C 0.75591 0.23737 0.01143 0.0
C412 C 0.80194 0.25062 0.02506 0.0
C413 C 0.83909 0.21876 0.02593 0.0
H414 H 0.69624 0.67746 0.96715 0.0
H415 H 0.60308 0.7704 0.04107 0.0
H416 H 0.75979 0.73377 0.96975 0.0
H417 H 0.66761 0.82594 0.04586 0.0
H418 H 0.77574 0.93311 0.99843 0.0
H419 H 0.71225 0.87693 0.99643 0.0
H420 H 0.81408 0.7694 0.02336 0.0
H421 H 0.87814 0.8256 0.02419 0.0
C422 C 0.68922 0.71 0.98382 0.0
C423 C 0.64435 0.71953 1.00354 0.0
C424 C 0.72597 0.74204 0.98596 0.0
C425 C 0.71892 0.78436 1.00812 0.0
C426 C 0.67412 0.79387 0.02806 0.0
C427 C 0.63725 0.76184 0.02575 0.0
C428 C 0.78478 0.89752 1.00407 0.0
C429 C 0.83223 0.88394 0.01143 0.0
C430 C 0.74818 0.86529 1.00318 0.0
C431 C 0.75797 0.81864 1.00983 0.0
C432 C 0.80536 0.80501 0.01745 0.0
C433 C 0.8421 0.83728 0.01812 0.0
loop_
_geom_bond_atom_site_label_1
_geom_bond_atom_site_label_2
_geom_bond_distance
_geom_bond_site_symmetry_2
_ccdc_geom_bond_type
H0 C19 0.949 . S
H1 C20 0.950 . S
H2 C22 0.950 . S
H3 C23 0.950 . S
H4 C25 0.950 . S
H5 C28 0.950 . S
H6 C29 0.950 . S
H7 C31 0.951 . S
H8 C32 0.949 . S
H9 C34 0.949 . S
H10 C35 0.950 . S
H11 C37 0.950 . S
H12 C38 0.950 . S
H13 C40 0.950 . S
H14 C43 0.950 . S
H15 C44 0.950 . S
H16 C46 0.951 . S
H17 C47 0.949 . S
C18 C19 1.376 . S
C18 C23 1.386 1_455 S
C18 C24 1.483 . S
C19 H0 0.949 . S
C19 C18 1.376 . S
C19 C20 1.397 . S
C20 H1 0.950 . S
C20 C19 1.397 . S
C20 C21 1.391 . S
C21 C20 1.391 . S
C21 C22 1.405 1_455 S
C22 H2 0.950 . S
C22 C21 1.405 1_655 S
C22 C23 1.367 . S
C23 H3 0.950 . S
C23 C18 1.386 1_655 S
C23 C22 1.367 . S
C24 C18 1.483 . S
C24 C25 1.382 . S
C24 C26 1.403 1_455 S
C25 H4 0.950 . S
C25 C24 1.382 . S
C25 C41 1.411 . S
C26 C24 1.403 1_655 S
C26 C27 1.489 . S
C26 C40 1.411 . S
C27 C26 1.489 . S
C27 C28 1.383 1_655 S
C27 C32 1.382 . S
C28 H5 0.950 . S
C28 C27 1.383 1_455 S
C28 C29 1.395 . S
C29 H6 0.950 . S
C29 C28 1.395 . S
C29 C30 1.288 1_455 S
C30 C29 1.288 1_655 S
C30 C31 1.392 . S
C31 H7 0.951 . S
C31 C30 1.392 . S
C31 C32 1.392 . S
C32 H8 0.949 . S
C32 C27 1.382 . S
C32 C31 1.392 . S
C33 C34 1.376 . S
C33 C38 1.386 1_655 S
C33 C39 1.483 . S
C34 H9 0.949 . S
C34 C33 1.376 . S
C34 C35 1.397 . S
C35 H10 0.950 . S
C35 C34 1.397 . S
C35 C36 1.391 . S
C36 C35 1.391 . S
C36 C37 1.405 1_655 S
C37 H11 0.950 . S
C37 C36 1.405 1_455 S
C37 C38 1.367 . S
C38 H12 0.950 . S
C38 C33 1.386 1_455 S
C38 C37 1.367 . S
C39 C33 1.483 . S
C39 C40 1.382 . S
C39 C41 1.403 1_655 S
C40 H13 0.950 . S
C40 C26 1.411 . S
C40 C39 1.382 . S
C41 C25 1.411 . S
C41 C39 1.403 1_455 S
C41 C42 1.489 . S
C42 C41 1.489 . S
C42 C43 1.383 1_455 S
C42 C47 1.382 . S
C43 H14 0.950 . S
C43 C42 1.383 1_655 S
C43 C44 1.395 . S
C44 H15 0.950 . S
C44 C43 1.395 . S
C44 C45 1.288 1_655 S
C45 C44 1.288 1_455 S
C45 C46 1.392 . S
C46 H16 0.951 . S
C46 C45 1.392 . S
C46 C47 1.392 . S
C47 H17 0.949 . S
C47 C42 1.382 . S
C47 C46 1.392 . S
H48 C67 0.949 . S
H49 C68 0.950 . S
H50 C70 0.950 . S
H51 C71 0.950 . S
H52 C73 0.950 . S
H53 C76 0.950 . S
H54 C77 0.950 . S
H55 C79 0.951 . S
H56 C80 0.949 . S
H57 C82 0.949 . S
H58 C83 0.950 . S
H59 C85 0.950 . S
H60 C86 0.950 . S
H61 C88 0.950 . S
H62 C91 0.950 . S
H63 C92 0.950 . S
H64 C94 0.951 . S
H65 C95 0.949 . S
C66 C67 1.376 . S
C66 C71 1.386 1_545 S
C66 C72 1.483 . S
C67 H48 0.949 . S
C67 C66 1.376 . S
C67 C68 1.397 . S
C68 H49 0.950 . S
C68 C67 1.397 . S
C68 C69 1.391 . S
C69 C68 1.391 . S
C69 C70 1.405 1_545 S
C70 H50 0.950 . S
C70 C69 1.405 1_565 S
C70 C71 1.367 . S
C71 H51 0.950 . S
C71 C66 1.386 1_565 S
C71 C70 1.367 . S
C72 C66 1.483 . S
C72 C73 1.382 . S
C72 C74 1.403 1_545 S
C73 H52 0.950 . S
C73 C72 1.382 . S
C73 C89 1.411 . S
C74 C72 1.403 1_565 S
C74 C75 1.489 . S
C74 C88 1.411 . S
C75 C74 1.489 . S
C75 C76 1.383 1_565 S
C75 C80 1.382 . S
C76 H53 0.950 . S
C76 C75 1.383 1_545 S
C76 C77 1.395 . S
C77 H54 0.950 . S
C77 C76 1.395 . S
C77 C78 1.288 1_545 S
C78 C77 1.288 1_565 S
C78 C79 1.392 . S
C79 H55 0.951 . S
C79 C78 1.392 . S
C79 C80 1.392 . S
C80 H56 0.949 . S
C80 C75 1.382 . S
C80 C79 1.392 . S
C81 C82 1.376 . S
C81 C86 1.386 1_565 S
C81 C87 1.483 . S
C82 H57 0.949 . S
C82 C81 1.376 . S
C82 C83 1.397 . S
C83 H58 0.950 . S
C83 C82 1.397 . S
C83 C84 1.391 . S
C84 C83 1.391 . S
C84 C85 1.405 1_565 S
C85 H59 0.950 . S
C85 C84 1.405 1_545 S
C85 C86 1.367 . S
C86 H60 0.950 . S
C86 C81 1.386 1_545 S
C86 C85 1.367 . S
C87 C81 1.483 . S
C87 C88 1.382 . S
C87 C89 1.403 1_565 S
C88 H61 0.950 . S
C88 C74 1.411 . S
C88 C87 1.382 . S
C89 C73 1.411 . S
C89 C87 1.403 1_545 S
C89 C90 1.489 . S
C90 C89 1.489 . S
C90 C91 1.383 1_545 S
C90 C95 1.382 . S
C91 H62 0.950 . S
C91 C90 1.383 1_565 S
C91 C92 1.395 . S
C92 H63 0.950 . S
C92 C91 1.395 . S
C92 C93 1.288 1_565 S
C93 C92 1.288 1_545 S
C93 C94 1.392 . S
C94 H64 0.951 . S
C94 C93 1.392 . S
C94 C95 1.392 . S
C95 H65 0.949 . S
C95 C90 1.382 . S
C95 C94 1.392 . S
H96 C115 0.949 . S
H97 C116 0.950 . S
H98 C118 0.950 . S
H99 C119 0.950 . S
H100 C121 0.950 . S
H101 C124 0.950 . S
H102 C125 0.950 . S
H103 C127 0.951 . S
H104 C128 0.949 . S
H105 C130 0.949 . S
H106 C131 0.950 . S
H107 C133 0.950 . S
H108 C134 0.950 . S
H109 C136 0.950 . S
H110 C139 0.950 . S
H111 C140 0.950 . S
H112 C142 0.951 . S
H113 C143 0.949 . S
C114 C115 1.376 . S
C114 C119 1.386 1_556 S
C114 C120 1.483 . S
C115 H96 0.949 . S
C115 C114 1.376 . S
C115 C116 1.397 . S
C116 H97 0.950 . S
C116 C115 1.397 . S
C116 C117 1.391 . S
C117 C116 1.391 . S
C117 C118 1.405 1_556 S
C118 H98 0.950 . S
C118 C117 1.405 1_554 S
C118 C119 1.367 . S
C119 H99 0.950 . S
C119 C114 1.386 1_554 S
C119 C118 1.367 . S
C120 C114 1.483 . S
C120 C121 1.382 . S
C120 C122 1.403 1_556 S
C121 H100 0.950 . S
C121 C120 1.382 . S
C121 C137 1.411 . S
C122 C120 1.403 1_554 S
C122 C123 1.489 . S
C122 C136 1.411 . S
C123 C122 1.489 . S
C123 C124 1.383 1_554 S
C123 C128 1.382 . S
C124 H101 0.950 . S
C124 C123 1.383 1_556 S
C124 C125 1.395 . S
C125 H102 0.950 . S
C125 C124 1.395 . S
C125 C126 1.288 1_556 S
C126 C125 1.288 1_554 S
C126 C127 1.392 . S
C127 H103 0.951 . S
C127 C126 1.392 . S
C127 C128 1.392 . S
C128 H104 0.949 . S
C128 C123 1.382 . S
C128 C127 1.392 . S
C129 C130 1.376 . S
C129 C134 1.386 1_554 S
C129 C135 1.483 . S
C130 H105 0.949 . S
C130 C129 1.376 . S
C130 C131 1.397 . S
C131 H106 0.950 . S
C131 C130 1.397 . S
C131 C132 1.391 . S
C132 C131 1.391 . S
C132 C133 1.405 1_554 S
C133 H107 0.950 . S
C133 C132 1.405 1_556 S
C133 C134 1.367 . S
C134 H108 0.950 . S
C134 C129 1.386 1_556 S
C134 C133 1.367 . S
C135 C129 1.483 . S
C135 C136 1.382 . S
C135 C137 1.403 1_554 S
C136 H109 0.950 . S
C136 C122 1.411 . S
C136 C135 1.382 . S
C137 C121 1.411 . S
C137 C135 1.403 1_556 S
C137 C138 1.489 . S
C138 C137 1.489 . S
C138 C139 1.383 1_556 S
C138 C143 1.382 . S
C139 H110 0.950 . S
C139 C138 1.383 1_554 S
C139 C140 1.395 . S
C140 H111 0.950 . S
C140 C139 1.395 . S
C140 C141 1.288 1_554 S
C141 C140 1.288 1_556 S
C141 C142 1.392 . S
C142 H112 0.951 . S
C142 C141 1.392 . S
C142 C143 1.392 . S
C143 H113 0.949 . S
C143 C138 1.382 . S
C143 C142 1.392 . S
C144 O170 1.283 . S
C144 O188 1.283 . S
C145 O171 1.283 . S
C145 O186 1.283 . S
C146 O172 1.283 . S
C146 O189 1.283 . S
C147 O173 1.283 . S
C147 O187 1.283 . S
C148 O174 1.283 . S
C148 O183 1.283 . S
C149 O175 1.283 . S
C149 O185 1.283 . S
C150 O176 1.283 . S
C150 O182 1.283 . S
C151 O177 1.283 . S
C151 O184 1.283 . S
C152 O178 1.283 . S
C152 O193 1.283 . S
C153 O179 1.283 . S
C153 O191 1.283 . S
C154 O180 1.283 . S
C154 O192 1.283 . S
C155 O181 1.283 . S
C155 O190 1.283 . S
Eu156 O157 2.371 . S
Eu156 O158 2.370 1_454 S
Eu156 O161 2.370 1_554 S
Eu156 O162 2.370 1_455 S
Eu156 O170 2.363 1_554 S
Eu156 O171 2.363 . S
Eu156 O184 2.362 1_455 S
Eu156 O185 2.363 . S
O157 Eu156 2.371 . S
O157 Eu159 2.371 . S
O157 Eu164 2.371 . S
O158 Eu156 2.370 1_656 S
O158 Eu160 2.370 1_556 S
O158 Eu163 2.370 1_655 S
Eu159 O157 2.371 . S
Eu159 O161 2.370 1_554 S
Eu159 O165 2.369 1_544 S
Eu159 O166 2.370 1_545 S
Eu159 O174 2.362 1_545 S
Eu159 O175 2.363 . S
Eu159 O190 2.362 1_554 S
Eu159 O191 2.363 . S
Eu160 O158 2.370 1_554 S
Eu160 O162 2.369 . S
Eu160 O167 2.370 1_545 S
Eu160 O168 2.371 1_544 S
Eu160 O176 2.363 1_545 S
Eu160 O177 2.362 . S
Eu160 O192 2.363 1_554 S
Eu160 O193 2.362 . S
O161 Eu156 2.370 1_556 S
O161 Eu159 2.370 1_556 S
O161 Eu163 2.370 . S
O162 Eu156 2.370 1_655 S
O162 Eu160 2.369 . S
O162 Eu164 2.370 1_655 S
Eu163 O158 2.370 1_455 S
Eu163 O161 2.370 . S
Eu163 O165 2.370 1_545 S
Eu163 O168 2.371 1_445 S
Eu163 O180 2.363 1_455 S
Eu163 O181 2.362 . S
Eu163 O188 2.362 . S
Eu163 O189 2.363 1_545 S
Eu164 O157 2.371 . S
Eu164 O162 2.370 1_455 S
Eu164 O166 2.370 1_545 S
Eu164 O167 2.370 1_445 S
Eu164 O178 2.362 1_455 S
Eu164 O179 2.363 . S
Eu164 O186 2.363 . S
Eu164 O187 2.362 1_545 S
O165 Eu159 2.369 1_566 S
O165 Eu163 2.370 1_565 S
O165 Eu169 2.370 1_556 S
O166 Eu159 2.370 1_565 S
O166 Eu164 2.370 1_565 S
O166 Eu169 2.370 . S
O167 Eu160 2.370 1_565 S
O167 Eu164 2.370 1_665 S
O167 Eu169 2.370 1_655 S
O168 Eu160 2.371 1_566 S
O168 Eu163 2.371 1_665 S
O168 Eu169 2.371 1_656 S
Eu169 O165 2.370 1_554 S
Eu169 O166 2.370 . S
Eu169 O167 2.370 1_455 S
Eu169 O168 2.371 1_454 S
Eu169 O172 2.363 1_554 S
Eu169 O173 2.363 . S
Eu169 O182 2.363 1_455 S
Eu169 O183 2.363 . S
O170 C144 1.283 . S
O170 Eu156 2.363 1_556 S
O171 C145 1.283 . S
O171 Eu156 2.363 . S
O172 C146 1.283 . S
O172 Eu169 2.363 1_556 S
O173 C147 1.283 . S
O173 Eu169 2.363 . S
O174 C148 1.283 . S
O174 Eu159 2.362 1_565 S
O175 C149 1.283 . S
O175 Eu159 2.363 . S
O176 C150 1.283 . S
O176 Eu160 2.363 1_565 S
O177 C151 1.283 . S
O177 Eu160 2.362 . S
O178 C152 1.283 . S
O178 Eu164 2.362 1_655 S
O179 C153 1.283 . S
O179 Eu164 2.363 . S
O180 C154 1.283 . S
O180 Eu163 2.363 1_655 S
O181 C155 1.283 . S
O181 Eu163 2.362 . S
O182 C150 1.283 . S
O182 Eu169 2.363 1_655 S
O183 C148 1.283 . S
O183 Eu169 2.363 . S
O184 C151 1.283 . S
O184 Eu156 2.362 1_655 S
O185 C149 1.283 . S
O185 Eu156 2.363 . S
O186 C145 1.283 . S
O186 Eu164 2.363 . S
O187 C147 1.283 . S
O187 Eu164 2.362 1_565 S
O188 C144 1.283 . S
O188 Eu163 2.362 . S
O189 C146 1.283 . S
O189 Eu163 2.363 1_565 S
O190 C155 1.283 . S
O190 Eu159 2.362 1_556 S
O191 C153 1.283 . S
O191 Eu159 2.363 . S
O192 C154 1.283 . S
O192 Eu160 2.363 1_556 S
O193 C152 1.283 . S
O193 Eu160 2.362 . S
H194 C202 0.950 . S
H195 C207 0.950 . S
H196 C204 0.950 . S
H197 C206 0.950 . S
H198 C208 0.950 . S
H199 C210 0.950 . S
H200 C212 0.950 . S
H201 C213 0.950 . S
C202 H194 0.950 . S
C202 C203 1.372 1_455 S
C202 C204 1.391 . S
C203 C202 1.372 1_655 S
C203 C207 1.407 . S
C204 H196 0.950 . S
C204 C202 1.391 . S
C204 C205 1.396 1_455 S
C205 C204 1.396 1_655 S
C205 C206 1.403 . S
C205 C211 1.490 1_655 S
C206 H197 0.950 . S
C206 C205 1.403 . S
C206 C207 1.391 . S
C207 H195 0.950 . S
C207 C203 1.407 . S
C207 C206 1.391 . S
C208 H198 0.950 . S
C208 C209 1.366 1_655 S
C208 C210 1.391 . S
C209 C208 1.366 1_455 S
C209 C213 1.413 . S
C210 H199 0.950 . S
C210 C208 1.391 . S
C210 C211 1.391 1_655 S
C211 C205 1.490 1_455 S
C211 C210 1.391 1_455 S
C211 C212 1.408 . S
C212 H200 0.950 . S
C212 C211 1.408 . S
C212 C213 1.391 . S
C213 H201 0.950 . S
C213 C209 1.413 . S
C213 C212 1.391 . S
H214 C222 0.950 . S
H215 C227 0.950 . S
H216 C224 0.950 . S
H217 C226 0.950 . S
H218 C228 0.950 . S
H219 C230 0.950 . S
H220 C232 0.950 . S
H221 C233 0.950 . S
C222 H214 0.950 . S
C222 C223 1.386 1_545 S
C222 C224 1.391 . S
C223 C222 1.386 1_565 S
C223 C227 1.393 . S
C224 H216 0.950 . S
C224 C222 1.391 . S
C224 C225 1.399 1_545 S
C225 C224 1.399 1_565 S
C225 C226 1.400 . S
C225 C231 1.490 1_565 S
C226 H217 0.950 . S
C226 C225 1.400 . S
C226 C227 1.391 . S
C227 H215 0.950 . S
C227 C223 1.393 . S
C227 C226 1.391 . S
C228 H218 0.950 . S
C228 C229 1.386 1_565 S
C228 C230 1.391 . S
C229 C228 1.386 1_545 S
C229 C233 1.393 . S
C230 H219 0.950 . S
C230 C228 1.391 . S
C230 C231 1.399 1_565 S
C231 C225 1.490 1_545 S
C231 C230 1.399 1_545 S
C231 C232 1.401 . S
C232 H220 0.950 . S
C232 C231 1.401 . S
C232 C233 1.391 . S
C233 H221 0.950 . S
C233 C229 1.393 . S
C233 C232 1.391 . S
H234 C242 0.950 . S
H235 C247 0.950 . S
H236 C244 0.950 . S
H237 C246 0.950 . S
H238 C248 0.950 . S
H239 C250 0.950 . S
H240 C252 0.950 . S
H241 C253 0.950 . S
C242 H234 0.950 . S
C242 C243 1.377 1_455 S
C242 C244 1.391 . S
C243 C242 1.377 1_655 S
C243 C247 1.402 . S
C244 H236 0.950 . S
C244 C242 1.391 . S
C244 C245 1.398 1_455 S
C245 C244 1.398 1_655 S
C245 C246 1.400 . S
C245 C251 1.491 1_655 S
C246 H237 0.950 . S
C246 C245 1.400 . S
C246 C247 1.391 . S
C247 H235 0.950 . S
C247 C243 1.402 . S
C247 C246 1.391 . S
C248 H238 0.950 . S
C248 C249 1.372 1_655 S
C248 C250 1.391 . S
C249 C248 1.372 1_455 S
C249 C253 1.406 . S
C250 H239 0.950 . S
C250 C248 1.391 . S
C250 C251 1.394 1_655 S
C251 C245 1.491 1_455 S
C251 C250 1.394 1_455 S
C251 C252 1.405 . S
C252 H240 0.950 . S
C252 C251 1.405 . S
C252 C253 1.391 . S
C253 H241 0.950 . S
C253 C249 1.406 . S
C253 C252 1.391 . S
H254 C262 0.950 . S
H255 C267 0.950 . S
H256 C264 0.950 . S
H257 C266 0.950 . S
H258 C268 0.950 . S
H259 C270 0.950 . S
H260 C272 0.950 . S
H261 C273 0.950 . S
C262 H254 0.950 . S
C262 C263 1.370 1_545 S
C262 C264 1.391 . S
C263 C262 1.370 1_565 S
C263 C267 1.408 . S
C264 H256 0.950 . S
C264 C262 1.391 . S
C264 C265 1.396 1_545 S
C265 C264 1.396 1_565 S
C265 C266 1.403 . S
C265 C271 1.490 1_565 S
C266 H257 0.950 . S
C266 C265 1.403 . S
C266 C267 1.391 . S
C267 H255 0.950 . S
C267 C263 1.408 . S
C267 C266 1.391 . S
C268 H258 0.950 . S
C268 C269 1.365 1_565 S
C268 C270 1.391 . S
C269 C268 1.365 1_545 S
C269 C273 1.414 . S
C270 H259 0.950 . S
C270 C268 1.391 . S
C270 C271 1.390 1_565 S
C271 C265 1.490 1_545 S
C271 C270 1.390 1_545 S
C271 C272 1.409 . S
C272 H260 0.950 . S
C272 C271 1.409 . S
C272 C273 1.391 . S
C273 H261 0.950 . S
C273 C269 1.414 . S
C273 C272 1.391 . S
H274 C282 0.950 . S
H275 C287 0.950 . S
H276 C284 0.950 . S
H277 C286 0.950 . S
H278 C288 0.950 . S
H279 C290 0.950 . S
H280 C292 0.950 . S
H281 C293 0.950 . S
C282 H274 0.950 . S
C282 C283 1.386 . S
C282 C284 1.391 . S
C283 C282 1.386 . S
C283 C287 1.393 1_455 S
C284 H276 0.950 . S
C284 C282 1.391 . S
C284 C285 1.410 . S
C285 C284 1.410 . S
C285 C286 1.389 1_455 S
C285 C291 1.490 1_455 S
C286 H277 0.950 . S
C286 C285 1.389 1_655 S
C286 C287 1.391 . S
C287 H275 0.950 . S
C287 C283 1.393 1_655 S
C287 C286 1.391 . S
C288 H278 0.950 . S
C288 C289 1.386 . S
C288 C290 1.391 . S
C289 C288 1.386 . S
C289 C293 1.393 1_655 S
C290 H279 0.950 . S
C290 C288 1.391 . S
C290 C291 1.408 . S
C291 C285 1.490 1_655 S
C291 C290 1.408 . S
C291 C292 1.391 1_655 S
C292 H280 0.950 . S
C292 C291 1.391 1_455 S
C292 C293 1.391 . S
C293 H281 0.950 . S
C293 C289 1.393 1_455 S
C293 C292 1.391 . S
H294 C302 0.950 . S
H295 C307 0.950 . S
H296 C304 0.951 . S
H297 C306 0.950 . S
H298 C308 0.949 . S
H299 C310 0.951 . S
H300 C312 0.950 . S
H301 C313 0.950 . S
C302 H294 0.950 . S
C302 C303 1.385 1_545 S
C302 C304 1.391 . S
C303 C302 1.385 1_565 S
C303 C307 1.393 . S
C304 H296 0.951 . S
C304 C302 1.391 . S
C304 C305 1.399 1_545 S
C305 C304 1.399 1_565 S
C305 C306 1.400 . S
C305 C311 1.490 1_565 S
C306 H297 0.950 . S
C306 C305 1.400 . S
C306 C307 1.391 . S
C307 H295 0.950 . S
C307 C303 1.393 . S
C307 C306 1.391 . S
C308 H298 0.949 . S
C308 C309 1.386 1_565 S
C308 C310 1.391 . S
C309 C308 1.386 1_545 S
C309 C313 1.393 . S
C310 H299 0.951 . S
C310 C308 1.391 . S
C310 C311 1.399 1_565 S
C311 C305 1.490 1_545 S
C311 C310 1.399 1_545 S
C311 C312 1.400 . S
C312 H300 0.950 . S
C312 C311 1.400 . S
C312 C313 1.391 . S
C313 H301 0.950 . S
C313 C309 1.393 . S
C313 C312 1.391 . S
H314 C322 0.950 . S
H315 C327 0.950 . S
H316 C324 0.950 . S
H317 C326 0.950 . S
H318 C328 0.950 . S
H319 C330 0.950 . S
H320 C332 0.950 . S
H321 C333 0.950 . S
C322 H314 0.950 . S
C322 C323 1.401 . S
C322 C324 1.391 . S
C323 C322 1.401 . S
C323 C327 1.378 1_655 S
C324 H316 0.950 . S
C324 C322 1.391 . S
C324 C325 1.407 . S
C325 C324 1.407 . S
C325 C326 1.392 1_655 S
C325 C331 1.490 1_655 S
C326 H317 0.950 . S
C326 C325 1.392 1_455 S
C326 C327 1.391 . S
C327 H315 0.950 . S
C327 C323 1.378 1_455 S
C327 C326 1.391 . S
C328 H318 0.950 . S
C328 C329 1.386 . S
C328 C330 1.391 . S
C329 C328 1.386 . S
C329 C333 1.393 1_455 S
C330 H319 0.950 . S
C330 C328 1.391 . S
C330 C331 1.410 . S
C331 C325 1.490 1_455 S
C331 C330 1.410 . S
C331 C332 1.389 1_455 S
C332 H320 0.950 . S
C332 C331 1.389 1_655 S
C332 C333 1.391 . S
C333 H321 0.950 . S
C333 C329 1.393 1_655 S
C333 C332 1.391 . S
H334 C342 0.950 . S
H335 C347 0.950 . S
H336 C344 0.950 . S
H337 C346 0.950 . S
H338 C348 0.950 . S
H339 C350 0.950 . S
H340 C352 0.950 . S
H341 C353 0.950 . S
C342 H334 0.950 . S
C342 C343 1.386 . S
C342 C344 1.391 . S
C343 C342 1.386 . S
C343 C347 1.393 1_545 S
C344 H336 0.950 . S
C344 C342 1.391 . S
C344 C345 1.408 . S
C345 C344 1.408 . S
C345 C346 1.391 1_545 S
C345 C351 1.490 1_545 S
C346 H337 0.950 . S
C346 C345 1.391 1_565 S
C346 C347 1.391 . S
C347 H335 0.950 . S
C347 C343 1.393 1_565 S
C347 C346 1.391 . S
C348 H338 0.950 . S
C348 C349 1.386 . S
C348 C350 1.391 . S
C349 C348 1.386 . S
C349 C353 1.393 1_565 S
C350 H339 0.950 . S
C350 C348 1.391 . S
C350 C351 1.406 . S
C351 C345 1.490 1_565 S
C351 C350 1.406 . S
C351 C352 1.393 1_565 S
C352 H340 0.950 . S
C352 C351 1.393 1_545 S
C352 C353 1.391 . S
C353 H341 0.950 . S
C353 C349 1.393 1_545 S
C353 C352 1.391 . S
H354 C362 0.950 . S
H355 C367 0.950 . S
H356 C364 0.950 . S
H357 C366 0.950 . S
H358 C368 0.950 . S
H359 C370 0.950 . S
H360 C372 0.950 . S
H361 C373 0.950 . S
C362 H354 0.950 . S
C362 C363 1.386 1_556 S
C362 C364 1.391 . S
C363 C362 1.386 1_554 S
C363 C367 1.393 . S
C364 H356 0.950 . S
C364 C362 1.391 . S
C364 C365 1.400 1_556 S
C365 C364 1.400 1_554 S
C365 C366 1.398 . S
C365 C371 1.491 . S
C366 H357 0.950 . S
C366 C365 1.398 . S
C366 C367 1.391 . S
C367 H355 0.950 . S
C367 C363 1.393 . S
C367 C366 1.391 . S
C368 H358 0.950 . S
C368 C369 1.387 . S
C368 C370 1.391 . S
C369 C368 1.387 . S
C369 C373 1.391 1_554 S
C370 H359 0.950 . S
C370 C368 1.391 . S
C370 C371 1.402 . S
C371 C365 1.491 . S
C371 C370 1.402 . S
C371 C372 1.397 1_554 S
C372 H360 0.950 . S
C372 C371 1.397 1_556 S
C372 C373 1.391 . S
C373 H361 0.950 . S
C373 C369 1.391 1_556 S
C373 C372 1.391 . S
H374 C382 0.950 . S
H375 C387 0.950 . S
H376 C384 0.950 . S
H377 C386 0.950 . S
H378 C388 0.950 . S
H379 C390 0.950 . S
H380 C392 0.950 . S
H381 C393 0.950 . S
C382 H374 0.950 . S
C382 C383 1.386 . S
C382 C384 1.391 . S
C383 C382 1.386 . S
C383 C387 1.393 1_556 S
C384 H376 0.950 . S
C384 C382 1.391 . S
C384 C385 1.407 . S
C385 C384 1.407 . S
C385 C386 1.392 1_556 S
C385 C391 1.490 1_556 S
C386 H377 0.950 . S
C386 C385 1.392 1_554 S
C386 C387 1.391 . S
C387 H375 0.950 . S
C387 C383 1.393 1_554 S
C387 C386 1.391 . S
C388 H378 0.950 . S
C388 C389 1.386 . S
C388 C390 1.391 . S
C389 C388 1.386 . S
C389 C393 1.393 1_554 S
C390 H379 0.950 . S
C390 C388 1.391 . S
C390 C391 1.410 . S
C391 C385 1.490 1_554 S
C391 C390 1.410 . S
C391 C392 1.389 1_554 S
C392 H380 0.950 . S
C392 C391 1.389 1_556 S
C392 C393 1.391 . S
C393 H381 0.950 . S
C393 C389 1.393 1_556 S
C393 C392 1.391 . S
H394 C402 0.950 . S
H395 C407 0.950 . S
H396 C404 0.950 . S
H397 C406 0.950 . S
H398 C408 0.950 . S
H399 C410 0.950 . S
H400 C412 0.950 . S
H401 C413 0.950 . S
C402 H394 0.950 . S
C402 C403 1.386 . S
C402 C404 1.391 . S
C403 C402 1.386 . S
C403 C407 1.393 1_554 S
C404 H396 0.950 . S
C404 C402 1.391 . S
C404 C405 1.410 . S
C405 C404 1.410 . S
C405 C406 1.389 1_554 S
C405 C411 1.490 1_554 S
C406 H397 0.950 . S
C406 C405 1.389 1_556 S
C406 C407 1.391 . S
C407 H395 0.950 . S
C407 C403 1.393 1_556 S
C407 C406 1.391 . S
C408 H398 0.950 . S
C408 C409 1.386 . S
C408 C410 1.391 . S
C409 C408 1.386 . S
C409 C413 1.393 1_556 S
C410 H399 0.950 . S
C410 C408 1.391 . S
C410 C411 1.407 . S
C411 C405 1.490 1_556 S
C411 C410 1.407 . S
C411 C412 1.392 1_556 S
C412 H400 0.950 . S
C412 C411 1.392 1_554 S
C412 C413 1.391 . S
C413 H401 0.950 . S
C413 C409 1.393 1_554 S
C413 C412 1.391 . S
H414 C422 0.950 . S
H415 C427 0.950 . S
H416 C424 0.950 . S
H417 C426 0.950 . S
H418 C428 0.950 . S
H419 C430 0.950 . S
H420 C432 0.950 . S
H421 C433 0.950 . S
C422 H414 0.950 . S
C422 C423 1.386 . S
C422 C424 1.391 . S
C423 C422 1.386 . S
C423 C427 1.393 1_556 S
C424 H416 0.950 . S
C424 C422 1.391 . S
C424 C425 1.407 . S
C425 C424 1.407 . S
C425 C426 1.392 1_556 S
C425 C431 1.490 1_556 S
C426 H417 0.950 . S
C426 C425 1.392 1_554 S
C426 C427 1.391 . S
C427 H415 0.950 . S
C427 C423 1.393 1_554 S
C427 C426 1.391 . S
C428 H418 0.950 . S
C428 C429 1.386 . S
C428 C430 1.391 . S
C429 C428 1.386 . S
C429 C433 1.393 1_554 S
C430 H419 0.950 . S
C430 C428 1.391 . S
C430 C431 1.410 . S
C431 C425 1.490 1_554 S
C431 C430 1.410 . S
C431 C432 1.390 1_554 S
C432 H420 0.950 . S
C432 C431 1.390 1_556 S
C432 C433 1.391 . S
C433 H421 0.950 . S
C433 C429 1.393 1_556 S
C433 C432 1.391 . S
C209 C145 1.866 . S
C203 C36 1.857 . S
C229 C152 1.260 . S
C223 C78 1.239 . S
C249 C147 1.862 . S
C243 C30 1.833 . S
C269 C153 1.263 . S
C263 C69 1.257 1_565 S
C283 C21 1.859 . S
C289 C146 1.869 1_655 S
C309 C155 1.260 . S
C303 C93 1.249 1_565 S
C323 C45 1.844 1_655 S
C329 C144 1.865 . S
C343 C84 1.261 1_545 S
C349 C154 1.267 1_565 S
C363 C132 1.543 . S
C369 C149 1.540 . S
C383 C126 1.526 1_556 S
C389 C148 1.541 . S
C409 C151 1.542 1_556 S
C403 C141 1.533 1_554 S
C429 C150 1.543 . S
C423 C117 1.544 . S
