# Generated by pormake.
# Topology pth, (4,4)-cn, num edge types: 1
# Building blocks:
#     Node 0, Type 0, BuildingBlock: GALJAG_clean_sbu_0, # of connection points: 4
#     Node 1, Type 0, BuildingBlock: GALJAG_clean_sbu_0, # of connection points: 4
#     Node 2, Type 0, BuildingBlock: GALJAG_clean_sbu_0, # of connection points: 4
#     Node 3, Type 1, BuildingBlock: MUDLON_clean_linker_0, # of connection points: 4
#     Node 4, Type 1, BuildingBlock: MUDLON_clean_linker_0, # of connection points: 4
#     Node 5, Type 1, BuildingBlock: MUDLON_clean_linker_0, # of connection points: 4
#     Edge 6, Type (0, 1), BuildingBlock: OJICUG_clean_linker_0, # of connection points: 2
#     Edge 7, Type (0, 1), BuildingBlock: OJICUG_clean_linker_0, # of connection points: 2
#     Edge 8, Type (0, 1), BuildingBlock: OJICUG_clean_linker_0, # of connection points: 2
#     Edge 9, Type (0, 1), BuildingBlock: OJICUG_clean_linker_0, # of connection points: 2
#     Edge 10, Type (0, 1), BuildingBlock: OJICUG_clean_linker_0, # of connection points: 2
#     Edge 11, Type (0, 1), BuildingBlock: OJICUG_clean_linker_0, # of connection points: 2
#     Edge 12, Type (0, 1), BuildingBlock: OJICUG_clean_linker_0, # of connection points: 2
#     Edge 13, Type (0, 1), BuildingBlock: OJICUG_clean_linker_0, # of connection points: 2
#     Edge 14, Type (0, 1), BuildingBlock: OJICUG_clean_linker_0, # of connection points: 2
#     Edge 15, Type (0, 1), BuildingBlock: OJICUG_clean_linker_0, # of connection points: 2
#     Edge 16, Type (0, 1), BuildingBlock: OJICUG_clean_linker_0, # of connection points: 2
#     Edge 17, Type (0, 1), BuildingBlock: OJICUG_clean_linker_0, # of connection points: 2
# Relax obj value: 0.017
# Max RMSD: 0.066
# Mean RMSD: 0.062
data_MOF--net-pth--node1-GALJAG_clean_sbu_0--node2-MUDLON_clean_linker_0--edge1-OJICUG_clean_linker_0
_symmetry_space_group_name_H-M    P1
_symmetry_Int_Tables_number       1
_symmetry_cell_setting            triclinic
loop_
_symmetry_equiv_pos_as_xyz
'x, y, z'
_cell_length_a     27.338842
_cell_length_b     27.344734
_cell_length_c     53.154036
_cell_angle_alpha  90.079174
_cell_angle_beta   90.219331
_cell_angle_gamma 120.03147
loop_
_atom_site_label
_atom_site_type_symbol
_atom_site_fract_x
_atom_site_fract_y
_atom_site_fract_z
_atom_type_partial_charge
In0 In 0.99169 0.01454 0.02414 0.0
O1 O 0.96223 0.07125 0.04252 0.0
O2 O 0.03297 0.06952 0.05835 0.0
C3 C 0.90968 0.9539 0.99016 0.0
C4 C 0.07876 0.08318 0.99422 0.0
C5 C 0.97996 0.9299 0.05407 0.0
O6 O 0.9052 0.98628 0.00582 0.0
O7 O 0.95539 0.95327 0.99154 0.0
O8 O 0.02512 0.96119 0.0423 0.0
O9 O 0.94125 0.94165 0.05081 0.0
C10 C 1.00029 0.08955 0.0593 0.0
O11 O 0.07553 0.04011 0.00456 0.0
O12 O 0.03812 0.09122 -0.00112 0.0
In13 In 0.00243 0.00506 0.35714 0.0
O14 O 0.05686 0.09288 0.33997 0.0
O15 O 0.97302 0.04138 0.32614 0.0
C16 C 0.07556 0.99299 0.38709 0.0
C17 C 0.93304 0.01329 0.39079 0.0
C18 C 0.9828 0.92363 0.32352 0.0
O19 O 0.08866 0.03933 0.37655 0.0
O20 O 0.02598 0.9536 0.38269 0.0
O21 O 0.94537 0.91922 0.33877 0.0
O22 O 0.02951 0.96917 0.32518 0.0
C23 C 0.01865 0.0879 0.32494 0.0
O24 O 0.91657 0.97065 0.37666 0.0
O25 O 0.98402 0.05075 0.38803 0.0
In26 In 0.00818 0.00504 0.692 0.0
O27 O 0.94934 0.91433 0.70557 0.0
O28 O 0.96119 0.98212 0.72919 0.0
C29 C 0.07469 0.99191 0.65867 0.0
C30 C 0.93735 0.02152 0.66213 0.0
C31 C 0.0909 0.07958 0.72238 0.0
O32 O 0.0414 0.95246 0.67301 0.0
O33 O 0.0738 0.03739 0.66098 0.0
O34 O 0.05277 0.08843 0.71379 0.0
O35 O 0.08688 0.03335 0.71572 0.0
C36 C 0.93724 0.9295 0.72593 0.0
O37 O 0.97439 0.06051 0.67571 0.0
O38 O 0.9364 0.97514 0.66374 0.0
H39 H 0.84817 0.66701 0.20685 0.0
N40 N 0.92612 0.64878 0.18647 0.0
H41 H 0.86007 0.72996 0.24199 0.0
H42 H 0.01875 0.70098 0.2177 0.0
H43 H 0.03046 0.76239 0.2532 0.0
H44 H 0.02255 0.7489 0.17606 0.0
H45 H 0.03597 0.81201 0.14129 0.0
H46 H 0.8576 0.62832 0.14732 0.0
H47 H 0.87109 0.69144 0.11199 0.0
H48 H 0.86875 0.54232 0.20172 0.0
H49 H 0.03138 0.66693 0.173 0.0
H50 H 0.90118 0.47346 0.20396 0.0
H51 H 0.06363 0.59876 0.17512 0.0
H52 H 0.96626 0.29288 0.21527 0.0
H53 H 0.95499 0.22816 0.24904 0.0
H54 H 0.13675 0.30781 0.25592 0.0
H55 H 0.14722 0.37453 0.22296 0.0
H56 H 0.14338 0.36336 0.16782 0.0
H57 H 0.12727 0.2977 0.1333 0.0
H58 H 0.94776 0.23591 0.13744 0.0
H59 H 0.96479 0.30356 0.17121 0.0
H60 H 0.00674 0.39408 0.23124 0.0
H61 H 0.97237 0.45993 0.22838 0.0
H62 H 0.04403 0.5093 0.15426 0.0
N63 N 0.06631 0.37251 0.19441 0.0
H64 H 0.07842 0.44267 0.15679 0.0
C65 C 0.93222 0.67904 0.20962 0.0
C66 C 0.88764 0.68694 0.21724 0.0
C67 C 0.89454 0.72283 0.23736 0.0
C68 C 0.94641 0.7516 0.25029 0.0
C69 C 0.99029 0.74162 0.24336 0.0
C70 C 0.98341 0.70592 0.22318 0.0
C71 C 0.93876 0.68355 0.16433 0.0
C72 C 0.98961 0.73532 0.16198 0.0
C73 C 0.99738 0.77146 0.14196 0.0
C74 C 0.95449 0.75689 0.12393 0.0
C75 C 0.90466 0.70416 0.12575 0.0
C76 C 0.89701 0.66789 0.14577 0.0
C77 C 0.94698 0.60957 0.18694 0.0
C78 C 0.91126 0.55472 0.19581 0.0
C79 C 0.92994 0.51565 0.1972 0.0
C80 C 0.98488 0.53068 0.18961 0.0
C81 C 0.02078 0.58569 0.18075 0.0
C82 C 0.00223 0.62487 0.17955 0.0
C83 C 0.05782 0.33925 0.21679 0.0
C84 C 0.00365 0.2972 0.2244 0.0
C85 C 0.99734 0.2597 0.2436 0.0
C86 C 0.04496 0.26201 0.25511 0.0
C87 C 0.09902 0.30504 0.24785 0.0
C88 C 0.10521 0.34327 0.22897 0.0
C89 C 0.0555 0.33801 0.1722 0.0
C90 C 0.10076 0.33625 0.16093 0.0
C91 C 0.0913 0.29831 0.14142 0.0
C92 C 0.03607 0.2608 0.13288 0.0
C93 C 0.99081 0.26426 0.14349 0.0
C94 C 1.00041 0.30259 0.16295 0.0
C95 C 0.04313 0.41023 0.19354 0.0
C96 C 0.01403 0.41719 0.2139 0.0
C97 C 0.99446 0.45558 0.21243 0.0
C98 C 0.0048 0.48924 0.19098 0.0
C99 C 0.03525 0.48384 0.17103 0.0
C100 C 0.05442 0.44521 0.17239 0.0
H101 H 0.80806 0.14891 0.54687 0.0
N102 N 0.71228 0.06997 0.52616 0.0
H103 H 0.85891 0.13853 0.58246 0.0
H104 H 0.67184 0.97843 0.55741 0.0
H105 H 0.72122 0.96813 0.59364 0.0
H106 H 0.71406 0.97267 0.51567 0.0
H107 H 0.76358 0.95789 0.48101 0.0
H108 H 0.76401 0.13913 0.48788 0.0
H109 H 0.81319 0.12435 0.45277 0.0
H110 H 0.65971 0.11387 0.55153 0.0
H111 H 0.62705 0.97651 0.50125 0.0
H112 H 0.55885 0.08157 0.55258 0.0
H113 H 0.52789 0.9469 0.5007 0.0
H114 H 0.28518 0.03123 0.53064 0.0
H115 H 0.23455 0.04478 0.56491 0.0
H116 H 0.21164 0.89211 0.60011 0.0
H117 H 0.25932 0.87713 0.5646 0.0
H118 H 0.19529 0.86566 0.50568 0.0
H119 H 0.14484 0.87788 0.47068 0.0
H120 H 0.29488 0.03506 0.45171 0.0
H121 H 0.34359 0.0242 0.48753 0.0
H122 H 0.3846 0.04717 0.52917 0.0
H123 H 0.48494 0.07773 0.52981 0.0
H124 H 0.44408 0.90361 0.52233 0.0
N125 N 0.2971 0.93873 0.52304 0.0
H126 H 0.34395 0.87439 0.51979 0.0
C127 C 0.73637 0.06471 0.5495 0.0
C128 C 0.78856 0.10975 0.55734 0.0
C129 C 0.81739 0.10373 0.57776 0.0
C130 C 0.79439 0.05234 0.59088 0.0
C131 C 0.74065 0.00798 0.58371 0.0
C132 C 0.71204 0.01395 0.56314 0.0
C133 C 0.7356 0.05737 0.5044 0.0
C134 C 0.73514 0.00583 0.50193 0.0
C135 C 0.76313 0.99723 0.48198 0.0
C136 C 0.79253 0.04007 0.46423 0.0
C137 C 0.79144 0.09081 0.46632 0.0
C138 C 0.76314 0.09923 0.48621 0.0
C139 C 0.65186 0.04836 0.52634 0.0
C140 C 0.63095 0.07704 0.54059 0.0
C141 C 0.57319 0.05877 0.54092 0.0
C142 C 0.53471 0.01169 0.52656 0.0
C143 C 0.5557 0.98269 0.51238 0.0
C144 C 0.61328 1.00025 0.51249 0.0
C145 C 0.2751 0.95245 0.54488 0.0
C146 C 0.26957 0.00085 0.54579 0.0
C147 C 0.24085 0.00876 0.56563 0.0
C148 C 0.21816 0.96918 0.58529 0.0
C149 C 0.22702 0.92268 0.58502 0.0
C150 C 0.25486 0.91432 0.56492 0.0
C151 C 0.27321 0.94351 0.49946 0.0
C152 C 0.21752 0.90224 0.49367 0.0
C153 C 0.18882 0.90933 0.47351 0.0
C154 C 0.21554 0.95774 0.45826 0.0
C155 C 0.27242 0.99784 0.4633 0.0
C156 C 0.3008 0.99118 0.48379 0.0
C157 C 0.35685 0.95844 0.52388 0.0
C158 C 0.39736 0.01574 0.52734 0.0
C159 C 0.45491 0.03304 0.52805 0.0
C160 C 0.47322 0.9933 0.52605 0.0
C161 C 0.43215 0.93581 0.52328 0.0
C162 C 0.37476 0.9188 0.522 0.0
H163 H 0.66491 0.81865 0.86817 0.0
N164 N 0.64455 0.71663 0.85438 0.0
H165 H 0.72336 0.87576 0.9036 0.0
H166 H 0.68107 0.67796 0.89425 0.0
H167 H 0.73803 0.73403 0.92947 0.0
H168 H 0.75004 0.72721 0.85479 0.0
H169 H 0.82194 0.77188 0.82232 0.0
H170 H 0.63094 0.74639 0.80836 0.0
H171 H 0.7027 0.78923 0.77525 0.0
H172 H 0.53291 0.66937 0.85462 0.0
H173 H 0.66627 0.62891 0.85505 0.0
H174 H 0.4625 0.56885 0.85503 0.0
H175 H 0.59693 0.52885 0.85738 0.0
H176 H 0.26022 0.297 0.86994 0.0
H177 H 0.1962 0.24781 0.90437 0.0
H178 H 0.31865 0.20917 0.93631 0.0
H179 H 0.38173 0.2567 0.90081 0.0
H180 H 0.33682 0.20235 0.84174 0.0
H181 H 0.27497 0.15236 0.80628 0.0
H182 H 0.25462 0.29681 0.79163 0.0
H183 H 0.31411 0.34505 0.82807 0.0
H184 H 0.35011 0.3892 0.88079 0.0
H185 H 0.41982 0.48879 0.8796 0.0
H186 H 0.52973 0.45121 0.83547 0.0
N187 N 0.36092 0.30171 0.86064 0.0
H188 H 0.46101 0.35067 0.83846 0.0
C189 C 0.66848 0.74406 0.87822 0.0
C190 C 0.67951 0.79953 0.88189 0.0
C191 C 0.71287 0.83206 0.90213 0.0
C192 C 0.73597 0.80959 0.91907 0.0
C193 C 0.72163 0.7528 0.91643 0.0
C194 C 0.6884 0.72037 0.89624 0.0
C195 C 0.68514 0.73455 0.83421 0.0
C196 C 0.73889 0.74009 0.8375 0.0
C197 C 0.77999 0.7654 0.81891 0.0
C198 C 0.76764 0.78399 0.79646 0.0
C199 C 0.71294 0.77489 0.79242 0.0
C200 C 0.67214 0.75066 0.81125 0.0
C201 C 0.60467 0.65679 0.85507 0.0
C202 C 0.54688 0.63866 0.85514 0.0
C203 C 0.50676 0.58109 0.85561 0.0
C204 C 0.52367 0.54017 0.85644 0.0
C205 C 0.58193 0.55867 0.85633 0.0
C206 C 0.62192 0.61622 0.85531 0.0
C207 C 0.32576 0.28006 0.88268 0.0
C208 C 0.27358 0.27836 0.8844 0.0
C209 C 0.23708 0.2505 0.90432 0.0
C210 C 0.252 0.2241 0.92313 0.0
C211 C 0.30532 0.2281 0.92193 0.0
C212 C 0.34169 0.2557 0.90185 0.0
C213 C 0.33054 0.27738 0.83747 0.0
C214 C 0.31962 0.2234 0.8306 0.0
C215 C 0.2844 0.19508 0.8102 0.0
C216 C 0.25964 0.22046 0.79594 0.0
C217 C 0.27219 0.27555 0.80236 0.0
C218 C 0.3069 0.30358 0.82303 0.0
C219 C 0.40063 0.36178 0.86004 0.0
C220 C 0.38932 0.40189 0.87112 0.0
C221 C 0.42929 0.45947 0.87012 0.0
C222 C 0.48091 0.47865 0.85748 0.0
C223 C 0.49133 0.4384 0.84593 0.0
C224 C 0.45187 0.38079 0.84741 0.0
C225 C 0.97581 0.15962 0.07721 0.0
C226 C 0.00763 0.13222 0.0783 0.0
H227 H 0.96045 0.2226 0.09333 0.0
C228 C 0.04805 0.14685 0.09749 0.0
H229 H 0.94448 0.14929 0.06255 0.0
C230 C 0.0569 0.18828 0.11514 0.0
C231 C 0.02583 0.21651 0.11395 0.0
H232 H 0.073 0.12622 0.09894 0.0
H233 H 0.08782 0.19777 0.12991 0.0
C234 C 0.98487 0.20146 0.09487 0.0
C235 C 0.91625 0.07083 0.4223 0.0
C236 C 0.89607 0.01976 0.40906 0.0
H237 H 0.89946 0.1171 0.45005 0.0
C238 C 0.84087 0.97556 0.41357 0.0
H239 H 0.95862 0.10571 0.41924 0.0
C240 C 0.80681 0.98217 0.43128 0.0
C241 C 0.8272 0.03326 0.44462 0.0
H242 H 0.82419 0.93578 0.40358 0.0
H243 H 0.76447 0.94741 0.43449 0.0
C244 C 0.88219 0.07755 0.43982 0.0
C245 C 0.85175 0.83686 0.73628 0.0
C246 C 0.89641 0.88952 0.74416 0.0
H247 H 0.77475 0.76213 0.7468 0.0
C248 C 0.89989 0.90554 0.7695 0.0
H249 H 0.84803 0.82381 0.71678 0.0
C250 C 0.85901 0.86993 0.78662 0.0
C251 C 0.81322 0.8183 0.77858 0.0
H252 H 0.93395 0.94592 0.77603 0.0
H253 H 0.86208 0.8836 0.80599 0.0
C254 C 0.8099 0.80179 0.75333 0.0
C255 C 0.01814 0.87423 0.07545 0.0
C256 C 0.97296 0.88372 0.07078 0.0
H257 H 0.04755 0.82604 0.09565 0.0
C258 C 0.921 0.84935 0.08268 0.0
H259 H 0.05861 0.89992 0.06645 0.0
C260 C 0.91465 0.80715 0.09933 0.0
C261 C 0.96017 0.79844 0.10452 0.0
H262 H 0.88537 0.85559 0.07943 0.0
H263 H 0.87454 0.78256 0.10877 0.0
C264 C 0.01185 0.83207 0.0922 0.0
C265 C 0.15945 0.03113 0.4159 0.0
C266 C 0.11436 0.98502 0.40369 0.0
H267 H 0.22567 0.05878 0.44322 0.0
C268 C 0.10502 0.93045 0.40818 0.0
H269 H 0.16739 0.07364 0.41281 0.0
C270 C 0.13932 0.92189 0.42502 0.0
C271 C 0.18303 0.96761 0.43825 0.0
H272 H 0.07094 0.8942 0.39872 0.0
H273 H 0.13104 0.87921 0.42783 0.0
C274 C 0.19311 0.0225 0.43319 0.0
C275 C 0.12986 0.15946 0.75338 0.0
C276 C 0.13594 0.11904 0.7396 0.0
H277 H 0.16323 0.22218 0.78241 0.0
C278 C 0.18457 0.11481 0.74316 0.0
H279 H 0.09262 0.16344 0.75104 0.0
C280 C 0.22575 0.14934 0.76064 0.0
C281 C 0.21875 0.18818 0.77538 0.0
H282 H 0.19067 0.08446 0.73252 0.0
H283 H 0.26281 0.14502 0.76278 0.0
C284 C 0.17062 0.19339 0.77124 0.0
C285 C 0.89891 0.08047 0.64415 0.0
C286 C 0.89892 0.02916 0.64505 0.0
H287 H 0.86479 0.12771 0.62681 0.0
C288 C 0.8625 0.98489 0.62896 0.0
H289 H 0.92632 0.11521 0.65645 0.0
C290 C 0.82777 0.99211 0.61187 0.0
C291 C 0.82826 0.04371 0.61055 0.0
H292 H 0.8616 0.94484 0.62915 0.0
H293 H 0.80186 0.95769 0.59915 0.0
C294 C 0.86382 0.08764 0.62711 0.0
C295 C 0.8152 0.92099 0.96953 0.0
C296 C 0.86471 0.91777 0.97208 0.0
H297 H 0.73514 0.88897 0.95073 0.0
C298 C 0.87108 0.87872 0.95732 0.0
H299 H 0.80918 0.9507 0.9807 0.0
C300 C 0.82893 0.84345 0.94044 0.0
C301 C 0.77933 0.84641 0.9378 0.0
H302 H 0.90876 0.87523 0.95881 0.0
H303 H 0.83567 0.81442 0.92911 0.0
C304 C 0.77295 0.88578 0.9524 0.0
C305 C 0.92186 0.82765 0.30449 0.0
C306 C 0.97326 0.87904 0.30518 0.0
H307 H 0.87334 0.7465 0.28694 0.0
C308 C 0.01596 0.88766 0.28815 0.0
H309 H 0.88829 0.81974 0.31748 0.0
C310 C 0.00738 0.84601 0.27063 0.0
C311 C 0.95593 0.7946 0.26978 0.0
H312 H 0.05601 0.9269 0.28817 0.0
H313 H 0.04074 0.8547 0.25738 0.0
C314 C 0.91328 0.78581 0.28696 0.0
C315 C 0.10143 0.93221 0.63305 0.0
C316 C 0.11232 0.98585 0.64071 0.0
H317 H 0.12495 0.88476 0.60908 0.0
C318 C 0.15935 0.03397 0.6309 0.0
H319 H 0.06528 0.89442 0.64027 0.0
C320 C 0.19465 0.0286 0.61356 0.0
C321 C 0.18307 0.97494 0.60522 0.0
H322 H 0.16911 0.07589 0.63675 0.0
H323 H 0.23101 0.06665 0.60671 0.0
C324 C 0.13607 0.92679 0.61532 0.0
C325 C 0.13168 0.17271 0.96992 0.0
C326 C 0.12553 0.12073 0.97746 0.0
H327 H 0.17753 0.247 0.94766 0.0
C328 C 0.16335 0.10446 0.96826 0.0
H329 H 0.10351 0.18665 0.97694 0.0
C330 C 0.20531 0.13864 0.95112 0.0
C331 C 0.21069 0.19012 0.94303 0.0
H332 H 0.15951 0.06454 0.97373 0.0
H333 H 0.23224 0.12369 0.94358 0.0
C334 C 0.17398 0.20717 0.95304 0.0
C335 C 0.988 0.11977 0.28721 0.0
C336 C 0.02608 0.1327 0.30727 0.0
H337 H 0.96502 0.14949 0.25472 0.0
C338 C 0.07039 0.18852 0.31035 0.0
H339 H 0.95367 0.07698 0.28426 0.0
C340 C 0.07616 0.23076 0.29373 0.0
C341 C 0.03819 0.21785 0.27347 0.0
H342 H 0.10012 0.19969 0.32579 0.0
H343 H 0.11008 0.27359 0.29694 0.0
C344 C 0.99425 0.16164 0.2704 0.0
loop_
_geom_bond_atom_site_label_1
_geom_bond_atom_site_label_2
_geom_bond_distance
_geom_bond_site_symmetry_2
_ccdc_geom_bond_type
In0 O1 2.294 1_455 S
In0 O2 2.326 . S
In0 O6 2.266 1_445 S
In0 O7 2.326 1_444 S
In0 O8 2.266 1_545 S
In0 O9 2.326 1_445 S
In0 O11 2.294 . S
In0 O12 2.302 1_554 S
O1 In0 2.294 1_655 S
O1 C10 1.240 1_655 S
O2 In0 2.326 . S
O2 C10 1.252 . S
C3 O6 1.252 1_556 S
C3 O7 1.260 . S
C4 O11 1.240 1_556 S
C4 O12 1.255 . S
C5 O8 1.252 . S
C5 O9 1.260 1_455 S
O6 In0 2.266 1_665 S
O6 C3 1.252 1_554 S
O7 In0 2.326 1_666 S
O7 C3 1.260 . S
O8 In0 2.266 1_565 S
O8 C5 1.252 . S
O9 In0 2.326 1_665 S
O9 C5 1.260 1_655 S
C10 O1 1.240 1_455 S
C10 O2 1.252 . S
O11 In0 2.294 . S
O11 C4 1.240 1_554 S
O12 In0 2.302 1_556 S
O12 C4 1.255 . S
In13 O14 2.294 . S
In13 O15 2.326 1_455 S
In13 O19 2.266 . S
In13 O20 2.326 1_545 S
In13 O21 2.266 1_445 S
In13 O22 2.326 1_545 S
In13 O24 2.294 1_445 S
In13 O25 2.326 1_455 S
O14 In13 2.294 . S
O14 C23 1.240 1_455 S
O15 In13 2.326 1_655 S
O15 C23 1.252 . S
C16 O19 1.234 1_565 S
C16 O20 1.268 . S
C17 O24 1.240 1_545 S
C17 O25 1.252 . S
C18 O21 1.252 1_455 S
C18 O22 1.260 . S
O19 In13 2.266 . S
O19 C16 1.234 1_545 S
O20 In13 2.326 1_565 S
O20 C16 1.268 . S
O21 In13 2.266 1_665 S
O21 C18 1.252 1_655 S
O22 In13 2.326 1_565 S
O22 C18 1.260 . S
C23 O14 1.240 1_655 S
C23 O15 1.252 . S
O24 In13 2.294 1_665 S
O24 C17 1.240 1_565 S
O25 In13 2.326 1_655 S
O25 C17 1.252 . S
In26 O27 2.294 1_445 S
In26 O28 2.326 1_445 S
In26 O32 2.266 1_545 S
In26 O33 2.326 . S
In26 O34 2.266 . S
In26 O35 2.326 . S
In26 O37 2.294 1_455 S
In26 O38 2.326 1_445 S
O27 In26 2.294 1_665 S
O27 C36 1.240 . S
O28 In26 2.326 1_665 S
O28 C36 1.252 . S
C29 O32 1.252 1_545 S
C29 O33 1.260 . S
C30 O37 1.240 1_565 S
C30 O38 1.252 . S
C31 O34 1.252 . S
C31 O35 1.260 . S
O32 In26 2.266 1_565 S
O32 C29 1.252 1_565 S
O33 In26 2.326 . S
O33 C29 1.260 . S
O34 In26 2.266 . S
O34 C31 1.252 . S
O35 In26 2.326 . S
O35 C31 1.260 . S
C36 O27 1.240 . S
C36 O28 1.252 . S
O37 In26 2.294 1_655 S
O37 C30 1.240 1_545 S
O38 In26 2.326 1_665 S
O38 C30 1.252 . S
H39 C66 0.929 . S
N40 C65 1.433 . S
N40 C71 1.435 . S
N40 C77 1.423 . S
H41 C67 0.930 . S
H42 C70 0.931 . S
H43 C69 0.929 . S
H44 C72 0.930 . S
H45 C73 0.932 . S
H46 C76 0.929 . S
H47 C75 0.931 . S
H48 C78 0.929 . S
H49 C82 0.932 . S
H50 C79 0.931 . S
H51 C81 0.929 1_455 S
H52 C84 0.929 . S
H53 C85 0.930 . S
H54 C87 0.929 . S
H55 C88 0.931 . S
H56 C90 0.930 . S
H57 C91 0.932 . S
H58 C93 0.931 . S
H59 C94 0.929 . S
H60 C96 0.929 . S
H61 C97 0.931 . S
H62 C99 0.929 1_455 S
N63 C83 1.433 . S
N63 C89 1.435 . S
N63 C95 1.423 . S
H64 C100 0.932 . S
C65 N40 1.433 . S
C65 C66 1.363 . S
C65 C70 1.370 1_655 S
C66 H39 0.929 . S
C66 C65 1.363 . S
C66 C67 1.385 . S
C67 H41 0.930 . S
C67 C66 1.385 . S
C67 C68 1.357 . S
C68 C67 1.357 . S
C68 C69 1.406 1_655 S
C69 H43 0.929 . S
C69 C68 1.406 1_455 S
C69 C70 1.391 . S
C70 H42 0.931 . S
C70 C65 1.370 1_455 S
C70 C69 1.391 . S
C71 N40 1.435 . S
C71 C72 1.358 1_655 S
C71 C76 1.371 . S
C72 H44 0.930 . S
C72 C71 1.358 1_455 S
C72 C73 1.405 . S
C73 H45 0.932 . S
C73 C72 1.405 . S
C73 C74 1.383 . S
C74 C73 1.383 . S
C74 C75 1.393 1_455 S
C75 H47 0.931 . S
C75 C74 1.393 1_655 S
C75 C76 1.382 . S
C76 H46 0.929 . S
C76 C71 1.371 . S
C76 C75 1.382 . S
C77 N40 1.423 . S
C77 C78 1.362 . S
C77 C82 1.388 1_655 S
C78 H48 0.929 . S
C78 C77 1.362 . S
C78 C79 1.376 . S
C79 H50 0.931 . S
C79 C78 1.376 . S
C79 C80 1.396 . S
C80 C79 1.396 . S
C80 C81 1.348 . S
C80 C98 1.472 . S
C81 H51 0.929 1_655 S
C81 C80 1.348 . S
C81 C82 1.443 1_655 S
C82 H49 0.932 . S
C82 C77 1.388 1_455 S
C82 C81 1.443 1_455 S
C83 N63 1.433 . S
C83 C84 1.363 . S
C83 C88 1.370 1_655 S
C84 H52 0.929 . S
C84 C83 1.363 . S
C84 C85 1.385 . S
C85 H53 0.930 . S
C85 C84 1.385 . S
C85 C86 1.357 . S
C86 C85 1.357 . S
C86 C87 1.406 1_655 S
C87 H54 0.929 . S
C87 C86 1.406 1_455 S
C87 C88 1.391 . S
C88 H55 0.931 . S
C88 C83 1.370 1_455 S
C88 C87 1.391 . S
C89 N63 1.435 . S
C89 C90 1.358 1_655 S
C89 C94 1.371 . S
C90 H56 0.930 . S
C90 C89 1.358 1_455 S
C90 C91 1.405 . S
C91 H57 0.932 . S
C91 C90 1.405 . S
C91 C92 1.383 . S
C92 C91 1.383 . S
C92 C93 1.393 1_455 S
C93 H58 0.931 . S
C93 C92 1.393 1_655 S
C93 C94 1.382 . S
C94 H59 0.929 . S
C94 C89 1.371 . S
C94 C93 1.382 . S
C95 N63 1.423 . S
C95 C96 1.362 . S
C95 C100 1.388 1_655 S
C96 H60 0.929 . S
C96 C95 1.362 . S
C96 C97 1.376 . S
C97 H61 0.931 . S
C97 C96 1.376 . S
C97 C98 1.396 . S
C98 C80 1.472 . S
C98 C97 1.396 . S
C98 C99 1.348 . S
C99 H62 0.929 1_655 S
C99 C98 1.348 . S
C99 C100 1.443 1_655 S
C100 H64 0.932 . S
C100 C95 1.388 1_455 S
C100 C99 1.443 1_455 S
H101 C128 0.929 . S
N102 C127 1.433 . S
N102 C133 1.435 . S
N102 C139 1.423 . S
H103 C129 0.930 . S
H104 C132 0.931 . S
H105 C131 0.929 . S
H106 C134 0.930 . S
H107 C135 0.932 . S
H108 C138 0.929 . S
H109 C137 0.931 . S
H110 C140 0.929 . S
H111 C144 0.932 1_565 S
H112 C141 0.931 . S
H113 C143 0.929 1_565 S
H114 C146 0.929 . S
H115 C147 0.930 . S
H116 C149 0.929 . S
H117 C150 0.931 . S
H118 C152 0.930 . S
H119 C153 0.932 . S
H120 C155 0.931 . S
H121 C156 0.929 . S
H122 C158 0.929 . S
H123 C159 0.931 . S
H124 C161 0.929 1_565 S
N125 C145 1.433 . S
N125 C151 1.435 . S
N125 C157 1.423 . S
H126 C162 0.932 1_565 S
C127 N102 1.433 . S
C127 C128 1.363 . S
C127 C132 1.370 1_545 S
C128 H101 0.929 . S
C128 C127 1.363 . S
C128 C129 1.385 . S
C129 H103 0.930 . S
C129 C128 1.385 . S
C129 C130 1.357 . S
C130 C129 1.357 . S
C130 C131 1.406 1_545 S
C131 H105 0.929 . S
C131 C130 1.406 1_565 S
C131 C132 1.391 . S
C132 H104 0.931 . S
C132 C127 1.370 1_565 S
C132 C131 1.391 . S
C133 N102 1.435 . S
C133 C134 1.358 1_545 S
C133 C138 1.371 . S
C134 H106 0.930 . S
C134 C133 1.358 1_565 S
C134 C135 1.405 . S
C135 H107 0.932 . S
C135 C134 1.405 . S
C135 C136 1.383 1_565 S
C136 C135 1.383 1_545 S
C136 C137 1.393 . S
C137 H109 0.931 . S
C137 C136 1.393 . S
C137 C138 1.382 . S
C138 H108 0.929 . S
C138 C133 1.371 . S
C138 C137 1.382 . S
C139 N102 1.423 . S
C139 C140 1.362 . S
C139 C144 1.388 . S
C140 H110 0.929 . S
C140 C139 1.362 . S
C140 C141 1.376 . S
C141 H112 0.931 . S
C141 C140 1.376 . S
C141 C142 1.396 . S
C142 C141 1.396 . S
C142 C143 1.348 . S
C142 C160 1.472 . S
C143 H113 0.929 1_545 S
C143 C142 1.348 . S
C143 C144 1.443 . S
C144 H111 0.932 1_545 S
C144 C139 1.388 . S
C144 C143 1.443 . S
C145 N125 1.433 . S
C145 C146 1.363 . S
C145 C150 1.370 1_545 S
C146 H114 0.929 . S
C146 C145 1.363 . S
C146 C147 1.385 . S
C147 H115 0.930 . S
C147 C146 1.385 . S
C147 C148 1.357 . S
C148 C147 1.357 . S
C148 C149 1.406 1_545 S
C149 H116 0.929 . S
C149 C148 1.406 1_565 S
C149 C150 1.391 . S
C150 H117 0.931 . S
C150 C145 1.370 1_565 S
C150 C149 1.391 . S
C151 N125 1.435 . S
C151 C152 1.358 1_545 S
C151 C156 1.371 . S
C152 H118 0.930 . S
C152 C151 1.358 1_565 S
C152 C153 1.405 . S
C153 H119 0.932 . S
C153 C152 1.405 . S
C153 C154 1.383 1_565 S
C154 C153 1.383 1_545 S
C154 C155 1.393 . S
C155 H120 0.931 . S
C155 C154 1.393 . S
C155 C156 1.382 . S
C156 H121 0.929 . S
C156 C151 1.371 . S
C156 C155 1.382 . S
C157 N125 1.423 . S
C157 C158 1.362 . S
C157 C162 1.388 . S
C158 H122 0.929 . S
C158 C157 1.362 . S
C158 C159 1.376 . S
C159 H123 0.931 . S
C159 C158 1.376 . S
C159 C160 1.396 . S
C160 C142 1.472 . S
C160 C159 1.396 . S
C160 C161 1.348 . S
C161 H124 0.929 1_545 S
C161 C160 1.348 . S
C161 C162 1.443 . S
C162 H126 0.932 1_545 S
C162 C157 1.388 . S
C162 C161 1.443 . S
H163 C190 0.929 . S
N164 C189 1.433 . S
N164 C195 1.435 . S
N164 C201 1.423 . S
H165 C191 0.930 . S
H166 C194 0.931 . S
H167 C193 0.929 . S
H168 C196 0.930 . S
H169 C197 0.932 . S
H170 C200 0.929 . S
H171 C199 0.931 . S
H172 C202 0.929 . S
H173 C206 0.932 . S
H174 C203 0.931 . S
H175 C205 0.929 . S
H176 C208 0.929 . S
H177 C209 0.930 . S
H178 C211 0.929 . S
H179 C212 0.931 . S
H180 C214 0.930 . S
H181 C215 0.932 . S
H182 C217 0.931 . S
H183 C218 0.929 . S
H184 C220 0.929 . S
H185 C221 0.931 . S
H186 C223 0.929 . S
N187 C207 1.433 . S
N187 C213 1.435 . S
N187 C219 1.423 . S
H188 C224 0.932 . S
C189 N164 1.433 . S
C189 C190 1.363 . S
C189 C194 1.370 . S
C190 H163 0.929 . S
C190 C189 1.363 . S
C190 C191 1.385 . S
C191 H165 0.930 . S
C191 C190 1.385 . S
C191 C192 1.357 . S
C192 C191 1.357 . S
C192 C193 1.406 . S
C193 H167 0.929 . S
C193 C192 1.406 . S
C193 C194 1.391 . S
C194 H166 0.931 . S
C194 C189 1.370 . S
C194 C193 1.391 . S
C195 N164 1.435 . S
C195 C196 1.358 . S
C195 C200 1.371 . S
C196 H168 0.930 . S
C196 C195 1.358 . S
C196 C197 1.405 . S
C197 H169 0.932 . S
C197 C196 1.405 . S
C197 C198 1.383 . S
C198 C197 1.383 . S
C198 C199 1.393 . S
C199 H171 0.931 . S
C199 C198 1.393 . S
C199 C200 1.382 . S
C200 H170 0.929 . S
C200 C195 1.371 . S
C200 C199 1.382 . S
C201 N164 1.423 . S
C201 C202 1.362 . S
C201 C206 1.388 . S
C202 H172 0.929 . S
C202 C201 1.362 . S
C202 C203 1.376 . S
C203 H174 0.931 . S
C203 C202 1.376 . S
C203 C204 1.396 . S
C204 C203 1.396 . S
C204 C205 1.348 . S
C204 C222 1.472 . S
C205 H175 0.929 . S
C205 C204 1.348 . S
C205 C206 1.443 . S
C206 H173 0.932 . S
C206 C201 1.388 . S
C206 C205 1.443 . S
C207 N187 1.433 . S
C207 C208 1.363 . S
C207 C212 1.370 . S
C208 H176 0.929 . S
C208 C207 1.363 . S
C208 C209 1.385 . S
C209 H177 0.930 . S
C209 C208 1.385 . S
C209 C210 1.357 . S
C210 C209 1.357 . S
C210 C211 1.406 . S
C211 H178 0.929 . S
C211 C210 1.406 . S
C211 C212 1.391 . S
C212 H179 0.931 . S
C212 C207 1.370 . S
C212 C211 1.391 . S
C213 N187 1.435 . S
C213 C214 1.358 . S
C213 C218 1.371 . S
C214 H180 0.930 . S
C214 C213 1.358 . S
C214 C215 1.405 . S
C215 H181 0.932 . S
C215 C214 1.405 . S
C215 C216 1.383 . S
C216 C215 1.383 . S
C216 C217 1.393 . S
C217 H182 0.931 . S
C217 C216 1.393 . S
C217 C218 1.382 . S
C218 H183 0.929 . S
C218 C213 1.371 . S
C218 C217 1.382 . S
C219 N187 1.423 . S
C219 C220 1.362 . S
C219 C224 1.388 . S
C220 H184 0.929 . S
C220 C219 1.362 . S
C220 C221 1.376 . S
C221 H185 0.931 . S
C221 C220 1.376 . S
C221 C222 1.396 . S
C222 C204 1.472 . S
C222 C221 1.396 . S
C222 C223 1.348 . S
C223 H186 0.929 . S
C223 C222 1.348 . S
C223 C224 1.443 . S
C224 H188 0.932 . S
C224 C219 1.388 . S
C224 C223 1.443 . S
C225 C226 1.387 . S
C225 H229 0.950 . S
C225 C234 1.390 . S
C226 C225 1.387 . S
C226 C228 1.387 1_455 S
H227 C234 0.950 . S
C228 C226 1.387 1_655 S
C228 C230 1.391 . S
C228 H232 0.949 . S
H229 C225 0.950 . S
C230 C228 1.391 . S
C230 C231 1.387 1_655 S
C230 H233 0.950 . S
C231 C230 1.387 1_455 S
C231 C234 1.387 . S
H232 C228 0.949 . S
H233 C230 0.950 . S
C234 C225 1.390 . S
C234 H227 0.950 . S
C234 C231 1.387 . S
C235 C236 1.387 . S
C235 H239 0.950 . S
C235 C244 1.390 . S
C236 C235 1.387 . S
C236 C238 1.387 1_545 S
H237 C244 0.950 . S
C238 C236 1.387 1_565 S
C238 C240 1.390 . S
C238 H242 0.950 . S
H239 C235 0.950 . S
C240 C238 1.390 . S
C240 C241 1.387 1_565 S
C240 H243 0.950 . S
C241 C240 1.387 1_545 S
C241 C244 1.387 . S
H242 C238 0.950 . S
H243 C240 0.950 . S
C244 C235 1.390 . S
C244 H237 0.950 . S
C244 C241 1.387 . S
C245 C246 1.387 . S
C245 H249 0.950 . S
C245 C254 1.390 . S
C246 C245 1.387 . S
C246 C248 1.387 . S
H247 C254 0.950 . S
C248 C246 1.387 . S
C248 C250 1.390 . S
C248 H252 0.950 . S
H249 C245 0.950 . S
C250 C248 1.390 . S
C250 C251 1.387 . S
C250 H253 0.950 . S
C251 C250 1.387 . S
C251 C254 1.387 . S
H252 C248 0.950 . S
H253 C250 0.950 . S
C254 C245 1.390 . S
C254 H247 0.950 . S
C254 C251 1.387 . S
C255 C256 1.406 . S
C255 H259 0.950 . S
C255 C264 1.390 . S
C256 C255 1.406 . S
C256 C258 1.377 1_455 S
H257 C264 0.950 . S
C258 C256 1.377 1_655 S
C258 C260 1.390 . S
C258 H262 0.950 . S
H259 C255 0.950 . S
C260 C258 1.390 . S
C260 C261 1.387 1_655 S
C260 H263 0.950 . S
C261 C260 1.387 1_455 S
C261 C264 1.387 . S
H262 C258 0.950 . S
H263 C260 0.950 . S
C264 C255 1.390 . S
C264 H257 0.950 . S
C264 C261 1.387 . S
C265 C266 1.387 . S
C265 H269 0.950 . S
C265 C274 1.390 . S
C266 C265 1.387 . S
C266 C268 1.389 1_545 S
H267 C274 0.950 . S
C268 C266 1.389 1_565 S
C268 C270 1.390 . S
C268 H272 0.950 . S
H269 C265 0.950 . S
C270 C268 1.390 . S
C270 C271 1.387 1_565 S
C270 H273 0.950 . S
C271 C270 1.387 1_545 S
C271 C274 1.387 . S
H272 C268 0.950 . S
H273 C270 0.950 . S
C274 C265 1.390 . S
C274 H267 0.950 . S
C274 C271 1.387 . S
C275 C276 1.387 . S
C275 H279 0.950 . S
C275 C284 1.390 . S
C276 C275 1.387 . S
C276 C278 1.387 . S
H277 C284 0.950 . S
C278 C276 1.387 . S
C278 C280 1.390 . S
C278 H282 0.950 . S
H279 C275 0.950 . S
C280 C278 1.390 . S
C280 C281 1.387 . S
C280 H283 0.950 . S
C281 C280 1.387 . S
C281 C284 1.387 . S
H282 C278 0.950 . S
H283 C280 0.950 . S
C284 C275 1.390 . S
C284 H277 0.950 . S
C284 C281 1.387 . S
C285 C286 1.387 1_545 S
C285 H289 0.950 . S
C285 C294 1.390 . S
C286 C285 1.387 1_565 S
C286 C288 1.387 . S
H287 C294 0.950 . S
C288 C286 1.387 . S
C288 C290 1.390 . S
C288 H292 0.950 . S
H289 C285 0.950 . S
C290 C288 1.390 . S
C290 C291 1.387 1_565 S
C290 H293 0.950 . S
C291 C290 1.387 1_545 S
C291 C294 1.387 . S
H292 C288 0.950 . S
H293 C290 0.950 . S
C294 C285 1.390 . S
C294 H287 0.950 . S
C294 C291 1.387 . S
C295 C296 1.387 . S
C295 H299 0.950 1_556 S
C295 C304 1.390 . S
C296 C295 1.387 . S
C296 C298 1.387 . S
H297 C304 0.950 . S
C298 C296 1.387 . S
C298 C300 1.390 . S
C298 H302 0.950 . S
H299 C295 0.950 1_554 S
C300 C298 1.390 . S
C300 C301 1.387 . S
C300 H303 0.950 . S
C301 C300 1.387 . S
C301 C304 1.387 . S
H302 C298 0.950 . S
H303 C300 0.950 . S
C304 C295 1.390 . S
C304 H297 0.950 . S
C304 C301 1.387 . S
C305 C306 1.387 1_655 S
C305 H309 0.950 . S
C305 C314 1.390 . S
C306 C305 1.387 1_455 S
C306 C308 1.387 . S
H307 C314 0.950 . S
C308 C306 1.387 . S
C308 C310 1.390 . S
C308 H312 0.950 . S
H309 C305 0.950 . S
C310 C308 1.390 . S
C310 C311 1.387 . S
C310 H313 0.950 . S
C311 C310 1.387 . S
C311 C314 1.387 1_455 S
H312 C308 0.950 . S
H313 C310 0.950 . S
C314 C305 1.390 . S
C314 H307 0.950 . S
C314 C311 1.387 1_655 S
C315 C316 1.387 1_565 S
C315 H319 0.950 . S
C315 C324 1.390 . S
C316 C315 1.387 1_545 S
C316 C318 1.387 . S
H317 C324 0.950 . S
C318 C316 1.387 . S
C318 C320 1.390 . S
C318 H322 0.950 . S
H319 C315 0.950 . S
C320 C318 1.390 . S
C320 C321 1.387 . S
C320 H323 0.950 . S
C321 C320 1.387 . S
C321 C324 1.387 1_545 S
H322 C318 0.950 . S
H323 C320 0.950 . S
C324 C315 1.390 . S
C324 H317 0.950 . S
C324 C321 1.387 1_565 S
C325 C326 1.387 . S
C325 H329 0.950 . S
C325 C334 1.390 . S
C326 C325 1.387 . S
C326 C328 1.387 . S
H327 C334 0.950 . S
C328 C326 1.387 . S
C328 C330 1.390 . S
C328 H332 0.950 . S
H329 C325 0.950 . S
C330 C328 1.390 . S
C330 C331 1.387 . S
C330 H333 0.950 . S
C331 C330 1.387 . S
C331 C334 1.387 . S
H332 C328 0.950 . S
H333 C330 0.950 . S
C334 C325 1.390 . S
C334 H327 0.950 . S
C334 C331 1.387 . S
C335 C336 1.387 1_455 S
C335 H339 0.950 . S
C335 C344 1.390 . S
C336 C335 1.387 1_655 S
C336 C338 1.391 . S
H337 C344 0.950 . S
C338 C336 1.391 . S
C338 C340 1.390 . S
C338 H342 0.950 . S
H339 C335 0.950 . S
C340 C338 1.390 . S
C340 C341 1.387 1_655 S
C340 H343 0.950 . S
C341 C340 1.387 1_455 S
C341 C344 1.387 . S
H342 C338 0.950 . S
H343 C340 0.950 . S
C344 C335 1.390 . S
C344 H337 0.950 . S
C344 C341 1.387 . S
C231 C92 1.425 . S
C226 C10 1.428 . S
C236 C17 1.428 . S
C241 C136 1.424 . S
C246 C36 1.431 . S
C251 C198 1.425 . S
C256 C5 1.420 . S
C261 C74 1.425 . S
C271 C154 1.426 . S
C266 C16 1.436 1_545 S
C276 C31 1.426 . S
C281 C216 1.424 . S
C291 C130 1.602 . S
C286 C30 1.732 . S
C296 C3 1.736 . S
C301 C192 1.602 . S
C311 C68 1.603 1_455 S
C306 C18 1.736 . S
C321 C148 1.598 . S
C316 C29 1.736 . S
C331 C210 1.602 . S
C326 C4 1.735 . S
C336 C23 1.730 . S
C341 C86 1.599 1_455 S
