# Generated by pormake.
# Topology wbl, (4,4)-cn, num edge types: 1
# Building blocks:
#     Node 0, Type 0, BuildingBlock: MUDLON_clean_linker_0, # of connection points: 4
#     Node 1, Type 0, BuildingBlock: MUDLON_clean_linker_0, # of connection points: 4
#     Node 2, Type 0, BuildingBlock: MUDLON_clean_linker_0, # of connection points: 4
#     Node 3, Type 0, BuildingBlock: MUDLON_clean_linker_0, # of connection points: 4
#     Node 4, Type 0, BuildingBlock: MUDLON_clean_linker_0, # of connection points: 4
#     Node 5, Type 0, BuildingBlock: MUDLON_clean_linker_0, # of connection points: 4
#     Node 6, Type 0, BuildingBlock: MUDLON_clean_linker_0, # of connection points: 4
#     Node 7, Type 0, BuildingBlock: MUDLON_clean_linker_0, # of connection points: 4
#     Node 8, Type 1, BuildingBlock: QUQFOY_clean_sbu_1, # of connection points: 4
#     Node 9, Type 1, BuildingBlock: QUQFOY_clean_sbu_1, # of connection points: 4
#     Node 10, Type 1, BuildingBlock: QUQFOY_clean_sbu_1, # of connection points: 4
#     Node 11, Type 1, BuildingBlock: QUQFOY_clean_sbu_1, # of connection points: 4
#     Node 12, Type 1, BuildingBlock: QUQFOY_clean_sbu_1, # of connection points: 4
#     Node 13, Type 1, BuildingBlock: QUQFOY_clean_sbu_1, # of connection points: 4
#     Node 14, Type 1, BuildingBlock: QUQFOY_clean_sbu_1, # of connection points: 4
#     Node 15, Type 1, BuildingBlock: QUQFOY_clean_sbu_1, # of connection points: 4
#     Edge 16, Type (0, 1), BuildingBlock: MIFKUJ_clean_linker_0, # of connection points: 2
#     Edge 17, Type (0, 1), BuildingBlock: MIFKUJ_clean_linker_0, # of connection points: 2
#     Edge 18, Type (0, 1), BuildingBlock: MIFKUJ_clean_linker_0, # of connection points: 2
#     Edge 19, Type (0, 1), BuildingBlock: MIFKUJ_clean_linker_0, # of connection points: 2
#     Edge 20, Type (0, 1), BuildingBlock: MIFKUJ_clean_linker_0, # of connection points: 2
#     Edge 21, Type (0, 1), BuildingBlock: MIFKUJ_clean_linker_0, # of connection points: 2
#     Edge 22, Type (0, 1), BuildingBlock: MIFKUJ_clean_linker_0, # of connection points: 2
#     Edge 23, Type (0, 1), BuildingBlock: MIFKUJ_clean_linker_0, # of connection points: 2
#     Edge 24, Type (0, 1), BuildingBlock: MIFKUJ_clean_linker_0, # of connection points: 2
#     Edge 25, Type (0, 1), BuildingBlock: MIFKUJ_clean_linker_0, # of connection points: 2
#     Edge 26, Type (0, 1), BuildingBlock: MIFKUJ_clean_linker_0, # of connection points: 2
#     Edge 27, Type (0, 1), BuildingBlock: MIFKUJ_clean_linker_0, # of connection points: 2
#     Edge 28, Type (0, 1), BuildingBlock: MIFKUJ_clean_linker_0, # of connection points: 2
#     Edge 29, Type (0, 1), BuildingBlock: MIFKUJ_clean_linker_0, # of connection points: 2
#     Edge 30, Type (0, 1), BuildingBlock: MIFKUJ_clean_linker_0, # of connection points: 2
#     Edge 31, Type (0, 1), BuildingBlock: MIFKUJ_clean_linker_0, # of connection points: 2
#     Edge 32, Type (0, 1), BuildingBlock: MIFKUJ_clean_linker_0, # of connection points: 2
#     Edge 33, Type (0, 1), BuildingBlock: MIFKUJ_clean_linker_0, # of connection points: 2
#     Edge 34, Type (0, 1), BuildingBlock: MIFKUJ_clean_linker_0, # of connection points: 2
#     Edge 35, Type (0, 1), BuildingBlock: MIFKUJ_clean_linker_0, # of connection points: 2
#     Edge 36, Type (0, 1), BuildingBlock: MIFKUJ_clean_linker_0, # of connection points: 2
#     Edge 37, Type (0, 1), BuildingBlock: MIFKUJ_clean_linker_0, # of connection points: 2
#     Edge 38, Type (0, 1), BuildingBlock: MIFKUJ_clean_linker_0, # of connection points: 2
#     Edge 39, Type (0, 1), BuildingBlock: MIFKUJ_clean_linker_0, # of connection points: 2
#     Edge 40, Type (0, 1), BuildingBlock: MIFKUJ_clean_linker_0, # of connection points: 2
#     Edge 41, Type (0, 1), BuildingBlock: MIFKUJ_clean_linker_0, # of connection points: 2
#     Edge 42, Type (0, 1), BuildingBlock: MIFKUJ_clean_linker_0, # of connection points: 2
#     Edge 43, Type (0, 1), BuildingBlock: MIFKUJ_clean_linker_0, # of connection points: 2
#     Edge 44, Type (0, 1), BuildingBlock: MIFKUJ_clean_linker_0, # of connection points: 2
#     Edge 45, Type (0, 1), BuildingBlock: MIFKUJ_clean_linker_0, # of connection points: 2
#     Edge 46, Type (0, 1), BuildingBlock: MIFKUJ_clean_linker_0, # of connection points: 2
#     Edge 47, Type (0, 1), BuildingBlock: MIFKUJ_clean_linker_0, # of connection points: 2
# Relax obj value: 0.144
# Max RMSD: 0.208
# Mean RMSD: 0.160
data_MOF--net-wbl--node1-QUQFOY_clean_sbu_1--node2-MUDLON_clean_linker_0--edge1-MIFKUJ_clean_linker_0
_symmetry_space_group_name_H-M    P1
_symmetry_Int_Tables_number       1
_symmetry_cell_setting            triclinic
loop_
_symmetry_equiv_pos_as_xyz
'x, y, z'
_cell_length_a     65.181097
_cell_length_b     65.174279
_cell_length_c     96.286661
_cell_angle_alpha  93.384867
_cell_angle_beta   93.397465
_cell_angle_gamma 90.190205
loop_
_atom_site_label
_atom_site_type_symbol
_atom_site_fract_x
_atom_site_fract_y
_atom_site_fract_z
_atom_type_partial_charge
H0 H 0.18912 0.00243 0.34773 0.0
N1 N 0.15468 0.98817 0.33247 0.0
H2 H 0.19958 0.99441 0.37164 0.0
H3 H 0.13508 0.9644 0.34892 0.0
H4 H 0.14593 0.95568 0.37273 0.0
H5 H 0.15998 0.94992 0.32277 0.0
H6 H 0.18771 0.93641 0.30917 0.0
H7 H 0.18313 0.01147 0.31992 0.0
H8 H 0.2101 0.99833 0.30557 0.0
H9 H 0.16822 0.02777 0.33915 0.0
H10 H 0.11611 0.99147 0.32241 0.0
H11 H 0.14781 0.05876 0.33814 0.0
H12 H 0.09512 0.02255 0.32189 0.0
H13 H 0.07596 0.15548 0.3429 0.0
H14 H 0.06569 0.17121 0.36516 0.0
H15 H 0.04317 0.11219 0.37612 0.0
H16 H 0.05414 0.09659 0.3542 0.0
H17 H 0.03592 0.0919 0.33258 0.0
H18 H 0.00257 0.09847 0.32103 0.0
H19 H 0.02888 0.14939 0.30117 0.0
H20 H 0.06198 0.14338 0.31355 0.0
H21 H 0.10074 0.10556 0.35125 0.0
H22 H 0.12119 0.07468 0.35025 0.0
H23 H 0.08909 0.05464 0.31127 0.0
N24 N 0.07003 0.11673 0.333 0.0
H25 H 0.06801 0.08516 0.31245 0.0
C26 C 0.16105 0.98427 0.34666 0.0
C27 C 0.17933 0.99263 0.35321 0.0
C28 C 0.18536 0.98795 0.36682 0.0
C29 C 0.17351 0.97448 0.37397 0.0
C30 C 0.15533 0.96607 0.36739 0.0
C31 C 0.1491 0.97107 0.35388 0.0
C32 C 0.16927 0.98164 0.32242 0.0
C33 C 0.17069 0.96058 0.31883 0.0
C34 C 0.18657 0.95291 0.31095 0.0
C35 C 0.20135 0.96622 0.30621 0.0
C36 C 0.19931 0.98751 0.30924 0.0
C37 C 0.18361 0.99514 0.31738 0.0
C38 C 0.14373 0.00715 0.33072 0.0
C39 C 0.15243 0.0264 0.33512 0.0
C40 C 0.14059 0.04421 0.33469 0.0
C41 C 0.1197 0.0432 0.33008 0.0
C42 C 0.11119 0.02399 0.32536 0.0
C43 C 0.12313 0.00619 0.32567 0.0
C44 C 0.06585 0.12494 0.34685 0.0
C45 C 0.06913 0.14595 0.35025 0.0
C46 C 0.06306 0.15491 0.36289 0.0
C47 C 0.05347 0.143 0.3724 0.0
C48 C 0.0507 0.1218 0.36914 0.0
C49 C 0.05681 0.11286 0.35652 0.0
C50 C 0.05142 0.11741 0.32409 0.0
C51 C 0.03456 0.10438 0.32567 0.0
C52 C 0.01548 0.10805 0.31891 0.0
C53 C 0.01288 0.12468 0.31029 0.0
C54 C 0.03016 0.13677 0.30799 0.0
C55 C 0.04916 0.13322 0.3149 0.0
C56 C 0.08151 0.09752 0.33249 0.0
C57 C 0.0975 0.09435 0.34265 0.0
C58 C 0.10959 0.07673 0.34194 0.0
C59 C 0.1067 0.06198 0.33074 0.0
C60 C 0.09137 0.06538 0.32025 0.0
C61 C 0.07913 0.08297 0.32101 0.0
H62 H 0.97645 0.52079 0.58153 0.0
N63 N 0.96527 0.55496 0.56779 0.0
H64 H 0.96383 0.5104 0.6034 0.0
H65 H 0.93915 0.57523 0.58384 0.0
H66 H 0.92626 0.56483 0.60586 0.0
H67 H 0.93042 0.53376 0.56134 0.0
H68 H 0.92508 0.5037 0.54552 0.0
H69 H 0.99201 0.54036 0.54768 0.0
H70 H 0.98646 0.5105 0.5317 0.0
H71 H 0.00352 0.53868 0.57331 0.0
H72 H 0.97121 0.59515 0.56669 0.0
H73 H 0.03556 0.55763 0.57788 0.0
H74 H 0.00304 0.6146 0.5722 0.0
H75 H 0.12664 0.62641 0.61167 0.0
H76 H 0.13042 0.64062 0.63586 0.0
H77 H 0.07181 0.67072 0.63054 0.0
H78 H 0.06785 0.65595 0.60649 0.0
H79 H 0.08334 0.67245 0.58857 0.0
H80 H 0.10193 0.69863 0.57746 0.0
H81 H 0.14735 0.65366 0.56568 0.0
H82 H 0.12897 0.62762 0.57758 0.0
H83 H 0.08453 0.59738 0.60128 0.0
H84 H 0.05301 0.57831 0.5947 0.0
H85 H 0.03519 0.6243 0.56577 0.0
N86 N 0.09645 0.63321 0.59278 0.0
H87 H 0.06594 0.64395 0.57312 0.0
C88 C 0.95885 0.54896 0.58111 0.0
C89 C 0.96585 0.53073 0.58689 0.0
C90 C 0.95856 0.52477 0.5994 0.0
C91 C 0.94407 0.53682 0.60637 0.0
C92 C 0.93728 0.55515 0.60066 0.0
C93 C 0.94468 0.56117 0.58817 0.0
C94 C 0.96212 0.53876 0.55674 0.0
C95 C 0.94285 0.52882 0.55498 0.0
C96 C 0.93969 0.5117 0.54572 0.0
C97 C 0.95552 0.50433 0.53751 0.0
C98 C 0.97418 0.51533 0.53823 0.0
C99 C 0.97741 0.53247 0.5476 0.0
C100 C 0.98491 0.56549 0.5694 0.0
C101 C 0.0033 0.55521 0.57285 0.0
C102 C 0.02168 0.56618 0.57561 0.0
C103 C 0.02206 0.58779 0.57555 0.0
C104 C 0.0036 0.598 0.57209 0.0
C105 C 0.98531 0.58693 0.56899 0.0
C106 C 0.09715 0.64027 0.60728 0.0
C107 C 0.1145 0.6358 0.61583 0.0
C108 C 0.11659 0.64387 0.6296 0.0
C109 C 0.10143 0.65681 0.635 0.0
C110 C 0.08377 0.66091 0.62656 0.0
C111 C 0.08153 0.65253 0.61284 0.0
C112 C 0.10488 0.64799 0.58403 0.0
C113 C 0.09717 0.6681 0.58351 0.0
C114 C 0.10779 0.68309 0.577 0.0
C115 C 0.1263 0.67837 0.57074 0.0
C116 C 0.13337 0.65797 0.57062 0.0
C117 C 0.12278 0.64299 0.57725 0.0
C118 C 0.07783 0.62218 0.58787 0.0
C119 C 0.07378 0.60337 0.59354 0.0
C120 C 0.05577 0.59235 0.58961 0.0
C121 C 0.04142 0.59959 0.57958 0.0
C122 C 0.04562 0.61833 0.5737 0.0
C123 C 0.06349 0.62961 0.57787 0.0
H124 H 0.58853 0.48394 0.83428 0.0
N125 N 0.55293 0.47482 0.81835 0.0
H126 H 0.59922 0.47002 0.85639 0.0
H127 H 0.53266 0.44796 0.83238 0.0
H128 H 0.54348 0.43374 0.85475 0.0
H129 H 0.55726 0.44173 0.80142 0.0
H130 H 0.58557 0.43401 0.78638 0.0
H131 H 0.58291 0.50207 0.81206 0.0
H132 H 0.61134 0.49437 0.79735 0.0
H133 H 0.56402 0.51066 0.83367 0.0
H134 H 0.51771 0.48306 0.8045 0.0
H135 H 0.54402 0.54178 0.83566 0.0
H136 H 0.49781 0.51487 0.80592 0.0
H137 H 0.47734 0.63742 0.85026 0.0
H138 H 0.46909 0.64397 0.87447 0.0
H139 H 0.45423 0.57956 0.87681 0.0
H140 H 0.46116 0.57354 0.85243 0.0
H141 H 0.43302 0.5867 0.83432 0.0
H142 H 0.4019 0.60218 0.82463 0.0
H143 H 0.43839 0.65035 0.80903 0.0
H144 H 0.46961 0.63382 0.818 0.0
H145 H 0.51176 0.60132 0.83063 0.0
H146 H 0.53228 0.57113 0.82455 0.0
H147 H 0.47725 0.53352 0.82177 0.0
N148 N 0.47195 0.60278 0.8346 0.0
H149 H 0.45694 0.56377 0.82716 0.0
C150 C 0.55959 0.4671 0.83164 0.0
C151 C 0.57844 0.47314 0.83862 0.0
C152 C 0.58455 0.4652 0.85134 0.0
C153 C 0.57212 0.4509 0.85734 0.0
C154 C 0.55339 0.4447 0.85034 0.0
C155 C 0.54716 0.45284 0.83763 0.0
C156 C 0.56791 0.47236 0.80792 0.0
C157 C 0.56877 0.45344 0.80029 0.0
C158 C 0.58503 0.44902 0.7918 0.0
C159 C 0.60084 0.4635 0.79079 0.0
C160 C 0.59933 0.48294 0.79779 0.0
C161 C 0.58305 0.48735 0.80629 0.0
C162 C 0.54222 0.49421 0.81905 0.0
C163 C 0.54962 0.51126 0.82757 0.0
C164 C 0.5382 0.52931 0.82857 0.0
C165 C 0.51922 0.53093 0.82097 0.0
C166 C 0.51218 0.5141 0.81211 0.0
C167 C 0.52357 0.49595 0.8112 0.0
C168 C 0.47008 0.60506 0.84948 0.0
C169 C 0.47261 0.62469 0.8561 0.0
C170 C 0.46796 0.62835 0.86999 0.0
C171 C 0.46089 0.6123 0.87768 0.0
C172 C 0.45923 0.59239 0.87118 0.0
C173 C 0.46352 0.58884 0.8572 0.0
C174 C 0.45379 0.60892 0.82666 0.0
C175 C 0.43446 0.6 0.82825 0.0
C176 C 0.41655 0.6092 0.82295 0.0
C177 C 0.41752 0.62778 0.81625 0.0
C178 C 0.43696 0.63598 0.81399 0.0
C179 C 0.45488 0.62657 0.81911 0.0
C180 C 0.48287 0.58494 0.82946 0.0
C181 C 0.50415 0.58659 0.82845 0.0
C182 C 0.51585 0.56927 0.82511 0.0
C183 C 0.5065 0.54976 0.82285 0.0
C184 C 0.485 0.54827 0.8233 0.0
C185 C 0.47329 0.56568 0.82649 0.0
H186 H 0.5453 0.94884 0.10277 0.0
N187 N 0.52582 0.97928 0.08874 0.0
H188 H 0.54023 0.94039 0.12667 0.0
H189 H 0.50494 0.00072 0.10741 0.0
H190 H 0.49975 0.99235 0.13146 0.0
H191 H 0.48637 0.9751 0.08084 0.0
H192 H 0.46912 0.94471 0.06949 0.0
H193 H 0.54504 0.94581 0.07645 0.0
H194 H 0.52809 0.91584 0.06474 0.0
H195 H 0.56637 0.96749 0.0895 0.0
H196 H 0.52505 0.01635 0.07886 0.0
H197 H 0.59511 0.98707 0.08231 0.0
H198 H 0.55408 0.03714 0.07288 0.0
H199 H 0.68507 0.07192 0.07815 0.0
H200 H 0.69848 0.08843 0.10045 0.0
H201 H 0.63645 0.10166 0.11152 0.0
H202 H 0.62319 0.08538 0.08923 0.0
H203 H 0.62175 0.10148 0.06673 0.0
H204 H 0.62648 0.12909 0.05116 0.0
H205 H 0.6732 0.09351 0.0309 0.0
H206 H 0.6687 0.06612 0.04685 0.0
H207 H 0.64517 0.03568 0.08506 0.0
H208 H 0.61638 0.01378 0.08927 0.0
H209 H 0.57911 0.04362 0.0578 0.0
N210 N 0.6459 0.06734 0.06886 0.0
H211 H 0.60744 0.06648 0.05439 0.0
C212 C 0.52557 0.97557 0.10333 0.0
C213 C 0.53579 0.95877 0.10904 0.0
C214 C 0.53284 0.95391 0.12273 0.0
C215 C 0.5195 0.96564 0.13093 0.0
C216 C 0.50994 0.98289 0.12535 0.0
C217 C 0.513 0.98779 0.11169 0.0
C218 C 0.51696 0.96291 0.07954 0.0
C219 C 0.49557 0.96239 0.07702 0.0
C220 C 0.48575 0.945 0.07051 0.0
C221 C 0.49721 0.92772 0.06631 0.0
C222 C 0.51877 0.92874 0.06808 0.0
C223 C 0.52856 0.94609 0.07469 0.0
C224 C 0.54335 0.99028 0.08443 0.0
C225 C 0.56338 0.98239 0.08551 0.0
C226 C 0.58 0.99391 0.08162 0.0
C227 C 0.57716 0.0139 0.07703 0.0
C228 C 0.55702 0.02171 0.07603 0.0
C229 C 0.54036 0.00993 0.07958 0.0
C230 C 0.65322 0.0772 0.08209 0.0
C231 C 0.67443 0.07842 0.0854 0.0
C232 C 0.68202 0.08792 0.09807 0.0
C233 C 0.66847 0.09623 0.1077 0.0
C234 C 0.64721 0.09518 0.10433 0.0
C235 C 0.63964 0.08593 0.0916 0.0
C236 C 0.64501 0.08173 0.05798 0.0
C237 C 0.6327 0.09942 0.05875 0.0
C238 C 0.63533 0.11516 0.04976 0.0
C239 C 0.65036 0.11359 0.03986 0.0
C240 C 0.66169 0.09531 0.03853 0.0
C241 C 0.65902 0.07958 0.04753 0.0
C242 C 0.62863 0.05341 0.06982 0.0
C243 C 0.63075 0.03761 0.07911 0.0
C244 C 0.61422 0.02485 0.08138 0.0
C245 C 0.59513 0.0269 0.07399 0.0
C246 C 0.5933 0.04192 0.06405 0.0
C247 C 0.60975 0.05509 0.06203 0.0
H248 H 0.08785 0.6388 0.95987 0.0
N249 N 0.05453 0.64921 0.97491 0.0
H250 H 0.09728 0.65323 0.93847 0.0
H251 H 0.034 0.67705 0.96047 0.0
H252 H 0.04345 0.69171 0.93876 0.0
H253 H 0.06237 0.6825 0.99158 0.0
H254 H 0.09348 0.69004 0.00654 0.0
H255 H 0.08416 0.62104 0.98243 0.0
H256 H 0.11523 0.62857 0.99696 0.0
H257 H 0.06417 0.61223 0.96153 0.0
H258 H 0.0184 0.6432 0.9855 0.0
H259 H 0.04299 0.58139 0.95904 0.0
H260 H 0.99688 0.61203 0.98297 0.0
H261 H 0.98859 0.50552 0.93467 0.0
H262 H 0.97485 0.50091 0.91042 0.0
H263 H 0.91949 0.53253 0.92158 0.0
H264 H 0.93318 0.53684 0.94569 0.0
H265 H 0.94023 0.54027 0.97215 0.0
H266 H 0.91369 0.52253 0.9837 0.0
H267 H 0.941 0.46419 0.97195 0.0
H268 H 0.96784 0.48217 0.96072 0.0
H269 H 0.0082 0.5234 0.96683 0.0
H270 H 0.02936 0.5541 0.97312 0.0
H271 H 0.97726 0.59244 0.96312 0.0
N272 N 0.96968 0.52182 0.95635 0.0
H273 H 0.95631 0.56182 0.95689 0.0
C274 C 0.06002 0.65674 0.96179 0.0
C275 C 0.07784 0.65011 0.95533 0.0
C276 C 0.08324 0.65837 0.94301 0.0
C277 C 0.07105 0.67353 0.93687 0.0
C278 C 0.0532 0.68012 0.94329 0.0
C279 C 0.04772 0.67171 0.95561 0.0
C280 C 0.07082 0.65134 0.98576 0.0
C281 C 0.07359 0.67048 0.99307 0.0
C282 C 0.09145 0.6748 0.0015 0.0
C283 C 0.10698 0.66 0.00279 0.0
C284 C 0.10353 0.64029 0.9963 0.0
C285 C 0.08565 0.63598 0.98787 0.0
C286 C 0.04293 0.63019 0.9738 0.0
C287 C 0.04968 0.61243 0.96641 0.0
C288 C 0.03754 0.59466 0.96503 0.0
C289 C 0.01829 0.59425 0.97085 0.0
C290 C 0.0116 0.61192 0.97831 0.0
C291 C 0.02388 0.62966 0.97982 0.0
C292 C 0.96196 0.52137 0.94199 0.0
C293 C 0.97363 0.51169 0.93179 0.0
C294 C 0.96578 0.50916 0.91797 0.0
C295 C 0.94603 0.51627 0.91412 0.0
C296 C 0.93465 0.52667 0.92427 0.0
C297 C 0.94253 0.52925 0.93807 0.0
C298 C 0.95614 0.5125 0.96553 0.0
C299 C 0.9409 0.52374 0.97234 0.0
C300 C 0.92555 0.51352 0.97885 0.0
C301 C 0.92504 0.49191 0.97862 0.0
C302 C 0.94099 0.48084 0.97249 0.0
C303 C 0.95634 0.49107 0.96604 0.0
C304 C 0.98073 0.54021 0.96143 0.0
C305 C 0.00131 0.53844 0.96623 0.0
C306 C 0.01337 0.55596 0.96972 0.0
C307 C 0.00498 0.57567 0.96854 0.0
C308 C 0.9841 0.57746 0.96426 0.0
C309 C 0.97209 0.55991 0.96066 0.0
H310 H 0.61301 0.42842 0.20083 0.0
N311 N 0.62388 0.46642 0.21268 0.0
H312 H 0.61767 0.41589 0.17679 0.0
H313 H 0.63837 0.48727 0.19243 0.0
H314 H 0.64323 0.47481 0.16834 0.0
H315 H 0.66365 0.46197 0.21879 0.0
H316 H 0.68037 0.43608 0.23261 0.0
H317 H 0.60436 0.44001 0.22928 0.0
H318 H 0.62089 0.415 0.24383 0.0
H319 H 0.5849 0.45026 0.20882 0.0
H320 H 0.61945 0.50514 0.22205 0.0
H321 H 0.55288 0.46884 0.21142 0.0
H322 H 0.58746 0.52427 0.22404 0.0
H323 H 0.45307 0.5453 0.209 0.0
H324 H 0.43697 0.55743 0.18746 0.0
H325 H 0.49716 0.5681 0.17252 0.0
H326 H 0.51296 0.55716 0.19434 0.0
H327 H 0.51687 0.5804 0.21503 0.0
H328 H 0.51229 0.61406 0.22673 0.0
H329 H 0.46519 0.58876 0.25067 0.0
H330 H 0.46919 0.55528 0.23825 0.0
H331 H 0.50165 0.51328 0.20017 0.0
H332 H 0.53301 0.49341 0.2001 0.0
H333 H 0.55741 0.52965 0.23639 0.0
N334 N 0.49286 0.54631 0.21713 0.0
H335 H 0.52658 0.55012 0.23614 0.0
C336 C 0.62549 0.45881 0.19842 0.0
C337 C 0.61949 0.43868 0.19379 0.0
C338 C 0.62225 0.43151 0.18006 0.0
C339 C 0.63088 0.44435 0.17069 0.0
C340 C 0.63636 0.46462 0.17527 0.0
C341 C 0.6337 0.47173 0.18901 0.0
C342 C 0.63279 0.4531 0.22288 0.0
C343 C 0.65426 0.45195 0.22442 0.0
C344 C 0.66379 0.43714 0.23243 0.0
C345 C 0.65205 0.42322 0.23937 0.0
C346 C 0.63049 0.4251 0.23842 0.0
C347 C 0.62094 0.43969 0.23015 0.0
C348 C 0.60464 0.47632 0.2154 0.0
C349 C 0.58561 0.46629 0.21242 0.0
C350 C 0.56725 0.47705 0.21375 0.0
C351 C 0.56748 0.49816 0.21783 0.0
C352 C 0.58658 0.50799 0.22108 0.0
C353 C 0.60492 0.49713 0.21991 0.0
C354 C 0.48416 0.55018 0.20333 0.0
C355 C 0.46273 0.54994 0.20094 0.0
C356 C 0.45358 0.55684 0.18858 0.0
C357 C 0.46572 0.56396 0.17823 0.0
C358 C 0.48726 0.56321 0.18035 0.0
C359 C 0.49637 0.55668 0.19281 0.0
C360 C 0.49315 0.56534 0.22567 0.0
C361 C 0.50568 0.58206 0.22287 0.0
C362 C 0.50315 0.60131 0.2297 0.0
C363 C 0.4882 0.60425 0.23958 0.0
C364 C 0.47654 0.58719 0.24292 0.0
C365 C 0.47895 0.56799 0.23597 0.0
C366 C 0.51188 0.53449 0.21745 0.0
C367 C 0.51389 0.51742 0.20794 0.0
C368 C 0.5318 0.50571 0.20807 0.0
C369 C 0.54801 0.51011 0.2181 0.0
C370 C 0.54558 0.52626 0.22819 0.0
C371 C 0.52775 0.53814 0.22797 0.0
H372 H 0.48077 0.0274 0.45592 0.0
N373 N 0.51335 0.02657 0.47379 0.0
H374 H 0.47351 0.00519 0.43474 0.0
H375 H 0.53796 0.99587 0.46368 0.0
H376 H 0.53083 0.97362 0.44258 0.0
H377 H 0.52299 0.99085 0.48638 0.0
H378 H 0.50282 0.97473 0.50325 0.0
H379 H 0.48325 0.04351 0.48769 0.0
H380 H 0.46212 0.02701 0.50394 0.0
H381 H 0.52335 0.05978 0.46119 0.0
H382 H 0.54848 0.01587 0.48923 0.0
H383 H 0.55753 0.07429 0.45942 0.0
H384 H 0.58249 0.03079 0.48804 0.0
H385 H 0.64985 0.11816 0.45086 0.0
H386 H 0.65461 0.13083 0.42797 0.0
H387 H 0.6573 0.0682 0.41063 0.0
H388 H 0.65374 0.05575 0.43384 0.0
H389 H 0.69152 0.06638 0.45955 0.0
H390 H 0.7205 0.08459 0.47191 0.0
H391 H 0.6786 0.12855 0.4899 0.0
H392 H 0.64984 0.11062 0.4771 0.0
H393 H 0.61982 0.10329 0.46209 0.0
H394 H 0.58621 0.09291 0.46931 0.0
H395 H 0.60775 0.03041 0.47157 0.0
N396 N 0.65267 0.07804 0.45778 0.0
H397 H 0.64154 0.04129 0.46506 0.0
C398 C 0.5099 0.01344 0.46128 0.0
C399 C 0.49174 0.0157 0.45301 0.0
C400 C 0.48758 0.00294 0.441 0.0
C401 C 0.50161 0.98766 0.43702 0.0
C402 C 0.51985 0.98539 0.44533 0.0
C403 C 0.52392 0.99808 0.4574 0.0
C404 C 0.50476 0.01862 0.48587 0.0
C405 C 0.51029 0.99927 0.49062 0.0
C406 C 0.49846 0.98987 0.50013 0.0
C407 C 0.48056 0.99935 0.50484 0.0
C408 C 0.47588 0.01926 0.50074 0.0
C409 C 0.48792 0.02877 0.4914 0.0
C410 C 0.53316 0.03673 0.47527 0.0
C411 C 0.53617 0.05367 0.46729 0.0
C412 C 0.55577 0.062 0.46635 0.0
C413 C 0.57293 0.05365 0.47351 0.0
C414 C 0.56973 0.03737 0.48215 0.0
C415 C 0.5501 0.02888 0.48295 0.0
C416 C 0.65187 0.08594 0.44409 0.0
C417 C 0.65128 0.10715 0.44212 0.0
C418 C 0.65385 0.11439 0.42895 0.0
C419 C 0.6567 0.10057 0.41743 0.0
C420 C 0.65574 0.07933 0.4193 0.0
C421 C 0.65349 0.07214 0.43252 0.0
C422 C 0.66853 0.087 0.46737 0.0
C423 C 0.68859 0.07967 0.46643 0.0
C424 C 0.70514 0.0901 0.47355 0.0
C425 C 0.70195 0.10817 0.48186 0.0
C426 C 0.68166 0.11489 0.48341 0.0
C427 C 0.6651 0.10448 0.47619 0.0
C428 C 0.63323 0.07301 0.46313 0.0
C429 C 0.61743 0.08748 0.46446 0.0
C430 C 0.59811 0.08143 0.46846 0.0
C431 C 0.59411 0.06076 0.47098 0.0
C432 C 0.61023 0.04652 0.46999 0.0
C433 C 0.62955 0.05264 0.46616 0.0
H434 H 0.08917 0.00554 0.70136 0.0
N435 N 0.10052 0.03602 0.71977 0.0
H436 H 0.10589 0.99437 0.68008 0.0
H437 H 0.13385 0.05439 0.70926 0.0
H438 H 0.15036 0.04359 0.68805 0.0
H439 H 0.14092 0.0323 0.72904 0.0
H440 H 0.15386 0.01003 0.74679 0.0
H441 H 0.07871 0.01829 0.73824 0.0
H442 H 0.09148 0.99737 0.75708 0.0
H443 H 0.062 0.04769 0.71516 0.0
H444 H 0.12212 0.07063 0.72921 0.0
H445 H 0.0484 0.08251 0.71669 0.0
H446 H 0.10933 0.1058 0.72951 0.0
H447 H 0.01341 0.1784 0.70392 0.0
H448 H 0.00413 0.19165 0.68137 0.0
H449 H 0.06723 0.20932 0.67726 0.0
H450 H 0.07655 0.19656 0.70039 0.0
H451 H 0.05406 0.2187 0.73011 0.0
H452 H 0.02692 0.23765 0.74146 0.0
H453 H 0.99 0.18224 0.7397 0.0
H454 H 0.01716 0.16349 0.72808 0.0
H455 H 0.03566 0.14646 0.70311 0.0
H456 H 0.04768 0.11172 0.70484 0.0
H457 H 0.09014 0.13189 0.73924 0.0
N458 N 0.05132 0.18111 0.71809 0.0
H459 H 0.07904 0.1673 0.73659 0.0
C460 C 0.11009 0.0308 0.7069 0.0
C461 C 0.10242 0.01399 0.69841 0.0
C462 C 0.11195 0.0077 0.68626 0.0
C463 C 0.12947 0.01811 0.68239 0.0
C464 C 0.13702 0.03513 0.69082 0.0
C465 C 0.12742 0.04145 0.70293 0.0
C466 C 0.10874 0.0264 0.73198 0.0
C467 C 0.13 0.02478 0.73509 0.0
C468 C 0.13741 0.01215 0.74548 0.0
C469 C 0.12376 0.00139 0.75331 0.0
C470 C 0.10252 0.00472 0.75099 0.0
C471 C 0.09514 0.01689 0.74034 0.0
C472 C 0.09307 0.05667 0.72171 0.0
C473 C 0.07227 0.06037 0.71846 0.0
C474 C 0.06463 0.08036 0.71919 0.0
C475 C 0.07779 0.09724 0.72289 0.0
C476 C 0.0986 0.09333 0.72666 0.0
C477 C 0.1061 0.07321 0.72628 0.0
C478 C 0.04576 0.18681 0.70405 0.0
C479 C 0.02535 0.18522 0.69834 0.0
C480 C 0.02 0.19279 0.68541 0.0
C481 C 0.03492 0.20175 0.67774 0.0
C482 C 0.05546 0.20254 0.68306 0.0
C483 C 0.06078 0.19525 0.69619 0.0
C484 C 0.03767 0.1898 0.72813 0.0
C485 C 0.04043 0.21049 0.73265 0.0
C486 C 0.02485 0.22128 0.73916 0.0
C487 C 0.00613 0.21151 0.74133 0.0
C488 C 0.00411 0.19027 0.73797 0.0
C489 C 0.01975 0.17947 0.73145 0.0
C490 C 0.0568 0.15981 0.71956 0.0
C491 C 0.04766 0.14364 0.71098 0.0
C492 C 0.05442 0.12348 0.71214 0.0
C493 C 0.07002 0.11874 0.72218 0.0
C494 C 0.07848 0.13485 0.73115 0.0
C495 C 0.07202 0.15512 0.72976 0.0
O496 O 0.3677 0.69344 0.00888 0.0
Cd497 Cd 0.35577 0.70825 0.02608 0.0
Cd498 Cd 0.38824 0.69007 0.03972 0.0
O499 O 0.39167 0.67605 0.02021 0.0
O500 O 0.32734 0.71601 0.02 0.0
O501 O 0.3342 0.69403 0.03629 0.0
C502 C 0.32076 0.7037 0.02877 0.0
C503 C 0.39386 0.66998 0.0589 0.0
C504 C 0.38215 0.68039 0.00887 0.0
C505 C 0.3875 0.73666 0.03993 0.0
O506 O 0.39718 0.72052 0.04308 0.0
O507 O 0.36991 0.73529 0.03353 0.0
O508 O 0.40877 0.67621 0.052 0.0
O509 O 0.37539 0.67485 0.05477 0.0
O510 O 0.43422 0.86416 0.30519 0.0
Cd511 Cd 0.42093 0.85207 0.28644 0.0
Cd512 Cd 0.45856 0.86102 0.27736 0.0
O513 O 0.46324 0.87461 0.29717 0.0
O514 O 0.39085 0.85108 0.28899 0.0
O515 O 0.40487 0.87179 0.27473 0.0
C516 C 0.3887 0.86539 0.28035 0.0
C517 C 0.46639 0.87957 0.25835 0.0
C518 C 0.45145 0.87341 0.30714 0.0
C519 C 0.44601 0.81657 0.27571 0.0
O520 O 0.46042 0.82949 0.27478 0.0
O521 O 0.42853 0.82256 0.27947 0.0
O522 O 0.4806 0.8718 0.26627 0.0
O523 O 0.44751 0.87707 0.26137 0.0
O524 O 0.24982 0.89972 0.51253 0.0
Cd525 Cd 0.2623 0.89055 0.53137 0.0
Cd526 Cd 0.22828 0.9095 0.54072 0.0
O527 O 0.2279 0.92177 0.52144 0.0
O528 O 0.29165 0.88487 0.52813 0.0
O529 O 0.28174 0.91021 0.54248 0.0
C530 C 0.29643 0.90064 0.53643 0.0
C531 C 0.21848 0.9306 0.55969 0.0
C532 C 0.23683 0.91402 0.51101 0.0
C533 C 0.23124 0.86315 0.54162 0.0
O534 O 0.2199 0.87898 0.54168 0.0
O535 O 0.25007 0.86459 0.53907 0.0
O536 O 0.20542 0.92394 0.5499 0.0
O537 O 0.23754 0.92575 0.55856 0.0
O538 O 0.18729 0.76288 0.7676 0.0
Cd539 Cd 0.20386 0.77553 0.78492 0.0
Cd540 Cd 0.18663 0.74406 0.7981 0.0
O541 O 0.17301 0.73799 0.77836 0.0
O542 O 0.21063 0.80437 0.78113 0.0
O543 O 0.18935 0.79619 0.79711 0.0
C544 C 0.1982 0.81015 0.79051 0.0
C545 C 0.16629 0.73904 0.81688 0.0
C546 C 0.17542 0.74734 0.76735 0.0
C547 C 0.233 0.74549 0.79752 0.0
O548 O 0.21715 0.73657 0.80142 0.0
O549 O 0.23125 0.76167 0.79081 0.0
O550 O 0.17291 0.7239 0.80924 0.0
O551 O 0.17098 0.75741 0.81376 0.0
O552 O 0.93017 0.25427 0.54142 0.0
Cd553 Cd 0.91515 0.25939 0.52243 0.0
Cd554 Cd 0.93541 0.2252 0.51393 0.0
O555 O 0.95016 0.22963 0.53341 0.0
O556 O 0.90517 0.28818 0.52394 0.0
O557 O 0.92937 0.27788 0.50993 0.0
C558 C 0.91827 0.29256 0.51502 0.0
C559 C 0.9554 0.21804 0.49494 0.0
C560 C 0.94487 0.24179 0.54335 0.0
C561 C 0.88935 0.22249 0.51307 0.0
O562 O 0.90613 0.21272 0.5124 0.0
O563 O 0.88953 0.24175 0.51606 0.0
O564 O 0.95242 0.20459 0.50391 0.0
O565 O 0.94715 0.23591 0.49684 0.0
O566 O 0.85293 0.4269 0.77783 0.0
Cd567 Cd 0.84047 0.41047 0.76037 0.0
Cd568 Cd 0.87328 0.4282 0.74833 0.0
O569 O 0.87743 0.44298 0.76783 0.0
O570 O 0.81289 0.40195 0.76575 0.0
O571 O 0.81729 0.42343 0.74921 0.0
C572 C 0.80497 0.41383 0.75666 0.0
C573 C 0.87884 0.44741 0.7291 0.0
C574 C 0.86775 0.43971 0.77857 0.0
C575 C 0.87195 0.38176 0.74902 0.0
O576 O 0.88167 0.39776 0.74617 0.0
O577 O 0.85458 0.38331 0.75432 0.0
O578 O 0.89375 0.44184 0.73738 0.0
O579 O 0.8604 0.44235 0.73185 0.0
O580 O 0.70192 0.36233 0.03261 0.0
Cd581 Cd 0.71405 0.35049 0.01455 0.0
Cd582 Cd 0.69409 0.38336 0.00359 0.0
O583 O 0.68322 0.38671 0.0233 0.0
O584 O 0.72243 0.32204 0.01855 0.0
O585 O 0.69738 0.32886 0.00301 0.0
C586 C 0.70803 0.31544 0.00963 0.0
C587 C 0.67131 0.38832 0.9844 0.0
C588 C 0.68908 0.37687 0.03382 0.0
C589 C 0.74052 0.38233 0.00328 0.0
O590 O 0.724 0.39228 0.00117 0.0
O591 O 0.74 0.36458 0.00805 0.0
O592 O 0.67793 0.4034 0.99272 0.0
O593 O 0.67723 0.37003 0.98717 0.0
O594 O 0.75982 0.19216 0.24415 0.0
Cd595 Cd 0.77037 0.20624 0.26303 0.0
Cd596 Cd 0.7581 0.17073 0.27285 0.0
O597 O 0.74499 0.16577 0.25291 0.0
O598 O 0.77192 0.23618 0.2602 0.0
O599 O 0.74982 0.22262 0.27375 0.0
C600 C 0.75686 0.23861 0.26823 0.0
C601 C 0.73879 0.16402 0.29175 0.0
C602 C 0.74873 0.17602 0.24251 0.0
C603 C 0.80345 0.18031 0.27528 0.0
O604 O 0.78945 0.16684 0.27592 0.0
O605 O 0.79893 0.19806 0.27129 0.0
O606 O 0.74632 0.1494 0.28405 0.0
O607 O 0.74179 0.1827 0.2885 0.0
H608 H 0.20331 0.93163 0.28839 0.0
H609 H 0.23416 0.91489 0.28013 0.0
H610 H 0.27145 0.96492 0.29893 0.0
H611 H 0.24103 0.98119 0.30809 0.0
H612 H 0.27916 0.94405 0.26781 0.0
H613 H 0.2746 0.93387 0.31815 0.0
H614 H 0.2549 0.92385 0.33781 0.0
H615 H 0.24209 0.86477 0.31689 0.0
H616 H 0.26146 0.87462 0.297 0.0
H617 H 0.38085 0.9054 0.27526 0.0
H618 H 0.34762 0.92263 0.2756 0.0
H619 H 0.31767 0.86434 0.28001 0.0
H620 H 0.35107 0.84741 0.28064 0.0
H621 H 0.30402 0.88868 0.29766 0.0
H622 H 0.31205 0.89448 0.24933 0.0
H623 H 0.32909 0.9026 0.22812 0.0
H624 H 0.33248 0.96634 0.24218 0.0
H625 H 0.3157 0.95858 0.26358 0.0
C626 C 0.21803 0.93915 0.29083 0.0
C627 C 0.21956 0.9577 0.29915 0.0
C628 C 0.2356 0.92965 0.28591 0.0
C629 C 0.25499 0.93872 0.28893 0.0
C630 C 0.25654 0.95782 0.2964 0.0
C631 C 0.23904 0.96714 0.30158 0.0
C632 C 0.27379 0.92716 0.28577 0.0
C633 C 0.28482 0.93203 0.27433 0.0
C634 C 0.28058 0.91105 0.29402 0.0
C635 C 0.26923 0.90506 0.30605 0.0
C636 C 0.26741 0.91882 0.3177 0.0
C637 C 0.25634 0.91316 0.32889 0.0
C638 C 0.24719 0.89371 0.32858 0.0
C639 C 0.24915 0.87985 0.3171 0.0
C640 C 0.26017 0.88546 0.30588 0.0
C641 C 0.36709 0.89625 0.27602 0.0
C642 C 0.36848 0.87511 0.27796 0.0
C643 C 0.34804 0.90609 0.27614 0.0
C644 C 0.32994 0.89483 0.27773 0.0
C645 C 0.33132 0.87346 0.27888 0.0
C646 C 0.35041 0.86375 0.27916 0.0
C647 C 0.30997 0.90547 0.2796 0.0
C648 C 0.29856 0.9005 0.2909 0.0
C649 C 0.30265 0.92114 0.27097 0.0
C650 C 0.31277 0.92591 0.25812 0.0
C651 C 0.31657 0.91021 0.24795 0.0
C652 C 0.32616 0.91475 0.23588 0.0
C653 C 0.33191 0.93497 0.23382 0.0
C654 C 0.32803 0.95069 0.2438 0.0
C655 C 0.31846 0.94623 0.2559 0.0
H656 H 0.33933 0.93845 0.22447 0.0
H657 H 0.23863 0.88935 0.33726 0.0
H658 H 0.11268 0.71187 0.55689 0.0
H659 H 0.13288 0.74108 0.55064 0.0
H660 H 0.1885 0.71156 0.56538 0.0
H661 H 0.16827 0.68287 0.57252 0.0
H662 H 0.18942 0.74923 0.5749 0.0
H663 H 0.17554 0.71705 0.52969 0.0
H664 H 0.15468 0.70081 0.5098 0.0
H665 H 0.12046 0.75652 0.50569 0.0
H666 H 0.14092 0.77303 0.52568 0.0
H667 H 0.25119 0.82715 0.54696 0.0
H668 H 0.23561 0.79372 0.55061 0.0
H669 H 0.17522 0.81994 0.54515 0.0
H670 H 0.19055 0.85332 0.54165 0.0
H671 H 0.18004 0.78201 0.52978 0.0
H672 H 0.19311 0.81246 0.57665 0.0
H673 H 0.215 0.82811 0.59625 0.0
H674 H 0.25259 0.77413 0.59636 0.0
H675 H 0.23106 0.75827 0.57662 0.0
C676 C 0.12921 0.71156 0.55883 0.0
C677 C 0.13878 0.69498 0.56528 0.0
C678 C 0.1408 0.72819 0.55506 0.0
C679 C 0.16229 0.72848 0.55738 0.0
C680 C 0.17196 0.7117 0.56345 0.0
C681 C 0.16035 0.69516 0.56738 0.0
C682 C 0.17445 0.74683 0.55427 0.0
C683 C 0.18765 0.75611 0.56492 0.0
C684 C 0.17202 0.75607 0.54132 0.0
C685 C 0.15968 0.74623 0.52926 0.0
C686 C 0.16347 0.7258 0.52461 0.0
C687 C 0.15173 0.71655 0.51331 0.0
C688 C 0.13623 0.72762 0.5065 0.0
C689 C 0.13246 0.74797 0.51097 0.0
C690 C 0.14415 0.75729 0.52228 0.0
C691 C 0.2346 0.8258 0.54656 0.0
C692 C 0.22211 0.84292 0.54406 0.0
C693 C 0.22574 0.80671 0.54866 0.0
C694 C 0.20427 0.80441 0.54815 0.0
C695 C 0.19181 0.8214 0.54554 0.0
C696 C 0.20062 0.8405 0.54362 0.0
C697 C 0.19464 0.78437 0.55045 0.0
C698 C 0.18194 0.77485 0.53966 0.0
C699 C 0.19772 0.77477 0.56318 0.0
C700 C 0.21063 0.78429 0.57506 0.0
C701 C 0.20616 0.80401 0.58077 0.0
C702 C 0.21847 0.8129 0.59192 0.0
C703 C 0.23522 0.80215 0.59752 0.0
C704 C 0.23964 0.78246 0.592 0.0
C705 C 0.22738 0.77351 0.58083 0.0
H706 H 0.24473 0.80905 0.60616 0.0
H707 H 0.12716 0.72043 0.49775 0.0
H708 H 0.38323 0.63141 0.83129 0.0
H709 H 0.3527 0.65182 0.82656 0.0
H710 H 0.37818 0.67245 0.78947 0.0
H711 H 0.40867 0.65133 0.79379 0.0
H712 H 0.3622 0.70454 0.80747 0.0
H713 H 0.34125 0.6396 0.78491 0.0
H714 H 0.33611 0.60202 0.78322 0.0
H715 H 0.29582 0.60696 0.81695 0.0
H716 H 0.30096 0.64456 0.81897 0.0
H717 H 0.26823 0.75198 0.78419 0.0
H718 H 0.30046 0.73301 0.78645 0.0
H719 H 0.27609 0.69871 0.81883 0.0
H720 H 0.24366 0.71706 0.81626 0.0
H721 H 0.29244 0.6735 0.80115 0.0
H722 H 0.31438 0.73724 0.82515 0.0
H723 H 0.31992 0.77472 0.82812 0.0
H724 H 0.35843 0.77228 0.7934 0.0
H725 H 0.3529 0.73479 0.7901 0.0
C726 C 0.38225 0.63983 0.82192 0.0
C727 C 0.39844 0.63949 0.81285 0.0
C728 C 0.36481 0.65167 0.81931 0.0
C729 C 0.36317 0.66357 0.80764 0.0
C730 C 0.37922 0.66339 0.79856 0.0
C731 C 0.39664 0.65134 0.80107 0.0
C732 C 0.34472 0.67635 0.80516 0.0
C733 C 0.34694 0.69781 0.80584 0.0
C734 C 0.32484 0.6675 0.80341 0.0
C735 C 0.32163 0.64489 0.80216 0.0
C736 C 0.33142 0.63266 0.79204 0.0
C737 C 0.32848 0.61136 0.79101 0.0
C738 C 0.31568 0.6021 0.79999 0.0
C739 C 0.30575 0.61415 0.81 0.0
C740 C 0.30865 0.63546 0.81109 0.0
C741 C 0.26986 0.74059 0.79192 0.0
C742 C 0.25337 0.73597 0.80002 0.0
C743 C 0.28833 0.72978 0.79323 0.0
C744 C 0.29078 0.71445 0.80286 0.0
C745 C 0.27455 0.71035 0.81127 0.0
C746 C 0.25603 0.72092 0.80983 0.0
C747 C 0.30976 0.70186 0.80373 0.0
C748 C 0.30765 0.68035 0.8027 0.0
C749 C 0.32971 0.71071 0.80533 0.0
C750 C 0.33304 0.73324 0.80728 0.0
C751 C 0.32389 0.74472 0.81807 0.0
C752 C 0.32706 0.76596 0.81983 0.0
C753 C 0.33947 0.77589 0.81093 0.0
C754 C 0.34879 0.76458 0.80027 0.0
C755 C 0.34566 0.74333 0.79846 0.0
H756 H 0.34191 0.79234 0.8123 0.0
H757 H 0.31342 0.58561 0.79918 0.0
H758 H 0.46228 0.92243 0.04898 0.0
H759 H 0.44305 0.89046 0.04306 0.0
H760 H 0.48884 0.85687 0.06643 0.0
H761 H 0.5079 0.88867 0.07263 0.0
H762 H 0.47622 0.83633 0.04157 0.0
H763 H 0.44558 0.87072 0.08098 0.0
H764 H 0.42932 0.89992 0.09345 0.0
H765 H 0.37963 0.89865 0.06206 0.0
H766 H 0.39577 0.86962 0.04929 0.0
H767 H 0.42437 0.74527 0.05415 0.0
H768 H 0.44217 0.77835 0.05731 0.0
H769 H 0.39148 0.80722 0.03536 0.0
H770 H 0.37335 0.77419 0.03233 0.0
H771 H 0.40557 0.83098 0.0577 0.0
H772 H 0.43486 0.79527 0.01895 0.0
H773 H 0.45102 0.76617 0.00632 0.0
H774 H 0.50303 0.77001 0.0359 0.0
H775 H 0.48704 0.79896 0.04884 0.0
C776 C 0.46828 0.90823 0.05284 0.0
C777 C 0.48661 0.90816 0.06133 0.0
C778 C 0.4573 0.88999 0.04941 0.0
C779 C 0.46443 0.87136 0.05444 0.0
C780 C 0.48311 0.87109 0.06242 0.0
C781 C 0.49405 0.8893 0.06589 0.0
C782 C 0.45204 0.85224 0.05195 0.0
C783 C 0.46083 0.83508 0.04518 0.0
C784 C 0.43179 0.85082 0.05638 0.0
C785 C 0.422 0.86816 0.0641 0.0
C786 C 0.43127 0.87678 0.07668 0.0
C787 C 0.42206 0.89328 0.08381 0.0
C788 C 0.40348 0.90117 0.07853 0.0
C789 C 0.39404 0.89254 0.06613 0.0
C790 C 0.4032 0.87606 0.05894 0.0
C791 C 0.4169 0.75866 0.05008 0.0
C792 C 0.39747 0.75704 0.0429 0.0
C793 C 0.42716 0.77755 0.05183 0.0
C794 C 0.41833 0.79517 0.04633 0.0
C795 C 0.39862 0.79379 0.03962 0.0
C796 C 0.38829 0.77489 0.03789 0.0
C797 C 0.42983 0.81494 0.04745 0.0
C798 C 0.42088 0.83223 0.05397 0.0
C799 C 0.44992 0.8165 0.04274 0.0
C800 C 0.45966 0.79918 0.03493 0.0
C801 C 0.44967 0.78982 0.02282 0.0
C802 C 0.45881 0.77337 0.0156 0.0
C803 C 0.47802 0.76622 0.02032 0.0
C804 C 0.48815 0.77555 0.03226 0.0
C805 C 0.47906 0.792 0.03954 0.0
H806 H 0.48507 0.75348 0.01471 0.0
H807 H 0.39638 0.91395 0.08407 0.0
H808 H 0.13248 0.63747 0.01981 0.0
H809 H 0.16838 0.64526 0.02744 0.0
H810 H 0.16399 0.70311 0.00797 0.0
H811 H 0.12847 0.69532 8e-05 0.0
H812 H 0.19609 0.67984 0.99939 0.0
H813 H 0.16767 0.70203 0.04284 0.0
H814 H 0.14762 0.69796 0.06344 0.0
H815 H 0.18652 0.64831 0.07566 0.0
H816 H 0.20665 0.65189 0.05501 0.0
H817 H 0.28973 0.72718 0.01843 0.0
H818 H 0.25298 0.71982 0.01728 0.0
H819 H 0.26426 0.66486 0.03933 0.0
H820 H 0.30128 0.67246 0.04083 0.0
H821 H 0.22911 0.68396 0.04726 0.0
H822 H 0.25754 0.66132 0.00444 0.0
H823 H 0.27765 0.66422 0.98374 0.0
H824 H 0.23847 0.71281 0.97003 0.0
H825 H 0.21829 0.71041 0.99077 0.0
C826 C 0.13912 0.65195 0.01731 0.0
C827 C 0.1276 0.66575 0.00932 0.0
C828 C 0.15957 0.65644 0.02176 0.0
C829 C 0.16883 0.67477 0.01827 0.0
C830 C 0.15712 0.68889 0.01078 0.0
C831 C 0.13673 0.68448 0.00639 0.0
C832 C 0.19115 0.67855 0.02124 0.0
C833 C 0.20325 0.68102 0.00988 0.0
C834 C 0.2006 0.67924 0.03488 0.0
C835 C 0.18853 0.67708 0.04729 0.0
C836 C 0.17184 0.69012 0.04985 0.0
C837 C 0.16048 0.68793 0.06155 0.0
C838 C 0.16576 0.67285 0.07083 0.0
C839 C 0.18244 0.65996 0.06845 0.0
C840 C 0.19383 0.66208 0.05675 0.0
C841 C 0.28442 0.71364 0.02318 0.0
C842 C 0.29843 0.70025 0.02956 0.0
C843 C 0.26339 0.70943 0.0225 0.0
C844 C 0.25591 0.69155 0.02795 0.0
C845 C 0.26972 0.67868 0.03499 0.0
C846 C 0.29085 0.68302 0.03582 0.0
C847 C 0.23389 0.68581 0.02542 0.0
C848 C 0.22192 0.68278 0.03679 0.0
C849 C 0.22448 0.68438 0.01176 0.0
C850 C 0.23651 0.6858 0.99922 0.0
C851 C 0.2533 0.67273 0.99706 0.0
C852 C 0.2647 0.67427 0.98532 0.0
C853 C 0.25937 0.68872 0.97559 0.0
C854 C 0.24259 0.70163 0.97758 0.0
C855 C 0.23116 0.70018 0.98932 0.0
H856 H 0.26822 0.68989 0.96651 0.0
H857 H 0.15695 0.67118 0.07988 0.0
H858 H 0.45073 0.6207 0.24527 0.0
H859 H 0.44316 0.65588 0.25319 0.0
H860 H 0.5077 0.67123 0.25442 0.0
H861 H 0.51558 0.63567 0.24732 0.0
H862 H 0.49068 0.69012 0.27573 0.0
H863 H 0.47393 0.68171 0.22642 0.0
H864 H 0.45681 0.66553 0.20498 0.0
H865 H 0.39778 0.67978 0.22049 0.0
H866 H 0.41455 0.69572 0.24214 0.0
H867 H 0.48257 0.79802 0.27053 0.0
H868 H 0.48894 0.76143 0.26586 0.0
H869 H 0.42463 0.74822 0.26929 0.0
H870 H 0.41805 0.78486 0.27398 0.0
H871 H 0.44053 0.72812 0.24631 0.0
H872 H 0.45792 0.73782 0.29537 0.0
H873 H 0.47554 0.75427 0.31654 0.0
H874 H 0.5341 0.73827 0.30093 0.0
H875 H 0.51683 0.72197 0.27957 0.0
C876 C 0.46342 0.63136 0.24754 0.0
C877 C 0.48379 0.62529 0.24555 0.0
C878 C 0.45901 0.65161 0.25189 0.0
C879 C 0.4748 0.66634 0.25409 0.0
C880 C 0.49522 0.66018 0.25267 0.0
C881 C 0.49969 0.63986 0.24847 0.0
C882 C 0.46999 0.6883 0.25739 0.0
C883 C 0.47989 0.69848 0.2692 0.0
C884 C 0.45559 0.69914 0.24903 0.0
C885 C 0.44549 0.68973 0.23596 0.0
C886 C 0.45729 0.68127 0.2253 0.0
C887 C 0.44765 0.67215 0.2131 0.0
C888 C 0.42621 0.6716 0.21139 0.0
C889 C 0.41438 0.6802 0.22185 0.0
C890 C 0.42394 0.68928 0.23408 0.0
C891 C 0.46974 0.78737 0.27029 0.0
C892 C 0.44978 0.79439 0.27266 0.0
C893 C 0.47345 0.76644 0.26768 0.0
C894 C 0.4573 0.7521 0.26738 0.0
C895 C 0.43732 0.75904 0.26953 0.0
C896 C 0.4336 0.77998 0.27223 0.0
C897 C 0.46127 0.7299 0.26459 0.0
C898 C 0.45125 0.71971 0.25285 0.0
C899 C 0.47565 0.71911 0.27295 0.0
C900 C 0.48608 0.72884 0.28581 0.0
C901 C 0.47456 0.73795 0.2964 0.0
C902 C 0.48448 0.74723 0.30844 0.0
C903 C 0.50593 0.74736 0.31006 0.0
C904 C 0.51749 0.73818 0.29966 0.0
C905 C 0.50764 0.7289 0.28758 0.0
H906 H 0.51358 0.75455 0.3194 0.0
H907 H 0.41876 0.66454 0.20195 0.0
H908 H 0.47083 0.95836 0.50125 0.0
H909 H 0.44274 0.94031 0.51081 0.0
H910 H 0.42663 0.99561 0.53439 0.0
H911 H 0.45564 0.01367 0.52548 0.0
H912 H 0.41941 0.96124 0.54865 0.0
H913 H 0.40317 0.98447 0.50295 0.0
H914 H 0.40865 0.98844 0.47813 0.0
H915 H 0.40548 0.92295 0.47017 0.0
H916 H 0.4003 0.91857 0.49501 0.0
H917 H 0.31106 0.93668 0.5497 0.0
H918 H 0.34525 0.95192 0.54827 0.0
H919 H 0.36424 0.89777 0.52458 0.0
H920 H 0.33024 0.88255 0.52588 0.0
H921 H 0.37018 0.93225 0.51125 0.0
H922 H 0.38471 0.90944 0.5573 0.0
H923 H 0.37896 0.90624 0.58215 0.0
H924 H 0.38415 0.97173 0.58951 0.0
H925 H 0.38965 0.97535 0.56464 0.0
C926 C 0.46187 0.96663 0.50884 0.0
C927 C 0.46548 0.98764 0.51244 0.0
C928 C 0.44559 0.95627 0.51419 0.0
C929 C 0.43228 0.96673 0.52305 0.0
C930 C 0.43661 0.98728 0.52746 0.0
C931 C 0.45308 0.99764 0.52223 0.0
C932 C 0.41283 0.95678 0.52649 0.0
C933 C 0.40852 0.95507 0.5405 0.0
C934 C 0.39869 0.94859 0.51584 0.0
C935 C 0.40154 0.95119 0.50086 0.0
C936 C 0.40377 0.97091 0.49593 0.0
C937 C 0.40681 0.97324 0.48185 0.0
C938 C 0.40746 0.95596 0.47259 0.0
C939 C 0.405 0.93632 0.47737 0.0
C940 C 0.402 0.9339 0.49144 0.0
C941 C 0.32267 0.92784 0.54446 0.0
C942 C 0.31786 0.90849 0.53779 0.0
C943 C 0.34222 0.93656 0.54368 0.0
C944 C 0.35729 0.92601 0.53628 0.0
C945 C 0.35283 0.90623 0.53029 0.0
C946 C 0.33336 0.89754 0.53106 0.0
C947 C 0.37685 0.93628 0.53343 0.0
C948 C 0.38108 0.93827 0.51945 0.0
C949 C 0.39072 0.94482 0.54412 0.0
C950 C 0.38737 0.94268 0.55907 0.0
C951 C 0.38443 0.92318 0.56418 0.0
C952 C 0.38126 0.92129 0.57828 0.0
C953 C 0.38113 0.93878 0.5874 0.0
C954 C 0.38422 0.9582 0.58243 0.0
C955 C 0.38739 0.96018 0.56834 0.0
H956 H 0.37868 0.93728 0.59831 0.0
H957 H 0.40982 0.95779 0.4617 0.0
H958 H 0.16059 0.00056 0.76912 0.0
H959 H 0.17544 0.97128 0.78077 0.0
H960 H 0.11936 0.93684 0.77125 0.0
H961 H 0.10483 0.9652 0.75875 0.0
H962 H 0.14224 0.93327 0.80035 0.0
H963 H 0.14921 0.92775 0.74946 0.0
H964 H 0.16011 0.94203 0.72788 0.0
H965 H 0.22176 0.94916 0.74592 0.0
H966 H 0.21109 0.93521 0.7677 0.0
H967 H 0.16145 0.82658 0.79715 0.0
H968 H 0.15124 0.86249 0.79617 0.0
H969 H 0.21346 0.87923 0.78819 0.0
H970 H 0.22324 0.84306 0.78817 0.0
H971 H 0.19108 0.89556 0.77073 0.0
H972 H 0.18746 0.89503 0.81965 0.0
H973 H 0.17836 0.8828 0.84225 0.0
H974 H 0.11425 0.88945 0.83053 0.0
H975 H 0.12294 0.90144 0.80777 0.0
C976 C 0.15132 0.98682 0.76948 0.0
C977 C 0.13153 0.98532 0.76272 0.0
C978 C 0.15978 0.97021 0.77634 0.0
C979 C 0.14845 0.95198 0.77685 0.0
C980 C 0.12823 0.95091 0.77108 0.0
C981 C 0.11993 0.96729 0.76396 0.0
C982 C 0.15847 0.93308 0.78156 0.0
C983 C 0.15293 0.9249 0.79396 0.0
C984 C 0.17287 0.92266 0.77339 0.0
C985 C 0.17932 0.93069 0.76023 0.0
C986 C 0.16504 0.93253 0.74885 0.0
C987 C 0.17118 0.94053 0.73659 0.0
C988 C 0.1916 0.94656 0.73554 0.0
C989 C 0.20594 0.94453 0.74675 0.0
C990 C 0.19986 0.93657 0.75905 0.0
C991 C 0.17301 0.83802 0.79549 0.0
C992 C 0.1931 0.8321 0.79268 0.0
C993 C 0.16721 0.85863 0.79502 0.0
C994 C 0.18158 0.8738 0.79221 0.0
C995 C 0.202 0.86791 0.79028 0.0
C996 C 0.20763 0.84725 0.79033 0.0
C997 C 0.17483 0.89517 0.78965 0.0
C998 C 0.18083 0.90389 0.77749 0.0
C999 C 0.16122 0.90624 0.79827 0.0
C1000 C 0.15587 0.89901 0.81195 0.0
C1001 C 0.17142 0.89374 0.82184 0.0
C1002 C 0.16633 0.88688 0.8347 0.0
C1003 C 0.14574 0.88532 0.83781 0.0
C1004 C 0.13019 0.89066 0.82809 0.0
C1005 C 0.13519 0.89752 0.81522 0.0
H1006 H 0.14183 0.88 0.84777 0.0
H1007 H 0.19632 0.95276 0.72604 0.0
H1008 H 0.62325 0.4864 0.77385 0.0
H1009 H 0.65667 0.47775 0.76467 0.0
H1010 H 0.65471 0.41884 0.78274 0.0
H1011 H 0.62171 0.42746 0.79213 0.0
H1012 H 0.69015 0.44024 0.7902 0.0
H1013 H 0.6487 0.4219 0.74809 0.0
H1014 H 0.62332 0.4282 0.72882 0.0
H1015 H 0.66121 0.47678 0.71594 0.0
H1016 H 0.6867 0.47096 0.73526 0.0
H1017 H 0.77532 0.38989 0.76624 0.0
H1018 H 0.7392 0.39829 0.76846 0.0
H1019 H 0.74771 0.45448 0.74791 0.0
H1020 H 0.78399 0.44587 0.74534 0.0
H1021 H 0.70937 0.43723 0.74102 0.0
H1022 H 0.7506 0.45618 0.7825 0.0
H1023 H 0.77622 0.45109 0.80186 0.0
H1024 H 0.73869 0.4034 0.8163 0.0
H1025 H 0.71298 0.40799 0.79689 0.0
C1026 C 0.62988 0.47154 0.77575 0.0
C1027 C 0.61981 0.45762 0.78372 0.0
C1028 C 0.64889 0.46657 0.77041 0.0
C1029 C 0.65813 0.44763 0.773 0.0
C1030 C 0.64782 0.43351 0.7806 0.0
C1031 C 0.62885 0.43841 0.78586 0.0
C1032 C 0.67925 0.44304 0.76885 0.0
C1033 C 0.69427 0.43932 0.77943 0.0
C1034 C 0.68479 0.44266 0.75485 0.0
C1035 C 0.6695 0.44614 0.74322 0.0
C1036 C 0.65153 0.43406 0.74123 0.0
C1037 C 0.63715 0.43751 0.73027 0.0
C1038 C 0.64062 0.45292 0.72118 0.0
C1039 C 0.65852 0.46487 0.723 0.0
C1040 C 0.67295 0.46149 0.73394 0.0
C1041 C 0.76945 0.40387 0.76196 0.0
C1042 C 0.78255 0.41737 0.75579 0.0
C1043 C 0.7488 0.40866 0.76326 0.0
C1044 C 0.74089 0.42724 0.75865 0.0
C1045 C 0.75354 0.44012 0.75161 0.0
C1046 C 0.77426 0.43519 0.75016 0.0
C1047 C 0.72005 0.43386 0.76236 0.0
C1048 C 0.7052 0.43815 0.75178 0.0
C1049 C 0.7146 0.43501 0.7764 0.0
C1050 C 0.72995 0.43231 0.78817 0.0
C1051 C 0.74788 0.4445 0.78975 0.0
C1052 C 0.76241 0.44172 0.80074 0.0
C1053 C 0.7591 0.4269 0.81028 0.0
C1054 C 0.74124 0.41486 0.80888 0.0
C1055 C 0.72668 0.41756 0.79789 0.0
H1056 H 0.77037 0.42477 0.81879 0.0
H1057 H 0.62946 0.45557 0.71271 0.0
H1058 H 0.68876 0.12744 0.03527 0.0
H1059 H 0.69812 0.15994 0.02595 0.0
H1060 H 0.63404 0.17418 0.01838 0.0
H1061 H 0.62445 0.14133 0.0275 0.0
H1062 H 0.66084 0.18703 0.99712 0.0
H1063 H 0.65482 0.19251 0.04694 0.0
H1064 H 0.66186 0.18186 0.0709 0.0
H1065 H 0.72645 0.19207 0.0675 0.0
H1066 H 0.71981 0.20245 0.04342 0.0
H1067 H 0.67191 0.29712 0.99941 0.0
H1068 H 0.66208 0.26101 0.0007 0.0
H1069 H 0.72313 0.2476 0.01745 0.0
H1070 H 0.73275 0.28369 0.01664 0.0
H1071 H 0.69669 0.23375 0.03333 0.0
H1072 H 0.70344 0.22939 0.98396 0.0
H1073 H 0.69721 0.23908 0.95971 0.0
H1074 H 0.63278 0.2265 0.96168 0.0
H1075 H 0.63858 0.21699 0.98602 0.0
C1076 C 0.67661 0.13714 0.03124 0.0
C1077 C 0.65583 0.13181 0.0322 0.0
C1078 C 0.68201 0.15578 0.02599 0.0
C1079 C 0.66677 0.16952 0.02162 0.0
C1080 C 0.64602 0.16376 0.02171 0.0
C1081 C 0.64058 0.14509 0.02703 0.0
C1082 C 0.67256 0.19069 0.01849 0.0
C1083 C 0.66849 0.19739 0.00503 0.0
C1084 C 0.68284 0.20399 0.02878 0.0
C1085 C 0.68683 0.19806 0.04333 0.0
C1086 C 0.67054 0.19234 0.05127 0.0
C1087 C 0.67445 0.18637 0.06487 0.0
C1088 C 0.6946 0.18624 0.07071 0.0
C1089 C 0.71086 0.19215 0.06296 0.0
C1090 C 0.70702 0.19809 0.04934 0.0
C1091 C 0.68334 0.28636 0.00309 0.0
C1092 C 0.70305 0.29324 0.00803 0.0
C1093 C 0.67772 0.26569 0.00379 0.0
C1094 C 0.69186 0.25151 0.00918 0.0
C1095 C 0.7119 0.25824 0.01335 0.0
C1096 C 0.7174 0.27888 0.01285 0.0
C1097 C 0.68538 0.23023 0.0118 0.0
C1098 C 0.68917 0.22349 0.0253 0.0
C1099 C 0.67497 0.21695 0.00149 0.0
C1100 C 0.67143 0.22268 0.98686 0.0
C1101 C 0.68792 0.22886 0.97926 0.0
C1102 C 0.68447 0.23429 0.96549 0.0
C1103 C 0.6646 0.23346 0.95917 0.0
C1104 C 0.64815 0.22716 0.9666 0.0
C1105 C 0.65152 0.22173 0.98038 0.0
H1106 H 0.66196 0.23766 0.94851 0.0
H1107 H 0.6976 0.18161 0.08125 0.0
H1108 H 0.99734 0.16334 0.30747 0.0
H1109 H 0.96245 0.17283 0.30018 0.0
H1110 H 0.94547 0.10875 0.29419 0.0
H1111 H 0.9808 0.09905 0.30062 0.0
H1112 H 0.92711 0.12936 0.27443 0.0
H1113 H 0.93482 0.1381 0.32417 0.0
H1114 H 0.95089 0.15094 0.34687 0.0
H1115 H 0.93991 0.21313 0.33612 0.0
H1116 H 0.92402 0.20066 0.31327 0.0
H1117 H 0.81932 0.14224 0.27944 0.0
H1118 H 0.85527 0.13323 0.28436 0.0
H1119 H 0.87273 0.19705 0.28391 0.0
H1120 H 0.83676 0.20625 0.2789 0.0
H1121 H 0.89066 0.17684 0.30666 0.0
H1122 H 0.88173 0.16671 0.25674 0.0
H1123 H 0.86488 0.15261 0.2346 0.0
H1124 H 0.87709 0.09123 0.24664 0.0
H1125 H 0.89377 0.10498 0.26896 0.0
C1126 C 0.9864 0.15119 0.30427 0.0
C1127 C 0.99197 0.13038 0.30472 0.0
C1128 C 0.96631 0.15668 0.3003 0.0
C1129 C 0.95119 0.14152 0.29696 0.0
C1130 C 0.95683 0.12074 0.29685 0.0
C1131 C 0.97701 0.11521 0.30066 0.0
C1132 C 0.92942 0.14735 0.29398 0.0
C1133 C 0.91909 0.13955 0.28157 0.0
C1134 C 0.91898 0.16089 0.30319 0.0
C1135 C 0.92841 0.16844 0.31696 0.0
C1136 C 0.93596 0.15451 0.32661 0.0
C1137 C 0.94502 0.16173 0.33951 0.0
C1138 C 0.94646 0.18284 0.34292 0.0
C1139 C 0.9388 0.19678 0.33346 0.0
C1140 C 0.92975 0.18965 0.32053 0.0
C1141 C 0.83077 0.1544 0.28043 0.0
C1142 C 0.82516 0.17498 0.27875 0.0
C1143 C 0.85132 0.1492 0.28317 0.0
C1144 C 0.86665 0.16446 0.28437 0.0
C1145 C 0.86111 0.18505 0.28298 0.0
C1146 C 0.84056 0.19026 0.28009 0.0
C1147 C 0.88847 0.15889 0.28714 0.0
C1148 C 0.89876 0.16671 0.29953 0.0
C1149 C 0.89876 0.14517 0.27802 0.0
C1150 C 0.88882 0.13688 0.26458 0.0
C1151 C 0.88067 0.15021 0.25472 0.0
C1152 C 0.87118 0.14228 0.24213 0.0
C1153 C 0.86987 0.12104 0.23923 0.0
C1154 C 0.8781 0.10768 0.24891 0.0
C1155 C 0.88759 0.11554 0.26152 0.0
H1156 H 0.86252 0.11493 0.22948 0.0
H1157 H 0.95348 0.1884 0.35291 0.0
H1158 H 0.92098 0.48917 0.52253 0.0
H1159 H 0.91482 0.45375 0.51343 0.0
H1160 H 0.97791 0.43887 0.52418 0.0
H1161 H 0.98409 0.474 0.53383 0.0
H1162 H 0.9582 0.41831 0.49738 0.0
H1163 H 0.94964 0.4305 0.54727 0.0
H1164 H 0.93524 0.44967 0.56726 0.0
H1165 H 0.87407 0.43598 0.55012 0.0
H1166 H 0.88815 0.41703 0.52989 0.0
H1167 H 0.9538 0.31113 0.50863 0.0
H1168 H 0.95986 0.34802 0.50742 0.0
H1169 H 0.89533 0.35934 0.5122 0.0
H1170 H 0.88959 0.32264 0.51429 0.0
H1171 H 0.91494 0.38294 0.52943 0.0
H1172 H 0.92186 0.36749 0.48091 0.0
H1173 H 0.9348 0.3496 0.45993 0.0
H1174 H 0.99623 0.36972 0.47258 0.0
H1175 H 0.98371 0.38752 0.49373 0.0
C1176 C 0.93364 0.47846 0.52283 0.0
C1177 C 0.95293 0.48438 0.52919 0.0
C1178 C 0.93013 0.45829 0.51747 0.0
C1179 C 0.94588 0.44373 0.51824 0.0
C1180 C 0.96561 0.44996 0.52343 0.0
C1181 C 0.9691 0.47009 0.52894 0.0
C1182 C 0.94098 0.42159 0.51574 0.0
C1183 C 0.94885 0.41043 0.50437 0.0
C1184 C 0.92839 0.41157 0.52471 0.0
C1185 C 0.91994 0.42256 0.53701 0.0
C1186 C 0.93312 0.43172 0.54772 0.0
C1187 C 0.92503 0.44253 0.55909 0.0
C1188 C 0.90376 0.44409 0.55994 0.0
C1189 C 0.89054 0.43478 0.54944 0.0
C1190 C 0.89857 0.42401 0.53802 0.0
C1191 C 0.94088 0.3215 0.50912 0.0
C1192 C 0.92126 0.31411 0.51163 0.0
C1193 C 0.94431 0.34261 0.50836 0.0
C1194 C 0.92805 0.35661 0.50965 0.0
C1195 C 0.9082 0.34896 0.51128 0.0
C1196 C 0.90489 0.32797 0.51242 0.0
C1197 C 0.93196 0.37921 0.51088 0.0
C1198 C 0.92405 0.3906 0.52218 0.0
C1199 C 0.94426 0.38938 0.50168 0.0
C1200 C 0.95186 0.37869 0.48897 0.0
C1201 C 0.93815 0.36797 0.47927 0.0
C1202 C 0.94541 0.35787 0.46734 0.0
C1203 C 0.96633 0.35848 0.46494 0.0
C1204 C 0.98003 0.36924 0.47446 0.0
C1205 C 0.97286 0.37937 0.48641 0.0
H1206 H 0.97191 0.35065 0.4557 0.0
H1207 H 0.89751 0.45247 0.56876 0.0
H1208 H 0.73883 0.09475 0.49322 0.0
H1209 H 0.76954 0.11526 0.50006 0.0
H1210 H 0.73627 0.17061 0.49134 0.0
H1211 H 0.70584 0.15013 0.48372 0.0
H1212 H 0.77122 0.17131 0.47994 0.0
H1213 H 0.75102 0.15767 0.52532 0.0
H1214 H 0.74044 0.13666 0.54417 0.0
H1215 H 0.79749 0.10397 0.54343 0.0
H1216 H 0.8083 0.12459 0.52444 0.0
H1217 H 0.85081 0.23875 0.50962 0.0
H1218 H 0.81811 0.22013 0.50578 0.0
H1219 H 0.85015 0.16246 0.50734 0.0
H1220 H 0.88294 0.1809 0.51112 0.0
H1221 H 0.81521 0.16439 0.52323 0.0
H1222 H 0.83412 0.17773 0.47689 0.0
H1223 H 0.84432 0.19958 0.45838 0.0
H1224 H 0.78866 0.23414 0.46168 0.0
H1225 H 0.77827 0.21266 0.48036 0.0
C1226 C 0.73801 0.11129 0.49277 0.0
C1227 C 0.71983 0.12074 0.48785 0.0
C1228 C 0.75555 0.12304 0.49686 0.0
C1229 C 0.75522 0.14453 0.49633 0.0
C1230 C 0.73691 0.15406 0.49186 0.0
C1231 C 0.71942 0.14231 0.48765 0.0
C1232 C 0.77429 0.15692 0.49956 0.0
C1233 C 0.78061 0.17005 0.48954 0.0
C1234 C 0.78683 0.15501 0.51194 0.0
C1235 C 0.78039 0.14256 0.52336 0.0
C1236 C 0.76124 0.14589 0.5291 0.0
C1237 C 0.75522 0.13407 0.53983 0.0
C1238 C 0.76826 0.11896 0.54497 0.0
C1239 C 0.78739 0.11567 0.53943 0.0
C1240 C 0.79348 0.12743 0.52869 0.0
C1241 C 0.85092 0.2221 0.50914 0.0
C1242 C 0.86951 0.21131 0.51063 0.0
C1243 C 0.83222 0.2115 0.50693 0.0
C1244 C 0.83175 0.18993 0.50623 0.0
C1245 C 0.85021 0.17912 0.50787 0.0
C1246 C 0.86893 0.18969 0.50995 0.0
C1247 C 0.81201 0.17861 0.50361 0.0
C1248 C 0.80565 0.1657 0.51371 0.0
C1249 C 0.79932 0.18085 0.49138 0.0
C1250 C 0.80553 0.19373 0.48013 0.0
C1251 C 0.82414 0.19011 0.47375 0.0
C1252 C 0.82994 0.2024 0.46321 0.0
C1253 C 0.81718 0.21828 0.45888 0.0
C1254 C 0.79855 0.22185 0.46506 0.0
C1255 C 0.79269 0.20962 0.47562 0.0
H1256 H 0.82169 0.22777 0.45072 0.0
H1257 H 0.76357 0.10982 0.55328 0.0
H1258 H 0.96653 0.20752 0.73041 0.0
H1259 H 0.93877 0.23222 0.73295 0.0
H1260 H 0.97733 0.26949 0.76248 0.0
H1261 H 0.00495 0.2444 0.76044 0.0
H1262 H 0.93756 0.27149 0.76903 0.0
H1263 H 0.97629 0.2777 0.7281 0.0
H1264 H 0.99056 0.26471 0.70613 0.0
H1265 H 0.92963 0.2516 0.68833 0.0
H1266 H 0.91502 0.26424 0.71029 0.0
H1267 H 0.90811 0.373 0.73711 0.0
H1268 H 0.92627 0.34038 0.73621 0.0
H1269 H 0.87641 0.31159 0.75546 0.0
H1270 H 0.85815 0.34438 0.75661 0.0
H1271 H 0.91874 0.30292 0.72435 0.0
H1272 H 0.89782 0.27678 0.77776 0.0
H1273 H 0.88661 0.29163 0.80023 0.0
H1274 H 0.91684 0.34856 0.79359 0.0
H1275 H 0.92844 0.33396 0.77118 0.0
C1276 C 0.9689 0.22056 0.73785 0.0
C1277 C 0.98809 0.22411 0.74511 0.0
C1278 C 0.95305 0.23478 0.73917 0.0
C1279 C 0.95615 0.2529 0.74766 0.0
C1280 C 0.97466 0.25567 0.75579 0.0
C1281 C 0.99049 0.2414 0.75453 0.0
C1282 C 0.94122 0.26999 0.74692 0.0
C1283 C 0.93324 0.27821 0.75925 0.0
C1284 C 0.93584 0.27897 0.73417 0.0
C1285 C 0.94458 0.2717 0.72088 0.0
C1286 C 0.96595 0.27194 0.71953 0.0
C1287 C 0.9741 0.26464 0.70707 0.0
C1288 C 0.96101 0.25728 0.69585 0.0
C1289 C 0.93974 0.25727 0.69704 0.0
C1290 C 0.93152 0.2645 0.70949 0.0
C1291 C 0.90086 0.35972 0.74104 0.0
C1292 C 0.88174 0.36138 0.74706 0.0
C1293 C 0.91126 0.34104 0.74047 0.0
C1294 C 0.90282 0.32361 0.74591 0.0
C1295 C 0.88333 0.32493 0.75137 0.0
C1296 C 0.87288 0.34366 0.75196 0.0
C1297 C 0.91508 0.30449 0.74647 0.0
C1298 C 0.92264 0.29591 0.73409 0.0
C1299 C 0.92041 0.29548 0.75921 0.0
C1300 C 0.91376 0.30435 0.77273 0.0
C1301 C 0.90211 0.29245 0.78113 0.0
C1302 C 0.89569 0.30082 0.79384 0.0
C1303 C 0.90094 0.32105 0.79831 0.0
C1304 C 0.91271 0.33292 0.79009 0.0
C1305 C 0.91919 0.32461 0.77738 0.0
H1306 H 0.89594 0.32751 0.80815 0.0
H1307 H 0.96735 0.25162 0.68622 0.0
H1308 H 0.88446 0.50185 0.97508 0.0
H1309 H 0.85474 0.48235 0.9813 0.0
H1310 H 0.89485 0.43695 0.99896 0.0
H1311 H 0.92484 0.4566 0.99292 0.0
H1312 H 0.86441 0.41935 0.98168 0.0
H1313 H 0.86882 0.46917 0.02012 0.0
H1314 H 0.87181 0.50385 0.03177 0.0
H1315 H 0.8149 0.52106 0.01099 0.0
H1316 H 0.8117 0.48657 0.99905 0.0
H1317 H 0.77942 0.36785 0.00915 0.0
H1318 H 0.81209 0.38536 0.00641 0.0
H1319 H 0.77941 0.43624 0.98904 0.0
H1320 H 0.74678 0.41908 0.99192 0.0
H1321 H 0.80799 0.44965 0.00838 0.0
H1322 H 0.80506 0.40099 0.96857 0.0
H1323 H 0.80216 0.36656 0.95652 0.0
H1324 H 0.8563 0.34734 0.97973 0.0
H1325 H 0.85936 0.38161 0.99206 0.0
C1326 C 0.88704 0.48799 0.98059 0.0
C1327 C 0.90708 0.48087 0.98357 0.0
C1328 C 0.87 0.47679 0.98408 0.0
C1329 C 0.87257 0.45827 0.99069 0.0
C1330 C 0.89253 0.4512 0.99385 0.0
C1331 C 0.90963 0.46243 0.99037 0.0
C1332 C 0.85434 0.44596 0.99371 0.0
C1333 C 0.85224 0.42582 0.98775 0.0
C1334 C 0.83829 0.45456 0.00139 0.0
C1335 C 0.84011 0.47531 0.0086 0.0
C1336 C 0.85701 0.48039 0.01795 0.0
C1337 C 0.85873 0.50001 0.02462 0.0
C1338 C 0.84357 0.51466 0.02211 0.0
C1339 C 0.82663 0.5097 0.01293 0.0
C1340 C 0.82485 0.49011 0.00622 0.0
C1341 C 0.77919 0.38269 0.00464 0.0
C1342 C 0.76045 0.39206 0.00077 0.0
C1343 C 0.79789 0.39267 0.00306 0.0
C1344 C 0.79821 0.41209 0.99748 0.0
C1345 C 0.77955 0.4213 0.99343 0.0
C1346 C 0.76089 0.41141 0.99504 0.0
C1347 C 0.81787 0.42318 0.99612 0.0
C1348 C 0.82025 0.4431 0.00243 0.0
C1349 C 0.83414 0.41438 0.98874 0.0
C1350 C 0.8323 0.39378 0.98135 0.0
C1351 C 0.81624 0.38937 0.97119 0.0
C1352 C 0.81459 0.3699 0.9643 0.0
C1353 C 0.829 0.35475 0.96739 0.0
C1354 C 0.84512 0.35907 0.97737 0.0
C1355 C 0.84683 0.37852 0.9843 0.0
H1356 H 0.82769 0.33969 0.96204 0.0
H1357 H 0.84493 0.52984 0.02728 0.0
H1358 H 0.63758 0.38383 0.24128 0.0
H1359 H 0.65579 0.35475 0.25086 0.0
H1360 H 0.70841 0.39351 0.26248 0.0
H1361 H 0.68992 0.42315 0.25378 0.0
H1362 H 0.71246 0.35455 0.24276 0.0
H1363 H 0.69018 0.37986 0.28749 0.0
H1364 H 0.66436 0.39178 0.3038 0.0
H1365 H 0.63268 0.33382 0.29733 0.0
H1366 H 0.65815 0.32166 0.2808 0.0
H1367 H 0.77483 0.27615 0.26712 0.0
H1368 H 0.75778 0.30945 0.26661 0.0
H1369 H 0.69952 0.28 0.27179 0.0
H1370 H 0.71681 0.24681 0.27313 0.0
H1371 H 0.69902 0.31602 0.28426 0.0
H1372 H 0.7167 0.29101 0.23882 0.0
H1373 H 0.73933 0.27769 0.22078 0.0
H1374 H 0.77566 0.33299 0.22613 0.0
H1375 H 0.75337 0.34653 0.24434 0.0
C1376 C 0.65274 0.38648 0.24628 0.0
C1377 C 0.66225 0.40598 0.24662 0.0
C1378 C 0.66318 0.36973 0.25167 0.0
C1379 C 0.6834 0.37205 0.25733 0.0
C1380 C 0.69278 0.39148 0.25811 0.0
C1381 C 0.68222 0.40835 0.25299 0.0
C1382 C 0.69536 0.35376 0.26113 0.0
C1383 C 0.70987 0.34631 0.25197 0.0
C1384 C 0.69125 0.34268 0.27285 0.0
C1385 C 0.67595 0.34994 0.28279 0.0
C1386 C 0.67759 0.36973 0.28943 0.0
C1387 C 0.66304 0.37651 0.29874 0.0
C1388 C 0.64686 0.36359 0.30157 0.0
C1389 C 0.64521 0.34383 0.29511 0.0
C1390 C 0.65971 0.33698 0.28578 0.0
C1391 C 0.75845 0.27687 0.26842 0.0
C1392 C 0.74708 0.25891 0.27003 0.0
C1393 C 0.74868 0.29588 0.26803 0.0
C1394 C 0.72723 0.2972 0.26871 0.0
C1395 C 0.71605 0.27941 0.27115 0.0
C1396 C 0.72593 0.26044 0.27191 0.0
C1397 C 0.71638 0.31673 0.2659 0.0
C1398 C 0.7019 0.32434 0.27513 0.0
C1399 C 0.7201 0.32775 0.25401 0.0
C1400 C 0.73351 0.31968 0.24304 0.0
C1401 C 0.7296 0.30026 0.23621 0.0
C1402 C 0.74235 0.29268 0.22595 0.0
C1403 C 0.75896 0.30446 0.22234 0.0
C1404 C 0.76281 0.32387 0.22895 0.0
C1405 C 0.75012 0.33151 0.23924 0.0
H1406 H 0.76882 0.29857 0.21439 0.0
H1407 H 0.63562 0.36886 0.30878 0.0
H1408 H 0.18365 1.00017 0.39672 0.0
H1409 H 0.19478 0.99066 0.42021 0.0
H1410 H 0.1908 0.92646 0.40631 0.0
H1411 H 0.1787 0.93601 0.38304 0.0
H1412 H 0.17626 0.93024 0.43009 0.0
H1413 H 0.23803 0.95448 0.41211 0.0
H1414 H 0.26056 0.97865 0.4013 0.0
H1415 H 0.25372 0.02322 0.43534 0.0
H1416 H 0.23091 0.99941 0.44627 0.0
H1417 H 0.24125 0.89331 0.48592 0.0
H1418 H 0.23083 0.9046 0.46273 0.0
H1419 H 0.21061 0.96236 0.48116 0.0
H1420 H 0.22046 0.951 0.50445 0.0
H1421 H 0.23781 0.96207 0.45566 0.0
H1422 H 0.17501 0.9353 0.47299 0.0
H1423 H 0.15478 0.90871 0.48336 0.0
H1424 H 0.16699 0.86575 0.44934 0.0
H1425 H 0.18757 0.89202 0.43889 0.0
C1426 C 0.18519 0.98405 0.39874 0.0
C1427 C 0.18037 0.9688 0.38813 0.0
C1428 C 0.19167 0.97861 0.41212 0.0
C1429 C 0.19401 0.95782 0.41502 0.0
C1430 C 0.18911 0.94259 0.40438 0.0
C1431 C 0.18223 0.94803 0.39109 0.0
C1432 C 0.20121 0.95188 0.42917 0.0
C1433 C 0.18987 0.93708 0.43556 0.0
C1434 C 0.21886 0.96089 0.43647 0.0
C1435 C 0.23259 0.97524 0.42994 0.0
C1436 C 0.24121 0.9695 0.41724 0.0
C1437 C 0.25405 0.98312 0.4111 0.0
C1438 C 0.25853 0.00247 0.41761 0.0
C1439 C 0.25021 0.00823 0.4303 0.0
C1440 C 0.23734 0.99467 0.43648 0.0
C1441 C 0.2347 0.90846 0.48503 0.0
C1442 C 0.2316 0.92126 0.49699 0.0
C1443 C 0.22875 0.91485 0.47181 0.0
C1444 C 0.21997 0.93426 0.47031 0.0
C1445 C 0.2174 0.94733 0.48216 0.0
C1446 C 0.22295 0.94079 0.49543 0.0
C1447 C 0.21284 0.94059 0.45637 0.0
C1448 C 0.22421 0.95538 0.45009 0.0
C1449 C 0.19552 0.93128 0.44904 0.0
C1450 C 0.18301 0.91555 0.45525 0.0
C1451 C 0.17355 0.92012 0.4678 0.0
C1452 C 0.16198 0.90513 0.47367 0.0
C1453 C 0.15965 0.88554 0.46704 0.0
C1454 C 0.16884 0.88093 0.45449 0.0
C1455 C 0.18044 0.89586 0.44858 0.0
H1456 H 0.15069 0.87395 0.4716 0.0
H1457 H 0.26847 0.013 0.41284 0.0
H1458 H 0.09857 0.69757 0.64249 0.0
H1459 H 0.10755 0.71475 0.66541 0.0
H1460 H 0.1208 0.656 0.68218 0.0
H1461 H 0.11211 0.63877 0.65922 0.0
H1462 H 0.09721 0.68562 0.69969 0.0
H1463 H 0.15903 0.67982 0.67373 0.0
H1464 H 0.17901 0.68498 0.65324 0.0
H1465 H 0.17015 0.75018 0.65843 0.0
H1466 H 0.14982 0.74536 0.67883 0.0
H1467 H 0.15926 0.70909 0.76092 0.0
H1468 H 0.14329 0.69569 0.73869 0.0
H1469 H 0.15082 0.75485 0.72162 0.0
H1470 H 0.16775 0.76807 0.74372 0.0
H1471 H 0.16131 0.72739 0.7037 0.0
H1472 H 0.10242 0.7352 0.73028 0.0
H1473 H 0.08093 0.73181 0.75026 0.0
H1474 H 0.08165 0.66609 0.74366 0.0
H1475 H 0.10339 0.66907 0.72375 0.0
C1476 C 0.10307 0.68833 0.65113 0.0
C1477 C 0.10471 0.66688 0.64913 0.0
C1478 C 0.10824 0.69814 0.66417 0.0
C1479 C 0.11487 0.6866 0.67542 0.0
C1480 C 0.11566 0.66512 0.6736 0.0
C1481 C 0.11081 0.65533 0.66051 0.0
C1482 C 0.12236 0.69701 0.68882 0.0
C1483 C 0.11129 0.69464 0.70067 0.0
C1484 C 0.14034 0.70931 0.68988 0.0
C1485 C 0.15271 0.71221 0.6777 0.0
C1486 C 0.16118 0.69524 0.67042 0.0
C1487 C 0.1726 0.69811 0.65884 0.0
C1488 C 0.1758 0.71789 0.65451 0.0
C1489 C 0.16763 0.73486 0.66178 0.0
C1490 C 0.15617 0.73207 0.67335 0.0
C1491 C 0.15738 0.7193 0.75247 0.0
C1492 C 0.16475 0.73964 0.75407 0.0
C1493 C 0.1481 0.71166 0.73977 0.0
C1494 C 0.14547 0.72434 0.7285 0.0
C1495 C 0.15262 0.74476 0.73014 0.0
C1496 C 0.16228 0.75231 0.74278 0.0
C1497 C 0.13629 0.71594 0.71482 0.0
C1498 C 0.14707 0.71862 0.70285 0.0
C1499 C 0.11781 0.70425 0.71363 0.0
C1500 C 0.10468 0.70236 0.72558 0.0
C1501 C 0.09812 0.72002 0.73315 0.0
C1502 C 0.08588 0.71817 0.74445 0.0
C1503 C 0.07997 0.69875 0.74824 0.0
C1504 C 0.08625 0.68113 0.74071 0.0
C1505 C 0.09852 0.68289 0.7294 0.0
H1506 H 0.07049 0.69735 0.757 0.0
H1507 H 0.18465 0.72008 0.64554 0.0
H1508 H 0.42896 0.5944 0.89006 0.0
H1509 H 0.41634 0.60317 0.91292 0.0
H1510 H 0.4633 0.65 0.92038 0.0
H1511 H 0.47715 0.64015 0.89802 0.0
H1512 H 0.45846 0.63366 0.94329 0.0
H1513 H 0.41211 0.66061 0.90867 0.0
H1514 H 0.3887 0.65957 0.88755 0.0
H1515 H 0.34914 0.61717 0.90581 0.0
H1516 H 0.37247 0.61775 0.92698 0.0
H1517 H 0.37506 0.69469 0.98299 0.0
H1518 H 0.38859 0.68126 0.96121 0.0
H1519 H 0.41696 0.63126 0.98256 0.0
H1520 H 0.40425 0.64524 0.00454 0.0
H1521 H 0.38417 0.64906 0.94527 0.0
H1522 H 0.46089 0.61689 0.96832 0.0
H1523 H 0.48534 0.62358 0.98867 0.0
H1524 H 0.46598 0.68649 0.9922 0.0
H1525 H 0.44162 0.68024 0.97178 0.0
C1526 C 0.43701 0.6062 0.89667 0.0
C1527 C 0.45405 0.61666 0.89206 0.0
C1528 C 0.42952 0.61143 0.90969 0.0
C1529 C 0.43851 0.62761 0.91825 0.0
C1530 C 0.45596 0.63757 0.91393 0.0
C1531 C 0.46373 0.63207 0.90103 0.0
C1532 C 0.42938 0.63463 0.93148 0.0
C1533 C 0.44221 0.63697 0.94372 0.0
C1534 C 0.40824 0.63941 0.93204 0.0
C1535 C 0.39414 0.63906 0.91935 0.0
C1536 C 0.39849 0.65096 0.90814 0.0
C1537 C 0.38523 0.65047 0.89617 0.0
C1538 C 0.36748 0.63827 0.89533 0.0
C1539 C 0.36292 0.62658 0.90647 0.0
C1540 C 0.37615 0.627 0.91846 0.0
C1541 C 0.38409 0.68078 0.98304 0.0
C1542 C 0.38875 0.67112 0.9955 0.0
C1543 C 0.3918 0.67308 0.97056 0.0
C1544 C 0.40411 0.65543 0.97025 0.0
C1545 C 0.40796 0.64521 0.98258 0.0
C1546 C 0.40059 0.65314 0.99512 0.0
C1547 C 0.41325 0.6481 0.95708 0.0
C1548 C 0.4004 0.64564 0.94486 0.0
C1549 C 0.43452 0.64405 0.95643 0.0
C1550 C 0.44929 0.64802 0.96863 0.0
C1551 C 0.46191 0.63216 0.97342 0.0
C1552 C 0.47574 0.63588 0.98497 0.0
C1553 C 0.47716 0.65543 0.99175 0.0
C1554 C 0.46481 0.67134 0.98697 0.0
C1555 C 0.45098 0.66771 0.97542 0.0
H1556 H 0.48786 0.65827 0.0007 0.0
H1557 H 0.35723 0.63791 0.88605 0.0
H1558 H 0.54593 0.95242 0.15169 0.0
H1559 H 0.53715 0.93955 0.17399 0.0
H1560 H 0.47296 0.95064 0.16371 0.0
H1561 H 0.48167 0.96373 0.14153 0.0
H1562 H 0.48205 0.9617 0.19021 0.0
H1563 H 0.49391 0.90214 0.16002 0.0
H1564 H 0.51346 0.87984 0.14404 0.0
H1565 H 0.56136 0.87421 0.17615 0.0
H1566 H 0.54222 0.89672 0.19227 0.0
H1567 H 0.44027 0.89641 0.23878 0.0
H1568 H 0.44949 0.91281 0.21775 0.0
H1569 H 0.51375 0.90371 0.22893 0.0
H1570 H 0.50469 0.88714 0.24981 0.0
H1571 H 0.5047 0.89198 0.20216 0.0
H1572 H 0.49197 0.95125 0.23253 0.0
H1573 H 0.47177 0.97314 0.24834 0.0
H1574 H 0.42466 0.97872 0.2157 0.0
H1575 H 0.44446 0.95662 0.19974 0.0
C1576 C 0.52996 0.95214 0.15422 0.0
C1577 C 0.51449 0.95905 0.14485 0.0
C1578 C 0.52495 0.94476 0.16694 0.0
C1579 C 0.50435 0.94384 0.17044 0.0
C1580 C 0.48895 0.95122 0.16126 0.0
C1581 C 0.49396 0.95875 0.14859 0.0
C1582 C 0.49874 0.93477 0.18352 0.0
C1583 C 0.48682 0.94636 0.19275 0.0
C1584 C 0.50523 0.91488 0.18696 0.0
C1585 C 0.51673 0.90128 0.1773 0.0
C1586 C 0.50869 0.89627 0.16364 0.0
C1587 C 0.51968 0.88358 0.15456 0.0
C1588 C 0.53867 0.87566 0.15907 0.0
C1589 C 0.54667 0.88038 0.17267 0.0
C1590 C 0.53575 0.89309 0.18178 0.0
C1591 C 0.45636 0.89803 0.2368 0.0
C1592 C 0.47174 0.89046 0.24597 0.0
C1593 C 0.46161 0.90747 0.2248 0.0
C1594 C 0.48233 0.90961 0.22181 0.0
C1595 C 0.49768 0.90221 0.23102 0.0
C1596 C 0.49245 0.89278 0.24298 0.0
C1597 C 0.48808 0.91894 0.20888 0.0
C1598 C 0.5 0.90735 0.19965 0.0
C1599 C 0.48149 0.93877 0.20542 0.0
C1600 C 0.46961 0.95212 0.21498 0.0
C1601 C 0.47723 0.95701 0.22875 0.0
C1602 C 0.46587 0.96948 0.23774 0.0
C1603 C 0.44692 0.97728 0.23304 0.0
C1604 C 0.43932 0.97266 0.21933 0.0
C1605 C 0.45062 0.96017 0.21031 0.0
H1606 H 0.43815 0.98693 0.24001 0.0
H1607 H 0.54716 0.86583 0.15203 0.0
H1608 H 0.08528 0.65344 0.91377 0.0
H1609 H 0.0995 0.66849 0.89377 0.0
H1610 H 0.08563 0.72922 0.91078 0.0
H1611 H 0.07134 0.7142 0.93095 0.0
H1612 H 0.07801 0.72501 0.88192 0.0
H1613 H 0.13294 0.71306 0.91528 0.0
H1614 H 0.15364 0.69321 0.93198 0.0
H1615 H 0.1679 0.64933 0.89897 0.0
H1616 H 0.147 0.66875 0.8821 0.0
H1617 H 0.14933 0.76713 0.83532 0.0
H1618 H 0.13107 0.75975 0.8561 0.0
H1619 H 0.13813 0.69475 0.8466 0.0
H1620 H 0.15623 0.70188 0.82602 0.0
H1621 H 0.1502 0.70627 0.87365 0.0
H1622 H 0.09255 0.71732 0.84077 0.0
H1623 H 0.07171 0.73748 0.82433 0.0
H1624 H 0.06324 0.78416 0.85682 0.0
H1625 H 0.08428 0.76438 0.87341 0.0
C1626 C 0.08518 0.67 0.91324 0.0
C1627 C 0.07746 0.68265 0.92402 0.0
C1628 C 0.09326 0.67857 0.9018 0.0
C1629 C 0.09395 0.69998 0.90093 0.0
C1630 C 0.08529 0.71266 0.91129 0.0
C1631 C 0.07712 0.70406 0.92277 0.0
C1632 C 0.10479 0.7089 0.88956 0.0
C1633 C 0.0939 0.72123 0.88022 0.0
C1634 C 0.12551 0.70393 0.88736 0.0
C1635 C 0.13827 0.69229 0.89744 0.0
C1636 C 0.14037 0.6991 0.9116 0.0
C1637 C 0.15215 0.68793 0.92109 0.0
C1638 C 0.16205 0.67 0.91654 0.0
C1639 C 0.16022 0.66322 0.90248 0.0
C1640 C 0.14842 0.67432 0.89294 0.0
C1641 C 0.14685 0.75128 0.83764 0.0
C1642 C 0.15429 0.7351 0.82905 0.0
C1643 C 0.13638 0.7471 0.84948 0.0
C1644 C 0.13327 0.7267 0.85288 0.0
C1645 C 0.14044 0.7106 0.8442 0.0
C1646 C 0.15076 0.71473 0.8324 0.0
C1647 C 0.12323 0.72177 0.86571 0.0
C1648 C 0.13437 0.71027 0.87541 0.0
C1649 C 0.10284 0.72764 0.86825 0.0
C1650 C 0.0902 0.7395 0.85828 0.0
C1651 C 0.08641 0.73198 0.84437 0.0
C1652 C 0.07452 0.74331 0.83503 0.0
C1653 C 0.06621 0.76213 0.83951 0.0
C1654 C 0.06972 0.76961 0.85335 0.0
C1655 C 0.08161 0.75834 0.86273 0.0
H1656 H 0.05701 0.77088 0.83227 0.0
H1657 H 0.17116 0.66138 0.92391 0.0
H1658 H 0.47974 0.59679 0.1649 0.0
H1659 H 0.4637 0.613 0.14501 0.0
H1660 H 0.41284 0.57028 0.14383 0.0
H1661 H 0.4296 0.55287 0.16322 0.0
H1662 H 0.42185 0.57628 0.11844 0.0
H1663 H 0.40912 0.62079 0.15765 0.0
H1664 H 0.41689 0.64168 0.17951 0.0
H1665 H 0.45682 0.68041 0.15846 0.0
H1666 H 0.44958 0.65952 0.13651 0.0
H1667 H 0.36739 0.6457 0.07204 0.0
H1668 H 0.37545 0.62613 0.09277 0.0
H1669 H 0.43789 0.64862 0.09465 0.0
H1670 H 0.43018 0.66769 0.07395 0.0
H1671 H 0.41654 0.65233 0.12072 0.0
H1672 H 0.43121 0.60351 0.08217 0.0
H1673 H 0.4216 0.5826 0.06057 0.0
H1674 H 0.37443 0.55244 0.08127 0.0
H1675 H 0.38359 0.57341 0.10296 0.0
C1676 C 0.46536 0.59047 0.16029 0.0
C1677 C 0.45603 0.57343 0.16574 0.0
C1678 C 0.45599 0.60004 0.14902 0.0
C1679 C 0.43678 0.59322 0.14312 0.0
C1680 C 0.42757 0.57597 0.1483 0.0
C1681 C 0.4371 0.56614 0.15948 0.0
C1682 C 0.42657 0.60415 0.1315 0.0
C1683 C 0.42031 0.59288 0.11907 0.0
C1684 C 0.42448 0.62583 0.13225 0.0
C1685 C 0.42889 0.63849 0.14544 0.0
C1686 C 0.41967 0.63367 0.1577 0.0
C1687 C 0.42397 0.64553 0.17011 0.0
C1688 C 0.43735 0.66237 0.17038 0.0
C1689 C 0.44646 0.66737 0.15824 0.0
C1690 C 0.44225 0.65553 0.1458 0.0
C1691 C 0.38281 0.64641 0.0769 0.0
C1692 C 0.39817 0.65816 0.07137 0.0
C1693 C 0.38738 0.63524 0.08868 0.0
C1694 C 0.40725 0.63599 0.09519 0.0
C1695 C 0.42247 0.64789 0.08977 0.0
C1696 C 0.41804 0.6587 0.0779 0.0
C1697 C 0.41252 0.6245 0.10769 0.0
C1698 C 0.41777 0.63571 0.12027 0.0
C1699 C 0.41334 0.60281 0.10714 0.0
C1700 C 0.40789 0.59021 0.09412 0.0
C1701 C 0.41865 0.59257 0.08207 0.0
C1702 C 0.41332 0.58068 0.06983 0.0
C1703 C 0.39736 0.56625 0.06953 0.0
C1704 C 0.38675 0.56366 0.08151 0.0
C1705 C 0.39201 0.57553 0.09378 0.0
H1706 H 0.39326 0.55705 0.06004 0.0
H1707 H 0.44063 0.67157 0.17998 0.0
H1708 H 0.52789 0.97685 0.41678 0.0
H1709 H 0.52028 0.95576 0.39519 0.0
H1710 H 0.45791 0.94742 0.40656 0.0
H1711 H 0.46549 0.96828 0.42827 0.0
H1712 H 0.47524 0.91128 0.39594 0.0
H1713 H 0.46731 0.98154 0.38378 0.0
H1714 H 0.47827 0.01758 0.38247 0.0
H1715 H 0.52887 0.99795 0.35846 0.0
H1716 H 0.51837 0.96174 0.35981 0.0
H1717 H 0.42839 0.878 0.32997 0.0
H1718 H 0.43808 0.89578 0.35245 0.0
H1719 H 0.49808 0.90882 0.33831 0.0
H1720 H 0.48837 0.89147 0.31568 0.0
H1721 H 0.4829 0.94204 0.35059 0.0
H1722 H 0.49064 0.87191 0.36198 0.0
H1723 H 0.48017 0.83574 0.36337 0.0
H1724 H 0.43084 0.85458 0.38878 0.0
H1725 H 0.44084 0.89091 0.38739 0.0
C1726 C 0.51262 0.97034 0.41475 0.0
C1727 C 0.49725 0.97429 0.42417 0.0
C1728 C 0.50827 0.95841 0.40238 0.0
C1729 C 0.48848 0.9502 0.39924 0.0
C1730 C 0.47326 0.95367 0.40879 0.0
C1731 C 0.47756 0.9657 0.42112 0.0
C1732 C 0.48352 0.93844 0.38582 0.0
C1733 C 0.47669 0.91803 0.38601 0.0
C1734 C 0.4859 0.94716 0.37289 0.0
C1735 C 0.49218 0.96892 0.37202 0.0
C1736 C 0.48088 0.98489 0.37832 0.0
C1737 C 0.48699 0.00536 0.37755 0.0
C1738 C 0.50429 0.01005 0.37042 0.0
C1739 C 0.51549 0.99429 0.36401 0.0
C1740 C 0.50946 0.9738 0.36476 0.0
C1741 C 0.44371 0.88452 0.33166 0.0
C1742 C 0.45761 0.8833 0.32102 0.0
C1743 C 0.44925 0.89461 0.34455 0.0
C1744 C 0.46889 0.90345 0.34713 0.0
C1745 C 0.48285 0.90211 0.33656 0.0
C1746 C 0.47727 0.89215 0.32364 0.0
C1747 C 0.47461 0.91477 0.36064 0.0
C1748 C 0.48154 0.93517 0.36049 0.0
C1749 C 0.47241 0.90599 0.37359 0.0
C1750 C 0.46638 0.88415 0.37447 0.0
C1751 C 0.47746 0.86836 0.36778 0.0
C1752 C 0.47163 0.84782 0.36858 0.0
C1753 C 0.45482 0.84287 0.37613 0.0
C1754 C 0.44384 0.85844 0.38292 0.0
C1755 C 0.4496 0.87901 0.38214 0.0
H1756 H 0.45033 0.82696 0.37673 0.0
H1757 H 0.509 0.0259 0.36983 0.0
H1758 H 0.11206 0.00569 0.65672 0.0
H1759 H 0.12941 0.99238 0.63629 0.0
H1760 H 0.18816 0.00091 0.65901 0.0
H1761 H 0.17087 0.01432 0.67951 0.0
H1762 H 0.19001 0.01242 0.63264 0.0
H1763 H 0.16667 0.95363 0.65459 0.0
H1764 H 0.14171 0.9318 0.66525 0.0
H1765 H 0.10489 0.92668 0.62671 0.0
H1766 H 0.12949 0.94874 0.61587 0.0
H1767 H 0.24131 0.94524 0.58316 0.0
H1768 H 0.22836 0.96201 0.60438 0.0
H1769 H 0.16671 0.95913 0.58542 0.0
H1770 H 0.17939 0.94242 0.56434 0.0
H1771 H 0.16897 0.94395 0.61114 0.0
H1772 H 0.19256 0.00417 0.58963 0.0
H1773 H 0.21818 0.02571 0.57937 0.0
H1774 H 0.25573 0.0272 0.6176 0.0
H1775 H 0.23045 0.00542 0.62803 0.0
C1776 C 0.12866 0.00468 0.65739 0.0
C1777 C 0.14007 0.01091 0.66977 0.0
C1778 C 0.13857 0.9971 0.6457 0.0
C1779 C 0.16007 0.99536 0.64619 0.0
C1780 C 0.17156 0.00211 0.6584 0.0
C1781 C 0.16166 0.00979 0.6701 0.0
C1782 C 0.17042 0.98602 0.63405 0.0
C1783 C 0.18563 0.99732 0.62805 0.0
C1784 C 0.16462 0.96637 0.62801 0.0
C1785 C 0.14984 0.95299 0.63446 0.0
C1786 C 0.15318 0.94797 0.64842 0.0
C1787 C 0.1391 0.93554 0.65449 0.0
C1788 C 0.1217 0.92789 0.64667 0.0
C1789 C 0.11837 0.93263 0.63275 0.0
C1790 C 0.13238 0.94508 0.62664 0.0
C1791 C 0.22503 0.94841 0.58347 0.0
C1792 C 0.21137 0.94242 0.57209 0.0
C1793 C 0.21767 0.95801 0.59559 0.0
C1794 C 0.19656 0.96179 0.59647 0.0
C1795 C 0.18303 0.95627 0.58498 0.0
C1796 C 0.19035 0.94677 0.57292 0.0
C1797 C 0.18819 0.97054 0.60952 0.0
C1798 C 0.17341 0.95902 0.61576 0.0
C1799 C 0.19453 0.98987 0.61581 0.0
C1800 C 0.20973 0.00297 0.60955 0.0
C1801 C 0.20637 0.00893 0.5958 0.0
C1802 C 0.22081 0.02122 0.58997 0.0
C1803 C 0.2386 0.02777 0.59781 0.0
C1804 C 0.24196 0.02209 0.61152 0.0
C1805 C 0.22758 0.00978 0.61741 0.0
H1806 H 0.24976 0.03729 0.59327 0.0
H1807 H 0.11082 0.91827 0.65139 0.0
H1808 H 0.58777 0.47211 0.88082 0.0
H1809 H 0.60229 0.4582 0.90222 0.0
H1810 H 0.58688 0.39673 0.88573 0.0
H1811 H 0.57204 0.41068 0.86425 0.0
H1812 H 0.5804 0.4014 0.91346 0.0
H1813 H 0.63514 0.41405 0.88442 0.0
H1814 H 0.65575 0.43396 0.86922 0.0
H1815 H 0.66982 0.47867 0.90303 0.0
H1816 H 0.64902 0.45919 0.91838 0.0
H1817 H 0.65393 0.36029 0.96458 0.0
H1818 H 0.63456 0.36776 0.9428 0.0
H1819 H 0.64017 0.4327 0.95387 0.0
H1820 H 0.6593 0.42548 0.9755 0.0
H1821 H 0.65244 0.42186 0.92737 0.0
H1822 H 0.59539 0.40926 0.95587 0.0
H1823 H 0.57494 0.38851 0.97068 0.0
H1824 H 0.56628 0.34198 0.93734 0.0
H1825 H 0.58694 0.36235 0.92239 0.0
C1826 C 0.5874 0.45564 0.88177 0.0
C1827 C 0.57903 0.44245 0.8708 0.0
C1828 C 0.59568 0.4477 0.894 0.0
C1829 C 0.59606 0.42639 0.89545 0.0
C1830 C 0.58683 0.41321 0.8848 0.0
C1831 C 0.57836 0.42119 0.87255 0.0
C1832 C 0.60699 0.41806 0.90784 0.0
C1833 C 0.59625 0.40558 0.9164 0.0
C1834 C 0.62768 0.42353 0.91169 0.0
C1835 C 0.64038 0.43522 0.90253 0.0
C1836 C 0.64252 0.4282 0.88859 0.0
C1837 C 0.65425 0.4394 0.87995 0.0
C1838 C 0.66406 0.45759 0.88515 0.0
C1839 C 0.6622 0.46458 0.89901 0.0
C1840 C 0.65046 0.45345 0.9077 0.0
C1841 C 0.65083 0.37614 0.96242 0.0
C1842 C 0.65822 0.39229 0.97175 0.0
C1843 C 0.63974 0.38037 0.95 0.0
C1844 C 0.63598 0.40079 0.94673 0.0
C1845 C 0.64298 0.41685 0.95617 0.0
C1846 C 0.65388 0.41266 0.96856 0.0
C1847 C 0.62568 0.40577 0.93322 0.0
C1848 C 0.63664 0.41752 0.92438 0.0
C1849 C 0.60533 0.39943 0.92909 0.0
C1850 C 0.59292 0.3872 0.93807 0.0
C1851 C 0.58929 0.39451 0.95174 0.0
C1852 C 0.57763 0.38284 0.96015 0.0
C1853 C 0.56937 0.3639 0.95497 0.0
C1854 C 0.57272 0.35663 0.94135 0.0
C1855 C 0.58439 0.36823 0.93291 0.0
H1856 H 0.56034 0.35489 0.9615 0.0
H1857 H 0.67314 0.46625 0.87844 0.0
H1858 H 0.69943 0.1245 0.11271 0.0
H1859 H 0.71286 0.13969 0.13531 0.0
H1860 H 0.66928 0.10392 0.15598 0.0
H1861 H 0.65547 0.08919 0.13338 0.0
H1862 H 0.67109 0.14096 0.16754 0.0
H1863 H 0.72133 0.09076 0.15459 0.0
H1864 H 0.74613 0.07375 0.13941 0.0
H1865 H 0.78157 0.12953 0.14045 0.0
H1866 H 0.75681 0.14697 0.1555 0.0
H1867 H 0.7199 0.14598 0.23566 0.0
H1868 H 0.70607 0.13425 0.21239 0.0
H1869 H 0.7444 0.17825 0.1942 0.0
H1870 H 0.75832 0.19018 0.21746 0.0
H1871 H 0.74562 0.1387 0.1812 0.0
H1872 H 0.69522 0.18799 0.19547 0.0
H1873 H 0.67044 0.20368 0.21124 0.0
H1874 H 0.63531 0.14759 0.20839 0.0
H1875 H 0.66005 0.13145 0.19275 0.0
C1876 C 0.69278 0.11988 0.1221 0.0
C1877 C 0.67648 0.10564 0.12133 0.0
C1878 C 0.70048 0.12852 0.135 0.0
C1879 C 0.6923 0.12272 0.14738 0.0
C1880 C 0.67584 0.10866 0.14659 0.0
C1881 C 0.66796 0.10025 0.13368 0.0
C1882 C 0.70086 0.13123 0.16118 0.0
C1883 C 0.68736 0.14023 0.17057 0.0
C1884 C 0.72216 0.13069 0.16506 0.0
C1885 C 0.7371 0.12023 0.15605 0.0
C1886 C 0.73433 0.09944 0.1515 0.0
C1887 C 0.74839 0.08972 0.14293 0.0
C1888 C 0.76538 0.10057 0.13893 0.0
C1889 C 0.76838 0.12116 0.14353 0.0
C1890 C 0.75435 0.13097 0.15209 0.0
C1891 C 0.72539 0.15321 0.22672 0.0
C1892 C 0.74021 0.16904 0.22842 0.0
C1893 C 0.71741 0.14653 0.21344 0.0
C1894 C 0.72412 0.15549 0.2016 0.0
C1895 C 0.73901 0.17117 0.20322 0.0
C1896 C 0.74688 0.178 0.21652 0.0
C1897 C 0.71581 0.14822 0.18752 0.0
C1898 C 0.72937 0.13946 0.1781 0.0
C1899 C 0.69455 0.14876 0.18368 0.0
C1900 C 0.6796 0.15846 0.19304 0.0
C1901 C 0.6823 0.17894 0.1983 0.0
C1902 C 0.66825 0.18793 0.2072 0.0
C1903 C 0.65134 0.17662 0.21085 0.0
C1904 C 0.64842 0.15632 0.20557 0.0
C1905 C 0.66245 0.14725 0.19668 0.0
H1906 H 0.64047 0.18361 0.21774 0.0
H1907 H 0.77626 0.09301 0.1323 0.0
H1908 H 0.03403 0.18004 0.37578 0.0
H1909 H 0.01913 0.19493 0.39676 0.0
H1910 H 0.03937 0.14265 0.41925 0.0
H1911 H 0.05469 0.12782 0.3984 0.0
H1912 H 0.99875 0.15142 0.42225 0.0
H1913 H 0.06318 0.18834 0.42555 0.0
H1914 H 0.09007 0.21029 0.41705 0.0
H1915 H 0.04657 0.25905 0.4122 0.0
H1916 H 0.01932 0.23728 0.42048 0.0
H1917 H 0.97854 0.1839 0.49044 0.0
H1918 H 0.99641 0.1735 0.46967 0.0
H1919 H 0.97704 0.22914 0.45072 0.0
H1920 H 0.9594 0.23994 0.47173 0.0
H1921 H 0.0162 0.21997 0.44517 0.0
H1922 H 0.95195 0.18414 0.44181 0.0
H1923 H 0.92425 0.16264 0.44974 0.0
H1924 H 0.96612 0.11232 0.45377 0.0
H1925 H 0.99416 0.13363 0.44604 0.0
C1926 C 0.0357 0.17189 0.38526 0.0
C1927 C 0.04556 0.1527 0.38539 0.0
C1928 C 0.0271 0.1804 0.39723 0.0
C1929 C 0.02821 0.16993 0.40957 0.0
C1930 C 0.03829 0.15095 0.40981 0.0
C1931 C 0.04696 0.14246 0.39786 0.0
C1932 C 0.01806 0.17825 0.42207 0.0
C1933 C 0.00276 0.16628 0.42738 0.0
C1934 C 0.02278 0.19797 0.42843 0.0
C1935 C 0.03916 0.2111 0.4235 0.0
C1936 C 0.0593 0.20368 0.42256 0.0
C1937 C 0.07462 0.21611 0.4178 0.0
C1938 C 0.07002 0.23604 0.41405 0.0
C1939 C 0.0501 0.2436 0.41509 0.0
C1940 C 0.03472 0.23124 0.41982 0.0
C1941 C 0.97816 0.19402 0.4819 0.0
C1942 C 0.96738 0.21266 0.48268 0.0
C1943 C 0.98834 0.18801 0.47001 0.0
C1944 C 0.98772 0.20034 0.45853 0.0
C1945 C 0.97762 0.21934 0.45944 0.0
C1946 C 0.96753 0.22547 0.47143 0.0
C1947 C 0.99713 0.19296 0.44549 0.0
C1948 C 0.01218 0.20511 0.44004 0.0
C1949 C 0.99205 0.17346 0.43888 0.0
C1950 C 0.9752 0.16055 0.44346 0.0
C1951 C 0.95529 0.16854 0.44448 0.0
C1952 C 0.93952 0.15638 0.44892 0.0
C1953 C 0.94344 0.13615 0.45228 0.0
C1954 C 0.96312 0.12801 0.45117 0.0
C1955 C 0.97895 0.14012 0.44675 0.0
H1956 H 0.93121 0.12676 0.45572 0.0
H1957 H 0.0819 0.24563 0.41037 0.0
H1958 H 0.90401 0.53687 0.61349 0.0
H1959 H 0.89018 0.52324 0.63421 0.0
H1960 H 0.95146 0.50736 0.64916 0.0
H1961 H 0.96532 0.52085 0.62848 0.0
H1962 H 0.9259 0.47602 0.65065 0.0
H1963 H 0.92514 0.54858 0.66367 0.0
H1964 H 0.91602 0.58483 0.66077 0.0
H1965 H 0.85189 0.5692 0.65984 0.0
H1966 H 0.86062 0.53278 0.66256 0.0
H1967 H 0.91628 0.45794 0.7206 0.0
H1968 H 0.92401 0.47436 0.69944 0.0
H1969 H 0.85926 0.47869 0.68804 0.0
H1970 H 0.85127 0.46211 0.70938 0.0
H1971 H 0.88256 0.51488 0.68361 0.0
H1972 H 0.88378 0.44251 0.67216 0.0
H1973 H 0.89333 0.4065 0.67555 0.0
H1974 H 0.95713 0.42211 0.67371 0.0
H1975 H 0.94798 0.4583 0.67052 0.0
C1976 C 0.91455 0.53075 0.62131 0.0
C1977 C 0.93575 0.52988 0.61935 0.0
C1978 C 0.90662 0.52295 0.63313 0.0
C1979 C 0.91979 0.51435 0.64327 0.0
C1980 C 0.94099 0.51382 0.64144 0.0
C1981 C 0.94889 0.52151 0.62961 0.0
C1982 C 0.91154 0.50508 0.65554 0.0
C1983 C 0.9166 0.48462 0.65791 0.0
C1984 C 0.8988 0.51604 0.66477 0.0
C1985 C 0.89353 0.53792 0.66316 0.0
C1986 C 0.90909 0.55284 0.66273 0.0
C1987 C 0.90399 0.57342 0.66114 0.0
C1988 C 0.88339 0.5793 0.66008 0.0
C1989 C 0.86784 0.56462 0.66064 0.0
C1990 C 0.87285 0.54401 0.66221 0.0
C1991 C 0.90361 0.46246 0.71367 0.0
C1992 C 0.88314 0.45858 0.71663 0.0
C1993 C 0.90809 0.47182 0.70156 0.0
C1994 C 0.89222 0.4775 0.69211 0.0
C1995 C 0.87171 0.47435 0.69521 0.0
C1996 C 0.86719 0.46484 0.70736 0.0
C1997 C 0.8974 0.48608 0.67883 0.0
C1998 C 0.89172 0.5063 0.67625 0.0
C1999 C 0.90962 0.47495 0.66938 0.0
C2000 C 0.91519 0.45316 0.6712 0.0
C2001 C 0.89986 0.4383 0.67258 0.0
C2002 C 0.9052 0.41785 0.67445 0.0
C2003 C 0.92583 0.41203 0.67487 0.0
C2004 C 0.94116 0.42664 0.67339 0.0
C2005 C 0.9359 0.44712 0.67153 0.0
H2006 H 0.92993 0.39619 0.67632 0.0
H2007 H 0.87947 0.59525 0.65885 0.0
H2008 H 0.68379 0.08352 0.39946 0.0
H2009 H 0.69492 0.09689 0.37812 0.0
H2010 H 0.65512 0.14913 0.38356 0.0
H2011 H 0.64282 0.13514 0.40463 0.0
H2012 H 0.65476 0.13685 0.35678 0.0
H2013 H 0.70683 0.15329 0.39226 0.0
H2014 H 0.7316 0.14732 0.41195 0.0
H2015 H 0.76424 0.10444 0.38597 0.0
H2016 H 0.73949 0.10992 0.36618 0.0
H2017 H 0.71497 0.18966 0.30769 0.0
H2018 H 0.69839 0.18157 0.32902 0.0
H2019 H 0.72208 0.11992 0.32546 0.0
H2020 H 0.73826 0.12766 0.30416 0.0
H2021 H 0.73002 0.14221 0.3523 0.0
H2022 H 0.67476 0.12503 0.31732 0.0
H2023 H 0.64999 0.13291 0.29804 0.0
H2024 H 0.62385 0.18068 0.32394 0.0
H2025 H 0.64869 0.17326 0.34333 0.0
C2026 C 0.67695 0.0976 0.39602 0.0
C2027 C 0.66238 0.10823 0.40386 0.0
C2028 C 0.68362 0.10541 0.38387 0.0
C2029 C 0.67625 0.12427 0.3794 0.0
C2030 C 0.66118 0.13464 0.38689 0.0
C2031 C 0.65431 0.1267 0.39901 0.0
C2032 C 0.68471 0.13318 0.36706 0.0
C2033 C 0.67121 0.13837 0.35592 0.0
C2034 C 0.70618 0.13521 0.36589 0.0
C2035 C 0.7212 0.13192 0.37775 0.0
C2036 C 0.71921 0.14248 0.39077 0.0
C2037 C 0.73326 0.1392 0.40195 0.0
C2038 C 0.74946 0.12548 0.40022 0.0
C2039 C 0.75168 0.11505 0.3873 0.0
C2040 C 0.73765 0.11826 0.37609 0.0
C2041 C 0.71649 0.17436 0.31142 0.0
C2042 C 0.72791 0.1593 0.30425 0.0
C2043 C 0.70701 0.16976 0.32356 0.0
C2044 C 0.70907 0.15016 0.32877 0.0
C2045 C 0.72035 0.13513 0.32159 0.0
C2046 C 0.72952 0.13959 0.30939 0.0
C2047 C 0.70011 0.14524 0.34196 0.0
C2048 C 0.71358 0.1409 0.35328 0.0
C2049 C 0.67867 0.14435 0.34335 0.0
C2050 C 0.66375 0.14878 0.33171 0.0
C2051 C 0.66387 0.13736 0.31886 0.0
C2052 C 0.64979 0.1417 0.30792 0.0
C2053 C 0.6354 0.15733 0.30975 0.0
C2054 C 0.63503 0.16861 0.32253 0.0
C2055 C 0.6491 0.16433 0.3335 0.0
H2056 H 0.6245 0.16067 0.30127 0.0
H2057 H 0.76032 0.12296 0.40888 0.0
H2058 H 0.00518 0.22989 0.67281 0.0
H2059 H 0.99201 0.24124 0.65023 0.0
H2060 H 0.03682 0.20353 0.62971 0.0
H2061 H 0.05054 0.19275 0.65242 0.0
H2062 H 0.03142 0.23829 0.61692 0.0
H2063 H 0.98677 0.18655 0.63281 0.0
H2064 H 0.96487 0.17141 0.64961 0.0
H2065 H 0.92513 0.22378 0.64841 0.0
H2066 H 0.94696 0.23935 0.63172 0.0
H2067 H 0.97921 0.21987 0.55045 0.0
H2068 H 0.99622 0.21749 0.57356 0.0
H2069 H 0.95224 0.25953 0.59094 0.0
H2070 H 0.93501 0.26198 0.56781 0.0
H2071 H 0.95707 0.22516 0.60564 0.0
H2072 H 0.00063 0.2754 0.58793 0.0
H2073 H 0.02272 0.28991 0.57099 0.0
H2074 H 0.06453 0.23959 0.57521 0.0
H2075 H 0.04253 0.2246 0.59203 0.0
C2076 C 0.01236 0.22426 0.66347 0.0
C2077 C 0.02869 0.2103 0.66427 0.0
C2078 C 0.0048 0.23068 0.65059 0.0
C2079 C 0.01309 0.22283 0.63825 0.0
C2080 C 0.03013 0.2097 0.63909 0.0
C2081 C 0.03793 0.20354 0.65203 0.0
C2082 C 0.0032 0.22728 0.62447 0.0
C2083 C 0.01521 0.23525 0.6144 0.0
C2084 C 0.98194 0.2237 0.62128 0.0
C2085 C 0.96859 0.21419 0.63112 0.0
C2086 C 0.97341 0.19488 0.63618 0.0
C2087 C 0.96101 0.18622 0.64568 0.0
C2088 C 0.94365 0.19665 0.6501 0.0
C2089 C 0.9386 0.21573 0.64499 0.0
C2090 C 0.95097 0.22447 0.6355 0.0
C2091 C 0.97319 0.22873 0.55915 0.0
C2092 C 0.9557 0.24108 0.55728 0.0
C2093 C 0.98302 0.22743 0.57235 0.0
C2094 C 0.97559 0.23847 0.58394 0.0
C2095 C 0.95824 0.25094 0.58211 0.0
C2096 C 0.94845 0.25233 0.56889 0.0
C2097 C 0.98531 0.23607 0.59806 0.0
C2098 C 0.97325 0.2284 0.60819 0.0
C2099 C 0.00652 0.23979 0.60124 0.0
C2100 C 0.01982 0.24878 0.59115 0.0
C2101 C 0.01444 0.26733 0.58516 0.0
C2102 C 0.02697 0.27566 0.5756 0.0
C2103 C 0.04499 0.26565 0.57201 0.0
C2104 C 0.05055 0.24731 0.578 0.0
C2105 C 0.03807 0.2389 0.58756 0.0
H2106 H 0.05467 0.27213 0.5646 0.0
H2107 H 0.93408 0.18992 0.65747 0.0
H2108 H 0.90716 0.50249 0.90661 0.0
H2109 H 0.89266 0.49233 0.88323 0.0
H2110 H 0.94959 0.50869 0.86592 0.0
H2111 H 0.96415 0.51926 0.88933 0.0
H2112 H 0.9145 0.52093 0.85011 0.0
H2113 H 0.94112 0.46027 0.87089 0.0
H2114 H 0.94494 0.43545 0.88922 0.0
H2115 H 0.88027 0.42202 0.88459 0.0
H2116 H 0.87602 0.447 0.86636 0.0
H2117 H 0.90198 0.46366 0.78494 0.0
H2118 H 0.91374 0.47927 0.8077 0.0
H2119 H 0.85996 0.45573 0.82564 0.0
H2120 H 0.84832 0.43963 0.80298 0.0
H2121 H 0.89292 0.448 0.84129 0.0
H2122 H 0.86591 0.50754 0.82012 0.0
H2123 H 0.86145 0.53262 0.802 0.0
H2124 H 0.92551 0.54857 0.80738 0.0
H2125 H 0.93042 0.52337 0.82541 0.0
C2126 C 0.91649 0.50429 0.89782 0.0
C2127 C 0.93682 0.51162 0.89981 0.0
C2128 C 0.90822 0.49834 0.88448 0.0
C2129 C 0.92014 0.49957 0.87289 0.0
C2130 C 0.94018 0.50759 0.87475 0.0
C2131 C 0.94851 0.51347 0.88812 0.0
C2132 C 0.912 0.49151 0.85894 0.0
C2133 C 0.90998 0.50494 0.84809 0.0
C2134 C 0.90567 0.47077 0.85647 0.0
C2135 C 0.90822 0.45565 0.86737 0.0
C2136 C 0.92769 0.45214 0.87386 0.0
C2137 C 0.92994 0.43803 0.88422 0.0
C2138 C 0.91285 0.42721 0.8881 0.0
C2139 C 0.89349 0.43044 0.88159 0.0
C2140 C 0.89115 0.44456 0.87124 0.0
C2141 C 0.89254 0.46194 0.7937 0.0
C2142 C 0.87423 0.45034 0.79214 0.0
C2143 C 0.89925 0.47098 0.8067 0.0
C2144 C 0.88764 0.46884 0.81836 0.0
C2145 C 0.86918 0.45757 0.81679 0.0
C2146 C 0.86253 0.4484 0.80382 0.0
C2147 C 0.89527 0.47742 0.83235 0.0
C2148 C 0.8973 0.46404 0.84324 0.0
C2149 C 0.90148 0.49823 0.83485 0.0
C2150 C 0.89857 0.51342 0.82403 0.0
C2151 C 0.87908 0.51627 0.81736 0.0
C2152 C 0.87646 0.53053 0.80712 0.0
C2153 C 0.89319 0.54214 0.80352 0.0
C2154 C 0.91257 0.53955 0.81017 0.0
C2155 C 0.91528 0.5253 0.82041 0.0
H2156 H 0.89113 0.55318 0.79559 0.0
H2157 H 0.91462 0.41628 0.89612 0.0
H2158 H 0.6474 0.4074 0.16262 0.0
H2159 H 0.65554 0.39503 0.13911 0.0
H2160 H 0.63199 0.45115 0.12288 0.0
H2161 H 0.62349 0.4635 0.14636 0.0
H2162 H 0.61969 0.41642 0.10631 0.0
H2163 H 0.68221 0.44588 0.12809 0.0
H2164 H 0.71004 0.45046 0.14652 0.0
H2165 H 0.72659 0.38703 0.14015 0.0
H2166 H 0.69865 0.382 0.12181 0.0
H2167 H 0.66549 0.41005 0.04106 0.0
H2168 H 0.65402 0.42037 0.06411 0.0
H2169 H 0.68326 0.36713 0.08088 0.0
H2170 H 0.69521 0.35695 0.05793 0.0
H2171 H 0.69215 0.39998 0.0973 0.0
H2172 H 0.63033 0.37026 0.0753 0.0
H2173 H 0.6024 0.3652 0.05699 0.0
H2174 H 0.58428 0.42811 0.06378 0.0
H2175 H 0.61229 0.43362 0.08202 0.0
C2176 C 0.6437 0.41699 0.15402 0.0
C2177 C 0.63486 0.43645 0.15633 0.0
C2178 C 0.64849 0.40997 0.14062 0.0
C2179 C 0.64456 0.42228 0.1293 0.0
C2180 C 0.6352 0.44146 0.1315 0.0
C2181 C 0.63049 0.44854 0.14491 0.0
C2182 C 0.65072 0.41536 0.11522 0.0
C2183 C 0.63555 0.41304 0.10427 0.0
C2184 C 0.67135 0.41051 0.11268 0.0
C2185 C 0.6882 0.41352 0.12368 0.0
C2186 C 0.69167 0.43287 0.1307 0.0
C2187 C 0.70749 0.43556 0.14111 0.0
C2188 C 0.72004 0.41904 0.14453 0.0
C2189 C 0.71684 0.39981 0.13751 0.0
C2190 C 0.70102 0.39703 0.1271 0.0
C2191 C 0.66938 0.40045 0.04963 0.0
C2192 C 0.68128 0.38267 0.04764 0.0
C2193 C 0.66272 0.40633 0.0628 0.0
C2194 C 0.66759 0.39441 0.07421 0.0
C2195 C 0.67933 0.37657 0.07223 0.0
C2196 C 0.68611 0.37075 0.05909 0.0
C2197 C 0.66111 0.40093 0.08831 0.0
C2198 C 0.67625 0.40325 0.09929 0.0
C2199 C 0.64043 0.40568 0.09088 0.0
C2200 C 0.62354 0.4024 0.07994 0.0
C2201 C 0.62049 0.38306 0.07282 0.0
C2202 C 0.60462 0.3801 0.06247 0.0
C2203 C 0.5916 0.39634 0.0592 0.0
C2204 C 0.59439 0.41555 0.06631 0.0
C2205 C 0.61025 0.4186 0.07667 0.0
H2206 H 0.57933 0.39402 0.05118 0.0
H2207 H 0.73228 0.42115 0.15259 0.0
loop_
_geom_bond_atom_site_label_1
_geom_bond_atom_site_label_2
_geom_bond_distance
_geom_bond_site_symmetry_2
_ccdc_geom_bond_type
H0 C27 0.929 . S
N1 C26 1.433 . S
N1 C32 1.435 . S
N1 C38 1.423 1_565 S
H2 C28 0.930 . S
H3 C31 0.931 . S
H4 C30 0.929 . S
H5 C33 0.930 . S
H6 C34 0.932 . S
H7 C37 0.929 . S
H8 C36 0.931 . S
H9 C39 0.929 . S
H10 C43 0.932 . S
H11 C40 0.931 . S
H12 C42 0.929 . S
H13 C45 0.929 . S
H14 C46 0.930 1_655 S
H15 C48 0.929 . S
H16 C49 0.931 . S
H17 C51 0.930 . S
H18 C52 0.932 . S
H19 C54 0.931 . S
H20 C55 0.929 . S
H21 C57 0.929 . S
H22 C58 0.931 . S
H23 C60 0.929 . S
N24 C44 1.433 . S
N24 C50 1.435 . S
N24 C56 1.423 . S
H25 C61 0.932 . S
C26 N1 1.433 . S
C26 C27 1.363 . S
C26 C31 1.370 . S
C27 H0 0.929 . S
C27 C26 1.363 . S
C27 C28 1.385 . S
C28 H2 0.930 . S
C28 C27 1.385 . S
C28 C29 1.357 . S
C29 C28 1.357 . S
C29 C30 1.406 . S
C30 H4 0.929 . S
C30 C29 1.406 . S
C30 C31 1.391 . S
C31 H3 0.931 . S
C31 C26 1.370 . S
C31 C30 1.391 . S
C32 N1 1.435 . S
C32 C33 1.358 . S
C32 C37 1.371 . S
C33 H5 0.930 . S
C33 C32 1.358 . S
C33 C34 1.405 . S
C34 H6 0.932 . S
C34 C33 1.405 . S
C34 C35 1.383 . S
C35 C34 1.383 . S
C35 C36 1.393 . S
C36 H8 0.931 . S
C36 C35 1.393 . S
C36 C37 1.382 . S
C37 H7 0.929 . S
C37 C32 1.371 . S
C37 C36 1.382 . S
C38 N1 1.423 1_545 S
C38 C39 1.362 . S
C38 C43 1.388 1_545 S
C39 H9 0.929 . S
C39 C38 1.362 . S
C39 C40 1.376 . S
C40 H11 0.931 . S
C40 C39 1.376 . S
C40 C41 1.396 . S
C41 C40 1.396 . S
C41 C42 1.348 . S
C41 C59 1.472 . S
C42 H12 0.929 . S
C42 C41 1.348 . S
C42 C43 1.443 1_545 S
C43 H10 0.932 . S
C43 C38 1.388 1_565 S
C43 C42 1.443 1_565 S
C44 N24 1.433 . S
C44 C45 1.363 . S
C44 C49 1.370 . S
C45 H13 0.929 . S
C45 C44 1.363 . S
C45 C46 1.385 . S
C46 H14 0.930 1_455 S
C46 C45 1.385 . S
C46 C47 1.357 . S
C47 C46 1.357 . S
C47 C48 1.406 . S
C48 H15 0.929 . S
C48 C47 1.406 . S
C48 C49 1.391 . S
C49 H16 0.931 . S
C49 C44 1.370 . S
C49 C48 1.391 . S
C50 N24 1.435 . S
C50 C51 1.358 1_455 S
C50 C55 1.371 . S
C51 H17 0.930 . S
C51 C50 1.358 1_655 S
C51 C52 1.405 . S
C52 H18 0.932 . S
C52 C51 1.405 . S
C52 C53 1.383 . S
C53 C52 1.383 . S
C53 C54 1.393 1_655 S
C54 H19 0.931 . S
C54 C53 1.393 1_455 S
C54 C55 1.382 . S
C55 H20 0.929 . S
C55 C50 1.371 . S
C55 C54 1.382 . S
C56 N24 1.423 . S
C56 C57 1.362 . S
C56 C61 1.388 . S
C57 H21 0.929 . S
C57 C56 1.362 . S
C57 C58 1.376 . S
C58 H22 0.931 . S
C58 C57 1.376 . S
C58 C59 1.396 . S
C59 C41 1.472 . S
C59 C58 1.396 . S
C59 C60 1.348 . S
C60 H23 0.929 . S
C60 C59 1.348 . S
C60 C61 1.443 . S
C61 H25 0.932 . S
C61 C56 1.388 . S
C61 C60 1.443 . S
H62 C89 0.929 . S
N63 C88 1.433 . S
N63 C94 1.435 . S
N63 C100 1.423 1_655 S
H64 C90 0.930 . S
H65 C93 0.931 . S
H66 C92 0.929 . S
H67 C95 0.930 . S
H68 C96 0.932 . S
H69 C99 0.929 . S
H70 C98 0.931 1_455 S
H71 C101 0.929 . S
H72 C105 0.932 . S
H73 C102 0.931 . S
H74 C104 0.929 . S
H75 C107 0.929 . S
H76 C108 0.930 . S
H77 C110 0.929 . S
H78 C111 0.931 . S
H79 C113 0.930 . S
H80 C114 0.932 . S
H81 C116 0.931 . S
H82 C117 0.929 . S
H83 C119 0.929 . S
H84 C120 0.931 . S
H85 C122 0.929 . S
N86 C106 1.433 . S
N86 C112 1.435 . S
N86 C118 1.423 . S
H87 C123 0.932 . S
C88 N63 1.433 . S
C88 C89 1.363 . S
C88 C93 1.370 . S
C89 H62 0.929 . S
C89 C88 1.363 . S
C89 C90 1.385 . S
C90 H64 0.930 . S
C90 C89 1.385 . S
C90 C91 1.357 . S
C91 C90 1.357 . S
C91 C92 1.406 . S
C92 H66 0.929 . S
C92 C91 1.406 . S
C92 C93 1.391 . S
C93 H65 0.931 . S
C93 C88 1.370 . S
C93 C92 1.391 . S
C94 N63 1.435 . S
C94 C95 1.358 . S
C94 C99 1.371 1_655 S
C95 H67 0.930 . S
C95 C94 1.358 . S
C95 C96 1.405 . S
C96 H68 0.932 . S
C96 C95 1.405 . S
C96 C97 1.383 . S
C97 C96 1.383 . S
C97 C98 1.393 . S
C98 H70 0.931 1_655 S
C98 C97 1.393 . S
C98 C99 1.382 1_655 S
C99 H69 0.929 . S
C99 C94 1.371 1_455 S
C99 C98 1.382 1_455 S
C100 N63 1.423 1_455 S
C100 C101 1.362 . S
C100 C105 1.388 . S
C101 H71 0.929 . S
C101 C100 1.362 . S
C101 C102 1.376 . S
C102 H73 0.931 . S
C102 C101 1.376 . S
C102 C103 1.396 . S
C103 C102 1.396 . S
C103 C104 1.348 . S
C103 C121 1.472 . S
C104 H74 0.929 . S
C104 C103 1.348 . S
C104 C105 1.443 . S
C105 H72 0.932 . S
C105 C100 1.388 . S
C105 C104 1.443 . S
C106 N86 1.433 . S
C106 C107 1.363 . S
C106 C111 1.370 . S
C107 H75 0.929 . S
C107 C106 1.363 . S
C107 C108 1.385 . S
C108 H76 0.930 . S
C108 C107 1.385 . S
C108 C109 1.357 . S
C109 C108 1.357 . S
C109 C110 1.406 . S
C110 H77 0.929 . S
C110 C109 1.406 . S
C110 C111 1.391 . S
C111 H78 0.931 . S
C111 C106 1.370 . S
C111 C110 1.391 . S
C112 N86 1.435 . S
C112 C113 1.358 . S
C112 C117 1.371 . S
C113 H79 0.930 . S
C113 C112 1.358 . S
C113 C114 1.405 . S
C114 H80 0.932 . S
C114 C113 1.405 . S
C114 C115 1.383 . S
C115 C114 1.383 . S
C115 C116 1.393 . S
C116 H81 0.931 . S
C116 C115 1.393 . S
C116 C117 1.382 . S
C117 H82 0.929 . S
C117 C112 1.371 . S
C117 C116 1.382 . S
C118 N86 1.423 . S
C118 C119 1.362 . S
C118 C123 1.388 . S
C119 H83 0.929 . S
C119 C118 1.362 . S
C119 C120 1.376 . S
C120 H84 0.931 . S
C120 C119 1.376 . S
C120 C121 1.396 . S
C121 C103 1.472 . S
C121 C120 1.396 . S
C121 C122 1.348 . S
C122 H85 0.929 . S
C122 C121 1.348 . S
C122 C123 1.443 . S
C123 H87 0.932 . S
C123 C118 1.388 . S
C123 C122 1.443 . S
H124 C151 0.929 . S
N125 C150 1.433 . S
N125 C156 1.435 . S
N125 C162 1.423 . S
H126 C152 0.930 . S
H127 C155 0.931 . S
H128 C154 0.929 . S
H129 C157 0.930 . S
H130 C158 0.932 . S
H131 C161 0.929 . S
H132 C160 0.931 . S
H133 C163 0.929 . S
H134 C167 0.932 . S
H135 C164 0.931 . S
H136 C166 0.929 . S
H137 C169 0.929 . S
H138 C170 0.930 . S
H139 C172 0.929 . S
H140 C173 0.931 . S
H141 C175 0.930 . S
H142 C176 0.932 . S
H143 C178 0.931 . S
H144 C179 0.929 . S
H145 C181 0.929 . S
H146 C182 0.931 . S
H147 C184 0.929 . S
N148 C168 1.433 . S
N148 C174 1.435 . S
N148 C180 1.423 . S
H149 C185 0.932 . S
C150 N125 1.433 . S
C150 C151 1.363 . S
C150 C155 1.370 . S
C151 H124 0.929 . S
C151 C150 1.363 . S
C151 C152 1.385 . S
C152 H126 0.930 . S
C152 C151 1.385 . S
C152 C153 1.357 . S
C153 C152 1.357 . S
C153 C154 1.406 . S
C154 H128 0.929 . S
C154 C153 1.406 . S
C154 C155 1.391 . S
C155 H127 0.931 . S
C155 C150 1.370 . S
C155 C154 1.391 . S
C156 N125 1.435 . S
C156 C157 1.358 . S
C156 C161 1.371 . S
C157 H129 0.930 . S
C157 C156 1.358 . S
C157 C158 1.405 . S
C158 H130 0.932 . S
C158 C157 1.405 . S
C158 C159 1.383 . S
C159 C158 1.383 . S
C159 C160 1.393 . S
C160 H132 0.931 . S
C160 C159 1.393 . S
C160 C161 1.382 . S
C161 H131 0.929 . S
C161 C156 1.371 . S
C161 C160 1.382 . S
C162 N125 1.423 . S
C162 C163 1.362 . S
C162 C167 1.388 . S
C163 H133 0.929 . S
C163 C162 1.362 . S
C163 C164 1.376 . S
C164 H135 0.931 . S
C164 C163 1.376 . S
C164 C165 1.396 . S
C165 C164 1.396 . S
C165 C166 1.348 . S
C165 C183 1.472 . S
C166 H136 0.929 . S
C166 C165 1.348 . S
C166 C167 1.443 . S
C167 H134 0.932 . S
C167 C162 1.388 . S
C167 C166 1.443 . S
C168 N148 1.433 . S
C168 C169 1.363 . S
C168 C173 1.370 . S
C169 H137 0.929 . S
C169 C168 1.363 . S
C169 C170 1.385 . S
C170 H138 0.930 . S
C170 C169 1.385 . S
C170 C171 1.357 . S
C171 C170 1.357 . S
C171 C172 1.406 . S
C172 H139 0.929 . S
C172 C171 1.406 . S
C172 C173 1.391 . S
C173 H140 0.931 . S
C173 C168 1.370 . S
C173 C172 1.391 . S
C174 N148 1.435 . S
C174 C175 1.358 . S
C174 C179 1.371 . S
C175 H141 0.930 . S
C175 C174 1.358 . S
C175 C176 1.405 . S
C176 H142 0.932 . S
C176 C175 1.405 . S
C176 C177 1.383 . S
C177 C176 1.383 . S
C177 C178 1.393 . S
C178 H143 0.931 . S
C178 C177 1.393 . S
C178 C179 1.382 . S
C179 H144 0.929 . S
C179 C174 1.371 . S
C179 C178 1.382 . S
C180 N148 1.423 . S
C180 C181 1.362 . S
C180 C185 1.388 . S
C181 H145 0.929 . S
C181 C180 1.362 . S
C181 C182 1.376 . S
C182 H146 0.931 . S
C182 C181 1.376 . S
C182 C183 1.396 . S
C183 C165 1.472 . S
C183 C182 1.396 . S
C183 C184 1.348 . S
C184 H147 0.929 . S
C184 C183 1.348 . S
C184 C185 1.443 . S
C185 H149 0.932 . S
C185 C180 1.388 . S
C185 C184 1.443 . S
H186 C213 0.929 . S
N187 C212 1.433 . S
N187 C218 1.435 . S
N187 C224 1.423 . S
H188 C214 0.930 . S
H189 C217 0.931 . S
H190 C216 0.929 . S
H191 C219 0.930 . S
H192 C220 0.932 . S
H193 C223 0.929 . S
H194 C222 0.931 . S
H195 C225 0.929 . S
H196 C229 0.932 . S
H197 C226 0.931 . S
H198 C228 0.929 . S
H199 C231 0.929 . S
H200 C232 0.930 . S
H201 C234 0.929 . S
H202 C235 0.931 . S
H203 C237 0.930 . S
H204 C238 0.932 . S
H205 C240 0.931 . S
H206 C241 0.929 . S
H207 C243 0.929 . S
H208 C244 0.931 1_565 S
H209 C246 0.929 . S
N210 C230 1.433 . S
N210 C236 1.435 . S
N210 C242 1.423 . S
H211 C247 0.932 . S
C212 N187 1.433 . S
C212 C213 1.363 . S
C212 C217 1.370 . S
C213 H186 0.929 . S
C213 C212 1.363 . S
C213 C214 1.385 . S
C214 H188 0.930 . S
C214 C213 1.385 . S
C214 C215 1.357 . S
C215 C214 1.357 . S
C215 C216 1.406 . S
C216 H190 0.929 . S
C216 C215 1.406 . S
C216 C217 1.391 . S
C217 H189 0.931 . S
C217 C212 1.370 . S
C217 C216 1.391 . S
C218 N187 1.435 . S
C218 C219 1.358 . S
C218 C223 1.371 . S
C219 H191 0.930 . S
C219 C218 1.358 . S
C219 C220 1.405 . S
C220 H192 0.932 . S
C220 C219 1.405 . S
C220 C221 1.383 . S
C221 C220 1.383 . S
C221 C222 1.393 . S
C222 H194 0.931 . S
C222 C221 1.393 . S
C222 C223 1.382 . S
C223 H193 0.929 . S
C223 C218 1.371 . S
C223 C222 1.382 . S
C224 N187 1.423 . S
C224 C225 1.362 . S
C224 C229 1.388 . S
C225 H195 0.929 . S
C225 C224 1.362 . S
C225 C226 1.376 . S
C226 H197 0.931 . S
C226 C225 1.376 . S
C226 C227 1.396 . S
C227 C226 1.396 . S
C227 C228 1.348 . S
C227 C245 1.477 . S
C228 H198 0.929 . S
C228 C227 1.348 . S
C228 C229 1.443 . S
C229 H196 0.932 . S
C229 C224 1.388 . S
C229 C228 1.443 . S
C230 N210 1.433 . S
C230 C231 1.363 . S
C230 C235 1.370 . S
C231 H199 0.929 . S
C231 C230 1.363 . S
C231 C232 1.385 . S
C232 H200 0.930 . S
C232 C231 1.385 . S
C232 C233 1.357 . S
C233 C232 1.357 . S
C233 C234 1.406 . S
C234 H201 0.929 . S
C234 C233 1.406 . S
C234 C235 1.391 . S
C235 H202 0.931 . S
C235 C230 1.370 . S
C235 C234 1.391 . S
C236 N210 1.435 . S
C236 C237 1.358 . S
C236 C241 1.371 . S
C237 H203 0.930 . S
C237 C236 1.358 . S
C237 C238 1.405 . S
C238 H204 0.932 . S
C238 C237 1.405 . S
C238 C239 1.383 . S
C239 C238 1.383 . S
C239 C240 1.393 . S
C240 H205 0.931 . S
C240 C239 1.393 . S
C240 C241 1.382 . S
C241 H206 0.929 . S
C241 C236 1.371 . S
C241 C240 1.382 . S
C242 N210 1.423 . S
C242 C243 1.362 . S
C242 C247 1.388 . S
C243 H207 0.929 . S
C243 C242 1.362 . S
C243 C244 1.376 . S
C244 H208 0.931 1_545 S
C244 C243 1.376 . S
C244 C245 1.395 1_545 S
C245 C227 1.477 . S
C245 C244 1.395 1_565 S
C245 C246 1.343 1_565 S
C246 H209 0.929 . S
C246 C245 1.343 1_545 S
C246 C247 1.443 . S
C247 H211 0.932 . S
C247 C242 1.388 . S
C247 C246 1.443 . S
H248 C275 0.929 . S
N249 C274 1.433 . S
N249 C280 1.435 . S
N249 C286 1.423 . S
H250 C276 0.930 . S
H251 C279 0.931 . S
H252 C278 0.929 . S
H253 C281 0.930 . S
H254 C282 0.932 . S
H255 C285 0.929 . S
H256 C284 0.931 . S
H257 C287 0.929 . S
H258 C291 0.932 . S
H259 C288 0.931 . S
H260 C290 0.929 . S
H261 C293 0.929 . S
H262 C294 0.930 . S
H263 C296 0.929 . S
H264 C297 0.931 . S
H265 C299 0.930 . S
H266 C300 0.932 . S
H267 C302 0.931 . S
H268 C303 0.929 . S
H269 C305 0.929 . S
H270 C306 0.898 1_455 S
H271 C308 0.929 . S
N272 C292 1.433 . S
N272 C298 1.435 . S
N272 C304 1.423 . S
H273 C309 0.932 . S
C274 N249 1.433 . S
C274 C275 1.363 . S
C274 C279 1.370 . S
C275 H248 0.929 . S
C275 C274 1.363 . S
C275 C276 1.385 . S
C276 H250 0.930 . S
C276 C275 1.385 . S
C276 C277 1.357 . S
C277 C276 1.357 . S
C277 C278 1.406 . S
C278 H252 0.929 . S
C278 C277 1.406 . S
C278 C279 1.391 . S
C279 H251 0.931 . S
C279 C274 1.370 . S
C279 C278 1.391 . S
C280 N249 1.435 . S
C280 C281 1.358 . S
C280 C285 1.371 . S
C281 H253 0.930 . S
C281 C280 1.358 . S
C281 C282 1.405 . S
C282 H254 0.932 . S
C282 C281 1.405 . S
C282 C283 1.383 1_556 S
C283 C282 1.383 1_554 S
C283 C284 1.393 . S
C284 H256 0.931 . S
C284 C283 1.393 . S
C284 C285 1.382 1_554 S
C285 H255 0.929 . S
C285 C280 1.371 . S
C285 C284 1.382 1_556 S
C286 N249 1.423 . S
C286 C287 1.362 . S
C286 C291 1.388 . S
C287 H257 0.929 . S
C287 C286 1.362 . S
C287 C288 1.376 . S
C288 H259 0.931 . S
C288 C287 1.376 . S
C288 C289 1.396 . S
C289 C288 1.396 . S
C289 C290 1.348 . S
C289 C307 1.472 . S
C290 H260 0.929 . S
C290 C289 1.348 . S
C290 C291 1.443 . S
C291 H258 0.932 . S
C291 C286 1.388 . S
C291 C290 1.443 . S
C292 N272 1.433 . S
C292 C293 1.363 . S
C292 C297 1.370 . S
C293 H261 0.929 . S
C293 C292 1.363 . S
C293 C294 1.385 . S
C294 H262 0.930 . S
C294 C293 1.385 . S
C294 C295 1.357 . S
C295 C294 1.357 . S
C295 C296 1.406 . S
C296 H263 0.929 . S
C296 C295 1.406 . S
C296 C297 1.391 . S
C297 H264 0.931 . S
C297 C292 1.370 . S
C297 C296 1.391 . S
C298 N272 1.435 . S
C298 C299 1.358 . S
C298 C303 1.371 . S
C299 H265 0.930 . S
C299 C298 1.358 . S
C299 C300 1.405 . S
C300 H266 0.932 . S
C300 C299 1.405 . S
C300 C301 1.383 . S
C301 C300 1.383 . S
C301 C302 1.393 . S
C302 H267 0.931 . S
C302 C301 1.393 . S
C302 C303 1.382 . S
C303 H268 0.929 . S
C303 C298 1.371 . S
C303 C302 1.382 . S
C304 N272 1.423 . S
C304 C305 1.362 . S
C304 C309 1.388 . S
C305 H269 0.929 . S
C305 C304 1.362 . S
C305 C306 1.413 . S
C306 H270 0.898 1_655 S
C306 C305 1.413 . S
C306 C307 1.392 1_655 S
C307 C289 1.472 . S
C307 C306 1.392 1_455 S
C307 C308 1.348 1_455 S
C308 H271 0.929 . S
C308 C307 1.348 1_655 S
C308 C309 1.443 . S
C309 H273 0.932 . S
C309 C304 1.388 . S
C309 C308 1.443 . S
H310 C337 0.929 . S
N311 C336 1.433 . S
N311 C342 1.435 . S
N311 C348 1.423 . S
H312 C338 0.930 . S
H313 C341 0.931 . S
H314 C340 0.929 . S
H315 C343 0.930 . S
H316 C344 0.932 . S
H317 C347 0.929 . S
H318 C346 0.931 . S
H319 C349 0.929 . S
H320 C353 0.932 . S
H321 C350 0.931 . S
H322 C352 0.929 . S
H323 C355 0.929 . S
H324 C356 0.930 . S
H325 C358 0.929 . S
H326 C359 0.931 . S
H327 C361 0.930 . S
H328 C362 0.932 . S
H329 C364 0.931 . S
H330 C365 0.929 . S
H331 C367 0.929 . S
H332 C368 0.931 . S
H333 C370 0.929 . S
N334 C354 1.433 . S
N334 C360 1.435 . S
N334 C366 1.423 . S
H335 C371 0.932 . S
C336 N311 1.433 . S
C336 C337 1.363 . S
C336 C341 1.370 . S
C337 H310 0.929 . S
C337 C336 1.363 . S
C337 C338 1.385 . S
C338 H312 0.930 . S
C338 C337 1.385 . S
C338 C339 1.357 . S
C339 C338 1.357 . S
C339 C340 1.406 . S
C340 H314 0.929 . S
C340 C339 1.406 . S
C340 C341 1.391 . S
C341 H313 0.931 . S
C341 C336 1.370 . S
C341 C340 1.391 . S
C342 N311 1.435 . S
C342 C343 1.358 . S
C342 C347 1.371 . S
C343 H315 0.930 . S
C343 C342 1.358 . S
C343 C344 1.405 . S
C344 H316 0.932 . S
C344 C343 1.405 . S
C344 C345 1.383 . S
C345 C344 1.383 . S
C345 C346 1.393 . S
C346 H318 0.931 . S
C346 C345 1.393 . S
C346 C347 1.382 . S
C347 H317 0.929 . S
C347 C342 1.371 . S
C347 C346 1.382 . S
C348 N311 1.423 . S
C348 C349 1.362 . S
C348 C353 1.388 . S
C349 H319 0.929 . S
C349 C348 1.362 . S
C349 C350 1.376 . S
C350 H321 0.931 . S
C350 C349 1.376 . S
C350 C351 1.396 . S
C351 C350 1.396 . S
C351 C352 1.348 . S
C351 C369 1.472 . S
C352 H322 0.929 . S
C352 C351 1.348 . S
C352 C353 1.443 . S
C353 H320 0.932 . S
C353 C348 1.388 . S
C353 C352 1.443 . S
C354 N334 1.433 . S
C354 C355 1.363 . S
C354 C359 1.370 . S
C355 H323 0.929 . S
C355 C354 1.363 . S
C355 C356 1.385 . S
C356 H324 0.930 . S
C356 C355 1.385 . S
C356 C357 1.357 . S
C357 C356 1.357 . S
C357 C358 1.406 . S
C358 H325 0.929 . S
C358 C357 1.406 . S
C358 C359 1.391 . S
C359 H326 0.931 . S
C359 C354 1.370 . S
C359 C358 1.391 . S
C360 N334 1.435 . S
C360 C361 1.358 . S
C360 C365 1.371 . S
C361 H327 0.930 . S
C361 C360 1.358 . S
C361 C362 1.405 . S
C362 H328 0.932 . S
C362 C361 1.405 . S
C362 C363 1.383 . S
C363 C362 1.383 . S
C363 C364 1.393 . S
C364 H329 0.931 . S
C364 C363 1.393 . S
C364 C365 1.382 . S
C365 H330 0.929 . S
C365 C360 1.371 . S
C365 C364 1.382 . S
C366 N334 1.423 . S
C366 C367 1.362 . S
C366 C371 1.388 . S
C367 H331 0.929 . S
C367 C366 1.362 . S
C367 C368 1.376 . S
C368 H332 0.931 . S
C368 C367 1.376 . S
C368 C369 1.396 . S
C369 C351 1.472 . S
C369 C368 1.396 . S
C369 C370 1.348 . S
C370 H333 0.929 . S
C370 C369 1.348 . S
C370 C371 1.443 . S
C371 H335 0.932 . S
C371 C366 1.388 . S
C371 C370 1.443 . S
H372 C399 0.929 . S
N373 C398 1.433 . S
N373 C404 1.435 . S
N373 C410 1.413 1_565 S
H374 C400 0.930 . S
H375 C403 0.931 . S
H376 C402 0.929 . S
H377 C405 0.930 . S
H378 C406 0.932 . S
H379 C409 0.929 1_545 S
H380 C408 0.931 . S
H381 C411 0.929 . S
H382 C415 0.919 1_565 S
H383 C412 0.931 . S
H384 C414 0.929 . S
H385 C417 0.929 . S
H386 C418 0.930 . S
H387 C420 0.929 . S
H388 C421 0.931 . S
H389 C423 0.930 . S
H390 C424 0.932 . S
H391 C426 0.931 . S
H392 C427 0.929 . S
H393 C429 0.929 . S
H394 C430 0.931 . S
H395 C432 0.929 . S
N396 C416 1.433 . S
N396 C422 1.435 . S
N396 C428 1.423 . S
H397 C433 0.932 . S
C398 N373 1.433 . S
C398 C399 1.363 . S
C398 C403 1.370 . S
C399 H372 0.929 . S
C399 C398 1.363 . S
C399 C400 1.385 . S
C400 H374 0.930 . S
C400 C399 1.385 . S
C400 C401 1.357 . S
C401 C400 1.357 . S
C401 C402 1.406 . S
C402 H376 0.929 . S
C402 C401 1.406 . S
C402 C403 1.391 . S
C403 H375 0.931 . S
C403 C398 1.370 . S
C403 C402 1.391 . S
C404 N373 1.435 . S
C404 C405 1.358 . S
C404 C409 1.371 . S
C405 H377 0.930 . S
C405 C404 1.358 . S
C405 C406 1.405 . S
C406 H378 0.932 . S
C406 C405 1.405 . S
C406 C407 1.383 . S
C407 C406 1.383 . S
C407 C408 1.393 . S
C408 H380 0.931 . S
C408 C407 1.393 . S
C408 C409 1.382 . S
C409 H379 0.929 1_565 S
C409 C404 1.371 . S
C409 C408 1.382 . S
C410 N373 1.413 1_545 S
C410 C411 1.372 . S
C410 C415 1.389 . S
C411 H381 0.929 . S
C411 C410 1.372 . S
C411 C412 1.376 . S
C412 H383 0.931 . S
C412 C411 1.376 . S
C412 C413 1.396 . S
C413 C412 1.396 . S
C413 C414 1.348 . S
C413 C431 1.472 . S
C414 H384 0.929 . S
C414 C413 1.348 . S
C414 C415 1.456 . S
C415 H382 0.919 1_545 S
C415 C410 1.389 . S
C415 C414 1.456 . S
C416 N396 1.433 . S
C416 C417 1.363 . S
C416 C421 1.370 . S
C417 H385 0.929 . S
C417 C416 1.363 . S
C417 C418 1.385 . S
C418 H386 0.930 . S
C418 C417 1.385 . S
C418 C419 1.357 . S
C419 C418 1.357 . S
C419 C420 1.406 . S
C420 H387 0.929 . S
C420 C419 1.406 . S
C420 C421 1.391 . S
C421 H388 0.931 . S
C421 C416 1.370 . S
C421 C420 1.391 . S
C422 N396 1.435 . S
C422 C423 1.358 . S
C422 C427 1.371 . S
C423 H389 0.930 . S
C423 C422 1.358 . S
C423 C424 1.405 . S
C424 H390 0.932 . S
C424 C423 1.405 . S
C424 C425 1.383 . S
C425 C424 1.383 . S
C425 C426 1.393 . S
C426 H391 0.931 . S
C426 C425 1.393 . S
C426 C427 1.382 . S
C427 H392 0.929 . S
C427 C422 1.371 . S
C427 C426 1.382 . S
C428 N396 1.423 . S
C428 C429 1.362 . S
C428 C433 1.388 . S
C429 H393 0.929 . S
C429 C428 1.362 . S
C429 C430 1.376 . S
C430 H394 0.931 . S
C430 C429 1.376 . S
C430 C431 1.396 . S
C431 C413 1.472 . S
C431 C430 1.396 . S
C431 C432 1.348 . S
C432 H395 0.929 . S
C432 C431 1.348 . S
C432 C433 1.443 . S
C433 H397 0.932 . S
C433 C428 1.388 . S
C433 C432 1.443 . S
H434 C461 0.929 . S
N435 C460 1.433 . S
N435 C466 1.435 . S
N435 C472 1.423 . S
H436 C462 0.930 . S
H437 C465 0.931 . S
H438 C464 0.929 . S
H439 C467 0.930 . S
H440 C468 0.932 . S
H441 C471 0.929 . S
H442 C470 0.931 . S
H443 C473 0.929 . S
H444 C477 0.932 . S
H445 C474 0.931 . S
H446 C476 0.929 . S
H447 C479 0.929 1_655 S
H448 C480 0.930 1_655 S
H449 C482 0.929 . S
H450 C483 0.931 . S
H451 C485 0.930 . S
H452 C486 0.932 . S
H453 C488 0.931 . S
H454 C489 0.934 . S
H455 C491 0.929 . S
H456 C492 0.931 . S
H457 C494 0.929 . S
N458 C478 1.433 . S
N458 C484 1.435 . S
N458 C490 1.423 . S
H459 C495 0.932 . S
C460 N435 1.433 . S
C460 C461 1.363 . S
C460 C465 1.370 . S
C461 H434 0.929 . S
C461 C460 1.363 . S
C461 C462 1.385 . S
C462 H436 0.930 . S
C462 C461 1.385 . S
C462 C463 1.357 . S
C463 C462 1.357 . S
C463 C464 1.406 . S
C464 H438 0.929 . S
C464 C463 1.406 . S
C464 C465 1.391 . S
C465 H437 0.931 . S
C465 C460 1.370 . S
C465 C464 1.391 . S
C466 N435 1.435 . S
C466 C467 1.358 . S
C466 C471 1.371 . S
C467 H439 0.930 . S
C467 C466 1.358 . S
C467 C468 1.405 . S
C468 H440 0.932 . S
C468 C467 1.405 . S
C468 C469 1.383 . S
C469 C468 1.383 . S
C469 C470 1.393 . S
C470 H442 0.931 . S
C470 C469 1.393 . S
C470 C471 1.382 . S
C471 H441 0.929 . S
C471 C466 1.371 . S
C471 C470 1.382 . S
C472 N435 1.423 . S
C472 C473 1.362 . S
C472 C477 1.388 . S
C473 H443 0.929 . S
C473 C472 1.362 . S
C473 C474 1.376 . S
C474 H445 0.931 . S
C474 C473 1.376 . S
C474 C475 1.396 . S
C475 C474 1.396 . S
C475 C476 1.348 . S
C475 C493 1.472 . S
C476 H446 0.929 . S
C476 C475 1.348 . S
C476 C477 1.443 . S
C477 H444 0.932 . S
C477 C472 1.388 . S
C477 C476 1.443 . S
C478 N458 1.433 . S
C478 C479 1.363 . S
C478 C483 1.370 . S
C479 H447 0.929 1_455 S
C479 C478 1.363 . S
C479 C480 1.385 . S
C480 H448 0.930 1_455 S
C480 C479 1.385 . S
C480 C481 1.357 . S
C481 C480 1.357 . S
C481 C482 1.406 . S
C482 H449 0.929 . S
C482 C481 1.406 . S
C482 C483 1.391 . S
C483 H450 0.931 . S
C483 C478 1.370 . S
C483 C482 1.391 . S
C484 N458 1.435 . S
C484 C485 1.358 . S
C484 C489 1.347 1_455 S
C485 H451 0.930 . S
C485 C484 1.358 . S
C485 C486 1.405 . S
C486 H452 0.932 . S
C486 C485 1.405 . S
C486 C487 1.383 1_455 S
C487 C486 1.383 1_655 S
C487 C488 1.393 . S
C488 H453 0.931 . S
C488 C487 1.393 . S
C488 C489 1.404 . S
C489 H454 0.934 . S
C489 C484 1.347 1_655 S
C489 C488 1.404 . S
C490 N458 1.423 . S
C490 C491 1.362 . S
C490 C495 1.388 . S
C491 H455 0.929 . S
C491 C490 1.362 . S
C491 C492 1.376 . S
C492 H456 0.931 . S
C492 C491 1.376 . S
C492 C493 1.396 . S
C493 C475 1.472 . S
C493 C492 1.396 . S
C493 C494 1.348 . S
C494 H457 0.929 . S
C494 C493 1.348 . S
C494 C495 1.443 . S
C495 H459 0.932 . S
C495 C490 1.388 . S
C495 C494 1.443 . S
O496 Cd497 2.223 . S
O496 C504 1.315 . S
Cd497 O496 2.223 . S
Cd497 O500 2.297 . S
Cd497 O501 2.439 . S
Cd497 O507 2.240 . S
Cd498 O499 2.240 . S
Cd498 O506 2.223 . S
Cd498 O508 2.297 . S
Cd498 O509 2.439 . S
O499 Cd498 2.240 . S
O499 C504 1.279 . S
O500 Cd497 2.297 . S
O500 C502 1.247 . S
O501 Cd497 2.439 . S
O501 C502 1.208 . S
C502 O500 1.247 . S
C502 O501 1.208 . S
C503 O508 1.247 . S
C503 O509 1.208 . S
C504 O496 1.315 . S
C504 O499 1.279 . S
C505 O506 1.315 . S
C505 O507 1.279 . S
O506 Cd498 2.223 . S
O506 C505 1.315 . S
O507 Cd497 2.240 . S
O507 C505 1.279 . S
O508 Cd498 2.297 . S
O508 C503 1.247 . S
O509 Cd498 2.439 . S
O509 C503 1.208 . S
O510 Cd511 2.223 . S
O510 C518 1.315 . S
Cd511 O510 2.223 . S
Cd511 O514 2.297 . S
Cd511 O515 2.439 . S
Cd511 O521 2.240 . S
Cd512 O513 2.240 . S
Cd512 O520 2.223 . S
Cd512 O522 2.297 . S
Cd512 O523 2.439 . S
O513 Cd512 2.240 . S
O513 C518 1.279 . S
O514 Cd511 2.297 . S
O514 C516 1.247 . S
O515 Cd511 2.439 . S
O515 C516 1.208 . S
C516 O514 1.247 . S
C516 O515 1.208 . S
C517 O522 1.247 . S
C517 O523 1.208 . S
C518 O510 1.315 . S
C518 O513 1.279 . S
C519 O520 1.315 . S
C519 O521 1.279 . S
O520 Cd512 2.223 . S
O520 C519 1.315 . S
O521 Cd511 2.240 . S
O521 C519 1.279 . S
O522 Cd512 2.297 . S
O522 C517 1.247 . S
O523 Cd512 2.439 . S
O523 C517 1.208 . S
O524 Cd525 2.223 . S
O524 C532 1.315 . S
Cd525 O524 2.223 . S
Cd525 O528 2.297 . S
Cd525 O529 2.439 . S
Cd525 O535 2.240 . S
Cd526 O527 2.240 . S
Cd526 O534 2.223 . S
Cd526 O536 2.297 . S
Cd526 O537 2.439 . S
O527 Cd526 2.240 . S
O527 C532 1.279 . S
O528 Cd525 2.297 . S
O528 C530 1.247 . S
O529 Cd525 2.439 . S
O529 C530 1.208 . S
C530 O528 1.247 . S
C530 O529 1.208 . S
C531 O536 1.247 . S
C531 O537 1.208 . S
C532 O524 1.315 . S
C532 O527 1.279 . S
C533 O534 1.315 . S
C533 O535 1.279 . S
O534 Cd526 2.223 . S
O534 C533 1.315 . S
O535 Cd525 2.240 . S
O535 C533 1.279 . S
O536 Cd526 2.297 . S
O536 C531 1.247 . S
O537 Cd526 2.439 . S
O537 C531 1.208 . S
O538 Cd539 2.223 . S
O538 C546 1.315 . S
Cd539 O538 2.223 . S
Cd539 O542 2.297 . S
Cd539 O543 2.439 . S
Cd539 O549 2.240 . S
Cd540 O541 2.240 . S
Cd540 O548 2.223 . S
Cd540 O550 2.297 . S
Cd540 O551 2.439 . S
O541 Cd540 2.240 . S
O541 C546 1.279 . S
O542 Cd539 2.297 . S
O542 C544 1.247 . S
O543 Cd539 2.439 . S
O543 C544 1.208 . S
C544 O542 1.247 . S
C544 O543 1.208 . S
C545 O550 1.247 . S
C545 O551 1.208 . S
C546 O538 1.315 . S
C546 O541 1.279 . S
C547 O548 1.315 . S
C547 O549 1.279 . S
O548 Cd540 2.223 . S
O548 C547 1.315 . S
O549 Cd539 2.240 . S
O549 C547 1.279 . S
O550 Cd540 2.297 . S
O550 C545 1.247 . S
O551 Cd540 2.439 . S
O551 C545 1.208 . S
O552 Cd553 2.223 . S
O552 C560 1.315 . S
Cd553 O552 2.223 . S
Cd553 O556 2.297 . S
Cd553 O557 2.439 . S
Cd553 O563 2.240 . S
Cd554 O555 2.240 . S
Cd554 O562 2.223 . S
Cd554 O564 2.297 . S
Cd554 O565 2.439 . S
O555 Cd554 2.240 . S
O555 C560 1.279 . S
O556 Cd553 2.297 . S
O556 C558 1.247 . S
O557 Cd553 2.439 . S
O557 C558 1.208 . S
C558 O556 1.247 . S
C558 O557 1.208 . S
C559 O564 1.247 . S
C559 O565 1.208 . S
C560 O552 1.315 . S
C560 O555 1.279 . S
C561 O562 1.315 . S
C561 O563 1.279 . S
O562 Cd554 2.223 . S
O562 C561 1.315 . S
O563 Cd553 2.240 . S
O563 C561 1.279 . S
O564 Cd554 2.297 . S
O564 C559 1.247 . S
O565 Cd554 2.439 . S
O565 C559 1.208 . S
O566 Cd567 2.223 . S
O566 C574 1.315 . S
Cd567 O566 2.223 . S
Cd567 O570 2.297 . S
Cd567 O571 2.439 . S
Cd567 O577 2.240 . S
Cd568 O569 2.240 . S
Cd568 O576 2.223 . S
Cd568 O578 2.297 . S
Cd568 O579 2.439 . S
O569 Cd568 2.240 . S
O569 C574 1.279 . S
O570 Cd567 2.297 . S
O570 C572 1.247 . S
O571 Cd567 2.439 . S
O571 C572 1.208 . S
C572 O570 1.247 . S
C572 O571 1.208 . S
C573 O578 1.247 . S
C573 O579 1.208 . S
C574 O566 1.315 . S
C574 O569 1.279 . S
C575 O576 1.315 . S
C575 O577 1.279 . S
O576 Cd568 2.223 . S
O576 C575 1.315 . S
O577 Cd567 2.240 . S
O577 C575 1.279 . S
O578 Cd568 2.297 . S
O578 C573 1.247 . S
O579 Cd568 2.439 . S
O579 C573 1.208 . S
O580 Cd581 2.223 . S
O580 C588 1.315 . S
Cd581 O580 2.223 . S
Cd581 O584 2.297 . S
Cd581 O585 2.450 . S
Cd581 O591 2.240 1_554 S
Cd582 O583 2.240 1_556 S
Cd582 O590 2.225 . S
Cd582 O592 2.297 . S
Cd582 O593 2.439 . S
O583 Cd582 2.240 1_554 S
O583 C588 1.279 . S
O584 Cd581 2.297 . S
O584 C586 1.247 . S
O585 Cd581 2.450 . S
O585 C586 1.249 . S
C586 O584 1.247 . S
C586 O585 1.249 . S
C587 O592 1.247 . S
C587 O593 1.208 . S
C588 O580 1.315 . S
C588 O583 1.279 . S
C589 O590 1.320 . S
C589 O591 1.279 . S
O590 Cd582 2.225 . S
O590 C589 1.320 . S
O591 Cd581 2.240 1_556 S
O591 C589 1.279 . S
O592 Cd582 2.297 . S
O592 C587 1.247 . S
O593 Cd582 2.439 . S
O593 C587 1.208 . S
O594 Cd595 2.223 . S
O594 C602 1.315 . S
Cd595 O594 2.223 . S
Cd595 O598 2.297 . S
Cd595 O599 2.439 . S
Cd595 O605 2.240 . S
Cd596 O597 2.240 . S
Cd596 O604 2.223 . S
Cd596 O606 2.297 . S
Cd596 O607 2.439 . S
O597 Cd596 2.240 . S
O597 C602 1.279 . S
O598 Cd595 2.297 . S
O598 C600 1.247 . S
O599 Cd595 2.439 . S
O599 C600 1.208 . S
C600 O598 1.247 . S
C600 O599 1.208 . S
C601 O606 1.247 . S
C601 O607 1.208 . S
C602 O594 1.315 . S
C602 O597 1.279 . S
C603 O604 1.315 . S
C603 O605 1.279 . S
O604 Cd596 2.223 . S
O604 C603 1.315 . S
O605 Cd595 2.240 . S
O605 C603 1.279 . S
O606 Cd596 2.297 . S
O606 C601 1.247 . S
O607 Cd596 2.439 . S
O607 C601 1.208 . S
H608 C626 0.951 . S
H609 C628 0.951 . S
H610 C630 0.950 . S
H611 C631 0.950 . S
H612 C633 0.950 . S
H613 C636 0.950 . S
H614 C637 0.950 . S
H615 C639 0.950 . S
H616 C640 0.950 . S
H617 C641 0.951 . S
H618 C643 0.951 . S
H619 C645 0.950 . S
H620 C646 0.950 . S
H621 C648 0.950 . S
H622 C651 0.950 . S
H623 C652 0.950 . S
H624 C654 0.950 . S
H625 C655 0.950 . S
C626 H608 0.951 . S
C626 C627 1.366 . S
C626 C628 1.388 . S
C627 C626 1.366 . S
C627 C631 1.385 . S
C628 H609 0.951 . S
C628 C626 1.388 . S
C628 C629 1.366 . S
C629 C628 1.366 . S
C629 C630 1.414 . S
C629 C632 1.499 . S
C630 H610 0.950 . S
C630 C629 1.414 . S
C630 C631 1.374 . S
C631 H611 0.950 . S
C631 C627 1.385 . S
C631 C630 1.374 . S
C632 C629 1.499 . S
C632 C633 1.373 . S
C632 C634 1.389 . S
C633 H612 0.950 . S
C633 C632 1.373 . S
C633 C649 1.377 . S
C634 C632 1.389 . S
C634 C635 1.524 . S
C634 C648 1.377 . S
C635 C634 1.524 . S
C635 C636 1.397 . S
C635 C640 1.363 . S
C636 H613 0.950 . S
C636 C635 1.397 . S
C636 C637 1.334 . S
C637 H614 0.950 . S
C637 C636 1.334 . S
C637 C638 1.287 . S
C638 C637 1.287 . S
C638 C639 1.524 . S
C638 H657 0.913 . S
C639 H615 0.950 . S
C639 C638 1.524 . S
C639 C640 1.415 . S
C640 H616 0.950 . S
C640 C635 1.363 . S
C640 C639 1.415 . S
C641 H617 0.951 . S
C641 C642 1.366 . S
C641 C643 1.388 . S
C642 C641 1.366 . S
C642 C646 1.385 . S
C643 H618 0.951 . S
C643 C641 1.388 . S
C643 C644 1.366 . S
C644 C643 1.366 . S
C644 C645 1.414 . S
C644 C647 1.499 . S
C645 H619 0.950 . S
C645 C644 1.414 . S
C645 C646 1.374 . S
C646 H620 0.950 . S
C646 C642 1.385 . S
C646 C645 1.374 . S
C647 C644 1.499 . S
C647 C648 1.373 . S
C647 C649 1.389 . S
C648 H621 0.950 . S
C648 C634 1.377 . S
C648 C647 1.373 . S
C649 C633 1.377 . S
C649 C647 1.389 . S
C649 C650 1.524 . S
C650 C649 1.524 . S
C650 C651 1.397 . S
C650 C655 1.363 . S
C651 H622 0.950 . S
C651 C650 1.397 . S
C651 C652 1.334 . S
C652 H623 0.950 . S
C652 C651 1.334 . S
C652 C653 1.287 . S
C653 C652 1.287 . S
C653 C654 1.524 . S
C653 H656 0.999 . S
C654 H624 0.950 . S
C654 C653 1.524 . S
C654 C655 1.415 . S
C655 H625 0.950 . S
C655 C650 1.363 . S
C655 C654 1.415 . S
H656 C653 0.999 . S
H657 C638 0.913 . S
H658 C676 0.951 . S
H659 C678 0.951 . S
H660 C680 0.950 . S
H661 C681 0.950 . S
H662 C683 0.950 . S
H663 C686 0.950 . S
H664 C687 0.950 . S
H665 C689 0.950 . S
H666 C690 0.950 . S
H667 C691 0.951 . S
H668 C693 0.951 . S
H669 C695 0.950 . S
H670 C696 0.950 . S
H671 C698 0.950 . S
H672 C701 0.950 . S
H673 C702 0.950 . S
H674 C704 0.950 . S
H675 C705 0.950 . S
C676 H658 0.951 . S
C676 C677 1.366 . S
C676 C678 1.388 . S
C677 C676 1.366 . S
C677 C681 1.385 . S
C678 H659 0.951 . S
C678 C676 1.388 . S
C678 C679 1.366 . S
C679 C678 1.366 . S
C679 C680 1.414 . S
C679 C682 1.499 . S
C680 H660 0.950 . S
C680 C679 1.414 . S
C680 C681 1.374 . S
C681 H661 0.950 . S
C681 C677 1.385 . S
C681 C680 1.374 . S
C682 C679 1.499 . S
C682 C683 1.373 . S
C682 C684 1.389 . S
C683 H662 0.950 . S
C683 C682 1.373 . S
C683 C699 1.377 . S
C684 C682 1.389 . S
C684 C685 1.524 . S
C684 C698 1.377 . S
C685 C684 1.524 . S
C685 C686 1.397 . S
C685 C690 1.363 . S
C686 H663 0.950 . S
C686 C685 1.397 . S
C686 C687 1.334 . S
C687 H664 0.950 . S
C687 C686 1.334 . S
C687 C688 1.287 . S
C688 C687 1.287 . S
C688 C689 1.524 . S
C688 H707 0.913 . S
C689 H665 0.950 . S
C689 C688 1.524 . S
C689 C690 1.415 . S
C690 H666 0.950 . S
C690 C685 1.363 . S
C690 C689 1.415 . S
C691 H667 0.951 . S
C691 C692 1.366 . S
C691 C693 1.388 . S
C692 C691 1.366 . S
C692 C696 1.385 . S
C693 H668 0.951 . S
C693 C691 1.388 . S
C693 C694 1.366 . S
C694 C693 1.366 . S
C694 C695 1.414 . S
C694 C697 1.499 . S
C695 H669 0.950 . S
C695 C694 1.414 . S
C695 C696 1.374 . S
C696 H670 0.950 . S
C696 C692 1.385 . S
C696 C695 1.374 . S
C697 C694 1.499 . S
C697 C698 1.373 . S
C697 C699 1.389 . S
C698 H671 0.950 . S
C698 C684 1.377 . S
C698 C697 1.373 . S
C699 C683 1.377 . S
C699 C697 1.389 . S
C699 C700 1.524 . S
C700 C699 1.524 . S
C700 C701 1.397 . S
C700 C705 1.363 . S
C701 H672 0.950 . S
C701 C700 1.397 . S
C701 C702 1.334 . S
C702 H673 0.950 . S
C702 C701 1.334 . S
C702 C703 1.287 . S
C703 C702 1.287 . S
C703 C704 1.524 . S
C703 H706 0.999 . S
C704 H674 0.950 . S
C704 C703 1.524 . S
C704 C705 1.415 . S
C705 H675 0.950 . S
C705 C700 1.363 . S
C705 C704 1.415 . S
H706 C703 0.999 . S
H707 C688 0.913 . S
H708 C726 0.951 . S
H709 C728 0.951 . S
H710 C730 0.950 . S
H711 C731 0.950 . S
H712 C733 0.950 . S
H713 C736 0.950 . S
H714 C737 0.950 . S
H715 C739 0.950 . S
H716 C740 0.950 . S
H717 C741 0.951 . S
H718 C743 0.951 . S
H719 C745 0.950 . S
H720 C746 0.950 . S
H721 C748 0.950 . S
H722 C751 0.950 . S
H723 C752 0.950 . S
H724 C754 0.950 . S
H725 C755 0.950 . S
C726 H708 0.951 . S
C726 C727 1.366 . S
C726 C728 1.388 . S
C727 C726 1.366 . S
C727 C731 1.385 . S
C728 H709 0.951 . S
C728 C726 1.388 . S
C728 C729 1.366 . S
C729 C728 1.366 . S
C729 C730 1.414 . S
C729 C732 1.499 . S
C730 H710 0.950 . S
C730 C729 1.414 . S
C730 C731 1.374 . S
C731 H711 0.950 . S
C731 C727 1.385 . S
C731 C730 1.374 . S
C732 C729 1.499 . S
C732 C733 1.373 . S
C732 C734 1.389 . S
C733 H712 0.950 . S
C733 C732 1.373 . S
C733 C749 1.377 . S
C734 C732 1.389 . S
C734 C735 1.524 . S
C734 C748 1.377 . S
C735 C734 1.524 . S
C735 C736 1.397 . S
C735 C740 1.363 . S
C736 H713 0.950 . S
C736 C735 1.397 . S
C736 C737 1.334 . S
C737 H714 0.950 . S
C737 C736 1.334 . S
C737 C738 1.287 . S
C738 C737 1.287 . S
C738 C739 1.524 . S
C738 H757 0.913 . S
C739 H715 0.950 . S
C739 C738 1.524 . S
C739 C740 1.415 . S
C740 H716 0.950 . S
C740 C735 1.363 . S
C740 C739 1.415 . S
C741 H717 0.951 . S
C741 C742 1.366 . S
C741 C743 1.388 . S
C742 C741 1.366 . S
C742 C746 1.385 . S
C743 H718 0.951 . S
C743 C741 1.388 . S
C743 C744 1.366 . S
C744 C743 1.366 . S
C744 C745 1.414 . S
C744 C747 1.499 . S
C745 H719 0.950 . S
C745 C744 1.414 . S
C745 C746 1.374 . S
C746 H720 0.950 . S
C746 C742 1.385 . S
C746 C745 1.374 . S
C747 C744 1.499 . S
C747 C748 1.373 . S
C747 C749 1.389 . S
C748 H721 0.950 . S
C748 C734 1.377 . S
C748 C747 1.373 . S
C749 C733 1.377 . S
C749 C747 1.389 . S
C749 C750 1.524 . S
C750 C749 1.524 . S
C750 C751 1.397 . S
C750 C755 1.363 . S
C751 H722 0.950 . S
C751 C750 1.397 . S
C751 C752 1.334 . S
C752 H723 0.950 . S
C752 C751 1.334 . S
C752 C753 1.287 . S
C753 C752 1.287 . S
C753 C754 1.524 . S
C753 H756 0.999 . S
C754 H724 0.950 . S
C754 C753 1.524 . S
C754 C755 1.415 . S
C755 H725 0.950 . S
C755 C750 1.363 . S
C755 C754 1.415 . S
H756 C753 0.999 . S
H757 C738 0.913 . S
H758 C776 0.951 . S
H759 C778 0.951 . S
H760 C780 0.950 . S
H761 C781 0.950 . S
H762 C783 0.950 . S
H763 C786 0.950 . S
H764 C787 0.950 . S
H765 C789 0.950 . S
H766 C790 0.950 . S
H767 C791 0.951 . S
H768 C793 0.951 . S
H769 C795 0.950 . S
H770 C796 0.950 . S
H771 C798 0.950 . S
H772 C801 0.950 . S
H773 C802 0.950 1_556 S
H774 C804 0.950 . S
H775 C805 0.950 . S
C776 H758 0.951 . S
C776 C777 1.366 . S
C776 C778 1.388 . S
C777 C776 1.366 . S
C777 C781 1.385 . S
C778 H759 0.951 . S
C778 C776 1.388 . S
C778 C779 1.366 . S
C779 C778 1.366 . S
C779 C780 1.414 . S
C779 C782 1.499 . S
C780 H760 0.950 . S
C780 C779 1.414 . S
C780 C781 1.374 . S
C781 H761 0.950 . S
C781 C777 1.385 . S
C781 C780 1.374 . S
C782 C779 1.499 . S
C782 C783 1.373 . S
C782 C784 1.389 . S
C783 H762 0.950 . S
C783 C782 1.373 . S
C783 C799 1.377 . S
C784 C782 1.389 . S
C784 C785 1.524 . S
C784 C798 1.377 . S
C785 C784 1.524 . S
C785 C786 1.397 . S
C785 C790 1.363 . S
C786 H763 0.950 . S
C786 C785 1.397 . S
C786 C787 1.334 . S
C787 H764 0.950 . S
C787 C786 1.334 . S
C787 C788 1.287 . S
C788 C787 1.287 . S
C788 C789 1.524 . S
C788 H807 0.913 . S
C789 H765 0.950 . S
C789 C788 1.524 . S
C789 C790 1.415 . S
C790 H766 0.950 . S
C790 C785 1.363 . S
C790 C789 1.415 . S
C791 H767 0.951 . S
C791 C792 1.366 . S
C791 C793 1.388 . S
C792 C791 1.366 . S
C792 C796 1.385 . S
C793 H768 0.951 . S
C793 C791 1.388 . S
C793 C794 1.366 . S
C794 C793 1.366 . S
C794 C795 1.414 . S
C794 C797 1.499 . S
C795 H769 0.950 . S
C795 C794 1.414 . S
C795 C796 1.374 . S
C796 H770 0.950 . S
C796 C792 1.385 . S
C796 C795 1.374 . S
C797 C794 1.499 . S
C797 C798 1.373 . S
C797 C799 1.389 . S
C798 H771 0.950 . S
C798 C784 1.377 . S
C798 C797 1.373 . S
C799 C783 1.377 . S
C799 C797 1.389 . S
C799 C800 1.524 . S
C800 C799 1.524 . S
C800 C801 1.397 . S
C800 C805 1.363 . S
C801 H772 0.950 . S
C801 C800 1.397 . S
C801 C802 1.334 . S
C802 H773 0.950 1_554 S
C802 C801 1.334 . S
C802 C803 1.287 . S
C803 C802 1.287 . S
C803 C804 1.524 . S
C803 H806 0.999 1_554 S
C804 H774 0.950 . S
C804 C803 1.524 . S
C804 C805 1.415 . S
C805 H775 0.950 . S
C805 C800 1.363 . S
C805 C804 1.415 . S
H806 C803 0.999 1_556 S
H807 C788 0.913 . S
H808 C826 0.951 . S
H809 C828 0.951 . S
H810 C830 0.950 . S
H811 C831 0.950 . S
H812 C833 0.950 . S
H813 C836 0.950 . S
H814 C837 0.950 . S
H815 C839 0.950 . S
H816 C840 0.950 . S
H817 C841 0.951 . S
H818 C843 0.951 . S
H819 C845 0.950 . S
H820 C846 0.950 . S
H821 C848 0.950 . S
H822 C851 0.950 1_554 S
H823 C852 0.950 . S
H824 C854 0.950 . S
H825 C855 0.950 . S
C826 H808 0.951 . S
C826 C827 1.366 . S
C826 C828 1.388 . S
C827 C826 1.366 . S
C827 C831 1.385 . S
C828 H809 0.951 . S
C828 C826 1.388 . S
C828 C829 1.366 . S
C829 C828 1.366 . S
C829 C830 1.414 . S
C829 C832 1.499 . S
C830 H810 0.950 . S
C830 C829 1.414 . S
C830 C831 1.374 . S
C831 H811 0.950 . S
C831 C827 1.385 . S
C831 C830 1.374 . S
C832 C829 1.499 . S
C832 C833 1.373 . S
C832 C834 1.389 . S
C833 H812 0.950 . S
C833 C832 1.373 . S
C833 C849 1.377 . S
C834 C832 1.389 . S
C834 C835 1.524 . S
C834 C848 1.377 . S
C835 C834 1.524 . S
C835 C836 1.397 . S
C835 C840 1.363 . S
C836 H813 0.950 . S
C836 C835 1.397 . S
C836 C837 1.334 . S
C837 H814 0.950 . S
C837 C836 1.334 . S
C837 C838 1.287 . S
C838 C837 1.287 . S
C838 C839 1.524 . S
C838 H857 0.913 . S
C839 H815 0.950 . S
C839 C838 1.524 . S
C839 C840 1.415 . S
C840 H816 0.950 . S
C840 C835 1.363 . S
C840 C839 1.415 . S
C841 H817 0.951 . S
C841 C842 1.366 . S
C841 C843 1.388 . S
C842 C841 1.366 . S
C842 C846 1.385 . S
C843 H818 0.951 . S
C843 C841 1.388 . S
C843 C844 1.366 . S
C844 C843 1.366 . S
C844 C845 1.414 . S
C844 C847 1.499 . S
C845 H819 0.950 . S
C845 C844 1.414 . S
C845 C846 1.374 . S
C846 H820 0.950 . S
C846 C842 1.385 . S
C846 C845 1.374 . S
C847 C844 1.499 . S
C847 C848 1.373 . S
C847 C849 1.389 . S
C848 H821 0.950 . S
C848 C834 1.377 . S
C848 C847 1.373 . S
C849 C833 1.377 . S
C849 C847 1.389 . S
C849 C850 1.483 1_554 S
C850 C849 1.483 1_556 S
C850 C851 1.404 . S
C850 C855 1.397 . S
C851 H822 0.950 1_556 S
C851 C850 1.404 . S
C851 C852 1.334 . S
C852 H823 0.950 . S
C852 C851 1.334 . S
C852 C853 1.287 . S
C853 C852 1.287 . S
C853 C854 1.524 . S
C853 H856 0.999 . S
C854 H824 0.950 . S
C854 C853 1.524 . S
C854 C855 1.415 . S
C855 H825 0.950 . S
C855 C850 1.397 . S
C855 C854 1.415 . S
H856 C853 0.999 . S
H857 C838 0.913 . S
H858 C876 0.951 . S
H859 C878 0.951 . S
H860 C880 0.950 . S
H861 C881 0.950 . S
H862 C883 0.950 . S
H863 C886 0.950 . S
H864 C887 0.950 . S
H865 C889 0.950 . S
H866 C890 0.950 . S
H867 C891 0.951 . S
H868 C893 0.951 . S
H869 C895 0.950 . S
H870 C896 0.950 . S
H871 C898 0.950 . S
H872 C901 0.950 . S
H873 C902 0.950 . S
H874 C904 0.950 . S
H875 C905 0.950 . S
C876 H858 0.951 . S
C876 C877 1.366 . S
C876 C878 1.388 . S
C877 C876 1.366 . S
C877 C881 1.385 . S
C878 H859 0.951 . S
C878 C876 1.388 . S
C878 C879 1.366 . S
C879 C878 1.366 . S
C879 C880 1.414 . S
C879 C882 1.499 . S
C880 H860 0.950 . S
C880 C879 1.414 . S
C880 C881 1.374 . S
C881 H861 0.950 . S
C881 C877 1.385 . S
C881 C880 1.374 . S
C882 C879 1.499 . S
C882 C883 1.373 . S
C882 C884 1.389 . S
C883 H862 0.950 . S
C883 C882 1.373 . S
C883 C899 1.377 . S
C884 C882 1.389 . S
C884 C885 1.524 . S
C884 C898 1.377 . S
C885 C884 1.524 . S
C885 C886 1.397 . S
C885 C890 1.363 . S
C886 H863 0.950 . S
C886 C885 1.397 . S
C886 C887 1.334 . S
C887 H864 0.950 . S
C887 C886 1.334 . S
C887 C888 1.287 . S
C888 C887 1.287 . S
C888 C889 1.524 . S
C888 H907 0.913 . S
C889 H865 0.950 . S
C889 C888 1.524 . S
C889 C890 1.415 . S
C890 H866 0.950 . S
C890 C885 1.363 . S
C890 C889 1.415 . S
C891 H867 0.951 . S
C891 C892 1.366 . S
C891 C893 1.388 . S
C892 C891 1.366 . S
C892 C896 1.385 . S
C893 H868 0.951 . S
C893 C891 1.388 . S
C893 C894 1.366 . S
C894 C893 1.366 . S
C894 C895 1.414 . S
C894 C897 1.499 . S
C895 H869 0.950 . S
C895 C894 1.414 . S
C895 C896 1.374 . S
C896 H870 0.950 . S
C896 C892 1.385 . S
C896 C895 1.374 . S
C897 C894 1.499 . S
C897 C898 1.373 . S
C897 C899 1.389 . S
C898 H871 0.950 . S
C898 C884 1.377 . S
C898 C897 1.373 . S
C899 C883 1.377 . S
C899 C897 1.389 . S
C899 C900 1.524 . S
C900 C899 1.524 . S
C900 C901 1.397 . S
C900 C905 1.363 . S
C901 H872 0.950 . S
C901 C900 1.397 . S
C901 C902 1.334 . S
C902 H873 0.950 . S
C902 C901 1.334 . S
C902 C903 1.287 . S
C903 C902 1.287 . S
C903 C904 1.524 . S
C903 H906 0.999 . S
C904 H874 0.950 . S
C904 C903 1.524 . S
C904 C905 1.415 . S
C905 H875 0.950 . S
C905 C900 1.363 . S
C905 C904 1.415 . S
H906 C903 0.999 . S
H907 C888 0.913 . S
H908 C926 0.951 . S
H909 C928 0.951 . S
H910 C930 0.950 . S
H911 C931 0.950 . S
H912 C933 0.950 . S
H913 C936 0.950 . S
H914 C937 0.931 1_545 S
H915 C939 0.950 . S
H916 C940 0.950 . S
H917 C941 0.951 . S
H918 C943 0.951 . S
H919 C945 0.950 . S
H920 C946 0.950 . S
H921 C948 0.950 . S
H922 C951 0.950 . S
H923 C952 0.950 . S
H924 C954 0.950 . S
H925 C955 0.950 . S
C926 H908 0.951 . S
C926 C927 1.366 . S
C926 C928 1.388 . S
C927 C926 1.366 . S
C927 C931 1.385 . S
C928 H909 0.951 . S
C928 C926 1.388 . S
C928 C929 1.366 . S
C929 C928 1.366 . S
C929 C930 1.414 . S
C929 C932 1.499 . S
C930 H910 0.950 . S
C930 C929 1.414 . S
C930 C931 1.374 . S
C931 H911 0.950 . S
C931 C927 1.385 . S
C931 C930 1.374 . S
C932 C929 1.499 . S
C932 C933 1.373 . S
C932 C934 1.389 . S
C933 H912 0.950 . S
C933 C932 1.373 . S
C933 C949 1.377 . S
C934 C932 1.389 . S
C934 C935 1.524 . S
C934 C948 1.377 . S
C935 C934 1.524 . S
C935 C936 1.397 . S
C935 C940 1.363 . S
C936 H913 0.950 . S
C936 C935 1.397 . S
C936 C937 1.354 . S
C937 H914 0.931 1_565 S
C937 C936 1.354 . S
C937 C938 1.287 . S
C938 C937 1.287 . S
C938 C939 1.524 . S
C938 H957 0.913 1_565 S
C939 H915 0.950 . S
C939 C938 1.524 . S
C939 C940 1.415 . S
C940 H916 0.950 . S
C940 C935 1.363 . S
C940 C939 1.415 . S
C941 H917 0.951 . S
C941 C942 1.366 . S
C941 C943 1.388 . S
C942 C941 1.366 . S
C942 C946 1.385 . S
C943 H918 0.951 . S
C943 C941 1.388 . S
C943 C944 1.366 . S
C944 C943 1.366 . S
C944 C945 1.414 . S
C944 C947 1.499 . S
C945 H919 0.950 . S
C945 C944 1.414 . S
C945 C946 1.374 . S
C946 H920 0.950 . S
C946 C942 1.385 . S
C946 C945 1.374 . S
C947 C944 1.499 . S
C947 C948 1.373 . S
C947 C949 1.389 . S
C948 H921 0.950 . S
C948 C934 1.377 . S
C948 C947 1.373 . S
C949 C933 1.377 . S
C949 C947 1.389 . S
C949 C950 1.524 . S
C950 C949 1.524 . S
C950 C951 1.397 . S
C950 C955 1.363 . S
C951 H922 0.950 . S
C951 C950 1.397 . S
C951 C952 1.334 . S
C952 H923 0.950 . S
C952 C951 1.334 . S
C952 C953 1.287 . S
C953 C952 1.287 . S
C953 C954 1.524 . S
C953 H956 0.999 . S
C954 H924 0.950 . S
C954 C953 1.524 . S
C954 C955 1.415 . S
C955 H925 0.950 . S
C955 C950 1.363 . S
C955 C954 1.415 . S
H956 C953 0.999 . S
H957 C938 0.913 1_545 S
H958 C976 0.951 . S
H959 C978 0.951 . S
H960 C980 0.950 . S
H961 C981 0.950 . S
H962 C983 0.950 . S
H963 C986 0.950 . S
H964 C987 0.950 . S
H965 C989 0.950 . S
H966 C990 0.950 . S
H967 C991 0.951 . S
H968 C993 0.951 . S
H969 C995 0.950 . S
H970 C996 0.950 . S
H971 C998 0.950 . S
H972 C1001 0.950 . S
H973 C1002 0.950 . S
H974 C1004 0.950 . S
H975 C1005 0.950 . S
C976 H958 0.951 . S
C976 C977 1.366 . S
C976 C978 1.388 1_545 S
C977 C976 1.366 . S
C977 C981 1.385 . S
C978 H959 0.951 . S
C978 C976 1.388 1_565 S
C978 C979 1.366 . S
C979 C978 1.366 . S
C979 C980 1.414 . S
C979 C982 1.499 . S
C980 H960 0.950 . S
C980 C979 1.414 . S
C980 C981 1.374 1_565 S
C981 H961 0.950 . S
C981 C977 1.385 . S
C981 C980 1.374 1_545 S
C982 C979 1.499 . S
C982 C983 1.373 . S
C982 C984 1.389 . S
C983 H962 0.950 . S
C983 C982 1.373 . S
C983 C999 1.377 . S
C984 C982 1.389 . S
C984 C985 1.524 . S
C984 C998 1.377 . S
C985 C984 1.524 . S
C985 C986 1.397 . S
C985 C990 1.363 . S
C986 H963 0.950 . S
C986 C985 1.397 . S
C986 C987 1.334 . S
C987 H964 0.950 . S
C987 C986 1.334 . S
C987 C988 1.287 . S
C988 C987 1.287 . S
C988 C989 1.524 . S
C988 H1007 0.913 . S
C989 H965 0.950 . S
C989 C988 1.524 . S
C989 C990 1.415 . S
C990 H966 0.950 . S
C990 C985 1.363 . S
C990 C989 1.415 . S
C991 H967 0.951 . S
C991 C992 1.366 . S
C991 C993 1.388 . S
C992 C991 1.366 . S
C992 C996 1.385 . S
C993 H968 0.951 . S
C993 C991 1.388 . S
C993 C994 1.366 . S
C994 C993 1.366 . S
C994 C995 1.414 . S
C994 C997 1.499 . S
C995 H969 0.950 . S
C995 C994 1.414 . S
C995 C996 1.374 . S
C996 H970 0.950 . S
C996 C992 1.385 . S
C996 C995 1.374 . S
C997 C994 1.499 . S
C997 C998 1.373 . S
C997 C999 1.389 . S
C998 H971 0.950 . S
C998 C984 1.377 . S
C998 C997 1.373 . S
C999 C983 1.377 . S
C999 C997 1.389 . S
C999 C1000 1.524 . S
C1000 C999 1.524 . S
C1000 C1001 1.397 . S
C1000 C1005 1.363 . S
C1001 H972 0.950 . S
C1001 C1000 1.397 . S
C1001 C1002 1.334 . S
C1002 H973 0.950 . S
C1002 C1001 1.334 . S
C1002 C1003 1.287 . S
C1003 C1002 1.287 . S
C1003 C1004 1.524 . S
C1003 H1006 0.999 . S
C1004 H974 0.950 . S
C1004 C1003 1.524 . S
C1004 C1005 1.415 . S
C1005 H975 0.950 . S
C1005 C1000 1.363 . S
C1005 C1004 1.415 . S
H1006 C1003 0.999 . S
H1007 C988 0.913 . S
H1008 C1026 0.951 . S
H1009 C1028 0.951 . S
H1010 C1030 0.950 . S
H1011 C1031 0.950 . S
H1012 C1033 0.950 . S
H1013 C1036 0.950 . S
H1014 C1037 0.950 . S
H1015 C1039 0.950 . S
H1016 C1040 0.950 . S
H1017 C1041 0.951 . S
H1018 C1043 0.951 . S
H1019 C1045 0.950 . S
H1020 C1046 0.950 . S
H1021 C1048 0.950 . S
H1022 C1051 0.950 . S
H1023 C1052 0.950 . S
H1024 C1054 0.950 . S
H1025 C1055 0.950 . S
C1026 H1008 0.951 . S
C1026 C1027 1.366 . S
C1026 C1028 1.388 . S
C1027 C1026 1.366 . S
C1027 C1031 1.385 . S
C1028 H1009 0.951 . S
C1028 C1026 1.388 . S
C1028 C1029 1.366 . S
C1029 C1028 1.366 . S
C1029 C1030 1.414 . S
C1029 C1032 1.499 . S
C1030 H1010 0.950 . S
C1030 C1029 1.414 . S
C1030 C1031 1.374 . S
C1031 H1011 0.950 . S
C1031 C1027 1.385 . S
C1031 C1030 1.374 . S
C1032 C1029 1.499 . S
C1032 C1033 1.373 . S
C1032 C1034 1.389 . S
C1033 H1012 0.950 . S
C1033 C1032 1.373 . S
C1033 C1049 1.377 . S
C1034 C1032 1.389 . S
C1034 C1035 1.524 . S
C1034 C1048 1.377 . S
C1035 C1034 1.524 . S
C1035 C1036 1.397 . S
C1035 C1040 1.363 . S
C1036 H1013 0.950 . S
C1036 C1035 1.397 . S
C1036 C1037 1.334 . S
C1037 H1014 0.950 . S
C1037 C1036 1.334 . S
C1037 C1038 1.287 . S
C1038 C1037 1.287 . S
C1038 C1039 1.524 . S
C1038 H1057 0.913 . S
C1039 H1015 0.950 . S
C1039 C1038 1.524 . S
C1039 C1040 1.415 . S
C1040 H1016 0.950 . S
C1040 C1035 1.363 . S
C1040 C1039 1.415 . S
C1041 H1017 0.951 . S
C1041 C1042 1.366 . S
C1041 C1043 1.388 . S
C1042 C1041 1.366 . S
C1042 C1046 1.385 . S
C1043 H1018 0.951 . S
C1043 C1041 1.388 . S
C1043 C1044 1.366 . S
C1044 C1043 1.366 . S
C1044 C1045 1.414 . S
C1044 C1047 1.499 . S
C1045 H1019 0.950 . S
C1045 C1044 1.414 . S
C1045 C1046 1.374 . S
C1046 H1020 0.950 . S
C1046 C1042 1.385 . S
C1046 C1045 1.374 . S
C1047 C1044 1.499 . S
C1047 C1048 1.373 . S
C1047 C1049 1.389 . S
C1048 H1021 0.950 . S
C1048 C1034 1.377 . S
C1048 C1047 1.373 . S
C1049 C1033 1.377 . S
C1049 C1047 1.389 . S
C1049 C1050 1.524 . S
C1050 C1049 1.524 . S
C1050 C1051 1.397 . S
C1050 C1055 1.363 . S
C1051 H1022 0.950 . S
C1051 C1050 1.397 . S
C1051 C1052 1.334 . S
C1052 H1023 0.950 . S
C1052 C1051 1.334 . S
C1052 C1053 1.287 . S
C1053 C1052 1.287 . S
C1053 C1054 1.524 . S
C1053 H1056 0.999 . S
C1054 H1024 0.950 . S
C1054 C1053 1.524 . S
C1054 C1055 1.415 . S
C1055 H1025 0.950 . S
C1055 C1050 1.363 . S
C1055 C1054 1.415 . S
H1056 C1053 0.999 . S
H1057 C1038 0.913 . S
H1058 C1076 0.951 . S
H1059 C1078 0.951 . S
H1060 C1080 0.950 . S
H1061 C1081 0.950 . S
H1062 C1083 0.950 . S
H1063 C1086 0.950 . S
H1064 C1087 0.950 . S
H1065 C1089 0.950 . S
H1066 C1090 0.950 . S
H1067 C1091 0.932 1_556 S
H1068 C1093 0.951 . S
H1069 C1095 0.950 . S
H1070 C1096 0.950 . S
H1071 C1098 0.950 . S
H1072 C1101 0.950 . S
H1073 C1102 0.950 . S
H1074 C1104 0.950 . S
H1075 C1105 0.950 . S
C1076 H1058 0.951 . S
C1076 C1077 1.366 . S
C1076 C1078 1.388 . S
C1077 C1076 1.366 . S
C1077 C1081 1.385 . S
C1078 H1059 0.951 . S
C1078 C1076 1.388 . S
C1078 C1079 1.366 . S
C1079 C1078 1.366 . S
C1079 C1080 1.414 . S
C1079 C1082 1.499 . S
C1080 H1060 0.950 . S
C1080 C1079 1.414 . S
C1080 C1081 1.374 . S
C1081 H1061 0.950 . S
C1081 C1077 1.385 . S
C1081 C1080 1.374 . S
C1082 C1079 1.499 . S
C1082 C1083 1.373 . S
C1082 C1084 1.389 . S
C1083 H1062 0.950 . S
C1083 C1082 1.373 . S
C1083 C1099 1.377 . S
C1084 C1082 1.389 . S
C1084 C1085 1.524 . S
C1084 C1098 1.377 . S
C1085 C1084 1.524 . S
C1085 C1086 1.397 . S
C1085 C1090 1.363 . S
C1086 H1063 0.950 . S
C1086 C1085 1.397 . S
C1086 C1087 1.334 . S
C1087 H1064 0.950 . S
C1087 C1086 1.334 . S
C1087 C1088 1.287 . S
C1088 C1087 1.287 . S
C1088 C1089 1.524 . S
C1088 H1107 0.913 . S
C1089 H1065 0.950 . S
C1089 C1088 1.524 . S
C1089 C1090 1.415 . S
C1090 H1066 0.950 . S
C1090 C1085 1.363 . S
C1090 C1089 1.415 . S
C1091 H1067 0.932 1_554 S
C1091 C1092 1.366 . S
C1091 C1093 1.388 . S
C1092 C1091 1.366 . S
C1092 C1096 1.385 . S
C1093 H1068 0.951 . S
C1093 C1091 1.388 . S
C1093 C1094 1.366 . S
C1094 C1093 1.366 . S
C1094 C1095 1.414 . S
C1094 C1097 1.499 . S
C1095 H1069 0.950 . S
C1095 C1094 1.414 . S
C1095 C1096 1.374 . S
C1096 H1070 0.950 . S
C1096 C1092 1.385 . S
C1096 C1095 1.374 . S
C1097 C1094 1.499 . S
C1097 C1098 1.373 . S
C1097 C1099 1.389 . S
C1098 H1071 0.950 . S
C1098 C1084 1.377 . S
C1098 C1097 1.373 . S
C1099 C1083 1.377 . S
C1099 C1097 1.389 . S
C1099 C1100 1.524 1_554 S
C1100 C1099 1.524 1_556 S
C1100 C1101 1.397 . S
C1100 C1105 1.363 . S
C1101 H1072 0.950 . S
C1101 C1100 1.397 . S
C1101 C1102 1.334 . S
C1102 H1073 0.950 . S
C1102 C1101 1.334 . S
C1102 C1103 1.287 . S
C1103 C1102 1.287 . S
C1103 C1104 1.524 . S
C1103 H1106 0.999 . S
C1104 H1074 0.950 . S
C1104 C1103 1.524 . S
C1104 C1105 1.415 . S
C1105 H1075 0.950 . S
C1105 C1100 1.363 . S
C1105 C1104 1.415 . S
H1106 C1103 0.999 . S
H1107 C1088 0.913 . S
H1108 C1126 0.951 . S
H1109 C1128 0.951 . S
H1110 C1130 0.950 . S
H1111 C1131 0.950 . S
H1112 C1133 0.950 . S
H1113 C1136 0.950 . S
H1114 C1137 0.950 . S
H1115 C1139 0.950 . S
H1116 C1140 0.950 . S
H1117 C1141 0.951 . S
H1118 C1143 0.951 . S
H1119 C1145 0.950 . S
H1120 C1146 0.950 . S
H1121 C1148 0.950 . S
H1122 C1151 0.950 . S
H1123 C1152 0.950 . S
H1124 C1154 0.950 . S
H1125 C1155 0.950 . S
C1126 H1108 0.951 . S
C1126 C1127 1.366 . S
C1126 C1128 1.388 . S
C1127 C1126 1.366 . S
C1127 C1131 1.385 . S
C1128 H1109 0.951 . S
C1128 C1126 1.388 . S
C1128 C1129 1.366 . S
C1129 C1128 1.366 . S
C1129 C1130 1.414 . S
C1129 C1132 1.499 . S
C1130 H1110 0.950 . S
C1130 C1129 1.414 . S
C1130 C1131 1.374 . S
C1131 H1111 0.950 . S
C1131 C1127 1.385 . S
C1131 C1130 1.374 . S
C1132 C1129 1.499 . S
C1132 C1133 1.373 . S
C1132 C1134 1.389 . S
C1133 H1112 0.950 . S
C1133 C1132 1.373 . S
C1133 C1149 1.377 . S
C1134 C1132 1.389 . S
C1134 C1135 1.524 . S
C1134 C1148 1.377 . S
C1135 C1134 1.524 . S
C1135 C1136 1.397 . S
C1135 C1140 1.363 . S
C1136 H1113 0.950 . S
C1136 C1135 1.397 . S
C1136 C1137 1.334 . S
C1137 H1114 0.950 . S
C1137 C1136 1.334 . S
C1137 C1138 1.287 . S
C1138 C1137 1.287 . S
C1138 C1139 1.524 . S
C1138 H1157 0.913 . S
C1139 H1115 0.950 . S
C1139 C1138 1.524 . S
C1139 C1140 1.415 . S
C1140 H1116 0.950 . S
C1140 C1135 1.363 . S
C1140 C1139 1.415 . S
C1141 H1117 0.951 . S
C1141 C1142 1.366 . S
C1141 C1143 1.388 . S
C1142 C1141 1.366 . S
C1142 C1146 1.385 . S
C1143 H1118 0.951 . S
C1143 C1141 1.388 . S
C1143 C1144 1.366 . S
C1144 C1143 1.366 . S
C1144 C1145 1.414 . S
C1144 C1147 1.499 . S
C1145 H1119 0.950 . S
C1145 C1144 1.414 . S
C1145 C1146 1.374 . S
C1146 H1120 0.950 . S
C1146 C1142 1.385 . S
C1146 C1145 1.374 . S
C1147 C1144 1.499 . S
C1147 C1148 1.373 . S
C1147 C1149 1.389 . S
C1148 H1121 0.950 . S
C1148 C1134 1.377 . S
C1148 C1147 1.373 . S
C1149 C1133 1.377 . S
C1149 C1147 1.389 . S
C1149 C1150 1.524 . S
C1150 C1149 1.524 . S
C1150 C1151 1.397 . S
C1150 C1155 1.363 . S
C1151 H1122 0.950 . S
C1151 C1150 1.397 . S
C1151 C1152 1.334 . S
C1152 H1123 0.950 . S
C1152 C1151 1.334 . S
C1152 C1153 1.287 . S
C1153 C1152 1.287 . S
C1153 C1154 1.524 . S
C1153 H1156 0.999 . S
C1154 H1124 0.950 . S
C1154 C1153 1.524 . S
C1154 C1155 1.415 . S
C1155 H1125 0.950 . S
C1155 C1150 1.363 . S
C1155 C1154 1.415 . S
H1156 C1153 0.999 . S
H1157 C1138 0.913 . S
H1158 C1176 0.951 . S
H1159 C1178 0.951 . S
H1160 C1180 0.950 . S
H1161 C1181 0.950 . S
H1162 C1183 0.950 . S
H1163 C1186 0.950 . S
H1164 C1187 0.950 . S
H1165 C1189 0.950 . S
H1166 C1190 0.950 . S
H1167 C1191 0.951 . S
H1168 C1193 0.951 . S
H1169 C1195 0.950 . S
H1170 C1196 0.950 . S
H1171 C1198 0.950 . S
H1172 C1201 0.950 . S
H1173 C1202 0.950 . S
H1174 C1204 0.950 . S
H1175 C1205 0.950 . S
C1176 H1158 0.951 . S
C1176 C1177 1.366 . S
C1176 C1178 1.388 . S
C1177 C1176 1.366 . S
C1177 C1181 1.385 . S
C1178 H1159 0.951 . S
C1178 C1176 1.388 . S
C1178 C1179 1.366 . S
C1179 C1178 1.366 . S
C1179 C1180 1.414 . S
C1179 C1182 1.499 . S
C1180 H1160 0.950 . S
C1180 C1179 1.414 . S
C1180 C1181 1.374 . S
C1181 H1161 0.950 . S
C1181 C1177 1.385 . S
C1181 C1180 1.374 . S
C1182 C1179 1.499 . S
C1182 C1183 1.373 . S
C1182 C1184 1.389 . S
C1183 H1162 0.950 . S
C1183 C1182 1.373 . S
C1183 C1199 1.377 . S
C1184 C1182 1.389 . S
C1184 C1185 1.524 . S
C1184 C1198 1.377 . S
C1185 C1184 1.524 . S
C1185 C1186 1.397 . S
C1185 C1190 1.363 . S
C1186 H1163 0.950 . S
C1186 C1185 1.397 . S
C1186 C1187 1.334 . S
C1187 H1164 0.950 . S
C1187 C1186 1.334 . S
C1187 C1188 1.287 . S
C1188 C1187 1.287 . S
C1188 C1189 1.524 . S
C1188 H1207 0.913 . S
C1189 H1165 0.950 . S
C1189 C1188 1.524 . S
C1189 C1190 1.415 . S
C1190 H1166 0.950 . S
C1190 C1185 1.363 . S
C1190 C1189 1.415 . S
C1191 H1167 0.951 . S
C1191 C1192 1.366 . S
C1191 C1193 1.388 . S
C1192 C1191 1.366 . S
C1192 C1196 1.385 . S
C1193 H1168 0.951 . S
C1193 C1191 1.388 . S
C1193 C1194 1.366 . S
C1194 C1193 1.366 . S
C1194 C1195 1.414 . S
C1194 C1197 1.499 . S
C1195 H1169 0.950 . S
C1195 C1194 1.414 . S
C1195 C1196 1.374 . S
C1196 H1170 0.950 . S
C1196 C1192 1.385 . S
C1196 C1195 1.374 . S
C1197 C1194 1.499 . S
C1197 C1198 1.373 . S
C1197 C1199 1.389 . S
C1198 H1171 0.950 . S
C1198 C1184 1.377 . S
C1198 C1197 1.373 . S
C1199 C1183 1.377 . S
C1199 C1197 1.389 . S
C1199 C1200 1.524 . S
C1200 C1199 1.524 . S
C1200 C1201 1.397 . S
C1200 C1205 1.363 . S
C1201 H1172 0.950 . S
C1201 C1200 1.397 . S
C1201 C1202 1.334 . S
C1202 H1173 0.950 . S
C1202 C1201 1.334 . S
C1202 C1203 1.287 . S
C1203 C1202 1.287 . S
C1203 C1204 1.524 1_655 S
C1203 H1206 0.974 1_655 S
C1204 H1174 0.950 . S
C1204 C1203 1.524 1_455 S
C1204 C1205 1.415 1_455 S
C1205 H1175 0.950 . S
C1205 C1200 1.363 . S
C1205 C1204 1.415 1_655 S
H1206 C1203 0.974 1_455 S
H1207 C1188 0.913 . S
H1208 C1226 0.951 . S
H1209 C1228 0.951 . S
H1210 C1230 0.950 . S
H1211 C1231 0.950 . S
H1212 C1233 0.950 . S
H1213 C1236 0.950 . S
H1214 C1237 0.950 . S
H1215 C1239 0.950 . S
H1216 C1240 0.950 . S
H1217 C1241 0.951 . S
H1218 C1243 0.951 . S
H1219 C1245 0.950 . S
H1220 C1246 0.950 . S
H1221 C1248 0.950 . S
H1222 C1251 0.950 . S
H1223 C1252 0.950 . S
H1224 C1254 0.950 . S
H1225 C1255 0.950 . S
C1226 H1208 0.951 . S
C1226 C1227 1.366 . S
C1226 C1228 1.388 . S
C1227 C1226 1.366 . S
C1227 C1231 1.385 . S
C1228 H1209 0.951 . S
C1228 C1226 1.388 . S
C1228 C1229 1.366 . S
C1229 C1228 1.366 . S
C1229 C1230 1.414 . S
C1229 C1232 1.499 . S
C1230 H1210 0.950 . S
C1230 C1229 1.414 . S
C1230 C1231 1.374 . S
C1231 H1211 0.950 . S
C1231 C1227 1.385 . S
C1231 C1230 1.374 . S
C1232 C1229 1.499 . S
C1232 C1233 1.373 . S
C1232 C1234 1.389 . S
C1233 H1212 0.950 . S
C1233 C1232 1.373 . S
C1233 C1249 1.377 . S
C1234 C1232 1.389 . S
C1234 C1235 1.524 . S
C1234 C1248 1.377 . S
C1235 C1234 1.524 . S
C1235 C1236 1.397 . S
C1235 C1240 1.363 . S
C1236 H1213 0.950 . S
C1236 C1235 1.397 . S
C1236 C1237 1.334 . S
C1237 H1214 0.950 . S
C1237 C1236 1.334 . S
C1237 C1238 1.287 . S
C1238 C1237 1.287 . S
C1238 C1239 1.524 . S
C1238 H1257 0.913 . S
C1239 H1215 0.950 . S
C1239 C1238 1.524 . S
C1239 C1240 1.415 . S
C1240 H1216 0.950 . S
C1240 C1235 1.363 . S
C1240 C1239 1.415 . S
C1241 H1217 0.951 . S
C1241 C1242 1.366 . S
C1241 C1243 1.388 . S
C1242 C1241 1.366 . S
C1242 C1246 1.385 . S
C1243 H1218 0.951 . S
C1243 C1241 1.388 . S
C1243 C1244 1.366 . S
C1244 C1243 1.366 . S
C1244 C1245 1.414 . S
C1244 C1247 1.499 . S
C1245 H1219 0.950 . S
C1245 C1244 1.414 . S
C1245 C1246 1.374 . S
C1246 H1220 0.950 . S
C1246 C1242 1.385 . S
C1246 C1245 1.374 . S
C1247 C1244 1.499 . S
C1247 C1248 1.373 . S
C1247 C1249 1.389 . S
C1248 H1221 0.950 . S
C1248 C1234 1.377 . S
C1248 C1247 1.373 . S
C1249 C1233 1.377 . S
C1249 C1247 1.389 . S
C1249 C1250 1.524 . S
C1250 C1249 1.524 . S
C1250 C1251 1.397 . S
C1250 C1255 1.363 . S
C1251 H1222 0.950 . S
C1251 C1250 1.397 . S
C1251 C1252 1.334 . S
C1252 H1223 0.950 . S
C1252 C1251 1.334 . S
C1252 C1253 1.287 . S
C1253 C1252 1.287 . S
C1253 C1254 1.524 . S
C1253 H1256 0.999 . S
C1254 H1224 0.950 . S
C1254 C1253 1.524 . S
C1254 C1255 1.415 . S
C1255 H1225 0.950 . S
C1255 C1250 1.363 . S
C1255 C1254 1.415 . S
H1256 C1253 0.999 . S
H1257 C1238 0.913 . S
H1258 C1276 0.951 . S
H1259 C1278 0.951 . S
H1260 C1280 0.950 . S
H1261 C1281 0.950 . S
H1262 C1283 0.950 . S
H1263 C1286 0.950 . S
H1264 C1287 0.950 . S
H1265 C1289 0.950 . S
H1266 C1290 0.950 . S
H1267 C1291 0.951 . S
H1268 C1293 0.951 . S
H1269 C1295 0.950 . S
H1270 C1296 0.950 . S
H1271 C1298 0.950 . S
H1272 C1301 0.950 . S
H1273 C1302 0.950 . S
H1274 C1304 0.950 . S
H1275 C1305 0.950 . S
C1276 H1258 0.951 . S
C1276 C1277 1.366 . S
C1276 C1278 1.388 . S
C1277 C1276 1.366 . S
C1277 C1281 1.385 . S
C1278 H1259 0.951 . S
C1278 C1276 1.388 . S
C1278 C1279 1.366 . S
C1279 C1278 1.366 . S
C1279 C1280 1.414 . S
C1279 C1282 1.499 . S
C1280 H1260 0.950 . S
C1280 C1279 1.414 . S
C1280 C1281 1.374 . S
C1281 H1261 0.950 . S
C1281 C1277 1.385 . S
C1281 C1280 1.374 . S
C1282 C1279 1.499 . S
C1282 C1283 1.373 . S
C1282 C1284 1.389 . S
C1283 H1262 0.950 . S
C1283 C1282 1.373 . S
C1283 C1299 1.377 . S
C1284 C1282 1.389 . S
C1284 C1285 1.524 . S
C1284 C1298 1.377 . S
C1285 C1284 1.524 . S
C1285 C1286 1.397 . S
C1285 C1290 1.363 . S
C1286 H1263 0.950 . S
C1286 C1285 1.397 . S
C1286 C1287 1.334 . S
C1287 H1264 0.950 . S
C1287 C1286 1.334 . S
C1287 C1288 1.287 . S
C1288 C1287 1.287 . S
C1288 C1289 1.524 . S
C1288 H1307 0.913 . S
C1289 H1265 0.950 . S
C1289 C1288 1.524 . S
C1289 C1290 1.415 . S
C1290 H1266 0.950 . S
C1290 C1285 1.363 . S
C1290 C1289 1.415 . S
C1291 H1267 0.951 . S
C1291 C1292 1.366 . S
C1291 C1293 1.388 . S
C1292 C1291 1.366 . S
C1292 C1296 1.385 . S
C1293 H1268 0.951 . S
C1293 C1291 1.388 . S
C1293 C1294 1.366 . S
C1294 C1293 1.366 . S
C1294 C1295 1.414 . S
C1294 C1297 1.499 . S
C1295 H1269 0.950 . S
C1295 C1294 1.414 . S
C1295 C1296 1.374 . S
C1296 H1270 0.950 . S
C1296 C1292 1.385 . S
C1296 C1295 1.374 . S
C1297 C1294 1.499 . S
C1297 C1298 1.373 . S
C1297 C1299 1.389 . S
C1298 H1271 0.950 . S
C1298 C1284 1.377 . S
C1298 C1297 1.373 . S
C1299 C1283 1.377 . S
C1299 C1297 1.389 . S
C1299 C1300 1.524 . S
C1300 C1299 1.524 . S
C1300 C1301 1.397 . S
C1300 C1305 1.363 . S
C1301 H1272 0.950 . S
C1301 C1300 1.397 . S
C1301 C1302 1.334 . S
C1302 H1273 0.950 . S
C1302 C1301 1.334 . S
C1302 C1303 1.287 . S
C1303 C1302 1.287 . S
C1303 C1304 1.524 . S
C1303 H1306 0.999 . S
C1304 H1274 0.950 . S
C1304 C1303 1.524 . S
C1304 C1305 1.415 . S
C1305 H1275 0.950 . S
C1305 C1300 1.363 . S
C1305 C1304 1.415 . S
H1306 C1303 0.999 . S
H1307 C1288 0.913 . S
H1308 C1326 0.951 . S
H1309 C1328 0.951 . S
H1310 C1330 0.950 . S
H1311 C1331 0.950 . S
H1312 C1333 0.936 1_554 S
H1313 C1336 0.950 1_554 S
H1314 C1337 0.950 1_554 S
H1315 C1339 0.950 . S
H1316 C1340 0.950 . S
H1317 C1341 0.951 . S
H1318 C1343 0.951 . S
H1319 C1345 0.950 . S
H1320 C1346 0.950 . S
H1321 C1348 0.950 . S
H1322 C1351 0.950 . S
H1323 C1352 0.950 . S
H1324 C1354 0.950 . S
H1325 C1355 0.950 . S
C1326 H1308 0.951 . S
C1326 C1327 1.366 . S
C1326 C1328 1.388 . S
C1327 C1326 1.366 . S
C1327 C1331 1.385 1_556 S
C1328 H1309 0.951 . S
C1328 C1326 1.388 . S
C1328 C1329 1.366 . S
C1329 C1328 1.366 . S
C1329 C1330 1.414 1_556 S
C1329 C1332 1.499 . S
C1330 H1310 0.950 . S
C1330 C1329 1.414 1_554 S
C1330 C1331 1.374 . S
C1331 H1311 0.950 . S
C1331 C1327 1.385 1_554 S
C1331 C1330 1.374 . S
C1332 C1329 1.499 . S
C1332 C1333 1.395 . S
C1332 C1334 1.389 . S
C1333 H1312 0.936 1_556 S
C1333 C1332 1.395 . S
C1333 C1349 1.378 . S
C1334 C1332 1.389 . S
C1334 C1335 1.524 . S
C1334 C1348 1.377 . S
C1335 C1334 1.524 . S
C1335 C1336 1.397 . S
C1335 C1340 1.363 . S
C1336 H1313 0.950 1_556 S
C1336 C1335 1.397 . S
C1336 C1337 1.334 . S
C1337 H1314 0.950 1_556 S
C1337 C1336 1.334 . S
C1337 C1338 1.287 . S
C1338 C1337 1.287 . S
C1338 C1339 1.524 . S
C1338 H1357 0.913 . S
C1339 H1315 0.950 . S
C1339 C1338 1.524 . S
C1339 C1340 1.415 . S
C1340 H1316 0.950 . S
C1340 C1335 1.363 . S
C1340 C1339 1.415 . S
C1341 H1317 0.951 . S
C1341 C1342 1.366 1_554 S
C1341 C1343 1.388 . S
C1342 C1341 1.366 1_556 S
C1342 C1346 1.385 . S
C1343 H1318 0.951 . S
C1343 C1341 1.388 . S
C1343 C1344 1.366 1_554 S
C1344 C1343 1.366 1_556 S
C1344 C1345 1.414 . S
C1344 C1347 1.499 . S
C1345 H1319 0.950 . S
C1345 C1344 1.414 . S
C1345 C1346 1.374 . S
C1346 H1320 0.950 . S
C1346 C1342 1.385 . S
C1346 C1345 1.374 . S
C1347 C1344 1.499 . S
C1347 C1348 1.373 . S
C1347 C1349 1.412 . S
C1348 H1321 0.950 . S
C1348 C1334 1.377 . S
C1348 C1347 1.373 . S
C1349 C1333 1.378 . S
C1349 C1347 1.412 . S
C1349 C1350 1.505 1_556 S
C1350 C1349 1.505 1_554 S
C1350 C1351 1.397 1_554 S
C1350 C1355 1.363 . S
C1351 H1322 0.950 . S
C1351 C1350 1.397 1_556 S
C1351 C1352 1.334 . S
C1352 H1323 0.950 . S
C1352 C1351 1.334 . S
C1352 C1353 1.287 1_556 S
C1353 C1352 1.287 1_554 S
C1353 C1354 1.524 . S
C1353 H1356 0.999 . S
C1354 H1324 0.950 . S
C1354 C1353 1.524 . S
C1354 C1355 1.415 . S
C1355 H1325 0.950 . S
C1355 C1350 1.363 . S
C1355 C1354 1.415 . S
H1356 C1353 0.999 . S
H1357 C1338 0.913 . S
H1358 C1376 0.951 . S
H1359 C1378 0.951 . S
H1360 C1380 0.950 . S
H1361 C1381 0.950 . S
H1362 C1383 0.950 . S
H1363 C1386 0.950 . S
H1364 C1387 0.950 . S
H1365 C1389 0.950 . S
H1366 C1390 0.950 . S
H1367 C1391 0.951 . S
H1368 C1393 0.951 . S
H1369 C1395 0.950 . S
H1370 C1396 0.950 . S
H1371 C1398 0.950 . S
H1372 C1401 0.950 . S
H1373 C1402 0.950 . S
H1374 C1404 0.950 . S
H1375 C1405 0.950 . S
C1376 H1358 0.951 . S
C1376 C1377 1.366 . S
C1376 C1378 1.388 . S
C1377 C1376 1.366 . S
C1377 C1381 1.385 . S
C1378 H1359 0.951 . S
C1378 C1376 1.388 . S
C1378 C1379 1.366 . S
C1379 C1378 1.366 . S
C1379 C1380 1.414 . S
C1379 C1382 1.499 . S
C1380 H1360 0.950 . S
C1380 C1379 1.414 . S
C1380 C1381 1.374 . S
C1381 H1361 0.950 . S
C1381 C1377 1.385 . S
C1381 C1380 1.374 . S
C1382 C1379 1.499 . S
C1382 C1383 1.373 . S
C1382 C1384 1.389 . S
C1383 H1362 0.950 . S
C1383 C1382 1.373 . S
C1383 C1399 1.377 . S
C1384 C1382 1.389 . S
C1384 C1385 1.524 . S
C1384 C1398 1.377 . S
C1385 C1384 1.524 . S
C1385 C1386 1.397 . S
C1385 C1390 1.363 . S
C1386 H1363 0.950 . S
C1386 C1385 1.397 . S
C1386 C1387 1.334 . S
C1387 H1364 0.950 . S
C1387 C1386 1.334 . S
C1387 C1388 1.287 . S
C1388 C1387 1.287 . S
C1388 C1389 1.524 . S
C1388 H1407 0.913 . S
C1389 H1365 0.950 . S
C1389 C1388 1.524 . S
C1389 C1390 1.415 . S
C1390 H1366 0.950 . S
C1390 C1385 1.363 . S
C1390 C1389 1.415 . S
C1391 H1367 0.951 . S
C1391 C1392 1.366 . S
C1391 C1393 1.388 . S
C1392 C1391 1.366 . S
C1392 C1396 1.385 . S
C1393 H1368 0.951 . S
C1393 C1391 1.388 . S
C1393 C1394 1.366 . S
C1394 C1393 1.366 . S
C1394 C1395 1.414 . S
C1394 C1397 1.499 . S
C1395 H1369 0.950 . S
C1395 C1394 1.414 . S
C1395 C1396 1.374 . S
C1396 H1370 0.950 . S
C1396 C1392 1.385 . S
C1396 C1395 1.374 . S
C1397 C1394 1.499 . S
C1397 C1398 1.373 . S
C1397 C1399 1.389 . S
C1398 H1371 0.950 . S
C1398 C1384 1.377 . S
C1398 C1397 1.373 . S
C1399 C1383 1.377 . S
C1399 C1397 1.389 . S
C1399 C1400 1.524 . S
C1400 C1399 1.524 . S
C1400 C1401 1.397 . S
C1400 C1405 1.363 . S
C1401 H1372 0.950 . S
C1401 C1400 1.397 . S
C1401 C1402 1.334 . S
C1402 H1373 0.950 . S
C1402 C1401 1.334 . S
C1402 C1403 1.287 . S
C1403 C1402 1.287 . S
C1403 C1404 1.524 . S
C1403 H1406 0.999 . S
C1404 H1374 0.950 . S
C1404 C1403 1.524 . S
C1404 C1405 1.415 . S
C1405 H1375 0.950 . S
C1405 C1400 1.363 . S
C1405 C1404 1.415 . S
H1406 C1403 0.999 . S
H1407 C1388 0.913 . S
H1408 C1426 0.951 . S
H1409 C1428 0.951 . S
H1410 C1430 0.950 . S
H1411 C1431 0.950 . S
H1412 C1433 0.950 . S
H1413 C1436 0.950 . S
H1414 C1437 0.950 . S
H1415 C1439 0.950 1_545 S
H1416 C1440 0.950 . S
H1417 C1441 0.951 . S
H1418 C1443 0.951 . S
H1419 C1445 0.950 . S
H1420 C1446 0.950 . S
H1421 C1448 0.950 . S
H1422 C1451 0.950 . S
H1423 C1452 0.950 . S
H1424 C1454 0.950 . S
H1425 C1455 0.950 . S
C1426 H1408 0.951 . S
C1426 C1427 1.366 . S
C1426 C1428 1.388 . S
C1427 C1426 1.366 . S
C1427 C1431 1.385 . S
C1428 H1409 0.951 . S
C1428 C1426 1.388 . S
C1428 C1429 1.366 . S
C1429 C1428 1.366 . S
C1429 C1430 1.414 . S
C1429 C1432 1.499 . S
C1430 H1410 0.950 . S
C1430 C1429 1.414 . S
C1430 C1431 1.374 . S
C1431 H1411 0.950 . S
C1431 C1427 1.385 . S
C1431 C1430 1.374 . S
C1432 C1429 1.499 . S
C1432 C1433 1.373 . S
C1432 C1434 1.389 . S
C1433 H1412 0.950 . S
C1433 C1432 1.373 . S
C1433 C1449 1.377 . S
C1434 C1432 1.389 . S
C1434 C1435 1.524 . S
C1434 C1448 1.377 . S
C1435 C1434 1.524 . S
C1435 C1436 1.397 . S
C1435 C1440 1.363 . S
C1436 H1413 0.950 . S
C1436 C1435 1.397 . S
C1436 C1437 1.334 . S
C1437 H1414 0.950 . S
C1437 C1436 1.334 . S
C1437 C1438 1.287 . S
C1438 C1437 1.287 . S
C1438 C1439 1.524 . S
C1438 H1457 0.913 . S
C1439 H1415 0.950 1_565 S
C1439 C1438 1.524 . S
C1439 C1440 1.415 . S
C1440 H1416 0.950 . S
C1440 C1435 1.363 . S
C1440 C1439 1.415 . S
C1441 H1417 0.951 . S
C1441 C1442 1.366 . S
C1441 C1443 1.388 . S
C1442 C1441 1.366 . S
C1442 C1446 1.385 . S
C1443 H1418 0.951 . S
C1443 C1441 1.388 . S
C1443 C1444 1.366 . S
C1444 C1443 1.366 . S
C1444 C1445 1.414 . S
C1444 C1447 1.499 . S
C1445 H1419 0.950 . S
C1445 C1444 1.414 . S
C1445 C1446 1.374 . S
C1446 H1420 0.950 . S
C1446 C1442 1.385 . S
C1446 C1445 1.374 . S
C1447 C1444 1.499 . S
C1447 C1448 1.373 . S
C1447 C1449 1.389 . S
C1448 H1421 0.950 . S
C1448 C1434 1.377 . S
C1448 C1447 1.373 . S
C1449 C1433 1.377 . S
C1449 C1447 1.389 . S
C1449 C1450 1.524 . S
C1450 C1449 1.524 . S
C1450 C1451 1.397 . S
C1450 C1455 1.363 . S
C1451 H1422 0.950 . S
C1451 C1450 1.397 . S
C1451 C1452 1.334 . S
C1452 H1423 0.950 . S
C1452 C1451 1.334 . S
C1452 C1453 1.287 . S
C1453 C1452 1.287 . S
C1453 C1454 1.524 . S
C1453 H1456 0.999 . S
C1454 H1424 0.950 . S
C1454 C1453 1.524 . S
C1454 C1455 1.415 . S
C1455 H1425 0.950 . S
C1455 C1450 1.363 . S
C1455 C1454 1.415 . S
H1456 C1453 0.999 . S
H1457 C1438 0.913 . S
H1458 C1476 0.951 . S
H1459 C1478 0.951 . S
H1460 C1480 0.950 . S
H1461 C1481 0.950 . S
H1462 C1483 0.950 . S
H1463 C1486 0.950 . S
H1464 C1487 0.950 . S
H1465 C1489 0.950 . S
H1466 C1490 0.950 . S
H1467 C1491 0.951 . S
H1468 C1493 0.951 . S
H1469 C1495 0.950 . S
H1470 C1496 0.950 . S
H1471 C1498 0.950 . S
H1472 C1501 0.950 . S
H1473 C1502 0.950 . S
H1474 C1504 0.950 . S
H1475 C1505 0.950 . S
C1476 H1458 0.951 . S
C1476 C1477 1.366 . S
C1476 C1478 1.388 . S
C1477 C1476 1.366 . S
C1477 C1481 1.385 . S
C1478 H1459 0.951 . S
C1478 C1476 1.388 . S
C1478 C1479 1.366 . S
C1479 C1478 1.366 . S
C1479 C1480 1.414 . S
C1479 C1482 1.499 . S
C1480 H1460 0.950 . S
C1480 C1479 1.414 . S
C1480 C1481 1.374 . S
C1481 H1461 0.950 . S
C1481 C1477 1.385 . S
C1481 C1480 1.374 . S
C1482 C1479 1.499 . S
C1482 C1483 1.373 . S
C1482 C1484 1.389 . S
C1483 H1462 0.950 . S
C1483 C1482 1.373 . S
C1483 C1499 1.377 . S
C1484 C1482 1.389 . S
C1484 C1485 1.524 . S
C1484 C1498 1.377 . S
C1485 C1484 1.524 . S
C1485 C1486 1.397 . S
C1485 C1490 1.363 . S
C1486 H1463 0.950 . S
C1486 C1485 1.397 . S
C1486 C1487 1.334 . S
C1487 H1464 0.950 . S
C1487 C1486 1.334 . S
C1487 C1488 1.287 . S
C1488 C1487 1.287 . S
C1488 C1489 1.524 . S
C1488 H1507 0.913 . S
C1489 H1465 0.950 . S
C1489 C1488 1.524 . S
C1489 C1490 1.415 . S
C1490 H1466 0.950 . S
C1490 C1485 1.363 . S
C1490 C1489 1.415 . S
C1491 H1467 0.951 . S
C1491 C1492 1.366 . S
C1491 C1493 1.388 . S
C1492 C1491 1.366 . S
C1492 C1496 1.385 . S
C1493 H1468 0.951 . S
C1493 C1491 1.388 . S
C1493 C1494 1.366 . S
C1494 C1493 1.366 . S
C1494 C1495 1.414 . S
C1494 C1497 1.499 . S
C1495 H1469 0.950 . S
C1495 C1494 1.414 . S
C1495 C1496 1.374 . S
C1496 H1470 0.950 . S
C1496 C1492 1.385 . S
C1496 C1495 1.374 . S
C1497 C1494 1.499 . S
C1497 C1498 1.373 . S
C1497 C1499 1.389 . S
C1498 H1471 0.950 . S
C1498 C1484 1.377 . S
C1498 C1497 1.373 . S
C1499 C1483 1.377 . S
C1499 C1497 1.389 . S
C1499 C1500 1.524 . S
C1500 C1499 1.524 . S
C1500 C1501 1.397 . S
C1500 C1505 1.363 . S
C1501 H1472 0.950 . S
C1501 C1500 1.397 . S
C1501 C1502 1.334 . S
C1502 H1473 0.950 . S
C1502 C1501 1.334 . S
C1502 C1503 1.287 . S
C1503 C1502 1.287 . S
C1503 C1504 1.524 . S
C1503 H1506 0.999 . S
C1504 H1474 0.950 . S
C1504 C1503 1.524 . S
C1504 C1505 1.415 . S
C1505 H1475 0.950 . S
C1505 C1500 1.363 . S
C1505 C1504 1.415 . S
H1506 C1503 0.999 . S
H1507 C1488 0.913 . S
H1508 C1526 0.951 . S
H1509 C1528 0.951 . S
H1510 C1530 0.950 . S
H1511 C1531 0.950 . S
H1512 C1533 0.950 . S
H1513 C1536 0.950 . S
H1514 C1537 0.950 . S
H1515 C1539 0.950 . S
H1516 C1540 0.950 . S
H1517 C1541 0.951 . S
H1518 C1543 0.951 . S
H1519 C1545 0.950 . S
H1520 C1546 0.950 . S
H1521 C1548 0.950 . S
H1522 C1551 0.950 . S
H1523 C1552 0.950 1_554 S
H1524 C1554 0.950 . S
H1525 C1555 0.950 . S
C1526 H1508 0.951 . S
C1526 C1527 1.366 . S
C1526 C1528 1.388 . S
C1527 C1526 1.366 . S
C1527 C1531 1.385 . S
C1528 H1509 0.951 . S
C1528 C1526 1.388 . S
C1528 C1529 1.366 . S
C1529 C1528 1.366 . S
C1529 C1530 1.414 . S
C1529 C1532 1.499 . S
C1530 H1510 0.950 . S
C1530 C1529 1.414 . S
C1530 C1531 1.374 . S
C1531 H1511 0.950 . S
C1531 C1527 1.385 . S
C1531 C1530 1.374 . S
C1532 C1529 1.499 . S
C1532 C1533 1.373 . S
C1532 C1534 1.389 . S
C1533 H1512 0.950 . S
C1533 C1532 1.373 . S
C1533 C1549 1.377 . S
C1534 C1532 1.389 . S
C1534 C1535 1.524 . S
C1534 C1548 1.377 . S
C1535 C1534 1.524 . S
C1535 C1536 1.397 . S
C1535 C1540 1.363 . S
C1536 H1513 0.950 . S
C1536 C1535 1.397 . S
C1536 C1537 1.334 . S
C1537 H1514 0.950 . S
C1537 C1536 1.334 . S
C1537 C1538 1.287 . S
C1538 C1537 1.287 . S
C1538 C1539 1.524 . S
C1538 H1557 0.913 . S
C1539 H1515 0.950 . S
C1539 C1538 1.524 . S
C1539 C1540 1.415 . S
C1540 H1516 0.950 . S
C1540 C1535 1.363 . S
C1540 C1539 1.415 . S
C1541 H1517 0.951 . S
C1541 C1542 1.366 . S
C1541 C1543 1.388 . S
C1542 C1541 1.366 . S
C1542 C1546 1.385 . S
C1543 H1518 0.951 . S
C1543 C1541 1.388 . S
C1543 C1544 1.366 . S
C1544 C1543 1.366 . S
C1544 C1545 1.414 . S
C1544 C1547 1.499 . S
C1545 H1519 0.950 . S
C1545 C1544 1.414 . S
C1545 C1546 1.374 . S
C1546 H1520 0.950 . S
C1546 C1542 1.385 . S
C1546 C1545 1.374 . S
C1547 C1544 1.499 . S
C1547 C1548 1.373 . S
C1547 C1549 1.389 . S
C1548 H1521 0.950 . S
C1548 C1534 1.377 . S
C1548 C1547 1.373 . S
C1549 C1533 1.377 . S
C1549 C1547 1.389 . S
C1549 C1550 1.524 . S
C1550 C1549 1.524 . S
C1550 C1551 1.397 . S
C1550 C1555 1.363 . S
C1551 H1522 0.950 . S
C1551 C1550 1.397 . S
C1551 C1552 1.334 . S
C1552 H1523 0.950 1_556 S
C1552 C1551 1.334 . S
C1552 C1553 1.287 . S
C1553 C1552 1.287 . S
C1553 C1554 1.524 . S
C1553 H1556 0.999 . S
C1554 H1524 0.950 . S
C1554 C1553 1.524 . S
C1554 C1555 1.415 . S
C1555 H1525 0.950 . S
C1555 C1550 1.363 . S
C1555 C1554 1.415 . S
H1556 C1553 0.999 . S
H1557 C1538 0.913 . S
H1558 C1576 0.951 . S
H1559 C1578 0.951 . S
H1560 C1580 0.950 . S
H1561 C1581 0.950 . S
H1562 C1583 0.950 . S
H1563 C1586 0.950 . S
H1564 C1587 0.950 . S
H1565 C1589 0.950 . S
H1566 C1590 0.950 . S
H1567 C1591 0.951 . S
H1568 C1593 0.951 . S
H1569 C1595 0.950 . S
H1570 C1596 0.950 . S
H1571 C1598 0.950 . S
H1572 C1601 0.950 . S
H1573 C1602 0.950 . S
H1574 C1604 0.950 . S
H1575 C1605 0.950 . S
C1576 H1558 0.951 . S
C1576 C1577 1.366 . S
C1576 C1578 1.388 . S
C1577 C1576 1.366 . S
C1577 C1581 1.385 . S
C1578 H1559 0.951 . S
C1578 C1576 1.388 . S
C1578 C1579 1.366 . S
C1579 C1578 1.366 . S
C1579 C1580 1.414 . S
C1579 C1582 1.499 . S
C1580 H1560 0.950 . S
C1580 C1579 1.414 . S
C1580 C1581 1.374 . S
C1581 H1561 0.950 . S
C1581 C1577 1.385 . S
C1581 C1580 1.374 . S
C1582 C1579 1.499 . S
C1582 C1583 1.373 . S
C1582 C1584 1.389 . S
C1583 H1562 0.950 . S
C1583 C1582 1.373 . S
C1583 C1599 1.377 . S
C1584 C1582 1.389 . S
C1584 C1585 1.524 . S
C1584 C1598 1.377 . S
C1585 C1584 1.524 . S
C1585 C1586 1.397 . S
C1585 C1590 1.363 . S
C1586 H1563 0.950 . S
C1586 C1585 1.397 . S
C1586 C1587 1.334 . S
C1587 H1564 0.950 . S
C1587 C1586 1.334 . S
C1587 C1588 1.287 . S
C1588 C1587 1.287 . S
C1588 C1589 1.524 . S
C1588 H1607 0.913 . S
C1589 H1565 0.950 . S
C1589 C1588 1.524 . S
C1589 C1590 1.415 . S
C1590 H1566 0.950 . S
C1590 C1585 1.363 . S
C1590 C1589 1.415 . S
C1591 H1567 0.951 . S
C1591 C1592 1.366 . S
C1591 C1593 1.388 . S
C1592 C1591 1.366 . S
C1592 C1596 1.385 . S
C1593 H1568 0.951 . S
C1593 C1591 1.388 . S
C1593 C1594 1.366 . S
C1594 C1593 1.366 . S
C1594 C1595 1.414 . S
C1594 C1597 1.499 . S
C1595 H1569 0.950 . S
C1595 C1594 1.414 . S
C1595 C1596 1.374 . S
C1596 H1570 0.950 . S
C1596 C1592 1.385 . S
C1596 C1595 1.374 . S
C1597 C1594 1.499 . S
C1597 C1598 1.373 . S
C1597 C1599 1.389 . S
C1598 H1571 0.950 . S
C1598 C1584 1.377 . S
C1598 C1597 1.373 . S
C1599 C1583 1.377 . S
C1599 C1597 1.389 . S
C1599 C1600 1.524 . S
C1600 C1599 1.524 . S
C1600 C1601 1.397 . S
C1600 C1605 1.363 . S
C1601 H1572 0.950 . S
C1601 C1600 1.397 . S
C1601 C1602 1.334 . S
C1602 H1573 0.950 . S
C1602 C1601 1.334 . S
C1602 C1603 1.287 . S
C1603 C1602 1.287 . S
C1603 C1604 1.524 . S
C1603 H1606 0.999 . S
C1604 H1574 0.950 . S
C1604 C1603 1.524 . S
C1604 C1605 1.415 . S
C1605 H1575 0.950 . S
C1605 C1600 1.363 . S
C1605 C1604 1.415 . S
H1606 C1603 0.999 . S
H1607 C1588 0.913 . S
H1608 C1626 0.951 . S
H1609 C1628 0.951 . S
H1610 C1630 0.950 . S
H1611 C1631 0.950 . S
H1612 C1633 0.950 . S
H1613 C1636 0.950 . S
H1614 C1637 0.950 . S
H1615 C1639 0.950 . S
H1616 C1640 0.950 . S
H1617 C1641 0.951 . S
H1618 C1643 0.951 . S
H1619 C1645 0.950 . S
H1620 C1646 0.950 . S
H1621 C1648 0.950 . S
H1622 C1651 0.950 . S
H1623 C1652 0.950 . S
H1624 C1654 0.950 . S
H1625 C1655 0.950 . S
C1626 H1608 0.951 . S
C1626 C1627 1.366 . S
C1626 C1628 1.388 . S
C1627 C1626 1.366 . S
C1627 C1631 1.385 . S
C1628 H1609 0.951 . S
C1628 C1626 1.388 . S
C1628 C1629 1.366 . S
C1629 C1628 1.366 . S
C1629 C1630 1.414 . S
C1629 C1632 1.499 . S
C1630 H1610 0.950 . S
C1630 C1629 1.414 . S
C1630 C1631 1.374 . S
C1631 H1611 0.950 . S
C1631 C1627 1.385 . S
C1631 C1630 1.374 . S
C1632 C1629 1.499 . S
C1632 C1633 1.373 . S
C1632 C1634 1.389 . S
C1633 H1612 0.950 . S
C1633 C1632 1.373 . S
C1633 C1649 1.377 . S
C1634 C1632 1.389 . S
C1634 C1635 1.524 . S
C1634 C1648 1.377 . S
C1635 C1634 1.524 . S
C1635 C1636 1.397 . S
C1635 C1640 1.363 . S
C1636 H1613 0.950 . S
C1636 C1635 1.397 . S
C1636 C1637 1.334 . S
C1637 H1614 0.950 . S
C1637 C1636 1.334 . S
C1637 C1638 1.287 . S
C1638 C1637 1.287 . S
C1638 C1639 1.524 . S
C1638 H1657 0.913 . S
C1639 H1615 0.950 . S
C1639 C1638 1.524 . S
C1639 C1640 1.415 . S
C1640 H1616 0.950 . S
C1640 C1635 1.363 . S
C1640 C1639 1.415 . S
C1641 H1617 0.951 . S
C1641 C1642 1.366 . S
C1641 C1643 1.388 . S
C1642 C1641 1.366 . S
C1642 C1646 1.385 . S
C1643 H1618 0.951 . S
C1643 C1641 1.388 . S
C1643 C1644 1.366 . S
C1644 C1643 1.366 . S
C1644 C1645 1.414 . S
C1644 C1647 1.499 . S
C1645 H1619 0.950 . S
C1645 C1644 1.414 . S
C1645 C1646 1.374 . S
C1646 H1620 0.950 . S
C1646 C1642 1.385 . S
C1646 C1645 1.374 . S
C1647 C1644 1.499 . S
C1647 C1648 1.373 . S
C1647 C1649 1.389 . S
C1648 H1621 0.950 . S
C1648 C1634 1.377 . S
C1648 C1647 1.373 . S
C1649 C1633 1.377 . S
C1649 C1647 1.389 . S
C1649 C1650 1.524 . S
C1650 C1649 1.524 . S
C1650 C1651 1.397 . S
C1650 C1655 1.363 . S
C1651 H1622 0.950 . S
C1651 C1650 1.397 . S
C1651 C1652 1.334 . S
C1652 H1623 0.950 . S
C1652 C1651 1.334 . S
C1652 C1653 1.287 . S
C1653 C1652 1.287 . S
C1653 C1654 1.524 . S
C1653 H1656 0.999 . S
C1654 H1624 0.950 . S
C1654 C1653 1.524 . S
C1654 C1655 1.415 . S
C1655 H1625 0.950 . S
C1655 C1650 1.363 . S
C1655 C1654 1.415 . S
H1656 C1653 0.999 . S
H1657 C1638 0.913 . S
H1658 C1676 0.951 . S
H1659 C1678 0.951 . S
H1660 C1680 0.950 . S
H1661 C1681 0.950 . S
H1662 C1683 0.950 . S
H1663 C1686 0.950 . S
H1664 C1687 0.950 . S
H1665 C1689 0.950 . S
H1666 C1690 0.950 . S
H1667 C1691 0.951 . S
H1668 C1693 0.951 . S
H1669 C1695 0.950 . S
H1670 C1696 0.950 . S
H1671 C1698 0.950 . S
H1672 C1701 0.950 . S
H1673 C1702 0.950 . S
H1674 C1704 0.950 . S
H1675 C1705 0.950 . S
C1676 H1658 0.951 . S
C1676 C1677 1.366 . S
C1676 C1678 1.388 . S
C1677 C1676 1.366 . S
C1677 C1681 1.385 . S
C1678 H1659 0.951 . S
C1678 C1676 1.388 . S
C1678 C1679 1.366 . S
C1679 C1678 1.366 . S
C1679 C1680 1.414 . S
C1679 C1682 1.499 . S
C1680 H1660 0.950 . S
C1680 C1679 1.414 . S
C1680 C1681 1.374 . S
C1681 H1661 0.950 . S
C1681 C1677 1.385 . S
C1681 C1680 1.374 . S
C1682 C1679 1.499 . S
C1682 C1683 1.373 . S
C1682 C1684 1.389 . S
C1683 H1662 0.950 . S
C1683 C1682 1.373 . S
C1683 C1699 1.377 . S
C1684 C1682 1.389 . S
C1684 C1685 1.524 . S
C1684 C1698 1.377 . S
C1685 C1684 1.524 . S
C1685 C1686 1.397 . S
C1685 C1690 1.363 . S
C1686 H1663 0.950 . S
C1686 C1685 1.397 . S
C1686 C1687 1.334 . S
C1687 H1664 0.950 . S
C1687 C1686 1.334 . S
C1687 C1688 1.287 . S
C1688 C1687 1.287 . S
C1688 C1689 1.524 . S
C1688 H1707 0.913 . S
C1689 H1665 0.950 . S
C1689 C1688 1.524 . S
C1689 C1690 1.415 . S
C1690 H1666 0.950 . S
C1690 C1685 1.363 . S
C1690 C1689 1.415 . S
C1691 H1667 0.951 . S
C1691 C1692 1.366 . S
C1691 C1693 1.388 . S
C1692 C1691 1.366 . S
C1692 C1696 1.385 . S
C1693 H1668 0.951 . S
C1693 C1691 1.388 . S
C1693 C1694 1.366 . S
C1694 C1693 1.366 . S
C1694 C1695 1.414 . S
C1694 C1697 1.499 . S
C1695 H1669 0.950 . S
C1695 C1694 1.414 . S
C1695 C1696 1.374 . S
C1696 H1670 0.950 . S
C1696 C1692 1.385 . S
C1696 C1695 1.374 . S
C1697 C1694 1.499 . S
C1697 C1698 1.373 . S
C1697 C1699 1.389 . S
C1698 H1671 0.950 . S
C1698 C1684 1.377 . S
C1698 C1697 1.373 . S
C1699 C1683 1.377 . S
C1699 C1697 1.389 . S
C1699 C1700 1.524 . S
C1700 C1699 1.524 . S
C1700 C1701 1.397 . S
C1700 C1705 1.363 . S
C1701 H1672 0.950 . S
C1701 C1700 1.397 . S
C1701 C1702 1.334 . S
C1702 H1673 0.950 . S
C1702 C1701 1.334 . S
C1702 C1703 1.287 . S
C1703 C1702 1.287 . S
C1703 C1704 1.524 . S
C1703 H1706 0.999 . S
C1704 H1674 0.950 . S
C1704 C1703 1.524 . S
C1704 C1705 1.415 . S
C1705 H1675 0.950 . S
C1705 C1700 1.363 . S
C1705 C1704 1.415 . S
H1706 C1703 0.999 . S
H1707 C1688 0.913 . S
H1708 C1726 0.951 . S
H1709 C1728 0.951 . S
H1710 C1730 0.950 . S
H1711 C1731 0.950 . S
H1712 C1733 0.950 . S
H1713 C1736 0.950 . S
H1714 C1737 0.950 . S
H1715 C1739 0.950 . S
H1716 C1740 0.950 . S
H1717 C1741 0.951 . S
H1718 C1743 0.951 . S
H1719 C1745 0.950 . S
H1720 C1746 0.950 . S
H1721 C1748 0.950 . S
H1722 C1751 0.950 . S
H1723 C1752 0.950 . S
H1724 C1754 0.950 . S
H1725 C1755 0.950 . S
C1726 H1708 0.951 . S
C1726 C1727 1.366 . S
C1726 C1728 1.388 . S
C1727 C1726 1.366 . S
C1727 C1731 1.385 . S
C1728 H1709 0.951 . S
C1728 C1726 1.388 . S
C1728 C1729 1.366 . S
C1729 C1728 1.366 . S
C1729 C1730 1.414 . S
C1729 C1732 1.499 . S
C1730 H1710 0.950 . S
C1730 C1729 1.414 . S
C1730 C1731 1.374 . S
C1731 H1711 0.950 . S
C1731 C1727 1.385 . S
C1731 C1730 1.374 . S
C1732 C1729 1.499 . S
C1732 C1733 1.373 . S
C1732 C1734 1.389 . S
C1733 H1712 0.950 . S
C1733 C1732 1.373 . S
C1733 C1749 1.377 . S
C1734 C1732 1.389 . S
C1734 C1735 1.524 . S
C1734 C1748 1.377 . S
C1735 C1734 1.524 . S
C1735 C1736 1.397 . S
C1735 C1740 1.363 . S
C1736 H1713 0.950 . S
C1736 C1735 1.397 . S
C1736 C1737 1.334 . S
C1737 H1714 0.950 . S
C1737 C1736 1.334 . S
C1737 C1738 1.287 . S
C1738 C1737 1.287 . S
C1738 C1739 1.524 . S
C1738 H1757 0.913 . S
C1739 H1715 0.950 . S
C1739 C1738 1.524 . S
C1739 C1740 1.415 . S
C1740 H1716 0.950 . S
C1740 C1735 1.363 . S
C1740 C1739 1.415 . S
C1741 H1717 0.951 . S
C1741 C1742 1.366 . S
C1741 C1743 1.388 . S
C1742 C1741 1.366 . S
C1742 C1746 1.385 . S
C1743 H1718 0.951 . S
C1743 C1741 1.388 . S
C1743 C1744 1.366 . S
C1744 C1743 1.366 . S
C1744 C1745 1.414 . S
C1744 C1747 1.499 . S
C1745 H1719 0.950 . S
C1745 C1744 1.414 . S
C1745 C1746 1.374 . S
C1746 H1720 0.950 . S
C1746 C1742 1.385 . S
C1746 C1745 1.374 . S
C1747 C1744 1.499 . S
C1747 C1748 1.373 . S
C1747 C1749 1.389 . S
C1748 H1721 0.950 . S
C1748 C1734 1.377 . S
C1748 C1747 1.373 . S
C1749 C1733 1.377 . S
C1749 C1747 1.389 . S
C1749 C1750 1.524 . S
C1750 C1749 1.524 . S
C1750 C1751 1.397 . S
C1750 C1755 1.363 . S
C1751 H1722 0.950 . S
C1751 C1750 1.397 . S
C1751 C1752 1.334 . S
C1752 H1723 0.950 . S
C1752 C1751 1.334 . S
C1752 C1753 1.287 . S
C1753 C1752 1.287 . S
C1753 C1754 1.524 . S
C1753 H1756 0.999 . S
C1754 H1724 0.950 . S
C1754 C1753 1.524 . S
C1754 C1755 1.415 . S
C1755 H1725 0.950 . S
C1755 C1750 1.363 . S
C1755 C1754 1.415 . S
H1756 C1753 0.999 . S
H1757 C1738 0.913 . S
H1758 C1776 0.951 . S
H1759 C1778 0.951 1_565 S
H1760 C1780 0.950 . S
H1761 C1781 0.950 . S
H1762 C1783 0.950 . S
H1763 C1786 0.950 . S
H1764 C1787 0.950 . S
H1765 C1789 0.950 . S
H1766 C1790 0.950 . S
H1767 C1791 0.951 . S
H1768 C1793 0.951 . S
H1769 C1795 0.950 . S
H1770 C1796 0.950 . S
H1771 C1798 0.950 . S
H1772 C1801 0.930 1_565 S
H1773 C1802 0.950 . S
H1774 C1804 0.950 . S
H1775 C1805 0.950 . S
C1776 H1758 0.951 . S
C1776 C1777 1.366 . S
C1776 C1778 1.388 . S
C1777 C1776 1.366 . S
C1777 C1781 1.385 . S
C1778 H1759 0.951 1_545 S
C1778 C1776 1.388 . S
C1778 C1779 1.366 . S
C1779 C1778 1.366 . S
C1779 C1780 1.414 . S
C1779 C1782 1.499 1_545 S
C1780 H1760 0.950 . S
C1780 C1779 1.414 . S
C1780 C1781 1.374 . S
C1781 H1761 0.950 . S
C1781 C1777 1.385 . S
C1781 C1780 1.374 . S
C1782 C1779 1.499 1_565 S
C1782 C1783 1.373 1_565 S
C1782 C1784 1.389 . S
C1783 H1762 0.950 . S
C1783 C1782 1.373 1_545 S
C1783 C1799 1.377 1_545 S
C1784 C1782 1.389 . S
C1784 C1785 1.524 . S
C1784 C1798 1.377 . S
C1785 C1784 1.524 . S
C1785 C1786 1.397 . S
C1785 C1790 1.363 . S
C1786 H1763 0.950 . S
C1786 C1785 1.397 . S
C1786 C1787 1.334 . S
C1787 H1764 0.950 . S
C1787 C1786 1.334 . S
C1787 C1788 1.287 . S
C1788 C1787 1.287 . S
C1788 C1789 1.524 . S
C1788 H1807 0.913 . S
C1789 H1765 0.950 . S
C1789 C1788 1.524 . S
C1789 C1790 1.415 . S
C1790 H1766 0.950 . S
C1790 C1785 1.363 . S
C1790 C1789 1.415 . S
C1791 H1767 0.951 . S
C1791 C1792 1.366 . S
C1791 C1793 1.388 . S
C1792 C1791 1.366 . S
C1792 C1796 1.385 . S
C1793 H1768 0.951 . S
C1793 C1791 1.388 . S
C1793 C1794 1.366 . S
C1794 C1793 1.366 . S
C1794 C1795 1.414 . S
C1794 C1797 1.499 . S
C1795 H1769 0.950 . S
C1795 C1794 1.414 . S
C1795 C1796 1.374 . S
C1796 H1770 0.950 . S
C1796 C1792 1.385 . S
C1796 C1795 1.374 . S
C1797 C1794 1.499 . S
C1797 C1798 1.373 . S
C1797 C1799 1.389 . S
C1798 H1771 0.950 . S
C1798 C1784 1.377 . S
C1798 C1797 1.373 . S
C1799 C1783 1.377 1_565 S
C1799 C1797 1.389 . S
C1799 C1800 1.524 1_565 S
C1800 C1799 1.524 1_545 S
C1800 C1801 1.402 . S
C1800 C1805 1.363 . S
C1801 H1772 0.930 1_545 S
C1801 C1800 1.402 . S
C1801 C1802 1.348 . S
C1802 H1773 0.950 . S
C1802 C1801 1.348 . S
C1802 C1803 1.287 . S
C1803 C1802 1.287 . S
C1803 C1804 1.524 . S
C1803 H1806 0.999 . S
C1804 H1774 0.950 . S
C1804 C1803 1.524 . S
C1804 C1805 1.415 . S
C1805 H1775 0.950 . S
C1805 C1800 1.363 . S
C1805 C1804 1.415 . S
H1806 C1803 0.999 . S
H1807 C1788 0.913 . S
H1808 C1826 0.951 . S
H1809 C1828 0.951 . S
H1810 C1830 0.950 . S
H1811 C1831 0.950 . S
H1812 C1833 0.950 . S
H1813 C1836 0.950 . S
H1814 C1837 0.950 . S
H1815 C1839 0.950 . S
H1816 C1840 0.950 . S
H1817 C1841 0.951 . S
H1818 C1843 0.951 . S
H1819 C1845 0.950 . S
H1820 C1846 0.950 . S
H1821 C1848 0.950 . S
H1822 C1851 0.950 . S
H1823 C1852 0.950 . S
H1824 C1854 0.950 . S
H1825 C1855 0.950 . S
C1826 H1808 0.951 . S
C1826 C1827 1.366 . S
C1826 C1828 1.388 . S
C1827 C1826 1.366 . S
C1827 C1831 1.385 . S
C1828 H1809 0.951 . S
C1828 C1826 1.388 . S
C1828 C1829 1.366 . S
C1829 C1828 1.366 . S
C1829 C1830 1.414 . S
C1829 C1832 1.499 . S
C1830 H1810 0.950 . S
C1830 C1829 1.414 . S
C1830 C1831 1.374 . S
C1831 H1811 0.950 . S
C1831 C1827 1.385 . S
C1831 C1830 1.374 . S
C1832 C1829 1.499 . S
C1832 C1833 1.373 . S
C1832 C1834 1.389 . S
C1833 H1812 0.950 . S
C1833 C1832 1.373 . S
C1833 C1849 1.377 . S
C1834 C1832 1.389 . S
C1834 C1835 1.524 . S
C1834 C1848 1.377 . S
C1835 C1834 1.524 . S
C1835 C1836 1.397 . S
C1835 C1840 1.363 . S
C1836 H1813 0.950 . S
C1836 C1835 1.397 . S
C1836 C1837 1.334 . S
C1837 H1814 0.950 . S
C1837 C1836 1.334 . S
C1837 C1838 1.287 . S
C1838 C1837 1.287 . S
C1838 C1839 1.524 . S
C1838 H1857 0.913 . S
C1839 H1815 0.950 . S
C1839 C1838 1.524 . S
C1839 C1840 1.415 . S
C1840 H1816 0.950 . S
C1840 C1835 1.363 . S
C1840 C1839 1.415 . S
C1841 H1817 0.951 . S
C1841 C1842 1.366 . S
C1841 C1843 1.388 . S
C1842 C1841 1.366 . S
C1842 C1846 1.385 . S
C1843 H1818 0.951 . S
C1843 C1841 1.388 . S
C1843 C1844 1.366 . S
C1844 C1843 1.366 . S
C1844 C1845 1.414 . S
C1844 C1847 1.499 . S
C1845 H1819 0.950 . S
C1845 C1844 1.414 . S
C1845 C1846 1.374 . S
C1846 H1820 0.950 . S
C1846 C1842 1.385 . S
C1846 C1845 1.374 . S
C1847 C1844 1.499 . S
C1847 C1848 1.373 . S
C1847 C1849 1.389 . S
C1848 H1821 0.950 . S
C1848 C1834 1.377 . S
C1848 C1847 1.373 . S
C1849 C1833 1.377 . S
C1849 C1847 1.389 . S
C1849 C1850 1.524 . S
C1850 C1849 1.524 . S
C1850 C1851 1.397 . S
C1850 C1855 1.363 . S
C1851 H1822 0.950 . S
C1851 C1850 1.397 . S
C1851 C1852 1.334 . S
C1852 H1823 0.950 . S
C1852 C1851 1.334 . S
C1852 C1853 1.287 . S
C1853 C1852 1.287 . S
C1853 C1854 1.524 . S
C1853 H1856 0.999 . S
C1854 H1824 0.950 . S
C1854 C1853 1.524 . S
C1854 C1855 1.415 . S
C1855 H1825 0.950 . S
C1855 C1850 1.363 . S
C1855 C1854 1.415 . S
H1856 C1853 0.999 . S
H1857 C1838 0.913 . S
H1858 C1876 0.951 . S
H1859 C1878 0.951 . S
H1860 C1880 0.950 . S
H1861 C1881 0.950 . S
H1862 C1883 0.950 . S
H1863 C1886 0.950 . S
H1864 C1887 0.950 . S
H1865 C1889 0.950 . S
H1866 C1890 0.950 . S
H1867 C1891 0.951 . S
H1868 C1893 0.951 . S
H1869 C1895 0.950 . S
H1870 C1896 0.950 . S
H1871 C1898 0.950 . S
H1872 C1901 0.950 . S
H1873 C1902 0.950 . S
H1874 C1904 0.950 . S
H1875 C1905 0.950 . S
C1876 H1858 0.951 . S
C1876 C1877 1.366 . S
C1876 C1878 1.388 . S
C1877 C1876 1.366 . S
C1877 C1881 1.385 . S
C1878 H1859 0.951 . S
C1878 C1876 1.388 . S
C1878 C1879 1.366 . S
C1879 C1878 1.366 . S
C1879 C1880 1.414 . S
C1879 C1882 1.499 . S
C1880 H1860 0.950 . S
C1880 C1879 1.414 . S
C1880 C1881 1.374 . S
C1881 H1861 0.950 . S
C1881 C1877 1.385 . S
C1881 C1880 1.374 . S
C1882 C1879 1.499 . S
C1882 C1883 1.373 . S
C1882 C1884 1.389 . S
C1883 H1862 0.950 . S
C1883 C1882 1.373 . S
C1883 C1899 1.377 . S
C1884 C1882 1.389 . S
C1884 C1885 1.524 . S
C1884 C1898 1.377 . S
C1885 C1884 1.524 . S
C1885 C1886 1.397 . S
C1885 C1890 1.363 . S
C1886 H1863 0.950 . S
C1886 C1885 1.397 . S
C1886 C1887 1.334 . S
C1887 H1864 0.950 . S
C1887 C1886 1.334 . S
C1887 C1888 1.287 . S
C1888 C1887 1.287 . S
C1888 C1889 1.524 . S
C1888 H1907 0.913 . S
C1889 H1865 0.950 . S
C1889 C1888 1.524 . S
C1889 C1890 1.415 . S
C1890 H1866 0.950 . S
C1890 C1885 1.363 . S
C1890 C1889 1.415 . S
C1891 H1867 0.951 . S
C1891 C1892 1.366 . S
C1891 C1893 1.388 . S
C1892 C1891 1.366 . S
C1892 C1896 1.385 . S
C1893 H1868 0.951 . S
C1893 C1891 1.388 . S
C1893 C1894 1.366 . S
C1894 C1893 1.366 . S
C1894 C1895 1.414 . S
C1894 C1897 1.499 . S
C1895 H1869 0.950 . S
C1895 C1894 1.414 . S
C1895 C1896 1.374 . S
C1896 H1870 0.950 . S
C1896 C1892 1.385 . S
C1896 C1895 1.374 . S
C1897 C1894 1.499 . S
C1897 C1898 1.373 . S
C1897 C1899 1.389 . S
C1898 H1871 0.950 . S
C1898 C1884 1.377 . S
C1898 C1897 1.373 . S
C1899 C1883 1.377 . S
C1899 C1897 1.389 . S
C1899 C1900 1.524 . S
C1900 C1899 1.524 . S
C1900 C1901 1.397 . S
C1900 C1905 1.363 . S
C1901 H1872 0.950 . S
C1901 C1900 1.397 . S
C1901 C1902 1.334 . S
C1902 H1873 0.950 . S
C1902 C1901 1.334 . S
C1902 C1903 1.287 . S
C1903 C1902 1.287 . S
C1903 C1904 1.524 . S
C1903 H1906 0.999 . S
C1904 H1874 0.950 . S
C1904 C1903 1.524 . S
C1904 C1905 1.415 . S
C1905 H1875 0.950 . S
C1905 C1900 1.363 . S
C1905 C1904 1.415 . S
H1906 C1903 0.999 . S
H1907 C1888 0.913 . S
H1908 C1926 0.951 . S
H1909 C1928 0.951 . S
H1910 C1930 0.950 1_455 S
H1911 C1931 0.950 . S
H1912 C1933 0.950 . S
H1913 C1936 0.950 . S
H1914 C1937 0.950 . S
H1915 C1939 0.950 . S
H1916 C1940 0.950 . S
H1917 C1941 0.951 . S
H1918 C1943 0.951 . S
H1919 C1945 0.950 . S
H1920 C1946 0.950 . S
H1921 C1948 0.950 . S
H1922 C1951 0.950 . S
H1923 C1952 0.950 . S
H1924 C1954 0.950 . S
H1925 C1955 0.950 . S
C1926 H1908 0.951 . S
C1926 C1927 1.366 . S
C1926 C1928 1.388 . S
C1927 C1926 1.366 . S
C1927 C1931 1.385 1_655 S
C1928 H1909 0.951 . S
C1928 C1926 1.388 . S
C1928 C1929 1.366 . S
C1929 C1928 1.366 . S
C1929 C1930 1.414 . S
C1929 C1932 1.499 . S
C1930 H1910 0.950 1_655 S
C1930 C1929 1.414 . S
C1930 C1931 1.374 1_655 S
C1931 H1911 0.950 . S
C1931 C1927 1.385 1_455 S
C1931 C1930 1.374 1_455 S
C1932 C1929 1.499 . S
C1932 C1933 1.373 . S
C1932 C1934 1.389 . S
C1933 H1912 0.950 . S
C1933 C1932 1.373 . S
C1933 C1949 1.377 . S
C1934 C1932 1.389 . S
C1934 C1935 1.524 . S
C1934 C1948 1.377 . S
C1935 C1934 1.524 . S
C1935 C1936 1.397 . S
C1935 C1940 1.363 . S
C1936 H1913 0.950 . S
C1936 C1935 1.397 . S
C1936 C1937 1.334 . S
C1937 H1914 0.950 . S
C1937 C1936 1.334 . S
C1937 C1938 1.287 . S
C1938 C1937 1.287 . S
C1938 C1939 1.524 . S
C1938 H1957 0.913 . S
C1939 H1915 0.950 . S
C1939 C1938 1.524 . S
C1939 C1940 1.415 . S
C1940 H1916 0.950 . S
C1940 C1935 1.363 . S
C1940 C1939 1.415 . S
C1941 H1917 0.951 . S
C1941 C1942 1.366 . S
C1941 C1943 1.388 . S
C1942 C1941 1.366 . S
C1942 C1946 1.385 . S
C1943 H1918 0.951 . S
C1943 C1941 1.388 . S
C1943 C1944 1.366 . S
C1944 C1943 1.366 . S
C1944 C1945 1.414 . S
C1944 C1947 1.499 . S
C1945 H1919 0.950 . S
C1945 C1944 1.414 . S
C1945 C1946 1.374 . S
C1946 H1920 0.950 . S
C1946 C1942 1.385 . S
C1946 C1945 1.374 . S
C1947 C1944 1.499 . S
C1947 C1948 1.373 . S
C1947 C1949 1.389 . S
C1948 H1921 0.950 . S
C1948 C1934 1.377 . S
C1948 C1947 1.373 . S
C1949 C1933 1.377 . S
C1949 C1947 1.389 . S
C1949 C1950 1.524 . S
C1950 C1949 1.524 . S
C1950 C1951 1.397 . S
C1950 C1955 1.363 . S
C1951 H1922 0.950 . S
C1951 C1950 1.397 . S
C1951 C1952 1.334 . S
C1952 H1923 0.950 . S
C1952 C1951 1.334 . S
C1952 C1953 1.287 . S
C1953 C1952 1.287 . S
C1953 C1954 1.524 . S
C1953 H1956 0.999 . S
C1954 H1924 0.950 . S
C1954 C1953 1.524 . S
C1954 C1955 1.415 . S
C1955 H1925 0.950 . S
C1955 C1950 1.363 . S
C1955 C1954 1.415 . S
H1956 C1953 0.999 . S
H1957 C1938 0.913 . S
H1958 C1976 0.951 . S
H1959 C1978 0.951 . S
H1960 C1980 0.950 . S
H1961 C1981 0.950 . S
H1962 C1983 0.950 . S
H1963 C1986 0.950 . S
H1964 C1987 0.950 . S
H1965 C1989 0.950 . S
H1966 C1990 0.950 . S
H1967 C1991 0.951 . S
H1968 C1993 0.951 . S
H1969 C1995 0.950 . S
H1970 C1996 0.950 . S
H1971 C1998 0.950 . S
H1972 C2001 0.950 . S
H1973 C2002 0.950 . S
H1974 C2004 0.950 . S
H1975 C2005 0.950 . S
C1976 H1958 0.951 . S
C1976 C1977 1.366 . S
C1976 C1978 1.388 . S
C1977 C1976 1.366 . S
C1977 C1981 1.385 . S
C1978 H1959 0.951 . S
C1978 C1976 1.388 . S
C1978 C1979 1.366 . S
C1979 C1978 1.366 . S
C1979 C1980 1.414 . S
C1979 C1982 1.499 . S
C1980 H1960 0.950 . S
C1980 C1979 1.414 . S
C1980 C1981 1.374 . S
C1981 H1961 0.950 . S
C1981 C1977 1.385 . S
C1981 C1980 1.374 . S
C1982 C1979 1.499 . S
C1982 C1983 1.373 . S
C1982 C1984 1.389 . S
C1983 H1962 0.950 . S
C1983 C1982 1.373 . S
C1983 C1999 1.377 . S
C1984 C1982 1.389 . S
C1984 C1985 1.524 . S
C1984 C1998 1.377 . S
C1985 C1984 1.524 . S
C1985 C1986 1.397 . S
C1985 C1990 1.363 . S
C1986 H1963 0.950 . S
C1986 C1985 1.397 . S
C1986 C1987 1.334 . S
C1987 H1964 0.950 . S
C1987 C1986 1.334 . S
C1987 C1988 1.287 . S
C1988 C1987 1.287 . S
C1988 C1989 1.524 . S
C1988 H2007 0.913 . S
C1989 H1965 0.950 . S
C1989 C1988 1.524 . S
C1989 C1990 1.415 . S
C1990 H1966 0.950 . S
C1990 C1985 1.363 . S
C1990 C1989 1.415 . S
C1991 H1967 0.951 . S
C1991 C1992 1.366 . S
C1991 C1993 1.388 . S
C1992 C1991 1.366 . S
C1992 C1996 1.385 . S
C1993 H1968 0.951 . S
C1993 C1991 1.388 . S
C1993 C1994 1.366 . S
C1994 C1993 1.366 . S
C1994 C1995 1.414 . S
C1994 C1997 1.499 . S
C1995 H1969 0.950 . S
C1995 C1994 1.414 . S
C1995 C1996 1.374 . S
C1996 H1970 0.950 . S
C1996 C1992 1.385 . S
C1996 C1995 1.374 . S
C1997 C1994 1.499 . S
C1997 C1998 1.373 . S
C1997 C1999 1.389 . S
C1998 H1971 0.950 . S
C1998 C1984 1.377 . S
C1998 C1997 1.373 . S
C1999 C1983 1.377 . S
C1999 C1997 1.389 . S
C1999 C2000 1.524 . S
C2000 C1999 1.524 . S
C2000 C2001 1.397 . S
C2000 C2005 1.363 . S
C2001 H1972 0.950 . S
C2001 C2000 1.397 . S
C2001 C2002 1.334 . S
C2002 H1973 0.950 . S
C2002 C2001 1.334 . S
C2002 C2003 1.287 . S
C2003 C2002 1.287 . S
C2003 C2004 1.524 . S
C2003 H2006 0.999 . S
C2004 H1974 0.950 . S
C2004 C2003 1.524 . S
C2004 C2005 1.415 . S
C2005 H1975 0.950 . S
C2005 C2000 1.363 . S
C2005 C2004 1.415 . S
H2006 C2003 0.999 . S
H2007 C1988 0.913 . S
H2008 C2026 0.951 . S
H2009 C2028 0.951 . S
H2010 C2030 0.950 . S
H2011 C2031 0.950 . S
H2012 C2033 0.950 . S
H2013 C2036 0.950 . S
H2014 C2037 0.950 . S
H2015 C2039 0.950 . S
H2016 C2040 0.950 . S
H2017 C2041 0.951 . S
H2018 C2043 0.951 . S
H2019 C2045 0.950 . S
H2020 C2046 0.950 . S
H2021 C2048 0.950 . S
H2022 C2051 0.950 . S
H2023 C2052 0.950 . S
H2024 C2054 0.950 . S
H2025 C2055 0.950 . S
C2026 H2008 0.951 . S
C2026 C2027 1.366 . S
C2026 C2028 1.388 . S
C2027 C2026 1.366 . S
C2027 C2031 1.385 . S
C2028 H2009 0.951 . S
C2028 C2026 1.388 . S
C2028 C2029 1.366 . S
C2029 C2028 1.366 . S
C2029 C2030 1.414 . S
C2029 C2032 1.499 . S
C2030 H2010 0.950 . S
C2030 C2029 1.414 . S
C2030 C2031 1.374 . S
C2031 H2011 0.950 . S
C2031 C2027 1.385 . S
C2031 C2030 1.374 . S
C2032 C2029 1.499 . S
C2032 C2033 1.373 . S
C2032 C2034 1.389 . S
C2033 H2012 0.950 . S
C2033 C2032 1.373 . S
C2033 C2049 1.377 . S
C2034 C2032 1.389 . S
C2034 C2035 1.524 . S
C2034 C2048 1.377 . S
C2035 C2034 1.524 . S
C2035 C2036 1.397 . S
C2035 C2040 1.363 . S
C2036 H2013 0.950 . S
C2036 C2035 1.397 . S
C2036 C2037 1.334 . S
C2037 H2014 0.950 . S
C2037 C2036 1.334 . S
C2037 C2038 1.287 . S
C2038 C2037 1.287 . S
C2038 C2039 1.524 . S
C2038 H2057 0.913 . S
C2039 H2015 0.950 . S
C2039 C2038 1.524 . S
C2039 C2040 1.415 . S
C2040 H2016 0.950 . S
C2040 C2035 1.363 . S
C2040 C2039 1.415 . S
C2041 H2017 0.951 . S
C2041 C2042 1.366 . S
C2041 C2043 1.388 . S
C2042 C2041 1.366 . S
C2042 C2046 1.385 . S
C2043 H2018 0.951 . S
C2043 C2041 1.388 . S
C2043 C2044 1.366 . S
C2044 C2043 1.366 . S
C2044 C2045 1.414 . S
C2044 C2047 1.499 . S
C2045 H2019 0.950 . S
C2045 C2044 1.414 . S
C2045 C2046 1.374 . S
C2046 H2020 0.950 . S
C2046 C2042 1.385 . S
C2046 C2045 1.374 . S
C2047 C2044 1.499 . S
C2047 C2048 1.373 . S
C2047 C2049 1.389 . S
C2048 H2021 0.950 . S
C2048 C2034 1.377 . S
C2048 C2047 1.373 . S
C2049 C2033 1.377 . S
C2049 C2047 1.389 . S
C2049 C2050 1.524 . S
C2050 C2049 1.524 . S
C2050 C2051 1.397 . S
C2050 C2055 1.363 . S
C2051 H2022 0.950 . S
C2051 C2050 1.397 . S
C2051 C2052 1.334 . S
C2052 H2023 0.950 . S
C2052 C2051 1.334 . S
C2052 C2053 1.287 . S
C2053 C2052 1.287 . S
C2053 C2054 1.524 . S
C2053 H2056 0.999 . S
C2054 H2024 0.950 . S
C2054 C2053 1.524 . S
C2054 C2055 1.415 . S
C2055 H2025 0.950 . S
C2055 C2050 1.363 . S
C2055 C2054 1.415 . S
H2056 C2053 0.999 . S
H2057 C2038 0.913 . S
H2058 C2076 0.951 . S
H2059 C2078 0.951 . S
H2060 C2080 0.961 . S
H2061 C2081 0.950 . S
H2062 C2083 0.985 . S
H2063 C2086 0.950 . S
H2064 C2087 0.950 . S
H2065 C2089 0.950 . S
H2066 C2090 0.950 . S
H2067 C2091 0.951 . S
H2068 C2093 0.951 . S
H2069 C2095 0.950 . S
H2070 C2096 0.950 . S
H2071 C2098 0.950 . S
H2072 C2101 0.950 . S
H2073 C2102 0.950 . S
H2074 C2104 0.950 . S
H2075 C2105 0.952 . S
C2076 H2058 0.951 . S
C2076 C2077 1.366 1_655 S
C2076 C2078 1.388 . S
C2077 C2076 1.366 1_455 S
C2077 C2081 1.385 . S
C2078 H2059 0.951 . S
C2078 C2076 1.388 . S
C2078 C2079 1.366 . S
C2079 C2078 1.366 . S
C2079 C2080 1.377 1_655 S
C2079 C2082 1.499 . S
C2080 H2060 0.961 . S
C2080 C2079 1.377 1_455 S
C2080 C2081 1.403 . S
C2081 H2061 0.950 . S
C2081 C2077 1.385 . S
C2081 C2080 1.403 . S
C2082 C2079 1.499 . S
C2082 C2083 1.373 . S
C2082 C2084 1.389 . S
C2083 H2062 0.985 . S
C2083 C2082 1.373 . S
C2083 C2099 1.377 . S
C2084 C2082 1.389 . S
C2084 C2085 1.524 . S
C2084 C2098 1.377 . S
C2085 C2084 1.524 . S
C2085 C2086 1.397 . S
C2085 C2090 1.363 . S
C2086 H2063 0.950 . S
C2086 C2085 1.397 . S
C2086 C2087 1.334 . S
C2087 H2064 0.950 . S
C2087 C2086 1.334 . S
C2087 C2088 1.287 . S
C2088 C2087 1.287 . S
C2088 C2089 1.524 . S
C2088 H2107 0.913 . S
C2089 H2065 0.950 . S
C2089 C2088 1.524 . S
C2089 C2090 1.415 . S
C2090 H2066 0.950 . S
C2090 C2085 1.363 . S
C2090 C2089 1.415 . S
C2091 H2067 0.951 . S
C2091 C2092 1.366 . S
C2091 C2093 1.388 . S
C2092 C2091 1.366 . S
C2092 C2096 1.385 . S
C2093 H2068 0.951 . S
C2093 C2091 1.388 . S
C2093 C2094 1.366 . S
C2094 C2093 1.366 . S
C2094 C2095 1.414 . S
C2094 C2097 1.499 . S
C2095 H2069 0.950 . S
C2095 C2094 1.414 . S
C2095 C2096 1.374 . S
C2096 H2070 0.950 . S
C2096 C2092 1.385 . S
C2096 C2095 1.374 . S
C2097 C2094 1.499 . S
C2097 C2098 1.373 . S
C2097 C2099 1.389 . S
C2098 H2071 0.950 . S
C2098 C2084 1.377 . S
C2098 C2097 1.373 . S
C2099 C2083 1.377 . S
C2099 C2097 1.389 . S
C2099 C2100 1.524 . S
C2100 C2099 1.524 . S
C2100 C2101 1.397 . S
C2100 C2105 1.337 1_655 S
C2101 H2072 0.950 . S
C2101 C2100 1.397 . S
C2101 C2102 1.334 . S
C2102 H2073 0.950 . S
C2102 C2101 1.334 . S
C2102 C2103 1.287 1_655 S
C2103 C2102 1.287 1_455 S
C2103 C2104 1.524 . S
C2103 H2106 0.999 . S
C2104 H2074 0.950 . S
C2104 C2103 1.524 . S
C2104 C2105 1.441 . S
C2105 H2075 0.952 . S
C2105 C2100 1.337 1_455 S
C2105 C2104 1.441 . S
H2106 C2103 0.999 . S
H2107 C2088 0.913 . S
H2108 C2126 0.951 . S
H2109 C2128 0.951 . S
H2110 C2130 0.950 . S
H2111 C2131 0.950 . S
H2112 C2133 0.950 . S
H2113 C2136 0.950 . S
H2114 C2137 0.950 . S
H2115 C2139 0.950 . S
H2116 C2140 0.950 . S
H2117 C2141 0.951 . S
H2118 C2143 0.951 . S
H2119 C2145 0.950 . S
H2120 C2146 0.950 . S
H2121 C2148 0.950 . S
H2122 C2151 0.950 . S
H2123 C2152 0.950 . S
H2124 C2154 0.950 . S
H2125 C2155 0.950 . S
C2126 H2108 0.951 . S
C2126 C2127 1.366 . S
C2126 C2128 1.388 . S
C2127 C2126 1.366 . S
C2127 C2131 1.385 . S
C2128 H2109 0.951 . S
C2128 C2126 1.388 . S
C2128 C2129 1.366 . S
C2129 C2128 1.366 . S
C2129 C2130 1.414 . S
C2129 C2132 1.499 . S
C2130 H2110 0.950 . S
C2130 C2129 1.414 . S
C2130 C2131 1.374 . S
C2131 H2111 0.950 . S
C2131 C2127 1.385 . S
C2131 C2130 1.374 . S
C2132 C2129 1.499 . S
C2132 C2133 1.373 . S
C2132 C2134 1.389 . S
C2133 H2112 0.950 . S
C2133 C2132 1.373 . S
C2133 C2149 1.377 . S
C2134 C2132 1.389 . S
C2134 C2135 1.524 . S
C2134 C2148 1.377 . S
C2135 C2134 1.524 . S
C2135 C2136 1.397 . S
C2135 C2140 1.363 . S
C2136 H2113 0.950 . S
C2136 C2135 1.397 . S
C2136 C2137 1.334 . S
C2137 H2114 0.950 . S
C2137 C2136 1.334 . S
C2137 C2138 1.287 . S
C2138 C2137 1.287 . S
C2138 C2139 1.524 . S
C2138 H2157 0.913 . S
C2139 H2115 0.950 . S
C2139 C2138 1.524 . S
C2139 C2140 1.415 . S
C2140 H2116 0.950 . S
C2140 C2135 1.363 . S
C2140 C2139 1.415 . S
C2141 H2117 0.951 . S
C2141 C2142 1.366 . S
C2141 C2143 1.388 . S
C2142 C2141 1.366 . S
C2142 C2146 1.385 . S
C2143 H2118 0.951 . S
C2143 C2141 1.388 . S
C2143 C2144 1.366 . S
C2144 C2143 1.366 . S
C2144 C2145 1.414 . S
C2144 C2147 1.499 . S
C2145 H2119 0.950 . S
C2145 C2144 1.414 . S
C2145 C2146 1.374 . S
C2146 H2120 0.950 . S
C2146 C2142 1.385 . S
C2146 C2145 1.374 . S
C2147 C2144 1.499 . S
C2147 C2148 1.373 . S
C2147 C2149 1.389 . S
C2148 H2121 0.950 . S
C2148 C2134 1.377 . S
C2148 C2147 1.373 . S
C2149 C2133 1.377 . S
C2149 C2147 1.389 . S
C2149 C2150 1.524 . S
C2150 C2149 1.524 . S
C2150 C2151 1.397 . S
C2150 C2155 1.363 . S
C2151 H2122 0.950 . S
C2151 C2150 1.397 . S
C2151 C2152 1.334 . S
C2152 H2123 0.950 . S
C2152 C2151 1.334 . S
C2152 C2153 1.287 . S
C2153 C2152 1.287 . S
C2153 C2154 1.524 . S
C2153 H2156 0.999 . S
C2154 H2124 0.950 . S
C2154 C2153 1.524 . S
C2154 C2155 1.415 . S
C2155 H2125 0.950 . S
C2155 C2150 1.363 . S
C2155 C2154 1.415 . S
H2156 C2153 0.999 . S
H2157 C2138 0.913 . S
H2158 C2176 0.951 . S
H2159 C2178 0.951 . S
H2160 C2180 0.950 . S
H2161 C2181 0.950 . S
H2162 C2183 0.950 . S
H2163 C2186 0.950 . S
H2164 C2187 0.950 . S
H2165 C2189 0.950 . S
H2166 C2190 0.950 . S
H2167 C2191 0.951 . S
H2168 C2193 0.951 . S
H2169 C2195 0.950 . S
H2170 C2196 0.950 . S
H2171 C2198 0.950 . S
H2172 C2201 0.950 . S
H2173 C2202 0.950 . S
H2174 C2204 0.950 . S
H2175 C2205 0.950 . S
C2176 H2158 0.951 . S
C2176 C2177 1.366 . S
C2176 C2178 1.388 . S
C2177 C2176 1.366 . S
C2177 C2181 1.385 . S
C2178 H2159 0.951 . S
C2178 C2176 1.388 . S
C2178 C2179 1.366 . S
C2179 C2178 1.366 . S
C2179 C2180 1.414 . S
C2179 C2182 1.499 . S
C2180 H2160 0.950 . S
C2180 C2179 1.414 . S
C2180 C2181 1.374 . S
C2181 H2161 0.950 . S
C2181 C2177 1.385 . S
C2181 C2180 1.374 . S
C2182 C2179 1.499 . S
C2182 C2183 1.373 . S
C2182 C2184 1.389 . S
C2183 H2162 0.950 . S
C2183 C2182 1.373 . S
C2183 C2199 1.377 . S
C2184 C2182 1.389 . S
C2184 C2185 1.524 . S
C2184 C2198 1.377 . S
C2185 C2184 1.524 . S
C2185 C2186 1.397 . S
C2185 C2190 1.363 . S
C2186 H2163 0.950 . S
C2186 C2185 1.397 . S
C2186 C2187 1.334 . S
C2187 H2164 0.950 . S
C2187 C2186 1.334 . S
C2187 C2188 1.287 . S
C2188 C2187 1.287 . S
C2188 C2189 1.524 . S
C2188 H2207 0.913 . S
C2189 H2165 0.950 . S
C2189 C2188 1.524 . S
C2189 C2190 1.415 . S
C2190 H2166 0.950 . S
C2190 C2185 1.363 . S
C2190 C2189 1.415 . S
C2191 H2167 0.951 . S
C2191 C2192 1.366 . S
C2191 C2193 1.388 . S
C2192 C2191 1.366 . S
C2192 C2196 1.385 . S
C2193 H2168 0.951 . S
C2193 C2191 1.388 . S
C2193 C2194 1.366 . S
C2194 C2193 1.366 . S
C2194 C2195 1.414 . S
C2194 C2197 1.499 . S
C2195 H2169 0.950 . S
C2195 C2194 1.414 . S
C2195 C2196 1.374 . S
C2196 H2170 0.950 . S
C2196 C2192 1.385 . S
C2196 C2195 1.374 . S
C2197 C2194 1.499 . S
C2197 C2198 1.373 . S
C2197 C2199 1.389 . S
C2198 H2171 0.950 . S
C2198 C2184 1.377 . S
C2198 C2197 1.373 . S
C2199 C2183 1.377 . S
C2199 C2197 1.389 . S
C2199 C2200 1.524 . S
C2200 C2199 1.524 . S
C2200 C2201 1.397 . S
C2200 C2205 1.363 . S
C2201 H2172 0.950 . S
C2201 C2200 1.397 . S
C2201 C2202 1.334 . S
C2202 H2173 0.950 . S
C2202 C2201 1.334 . S
C2202 C2203 1.287 . S
C2203 C2202 1.287 . S
C2203 C2204 1.524 . S
C2203 H2206 0.999 . S
C2204 H2174 0.950 . S
C2204 C2203 1.524 . S
C2204 C2205 1.415 . S
C2205 H2175 0.950 . S
C2205 C2200 1.363 . S
C2205 C2204 1.415 . S
H2206 C2203 0.999 . S
H2207 C2188 0.913 . S
C642 C516 1.344 . S
C627 C35 1.249 . S
C692 C533 1.375 . S
C677 C115 1.308 . S
C742 C547 1.515 . S
C727 C177 1.425 . S
C777 C221 1.237 . S
C792 C505 1.330 . S
C827 C283 1.279 . S
C842 C502 1.411 . S
C877 C363 1.145 . S
C892 C519 1.228 . S
C942 C530 1.602 . S
C927 C407 1.493 . S
C992 C544 1.484 . S
C977 C469 1.364 . S
C1027 C159 1.362 . S
C1042 C572 1.485 . S
C1092 C586 1.602 . S
C1077 C239 1.520 . S
C1127 C53 1.145 . S
C1142 C603 1.229 . S
C1192 C558 1.411 . S
C1177 C97 1.281 . S
C1227 C425 1.231 . S
C1242 C561 1.331 . S
C1277 C487 1.425 . S
C1292 C575 1.515 . S
C1342 C589 1.375 . S
C1327 C301 1.309 . S
C1377 C345 1.247 . S
C1392 C600 1.344 . S
C1442 C532 2.230 . S
C1427 C29 2.224 . S
C1492 C546 2.280 . S
C1477 C109 2.211 . S
C1527 C171 2.100 . S
C1542 C504 2.176 1_556 S
C1577 C215 2.008 . S
C1592 C517 1.931 . S
C1627 C277 1.819 . S
C1642 C545 1.732 . S
C1692 C503 1.678 . S
C1677 C357 1.735 . S
C1742 C518 2.076 . S
C1727 C401 2.064 . S
C1792 C531 1.863 . S
C1777 C463 1.948 . S
C1842 C587 1.864 . S
C1827 C153 1.948 . S
C1892 C602 2.076 . S
C1877 C233 2.067 . S
C1927 C47 1.736 1_655 S
C1942 C559 1.679 . S
C1992 C573 1.732 . S
C1977 C91 1.818 . S
C2042 C601 1.931 . S
C2027 C419 1.947 . S
C2077 C481 2.101 . S
C2092 C560 2.177 . S
C2142 C574 2.281 . S
C2127 C295 2.211 . S
C2192 C588 2.230 . S
C2177 C339 2.223 . S
