# Generated by pormake.
# Topology nom, (4,4)-cn, num edge types: 1
# Building blocks:
#     Node 0, Type 0, BuildingBlock: MUDLON_clean_linker_0, # of connection points: 4
#     Node 1, Type 0, BuildingBlock: MUDLON_clean_linker_0, # of connection points: 4
#     Node 2, Type 0, BuildingBlock: MUDLON_clean_linker_0, # of connection points: 4
#     Node 3, Type 0, BuildingBlock: MUDLON_clean_linker_0, # of connection points: 4
#     Node 4, Type 0, BuildingBlock: MUDLON_clean_linker_0, # of connection points: 4
#     Node 5, Type 0, BuildingBlock: MUDLON_clean_linker_0, # of connection points: 4
#     Node 6, Type 1, BuildingBlock: KUFVIS_clean_sbu_0, # of connection points: 4
#     Node 7, Type 1, BuildingBlock: KUFVIS_clean_sbu_0, # of connection points: 4
#     Node 8, Type 1, BuildingBlock: KUFVIS_clean_sbu_0, # of connection points: 4
#     Node 9, Type 1, BuildingBlock: KUFVIS_clean_sbu_0, # of connection points: 4
#     Node 10, Type 1, BuildingBlock: KUFVIS_clean_sbu_0, # of connection points: 4
#     Node 11, Type 1, BuildingBlock: KUFVIS_clean_sbu_0, # of connection points: 4
#     Edge 12, Type (0, 1), BuildingBlock: UVAHIK_clean_linker_0, # of connection points: 2
#     Edge 13, Type (0, 1), BuildingBlock: UVAHIK_clean_linker_0, # of connection points: 2
#     Edge 14, Type (0, 1), BuildingBlock: UVAHIK_clean_linker_0, # of connection points: 2
#     Edge 15, Type (0, 1), BuildingBlock: UVAHIK_clean_linker_0, # of connection points: 2
#     Edge 16, Type (0, 1), BuildingBlock: UVAHIK_clean_linker_0, # of connection points: 2
#     Edge 17, Type (0, 1), BuildingBlock: UVAHIK_clean_linker_0, # of connection points: 2
#     Edge 18, Type (0, 1), BuildingBlock: UVAHIK_clean_linker_0, # of connection points: 2
#     Edge 19, Type (0, 1), BuildingBlock: UVAHIK_clean_linker_0, # of connection points: 2
#     Edge 20, Type (0, 1), BuildingBlock: UVAHIK_clean_linker_0, # of connection points: 2
#     Edge 21, Type (0, 1), BuildingBlock: UVAHIK_clean_linker_0, # of connection points: 2
#     Edge 22, Type (0, 1), BuildingBlock: UVAHIK_clean_linker_0, # of connection points: 2
#     Edge 23, Type (0, 1), BuildingBlock: UVAHIK_clean_linker_0, # of connection points: 2
#     Edge 24, Type (0, 1), BuildingBlock: UVAHIK_clean_linker_0, # of connection points: 2
#     Edge 25, Type (0, 1), BuildingBlock: UVAHIK_clean_linker_0, # of connection points: 2
#     Edge 26, Type (0, 1), BuildingBlock: UVAHIK_clean_linker_0, # of connection points: 2
#     Edge 27, Type (0, 1), BuildingBlock: UVAHIK_clean_linker_0, # of connection points: 2
#     Edge 28, Type (0, 1), BuildingBlock: UVAHIK_clean_linker_0, # of connection points: 2
#     Edge 29, Type (0, 1), BuildingBlock: UVAHIK_clean_linker_0, # of connection points: 2
#     Edge 30, Type (0, 1), BuildingBlock: UVAHIK_clean_linker_0, # of connection points: 2
#     Edge 31, Type (0, 1), BuildingBlock: UVAHIK_clean_linker_0, # of connection points: 2
#     Edge 32, Type (0, 1), BuildingBlock: UVAHIK_clean_linker_0, # of connection points: 2
#     Edge 33, Type (0, 1), BuildingBlock: UVAHIK_clean_linker_0, # of connection points: 2
#     Edge 34, Type (0, 1), BuildingBlock: UVAHIK_clean_linker_0, # of connection points: 2
#     Edge 35, Type (0, 1), BuildingBlock: UVAHIK_clean_linker_0, # of connection points: 2
# Relax obj value: 0.007
# Max RMSD: 0.105
# Mean RMSD: 0.064
data_MOF--net-nom--node1-KUFVIS_clean_sbu_0--node2-MUDLON_clean_linker_0--edge1-UVAHIK_clean_linker_0
_symmetry_space_group_name_H-M    P1
_symmetry_Int_Tables_number       1
_symmetry_cell_setting            triclinic
loop_
_symmetry_equiv_pos_as_xyz
'x, y, z'
_cell_length_a     72.98143
_cell_length_b     74.670573
_cell_length_c     74.086531
_cell_angle_alpha  90.943334
_cell_angle_beta   90.418088
_cell_angle_gamma 120.45865
loop_
_atom_site_label
_atom_site_type_symbol
_atom_site_fract_x
_atom_site_fract_y
_atom_site_fract_z
_atom_type_partial_charge
H0 H 0.1145 0.53759 0.31242 0.0
N1 N 0.08405 0.54176 0.32739 0.0
H2 H 0.14332 0.5625 0.29378 0.0
H3 H 0.08708 0.57682 0.31351 0.0
H4 H 0.11569 0.60185 0.29444 0.0
H5 H 0.09185 0.57665 0.34659 0.0
H6 H 0.10884 0.58744 0.37651 0.0
H7 H 0.09348 0.51987 0.34945 0.0
H8 H 0.11101 0.53085 0.37927 0.0
H9 H 0.0616 0.5087 0.30615 0.0
H10 H 0.0561 0.55397 0.33882 0.0
H11 H 0.02369 0.49117 0.29882 0.0
H12 H 0.01801 0.53588 0.33259 0.0
H13 H 0.91302 0.43599 0.27307 0.0
H14 H 0.89946 0.43548 0.24264 0.0
H15 H 0.91813 0.50015 0.24956 0.0
H16 H 0.93113 0.50035 0.27993 0.0
H17 H 0.91625 0.4944 0.30885 0.0
H18 H 0.88479 0.48597 0.32623 0.0
H19 H 0.87246 0.42335 0.33236 0.0
H20 H 0.90371 0.43185 0.31432 0.0
H21 H 0.95292 0.45112 0.30337 0.0
H22 H 0.9907 0.4697 0.31143 0.0
H23 H 0.99105 0.52782 0.31113 0.0
N24 N 0.92824 0.46688 0.29735 0.0
H25 H 0.95305 0.50887 0.30436 0.0
C26 C 0.09878 0.55538 0.31431 0.0
C27 C 0.1145 0.55141 0.30821 0.0
C28 C 0.13088 0.56565 0.29749 0.0
C29 C 0.13188 0.58424 0.2926 0.0
C30 C 0.11555 0.58781 0.29815 0.0
C31 C 0.09912 0.5735 0.30894 0.0
C32 C 0.09114 0.54725 0.3459 0.0
C33 C 0.09532 0.56624 0.35384 0.0
C34 C 0.1051 0.57244 0.37091 0.0
C35 C 0.11126 0.55998 0.38011 0.0
C36 C 0.10647 0.54074 0.37239 0.0
C37 C 0.09638 0.53442 0.35548 0.0
C38 C 0.06171 0.53241 0.3232 0.0
C39 C 0.05213 0.51473 0.31185 0.0
C40 C 0.03039 0.50463 0.30786 0.0
C41 C 0.01757 0.51183 0.31535 0.0
C42 C 0.02732 0.5299 0.32646 0.0
C43 C 0.0492 0.54021 0.33021 0.0
C44 C 0.92308 0.46811 0.2788 0.0
C45 C 0.91448 0.45011 0.26785 0.0
C46 C 0.90684 0.4499 0.25046 0.0
C47 C 0.90763 0.46777 0.2437 0.0
C48 C 0.91703 0.48606 0.25446 0.0
C49 C 0.92465 0.48623 0.27186 0.0
C50 C 0.91225 0.46365 0.31021 0.0
C51 C 0.90704 0.47898 0.31416 0.0
C52 C 0.88901 0.47413 0.32421 0.0
C53 C 0.87591 0.45389 0.33054 0.0
C54 C 0.88193 0.43896 0.3274 0.0
C55 C 0.89988 0.44382 0.31729 0.0
C56 C 0.95022 0.47854 0.30298 0.0
C57 C 0.96119 0.46786 0.30522 0.0
C58 C 0.98286 0.47858 0.30962 0.0
C59 C 0.99417 0.50039 0.31163 0.0
C60 C 0.98295 0.51105 0.3098 0.0
C61 C 0.96114 0.50021 0.30567 0.0
H62 H 0.49165 0.9078 0.46843 0.0
N63 N 0.48425 0.93841 0.46204 0.0
H64 H 0.47089 0.87741 0.48693 0.0
H65 H 0.45234 0.9327 0.48495 0.0
H66 H 0.43187 0.90272 0.50385 0.0
H67 H 0.44246 0.91947 0.45103 0.0
H68 H 0.42866 0.90638 0.42077 0.0
H69 H 0.50654 0.94598 0.4321 0.0
H70 H 0.49303 0.93469 0.4013 0.0
H71 H 0.52475 0.96438 0.47006 0.0
H72 H 0.46417 0.96081 0.4654 0.0
H73 H 0.542 0.00148 0.47692 0.0
H74 H 0.48088 0.99772 0.47372 0.0
H75 H 0.59029 0.11451 0.51358 0.0
H76 H 0.59006 0.12678 0.5444 0.0
H77 H 0.52138 0.0922 0.54306 0.0
H78 H 0.52181 0.0798 0.51227 0.0
H79 H 0.52621 0.1012 0.48694 0.0
H80 H 0.53051 0.13127 0.47072 0.0
H81 H 0.59189 0.14386 0.4525 0.0
H82 H 0.58768 0.11389 0.46916 0.0
H83 H 0.56651 0.06343 0.50399 0.0
H84 H 0.54757 0.02609 0.49844 0.0
H85 H 0.50258 0.03144 0.46392 0.0
N86 N 0.55705 0.09101 0.49207 0.0
H87 H 0.52071 0.06857 0.47073 0.0
C88 C 0.47369 0.92257 0.4753 0.0
C89 C 0.47888 0.90694 0.47644 0.0
C90 C 0.46701 0.88962 0.48706 0.0
C91 C 0.4496 0.88753 0.49684 0.0
C92 C 0.44498 0.90368 0.4963 0.0
C93 C 0.45687 0.92101 0.48562 0.0
C94 C 0.4756 0.93316 0.44391 0.0
C95 C 0.45361 0.92278 0.44028 0.0
C96 C 0.44571 0.91552 0.42279 0.0
C97 C 0.45966 0.91906 0.40844 0.0
C98 C 0.48171 0.93092 0.412 0.0
C99 C 0.48953 0.93765 0.42957 0.0
C100 C 0.49323 0.95981 0.46765 0.0
C101 C 0.51513 0.97161 0.47103 0.0
C102 C 0.5249 0.99284 0.47506 0.0
C103 C 0.51288 0.00278 0.47616 0.0
C104 C 0.49076 0.99077 0.47287 0.0
C105 C 0.48106 0.96954 0.46844 0.0
C106 C 0.55616 0.09643 0.51066 0.0
C107 C 0.57524 0.10939 0.52007 0.0
C108 C 0.57505 0.11629 0.53765 0.0
C109 C 0.55569 0.11046 0.54609 0.0
C110 C 0.53651 0.09707 0.5368 0.0
C111 C 0.53673 0.08998 0.51925 0.0
C112 C 0.55681 0.10541 0.47942 0.0
C113 C 0.54043 0.11014 0.47923 0.0
C114 C 0.54291 0.12737 0.46997 0.0
C115 C 0.56164 0.14002 0.46054 0.0
C116 C 0.57725 0.13433 0.4596 0.0
C117 C 0.57487 0.11723 0.46906 0.0
C118 C 0.54532 0.06899 0.48774 0.0
C119 C 0.5525 0.0565 0.49528 0.0
C120 C 0.54169 0.03511 0.49192 0.0
C121 C 0.52359 0.02556 0.48048 0.0
C122 C 0.51627 0.03808 0.47297 0.0
C123 C 0.52686 0.05953 0.47671 0.0
H124 H 0.50632 0.6053 0.64831 0.0
N125 N 0.49479 0.57407 0.67072 0.0
H126 H 0.48291 0.61248 0.62971 0.0
H127 H 0.45213 0.54764 0.66443 0.0
H128 H 0.42883 0.55471 0.64625 0.0
H129 H 0.46648 0.54147 0.69087 0.0
H130 H 0.45277 0.54419 0.72016 0.0
H131 H 0.51002 0.60756 0.69205 0.0
H132 H 0.49736 0.6104 0.7218 0.0
H133 H 0.53449 0.58327 0.67607 0.0
H134 H 0.47358 0.53415 0.6562 0.0
H135 H 0.55007 0.56176 0.66945 0.0
H136 H 0.48919 0.51299 0.64855 0.0
H137 H 0.59538 0.49857 0.62069 0.0
H138 H 0.59694 0.48805 0.58959 0.0
H139 H 0.52842 0.45681 0.58518 0.0
H140 H 0.52709 0.46747 0.61642 0.0
H141 H 0.52969 0.44758 0.64095 0.0
H142 H 0.53149 0.42056 0.6576 0.0
H143 H 0.59113 0.46695 0.68217 0.0
H144 H 0.58928 0.494 0.66529 0.0
H145 H 0.57762 0.52913 0.6379 0.0
H146 H 0.56083 0.54944 0.64501 0.0
H147 H 0.50358 0.49319 0.65975 0.0
N148 N 0.56107 0.48852 0.63973 0.0
H149 H 0.52021 0.47296 0.65159 0.0
C150 C 0.48113 0.57594 0.65767 0.0
C151 C 0.48947 0.59399 0.6475 0.0
C152 C 0.47606 0.59814 0.63705 0.0
C153 C 0.45398 0.58422 0.63658 0.0
C154 C 0.44578 0.56565 0.64611 0.0
C155 C 0.45917 0.56157 0.65658 0.0
C156 C 0.48904 0.57445 0.6892 0.0
C157 C 0.47336 0.55652 0.69762 0.0
C158 C 0.46566 0.5581 0.71446 0.0
C159 C 0.47369 0.57759 0.72324 0.0
C160 C 0.49039 0.59523 0.71524 0.0
C161 C 0.49784 0.59365 0.69835 0.0
C162 C 0.50303 0.56061 0.66641 0.0
C163 C 0.52454 0.56791 0.67008 0.0
C164 C 0.53343 0.55561 0.66614 0.0
C165 C 0.521 0.53568 0.65818 0.0
C166 C 0.49925 0.52818 0.65478 0.0
C167 C 0.4903 0.54044 0.65899 0.0
C168 C 0.56123 0.48379 0.62083 0.0
C169 C 0.58076 0.48974 0.61288 0.0
C170 C 0.58159 0.48377 0.59511 0.0
C171 C 0.56278 0.4716 0.58491 0.0
C172 C 0.54315 0.46604 0.59276 0.0
C173 C 0.54237 0.47217 0.61056 0.0
C174 C 0.55953 0.47286 0.65178 0.0
C175 C 0.54295 0.45205 0.65015 0.0
C176 C 0.54403 0.43658 0.65963 0.0
C177 C 0.56156 0.44163 0.67102 0.0
C178 C 0.57737 0.46261 0.67357 0.0
C179 C 0.57636 0.47806 0.66395 0.0
C180 C 0.55038 0.49965 0.64444 0.0
C181 C 0.56144 0.52124 0.64267 0.0
C182 C 0.55183 0.53281 0.6469 0.0
C183 C 0.53088 0.52305 0.65323 0.0
C184 C 0.51966 0.50126 0.6548 0.0
C185 C 0.52925 0.48964 0.65031 0.0
H186 H 0.11675 0.60592 0.80326 0.0
N187 N 0.08255 0.5701 0.79394 0.0
H188 H 0.14739 0.61138 0.82114 0.0
H189 H 0.08521 0.54028 0.81314 0.0
H190 H 0.11517 0.54564 0.83191 0.0
H191 H 0.09219 0.54271 0.77795 0.0
H192 H 0.10804 0.54639 0.74832 0.0
H193 H 0.08555 0.59591 0.76842 0.0
H194 H 0.10082 0.59941 0.73848 0.0
H195 H 0.0588 0.58418 0.80768 0.0
H196 H 0.05679 0.52772 0.79089 0.0
H197 H 0.02151 0.5643 0.816 0.0
H198 H 0.01971 0.50743 0.80003 0.0
H199 H 0.90367 0.50276 0.8447 0.0
H200 H 0.88869 0.49116 0.87443 0.0
H201 H 0.92442 0.45966 0.87987 0.0
H202 H 0.93852 0.47066 0.8496 0.0
H203 H 0.91659 0.45195 0.82179 0.0
H204 H 0.88517 0.42571 0.80492 0.0
H205 H 0.87372 0.47373 0.7861 0.0
H206 H 0.90482 0.49973 0.80353 0.0
H207 H 0.96102 0.52453 0.84435 0.0
H208 H 0.99862 0.54176 0.83755 0.0
H209 H 0.98462 0.4992 0.79233 0.0
N210 N 0.92855 0.49286 0.82652 0.0
H211 H 0.94728 0.48126 0.79973 0.0
C212 C 0.09863 0.57281 0.80692 0.0
C213 C 0.11622 0.59278 0.80976 0.0
C214 C 0.1337 0.59584 0.82008 0.0
C215 C 0.1339 0.57894 0.82801 0.0
C216 C 0.1158 0.55899 0.82577 0.0
C217 C 0.09843 0.55591 0.81519 0.0
C218 C 0.08782 0.56918 0.77539 0.0
C219 C 0.09357 0.55482 0.76925 0.0
C220 C 0.10263 0.55694 0.75226 0.0
C221 C 0.10602 0.5734 0.74111 0.0
C222 C 0.09887 0.58684 0.74687 0.0
C223 C 0.08993 0.58475 0.76386 0.0
C224 C 0.0606 0.5575 0.79882 0.0
C225 C 0.05029 0.56742 0.806 0.0
C226 C 0.02901 0.55595 0.8109 0.0
C227 C 0.01753 0.53414 0.80893 0.0
C228 C 0.02793 0.52418 0.80164 0.0
C229 C 0.04924 0.53576 0.79653 0.0
C230 C 0.92224 0.48772 0.84501 0.0
C231 C 0.90845 0.49359 0.85245 0.0
C232 C 0.90001 0.487 0.86952 0.0
C233 C 0.90536 0.47448 0.87969 0.0
C234 C 0.9197 0.46904 0.87237 0.0
C235 C 0.92796 0.47547 0.85514 0.0
C236 C 0.9129 0.47779 0.81397 0.0
C237 C 0.9075 0.45683 0.81379 0.0
C238 C 0.88958 0.44187 0.80406 0.0
C239 C 0.87675 0.44759 0.79435 0.0
C240 C 0.88301 0.46875 0.79371 0.0
C241 C 0.90088 0.48366 0.80347 0.0
C242 C 0.95096 0.50126 0.82292 0.0
C243 C 0.96605 0.51854 0.83322 0.0
C244 C 0.9876 0.52861 0.82912 0.0
C245 C 0.99476 0.52208 0.81423 0.0
C246 C 0.9798 0.50455 0.80404 0.0
C247 C 0.9582 0.49425 0.80831 0.0
H248 H 0.54717 0.10789 0.96925 0.0
N249 N 0.56621 0.08531 0.96093 0.0
H250 H 0.56264 0.13971 0.98777 0.0
H251 H 0.60096 0.10093 0.98162 0.0
H252 H 0.61695 0.13309 -0.00022 0.0
H253 H 0.59846 0.09942 0.93853 0.0
H254 H 0.60085 0.11385 0.90868 0.0
H255 H 0.53361 0.0852 0.94244 0.0
H256 H 0.53572 0.09954 0.91244 0.0
H257 H 0.53009 0.07322 0.98087 0.0
H258 H 0.56499 0.05053 0.95102 0.0
H259 H 0.50411 0.03792 0.98898 0.0
H260 H 0.53828 0.01494 0.958 0.0
H261 H 0.42231 0.91784 0.01176 0.0
H262 H 0.41786 0.90288 0.04151 0.0
H263 H 0.48621 0.9345 0.04859 0.0
H264 H 0.4904 0.94826 0.01854 0.0
H265 H 0.48218 0.921 0.99149 0.0
H266 H 0.47343 0.88979 0.9737 0.0
H267 H 0.41712 0.88784 0.95269 0.0
H268 H 0.42644 0.91973 0.97008 0.0
H269 H 0.4506 0.97022 0.98801 0.0
H270 H 0.47592 0.00575 0.9792 0.0
H271 H 0.52641 0.99147 0.98108 0.0
N272 N 0.45807 0.93953 0.99399 0.0
H273 H 0.50093 0.95601 0.98859 0.0
C274 C 0.57294 0.10196 0.97413 0.0
C275 C 0.56213 0.11298 0.97624 0.0
C276 C 0.57112 0.13133 0.98671 0.0
C277 C 0.59115 0.13912 0.99515 0.0
C278 C 0.60139 0.12747 0.99369 0.0
C279 C 0.59232 0.10909 0.9833 0.0
C280 C 0.56597 0.09133 0.94262 0.0
C281 C 0.58463 0.09911 0.93273 0.0
C282 C 0.5859 0.10727 0.91569 0.0
C283 C 0.56847 0.10786 0.90819 0.0
C284 C 0.54949 0.09949 0.91794 0.0
C285 C 0.54821 0.09122 0.93502 0.0
C286 C 0.54984 0.06462 0.96554 0.0
C287 C 0.53218 0.06069 0.97593 0.0
C288 C 0.51709 0.04031 0.98042 0.0
C289 C 0.51907 0.0234 0.97432 0.0
C290 C 0.53643 0.02747 0.96343 0.0
C291 C 0.55166 0.04781 0.95925 0.0
C292 C 0.45657 0.93427 0.0128 0.0
C293 C 0.4363 0.92182 0.0199 0.0
C294 C 0.43383 0.91333 0.03698 0.0
C295 C 0.45169 0.91733 0.04753 0.0
C296 C 0.47206 0.93068 0.04075 0.0
C297 C 0.4745 0.93886 0.02351 0.0
C298 C 0.45514 0.923 0.98181 0.0
C299 C 0.46846 0.91446 0.98251 0.0
C300 C 0.46335 0.89649 0.97243 0.0
C301 C 0.44462 0.88647 0.96184 0.0
C302 C 0.43165 0.8953 0.96077 0.0
C303 C 0.43699 0.91351 0.97058 0.0
C304 C 0.47373 0.96041 0.98912 0.0
C305 C 0.46716 0.97484 0.98644 0.0
C306 C 0.48172 0.9952 0.98154 0.0
C307 C 0.50335 0.00166 0.97942 0.0
C308 C 0.50989 0.9871 0.98221 0.0
C309 C 0.49524 0.96668 0.98677 0.0
H310 H 0.51796 0.42111 0.15112 0.0
N311 N 0.52431 0.4572 0.16373 0.0
H312 H 0.54132 0.41491 0.13194 0.0
H313 H 0.5595 0.48718 0.14667 0.0
H314 H 0.58275 0.48124 0.12695 0.0
H315 H 0.56299 0.48294 0.18004 0.0
H316 H 0.57442 0.47881 0.20992 0.0
H317 H 0.50034 0.43074 0.18868 0.0
H318 H 0.51151 0.42669 0.21888 0.0
H319 H 0.48798 0.44627 0.14678 0.0
H320 H 0.54291 0.49907 0.17133 0.0
H321 H 0.47258 0.46793 0.1403 0.0
H322 H 0.52732 0.52073 0.16561 0.0
H323 H 0.42718 0.52322 0.11168 0.0
H324 H 0.42521 0.53507 0.08152 0.0
H325 H 0.48896 0.58743 0.08902 0.0
H326 H 0.4904 0.5759 0.11924 0.0
H327 H 0.48989 0.57936 0.15117 0.0
H328 H 0.48514 0.60525 0.16788 0.0
H329 H 0.41714 0.56334 0.16653 0.0
H330 H 0.4221 0.53767 0.14975 0.0
H331 H 0.43974 0.50463 0.14839 0.0
H332 H 0.45659 0.48446 0.1557 0.0
H333 H 0.5178 0.53694 0.1426 0.0
N334 N 0.45795 0.5429 0.13628 0.0
H335 H 0.50086 0.55718 0.13611 0.0
C336 C 0.53691 0.4545 0.15028 0.0
C337 C 0.53189 0.43426 0.14558 0.0
C338 C 0.54525 0.43079 0.13455 0.0
C339 C 0.564 0.44758 0.12787 0.0
C340 C 0.56861 0.46795 0.13204 0.0
C341 C 0.55522 0.47139 0.14319 0.0
C342 C 0.53074 0.45705 0.18213 0.0
C343 C 0.55154 0.47085 0.18852 0.0
C344 C 0.55805 0.4685 0.20567 0.0
C345 C 0.54392 0.45231 0.21675 0.0
C346 C 0.52288 0.43911 0.21058 0.0
C347 C 0.5164 0.44148 0.19343 0.0
C348 C 0.5164 0.47091 0.15966 0.0
C349 C 0.49665 0.46255 0.15082 0.0
C350 C 0.48783 0.47494 0.1473 0.0
C351 C 0.49854 0.49606 0.15268 0.0
C352 C 0.51865 0.50457 0.1612 0.0
C353 C 0.52755 0.49214 0.16461 0.0
C354 C 0.45887 0.54853 0.11769 0.0
C355 C 0.44085 0.537 0.1066 0.0
C356 C 0.43981 0.54379 0.08936 0.0
C357 C 0.4569 0.5623 0.08287 0.0
C358 C 0.4754 0.57328 0.0937 0.0
C359 C 0.47635 0.56653 0.11097 0.0
C360 C 0.45626 0.55661 0.14915 0.0
C361 C 0.47402 0.5756 0.15476 0.0
C362 C 0.47127 0.59043 0.16424 0.0
C363 C 0.45075 0.58642 0.16838 0.0
C364 C 0.43316 0.56687 0.1637 0.0
C365 C 0.43594 0.55218 0.15413 0.0
C366 C 0.46891 0.53227 0.14156 0.0
C367 C 0.45682 0.51179 0.14729 0.0
C368 C 0.46649 0.50025 0.15127 0.0
C369 C 0.48856 0.50893 0.14947 0.0
C370 C 0.50079 0.52976 0.14423 0.0
C371 C 0.49107 0.54136 0.14037 0.0
Mn372 Mn 0.62572 0.38053 0.4049 0.0
Mn373 Mn 0.65149 0.43215 0.41421 0.0
C374 C 0.61175 0.3941 0.4253 0.0
C375 C 0.62001 0.34738 0.41018 0.0
C376 C 0.62573 0.41264 0.37975 0.0
O377 O 0.65554 0.39052 0.39553 0.0
O378 O 0.67166 0.42425 0.40425 0.0
C379 C 0.67978 0.43387 0.44387 0.0
N380 N 0.66453 0.43773 0.43766 0.0
C381 C 0.66461 0.45417 0.46588 0.0
C382 C 0.68038 0.45046 0.47256 0.0
C383 C 0.68792 0.44018 0.46153 0.0
C384 C 0.65698 0.44737 0.44823 0.0
H385 H 0.68569 0.42607 0.4354 0.0
C386 C 0.672 0.40863 0.39721 0.0
O387 O 0.61527 0.35204 0.39471 0.0
O388 O 0.62849 0.36209 0.42244 0.0
N389 N 0.634 0.44202 0.42412 0.0
C390 C 0.61819 0.44369 0.41587 0.0
C391 C 0.60856 0.45317 0.42525 0.0
C392 C 0.6155 0.46112 0.44287 0.0
C393 C 0.63199 0.45948 0.45097 0.0
C394 C 0.64092 0.44979 0.44101 0.0
H395 H 0.61294 0.4378 0.40227 0.0
O396 O 0.59956 0.37611 0.4175 0.0
O397 O 0.63168 0.40346 0.42105 0.0
O398 O 0.61934 0.39383 0.38366 0.0
O399 O 0.6382 0.42808 0.39 0.0
C400 C 0.63987 0.467 0.46857 0.0
C401 C 0.65607 0.46423 0.47606 0.0
H402 H 0.68675 0.45536 0.48616 0.0
H403 H 0.70005 0.4372 0.46661 0.0
H404 H 0.59587 0.45441 0.41888 0.0
H405 H 0.60801 0.46838 0.45007 0.0
H406 H 0.63335 0.47467 0.47656 0.0
H407 H 0.66173 0.46977 0.48973 0.0
Mn408 Mn 0.27273 0.64883 0.56095 0.0
Mn409 Mn 0.24635 0.59707 0.55224 0.0
C410 C 0.24549 0.63445 0.53951 0.0
C411 C 0.30124 0.68217 0.55596 0.0
C412 C 0.2388 0.61667 0.58543 0.0
O413 O 0.29232 0.6397 0.57192 0.0
O414 O 0.27451 0.60585 0.56351 0.0
C415 C 0.27434 0.5955 0.52431 0.0
N416 N 0.25471 0.59124 0.52955 0.0
C417 C 0.23888 0.57348 0.50132 0.0
C418 C 0.25891 0.5776 0.49563 0.0
C419 C 0.27673 0.58875 0.50715 0.0
C420 C 0.23751 0.58074 0.51851 0.0
H421 H 0.28804 0.60395 0.53317 0.0
C422 C 0.29058 0.62181 0.57083 0.0
O423 O 0.29086 0.67763 0.57095 0.0
O424 O 0.29527 0.66725 0.54401 0.0
N425 N 0.2189 0.58635 0.54113 0.0
C426 C 0.20095 0.58467 0.54826 0.0
C427 C 0.18182 0.57452 0.5382 0.0
C428 C 0.18126 0.5659 0.52107 0.0
C429 C 0.19988 0.56758 0.51412 0.0
C430 C 0.2185 0.57801 0.5247 0.0
H431 H 0.20122 0.59108 0.5615 0.0
O432 O 0.25135 0.65248 0.54692 0.0
O433 O 0.25589 0.6255 0.54468 0.0
O434 O 0.25173 0.63553 0.58154 0.0
O435 O 0.23613 0.60126 0.57564 0.0
C436 C 0.20073 0.55946 0.49706 0.0
C437 C 0.22025 0.56258 0.49059 0.0
H438 H 0.26081 0.57236 0.48243 0.0
H439 H 0.29225 0.59204 0.50283 0.0
H440 H 0.16752 0.57327 0.54367 0.0
H441 H 0.16648 0.55809 0.51335 0.0
H442 H 0.18651 0.55109 0.48867 0.0
H443 H 0.22076 0.55663 0.47728 0.0
Mn444 Mn 0.62441 0.2639 0.72593 0.0
Mn445 Mn 0.64969 0.2383 0.71383 0.0
C446 C 0.60842 0.23617 0.70564 0.0
C447 C 0.61785 0.29104 0.72187 0.0
C448 C 0.62731 0.23215 0.74951 0.0
O449 O 0.65498 0.28378 0.73408 0.0
O450 O 0.67067 0.26634 0.72387 0.0
C451 C 0.67452 0.26485 0.68369 0.0
N452 N 0.66019 0.24579 0.68994 0.0
C453 C 0.65651 0.22979 0.66063 0.0
C454 C 0.67133 0.24924 0.65391 0.0
C455 C 0.68033 0.26685 0.66548 0.0
C456 C 0.65135 0.22876 0.6789 0.0
H457 H 0.68144 0.27843 0.69253 0.0
C458 C 0.6714 0.28223 0.73151 0.0
O459 O 0.61479 0.28206 0.73732 0.0
O460 O 0.62519 0.2846 0.709 0.0
N461 N 0.63153 0.21101 0.70375 0.0
C462 C 0.61705 0.19349 0.71223 0.0
C463 C 0.60653 0.17451 0.70252 0.0
C464 C 0.61112 0.17368 0.68426 0.0
C465 C 0.62619 0.19187 0.67585 0.0
C466 C 0.63634 0.2103 0.68626 0.0
H467 H 0.61352 0.19399 0.72629 0.0
O468 O 0.59703 0.24211 0.71443 0.0
O469 O 0.6288 0.2468 0.70881 0.0
O470 O 0.62051 0.24461 0.74669 0.0
O471 O 0.63882 0.22914 0.73835 0.0
C472 C 0.63137 0.19247 0.6575 0.0
C473 C 0.64646 0.21144 0.64988 0.0
H474 H 0.67582 0.25086 0.63986 0.0
H475 H 0.69171 0.28193 0.66037 0.0
H476 H 0.59491 0.16053 0.7091 0.0
H477 H 0.60296 0.15901 0.67682 0.0
H478 H 0.62366 0.17849 0.64908 0.0
H479 H 0.65013 0.21176 0.63571 0.0
Mn480 Mn 0.3816 0.64486 0.90631 0.0
Mn481 Mn 0.35623 0.59384 0.91623 0.0
C482 C 0.39624 0.63304 0.92729 0.0
C483 C 0.38714 0.67824 0.91048 0.0
C484 C 0.38163 0.61105 0.88229 0.0
O485 O 0.35172 0.63417 0.89643 0.0
O486 O 0.33588 0.60073 0.9047 0.0
C487 C 0.32797 0.59445 0.94439 0.0
N488 N 0.34316 0.59006 0.9392 0.0
C489 C 0.34393 0.57698 0.96849 0.0
C490 C 0.32818 0.58122 0.97412 0.0
C491 C 0.32022 0.59005 0.96203 0.0
C492 C 0.35102 0.58168 0.95075 0.0
H493 H 0.32185 0.60128 0.93516 0.0
C494 C 0.33544 0.61602 0.8975 0.0
O495 O 0.3919 0.67246 0.89548 0.0
O496 O 0.37887 0.66452 0.923 0.0
N497 N 0.37371 0.58479 0.92756 0.0
C498 C 0.38944 0.58239 0.92023 0.0
C499 C 0.39928 0.57397 0.93065 0.0
C500 C 0.39275 0.56795 0.94841 0.0
C501 C 0.37639 0.57037 0.95559 0.0
C502 C 0.36703 0.57866 0.94452 0.0
H503 H 0.39452 0.58696 0.90659 0.0
O504 O 0.40808 0.65048 0.91932 0.0
O505 O 0.3761 0.62313 0.92296 0.0
O506 O 0.38753 0.63003 0.88572 0.0
O507 O 0.36968 0.59623 0.89263 0.0
C508 C 0.36925 0.56519 0.97341 0.0
C509 C 0.35308 0.56856 0.97987 0.0
H510 H 0.3222 0.57791 0.98773 0.0
H511 H 0.30814 0.59346 0.96631 0.0
H512 H 0.41191 0.57217 0.92501 0.0
H513 H 0.40047 0.56159 0.95644 0.0
H514 H 0.3763 0.55889 0.98232 0.0
H515 H 0.34792 0.56478 0.99367 0.0
Mn516 Mn 0.74863 0.39355 0.06465 0.0
Mn517 Mn 0.77848 0.37252 0.07601 0.0
C518 C 0.77634 0.41058 0.08534 0.0
C519 C 0.71865 0.39658 0.06873 0.0
C520 C 0.78267 0.39411 0.04062 0.0
O521 O 0.7307 0.3634 0.05564 0.0
O522 O 0.75024 0.35034 0.0668 0.0
C523 C 0.7536 0.34745 0.10682 0.0
N524 N 0.77236 0.36244 0.10005 0.0
C525 C 0.79024 0.36761 0.12874 0.0
C526 C 0.77114 0.35211 0.13599 0.0
C527 C 0.75273 0.34204 0.12499 0.0
C528 C 0.79014 0.37233 0.11054 0.0
H529 H 0.7394 0.33972 0.09843 0.0
C530 C 0.73357 0.34822 0.05884 0.0
O531 O 0.72856 0.40103 0.0535 0.0
O532 O 0.72585 0.38987 0.08141 0.0
N533 N 0.80618 0.39224 0.08538 0.0
C534 C 0.82309 0.40746 0.07654 0.0
C535 C 0.84268 0.41925 0.08572 0.0
C536 C 0.84474 0.41518 0.10383 0.0
C537 C 0.82717 0.39936 0.11262 0.0
C538 C 0.8081 0.38799 0.10273 0.0
H539 H 0.82166 0.4106 0.06259 0.0
O540 O 0.76884 0.4207 0.07699 0.0
O541 O 0.76718 0.39082 0.08155 0.0
O542 O 0.76943 0.4 0.04411 0.0
O543 O 0.78643 0.38294 0.05119 0.0
C544 C 0.82776 0.39461 0.13086 0.0
C545 C 0.80928 0.3788 0.13894 0.0
H546 H 0.77039 0.34794 0.15001 0.0
H547 H 0.7379 0.33015 0.13051 0.0
H548 H 0.85617 0.43145 0.07885 0.0
H549 H 0.85987 0.42433 0.11087 0.0
H550 H 0.84225 0.40322 0.13888 0.0
H551 H 0.80985 0.3755 0.15305 0.0
Mn552 Mn 0.37523 0.76163 0.2305 0.0
Mn553 Mn 0.42742 0.78994 0.24164 0.0
C554 C 0.38728 0.78968 0.25036 0.0
C555 C 0.34146 0.73324 0.23519 0.0
C556 C 0.40896 0.79359 0.20598 0.0
O557 O 0.38675 0.74305 0.22219 0.0
O558 O 0.42042 0.76182 0.23294 0.0
C559 C 0.42765 0.76601 0.27302 0.0
N560 N 0.43174 0.78435 0.2659 0.0
C561 C 0.44509 0.80231 0.29451 0.0
C562 C 0.44115 0.78364 0.30213 0.0
C563 C 0.43234 0.7654 0.29135 0.0
C564 C 0.44006 0.80194 0.27618 0.0
H565 H 0.42082 0.75195 0.2648 0.0
C566 C 0.40513 0.74546 0.22531 0.0
O567 O 0.34666 0.74217 0.21967 0.0
O568 O 0.35608 0.74043 0.24777 0.0
N569 N 0.43645 0.81747 0.25047 0.0
C570 C 0.43883 0.83409 0.24115 0.0
C571 C 0.4475 0.85356 0.24997 0.0
C572 C 0.45378 0.85579 0.26822 0.0
C573 C 0.45128 0.8385 0.27751 0.0
C574 C 0.44278 0.81954 0.26796 0.0
H575 H 0.4342 0.83254 0.22709 0.0
O576 O 0.36912 0.78242 0.24202 0.0
O577 O 0.39759 0.78004 0.24711 0.0
O578 O 0.38953 0.78102 0.20952 0.0
O579 O 0.4244 0.79723 0.21662 0.0
C580 C 0.45676 0.83931 0.29591 0.0
C581 C 0.45356 0.8212 0.30442 0.0
H582 H 0.4447 0.7831 0.31626 0.0
H583 H 0.42915 0.75092 0.29715 0.0
H584 H 0.44939 0.86683 0.24271 0.0
H585 H 0.46052 0.87085 0.27494 0.0
H586 H 0.46323 0.85373 0.30368 0.0
H587 H 0.45759 0.82196 0.31862 0.0
C588 C 0.16077 0.59473 0.2698 0.0
C589 C 0.15082 0.6004 0.28307 0.0
C590 C 0.18024 0.60955 0.26273 0.0
C591 C 0.22701 0.66024 0.27531 0.0
H592 H 0.24406 0.65797 0.22628 0.0
C593 C 0.30291 0.7115 0.22634 0.0
C594 C 0.31949 0.71659 0.23887 0.0
C595 C 0.28185 0.69715 0.23061 0.0
C596 C 0.23951 0.65894 0.23998 0.0
H597 H 0.15314 0.62639 0.29859 0.0
H598 H 0.18665 0.65231 0.2858 0.0
H599 H 0.2074 0.63445 0.23501 0.0
H600 H 0.32711 0.70999 0.26537 0.0
H601 H 0.29056 0.68468 0.27265 0.0
H602 H 0.25889 0.68493 0.28024 0.0
C603 C 0.17965 0.63629 0.28118 0.0
C604 C 0.21854 0.64532 0.24504 0.0
C605 C 0.16024 0.62145 0.28832 0.0
C606 C 0.31468 0.70653 0.25548 0.0
C607 C 0.29368 0.69213 0.25971 0.0
C608 C 0.2479 0.67387 0.27025 0.0
C609 C 0.19019 0.63044 0.26867 0.0
C610 C 0.21207 0.6457 0.26282 0.0
C611 C 0.27695 0.68754 0.24748 0.0
C612 C 0.25449 0.67326 0.25259 0.0
H613 H 0.15379 0.57871 0.26522 0.0
H614 H 0.1879 0.60443 0.25319 0.0
H615 H 0.22274 0.66082 0.28919 0.0
H616 H 0.3061 0.71905 0.21344 0.0
H617 H 0.26936 0.69411 0.22093 0.0
C618 C 0.57362 0.16634 0.43598 0.0
C619 C 0.56584 0.16019 0.45344 0.0
C620 C 0.57857 0.18594 0.42987 0.0
C621 C 0.57124 0.231 0.44138 0.0
H622 H 0.61968 0.26105 0.41041 0.0
C623 C 0.61327 0.31957 0.43196 0.0
C624 C 0.61492 0.32598 0.41403 0.0
C625 C 0.60701 0.29898 0.43572 0.0
C626 C 0.60604 0.25274 0.41897 0.0
H627 H 0.55758 0.16981 0.47832 0.0
H628 H 0.56687 0.20405 0.46807 0.0
H629 H 0.60887 0.2256 0.4189 0.0
H630 H 0.61196 0.31605 0.38596 0.0
H631 H 0.60165 0.28008 0.3926 0.0
H632 H 0.56916 0.25863 0.44205 0.0
C633 C 0.56841 0.19364 0.4587 0.0
C634 C 0.59971 0.23237 0.42376 0.0
C635 C 0.56314 0.17398 0.46466 0.0
C636 C 0.61077 0.31153 0.39991 0.0
C637 C 0.60494 0.29101 0.40369 0.0
C638 C 0.57784 0.25147 0.43687 0.0
C639 C 0.57622 0.19996 0.44122 0.0
C640 C 0.58232 0.22125 0.43519 0.0
C641 C 0.60269 0.2845 0.42162 0.0
C642 C 0.59537 0.26256 0.42575 0.0
H643 H 0.5758 0.15597 0.42705 0.0
H644 H 0.5842 0.19004 0.41623 0.0
H645 H 0.55743 0.22288 0.44977 0.0
H646 H 0.61628 0.33033 0.44312 0.0
H647 H 0.60551 0.29435 0.44966 0.0
C648 C 0.42118 0.57433 0.61793 0.0
C649 C 0.43929 0.58963 0.62743 0.0
C650 C 0.40609 0.57882 0.61113 0.0
C651 C 0.39667 0.62158 0.59957 0.0
H652 H 0.33786 0.58013 0.60806 0.0
C653 C 0.32648 0.63577 0.58605 0.0
C654 C 0.30815 0.61914 0.57784 0.0
C655 C 0.34306 0.63301 0.5922 0.0
C656 C 0.35418 0.59179 0.60541 0.0
H657 H 0.456 0.62183 0.63676 0.0
H658 H 0.4297 0.62968 0.62478 0.0
H659 H 0.36599 0.57376 0.61756 0.0
H660 H 0.29312 0.58658 0.56955 0.0
H661 H 0.32189 0.58193 0.58007 0.0
H662 H 0.38474 0.63957 0.58735 0.0
C663 C 0.42727 0.61426 0.62249 0.0
C664 C 0.37031 0.58811 0.61083 0.0
C665 C 0.44237 0.60976 0.62931 0.0
C666 C 0.30685 0.59975 0.57593 0.0
C667 C 0.32336 0.59702 0.58205 0.0
C668 C 0.38048 0.62524 0.59409 0.0
C669 C 0.40874 0.59871 0.61365 0.0
C670 C 0.39174 0.60287 0.60785 0.0
C671 C 0.34164 0.61356 0.5903 0.0
C672 C 0.35903 0.6103 0.59683 0.0
H673 H 0.41852 0.55877 0.61599 0.0
H674 H 0.3922 0.56662 0.60405 0.0
H675 H 0.41303 0.6332 0.597 0.0
H676 H 0.32805 0.65093 0.58771 0.0
H677 H 0.35688 0.64603 0.59863 0.0
C678 C 0.83793 0.4333 0.78794 0.0
C679 C 0.85608 0.43146 0.78616 0.0
C680 C 0.81816 0.41765 0.78133 0.0
C681 C 0.79223 0.37237 0.7498 0.0
H682 H 0.74331 0.35606 0.78004 0.0
C683 C 0.71099 0.29857 0.73475 0.0
C684 C 0.69253 0.2997 0.73746 0.0
C685 C 0.73093 0.31495 0.74027 0.0
C686 C 0.75674 0.3606 0.77132 0.0
H687 H 0.86771 0.41185 0.77564 0.0
H688 H 0.83305 0.38434 0.76427 0.0
H689 H 0.77817 0.38405 0.79018 0.0
H690 H 0.68074 0.31918 0.74807 0.0
H691 H 0.71558 0.34782 0.75755 0.0
H692 H 0.77077 0.34886 0.73096 0.0
C693 C 0.8342 0.39802 0.77068 0.0
C694 C 0.77674 0.37664 0.77714 0.0
C695 C 0.85402 0.41369 0.77734 0.0
C696 C 0.69457 0.3177 0.74582 0.0
C697 C 0.71455 0.33409 0.75134 0.0
C698 C 0.7722 0.35632 0.74397 0.0
C699 C 0.816 0.39973 0.77277 0.0
C700 C 0.79473 0.38272 0.76646 0.0
C701 C 0.73297 0.33291 0.74864 0.0
C702 C 0.75422 0.35022 0.75468 0.0
H703 H 0.83885 0.44662 0.79489 0.0
H704 H 0.80452 0.41958 0.78297 0.0
H705 H 0.8057 0.37685 0.74115 0.0
H706 H 0.71011 0.28499 0.72838 0.0
H707 H 0.74474 0.31339 0.73821 0.0
C708 C 0.45159 0.86272 0.94255 0.0
C709 C 0.43772 0.86589 0.95333 0.0
C710 C 0.44546 0.84288 0.93564 0.0
C711 C 0.39815 0.78914 0.92957 0.0
H712 H 0.44149 0.77377 0.92704 0.0
C713 C 0.38152 0.70443 0.92717 0.0
C714 C 0.39165 0.69972 0.9134 0.0
C715 C 0.3864 0.72492 0.93031 0.0
C716 C 0.42927 0.77793 0.92755 0.0
H717 H 0.40668 0.85096 0.96546 0.0
H718 H 0.39625 0.81627 0.95415 0.0
H719 H 0.45151 0.80921 0.93573 0.0
H720 H 0.41477 0.71267 0.89212 0.0
H721 H 0.42374 0.74859 0.89802 0.0
H722 H 0.37584 0.75735 0.92227 0.0
C723 C 0.41156 0.82906 0.95035 0.0
C724 C 0.43499 0.7983 0.93241 0.0
C725 C 0.41754 0.84896 0.95694 0.0
C726 C 0.40666 0.71584 0.90278 0.0
C727 C 0.41186 0.73637 0.90618 0.0
C728 C 0.3924 0.76867 0.92507 0.0
C729 C 0.42548 0.82567 0.93971 0.0
C730 C 0.4195 0.8042 0.93359 0.0
C731 C 0.40181 0.74108 0.92 0.0
C732 C 0.40791 0.76289 0.92409 0.0
H733 H 0.46721 0.8756 0.93951 0.0
H734 H 0.45647 0.84106 0.92719 0.0
H735 H 0.3858 0.7931 0.92991 0.0
H736 H 0.36985 0.6923 0.93553 0.0
H737 H 0.37854 0.72821 0.94112 0.0
C738 C 0.57193 0.42648 0.10578 0.0
C739 C 0.57927 0.4437 0.11774 0.0
C740 C 0.58615 0.42145 0.09792 0.0
C741 C 0.64269 0.44191 0.08766 0.0
H742 H 0.62844 0.38456 0.09195 0.0
C743 C 0.69608 0.41154 0.05967 0.0
C744 C 0.70071 0.4001 0.07189 0.0
C745 C 0.68023 0.41628 0.06341 0.0
C746 C 0.63261 0.40061 0.09063 0.0
H747 H 0.60755 0.46947 0.13029 0.0
H748 H 0.63232 0.4609 0.11628 0.0
H749 H 0.60301 0.39482 0.10145 0.0
H750 H 0.69193 0.38414 0.09733 0.0
H751 H 0.66411 0.3922 0.10375 0.0
H752 H 0.67246 0.44776 0.07715 0.0
C753 C 0.61553 0.45134 0.11298 0.0
C754 C 0.61799 0.40645 0.09591 0.0
C755 C 0.6013 0.45628 0.12097 0.0
C756 C 0.68874 0.39298 0.08765 0.0
C757 C 0.67275 0.39752 0.09129 0.0
C758 C 0.65722 0.43602 0.08219 0.0
C759 C 0.60806 0.43362 0.10167 0.0
C760 C 0.62298 0.42722 0.09472 0.0
C761 C 0.66851 0.40946 0.07933 0.0
C762 C 0.65246 0.41537 0.08386 0.0
H763 H 0.55513 0.41668 0.10269 0.0
H764 H 0.57997 0.40788 0.08904 0.0
H765 H 0.64691 0.45799 0.08648 0.0
H766 H 0.70505 0.41726 0.04741 0.0
H767 H 0.67719 0.42536 0.05388 0.0
C768 C 0.41331 0.85901 0.50554 0.0
C769 C 0.43553 0.86796 0.50645 0.0
C770 C 0.39993 0.83974 0.51318 0.0
C771 C 0.39871 0.79174 0.52577 0.0
H772 H 0.34652 0.77949 0.54944 0.0
C773 C 0.32966 0.708 0.53608 0.0
C774 C 0.3185 0.70359 0.55231 0.0
C775 C 0.34517 0.72838 0.53215 0.0
C776 C 0.36114 0.7827 0.54304 0.0
H777 H 0.46106 0.86396 0.51683 0.0
H778 H 0.43769 0.83025 0.53008 0.0
H779 H 0.37131 0.81492 0.54027 0.0
H780 H 0.31518 0.71707 0.57734 0.0
H781 H 0.34231 0.75267 0.5705 0.0
H782 H 0.38852 0.75952 0.52848 0.0
C783 C 0.43064 0.83806 0.52322 0.0
C784 C 0.37525 0.80296 0.53762 0.0
C785 C 0.44403 0.85738 0.51563 0.0
C786 C 0.32346 0.71996 0.56469 0.0
C787 C 0.33892 0.74037 0.56073 0.0
C788 C 0.38457 0.77147 0.53112 0.0
C789 C 0.40842 0.82889 0.52188 0.0
C790 C 0.3941 0.80768 0.52875 0.0
C791 C 0.34983 0.74485 0.54434 0.0
C792 C 0.36551 0.76665 0.53965 0.0
H793 H 0.40616 0.86651 0.49832 0.0
H794 H 0.3829 0.833 0.51168 0.0
H795 H 0.41299 0.79479 0.51883 0.0
H796 H 0.32621 0.69575 0.52624 0.0
H797 H 0.35309 0.73131 0.51931 0.0
C798 C 0.56174 0.40841 0.66753 0.0
C799 C 0.56446 0.42499 0.6787 0.0
C800 C 0.56606 0.3935 0.67408 0.0
C801 C 0.59585 0.38508 0.71058 0.0
H802 H 0.56476 0.32856 0.69132 0.0
C803 C 0.60842 0.31722 0.7331 0.0
C804 C 0.61209 0.30706 0.71864 0.0
C805 C 0.60205 0.33171 0.7298 0.0
C806 C 0.57355 0.3443 0.69681 0.0
H807 H 0.57333 0.43869 0.70563 0.0
H808 H 0.58026 0.41221 0.71734 0.0
H809 H 0.55337 0.35298 0.68332 0.0
H810 H 0.61204 0.30413 0.68946 0.0
H811 H 0.60047 0.329 0.68377 0.0
H812 H 0.61579 0.37599 0.7243 0.0
C813 C 0.57527 0.411 0.70336 0.0
C814 C 0.56714 0.35836 0.69216 0.0
C815 C 0.57119 0.42611 0.69671 0.0
C816 C 0.6094 0.31174 0.70088 0.0
C817 C 0.60266 0.32587 0.69761 0.0
C818 C 0.60204 0.37085 0.71547 0.0
C819 C 0.57298 0.3946 0.69206 0.0
C820 C 0.5785 0.3791 0.69861 0.0
C821 C 0.59882 0.3359 0.71202 0.0
C822 C 0.59122 0.35048 0.7083 0.0
H823 H 0.55699 0.40737 0.65349 0.0
H824 H 0.56459 0.38147 0.6648 0.0
H825 H 0.60517 0.40093 0.71567 0.0
H826 H 0.6104 0.31393 0.74693 0.0
H827 H 0.59916 0.33927 0.74112 0.0
C828 C 0.16673 0.60055 0.84742 0.0
C829 C 0.1534 0.58203 0.83756 0.0
C830 C 0.186 0.60422 0.85492 0.0
C831 C 0.21478 0.57906 0.87061 0.0
H832 H 0.2656 0.63013 0.85776 0.0
C833 C 0.29829 0.59223 0.88597 0.0
C834 C 0.31476 0.61243 0.89053 0.0
C835 C 0.27854 0.58869 0.87989 0.0
C836 C 0.2516 0.61596 0.86179 0.0
H837 H 0.14998 0.5527 0.82827 0.0
H838 H 0.18317 0.55886 0.84201 0.0
H839 H 0.23088 0.6236 0.84755 0.0
H840 H 0.32333 0.64477 0.89248 0.0
H841 H 0.28869 0.63858 0.88252 0.0
H842 H 0.23522 0.57153 0.88522 0.0
C843 C 0.17864 0.57052 0.84379 0.0
C844 C 0.23171 0.61221 0.85585 0.0
C845 C 0.15954 0.56697 0.83602 0.0
C846 C 0.31103 0.62904 0.88888 0.0
C847 C 0.29115 0.62547 0.88308 0.0
C848 C 0.23463 0.58295 0.87681 0.0
C849 C 0.19221 0.58932 0.85303 0.0
C850 C 0.21314 0.59366 0.86008 0.0
C851 C 0.2746 0.60524 0.87851 0.0
C852 C 0.25336 0.60136 0.87233 0.0
H853 H 0.16239 0.61233 0.84926 0.0
H854 H 0.19609 0.61874 0.86219 0.0
H855 H 0.20066 0.56472 0.87418 0.0
H856 H 0.30071 0.5791 0.88696 0.0
H857 H 0.26643 0.57297 0.87612 0.0
C858 C 0.615 0.16395 0.01966 0.0
C859 C 0.6022 0.16005 0.00413 0.0
C860 C 0.62733 0.18413 0.0268 0.0
C861 C 0.63502 0.237 0.02693 0.0
H862 H 0.69394 0.254 0.03677 0.0
C863 C 0.70076 0.32312 0.04077 0.0
C864 C 0.71681 0.32682 0.05345 0.0
C865 C 0.68558 0.30275 0.03537 0.0
C866 C 0.67748 0.24949 0.03438 0.0
H867 H 0.59188 0.17438 0.98433 0.0
H868 H 0.61315 0.20949 0.997 0.0
H869 H 0.66909 0.21838 0.02716 0.0
H870 H 0.72884 0.31193 0.07099 0.0
H871 H 0.70228 0.27675 0.06201 0.0
H872 H 0.64345 0.26818 0.03427 0.0
C873 C 0.61355 0.19689 0.00366 0.0
C874 C 0.66323 0.22903 0.02885 0.0
C875 C 0.6013 0.17672 0.99644 0.0
C876 C 0.71695 0.30973 0.06097 0.0
C877 C 0.70173 0.28948 0.05574 0.0
C878 C 0.64928 0.25751 0.03263 0.0
C879 C 0.62706 0.20087 0.01866 0.0
C880 C 0.64185 0.22254 0.02508 0.0
C881 C 0.68605 0.28568 0.04267 0.0
C882 C 0.6707 0.26399 0.03646 0.0
H883 H 0.61576 0.15144 0.02613 0.0
H884 H 0.63733 0.18669 0.03857 0.0
H885 H 0.61859 0.2324 0.02419 0.0
H886 H 0.7002 0.33595 0.03472 0.0
H887 H 0.67383 0.30042 0.02517 0.0
C888 C 0.43224 0.59864 0.18948 0.0
C889 C 0.44743 0.60305 0.1761 0.0
C890 C 0.42786 0.61391 0.19554 0.0
C891 C 0.41206 0.64453 0.19747 0.0
H892 H 0.45707 0.70214 0.20209 0.0
C893 C 0.39513 0.7119 0.20869 0.0
C894 C 0.40924 0.72853 0.22014 0.0
C895 C 0.39953 0.69631 0.20366 0.0
C896 C 0.4443 0.6861 0.20105 0.0
H897 H 0.4699 0.62696 0.15859 0.0
H898 H 0.46219 0.65348 0.169 0.0
H899 H 0.46573 0.67572 0.19374 0.0
H900 H 0.43875 0.74137 0.23569 0.0
H901 H 0.4461 0.71415 0.22727 0.0
H902 H 0.39071 0.65491 0.2053 0.0
C903 C 0.45394 0.63838 0.17513 0.0
C904 C 0.44925 0.67095 0.19602 0.0
C905 C 0.4584 0.62316 0.16916 0.0
C906 C 0.42763 0.72898 0.22666 0.0
C907 C 0.43193 0.71337 0.22175 0.0
C908 C 0.40712 0.65969 0.20261 0.0
C909 C 0.43847 0.63392 0.18828 0.0
C910 C 0.43321 0.64997 0.19411 0.0
C911 C 0.41807 0.69692 0.21005 0.0
C912 C 0.42318 0.68069 0.20446 0.0
H913 H 0.42366 0.58333 0.19521 0.0
H914 H 0.41615 0.61001 0.20593 0.0
H915 H 0.39924 0.62857 0.19591 0.0
H916 H 0.38084 0.71107 0.2034 0.0
H917 H 0.3886 0.68399 0.19448 0.0
C918 C 0.85348 0.46192 0.35104 0.0
C919 C 0.85532 0.44801 0.33922 0.0
C920 C 0.83376 0.45691 0.35807 0.0
C921 C 0.77952 0.41312 0.36613 0.0
H922 H 0.76446 0.45598 0.36532 0.0
C923 C 0.69435 0.39679 0.38085 0.0
C924 C 0.6928 0.41208 0.39096 0.0
C925 C 0.71412 0.40054 0.37482 0.0
C926 C 0.76848 0.44389 0.36587 0.0
H927 H 0.83775 0.41781 0.32565 0.0
H928 H 0.80347 0.40903 0.33808 0.0
H929 H 0.79926 0.46372 0.35504 0.0
H930 H 0.71106 0.44308 0.40305 0.0
H931 H 0.74523 0.44938 0.39282 0.0
H932 H 0.74871 0.3933 0.37704 0.0
C933 C 0.81734 0.42372 0.34205 0.0
C934 C 0.78846 0.44835 0.35997 0.0
C935 C 0.83703 0.42876 0.33496 0.0
C936 C 0.71152 0.43101 0.39511 0.0
C937 C 0.73119 0.43469 0.38916 0.0
C938 C 0.75952 0.40866 0.37211 0.0
C939 C 0.81542 0.43785 0.35349 0.0
C940 C 0.79424 0.43305 0.36007 0.0
C941 C 0.73275 0.41961 0.3788 0.0
C942 C 0.75379 0.42403 0.37211 0.0
H943 H 0.86728 0.47673 0.35482 0.0
H944 H 0.83285 0.46799 0.36709 0.0
H945 H 0.78358 0.40104 0.36651 0.0
H946 H 0.68028 0.38204 0.37741 0.0
H947 H 0.71474 0.38864 0.36674 0.0
C948 C 0.14359 0.56806 0.39815 0.0
C949 C 0.12426 0.56777 0.39691 0.0
C950 C 0.15634 0.57582 0.4137 0.0
C951 C 0.16504 0.60763 0.45565 0.0
H952 H 0.19772 0.58219 0.46961 0.0
C953 C 0.21165 0.62643 0.52387 0.0
C954 C 0.23127 0.62725 0.52355 0.0
C955 C 0.19835 0.61971 0.50851 0.0
C956 C 0.18869 0.58946 0.46599 0.0
H957 H 0.10299 0.57532 0.41084 0.0
H958 H 0.12483 0.58811 0.43848 0.0
H959 H 0.17413 0.56857 0.44354 0.0
H960 H 0.25343 0.62376 0.50676 0.0
H961 H 0.23037 0.61212 0.47991 0.0
H962 H 0.17934 0.62816 0.4786 0.0
C963 C 0.13048 0.58286 0.42727 0.0
C964 C 0.17526 0.58178 0.45084 0.0
C965 C 0.11787 0.57541 0.41152 0.0
C966 C 0.23797 0.62244 0.50746 0.0
C967 C 0.22477 0.61583 0.49211 0.0
C968 C 0.17823 0.61508 0.47107 0.0
C969 C 0.14989 0.58314 0.42857 0.0
C970 C 0.16343 0.59089 0.44529 0.0
C971 C 0.20467 0.61411 0.4925 0.0
C972 C 0.19031 0.60614 0.47635 0.0
H973 H 0.14906 0.56263 0.38691 0.0
H974 H 0.17141 0.57629 0.41391 0.0
H975 H 0.15647 0.61531 0.45167 0.0
H976 H 0.20642 0.6305 0.5361 0.0
H977 H 0.18294 0.61848 0.5093 0.0
C978 C 0.5696 0.12047 0.57791 0.0
C979 C 0.55569 0.11934 0.56413 0.0
C980 C 0.5712 0.13078 0.59426 0.0
C981 C 0.56555 0.17334 0.61212 0.0
H982 H 0.57178 0.15403 0.65877 0.0
C983 C 0.58123 0.20193 0.69209 0.0
C984 C 0.59909 0.22175 0.69012 0.0
C985 C 0.57271 0.18828 0.67716 0.0
C986 C 0.5699 0.15956 0.64587 0.0
H987 H 0.53214 0.1276 0.55683 0.0
H988 H 0.53499 0.14569 0.58545 0.0
H989 H 0.56234 0.13106 0.63214 0.0
H990 H 0.62087 0.2438 0.6711 0.0
H991 H 0.6061 0.22007 0.645 0.0
H992 H 0.57363 0.20199 0.62571 0.0
C993 C 0.54464 0.1386 0.58356 0.0
C994 C 0.56462 0.14647 0.63063 0.0
C995 C 0.54288 0.12811 0.56726 0.0
C996 C 0.60745 0.22831 0.67293 0.0
C997 C 0.59882 0.21483 0.658 0.0
C998 C 0.57106 0.18649 0.6273 0.0
C999 C 0.55907 0.14033 0.5971 0.0
C1000 C 0.56268 0.15334 0.61357 0.0
C1001 C 0.58158 0.19455 0.66 0.0
C1002 C 0.57363 0.17987 0.64428 0.0
H1003 H 0.57954 0.11372 0.57589 0.0
H1004 H 0.58258 0.13201 0.6044 0.0
H1005 H 0.56433 0.17912 0.59912 0.0
H1006 H 0.57428 0.19683 0.70523 0.0
H1007 H 0.55927 0.17283 0.67903 0.0
C1008 C 0.45646 0.56467 0.75336 0.0
C1009 C 0.46381 0.57983 0.73999 0.0
C1010 C 0.4465 0.56665 0.76871 0.0
C1011 C 0.41947 0.59431 0.7857 0.0
H1012 H 0.43081 0.57978 0.83281 0.0
C1013 C 0.39908 0.62086 0.85217 0.0
C1014 C 0.38945 0.60602 0.86566 0.0
C1015 C 0.40691 0.61634 0.83669 0.0
C1016 C 0.42733 0.58368 0.8197 0.0
H1017 H 0.46613 0.60884 0.73229 0.0
H1018 H 0.44972 0.6127 0.75924 0.0
H1019 H 0.44712 0.57442 0.80616 0.0
H1020 H 0.38049 0.57471 0.87335 0.0
H1021 H 0.39443 0.56697 0.84634 0.0
H1022 H 0.40014 0.60407 0.79934 0.0
C1023 C 0.45126 0.59907 0.75777 0.0
C1024 C 0.43662 0.58058 0.80442 0.0
C1025 C 0.46105 0.59703 0.74242 0.0
C1026 C 0.38778 0.58651 0.86324 0.0
C1027 C 0.39586 0.58209 0.84783 0.0
C1028 C 0.41036 0.59758 0.80097 0.0
C1029 C 0.4437 0.58385 0.77106 0.0
C1030 C 0.43299 0.58607 0.78725 0.0
C1031 C 0.40551 0.59696 0.83441 0.0
C1032 C 0.41435 0.59249 0.81814 0.0
H1033 H 0.45845 0.5513 0.752 0.0
H1034 H 0.44073 0.55454 0.77861 0.0
H1035 H 0.4159 0.59826 0.77265 0.0
H1036 H 0.4006 0.63603 0.85355 0.0
H1037 H 0.41445 0.62817 0.82663 0.0
C1038 C 0.88913 0.44616 0.90262 0.0
C1039 C 0.89516 0.46646 0.89742 0.0
C1040 C 0.87789 0.43807 0.91851 0.0
C1041 C 0.84027 0.44218 0.9474 0.0
H1042 H 0.85649 0.41614 0.98408 0.0
C1043 C 0.79735 0.41899 0.01523 0.0
C1044 C 0.79498 0.40133 0.02382 0.0
C1045 C 0.80973 0.42645 -0.00015 0.0
C1046 C 0.85148 0.42302 0.97384 0.0
H1047 H 0.89502 0.49448 0.90556 0.0
H1048 H 0.87476 0.48002 0.93285 0.0
H1049 H 0.87828 0.43002 0.95734 0.0
H1050 H 0.80348 0.3774 0.02278 0.0
H1051 H 0.82434 0.38986 0.9955 0.0
H1052 H 0.81317 0.43471 0.96332 0.0
C1053 C 0.87869 0.47042 0.92452 0.0
C1054 C 0.86408 0.43107 0.95859 0.0
C1055 C 0.89021 0.47863 0.90883 0.0
C1056 C 0.80507 0.39112 0.01652 0.0
C1057 C 0.81718 0.39838 0.00093 0.0
C1058 C 0.82749 0.43383 0.96244 0.0
C1059 C 0.87218 0.44999 0.92938 0.0
C1060 C 0.8587 0.44093 0.94535 0.0
C1061 C 0.81979 0.41624 0.99243 0.0
C1062 C 0.83303 0.42434 0.97601 0.0
H1063 H 0.89238 0.43621 0.89411 0.0
H1064 H 0.87294 0.42223 0.92195 0.0
H1065 H 0.8356 0.44941 0.93721 0.0
H1066 H 0.79005 0.4274 0.02063 0.0
H1067 H 0.8117 0.4405 0.994 0.0
C1068 C 0.43167 0.9019 0.07611 0.0
C1069 C 0.44899 0.90658 0.06496 0.0
C1070 C 0.4282 0.89032 0.09166 0.0
C1071 C 0.44284 0.85423 0.11282 0.0
H1072 H 0.41663 0.86303 0.15475 0.0
C1073 C 0.43432 0.81522 0.18198 0.0
C1074 C 0.4138 0.80558 0.1892 0.0
C1075 C 0.43909 0.82752 0.16674 0.0
C1076 C 0.42389 0.86038 0.14309 0.0
H1077 H 0.4765 0.90291 0.06184 0.0
H1078 H 0.4712 0.88393 0.08938 0.0
H1079 H 0.42495 0.88559 0.12897 0.0
H1080 H 0.38223 0.80134 0.18606 0.0
H1081 H 0.39076 0.82315 0.15966 0.0
H1082 H 0.44224 0.82933 0.12736 0.0
C1083 C 0.45986 0.88863 0.08584 0.0
C1084 C 0.42857 0.87322 0.12825 0.0
C1085 C 0.46314 0.89992 0.07014 0.0
C1086 C 0.39815 0.80842 0.18078 0.0
C1087 C 0.40304 0.82102 0.16576 0.0
C1088 C 0.43848 0.84163 0.1278 0.0
C1089 C 0.44215 0.88335 0.09667 0.0
C1090 C 0.43793 0.87021 0.11282 0.0
C1091 C 0.42357 0.83075 0.15865 0.0
C1092 C 0.42878 0.84447 0.14299 0.0
H1093 H 0.42061 0.90702 0.07278 0.0
H1094 H 0.41425 0.88642 0.09948 0.0
H1095 H 0.44964 0.8511 0.10111 0.0
H1096 H 0.44672 0.81334 0.18817 0.0
H1097 H 0.45506 0.83493 0.16152 0.0
C1098 C 0.54533 0.42803 0.23899 0.0
C1099 C 0.55146 0.44843 0.23415 0.0
C1100 C 0.55321 0.42431 0.25484 0.0
C1101 C 0.5784 0.44784 0.29906 0.0
H1102 H 0.59608 0.40686 0.2973 0.0
C1103 C 0.62377 0.43732 0.35826 0.0
C1104 C 0.61783 0.41685 0.36274 0.0
C1105 C 0.61582 0.44127 0.34256 0.0
C1106 C 0.591 0.41818 0.29808 0.0
H1107 H 0.57037 0.48089 0.24242 0.0
H1108 H 0.58436 0.4744 0.27003 0.0
H1109 H 0.58166 0.41358 0.27017 0.0
H1110 H 0.59886 0.38449 0.35402 0.0
H1111 H 0.5849 0.39142 0.32673 0.0
H1112 H 0.58772 0.45242 0.32699 0.0
C1113 C 0.57332 0.46127 0.26159 0.0
C1114 C 0.58272 0.42204 0.28253 0.0
C1115 C 0.56546 0.46501 0.24569 0.0
C1116 C 0.60386 0.40046 0.35101 0.0
C1117 C 0.59592 0.40443 0.33529 0.0
C1118 C 0.58666 0.44398 0.31463 0.0
C1119 C 0.56742 0.44088 0.26626 0.0
C1120 C 0.57629 0.43688 0.28284 0.0
C1121 C 0.60174 0.42488 0.33092 0.0
C1122 C 0.59305 0.42908 0.31433 0.0
H1123 H 0.53479 0.41492 0.2303 0.0
H1124 H 0.54814 0.40841 0.25815 0.0
H1125 H 0.57332 0.45918 0.29982 0.0
H1126 H 0.6345 0.45035 0.36693 0.0
H1127 H 0.62086 0.45723 0.33946 0.0
C1128 C 0.46278 0.90261 0.37956 0.0
C1129 C 0.45132 0.90925 0.39022 0.0
C1130 C 0.45446 0.89212 0.3631 0.0
C1131 C 0.40613 0.85524 0.34158 0.0
H1132 H 0.43624 0.87233 0.29644 0.0
C1133 C 0.39506 0.79889 0.2829 0.0
C1134 C 0.39292 0.80463 0.26545 0.0
C1135 C 0.39994 0.81273 0.29748 0.0
C1136 C 0.42762 0.86745 0.30892 0.0
H1137 H 0.42221 0.91051 0.39124 0.0
H1138 H 0.40725 0.89103 0.36289 0.0
H1139 H 0.44992 0.89565 0.32304 0.0
H1140 H 0.39278 0.82853 0.24945 0.0
H1141 H 0.40221 0.8533 0.275 0.0
H1142 H 0.38454 0.82655 0.32778 0.0
C1143 C 0.42284 0.89434 0.3674 0.0
C1144 C 0.43542 0.88075 0.32408 0.0
C1145 C 0.43138 0.90531 0.38371 0.0
C1146 C 0.39484 0.82406 0.26281 0.0
C1147 C 0.40017 0.83812 0.27736 0.0
C1148 C 0.39863 0.84174 0.32654 0.0
C1149 C 0.4343 0.88758 0.35705 0.0
C1150 C 0.42485 0.87463 0.34056 0.0
C1151 C 0.40283 0.83258 0.2948 0.0
C1152 C 0.40948 0.84762 0.31015 0.0
H1153 H 0.4779 0.90478 0.38417 0.0
H1154 H 0.46344 0.88678 0.35541 0.0
H1155 H 0.39784 0.85019 0.35422 0.0
H1156 H 0.39308 0.78372 0.28524 0.0
H1157 H 0.40204 0.80814 0.31078 0.0
C1158 C 0.55017 0.44296 0.5614 0.0
C1159 C 0.56386 0.46388 0.56657 0.0
C1160 C 0.55311 0.43505 0.5451 0.0
C1161 C 0.59605 0.44499 0.5143 0.0
H1162 H 0.5511 0.40474 0.48244 0.0
C1163 C 0.61493 0.40392 0.45775 0.0
C1164 C 0.6043 0.40056 0.44112 0.0
C1165 C 0.60829 0.41023 0.47294 0.0
C1166 C 0.56388 0.41611 0.4911 0.0
H1167 H 0.59031 0.49325 0.55813 0.0
H1168 H 0.59541 0.47951 0.52974 0.0
H1169 H 0.54226 0.41962 0.50824 0.0
H1170 H 0.57764 0.39966 0.42735 0.0
H1171 H 0.56651 0.4118 0.45369 0.0
H1172 H 0.61767 0.4416 0.49759 0.0
C1173 C 0.5827 0.4691 0.53843 0.0
C1174 C 0.55877 0.42448 0.50597 0.0
C1175 C 0.57978 0.47697 0.55468 0.0
C1176 C 0.58625 0.40256 0.44005 0.0
C1177 C 0.57981 0.40931 0.45519 0.0
C1178 C 0.60112 0.43656 0.4996 0.0
C1179 C 0.56979 0.44793 0.5337 0.0
C1180 C 0.57484 0.43912 0.51766 0.0
C1181 C 0.59096 0.41354 0.4718 0.0
C1182 C 0.58518 0.42208 0.48769 0.0
H1183 H 0.53787 0.43244 0.57034 0.0
H1184 H 0.54298 0.41865 0.54188 0.0
H1185 H 0.60879 0.45592 0.52325 0.0
H1186 H 0.62849 0.40176 0.45897 0.0
H1187 H 0.6169 0.41263 0.48555 0.0
C1188 C 0.11601 0.56127 0.71286 0.0
C1189 C 0.11849 0.5776 0.72431 0.0
C1190 C 0.12873 0.56537 0.69767 0.0
C1191 C 0.18008 0.60539 0.67927 0.0
H1192 H 0.15658 0.5756 0.63382 0.0
C1193 C 0.22769 0.62846 0.61315 0.0
C1194 C 0.22562 0.61225 0.60176 0.0
C1195 C 0.21469 0.62418 0.62816 0.0
C1196 C 0.16345 0.5839 0.64648 0.0
H1197 H 0.13641 0.61105 0.72873 0.0
H1198 H 0.15811 0.61818 0.7021 0.0
H1199 H 0.13347 0.56809 0.65967 0.0
H1200 H 0.20824 0.57873 0.59744 0.0
H1201 H 0.18584 0.57136 0.62363 0.0
H1202 H 0.21005 0.62121 0.66608 0.0
C1203 C 0.1465 0.60219 0.70494 0.0
C1204 C 0.15019 0.57959 0.66129 0.0
C1205 C 0.13382 0.59811 0.72008 0.0
C1206 C 0.21033 0.59166 0.60586 0.0
C1207 C 0.19733 0.5874 0.62083 0.0
C1208 C 0.19333 0.60971 0.66446 0.0
C1209 C 0.14427 0.58588 0.69363 0.0
C1210 C 0.15834 0.59031 0.67786 0.0
C1211 C 0.19927 0.6036 0.63211 0.0
C1212 C 0.18518 0.59902 0.64788 0.0
H1213 H 0.10427 0.54531 0.71566 0.0
H1214 H 0.12669 0.55243 0.68932 0.0
H1215 H 0.18697 0.61368 0.69192 0.0
H1216 H 0.23923 0.6445 0.61041 0.0
H1217 H 0.21645 0.63704 0.63648 0.0
C1218 C 0.58177 0.11563 0.87651 0.0
C1219 C 0.57068 0.11826 0.89076 0.0
C1220 C 0.58579 0.12704 0.8608 0.0
C1221 C 0.59141 0.17591 0.84473 0.0
H1222 H 0.59057 0.15238 0.79748 0.0
C1223 C 0.60792 0.22218 0.7789 0.0
C1224 C 0.62072 0.21973 0.76614 0.0
C1225 C 0.60076 0.20961 0.79403 0.0
C1226 C 0.59106 0.15922 0.81061 0.0
H1227 H 0.55461 0.13455 0.89948 0.0
H1228 H 0.56128 0.1542 0.87188 0.0
H1229 H 0.57886 0.13005 0.82362 0.0
H1230 H 0.63627 0.20224 0.75955 0.0
H1231 H 0.62397 0.18057 0.78596 0.0
H1232 H 0.60378 0.20511 0.83172 0.0
C1233 C 0.56711 0.14349 0.87297 0.0
C1234 C 0.58432 0.14642 0.82558 0.0
C1235 C 0.56306 0.13204 0.88869 0.0
C1236 C 0.62642 0.20459 0.76904 0.0
C1237 C 0.61922 0.19202 0.78412 0.0
C1238 C 0.59812 0.18871 0.82975 0.0
C1239 C 0.57882 0.14136 0.85897 0.0
C1240 C 0.58462 0.15465 0.84285 0.0
C1241 C 0.60618 0.19426 0.79672 0.0
C1242 C 0.59824 0.18055 0.81255 0.0
H1243 H 0.58766 0.10497 0.87762 0.0
H1244 H 0.595 0.12512 0.85035 0.0
H1245 H 0.59214 0.18281 0.85789 0.0
H1246 H 0.60316 0.23363 0.77711 0.0
H1247 H 0.59061 0.21163 0.80342 0.0
C1248 C 0.4438 0.55788 0.05064 0.0
C1249 C 0.45469 0.57097 0.06559 0.0
C1250 C 0.43998 0.56591 0.03507 0.0
C1251 C 0.43491 0.61022 0.02067 0.0
H1252 H 0.43569 0.58964 0.97247 0.0
C1253 C 0.39506 0.6243 0.95958 0.0
C1254 C 0.40483 0.6275 0.9428 0.0
C1255 C 0.40306 0.619 0.97443 0.0
C1256 C 0.4356 0.5957 0.98582 0.0
H1257 H 0.47052 0.60291 0.07566 0.0
H1258 H 0.46444 0.61694 0.04837 0.0
H1259 H 0.44684 0.57727 0.99823 0.0
H1260 H 0.43158 0.62965 0.92851 0.0
H1261 H 0.4457 0.62024 0.9545 0.0
H1262 H 0.42386 0.62876 0.00832 0.0
C1263 C 0.45854 0.6004 0.04879 0.0
C1264 C 0.44177 0.58844 0.0006 0.0
C1265 C 0.4623 0.59238 0.06435 0.0
C1266 C 0.4235 0.62664 0.94127 0.0
C1267 C 0.43148 0.6212 0.9561 0.0
C1268 C 0.42875 0.61746 0.00592 0.0
C1269 C 0.44699 0.58722 0.03409 0.0
C1270 C 0.44137 0.59552 0.01822 0.0
C1271 C 0.42116 0.61704 0.97279 0.0
C1272 C 0.42883 0.61016 0.98834 0.0
H1273 H 0.43793 0.54135 0.05107 0.0
H1274 H 0.43092 0.5553 0.02404 0.0
H1275 H 0.43415 0.61581 0.03407 0.0
H1276 H 0.38102 0.6256 0.96113 0.0
H1277 H 0.39465 0.61581 0.98703 0.0
C1278 C 0.89878 0.45567 0.21126 0.0
C1279 C 0.8973 0.46684 0.22608 0.0
C1280 C 0.88737 0.45319 0.19527 0.0
C1281 C 0.83903 0.45192 0.17944 0.0
H1282 H 0.86066 0.45163 0.13187 0.0
C1283 C 0.78436 0.41116 0.11793 0.0
C1284 C 0.7907 0.42016 0.10099 0.0
C1285 C 0.79789 0.41981 0.13294 0.0
C1286 C 0.85445 0.45187 0.14503 0.0
H1287 H 0.88305 0.48461 0.23553 0.0
H1288 H 0.86348 0.48059 0.20755 0.0
H1289 H 0.88443 0.4618 0.15822 0.0
H1290 H 0.81512 0.44606 0.08648 0.0
H1291 H 0.83919 0.46125 0.11281 0.0
H1292 H 0.80904 0.44181 0.16634 0.0
C1293 C 0.87331 0.47357 0.20836 0.0
C1294 C 0.86801 0.4575 0.16014 0.0
C1295 C 0.88473 0.47607 0.22433 0.0
C1296 C 0.81022 0.43866 0.09941 0.0
C1297 C 0.82393 0.44726 0.11442 0.0
C1298 C 0.82547 0.44619 0.16437 0.0
C1299 C 0.87419 0.46179 0.19377 0.0
C1300 C 0.86037 0.45734 0.17753 0.0
C1301 C 0.818 0.43774 0.1313 0.0
C1302 C 0.83293 0.44578 0.14703 0.0
H1303 H 0.90851 0.44855 0.21212 0.0
H1304 H 0.88827 0.44389 0.18432 0.0
H1305 H 0.83258 0.45144 0.19266 0.0
H1306 H 0.76904 0.39719 0.11948 0.0
H1307 H 0.79289 0.41199 0.14568 0.0
loop_
_geom_bond_atom_site_label_1
_geom_bond_atom_site_label_2
_geom_bond_distance
_geom_bond_site_symmetry_2
_ccdc_geom_bond_type
H0 C27 0.929 . S
N1 C26 1.433 . S
N1 C32 1.435 . S
N1 C38 1.423 . S
H2 C28 0.930 . S
H3 C31 0.931 . S
H4 C30 0.929 . S
H5 C33 0.930 . S
H6 C34 0.932 . S
H7 C37 0.929 . S
H8 C36 0.931 . S
H9 C39 0.929 . S
H10 C43 0.932 . S
H11 C40 0.931 . S
H12 C42 0.929 . S
H13 C45 0.929 . S
H14 C46 0.930 . S
H15 C48 0.929 . S
H16 C49 0.931 . S
H17 C51 0.930 . S
H18 C52 0.932 . S
H19 C54 0.931 . S
H20 C55 0.929 . S
H21 C57 0.929 . S
H22 C58 0.931 . S
H23 C60 0.929 . S
N24 C44 1.433 . S
N24 C50 1.435 . S
N24 C56 1.423 . S
H25 C61 0.932 . S
C26 N1 1.433 . S
C26 C27 1.363 . S
C26 C31 1.370 . S
C27 H0 0.929 . S
C27 C26 1.363 . S
C27 C28 1.385 . S
C28 H2 0.930 . S
C28 C27 1.385 . S
C28 C29 1.357 . S
C29 C28 1.357 . S
C29 C30 1.406 . S
C30 H4 0.929 . S
C30 C29 1.406 . S
C30 C31 1.391 . S
C31 H3 0.931 . S
C31 C26 1.370 . S
C31 C30 1.391 . S
C32 N1 1.435 . S
C32 C33 1.358 . S
C32 C37 1.371 . S
C33 H5 0.930 . S
C33 C32 1.358 . S
C33 C34 1.405 . S
C34 H6 0.932 . S
C34 C33 1.405 . S
C34 C35 1.383 . S
C35 C34 1.383 . S
C35 C36 1.393 . S
C36 H8 0.931 . S
C36 C35 1.393 . S
C36 C37 1.382 . S
C37 H7 0.929 . S
C37 C32 1.371 . S
C37 C36 1.382 . S
C38 N1 1.423 . S
C38 C39 1.362 . S
C38 C43 1.388 . S
C39 H9 0.929 . S
C39 C38 1.362 . S
C39 C40 1.376 . S
C40 H11 0.931 . S
C40 C39 1.376 . S
C40 C41 1.396 . S
C41 C40 1.396 . S
C41 C42 1.348 . S
C41 C59 1.472 1_455 S
C42 H12 0.929 . S
C42 C41 1.348 . S
C42 C43 1.443 . S
C43 H10 0.932 . S
C43 C38 1.388 . S
C43 C42 1.443 . S
C44 N24 1.433 . S
C44 C45 1.363 . S
C44 C49 1.370 . S
C45 H13 0.929 . S
C45 C44 1.363 . S
C45 C46 1.385 . S
C46 H14 0.930 . S
C46 C45 1.385 . S
C46 C47 1.357 . S
C47 C46 1.357 . S
C47 C48 1.406 . S
C48 H15 0.929 . S
C48 C47 1.406 . S
C48 C49 1.391 . S
C49 H16 0.931 . S
C49 C44 1.370 . S
C49 C48 1.391 . S
C50 N24 1.435 . S
C50 C51 1.358 . S
C50 C55 1.371 . S
C51 H17 0.930 . S
C51 C50 1.358 . S
C51 C52 1.405 . S
C52 H18 0.932 . S
C52 C51 1.405 . S
C52 C53 1.383 . S
C53 C52 1.383 . S
C53 C54 1.393 . S
C54 H19 0.931 . S
C54 C53 1.393 . S
C54 C55 1.382 . S
C55 H20 0.929 . S
C55 C50 1.371 . S
C55 C54 1.382 . S
C56 N24 1.423 . S
C56 C57 1.362 . S
C56 C61 1.388 . S
C57 H21 0.929 . S
C57 C56 1.362 . S
C57 C58 1.376 . S
C58 H22 0.931 . S
C58 C57 1.376 . S
C58 C59 1.396 . S
C59 C41 1.472 1_655 S
C59 C58 1.396 . S
C59 C60 1.348 . S
C60 H23 0.929 . S
C60 C59 1.348 . S
C60 C61 1.443 . S
C61 H25 0.932 . S
C61 C56 1.388 . S
C61 C60 1.443 . S
H62 C89 0.929 . S
N63 C88 1.433 . S
N63 C94 1.435 . S
N63 C100 1.423 . S
H64 C90 0.930 . S
H65 C93 0.931 . S
H66 C92 0.929 . S
H67 C95 0.930 . S
H68 C96 0.932 . S
H69 C99 0.929 . S
H70 C98 0.931 . S
H71 C101 0.929 . S
H72 C105 0.932 . S
H73 C102 0.931 . S
H74 C104 0.923 1_545 S
H75 C107 0.929 . S
H76 C108 0.930 . S
H77 C110 0.929 . S
H78 C111 0.931 . S
H79 C113 0.930 . S
H80 C114 0.932 . S
H81 C116 0.931 . S
H82 C117 0.929 . S
H83 C119 0.929 . S
H84 C120 0.931 . S
H85 C122 0.929 . S
N86 C106 1.433 . S
N86 C112 1.435 . S
N86 C118 1.423 . S
H87 C123 0.932 . S
C88 N63 1.433 . S
C88 C89 1.363 . S
C88 C93 1.370 . S
C89 H62 0.929 . S
C89 C88 1.363 . S
C89 C90 1.385 . S
C90 H64 0.930 . S
C90 C89 1.385 . S
C90 C91 1.357 . S
C91 C90 1.357 . S
C91 C92 1.406 . S
C92 H66 0.929 . S
C92 C91 1.406 . S
C92 C93 1.391 . S
C93 H65 0.931 . S
C93 C88 1.370 . S
C93 C92 1.391 . S
C94 N63 1.435 . S
C94 C95 1.358 . S
C94 C99 1.371 . S
C95 H67 0.930 . S
C95 C94 1.358 . S
C95 C96 1.405 . S
C96 H68 0.932 . S
C96 C95 1.405 . S
C96 C97 1.383 . S
C97 C96 1.383 . S
C97 C98 1.393 . S
C98 H70 0.931 . S
C98 C97 1.393 . S
C98 C99 1.382 . S
C99 H69 0.929 . S
C99 C94 1.371 . S
C99 C98 1.382 . S
C100 N63 1.423 . S
C100 C101 1.362 . S
C100 C105 1.388 . S
C101 H71 0.929 . S
C101 C100 1.362 . S
C101 C102 1.376 . S
C102 H73 0.931 . S
C102 C101 1.376 . S
C102 C103 1.396 1_565 S
C103 C102 1.396 1_545 S
C103 C104 1.348 1_545 S
C103 C121 1.472 . S
C104 H74 0.923 1_565 S
C104 C103 1.348 1_565 S
C104 C105 1.449 . S
C105 H72 0.932 . S
C105 C100 1.388 . S
C105 C104 1.449 . S
C106 N86 1.433 . S
C106 C107 1.363 . S
C106 C111 1.370 . S
C107 H75 0.929 . S
C107 C106 1.363 . S
C107 C108 1.385 . S
C108 H76 0.930 . S
C108 C107 1.385 . S
C108 C109 1.357 . S
C109 C108 1.357 . S
C109 C110 1.406 . S
C110 H77 0.929 . S
C110 C109 1.406 . S
C110 C111 1.391 . S
C111 H78 0.931 . S
C111 C106 1.370 . S
C111 C110 1.391 . S
C112 N86 1.435 . S
C112 C113 1.358 . S
C112 C117 1.371 . S
C113 H79 0.930 . S
C113 C112 1.358 . S
C113 C114 1.405 . S
C114 H80 0.932 . S
C114 C113 1.405 . S
C114 C115 1.383 . S
C115 C114 1.383 . S
C115 C116 1.393 . S
C116 H81 0.931 . S
C116 C115 1.393 . S
C116 C117 1.382 . S
C117 H82 0.929 . S
C117 C112 1.371 . S
C117 C116 1.382 . S
C118 N86 1.423 . S
C118 C119 1.362 . S
C118 C123 1.388 . S
C119 H83 0.929 . S
C119 C118 1.362 . S
C119 C120 1.376 . S
C120 H84 0.931 . S
C120 C119 1.376 . S
C120 C121 1.396 . S
C121 C103 1.472 . S
C121 C120 1.396 . S
C121 C122 1.348 . S
C122 H85 0.929 . S
C122 C121 1.348 . S
C122 C123 1.443 . S
C123 H87 0.932 . S
C123 C118 1.388 . S
C123 C122 1.443 . S
H124 C151 0.929 . S
N125 C150 1.433 . S
N125 C156 1.435 . S
N125 C162 1.423 . S
H126 C152 0.930 . S
H127 C155 0.931 . S
H128 C154 0.929 . S
H129 C157 0.930 . S
H130 C158 0.932 . S
H131 C161 0.929 . S
H132 C160 0.931 . S
H133 C163 0.929 . S
H134 C167 0.932 . S
H135 C164 0.931 . S
H136 C166 0.929 . S
H137 C169 0.929 . S
H138 C170 0.930 . S
H139 C172 0.929 . S
H140 C173 0.931 . S
H141 C175 0.930 . S
H142 C176 0.932 . S
H143 C178 0.931 . S
H144 C179 0.929 . S
H145 C181 0.929 . S
H146 C182 0.931 . S
H147 C184 0.929 . S
N148 C168 1.433 . S
N148 C174 1.435 . S
N148 C180 1.423 . S
H149 C185 0.932 . S
C150 N125 1.433 . S
C150 C151 1.363 . S
C150 C155 1.370 . S
C151 H124 0.929 . S
C151 C150 1.363 . S
C151 C152 1.385 . S
C152 H126 0.930 . S
C152 C151 1.385 . S
C152 C153 1.357 . S
C153 C152 1.357 . S
C153 C154 1.406 . S
C154 H128 0.929 . S
C154 C153 1.406 . S
C154 C155 1.391 . S
C155 H127 0.931 . S
C155 C150 1.370 . S
C155 C154 1.391 . S
C156 N125 1.435 . S
C156 C157 1.358 . S
C156 C161 1.371 . S
C157 H129 0.930 . S
C157 C156 1.358 . S
C157 C158 1.405 . S
C158 H130 0.932 . S
C158 C157 1.405 . S
C158 C159 1.383 . S
C159 C158 1.383 . S
C159 C160 1.393 . S
C160 H132 0.931 . S
C160 C159 1.393 . S
C160 C161 1.382 . S
C161 H131 0.929 . S
C161 C156 1.371 . S
C161 C160 1.382 . S
C162 N125 1.423 . S
C162 C163 1.362 . S
C162 C167 1.388 . S
C163 H133 0.929 . S
C163 C162 1.362 . S
C163 C164 1.376 . S
C164 H135 0.931 . S
C164 C163 1.376 . S
C164 C165 1.396 . S
C165 C164 1.396 . S
C165 C166 1.348 . S
C165 C183 1.472 . S
C166 H136 0.929 . S
C166 C165 1.348 . S
C166 C167 1.443 . S
C167 H134 0.932 . S
C167 C162 1.388 . S
C167 C166 1.443 . S
C168 N148 1.433 . S
C168 C169 1.363 . S
C168 C173 1.370 . S
C169 H137 0.929 . S
C169 C168 1.363 . S
C169 C170 1.385 . S
C170 H138 0.930 . S
C170 C169 1.385 . S
C170 C171 1.357 . S
C171 C170 1.357 . S
C171 C172 1.406 . S
C172 H139 0.929 . S
C172 C171 1.406 . S
C172 C173 1.391 . S
C173 H140 0.931 . S
C173 C168 1.370 . S
C173 C172 1.391 . S
C174 N148 1.435 . S
C174 C175 1.358 . S
C174 C179 1.371 . S
C175 H141 0.930 . S
C175 C174 1.358 . S
C175 C176 1.405 . S
C176 H142 0.932 . S
C176 C175 1.405 . S
C176 C177 1.383 . S
C177 C176 1.383 . S
C177 C178 1.393 . S
C178 H143 0.931 . S
C178 C177 1.393 . S
C178 C179 1.382 . S
C179 H144 0.929 . S
C179 C174 1.371 . S
C179 C178 1.382 . S
C180 N148 1.423 . S
C180 C181 1.362 . S
C180 C185 1.388 . S
C181 H145 0.929 . S
C181 C180 1.362 . S
C181 C182 1.376 . S
C182 H146 0.931 . S
C182 C181 1.376 . S
C182 C183 1.396 . S
C183 C165 1.472 . S
C183 C182 1.396 . S
C183 C184 1.348 . S
C184 H147 0.929 . S
C184 C183 1.348 . S
C184 C185 1.443 . S
C185 H149 0.932 . S
C185 C180 1.388 . S
C185 C184 1.443 . S
H186 C213 0.929 . S
N187 C212 1.433 . S
N187 C218 1.435 . S
N187 C224 1.423 . S
H188 C214 0.930 . S
H189 C217 0.931 . S
H190 C216 0.929 . S
H191 C219 0.930 . S
H192 C220 0.932 . S
H193 C223 0.929 . S
H194 C222 0.931 . S
H195 C225 0.929 . S
H196 C229 0.932 . S
H197 C226 0.931 . S
H198 C228 0.929 . S
H199 C231 0.929 . S
H200 C232 0.930 . S
H201 C234 0.929 . S
H202 C235 0.931 . S
H203 C237 0.930 . S
H204 C238 0.932 . S
H205 C240 0.931 . S
H206 C241 0.929 . S
H207 C243 0.929 . S
H208 C244 0.931 . S
H209 C246 0.929 . S
N210 C230 1.433 . S
N210 C236 1.435 . S
N210 C242 1.423 . S
H211 C247 0.932 . S
C212 N187 1.433 . S
C212 C213 1.363 . S
C212 C217 1.370 . S
C213 H186 0.929 . S
C213 C212 1.363 . S
C213 C214 1.385 . S
C214 H188 0.930 . S
C214 C213 1.385 . S
C214 C215 1.357 . S
C215 C214 1.357 . S
C215 C216 1.406 . S
C216 H190 0.929 . S
C216 C215 1.406 . S
C216 C217 1.391 . S
C217 H189 0.931 . S
C217 C212 1.370 . S
C217 C216 1.391 . S
C218 N187 1.435 . S
C218 C219 1.358 . S
C218 C223 1.371 . S
C219 H191 0.930 . S
C219 C218 1.358 . S
C219 C220 1.405 . S
C220 H192 0.932 . S
C220 C219 1.405 . S
C220 C221 1.383 . S
C221 C220 1.383 . S
C221 C222 1.393 . S
C222 H194 0.931 . S
C222 C221 1.393 . S
C222 C223 1.382 . S
C223 H193 0.929 . S
C223 C218 1.371 . S
C223 C222 1.382 . S
C224 N187 1.423 . S
C224 C225 1.362 . S
C224 C229 1.388 . S
C225 H195 0.929 . S
C225 C224 1.362 . S
C225 C226 1.376 . S
C226 H197 0.931 . S
C226 C225 1.376 . S
C226 C227 1.396 . S
C227 C226 1.396 . S
C227 C228 1.348 . S
C227 C245 1.472 1_455 S
C228 H198 0.929 . S
C228 C227 1.348 . S
C228 C229 1.443 . S
C229 H196 0.932 . S
C229 C224 1.388 . S
C229 C228 1.443 . S
C230 N210 1.433 . S
C230 C231 1.363 . S
C230 C235 1.370 . S
C231 H199 0.929 . S
C231 C230 1.363 . S
C231 C232 1.385 . S
C232 H200 0.930 . S
C232 C231 1.385 . S
C232 C233 1.357 . S
C233 C232 1.357 . S
C233 C234 1.406 . S
C234 H201 0.929 . S
C234 C233 1.406 . S
C234 C235 1.391 . S
C235 H202 0.931 . S
C235 C230 1.370 . S
C235 C234 1.391 . S
C236 N210 1.435 . S
C236 C237 1.358 . S
C236 C241 1.371 . S
C237 H203 0.930 . S
C237 C236 1.358 . S
C237 C238 1.405 . S
C238 H204 0.932 . S
C238 C237 1.405 . S
C238 C239 1.383 . S
C239 C238 1.383 . S
C239 C240 1.393 . S
C240 H205 0.931 . S
C240 C239 1.393 . S
C240 C241 1.382 . S
C241 H206 0.929 . S
C241 C236 1.371 . S
C241 C240 1.382 . S
C242 N210 1.423 . S
C242 C243 1.362 . S
C242 C247 1.388 . S
C243 H207 0.929 . S
C243 C242 1.362 . S
C243 C244 1.376 . S
C244 H208 0.931 . S
C244 C243 1.376 . S
C244 C245 1.396 . S
C245 C227 1.472 1_655 S
C245 C244 1.396 . S
C245 C246 1.348 . S
C246 H209 0.929 . S
C246 C245 1.348 . S
C246 C247 1.443 . S
C247 H211 0.932 . S
C247 C242 1.388 . S
C247 C246 1.443 . S
H248 C275 0.929 . S
N249 C274 1.433 . S
N249 C280 1.435 . S
N249 C286 1.423 . S
H250 C276 0.930 . S
H251 C279 0.931 . S
H252 C278 0.929 . S
H253 C281 0.930 . S
H254 C282 0.932 . S
H255 C285 0.929 . S
H256 C284 0.931 . S
H257 C287 0.929 . S
H258 C291 0.932 . S
H259 C288 0.931 . S
H260 C290 0.929 . S
H261 C293 0.929 . S
H262 C294 0.930 . S
H263 C296 0.929 . S
H264 C297 0.931 . S
H265 C299 0.930 1_554 S
H266 C300 0.932 . S
H267 C302 0.931 . S
H268 C303 0.929 . S
H269 C305 0.929 . S
H270 C306 0.931 1_544 S
H271 C308 0.929 . S
N272 C292 1.433 . S
N272 C298 1.435 1_554 S
N272 C304 1.423 1_554 S
H273 C309 0.932 . S
C274 N249 1.433 . S
C274 C275 1.363 . S
C274 C279 1.370 . S
C275 H248 0.929 . S
C275 C274 1.363 . S
C275 C276 1.385 . S
C276 H250 0.930 . S
C276 C275 1.385 . S
C276 C277 1.357 1_556 S
C277 C276 1.357 1_554 S
C277 C278 1.406 . S
C278 H252 0.929 . S
C278 C277 1.406 . S
C278 C279 1.391 1_554 S
C279 H251 0.931 . S
C279 C274 1.370 . S
C279 C278 1.391 1_556 S
C280 N249 1.435 . S
C280 C281 1.358 . S
C280 C285 1.371 . S
C281 H253 0.930 . S
C281 C280 1.358 . S
C281 C282 1.405 . S
C282 H254 0.932 . S
C282 C281 1.405 . S
C282 C283 1.383 . S
C283 C282 1.383 . S
C283 C284 1.393 . S
C284 H256 0.931 . S
C284 C283 1.393 . S
C284 C285 1.382 . S
C285 H255 0.929 . S
C285 C280 1.371 . S
C285 C284 1.382 . S
C286 N249 1.423 . S
C286 C287 1.362 . S
C286 C291 1.388 . S
C287 H257 0.929 . S
C287 C286 1.362 . S
C287 C288 1.376 . S
C288 H259 0.931 . S
C288 C287 1.376 . S
C288 C289 1.396 . S
C289 C288 1.396 . S
C289 C290 1.348 . S
C289 C307 1.472 . S
C290 H260 0.929 . S
C290 C289 1.348 . S
C290 C291 1.443 . S
C291 H258 0.932 . S
C291 C286 1.388 . S
C291 C290 1.443 . S
C292 N272 1.433 . S
C292 C293 1.363 . S
C292 C297 1.370 . S
C293 H261 0.929 . S
C293 C292 1.363 . S
C293 C294 1.385 . S
C294 H262 0.930 . S
C294 C293 1.385 . S
C294 C295 1.357 . S
C295 C294 1.357 . S
C295 C296 1.406 . S
C296 H263 0.929 . S
C296 C295 1.406 . S
C296 C297 1.391 . S
C297 H264 0.931 . S
C297 C292 1.370 . S
C297 C296 1.391 . S
C298 N272 1.435 1_556 S
C298 C299 1.358 . S
C298 C303 1.371 . S
C299 H265 0.930 1_556 S
C299 C298 1.358 . S
C299 C300 1.405 . S
C300 H266 0.932 . S
C300 C299 1.405 . S
C300 C301 1.383 . S
C301 C300 1.383 . S
C301 C302 1.393 . S
C302 H267 0.931 . S
C302 C301 1.393 . S
C302 C303 1.382 . S
C303 H268 0.929 . S
C303 C298 1.371 . S
C303 C302 1.382 . S
C304 N272 1.423 1_556 S
C304 C305 1.362 1_556 S
C304 C309 1.388 . S
C305 H269 0.929 . S
C305 C304 1.362 1_554 S
C305 C306 1.376 1_554 S
C306 H270 0.931 1_566 S
C306 C305 1.376 1_556 S
C306 C307 1.396 1_565 S
C307 C289 1.472 . S
C307 C306 1.396 1_545 S
C307 C308 1.348 1_545 S
C308 H271 0.929 . S
C308 C307 1.348 1_565 S
C308 C309 1.443 . S
C309 H273 0.932 . S
C309 C304 1.388 . S
C309 C308 1.443 . S
H310 C337 0.929 . S
N311 C336 1.433 . S
N311 C342 1.435 . S
N311 C348 1.423 . S
H312 C338 0.930 . S
H313 C341 0.931 . S
H314 C340 0.929 . S
H315 C343 0.930 . S
H316 C344 0.932 . S
H317 C347 0.929 . S
H318 C346 0.931 . S
H319 C349 0.929 . S
H320 C353 0.932 . S
H321 C350 0.931 . S
H322 C352 0.929 . S
H323 C355 0.929 . S
H324 C356 0.930 . S
H325 C358 0.929 . S
H326 C359 0.931 . S
H327 C361 0.930 . S
H328 C362 0.932 . S
H329 C364 0.931 . S
H330 C365 0.929 . S
H331 C367 0.929 . S
H332 C368 0.931 . S
H333 C370 0.929 . S
N334 C354 1.433 . S
N334 C360 1.435 . S
N334 C366 1.423 . S
H335 C371 0.932 . S
C336 N311 1.433 . S
C336 C337 1.363 . S
C336 C341 1.370 . S
C337 H310 0.929 . S
C337 C336 1.363 . S
C337 C338 1.385 . S
C338 H312 0.930 . S
C338 C337 1.385 . S
C338 C339 1.357 . S
C339 C338 1.357 . S
C339 C340 1.406 . S
C340 H314 0.929 . S
C340 C339 1.406 . S
C340 C341 1.391 . S
C341 H313 0.931 . S
C341 C336 1.370 . S
C341 C340 1.391 . S
C342 N311 1.435 . S
C342 C343 1.358 . S
C342 C347 1.371 . S
C343 H315 0.930 . S
C343 C342 1.358 . S
C343 C344 1.405 . S
C344 H316 0.932 . S
C344 C343 1.405 . S
C344 C345 1.383 . S
C345 C344 1.383 . S
C345 C346 1.393 . S
C346 H318 0.931 . S
C346 C345 1.393 . S
C346 C347 1.382 . S
C347 H317 0.929 . S
C347 C342 1.371 . S
C347 C346 1.382 . S
C348 N311 1.423 . S
C348 C349 1.362 . S
C348 C353 1.388 . S
C349 H319 0.929 . S
C349 C348 1.362 . S
C349 C350 1.376 . S
C350 H321 0.931 . S
C350 C349 1.376 . S
C350 C351 1.396 . S
C351 C350 1.396 . S
C351 C352 1.348 . S
C351 C369 1.472 . S
C352 H322 0.929 . S
C352 C351 1.348 . S
C352 C353 1.443 . S
C353 H320 0.932 . S
C353 C348 1.388 . S
C353 C352 1.443 . S
C354 N334 1.433 . S
C354 C355 1.363 . S
C354 C359 1.370 . S
C355 H323 0.929 . S
C355 C354 1.363 . S
C355 C356 1.385 . S
C356 H324 0.930 . S
C356 C355 1.385 . S
C356 C357 1.357 . S
C357 C356 1.357 . S
C357 C358 1.406 . S
C358 H325 0.929 . S
C358 C357 1.406 . S
C358 C359 1.391 . S
C359 H326 0.931 . S
C359 C354 1.370 . S
C359 C358 1.391 . S
C360 N334 1.435 . S
C360 C361 1.358 . S
C360 C365 1.371 . S
C361 H327 0.930 . S
C361 C360 1.358 . S
C361 C362 1.405 . S
C362 H328 0.932 . S
C362 C361 1.405 . S
C362 C363 1.383 . S
C363 C362 1.383 . S
C363 C364 1.393 . S
C364 H329 0.931 . S
C364 C363 1.393 . S
C364 C365 1.382 . S
C365 H330 0.929 . S
C365 C360 1.371 . S
C365 C364 1.382 . S
C366 N334 1.423 . S
C366 C367 1.362 . S
C366 C371 1.388 . S
C367 H331 0.929 . S
C367 C366 1.362 . S
C367 C368 1.376 . S
C368 H332 0.931 . S
C368 C367 1.376 . S
C368 C369 1.396 . S
C369 C351 1.472 . S
C369 C368 1.396 . S
C369 C370 1.348 . S
C370 H333 0.929 . S
C370 C369 1.348 . S
C370 C371 1.443 . S
C371 H335 0.932 . S
C371 C366 1.388 . S
C371 C370 1.443 . S
Mn372 O377 2.095 . S
Mn372 O387 2.162 . S
Mn372 O388 2.297 . S
Mn372 O396 2.385 . S
Mn372 O397 2.209 . S
Mn372 O398 2.094 . S
Mn373 O378 2.121 . S
Mn373 N380 2.257 . S
Mn373 N389 2.282 . S
Mn373 O397 2.215 . S
Mn373 O399 2.117 . S
C374 O396 1.234 . S
C374 O397 1.283 . S
C375 O387 1.281 . S
C375 O388 1.236 . S
C376 O398 1.240 . S
C376 O399 1.264 . S
O377 Mn372 2.095 . S
O377 C386 1.250 . S
O378 Mn373 2.121 . S
O378 C386 1.258 . S
C379 N380 1.326 . S
C379 C383 1.460 . S
C379 H385 0.929 . S
N380 Mn373 2.257 . S
N380 C379 1.326 . S
N380 C384 1.362 . S
C381 C382 1.258 . S
C381 C384 1.431 . S
C381 C401 1.449 . S
C382 C381 1.258 . S
C382 C383 1.477 . S
C382 H402 0.931 . S
C383 C379 1.460 . S
C383 C382 1.477 . S
C383 H403 0.930 . S
C384 N380 1.362 . S
C384 C381 1.431 . S
C384 C394 1.476 . S
H385 C379 0.929 . S
C386 O377 1.250 . S
C386 O378 1.258 . S
O387 Mn372 2.162 . S
O387 C375 1.281 . S
O388 Mn372 2.297 . S
O388 C375 1.236 . S
N389 Mn373 2.282 . S
N389 C390 1.328 . S
N389 C394 1.318 . S
C390 N389 1.328 . S
C390 C391 1.457 . S
C390 H395 0.929 . S
C391 C390 1.457 . S
C391 C392 1.291 . S
C391 H404 0.931 . S
C392 C391 1.291 . S
C392 C393 1.373 . S
C392 H405 0.929 . S
C393 C392 1.373 . S
C393 C394 1.396 . S
C393 C400 1.403 . S
C394 C384 1.476 . S
C394 N389 1.318 . S
C394 C393 1.396 . S
H395 C390 0.929 . S
O396 Mn372 2.385 . S
O396 C374 1.234 . S
O397 Mn372 2.209 . S
O397 Mn373 2.215 . S
O397 C374 1.283 . S
O398 Mn372 2.094 . S
O398 C376 1.240 . S
O399 Mn373 2.117 . S
O399 C376 1.264 . S
C400 C393 1.403 . S
C400 C401 1.399 . S
C400 H406 0.929 . S
C401 C381 1.449 . S
C401 C400 1.399 . S
C401 H407 0.930 . S
H402 C382 0.931 . S
H403 C383 0.930 . S
H404 C391 0.931 . S
H405 C392 0.929 . S
H406 C400 0.929 . S
H407 C401 0.930 . S
Mn408 O413 2.095 . S
Mn408 O423 2.162 . S
Mn408 O424 2.297 . S
Mn408 O432 2.385 . S
Mn408 O433 2.209 . S
Mn408 O434 2.094 . S
Mn409 O414 2.121 . S
Mn409 N416 2.257 . S
Mn409 N425 2.282 . S
Mn409 O433 2.215 . S
Mn409 O435 2.117 . S
C410 O432 1.234 . S
C410 O433 1.283 . S
C411 O423 1.281 . S
C411 O424 1.236 . S
C412 O434 1.240 . S
C412 O435 1.264 . S
O413 Mn408 2.095 . S
O413 C422 1.250 . S
O414 Mn409 2.121 . S
O414 C422 1.258 . S
C415 N416 1.326 . S
C415 C419 1.460 . S
C415 H421 0.929 . S
N416 Mn409 2.257 . S
N416 C415 1.326 . S
N416 C420 1.362 . S
C417 C418 1.258 . S
C417 C420 1.431 . S
C417 C437 1.449 . S
C418 C417 1.258 . S
C418 C419 1.477 . S
C418 H438 0.931 . S
C419 C415 1.460 . S
C419 C418 1.477 . S
C419 H439 0.930 . S
C420 N416 1.362 . S
C420 C417 1.431 . S
C420 C430 1.476 . S
H421 C415 0.929 . S
C422 O413 1.250 . S
C422 O414 1.258 . S
O423 Mn408 2.162 . S
O423 C411 1.281 . S
O424 Mn408 2.297 . S
O424 C411 1.236 . S
N425 Mn409 2.282 . S
N425 C426 1.328 . S
N425 C430 1.318 . S
C426 N425 1.328 . S
C426 C427 1.457 . S
C426 H431 0.929 . S
C427 C426 1.457 . S
C427 C428 1.291 . S
C427 H440 0.931 . S
C428 C427 1.291 . S
C428 C429 1.373 . S
C428 H441 0.929 . S
C429 C428 1.373 . S
C429 C430 1.396 . S
C429 C436 1.403 . S
C430 C420 1.476 . S
C430 N425 1.318 . S
C430 C429 1.396 . S
H431 C426 0.929 . S
O432 Mn408 2.385 . S
O432 C410 1.234 . S
O433 Mn408 2.209 . S
O433 Mn409 2.215 . S
O433 C410 1.283 . S
O434 Mn408 2.094 . S
O434 C412 1.240 . S
O435 Mn409 2.117 . S
O435 C412 1.264 . S
C436 C429 1.403 . S
C436 C437 1.399 . S
C436 H442 0.929 . S
C437 C417 1.449 . S
C437 C436 1.399 . S
C437 H443 0.930 . S
H438 C418 0.931 . S
H439 C419 0.930 . S
H440 C427 0.931 . S
H441 C428 0.929 . S
H442 C436 0.929 . S
H443 C437 0.930 . S
Mn444 O449 2.095 . S
Mn444 O459 2.162 . S
Mn444 O460 2.297 . S
Mn444 O468 2.385 . S
Mn444 O469 2.209 . S
Mn444 O470 2.094 . S
Mn445 O450 2.121 . S
Mn445 N452 2.257 . S
Mn445 N461 2.282 . S
Mn445 O469 2.215 . S
Mn445 O471 2.117 . S
C446 O468 1.234 . S
C446 O469 1.283 . S
C447 O459 1.281 . S
C447 O460 1.236 . S
C448 O470 1.240 . S
C448 O471 1.264 . S
O449 Mn444 2.095 . S
O449 C458 1.250 . S
O450 Mn445 2.121 . S
O450 C458 1.258 . S
C451 N452 1.326 . S
C451 C455 1.460 . S
C451 H457 0.929 . S
N452 Mn445 2.257 . S
N452 C451 1.326 . S
N452 C456 1.362 . S
C453 C454 1.258 . S
C453 C456 1.431 . S
C453 C473 1.449 . S
C454 C453 1.258 . S
C454 C455 1.477 . S
C454 H474 0.931 . S
C455 C451 1.460 . S
C455 C454 1.477 . S
C455 H475 0.930 . S
C456 N452 1.362 . S
C456 C453 1.431 . S
C456 C466 1.476 . S
H457 C451 0.929 . S
C458 O449 1.250 . S
C458 O450 1.258 . S
O459 Mn444 2.162 . S
O459 C447 1.281 . S
O460 Mn444 2.297 . S
O460 C447 1.236 . S
N461 Mn445 2.282 . S
N461 C462 1.328 . S
N461 C466 1.318 . S
C462 N461 1.328 . S
C462 C463 1.457 . S
C462 H467 0.929 . S
C463 C462 1.457 . S
C463 C464 1.291 . S
C463 H476 0.931 . S
C464 C463 1.291 . S
C464 C465 1.373 . S
C464 H477 0.929 . S
C465 C464 1.373 . S
C465 C466 1.396 . S
C465 C472 1.403 . S
C466 C456 1.476 . S
C466 N461 1.318 . S
C466 C465 1.396 . S
H467 C462 0.929 . S
O468 Mn444 2.385 . S
O468 C446 1.234 . S
O469 Mn444 2.209 . S
O469 Mn445 2.215 . S
O469 C446 1.283 . S
O470 Mn444 2.094 . S
O470 C448 1.240 . S
O471 Mn445 2.117 . S
O471 C448 1.264 . S
C472 C465 1.403 . S
C472 C473 1.399 . S
C472 H478 0.929 . S
C473 C453 1.449 . S
C473 C472 1.399 . S
C473 H479 0.930 . S
H474 C454 0.931 . S
H475 C455 0.930 . S
H476 C463 0.931 . S
H477 C464 0.929 . S
H478 C472 0.929 . S
H479 C473 0.930 . S
Mn480 O485 2.095 . S
Mn480 O495 2.162 . S
Mn480 O496 2.297 . S
Mn480 O504 2.385 . S
Mn480 O505 2.209 . S
Mn480 O506 2.094 . S
Mn481 O486 2.121 . S
Mn481 N488 2.257 . S
Mn481 N497 2.282 . S
Mn481 O505 2.215 . S
Mn481 O507 2.117 . S
C482 O504 1.234 . S
C482 O505 1.283 . S
C483 O495 1.281 . S
C483 O496 1.236 . S
C484 O506 1.240 . S
C484 O507 1.264 . S
O485 Mn480 2.095 . S
O485 C494 1.250 . S
O486 Mn481 2.121 . S
O486 C494 1.258 . S
C487 N488 1.326 . S
C487 C491 1.460 . S
C487 H493 0.929 . S
N488 Mn481 2.257 . S
N488 C487 1.326 . S
N488 C492 1.362 . S
C489 C490 1.258 . S
C489 C492 1.431 . S
C489 C509 1.449 . S
C490 C489 1.258 . S
C490 C491 1.477 . S
C490 H510 0.931 . S
C491 C487 1.460 . S
C491 C490 1.477 . S
C491 H511 0.930 . S
C492 N488 1.362 . S
C492 C489 1.431 . S
C492 C502 1.476 . S
H493 C487 0.929 . S
C494 O485 1.250 . S
C494 O486 1.258 . S
O495 Mn480 2.162 . S
O495 C483 1.281 . S
O496 Mn480 2.297 . S
O496 C483 1.236 . S
N497 Mn481 2.282 . S
N497 C498 1.328 . S
N497 C502 1.318 . S
C498 N497 1.328 . S
C498 C499 1.457 . S
C498 H503 0.929 . S
C499 C498 1.457 . S
C499 C500 1.291 . S
C499 H512 0.931 . S
C500 C499 1.291 . S
C500 C501 1.373 . S
C500 H513 0.929 . S
C501 C500 1.373 . S
C501 C502 1.396 . S
C501 C508 1.403 . S
C502 C492 1.476 . S
C502 N497 1.318 . S
C502 C501 1.396 . S
H503 C498 0.929 . S
O504 Mn480 2.385 . S
O504 C482 1.234 . S
O505 Mn480 2.209 . S
O505 Mn481 2.215 . S
O505 C482 1.283 . S
O506 Mn480 2.094 . S
O506 C484 1.240 . S
O507 Mn481 2.117 . S
O507 C484 1.264 . S
C508 C501 1.403 . S
C508 C509 1.399 . S
C508 H514 0.929 . S
C509 C489 1.449 . S
C509 C508 1.399 . S
C509 H515 0.930 . S
H510 C490 0.931 . S
H511 C491 0.930 . S
H512 C499 0.931 . S
H513 C500 0.929 . S
H514 C508 0.929 . S
H515 C509 0.930 . S
Mn516 O521 2.095 . S
Mn516 O531 2.162 . S
Mn516 O532 2.297 . S
Mn516 O540 2.385 . S
Mn516 O541 2.209 . S
Mn516 O542 2.094 . S
Mn517 O522 2.121 . S
Mn517 N524 2.257 . S
Mn517 N533 2.282 . S
Mn517 O541 2.215 . S
Mn517 O543 2.117 . S
C518 O540 1.234 . S
C518 O541 1.283 . S
C519 O531 1.281 . S
C519 O532 1.236 . S
C520 O542 1.240 . S
C520 O543 1.264 . S
O521 Mn516 2.095 . S
O521 C530 1.250 . S
O522 Mn517 2.121 . S
O522 C530 1.258 . S
C523 N524 1.326 . S
C523 C527 1.460 . S
C523 H529 0.929 . S
N524 Mn517 2.257 . S
N524 C523 1.326 . S
N524 C528 1.362 . S
C525 C526 1.258 . S
C525 C528 1.431 . S
C525 C545 1.449 . S
C526 C525 1.258 . S
C526 C527 1.477 . S
C526 H546 0.931 . S
C527 C523 1.460 . S
C527 C526 1.477 . S
C527 H547 0.930 . S
C528 N524 1.362 . S
C528 C525 1.431 . S
C528 C538 1.476 . S
H529 C523 0.929 . S
C530 O521 1.250 . S
C530 O522 1.258 . S
O531 Mn516 2.162 . S
O531 C519 1.281 . S
O532 Mn516 2.297 . S
O532 C519 1.236 . S
N533 Mn517 2.282 . S
N533 C534 1.328 . S
N533 C538 1.318 . S
C534 N533 1.328 . S
C534 C535 1.457 . S
C534 H539 0.929 . S
C535 C534 1.457 . S
C535 C536 1.291 . S
C535 H548 0.931 . S
C536 C535 1.291 . S
C536 C537 1.373 . S
C536 H549 0.929 . S
C537 C536 1.373 . S
C537 C538 1.396 . S
C537 C544 1.403 . S
C538 C528 1.476 . S
C538 N533 1.318 . S
C538 C537 1.396 . S
H539 C534 0.929 . S
O540 Mn516 2.385 . S
O540 C518 1.234 . S
O541 Mn516 2.209 . S
O541 Mn517 2.215 . S
O541 C518 1.283 . S
O542 Mn516 2.094 . S
O542 C520 1.240 . S
O543 Mn517 2.117 . S
O543 C520 1.264 . S
C544 C537 1.403 . S
C544 C545 1.399 . S
C544 H550 0.929 . S
C545 C525 1.449 . S
C545 C544 1.399 . S
C545 H551 0.930 . S
H546 C526 0.931 . S
H547 C527 0.930 . S
H548 C535 0.931 . S
H549 C536 0.929 . S
H550 C544 0.929 . S
H551 C545 0.930 . S
Mn552 O557 2.095 . S
Mn552 O567 2.162 . S
Mn552 O568 2.297 . S
Mn552 O576 2.385 . S
Mn552 O577 2.209 . S
Mn552 O578 2.094 . S
Mn553 O558 2.121 . S
Mn553 N560 2.257 . S
Mn553 N569 2.282 . S
Mn553 O577 2.215 . S
Mn553 O579 2.117 . S
C554 O576 1.234 . S
C554 O577 1.283 . S
C555 O567 1.281 . S
C555 O568 1.236 . S
C556 O578 1.240 . S
C556 O579 1.264 . S
O557 Mn552 2.095 . S
O557 C566 1.250 . S
O558 Mn553 2.121 . S
O558 C566 1.258 . S
C559 N560 1.326 . S
C559 C563 1.460 . S
C559 H565 0.929 . S
N560 Mn553 2.257 . S
N560 C559 1.326 . S
N560 C564 1.362 . S
C561 C562 1.258 . S
C561 C564 1.431 . S
C561 C581 1.449 . S
C562 C561 1.258 . S
C562 C563 1.477 . S
C562 H582 0.931 . S
C563 C559 1.460 . S
C563 C562 1.477 . S
C563 H583 0.930 . S
C564 N560 1.362 . S
C564 C561 1.431 . S
C564 C574 1.476 . S
H565 C559 0.929 . S
C566 O557 1.250 . S
C566 O558 1.258 . S
O567 Mn552 2.162 . S
O567 C555 1.281 . S
O568 Mn552 2.297 . S
O568 C555 1.236 . S
N569 Mn553 2.282 . S
N569 C570 1.328 . S
N569 C574 1.318 . S
C570 N569 1.328 . S
C570 C571 1.457 . S
C570 H575 0.929 . S
C571 C570 1.457 . S
C571 C572 1.291 . S
C571 H584 0.931 . S
C572 C571 1.291 . S
C572 C573 1.373 . S
C572 H585 0.929 . S
C573 C572 1.373 . S
C573 C574 1.396 . S
C573 C580 1.403 . S
C574 C564 1.476 . S
C574 N569 1.318 . S
C574 C573 1.396 . S
H575 C570 0.929 . S
O576 Mn552 2.385 . S
O576 C554 1.234 . S
O577 Mn552 2.209 . S
O577 Mn553 2.215 . S
O577 C554 1.283 . S
O578 Mn552 2.094 . S
O578 C556 1.240 . S
O579 Mn553 2.117 . S
O579 C556 1.264 . S
C580 C573 1.403 . S
C580 C581 1.399 . S
C580 H586 0.929 . S
C581 C561 1.449 . S
C581 C580 1.399 . S
C581 H587 0.930 . S
H582 C562 0.931 . S
H583 C563 0.930 . S
H584 C571 0.931 . S
H585 C572 0.929 . S
H586 C580 0.929 . S
H587 C581 0.930 . S
C588 C589 1.349 . S
C588 C590 1.327 . S
C588 H613 0.950 . S
C589 C588 1.349 . S
C589 C605 1.349 . S
C590 C588 1.327 . S
C590 C609 1.429 . S
C590 H614 0.950 . S
C591 C608 1.574 . S
C591 C610 1.368 . S
C591 H615 0.949 . S
H592 C596 0.949 . S
C593 C594 1.349 . S
C593 C595 1.327 . S
C593 H616 0.950 . S
C594 C593 1.349 . S
C594 C606 1.349 . S
C595 C593 1.327 . S
C595 C611 1.429 . S
C595 H617 0.950 . S
C596 H592 0.949 . S
C596 C604 1.574 . S
C596 C612 1.368 . S
H597 C605 0.950 . S
H598 C603 0.950 . S
H599 C604 0.949 . S
H600 C606 0.950 . S
H601 C607 0.950 . S
H602 C608 0.949 . S
C603 H598 0.950 . S
C603 C605 1.327 . S
C603 C609 1.429 . S
C604 C596 1.574 . S
C604 H599 0.949 . S
C604 C610 1.368 . S
C605 C589 1.349 . S
C605 H597 0.950 . S
C605 C603 1.327 . S
C606 C594 1.349 . S
C606 H600 0.950 . S
C606 C607 1.327 . S
C607 H601 0.950 . S
C607 C606 1.327 . S
C607 C611 1.429 . S
C608 C591 1.574 . S
C608 H602 0.949 . S
C608 C612 1.368 . S
C609 C590 1.429 . S
C609 C603 1.429 . S
C609 C610 1.523 . S
C610 C591 1.368 . S
C610 C604 1.368 . S
C610 C609 1.523 . S
C611 C595 1.429 . S
C611 C607 1.429 . S
C611 C612 1.523 . S
C612 C596 1.368 . S
C612 C608 1.368 . S
C612 C611 1.523 . S
H613 C588 0.950 . S
H614 C590 0.950 . S
H615 C591 0.949 . S
H616 C593 0.950 . S
H617 C595 0.950 . S
C618 C619 1.349 . S
C618 C620 1.327 . S
C618 H643 0.950 . S
C619 C618 1.349 . S
C619 C635 1.349 . S
C620 C618 1.327 . S
C620 C639 1.429 . S
C620 H644 0.950 . S
C621 C638 1.574 . S
C621 C640 1.368 . S
C621 H645 0.949 . S
H622 C626 0.949 . S
C623 C624 1.349 . S
C623 C625 1.327 . S
C623 H646 0.950 . S
C624 C623 1.349 . S
C624 C636 1.349 . S
C625 C623 1.327 . S
C625 C641 1.429 . S
C625 H647 0.950 . S
C626 H622 0.949 . S
C626 C634 1.574 . S
C626 C642 1.368 . S
H627 C635 0.950 . S
H628 C633 0.950 . S
H629 C634 0.949 . S
H630 C636 0.950 . S
H631 C637 0.950 . S
H632 C638 0.949 . S
C633 H628 0.950 . S
C633 C635 1.327 . S
C633 C639 1.429 . S
C634 C626 1.574 . S
C634 H629 0.949 . S
C634 C640 1.368 . S
C635 C619 1.349 . S
C635 H627 0.950 . S
C635 C633 1.327 . S
C636 C624 1.349 . S
C636 H630 0.950 . S
C636 C637 1.327 . S
C637 H631 0.950 . S
C637 C636 1.327 . S
C637 C641 1.429 . S
C638 C621 1.574 . S
C638 H632 0.949 . S
C638 C642 1.368 . S
C639 C620 1.429 . S
C639 C633 1.429 . S
C639 C640 1.523 . S
C640 C621 1.368 . S
C640 C634 1.368 . S
C640 C639 1.523 . S
C641 C625 1.429 . S
C641 C637 1.429 . S
C641 C642 1.523 . S
C642 C626 1.368 . S
C642 C638 1.368 . S
C642 C641 1.523 . S
H643 C618 0.950 . S
H644 C620 0.950 . S
H645 C621 0.949 . S
H646 C623 0.950 . S
H647 C625 0.950 . S
C648 C649 1.349 . S
C648 C650 1.327 . S
C648 H673 0.950 . S
C649 C648 1.349 . S
C649 C665 1.349 . S
C650 C648 1.327 . S
C650 C669 1.429 . S
C650 H674 0.950 . S
C651 C668 1.574 . S
C651 C670 1.368 . S
C651 H675 0.949 . S
H652 C656 0.949 . S
C653 C654 1.349 . S
C653 C655 1.327 . S
C653 H676 0.950 . S
C654 C653 1.349 . S
C654 C666 1.349 . S
C655 C653 1.327 . S
C655 C671 1.429 . S
C655 H677 0.950 . S
C656 H652 0.949 . S
C656 C664 1.574 . S
C656 C672 1.368 . S
H657 C665 0.950 . S
H658 C663 0.950 . S
H659 C664 0.949 . S
H660 C666 0.950 . S
H661 C667 0.950 . S
H662 C668 0.949 . S
C663 H658 0.950 . S
C663 C665 1.327 . S
C663 C669 1.429 . S
C664 C656 1.574 . S
C664 H659 0.949 . S
C664 C670 1.368 . S
C665 C649 1.349 . S
C665 H657 0.950 . S
C665 C663 1.327 . S
C666 C654 1.349 . S
C666 H660 0.950 . S
C666 C667 1.327 . S
C667 H661 0.950 . S
C667 C666 1.327 . S
C667 C671 1.429 . S
C668 C651 1.574 . S
C668 H662 0.949 . S
C668 C672 1.368 . S
C669 C650 1.429 . S
C669 C663 1.429 . S
C669 C670 1.523 . S
C670 C651 1.368 . S
C670 C664 1.368 . S
C670 C669 1.523 . S
C671 C655 1.429 . S
C671 C667 1.429 . S
C671 C672 1.523 . S
C672 C656 1.368 . S
C672 C668 1.368 . S
C672 C671 1.523 . S
H673 C648 0.950 . S
H674 C650 0.950 . S
H675 C651 0.949 . S
H676 C653 0.950 . S
H677 C655 0.950 . S
C678 C679 1.349 . S
C678 C680 1.327 . S
C678 H703 0.950 . S
C679 C678 1.349 . S
C679 C695 1.349 . S
C680 C678 1.327 . S
C680 C699 1.429 . S
C680 H704 0.950 . S
C681 C698 1.574 . S
C681 C700 1.368 . S
C681 H705 0.949 . S
H682 C686 0.949 . S
C683 C684 1.349 . S
C683 C685 1.327 . S
C683 H706 0.950 . S
C684 C683 1.349 . S
C684 C696 1.349 . S
C685 C683 1.327 . S
C685 C701 1.429 . S
C685 H707 0.950 . S
C686 H682 0.949 . S
C686 C694 1.574 . S
C686 C702 1.368 . S
H687 C695 0.950 . S
H688 C693 0.950 . S
H689 C694 0.949 . S
H690 C696 0.950 . S
H691 C697 0.950 . S
H692 C698 0.949 . S
C693 H688 0.950 . S
C693 C695 1.327 . S
C693 C699 1.429 . S
C694 C686 1.574 . S
C694 H689 0.949 . S
C694 C700 1.368 . S
C695 C679 1.349 . S
C695 H687 0.950 . S
C695 C693 1.327 . S
C696 C684 1.349 . S
C696 H690 0.950 . S
C696 C697 1.327 . S
C697 H691 0.950 . S
C697 C696 1.327 . S
C697 C701 1.429 . S
C698 C681 1.574 . S
C698 H692 0.949 . S
C698 C702 1.368 . S
C699 C680 1.429 . S
C699 C693 1.429 . S
C699 C700 1.523 . S
C700 C681 1.368 . S
C700 C694 1.368 . S
C700 C699 1.523 . S
C701 C685 1.429 . S
C701 C697 1.429 . S
C701 C702 1.523 . S
C702 C686 1.368 . S
C702 C698 1.368 . S
C702 C701 1.523 . S
H703 C678 0.950 . S
H704 C680 0.950 . S
H705 C681 0.949 . S
H706 C683 0.950 . S
H707 C685 0.950 . S
C708 C709 1.349 . S
C708 C710 1.327 . S
C708 H733 0.950 . S
C709 C708 1.349 . S
C709 C725 1.349 . S
C710 C708 1.327 . S
C710 C729 1.429 . S
C710 H734 0.950 . S
C711 C728 1.574 . S
C711 C730 1.368 . S
C711 H735 0.949 . S
H712 C716 0.949 . S
C713 C714 1.349 . S
C713 C715 1.327 . S
C713 H736 0.950 . S
C714 C713 1.349 . S
C714 C726 1.349 . S
C715 C713 1.327 . S
C715 C731 1.429 . S
C715 H737 0.950 . S
C716 H712 0.949 . S
C716 C724 1.574 . S
C716 C732 1.368 . S
H717 C725 0.950 . S
H718 C723 0.950 . S
H719 C724 0.949 . S
H720 C726 0.950 . S
H721 C727 0.950 . S
H722 C728 0.949 . S
C723 H718 0.950 . S
C723 C725 1.327 . S
C723 C729 1.429 . S
C724 C716 1.574 . S
C724 H719 0.949 . S
C724 C730 1.368 . S
C725 C709 1.349 . S
C725 H717 0.950 . S
C725 C723 1.327 . S
C726 C714 1.349 . S
C726 H720 0.950 . S
C726 C727 1.327 . S
C727 H721 0.950 . S
C727 C726 1.327 . S
C727 C731 1.429 . S
C728 C711 1.574 . S
C728 H722 0.949 . S
C728 C732 1.368 . S
C729 C710 1.429 . S
C729 C723 1.429 . S
C729 C730 1.523 . S
C730 C711 1.368 . S
C730 C724 1.368 . S
C730 C729 1.523 . S
C731 C715 1.429 . S
C731 C727 1.429 . S
C731 C732 1.523 . S
C732 C716 1.368 . S
C732 C728 1.368 . S
C732 C731 1.523 . S
H733 C708 0.950 . S
H734 C710 0.950 . S
H735 C711 0.949 . S
H736 C713 0.950 . S
H737 C715 0.950 . S
C738 C739 1.349 . S
C738 C740 1.327 . S
C738 H763 0.950 . S
C739 C738 1.349 . S
C739 C755 1.349 . S
C740 C738 1.327 . S
C740 C759 1.429 . S
C740 H764 0.950 . S
C741 C758 1.574 . S
C741 C760 1.368 . S
C741 H765 0.949 . S
H742 C746 0.949 . S
C743 C744 1.349 . S
C743 C745 1.327 . S
C743 H766 0.950 . S
C744 C743 1.349 . S
C744 C756 1.349 . S
C745 C743 1.327 . S
C745 C761 1.429 . S
C745 H767 0.950 . S
C746 H742 0.949 . S
C746 C754 1.574 . S
C746 C762 1.368 . S
H747 C755 0.950 . S
H748 C753 0.950 . S
H749 C754 0.949 . S
H750 C756 0.950 . S
H751 C757 0.950 . S
H752 C758 0.949 . S
C753 H748 0.950 . S
C753 C755 1.327 . S
C753 C759 1.429 . S
C754 C746 1.574 . S
C754 H749 0.949 . S
C754 C760 1.368 . S
C755 C739 1.349 . S
C755 H747 0.950 . S
C755 C753 1.327 . S
C756 C744 1.349 . S
C756 H750 0.950 . S
C756 C757 1.327 . S
C757 H751 0.950 . S
C757 C756 1.327 . S
C757 C761 1.429 . S
C758 C741 1.574 . S
C758 H752 0.949 . S
C758 C762 1.368 . S
C759 C740 1.429 . S
C759 C753 1.429 . S
C759 C760 1.523 . S
C760 C741 1.368 . S
C760 C754 1.368 . S
C760 C759 1.523 . S
C761 C745 1.429 . S
C761 C757 1.429 . S
C761 C762 1.523 . S
C762 C746 1.368 . S
C762 C758 1.368 . S
C762 C761 1.523 . S
H763 C738 0.950 . S
H764 C740 0.950 . S
H765 C741 0.949 . S
H766 C743 0.950 . S
H767 C745 0.950 . S
C768 C769 1.349 . S
C768 C770 1.327 . S
C768 H793 0.950 . S
C769 C768 1.349 . S
C769 C785 1.349 . S
C770 C768 1.327 . S
C770 C789 1.429 . S
C770 H794 0.950 . S
C771 C788 1.574 . S
C771 C790 1.368 . S
C771 H795 0.949 . S
H772 C776 0.949 . S
C773 C774 1.349 . S
C773 C775 1.327 . S
C773 H796 0.950 . S
C774 C773 1.349 . S
C774 C786 1.349 . S
C775 C773 1.327 . S
C775 C791 1.429 . S
C775 H797 0.950 . S
C776 H772 0.949 . S
C776 C784 1.574 . S
C776 C792 1.368 . S
H777 C785 0.950 . S
H778 C783 0.950 . S
H779 C784 0.949 . S
H780 C786 0.950 . S
H781 C787 0.950 . S
H782 C788 0.949 . S
C783 H778 0.950 . S
C783 C785 1.327 . S
C783 C789 1.429 . S
C784 C776 1.574 . S
C784 H779 0.949 . S
C784 C790 1.368 . S
C785 C769 1.349 . S
C785 H777 0.950 . S
C785 C783 1.327 . S
C786 C774 1.349 . S
C786 H780 0.950 . S
C786 C787 1.327 . S
C787 H781 0.950 . S
C787 C786 1.327 . S
C787 C791 1.429 . S
C788 C771 1.574 . S
C788 H782 0.949 . S
C788 C792 1.368 . S
C789 C770 1.429 . S
C789 C783 1.429 . S
C789 C790 1.523 . S
C790 C771 1.368 . S
C790 C784 1.368 . S
C790 C789 1.523 . S
C791 C775 1.429 . S
C791 C787 1.429 . S
C791 C792 1.523 . S
C792 C776 1.368 . S
C792 C788 1.368 . S
C792 C791 1.523 . S
H793 C768 0.950 . S
H794 C770 0.950 . S
H795 C771 0.949 . S
H796 C773 0.950 . S
H797 C775 0.950 . S
C798 C799 1.349 . S
C798 C800 1.327 . S
C798 H823 0.950 . S
C799 C798 1.349 . S
C799 C815 1.349 . S
C800 C798 1.327 . S
C800 C819 1.429 . S
C800 H824 0.950 . S
C801 C818 1.574 . S
C801 C820 1.368 . S
C801 H825 0.949 . S
H802 C806 0.949 . S
C803 C804 1.349 . S
C803 C805 1.327 . S
C803 H826 0.950 . S
C804 C803 1.349 . S
C804 C816 1.349 . S
C805 C803 1.327 . S
C805 C821 1.429 . S
C805 H827 0.950 . S
C806 H802 0.949 . S
C806 C814 1.574 . S
C806 C822 1.368 . S
H807 C815 0.950 . S
H808 C813 0.950 . S
H809 C814 0.949 . S
H810 C816 0.950 . S
H811 C817 0.950 . S
H812 C818 0.949 . S
C813 H808 0.950 . S
C813 C815 1.327 . S
C813 C819 1.429 . S
C814 C806 1.574 . S
C814 H809 0.949 . S
C814 C820 1.368 . S
C815 C799 1.349 . S
C815 H807 0.950 . S
C815 C813 1.327 . S
C816 C804 1.349 . S
C816 H810 0.950 . S
C816 C817 1.327 . S
C817 H811 0.950 . S
C817 C816 1.327 . S
C817 C821 1.429 . S
C818 C801 1.574 . S
C818 H812 0.949 . S
C818 C822 1.368 . S
C819 C800 1.429 . S
C819 C813 1.429 . S
C819 C820 1.523 . S
C820 C801 1.368 . S
C820 C814 1.368 . S
C820 C819 1.523 . S
C821 C805 1.429 . S
C821 C817 1.429 . S
C821 C822 1.523 . S
C822 C806 1.368 . S
C822 C818 1.368 . S
C822 C821 1.523 . S
H823 C798 0.950 . S
H824 C800 0.950 . S
H825 C801 0.949 . S
H826 C803 0.950 . S
H827 C805 0.950 . S
C828 C829 1.349 . S
C828 C830 1.327 . S
C828 H853 0.950 . S
C829 C828 1.349 . S
C829 C845 1.349 . S
C830 C828 1.327 . S
C830 C849 1.429 . S
C830 H854 0.950 . S
C831 C848 1.574 . S
C831 C850 1.368 . S
C831 H855 0.949 . S
H832 C836 0.949 . S
C833 C834 1.349 . S
C833 C835 1.327 . S
C833 H856 0.950 . S
C834 C833 1.349 . S
C834 C846 1.349 . S
C835 C833 1.327 . S
C835 C851 1.429 . S
C835 H857 0.950 . S
C836 H832 0.949 . S
C836 C844 1.574 . S
C836 C852 1.368 . S
H837 C845 0.950 . S
H838 C843 0.950 . S
H839 C844 0.949 . S
H840 C846 0.950 . S
H841 C847 0.950 . S
H842 C848 0.949 . S
C843 H838 0.950 . S
C843 C845 1.327 . S
C843 C849 1.429 . S
C844 C836 1.574 . S
C844 H839 0.949 . S
C844 C850 1.368 . S
C845 C829 1.349 . S
C845 H837 0.950 . S
C845 C843 1.327 . S
C846 C834 1.349 . S
C846 H840 0.950 . S
C846 C847 1.327 . S
C847 H841 0.950 . S
C847 C846 1.327 . S
C847 C851 1.429 . S
C848 C831 1.574 . S
C848 H842 0.949 . S
C848 C852 1.368 . S
C849 C830 1.429 . S
C849 C843 1.429 . S
C849 C850 1.523 . S
C850 C831 1.368 . S
C850 C844 1.368 . S
C850 C849 1.523 . S
C851 C835 1.429 . S
C851 C847 1.429 . S
C851 C852 1.523 . S
C852 C836 1.368 . S
C852 C848 1.368 . S
C852 C851 1.523 . S
H853 C828 0.950 . S
H854 C830 0.950 . S
H855 C831 0.949 . S
H856 C833 0.950 . S
H857 C835 0.950 . S
C858 C859 1.349 . S
C858 C860 1.327 . S
C858 H883 0.950 . S
C859 C858 1.349 . S
C859 C875 1.349 . S
C860 C858 1.327 . S
C860 C879 1.429 . S
C860 H884 0.950 . S
C861 C878 1.574 . S
C861 C880 1.368 . S
C861 H885 0.949 . S
H862 C866 0.949 . S
C863 C864 1.349 . S
C863 C865 1.327 . S
C863 H886 0.950 . S
C864 C863 1.349 . S
C864 C876 1.349 . S
C865 C863 1.327 . S
C865 C881 1.429 . S
C865 H887 0.950 . S
C866 H862 0.949 . S
C866 C874 1.574 . S
C866 C882 1.368 . S
H867 C875 0.925 1_556 S
H868 C873 0.950 . S
H869 C874 0.949 . S
H870 C876 0.950 . S
H871 C877 0.950 . S
H872 C878 0.949 . S
C873 H868 0.950 . S
C873 C875 1.327 . S
C873 C879 1.429 . S
C874 C866 1.574 . S
C874 H869 0.949 . S
C874 C880 1.368 . S
C875 C859 1.349 . S
C875 H867 0.925 1_554 S
C875 C873 1.327 . S
C876 C864 1.349 . S
C876 H870 0.950 . S
C876 C877 1.327 . S
C877 H871 0.950 . S
C877 C876 1.327 . S
C877 C881 1.429 . S
C878 C861 1.574 . S
C878 H872 0.949 . S
C878 C882 1.368 . S
C879 C860 1.429 . S
C879 C873 1.429 . S
C879 C880 1.523 . S
C880 C861 1.368 . S
C880 C874 1.368 . S
C880 C879 1.523 . S
C881 C865 1.429 . S
C881 C877 1.429 . S
C881 C882 1.523 . S
C882 C866 1.368 . S
C882 C878 1.368 . S
C882 C881 1.523 . S
H883 C858 0.950 . S
H884 C860 0.950 . S
H885 C861 0.949 . S
H886 C863 0.950 . S
H887 C865 0.950 . S
C888 C889 1.349 . S
C888 C890 1.327 . S
C888 H913 0.950 . S
C889 C888 1.349 . S
C889 C905 1.349 . S
C890 C888 1.327 . S
C890 C909 1.429 . S
C890 H914 0.950 . S
C891 C908 1.574 . S
C891 C910 1.368 . S
C891 H915 0.949 . S
H892 C896 0.949 . S
C893 C894 1.349 . S
C893 C895 1.327 . S
C893 H916 0.950 . S
C894 C893 1.349 . S
C894 C906 1.349 . S
C895 C893 1.327 . S
C895 C911 1.429 . S
C895 H917 0.950 . S
C896 H892 0.949 . S
C896 C904 1.574 . S
C896 C912 1.368 . S
H897 C905 0.950 . S
H898 C903 0.950 . S
H899 C904 0.949 . S
H900 C906 0.950 . S
H901 C907 0.950 . S
H902 C908 0.949 . S
C903 H898 0.950 . S
C903 C905 1.327 . S
C903 C909 1.429 . S
C904 C896 1.574 . S
C904 H899 0.949 . S
C904 C910 1.368 . S
C905 C889 1.349 . S
C905 H897 0.950 . S
C905 C903 1.327 . S
C906 C894 1.349 . S
C906 H900 0.950 . S
C906 C907 1.327 . S
C907 H901 0.950 . S
C907 C906 1.327 . S
C907 C911 1.429 . S
C908 C891 1.574 . S
C908 H902 0.949 . S
C908 C912 1.368 . S
C909 C890 1.429 . S
C909 C903 1.429 . S
C909 C910 1.523 . S
C910 C891 1.368 . S
C910 C904 1.368 . S
C910 C909 1.523 . S
C911 C895 1.429 . S
C911 C907 1.429 . S
C911 C912 1.523 . S
C912 C896 1.368 . S
C912 C908 1.368 . S
C912 C911 1.523 . S
H913 C888 0.950 . S
H914 C890 0.950 . S
H915 C891 0.949 . S
H916 C893 0.950 . S
H917 C895 0.950 . S
C918 C919 1.349 . S
C918 C920 1.327 . S
C918 H943 0.950 . S
C919 C918 1.349 . S
C919 C935 1.349 . S
C920 C918 1.327 . S
C920 C939 1.429 . S
C920 H944 0.950 . S
C921 C938 1.574 . S
C921 C940 1.368 . S
C921 H945 0.949 . S
H922 C926 0.949 . S
C923 C924 1.349 . S
C923 C925 1.327 . S
C923 H946 0.950 . S
C924 C923 1.349 . S
C924 C936 1.349 . S
C925 C923 1.327 . S
C925 C941 1.429 . S
C925 H947 0.950 . S
C926 H922 0.949 . S
C926 C934 1.574 . S
C926 C942 1.368 . S
H927 C935 0.950 . S
H928 C933 0.950 . S
H929 C934 0.949 . S
H930 C936 0.950 . S
H931 C937 0.950 . S
H932 C938 0.949 . S
C933 H928 0.950 . S
C933 C935 1.327 . S
C933 C939 1.429 . S
C934 C926 1.574 . S
C934 H929 0.949 . S
C934 C940 1.368 . S
C935 C919 1.349 . S
C935 H927 0.950 . S
C935 C933 1.327 . S
C936 C924 1.349 . S
C936 H930 0.950 . S
C936 C937 1.327 . S
C937 H931 0.950 . S
C937 C936 1.327 . S
C937 C941 1.429 . S
C938 C921 1.574 . S
C938 H932 0.949 . S
C938 C942 1.368 . S
C939 C920 1.429 . S
C939 C933 1.429 . S
C939 C940 1.523 . S
C940 C921 1.368 . S
C940 C934 1.368 . S
C940 C939 1.523 . S
C941 C925 1.429 . S
C941 C937 1.429 . S
C941 C942 1.523 . S
C942 C926 1.368 . S
C942 C938 1.368 . S
C942 C941 1.523 . S
H943 C918 0.950 . S
H944 C920 0.950 . S
H945 C921 0.949 . S
H946 C923 0.950 . S
H947 C925 0.950 . S
C948 C949 1.349 . S
C948 C950 1.327 . S
C948 H973 0.950 . S
C949 C948 1.349 . S
C949 C965 1.349 . S
C950 C948 1.327 . S
C950 C969 1.429 . S
C950 H974 0.950 . S
C951 C968 1.574 . S
C951 C970 1.368 . S
C951 H975 0.949 . S
H952 C956 0.949 . S
C953 C954 1.349 . S
C953 C955 1.327 . S
C953 H976 0.950 . S
C954 C953 1.349 . S
C954 C966 1.349 . S
C955 C953 1.327 . S
C955 C971 1.429 . S
C955 H977 0.950 . S
C956 H952 0.949 . S
C956 C964 1.574 . S
C956 C972 1.368 . S
H957 C965 0.950 . S
H958 C963 0.950 . S
H959 C964 0.949 . S
H960 C966 0.950 . S
H961 C967 0.950 . S
H962 C968 0.949 . S
C963 H958 0.950 . S
C963 C965 1.327 . S
C963 C969 1.429 . S
C964 C956 1.574 . S
C964 H959 0.949 . S
C964 C970 1.368 . S
C965 C949 1.349 . S
C965 H957 0.950 . S
C965 C963 1.327 . S
C966 C954 1.349 . S
C966 H960 0.950 . S
C966 C967 1.327 . S
C967 H961 0.950 . S
C967 C966 1.327 . S
C967 C971 1.429 . S
C968 C951 1.574 . S
C968 H962 0.949 . S
C968 C972 1.368 . S
C969 C950 1.429 . S
C969 C963 1.429 . S
C969 C970 1.523 . S
C970 C951 1.368 . S
C970 C964 1.368 . S
C970 C969 1.523 . S
C971 C955 1.429 . S
C971 C967 1.429 . S
C971 C972 1.523 . S
C972 C956 1.368 . S
C972 C968 1.368 . S
C972 C971 1.523 . S
H973 C948 0.950 . S
H974 C950 0.950 . S
H975 C951 0.949 . S
H976 C953 0.950 . S
H977 C955 0.950 . S
C978 C979 1.349 . S
C978 C980 1.327 . S
C978 H1003 0.950 . S
C979 C978 1.349 . S
C979 C995 1.349 . S
C980 C978 1.327 . S
C980 C999 1.429 . S
C980 H1004 0.950 . S
C981 C998 1.574 . S
C981 C1000 1.368 . S
C981 H1005 0.949 . S
H982 C986 0.949 . S
C983 C984 1.349 . S
C983 C985 1.327 . S
C983 H1006 0.950 . S
C984 C983 1.349 . S
C984 C996 1.349 . S
C985 C983 1.327 . S
C985 C1001 1.429 . S
C985 H1007 0.950 . S
C986 H982 0.949 . S
C986 C994 1.574 . S
C986 C1002 1.368 . S
H987 C995 0.950 . S
H988 C993 0.950 . S
H989 C994 0.949 . S
H990 C996 0.950 . S
H991 C997 0.950 . S
H992 C998 0.949 . S
C993 H988 0.950 . S
C993 C995 1.327 . S
C993 C999 1.429 . S
C994 C986 1.574 . S
C994 H989 0.949 . S
C994 C1000 1.368 . S
C995 C979 1.349 . S
C995 H987 0.950 . S
C995 C993 1.327 . S
C996 C984 1.349 . S
C996 H990 0.950 . S
C996 C997 1.327 . S
C997 H991 0.950 . S
C997 C996 1.327 . S
C997 C1001 1.429 . S
C998 C981 1.574 . S
C998 H992 0.949 . S
C998 C1002 1.368 . S
C999 C980 1.429 . S
C999 C993 1.429 . S
C999 C1000 1.523 . S
C1000 C981 1.368 . S
C1000 C994 1.368 . S
C1000 C999 1.523 . S
C1001 C985 1.429 . S
C1001 C997 1.429 . S
C1001 C1002 1.523 . S
C1002 C986 1.368 . S
C1002 C998 1.368 . S
C1002 C1001 1.523 . S
H1003 C978 0.950 . S
H1004 C980 0.950 . S
H1005 C981 0.949 . S
H1006 C983 0.950 . S
H1007 C985 0.950 . S
C1008 C1009 1.349 . S
C1008 C1010 1.327 . S
C1008 H1033 0.950 . S
C1009 C1008 1.349 . S
C1009 C1025 1.349 . S
C1010 C1008 1.327 . S
C1010 C1029 1.429 . S
C1010 H1034 0.950 . S
C1011 C1028 1.574 . S
C1011 C1030 1.368 . S
C1011 H1035 0.949 . S
H1012 C1016 0.949 . S
C1013 C1014 1.349 . S
C1013 C1015 1.327 . S
C1013 H1036 0.950 . S
C1014 C1013 1.349 . S
C1014 C1026 1.349 . S
C1015 C1013 1.327 . S
C1015 C1031 1.429 . S
C1015 H1037 0.950 . S
C1016 H1012 0.949 . S
C1016 C1024 1.574 . S
C1016 C1032 1.368 . S
H1017 C1025 0.950 . S
H1018 C1023 0.950 . S
H1019 C1024 0.949 . S
H1020 C1026 0.950 . S
H1021 C1027 0.950 . S
H1022 C1028 0.949 . S
C1023 H1018 0.950 . S
C1023 C1025 1.327 . S
C1023 C1029 1.429 . S
C1024 C1016 1.574 . S
C1024 H1019 0.949 . S
C1024 C1030 1.368 . S
C1025 C1009 1.349 . S
C1025 H1017 0.950 . S
C1025 C1023 1.327 . S
C1026 C1014 1.349 . S
C1026 H1020 0.950 . S
C1026 C1027 1.327 . S
C1027 H1021 0.950 . S
C1027 C1026 1.327 . S
C1027 C1031 1.429 . S
C1028 C1011 1.574 . S
C1028 H1022 0.949 . S
C1028 C1032 1.368 . S
C1029 C1010 1.429 . S
C1029 C1023 1.429 . S
C1029 C1030 1.523 . S
C1030 C1011 1.368 . S
C1030 C1024 1.368 . S
C1030 C1029 1.523 . S
C1031 C1015 1.429 . S
C1031 C1027 1.429 . S
C1031 C1032 1.523 . S
C1032 C1016 1.368 . S
C1032 C1028 1.368 . S
C1032 C1031 1.523 . S
H1033 C1008 0.950 . S
H1034 C1010 0.950 . S
H1035 C1011 0.949 . S
H1036 C1013 0.950 . S
H1037 C1015 0.950 . S
C1038 C1039 1.349 . S
C1038 C1040 1.327 . S
C1038 H1063 0.950 . S
C1039 C1038 1.349 . S
C1039 C1055 1.349 . S
C1040 C1038 1.327 . S
C1040 C1059 1.429 . S
C1040 H1064 0.950 . S
C1041 C1058 1.574 . S
C1041 C1060 1.368 . S
C1041 H1065 0.949 . S
H1042 C1046 0.949 . S
C1043 C1044 1.349 . S
C1043 C1045 1.326 . S
C1043 H1066 0.950 . S
C1044 C1043 1.349 . S
C1044 C1056 1.349 . S
C1045 C1043 1.326 . S
C1045 C1061 1.429 1_554 S
C1045 H1067 0.950 1_554 S
C1046 H1042 0.949 . S
C1046 C1054 1.574 . S
C1046 C1062 1.368 . S
H1047 C1055 0.950 . S
H1048 C1053 0.950 . S
H1049 C1054 0.949 . S
H1050 C1056 0.950 . S
H1051 C1057 0.950 . S
H1052 C1058 0.949 . S
C1053 H1048 0.950 . S
C1053 C1055 1.327 . S
C1053 C1059 1.429 . S
C1054 C1046 1.574 . S
C1054 H1049 0.949 . S
C1054 C1060 1.368 . S
C1055 C1039 1.349 . S
C1055 H1047 0.950 . S
C1055 C1053 1.327 . S
C1056 C1044 1.349 . S
C1056 H1050 0.950 . S
C1056 C1057 1.327 1_554 S
C1057 H1051 0.950 . S
C1057 C1056 1.327 1_556 S
C1057 C1061 1.429 . S
C1058 C1041 1.574 . S
C1058 H1052 0.949 . S
C1058 C1062 1.368 . S
C1059 C1040 1.429 . S
C1059 C1053 1.429 . S
C1059 C1060 1.523 . S
C1060 C1041 1.368 . S
C1060 C1054 1.368 . S
C1060 C1059 1.523 . S
C1061 C1045 1.429 1_556 S
C1061 C1057 1.429 . S
C1061 C1062 1.523 . S
C1062 C1046 1.368 . S
C1062 C1058 1.368 . S
C1062 C1061 1.523 . S
H1063 C1038 0.950 . S
H1064 C1040 0.950 . S
H1065 C1041 0.949 . S
H1066 C1043 0.950 . S
H1067 C1045 0.950 1_556 S
C1068 C1069 1.349 . S
C1068 C1070 1.327 . S
C1068 H1093 0.950 . S
C1069 C1068 1.349 . S
C1069 C1085 1.349 . S
C1070 C1068 1.327 . S
C1070 C1089 1.429 . S
C1070 H1094 0.950 . S
C1071 C1088 1.574 . S
C1071 C1090 1.368 . S
C1071 H1095 0.949 . S
H1072 C1076 0.949 . S
C1073 C1074 1.349 . S
C1073 C1075 1.327 . S
C1073 H1096 0.950 . S
C1074 C1073 1.349 . S
C1074 C1086 1.349 . S
C1075 C1073 1.327 . S
C1075 C1091 1.429 . S
C1075 H1097 0.950 . S
C1076 H1072 0.949 . S
C1076 C1084 1.574 . S
C1076 C1092 1.368 . S
H1077 C1085 0.950 . S
H1078 C1083 0.950 . S
H1079 C1084 0.949 . S
H1080 C1086 0.950 . S
H1081 C1087 0.950 . S
H1082 C1088 0.949 . S
C1083 H1078 0.950 . S
C1083 C1085 1.327 . S
C1083 C1089 1.429 . S
C1084 C1076 1.574 . S
C1084 H1079 0.949 . S
C1084 C1090 1.368 . S
C1085 C1069 1.349 . S
C1085 H1077 0.950 . S
C1085 C1083 1.327 . S
C1086 C1074 1.349 . S
C1086 H1080 0.950 . S
C1086 C1087 1.327 . S
C1087 H1081 0.950 . S
C1087 C1086 1.327 . S
C1087 C1091 1.429 . S
C1088 C1071 1.574 . S
C1088 H1082 0.949 . S
C1088 C1092 1.368 . S
C1089 C1070 1.429 . S
C1089 C1083 1.429 . S
C1089 C1090 1.523 . S
C1090 C1071 1.368 . S
C1090 C1084 1.368 . S
C1090 C1089 1.523 . S
C1091 C1075 1.429 . S
C1091 C1087 1.429 . S
C1091 C1092 1.523 . S
C1092 C1076 1.368 . S
C1092 C1088 1.368 . S
C1092 C1091 1.523 . S
H1093 C1068 0.950 . S
H1094 C1070 0.950 . S
H1095 C1071 0.949 . S
H1096 C1073 0.950 . S
H1097 C1075 0.950 . S
C1098 C1099 1.349 . S
C1098 C1100 1.327 . S
C1098 H1123 0.950 . S
C1099 C1098 1.349 . S
C1099 C1115 1.349 . S
C1100 C1098 1.327 . S
C1100 C1119 1.429 . S
C1100 H1124 0.950 . S
C1101 C1118 1.574 . S
C1101 C1120 1.368 . S
C1101 H1125 0.949 . S
H1102 C1106 0.949 . S
C1103 C1104 1.349 . S
C1103 C1105 1.327 . S
C1103 H1126 0.950 . S
C1104 C1103 1.349 . S
C1104 C1116 1.349 . S
C1105 C1103 1.327 . S
C1105 C1121 1.429 . S
C1105 H1127 0.950 . S
C1106 H1102 0.949 . S
C1106 C1114 1.574 . S
C1106 C1122 1.368 . S
H1107 C1115 0.950 . S
H1108 C1113 0.950 . S
H1109 C1114 0.949 . S
H1110 C1116 0.950 . S
H1111 C1117 0.950 . S
H1112 C1118 0.949 . S
C1113 H1108 0.950 . S
C1113 C1115 1.327 . S
C1113 C1119 1.429 . S
C1114 C1106 1.574 . S
C1114 H1109 0.949 . S
C1114 C1120 1.368 . S
C1115 C1099 1.349 . S
C1115 H1107 0.950 . S
C1115 C1113 1.327 . S
C1116 C1104 1.349 . S
C1116 H1110 0.950 . S
C1116 C1117 1.327 . S
C1117 H1111 0.950 . S
C1117 C1116 1.327 . S
C1117 C1121 1.429 . S
C1118 C1101 1.574 . S
C1118 H1112 0.949 . S
C1118 C1122 1.368 . S
C1119 C1100 1.429 . S
C1119 C1113 1.429 . S
C1119 C1120 1.523 . S
C1120 C1101 1.368 . S
C1120 C1114 1.368 . S
C1120 C1119 1.523 . S
C1121 C1105 1.429 . S
C1121 C1117 1.429 . S
C1121 C1122 1.523 . S
C1122 C1106 1.368 . S
C1122 C1118 1.368 . S
C1122 C1121 1.523 . S
H1123 C1098 0.950 . S
H1124 C1100 0.950 . S
H1125 C1101 0.949 . S
H1126 C1103 0.950 . S
H1127 C1105 0.950 . S
C1128 C1129 1.349 . S
C1128 C1130 1.327 . S
C1128 H1153 0.950 . S
C1129 C1128 1.349 . S
C1129 C1145 1.349 . S
C1130 C1128 1.327 . S
C1130 C1149 1.429 . S
C1130 H1154 0.950 . S
C1131 C1148 1.574 . S
C1131 C1150 1.368 . S
C1131 H1155 0.949 . S
H1132 C1136 0.949 . S
C1133 C1134 1.349 . S
C1133 C1135 1.327 . S
C1133 H1156 0.950 . S
C1134 C1133 1.349 . S
C1134 C1146 1.349 . S
C1135 C1133 1.327 . S
C1135 C1151 1.429 . S
C1135 H1157 0.950 . S
C1136 H1132 0.949 . S
C1136 C1144 1.574 . S
C1136 C1152 1.368 . S
H1137 C1145 0.950 . S
H1138 C1143 0.950 . S
H1139 C1144 0.949 . S
H1140 C1146 0.950 . S
H1141 C1147 0.950 . S
H1142 C1148 0.949 . S
C1143 H1138 0.950 . S
C1143 C1145 1.327 . S
C1143 C1149 1.429 . S
C1144 C1136 1.574 . S
C1144 H1139 0.949 . S
C1144 C1150 1.368 . S
C1145 C1129 1.349 . S
C1145 H1137 0.950 . S
C1145 C1143 1.327 . S
C1146 C1134 1.349 . S
C1146 H1140 0.950 . S
C1146 C1147 1.327 . S
C1147 H1141 0.950 . S
C1147 C1146 1.327 . S
C1147 C1151 1.429 . S
C1148 C1131 1.574 . S
C1148 H1142 0.949 . S
C1148 C1152 1.368 . S
C1149 C1130 1.429 . S
C1149 C1143 1.429 . S
C1149 C1150 1.523 . S
C1150 C1131 1.368 . S
C1150 C1144 1.368 . S
C1150 C1149 1.523 . S
C1151 C1135 1.429 . S
C1151 C1147 1.429 . S
C1151 C1152 1.523 . S
C1152 C1136 1.368 . S
C1152 C1148 1.368 . S
C1152 C1151 1.523 . S
H1153 C1128 0.950 . S
H1154 C1130 0.950 . S
H1155 C1131 0.949 . S
H1156 C1133 0.950 . S
H1157 C1135 0.950 . S
C1158 C1159 1.349 . S
C1158 C1160 1.327 . S
C1158 H1183 0.950 . S
C1159 C1158 1.349 . S
C1159 C1175 1.349 . S
C1160 C1158 1.327 . S
C1160 C1179 1.429 . S
C1160 H1184 0.950 . S
C1161 C1178 1.574 . S
C1161 C1180 1.368 . S
C1161 H1185 0.949 . S
H1162 C1166 0.949 . S
C1163 C1164 1.349 . S
C1163 C1165 1.327 . S
C1163 H1186 0.950 . S
C1164 C1163 1.349 . S
C1164 C1176 1.349 . S
C1165 C1163 1.327 . S
C1165 C1181 1.429 . S
C1165 H1187 0.950 . S
C1166 H1162 0.949 . S
C1166 C1174 1.574 . S
C1166 C1182 1.368 . S
H1167 C1175 0.950 . S
H1168 C1173 0.950 . S
H1169 C1174 0.949 . S
H1170 C1176 0.950 . S
H1171 C1177 0.950 . S
H1172 C1178 0.949 . S
C1173 H1168 0.950 . S
C1173 C1175 1.327 . S
C1173 C1179 1.429 . S
C1174 C1166 1.574 . S
C1174 H1169 0.949 . S
C1174 C1180 1.368 . S
C1175 C1159 1.349 . S
C1175 H1167 0.950 . S
C1175 C1173 1.327 . S
C1176 C1164 1.349 . S
C1176 H1170 0.950 . S
C1176 C1177 1.327 . S
C1177 H1171 0.950 . S
C1177 C1176 1.327 . S
C1177 C1181 1.429 . S
C1178 C1161 1.574 . S
C1178 H1172 0.949 . S
C1178 C1182 1.368 . S
C1179 C1160 1.429 . S
C1179 C1173 1.429 . S
C1179 C1180 1.523 . S
C1180 C1161 1.368 . S
C1180 C1174 1.368 . S
C1180 C1179 1.523 . S
C1181 C1165 1.429 . S
C1181 C1177 1.429 . S
C1181 C1182 1.523 . S
C1182 C1166 1.368 . S
C1182 C1178 1.368 . S
C1182 C1181 1.523 . S
H1183 C1158 0.950 . S
H1184 C1160 0.950 . S
H1185 C1161 0.949 . S
H1186 C1163 0.950 . S
H1187 C1165 0.950 . S
C1188 C1189 1.349 . S
C1188 C1190 1.327 . S
C1188 H1213 0.950 . S
C1189 C1188 1.349 . S
C1189 C1205 1.349 . S
C1190 C1188 1.327 . S
C1190 C1209 1.429 . S
C1190 H1214 0.950 . S
C1191 C1208 1.574 . S
C1191 C1210 1.368 . S
C1191 H1215 0.949 . S
H1192 C1196 0.949 . S
C1193 C1194 1.349 . S
C1193 C1195 1.327 . S
C1193 H1216 0.950 . S
C1194 C1193 1.349 . S
C1194 C1206 1.349 . S
C1195 C1193 1.327 . S
C1195 C1211 1.429 . S
C1195 H1217 0.950 . S
C1196 H1192 0.949 . S
C1196 C1204 1.574 . S
C1196 C1212 1.368 . S
H1197 C1205 0.950 . S
H1198 C1203 0.950 . S
H1199 C1204 0.949 . S
H1200 C1206 0.950 . S
H1201 C1207 0.950 . S
H1202 C1208 0.949 . S
C1203 H1198 0.950 . S
C1203 C1205 1.327 . S
C1203 C1209 1.429 . S
C1204 C1196 1.574 . S
C1204 H1199 0.949 . S
C1204 C1210 1.368 . S
C1205 C1189 1.349 . S
C1205 H1197 0.950 . S
C1205 C1203 1.327 . S
C1206 C1194 1.349 . S
C1206 H1200 0.950 . S
C1206 C1207 1.327 . S
C1207 H1201 0.950 . S
C1207 C1206 1.327 . S
C1207 C1211 1.429 . S
C1208 C1191 1.574 . S
C1208 H1202 0.949 . S
C1208 C1212 1.368 . S
C1209 C1190 1.429 . S
C1209 C1203 1.429 . S
C1209 C1210 1.523 . S
C1210 C1191 1.368 . S
C1210 C1204 1.368 . S
C1210 C1209 1.523 . S
C1211 C1195 1.429 . S
C1211 C1207 1.429 . S
C1211 C1212 1.523 . S
C1212 C1196 1.368 . S
C1212 C1208 1.368 . S
C1212 C1211 1.523 . S
H1213 C1188 0.950 . S
H1214 C1190 0.950 . S
H1215 C1191 0.949 . S
H1216 C1193 0.950 . S
H1217 C1195 0.950 . S
C1218 C1219 1.349 . S
C1218 C1220 1.327 . S
C1218 H1243 0.950 . S
C1219 C1218 1.349 . S
C1219 C1235 1.349 . S
C1220 C1218 1.327 . S
C1220 C1239 1.429 . S
C1220 H1244 0.950 . S
C1221 C1238 1.574 . S
C1221 C1240 1.368 . S
C1221 H1245 0.949 . S
H1222 C1226 0.949 . S
C1223 C1224 1.349 . S
C1223 C1225 1.327 . S
C1223 H1246 0.950 . S
C1224 C1223 1.349 . S
C1224 C1236 1.349 . S
C1225 C1223 1.327 . S
C1225 C1241 1.429 . S
C1225 H1247 0.950 . S
C1226 H1222 0.949 . S
C1226 C1234 1.574 . S
C1226 C1242 1.368 . S
H1227 C1235 0.950 . S
H1228 C1233 0.950 . S
H1229 C1234 0.949 . S
H1230 C1236 0.950 . S
H1231 C1237 0.950 . S
H1232 C1238 0.949 . S
C1233 H1228 0.950 . S
C1233 C1235 1.327 . S
C1233 C1239 1.429 . S
C1234 C1226 1.574 . S
C1234 H1229 0.949 . S
C1234 C1240 1.368 . S
C1235 C1219 1.349 . S
C1235 H1227 0.950 . S
C1235 C1233 1.327 . S
C1236 C1224 1.349 . S
C1236 H1230 0.950 . S
C1236 C1237 1.327 . S
C1237 H1231 0.950 . S
C1237 C1236 1.327 . S
C1237 C1241 1.429 . S
C1238 C1221 1.574 . S
C1238 H1232 0.949 . S
C1238 C1242 1.368 . S
C1239 C1220 1.429 . S
C1239 C1233 1.429 . S
C1239 C1240 1.523 . S
C1240 C1221 1.368 . S
C1240 C1234 1.368 . S
C1240 C1239 1.523 . S
C1241 C1225 1.429 . S
C1241 C1237 1.429 . S
C1241 C1242 1.523 . S
C1242 C1226 1.368 . S
C1242 C1238 1.368 . S
C1242 C1241 1.523 . S
H1243 C1218 0.950 . S
H1244 C1220 0.950 . S
H1245 C1221 0.949 . S
H1246 C1223 0.950 . S
H1247 C1225 0.950 . S
C1248 C1249 1.349 . S
C1248 C1250 1.327 . S
C1248 H1273 0.950 . S
C1249 C1248 1.349 . S
C1249 C1265 1.349 . S
C1250 C1248 1.327 . S
C1250 C1269 1.429 . S
C1250 H1274 0.950 . S
C1251 C1268 1.574 . S
C1251 C1270 1.368 . S
C1251 H1275 0.949 . S
H1252 C1256 0.949 . S
C1253 C1254 1.349 . S
C1253 C1255 1.327 . S
C1253 H1276 0.950 . S
C1254 C1253 1.349 . S
C1254 C1266 1.349 . S
C1255 C1253 1.327 . S
C1255 C1271 1.429 . S
C1255 H1277 0.950 . S
C1256 H1252 0.949 . S
C1256 C1264 1.574 . S
C1256 C1272 1.368 . S
H1257 C1265 0.950 . S
H1258 C1263 0.950 . S
H1259 C1264 0.949 . S
H1260 C1266 0.950 . S
H1261 C1267 0.950 . S
H1262 C1268 0.949 . S
C1263 H1258 0.950 . S
C1263 C1265 1.327 . S
C1263 C1269 1.429 . S
C1264 C1256 1.574 . S
C1264 H1259 0.949 . S
C1264 C1270 1.368 1_556 S
C1265 C1249 1.349 . S
C1265 H1257 0.950 . S
C1265 C1263 1.327 . S
C1266 C1254 1.349 . S
C1266 H1260 0.950 . S
C1266 C1267 1.327 . S
C1267 H1261 0.950 . S
C1267 C1266 1.327 . S
C1267 C1271 1.429 . S
C1268 C1251 1.574 . S
C1268 H1262 0.949 . S
C1268 C1272 1.368 1_554 S
C1269 C1250 1.429 . S
C1269 C1263 1.429 . S
C1269 C1270 1.523 . S
C1270 C1251 1.368 . S
C1270 C1264 1.368 1_554 S
C1270 C1269 1.523 . S
C1271 C1255 1.429 . S
C1271 C1267 1.429 . S
C1271 C1272 1.523 . S
C1272 C1256 1.368 . S
C1272 C1268 1.368 1_556 S
C1272 C1271 1.523 . S
H1273 C1248 0.950 . S
H1274 C1250 0.950 . S
H1275 C1251 0.949 . S
H1276 C1253 0.950 . S
H1277 C1255 0.950 . S
C1278 C1279 1.349 . S
C1278 C1280 1.327 . S
C1278 H1303 0.950 . S
C1279 C1278 1.349 . S
C1279 C1295 1.349 . S
C1280 C1278 1.327 . S
C1280 C1299 1.429 . S
C1280 H1304 0.950 . S
C1281 C1298 1.574 . S
C1281 C1300 1.368 . S
C1281 H1305 0.949 . S
H1282 C1286 0.949 . S
C1283 C1284 1.349 . S
C1283 C1285 1.327 . S
C1283 H1306 0.950 . S
C1284 C1283 1.349 . S
C1284 C1296 1.349 . S
C1285 C1283 1.327 . S
C1285 C1301 1.429 . S
C1285 H1307 0.950 . S
C1286 H1282 0.949 . S
C1286 C1294 1.574 . S
C1286 C1302 1.368 . S
H1287 C1295 0.950 . S
H1288 C1293 0.950 . S
H1289 C1294 0.949 . S
H1290 C1296 0.950 . S
H1291 C1297 0.950 . S
H1292 C1298 0.949 . S
C1293 H1288 0.950 . S
C1293 C1295 1.327 . S
C1293 C1299 1.429 . S
C1294 C1286 1.574 . S
C1294 H1289 0.949 . S
C1294 C1300 1.368 . S
C1295 C1279 1.349 . S
C1295 H1287 0.950 . S
C1295 C1293 1.327 . S
C1296 C1284 1.349 . S
C1296 H1290 0.950 . S
C1296 C1297 1.327 . S
C1297 H1291 0.950 . S
C1297 C1296 1.327 . S
C1297 C1301 1.429 . S
C1298 C1281 1.574 . S
C1298 H1292 0.949 . S
C1298 C1302 1.368 . S
C1299 C1280 1.429 . S
C1299 C1293 1.429 . S
C1299 C1300 1.523 . S
C1300 C1281 1.368 . S
C1300 C1294 1.368 . S
C1300 C1299 1.523 . S
C1301 C1285 1.429 . S
C1301 C1297 1.429 . S
C1301 C1302 1.523 . S
C1302 C1286 1.368 . S
C1302 C1298 1.368 . S
C1302 C1301 1.523 . S
H1303 C1278 0.950 . S
H1304 C1280 0.950 . S
H1305 C1281 0.949 . S
H1306 C1283 0.950 . S
H1307 C1285 0.950 . S
C594 C555 1.682 . S
C589 C29 1.593 . S
C619 C115 1.593 . S
C624 C375 1.616 . S
C649 C153 1.596 . S
C654 C422 1.657 . S
C679 C239 1.487 . S
C684 C458 1.477 . S
C714 C483 1.598 . S
C709 C301 1.572 . S
C739 C339 1.840 . S
C744 C519 1.955 . S
C769 C91 1.636 . S
C774 C411 1.737 . S
C799 C177 1.527 . S
C804 C447 1.547 . S
C829 C215 1.512 . S
C834 C494 1.575 . S
C864 C530 1.906 . S
C859 C277 1.826 . S
C894 C566 1.566 . S
C889 C363 1.571 . S
C924 C386 1.533 . S
C919 C53 1.539 . S
C949 C35 1.536 . S
C954 C410 1.551 . S
C979 C109 1.426 . S
C984 C446 1.519 . S
C1014 C484 1.458 . S
C1009 C159 1.440 . S
C1039 C233 1.617 . S
C1044 C520 1.731 . S
C1074 C556 1.513 . S
C1069 C295 1.397 . S
C1104 C376 1.336 . S
C1099 C345 1.319 . S
C1134 C554 1.435 . S
C1129 C97 1.424 . S
C1159 C171 1.395 . S
C1164 C374 1.489 . S
C1194 C412 1.550 . S
C1189 C221 1.527 . S
C1219 C283 1.374 . S
C1224 C448 1.389 . S
C1249 C357 1.455 . S
C1254 C482 1.558 . S
C1279 C47 1.634 . S
C1284 C518 1.732 . S
