# Generated by pormake.
# Topology tsx, (6,3)-cn, num edge types: 1
# Building blocks:
#     Node 0, Type 0, BuildingBlock: FUNLAD_clean_sbu_0, # of connection points: 6
#     Node 1, Type 0, BuildingBlock: FUNLAD_clean_sbu_0, # of connection points: 6
#     Node 2, Type 1, BuildingBlock: VETTIZ_charged_linker_0, # of connection points: 3
#     Node 3, Type 1, BuildingBlock: VETTIZ_charged_linker_0, # of connection points: 3
#     Node 4, Type 1, BuildingBlock: VETTIZ_charged_linker_0, # of connection points: 3
#     Node 5, Type 1, BuildingBlock: VETTIZ_charged_linker_0, # of connection points: 3
#     Edge 6, Type (0, 1), BuildingBlock: OJICUG_clean_linker_0, # of connection points: 2
#     Edge 7, Type (0, 1), BuildingBlock: OJICUG_clean_linker_0, # of connection points: 2
#     Edge 8, Type (0, 1), BuildingBlock: OJICUG_clean_linker_0, # of connection points: 2
#     Edge 9, Type (0, 1), BuildingBlock: OJICUG_clean_linker_0, # of connection points: 2
#     Edge 10, Type (0, 1), BuildingBlock: OJICUG_clean_linker_0, # of connection points: 2
#     Edge 11, Type (0, 1), BuildingBlock: OJICUG_clean_linker_0, # of connection points: 2
#     Edge 12, Type (0, 1), BuildingBlock: OJICUG_clean_linker_0, # of connection points: 2
#     Edge 13, Type (0, 1), BuildingBlock: OJICUG_clean_linker_0, # of connection points: 2
#     Edge 14, Type (0, 1), BuildingBlock: OJICUG_clean_linker_0, # of connection points: 2
#     Edge 15, Type (0, 1), BuildingBlock: OJICUG_clean_linker_0, # of connection points: 2
#     Edge 16, Type (0, 1), BuildingBlock: OJICUG_clean_linker_0, # of connection points: 2
#     Edge 17, Type (0, 1), BuildingBlock: OJICUG_clean_linker_0, # of connection points: 2
# Relax obj value: 0.168
# Max RMSD: 0.156
# Mean RMSD: 0.082
data_MOF--net-tsx--node1-FUNLAD_clean_sbu_0--node2-VETTIZ_charged_linker_0--edge1-OJICUG_clean_linker_0
_symmetry_space_group_name_H-M    P1
_symmetry_Int_Tables_number       1
_symmetry_cell_setting            triclinic
loop_
_symmetry_equiv_pos_as_xyz
'x, y, z'
_cell_length_a     18.12683
_cell_length_b     19.705569
_cell_length_c     39.862545
_cell_angle_alpha  91.182614
_cell_angle_beta   91.502337
_cell_angle_gamma 89.890538
loop_
_atom_site_label
_atom_site_type_symbol
_atom_site_fract_x
_atom_site_fract_y
_atom_site_fract_z
_atom_type_partial_charge
C0 C 0.91043 0.92496 0.00748 0.0
N1 N 0.01618 0.0286 0.08429 0.0
C2 C 0.95126 0.01515 0.09922 0.0
C3 C 0.94996 -0.00022 0.13315 0.0
C4 C 0.01591 -0.00108 0.1523 0.0
C5 C 0.08194 0.01609 0.13681 0.0
C6 C 0.08093 0.03024 0.10244 0.0
Zn7 Zn 0.0121 0.03206 0.03267 0.0
C8 C 0.12141 0.94441 1.00058 0.0
N9 N -0.00845 0.0268 0.92568 0.0
C10 C 0.92809 0.0076 0.90911 0.0
C11 C 0.05683 0.02825 0.90963 0.0
C12 C 0.06086 0.00626 0.87625 0.0
C13 C -0.00284 0.98237 0.85904 0.0
C14 C 0.92963 0.9852 0.87558 0.0
Zn15 Zn -0.00385 0.0342 0.97712 0.0
O16 O 0.94728 0.94591 0.03291 0.0
C17 C 0.88523 0.11852 0.00697 0.0
O18 O 0.91785 0.95305 0.97942 0.0
H19 H 0.10682 0.04294 0.92327 0.0
H20 H 0.90032 0.01371 0.0845 0.0
H21 H 0.87683 0.00619 0.92236 0.0
O22 O 0.91442 0.09477 0.0337 0.0
O23 O 0.91067 0.10273 0.97852 0.0
H24 H 0.13205 0.0403 0.09007 0.0
O25 O 0.07123 0.1188 0.97671 0.0
O26 O 0.07542 0.1208 0.03204 0.0
O27 O 0.08212 0.9641 0.97593 0.0
O28 O 0.10865 0.9682 0.02979 0.0
C29 C 0.09128 0.14775 0.00439 0.0
H30 H 0.89768 0.98822 0.14429 0.0
H31 H 0.13393 0.0163 0.15084 0.0
H32 H 0.11376 0.00677 0.86424 0.0
H33 H 0.87909 0.96753 0.86325 0.0
C34 C 0.41917 0.42406 0.50845 0.0
N35 N 0.52083 0.5339 0.58403 0.0
C36 C 0.45643 0.52347 0.59993 0.0
C37 C 0.45696 0.50698 0.63376 0.0
C38 C 0.52435 0.50141 0.65163 0.0
C39 C 0.58988 0.51603 0.63516 0.0
C40 C 0.58688 0.53191 0.60106 0.0
Zn41 Zn 0.51568 0.53455 0.53259 0.0
C42 C 0.63087 0.44591 0.50239 0.0
N43 N 0.50163 0.52234 0.42551 0.0
C44 C 0.438 0.5006 0.40994 0.0
C45 C 0.56585 0.52499 0.40869 0.0
C46 C 0.56862 0.50181 0.37544 0.0
C47 C 0.5048 0.47527 0.3593 0.0
C48 C 0.43837 0.4766 0.37671 0.0
Zn49 Zn 0.50686 0.53188 0.47666 0.0
O50 O 0.44877 0.45103 0.53438 0.0
C51 C 0.39053 0.61731 0.5049 0.0
O52 O 0.43352 0.44624 0.47968 0.0
H53 H 0.61596 0.54184 0.4216 0.0
H54 H 0.40449 0.5246 0.58598 0.0
H55 H 0.38762 0.49842 0.42381 0.0
O56 O 0.4199 0.59863 0.53258 0.0
O57 O 0.41661 0.59697 0.47721 0.0
H58 H 0.63749 0.53961 0.58788 0.0
O59 O 0.57681 0.61991 0.47539 0.0
O60 O 0.58104 0.62216 0.53071 0.0
O61 O 0.59787 0.46625 0.4761 0.0
O62 O 0.60996 0.46772 0.53088 0.0
C63 C 0.59615 0.64938 0.50303 0.0
H64 H 0.40502 0.49777 0.64569 0.0
H65 H 0.64298 0.51264 0.64812 0.0
H66 H 0.62061 0.50369 0.36272 0.0
H67 H 0.38778 0.45681 0.3653 0.0
C68 C 0.12504 0.84766 0.48992 0.0
C69 C 0.1334 0.7785 0.48139 0.0
C70 C 0.07781 0.74518 0.46204 0.0
C71 C 0.01694 0.85242 0.45455 0.0
C72 C 0.063 0.8834 0.47739 0.0
C73 C 0.0241 0.94503 0.49416 0.0
H74 H 0.78593 0.20354 0.4265 0.0
C75 C 0.96568 0.9015 0.44211 0.0
C76 C 0.95974 0.95649 0.46586 0.0
H77 H 0.84594 0.19325 0.5308 0.0
H78 H 0.9167 0.09142 0.51974 0.0
H79 H 0.93512 0.17107 0.40172 0.0
H80 H 0.74128 0.05623 0.41585 0.0
H81 H 0.77631 0.02314 0.37827 0.0
H82 H 0.75505 0.11254 0.38176 0.0
H83 H 0.86994 0.15777 0.36797 0.0
H84 H 0.94945 0.10333 0.37371 0.0
C85 C 0.08347 0.00158 0.49335 0.0
C86 C 0.0084 0.91716 0.53293 0.0
C87 C 0.98917 0.90957 0.31485 0.0
C88 C 0.96425 0.95766 0.29152 0.0
C89 C 0.91335 0.00733 0.30144 0.0
C90 C 0.89056 0.01186 0.33455 0.0
C91 C 0.92075 0.96767 0.35857 0.0
C92 C 0.9664 0.91552 0.3484 0.0
C93 C -0.00983 0.87216 0.37754 0.0
C94 C 0.95309 0.90983 0.40708 0.0
C95 C 0.91692 0.9671 0.39566 0.0
C96 C 0.07545 0.87367 0.38069 0.0
C97 C 0.96063 0.79928 0.37111 0.0
C98 C 0.81412 0.17944 0.44738 0.0
C99 C 0.81123 0.2076 0.47984 0.0
C100 C 0.84801 0.17309 0.50561 0.0
C101 C 0.88764 0.11298 0.49919 0.0
C102 C 0.88936 0.08332 0.46714 0.0
C103 C 0.85223 0.11807 0.44193 0.0
C104 C 0.85825 0.08392 0.40894 0.0
C105 C 0.89856 0.01953 0.41852 0.0
C106 C 0.92023 0.01708 0.45319 0.0
C107 C 0.90504 0.13104 0.38676 0.0
C108 C 0.77885 0.06841 0.39516 0.0
H109 H 0.97401 0.75657 0.43532 0.0
H110 H 0.16367 0.87174 0.50759 0.0
H111 H -0.00074 0.86337 0.52425 0.0
H112 H 0.92889 0.94503 0.58021 0.0
H113 H 0.06824 0.90993 0.53988 0.0
H114 H 0.07196 0.03722 0.47267 0.0
H115 H 0.14033 0.9831 0.48868 0.0
H116 H 0.0902 0.02782 0.51763 0.0
H117 H 0.02706 0.86988 0.30733 0.0
H118 H 0.89203 0.04358 0.28352 0.0
H119 H 0.85181 0.05116 0.34017 0.0
H120 H 0.09533 0.92611 0.38636 0.0
H121 H 0.10072 0.85553 0.35705 0.0
H122 H 0.09702 0.84016 0.40058 0.0
H123 H 0.95631 0.78621 0.34387 0.0
H124 H 0.90486 0.79318 0.38158 0.0
H125 H -0.00157 0.76065 0.38178 0.0
H126 H 0.08134 0.69122 0.45654 0.0
C127 C 0.01838 0.78226 0.44888 0.0
C128 C 0.1443 0.23513 0.55896 0.0
C129 C 0.2213 0.23811 0.56475 0.0
C130 C 0.25546 0.19031 0.5859 0.0
C131 C 0.13859 0.13483 0.59212 0.0
C132 C 0.10443 0.1801 0.57138 0.0
C133 C 0.03413 0.14942 0.55594 0.0
H134 H 0.82793 0.79596 0.53903 0.0
C135 C 0.09299 0.07546 0.59439 0.0
C136 C 0.03479 0.07639 0.57019 0.0
H137 H 0.71472 0.98072 0.51448 0.0
H138 H 0.81134 0.05186 0.5397 0.0
H139 H 0.98184 0.75486 0.55734 0.0
H140 H 0.91553 0.88544 0.6274 0.0
H141 H 0.94883 0.79951 0.62792 0.0
H142 H 0.87007 0.81956 0.60322 0.0
H143 H 0.03873 0.76621 0.59478 0.0
H144 H 0.06701 0.80242 0.55763 0.0
C145 C 0.04268 0.15615 0.51734 0.0
C146 C 0.96843 0.18891 0.57043 0.0
C147 C 0.06501 0.98491 0.70873 0.0
C148 C 0.04308 0.92198 0.72063 0.0
C149 C 0.04135 0.86484 0.6986 0.0
C150 C 0.05564 0.87264 0.66421 0.0
C151 C 0.0688 0.93779 0.65239 0.0
C152 C 0.07861 0.99145 0.67476 0.0
C153 C 0.10175 0.05463 0.6579 0.0
C154 C 0.09839 0.03049 0.62122 0.0
C155 C 0.07437 0.96352 0.61824 0.0
C156 C 0.17949 0.07492 0.67105 0.0
C157 C 0.04565 0.1122 0.66465 0.0
C158 C 0.83006 0.85006 0.53474 0.0
C159 C 0.77113 0.88494 0.51997 0.0
C160 C 0.76717 0.95724 0.52085 0.0
C161 C 0.82572 0.00065 0.53233 0.0
C162 C 0.89783 0.97569 0.53749 0.0
C163 C 0.8899 0.88589 0.54577 0.0
C164 C 0.97105 0.85639 0.58057 0.0
C165 C 0.03194 0.9448 0.58989 0.0
C166 C -0.00819 0.01477 0.56509 0.0
C167 C 0.01702 0.79153 0.57194 0.0
C168 C 0.92489 0.83924 0.61168 0.0
H169 H 0.24317 0.09677 0.61131 0.0
H170 H 0.11785 0.26902 0.54128 0.0
H171 H 0.91847 0.15664 0.57014 0.0
H172 H 0.9577 0.2367 0.55683 0.0
H173 H 0.97886 0.20274 0.59734 0.0
H174 H 0.10131 0.15408 0.50974 0.0
H175 H 0.01898 0.20458 0.50814 0.0
H176 H 0.01957 0.11482 0.50251 0.0
H177 H 0.06991 0.02857 0.72562 0.0
H178 H 0.02789 0.8152 0.70782 0.0
H179 H 0.05753 0.82898 0.64755 0.0
H180 H 0.18219 0.07607 0.69894 0.0
H181 H 0.19392 0.12685 0.6634 0.0
H182 H 0.22159 0.03813 0.66214 0.0
H183 H 0.98922 0.09686 0.65591 0.0
H184 H 0.06086 0.15892 0.65136 0.0
H185 H 0.04409 0.12548 0.69184 0.0
H186 H 0.31457 0.19103 0.59063 0.0
C187 C 0.21451 0.13772 0.5989 0.0
C188 C 0.62514 0.35242 0.99159 0.0
C189 C 0.63181 0.28286 0.98358 0.0
C190 C 0.57607 0.2506 0.9638 0.0
C191 C 0.51899 0.35916 0.95514 0.0
C192 C 0.56492 0.38949 0.97826 0.0
C193 C 0.52604 0.45112 0.995 0.0
H194 H 0.31964 0.72358 0.92299 0.0
C195 C 0.46992 0.40934 0.94202 0.0
C196 C 0.46383 0.46422 0.96591 0.0
H197 H 0.32237 0.68767 0.02892 0.0
H198 H 0.40569 0.59317 0.01963 0.0
H199 H 0.47593 0.67459 0.90664 0.0
H200 H 0.26235 0.58436 0.90736 0.0
H201 H 0.30309 0.54466 0.87287 0.0
H202 H 0.29254 0.63587 0.87382 0.0
H203 H 0.4119 0.68104 0.8719 0.0
H204 H 0.48022 0.6143 0.87402 0.0
C205 C 0.58664 0.50687 0.99581 0.0
C206 C 0.50732 0.42224 0.03326 0.0
C207 C 0.49971 0.41095 0.8146 0.0
C208 C 0.48268 0.46105 0.79096 0.0
C209 C 0.44109 0.51779 0.80059 0.0
C210 C 0.41943 0.5267 0.83359 0.0
C211 C 0.44038 0.4789 0.85781 0.0
C212 C 0.47778 0.42102 0.84809 0.0
C213 C 0.49548 0.37664 0.8777 0.0
C214 C 0.46183 0.41862 0.90677 0.0
C215 C 0.43387 0.47908 0.89477 0.0
C216 C 0.5805 0.37054 0.8812 0.0
C217 C 0.45818 0.30665 0.87174 0.0
C218 C 0.33512 0.69406 0.94468 0.0
C219 C 0.31613 0.71535 0.97706 0.0
C220 C 0.33866 0.67456 1.00378 0.0
C221 C 0.38145 0.616 0.99832 0.0
C222 C 0.39698 0.59221 0.96611 0.0
C223 C 0.37191 0.63195 0.93998 0.0
C224 C 0.38394 0.59965 0.90701 0.0
C225 C 0.41636 0.53218 0.91728 0.0
C226 C 0.42981 0.52669 0.95251 0.0
C227 C 0.44036 0.64447 0.88867 0.0
C228 C 0.30697 0.59093 0.88904 0.0
H229 H 0.47397 0.26403 0.93601 0.0
H230 H 0.66324 0.37578 0.00973 0.0
H231 H 0.49972 0.36837 0.0244 0.0
H232 H 0.42515 0.44777 0.07981 0.0
H233 H 0.5668 0.41531 0.04092 0.0
H234 H 0.5787 0.54268 0.9749 0.0
H235 H 0.64372 0.4874 0.99284 0.0
H236 H 0.59044 0.5333 0.02024 0.0
H237 H 0.53107 0.36643 0.80737 0.0
H238 H 0.42636 0.5562 0.7825 0.0
H239 H 0.38897 0.57198 0.83881 0.0
H240 H 0.60573 0.42102 0.88685 0.0
H241 H 0.60425 0.34994 0.85769 0.0
H242 H 0.59822 0.33557 0.90116 0.0
H243 H 0.4507 0.29384 0.84458 0.0
H244 H 0.40278 0.30543 0.88302 0.0
H245 H 0.49243 0.26493 0.88199 0.0
H246 H 0.5781 0.19651 0.95849 0.0
C247 C 0.5184 0.28888 0.9499 0.0
C248 C 0.62972 0.7436 0.05904 0.0
C249 C 0.70593 0.74899 0.06661 0.0
C250 C 0.73833 0.70505 0.09024 0.0
C251 C 0.62252 0.64677 0.09468 0.0
C252 C 0.58965 0.68918 0.07203 0.0
C253 C 0.52197 0.65536 0.05577 0.0
H254 H 0.33018 0.29537 0.03927 0.0
C255 C 0.57914 0.58578 0.09659 0.0
C256 C 0.52395 0.58334 0.07101 0.0
H257 H 0.21108 0.47621 0.01343 0.0
H258 H 0.30474 0.55054 0.03787 0.0
H259 H 0.48615 0.26058 0.05657 0.0
H260 H 0.41048 0.38849 0.12644 0.0
H261 H 0.45183 0.30603 0.12897 0.0
H262 H 0.37255 0.31757 0.10303 0.0
H263 H 0.53929 0.27071 0.09508 0.0
H264 H 0.57008 0.30987 0.05909 0.0
C265 C 0.53365 0.65862 0.01739 0.0
C266 C 0.45338 0.69385 0.06811 0.0
C267 C 0.55571 0.48605 0.20948 0.0
C268 C 0.54193 0.42041 0.22044 0.0
C269 C 0.54607 0.36489 0.19757 0.0
C270 C 0.55829 0.37642 0.16329 0.0
C271 C 0.56386 0.44335 0.15256 0.0
C272 C 0.56775 0.4962 0.17568 0.0
C273 C 0.5844 0.56227 0.15988 0.0
C274 C 0.58617 0.53994 0.12298 0.0
C275 C 0.56784 0.47163 0.11896 0.0
C276 C 0.65813 0.58987 0.17459 0.0
C277 C 0.52123 0.61336 0.16619 0.0
C278 C 0.3307 0.34934 0.03454 0.0
C279 C 0.2704 0.38226 0.01977 0.0
C280 C 0.2643 0.45434 0.01993 0.0
C281 C 0.32132 0.49965 0.03099 0.0
C282 C 0.39419 0.47693 0.03677 0.0
C283 C 0.38951 0.38703 0.04532 0.0
C284 C 0.47081 0.36066 0.08073 0.0
C285 C 0.5278 0.45137 0.09021 0.0
C286 C 0.4855 0.5196 0.06494 0.0
C287 C 0.51914 0.29714 0.07229 0.0
C288 C 0.42484 0.34219 0.11168 0.0
H289 H 0.72612 0.61369 0.11716 0.0
H290 H 0.60469 0.77451 0.03967 0.0
H291 H 0.40461 0.66016 0.06769 0.0
H292 H 0.44195 0.73983 0.05317 0.0
H293 H 0.46086 0.71054 0.09482 0.0
H294 H 0.59291 0.65817 0.01077 0.0
H295 H 0.50819 0.70468 0.00636 0.0
H296 H 0.51342 0.61411 1.00409 0.0
H297 H 0.55601 0.52886 0.22701 0.0
H298 H 0.53881 0.31355 0.20606 0.0
H299 H 0.5643 0.33431 0.14589 0.0
H300 H 0.65782 0.59152 0.20247 0.0
H301 H 0.66747 0.64287 0.16701 0.0
H302 H 0.70493 0.55706 0.16691 0.0
H303 H 0.46757 0.59268 0.15648 0.0
H304 H 0.53161 0.66189 0.15345 0.0
H305 H 0.5163 0.62508 0.19342 0.0
H306 H 0.79674 0.70779 0.09657 0.0
C307 C 0.69741 0.65268 0.10336 0.0
C308 C 0.17102 0.23582 0.97836 0.0
C309 C 0.12796 0.21481 0.00502 0.0
H310 H 0.25003 0.30838 0.96196 0.0
C311 C 0.12055 0.25839 0.03314 0.0
H312 H 0.17703 0.20359 0.95626 0.0
C313 C 0.15974 0.31927 0.03574 0.0
C314 C 0.20787 0.33735 0.01049 0.0
H315 H 0.08645 0.24427 0.05379 0.0
H316 H 0.15757 0.34915 0.05883 0.0
C317 C 0.21155 0.2963 0.9813 0.0
C318 C 0.22952 0.87167 0.01879 0.0
C319 C 0.17556 0.88941 0.99465 0.0
H320 H 0.31851 0.80473 0.03174 0.0
C321 C 0.17053 0.85157 0.96436 0.0
H322 H 0.23498 0.90013 0.04226 0.0
C323 C 0.21637 0.79602 0.9587 0.0
C324 C 0.27006 0.77724 0.98282 0.0
H325 H 0.1292 0.86334 0.94522 0.0
H326 H 0.20769 0.76667 0.9357 0.0
C327 C 0.27687 0.81656 0.01279 0.0
C328 C 0.87211 0.80883 0.01998 0.0
C329 C 0.85241 0.87571 0.013 0.0
H330 H 0.84012 0.71554 0.04141 0.0
C331 C 0.78179 0.89954 0.02084 0.0
H332 H 0.92702 0.79023 0.01474 0.0
C333 C 0.73274 0.85788 0.03738 0.0
C334 C 0.75405 0.79197 0.04632 0.0
H335 H 0.76672 0.95194 0.01648 0.0
H336 H 0.68001 0.87844 0.04478 0.0
C337 C 0.82295 0.76694 0.03603 0.0
C338 C 0.75253 0.14074 0.01623 0.0
C339 C 0.82241 0.16476 0.00813 0.0
H340 H 0.63592 0.16001 0.01459 0.0
C341 C 0.8299 0.22997 0.99536 0.0
H342 H 0.746 0.08997 0.02565 0.0
C343 C 0.76774 0.26997 0.98936 0.0
C344 C 0.69712 0.24452 0.99528 0.0
H345 H 0.8836 0.24873 0.98864 0.0
H346 H 0.77456 0.31913 0.97816 0.0
C347 C 0.68994 0.18033 0.0096 0.0
C348 C 0.6212 0.76105 0.53164 0.0
C349 C 0.63071 0.71745 0.50367 0.0
H350 H 0.6557 0.85227 0.55764 0.0
C351 C 0.67397 0.73939 0.47728 0.0
H352 H 0.58675 0.74628 0.55205 0.0
C353 C 0.71314 0.8006 0.4805 0.0
C354 C 0.70803 0.84142 0.50974 0.0
H355 H 0.68149 0.70723 0.45526 0.0
H356 H 0.75226 0.81318 0.4615 0.0
C357 C 0.65905 0.82264 0.53452 0.0
C358 C 0.72426 0.38222 0.46921 0.0
C359 C 0.6858 0.39077 0.49917 0.0
H360 H 0.79549 0.31934 0.44001 0.0
C361 C 0.69213 0.34077 0.52361 0.0
H362 H 0.72034 0.42006 0.4499 0.0
C363 C 0.73312 0.28172 0.51747 0.0
C364 C 0.77005 0.27193 0.48701 0.0
H365 H 0.66197 0.3454 0.54665 0.0
H366 H 0.73325 0.24271 0.53619 0.0
C367 C 0.76645 0.3239 0.46334 0.0
C368 C 0.38108 0.30549 0.51603 0.0
C369 C 0.36186 0.3739 0.51345 0.0
H370 H 0.35058 0.20827 0.53384 0.0
C371 C 0.29356 0.3967 0.52508 0.0
H372 H 0.43446 0.28758 0.50796 0.0
C373 C 0.24636 0.35215 0.54077 0.0
C374 C 0.26738 0.28433 0.54531 0.0
H375 H 0.27905 0.45004 0.5241 0.0
H376 H 0.19552 0.3716 0.55096 0.0
C377 C 0.33385 0.26081 0.53159 0.0
C378 C 0.25918 0.64288 0.51671 0.0
C379 C 0.32705 0.66315 0.50415 0.0
H380 H 0.14299 0.66396 0.51881 0.0
C381 C 0.33186 0.72401 0.48678 0.0
H382 H 0.25457 0.59547 0.52979 0.0
C383 C 0.26907 0.76347 0.48114 0.0
C384 C 0.20032 0.74151 0.49197 0.0
H385 H 0.38387 0.73995 0.47671 0.0
H386 H 0.27349 0.80934 0.46679 0.0
C387 C 0.19575 0.68156 0.51028 0.0
C388 C 0.04748 0.02356 0.21298 0.0
C389 C 0.01426 0.98102 0.18829 0.0
H390 H 0.05738 0.04887 0.26554 0.0
C391 C 0.97327 0.92465 0.19837 0.0
H392 H 0.07901 0.06745 0.20595 0.0
C393 C 0.96188 0.91351 0.23241 0.0
C394 C -0.00912 0.95881 0.25686 0.0
H395 H 0.94767 0.89065 0.17982 0.0
H396 H 0.92682 0.87201 0.23951 0.0
C397 C 0.03525 0.01289 0.24699 0.0
C398 C 0.0625 0.91514 0.81434 0.0
C399 C 0.00182 0.95515 0.82405 0.0
H400 H 0.12222 0.8712 0.77337 0.0
C401 C 0.9483 0.97259 0.79958 0.0
H402 H 0.10393 0.89965 0.83271 0.0
C403 C 0.95835 0.9552 0.76585 0.0
C404 C 0.02163 0.91954 0.75598 0.0
H405 H 0.90113 0.00348 0.80612 0.0
H406 H 0.91927 0.97373 0.74713 0.0
C407 C 0.07241 0.89763 0.78054 0.0
C408 C 0.56747 0.51778 0.71154 0.0
C409 C 0.5251 0.4813 0.68734 0.0
H410 H 0.5876 0.53861 0.76398 0.0
C411 C 0.4785 0.42917 0.6979 0.0
H412 H 0.60363 0.55828 0.70422 0.0
C413 C 0.47009 0.41745 0.73208 0.0
C414 C 0.50812 0.45766 0.75616 0.0
H415 H 0.44609 0.39945 0.67975 0.0
H416 H 0.43007 0.3804 0.73969 0.0
C417 C 0.55864 0.50633 0.74568 0.0
C418 C 0.45048 0.46122 0.30101 0.0
C419 C 0.50776 0.4476 0.32435 0.0
H420 H 0.4161 0.46058 0.24921 0.0
C421 C 0.57013 0.41136 0.31341 0.0
H422 H 0.40186 0.48917 0.30843 0.0
C423 C 0.57796 0.39475 0.27939 0.0
C424 C 0.5233 0.41361 0.25591 0.0
H425 H 0.61446 0.39859 0.33091 0.0
H426 H 0.62906 0.37207 0.27115 0.0
C427 C 0.45828 0.44442 0.26712 0.0
loop_
_geom_bond_atom_site_label_1
_geom_bond_atom_site_label_2
_geom_bond_distance
_geom_bond_site_symmetry_2
_ccdc_geom_bond_type
C0 O16 1.251 . S
C0 O18 1.254 1_554 S
N1 C2 1.333 1_445 S
N1 C6 1.307 . S
N1 Zn7 2.020 . S
C2 N1 1.333 1_665 S
C2 C3 1.379 . S
C2 H20 0.952 . S
C3 C2 1.379 . S
C3 C4 1.390 1_665 S
C3 H30 0.949 . S
C4 C3 1.390 1_445 S
C4 C5 1.357 . S
C5 C4 1.357 . S
C5 C6 1.370 . S
C5 H31 0.950 . S
C6 N1 1.307 . S
C6 C5 1.370 . S
C6 H24 0.948 . S
Zn7 N1 2.020 . S
Zn7 O16 2.039 1_445 S
Zn7 O22 2.034 1_455 S
Zn7 O26 2.025 . S
Zn7 O28 2.024 1_545 S
C8 O27 1.246 1_554 S
C8 O28 1.249 . S
N9 C10 1.307 1_445 S
N9 C11 1.333 . S
N9 Zn15 2.020 . S
C10 N9 1.307 1_665 S
C10 C14 1.370 . S
C10 H21 0.948 . S
C11 N9 1.333 . S
C11 C12 1.379 . S
C11 H19 0.952 . S
C12 C11 1.379 . S
C12 C13 1.390 . S
C12 H32 0.949 . S
C13 C12 1.390 . S
C13 C14 1.357 1_445 S
C14 C10 1.370 . S
C14 C13 1.357 1_665 S
C14 H33 0.950 . S
Zn15 N9 2.020 . S
Zn15 O18 2.025 1_445 S
Zn15 O23 2.024 1_455 S
Zn15 O25 2.039 . S
Zn15 O27 2.034 1_545 S
O16 C0 1.251 . S
O16 Zn7 2.039 1_665 S
C17 O22 1.246 . S
C17 O23 1.249 1_554 S
O18 C0 1.254 1_556 S
O18 Zn15 2.025 1_665 S
H19 C11 0.952 . S
H20 C2 0.952 . S
H21 C10 0.948 . S
O22 Zn7 2.034 1_655 S
O22 C17 1.246 . S
O23 Zn15 2.024 1_655 S
O23 C17 1.249 1_556 S
H24 C6 0.948 . S
O25 Zn15 2.039 . S
O25 C29 1.251 1_556 S
O26 Zn7 2.025 . S
O26 C29 1.254 . S
O27 C8 1.246 1_556 S
O27 Zn15 2.034 1_565 S
O28 Zn7 2.024 1_565 S
O28 C8 1.249 . S
C29 O25 1.251 1_554 S
C29 O26 1.254 . S
H30 C3 0.949 . S
H31 C5 0.950 . S
H32 C12 0.949 . S
H33 C14 0.950 . S
C34 O50 1.251 . S
C34 O52 1.254 . S
N35 C36 1.333 . S
N35 C40 1.307 . S
N35 Zn41 2.020 . S
C36 N35 1.333 . S
C36 C37 1.379 . S
C36 H54 0.952 . S
C37 C36 1.379 . S
C37 C38 1.390 . S
C37 H64 0.949 . S
C38 C37 1.390 . S
C38 C39 1.357 . S
C39 C38 1.357 . S
C39 C40 1.370 . S
C39 H65 0.950 . S
C40 N35 1.307 . S
C40 C39 1.370 . S
C40 H58 0.948 . S
Zn41 N35 2.020 . S
Zn41 O50 2.039 . S
Zn41 O56 2.034 . S
Zn41 O60 2.025 . S
Zn41 O62 2.024 . S
C42 O61 1.246 . S
C42 O62 1.249 . S
N43 C44 1.307 . S
N43 C45 1.333 . S
N43 Zn49 2.020 . S
C44 N43 1.307 . S
C44 C48 1.370 . S
C44 H55 0.948 . S
C45 N43 1.333 . S
C45 C46 1.379 . S
C45 H53 0.952 . S
C46 C45 1.379 . S
C46 C47 1.390 . S
C46 H66 0.949 . S
C47 C46 1.390 . S
C47 C48 1.357 . S
C48 C44 1.370 . S
C48 C47 1.357 . S
C48 H67 0.950 . S
Zn49 N43 2.020 . S
Zn49 O52 2.025 . S
Zn49 O57 2.024 . S
Zn49 O59 2.039 . S
Zn49 O61 2.034 . S
O50 C34 1.251 . S
O50 Zn41 2.039 . S
C51 O56 1.246 . S
C51 O57 1.249 . S
O52 C34 1.254 . S
O52 Zn49 2.025 . S
H53 C45 0.952 . S
H54 C36 0.952 . S
H55 C44 0.948 . S
O56 Zn41 2.034 . S
O56 C51 1.246 . S
O57 Zn49 2.024 . S
O57 C51 1.249 . S
H58 C40 0.948 . S
O59 Zn49 2.039 . S
O59 C63 1.251 . S
O60 Zn41 2.025 . S
O60 C63 1.254 . S
O61 C42 1.246 . S
O61 Zn49 2.034 . S
O62 Zn41 2.024 . S
O62 C42 1.249 . S
C63 O59 1.251 . S
C63 O60 1.254 . S
H64 C37 0.949 . S
H65 C39 0.950 . S
H66 C46 0.949 . S
H67 C48 0.950 . S
C68 C69 1.391 . S
C68 C72 1.391 . S
C68 H110 0.948 . S
C69 C68 1.391 . S
C69 C70 1.391 . S
C70 C69 1.391 . S
C70 H126 0.947 . S
C70 C127 1.392 . S
C71 C72 1.391 . S
C71 C75 1.397 . S
C71 C127 1.419 . S
C72 C68 1.391 . S
C72 C71 1.391 . S
C72 C73 1.399 . S
C73 C72 1.399 . S
C73 C76 1.396 . S
C73 C85 1.453 1_565 S
C73 C86 1.684 1_455 S
H74 C98 0.948 . S
C75 C71 1.397 . S
C75 C76 1.394 . S
C75 C94 1.723 . S
C76 C73 1.396 . S
C76 C75 1.394 . S
C76 C106 1.723 1_465 S
H77 C100 0.947 . S
H78 C101 0.948 . S
H79 C107 0.982 . S
H80 C108 0.979 . S
H81 C108 0.980 . S
H82 C108 0.983 . S
H83 C107 0.979 . S
H84 C107 0.977 . S
C85 C73 1.453 1_545 S
C85 H114 0.982 . S
C85 H115 0.979 1_545 S
C85 H116 0.977 . S
C86 C73 1.684 1_655 S
C86 H111 0.979 . S
C86 H112 0.980 . S
C86 H113 0.983 1_655 S
C87 C88 1.391 1_465 S
C87 C92 1.391 . S
C87 H117 0.948 . S
C88 C87 1.391 1_645 S
C88 C89 1.391 . S
C89 C88 1.391 . S
C89 C90 1.392 . S
C89 H118 0.947 . S
C90 C89 1.392 . S
C90 C91 1.419 . S
C90 H119 0.948 . S
C91 C90 1.419 . S
C91 C92 1.391 1_645 S
C91 C95 1.397 . S
C92 C87 1.391 . S
C92 C91 1.391 1_465 S
C92 C93 1.399 . S
C93 C92 1.399 . S
C93 C94 1.396 . S
C93 C96 1.453 . S
C93 C97 1.684 . S
C94 C75 1.723 . S
C94 C93 1.396 . S
C94 C95 1.394 1_465 S
C95 C91 1.397 . S
C95 C94 1.394 1_645 S
C95 C105 1.723 . S
C96 C93 1.453 . S
C96 H120 0.982 . S
C96 H121 0.979 . S
C96 H122 0.977 . S
C97 C93 1.684 . S
C97 H123 0.979 . S
C97 H124 0.980 . S
C97 H125 0.983 . S
C98 H74 0.948 . S
C98 C99 1.391 . S
C98 C103 1.391 . S
C99 C98 1.391 . S
C99 C100 1.391 . S
C100 H77 0.947 . S
C100 C99 1.391 . S
C100 C101 1.392 . S
C101 H78 0.948 . S
C101 C100 1.392 . S
C101 C102 1.419 . S
C102 C101 1.419 . S
C102 C103 1.391 . S
C102 C106 1.397 . S
C103 C98 1.391 . S
C103 C102 1.391 . S
C103 C104 1.399 . S
C104 C103 1.399 . S
C104 C105 1.396 . S
C104 C107 1.453 . S
C104 C108 1.684 . S
C105 C95 1.723 . S
C105 C104 1.396 . S
C105 C106 1.394 . S
C106 C76 1.723 1_645 S
C106 C102 1.397 . S
C106 C105 1.394 . S
C107 H79 0.982 . S
C107 H83 0.979 . S
C107 H84 0.977 . S
C107 C104 1.453 . S
C108 H80 0.979 . S
C108 H81 0.980 . S
C108 H82 0.983 . S
C108 C104 1.684 . S
H109 C127 0.948 . S
H110 C68 0.948 . S
H111 C86 0.979 . S
H112 C86 0.980 . S
H113 C86 0.983 1_455 S
H114 C85 0.982 . S
H115 C85 0.979 1_565 S
H116 C85 0.977 . S
H117 C87 0.948 . S
H118 C89 0.947 . S
H119 C90 0.948 . S
H120 C96 0.982 . S
H121 C96 0.979 . S
H122 C96 0.977 . S
H123 C97 0.979 . S
H124 C97 0.980 . S
H125 C97 0.983 . S
H126 C70 0.947 . S
C127 C70 1.392 . S
C127 C71 1.419 . S
C127 H109 0.948 . S
C128 C129 1.391 . S
C128 C132 1.391 . S
C128 H170 0.948 . S
C129 C128 1.391 . S
C129 C130 1.391 . S
C130 C129 1.391 . S
C130 H186 0.947 . S
C130 C187 1.392 . S
C131 C132 1.391 . S
C131 C135 1.397 . S
C131 C187 1.419 . S
C132 C128 1.391 . S
C132 C131 1.391 . S
C132 C133 1.399 . S
C133 C132 1.399 . S
C133 C136 1.396 . S
C133 C145 1.453 . S
C133 C146 1.684 1_455 S
H134 C158 0.948 . S
C135 C131 1.397 . S
C135 C136 1.394 . S
C135 C154 1.723 . S
C136 C133 1.396 . S
C136 C135 1.394 . S
C136 C166 1.723 1_445 S
H137 C160 0.947 . S
H138 C161 0.948 . S
H139 C167 0.982 . S
H140 C168 0.979 . S
H141 C168 0.980 . S
H142 C168 0.983 . S
H143 C167 0.979 . S
H144 C167 0.977 . S
C145 C133 1.453 . S
C145 H174 0.982 1_545 S
C145 H175 0.979 . S
C145 H176 0.977 1_545 S
C146 C133 1.684 1_655 S
C146 H171 0.979 . S
C146 H172 0.980 . S
C146 H173 0.983 1_655 S
C147 C148 1.391 . S
C147 C152 1.391 . S
C147 H177 0.948 . S
C148 C147 1.391 . S
C148 C149 1.391 1_445 S
C149 C148 1.391 1_665 S
C149 C150 1.392 . S
C149 H178 0.947 . S
C150 C149 1.392 . S
C150 C151 1.419 1_655 S
C150 H179 0.948 . S
C151 C150 1.419 1_455 S
C151 C152 1.391 1_565 S
C151 C155 1.397 . S
C152 C147 1.391 . S
C152 C151 1.391 1_545 S
C152 C153 1.399 . S
C153 C152 1.399 . S
C153 C154 1.396 . S
C153 C156 1.453 . S
C153 C157 1.684 . S
C154 C135 1.723 . S
C154 C153 1.396 . S
C154 C155 1.394 1_545 S
C155 C151 1.397 . S
C155 C154 1.394 1_565 S
C155 C165 1.723 1_455 S
C156 C153 1.453 . S
C156 H180 0.982 . S
C156 H181 0.979 . S
C156 H182 0.977 . S
C157 C153 1.684 . S
C157 H183 0.979 . S
C157 H184 0.980 . S
C157 H185 0.983 . S
C158 H134 0.948 . S
C158 C159 1.391 . S
C158 C163 1.391 . S
C159 C158 1.391 . S
C159 C160 1.391 . S
C160 H137 0.947 . S
C160 C159 1.391 . S
C160 C161 1.392 . S
C161 H138 0.948 . S
C161 C160 1.392 . S
C161 C162 1.419 . S
C162 C161 1.419 . S
C162 C163 1.391 . S
C162 C166 1.397 . S
C163 C158 1.391 . S
C163 C162 1.391 . S
C163 C164 1.399 . S
C164 C163 1.399 . S
C164 C165 1.396 . S
C164 C167 1.453 . S
C164 C168 1.684 . S
C165 C155 1.723 1_655 S
C165 C164 1.396 . S
C165 C166 1.394 . S
C166 C136 1.723 1_665 S
C166 C162 1.397 . S
C166 C165 1.394 . S
C167 H139 0.982 . S
C167 H143 0.979 . S
C167 H144 0.977 . S
C167 C164 1.453 . S
C168 H140 0.979 . S
C168 H141 0.980 . S
C168 H142 0.983 . S
C168 C164 1.684 . S
H169 C187 0.948 . S
H170 C128 0.948 . S
H171 C146 0.979 . S
H172 C146 0.980 . S
H173 C146 0.983 1_455 S
H174 C145 0.982 1_565 S
H175 C145 0.979 . S
H176 C145 0.977 1_565 S
H177 C147 0.948 . S
H178 C149 0.947 . S
H179 C150 0.948 . S
H180 C156 0.982 . S
H181 C156 0.979 . S
H182 C156 0.977 . S
H183 C157 0.979 . S
H184 C157 0.980 . S
H185 C157 0.983 . S
H186 C130 0.947 . S
C187 C130 1.392 . S
C187 C131 1.419 . S
C187 H169 0.948 . S
C188 C189 1.391 . S
C188 C192 1.391 . S
C188 H230 0.948 . S
C189 C188 1.391 . S
C189 C190 1.391 1_554 S
C190 C189 1.391 1_556 S
C190 H246 0.947 . S
C190 C247 1.392 . S
C191 C192 1.391 1_556 S
C191 C195 1.397 . S
C191 C247 1.419 . S
C192 C188 1.391 . S
C192 C191 1.391 1_554 S
C192 C193 1.399 . S
C193 C192 1.399 . S
C193 C196 1.396 1_554 S
C193 C205 1.453 . S
C193 C206 1.684 . S
H194 C218 0.948 . S
C195 C191 1.397 . S
C195 C196 1.394 . S
C195 C214 1.723 . S
C196 C193 1.396 1_556 S
C196 C195 1.394 . S
C196 C226 1.723 . S
H197 C220 0.947 . S
H198 C221 0.948 . S
H199 C227 0.982 . S
H200 C228 0.979 . S
H201 C228 0.980 . S
H202 C228 0.983 . S
H203 C227 0.979 . S
H204 C227 0.977 . S
C205 C193 1.453 . S
C205 H234 0.982 . S
C205 H235 0.979 . S
C205 H236 0.977 . S
C206 C193 1.684 . S
C206 H231 0.979 . S
C206 H232 0.980 . S
C206 H233 0.983 . S
C207 C208 1.391 . S
C207 C212 1.391 . S
C207 H237 0.948 . S
C208 C207 1.391 . S
C208 C209 1.391 . S
C209 C208 1.391 . S
C209 C210 1.392 . S
C209 H238 0.947 . S
C210 C209 1.392 . S
C210 C211 1.419 . S
C210 H239 0.948 . S
C211 C210 1.419 . S
C211 C212 1.391 . S
C211 C215 1.397 . S
C212 C207 1.391 . S
C212 C211 1.391 . S
C212 C213 1.399 . S
C213 C212 1.399 . S
C213 C214 1.396 . S
C213 C216 1.453 . S
C213 C217 1.684 . S
C214 C195 1.723 . S
C214 C213 1.396 . S
C214 C215 1.394 . S
C215 C211 1.397 . S
C215 C214 1.394 . S
C215 C225 1.723 . S
C216 C213 1.453 . S
C216 H240 0.982 . S
C216 H241 0.979 . S
C216 H242 0.977 . S
C217 C213 1.684 . S
C217 H243 0.979 . S
C217 H244 0.980 . S
C217 H245 0.983 . S
C218 H194 0.948 . S
C218 C219 1.391 1_556 S
C218 C223 1.391 . S
C219 C218 1.391 1_554 S
C219 C220 1.391 . S
C220 H197 0.947 . S
C220 C219 1.391 . S
C220 C221 1.392 . S
C221 H198 0.948 . S
C221 C220 1.392 . S
C221 C222 1.419 1_554 S
C222 C221 1.419 1_556 S
C222 C223 1.391 . S
C222 C226 1.397 . S
C223 C218 1.391 . S
C223 C222 1.391 . S
C223 C224 1.399 . S
C224 C223 1.399 . S
C224 C225 1.396 . S
C224 C227 1.453 . S
C224 C228 1.684 . S
C225 C215 1.723 . S
C225 C224 1.396 . S
C225 C226 1.394 . S
C226 C196 1.723 . S
C226 C222 1.397 . S
C226 C225 1.394 . S
C227 H199 0.982 . S
C227 H203 0.979 . S
C227 H204 0.977 . S
C227 C224 1.453 . S
C228 H200 0.979 . S
C228 H201 0.980 . S
C228 H202 0.983 . S
C228 C224 1.684 . S
H229 C247 0.948 . S
H230 C188 0.948 . S
H231 C206 0.979 . S
H232 C206 0.980 . S
H233 C206 0.983 . S
H234 C205 0.982 . S
H235 C205 0.979 . S
H236 C205 0.977 . S
H237 C207 0.948 . S
H238 C209 0.947 . S
H239 C210 0.948 . S
H240 C216 0.982 . S
H241 C216 0.979 . S
H242 C216 0.977 . S
H243 C217 0.979 . S
H244 C217 0.980 . S
H245 C217 0.983 . S
H246 C190 0.947 . S
C247 C190 1.392 . S
C247 C191 1.419 . S
C247 H229 0.948 . S
C248 C249 1.391 1_556 S
C248 C252 1.391 1_556 S
C248 H290 0.948 . S
C249 C248 1.391 1_554 S
C249 C250 1.391 . S
C250 C249 1.391 . S
C250 H306 0.947 . S
C250 C307 1.392 . S
C251 C252 1.391 . S
C251 C255 1.397 . S
C251 C307 1.419 . S
C252 C248 1.391 1_554 S
C252 C251 1.391 . S
C252 C253 1.399 . S
C253 C252 1.399 . S
C253 C256 1.396 . S
C253 C265 1.453 1_554 S
C253 C266 1.684 1_554 S
H254 C278 0.948 . S
C255 C251 1.397 . S
C255 C256 1.394 . S
C255 C274 1.723 . S
C256 C253 1.396 . S
C256 C255 1.394 . S
C256 C286 1.723 . S
H257 C280 0.947 . S
H258 C281 0.948 . S
H259 C287 0.982 . S
H260 C288 0.979 . S
H261 C288 0.980 . S
H262 C288 0.983 . S
H263 C287 0.979 . S
H264 C287 0.977 . S
C265 C253 1.453 1_556 S
C265 H294 0.982 . S
C265 H295 0.979 . S
C265 H296 0.977 . S
C266 C253 1.684 1_556 S
C266 H291 0.979 . S
C266 H292 0.980 . S
C266 H293 0.983 . S
C267 C268 1.391 . S
C267 C272 1.391 . S
C267 H297 0.948 . S
C268 C267 1.391 . S
C268 C269 1.391 . S
C269 C268 1.391 . S
C269 C270 1.392 . S
C269 H298 0.947 . S
C270 C269 1.392 . S
C270 C271 1.419 . S
C270 H299 0.948 . S
C271 C270 1.419 . S
C271 C272 1.391 . S
C271 C275 1.397 . S
C272 C267 1.391 . S
C272 C271 1.391 . S
C272 C273 1.399 . S
C273 C272 1.399 . S
C273 C274 1.396 . S
C273 C276 1.453 . S
C273 C277 1.684 . S
C274 C255 1.723 . S
C274 C273 1.396 . S
C274 C275 1.394 . S
C275 C271 1.397 . S
C275 C274 1.394 . S
C275 C285 1.723 . S
C276 C273 1.453 . S
C276 H300 0.982 . S
C276 H301 0.979 . S
C276 H302 0.977 . S
C277 C273 1.684 . S
C277 H303 0.979 . S
C277 H304 0.980 . S
C277 H305 0.983 . S
C278 H254 0.948 . S
C278 C279 1.391 1_554 S
C278 C283 1.391 . S
C279 C278 1.391 1_556 S
C279 C280 1.391 . S
C280 H257 0.947 . S
C280 C279 1.391 . S
C280 C281 1.392 . S
C281 H258 0.948 . S
C281 C280 1.392 . S
C281 C282 1.419 1_556 S
C282 C281 1.419 1_554 S
C282 C283 1.391 . S
C282 C286 1.397 . S
C283 C278 1.391 . S
C283 C282 1.391 . S
C283 C284 1.399 . S
C284 C283 1.399 . S
C284 C285 1.396 . S
C284 C287 1.453 . S
C284 C288 1.684 . S
C285 C275 1.723 . S
C285 C284 1.396 . S
C285 C286 1.394 . S
C286 C256 1.723 . S
C286 C282 1.397 . S
C286 C285 1.394 . S
C287 H259 0.982 . S
C287 H263 0.979 . S
C287 H264 0.977 . S
C287 C284 1.453 . S
C288 H260 0.979 . S
C288 H261 0.980 . S
C288 H262 0.983 . S
C288 C284 1.684 . S
H289 C307 0.948 . S
H290 C248 0.948 . S
H291 C266 0.979 . S
H292 C266 0.980 . S
H293 C266 0.983 . S
H294 C265 0.982 . S
H295 C265 0.979 . S
H296 C265 0.977 . S
H297 C267 0.948 . S
H298 C269 0.947 . S
H299 C270 0.948 . S
H300 C276 0.982 . S
H301 C276 0.979 . S
H302 C276 0.977 . S
H303 C277 0.979 . S
H304 C277 0.980 . S
H305 C277 0.983 . S
H306 C250 0.947 . S
C307 C250 1.392 . S
C307 C251 1.419 . S
C307 H289 0.948 . S
C308 C309 1.387 . S
C308 H312 0.950 . S
C308 C317 1.390 . S
C309 C308 1.387 . S
C309 C311 1.387 1_554 S
H310 C317 0.950 . S
C311 C309 1.387 1_556 S
C311 C313 1.390 . S
C311 H315 0.950 . S
H312 C308 0.950 . S
C313 C311 1.390 . S
C313 C314 1.387 . S
C313 H316 0.950 . S
C314 C313 1.387 . S
C314 C317 1.387 1_556 S
H315 C311 0.950 . S
H316 C313 0.950 . S
C317 C308 1.390 . S
C317 H310 0.950 . S
C317 C314 1.387 1_554 S
C318 C319 1.387 . S
C318 H322 0.950 . S
C318 C327 1.390 . S
C319 C318 1.387 . S
C319 C321 1.387 1_554 S
H320 C327 0.950 . S
C321 C319 1.387 1_556 S
C321 C323 1.390 . S
C321 H325 0.950 . S
H322 C318 0.950 . S
C323 C321 1.390 . S
C323 C324 1.387 1_556 S
C323 H326 0.950 . S
C324 C323 1.387 1_554 S
C324 C327 1.387 . S
H325 C321 0.950 . S
H326 C323 0.950 . S
C327 C318 1.390 . S
C327 H320 0.950 . S
C327 C324 1.387 . S
C328 C329 1.387 . S
C328 H332 0.950 . S
C328 C337 1.390 . S
C329 C328 1.387 . S
C329 C331 1.387 1_554 S
H330 C337 0.950 . S
C331 C329 1.387 1_556 S
C331 C333 1.390 . S
C331 H335 0.950 . S
H332 C328 0.950 . S
C333 C331 1.390 . S
C333 C334 1.387 . S
C333 H336 0.950 . S
C334 C333 1.387 . S
C334 C337 1.387 1_556 S
H335 C331 0.950 . S
H336 C333 0.950 . S
C337 C328 1.390 . S
C337 H330 0.950 . S
C337 C334 1.387 1_554 S
C338 C339 1.387 . S
C338 H342 0.950 . S
C338 C347 1.390 . S
C339 C338 1.387 . S
C339 C341 1.387 1_554 S
H340 C347 0.950 . S
C341 C339 1.387 1_556 S
C341 C343 1.390 . S
C341 H345 0.950 . S
H342 C338 0.950 . S
C343 C341 1.390 . S
C343 C344 1.387 1_556 S
C343 H346 0.950 . S
C344 C343 1.387 1_554 S
C344 C347 1.387 . S
H345 C341 0.950 . S
H346 C343 0.950 . S
C347 C338 1.390 . S
C347 H340 0.950 . S
C347 C344 1.387 . S
C348 C349 1.387 . S
C348 H352 0.950 . S
C348 C357 1.390 . S
C349 C348 1.387 . S
C349 C351 1.387 . S
H350 C357 0.950 . S
C351 C349 1.387 . S
C351 C353 1.390 . S
C351 H355 0.950 . S
H352 C348 0.950 . S
C353 C351 1.390 . S
C353 C354 1.387 . S
C353 H356 0.950 . S
C354 C353 1.387 . S
C354 C357 1.387 . S
H355 C351 0.950 . S
H356 C353 0.950 . S
C357 C348 1.390 . S
C357 H350 0.950 . S
C357 C354 1.387 . S
C358 C359 1.387 . S
C358 H362 0.950 . S
C358 C367 1.390 . S
C359 C358 1.387 . S
C359 C361 1.387 . S
H360 C367 0.950 . S
C361 C359 1.387 . S
C361 C363 1.390 . S
C361 H365 0.950 . S
H362 C358 0.950 . S
C363 C361 1.390 . S
C363 C364 1.387 . S
C363 H366 0.950 . S
C364 C363 1.387 . S
C364 C367 1.387 . S
H365 C361 0.950 . S
H366 C363 0.950 . S
C367 C358 1.390 . S
C367 H360 0.950 . S
C367 C364 1.387 . S
C368 C369 1.387 . S
C368 H372 0.950 . S
C368 C377 1.390 . S
C369 C368 1.387 . S
C369 C371 1.387 . S
H370 C377 0.950 . S
C371 C369 1.387 . S
C371 C373 1.390 . S
C371 H375 0.950 . S
H372 C368 0.950 . S
C373 C371 1.390 . S
C373 C374 1.387 . S
C373 H376 0.950 . S
C374 C373 1.387 . S
C374 C377 1.387 . S
H375 C371 0.950 . S
H376 C373 0.950 . S
C377 C368 1.390 . S
C377 H370 0.950 . S
C377 C374 1.387 . S
C378 C379 1.387 . S
C378 H382 0.950 . S
C378 C387 1.390 . S
C379 C378 1.387 . S
C379 C381 1.387 . S
H380 C387 0.950 . S
C381 C379 1.387 . S
C381 C383 1.390 . S
C381 H385 0.950 . S
H382 C378 0.950 . S
C383 C381 1.390 . S
C383 C384 1.387 . S
C383 H386 0.950 . S
C384 C383 1.387 . S
C384 C387 1.387 . S
H385 C381 0.950 . S
H386 C383 0.950 . S
C387 C378 1.390 . S
C387 H380 0.950 . S
C387 C384 1.387 . S
C388 C389 1.387 . S
C388 H392 0.950 . S
C388 C397 1.390 . S
C389 C388 1.387 . S
C389 C391 1.387 1_445 S
H390 C397 0.950 . S
C391 C389 1.387 1_665 S
C391 C393 1.390 . S
C391 H395 0.950 . S
H392 C388 0.950 . S
C393 C391 1.390 . S
C393 C394 1.390 1_565 S
C393 H396 0.950 . S
C394 C393 1.390 1_545 S
C394 C397 1.384 1_655 S
H395 C391 0.950 . S
H396 C393 0.950 . S
C397 C388 1.390 . S
C397 H390 0.950 . S
C397 C394 1.384 1_455 S
C398 C399 1.387 1_565 S
C398 H402 0.950 . S
C398 C407 1.390 . S
C399 C398 1.387 1_545 S
C399 C401 1.387 . S
H400 C407 0.950 . S
C401 C399 1.387 . S
C401 C403 1.390 . S
C401 H405 0.950 . S
H402 C398 0.950 . S
C403 C401 1.390 . S
C403 C404 1.387 . S
C403 H406 0.950 . S
C404 C403 1.387 . S
C404 C407 1.387 1_545 S
H405 C401 0.950 . S
H406 C403 0.950 . S
C407 C398 1.390 . S
C407 H400 0.950 . S
C407 C404 1.387 1_565 S
C408 C409 1.387 . S
C408 H412 0.950 . S
C408 C417 1.390 . S
C409 C408 1.387 . S
C409 C411 1.387 . S
H410 C417 0.950 . S
C411 C409 1.387 . S
C411 C413 1.390 . S
C411 H415 0.950 . S
H412 C408 0.950 . S
C413 C411 1.390 . S
C413 C414 1.387 . S
C413 H416 0.950 . S
C414 C413 1.387 . S
C414 C417 1.387 . S
H415 C411 0.950 . S
H416 C413 0.950 . S
C417 C408 1.390 . S
C417 H410 0.950 . S
C417 C414 1.387 . S
C418 C419 1.387 . S
C418 H422 0.950 . S
C418 C427 1.390 . S
C419 C418 1.387 . S
C419 C421 1.387 . S
H420 C427 0.950 . S
C421 C419 1.387 . S
C421 C423 1.390 . S
C421 H425 0.950 . S
H422 C418 0.950 . S
C423 C421 1.390 . S
C423 C424 1.387 . S
C423 H426 0.950 . S
C424 C423 1.387 . S
C424 C427 1.387 . S
H425 C421 0.950 . S
H426 C423 0.950 . S
C427 C418 1.390 . S
C427 H420 0.950 . S
C427 C424 1.387 . S
C314 C279 1.594 . S
C309 C29 1.627 . S
C319 C8 1.597 . S
C324 C219 1.578 . S
C329 C0 1.581 . S
C334 C249 1.407 1_556 S
C339 C17 1.611 . S
C344 C189 1.431 . S
C349 C63 1.627 . S
C354 C159 1.593 . S
C359 C42 1.597 . S
C364 C99 1.578 . S
C374 C129 1.407 . S
C369 C34 1.581 . S
C384 C69 1.430 . S
C379 C51 1.611 . S
C389 C4 1.490 . S
C394 C88 1.472 . S
C399 C13 1.490 . S
C404 C148 1.461 . S
C414 C208 1.471 . S
C409 C38 1.490 . S
C419 C47 1.489 . S
C424 C268 1.463 . S
