# Generated by pormake.
# Topology pts, (4,4)-cn, num edge types: 1
# Building blocks:
#     Node 0, Type 0, BuildingBlock: KUFVIS_clean_linker_0, # of connection points: 4
#     Node 1, Type 0, BuildingBlock: KUFVIS_clean_linker_0, # of connection points: 4
#     Node 2, Type 1, BuildingBlock: UXUYUI_clean_sbu_0, # of connection points: 4
#     Node 3, Type 1, BuildingBlock: UXUYUI_clean_sbu_0, # of connection points: 4
#     Edge 4, Type (0, 1), BuildingBlock: XIVTED_clean_linker_0, # of connection points: 2
#     Edge 5, Type (0, 1), BuildingBlock: XIVTED_clean_linker_0, # of connection points: 2
#     Edge 6, Type (0, 1), BuildingBlock: XIVTED_clean_linker_0, # of connection points: 2
#     Edge 7, Type (0, 1), BuildingBlock: XIVTED_clean_linker_0, # of connection points: 2
#     Edge 8, Type (0, 1), BuildingBlock: XIVTED_clean_linker_0, # of connection points: 2
#     Edge 9, Type (0, 1), BuildingBlock: XIVTED_clean_linker_0, # of connection points: 2
#     Edge 10, Type (0, 1), BuildingBlock: XIVTED_clean_linker_0, # of connection points: 2
#     Edge 11, Type (0, 1), BuildingBlock: XIVTED_clean_linker_0, # of connection points: 2
# Relax obj value: 0.008
# Max RMSD: 0.067
# Mean RMSD: 0.060
data_MOF--net-pts--node1-UXUYUI_clean_sbu_0--node2-KUFVIS_clean_linker_0--edge1-XIVTED_clean_linker_0
_symmetry_space_group_name_H-M    P1
_symmetry_Int_Tables_number       1
_symmetry_cell_setting            triclinic
loop_
_symmetry_equiv_pos_as_xyz
'x, y, z'
_cell_length_a     31.347772
_cell_length_b     31.277702
_cell_length_c     43.18491
_cell_angle_alpha  89.912404
_cell_angle_beta   90.184843
_cell_angle_gamma 89.478014
loop_
_atom_site_label
_atom_site_type_symbol
_atom_site_fract_x
_atom_site_fract_y
_atom_site_fract_z
_atom_type_partial_charge
H0 H 0.3795 0.03057 -0.01435 0.0
H1 H 0.49489 1.00359 0.93628 0.0
H2 H 0.49953 0.04876 0.03112 0.0
H3 H 0.55941 1.00696 0.03131 0.0
H4 H 0.67578 1.01883 -0.0197 0.0
H5 H 0.55679 0.04111 0.93394 0.0
C6 C 0.41411 0.02938 -0.01498 0.0
C7 C 0.43731 0.04079 0.01134 0.0
C8 C 0.43468 1.01617 0.95799 0.0
C9 C 0.47942 1.01475 0.95718 0.0
C10 C 0.50376 0.02616 -0.01647 0.0
C11 C 0.48203 0.03909 0.01068 0.0
C12 C 0.55153 0.02432 -0.01725 0.0
C13 C 0.57535 1.01425 0.00976 0.0
C14 C 0.62009 1.01208 0.00888 0.0
C15 C 0.64118 1.02018 -0.01894 0.0
C16 C 0.61845 0.03026 0.95417 0.0
C17 C 0.57379 0.03242 0.95493 0.0
H18 H 0.03461 0.67366 0.47839 0.0
H19 H 1.00292 0.55961 0.52748 0.0
H20 H 0.05108 0.55259 0.4335 0.0
H21 H 1.00984 0.49372 0.43256 0.0
H22 H 1.00552 0.37846 0.48627 0.0
H23 H 0.03566 0.4959 0.53133 0.0
C24 C 0.03257 0.63904 0.47903 0.0
C25 C 0.04417 0.61533 0.45295 0.0
C26 C 1.01816 0.61905 0.50588 0.0
C27 C 1.01538 0.57437 0.50675 0.0
C28 C 0.02697 0.54934 0.48074 0.0
C29 C 0.04133 0.57054 0.45372 0.0
C30 C 0.02307 0.50155 0.48179 0.0
C31 C 1.01368 0.47786 0.4547 0.0
C32 C 1.00746 0.43345 0.45622 0.0
C33 C 1.01011 0.41277 0.4849 0.0
C34 C 1.01969 0.43526 0.51185 0.0
C35 C 0.02722 0.47928 0.51025 0.0
Li36 Li 0.02639 0.06335 0.25239 0.0
Li37 Li 0.03362 0.98475 0.25174 0.0
Li38 Li 0.06932 0.03111 0.2117 0.0
Li39 Li 0.9912 1.01915 0.2109 0.0
C40 C 0.10185 0.04938 0.27944 0.0
N41 N 0.14657 0.09322 0.32438 0.0
C42 C 0.10444 0.03331 0.3096 0.0
C43 C 0.12254 0.08742 0.27203 0.0
C44 C 0.12708 0.05601 0.33203 0.0
C45 C 0.14482 0.10922 0.2951 0.0
C46 C 0.95536 0.99755 0.27637 0.0
C47 C 0.90861 0.9385 0.28692 0.0
N48 N 0.90487 0.95186 0.31675 0.0
C49 C 0.95067 1.01098 0.30703 0.0
C50 C 0.93382 0.96128 0.26613 0.0
C51 C 0.92515 0.98736 0.32712 0.0
C52 C 1.0124 0.15147 0.26195 0.0
N53 N 1.02003 0.11392 0.27701 0.0
C54 C 1.01808 0.14964 0.32592 0.0
C55 C 0.02288 0.11236 0.30842 0.0
C56 C 1.0106 0.1889 0.3109 0.0
C57 C 1.00795 0.18957 0.27848 0.0
H58 H 1.00939 0.15188 0.23705 0.0
H59 H 0.02888 0.0822 0.31993 0.0
C60 C 0.05157 0.89699 0.25969 0.0
N61 N 0.03984 0.93301 0.27523 0.0
C62 C 0.05624 0.8581 0.27531 0.0
C63 C 0.03819 0.89422 0.32298 0.0
C64 C 0.03326 0.93232 0.30634 0.0
C65 C 0.04969 0.85645 0.30739 0.0
H66 H 0.05768 0.89844 0.23513 0.0
H67 H 0.02442 0.96136 0.3183 0.0
C68 C 0.03445 0.10071 0.18342 0.0
N69 N 0.05923 0.1539 0.13569 0.0
C70 C 1.01484 0.09787 0.15439 0.0
C71 C 0.06629 0.13101 0.18826 0.0
C72 C 0.02789 0.12496 0.13054 0.0
C73 C 0.0785 0.15747 0.16382 0.0
C74 C 0.02721 0.94871 0.18296 0.0
C75 C 0.04667 0.95154 0.15397 0.0
C76 C 0.99667 0.91724 0.1882 0.0
C77 C 0.03467 0.92334 0.13051 0.0
C78 C 0.98549 0.88967 0.16415 0.0
N79 N 1.00453 0.89329 0.13602 0.0
C80 C 0.15821 0.03155 0.20439 0.0
C81 C 0.12099 0.04786 0.15799 0.0
C82 C 0.19738 0.03656 0.18957 0.0
N83 N 0.12102 0.03764 0.18861 0.0
C84 C 0.15943 0.05329 0.14226 0.0
C85 C 0.19836 0.04777 0.1581 0.0
H86 H 0.15753 1.02277 0.22858 0.0
H87 H 0.09119 0.05151 0.14564 0.0
C88 C 0.90253 1.0224 0.20165 0.0
N89 N 0.9399 1.01368 0.18692 0.0
C90 C 0.86361 1.018 0.1862 0.0
C91 C 0.90223 0.99667 0.14036 0.0
C92 C 0.94039 1.00159 0.15669 0.0
C93 C 0.86308 1.00468 0.15517 0.0
H94 H 0.9029 0.03267 0.22553 0.0
H95 H 0.97036 0.99612 0.14507 0.0
O96 O 0.07938 0.02788 0.25725 0.0
O97 O 0.9806 1.02002 0.25643 0.0
O98 O 1.02213 0.07434 0.20703 0.0
O99 O 0.03848 0.97621 0.20617 0.0
H100 H 0.08903 1.00373 0.31569 0.0
H101 H 0.12139 0.09998 0.24873 0.0
H102 H 0.12912 0.04406 0.35551 0.0
H103 H 0.16076 0.13883 0.28971 0.0
H104 H 0.89192 0.91025 0.27931 0.0
H105 H 0.96667 0.03921 0.31529 0.0
H106 H 0.93636 0.95095 0.24236 0.0
H107 H 0.92146 0.99725 0.35096 0.0
H108 H 1.02063 0.14785 0.3509 0.0
H109 H 1.00165 0.2191 0.26608 0.0
H110 H 0.06572 0.8298 0.26255 0.0
H111 H 0.03266 0.89421 0.34772 0.0
H112 H 0.98989 0.07499 0.15027 0.0
H113 H 0.08147 0.13406 0.21063 0.0
H114 H 1.0131 0.12295 0.10793 0.0
H115 H 0.10327 0.18088 0.16722 0.0
H116 H 0.07067 0.97529 0.14956 0.0
H117 H 0.98189 0.91396 0.21061 0.0
H118 H 0.04932 0.92535 0.10791 0.0
H119 H 0.96176 0.86532 0.16786 0.0
H120 H 0.22655 0.03213 0.20274 0.0
H121 H 0.15863 0.06099 0.1178 0.0
H122 H 0.83425 0.02442 0.19856 0.0
H123 H 0.90343 0.98736 0.11624 0.0
Li124 Li 0.98908 0.02762 0.7533 0.0
Li125 Li 0.06951 1.02017 0.74951 0.0
Li126 Li 0.0297 0.06353 0.71323 0.0
Li127 Li 0.02676 0.98759 0.71044 0.0
C128 C 0.04661 0.11188 0.76319 0.0
N129 N 0.07293 0.1955 0.76915 0.0
C130 C 0.08847 0.12294 0.75581 0.0
C131 C 1.01817 0.14327 0.77371 0.0
C132 C 0.10114 0.16542 0.75895 0.0
C133 C 0.03209 0.18539 0.77654 0.0
C134 C 0.04082 0.95353 0.78118 0.0
C135 C 0.09179 0.90572 0.80541 0.0
N136 N 0.07249 0.9123 0.83317 0.0
C137 C 1.02136 0.95962 0.80994 0.0
C138 C 0.07618 0.92615 0.77885 0.0
C139 C 0.03787 0.93853 0.83595 0.0
C140 C 0.90595 1.00515 0.76793 0.0
N141 N 0.93912 0.02922 0.77788 0.0
C142 C 0.89749 0.05642 0.81982 0.0
C143 C 0.93582 0.05439 0.80339 0.0
C144 C 0.86223 0.0325 0.80976 0.0
C145 C 0.86701 1.00647 0.78346 0.0
H146 H 0.90955 0.98563 0.74743 0.0
H147 H 0.9629 0.07289 0.81092 0.0
C148 C 0.15893 1.01286 0.75842 0.0
N149 N 0.12095 1.01651 0.77336 0.0
C150 C 0.19695 1.00917 0.77521 0.0
C151 C 0.15619 1.01427 0.82249 0.0
C152 C 0.11902 1.01823 0.80477 0.0
C153 C 0.19583 1.00936 0.8077 0.0
H154 H 0.1598 1.01289 0.73343 0.0
H155 H 0.08854 1.02243 0.81606 0.0
C156 C 0.95355 0.052 0.68797 0.0
N157 N 0.9054 0.10146 0.6476 0.0
C158 C 0.96648 0.05717 0.65726 0.0
C159 C 0.91598 0.07188 0.6981 0.0
C160 C 0.94178 0.08237 0.63723 0.0
C161 C 0.8921 0.09674 0.67734 0.0
C162 C 0.09537 1.00044 0.68088 0.0
C163 C 0.0903 1.01307 0.65001 0.0
C164 C 0.11737 0.96248 0.68772 0.0
C165 C 0.10723 0.98744 0.62651 0.0
C166 C 0.13373 0.93768 0.66357 0.0
N167 N 0.12837 0.95057 0.63371 0.0
C168 C 0.06297 0.12837 0.67327 0.0
C169 C 0.99777 0.14574 0.69797 0.0
C170 C 0.06298 0.16793 0.65814 0.0
N171 N 0.03017 0.11771 0.69219 0.0
C172 C 0.99658 0.18562 0.68351 0.0
C173 C 0.02915 0.19703 0.6629 0.0
H174 H 0.08921 0.10623 0.66995 0.0
H175 H 0.97287 0.1372 0.71401 0.0
C176 C 0.02465 0.89864 0.70038 0.0
N177 N 1.02043 0.93701 0.68579 0.0
C178 C 1.01983 0.86055 0.68398 0.0
C179 C 1.00593 0.90203 0.63776 0.0
C180 C 1.01099 0.93932 0.65509 0.0
C181 C 1.01028 0.8619 0.65221 0.0
H182 H 0.03138 0.89751 0.72488 0.0
H183 H 1.00755 0.97005 0.64395 0.0
O184 O 0.03332 0.07069 0.75948 0.0
O185 O 0.02538 0.97432 0.7555 0.0
O186 O 0.97759 0.02784 0.70806 0.0
O187 O 0.07831 0.02464 0.70426 0.0
H188 H 0.11074 0.0991 0.74732 0.0
H189 H 0.98554 0.1353 0.77921 0.0
H190 H 0.13337 0.1745 0.75316 0.0
H191 H 1.01038 0.21008 0.78448 0.0
H192 H 0.11932 0.88472 0.80395 0.0
H193 H 0.99396 0.98056 0.81224 0.0
H194 H 0.09174 0.92106 0.75685 0.0
H195 H 0.02323 0.94311 0.85836 0.0
H196 H 0.89567 0.07627 0.8403 0.0
H197 H 0.84072 0.98791 0.77454 0.0
H198 H 0.22679 1.00556 0.76289 0.0
H199 H 0.15398 1.01552 0.84749 0.0
H200 H 0.99575 0.0427 0.64913 0.0
H201 H 0.90559 0.06865 0.72182 0.0
H202 H 0.95165 0.08691 0.61348 0.0
H203 H 0.86308 0.11244 0.68492 0.0
H204 H 0.07305 0.04203 0.64413 0.0
H205 H 0.1213 0.95196 0.71141 0.0
H206 H 0.10335 0.99676 0.60252 0.0
H207 H 0.15057 0.90812 0.66856 0.0
H208 H 0.08876 0.17522 0.64243 0.0
H209 H 0.97043 0.20733 0.68857 0.0
H210 H 0.02285 0.83041 0.6962 0.0
H211 H 0.99915 0.90464 0.61322 0.0
H212 H 0.38182 0.10718 0.01809 0.0
H213 H 0.27117 0.9987 0.1637 0.0
H214 H 0.43637 0.99979 0.06718 0.0
H215 H 0.21976 0.10834 0.11503 0.0
H216 H 0.3369 1.00477 0.13377 0.0
H217 H 0.3285 0.11534 0.05885 0.0
C218 C 0.38316 0.08609 0.03801 0.0
C219 C 0.41331 0.05279 0.03942 0.0
C220 C 0.31141 0.02776 0.12986 0.0
C221 C 0.35165 0.06084 0.08561 0.0
C222 C 0.27387 0.02441 0.14702 0.0
C223 C 0.23961 0.05277 0.14164 0.0
C224 C 0.31476 0.05966 0.10709 0.0
C225 C 0.24491 0.08519 0.1195 0.0
C226 C 0.35256 0.09048 0.06114 0.0
C227 C 0.41369 0.02601 0.06546 0.0
N228 N 0.28157 0.08753 0.10292 0.0
N229 N 0.38277 0.03014 0.08734 0.0
H230 H 0.08813 0.41783 0.54956 0.0
H231 H 0.95837 0.23663 0.63854 0.0
H232 H 0.95317 0.39687 0.53972 0.0
H233 H 0.09465 0.25151 0.64768 0.0
H234 H 0.95508 0.30208 0.6082 0.0
H235 H 0.09035 0.36456 0.59158 0.0
C236 C 0.05884 0.40284 0.55693 0.0
C237 C 1.02042 0.41152 0.5414 0.0
C238 C 0.98574 0.2913 0.617 0.0
C239 C 0.02267 0.35034 0.58859 0.0
C240 C 0.98762 0.25393 0.63455 0.0
C241 C 0.02689 0.23826 0.64567 0.0
C242 C 0.02342 0.3133 0.61017 0.0
C243 C 0.06375 0.2619 0.63915 0.0
C244 C 0.06012 0.37223 0.58062 0.0
C245 C 0.98337 0.39093 0.55127 0.0
N246 N 0.06116 0.29808 0.62165 0.0
N247 N 0.98548 0.36104 0.57403 0.0
H248 H 0.62102 0.05429 0.06435 0.0
H249 H 0.84099 0.94163 0.11433 0.0
H250 H 0.67959 0.94903 0.01566 0.0
H251 H 0.79166 0.05633 0.15722 0.0
H252 H 0.77568 0.93678 0.08371 0.0
H253 H 0.67593 0.0475 0.10488 0.0
C254 C 0.64477 0.02903 0.0627 0.0
C255 C 0.64612 1.00233 0.03667 0.0
C256 C 0.77895 0.96287 0.09998 0.0
C257 C 0.70917 0.99481 0.08233 0.0
C258 C 0.81641 0.96582 0.11733 0.0
C259 C 0.82214 0.99977 0.13809 0.0
C260 C 0.74687 0.99419 0.10324 0.0
C261 C 0.78864 0.02955 0.14155 0.0
C262 C 0.6763 0.0254 0.0856 0.0
C263 C 0.67774 0.9704 0.03533 0.0
N264 N 0.75262 0.02631 0.12408 0.0
N265 N 0.70824 0.9678 0.05764 0.0
H266 H 0.05206 0.61641 0.56429 0.0
H267 H 0.95136 0.84493 0.60692 0.0
H268 H 0.96032 0.6842 0.5077 0.0
H269 H 0.05678 0.78717 0.65668 0.0
H270 H 0.94574 0.7804 0.57556 0.0
H271 H 0.04451 0.67194 0.60417 0.0
C272 C 0.02949 0.6424 0.56071 0.0
C273 C 1.00693 0.64607 0.53275 0.0
C274 C 0.96994 0.7817 0.59347 0.0
C275 C 0.99865 0.70976 0.57768 0.0
C276 C 0.97338 0.8187 0.61125 0.0
C277 C 1.00496 0.82178 0.63423 0.0
C278 C 0.99834 0.74738 0.59858 0.0
C279 C 0.03186 0.78623 0.6393 0.0
C280 C 0.02548 0.67425 0.58326 0.0
C281 C 0.97844 0.6805 0.52894 0.0
N282 N 0.02817 0.75066 0.62144 0.0
N283 N 0.97541 0.71122 0.551 0.0
H284 H 0.37259 0.95637 0.95577 0.0
H285 H 0.27353 0.04697 0.79774 0.0
H286 H 0.43511 0.05091 0.8997 0.0
H287 H 0.20898 0.9607 0.85958 0.0
H288 H 0.33764 0.04101 0.83014 0.0
H289 H 0.31815 0.94854 0.91569 0.0
C290 C 0.37522 0.97482 0.93462 0.0
C291 C 0.40808 1.00449 0.931 0.0
C292 C 0.30954 1.02316 0.83647 0.0
C293 C 0.34538 0.99658 0.8853 0.0
C294 C 0.27297 0.02644 0.81795 0.0
C295 C 0.23568 1.00464 0.82616 0.0
C296 C 0.30886 0.99773 0.8633 0.0
C297 C 0.23672 0.97873 0.8527 0.0
C298 C 0.34403 0.97058 0.91182 0.0
C299 C 0.41024 0.02762 0.90323 0.0
N300 N 0.27259 0.97616 0.87034 0.0
N301 N 0.37886 1.02366 0.88156 0.0
H302 H 0.05289 0.43061 0.40204 0.0
H303 H 0.96116 0.20129 0.36204 0.0
H304 H 0.94451 0.37518 0.44775 0.0
H305 H 0.04687 0.26723 0.30078 0.0
H306 H 0.95374 0.26638 0.39274 0.0
H307 H 0.04906 0.37432 0.36251 0.0
C308 C 0.02759 0.4073 0.40324 0.0
C309 C 0.9993 0.40712 0.42833 0.0
C310 C 0.97394 0.26685 0.37245 0.0
C311 C 0.99535 0.34232 0.3839 0.0
C312 C 0.97845 0.22955 0.35509 0.0
C313 C 1.00492 0.2288 0.32901 0.0
C314 C 0.99656 0.30365 0.36399 0.0
C315 C 0.02607 0.26654 0.32074 0.0
C316 C 0.02563 0.37499 0.38087 0.0
C317 C 0.96733 0.37602 0.42899 0.0
N318 N 1.02182 0.30235 0.33838 0.0
N319 N 0.96664 0.34454 0.40743 0.0
H320 H 0.66428 0.10025 0.9388 0.0
H321 H 0.80565 0.96744 0.8204 0.0
H322 H 0.63063 0.97475 0.90665 0.0
H323 H 0.82401 0.10204 0.83754 0.0
H324 H 0.73902 0.97091 0.84923 0.0
H325 H 0.71939 0.10393 0.8988 0.0
C326 C 0.66773 0.07408 0.92256 0.0
C327 C 0.64282 0.03739 0.92556 0.0
C328 C 0.75742 0.99979 0.84646 0.0
C329 C 0.70667 0.04041 0.88074 0.0
C330 C 0.79553 0.99788 0.82989 0.0
C331 C 0.82086 0.03446 0.82661 0.0
C332 C 0.74454 0.03844 0.8602 0.0
C333 C 0.80616 0.07278 0.83997 0.0
C334 C 0.69936 0.07595 0.89994 0.0
C335 C 0.64896 1.00379 0.90463 0.0
N336 N 0.7692 0.07368 0.85635 0.0
N337 N 0.68074 1.00581 0.88333 0.0
H338 H 0.1098 0.67084 0.44809 0.0
H339 H 1.01864 0.77729 0.29261 0.0
H340 H 1.00688 0.61606 0.39555 0.0
H341 H 0.09383 0.84294 0.36117 0.0
H342 H 0.02592 0.71111 0.32297 0.0
H343 H 0.11799 0.72565 0.40823 0.0
C344 C 0.0898 0.6697 0.4276 0.0
C345 C 0.05749 0.63918 0.42507 0.0
C346 C 0.04109 0.73994 0.33118 0.0
C347 C 0.06578 0.70239 0.37982 0.0
C348 C 0.03702 0.77763 0.31389 0.0
C349 C 0.05531 0.8157 0.32461 0.0
C350 C 0.0641 0.74029 0.35913 0.0
C351 C 0.07866 0.81446 0.35234 0.0
C352 C 0.09414 0.7012 0.40504 0.0
C353 C 0.03225 0.63904 0.39821 0.0
N354 N 0.08232 0.77744 0.36864 0.0
N355 N 0.03644 0.67071 0.37677 0.0
loop_
_geom_bond_atom_site_label_1
_geom_bond_atom_site_label_2
_geom_bond_distance
_geom_bond_site_symmetry_2
_ccdc_geom_bond_type
H0 C6 0.928 1_565 S
H1 C9 0.931 . S
H2 C11 0.932 . S
H3 C13 0.930 . S
H4 C15 0.930 . S
H5 C17 0.931 . S
C6 H0 0.928 1_545 S
C6 C7 1.379 1_545 S
C6 C8 1.398 1_554 S
C7 C6 1.379 1_565 S
C7 C11 1.382 . S
C8 C6 1.398 1_556 S
C8 C9 1.400 . S
C9 H1 0.931 . S
C9 C8 1.400 . S
C9 C10 1.375 1_556 S
C10 C9 1.375 1_554 S
C10 C11 1.414 1_545 S
C10 C12 1.501 . S
C11 H2 0.932 . S
C11 C7 1.382 . S
C11 C10 1.414 1_565 S
C12 C10 1.501 . S
C12 C13 1.384 . S
C12 C17 1.408 1_544 S
C13 H3 0.930 . S
C13 C12 1.384 . S
C13 C14 1.389 . S
C14 C13 1.389 . S
C14 C15 1.405 . S
C15 H4 0.930 . S
C15 C14 1.405 . S
C15 C16 1.363 1_544 S
C16 C15 1.363 1_566 S
C16 C17 1.400 . S
C17 H5 0.931 . S
C17 C12 1.408 1_566 S
C17 C16 1.400 . S
H18 C24 0.930 . S
H19 C27 0.931 . S
H20 C29 0.931 . S
H21 C31 0.931 . S
H22 C33 0.930 . S
H23 C35 0.931 . S
C24 H18 0.930 . S
C24 C25 1.380 . S
C24 C26 1.394 . S
C25 C24 1.380 . S
C25 C29 1.382 . S
C26 C24 1.394 . S
C26 C27 1.400 1_455 S
C27 H19 0.931 . S
C27 C26 1.400 1_655 S
C27 C28 1.375 1_655 S
C28 C27 1.375 1_455 S
C28 C29 1.415 . S
C28 C30 1.501 . S
C29 H20 0.931 . S
C29 C25 1.382 . S
C29 C28 1.415 . S
C30 C28 1.501 . S
C30 C31 1.383 1_455 S
C30 C35 1.408 . S
C31 H21 0.931 . S
C31 C30 1.383 1_655 S
C31 C32 1.389 1_655 S
C32 C31 1.389 1_455 S
C32 C33 1.405 . S
C33 H22 0.930 . S
C33 C32 1.405 . S
C33 C34 1.364 . S
C34 C33 1.364 . S
C34 C35 1.400 . S
C35 H23 0.931 . S
C35 C30 1.408 . S
C35 C34 1.400 . S
Li36 N53 1.990 . S
Li36 O96 1.958 1_545 S
Li36 O97 1.970 1_455 S
Li36 O98 1.961 . S
Li37 N61 1.990 . S
Li37 O96 1.968 . S
Li37 O97 1.956 1_465 S
Li37 O99 1.961 . S
Li38 N83 1.990 . S
Li38 O96 1.961 1_545 S
Li38 O98 1.956 . S
Li38 O99 1.970 1_545 S
Li39 N89 1.990 . S
Li39 O97 1.961 1_565 S
Li39 O98 1.969 1_665 S
Li39 O99 1.957 1_655 S
C40 C42 1.348 1_545 S
C40 C43 1.356 . S
C40 O96 1.325 1_545 S
N41 C44 1.314 1_545 S
N41 C45 1.279 . S
C42 C40 1.348 1_565 S
C42 C44 1.353 . S
C42 H100 0.929 . S
C43 C40 1.356 . S
C43 C45 1.358 . S
C43 H101 0.930 . S
C44 N41 1.314 1_565 S
C44 C42 1.353 . S
C44 H102 0.930 . S
C45 N41 1.279 . S
C45 C43 1.358 . S
C45 H103 0.930 . S
C46 C49 1.348 . S
C46 C50 1.356 1_545 S
C46 O97 1.325 . S
C47 N48 1.279 . S
C47 C50 1.358 . S
C47 H104 0.930 . S
N48 C47 1.279 . S
N48 C51 1.314 1_565 S
C49 C46 1.348 . S
C49 C51 1.353 . S
C49 H105 0.929 . S
C50 C46 1.356 1_565 S
C50 C47 1.358 . S
C50 H106 0.930 . S
C51 N48 1.314 1_545 S
C51 C49 1.353 . S
C51 H107 0.930 . S
C52 N53 1.314 1_655 S
C52 C57 1.353 . S
C52 H58 0.930 . S
N53 Li36 1.990 . S
N53 C52 1.314 1_455 S
N53 C55 1.279 . S
C54 C55 1.358 . S
C54 C56 1.356 . S
C54 H108 0.930 . S
C55 N53 1.279 . S
C55 C54 1.358 . S
C55 H59 0.930 . S
C56 C54 1.356 . S
C56 C57 1.348 1_455 S
C57 C52 1.353 . S
C57 C56 1.348 1_655 S
C57 H109 0.929 . S
H58 C52 0.930 . S
H59 C55 0.930 . S
C60 N61 1.314 . S
C60 C62 1.353 . S
C60 H66 0.930 . S
N61 Li37 1.990 . S
N61 C60 1.314 . S
N61 C64 1.279 1_455 S
C62 C60 1.353 . S
C62 C65 1.348 . S
C62 H110 0.929 . S
C63 C64 1.358 . S
C63 C65 1.356 1_655 S
C63 H111 0.930 . S
C64 N61 1.279 1_655 S
C64 C63 1.358 . S
C64 H67 0.930 . S
C65 C62 1.348 . S
C65 C63 1.356 1_455 S
H66 C60 0.930 . S
H67 C64 0.930 . S
C68 C70 1.348 1_455 S
C68 C71 1.356 . S
C68 O98 1.325 . S
N69 C72 1.314 1_455 S
N69 C73 1.279 . S
C70 C68 1.348 1_655 S
C70 C72 1.353 . S
C70 H112 0.929 . S
C71 C68 1.356 . S
C71 C73 1.358 . S
C71 H113 0.930 . S
C72 N69 1.314 1_655 S
C72 C70 1.353 . S
C72 H114 0.930 . S
C73 N69 1.279 . S
C73 C71 1.358 . S
C73 H115 0.930 . S
C74 C75 1.348 . S
C74 C76 1.356 1_455 S
C74 O99 1.325 . S
C75 C74 1.348 . S
C75 C77 1.353 . S
C75 H116 0.929 . S
C76 C74 1.356 1_655 S
C76 C78 1.358 . S
C76 H117 0.930 . S
C77 C75 1.353 . S
C77 N79 1.314 . S
C77 H118 0.930 . S
C78 C76 1.358 . S
C78 N79 1.279 1_655 S
C78 H119 0.930 . S
N79 C77 1.314 . S
N79 C78 1.279 1_455 S
C80 C82 1.353 . S
C80 N83 1.314 1_565 S
C80 H86 0.930 . S
C81 N83 1.279 . S
C81 C84 1.358 . S
C81 H87 0.930 . S
C82 C80 1.353 . S
C82 C85 1.348 1_565 S
C82 H120 0.929 . S
N83 Li38 1.990 . S
N83 C80 1.314 1_545 S
N83 C81 1.279 . S
C84 C81 1.358 . S
C84 C85 1.356 . S
C84 H121 0.930 . S
C85 C82 1.348 1_545 S
C85 C84 1.356 . S
H86 C80 0.930 . S
H87 C81 0.930 . S
C88 N89 1.314 1_545 S
C88 C90 1.353 . S
C88 H94 0.930 . S
N89 Li39 1.990 . S
N89 C88 1.314 1_565 S
N89 C92 1.279 . S
C90 C88 1.353 . S
C90 C93 1.348 . S
C90 H122 0.929 . S
C91 C92 1.358 . S
C91 C93 1.356 1_565 S
C91 H123 0.930 . S
C92 N89 1.279 . S
C92 C91 1.358 . S
C92 H95 0.930 . S
C93 C90 1.348 . S
C93 C91 1.356 1_545 S
H94 C88 0.930 . S
H95 C92 0.930 . S
O96 Li36 1.958 1_565 S
O96 Li37 1.968 . S
O96 Li38 1.961 1_565 S
O96 C40 1.325 1_565 S
O97 Li36 1.970 1_655 S
O97 Li37 1.956 1_645 S
O97 Li39 1.961 1_545 S
O97 C46 1.325 . S
O98 Li36 1.961 . S
O98 Li38 1.956 . S
O98 Li39 1.969 1_445 S
O98 C68 1.325 . S
O99 Li37 1.961 . S
O99 Li38 1.970 1_565 S
O99 Li39 1.957 1_455 S
O99 C74 1.325 . S
H100 C42 0.929 . S
H101 C43 0.930 . S
H102 C44 0.930 . S
H103 C45 0.930 . S
H104 C47 0.930 . S
H105 C49 0.929 . S
H106 C50 0.930 . S
H107 C51 0.930 . S
H108 C54 0.930 . S
H109 C57 0.929 . S
H110 C62 0.929 . S
H111 C63 0.930 . S
H112 C70 0.929 . S
H113 C71 0.930 . S
H114 C72 0.930 . S
H115 C73 0.930 . S
H116 C75 0.929 . S
H117 C76 0.930 . S
H118 C77 0.930 . S
H119 C78 0.930 . S
H120 C82 0.929 . S
H121 C84 0.930 . S
H122 C90 0.929 . S
H123 C91 0.930 . S
Li124 N141 1.990 . S
Li124 O184 1.956 1_655 S
Li124 O185 1.970 1_645 S
Li124 O186 1.961 . S
Li125 N149 1.990 1_545 S
Li125 O184 1.969 . S
Li125 O185 1.958 1_545 S
Li125 O187 1.961 . S
Li126 N171 1.990 . S
Li126 O184 1.961 . S
Li126 O186 1.959 1_455 S
Li126 O187 1.970 . S
Li127 N177 1.990 . S
Li127 O185 1.961 . S
Li127 O186 1.968 1_465 S
Li127 O187 1.956 1_565 S
C128 C130 1.348 . S
C128 C131 1.356 1_455 S
C128 O184 1.325 . S
N129 C132 1.331 . S
N129 C133 1.264 1_455 S
C130 C128 1.348 . S
C130 C132 1.353 . S
C130 H188 0.929 . S
C131 C128 1.356 1_655 S
C131 C133 1.358 . S
C131 H189 0.930 . S
C132 N129 1.331 . S
C132 C130 1.353 . S
C132 H190 0.930 . S
C133 N129 1.264 1_655 S
C133 C131 1.358 . S
C133 H191 0.930 . S
C134 C137 1.348 1_455 S
C134 C138 1.356 . S
C134 O185 1.325 . S
C135 N136 1.279 . S
C135 C138 1.358 . S
C135 H192 0.930 . S
N136 C135 1.279 . S
N136 C139 1.314 1_455 S
C137 C134 1.348 1_655 S
C137 C139 1.353 . S
C137 H193 0.929 . S
C138 C134 1.356 . S
C138 C135 1.358 . S
C138 H194 0.930 . S
C139 N136 1.314 1_655 S
C139 C137 1.353 . S
C139 H195 0.930 . S
C140 N141 1.314 1_565 S
C140 C145 1.353 . S
C140 H146 0.930 . S
N141 Li124 1.990 . S
N141 C140 1.314 1_545 S
N141 C143 1.279 . S
C142 C143 1.358 . S
C142 C144 1.356 . S
C142 H196 0.930 . S
C143 N141 1.279 . S
C143 C142 1.358 . S
C143 H147 0.930 . S
C144 C142 1.356 . S
C144 C145 1.348 1_545 S
C145 C140 1.353 . S
C145 C144 1.348 1_565 S
C145 H197 0.929 . S
H146 C140 0.930 . S
H147 C143 0.930 . S
C148 N149 1.314 1_545 S
C148 C150 1.353 . S
C148 H154 0.930 . S
N149 Li125 1.990 1_565 S
N149 C148 1.314 1_565 S
N149 C152 1.279 . S
C150 C148 1.353 . S
C150 C153 1.348 . S
C150 H198 0.929 . S
C151 C152 1.358 . S
C151 C153 1.356 1_565 S
C151 H199 0.930 . S
C152 N149 1.279 . S
C152 C151 1.358 . S
C152 H155 0.930 . S
C153 C150 1.348 . S
C153 C151 1.356 1_545 S
H154 C148 0.930 . S
H155 C152 0.930 . S
C156 C158 1.348 1_545 S
C156 C159 1.356 . S
C156 O186 1.325 . S
N157 C160 1.314 1_545 S
N157 C161 1.279 . S
C158 C156 1.348 1_565 S
C158 C160 1.353 . S
C158 H200 0.929 . S
C159 C156 1.356 . S
C159 C161 1.358 . S
C159 H201 0.930 . S
C160 N157 1.314 1_565 S
C160 C158 1.353 . S
C160 H202 0.930 . S
C161 N157 1.279 . S
C161 C159 1.358 . S
C161 H203 0.930 . S
C162 C163 1.348 . S
C162 C164 1.356 1_545 S
C162 O187 1.325 . S
C163 C162 1.348 . S
C163 C165 1.353 . S
C163 H204 0.929 . S
C164 C162 1.356 1_565 S
C164 C166 1.358 . S
C164 H205 0.930 . S
C165 C163 1.353 . S
C165 N167 1.314 1_545 S
C165 H206 0.930 . S
C166 C164 1.358 . S
C166 N167 1.279 . S
C166 H207 0.930 . S
N167 C165 1.314 1_565 S
N167 C166 1.279 . S
C168 C170 1.353 . S
C168 N171 1.314 . S
C168 H174 0.930 . S
C169 N171 1.279 1_655 S
C169 C172 1.358 . S
C169 H175 0.930 . S
C170 C168 1.353 . S
C170 C173 1.348 . S
C170 H208 0.929 . S
N171 Li126 1.990 . S
N171 C168 1.314 . S
N171 C169 1.279 1_455 S
C172 C169 1.358 . S
C172 C173 1.356 1_655 S
C172 H209 0.930 . S
C173 C170 1.348 . S
C173 C172 1.356 1_455 S
H174 C168 0.930 . S
H175 C169 0.930 . S
C176 N177 1.314 1_655 S
C176 C178 1.353 . S
C176 H182 0.930 . S
N177 Li127 1.990 . S
N177 C176 1.314 1_455 S
N177 C180 1.279 . S
C178 C176 1.353 . S
C178 C181 1.348 1_655 S
C178 H210 0.929 . S
C179 C180 1.358 . S
C179 C181 1.356 . S
C179 H211 0.930 . S
C180 N177 1.279 . S
C180 C179 1.358 . S
C180 H183 0.930 . S
C181 C178 1.348 1_455 S
C181 C179 1.356 . S
H182 C176 0.930 . S
H183 C180 0.930 . S
O184 Li124 1.956 1_455 S
O184 Li125 1.969 . S
O184 Li126 1.961 . S
O184 C128 1.325 . S
O185 Li124 1.970 1_465 S
O185 Li125 1.958 1_565 S
O185 Li127 1.961 . S
O185 C134 1.325 . S
O186 Li124 1.961 . S
O186 Li126 1.959 1_655 S
O186 Li127 1.968 1_645 S
O186 C156 1.325 . S
O187 Li125 1.961 . S
O187 Li126 1.970 . S
O187 Li127 1.956 1_545 S
O187 C162 1.325 . S
H188 C130 0.929 . S
H189 C131 0.930 . S
H190 C132 0.930 . S
H191 C133 0.930 . S
H192 C135 0.930 . S
H193 C137 0.929 . S
H194 C138 0.930 . S
H195 C139 0.930 . S
H196 C142 0.930 . S
H197 C145 0.929 . S
H198 C150 0.929 . S
H199 C151 0.930 . S
H200 C158 0.929 . S
H201 C159 0.930 . S
H202 C160 0.930 . S
H203 C161 0.930 . S
H204 C163 0.929 . S
H205 C164 0.930 . S
H206 C165 0.930 . S
H207 C166 0.930 . S
H208 C170 0.929 . S
H209 C172 0.930 . S
H210 C178 0.929 . S
H211 C179 0.930 . S
H212 C218 0.930 . S
H213 C222 0.930 . S
H214 C227 0.929 . S
H215 C225 0.929 . S
H216 C220 0.929 . S
H217 C226 0.929 . S
C218 H212 0.930 . S
C218 C219 1.367 1_545 S
C218 C226 1.378 . S
C219 C218 1.367 1_565 S
C219 C227 1.433 . S
C220 H216 0.929 . S
C220 C222 1.378 . S
C220 C224 1.350 . S
C221 C224 1.463 . S
C221 C226 1.332 1_565 S
C221 N229 1.446 . S
C222 H213 0.930 . S
C222 C220 1.378 . S
C222 C223 1.378 . S
C223 C222 1.378 . S
C223 C225 1.422 1_565 S
C224 C220 1.350 . S
C224 C221 1.463 . S
C224 N228 1.427 1_565 S
C225 H215 0.929 . S
C225 C223 1.422 1_545 S
C225 N228 1.384 . S
C226 H217 0.929 . S
C226 C218 1.378 . S
C226 C221 1.332 1_545 S
C227 H214 0.929 . S
C227 C219 1.433 . S
C227 N229 1.384 . S
N228 C224 1.427 1_545 S
N228 C225 1.384 . S
N229 C221 1.446 . S
N229 C227 1.384 . S
H230 C236 0.930 . S
H231 C240 0.930 1_655 S
H232 C245 0.929 . S
H233 C243 0.929 . S
H234 C238 0.927 1_655 S
H235 C244 0.929 . S
C236 H230 0.930 . S
C236 C237 1.367 . S
C236 C244 1.378 . S
C237 C236 1.367 . S
C237 C245 1.433 . S
C238 H234 0.927 1_455 S
C238 C240 1.378 . S
C238 C242 1.350 . S
C239 C242 1.463 . S
C239 C244 1.350 . S
C239 N247 1.427 . S
C240 H231 0.930 1_455 S
C240 C238 1.378 . S
C240 C241 1.367 . S
C241 C240 1.367 . S
C241 C243 1.433 . S
C242 C238 1.350 . S
C242 C239 1.463 . S
C242 N246 1.427 . S
C243 H233 0.929 . S
C243 C241 1.433 . S
C243 N246 1.384 . S
C244 H235 0.929 . S
C244 C236 1.378 . S
C244 C239 1.350 . S
C245 H232 0.929 . S
C245 C237 1.433 . S
C245 N247 1.384 . S
N246 C242 1.427 . S
N246 C243 1.384 . S
N247 C239 1.427 . S
N247 C245 1.384 . S
H248 C254 0.930 . S
H249 C258 0.930 . S
H250 C263 0.929 . S
H251 C261 0.929 . S
H252 C256 0.929 . S
H253 C262 0.929 . S
C254 H248 0.930 . S
C254 C255 1.367 . S
C254 C262 1.378 . S
C255 C254 1.367 . S
C255 C263 1.433 1_545 S
C256 H252 0.929 . S
C256 C258 1.378 . S
C256 C260 1.350 1_565 S
C257 C260 1.463 . S
C257 C262 1.350 . S
C257 N265 1.427 1_545 S
C258 H249 0.930 . S
C258 C256 1.378 . S
C258 C259 1.367 1_565 S
C259 C258 1.367 1_545 S
C259 C261 1.433 . S
C260 C256 1.350 1_545 S
C260 C257 1.463 . S
C260 N264 1.427 . S
C261 H251 0.929 . S
C261 C259 1.433 . S
C261 N264 1.384 . S
C262 H253 0.929 . S
C262 C254 1.378 . S
C262 C257 1.350 . S
C263 H250 0.929 . S
C263 C255 1.433 1_565 S
C263 N265 1.384 . S
N264 C260 1.427 . S
N264 C261 1.384 . S
N265 C257 1.427 1_565 S
N265 C263 1.384 . S
H266 C272 0.930 . S
H267 C276 0.930 . S
H268 C281 0.929 . S
H269 C279 0.929 . S
H270 C274 0.929 . S
H271 C280 0.929 . S
C272 H266 0.930 . S
C272 C273 1.367 . S
C272 C280 1.378 . S
C273 C272 1.367 . S
C273 C281 1.433 1_455 S
C274 H270 0.929 . S
C274 C276 1.378 . S
C274 C278 1.350 1_655 S
C275 C278 1.463 . S
C275 C280 1.350 . S
C275 N283 1.427 1_455 S
C276 H267 0.930 . S
C276 C274 1.378 . S
C276 C277 1.367 1_655 S
C277 C276 1.367 1_455 S
C277 C279 1.433 . S
C278 C274 1.350 1_455 S
C278 C275 1.463 . S
C278 N282 1.427 . S
C279 H269 0.929 . S
C279 C277 1.433 . S
C279 N282 1.384 . S
C280 H271 0.929 . S
C280 C272 1.378 . S
C280 C275 1.350 . S
C281 H268 0.929 . S
C281 C273 1.433 1_655 S
C281 N283 1.384 . S
N282 C278 1.427 . S
N282 C279 1.384 . S
N283 C275 1.427 1_655 S
N283 C281 1.384 . S
H284 C290 0.930 . S
H285 C294 0.930 . S
H286 C299 0.929 . S
H287 C297 0.929 . S
H288 C292 0.929 . S
H289 C298 0.929 . S
C290 H284 0.930 . S
C290 C291 1.367 1_565 S
C290 C298 1.378 . S
C291 C290 1.367 1_545 S
C291 C299 1.433 . S
C292 H288 0.929 . S
C292 C294 1.378 . S
C292 C296 1.350 . S
C293 C296 1.463 . S
C293 C298 1.350 1_545 S
C293 N301 1.427 . S
C294 H285 0.930 . S
C294 C292 1.378 . S
C294 C295 1.367 . S
C295 C294 1.367 . S
C295 C297 1.433 1_545 S
C296 C292 1.350 . S
C296 C293 1.463 . S
C296 N300 1.427 1_545 S
C297 H287 0.929 . S
C297 C295 1.433 1_565 S
C297 N300 1.384 . S
C298 H289 0.929 . S
C298 C290 1.378 . S
C298 C293 1.350 1_565 S
C299 H286 0.929 . S
C299 C291 1.433 . S
C299 N301 1.384 . S
N300 C296 1.427 1_565 S
N300 C297 1.384 . S
N301 C293 1.427 . S
N301 C299 1.384 . S
H302 C308 0.930 . S
H303 C312 0.930 . S
H304 C317 0.929 . S
H305 C315 0.929 . S
H306 C310 0.929 . S
H307 C316 0.929 . S
C308 H302 0.930 . S
C308 C309 1.367 . S
C308 C316 1.378 . S
C309 C308 1.367 . S
C309 C317 1.433 1_455 S
C310 H306 0.929 . S
C310 C312 1.378 . S
C310 C314 1.350 1_655 S
C311 C314 1.463 . S
C311 C316 1.350 . S
C311 N319 1.427 1_455 S
C312 H303 0.930 . S
C312 C310 1.378 . S
C312 C313 1.367 1_655 S
C313 C312 1.367 1_455 S
C313 C315 1.433 . S
C314 C310 1.350 1_455 S
C314 C311 1.463 . S
C314 N318 1.427 . S
C315 H305 0.929 . S
C315 C313 1.433 . S
C315 N318 1.384 . S
C316 H307 0.929 . S
C316 C308 1.378 . S
C316 C311 1.350 . S
C317 H304 0.929 . S
C317 C309 1.433 1_655 S
C317 N319 1.384 . S
N318 C314 1.427 . S
N318 C315 1.384 . S
N319 C311 1.427 1_655 S
N319 C317 1.384 . S
H320 C326 0.930 . S
H321 C330 0.930 . S
H322 C335 0.929 . S
H323 C333 0.929 . S
H324 C328 0.929 . S
H325 C334 0.929 . S
C326 H320 0.930 . S
C326 C327 1.367 1_545 S
C326 C334 1.378 . S
C327 C326 1.367 1_565 S
C327 C335 1.433 . S
C328 H324 0.929 . S
C328 C330 1.378 . S
C328 C332 1.350 . S
C329 C332 1.463 . S
C329 C334 1.332 1_565 S
C329 N337 1.446 . S
C330 H321 0.930 . S
C330 C328 1.378 . S
C330 C331 1.372 . S
C331 C330 1.372 . S
C331 C333 1.428 1_565 S
C332 C328 1.350 . S
C332 C329 1.463 . S
C332 N336 1.427 1_565 S
C333 H323 0.929 . S
C333 C331 1.428 1_545 S
C333 N336 1.384 . S
C334 H325 0.929 . S
C334 C326 1.378 . S
C334 C329 1.332 1_545 S
C335 H322 0.929 . S
C335 C327 1.433 . S
C335 N337 1.384 . S
N336 C332 1.427 1_545 S
N336 C333 1.384 . S
N337 C329 1.446 . S
N337 C335 1.384 . S
H338 C344 0.930 . S
H339 C348 0.930 . S
H340 C353 0.929 . S
H341 C351 0.929 . S
H342 C346 0.929 . S
H343 C352 0.929 . S
C344 H338 0.930 . S
C344 C345 1.367 . S
C344 C352 1.378 . S
C345 C344 1.367 . S
C345 C353 1.433 1_455 S
C346 H342 0.929 . S
C346 C348 1.378 . S
C346 C350 1.350 1_655 S
C347 C350 1.463 . S
C347 C352 1.350 . S
C347 N355 1.427 1_455 S
C348 H339 0.930 . S
C348 C346 1.378 . S
C348 C349 1.367 1_655 S
C349 C348 1.367 1_455 S
C349 C351 1.433 . S
C350 C346 1.350 1_455 S
C350 C347 1.463 . S
C350 N354 1.427 . S
C351 H341 0.929 . S
C351 C349 1.433 . S
C351 N354 1.384 . S
C352 H343 0.929 . S
C352 C344 1.378 . S
C352 C347 1.350 . S
C353 H340 0.929 . S
C353 C345 1.433 1_655 S
C353 N355 1.384 . S
N354 C350 1.427 . S
N354 C351 1.384 . S
N355 C347 1.427 1_655 S
N355 C353 1.384 . S
C223 C85 1.552 1_565 S
C219 C7 1.498 . S
C241 C173 1.549 . S
C237 C34 1.500 . S
C259 C93 1.554 . S
C255 C14 1.500 . S
C277 C181 1.546 . S
C273 C26 1.501 . S
C295 C153 1.545 . S
C291 C8 1.493 . S
C313 C56 1.556 . S
C309 C32 1.510 . S
C331 C144 1.547 1_565 S
C327 C16 1.488 . S
C345 C25 1.491 . S
C349 C65 1.551 . S
