# Generated by pormake.
# Topology zzz, (3,6)-cn, num edge types: 1
# Building blocks:
#     Node 0, Type 0, BuildingBlock: MIDCAF_clean_linker_0, # of connection points: 3
#     Node 1, Type 0, BuildingBlock: MIDCAF_clean_linker_0, # of connection points: 3
#     Node 2, Type 0, BuildingBlock: MIDCAF_clean_linker_0, # of connection points: 3
#     Node 3, Type 0, BuildingBlock: MIDCAF_clean_linker_0, # of connection points: 3
#     Node 4, Type 0, BuildingBlock: MIDCAF_clean_linker_0, # of connection points: 3
#     Node 5, Type 0, BuildingBlock: MIDCAF_clean_linker_0, # of connection points: 3
#     Node 6, Type 0, BuildingBlock: MIDCAF_clean_linker_0, # of connection points: 3
#     Node 7, Type 0, BuildingBlock: MIDCAF_clean_linker_0, # of connection points: 3
#     Node 8, Type 1, BuildingBlock: LEVNOQ01_clean_sbu_1, # of connection points: 6
#     Node 9, Type 1, BuildingBlock: LEVNOQ01_clean_sbu_1, # of connection points: 6
#     Node 10, Type 1, BuildingBlock: LEVNOQ01_clean_sbu_1, # of connection points: 6
#     Node 11, Type 1, BuildingBlock: LEVNOQ01_clean_sbu_1, # of connection points: 6
#     Edge 12, Type (0, 1), BuildingBlock: XIVTED_clean_linker_0, # of connection points: 2
#     Edge 13, Type (0, 1), BuildingBlock: XIVTED_clean_linker_0, # of connection points: 2
#     Edge 14, Type (0, 1), BuildingBlock: XIVTED_clean_linker_0, # of connection points: 2
#     Edge 15, Type (0, 1), BuildingBlock: XIVTED_clean_linker_0, # of connection points: 2
#     Edge 16, Type (0, 1), BuildingBlock: XIVTED_clean_linker_0, # of connection points: 2
#     Edge 17, Type (0, 1), BuildingBlock: XIVTED_clean_linker_0, # of connection points: 2
#     Edge 18, Type (0, 1), BuildingBlock: XIVTED_clean_linker_0, # of connection points: 2
#     Edge 19, Type (0, 1), BuildingBlock: XIVTED_clean_linker_0, # of connection points: 2
#     Edge 20, Type (0, 1), BuildingBlock: XIVTED_clean_linker_0, # of connection points: 2
#     Edge 21, Type (0, 1), BuildingBlock: XIVTED_clean_linker_0, # of connection points: 2
#     Edge 22, Type (0, 1), BuildingBlock: XIVTED_clean_linker_0, # of connection points: 2
#     Edge 23, Type (0, 1), BuildingBlock: XIVTED_clean_linker_0, # of connection points: 2
#     Edge 24, Type (0, 1), BuildingBlock: XIVTED_clean_linker_0, # of connection points: 2
#     Edge 25, Type (0, 1), BuildingBlock: XIVTED_clean_linker_0, # of connection points: 2
#     Edge 26, Type (0, 1), BuildingBlock: XIVTED_clean_linker_0, # of connection points: 2
#     Edge 27, Type (0, 1), BuildingBlock: XIVTED_clean_linker_0, # of connection points: 2
#     Edge 28, Type (0, 1), BuildingBlock: XIVTED_clean_linker_0, # of connection points: 2
#     Edge 29, Type (0, 1), BuildingBlock: XIVTED_clean_linker_0, # of connection points: 2
#     Edge 30, Type (0, 1), BuildingBlock: XIVTED_clean_linker_0, # of connection points: 2
#     Edge 31, Type (0, 1), BuildingBlock: XIVTED_clean_linker_0, # of connection points: 2
#     Edge 32, Type (0, 1), BuildingBlock: XIVTED_clean_linker_0, # of connection points: 2
#     Edge 33, Type (0, 1), BuildingBlock: XIVTED_clean_linker_0, # of connection points: 2
#     Edge 34, Type (0, 1), BuildingBlock: XIVTED_clean_linker_0, # of connection points: 2
#     Edge 35, Type (0, 1), BuildingBlock: XIVTED_clean_linker_0, # of connection points: 2
# Relax obj value: 0.308
# Max RMSD: 0.220
# Mean RMSD: 0.208
data_MOF--net-zzz--node1-LEVNOQ01_clean_sbu_1--node2-MIDCAF_clean_linker_0--edge1-XIVTED_clean_linker_0
_symmetry_space_group_name_H-M    P1
_symmetry_Int_Tables_number       1
_symmetry_cell_setting            triclinic
loop_
_symmetry_equiv_pos_as_xyz
'x, y, z'
_cell_length_a     55.019112
_cell_length_b     59.78718
_cell_length_c     20.981791
_cell_angle_alpha  89.441621
_cell_angle_beta   89.985914
_cell_angle_gamma 88.198029
loop_
_atom_site_label
_atom_site_type_symbol
_atom_site_fract_x
_atom_site_fract_y
_atom_site_fract_z
_atom_type_partial_charge
C0 C 0.81549 0.58812 0.34753 0.0
C1 C 0.81559 0.56537 0.36511 0.0
C2 C 0.79711 0.552 0.34079 0.0
C3 C 0.78022 0.56074 0.29616 0.0
H4 H 0.69662 0.58053 0.1957 0.0
H5 H 0.65764 0.57138 0.14543 0.0
H6 H 0.6932 0.56854 0.96212 0.0
H7 H 0.73127 0.57758 0.01098 0.0
H8 H 0.77362 0.60271 0.9806 0.0
H9 H 0.80743 0.59266 0.911 0.0
H10 H 0.85792 0.60753 0.06117 0.0
H11 H 0.82432 0.618 0.13031 0.0
H12 H 0.80034 0.61396 0.28708 0.0
H13 H 0.82942 0.59896 0.36468 0.0
H14 H 0.79633 0.5345 0.35415 0.0
H15 H 0.76746 0.54961 0.2747 0.0
N16 N 0.74789 0.5835 0.19429 0.0
N17 N 0.75542 0.59859 0.09242 0.0
N18 N 0.78476 0.60082 0.17156 0.0
C19 C 0.74025 0.58818 0.13337 0.0
C20 C 0.77767 0.60496 0.11083 0.0
C21 C 0.77024 0.59027 0.21367 0.0
C22 C 0.71696 0.58024 0.10731 0.0
C23 C 0.696 0.57773 0.14483 0.0
C24 C 0.67374 0.57256 0.11606 0.0
C25 C 0.6722 0.56986 0.04949 0.0
C26 C 0.69349 0.57127 0.01309 0.0
C27 C 0.71544 0.57639 0.04141 0.0
C28 C 0.7963 0.60989 0.06225 0.0
C29 C 0.79192 0.60489 0.99795 0.0
C30 C 0.81131 0.59904 0.95796 0.0
C31 C 0.83519 0.59825 0.9818 0.0
C32 C 0.83968 0.60754 0.04173 0.0
C33 C 0.82032 0.61343 0.08168 0.0
C34 C 0.78157 0.58299 0.2748 0.0
C35 C 0.79873 0.59677 0.30297 0.0
C36 C 0.00671 0.8061 0.32374 0.0
C37 C 0.99417 0.80203 0.38049 0.0
C38 C 0.98375 0.78099 0.38972 0.0
C39 C 0.98451 0.76491 0.34073 0.0
H40 H 0.02535 0.69257 0.17691 0.0
H41 H 0.02816 0.65732 0.11853 0.0
H42 H 0.95105 0.66191 0.08187 0.0
H43 H 0.94844 0.69747 0.13888 0.0
H44 H 0.95824 0.76454 0.01941 0.0
H45 H 0.96099 0.79414 0.93781 0.0
H46 H 0.03558 0.80406 0.99298 0.0
H47 H 0.03257 0.77498 0.07371 0.0
H48 H 0.01723 0.79438 0.23222 0.0
H49 H 0.01533 0.82194 0.31582 0.0
H50 H 0.97412 0.77739 0.43347 0.0
H51 H 0.97518 0.74938 0.34734 0.0
N52 N 0.98994 0.73306 0.22528 0.0
N53 N 0.98827 0.73344 0.11257 0.0
N54 N 0.99451 0.76648 0.1673 0.0
C55 C 0.98732 0.72201 0.16867 0.0
C56 C 0.99192 0.7556 0.11192 0.0
C57 C 0.99331 0.75571 0.22424 0.0
C58 C 0.98657 0.69747 0.16382 0.0
C59 C 0.00878 0.68536 0.1597 0.0
C60 C 0.01046 0.66539 0.1253 0.0
C61 C 0.98985 0.65699 0.09521 0.0
C62 C 0.96718 0.66787 0.10501 0.0
C63 C 0.96561 0.68809 0.13838 0.0
C64 C 0.99518 0.76786 0.05236 0.0
C65 C 0.97541 0.77254 0.01179 0.0
C66 C 0.97699 0.78942 0.96551 0.0
C67 C -0.00157 0.80148 0.95941 0.0
C68 C 0.01891 0.79493 0.99583 0.0
C69 C 0.0172 0.7784 0.04239 0.0
C70 C 0.99595 0.76967 0.28232 0.0
C71 C 0.00778 0.79016 0.27582 0.0
C72 C 0.67732 0.88315 0.34572 0.0
C73 C 0.67971 0.9049 0.3692 0.0
C74 C 0.70018 0.91699 0.35016 0.0
C75 C 0.71685 0.9081 0.30554 0.0
H76 H 0.78448 0.91699 0.17409 0.0
H77 H 0.82128 0.92914 0.11917 0.0
H78 H 0.82666 0.86571 0.02249 0.0
H79 H 0.7899 0.85399 0.07575 0.0
H80 H 0.72724 0.87275 0.99019 0.0
H81 H 0.69349 0.88262 0.91941 0.0
H82 H 0.64312 0.85643 0.05673 0.0
H83 H 0.67675 0.84652 0.12773 0.0
H84 H 0.6906 0.85799 0.28198 0.0
H85 H 0.66182 0.87331 0.3584 0.0
H86 H 0.70291 0.93364 0.3681 0.0
H87 H 0.73149 0.91833 0.2888 0.0
N88 N 0.74946 0.88503 0.20598 0.0
N89 N 0.74504 0.86909 0.10445 0.0
N90 N 0.71256 0.8695 0.17558 0.0
C91 C 0.75922 0.87898 0.14835 0.0
C92 C 0.72167 0.86436 0.11758 0.0
C93 C 0.72606 0.87967 0.22012 0.0
C94 C 0.7842 0.88464 0.12874 0.0
C95 C 0.79397 0.90548 0.14243 0.0
C96 C 0.81503 0.91243 0.11079 0.0
C97 C 0.82667 0.89858 0.06524 0.0
C98 C 0.81785 0.87706 0.0558 0.0
C99 C 0.79686 0.87026 0.0868 0.0
C100 C 0.70448 0.85976 0.06568 0.0
C101 C 0.70914 0.86797 0.00401 0.0
C102 C 0.6898 0.87372 0.96342 0.0
C103 C 0.66576 0.87099 0.98381 0.0
C104 C 0.6615 0.85894 0.0402 0.0
C105 C 0.6808 0.85334 0.08102 0.0
C106 C 0.71331 0.88698 0.27905 0.0
C107 C 0.69387 0.87434 0.30149 0.0
C108 C 0.46204 0.67431 0.01743 0.0
C109 C 0.48079 0.66791 0.97528 0.0
C110 C 0.50153 0.68101 0.97081 0.0
C111 C 0.50442 0.69891 0.01221 0.0
H112 H 0.54028 0.77214 0.11811 0.0
H113 H 0.5391 0.80838 0.06278 0.0
H114 H 0.46481 0.81957 0.12365 0.0
H115 H 0.4662 0.78335 0.17934 0.0
H116 H 0.48293 0.7257 0.34552 0.0
H117 H 0.48284 0.69851 0.43451 0.0
H118 H 0.5258 0.65197 0.32133 0.0
H119 H 0.52623 0.67894 0.23473 0.0
H120 H 0.45137 0.6953 0.09516 0.0
H121 H 0.44598 0.66443 0.02254 0.0
H122 H 0.51618 0.67647 0.93843 0.0
H123 H 0.52132 0.70774 0.01172 0.0
N124 N 0.49581 0.73909 0.10964 0.0
N125 N 0.50334 0.74042 0.22047 0.0
N126 N 0.49524 0.70635 0.171 0.0
C127 C 0.50097 0.751 0.16249 0.0
C128 C 0.50074 0.71776 0.22423 0.0
C129 C 0.49267 0.71685 0.11412 0.0
C130 C 0.5035 0.77525 0.15399 0.0
C131 C 0.52422 0.78298 0.12268 0.0
C132 C 0.52346 0.80365 0.09063 0.0
C133 C 0.50178 0.81669 0.08833 0.0
C134 C 0.48173 0.8098 0.1244 0.0
C135 C 0.4826 0.78924 0.157 0.0
C136 C 0.50469 0.70447 0.28344 0.0
C137 C 0.49299 0.70993 0.34095 0.0
C138 C 0.49268 0.69422 0.39141 0.0
C139 C 0.50427 0.67293 0.38524 0.0
C140 C 0.51701 0.6682 0.32869 0.0
C141 C 0.51718 0.68369 0.27869 0.0
C142 C 0.4867 0.70364 0.05854 0.0
C143 C 0.4651 0.69191 0.05919 0.0
C144 C 0.1674 0.3812 0.12748 0.0
C145 C 0.17512 0.39871 0.08799 0.0
C146 C 0.19887 0.40649 0.09707 0.0
C147 C 0.21382 0.39786 0.14658 0.0
H148 H 0.28331 0.4033 0.25801 0.0
H149 H 0.32234 0.41601 0.29804 0.0
H150 H 0.3146 0.37415 0.46554 0.0
H151 H 0.27689 0.36089 0.42473 0.0
H152 H 0.21644 0.37657 0.47431 0.0
H153 H 0.1812 0.38637 0.53715 0.0
H154 H 0.13688 0.34586 0.41625 0.0
H155 H 0.17233 0.3374 0.35029 0.0
H156 H 0.17511 0.35946 0.20616 0.0
H157 H 0.1493 0.37481 0.12331 0.0
H158 H 0.20579 0.41961 0.06685 0.0
H159 H 0.23146 0.40494 0.1541 0.0
N160 N 0.24184 0.37987 0.26087 0.0
N161 N 0.23729 0.36613 0.3657 0.0
N162 N 0.20487 0.36515 0.29474 0.0
C163 C 0.25159 0.3751 0.31983 0.0
C164 C 0.21403 0.36098 0.35345 0.0
C165 C 0.21831 0.37452 0.24803 0.0
C166 C 0.2767 0.38123 0.33821 0.0
C167 C 0.29026 0.39652 0.30269 0.0
C168 C 0.31256 0.40396 0.3261 0.0
C169 C 0.32178 0.39628 0.38553 0.0
C170 C 0.30857 0.3803 0.41931 0.0
C171 C 0.28656 0.37284 0.39596 0.0
C172 C 0.19685 0.35705 0.40591 0.0
C173 C 0.19942 0.36893 0.46267 0.0
C174 C 0.17895 0.37456 0.49902 0.0
C175 C 0.15572 0.36794 0.47977 0.0
C176 C 0.15423 0.35227 0.43042 0.0
C177 C 0.17461 0.34714 0.39305 0.0
C178 C 0.2054 0.38116 0.18786 0.0
C179 C 0.18232 0.37248 0.17598 0.0
C180 C 0.02477 0.16575 0.12135 0.0
C181 C 0.00867 0.16987 0.07061 0.0
C182 C 0.99758 0.1914 0.06441 0.0
C183 C 0.00129 0.20788 0.11099 0.0
H184 H 0.04001 0.28599 0.24893 0.0
H185 H 0.03894 0.3217 0.30614 0.0
H186 H 0.96971 0.30539 0.38772 0.0
H187 H 0.97069 0.27008 0.33027 0.0
H188 H 0.99421 0.22081 0.44 0.0
H189 H 0.98914 0.18995 0.51582 0.0
H190 H 0.05092 0.15479 0.43187 0.0
H191 H 0.05585 0.18543 0.35712 0.0
H192 H 0.04085 0.1777 0.20588 0.0
H193 H 0.03405 0.14958 0.12683 0.0
H194 H 0.98518 0.19511 0.02536 0.0
H195 H 0.99146 0.22382 0.10727 0.0
N196 N 0.0112 0.24007 0.22158 0.0
N197 N 0.01591 0.24009 0.33373 0.0
N198 N 0.02273 0.20718 0.27738 0.0
C199 C 0.01093 0.2513 0.27844 0.0
C200 C 0.02219 0.21813 0.33319 0.0
C201 C 0.01721 0.21761 0.22143 0.0
C202 C 0.00521 0.27546 0.28425 0.0
C203 C 0.02386 0.29076 0.27574 0.0
C204 C 0.0234 0.31106 0.30914 0.0
C205 C 0.00439 0.31612 0.35198 0.0
C206 C 0.98461 0.30186 0.35519 0.0
C207 C 0.98499 0.28179 0.32154 0.0
C208 C 0.02509 0.20509 0.39226 0.0
C209 C 0.0074 0.20695 0.4402 0.0
C210 C 0.00439 0.18925 0.48316 0.0
C211 C 0.01921 0.16972 0.47857 0.0
C212 C 0.03915 0.16953 0.43671 0.0
C213 C 0.04195 0.18705 0.39355 0.0
C214 C 0.0164 0.2031 0.16388 0.0
C215 C 0.02872 0.18207 0.16672 0.0
C216 C 0.32016 0.09111 0.09885 0.0
C217 C 0.31666 0.06983 0.07319 0.0
C218 C 0.29559 0.05841 0.09116 0.0
C219 C 0.2794 0.06741 0.13677 0.0
H220 H 0.21294 0.05807 0.26772 0.0
H221 H 0.17621 0.04521 0.3217 0.0
H222 H 0.1716 0.10692 0.42699 0.0
H223 H 0.20821 0.11935 0.37459 0.0
H224 H 0.26953 0.10625 0.45582 0.0
H225 H 0.30259 0.09698 0.52929 0.0
H226 H 0.35461 0.11674 0.38689 0.0
H227 H 0.32172 0.12657 0.31431 0.0
H228 H 0.30813 0.11601 0.16485 0.0
H229 H 0.33613 0.10043 0.08704 0.0
H230 H 0.29198 0.04218 0.07149 0.0
H231 H 0.26422 0.05765 0.15241 0.0
N232 N 0.24808 0.08968 0.23933 0.0
N233 N 0.25261 0.10587 0.3405 0.0
N234 N 0.28481 0.10575 0.26856 0.0
C235 C 0.23843 0.09567 0.29714 0.0
C236 C 0.27584 0.11091 0.3267 0.0
C237 C 0.27134 0.09531 0.22449 0.0
C238 C 0.21362 0.08959 0.31745 0.0
C239 C 0.20366 0.06905 0.30122 0.0
C240 C 0.18265 0.06169 0.33229 0.0
C241 C 0.17122 0.07482 0.37983 0.0
C242 C 0.18025 0.09608 0.39206 0.0
C243 C 0.20118 0.10329 0.3616 0.0
C244 C 0.29314 0.11601 0.37809 0.0
C245 C 0.28793 0.10974 0.44126 0.0
C246 C 0.30691 0.10429 0.48337 0.0
C247 C 0.33118 0.10507 0.46265 0.0
C248 C 0.33613 0.11553 0.40403 0.0
C249 C 0.31718 0.12105 0.36207 0.0
C250 C 0.284 0.08799 0.16534 0.0
C251 C 0.30406 0.10005 0.14399 0.0
C252 C 0.47975 0.30607 0.41171 0.0
C253 C 0.498 0.30613 0.45851 0.0
C254 C 0.51337 0.28708 0.46668 0.0
C255 C 0.51188 0.26913 0.42477 0.0
H256 H 0.5385 0.19976 0.3531 0.0
H257 H 0.53522 0.16378 0.40785 0.0
H258 H 0.4728 0.14906 0.29326 0.0
H259 H 0.47603 0.18546 0.23812 0.0
H260 H 0.47316 0.25364 0.10428 0.0
H261 H 0.4747 0.28232 0.01958 0.0
H262 H 0.54191 0.30535 0.09861 0.0
H263 H 0.54047 0.27661 0.18087 0.0
H264 H 0.4656 0.28955 0.33059 0.0
H265 H 0.46779 0.32057 0.40376 0.0
H266 H 0.52749 0.2867 0.50268 0.0
H267 H 0.52499 0.25528 0.42876 0.0
N268 N 0.50128 0.23302 0.32833 0.0
N269 N 0.50558 0.2283 0.21721 0.0
N270 N 0.49911 0.26414 0.26046 0.0
C271 C 0.50463 0.21938 0.2775 0.0
C272 C 0.50295 0.25098 0.20914 0.0
C273 C 0.49806 0.25531 0.31979 0.0
C274 C 0.50766 0.19523 0.29106 0.0
C275 C 0.52476 0.18841 0.33753 0.0
C276 C 0.52278 0.16794 0.36918 0.0
C277 C 0.50367 0.15385 0.35497 0.0
C278 C 0.48779 0.15965 0.30456 0.0
C279 C 0.48976 0.18032 0.27272 0.0
C280 C 0.50705 0.26255 0.14787 0.0
C281 C 0.48875 0.26423 0.10135 0.0
C282 C 0.48943 0.28095 0.05376 0.0
C283 C 0.50838 0.29631 0.05217 0.0
C284 C 0.52725 0.29369 0.09715 0.0
C285 C 0.52654 0.2771 0.1443 0.0
C286 C 0.4953 0.27036 0.37395 0.0
C287 C 0.47857 0.28842 0.36944 0.0
O288 O 0.04244 0.96443 0.83032 0.0
Mg289 Mg 0.04353 0.96595 0.73024 0.0
O290 O 0.00408 0.96464 0.80458 0.0
Mg291 Mg 0.9957 -0.01235 0.71827 0.0
O292 O 0.03573 -0.00424 0.68448 0.0
O293 O 0.07338 -0.01972 0.6933 0.0
O294 O 0.98662 0.01043 0.6322 0.0
O295 O 0.99669 0.01959 0.78412 0.0
Mg296 Mg 0.94566 0.0114 0.71275 0.0
O297 O 0.95588 -0.01942 0.74996 0.0
O298 O 0.94773 0.0158 0.61322 0.0
O299 O 0.96089 0.03717 0.76853 0.0
O300 O 0.91738 -0.00615 0.74873 0.0
C301 C 0.00943 0.93824 0.65105 0.0
C302 C 0.02106 0.95876 0.84281 0.0
C303 C 0.05901 -0.00384 0.67243 0.0
C304 C 0.96958 0.01846 0.59706 0.0
C305 C 0.98193 0.03626 0.79358 0.0
C306 C 0.9331 0.97836 0.76487 0.0
O307 O 0.02965 0.93824 0.68032 0.0
O308 O 0.9947 0.95529 0.65366 0.0
O309 O 0.43381 -0.02091 0.76644 0.0
Mg310 Mg 0.44966 0.9583 0.69491 0.0
O311 O 0.46632 -0.0012 0.79084 0.0
Mg312 Mg 0.4966 -0.01448 0.71891 0.0
O313 O 0.48265 0.9494 0.73194 0.0
O314 O 0.45409 0.92462 0.71384 0.0
O315 O 0.52718 0.97271 0.64734 0.0
O316 O 0.52253 0.97453 0.80007 0.0
Mg317 Mg 0.54487 0.01503 0.74188 0.0
O318 O 0.51082 0.02088 0.70887 0.0
O319 O 0.55913 -0.00622 0.66868 0.0
O320 O 0.54635 0.00077 0.83478 0.0
O321 O 0.53641 0.04843 0.719 0.0
C322 C 0.45558 -0.00949 0.59652 0.0
C323 C 0.44393 -0.00601 0.79928 0.0
C324 C 0.47473 0.92923 0.73896 0.0
C325 C 0.54925 0.97831 0.63733 0.0
C326 C 0.53852 -0.0189 0.83896 0.0
C327 C 0.51616 0.04144 0.69706 0.0
O328 O 0.44797 0.97081 0.60067 0.0
O329 O 0.47109 -0.00284 0.63658 0.0
O330 O 0.53848 0.44106 0.76485 0.0
Mg331 Mg 0.54917 0.46877 0.70901 0.0
O332 O 0.50023 0.45256 0.78154 0.0
Mg333 Mg 0.49741 0.48582 0.71858 0.0
O334 O 0.53582 0.49716 0.75168 0.0
O335 O 0.5756 0.48803 0.74482 0.0
O336 O 0.49553 0.51878 0.65636 0.0
O337 O 0.48638 0.50659 0.80656 0.0
Mg338 Mg 0.44849 0.50331 0.72856 0.0
O339 O 0.45885 0.47476 0.68056 0.0
O340 O 0.45894 0.53282 0.67927 0.0
O341 O 0.44786 0.50429 0.82867 0.0
O342 O 0.42021 0.48774 0.68938 0.0
C343 C 0.52636 0.46001 0.59457 0.0
C344 C 0.51781 0.43822 0.79032 0.0
C345 C 0.55836 0.50117 0.76541 0.0
C346 C 0.47935 0.53458 0.6517 0.0
C347 C 0.46862 0.51088 0.84364 0.0
C348 C 0.43575 0.47316 0.66746 0.0
O349 O 0.54765 0.46532 0.6093 0.0
O350 O 0.50885 0.46535 0.63139 0.0
O351 O 0.9502 0.46602 0.82332 0.0
Mg352 Mg 0.95623 0.45658 0.72794 0.0
O353 O 0.97451 0.49368 0.80274 0.0
Mg354 Mg 0.00107 0.48771 0.71885 0.0
O355 O 0.99093 0.45085 0.69702 0.0
O356 O 0.96382 0.42389 0.7049 0.0
O357 O 0.02667 0.48099 0.63359 0.0
O358 O 0.03221 0.47348 0.78838 0.0
Mg359 Mg 0.04366 0.51683 0.69989 0.0
O360 O 0.01137 0.52497 0.74334 0.0
O361 O 0.04663 0.51009 0.60188 0.0
O362 O 0.06317 0.49481 0.76263 0.0
O363 O 0.04068 0.54955 0.72523 0.0
C364 C 0.94903 0.49538 0.63303 0.0
C365 C 0.95797 0.48509 0.83679 0.0
C366 C 0.98477 0.43039 0.68573 0.0
C367 C 0.04058 0.49016 0.59344 0.0
C368 C 0.05455 0.47874 0.79471 0.0
C369 C 0.0201 0.54487 0.75083 0.0
O370 O 0.94005 0.47795 0.65757 0.0
O371 O 0.97023 0.50187 0.64873 0.0
H372 H 0.13206 0.04958 0.34509 0.0
H373 H 0.09345 0.02517 0.70529 0.0
H374 H 0.16541 0.07932 0.50858 0.0
H375 H 0.05064 0.00453 0.54589 0.0
H376 H 0.11837 0.04704 0.63283 0.0
H377 H 0.10106 0.03402 0.41581 0.0
C378 C 0.13284 0.05292 0.39566 0.0
C379 C 0.1514 0.06588 0.42067 0.0
C380 C 0.10322 0.03818 0.61352 0.0
C381 C 0.11596 0.04816 0.50188 0.0
C382 C 0.08887 0.02586 0.65507 0.0
C383 C 0.06966 0.01353 0.63161 0.0
C384 C 0.0988 0.03767 0.54753 0.0
C385 C 0.0649 0.01437 0.56591 0.0
C386 C 0.11504 0.04417 0.43595 0.0
C387 C 0.15132 0.06977 0.48668 0.0
N388 N 0.07957 0.02601 0.52594 0.0
N389 N 0.13406 0.06087 0.52475 0.0
H390 H 0.50744 0.10842 0.33463 0.0
H391 H 0.49118 0.08135 0.70682 0.0
H392 H 0.48864 0.15742 0.47693 0.0
H393 H 0.51708 0.03256 0.57121 0.0
H394 H 0.48195 0.1075 0.61875 0.0
H395 H 0.50363 0.07865 0.4159 0.0
C396 C 0.5021 0.1128 0.38273 0.0
C397 C 0.4985 0.13528 0.39959 0.0
C398 C 0.48911 0.0909 0.60794 0.0
C399 C 0.49414 0.10165 0.49237 0.0
C400 C 0.4941 0.07593 0.65821 0.0
C401 C 0.50424 0.05467 0.64589 0.0
C402 C 0.49499 0.08475 0.54503 0.0
C403 C 0.50869 0.04869 0.58231 0.0
C404 C 0.49999 0.0959 0.42908 0.0
C405 C 0.49173 0.14023 0.46241 0.0
N406 N 0.50423 0.06371 0.53423 0.0
N407 N 0.48992 0.12361 0.50653 0.0
H408 H 0.3377 0.43944 0.37685 0.0
H409 H 0.4289 0.42757 0.67009 0.0
H410 H 0.35651 0.37533 0.46319 0.0
H411 H 0.42157 0.48636 0.55064 0.0
H412 H 0.40501 0.40688 0.59189 0.0
H413 H 0.37057 0.45593 0.43599 0.0
C414 C 0.34893 0.42866 0.40726 0.0
C415 C 0.34391 0.40591 0.41514 0.0
C416 C 0.40912 0.42417 0.58213 0.0
C417 C 0.38152 0.42502 0.4851 0.0
C418 C 0.4229 0.43587 0.62648 0.0
C419 C 0.42726 0.45859 0.61629 0.0
C420 C 0.39945 0.43548 0.52807 0.0
C421 C 0.41865 0.46879 0.55988 0.0
C422 C 0.36769 0.43818 0.4416 0.0
C423 C 0.35912 0.39306 0.45654 0.0
N424 N 0.40497 0.45729 0.51838 0.0
N425 N 0.37696 0.40283 0.49051 0.0
H426 H 0.00452 0.31023 0.47984 0.0
H427 H -0.00121 0.44009 0.56485 0.0
H428 H 0.01041 0.36169 0.33605 0.0
H429 H -0.00211 0.38661 0.70314 0.0
H430 H 0.00886 0.4127 0.48128 0.0
H431 H 0.00687 0.33848 0.56234 0.0
C432 C 0.00626 0.32759 0.46574 0.0
C433 C 0.00688 0.33369 0.40109 0.0
C434 C 0.00721 0.407 0.53019 0.0
C435 C 0.00954 0.36641 0.49571 0.0
C436 C 0.00203 0.42271 0.57801 0.0
C437 C -0.0017 0.41566 0.64112 0.0
C438 C 0.0083 0.38405 0.54573 0.0
C439 C 0.00109 0.39277 0.65526 0.0
C440 C 0.00774 0.34375 0.5129 0.0
C441 C 0.00969 0.35636 0.38544 0.0
N442 N 0.00569 0.37783 0.60801 0.0
N443 N 0.01059 0.37198 0.43245 0.0
H444 H 0.86529 0.92495 0.09663 0.0
H445 H 0.90211 0.94588 0.73389 0.0
H446 H 0.83286 0.89182 0.93737 0.0
H447 H 0.94296 0.97141 0.89065 0.0
H448 H 0.87925 0.92299 0.80874 0.0
H449 H 0.89578 0.94014 0.02392 0.0
C450 C 0.86463 0.92077 0.04658 0.0
C451 C 0.84642 0.90703 0.02333 0.0
C452 C 0.8936 0.93315 0.82694 0.0
C453 C 0.88131 0.92432 0.9398 0.0
C454 C 0.9068 0.94601 0.78403 0.0
C455 C 0.92475 0.96008 0.80615 0.0
C456 C 0.89786 0.93489 0.8928 0.0
C457 C 0.92965 0.96028 0.87174 0.0
C458 C 0.88215 0.92931 0.00515 0.0
C459 C 0.84667 0.90204 0.95794 0.0
N460 N 0.91604 0.94812 0.91297 0.0
N461 N 0.86364 0.91078 0.91866 0.0
H462 H 0.46552 0.82228 0.00139 0.0
H463 H 0.49778 0.93798 0.85151 0.0
H464 H 0.53168 0.85212 0.06383 0.0
H465 H 0.47274 0.88392 0.73689 0.0
H466 H 0.50702 0.91104 0.93842 0.0
H467 H 0.46237 0.84983 0.91476 0.0
C468 C 0.47917 0.83489 0.99753 0.0
C469 C 0.4988 0.83501 0.0402 0.0
C470 C 0.50005 0.90509 0.8936 0.0
C471 C 0.49536 0.86649 0.94062 0.0
C472 C 0.4952 0.92035 0.84364 0.0
C473 C 0.48534 0.91306 0.78599 0.0
C474 C 0.49392 0.88263 0.88658 0.0
C475 C 0.48076 0.89021 0.78002 0.0
C476 C 0.47751 0.85041 0.94763 0.0
C477 C 0.51624 0.85151 0.03198 0.0
N478 N 0.48473 0.87591 0.82991 0.0
N479 N 0.51404 0.86676 0.9833 0.0
H480 H 0.65505 0.58969 0.94014 0.0
H481 H 0.54911 0.50294 0.89248 0.0
H482 H 0.63618 0.5407 0.08254 0.0
H483 H 0.58508 0.53748 0.7401 0.0
H484 H 0.57193 0.52458 0.97021 0.0
H485 H 0.62086 0.57843 0.87527 0.0
C486 C 0.64353 0.57668 0.95812 0.0
C487 C 0.64886 0.56575 0.01626 0.0
C488 C 0.57428 0.52789 0.91978 0.0
C489 C 0.60941 0.55286 0.94206 0.0
C490 C 0.56102 0.51581 0.87553 0.0
C491 C 0.56501 0.51878 0.81002 0.0
C492 C 0.59159 0.54297 0.89803 0.0
C493 C 0.58126 0.535 0.79026 0.0
C494 C 0.62396 0.57032 0.92106 0.0
C495 C 0.63286 0.54945 0.03785 0.0
N496 N 0.59409 0.54637 0.83404 0.0
N497 N 0.61404 0.54325 0.00027 0.0
H498 H 0.96557 0.61745 0.08532 0.0
H499 H 0.0144 0.59005 0.73705 0.0
H500 H 0.01976 0.65674 0.99211 0.0
H501 H 0.00643 0.53654 0.87315 0.0
H502 H 0.00544 0.61721 0.82167 0.0
H503 H 0.96982 0.58953 -0.00041 0.0
C504 C 0.97839 0.62013 0.04703 0.0
C505 C 0.99261 0.63924 0.04621 0.0
C506 C 0.00488 0.59948 0.83249 0.0
C507 C 0.99687 0.60799 0.94759 0.0
C508 C 0.00975 0.58401 0.78422 0.0
C509 C 0.00973 0.56097 0.79743 0.0
C510 C -0.00011 0.59188 0.89452 0.0
C511 C 0.00475 0.55407 0.86007 0.0
C512 C 0.98078 0.60427 -0.00166 0.0
C513 C 0.00876 0.64206 0.99512 0.0
N514 N -0.00015 0.56943 0.90636 0.0
N515 N 0.01029 0.62675 0.94766 0.0
H516 H 0.04669 0.13554 0.53317 0.0
H517 H 0.93834 0.05074 0.54707 0.0
H518 H 0.9731 0.15436 0.47893 0.0
H519 H 0.01424 0.03032 0.55493 0.0
H520 H 0.95009 0.08856 0.51886 0.0
H521 H 0.0342 0.09699 0.54809 0.0
C522 C 0.02783 0.13163 0.52551 0.0
C523 C 0.01097 0.14815 0.50443 0.0
C524 C 0.96415 0.07567 0.52557 0.0
C525 C 0.99666 0.10412 0.52007 0.0
C526 C 0.95746 0.05396 0.54069 0.0
C527 C 0.9754 0.03745 0.55502 0.0
C528 C 0.98889 0.08077 0.52493 0.0
C529 C -0.00015 0.04263 0.54554 0.0
C530 C 0.02077 0.10961 0.53325 0.0
C531 C 0.98668 0.14223 0.49583 0.0
N532 N 0.00592 0.06398 0.53258 0.0
N533 N 0.98029 0.12064 0.50322 0.0
H534 H 0.32563 0.06247 0.50515 0.0
H535 H 0.46371 0.03509 0.58428 0.0
H536 H 0.3799 0.1126 0.48238 0.0
H537 H 0.41288 -0.01492 0.5318 0.0
H538 H 0.43425 0.06433 0.5524 0.0
H539 H 0.35756 0.0348 0.5295 0.0
C540 C 0.34422 0.06786 0.50695 0.0
C541 C 0.35006 0.09 0.49184 0.0
C542 C 0.42975 0.04695 0.54669 0.0
C543 C 0.38687 0.05798 0.51737 0.0
C544 C 0.44676 0.03023 0.5639 0.0
C545 C 0.44097 0.00756 0.56057 0.0
C546 C 0.40652 0.04092 0.52731 0.0
C547 C 0.41826 0.00228 0.53532 0.0
C548 C 0.3625 0.05188 0.51954 0.0
C549 C 0.37462 0.09571 0.49346 0.0
N550 N 0.4017 0.01886 0.5208 0.0
N551 N 0.3922 0.07975 0.5058 0.0
H552 H 0.54244 0.32445 0.47185 0.0
H553 H 0.48352 0.44457 0.55039 0.0
H554 H 0.46617 0.33702 0.51026 0.0
H555 H 0.56109 0.431 0.5464 0.0
H556 H 0.47703 0.40602 0.52028 0.0
H557 H 0.55008 0.36358 0.49433 0.0
C558 C 0.52739 0.33529 0.48674 0.0
C559 C 0.50358 0.32756 0.48869 0.0
C560 C 0.49549 0.41155 0.52505 0.0
C561 C 0.51204 0.37244 0.51169 0.0
C562 C 0.49923 0.43368 0.54113 0.0
C563 C 0.52288 0.4409 0.55219 0.0
C564 C 0.51555 0.39662 0.51953 0.0
C565 C 0.54253 0.42611 0.539 0.0
C566 C 0.53171 0.35771 0.49843 0.0
C567 C 0.48474 0.34242 0.50732 0.0
N568 N 0.53841 0.40449 0.52449 0.0
N569 N 0.48934 0.36425 0.51736 0.0
H570 H 0.1148 0.37894 0.40898 0.0
H571 H 0.0891 0.48728 0.6053 0.0
H572 H 0.14638 0.38853 0.59524 0.0
H573 H 0.02931 0.45773 0.50784 0.0
H574 H 0.11469 0.45441 0.58048 0.0
H575 H 0.08517 0.4089 0.43076 0.0
C576 C 0.11527 0.38677 0.45521 0.0
C577 C 0.13375 0.38131 0.4998 0.0
C578 C 0.09604 0.45525 0.56386 0.0
C579 C 0.10047 0.4165 0.52277 0.0
C580 C 0.08163 0.47418 0.57655 0.0
C581 C 0.0571 0.47504 0.55852 0.0
C582 C 0.08594 0.43728 0.53199 0.0
C583 C 0.0481 0.4574 0.52296 0.0
C584 C 0.09844 0.40415 0.46696 0.0
C585 C 0.1332 0.39257 0.5583 0.0
N586 N 0.06255 0.43906 0.51078 0.0
N587 N 0.11725 0.41002 0.56743 0.0
H588 H 0.03363 0.81883 0.88293 0.0
H589 H 0.97855 0.94326 0.88999 0.0
H590 H 0.96349 0.83468 0.96607 0.0
H591 H 0.05518 0.92652 0.87483 0.0
H592 H 0.97069 0.90381 0.91066 0.0
H593 H 0.03888 0.85865 0.8617 0.0
C594 C 0.01911 0.83066 0.89527 0.0
C595 C -0.00169 0.82354 0.92724 0.0
C596 C 0.98925 0.90889 0.90395 0.0
C597 C 0.00438 0.86893 0.90459 0.0
C598 C 0.99377 0.93141 0.89321 0.0
C599 C 0.01748 0.93815 0.88002 0.0
C600 C 0.0086 0.8931 0.9009 0.0
C601 C 0.0366 0.92212 0.88459 0.0
C602 C 0.02223 0.85335 0.884 0.0
C603 C 0.97984 0.83946 0.94137 0.0
N604 N 0.03167 0.90023 0.89331 0.0
N605 N 0.98344 0.86153 0.93074 0.0
H606 H 0.61946 0.8598 0.94908 0.0
H607 H 0.57282 -0.01271 0.93171 0.0
H608 H 0.66693 0.91563 0.9637 0.0
H609 H 0.5396 0.93611 0.82063 0.0
H610 H 0.60322 0.95929 0.96901 0.0
H611 H 0.58561 0.88622 0.92274 0.0
C612 C 0.62279 0.87753 0.94569 0.0
C613 C 0.64603 0.88556 0.95733 0.0
C614 C 0.58877 0.95418 0.93782 0.0
C615 C 0.60758 0.91562 0.93046 0.0
C616 C 0.57132 0.97006 0.91704 0.0
C617 C 0.55313 0.96395 0.87434 0.0
C618 C 0.58784 0.93207 0.91612 0.0
C619 C 0.55241 0.94142 0.85591 0.0
C620 C 0.60354 0.89254 0.93129 0.0
C621 C 0.64941 0.90871 0.95357 0.0
N622 N 0.56955 0.92631 0.87674 0.0
N623 N 0.63034 0.92296 0.94101 0.0
H624 H 0.44289 0.64817 0.91553 0.0
H625 H 0.5098 0.52861 0.89153 0.0
H626 H 0.51755 0.63629 0.97293 0.0
H627 H 0.43187 0.53907 0.88416 0.0
H628 H 0.51384 0.56776 0.92057 0.0
H629 H 0.43981 0.60828 0.89375 0.0
C630 C 0.45873 0.6372 0.92252 0.0
C631 C 0.48041 0.64547 0.94655 0.0
C632 C 0.49584 0.56136 0.91379 0.0
C633 C 0.47692 0.5999 0.92316 0.0
C634 C 0.4935 0.53894 0.89814 0.0
C635 C 0.47051 0.53062 0.88457 0.0
C636 C 0.47501 0.57551 0.91548 0.0
C637 C 0.44998 0.54474 0.89385 0.0
C638 C 0.4569 0.61444 0.9108 0.0
C639 C 0.50052 0.63063 0.95406 0.0
N640 N 0.45275 0.56664 0.90744 0.0
N641 N 0.49823 0.60848 0.94294 0.0
H642 H 0.82824 0.55654 0.93637 0.0
H643 H 0.96746 0.52742 0.872 0.0
H644 H 0.88439 0.60414 0.96721 0.0
H645 H 0.91296 0.47768 0.8884 0.0
H646 H 0.93817 0.55588 0.9077 0.0
H647 H 0.85926 0.52819 0.91133 0.0
C648 C 0.84709 0.56124 0.93627 0.0
C649 C 0.85372 0.58286 0.95353 0.0
C650 C 0.93271 0.53867 0.9048 0.0
C651 C 0.88943 0.55006 0.92722 0.0
C652 C 0.94962 0.52236 0.88533 0.0
C653 C 0.94286 0.50018 0.87703 0.0
C654 C 0.90862 0.53276 0.91539 0.0
C655 C 0.91911 0.49457 0.89392 0.0
C656 C 0.86483 0.54485 0.92322 0.0
C657 C 0.87851 0.58768 0.95426 0.0
N658 N 0.9027 0.51085 0.91122 0.0
N659 N 0.89552 0.57136 0.94144 0.0
H660 H 0.00874 0.16934 0.93891 0.0
H661 H 0.99052 0.03644 0.92188 0.0
H662 H 0.99652 0.12738 0.10332 0.0
H663 H 0.98773 0.0794 0.75599 0.0
H664 H 0.9963 0.06939 0.98877 0.0
H665 H 0.00369 0.13666 0.87016 0.0
C666 C 0.00468 0.15335 0.96044 0.0
C667 C 0.0032 0.15109 0.02696 0.0
C668 C 0.99472 0.07163 0.93766 0.0
C669 C 0.99768 0.11357 0.94889 0.0
C670 C 0.99168 0.05279 0.89955 0.0
C671 C 0.98896 0.05527 0.83348 0.0
C672 C 0.99529 0.09308 0.90935 0.0
C673 C 0.98993 0.07686 0.80686 0.0
C674 C 0.00197 0.13466 0.92129 0.0
C675 C -0.00183 0.12986 0.05233 0.0
N676 N 0.9931 0.09492 0.84476 0.0
N677 N 0.9957 0.112 0.01346 0.0
H678 H 0.3463 0.0896 0.98349 0.0
H679 H 0.41213 0.9749 0.87959 0.0
H680 H 0.33171 0.02554 0.06983 0.0
H681 H 0.44018 0.03903 0.82742 0.0
H682 H 0.38212 -0.00646 0.948 0.0
H683 H 0.37969 0.07192 0.92332 0.0
C684 C 0.35004 0.07185 0.99001 0.0
C685 C 0.33591 0.05911 0.03205 0.0
C686 C 0.39494 0.00362 0.92226 0.0
C687 C 0.37418 0.03872 0.96242 0.0
C688 C 0.41213 -0.00703 0.8833 0.0
C689 C 0.42869 0.00544 0.84798 0.0
C690 C 0.39382 0.02707 0.92521 0.0
C691 C 0.42788 0.0288 0.85442 0.0
C692 C 0.36916 0.06178 0.9555 0.0
C693 C 0.34159 0.03608 0.03732 0.0
N694 N 0.41048 0.03893 0.89169 0.0
N695 N 0.36016 0.02669 0.00297 0.0
H696 H 0.4691 0.32293 0.01244 0.0
H697 H 0.55393 0.41084 0.83738 0.0
H698 H 0.54686 0.31494 0.99002 0.0
H699 H 0.47565 0.41848 0.83434 0.0
H700 H 0.55063 0.37619 0.89666 0.0
H701 H 0.47 0.35745 0.94812 0.0
C702 C 0.48631 0.3282 0.99341 0.0
C703 C 0.50798 0.31595 0.00733 0.0
C704 C 0.53407 0.38529 0.88313 0.0
C705 C 0.50914 0.35577 0.93476 0.0
C706 C 0.53592 0.40524 0.84911 0.0
C707 C 0.51501 0.41769 0.83019 0.0
C708 C 0.5111 0.37736 0.89894 0.0
C709 C 0.49227 0.4095 0.8479 0.0
C710 C 0.48681 0.34805 0.95715 0.0
C711 C 0.52973 0.3239 0.98185 0.0
N712 N 0.49089 0.38978 0.88118 0.0
N713 N 0.52973 0.34325 0.94738 0.0
H714 H 0.13819 0.37951 0.01901 0.0
H715 H 0.0978 0.49278 0.83924 0.0
H716 H 0.17167 0.44295 0.04947 0.0
H717 H 0.05014 0.43693 0.85263 0.0
H718 H 0.12682 0.47298 0.90803 0.0
H719 H 0.10783 0.39846 0.95076 0.0
C720 C 0.13927 0.3974 0.0117 0.0
C721 C 0.15774 0.40955 0.04094 0.0
C722 C 0.11001 0.46501 0.89634 0.0
C723 C 0.12301 0.43127 0.96107 0.0
C724 C 0.09334 0.4763 0.85673 0.0
C725 C 0.07135 0.46655 0.83977 0.0
C726 C 0.10504 0.44354 0.91929 0.0
C727 C 0.06677 0.44515 0.86455 0.0
C728 C 0.12187 0.40817 0.97238 0.0
C729 C 0.15824 0.43263 0.02768 0.0
N730 N 0.08355 0.43429 0.90278 0.0
N731 N 0.14124 0.44264 0.98887 0.0
H732 H 0.00936 0.80248 0.50533 0.0
H733 H 0.97562 0.93325 0.55461 0.0
H734 H 0.97396 0.84373 0.36134 0.0
H735 H 0.02947 0.89621 0.66584 0.0
H736 H 0.96848 0.89914 0.49335 0.0
H737 H 0.01026 0.83519 0.57559 0.0
C738 C 0.00134 0.81831 0.48912 0.0
C739 C 0.99159 0.82044 0.42756 0.0
C740 C 0.98177 0.89853 0.53144 0.0
C741 C 0.99262 0.85793 0.50718 0.0
C742 C 0.9858 0.91798 0.56648 0.0
C743 C 0.00337 0.91775 0.61503 0.0
C744 C 0.99511 0.87861 0.54573 0.0
C745 C 0.01597 0.89736 0.62834 0.0
C746 C 0.00202 0.83702 0.52889 0.0
C747 C 0.98171 0.84143 0.40848 0.0
N748 N 0.01161 0.87872 0.59403 0.0
N749 N 0.98251 0.85933 0.44796 0.0
H750 H 0.65122 0.88501 0.46111 0.0
H751 H 0.57889 -0.00207 0.55231 0.0
H752 H 0.66226 0.94854 0.36752 0.0
H753 H 0.55539 0.93313 0.61393 0.0
H754 H 0.60961 -0.02016 0.48474 0.0
H755 H 0.61689 0.90194 0.51929 0.0
C756 C 0.6465 0.9025 0.45259 0.0
C757 C 0.6599 0.91532 0.40911 0.0
C758 C 0.59762 0.96947 0.51233 0.0
C759 C 0.62052 0.93485 0.47641 0.0
C760 C 0.58001 -0.02019 0.55076 0.0
C761 C 0.56455 0.96699 0.58856 0.0
C762 C 0.60027 0.94605 0.51246 0.0
C763 C 0.56681 0.94359 0.58496 0.0
C764 C 0.62684 0.91214 0.48596 0.0
C765 C 0.65295 0.938 0.40122 0.0
N766 N 0.5846 0.93383 0.54821 0.0
N767 N 0.63386 0.94699 0.4345 0.0
H768 H 0.46391 0.66281 0.45636 0.0
H769 H 0.52125 0.54635 0.58892 0.0
H770 H 0.53856 0.64129 0.42534 0.0
H771 H 0.44847 0.5708 0.63193 0.0
H772 H 0.52832 0.58128 0.53057 0.0
H773 H 0.45856 0.63006 0.52499 0.0
C774 C 0.47932 0.65145 0.46472 0.0
C775 C 0.50168 0.65485 0.43434 0.0
C776 C 0.51082 0.579 0.55294 0.0
C777 C 0.49548 0.61683 0.51196 0.0
C778 C 0.50675 0.559 0.58611 0.0
C779 C 0.48419 0.55548 0.61527 0.0
C780 C 0.4922 0.59564 0.54869 0.0
C781 C 0.46614 0.57262 0.61014 0.0
C782 C 0.47617 0.63257 0.50351 0.0
C783 C 0.52084 0.63922 0.44659 0.0
N784 N 0.47052 0.59184 0.57749 0.0
N785 N 0.51725 0.62087 0.48388 0.0
H786 H 0.83898 0.52457 0.34988 0.0
H787 H 0.93756 0.54056 0.62693 0.0
H788 H 0.84 0.5836 0.46661 0.0
H789 H 0.92503 0.47809 0.53363 0.0
H790 H 0.90587 0.55873 0.55923 0.0
H791 H 0.87379 0.50907 0.40902 0.0
C792 C 0.84626 0.53419 0.38853 0.0
C793 C 0.83617 0.55536 0.40359 0.0
C794 C 0.91034 0.54112 0.55303 0.0
C795 C 0.87676 0.53779 0.47098 0.0
C796 C 0.92858 0.53085 0.59109 0.0
C797 C 0.93389 0.50784 0.58557 0.0
C798 C 0.89762 0.52827 0.50889 0.0
C799 C 0.92143 0.49587 0.53937 0.0
C800 C 0.86638 0.5254 0.42193 0.0
C801 C 0.84712 0.56726 0.45301 0.0
N802 N 0.90391 0.50618 0.50303 0.0
N803 N 0.86675 0.55831 0.48496 0.0
loop_
_geom_bond_atom_site_label_1
_geom_bond_atom_site_label_2
_geom_bond_distance
_geom_bond_site_symmetry_2
_ccdc_geom_bond_type
C0 C1 1.384 . S
C0 H13 0.947 . S
C0 C35 1.382 . S
C1 C0 1.384 . S
C1 C2 1.378 . S
C2 C1 1.378 . S
C2 C3 1.378 . S
C2 H14 0.952 . S
C3 C2 1.378 . S
C3 H15 0.950 . S
C3 C34 1.383 . S
H4 C23 0.947 . S
H5 C24 0.946 . S
H6 C26 0.953 . S
H7 C27 0.945 1_556 S
H8 C29 0.952 . S
H9 C30 0.949 . S
H10 C32 0.950 . S
H11 C33 0.948 . S
H12 C35 0.951 . S
H13 C0 0.947 . S
H14 C2 0.952 . S
H15 C3 0.950 . S
N16 C19 1.382 . S
N16 C21 1.363 . S
N17 C19 1.371 . S
N17 C20 1.372 . S
N18 C20 1.361 . S
N18 C21 1.377 . S
C19 N16 1.382 . S
C19 N17 1.371 . S
C19 C22 1.480 . S
C20 N17 1.372 . S
C20 N18 1.361 . S
C20 C28 1.457 . S
C21 N16 1.363 . S
C21 N18 1.377 . S
C21 C34 1.479 . S
C22 C19 1.480 . S
C22 C23 1.383 . S
C22 C27 1.385 . S
C23 H4 0.947 . S
C23 C22 1.383 . S
C23 C24 1.388 . S
C24 H5 0.946 . S
C24 C23 1.388 . S
C24 C25 1.384 . S
C25 C24 1.384 . S
C25 C26 1.377 1_554 S
C26 H6 0.953 . S
C26 C25 1.377 1_556 S
C26 C27 1.369 1_556 S
C27 H7 0.945 1_554 S
C27 C22 1.385 . S
C27 C26 1.369 1_554 S
C28 C20 1.457 . S
C28 C29 1.372 1_554 S
C28 C33 1.364 . S
C29 H8 0.952 . S
C29 C28 1.372 1_556 S
C29 C30 1.389 . S
C30 H9 0.949 . S
C30 C29 1.389 . S
C30 C31 1.387 . S
C31 C30 1.387 . S
C31 C32 1.372 . S
C32 H10 0.950 . S
C32 C31 1.372 . S
C32 C33 1.379 1_556 S
C33 H11 0.948 . S
C33 C28 1.364 . S
C33 C32 1.379 1_554 S
C34 C3 1.383 . S
C34 C21 1.479 . S
C34 C35 1.398 . S
C35 C0 1.382 . S
C35 H12 0.951 . S
C35 C34 1.398 . S
C36 C37 1.384 1_655 S
C36 H49 0.948 . S
C36 C71 1.382 1_655 S
C37 C36 1.384 1_455 S
C37 C38 1.378 . S
C38 C37 1.378 . S
C38 C39 1.378 . S
C38 H50 0.952 . S
C39 C38 1.378 . S
C39 H51 0.950 . S
C39 C70 1.383 . S
H40 C59 0.947 . S
H41 C60 0.952 . S
H42 C62 0.953 1_556 S
H43 C63 0.945 1_556 S
H44 C65 0.948 1_655 S
H45 C66 0.957 . S
H46 C68 0.950 1_554 S
H47 C69 0.948 . S
H48 C71 0.951 1_655 S
H49 C36 0.948 . S
H50 C38 0.952 . S
H51 C39 0.950 . S
N52 C55 1.382 . S
N52 C57 1.363 . S
N53 C55 1.371 . S
N53 C56 1.372 . S
N54 C56 1.361 . S
N54 C57 1.377 . S
C55 N52 1.382 . S
C55 N53 1.371 . S
C55 C58 1.480 . S
C56 N53 1.372 . S
C56 N54 1.361 . S
C56 C64 1.457 . S
C57 N52 1.363 . S
C57 N54 1.377 . S
C57 C70 1.479 . S
C58 C55 1.480 . S
C58 C59 1.383 . S
C58 C63 1.385 . S
C59 H40 0.947 . S
C59 C58 1.383 . S
C59 C60 1.385 1_455 S
C60 H41 0.952 . S
C60 C59 1.385 1_655 S
C60 C61 1.382 1_655 S
C61 C60 1.382 1_455 S
C61 C62 1.377 . S
C62 H42 0.953 1_554 S
C62 C61 1.377 . S
C62 C63 1.369 . S
C63 H43 0.945 1_554 S
C63 C58 1.385 . S
C63 C62 1.369 . S
C64 C56 1.457 . S
C64 C65 1.376 1_554 S
C64 C69 1.364 . S
C65 H44 0.948 1_455 S
C65 C64 1.376 1_556 S
C65 C66 1.388 1_455 S
C66 H45 0.957 . S
C66 C65 1.388 1_655 S
C66 C67 1.381 1_655 S
C67 C66 1.381 1_455 S
C67 C68 1.372 . S
C68 H46 0.950 1_556 S
C68 C67 1.372 . S
C68 C69 1.379 1_556 S
C69 H47 0.948 . S
C69 C64 1.364 . S
C69 C68 1.379 1_554 S
C70 C39 1.383 . S
C70 C57 1.479 . S
C70 C71 1.398 . S
C71 C36 1.382 1_455 S
C71 H48 0.951 1_455 S
C71 C70 1.398 . S
C72 C73 1.384 . S
C72 H85 0.947 . S
C72 C107 1.382 . S
C73 C72 1.384 . S
C73 C74 1.378 . S
C74 C73 1.378 . S
C74 C75 1.378 . S
C74 H86 0.952 . S
C75 C74 1.378 . S
C75 H87 0.950 . S
C75 C106 1.383 . S
H76 C95 0.947 . S
H77 C96 0.946 . S
H78 C98 0.953 . S
H79 C99 0.945 1_556 S
H80 C101 0.952 . S
H81 C102 0.949 . S
H82 C104 0.950 . S
H83 C105 0.948 . S
H84 C107 0.951 . S
H85 C72 0.947 . S
H86 C74 0.952 . S
H87 C75 0.950 . S
N88 C91 1.382 . S
N88 C93 1.363 . S
N89 C91 1.371 . S
N89 C92 1.372 . S
N90 C92 1.361 . S
N90 C93 1.377 . S
C91 N88 1.382 . S
C91 N89 1.371 . S
C91 C94 1.480 . S
C92 N89 1.372 . S
C92 N90 1.361 . S
C92 C100 1.457 . S
C93 N88 1.363 . S
C93 N90 1.377 . S
C93 C106 1.479 . S
C94 C91 1.480 . S
C94 C95 1.383 . S
C94 C99 1.385 . S
C95 H76 0.947 . S
C95 C94 1.383 . S
C95 C96 1.388 . S
C96 H77 0.946 . S
C96 C95 1.388 . S
C96 C97 1.384 . S
C97 C96 1.384 . S
C97 C98 1.377 1_554 S
C98 H78 0.953 . S
C98 C97 1.377 1_556 S
C98 C99 1.369 1_556 S
C99 H79 0.945 1_554 S
C99 C94 1.385 . S
C99 C98 1.369 1_554 S
C100 C92 1.457 . S
C100 C101 1.372 1_554 S
C100 C105 1.364 . S
C101 H80 0.952 . S
C101 C100 1.372 1_556 S
C101 C102 1.389 . S
C102 H81 0.949 . S
C102 C101 1.389 . S
C102 C103 1.387 . S
C103 C102 1.387 . S
C103 C104 1.372 . S
C104 H82 0.950 . S
C104 C103 1.372 . S
C104 C105 1.379 1_556 S
C105 H83 0.948 . S
C105 C100 1.364 . S
C105 C104 1.379 1_554 S
C106 C75 1.383 . S
C106 C93 1.479 . S
C106 C107 1.398 . S
C107 C72 1.382 . S
C107 H84 0.951 . S
C107 C106 1.398 . S
C108 C109 1.384 . S
C108 H121 0.947 1_556 S
C108 C143 1.382 1_556 S
C109 C108 1.384 . S
C109 C110 1.378 . S
C110 C109 1.378 . S
C110 C111 1.378 . S
C110 H122 0.952 . S
C111 C110 1.378 . S
C111 H123 0.950 . S
C111 C142 1.383 1_556 S
H112 C131 0.947 . S
H113 C132 0.946 1_556 S
H114 C134 0.953 . S
H115 C135 0.945 . S
H116 C137 0.952 . S
H117 C138 0.949 . S
H118 C140 0.950 . S
H119 C141 0.948 . S
H120 C143 0.951 . S
H121 C108 0.947 1_554 S
H122 C110 0.952 . S
H123 C111 0.950 . S
N124 C127 1.382 . S
N124 C129 1.363 . S
N125 C127 1.371 . S
N125 C128 1.372 . S
N126 C128 1.361 . S
N126 C129 1.377 . S
C127 N124 1.382 . S
C127 N125 1.371 . S
C127 C130 1.480 . S
C128 N125 1.372 . S
C128 N126 1.361 . S
C128 C136 1.457 . S
C129 N124 1.363 . S
C129 N126 1.377 . S
C129 C142 1.479 . S
C130 C127 1.480 . S
C130 C131 1.383 . S
C130 C135 1.385 . S
C131 H112 0.947 . S
C131 C130 1.383 . S
C131 C132 1.388 . S
C132 H113 0.946 1_554 S
C132 C131 1.388 . S
C132 C133 1.384 . S
C133 C132 1.384 . S
C133 C134 1.377 . S
C134 H114 0.953 . S
C134 C133 1.377 . S
C134 C135 1.369 . S
C135 H115 0.945 . S
C135 C130 1.385 . S
C135 C134 1.369 . S
C136 C128 1.457 . S
C136 C137 1.372 . S
C136 C141 1.364 . S
C137 H116 0.952 . S
C137 C136 1.372 . S
C137 C138 1.389 . S
C138 H117 0.949 . S
C138 C137 1.389 . S
C138 C139 1.387 . S
C139 C138 1.387 . S
C139 C140 1.372 . S
C140 H118 0.950 . S
C140 C139 1.372 . S
C140 C141 1.379 . S
C141 H119 0.948 . S
C141 C136 1.364 . S
C141 C140 1.379 . S
C142 C111 1.383 1_554 S
C142 C129 1.479 . S
C142 C143 1.398 . S
C143 C108 1.382 1_554 S
C143 H120 0.951 . S
C143 C142 1.398 . S
C144 C145 1.384 . S
C144 H157 0.947 . S
C144 C179 1.382 . S
C145 C144 1.384 . S
C145 C146 1.378 . S
C146 C145 1.378 . S
C146 C147 1.378 . S
C146 H158 0.952 . S
C147 C146 1.378 . S
C147 H159 0.950 . S
C147 C178 1.383 . S
H148 C167 0.947 . S
H149 C168 0.946 . S
H150 C170 0.953 . S
H151 C171 0.945 . S
H152 C173 0.952 . S
H153 C174 0.949 . S
H154 C176 0.950 . S
H155 C177 0.948 . S
H156 C179 0.951 . S
H157 C144 0.947 . S
H158 C146 0.952 . S
H159 C147 0.950 . S
N160 C163 1.382 . S
N160 C165 1.363 . S
N161 C163 1.371 . S
N161 C164 1.372 . S
N162 C164 1.361 . S
N162 C165 1.377 . S
C163 N160 1.382 . S
C163 N161 1.371 . S
C163 C166 1.480 . S
C164 N161 1.372 . S
C164 N162 1.361 . S
C164 C172 1.457 . S
C165 N160 1.363 . S
C165 N162 1.377 . S
C165 C178 1.479 . S
C166 C163 1.480 . S
C166 C167 1.383 . S
C166 C171 1.385 . S
C167 H148 0.947 . S
C167 C166 1.383 . S
C167 C168 1.388 . S
C168 H149 0.946 . S
C168 C167 1.388 . S
C168 C169 1.384 . S
C169 C168 1.384 . S
C169 C170 1.377 . S
C170 H150 0.953 . S
C170 C169 1.377 . S
C170 C171 1.369 . S
C171 H151 0.945 . S
C171 C166 1.385 . S
C171 C170 1.369 . S
C172 C164 1.457 . S
C172 C173 1.372 . S
C172 C177 1.364 . S
C173 H152 0.952 . S
C173 C172 1.372 . S
C173 C174 1.389 . S
C174 H153 0.949 . S
C174 C173 1.389 . S
C174 C175 1.387 . S
C175 C174 1.387 . S
C175 C176 1.372 . S
C176 H154 0.950 . S
C176 C175 1.372 . S
C176 C177 1.379 . S
C177 H155 0.948 . S
C177 C172 1.364 . S
C177 C176 1.379 . S
C178 C147 1.383 . S
C178 C165 1.479 . S
C178 C179 1.398 . S
C179 C144 1.382 . S
C179 H156 0.951 . S
C179 C178 1.398 . S
C180 C181 1.384 1_655 S
C180 H193 0.947 . S
C180 C215 1.382 1_655 S
C181 C180 1.384 1_455 S
C181 C182 1.378 . S
C182 C181 1.378 . S
C182 C183 1.378 . S
C182 H194 0.952 . S
C183 C182 1.378 . S
C183 H195 0.950 . S
C183 C214 1.383 . S
H184 C203 0.947 . S
H185 C204 0.948 . S
H186 C206 0.953 . S
H187 C207 0.945 . S
H188 C209 0.948 1_655 S
H189 C210 0.954 . S
H190 C212 0.950 . S
H191 C213 0.948 . S
H192 C215 0.950 1_655 S
H193 C180 0.947 . S
H194 C182 0.952 . S
H195 C183 0.950 . S
N196 C199 1.382 . S
N196 C201 1.363 . S
N197 C199 1.371 . S
N197 C200 1.372 . S
N198 C200 1.361 . S
N198 C201 1.377 . S
C199 N196 1.382 . S
C199 N197 1.371 . S
C199 C202 1.480 . S
C200 N197 1.372 . S
C200 N198 1.361 . S
C200 C208 1.457 . S
C201 N196 1.363 . S
C201 N198 1.377 . S
C201 C214 1.479 . S
C202 C199 1.480 . S
C202 C203 1.383 . S
C202 C207 1.385 . S
C203 H184 0.947 . S
C203 C202 1.383 . S
C203 C204 1.387 1_455 S
C204 H185 0.948 . S
C204 C203 1.387 1_655 S
C204 C205 1.382 1_655 S
C205 C204 1.382 1_455 S
C205 C206 1.377 . S
C206 H186 0.953 . S
C206 C205 1.377 . S
C206 C207 1.369 . S
C207 H187 0.945 . S
C207 C202 1.385 . S
C207 C206 1.369 . S
C208 C200 1.457 . S
C208 C209 1.378 . S
C208 C213 1.364 . S
C209 H188 0.948 1_455 S
C209 C208 1.378 . S
C209 C210 1.385 1_455 S
C210 H189 0.954 . S
C210 C209 1.385 1_655 S
C210 C211 1.384 1_655 S
C211 C210 1.384 1_455 S
C211 C212 1.372 . S
C212 H190 0.950 . S
C212 C211 1.372 . S
C212 C213 1.379 . S
C213 H191 0.948 . S
C213 C208 1.364 . S
C213 C212 1.379 . S
C214 C183 1.383 . S
C214 C201 1.479 . S
C214 C215 1.400 . S
C215 C180 1.382 1_455 S
C215 H192 0.950 1_455 S
C215 C214 1.400 . S
C216 C217 1.384 . S
C216 H229 0.947 . S
C216 C251 1.382 . S
C217 C216 1.384 . S
C217 C218 1.378 . S
C218 C217 1.378 . S
C218 C219 1.378 . S
C218 H230 0.952 . S
C219 C218 1.378 . S
C219 H231 0.950 . S
C219 C250 1.383 . S
H220 C239 0.947 . S
H221 C240 0.946 . S
H222 C242 0.953 . S
H223 C243 0.945 . S
H224 C245 0.952 . S
H225 C246 0.949 . S
H226 C248 0.950 . S
H227 C249 0.948 . S
H228 C251 0.951 . S
H229 C216 0.947 . S
H230 C218 0.952 . S
H231 C219 0.950 . S
N232 C235 1.382 . S
N232 C237 1.363 . S
N233 C235 1.371 . S
N233 C236 1.372 . S
N234 C236 1.361 . S
N234 C237 1.377 . S
C235 N232 1.382 . S
C235 N233 1.371 . S
C235 C238 1.480 . S
C236 N233 1.372 . S
C236 N234 1.361 . S
C236 C244 1.457 . S
C237 N232 1.363 . S
C237 N234 1.377 . S
C237 C250 1.479 . S
C238 C235 1.480 . S
C238 C239 1.383 . S
C238 C243 1.385 . S
C239 H220 0.947 . S
C239 C238 1.383 . S
C239 C240 1.388 . S
C240 H221 0.946 . S
C240 C239 1.388 . S
C240 C241 1.384 . S
C241 C240 1.384 . S
C241 C242 1.377 . S
C242 H222 0.953 . S
C242 C241 1.377 . S
C242 C243 1.369 . S
C243 H223 0.945 . S
C243 C238 1.385 . S
C243 C242 1.369 . S
C244 C236 1.457 . S
C244 C245 1.372 . S
C244 C249 1.364 . S
C245 H224 0.952 . S
C245 C244 1.372 . S
C245 C246 1.389 . S
C246 H225 0.949 . S
C246 C245 1.389 . S
C246 C247 1.387 . S
C247 C246 1.387 . S
C247 C248 1.372 . S
C248 H226 0.950 . S
C248 C247 1.372 . S
C248 C249 1.379 . S
C249 H227 0.948 . S
C249 C244 1.364 . S
C249 C248 1.379 . S
C250 C219 1.383 . S
C250 C237 1.479 . S
C250 C251 1.398 . S
C251 C216 1.382 . S
C251 H228 0.951 . S
C251 C250 1.398 . S
C252 C253 1.384 . S
C252 H265 0.947 . S
C252 C287 1.382 . S
C253 C252 1.384 . S
C253 C254 1.378 . S
C254 C253 1.378 . S
C254 C255 1.378 . S
C254 H266 0.952 . S
C255 C254 1.378 . S
C255 H267 0.950 . S
C255 C286 1.383 . S
H256 C275 0.947 . S
H257 C276 0.946 . S
H258 C278 0.953 . S
H259 C279 0.945 . S
H260 C281 0.952 . S
H261 C282 0.949 . S
H262 C284 0.950 . S
H263 C285 0.948 . S
H264 C287 0.951 . S
H265 C252 0.947 . S
H266 C254 0.952 . S
H267 C255 0.950 . S
N268 C271 1.382 . S
N268 C273 1.363 . S
N269 C271 1.371 . S
N269 C272 1.372 . S
N270 C272 1.361 . S
N270 C273 1.377 . S
C271 N268 1.382 . S
C271 N269 1.371 . S
C271 C274 1.480 . S
C272 N269 1.372 . S
C272 N270 1.361 . S
C272 C280 1.457 . S
C273 N268 1.363 . S
C273 N270 1.377 . S
C273 C286 1.479 . S
C274 C271 1.480 . S
C274 C275 1.383 . S
C274 C279 1.385 . S
C275 H256 0.947 . S
C275 C274 1.383 . S
C275 C276 1.388 . S
C276 H257 0.946 . S
C276 C275 1.388 . S
C276 C277 1.384 . S
C277 C276 1.384 . S
C277 C278 1.377 . S
C278 H258 0.953 . S
C278 C277 1.377 . S
C278 C279 1.369 . S
C279 H259 0.945 . S
C279 C274 1.385 . S
C279 C278 1.369 . S
C280 C272 1.457 . S
C280 C281 1.372 . S
C280 C285 1.364 . S
C281 H260 0.952 . S
C281 C280 1.372 . S
C281 C282 1.389 . S
C282 H261 0.949 . S
C282 C281 1.389 . S
C282 C283 1.387 . S
C283 C282 1.387 . S
C283 C284 1.372 . S
C284 H262 0.950 . S
C284 C283 1.372 . S
C284 C285 1.379 . S
C285 H263 0.948 . S
C285 C280 1.364 . S
C285 C284 1.379 . S
C286 C255 1.383 . S
C286 C273 1.479 . S
C286 C287 1.398 . S
C287 C252 1.382 . S
C287 H264 0.951 . S
C287 C286 1.398 . S
O288 Mg289 1.990 . S
O288 C302 1.253 . S
Mg289 O288 1.990 . S
Mg289 O292 2.180 1_565 S
Mg289 O293 2.117 . S
Mg289 O307 2.030 . S
O290 Mg291 2.072 1_465 S
O290 C302 1.260 . S
Mg291 O290 2.072 1_645 S
Mg291 O292 2.099 1_655 S
Mg291 O294 2.079 . S
Mg291 O295 2.072 1_655 S
Mg291 O297 2.099 . S
Mg291 O308 2.079 1_545 S
O292 Mg289 2.180 1_545 S
O292 Mg291 2.099 1_455 S
O292 C303 1.279 . S
O293 Mg289 2.117 . S
O293 C303 1.250 1_565 S
O294 Mg291 2.079 . S
O294 C304 1.264 . S
O295 Mg291 2.072 1_455 S
O295 C305 1.260 . S
Mg296 O297 2.180 . S
Mg296 O298 2.030 . S
Mg296 O299 1.990 . S
Mg296 O300 2.117 . S
O297 Mg291 2.099 . S
O297 Mg296 2.180 . S
O297 C306 1.279 . S
O298 Mg296 2.030 . S
O298 C304 1.248 . S
O299 Mg296 1.990 . S
O299 C305 1.253 1_655 S
O300 Mg296 2.117 . S
O300 C306 1.250 . S
C301 O307 1.248 1_655 S
C301 O308 1.264 . S
C302 O288 1.253 . S
C302 O290 1.260 . S
C303 O292 1.279 . S
C303 O293 1.250 1_545 S
C304 O294 1.264 . S
C304 O298 1.248 . S
C305 O295 1.260 . S
C305 O299 1.253 1_455 S
C306 O297 1.279 . S
C306 O300 1.250 . S
O307 Mg289 2.030 . S
O307 C301 1.248 1_455 S
O308 Mg291 2.079 1_565 S
O308 C301 1.264 . S
O309 Mg310 1.990 1_545 S
O309 C323 1.253 . S
Mg310 O309 1.990 1_565 S
Mg310 O313 2.180 . S
Mg310 O314 2.117 . S
Mg310 O328 2.030 1_565 S
O311 Mg312 2.072 . S
O311 C323 1.260 . S
Mg312 O311 2.072 . S
Mg312 O313 2.099 1_545 S
Mg312 O315 2.079 1_545 S
Mg312 O316 2.072 1_545 S
Mg312 O318 2.099 . S
Mg312 O329 2.079 . S
O313 Mg310 2.180 . S
O313 Mg312 2.099 1_565 S
O313 C324 1.279 . S
O314 Mg310 2.117 . S
O314 C324 1.250 . S
O315 Mg312 2.079 1_565 S
O315 C325 1.264 . S
O316 Mg312 2.072 1_565 S
O316 C326 1.260 1_565 S
Mg317 O318 2.180 . S
Mg317 O319 2.039 . S
Mg317 O320 1.990 . S
Mg317 O321 2.117 . S
O318 Mg312 2.099 . S
O318 Mg317 2.180 . S
O318 C327 1.279 . S
O319 Mg317 2.039 . S
O319 C325 1.241 1_545 S
O320 Mg317 1.990 . S
O320 C326 1.253 . S
O321 Mg317 2.117 . S
O321 C327 1.250 . S
C322 O328 1.248 . S
C322 O329 1.264 . S
C323 O309 1.253 . S
C323 O311 1.260 . S
C324 O313 1.279 . S
C324 O314 1.250 . S
C325 O315 1.264 . S
C325 O319 1.241 1_565 S
C326 O316 1.260 1_545 S
C326 O320 1.253 . S
C327 O318 1.279 . S
C327 O321 1.250 . S
O328 Mg310 2.030 1_545 S
O328 C322 1.248 . S
O329 Mg312 2.079 . S
O329 C322 1.264 . S
O330 Mg331 1.990 . S
O330 C344 1.253 . S
Mg331 O330 1.990 . S
Mg331 O334 2.180 . S
Mg331 O335 2.117 . S
Mg331 O349 2.030 . S
O332 Mg333 2.072 . S
O332 C344 1.260 . S
Mg333 O332 2.072 . S
Mg333 O334 2.099 . S
Mg333 O336 2.079 . S
Mg333 O337 2.072 . S
Mg333 O339 2.099 . S
Mg333 O350 2.079 . S
O334 Mg331 2.180 . S
O334 Mg333 2.099 . S
O334 C345 1.279 . S
O335 Mg331 2.117 . S
O335 C345 1.250 . S
O336 Mg333 2.079 . S
O336 C346 1.264 . S
O337 Mg333 2.072 . S
O337 C347 1.260 . S
Mg338 O339 2.180 . S
Mg338 O340 2.030 . S
Mg338 O341 1.990 . S
Mg338 O342 2.117 . S
O339 Mg333 2.099 . S
O339 Mg338 2.180 . S
O339 C348 1.279 . S
O340 Mg338 2.030 . S
O340 C346 1.248 . S
O341 Mg338 1.990 . S
O341 C347 1.253 . S
O342 Mg338 2.117 . S
O342 C348 1.250 . S
C343 O349 1.248 . S
C343 O350 1.264 . S
C344 O330 1.253 . S
C344 O332 1.260 . S
C345 O334 1.279 . S
C345 O335 1.250 . S
C346 O336 1.264 . S
C346 O340 1.248 . S
C347 O337 1.260 . S
C347 O341 1.253 . S
C348 O339 1.279 . S
C348 O342 1.250 . S
O349 Mg331 2.030 . S
O349 C343 1.248 . S
O350 Mg333 2.079 . S
O350 C343 1.264 . S
O351 Mg352 1.990 . S
O351 C365 1.253 . S
Mg352 O351 1.990 . S
Mg352 O355 2.180 . S
Mg352 O356 2.117 . S
Mg352 O370 2.030 . S
O353 Mg354 2.072 1_655 S
O353 C365 1.260 . S
Mg354 O353 2.072 1_455 S
Mg354 O355 2.099 1_455 S
Mg354 O357 2.079 . S
Mg354 O358 2.072 . S
Mg354 O360 2.099 . S
Mg354 O371 2.079 1_455 S
O355 Mg352 2.180 . S
O355 Mg354 2.099 1_655 S
O355 C366 1.279 . S
O356 Mg352 2.117 . S
O356 C366 1.250 . S
O357 Mg354 2.079 . S
O357 C367 1.264 . S
O358 Mg354 2.072 . S
O358 C368 1.260 . S
Mg359 O360 2.180 . S
Mg359 O361 2.030 . S
Mg359 O362 1.990 . S
Mg359 O363 2.117 . S
O360 Mg354 2.099 . S
O360 Mg359 2.180 . S
O360 C369 1.279 . S
O361 Mg359 2.030 . S
O361 C367 1.248 . S
O362 Mg359 1.990 . S
O362 C368 1.253 . S
O363 Mg359 2.117 . S
O363 C369 1.250 . S
C364 O370 1.248 . S
C364 O371 1.264 . S
C365 O351 1.253 . S
C365 O353 1.260 . S
C366 O355 1.279 . S
C366 O356 1.250 . S
C367 O357 1.264 . S
C367 O361 1.248 . S
C368 O358 1.260 . S
C368 O362 1.253 . S
C369 O360 1.279 . S
C369 O363 1.250 . S
O370 Mg352 2.030 . S
O370 C364 1.248 . S
O371 Mg354 2.079 1_655 S
O371 C364 1.264 . S
H372 C378 0.930 . S
H373 C382 0.930 . S
H374 C387 0.929 . S
H375 C385 0.929 . S
H376 C380 0.929 . S
H377 C386 0.929 . S
C378 H372 0.930 . S
C378 C379 1.367 . S
C378 C386 1.378 . S
C379 C378 1.367 . S
C379 C387 1.433 . S
C380 H376 0.929 . S
C380 C382 1.378 . S
C380 C384 1.350 . S
C381 C384 1.463 . S
C381 C386 1.350 . S
C381 N389 1.427 . S
C382 H373 0.930 . S
C382 C380 1.378 . S
C382 C383 1.367 . S
C383 C382 1.367 . S
C383 C385 1.433 . S
C384 C380 1.350 . S
C384 C381 1.463 . S
C384 N388 1.427 . S
C385 H375 0.929 . S
C385 C383 1.433 . S
C385 N388 1.384 . S
C386 H377 0.929 . S
C386 C378 1.378 . S
C386 C381 1.350 . S
C387 H374 0.929 . S
C387 C379 1.433 . S
C387 N389 1.384 . S
N388 C384 1.427 . S
N388 C385 1.384 . S
N389 C381 1.427 . S
N389 C387 1.384 . S
H390 C396 0.930 . S
H391 C400 0.930 . S
H392 C405 0.929 . S
H393 C403 0.929 . S
H394 C398 0.929 . S
H395 C404 0.929 . S
C396 H390 0.930 . S
C396 C397 1.367 . S
C396 C404 1.378 . S
C397 C396 1.367 . S
C397 C405 1.433 . S
C398 H394 0.929 . S
C398 C400 1.378 . S
C398 C402 1.350 . S
C399 C402 1.463 . S
C399 C404 1.350 . S
C399 N407 1.427 . S
C400 H391 0.930 . S
C400 C398 1.378 . S
C400 C401 1.367 . S
C401 C400 1.367 . S
C401 C403 1.433 . S
C402 C398 1.350 . S
C402 C399 1.463 . S
C402 N406 1.427 . S
C403 H393 0.929 . S
C403 C401 1.433 . S
C403 N406 1.384 . S
C404 H395 0.929 . S
C404 C396 1.378 . S
C404 C399 1.350 . S
C405 H392 0.929 . S
C405 C397 1.433 . S
C405 N407 1.384 . S
N406 C402 1.427 . S
N406 C403 1.384 . S
N407 C399 1.427 . S
N407 C405 1.384 . S
H408 C414 0.930 . S
H409 C418 0.930 . S
H410 C423 0.929 . S
H411 C421 0.929 . S
H412 C416 0.929 . S
H413 C422 0.929 . S
C414 H408 0.930 . S
C414 C415 1.367 . S
C414 C422 1.378 . S
C415 C414 1.367 . S
C415 C423 1.433 . S
C416 H412 0.929 . S
C416 C418 1.378 . S
C416 C420 1.350 . S
C417 C420 1.463 . S
C417 C422 1.350 . S
C417 N425 1.427 . S
C418 H409 0.930 . S
C418 C416 1.378 . S
C418 C419 1.367 . S
C419 C418 1.367 . S
C419 C421 1.433 . S
C420 C416 1.350 . S
C420 C417 1.463 . S
C420 N424 1.427 . S
C421 H411 0.929 . S
C421 C419 1.433 . S
C421 N424 1.384 . S
C422 H413 0.929 . S
C422 C414 1.378 . S
C422 C417 1.350 . S
C423 H410 0.929 . S
C423 C415 1.433 . S
C423 N425 1.384 . S
N424 C420 1.427 . S
N424 C421 1.384 . S
N425 C417 1.427 . S
N425 C423 1.384 . S
H426 C432 0.930 . S
H427 C436 0.930 . S
H428 C441 0.929 . S
H429 C439 0.929 . S
H430 C434 0.929 . S
H431 C440 0.929 . S
C432 H426 0.930 . S
C432 C433 1.359 1_455 S
C432 C440 1.378 . S
C433 C432 1.359 1_655 S
C433 C441 1.442 . S
C434 H430 0.929 . S
C434 C436 1.378 . S
C434 C438 1.350 . S
C435 C438 1.463 . S
C435 C440 1.350 1_655 S
C435 N443 1.427 . S
C436 H427 0.930 . S
C436 C434 1.378 . S
C436 C437 1.367 . S
C437 C436 1.367 . S
C437 C439 1.433 1_655 S
C438 C434 1.350 . S
C438 C435 1.463 . S
C438 N442 1.427 1_655 S
C439 H429 0.929 . S
C439 C437 1.433 1_455 S
C439 N442 1.384 . S
C440 H431 0.929 . S
C440 C432 1.378 . S
C440 C435 1.350 1_455 S
C441 H428 0.929 . S
C441 C433 1.442 . S
C441 N443 1.384 . S
N442 C438 1.427 1_455 S
N442 C439 1.384 . S
N443 C435 1.427 . S
N443 C441 1.384 . S
H444 C450 0.930 . S
H445 C454 0.930 . S
H446 C459 0.929 . S
H447 C457 0.929 . S
H448 C452 0.929 . S
H449 C458 0.929 1_554 S
C450 H444 0.930 . S
C450 C451 1.367 . S
C450 C458 1.378 1_554 S
C451 C450 1.367 . S
C451 C459 1.433 1_554 S
C452 H448 0.929 . S
C452 C454 1.378 . S
C452 C456 1.350 . S
C453 C456 1.463 . S
C453 C458 1.350 . S
C453 N461 1.427 . S
C454 H445 0.930 . S
C454 C452 1.378 . S
C454 C455 1.367 . S
C455 C454 1.367 . S
C455 C457 1.433 . S
C456 C452 1.350 . S
C456 C453 1.463 . S
C456 N460 1.427 . S
C457 H447 0.929 . S
C457 C455 1.433 . S
C457 N460 1.384 . S
C458 H449 0.929 1_556 S
C458 C450 1.378 1_556 S
C458 C453 1.350 . S
C459 H446 0.929 . S
C459 C451 1.433 1_556 S
C459 N461 1.384 . S
N460 C456 1.427 . S
N460 C457 1.384 . S
N461 C453 1.427 . S
N461 C459 1.384 . S
H462 C468 0.930 . S
H463 C472 0.930 . S
H464 C477 0.929 . S
H465 C475 0.929 . S
H466 C470 0.929 . S
H467 C476 0.929 . S
C468 H462 0.930 . S
C468 C469 1.367 1_556 S
C468 C476 1.378 . S
C469 C468 1.367 1_554 S
C469 C477 1.433 . S
C470 H466 0.929 . S
C470 C472 1.378 . S
C470 C474 1.350 . S
C471 C474 1.463 . S
C471 C476 1.350 . S
C471 N479 1.427 . S
C472 H463 0.930 . S
C472 C470 1.378 . S
C472 C473 1.367 . S
C473 C472 1.367 . S
C473 C475 1.433 . S
C474 C470 1.350 . S
C474 C471 1.463 . S
C474 N478 1.427 . S
C475 H465 0.929 . S
C475 C473 1.433 . S
C475 N478 1.384 . S
C476 H467 0.929 . S
C476 C468 1.378 . S
C476 C471 1.350 . S
C477 H464 0.929 . S
C477 C469 1.433 . S
C477 N479 1.384 1_554 S
N478 C474 1.427 . S
N478 C475 1.384 . S
N479 C471 1.427 . S
N479 C477 1.384 1_556 S
H480 C486 0.930 . S
H481 C490 0.930 . S
H482 C495 0.929 . S
H483 C493 0.929 . S
H484 C488 0.929 . S
H485 C494 0.929 . S
C486 H480 0.930 . S
C486 C487 1.367 . S
C486 C494 1.378 . S
C487 C486 1.367 . S
C487 C495 1.433 1_556 S
C488 H484 0.929 . S
C488 C490 1.378 . S
C488 C492 1.350 . S
C489 C492 1.463 . S
C489 C494 1.350 . S
C489 N497 1.427 . S
C490 H481 0.930 . S
C490 C488 1.378 . S
C490 C491 1.367 . S
C491 C490 1.367 . S
C491 C493 1.433 . S
C492 C488 1.350 . S
C492 C489 1.463 . S
C492 N496 1.427 . S
C493 H483 0.929 . S
C493 C491 1.433 . S
C493 N496 1.384 . S
C494 H485 0.929 . S
C494 C486 1.378 . S
C494 C489 1.350 . S
C495 H482 0.929 . S
C495 C487 1.433 1_554 S
C495 N497 1.384 1_554 S
N496 C492 1.427 . S
N496 C493 1.384 . S
N497 C489 1.427 . S
N497 C495 1.384 1_556 S
H498 C504 0.930 . S
H499 C508 0.930 . S
H500 C513 0.929 . S
H501 C511 0.929 . S
H502 C506 0.929 . S
H503 C512 0.929 . S
C504 H498 0.930 . S
C504 C505 1.366 1_655 S
C504 C512 1.378 1_554 S
C505 C504 1.366 1_455 S
C505 C513 1.434 1_554 S
C506 H502 0.929 . S
C506 C508 1.378 . S
C506 C510 1.350 . S
C507 C510 1.463 . S
C507 C512 1.350 1_455 S
C507 N515 1.427 . S
C508 H499 0.930 . S
C508 C506 1.378 . S
C508 C509 1.367 . S
C509 C508 1.367 . S
C509 C511 1.433 1_455 S
C510 C506 1.350 . S
C510 C507 1.463 . S
C510 N514 1.427 1_455 S
C511 H501 0.929 . S
C511 C509 1.433 1_655 S
C511 N514 1.384 . S
C512 H503 0.929 . S
C512 C504 1.378 1_556 S
C512 C507 1.350 1_655 S
C513 H500 0.929 . S
C513 C505 1.434 1_556 S
C513 N515 1.384 . S
N514 C510 1.427 1_655 S
N514 C511 1.384 . S
N515 C507 1.427 . S
N515 C513 1.384 . S
H516 C522 0.930 . S
H517 C526 0.930 . S
H518 C531 0.929 . S
H519 C529 0.929 1_455 S
H520 C524 0.929 . S
H521 C530 0.929 . S
C522 H516 0.930 . S
C522 C523 1.367 . S
C522 C530 1.378 . S
C523 C522 1.367 . S
C523 C531 1.433 1_455 S
C524 H520 0.929 . S
C524 C526 1.378 . S
C524 C528 1.350 . S
C525 C528 1.463 . S
C525 C530 1.350 1_655 S
C525 N533 1.427 . S
C526 H517 0.930 . S
C526 C524 1.378 . S
C526 C527 1.367 . S
C527 C526 1.367 . S
C527 C529 1.433 . S
C528 C524 1.350 . S
C528 C525 1.463 . S
C528 N532 1.427 1_655 S
C529 H519 0.929 1_655 S
C529 C527 1.433 . S
C529 N532 1.384 1_655 S
C530 H521 0.929 . S
C530 C522 1.378 . S
C530 C525 1.350 1_455 S
C531 H518 0.929 . S
C531 C523 1.433 1_655 S
C531 N533 1.384 . S
N532 C528 1.427 1_455 S
N532 C529 1.384 1_455 S
N533 C525 1.427 . S
N533 C531 1.384 . S
H534 C540 0.930 . S
H535 C544 0.930 . S
H536 C549 0.929 . S
H537 C547 0.929 1_565 S
H538 C542 0.929 . S
H539 C548 0.929 . S
C540 H534 0.930 . S
C540 C541 1.367 . S
C540 C548 1.378 . S
C541 C540 1.367 . S
C541 C549 1.433 . S
C542 H538 0.929 . S
C542 C544 1.378 . S
C542 C546 1.350 . S
C543 C546 1.463 . S
C543 C548 1.350 . S
C543 N551 1.427 . S
C544 H535 0.930 . S
C544 C542 1.378 . S
C544 C545 1.367 . S
C545 C544 1.367 . S
C545 C547 1.433 . S
C546 C542 1.350 . S
C546 C543 1.463 . S
C546 N550 1.427 . S
C547 H537 0.929 1_545 S
C547 C545 1.433 . S
C547 N550 1.384 . S
C548 H539 0.929 . S
C548 C540 1.378 . S
C548 C543 1.350 . S
C549 H536 0.929 . S
C549 C541 1.433 . S
C549 N551 1.384 . S
N550 C546 1.427 . S
N550 C547 1.384 . S
N551 C543 1.427 . S
N551 C549 1.384 . S
H552 C558 0.930 . S
H553 C562 0.930 . S
H554 C567 0.929 . S
H555 C565 0.929 . S
H556 C560 0.929 . S
H557 C566 0.929 . S
C558 H552 0.930 . S
C558 C559 1.367 . S
C558 C566 1.378 . S
C559 C558 1.367 . S
C559 C567 1.433 . S
C560 H556 0.929 . S
C560 C562 1.378 . S
C560 C564 1.350 . S
C561 C564 1.463 . S
C561 C566 1.350 . S
C561 N569 1.427 . S
C562 H553 0.930 . S
C562 C560 1.378 . S
C562 C563 1.367 . S
C563 C562 1.367 . S
C563 C565 1.433 . S
C564 C560 1.350 . S
C564 C561 1.463 . S
C564 N568 1.427 . S
C565 H555 0.929 . S
C565 C563 1.433 . S
C565 N568 1.384 . S
C566 H557 0.929 . S
C566 C558 1.378 . S
C566 C561 1.350 . S
C567 H554 0.929 . S
C567 C559 1.433 . S
C567 N569 1.384 . S
N568 C564 1.427 . S
N568 C565 1.384 . S
N569 C561 1.427 . S
N569 C567 1.384 . S
H570 C576 0.930 . S
H571 C580 0.930 . S
H572 C585 0.929 . S
H573 C583 0.929 . S
H574 C578 0.929 . S
H575 C584 0.929 . S
C576 H570 0.930 . S
C576 C577 1.367 . S
C576 C584 1.378 . S
C577 C576 1.367 . S
C577 C585 1.433 . S
C578 H574 0.929 . S
C578 C580 1.378 . S
C578 C582 1.350 . S
C579 C582 1.463 . S
C579 C584 1.350 . S
C579 N587 1.427 . S
C580 H571 0.930 . S
C580 C578 1.378 . S
C580 C581 1.367 . S
C581 C580 1.367 . S
C581 C583 1.433 . S
C582 C578 1.350 . S
C582 C579 1.463 . S
C582 N586 1.427 . S
C583 H573 0.929 . S
C583 C581 1.433 . S
C583 N586 1.384 . S
C584 H575 0.929 . S
C584 C576 1.378 . S
C584 C579 1.350 . S
C585 H572 0.929 . S
C585 C577 1.433 . S
C585 N587 1.384 . S
N586 C582 1.427 . S
N586 C583 1.384 . S
N587 C579 1.427 . S
N587 C585 1.384 . S
H588 C594 0.930 . S
H589 C598 0.938 . S
H590 C603 0.929 . S
H591 C601 0.929 . S
H592 C596 0.929 1_655 S
H593 C602 0.929 . S
C594 H588 0.930 . S
C594 C595 1.353 1_455 S
C594 C602 1.378 . S
C595 C594 1.353 1_655 S
C595 C603 1.443 . S
C596 H592 0.929 1_455 S
C596 C598 1.378 . S
C596 C600 1.350 . S
C597 C600 1.463 . S
C597 C602 1.350 . S
C597 N605 1.427 1_455 S
C598 H589 0.938 . S
C598 C596 1.378 . S
C598 C599 1.367 . S
C599 C598 1.367 . S
C599 C601 1.433 . S
C600 C596 1.350 . S
C600 C597 1.463 . S
C600 N604 1.427 . S
C601 H591 0.929 . S
C601 C599 1.433 . S
C601 N604 1.384 . S
C602 H593 0.929 . S
C602 C594 1.378 . S
C602 C597 1.350 . S
C603 H590 0.929 . S
C603 C595 1.443 . S
C603 N605 1.384 . S
N604 C600 1.427 . S
N604 C601 1.384 . S
N605 C597 1.427 1_655 S
N605 C603 1.384 . S
H606 C612 0.930 . S
H607 C616 0.930 1_545 S
H608 C621 0.929 . S
H609 C619 0.929 . S
H610 C614 0.929 . S
H611 C620 0.929 . S
C612 H606 0.930 . S
C612 C613 1.367 . S
C612 C620 1.378 . S
C613 C612 1.367 . S
C613 C621 1.433 . S
C614 H610 0.929 . S
C614 C616 1.378 . S
C614 C618 1.350 . S
C615 C618 1.463 . S
C615 C620 1.350 . S
C615 N623 1.427 . S
C616 H607 0.930 1_565 S
C616 C614 1.378 . S
C616 C617 1.367 . S
C617 C616 1.367 . S
C617 C619 1.433 . S
C618 C614 1.350 . S
C618 C615 1.463 . S
C618 N622 1.427 . S
C619 H609 0.929 . S
C619 C617 1.433 . S
C619 N622 1.384 . S
C620 H611 0.929 . S
C620 C612 1.378 . S
C620 C615 1.350 . S
C621 H608 0.929 . S
C621 C613 1.433 . S
C621 N623 1.384 . S
N622 C618 1.427 . S
N622 C619 1.384 . S
N623 C615 1.427 . S
N623 C621 1.384 . S
H624 C630 0.930 . S
H625 C634 0.930 . S
H626 C639 0.929 1_554 S
H627 C637 0.929 . S
H628 C632 0.929 . S
H629 C638 0.929 . S
C630 H624 0.930 . S
C630 C631 1.367 . S
C630 C638 1.378 . S
C631 C630 1.367 . S
C631 C639 1.433 . S
C632 H628 0.929 . S
C632 C634 1.378 . S
C632 C636 1.350 . S
C633 C636 1.463 . S
C633 C638 1.350 . S
C633 N641 1.427 . S
C634 H625 0.930 . S
C634 C632 1.378 . S
C634 C635 1.367 . S
C635 C634 1.367 . S
C635 C637 1.433 . S
C636 C632 1.350 . S
C636 C633 1.463 . S
C636 N640 1.427 . S
C637 H627 0.929 . S
C637 C635 1.433 . S
C637 N640 1.384 . S
C638 H629 0.929 . S
C638 C630 1.378 . S
C638 C633 1.350 . S
C639 H626 0.929 1_556 S
C639 C631 1.433 . S
C639 N641 1.384 . S
N640 C636 1.427 . S
N640 C637 1.384 . S
N641 C633 1.427 . S
N641 C639 1.384 . S
H642 C648 0.930 . S
H643 C652 0.930 . S
H644 C657 0.929 . S
H645 C655 0.929 . S
H646 C650 0.929 . S
H647 C656 0.929 . S
C648 H642 0.930 . S
C648 C649 1.367 . S
C648 C656 1.378 . S
C649 C648 1.367 . S
C649 C657 1.433 . S
C650 H646 0.929 . S
C650 C652 1.378 . S
C650 C654 1.350 . S
C651 C654 1.463 . S
C651 C656 1.350 . S
C651 N659 1.427 . S
C652 H643 0.930 . S
C652 C650 1.378 . S
C652 C653 1.367 . S
C653 C652 1.367 . S
C653 C655 1.433 . S
C654 C650 1.350 . S
C654 C651 1.463 . S
C654 N658 1.427 . S
C655 H645 0.929 . S
C655 C653 1.433 . S
C655 N658 1.384 . S
C656 H647 0.929 . S
C656 C648 1.378 . S
C656 C651 1.350 . S
C657 H644 0.929 . S
C657 C649 1.433 . S
C657 N659 1.384 . S
N658 C654 1.427 . S
N658 C655 1.384 . S
N659 C651 1.427 . S
N659 C657 1.384 . S
H660 C666 0.930 . S
H661 C670 0.930 . S
H662 C675 0.935 . S
H663 C673 0.929 . S
H664 C668 0.938 . S
H665 C674 0.929 . S
C666 H660 0.930 . S
C666 C667 1.367 1_556 S
C666 C674 1.378 . S
C667 C666 1.367 1_554 S
C667 C675 1.429 1_455 S
C668 H664 0.938 . S
C668 C670 1.378 . S
C668 C672 1.350 . S
C669 C672 1.463 . S
C669 C674 1.350 . S
C669 N677 1.431 1_556 S
C670 H661 0.930 . S
C670 C668 1.378 . S
C670 C671 1.367 . S
C671 C670 1.367 . S
C671 C673 1.433 . S
C672 C668 1.350 . S
C672 C669 1.463 . S
C672 N676 1.427 . S
C673 H663 0.929 . S
C673 C671 1.433 . S
C673 N676 1.384 . S
C674 H665 0.929 . S
C674 C666 1.378 . S
C674 C669 1.350 . S
C675 H662 0.935 . S
C675 C667 1.429 1_655 S
C675 N677 1.383 1_655 S
N676 C672 1.427 . S
N676 C673 1.384 . S
N677 C669 1.431 1_554 S
N677 C675 1.383 1_455 S
H678 C684 0.930 . S
H679 C688 0.930 . S
H680 C693 0.929 . S
H681 C691 0.929 . S
H682 C686 0.929 . S
H683 C692 0.929 . S
C684 H678 0.930 . S
C684 C685 1.367 1_556 S
C684 C692 1.378 . S
C685 C684 1.367 1_554 S
C685 C693 1.433 . S
C686 H682 0.929 . S
C686 C688 1.378 . S
C686 C690 1.350 . S
C687 C690 1.463 . S
C687 C692 1.350 . S
C687 N695 1.427 1_556 S
C688 H679 0.930 . S
C688 C686 1.378 . S
C688 C689 1.367 . S
C689 C688 1.367 . S
C689 C691 1.433 . S
C690 C686 1.350 . S
C690 C687 1.463 . S
C690 N694 1.427 . S
C691 H681 0.929 . S
C691 C689 1.433 . S
C691 N694 1.384 . S
C692 H683 0.929 . S
C692 C684 1.378 . S
C692 C687 1.350 . S
C693 H680 0.929 . S
C693 C685 1.433 . S
C693 N695 1.384 . S
N694 C690 1.427 . S
N694 C691 1.384 . S
N695 C687 1.427 1_554 S
N695 C693 1.384 . S
H696 C702 0.930 . S
H697 C706 0.930 . S
H698 C711 0.929 . S
H699 C709 0.929 . S
H700 C704 0.929 . S
H701 C710 0.929 . S
C702 H696 0.930 . S
C702 C703 1.367 1_556 S
C702 C710 1.378 . S
C703 C702 1.367 1_554 S
C703 C711 1.433 . S
C704 H700 0.929 . S
C704 C706 1.378 . S
C704 C708 1.350 . S
C705 C708 1.463 . S
C705 C710 1.350 . S
C705 N713 1.427 . S
C706 H697 0.930 . S
C706 C704 1.378 . S
C706 C707 1.367 . S
C707 C706 1.367 . S
C707 C709 1.433 . S
C708 C704 1.350 . S
C708 C705 1.463 . S
C708 N712 1.427 . S
C709 H699 0.929 . S
C709 C707 1.433 . S
C709 N712 1.384 . S
C710 H701 0.929 . S
C710 C702 1.378 . S
C710 C705 1.350 . S
C711 H698 0.929 . S
C711 C703 1.433 . S
C711 N713 1.384 1_554 S
N712 C708 1.427 . S
N712 C709 1.384 . S
N713 C705 1.427 . S
N713 C711 1.384 1_556 S
H714 C720 0.930 . S
H715 C724 0.930 . S
H716 C729 0.929 1_554 S
H717 C727 0.929 . S
H718 C722 0.929 . S
H719 C728 0.929 . S
C720 H714 0.930 . S
C720 C721 1.367 . S
C720 C728 1.378 1_554 S
C721 C720 1.367 . S
C721 C729 1.433 1_554 S
C722 H718 0.929 . S
C722 C724 1.378 . S
C722 C726 1.350 . S
C723 C726 1.463 . S
C723 C728 1.350 . S
C723 N731 1.427 . S
C724 H715 0.930 . S
C724 C722 1.378 . S
C724 C725 1.367 . S
C725 C724 1.367 . S
C725 C727 1.433 . S
C726 C722 1.350 . S
C726 C723 1.463 . S
C726 N730 1.427 . S
C727 H717 0.929 . S
C727 C725 1.433 . S
C727 N730 1.384 . S
C728 H719 0.929 . S
C728 C720 1.378 1_556 S
C728 C723 1.350 . S
C729 H716 0.929 1_556 S
C729 C721 1.433 1_556 S
C729 N731 1.384 . S
N730 C726 1.427 . S
N730 C727 1.384 . S
N731 C723 1.427 . S
N731 C729 1.384 . S
H732 C738 0.930 . S
H733 C742 0.930 . S
H734 C747 0.929 . S
H735 C745 0.929 . S
H736 C740 0.929 . S
H737 C746 0.929 . S
C738 H732 0.930 . S
C738 C739 1.343 1_455 S
C738 C746 1.378 . S
C739 C738 1.343 1_655 S
C739 C747 1.460 . S
C740 H736 0.929 . S
C740 C742 1.378 . S
C740 C744 1.350 . S
C741 C744 1.463 . S
C741 C746 1.350 1_655 S
C741 N749 1.427 . S
C742 H733 0.930 . S
C742 C740 1.378 . S
C742 C743 1.367 . S
C743 C742 1.367 . S
C743 C745 1.433 1_655 S
C744 C740 1.350 . S
C744 C741 1.463 . S
C744 N748 1.427 1_655 S
C745 H735 0.929 . S
C745 C743 1.433 1_455 S
C745 N748 1.384 . S
C746 H737 0.929 . S
C746 C738 1.378 . S
C746 C741 1.350 1_455 S
C747 H734 0.929 . S
C747 C739 1.460 . S
C747 N749 1.384 . S
N748 C744 1.427 1_455 S
N748 C745 1.384 . S
N749 C741 1.427 . S
N749 C747 1.384 . S
H750 C756 0.930 . S
H751 C760 0.930 . S
H752 C765 0.929 . S
H753 C763 0.929 . S
H754 C758 0.929 . S
H755 C764 0.929 . S
C756 H750 0.930 . S
C756 C757 1.367 . S
C756 C764 1.378 . S
C757 C756 1.367 . S
C757 C765 1.433 . S
C758 H754 0.929 . S
C758 C760 1.378 . S
C758 C762 1.350 . S
C759 C762 1.463 . S
C759 C764 1.350 . S
C759 N767 1.427 . S
C760 H751 0.930 . S
C760 C758 1.378 . S
C760 C761 1.367 . S
C761 C760 1.367 . S
C761 C763 1.433 . S
C762 C758 1.350 . S
C762 C759 1.463 . S
C762 N766 1.427 . S
C763 H753 0.929 . S
C763 C761 1.433 . S
C763 N766 1.384 . S
C764 H755 0.929 . S
C764 C756 1.378 . S
C764 C759 1.350 . S
C765 H752 0.929 . S
C765 C757 1.433 . S
C765 N767 1.384 . S
N766 C762 1.427 . S
N766 C763 1.384 . S
N767 C759 1.427 . S
N767 C765 1.384 . S
H768 C774 0.930 . S
H769 C778 0.930 . S
H770 C783 0.929 . S
H771 C781 0.929 . S
H772 C776 0.929 . S
H773 C782 0.929 . S
C774 H768 0.930 . S
C774 C775 1.367 . S
C774 C782 1.378 . S
C775 C774 1.367 . S
C775 C783 1.433 . S
C776 H772 0.929 . S
C776 C778 1.378 . S
C776 C780 1.350 . S
C777 C780 1.463 . S
C777 C782 1.350 . S
C777 N785 1.427 . S
C778 H769 0.930 . S
C778 C776 1.378 . S
C778 C779 1.367 . S
C779 C778 1.367 . S
C779 C781 1.433 . S
C780 C776 1.350 . S
C780 C777 1.463 . S
C780 N784 1.427 . S
C781 H771 0.929 . S
C781 C779 1.433 . S
C781 N784 1.384 . S
C782 H773 0.929 . S
C782 C774 1.378 . S
C782 C777 1.350 . S
C783 H770 0.929 . S
C783 C775 1.433 . S
C783 N785 1.384 . S
N784 C780 1.427 . S
N784 C781 1.384 . S
N785 C777 1.427 . S
N785 C783 1.384 . S
H786 C792 0.930 . S
H787 C796 0.930 . S
H788 C801 0.929 . S
H789 C799 0.929 . S
H790 C794 0.929 . S
H791 C800 0.929 . S
C792 H786 0.930 . S
C792 C793 1.367 . S
C792 C800 1.378 . S
C793 C792 1.367 . S
C793 C801 1.433 . S
C794 H790 0.929 . S
C794 C796 1.378 . S
C794 C798 1.350 . S
C795 C798 1.463 . S
C795 C800 1.350 . S
C795 N803 1.427 . S
C796 H787 0.930 . S
C796 C794 1.378 . S
C796 C797 1.367 . S
C797 C796 1.367 . S
C797 C799 1.433 . S
C798 C794 1.350 . S
C798 C795 1.463 . S
C798 N802 1.427 . S
C799 H789 0.929 . S
C799 C797 1.433 . S
C799 N802 1.384 . S
C800 H791 0.929 . S
C800 C792 1.378 . S
C800 C795 1.350 . S
C801 H788 0.929 . S
C801 C793 1.433 . S
C801 N803 1.384 . S
N802 C798 1.427 . S
N802 C799 1.384 . S
N803 C795 1.427 . S
N803 C801 1.384 . S
C379 C241 1.977 . S
C383 C303 1.912 . S
C401 C327 1.406 . S
C397 C277 1.602 . S
C419 C348 1.884 . S
C415 C169 1.944 . S
C437 C366 1.416 . S
C433 C205 1.574 1_655 S
C455 C306 1.808 1_565 S
C451 C97 1.805 . S
C469 C133 1.473 . S
C473 C324 1.292 . S
C487 C25 1.771 1_556 S
C491 C345 1.767 . S
C505 C61 1.469 . S
C509 C369 1.319 . S
C527 C304 0.480 . S
C523 C211 0.440 . S
C545 C322 0.729 . S
C541 C247 0.723 . S
C563 C343 0.449 . S
C559 C253 0.350 . S
C577 C175 0.723 . S
C581 C367 0.722 . S
C595 C67 0.477 1_655 S
C599 C302 0.458 . S
C617 C326 0.813 1_565 S
C613 C103 0.802 . S
C635 C347 0.472 . S
C631 C109 0.440 . S
C649 C31 0.755 . S
C653 C365 0.782 . S
C667 C181 1.925 . S
C671 C305 1.918 . S
C685 C217 2.157 . S
C689 C323 2.157 . S
C707 C344 1.883 . S
C703 C283 1.868 . S
C725 C368 2.178 . S
C721 C145 2.173 . S
C739 C37 1.798 1_655 S
C743 C301 1.788 . S
C761 C325 2.013 . S
C757 C73 1.983 . S
C779 C346 1.756 . S
C775 C139 1.721 . S
C793 C1 1.989 . S
C797 C364 2.034 . S
