# Generated by pormake.
# Topology zzz, (3,6)-cn, num edge types: 1
# Building blocks:
#     Node 0, Type 0, BuildingBlock: BETDIP_clean_linker_0, # of connection points: 3
#     Node 1, Type 0, BuildingBlock: BETDIP_clean_linker_0, # of connection points: 3
#     Node 2, Type 0, BuildingBlock: BETDIP_clean_linker_0, # of connection points: 3
#     Node 3, Type 0, BuildingBlock: BETDIP_clean_linker_0, # of connection points: 3
#     Node 4, Type 0, BuildingBlock: BETDIP_clean_linker_0, # of connection points: 3
#     Node 5, Type 0, BuildingBlock: BETDIP_clean_linker_0, # of connection points: 3
#     Node 6, Type 0, BuildingBlock: BETDIP_clean_linker_0, # of connection points: 3
#     Node 7, Type 0, BuildingBlock: BETDIP_clean_linker_0, # of connection points: 3
#     Node 8, Type 1, BuildingBlock: VOLQOD_clean_sbu_1, # of connection points: 6
#     Node 9, Type 1, BuildingBlock: VOLQOD_clean_sbu_1, # of connection points: 6
#     Node 10, Type 1, BuildingBlock: VOLQOD_clean_sbu_1, # of connection points: 6
#     Node 11, Type 1, BuildingBlock: VOLQOD_clean_sbu_1, # of connection points: 6
#     Edge 12, Type (0, 1), BuildingBlock: KIFKEQ_clean_linker_1, # of connection points: 2
#     Edge 13, Type (0, 1), BuildingBlock: KIFKEQ_clean_linker_1, # of connection points: 2
#     Edge 14, Type (0, 1), BuildingBlock: KIFKEQ_clean_linker_1, # of connection points: 2
#     Edge 15, Type (0, 1), BuildingBlock: KIFKEQ_clean_linker_1, # of connection points: 2
#     Edge 16, Type (0, 1), BuildingBlock: KIFKEQ_clean_linker_1, # of connection points: 2
#     Edge 17, Type (0, 1), BuildingBlock: KIFKEQ_clean_linker_1, # of connection points: 2
#     Edge 18, Type (0, 1), BuildingBlock: KIFKEQ_clean_linker_1, # of connection points: 2
#     Edge 19, Type (0, 1), BuildingBlock: KIFKEQ_clean_linker_1, # of connection points: 2
#     Edge 20, Type (0, 1), BuildingBlock: KIFKEQ_clean_linker_1, # of connection points: 2
#     Edge 21, Type (0, 1), BuildingBlock: KIFKEQ_clean_linker_1, # of connection points: 2
#     Edge 22, Type (0, 1), BuildingBlock: KIFKEQ_clean_linker_1, # of connection points: 2
#     Edge 23, Type (0, 1), BuildingBlock: KIFKEQ_clean_linker_1, # of connection points: 2
#     Edge 24, Type (0, 1), BuildingBlock: KIFKEQ_clean_linker_1, # of connection points: 2
#     Edge 25, Type (0, 1), BuildingBlock: KIFKEQ_clean_linker_1, # of connection points: 2
#     Edge 26, Type (0, 1), BuildingBlock: KIFKEQ_clean_linker_1, # of connection points: 2
#     Edge 27, Type (0, 1), BuildingBlock: KIFKEQ_clean_linker_1, # of connection points: 2
#     Edge 28, Type (0, 1), BuildingBlock: KIFKEQ_clean_linker_1, # of connection points: 2
#     Edge 29, Type (0, 1), BuildingBlock: KIFKEQ_clean_linker_1, # of connection points: 2
#     Edge 30, Type (0, 1), BuildingBlock: KIFKEQ_clean_linker_1, # of connection points: 2
#     Edge 31, Type (0, 1), BuildingBlock: KIFKEQ_clean_linker_1, # of connection points: 2
#     Edge 32, Type (0, 1), BuildingBlock: KIFKEQ_clean_linker_1, # of connection points: 2
#     Edge 33, Type (0, 1), BuildingBlock: KIFKEQ_clean_linker_1, # of connection points: 2
#     Edge 34, Type (0, 1), BuildingBlock: KIFKEQ_clean_linker_1, # of connection points: 2
#     Edge 35, Type (0, 1), BuildingBlock: KIFKEQ_clean_linker_1, # of connection points: 2
# Relax obj value: 0.198
# Max RMSD: 0.237
# Mean RMSD: 0.111
data_MOF--net-zzz--node1-VOLQOD_clean_sbu_1--node2-BETDIP_clean_linker_0--edge1-KIFKEQ_clean_linker_1
_symmetry_space_group_name_H-M    P1
_symmetry_Int_Tables_number       1
_symmetry_cell_setting            triclinic
loop_
_symmetry_equiv_pos_as_xyz
'x, y, z'
_cell_length_a     52.154998
_cell_length_b     51.961903
_cell_length_c     17.599948
_cell_angle_alpha  90.229244
_cell_angle_beta   89.881934
_cell_angle_gamma 90.862474
loop_
_atom_site_label
_atom_site_type_symbol
_atom_site_fract_x
_atom_site_fract_y
_atom_site_fract_z
_atom_type_partial_charge
H0 H 0.76657 0.52722 0.24794 0.0
H1 H 0.78147 0.48645 0.03878 0.0
H2 H 0.8403 0.49411 0.20824 0.0
H3 H 0.75615 0.52381 -0.00094 0.0
C4 C 0.74046 0.51869 0.03717 0.0
C5 C 0.77934 0.51627 0.212 0.0
C6 C 0.80435 0.51115 0.23637 0.0
C7 C 0.7711 0.50775 0.13994 0.0
C8 C 0.7879 0.49351 0.0936 0.0
C9 C 0.81282 0.48807 0.11834 0.0
C10 C 0.82077 0.49716 0.18954 0.0
N11 N 0.74594 0.51347 0.1147 0.0
H12 H 0.99353 0.75692 0.2671 0.0
H13 H 0.03739 0.77306 0.0646 0.0
H14 H 0.02773 0.83169 0.23499 0.0
H15 H 0.99754 0.74922 0.02184 0.0
C16 C 1.00237 0.73282 0.05701 0.0
C17 C 0.00548 0.7699 0.23389 0.0
C18 C 0.01037 0.79506 0.25978 0.0
C19 C 0.01497 0.762 0.16287 0.0
C20 C 0.02991 0.77925 0.11903 0.0
C21 C 0.03501 0.80443 0.1449 0.0
C22 C 0.02518 0.81197 0.2156 0.0
N23 N 0.00864 0.73704 0.13469 0.0
H24 H 0.74843 0.99011 0.22861 0.0
H25 H 0.73455 0.04071 0.03956 0.0
H26 H 0.67507 0.02519 0.20237 0.0
H27 H 0.7616 0.014 0.98178 0.0
C28 C 0.7764 0.01106 0.02406 0.0
C29 C 0.736 0.00296 0.19798 0.0
C30 C 0.711 0.00724 0.22427 0.0
C31 C 0.74458 0.01452 0.13023 0.0
C32 C 0.72806 0.03104 0.09055 0.0
C33 C 0.70288 0.03503 0.11598 0.0
C34 C 0.69473 0.02317 0.18329 0.0
N35 N 0.76954 0.00888 0.10215 0.0
H36 H 0.50465 0.74898 0.27557 0.0
H37 H 0.47586 0.73951 0.04778 0.0
H38 H 0.47305 0.67607 0.2035 0.0
H39 H 0.52959 0.76617 0.0723 0.0
C40 C 0.51497 0.77991 0.08796 0.0
C41 C 0.49529 0.73714 0.23271 0.0
C42 C 0.48888 0.71138 0.24827 0.0
C43 C 0.49032 0.74733 0.16051 0.0
C44 C 0.47917 0.73168 0.10383 0.0
C45 C 0.47225 0.70604 0.1197 0.0
C46 C 0.477 0.69626 0.19215 0.0
N47 N 0.49667 0.77332 0.1446 0.0
H48 H 0.24895 0.49262 0.11215 0.0
H49 H 0.22446 0.53802 0.30301 0.0
H50 H 0.17765 0.5325 0.10316 0.0
H51 H 0.2659 0.54537 0.32108 0.0
C52 C 0.2752 0.52764 0.30472 0.0
C53 C 0.23549 0.50583 0.13756 0.0
C54 C 0.21244 0.51125 0.10027 0.0
C55 C 0.24099 0.51731 0.20837 0.0
C56 C 0.22189 0.53198 0.24469 0.0
C57 C 0.19857 0.53711 0.20801 0.0
C58 C 0.19515 0.52823 0.13348 0.0
N59 N 0.26498 0.51243 0.24402 0.0
H60 H 0.05175 0.24592 0.08171 0.0
H61 H 0.01972 0.22676 0.30133 0.0
H62 H 0.04629 0.16712 0.15345 0.0
H63 H 0.99524 0.26233 0.26795 0.0
C64 C 0.01124 0.27523 0.25492 0.0
C65 C 0.04682 0.23181 0.1247 0.0
C66 C 0.05105 0.20555 0.11097 0.0
C67 C 0.0354 0.23971 0.19336 0.0
C68 C 0.02823 0.22104 0.24782 0.0
C69 C 0.0324 0.19487 0.23395 0.0
C70 C 0.04402 0.18744 0.16592 0.0
N71 N 0.03132 0.26635 0.20714 0.0
H72 H 0.26345 0.02133 0.07697 0.0
H73 H 0.28481 0.9886 0.2928 0.0
H74 H 0.34282 0.01382 0.13615 0.0
H75 H 0.24742 0.96528 0.26836 0.0
C76 C 0.23532 0.98161 0.25617 0.0
C77 C 0.278 0.0157 0.11723 0.0
C78 C 0.3041 0.01939 0.0997 0.0
C79 C 0.27078 0.00418 0.18661 0.0
C80 C 0.28997 0.99671 0.2382 0.0
C81 C 0.31595 1.0004 0.22058 0.0
C82 C 0.32272 0.01168 0.15135 0.0
N83 N 0.24431 1.00084 0.2048 0.0
H84 H 0.48239 0.2555 0.06684 0.0
H85 H 0.51277 0.27254 0.2901 0.0
H86 H 0.48508 0.3333 0.15019 0.0
H87 H 0.53838 0.23761 0.25204 0.0
C88 C 0.52216 0.22494 0.23919 0.0
C89 C 0.48676 0.26914 0.11186 0.0
C90 C 0.48181 0.29543 0.10177 0.0
C91 C 0.49805 0.26064 0.17979 0.0
C92 C 0.50439 0.27872 0.23709 0.0
C93 C 0.49942 0.30487 0.2269 0.0
C94 C 0.48799 0.31291 0.15957 0.0
N95 N 0.50248 0.23395 0.19062 0.0
O96 O 0.07703 1.00001 0.64703 0.0
Zn97 Zn 0.05097 0.00306 0.7322 0.0
O98 O 0.01573 0.99888 0.69209 0.0
Zn99 Zn 0.99618 0.02976 0.71202 0.0
Zn100 Zn 0.01674 0.99293 0.58214 0.0
Zn101 Zn 0.99798 0.97009 0.74149 0.0
O102 O 0.96432 0.02279 0.7737 0.0
O103 O 0.96524 0.98074 0.79464 0.0
O104 O 0.05625 0.03851 0.78135 0.0
O105 O 0.01813 0.05616 0.76383 0.0
O106 O 0.98612 0.04717 0.61632 0.0
O107 O 1.00063 0.02196 0.52461 0.0
O108 O 1.00029 0.95878 0.55422 0.0
O109 O 0.05876 0.97474 0.80767 0.0
O110 O 0.98956 0.94189 0.66584 0.0
O111 O 0.02111 0.95415 0.81762 0.0
C112 C 0.07507 0.99561 0.57594 0.0
C113 C 0.95446 0.00245 0.80233 0.0
C114 C 0.98956 0.04241 0.54624 0.0
C115 C 0.04118 0.05755 0.78702 0.0
C116 C 0.99118 0.94026 0.59376 0.0
C117 C 0.04448 0.9572 0.8365 0.0
O118 O 0.05326 0.99225 0.54475 0.0
O119 O 0.50533 0.06627 0.62894 0.0
Zn120 Zn 0.50391 0.04052 0.71511 0.0
O121 O 0.50992 0.00541 0.67531 0.0
Zn122 Zn 0.48093 0.98311 0.70189 0.0
Zn123 Zn 0.51393 0.00605 0.56484 0.0
Zn124 Zn 0.54078 0.99084 0.71897 0.0
O125 O 0.49078 0.95449 0.77263 0.0
O126 O 0.5333 0.95789 0.77591 0.0
O127 O 0.46853 0.04334 0.76535 0.0
O128 O 0.45318 0.00352 0.74985 0.0
O129 O 0.464 0.96814 0.60954 0.0
O130 O 0.48554 0.986 0.51416 0.0
O131 O 0.54823 0.99241 0.53118 0.0
O132 O 0.53204 0.05112 0.78913 0.0
O133 O 0.56772 0.98371 0.63974 0.0
O134 O 0.55657 0.01634 0.7906 0.0
C135 C 0.50845 0.06419 0.5573 0.0
C136 C 0.51247 0.94644 0.79454 0.0
C137 C 0.46724 0.97181 0.53877 0.0
C138 C 0.45044 0.02666 0.77167 0.0
C139 C 0.56784 0.98491 0.56754 0.0
C140 C 0.55158 0.03908 0.81255 0.0
O141 O 0.5118 0.04237 0.52594 0.0
O142 O 0.44249 0.49953 0.65397 0.0
Zn143 Zn 0.4715 0.49984 0.73112 0.0
O144 O 0.50497 0.50428 0.67858 0.0
Zn145 Zn 0.52738 0.47583 0.70242 0.0
Zn146 Zn 0.49973 0.50606 0.56897 0.0
Zn147 Zn 0.52248 0.53568 0.71098 0.0
O148 O 0.55828 0.48663 0.76545 0.0
O149 O 0.55524 0.52916 0.76811 0.0
O150 O 0.46936 0.4652 0.78639 0.0
O151 O 0.50733 0.4488 0.75733 0.0
O152 O 0.53894 0.45765 0.60818 0.0
O153 O 0.5177 0.47715 0.51627 0.0
O154 O 0.51142 0.5403 0.52696 0.0
O155 O 0.46449 0.53051 0.80081 0.0
O156 O 0.52975 0.55996 0.62514 0.0
O157 O 0.49874 0.55528 0.77631 0.0
C158 C 0.44176 0.50061 0.58162 0.0
C159 C 0.5669 0.50868 0.78587 0.0
C160 C 0.53263 0.45955 0.53867 0.0
C161 C 0.48518 0.44668 0.78723 0.0
C162 C 0.5231 0.5597 0.5557 0.0
C163 C 0.47709 0.55161 0.808 0.0
O164 O 0.46227 0.50271 0.54263 0.0
O165 O 0.96836 0.53754 0.57452 0.0
Zn166 Zn 1.00315 0.53545 0.6275 0.0
O167 O 0.00909 0.50117 0.67219 0.0
Zn168 Zn 0.01235 0.50327 0.78353 0.0
Zn169 Zn 0.98059 0.47856 0.6456 0.0
Zn170 Zn 0.04004 0.48631 0.62995 0.0
O171 O 0.04716 0.4903 0.81863 0.0
O172 O 0.06536 0.4778 0.7108 0.0
O173 O 0.00338 0.56202 0.71128 0.0
O174 O 0.00952 0.54042 0.81836 0.0
O175 O 0.9834 0.4832 0.83464 0.0
O176 O 0.96382 0.46396 0.73759 0.0
O177 O 0.99085 0.44982 0.57554 0.0
O178 O 0.03197 0.54597 0.55572 0.0
O179 O 0.03304 0.45456 0.56517 0.0
O180 O 0.0581 0.51276 0.56766 0.0
C181 C 0.95017 0.52091 0.5707 0.0
C182 C 0.06612 0.4809 0.78246 0.0
C183 C 0.96586 0.46827 0.80846 0.0
C184 C 0.00606 0.5615 0.78324 0.0
C185 C 0.01227 0.44257 0.54877 0.0
C186 C 0.05317 0.53498 0.54204 0.0
O187 O 0.95272 0.49825 0.59622 0.0
H188 H 0.19685 0.01694 0.23765 0.0
H189 H 0.21957 0.95216 0.37334 0.0
H190 H 0.15788 0.02103 0.31484 0.0
H191 H 0.18088 0.95632 0.45051 0.0
H192 H 0.12486 0.99138 0.6229 0.0
H193 H 0.16331 0.98878 0.54392 0.0
H194 H 0.11694 0.99489 0.34212 0.0
H195 H 0.07842 0.99739 0.42081 0.0
C196 C 0.19348 0.00358 0.28379 0.0
C197 C 0.21119 0.98423 0.2997 0.0
C198 C 0.17118 0.00587 0.32779 0.0
C199 C 0.16644 0.98909 0.38899 0.0
C200 C 0.18417 0.96973 0.40439 0.0
C201 C 0.20621 0.96724 0.35994 0.0
C202 C 0.12284 0.99223 0.56173 0.0
C203 C 0.09853 0.99448 0.52825 0.0
C204 C 0.14486 0.99064 0.51651 0.0
C205 C 0.14311 0.99159 0.43685 0.0
C206 C 0.11889 0.99429 0.40336 0.0
C207 C 0.09683 0.99554 0.44851 0.0
H208 H 0.55227 0.20912 0.35339 0.0
H209 H 0.48626 0.18586 0.22087 0.0
H210 H 0.54782 0.17019 0.42982 0.0
H211 H 0.48188 0.14665 0.29734 0.0
H212 H 0.50482 0.06712 0.40236 0.0
H213 H 0.50721 0.10566 0.32338 0.0
H214 H 0.51536 0.15279 0.52463 0.0
H215 H 0.51289 0.11438 0.60384 0.0
C216 C 0.53688 0.19557 0.34045 0.0
C217 C 0.5196 0.20049 0.28145 0.0
C218 C 0.53423 0.1734 0.38449 0.0
C219 C 0.51439 0.1555 0.3699 0.0
C220 C 0.49739 0.16012 0.30967 0.0
C221 C 0.49986 0.18254 0.26608 0.0
C222 C 0.50702 0.08571 0.42985 0.0
C223 C 0.50878 0.08764 0.50948 0.0
C224 C 0.50823 0.10777 0.38456 0.0
C225 C 0.51159 0.13219 0.41785 0.0
C226 C 0.51303 0.13417 0.49741 0.0
C227 C 0.51148 0.11217 0.54276 0.0
H228 H 0.30953 0.48904 0.27223 0.0
H229 H 0.29449 0.55104 0.42929 0.0
H230 H 0.34922 0.47962 0.34069 0.0
H231 H 0.33391 0.54173 0.49739 0.0
H232 H 0.39377 0.50434 0.6444 0.0
H233 H 0.35293 0.50807 0.57819 0.0
H234 H 0.3919 0.50123 0.36258 0.0
H235 H 0.43275 0.49735 0.4285 0.0
C236 C 0.31463 0.50055 0.3215 0.0
C237 C 0.29896 0.5208 0.34553 0.0
C238 C 0.33738 0.49523 0.36052 0.0
C239 C 0.34466 0.50986 0.42471 0.0
C240 C 0.3287 0.52985 0.44894 0.0
C241 C 0.30621 0.5353 0.40963 0.0
C242 C 0.39365 0.50336 0.58292 0.0
C243 C 0.41663 0.50073 0.54188 0.0
C244 C 0.37023 0.50563 0.54496 0.0
C245 C 0.36919 0.50511 0.46509 0.0
C246 C 0.39202 0.50152 0.42412 0.0
C247 C 0.41546 0.49946 0.46202 0.0
H248 H 0.97718 0.29356 0.35557 0.0
H249 H 0.04697 0.31461 0.23763 0.0
H250 H 0.97803 0.3346 0.42238 0.0
H251 H 0.04752 0.35633 0.30296 0.0
H252 H 0.97168 0.41799 0.4812 0.0
H253 H 0.97194 0.3792 0.40382 0.0
H254 H 0.05428 0.37548 0.42685 0.0
H255 H 0.0541 0.41498 0.50255 0.0
C256 C 0.99257 0.30717 0.34335 0.0
C257 C 0.01194 0.30093 0.29142 0.0
C258 C 0.993 0.3308 0.38128 0.0
C259 C 0.01276 0.34895 0.36783 0.0
C260 C 0.03215 0.34274 0.31528 0.0
C261 C 0.03176 0.31892 0.27745 0.0
C262 C 0.98989 0.40901 0.4696 0.0
C263 C 0.01285 0.41951 0.49873 0.0
C264 C 0.99002 0.38663 0.42542 0.0
C265 C 0.01309 0.37395 0.40973 0.0
C266 C 0.03617 0.38482 0.4372 0.0
C267 C 0.03606 0.4074 0.48101 0.0
H268 H 0.81935 0.99588 0.103 0.0
H269 H 0.79382 0.0226 0.88427 0.0
H270 H 0.86346 0.9938 0.05422 0.0
H271 H 0.83764 0.0208 0.83611 0.0
H272 H 0.92173 0.04296 0.80521 0.0
H273 H 0.87952 0.04497 0.8642 0.0
H274 H 0.88811 0.96789 0.94988 0.0
H275 H 0.93052 0.96566 0.89033 0.0
C276 C 0.82318 1.00136 0.04472 0.0
C277 C 0.80324 0.0095 -0.00269 0.0
C278 C 0.84834 1.00007 0.01679 0.0
C279 C 0.85396 0.00731 0.94156 0.0
C280 C 0.83394 0.01542 0.89456 0.0
C281 C 0.80886 0.01633 0.92201 0.0
C282 C 0.91479 0.02645 0.83701 0.0
C283 C 0.92948 0.00407 0.84253 0.0
C284 C 0.89055 0.02761 0.87056 0.0
C285 C 0.88051 0.00654 0.91122 0.0
C286 C 0.89546 0.98445 0.91913 0.0
C287 C 0.91966 0.98315 0.88465 0.0
H288 H 0.47399 0.81051 0.06105 0.0
H289 H 0.55588 0.80631 0.03188 0.0
H290 H 0.47362 0.85077 0.99133 0.0
H291 H 0.55625 0.84779 0.96801 0.0
H292 H 0.5473 0.90816 0.78629 0.0
H293 H 0.54785 0.86845 0.8586 0.0
H294 H 0.48153 0.89356 0.98597 0.0
H295 H 0.47992 0.93212 0.90824 0.0
C296 C 0.49202 0.81864 0.04114 0.0
C297 C 0.51498 0.80545 0.05171 0.0
C298 C 0.49192 0.8419 0.00147 0.0
C299 C 0.51492 0.85291 0.97333 0.0
C300 C 0.538 0.83985 0.98651 0.0
C301 C 0.53793 0.81618 0.02401 0.0
C302 C 0.53288 0.90505 0.82982 0.0
C303 C 0.5135 0.92305 0.84154 0.0
C304 C 0.53327 0.88234 0.87207 0.0
C305 C 0.51475 0.87744 0.92894 0.0
C306 C 0.49576 0.89603 0.94169 0.0
C307 C 0.49491 0.91834 0.89763 0.0
H308 H 0.72492 0.53813 0.90345 0.0
H309 H 0.69657 0.4981 0.10169 0.0
H310 H 0.68206 0.53639 0.84772 0.0
H311 H 0.65356 0.49604 0.04527 0.0
H312 H 0.59679 0.55161 0.80961 0.0
H313 H 0.6378 0.55471 0.87574 0.0
H314 H 0.63326 0.47363 0.92707 0.0
H315 H 0.59222 0.47034 0.86025 0.0
C316 C 0.70943 0.52911 0.93525 0.0
C317 C 0.714 0.51839 0.00692 0.0
C318 C 0.68491 0.52818 0.9035 0.0
C319 C 0.66447 0.51612 0.94221 0.0
C320 C 0.66901 0.50536 0.01409 0.0
C321 C 0.69354 0.50668 0.04652 0.0
C322 C 0.60441 0.53444 0.83532 0.0
C323 C 0.59125 0.51069 0.82923 0.0
C324 C 0.62795 0.53623 0.87296 0.0
C325 C 0.63873 0.51441 0.9064 0.0
C326 C 0.6253 0.4908 0.90225 0.0
C327 C 0.6019 0.4889 0.86357 0.0
H328 H 0.98154 0.71973 0.92222 0.0
H329 H 0.02118 0.68749 0.11366 0.0
H330 H 0.98119 0.67794 0.85938 0.0
H331 H 0.02199 0.64568 0.0494 0.0
H332 H 1.00006 0.56851 0.93702 0.0
H333 H 0.99786 0.60921 0.00645 0.0
H334 H 0.00945 0.65061 0.79625 0.0
H335 H 0.01054 0.61018 0.72706 0.0
C336 C 0.99022 0.70361 0.95073 0.0
C337 C 1.00138 0.70682 0.0226 0.0
C338 C 0.99026 0.67968 0.91448 0.0
C339 C 1.00188 0.65838 0.94864 0.0
C340 C 0.01264 0.66152 0.02155 0.0
C341 C 0.01229 0.6855 0.05834 0.0
C342 C 1.00209 0.58634 0.90576 0.0
C343 C 0.0053 0.58607 0.82639 0.0
C344 C 1.00097 0.6097 0.94562 0.0
C345 C 1.00328 0.63333 0.9071 0.0
C346 C 0.00693 0.63291 0.82785 0.0
C347 C 0.00774 0.60965 0.78804 0.0
H348 H 0.0589 0.15357 0.28271 0.0
H349 H 0.98538 0.19018 0.30271 0.0
H350 H 0.04216 0.11623 0.3506 0.0
H351 H 0.96857 0.15261 0.3721 0.0
H352 H 1.00247 0.04318 0.39557 0.0
H353 H 0.00922 0.08156 0.31881 0.0
H354 H 0.97626 0.12821 0.49627 0.0
H355 H 0.96915 0.08986 0.57317 0.0
C356 C 0.03919 0.15367 0.30227 0.0
C357 C 0.02336 0.17462 0.28689 0.0
C358 C 0.02953 0.13222 0.34044 0.0
C359 C 0.00387 0.13128 0.36458 0.0
C360 C 0.98836 0.15281 0.35327 0.0
C361 C 0.99803 0.17433 0.31438 0.0
C362 C 0.99587 0.06145 0.41741 0.0
C363 C 0.98588 0.06351 0.49133 0.0
C364 C 0.99995 0.08345 0.37366 0.0
C365 C 0.99396 0.10786 0.40279 0.0
C366 C 0.98124 0.10963 0.47283 0.0
C367 C 0.9772 0.08761 0.51679 0.0
H368 H 0.35853 0.02777 0.26032 0.0
H369 H 0.31995 0.95472 0.2975 0.0
H370 H 0.3955 0.01285 0.33031 0.0
H371 H 0.35719 0.93987 0.36981 0.0
H372 H 0.46693 0.97603 0.38416 0.0
H373 H 0.42883 0.97782 0.30487 0.0
H374 H 0.38189 0.95343 0.49428 0.0
H375 H 0.41997 0.95136 0.57403 0.0
C376 C 0.35797 0.0085 0.28366 0.0
C377 C 0.33655 0.99227 0.27255 0.0
C378 C 0.37918 0.99991 0.32325 0.0
C379 C 0.37942 0.97496 0.35339 0.0
C380 C 0.35752 0.95908 0.34609 0.0
C381 C 0.33621 0.96765 0.30552 0.0
C382 C 0.44865 0.97019 0.40841 0.0
C383 C 0.44639 0.9643 0.48599 0.0
C384 C 0.42684 0.97132 0.36305 0.0
C385 C 0.40246 0.96649 0.39436 0.0
C386 C 0.40049 0.95742 0.46908 0.0
C387 C 0.42235 0.95627 0.51466 0.0
H388 H 0.47041 0.34336 0.28281 0.0
H389 H 0.54612 0.31114 0.29618 0.0
H390 H 0.48519 0.38105 0.35366 0.0
H391 H 0.56092 0.34907 0.36888 0.0
H392 H 0.5223 0.45633 0.38695 0.0
H393 H 0.51813 0.41677 0.31328 0.0
H394 H 0.55011 0.37375 0.49865 0.0
H395 H 0.55446 0.41334 0.57303 0.0
C396 C 0.49014 0.34423 0.30196 0.0
C397 C 0.50722 0.32457 0.28335 0.0
C398 C 0.49864 0.36584 0.34185 0.0
C399 C 0.52435 0.36818 0.36453 0.0
C400 C 0.54108 0.34774 0.35101 0.0
C401 C 0.53257 0.32604 0.31025 0.0
C402 C 0.5292 0.43863 0.41136 0.0
C403 C 0.53806 0.4379 0.48662 0.0
C404 C 0.52668 0.41598 0.36928 0.0
C405 C 0.53313 0.39227 0.40145 0.0
C406 C 0.54483 0.39184 0.47304 0.0
C407 C 0.54731 0.41455 0.51543 0.0
H408 H 0.19848 0.57321 0.32468 0.0
H409 H 0.14763 0.5248 0.18978 0.0
H410 H 0.1622 0.5841 0.40679 0.0
H411 H 0.112 0.53718 0.26739 0.0
H412 H 0.04831 0.56115 0.4083 0.0
H413 H 0.08362 0.57333 0.32233 0.0
H414 H 0.13839 0.55022 0.49165 0.0
H415 H 0.10339 0.53772 0.57606 0.0
C416 C 0.17968 0.5654 0.31108 0.0
C417 C 0.1763 0.54799 0.25024 0.0
C418 C 0.15889 0.57195 0.35751 0.0
C419 C 0.13429 0.56169 0.34279 0.0
C420 C 0.13059 0.54591 0.279 0.0
C421 C 0.15129 0.53886 0.23408 0.0
C422 C 0.06792 0.55955 0.42768 0.0
C423 C 0.07331 0.5481 0.49772 0.0
C424 C 0.08805 0.56654 0.37884 0.0
C425 C 0.11368 0.56261 0.40042 0.0
C426 C 0.11888 0.55371 0.47383 0.0
C427 C 0.09886 0.54627 0.52173 0.0
H428 H 0.0299 0.81075 0.99115 0.0
H429 H 0.06863 0.84304 0.18736 0.0
H430 H 0.04249 0.84838 0.91731 0.0
H431 H 0.0801 0.88129 0.1138 0.0
H432 H 0.03767 0.95243 0.98825 0.0
H433 H 0.04529 0.91368 0.063 0.0
H434 H 0.08066 0.87801 0.86801 0.0
H435 H 0.0736 0.91719 0.794 0.0
C436 C 0.04179 0.82541 0.018 0.0
C437 C 0.0478 0.82405 0.09573 0.0
C438 C 0.04896 0.84704 0.97561 0.0
C439 C 0.062 0.86781 0.01028 0.0
C440 C 0.06983 0.8656 0.08609 0.0
C441 C 0.06309 0.84378 0.12815 0.0
C442 C 0.04813 0.93673 0.96275 0.0
C443 C 0.05543 0.93772 0.88621 0.0
C444 C 0.05247 0.91458 0.00525 0.0
C445 C 0.06353 0.89289 0.97104 0.0
C446 C 0.07219 0.89452 0.89559 0.0
C447 C 0.06833 0.9169 0.85358 0.0
H448 H 0.66482 0.06757 0.16237 0.0
H449 H 0.69721 0.03232 0.96183 0.0
H450 H 0.62689 0.07915 0.08953 0.0
H451 H 0.65983 0.04455 0.88917 0.0
H452 H 0.59151 0.06841 0.76564 0.0
H453 H 0.63026 0.07846 0.83915 0.0
H454 H 0.59398 0.04674 0.03959 0.0
H455 H 0.55546 0.03667 0.96564 0.0
C456 C 0.66417 0.0629 0.10236 0.0
C457 C 0.6838 0.0485 0.06834 0.0
C458 C 0.64251 0.06963 0.06074 0.0
C459 C 0.64028 0.06248 0.98403 0.0
C460 C 0.66108 0.05052 0.94811 0.0
C461 C 0.68259 0.04352 0.98987 0.0
C462 C 0.59156 0.06467 0.82618 0.0
C463 C 0.57064 0.05207 0.86066 0.0
C464 C 0.61371 0.07023 0.86801 0.0
C465 C 0.61518 0.06326 0.94491 0.0
C466 C 0.59331 0.05265 0.98068 0.0
C467 C 0.57127 0.04687 0.93859 0.0
H468 H 0.43254 0.67123 0.12776 0.0
H469 H 0.49228 0.69944 0.97834 0.0
H470 H 0.42543 0.63419 0.04402 0.0
H471 H 0.48549 0.66254 0.89531 0.0
H472 H 0.46942 0.59772 0.74533 0.0
H473 H 0.45938 0.63779 0.81038 0.0
H474 H 0.45104 0.59623 0.02161 0.0
H475 H 0.46008 0.55586 0.95487 0.0
C476 C 0.44368 0.66982 0.07592 0.0
C477 C 0.46315 0.68804 0.0598 0.0
C478 C 0.43973 0.64855 0.02834 0.0
C479 C 0.45513 0.64516 0.96365 0.0
C480 C 0.47307 0.6646 0.94427 0.0
C481 C 0.47698 0.68587 0.99178 0.0
C482 C 0.46469 0.59715 0.80532 0.0
C483 C 0.46567 0.57394 0.84561 0.0
C484 C 0.45911 0.62008 0.84262 0.0
C485 C 0.45492 0.62033 0.92142 0.0
C486 C 0.45401 0.59671 0.96072 0.0
C487 C 0.45924 0.57359 0.92285 0.0
H488 H 0.84818 0.45228 0.15966 0.0
H489 H 0.82048 0.49423 0.96551 0.0
H490 H 0.88554 0.43898 0.08632 0.0
H491 H 0.85726 0.47998 0.89168 0.0
H492 H 0.92143 0.44367 0.76641 0.0
H493 H 0.88214 0.44018 0.84067 0.0
H494 H 0.92206 0.47007 0.03733 0.0
H495 H 0.96148 0.47406 0.96303 0.0
C496 C 0.84977 0.45821 0.10089 0.0
C497 C 0.83164 0.47481 0.06889 0.0
C498 C 0.87108 0.45048 0.05903 0.0
C499 C 0.87434 0.45867 0.98383 0.0
C500 C 0.85508 0.47326 0.94957 0.0
C501 C 0.83396 0.48136 0.9918 0.0
C502 C 0.92213 0.44887 0.82603 0.0
C503 C 0.94456 0.45964 0.85844 0.0
C504 C 0.89954 0.4469 0.86832 0.0
C505 C 0.89905 0.45515 0.94418 0.0
C506 C 0.92199 0.4635 0.97882 0.0
C507 C 0.94455 0.46585 0.93622 0.0
H508 H 0.02282 0.20313 0.98332 0.0
H509 H 0.09593 0.18229 0.07606 0.0
H510 H 0.02619 0.16932 0.88884 0.0
H511 H 0.10035 0.14905 0.97865 0.0
H512 H 0.03106 0.10464 0.73126 0.0
H513 H 0.04157 0.14636 0.78708 0.0
H514 H 0.08126 0.10831 0.96978 0.0
H515 H 0.07209 0.06669 0.91018 0.0
C516 C 0.04042 0.19235 0.98013 0.0
C517 C 0.05911 0.19529 0.0366 0.0
C518 C 0.04237 0.17269 0.92614 0.0
C519 C 0.06329 0.15578 0.92705 0.0
C520 C 0.08359 0.16109 0.97759 0.0
C521 C 0.08141 0.18053 0.03234 0.0
C522 C 0.04243 0.10533 0.78271 0.0
C523 C 0.05046 0.08251 0.81724 0.0
C524 C 0.04839 0.12925 0.81498 0.0
C525 C 0.06187 0.13094 0.88398 0.0
C526 C 0.07111 0.10801 0.91621 0.0
C527 C 0.06569 0.08404 0.88261 0.0
H528 H 0.30843 0.99225 0.96989 0.0
H529 H 0.32386 0.06682 0.0685 0.0
H530 H 0.34139 0.99991 0.87508 0.0
H531 H 0.35625 0.07546 0.97105 0.0
H532 H 0.43984 0.05624 0.8968 0.0
H533 H 0.39817 0.06079 0.95854 0.0
H534 H 0.36222 0.01873 0.7736 0.0
H535 H 0.4041 0.01285 0.71544 0.0
C536 C 0.31778 0.011 0.968 0.0
C537 C 0.31351 0.029 0.02589 0.0
C538 C 0.33696 0.01544 0.91384 0.0
C539 C 0.35213 0.03815 0.9161 0.0
C540 C 0.34554 0.05746 0.96868 0.0
C541 C 0.32655 0.05282 0.02349 0.0
C542 C 0.4229 0.0484 0.86907 0.0
C543 C 0.42516 0.03383 0.8023 0.0
C544 C 0.3989 0.05113 0.904 0.0
C545 C 0.37662 0.03977 0.87185 0.0
C546 C 0.37888 0.02709 0.80145 0.0
C547 C 0.40287 0.02384 0.76777 0.0
H548 H 0.51007 0.30036 0.97431 0.0
H549 H 0.4364 0.31803 0.07061 0.0
H550 H 0.50568 0.33512 0.88403 0.0
H551 H 0.43107 0.35231 0.97767 0.0
H552 H 0.49708 0.40015 0.72945 0.0
H553 H 0.48882 0.35797 0.78416 0.0
H554 H 0.44922 0.39381 0.97221 0.0
H555 H 0.45622 0.43597 0.91405 0.0
C556 C 0.49218 0.31068 0.97276 0.0
C557 C 0.47355 0.3065 0.02897 0.0
C558 C 0.48965 0.33089 0.92129 0.0
C559 C 0.46824 0.34715 0.92454 0.0
C560 C 0.44815 0.34075 0.97485 0.0
C561 C 0.45088 0.32072 0.02698 0.0
C562 C 0.4863 0.39892 0.78205 0.0
C563 C 0.47765 0.42131 0.81835 0.0
C564 C 0.48162 0.37471 0.8136 0.0
C565 C 0.46873 0.37228 0.88348 0.0
C566 C 0.45895 0.39471 0.91789 0.0
C567 C 0.46313 0.41898 0.88513 0.0
H568 H 0.20858 0.52698 0.95369 0.0
H569 H 0.19157 0.46362 0.10367 0.0
H570 H 0.17505 0.51181 0.86678 0.0
H571 H 0.15757 0.44872 0.01788 0.0
H572 H 0.11354 0.47519 0.71892 0.0
H573 H 0.15483 0.47465 0.78378 0.0
H574 H 0.11601 0.47604 0.00043 0.0
H575 H 0.07458 0.47705 0.93587 0.0
C576 C 0.19871 0.50894 0.96561 0.0
C577 C 0.20282 0.49626 0.03468 0.0
C578 C 0.17931 0.50039 0.91642 0.0
C579 C 0.16346 0.47935 0.93642 0.0
C580 C 0.16941 0.4651 0.00149 0.0
C581 C 0.18913 0.47336 0.04989 0.0
C582 C 0.1137 0.47484 0.78045 0.0
C583 C 0.09069 0.47636 0.82229 0.0
C584 C 0.13741 0.47457 0.81739 0.0
C585 C 0.13861 0.47524 0.89695 0.0
C586 C 0.11562 0.47519 0.93893 0.0
C587 C 0.0919 0.47594 0.90199 0.0
H588 H 0.96368 0.81646 0.26946 0.0
H589 H 0.03126 0.80017 0.40004 0.0
H590 H 0.9513 0.84899 0.36302 0.0
H591 H 0.01892 0.83247 0.49415 0.0
H592 H 0.98926 0.89222 0.65684 0.0
H593 H 0.98642 0.85094 0.58963 0.0
H594 H 0.97662 0.8911 0.37766 0.0
H595 H 0.97974 0.93222 0.44425 0.0
C596 C 0.9751 0.81889 0.32043 0.0
C597 C 0.99822 0.80572 0.3284 0.0
C598 C 0.96821 0.83768 0.37341 0.0
C599 C 0.98431 0.84346 0.4353 0.0
C600 C 0.00603 0.82829 0.44737 0.0
C601 C 0.01305 0.8097 0.39386 0.0
C602 C 0.98589 0.89221 0.59614 0.0
C603 C 0.98494 0.91549 0.55567 0.0
C604 C 0.98434 0.86858 0.55778 0.0
C605 C 0.98128 0.86781 0.47853 0.0
C606 C 0.97865 0.89106 0.43891 0.0
C607 C 0.98064 0.91464 0.47696 0.0
H608 H 0.68553 0.96164 0.22463 0.0
H609 H 0.7092 0.02464 0.36942 0.0
H610 H 0.65307 0.94868 0.31809 0.0
H611 H 0.67684 0.01186 0.46315 0.0
H612 H 0.5736 0.97661 0.41512 0.0
H613 H 0.6135 0.97412 0.34373 0.0
H614 H 0.65661 0.97938 0.55255 0.0
H615 H 0.61655 0.98181 0.62449 0.0
C616 C 0.68464 0.97185 0.27837 0.0
C617 C 0.69996 0.9939 0.29064 0.0
C618 C 0.66588 0.96468 0.33133 0.0
C619 C 0.66217 0.97948 0.39738 0.0
C620 C 0.67934 0.99995 0.4131 0.0
C621 C 0.69799 0.00721 0.35978 0.0
C622 C 0.59153 0.97675 0.44605 0.0
C623 C 0.59186 0.97965 0.52543 0.0
C624 C 0.61444 0.9751 0.40516 0.0
C625 C 0.63822 0.97655 0.44258 0.0
C626 C 0.63857 0.97828 0.52224 0.0
C627 C 0.61561 0.97961 0.56333 0.0
H628 H 0.53751 0.70415 0.29872 0.0
H629 H 0.45814 0.68734 0.35037 0.0
H630 H 0.55055 0.66873 0.38165 0.0
H631 H 0.4711 0.65199 0.43215 0.0
H632 H 0.50271 0.56928 0.41627 0.0
H633 H 0.4972 0.61112 0.35743 0.0
H634 H 0.54135 0.64735 0.53611 0.0
H635 H 0.54674 0.60533 0.59673 0.0
C636 C 0.523 0.69376 0.33092 0.0
C637 C 0.49685 0.69833 0.31844 0.0
C638 C 0.53043 0.67341 0.3776 0.0
C639 C 0.51173 0.65755 0.41172 0.0
C640 C 0.48578 0.66393 0.40569 0.0
C641 C 0.4784 0.68425 0.35967 0.0
C642 C 0.51175 0.58597 0.44254 0.0
C643 C 0.52491 0.58394 0.51179 0.0
C644 C 0.50842 0.60993 0.40903 0.0
C645 C 0.51846 0.63231 0.44334 0.0
C646 C 0.5333 0.63027 0.50922 0.0
C647 C 0.5364 0.60624 0.54353 0.0
H648 H 0.81086 0.48343 0.36342 0.0
H649 H 0.8243 0.55859 0.26785 0.0
H650 H 0.8435 0.49177 0.45855 0.0
H651 H 0.85665 0.56776 0.36528 0.0
H652 H 0.94041 0.54964 0.44394 0.0
H653 H 0.89921 0.55347 0.37933 0.0
H654 H 0.86207 0.51202 0.56277 0.0
H655 H 0.90343 0.50693 0.62407 0.0
C656 C 0.81984 0.50236 0.36584 0.0
C657 C 0.81493 0.52047 0.30918 0.0
C658 C 0.83874 0.50721 0.42023 0.0
C659 C 0.85318 0.53037 0.41919 0.0
C660 C 0.84634 0.54953 0.36692 0.0
C661 C 0.82744 0.54455 0.31208 0.0
C662 C 0.92331 0.54178 0.47071 0.0
C663 C 0.9251 0.52757 0.53799 0.0
C664 C 0.89959 0.5441 0.43412 0.0
C665 C 0.87719 0.53266 0.46507 0.0
C666 C 0.87891 0.52041 0.53594 0.0
C667 C 0.9026 0.51759 0.57133 0.0
loop_
_geom_bond_atom_site_label_1
_geom_bond_atom_site_label_2
_geom_bond_distance
_geom_bond_site_symmetry_2
_ccdc_geom_bond_type
H0 C5 0.930 . S
H1 C8 0.930 . S
H2 C10 0.930 . S
H3 C4 1.016 . S
C4 H3 1.016 . S
C4 N11 1.286 1_556 S
C5 H0 0.930 . S
C5 C6 1.397 . S
C5 C7 1.361 . S
C6 C5 1.397 . S
C6 C10 1.390 . S
C7 C5 1.361 . S
C7 C8 1.393 1_554 S
C7 N11 1.413 . S
C8 H1 0.930 . S
C8 C7 1.393 1_556 S
C8 C9 1.399 . S
C9 C8 1.399 . S
C9 C10 1.381 1_556 S
C10 H2 0.930 . S
C10 C6 1.390 . S
C10 C9 1.381 1_554 S
N11 C4 1.286 1_554 S
N11 C7 1.413 . S
H12 C17 0.930 . S
H13 C20 0.930 . S
H14 C22 0.930 . S
H15 C16 1.020 . S
C16 H15 1.020 . S
C16 N23 1.286 1_655 S
C17 H12 0.930 . S
C17 C18 1.397 . S
C17 C19 1.361 . S
C18 C17 1.397 . S
C18 C22 1.390 1_455 S
C19 C17 1.361 . S
C19 C20 1.393 . S
C19 N23 1.413 . S
C20 H13 0.930 . S
C20 C19 1.393 . S
C20 C21 1.399 . S
C21 C20 1.399 . S
C21 C22 1.381 1_455 S
C22 H14 0.930 . S
C22 C18 1.390 1_655 S
C22 C21 1.381 1_655 S
N23 C16 1.286 1_455 S
N23 C19 1.413 . S
H24 C29 0.930 . S
H25 C32 0.930 1_556 S
H26 C34 0.930 . S
H27 C28 1.016 1_556 S
C28 H27 1.016 1_554 S
C28 N35 1.286 1_565 S
C29 H24 0.930 . S
C29 C30 1.397 . S
C29 C31 1.361 . S
C30 C29 1.397 . S
C30 C34 1.390 1_545 S
C31 C29 1.361 . S
C31 C32 1.393 . S
C31 N35 1.413 . S
C32 H25 0.930 1_554 S
C32 C31 1.393 . S
C32 C33 1.404 . S
C33 C32 1.404 . S
C33 C34 1.378 1_545 S
C34 H26 0.930 . S
C34 C30 1.390 1_565 S
C34 C33 1.378 1_565 S
N35 C28 1.286 1_545 S
N35 C31 1.413 . S
H36 C41 0.930 . S
H37 C44 0.930 . S
H38 C46 0.930 . S
H39 C40 1.016 . S
C40 H39 1.016 . S
C40 N47 1.286 1_556 S
C41 H36 0.930 . S
C41 C42 1.397 . S
C41 C43 1.361 . S
C42 C41 1.397 . S
C42 C46 1.390 . S
C43 C41 1.361 . S
C43 C44 1.393 1_554 S
C43 N47 1.413 . S
C44 H37 0.930 . S
C44 C43 1.393 1_556 S
C44 C45 1.399 . S
C45 C44 1.399 . S
C45 C46 1.381 1_556 S
C46 H38 0.930 . S
C46 C42 1.390 . S
C46 C45 1.381 1_554 S
N47 C40 1.286 1_554 S
N47 C43 1.413 . S
H48 C53 0.930 . S
H49 C56 0.930 . S
H50 C58 0.930 . S
H51 C52 1.016 . S
C52 H51 1.016 . S
C52 N59 1.286 . S
C53 H48 0.930 . S
C53 C54 1.397 . S
C53 C55 1.361 . S
C54 C53 1.397 . S
C54 C58 1.390 . S
C55 C53 1.361 . S
C55 C56 1.393 . S
C55 N59 1.413 . S
C56 H49 0.930 . S
C56 C55 1.393 . S
C56 C57 1.399 . S
C57 C56 1.399 . S
C57 C58 1.381 . S
C58 H50 0.930 . S
C58 C54 1.390 . S
C58 C57 1.381 . S
N59 C52 1.286 . S
N59 C55 1.413 . S
H60 C65 0.930 . S
H61 C68 0.930 . S
H62 C70 0.930 . S
H63 C64 1.016 . S
C64 H63 1.016 . S
C64 N71 1.286 . S
C65 H60 0.930 . S
C65 C66 1.397 . S
C65 C67 1.361 . S
C66 C65 1.397 . S
C66 C70 1.390 . S
C67 C65 1.361 . S
C67 C68 1.393 . S
C67 N71 1.413 . S
C68 H61 0.930 . S
C68 C67 1.393 . S
C68 C69 1.399 . S
C69 C68 1.399 . S
C69 C70 1.381 . S
C70 H62 0.930 . S
C70 C66 1.390 . S
C70 C69 1.381 . S
N71 C64 1.286 . S
N71 C67 1.413 . S
H72 C77 0.930 . S
H73 C80 0.930 . S
H74 C82 0.930 . S
H75 C76 1.016 . S
C76 H75 1.016 . S
C76 N83 1.286 . S
C77 H72 0.930 . S
C77 C78 1.397 . S
C77 C79 1.361 . S
C78 C77 1.397 . S
C78 C82 1.390 . S
C79 C77 1.361 . S
C79 C80 1.393 . S
C79 N83 1.413 . S
C80 H73 0.930 . S
C80 C79 1.393 . S
C80 C81 1.399 . S
C81 C80 1.399 . S
C81 C82 1.381 . S
C82 H74 0.930 . S
C82 C78 1.390 . S
C82 C81 1.381 . S
N83 C76 1.286 . S
N83 C79 1.413 . S
H84 C89 0.930 . S
H85 C92 0.930 . S
H86 C94 0.930 . S
H87 C88 1.016 . S
C88 H87 1.016 . S
C88 N95 1.286 . S
C89 H84 0.930 . S
C89 C90 1.397 . S
C89 C91 1.361 . S
C90 C89 1.397 . S
C90 C94 1.390 . S
C91 C89 1.361 . S
C91 C92 1.393 . S
C91 N95 1.413 . S
C92 H85 0.930 . S
C92 C91 1.393 . S
C92 C93 1.399 . S
C93 C92 1.399 . S
C93 C94 1.381 . S
C94 H86 0.930 . S
C94 C90 1.390 . S
C94 C93 1.381 . S
N95 C88 1.286 . S
N95 C91 1.413 . S
O96 Zn97 1.956 . S
O96 C112 1.225 1_545 S
Zn97 O96 1.956 . S
Zn97 O98 1.948 1_545 S
Zn97 O104 1.949 . S
Zn97 O109 1.888 1_545 S
O98 Zn97 1.948 1_565 S
O98 Zn99 1.901 1_465 S
O98 Zn100 1.952 . S
O98 Zn101 1.965 1_455 S
Zn99 O98 1.901 1_645 S
Zn99 O102 1.933 . S
Zn99 O105 1.941 1_655 S
Zn99 O106 1.965 . S
Zn100 O98 1.952 . S
Zn100 O107 1.938 1_565 S
Zn100 O108 1.906 . S
Zn100 O118 1.953 . S
Zn101 O98 1.965 1_655 S
Zn101 O103 1.932 . S
Zn101 O110 1.977 . S
Zn101 O111 1.910 1_655 S
O102 Zn99 1.933 . S
O102 C113 1.226 . S
O103 Zn101 1.932 . S
O103 C113 1.307 1_565 S
O104 Zn97 1.949 . S
O104 C115 1.253 . S
O105 Zn99 1.941 1_455 S
O105 C115 1.283 . S
O106 Zn99 1.965 . S
O106 C114 1.303 1_655 S
O107 Zn100 1.938 1_545 S
O107 C114 1.247 . S
O108 Zn100 1.906 . S
O108 C116 1.304 1_455 S
O109 Zn97 1.888 1_565 S
O109 C117 1.311 . S
O110 Zn101 1.977 . S
O110 C116 1.272 . S
O111 Zn101 1.910 1_455 S
O111 C117 1.231 . S
C112 O96 1.225 1_565 S
C112 O118 1.298 . S
C113 O102 1.226 . S
C113 O103 1.307 1_545 S
C114 O106 1.303 1_455 S
C114 O107 1.247 . S
C115 O104 1.253 . S
C115 O105 1.283 . S
C116 O108 1.304 1_655 S
C116 O110 1.272 . S
C117 O109 1.311 . S
C117 O111 1.231 . S
O118 Zn100 1.953 . S
O118 C112 1.298 . S
O119 Zn120 1.953 . S
O119 C135 1.225 . S
Zn120 O119 1.953 . S
Zn120 O121 1.949 . S
Zn120 O127 1.919 . S
Zn120 O132 1.924 . S
O121 Zn120 1.949 . S
O121 Zn122 1.923 1_545 S
O121 Zn123 1.950 . S
O121 Zn124 1.945 1_545 S
Zn122 O121 1.923 1_565 S
Zn122 O125 1.933 . S
Zn122 O128 1.941 . S
Zn122 O129 1.965 . S
Zn123 O121 1.950 . S
Zn123 O130 1.938 . S
Zn123 O131 1.906 . S
Zn123 O141 1.953 . S
Zn124 O121 1.945 1_565 S
Zn124 O126 1.932 . S
Zn124 O133 1.977 . S
Zn124 O134 1.910 1_565 S
O125 Zn122 1.933 . S
O125 C136 1.226 . S
O126 Zn124 1.932 . S
O126 C136 1.307 . S
O127 Zn120 1.919 . S
O127 C138 1.253 . S
O128 Zn122 1.941 . S
O128 C138 1.283 1_565 S
O129 Zn122 1.965 . S
O129 C137 1.303 1_565 S
O130 Zn123 1.938 . S
O130 C137 1.247 . S
O131 Zn123 1.906 . S
O131 C139 1.304 1_545 S
O132 Zn120 1.924 . S
O132 C140 1.311 . S
O133 Zn124 1.977 . S
O133 C139 1.272 . S
O134 Zn124 1.910 1_545 S
O134 C140 1.231 . S
C135 O119 1.225 . S
C135 O141 1.298 . S
C136 O125 1.226 . S
C136 O126 1.307 . S
C137 O129 1.303 1_545 S
C137 O130 1.247 . S
C138 O127 1.253 . S
C138 O128 1.283 1_545 S
C139 O131 1.304 1_565 S
C139 O133 1.272 . S
C140 O132 1.311 . S
C140 O134 1.231 . S
O141 Zn123 1.953 . S
O141 C135 1.298 . S
O142 Zn143 1.953 . S
O142 C158 1.225 . S
Zn143 O142 1.953 . S
Zn143 O144 1.949 . S
Zn143 O150 1.919 . S
Zn143 O155 1.924 . S
O144 Zn143 1.949 . S
O144 Zn145 1.923 . S
O144 Zn146 1.950 . S
O144 Zn147 1.945 . S
Zn145 O144 1.923 . S
Zn145 O148 1.933 . S
Zn145 O151 1.941 . S
Zn145 O152 1.965 . S
Zn146 O144 1.950 . S
Zn146 O153 1.938 . S
Zn146 O154 1.906 . S
Zn146 O164 1.953 . S
Zn147 O144 1.945 . S
Zn147 O149 1.932 . S
Zn147 O156 1.977 . S
Zn147 O157 1.910 . S
O148 Zn145 1.933 . S
O148 C159 1.226 . S
O149 Zn147 1.932 . S
O149 C159 1.307 . S
O150 Zn143 1.919 . S
O150 C161 1.253 . S
O151 Zn145 1.941 . S
O151 C161 1.283 . S
O152 Zn145 1.965 . S
O152 C160 1.303 . S
O153 Zn146 1.938 . S
O153 C160 1.247 . S
O154 Zn146 1.906 . S
O154 C162 1.304 . S
O155 Zn143 1.924 . S
O155 C163 1.311 . S
O156 Zn147 1.977 . S
O156 C162 1.272 . S
O157 Zn147 1.910 . S
O157 C163 1.231 . S
C158 O142 1.225 . S
C158 O164 1.298 . S
C159 O148 1.226 . S
C159 O149 1.307 . S
C160 O152 1.303 . S
C160 O153 1.247 . S
C161 O150 1.253 . S
C161 O151 1.283 . S
C162 O154 1.304 . S
C162 O156 1.272 . S
C163 O155 1.311 . S
C163 O157 1.231 . S
O164 Zn146 1.953 . S
O164 C158 1.298 . S
O165 Zn166 1.921 1_655 S
O165 C181 1.225 . S
Zn166 O165 1.921 1_455 S
Zn166 O167 1.949 . S
Zn166 O173 1.919 . S
Zn166 O178 1.958 . S
O167 Zn166 1.949 . S
O167 Zn168 1.918 1_455 S
O167 Zn169 1.929 1_455 S
O167 Zn170 1.973 . S
Zn168 O167 1.918 1_655 S
Zn168 O171 1.933 1_655 S
Zn168 O174 1.941 . S
Zn168 O175 1.965 . S
Zn169 O167 1.929 1_655 S
Zn169 O176 1.938 . S
Zn169 O177 1.906 . S
Zn169 O187 1.953 . S
Zn170 O167 1.973 . S
Zn170 O172 1.932 . S
Zn170 O179 1.977 . S
Zn170 O180 1.910 . S
O171 Zn168 1.933 1_455 S
O171 C182 1.226 . S
O172 Zn170 1.932 . S
O172 C182 1.307 . S
O173 Zn166 1.919 . S
O173 C184 1.253 . S
O174 Zn168 1.941 . S
O174 C184 1.283 1_655 S
O175 Zn168 1.965 . S
O175 C183 1.303 . S
O176 Zn169 1.938 . S
O176 C183 1.247 . S
O177 Zn169 1.906 . S
O177 C185 1.304 1_655 S
O178 Zn166 1.958 . S
O178 C186 1.311 . S
O179 Zn170 1.977 . S
O179 C185 1.272 . S
O180 Zn170 1.910 . S
O180 C186 1.231 . S
C181 O165 1.225 . S
C181 O187 1.298 . S
C182 O171 1.226 . S
C182 O172 1.307 . S
C183 O175 1.303 . S
C183 O176 1.247 . S
C184 O173 1.253 . S
C184 O174 1.283 1_455 S
C185 O177 1.304 1_455 S
C185 O179 1.272 . S
C186 O178 1.311 . S
C186 O180 1.231 . S
O187 Zn169 1.953 . S
O187 C181 1.298 . S
H188 C196 0.950 . S
H189 C201 0.950 . S
H190 C198 0.950 . S
H191 C200 0.950 . S
H192 C202 0.950 . S
H193 C204 0.950 . S
H194 C206 0.950 . S
H195 C207 0.950 . S
C196 H188 0.950 . S
C196 C197 1.386 1_565 S
C196 C198 1.391 . S
C197 C196 1.386 1_545 S
C197 C201 1.393 . S
C198 H190 0.950 . S
C198 C196 1.391 . S
C198 C199 1.400 1_565 S
C199 C198 1.400 1_545 S
C199 C200 1.398 . S
C199 C205 1.491 . S
C200 H191 0.950 . S
C200 C199 1.398 . S
C200 C201 1.391 . S
C201 H189 0.950 . S
C201 C197 1.393 . S
C201 C200 1.391 . S
C202 H192 0.950 . S
C202 C203 1.376 1_545 S
C202 C204 1.391 . S
C203 C202 1.376 1_565 S
C203 C207 1.401 . S
C204 H193 0.950 . S
C204 C202 1.391 . S
C204 C205 1.400 . S
C205 C199 1.491 . S
C205 C204 1.400 . S
C205 C206 1.398 1_545 S
C206 H194 0.950 . S
C206 C205 1.398 1_565 S
C206 C207 1.391 . S
C207 H195 0.950 . S
C207 C203 1.401 . S
C207 C206 1.391 . S
H208 C216 0.950 . S
H209 C221 0.950 . S
H210 C218 0.950 . S
H211 C220 0.950 . S
H212 C222 0.950 . S
H213 C224 0.950 . S
H214 C226 0.950 . S
H215 C227 0.950 . S
C216 H208 0.950 . S
C216 C217 1.386 . S
C216 C218 1.391 . S
C217 C216 1.386 . S
C217 C221 1.393 . S
C218 H210 0.950 . S
C218 C216 1.391 . S
C218 C219 1.400 . S
C219 C218 1.400 . S
C219 C220 1.398 . S
C219 C225 1.491 . S
C220 H211 0.950 . S
C220 C219 1.398 . S
C220 C221 1.391 . S
C221 H209 0.950 . S
C221 C217 1.393 . S
C221 C220 1.391 . S
C222 H212 0.950 . S
C222 C223 1.386 . S
C222 C224 1.391 . S
C223 C222 1.386 . S
C223 C227 1.393 . S
C224 H213 0.950 . S
C224 C222 1.391 . S
C224 C225 1.400 . S
C225 C219 1.491 . S
C225 C224 1.400 . S
C225 C226 1.398 . S
C226 H214 0.950 . S
C226 C225 1.398 . S
C226 C227 1.391 . S
C227 H215 0.950 . S
C227 C223 1.393 . S
C227 C226 1.391 . S
H228 C236 0.950 . S
H229 C241 0.950 . S
H230 C238 0.950 . S
H231 C240 0.950 . S
H232 C242 0.950 . S
H233 C244 0.950 . S
H234 C246 0.950 . S
H235 C247 0.950 . S
C236 H228 0.950 . S
C236 C237 1.386 . S
C236 C238 1.391 . S
C237 C236 1.386 . S
C237 C241 1.393 . S
C238 H230 0.950 . S
C238 C236 1.391 . S
C238 C239 1.400 . S
C239 C238 1.400 . S
C239 C240 1.398 . S
C239 C245 1.491 . S
C240 H231 0.950 . S
C240 C239 1.398 . S
C240 C241 1.391 . S
C241 H229 0.950 . S
C241 C237 1.393 . S
C241 C240 1.391 . S
C242 H232 0.950 . S
C242 C243 1.386 . S
C242 C244 1.391 . S
C243 C242 1.386 . S
C243 C247 1.393 . S
C244 H233 0.950 . S
C244 C242 1.391 . S
C244 C245 1.400 . S
C245 C239 1.491 . S
C245 C244 1.400 . S
C245 C246 1.398 . S
C246 H234 0.950 . S
C246 C245 1.398 . S
C246 C247 1.391 . S
C247 H235 0.950 . S
C247 C243 1.393 . S
C247 C246 1.391 . S
H248 C256 0.950 . S
H249 C261 0.950 . S
H250 C258 0.950 . S
H251 C260 0.934 1_655 S
H252 C262 0.950 . S
H253 C264 0.950 1_655 S
H254 C266 0.950 . S
H255 C267 0.950 . S
C256 H248 0.950 . S
C256 C257 1.386 . S
C256 C258 1.391 . S
C257 C256 1.386 . S
C257 C261 1.393 . S
C258 H250 0.950 . S
C258 C256 1.391 . S
C258 C259 1.400 . S
C259 C258 1.400 . S
C259 C260 1.398 . S
C259 C265 1.491 . S
C260 H251 0.934 1_455 S
C260 C259 1.398 . S
C260 C261 1.391 . S
C261 H249 0.950 . S
C261 C257 1.393 . S
C261 C260 1.391 . S
C262 H252 0.950 . S
C262 C263 1.386 1_655 S
C262 C264 1.391 1_655 S
C263 C262 1.386 1_455 S
C263 C267 1.393 . S
C264 H253 0.950 1_455 S
C264 C262 1.391 1_455 S
C264 C265 1.400 . S
C265 C259 1.491 . S
C265 C264 1.400 . S
C265 C266 1.398 . S
C266 H254 0.950 . S
C266 C265 1.398 . S
C266 C267 1.391 . S
C267 H255 0.950 . S
C267 C263 1.393 . S
C267 C266 1.391 . S
H268 C276 0.950 . S
H269 C281 0.950 . S
H270 C278 0.950 1_554 S
H271 C280 0.950 . S
H272 C282 0.950 . S
H273 C284 0.950 . S
H274 C286 0.950 . S
H275 C287 0.950 . S
C276 H268 0.950 . S
C276 C277 1.386 1_554 S
C276 C278 1.391 1_554 S
C277 C276 1.386 1_556 S
C277 C281 1.393 1_565 S
C278 H270 0.950 1_556 S
C278 C276 1.391 1_556 S
C278 C279 1.400 1_565 S
C279 C278 1.400 1_545 S
C279 C280 1.398 . S
C279 C285 1.491 . S
C280 H271 0.950 . S
C280 C279 1.398 . S
C280 C281 1.391 . S
C281 H269 0.950 . S
C281 C277 1.393 1_545 S
C281 C280 1.391 . S
C282 H272 0.950 . S
C282 C283 1.386 . S
C282 C284 1.391 . S
C283 C282 1.386 . S
C283 C287 1.393 1_545 S
C284 H273 0.950 . S
C284 C282 1.391 . S
C284 C285 1.400 . S
C285 C279 1.491 . S
C285 C284 1.400 . S
C285 C286 1.398 1_545 S
C286 H274 0.950 . S
C286 C285 1.398 1_565 S
C286 C287 1.391 . S
C287 H275 0.950 . S
C287 C283 1.393 1_565 S
C287 C286 1.391 . S
H288 C296 0.950 . S
H289 C301 0.950 . S
H290 C298 0.950 . S
H291 C300 0.950 . S
H292 C302 0.950 . S
H293 C304 0.950 . S
H294 C306 0.950 . S
H295 C307 0.950 . S
C296 H288 0.950 . S
C296 C297 1.386 . S
C296 C298 1.391 . S
C297 C296 1.386 . S
C297 C301 1.393 . S
C298 H290 0.950 . S
C298 C296 1.391 . S
C298 C299 1.400 . S
C299 C298 1.400 . S
C299 C300 1.398 . S
C299 C305 1.491 . S
C300 H291 0.950 . S
C300 C299 1.398 . S
C300 C301 1.391 . S
C301 H289 0.950 . S
C301 C297 1.393 . S
C301 C300 1.391 . S
C302 H292 0.950 . S
C302 C303 1.386 . S
C302 C304 1.391 . S
C303 C302 1.386 . S
C303 C307 1.393 . S
C304 H293 0.950 . S
C304 C302 1.391 . S
C304 C305 1.400 . S
C305 C299 1.491 . S
C305 C304 1.400 . S
C305 C306 1.398 . S
C306 H294 0.950 . S
C306 C305 1.398 . S
C306 C307 1.391 . S
C307 H295 0.950 . S
C307 C303 1.393 . S
C307 C306 1.391 . S
H308 C316 0.950 . S
H309 C321 0.950 1_554 S
H310 C318 0.950 . S
H311 C320 0.950 . S
H312 C322 0.950 . S
H313 C324 0.950 . S
H314 C326 0.950 . S
H315 C327 0.950 . S
C316 H308 0.950 . S
C316 C317 1.386 . S
C316 C318 1.391 . S
C317 C316 1.386 . S
C317 C321 1.393 . S
C318 H310 0.950 . S
C318 C316 1.391 . S
C318 C319 1.400 . S
C319 C318 1.400 . S
C319 C320 1.398 . S
C319 C325 1.491 . S
C320 H311 0.950 . S
C320 C319 1.398 . S
C320 C321 1.391 . S
C321 H309 0.950 1_556 S
C321 C317 1.393 . S
C321 C320 1.391 . S
C322 H312 0.950 . S
C322 C323 1.386 . S
C322 C324 1.391 . S
C323 C322 1.386 . S
C323 C327 1.393 . S
C324 H313 0.950 . S
C324 C322 1.391 . S
C324 C325 1.400 . S
C325 C319 1.491 . S
C325 C324 1.400 . S
C325 C326 1.398 . S
C326 H314 0.950 . S
C326 C325 1.398 . S
C326 C327 1.391 . S
C327 H315 0.950 . S
C327 C323 1.393 . S
C327 C326 1.391 . S
H328 C336 0.950 . S
H329 C341 0.950 . S
H330 C338 0.950 . S
H331 C340 0.950 . S
H332 C342 0.950 . S
H333 C344 0.950 . S
H334 C346 0.950 . S
H335 C347 0.951 . S
C336 H328 0.950 . S
C336 C337 1.386 1_556 S
C336 C338 1.392 . S
C337 C336 1.386 1_554 S
C337 C341 1.391 1_655 S
C338 H330 0.950 . S
C338 C336 1.392 . S
C338 C339 1.399 1_655 S
C339 C338 1.399 1_455 S
C339 C340 1.398 1_556 S
C339 C345 1.491 . S
C340 H331 0.950 . S
C340 C339 1.398 1_554 S
C340 C341 1.391 . S
C341 H329 0.950 . S
C341 C337 1.391 1_455 S
C341 C340 1.391 . S
C342 H332 0.950 . S
C342 C343 1.386 . S
C342 C344 1.391 . S
C343 C342 1.386 . S
C343 C347 1.393 . S
C344 H333 0.950 . S
C344 C342 1.391 . S
C344 C345 1.400 . S
C345 C339 1.491 . S
C345 C344 1.400 . S
C345 C346 1.398 1_455 S
C346 H334 0.950 . S
C346 C345 1.398 1_655 S
C346 C347 1.391 1_655 S
C347 H335 0.951 . S
C347 C343 1.393 . S
C347 C346 1.391 1_455 S
H348 C356 0.950 . S
H349 C361 0.950 . S
H350 C358 0.950 . S
H351 C360 0.950 . S
H352 C362 0.950 . S
H353 C364 0.950 . S
H354 C366 0.950 . S
H355 C367 0.950 . S
C356 H348 0.950 . S
C356 C357 1.386 . S
C356 C358 1.391 . S
C357 C356 1.386 . S
C357 C361 1.393 . S
C358 H350 0.950 . S
C358 C356 1.391 . S
C358 C359 1.400 . S
C359 C358 1.400 . S
C359 C360 1.398 . S
C359 C365 1.491 . S
C360 H351 0.950 . S
C360 C359 1.398 . S
C360 C361 1.391 . S
C361 H349 0.950 . S
C361 C357 1.393 . S
C361 C360 1.391 . S
C362 H352 0.950 . S
C362 C363 1.386 . S
C362 C364 1.391 . S
C363 C362 1.386 . S
C363 C367 1.393 . S
C364 H353 0.950 . S
C364 C362 1.391 . S
C364 C365 1.400 . S
C365 C359 1.491 . S
C365 C364 1.400 . S
C365 C366 1.398 . S
C366 H354 0.950 . S
C366 C365 1.398 . S
C366 C367 1.391 . S
C367 H355 0.950 . S
C367 C363 1.393 . S
C367 C366 1.391 . S
H368 C376 0.950 . S
H369 C381 0.950 . S
H370 C378 0.950 . S
H371 C380 0.950 . S
H372 C382 0.950 . S
H373 C384 0.950 . S
H374 C386 0.950 . S
H375 C387 0.950 . S
C376 H368 0.950 . S
C376 C377 1.386 . S
C376 C378 1.391 . S
C377 C376 1.386 . S
C377 C381 1.393 1_545 S
C378 H370 0.950 . S
C378 C376 1.391 . S
C378 C379 1.400 . S
C379 C378 1.400 . S
C379 C380 1.398 1_545 S
C379 C385 1.491 . S
C380 H371 0.950 . S
C380 C379 1.398 1_565 S
C380 C381 1.391 . S
C381 H369 0.950 . S
C381 C377 1.393 1_565 S
C381 C380 1.391 . S
C382 H372 0.950 . S
C382 C383 1.386 1_565 S
C382 C384 1.391 . S
C383 C382 1.386 1_545 S
C383 C387 1.393 . S
C384 H373 0.950 . S
C384 C382 1.391 . S
C384 C385 1.400 1_565 S
C385 C379 1.491 . S
C385 C384 1.400 1_545 S
C385 C386 1.398 . S
C386 H374 0.950 . S
C386 C385 1.398 . S
C386 C387 1.391 . S
C387 H375 0.950 . S
C387 C383 1.393 . S
C387 C386 1.391 . S
H388 C396 0.950 . S
H389 C401 0.950 . S
H390 C398 0.950 . S
H391 C400 0.950 . S
H392 C402 0.950 . S
H393 C404 0.950 . S
H394 C406 0.950 . S
H395 C407 0.950 . S
C396 H388 0.950 . S
C396 C397 1.386 . S
C396 C398 1.391 . S
C397 C396 1.386 . S
C397 C401 1.393 . S
C398 H390 0.950 . S
C398 C396 1.391 . S
C398 C399 1.400 . S
C399 C398 1.400 . S
C399 C400 1.398 . S
C399 C405 1.491 . S
C400 H391 0.950 . S
C400 C399 1.398 . S
C400 C401 1.391 . S
C401 H389 0.950 . S
C401 C397 1.393 . S
C401 C400 1.391 . S
C402 H392 0.950 . S
C402 C403 1.386 . S
C402 C404 1.391 . S
C403 C402 1.386 . S
C403 C407 1.393 . S
C404 H393 0.950 . S
C404 C402 1.391 . S
C404 C405 1.400 . S
C405 C399 1.491 . S
C405 C404 1.400 . S
C405 C406 1.398 . S
C406 H394 0.950 . S
C406 C405 1.398 . S
C406 C407 1.391 . S
C407 H395 0.950 . S
C407 C403 1.393 . S
C407 C406 1.391 . S
H408 C416 0.950 . S
H409 C421 0.950 . S
H410 C418 0.950 . S
H411 C420 0.950 . S
H412 C422 0.950 . S
H413 C424 0.950 . S
H414 C426 0.950 . S
H415 C427 0.950 . S
C416 H408 0.950 . S
C416 C417 1.386 . S
C416 C418 1.391 . S
C417 C416 1.386 . S
C417 C421 1.393 . S
C418 H410 0.950 . S
C418 C416 1.391 . S
C418 C419 1.400 . S
C419 C418 1.400 . S
C419 C420 1.398 . S
C419 C425 1.491 . S
C420 H411 0.950 . S
C420 C419 1.398 . S
C420 C421 1.391 . S
C421 H409 0.950 . S
C421 C417 1.393 . S
C421 C420 1.391 . S
C422 H412 0.950 . S
C422 C423 1.386 . S
C422 C424 1.391 . S
C423 C422 1.386 . S
C423 C427 1.393 . S
C424 H413 0.950 . S
C424 C422 1.391 . S
C424 C425 1.400 . S
C425 C419 1.491 . S
C425 C424 1.400 . S
C425 C426 1.398 . S
C426 H414 0.950 . S
C426 C425 1.398 . S
C426 C427 1.391 . S
C427 H415 0.950 . S
C427 C423 1.393 . S
C427 C426 1.391 . S
H428 C436 0.950 . S
H429 C441 0.950 . S
H430 C438 0.950 . S
H431 C440 0.950 . S
H432 C442 0.950 . S
H433 C444 0.949 . S
H434 C446 0.967 . S
H435 C447 0.950 . S
C436 H428 0.950 . S
C436 C437 1.384 1_556 S
C436 C438 1.391 . S
C437 C436 1.384 1_554 S
C437 C441 1.395 1_655 S
C438 H430 0.950 . S
C438 C436 1.391 . S
C438 C439 1.400 1_655 S
C439 C438 1.400 1_455 S
C439 C440 1.398 1_556 S
C439 C445 1.491 . S
C440 H431 0.950 . S
C440 C439 1.398 1_554 S
C440 C441 1.391 . S
C441 H429 0.950 . S
C441 C437 1.395 1_455 S
C441 C440 1.391 . S
C442 H432 0.950 . S
C442 C443 1.386 . S
C442 C444 1.391 . S
C443 C442 1.386 . S
C443 C447 1.393 . S
C444 H433 0.949 . S
C444 C442 1.391 . S
C444 C445 1.400 . S
C445 C439 1.491 . S
C445 C444 1.400 . S
C445 C446 1.398 . S
C446 H434 0.967 . S
C446 C445 1.398 . S
C446 C447 1.391 . S
C447 H435 0.950 . S
C447 C443 1.393 . S
C447 C446 1.391 . S
H448 C456 0.950 . S
H449 C461 0.942 1_565 S
H450 C458 0.950 1_554 S
H451 C460 0.950 . S
H452 C462 0.950 . S
H453 C464 0.950 . S
H454 C466 0.950 . S
H455 C467 0.950 . S
C456 H448 0.950 . S
C456 C457 1.394 1_554 S
C456 C458 1.391 1_554 S
C457 C456 1.394 1_556 S
C457 C461 1.396 . S
C458 H450 0.950 1_556 S
C458 C456 1.391 1_556 S
C458 C459 1.400 . S
C459 C458 1.400 . S
C459 C460 1.398 . S
C459 C465 1.491 . S
C460 H451 0.950 . S
C460 C459 1.398 . S
C460 C461 1.391 . S
C461 H449 0.942 1_545 S
C461 C457 1.396 . S
C461 C460 1.391 . S
C462 H452 0.950 . S
C462 C463 1.386 . S
C462 C464 1.391 . S
C463 C462 1.386 . S
C463 C467 1.393 . S
C464 H453 0.950 . S
C464 C462 1.391 . S
C464 C465 1.400 . S
C465 C459 1.491 . S
C465 C464 1.400 . S
C465 C466 1.398 . S
C466 H454 0.950 . S
C466 C465 1.398 . S
C466 C467 1.391 . S
C467 H455 0.950 . S
C467 C463 1.393 . S
C467 C466 1.391 . S
H468 C476 0.950 . S
H469 C481 0.950 . S
H470 C478 0.950 1_554 S
H471 C480 0.950 . S
H472 C482 0.950 . S
H473 C484 0.950 . S
H474 C486 0.950 . S
H475 C487 0.950 . S
C476 H468 0.950 . S
C476 C477 1.386 1_554 S
C476 C478 1.391 1_554 S
C477 C476 1.386 1_556 S
C477 C481 1.393 . S
C478 H470 0.950 1_556 S
C478 C476 1.391 1_556 S
C478 C479 1.400 . S
C479 C478 1.400 . S
C479 C480 1.398 . S
C479 C485 1.491 . S
C480 H471 0.950 . S
C480 C479 1.398 . S
C480 C481 1.391 . S
C481 H469 0.950 . S
C481 C477 1.393 . S
C481 C480 1.391 . S
C482 H472 0.950 . S
C482 C483 1.386 . S
C482 C484 1.391 . S
C483 C482 1.386 . S
C483 C487 1.393 . S
C484 H473 0.950 . S
C484 C482 1.391 . S
C484 C485 1.400 . S
C485 C479 1.491 . S
C485 C484 1.400 . S
C485 C486 1.398 . S
C486 H474 0.950 . S
C486 C485 1.398 . S
C486 C487 1.391 . S
C487 H475 0.950 . S
C487 C483 1.393 . S
C487 C486 1.391 . S
H488 C496 0.950 1_554 S
H489 C501 0.950 . S
H490 C498 0.950 . S
H491 C500 0.950 . S
H492 C502 0.950 . S
H493 C504 0.950 . S
H494 C506 0.950 . S
H495 C507 0.950 . S
C496 H488 0.950 1_556 S
C496 C497 1.386 . S
C496 C498 1.391 . S
C497 C496 1.386 . S
C497 C501 1.393 . S
C498 H490 0.950 . S
C498 C496 1.391 . S
C498 C499 1.400 . S
C499 C498 1.400 . S
C499 C500 1.398 . S
C499 C505 1.491 . S
C500 H491 0.950 . S
C500 C499 1.398 . S
C500 C501 1.391 . S
C501 H489 0.950 . S
C501 C497 1.393 . S
C501 C500 1.391 . S
C502 H492 0.950 . S
C502 C503 1.386 . S
C502 C504 1.391 . S
C503 C502 1.386 . S
C503 C507 1.393 . S
C504 H493 0.950 . S
C504 C502 1.391 . S
C504 C505 1.400 . S
C505 C499 1.491 . S
C505 C504 1.400 . S
C505 C506 1.398 . S
C506 H494 0.950 . S
C506 C505 1.398 . S
C506 C507 1.391 . S
C507 H495 0.950 . S
C507 C503 1.393 . S
C507 C506 1.391 . S
H508 C516 0.950 . S
H509 C521 0.950 . S
H510 C518 0.950 . S
H511 C520 0.950 . S
H512 C522 0.950 . S
H513 C524 0.950 . S
H514 C526 0.950 . S
H515 C527 0.950 . S
C516 H508 0.950 . S
C516 C517 1.386 . S
C516 C518 1.391 . S
C517 C516 1.386 . S
C517 C521 1.393 . S
C518 H510 0.950 . S
C518 C516 1.391 . S
C518 C519 1.400 . S
C519 C518 1.400 . S
C519 C520 1.398 . S
C519 C525 1.491 . S
C520 H511 0.950 . S
C520 C519 1.398 . S
C520 C521 1.391 . S
C521 H509 0.950 . S
C521 C517 1.393 . S
C521 C520 1.391 . S
C522 H512 0.950 . S
C522 C523 1.386 . S
C522 C524 1.391 . S
C523 C522 1.386 . S
C523 C527 1.393 1_556 S
C524 H513 0.950 . S
C524 C522 1.391 . S
C524 C525 1.400 1_556 S
C525 C519 1.491 . S
C525 C524 1.400 1_554 S
C525 C526 1.398 . S
C526 H514 0.950 . S
C526 C525 1.398 . S
C526 C527 1.391 . S
C527 H515 0.950 . S
C527 C523 1.393 1_554 S
C527 C526 1.391 . S
H528 C536 0.950 . S
H529 C541 0.950 . S
H530 C538 0.950 . S
H531 C540 0.950 . S
H532 C542 0.950 . S
H533 C544 0.950 . S
H534 C546 0.950 1_554 S
H535 C547 0.950 . S
C536 H528 0.950 . S
C536 C537 1.386 1_565 S
C536 C538 1.391 . S
C537 C536 1.386 1_545 S
C537 C541 1.393 . S
C538 H530 0.950 . S
C538 C536 1.391 . S
C538 C539 1.400 1_565 S
C539 C538 1.400 1_545 S
C539 C540 1.398 . S
C539 C545 1.491 1_554 S
C540 H531 0.950 . S
C540 C539 1.398 . S
C540 C541 1.391 . S
C541 H529 0.950 . S
C541 C537 1.393 . S
C541 C540 1.391 . S
C542 H532 0.950 . S
C542 C543 1.386 . S
C542 C544 1.391 . S
C543 C542 1.386 . S
C543 C547 1.393 1_545 S
C544 H533 0.950 . S
C544 C542 1.391 . S
C544 C545 1.400 . S
C545 C539 1.491 1_556 S
C545 C544 1.400 . S
C545 C546 1.398 1_545 S
C546 H534 0.950 1_556 S
C546 C545 1.398 1_565 S
C546 C547 1.391 . S
C547 H535 0.950 . S
C547 C543 1.393 1_565 S
C547 C546 1.391 . S
H548 C556 0.950 . S
H549 C561 0.950 . S
H550 C558 0.950 . S
H551 C560 0.950 . S
H552 C562 0.950 . S
H553 C564 0.950 . S
H554 C566 0.950 1_554 S
H555 C567 0.950 . S
C556 H548 0.950 . S
C556 C557 1.386 . S
C556 C558 1.391 . S
C557 C556 1.386 . S
C557 C561 1.393 . S
C558 H550 0.950 . S
C558 C556 1.391 . S
C558 C559 1.400 . S
C559 C558 1.400 . S
C559 C560 1.398 1_554 S
C559 C565 1.491 1_554 S
C560 H551 0.950 . S
C560 C559 1.398 1_556 S
C560 C561 1.391 1_556 S
C561 H549 0.950 . S
C561 C557 1.393 . S
C561 C560 1.391 1_554 S
C562 H552 0.950 . S
C562 C563 1.386 . S
C562 C564 1.391 . S
C563 C562 1.386 . S
C563 C567 1.393 . S
C564 H553 0.950 . S
C564 C562 1.391 . S
C564 C565 1.400 . S
C565 C559 1.491 1_556 S
C565 C564 1.400 . S
C565 C566 1.398 . S
C566 H554 0.950 1_556 S
C566 C565 1.398 . S
C566 C567 1.391 . S
C567 H555 0.950 . S
C567 C563 1.393 . S
C567 C566 1.391 . S
H568 C576 0.950 . S
H569 C581 0.950 . S
H570 C578 0.950 . S
H571 C580 0.950 . S
H572 C582 0.950 . S
H573 C584 0.950 . S
H574 C586 0.950 1_554 S
H575 C587 0.950 . S
C576 H568 0.950 . S
C576 C577 1.386 . S
C576 C578 1.391 . S
C577 C576 1.386 . S
C577 C581 1.393 . S
C578 H570 0.950 . S
C578 C576 1.391 . S
C578 C579 1.400 . S
C579 C578 1.400 . S
C579 C580 1.398 1_554 S
C579 C585 1.491 1_554 S
C580 H571 0.950 . S
C580 C579 1.398 1_556 S
C580 C581 1.391 1_556 S
C581 H569 0.950 . S
C581 C577 1.393 . S
C581 C580 1.391 1_554 S
C582 H572 0.950 . S
C582 C583 1.386 . S
C582 C584 1.391 . S
C583 C582 1.386 . S
C583 C587 1.393 . S
C584 H573 0.950 . S
C584 C582 1.391 . S
C584 C585 1.400 . S
C585 C579 1.491 1_556 S
C585 C584 1.400 . S
C585 C586 1.398 . S
C586 H574 0.950 1_556 S
C586 C585 1.398 . S
C586 C587 1.391 . S
C587 H575 0.950 . S
C587 C583 1.393 . S
C587 C586 1.391 . S
H588 C596 0.950 . S
H589 C601 0.950 . S
H590 C598 0.950 . S
H591 C600 0.950 . S
H592 C602 0.950 . S
H593 C604 0.950 . S
H594 C606 0.950 . S
H595 C607 0.950 . S
C596 H588 0.950 . S
C596 C597 1.386 . S
C596 C598 1.391 . S
C597 C596 1.386 . S
C597 C601 1.393 1_655 S
C598 H590 0.950 . S
C598 C596 1.391 . S
C598 C599 1.400 . S
C599 C598 1.400 . S
C599 C600 1.398 1_655 S
C599 C605 1.491 . S
C600 H591 0.950 . S
C600 C599 1.398 1_455 S
C600 C601 1.391 . S
C601 H589 0.950 . S
C601 C597 1.393 1_455 S
C601 C600 1.391 . S
C602 H592 0.950 . S
C602 C603 1.386 1_455 S
C602 C604 1.391 . S
C603 C602 1.386 1_655 S
C603 C607 1.393 . S
C604 H593 0.950 . S
C604 C602 1.391 . S
C604 C605 1.400 1_455 S
C605 C599 1.491 . S
C605 C604 1.400 1_655 S
C605 C606 1.398 . S
C606 H594 0.950 . S
C606 C605 1.398 . S
C606 C607 1.391 . S
C607 H595 0.950 . S
C607 C603 1.393 . S
C607 C606 1.391 . S
H608 C616 0.954 . S
H609 C621 0.950 . S
H610 C618 0.950 . S
H611 C620 0.950 . S
H612 C622 0.950 . S
H613 C624 0.950 . S
H614 C626 0.950 . S
H615 C627 0.950 . S
C616 H608 0.954 . S
C616 C617 1.384 1_545 S
C616 C618 1.388 1_545 S
C617 C616 1.384 1_565 S
C617 C621 1.399 . S
C618 H610 0.950 . S
C618 C616 1.388 1_565 S
C618 C619 1.400 . S
C619 C618 1.400 . S
C619 C620 1.398 . S
C619 C625 1.491 . S
C620 H611 0.950 . S
C620 C619 1.398 . S
C620 C621 1.391 . S
C621 H609 0.950 . S
C621 C617 1.399 . S
C621 C620 1.391 . S
C622 H612 0.950 . S
C622 C623 1.386 . S
C622 C624 1.391 . S
C623 C622 1.386 . S
C623 C627 1.393 . S
C624 H613 0.950 . S
C624 C622 1.391 . S
C624 C625 1.400 . S
C625 C619 1.491 . S
C625 C624 1.400 . S
C625 C626 1.398 . S
C626 H614 0.950 . S
C626 C625 1.398 . S
C626 C627 1.391 . S
C627 H615 0.950 . S
C627 C623 1.393 . S
C627 C626 1.391 . S
H628 C636 0.950 . S
H629 C641 0.950 . S
H630 C638 0.950 . S
H631 C640 0.950 . S
H632 C642 0.950 . S
H633 C644 0.950 . S
H634 C646 0.950 . S
H635 C647 0.950 . S
C636 H628 0.950 . S
C636 C637 1.386 . S
C636 C638 1.391 . S
C637 C636 1.386 . S
C637 C641 1.393 . S
C638 H630 0.950 . S
C638 C636 1.391 . S
C638 C639 1.400 . S
C639 C638 1.400 . S
C639 C640 1.398 . S
C639 C645 1.491 . S
C640 H631 0.950 . S
C640 C639 1.398 . S
C640 C641 1.391 . S
C641 H629 0.950 . S
C641 C637 1.393 . S
C641 C640 1.391 . S
C642 H632 0.950 . S
C642 C643 1.386 . S
C642 C644 1.391 . S
C643 C642 1.386 . S
C643 C647 1.393 . S
C644 H633 0.950 . S
C644 C642 1.391 . S
C644 C645 1.400 . S
C645 C639 1.491 . S
C645 C644 1.400 . S
C645 C646 1.398 . S
C646 H634 0.950 . S
C646 C645 1.398 . S
C646 C647 1.391 . S
C647 H635 0.950 . S
C647 C643 1.393 . S
C647 C646 1.391 . S
H648 C656 0.950 . S
H649 C661 0.950 . S
H650 C658 0.950 . S
H651 C660 0.950 . S
H652 C662 0.950 . S
H653 C664 0.950 . S
H654 C666 0.950 . S
H655 C667 0.950 . S
C656 H648 0.950 . S
C656 C657 1.386 . S
C656 C658 1.391 . S
C657 C656 1.386 . S
C657 C661 1.393 . S
C658 H650 0.950 . S
C658 C656 1.391 . S
C658 C659 1.400 . S
C659 C658 1.400 . S
C659 C660 1.398 . S
C659 C665 1.491 . S
C660 H651 0.950 . S
C660 C659 1.398 . S
C660 C661 1.391 . S
C661 H649 0.950 . S
C661 C657 1.393 . S
C661 C660 1.391 . S
C662 H652 0.950 . S
C662 C663 1.386 . S
C662 C664 1.391 . S
C663 C662 1.386 . S
C663 C667 1.393 . S
C664 H653 0.950 . S
C664 C662 1.391 . S
C664 C665 1.400 . S
C665 C659 1.491 . S
C665 C664 1.400 . S
C665 C666 1.398 . S
C666 H654 0.950 . S
C666 C665 1.398 . S
C666 C667 1.391 . S
C667 H655 0.950 . S
C667 C663 1.393 . S
C667 C666 1.391 . S
C197 C76 1.544 . S
C203 C112 1.584 . S
C223 C135 1.617 . S
C217 C88 1.573 . S
C243 C158 1.637 . S
C237 C52 1.597 . S
C263 C185 1.526 . S
C257 C64 1.562 . S
C283 C113 1.565 . S
C277 C28 1.527 1_556 S
C297 C40 1.484 . S
C303 C136 1.513 . S
C317 C4 1.464 . S
C323 C159 1.492 . S
C337 C16 1.569 . S
C343 C184 1.581 . S
C363 C114 0.397 . S
C357 C69 0.475 . S
C383 C137 0.407 . S
C377 C81 0.463 . S
C403 C160 0.437 . S
C397 C93 0.482 . S
C417 C57 0.548 . S
C423 C186 0.574 . S
C437 C21 0.665 1_655 S
C443 C117 0.715 . S
C463 C140 0.636 . S
C457 C33 0.646 1_556 S
C483 C163 0.607 . S
C477 C45 0.606 . S
C497 C9 0.422 . S
C503 C183 0.390 . S
C517 C66 1.580 . S
C523 C115 1.551 . S
C537 C78 1.542 . S
C543 C138 1.539 . S
C563 C161 1.545 . S
C557 C90 1.555 . S
C583 C182 1.394 . S
C577 C54 1.354 . S
C597 C18 1.618 1_655 S
C603 C116 1.553 . S
C623 C139 1.509 . S
C617 C30 1.558 1_565 S
C643 C162 1.495 . S
C637 C42 1.552 . S
C657 C6 1.692 . S
C663 C181 1.731 . S
