# Generated by pormake.
# Topology tsx, (6,3)-cn, num edge types: 1
# Building blocks:
#     Node 0, Type 0, BuildingBlock: FUNLAD_clean_sbu_0, # of connection points: 6
#     Node 1, Type 0, BuildingBlock: FUNLAD_clean_sbu_0, # of connection points: 6
#     Node 2, Type 1, BuildingBlock: KAKCAD_clean_linker_0, # of connection points: 3
#     Node 3, Type 1, BuildingBlock: KAKCAD_clean_linker_0, # of connection points: 3
#     Node 4, Type 1, BuildingBlock: KAKCAD_clean_linker_0, # of connection points: 3
#     Node 5, Type 1, BuildingBlock: KAKCAD_clean_linker_0, # of connection points: 3
#     Edge 6, Type (0, 1), BuildingBlock: EZIPEK_clean_linker_0, # of connection points: 2
#     Edge 7, Type (0, 1), BuildingBlock: EZIPEK_clean_linker_0, # of connection points: 2
#     Edge 8, Type (0, 1), BuildingBlock: EZIPEK_clean_linker_0, # of connection points: 2
#     Edge 9, Type (0, 1), BuildingBlock: EZIPEK_clean_linker_0, # of connection points: 2
#     Edge 10, Type (0, 1), BuildingBlock: EZIPEK_clean_linker_0, # of connection points: 2
#     Edge 11, Type (0, 1), BuildingBlock: EZIPEK_clean_linker_0, # of connection points: 2
#     Edge 12, Type (0, 1), BuildingBlock: EZIPEK_clean_linker_0, # of connection points: 2
#     Edge 13, Type (0, 1), BuildingBlock: EZIPEK_clean_linker_0, # of connection points: 2
#     Edge 14, Type (0, 1), BuildingBlock: EZIPEK_clean_linker_0, # of connection points: 2
#     Edge 15, Type (0, 1), BuildingBlock: EZIPEK_clean_linker_0, # of connection points: 2
#     Edge 16, Type (0, 1), BuildingBlock: EZIPEK_clean_linker_0, # of connection points: 2
#     Edge 17, Type (0, 1), BuildingBlock: EZIPEK_clean_linker_0, # of connection points: 2
# Relax obj value: 0.164
# Max RMSD: 0.154
# Mean RMSD: 0.080
data_MOF--net-tsx--node1-FUNLAD_clean_sbu_0--node2-KAKCAD_clean_linker_0--edge1-EZIPEK_clean_linker_0
_symmetry_space_group_name_H-M    P1
_symmetry_Int_Tables_number       1
_symmetry_cell_setting            triclinic
loop_
_symmetry_equiv_pos_as_xyz
'x, y, z'
_cell_length_a     18.048013
_cell_length_b     20.01605
_cell_length_c     41.120336
_cell_angle_alpha  91.398298
_cell_angle_beta   92.000768
_cell_angle_gamma 89.964551
loop_
_atom_site_label
_atom_site_type_symbol
_atom_site_fract_x
_atom_site_fract_y
_atom_site_fract_z
_atom_type_partial_charge
C0 C 0.91214 0.90459 0.99177 0.0
N1 N 0.02117 0.98437 0.07477 0.0
C2 C 0.95696 0.99516 0.09051 0.0
C3 C 0.9554 0.99022 0.12422 0.0
C4 C 0.01987 0.97178 0.14176 0.0
C5 C 0.08492 0.95919 0.12496 0.0
C6 C 0.08466 0.96692 0.09131 0.0
Zn7 Zn 0.02148 0.99494 0.02549 0.0
C8 C 0.12624 0.90226 -0.00659 0.0
N9 N 0.02058 0.01721 0.92253 0.0
C10 C 0.95789 0.00572 0.90386 0.0
C11 C 0.08512 0.03518 0.90893 0.0
C12 C 0.08804 0.04323 0.87543 0.0
C13 C 0.02472 0.03014 0.85562 0.0
C14 C 0.95907 0.01091 0.8701 0.0
Zn15 Zn 0.01937 0.00655 0.97182 0.0
O16 O 0.93624 0.92428 0.01973 0.0
C17 C 0.91168 0.09626 0.00263 0.0
O18 O 0.93908 0.92854 0.96639 0.0
H19 H 0.13474 0.04301 0.92399 0.0
H20 H 0.90671 0.0078 0.07698 0.0
H21 H 0.90693 0.99219 0.91508 0.0
O22 O 0.94102 0.07258 0.02841 0.0
O23 O 0.93373 0.07687 0.975 0.0
H24 H 0.13528 0.95909 0.07847 0.0
O25 O 0.09771 0.08512 0.97873 0.0
O26 O 0.10693 0.06675 0.03114 0.0
O27 O 0.10494 0.93511 0.96875 0.0
O28 O 0.1001 0.91639 0.02103 0.0
C29 C 0.12616 0.09939 0.00671 0.0
H30 H 0.90424 4e-05 0.1365 0.0
H31 H 0.13555 0.9447 0.13785 0.0
H32 H 0.13955 0.05818 0.86496 0.0
H33 H 0.90921 0.00053 0.85542 0.0
C34 C 0.41313 0.40704 0.49226 0.0
N35 N 0.52352 0.48698 0.5749 0.0
C36 C 0.45974 0.49852 0.59084 0.0
C37 C 0.45875 0.49397 0.62459 0.0
C38 C 0.52332 0.47513 0.64195 0.0
C39 C 0.58791 0.46183 0.62494 0.0
C40 C 0.58712 0.46921 0.59127 0.0
Zn41 Zn 0.52322 0.49705 0.52558 0.0
C42 C 0.62712 0.4036 0.49345 0.0
N43 N 0.52152 0.51851 0.4226 0.0
C44 C 0.45858 0.50721 0.40407 0.0
C45 C 0.58606 0.53587 0.40882 0.0
C46 C 0.58875 0.54345 0.37528 0.0
C47 C 0.52515 0.53053 0.35562 0.0
C48 C 0.45948 0.51195 0.37029 0.0
Zn49 Zn 0.52075 0.50834 0.4719 0.0
O50 O 0.43752 0.42682 0.52015 0.0
C51 C 0.41379 0.59876 0.50274 0.0
O52 O 0.44003 0.43067 0.4668 0.0
H53 H 0.63587 0.54355 0.42377 0.0
H54 H 0.40939 0.51144 0.57746 0.0
H55 H 0.40763 0.49416 0.41542 0.0
O56 O 0.44323 0.57515 0.52851 0.0
O57 O 0.43551 0.57906 0.4751 0.0
H58 H 0.63744 0.46085 0.57827 0.0
O59 O 0.59953 0.58663 0.47849 0.0
O60 O 0.60912 0.56843 0.53091 0.0
O61 O 0.6059 0.43648 0.46879 0.0
O62 O 0.60127 0.41801 0.5211 0.0
C63 C 0.62829 0.60089 0.50641 0.0
H64 H 0.40792 0.50434 0.63703 0.0
H65 H 0.63861 0.44701 0.63769 0.0
H66 H 0.64028 0.55789 0.36467 0.0
H67 H 0.40941 0.50172 0.35572 0.0
C68 C 0.00933 0.89824 0.29863 0.0
C69 C 0.00484 0.95852 0.28199 0.0
C70 C 0.00164 0.89772 0.3323 0.0
C71 C 0.99192 0.95781 0.35025 0.0
C72 C 0.98931 0.01827 0.33338 0.0
C73 C 0.99442 0.01844 0.29961 0.0
C74 C 0.98461 0.95743 0.3863 0.0
C75 C 0.02147 0.90915 0.40515 0.0
C76 C 0.01475 0.90821 0.43912 0.0
C77 C 0.97139 0.957 0.45442 0.0
C78 C 0.93716 0.00722 0.43617 0.0
C79 C 0.94242 0.0064 0.40228 0.0
C80 C 0.89871 0.0632 0.45215 0.0
C81 C 0.82965 0.05352 0.46581 0.0
C82 C 0.92808 0.12795 0.45084 0.0
C83 C 0.88723 0.18285 0.46166 0.0
C84 C 0.81657 0.17354 0.47394 0.0
C85 C 0.05897 0.85983 0.45844 0.0
C86 C 0.06709 0.79372 0.44681 0.0
C87 C 0.1006 0.8814 0.48634 0.0
C88 C 0.15413 0.8395 0.50042 0.0
C89 C 0.1666 0.7758 0.4867 0.0
C90 C 0.1207 0.75212 0.46077 0.0
C91 C 0.78892 0.10842 0.4769 0.0
H92 H 0.01739 0.85145 0.28543 0.0
H93 H 0.00246 0.84995 0.34408 0.0
H94 H 0.98409 0.06586 0.34614 0.0
H95 H 0.9912 0.06554 0.2872 0.0
H96 H 0.05816 0.8737 0.39361 0.0
H97 H 0.91302 0.04423 0.38855 0.0
H98 H 0.96589 0.95665 0.48046 0.0
H99 H 0.80583 0.00394 0.46645 0.0
H100 H 0.98143 0.13614 0.44031 0.0
H101 H 0.9092 0.23273 0.4591 0.0
H102 H 0.03457 0.77531 0.42583 0.0
H103 H 0.09552 0.93204 0.4959 0.0
H104 H 0.73422 0.10051 0.48614 0.0
H105 H 0.12925 0.70276 0.45015 0.0
H106 H 0.18902 0.85823 0.52059 0.0
C107 C 0.03224 0.1052 0.69849 0.0
C108 C 0.02729 0.04505 0.71511 0.0
C109 C 0.02587 0.10531 0.66452 0.0
C110 C 0.01683 0.04497 0.64644 0.0
C111 C 0.01554 0.9846 0.66334 0.0
C112 C 0.01935 0.98479 0.69726 0.0
C113 C 0.0066 0.04487 0.61027 0.0
C114 C 0.0412 0.09301 0.59161 0.0
C115 C 0.03054 0.0934 0.55751 0.0
C116 C 0.98541 0.04432 0.54201 0.0
C117 C 0.95325 0.99448 0.56019 0.0
C118 C 0.96249 0.99585 0.5941 0.0
C119 C 0.91203 0.93859 0.54435 0.0
C120 C 0.84088 0.94859 0.53066 0.0
C121 C 0.9406 0.87355 0.54645 0.0
C122 C 0.89704 0.81877 0.53647 0.0
C123 C 0.82447 0.82848 0.5242 0.0
C124 C 0.07176 0.14187 0.53825 0.0
C125 C 0.08126 0.20812 0.54976 0.0
C126 C 0.10848 0.12053 0.51017 0.0
C127 C 0.15854 0.1629 0.49566 0.0
C128 C 0.17247 0.22692 0.50911 0.0
C129 C 0.13143 0.25022 0.53536 0.0
C130 C 0.79746 0.89377 0.52032 0.0
H131 H 0.03876 0.15222 0.7119 0.0
H132 H 0.02624 0.15292 0.65261 0.0
H133 H 0.01134 0.93684 0.6505 0.0
H134 H 0.01617 0.93776 0.70964 0.0
H135 H 0.07879 0.12885 0.60345 0.0
H136 H 0.93433 0.95844 0.60773 0.0
H137 H 0.97669 0.04431 0.5159 0.0
H138 H 0.81764 -0.0016 0.52957 0.0
H139 H 0.99549 0.86512 0.5571 0.0
H140 H 0.91863 0.76875 0.53969 0.0
H141 H 0.0524 0.22642 0.57086 0.0
H142 H 0.10235 0.06979 0.50069 0.0
H143 H 0.74138 0.90202 0.51103 0.0
H144 H 0.14127 0.29976 0.54582 0.0
H145 H 0.18984 0.14438 0.47533 0.0
C146 C 0.51461 0.40128 0.7987 0.0
C147 C 0.51085 0.46181 0.78226 0.0
C148 C 0.50673 0.40037 0.83235 0.0
C149 C 0.49758 0.46031 0.85048 0.0
C150 C 0.49611 0.52106 0.83384 0.0
C151 C 0.50139 0.52164 0.80008 0.0
C152 C 0.48911 0.45939 0.88645 0.0
C153 C 0.52444 0.41022 0.90529 0.0
C154 C 0.5159 0.40833 0.93913 0.0
C155 C 0.47226 0.45702 0.95432 0.0
C156 C 0.43981 0.50828 0.93616 0.0
C157 C 0.44688 0.50841 0.90236 0.0
C158 C 0.40095 0.56405 0.95213 0.0
C159 C 0.33237 0.55382 0.96614 0.0
C160 C 0.42949 0.62908 0.95058 0.0
C161 C 0.38822 0.68365 0.96147 0.0
C162 C 0.31796 0.67376 0.97403 0.0
C163 C 0.55862 0.35902 0.95849 0.0
C164 C 0.5666 0.29317 0.94647 0.0
C165 C 0.59934 0.37953 0.98681 0.0
C166 C 0.65212 0.33695 0.00093 0.0
C167 C 0.66468 0.27361 0.98683 0.0
C168 C 0.61945 0.25088 0.96048 0.0
C169 C 0.29119 0.60842 0.97725 0.0
H170 H 0.52195 0.35456 0.78534 0.0
H171 H 0.50672 0.35241 0.84394 0.0
H172 H 0.49141 0.56852 0.84677 0.0
H173 H 0.49878 0.56894 0.78783 0.0
H174 H 0.56124 0.37472 0.89384 0.0
H175 H 0.41862 0.54691 0.88863 0.0
H176 H 0.4652 0.45575 0.98025 0.0
H177 H 0.30918 0.50403 0.96696 0.0
H178 H 0.48252 0.63771 0.93984 0.0
H179 H 0.40952 0.73372 0.95872 0.0
H180 H 0.53473 0.27557 0.92515 0.0
H181 H 0.59431 0.42994 -0.00332 0.0
H182 H 0.23679 0.60007 0.98672 0.0
H183 H 0.62809 0.2018 0.94955 0.0
H184 H 0.68651 0.35494 0.02141 0.0
C185 C 0.53244 0.60383 0.19835 0.0
C186 C 0.52704 0.54383 0.21505 0.0
C187 C 0.52592 0.60377 0.16438 0.0
C188 C 0.5163 0.54339 0.14638 0.0
C189 C 0.51457 0.48314 0.16338 0.0
C190 C 0.51851 0.48352 0.19729 0.0
C191 C 0.50589 0.54315 0.11023 0.0
C192 C 0.5407 0.59102 0.09147 0.0
C193 C 0.52978 0.59137 0.05739 0.0
C194 C 0.4842 0.54251 0.042 0.0
C195 C 0.45188 0.49287 0.06025 0.0
C196 C 0.46136 0.49431 0.09415 0.0
C197 C 0.41037 0.43703 0.04449 0.0
C198 C 0.33921 0.44715 0.03083 0.0
C199 C 0.43867 0.37191 0.0467 0.0
C200 C 0.39486 0.3172 0.03684 0.0
C201 C 0.3223 0.32705 0.02458 0.0
C202 C 0.57111 0.6396 0.03803 0.0
C203 C 0.58105 0.70583 0.04951 0.0
C204 C 0.60747 0.61805 0.00989 0.0
C205 C 0.65759 0.6602 -0.00474 0.0
C206 C 0.67194 0.7242 0.00865 0.0
C207 C 0.63127 0.7477 0.03498 0.0
C208 C 0.29553 0.3924 0.02061 0.0
H209 H 0.53942 0.65088 0.21169 0.0
H210 H 0.52663 0.65131 0.15241 0.0
H211 H 0.50992 0.43533 0.15061 0.0
H212 H 0.51496 0.4366 0.20974 0.0
H213 H 0.57861 0.62668 0.10324 0.0
H214 H 0.43307 0.45709 0.10784 0.0
H215 H 0.47525 0.54253 0.0159 0.0
H216 H 0.31616 0.49703 0.02967 0.0
H217 H 0.49354 0.36336 0.05732 0.0
H218 H 0.41628 0.26714 0.04011 0.0
H219 H 0.55249 0.7243 0.07065 0.0
H220 H 0.60098 0.56733 0.00044 0.0
H221 H 0.23948 0.40076 0.01132 0.0
H222 H 0.64143 0.79724 0.0454 0.0
H223 H 0.68858 0.64151 0.97487 0.0
C224 C 0.24085 0.16187 -0.00788 0.0
C225 C 0.17699 0.1572 0.01117 0.0
C226 C 0.21296 0.26018 0.04089 0.0
C227 C 0.27188 0.26892 0.01944 0.0
N228 N 0.3354 0.23389 0.9713 0.0
N229 N 0.09312 0.21057 0.04842 0.0
C230 C 0.28398 0.22141 -0.00598 0.0
C231 C 0.16042 0.20873 0.03413 0.0
N232 N 0.26218 0.10845 0.97332 0.0
N233 N 0.20852 0.29938 0.06847 0.0
H234 H 0.05153 0.17532 0.04346 0.0
H235 H 0.07556 0.25105 0.06259 0.0
H236 H 0.24675 0.33689 0.07488 0.0
H237 H 0.17122 0.29021 0.08662 0.0
H238 H 0.31217 0.10666 0.96142 0.0
H239 H 0.23345 0.06321 0.97215 0.0
H240 H 0.3414 0.20434 0.95036 0.0
H241 H 0.36777 0.27712 0.97192 0.0
C242 C 0.2411 0.83687 0.00894 0.0
C243 C 0.17552 0.84366 0.98915 0.0
C244 C 0.20773 0.74275 0.9579 0.0
C245 C 0.26876 0.73194 0.97979 0.0
N246 N 0.33783 0.76267 0.02911 0.0
N247 N 0.08758 0.7937 0.94991 0.0
C248 C 0.28381 0.77726 0.00625 0.0
C249 C 0.1563 0.79401 0.96505 0.0
N250 N 0.26445 0.88844 0.02916 0.0
N251 N 0.20014 0.7057 0.92959 0.0
H252 H 0.04666 0.82878 0.95498 0.0
H253 H 0.06831 0.75439 0.93484 0.0
H254 H 0.2372 0.66819 0.92297 0.0
H255 H 0.16125 0.71669 0.91117 0.0
H256 H 0.31557 0.88893 0.04171 0.0
H257 H 0.23593 0.93361 0.03107 0.0
H258 H 0.3463 0.79031 0.0507 0.0
H259 H 0.37022 0.71955 0.02777 0.0
C260 C 0.86827 0.79025 0.00336 0.0
C261 C 0.85351 0.85317 0.9895 0.0
C262 C 0.72321 0.82181 0.97976 0.0
C263 C 0.73585 0.76389 -0.00171 0.0
N264 N 0.81897 0.69463 0.0302 0.0
N265 N 0.76671 0.93191 0.96611 0.0
C266 C 0.80822 0.74794 0.01038 0.0
C267 C 0.78112 0.86952 0.97759 0.0
N268 N 0.93994 0.77092 0.00964 0.0
N269 N 0.65582 0.83093 0.96431 0.0
H270 H 0.8076 0.96814 0.96395 0.0
H271 H 0.71347 0.94952 0.96079 0.0
H272 H 0.61246 0.79674 0.9657 0.0
H273 H 0.645 0.86889 0.94795 0.0
H274 H 0.95481 0.72287 0.01649 0.0
H275 H 0.98528 0.80117 0.00508 0.0
H276 H 0.86861 0.68558 0.04301 0.0
H277 H 0.77681 0.66178 0.03588 0.0
C278 C 0.78095 0.12742 0.01535 0.0
C279 C 0.85154 0.14601 0.00431 0.0
C280 C 0.80116 0.25175 0.98487 0.0
C281 C 0.73081 0.23392 -0.00351 0.0
N282 N 0.65686 0.16302 0.02888 0.0
N283 N 0.93359 0.23126 0.98622 0.0
C284 C 0.72185 0.17437 0.01385 0.0
C285 C 0.86312 0.21008 0.99158 0.0
N286 N 0.76917 0.06379 0.02541 0.0
N287 N 0.80804 0.30634 0.96583 0.0
H288 H 0.98027 0.20173 0.99082 0.0
H289 H 0.94636 0.28005 0.98018 0.0
H290 H 0.76431 0.33861 0.96028 0.0
H291 H 0.8558 0.31696 0.95343 0.0
H292 H 0.71692 0.04496 0.03003 0.0
H293 H 0.81092 0.02786 0.02688 0.0
H294 H 0.64917 0.12363 0.0445 0.0
H295 H 0.61264 0.19665 0.02802 0.0
C296 C 0.6627 0.71018 0.53379 0.0
C297 C 0.67913 0.65869 0.5108 0.0
C298 C 0.78613 0.72286 0.49361 0.0
C299 C 0.77416 0.77028 0.51908 0.0
N300 N 0.71109 0.80056 0.56821 0.0
N301 N 0.76405 0.61001 0.47281 0.0
C302 C 0.71534 0.76151 0.54058 0.0
C303 C 0.74291 0.66336 0.49168 0.0
N304 N 0.59541 0.71211 0.5481 0.0
N305 N 0.83753 0.73536 0.47089 0.0
H306 H 0.73521 0.56483 0.4716 0.0
H307 H 0.81397 0.6082 0.46085 0.0
H308 H 0.86997 0.77854 0.47155 0.0
H309 H 0.84345 0.70589 0.44992 0.0
H310 H 0.578 0.75258 0.56231 0.0
H311 H 0.55369 0.67701 0.54308 0.0
H312 H 0.67385 0.79131 0.58638 0.0
H313 H 0.74943 0.83795 0.57466 0.0
C314 C 0.65609 0.2951 0.46506 0.0
C315 C 0.67584 0.34461 0.48917 0.0
C316 C 0.78347 0.27731 0.50621 0.0
C317 C 0.76799 0.23216 0.47972 0.0
N318 N 0.69914 0.20666 0.42949 0.0
N319 N 0.76529 0.38864 0.52914 0.0
C320 C 0.70706 0.24352 0.45785 0.0
C321 C 0.74138 0.33727 0.50892 0.0
N322 N 0.5873 0.29525 0.45001 0.0
N323 N 0.83728 0.26223 0.52908 0.0
H324 H 0.73725 0.43406 0.53106 0.0
H325 H 0.81643 0.38869 0.54168 0.0
H326 H 0.86917 0.2188 0.52774 0.0
H327 H 0.846 0.28977 0.55068 0.0
H328 H 0.56767 0.25608 0.43493 0.0
H329 H 0.54664 0.33053 0.45516 0.0
H330 H 0.6603 0.21801 0.4111 0.0
H331 H 0.73593 0.16899 0.42279 0.0
C332 C 0.36888 0.29292 0.50401 0.0
C333 C 0.35428 0.35583 0.49013 0.0
C334 C 0.22389 0.32477 0.48042 0.0
C335 C 0.23641 0.26678 0.49892 0.0
N336 N 0.31934 0.19751 0.53094 0.0
N337 N 0.26765 0.4348 0.46681 0.0
C338 C 0.30873 0.25076 0.51106 0.0
C339 C 0.28191 0.37236 0.47826 0.0
N340 N 0.4405 0.27341 0.51026 0.0
N341 N 0.15653 0.33403 0.46498 0.0
H342 H 0.30864 0.47095 0.46466 0.0
H343 H 0.21445 0.45252 0.46151 0.0
H344 H 0.11307 0.29994 0.46635 0.0
H345 H 0.1458 0.37203 0.44862 0.0
H346 H 0.45522 0.22532 0.51713 0.0
H347 H 0.48593 0.30351 0.50567 0.0
H348 H 0.36895 0.18843 0.54376 0.0
H349 H 0.27709 0.16481 0.53667 0.0
C350 C 0.36516 0.71242 0.49135 0.0
C351 C 0.35374 0.64862 0.50442 0.0
C352 C 0.22422 0.67727 0.51415 0.0
C353 C 0.23291 0.73641 0.49644 0.0
N354 N 0.30974 0.80811 0.46522 0.0
N355 N 0.27158 0.56689 0.52608 0.0
C356 C 0.30311 0.75396 0.48457 0.0
C357 C 0.2833 0.63031 0.51572 0.0
N358 N 0.43554 0.73348 0.48574 0.0
N359 N 0.15949 0.66632 0.52947 0.0
H360 H 0.31328 0.53093 0.52758 0.0
H361 H 0.21938 0.54823 0.53091 0.0
H362 H 0.1153 0.69998 0.52858 0.0
H363 H 0.15207 0.62731 0.54532 0.0
H364 H 0.44822 0.78212 0.47942 0.0
H365 H 0.48227 0.70405 0.49042 0.0
H366 H 0.35735 0.81845 0.45265 0.0
H367 H 0.26593 0.84024 0.45959 0.0
C368 C 0.06551 0.00706 0.1982 0.0
C369 C 0.01883 0.96591 0.17771 0.0
C370 C 0.95862 0.92398 0.22555 0.0
C371 C 0.01092 0.95923 0.24604 0.0
N372 N 0.12605 0.02074 0.2513 0.0
N373 N 0.93405 0.87257 0.17248 0.0
C374 C 0.06811 0.99668 0.2322 0.0
C375 C 0.96931 0.92043 0.19156 0.0
N376 N 0.10478 0.05807 0.18555 0.0
N377 N 0.89692 0.8965 0.23818 0.0
H378 H 0.9425 0.86674 0.1476 0.0
H379 H 0.90276 0.83439 0.18198 0.0
H380 H 0.8851 0.90032 0.26279 0.0
H381 H 0.85372 0.87603 0.2237 0.0
H382 H 0.1338 0.09337 0.20002 0.0
H383 H 0.10216 0.06941 0.16092 0.0
H384 H 0.17254 0.04298 0.24179 0.0
H385 H 0.1314 0.01214 0.27618 0.0
C386 C 0.97926 0.0813 0.80334 0.0
C387 C 0.0273 0.03605 0.81971 0.0
C388 C 0.08459 0.00749 0.76814 0.0
C389 C 0.02909 0.04463 0.75127 0.0
N390 N 0.91333 0.10548 0.75288 0.0
N391 N 0.11519 0.94506 0.8163 0.0
C392 C 0.9735 0.07857 0.76885 0.0
C393 C 0.07725 0.99604 0.80176 0.0
N394 N 0.94078 0.12822 0.82056 0.0
N395 N 0.14528 0.98461 0.75233 0.0
H396 H 0.10896 0.9328 0.84055 0.0
H397 H 0.14677 0.91059 0.80337 0.0
H398 H 0.15391 0.994 0.7279 0.0
H399 H 0.19053 0.96262 0.76432 0.0
H400 H 0.91048 0.1663 0.80948 0.0
H401 H 0.94549 0.13348 0.84584 0.0
H402 H 0.86794 0.12486 0.76494 0.0
H403 H 0.90501 0.10222 0.72768 0.0
C404 C 0.473 0.42446 0.69195 0.0
C405 C 0.52282 0.4694 0.67791 0.0
C406 C 0.57347 0.49972 0.73223 0.0
C407 C 0.51614 0.4628 0.74629 0.0
N408 N 0.40107 0.40151 0.73882 0.0
N409 N 0.61 0.56069 0.68542 0.0
C410 C 0.46296 0.4282 0.72597 0.0
C411 C 0.57036 0.5101 0.69823 0.0
N412 N 0.43685 0.3769 0.67301 0.0
N413 N 0.63202 0.52324 0.75113 0.0
H414 H 0.60706 0.57202 0.6608 0.0
H415 H 0.63975 0.5957 0.69978 0.0
H416 H 0.63769 0.51462 0.776 0.0
H417 H 0.67856 0.54504 0.74146 0.0
H418 H 0.40526 0.33908 0.68266 0.0
H419 H 0.4448 0.37087 0.64811 0.0
H420 H 0.35736 0.38156 0.72448 0.0
H421 H 0.38968 0.40557 0.76347 0.0
C422 C 0.5769 0.49526 0.30178 0.0
C423 C 0.52747 0.53591 0.31969 0.0
C424 C 0.47376 0.57822 0.26878 0.0
C425 C 0.52895 0.54366 0.25122 0.0
N426 N 0.64453 0.4827 0.25229 0.0
N427 N 0.4418 0.62874 0.32039 0.0
C428 C 0.58415 0.50625 0.26812 0.0
C429 C 0.47974 0.58131 0.30325 0.0
N430 N 0.61442 0.44417 0.31642 0.0
N431 N 0.41375 0.60539 0.2528 0.0
H432 H 0.4467 0.63426 0.34566 0.0
H433 H 0.41177 0.6669 0.30925 0.0
H434 H 0.40525 0.60186 0.22761 0.0
H435 H 0.36861 0.62527 0.26486 0.0
H436 H 0.64555 0.40928 0.30354 0.0
H437 H 0.60823 0.43226 0.34072 0.0
H438 H 0.68962 0.46047 0.26431 0.0
H439 H 0.65313 0.49173 0.22783 0.0
loop_
_geom_bond_atom_site_label_1
_geom_bond_atom_site_label_2
_geom_bond_distance
_geom_bond_site_symmetry_2
_ccdc_geom_bond_type
C0 O16 1.251 . S
C0 O18 1.254 1_554 S
N1 C2 1.333 1_445 S
N1 C6 1.307 . S
N1 Zn7 2.020 . S
C2 N1 1.333 1_665 S
C2 C3 1.379 . S
C2 H20 0.952 . S
C3 C2 1.379 . S
C3 C4 1.390 1_665 S
C3 H30 0.949 . S
C4 C3 1.390 1_445 S
C4 C5 1.357 . S
C5 C4 1.357 . S
C5 C6 1.370 . S
C5 H31 0.950 . S
C6 N1 1.307 . S
C6 C5 1.370 . S
C6 H24 0.948 . S
Zn7 N1 2.020 . S
Zn7 O16 2.039 1_445 S
Zn7 O22 2.034 1_455 S
Zn7 O26 2.025 . S
Zn7 O28 2.024 1_545 S
C8 O27 1.246 1_554 S
C8 O28 1.249 . S
N9 C10 1.307 1_445 S
N9 C11 1.333 . S
N9 Zn15 2.020 . S
C10 N9 1.307 1_665 S
C10 C14 1.370 . S
C10 H21 0.948 . S
C11 N9 1.333 . S
C11 C12 1.379 . S
C11 H19 0.952 . S
C12 C11 1.379 . S
C12 C13 1.390 . S
C12 H32 0.949 . S
C13 C12 1.390 . S
C13 C14 1.357 1_445 S
C14 C10 1.370 . S
C14 C13 1.357 1_665 S
C14 H33 0.950 . S
Zn15 N9 2.020 . S
Zn15 O18 2.025 1_445 S
Zn15 O23 2.024 1_455 S
Zn15 O25 2.039 . S
Zn15 O27 2.034 1_545 S
O16 C0 1.251 . S
O16 Zn7 2.039 1_665 S
C17 O22 1.246 . S
C17 O23 1.249 1_554 S
O18 C0 1.254 1_556 S
O18 Zn15 2.025 1_665 S
H19 C11 0.952 . S
H20 C2 0.952 . S
H21 C10 0.948 . S
O22 Zn7 2.034 1_655 S
O22 C17 1.246 . S
O23 Zn15 2.024 1_655 S
O23 C17 1.249 1_556 S
H24 C6 0.948 . S
O25 Zn15 2.039 . S
O25 C29 1.251 1_556 S
O26 Zn7 2.025 . S
O26 C29 1.254 . S
O27 C8 1.246 1_556 S
O27 Zn15 2.034 1_565 S
O28 Zn7 2.024 1_565 S
O28 C8 1.249 . S
C29 O25 1.251 1_554 S
C29 O26 1.254 . S
H30 C3 0.949 . S
H31 C5 0.950 . S
H32 C12 0.949 . S
H33 C14 0.950 . S
C34 O50 1.251 . S
C34 O52 1.254 . S
N35 C36 1.333 . S
N35 C40 1.307 . S
N35 Zn41 2.020 . S
C36 N35 1.333 . S
C36 C37 1.379 . S
C36 H54 0.952 . S
C37 C36 1.379 . S
C37 C38 1.390 . S
C37 H64 0.949 . S
C38 C37 1.390 . S
C38 C39 1.357 . S
C39 C38 1.357 . S
C39 C40 1.370 . S
C39 H65 0.950 . S
C40 N35 1.307 . S
C40 C39 1.370 . S
C40 H58 0.948 . S
Zn41 N35 2.020 . S
Zn41 O50 2.039 . S
Zn41 O56 2.034 . S
Zn41 O60 2.025 . S
Zn41 O62 2.024 . S
C42 O61 1.246 . S
C42 O62 1.249 . S
N43 C44 1.307 . S
N43 C45 1.333 . S
N43 Zn49 2.020 . S
C44 N43 1.307 . S
C44 C48 1.370 . S
C44 H55 0.948 . S
C45 N43 1.333 . S
C45 C46 1.379 . S
C45 H53 0.952 . S
C46 C45 1.379 . S
C46 C47 1.390 . S
C46 H66 0.949 . S
C47 C46 1.390 . S
C47 C48 1.357 . S
C48 C44 1.370 . S
C48 C47 1.357 . S
C48 H67 0.950 . S
Zn49 N43 2.020 . S
Zn49 O52 2.025 . S
Zn49 O57 2.024 . S
Zn49 O59 2.039 . S
Zn49 O61 2.034 . S
O50 C34 1.251 . S
O50 Zn41 2.039 . S
C51 O56 1.246 . S
C51 O57 1.249 . S
O52 C34 1.254 . S
O52 Zn49 2.025 . S
H53 C45 0.952 . S
H54 C36 0.952 . S
H55 C44 0.948 . S
O56 Zn41 2.034 . S
O56 C51 1.246 . S
O57 Zn49 2.024 . S
O57 C51 1.249 . S
H58 C40 0.948 . S
O59 Zn49 2.039 . S
O59 C63 1.251 . S
O60 Zn41 2.025 . S
O60 C63 1.254 . S
O61 C42 1.246 . S
O61 Zn49 2.034 . S
O62 Zn41 2.024 . S
O62 C42 1.249 . S
C63 O59 1.251 . S
C63 O60 1.254 . S
H64 C37 0.949 . S
H65 C39 0.950 . S
H66 C46 0.949 . S
H67 C48 0.950 . S
C68 C69 1.386 1_565 S
C68 C70 1.397 . S
C68 H92 0.931 . S
C69 C68 1.386 1_545 S
C69 C73 1.397 1_655 S
C70 C68 1.397 . S
C70 C71 1.384 1_655 S
C70 H93 0.930 . S
C71 C70 1.384 1_455 S
C71 C72 1.377 1_565 S
C71 C74 1.481 . S
C72 C71 1.377 1_545 S
C72 C73 1.389 . S
C72 H94 0.929 . S
C73 C69 1.397 1_455 S
C73 C72 1.389 . S
C73 H95 0.931 . S
C74 C71 1.481 . S
C74 C75 1.388 . S
C74 C79 1.389 1_465 S
C75 C74 1.388 . S
C75 C76 1.401 . S
C75 H96 0.930 . S
C76 C75 1.401 . S
C76 C77 1.369 1_455 S
C76 C85 1.511 . S
C77 C76 1.369 1_655 S
C77 C78 1.399 1_565 S
C77 H98 0.932 . S
C78 C77 1.399 1_545 S
C78 C79 1.361 . S
C78 C80 1.500 . S
C79 C74 1.389 1_645 S
C79 C78 1.361 . S
C79 H97 0.931 . S
C80 C78 1.500 . S
C80 C81 1.371 . S
C80 C82 1.365 . S
C81 C80 1.371 . S
C81 C91 1.386 . S
C81 H99 0.931 . S
C82 C80 1.365 . S
C82 C83 1.409 . S
C82 H100 0.929 . S
C83 C82 1.409 . S
C83 C84 1.380 . S
C83 H101 0.930 . S
C84 C83 1.380 . S
C84 C91 1.357 . S
C85 C76 1.511 . S
C85 C86 1.341 . S
C85 C87 1.371 . S
C86 C85 1.341 . S
C86 C90 1.394 . S
C86 H102 0.930 . S
C87 C85 1.371 . S
C87 C88 1.392 . S
C87 H103 0.931 . S
C88 C87 1.392 . S
C88 C89 1.331 . S
C88 H106 0.932 . S
C89 C88 1.331 . S
C89 C90 1.336 . S
C90 C86 1.394 . S
C90 C89 1.336 . S
C90 H105 0.929 . S
C91 C81 1.386 . S
C91 C84 1.357 . S
C91 H104 0.928 . S
H92 C68 0.931 . S
H93 C70 0.930 . S
H94 C72 0.929 . S
H95 C73 0.931 . S
H96 C75 0.930 . S
H97 C79 0.931 . S
H98 C77 0.932 . S
H99 C81 0.931 . S
H100 C82 0.929 . S
H101 C83 0.930 . S
H102 C86 0.930 . S
H103 C87 0.931 . S
H104 C91 0.928 . S
H105 C90 0.929 . S
H106 C88 0.932 . S
C107 C108 1.386 . S
C107 C109 1.397 . S
C107 H131 0.931 . S
C108 C107 1.386 . S
C108 C112 1.397 1_545 S
C109 C107 1.397 . S
C109 C110 1.384 . S
C109 H132 0.930 . S
C110 C109 1.384 . S
C110 C111 1.377 1_545 S
C110 C113 1.481 . S
C111 C110 1.377 1_565 S
C111 C112 1.389 . S
C111 H133 0.929 . S
C112 C108 1.397 1_565 S
C112 C111 1.389 . S
C112 H134 0.931 . S
C113 C110 1.481 . S
C113 C114 1.387 . S
C113 C118 1.390 1_445 S
C114 C113 1.387 . S
C114 C115 1.401 . S
C114 H135 0.930 . S
C115 C114 1.401 . S
C115 C116 1.376 . S
C115 C124 1.511 . S
C116 C115 1.376 . S
C116 C117 1.392 1_445 S
C116 H137 0.931 . S
C117 C116 1.392 1_665 S
C117 C118 1.361 . S
C117 C119 1.500 . S
C118 C113 1.390 1_665 S
C118 C117 1.361 . S
C118 H136 0.931 . S
C119 C117 1.500 . S
C119 C120 1.371 . S
C119 C121 1.365 . S
C120 C119 1.371 . S
C120 C130 1.386 . S
C120 H138 0.931 . S
C121 C119 1.365 . S
C121 C122 1.409 . S
C121 H139 0.929 . S
C122 C121 1.409 . S
C122 C123 1.380 . S
C122 H140 0.930 . S
C123 C122 1.380 . S
C123 C130 1.357 . S
C124 C115 1.511 . S
C124 C125 1.341 . S
C124 C126 1.371 . S
C125 C124 1.341 . S
C125 C129 1.394 . S
C125 H141 0.930 . S
C126 C124 1.371 . S
C126 C127 1.392 . S
C126 H142 0.931 . S
C127 C126 1.392 . S
C127 C128 1.331 . S
C127 H145 0.932 . S
C128 C127 1.331 . S
C128 C129 1.336 . S
C129 C125 1.394 . S
C129 C128 1.336 . S
C129 H144 0.929 . S
C130 C120 1.386 . S
C130 C123 1.357 . S
C130 H143 0.928 . S
H131 C107 0.931 . S
H132 C109 0.930 . S
H133 C111 0.929 . S
H134 C112 0.931 . S
H135 C114 0.930 . S
H136 C118 0.931 . S
H137 C116 0.931 . S
H138 C120 0.931 . S
H139 C121 0.929 . S
H140 C122 0.930 . S
H141 C125 0.930 . S
H142 C126 0.931 . S
H143 C130 0.928 . S
H144 C129 0.929 . S
H145 C127 0.932 . S
C146 C147 1.386 . S
C146 C148 1.397 . S
C146 H170 0.931 . S
C147 C146 1.386 . S
C147 C151 1.397 . S
C148 C146 1.397 . S
C148 C149 1.384 . S
C148 H171 0.930 . S
C149 C148 1.384 . S
C149 C150 1.377 . S
C149 C152 1.481 . S
C150 C149 1.377 . S
C150 C151 1.389 . S
C150 H172 0.929 . S
C151 C147 1.397 . S
C151 C150 1.389 . S
C151 H173 0.931 . S
C152 C149 1.481 . S
C152 C153 1.387 . S
C152 C157 1.390 . S
C153 C152 1.387 . S
C153 C154 1.401 . S
C153 H174 0.930 . S
C154 C153 1.401 . S
C154 C155 1.376 . S
C154 C163 1.511 . S
C155 C154 1.376 . S
C155 C156 1.392 . S
C155 H176 0.931 1_556 S
C156 C155 1.392 . S
C156 C157 1.361 . S
C156 C158 1.500 . S
C157 C152 1.390 . S
C157 C156 1.361 . S
C157 H175 0.931 . S
C158 C156 1.500 . S
C158 C159 1.371 1_556 S
C158 C160 1.365 . S
C159 C158 1.371 1_554 S
C159 C169 1.386 . S
C159 H177 0.931 . S
C160 C158 1.365 . S
C160 C161 1.409 . S
C160 H178 0.929 . S
C161 C160 1.409 . S
C161 C162 1.380 1_556 S
C161 H179 0.930 . S
C162 C161 1.380 1_554 S
C162 C169 1.357 . S
C163 C154 1.511 . S
C163 C164 1.341 . S
C163 C165 1.371 1_556 S
C164 C163 1.341 . S
C164 C168 1.394 . S
C164 H180 0.930 . S
C165 C163 1.371 1_554 S
C165 C166 1.392 . S
C165 H181 0.931 . S
C166 C165 1.392 . S
C166 C167 1.331 . S
C166 H184 0.932 . S
C167 C166 1.331 . S
C167 C168 1.336 1_554 S
C168 C164 1.394 . S
C168 C167 1.336 1_556 S
C168 H183 0.929 . S
C169 C159 1.386 . S
C169 C162 1.357 . S
C169 H182 0.928 . S
H170 C146 0.931 . S
H171 C148 0.930 . S
H172 C150 0.929 . S
H173 C151 0.931 . S
H174 C153 0.930 . S
H175 C157 0.931 . S
H176 C155 0.931 1_554 S
H177 C159 0.931 . S
H178 C160 0.929 . S
H179 C161 0.930 . S
H180 C164 0.930 . S
H181 C165 0.931 . S
H182 C169 0.928 . S
H183 C168 0.929 . S
H184 C166 0.932 . S
C185 C186 1.386 . S
C185 C187 1.397 . S
C185 H209 0.931 . S
C186 C185 1.386 . S
C186 C190 1.397 . S
C187 C185 1.397 . S
C187 C188 1.384 . S
C187 H210 0.930 . S
C188 C187 1.384 . S
C188 C189 1.377 . S
C188 C191 1.481 . S
C189 C188 1.377 . S
C189 C190 1.389 . S
C189 H211 0.929 . S
C190 C186 1.397 . S
C190 C189 1.389 . S
C190 H212 0.931 . S
C191 C188 1.481 . S
C191 C192 1.387 . S
C191 C196 1.390 . S
C192 C191 1.387 . S
C192 C193 1.401 . S
C192 H213 0.930 . S
C193 C192 1.401 . S
C193 C194 1.376 . S
C193 C202 1.511 . S
C194 C193 1.376 . S
C194 C195 1.392 . S
C194 H215 0.931 . S
C195 C194 1.392 . S
C195 C196 1.361 . S
C195 C197 1.500 . S
C196 C191 1.390 . S
C196 C195 1.361 . S
C196 H214 0.931 . S
C197 C195 1.500 . S
C197 C198 1.371 . S
C197 C199 1.365 . S
C198 C197 1.371 . S
C198 C208 1.386 1_554 S
C198 H216 0.931 1_554 S
C199 C197 1.365 . S
C199 C200 1.409 . S
C199 H217 0.929 . S
C200 C199 1.409 . S
C200 C201 1.380 1_554 S
C200 H218 0.930 . S
C201 C200 1.380 1_556 S
C201 C208 1.357 . S
C202 C193 1.511 . S
C202 C203 1.341 . S
C202 C204 1.371 . S
C203 C202 1.341 . S
C203 C207 1.394 . S
C203 H219 0.930 . S
C204 C202 1.371 . S
C204 C205 1.392 1_554 S
C204 H220 0.931 1_554 S
C205 C204 1.392 1_556 S
C205 C206 1.331 1_556 S
C205 H223 0.932 . S
C206 C205 1.331 1_554 S
C206 C207 1.336 . S
C207 C203 1.394 . S
C207 C206 1.336 . S
C207 H222 0.929 . S
C208 C198 1.386 1_556 S
C208 C201 1.357 . S
C208 H221 0.928 . S
H209 C185 0.931 . S
H210 C187 0.930 . S
H211 C189 0.929 . S
H212 C190 0.931 . S
H213 C192 0.930 . S
H214 C196 0.931 . S
H215 C194 0.931 . S
H216 C198 0.931 1_556 S
H217 C199 0.929 . S
H218 C200 0.930 . S
H219 C203 0.930 . S
H220 C204 0.931 1_556 S
H221 C208 0.928 . S
H222 C207 0.929 . S
H223 C205 0.932 . S
C224 C225 1.363 1_556 S
C224 C230 1.379 . S
C224 N232 1.356 . S
C225 C224 1.363 1_554 S
C225 C231 1.363 . S
C226 C227 1.363 . S
C226 C231 1.379 1_556 S
C226 N233 1.356 . S
C227 C226 1.363 . S
C227 C230 1.363 . S
N228 C230 1.356 . S
N228 H240 0.984 . S
N228 H241 0.985 . S
N229 C231 1.356 . S
N229 H234 0.984 . S
N229 H235 0.985 . S
C230 C224 1.379 . S
C230 C227 1.363 . S
C230 N228 1.356 . S
C231 C225 1.363 . S
C231 C226 1.379 1_554 S
C231 N229 1.356 . S
N232 C224 1.356 . S
N232 H238 0.984 . S
N232 H239 0.984 1_556 S
N233 C226 1.356 . S
N233 H236 0.984 . S
N233 H237 0.980 1_556 S
H234 N229 0.984 . S
H235 N229 0.985 . S
H236 N233 0.984 . S
H237 N233 0.980 1_554 S
H238 N232 0.984 . S
H239 N232 0.984 1_554 S
H240 N228 0.984 . S
H241 N228 0.985 . S
C242 C243 1.363 . S
C242 C248 1.379 . S
C242 N250 1.356 . S
C243 C242 1.363 . S
C243 C249 1.363 1_554 S
C244 C245 1.363 1_556 S
C244 C249 1.379 . S
C244 N251 1.356 . S
C245 C244 1.363 1_554 S
C245 C248 1.363 . S
N246 C248 1.356 . S
N246 H258 0.984 . S
N246 H259 0.985 . S
N247 C249 1.356 . S
N247 H252 0.984 . S
N247 H253 0.985 . S
C248 C242 1.379 . S
C248 C245 1.363 . S
C248 N246 1.356 . S
C249 C243 1.363 1_556 S
C249 C244 1.379 . S
C249 N247 1.356 . S
N250 C242 1.356 . S
N250 H256 0.984 . S
N250 H257 0.984 . S
N251 C244 1.356 . S
N251 H254 0.984 . S
N251 H255 0.985 . S
H252 N247 0.984 . S
H253 N247 0.985 . S
H254 N251 0.984 . S
H255 N251 0.985 . S
H256 N250 0.984 . S
H257 N250 0.984 . S
H258 N246 0.984 . S
H259 N246 0.985 . S
C260 C261 1.363 . S
C260 C266 1.379 . S
C260 N268 1.356 . S
C261 C260 1.363 . S
C261 C267 1.363 1_554 S
C262 C263 1.363 . S
C262 C267 1.379 . S
C262 N269 1.356 . S
C263 C262 1.363 . S
C263 C266 1.363 1_556 S
N264 C266 1.356 . S
N264 H276 0.984 . S
N264 H277 0.985 . S
N265 C267 1.356 . S
N265 H270 0.984 . S
N265 H271 0.985 . S
C266 C260 1.379 . S
C266 C263 1.363 1_554 S
C266 N264 1.356 . S
C267 C261 1.363 1_556 S
C267 C262 1.379 . S
C267 N265 1.356 . S
N268 C260 1.356 . S
N268 H274 0.984 . S
N268 H275 0.984 . S
N269 C262 1.356 . S
N269 H272 0.984 . S
N269 H273 0.985 . S
H270 N265 0.984 . S
H271 N265 0.985 . S
H272 N269 0.984 . S
H273 N269 0.985 . S
H274 N268 0.984 . S
H275 N268 0.984 . S
H276 N264 0.984 . S
H277 N264 0.985 . S
C278 C279 1.363 . S
C278 C284 1.379 . S
C278 N286 1.356 . S
C279 C278 1.363 . S
C279 C285 1.363 1_554 S
C280 C281 1.363 . S
C280 C285 1.379 1_554 S
C280 N287 1.356 1_554 S
C281 C280 1.363 . S
C281 C284 1.363 . S
N282 C284 1.356 . S
N282 H294 0.984 . S
N282 H295 0.985 . S
N283 C285 1.356 . S
N283 H288 0.984 . S
N283 H289 0.985 . S
C284 C278 1.379 . S
C284 C281 1.363 . S
C284 N282 1.356 . S
C285 C279 1.363 1_556 S
C285 C280 1.379 1_556 S
C285 N283 1.356 . S
N286 C278 1.356 . S
N286 H292 0.984 . S
N286 H293 0.984 . S
N287 C280 1.356 1_556 S
N287 H290 0.986 . S
N287 H291 0.985 . S
H288 N283 0.984 . S
H289 N283 0.985 . S
H290 N287 0.986 . S
H291 N287 0.985 . S
H292 N286 0.984 . S
H293 N286 0.984 . S
H294 N282 0.984 . S
H295 N282 0.985 . S
C296 C297 1.363 . S
C296 C302 1.379 . S
C296 N304 1.356 . S
C297 C296 1.363 . S
C297 C303 1.363 . S
C298 C299 1.363 . S
C298 C303 1.379 . S
C298 N305 1.356 . S
C299 C298 1.363 . S
C299 C302 1.363 . S
N300 C302 1.356 . S
N300 H312 0.984 . S
N300 H313 0.985 . S
N301 C303 1.356 . S
N301 H306 0.984 . S
N301 H307 0.985 . S
C302 C296 1.379 . S
C302 C299 1.363 . S
C302 N300 1.356 . S
C303 C297 1.363 . S
C303 C298 1.379 . S
C303 N301 1.356 . S
N304 C296 1.356 . S
N304 H310 0.984 . S
N304 H311 0.984 . S
N305 C298 1.356 . S
N305 H308 0.984 . S
N305 H309 0.985 . S
H306 N301 0.984 . S
H307 N301 0.985 . S
H308 N305 0.984 . S
H309 N305 0.985 . S
H310 N304 0.984 . S
H311 N304 0.984 . S
H312 N300 0.984 . S
H313 N300 0.985 . S
C314 C315 1.363 . S
C314 C320 1.379 . S
C314 N322 1.356 . S
C315 C314 1.363 . S
C315 C321 1.363 . S
C316 C317 1.363 . S
C316 C321 1.379 . S
C316 N323 1.356 . S
C317 C316 1.363 . S
C317 C320 1.363 . S
N318 C320 1.356 . S
N318 H330 0.984 . S
N318 H331 0.985 . S
N319 C321 1.356 . S
N319 H324 0.984 . S
N319 H325 0.985 . S
C320 C314 1.379 . S
C320 C317 1.363 . S
C320 N318 1.356 . S
C321 C315 1.363 . S
C321 C316 1.379 . S
C321 N319 1.356 . S
N322 C314 1.356 . S
N322 H328 0.984 . S
N322 H329 0.984 . S
N323 C316 1.356 . S
N323 H326 0.984 . S
N323 H327 0.985 . S
H324 N319 0.984 . S
H325 N319 0.985 . S
H326 N323 0.984 . S
H327 N323 0.985 . S
H328 N322 0.984 . S
H329 N322 0.984 . S
H330 N318 0.984 . S
H331 N318 0.985 . S
C332 C333 1.363 . S
C332 C338 1.379 . S
C332 N340 1.356 . S
C333 C332 1.363 . S
C333 C339 1.363 . S
C334 C335 1.363 . S
C334 C339 1.379 . S
C334 N341 1.356 . S
C335 C334 1.363 . S
C335 C338 1.363 . S
N336 C338 1.356 . S
N336 H348 0.984 . S
N336 H349 0.985 . S
N337 C339 1.356 . S
N337 H342 0.984 . S
N337 H343 0.985 . S
C338 C332 1.379 . S
C338 C335 1.363 . S
C338 N336 1.356 . S
C339 C333 1.363 . S
C339 C334 1.379 . S
C339 N337 1.356 . S
N340 C332 1.356 . S
N340 H346 0.984 . S
N340 H347 0.984 . S
N341 C334 1.356 . S
N341 H344 0.984 . S
N341 H345 0.985 . S
H342 N337 0.984 . S
H343 N337 0.985 . S
H344 N341 0.984 . S
H345 N341 0.985 . S
H346 N340 0.984 . S
H347 N340 0.984 . S
H348 N336 0.984 . S
H349 N336 0.985 . S
C350 C351 1.363 . S
C350 C356 1.379 . S
C350 N358 1.356 . S
C351 C350 1.363 . S
C351 C357 1.363 . S
C352 C353 1.363 . S
C352 C357 1.379 . S
C352 N359 1.356 . S
C353 C352 1.363 . S
C353 C356 1.363 . S
N354 C356 1.356 . S
N354 H366 0.984 . S
N354 H367 0.985 . S
N355 C357 1.356 . S
N355 H360 0.984 . S
N355 H361 0.985 . S
C356 C350 1.379 . S
C356 C353 1.363 . S
C356 N354 1.356 . S
C357 C351 1.363 . S
C357 C352 1.379 . S
C357 N355 1.356 . S
N358 C350 1.356 . S
N358 H364 0.984 . S
N358 H365 0.984 . S
N359 C352 1.356 . S
N359 H362 0.984 . S
N359 H363 0.985 . S
H360 N355 0.984 . S
H361 N355 0.985 . S
H362 N359 0.984 . S
H363 N359 0.985 . S
H364 N358 0.984 . S
H365 N358 0.984 . S
H366 N354 0.984 . S
H367 N354 0.985 . S
C368 C369 1.363 . S
C368 C374 1.379 . S
C368 N376 1.356 . S
C369 C368 1.363 . S
C369 C375 1.363 1_445 S
C370 C371 1.363 1_565 S
C370 C375 1.379 . S
C370 N377 1.356 . S
C371 C370 1.363 1_545 S
C371 C374 1.363 1_655 S
N372 C374 1.356 . S
N372 H384 0.984 . S
N372 H385 0.985 . S
N373 C375 1.356 . S
N373 H378 0.984 . S
N373 H379 0.985 . S
C374 C368 1.379 . S
C374 C371 1.363 1_455 S
C374 N372 1.356 . S
C375 C369 1.363 1_665 S
C375 C370 1.379 . S
C375 N373 1.356 . S
N376 C368 1.356 . S
N376 H382 0.984 . S
N376 H383 0.984 . S
N377 C370 1.356 . S
N377 H380 0.984 . S
N377 H381 0.985 . S
H378 N373 0.984 . S
H379 N373 0.985 . S
H380 N377 0.984 . S
H381 N377 0.985 . S
H382 N376 0.984 . S
H383 N376 0.984 . S
H384 N372 0.984 . S
H385 N372 0.985 . S
C386 C387 1.363 1_655 S
C386 C392 1.379 . S
C386 N394 1.356 . S
C387 C386 1.363 1_455 S
C387 C393 1.363 1_545 S
C388 C389 1.363 1_565 S
C388 C393 1.379 . S
C388 N395 1.356 . S
C389 C388 1.363 1_545 S
C389 C392 1.363 1_455 S
N390 C392 1.356 . S
N390 H402 0.984 . S
N390 H403 0.985 . S
N391 C393 1.356 . S
N391 H396 0.984 . S
N391 H397 0.985 . S
C392 C386 1.379 . S
C392 C389 1.363 1_655 S
C392 N390 1.356 . S
C393 C387 1.363 1_565 S
C393 C388 1.379 . S
C393 N391 1.356 . S
N394 C386 1.356 . S
N394 H400 0.984 . S
N394 H401 0.984 . S
N395 C388 1.356 . S
N395 H398 0.984 . S
N395 H399 0.985 . S
H396 N391 0.984 . S
H397 N391 0.985 . S
H398 N395 0.984 . S
H399 N395 0.985 . S
H400 N394 0.984 . S
H401 N394 0.984 . S
H402 N390 0.984 . S
H403 N390 0.985 . S
C404 C405 1.363 . S
C404 C410 1.379 . S
C404 N412 1.356 . S
C405 C404 1.363 . S
C405 C411 1.363 . S
C406 C407 1.363 . S
C406 C411 1.379 . S
C406 N413 1.356 . S
C407 C406 1.363 . S
C407 C410 1.363 . S
N408 C410 1.356 . S
N408 H420 0.984 . S
N408 H421 0.985 . S
N409 C411 1.356 . S
N409 H414 0.984 . S
N409 H415 0.985 . S
C410 C404 1.379 . S
C410 C407 1.363 . S
C410 N408 1.356 . S
C411 C405 1.363 . S
C411 C406 1.379 . S
C411 N409 1.356 . S
N412 C404 1.356 . S
N412 H418 0.984 . S
N412 H419 0.984 . S
N413 C406 1.356 . S
N413 H416 0.984 . S
N413 H417 0.985 . S
H414 N409 0.984 . S
H415 N409 0.985 . S
H416 N413 0.984 . S
H417 N413 0.985 . S
H418 N412 0.984 . S
H419 N412 0.984 . S
H420 N408 0.984 . S
H421 N408 0.985 . S
C422 C423 1.363 . S
C422 C428 1.379 . S
C422 N430 1.356 . S
C423 C422 1.363 . S
C423 C429 1.363 . S
C424 C425 1.363 . S
C424 C429 1.379 . S
C424 N431 1.356 . S
C425 C424 1.363 . S
C425 C428 1.363 . S
N426 C428 1.356 . S
N426 H438 0.984 . S
N426 H439 0.985 . S
N427 C429 1.356 . S
N427 H432 0.984 . S
N427 H433 0.985 . S
C428 C422 1.379 . S
C428 C425 1.363 . S
C428 N426 1.356 . S
C429 C423 1.363 . S
C429 C424 1.379 . S
C429 N427 1.356 . S
N430 C422 1.356 . S
N430 H436 0.984 . S
N430 H437 0.984 . S
N431 C424 1.356 . S
N431 H434 0.984 . S
N431 H435 0.985 . S
H432 N427 0.984 . S
H433 N427 0.985 . S
H434 N431 0.984 . S
H435 N431 0.985 . S
H436 N430 0.984 . S
H437 N430 0.984 . S
H438 N426 0.984 . S
H439 N426 0.985 . S
C227 C201 1.540 . S
C225 C29 1.628 . S
C243 C8 1.597 . S
C245 C162 1.523 . S
C261 C0 1.589 . S
C263 C206 1.521 1_556 S
C279 C17 1.620 . S
C281 C167 1.543 . S
C297 C63 1.628 . S
C299 C123 1.540 . S
C315 C42 1.597 . S
C317 C84 1.523 . S
C335 C128 1.521 . S
C333 C34 1.589 . S
C353 C89 1.544 . S
C351 C51 1.621 . S
C369 C4 1.491 . S
C371 C69 1.492 . S
C387 C13 1.489 . S
C389 C108 1.491 . S
C407 C147 1.492 . S
C405 C38 1.491 . S
C423 C47 1.489 . S
C425 C186 1.491 . S
