# Generated by pormake.
# Topology rtl, (3,6)-cn, num edge types: 1
# Building blocks:
#     Node 0, Type 0, BuildingBlock: CUQRIR_clean_linker_1, # of connection points: 3
#     Node 1, Type 0, BuildingBlock: CUQRIR_clean_linker_1, # of connection points: 3
#     Node 2, Type 0, BuildingBlock: CUQRIR_clean_linker_1, # of connection points: 3
#     Node 3, Type 0, BuildingBlock: CUQRIR_clean_linker_1, # of connection points: 3
#     Node 4, Type 1, BuildingBlock: FUNLAD_clean_sbu_0, # of connection points: 6
#     Node 5, Type 1, BuildingBlock: FUNLAD_clean_sbu_0, # of connection points: 6
#     Edge 6, Type (0, 1), BuildingBlock: FUNLAD_clean_linker_1, # of connection points: 2
#     Edge 7, Type (0, 1), BuildingBlock: FUNLAD_clean_linker_1, # of connection points: 2
#     Edge 8, Type (0, 1), BuildingBlock: FUNLAD_clean_linker_1, # of connection points: 2
#     Edge 9, Type (0, 1), BuildingBlock: FUNLAD_clean_linker_1, # of connection points: 2
#     Edge 10, Type (0, 1), BuildingBlock: FUNLAD_clean_linker_1, # of connection points: 2
#     Edge 11, Type (0, 1), BuildingBlock: FUNLAD_clean_linker_1, # of connection points: 2
#     Edge 12, Type (0, 1), BuildingBlock: FUNLAD_clean_linker_1, # of connection points: 2
#     Edge 13, Type (0, 1), BuildingBlock: FUNLAD_clean_linker_1, # of connection points: 2
#     Edge 14, Type (0, 1), BuildingBlock: FUNLAD_clean_linker_1, # of connection points: 2
#     Edge 15, Type (0, 1), BuildingBlock: FUNLAD_clean_linker_1, # of connection points: 2
#     Edge 16, Type (0, 1), BuildingBlock: FUNLAD_clean_linker_1, # of connection points: 2
#     Edge 17, Type (0, 1), BuildingBlock: FUNLAD_clean_linker_1, # of connection points: 2
# Relax obj value: 0.002
# Max RMSD: 0.040
# Mean RMSD: 0.033
data_MOF--net-rtl--node1-FUNLAD_clean_sbu_0--node2-CUQRIR_clean_linker_1--edge1-FUNLAD_clean_linker_1
_symmetry_space_group_name_H-M    P1
_symmetry_Int_Tables_number       1
_symmetry_cell_setting            triclinic
loop_
_symmetry_equiv_pos_as_xyz
'x, y, z'
_cell_length_a     38.681478
_cell_length_b     39.02652
_cell_length_c     19.878622
_cell_angle_alpha  89.725166
_cell_angle_beta   90.999433
_cell_angle_gamma 89.833545
loop_
_atom_site_label
_atom_site_type_symbol
_atom_site_fract_x
_atom_site_fract_y
_atom_site_fract_z
_atom_type_partial_charge
C0 C 0.22327 0.83859 0.97816 0.0
N1 N 0.1931 0.85458 0.99145 0.0
N2 N 0.22998 0.81375 0.02409 0.0
C3 C 0.24622 0.84657 0.91986 0.0
C4 C 0.20322 0.81568 0.06707 0.0
N5 N 0.18085 0.84088 0.04757 0.0
C6 C 0.19907 0.79335 0.12832 0.0
H7 H 0.23295 0.8625 0.88098 0.0
H8 H 0.25535 0.82239 0.89681 0.0
H9 H 0.26933 0.86053 0.93883 0.0
H10 H 0.21003 0.80662 0.17301 0.0
H11 H 0.21273 0.76858 0.12385 0.0
H12 H 0.17129 0.78826 0.13653 0.0
C13 C 0.67922 0.71789 0.57242 0.0
N14 N 0.65446 0.69507 0.55423 0.0
N15 N 0.69666 0.72871 0.5178 0.0
C16 C 0.68258 0.73372 0.64102 0.0
C17 C 0.68115 0.7123 0.46562 0.0
N18 N 0.65553 0.69161 0.48782 0.0
C19 C 0.69078 0.71724 0.3931 0.0
H20 H 0.65726 0.73395 0.66625 0.0
H21 H 0.69197 0.76047 0.63753 0.0
H22 H 0.70131 0.71863 0.67206 0.0
H23 H 0.70857 0.69633 0.37847 0.0
H24 H 0.70422 0.74187 0.38479 0.0
H25 H 0.66763 0.71639 0.35975 0.0
C26 C 0.84073 0.20588 0.04158 0.0
N27 N 0.85785 0.17618 0.03037 0.0
N28 N 0.81415 0.20981 0.99684 0.0
C29 C 0.85018 0.23134 0.09539 0.0
C30 C 0.81606 0.18172 0.95747 0.0
N31 N 0.84244 0.16117 0.97795 0.0
C32 C 0.79307 0.17481 0.89725 0.0
H33 H 0.83531 0.22545 0.14123 0.0
H34 H 0.84368 0.25774 0.07858 0.0
H35 H 0.87809 0.23022 0.10863 0.0
H36 H 0.80869 0.17607 0.85102 0.0
H37 H 0.77143 0.19339 0.89277 0.0
H38 H 0.7824 0.14852 0.90082 0.0
C39 C 0.32008 0.3171 0.46554 0.0
N40 N 0.34568 0.33911 0.48304 0.0
N41 N 0.31879 0.29065 0.50994 0.0
C42 C 0.29942 0.31916 0.40077 0.0
C43 C 0.34487 0.29713 0.55428 0.0
N44 N 0.36114 0.32659 0.53821 0.0
C45 C 0.35352 0.27548 0.61518 0.0
H46 H 0.27442 0.3321 0.41028 0.0
H47 H 0.29415 0.29314 0.38113 0.0
H48 H 0.31317 0.33398 0.36178 0.0
H49 H 0.37612 0.25906 0.60386 0.0
H50 H 0.33158 0.25885 0.62925 0.0
H51 H 0.36065 0.29192 0.65864 0.0
C52 C 0.04862 0.96921 0.41555 0.0
N53 N 0.06849 0.06242 0.51194 0.0
C54 C 0.10282 0.05474 0.51333 0.0
C55 C 0.12747 0.08084 0.51055 0.0
C56 C 0.11662 0.11529 0.5067 0.0
C57 C 0.08102 0.12231 0.50537 0.0
C58 C 0.05732 0.09546 0.50813 0.0
Zn59 Zn 0.03254 0.02401 0.51358 0.0
C60 C 0.97509 0.03653 0.41293 0.0
N61 N 0.95651 0.94457 0.51522 0.0
C62 C 0.96695 0.91126 0.51469 0.0
C63 C 0.92242 0.95295 0.51806 0.0
C64 C 0.89727 0.92737 0.52098 0.0
C65 C 0.9073 0.89262 0.52122 0.0
C66 C 0.9427 0.88487 0.51766 0.0
Zn67 Zn 0.99269 0.98279 0.51352 0.0
O68 O 0.06045 0.99658 0.44122 0.0
C69 C 0.04948 0.96946 0.61384 0.0
O70 O 0.02004 0.95715 0.4357 0.0
H71 H 0.91466 0.97959 0.51838 0.0
H72 H 0.11114 0.02828 0.51596 0.0
H73 H 0.99418 0.90512 0.51238 0.0
O74 O 0.06035 0.99833 0.59313 0.0
O75 O 0.02235 0.95662 0.58764 0.0
H76 H 0.02991 0.10105 0.50683 0.0
O77 O 0.96625 0.00948 0.59157 0.0
O78 O 1.00446 0.0509 0.58616 0.0
O79 O 0.96351 0.00927 0.43914 0.0
O80 O 1.00375 0.04876 0.43396 0.0
C81 C 0.97756 0.03828 0.61199 0.0
H82 H 0.15447 0.0737 0.51032 0.0
H83 H 0.07152 0.14842 0.50206 0.0
H84 H 0.87054 0.93524 0.52314 0.0
H85 H 0.95162 0.85853 0.51752 0.0
C86 C 0.47541 0.46967 0.91409 0.0
N87 N 0.57006 0.4441 0.00937 0.0
C88 C 0.5595 0.41088 0.00958 0.0
C89 C 0.58369 0.38427 0.01168 0.0
C90 C 0.61912 0.39177 0.01285 0.0
C91 C 0.62938 0.42634 0.01194 0.0
C92 C 0.60426 0.4522 0.01015 0.0
Zn93 Zn 0.5333 0.48193 0.01216 0.0
C94 C 0.54695 0.53877 0.91771 0.0
N95 N 0.45493 0.55935 0.02152 0.0
C96 C 0.42111 0.54996 0.02212 0.0
C97 C 0.46419 0.59296 0.02196 0.0
C98 C 0.43895 0.61868 0.02249 0.0
C99 C 0.40369 0.6097 0.02279 0.0
C100 C 0.39507 0.57478 0.02278 0.0
Zn101 Zn 0.49214 0.52199 0.01821 0.0
O102 O 0.50403 0.45699 0.93477 0.0
C103 C 0.47917 0.46487 0.1132 0.0
O104 O 0.46393 0.49678 0.9409 0.0
H105 H 0.49124 0.59987 0.02141 0.0
H106 H 0.53221 0.40495 0.00912 0.0
H107 H 0.41426 0.52311 0.02163 0.0
O108 O 0.50696 0.45415 0.08747 0.0
O109 O 0.466 0.49306 0.09297 0.0
H110 H 0.6121 0.47878 0.01057 0.0
O111 O 0.52077 0.54654 0.09571 0.0
O112 O 0.56198 0.50788 0.08889 0.0
O113 O 0.51928 0.5503 0.94315 0.0
O114 O 0.55914 0.51018 0.9377 0.0
C115 C 0.54979 0.53466 0.11596 0.0
H116 H 0.57474 0.358 0.01268 0.0
H117 H 0.65633 0.43359 0.01456 0.0
H118 H 0.4474 0.64502 0.02201 0.0
H119 H 0.3683 0.56667 0.02289 0.0
H120 H 0.30758 0.23638 0.52458 0.0
C121 C 0.29666 0.261 0.50948 0.0
H122 H 0.25079 0.28801 0.48461 0.0
H123 H 0.17436 0.15264 0.38437 0.0
H124 H 0.18308 0.18188 0.27822 0.0
H125 H 0.21723 0.23509 0.27323 0.0
H126 H 0.24309 0.25913 0.37437 0.0
C127 C 0.26245 0.26349 0.49768 0.0
C128 C 0.23963 0.2329 0.50195 0.0
C129 C 0.22369 0.21978 0.44274 0.0
C130 C 0.20325 0.18958 0.44589 0.0
C131 C 0.18914 0.1761 0.38535 0.0
C132 C 0.19417 0.1925 0.32392 0.0
C133 C 0.21345 0.2224 0.32109 0.0
C134 C 0.22819 0.23593 0.37957 0.0
H135 H 0.13026 0.16963 0.4896 0.0
C136 C 0.14109 0.14457 0.50202 0.0
H137 H 0.1875 0.11849 0.52939 0.0
H138 H 0.26287 0.25361 0.62636 0.0
H139 H 0.25356 0.22478 0.73268 0.0
H140 H 0.21876 0.17201 0.73794 0.0
H141 H 0.19291 0.14786 0.63684 0.0
C142 C 0.17546 0.14226 0.51293 0.0
C143 C 0.19785 0.17317 0.50869 0.0
C144 C 0.21344 0.18652 0.56803 0.0
C145 C 0.23404 0.21661 0.56483 0.0
C146 C 0.248 0.2302 0.6254 0.0
C147 C 0.2426 0.21406 0.68696 0.0
C148 C 0.22296 0.18439 0.68993 0.0
C149 C 0.20834 0.17075 0.63143 0.0
H150 H 0.28563 0.80453 0.02636 0.0
C151 C 0.26037 0.79246 0.0279 0.0
H152 H 0.23289 0.74613 0.02153 0.0
H153 H 0.3587 0.66409 0.90056 0.0
H154 H 0.32146 0.67021 0.80187 0.0
H155 H 0.26916 0.70646 0.80453 0.0
H156 H 0.2539 0.73697 0.90585 0.0
C157 C 0.25805 0.7582 0.02683 0.0
C158 C 0.28946 0.73611 0.02609 0.0
C159 C 0.29767 0.71794 0.96688 0.0
C160 C 0.32755 0.69664 0.96566 0.0
C161 C 0.3358 0.67983 0.90498 0.0
C162 C 0.31478 0.68332 0.84774 0.0
C163 C 0.28535 0.70376 0.84921 0.0
C164 C 0.27684 0.72104 0.90781 0.0
H165 H 0.34873 0.62559 0.01884 0.0
C166 C 0.37504 0.63534 0.02192 0.0
H167 H 0.4046 0.68099 0.03029 0.0
H168 H 0.28021 0.76597 0.14912 0.0
H169 H 0.31765 0.76015 0.24751 0.0
H170 H 0.36983 0.72372 0.24498 0.0
H171 H 0.38477 0.69274 0.14403 0.0
C172 C 0.37927 0.66955 0.02443 0.0
C173 C 0.34882 0.69302 0.02419 0.0
C174 C 0.34085 0.71154 0.08314 0.0
C175 C 0.31099 0.7329 0.08432 0.0
C176 C 0.30297 0.75004 0.14476 0.0
C177 C 0.32415 0.74677 0.20183 0.0
C178 C 0.35351 0.72624 0.20043 0.0
C179 C 0.36182 0.70865 0.14206 0.0
H180 H 0.7203 0.77462 0.4757 0.0
C181 C 0.72281 0.75481 0.51408 0.0
H182 H 0.75397 0.73433 0.59245 0.0
H183 H 0.85162 0.84197 0.41065 0.0
H184 H 0.84354 0.80161 0.31953 0.0
H185 H 0.80691 0.75051 0.33358 0.0
H186 H 0.7776 0.73991 0.43839 0.0
C187 C 0.75109 0.75417 0.55424 0.0
C188 C 0.77805 0.7813 0.5495 0.0
C189 C 0.79648 0.78614 0.48903 0.0
C190 C 0.81908 0.81461 0.48218 0.0
C191 C 0.8353 0.82005 0.4197 0.0
C192 C 0.83073 0.79716 0.36675 0.0
C193 C 0.81 0.76848 0.37456 0.0
C194 C 0.79306 0.76287 0.43485 0.0
H195 H 0.89266 0.8378 0.52425 0.0
C196 C 0.88224 0.86372 0.52523 0.0
H197 H 0.83582 0.89243 0.53426 0.0
H198 H 0.74967 0.77745 0.67466 0.0
H199 H 0.76041 0.81585 0.76803 0.0
H200 H 0.80093 0.86418 0.75729 0.0
H201 H 0.83081 0.87446 0.65291 0.0
C202 C 0.84776 0.86742 0.53041 0.0
C203 C 0.82461 0.83718 0.53706 0.0
C204 C 0.80752 0.83134 0.59857 0.0
C205 C 0.78432 0.80332 0.60489 0.0
C206 C 0.76747 0.79832 0.66686 0.0
C207 C 0.77348 0.82014 0.72102 0.0
C208 C 0.79628 0.84736 0.71497 0.0
C209 C 0.8132 0.853 0.65467 0.0
H210 H 0.78649 0.24901 0.93859 0.0
C211 C 0.79072 0.2383 0.98865 0.0
H212 H 0.77556 0.23875 0.08983 0.0
H213 H 0.71837 0.39055 0.08786 0.0
H214 H 0.76626 0.39426 0.16775 0.0
H215 H 0.80591 0.34534 0.1859 0.0
H216 H 0.79775 0.2924 0.1247 0.0
C217 C 0.77194 0.24988 0.04003 0.0
C218 C 0.74689 0.27876 0.031 0.0
C219 C 0.75204 0.30961 0.06722 0.0
C220 C 0.72936 0.33795 0.0563 0.0
C221 C 0.73498 0.36834 0.09362 0.0
C222 C 0.76235 0.37082 0.13975 0.0
C223 C 0.78466 0.34328 0.14998 0.0
C224 C 0.7797 0.313 0.11434 0.0
H225 H 0.63479 0.33852 0.03694 0.0
C226 C 0.64423 0.36295 0.01822 0.0
H227 H 0.68795 0.38873 0.98015 0.0
H228 H 0.72508 0.22135 0.9635 0.0
H229 H 0.67845 0.21822 0.88081 0.0
H230 H 0.64294 0.26915 0.85319 0.0
H231 H 0.65333 0.32321 0.90947 0.0
C232 C 0.67745 0.36501 0.99968 0.0
C233 C 0.70153 0.33544 0.00924 0.0
C234 C 0.69636 0.3046 0.97294 0.0
C235 C 0.7183 0.27587 0.98557 0.0
C236 C 0.71067 0.24456 0.9528 0.0
C237 C 0.68369 0.2423 0.90574 0.0
C238 C 0.66359 0.27092 0.89045 0.0
C239 C 0.6697 0.30175 0.92352 0.0
H240 H 0.12797 0.86013 0.05906 0.0
C241 C 0.15226 0.8545 0.08497 0.0
H242 H 0.18077 0.85899 0.17578 0.0
H243 H 0.05924 0.97348 0.23248 0.0
H244 H 0.08458 1.00599 0.14143 0.0
H245 H 0.1309 0.98103 0.07319 0.0
H246 H 0.15141 0.92319 0.09413 0.0
C247 C 0.15618 0.86322 0.15001 0.0
C248 C 0.12771 0.87845 0.18971 0.0
C249 C 0.1167 0.91269 0.17769 0.0
C250 C 0.09127 0.92775 0.21929 0.0
C251 C 0.07957 0.9614 0.20433 0.0
C252 C 0.09374 0.98025 0.15198 0.0
C253 C 0.11975 0.96616 0.11345 0.0
C254 C 0.13116 0.9328 0.12583 0.0
H255 H 0.09469 0.96125 0.35429 0.0
C256 C 0.06861 0.95208 0.36296 0.0
H257 H 0.03014 0.91659 0.33362 0.0
H258 H 0.14204 0.81207 0.22526 0.0
H259 H 0.11743 0.78005 0.31741 0.0
H260 H 0.07454 0.80673 0.39134 0.0
H261 H 0.05603 0.86548 0.37329 0.0
C262 C 0.05595 0.92645 0.32511 0.0
C263 C 0.07818 0.90918 0.27487 0.0
C264 C 0.08835 0.87466 0.28555 0.0
C265 C 0.11321 0.85933 0.24311 0.0
C266 C 0.12331 0.82498 0.25579 0.0
C267 C 0.10937 0.8063 0.30862 0.0
C268 C 0.08523 0.82132 0.35021 0.0
C269 C 0.07482 0.8551 0.33921 0.0
H270 H 0.60386 0.67517 0.58258 0.0
C271 C 0.6309 0.67723 0.59763 0.0
H272 H 0.6695 0.66259 0.66799 0.0
H273 H 0.57423 0.63698 0.91583 0.0
H274 H 0.60658 0.68692 0.95196 0.0
H275 H 0.64497 0.71713 0.87377 0.0
H276 H 0.65121 0.69759 0.75928 0.0
C277 C 0.6423 0.66119 0.65383 0.0
C278 C 0.61862 0.64284 0.70022 0.0
C279 C 0.61541 0.65447 0.76743 0.0
C280 C 0.59332 0.63705 0.81264 0.0
C281 C 0.59058 0.64928 0.87935 0.0
C282 C 0.60901 0.67792 0.90082 0.0
C283 C 0.63061 0.69493 0.85681 0.0
C284 C 0.63389 0.68345 0.79098 0.0
H285 H 0.5893 0.54721 0.84688 0.0
C286 C 0.56534 0.55803 0.86534 0.0
H287 H 0.53069 0.59998 0.85957 0.0
H288 H 0.62164 0.61086 0.57745 0.0
H289 H 0.58825 0.56167 0.54143 0.0
H290 H 0.54785 0.53336 0.61837 0.0
H291 H 0.5408 0.55402 0.73229 0.0
C292 C 0.55399 0.58815 0.84044 0.0
C293 C 0.57494 0.60763 0.79114 0.0
C294 C 0.57784 0.59609 0.72391 0.0
C295 C 0.60014 0.61332 0.67867 0.0
C296 C 0.60398 0.59988 0.6131 0.0
C297 C 0.5852 0.57138 0.59188 0.0
C298 C 0.56251 0.55538 0.63526 0.0
C299 C 0.55882 0.56742 0.7006 0.0
H300 H 0.9049 0.17899 0.09272 0.0
C301 C 0.88518 0.16202 0.07232 0.0
H302 H 0.86217 0.11344 0.0807 0.0
H303 H 1.00835 0.06789 0.22712 0.0
H304 H 0.03013 0.06533 0.1135 0.0
H305 H 0.99587 0.08853 0.01767 0.0
H306 H 0.93948 0.11417 0.03502 0.0
C307 C 0.88344 0.12989 0.0961 0.0
C308 C 0.90567 0.11876 0.15407 0.0
C309 C 0.93928 0.10552 0.14372 0.0
C310 C 0.95938 0.09299 0.19931 0.0
C311 C 0.9922 0.07832 0.18699 0.0
C312 C 1.00501 0.07665 0.12198 0.0
C313 C 0.9857 0.08966 0.06801 0.0
C314 C 0.95328 0.10409 0.07853 0.0
H315 H 0.93029 0.04193 0.34384 0.0
C316 C 0.95518 0.05299 0.35764 0.0
H317 H 0.99217 0.09073 0.33422 0.0
H318 H 0.84292 0.1443 0.19155 0.0
H319 H 0.82236 0.1501 0.30548 0.0
H320 H 0.85874 0.13206 0.40256 0.0
H321 H 0.91565 0.1077 0.38624 0.0
C322 C 0.96674 0.08021 0.3231 0.0
C323 C 0.94624 0.09479 0.26543 0.0
C324 C 0.91339 0.10995 0.27608 0.0
C325 C 0.89281 0.12126 0.22023 0.0
C326 C 0.85974 0.13548 0.23215 0.0
C327 C 0.84763 0.13904 0.29732 0.0
C328 C 0.86808 0.12883 0.35195 0.0
C329 C 0.90062 0.11457 0.3418 0.0
H330 H 0.40748 0.32607 0.60223 0.0
C331 C 0.38814 0.34243 0.57792 0.0
H332 H 0.36487 0.3913 0.57775 0.0
H333 H 0.41868 0.39709 0.88636 0.0
H334 H 0.36381 0.36895 0.90401 0.0
H335 H 0.32771 0.35 0.80772 0.0
H336 H 0.34656 0.35865 0.69324 0.0
C337 C 0.38587 0.37527 0.59681 0.0
C338 C 0.40725 0.38809 0.65423 0.0
C339 C 0.39522 0.38405 0.72078 0.0
C340 C 0.4155 0.39598 0.77621 0.0
C341 C 0.40375 0.38976 0.84226 0.0
C342 C 0.37239 0.37337 0.85317 0.0
C343 C 0.35211 0.36264 0.79898 0.0
C344 C 0.36327 0.36777 0.73348 0.0
H345 H 0.4301 0.46448 0.84622 0.0
C346 C 0.45543 0.45381 0.85863 0.0
H347 H 0.49348 0.41764 0.83191 0.0
H348 H 0.43902 0.39702 0.53394 0.0
H349 H 0.49295 0.42701 0.51518 0.0
H350 H 0.52641 0.45122 0.61047 0.0
H351 H 0.50631 0.44533 0.72494 0.0
C352 C 0.46758 0.42759 0.8223 0.0
C353 C 0.44709 0.41331 0.76478 0.0
C354 C 0.45916 0.41719 0.69817 0.0
C355 C 0.43945 0.40408 0.64295 0.0
C356 C 0.45248 0.40749 0.57723 0.0
C357 C 0.48351 0.42441 0.5659 0.0
C358 C 0.50238 0.43797 0.61957 0.0
C359 C 0.49055 0.43437 0.68505 0.0
H360 H 0.6042 0.67197 0.46108 0.0
C361 C 0.63138 0.67163 0.44817 0.0
H362 H 0.66899 0.64924 0.38672 0.0
H363 H 0.57322 0.52605 0.2952 0.0
H364 H 0.60574 0.49784 0.38506 0.0
H365 H 0.64396 0.53092 0.46106 0.0
H366 H 0.64941 0.59255 0.44831 0.0
C367 C 0.64167 0.65219 0.39669 0.0
C368 C 0.61668 0.63274 0.35386 0.0
C369 C 0.61453 0.59666 0.36065 0.0
C370 C 0.59321 0.57747 0.31561 0.0
C371 C 0.5901 0.5417 0.32609 0.0
C372 C 0.6084 0.52522 0.37791 0.0
C373 C 0.62989 0.54385 0.42074 0.0
C374 C 0.63291 0.57918 0.41267 0.0
H375 H 0.59684 0.54578 0.17645 0.0
C376 C 0.56955 0.55191 0.17006 0.0
H377 H 0.52736 0.58072 0.20494 0.0
H378 H 0.61181 0.70196 0.3311 0.0
H379 H 0.57927 0.7303 0.24188 0.0
H380 H 0.54467 0.69689 0.1602 0.0
H381 H 0.54235 0.63505 0.16764 0.0
C382 C 0.55464 0.57456 0.21138 0.0
C383 C 0.57511 0.59434 0.26215 0.0
C384 C 0.57625 0.63059 0.25695 0.0
C385 C 0.59673 0.64984 0.3033 0.0
C386 C 0.59725 0.68598 0.29686 0.0
C387 C 0.57852 0.70264 0.24589 0.0
C388 C 0.559 0.68385 0.20001 0.0
C389 C 0.55782 0.64828 0.2051 0.0
H390 H 0.83557 0.1145 0.91935 0.0
C391 C 0.85454 0.13176 0.94156 0.0
H392 H 0.90605 0.14876 0.93821 0.0
H393 H 0.94393 1.00327 0.79845 0.0
H394 H 0.94645 0.98192 0.91332 0.0
H395 H 0.92469 0.01686 1.00682 0.0
H396 H 0.90067 0.07358 0.98592 0.0
C397 C 0.8874 0.12969 0.92171 0.0
C398 C 0.8969 0.10696 0.86508 0.0
C399 C 0.90896 0.0732 0.87745 0.0
C400 C 0.92049 0.05269 0.82315 0.0
C401 C 0.93425 0.01974 0.83753 0.0
C402 C 0.93586 0.00717 0.90326 0.0
C403 C 0.92368 0.02686 0.95594 0.0
C404 C 0.91022 0.05946 0.9434 0.0
H405 H 0.97132 0.08219 0.67942 0.0
C406 C 0.96063 0.05733 0.66614 0.0
H407 H 0.92326 0.01997 0.68972 0.0
H408 H 0.87409 0.17033 0.82383 0.0
H409 H 0.86748 0.19031 0.70867 0.0
H410 H 0.88245 0.15288 0.61376 0.0
H411 H 0.90472 0.09552 0.6336 0.0
C412 C 0.93348 0.04533 0.7002 0.0
C413 C 0.91867 0.06561 0.75631 0.0
C414 C 0.90417 0.09852 0.74361 0.0
C415 C 0.89422 0.11957 0.79818 0.0
C416 C 0.88142 0.15297 0.78426 0.0
C417 C 0.87749 0.16479 0.71835 0.0
C418 C 0.88601 0.14376 0.66494 0.0
C419 C 0.89909 0.11098 0.67709 0.0
H420 H 0.3374 0.38413 0.41928 0.0
C421 C 0.35689 0.36776 0.44306 0.0
H422 H 0.40882 0.35177 0.44166 0.0
H423 H 0.41563 0.39812 0.13486 0.0
H424 H 0.40158 0.33812 0.12047 0.0
H425 H 0.38679 0.30202 0.21796 0.0
H426 H 0.3854 0.3259 0.33023 0.0
C427 C 0.38976 0.37023 0.4234 0.0
C428 C 0.39893 0.39236 0.36528 0.0
C429 C 0.40091 0.3777 0.30035 0.0
C430 C 0.41061 0.39822 0.24449 0.0
C431 C 0.41009 0.38339 0.17956 0.0
C432 C 0.40169 0.34902 0.17045 0.0
C433 C 0.39329 0.32871 0.2253 0.0
C434 C 0.39271 0.34276 0.28953 0.0
H435 H 0.47673 0.42136 0.18369 0.0
C436 C 0.4634 0.44461 0.16738 0.0
H437 H 0.42086 0.47743 0.18329 0.0
H438 H 0.39324 0.42923 0.48098 0.0
H439 H 0.40797 0.48913 0.4964 0.0
H440 H 0.42866 0.52396 0.40139 0.0
H441 H 0.4345 0.49923 0.29046 0.0
C442 C 0.43394 0.45373 0.19751 0.0
C443 C 0.42004 0.43302 0.25427 0.0
C444 C 0.41697 0.44792 0.31894 0.0
C445 C 0.40586 0.42766 0.37424 0.0
C446 C 0.4024 0.44327 0.43786 0.0
C447 C 0.41059 0.47766 0.44726 0.0
C448 C 0.42219 0.49728 0.39374 0.0
C449 C 0.42537 0.48275 0.33023 0.0
H450 H 0.19336 0.90212 0.93326 0.0
C451 C 0.17725 0.88138 0.95144 0.0
H452 H 0.12961 0.85583 0.93957 0.0
H453 H 0.0602 0.99121 0.80869 0.0
H454 H 0.03929 0.99727 0.92258 0.0
H455 H 0.06048 0.95908 0.01363 0.0
H456 H 0.10306 0.91475 0.99158 0.0
C457 C 0.14524 0.87769 0.92551 0.0
C458 C 0.13213 0.90059 0.87063 0.0
C459 C 0.10755 0.92649 0.88441 0.0
C460 C 0.09513 0.94833 0.83174 0.0
C461 C 0.07044 0.9739 0.84684 0.0
C462 C 0.05825 0.97766 0.91195 0.0
C463 C 0.07024 0.95619 0.96327 0.0
C464 C 0.09467 0.9309 0.95 0.0
H465 H 0.05982 0.92392 0.6766 0.0
C466 C 0.06749 0.95037 0.66817 0.0
H467 H 0.09834 0.99129 0.70416 0.0
H468 H 0.17632 0.85108 0.82534 0.0
H469 H 0.19707 0.84494 0.71168 0.0
H470 H 0.17754 0.8845 0.62149 0.0
H471 H 0.13683 0.93025 0.64447 0.0
C472 C 0.09141 0.96444 0.70909 0.0
C473 C 0.10695 0.94387 0.76522 0.0
C474 C 0.13169 0.9181 0.7515 0.0
C475 C 0.14385 0.89605 0.80398 0.0
C476 C 0.1672 0.86938 0.78803 0.0
C477 C 0.17913 0.86539 0.72282 0.0
C478 C 0.16805 0.8876 0.67202 0.0
C479 C 0.14458 0.91365 0.68585 0.0
loop_
_geom_bond_atom_site_label_1
_geom_bond_atom_site_label_2
_geom_bond_distance
_geom_bond_site_symmetry_2
_ccdc_geom_bond_type
C0 N1 1.317 . S
C0 N2 1.348 1_556 S
C0 C3 1.485 . S
N1 C0 1.317 . S
N1 N5 1.370 1_556 S
N2 C0 1.348 1_554 S
N2 C4 1.346 . S
C3 C0 1.485 . S
C3 H7 0.960 . S
C3 H8 0.961 . S
C3 H9 0.960 . S
C4 N2 1.346 . S
C4 N5 1.307 . S
C4 C6 1.486 . S
N5 N1 1.370 1_554 S
N5 C4 1.307 . S
C6 C4 1.486 . S
C6 H10 0.960 . S
C6 H11 0.960 . S
C6 H12 0.959 . S
H7 C3 0.960 . S
H8 C3 0.961 . S
H9 C3 0.960 . S
H10 C6 0.960 . S
H11 C6 0.960 . S
H12 C6 0.959 . S
C13 N14 1.317 . S
C13 N15 1.348 . S
C13 C16 1.485 . S
N14 C13 1.317 . S
N14 N18 1.370 . S
N15 C13 1.348 . S
N15 C17 1.346 . S
C16 C13 1.485 . S
C16 H20 0.960 . S
C16 H21 0.961 . S
C16 H22 0.960 . S
C17 N15 1.346 . S
C17 N18 1.307 . S
C17 C19 1.486 . S
N18 N14 1.370 . S
N18 C17 1.307 . S
C19 C17 1.486 . S
C19 H23 0.960 . S
C19 H24 0.960 . S
C19 H25 0.959 . S
H20 C16 0.960 . S
H21 C16 0.961 . S
H22 C16 0.960 . S
H23 C19 0.960 . S
H24 C19 0.960 . S
H25 C19 0.959 . S
C26 N27 1.317 . S
C26 N28 1.348 . S
C26 C29 1.485 . S
N27 C26 1.317 . S
N27 N31 1.370 1_554 S
N28 C26 1.348 . S
N28 C30 1.346 1_554 S
C29 C26 1.485 . S
C29 H33 0.960 . S
C29 H34 0.961 . S
C29 H35 0.960 . S
C30 N28 1.346 1_556 S
C30 N31 1.307 . S
C30 C32 1.486 . S
N31 N27 1.370 1_556 S
N31 C30 1.307 . S
C32 C30 1.486 . S
C32 H36 0.960 . S
C32 H37 0.960 . S
C32 H38 0.959 . S
H33 C29 0.960 . S
H34 C29 0.961 . S
H35 C29 0.960 . S
H36 C32 0.960 . S
H37 C32 0.960 . S
H38 C32 0.959 . S
C39 N40 1.317 . S
C39 N41 1.348 . S
C39 C42 1.485 . S
N40 C39 1.317 . S
N40 N44 1.370 . S
N41 C39 1.348 . S
N41 C43 1.346 . S
C42 C39 1.485 . S
C42 H46 0.960 . S
C42 H47 0.961 . S
C42 H48 0.960 . S
C43 N41 1.346 . S
C43 N44 1.307 . S
C43 C45 1.486 . S
N44 N40 1.370 . S
N44 C43 1.307 . S
C45 C43 1.486 . S
C45 H49 0.960 . S
C45 H50 0.960 . S
C45 H51 0.959 . S
H46 C42 0.960 . S
H47 C42 0.961 . S
H48 C42 0.960 . S
H49 C45 0.960 . S
H50 C45 0.960 . S
H51 C45 0.959 . S
C52 O68 1.251 . S
C52 O70 1.254 . S
N53 C54 1.333 . S
N53 C58 1.307 . S
N53 Zn59 2.020 . S
C54 N53 1.333 . S
C54 C55 1.379 . S
C54 H72 0.952 . S
C55 C54 1.379 . S
C55 C56 1.390 . S
C55 H82 0.949 . S
C56 C55 1.390 . S
C56 C57 1.357 . S
C57 C56 1.357 . S
C57 C58 1.370 . S
C57 H83 0.950 . S
C58 N53 1.307 . S
C58 C57 1.370 . S
C58 H76 0.948 . S
Zn59 N53 2.020 . S
Zn59 O68 2.039 1_545 S
Zn59 O74 2.034 1_545 S
Zn59 O78 2.025 1_455 S
Zn59 O80 2.024 1_455 S
C60 O79 1.246 . S
C60 O80 1.249 . S
N61 C62 1.307 . S
N61 C63 1.333 . S
N61 Zn67 2.020 . S
C62 N61 1.307 . S
C62 C66 1.370 . S
C62 H73 0.948 . S
C63 N61 1.333 . S
C63 C64 1.379 . S
C63 H71 0.952 . S
C64 C63 1.379 . S
C64 C65 1.390 . S
C64 H84 0.949 . S
C65 C64 1.390 . S
C65 C66 1.357 . S
C66 C62 1.370 . S
C66 C65 1.357 . S
C66 H85 0.950 . S
Zn67 N61 2.020 . S
Zn67 O70 2.025 1_655 S
Zn67 O75 2.024 1_655 S
Zn67 O77 2.039 1_565 S
Zn67 O79 2.034 1_565 S
O68 C52 1.251 . S
O68 Zn59 2.039 1_565 S
C69 O74 1.246 . S
C69 O75 1.249 . S
O70 C52 1.254 . S
O70 Zn67 2.025 1_455 S
H71 C63 0.952 . S
H72 C54 0.952 . S
H73 C62 0.948 . S
O74 Zn59 2.034 1_565 S
O74 C69 1.246 . S
O75 Zn67 2.024 1_455 S
O75 C69 1.249 . S
H76 C58 0.948 . S
O77 Zn67 2.039 1_545 S
O77 C81 1.251 . S
O78 Zn59 2.025 1_655 S
O78 C81 1.254 . S
O79 C60 1.246 . S
O79 Zn67 2.034 1_545 S
O80 Zn59 2.024 1_655 S
O80 C60 1.249 . S
C81 O77 1.251 . S
C81 O78 1.254 . S
H82 C55 0.949 . S
H83 C57 0.950 . S
H84 C64 0.949 . S
H85 C66 0.950 . S
C86 O102 1.251 . S
C86 O104 1.254 . S
N87 C88 1.333 1_554 S
N87 C92 1.307 . S
N87 Zn93 2.020 . S
C88 N87 1.333 1_556 S
C88 C89 1.379 . S
C88 H106 0.952 . S
C89 C88 1.379 . S
C89 C90 1.390 1_556 S
C89 H116 0.949 . S
C90 C89 1.390 1_554 S
C90 C91 1.357 . S
C91 C90 1.357 . S
C91 C92 1.370 . S
C91 H117 0.950 . S
C92 N87 1.307 . S
C92 C91 1.370 . S
C92 H110 0.948 . S
Zn93 N87 2.020 . S
Zn93 O102 2.039 1_554 S
Zn93 O108 2.034 . S
Zn93 O112 2.025 . S
Zn93 O114 2.024 1_554 S
C94 O113 1.246 . S
C94 O114 1.249 . S
N95 C96 1.307 1_554 S
N95 C97 1.333 . S
N95 Zn101 2.020 . S
C96 N95 1.307 1_556 S
C96 C100 1.370 . S
C96 H107 0.948 . S
C97 N95 1.333 . S
C97 C98 1.379 . S
C97 H105 0.952 . S
C98 C97 1.379 . S
C98 C99 1.390 . S
C98 H118 0.949 . S
C99 C98 1.390 . S
C99 C100 1.357 1_554 S
C100 C96 1.370 . S
C100 C99 1.357 1_556 S
C100 H119 0.950 . S
Zn101 N95 2.020 . S
Zn101 O104 2.025 1_554 S
Zn101 O109 2.024 . S
Zn101 O111 2.039 . S
Zn101 O113 2.034 1_554 S
O102 C86 1.251 . S
O102 Zn93 2.039 1_556 S
C103 O108 1.246 . S
C103 O109 1.249 . S
O104 C86 1.254 . S
O104 Zn101 2.025 1_556 S
H105 C97 0.952 . S
H106 C88 0.952 . S
H107 C96 0.948 . S
O108 Zn93 2.034 . S
O108 C103 1.246 . S
O109 Zn101 2.024 . S
O109 C103 1.249 . S
H110 C92 0.948 . S
O111 Zn101 2.039 . S
O111 C115 1.251 . S
O112 Zn93 2.025 . S
O112 C115 1.254 . S
O113 C94 1.246 . S
O113 Zn101 2.034 1_556 S
O114 Zn93 2.024 1_556 S
O114 C94 1.249 . S
C115 O111 1.251 . S
C115 O112 1.254 . S
H116 C89 0.949 . S
H117 C91 0.950 . S
H118 C98 0.949 . S
H119 C100 0.950 . S
H120 C121 0.951 . S
C121 H120 0.951 . S
C121 C127 1.265 . S
H122 C127 0.950 . S
H123 C131 0.949 . S
H124 C132 0.950 . S
H125 C133 0.951 . S
H126 C134 0.951 . S
C127 C121 1.265 . S
C127 H122 0.950 . S
C127 C128 1.478 . S
C128 C127 1.478 . S
C128 C129 1.397 . S
C128 C145 1.394 . S
C129 C128 1.397 . S
C129 C130 1.438 . S
C129 C134 1.429 . S
C130 C129 1.438 . S
C130 C131 1.428 . S
C130 C143 1.394 . S
C131 H123 0.949 . S
C131 C130 1.428 . S
C131 C132 1.345 . S
C132 H124 0.950 . S
C132 C131 1.345 . S
C132 C133 1.424 . S
C133 H125 0.951 . S
C133 C132 1.424 . S
C133 C134 1.347 . S
C134 H126 0.951 . S
C134 C129 1.429 . S
C134 C133 1.347 . S
H135 C136 0.951 . S
C136 H135 0.951 . S
C136 C142 1.265 . S
H137 C142 0.950 . S
H138 C146 0.949 . S
H139 C147 0.950 . S
H140 C148 0.951 . S
H141 C149 0.951 . S
C142 C136 1.265 . S
C142 H137 0.950 . S
C142 C143 1.478 . S
C143 C130 1.394 . S
C143 C142 1.478 . S
C143 C144 1.397 . S
C144 C143 1.397 . S
C144 C145 1.438 . S
C144 C149 1.429 . S
C145 C128 1.394 . S
C145 C144 1.438 . S
C145 C146 1.428 . S
C146 H138 0.949 . S
C146 C145 1.428 . S
C146 C147 1.345 . S
C147 H139 0.950 . S
C147 C146 1.345 . S
C147 C148 1.424 . S
C148 H140 0.951 . S
C148 C147 1.424 . S
C148 C149 1.347 . S
C149 H141 0.951 . S
C149 C144 1.429 . S
C149 C148 1.347 . S
H150 C151 0.951 . S
C151 H150 0.951 . S
C151 C157 1.265 . S
H152 C157 0.950 . S
H153 C161 0.949 . S
H154 C162 0.950 . S
H155 C163 0.951 . S
H156 C164 0.951 . S
C157 C151 1.265 . S
C157 H152 0.950 . S
C157 C158 1.478 . S
C158 C157 1.478 . S
C158 C159 1.397 1_554 S
C158 C175 1.394 . S
C159 C158 1.397 1_556 S
C159 C160 1.438 . S
C159 C164 1.429 . S
C160 C159 1.438 . S
C160 C161 1.428 . S
C160 C173 1.394 1_556 S
C161 H153 0.949 . S
C161 C160 1.428 . S
C161 C162 1.345 . S
C162 H154 0.950 . S
C162 C161 1.345 . S
C162 C163 1.424 . S
C163 H155 0.951 . S
C163 C162 1.424 . S
C163 C164 1.347 . S
C164 H156 0.951 . S
C164 C159 1.429 . S
C164 C163 1.347 . S
H165 C166 0.951 . S
C166 H165 0.951 . S
C166 C172 1.265 . S
H167 C172 0.950 . S
H168 C176 0.949 . S
H169 C177 0.950 . S
H170 C178 0.951 . S
H171 C179 0.951 . S
C172 C166 1.265 . S
C172 H167 0.950 . S
C172 C173 1.478 . S
C173 C160 1.394 1_554 S
C173 C172 1.478 . S
C173 C174 1.397 . S
C174 C173 1.397 . S
C174 C175 1.438 . S
C174 C179 1.429 . S
C175 C158 1.394 . S
C175 C174 1.438 . S
C175 C176 1.428 . S
C176 H168 0.949 . S
C176 C175 1.428 . S
C176 C177 1.345 . S
C177 H169 0.950 . S
C177 C176 1.345 . S
C177 C178 1.424 . S
C178 H170 0.951 . S
C178 C177 1.424 . S
C178 C179 1.347 . S
C179 H171 0.951 . S
C179 C174 1.429 . S
C179 C178 1.347 . S
H180 C181 0.951 . S
C181 H180 0.951 . S
C181 C187 1.265 . S
H182 C187 0.950 . S
H183 C191 0.949 . S
H184 C192 0.950 . S
H185 C193 0.951 . S
H186 C194 0.951 . S
C187 C181 1.265 . S
C187 H182 0.950 . S
C187 C188 1.478 . S
C188 C187 1.478 . S
C188 C189 1.397 . S
C188 C205 1.394 . S
C189 C188 1.397 . S
C189 C190 1.438 . S
C189 C194 1.429 . S
C190 C189 1.438 . S
C190 C191 1.428 . S
C190 C203 1.394 . S
C191 H183 0.949 . S
C191 C190 1.428 . S
C191 C192 1.345 . S
C192 H184 0.950 . S
C192 C191 1.345 . S
C192 C193 1.424 . S
C193 H185 0.951 . S
C193 C192 1.424 . S
C193 C194 1.347 . S
C194 H186 0.951 . S
C194 C189 1.429 . S
C194 C193 1.347 . S
H195 C196 0.951 . S
C196 H195 0.951 . S
C196 C202 1.265 . S
H197 C202 0.950 . S
H198 C206 0.949 . S
H199 C207 0.950 . S
H200 C208 0.951 . S
H201 C209 0.951 . S
C202 C196 1.265 . S
C202 H197 0.950 . S
C202 C203 1.478 . S
C203 C190 1.394 . S
C203 C202 1.478 . S
C203 C204 1.397 . S
C204 C203 1.397 . S
C204 C205 1.438 . S
C204 C209 1.429 . S
C205 C188 1.394 . S
C205 C204 1.438 . S
C205 C206 1.428 . S
C206 H198 0.949 . S
C206 C205 1.428 . S
C206 C207 1.345 . S
C207 H199 0.950 . S
C207 C206 1.345 . S
C207 C208 1.424 . S
C208 H200 0.951 . S
C208 C207 1.424 . S
C208 C209 1.347 . S
C209 H201 0.951 . S
C209 C204 1.429 . S
C209 C208 1.347 . S
H210 C211 0.951 . S
C211 H210 0.951 . S
C211 C217 1.265 1_556 S
H212 C217 0.950 . S
H213 C221 0.949 . S
H214 C222 0.950 . S
H215 C223 0.951 . S
H216 C224 0.951 . S
C217 C211 1.265 1_554 S
C217 H212 0.950 . S
C217 C218 1.478 . S
C218 C217 1.478 . S
C218 C219 1.397 . S
C218 C235 1.394 1_554 S
C219 C218 1.397 . S
C219 C220 1.438 . S
C219 C224 1.429 . S
C220 C219 1.438 . S
C220 C221 1.428 . S
C220 C233 1.394 1_554 S
C221 H213 0.949 . S
C221 C220 1.428 . S
C221 C222 1.345 . S
C222 H214 0.950 . S
C222 C221 1.345 . S
C222 C223 1.424 . S
C223 H215 0.951 . S
C223 C222 1.424 . S
C223 C224 1.347 . S
C224 H216 0.951 . S
C224 C219 1.429 . S
C224 C223 1.347 . S
H225 C226 0.951 . S
C226 H225 0.951 . S
C226 C232 1.265 1_554 S
H227 C232 0.950 . S
H228 C236 0.949 . S
H229 C237 0.950 . S
H230 C238 0.951 . S
H231 C239 0.951 . S
C232 C226 1.265 1_556 S
C232 H227 0.950 . S
C232 C233 1.478 . S
C233 C220 1.394 1_556 S
C233 C232 1.478 . S
C233 C234 1.397 . S
C234 C233 1.397 . S
C234 C235 1.438 . S
C234 C239 1.429 . S
C235 C218 1.394 1_556 S
C235 C234 1.438 . S
C235 C236 1.428 . S
C236 H228 0.949 . S
C236 C235 1.428 . S
C236 C237 1.345 . S
C237 H229 0.950 . S
C237 C236 1.345 . S
C237 C238 1.424 . S
C238 H230 0.951 . S
C238 C237 1.424 . S
C238 C239 1.347 . S
C239 H231 0.951 . S
C239 C234 1.429 . S
C239 C238 1.347 . S
H240 C241 0.951 . S
C241 H240 0.951 . S
C241 C247 1.265 . S
H242 C247 0.950 . S
H243 C251 0.949 . S
H244 C252 0.968 . S
H245 C253 0.951 1_545 S
H246 C254 0.951 . S
C247 C241 1.265 . S
C247 H242 0.950 . S
C247 C248 1.478 . S
C248 C247 1.478 . S
C248 C249 1.397 . S
C248 C265 1.394 . S
C249 C248 1.397 . S
C249 C250 1.438 . S
C249 C254 1.429 . S
C250 C249 1.438 . S
C250 C251 1.428 . S
C250 C263 1.394 . S
C251 H243 0.949 . S
C251 C250 1.428 . S
C251 C252 1.333 1_565 S
C252 H244 0.968 . S
C252 C251 1.333 1_545 S
C252 C253 1.417 1_545 S
C253 H245 0.951 1_565 S
C253 C252 1.417 1_565 S
C253 C254 1.347 . S
C254 H246 0.951 . S
C254 C249 1.429 . S
C254 C253 1.347 . S
H255 C256 0.951 . S
C256 H255 0.951 . S
C256 C262 1.265 . S
H257 C262 0.950 . S
H258 C266 0.949 . S
H259 C267 0.950 . S
H260 C268 0.951 . S
H261 C269 0.951 . S
C262 C256 1.265 . S
C262 H257 0.950 . S
C262 C263 1.478 . S
C263 C250 1.394 . S
C263 C262 1.478 . S
C263 C264 1.397 . S
C264 C263 1.397 . S
C264 C265 1.438 . S
C264 C269 1.429 . S
C265 C248 1.394 . S
C265 C264 1.438 . S
C265 C266 1.428 . S
C266 H258 0.949 . S
C266 C265 1.428 . S
C266 C267 1.345 . S
C267 H259 0.950 . S
C267 C266 1.345 . S
C267 C268 1.424 . S
C268 H260 0.951 . S
C268 C267 1.424 . S
C268 C269 1.347 . S
C269 H261 0.951 . S
C269 C264 1.429 . S
C269 C268 1.347 . S
H270 C271 0.951 . S
C271 H270 0.951 . S
C271 C277 1.265 . S
H272 C277 0.950 . S
H273 C281 0.949 . S
H274 C282 0.950 . S
H275 C283 0.951 . S
H276 C284 0.951 . S
C277 C271 1.265 . S
C277 H272 0.950 . S
C277 C278 1.478 . S
C278 C277 1.478 . S
C278 C279 1.397 . S
C278 C295 1.394 . S
C279 C278 1.397 . S
C279 C280 1.438 . S
C279 C284 1.429 . S
C280 C279 1.438 . S
C280 C281 1.428 . S
C280 C293 1.394 . S
C281 H273 0.949 . S
C281 C280 1.428 . S
C281 C282 1.345 . S
C282 H274 0.950 . S
C282 C281 1.345 . S
C282 C283 1.424 . S
C283 H275 0.951 . S
C283 C282 1.424 . S
C283 C284 1.347 . S
C284 H276 0.951 . S
C284 C279 1.429 . S
C284 C283 1.347 . S
H285 C286 0.951 . S
C286 H285 0.951 . S
C286 C292 1.265 . S
H287 C292 0.950 . S
H288 C296 0.949 . S
H289 C297 0.950 . S
H290 C298 0.951 . S
H291 C299 0.951 . S
C292 C286 1.265 . S
C292 H287 0.950 . S
C292 C293 1.478 . S
C293 C280 1.394 . S
C293 C292 1.478 . S
C293 C294 1.397 . S
C294 C293 1.397 . S
C294 C295 1.438 . S
C294 C299 1.429 . S
C295 C278 1.394 . S
C295 C294 1.438 . S
C295 C296 1.428 . S
C296 H288 0.949 . S
C296 C295 1.428 . S
C296 C297 1.345 . S
C297 H289 0.950 . S
C297 C296 1.345 . S
C297 C298 1.424 . S
C298 H290 0.951 . S
C298 C297 1.424 . S
C298 C299 1.347 . S
C299 H291 0.951 . S
C299 C294 1.429 . S
C299 C298 1.347 . S
H300 C301 0.951 . S
C301 H300 0.951 . S
C301 C307 1.265 . S
H302 C307 0.950 . S
H303 C311 0.949 . S
H304 C312 0.950 . S
H305 C313 0.951 . S
H306 C314 0.951 . S
C307 C301 1.265 . S
C307 H302 0.950 . S
C307 C308 1.478 . S
C308 C307 1.478 . S
C308 C309 1.397 . S
C308 C325 1.394 . S
C309 C308 1.397 . S
C309 C310 1.438 . S
C309 C314 1.429 . S
C310 C309 1.438 . S
C310 C311 1.428 . S
C310 C323 1.394 . S
C311 H303 0.949 . S
C311 C310 1.428 . S
C311 C312 1.345 . S
C312 H304 0.950 . S
C312 C311 1.345 . S
C312 C313 1.424 . S
C313 H305 0.951 . S
C313 C312 1.424 . S
C313 C314 1.347 . S
C314 H306 0.951 . S
C314 C309 1.429 . S
C314 C313 1.347 . S
H315 C316 0.951 . S
C316 H315 0.951 . S
C316 C322 1.265 . S
H317 C322 0.950 . S
H318 C326 0.949 . S
H319 C327 0.950 . S
H320 C328 0.951 . S
H321 C329 0.951 . S
C322 C316 1.265 . S
C322 H317 0.950 . S
C322 C323 1.478 . S
C323 C310 1.394 . S
C323 C322 1.478 . S
C323 C324 1.397 . S
C324 C323 1.397 . S
C324 C325 1.438 . S
C324 C329 1.429 . S
C325 C308 1.394 . S
C325 C324 1.438 . S
C325 C326 1.428 . S
C326 H318 0.949 . S
C326 C325 1.428 . S
C326 C327 1.345 . S
C327 H319 0.950 . S
C327 C326 1.345 . S
C327 C328 1.424 . S
C328 H320 0.951 . S
C328 C327 1.424 . S
C328 C329 1.347 . S
C329 H321 0.951 . S
C329 C324 1.429 . S
C329 C328 1.347 . S
H330 C331 0.951 . S
C331 H330 0.951 . S
C331 C337 1.265 . S
H332 C337 0.950 . S
H333 C341 0.949 . S
H334 C342 0.950 . S
H335 C343 0.951 . S
H336 C344 0.951 . S
C337 C331 1.265 . S
C337 H332 0.950 . S
C337 C338 1.478 . S
C338 C337 1.478 . S
C338 C339 1.397 . S
C338 C355 1.394 . S
C339 C338 1.397 . S
C339 C340 1.438 . S
C339 C344 1.429 . S
C340 C339 1.438 . S
C340 C341 1.428 . S
C340 C353 1.394 . S
C341 H333 0.949 . S
C341 C340 1.428 . S
C341 C342 1.345 . S
C342 H334 0.950 . S
C342 C341 1.345 . S
C342 C343 1.424 . S
C343 H335 0.951 . S
C343 C342 1.424 . S
C343 C344 1.347 . S
C344 H336 0.951 . S
C344 C339 1.429 . S
C344 C343 1.347 . S
H345 C346 0.951 . S
C346 H345 0.951 . S
C346 C352 1.265 . S
H347 C352 0.950 . S
H348 C356 0.949 . S
H349 C357 0.950 . S
H350 C358 0.951 . S
H351 C359 0.951 . S
C352 C346 1.265 . S
C352 H347 0.950 . S
C352 C353 1.478 . S
C353 C340 1.394 . S
C353 C352 1.478 . S
C353 C354 1.397 . S
C354 C353 1.397 . S
C354 C355 1.438 . S
C354 C359 1.429 . S
C355 C338 1.394 . S
C355 C354 1.438 . S
C355 C356 1.428 . S
C356 H348 0.949 . S
C356 C355 1.428 . S
C356 C357 1.345 . S
C357 H349 0.950 . S
C357 C356 1.345 . S
C357 C358 1.424 . S
C358 H350 0.951 . S
C358 C357 1.424 . S
C358 C359 1.347 . S
C359 H351 0.951 . S
C359 C354 1.429 . S
C359 C358 1.347 . S
H360 C361 0.951 . S
C361 H360 0.951 . S
C361 C367 1.265 . S
H362 C367 0.950 . S
H363 C371 0.949 . S
H364 C372 0.950 . S
H365 C373 0.951 . S
H366 C374 0.951 . S
C367 C361 1.265 . S
C367 H362 0.950 . S
C367 C368 1.478 . S
C368 C367 1.478 . S
C368 C369 1.397 . S
C368 C385 1.394 . S
C369 C368 1.397 . S
C369 C370 1.438 . S
C369 C374 1.429 . S
C370 C369 1.438 . S
C370 C371 1.428 . S
C370 C383 1.394 . S
C371 H363 0.949 . S
C371 C370 1.428 . S
C371 C372 1.345 . S
C372 H364 0.950 . S
C372 C371 1.345 . S
C372 C373 1.424 . S
C373 H365 0.951 . S
C373 C372 1.424 . S
C373 C374 1.347 . S
C374 H366 0.951 . S
C374 C369 1.429 . S
C374 C373 1.347 . S
H375 C376 0.951 . S
C376 H375 0.951 . S
C376 C382 1.265 . S
H377 C382 0.950 . S
H378 C386 0.949 . S
H379 C387 0.950 . S
H380 C388 0.951 . S
H381 C389 0.951 . S
C382 C376 1.265 . S
C382 H377 0.950 . S
C382 C383 1.478 . S
C383 C370 1.394 . S
C383 C382 1.478 . S
C383 C384 1.397 . S
C384 C383 1.397 . S
C384 C385 1.438 . S
C384 C389 1.429 . S
C385 C368 1.394 . S
C385 C384 1.438 . S
C385 C386 1.428 . S
C386 H378 0.949 . S
C386 C385 1.428 . S
C386 C387 1.345 . S
C387 H379 0.950 . S
C387 C386 1.345 . S
C387 C388 1.424 . S
C388 H380 0.951 . S
C388 C387 1.424 . S
C388 C389 1.347 . S
C389 H381 0.951 . S
C389 C384 1.429 . S
C389 C388 1.347 . S
H390 C391 0.951 . S
C391 H390 0.951 . S
C391 C397 1.265 . S
H392 C397 0.950 . S
H393 C401 0.949 . S
H394 C402 0.950 1_565 S
H395 C403 0.951 . S
H396 C404 0.951 . S
C397 C391 1.265 . S
C397 H392 0.950 . S
C397 C398 1.478 . S
C398 C397 1.478 . S
C398 C399 1.397 . S
C398 C415 1.394 . S
C399 C398 1.397 . S
C399 C400 1.438 . S
C399 C404 1.429 . S
C400 C399 1.438 . S
C400 C401 1.428 . S
C400 C413 1.394 . S
C401 H393 0.949 . S
C401 C400 1.428 . S
C401 C402 1.345 . S
C402 H394 0.950 1_545 S
C402 C401 1.345 . S
C402 C403 1.424 . S
C403 H395 0.951 . S
C403 C402 1.424 . S
C403 C404 1.347 . S
C404 H396 0.951 . S
C404 C399 1.429 . S
C404 C403 1.347 . S
H405 C406 0.951 . S
C406 H405 0.951 . S
C406 C412 1.265 . S
H407 C412 0.950 . S
H408 C416 0.949 . S
H409 C417 0.950 . S
H410 C418 0.951 . S
H411 C419 0.951 . S
C412 C406 1.265 . S
C412 H407 0.950 . S
C412 C413 1.478 . S
C413 C400 1.394 . S
C413 C412 1.478 . S
C413 C414 1.397 . S
C414 C413 1.397 . S
C414 C415 1.438 . S
C414 C419 1.429 . S
C415 C398 1.394 . S
C415 C414 1.438 . S
C415 C416 1.428 . S
C416 H408 0.949 . S
C416 C415 1.428 . S
C416 C417 1.345 . S
C417 H409 0.950 . S
C417 C416 1.345 . S
C417 C418 1.424 . S
C418 H410 0.951 . S
C418 C417 1.424 . S
C418 C419 1.347 . S
C419 H411 0.951 . S
C419 C414 1.429 . S
C419 C418 1.347 . S
H420 C421 0.951 . S
C421 H420 0.951 . S
C421 C427 1.265 . S
H422 C427 0.950 . S
H423 C431 0.949 . S
H424 C432 0.950 . S
H425 C433 0.951 . S
H426 C434 0.951 . S
C427 C421 1.265 . S
C427 H422 0.950 . S
C427 C428 1.478 . S
C428 C427 1.478 . S
C428 C429 1.397 . S
C428 C445 1.394 . S
C429 C428 1.397 . S
C429 C430 1.438 . S
C429 C434 1.429 . S
C430 C429 1.438 . S
C430 C431 1.428 . S
C430 C443 1.394 . S
C431 H423 0.949 . S
C431 C430 1.428 . S
C431 C432 1.345 . S
C432 H424 0.950 . S
C432 C431 1.345 . S
C432 C433 1.424 . S
C433 H425 0.951 . S
C433 C432 1.424 . S
C433 C434 1.347 . S
C434 H426 0.951 . S
C434 C429 1.429 . S
C434 C433 1.347 . S
H435 C436 0.951 . S
C436 H435 0.951 . S
C436 C442 1.265 . S
H437 C442 0.950 . S
H438 C446 0.949 . S
H439 C447 0.950 . S
H440 C448 0.951 . S
H441 C449 0.951 . S
C442 C436 1.265 . S
C442 H437 0.950 . S
C442 C443 1.478 . S
C443 C430 1.394 . S
C443 C442 1.478 . S
C443 C444 1.397 . S
C444 C443 1.397 . S
C444 C445 1.438 . S
C444 C449 1.429 . S
C445 C428 1.394 . S
C445 C444 1.438 . S
C445 C446 1.428 . S
C446 H438 0.949 . S
C446 C445 1.428 . S
C446 C447 1.345 . S
C447 H439 0.950 . S
C447 C446 1.345 . S
C447 C448 1.424 . S
C448 H440 0.951 . S
C448 C447 1.424 . S
C448 C449 1.347 . S
C449 H441 0.951 . S
C449 C444 1.429 . S
C449 C448 1.347 . S
H450 C451 0.951 . S
C451 H450 0.951 . S
C451 C457 1.265 . S
H452 C457 0.950 . S
H453 C461 0.949 . S
H454 C462 0.950 1_545 S
H455 C463 0.951 . S
H456 C464 0.951 . S
C457 C451 1.265 . S
C457 H452 0.950 . S
C457 C458 1.478 . S
C458 C457 1.478 . S
C458 C459 1.397 . S
C458 C475 1.394 . S
C459 C458 1.397 . S
C459 C460 1.438 . S
C459 C464 1.429 . S
C460 C459 1.438 . S
C460 C461 1.428 . S
C460 C473 1.394 . S
C461 H453 0.949 . S
C461 C460 1.428 . S
C461 C462 1.345 . S
C462 H454 0.950 1_565 S
C462 C461 1.345 . S
C462 C463 1.424 . S
C463 H455 0.951 . S
C463 C462 1.424 . S
C463 C464 1.347 . S
C464 H456 0.951 . S
C464 C459 1.429 . S
C464 C463 1.347 . S
H465 C466 0.951 . S
C466 H465 0.951 . S
C466 C472 1.265 . S
H467 C472 0.950 . S
H468 C476 0.949 . S
H469 C477 0.950 . S
H470 C478 0.951 . S
H471 C479 0.951 . S
C472 C466 1.265 . S
C472 H467 0.950 . S
C472 C473 1.478 . S
C473 C460 1.394 . S
C473 C472 1.478 . S
C473 C474 1.397 . S
C474 C473 1.397 . S
C474 C475 1.438 . S
C474 C479 1.429 . S
C475 C458 1.394 . S
C475 C474 1.438 . S
C475 C476 1.428 . S
C476 H468 0.949 . S
C476 C475 1.428 . S
C476 C477 1.345 . S
C477 H469 0.950 . S
C477 C476 1.345 . S
C477 C478 1.424 . S
C478 H470 0.951 . S
C478 C477 1.424 . S
C478 C479 1.347 . S
C479 H471 0.951 . S
C479 C474 1.429 . S
C479 C478 1.347 . S
C136 C56 1.499 . S
C121 N41 1.503 . S
C151 N2 1.503 . S
C166 C99 1.498 . S
C181 N15 1.511 . S
C196 C65 1.498 . S
C211 N28 1.504 1_556 S
C226 C90 1.499 . S
C256 C52 1.507 . S
C241 N5 1.511 . S
C286 C94 1.494 . S
C271 N14 1.520 . S
C301 N27 1.481 . S
C316 C60 1.514 . S
C331 N44 1.512 . S
C346 C86 1.505 . S
C376 C115 1.504 . S
C361 N18 1.516 . S
C406 C81 1.513 . S
C391 N31 1.493 . S
C436 C103 1.516 . S
C421 N40 1.499 . S
C451 N1 1.488 . S
C466 C69 1.509 . S
