# Generated by pormake.
# Topology tbo, (3,4)-cn, num edge types: 1
# Building blocks:
#     Node 0, Type 0, BuildingBlock: WUSLED_clean_sbu_0, # of connection points: 3
#     Node 1, Type 0, BuildingBlock: WUSLED_clean_sbu_0, # of connection points: 3
#     Node 2, Type 0, BuildingBlock: WUSLED_clean_sbu_0, # of connection points: 3
#     Node 3, Type 0, BuildingBlock: WUSLED_clean_sbu_0, # of connection points: 3
#     Node 4, Type 0, BuildingBlock: WUSLED_clean_sbu_0, # of connection points: 3
#     Node 5, Type 0, BuildingBlock: WUSLED_clean_sbu_0, # of connection points: 3
#     Node 6, Type 0, BuildingBlock: WUSLED_clean_sbu_0, # of connection points: 3
#     Node 7, Type 0, BuildingBlock: WUSLED_clean_sbu_0, # of connection points: 3
#     Node 8, Type 0, BuildingBlock: WUSLED_clean_sbu_0, # of connection points: 3
#     Node 9, Type 0, BuildingBlock: WUSLED_clean_sbu_0, # of connection points: 3
#     Node 10, Type 0, BuildingBlock: WUSLED_clean_sbu_0, # of connection points: 3
#     Node 11, Type 0, BuildingBlock: WUSLED_clean_sbu_0, # of connection points: 3
#     Node 12, Type 0, BuildingBlock: WUSLED_clean_sbu_0, # of connection points: 3
#     Node 13, Type 0, BuildingBlock: WUSLED_clean_sbu_0, # of connection points: 3
#     Node 14, Type 0, BuildingBlock: WUSLED_clean_sbu_0, # of connection points: 3
#     Node 15, Type 0, BuildingBlock: WUSLED_clean_sbu_0, # of connection points: 3
#     Node 16, Type 0, BuildingBlock: WUSLED_clean_sbu_0, # of connection points: 3
#     Node 17, Type 0, BuildingBlock: WUSLED_clean_sbu_0, # of connection points: 3
#     Node 18, Type 0, BuildingBlock: WUSLED_clean_sbu_0, # of connection points: 3
#     Node 19, Type 0, BuildingBlock: WUSLED_clean_sbu_0, # of connection points: 3
#     Node 20, Type 0, BuildingBlock: WUSLED_clean_sbu_0, # of connection points: 3
#     Node 21, Type 0, BuildingBlock: WUSLED_clean_sbu_0, # of connection points: 3
#     Node 22, Type 0, BuildingBlock: WUSLED_clean_sbu_0, # of connection points: 3
#     Node 23, Type 0, BuildingBlock: WUSLED_clean_sbu_0, # of connection points: 3
#     Node 24, Type 0, BuildingBlock: WUSLED_clean_sbu_0, # of connection points: 3
#     Node 25, Type 0, BuildingBlock: WUSLED_clean_sbu_0, # of connection points: 3
#     Node 26, Type 0, BuildingBlock: WUSLED_clean_sbu_0, # of connection points: 3
#     Node 27, Type 0, BuildingBlock: WUSLED_clean_sbu_0, # of connection points: 3
#     Node 28, Type 0, BuildingBlock: WUSLED_clean_sbu_0, # of connection points: 3
#     Node 29, Type 0, BuildingBlock: WUSLED_clean_sbu_0, # of connection points: 3
#     Node 30, Type 0, BuildingBlock: WUSLED_clean_sbu_0, # of connection points: 3
#     Node 31, Type 0, BuildingBlock: WUSLED_clean_sbu_0, # of connection points: 3
#     Node 32, Type 1, BuildingBlock: MIFKUJ_clean_linker_1, # of connection points: 4
#     Node 33, Type 1, BuildingBlock: MIFKUJ_clean_linker_1, # of connection points: 4
#     Node 34, Type 1, BuildingBlock: MIFKUJ_clean_linker_1, # of connection points: 4
#     Node 35, Type 1, BuildingBlock: MIFKUJ_clean_linker_1, # of connection points: 4
#     Node 36, Type 1, BuildingBlock: MIFKUJ_clean_linker_1, # of connection points: 4
#     Node 37, Type 1, BuildingBlock: MIFKUJ_clean_linker_1, # of connection points: 4
#     Node 38, Type 1, BuildingBlock: MIFKUJ_clean_linker_1, # of connection points: 4
#     Node 39, Type 1, BuildingBlock: MIFKUJ_clean_linker_1, # of connection points: 4
#     Node 40, Type 1, BuildingBlock: MIFKUJ_clean_linker_1, # of connection points: 4
#     Node 41, Type 1, BuildingBlock: MIFKUJ_clean_linker_1, # of connection points: 4
#     Node 42, Type 1, BuildingBlock: MIFKUJ_clean_linker_1, # of connection points: 4
#     Node 43, Type 1, BuildingBlock: MIFKUJ_clean_linker_1, # of connection points: 4
#     Node 44, Type 1, BuildingBlock: MIFKUJ_clean_linker_1, # of connection points: 4
#     Node 45, Type 1, BuildingBlock: MIFKUJ_clean_linker_1, # of connection points: 4
#     Node 46, Type 1, BuildingBlock: MIFKUJ_clean_linker_1, # of connection points: 4
#     Node 47, Type 1, BuildingBlock: MIFKUJ_clean_linker_1, # of connection points: 4
#     Node 48, Type 1, BuildingBlock: MIFKUJ_clean_linker_1, # of connection points: 4
#     Node 49, Type 1, BuildingBlock: MIFKUJ_clean_linker_1, # of connection points: 4
#     Node 50, Type 1, BuildingBlock: MIFKUJ_clean_linker_1, # of connection points: 4
#     Node 51, Type 1, BuildingBlock: MIFKUJ_clean_linker_1, # of connection points: 4
#     Node 52, Type 1, BuildingBlock: MIFKUJ_clean_linker_1, # of connection points: 4
#     Node 53, Type 1, BuildingBlock: MIFKUJ_clean_linker_1, # of connection points: 4
#     Node 54, Type 1, BuildingBlock: MIFKUJ_clean_linker_1, # of connection points: 4
#     Node 55, Type 1, BuildingBlock: MIFKUJ_clean_linker_1, # of connection points: 4
#     Edge 56, Type (0, 1), BuildingBlock: XUDNAN_clean_linker_2, # of connection points: 2
#     Edge 57, Type (0, 1), BuildingBlock: XUDNAN_clean_linker_2, # of connection points: 2
#     Edge 58, Type (0, 1), BuildingBlock: XUDNAN_clean_linker_2, # of connection points: 2
#     Edge 59, Type (0, 1), BuildingBlock: XUDNAN_clean_linker_2, # of connection points: 2
#     Edge 60, Type (0, 1), BuildingBlock: XUDNAN_clean_linker_2, # of connection points: 2
#     Edge 61, Type (0, 1), BuildingBlock: XUDNAN_clean_linker_2, # of connection points: 2
#     Edge 62, Type (0, 1), BuildingBlock: XUDNAN_clean_linker_2, # of connection points: 2
#     Edge 63, Type (0, 1), BuildingBlock: XUDNAN_clean_linker_2, # of connection points: 2
#     Edge 64, Type (0, 1), BuildingBlock: XUDNAN_clean_linker_2, # of connection points: 2
#     Edge 65, Type (0, 1), BuildingBlock: XUDNAN_clean_linker_2, # of connection points: 2
#     Edge 66, Type (0, 1), BuildingBlock: XUDNAN_clean_linker_2, # of connection points: 2
#     Edge 67, Type (0, 1), BuildingBlock: XUDNAN_clean_linker_2, # of connection points: 2
#     Edge 68, Type (0, 1), BuildingBlock: XUDNAN_clean_linker_2, # of connection points: 2
#     Edge 69, Type (0, 1), BuildingBlock: XUDNAN_clean_linker_2, # of connection points: 2
#     Edge 70, Type (0, 1), BuildingBlock: XUDNAN_clean_linker_2, # of connection points: 2
#     Edge 71, Type (0, 1), BuildingBlock: XUDNAN_clean_linker_2, # of connection points: 2
#     Edge 72, Type (0, 1), BuildingBlock: XUDNAN_clean_linker_2, # of connection points: 2
#     Edge 73, Type (0, 1), BuildingBlock: XUDNAN_clean_linker_2, # of connection points: 2
#     Edge 74, Type (0, 1), BuildingBlock: XUDNAN_clean_linker_2, # of connection points: 2
#     Edge 75, Type (0, 1), BuildingBlock: XUDNAN_clean_linker_2, # of connection points: 2
#     Edge 76, Type (0, 1), BuildingBlock: XUDNAN_clean_linker_2, # of connection points: 2
#     Edge 77, Type (0, 1), BuildingBlock: XUDNAN_clean_linker_2, # of connection points: 2
#     Edge 78, Type (0, 1), BuildingBlock: XUDNAN_clean_linker_2, # of connection points: 2
#     Edge 79, Type (0, 1), BuildingBlock: XUDNAN_clean_linker_2, # of connection points: 2
#     Edge 80, Type (0, 1), BuildingBlock: XUDNAN_clean_linker_2, # of connection points: 2
#     Edge 81, Type (0, 1), BuildingBlock: XUDNAN_clean_linker_2, # of connection points: 2
#     Edge 82, Type (0, 1), BuildingBlock: XUDNAN_clean_linker_2, # of connection points: 2
#     Edge 83, Type (0, 1), BuildingBlock: XUDNAN_clean_linker_2, # of connection points: 2
#     Edge 84, Type (0, 1), BuildingBlock: XUDNAN_clean_linker_2, # of connection points: 2
#     Edge 85, Type (0, 1), BuildingBlock: XUDNAN_clean_linker_2, # of connection points: 2
#     Edge 86, Type (0, 1), BuildingBlock: XUDNAN_clean_linker_2, # of connection points: 2
#     Edge 87, Type (0, 1), BuildingBlock: XUDNAN_clean_linker_2, # of connection points: 2
#     Edge 88, Type (0, 1), BuildingBlock: XUDNAN_clean_linker_2, # of connection points: 2
#     Edge 89, Type (0, 1), BuildingBlock: XUDNAN_clean_linker_2, # of connection points: 2
#     Edge 90, Type (0, 1), BuildingBlock: XUDNAN_clean_linker_2, # of connection points: 2
#     Edge 91, Type (0, 1), BuildingBlock: XUDNAN_clean_linker_2, # of connection points: 2
#     Edge 92, Type (0, 1), BuildingBlock: XUDNAN_clean_linker_2, # of connection points: 2
#     Edge 93, Type (0, 1), BuildingBlock: XUDNAN_clean_linker_2, # of connection points: 2
#     Edge 94, Type (0, 1), BuildingBlock: XUDNAN_clean_linker_2, # of connection points: 2
#     Edge 95, Type (0, 1), BuildingBlock: XUDNAN_clean_linker_2, # of connection points: 2
#     Edge 96, Type (0, 1), BuildingBlock: XUDNAN_clean_linker_2, # of connection points: 2
#     Edge 97, Type (0, 1), BuildingBlock: XUDNAN_clean_linker_2, # of connection points: 2
#     Edge 98, Type (0, 1), BuildingBlock: XUDNAN_clean_linker_2, # of connection points: 2
#     Edge 99, Type (0, 1), BuildingBlock: XUDNAN_clean_linker_2, # of connection points: 2
#     Edge 100, Type (0, 1), BuildingBlock: XUDNAN_clean_linker_2, # of connection points: 2
#     Edge 101, Type (0, 1), BuildingBlock: XUDNAN_clean_linker_2, # of connection points: 2
#     Edge 102, Type (0, 1), BuildingBlock: XUDNAN_clean_linker_2, # of connection points: 2
#     Edge 103, Type (0, 1), BuildingBlock: XUDNAN_clean_linker_2, # of connection points: 2
#     Edge 104, Type (0, 1), BuildingBlock: XUDNAN_clean_linker_2, # of connection points: 2
#     Edge 105, Type (0, 1), BuildingBlock: XUDNAN_clean_linker_2, # of connection points: 2
#     Edge 106, Type (0, 1), BuildingBlock: XUDNAN_clean_linker_2, # of connection points: 2
#     Edge 107, Type (0, 1), BuildingBlock: XUDNAN_clean_linker_2, # of connection points: 2
#     Edge 108, Type (0, 1), BuildingBlock: XUDNAN_clean_linker_2, # of connection points: 2
#     Edge 109, Type (0, 1), BuildingBlock: XUDNAN_clean_linker_2, # of connection points: 2
#     Edge 110, Type (0, 1), BuildingBlock: XUDNAN_clean_linker_2, # of connection points: 2
#     Edge 111, Type (0, 1), BuildingBlock: XUDNAN_clean_linker_2, # of connection points: 2
#     Edge 112, Type (0, 1), BuildingBlock: XUDNAN_clean_linker_2, # of connection points: 2
#     Edge 113, Type (0, 1), BuildingBlock: XUDNAN_clean_linker_2, # of connection points: 2
#     Edge 114, Type (0, 1), BuildingBlock: XUDNAN_clean_linker_2, # of connection points: 2
#     Edge 115, Type (0, 1), BuildingBlock: XUDNAN_clean_linker_2, # of connection points: 2
#     Edge 116, Type (0, 1), BuildingBlock: XUDNAN_clean_linker_2, # of connection points: 2
#     Edge 117, Type (0, 1), BuildingBlock: XUDNAN_clean_linker_2, # of connection points: 2
#     Edge 118, Type (0, 1), BuildingBlock: XUDNAN_clean_linker_2, # of connection points: 2
#     Edge 119, Type (0, 1), BuildingBlock: XUDNAN_clean_linker_2, # of connection points: 2
#     Edge 120, Type (0, 1), BuildingBlock: XUDNAN_clean_linker_2, # of connection points: 2
#     Edge 121, Type (0, 1), BuildingBlock: XUDNAN_clean_linker_2, # of connection points: 2
#     Edge 122, Type (0, 1), BuildingBlock: XUDNAN_clean_linker_2, # of connection points: 2
#     Edge 123, Type (0, 1), BuildingBlock: XUDNAN_clean_linker_2, # of connection points: 2
#     Edge 124, Type (0, 1), BuildingBlock: XUDNAN_clean_linker_2, # of connection points: 2
#     Edge 125, Type (0, 1), BuildingBlock: XUDNAN_clean_linker_2, # of connection points: 2
#     Edge 126, Type (0, 1), BuildingBlock: XUDNAN_clean_linker_2, # of connection points: 2
#     Edge 127, Type (0, 1), BuildingBlock: XUDNAN_clean_linker_2, # of connection points: 2
#     Edge 128, Type (0, 1), BuildingBlock: XUDNAN_clean_linker_2, # of connection points: 2
#     Edge 129, Type (0, 1), BuildingBlock: XUDNAN_clean_linker_2, # of connection points: 2
#     Edge 130, Type (0, 1), BuildingBlock: XUDNAN_clean_linker_2, # of connection points: 2
#     Edge 131, Type (0, 1), BuildingBlock: XUDNAN_clean_linker_2, # of connection points: 2
#     Edge 132, Type (0, 1), BuildingBlock: XUDNAN_clean_linker_2, # of connection points: 2
#     Edge 133, Type (0, 1), BuildingBlock: XUDNAN_clean_linker_2, # of connection points: 2
#     Edge 134, Type (0, 1), BuildingBlock: XUDNAN_clean_linker_2, # of connection points: 2
#     Edge 135, Type (0, 1), BuildingBlock: XUDNAN_clean_linker_2, # of connection points: 2
#     Edge 136, Type (0, 1), BuildingBlock: XUDNAN_clean_linker_2, # of connection points: 2
#     Edge 137, Type (0, 1), BuildingBlock: XUDNAN_clean_linker_2, # of connection points: 2
#     Edge 138, Type (0, 1), BuildingBlock: XUDNAN_clean_linker_2, # of connection points: 2
#     Edge 139, Type (0, 1), BuildingBlock: XUDNAN_clean_linker_2, # of connection points: 2
#     Edge 140, Type (0, 1), BuildingBlock: XUDNAN_clean_linker_2, # of connection points: 2
#     Edge 141, Type (0, 1), BuildingBlock: XUDNAN_clean_linker_2, # of connection points: 2
#     Edge 142, Type (0, 1), BuildingBlock: XUDNAN_clean_linker_2, # of connection points: 2
#     Edge 143, Type (0, 1), BuildingBlock: XUDNAN_clean_linker_2, # of connection points: 2
#     Edge 144, Type (0, 1), BuildingBlock: XUDNAN_clean_linker_2, # of connection points: 2
#     Edge 145, Type (0, 1), BuildingBlock: XUDNAN_clean_linker_2, # of connection points: 2
#     Edge 146, Type (0, 1), BuildingBlock: XUDNAN_clean_linker_2, # of connection points: 2
#     Edge 147, Type (0, 1), BuildingBlock: XUDNAN_clean_linker_2, # of connection points: 2
#     Edge 148, Type (0, 1), BuildingBlock: XUDNAN_clean_linker_2, # of connection points: 2
#     Edge 149, Type (0, 1), BuildingBlock: XUDNAN_clean_linker_2, # of connection points: 2
#     Edge 150, Type (0, 1), BuildingBlock: XUDNAN_clean_linker_2, # of connection points: 2
#     Edge 151, Type (0, 1), BuildingBlock: XUDNAN_clean_linker_2, # of connection points: 2
# Relax obj value: 0.000
# Max RMSD: 0.011
# Mean RMSD: 0.006
data_MOF--net-tbo--node1-WUSLED_clean_sbu_0--node2-MIFKUJ_clean_linker_1--edge1-XUDNAN_clean_linker_2
_symmetry_space_group_name_H-M    P1
_symmetry_Int_Tables_number       1
_symmetry_cell_setting            triclinic
loop_
_symmetry_equiv_pos_as_xyz
'x, y, z'
_cell_length_a     108.36788
_cell_length_b     108.80629
_cell_length_c     108.63243
_cell_angle_alpha  89.652211
_cell_angle_beta   90.383588
_cell_angle_gamma 90.809041
loop_
_atom_site_label
_atom_site_type_symbol
_atom_site_fract_x
_atom_site_fract_y
_atom_site_fract_z
_atom_type_partial_charge
C0 C 0.18794 0.15034 0.19868 0.0
C1 C 0.19411 0.14383 0.18951 0.0
C2 C 0.20062 0.12853 0.20474 0.0
C3 C 0.20043 0.13304 0.19253 0.0
C4 C 0.19475 0.13537 0.2139 0.0
C5 C 0.18853 0.14614 0.21089 0.0
U6 U 0.17729 0.17888 0.1797 0.0
O7 O 0.15831 0.18471 0.17589 0.0
O8 O 0.17065 0.1965 0.18694 0.0
C9 C 0.15945 0.19474 0.18252 0.0
C10 C 0.18013 0.16102 0.19586 0.0
C11 C 0.14906 0.19773 0.19068 0.0
C12 C 0.13025 0.192 0.20153 0.0
C13 C 0.14104 0.18865 0.19543 0.0
C14 C 0.13566 0.2135 0.19874 0.0
C15 C 0.12725 0.20448 0.20294 0.0
C16 C 0.14643 0.21014 0.19269 0.0
C17 C 0.19486 0.1886 0.14983 0.0
C18 C 0.1983 0.2085 0.13999 0.0
C19 C 0.20385 0.1899 0.12937 0.0
C20 C 0.19955 0.1829 0.13934 0.0
C21 C 0.2036 0.2028 0.12972 0.0
C22 C 0.19395 0.20147 0.14997 0.0
C23 C 0.19226 0.18092 0.16082 0.0
O24 O 0.1853 0.17194 0.19708 0.0
O25 O 0.17286 0.16014 0.18615 0.0
O26 O 0.18211 0.17417 0.1606 0.0
O27 O 0.19456 0.18588 0.17162 0.0
H28 H 0.19385 0.14695 0.18002 0.0
H29 H 0.20505 0.12817 0.18526 0.0
H30 H 0.19453 0.13217 0.22335 0.0
H31 H 0.18381 0.15103 0.21809 0.0
H32 H 0.12412 0.18481 0.20489 0.0
H33 H 0.14289 0.17899 0.1941 0.0
H34 H 0.13364 0.22318 0.19955 0.0
H35 H 0.15248 0.21729 0.18908 0.0
H36 H 0.1978 0.21842 0.14045 0.0
H37 H 0.20796 0.18522 0.12167 0.0
H38 H 0.20037 0.17299 0.13906 0.0
H39 H 0.1903 0.2061 0.15792 0.0
C40 C 0.82061 0.19083 0.15411 0.0
C41 C 0.82656 0.20224 0.15234 0.0
C42 C 0.8139 0.20597 0.13403 0.0
C43 C 0.82323 0.20976 0.14235 0.0
C44 C 0.80815 0.19445 0.13584 0.0
C45 C 0.81149 0.18697 0.14575 0.0
U46 U 0.8397 0.18114 0.18263 0.0
O47 O 0.83314 0.17375 0.20033 0.0
O48 O 0.84484 0.16249 0.18857 0.0
C49 C 0.83826 0.16301 0.19866 0.0
C50 C 0.82342 0.18282 0.16469 0.0
C51 C 0.83063 0.15208 0.20161 0.0
C52 C 0.81111 0.14077 0.20163 0.0
C53 C 0.81827 0.15091 0.19778 0.0
C54 C 0.82867 0.13282 0.21289 0.0
C55 C 0.81618 0.13168 0.2094 0.0
C56 C 0.83579 0.14288 0.209 0.0
C57 C 0.86831 0.20085 0.19198 0.0
C58 C 0.88127 0.19817 0.21011 0.0
C59 C 0.88594 0.21441 0.19544 0.0
C60 C 0.87584 0.21073 0.18828 0.0
C61 C 0.88876 0.20824 0.20649 0.0
C62 C 0.87109 0.1945 0.20292 0.0
C63 C 0.85752 0.19767 0.18431 0.0
O64 O 0.83353 0.17635 0.16389 0.0
O65 O 0.82182 0.1876 0.17564 0.0
O66 O 0.84667 0.19893 0.18945 0.0
O67 O 0.85835 0.18766 0.17769 0.0
H68 H 0.83368 0.20535 0.15869 0.0
H69 H 0.82798 0.21851 0.14115 0.0
H70 H 0.8008 0.1913 0.12977 0.0
H71 H 0.8068 0.17819 0.14701 0.0
H72 H 0.80159 0.1401 0.19858 0.0
H73 H 0.81411 0.15789 0.19201 0.0
H74 H 0.83288 0.12615 0.21898 0.0
H75 H 0.84531 0.14365 0.21205 0.0
H76 H 0.88327 0.19311 0.21849 0.0
H77 H 0.89135 0.22231 0.19245 0.0
H78 H 0.87379 0.21574 0.17987 0.0
H79 H 0.86538 0.18681 0.2059 0.0
C80 C 0.82512 0.83372 0.1495 0.0
C81 C 0.83035 0.82208 0.14803 0.0
C82 C 0.81785 0.81864 0.12944 0.0
C83 C 0.82677 0.81463 0.13807 0.0
C84 C 0.81295 0.83044 0.13087 0.0
C85 C 0.81656 0.83787 0.14075 0.0
U86 U 0.84303 0.84385 0.17916 0.0
O87 O 0.84697 0.8626 0.18568 0.0
O88 O 0.83507 0.85026 0.19658 0.0
C89 C 0.83998 0.86132 0.19546 0.0
C90 C 0.82773 0.84151 0.16034 0.0
C91 C 0.83207 0.87177 0.19852 0.0
C92 C 0.81761 0.88781 0.19297 0.0
C93 C 0.82413 0.87722 0.18988 0.0
C94 C 0.82671 0.88741 0.21339 0.0
C95 C 0.81901 0.89319 0.2047 0.0
C96 C 0.83312 0.87682 0.21032 0.0
C97 C 0.87172 0.82412 0.18924 0.0
C98 C 0.88807 0.82679 0.20462 0.0
C99 C 0.88527 0.80726 0.19432 0.0
C100 C 0.87548 0.81201 0.18755 0.0
C101 C 0.89157 0.81447 0.20306 0.0
C102 C 0.87813 0.8316 0.19775 0.0
C103 C 0.86121 0.82828 0.18166 0.0
O104 O 0.82578 0.83644 0.17118 0.0
O105 O 0.83775 0.84845 0.16003 0.0
O106 O 0.86232 0.83877 0.17569 0.0
O107 O 0.8501 0.82621 0.18605 0.0
H108 H 0.837 0.81869 0.15467 0.0
H109 H 0.83093 0.80569 0.13719 0.0
H110 H 0.80595 0.83382 0.1246 0.0
H111 H 0.81239 0.84679 0.14174 0.0
H112 H 0.81159 0.89184 0.18611 0.0
H113 H 0.82314 0.87343 0.18072 0.0
H114 H 0.82818 0.89131 0.22243 0.0
H115 H 0.83922 0.87275 0.2171 0.0
H116 H 0.89276 0.83253 0.21135 0.0
H117 H 0.88784 0.7978 0.1928 0.0
H118 H 0.87075 0.80613 0.18097 0.0
H119 H 0.8754 0.84102 0.19917 0.0
C120 C 0.15301 0.82001 0.19284 0.0
C121 C 0.14837 0.82844 0.20132 0.0
C122 C 0.13211 0.81373 0.20717 0.0
C123 C 0.13798 0.82533 0.2084 0.0
C124 C 0.13692 0.80537 0.19868 0.0
C125 C 0.14721 0.8085 0.1916 0.0
U126 U 0.18207 0.83886 0.18294 0.0
O127 O 0.19943 0.83173 0.17551 0.0
O128 O 0.18793 0.84397 0.16421 0.0
C129 C 0.19797 0.83736 0.16487 0.0
C130 C 0.16372 0.82291 0.18497 0.0
C131 C 0.20159 0.83083 0.15364 0.0
C132 C 0.20068 0.81378 0.13916 0.0
C133 C 0.19698 0.81914 0.1503 0.0
C134 C 0.21369 0.83158 0.13496 0.0
C135 C 0.2089 0.82012 0.1313 0.0
C136 C 0.21006 0.83686 0.14596 0.0
C137 C 0.19201 0.86776 0.20196 0.0
C138 C 0.20931 0.88182 0.19839 0.0
C139 C 0.1947 0.88602 0.21454 0.0
C140 C 0.18817 0.87527 0.21159 0.0
C141 C 0.20534 0.88953 0.20798 0.0
C142 C 0.20266 0.87106 0.19537 0.0
C143 C 0.18441 0.85679 0.19898 0.0
O144 O 0.16309 0.833 0.1783 0.0
O145 O 0.17467 0.8212 0.18991 0.0
O146 O 0.18957 0.84602 0.20044 0.0
O147 O 0.17752 0.85751 0.18902 0.0
H148 H 0.15271 0.8374 0.2024 0.0
H149 H 0.13447 0.83209 0.21471 0.0
H150 H 0.13287 0.79628 0.19762 0.0
H151 H 0.15068 0.80188 0.18512 0.0
H152 H 0.19682 0.80494 0.13648 0.0
H153 H 0.19044 0.81432 0.15614 0.0
H154 H 0.22011 0.83662 0.12915 0.0
H155 H 0.21377 0.84582 0.1484 0.0
H156 H 0.21755 0.88406 0.19323 0.0
H157 H 0.19116 0.89174 0.22179 0.0
H158 H 0.17994 0.8729 0.21675 0.0
H159 H 0.2058 0.86537 0.18789 0.0
C160 C 0.15194 0.82119 0.83371 0.0
C161 C 0.14862 0.8288 0.82378 0.0
C162 C 0.13062 0.81564 0.81954 0.0
C163 C 0.13807 0.82601 0.81672 0.0
C164 C 0.13416 0.80803 0.82943 0.0
C165 C 0.14472 0.81077 0.83639 0.0
U166 U 0.18084 0.84014 0.84332 0.0
O167 O 0.18686 0.84541 0.862 0.0
O168 O 0.1985 0.83359 0.85076 0.0
C169 C 0.19694 0.83887 0.86148 0.0
C170 C 0.16265 0.82399 0.84167 0.0
C171 C 0.1999 0.83141 0.87243 0.0
C172 C 0.19802 0.81282 0.88484 0.0
C173 C 0.19429 0.81992 0.87469 0.0
C174 C 0.21277 0.82873 0.89062 0.0
C175 C 0.20745 0.81708 0.89283 0.0
C176 C 0.20901 0.83581 0.88054 0.0
C177 C 0.19056 0.86838 0.8233 0.0
C178 C 0.20469 0.88517 0.82843 0.0
C179 C 0.19543 0.88414 0.80809 0.0
C180 C 0.18923 0.8733 0.81142 0.0
C181 C 0.20304 0.89023 0.81662 0.0
C182 C 0.19853 0.87423 0.83176 0.0
C183 C 0.18285 0.85764 0.82666 0.0
O184 O 0.17358 0.8223 0.83684 0.0
O185 O 0.16202 0.83412 0.84815 0.0
O186 O 0.17619 0.85863 0.83666 0.0
O187 O 0.18788 0.8468 0.82547 0.0
H188 H 0.15412 0.83689 0.82155 0.0
H189 H 0.13578 0.83199 0.80906 0.0
H190 H 0.12862 0.8001 0.83207 0.0
H191 H 0.14714 0.80482 0.84404 0.0
H192 H 0.19357 0.80397 0.88637 0.0
H193 H 0.18719 0.81639 0.86855 0.0
H194 H 0.22015 0.83226 0.89642 0.0
H195 H 0.21345 0.84465 0.87892 0.0
H196 H 0.21047 0.88985 0.83515 0.0
H197 H 0.19391 0.88802 0.79901 0.0
H198 H 0.18307 0.86895 0.8048 0.0
H199 H 0.19968 0.87055 0.84098 0.0
C200 C 0.14888 0.18439 0.8254 0.0
C201 C 0.14835 0.19731 0.82606 0.0
C202 C 0.12814 0.19688 0.81597 0.0
C203 C 0.13797 0.20353 0.82141 0.0
C204 C 0.12848 0.18398 0.81606 0.0
C205 C 0.1387 0.17784 0.82071 0.0
U206 U 0.17876 0.17495 0.84364 0.0
O207 O 0.18454 0.15608 0.84807 0.0
O208 O 0.19599 0.16778 0.83603 0.0
C209 C 0.19441 0.15688 0.84114 0.0
C210 C 0.16012 0.17731 0.82824 0.0
C211 C 0.19713 0.14607 0.83354 0.0
C212 C 0.19667 0.13477 0.81428 0.0
C213 C 0.19332 0.14504 0.82121 0.0
C214 C 0.20743 0.12644 0.83199 0.0
C215 C 0.20381 0.12534 0.81959 0.0
C216 C 0.20415 0.13668 0.83884 0.0
C217 C 0.18825 0.19373 0.87319 0.0
C218 C 0.20742 0.19788 0.88442 0.0
C219 C 0.18791 0.2046 0.8926 0.0
C220 C 0.18172 0.19939 0.88261 0.0
C221 C 0.20083 0.20425 0.89344 0.0
C222 C 0.20115 0.19269 0.87426 0.0
C223 C 0.18118 0.19034 0.86204 0.0
O224 O 0.17092 0.1827 0.82656 0.0
O225 O 0.15975 0.17012 0.83799 0.0
O226 O 0.17431 0.18031 0.8626 0.0
O227 O 0.18641 0.19215 0.85128 0.0
H228 H 0.15608 0.20259 0.8297 0.0
H229 H 0.13793 0.21348 0.82144 0.0
H230 H 0.12099 0.17862 0.81204 0.0
H231 H 0.13889 0.16791 0.82012 0.0
H232 H 0.19382 0.13434 0.80472 0.0
H233 H 0.1879 0.15219 0.81691 0.0
H234 H 0.21269 0.1193 0.83651 0.0
H235 H 0.20716 0.1373 0.84836 0.0
H236 H 0.21739 0.1975 0.88489 0.0
H237 H 0.1826 0.20934 0.89947 0.0
H238 H 0.17179 0.20029 0.88197 0.0
H239 H 0.20638 0.18832 0.86709 0.0
C240 C 0.81929 0.15303 0.83297 0.0
C241 C 0.82725 0.14655 0.82521 0.0
C242 C 0.81127 0.1308 0.82202 0.0
C243 C 0.82321 0.1355 0.81969 0.0
C244 C 0.80326 0.13769 0.82928 0.0
C245 C 0.80723 0.14864 0.83467 0.0
U246 U 0.83947 0.18179 0.84265 0.0
O247 O 0.8325 0.19928 0.84981 0.0
O248 O 0.84396 0.18752 0.86157 0.0
C249 C 0.83747 0.19761 0.86074 0.0
C250 C 0.82317 0.16383 0.84027 0.0
C251 C 0.82985 0.20067 0.87147 0.0
C252 C 0.81385 0.19596 0.88644 0.0
C253 C 0.8203 0.19294 0.87573 0.0
C254 C 0.82629 0.2145 0.88855 0.0
C255 C 0.8169 0.2067 0.8931 0.0
C256 C 0.83265 0.21151 0.87786 0.0
C257 C 0.86881 0.1917 0.82427 0.0
C258 C 0.87998 0.21126 0.82379 0.0
C259 C 0.88835 0.19356 0.81351 0.0
C260 C 0.87825 0.18647 0.81739 0.0
C261 C 0.8893 0.2061 0.8165 0.0
C262 C 0.8698 0.20412 0.82762 0.0
C263 C 0.85783 0.18403 0.82706 0.0
O264 O 0.83327 0.16291 0.84695 0.0
O265 O 0.82179 0.17473 0.83519 0.0
O266 O 0.847 0.18907 0.82528 0.0
O267 O 0.85837 0.17719 0.83705 0.0
H268 H 0.83662 0.14982 0.82375 0.0
H269 H 0.82957 0.13035 0.81413 0.0
H270 H 0.79397 0.13439 0.83112 0.0
H271 H 0.80094 0.15349 0.84058 0.0
H272 H 0.80653 0.18983 0.88953 0.0
H273 H 0.81795 0.18454 0.8709 0.0
H274 H 0.82906 0.22272 0.89346 0.0
H275 H 0.84001 0.21758 0.87472 0.0
H276 H 0.8805 0.22082 0.82646 0.0
H277 H 0.89518 0.18927 0.80779 0.0
H278 H 0.87763 0.17691 0.81469 0.0
H279 H 0.86264 0.20834 0.833 0.0
C280 C 0.83342 0.87101 0.82248 0.0
C281 C 0.8215 0.87362 0.82674 0.0
C282 C 0.82053 0.89137 0.81287 0.0
C283 C 0.8151 0.88383 0.822 0.0
C284 C 0.83261 0.88893 0.80912 0.0
C285 C 0.83895 0.8789 0.81386 0.0
U286 U 0.84254 0.8414 0.8415 0.0
O287 O 0.8497 0.82428 0.83373 0.0
O288 O 0.8615 0.83558 0.84578 0.0
C289 C 0.86068 0.82582 0.83876 0.0
C290 C 0.84035 0.85993 0.82601 0.0
C291 C 0.8715 0.82316 0.83105 0.0
C292 C 0.88265 0.82363 0.81166 0.0
C293 C 0.87236 0.82686 0.81867 0.0
C294 C 0.89135 0.81315 0.82935 0.0
C295 C 0.8923 0.8167 0.81692 0.0
C296 C 0.88108 0.81632 0.83629 0.0
C297 C 0.82415 0.8307 0.8706 0.0
C298 C 0.82319 0.81088 0.88109 0.0
C299 C 0.81343 0.82853 0.89011 0.0
C300 C 0.81747 0.83581 0.88026 0.0
C301 C 0.81605 0.81591 0.89061 0.0
C302 C 0.82717 0.8182 0.87115 0.0
C303 C 0.82702 0.83859 0.85985 0.0
O304 O 0.84715 0.86047 0.83605 0.0
O305 O 0.83494 0.84917 0.82432 0.0
O306 O 0.82516 0.83382 0.84889 0.0
O307 O 0.83708 0.84543 0.86055 0.0
H308 H 0.81706 0.86764 0.83343 0.0
H309 H 0.80577 0.88551 0.82503 0.0
H310 H 0.83708 0.89464 0.80221 0.0
H311 H 0.84813 0.87709 0.81048 0.0
H312 H 0.88295 0.82642 0.80209 0.0
H313 H 0.86506 0.83213 0.81441 0.0
H314 H 0.89863 0.80805 0.83383 0.0
H315 H 0.8806 0.81339 0.84583 0.0
H316 H 0.8256 0.80125 0.88125 0.0
H317 H 0.80785 0.83274 0.8971 0.0
H318 H 0.81503 0.84543 0.87999 0.0
H319 H 0.83239 0.81406 0.86382 0.0
C320 C 0.18756 0.64904 0.70027 0.0
C321 C 0.19813 0.64623 0.6935 0.0
C322 C 0.20122 0.62777 0.70608 0.0
C323 C 0.20493 0.63571 0.69641 0.0
C324 C 0.1906 0.63072 0.71276 0.0
C325 C 0.1839 0.64124 0.70991 0.0
U326 U 0.17831 0.67818 0.68173 0.0
O327 O 0.15958 0.68459 0.67748 0.0
O328 O 0.17203 0.69591 0.68896 0.0
C329 C 0.16103 0.69472 0.6839 0.0
C330 C 0.18006 0.65994 0.69761 0.0
C331 C 0.15039 0.69899 0.69101 0.0
C332 C 0.13279 0.69584 0.7046 0.0
C333 C 0.14367 0.69146 0.69923 0.0
C334 C 0.1356 0.71524 0.69384 0.0
C335 C 0.12855 0.70767 0.70165 0.0
C336 C 0.14641 0.71095 0.68862 0.0
C337 C 0.19719 0.68789 0.6527 0.0
C338 C 0.19154 0.70094 0.63535 0.0
C339 C 0.21251 0.6938 0.63741 0.0
C340 C 0.20932 0.68769 0.64832 0.0
C341 C 0.20362 0.70033 0.63063 0.0
C342 C 0.18834 0.69475 0.64626 0.0
C343 C 0.19406 0.68012 0.66347 0.0
O344 O 0.1855 0.67069 0.69919 0.0
O345 O 0.17308 0.65945 0.68768 0.0
O346 O 0.18371 0.67369 0.66282 0.0
O347 O 0.19611 0.68491 0.67438 0.0
H348 H 0.20112 0.65217 0.68602 0.0
H349 H 0.21315 0.63387 0.69115 0.0
H350 H 0.18726 0.62478 0.72008 0.0
H351 H 0.17575 0.64324 0.71521 0.0
H352 H 0.12741 0.68982 0.71054 0.0
H353 H 0.14659 0.68217 0.70118 0.0
H354 H 0.1325 0.72437 0.69143 0.0
H355 H 0.15145 0.71688 0.68231 0.0
H356 H 0.1845 0.70608 0.63052 0.0
H357 H 0.22185 0.69297 0.63407 0.0
H358 H 0.21629 0.68244 0.65314 0.0
H359 H 0.17892 0.6951 0.64951 0.0
C360 C 0.81932 0.69204 0.65449 0.0
C361 C 0.826 0.70274 0.65122 0.0
C362 C 0.8135 0.70469 0.63263 0.0
C363 C 0.82305 0.70909 0.64031 0.0
C364 C 0.80664 0.69428 0.6362 0.0
C365 C 0.80951 0.68804 0.64704 0.0
U366 U 0.83912 0.68247 0.68276 0.0
O367 O 0.83265 0.67406 0.7001 0.0
O368 O 0.84501 0.66388 0.68796 0.0
C369 C 0.83833 0.66368 0.69801 0.0
C370 C 0.82259 0.68433 0.66513 0.0
C371 C 0.83175 0.65203 0.70083 0.0
C372 C 0.81336 0.64016 0.70651 0.0
C373 C 0.81883 0.65105 0.70191 0.0
C374 C 0.83357 0.63108 0.70831 0.0
C375 C 0.82078 0.63026 0.71016 0.0
C376 C 0.83897 0.64183 0.70372 0.0
C377 C 0.86794 0.70172 0.69227 0.0
C378 C 0.87917 0.70161 0.7117 0.0
C379 C 0.88755 0.71263 0.69413 0.0
C380 C 0.8774 0.70889 0.68706 0.0
C381 C 0.88848 0.70921 0.7066 0.0
C382 C 0.86896 0.6979 0.70459 0.0
C383 C 0.85693 0.69897 0.68472 0.0
O384 O 0.83274 0.67796 0.66408 0.0
O385 O 0.82117 0.68912 0.67609 0.0
O386 O 0.84618 0.7 0.69013 0.0
O387 O 0.85759 0.68933 0.67754 0.0
H388 H 0.83365 0.70594 0.65688 0.0
H389 H 0.82854 0.71704 0.6376 0.0
H390 H 0.7993 0.69071 0.63034 0.0
H391 H 0.80428 0.6798 0.64941 0.0
H392 H 0.80346 0.63974 0.70785 0.0
H393 H 0.81303 0.65879 0.69968 0.0
H394 H 0.83949 0.62353 0.71089 0.0
H395 H 0.84893 0.64235 0.70294 0.0
H396 H 0.8797 0.69863 0.72122 0.0
H397 H 0.89444 0.71858 0.68992 0.0
H398 H 0.87677 0.71191 0.67755 0.0
H399 H 0.86179 0.69226 0.70876 0.0
C400 C 0.82295 0.3314 0.65171 0.0
C401 C 0.8309 0.32791 0.64216 0.0
C402 C 0.81342 0.31937 0.63058 0.0
C403 C 0.82616 0.32186 0.63168 0.0
C404 C 0.80572 0.32219 0.64048 0.0
C405 C 0.81042 0.32812 0.65088 0.0
U406 U 0.8423 0.34301 0.68029 0.0
O407 O 0.84681 0.36217 0.68535 0.0
O408 O 0.8348 0.35089 0.69722 0.0
C409 C 0.83997 0.36172 0.6953 0.0
C410 C 0.82675 0.33975 0.66185 0.0
C411 C 0.83237 0.37253 0.69793 0.0
C412 C 0.81382 0.38469 0.69551 0.0
C413 C 0.82103 0.37468 0.69203 0.0
C414 C 0.82922 0.39047 0.71073 0.0
C415 C 0.81774 0.39264 0.70506 0.0
C416 C 0.83644 0.38059 0.70715 0.0
C417 C 0.87002 0.32278 0.6921 0.0
C418 C 0.8899 0.32594 0.70242 0.0
C419 C 0.88177 0.30533 0.69938 0.0
C420 C 0.87124 0.31009 0.69383 0.0
C421 C 0.8914 0.31313 0.70337 0.0
C422 C 0.87928 0.33076 0.69672 0.0
C423 C 0.85971 0.32684 0.68415 0.0
O424 O 0.82456 0.3359 0.67312 0.0
O425 O 0.83716 0.34604 0.66082 0.0
O426 O 0.8613 0.33675 0.67732 0.0
O427 O 0.8485 0.32559 0.68855 0.0
H428 H 0.84063 0.33031 0.64254 0.0
H429 H 0.8323 0.3198 0.62416 0.0
H430 H 0.79588 0.3203 0.63994 0.0
H431 H 0.80408 0.33071 0.65806 0.0
H432 H 0.80516 0.38615 0.69073 0.0
H433 H 0.81772 0.36857 0.68486 0.0
H434 H 0.83254 0.39615 0.71823 0.0
H435 H 0.84514 0.37905 0.71185 0.0
H436 H 0.89721 0.33215 0.70542 0.0
H437 H 0.88262 0.29543 0.7001 0.0
H438 H 0.86426 0.30377 0.69034 0.0
H439 H 0.87854 0.34061 0.6955 0.0
C440 C 0.15196 0.3216 0.69102 0.0
C441 C 0.15168 0.32505 0.70345 0.0
C442 C 0.13125 0.31545 0.70574 0.0
C443 C 0.14145 0.32196 0.71075 0.0
C444 C 0.13161 0.31213 0.69325 0.0
C445 C 0.14185 0.31515 0.68602 0.0
U446 U 0.18075 0.34053 0.6807 0.0
O447 O 0.1984 0.33397 0.67359 0.0
O448 O 0.18648 0.34532 0.66182 0.0
C449 C 0.19661 0.33887 0.66264 0.0
C450 C 0.16269 0.32427 0.68307 0.0
C451 C 0.1996 0.33122 0.65194 0.0
C452 C 0.20166 0.31141 0.642 0.0
C453 C 0.19743 0.31847 0.65181 0.0
C454 C 0.20988 0.3298 0.63221 0.0
C455 C 0.20819 0.31697 0.6322 0.0
C456 C 0.2056 0.33683 0.64196 0.0
C457 C 0.18906 0.36985 0.70041 0.0
C458 C 0.20717 0.38337 0.70158 0.0
C459 C 0.18928 0.38731 0.71414 0.0
C460 C 0.18321 0.37719 0.70905 0.0
C461 C 0.20141 0.39036 0.71073 0.0
C462 C 0.20103 0.37307 0.69647 0.0
C463 C 0.18238 0.35863 0.69652 0.0
O464 O 0.16192 0.3341 0.67603 0.0
O465 O 0.17369 0.3229 0.68803 0.0
O466 O 0.1879 0.34806 0.69814 0.0
O467 O 0.17579 0.35922 0.68635 0.0
H468 H 0.15938 0.33004 0.70753 0.0
H469 H 0.14162 0.32455 0.72036 0.0
H470 H 0.1239 0.30735 0.68896 0.0
H471 H 0.14187 0.31243 0.67644 0.0
H472 H 0.19996 0.30158 0.64218 0.0
H473 H 0.19273 0.31395 0.6594 0.0
H474 H 0.21496 0.33441 0.62494 0.0
H475 H 0.20736 0.34666 0.64191 0.0
H476 H 0.21654 0.38555 0.6988 0.0
H477 H 0.18455 0.39261 0.72103 0.0
H478 H 0.17397 0.37488 0.71216 0.0
H479 H 0.2057 0.36751 0.68976 0.0
C480 C 0.15116 0.32099 0.33409 0.0
C481 C 0.1451 0.32921 0.32611 0.0
C482 C 0.13134 0.31263 0.31931 0.0
C483 C 0.13515 0.32504 0.31879 0.0
C484 C 0.13732 0.30461 0.32747 0.0
C485 C 0.14711 0.30875 0.33477 0.0
U486 U 0.17964 0.34109 0.34353 0.0
O487 O 0.18651 0.34499 0.36223 0.0
O488 O 0.1979 0.33456 0.34936 0.0
C489 C 0.19674 0.33886 0.36056 0.0
C490 C 0.16185 0.32456 0.34177 0.0
C491 C 0.20111 0.33094 0.37069 0.0
C492 C 0.19826 0.32015 0.39022 0.0
C493 C 0.19325 0.32584 0.3797 0.0
C494 C 0.21884 0.32399 0.38237 0.0
C495 C 0.21113 0.31962 0.3918 0.0
C496 C 0.21388 0.32957 0.37195 0.0
C497 C 0.18833 0.37004 0.32387 0.0
C498 C 0.20525 0.38482 0.3265 0.0
C499 C 0.19286 0.38497 0.30785 0.0
C500 C 0.18573 0.37524 0.31237 0.0
C501 C 0.20281 0.38973 0.31473 0.0
C502 C 0.19807 0.37493 0.33105 0.0
C503 C 0.18078 0.35934 0.32765 0.0
O504 O 0.17272 0.3233 0.3367 0.0
O505 O 0.16094 0.33458 0.34838 0.0
O506 O 0.17493 0.36002 0.33818 0.0
O507 O 0.18552 0.3485 0.32561 0.0
H508 H 0.14814 0.33871 0.32544 0.0
H509 H 0.1307 0.33137 0.3125 0.0
H510 H 0.13449 0.29503 0.32811 0.0
H511 H 0.15164 0.3023 0.34088 0.0
H512 H 0.19215 0.31685 0.39741 0.0
H513 H 0.18333 0.32673 0.37889 0.0
H514 H 0.22879 0.32361 0.38335 0.0
H515 H 0.2201 0.3334 0.3651 0.0
H516 H 0.21293 0.38832 0.33194 0.0
H517 H 0.19071 0.38866 0.29881 0.0
H518 H 0.17825 0.37162 0.30674 0.0
H519 H 0.20023 0.37099 0.33998 0.0
C520 C 0.14838 0.68597 0.32483 0.0
C521 C 0.14359 0.69434 0.33328 0.0
C522 C 0.12718 0.69979 0.31867 0.0
C523 C 0.13312 0.70122 0.33021 0.0
C524 C 0.13226 0.69156 0.31021 0.0
C525 C 0.14274 0.6848 0.31325 0.0
U526 U 0.17728 0.67533 0.34355 0.0
O527 O 0.18278 0.65636 0.34797 0.0
O528 O 0.19454 0.66801 0.3362 0.0
C529 C 0.19278 0.65711 0.34123 0.0
C530 C 0.1589 0.67795 0.3278 0.0
C531 C 0.19565 0.64637 0.3336 0.0
C532 C 0.19539 0.63527 0.31423 0.0
C533 C 0.19145 0.64513 0.32141 0.0
C534 C 0.20749 0.6277 0.33142 0.0
C535 C 0.20367 0.62655 0.31908 0.0
C536 C 0.20348 0.63747 0.33857 0.0
C537 C 0.18776 0.69532 0.37206 0.0
C538 C 0.20303 0.69245 0.38843 0.0
C539 C 0.19305 0.71208 0.38583 0.0
C540 C 0.18625 0.70743 0.37595 0.0
C541 C 0.20165 0.70477 0.39209 0.0
C542 C 0.19613 0.68775 0.3784 0.0
C543 C 0.18016 0.69127 0.36146 0.0
O544 O 0.17 0.68262 0.326 0.0
O545 O 0.15809 0.6713 0.33791 0.0
O546 O 0.17362 0.68107 0.36259 0.0
O547 O 0.18491 0.69285 0.35046 0.0
H548 H 0.14785 0.69545 0.34226 0.0
H549 H 0.12969 0.70763 0.33691 0.0
H550 H 0.12795 0.68999 0.30133 0.0
H551 H 0.14629 0.6784 0.30659 0.0
H552 H 0.19205 0.63456 0.30484 0.0
H553 H 0.18533 0.65188 0.3174 0.0
H554 H 0.21397 0.62134 0.33546 0.0
H555 H 0.20684 0.63829 0.34796 0.0
H556 H 0.20962 0.68662 0.39308 0.0
H557 H 0.19161 0.72152 0.38853 0.0
H558 H 0.17977 0.71338 0.37127 0.0
H559 H 0.19741 0.67832 0.37557 0.0
C560 C 0.8212 0.65088 0.33419 0.0
C561 C 0.82442 0.65062 0.32169 0.0
C562 C 0.81333 0.63106 0.31921 0.0
C563 C 0.82053 0.64078 0.31427 0.0
C564 C 0.81046 0.63128 0.33182 0.0
C565 C 0.81438 0.64106 0.3392 0.0
U566 U 0.8399 0.67996 0.34404 0.0
O567 O 0.83275 0.69701 0.35198 0.0
O568 O 0.84557 0.68556 0.36271 0.0
C569 C 0.83868 0.6954 0.36246 0.0
C570 C 0.82415 0.66147 0.34215 0.0
C571 C 0.83239 0.69867 0.37398 0.0
C572 C 0.81408 0.70312 0.38604 0.0
C573 C 0.8195 0.69803 0.37551 0.0
C574 C 0.83438 0.70893 0.39366 0.0
C575 C 0.82151 0.70899 0.39498 0.0
C576 C 0.83974 0.70383 0.3833 0.0
C577 C 0.86807 0.69075 0.32439 0.0
C578 C 0.88348 0.7065 0.32926 0.0
C579 C 0.88384 0.69638 0.30948 0.0
C580 C 0.87354 0.6893 0.31286 0.0
C581 C 0.88901 0.70507 0.31762 0.0
C582 C 0.87308 0.69943 0.33261 0.0
C583 C 0.8574 0.6828 0.32754 0.0
O584 O 0.83444 0.66088 0.34858 0.0
O585 O 0.82212 0.67244 0.33748 0.0
O586 O 0.84641 0.68766 0.32637 0.0
O587 O 0.85854 0.67589 0.33743 0.0
H588 H 0.82975 0.6581 0.31765 0.0
H589 H 0.8231 0.64083 0.30465 0.0
H590 H 0.8048 0.6241 0.33594 0.0
H591 H 0.81179 0.64111 0.34881 0.0
H592 H 0.80413 0.70307 0.38686 0.0
H593 H 0.81364 0.69406 0.36843 0.0
H594 H 0.84033 0.71329 0.40046 0.0
H595 H 0.84967 0.70443 0.38232 0.0
H596 H 0.88727 0.71296 0.33587 0.0
H597 H 0.88762 0.69513 0.30038 0.0
H598 H 0.86981 0.68265 0.3064 0.0
H599 H 0.86902 0.70066 0.3416 0.0
C600 C 0.83335 0.37174 0.32331 0.0
C601 C 0.82054 0.37287 0.32506 0.0
C602 C 0.8208 0.39228 0.3136 0.0
C603 C 0.8143 0.38316 0.32028 0.0
C604 C 0.83365 0.39132 0.31248 0.0
C605 C 0.83982 0.3812 0.31728 0.0
U606 U 0.84263 0.342 0.34189 0.0
O607 O 0.84967 0.3248 0.33416 0.0
O608 O 0.86165 0.33623 0.34597 0.0
C609 C 0.86063 0.32626 0.33925 0.0
C610 C 0.84032 0.36057 0.3265 0.0
C611 C 0.87143 0.32281 0.3319 0.0
C612 C 0.88552 0.3252 0.31461 0.0
C613 C 0.8754 0.32938 0.32142 0.0
C614 C 0.88778 0.3081 0.3288 0.0
C615 C 0.89167 0.31446 0.31824 0.0
C616 C 0.87779 0.31226 0.33556 0.0
C617 C 0.82434 0.33108 0.37096 0.0
C618 C 0.82414 0.31124 0.38146 0.0
C619 C 0.81304 0.32828 0.39008 0.0
C620 C 0.817 0.33578 0.38035 0.0
C621 C 0.81639 0.31585 0.39072 0.0
C622 C 0.82805 0.31878 0.37165 0.0
C623 C 0.82718 0.33913 0.36032 0.0
O624 O 0.84736 0.36101 0.33638 0.0
O625 O 0.83488 0.34983 0.32481 0.0
O626 O 0.82524 0.33449 0.34932 0.0
O627 O 0.8373 0.34591 0.36103 0.0
H628 H 0.81534 0.36568 0.32972 0.0
H629 H 0.80438 0.38368 0.32125 0.0
H630 H 0.83891 0.39826 0.3075 0.0
H631 H 0.84967 0.38054 0.31584 0.0
H632 H 0.88832 0.33013 0.30637 0.0
H633 H 0.87061 0.33754 0.31842 0.0
H634 H 0.89232 0.29974 0.33167 0.0
H635 H 0.87488 0.30708 0.34361 0.0
H636 H 0.82712 0.30179 0.38173 0.0
H637 H 0.80697 0.33216 0.39686 0.0
H638 H 0.81401 0.34524 0.37998 0.0
H639 H 0.83377 0.31496 0.36452 0.0
C640 C 0.68707 0.1478 0.69718 0.0
C641 C 0.6996 0.14748 0.694 0.0
C642 C 0.70193 0.12801 0.70512 0.0
C643 C 0.70695 0.13766 0.69791 0.0
C644 C 0.68926 0.12819 0.70783 0.0
C645 C 0.68194 0.13796 0.70389 0.0
U646 U 0.67682 0.17679 0.67867 0.0
O647 O 0.65786 0.18271 0.67468 0.0
O648 O 0.67014 0.19438 0.6859 0.0
C649 C 0.65903 0.1928 0.68121 0.0
C650 C 0.67927 0.15854 0.69449 0.0
C651 C 0.64854 0.19612 0.68909 0.0
C652 C 0.63161 0.19102 0.7029 0.0
C653 C 0.64194 0.18743 0.69613 0.0
C654 C 0.63454 0.21199 0.69582 0.0
C655 C 0.62775 0.20336 0.70281 0.0
C656 C 0.64477 0.20839 0.68905 0.0
C657 C 0.69525 0.18664 0.64927 0.0
C658 C 0.69585 0.2061 0.63809 0.0
C659 C 0.70543 0.18819 0.6294 0.0
C660 C 0.70184 0.18127 0.63969 0.0
C661 C 0.70256 0.20072 0.62845 0.0
C662 C 0.6922 0.19912 0.64839 0.0
C663 C 0.6923 0.179 0.66019 0.0
O664 O 0.68438 0.16947 0.69603 0.0
O665 O 0.67215 0.15788 0.68467 0.0
O666 O 0.6821 0.17233 0.65966 0.0
O667 O 0.69428 0.18395 0.67104 0.0
H668 H 0.70376 0.15494 0.68875 0.0
H669 H 0.71661 0.13773 0.69542 0.0
H670 H 0.68507 0.12104 0.71345 0.0
H671 H 0.6723 0.13803 0.70645 0.0
H672 H 0.62655 0.18406 0.70804 0.0
H673 H 0.64465 0.17789 0.69628 0.0
H674 H 0.63206 0.22159 0.69568 0.0
H675 H 0.64974 0.21524 0.68367 0.0
H676 H 0.69357 0.21575 0.63778 0.0
H677 H 0.71035 0.18363 0.62213 0.0
H678 H 0.70429 0.17166 0.64019 0.0
H679 H 0.68716 0.20348 0.6557 0.0
C680 C 0.32116 0.19006 0.65347 0.0
C681 C 0.32393 0.20271 0.65374 0.0
C682 C 0.31392 0.2054 0.63374 0.0
C683 C 0.32033 0.21032 0.64395 0.0
C684 C 0.31158 0.19266 0.63337 0.0
C685 C 0.31518 0.18509 0.64313 0.0
U686 U 0.34003 0.18021 0.68194 0.0
O687 O 0.33358 0.1728 0.69968 0.0
O688 O 0.34529 0.1616 0.68782 0.0
C689 C 0.339 0.1622 0.69809 0.0
C690 C 0.32382 0.18189 0.66398 0.0
C691 C 0.33208 0.1511 0.70191 0.0
C692 C 0.31447 0.13695 0.70102 0.0
C693 C 0.32099 0.14719 0.69627 0.0
C694 C 0.33021 0.13448 0.71676 0.0
C695 C 0.31895 0.13071 0.71147 0.0
C696 C 0.3367 0.14455 0.712 0.0
C697 C 0.36848 0.20024 0.69126 0.0
C698 C 0.38093 0.19857 0.70987 0.0
C699 C 0.38647 0.21348 0.69413 0.0
C700 C 0.37643 0.20956 0.687 0.0
C701 C 0.38883 0.20811 0.70569 0.0
C702 C 0.37081 0.19467 0.70271 0.0
C703 C 0.35771 0.19691 0.68362 0.0
O704 O 0.3339 0.17538 0.66319 0.0
O705 O 0.32209 0.18649 0.675 0.0
O706 O 0.34684 0.19807 0.68875 0.0
O707 O 0.35863 0.18691 0.677 0.0
H708 H 0.32866 0.20672 0.6616 0.0
H709 H 0.32247 0.22006 0.64442 0.0
H710 H 0.30655 0.18857 0.62575 0.0
H711 H 0.313 0.17535 0.64275 0.0
H712 H 0.30574 0.13422 0.69686 0.0
H713 H 0.31728 0.15217 0.68845 0.0
H714 H 0.33386 0.12979 0.72479 0.0
H715 H 0.34524 0.14741 0.71644 0.0
H716 H 0.38257 0.19411 0.71867 0.0
H717 H 0.39218 0.22097 0.69069 0.0
H718 H 0.37474 0.21398 0.6782 0.0
H719 H 0.36478 0.18741 0.70613 0.0
C720 C 0.32263 0.83153 0.65081 0.0
C721 C 0.33139 0.82426 0.64487 0.0
C722 C 0.31624 0.81895 0.629 0.0
C723 C 0.32821 0.81806 0.63397 0.0
C724 C 0.30744 0.82588 0.63517 0.0
C725 C 0.31062 0.83212 0.64596 0.0
U726 U 0.34167 0.84189 0.67977 0.0
O727 O 0.34584 0.86078 0.68575 0.0
O728 O 0.33428 0.84871 0.69731 0.0
C729 C 0.33909 0.85975 0.69573 0.0
C730 C 0.32571 0.83925 0.66157 0.0
C731 C 0.33121 0.87027 0.69874 0.0
C732 C 0.31881 0.88783 0.69281 0.0
C733 C 0.32497 0.87706 0.68966 0.0
C734 C 0.32472 0.88492 0.71415 0.0
C735 C 0.31887 0.89208 0.70507 0.0
C736 C 0.33078 0.87414 0.71101 0.0
C737 C 0.37078 0.82377 0.69012 0.0
C738 C 0.38606 0.82919 0.70575 0.0
C739 C 0.38646 0.80914 0.69623 0.0
C740 C 0.37624 0.81224 0.68902 0.0
C741 C 0.39155 0.81754 0.7047 0.0
C742 C 0.37574 0.83226 0.69855 0.0
C743 C 0.36007 0.82653 0.68217 0.0
O744 O 0.32415 0.83423 0.67249 0.0
O745 O 0.33571 0.8462 0.66084 0.0
O746 O 0.36072 0.83667 0.67554 0.0
O747 O 0.34912 0.82451 0.68695 0.0
H748 H 0.34071 0.82366 0.64846 0.0
H749 H 0.33515 0.81281 0.62925 0.0
H750 H 0.29822 0.82683 0.63139 0.0
H751 H 0.30376 0.83773 0.65036 0.0
H752 H 0.31418 0.89294 0.6856 0.0
H753 H 0.32511 0.87421 0.68012 0.0
H754 H 0.3251 0.8879 0.72364 0.0
H755 H 0.33555 0.86904 0.71814 0.0
H756 H 0.3898 0.83598 0.71205 0.0
H757 H 0.39021 0.80002 0.69528 0.0
H758 H 0.37253 0.80556 0.68258 0.0
H759 H 0.37168 0.84124 0.69952 0.0
C760 C 0.65307 0.81958 0.69324 0.0
C761 C 0.64449 0.82803 0.69776 0.0
C762 C 0.631 0.81109 0.70424 0.0
C763 C 0.63351 0.82378 0.7033 0.0
C764 C 0.63998 0.80279 0.70041 0.0
C765 C 0.65087 0.80699 0.69499 0.0
U766 U 0.6819 0.83923 0.68322 0.0
O767 O 0.69922 0.83216 0.67568 0.0
O768 O 0.68757 0.84427 0.66441 0.0
C769 C 0.69765 0.83773 0.66503 0.0
C770 C 0.6637 0.82321 0.6855 0.0
C771 C 0.7013 0.83119 0.6538 0.0
C772 C 0.70073 0.81397 0.6395 0.0
C773 C 0.69694 0.81937 0.65059 0.0
C774 C 0.71335 0.832 0.63509 0.0
C775 C 0.70881 0.8204 0.63155 0.0
C776 C 0.70962 0.83731 0.64604 0.0
C777 C 0.69193 0.8681 0.70215 0.0
C778 C 0.71 0.88134 0.69944 0.0
C779 C 0.69416 0.88694 0.7139 0.0
C780 C 0.68751 0.87628 0.71092 0.0
C781 C 0.7055 0.88967 0.70821 0.0
C782 C 0.70324 0.87066 0.69639 0.0
C783 C 0.68433 0.85713 0.69926 0.0
O784 O 0.66284 0.83336 0.67894 0.0
O785 O 0.67476 0.82148 0.69021 0.0
O786 O 0.68954 0.84637 0.70065 0.0
O787 O 0.67733 0.85785 0.68937 0.0
H788 H 0.64601 0.83782 0.69656 0.0
H789 H 0.62672 0.83036 0.70619 0.0
H790 H 0.63835 0.79296 0.70116 0.0
H791 H 0.65734 0.80032 0.69161 0.0
H792 H 0.69706 0.80502 0.63693 0.0
H793 H 0.69054 0.81446 0.65651 0.0
H794 H 0.71968 0.8371 0.62924 0.0
H795 H 0.71316 0.84637 0.64839 0.0
H796 H 0.71877 0.88301 0.69497 0.0
H797 H 0.69023 0.89317 0.72049 0.0
H798 H 0.67877 0.87448 0.71542 0.0
H799 H 0.70682 0.86445 0.68957 0.0
C800 C 0.65102 0.82217 0.335 0.0
C801 C 0.64868 0.82655 0.32301 0.0
C802 C 0.63107 0.81244 0.32125 0.0
C803 C 0.63868 0.82173 0.31616 0.0
C804 C 0.63318 0.8086 0.33344 0.0
C805 C 0.64304 0.8134 0.34021 0.0
U806 U 0.67998 0.84208 0.34375 0.0
O807 O 0.68635 0.84691 0.36238 0.0
O808 O 0.69787 0.83545 0.35064 0.0
C809 C 0.69641 0.84035 0.36155 0.0
C810 C 0.66197 0.82577 0.34227 0.0
C811 C 0.6994 0.83247 0.3722 0.0
C812 C 0.69371 0.81785 0.38828 0.0
C813 C 0.69052 0.82488 0.37791 0.0
C814 C 0.71469 0.82576 0.38716 0.0
C815 C 0.70586 0.81821 0.39305 0.0
C816 C 0.71147 0.83282 0.37689 0.0
C817 C 0.68965 0.87056 0.32452 0.0
C818 C 0.70667 0.88461 0.32909 0.0
C819 C 0.69513 0.88676 0.31004 0.0
C820 C 0.68765 0.87677 0.31338 0.0
C821 C 0.70474 0.89083 0.31782 0.0
C822 C 0.69919 0.87452 0.3324 0.0
C823 C 0.68165 0.85996 0.32749 0.0
O824 O 0.67276 0.82434 0.33705 0.0
O825 O 0.66123 0.83588 0.34876 0.0
O826 O 0.67519 0.86073 0.33765 0.0
O827 O 0.68649 0.84909 0.32587 0.0
H828 H 0.65475 0.83337 0.31885 0.0
H829 H 0.63722 0.82483 0.30678 0.0
H830 H 0.62736 0.8016 0.33765 0.0
H831 H 0.64466 0.80996 0.34945 0.0
H832 H 0.68662 0.81228 0.39264 0.0
H833 H 0.68113 0.82448 0.37443 0.0
H834 H 0.72416 0.82612 0.39037 0.0
H835 H 0.71844 0.8386 0.37258 0.0
H836 H 0.71388 0.88758 0.3354 0.0
H837 H 0.69349 0.89112 0.3012 0.0
H838 H 0.68035 0.87379 0.30718 0.0
H839 H 0.70086 0.86981 0.34106 0.0
C840 C 0.64835 0.18635 0.32398 0.0
C841 C 0.64205 0.19388 0.33228 0.0
C842 C 0.62847 0.20076 0.31566 0.0
C843 C 0.63209 0.20102 0.32813 0.0
C844 C 0.6347 0.19307 0.30754 0.0
C845 C 0.6445 0.18595 0.31166 0.0
U846 U 0.67709 0.17602 0.34346 0.0
O847 O 0.68319 0.15701 0.34659 0.0
O848 O 0.6949 0.17001 0.33615 0.0
C849 C 0.69342 0.15873 0.34032 0.0
C850 C 0.65896 0.17869 0.3275 0.0
C851 C 0.69774 0.14869 0.3324 0.0
C852 C 0.69477 0.12938 0.32137 0.0
C853 C 0.68982 0.13982 0.32703 0.0
C854 C 0.7154 0.137 0.32589 0.0
C855 C 0.70762 0.12772 0.32119 0.0
C856 C 0.71052 0.14734 0.33141 0.0
C857 C 0.68717 0.19467 0.37278 0.0
C858 C 0.70402 0.19148 0.38742 0.0
C859 C 0.69211 0.21013 0.38815 0.0
C860 C 0.68488 0.206 0.37832 0.0
C861 C 0.70178 0.20299 0.39274 0.0
C862 C 0.69676 0.18733 0.37743 0.0
C863 C 0.67941 0.19122 0.3621 0.0
O864 O 0.66997 0.18367 0.32605 0.0
O865 O 0.658 0.17187 0.33749 0.0
O866 O 0.67315 0.1808 0.36272 0.0
O867 O 0.68403 0.19348 0.35115 0.0
H868 H 0.6449 0.19434 0.34184 0.0
H869 H 0.62747 0.20699 0.33452 0.0
H870 H 0.63208 0.19269 0.29791 0.0
H871 H 0.64919 0.18018 0.30514 0.0
H872 H 0.68859 0.12232 0.31782 0.0
H873 H 0.6799 0.14067 0.32766 0.0
H874 H 0.72534 0.13597 0.3258 0.0
H875 H 0.71679 0.15405 0.33548 0.0
H876 H 0.71158 0.18592 0.39073 0.0
H877 H 0.69031 0.21907 0.39204 0.0
H878 H 0.67756 0.21179 0.37487 0.0
H879 H 0.69872 0.17856 0.37325 0.0
C880 C 0.31843 0.15301 0.33319 0.0
C881 C 0.32677 0.14593 0.32644 0.0
C882 C 0.3104 0.13093 0.322 0.0
C883 C 0.32274 0.13494 0.3208 0.0
C884 C 0.30205 0.13844 0.32817 0.0
C885 C 0.30602 0.14932 0.33368 0.0
U886 U 0.33798 0.18213 0.34262 0.0
O887 O 0.33071 0.19931 0.35011 0.0
O888 O 0.34325 0.18805 0.36129 0.0
C889 C 0.33643 0.19793 0.36072 0.0
C890 C 0.32217 0.1637 0.34074 0.0
C891 C 0.32967 0.20116 0.37194 0.0
C892 C 0.31215 0.19974 0.38583 0.0
C893 C 0.31792 0.19634 0.37482 0.0
C894 C 0.32976 0.21275 0.39094 0.0
C895 C 0.31814 0.20789 0.39398 0.0
C896 C 0.33544 0.20944 0.38002 0.0
C897 C 0.36604 0.19264 0.32229 0.0
C898 C 0.38518 0.20403 0.32635 0.0
C899 C 0.37965 0.19826 0.30551 0.0
C900 C 0.36872 0.19291 0.30972 0.0
C901 C 0.38818 0.20351 0.31378 0.0
C902 C 0.37415 0.19855 0.33062 0.0
C903 C 0.35543 0.18495 0.32617 0.0
O904 O 0.33258 0.16301 0.34698 0.0
O905 O 0.32015 0.17464 0.33603 0.0
O906 O 0.34439 0.18963 0.32485 0.0
O907 O 0.35673 0.17829 0.33622 0.0
H908 H 0.33641 0.14865 0.32589 0.0
H909 H 0.32936 0.1293 0.31609 0.0
H910 H 0.29247 0.13564 0.32913 0.0
H911 H 0.29943 0.15465 0.33878 0.0
H912 H 0.30323 0.19577 0.38815 0.0
H913 H 0.31332 0.18991 0.36869 0.0
H914 H 0.33455 0.21897 0.39716 0.0
H915 H 0.34448 0.21326 0.37794 0.0
H916 H 0.39164 0.20802 0.3329 0.0
H917 H 0.38169 0.19782 0.29577 0.0
H918 H 0.3626 0.18842 0.30316 0.0
H919 H 0.37223 0.19848 0.34039 0.0
C920 C 0.32797 0.87197 0.32517 0.0
C921 C 0.3152 0.87388 0.32513 0.0
C922 C 0.31822 0.89266 0.31329 0.0
C923 C 0.31034 0.88427 0.31933 0.0
C924 C 0.33102 0.89076 0.3135 0.0
C925 C 0.33586 0.88052 0.31948 0.0
U926 U 0.34219 0.8416 0.34146 0.0
O927 O 0.34961 0.8276 0.32899 0.0
O928 O 0.36231 0.83986 0.33974 0.0
C929 C 0.36101 0.83091 0.33174 0.0
C930 C 0.33309 0.86103 0.33104 0.0
C931 C 0.37166 0.825 0.32625 0.0
C932 C 0.39225 0.82637 0.31768 0.0
C933 C 0.38182 0.83209 0.32232 0.0
C934 C 0.38236 0.80647 0.32083 0.0
C935 C 0.39268 0.8135 0.31715 0.0
C936 C 0.37189 0.81219 0.32528 0.0
C937 C 0.32709 0.82786 0.37284 0.0
C938 C 0.32141 0.81034 0.38564 0.0
C939 C 0.31523 0.83087 0.39133 0.0
C940 C 0.32124 0.8357 0.38104 0.0
C941 C 0.31512 0.81814 0.39365 0.0
C942 C 0.32726 0.81518 0.37521 0.0
C943 C 0.33251 0.83288 0.36156 0.0
O944 O 0.3422 0.86174 0.33907 0.0
O945 O 0.3289 0.84992 0.32854 0.0
O946 O 0.32897 0.82905 0.35063 0.0
O947 O 0.34121 0.84143 0.36175 0.0
H948 H 0.309 0.86736 0.32957 0.0
H949 H 0.30045 0.88555 0.31923 0.0
H950 H 0.33727 0.89716 0.30897 0.0
H951 H 0.34575 0.87915 0.31945 0.0
H952 H 0.40012 0.83197 0.31495 0.0
H953 H 0.38172 0.84202 0.32296 0.0
H954 H 0.38247 0.79652 0.32042 0.0
H955 H 0.36411 0.80659 0.3283 0.0
H956 H 0.3214 0.8005 0.3872 0.0
H957 H 0.31052 0.83708 0.39742 0.0
H958 H 0.321 0.84551 0.37929 0.0
H959 H 0.33178 0.80902 0.36892 0.0
C960 C 0.68776 0.64902 0.19852 0.0
C961 C 0.69967 0.64748 0.19383 0.0
C962 C 0.70148 0.62791 0.20491 0.0
C963 C 0.70648 0.63704 0.19702 0.0
C964 C 0.68949 0.62953 0.20946 0.0
C965 C 0.68276 0.63997 0.20632 0.0
U966 U 0.67814 0.67817 0.17986 0.0
O967 O 0.65935 0.68438 0.17576 0.0
O968 O 0.67171 0.69582 0.18719 0.0
C969 C 0.66055 0.69428 0.18258 0.0
C970 C 0.68035 0.66002 0.19583 0.0
C971 C 0.65011 0.69723 0.19066 0.0
C972 C 0.63091 0.69158 0.20082 0.0
C973 C 0.64175 0.68818 0.19486 0.0
C974 C 0.63698 0.71302 0.19906 0.0
C975 C 0.62823 0.70406 0.20266 0.0
C976 C 0.6478 0.70962 0.19312 0.0
C977 C 0.69669 0.68662 0.14982 0.0
C978 C 0.70063 0.70546 0.13806 0.0
C979 C 0.70753 0.68589 0.13038 0.0
C980 C 0.70242 0.67994 0.14056 0.0
C981 C 0.70705 0.69872 0.12918 0.0
C982 C 0.69552 0.69944 0.1484 0.0
C983 C 0.69331 0.67982 0.16115 0.0
O984 O 0.68588 0.67077 0.19712 0.0
O985 O 0.67308 0.65946 0.18612 0.0
O986 O 0.68305 0.67325 0.16088 0.0
O987 O 0.69547 0.68515 0.17179 0.0
H988 H 0.70373 0.65437 0.1878 0.0
H989 H 0.71573 0.63623 0.19344 0.0
H990 H 0.68519 0.62266 0.21533 0.0
H991 H 0.67357 0.64098 0.21003 0.0
H992 H 0.62446 0.68444 0.2037 0.0
H993 H 0.64336 0.67853 0.19317 0.0
H994 H 0.63519 0.72271 0.20024 0.0
H995 H 0.65412 0.71674 0.18994 0.0
H996 H 0.70014 0.71537 0.13733 0.0
H997 H 0.71231 0.68045 0.12363 0.0
H998 H 0.70341 0.67007 0.14145 0.0
H999 H 0.69109 0.70479 0.15545 0.0
C1000 C 0.31988 0.69226 0.15616 0.0
C1001 C 0.32872 0.70066 0.15165 0.0
C1002 C 0.31455 0.70686 0.13521 0.0
C1003 C 0.3261 0.70786 0.14123 0.0
C1004 C 0.30574 0.69847 0.1399 0.0
C1005 C 0.30841 0.69124 0.15022 0.0
U1006 U 0.33839 0.6824 0.18502 0.0
O1007 O 0.33148 0.67502 0.20264 0.0
O1008 O 0.34335 0.66378 0.19105 0.0
C1009 C 0.33663 0.66429 0.20106 0.0
C1010 C 0.32236 0.68424 0.16685 0.0
C1011 C 0.32892 0.65338 0.20379 0.0
C1012 C 0.31328 0.63814 0.19823 0.0
C1013 C 0.31983 0.64904 0.19558 0.0
C1014 C 0.32466 0.63605 0.21738 0.0
C1015 C 0.31576 0.63141 0.20909 0.0
C1016 C 0.33114 0.64692 0.21475 0.0
C1017 C 0.36744 0.7024 0.19368 0.0
C1018 C 0.38262 0.69968 0.21008 0.0
C1019 C 0.38579 0.71538 0.19445 0.0
C1020 C 0.37463 0.71207 0.18891 0.0
C1021 C 0.38999 0.70911 0.20494 0.0
C1022 C 0.37137 0.69628 0.20443 0.0
C1023 C 0.35631 0.69881 0.18669 0.0
O1024 O 0.33235 0.67757 0.16627 0.0
O1025 O 0.32067 0.68912 0.17774 0.0
O1026 O 0.3456 0.70003 0.19213 0.0
O1027 O 0.35704 0.68879 0.18006 0.0
H1028 H 0.33766 0.70157 0.1561 0.0
H1029 H 0.33319 0.71408 0.13782 0.0
H1030 H 0.29668 0.69757 0.13573 0.0
H1031 H 0.30147 0.68482 0.15359 0.0
H1032 H 0.30635 0.63495 0.19172 0.0
H1033 H 0.31795 0.65394 0.18708 0.0
H1034 H 0.32695 0.63107 0.22573 0.0
H1035 H 0.33813 0.65014 0.22119 0.0
H1036 H 0.38581 0.69465 0.2181 0.0
H1037 H 0.39137 0.72263 0.19031 0.0
H1038 H 0.37175 0.71688 0.18063 0.0
H1039 H 0.36594 0.68875 0.20822 0.0
C1040 C 0.32205 0.33243 0.15091 0.0
C1041 C 0.32897 0.32259 0.14638 0.0
C1042 C 0.31476 0.32061 0.12892 0.0
C1043 C 0.32528 0.31665 0.13543 0.0
C1044 C 0.30776 0.33016 0.13377 0.0
C1045 C 0.31136 0.33596 0.14463 0.0
U1046 U 0.34167 0.34242 0.1799 0.0
O1047 O 0.34572 0.36157 0.18534 0.0
O1048 O 0.3345 0.34957 0.19734 0.0
C1049 C 0.33942 0.36055 0.1956 0.0
C1050 C 0.3257 0.33975 0.16176 0.0
C1051 C 0.33221 0.37118 0.19967 0.0
C1052 C 0.31726 0.38759 0.1969 0.0
C1053 C 0.32383 0.3776 0.19212 0.0
C1054 C 0.32762 0.38487 0.21653 0.0
C1055 C 0.31898 0.39115 0.20925 0.0
C1056 C 0.33409 0.37502 0.21181 0.0
C1057 C 0.3705 0.32412 0.19097 0.0
C1058 C 0.38904 0.33027 0.20226 0.0
C1059 C 0.3845 0.30868 0.19906 0.0
C1060 C 0.37362 0.31178 0.19284 0.0
C1061 C 0.39252 0.31788 0.20359 0.0
C1062 C 0.37815 0.33337 0.19598 0.0
C1063 C 0.35986 0.32689 0.18286 0.0
O1064 O 0.32416 0.33471 0.17267 0.0
O1065 O 0.33583 0.34648 0.16088 0.0
O1066 O 0.36066 0.33683 0.17594 0.0
O1067 O 0.34882 0.32506 0.18752 0.0
H1068 H 0.33729 0.31973 0.15111 0.0
H1069 H 0.33087 0.30935 0.1318 0.0
H1070 H 0.29962 0.33336 0.12895 0.0
H1071 H 0.30589 0.34349 0.14798 0.0
H1072 H 0.31061 0.39226 0.1911 0.0
H1073 H 0.32228 0.37481 0.18267 0.0
H1074 H 0.32928 0.38749 0.22601 0.0
H1075 H 0.34057 0.37029 0.21775 0.0
H1076 H 0.39484 0.33761 0.20586 0.0
H1077 H 0.38687 0.29907 0.19979 0.0
H1078 H 0.36785 0.3045 0.18906 0.0
H1079 H 0.37591 0.34298 0.19475 0.0
C1080 C 0.65213 0.32087 0.19118 0.0
C1081 C 0.64345 0.32913 0.19586 0.0
C1082 C 0.63051 0.31192 0.20278 0.0
C1083 C 0.63271 0.32466 0.20169 0.0
C1084 C 0.63961 0.30382 0.19878 0.0
C1085 C 0.65026 0.30824 0.19307 0.0
U1086 U 0.68046 0.34102 0.18071 0.0
O1087 O 0.69801 0.33446 0.17336 0.0
O1088 O 0.68597 0.34582 0.16173 0.0
C1089 C 0.69609 0.33932 0.16241 0.0
C1090 C 0.66253 0.3247 0.1832 0.0
C1091 C 0.699 0.33164 0.15167 0.0
C1092 C 0.70219 0.31176 0.14215 0.0
C1093 C 0.69781 0.31877 0.15194 0.0
C1094 C 0.70857 0.3304 0.13153 0.0
C1095 C 0.70792 0.31749 0.13194 0.0
C1096 C 0.70414 0.33737 0.14128 0.0
C1097 C 0.68987 0.36945 0.20108 0.0
C1098 C 0.70567 0.38543 0.19865 0.0
C1099 C 0.6939 0.38396 0.21752 0.0
C1100 C 0.68731 0.37397 0.2128 0.0
C1101 C 0.70322 0.38971 0.21058 0.0
C1102 C 0.69905 0.37526 0.19392 0.0
C1103 C 0.68264 0.35867 0.19698 0.0
O1104 O 0.6614 0.33488 0.17673 0.0
O1105 O 0.67371 0.3231 0.18764 0.0
O1106 O 0.68778 0.34788 0.19835 0.0
O1107 O 0.67613 0.35973 0.18679 0.0
H1108 H 0.64471 0.33895 0.19458 0.0
H1109 H 0.62583 0.3311 0.2047 0.0
H1110 H 0.63823 0.29397 0.19963 0.0
H1111 H 0.65682 0.30171 0.18959 0.0
H1112 H 0.70128 0.30185 0.14267 0.0
H1113 H 0.6938 0.31411 0.15984 0.0
H1114 H 0.713 0.33515 0.12394 0.0
H1115 H 0.70516 0.34728 0.1409 0.0
H1116 H 0.7129 0.3897 0.1932 0.0
H1117 H 0.69182 0.38713 0.2267 0.0
H1118 H 0.68023 0.36965 0.21842 0.0
H1119 H 0.70116 0.37188 0.18483 0.0
C1120 C 0.65128 0.32112 0.83322 0.0
C1121 C 0.65006 0.32338 0.8205 0.0
C1122 C 0.63056 0.31195 0.82028 0.0
C1123 C 0.63968 0.31885 0.81405 0.0
C1124 C 0.63154 0.31041 0.83308 0.0
C1125 C 0.64179 0.31493 0.83946 0.0
U1126 U 0.68094 0.33989 0.8418 0.0
O1127 O 0.68787 0.34392 0.86044 0.0
O1128 O 0.69894 0.33282 0.84788 0.0
C1129 C 0.6979 0.33744 0.85896 0.0
C1130 C 0.66259 0.32401 0.84026 0.0
C1131 C 0.70207 0.32973 0.86936 0.0
C1132 C 0.69896 0.31975 0.88929 0.0
C1133 C 0.69409 0.32514 0.87854 0.0
C1134 C 0.71963 0.32293 0.88141 0.0
C1135 C 0.71182 0.31905 0.89096 0.0
C1136 C 0.71481 0.3282 0.87075 0.0
C1137 C 0.69063 0.36892 0.82331 0.0
C1138 C 0.70406 0.38586 0.8296 0.0
C1139 C 0.69739 0.38422 0.80834 0.0
C1140 C 0.69086 0.37343 0.81121 0.0
C1141 C 0.70387 0.39071 0.81754 0.0
C1142 C 0.69748 0.37505 0.83247 0.0
C1143 C 0.68257 0.35828 0.82611 0.0
O1144 O 0.67318 0.32256 0.83466 0.0
O1145 O 0.66231 0.33379 0.84729 0.0
O1146 O 0.67627 0.35876 0.83639 0.0
O1147 O 0.68718 0.3474 0.82398 0.0
H1148 H 0.65728 0.32822 0.81551 0.0
H1149 H 0.6391 0.32016 0.80417 0.0
H1150 H 0.62456 0.30527 0.83812 0.0
H1151 H 0.64253 0.31316 0.84926 0.0
H1152 H 0.69277 0.31683 0.89656 0.0
H1153 H 0.6842 0.3262 0.87765 0.0
H1154 H 0.72956 0.3224 0.88245 0.0
H1155 H 0.72112 0.33166 0.86381 0.0
H1156 H 0.70915 0.3905 0.83686 0.0
H1157 H 0.69691 0.38771 0.799 0.0
H1158 H 0.68565 0.3688 0.80402 0.0
H1159 H 0.69752 0.37165 0.84187 0.0
C1160 C 0.64772 0.68624 0.82522 0.0
C1161 C 0.64725 0.69918 0.8254 0.0
C1162 C 0.62697 0.6985 0.81548 0.0
C1163 C 0.63687 0.70528 0.82062 0.0
C1164 C 0.62724 0.68561 0.81604 0.0
C1165 C 0.63747 0.67958 0.82085 0.0
U1166 U 0.67764 0.67645 0.84335 0.0
O1167 O 0.68395 0.65747 0.84613 0.0
O1168 O 0.69529 0.6706 0.83547 0.0
C1169 C 0.69395 0.65925 0.83953 0.0
C1170 C 0.65904 0.67925 0.82797 0.0
C1171 C 0.69797 0.64926 0.83134 0.0
C1172 C 0.69526 0.62898 0.82208 0.0
C1173 C 0.69024 0.63934 0.8278 0.0
C1174 C 0.7155 0.63865 0.82283 0.0
C1175 C 0.70804 0.62839 0.81999 0.0
C1176 C 0.71053 0.64893 0.82842 0.0
C1177 C 0.68763 0.69441 0.8732 0.0
C1178 C 0.70551 0.69206 0.88672 0.0
C1179 C 0.69161 0.70903 0.88962 0.0
C1180 C 0.68437 0.70489 0.87979 0.0
C1181 C 0.70227 0.70274 0.89311 0.0
C1182 C 0.69821 0.68789 0.87677 0.0
C1183 C 0.67993 0.69111 0.86242 0.0
O1184 O 0.66978 0.68486 0.8266 0.0
O1185 O 0.65869 0.67166 0.83743 0.0
O1186 O 0.6738 0.68061 0.86279 0.0
O1187 O 0.68453 0.6937 0.85154 0.0
H1188 H 0.65505 0.70456 0.82875 0.0
H1189 H 0.63689 0.71523 0.82028 0.0
H1190 H 0.61969 0.68015 0.81227 0.0
H1191 H 0.6376 0.66963 0.82059 0.0
H1192 H 0.68931 0.62118 0.81998 0.0
H1193 H 0.6805 0.63935 0.82994 0.0
H1194 H 0.72536 0.63852 0.8212 0.0
H1195 H 0.71668 0.65641 0.83107 0.0
H1196 H 0.71383 0.68719 0.88919 0.0
H1197 H 0.68907 0.71737 0.89431 0.0
H1198 H 0.6763 0.71007 0.87713 0.0
H1199 H 0.70093 0.6798 0.87176 0.0
C1200 C 0.31928 0.65285 0.83238 0.0
C1201 C 0.32819 0.64749 0.82485 0.0
C1202 C 0.31314 0.63191 0.81808 0.0
C1203 C 0.32515 0.6371 0.8178 0.0
C1204 C 0.30428 0.63743 0.82558 0.0
C1205 C 0.30734 0.64775 0.83265 0.0
U1206 U 0.33822 0.6817 0.84267 0.0
O1207 O 0.33124 0.69908 0.85003 0.0
O1208 O 0.34308 0.68743 0.86152 0.0
C1209 C 0.3365 0.69747 0.86084 0.0
C1210 C 0.32215 0.66347 0.84037 0.0
C1211 C 0.32913 0.70047 0.87175 0.0
C1212 C 0.31214 0.69675 0.88587 0.0
C1213 C 0.31857 0.69369 0.87516 0.0
C1214 C 0.32669 0.7134 0.88972 0.0
C1215 C 0.31621 0.70658 0.89337 0.0
C1216 C 0.33304 0.71037 0.87904 0.0
C1217 C 0.36721 0.69174 0.82376 0.0
C1218 C 0.38057 0.70966 0.82669 0.0
C1219 C 0.38582 0.69438 0.81157 0.0
C1220 C 0.37519 0.68764 0.81461 0.0
C1221 C 0.38872 0.70548 0.81757 0.0
C1222 C 0.36993 0.70283 0.8298 0.0
C1223 C 0.35626 0.68408 0.82669 0.0
O1224 O 0.33222 0.66279 0.84713 0.0
O1225 O 0.32048 0.67442 0.83553 0.0
O1226 O 0.34542 0.68916 0.8252 0.0
O1227 O 0.35699 0.67723 0.83667 0.0
H1228 H 0.33749 0.65126 0.82451 0.0
H1229 H 0.33229 0.63304 0.81228 0.0
H1230 H 0.2949 0.63391 0.8259 0.0
H1231 H 0.30034 0.65175 0.83839 0.0
H1232 H 0.304 0.6914 0.88827 0.0
H1233 H 0.31537 0.68602 0.86961 0.0
H1234 H 0.33025 0.72088 0.89531 0.0
H1235 H 0.34119 0.7157 0.87656 0.0
H1236 H 0.38236 0.71825 0.83141 0.0
H1237 H 0.39189 0.69069 0.80469 0.0
H1238 H 0.37326 0.67909 0.80986 0.0
H1239 H 0.36387 0.70617 0.83688 0.0
C1240 C 0.33012 0.36957 0.82193 0.0
C1241 C 0.32169 0.37416 0.83046 0.0
C1242 C 0.31663 0.39104 0.81635 0.0
C1243 C 0.31497 0.38478 0.82767 0.0
C1244 C 0.32491 0.38616 0.80781 0.0
C1245 C 0.33151 0.37555 0.81056 0.0
U1246 U 0.3412 0.34083 0.84046 0.0
O1247 O 0.34799 0.3234 0.83303 0.0
O1248 O 0.36047 0.33539 0.84377 0.0
C1249 C 0.35922 0.32525 0.83733 0.0
C1250 C 0.33805 0.35897 0.82466 0.0
C1251 C 0.36957 0.32152 0.82941 0.0
C1252 C 0.3895 0.32518 0.81956 0.0
C1253 C 0.37881 0.32972 0.82517 0.0
C1254 C 0.38145 0.30443 0.82185 0.0
C1255 C 0.39108 0.31243 0.81829 0.0
C1256 C 0.37087 0.30892 0.82734 0.0
C1257 C 0.32317 0.33006 0.86988 0.0
C1258 C 0.32732 0.31295 0.8838 0.0
C1259 C 0.30907 0.32516 0.88661 0.0
C1260 C 0.31244 0.33245 0.87651 0.0
C1261 C 0.31642 0.31528 0.89044 0.0
C1262 C 0.33064 0.32025 0.87358 0.0
C1263 C 0.32604 0.338 0.85915 0.0
O1264 O 0.34519 0.35981 0.83445 0.0
O1265 O 0.33307 0.34798 0.82323 0.0
O1266 O 0.32396 0.33325 0.84822 0.0
O1267 O 0.33621 0.3447 0.85968 0.0
H1268 H 0.32044 0.36965 0.83929 0.0
H1269 H 0.30852 0.38809 0.83441 0.0
H1270 H 0.32665 0.39074 0.79911 0.0
H1271 H 0.33799 0.37216 0.80387 0.0
H1272 H 0.39678 0.33155 0.81687 0.0
H1273 H 0.37802 0.33951 0.82663 0.0
H1274 H 0.38233 0.29458 0.82084 0.0
H1275 H 0.3639 0.30242 0.83053 0.0
H1276 H 0.33335 0.30555 0.88652 0.0
H1277 H 0.30052 0.32716 0.89123 0.0
H1278 H 0.30652 0.33995 0.87377 0.0
H1279 H 0.33899 0.31823 0.86859 0.0
H1280 H 0.23372 0.25548 0.99295 0.0
H1281 H 0.22391 0.24819 0.97401 0.0
H1282 H 0.25882 0.23425 0.9617 0.0
H1283 H 0.26862 0.24143 0.98088 0.0
H1284 H 0.24542 0.24293 0.01097 0.0
H1285 H 0.25642 0.27587 0.98158 0.0
H1286 H 0.26557 0.28353 0.96228 0.0
H1287 H 0.30029 0.26729 0.97256 0.0
H1288 H 0.29119 0.25978 0.99181 0.0
H1289 H 0.29174 0.26364 0.02962 0.0
H1290 H 0.30038 0.27405 0.04779 0.0
H1291 H 0.26382 0.28439 0.05869 0.0
H1292 H 0.25513 0.27419 0.04042 0.0
H1293 H 0.2801 0.27314 0.01081 0.0
H1294 H 0.27026 0.24461 0.04233 0.0
H1295 H 0.26167 0.23726 0.06178 0.0
H1296 H 0.22482 0.24237 0.04758 0.0
H1297 H 0.23339 0.25058 0.02835 0.0
C1298 C 0.25193 0.24917 0.98823 0.0
C1299 C 0.23926 0.2508 0.98621 0.0
C1300 C 0.23369 0.24667 0.97538 0.0
C1301 C 0.24064 0.24075 0.96636 0.0
C1302 C 0.25325 0.23875 0.96853 0.0
C1303 C 0.25887 0.24296 0.97939 0.0
C1304 C 0.25768 0.25382 0.99973 0.0
C1305 C 0.25289 0.24968 0.01102 0.0
C1306 C 0.26768 0.2623 0.99966 0.0
C1307 C 0.2731 0.26714 0.98806 0.0
C1308 C 0.26601 0.27399 0.97967 0.0
C1309 C 0.27125 0.27844 0.96871 0.0
C1310 C 0.28362 0.27596 0.96593 0.0
C1311 C 0.29071 0.26926 0.97444 0.0
C1312 C 0.28554 0.26498 0.98543 0.0
C1313 C 0.27277 0.26805 0.03368 0.0
C1314 C 0.28555 0.26803 0.03597 0.0
C1315 C 0.29048 0.27385 0.04638 0.0
C1316 C 0.2827 0.27976 0.05464 0.0
C1317 C 0.26992 0.27966 0.0525 0.0
C1318 C 0.26499 0.27386 0.04208 0.0
C1319 C 0.26768 0.26247 0.02223 0.0
C1320 C 0.2726 0.26643 0.0109 0.0
C1321 C 0.25776 0.25379 0.02231 0.0
C1322 C 0.25253 0.24857 0.03392 0.0
C1323 C 0.26033 0.24441 0.04341 0.0
C1324 C 0.25543 0.24006 0.05449 0.0
C1325 C 0.24261 0.23932 0.05616 0.0
C1326 C 0.23475 0.24283 0.04649 0.0
C1327 C 0.23966 0.24753 0.03551 0.0
H1328 H 0.76088 0.23471 0.99315 0.0
H1329 H 0.76832 0.22457 0.9749 0.0
H1330 H 0.79112 0.25651 0.96645 0.0
H1331 H 0.78264 0.26697 0.98436 0.0
H1332 H 0.77751 0.24509 0.01279 0.0
H1333 H 0.74893 0.25641 0.98011 0.0
H1334 H 0.74274 0.26676 0.96117 0.0
H1335 H 0.74926 0.30189 0.97874 0.0
H1336 H 0.75711 0.29155 0.99678 0.0
H1337 H 0.75687 0.29074 0.03159 0.0
H1338 H 0.74892 0.29815 0.05125 0.0
H1339 H 0.73931 0.26081 0.06156 0.0
H1340 H 0.74713 0.25355 0.04203 0.0
H1341 H 0.74728 0.2789 0.01267 0.0
H1342 H 0.78181 0.27031 0.03922 0.0
H1343 H 0.79078 0.26363 0.05865 0.0
H1344 H 0.77297 0.22799 0.05429 0.0
H1345 H 0.76489 0.23459 0.03432 0.0
C1346 C 0.77124 0.25153 0.99008 0.0
C1347 C 0.76741 0.23954 0.98729 0.0
C1348 C 0.77184 0.2337 0.97688 0.0
C1349 C 0.78064 0.23952 0.96923 0.0
C1350 C 0.78433 0.2517 0.97199 0.0
C1351 C 0.77958 0.25768 0.98229 0.0
C1352 C 0.76671 0.25726 1.00144 0.0
C1353 C 0.77087 0.25247 0.01271 0.0
C1354 C 0.75832 0.26713 1.00134 0.0
C1355 C 0.75397 0.27314 0.9898 0.0
C1356 C 0.74951 0.26633 0.97971 0.0
C1357 C 0.74564 0.27231 0.96894 0.0
C1358 C 0.74568 0.28523 0.96823 0.0
C1359 C 0.74955 0.29196 0.97862 0.0
C1360 C 0.75386 0.28601 0.98913 0.0
C1361 C 0.75292 0.27154 0.03548 0.0
C1362 C 0.753 0.28418 0.03809 0.0
C1363 C 0.74842 0.2884 0.0493 0.0
C1364 C 0.74369 0.28004 0.05807 0.0
C1365 C 0.74321 0.26747 0.05518 0.0
C1366 C 0.74771 0.26329 0.044 0.0
C1367 C 0.75821 0.26687 0.02387 0.0
C1368 C 0.75407 0.27168 0.01262 0.0
C1369 C 0.76694 0.25735 0.02388 0.0
C1370 C 0.77266 0.25295 0.03543 0.0
C1371 C 0.77998 0.26101 0.04244 0.0
C1372 C 0.78496 0.25719 0.05366 0.0
C1373 C 0.78246 0.24529 0.05829 0.0
C1374 C 0.77527 0.23716 0.05106 0.0
C1375 C 0.77055 0.24092 0.03965 0.0
H1376 H 0.76421 0.78767 0.03201 0.0
H1377 H 0.77324 0.79491 0.05138 0.0
H1378 H 0.78935 0.7591 0.05713 0.0
H1379 H 0.77959 0.75187 0.03829 0.0
H1380 H 0.77646 0.77673 0.01106 0.0
H1381 H 0.74483 0.76589 0.0415 0.0
H1382 H 0.73754 0.75611 0.06065 0.0
H1383 H 0.75039 0.7211 0.04781 0.0
H1384 H 0.75771 0.73084 0.02885 0.0
H1385 H 0.75377 0.73065 0.99328 0.0
H1386 H 0.74562 0.72231 0.97391 0.0
H1387 H 0.739 0.75921 0.96081 0.0
H1388 H 0.74677 0.76746 0.9802 0.0
H1389 H 0.74535 0.74282 0.01105 0.0
H1390 H 0.77793 0.75116 0.98305 0.0
H1391 H 0.78677 0.75809 0.96364 0.0
H1392 H 0.77472 0.79506 0.97099 0.0
H1393 H 0.76631 0.78804 0.99071 0.0
C1394 C 0.77104 0.76918 0.03386 0.0
C1395 C 0.76963 0.78141 0.03756 0.0
C1396 C 0.77492 0.78555 0.04861 0.0
C1397 C 0.78197 0.7776 0.05608 0.0
C1398 C 0.78367 0.76546 0.052 0.0
C1399 C 0.77817 0.76128 0.04111 0.0
C1400 C 0.76529 0.76464 0.02229 0.0
C1401 C 0.76948 0.76948 0.01104 0.0
C1402 C 0.75657 0.75484 0.02227 0.0
C1403 C 0.75195 0.74911 0.03382 0.0
C1404 C 0.74608 0.75611 0.04285 0.0
C1405 C 0.74181 0.75052 0.0537 0.0
C1406 C 0.74345 0.73787 0.0557 0.0
C1407 C 0.7491 0.73088 0.04654 0.0
C1408 C 0.75326 0.73643 0.0357 0.0
C1409 C 0.75121 0.74973 0.98812 0.0
C1410 C 0.75047 0.73695 0.98627 0.0
C1411 C 0.74579 0.73218 0.97521 0.0
C1412 C 0.74184 0.74011 0.96575 0.0
C1413 C 0.74223 0.75286 0.9678 0.0
C1414 C 0.74674 0.7576 0.97888 0.0
C1415 C 0.75649 0.75487 0.99974 0.0
C1416 C 0.75224 0.75015 0.01102 0.0
C1417 C 0.76541 0.76455 0.99977 0.0
C1418 C 0.77128 0.76903 0.98823 0.0
C1419 C 0.77722 0.76076 0.98049 0.0
C1420 C 0.7822 0.76476 0.96932 0.0
C1421 C 0.78128 0.77712 0.96554 0.0
C1422 C 0.77568 0.78549 0.97355 0.0
C1423 C 0.7708 0.78149 0.98483 0.0
H1424 H 0.25925 0.73605 0.99258 0.0
H1425 H 0.26617 0.72589 0.97407 0.0
H1426 H 0.29338 0.75491 0.96843 0.0
H1427 H 0.28552 0.76549 0.98653 0.0
H1428 H 0.27872 0.7461 0.01389 0.0
H1429 H 0.24328 0.75425 0.98686 0.0
H1430 H 0.23409 0.76087 0.96751 0.0
H1431 H 0.25359 0.79575 0.97043 0.0
H1432 H 0.26228 0.78913 0.99021 0.0
H1433 H 0.25946 0.79195 0.02994 0.0
H1434 H 0.25055 0.80181 0.04773 0.0
H1435 H 0.23698 0.76653 0.06081 0.0
H1436 H 0.24648 0.75662 0.04308 0.0
H1437 H 0.24789 0.77935 0.01201 0.0
H1438 H 0.27663 0.7725 0.04364 0.0
H1439 H 0.28457 0.76573 0.06322 0.0
H1440 H 0.28175 0.72791 0.05109 0.0
H1441 H 0.27178 0.73479 0.03223 0.0
C1442 C 0.27195 0.75142 0.99091 0.0
C1443 C 0.26666 0.74022 0.98728 0.0
C1444 C 0.27076 0.73437 0.97673 0.0
C1445 C 0.2806 0.73937 0.96978 0.0
C1446 C 0.28576 0.75076 0.97341 0.0
C1447 C 0.28139 0.75678 0.98384 0.0
C1448 C 0.26755 0.75742 1.00216 0.0
C1449 C 0.27188 0.75328 0.01362 0.0
C1450 C 0.25895 0.76698 1.00161 0.0
C1451 C 0.2536 0.77112 0.98979 0.0
C1452 C 0.24561 0.76329 0.98327 0.0
C1453 C 0.24042 0.7671 0.97215 0.0
C1454 C 0.24323 0.7788 0.96721 0.0
C1455 C 0.25112 0.78673 0.97393 0.0
C1456 C 0.25619 0.78293 0.98519 0.0
C1457 C 0.25354 0.77359 0.03514 0.0
C1458 C 0.25458 0.78633 0.03665 0.0
C1459 C 0.24941 0.79195 0.04682 0.0
C1460 C 0.24279 0.78501 0.05562 0.0
C1461 C 0.24203 0.77216 0.05426 0.0
C1462 C 0.24738 0.76649 0.04409 0.0
C1463 C 0.25882 0.76791 0.02403 0.0
C1464 C 0.25473 0.77217 0.0125 0.0
C1465 C 0.26769 0.75844 0.02464 0.0
C1466 C 0.27316 0.75419 0.03651 0.0
C1467 C 0.27722 0.76271 0.04534 0.0
C1468 C 0.2822 0.75877 0.05651 0.0
C1469 C 0.28407 0.74619 0.0589 0.0
C1470 C 0.28029 0.73765 0.04986 0.0
C1471 C 0.27474 0.7416 0.0389 0.0
H1472 H 0.02634 0.25553 0.23019 0.0
H1473 H 0.04372 0.24511 0.2209 0.0
H1474 H 0.0602 0.24003 0.2568 0.0
H1475 H 0.04236 0.24981 0.26627 0.0
H1476 H 0.00981 0.24705 0.24378 0.0
H1477 H 0.04157 0.27752 0.25007 0.0
H1478 H 0.0616 0.28477 0.2579 0.0
H1479 H 0.04882 0.28 0.29516 0.0
H1480 H 0.02907 0.2719 0.2874 0.0
H1481 H 0.9938 0.27196 0.2884 0.0
H1482 H 0.97437 0.27965 0.29671 0.0
H1483 H 0.9601 0.28388 0.25977 0.0
H1484 H 0.97971 0.27713 0.25148 0.0
H1485 H 0.01134 0.28013 0.27497 0.0
H1486 H 0.98469 0.2435 0.26855 0.0
H1487 H 0.96535 0.23381 0.26227 0.0
H1488 H 0.96792 0.25228 0.22687 0.0
H1489 H 0.98792 0.26086 0.23297 0.0
C1490 C 0.033 0.25355 0.24896 0.0
C1491 C 0.03366 0.2522 0.23612 0.0
C1492 C 0.04362 0.24632 0.2308 0.0
C1493 C 0.05327 0.24186 0.23816 0.0
C1494 C 0.0529 0.24353 0.25095 0.0
C1495 C 0.04273 0.24915 0.25634 0.0
C1496 C 0.02177 0.25898 0.25445 0.0
C1497 C 0.01025 0.25442 0.25047 0.0
C1498 C 0.02217 0.26833 0.26352 0.0
C1499 C 0.03392 0.27381 0.26813 0.0
C1500 C 0.04309 0.27788 0.25992 0.0
C1501 C 0.05446 0.28214 0.26437 0.0
C1502 C 0.05664 0.28289 0.27709 0.0
C1503 C 0.04726 0.27953 0.28532 0.0
C1504 C 0.03602 0.27491 0.28087 0.0
C1505 C 0.9881 0.27351 0.26929 0.0
C1506 C 0.98656 0.27471 0.28208 0.0
C1507 C 0.97549 0.2791 0.28682 0.0
C1508 C 0.96574 0.28215 0.27885 0.0
C1509 C 0.96744 0.28138 0.2661 0.0
C1510 C 0.97859 0.27734 0.26137 0.0
C1511 C 0.99958 0.26823 0.26421 0.0
C1512 C 0.01106 0.27279 0.26826 0.0
C1513 C 0.99926 0.25885 0.25525 0.0
C1514 C 0.98759 0.25294 0.25126 0.0
C1515 C 0.98108 0.24532 0.25941 0.0
C1516 C 0.9699 0.23993 0.2558 0.0
C1517 C 0.96476 0.24239 0.24409 0.0
C1518 C 0.97151 0.24996 0.23589 0.0
C1519 C 0.98293 0.25499 0.23938 0.0
H1520 H 0.76538 0.02943 0.23365 0.0
H1521 H 0.77311 0.0492 0.22564 0.0
H1522 H 0.78469 0.05964 0.26219 0.0
H1523 H 0.7773 0.03972 0.27023 0.0
H1524 H 0.77589 0.01087 0.24444 0.0
H1525 H 0.74762 0.04206 0.25683 0.0
H1526 H 0.74059 0.06033 0.26744 0.0
H1527 H 0.74587 0.04164 0.30235 0.0
H1528 H 0.75465 0.02449 0.29189 0.0
H1529 H 0.76211 0.99042 0.28985 0.0
H1530 H 0.75505 0.97123 0.2995 0.0
H1531 H 0.7365 0.96089 0.26572 0.0
H1532 H 0.74364 0.98019 0.25606 0.0
H1533 H 0.74665 1.0086 0.27927 0.0
H1534 H 0.77992 0.98089 0.26683 0.0
H1535 H 0.78892 0.96337 0.2563 0.0
H1536 H 0.77022 0.97424 0.22269 0.0
H1537 H 0.76196 0.99197 0.23312 0.0
C1538 C 0.77057 0.03319 0.25257 0.0
C1539 C 0.76972 0.03589 0.23993 0.0
C1540 C 0.77412 0.04713 0.23536 0.0
C1541 C 0.77945 0.05578 0.24336 0.0
C1542 C 0.78063 0.053 0.25592 0.0
C1543 C 0.77633 0.04171 0.26049 0.0
C1544 C 0.76545 0.02142 0.25739 0.0
C1545 C 0.76944 0.01046 0.25204 0.0
C1546 C 0.75701 0.02083 0.26733 0.0
C1547 C 0.75208 0.03193 0.2735 0.0
C1548 C 0.74766 0.04209 0.26679 0.0
C1549 C 0.74335 0.05248 0.2729 0.0
C1550 C 0.74286 0.05272 0.28586 0.0
C1551 C 0.7466 0.0422 0.29244 0.0
C1552 C 0.75142 0.03215 0.28639 0.0
C1553 C 0.75349 0.9866 0.27224 0.0
C1554 C 0.75656 0.984 0.28452 0.0
C1555 C 0.75255 0.97306 0.29 0.0
C1556 C 0.74529 0.96461 0.28331 0.0
C1557 C 0.74206 0.96731 0.27105 0.0
C1558 C 0.7462 0.97823 0.26552 0.0
C1559 C 0.75757 0.99837 0.26671 0.0
C1560 C 0.75321 0.00924 0.27179 0.0
C1561 C 0.76567 0.99895 0.25663 0.0
C1562 C 0.77036 0.98776 0.2507 0.0
C1563 C 0.77777 0.97942 0.2572 0.0
C1564 C 0.78285 0.96935 0.25116 0.0
C1565 C 0.78052 0.96743 0.23853 0.0
C1566 C 0.77262 0.97558 0.23228 0.0
C1567 C 0.76776 0.9857 0.23825 0.0
H1568 H 0.02926 0.73161 0.26531 0.0
H1569 H 0.04748 0.72267 0.27538 0.0
H1570 H 0.0574 0.75822 0.29004 0.0
H1571 H 0.03931 0.7672 0.27988 0.0
H1572 H 0.00997 0.74357 0.27758 0.0
H1573 H 0.04052 0.75385 0.2456 0.0
H1574 H 0.05998 0.76325 0.23851 0.0
H1575 H 0.04863 0.79823 0.25287 0.0
H1576 H 0.02932 0.78881 0.25997 0.0
H1577 H 0.99185 0.78911 0.25579 0.0
H1578 H 0.9723 0.79673 0.2475 0.0
H1579 H 0.9621 0.7597 0.23682 0.0
H1580 H 0.98136 0.75219 0.24545 0.0
H1581 H 0.011 0.77721 0.24656 0.0
H1582 H 0.98001 0.76969 0.27478 0.0
H1583 H 0.96054 0.76297 0.28311 0.0
H1584 H 0.97255 0.72519 0.28177 0.0
H1585 H 0.99135 0.73199 0.27148 0.0
C1586 C 0.03298 0.75008 0.27179 0.0
C1587 C 0.03546 0.73751 0.27054 0.0
C1588 C 0.04586 0.73243 0.27621 0.0
C1589 C 0.0538 0.73982 0.28334 0.0
C1590 C 0.05142 0.75241 0.28447 0.0
C1591 C 0.04112 0.75752 0.27868 0.0
C1592 C 0.02155 0.75527 0.26642 0.0
C1593 C 0.01011 0.75072 0.27057 0.0
C1594 C 0.02184 0.7651 0.25786 0.0
C1595 C 0.03356 0.77062 0.25342 0.0
C1596 C 0.04227 0.76353 0.24723 0.0
C1597 C 0.0533 0.76892 0.2431 0.0
C1598 C 0.05581 0.78145 0.24521 0.0
C1599 C 0.04699 0.78853 0.25125 0.0
C1600 C 0.03595 0.78318 0.25526 0.0
C1601 C 0.98794 0.77004 0.25144 0.0
C1602 C 0.98539 0.78267 0.25158 0.0
C1603 C 0.97423 0.78702 0.2468 0.0
C1604 C 0.96548 0.77882 0.24168 0.0
C1605 C 0.96841 0.76626 0.24103 0.0
C1606 C 0.97947 0.76193 0.24589 0.0
C1607 C 0.9993 0.76521 0.25733 0.0
C1608 C 0.01073 0.7699 0.2534 0.0
C1609 C 0.99893 0.7557 0.26635 0.0
C1610 C 0.98713 0.75139 0.27207 0.0
C1611 C 0.97833 0.75991 0.27582 0.0
C1612 C 0.96721 0.756 0.28101 0.0
C1613 C 0.96483 0.74345 0.28344 0.0
C1614 C 0.9738 0.7349 0.27993 0.0
C1615 C 0.98473 0.73882 0.27419 0.0
H1616 H 0.22933 0.02741 0.25481 0.0
H1617 H 0.22002 0.04506 0.24442 0.0
H1618 H 0.25616 0.06085 0.23821 0.0
H1619 H 0.2656 0.04283 0.24776 0.0
H1620 H 0.24183 0.01048 0.24683 0.0
H1621 H 0.25086 0.03973 0.27863 0.0
H1622 H 0.25882 0.05814 0.28894 0.0
H1623 H 0.29546 0.05051 0.27592 0.0
H1624 H 0.28743 0.03203 0.26552 0.0
H1625 H 0.2886 0.99459 0.26472 0.0
H1626 H 0.29845 0.97574 0.27171 0.0
H1627 H 0.26344 0.96203 0.28522 0.0
H1628 H 0.25361 0.98112 0.27839 0.0
H1629 H 0.27662 0.0122 0.27668 0.0
H1630 H 0.26757 0.98398 0.24407 0.0
H1631 H 0.26019 0.96501 0.23435 0.0
H1632 H 0.22399 0.97047 0.24955 0.0
H1633 H 0.23143 0.98957 0.25928 0.0
C1634 C 0.2482 0.03375 0.25223 0.0
C1635 C 0.2353 0.03464 0.25125 0.0
C1636 C 0.22997 0.04475 0.24543 0.0
C1637 C 0.23742 0.05427 0.24072 0.0
C1638 C 0.25027 0.05365 0.24199 0.0
C1639 C 0.25564 0.04338 0.24752 0.0
C1640 C 0.2538 0.02244 0.2575 0.0
C1641 C 0.24924 0.01092 0.25358 0.0
C1642 C 0.26384 0.02288 0.26593 0.0
C1643 C 0.26855 0.03453 0.2713 0.0
C1644 C 0.26057 0.04212 0.27781 0.0
C1645 C 0.26512 0.0526 0.28372 0.0
C1646 C 0.27775 0.0557 0.28322 0.0
C1647 C 0.28568 0.04836 0.27634 0.0
C1648 C 0.28112 0.03778 0.2705 0.0
C1649 C 0.27037 0.98918 0.27091 0.0
C1650 C 0.28306 0.98759 0.26929 0.0
C1651 C 0.28865 0.97681 0.27323 0.0
C1652 C 0.28166 0.96742 0.2789 0.0
C1653 C 0.26902 0.96916 0.28091 0.0
C1654 C 0.2634 0.97998 0.27692 0.0
C1655 C 0.26447 1.00044 0.26616 0.0
C1656 C 0.26907 0.01188 0.27007 0.0
C1657 C 0.25448 0.99994 0.25776 0.0
C1658 C 0.25005 0.98816 0.2524 0.0
C1659 C 0.25808 0.98104 0.24542 0.0
C1660 C 0.25385 0.97024 0.23986 0.0
C1661 C 0.24153 0.96631 0.2412 0.0
C1662 C 0.23356 0.97326 0.24846 0.0
C1663 C 0.23776 0.98419 0.25392 0.0
H1664 H 0.0331 0.76216 0.78826 0.0
H1665 H 0.05192 0.77222 0.7963 0.0
H1666 H 0.05686 0.79088 0.76146 0.0
H1667 H 0.03817 0.78075 0.75344 0.0
H1668 H 0.01186 0.7763 0.77823 0.0
H1669 H 0.03924 0.74159 0.76506 0.0
H1670 H 0.05677 0.73288 0.75422 0.0
H1671 H 0.04816 0.75559 0.72249 0.0
H1672 H 0.03024 0.76336 0.73308 0.0
H1673 H 0.99019 0.75749 0.733 0.0
H1674 H 0.96999 0.74964 0.72622 0.0
H1675 H 0.963 0.73626 0.76317 0.0
H1676 H 0.98284 0.74458 0.76987 0.0
H1677 H 0.01039 0.74665 0.74366 0.0
H1678 H 0.98263 0.77759 0.75265 0.0
H1679 H 0.96388 0.78717 0.75988 0.0
H1680 H 0.97323 0.7771 0.79729 0.0
H1681 H 0.99189 0.76702 0.78989 0.0
C1682 C 0.03433 0.77072 0.77028 0.0
C1683 C 0.03836 0.7683 0.78234 0.0
C1684 C 0.04909 0.77397 0.78688 0.0
C1685 C 0.05575 0.78232 0.77948 0.0
C1686 C 0.05182 0.78452 0.76733 0.0
C1687 C 0.04121 0.77872 0.76275 0.0
C1688 C 0.02254 0.76549 0.76574 0.0
C1689 C 0.01151 0.7696 0.77088 0.0
C1690 C 0.02212 0.7573 0.75574 0.0
C1691 C 0.03343 0.75297 0.74977 0.0
C1692 C 0.04121 0.74463 0.75575 0.0
C1693 C 0.05129 0.73974 0.74955 0.0
C1694 C 0.05384 0.74329 0.73731 0.0
C1695 C 0.0463 0.7522 0.73169 0.0
C1696 C 0.0361 0.75681 0.73777 0.0
C1697 C 0.98788 0.75176 0.75196 0.0
C1698 C 0.98426 0.75283 0.73958 0.0
C1699 C 0.97274 0.74828 0.73572 0.0
C1700 C 0.96475 0.74246 0.74418 0.0
C1701 C 0.96871 0.74101 0.75646 0.0
C1702 C 0.9801 0.74568 0.76032 0.0
C1703 C 0.99967 0.75717 0.75636 0.0
C1704 C 0.01069 0.75318 0.75117 0.0
C1705 C 1.00004 0.76573 0.76612 0.0
C1706 C 0.98863 0.77149 0.77071 0.0
C1707 C 0.98058 0.77727 0.76239 0.0
C1708 C 0.96991 0.78285 0.76656 0.0
C1709 C 0.96711 0.78297 0.77917 0.0
C1710 C 0.97509 0.77707 0.78751 0.0
C1711 C 0.98581 0.77143 0.78331 0.0
H1712 H 0.26494 0.03068 0.73465 0.0
H1713 H 0.27288 0.05085 0.72807 0.0
H1714 H 0.28864 0.05627 0.7644 0.0
H1715 H 0.28003 0.0366 0.77097 0.0
H1716 H 0.27713 0.00991 0.74527 0.0
H1717 H 0.24585 0.03776 0.75417 0.0
H1718 H 0.23578 0.05605 0.76179 0.0
H1719 H 0.24593 0.04611 0.79904 0.0
H1720 H 0.25648 0.02794 0.79126 0.0
H1721 H 0.25697 0.99183 0.79162 0.0
H1722 H 0.24691 0.97397 0.8011 0.0
H1723 H 0.23887 0.9591 0.76518 0.0
H1724 H 0.2482 0.97739 0.75557 0.0
H1725 H 0.24701 1.00857 0.77942 0.0
H1726 H 0.27906 0.979 0.76811 0.0
H1727 H 0.2882 0.96143 0.75768 0.0
H1728 H 0.27347 0.97457 0.72299 0.0
H1729 H 0.26478 0.99212 0.73335 0.0
C1730 C 0.27177 0.03229 0.75334 0.0
C1731 C 0.27012 0.03629 0.74114 0.0
C1732 C 0.27473 0.04779 0.73739 0.0
C1733 C 0.28125 0.05536 0.74574 0.0
C1734 C 0.28331 0.05097 0.7578 0.0
C1735 C 0.27851 0.03964 0.76157 0.0
C1736 C 0.26632 0.02054 0.75769 0.0
C1737 C 0.27047 0.00954 0.75268 0.0
C1738 C 0.2577 0.02018 0.76738 0.0
C1739 C 0.25202 0.03153 0.77213 0.0
C1740 C 0.24614 0.03961 0.76396 0.0
C1741 C 0.24026 0.05 0.76834 0.0
C1742 C 0.23997 0.05246 0.78102 0.0
C1743 C 0.24607 0.0445 0.78921 0.0
C1744 C 0.252 0.03407 0.78479 0.0
C1745 C 0.25345 0.986 0.77285 0.0
C1746 C 0.25312 0.98473 0.78572 0.0
C1747 C 0.24744 0.97451 0.79116 0.0
C1748 C 0.2422 0.96522 0.78383 0.0
C1749 C 0.24299 0.96613 0.77097 0.0
C1750 C 0.2484 0.97655 0.76551 0.0
C1751 C 0.25816 0.99768 0.76735 0.0
C1752 C 0.25382 0.00879 0.77214 0.0
C1753 C 0.2665 0.99809 0.75735 0.0
C1754 C 0.27131 0.9869 0.75148 0.0
C1755 C 0.27776 0.978 0.75827 0.0
C1756 C 0.28293 0.96794 0.7523 0.0
C1757 C 0.28177 0.96667 0.73944 0.0
C1758 C 0.27488 0.9754 0.73283 0.0
C1759 C 0.26982 0.98543 0.73875 0.0
H1760 H 0.99603 0.26863 0.73445 0.0
H1761 H 0.97823 0.27663 0.7238 0.0
H1762 H 0.95999 0.28195 0.75863 0.0
H1763 H 0.97862 0.2751 0.76941 0.0
H1764 H 0.01169 0.27816 0.74811 0.0
H1765 H 0.9805 0.24655 0.75511 0.0
H1766 H 0.96063 0.23914 0.76318 0.0
H1767 H 0.97311 0.24666 0.80017 0.0
H1768 H 0.99278 0.25465 0.79213 0.0
H1769 H 0.02949 0.25118 0.79229 0.0
H1770 H 0.04804 0.24036 0.79897 0.0
H1771 H 0.06019 0.23924 0.76113 0.0
H1772 H 0.04112 0.24832 0.7545 0.0
H1773 H 0.01076 0.24513 0.77971 0.0
H1774 H 0.0411 0.27699 0.77298 0.0
H1775 H 0.06018 0.28643 0.76539 0.0
H1776 H 0.04916 0.27803 0.72804 0.0
H1777 H 0.03018 0.26828 0.73573 0.0
C1778 C 0.98868 0.27101 0.75278 0.0
C1779 C 0.9883 0.27166 0.73987 0.0
C1780 C 0.97795 0.27609 0.73375 0.0
C1781 C 0.96744 0.27964 0.74029 0.0
C1782 C 0.96788 0.27929 0.75325 0.0
C1783 C 0.97848 0.27517 0.75944 0.0
C1784 C 0.99997 0.2662 0.75894 0.0
C1785 C 0.01143 0.27083 0.75493 0.0
C1786 C 0.99973 0.25694 0.76821 0.0
C1787 C 0.98804 0.25148 0.77298 0.0
C1788 C 0.97897 0.24669 0.76495 0.0
C1789 C 0.96769 0.24235 0.76954 0.0
C1790 C 0.96548 0.24236 0.78224 0.0
C1791 C 0.97471 0.24655 0.79033 0.0
C1792 C 0.9859 0.25111 0.78574 0.0
C1793 C 0.03391 0.2508 0.77287 0.0
C1794 C 0.03611 0.24844 0.78544 0.0
C1795 C 0.04684 0.2424 0.78928 0.0
C1796 C 0.05568 0.23875 0.78062 0.0
C1797 C 0.05354 0.2415 0.76811 0.0
C1798 C 0.04267 0.24705 0.76428 0.0
C1799 C 0.02239 0.25687 0.76858 0.0
C1800 C 0.01095 0.2525 0.77294 0.0
C1801 C 0.02257 0.26633 0.75956 0.0
C1802 C 0.03422 0.27195 0.75493 0.0
C1803 C 0.04283 0.27709 0.76317 0.0
C1804 C 0.0537 0.28255 0.7588 0.0
C1805 C 0.05614 0.28304 0.7461 0.0
C1806 C 0.04759 0.27771 0.73787 0.0
C1807 C 0.03669 0.27226 0.74225 0.0
H1808 H 0.73156 0.02961 0.75687 0.0
H1809 H 0.72408 0.04886 0.74795 0.0
H1810 H 0.76126 0.05813 0.73657 0.0
H1811 H 0.76862 0.03919 0.74579 0.0
H1812 H 0.74316 0.00999 0.74755 0.0
H1813 H 0.75238 0.03923 0.77887 0.0
H1814 H 0.76037 0.05779 0.78893 0.0
H1815 H 0.79706 0.04969 0.77641 0.0
H1816 H 0.78904 0.03098 0.76635 0.0
H1817 H 0.78929 0.9925 0.76527 0.0
H1818 H 0.79838 0.97318 0.77235 0.0
H1819 H 0.76334 0.96176 0.78751 0.0
H1820 H 0.75416 0.98108 0.78026 0.0
H1821 H 0.77776 0.01122 0.77772 0.0
H1822 H 0.76874 0.9829 0.74559 0.0
H1823 H 0.76131 0.96406 0.73573 0.0
H1824 H 0.72467 0.9705 0.74944 0.0
H1825 H 0.73221 0.98942 0.75942 0.0
C1826 C 0.75069 0.03309 0.75226 0.0
C1827 C 0.73807 0.03583 0.75245 0.0
C1828 C 0.7338 0.04682 0.74727 0.0
C1829 C 0.74208 0.05522 0.74169 0.0
C1830 C 0.75464 0.05215 0.74112 0.0
C1831 C 0.75888 0.04126 0.74636 0.0
C1832 C 0.75542 0.02169 0.75809 0.0
C1833 C 0.75053 0.01028 0.75436 0.0
C1834 C 0.76533 0.02202 0.76666 0.0
C1835 C 0.77011 0.03374 0.77185 0.0
C1836 C 0.76211 0.04154 0.7781 0.0
C1837 C 0.76667 0.05211 0.78384 0.0
C1838 C 0.7793 0.05514 0.78337 0.0
C1839 C 0.78726 0.0476 0.77676 0.0
C1840 C 0.78271 0.03689 0.77113 0.0
C1841 C 0.77104 0.98818 0.77217 0.0
C1842 C 0.78359 0.98591 0.77024 0.0
C1843 C 0.78877 0.97491 0.77428 0.0
C1844 C 0.78155 0.9661 0.78052 0.0
C1845 C 0.76909 0.96851 0.78284 0.0
C1846 C 0.76385 0.97946 0.77862 0.0
C1847 C 0.76548 0.99957 0.7672 0.0
C1848 C 0.77027 0.01096 0.77104 0.0
C1849 C 0.75553 0.99922 0.7587 0.0
C1850 C 0.75104 0.98751 0.75329 0.0
C1851 C 0.75915 0.98018 0.74662 0.0
C1852 C 0.75488 0.96947 0.74094 0.0
C1853 C 0.74242 0.96586 0.7418 0.0
C1854 C 0.73434 0.97303 0.74872 0.0
C1855 C 0.73861 0.98385 0.75434 0.0
H1856 H 0.29 0.7666 0.49332 0.0
H1857 H 0.29658 0.77752 0.47479 0.0
H1858 H 0.25855 0.77854 0.46236 0.0
H1859 H 0.25201 0.76932 0.48153 0.0
H1860 H 0.27788 0.77279 0.5115 0.0
H1861 H 0.27022 0.74267 0.48088 0.0
H1862 H 0.26182 0.73519 0.46128 0.0
H1863 H 0.22487 0.73825 0.47528 0.0
H1864 H 0.23315 0.74654 0.49462 0.0
H1865 H 0.23354 0.75459 0.52944 0.0
H1866 H 0.22284 0.74632 0.54729 0.0
H1867 H 0.25688 0.73031 0.56035 0.0
H1868 H 0.26768 0.73925 0.54255 0.0
H1869 H 0.24585 0.73989 0.51227 0.0
H1870 H 0.25521 0.77023 0.54366 0.0
H1871 H 0.26493 0.78011 0.56152 0.0
H1872 H 0.30076 0.77492 0.54549 0.0
H1873 H 0.29122 0.76424 0.52811 0.0
C1874 C 0.27049 0.76695 0.48883 0.0
C1875 C 0.28307 0.76936 0.48666 0.0
C1876 C 0.28686 0.77545 0.47591 0.0
C1877 C 0.27815 0.77906 0.46696 0.0
C1878 C 0.26559 0.77633 0.46909 0.0
C1879 C 0.2618 0.77072 0.48002 0.0
C1880 C 0.26637 0.76086 0.50046 0.0
C1881 C 0.2711 0.76536 0.51167 0.0
C1882 C 0.25733 0.75128 0.50065 0.0
C1883 C 0.25235 0.74546 0.48921 0.0
C1884 C 0.2603 0.7418 0.47977 0.0
C1885 C 0.25553 0.73741 0.46863 0.0
C1886 C 0.24274 0.73612 0.46689 0.0
C1887 C 0.23478 0.73909 0.47651 0.0
C1888 C 0.23953 0.74381 0.48754 0.0
C1889 C 0.25136 0.74746 0.53465 0.0
C1890 C 0.23872 0.74938 0.53621 0.0
C1891 C 0.2326 0.74454 0.5464 0.0
C1892 C 0.2389 0.73737 0.55517 0.0
C1893 C 0.25171 0.7358 0.55381 0.0
C1894 C 0.2579 0.74083 0.54363 0.0
C1895 C 0.25731 0.75191 0.52322 0.0
C1896 C 0.25286 0.7471 0.51205 0.0
C1897 C 0.26683 0.76095 0.5231 0.0
C1898 C 0.27244 0.76624 0.53452 0.0
C1899 C 0.26517 0.77073 0.54416 0.0
C1900 C 0.27072 0.77649 0.55434 0.0
C1901 C 0.28357 0.77825 0.55482 0.0
C1902 C 0.29083 0.77366 0.54531 0.0
C1903 C 0.28535 0.76761 0.53535 0.0
H1904 H 0.77246 0.73501 0.49503 0.0
H1905 H 0.78279 0.72816 0.47646 0.0
H1906 H 0.78418 0.7658 0.46328 0.0
H1907 H 0.77558 0.77262 0.48243 0.0
H1908 H 0.77867 0.74728 0.51313 0.0
H1909 H 0.74863 0.75351 0.4829 0.0
H1910 H 0.7396 0.76024 0.46364 0.0
H1911 H 0.74252 0.79805 0.47566 0.0
H1912 H 0.75302 0.79125 0.49435 0.0
H1913 H 0.75992 0.79171 0.53063 0.0
H1914 H 0.75133 0.80154 0.54861 0.0
H1915 H 0.7368 0.76644 0.56116 0.0
H1916 H 0.74593 0.75656 0.54321 0.0
H1917 H 0.74643 0.77915 0.51281 0.0
H1918 H 0.77898 0.77004 0.54335 0.0
H1919 H 0.78833 0.7602 0.56146 0.0
H1920 H 0.77476 0.72488 0.54879 0.0
H1921 H 0.76573 0.73468 0.53075 0.0
C1922 C 0.77309 0.75436 0.49015 0.0
C1923 C 0.77521 0.74179 0.4882 0.0
C1924 C 0.78095 0.73786 0.47744 0.0
C1925 C 0.78448 0.74638 0.46826 0.0
C1926 C 0.78203 0.75891 0.47019 0.0
C1927 C 0.7768 0.76286 0.48111 0.0
C1928 C 0.76717 0.75867 0.50166 0.0
C1929 C 0.77148 0.75412 0.51298 0.0
C1930 C 0.75777 0.76763 0.50159 0.0
C1931 C 0.75171 0.77185 0.49004 0.0
C1932 C 0.74759 0.76327 0.4813 0.0
C1933 C 0.74217 0.76717 0.47032 0.0
C1934 C 0.74011 0.77973 0.46805 0.0
C1935 C 0.74408 0.78832 0.47692 0.0
C1936 C 0.74992 0.78443 0.48775 0.0
C1937 C 0.75349 0.77344 0.53555 0.0
C1938 C 0.75497 0.78611 0.5373 0.0
C1939 C 0.74996 0.79172 0.54757 0.0
C1940 C 0.74311 0.78484 0.55623 0.0
C1941 C 0.74203 0.77203 0.55471 0.0
C1942 C 0.74719 0.76637 0.54443 0.0
C1943 C 0.75815 0.76792 0.5241 0.0
C1944 C 0.75359 0.77228 0.51282 0.0
C1945 C 0.76699 0.75854 0.52418 0.0
C1946 C 0.77174 0.75304 0.5357 0.0
C1947 C 0.77792 0.76019 0.5446 0.0
C1948 C 0.78323 0.75458 0.55493 0.0
C1949 C 0.78247 0.74174 0.55643 0.0
C1950 C 0.77579 0.73474 0.54775 0.0
C1951 C 0.77057 0.74033 0.53746 0.0
H1952 H 0.76906 0.28714 0.52579 0.0
H1953 H 0.77678 0.29791 0.54375 0.0
H1954 H 0.78329 0.26322 0.56209 0.0
H1955 H 0.77643 0.25235 0.54349 0.0
H1956 H 0.77866 0.27401 0.51017 0.0
H1957 H 0.7466 0.26639 0.53955 0.0
H1958 H 0.73627 0.25901 0.55809 0.0
H1959 H 0.74598 0.22174 0.54917 0.0
H1960 H 0.75683 0.22928 0.53086 0.0
H1961 H 0.75514 0.22817 0.49287 0.0
H1962 H 0.74648 0.22028 0.47349 0.0
H1963 H 0.73948 0.25747 0.46149 0.0
H1964 H 0.7478 0.26525 0.48084 0.0
H1965 H 0.74706 0.24063 0.51132 0.0
H1966 H 0.7795 0.24875 0.48218 0.0
H1967 H 0.78807 0.25608 0.46282 0.0
H1968 H 0.77534 0.29272 0.47071 0.0
H1969 H 0.7674 0.28532 0.49046 0.0
C1970 C 0.77196 0.26889 0.53325 0.0
C1971 C 0.77228 0.28178 0.53358 0.0
C1972 C 0.77658 0.28796 0.54398 0.0
C1973 C 0.78043 0.28146 0.55452 0.0
C1974 C 0.7804 0.26853 0.55415 0.0
C1975 C 0.77629 0.2623 0.54357 0.0
C1976 C 0.76728 0.26259 0.52195 0.0
C1977 C 0.77165 0.2668 0.51049 0.0
C1978 C 0.75841 0.25286 0.52226 0.0
C1979 C 0.75264 0.24843 0.53387 0.0
C1980 C 0.74674 0.25666 0.5417 0.0
C1981 C 0.74069 0.25239 0.55224 0.0
C1982 C 0.7402 0.23976 0.55509 0.0
C1983 C 0.74628 0.23153 0.54733 0.0
C1984 C 0.7524 0.23582 0.53681 0.0
C1985 C 0.7525 0.24734 0.48819 0.0
C1986 C 0.75166 0.23461 0.48609 0.0
C1987 C 0.74668 0.23011 0.47503 0.0
C1988 C 0.7425 0.23826 0.46587 0.0
C1989 C 0.7429 0.25095 0.46823 0.0
C1990 C 0.74772 0.25542 0.47929 0.0
C1991 C 0.75827 0.25225 0.49968 0.0
C1992 C 0.75415 0.24777 0.51111 0.0
C1993 C 0.7673 0.26179 0.4994 0.0
C1994 C 0.77269 0.26644 0.4877 0.0
C1995 C 0.77859 0.25837 0.47974 0.0
C1996 C 0.7834 0.2626 0.46857 0.0
C1997 C 0.78225 0.275 0.46496 0.0
C1998 C 0.77653 0.28314 0.47313 0.0
C1999 C 0.7719 0.27892 0.48442 0.0
H2000 H 0.26779 0.23309 0.49627 0.0
H2001 H 0.27711 0.22338 0.47851 0.0
H2002 H 0.2861 0.25907 0.46322 0.0
H2003 H 0.2773 0.26888 0.48142 0.0
H2004 H 0.27836 0.24587 0.51302 0.0
H2005 H 0.24875 0.25594 0.48028 0.0
H2006 H 0.24241 0.26633 0.46134 0.0
H2007 H 0.24814 0.30144 0.47921 0.0
H2008 H 0.25611 0.29113 0.49718 0.0
H2009 H 0.25684 0.29029 0.53203 0.0
H2010 H 0.24898 0.29746 0.55178 0.0
H2011 H 0.23843 0.26009 0.56122 0.0
H2012 H 0.24654 0.25305 0.54171 0.0
H2013 H 0.24645 0.27808 0.51285 0.0
H2014 H 0.27877 0.27121 0.54152 0.0
H2015 H 0.28694 0.26433 0.56129 0.0
H2016 H 0.27632 0.22691 0.55248 0.0
H2017 H 0.26836 0.23391 0.53254 0.0
C2018 C 0.27174 0.25173 0.49018 0.0
C2019 C 0.27174 0.23888 0.48912 0.0
C2020 C 0.27702 0.23333 0.47896 0.0
C2021 C 0.28227 0.2405 0.46954 0.0
C2022 C 0.28198 0.25337 0.47035 0.0
C2023 C 0.27694 0.25896 0.48071 0.0
C2024 C 0.26682 0.2573 0.50156 0.0
C2025 C 0.27128 0.25283 0.51289 0.0
C2026 C 0.25796 0.26678 0.5015 0.0
C2027 C 0.2533 0.27272 0.49008 0.0
C2028 C 0.24898 0.26588 0.47995 0.0
C2029 C 0.2451 0.27187 0.46918 0.0
C2030 C 0.24498 0.2848 0.46854 0.0
C2031 C 0.2486 0.29152 0.47902 0.0
C2032 C 0.25296 0.28559 0.48949 0.0
C2033 C 0.25248 0.27111 0.53554 0.0
C2034 C 0.25278 0.28369 0.53838 0.0
C2035 C 0.24824 0.28777 0.54964 0.0
C2036 C 0.24326 0.27932 0.5582 0.0
C2037 C 0.24253 0.26681 0.55504 0.0
C2038 C 0.24711 0.26276 0.54385 0.0
C2039 C 0.25795 0.2666 0.524 0.0
C2040 C 0.25356 0.27115 0.51278 0.0
C2041 C 0.26712 0.2575 0.52406 0.0
C2042 C 0.27279 0.2531 0.53567 0.0
C2043 C 0.27822 0.26152 0.54385 0.0
C2044 C 0.28283 0.25757 0.55518 0.0
C2045 C 0.28211 0.24509 0.55857 0.0
C2046 C 0.27708 0.23658 0.55014 0.0
C2047 C 0.27249 0.24056 0.53876 0.0
H2048 H 0.75417 0.52506 0.79027 0.0
H2049 H 0.74637 0.54292 0.80072 0.0
H2050 H 0.73823 0.56 0.76562 0.0
H2051 H 0.74522 0.5415 0.75511 0.0
H2052 H 0.745 0.50868 0.77763 0.0
H2053 H 0.77456 0.53912 0.77052 0.0
H2054 H 0.78395 0.55843 0.76429 0.0
H2055 H 0.77793 0.54907 0.72604 0.0
H2056 H 0.76717 0.5302 0.73249 0.0
H2057 H 0.76112 0.49088 0.7321 0.0
H2058 H 0.76879 0.47189 0.72301 0.0
H2059 H 0.78738 0.46308 0.75711 0.0
H2060 H 0.7795 0.48203 0.7663 0.0
H2061 H 0.77491 0.51093 0.74335 0.0
H2062 H 0.74401 0.47884 0.75492 0.0
H2063 H 0.73538 0.46081 0.76561 0.0
H2064 H 0.75158 0.47375 0.79974 0.0
H2065 H 0.75976 0.49179 0.7891 0.0
C2066 C 0.75042 0.53191 0.77186 0.0
C2067 C 0.75054 0.53253 0.78477 0.0
C2068 C 0.74621 0.54287 0.79075 0.0
C2069 C 0.74188 0.55304 0.78402 0.0
C2070 C 0.74147 0.55234 0.77109 0.0
C2071 C 0.74561 0.54182 0.76507 0.0
C2072 C 0.75538 0.52083 0.76573 0.0
C2073 C 0.75163 0.50926 0.77019 0.0
C2074 C 0.76405 0.52148 0.756 0.0
C2075 C 0.76985 0.53329 0.75201 0.0
C2076 C 0.77489 0.54135 0.76079 0.0
C2077 C 0.78053 0.55233 0.75717 0.0
C2078 C 0.78191 0.5553 0.74462 0.0
C2079 C 0.77692 0.54719 0.73579 0.0
C2080 C 0.7709 0.53632 0.73946 0.0
C2081 C 0.76967 0.48778 0.74987 0.0
C2082 C 0.7669 0.4849 0.73759 0.0
C2083 C 0.77127 0.47409 0.73242 0.0
C2084 C 0.77867 0.46612 0.73938 0.0
C2085 C 0.78176 0.46917 0.75157 0.0
C2086 C 0.77721 0.4799 0.75682 0.0
C2087 C 0.76453 0.49899 0.75539 0.0
C2088 C 0.76821 0.51052 0.75072 0.0
C2089 C 0.75629 0.49838 0.76537 0.0
C2090 C 0.75245 0.48666 0.77124 0.0
C2091 C 0.74582 0.47765 0.76467 0.0
C2092 C 0.74092 0.46735 0.7708 0.0
C2093 C 0.74259 0.46594 0.78359 0.0
C2094 C 0.7498 0.4747 0.78996 0.0
C2095 C 0.75459 0.48498 0.78387 0.0
H2096 H 0.28921 0.52877 0.7657 0.0
H2097 H 0.29867 0.54786 0.77311 0.0
H2098 H 0.26309 0.56002 0.78551 0.0
H2099 H 0.2537 0.5407 0.77833 0.0
H2100 H 0.27751 0.51047 0.77715 0.0
H2101 H 0.26755 0.53842 0.7443 0.0
H2102 H 0.25938 0.55662 0.73386 0.0
H2103 H 0.22347 0.54906 0.74936 0.0
H2104 H 0.23167 0.53075 0.75975 0.0
H2105 H 0.2311 0.49128 0.76053 0.0
H2106 H 0.22212 0.4718 0.75332 0.0
H2107 H 0.25703 0.46221 0.73737 0.0
H2108 H 0.26609 0.4817 0.74476 0.0
H2109 H 0.24226 0.51062 0.74778 0.0
H2110 H 0.25214 0.48113 0.77875 0.0
H2111 H 0.26049 0.46256 0.7884 0.0
H2112 H 0.297 0.47292 0.77629 0.0
H2113 H 0.28867 0.49152 0.76652 0.0
C2114 C 0.27073 0.53335 0.77133 0.0
C2115 C 0.28345 0.5355 0.77008 0.0
C2116 C 0.28883 0.54645 0.77425 0.0
C2117 C 0.28161 0.55549 0.7798 0.0
C2118 C 0.2689 0.55321 0.78132 0.0
C2119 C 0.26351 0.54224 0.77711 0.0
C2120 C 0.26509 0.52178 0.76661 0.0
C2121 C 0.26992 0.5105 0.77059 0.0
C2122 C 0.25498 0.5218 0.75831 0.0
C2123 C 0.25022 0.53329 0.75283 0.0
C2124 C 0.25796 0.54077 0.74558 0.0
C2125 C 0.25329 0.55111 0.73959 0.0
C2126 C 0.24081 0.55419 0.74081 0.0
C2127 C 0.23314 0.54691 0.74836 0.0
C2128 C 0.23779 0.53645 0.75423 0.0
C2129 C 0.24927 0.48785 0.75327 0.0
C2130 C 0.23679 0.48505 0.75539 0.0
C2131 C 0.23169 0.47396 0.75128 0.0
C2132 C 0.23891 0.46561 0.74479 0.0
C2133 C 0.25128 0.46859 0.74227 0.0
C2134 C 0.25646 0.47963 0.74656 0.0
C2135 C 0.25475 0.49935 0.75824 0.0
C2136 C 0.24986 0.51059 0.75433 0.0
C2137 C 0.26483 0.49927 0.76658 0.0
C2138 C 0.26976 0.48766 0.77178 0.0
C2139 C 0.2619 0.47931 0.77793 0.0
C2140 C 0.26665 0.46874 0.78346 0.0
C2141 C 0.27931 0.46635 0.78291 0.0
C2142 C 0.28717 0.47455 0.77663 0.0
C2143 C 0.28243 0.48518 0.77115 0.0
H2144 H 0.26022 0.52892 0.23489 0.0
H2145 H 0.26751 0.5476 0.22477 0.0
H2146 H 0.28863 0.55712 0.25744 0.0
H2147 H 0.28038 0.53878 0.26777 0.0
H2148 H 0.27646 0.51002 0.24557 0.0
H2149 H 0.24315 0.53641 0.25476 0.0
H2150 H 0.23369 0.55521 0.26169 0.0
H2151 H 0.24922 0.54952 0.29806 0.0
H2152 H 0.25827 0.53032 0.29105 0.0
H2153 H 0.25862 0.48916 0.29165 0.0
H2154 H 0.25065 0.46917 0.29881 0.0
H2155 H 0.23628 0.462 0.26226 0.0
H2156 H 0.24463 0.48162 0.25518 0.0
H2157 H 0.24709 0.5093 0.28048 0.0
H2158 H 0.27838 0.48095 0.27116 0.0
H2159 H 0.2866 0.46176 0.26367 0.0
H2160 H 0.27471 0.47107 0.22673 0.0
H2161 H 0.26668 0.49054 0.23436 0.0
C2162 C 0.26984 0.53249 0.25201 0.0
C2163 C 0.26635 0.53512 0.23987 0.0
C2164 C 0.27066 0.54577 0.23406 0.0
C2165 C 0.27894 0.55385 0.24013 0.0
C2166 C 0.28222 0.55125 0.25245 0.0
C2167 C 0.27761 0.54071 0.25836 0.0
C2168 C 0.26562 0.5209 0.25783 0.0
C2169 C 0.26998 0.50982 0.25314 0.0
C2170 C 0.2574 0.52075 0.26787 0.0
C2171 C 0.25165 0.53214 0.27231 0.0
C2172 C 0.24459 0.53926 0.2642 0.0
C2173 C 0.23922 0.55007 0.2682 0.0
C2174 C 0.24087 0.55411 0.28041 0.0
C2175 C 0.24769 0.54673 0.28862 0.0
C2176 C 0.25296 0.5358 0.28462 0.0
C2177 C 0.25243 0.48671 0.27284 0.0
C2178 C 0.25372 0.48323 0.28523 0.0
C2179 C 0.24911 0.47184 0.28931 0.0
C2180 C 0.24303 0.46384 0.28106 0.0
C2181 C 0.24127 0.46771 0.26879 0.0
C2182 C 0.24597 0.47897 0.26472 0.0
C2183 C 0.25787 0.49836 0.26819 0.0
C2184 C 0.25373 0.50946 0.27305 0.0
C2185 C 0.26627 0.49853 0.25824 0.0
C2186 C 0.27167 0.48707 0.25339 0.0
C2187 C 0.27749 0.47886 0.26146 0.0
C2188 C 0.28216 0.46784 0.25713 0.0
C2189 C 0.28111 0.4647 0.24461 0.0
C2190 C 0.2757 0.47317 0.23642 0.0
C2191 C 0.27105 0.48428 0.24078 0.0
H2192 H 0.73031 0.52971 0.2576 0.0
H2193 H 0.72248 0.54803 0.24699 0.0
H2194 H 0.75952 0.55733 0.2354 0.0
H2195 H 0.76724 0.539 0.24585 0.0
H2196 H 0.74252 0.5101 0.24733 0.0
H2197 H 0.75071 0.54202 0.27602 0.0
H2198 H 0.75917 0.56182 0.28286 0.0
H2199 H 0.7961 0.54829 0.27873 0.0
H2200 H 0.78773 0.52874 0.27098 0.0
H2201 H 0.788 0.49388 0.26726 0.0
H2202 H 0.79776 0.47491 0.27412 0.0
H2203 H 0.76262 0.46107 0.28707 0.0
H2204 H 0.7528 0.48021 0.28016 0.0
H2205 H 0.77534 0.51131 0.27934 0.0
H2206 H 0.76787 0.48044 0.24936 0.0
H2207 H 0.76016 0.46057 0.24195 0.0
H2208 H 0.72274 0.47226 0.24729 0.0
H2209 H 0.73041 0.49185 0.25562 0.0
C2210 C 0.74936 0.53302 0.25253 0.0
C2211 C 0.73672 0.53573 0.25279 0.0
C2212 C 0.73228 0.54624 0.24682 0.0
C2213 C 0.74038 0.55408 0.24034 0.0
C2214 C 0.75304 0.55139 0.24022 0.0
C2215 C 0.75747 0.54096 0.24623 0.0
C2216 C 0.75405 0.52175 0.2586 0.0
C2217 C 0.74952 0.51034 0.25451 0.0
C2218 C 0.76349 0.52215 0.26769 0.0
C2219 C 0.76855 0.53393 0.27264 0.0
C2220 C 0.76063 0.54333 0.27634 0.0
C2221 C 0.76544 0.55457 0.28041 0.0
C2222 C 0.77823 0.55645 0.28129 0.0
C2223 C 0.78619 0.54695 0.27813 0.0
C2224 C 0.78139 0.53581 0.27374 0.0
C2225 C 0.76966 0.4884 0.27308 0.0
C2226 C 0.7824 0.48684 0.27171 0.0
C2227 C 0.78796 0.476 0.27559 0.0
C2228 C 0.78092 0.46652 0.28106 0.0
C2229 C 0.76824 0.46827 0.28294 0.0
C2230 C 0.76264 0.47913 0.27893 0.0
C2231 C 0.76384 0.49965 0.26805 0.0
C2232 C 0.76821 0.51107 0.27228 0.0
C2233 C 0.75438 0.49925 0.25896 0.0
C2234 C 0.74976 0.48752 0.25353 0.0
C2235 C 0.75801 0.4787 0.2492 0.0
C2236 C 0.75363 0.46743 0.24478 0.0
C2237 C 0.74091 0.465 0.24409 0.0
C2238 C 0.7326 0.47402 0.24772 0.0
C2239 C 0.73699 0.48517 0.25249 0.0
H2240 H 0.52898 0.25521 0.72885 0.0
H2241 H 0.54703 0.24405 0.72189 0.0
H2242 H 0.55876 0.23957 0.7598 0.0
H2243 H 0.54012 0.24926 0.7666 0.0
H2244 H 0.50996 0.24833 0.7412 0.0
H2245 H 0.54213 0.27974 0.7505 0.0
H2246 H 0.56179 0.28606 0.76022 0.0
H2247 H 0.54796 0.27401 0.79553 0.0
H2248 H 0.52849 0.26771 0.7859 0.0
H2249 H 0.49617 0.27024 0.78704 0.0
H2250 H 0.47833 0.27762 0.7979 0.0
H2251 H 0.45965 0.28404 0.7632 0.0
H2252 H 0.47815 0.27762 0.75227 0.0
H2253 H 0.51164 0.28031 0.77352 0.0
H2254 H 0.48493 0.24452 0.76661 0.0
H2255 H 0.46539 0.23494 0.76062 0.0
H2256 H 0.4677 0.25302 0.72504 0.0
H2257 H 0.48774 0.2618 0.73093 0.0
C2258 C 0.53325 0.25338 0.74826 0.0
C2259 C 0.53542 0.25173 0.73564 0.0
C2260 C 0.54587 0.24546 0.73167 0.0
C2261 C 0.55445 0.24081 0.74024 0.0
C2262 C 0.5523 0.2427 0.75286 0.0
C2263 C 0.54171 0.24858 0.7568 0.0
C2264 C 0.52192 0.2596 0.75256 0.0
C2265 C 0.51039 0.25553 0.74807 0.0
C2266 C 0.52228 0.26873 0.76182 0.0
C2267 C 0.53392 0.2732 0.76748 0.0
C2268 C 0.54334 0.27857 0.76034 0.0
C2269 C 0.55448 0.28224 0.76588 0.0
C2270 C 0.55631 0.28046 0.77857 0.0
C2271 C 0.54675 0.2754 0.78571 0.0
C2272 C 0.53564 0.27185 0.78023 0.0
C2273 C 0.48851 0.27315 0.7688 0.0
C2274 C 0.48832 0.27335 0.78171 0.0
C2275 C 0.478 0.27746 0.78794 0.0
C2276 C 0.4674 0.28119 0.78145 0.0
C2277 C 0.46764 0.28124 0.7685 0.0
C2278 C 0.47814 0.27735 0.76223 0.0
C2279 C 0.49975 0.2688 0.76243 0.0
C2280 C 0.51124 0.27331 0.76645 0.0
C2281 C 0.49935 0.25983 0.75307 0.0
C2282 C 0.48765 0.25391 0.74923 0.0
C2283 C 0.48122 0.24631 0.75749 0.0
C2284 C 0.46996 0.24097 0.75407 0.0
C2285 C 0.46475 0.24333 0.74238 0.0
C2286 C 0.47141 0.25083 0.73405 0.0
C2287 C 0.48283 0.25595 0.73741 0.0
H2288 H 0.52569 0.73222 0.76749 0.0
H2289 H 0.54429 0.722 0.77462 0.0
H2290 H 0.55969 0.75689 0.7863 0.0
H2291 H 0.54076 0.76712 0.77944 0.0
H2292 H 0.50854 0.74441 0.77823 0.0
H2293 H 0.53832 0.75289 0.74788 0.0
H2294 H 0.55709 0.75998 0.73778 0.0
H2295 H 0.54902 0.79739 0.74774 0.0
H2296 H 0.53042 0.79011 0.75848 0.0
H2297 H 0.49234 0.79128 0.76083 0.0
H2298 H 0.47371 0.80105 0.75288 0.0
H2299 H 0.46105 0.76625 0.73821 0.0
H2300 H 0.47984 0.7565 0.74611 0.0
H2301 H 0.51063 0.77945 0.74887 0.0
H2302 H 0.48139 0.77013 0.78054 0.0
H2303 H 0.46251 0.76237 0.79024 0.0
H2304 H 0.46929 0.72622 0.77581 0.0
H2305 H 0.48825 0.73406 0.76604 0.0
C2306 C 0.53186 0.75045 0.77279 0.0
C2307 C 0.53298 0.73768 0.77171 0.0
C2308 C 0.54367 0.73186 0.77572 0.0
C2309 C 0.55351 0.73867 0.7809 0.0
C2310 C 0.55224 0.75142 0.78238 0.0
C2311 C 0.54149 0.75726 0.77836 0.0
C2312 C 0.52061 0.75652 0.76794 0.0
C2313 C 0.50902 0.75198 0.77169 0.0
C2314 C 0.52122 0.76657 0.75959 0.0
C2315 C 0.53302 0.77092 0.7541 0.0
C2316 C 0.54071 0.76258 0.74819 0.0
C2317 C 0.55138 0.76668 0.74227 0.0
C2318 C 0.55448 0.77927 0.74185 0.0
C2319 C 0.54693 0.78763 0.74799 0.0
C2320 C 0.53626 0.78349 0.75403 0.0
C2321 C 0.4874 0.77316 0.75417 0.0
C2322 C 0.48559 0.78576 0.75585 0.0
C2323 C 0.47493 0.79131 0.75136 0.0
C2324 C 0.46592 0.78438 0.74499 0.0
C2325 C 0.46788 0.77181 0.74303 0.0
C2326 C 0.47853 0.76622 0.74763 0.0
C2327 C 0.49866 0.76735 0.75919 0.0
C2328 C 0.51022 0.77193 0.75545 0.0
C2329 C 0.49806 0.75727 0.76745 0.0
C2330 C 0.48618 0.75269 0.77253 0.0
C2331 C 0.47873 0.76058 0.7793 0.0
C2332 C 0.46799 0.75613 0.78489 0.0
C2333 C 0.46448 0.7437 0.7838 0.0
C2334 C 0.47174 0.73586 0.77671 0.0
C2335 C 0.48259 0.74031 0.77121 0.0
H2336 H 0.528 0.75697 0.22913 0.0
H2337 H 0.5453 0.74662 0.21963 0.0
H2338 H 0.56099 0.73942 0.25552 0.0
H2339 H 0.54323 0.74904 0.26514 0.0
H2340 H 0.5111 0.74806 0.2418 0.0
H2341 H 0.54187 0.7806 0.25181 0.0
H2342 H 0.56156 0.78757 0.26107 0.0
H2343 H 0.5504 0.772 0.29596 0.0
H2344 H 0.53082 0.76516 0.2868 0.0
H2345 H 0.49674 0.7684 0.28839 0.0
H2346 H 0.47886 0.77603 0.29895 0.0
H2347 H 0.46118 0.78349 0.2639 0.0
H2348 H 0.47983 0.77708 0.25334 0.0
H2349 H 0.51269 0.77839 0.2756 0.0
H2350 H 0.48175 0.7465 0.26624 0.0
H2351 H 0.46329 0.7369 0.25702 0.0
H2352 H 0.4745 0.75049 0.22127 0.0
H2353 H 0.49284 0.75988 0.23046 0.0
C2354 C 0.53429 0.75395 0.24788 0.0
C2355 C 0.53515 0.75323 0.23501 0.0
C2356 C 0.54506 0.74737 0.22957 0.0
C2357 C 0.55443 0.7423 0.23687 0.0
C2358 C 0.55391 0.74341 0.24972 0.0
C2359 C 0.5438 0.749 0.2552 0.0
C2360 C 0.52298 0.75903 0.25348 0.0
C2361 C 0.51147 0.75486 0.24907 0.0
C2362 C 0.52334 0.76761 0.2632 0.0
C2363 C 0.535 0.77229 0.26862 0.0
C2364 C 0.54367 0.77879 0.26147 0.0
C2365 C 0.5548 0.78284 0.26675 0.0
C2366 C 0.55737 0.78029 0.27917 0.0
C2367 C 0.54856 0.77404 0.28635 0.0
C2368 C 0.53743 0.77015 0.28114 0.0
C2369 C 0.48958 0.77192 0.27004 0.0
C2370 C 0.4891 0.77182 0.28294 0.0
C2371 C 0.47875 0.77604 0.28898 0.0
C2372 C 0.46841 0.78009 0.28229 0.0
C2373 C 0.46897 0.78044 0.26936 0.0
C2374 C 0.47954 0.77655 0.26329 0.0
C2375 C 0.5008 0.76744 0.2639 0.0
C2376 C 0.5123 0.7717 0.26823 0.0
C2377 C 0.50038 0.7589 0.25415 0.0
C2378 C 0.48868 0.75386 0.24901 0.0
C2379 C 0.48011 0.74752 0.25645 0.0
C2380 C 0.46957 0.74207 0.25117 0.0
C2381 C 0.46754 0.74278 0.23839 0.0
C2382 C 0.47593 0.74952 0.2311 0.0
C2383 C 0.48641 0.75494 0.23635 0.0
H2384 H 0.52712 0.23407 0.27351 0.0
H2385 H 0.54638 0.22571 0.28176 0.0
H2386 H 0.56135 0.2625 0.28518 0.0
H2387 H 0.54192 0.2709 0.27769 0.0
H2388 H 0.51018 0.24693 0.28101 0.0
H2389 H 0.53877 0.25346 0.24868 0.0
H2390 H 0.55743 0.26042 0.23817 0.0
H2391 H 0.54882 0.29808 0.24659 0.0
H2392 H 0.53025 0.29099 0.25751 0.0
H2393 H 0.49299 0.29135 0.25979 0.0
H2394 H 0.47544 0.30112 0.24994 0.0
H2395 H 0.46169 0.26563 0.23805 0.0
H2396 H 0.47946 0.25581 0.24803 0.0
H2397 H 0.51044 0.27897 0.24846 0.0
H2398 H 0.47692 0.26822 0.27674 0.0
H2399 H 0.45821 0.25736 0.28324 0.0
H2400 H 0.47736 0.22285 0.28026 0.0
H2401 H 0.49501 0.23348 0.27195 0.0
C2402 C 0.53311 0.25315 0.27467 0.0
C2403 C 0.53446 0.24037 0.27621 0.0
C2404 C 0.54545 0.23558 0.28094 0.0
C2405 C 0.55534 0.24347 0.28399 0.0
C2406 C 0.55388 0.25622 0.28275 0.0
C2407 C 0.54282 0.26102 0.27834 0.0
C2408 C 0.52154 0.25821 0.26929 0.0
C2409 C 0.51019 0.25375 0.27369 0.0
C2410 C 0.5216 0.26737 0.25997 0.0
C2411 C 0.53314 0.27169 0.25394 0.0
C2412 C 0.54097 0.2632 0.24843 0.0
C2413 C 0.55159 0.26721 0.24236 0.0
C2414 C 0.55454 0.27982 0.24147 0.0
C2415 C 0.54683 0.28832 0.2472 0.0
C2416 C 0.53617 0.28428 0.25332 0.0
C2417 C 0.48758 0.27285 0.25467 0.0
C2418 C 0.48618 0.28563 0.25513 0.0
C2419 C 0.47614 0.29121 0.24945 0.0
C2420 C 0.46724 0.28417 0.24305 0.0
C2421 C 0.46837 0.2713 0.24294 0.0
C2422 C 0.47852 0.26568 0.24862 0.0
C2423 C 0.49895 0.26739 0.25993 0.0
C2424 C 0.51034 0.27199 0.25565 0.0
C2425 C 0.49885 0.25791 0.26896 0.0
C2426 C 0.48736 0.25172 0.27344 0.0
C2427 C 0.47691 0.25828 0.27705 0.0
C2428 C 0.46625 0.25203 0.28107 0.0
C2429 C 0.46602 0.2391 0.28208 0.0
C2430 C 0.47679 0.2327 0.27911 0.0
C2431 C 0.48712 0.23886 0.27456 0.0
H2432 H 0.20267 0.1996 0.10445 0.0
H2433 H 0.21893 0.22261 0.13295 0.0
H2434 H 0.23028 0.23444 0.11716 0.0
H2435 H 0.22943 0.19836 0.08514 0.0
H2436 H 0.22087 0.19916 0.07089 0.0
H2437 H 0.21381 0.19249 0.08437 0.0
H2438 H 0.19574 0.20772 0.08235 0.0
H2439 H 0.20277 0.21445 0.06887 0.0
H2440 H 0.19901 0.22401 0.08177 0.0
H2441 H 0.24069 0.24311 0.09875 0.0
H2442 H 0.24865 0.24907 0.0783 0.0
H2443 H 0.22528 0.22121 0.06128 0.0
C2444 C 0.2086 0.20715 0.10735 0.0
C2445 C 0.20982 0.21024 0.11996 0.0
C2446 C 0.21765 0.22021 0.12336 0.0
C2447 C 0.22422 0.22693 0.11447 0.0
C2448 C 0.22284 0.22364 0.10217 0.0
C2449 C 0.21516 0.21407 0.09855 0.0
C2450 C 0.2153 0.21259 0.08465 0.0
C2451 C 0.22014 0.19989 0.08106 0.0
C2452 C 0.20244 0.21483 0.07908 0.0
C2453 C 0.22435 0.22277 0.08109 0.0
C2454 C 0.22862 0.22894 0.09139 0.0
C2455 C 0.23736 0.23841 0.0906 0.0
C2456 C 0.24186 0.2417 0.07898 0.0
C2457 C 0.23756 0.23561 0.06828 0.0
C2458 C 0.22862 0.22607 0.06934 0.0
H2459 H 0.8072 0.19931 0.11044 0.0
H2460 H 0.8112 0.23102 0.13433 0.0
H2461 H 0.8037 0.24439 0.11755 0.0
H2462 H 0.81656 0.2141 0.08244 0.0
H2463 H 0.80539 0.20605 0.07299 0.0
H2464 H 0.81121 0.19894 0.08683 0.0
H2465 H 0.78884 0.19595 0.09473 0.0
H2466 H 0.78297 0.20307 0.08091 0.0
H2467 H 0.77892 0.20906 0.09575 0.0
H2468 H 0.79479 0.25413 0.09872 0.0
H2469 H 0.78627 0.25996 0.07859 0.0
H2470 H 0.78908 0.22206 0.06646 0.0
C2471 C 0.80645 0.20906 0.1122 0.0
C2472 C 0.80984 0.2141 0.12374 0.0
C2473 C 0.80886 0.22694 0.12554 0.0
C2474 C 0.8045 0.2346 0.1161 0.0
C2475 C 0.80112 0.2293 0.10492 0.0
C2476 C 0.80208 0.21684 0.10289 0.0
C2477 C 0.79785 0.21349 0.09 0.0
C2478 C 0.80839 0.20782 0.08263 0.0
C2479 C 0.78647 0.20488 0.09037 0.0
C2480 C 0.79452 0.22607 0.08505 0.0
C2481 C 0.79633 0.23501 0.09387 0.0
C2482 C 0.79351 0.24725 0.09166 0.0
C2483 C 0.78879 0.25048 0.08008 0.0
C2484 C 0.78718 0.24156 0.07069 0.0
C2485 C 0.79008 0.22916 0.07333 0.0
H2486 H 0.8108 0.82484 0.10559 0.0
H2487 H 0.81392 0.79366 0.13057 0.0
H2488 H 0.80538 0.78006 0.11453 0.0
H2489 H 0.78165 0.81527 0.09205 0.0
H2490 H 0.78551 0.82071 0.07684 0.0
H2491 H 0.79218 0.82811 0.09015 0.0
H2492 H 0.81409 0.82437 0.08168 0.0
H2493 H 0.80747 0.81698 0.06834 0.0
H2494 H 0.81854 0.80897 0.07777 0.0
H2495 H 0.79546 0.76998 0.09645 0.0
H2496 H 0.78592 0.76367 0.07695 0.0
H2497 H 0.78995 0.80108 0.06299 0.0
C2498 C 0.80966 0.81516 0.10775 0.0
C2499 C 0.81316 0.81037 0.11943 0.0
C2500 C 0.81159 0.79759 0.1217 0.0
C2501 C 0.80662 0.78978 0.11266 0.0
C2502 C 0.80318 0.79484 0.10137 0.0
C2503 C 0.80466 0.80721 0.09883 0.0
C2504 C 0.80014 0.81023 0.0859 0.0
C2505 C 0.78922 0.81911 0.08626 0.0
C2506 C 0.81069 0.81544 0.07795 0.0
C2507 C 0.79601 0.79758 0.08156 0.0
C2508 C 0.79774 0.78889 0.09071 0.0
C2509 C 0.79425 0.77666 0.08913 0.0
C2510 C 0.78893 0.77314 0.07789 0.0
C2511 C 0.78735 0.78174 0.06813 0.0
C2512 C 0.79092 0.79418 0.07013 0.0
H2513 H 0.21848 0.79764 0.12433 0.0
H2514 H 0.20627 0.83282 0.1101 0.0
H2515 H 0.21296 0.82712 0.08936 0.0
H2516 H 0.24561 0.79592 0.1062 0.0
H2517 H 0.24447 0.77964 0.10331 0.0
H2518 H 0.23794 0.78589 0.11709 0.0
H2519 H 0.21668 0.77624 0.11139 0.0
H2520 H 0.22319 0.76995 0.0976 0.0
H2521 H 0.20985 0.77962 0.0966 0.0
H2522 H 0.2211 0.81838 0.07057 0.0
H2523 H 0.23101 0.80697 0.0541 0.0
H2524 H 0.23931 0.77744 0.0799 0.0
C2525 C 0.21701 0.80399 0.11677 0.0
C2526 C 0.21182 0.81567 0.11879 0.0
C2527 C 0.21024 0.82385 0.10874 0.0
C2528 C 0.21398 0.8207 0.09692 0.0
C2529 C 0.21926 0.80928 0.09524 0.0
C2530 C 0.22079 0.80098 0.1048 0.0
C2531 C 0.22723 0.78952 0.10031 0.0
C2532 C 0.23955 0.78764 0.10713 0.0
C2533 C 0.21873 0.77816 0.10155 0.0
C2534 C 0.22927 0.79289 0.08686 0.0
C2535 C 0.22442 0.80426 0.0842 0.0
C2536 C 0.22503 0.80948 0.07252 0.0
C2537 C 0.23082 0.80295 0.06324 0.0
C2538 C 0.23622 0.79139 0.06569 0.0
C2539 C 0.23528 0.78624 0.07768 0.0
H2540 H 0.21514 0.82417 0.9161 0.0
H2541 H 0.21084 0.79216 0.89263 0.0
H2542 H 0.21949 0.77916 0.90908 0.0
H2543 H 0.24439 0.81528 0.92948 0.0
H2544 H 0.24092 0.82119 0.94451 0.0
H2545 H 0.23417 0.82811 0.93099 0.0
H2546 H 0.21232 0.82452 0.94 0.0
H2547 H 0.21903 0.81763 0.95355 0.0
H2548 H 0.20762 0.80924 0.94469 0.0
H2549 H 0.22934 0.76974 0.92742 0.0
H2550 H 0.23879 0.7641 0.9472 0.0
H2551 H 0.23618 0.80199 0.95933 0.0
C2552 C 0.21606 0.81444 0.91438 0.0
C2553 C 0.2122 0.80921 0.90304 0.0
C2554 C 0.21346 0.79639 0.90128 0.0
C2555 C 0.21849 0.78893 0.91053 0.0
C2556 C 0.22228 0.7944 0.92149 0.0
C2557 C 0.2211 0.80684 0.92351 0.0
C2558 C 0.22591 0.81034 0.93619 0.0
C2559 C 0.237 0.81926 0.93523 0.0
C2560 C 0.2156 0.81575 0.94407 0.0
C2561 C 0.22983 0.79787 0.94099 0.0
C2562 C 0.22776 0.78886 0.93229 0.0
C2563 C 0.23086 0.77668 0.93439 0.0
C2564 C 0.23614 0.77355 0.94574 0.0
C2565 C 0.23806 0.78252 0.95502 0.0
C2566 C 0.23492 0.79488 0.9525 0.0
H2567 H 0.21837 0.19714 0.91073 0.0
H2568 H 0.19725 0.22831 0.89778 0.0
H2569 H 0.20587 0.24098 0.91452 0.0
H2570 H 0.21449 0.20292 0.94278 0.0
H2571 H 0.22981 0.19843 0.94732 0.0
H2572 H 0.22267 0.19178 0.93386 0.0
H2573 H 0.2413 0.19892 0.92067 0.0
H2574 H 0.2485 0.20557 0.93412 0.0
H2575 H 0.24589 0.21492 0.92063 0.0
H2576 H 0.21554 0.25003 0.93281 0.0
H2577 H 0.22635 0.25534 0.95209 0.0
H2578 H 0.2416 0.21869 0.95389 0.0
C2579 C 0.21577 0.20669 0.91135 0.0
C2580 C 0.20714 0.21177 0.90299 0.0
C2581 C 0.20379 0.22424 0.90415 0.0
C2582 C 0.20865 0.23152 0.91359 0.0
C2583 C 0.21692 0.22623 0.92182 0.0
C2584 C 0.22054 0.21414 0.92084 0.0
C2585 C 0.22924 0.21077 0.93132 0.0
C2586 C 0.22372 0.20036 0.93929 0.0
C2587 C 0.24199 0.20734 0.92639 0.0
C2588 C 0.22982 0.22282 0.93831 0.0
C2589 C 0.22263 0.23157 0.93259 0.0
C2590 C 0.22126 0.2433 0.93737 0.0
C2591 C 0.22738 0.24621 0.94835 0.0
C2592 C 0.23476 0.23742 0.95448 0.0
C2593 C 0.2361 0.22561 0.94931 0.0
H2594 H 0.81058 0.2294 0.90255 0.0
H2595 H 0.80977 0.1903 0.91103 0.0
H2596 H 0.80056 0.19467 0.93114 0.0
H2597 H 0.8189 0.23923 0.93346 0.0
H2598 H 0.80957 0.2528 0.93285 0.0
H2599 H 0.81601 0.24676 0.91892 0.0
H2600 H 0.79415 0.24545 0.90917 0.0
H2601 H 0.78768 0.25152 0.92306 0.0
H2602 H 0.78208 0.23705 0.91706 0.0
H2603 H 0.79261 0.203 0.95056 0.0
H2604 H 0.78482 0.21471 0.96791 0.0
H2605 H 0.78952 0.2486 0.94684 0.0
C2606 C 0.80853 0.22174 0.90864 0.0
C2607 C 0.81086 0.20946 0.90508 0.0
C2608 C 0.80788 0.19975 0.91334 0.0
C2609 C 0.80276 0.20214 0.92487 0.0
C2610 C 0.8007 0.2143 0.92808 0.0
C2611 C 0.80343 0.22396 0.92024 0.0
C2612 C 0.80022 0.23617 0.92605 0.0
C2613 C 0.81187 0.24421 0.92793 0.0
C2614 C 0.79045 0.24294 0.91838 0.0
C2615 C 0.79507 0.23178 0.9383 0.0
C2616 C 0.79563 0.21914 0.93928 0.0
C2617 C 0.7919 0.21289 0.94983 0.0
C2618 C 0.78731 0.21968 0.95962 0.0
C2619 C 0.78613 0.23265 0.95877 0.0
C2620 C 0.79022 0.23874 0.94792 0.0
H2621 H 0.81255 0.82178 0.91514 0.0
H2622 H 0.80732 0.79214 0.88888 0.0
H2623 H 0.79802 0.77926 0.90515 0.0
H2624 H 0.81989 0.80315 0.94141 0.0
H2625 H 0.81148 0.8124 0.95212 0.0
H2626 H 0.81794 0.81934 0.93847 0.0
H2627 H 0.79636 0.82738 0.93229 0.0
H2628 H 0.78985 0.82044 0.94592 0.0
H2629 H 0.78356 0.81669 0.93099 0.0
H2630 H 0.78867 0.76978 0.92386 0.0
H2631 H 0.78055 0.76389 0.94413 0.0
H2632 H 0.79207 0.79943 0.95864 0.0
C2633 C 0.8094 0.81261 0.91275 0.0
C2634 C 0.81081 0.808 0.90065 0.0
C2635 C 0.80664 0.79586 0.89807 0.0
C2636 C 0.80121 0.78849 0.90723 0.0
C2637 C 0.79991 0.79337 0.91897 0.0
C2638 C 0.80388 0.80513 0.92178 0.0
C2639 C 0.80132 0.80811 0.93516 0.0
C2640 C 0.81338 0.81091 0.94221 0.0
C2641 C 0.79223 0.81878 0.93614 0.0
C2642 C 0.79544 0.7961 0.93944 0.0
C2643 C 0.79464 0.78779 0.9299 0.0
C2644 C 0.78937 0.77616 0.93145 0.0
C2645 C 0.78488 0.77286 0.94308 0.0
C2646 C 0.78583 0.78107 0.95316 0.0
C2647 C 0.79113 0.79291 0.9512 0.0
H2648 H 0.12174 0.22403 0.21813 0.0
H2649 H 0.1049 0.19332 0.19855 0.0
H2650 H 0.08447 0.19944 0.20585 0.0
H2651 H 0.10183 0.22292 0.24457 0.0
H2652 H 0.10098 0.23938 0.24606 0.0
H2653 H 0.11448 0.23259 0.23948 0.0
H2654 H 0.11184 0.24601 0.21989 0.0
H2655 H 0.09836 0.25286 0.22644 0.0
H2656 H 0.09737 0.24556 0.2116 0.0
H2657 H 0.06589 0.20906 0.21436 0.0
H2658 H 0.04999 0.22142 0.22447 0.0
H2659 H 0.07843 0.24589 0.23895 0.0
C2660 C 0.11376 0.2186 0.21536 0.0
C2661 C 0.11501 0.20807 0.20786 0.0
C2662 C 0.10429 0.20122 0.20451 0.0
C2663 C 0.0926 0.20469 0.20852 0.0
C2664 C 0.09172 0.21507 0.21586 0.0
C2665 C 0.10197 0.22194 0.21929 0.0
C2666 C 0.09835 0.23273 0.22723 0.0
C2667 C 0.10426 0.23184 0.2401 0.0
C2668 C 0.10168 0.24502 0.22091 0.0
C2669 C 0.08447 0.23076 0.22776 0.0
C2670 C 0.08089 0.22057 0.22102 0.0
C2671 C 0.06856 0.21702 0.21972 0.0
C2672 C 0.05962 0.22409 0.22546 0.0
C2673 C 0.06304 0.23452 0.23247 0.0
C2674 C 0.07563 0.23786 0.23372 0.0
H2675 H 0.82288 0.10759 0.21363 0.0
H2676 H 0.79197 0.13239 0.21664 0.0
H2677 H 0.77931 0.11557 0.22544 0.0
H2678 H 0.80544 0.08052 0.20572 0.0
H2679 H 0.81486 0.07031 0.21478 0.0
H2680 H 0.82149 0.08421 0.20844 0.0
H2681 H 0.82866 0.09089 0.23023 0.0
H2682 H 0.82206 0.07699 0.23662 0.0
H2683 H 0.8175 0.09172 0.24243 0.0
H2684 H 0.77006 0.09633 0.23421 0.0
H2685 H 0.76477 0.07556 0.24223 0.0
H2686 H 0.80169 0.06337 0.23408 0.0
C2687 C 0.81348 0.10955 0.21619 0.0
C2688 C 0.80843 0.12137 0.21433 0.0
C2689 C 0.79601 0.1234 0.2177 0.0
C2690 C 0.78876 0.11393 0.22282 0.0
C2691 C 0.79406 0.10247 0.22459 0.0
C2692 C 0.80613 0.10022 0.2214 0.0
C2693 C 0.8096 0.08707 0.22437 0.0
C2694 C 0.81305 0.08012 0.21262 0.0
C2695 C 0.82007 0.08665 0.23398 0.0
C2696 C 0.79757 0.08228 0.22968 0.0
C2697 C 0.78874 0.09134 0.22974 0.0
C2698 C 0.77688 0.08916 0.23422 0.0
C2699 C 0.77396 0.07741 0.23875 0.0
C2700 C 0.78286 0.06806 0.23873 0.0
C2701 C 0.79479 0.07048 0.23416 0.0
H2702 H 0.9157 0.82221 0.20795 0.0
H2703 H 0.88896 0.79312 0.21563 0.0
H2704 H 0.90481 0.78154 0.22685 0.0
H2705 H 0.94118 0.80284 0.20263 0.0
H2706 H 0.95258 0.81251 0.21009 0.0
H2707 H 0.93901 0.81922 0.20334 0.0
H2708 H 0.93381 0.82921 0.22423 0.0
H2709 H 0.9474 0.82252 0.23102 0.0
H2710 H 0.93249 0.81968 0.2378 0.0
H2711 H 0.92307 0.77272 0.23657 0.0
H2712 H 0.94342 0.76667 0.24426 0.0
H2713 H 0.95933 0.80072 0.22991 0.0
C2714 C 0.91318 0.81352 0.21223 0.0
C2715 C 0.90108 0.80855 0.21093 0.0
C2716 C 0.89816 0.79707 0.21647 0.0
C2717 C 0.90709 0.79043 0.22289 0.0
C2718 C 0.91894 0.7954 0.22381 0.0
C2719 C 0.92207 0.80668 0.21871 0.0
C2720 C 0.93572 0.80952 0.22077 0.0
C2721 C 0.94252 0.81111 0.20847 0.0
C2722 C 0.93746 0.82091 0.22894 0.0
C2723 C 0.93971 0.79793 0.22751 0.0
C2724 C 0.92979 0.79004 0.22927 0.0
C2725 C 0.93096 0.77877 0.23521 0.0
C2726 C 0.94263 0.77536 0.23943 0.0
C2727 C 0.95311 0.78306 0.23751 0.0
C2728 C 0.95155 0.7946 0.23158 0.0
H2729 H 0.2085 0.90081 0.23067 0.0
H2730 H 0.21691 0.90542 0.19182 0.0
H2731 H 0.22726 0.92515 0.19635 0.0
H2732 H 0.20122 0.93251 0.23608 0.0
H2733 H 0.20792 0.93279 0.25131 0.0
H2734 H 0.20167 0.91863 0.24523 0.0
H2735 H 0.2226 0.90803 0.24914 0.0
H2736 H 0.2289 0.92216 0.25523 0.0
H2737 H 0.23647 0.91466 0.24267 0.0
H2738 H 0.23669 0.94429 0.20483 0.0
H2739 H 0.2441 0.96216 0.21679 0.0
H2740 H 0.22852 0.94612 0.24998 0.0
C2741 C 0.21242 0.90597 0.22306 0.0
C2742 C 0.21192 0.90137 0.21085 0.0
C2743 C 0.21737 0.90847 0.20128 0.0
C2744 C 0.22319 0.91978 0.20374 0.0
C2745 C 0.22342 0.92401 0.21581 0.0
C2746 C 0.21814 0.91738 0.22532 0.0
C2747 C 0.21951 0.92419 0.23744 0.0
C2748 C 0.20682 0.92721 0.24283 0.0
C2749 C 0.22734 0.91682 0.24666 0.0
C2750 C 0.22629 0.93573 0.23318 0.0
C2751 C 0.22855 0.93534 0.22068 0.0
C2752 C 0.23494 0.94473 0.21461 0.0
C2753 C 0.23916 0.95481 0.22148 0.0
C2754 C 0.23688 0.95549 0.23427 0.0
C2755 C 0.23029 0.94585 0.24018 0.0
H2756 H 0.12048 0.79294 0.81357 0.0
H2757 H 0.11419 0.83216 0.8098 0.0
H2758 H 0.09475 0.82775 0.79872 0.0
H2759 H 0.10757 0.7839 0.78427 0.0
H2760 H 0.10058 0.76996 0.79017 0.0
H2761 H 0.11439 0.77611 0.79728 0.0
H2762 H 0.10335 0.77647 0.81837 0.0
H2763 H 0.08953 0.77031 0.81132 0.0
H2764 H 0.08899 0.7845 0.81976 0.0
H2765 H 0.07606 0.81927 0.78811 0.0
H2766 H 0.05875 0.8071 0.77933 0.0
H2767 H 0.07633 0.77345 0.79121 0.0
C2768 C 0.11502 0.80064 0.81052 0.0
C2769 C 0.11901 0.81293 0.81253 0.0
C2770 C 0.11156 0.82267 0.80817 0.0
C2771 C 0.10042 0.82027 0.80195 0.0
C2772 C 0.09677 0.80808 0.80023 0.0
C2773 C 0.10379 0.79841 0.80443 0.0
C2774 C 0.09759 0.78616 0.8016 0.0
C2775 C 0.10551 0.77859 0.79281 0.0
C2776 C 0.09469 0.77894 0.81347 0.0
C2777 C 0.08592 0.79048 0.79529 0.0
C2778 C 0.08573 0.80316 0.79446 0.0
C2779 C 0.07608 0.80934 0.78874 0.0
C2780 C 0.06633 0.80237 0.78375 0.0
C2781 C 0.06627 0.78939 0.78463 0.0
C2782 C 0.07616 0.78338 0.79052 0.0
H2783 H 0.22552 0.11221 0.82089 0.0
H2784 H 0.19005 0.11322 0.802 0.0
H2785 H 0.19566 0.09492 0.79019 0.0
H2786 H 0.24344 0.1021 0.79534 0.0
H2787 H 0.25303 0.09208 0.80444 0.0
H2788 H 0.24644 0.10548 0.81132 0.0
H2789 H 0.23641 0.09181 0.82822 0.0
H2790 H 0.24299 0.07838 0.82138 0.0
H2791 H 0.22657 0.07906 0.8238 0.0
H2792 H 0.20481 0.07665 0.7805 0.0
H2793 H 0.21702 0.05915 0.77348 0.0
H2794 H 0.2464 0.06931 0.79899 0.0
C2795 C 0.21885 0.10855 0.81436 0.0
C2796 C 0.20732 0.1143 0.81236 0.0
C2797 C 0.19901 0.10923 0.80356 0.0
C2798 C 0.20207 0.09874 0.79688 0.0
C2799 C 0.21343 0.09333 0.79913 0.0
C2800 C 0.2217 0.098 0.80768 0.0
C2801 C 0.23327 0.09031 0.80834 0.0
C2802 C 0.24472 0.09795 0.80464 0.0
C2803 C 0.2349 0.08455 0.8212 0.0
C2804 C 0.23019 0.08061 0.79879 0.0
C2805 C 0.21871 0.08259 0.7936 0.0
C2806 C 0.21383 0.075 0.78447 0.0
C2807 C 0.22087 0.06513 0.7805 0.0
C2808 C 0.23269 0.06291 0.78561 0.0
C2809 C 0.23736 0.07073 0.79496 0.0
H2810 H 0.91363 0.19957 0.81307 0.0
H2811 H 0.8885 0.23004 0.80832 0.0
H2812 H 0.90535 0.24253 0.79937 0.0
H2813 H 0.94065 0.2173 0.82084 0.0
H2814 H 0.95102 0.20778 0.81231 0.0
H2815 H 0.93706 0.20122 0.81862 0.0
H2816 H 0.93053 0.19355 0.79697 0.0
H2817 H 0.94449 0.20007 0.79061 0.0
H2818 H 0.92971 0.20437 0.78437 0.0
H2819 H 0.92461 0.25159 0.79034 0.0
H2820 H 0.94541 0.25674 0.78232 0.0
H2821 H 0.95806 0.22051 0.7927 0.0
C2822 C 0.9116 0.20884 0.8101 0.0
C2823 C 0.89967 0.2138 0.81152 0.0
C2824 C 0.89756 0.22606 0.80762 0.0
C2825 C 0.90706 0.23321 0.80239 0.0
C2826 C 0.91863 0.228 0.80107 0.0
C2827 C 0.92096 0.2161 0.8048 0.0
C2828 C 0.93422 0.21268 0.80223 0.0
C2829 C 0.94115 0.20957 0.81422 0.0
C2830 C 0.93477 0.20204 0.79299 0.0
C2831 C 0.939 0.22457 0.79656 0.0
C2832 C 0.92981 0.23326 0.79591 0.0
C2833 C 0.93188 0.24489 0.79083 0.0
C2834 C 0.94366 0.24773 0.7863 0.0
C2835 C 0.95318 0.23901 0.78696 0.0
C2836 C 0.95086 0.22731 0.79217 0.0
H2837 H 0.80769 0.91104 0.82253 0.0
H2838 H 0.81792 0.89376 0.78824 0.0
H2839 H 0.80848 0.91067 0.77655 0.0
H2840 H 0.77798 0.92321 0.81158 0.0
H2841 H 0.77965 0.93743 0.81989 0.0
H2842 H 0.78665 0.92365 0.8258 0.0
H2843 H 0.80792 0.9348 0.82642 0.0
H2844 H 0.80099 0.94858 0.82048 0.0
H2845 H 0.81383 0.94192 0.81259 0.0
H2846 H 0.79946 0.92964 0.76845 0.0
H2847 H 0.79014 0.94981 0.76422 0.0
H2848 H 0.78485 0.95523 0.80333 0.0
C2849 C 0.80771 0.91075 0.81257 0.0
C2850 C 0.81356 0.90109 0.80627 0.0
C2851 C 0.81357 0.9011 0.79324 0.0
C2852 C 0.80821 0.91065 0.78651 0.0
C2853 C 0.80279 0.92015 0.79292 0.0
C2854 C 0.80238 0.92031 0.80564 0.0
C2855 C 0.79626 0.93196 0.81009 0.0
C2856 C 0.78443 0.92888 0.81726 0.0
C2857 C 0.80529 0.93977 0.81786 0.0
C2858 C 0.79335 0.93822 0.79788 0.0
C2859 C 0.79729 0.93122 0.78814 0.0
C2860 C 0.79621 0.93518 0.77597 0.0
C2861 C 0.79096 0.94663 0.77365 0.0
C2862 C 0.78677 0.95395 0.78343 0.0
C2863 C 0.78788 0.94968 0.79571 0.0
H2864 H 0.21336 0.12188 0.22591 0.0
H2865 H 0.2004 0.10759 0.19078 0.0
H2866 H 0.20887 0.08737 0.1961 0.0
H2867 H 0.24155 0.10491 0.22774 0.0
H2868 H 0.24047 0.10205 0.24406 0.0
H2869 H 0.2337 0.11562 0.23745 0.0
H2870 H 0.21253 0.10947 0.24679 0.0
H2871 H 0.21927 0.0959 0.25345 0.0
H2872 H 0.20595 0.09452 0.24351 0.0
H2873 H 0.21777 0.06849 0.2054 0.0
H2874 H 0.22742 0.05218 0.21803 0.0
H2875 H 0.23477 0.07844 0.24709 0.0
C2876 C 0.21225 0.11451 0.21932 0.0
C2877 C 0.20626 0.11645 0.20784 0.0
C2878 C 0.20516 0.10651 0.1995 0.0
C2879 C 0.20984 0.09492 0.20249 0.0
C2880 C 0.21558 0.09335 0.21388 0.0
C2881 C 0.21683 0.10285 0.22218 0.0
C2882 C 0.22328 0.09861 0.23387 0.0
C2883 C 0.23548 0.10572 0.23589 0.0
C2884 C 0.21475 0.09969 0.24506 0.0
C2885 C 0.22553 0.08527 0.23077 0.0
C2886 C 0.22091 0.08243 0.21922 0.0
C2887 C 0.22149 0.07061 0.21442 0.0
C2888 C 0.22695 0.06143 0.22163 0.0
C2889 C 0.23182 0.06417 0.2334 0.0
C2890 C 0.23117 0.07623 0.23803 0.0
H2891 H 0.22319 0.89619 0.80248 0.0
H2892 H 0.19348 0.91184 0.82349 0.0
H2893 H 0.20027 0.93275 0.8172 0.0
H2894 H 0.24585 0.92059 0.80978 0.0
H2895 H 0.2529 0.92021 0.79481 0.0
H2896 H 0.2459 0.90648 0.80118 0.0
H2897 H 0.23205 0.90439 0.78173 0.0
H2898 H 0.23898 0.91814 0.77535 0.0
H2899 H 0.22247 0.91705 0.77711 0.0
H2900 H 0.20996 0.95167 0.80864 0.0
H2901 H 0.22228 0.96794 0.79831 0.0
H2902 H 0.24579 0.9403 0.78254 0.0
C2903 C 0.21826 0.90408 0.80583 0.0
C2904 C 0.20793 0.90256 0.81357 0.0
C2905 C 0.20153 0.91296 0.81771 0.0
C2906 C 0.20528 0.9248 0.81414 0.0
C2907 C 0.2155 0.92605 0.8065 0.0
C2908 C 0.22197 0.91601 0.80244 0.0
C2909 C 0.23268 0.92001 0.79435 0.0
C2910 C 0.24507 0.91662 0.80039 0.0
C2911 C 0.23146 0.91457 0.78136 0.0
C2912 C 0.23095 0.93381 0.7942 0.0
C2913 C 0.22106 0.93707 0.8014 0.0
C2914 C 0.21773 0.94926 0.80298 0.0
C2915 C 0.22476 0.95841 0.79711 0.0
C2916 C 0.2349 0.9553 0.78968 0.0
C2917 C 0.238 0.94285 0.78813 0.0
H2918 H 0.11229 0.21542 0.82323 0.0
H2919 H 0.1216 0.19207 0.79249 0.0
H2920 H 0.10428 0.20038 0.78051 0.0
H2921 H 0.07936 0.21253 0.81952 0.0
H2922 H 0.0761 0.22824 0.82338 0.0
H2923 H 0.08957 0.22094 0.8297 0.0
H2924 H 0.10346 0.23839 0.82084 0.0
H2925 H 0.09 0.24577 0.81458 0.0
H2926 H 0.10263 0.242 0.80463 0.0
H2927 H 0.08561 0.20959 0.77236 0.0
H2928 H 0.06687 0.22077 0.76738 0.0
H2929 H 0.06949 0.2398 0.80246 0.0
C2930 C 0.11074 0.21223 0.81392 0.0
C2931 C 0.11823 0.20302 0.8088 0.0
C2932 C 0.11589 0.19899 0.79663 0.0
C2933 C 0.10609 0.20366 0.78974 0.0
C2934 C 0.09869 0.21245 0.7951 0.0
C2935 C 0.10087 0.21683 0.80684 0.0
C2936 C 0.09119 0.2262 0.81027 0.0
C2937 C 0.08361 0.22171 0.82138 0.0
C2938 C 0.09718 0.23884 0.81272 0.0
C2939 C 0.08336 0.22635 0.79858 0.0
C2940 C 0.08788 0.21823 0.79007 0.0
C2941 C 0.0821 0.2162 0.77882 0.0
C2942 C 0.07147 0.22276 0.77602 0.0
C2943 C 0.06678 0.23156 0.7843 0.0
C2944 C 0.07279 0.23324 0.79584 0.0
H2945 H 0.81177 0.12031 0.7987 0.0
H2946 H 0.80157 0.11306 0.83666 0.0
H2947 H 0.79293 0.09292 0.83075 0.0
H2948 H 0.7848 0.10638 0.78515 0.0
H2949 H 0.79269 0.09978 0.77227 0.0
H2950 H 0.79871 0.11356 0.77936 0.0
H2951 H 0.8197 0.10298 0.78301 0.0
H2952 H 0.81373 0.08918 0.7759 0.0
H2953 H 0.82013 0.08855 0.79124 0.0
H2954 H 0.7843 0.07444 0.82109 0.0
H2955 H 0.77677 0.05755 0.80788 0.0
H2956 H 0.79274 0.07565 0.77594 0.0
C2957 C 0.80789 0.11437 0.80575 0.0
C2958 C 0.80728 0.11827 0.81815 0.0
C2959 C 0.80202 0.11031 0.82711 0.0
C2960 C 0.79712 0.09884 0.82386 0.0
C2961 C 0.79759 0.09535 0.81159 0.0
C2962 C 0.80289 0.10277 0.80264 0.0
C2963 C 0.80179 0.09673 0.79007 0.0
C2964 C 0.79404 0.10458 0.78119 0.0
C2965 C 0.8146 0.09421 0.78474 0.0
C2966 C 0.79505 0.08484 0.79345 0.0
C2967 C 0.7927 0.08434 0.80593 0.0
C2968 C 0.78617 0.07464 0.81131 0.0
C2969 C 0.78189 0.06513 0.80376 0.0
C2970 C 0.78421 0.06533 0.79097 0.0
C2971 C 0.79097 0.07526 0.78574 0.0
H2972 H 0.90603 0.79539 0.81821 0.0
H2973 H 0.90406 0.83061 0.79922 0.0
H2974 H 0.92264 0.82551 0.7875 0.0
H2975 H 0.93916 0.79524 0.82139 0.0
H2976 H 0.9404 0.77894 0.81893 0.0
H2977 H 0.92662 0.78503 0.8256 0.0
H2978 H 0.91343 0.77468 0.80847 0.0
H2979 H 0.9272 0.76856 0.80178 0.0
H2980 H 0.91697 0.77781 0.79256 0.0
H2981 H 0.94145 0.81702 0.77809 0.0
H2982 H 0.95963 0.80555 0.77146 0.0
H2983 H 0.95005 0.77596 0.7968 0.0
C2984 C 0.90952 0.8021 0.81166 0.0
C2985 C 0.90343 0.81342 0.80964 0.0
C2986 C 0.90831 0.82179 0.80081 0.0
C2987 C 0.91895 0.81903 0.79417 0.0
C2988 C 0.9247 0.80788 0.79647 0.0
C2989 C 0.92021 0.79954 0.805 0.0
C2990 C 0.9283 0.78826 0.80575 0.0
C2991 C 0.93395 0.78679 0.81869 0.0
C2992 C 0.92104 0.77664 0.80191 0.0
C2993 C 0.93808 0.79165 0.79634 0.0
C2994 C 0.93575 0.80299 0.79108 0.0
C2995 C 0.94336 0.80812 0.7821 0.0
C2996 C 0.95363 0.80149 0.77835 0.0
C2997 C 0.95622 0.78982 0.78353 0.0
C2998 C 0.94835 0.78489 0.79272 0.0
H2999 H 0.80937 0.90083 0.22698 0.0
H3000 H 0.81555 0.91286 0.18925 0.0
H3001 H 0.80645 0.93281 0.19402 0.0
H3002 H 0.78053 0.91581 0.23145 0.0
H3003 H 0.78381 0.92023 0.24711 0.0
H3004 H 0.79073 0.9067 0.24085 0.0
H3005 H 0.81245 0.91531 0.24645 0.0
H3006 H 0.80557 0.92888 0.25272 0.0
H3007 H 0.81709 0.93031 0.24089 0.0
H3008 H 0.79761 0.95157 0.20271 0.0
H3009 H 0.7884 0.96807 0.21462 0.0
H3010 H 0.78707 0.94411 0.24682 0.0
C3011 C 0.80888 0.90766 0.21971 0.0
C3012 C 0.81311 0.90513 0.20766 0.0
C3013 C 0.81215 0.91437 0.19846 0.0
C3014 C 0.80711 0.92582 0.20111 0.0
C3015 C 0.80312 0.92798 0.21303 0.0
C3016 C 0.80392 0.91921 0.22221 0.0
C3017 C 0.7989 0.92403 0.23427 0.0
C3018 C 0.78783 0.91623 0.23867 0.0
C3019 C 0.80911 0.92467 0.24417 0.0
C3020 C 0.79499 0.93681 0.2303 0.0
C3021 C 0.79767 0.93888 0.21805 0.0
C3022 C 0.79529 0.95002 0.21227 0.0
C3023 C 0.7899 0.95932 0.21913 0.0
C3024 C 0.78665 0.9574 0.23164 0.0
C3025 C 0.78939 0.94596 0.2373 0.0
H3026 H 0.11177 0.79945 0.20057 0.0
H3027 H 0.12768 0.81982 0.23126 0.0
H3028 H 0.10987 0.81386 0.24402 0.0
H3029 H 0.08005 0.80623 0.20651 0.0
H3030 H 0.07437 0.79115 0.20236 0.0
H3031 H 0.08821 0.79725 0.19538 0.0
H3032 H 0.10021 0.77806 0.20265 0.0
H3033 H 0.08638 0.77192 0.20962 0.0
H3034 H 0.10021 0.7739 0.21875 0.0
H3035 H 0.09051 0.80586 0.25351 0.0
H3036 H 0.0708 0.79589 0.25933 0.0
H3037 H 0.06773 0.77983 0.22295 0.0
C3038 C 0.11162 0.80259 0.21001 0.0
C3039 C 0.1212 0.81021 0.21483 0.0
C3040 C 0.12042 0.81421 0.2272 0.0
C3041 C 0.11037 0.81078 0.23458 0.0
C3042 C 0.10118 0.80325 0.22954 0.0
C3043 C 0.10171 0.79915 0.21756 0.0
C3044 C 0.09061 0.79103 0.21446 0.0
C3045 C 0.08285 0.79676 0.20406 0.0
C3046 C 0.0946 0.77795 0.21118 0.0
C3047 C 0.08382 0.79121 0.22661 0.0
C3048 C 0.09006 0.79838 0.23513 0.0
C3049 C 0.08555 0.8002 0.24694 0.0
C3050 C 0.07433 0.79454 0.25014 0.0
C3051 C 0.06777 0.78712 0.2416 0.0
C3052 C 0.07263 0.78537 0.2297 0.0
H3053 H 0.91156 0.21693 0.19903 0.0
H3054 H 0.88961 0.2097 0.23167 0.0
H3055 H 0.90661 0.2177 0.24466 0.0
H3056 H 0.94083 0.20887 0.21173 0.0
H3057 H 0.94921 0.22103 0.20396 0.0
H3058 H 0.93532 0.21474 0.19717 0.0
H3059 H 0.92602 0.23654 0.1961 0.0
H3060 H 0.9399 0.24288 0.20292 0.0
H3061 H 0.92516 0.24556 0.20992 0.0
H3062 H 0.9253 0.22744 0.25399 0.0
H3063 H 0.94523 0.23686 0.2594 0.0
H3064 H 0.95576 0.23647 0.22079 0.0
C3065 C 0.91028 0.21708 0.20891 0.0
C3066 C 0.89922 0.21263 0.21432 0.0
C3067 C 0.89803 0.21285 0.2273 0.0
C3068 C 0.90759 0.2175 0.23475 0.0
C3069 C 0.91827 0.2219 0.2291 0.0
C3070 C 0.91971 0.2217 0.21649 0.0
C3071 C 0.9322 0.22693 0.21278 0.0
C3072 C 0.93984 0.21731 0.20602 0.0
C3073 C 0.93073 0.23867 0.20497 0.0
C3074 C 0.93762 0.22986 0.22533 0.0
C3075 C 0.92933 0.22709 0.23456 0.0
C3076 C 0.93198 0.22945 0.24686 0.0
C3077 C 0.94347 0.23468 0.24985 0.0
C3078 C 0.95239 0.23721 0.24062 0.0
C3079 C 0.94929 0.23478 0.22816 0.0
H3080 H 0.22554 0.71163 0.62335 0.0
H3081 H 0.18904 0.70111 0.60993 0.0
H3082 H 0.19427 0.70938 0.58948 0.0
H3083 H 0.22866 0.73974 0.60609 0.0
H3084 H 0.2448 0.73778 0.60285 0.0
H3085 H 0.23825 0.73118 0.61662 0.0
H3086 H 0.24603 0.70973 0.61029 0.0
H3087 H 0.25258 0.71629 0.59649 0.0
H3088 H 0.24174 0.70362 0.59545 0.0
H3089 H 0.2034 0.71797 0.57043 0.0
H3090 H 0.21563 0.72735 0.55386 0.0
H3091 H 0.2463 0.73292 0.57933 0.0
C3092 C 0.21865 0.711 0.61612 0.0
C3093 C 0.20679 0.70578 0.61838 0.0
C3094 C 0.19806 0.70529 0.60861 0.0
C3095 C 0.20099 0.70985 0.59689 0.0
C3096 C 0.21272 0.71484 0.595 0.0
C3097 C 0.22143 0.71548 0.6043 0.0
C3098 C 0.23338 0.72132 0.59971 0.0
C3099 C 0.23645 0.73321 0.60673 0.0
C3100 C 0.24406 0.71219 0.60054 0.0
C3101 C 0.22991 0.72398 0.58641 0.0
C3102 C 0.21799 0.72005 0.58392 0.0
C3103 C 0.2127 0.72124 0.57229 0.0
C3104 C 0.21972 0.72671 0.56295 0.0
C3105 C 0.23189 0.73117 0.56527 0.0
C3106 C 0.23706 0.72964 0.57719 0.0
H3107 H 0.80395 0.72716 0.62581 0.0
H3108 H 0.81811 0.69305 0.61151 0.0
H3109 H 0.81288 0.69966 0.59039 0.0
H3110 H 0.7782 0.72886 0.60591 0.0
H3111 H 0.77884 0.74529 0.60364 0.0
H3112 H 0.78484 0.73864 0.61763 0.0
H3113 H 0.80599 0.74932 0.61374 0.0
H3114 H 0.80001 0.75602 0.59973 0.0
H3115 H 0.81377 0.74691 0.59935 0.0
H3116 H 0.80543 0.70901 0.57134 0.0
H3117 H 0.7954 0.72059 0.55472 0.0
H3118 H 0.78491 0.74862 0.58085 0.0
C3119 C 0.8062 0.72129 0.61815 0.0
C3120 C 0.81159 0.70969 0.62014 0.0
C3121 C 0.81412 0.70202 0.61004 0.0
C3122 C 0.81119 0.70569 0.59806 0.0
C3123 C 0.80573 0.71707 0.59635 0.0
C3124 C 0.80324 0.72481 0.60604 0.0
C3125 C 0.79661 0.73621 0.60152 0.0
C3126 C 0.78386 0.7373 0.60753 0.0
C3127 C 0.80457 0.7478 0.60372 0.0
C3128 C 0.79548 0.73341 0.58788 0.0
C3129 C 0.80099 0.7224 0.58516 0.0
C3130 C 0.80106 0.71765 0.57332 0.0
C3131 C 0.79522 0.72425 0.56397 0.0
C3132 C 0.78918 0.73541 0.56651 0.0
C3133 C 0.78949 0.74014 0.57862 0.0
H3134 H 0.81896 0.29918 0.61603 0.0
H3135 H 0.79488 0.33061 0.61848 0.0
H3136 H 0.78401 0.32405 0.59964 0.0
H3137 H 0.82125 0.29896 0.58251 0.0
H3138 H 0.82079 0.28244 0.58135 0.0
H3139 H 0.82705 0.28962 0.59498 0.0
H3140 H 0.81168 0.27704 0.60839 0.0
H3141 H 0.80535 0.26989 0.59478 0.0
H3142 H 0.79538 0.27787 0.60516 0.0
H3143 H 0.77527 0.31423 0.58135 0.0
H3144 H 0.76935 0.30185 0.56344 0.0
H3145 H 0.79905 0.27656 0.57165 0.0
C3146 C 0.81147 0.3047 0.61249 0.0
C3147 C 0.80769 0.31538 0.61876 0.0
C3148 C 0.79782 0.32233 0.61391 0.0
C3149 C 0.7916 0.3187 0.60321 0.0
C3150 C 0.79534 0.30805 0.59738 0.0
C3151 C 0.80504 0.30113 0.60174 0.0
C3152 C 0.80688 0.28995 0.59362 0.0
C3153 C 0.81976 0.29027 0.58777 0.0
C3154 C 0.80469 0.27798 0.60092 0.0
C3155 C 0.79679 0.29185 0.58401 0.0
C3156 C 0.79026 0.30233 0.58649 0.0
C3157 C 0.78039 0.30606 0.5792 0.0
C3158 C 0.77717 0.29899 0.56896 0.0
C3159 C 0.78386 0.28833 0.56591 0.0
C3160 C 0.79374 0.28464 0.57368 0.0
H3161 H 0.21047 0.3224 0.60738 0.0
H3162 H 0.21908 0.29452 0.63482 0.0
H3163 H 0.22903 0.28219 0.61889 0.0
H3164 H 0.20399 0.30208 0.58238 0.0
H3165 H 0.21119 0.31177 0.57089 0.0
H3166 H 0.20463 0.31851 0.58442 0.0
H3167 H 0.22561 0.32917 0.58937 0.0
H3168 H 0.23222 0.32243 0.57586 0.0
H3169 H 0.2393 0.32002 0.59072 0.0
H3170 H 0.23841 0.27307 0.60044 0.0
H3171 H 0.24608 0.26717 0.58011 0.0
H3172 H 0.23126 0.30072 0.56431 0.0
C3173 C 0.21451 0.31374 0.61009 0.0
C3174 C 0.21386 0.30941 0.6224 0.0
C3175 C 0.21917 0.29795 0.62545 0.0
C3176 C 0.22498 0.29092 0.61649 0.0
C3177 C 0.22549 0.29549 0.60451 0.0
C3178 C 0.22041 0.30662 0.60126 0.0
C3179 C 0.22223 0.30934 0.58767 0.0
C3180 C 0.20977 0.31049 0.58094 0.0
C3181 C 0.23032 0.32093 0.5858 0.0
C3182 C 0.22897 0.29789 0.5838 0.0
C3183 C 0.23083 0.29011 0.59371 0.0
C3184 C 0.23692 0.27902 0.59257 0.0
C3185 C 0.24115 0.27571 0.58094 0.0
C3186 C 0.23911 0.28336 0.57052 0.0
C3187 C 0.23303 0.29467 0.57206 0.0
H3188 H 0.20814 0.29805 0.40527 0.0
H3189 H 0.22685 0.33359 0.40516 0.0
H3190 H 0.23763 0.32819 0.4244 0.0
H3191 H 0.20386 0.29547 0.43823 0.0
H3192 H 0.20711 0.27927 0.43895 0.0
H3193 H 0.20066 0.28582 0.42511 0.0
H3194 H 0.21886 0.27723 0.41258 0.0
H3195 H 0.22539 0.27075 0.42643 0.0
H3196 H 0.23447 0.28112 0.41706 0.0
H3197 H 0.24717 0.319 0.44252 0.0
H3198 H 0.25402 0.307 0.46028 0.0
H3199 H 0.22822 0.27762 0.45027 0.0
C3200 C 0.21442 0.30468 0.40941 0.0
C3201 C 0.21676 0.31621 0.40375 0.0
C3202 C 0.22508 0.32467 0.40932 0.0
C3203 C 0.23123 0.3217 0.42023 0.0
C3204 C 0.22897 0.31022 0.42546 0.0
C3205 C 0.22075 0.30182 0.42037 0.0
C3206 C 0.22027 0.29008 0.428 0.0
C3207 C 0.20719 0.28752 0.43287 0.0
C3208 C 0.22503 0.27915 0.42057 0.0
C3209 C 0.22919 0.29343 0.43833 0.0
C3210 C 0.23424 0.305 0.43646 0.0
C3211 C 0.24312 0.31002 0.44427 0.0
C3212 C 0.24683 0.30314 0.45447 0.0
C3213 C 0.2414 0.29146 0.45706 0.0
C3214 C 0.23257 0.2865 0.4487 0.0
H3215 H 0.20692 0.69603 0.41565 0.0
H3216 H 0.21384 0.72665 0.39071 0.0
H3217 H 0.2252 0.73759 0.40706 0.0
H3218 H 0.20193 0.71385 0.4425 0.0
H3219 H 0.20976 0.70364 0.45299 0.0
H3220 H 0.20266 0.69766 0.4392 0.0
H3221 H 0.2235 0.68832 0.43275 0.0
H3222 H 0.23063 0.69425 0.44657 0.0
H3223 H 0.23702 0.69811 0.43175 0.0
H3224 H 0.23553 0.74548 0.42574 0.0
H3225 H 0.24406 0.75011 0.44639 0.0
H3226 H 0.23019 0.71505 0.45996 0.0
C3227 C 0.21102 0.70494 0.41361 0.0
C3228 C 0.20946 0.7105 0.40188 0.0
C3229 C 0.21482 0.72225 0.39963 0.0
C3230 C 0.22133 0.72853 0.40885 0.0
C3231 C 0.22251 0.72295 0.42033 0.0
C3232 C 0.21756 0.71142 0.4228 0.0
C3233 C 0.22 0.70779 0.43613 0.0
C3234 C 0.20786 0.70561 0.44311 0.0
C3235 C 0.22828 0.69644 0.43684 0.0
C3236 C 0.22681 0.71919 0.44073 0.0
C3237 C 0.22829 0.72771 0.43136 0.0
C3238 C 0.23445 0.73889 0.43317 0.0
C3239 C 0.23926 0.74144 0.44487 0.0
C3240 C 0.23774 0.73294 0.45464 0.0
C3241 C 0.2314 0.72169 0.45258 0.0
H3242 H 0.80422 0.7021 0.4126 0.0
H3243 H 0.82693 0.73273 0.39985 0.0
H3244 H 0.81991 0.74525 0.41715 0.0
H3245 H 0.77835 0.7203 0.42328 0.0
H3246 H 0.77558 0.71088 0.43672 0.0
H3247 H 0.78209 0.7042 0.42313 0.0
H3248 H 0.80062 0.69649 0.4361 0.0
H3249 H 0.79419 0.70324 0.44969 0.0
H3250 H 0.80963 0.70734 0.44499 0.0
H3251 H 0.81191 0.75401 0.43604 0.0
H3252 H 0.80185 0.75954 0.45522 0.0
H3253 H 0.78264 0.72411 0.45566 0.0
C3254 C 0.80754 0.71149 0.41341 0.0
C3255 C 0.81617 0.71645 0.40494 0.0
C3256 C 0.82043 0.72873 0.40632 0.0
C3257 C 0.81649 0.73592 0.41609 0.0
C3258 C 0.80824 0.73073 0.42443 0.0
C3259 C 0.80369 0.71886 0.42322 0.0
C3260 C 0.79502 0.71565 0.43375 0.0
C3261 C 0.78198 0.71258 0.42893 0.0
C3262 C 0.80017 0.70505 0.44159 0.0
C3263 C 0.79532 0.72764 0.44086 0.0
C3264 C 0.80316 0.73609 0.43534 0.0
C3265 C 0.80552 0.7476 0.44034 0.0
C3266 C 0.79959 0.7507 0.45122 0.0
C3267 C 0.79106 0.74248 0.45692 0.0
C3268 C 0.78903 0.7307 0.45164 0.0
H3269 H 0.81179 0.32152 0.41512 0.0
H3270 H 0.80915 0.29162 0.38884 0.0
H3271 H 0.80019 0.27822 0.40489 0.0
H3272 H 0.81962 0.30356 0.4416 0.0
H3273 H 0.81032 0.31222 0.45206 0.0
H3274 H 0.81662 0.31955 0.43854 0.0
H3275 H 0.79467 0.32607 0.4318 0.0
H3276 H 0.78832 0.31873 0.44531 0.0
H3277 H 0.78267 0.31453 0.43025 0.0
H3278 H 0.79086 0.26823 0.42337 0.0
H3279 H 0.78264 0.26186 0.44342 0.0
H3280 H 0.79187 0.29793 0.4582 0.0
C3281 C 0.80927 0.31219 0.41267 0.0
C3282 C 0.81131 0.30766 0.40064 0.0
C3283 C 0.80797 0.2953 0.39799 0.0
C3284 C 0.80274 0.28763 0.40702 0.0
C3285 C 0.80081 0.29242 0.4187 0.0
C3286 C 0.80397 0.3044 0.42158 0.0
C3287 C 0.8009 0.30721 0.43488 0.0
C3288 C 0.81256 0.31085 0.4422 0.0
C3289 C 0.79105 0.31723 0.4356 0.0
C3290 C 0.79574 0.29484 0.43907 0.0
C3291 C 0.79564 0.28652 0.42952 0.0
C3292 C 0.79104 0.27462 0.43097 0.0
C3293 C 0.7865 0.27104 0.44251 0.0
C3294 C 0.78678 0.27924 0.45263 0.0
C3295 C 0.79142 0.29137 0.45076 0.0
H3296 H 0.1196 0.71191 0.72506 0.0
H3297 H 0.10987 0.71328 0.68629 0.0
H3298 H 0.08964 0.72189 0.69141 0.0
H3299 H 0.08852 0.70423 0.73649 0.0
H3300 H 0.08995 0.71389 0.74985 0.0
H3301 H 0.10347 0.70704 0.74337 0.0
H3302 H 0.11375 0.72859 0.74124 0.0
H3303 H 0.10026 0.73548 0.74772 0.0
H3304 H 0.10581 0.74051 0.73289 0.0
H3305 H 0.07073 0.73001 0.70032 0.0
H3306 H 0.05411 0.73862 0.71252 0.0
H3307 H 0.07629 0.73411 0.74576 0.0
C3308 C 0.11307 0.71384 0.71773 0.0
C3309 C 0.11616 0.71182 0.70528 0.0
C3310 C 0.10758 0.71469 0.69586 0.0
C3311 C 0.0961 0.71958 0.69868 0.0
C3312 C 0.09334 0.7216 0.71098 0.0
C3313 C 0.10153 0.7189 0.72038 0.0
C3314 C 0.0963 0.72259 0.73276 0.0
C3315 C 0.09445 0.71126 0.74111 0.0
C3316 C 0.10452 0.73237 0.73902 0.0
C3317 C 0.08399 0.72786 0.72873 0.0
C3318 C 0.08248 0.727 0.71615 0.0
C3319 C 0.07185 0.73092 0.71018 0.0
C3320 C 0.0625 0.73598 0.71724 0.0
C3321 C 0.06389 0.73744 0.73016 0.0
C3322 C 0.07482 0.73318 0.73595 0.0
H3323 H 0.80079 0.61505 0.70433 0.0
H3324 H 0.82938 0.62149 0.73182 0.0
H3325 H 0.82249 0.6031 0.74324 0.0
H3326 H 0.77719 0.60371 0.72562 0.0
H3327 H 0.77132 0.59211 0.71527 0.0
H3328 H 0.77821 0.60602 0.70921 0.0
H3329 H 0.79351 0.59307 0.69665 0.0
H3330 H 0.7867 0.57914 0.70276 0.0
H3331 H 0.80304 0.58202 0.7045 0.0
H3332 H 0.81369 0.58391 0.75113 0.0
H3333 H 0.80228 0.56501 0.75616 0.0
H3334 H 0.7782 0.57083 0.72451 0.0
C3335 C 0.80546 0.61262 0.71283 0.0
C3336 C 0.8157 0.61962 0.71715 0.0
C3337 C 0.82165 0.61615 0.72826 0.0
C3338 C 0.81779 0.60575 0.73483 0.0
C3339 C 0.80791 0.59889 0.73022 0.0
C3340 C 0.80173 0.60215 0.71955 0.0
C3341 C 0.79147 0.5929 0.7167 0.0
C3342 C 0.77879 0.59906 0.71671 0.0
C3343 C 0.79382 0.5864 0.70442 0.0
C3344 C 0.79286 0.58409 0.72752 0.0
C3345 C 0.8025 0.58774 0.73508 0.0
C3346 C 0.80597 0.58103 0.74542 0.0
C3347 C 0.79931 0.57033 0.74827 0.0
C3348 C 0.78908 0.5665 0.74096 0.0
C3349 C 0.78593 0.57346 0.73033 0.0
H3350 H 0.90546 0.31717 0.72454 0.0
H3351 H 0.9042 0.29654 0.69047 0.0
H3352 H 0.92312 0.28579 0.69653 0.0
H3353 H 0.93895 0.32073 0.72628 0.0
H3354 H 0.93974 0.3186 0.74274 0.0
H3355 H 0.92612 0.32499 0.73576 0.0
H3356 H 0.91275 0.30795 0.74608 0.0
H3357 H 0.92637 0.30147 0.753 0.0
H3358 H 0.91637 0.29205 0.74354 0.0
H3359 H 0.94115 0.27654 0.70624 0.0
H3360 H 0.95882 0.27001 0.71864 0.0
H3361 H 0.94989 0.29708 0.7464 0.0
C3362 C 0.90929 0.31049 0.71835 0.0
C3363 C 0.90333 0.30761 0.70706 0.0
C3364 C 0.90854 0.29876 0.69921 0.0
C3365 C 0.91929 0.29262 0.70255 0.0
C3366 C 0.92479 0.29542 0.7138 0.0
C3367 C 0.92009 0.30417 0.72159 0.0
C3368 C 0.92794 0.30516 0.73322 0.0
C3369 C 0.93352 0.31814 0.73457 0.0
C3370 C 0.9204 0.30143 0.74463 0.0
C3371 C 0.93781 0.29576 0.73057 0.0
C3372 C 0.93564 0.2902 0.71937 0.0
C3373 C 0.9431 0.28096 0.71495 0.0
C3374 C 0.95323 0.2774 0.72205 0.0
C3375 C 0.95606 0.28323 0.7334 0.0
C3376 C 0.94808 0.29244 0.73778 0.0
H3377 H 0.21457 0.41053 0.70168 0.0
H3378 H 0.203 0.39239 0.73546 0.0
H3379 H 0.21184 0.40942 0.74757 0.0
H3380 H 0.24377 0.42339 0.71392 0.0
H3381 H 0.24243 0.43768 0.70556 0.0
H3382 H 0.23573 0.42377 0.69934 0.0
H3383 H 0.21448 0.43431 0.69781 0.0
H3384 H 0.22111 0.44821 0.70409 0.0
H3385 H 0.20795 0.44104 0.71138 0.0
H3386 H 0.22041 0.42854 0.75607 0.0
H3387 H 0.22957 0.44889 0.76073 0.0
H3388 H 0.23652 0.45501 0.72189 0.0
C3389 C 0.21414 0.41008 0.71163 0.0
C3390 C 0.20806 0.40016 0.71765 0.0
C3391 C 0.20751 0.39995 0.73067 0.0
C3392 C 0.21252 0.40956 0.73764 0.0
C3393 C 0.21817 0.41932 0.73148 0.0
C3394 C 0.21914 0.41969 0.7188 0.0
C3395 C 0.22542 0.43156 0.71462 0.0
C3396 C 0.23756 0.42894 0.70797 0.0
C3397 C 0.21672 0.43923 0.7065 0.0
C3398 C 0.22778 0.43772 0.72695 0.0
C3399 C 0.22343 0.43047 0.7365 0.0
C3400 C 0.22397 0.43427 0.74871 0.0
C3401 C 0.22913 0.44583 0.75126 0.0
C3402 C 0.23375 0.45339 0.74168 0.0
C3403 C 0.23316 0.44927 0.72937 0.0
H3404 H 0.10742 0.32051 0.31595 0.0
H3405 H 0.13351 0.29314 0.30422 0.0
H3406 H 0.1173 0.28311 0.29165 0.0
H3407 H 0.08181 0.30013 0.31913 0.0
H3408 H 0.07045 0.31067 0.31333 0.0
H3409 H 0.08426 0.31648 0.32069 0.0
H3410 H 0.08928 0.32961 0.30132 0.0
H3411 H 0.07543 0.32387 0.29394 0.0
H3412 H 0.09014 0.32226 0.28653 0.0
H3413 H 0.09862 0.27576 0.28077 0.0
H3414 H 0.07777 0.27092 0.27264 0.0
H3415 H 0.06316 0.30221 0.292 0.0
C3416 C 0.10972 0.31255 0.31053 0.0
C3417 C 0.12171 0.30761 0.31096 0.0
C3418 C 0.12437 0.29704 0.30397 0.0
C3419 C 0.11525 0.29131 0.2968 0.0
C3420 C 0.10349 0.29624 0.29671 0.0
C3421 C 0.10064 0.3066 0.30337 0.0
C3422 C 0.08705 0.30958 0.30202 0.0
C3423 C 0.08051 0.30918 0.31454 0.0
C3424 C 0.08538 0.32207 0.29557 0.0
C3425 C 0.08274 0.29912 0.29381 0.0
C3426 C 0.09246 0.29168 0.29071 0.0
C3427 C 0.09092 0.28151 0.2831 0.0
C3428 C 0.07911 0.27885 0.27852 0.0
C3429 C 0.06901 0.28622 0.28172 0.0
C3430 C 0.07081 0.29645 0.28949 0.0
H3431 H 0.20961 0.60263 0.32558 0.0
H3432 H 0.20997 0.62825 0.2947 0.0
H3433 H 0.21935 0.6125 0.28176 0.0
H3434 H 0.23926 0.58924 0.31897 0.0
H3435 H 0.2346 0.57395 0.32363 0.0
H3436 H 0.22761 0.58711 0.33059 0.0
H3437 H 0.20595 0.57883 0.3243 0.0
H3438 H 0.21289 0.56565 0.31736 0.0
H3439 H 0.2028 0.57528 0.30838 0.0
H3440 H 0.22941 0.59463 0.27235 0.0
H3441 H 0.23874 0.57512 0.26655 0.0
H3442 H 0.23155 0.56054 0.30322 0.0
C3443 C 0.2117 0.60499 0.31612 0.0
C3444 C 0.2089 0.61674 0.31118 0.0
C3445 C 0.21171 0.61929 0.29869 0.0
C3446 C 0.21718 0.61044 0.29127 0.0
C3447 C 0.21988 0.59906 0.29646 0.0
C3448 C 0.21724 0.59626 0.30857 0.0
C3449 C 0.22117 0.58328 0.31181 0.0
C3450 C 0.23126 0.58341 0.32184 0.0
C3451 C 0.21003 0.57529 0.31569 0.0
C3452 C 0.22629 0.57923 0.29954 0.0
C3453 C 0.22554 0.58854 0.29089 0.0
C3454 C 0.22991 0.58719 0.27899 0.0
C3455 C 0.2351 0.57598 0.27575 0.0
C3456 C 0.2357 0.5661 0.28431 0.0
C3457 C 0.2313 0.56785 0.29643 0.0
H3458 H 0.90876 0.69841 0.30309 0.0
H3459 H 0.89405 0.72922 0.32334 0.0
H3460 H 0.91197 0.74189 0.31718 0.0
H3461 H 0.94084 0.70448 0.30948 0.0
H3462 H 0.94598 0.70027 0.29436 0.0
H3463 H 0.93221 0.69328 0.30064 0.0
H3464 H 0.91968 0.70037 0.28155 0.0
H3465 H 0.93345 0.70727 0.27518 0.0
H3466 H 0.91987 0.71641 0.27724 0.0
H3467 H 0.93165 0.75099 0.30967 0.0
H3468 H 0.95117 0.75672 0.29997 0.0
H3469 H 0.95206 0.72097 0.28217 0.0
C3470 C 0.90919 0.70785 0.30616 0.0
C3471 C 0.89994 0.71272 0.31386 0.0
C3472 C 0.90108 0.72511 0.31773 0.0
C3473 C 0.9112 0.73244 0.31419 0.0
C3474 C 0.92009 0.72734 0.30666 0.0
C3475 C 0.91916 0.71538 0.30257 0.0
C3476 C 0.92994 0.71229 0.29432 0.0
C3477 C 0.9377 0.70197 0.30004 0.0
C3478 C 0.92546 0.70889 0.2813 0.0
C3479 C 0.93698 0.72444 0.29435 0.0
C3480 C 0.93119 0.73289 0.30168 0.0
C3481 C 0.93614 0.74455 0.30367 0.0
C3482 C 0.94724 0.74777 0.29792 0.0
C3483 C 0.95321 0.73951 0.28988 0.0
C3484 C 0.94793 0.72761 0.2882 0.0
H3485 H 0.80395 0.40928 0.32206 0.0
H3486 H 0.82344 0.39766 0.28945 0.0
H3487 H 0.81468 0.41489 0.2777 0.0
H3488 H 0.77595 0.41984 0.30604 0.0
H3489 H 0.77406 0.43295 0.31588 0.0
H3490 H 0.78128 0.41929 0.32179 0.0
H3491 H 0.80048 0.43222 0.32825 0.0
H3492 H 0.79331 0.4459 0.32234 0.0
H3493 H 0.80831 0.44157 0.3169 0.0
H3494 H 0.80509 0.43358 0.26966 0.0
H3495 H 0.79445 0.45303 0.26545 0.0
H3496 H 0.7806 0.45316 0.30284 0.0
C3497 C 0.80617 0.41029 0.3124 0.0
C3498 C 0.8144 0.40215 0.30665 0.0
C3499 C 0.81724 0.40384 0.29404 0.0
C3500 C 0.81229 0.41357 0.28728 0.0
C3501 C 0.80444 0.42157 0.29321 0.0
C3502 C 0.80131 0.42008 0.30545 0.0
C3503 C 0.79298 0.4304 0.30956 0.0
C3504 C 0.78031 0.42532 0.31355 0.0
C3505 C 0.79914 0.43797 0.31987 0.0
C3506 C 0.79199 0.43785 0.29771 0.0
C3507 C 0.79872 0.43254 0.28845 0.0
C3508 C 0.79971 0.43781 0.27679 0.0
C3509 C 0.79369 0.44888 0.2745 0.0
C3510 C 0.78674 0.45457 0.2838 0.0
C3511 C 0.78577 0.44891 0.29554 0.0
H3512 H 0.2051 0.61698 0.72891 0.0
H3513 H 0.21295 0.61239 0.69003 0.0
H3514 H 0.2241 0.59339 0.69487 0.0
H3515 H 0.23367 0.60533 0.74069 0.0
H3516 H 0.22669 0.59752 0.75362 0.0
H3517 H 0.21966 0.61106 0.74725 0.0
H3518 H 0.19915 0.59893 0.74403 0.0
H3519 H 0.20612 0.58537 0.75042 0.0
H3520 H 0.19916 0.58489 0.73531 0.0
H3521 H 0.23455 0.57504 0.70377 0.0
H3522 H 0.24296 0.55798 0.7162 0.0
H3523 H 0.2272 0.57358 0.74911 0.0
C3524 C 0.20903 0.61196 0.72136 0.0
C3525 C 0.20816 0.61634 0.70905 0.0
C3526 C 0.21368 0.60948 0.69955 0.0
C3527 C 0.21995 0.59858 0.70218 0.0
C3528 C 0.22057 0.59456 0.71436 0.0
C3529 C 0.2152 0.60098 0.7238 0.0
C3530 C 0.21706 0.59452 0.73608 0.0
C3531 C 0.22473 0.60259 0.74493 0.0
C3532 C 0.20463 0.5907 0.74179 0.0
C3533 C 0.22425 0.58342 0.73203 0.0
C3534 C 0.22627 0.58371 0.71948 0.0
C3535 C 0.23298 0.57468 0.7136 0.0
C3536 C 0.23776 0.56507 0.72072 0.0
C3537 C 0.23571 0.56451 0.73356 0.0
C3538 C 0.2288 0.57377 0.73927 0.0
H3539 H 0.20997 0.41259 0.32361 0.0
H3540 H 0.21368 0.38805 0.29255 0.0
H3541 H 0.22536 0.40403 0.28131 0.0
H3542 H 0.20503 0.4396 0.30629 0.0
H3543 H 0.21389 0.44974 0.31612 0.0
H3544 H 0.20681 0.43605 0.32244 0.0
H3545 H 0.22807 0.42902 0.33071 0.0
H3546 H 0.2352 0.44272 0.32441 0.0
H3547 H 0.24083 0.42782 0.32024 0.0
H3548 H 0.23571 0.42235 0.27303 0.0
H3549 H 0.2439 0.44278 0.26761 0.0
H3550 H 0.23288 0.45647 0.30336 0.0
C3551 C 0.21351 0.41055 0.31457 0.0
C3552 C 0.21099 0.39908 0.30893 0.0
C3553 C 0.21552 0.39678 0.29699 0.0
C3554 C 0.22219 0.40578 0.29055 0.0
C3555 C 0.22433 0.41704 0.2962 0.0
C3556 C 0.22019 0.41952 0.30792 0.0
C3557 C 0.22329 0.43272 0.31143 0.0
C3558 C 0.21155 0.43995 0.31423 0.0
C3559 C 0.23239 0.43309 0.32235 0.0
C3560 C 0.22941 0.43727 0.29969 0.0
C3561 C 0.23007 0.42796 0.29116 0.0
C3562 C 0.23522 0.42976 0.2796 0.0
C3563 C 0.23973 0.44147 0.27656 0.0
C3564 C 0.23884 0.45135 0.28494 0.0
C3565 C 0.23375 0.44913 0.29675 0.0
H3566 H 0.11905 0.70845 0.29592 0.0
H3567 H 0.10844 0.70588 0.3344 0.0
H3568 H 0.08898 0.71623 0.32946 0.0
H3569 H 0.10553 0.73785 0.28942 0.0
H3570 H 0.10028 0.73367 0.27422 0.0
H3571 H 0.11376 0.72656 0.28074 0.0
H3572 H 0.10383 0.70504 0.27728 0.0
H3573 H 0.09036 0.71211 0.27072 0.0
H3574 H 0.0888 0.70164 0.28356 0.0
H3575 H 0.07067 0.72684 0.32057 0.0
H3576 H 0.05425 0.73639 0.30795 0.0
H3577 H 0.07578 0.73079 0.27505 0.0
C3578 C 0.11264 0.70995 0.30335 0.0
C3579 C 0.11548 0.70639 0.31563 0.0
C3580 C 0.10676 0.70875 0.32499 0.0
C3581 C 0.09558 0.71453 0.32226 0.0
C3582 C 0.09311 0.71783 0.3101 0.0
C3583 C 0.10134 0.71557 0.30076 0.0
C3584 C 0.09625 0.71983 0.28841 0.0
C3585 C 0.10444 0.73009 0.28287 0.0
C3586 C 0.09472 0.70901 0.27947 0.0
C3587 C 0.08385 0.72474 0.29228 0.0
C3588 C 0.0823 0.7236 0.30487 0.0
C3589 C 0.07175 0.72773 0.31071 0.0
C3590 C 0.0625 0.73314 0.30351 0.0
C3591 C 0.06382 0.73423 0.29062 0.0
C3592 C 0.07459 0.72996 0.28491 0.0
H3593 H 0.81033 0.6064 0.32493 0.0
H3594 H 0.80465 0.63297 0.29547 0.0
H3595 H 0.79549 0.61664 0.28256 0.0
H3596 H 0.81792 0.58074 0.30594 0.0
H3597 H 0.80973 0.56962 0.31529 0.0
H3598 H 0.81613 0.58332 0.32221 0.0
H3599 H 0.7946 0.58873 0.3307 0.0
H3600 H 0.78816 0.57502 0.32384 0.0
H3601 H 0.78166 0.58978 0.32025 0.0
H3602 H 0.78606 0.5978 0.27316 0.0
H3603 H 0.7778 0.57722 0.26756 0.0
H3604 H 0.7897 0.56281 0.30289 0.0
C3605 C 0.80713 0.60884 0.31578 0.0
C3606 C 0.80831 0.62103 0.31123 0.0
C3607 C 0.8041 0.6237 0.29913 0.0
C3608 C 0.79877 0.6145 0.29175 0.0
C3609 C 0.79766 0.60266 0.29658 0.0
C3610 C 0.80174 0.59978 0.3083 0.0
C3611 C 0.79936 0.58632 0.3113 0.0
C3612 C 0.81151 0.57961 0.31383 0.0
C3613 C 0.79041 0.58489 0.32216 0.0
C3614 C 0.79339 0.58208 0.29938 0.0
C3615 C 0.7924 0.5917 0.29106 0.0
C3616 C 0.78685 0.59018 0.27955 0.0
C3617 C 0.78218 0.57853 0.27646 0.0
C3618 C 0.78323 0.56857 0.28478 0.0
C3619 C 0.78893 0.57033 0.29636 0.0
H3620 H 0.91642 0.32051 0.31719 0.0
H3621 H 0.88853 0.29557 0.30258 0.0
H3622 H 0.90452 0.28467 0.29092 0.0
H3623 H 0.93544 0.32216 0.28941 0.0
H3624 H 0.94983 0.32248 0.29783 0.0
H3625 H 0.93616 0.32873 0.3046 0.0
H3626 H 0.93892 0.31442 0.32355 0.0
H3627 H 0.95255 0.30811 0.31679 0.0
H3628 H 0.93999 0.29807 0.32131 0.0
H3629 H 0.92318 0.27651 0.28096 0.0
H3630 H 0.94386 0.27109 0.27347 0.0
H3631 H 0.96016 0.30063 0.29502 0.0
C3632 C 0.91373 0.31288 0.31135 0.0
C3633 C 0.90127 0.30896 0.31051 0.0
C3634 C 0.89803 0.29878 0.30309 0.0
C3635 C 0.90703 0.29253 0.29651 0.0
C3636 C 0.91925 0.29655 0.29752 0.0
C3637 C 0.92267 0.30647 0.30475 0.0
C3638 C 0.93654 0.30861 0.3044 0.0
C3639 C 0.93968 0.32125 0.29872 0.0
C3640 C 0.94234 0.30721 0.31728 0.0
C3641 C 0.94035 0.29828 0.29597 0.0
C3642 C 0.93018 0.29153 0.29204 0.0
C3643 C 0.93122 0.2817 0.28399 0.0
C3644 C 0.94297 0.2787 0.27977 0.0
C3645 C 0.95352 0.28543 0.28371 0.0
C3646 C 0.95221 0.29529 0.29198 0.0
H3647 H 0.82486 0.41542 0.71439 0.0
H3648 H 0.79236 0.39294 0.70617 0.0
H3649 H 0.77915 0.40938 0.71379 0.0
H3650 H 0.81344 0.42741 0.74303 0.0
H3651 H 0.82035 0.44243 0.74082 0.0
H3652 H 0.8274 0.42913 0.7342 0.0
H3653 H 0.82648 0.4394 0.71264 0.0
H3654 H 0.81941 0.45271 0.71921 0.0
H3655 H 0.8119 0.44468 0.70671 0.0
H3656 H 0.76931 0.42816 0.72195 0.0
H3657 H 0.76352 0.44799 0.73109 0.0
H3658 H 0.80219 0.45776 0.73569 0.0
C3659 C 0.81498 0.41384 0.71426 0.0
C3660 C 0.80973 0.4028 0.70949 0.0
C3661 C 0.7967 0.40135 0.70942 0.0
C3662 C 0.78908 0.4106 0.71386 0.0
C3663 C 0.79457 0.42126 0.71851 0.0
C3664 C 0.80721 0.42291 0.71885 0.0
C3665 C 0.81072 0.4352 0.72455 0.0
C3666 C 0.81843 0.43343 0.73635 0.0
C3667 C 0.81753 0.44349 0.71522 0.0
C3668 C 0.79804 0.44013 0.72741 0.0
C3669 C 0.78887 0.43197 0.72372 0.0
C3670 C 0.7764 0.43459 0.72497 0.0
C3671 C 0.77319 0.44585 0.73013 0.0
C3672 C 0.78241 0.45427 0.73411 0.0
C3673 C 0.79499 0.45136 0.73281 0.0
H3674 H 0.11621 0.29463 0.70476 0.0
H3675 H 0.12096 0.32935 0.72394 0.0
H3676 H 0.10263 0.32452 0.73639 0.0
H3677 H 0.08297 0.29557 0.70301 0.0
H3678 H 0.08088 0.27925 0.70532 0.0
H3679 H 0.0947 0.2851 0.69812 0.0
H3680 H 0.108 0.27395 0.71453 0.0
H3681 H 0.0942 0.26807 0.72176 0.0
H3682 H 0.10535 0.27677 0.73063 0.0
H3683 H 0.08382 0.31626 0.74665 0.0
H3684 H 0.06532 0.30511 0.75396 0.0
H3685 H 0.07209 0.27598 0.7278 0.0
C3686 C 0.11338 0.30129 0.7115 0.0
C3687 C 0.12019 0.31237 0.71337 0.0
C3688 C 0.11615 0.32069 0.72245 0.0
C3689 C 0.10566 0.31809 0.72952 0.0
C3690 C 0.09919 0.30716 0.72739 0.0
C3691 C 0.10284 0.29889 0.71858 0.0
C3692 C 0.09408 0.28788 0.71807 0.0
C3693 C 0.08779 0.2869 0.70538 0.0
C3694 C 0.10081 0.27596 0.72145 0.0
C3695 C 0.08494 0.29131 0.72794 0.0
C3696 C 0.08813 0.30244 0.73322 0.0
C3697 C 0.08123 0.30753 0.74261 0.0
C3698 C 0.07078 0.30108 0.74675 0.0
C3699 C 0.06729 0.28964 0.74152 0.0
C3700 C 0.07447 0.28474 0.73193 0.0
H3701 H 0.91292 0.71272 0.70024 0.0
H3702 H 0.88728 0.71716 0.73043 0.0
H3703 H 0.90401 0.72611 0.74309 0.0
H3704 H 0.93935 0.7048 0.7185 0.0
H3705 H 0.95016 0.71332 0.70908 0.0
H3706 H 0.93621 0.7071 0.70233 0.0
H3707 H 0.93044 0.7288 0.69439 0.0
H3708 H 0.94437 0.73507 0.70115 0.0
H3709 H 0.92962 0.74132 0.70513 0.0
H3710 H 0.923 0.73523 0.75221 0.0
H3711 H 0.9436 0.74313 0.75779 0.0
H3712 H 0.95732 0.73231 0.72198 0.0
C3713 C 0.91079 0.71562 0.70949 0.0
C3714 C 0.89875 0.71414 0.71435 0.0
C3715 C 0.89644 0.71795 0.72656 0.0
C3716 C 0.90585 0.72316 0.7338 0.0
C3717 C 0.91753 0.72456 0.72869 0.0
C3718 C 0.92007 0.72089 0.71684 0.0
C3719 C 0.93348 0.72343 0.71364 0.0
C3720 C 0.94019 0.71145 0.71072 0.0
C3721 C 0.93453 0.73271 0.70294 0.0
C3722 C 0.93806 0.729 0.7256 0.0
C3723 C 0.92866 0.72965 0.73409 0.0
C3724 C 0.93049 0.73465 0.74571 0.0
C3725 C 0.94228 0.73901 0.74882 0.0
C3726 C 0.9522 0.73817 0.74043 0.0
C3727 C 0.94997 0.73316 0.72861 0.0
H3728 H 0.72404 0.19897 0.61484 0.0
H3729 H 0.68967 0.21898 0.61669 0.0
H3730 H 0.69575 0.23099 0.59838 0.0
H3731 H 0.74329 0.22411 0.60474 0.0
H3732 H 0.75227 0.21497 0.59442 0.0
H3733 H 0.74542 0.20797 0.60785 0.0
H3734 H 0.73435 0.19183 0.59408 0.0
H3735 H 0.74119 0.19879 0.58061 0.0
H3736 H 0.72467 0.19692 0.58154 0.0
H3737 H 0.70525 0.24077 0.57996 0.0
H3738 H 0.71764 0.24779 0.56231 0.0
H3739 H 0.74583 0.22132 0.57185 0.0
C3740 C 0.71771 0.20579 0.61137 0.0
C3741 C 0.70636 0.20804 0.61736 0.0
C3742 C 0.69851 0.21721 0.61251 0.0
C3743 C 0.70183 0.22402 0.60202 0.0
C3744 C 0.71301 0.22155 0.59638 0.0
C3745 C 0.72084 0.21264 0.60083 0.0
C3746 C 0.73232 0.21182 0.59292 0.0
C3747 C 0.74401 0.2149 0.60044 0.0
C3748 C 0.73317 0.19908 0.58693 0.0
C3749 C 0.7297 0.22171 0.58338 0.0
C3750 C 0.71851 0.22718 0.58559 0.0
C3751 C 0.71405 0.2366 0.57815 0.0
C3752 C 0.72122 0.24058 0.56819 0.0
C3753 C 0.73279 0.23522 0.56573 0.0
C3754 C 0.73701 0.22558 0.57343 0.0
H3755 H 0.31309 0.20098 0.60877 0.0
H3756 H 0.3036 0.2281 0.63619 0.0
H3757 H 0.29476 0.24121 0.61989 0.0
H3758 H 0.32117 0.22241 0.58459 0.0
H3759 H 0.31458 0.21306 0.57251 0.0
H3760 H 0.32052 0.20592 0.58628 0.0
H3761 H 0.29939 0.19502 0.58975 0.0
H3762 H 0.29339 0.20215 0.576 0.0
H3763 H 0.28561 0.20407 0.59046 0.0
H3764 H 0.28625 0.25098 0.60095 0.0
H3765 H 0.2791 0.25719 0.58032 0.0
H3766 H 0.29431 0.22388 0.56504 0.0
C3767 C 0.30913 0.20965 0.61137 0.0
C3768 C 0.30912 0.21352 0.62379 0.0
C3769 C 0.30394 0.22502 0.62675 0.0
C3770 C 0.2988 0.23249 0.61757 0.0
C3771 C 0.29887 0.22834 0.60547 0.0
C3772 C 0.30392 0.21721 0.60233 0.0
C3773 C 0.30274 0.21491 0.58863 0.0
C3774 C 0.31551 0.21402 0.58265 0.0
C3775 C 0.29481 0.20335 0.58606 0.0
C3776 C 0.29618 0.22646 0.58459 0.0
C3777 C 0.29403 0.23406 0.59446 0.0
C3778 C 0.28797 0.24517 0.59311 0.0
C3779 C 0.28403 0.24866 0.58133 0.0
C3780 C 0.28626 0.24111 0.571 0.0
C3781 C 0.29239 0.22983 0.57272 0.0
H3782 H 0.30254 0.7982 0.62352 0.0
H3783 H 0.32265 0.82873 0.60702 0.0
H3784 H 0.31634 0.82163 0.58628 0.0
H3785 H 0.31032 0.77598 0.59944 0.0
H3786 H 0.29555 0.76819 0.60011 0.0
H3787 H 0.30185 0.77549 0.61366 0.0
H3788 H 0.28197 0.78827 0.61567 0.0
H3789 H 0.27565 0.78104 0.60211 0.0
H3790 H 0.27691 0.79756 0.60284 0.0
H3791 H 0.30781 0.81151 0.56755 0.0
H3792 H 0.2976 0.79877 0.55161 0.0
H3793 H 0.28273 0.77466 0.57995 0.0
C3794 C 0.30569 0.80325 0.61549 0.0
C3795 C 0.31319 0.81391 0.61674 0.0
C3796 C 0.31707 0.82044 0.60614 0.0
C3797 C 0.31348 0.81651 0.59437 0.0
C3798 C 0.30609 0.80597 0.59339 0.0
C3799 C 0.30229 0.79936 0.60362 0.0
C3800 C 0.29446 0.78828 0.5999 0.0
C3801 C 0.30093 0.77628 0.60349 0.0
C3802 C 0.28148 0.78883 0.60546 0.0
C3803 C 0.29411 0.78997 0.58603 0.0
C3804 C 0.30103 0.80016 0.5825 0.0
C3805 C 0.30238 0.80351 0.57019 0.0
C3806 C 0.29657 0.79623 0.56122 0.0
C3807 C 0.28941 0.7858 0.5646 0.0
C3808 C 0.28809 0.78267 0.57717 0.0
H3809 H 0.71833 0.79781 0.62474 0.0
H3810 H 0.70643 0.83301 0.61025 0.0
H3811 H 0.71331 0.82721 0.58962 0.0
H3812 H 0.7456 0.79577 0.60682 0.0
H3813 H 0.74433 0.7795 0.60396 0.0
H3814 H 0.73775 0.78584 0.61767 0.0
H3815 H 0.71646 0.77637 0.61182 0.0
H3816 H 0.72301 0.76999 0.5981 0.0
H3817 H 0.70977 0.77979 0.59697 0.0
H3818 H 0.72164 0.81842 0.57097 0.0
H3819 H 0.73161 0.8069 0.55461 0.0
H3820 H 0.73933 0.77728 0.58048 0.0
C3821 C 0.71698 0.80414 0.61714 0.0
C3822 C 0.71184 0.81588 0.61908 0.0
C3823 C 0.71039 0.82402 0.60897 0.0
C3824 C 0.71424 0.82081 0.59721 0.0
C3825 C 0.71947 0.80935 0.59562 0.0
C3826 C 0.72084 0.80107 0.60521 0.0
C3827 C 0.72721 0.78954 0.6008 0.0
C3828 C 0.73945 0.78755 0.60772 0.0
C3829 C 0.7186 0.77825 0.60199 0.0
C3830 C 0.72939 0.79285 0.58736 0.0
C3831 C 0.72468 0.80427 0.58464 0.0
C3832 C 0.72545 0.80948 0.57296 0.0
C3833 C 0.73128 0.80289 0.56375 0.0
C3834 C 0.73653 0.79127 0.56625 0.0
C3835 C 0.73542 0.78613 0.57823 0.0
H3836 H 0.72228 0.82418 0.41177 0.0
H3837 H 0.69767 0.79495 0.39905 0.0
H3838 H 0.70351 0.78236 0.417 0.0
H3839 H 0.74662 0.80421 0.42222 0.0
H3840 H 0.7506 0.81358 0.43533 0.0
H3841 H 0.74419 0.82057 0.42169 0.0
H3842 H 0.7268 0.82993 0.43477 0.0
H3843 H 0.73313 0.82288 0.44843 0.0
H3844 H 0.71726 0.81995 0.44415 0.0
H3845 H 0.71142 0.77315 0.43635 0.0
H3846 H 0.7218 0.76722 0.45552 0.0
H3847 H 0.74308 0.80144 0.45472 0.0
C3848 C 0.71818 0.8151 0.41265 0.0
C3849 C 0.7094 0.81064 0.40397 0.0
C3850 C 0.70418 0.79873 0.40566 0.0
C3851 C 0.70751 0.79145 0.41579 0.0
C3852 C 0.71616 0.79614 0.42411 0.0
C3853 C 0.72151 0.80763 0.42264 0.0
C3854 C 0.73074 0.81033 0.43287 0.0
C3855 C 0.74381 0.81228 0.42771 0.0
C3856 C 0.72674 0.82143 0.44051 0.0
C3857 C 0.72975 0.7985 0.44026 0.0
C3858 C 0.72118 0.79053 0.43509 0.0
C3859 C 0.71831 0.77922 0.4404 0.0
C3860 C 0.7244 0.77588 0.45126 0.0
C3861 C 0.73353 0.78369 0.45663 0.0
C3862 C 0.73615 0.79521 0.451 0.0
H3863 H 0.70347 0.19728 0.41751 0.0
H3864 H 0.71824 0.22137 0.38914 0.0
H3865 H 0.73078 0.23239 0.40474 0.0
H3866 H 0.70076 0.22048 0.44043 0.0
H3867 H 0.7051 0.21079 0.45321 0.0
H3868 H 0.69786 0.20413 0.43979 0.0
H3869 H 0.71625 0.1894 0.43741 0.0
H3870 H 0.72352 0.19601 0.45085 0.0
H3871 H 0.73172 0.19566 0.43647 0.0
H3872 H 0.74096 0.24129 0.42306 0.0
H3873 H 0.74844 0.24785 0.44346 0.0
H3874 H 0.727 0.21848 0.4606 0.0
C3875 C 0.70958 0.2047 0.41462 0.0
C3876 C 0.71014 0.20838 0.40213 0.0
C3877 C 0.7179 0.21835 0.39866 0.0
C3878 C 0.725 0.22466 0.40744 0.0
C3879 C 0.7242 0.22092 0.41969 0.0
C3880 C 0.71672 0.21119 0.42335 0.0
C3881 C 0.71725 0.20951 0.43725 0.0
C3882 C 0.70448 0.21134 0.443 0.0
C3883 C 0.7225 0.19689 0.4407 0.0
C3884 C 0.72615 0.21985 0.44076 0.0
C3885 C 0.73002 0.22626 0.43044 0.0
C3886 C 0.73802 0.23635 0.43122 0.0
C3887 C 0.74215 0.24005 0.44287 0.0
C3888 C 0.73824 0.23375 0.45364 0.0
C3889 C 0.73022 0.22342 0.45253 0.0
H3890 H 0.29918 0.22334 0.39994 0.0
H3891 H 0.32643 0.19886 0.41553 0.0
H3892 H 0.31999 0.20453 0.4365 0.0
H3893 H 0.30326 0.24727 0.42202 0.0
H3894 H 0.28718 0.25118 0.4228 0.0
H3895 H 0.29327 0.24472 0.40892 0.0
H3896 H 0.27679 0.22724 0.40977 0.0
H3897 H 0.27062 0.23372 0.42362 0.0
H3898 H 0.27544 0.21794 0.4235 0.0
H3899 H 0.31113 0.21282 0.45546 0.0
H3900 H 0.30025 0.22368 0.47193 0.0
H3901 H 0.27903 0.2436 0.44453 0.0
C3902 C 0.30356 0.21903 0.40782 0.0
C3903 C 0.31312 0.21049 0.40625 0.0
C3904 C 0.31895 0.20525 0.41666 0.0
C3905 C 0.3154 0.20845 0.42855 0.0
C3906 C 0.30605 0.21697 0.42985 0.0
C3907 C 0.30017 0.22221 0.41982 0.0
C3908 C 0.29066 0.23143 0.42394 0.0
C3909 C 0.29379 0.24442 0.41913 0.0
C3910 C 0.2776 0.22734 0.41997 0.0
C3911 C 0.29226 0.2306 0.43781 0.0
C3912 C 0.30111 0.2221 0.44096 0.0
C3913 C 0.30417 0.21949 0.45315 0.0
C3914 C 0.29794 0.22567 0.46242 0.0
C3915 C 0.28884 0.23442 0.45945 0.0
C3916 C 0.28603 0.237 0.44699 0.0
H3917 H 0.32205 0.80116 0.41128 0.0
H3918 H 0.29147 0.82361 0.39904 0.0
H3919 H 0.27899 0.81598 0.41641 0.0
H3920 H 0.30381 0.77489 0.42163 0.0
H3921 H 0.31338 0.77194 0.43493 0.0
H3922 H 0.31999 0.77899 0.42141 0.0
H3923 H 0.32795 0.79722 0.43462 0.0
H3924 H 0.32127 0.79027 0.44817 0.0
H3925 H 0.3172 0.80569 0.44375 0.0
H3926 H 0.27025 0.80713 0.43523 0.0
H3927 H 0.26482 0.79637 0.45426 0.0
H3928 H 0.30032 0.7781 0.45406 0.0
C3929 C 0.31269 0.80436 0.41224 0.0
C3930 C 0.30773 0.81306 0.40392 0.0
C3931 C 0.29549 0.81711 0.40546 0.0
C3932 C 0.28832 0.8128 0.41525 0.0
C3933 C 0.29352 0.80443 0.42341 0.0
C3934 C 0.30538 0.80016 0.42205 0.0
C3935 C 0.30866 0.79128 0.43236 0.0
C3936 C 0.31163 0.77852 0.42727 0.0
C3937 C 0.31941 0.79642 0.44019 0.0
C3938 C 0.29668 0.7911 0.43955 0.0
C3939 C 0.2882 0.79889 0.43425 0.0
C3940 C 0.27669 0.80079 0.43937 0.0
C3941 C 0.27364 0.79446 0.45016 0.0
C3942 C 0.28193 0.786 0.45565 0.0
C3943 C 0.29368 0.78443 0.45023 0.0
H3944 H 0.61045 0.22103 0.6968 0.0
H3945 H 0.62036 0.19488 0.7255 0.0
H3946 H 0.60252 0.20134 0.73763 0.0
H3947 H 0.60125 0.24517 0.71743 0.0
H3948 H 0.58871 0.25019 0.70773 0.0
H3949 H 0.60204 0.24326 0.70097 0.0
H3950 H 0.58788 0.22706 0.69037 0.0
H3951 H 0.57453 0.23391 0.69717 0.0
H3952 H 0.5775 0.21782 0.69958 0.0
H3953 H 0.58365 0.21012 0.74652 0.0
H3954 H 0.56523 0.22144 0.7523 0.0
H3955 H 0.56834 0.24349 0.71889 0.0
C3956 C 0.60897 0.21671 0.70568 0.0
C3957 C 0.61685 0.20731 0.71009 0.0
C3958 C 0.61438 0.20185 0.72172 0.0
C3959 C 0.6043 0.20554 0.72875 0.0
C3960 C 0.59679 0.21477 0.72412 0.0
C3961 C 0.59901 0.22036 0.7129 0.0
C3962 C 0.58955 0.23023 0.71022 0.0
C3963 C 0.59576 0.24297 0.70902 0.0
C3964 C 0.58191 0.22706 0.69865 0.0
C3965 C 0.58173 0.2293 0.72174 0.0
C3966 C 0.58605 0.22024 0.72954 0.0
C3967 C 0.58027 0.21737 0.74058 0.0
C3968 C 0.56984 0.224 0.74385 0.0
C3969 C 0.56536 0.23363 0.73624 0.0
C3970 C 0.57141 0.23621 0.72496 0.0
H3971 H 0.31079 0.10827 0.70248 0.0
H3972 H 0.31113 0.13129 0.73494 0.0
H3973 H 0.30072 0.1148 0.74676 0.0
H3974 H 0.28072 0.09292 0.70846 0.0
H3975 H 0.28575 0.07819 0.70307 0.0
H3976 H 0.29233 0.09213 0.69669 0.0
H3977 H 0.31424 0.08466 0.70244 0.0
H3978 H 0.30771 0.07073 0.70883 0.0
H3979 H 0.31761 0.08039 0.71816 0.0
H3980 H 0.29074 0.09623 0.75516 0.0
H3981 H 0.2824 0.07582 0.76029 0.0
H3982 H 0.28976 0.06365 0.72301 0.0
C3983 C 0.30841 0.10986 0.71199 0.0
C3984 C 0.3116 0.12106 0.71782 0.0
C3985 C 0.30866 0.12278 0.73035 0.0
C3986 C 0.30275 0.11349 0.73712 0.0
C3987 C 0.29987 0.1025 0.73122 0.0
C3988 C 0.30259 0.10057 0.71898 0.0
C3989 C 0.29901 0.08756 0.71521 0.0
C3990 C 0.28885 0.08771 0.70527 0.0
C3991 C 0.31032 0.08042 0.71091 0.0
C3992 C 0.29409 0.08252 0.72732 0.0
C3993 C 0.29453 0.0914 0.73633 0.0
C3994 C 0.29044 0.08913 0.74823 0.0
C3995 C 0.28585 0.07741 0.75108 0.0
C3996 C 0.28563 0.06793 0.74217 0.0
C3997 C 0.28972 0.07063 0.73006 0.0
H3998 H 0.4114 0.803 0.69865 0.0
H3999 H 0.39602 0.82379 0.72881 0.0
H4000 H 0.41342 0.81766 0.74205 0.0
H4001 H 0.42161 0.77742 0.71723 0.0
H4002 H 0.43548 0.77515 0.70851 0.0
H4003 H 0.42204 0.78149 0.70112 0.0
H4004 H 0.43499 0.80044 0.69411 0.0
H4005 H 0.44845 0.79414 0.70148 0.0
H4006 H 0.4434 0.80933 0.70542 0.0
H4007 H 0.43222 0.80943 0.7521 0.0
H4008 H 0.45137 0.79917 0.75855 0.0
H4009 H 0.4543 0.78283 0.72236 0.0
C4010 C 0.41159 0.80621 0.70806 0.0
C4011 C 0.40228 0.81399 0.71261 0.0
C4012 C 0.4031 0.81807 0.72496 0.0
C4013 C 0.4129 0.81454 0.73262 0.0
C4014 C 0.42182 0.80685 0.72785 0.0
C4015 C 0.42127 0.80268 0.71589 0.0
C4016 C 0.43204 0.79436 0.71314 0.0
C4017 C 0.42752 0.78134 0.70981 0.0
C4018 C 0.4402 0.7999 0.70293 0.0
C4019 C 0.43867 0.7945 0.72548 0.0
C4020 C 0.43263 0.80183 0.73378 0.0
C4021 C 0.43704 0.80365 0.7457 0.0
C4022 C 0.44794 0.79783 0.74926 0.0
C4023 C 0.4543 0.79025 0.74096 0.0
C4024 C 0.44955 0.7885 0.72893 0.0
H4025 H 0.70728 0.90162 0.73064 0.0
H4026 H 0.71904 0.90442 0.69253 0.0
H4027 H 0.72986 0.92389 0.69722 0.0
H4028 H 0.70107 0.93383 0.73434 0.0
H4029 H 0.7065 0.93434 0.75005 0.0
H4030 H 0.70008 0.92027 0.74393 0.0
H4031 H 0.72008 0.90885 0.74994 0.0
H4032 H 0.72654 0.92289 0.75607 0.0
H4033 H 0.73474 0.9146 0.74445 0.0
H4034 H 0.73934 0.94295 0.70579 0.0
H4035 H 0.7466 0.96088 0.71774 0.0
H4036 H 0.72784 0.94656 0.75006 0.0
C4037 C 0.71204 0.90633 0.72322 0.0
C4038 C 0.71233 0.90133 0.71119 0.0
C4039 C 0.71886 0.90781 0.70187 0.0
C4040 C 0.72495 0.91897 0.70441 0.0
C4041 C 0.72438 0.92362 0.7163 0.0
C4042 C 0.71806 0.91756 0.72556 0.0
C4043 C 0.71875 0.92472 0.73751 0.0
C4044 C 0.70583 0.92852 0.7417 0.0
C4045 C 0.72543 0.91732 0.74759 0.0
C4046 C 0.72641 0.93578 0.73346 0.0
C4047 C 0.72962 0.93487 0.72121 0.0
C4048 C 0.73688 0.94378 0.71539 0.0
C4049 C 0.741 0.95389 0.72225 0.0
C4050 C 0.73781 0.95507 0.7348 0.0
C4051 C 0.73034 0.94592 0.74045 0.0
H4052 H 0.61223 0.82203 0.30686 0.0
H4053 H 0.62853 0.78781 0.31911 0.0
H4054 H 0.61193 0.77613 0.30877 0.0
H4055 H 0.58101 0.8126 0.31099 0.0
H4056 H 0.57509 0.82027 0.29749 0.0
H4057 H 0.58869 0.8262 0.30512 0.0
H4058 H 0.60083 0.82501 0.28469 0.0
H4059 H 0.58722 0.8191 0.27701 0.0
H4060 H 0.60138 0.81062 0.27658 0.0
H4061 H 0.59329 0.76809 0.29879 0.0
H4062 H 0.57325 0.7639 0.28864 0.0
H4063 H 0.56867 0.80292 0.28197 0.0
C4064 C 0.61239 0.81209 0.30712 0.0
C4065 C 0.62162 0.8058 0.31383 0.0
C4066 C 0.62147 0.79279 0.31413 0.0
C4067 C 0.61212 0.78607 0.30825 0.0
C4068 C 0.60301 0.79248 0.30198 0.0
C4069 C 0.60304 0.80517 0.30126 0.0
C4070 C 0.59175 0.80962 0.29425 0.0
C4071 C 0.58366 0.81765 0.30245 0.0
C4072 C 0.59552 0.81649 0.28243 0.0
C4073 C 0.5854 0.79745 0.29134 0.0
C4074 C 0.59212 0.78772 0.29592 0.0
C4075 C 0.58799 0.77559 0.29501 0.0
C4076 C 0.57663 0.7733 0.28929 0.0
C4077 C 0.56958 0.78308 0.28451 0.0
C4078 C 0.57405 0.7953 0.28542 0.0
H4079 H 0.70529 0.1148 0.29926 0.0
H4080 H 0.72249 0.11397 0.33545 0.0
H4081 H 0.73331 0.09506 0.33004 0.0
H4082 H 0.70097 0.08172 0.29593 0.0
H4083 H 0.70485 0.08159 0.27981 0.0
H4084 H 0.69814 0.09507 0.28644 0.0
H4085 H 0.71666 0.10822 0.27867 0.0
H4086 H 0.72344 0.09474 0.27211 0.0
H4087 H 0.73212 0.10395 0.28295 0.0
H4088 H 0.74325 0.07751 0.32078 0.0
H4089 H 0.75075 0.06044 0.30863 0.0
H4090 H 0.72619 0.07081 0.27853 0.0
C4091 C 0.71122 0.1105 0.30604 0.0
C4092 C 0.71312 0.11584 0.31776 0.0
C4093 C 0.72102 0.11007 0.32639 0.0
C4094 C 0.72721 0.09934 0.32341 0.0
C4095 C 0.7254 0.09445 0.31175 0.0
C4096 C 0.71757 0.0997 0.30318 0.0
C4097 C 0.71758 0.09244 0.29126 0.0
C4098 C 0.70461 0.0874 0.28819 0.0
C4099 C 0.72276 0.10031 0.28062 0.0
C4100 C 0.72637 0.08218 0.29468 0.0
C4101 C 0.73089 0.08374 0.30647 0.0
C4102 C 0.73958 0.07597 0.31162 0.0
C4103 C 0.74367 0.06615 0.30463 0.0
C4104 C 0.7388 0.06383 0.29268 0.0
C4105 C 0.73012 0.07215 0.28761 0.0
H4106 H 0.40118 0.2256 0.31623 0.0
H4107 H 0.40322 0.18891 0.30095 0.0
H4108 H 0.42311 0.19424 0.29143 0.0
H4109 H 0.41422 0.24124 0.28995 0.0
H4110 H 0.42292 0.25242 0.29873 0.0
H4111 H 0.4089 0.24584 0.3049 0.0
H4112 H 0.42076 0.23874 0.32442 0.0
H4113 H 0.43478 0.24539 0.31832 0.0
H4114 H 0.43427 0.22941 0.32279 0.0
H4115 H 0.44135 0.20356 0.28212 0.0
H4116 H 0.45883 0.21589 0.27493 0.0
H4117 H 0.44688 0.24645 0.29746 0.0
C4118 C 0.40595 0.21869 0.31102 0.0
C4119 C 0.40065 0.20686 0.30923 0.0
C4120 C 0.40707 0.19806 0.3023 0.0
C4121 C 0.41837 0.20098 0.29686 0.0
C4122 C 0.4232 0.21275 0.29849 0.0
C4123 C 0.41735 0.22148 0.30547 0.0
C4124 C 0.4247 0.2335 0.30544 0.0
C4125 C 0.41724 0.24386 0.2994 0.0
C4126 C 0.42888 0.23696 0.31852 0.0
C4127 C 0.43558 0.23002 0.29747 0.0
C4128 C 0.43434 0.21806 0.29347 0.0
C4129 C 0.44265 0.21285 0.28545 0.0
C4130 C 0.4527 0.21996 0.28153 0.0
C4131 C 0.45469 0.23211 0.28592 0.0
C4132 C 0.44583 0.23722 0.29392 0.0
H4133 H 0.30159 0.90998 0.32074 0.0
H4134 H 0.32357 0.89858 0.28968 0.0
H4135 H 0.31598 0.91614 0.27752 0.0
H4136 H 0.27517 0.92093 0.30313 0.0
H4137 H 0.27268 0.93396 0.31294 0.0
H4138 H 0.2794 0.9202 0.3192 0.0
H4139 H 0.2982 0.93292 0.32706 0.0
H4140 H 0.29154 0.94671 0.32082 0.0
H4141 H 0.30685 0.94234 0.31637 0.0
H4142 H 0.30686 0.93479 0.26896 0.0
H4143 H 0.29636 0.95415 0.2641 0.0
H4144 H 0.28013 0.95407 0.30054 0.0
C4145 C 0.30466 0.91116 0.31133 0.0
C4146 C 0.31318 0.903 0.3061 0.0
C4147 C 0.31715 0.90484 0.29385 0.0
C4148 C 0.31285 0.91472 0.28687 0.0
C4149 C 0.30461 0.92269 0.2923 0.0
C4150 C 0.30052 0.92108 0.30423 0.0
C4151 C 0.29198 0.93136 0.30789 0.0
C4152 C 0.27904 0.92631 0.31096 0.0
C4153 C 0.29748 0.93877 0.31867 0.0
C4154 C 0.29188 0.93889 0.29609 0.0
C4155 C 0.29927 0.93368 0.28727 0.0
C4156 C 0.30102 0.93899 0.27574 0.0
C4157 C 0.29508 0.95 0.2731 0.0
C4158 C 0.28751 0.9556 0.28196 0.0
C4159 C 0.2858 0.94991 0.29357 0.0
H4160 H 0.69658 0.10319 0.70863 0.0
H4161 H 0.72545 0.13078 0.71419 0.0
H4162 H 0.73858 0.11515 0.72385 0.0
H4163 H 0.7012 0.08725 0.73751 0.0
H4164 H 0.69828 0.0722 0.73122 0.0
H4165 H 0.69107 0.08544 0.7244 0.0
H4166 H 0.70028 0.07993 0.70322 0.0
H4167 H 0.70749 0.06666 0.70999 0.0
H4168 H 0.71671 0.07795 0.70186 0.0
H4169 H 0.74829 0.09711 0.7337 0.0
H4170 H 0.75457 0.07728 0.74237 0.0
H4171 H 0.71985 0.0608 0.73011 0.0
C4172 C 0.70565 0.10598 0.7119 0.0
C4173 C 0.70998 0.11828 0.7105 0.0
C4174 C 0.72197 0.12143 0.71486 0.0
C4175 C 0.72948 0.11263 0.72049 0.0
C4176 C 0.7249 0.10068 0.72177 0.0
C4177 C 0.7133 0.09729 0.71758 0.0
C4178 C 0.71071 0.08375 0.72015 0.0
C4179 C 0.69966 0.08207 0.72883 0.0
C4180 C 0.70868 0.07665 0.70809 0.0
C4181 C 0.72268 0.08012 0.72644 0.0
C4182 C 0.73068 0.09008 0.72731 0.0
C4183 C 0.74219 0.08919 0.73294 0.0
C4184 C 0.74571 0.07781 0.73775 0.0
C4185 C 0.73785 0.06731 0.73677 0.0
C4186 C 0.72611 0.06858 0.73108 0.0
H4187 H 0.69827 0.9118 0.30502 0.0
H4188 H 0.72972 0.89354 0.32168 0.0
H4189 H 0.74329 0.91055 0.31481 0.0
H4190 H 0.71414 0.9225 0.27796 0.0
H4191 H 0.70612 0.93689 0.27724 0.0
H4192 H 0.6987 0.92354 0.2839 0.0
H4193 H 0.69498 0.93559 0.30401 0.0
H4194 H 0.70239 0.94897 0.29739 0.0
H4195 H 0.70788 0.94279 0.31182 0.0
H4196 H 0.75348 0.92929 0.30619 0.0
H4197 H 0.7598 0.94866 0.29592 0.0
H4198 H 0.72203 0.95429 0.2839 0.0
C4199 C 0.70802 0.91129 0.30717 0.0
C4200 C 0.71288 0.90129 0.31398 0.0
C4201 C 0.72569 0.90117 0.31672 0.0
C4202 C 0.73351 0.91074 0.31276 0.0
C4203 C 0.72841 0.92034 0.306 0.0
C4204 C 0.71599 0.9207 0.30318 0.0
C4205 C 0.71291 0.93204 0.29564 0.0
C4206 C 0.70766 0.92852 0.28293 0.0
C4207 C 0.70402 0.94034 0.30264 0.0
C4208 C 0.72561 0.93793 0.29459 0.0
C4209 C 0.73438 0.93107 0.30072 0.0
C4210 C 0.74672 0.93474 0.30132 0.0
C4211 C 0.75021 0.94574 0.29551 0.0
C4212 C 0.7414 0.95289 0.28913 0.0
C4213 C 0.72895 0.9489 0.28861 0.0
H4214 H 0.60377 0.20227 0.32184 0.0
H4215 H 0.63178 0.21762 0.29767 0.0
H4216 H 0.61612 0.23036 0.28738 0.0
H4217 H 0.57993 0.20013 0.29903 0.0
H4218 H 0.56756 0.20436 0.30911 0.0
H4219 H 0.58101 0.19694 0.31531 0.0
H4220 H 0.58442 0.21496 0.3305 0.0
H4221 H 0.57093 0.22238 0.32436 0.0
H4222 H 0.58556 0.23046 0.32462 0.0
H4223 H 0.59788 0.24114 0.27948 0.0
H4224 H 0.57744 0.24917 0.27383 0.0
H4225 H 0.56053 0.22652 0.30226 0.0
C4226 C 0.60658 0.2085 0.31454 0.0
C4227 C 0.61899 0.2091 0.31059 0.0
C4228 C 0.62233 0.21712 0.30083 0.0
C4229 C 0.61351 0.22438 0.29494 0.0
C4230 C 0.60135 0.22348 0.29887 0.0
C4231 C 0.5978 0.21577 0.30841 0.0
C4232 C 0.58394 0.21632 0.31038 0.0
C4233 C 0.57775 0.20368 0.30833 0.0
C4234 C 0.58104 0.22133 0.32323 0.0
C4235 C 0.58033 0.22541 0.30036 0.0
C4236 C 0.59058 0.2295 0.29397 0.0
C4237 C 0.58976 0.23803 0.28441 0.0
C4238 C 0.57814 0.24257 0.28129 0.0
C4239 C 0.56747 0.23848 0.28762 0.0
C4240 C 0.56857 0.22973 0.29724 0.0
H4241 H 0.31223 0.11971 0.29914 0.0
H4242 H 0.29896 0.11407 0.33639 0.0
H4243 H 0.28999 0.09408 0.33046 0.0
H4244 H 0.28587 0.1066 0.28401 0.0
H4245 H 0.29435 0.09923 0.27197 0.0
H4246 H 0.30052 0.11291 0.27911 0.0
H4247 H 0.3206 0.10141 0.28464 0.0
H4248 H 0.31447 0.0877 0.27749 0.0
H4249 H 0.31968 0.08723 0.29328 0.0
H4250 H 0.28134 0.07568 0.32075 0.0
H4251 H 0.27387 0.05882 0.30752 0.0
H4252 H 0.29269 0.07536 0.27627 0.0
C4253 C 0.30762 0.11412 0.30605 0.0
C4254 C 0.30624 0.11844 0.31823 0.0
C4255 C 0.30002 0.11098 0.327 0.0
C4256 C 0.29492 0.0996 0.32374 0.0
C4257 C 0.29616 0.09571 0.31166 0.0
C4258 C 0.30239 0.10263 0.30292 0.0
C4259 C 0.30192 0.09628 0.29048 0.0
C4260 C 0.29527 0.10423 0.28083 0.0
C4261 C 0.31494 0.09296 0.28622 0.0
C4262 C 0.29436 0.08483 0.29367 0.0
C4263 C 0.29117 0.08477 0.30596 0.0
C4264 C 0.28383 0.07554 0.31112 0.0
C4265 C 0.27958 0.06605 0.30353 0.0
C4266 C 0.28267 0.06584 0.29091 0.0
C4267 C 0.29028 0.07528 0.28593 0.0
H4268 H 0.40732 0.81804 0.29694 0.0
H4269 H 0.40387 0.79514 0.32964 0.0
H4270 H 0.42274 0.78422 0.32401 0.0
H4271 H 0.41823 0.79405 0.27713 0.0
H4272 H 0.42885 0.80387 0.26883 0.0
H4273 H 0.41511 0.8102 0.27537 0.0
H4274 H 0.42839 0.82612 0.28741 0.0
H4275 H 0.44216 0.81988 0.28083 0.0
H4276 H 0.44068 0.82085 0.29732 0.0
H4277 H 0.44109 0.77542 0.31493 0.0
H4278 H 0.45911 0.76934 0.30308 0.0
H4279 H 0.45177 0.79839 0.27643 0.0
C4280 C 0.41062 0.81077 0.30291 0.0
C4281 C 0.40414 0.80731 0.31366 0.0
C4282 C 0.40863 0.79775 0.32127 0.0
C4283 C 0.41935 0.79155 0.31818 0.0
C4284 C 0.42543 0.79503 0.30747 0.0
C4285 C 0.42132 0.80441 0.29993 0.0
C4286 C 0.42964 0.80608 0.28885 0.0
C4287 C 0.42253 0.80339 0.27683 0.0
C4288 C 0.43557 0.819 0.2886 0.0
C4289 C 0.43912 0.79628 0.29151 0.0
C4290 C 0.43638 0.79 0.30225 0.0
C4291 C 0.44347 0.78035 0.30658 0.0
C4292 C 0.45377 0.77705 0.29981 0.0
C4293 C 0.45707 0.78353 0.28893 0.0
C4294 C 0.44953 0.79322 0.28468 0.0
H4295 H 0.30661 0.89881 0.72632 0.0
H4296 H 0.31953 0.91318 0.69118 0.0
H4297 H 0.31149 0.93348 0.69638 0.0
H4298 H 0.27876 0.91616 0.72779 0.0
H4299 H 0.27988 0.91896 0.7441 0.0
H4300 H 0.28652 0.90535 0.73771 0.0
H4301 H 0.30773 0.9113 0.74727 0.0
H4302 H 0.30113 0.92494 0.75369 0.0
H4303 H 0.31446 0.92618 0.7439 0.0
H4304 H 0.3028 0.95221 0.70525 0.0
H4305 H 0.29306 0.9685 0.71711 0.0
H4306 H 0.28528 0.94241 0.74662 0.0
C4307 C 0.30782 0.90622 0.71972 0.0
C4308 C 0.31362 0.90426 0.70824 0.0
C4309 C 0.31488 0.91426 0.69989 0.0
C4310 C 0.31046 0.9259 0.70281 0.0
C4311 C 0.30487 0.92749 0.71416 0.0
C4312 C 0.30351 0.91797 0.72252 0.0
C4313 C 0.29709 0.92228 0.73409 0.0
C4314 C 0.28484 0.91527 0.73603 0.0
C4315 C 0.30561 0.9211 0.7454 0.0
C4316 C 0.29496 0.93567 0.7308 0.0
C4317 C 0.29963 0.93843 0.7193 0.0
C4318 C 0.29899 0.95015 0.71422 0.0
C4319 C 0.29332 0.95933 0.72102 0.0
C4320 C 0.28815 0.95674 0.73273 0.0
C4321 C 0.28913 0.94473 0.73772 0.0
H4322 H 0.61724 0.81607 0.7251 0.0
H4323 H 0.61694 0.79505 0.69126 0.0
H4324 H 0.59713 0.78544 0.69705 0.0
H4325 H 0.60477 0.79213 0.74422 0.0
H4326 H 0.59538 0.80205 0.75339 0.0
H4327 H 0.60929 0.80798 0.74642 0.0
H4328 H 0.59676 0.82514 0.73568 0.0
H4329 H 0.58282 0.81923 0.74263 0.0
H4330 H 0.58368 0.82102 0.72616 0.0
H4331 H 0.57815 0.77752 0.70634 0.0
H4332 H 0.56037 0.77142 0.71898 0.0
H4333 H 0.57234 0.79697 0.74738 0.0
C4334 C 0.61287 0.80957 0.71888 0.0
C4335 C 0.61863 0.80624 0.70775 0.0
C4336 C 0.61273 0.79763 0.69987 0.0
C4337 C 0.60146 0.79215 0.70305 0.0
C4338 C 0.59613 0.79541 0.71413 0.0
C4339 C 0.60154 0.80391 0.72196 0.0
C4340 C 0.59387 0.80531 0.73353 0.0
C4341 C 0.60127 0.80165 0.74507 0.0
C4342 C 0.58899 0.81846 0.73456 0.0
C4343 C 0.58344 0.79616 0.73096 0.0
C4344 C 0.58498 0.79065 0.71967 0.0
C4345 C 0.57681 0.78174 0.71522 0.0
C4346 C 0.5668 0.77827 0.72252 0.0
C4347 C 0.56504 0.78358 0.73424 0.0
C4348 C 0.57342 0.79278 0.73844 0.0
H4349 H 0.41199 0.21571 0.6982 0.0
H4350 H 0.3892 0.21134 0.73074 0.0
H4351 H 0.40612 0.21985 0.7435 0.0
H4352 H 0.44082 0.208 0.71219 0.0
H4353 H 0.44961 0.21937 0.70372 0.0
H4354 H 0.43575 0.21284 0.69711 0.0
H4355 H 0.42691 0.23468 0.69414 0.0
H4356 H 0.44076 0.24126 0.70077 0.0
H4357 H 0.42594 0.24476 0.7072 0.0
H4358 H 0.42496 0.22965 0.75258 0.0
H4359 H 0.44506 0.23898 0.75773 0.0
H4360 H 0.45607 0.23615 0.71942 0.0
C4361 C 0.4105 0.2166 0.708 0.0
C4362 C 0.39923 0.2128 0.71345 0.0
C4363 C 0.39778 0.21398 0.72635 0.0
C4364 C 0.4073 0.21892 0.73367 0.0
C4365 C 0.4182 0.22267 0.72796 0.0
C4366 C 0.41988 0.22155 0.71544 0.0
C4367 C 0.43253 0.22626 0.71164 0.0
C4368 C 0.44013 0.216 0.70583 0.0
C4369 C 0.43147 0.2374 0.70292 0.0
C4370 C 0.43775 0.23003 0.72404 0.0
C4371 C 0.42926 0.22803 0.73329 0.0
C4372 C 0.43177 0.23111 0.74545 0.0
C4373 C 0.44332 0.2363 0.7483 0.0
C4374 C 0.45238 0.23814 0.73906 0.0
C4375 C 0.44943 0.23498 0.72675 0.0
H4376 H 0.69979 0.71598 0.11164 0.0
H4377 H 0.73115 0.69503 0.12459 0.0
H4378 H 0.74373 0.70335 0.10764 0.0
H4379 H 0.70547 0.71175 0.07947 0.0
H4380 H 0.70092 0.72697 0.07483 0.0
H4381 H 0.6943 0.71994 0.08836 0.0
H4382 H 0.70146 0.73861 0.1014 0.0
H4383 H 0.70809 0.74569 0.08789 0.0
H4384 H 0.71751 0.7432 0.10139 0.0
H4385 H 0.75273 0.71279 0.0892 0.0
H4386 H 0.75803 0.72352 0.06989 0.0
H4387 H 0.7213 0.73887 0.06822 0.0
C4388 C 0.70936 0.71334 0.11097 0.0
C4389 C 0.71451 0.70482 0.11941 0.0
C4390 C 0.72701 0.70144 0.11817 0.0
C4391 C 0.73424 0.70614 0.1086 0.0
C4392 C 0.72889 0.71429 0.10031 0.0
C4393 C 0.71678 0.71794 0.10135 0.0
C4394 C 0.71336 0.72654 0.09081 0.0
C4395 C 0.70289 0.72096 0.0829 0.0
C4396 C 0.7099 0.73927 0.09567 0.0
C4397 C 0.72544 0.72709 0.08378 0.0
C4398 C 0.73422 0.7199 0.08948 0.0
C4399 C 0.74598 0.7185 0.08466 0.0
C4400 C 0.74888 0.72458 0.07367 0.0
C4401 C 0.74009 0.73198 0.06758 0.0
C4402 C 0.72823 0.73335 0.07277 0.0
H4403 H 0.30035 0.70065 0.11483 0.0
H4404 H 0.32178 0.73078 0.13068 0.0
H4405 H 0.31681 0.74365 0.11265 0.0
H4406 H 0.30796 0.70663 0.08312 0.0
H4407 H 0.29274 0.70283 0.07738 0.0
H4408 H 0.2984 0.69562 0.09125 0.0
H4409 H 0.27931 0.70315 0.10315 0.0
H4410 H 0.27357 0.71027 0.08929 0.0
H4411 H 0.27574 0.71929 0.10302 0.0
H4412 H 0.31016 0.75304 0.09282 0.0
H4413 H 0.30101 0.75908 0.07312 0.0
H4414 H 0.2815 0.72384 0.07136 0.0
C4415 C 0.30393 0.70998 0.11462 0.0
C4416 C 0.31158 0.71461 0.12423 0.0
C4417 C 0.31617 0.72686 0.12338 0.0
C4418 C 0.31332 0.7343 0.1132 0.0
C4419 C 0.30578 0.72943 0.10398 0.0
C4420 C 0.30104 0.7176 0.10462 0.0
C4421 C 0.29289 0.71476 0.09355 0.0
C4422 C 0.29832 0.70434 0.08587 0.0
C4423 C 0.27959 0.71169 0.0975 0.0
C4424 C 0.29365 0.72693 0.08672 0.0
C4425 C 0.30131 0.73515 0.09281 0.0
C4426 C 0.30393 0.74678 0.08808 0.0
C4427 C 0.2985 0.75018 0.07688 0.0
C4428 C 0.29016 0.74214 0.07061 0.0
C4429 C 0.28781 0.7303 0.0757 0.0
H4430 H 0.30856 0.2968 0.12201 0.0
H4431 H 0.31318 0.334 0.10804 0.0
H4432 H 0.30584 0.32734 0.08759 0.0
H4433 H 0.31772 0.28098 0.09381 0.0
H4434 H 0.30627 0.26891 0.09539 0.0
H4435 H 0.31252 0.27634 0.10889 0.0
H4436 H 0.29042 0.28176 0.11577 0.0
H4437 H 0.28412 0.27439 0.10226 0.0
H4438 H 0.28054 0.29019 0.10541 0.0
H4439 H 0.29747 0.31723 0.06904 0.0
H4440 H 0.2885 0.30379 0.05294 0.0
H4441 H 0.2888 0.27294 0.07835 0.0
C4442 C 0.30822 0.30344 0.11454 0.0
C4443 C 0.31152 0.31591 0.11652 0.0
C4444 C 0.31073 0.32442 0.10666 0.0
C4445 C 0.30657 0.32073 0.09503 0.0
C4446 C 0.30319 0.30847 0.09338 0.0
C4447 C 0.30396 0.29991 0.10281 0.0
C4448 C 0.29927 0.2874 0.09851 0.0
C4449 C 0.30956 0.27784 0.09919 0.0
C4450 C 0.28791 0.28319 0.10593 0.0
C4451 C 0.29579 0.29034 0.08525 0.0
C4452 C 0.29816 0.30257 0.08255 0.0
C4453 C 0.29561 0.30763 0.07101 0.0
C4454 C 0.29051 0.29997 0.06195 0.0
C4455 C 0.28803 0.28745 0.06449 0.0
C4456 C 0.29069 0.28253 0.07626 0.0
H4457 H 0.70903 0.32221 0.10686 0.0
H4458 H 0.72067 0.29608 0.1349 0.0
H4459 H 0.73105 0.284 0.11906 0.0
H4460 H 0.70343 0.30039 0.08279 0.0
H4461 H 0.7094 0.31019 0.07072 0.0
H4462 H 0.70271 0.31687 0.08421 0.0
H4463 H 0.72285 0.32943 0.08805 0.0
H4464 H 0.72959 0.32277 0.07456 0.0
H4465 H 0.73733 0.32154 0.08925 0.0
H4466 H 0.7404 0.27487 0.10058 0.0
H4467 H 0.74787 0.26883 0.0802 0.0
H4468 H 0.73037 0.30073 0.06382 0.0
C4469 C 0.71381 0.31399 0.10971 0.0
C4470 C 0.71388 0.31007 0.12218 0.0
C4471 C 0.72018 0.29917 0.12542 0.0
C4472 C 0.72624 0.29229 0.1165 0.0
C4473 C 0.72601 0.29644 0.10436 0.0
C4474 C 0.71998 0.30702 0.10092 0.0
C4475 C 0.72115 0.30936 0.08718 0.0
C4476 C 0.70842 0.30919 0.08085 0.0
C4477 C 0.72815 0.32149 0.08461 0.0
C4478 C 0.72872 0.29837 0.08347 0.0
C4479 C 0.73144 0.2911 0.09357 0.0
C4480 C 0.73829 0.28045 0.09258 0.0
C4481 C 0.74241 0.27705 0.08094 0.0
C4482 C 0.73959 0.28421 0.07037 0.0
C4483 C 0.73274 0.29509 0.07172 0.0
H4484 H 0.70827 0.29801 0.90515 0.0
H4485 H 0.72793 0.33302 0.9039 0.0
H4486 H 0.73864 0.32791 0.92326 0.0
H4487 H 0.70423 0.29658 0.93836 0.0
H4488 H 0.70697 0.28031 0.93949 0.0
H4489 H 0.70053 0.28668 0.92556 0.0
H4490 H 0.71824 0.27716 0.91303 0.0
H4491 H 0.72477 0.27086 0.92696 0.0
H4492 H 0.73403 0.28067 0.91718 0.0
H4493 H 0.74805 0.319 0.94163 0.0
H4494 H 0.75488 0.3072 0.95955 0.0
H4495 H 0.72837 0.27816 0.95043 0.0
C4496 C 0.71473 0.3046 0.90908 0.0
C4497 C 0.71735 0.31589 0.90304 0.0
C4498 C 0.72591 0.32429 0.90834 0.0
C4499 C 0.73203 0.32148 0.91932 0.0
C4500 C 0.72948 0.31023 0.92492 0.0
C4501 C 0.72102 0.30191 0.9201 0.0
C4502 C 0.7203 0.29039 0.92806 0.0
C4503 C 0.70723 0.28838 0.93317 0.0
C4504 C 0.72459 0.27911 0.92087 0.0
C4505 C 0.72946 0.29375 0.93818 0.0
C4506 C 0.73474 0.30516 0.936 0.0
C4507 C 0.74382 0.31014 0.94361 0.0
C4508 C 0.74754 0.30337 0.9539 0.0
C4509 C 0.74195 0.29184 0.95676 0.0
C4510 C 0.73286 0.28693 0.94863 0.0
H4511 H 0.7034 0.69793 0.91805 0.0
H4512 H 0.7191 0.72071 0.88912 0.0
H4513 H 0.73143 0.7322 0.90457 0.0
H4514 H 0.70052 0.72165 0.94019 0.0
H4515 H 0.70466 0.71232 0.95331 0.0
H4516 H 0.69762 0.70529 0.93999 0.0
H4517 H 0.71604 0.69048 0.93831 0.0
H4518 H 0.72311 0.69746 0.95166 0.0
H4519 H 0.73152 0.6967 0.93743 0.0
H4520 H 0.74115 0.74183 0.92285 0.0
H4521 H 0.74822 0.74903 0.94318 0.0
H4522 H 0.72636 0.72025 0.96079 0.0
C4523 C 0.70967 0.70516 0.91502 0.0
C4524 C 0.71057 0.70834 0.90242 0.0
C4525 C 0.71853 0.71805 0.89873 0.0
C4526 C 0.7255 0.72464 0.90743 0.0
C4527 C 0.7244 0.72138 0.91979 0.0
C4528 C 0.71675 0.71185 0.92364 0.0
C4529 C 0.71705 0.71058 0.93758 0.0
C4530 C 0.7042 0.71258 0.94309 0.0
C4531 C 0.72224 0.69806 0.94147 0.0
C4532 C 0.72592 0.721 0.94092 0.0
C4533 C 0.73003 0.72705 0.93048 0.0
C4534 C 0.73803 0.73715 0.9311 0.0
C4535 C 0.74192 0.74123 0.9427 0.0
C4536 C 0.7378 0.73527 0.95358 0.0
C4537 C 0.72976 0.72493 0.95264 0.0
H4538 H 0.31219 0.72934 0.90388 0.0
H4539 H 0.30635 0.69016 0.90995 0.0
H4540 H 0.29674 0.6945 0.92987 0.0
H4541 H 0.32002 0.73649 0.9356 0.0
H4542 H 0.31237 0.75109 0.93539 0.0
H4543 H 0.31872 0.74507 0.92142 0.0
H4544 H 0.29738 0.74684 0.91071 0.0
H4545 H 0.291 0.75288 0.92465 0.0
H4546 H 0.28408 0.73948 0.91759 0.0
H4547 H 0.28881 0.70268 0.94938 0.0
H4548 H 0.28162 0.71431 0.96707 0.0
H4549 H 0.29143 0.7485 0.94831 0.0
C4550 C 0.30895 0.72165 0.90941 0.0
C4551 C 0.30999 0.70937 0.90522 0.0
C4552 C 0.30548 0.69964 0.91275 0.0
C4553 C 0.30011 0.702 0.92417 0.0
C4554 C 0.29933 0.71414 0.92801 0.0
C4555 C 0.30357 0.72383 0.92088 0.0
C4556 C 0.30152 0.73602 0.92726 0.0
C4557 C 0.31389 0.74255 0.93008 0.0
C4558 C 0.29298 0.74429 0.91959 0.0
C4559 C 0.29531 0.73161 0.939 0.0
C4560 C 0.29432 0.71895 0.93925 0.0
C4561 C 0.28933 0.71262 0.94922 0.0
C4562 C 0.28511 0.71938 0.95921 0.0
C4563 C 0.28559 0.73243 0.95911 0.0
C4564 C 0.29088 0.73858 0.94882 0.0
H4565 H 0.30405 0.322 0.91164 0.0
H4566 H 0.31966 0.29036 0.89346 0.0
H4567 H 0.31306 0.27719 0.91077 0.0
H4568 H 0.31156 0.31322 0.94262 0.0
H4569 H 0.29735 0.31864 0.94902 0.0
H4570 H 0.30357 0.32578 0.93537 0.0
H4571 H 0.28301 0.3215 0.92377 0.0
H4572 H 0.27672 0.31436 0.93741 0.0
H4573 H 0.27691 0.30601 0.92313 0.0
H4574 H 0.30513 0.26739 0.93004 0.0
H4575 H 0.29564 0.26145 0.94984 0.0
H4576 H 0.28389 0.29899 0.95509 0.0
C4577 C 0.306 0.31229 0.91117 0.0
C4578 C 0.31252 0.30732 0.90109 0.0
C4579 C 0.31498 0.29454 0.9011 0.0
C4580 C 0.31115 0.28693 0.91087 0.0
C4581 C 0.30475 0.29213 0.92056 0.0
C4582 C 0.30211 0.3045 0.92078 0.0
C4583 C 0.29495 0.30771 0.93228 0.0
C4584 C 0.3023 0.31688 0.94029 0.0
C4585 C 0.28214 0.31269 0.92894 0.0
C4586 C 0.29398 0.2952 0.93846 0.0
C4587 C 0.2998 0.28638 0.93157 0.0
C4588 C 0.30049 0.2742 0.93549 0.0
C4589 C 0.29512 0.27092 0.94676 0.0
C4590 C 0.28903 0.27974 0.95396 0.0
C4591 C 0.28839 0.29203 0.9497 0.0
H4592 H 0.62288 0.72266 0.21895 0.0
H4593 H 0.60577 0.69414 0.19651 0.0
H4594 H 0.58526 0.7007 0.20323 0.0
H4595 H 0.60146 0.72045 0.2443 0.0
H4596 H 0.60133 0.73677 0.24703 0.0
H4597 H 0.61483 0.7298 0.24066 0.0
H4598 H 0.61399 0.7448 0.22207 0.0
H4599 H 0.6005 0.75182 0.2284 0.0
H4600 H 0.60003 0.74573 0.21301 0.0
H4601 H 0.56672 0.71065 0.2114 0.0
H4602 H 0.5509 0.72308 0.22153 0.0
H4603 H 0.57962 0.74502 0.23915 0.0
C4604 C 0.61482 0.71779 0.21547 0.0
C4605 C 0.61597 0.70778 0.2073 0.0
C4606 C 0.60517 0.70164 0.20298 0.0
C4607 C 0.59346 0.70537 0.20665 0.0
C4608 C 0.59267 0.71524 0.21466 0.0
C4609 C 0.60301 0.72137 0.21908 0.0
C4610 C 0.59947 0.73172 0.22762 0.0
C4611 C 0.60458 0.72955 0.24068 0.0
C4612 C 0.60375 0.74425 0.22246 0.0
C4613 C 0.58553 0.73042 0.22725 0.0
C4614 C 0.58184 0.7209 0.21963 0.0
C4615 C 0.56946 0.71809 0.21744 0.0
C4616 C 0.56057 0.72521 0.22318 0.0
C4617 C 0.5641 0.73495 0.23107 0.0
C4618 C 0.57673 0.73754 0.23321 0.0
H4619 H 0.3078 0.62167 0.23131 0.0
H4620 H 0.31018 0.61346 0.1923 0.0
H4621 H 0.30097 0.59301 0.19615 0.0
H4622 H 0.31587 0.59126 0.24199 0.0
H4623 H 0.30546 0.5914 0.25486 0.0
H4624 H 0.31203 0.6056 0.24915 0.0
H4625 H 0.2901 0.61438 0.24614 0.0
H4626 H 0.28349 0.60021 0.25189 0.0
H4627 H 0.27893 0.606 0.23698 0.0
H4628 H 0.29268 0.57324 0.20411 0.0
H4629 H 0.28446 0.5555 0.21552 0.0
H4630 H 0.28632 0.57659 0.24942 0.0
C4631 C 0.30643 0.61557 0.22357 0.0
C4632 C 0.30966 0.61927 0.21146 0.0
C4633 C 0.30757 0.611 0.20161 0.0
C4634 C 0.30246 0.5993 0.20371 0.0
C4635 C 0.29949 0.59595 0.21573 0.0
C4636 C 0.30133 0.60382 0.2255 0.0
C4637 C 0.29731 0.59784 0.23751 0.0
C4638 C 0.30832 0.59644 0.2464 0.0
C4639 C 0.28683 0.60503 0.24348 0.0
C4640 C 0.2928 0.58543 0.23288 0.0
C4641 C 0.2943 0.58453 0.22031 0.0
C4642 C 0.29126 0.57388 0.21393 0.0
C4643 C 0.28643 0.56387 0.22053 0.0
C4644 C 0.28439 0.5646 0.2334 0.0
C4645 C 0.28773 0.57559 0.23962 0.0
H4646 H 0.39864 0.29798 0.21847 0.0
H4647 H 0.41447 0.33016 0.20029 0.0
H4648 H 0.43497 0.32476 0.20829 0.0
H4649 H 0.41779 0.29919 0.24566 0.0
H4650 H 0.4194 0.28276 0.24694 0.0
H4651 H 0.40577 0.28909 0.2399 0.0
H4652 H 0.40964 0.27638 0.22025 0.0
H4653 H 0.42328 0.27003 0.22724 0.0
H4654 H 0.42429 0.27779 0.21256 0.0
H4655 H 0.45367 0.31607 0.21777 0.0
H4656 H 0.46979 0.30471 0.22883 0.0
H4657 H 0.44239 0.27787 0.24108 0.0
C4658 C 0.40642 0.30387 0.21612 0.0
C4659 C 0.40483 0.31462 0.20883 0.0
C4660 C 0.4153 0.32207 0.20608 0.0
C4661 C 0.42704 0.31901 0.21047 0.0
C4662 C 0.42825 0.30841 0.21758 0.0
C4663 C 0.41827 0.30092 0.22041 0.0
C4664 C 0.42224 0.29008 0.22833 0.0
C4665 C 0.41592 0.2903 0.24096 0.0
C4666 C 0.41971 0.27785 0.2217 0.0
C4667 C 0.436 0.29271 0.22948 0.0
C4668 C 0.4392 0.30333 0.22316 0.0
C4669 C 0.45128 0.30777 0.22282 0.0
C4670 C 0.46036 0.30128 0.22921 0.0
C4671 C 0.45736 0.29048 0.23597 0.0
C4672 C 0.445 0.28607 0.23597 0.0
H4673 H 0.70636 0.41385 0.20307 0.0
H4674 H 0.71647 0.38772 0.23158 0.0
H4675 H 0.72746 0.40416 0.24293 0.0
H4676 H 0.73498 0.43243 0.20426 0.0
H4677 H 0.72715 0.44678 0.202 0.0
H4678 H 0.72076 0.43283 0.19557 0.0
H4679 H 0.70021 0.43663 0.2069 0.0
H4680 H 0.70657 0.45054 0.21341 0.0
H4681 H 0.70037 0.43869 0.22335 0.0
H4682 H 0.73714 0.42303 0.25129 0.0
H4683 H 0.7445 0.44393 0.25671 0.0
H4684 H 0.72733 0.45847 0.22364 0.0
C4685 C 0.71112 0.41161 0.21158 0.0
C4686 C 0.71075 0.39953 0.21642 0.0
C4687 C 0.71678 0.39693 0.22772 0.0
C4688 C 0.72302 0.40618 0.23422 0.0
C4689 C 0.72309 0.41803 0.22933 0.0
C4690 C 0.71731 0.42083 0.21831 0.0
C4691 C 0.71841 0.4345 0.21549 0.0
C4692 C 0.72576 0.43677 0.20363 0.0
C4693 C 0.70563 0.44043 0.21475 0.0
C4694 C 0.72559 0.43887 0.22672 0.0
C4695 C 0.72831 0.42915 0.23448 0.0
C4696 C 0.73506 0.43073 0.24532 0.0
C4697 C 0.7392 0.44258 0.24832 0.0
C4698 C 0.73642 0.45267 0.2406 0.0
C4699 C 0.72948 0.45083 0.2297 0.0
H4700 H 0.6138 0.32076 0.80308 0.0
H4701 H 0.62509 0.28779 0.82256 0.0
H4702 H 0.60791 0.27619 0.81309 0.0
H4703 H 0.58144 0.3155 0.80625 0.0
H4704 H 0.5773 0.32121 0.7912 0.0
H4705 H 0.59099 0.32699 0.79881 0.0
H4706 H 0.60413 0.32091 0.78002 0.0
H4707 H 0.59045 0.31513 0.77235 0.0
H4708 H 0.60353 0.30529 0.77459 0.0
H4709 H 0.58932 0.26836 0.80292 0.0
H4710 H 0.56972 0.26443 0.79192 0.0
H4711 H 0.56991 0.30205 0.77845 0.0
C4712 C 0.61273 0.31106 0.80514 0.0
C4713 C 0.62072 0.30515 0.81358 0.0
C4714 C 0.61898 0.29249 0.81621 0.0
C4715 C 0.6093 0.28581 0.81085 0.0
C4716 C 0.60144 0.29189 0.80279 0.0
C4717 C 0.603 0.3042 0.79986 0.0
C4718 C 0.59278 0.30847 0.79127 0.0
C4719 C 0.58518 0.31865 0.79724 0.0
C4720 C 0.59804 0.3127 0.77882 0.0
C4721 C 0.58527 0.29665 0.78998 0.0
C4722 C 0.59051 0.28725 0.79672 0.0
C4723 C 0.58514 0.27559 0.79751 0.0
C4724 C 0.57403 0.27346 0.79128 0.0
C4725 C 0.56841 0.28293 0.78437 0.0
C4726 C 0.57416 0.29464 0.78357 0.0
H4727 H 0.70234 0.61298 0.80034 0.0
H4728 H 0.72732 0.61762 0.83142 0.0
H4729 H 0.73853 0.59918 0.8253 0.0
H4730 H 0.70099 0.57947 0.80126 0.0
H4731 H 0.70091 0.57778 0.78476 0.0
H4732 H 0.69451 0.5913 0.7916 0.0
H4733 H 0.70905 0.60501 0.77836 0.0
H4734 H 0.71553 0.59151 0.77155 0.0
H4735 H 0.72547 0.60262 0.77906 0.0
H4736 H 0.74747 0.58104 0.81593 0.0
H4737 H 0.75345 0.56304 0.80401 0.0
H4738 H 0.72267 0.56902 0.7789 0.0
C4739 C 0.7101 0.61001 0.80587 0.0
C4740 C 0.71404 0.61679 0.81631 0.0
C4741 C 0.72427 0.61267 0.82331 0.0
C4742 C 0.73068 0.60219 0.81993 0.0
C4743 C 0.72677 0.59586 0.80951 0.0
C4744 C 0.71672 0.5995 0.80257 0.0
C4745 C 0.71471 0.59095 0.79169 0.0
C4746 C 0.70203 0.58449 0.79238 0.0
C4747 C 0.71628 0.59794 0.77944 0.0
C4748 C 0.72513 0.58194 0.79375 0.0
C4749 C 0.73195 0.58506 0.80407 0.0
C4750 C 0.74214 0.57838 0.80789 0.0
C4751 C 0.74539 0.5681 0.80109 0.0
C4752 C 0.73841 0.56441 0.79063 0.0
C4753 C 0.72821 0.57156 0.78684 0.0
H4754 H 0.40032 0.70798 0.79496 0.0
H4755 H 0.40386 0.71843 0.8334 0.0
H4756 H 0.42327 0.72942 0.8287 0.0
H4757 H 0.43265 0.7021 0.7904 0.0
H4758 H 0.43283 0.70804 0.77488 0.0
H4759 H 0.41886 0.70136 0.78104 0.0
H4760 H 0.40718 0.72139 0.77596 0.0
H4761 H 0.42112 0.72812 0.76978 0.0
H4762 H 0.41298 0.73583 0.78184 0.0
H4763 H 0.44214 0.73933 0.82008 0.0
H4764 H 0.45985 0.7471 0.80804 0.0
H4765 H 0.44502 0.72934 0.77538 0.0
C4766 C 0.40518 0.71248 0.80245 0.0
C4767 C 0.40038 0.71237 0.81458 0.0
C4768 C 0.40708 0.71857 0.82399 0.0
C4769 C 0.4182 0.72476 0.82144 0.0
C4770 C 0.42264 0.72462 0.80945 0.0
C4771 C 0.4164 0.7186 0.80009 0.0
C4772 C 0.42335 0.71975 0.78803 0.0
C4773 C 0.42715 0.70706 0.78331 0.0
C4774 C 0.4157 0.72669 0.77833 0.0
C4775 C 0.4345 0.7273 0.79212 0.0
C4776 C 0.43381 0.73008 0.8045 0.0
C4777 C 0.44281 0.73719 0.81039 0.0
C4778 C 0.45279 0.74161 0.80348 0.0
C4779 C 0.45377 0.73884 0.79081 0.0
C4780 C 0.44453 0.73151 0.78508 0.0
H4781 H 0.30807 0.39988 0.79388 0.0
H4782 H 0.311 0.40939 0.83262 0.0
H4783 H 0.30127 0.42923 0.82819 0.0
H4784 H 0.31588 0.42991 0.78221 0.0
H4785 H 0.30528 0.42905 0.76938 0.0
H4786 H 0.31185 0.41521 0.7756 0.0
H4787 H 0.28989 0.40611 0.77893 0.0
H4788 H 0.28326 0.41995 0.77274 0.0
H4789 H 0.27892 0.41455 0.78785 0.0
H4790 H 0.29153 0.44815 0.81974 0.0
H4791 H 0.28278 0.46525 0.8075 0.0
H4792 H 0.28725 0.44424 0.77411 0.0
C4793 C 0.30676 0.40612 0.80146 0.0
C4794 C 0.31027 0.4029 0.81366 0.0
C4795 C 0.30817 0.41139 0.82326 0.0
C4796 C 0.30274 0.42278 0.82082 0.0
C4797 C 0.29951 0.42564 0.80873 0.0
C4798 C 0.30146 0.4176 0.79918 0.0
C4799 C 0.29735 0.4231 0.78697 0.0
C4800 C 0.30824 0.42439 0.77802 0.0
C4801 C 0.28673 0.41547 0.78129 0.0
C4802 C 0.29295 0.43555 0.79115 0.0
C4803 C 0.29416 0.43675 0.80377 0.0
C4804 C 0.29056 0.44734 0.80986 0.0
C4805 C 0.28562 0.45697 0.80287 0.0
C4806 C 0.28444 0.45598 0.78996 0.0
C4807 C 0.28815 0.44517 0.784 0.0
H4808 H 0.70163 0.615 0.22702 0.0
H4809 H 0.71732 0.61504 0.19029 0.0
H4810 H 0.72895 0.59646 0.19559 0.0
H4811 H 0.7284 0.60427 0.24321 0.0
H4812 H 0.71982 0.59465 0.25377 0.0
H4813 H 0.71286 0.6082 0.24732 0.0
H4814 H 0.69456 0.59498 0.23909 0.0
H4815 H 0.70146 0.58141 0.24555 0.0
H4816 H 0.69759 0.58199 0.22939 0.0
H4817 H 0.73895 0.57805 0.20464 0.0
H4818 H 0.74641 0.56047 0.21686 0.0
H4819 H 0.72367 0.57156 0.24749 0.0
C4820 C 0.7074 0.61107 0.22001 0.0
C4821 C 0.70857 0.61665 0.20822 0.0
C4822 C 0.71642 0.6112 0.19946 0.0
C4823 C 0.723 0.60056 0.20234 0.0
C4824 C 0.7216 0.59534 0.21399 0.0
C4825 C 0.71396 0.60035 0.22269 0.0
C4826 C 0.71406 0.5928 0.2345 0.0
C4827 C 0.71909 0.60044 0.24534 0.0
C4828 C 0.70115 0.58748 0.23729 0.0
C4829 C 0.72294 0.58276 0.23103 0.0
C4830 C 0.72721 0.58448 0.21918 0.0
C4831 C 0.73567 0.57659 0.21393 0.0
C4832 C 0.7399 0.56667 0.22097 0.0
C4833 C 0.73566 0.56467 0.23313 0.0
C4834 C 0.727 0.57281 0.23818 0.0
H4835 H 0.71642 0.39784 0.79653 0.0
H4836 H 0.70418 0.41126 0.83194 0.0
H4837 H 0.7129 0.4317 0.82703 0.0
H4838 H 0.74495 0.41527 0.79532 0.0
H4839 H 0.74386 0.41834 0.77903 0.0
H4840 H 0.73693 0.40457 0.78537 0.0
H4841 H 0.71584 0.41055 0.77586 0.0
H4842 H 0.72271 0.42435 0.76952 0.0
H4843 H 0.70943 0.42532 0.77934 0.0
H4844 H 0.72204 0.45072 0.81821 0.0
H4845 H 0.73194 0.4673 0.80626 0.0
H4846 H 0.73869 0.44177 0.77651 0.0
C4847 C 0.71554 0.40507 0.80325 0.0
C4848 C 0.70968 0.40286 0.81469 0.0
C4849 C 0.70884 0.4126 0.82324 0.0
C4850 C 0.71366 0.42429 0.82049 0.0
C4851 C 0.71926 0.42614 0.80913 0.0
C4852 C 0.72027 0.41683 0.80064 0.0
C4853 C 0.72673 0.42137 0.78909 0.0
C4854 C 0.73884 0.41448 0.78709 0.0
C4855 C 0.71816 0.42033 0.77778 0.0
C4856 C 0.72918 0.43469 0.79246 0.0
C4857 C 0.72473 0.4372 0.80405 0.0
C4858 C 0.72569 0.44885 0.80918 0.0
C4859 C 0.73144 0.45819 0.80233 0.0
C4860 C 0.73632 0.45583 0.79051 0.0
C4861 C 0.73506 0.4439 0.7855 0.0
H4862 H 0.61152 0.7175 0.82226 0.0
H4863 H 0.61991 0.69282 0.7923 0.0
H4864 H 0.60263 0.7011 0.78021 0.0
H4865 H 0.57868 0.71499 0.8193 0.0
H4866 H 0.57571 0.73088 0.82265 0.0
H4867 H 0.58924 0.72364 0.82891 0.0
H4868 H 0.60306 0.74061 0.81909 0.0
H4869 H 0.58955 0.7479 0.81282 0.0
H4870 H 0.60192 0.74359 0.80278 0.0
H4871 H 0.58436 0.71098 0.77162 0.0
H4872 H 0.5655 0.72236 0.76669 0.0
H4873 H 0.56805 0.74094 0.80191 0.0
C4874 C 0.60979 0.71401 0.81309 0.0
C4875 C 0.61702 0.70447 0.80822 0.0
C4876 C 0.61442 0.70003 0.79624 0.0
C4877 C 0.60465 0.7047 0.78928 0.0
C4878 C 0.59755 0.71388 0.79437 0.0
C4879 C 0.59994 0.71857 0.80596 0.0
C4880 C 0.59044 0.72815 0.80926 0.0
C4881 C 0.58308 0.72417 0.82071 0.0
C4882 C 0.59661 0.74082 0.81109 0.0
C4883 C 0.58236 0.72797 0.79776 0.0
C4884 C 0.58673 0.71968 0.78932 0.0
C4885 C 0.58083 0.71753 0.77812 0.0
C4886 C 0.57008 0.72398 0.77544 0.0
C4887 C 0.56525 0.73245 0.78394 0.0
C4888 C 0.57158 0.73458 0.7952 0.0
H4889 H 0.29714 0.6126 0.82384 0.0
H4890 H 0.3213 0.6263 0.7949 0.0
H4891 H 0.31584 0.60831 0.78227 0.0
H4892 H 0.30307 0.58057 0.81998 0.0
H4893 H 0.28736 0.57567 0.82265 0.0
H4894 H 0.29324 0.58954 0.82966 0.0
H4895 H 0.27539 0.60185 0.81979 0.0
H4896 H 0.26946 0.588 0.81278 0.0
H4897 H 0.273 0.60126 0.80336 0.0
H4898 H 0.30802 0.58899 0.77274 0.0
H4899 H 0.29795 0.56948 0.76668 0.0
H4900 H 0.27819 0.56842 0.80131 0.0
C4901 C 0.30121 0.61193 0.8148 0.0
C4902 C 0.30977 0.62094 0.81046 0.0
C4903 C 0.31496 0.61948 0.79861 0.0
C4904 C 0.31182 0.60933 0.7913 0.0
C4905 C 0.3034 0.6007 0.79586 0.0
C4906 C 0.2981 0.60189 0.8073 0.0
C4907 C 0.28922 0.59127 0.80994 0.0
C4908 C 0.29348 0.58382 0.82123 0.0
C4909 C 0.27598 0.59588 0.81156 0.0
C4910 C 0.29043 0.58394 0.79819 0.0
C4911 C 0.29868 0.58955 0.79023 0.0
C4912 C 0.30153 0.5845 0.77888 0.0
C4913 C 0.29581 0.57338 0.77555 0.0
C4914 C 0.28733 0.56739 0.78353 0.0
C4915 C 0.28456 0.57282 0.79497 0.0
H4916 H 0.40575 0.31823 0.79805 0.0
H4917 H 0.4035 0.29463 0.83036 0.0
H4918 H 0.42249 0.28432 0.82421 0.0
H4919 H 0.4169 0.29514 0.77749 0.0
H4920 H 0.42734 0.30527 0.76931 0.0
H4921 H 0.41366 0.31131 0.77625 0.0
H4922 H 0.42704 0.32694 0.78856 0.0
H4923 H 0.44073 0.32098 0.78157 0.0
H4924 H 0.43951 0.32146 0.7981 0.0
H4925 H 0.44074 0.27587 0.81458 0.0
H4926 H 0.4586 0.27017 0.80227 0.0
H4927 H 0.45036 0.29943 0.77617 0.0
C4928 C 0.40937 0.31098 0.80386 0.0
C4929 C 0.40307 0.30713 0.81463 0.0
C4930 C 0.40805 0.29759 0.82198 0.0
C4931 C 0.41885 0.29169 0.81859 0.0
C4932 C 0.42467 0.29546 0.80783 0.0
C4933 C 0.42024 0.30491 0.80057 0.0
C4934 C 0.42841 0.30689 0.78937 0.0
C4935 C 0.42114 0.30451 0.77739 0.0
C4936 C 0.43427 0.31984 0.78941 0.0
C4937 C 0.43805 0.29708 0.79157 0.0
C4938 C 0.4356 0.29061 0.80227 0.0
C4939 C 0.44288 0.28095 0.80626 0.0
C4940 C 0.45309 0.27785 0.79922 0.0
C4941 C 0.4561 0.28449 0.78835 0.0
C4942 C 0.44835 0.29417 0.78442 0.0
H4943 H 0.31416 0.41507 0.20138 0.0
H4944 H 0.30672 0.38876 0.23071 0.0
H4945 H 0.29581 0.40456 0.24225 0.0
H4946 H 0.31987 0.44092 0.22062 0.0
H4947 H 0.31227 0.45197 0.21086 0.0
H4948 H 0.31893 0.43848 0.20424 0.0
H4949 H 0.29785 0.43274 0.1943 0.0
H4950 H 0.29114 0.44624 0.2009 0.0
H4951 H 0.28438 0.4313 0.20388 0.0
H4952 H 0.28634 0.42269 0.25101 0.0
H4953 H 0.27872 0.4429 0.25693 0.0
H4954 H 0.2925 0.4585 0.22264 0.0
C4955 C 0.31001 0.41263 0.21012 0.0
C4956 C 0.31131 0.40066 0.21517 0.0
C4957 C 0.30592 0.39786 0.22671 0.0
C4958 C 0.29966 0.40676 0.23333 0.0
C4959 C 0.29875 0.41847 0.22828 0.0
C4960 C 0.30369 0.4215 0.21694 0.0
C4961 C 0.30159 0.43501 0.214 0.0
C4962 C 0.3139 0.442 0.21233 0.0
C4963 C 0.29324 0.4364 0.20259 0.0
C4964 C 0.295 0.43904 0.22559 0.0
C4965 C 0.29337 0.42925 0.23357 0.0
C4966 C 0.28759 0.43048 0.24487 0.0
C4967 C 0.28341 0.44206 0.24821 0.0
C4968 C 0.28519 0.45241 0.2404 0.0
C4969 C 0.29095 0.4508 0.22883 0.0
H4970 H 0.61698 0.31683 0.22384 0.0
H4971 H 0.61659 0.2954 0.19026 0.0
H4972 H 0.59704 0.28551 0.19644 0.0
H4973 H 0.60497 0.29275 0.24339 0.0
H4974 H 0.59562 0.30268 0.25258 0.0
H4975 H 0.60943 0.30864 0.24543 0.0
H4976 H 0.5967 0.32564 0.2347 0.0
H4977 H 0.58285 0.31971 0.24182 0.0
H4978 H 0.58355 0.32138 0.22532 0.0
H4979 H 0.57824 0.27746 0.20603 0.0
H4980 H 0.56052 0.27147 0.21883 0.0
H4981 H 0.57239 0.29761 0.24671 0.0
C4982 C 0.61266 0.31017 0.21777 0.0
C4983 C 0.61833 0.30682 0.20659 0.0
C4984 C 0.61248 0.29798 0.19891 0.0
C4985 C 0.60135 0.29235 0.20231 0.0
C4986 C 0.5961 0.29565 0.21343 0.0
C4987 C 0.60148 0.30433 0.22108 0.0
C4988 C 0.59389 0.30578 0.23271 0.0
C4989 C 0.60143 0.30225 0.2442 0.0
C4990 C 0.58895 0.31891 0.23369 0.0
C4991 C 0.5835 0.29654 0.23031 0.0
C4992 C 0.58504 0.29085 0.21911 0.0
C4993 C 0.57691 0.28183 0.21483 0.0
C4994 C 0.56692 0.27842 0.22222 0.0
C4995 C 0.56513 0.28397 0.23382 0.0
C4996 C 0.57349 0.29326 0.23786 0.0
H4997 H 0.39763 0.71972 0.22681 0.0
H4998 H 0.41076 0.70474 0.19248 0.0
H4999 H 0.43208 0.71085 0.19799 0.0
H5000 H 0.41732 0.74605 0.22681 0.0
H5001 H 0.42021 0.7461 0.24317 0.0
H5002 H 0.40601 0.73963 0.23722 0.0
H5003 H 0.41053 0.71907 0.24842 0.0
H5004 H 0.42474 0.72552 0.25443 0.0
H5005 H 0.42493 0.71147 0.24573 0.0
H5006 H 0.45146 0.71915 0.20634 0.0
H5007 H 0.46847 0.72968 0.21718 0.0
H5008 H 0.4433 0.74027 0.2461 0.0
C5009 C 0.40509 0.7175 0.22065 0.0
C5010 C 0.40269 0.71161 0.20931 0.0
C5011 C 0.41253 0.70912 0.20126 0.0
C5012 C 0.42462 0.71256 0.2043 0.0
C5013 C 0.42672 0.7185 0.21543 0.0
C5014 C 0.4173 0.72097 0.22353 0.0
C5015 C 0.42219 0.72809 0.23458 0.0
C5016 C 0.41607 0.74071 0.23549 0.0
C5017 C 0.4205 0.72059 0.2465 0.0
C5018 C 0.43574 0.72936 0.23125 0.0
C5019 C 0.43809 0.72365 0.22021 0.0
C5020 C 0.44976 0.72367 0.215 0.0
C5021 C 0.45935 0.72979 0.22118 0.0
C5022 C 0.4572 0.73595 0.23241 0.0
C5023 C 0.44524 0.73559 0.23757 0.0
loop_
_geom_bond_atom_site_label_1
_geom_bond_atom_site_label_2
_geom_bond_distance
_geom_bond_site_symmetry_2
_ccdc_geom_bond_type
C0 C1 1.264 . S
C0 C5 1.479 . S
C0 C10 1.465 . S
C1 C0 1.264 . S
C1 C3 1.339 . S
C1 H28 0.931 . S
C2 C3 1.395 . S
C2 C4 1.320 . S
C3 C1 1.339 . S
C3 C2 1.395 . S
C3 H29 0.929 . S
C4 C2 1.320 . S
C4 C5 1.405 . S
C4 H30 0.930 . S
C5 C0 1.479 . S
C5 C4 1.405 . S
C5 H31 0.931 . S
U6 O7 2.454 . S
U6 O8 2.458 . S
U6 C9 2.984 . S
U6 C10 2.847 . S
U6 C23 2.882 . S
U6 O24 2.441 . S
U6 O25 2.420 . S
U6 O26 2.455 . S
U6 O27 2.449 . S
O7 U6 2.454 . S
O7 C9 1.353 . S
O8 U6 2.458 . S
O8 C9 1.286 . S
C9 U6 2.984 . S
C9 O7 1.353 . S
C9 O8 1.286 . S
C9 C11 1.363 . S
C10 C0 1.465 . S
C10 U6 2.847 . S
C10 O24 1.249 . S
C10 O25 1.202 . S
C11 C9 1.363 . S
C11 C13 1.408 . S
C11 C16 1.342 . S
C12 C13 1.310 . S
C12 C15 1.461 . S
C12 H32 0.932 . S
C13 C11 1.408 . S
C13 C12 1.310 . S
C13 H33 0.930 . S
C14 C15 1.474 . S
C14 C16 1.285 . S
C14 H34 0.929 . S
C15 C12 1.461 . S
C15 C14 1.474 . S
C16 C11 1.342 . S
C16 C14 1.285 . S
C16 H35 0.930 . S
C17 C20 1.424 . S
C17 C22 1.245 . S
C17 C23 1.428 . S
C18 C21 1.260 . S
C18 C22 1.477 . S
C18 H36 0.932 . S
C19 C20 1.384 . S
C19 C21 1.479 . S
C19 H37 0.929 . S
C20 C17 1.424 . S
C20 C19 1.384 . S
C20 H38 0.928 . S
C21 C18 1.260 . S
C21 C19 1.479 . S
C22 C17 1.245 . S
C22 C18 1.477 . S
C22 H39 0.932 . S
C23 U6 2.882 . S
C23 C17 1.428 . S
C23 O26 1.301 . S
C23 O27 1.282 . S
O24 U6 2.441 . S
O24 C10 1.249 . S
O25 U6 2.420 . S
O25 C10 1.202 . S
O26 U6 2.455 . S
O26 C23 1.301 . S
O27 U6 2.449 . S
O27 C23 1.282 . S
H28 C1 0.931 . S
H29 C3 0.929 . S
H30 C4 0.930 . S
H31 C5 0.931 . S
H32 C12 0.932 . S
H33 C13 0.930 . S
H34 C14 0.929 . S
H35 C16 0.930 . S
H36 C18 0.932 . S
H37 C19 0.929 . S
H38 C20 0.928 . S
H39 C22 0.932 . S
C40 C41 1.264 . S
C40 C45 1.479 . S
C40 C50 1.465 . S
C41 C40 1.264 . S
C41 C43 1.339 . S
C41 H68 0.931 . S
C42 C43 1.395 . S
C42 C44 1.320 . S
C43 C41 1.339 . S
C43 C42 1.395 . S
C43 H69 0.929 . S
C44 C42 1.320 . S
C44 C45 1.405 . S
C44 H70 0.930 . S
C45 C40 1.479 . S
C45 C44 1.405 . S
C45 H71 0.931 . S
U46 O47 2.454 . S
U46 O48 2.458 . S
U46 C49 2.984 . S
U46 C50 2.847 . S
U46 C63 2.882 . S
U46 O64 2.441 . S
U46 O65 2.420 . S
U46 O66 2.455 . S
U46 O67 2.449 . S
O47 U46 2.454 . S
O47 C49 1.353 . S
O48 U46 2.458 . S
O48 C49 1.286 . S
C49 U46 2.984 . S
C49 O47 1.353 . S
C49 O48 1.286 . S
C49 C51 1.363 . S
C50 C40 1.465 . S
C50 U46 2.847 . S
C50 O64 1.249 . S
C50 O65 1.202 . S
C51 C49 1.363 . S
C51 C53 1.408 . S
C51 C56 1.342 . S
C52 C53 1.310 . S
C52 C55 1.461 . S
C52 H72 0.932 . S
C53 C51 1.408 . S
C53 C52 1.310 . S
C53 H73 0.930 . S
C54 C55 1.474 . S
C54 C56 1.285 . S
C54 H74 0.929 . S
C55 C52 1.461 . S
C55 C54 1.474 . S
C56 C51 1.342 . S
C56 C54 1.285 . S
C56 H75 0.930 . S
C57 C60 1.424 . S
C57 C62 1.245 . S
C57 C63 1.428 . S
C58 C61 1.260 . S
C58 C62 1.477 . S
C58 H76 0.932 . S
C59 C60 1.384 . S
C59 C61 1.479 . S
C59 H77 0.929 . S
C60 C57 1.424 . S
C60 C59 1.384 . S
C60 H78 0.928 . S
C61 C58 1.260 . S
C61 C59 1.479 . S
C62 C57 1.245 . S
C62 C58 1.477 . S
C62 H79 0.932 . S
C63 U46 2.882 . S
C63 C57 1.428 . S
C63 O66 1.301 . S
C63 O67 1.282 . S
O64 U46 2.441 . S
O64 C50 1.249 . S
O65 U46 2.420 . S
O65 C50 1.202 . S
O66 U46 2.455 . S
O66 C63 1.301 . S
O67 U46 2.449 . S
O67 C63 1.282 . S
H68 C41 0.931 . S
H69 C43 0.929 . S
H70 C44 0.930 . S
H71 C45 0.931 . S
H72 C52 0.932 . S
H73 C53 0.930 . S
H74 C54 0.929 . S
H75 C56 0.930 . S
H76 C58 0.932 . S
H77 C59 0.929 . S
H78 C60 0.928 . S
H79 C62 0.932 . S
C80 C81 1.264 . S
C80 C85 1.479 . S
C80 C90 1.465 . S
C81 C80 1.264 . S
C81 C83 1.339 . S
C81 H108 0.931 . S
C82 C83 1.395 . S
C82 C84 1.320 . S
C83 C81 1.339 . S
C83 C82 1.395 . S
C83 H109 0.929 . S
C84 C82 1.320 . S
C84 C85 1.405 . S
C84 H110 0.930 . S
C85 C80 1.479 . S
C85 C84 1.405 . S
C85 H111 0.931 . S
U86 O87 2.454 . S
U86 O88 2.458 . S
U86 C89 2.984 . S
U86 C90 2.847 . S
U86 C103 2.882 . S
U86 O104 2.441 . S
U86 O105 2.420 . S
U86 O106 2.455 . S
U86 O107 2.449 . S
O87 U86 2.454 . S
O87 C89 1.353 . S
O88 U86 2.458 . S
O88 C89 1.286 . S
C89 U86 2.984 . S
C89 O87 1.353 . S
C89 O88 1.286 . S
C89 C91 1.363 . S
C90 C80 1.465 . S
C90 U86 2.847 . S
C90 O104 1.249 . S
C90 O105 1.202 . S
C91 C89 1.363 . S
C91 C93 1.408 . S
C91 C96 1.342 . S
C92 C93 1.310 . S
C92 C95 1.461 . S
C92 H112 0.932 . S
C93 C91 1.408 . S
C93 C92 1.310 . S
C93 H113 0.930 . S
C94 C95 1.474 . S
C94 C96 1.285 . S
C94 H114 0.929 . S
C95 C92 1.461 . S
C95 C94 1.474 . S
C96 C91 1.342 . S
C96 C94 1.285 . S
C96 H115 0.930 . S
C97 C100 1.424 . S
C97 C102 1.245 . S
C97 C103 1.428 . S
C98 C101 1.260 . S
C98 C102 1.477 . S
C98 H116 0.932 . S
C99 C100 1.384 . S
C99 C101 1.479 . S
C99 H117 0.929 . S
C100 C97 1.424 . S
C100 C99 1.384 . S
C100 H118 0.928 . S
C101 C98 1.260 . S
C101 C99 1.479 . S
C102 C97 1.245 . S
C102 C98 1.477 . S
C102 H119 0.932 . S
C103 U86 2.882 . S
C103 C97 1.428 . S
C103 O106 1.301 . S
C103 O107 1.282 . S
O104 U86 2.441 . S
O104 C90 1.249 . S
O105 U86 2.420 . S
O105 C90 1.202 . S
O106 U86 2.455 . S
O106 C103 1.301 . S
O107 U86 2.449 . S
O107 C103 1.282 . S
H108 C81 0.931 . S
H109 C83 0.929 . S
H110 C84 0.930 . S
H111 C85 0.931 . S
H112 C92 0.932 . S
H113 C93 0.930 . S
H114 C94 0.929 . S
H115 C96 0.930 . S
H116 C98 0.932 . S
H117 C99 0.929 . S
H118 C100 0.928 . S
H119 C102 0.932 . S
C120 C121 1.264 . S
C120 C125 1.479 . S
C120 C130 1.465 . S
C121 C120 1.264 . S
C121 C123 1.339 . S
C121 H148 0.931 . S
C122 C123 1.395 . S
C122 C124 1.320 . S
C123 C121 1.339 . S
C123 C122 1.395 . S
C123 H149 0.929 . S
C124 C122 1.320 . S
C124 C125 1.405 . S
C124 H150 0.930 . S
C125 C120 1.479 . S
C125 C124 1.405 . S
C125 H151 0.931 . S
U126 O127 2.454 . S
U126 O128 2.458 . S
U126 C129 2.984 . S
U126 C130 2.847 . S
U126 C143 2.882 . S
U126 O144 2.441 . S
U126 O145 2.420 . S
U126 O146 2.455 . S
U126 O147 2.449 . S
O127 U126 2.454 . S
O127 C129 1.353 . S
O128 U126 2.458 . S
O128 C129 1.286 . S
C129 U126 2.984 . S
C129 O127 1.353 . S
C129 O128 1.286 . S
C129 C131 1.363 . S
C130 C120 1.465 . S
C130 U126 2.847 . S
C130 O144 1.249 . S
C130 O145 1.202 . S
C131 C129 1.363 . S
C131 C133 1.408 . S
C131 C136 1.342 . S
C132 C133 1.310 . S
C132 C135 1.461 . S
C132 H152 0.932 . S
C133 C131 1.408 . S
C133 C132 1.310 . S
C133 H153 0.930 . S
C134 C135 1.474 . S
C134 C136 1.285 . S
C134 H154 0.929 . S
C135 C132 1.461 . S
C135 C134 1.474 . S
C136 C131 1.342 . S
C136 C134 1.285 . S
C136 H155 0.930 . S
C137 C140 1.424 . S
C137 C142 1.245 . S
C137 C143 1.428 . S
C138 C141 1.260 . S
C138 C142 1.477 . S
C138 H156 0.932 . S
C139 C140 1.384 . S
C139 C141 1.479 . S
C139 H157 0.929 . S
C140 C137 1.424 . S
C140 C139 1.384 . S
C140 H158 0.928 . S
C141 C138 1.260 . S
C141 C139 1.479 . S
C142 C137 1.245 . S
C142 C138 1.477 . S
C142 H159 0.932 . S
C143 U126 2.882 . S
C143 C137 1.428 . S
C143 O146 1.301 . S
C143 O147 1.282 . S
O144 U126 2.441 . S
O144 C130 1.249 . S
O145 U126 2.420 . S
O145 C130 1.202 . S
O146 U126 2.455 . S
O146 C143 1.301 . S
O147 U126 2.449 . S
O147 C143 1.282 . S
H148 C121 0.931 . S
H149 C123 0.929 . S
H150 C124 0.930 . S
H151 C125 0.931 . S
H152 C132 0.932 . S
H153 C133 0.930 . S
H154 C134 0.929 . S
H155 C136 0.930 . S
H156 C138 0.932 . S
H157 C139 0.929 . S
H158 C140 0.928 . S
H159 C142 0.932 . S
C160 C161 1.264 . S
C160 C165 1.479 . S
C160 C170 1.465 . S
C161 C160 1.264 . S
C161 C163 1.339 . S
C161 H188 0.931 . S
C162 C163 1.395 . S
C162 C164 1.320 . S
C163 C161 1.339 . S
C163 C162 1.395 . S
C163 H189 0.929 . S
C164 C162 1.320 . S
C164 C165 1.405 . S
C164 H190 0.930 . S
C165 C160 1.479 . S
C165 C164 1.405 . S
C165 H191 0.931 . S
U166 O167 2.454 . S
U166 O168 2.458 . S
U166 C169 2.984 . S
U166 C170 2.847 . S
U166 C183 2.882 . S
U166 O184 2.441 . S
U166 O185 2.420 . S
U166 O186 2.455 . S
U166 O187 2.449 . S
O167 U166 2.454 . S
O167 C169 1.353 . S
O168 U166 2.458 . S
O168 C169 1.286 . S
C169 U166 2.984 . S
C169 O167 1.353 . S
C169 O168 1.286 . S
C169 C171 1.363 . S
C170 C160 1.465 . S
C170 U166 2.847 . S
C170 O184 1.249 . S
C170 O185 1.202 . S
C171 C169 1.363 . S
C171 C173 1.408 . S
C171 C176 1.342 . S
C172 C173 1.310 . S
C172 C175 1.461 . S
C172 H192 0.932 . S
C173 C171 1.408 . S
C173 C172 1.310 . S
C173 H193 0.930 . S
C174 C175 1.474 . S
C174 C176 1.285 . S
C174 H194 0.929 . S
C175 C172 1.461 . S
C175 C174 1.474 . S
C176 C171 1.342 . S
C176 C174 1.285 . S
C176 H195 0.930 . S
C177 C180 1.424 . S
C177 C182 1.245 . S
C177 C183 1.428 . S
C178 C181 1.260 . S
C178 C182 1.477 . S
C178 H196 0.932 . S
C179 C180 1.384 . S
C179 C181 1.479 . S
C179 H197 0.929 . S
C180 C177 1.424 . S
C180 C179 1.384 . S
C180 H198 0.928 . S
C181 C178 1.260 . S
C181 C179 1.479 . S
C182 C177 1.245 . S
C182 C178 1.477 . S
C182 H199 0.932 . S
C183 U166 2.882 . S
C183 C177 1.428 . S
C183 O186 1.301 . S
C183 O187 1.282 . S
O184 U166 2.441 . S
O184 C170 1.249 . S
O185 U166 2.420 . S
O185 C170 1.202 . S
O186 U166 2.455 . S
O186 C183 1.301 . S
O187 U166 2.449 . S
O187 C183 1.282 . S
H188 C161 0.931 . S
H189 C163 0.929 . S
H190 C164 0.930 . S
H191 C165 0.931 . S
H192 C172 0.932 . S
H193 C173 0.930 . S
H194 C174 0.929 . S
H195 C176 0.930 . S
H196 C178 0.932 . S
H197 C179 0.929 . S
H198 C180 0.928 . S
H199 C182 0.932 . S
C200 C201 1.264 . S
C200 C205 1.479 . S
C200 C210 1.465 . S
C201 C200 1.264 . S
C201 C203 1.339 . S
C201 H228 0.931 . S
C202 C203 1.395 . S
C202 C204 1.320 . S
C203 C201 1.339 . S
C203 C202 1.395 . S
C203 H229 0.929 . S
C204 C202 1.320 . S
C204 C205 1.405 . S
C204 H230 0.930 . S
C205 C200 1.479 . S
C205 C204 1.405 . S
C205 H231 0.931 . S
U206 O207 2.454 . S
U206 O208 2.458 . S
U206 C209 2.984 . S
U206 C210 2.847 . S
U206 C223 2.882 . S
U206 O224 2.441 . S
U206 O225 2.420 . S
U206 O226 2.455 . S
U206 O227 2.449 . S
O207 U206 2.454 . S
O207 C209 1.353 . S
O208 U206 2.458 . S
O208 C209 1.286 . S
C209 U206 2.984 . S
C209 O207 1.353 . S
C209 O208 1.286 . S
C209 C211 1.363 . S
C210 C200 1.465 . S
C210 U206 2.847 . S
C210 O224 1.249 . S
C210 O225 1.202 . S
C211 C209 1.363 . S
C211 C213 1.408 . S
C211 C216 1.342 . S
C212 C213 1.310 . S
C212 C215 1.461 . S
C212 H232 0.932 . S
C213 C211 1.408 . S
C213 C212 1.310 . S
C213 H233 0.930 . S
C214 C215 1.474 . S
C214 C216 1.285 . S
C214 H234 0.929 . S
C215 C212 1.461 . S
C215 C214 1.474 . S
C216 C211 1.342 . S
C216 C214 1.285 . S
C216 H235 0.930 . S
C217 C220 1.424 . S
C217 C222 1.245 . S
C217 C223 1.428 . S
C218 C221 1.260 . S
C218 C222 1.477 . S
C218 H236 0.932 . S
C219 C220 1.384 . S
C219 C221 1.479 . S
C219 H237 0.929 . S
C220 C217 1.424 . S
C220 C219 1.384 . S
C220 H238 0.928 . S
C221 C218 1.260 . S
C221 C219 1.479 . S
C222 C217 1.245 . S
C222 C218 1.477 . S
C222 H239 0.932 . S
C223 U206 2.882 . S
C223 C217 1.428 . S
C223 O226 1.301 . S
C223 O227 1.282 . S
O224 U206 2.441 . S
O224 C210 1.249 . S
O225 U206 2.420 . S
O225 C210 1.202 . S
O226 U206 2.455 . S
O226 C223 1.301 . S
O227 U206 2.449 . S
O227 C223 1.282 . S
H228 C201 0.931 . S
H229 C203 0.929 . S
H230 C204 0.930 . S
H231 C205 0.931 . S
H232 C212 0.932 . S
H233 C213 0.930 . S
H234 C214 0.929 . S
H235 C216 0.930 . S
H236 C218 0.932 . S
H237 C219 0.929 . S
H238 C220 0.928 . S
H239 C222 0.932 . S
C240 C241 1.264 . S
C240 C245 1.479 . S
C240 C250 1.465 . S
C241 C240 1.264 . S
C241 C243 1.339 . S
C241 H268 0.931 . S
C242 C243 1.395 . S
C242 C244 1.320 . S
C243 C241 1.339 . S
C243 C242 1.395 . S
C243 H269 0.929 . S
C244 C242 1.320 . S
C244 C245 1.405 . S
C244 H270 0.930 . S
C245 C240 1.479 . S
C245 C244 1.405 . S
C245 H271 0.931 . S
U246 O247 2.454 . S
U246 O248 2.458 . S
U246 C249 2.984 . S
U246 C250 2.847 . S
U246 C263 2.882 . S
U246 O264 2.441 . S
U246 O265 2.420 . S
U246 O266 2.455 . S
U246 O267 2.449 . S
O247 U246 2.454 . S
O247 C249 1.353 . S
O248 U246 2.458 . S
O248 C249 1.286 . S
C249 U246 2.984 . S
C249 O247 1.353 . S
C249 O248 1.286 . S
C249 C251 1.363 . S
C250 C240 1.465 . S
C250 U246 2.847 . S
C250 O264 1.249 . S
C250 O265 1.202 . S
C251 C249 1.363 . S
C251 C253 1.408 . S
C251 C256 1.342 . S
C252 C253 1.310 . S
C252 C255 1.461 . S
C252 H272 0.932 . S
C253 C251 1.408 . S
C253 C252 1.310 . S
C253 H273 0.930 . S
C254 C255 1.474 . S
C254 C256 1.285 . S
C254 H274 0.929 . S
C255 C252 1.461 . S
C255 C254 1.474 . S
C256 C251 1.342 . S
C256 C254 1.285 . S
C256 H275 0.930 . S
C257 C260 1.424 . S
C257 C262 1.245 . S
C257 C263 1.428 . S
C258 C261 1.260 . S
C258 C262 1.477 . S
C258 H276 0.932 . S
C259 C260 1.384 . S
C259 C261 1.479 . S
C259 H277 0.929 . S
C260 C257 1.424 . S
C260 C259 1.384 . S
C260 H278 0.928 . S
C261 C258 1.260 . S
C261 C259 1.479 . S
C262 C257 1.245 . S
C262 C258 1.477 . S
C262 H279 0.932 . S
C263 U246 2.882 . S
C263 C257 1.428 . S
C263 O266 1.301 . S
C263 O267 1.282 . S
O264 U246 2.441 . S
O264 C250 1.249 . S
O265 U246 2.420 . S
O265 C250 1.202 . S
O266 U246 2.455 . S
O266 C263 1.301 . S
O267 U246 2.449 . S
O267 C263 1.282 . S
H268 C241 0.931 . S
H269 C243 0.929 . S
H270 C244 0.930 . S
H271 C245 0.931 . S
H272 C252 0.932 . S
H273 C253 0.930 . S
H274 C254 0.929 . S
H275 C256 0.930 . S
H276 C258 0.932 . S
H277 C259 0.929 . S
H278 C260 0.928 . S
H279 C262 0.932 . S
C280 C281 1.264 . S
C280 C285 1.479 . S
C280 C290 1.465 . S
C281 C280 1.264 . S
C281 C283 1.339 . S
C281 H308 0.931 . S
C282 C283 1.395 . S
C282 C284 1.320 . S
C283 C281 1.339 . S
C283 C282 1.395 . S
C283 H309 0.929 . S
C284 C282 1.320 . S
C284 C285 1.405 . S
C284 H310 0.930 . S
C285 C280 1.479 . S
C285 C284 1.405 . S
C285 H311 0.931 . S
U286 O287 2.454 . S
U286 O288 2.458 . S
U286 C289 2.984 . S
U286 C290 2.847 . S
U286 C303 2.882 . S
U286 O304 2.441 . S
U286 O305 2.420 . S
U286 O306 2.455 . S
U286 O307 2.449 . S
O287 U286 2.454 . S
O287 C289 1.353 . S
O288 U286 2.458 . S
O288 C289 1.286 . S
C289 U286 2.984 . S
C289 O287 1.353 . S
C289 O288 1.286 . S
C289 C291 1.363 . S
C290 C280 1.465 . S
C290 U286 2.847 . S
C290 O304 1.249 . S
C290 O305 1.202 . S
C291 C289 1.363 . S
C291 C293 1.408 . S
C291 C296 1.342 . S
C292 C293 1.310 . S
C292 C295 1.461 . S
C292 H312 0.932 . S
C293 C291 1.408 . S
C293 C292 1.310 . S
C293 H313 0.930 . S
C294 C295 1.474 . S
C294 C296 1.285 . S
C294 H314 0.929 . S
C295 C292 1.461 . S
C295 C294 1.474 . S
C296 C291 1.342 . S
C296 C294 1.285 . S
C296 H315 0.930 . S
C297 C300 1.424 . S
C297 C302 1.245 . S
C297 C303 1.428 . S
C298 C301 1.260 . S
C298 C302 1.477 . S
C298 H316 0.932 . S
C299 C300 1.384 . S
C299 C301 1.479 . S
C299 H317 0.929 . S
C300 C297 1.424 . S
C300 C299 1.384 . S
C300 H318 0.928 . S
C301 C298 1.260 . S
C301 C299 1.479 . S
C302 C297 1.245 . S
C302 C298 1.477 . S
C302 H319 0.932 . S
C303 U286 2.882 . S
C303 C297 1.428 . S
C303 O306 1.301 . S
C303 O307 1.282 . S
O304 U286 2.441 . S
O304 C290 1.249 . S
O305 U286 2.420 . S
O305 C290 1.202 . S
O306 U286 2.455 . S
O306 C303 1.301 . S
O307 U286 2.449 . S
O307 C303 1.282 . S
H308 C281 0.931 . S
H309 C283 0.929 . S
H310 C284 0.930 . S
H311 C285 0.931 . S
H312 C292 0.932 . S
H313 C293 0.930 . S
H314 C294 0.929 . S
H315 C296 0.930 . S
H316 C298 0.932 . S
H317 C299 0.929 . S
H318 C300 0.928 . S
H319 C302 0.932 . S
C320 C321 1.264 . S
C320 C325 1.479 . S
C320 C330 1.465 . S
C321 C320 1.264 . S
C321 C323 1.339 . S
C321 H348 0.931 . S
C322 C323 1.395 . S
C322 C324 1.320 . S
C323 C321 1.339 . S
C323 C322 1.395 . S
C323 H349 0.929 . S
C324 C322 1.320 . S
C324 C325 1.405 . S
C324 H350 0.930 . S
C325 C320 1.479 . S
C325 C324 1.405 . S
C325 H351 0.931 . S
U326 O327 2.454 . S
U326 O328 2.458 . S
U326 C329 2.984 . S
U326 C330 2.847 . S
U326 C343 2.882 . S
U326 O344 2.441 . S
U326 O345 2.420 . S
U326 O346 2.455 . S
U326 O347 2.449 . S
O327 U326 2.454 . S
O327 C329 1.353 . S
O328 U326 2.458 . S
O328 C329 1.286 . S
C329 U326 2.984 . S
C329 O327 1.353 . S
C329 O328 1.286 . S
C329 C331 1.363 . S
C330 C320 1.465 . S
C330 U326 2.847 . S
C330 O344 1.249 . S
C330 O345 1.202 . S
C331 C329 1.363 . S
C331 C333 1.408 . S
C331 C336 1.342 . S
C332 C333 1.310 . S
C332 C335 1.461 . S
C332 H352 0.932 . S
C333 C331 1.408 . S
C333 C332 1.310 . S
C333 H353 0.930 . S
C334 C335 1.474 . S
C334 C336 1.285 . S
C334 H354 0.929 . S
C335 C332 1.461 . S
C335 C334 1.474 . S
C336 C331 1.342 . S
C336 C334 1.285 . S
C336 H355 0.930 . S
C337 C340 1.424 . S
C337 C342 1.245 . S
C337 C343 1.428 . S
C338 C341 1.260 . S
C338 C342 1.477 . S
C338 H356 0.932 . S
C339 C340 1.384 . S
C339 C341 1.479 . S
C339 H357 0.929 . S
C340 C337 1.424 . S
C340 C339 1.384 . S
C340 H358 0.928 . S
C341 C338 1.260 . S
C341 C339 1.479 . S
C342 C337 1.245 . S
C342 C338 1.477 . S
C342 H359 0.932 . S
C343 U326 2.882 . S
C343 C337 1.428 . S
C343 O346 1.301 . S
C343 O347 1.282 . S
O344 U326 2.441 . S
O344 C330 1.249 . S
O345 U326 2.420 . S
O345 C330 1.202 . S
O346 U326 2.455 . S
O346 C343 1.301 . S
O347 U326 2.449 . S
O347 C343 1.282 . S
H348 C321 0.931 . S
H349 C323 0.929 . S
H350 C324 0.930 . S
H351 C325 0.931 . S
H352 C332 0.932 . S
H353 C333 0.930 . S
H354 C334 0.929 . S
H355 C336 0.930 . S
H356 C338 0.932 . S
H357 C339 0.929 . S
H358 C340 0.928 . S
H359 C342 0.932 . S
C360 C361 1.264 . S
C360 C365 1.479 . S
C360 C370 1.465 . S
C361 C360 1.264 . S
C361 C363 1.339 . S
C361 H388 0.931 . S
C362 C363 1.395 . S
C362 C364 1.320 . S
C363 C361 1.339 . S
C363 C362 1.395 . S
C363 H389 0.929 . S
C364 C362 1.320 . S
C364 C365 1.405 . S
C364 H390 0.930 . S
C365 C360 1.479 . S
C365 C364 1.405 . S
C365 H391 0.931 . S
U366 O367 2.454 . S
U366 O368 2.458 . S
U366 C369 2.984 . S
U366 C370 2.847 . S
U366 C383 2.882 . S
U366 O384 2.441 . S
U366 O385 2.420 . S
U366 O386 2.455 . S
U366 O387 2.449 . S
O367 U366 2.454 . S
O367 C369 1.353 . S
O368 U366 2.458 . S
O368 C369 1.286 . S
C369 U366 2.984 . S
C369 O367 1.353 . S
C369 O368 1.286 . S
C369 C371 1.363 . S
C370 C360 1.465 . S
C370 U366 2.847 . S
C370 O384 1.249 . S
C370 O385 1.202 . S
C371 C369 1.363 . S
C371 C373 1.408 . S
C371 C376 1.342 . S
C372 C373 1.310 . S
C372 C375 1.461 . S
C372 H392 0.932 . S
C373 C371 1.408 . S
C373 C372 1.310 . S
C373 H393 0.930 . S
C374 C375 1.474 . S
C374 C376 1.285 . S
C374 H394 0.929 . S
C375 C372 1.461 . S
C375 C374 1.474 . S
C376 C371 1.342 . S
C376 C374 1.285 . S
C376 H395 0.930 . S
C377 C380 1.424 . S
C377 C382 1.245 . S
C377 C383 1.428 . S
C378 C381 1.260 . S
C378 C382 1.477 . S
C378 H396 0.932 . S
C379 C380 1.384 . S
C379 C381 1.479 . S
C379 H397 0.929 . S
C380 C377 1.424 . S
C380 C379 1.384 . S
C380 H398 0.928 . S
C381 C378 1.260 . S
C381 C379 1.479 . S
C382 C377 1.245 . S
C382 C378 1.477 . S
C382 H399 0.932 . S
C383 U366 2.882 . S
C383 C377 1.428 . S
C383 O386 1.301 . S
C383 O387 1.282 . S
O384 U366 2.441 . S
O384 C370 1.249 . S
O385 U366 2.420 . S
O385 C370 1.202 . S
O386 U366 2.455 . S
O386 C383 1.301 . S
O387 U366 2.449 . S
O387 C383 1.282 . S
H388 C361 0.931 . S
H389 C363 0.929 . S
H390 C364 0.930 . S
H391 C365 0.931 . S
H392 C372 0.932 . S
H393 C373 0.930 . S
H394 C374 0.929 . S
H395 C376 0.930 . S
H396 C378 0.932 . S
H397 C379 0.929 . S
H398 C380 0.928 . S
H399 C382 0.932 . S
C400 C401 1.264 . S
C400 C405 1.479 . S
C400 C410 1.465 . S
C401 C400 1.264 . S
C401 C403 1.339 . S
C401 H428 0.931 . S
C402 C403 1.395 . S
C402 C404 1.320 . S
C403 C401 1.339 . S
C403 C402 1.395 . S
C403 H429 0.929 . S
C404 C402 1.320 . S
C404 C405 1.405 . S
C404 H430 0.930 . S
C405 C400 1.479 . S
C405 C404 1.405 . S
C405 H431 0.931 . S
U406 O407 2.454 . S
U406 O408 2.458 . S
U406 C409 2.984 . S
U406 C410 2.847 . S
U406 C423 2.882 . S
U406 O424 2.441 . S
U406 O425 2.420 . S
U406 O426 2.455 . S
U406 O427 2.449 . S
O407 U406 2.454 . S
O407 C409 1.353 . S
O408 U406 2.458 . S
O408 C409 1.286 . S
C409 U406 2.984 . S
C409 O407 1.353 . S
C409 O408 1.286 . S
C409 C411 1.363 . S
C410 C400 1.465 . S
C410 U406 2.847 . S
C410 O424 1.249 . S
C410 O425 1.202 . S
C411 C409 1.363 . S
C411 C413 1.408 . S
C411 C416 1.342 . S
C412 C413 1.310 . S
C412 C415 1.461 . S
C412 H432 0.932 . S
C413 C411 1.408 . S
C413 C412 1.310 . S
C413 H433 0.930 . S
C414 C415 1.474 . S
C414 C416 1.285 . S
C414 H434 0.929 . S
C415 C412 1.461 . S
C415 C414 1.474 . S
C416 C411 1.342 . S
C416 C414 1.285 . S
C416 H435 0.930 . S
C417 C420 1.424 . S
C417 C422 1.245 . S
C417 C423 1.428 . S
C418 C421 1.260 . S
C418 C422 1.477 . S
C418 H436 0.932 . S
C419 C420 1.384 . S
C419 C421 1.479 . S
C419 H437 0.929 . S
C420 C417 1.424 . S
C420 C419 1.384 . S
C420 H438 0.928 . S
C421 C418 1.260 . S
C421 C419 1.479 . S
C422 C417 1.245 . S
C422 C418 1.477 . S
C422 H439 0.932 . S
C423 U406 2.882 . S
C423 C417 1.428 . S
C423 O426 1.301 . S
C423 O427 1.282 . S
O424 U406 2.441 . S
O424 C410 1.249 . S
O425 U406 2.420 . S
O425 C410 1.202 . S
O426 U406 2.455 . S
O426 C423 1.301 . S
O427 U406 2.449 . S
O427 C423 1.282 . S
H428 C401 0.931 . S
H429 C403 0.929 . S
H430 C404 0.930 . S
H431 C405 0.931 . S
H432 C412 0.932 . S
H433 C413 0.930 . S
H434 C414 0.929 . S
H435 C416 0.930 . S
H436 C418 0.932 . S
H437 C419 0.929 . S
H438 C420 0.928 . S
H439 C422 0.932 . S
C440 C441 1.264 . S
C440 C445 1.479 . S
C440 C450 1.465 . S
C441 C440 1.264 . S
C441 C443 1.339 . S
C441 H468 0.931 . S
C442 C443 1.395 . S
C442 C444 1.320 . S
C443 C441 1.339 . S
C443 C442 1.395 . S
C443 H469 0.929 . S
C444 C442 1.320 . S
C444 C445 1.405 . S
C444 H470 0.930 . S
C445 C440 1.479 . S
C445 C444 1.405 . S
C445 H471 0.931 . S
U446 O447 2.454 . S
U446 O448 2.458 . S
U446 C449 2.984 . S
U446 C450 2.847 . S
U446 C463 2.882 . S
U446 O464 2.441 . S
U446 O465 2.420 . S
U446 O466 2.455 . S
U446 O467 2.449 . S
O447 U446 2.454 . S
O447 C449 1.353 . S
O448 U446 2.458 . S
O448 C449 1.286 . S
C449 U446 2.984 . S
C449 O447 1.353 . S
C449 O448 1.286 . S
C449 C451 1.363 . S
C450 C440 1.465 . S
C450 U446 2.847 . S
C450 O464 1.249 . S
C450 O465 1.202 . S
C451 C449 1.363 . S
C451 C453 1.408 . S
C451 C456 1.342 . S
C452 C453 1.310 . S
C452 C455 1.461 . S
C452 H472 0.932 . S
C453 C451 1.408 . S
C453 C452 1.310 . S
C453 H473 0.930 . S
C454 C455 1.474 . S
C454 C456 1.285 . S
C454 H474 0.929 . S
C455 C452 1.461 . S
C455 C454 1.474 . S
C456 C451 1.342 . S
C456 C454 1.285 . S
C456 H475 0.930 . S
C457 C460 1.424 . S
C457 C462 1.245 . S
C457 C463 1.428 . S
C458 C461 1.260 . S
C458 C462 1.477 . S
C458 H476 0.932 . S
C459 C460 1.384 . S
C459 C461 1.479 . S
C459 H477 0.929 . S
C460 C457 1.424 . S
C460 C459 1.384 . S
C460 H478 0.928 . S
C461 C458 1.260 . S
C461 C459 1.479 . S
C462 C457 1.245 . S
C462 C458 1.477 . S
C462 H479 0.932 . S
C463 U446 2.882 . S
C463 C457 1.428 . S
C463 O466 1.301 . S
C463 O467 1.282 . S
O464 U446 2.441 . S
O464 C450 1.249 . S
O465 U446 2.420 . S
O465 C450 1.202 . S
O466 U446 2.455 . S
O466 C463 1.301 . S
O467 U446 2.449 . S
O467 C463 1.282 . S
H468 C441 0.931 . S
H469 C443 0.929 . S
H470 C444 0.930 . S
H471 C445 0.931 . S
H472 C452 0.932 . S
H473 C453 0.930 . S
H474 C454 0.929 . S
H475 C456 0.930 . S
H476 C458 0.932 . S
H477 C459 0.929 . S
H478 C460 0.928 . S
H479 C462 0.932 . S
C480 C481 1.264 . S
C480 C485 1.479 . S
C480 C490 1.465 . S
C481 C480 1.264 . S
C481 C483 1.339 . S
C481 H508 0.931 . S
C482 C483 1.395 . S
C482 C484 1.320 . S
C483 C481 1.339 . S
C483 C482 1.395 . S
C483 H509 0.929 . S
C484 C482 1.320 . S
C484 C485 1.405 . S
C484 H510 0.930 . S
C485 C480 1.479 . S
C485 C484 1.405 . S
C485 H511 0.931 . S
U486 O487 2.454 . S
U486 O488 2.458 . S
U486 C489 2.984 . S
U486 C490 2.847 . S
U486 C503 2.882 . S
U486 O504 2.441 . S
U486 O505 2.420 . S
U486 O506 2.455 . S
U486 O507 2.449 . S
O487 U486 2.454 . S
O487 C489 1.353 . S
O488 U486 2.458 . S
O488 C489 1.286 . S
C489 U486 2.984 . S
C489 O487 1.353 . S
C489 O488 1.286 . S
C489 C491 1.363 . S
C490 C480 1.465 . S
C490 U486 2.847 . S
C490 O504 1.249 . S
C490 O505 1.202 . S
C491 C489 1.363 . S
C491 C493 1.408 . S
C491 C496 1.342 . S
C492 C493 1.310 . S
C492 C495 1.461 . S
C492 H512 0.932 . S
C493 C491 1.408 . S
C493 C492 1.310 . S
C493 H513 0.930 . S
C494 C495 1.474 . S
C494 C496 1.285 . S
C494 H514 0.929 . S
C495 C492 1.461 . S
C495 C494 1.474 . S
C496 C491 1.342 . S
C496 C494 1.285 . S
C496 H515 0.930 . S
C497 C500 1.424 . S
C497 C502 1.245 . S
C497 C503 1.428 . S
C498 C501 1.260 . S
C498 C502 1.477 . S
C498 H516 0.932 . S
C499 C500 1.384 . S
C499 C501 1.479 . S
C499 H517 0.929 . S
C500 C497 1.424 . S
C500 C499 1.384 . S
C500 H518 0.928 . S
C501 C498 1.260 . S
C501 C499 1.479 . S
C502 C497 1.245 . S
C502 C498 1.477 . S
C502 H519 0.932 . S
C503 U486 2.882 . S
C503 C497 1.428 . S
C503 O506 1.301 . S
C503 O507 1.282 . S
O504 U486 2.441 . S
O504 C490 1.249 . S
O505 U486 2.420 . S
O505 C490 1.202 . S
O506 U486 2.455 . S
O506 C503 1.301 . S
O507 U486 2.449 . S
O507 C503 1.282 . S
H508 C481 0.931 . S
H509 C483 0.929 . S
H510 C484 0.930 . S
H511 C485 0.931 . S
H512 C492 0.932 . S
H513 C493 0.930 . S
H514 C494 0.929 . S
H515 C496 0.930 . S
H516 C498 0.932 . S
H517 C499 0.929 . S
H518 C500 0.928 . S
H519 C502 0.932 . S
C520 C521 1.264 . S
C520 C525 1.479 . S
C520 C530 1.465 . S
C521 C520 1.264 . S
C521 C523 1.339 . S
C521 H548 0.931 . S
C522 C523 1.395 . S
C522 C524 1.320 . S
C523 C521 1.339 . S
C523 C522 1.395 . S
C523 H549 0.929 . S
C524 C522 1.320 . S
C524 C525 1.405 . S
C524 H550 0.930 . S
C525 C520 1.479 . S
C525 C524 1.405 . S
C525 H551 0.931 . S
U526 O527 2.454 . S
U526 O528 2.458 . S
U526 C529 2.984 . S
U526 C530 2.847 . S
U526 C543 2.882 . S
U526 O544 2.441 . S
U526 O545 2.420 . S
U526 O546 2.455 . S
U526 O547 2.449 . S
O527 U526 2.454 . S
O527 C529 1.353 . S
O528 U526 2.458 . S
O528 C529 1.286 . S
C529 U526 2.984 . S
C529 O527 1.353 . S
C529 O528 1.286 . S
C529 C531 1.363 . S
C530 C520 1.465 . S
C530 U526 2.847 . S
C530 O544 1.249 . S
C530 O545 1.202 . S
C531 C529 1.363 . S
C531 C533 1.408 . S
C531 C536 1.342 . S
C532 C533 1.310 . S
C532 C535 1.461 . S
C532 H552 0.932 . S
C533 C531 1.408 . S
C533 C532 1.310 . S
C533 H553 0.930 . S
C534 C535 1.474 . S
C534 C536 1.285 . S
C534 H554 0.929 . S
C535 C532 1.461 . S
C535 C534 1.474 . S
C536 C531 1.342 . S
C536 C534 1.285 . S
C536 H555 0.930 . S
C537 C540 1.424 . S
C537 C542 1.245 . S
C537 C543 1.428 . S
C538 C541 1.260 . S
C538 C542 1.477 . S
C538 H556 0.932 . S
C539 C540 1.384 . S
C539 C541 1.479 . S
C539 H557 0.929 . S
C540 C537 1.424 . S
C540 C539 1.384 . S
C540 H558 0.928 . S
C541 C538 1.260 . S
C541 C539 1.479 . S
C542 C537 1.245 . S
C542 C538 1.477 . S
C542 H559 0.932 . S
C543 U526 2.882 . S
C543 C537 1.428 . S
C543 O546 1.301 . S
C543 O547 1.282 . S
O544 U526 2.441 . S
O544 C530 1.249 . S
O545 U526 2.420 . S
O545 C530 1.202 . S
O546 U526 2.455 . S
O546 C543 1.301 . S
O547 U526 2.449 . S
O547 C543 1.282 . S
H548 C521 0.931 . S
H549 C523 0.929 . S
H550 C524 0.930 . S
H551 C525 0.931 . S
H552 C532 0.932 . S
H553 C533 0.930 . S
H554 C534 0.929 . S
H555 C536 0.930 . S
H556 C538 0.932 . S
H557 C539 0.929 . S
H558 C540 0.928 . S
H559 C542 0.932 . S
C560 C561 1.264 . S
C560 C565 1.479 . S
C560 C570 1.465 . S
C561 C560 1.264 . S
C561 C563 1.339 . S
C561 H588 0.931 . S
C562 C563 1.395 . S
C562 C564 1.320 . S
C563 C561 1.339 . S
C563 C562 1.395 . S
C563 H589 0.929 . S
C564 C562 1.320 . S
C564 C565 1.405 . S
C564 H590 0.930 . S
C565 C560 1.479 . S
C565 C564 1.405 . S
C565 H591 0.931 . S
U566 O567 2.454 . S
U566 O568 2.458 . S
U566 C569 2.984 . S
U566 C570 2.847 . S
U566 C583 2.882 . S
U566 O584 2.441 . S
U566 O585 2.420 . S
U566 O586 2.455 . S
U566 O587 2.449 . S
O567 U566 2.454 . S
O567 C569 1.353 . S
O568 U566 2.458 . S
O568 C569 1.286 . S
C569 U566 2.984 . S
C569 O567 1.353 . S
C569 O568 1.286 . S
C569 C571 1.363 . S
C570 C560 1.465 . S
C570 U566 2.847 . S
C570 O584 1.249 . S
C570 O585 1.202 . S
C571 C569 1.363 . S
C571 C573 1.408 . S
C571 C576 1.342 . S
C572 C573 1.310 . S
C572 C575 1.461 . S
C572 H592 0.932 . S
C573 C571 1.408 . S
C573 C572 1.310 . S
C573 H593 0.930 . S
C574 C575 1.474 . S
C574 C576 1.285 . S
C574 H594 0.929 . S
C575 C572 1.461 . S
C575 C574 1.474 . S
C576 C571 1.342 . S
C576 C574 1.285 . S
C576 H595 0.930 . S
C577 C580 1.424 . S
C577 C582 1.245 . S
C577 C583 1.428 . S
C578 C581 1.260 . S
C578 C582 1.477 . S
C578 H596 0.932 . S
C579 C580 1.384 . S
C579 C581 1.479 . S
C579 H597 0.929 . S
C580 C577 1.424 . S
C580 C579 1.384 . S
C580 H598 0.928 . S
C581 C578 1.260 . S
C581 C579 1.479 . S
C582 C577 1.245 . S
C582 C578 1.477 . S
C582 H599 0.932 . S
C583 U566 2.882 . S
C583 C577 1.428 . S
C583 O586 1.301 . S
C583 O587 1.282 . S
O584 U566 2.441 . S
O584 C570 1.249 . S
O585 U566 2.420 . S
O585 C570 1.202 . S
O586 U566 2.455 . S
O586 C583 1.301 . S
O587 U566 2.449 . S
O587 C583 1.282 . S
H588 C561 0.931 . S
H589 C563 0.929 . S
H590 C564 0.930 . S
H591 C565 0.931 . S
H592 C572 0.932 . S
H593 C573 0.930 . S
H594 C574 0.929 . S
H595 C576 0.930 . S
H596 C578 0.932 . S
H597 C579 0.929 . S
H598 C580 0.928 . S
H599 C582 0.932 . S
C600 C601 1.264 . S
C600 C605 1.479 . S
C600 C610 1.465 . S
C601 C600 1.264 . S
C601 C603 1.339 . S
C601 H628 0.931 . S
C602 C603 1.395 . S
C602 C604 1.320 . S
C603 C601 1.339 . S
C603 C602 1.395 . S
C603 H629 0.929 . S
C604 C602 1.320 . S
C604 C605 1.405 . S
C604 H630 0.930 . S
C605 C600 1.479 . S
C605 C604 1.405 . S
C605 H631 0.931 . S
U606 O607 2.454 . S
U606 O608 2.458 . S
U606 C609 2.984 . S
U606 C610 2.847 . S
U606 C623 2.882 . S
U606 O624 2.441 . S
U606 O625 2.420 . S
U606 O626 2.455 . S
U606 O627 2.449 . S
O607 U606 2.454 . S
O607 C609 1.353 . S
O608 U606 2.458 . S
O608 C609 1.286 . S
C609 U606 2.984 . S
C609 O607 1.353 . S
C609 O608 1.286 . S
C609 C611 1.363 . S
C610 C600 1.465 . S
C610 U606 2.847 . S
C610 O624 1.249 . S
C610 O625 1.202 . S
C611 C609 1.363 . S
C611 C613 1.408 . S
C611 C616 1.342 . S
C612 C613 1.310 . S
C612 C615 1.461 . S
C612 H632 0.932 . S
C613 C611 1.408 . S
C613 C612 1.310 . S
C613 H633 0.930 . S
C614 C615 1.474 . S
C614 C616 1.285 . S
C614 H634 0.929 . S
C615 C612 1.461 . S
C615 C614 1.474 . S
C616 C611 1.342 . S
C616 C614 1.285 . S
C616 H635 0.930 . S
C617 C620 1.424 . S
C617 C622 1.245 . S
C617 C623 1.428 . S
C618 C621 1.260 . S
C618 C622 1.477 . S
C618 H636 0.932 . S
C619 C620 1.384 . S
C619 C621 1.479 . S
C619 H637 0.929 . S
C620 C617 1.424 . S
C620 C619 1.384 . S
C620 H638 0.928 . S
C621 C618 1.260 . S
C621 C619 1.479 . S
C622 C617 1.245 . S
C622 C618 1.477 . S
C622 H639 0.932 . S
C623 U606 2.882 . S
C623 C617 1.428 . S
C623 O626 1.301 . S
C623 O627 1.282 . S
O624 U606 2.441 . S
O624 C610 1.249 . S
O625 U606 2.420 . S
O625 C610 1.202 . S
O626 U606 2.455 . S
O626 C623 1.301 . S
O627 U606 2.449 . S
O627 C623 1.282 . S
H628 C601 0.931 . S
H629 C603 0.929 . S
H630 C604 0.930 . S
H631 C605 0.931 . S
H632 C612 0.932 . S
H633 C613 0.930 . S
H634 C614 0.929 . S
H635 C616 0.930 . S
H636 C618 0.932 . S
H637 C619 0.929 . S
H638 C620 0.928 . S
H639 C622 0.932 . S
C640 C641 1.264 . S
C640 C645 1.479 . S
C640 C650 1.465 . S
C641 C640 1.264 . S
C641 C643 1.339 . S
C641 H668 0.931 . S
C642 C643 1.395 . S
C642 C644 1.320 . S
C643 C641 1.339 . S
C643 C642 1.395 . S
C643 H669 0.929 . S
C644 C642 1.320 . S
C644 C645 1.405 . S
C644 H670 0.930 . S
C645 C640 1.479 . S
C645 C644 1.405 . S
C645 H671 0.931 . S
U646 O647 2.454 . S
U646 O648 2.458 . S
U646 C649 2.984 . S
U646 C650 2.847 . S
U646 C663 2.882 . S
U646 O664 2.441 . S
U646 O665 2.420 . S
U646 O666 2.455 . S
U646 O667 2.449 . S
O647 U646 2.454 . S
O647 C649 1.353 . S
O648 U646 2.458 . S
O648 C649 1.286 . S
C649 U646 2.984 . S
C649 O647 1.353 . S
C649 O648 1.286 . S
C649 C651 1.363 . S
C650 C640 1.465 . S
C650 U646 2.847 . S
C650 O664 1.249 . S
C650 O665 1.202 . S
C651 C649 1.363 . S
C651 C653 1.408 . S
C651 C656 1.342 . S
C652 C653 1.310 . S
C652 C655 1.461 . S
C652 H672 0.932 . S
C653 C651 1.408 . S
C653 C652 1.310 . S
C653 H673 0.930 . S
C654 C655 1.474 . S
C654 C656 1.285 . S
C654 H674 0.929 . S
C655 C652 1.461 . S
C655 C654 1.474 . S
C656 C651 1.342 . S
C656 C654 1.285 . S
C656 H675 0.930 . S
C657 C660 1.424 . S
C657 C662 1.245 . S
C657 C663 1.428 . S
C658 C661 1.260 . S
C658 C662 1.477 . S
C658 H676 0.932 . S
C659 C660 1.384 . S
C659 C661 1.479 . S
C659 H677 0.929 . S
C660 C657 1.424 . S
C660 C659 1.384 . S
C660 H678 0.928 . S
C661 C658 1.260 . S
C661 C659 1.479 . S
C662 C657 1.245 . S
C662 C658 1.477 . S
C662 H679 0.932 . S
C663 U646 2.882 . S
C663 C657 1.428 . S
C663 O666 1.301 . S
C663 O667 1.282 . S
O664 U646 2.441 . S
O664 C650 1.249 . S
O665 U646 2.420 . S
O665 C650 1.202 . S
O666 U646 2.455 . S
O666 C663 1.301 . S
O667 U646 2.449 . S
O667 C663 1.282 . S
H668 C641 0.931 . S
H669 C643 0.929 . S
H670 C644 0.930 . S
H671 C645 0.931 . S
H672 C652 0.932 . S
H673 C653 0.930 . S
H674 C654 0.929 . S
H675 C656 0.930 . S
H676 C658 0.932 . S
H677 C659 0.929 . S
H678 C660 0.928 . S
H679 C662 0.932 . S
C680 C681 1.264 . S
C680 C685 1.479 . S
C680 C690 1.465 . S
C681 C680 1.264 . S
C681 C683 1.339 . S
C681 H708 0.931 . S
C682 C683 1.395 . S
C682 C684 1.320 . S
C683 C681 1.339 . S
C683 C682 1.395 . S
C683 H709 0.929 . S
C684 C682 1.320 . S
C684 C685 1.405 . S
C684 H710 0.930 . S
C685 C680 1.479 . S
C685 C684 1.405 . S
C685 H711 0.931 . S
U686 O687 2.454 . S
U686 O688 2.458 . S
U686 C689 2.984 . S
U686 C690 2.847 . S
U686 C703 2.882 . S
U686 O704 2.441 . S
U686 O705 2.420 . S
U686 O706 2.455 . S
U686 O707 2.449 . S
O687 U686 2.454 . S
O687 C689 1.353 . S
O688 U686 2.458 . S
O688 C689 1.286 . S
C689 U686 2.984 . S
C689 O687 1.353 . S
C689 O688 1.286 . S
C689 C691 1.363 . S
C690 C680 1.465 . S
C690 U686 2.847 . S
C690 O704 1.249 . S
C690 O705 1.202 . S
C691 C689 1.363 . S
C691 C693 1.408 . S
C691 C696 1.342 . S
C692 C693 1.310 . S
C692 C695 1.461 . S
C692 H712 0.932 . S
C693 C691 1.408 . S
C693 C692 1.310 . S
C693 H713 0.930 . S
C694 C695 1.474 . S
C694 C696 1.285 . S
C694 H714 0.929 . S
C695 C692 1.461 . S
C695 C694 1.474 . S
C696 C691 1.342 . S
C696 C694 1.285 . S
C696 H715 0.930 . S
C697 C700 1.424 . S
C697 C702 1.245 . S
C697 C703 1.428 . S
C698 C701 1.260 . S
C698 C702 1.477 . S
C698 H716 0.932 . S
C699 C700 1.384 . S
C699 C701 1.479 . S
C699 H717 0.929 . S
C700 C697 1.424 . S
C700 C699 1.384 . S
C700 H718 0.928 . S
C701 C698 1.260 . S
C701 C699 1.479 . S
C702 C697 1.245 . S
C702 C698 1.477 . S
C702 H719 0.932 . S
C703 U686 2.882 . S
C703 C697 1.428 . S
C703 O706 1.301 . S
C703 O707 1.282 . S
O704 U686 2.441 . S
O704 C690 1.249 . S
O705 U686 2.420 . S
O705 C690 1.202 . S
O706 U686 2.455 . S
O706 C703 1.301 . S
O707 U686 2.449 . S
O707 C703 1.282 . S
H708 C681 0.931 . S
H709 C683 0.929 . S
H710 C684 0.930 . S
H711 C685 0.931 . S
H712 C692 0.932 . S
H713 C693 0.930 . S
H714 C694 0.929 . S
H715 C696 0.930 . S
H716 C698 0.932 . S
H717 C699 0.929 . S
H718 C700 0.928 . S
H719 C702 0.932 . S
C720 C721 1.264 . S
C720 C725 1.479 . S
C720 C730 1.465 . S
C721 C720 1.264 . S
C721 C723 1.339 . S
C721 H748 0.931 . S
C722 C723 1.395 . S
C722 C724 1.320 . S
C723 C721 1.339 . S
C723 C722 1.395 . S
C723 H749 0.929 . S
C724 C722 1.320 . S
C724 C725 1.405 . S
C724 H750 0.930 . S
C725 C720 1.479 . S
C725 C724 1.405 . S
C725 H751 0.931 . S
U726 O727 2.454 . S
U726 O728 2.458 . S
U726 C729 2.984 . S
U726 C730 2.847 . S
U726 C743 2.882 . S
U726 O744 2.441 . S
U726 O745 2.420 . S
U726 O746 2.455 . S
U726 O747 2.449 . S
O727 U726 2.454 . S
O727 C729 1.353 . S
O728 U726 2.458 . S
O728 C729 1.286 . S
C729 U726 2.984 . S
C729 O727 1.353 . S
C729 O728 1.286 . S
C729 C731 1.363 . S
C730 C720 1.465 . S
C730 U726 2.847 . S
C730 O744 1.249 . S
C730 O745 1.202 . S
C731 C729 1.363 . S
C731 C733 1.408 . S
C731 C736 1.342 . S
C732 C733 1.310 . S
C732 C735 1.461 . S
C732 H752 0.932 . S
C733 C731 1.408 . S
C733 C732 1.310 . S
C733 H753 0.930 . S
C734 C735 1.474 . S
C734 C736 1.285 . S
C734 H754 0.929 . S
C735 C732 1.461 . S
C735 C734 1.474 . S
C736 C731 1.342 . S
C736 C734 1.285 . S
C736 H755 0.930 . S
C737 C740 1.424 . S
C737 C742 1.245 . S
C737 C743 1.428 . S
C738 C741 1.260 . S
C738 C742 1.477 . S
C738 H756 0.932 . S
C739 C740 1.384 . S
C739 C741 1.479 . S
C739 H757 0.929 . S
C740 C737 1.424 . S
C740 C739 1.384 . S
C740 H758 0.928 . S
C741 C738 1.260 . S
C741 C739 1.479 . S
C742 C737 1.245 . S
C742 C738 1.477 . S
C742 H759 0.932 . S
C743 U726 2.882 . S
C743 C737 1.428 . S
C743 O746 1.301 . S
C743 O747 1.282 . S
O744 U726 2.441 . S
O744 C730 1.249 . S
O745 U726 2.420 . S
O745 C730 1.202 . S
O746 U726 2.455 . S
O746 C743 1.301 . S
O747 U726 2.449 . S
O747 C743 1.282 . S
H748 C721 0.931 . S
H749 C723 0.929 . S
H750 C724 0.930 . S
H751 C725 0.931 . S
H752 C732 0.932 . S
H753 C733 0.930 . S
H754 C734 0.929 . S
H755 C736 0.930 . S
H756 C738 0.932 . S
H757 C739 0.929 . S
H758 C740 0.928 . S
H759 C742 0.932 . S
C760 C761 1.264 . S
C760 C765 1.479 . S
C760 C770 1.465 . S
C761 C760 1.264 . S
C761 C763 1.339 . S
C761 H788 0.931 . S
C762 C763 1.395 . S
C762 C764 1.320 . S
C763 C761 1.339 . S
C763 C762 1.395 . S
C763 H789 0.929 . S
C764 C762 1.320 . S
C764 C765 1.405 . S
C764 H790 0.930 . S
C765 C760 1.479 . S
C765 C764 1.405 . S
C765 H791 0.931 . S
U766 O767 2.454 . S
U766 O768 2.458 . S
U766 C769 2.984 . S
U766 C770 2.847 . S
U766 C783 2.882 . S
U766 O784 2.441 . S
U766 O785 2.420 . S
U766 O786 2.455 . S
U766 O787 2.449 . S
O767 U766 2.454 . S
O767 C769 1.353 . S
O768 U766 2.458 . S
O768 C769 1.286 . S
C769 U766 2.984 . S
C769 O767 1.353 . S
C769 O768 1.286 . S
C769 C771 1.363 . S
C770 C760 1.465 . S
C770 U766 2.847 . S
C770 O784 1.249 . S
C770 O785 1.202 . S
C771 C769 1.363 . S
C771 C773 1.408 . S
C771 C776 1.342 . S
C772 C773 1.310 . S
C772 C775 1.461 . S
C772 H792 0.932 . S
C773 C771 1.408 . S
C773 C772 1.310 . S
C773 H793 0.930 . S
C774 C775 1.474 . S
C774 C776 1.285 . S
C774 H794 0.929 . S
C775 C772 1.461 . S
C775 C774 1.474 . S
C776 C771 1.342 . S
C776 C774 1.285 . S
C776 H795 0.930 . S
C777 C780 1.424 . S
C777 C782 1.245 . S
C777 C783 1.428 . S
C778 C781 1.260 . S
C778 C782 1.477 . S
C778 H796 0.932 . S
C779 C780 1.384 . S
C779 C781 1.479 . S
C779 H797 0.929 . S
C780 C777 1.424 . S
C780 C779 1.384 . S
C780 H798 0.928 . S
C781 C778 1.260 . S
C781 C779 1.479 . S
C782 C777 1.245 . S
C782 C778 1.477 . S
C782 H799 0.932 . S
C783 U766 2.882 . S
C783 C777 1.428 . S
C783 O786 1.301 . S
C783 O787 1.282 . S
O784 U766 2.441 . S
O784 C770 1.249 . S
O785 U766 2.420 . S
O785 C770 1.202 . S
O786 U766 2.455 . S
O786 C783 1.301 . S
O787 U766 2.449 . S
O787 C783 1.282 . S
H788 C761 0.931 . S
H789 C763 0.929 . S
H790 C764 0.930 . S
H791 C765 0.931 . S
H792 C772 0.932 . S
H793 C773 0.930 . S
H794 C774 0.929 . S
H795 C776 0.930 . S
H796 C778 0.932 . S
H797 C779 0.929 . S
H798 C780 0.928 . S
H799 C782 0.932 . S
C800 C801 1.264 . S
C800 C805 1.479 . S
C800 C810 1.465 . S
C801 C800 1.264 . S
C801 C803 1.339 . S
C801 H828 0.931 . S
C802 C803 1.395 . S
C802 C804 1.320 . S
C803 C801 1.339 . S
C803 C802 1.395 . S
C803 H829 0.929 . S
C804 C802 1.320 . S
C804 C805 1.405 . S
C804 H830 0.930 . S
C805 C800 1.479 . S
C805 C804 1.405 . S
C805 H831 0.931 . S
U806 O807 2.454 . S
U806 O808 2.458 . S
U806 C809 2.984 . S
U806 C810 2.847 . S
U806 C823 2.882 . S
U806 O824 2.441 . S
U806 O825 2.420 . S
U806 O826 2.455 . S
U806 O827 2.449 . S
O807 U806 2.454 . S
O807 C809 1.353 . S
O808 U806 2.458 . S
O808 C809 1.286 . S
C809 U806 2.984 . S
C809 O807 1.353 . S
C809 O808 1.286 . S
C809 C811 1.363 . S
C810 C800 1.465 . S
C810 U806 2.847 . S
C810 O824 1.249 . S
C810 O825 1.202 . S
C811 C809 1.363 . S
C811 C813 1.408 . S
C811 C816 1.342 . S
C812 C813 1.310 . S
C812 C815 1.461 . S
C812 H832 0.932 . S
C813 C811 1.408 . S
C813 C812 1.310 . S
C813 H833 0.930 . S
C814 C815 1.474 . S
C814 C816 1.285 . S
C814 H834 0.929 . S
C815 C812 1.461 . S
C815 C814 1.474 . S
C816 C811 1.342 . S
C816 C814 1.285 . S
C816 H835 0.930 . S
C817 C820 1.424 . S
C817 C822 1.245 . S
C817 C823 1.428 . S
C818 C821 1.260 . S
C818 C822 1.477 . S
C818 H836 0.932 . S
C819 C820 1.384 . S
C819 C821 1.479 . S
C819 H837 0.929 . S
C820 C817 1.424 . S
C820 C819 1.384 . S
C820 H838 0.928 . S
C821 C818 1.260 . S
C821 C819 1.479 . S
C822 C817 1.245 . S
C822 C818 1.477 . S
C822 H839 0.932 . S
C823 U806 2.882 . S
C823 C817 1.428 . S
C823 O826 1.301 . S
C823 O827 1.282 . S
O824 U806 2.441 . S
O824 C810 1.249 . S
O825 U806 2.420 . S
O825 C810 1.202 . S
O826 U806 2.455 . S
O826 C823 1.301 . S
O827 U806 2.449 . S
O827 C823 1.282 . S
H828 C801 0.931 . S
H829 C803 0.929 . S
H830 C804 0.930 . S
H831 C805 0.931 . S
H832 C812 0.932 . S
H833 C813 0.930 . S
H834 C814 0.929 . S
H835 C816 0.930 . S
H836 C818 0.932 . S
H837 C819 0.929 . S
H838 C820 0.928 . S
H839 C822 0.932 . S
C840 C841 1.264 . S
C840 C845 1.479 . S
C840 C850 1.465 . S
C841 C840 1.264 . S
C841 C843 1.339 . S
C841 H868 0.931 . S
C842 C843 1.395 . S
C842 C844 1.320 . S
C843 C841 1.339 . S
C843 C842 1.395 . S
C843 H869 0.929 . S
C844 C842 1.320 . S
C844 C845 1.405 . S
C844 H870 0.930 . S
C845 C840 1.479 . S
C845 C844 1.405 . S
C845 H871 0.931 . S
U846 O847 2.454 . S
U846 O848 2.458 . S
U846 C849 2.984 . S
U846 C850 2.847 . S
U846 C863 2.882 . S
U846 O864 2.441 . S
U846 O865 2.420 . S
U846 O866 2.455 . S
U846 O867 2.449 . S
O847 U846 2.454 . S
O847 C849 1.353 . S
O848 U846 2.458 . S
O848 C849 1.286 . S
C849 U846 2.984 . S
C849 O847 1.353 . S
C849 O848 1.286 . S
C849 C851 1.363 . S
C850 C840 1.465 . S
C850 U846 2.847 . S
C850 O864 1.249 . S
C850 O865 1.202 . S
C851 C849 1.363 . S
C851 C853 1.408 . S
C851 C856 1.342 . S
C852 C853 1.310 . S
C852 C855 1.461 . S
C852 H872 0.932 . S
C853 C851 1.408 . S
C853 C852 1.310 . S
C853 H873 0.930 . S
C854 C855 1.474 . S
C854 C856 1.285 . S
C854 H874 0.929 . S
C855 C852 1.461 . S
C855 C854 1.474 . S
C856 C851 1.342 . S
C856 C854 1.285 . S
C856 H875 0.930 . S
C857 C860 1.424 . S
C857 C862 1.245 . S
C857 C863 1.428 . S
C858 C861 1.260 . S
C858 C862 1.477 . S
C858 H876 0.932 . S
C859 C860 1.384 . S
C859 C861 1.479 . S
C859 H877 0.929 . S
C860 C857 1.424 . S
C860 C859 1.384 . S
C860 H878 0.928 . S
C861 C858 1.260 . S
C861 C859 1.479 . S
C862 C857 1.245 . S
C862 C858 1.477 . S
C862 H879 0.932 . S
C863 U846 2.882 . S
C863 C857 1.428 . S
C863 O866 1.301 . S
C863 O867 1.282 . S
O864 U846 2.441 . S
O864 C850 1.249 . S
O865 U846 2.420 . S
O865 C850 1.202 . S
O866 U846 2.455 . S
O866 C863 1.301 . S
O867 U846 2.449 . S
O867 C863 1.282 . S
H868 C841 0.931 . S
H869 C843 0.929 . S
H870 C844 0.930 . S
H871 C845 0.931 . S
H872 C852 0.932 . S
H873 C853 0.930 . S
H874 C854 0.929 . S
H875 C856 0.930 . S
H876 C858 0.932 . S
H877 C859 0.929 . S
H878 C860 0.928 . S
H879 C862 0.932 . S
C880 C881 1.264 . S
C880 C885 1.479 . S
C880 C890 1.465 . S
C881 C880 1.264 . S
C881 C883 1.339 . S
C881 H908 0.931 . S
C882 C883 1.395 . S
C882 C884 1.320 . S
C883 C881 1.339 . S
C883 C882 1.395 . S
C883 H909 0.929 . S
C884 C882 1.320 . S
C884 C885 1.405 . S
C884 H910 0.930 . S
C885 C880 1.479 . S
C885 C884 1.405 . S
C885 H911 0.931 . S
U886 O887 2.454 . S
U886 O888 2.458 . S
U886 C889 2.984 . S
U886 C890 2.847 . S
U886 C903 2.882 . S
U886 O904 2.441 . S
U886 O905 2.420 . S
U886 O906 2.455 . S
U886 O907 2.449 . S
O887 U886 2.454 . S
O887 C889 1.353 . S
O888 U886 2.458 . S
O888 C889 1.286 . S
C889 U886 2.984 . S
C889 O887 1.353 . S
C889 O888 1.286 . S
C889 C891 1.363 . S
C890 C880 1.465 . S
C890 U886 2.847 . S
C890 O904 1.249 . S
C890 O905 1.202 . S
C891 C889 1.363 . S
C891 C893 1.408 . S
C891 C896 1.342 . S
C892 C893 1.310 . S
C892 C895 1.461 . S
C892 H912 0.932 . S
C893 C891 1.408 . S
C893 C892 1.310 . S
C893 H913 0.930 . S
C894 C895 1.474 . S
C894 C896 1.285 . S
C894 H914 0.929 . S
C895 C892 1.461 . S
C895 C894 1.474 . S
C896 C891 1.342 . S
C896 C894 1.285 . S
C896 H915 0.930 . S
C897 C900 1.424 . S
C897 C902 1.245 . S
C897 C903 1.428 . S
C898 C901 1.260 . S
C898 C902 1.477 . S
C898 H916 0.932 . S
C899 C900 1.384 . S
C899 C901 1.479 . S
C899 H917 0.929 . S
C900 C897 1.424 . S
C900 C899 1.384 . S
C900 H918 0.928 . S
C901 C898 1.260 . S
C901 C899 1.479 . S
C902 C897 1.245 . S
C902 C898 1.477 . S
C902 H919 0.932 . S
C903 U886 2.882 . S
C903 C897 1.428 . S
C903 O906 1.301 . S
C903 O907 1.282 . S
O904 U886 2.441 . S
O904 C890 1.249 . S
O905 U886 2.420 . S
O905 C890 1.202 . S
O906 U886 2.455 . S
O906 C903 1.301 . S
O907 U886 2.449 . S
O907 C903 1.282 . S
H908 C881 0.931 . S
H909 C883 0.929 . S
H910 C884 0.930 . S
H911 C885 0.931 . S
H912 C892 0.932 . S
H913 C893 0.930 . S
H914 C894 0.929 . S
H915 C896 0.930 . S
H916 C898 0.932 . S
H917 C899 0.929 . S
H918 C900 0.928 . S
H919 C902 0.932 . S
C920 C921 1.264 . S
C920 C925 1.479 . S
C920 C930 1.465 . S
C921 C920 1.264 . S
C921 C923 1.339 . S
C921 H948 0.931 . S
C922 C923 1.395 . S
C922 C924 1.320 . S
C923 C921 1.339 . S
C923 C922 1.395 . S
C923 H949 0.929 . S
C924 C922 1.320 . S
C924 C925 1.405 . S
C924 H950 0.930 . S
C925 C920 1.479 . S
C925 C924 1.405 . S
C925 H951 0.931 . S
U926 O927 2.454 . S
U926 O928 2.458 . S
U926 C929 2.984 . S
U926 C930 2.847 . S
U926 C943 2.882 . S
U926 O944 2.441 . S
U926 O945 2.420 . S
U926 O946 2.455 . S
U926 O947 2.449 . S
O927 U926 2.454 . S
O927 C929 1.353 . S
O928 U926 2.458 . S
O928 C929 1.286 . S
C929 U926 2.984 . S
C929 O927 1.353 . S
C929 O928 1.286 . S
C929 C931 1.363 . S
C930 C920 1.465 . S
C930 U926 2.847 . S
C930 O944 1.249 . S
C930 O945 1.202 . S
C931 C929 1.363 . S
C931 C933 1.408 . S
C931 C936 1.342 . S
C932 C933 1.310 . S
C932 C935 1.461 . S
C932 H952 0.932 . S
C933 C931 1.408 . S
C933 C932 1.310 . S
C933 H953 0.930 . S
C934 C935 1.474 . S
C934 C936 1.285 . S
C934 H954 0.929 . S
C935 C932 1.461 . S
C935 C934 1.474 . S
C936 C931 1.342 . S
C936 C934 1.285 . S
C936 H955 0.930 . S
C937 C940 1.424 . S
C937 C942 1.245 . S
C937 C943 1.428 . S
C938 C941 1.260 . S
C938 C942 1.477 . S
C938 H956 0.932 . S
C939 C940 1.384 . S
C939 C941 1.479 . S
C939 H957 0.929 . S
C940 C937 1.424 . S
C940 C939 1.384 . S
C940 H958 0.928 . S
C941 C938 1.260 . S
C941 C939 1.479 . S
C942 C937 1.245 . S
C942 C938 1.477 . S
C942 H959 0.932 . S
C943 U926 2.882 . S
C943 C937 1.428 . S
C943 O946 1.301 . S
C943 O947 1.282 . S
O944 U926 2.441 . S
O944 C930 1.249 . S
O945 U926 2.420 . S
O945 C930 1.202 . S
O946 U926 2.455 . S
O946 C943 1.301 . S
O947 U926 2.449 . S
O947 C943 1.282 . S
H948 C921 0.931 . S
H949 C923 0.929 . S
H950 C924 0.930 . S
H951 C925 0.931 . S
H952 C932 0.932 . S
H953 C933 0.930 . S
H954 C934 0.929 . S
H955 C936 0.930 . S
H956 C938 0.932 . S
H957 C939 0.929 . S
H958 C940 0.928 . S
H959 C942 0.932 . S
C960 C961 1.264 . S
C960 C965 1.479 . S
C960 C970 1.465 . S
C961 C960 1.264 . S
C961 C963 1.339 . S
C961 H988 0.931 . S
C962 C963 1.395 . S
C962 C964 1.320 . S
C963 C961 1.339 . S
C963 C962 1.395 . S
C963 H989 0.929 . S
C964 C962 1.320 . S
C964 C965 1.405 . S
C964 H990 0.930 . S
C965 C960 1.479 . S
C965 C964 1.405 . S
C965 H991 0.931 . S
U966 O967 2.454 . S
U966 O968 2.458 . S
U966 C969 2.984 . S
U966 C970 2.847 . S
U966 C983 2.882 . S
U966 O984 2.441 . S
U966 O985 2.420 . S
U966 O986 2.455 . S
U966 O987 2.449 . S
O967 U966 2.454 . S
O967 C969 1.353 . S
O968 U966 2.458 . S
O968 C969 1.286 . S
C969 U966 2.984 . S
C969 O967 1.353 . S
C969 O968 1.286 . S
C969 C971 1.363 . S
C970 C960 1.465 . S
C970 U966 2.847 . S
C970 O984 1.249 . S
C970 O985 1.202 . S
C971 C969 1.363 . S
C971 C973 1.408 . S
C971 C976 1.342 . S
C972 C973 1.310 . S
C972 C975 1.461 . S
C972 H992 0.932 . S
C973 C971 1.408 . S
C973 C972 1.310 . S
C973 H993 0.930 . S
C974 C975 1.474 . S
C974 C976 1.285 . S
C974 H994 0.929 . S
C975 C972 1.461 . S
C975 C974 1.474 . S
C976 C971 1.342 . S
C976 C974 1.285 . S
C976 H995 0.930 . S
C977 C980 1.424 . S
C977 C982 1.245 . S
C977 C983 1.428 . S
C978 C981 1.260 . S
C978 C982 1.477 . S
C978 H996 0.932 . S
C979 C980 1.384 . S
C979 C981 1.479 . S
C979 H997 0.929 . S
C980 C977 1.424 . S
C980 C979 1.384 . S
C980 H998 0.928 . S
C981 C978 1.260 . S
C981 C979 1.479 . S
C982 C977 1.245 . S
C982 C978 1.477 . S
C982 H999 0.932 . S
C983 U966 2.882 . S
C983 C977 1.428 . S
C983 O986 1.301 . S
C983 O987 1.282 . S
O984 U966 2.441 . S
O984 C970 1.249 . S
O985 U966 2.420 . S
O985 C970 1.202 . S
O986 U966 2.455 . S
O986 C983 1.301 . S
O987 U966 2.449 . S
O987 C983 1.282 . S
H988 C961 0.931 . S
H989 C963 0.929 . S
H990 C964 0.930 . S
H991 C965 0.931 . S
H992 C972 0.932 . S
H993 C973 0.930 . S
H994 C974 0.929 . S
H995 C976 0.930 . S
H996 C978 0.932 . S
H997 C979 0.929 . S
H998 C980 0.928 . S
H999 C982 0.932 . S
C1000 C1001 1.264 . S
C1000 C1005 1.479 . S
C1000 C1010 1.465 . S
C1001 C1000 1.264 . S
C1001 C1003 1.339 . S
C1001 H1028 0.931 . S
C1002 C1003 1.395 . S
C1002 C1004 1.320 . S
C1003 C1001 1.339 . S
C1003 C1002 1.395 . S
C1003 H1029 0.929 . S
C1004 C1002 1.320 . S
C1004 C1005 1.405 . S
C1004 H1030 0.930 . S
C1005 C1000 1.479 . S
C1005 C1004 1.405 . S
C1005 H1031 0.931 . S
U1006 O1007 2.454 . S
U1006 O1008 2.458 . S
U1006 C1009 2.984 . S
U1006 C1010 2.847 . S
U1006 C1023 2.882 . S
U1006 O1024 2.441 . S
U1006 O1025 2.420 . S
U1006 O1026 2.455 . S
U1006 O1027 2.449 . S
O1007 U1006 2.454 . S
O1007 C1009 1.353 . S
O1008 U1006 2.458 . S
O1008 C1009 1.286 . S
C1009 U1006 2.984 . S
C1009 O1007 1.353 . S
C1009 O1008 1.286 . S
C1009 C1011 1.363 . S
C1010 C1000 1.465 . S
C1010 U1006 2.847 . S
C1010 O1024 1.249 . S
C1010 O1025 1.202 . S
C1011 C1009 1.363 . S
C1011 C1013 1.408 . S
C1011 C1016 1.342 . S
C1012 C1013 1.310 . S
C1012 C1015 1.461 . S
C1012 H1032 0.932 . S
C1013 C1011 1.408 . S
C1013 C1012 1.310 . S
C1013 H1033 0.930 . S
C1014 C1015 1.474 . S
C1014 C1016 1.285 . S
C1014 H1034 0.929 . S
C1015 C1012 1.461 . S
C1015 C1014 1.474 . S
C1016 C1011 1.342 . S
C1016 C1014 1.285 . S
C1016 H1035 0.930 . S
C1017 C1020 1.424 . S
C1017 C1022 1.245 . S
C1017 C1023 1.428 . S
C1018 C1021 1.260 . S
C1018 C1022 1.477 . S
C1018 H1036 0.932 . S
C1019 C1020 1.384 . S
C1019 C1021 1.479 . S
C1019 H1037 0.929 . S
C1020 C1017 1.424 . S
C1020 C1019 1.384 . S
C1020 H1038 0.928 . S
C1021 C1018 1.260 . S
C1021 C1019 1.479 . S
C1022 C1017 1.245 . S
C1022 C1018 1.477 . S
C1022 H1039 0.932 . S
C1023 U1006 2.882 . S
C1023 C1017 1.428 . S
C1023 O1026 1.301 . S
C1023 O1027 1.282 . S
O1024 U1006 2.441 . S
O1024 C1010 1.249 . S
O1025 U1006 2.420 . S
O1025 C1010 1.202 . S
O1026 U1006 2.455 . S
O1026 C1023 1.301 . S
O1027 U1006 2.449 . S
O1027 C1023 1.282 . S
H1028 C1001 0.931 . S
H1029 C1003 0.929 . S
H1030 C1004 0.930 . S
H1031 C1005 0.931 . S
H1032 C1012 0.932 . S
H1033 C1013 0.930 . S
H1034 C1014 0.929 . S
H1035 C1016 0.930 . S
H1036 C1018 0.932 . S
H1037 C1019 0.929 . S
H1038 C1020 0.928 . S
H1039 C1022 0.932 . S
C1040 C1041 1.264 . S
C1040 C1045 1.479 . S
C1040 C1050 1.465 . S
C1041 C1040 1.264 . S
C1041 C1043 1.339 . S
C1041 H1068 0.931 . S
C1042 C1043 1.395 . S
C1042 C1044 1.320 . S
C1043 C1041 1.339 . S
C1043 C1042 1.395 . S
C1043 H1069 0.929 . S
C1044 C1042 1.320 . S
C1044 C1045 1.405 . S
C1044 H1070 0.930 . S
C1045 C1040 1.479 . S
C1045 C1044 1.405 . S
C1045 H1071 0.931 . S
U1046 O1047 2.454 . S
U1046 O1048 2.458 . S
U1046 C1049 2.984 . S
U1046 C1050 2.847 . S
U1046 C1063 2.882 . S
U1046 O1064 2.441 . S
U1046 O1065 2.420 . S
U1046 O1066 2.455 . S
U1046 O1067 2.449 . S
O1047 U1046 2.454 . S
O1047 C1049 1.353 . S
O1048 U1046 2.458 . S
O1048 C1049 1.286 . S
C1049 U1046 2.984 . S
C1049 O1047 1.353 . S
C1049 O1048 1.286 . S
C1049 C1051 1.363 . S
C1050 C1040 1.465 . S
C1050 U1046 2.847 . S
C1050 O1064 1.249 . S
C1050 O1065 1.202 . S
C1051 C1049 1.363 . S
C1051 C1053 1.408 . S
C1051 C1056 1.342 . S
C1052 C1053 1.310 . S
C1052 C1055 1.461 . S
C1052 H1072 0.932 . S
C1053 C1051 1.408 . S
C1053 C1052 1.310 . S
C1053 H1073 0.930 . S
C1054 C1055 1.474 . S
C1054 C1056 1.285 . S
C1054 H1074 0.929 . S
C1055 C1052 1.461 . S
C1055 C1054 1.474 . S
C1056 C1051 1.342 . S
C1056 C1054 1.285 . S
C1056 H1075 0.930 . S
C1057 C1060 1.424 . S
C1057 C1062 1.245 . S
C1057 C1063 1.428 . S
C1058 C1061 1.260 . S
C1058 C1062 1.477 . S
C1058 H1076 0.932 . S
C1059 C1060 1.384 . S
C1059 C1061 1.479 . S
C1059 H1077 0.929 . S
C1060 C1057 1.424 . S
C1060 C1059 1.384 . S
C1060 H1078 0.928 . S
C1061 C1058 1.260 . S
C1061 C1059 1.479 . S
C1062 C1057 1.245 . S
C1062 C1058 1.477 . S
C1062 H1079 0.932 . S
C1063 U1046 2.882 . S
C1063 C1057 1.428 . S
C1063 O1066 1.301 . S
C1063 O1067 1.282 . S
O1064 U1046 2.441 . S
O1064 C1050 1.249 . S
O1065 U1046 2.420 . S
O1065 C1050 1.202 . S
O1066 U1046 2.455 . S
O1066 C1063 1.301 . S
O1067 U1046 2.449 . S
O1067 C1063 1.282 . S
H1068 C1041 0.931 . S
H1069 C1043 0.929 . S
H1070 C1044 0.930 . S
H1071 C1045 0.931 . S
H1072 C1052 0.932 . S
H1073 C1053 0.930 . S
H1074 C1054 0.929 . S
H1075 C1056 0.930 . S
H1076 C1058 0.932 . S
H1077 C1059 0.929 . S
H1078 C1060 0.928 . S
H1079 C1062 0.932 . S
C1080 C1081 1.264 . S
C1080 C1085 1.479 . S
C1080 C1090 1.465 . S
C1081 C1080 1.264 . S
C1081 C1083 1.339 . S
C1081 H1108 0.931 . S
C1082 C1083 1.395 . S
C1082 C1084 1.320 . S
C1083 C1081 1.339 . S
C1083 C1082 1.395 . S
C1083 H1109 0.929 . S
C1084 C1082 1.320 . S
C1084 C1085 1.405 . S
C1084 H1110 0.930 . S
C1085 C1080 1.479 . S
C1085 C1084 1.405 . S
C1085 H1111 0.931 . S
U1086 O1087 2.454 . S
U1086 O1088 2.458 . S
U1086 C1089 2.984 . S
U1086 C1090 2.847 . S
U1086 C1103 2.882 . S
U1086 O1104 2.441 . S
U1086 O1105 2.420 . S
U1086 O1106 2.455 . S
U1086 O1107 2.449 . S
O1087 U1086 2.454 . S
O1087 C1089 1.353 . S
O1088 U1086 2.458 . S
O1088 C1089 1.286 . S
C1089 U1086 2.984 . S
C1089 O1087 1.353 . S
C1089 O1088 1.286 . S
C1089 C1091 1.363 . S
C1090 C1080 1.465 . S
C1090 U1086 2.847 . S
C1090 O1104 1.249 . S
C1090 O1105 1.202 . S
C1091 C1089 1.363 . S
C1091 C1093 1.408 . S
C1091 C1096 1.342 . S
C1092 C1093 1.310 . S
C1092 C1095 1.461 . S
C1092 H1112 0.932 . S
C1093 C1091 1.408 . S
C1093 C1092 1.310 . S
C1093 H1113 0.930 . S
C1094 C1095 1.474 . S
C1094 C1096 1.285 . S
C1094 H1114 0.929 . S
C1095 C1092 1.461 . S
C1095 C1094 1.474 . S
C1096 C1091 1.342 . S
C1096 C1094 1.285 . S
C1096 H1115 0.930 . S
C1097 C1100 1.424 . S
C1097 C1102 1.245 . S
C1097 C1103 1.428 . S
C1098 C1101 1.260 . S
C1098 C1102 1.477 . S
C1098 H1116 0.932 . S
C1099 C1100 1.384 . S
C1099 C1101 1.479 . S
C1099 H1117 0.929 . S
C1100 C1097 1.424 . S
C1100 C1099 1.384 . S
C1100 H1118 0.928 . S
C1101 C1098 1.260 . S
C1101 C1099 1.479 . S
C1102 C1097 1.245 . S
C1102 C1098 1.477 . S
C1102 H1119 0.932 . S
C1103 U1086 2.882 . S
C1103 C1097 1.428 . S
C1103 O1106 1.301 . S
C1103 O1107 1.282 . S
O1104 U1086 2.441 . S
O1104 C1090 1.249 . S
O1105 U1086 2.420 . S
O1105 C1090 1.202 . S
O1106 U1086 2.455 . S
O1106 C1103 1.301 . S
O1107 U1086 2.449 . S
O1107 C1103 1.282 . S
H1108 C1081 0.931 . S
H1109 C1083 0.929 . S
H1110 C1084 0.930 . S
H1111 C1085 0.931 . S
H1112 C1092 0.932 . S
H1113 C1093 0.930 . S
H1114 C1094 0.929 . S
H1115 C1096 0.930 . S
H1116 C1098 0.932 . S
H1117 C1099 0.929 . S
H1118 C1100 0.928 . S
H1119 C1102 0.932 . S
C1120 C1121 1.264 . S
C1120 C1125 1.479 . S
C1120 C1130 1.465 . S
C1121 C1120 1.264 . S
C1121 C1123 1.339 . S
C1121 H1148 0.931 . S
C1122 C1123 1.395 . S
C1122 C1124 1.320 . S
C1123 C1121 1.339 . S
C1123 C1122 1.395 . S
C1123 H1149 0.929 . S
C1124 C1122 1.320 . S
C1124 C1125 1.405 . S
C1124 H1150 0.930 . S
C1125 C1120 1.479 . S
C1125 C1124 1.405 . S
C1125 H1151 0.931 . S
U1126 O1127 2.454 . S
U1126 O1128 2.458 . S
U1126 C1129 2.984 . S
U1126 C1130 2.847 . S
U1126 C1143 2.882 . S
U1126 O1144 2.441 . S
U1126 O1145 2.420 . S
U1126 O1146 2.455 . S
U1126 O1147 2.449 . S
O1127 U1126 2.454 . S
O1127 C1129 1.353 . S
O1128 U1126 2.458 . S
O1128 C1129 1.286 . S
C1129 U1126 2.984 . S
C1129 O1127 1.353 . S
C1129 O1128 1.286 . S
C1129 C1131 1.363 . S
C1130 C1120 1.465 . S
C1130 U1126 2.847 . S
C1130 O1144 1.249 . S
C1130 O1145 1.202 . S
C1131 C1129 1.363 . S
C1131 C1133 1.408 . S
C1131 C1136 1.342 . S
C1132 C1133 1.310 . S
C1132 C1135 1.461 . S
C1132 H1152 0.932 . S
C1133 C1131 1.408 . S
C1133 C1132 1.310 . S
C1133 H1153 0.930 . S
C1134 C1135 1.474 . S
C1134 C1136 1.285 . S
C1134 H1154 0.929 . S
C1135 C1132 1.461 . S
C1135 C1134 1.474 . S
C1136 C1131 1.342 . S
C1136 C1134 1.285 . S
C1136 H1155 0.930 . S
C1137 C1140 1.424 . S
C1137 C1142 1.245 . S
C1137 C1143 1.428 . S
C1138 C1141 1.260 . S
C1138 C1142 1.477 . S
C1138 H1156 0.932 . S
C1139 C1140 1.384 . S
C1139 C1141 1.479 . S
C1139 H1157 0.929 . S
C1140 C1137 1.424 . S
C1140 C1139 1.384 . S
C1140 H1158 0.928 . S
C1141 C1138 1.260 . S
C1141 C1139 1.479 . S
C1142 C1137 1.245 . S
C1142 C1138 1.477 . S
C1142 H1159 0.932 . S
C1143 U1126 2.882 . S
C1143 C1137 1.428 . S
C1143 O1146 1.301 . S
C1143 O1147 1.282 . S
O1144 U1126 2.441 . S
O1144 C1130 1.249 . S
O1145 U1126 2.420 . S
O1145 C1130 1.202 . S
O1146 U1126 2.455 . S
O1146 C1143 1.301 . S
O1147 U1126 2.449 . S
O1147 C1143 1.282 . S
H1148 C1121 0.931 . S
H1149 C1123 0.929 . S
H1150 C1124 0.930 . S
H1151 C1125 0.931 . S
H1152 C1132 0.932 . S
H1153 C1133 0.930 . S
H1154 C1134 0.929 . S
H1155 C1136 0.930 . S
H1156 C1138 0.932 . S
H1157 C1139 0.929 . S
H1158 C1140 0.928 . S
H1159 C1142 0.932 . S
C1160 C1161 1.264 . S
C1160 C1165 1.479 . S
C1160 C1170 1.465 . S
C1161 C1160 1.264 . S
C1161 C1163 1.339 . S
C1161 H1188 0.931 . S
C1162 C1163 1.395 . S
C1162 C1164 1.320 . S
C1163 C1161 1.339 . S
C1163 C1162 1.395 . S
C1163 H1189 0.929 . S
C1164 C1162 1.320 . S
C1164 C1165 1.405 . S
C1164 H1190 0.930 . S
C1165 C1160 1.479 . S
C1165 C1164 1.405 . S
C1165 H1191 0.931 . S
U1166 O1167 2.454 . S
U1166 O1168 2.458 . S
U1166 C1169 2.984 . S
U1166 C1170 2.847 . S
U1166 C1183 2.882 . S
U1166 O1184 2.441 . S
U1166 O1185 2.420 . S
U1166 O1186 2.455 . S
U1166 O1187 2.449 . S
O1167 U1166 2.454 . S
O1167 C1169 1.353 . S
O1168 U1166 2.458 . S
O1168 C1169 1.286 . S
C1169 U1166 2.984 . S
C1169 O1167 1.353 . S
C1169 O1168 1.286 . S
C1169 C1171 1.363 . S
C1170 C1160 1.465 . S
C1170 U1166 2.847 . S
C1170 O1184 1.249 . S
C1170 O1185 1.202 . S
C1171 C1169 1.363 . S
C1171 C1173 1.408 . S
C1171 C1176 1.342 . S
C1172 C1173 1.310 . S
C1172 C1175 1.461 . S
C1172 H1192 0.932 . S
C1173 C1171 1.408 . S
C1173 C1172 1.310 . S
C1173 H1193 0.930 . S
C1174 C1175 1.474 . S
C1174 C1176 1.285 . S
C1174 H1194 0.929 . S
C1175 C1172 1.461 . S
C1175 C1174 1.474 . S
C1176 C1171 1.342 . S
C1176 C1174 1.285 . S
C1176 H1195 0.930 . S
C1177 C1180 1.424 . S
C1177 C1182 1.245 . S
C1177 C1183 1.428 . S
C1178 C1181 1.260 . S
C1178 C1182 1.477 . S
C1178 H1196 0.932 . S
C1179 C1180 1.384 . S
C1179 C1181 1.479 . S
C1179 H1197 0.929 . S
C1180 C1177 1.424 . S
C1180 C1179 1.384 . S
C1180 H1198 0.928 . S
C1181 C1178 1.260 . S
C1181 C1179 1.479 . S
C1182 C1177 1.245 . S
C1182 C1178 1.477 . S
C1182 H1199 0.932 . S
C1183 U1166 2.882 . S
C1183 C1177 1.428 . S
C1183 O1186 1.301 . S
C1183 O1187 1.282 . S
O1184 U1166 2.441 . S
O1184 C1170 1.249 . S
O1185 U1166 2.420 . S
O1185 C1170 1.202 . S
O1186 U1166 2.455 . S
O1186 C1183 1.301 . S
O1187 U1166 2.449 . S
O1187 C1183 1.282 . S
H1188 C1161 0.931 . S
H1189 C1163 0.929 . S
H1190 C1164 0.930 . S
H1191 C1165 0.931 . S
H1192 C1172 0.932 . S
H1193 C1173 0.930 . S
H1194 C1174 0.929 . S
H1195 C1176 0.930 . S
H1196 C1178 0.932 . S
H1197 C1179 0.929 . S
H1198 C1180 0.928 . S
H1199 C1182 0.932 . S
C1200 C1201 1.264 . S
C1200 C1205 1.479 . S
C1200 C1210 1.465 . S
C1201 C1200 1.264 . S
C1201 C1203 1.339 . S
C1201 H1228 0.931 . S
C1202 C1203 1.395 . S
C1202 C1204 1.320 . S
C1203 C1201 1.339 . S
C1203 C1202 1.395 . S
C1203 H1229 0.929 . S
C1204 C1202 1.320 . S
C1204 C1205 1.405 . S
C1204 H1230 0.930 . S
C1205 C1200 1.479 . S
C1205 C1204 1.405 . S
C1205 H1231 0.931 . S
U1206 O1207 2.454 . S
U1206 O1208 2.458 . S
U1206 C1209 2.984 . S
U1206 C1210 2.847 . S
U1206 C1223 2.882 . S
U1206 O1224 2.441 . S
U1206 O1225 2.420 . S
U1206 O1226 2.455 . S
U1206 O1227 2.449 . S
O1207 U1206 2.454 . S
O1207 C1209 1.353 . S
O1208 U1206 2.458 . S
O1208 C1209 1.286 . S
C1209 U1206 2.984 . S
C1209 O1207 1.353 . S
C1209 O1208 1.286 . S
C1209 C1211 1.363 . S
C1210 C1200 1.465 . S
C1210 U1206 2.847 . S
C1210 O1224 1.249 . S
C1210 O1225 1.202 . S
C1211 C1209 1.363 . S
C1211 C1213 1.408 . S
C1211 C1216 1.342 . S
C1212 C1213 1.310 . S
C1212 C1215 1.461 . S
C1212 H1232 0.932 . S
C1213 C1211 1.408 . S
C1213 C1212 1.310 . S
C1213 H1233 0.930 . S
C1214 C1215 1.474 . S
C1214 C1216 1.285 . S
C1214 H1234 0.929 . S
C1215 C1212 1.461 . S
C1215 C1214 1.474 . S
C1216 C1211 1.342 . S
C1216 C1214 1.285 . S
C1216 H1235 0.930 . S
C1217 C1220 1.424 . S
C1217 C1222 1.245 . S
C1217 C1223 1.428 . S
C1218 C1221 1.260 . S
C1218 C1222 1.477 . S
C1218 H1236 0.932 . S
C1219 C1220 1.384 . S
C1219 C1221 1.479 . S
C1219 H1237 0.929 . S
C1220 C1217 1.424 . S
C1220 C1219 1.384 . S
C1220 H1238 0.928 . S
C1221 C1218 1.260 . S
C1221 C1219 1.479 . S
C1222 C1217 1.245 . S
C1222 C1218 1.477 . S
C1222 H1239 0.932 . S
C1223 U1206 2.882 . S
C1223 C1217 1.428 . S
C1223 O1226 1.301 . S
C1223 O1227 1.282 . S
O1224 U1206 2.441 . S
O1224 C1210 1.249 . S
O1225 U1206 2.420 . S
O1225 C1210 1.202 . S
O1226 U1206 2.455 . S
O1226 C1223 1.301 . S
O1227 U1206 2.449 . S
O1227 C1223 1.282 . S
H1228 C1201 0.931 . S
H1229 C1203 0.929 . S
H1230 C1204 0.930 . S
H1231 C1205 0.931 . S
H1232 C1212 0.932 . S
H1233 C1213 0.930 . S
H1234 C1214 0.929 . S
H1235 C1216 0.930 . S
H1236 C1218 0.932 . S
H1237 C1219 0.929 . S
H1238 C1220 0.928 . S
H1239 C1222 0.932 . S
C1240 C1241 1.264 . S
C1240 C1245 1.479 . S
C1240 C1250 1.465 . S
C1241 C1240 1.264 . S
C1241 C1243 1.339 . S
C1241 H1268 0.931 . S
C1242 C1243 1.395 . S
C1242 C1244 1.320 . S
C1243 C1241 1.339 . S
C1243 C1242 1.395 . S
C1243 H1269 0.929 . S
C1244 C1242 1.320 . S
C1244 C1245 1.405 . S
C1244 H1270 0.930 . S
C1245 C1240 1.479 . S
C1245 C1244 1.405 . S
C1245 H1271 0.931 . S
U1246 O1247 2.454 . S
U1246 O1248 2.458 . S
U1246 C1249 2.984 . S
U1246 C1250 2.847 . S
U1246 C1263 2.882 . S
U1246 O1264 2.441 . S
U1246 O1265 2.420 . S
U1246 O1266 2.455 . S
U1246 O1267 2.449 . S
O1247 U1246 2.454 . S
O1247 C1249 1.353 . S
O1248 U1246 2.458 . S
O1248 C1249 1.286 . S
C1249 U1246 2.984 . S
C1249 O1247 1.353 . S
C1249 O1248 1.286 . S
C1249 C1251 1.363 . S
C1250 C1240 1.465 . S
C1250 U1246 2.847 . S
C1250 O1264 1.249 . S
C1250 O1265 1.202 . S
C1251 C1249 1.363 . S
C1251 C1253 1.408 . S
C1251 C1256 1.342 . S
C1252 C1253 1.310 . S
C1252 C1255 1.461 . S
C1252 H1272 0.932 . S
C1253 C1251 1.408 . S
C1253 C1252 1.310 . S
C1253 H1273 0.930 . S
C1254 C1255 1.474 . S
C1254 C1256 1.285 . S
C1254 H1274 0.929 . S
C1255 C1252 1.461 . S
C1255 C1254 1.474 . S
C1256 C1251 1.342 . S
C1256 C1254 1.285 . S
C1256 H1275 0.930 . S
C1257 C1260 1.424 . S
C1257 C1262 1.245 . S
C1257 C1263 1.428 . S
C1258 C1261 1.260 . S
C1258 C1262 1.477 . S
C1258 H1276 0.932 . S
C1259 C1260 1.384 . S
C1259 C1261 1.479 . S
C1259 H1277 0.929 . S
C1260 C1257 1.424 . S
C1260 C1259 1.384 . S
C1260 H1278 0.928 . S
C1261 C1258 1.260 . S
C1261 C1259 1.479 . S
C1262 C1257 1.245 . S
C1262 C1258 1.477 . S
C1262 H1279 0.932 . S
C1263 U1246 2.882 . S
C1263 C1257 1.428 . S
C1263 O1266 1.301 . S
C1263 O1267 1.282 . S
O1264 U1246 2.441 . S
O1264 C1250 1.249 . S
O1265 U1246 2.420 . S
O1265 C1250 1.202 . S
O1266 U1246 2.455 . S
O1266 C1263 1.301 . S
O1267 U1246 2.449 . S
O1267 C1263 1.282 . S
H1268 C1241 0.931 . S
H1269 C1243 0.929 . S
H1270 C1244 0.930 . S
H1271 C1245 0.931 . S
H1272 C1252 0.932 . S
H1273 C1253 0.930 . S
H1274 C1254 0.929 . S
H1275 C1256 0.930 . S
H1276 C1258 0.932 . S
H1277 C1259 0.929 . S
H1278 C1260 0.928 . S
H1279 C1262 0.932 . S
H1280 C1299 0.949 . S
H1281 C1300 0.950 . S
H1282 C1302 0.950 . S
H1283 C1303 0.950 . S
H1284 C1305 0.950 . S
H1285 C1308 0.950 . S
H1286 C1309 0.950 . S
H1287 C1311 0.951 . S
H1288 C1312 0.949 . S
H1289 C1314 0.949 . S
H1290 C1315 0.950 . S
H1291 C1317 0.950 . S
H1292 C1318 0.950 . S
H1293 C1320 0.950 . S
H1294 C1323 0.950 . S
H1295 C1324 0.950 . S
H1296 C1326 0.951 . S
H1297 C1327 0.949 . S
C1298 C1299 1.376 . S
C1298 C1303 1.386 . S
C1298 C1304 1.483 . S
C1299 H1280 0.949 . S
C1299 C1298 1.376 . S
C1299 C1300 1.397 . S
C1300 H1281 0.950 . S
C1300 C1299 1.397 . S
C1300 C1301 1.391 . S
C1301 C1300 1.391 . S
C1301 C1302 1.405 . S
C1302 H1282 0.950 . S
C1302 C1301 1.405 . S
C1302 C1303 1.367 . S
C1303 H1283 0.950 . S
C1303 C1298 1.386 . S
C1303 C1302 1.367 . S
C1304 C1298 1.483 . S
C1304 C1305 1.382 1_556 S
C1304 C1306 1.403 . S
C1305 H1284 0.950 . S
C1305 C1304 1.382 1_554 S
C1305 C1321 1.411 . S
C1306 C1304 1.403 . S
C1306 C1307 1.489 . S
C1306 C1320 1.411 1_556 S
C1307 C1306 1.489 . S
C1307 C1308 1.383 . S
C1307 C1312 1.382 . S
C1308 H1285 0.950 . S
C1308 C1307 1.383 . S
C1308 C1309 1.395 . S
C1309 H1286 0.950 . S
C1309 C1308 1.395 . S
C1309 C1310 1.288 . S
C1310 C1309 1.288 . S
C1310 C1311 1.392 . S
C1311 H1287 0.951 . S
C1311 C1310 1.392 . S
C1311 C1312 1.392 . S
C1312 H1288 0.949 . S
C1312 C1307 1.382 . S
C1312 C1311 1.392 . S
C1313 C1314 1.376 . S
C1313 C1318 1.386 . S
C1313 C1319 1.483 . S
C1314 H1289 0.949 . S
C1314 C1313 1.376 . S
C1314 C1315 1.397 . S
C1315 H1290 0.950 . S
C1315 C1314 1.397 . S
C1315 C1316 1.391 . S
C1316 C1315 1.391 . S
C1316 C1317 1.405 . S
C1317 H1291 0.950 . S
C1317 C1316 1.405 . S
C1317 C1318 1.367 . S
C1318 H1292 0.950 . S
C1318 C1313 1.386 . S
C1318 C1317 1.367 . S
C1319 C1313 1.483 . S
C1319 C1320 1.382 . S
C1319 C1321 1.403 . S
C1320 H1293 0.950 . S
C1320 C1306 1.411 1_554 S
C1320 C1319 1.382 . S
C1321 C1305 1.411 . S
C1321 C1319 1.403 . S
C1321 C1322 1.489 . S
C1322 C1321 1.489 . S
C1322 C1323 1.383 . S
C1322 C1327 1.382 . S
C1323 H1294 0.950 . S
C1323 C1322 1.383 . S
C1323 C1324 1.395 . S
C1324 H1295 0.950 . S
C1324 C1323 1.395 . S
C1324 C1325 1.288 . S
C1325 C1324 1.288 . S
C1325 C1326 1.392 . S
C1326 H1296 0.951 . S
C1326 C1325 1.392 . S
C1326 C1327 1.392 . S
C1327 H1297 0.949 . S
C1327 C1322 1.382 . S
C1327 C1326 1.392 . S
H1328 C1347 0.949 . S
H1329 C1348 0.950 . S
H1330 C1350 0.950 . S
H1331 C1351 0.950 . S
H1332 C1353 0.950 . S
H1333 C1356 0.950 . S
H1334 C1357 0.950 . S
H1335 C1359 0.951 . S
H1336 C1360 0.949 . S
H1337 C1362 0.949 . S
H1338 C1363 0.950 . S
H1339 C1365 0.950 . S
H1340 C1366 0.950 . S
H1341 C1368 0.950 . S
H1342 C1371 0.950 . S
H1343 C1372 0.950 . S
H1344 C1374 0.951 . S
H1345 C1375 0.949 . S
C1346 C1347 1.376 . S
C1346 C1351 1.386 . S
C1346 C1352 1.483 . S
C1347 H1328 0.949 . S
C1347 C1346 1.376 . S
C1347 C1348 1.397 . S
C1348 H1329 0.950 . S
C1348 C1347 1.397 . S
C1348 C1349 1.391 . S
C1349 C1348 1.391 . S
C1349 C1350 1.405 . S
C1350 H1330 0.950 . S
C1350 C1349 1.405 . S
C1350 C1351 1.367 . S
C1351 H1331 0.950 . S
C1351 C1346 1.386 . S
C1351 C1350 1.367 . S
C1352 C1346 1.483 . S
C1352 C1353 1.382 1_556 S
C1352 C1354 1.403 . S
C1353 H1332 0.950 . S
C1353 C1352 1.382 1_554 S
C1353 C1369 1.411 . S
C1354 C1352 1.403 . S
C1354 C1355 1.489 . S
C1354 C1368 1.411 1_556 S
C1355 C1354 1.489 . S
C1355 C1356 1.383 . S
C1355 C1360 1.382 . S
C1356 H1333 0.950 . S
C1356 C1355 1.383 . S
C1356 C1357 1.395 . S
C1357 H1334 0.950 . S
C1357 C1356 1.395 . S
C1357 C1358 1.288 . S
C1358 C1357 1.288 . S
C1358 C1359 1.392 . S
C1359 H1335 0.951 . S
C1359 C1358 1.392 . S
C1359 C1360 1.392 . S
C1360 H1336 0.949 . S
C1360 C1355 1.382 . S
C1360 C1359 1.392 . S
C1361 C1362 1.376 . S
C1361 C1366 1.386 . S
C1361 C1367 1.483 . S
C1362 H1337 0.949 . S
C1362 C1361 1.376 . S
C1362 C1363 1.397 . S
C1363 H1338 0.950 . S
C1363 C1362 1.397 . S
C1363 C1364 1.391 . S
C1364 C1363 1.391 . S
C1364 C1365 1.405 . S
C1365 H1339 0.950 . S
C1365 C1364 1.405 . S
C1365 C1366 1.367 . S
C1366 H1340 0.950 . S
C1366 C1361 1.386 . S
C1366 C1365 1.367 . S
C1367 C1361 1.483 . S
C1367 C1368 1.382 . S
C1367 C1369 1.403 . S
C1368 H1341 0.950 . S
C1368 C1354 1.411 1_554 S
C1368 C1367 1.382 . S
C1369 C1353 1.411 . S
C1369 C1367 1.403 . S
C1369 C1370 1.489 . S
C1370 C1369 1.489 . S
C1370 C1371 1.383 . S
C1370 C1375 1.382 . S
C1371 H1342 0.950 . S
C1371 C1370 1.383 . S
C1371 C1372 1.395 . S
C1372 H1343 0.950 . S
C1372 C1371 1.395 . S
C1372 C1373 1.288 . S
C1373 C1372 1.288 . S
C1373 C1374 1.392 . S
C1374 H1344 0.951 . S
C1374 C1373 1.392 . S
C1374 C1375 1.392 . S
C1375 H1345 0.949 . S
C1375 C1370 1.382 . S
C1375 C1374 1.392 . S
H1376 C1395 0.949 . S
H1377 C1396 0.950 . S
H1378 C1398 0.950 . S
H1379 C1399 0.950 . S
H1380 C1401 0.950 . S
H1381 C1404 0.950 . S
H1382 C1405 0.950 . S
H1383 C1407 0.951 . S
H1384 C1408 0.949 . S
H1385 C1410 0.949 . S
H1386 C1411 0.950 . S
H1387 C1413 0.950 . S
H1388 C1414 0.950 . S
H1389 C1416 0.950 . S
H1390 C1419 0.950 . S
H1391 C1420 0.950 . S
H1392 C1422 0.951 . S
H1393 C1423 0.949 . S
C1394 C1395 1.376 . S
C1394 C1399 1.386 . S
C1394 C1400 1.483 . S
C1395 H1376 0.949 . S
C1395 C1394 1.376 . S
C1395 C1396 1.397 . S
C1396 H1377 0.950 . S
C1396 C1395 1.397 . S
C1396 C1397 1.391 . S
C1397 C1396 1.391 . S
C1397 C1398 1.405 . S
C1398 H1378 0.950 . S
C1398 C1397 1.405 . S
C1398 C1399 1.367 . S
C1399 H1379 0.950 . S
C1399 C1394 1.386 . S
C1399 C1398 1.367 . S
C1400 C1394 1.483 . S
C1400 C1401 1.382 . S
C1400 C1402 1.403 . S
C1401 H1380 0.950 . S
C1401 C1400 1.382 . S
C1401 C1417 1.411 1_554 S
C1402 C1400 1.403 . S
C1402 C1403 1.489 . S
C1402 C1416 1.411 . S
C1403 C1402 1.489 . S
C1403 C1404 1.383 . S
C1403 C1408 1.382 . S
C1404 H1381 0.950 . S
C1404 C1403 1.383 . S
C1404 C1405 1.395 . S
C1405 H1382 0.950 . S
C1405 C1404 1.395 . S
C1405 C1406 1.288 . S
C1406 C1405 1.288 . S
C1406 C1407 1.392 . S
C1407 H1383 0.951 . S
C1407 C1406 1.392 . S
C1407 C1408 1.392 . S
C1408 H1384 0.949 . S
C1408 C1403 1.382 . S
C1408 C1407 1.392 . S
C1409 C1410 1.376 . S
C1409 C1414 1.386 . S
C1409 C1415 1.483 . S
C1410 H1385 0.949 . S
C1410 C1409 1.376 . S
C1410 C1411 1.397 . S
C1411 H1386 0.950 . S
C1411 C1410 1.397 . S
C1411 C1412 1.391 . S
C1412 C1411 1.391 . S
C1412 C1413 1.405 . S
C1413 H1387 0.950 . S
C1413 C1412 1.405 . S
C1413 C1414 1.367 . S
C1414 H1388 0.950 . S
C1414 C1409 1.386 . S
C1414 C1413 1.367 . S
C1415 C1409 1.483 . S
C1415 C1416 1.382 1_556 S
C1415 C1417 1.403 . S
C1416 H1389 0.950 . S
C1416 C1402 1.411 . S
C1416 C1415 1.382 1_554 S
C1417 C1401 1.411 1_556 S
C1417 C1415 1.403 . S
C1417 C1418 1.489 . S
C1418 C1417 1.489 . S
C1418 C1419 1.383 . S
C1418 C1423 1.382 . S
C1419 H1390 0.950 . S
C1419 C1418 1.383 . S
C1419 C1420 1.395 . S
C1420 H1391 0.950 . S
C1420 C1419 1.395 . S
C1420 C1421 1.288 . S
C1421 C1420 1.288 . S
C1421 C1422 1.392 . S
C1422 H1392 0.951 . S
C1422 C1421 1.392 . S
C1422 C1423 1.392 . S
C1423 H1393 0.949 . S
C1423 C1418 1.382 . S
C1423 C1422 1.392 . S
H1424 C1443 0.949 . S
H1425 C1444 0.950 . S
H1426 C1446 0.950 . S
H1427 C1447 0.950 . S
H1428 C1449 0.950 . S
H1429 C1452 0.950 . S
H1430 C1453 0.950 . S
H1431 C1455 0.951 . S
H1432 C1456 0.949 . S
H1433 C1458 0.949 . S
H1434 C1459 0.950 . S
H1435 C1461 0.950 . S
H1436 C1462 0.950 . S
H1437 C1464 0.950 . S
H1438 C1467 0.950 . S
H1439 C1468 0.950 . S
H1440 C1470 0.951 . S
H1441 C1471 0.949 . S
C1442 C1443 1.376 . S
C1442 C1447 1.386 . S
C1442 C1448 1.483 . S
C1443 H1424 0.949 . S
C1443 C1442 1.376 . S
C1443 C1444 1.397 . S
C1444 H1425 0.950 . S
C1444 C1443 1.397 . S
C1444 C1445 1.391 . S
C1445 C1444 1.391 . S
C1445 C1446 1.405 . S
C1446 H1426 0.950 . S
C1446 C1445 1.405 . S
C1446 C1447 1.367 . S
C1447 H1427 0.950 . S
C1447 C1442 1.386 . S
C1447 C1446 1.367 . S
C1448 C1442 1.483 . S
C1448 C1449 1.382 1_556 S
C1448 C1450 1.403 . S
C1449 H1428 0.950 . S
C1449 C1448 1.382 1_554 S
C1449 C1465 1.411 . S
C1450 C1448 1.403 . S
C1450 C1451 1.489 . S
C1450 C1464 1.411 1_556 S
C1451 C1450 1.489 . S
C1451 C1452 1.383 . S
C1451 C1456 1.382 . S
C1452 H1429 0.950 . S
C1452 C1451 1.383 . S
C1452 C1453 1.395 . S
C1453 H1430 0.950 . S
C1453 C1452 1.395 . S
C1453 C1454 1.288 . S
C1454 C1453 1.288 . S
C1454 C1455 1.392 . S
C1455 H1431 0.951 . S
C1455 C1454 1.392 . S
C1455 C1456 1.392 . S
C1456 H1432 0.949 . S
C1456 C1451 1.382 . S
C1456 C1455 1.392 . S
C1457 C1458 1.376 . S
C1457 C1462 1.386 . S
C1457 C1463 1.483 . S
C1458 H1433 0.949 . S
C1458 C1457 1.376 . S
C1458 C1459 1.397 . S
C1459 H1434 0.950 . S
C1459 C1458 1.397 . S
C1459 C1460 1.391 . S
C1460 C1459 1.391 . S
C1460 C1461 1.405 . S
C1461 H1435 0.950 . S
C1461 C1460 1.405 . S
C1461 C1462 1.367 . S
C1462 H1436 0.950 . S
C1462 C1457 1.386 . S
C1462 C1461 1.367 . S
C1463 C1457 1.483 . S
C1463 C1464 1.382 . S
C1463 C1465 1.403 . S
C1464 H1437 0.950 . S
C1464 C1450 1.411 1_554 S
C1464 C1463 1.382 . S
C1465 C1449 1.411 . S
C1465 C1463 1.403 . S
C1465 C1466 1.489 . S
C1466 C1465 1.489 . S
C1466 C1467 1.383 . S
C1466 C1471 1.382 . S
C1467 H1438 0.950 . S
C1467 C1466 1.383 . S
C1467 C1468 1.395 . S
C1468 H1439 0.950 . S
C1468 C1467 1.395 . S
C1468 C1469 1.288 . S
C1469 C1468 1.288 . S
C1469 C1470 1.392 . S
C1470 H1440 0.951 . S
C1470 C1469 1.392 . S
C1470 C1471 1.392 . S
C1471 H1441 0.949 . S
C1471 C1466 1.382 . S
C1471 C1470 1.392 . S
H1472 C1491 0.949 . S
H1473 C1492 0.950 . S
H1474 C1494 0.950 . S
H1475 C1495 0.950 . S
H1476 C1497 0.950 . S
H1477 C1500 0.950 . S
H1478 C1501 0.950 . S
H1479 C1503 0.951 . S
H1480 C1504 0.949 . S
H1481 C1506 0.949 . S
H1482 C1507 0.950 . S
H1483 C1509 0.950 . S
H1484 C1510 0.950 . S
H1485 C1512 0.950 . S
H1486 C1515 0.950 . S
H1487 C1516 0.950 . S
H1488 C1518 0.951 . S
H1489 C1519 0.949 . S
C1490 C1491 1.376 . S
C1490 C1495 1.386 . S
C1490 C1496 1.483 . S
C1491 H1472 0.949 . S
C1491 C1490 1.376 . S
C1491 C1492 1.397 . S
C1492 H1473 0.950 . S
C1492 C1491 1.397 . S
C1492 C1493 1.391 . S
C1493 C1492 1.391 . S
C1493 C1494 1.405 . S
C1494 H1474 0.950 . S
C1494 C1493 1.405 . S
C1494 C1495 1.367 . S
C1495 H1475 0.950 . S
C1495 C1490 1.386 . S
C1495 C1494 1.367 . S
C1496 C1490 1.483 . S
C1496 C1497 1.382 . S
C1496 C1498 1.403 . S
C1497 H1476 0.950 . S
C1497 C1496 1.382 . S
C1497 C1513 1.411 1_455 S
C1498 C1496 1.403 . S
C1498 C1499 1.489 . S
C1498 C1512 1.411 . S
C1499 C1498 1.489 . S
C1499 C1500 1.383 . S
C1499 C1504 1.382 . S
C1500 H1477 0.950 . S
C1500 C1499 1.383 . S
C1500 C1501 1.395 . S
C1501 H1478 0.950 . S
C1501 C1500 1.395 . S
C1501 C1502 1.288 . S
C1502 C1501 1.288 . S
C1502 C1503 1.392 . S
C1503 H1479 0.951 . S
C1503 C1502 1.392 . S
C1503 C1504 1.392 . S
C1504 H1480 0.949 . S
C1504 C1499 1.382 . S
C1504 C1503 1.392 . S
C1505 C1506 1.376 . S
C1505 C1510 1.386 . S
C1505 C1511 1.483 . S
C1506 H1481 0.949 . S
C1506 C1505 1.376 . S
C1506 C1507 1.397 . S
C1507 H1482 0.950 . S
C1507 C1506 1.397 . S
C1507 C1508 1.391 . S
C1508 C1507 1.391 . S
C1508 C1509 1.405 . S
C1509 H1483 0.950 . S
C1509 C1508 1.405 . S
C1509 C1510 1.367 . S
C1510 H1484 0.950 . S
C1510 C1505 1.386 . S
C1510 C1509 1.367 . S
C1511 C1505 1.483 . S
C1511 C1512 1.382 1_655 S
C1511 C1513 1.403 . S
C1512 H1485 0.950 . S
C1512 C1498 1.411 . S
C1512 C1511 1.382 1_455 S
C1513 C1497 1.411 1_655 S
C1513 C1511 1.403 . S
C1513 C1514 1.489 . S
C1514 C1513 1.489 . S
C1514 C1515 1.383 . S
C1514 C1519 1.382 . S
C1515 H1486 0.950 . S
C1515 C1514 1.383 . S
C1515 C1516 1.395 . S
C1516 H1487 0.950 . S
C1516 C1515 1.395 . S
C1516 C1517 1.288 . S
C1517 C1516 1.288 . S
C1517 C1518 1.392 . S
C1518 H1488 0.951 . S
C1518 C1517 1.392 . S
C1518 C1519 1.392 . S
C1519 H1489 0.949 . S
C1519 C1514 1.382 . S
C1519 C1518 1.392 . S
H1520 C1539 0.949 . S
H1521 C1540 0.950 . S
H1522 C1542 0.950 . S
H1523 C1543 0.950 . S
H1524 C1545 0.950 . S
H1525 C1548 0.950 . S
H1526 C1549 0.950 . S
H1527 C1551 0.951 . S
H1528 C1552 0.949 . S
H1529 C1554 0.949 . S
H1530 C1555 0.950 . S
H1531 C1557 0.950 . S
H1532 C1558 0.950 . S
H1533 C1560 0.950 1_565 S
H1534 C1563 0.950 . S
H1535 C1564 0.950 . S
H1536 C1566 0.951 . S
H1537 C1567 0.949 . S
C1538 C1539 1.376 . S
C1538 C1543 1.386 . S
C1538 C1544 1.483 . S
C1539 H1520 0.949 . S
C1539 C1538 1.376 . S
C1539 C1540 1.397 . S
C1540 H1521 0.950 . S
C1540 C1539 1.397 . S
C1540 C1541 1.391 . S
C1541 C1540 1.391 . S
C1541 C1542 1.405 . S
C1542 H1522 0.950 . S
C1542 C1541 1.405 . S
C1542 C1543 1.367 . S
C1543 H1523 0.950 . S
C1543 C1538 1.386 . S
C1543 C1542 1.367 . S
C1544 C1538 1.483 . S
C1544 C1545 1.382 . S
C1544 C1546 1.403 . S
C1545 H1524 0.950 . S
C1545 C1544 1.382 . S
C1545 C1561 1.411 1_545 S
C1546 C1544 1.403 . S
C1546 C1547 1.489 . S
C1546 C1560 1.408 . S
C1547 C1546 1.489 . S
C1547 C1548 1.383 . S
C1547 C1552 1.382 . S
C1548 H1525 0.950 . S
C1548 C1547 1.383 . S
C1548 C1549 1.395 . S
C1549 H1526 0.950 . S
C1549 C1548 1.395 . S
C1549 C1550 1.288 . S
C1550 C1549 1.288 . S
C1550 C1551 1.392 . S
C1551 H1527 0.951 . S
C1551 C1550 1.392 . S
C1551 C1552 1.392 . S
C1552 H1528 0.949 . S
C1552 C1547 1.382 . S
C1552 C1551 1.392 . S
C1553 C1554 1.376 . S
C1553 C1558 1.386 . S
C1553 C1559 1.483 . S
C1554 H1529 0.949 . S
C1554 C1553 1.376 . S
C1554 C1555 1.397 . S
C1555 H1530 0.950 . S
C1555 C1554 1.397 . S
C1555 C1556 1.391 . S
C1556 C1555 1.391 . S
C1556 C1557 1.405 . S
C1557 H1531 0.950 . S
C1557 C1556 1.405 . S
C1557 C1558 1.367 . S
C1558 H1532 0.950 . S
C1558 C1553 1.386 . S
C1558 C1557 1.367 . S
C1559 C1553 1.483 . S
C1559 C1560 1.385 1_565 S
C1559 C1561 1.403 . S
C1560 H1533 0.950 1_545 S
C1560 C1546 1.408 . S
C1560 C1559 1.385 1_545 S
C1561 C1545 1.411 1_565 S
C1561 C1559 1.403 . S
C1561 C1562 1.489 . S
C1562 C1561 1.489 . S
C1562 C1563 1.383 . S
C1562 C1567 1.382 . S
C1563 H1534 0.950 . S
C1563 C1562 1.383 . S
C1563 C1564 1.395 . S
C1564 H1535 0.950 . S
C1564 C1563 1.395 . S
C1564 C1565 1.288 . S
C1565 C1564 1.288 . S
C1565 C1566 1.392 . S
C1566 H1536 0.951 . S
C1566 C1565 1.392 . S
C1566 C1567 1.392 . S
C1567 H1537 0.949 . S
C1567 C1562 1.382 . S
C1567 C1566 1.392 . S
H1568 C1587 0.949 . S
H1569 C1588 0.950 . S
H1570 C1590 0.950 . S
H1571 C1591 0.950 . S
H1572 C1593 0.957 . S
H1573 C1596 0.950 . S
H1574 C1597 0.950 . S
H1575 C1599 0.951 . S
H1576 C1600 0.949 . S
H1577 C1602 0.949 . S
H1578 C1603 0.950 . S
H1579 C1605 0.950 . S
H1580 C1606 0.950 . S
H1581 C1608 0.950 . S
H1582 C1611 0.950 . S
H1583 C1612 0.950 . S
H1584 C1614 0.951 . S
H1585 C1615 0.949 . S
C1586 C1587 1.376 . S
C1586 C1591 1.386 . S
C1586 C1592 1.483 . S
C1587 H1568 0.949 . S
C1587 C1586 1.376 . S
C1587 C1588 1.397 . S
C1588 H1569 0.950 . S
C1588 C1587 1.397 . S
C1588 C1589 1.391 . S
C1589 C1588 1.391 . S
C1589 C1590 1.405 . S
C1590 H1570 0.950 . S
C1590 C1589 1.405 . S
C1590 C1591 1.367 . S
C1591 H1571 0.950 . S
C1591 C1586 1.386 . S
C1591 C1590 1.367 . S
C1592 C1586 1.483 . S
C1592 C1593 1.466 . S
C1592 C1594 1.403 . S
C1593 H1572 0.957 . S
C1593 C1592 1.466 . S
C1593 C1609 1.326 1_455 S
C1594 C1592 1.403 . S
C1594 C1595 1.489 . S
C1594 C1608 1.443 . S
C1595 C1594 1.489 . S
C1595 C1596 1.383 . S
C1595 C1600 1.382 . S
C1596 H1573 0.950 . S
C1596 C1595 1.383 . S
C1596 C1597 1.395 . S
C1597 H1574 0.950 . S
C1597 C1596 1.395 . S
C1597 C1598 1.288 . S
C1598 C1597 1.288 . S
C1598 C1599 1.392 . S
C1599 H1575 0.951 . S
C1599 C1598 1.392 . S
C1599 C1600 1.392 . S
C1600 H1576 0.949 . S
C1600 C1595 1.382 . S
C1600 C1599 1.392 . S
C1601 C1602 1.376 . S
C1601 C1606 1.386 . S
C1601 C1607 1.483 . S
C1602 H1577 0.949 . S
C1602 C1601 1.376 . S
C1602 C1603 1.397 . S
C1603 H1578 0.950 . S
C1603 C1602 1.397 . S
C1603 C1604 1.391 . S
C1604 C1603 1.391 . S
C1604 C1605 1.405 . S
C1605 H1579 0.950 . S
C1605 C1604 1.405 . S
C1605 C1606 1.367 . S
C1606 H1580 0.950 . S
C1606 C1601 1.386 . S
C1606 C1605 1.367 . S
C1607 C1601 1.483 . S
C1607 C1608 1.350 1_655 S
C1607 C1609 1.403 . S
C1608 H1581 0.950 . S
C1608 C1594 1.443 . S
C1608 C1607 1.350 1_455 S
C1609 C1593 1.326 1_655 S
C1609 C1607 1.403 . S
C1609 C1610 1.489 . S
C1610 C1609 1.489 . S
C1610 C1611 1.383 . S
C1610 C1615 1.382 . S
C1611 H1582 0.950 . S
C1611 C1610 1.383 . S
C1611 C1612 1.395 . S
C1612 H1583 0.950 . S
C1612 C1611 1.395 . S
C1612 C1613 1.288 . S
C1613 C1612 1.288 . S
C1613 C1614 1.392 . S
C1614 H1584 0.951 . S
C1614 C1613 1.392 . S
C1614 C1615 1.392 . S
C1615 H1585 0.949 . S
C1615 C1610 1.382 . S
C1615 C1614 1.392 . S
H1616 C1635 0.949 . S
H1617 C1636 0.950 . S
H1618 C1638 0.950 . S
H1619 C1639 0.950 . S
H1620 C1641 0.950 . S
H1621 C1644 0.950 . S
H1622 C1645 0.950 . S
H1623 C1647 0.951 . S
H1624 C1648 0.949 . S
H1625 C1650 0.949 . S
H1626 C1651 0.950 . S
H1627 C1653 0.950 . S
H1628 C1654 0.950 . S
H1629 C1656 0.950 . S
H1630 C1659 0.950 . S
H1631 C1660 0.950 . S
H1632 C1662 0.951 . S
H1633 C1663 0.949 . S
C1634 C1635 1.376 . S
C1634 C1639 1.386 . S
C1634 C1640 1.483 . S
C1635 H1616 0.949 . S
C1635 C1634 1.376 . S
C1635 C1636 1.397 . S
C1636 H1617 0.950 . S
C1636 C1635 1.397 . S
C1636 C1637 1.391 . S
C1637 C1636 1.391 . S
C1637 C1638 1.405 . S
C1638 H1618 0.950 . S
C1638 C1637 1.405 . S
C1638 C1639 1.367 . S
C1639 H1619 0.950 . S
C1639 C1634 1.386 . S
C1639 C1638 1.367 . S
C1640 C1634 1.483 . S
C1640 C1641 1.382 . S
C1640 C1642 1.403 . S
C1641 H1620 0.950 . S
C1641 C1640 1.382 . S
C1641 C1657 1.411 1_545 S
C1642 C1640 1.403 . S
C1642 C1643 1.489 . S
C1642 C1656 1.411 . S
C1643 C1642 1.489 . S
C1643 C1644 1.383 . S
C1643 C1648 1.382 . S
C1644 H1621 0.950 . S
C1644 C1643 1.383 . S
C1644 C1645 1.395 . S
C1645 H1622 0.950 . S
C1645 C1644 1.395 . S
C1645 C1646 1.288 . S
C1646 C1645 1.288 . S
C1646 C1647 1.392 . S
C1647 H1623 0.951 . S
C1647 C1646 1.392 . S
C1647 C1648 1.392 . S
C1648 H1624 0.949 . S
C1648 C1643 1.382 . S
C1648 C1647 1.392 . S
C1649 C1650 1.376 . S
C1649 C1654 1.386 . S
C1649 C1655 1.483 . S
C1650 H1625 0.949 . S
C1650 C1649 1.376 . S
C1650 C1651 1.397 . S
C1651 H1626 0.950 . S
C1651 C1650 1.397 . S
C1651 C1652 1.391 . S
C1652 C1651 1.391 . S
C1652 C1653 1.405 . S
C1653 H1627 0.950 . S
C1653 C1652 1.405 . S
C1653 C1654 1.367 . S
C1654 H1628 0.950 . S
C1654 C1649 1.386 . S
C1654 C1653 1.367 . S
C1655 C1649 1.483 . S
C1655 C1656 1.382 1_565 S
C1655 C1657 1.403 . S
C1656 H1629 0.950 . S
C1656 C1642 1.411 . S
C1656 C1655 1.382 1_545 S
C1657 C1641 1.411 1_565 S
C1657 C1655 1.403 . S
C1657 C1658 1.489 . S
C1658 C1657 1.489 . S
C1658 C1659 1.383 . S
C1658 C1663 1.382 . S
C1659 H1630 0.950 . S
C1659 C1658 1.383 . S
C1659 C1660 1.395 . S
C1660 H1631 0.950 . S
C1660 C1659 1.395 . S
C1660 C1661 1.288 . S
C1661 C1660 1.288 . S
C1661 C1662 1.392 . S
C1662 H1632 0.951 . S
C1662 C1661 1.392 . S
C1662 C1663 1.392 . S
C1663 H1633 0.949 . S
C1663 C1658 1.382 . S
C1663 C1662 1.392 . S
H1664 C1683 0.949 . S
H1665 C1684 0.950 . S
H1666 C1686 0.950 . S
H1667 C1687 0.950 . S
H1668 C1689 0.950 . S
H1669 C1692 0.950 . S
H1670 C1693 0.950 . S
H1671 C1695 0.951 . S
H1672 C1696 0.949 . S
H1673 C1698 0.949 . S
H1674 C1699 0.950 . S
H1675 C1701 0.950 . S
H1676 C1702 0.950 . S
H1677 C1704 0.957 . S
H1678 C1707 0.950 . S
H1679 C1708 0.950 . S
H1680 C1710 0.951 . S
H1681 C1711 0.949 . S
C1682 C1683 1.376 . S
C1682 C1687 1.386 . S
C1682 C1688 1.483 . S
C1683 H1664 0.949 . S
C1683 C1682 1.376 . S
C1683 C1684 1.397 . S
C1684 H1665 0.950 . S
C1684 C1683 1.397 . S
C1684 C1685 1.391 . S
C1685 C1684 1.391 . S
C1685 C1686 1.405 . S
C1686 H1666 0.950 . S
C1686 C1685 1.405 . S
C1686 C1687 1.367 . S
C1687 H1667 0.950 . S
C1687 C1682 1.386 . S
C1687 C1686 1.367 . S
C1688 C1682 1.483 . S
C1688 C1689 1.382 . S
C1688 C1690 1.403 . S
C1689 H1668 0.950 . S
C1689 C1688 1.382 . S
C1689 C1705 1.411 1_455 S
C1690 C1688 1.403 . S
C1690 C1691 1.489 . S
C1690 C1704 1.411 . S
C1691 C1690 1.489 . S
C1691 C1692 1.383 . S
C1691 C1696 1.382 . S
C1692 H1669 0.950 . S
C1692 C1691 1.383 . S
C1692 C1693 1.395 . S
C1693 H1670 0.950 . S
C1693 C1692 1.395 . S
C1693 C1694 1.288 . S
C1694 C1693 1.288 . S
C1694 C1695 1.392 . S
C1695 H1671 0.951 . S
C1695 C1694 1.392 . S
C1695 C1696 1.392 . S
C1696 H1672 0.949 . S
C1696 C1691 1.382 . S
C1696 C1695 1.392 . S
C1697 C1698 1.376 . S
C1697 C1702 1.386 . S
C1697 C1703 1.483 . S
C1698 H1673 0.949 . S
C1698 C1697 1.376 . S
C1698 C1699 1.397 . S
C1699 H1674 0.950 . S
C1699 C1698 1.397 . S
C1699 C1700 1.391 . S
C1700 C1699 1.391 . S
C1700 C1701 1.405 . S
C1701 H1675 0.950 . S
C1701 C1700 1.405 . S
C1701 C1702 1.367 . S
C1702 H1676 0.950 . S
C1702 C1697 1.386 . S
C1702 C1701 1.367 . S
C1703 C1697 1.483 . S
C1703 C1704 1.382 1_655 S
C1703 C1705 1.403 . S
C1704 H1677 0.957 . S
C1704 C1690 1.411 . S
C1704 C1703 1.382 1_455 S
C1705 C1689 1.411 1_655 S
C1705 C1703 1.403 . S
C1705 C1706 1.489 . S
C1706 C1705 1.489 . S
C1706 C1707 1.383 . S
C1706 C1711 1.382 . S
C1707 H1678 0.950 . S
C1707 C1706 1.383 . S
C1707 C1708 1.395 . S
C1708 H1679 0.950 . S
C1708 C1707 1.395 . S
C1708 C1709 1.288 . S
C1709 C1708 1.288 . S
C1709 C1710 1.392 . S
C1710 H1680 0.951 . S
C1710 C1709 1.392 . S
C1710 C1711 1.392 . S
C1711 H1681 0.949 . S
C1711 C1706 1.382 . S
C1711 C1710 1.392 . S
H1712 C1731 0.949 . S
H1713 C1732 0.950 . S
H1714 C1734 0.950 . S
H1715 C1735 0.950 . S
H1716 C1737 0.950 . S
H1717 C1740 0.950 . S
H1718 C1741 0.950 . S
H1719 C1743 0.951 . S
H1720 C1744 0.949 . S
H1721 C1746 0.949 . S
H1722 C1747 0.950 . S
H1723 C1749 0.950 . S
H1724 C1750 0.950 . S
H1725 C1752 0.950 1_565 S
H1726 C1755 0.950 . S
H1727 C1756 0.950 . S
H1728 C1758 0.951 . S
H1729 C1759 0.949 . S
C1730 C1731 1.376 . S
C1730 C1735 1.386 . S
C1730 C1736 1.483 . S
C1731 H1712 0.949 . S
C1731 C1730 1.376 . S
C1731 C1732 1.397 . S
C1732 H1713 0.950 . S
C1732 C1731 1.397 . S
C1732 C1733 1.391 . S
C1733 C1732 1.391 . S
C1733 C1734 1.405 . S
C1734 H1714 0.950 . S
C1734 C1733 1.405 . S
C1734 C1735 1.367 . S
C1735 H1715 0.950 . S
C1735 C1730 1.386 . S
C1735 C1734 1.367 . S
C1736 C1730 1.483 . S
C1736 C1737 1.382 . S
C1736 C1738 1.403 . S
C1737 H1716 0.950 . S
C1737 C1736 1.382 . S
C1737 C1753 1.411 1_545 S
C1738 C1736 1.403 . S
C1738 C1739 1.489 . S
C1738 C1752 1.410 . S
C1739 C1738 1.489 . S
C1739 C1740 1.383 . S
C1739 C1744 1.382 . S
C1740 H1717 0.950 . S
C1740 C1739 1.383 . S
C1740 C1741 1.395 . S
C1741 H1718 0.950 . S
C1741 C1740 1.395 . S
C1741 C1742 1.288 . S
C1742 C1741 1.288 . S
C1742 C1743 1.392 . S
C1743 H1719 0.951 . S
C1743 C1742 1.392 . S
C1743 C1744 1.392 . S
C1744 H1720 0.949 . S
C1744 C1739 1.382 . S
C1744 C1743 1.392 . S
C1745 C1746 1.376 . S
C1745 C1750 1.386 . S
C1745 C1751 1.483 . S
C1746 H1721 0.949 . S
C1746 C1745 1.376 . S
C1746 C1747 1.397 . S
C1747 H1722 0.950 . S
C1747 C1746 1.397 . S
C1747 C1748 1.391 . S
C1748 C1747 1.391 . S
C1748 C1749 1.405 . S
C1749 H1723 0.950 . S
C1749 C1748 1.405 . S
C1749 C1750 1.367 . S
C1750 H1724 0.950 . S
C1750 C1745 1.386 . S
C1750 C1749 1.367 . S
C1751 C1745 1.483 . S
C1751 C1752 1.383 1_565 S
C1751 C1753 1.403 . S
C1752 H1725 0.950 1_545 S
C1752 C1738 1.410 . S
C1752 C1751 1.383 1_545 S
C1753 C1737 1.411 1_565 S
C1753 C1751 1.403 . S
C1753 C1754 1.489 . S
C1754 C1753 1.489 . S
C1754 C1755 1.383 . S
C1754 C1759 1.382 . S
C1755 H1726 0.950 . S
C1755 C1754 1.383 . S
C1755 C1756 1.395 . S
C1756 H1727 0.950 . S
C1756 C1755 1.395 . S
C1756 C1757 1.288 . S
C1757 C1756 1.288 . S
C1757 C1758 1.392 . S
C1758 H1728 0.951 . S
C1758 C1757 1.392 . S
C1758 C1759 1.392 . S
C1759 H1729 0.949 . S
C1759 C1754 1.382 . S
C1759 C1758 1.392 . S
H1760 C1779 0.949 . S
H1761 C1780 0.950 . S
H1762 C1782 0.950 . S
H1763 C1783 0.950 . S
H1764 C1785 0.950 . S
H1765 C1788 0.950 . S
H1766 C1789 0.950 . S
H1767 C1791 0.951 . S
H1768 C1792 0.949 . S
H1769 C1794 0.949 . S
H1770 C1795 0.950 . S
H1771 C1797 0.950 . S
H1772 C1798 0.950 . S
H1773 C1800 0.950 . S
H1774 C1803 0.950 . S
H1775 C1804 0.950 . S
H1776 C1806 0.951 . S
H1777 C1807 0.949 . S
C1778 C1779 1.376 . S
C1778 C1783 1.386 . S
C1778 C1784 1.483 . S
C1779 H1760 0.949 . S
C1779 C1778 1.376 . S
C1779 C1780 1.397 . S
C1780 H1761 0.950 . S
C1780 C1779 1.397 . S
C1780 C1781 1.391 . S
C1781 C1780 1.391 . S
C1781 C1782 1.405 . S
C1782 H1762 0.950 . S
C1782 C1781 1.405 . S
C1782 C1783 1.367 . S
C1783 H1763 0.950 . S
C1783 C1778 1.386 . S
C1783 C1782 1.367 . S
C1784 C1778 1.483 . S
C1784 C1785 1.353 1_655 S
C1784 C1786 1.403 . S
C1785 H1764 0.950 . S
C1785 C1784 1.353 1_455 S
C1785 C1801 1.441 . S
C1786 C1784 1.403 . S
C1786 C1787 1.489 . S
C1786 C1800 1.411 1_655 S
C1787 C1786 1.489 . S
C1787 C1788 1.383 . S
C1787 C1792 1.382 . S
C1788 H1765 0.950 . S
C1788 C1787 1.383 . S
C1788 C1789 1.395 . S
C1789 H1766 0.950 . S
C1789 C1788 1.395 . S
C1789 C1790 1.288 . S
C1790 C1789 1.288 . S
C1790 C1791 1.392 . S
C1791 H1767 0.951 . S
C1791 C1790 1.392 . S
C1791 C1792 1.392 . S
C1792 H1768 0.949 . S
C1792 C1787 1.382 . S
C1792 C1791 1.392 . S
C1793 C1794 1.376 . S
C1793 C1798 1.386 . S
C1793 C1799 1.483 . S
C1794 H1769 0.949 . S
C1794 C1793 1.376 . S
C1794 C1795 1.397 . S
C1795 H1770 0.950 . S
C1795 C1794 1.397 . S
C1795 C1796 1.391 . S
C1796 C1795 1.391 . S
C1796 C1797 1.405 . S
C1797 H1771 0.950 . S
C1797 C1796 1.405 . S
C1797 C1798 1.367 . S
C1798 H1772 0.950 . S
C1798 C1793 1.386 . S
C1798 C1797 1.367 . S
C1799 C1793 1.483 . S
C1799 C1800 1.382 . S
C1799 C1801 1.403 . S
C1800 H1773 0.950 . S
C1800 C1786 1.411 1_455 S
C1800 C1799 1.382 . S
C1801 C1785 1.441 . S
C1801 C1799 1.403 . S
C1801 C1802 1.489 . S
C1802 C1801 1.489 . S
C1802 C1803 1.383 . S
C1802 C1807 1.382 . S
C1803 H1774 0.950 . S
C1803 C1802 1.383 . S
C1803 C1804 1.395 . S
C1804 H1775 0.950 . S
C1804 C1803 1.395 . S
C1804 C1805 1.288 . S
C1805 C1804 1.288 . S
C1805 C1806 1.392 . S
C1806 H1776 0.951 . S
C1806 C1805 1.392 . S
C1806 C1807 1.392 . S
C1807 H1777 0.949 . S
C1807 C1802 1.382 . S
C1807 C1806 1.392 . S
H1808 C1827 0.949 . S
H1809 C1828 0.950 . S
H1810 C1830 0.950 . S
H1811 C1831 0.950 . S
H1812 C1833 0.950 . S
H1813 C1836 0.950 . S
H1814 C1837 0.950 . S
H1815 C1839 0.951 . S
H1816 C1840 0.949 . S
H1817 C1842 0.949 . S
H1818 C1843 0.950 . S
H1819 C1845 0.950 . S
H1820 C1846 0.950 . S
H1821 C1848 0.950 . S
H1822 C1851 0.950 . S
H1823 C1852 0.950 . S
H1824 C1854 0.951 . S
H1825 C1855 0.949 . S
C1826 C1827 1.376 . S
C1826 C1831 1.386 . S
C1826 C1832 1.483 . S
C1827 H1808 0.949 . S
C1827 C1826 1.376 . S
C1827 C1828 1.397 . S
C1828 H1809 0.950 . S
C1828 C1827 1.397 . S
C1828 C1829 1.391 . S
C1829 C1828 1.391 . S
C1829 C1830 1.405 . S
C1830 H1810 0.950 . S
C1830 C1829 1.405 . S
C1830 C1831 1.367 . S
C1831 H1811 0.950 . S
C1831 C1826 1.386 . S
C1831 C1830 1.367 . S
C1832 C1826 1.483 . S
C1832 C1833 1.382 . S
C1832 C1834 1.403 . S
C1833 H1812 0.950 . S
C1833 C1832 1.382 . S
C1833 C1849 1.411 1_545 S
C1834 C1832 1.403 . S
C1834 C1835 1.489 . S
C1834 C1848 1.411 . S
C1835 C1834 1.489 . S
C1835 C1836 1.383 . S
C1835 C1840 1.382 . S
C1836 H1813 0.950 . S
C1836 C1835 1.383 . S
C1836 C1837 1.395 . S
C1837 H1814 0.950 . S
C1837 C1836 1.395 . S
C1837 C1838 1.288 . S
C1838 C1837 1.288 . S
C1838 C1839 1.392 . S
C1839 H1815 0.951 . S
C1839 C1838 1.392 . S
C1839 C1840 1.392 . S
C1840 H1816 0.949 . S
C1840 C1835 1.382 . S
C1840 C1839 1.392 . S
C1841 C1842 1.376 . S
C1841 C1846 1.386 . S
C1841 C1847 1.483 . S
C1842 H1817 0.949 . S
C1842 C1841 1.376 . S
C1842 C1843 1.397 . S
C1843 H1818 0.950 . S
C1843 C1842 1.397 . S
C1843 C1844 1.391 . S
C1844 C1843 1.391 . S
C1844 C1845 1.405 . S
C1845 H1819 0.950 . S
C1845 C1844 1.405 . S
C1845 C1846 1.367 . S
C1846 H1820 0.950 . S
C1846 C1841 1.386 . S
C1846 C1845 1.367 . S
C1847 C1841 1.483 . S
C1847 C1848 1.382 1_565 S
C1847 C1849 1.403 . S
C1848 H1821 0.950 . S
C1848 C1834 1.411 . S
C1848 C1847 1.382 1_545 S
C1849 C1833 1.411 1_565 S
C1849 C1847 1.403 . S
C1849 C1850 1.489 . S
C1850 C1849 1.489 . S
C1850 C1851 1.383 . S
C1850 C1855 1.382 . S
C1851 H1822 0.950 . S
C1851 C1850 1.383 . S
C1851 C1852 1.395 . S
C1852 H1823 0.950 . S
C1852 C1851 1.395 . S
C1852 C1853 1.288 . S
C1853 C1852 1.288 . S
C1853 C1854 1.392 . S
C1854 H1824 0.951 . S
C1854 C1853 1.392 . S
C1854 C1855 1.392 . S
C1855 H1825 0.949 . S
C1855 C1850 1.382 . S
C1855 C1854 1.392 . S
H1856 C1875 0.949 . S
H1857 C1876 0.950 . S
H1858 C1878 0.950 . S
H1859 C1879 0.950 . S
H1860 C1881 0.950 . S
H1861 C1884 0.950 . S
H1862 C1885 0.950 . S
H1863 C1887 0.951 . S
H1864 C1888 0.949 . S
H1865 C1890 0.949 . S
H1866 C1891 0.950 . S
H1867 C1893 0.950 . S
H1868 C1894 0.950 . S
H1869 C1896 0.950 . S
H1870 C1899 0.950 . S
H1871 C1900 0.950 . S
H1872 C1902 0.951 . S
H1873 C1903 0.949 . S
C1874 C1875 1.376 . S
C1874 C1879 1.386 . S
C1874 C1880 1.483 . S
C1875 H1856 0.949 . S
C1875 C1874 1.376 . S
C1875 C1876 1.397 . S
C1876 H1857 0.950 . S
C1876 C1875 1.397 . S
C1876 C1877 1.391 . S
C1877 C1876 1.391 . S
C1877 C1878 1.405 . S
C1878 H1858 0.950 . S
C1878 C1877 1.405 . S
C1878 C1879 1.367 . S
C1879 H1859 0.950 . S
C1879 C1874 1.386 . S
C1879 C1878 1.367 . S
C1880 C1874 1.483 . S
C1880 C1881 1.382 . S
C1880 C1882 1.403 . S
C1881 H1860 0.950 . S
C1881 C1880 1.382 . S
C1881 C1897 1.411 . S
C1882 C1880 1.403 . S
C1882 C1883 1.489 . S
C1882 C1896 1.411 . S
C1883 C1882 1.489 . S
C1883 C1884 1.383 . S
C1883 C1888 1.382 . S
C1884 H1861 0.950 . S
C1884 C1883 1.383 . S
C1884 C1885 1.395 . S
C1885 H1862 0.950 . S
C1885 C1884 1.395 . S
C1885 C1886 1.288 . S
C1886 C1885 1.288 . S
C1886 C1887 1.392 . S
C1887 H1863 0.951 . S
C1887 C1886 1.392 . S
C1887 C1888 1.392 . S
C1888 H1864 0.949 . S
C1888 C1883 1.382 . S
C1888 C1887 1.392 . S
C1889 C1890 1.376 . S
C1889 C1894 1.386 . S
C1889 C1895 1.483 . S
C1890 H1865 0.949 . S
C1890 C1889 1.376 . S
C1890 C1891 1.397 . S
C1891 H1866 0.950 . S
C1891 C1890 1.397 . S
C1891 C1892 1.391 . S
C1892 C1891 1.391 . S
C1892 C1893 1.405 . S
C1893 H1867 0.950 . S
C1893 C1892 1.405 . S
C1893 C1894 1.367 . S
C1894 H1868 0.950 . S
C1894 C1889 1.386 . S
C1894 C1893 1.367 . S
C1895 C1889 1.483 . S
C1895 C1896 1.382 . S
C1895 C1897 1.403 . S
C1896 H1869 0.950 . S
C1896 C1882 1.411 . S
C1896 C1895 1.382 . S
C1897 C1881 1.411 . S
C1897 C1895 1.403 . S
C1897 C1898 1.489 . S
C1898 C1897 1.489 . S
C1898 C1899 1.383 . S
C1898 C1903 1.382 . S
C1899 H1870 0.950 . S
C1899 C1898 1.383 . S
C1899 C1900 1.395 . S
C1900 H1871 0.950 . S
C1900 C1899 1.395 . S
C1900 C1901 1.288 . S
C1901 C1900 1.288 . S
C1901 C1902 1.392 . S
C1902 H1872 0.951 . S
C1902 C1901 1.392 . S
C1902 C1903 1.392 . S
C1903 H1873 0.949 . S
C1903 C1898 1.382 . S
C1903 C1902 1.392 . S
H1904 C1923 0.949 . S
H1905 C1924 0.950 . S
H1906 C1926 0.950 . S
H1907 C1927 0.950 . S
H1908 C1929 0.950 . S
H1909 C1932 0.950 . S
H1910 C1933 0.950 . S
H1911 C1935 0.951 . S
H1912 C1936 0.949 . S
H1913 C1938 0.949 . S
H1914 C1939 0.950 . S
H1915 C1941 0.950 . S
H1916 C1942 0.950 . S
H1917 C1944 0.950 . S
H1918 C1947 0.950 . S
H1919 C1948 0.950 . S
H1920 C1950 0.951 . S
H1921 C1951 0.949 . S
C1922 C1923 1.376 . S
C1922 C1927 1.386 . S
C1922 C1928 1.483 . S
C1923 H1904 0.949 . S
C1923 C1922 1.376 . S
C1923 C1924 1.397 . S
C1924 H1905 0.950 . S
C1924 C1923 1.397 . S
C1924 C1925 1.391 . S
C1925 C1924 1.391 . S
C1925 C1926 1.405 . S
C1926 H1906 0.950 . S
C1926 C1925 1.405 . S
C1926 C1927 1.367 . S
C1927 H1907 0.950 . S
C1927 C1922 1.386 . S
C1927 C1926 1.367 . S
C1928 C1922 1.483 . S
C1928 C1929 1.382 . S
C1928 C1930 1.403 . S
C1929 H1908 0.950 . S
C1929 C1928 1.382 . S
C1929 C1945 1.411 . S
C1930 C1928 1.403 . S
C1930 C1931 1.489 . S
C1930 C1944 1.411 . S
C1931 C1930 1.489 . S
C1931 C1932 1.383 . S
C1931 C1936 1.382 . S
C1932 H1909 0.950 . S
C1932 C1931 1.383 . S
C1932 C1933 1.395 . S
C1933 H1910 0.950 . S
C1933 C1932 1.395 . S
C1933 C1934 1.288 . S
C1934 C1933 1.288 . S
C1934 C1935 1.392 . S
C1935 H1911 0.951 . S
C1935 C1934 1.392 . S
C1935 C1936 1.392 . S
C1936 H1912 0.949 . S
C1936 C1931 1.382 . S
C1936 C1935 1.392 . S
C1937 C1938 1.376 . S
C1937 C1942 1.386 . S
C1937 C1943 1.483 . S
C1938 H1913 0.949 . S
C1938 C1937 1.376 . S
C1938 C1939 1.397 . S
C1939 H1914 0.950 . S
C1939 C1938 1.397 . S
C1939 C1940 1.391 . S
C1940 C1939 1.391 . S
C1940 C1941 1.405 . S
C1941 H1915 0.950 . S
C1941 C1940 1.405 . S
C1941 C1942 1.367 . S
C1942 H1916 0.950 . S
C1942 C1937 1.386 . S
C1942 C1941 1.367 . S
C1943 C1937 1.483 . S
C1943 C1944 1.382 . S
C1943 C1945 1.403 . S
C1944 H1917 0.950 . S
C1944 C1930 1.411 . S
C1944 C1943 1.382 . S
C1945 C1929 1.411 . S
C1945 C1943 1.403 . S
C1945 C1946 1.489 . S
C1946 C1945 1.489 . S
C1946 C1947 1.383 . S
C1946 C1951 1.382 . S
C1947 H1918 0.950 . S
C1947 C1946 1.383 . S
C1947 C1948 1.395 . S
C1948 H1919 0.950 . S
C1948 C1947 1.395 . S
C1948 C1949 1.288 . S
C1949 C1948 1.288 . S
C1949 C1950 1.392 . S
C1950 H1920 0.951 . S
C1950 C1949 1.392 . S
C1950 C1951 1.392 . S
C1951 H1921 0.949 . S
C1951 C1946 1.382 . S
C1951 C1950 1.392 . S
H1952 C1971 0.949 . S
H1953 C1972 0.950 . S
H1954 C1974 0.950 . S
H1955 C1975 0.950 . S
H1956 C1977 0.950 . S
H1957 C1980 0.950 . S
H1958 C1981 0.950 . S
H1959 C1983 0.951 . S
H1960 C1984 0.949 . S
H1961 C1986 0.949 . S
H1962 C1987 0.950 . S
H1963 C1989 0.950 . S
H1964 C1990 0.950 . S
H1965 C1992 0.950 . S
H1966 C1995 0.950 . S
H1967 C1996 0.950 . S
H1968 C1998 0.951 . S
H1969 C1999 0.949 . S
C1970 C1971 1.376 . S
C1970 C1975 1.386 . S
C1970 C1976 1.483 . S
C1971 H1952 0.949 . S
C1971 C1970 1.376 . S
C1971 C1972 1.397 . S
C1972 H1953 0.950 . S
C1972 C1971 1.397 . S
C1972 C1973 1.391 . S
C1973 C1972 1.391 . S
C1973 C1974 1.405 . S
C1974 H1954 0.950 . S
C1974 C1973 1.405 . S
C1974 C1975 1.367 . S
C1975 H1955 0.950 . S
C1975 C1970 1.386 . S
C1975 C1974 1.367 . S
C1976 C1970 1.483 . S
C1976 C1977 1.382 . S
C1976 C1978 1.403 . S
C1977 H1956 0.950 . S
C1977 C1976 1.382 . S
C1977 C1993 1.411 . S
C1978 C1976 1.403 . S
C1978 C1979 1.489 . S
C1978 C1992 1.411 . S
C1979 C1978 1.489 . S
C1979 C1980 1.383 . S
C1979 C1984 1.382 . S
C1980 H1957 0.950 . S
C1980 C1979 1.383 . S
C1980 C1981 1.395 . S
C1981 H1958 0.950 . S
C1981 C1980 1.395 . S
C1981 C1982 1.288 . S
C1982 C1981 1.288 . S
C1982 C1983 1.392 . S
C1983 H1959 0.951 . S
C1983 C1982 1.392 . S
C1983 C1984 1.392 . S
C1984 H1960 0.949 . S
C1984 C1979 1.382 . S
C1984 C1983 1.392 . S
C1985 C1986 1.376 . S
C1985 C1990 1.386 . S
C1985 C1991 1.483 . S
C1986 H1961 0.949 . S
C1986 C1985 1.376 . S
C1986 C1987 1.397 . S
C1987 H1962 0.950 . S
C1987 C1986 1.397 . S
C1987 C1988 1.391 . S
C1988 C1987 1.391 . S
C1988 C1989 1.405 . S
C1989 H1963 0.950 . S
C1989 C1988 1.405 . S
C1989 C1990 1.367 . S
C1990 H1964 0.950 . S
C1990 C1985 1.386 . S
C1990 C1989 1.367 . S
C1991 C1985 1.483 . S
C1991 C1992 1.382 . S
C1991 C1993 1.403 . S
C1992 H1965 0.950 . S
C1992 C1978 1.411 . S
C1992 C1991 1.382 . S
C1993 C1977 1.411 . S
C1993 C1991 1.403 . S
C1993 C1994 1.489 . S
C1994 C1993 1.489 . S
C1994 C1995 1.383 . S
C1994 C1999 1.382 . S
C1995 H1966 0.950 . S
C1995 C1994 1.383 . S
C1995 C1996 1.395 . S
C1996 H1967 0.950 . S
C1996 C1995 1.395 . S
C1996 C1997 1.288 . S
C1997 C1996 1.288 . S
C1997 C1998 1.392 . S
C1998 H1968 0.951 . S
C1998 C1997 1.392 . S
C1998 C1999 1.392 . S
C1999 H1969 0.949 . S
C1999 C1994 1.382 . S
C1999 C1998 1.392 . S
H2000 C2019 0.949 . S
H2001 C2020 0.950 . S
H2002 C2022 0.950 . S
H2003 C2023 0.950 . S
H2004 C2025 0.950 . S
H2005 C2028 0.950 . S
H2006 C2029 0.950 . S
H2007 C2031 0.951 . S
H2008 C2032 0.949 . S
H2009 C2034 0.949 . S
H2010 C2035 0.950 . S
H2011 C2037 0.950 . S
H2012 C2038 0.950 . S
H2013 C2040 0.950 . S
H2014 C2043 0.950 . S
H2015 C2044 0.950 . S
H2016 C2046 0.951 . S
H2017 C2047 0.949 . S
C2018 C2019 1.376 . S
C2018 C2023 1.386 . S
C2018 C2024 1.483 . S
C2019 H2000 0.949 . S
C2019 C2018 1.376 . S
C2019 C2020 1.397 . S
C2020 H2001 0.950 . S
C2020 C2019 1.397 . S
C2020 C2021 1.391 . S
C2021 C2020 1.391 . S
C2021 C2022 1.405 . S
C2022 H2002 0.950 . S
C2022 C2021 1.405 . S
C2022 C2023 1.367 . S
C2023 H2003 0.950 . S
C2023 C2018 1.386 . S
C2023 C2022 1.367 . S
C2024 C2018 1.483 . S
C2024 C2025 1.382 . S
C2024 C2026 1.403 . S
C2025 H2004 0.950 . S
C2025 C2024 1.382 . S
C2025 C2041 1.411 . S
C2026 C2024 1.403 . S
C2026 C2027 1.489 . S
C2026 C2040 1.411 . S
C2027 C2026 1.489 . S
C2027 C2028 1.383 . S
C2027 C2032 1.382 . S
C2028 H2005 0.950 . S
C2028 C2027 1.383 . S
C2028 C2029 1.395 . S
C2029 H2006 0.950 . S
C2029 C2028 1.395 . S
C2029 C2030 1.288 . S
C2030 C2029 1.288 . S
C2030 C2031 1.392 . S
C2031 H2007 0.951 . S
C2031 C2030 1.392 . S
C2031 C2032 1.392 . S
C2032 H2008 0.949 . S
C2032 C2027 1.382 . S
C2032 C2031 1.392 . S
C2033 C2034 1.376 . S
C2033 C2038 1.386 . S
C2033 C2039 1.483 . S
C2034 H2009 0.949 . S
C2034 C2033 1.376 . S
C2034 C2035 1.397 . S
C2035 H2010 0.950 . S
C2035 C2034 1.397 . S
C2035 C2036 1.391 . S
C2036 C2035 1.391 . S
C2036 C2037 1.405 . S
C2037 H2011 0.950 . S
C2037 C2036 1.405 . S
C2037 C2038 1.367 . S
C2038 H2012 0.950 . S
C2038 C2033 1.386 . S
C2038 C2037 1.367 . S
C2039 C2033 1.483 . S
C2039 C2040 1.382 . S
C2039 C2041 1.403 . S
C2040 H2013 0.950 . S
C2040 C2026 1.411 . S
C2040 C2039 1.382 . S
C2041 C2025 1.411 . S
C2041 C2039 1.403 . S
C2041 C2042 1.489 . S
C2042 C2041 1.489 . S
C2042 C2043 1.383 . S
C2042 C2047 1.382 . S
C2043 H2014 0.950 . S
C2043 C2042 1.383 . S
C2043 C2044 1.395 . S
C2044 H2015 0.950 . S
C2044 C2043 1.395 . S
C2044 C2045 1.288 . S
C2045 C2044 1.288 . S
C2045 C2046 1.392 . S
C2046 H2016 0.951 . S
C2046 C2045 1.392 . S
C2046 C2047 1.392 . S
C2047 H2017 0.949 . S
C2047 C2042 1.382 . S
C2047 C2046 1.392 . S
H2048 C2067 0.949 . S
H2049 C2068 0.950 . S
H2050 C2070 0.950 . S
H2051 C2071 0.950 . S
H2052 C2073 0.950 . S
H2053 C2076 0.950 . S
H2054 C2077 0.950 . S
H2055 C2079 0.951 . S
H2056 C2080 0.949 . S
H2057 C2082 0.949 . S
H2058 C2083 0.950 . S
H2059 C2085 0.950 . S
H2060 C2086 0.950 . S
H2061 C2088 0.950 . S
H2062 C2091 0.950 . S
H2063 C2092 0.950 . S
H2064 C2094 0.951 . S
H2065 C2095 0.949 . S
C2066 C2067 1.376 . S
C2066 C2071 1.386 . S
C2066 C2072 1.483 . S
C2067 H2048 0.949 . S
C2067 C2066 1.376 . S
C2067 C2068 1.397 . S
C2068 H2049 0.950 . S
C2068 C2067 1.397 . S
C2068 C2069 1.391 . S
C2069 C2068 1.391 . S
C2069 C2070 1.405 . S
C2070 H2050 0.950 . S
C2070 C2069 1.405 . S
C2070 C2071 1.367 . S
C2071 H2051 0.950 . S
C2071 C2066 1.386 . S
C2071 C2070 1.367 . S
C2072 C2066 1.483 . S
C2072 C2073 1.382 . S
C2072 C2074 1.403 . S
C2073 H2052 0.950 . S
C2073 C2072 1.382 . S
C2073 C2089 1.411 . S
C2074 C2072 1.403 . S
C2074 C2075 1.489 . S
C2074 C2088 1.411 . S
C2075 C2074 1.489 . S
C2075 C2076 1.383 . S
C2075 C2080 1.382 . S
C2076 H2053 0.950 . S
C2076 C2075 1.383 . S
C2076 C2077 1.395 . S
C2077 H2054 0.950 . S
C2077 C2076 1.395 . S
C2077 C2078 1.288 . S
C2078 C2077 1.288 . S
C2078 C2079 1.392 . S
C2079 H2055 0.951 . S
C2079 C2078 1.392 . S
C2079 C2080 1.392 . S
C2080 H2056 0.949 . S
C2080 C2075 1.382 . S
C2080 C2079 1.392 . S
C2081 C2082 1.376 . S
C2081 C2086 1.386 . S
C2081 C2087 1.483 . S
C2082 H2057 0.949 . S
C2082 C2081 1.376 . S
C2082 C2083 1.397 . S
C2083 H2058 0.950 . S
C2083 C2082 1.397 . S
C2083 C2084 1.391 . S
C2084 C2083 1.391 . S
C2084 C2085 1.405 . S
C2085 H2059 0.950 . S
C2085 C2084 1.405 . S
C2085 C2086 1.367 . S
C2086 H2060 0.950 . S
C2086 C2081 1.386 . S
C2086 C2085 1.367 . S
C2087 C2081 1.483 . S
C2087 C2088 1.382 . S
C2087 C2089 1.403 . S
C2088 H2061 0.950 . S
C2088 C2074 1.411 . S
C2088 C2087 1.382 . S
C2089 C2073 1.411 . S
C2089 C2087 1.403 . S
C2089 C2090 1.489 . S
C2090 C2089 1.489 . S
C2090 C2091 1.383 . S
C2090 C2095 1.382 . S
C2091 H2062 0.950 . S
C2091 C2090 1.383 . S
C2091 C2092 1.395 . S
C2092 H2063 0.950 . S
C2092 C2091 1.395 . S
C2092 C2093 1.288 . S
C2093 C2092 1.288 . S
C2093 C2094 1.392 . S
C2094 H2064 0.951 . S
C2094 C2093 1.392 . S
C2094 C2095 1.392 . S
C2095 H2065 0.949 . S
C2095 C2090 1.382 . S
C2095 C2094 1.392 . S
H2096 C2115 0.949 . S
H2097 C2116 0.950 . S
H2098 C2118 0.950 . S
H2099 C2119 0.950 . S
H2100 C2121 0.950 . S
H2101 C2124 0.950 . S
H2102 C2125 0.950 . S
H2103 C2127 0.951 . S
H2104 C2128 0.949 . S
H2105 C2130 0.949 . S
H2106 C2131 0.950 . S
H2107 C2133 0.950 . S
H2108 C2134 0.950 . S
H2109 C2136 0.950 . S
H2110 C2139 0.950 . S
H2111 C2140 0.950 . S
H2112 C2142 0.951 . S
H2113 C2143 0.949 . S
C2114 C2115 1.376 . S
C2114 C2119 1.386 . S
C2114 C2120 1.483 . S
C2115 H2096 0.949 . S
C2115 C2114 1.376 . S
C2115 C2116 1.397 . S
C2116 H2097 0.950 . S
C2116 C2115 1.397 . S
C2116 C2117 1.391 . S
C2117 C2116 1.391 . S
C2117 C2118 1.405 . S
C2118 H2098 0.950 . S
C2118 C2117 1.405 . S
C2118 C2119 1.367 . S
C2119 H2099 0.950 . S
C2119 C2114 1.386 . S
C2119 C2118 1.367 . S
C2120 C2114 1.483 . S
C2120 C2121 1.382 . S
C2120 C2122 1.403 . S
C2121 H2100 0.950 . S
C2121 C2120 1.382 . S
C2121 C2137 1.411 . S
C2122 C2120 1.403 . S
C2122 C2123 1.489 . S
C2122 C2136 1.411 . S
C2123 C2122 1.489 . S
C2123 C2124 1.383 . S
C2123 C2128 1.382 . S
C2124 H2101 0.950 . S
C2124 C2123 1.383 . S
C2124 C2125 1.395 . S
C2125 H2102 0.950 . S
C2125 C2124 1.395 . S
C2125 C2126 1.288 . S
C2126 C2125 1.288 . S
C2126 C2127 1.392 . S
C2127 H2103 0.951 . S
C2127 C2126 1.392 . S
C2127 C2128 1.392 . S
C2128 H2104 0.949 . S
C2128 C2123 1.382 . S
C2128 C2127 1.392 . S
C2129 C2130 1.376 . S
C2129 C2134 1.386 . S
C2129 C2135 1.483 . S
C2130 H2105 0.949 . S
C2130 C2129 1.376 . S
C2130 C2131 1.397 . S
C2131 H2106 0.950 . S
C2131 C2130 1.397 . S
C2131 C2132 1.391 . S
C2132 C2131 1.391 . S
C2132 C2133 1.405 . S
C2133 H2107 0.950 . S
C2133 C2132 1.405 . S
C2133 C2134 1.367 . S
C2134 H2108 0.950 . S
C2134 C2129 1.386 . S
C2134 C2133 1.367 . S
C2135 C2129 1.483 . S
C2135 C2136 1.382 . S
C2135 C2137 1.403 . S
C2136 H2109 0.950 . S
C2136 C2122 1.411 . S
C2136 C2135 1.382 . S
C2137 C2121 1.411 . S
C2137 C2135 1.403 . S
C2137 C2138 1.489 . S
C2138 C2137 1.489 . S
C2138 C2139 1.383 . S
C2138 C2143 1.382 . S
C2139 H2110 0.950 . S
C2139 C2138 1.383 . S
C2139 C2140 1.395 . S
C2140 H2111 0.950 . S
C2140 C2139 1.395 . S
C2140 C2141 1.288 . S
C2141 C2140 1.288 . S
C2141 C2142 1.392 . S
C2142 H2112 0.951 . S
C2142 C2141 1.392 . S
C2142 C2143 1.392 . S
C2143 H2113 0.949 . S
C2143 C2138 1.382 . S
C2143 C2142 1.392 . S
H2144 C2163 0.949 . S
H2145 C2164 0.950 . S
H2146 C2166 0.950 . S
H2147 C2167 0.950 . S
H2148 C2169 0.950 . S
H2149 C2172 0.950 . S
H2150 C2173 0.950 . S
H2151 C2175 0.951 . S
H2152 C2176 0.949 . S
H2153 C2178 0.949 . S
H2154 C2179 0.950 . S
H2155 C2181 0.950 . S
H2156 C2182 0.950 . S
H2157 C2184 0.950 . S
H2158 C2187 0.950 . S
H2159 C2188 0.950 . S
H2160 C2190 0.951 . S
H2161 C2191 0.949 . S
C2162 C2163 1.376 . S
C2162 C2167 1.386 . S
C2162 C2168 1.483 . S
C2163 H2144 0.949 . S
C2163 C2162 1.376 . S
C2163 C2164 1.397 . S
C2164 H2145 0.950 . S
C2164 C2163 1.397 . S
C2164 C2165 1.391 . S
C2165 C2164 1.391 . S
C2165 C2166 1.405 . S
C2166 H2146 0.950 . S
C2166 C2165 1.405 . S
C2166 C2167 1.367 . S
C2167 H2147 0.950 . S
C2167 C2162 1.386 . S
C2167 C2166 1.367 . S
C2168 C2162 1.483 . S
C2168 C2169 1.382 . S
C2168 C2170 1.403 . S
C2169 H2148 0.950 . S
C2169 C2168 1.382 . S
C2169 C2185 1.411 . S
C2170 C2168 1.403 . S
C2170 C2171 1.489 . S
C2170 C2184 1.411 . S
C2171 C2170 1.489 . S
C2171 C2172 1.383 . S
C2171 C2176 1.382 . S
C2172 H2149 0.950 . S
C2172 C2171 1.383 . S
C2172 C2173 1.395 . S
C2173 H2150 0.950 . S
C2173 C2172 1.395 . S
C2173 C2174 1.288 . S
C2174 C2173 1.288 . S
C2174 C2175 1.392 . S
C2175 H2151 0.951 . S
C2175 C2174 1.392 . S
C2175 C2176 1.392 . S
C2176 H2152 0.949 . S
C2176 C2171 1.382 . S
C2176 C2175 1.392 . S
C2177 C2178 1.376 . S
C2177 C2182 1.386 . S
C2177 C2183 1.483 . S
C2178 H2153 0.949 . S
C2178 C2177 1.376 . S
C2178 C2179 1.397 . S
C2179 H2154 0.950 . S
C2179 C2178 1.397 . S
C2179 C2180 1.391 . S
C2180 C2179 1.391 . S
C2180 C2181 1.405 . S
C2181 H2155 0.950 . S
C2181 C2180 1.405 . S
C2181 C2182 1.367 . S
C2182 H2156 0.950 . S
C2182 C2177 1.386 . S
C2182 C2181 1.367 . S
C2183 C2177 1.483 . S
C2183 C2184 1.382 . S
C2183 C2185 1.403 . S
C2184 H2157 0.950 . S
C2184 C2170 1.411 . S
C2184 C2183 1.382 . S
C2185 C2169 1.411 . S
C2185 C2183 1.403 . S
C2185 C2186 1.489 . S
C2186 C2185 1.489 . S
C2186 C2187 1.383 . S
C2186 C2191 1.382 . S
C2187 H2158 0.950 . S
C2187 C2186 1.383 . S
C2187 C2188 1.395 . S
C2188 H2159 0.950 . S
C2188 C2187 1.395 . S
C2188 C2189 1.288 . S
C2189 C2188 1.288 . S
C2189 C2190 1.392 . S
C2190 H2160 0.951 . S
C2190 C2189 1.392 . S
C2190 C2191 1.392 . S
C2191 H2161 0.949 . S
C2191 C2186 1.382 . S
C2191 C2190 1.392 . S
H2192 C2211 0.949 . S
H2193 C2212 0.950 . S
H2194 C2214 0.950 . S
H2195 C2215 0.950 . S
H2196 C2217 0.950 . S
H2197 C2220 0.950 . S
H2198 C2221 0.950 . S
H2199 C2223 0.951 . S
H2200 C2224 0.949 . S
H2201 C2226 0.949 . S
H2202 C2227 0.950 . S
H2203 C2229 0.950 . S
H2204 C2230 0.950 . S
H2205 C2232 0.950 . S
H2206 C2235 0.950 . S
H2207 C2236 0.950 . S
H2208 C2238 0.951 . S
H2209 C2239 0.949 . S
C2210 C2211 1.376 . S
C2210 C2215 1.386 . S
C2210 C2216 1.483 . S
C2211 H2192 0.949 . S
C2211 C2210 1.376 . S
C2211 C2212 1.397 . S
C2212 H2193 0.950 . S
C2212 C2211 1.397 . S
C2212 C2213 1.391 . S
C2213 C2212 1.391 . S
C2213 C2214 1.405 . S
C2214 H2194 0.950 . S
C2214 C2213 1.405 . S
C2214 C2215 1.367 . S
C2215 H2195 0.950 . S
C2215 C2210 1.386 . S
C2215 C2214 1.367 . S
C2216 C2210 1.483 . S
C2216 C2217 1.382 . S
C2216 C2218 1.403 . S
C2217 H2196 0.950 . S
C2217 C2216 1.382 . S
C2217 C2233 1.411 . S
C2218 C2216 1.403 . S
C2218 C2219 1.489 . S
C2218 C2232 1.411 . S
C2219 C2218 1.489 . S
C2219 C2220 1.383 . S
C2219 C2224 1.382 . S
C2220 H2197 0.950 . S
C2220 C2219 1.383 . S
C2220 C2221 1.395 . S
C2221 H2198 0.950 . S
C2221 C2220 1.395 . S
C2221 C2222 1.288 . S
C2222 C2221 1.288 . S
C2222 C2223 1.392 . S
C2223 H2199 0.951 . S
C2223 C2222 1.392 . S
C2223 C2224 1.392 . S
C2224 H2200 0.949 . S
C2224 C2219 1.382 . S
C2224 C2223 1.392 . S
C2225 C2226 1.376 . S
C2225 C2230 1.386 . S
C2225 C2231 1.483 . S
C2226 H2201 0.949 . S
C2226 C2225 1.376 . S
C2226 C2227 1.397 . S
C2227 H2202 0.950 . S
C2227 C2226 1.397 . S
C2227 C2228 1.391 . S
C2228 C2227 1.391 . S
C2228 C2229 1.405 . S
C2229 H2203 0.950 . S
C2229 C2228 1.405 . S
C2229 C2230 1.367 . S
C2230 H2204 0.950 . S
C2230 C2225 1.386 . S
C2230 C2229 1.367 . S
C2231 C2225 1.483 . S
C2231 C2232 1.382 . S
C2231 C2233 1.403 . S
C2232 H2205 0.950 . S
C2232 C2218 1.411 . S
C2232 C2231 1.382 . S
C2233 C2217 1.411 . S
C2233 C2231 1.403 . S
C2233 C2234 1.489 . S
C2234 C2233 1.489 . S
C2234 C2235 1.383 . S
C2234 C2239 1.382 . S
C2235 H2206 0.950 . S
C2235 C2234 1.383 . S
C2235 C2236 1.395 . S
C2236 H2207 0.950 . S
C2236 C2235 1.395 . S
C2236 C2237 1.288 . S
C2237 C2236 1.288 . S
C2237 C2238 1.392 . S
C2238 H2208 0.951 . S
C2238 C2237 1.392 . S
C2238 C2239 1.392 . S
C2239 H2209 0.949 . S
C2239 C2234 1.382 . S
C2239 C2238 1.392 . S
H2240 C2259 0.949 . S
H2241 C2260 0.950 . S
H2242 C2262 0.950 . S
H2243 C2263 0.950 . S
H2244 C2265 0.950 . S
H2245 C2268 0.950 . S
H2246 C2269 0.950 . S
H2247 C2271 0.951 . S
H2248 C2272 0.949 . S
H2249 C2274 0.949 . S
H2250 C2275 0.950 . S
H2251 C2277 0.950 . S
H2252 C2278 0.950 . S
H2253 C2280 0.950 . S
H2254 C2283 0.950 . S
H2255 C2284 0.950 . S
H2256 C2286 0.951 . S
H2257 C2287 0.949 . S
C2258 C2259 1.376 . S
C2258 C2263 1.386 . S
C2258 C2264 1.483 . S
C2259 H2240 0.949 . S
C2259 C2258 1.376 . S
C2259 C2260 1.397 . S
C2260 H2241 0.950 . S
C2260 C2259 1.397 . S
C2260 C2261 1.391 . S
C2261 C2260 1.391 . S
C2261 C2262 1.405 . S
C2262 H2242 0.950 . S
C2262 C2261 1.405 . S
C2262 C2263 1.367 . S
C2263 H2243 0.950 . S
C2263 C2258 1.386 . S
C2263 C2262 1.367 . S
C2264 C2258 1.483 . S
C2264 C2265 1.382 . S
C2264 C2266 1.403 . S
C2265 H2244 0.950 . S
C2265 C2264 1.382 . S
C2265 C2281 1.411 . S
C2266 C2264 1.403 . S
C2266 C2267 1.489 . S
C2266 C2280 1.411 . S
C2267 C2266 1.489 . S
C2267 C2268 1.383 . S
C2267 C2272 1.382 . S
C2268 H2245 0.950 . S
C2268 C2267 1.383 . S
C2268 C2269 1.395 . S
C2269 H2246 0.950 . S
C2269 C2268 1.395 . S
C2269 C2270 1.288 . S
C2270 C2269 1.288 . S
C2270 C2271 1.392 . S
C2271 H2247 0.951 . S
C2271 C2270 1.392 . S
C2271 C2272 1.392 . S
C2272 H2248 0.949 . S
C2272 C2267 1.382 . S
C2272 C2271 1.392 . S
C2273 C2274 1.376 . S
C2273 C2278 1.386 . S
C2273 C2279 1.483 . S
C2274 H2249 0.949 . S
C2274 C2273 1.376 . S
C2274 C2275 1.397 . S
C2275 H2250 0.950 . S
C2275 C2274 1.397 . S
C2275 C2276 1.391 . S
C2276 C2275 1.391 . S
C2276 C2277 1.405 . S
C2277 H2251 0.950 . S
C2277 C2276 1.405 . S
C2277 C2278 1.367 . S
C2278 H2252 0.950 . S
C2278 C2273 1.386 . S
C2278 C2277 1.367 . S
C2279 C2273 1.483 . S
C2279 C2280 1.382 . S
C2279 C2281 1.403 . S
C2280 H2253 0.950 . S
C2280 C2266 1.411 . S
C2280 C2279 1.382 . S
C2281 C2265 1.411 . S
C2281 C2279 1.403 . S
C2281 C2282 1.489 . S
C2282 C2281 1.489 . S
C2282 C2283 1.383 . S
C2282 C2287 1.382 . S
C2283 H2254 0.950 . S
C2283 C2282 1.383 . S
C2283 C2284 1.395 . S
C2284 H2255 0.950 . S
C2284 C2283 1.395 . S
C2284 C2285 1.288 . S
C2285 C2284 1.288 . S
C2285 C2286 1.392 . S
C2286 H2256 0.951 . S
C2286 C2285 1.392 . S
C2286 C2287 1.392 . S
C2287 H2257 0.949 . S
C2287 C2282 1.382 . S
C2287 C2286 1.392 . S
H2288 C2307 0.949 . S
H2289 C2308 0.950 . S
H2290 C2310 0.950 . S
H2291 C2311 0.950 . S
H2292 C2313 0.950 . S
H2293 C2316 0.950 . S
H2294 C2317 0.950 . S
H2295 C2319 0.951 . S
H2296 C2320 0.949 . S
H2297 C2322 0.949 . S
H2298 C2323 0.950 . S
H2299 C2325 0.950 . S
H2300 C2326 0.950 . S
H2301 C2328 0.950 . S
H2302 C2331 0.950 . S
H2303 C2332 0.950 . S
H2304 C2334 0.951 . S
H2305 C2335 0.949 . S
C2306 C2307 1.376 . S
C2306 C2311 1.386 . S
C2306 C2312 1.483 . S
C2307 H2288 0.949 . S
C2307 C2306 1.376 . S
C2307 C2308 1.397 . S
C2308 H2289 0.950 . S
C2308 C2307 1.397 . S
C2308 C2309 1.391 . S
C2309 C2308 1.391 . S
C2309 C2310 1.405 . S
C2310 H2290 0.950 . S
C2310 C2309 1.405 . S
C2310 C2311 1.367 . S
C2311 H2291 0.950 . S
C2311 C2306 1.386 . S
C2311 C2310 1.367 . S
C2312 C2306 1.483 . S
C2312 C2313 1.382 . S
C2312 C2314 1.403 . S
C2313 H2292 0.950 . S
C2313 C2312 1.382 . S
C2313 C2329 1.411 . S
C2314 C2312 1.403 . S
C2314 C2315 1.489 . S
C2314 C2328 1.411 . S
C2315 C2314 1.489 . S
C2315 C2316 1.383 . S
C2315 C2320 1.382 . S
C2316 H2293 0.950 . S
C2316 C2315 1.383 . S
C2316 C2317 1.395 . S
C2317 H2294 0.950 . S
C2317 C2316 1.395 . S
C2317 C2318 1.288 . S
C2318 C2317 1.288 . S
C2318 C2319 1.392 . S
C2319 H2295 0.951 . S
C2319 C2318 1.392 . S
C2319 C2320 1.392 . S
C2320 H2296 0.949 . S
C2320 C2315 1.382 . S
C2320 C2319 1.392 . S
C2321 C2322 1.376 . S
C2321 C2326 1.386 . S
C2321 C2327 1.483 . S
C2322 H2297 0.949 . S
C2322 C2321 1.376 . S
C2322 C2323 1.397 . S
C2323 H2298 0.950 . S
C2323 C2322 1.397 . S
C2323 C2324 1.391 . S
C2324 C2323 1.391 . S
C2324 C2325 1.405 . S
C2325 H2299 0.950 . S
C2325 C2324 1.405 . S
C2325 C2326 1.367 . S
C2326 H2300 0.950 . S
C2326 C2321 1.386 . S
C2326 C2325 1.367 . S
C2327 C2321 1.483 . S
C2327 C2328 1.382 . S
C2327 C2329 1.403 . S
C2328 H2301 0.950 . S
C2328 C2314 1.411 . S
C2328 C2327 1.382 . S
C2329 C2313 1.411 . S
C2329 C2327 1.403 . S
C2329 C2330 1.489 . S
C2330 C2329 1.489 . S
C2330 C2331 1.383 . S
C2330 C2335 1.382 . S
C2331 H2302 0.950 . S
C2331 C2330 1.383 . S
C2331 C2332 1.395 . S
C2332 H2303 0.950 . S
C2332 C2331 1.395 . S
C2332 C2333 1.288 . S
C2333 C2332 1.288 . S
C2333 C2334 1.392 . S
C2334 H2304 0.951 . S
C2334 C2333 1.392 . S
C2334 C2335 1.392 . S
C2335 H2305 0.949 . S
C2335 C2330 1.382 . S
C2335 C2334 1.392 . S
H2336 C2355 0.949 . S
H2337 C2356 0.950 . S
H2338 C2358 0.950 . S
H2339 C2359 0.950 . S
H2340 C2361 0.950 . S
H2341 C2364 0.950 . S
H2342 C2365 0.950 . S
H2343 C2367 0.951 . S
H2344 C2368 0.949 . S
H2345 C2370 0.949 . S
H2346 C2371 0.950 . S
H2347 C2373 0.950 . S
H2348 C2374 0.950 . S
H2349 C2376 0.950 . S
H2350 C2379 0.950 . S
H2351 C2380 0.950 . S
H2352 C2382 0.951 . S
H2353 C2383 0.949 . S
C2354 C2355 1.376 . S
C2354 C2359 1.386 . S
C2354 C2360 1.483 . S
C2355 H2336 0.949 . S
C2355 C2354 1.376 . S
C2355 C2356 1.397 . S
C2356 H2337 0.950 . S
C2356 C2355 1.397 . S
C2356 C2357 1.391 . S
C2357 C2356 1.391 . S
C2357 C2358 1.405 . S
C2358 H2338 0.950 . S
C2358 C2357 1.405 . S
C2358 C2359 1.367 . S
C2359 H2339 0.950 . S
C2359 C2354 1.386 . S
C2359 C2358 1.367 . S
C2360 C2354 1.483 . S
C2360 C2361 1.382 . S
C2360 C2362 1.403 . S
C2361 H2340 0.950 . S
C2361 C2360 1.382 . S
C2361 C2377 1.411 . S
C2362 C2360 1.403 . S
C2362 C2363 1.489 . S
C2362 C2376 1.411 . S
C2363 C2362 1.489 . S
C2363 C2364 1.383 . S
C2363 C2368 1.382 . S
C2364 H2341 0.950 . S
C2364 C2363 1.383 . S
C2364 C2365 1.395 . S
C2365 H2342 0.950 . S
C2365 C2364 1.395 . S
C2365 C2366 1.288 . S
C2366 C2365 1.288 . S
C2366 C2367 1.392 . S
C2367 H2343 0.951 . S
C2367 C2366 1.392 . S
C2367 C2368 1.392 . S
C2368 H2344 0.949 . S
C2368 C2363 1.382 . S
C2368 C2367 1.392 . S
C2369 C2370 1.376 . S
C2369 C2374 1.386 . S
C2369 C2375 1.483 . S
C2370 H2345 0.949 . S
C2370 C2369 1.376 . S
C2370 C2371 1.397 . S
C2371 H2346 0.950 . S
C2371 C2370 1.397 . S
C2371 C2372 1.391 . S
C2372 C2371 1.391 . S
C2372 C2373 1.405 . S
C2373 H2347 0.950 . S
C2373 C2372 1.405 . S
C2373 C2374 1.367 . S
C2374 H2348 0.950 . S
C2374 C2369 1.386 . S
C2374 C2373 1.367 . S
C2375 C2369 1.483 . S
C2375 C2376 1.382 . S
C2375 C2377 1.403 . S
C2376 H2349 0.950 . S
C2376 C2362 1.411 . S
C2376 C2375 1.382 . S
C2377 C2361 1.411 . S
C2377 C2375 1.403 . S
C2377 C2378 1.489 . S
C2378 C2377 1.489 . S
C2378 C2379 1.383 . S
C2378 C2383 1.382 . S
C2379 H2350 0.950 . S
C2379 C2378 1.383 . S
C2379 C2380 1.395 . S
C2380 H2351 0.950 . S
C2380 C2379 1.395 . S
C2380 C2381 1.288 . S
C2381 C2380 1.288 . S
C2381 C2382 1.392 . S
C2382 H2352 0.951 . S
C2382 C2381 1.392 . S
C2382 C2383 1.392 . S
C2383 H2353 0.949 . S
C2383 C2378 1.382 . S
C2383 C2382 1.392 . S
H2384 C2403 0.949 . S
H2385 C2404 0.950 . S
H2386 C2406 0.950 . S
H2387 C2407 0.950 . S
H2388 C2409 0.950 . S
H2389 C2412 0.950 . S
H2390 C2413 0.950 . S
H2391 C2415 0.951 . S
H2392 C2416 0.949 . S
H2393 C2418 0.949 . S
H2394 C2419 0.950 . S
H2395 C2421 0.950 . S
H2396 C2422 0.950 . S
H2397 C2424 0.950 . S
H2398 C2427 0.950 . S
H2399 C2428 0.950 . S
H2400 C2430 0.951 . S
H2401 C2431 0.949 . S
C2402 C2403 1.376 . S
C2402 C2407 1.386 . S
C2402 C2408 1.483 . S
C2403 H2384 0.949 . S
C2403 C2402 1.376 . S
C2403 C2404 1.397 . S
C2404 H2385 0.950 . S
C2404 C2403 1.397 . S
C2404 C2405 1.391 . S
C2405 C2404 1.391 . S
C2405 C2406 1.405 . S
C2406 H2386 0.950 . S
C2406 C2405 1.405 . S
C2406 C2407 1.367 . S
C2407 H2387 0.950 . S
C2407 C2402 1.386 . S
C2407 C2406 1.367 . S
C2408 C2402 1.483 . S
C2408 C2409 1.382 . S
C2408 C2410 1.403 . S
C2409 H2388 0.950 . S
C2409 C2408 1.382 . S
C2409 C2425 1.411 . S
C2410 C2408 1.403 . S
C2410 C2411 1.489 . S
C2410 C2424 1.411 . S
C2411 C2410 1.489 . S
C2411 C2412 1.383 . S
C2411 C2416 1.382 . S
C2412 H2389 0.950 . S
C2412 C2411 1.383 . S
C2412 C2413 1.395 . S
C2413 H2390 0.950 . S
C2413 C2412 1.395 . S
C2413 C2414 1.288 . S
C2414 C2413 1.288 . S
C2414 C2415 1.392 . S
C2415 H2391 0.951 . S
C2415 C2414 1.392 . S
C2415 C2416 1.392 . S
C2416 H2392 0.949 . S
C2416 C2411 1.382 . S
C2416 C2415 1.392 . S
C2417 C2418 1.376 . S
C2417 C2422 1.386 . S
C2417 C2423 1.483 . S
C2418 H2393 0.949 . S
C2418 C2417 1.376 . S
C2418 C2419 1.397 . S
C2419 H2394 0.950 . S
C2419 C2418 1.397 . S
C2419 C2420 1.391 . S
C2420 C2419 1.391 . S
C2420 C2421 1.405 . S
C2421 H2395 0.950 . S
C2421 C2420 1.405 . S
C2421 C2422 1.367 . S
C2422 H2396 0.950 . S
C2422 C2417 1.386 . S
C2422 C2421 1.367 . S
C2423 C2417 1.483 . S
C2423 C2424 1.382 . S
C2423 C2425 1.403 . S
C2424 H2397 0.950 . S
C2424 C2410 1.411 . S
C2424 C2423 1.382 . S
C2425 C2409 1.411 . S
C2425 C2423 1.403 . S
C2425 C2426 1.489 . S
C2426 C2425 1.489 . S
C2426 C2427 1.383 . S
C2426 C2431 1.382 . S
C2427 H2398 0.950 . S
C2427 C2426 1.383 . S
C2427 C2428 1.395 . S
C2428 H2399 0.950 . S
C2428 C2427 1.395 . S
C2428 C2429 1.288 . S
C2429 C2428 1.288 . S
C2429 C2430 1.392 . S
C2430 H2400 0.951 . S
C2430 C2429 1.392 . S
C2430 C2431 1.392 . S
C2431 H2401 0.949 . S
C2431 C2426 1.382 . S
C2431 C2430 1.392 . S
H2432 C2444 0.930 . S
H2433 C2446 0.930 . S
H2434 C2447 0.930 . S
H2435 C2451 0.959 . S
H2436 C2451 0.959 . S
H2437 C2451 0.961 . S
H2438 C2452 0.960 . S
H2439 C2452 0.961 . S
H2440 C2452 0.959 . S
H2441 C2455 0.929 . S
H2442 C2456 0.931 . S
H2443 C2458 0.930 . S
C2444 H2432 0.930 . S
C2444 C2445 1.399 . S
C2444 C2449 1.399 . S
C2445 C2444 1.399 . S
C2445 C2446 1.376 . S
C2446 H2433 0.930 . S
C2446 C2445 1.376 . S
C2446 C2447 1.388 . S
C2447 H2434 0.930 . S
C2447 C2446 1.388 . S
C2447 C2448 1.390 . S
C2448 C2447 1.390 . S
C2448 C2449 1.394 . S
C2448 C2454 1.465 . S
C2449 C2444 1.399 . S
C2449 C2448 1.394 . S
C2449 C2450 1.516 . S
C2450 C2449 1.516 . S
C2450 C2451 1.502 . S
C2450 C2452 1.561 . S
C2450 C2453 1.526 . S
C2451 H2435 0.959 . S
C2451 H2436 0.959 . S
C2451 H2437 0.961 . S
C2451 C2450 1.502 . S
C2452 H2438 0.960 . S
C2452 H2439 0.961 . S
C2452 H2440 0.959 . S
C2452 C2450 1.561 . S
C2453 C2450 1.526 . S
C2453 C2454 1.396 . S
C2453 C2458 1.390 . S
C2454 C2448 1.465 . S
C2454 C2453 1.396 . S
C2454 C2455 1.399 . S
C2455 H2441 0.929 . S
C2455 C2454 1.399 . S
C2455 C2456 1.385 . S
C2456 H2442 0.931 . S
C2456 C2455 1.385 . S
C2456 C2457 1.389 . S
C2457 C2456 1.389 . S
C2457 C2458 1.387 . S
C2458 H2443 0.930 . S
C2458 C2453 1.390 . S
C2458 C2457 1.387 . S
H2459 C2471 0.930 . S
H2460 C2473 0.930 . S
H2461 C2474 0.930 . S
H2462 C2478 0.959 . S
H2463 C2478 0.959 . S
H2464 C2478 0.961 . S
H2465 C2479 0.960 . S
H2466 C2479 0.961 . S
H2467 C2479 0.959 . S
H2468 C2482 0.929 . S
H2469 C2483 0.931 . S
H2470 C2485 0.930 . S
C2471 H2459 0.930 . S
C2471 C2472 1.399 . S
C2471 C2476 1.399 . S
C2472 C2471 1.399 . S
C2472 C2473 1.376 . S
C2473 H2460 0.930 . S
C2473 C2472 1.376 . S
C2473 C2474 1.388 . S
C2474 H2461 0.930 . S
C2474 C2473 1.388 . S
C2474 C2475 1.390 . S
C2475 C2474 1.390 . S
C2475 C2476 1.394 . S
C2475 C2481 1.465 . S
C2476 C2471 1.399 . S
C2476 C2475 1.394 . S
C2476 C2477 1.516 . S
C2477 C2476 1.516 . S
C2477 C2478 1.502 . S
C2477 C2479 1.561 . S
C2477 C2480 1.526 . S
C2478 H2462 0.959 . S
C2478 H2463 0.959 . S
C2478 H2464 0.961 . S
C2478 C2477 1.502 . S
C2479 H2465 0.960 . S
C2479 H2466 0.961 . S
C2479 H2467 0.959 . S
C2479 C2477 1.561 . S
C2480 C2477 1.526 . S
C2480 C2481 1.396 . S
C2480 C2485 1.390 . S
C2481 C2475 1.465 . S
C2481 C2480 1.396 . S
C2481 C2482 1.399 . S
C2482 H2468 0.929 . S
C2482 C2481 1.399 . S
C2482 C2483 1.385 . S
C2483 H2469 0.931 . S
C2483 C2482 1.385 . S
C2483 C2484 1.389 . S
C2484 C2483 1.389 . S
C2484 C2485 1.387 . S
C2485 H2470 0.930 . S
C2485 C2480 1.390 . S
C2485 C2484 1.387 . S
H2486 C2498 0.930 . S
H2487 C2500 0.930 . S
H2488 C2501 0.930 . S
H2489 C2505 0.959 . S
H2490 C2505 0.959 . S
H2491 C2505 0.961 . S
H2492 C2506 0.960 . S
H2493 C2506 0.961 . S
H2494 C2506 0.959 . S
H2495 C2509 0.929 . S
H2496 C2510 0.931 . S
H2497 C2512 0.930 . S
C2498 H2486 0.930 . S
C2498 C2499 1.399 . S
C2498 C2503 1.399 . S
C2499 C2498 1.399 . S
C2499 C2500 1.376 . S
C2500 H2487 0.930 . S
C2500 C2499 1.376 . S
C2500 C2501 1.388 . S
C2501 H2488 0.930 . S
C2501 C2500 1.388 . S
C2501 C2502 1.390 . S
C2502 C2501 1.390 . S
C2502 C2503 1.394 . S
C2502 C2508 1.465 . S
C2503 C2498 1.399 . S
C2503 C2502 1.394 . S
C2503 C2504 1.516 . S
C2504 C2503 1.516 . S
C2504 C2505 1.502 . S
C2504 C2506 1.561 . S
C2504 C2507 1.526 . S
C2505 H2489 0.959 . S
C2505 H2490 0.959 . S
C2505 H2491 0.961 . S
C2505 C2504 1.502 . S
C2506 H2492 0.960 . S
C2506 H2493 0.961 . S
C2506 H2494 0.959 . S
C2506 C2504 1.561 . S
C2507 C2504 1.526 . S
C2507 C2508 1.396 . S
C2507 C2512 1.390 . S
C2508 C2502 1.465 . S
C2508 C2507 1.396 . S
C2508 C2509 1.399 . S
C2509 H2495 0.929 . S
C2509 C2508 1.399 . S
C2509 C2510 1.385 . S
C2510 H2496 0.931 . S
C2510 C2509 1.385 . S
C2510 C2511 1.389 . S
C2511 C2510 1.389 . S
C2511 C2512 1.387 . S
C2512 H2497 0.930 . S
C2512 C2507 1.390 . S
C2512 C2511 1.387 . S
H2513 C2525 0.930 . S
H2514 C2527 0.930 . S
H2515 C2528 0.930 . S
H2516 C2532 0.959 . S
H2517 C2532 0.959 . S
H2518 C2532 0.961 . S
H2519 C2533 0.960 . S
H2520 C2533 0.961 . S
H2521 C2533 0.959 . S
H2522 C2536 0.929 . S
H2523 C2537 0.931 . S
H2524 C2539 0.930 . S
C2525 H2513 0.930 . S
C2525 C2526 1.399 . S
C2525 C2530 1.399 . S
C2526 C2525 1.399 . S
C2526 C2527 1.376 . S
C2527 H2514 0.930 . S
C2527 C2526 1.376 . S
C2527 C2528 1.388 . S
C2528 H2515 0.930 . S
C2528 C2527 1.388 . S
C2528 C2529 1.390 . S
C2529 C2528 1.390 . S
C2529 C2530 1.394 . S
C2529 C2535 1.465 . S
C2530 C2525 1.399 . S
C2530 C2529 1.394 . S
C2530 C2531 1.516 . S
C2531 C2530 1.516 . S
C2531 C2532 1.502 . S
C2531 C2533 1.561 . S
C2531 C2534 1.526 . S
C2532 H2516 0.959 . S
C2532 H2517 0.959 . S
C2532 H2518 0.961 . S
C2532 C2531 1.502 . S
C2533 H2519 0.960 . S
C2533 H2520 0.961 . S
C2533 H2521 0.959 . S
C2533 C2531 1.561 . S
C2534 C2531 1.526 . S
C2534 C2535 1.396 . S
C2534 C2539 1.390 . S
C2535 C2529 1.465 . S
C2535 C2534 1.396 . S
C2535 C2536 1.399 . S
C2536 H2522 0.929 . S
C2536 C2535 1.399 . S
C2536 C2537 1.385 . S
C2537 H2523 0.931 . S
C2537 C2536 1.385 . S
C2537 C2538 1.389 . S
C2538 C2537 1.389 . S
C2538 C2539 1.387 . S
C2539 H2524 0.930 . S
C2539 C2534 1.390 . S
C2539 C2538 1.387 . S
H2540 C2552 0.930 . S
H2541 C2554 0.930 . S
H2542 C2555 0.930 . S
H2543 C2559 0.959 . S
H2544 C2559 0.959 . S
H2545 C2559 0.961 . S
H2546 C2560 0.960 . S
H2547 C2560 0.961 . S
H2548 C2560 0.959 . S
H2549 C2563 0.929 . S
H2550 C2564 0.931 . S
H2551 C2566 0.930 . S
C2552 H2540 0.930 . S
C2552 C2553 1.399 . S
C2552 C2557 1.399 . S
C2553 C2552 1.399 . S
C2553 C2554 1.376 . S
C2554 H2541 0.930 . S
C2554 C2553 1.376 . S
C2554 C2555 1.388 . S
C2555 H2542 0.930 . S
C2555 C2554 1.388 . S
C2555 C2556 1.390 . S
C2556 C2555 1.390 . S
C2556 C2557 1.394 . S
C2556 C2562 1.465 . S
C2557 C2552 1.399 . S
C2557 C2556 1.394 . S
C2557 C2558 1.516 . S
C2558 C2557 1.516 . S
C2558 C2559 1.502 . S
C2558 C2560 1.561 . S
C2558 C2561 1.526 . S
C2559 H2543 0.959 . S
C2559 H2544 0.959 . S
C2559 H2545 0.961 . S
C2559 C2558 1.502 . S
C2560 H2546 0.960 . S
C2560 H2547 0.961 . S
C2560 H2548 0.959 . S
C2560 C2558 1.561 . S
C2561 C2558 1.526 . S
C2561 C2562 1.396 . S
C2561 C2566 1.390 . S
C2562 C2556 1.465 . S
C2562 C2561 1.396 . S
C2562 C2563 1.399 . S
C2563 H2549 0.929 . S
C2563 C2562 1.399 . S
C2563 C2564 1.385 . S
C2564 H2550 0.931 . S
C2564 C2563 1.385 . S
C2564 C2565 1.389 . S
C2565 C2564 1.389 . S
C2565 C2566 1.387 . S
C2566 H2551 0.930 . S
C2566 C2561 1.390 . S
C2566 C2565 1.387 . S
H2567 C2579 0.930 . S
H2568 C2581 0.930 . S
H2569 C2582 0.930 . S
H2570 C2586 0.959 . S
H2571 C2586 0.959 . S
H2572 C2586 0.961 . S
H2573 C2587 0.960 . S
H2574 C2587 0.961 . S
H2575 C2587 0.959 . S
H2576 C2590 0.929 . S
H2577 C2591 0.931 . S
H2578 C2593 0.930 . S
C2579 H2567 0.930 . S
C2579 C2580 1.399 . S
C2579 C2584 1.399 . S
C2580 C2579 1.399 . S
C2580 C2581 1.376 . S
C2581 H2568 0.930 . S
C2581 C2580 1.376 . S
C2581 C2582 1.388 . S
C2582 H2569 0.930 . S
C2582 C2581 1.388 . S
C2582 C2583 1.390 . S
C2583 C2582 1.390 . S
C2583 C2584 1.394 . S
C2583 C2589 1.465 . S
C2584 C2579 1.399 . S
C2584 C2583 1.394 . S
C2584 C2585 1.516 . S
C2585 C2584 1.516 . S
C2585 C2586 1.502 . S
C2585 C2587 1.561 . S
C2585 C2588 1.526 . S
C2586 H2570 0.959 . S
C2586 H2571 0.959 . S
C2586 H2572 0.961 . S
C2586 C2585 1.502 . S
C2587 H2573 0.960 . S
C2587 H2574 0.961 . S
C2587 H2575 0.959 . S
C2587 C2585 1.561 . S
C2588 C2585 1.526 . S
C2588 C2589 1.396 . S
C2588 C2593 1.390 . S
C2589 C2583 1.465 . S
C2589 C2588 1.396 . S
C2589 C2590 1.399 . S
C2590 H2576 0.929 . S
C2590 C2589 1.399 . S
C2590 C2591 1.385 . S
C2591 H2577 0.931 . S
C2591 C2590 1.385 . S
C2591 C2592 1.389 . S
C2592 C2591 1.389 . S
C2592 C2593 1.387 . S
C2593 H2578 0.930 . S
C2593 C2588 1.390 . S
C2593 C2592 1.387 . S
H2594 C2606 0.930 . S
H2595 C2608 0.930 . S
H2596 C2609 0.930 . S
H2597 C2613 0.959 . S
H2598 C2613 0.959 . S
H2599 C2613 0.961 . S
H2600 C2614 0.960 . S
H2601 C2614 0.961 . S
H2602 C2614 0.959 . S
H2603 C2617 0.929 . S
H2604 C2618 0.931 . S
H2605 C2620 0.930 . S
C2606 H2594 0.930 . S
C2606 C2607 1.399 . S
C2606 C2611 1.399 . S
C2607 C2606 1.399 . S
C2607 C2608 1.376 . S
C2608 H2595 0.930 . S
C2608 C2607 1.376 . S
C2608 C2609 1.388 . S
C2609 H2596 0.930 . S
C2609 C2608 1.388 . S
C2609 C2610 1.390 . S
C2610 C2609 1.390 . S
C2610 C2611 1.394 . S
C2610 C2616 1.465 . S
C2611 C2606 1.399 . S
C2611 C2610 1.394 . S
C2611 C2612 1.516 . S
C2612 C2611 1.516 . S
C2612 C2613 1.502 . S
C2612 C2614 1.561 . S
C2612 C2615 1.526 . S
C2613 H2597 0.959 . S
C2613 H2598 0.959 . S
C2613 H2599 0.961 . S
C2613 C2612 1.502 . S
C2614 H2600 0.960 . S
C2614 H2601 0.961 . S
C2614 H2602 0.959 . S
C2614 C2612 1.561 . S
C2615 C2612 1.526 . S
C2615 C2616 1.396 . S
C2615 C2620 1.390 . S
C2616 C2610 1.465 . S
C2616 C2615 1.396 . S
C2616 C2617 1.399 . S
C2617 H2603 0.929 . S
C2617 C2616 1.399 . S
C2617 C2618 1.385 . S
C2618 H2604 0.931 . S
C2618 C2617 1.385 . S
C2618 C2619 1.389 . S
C2619 C2618 1.389 . S
C2619 C2620 1.387 . S
C2620 H2605 0.930 . S
C2620 C2615 1.390 . S
C2620 C2619 1.387 . S
H2621 C2633 0.930 . S
H2622 C2635 0.930 . S
H2623 C2636 0.930 . S
H2624 C2640 0.959 . S
H2625 C2640 0.959 . S
H2626 C2640 0.961 . S
H2627 C2641 0.960 . S
H2628 C2641 0.961 . S
H2629 C2641 0.959 . S
H2630 C2644 0.929 . S
H2631 C2645 0.931 . S
H2632 C2647 0.930 . S
C2633 H2621 0.930 . S
C2633 C2634 1.399 . S
C2633 C2638 1.399 . S
C2634 C2633 1.399 . S
C2634 C2635 1.376 . S
C2635 H2622 0.930 . S
C2635 C2634 1.376 . S
C2635 C2636 1.388 . S
C2636 H2623 0.930 . S
C2636 C2635 1.388 . S
C2636 C2637 1.390 . S
C2637 C2636 1.390 . S
C2637 C2638 1.394 . S
C2637 C2643 1.465 . S
C2638 C2633 1.399 . S
C2638 C2637 1.394 . S
C2638 C2639 1.516 . S
C2639 C2638 1.516 . S
C2639 C2640 1.502 . S
C2639 C2641 1.561 . S
C2639 C2642 1.526 . S
C2640 H2624 0.959 . S
C2640 H2625 0.959 . S
C2640 H2626 0.961 . S
C2640 C2639 1.502 . S
C2641 H2627 0.960 . S
C2641 H2628 0.961 . S
C2641 H2629 0.959 . S
C2641 C2639 1.561 . S
C2642 C2639 1.526 . S
C2642 C2643 1.396 . S
C2642 C2647 1.390 . S
C2643 C2637 1.465 . S
C2643 C2642 1.396 . S
C2643 C2644 1.399 . S
C2644 H2630 0.929 . S
C2644 C2643 1.399 . S
C2644 C2645 1.385 . S
C2645 H2631 0.931 . S
C2645 C2644 1.385 . S
C2645 C2646 1.389 . S
C2646 C2645 1.389 . S
C2646 C2647 1.387 . S
C2647 H2632 0.930 . S
C2647 C2642 1.390 . S
C2647 C2646 1.387 . S
H2648 C2660 0.930 . S
H2649 C2662 0.930 . S
H2650 C2663 0.930 . S
H2651 C2667 0.959 . S
H2652 C2667 0.959 . S
H2653 C2667 0.961 . S
H2654 C2668 0.960 . S
H2655 C2668 0.961 . S
H2656 C2668 0.959 . S
H2657 C2671 0.929 . S
H2658 C2672 0.931 . S
H2659 C2674 0.930 . S
C2660 H2648 0.930 . S
C2660 C2661 1.399 . S
C2660 C2665 1.399 . S
C2661 C2660 1.399 . S
C2661 C2662 1.376 . S
C2662 H2649 0.930 . S
C2662 C2661 1.376 . S
C2662 C2663 1.388 . S
C2663 H2650 0.930 . S
C2663 C2662 1.388 . S
C2663 C2664 1.390 . S
C2664 C2663 1.390 . S
C2664 C2665 1.394 . S
C2664 C2670 1.465 . S
C2665 C2660 1.399 . S
C2665 C2664 1.394 . S
C2665 C2666 1.516 . S
C2666 C2665 1.516 . S
C2666 C2667 1.502 . S
C2666 C2668 1.561 . S
C2666 C2669 1.526 . S
C2667 H2651 0.959 . S
C2667 H2652 0.959 . S
C2667 H2653 0.961 . S
C2667 C2666 1.502 . S
C2668 H2654 0.960 . S
C2668 H2655 0.961 . S
C2668 H2656 0.959 . S
C2668 C2666 1.561 . S
C2669 C2666 1.526 . S
C2669 C2670 1.396 . S
C2669 C2674 1.390 . S
C2670 C2664 1.465 . S
C2670 C2669 1.396 . S
C2670 C2671 1.399 . S
C2671 H2657 0.929 . S
C2671 C2670 1.399 . S
C2671 C2672 1.385 . S
C2672 H2658 0.931 . S
C2672 C2671 1.385 . S
C2672 C2673 1.389 . S
C2673 C2672 1.389 . S
C2673 C2674 1.387 . S
C2674 H2659 0.930 . S
C2674 C2669 1.390 . S
C2674 C2673 1.387 . S
H2675 C2687 0.930 . S
H2676 C2689 0.930 . S
H2677 C2690 0.930 . S
H2678 C2694 0.959 . S
H2679 C2694 0.959 . S
H2680 C2694 0.961 . S
H2681 C2695 0.960 . S
H2682 C2695 0.961 . S
H2683 C2695 0.959 . S
H2684 C2698 0.929 . S
H2685 C2699 0.931 . S
H2686 C2701 0.930 . S
C2687 H2675 0.930 . S
C2687 C2688 1.399 . S
C2687 C2692 1.399 . S
C2688 C2687 1.399 . S
C2688 C2689 1.376 . S
C2689 H2676 0.930 . S
C2689 C2688 1.376 . S
C2689 C2690 1.388 . S
C2690 H2677 0.930 . S
C2690 C2689 1.388 . S
C2690 C2691 1.390 . S
C2691 C2690 1.390 . S
C2691 C2692 1.394 . S
C2691 C2697 1.465 . S
C2692 C2687 1.399 . S
C2692 C2691 1.394 . S
C2692 C2693 1.516 . S
C2693 C2692 1.516 . S
C2693 C2694 1.502 . S
C2693 C2695 1.561 . S
C2693 C2696 1.526 . S
C2694 H2678 0.959 . S
C2694 H2679 0.959 . S
C2694 H2680 0.961 . S
C2694 C2693 1.502 . S
C2695 H2681 0.960 . S
C2695 H2682 0.961 . S
C2695 H2683 0.959 . S
C2695 C2693 1.561 . S
C2696 C2693 1.526 . S
C2696 C2697 1.396 . S
C2696 C2701 1.390 . S
C2697 C2691 1.465 . S
C2697 C2696 1.396 . S
C2697 C2698 1.399 . S
C2698 H2684 0.929 . S
C2698 C2697 1.399 . S
C2698 C2699 1.385 . S
C2699 H2685 0.931 . S
C2699 C2698 1.385 . S
C2699 C2700 1.389 . S
C2700 C2699 1.389 . S
C2700 C2701 1.387 . S
C2701 H2686 0.930 . S
C2701 C2696 1.390 . S
C2701 C2700 1.387 . S
H2702 C2714 0.930 . S
H2703 C2716 0.930 . S
H2704 C2717 0.930 . S
H2705 C2721 0.959 . S
H2706 C2721 0.959 . S
H2707 C2721 0.961 . S
H2708 C2722 0.960 . S
H2709 C2722 0.961 . S
H2710 C2722 0.959 . S
H2711 C2725 0.929 . S
H2712 C2726 0.931 . S
H2713 C2728 0.930 . S
C2714 H2702 0.930 . S
C2714 C2715 1.399 . S
C2714 C2719 1.399 . S
C2715 C2714 1.399 . S
C2715 C2716 1.376 . S
C2716 H2703 0.930 . S
C2716 C2715 1.376 . S
C2716 C2717 1.388 . S
C2717 H2704 0.930 . S
C2717 C2716 1.388 . S
C2717 C2718 1.390 . S
C2718 C2717 1.390 . S
C2718 C2719 1.394 . S
C2718 C2724 1.465 . S
C2719 C2714 1.399 . S
C2719 C2718 1.394 . S
C2719 C2720 1.516 . S
C2720 C2719 1.516 . S
C2720 C2721 1.502 . S
C2720 C2722 1.561 . S
C2720 C2723 1.526 . S
C2721 H2705 0.959 . S
C2721 H2706 0.959 . S
C2721 H2707 0.961 . S
C2721 C2720 1.502 . S
C2722 H2708 0.960 . S
C2722 H2709 0.961 . S
C2722 H2710 0.959 . S
C2722 C2720 1.561 . S
C2723 C2720 1.526 . S
C2723 C2724 1.396 . S
C2723 C2728 1.390 . S
C2724 C2718 1.465 . S
C2724 C2723 1.396 . S
C2724 C2725 1.399 . S
C2725 H2711 0.929 . S
C2725 C2724 1.399 . S
C2725 C2726 1.385 . S
C2726 H2712 0.931 . S
C2726 C2725 1.385 . S
C2726 C2727 1.389 . S
C2727 C2726 1.389 . S
C2727 C2728 1.387 . S
C2728 H2713 0.930 . S
C2728 C2723 1.390 . S
C2728 C2727 1.387 . S
H2729 C2741 0.930 . S
H2730 C2743 0.930 . S
H2731 C2744 0.930 . S
H2732 C2748 0.959 . S
H2733 C2748 0.959 . S
H2734 C2748 0.961 . S
H2735 C2749 0.960 . S
H2736 C2749 0.961 . S
H2737 C2749 0.959 . S
H2738 C2752 0.929 . S
H2739 C2753 0.931 . S
H2740 C2755 0.930 . S
C2741 H2729 0.930 . S
C2741 C2742 1.399 . S
C2741 C2746 1.399 . S
C2742 C2741 1.399 . S
C2742 C2743 1.376 . S
C2743 H2730 0.930 . S
C2743 C2742 1.376 . S
C2743 C2744 1.388 . S
C2744 H2731 0.930 . S
C2744 C2743 1.388 . S
C2744 C2745 1.390 . S
C2745 C2744 1.390 . S
C2745 C2746 1.394 . S
C2745 C2751 1.465 . S
C2746 C2741 1.399 . S
C2746 C2745 1.394 . S
C2746 C2747 1.516 . S
C2747 C2746 1.516 . S
C2747 C2748 1.502 . S
C2747 C2749 1.561 . S
C2747 C2750 1.526 . S
C2748 H2732 0.959 . S
C2748 H2733 0.959 . S
C2748 H2734 0.961 . S
C2748 C2747 1.502 . S
C2749 H2735 0.960 . S
C2749 H2736 0.961 . S
C2749 H2737 0.959 . S
C2749 C2747 1.561 . S
C2750 C2747 1.526 . S
C2750 C2751 1.396 . S
C2750 C2755 1.390 . S
C2751 C2745 1.465 . S
C2751 C2750 1.396 . S
C2751 C2752 1.399 . S
C2752 H2738 0.929 . S
C2752 C2751 1.399 . S
C2752 C2753 1.385 . S
C2753 H2739 0.931 . S
C2753 C2752 1.385 . S
C2753 C2754 1.389 . S
C2754 C2753 1.389 . S
C2754 C2755 1.387 . S
C2755 H2740 0.930 . S
C2755 C2750 1.390 . S
C2755 C2754 1.387 . S
H2756 C2768 0.930 . S
H2757 C2770 0.930 . S
H2758 C2771 0.930 . S
H2759 C2775 0.959 . S
H2760 C2775 0.959 . S
H2761 C2775 0.961 . S
H2762 C2776 0.960 . S
H2763 C2776 0.961 . S
H2764 C2776 0.959 . S
H2765 C2779 0.929 . S
H2766 C2780 0.931 . S
H2767 C2782 0.930 . S
C2768 H2756 0.930 . S
C2768 C2769 1.399 . S
C2768 C2773 1.399 . S
C2769 C2768 1.399 . S
C2769 C2770 1.376 . S
C2770 H2757 0.930 . S
C2770 C2769 1.376 . S
C2770 C2771 1.388 . S
C2771 H2758 0.930 . S
C2771 C2770 1.388 . S
C2771 C2772 1.390 . S
C2772 C2771 1.390 . S
C2772 C2773 1.394 . S
C2772 C2778 1.465 . S
C2773 C2768 1.399 . S
C2773 C2772 1.394 . S
C2773 C2774 1.516 . S
C2774 C2773 1.516 . S
C2774 C2775 1.502 . S
C2774 C2776 1.561 . S
C2774 C2777 1.526 . S
C2775 H2759 0.959 . S
C2775 H2760 0.959 . S
C2775 H2761 0.961 . S
C2775 C2774 1.502 . S
C2776 H2762 0.960 . S
C2776 H2763 0.961 . S
C2776 H2764 0.959 . S
C2776 C2774 1.561 . S
C2777 C2774 1.526 . S
C2777 C2778 1.396 . S
C2777 C2782 1.390 . S
C2778 C2772 1.465 . S
C2778 C2777 1.396 . S
C2778 C2779 1.399 . S
C2779 H2765 0.929 . S
C2779 C2778 1.399 . S
C2779 C2780 1.385 . S
C2780 H2766 0.931 . S
C2780 C2779 1.385 . S
C2780 C2781 1.389 . S
C2781 C2780 1.389 . S
C2781 C2782 1.387 . S
C2782 H2767 0.930 . S
C2782 C2777 1.390 . S
C2782 C2781 1.387 . S
H2783 C2795 0.930 . S
H2784 C2797 0.930 . S
H2785 C2798 0.930 . S
H2786 C2802 0.959 . S
H2787 C2802 0.959 . S
H2788 C2802 0.961 . S
H2789 C2803 0.960 . S
H2790 C2803 0.961 . S
H2791 C2803 0.959 . S
H2792 C2806 0.929 . S
H2793 C2807 0.931 . S
H2794 C2809 0.930 . S
C2795 H2783 0.930 . S
C2795 C2796 1.399 . S
C2795 C2800 1.399 . S
C2796 C2795 1.399 . S
C2796 C2797 1.376 . S
C2797 H2784 0.930 . S
C2797 C2796 1.376 . S
C2797 C2798 1.388 . S
C2798 H2785 0.930 . S
C2798 C2797 1.388 . S
C2798 C2799 1.390 . S
C2799 C2798 1.390 . S
C2799 C2800 1.394 . S
C2799 C2805 1.465 . S
C2800 C2795 1.399 . S
C2800 C2799 1.394 . S
C2800 C2801 1.516 . S
C2801 C2800 1.516 . S
C2801 C2802 1.502 . S
C2801 C2803 1.561 . S
C2801 C2804 1.526 . S
C2802 H2786 0.959 . S
C2802 H2787 0.959 . S
C2802 H2788 0.961 . S
C2802 C2801 1.502 . S
C2803 H2789 0.960 . S
C2803 H2790 0.961 . S
C2803 H2791 0.959 . S
C2803 C2801 1.561 . S
C2804 C2801 1.526 . S
C2804 C2805 1.396 . S
C2804 C2809 1.390 . S
C2805 C2799 1.465 . S
C2805 C2804 1.396 . S
C2805 C2806 1.399 . S
C2806 H2792 0.929 . S
C2806 C2805 1.399 . S
C2806 C2807 1.385 . S
C2807 H2793 0.931 . S
C2807 C2806 1.385 . S
C2807 C2808 1.389 . S
C2808 C2807 1.389 . S
C2808 C2809 1.387 . S
C2809 H2794 0.930 . S
C2809 C2804 1.390 . S
C2809 C2808 1.387 . S
H2810 C2822 0.930 . S
H2811 C2824 0.930 . S
H2812 C2825 0.930 . S
H2813 C2829 0.959 . S
H2814 C2829 0.959 . S
H2815 C2829 0.961 . S
H2816 C2830 0.960 . S
H2817 C2830 0.961 . S
H2818 C2830 0.959 . S
H2819 C2833 0.929 . S
H2820 C2834 0.931 . S
H2821 C2836 0.930 . S
C2822 H2810 0.930 . S
C2822 C2823 1.399 . S
C2822 C2827 1.399 . S
C2823 C2822 1.399 . S
C2823 C2824 1.376 . S
C2824 H2811 0.930 . S
C2824 C2823 1.376 . S
C2824 C2825 1.388 . S
C2825 H2812 0.930 . S
C2825 C2824 1.388 . S
C2825 C2826 1.390 . S
C2826 C2825 1.390 . S
C2826 C2827 1.394 . S
C2826 C2832 1.465 . S
C2827 C2822 1.399 . S
C2827 C2826 1.394 . S
C2827 C2828 1.516 . S
C2828 C2827 1.516 . S
C2828 C2829 1.502 . S
C2828 C2830 1.561 . S
C2828 C2831 1.526 . S
C2829 H2813 0.959 . S
C2829 H2814 0.959 . S
C2829 H2815 0.961 . S
C2829 C2828 1.502 . S
C2830 H2816 0.960 . S
C2830 H2817 0.961 . S
C2830 H2818 0.959 . S
C2830 C2828 1.561 . S
C2831 C2828 1.526 . S
C2831 C2832 1.396 . S
C2831 C2836 1.390 . S
C2832 C2826 1.465 . S
C2832 C2831 1.396 . S
C2832 C2833 1.399 . S
C2833 H2819 0.929 . S
C2833 C2832 1.399 . S
C2833 C2834 1.385 . S
C2834 H2820 0.931 . S
C2834 C2833 1.385 . S
C2834 C2835 1.389 . S
C2835 C2834 1.389 . S
C2835 C2836 1.387 . S
C2836 H2821 0.930 . S
C2836 C2831 1.390 . S
C2836 C2835 1.387 . S
H2837 C2849 0.930 . S
H2838 C2851 0.930 . S
H2839 C2852 0.930 . S
H2840 C2856 0.959 . S
H2841 C2856 0.959 . S
H2842 C2856 0.961 . S
H2843 C2857 0.960 . S
H2844 C2857 0.961 . S
H2845 C2857 0.959 . S
H2846 C2860 0.929 . S
H2847 C2861 0.931 . S
H2848 C2863 0.930 . S
C2849 H2837 0.930 . S
C2849 C2850 1.399 . S
C2849 C2854 1.399 . S
C2850 C2849 1.399 . S
C2850 C2851 1.376 . S
C2851 H2838 0.930 . S
C2851 C2850 1.376 . S
C2851 C2852 1.388 . S
C2852 H2839 0.930 . S
C2852 C2851 1.388 . S
C2852 C2853 1.390 . S
C2853 C2852 1.390 . S
C2853 C2854 1.394 . S
C2853 C2859 1.465 . S
C2854 C2849 1.399 . S
C2854 C2853 1.394 . S
C2854 C2855 1.516 . S
C2855 C2854 1.516 . S
C2855 C2856 1.502 . S
C2855 C2857 1.561 . S
C2855 C2858 1.526 . S
C2856 H2840 0.959 . S
C2856 H2841 0.959 . S
C2856 H2842 0.961 . S
C2856 C2855 1.502 . S
C2857 H2843 0.960 . S
C2857 H2844 0.961 . S
C2857 H2845 0.959 . S
C2857 C2855 1.561 . S
C2858 C2855 1.526 . S
C2858 C2859 1.396 . S
C2858 C2863 1.390 . S
C2859 C2853 1.465 . S
C2859 C2858 1.396 . S
C2859 C2860 1.399 . S
C2860 H2846 0.929 . S
C2860 C2859 1.399 . S
C2860 C2861 1.385 . S
C2861 H2847 0.931 . S
C2861 C2860 1.385 . S
C2861 C2862 1.389 . S
C2862 C2861 1.389 . S
C2862 C2863 1.387 . S
C2863 H2848 0.930 . S
C2863 C2858 1.390 . S
C2863 C2862 1.387 . S
H2864 C2876 0.930 . S
H2865 C2878 0.930 . S
H2866 C2879 0.930 . S
H2867 C2883 0.959 . S
H2868 C2883 0.959 . S
H2869 C2883 0.961 . S
H2870 C2884 0.960 . S
H2871 C2884 0.961 . S
H2872 C2884 0.959 . S
H2873 C2887 0.929 . S
H2874 C2888 0.931 . S
H2875 C2890 0.930 . S
C2876 H2864 0.930 . S
C2876 C2877 1.399 . S
C2876 C2881 1.399 . S
C2877 C2876 1.399 . S
C2877 C2878 1.376 . S
C2878 H2865 0.930 . S
C2878 C2877 1.376 . S
C2878 C2879 1.388 . S
C2879 H2866 0.930 . S
C2879 C2878 1.388 . S
C2879 C2880 1.390 . S
C2880 C2879 1.390 . S
C2880 C2881 1.394 . S
C2880 C2886 1.465 . S
C2881 C2876 1.399 . S
C2881 C2880 1.394 . S
C2881 C2882 1.516 . S
C2882 C2881 1.516 . S
C2882 C2883 1.502 . S
C2882 C2884 1.561 . S
C2882 C2885 1.526 . S
C2883 H2867 0.959 . S
C2883 H2868 0.959 . S
C2883 H2869 0.961 . S
C2883 C2882 1.502 . S
C2884 H2870 0.960 . S
C2884 H2871 0.961 . S
C2884 H2872 0.959 . S
C2884 C2882 1.561 . S
C2885 C2882 1.526 . S
C2885 C2886 1.396 . S
C2885 C2890 1.390 . S
C2886 C2880 1.465 . S
C2886 C2885 1.396 . S
C2886 C2887 1.399 . S
C2887 H2873 0.929 . S
C2887 C2886 1.399 . S
C2887 C2888 1.385 . S
C2888 H2874 0.931 . S
C2888 C2887 1.385 . S
C2888 C2889 1.389 . S
C2889 C2888 1.389 . S
C2889 C2890 1.387 . S
C2890 H2875 0.930 . S
C2890 C2885 1.390 . S
C2890 C2889 1.387 . S
H2891 C2903 0.930 . S
H2892 C2905 0.930 . S
H2893 C2906 0.930 . S
H2894 C2910 0.959 . S
H2895 C2910 0.959 . S
H2896 C2910 0.961 . S
H2897 C2911 0.960 . S
H2898 C2911 0.961 . S
H2899 C2911 0.959 . S
H2900 C2914 0.929 . S
H2901 C2915 0.931 . S
H2902 C2917 0.930 . S
C2903 H2891 0.930 . S
C2903 C2904 1.399 . S
C2903 C2908 1.399 . S
C2904 C2903 1.399 . S
C2904 C2905 1.376 . S
C2905 H2892 0.930 . S
C2905 C2904 1.376 . S
C2905 C2906 1.388 . S
C2906 H2893 0.930 . S
C2906 C2905 1.388 . S
C2906 C2907 1.390 . S
C2907 C2906 1.390 . S
C2907 C2908 1.394 . S
C2907 C2913 1.465 . S
C2908 C2903 1.399 . S
C2908 C2907 1.394 . S
C2908 C2909 1.516 . S
C2909 C2908 1.516 . S
C2909 C2910 1.502 . S
C2909 C2911 1.561 . S
C2909 C2912 1.526 . S
C2910 H2894 0.959 . S
C2910 H2895 0.959 . S
C2910 H2896 0.961 . S
C2910 C2909 1.502 . S
C2911 H2897 0.960 . S
C2911 H2898 0.961 . S
C2911 H2899 0.959 . S
C2911 C2909 1.561 . S
C2912 C2909 1.526 . S
C2912 C2913 1.396 . S
C2912 C2917 1.390 . S
C2913 C2907 1.465 . S
C2913 C2912 1.396 . S
C2913 C2914 1.399 . S
C2914 H2900 0.929 . S
C2914 C2913 1.399 . S
C2914 C2915 1.385 . S
C2915 H2901 0.931 . S
C2915 C2914 1.385 . S
C2915 C2916 1.389 . S
C2916 C2915 1.389 . S
C2916 C2917 1.387 . S
C2917 H2902 0.930 . S
C2917 C2912 1.390 . S
C2917 C2916 1.387 . S
H2918 C2930 0.930 . S
H2919 C2932 0.930 . S
H2920 C2933 0.930 . S
H2921 C2937 0.959 . S
H2922 C2937 0.959 . S
H2923 C2937 0.961 . S
H2924 C2938 0.960 . S
H2925 C2938 0.961 . S
H2926 C2938 0.959 . S
H2927 C2941 0.929 . S
H2928 C2942 0.931 . S
H2929 C2944 0.930 . S
C2930 H2918 0.930 . S
C2930 C2931 1.399 . S
C2930 C2935 1.399 . S
C2931 C2930 1.399 . S
C2931 C2932 1.376 . S
C2932 H2919 0.930 . S
C2932 C2931 1.376 . S
C2932 C2933 1.388 . S
C2933 H2920 0.930 . S
C2933 C2932 1.388 . S
C2933 C2934 1.390 . S
C2934 C2933 1.390 . S
C2934 C2935 1.394 . S
C2934 C2940 1.465 . S
C2935 C2930 1.399 . S
C2935 C2934 1.394 . S
C2935 C2936 1.516 . S
C2936 C2935 1.516 . S
C2936 C2937 1.502 . S
C2936 C2938 1.561 . S
C2936 C2939 1.526 . S
C2937 H2921 0.959 . S
C2937 H2922 0.959 . S
C2937 H2923 0.961 . S
C2937 C2936 1.502 . S
C2938 H2924 0.960 . S
C2938 H2925 0.961 . S
C2938 H2926 0.959 . S
C2938 C2936 1.561 . S
C2939 C2936 1.526 . S
C2939 C2940 1.396 . S
C2939 C2944 1.390 . S
C2940 C2934 1.465 . S
C2940 C2939 1.396 . S
C2940 C2941 1.399 . S
C2941 H2927 0.929 . S
C2941 C2940 1.399 . S
C2941 C2942 1.385 . S
C2942 H2928 0.931 . S
C2942 C2941 1.385 . S
C2942 C2943 1.389 . S
C2943 C2942 1.389 . S
C2943 C2944 1.387 . S
C2944 H2929 0.930 . S
C2944 C2939 1.390 . S
C2944 C2943 1.387 . S
H2945 C2957 0.930 . S
H2946 C2959 0.930 . S
H2947 C2960 0.930 . S
H2948 C2964 0.959 . S
H2949 C2964 0.959 . S
H2950 C2964 0.961 . S
H2951 C2965 0.960 . S
H2952 C2965 0.961 . S
H2953 C2965 0.959 . S
H2954 C2968 0.929 . S
H2955 C2969 0.931 . S
H2956 C2971 0.930 . S
C2957 H2945 0.930 . S
C2957 C2958 1.399 . S
C2957 C2962 1.399 . S
C2958 C2957 1.399 . S
C2958 C2959 1.376 . S
C2959 H2946 0.930 . S
C2959 C2958 1.376 . S
C2959 C2960 1.388 . S
C2960 H2947 0.930 . S
C2960 C2959 1.388 . S
C2960 C2961 1.390 . S
C2961 C2960 1.390 . S
C2961 C2962 1.394 . S
C2961 C2967 1.465 . S
C2962 C2957 1.399 . S
C2962 C2961 1.394 . S
C2962 C2963 1.516 . S
C2963 C2962 1.516 . S
C2963 C2964 1.502 . S
C2963 C2965 1.561 . S
C2963 C2966 1.526 . S
C2964 H2948 0.959 . S
C2964 H2949 0.959 . S
C2964 H2950 0.961 . S
C2964 C2963 1.502 . S
C2965 H2951 0.960 . S
C2965 H2952 0.961 . S
C2965 H2953 0.959 . S
C2965 C2963 1.561 . S
C2966 C2963 1.526 . S
C2966 C2967 1.396 . S
C2966 C2971 1.390 . S
C2967 C2961 1.465 . S
C2967 C2966 1.396 . S
C2967 C2968 1.399 . S
C2968 H2954 0.929 . S
C2968 C2967 1.399 . S
C2968 C2969 1.385 . S
C2969 H2955 0.931 . S
C2969 C2968 1.385 . S
C2969 C2970 1.389 . S
C2970 C2969 1.389 . S
C2970 C2971 1.387 . S
C2971 H2956 0.930 . S
C2971 C2966 1.390 . S
C2971 C2970 1.387 . S
H2972 C2984 0.930 . S
H2973 C2986 0.930 . S
H2974 C2987 0.930 . S
H2975 C2991 0.959 . S
H2976 C2991 0.959 . S
H2977 C2991 0.961 . S
H2978 C2992 0.960 . S
H2979 C2992 0.961 . S
H2980 C2992 0.959 . S
H2981 C2995 0.929 . S
H2982 C2996 0.931 . S
H2983 C2998 0.930 . S
C2984 H2972 0.930 . S
C2984 C2985 1.399 . S
C2984 C2989 1.399 . S
C2985 C2984 1.399 . S
C2985 C2986 1.376 . S
C2986 H2973 0.930 . S
C2986 C2985 1.376 . S
C2986 C2987 1.388 . S
C2987 H2974 0.930 . S
C2987 C2986 1.388 . S
C2987 C2988 1.390 . S
C2988 C2987 1.390 . S
C2988 C2989 1.394 . S
C2988 C2994 1.465 . S
C2989 C2984 1.399 . S
C2989 C2988 1.394 . S
C2989 C2990 1.516 . S
C2990 C2989 1.516 . S
C2990 C2991 1.502 . S
C2990 C2992 1.561 . S
C2990 C2993 1.526 . S
C2991 H2975 0.959 . S
C2991 H2976 0.959 . S
C2991 H2977 0.961 . S
C2991 C2990 1.502 . S
C2992 H2978 0.960 . S
C2992 H2979 0.961 . S
C2992 H2980 0.959 . S
C2992 C2990 1.561 . S
C2993 C2990 1.526 . S
C2993 C2994 1.396 . S
C2993 C2998 1.390 . S
C2994 C2988 1.465 . S
C2994 C2993 1.396 . S
C2994 C2995 1.399 . S
C2995 H2981 0.929 . S
C2995 C2994 1.399 . S
C2995 C2996 1.385 . S
C2996 H2982 0.931 . S
C2996 C2995 1.385 . S
C2996 C2997 1.389 . S
C2997 C2996 1.389 . S
C2997 C2998 1.387 . S
C2998 H2983 0.930 . S
C2998 C2993 1.390 . S
C2998 C2997 1.387 . S
H2999 C3011 0.930 . S
H3000 C3013 0.930 . S
H3001 C3014 0.930 . S
H3002 C3018 0.959 . S
H3003 C3018 0.959 . S
H3004 C3018 0.961 . S
H3005 C3019 0.960 . S
H3006 C3019 0.961 . S
H3007 C3019 0.959 . S
H3008 C3022 0.929 . S
H3009 C3023 0.931 . S
H3010 C3025 0.930 . S
C3011 H2999 0.930 . S
C3011 C3012 1.399 . S
C3011 C3016 1.399 . S
C3012 C3011 1.399 . S
C3012 C3013 1.376 . S
C3013 H3000 0.930 . S
C3013 C3012 1.376 . S
C3013 C3014 1.388 . S
C3014 H3001 0.930 . S
C3014 C3013 1.388 . S
C3014 C3015 1.390 . S
C3015 C3014 1.390 . S
C3015 C3016 1.394 . S
C3015 C3021 1.465 . S
C3016 C3011 1.399 . S
C3016 C3015 1.394 . S
C3016 C3017 1.516 . S
C3017 C3016 1.516 . S
C3017 C3018 1.502 . S
C3017 C3019 1.561 . S
C3017 C3020 1.526 . S
C3018 H3002 0.959 . S
C3018 H3003 0.959 . S
C3018 H3004 0.961 . S
C3018 C3017 1.502 . S
C3019 H3005 0.960 . S
C3019 H3006 0.961 . S
C3019 H3007 0.959 . S
C3019 C3017 1.561 . S
C3020 C3017 1.526 . S
C3020 C3021 1.396 . S
C3020 C3025 1.390 . S
C3021 C3015 1.465 . S
C3021 C3020 1.396 . S
C3021 C3022 1.399 . S
C3022 H3008 0.929 . S
C3022 C3021 1.399 . S
C3022 C3023 1.385 . S
C3023 H3009 0.931 . S
C3023 C3022 1.385 . S
C3023 C3024 1.389 . S
C3024 C3023 1.389 . S
C3024 C3025 1.387 . S
C3025 H3010 0.930 . S
C3025 C3020 1.390 . S
C3025 C3024 1.387 . S
H3026 C3038 0.930 . S
H3027 C3040 0.930 . S
H3028 C3041 0.930 . S
H3029 C3045 0.959 . S
H3030 C3045 0.959 . S
H3031 C3045 0.961 . S
H3032 C3046 0.960 . S
H3033 C3046 0.961 . S
H3034 C3046 0.959 . S
H3035 C3049 0.929 . S
H3036 C3050 0.931 . S
H3037 C3052 0.930 . S
C3038 H3026 0.930 . S
C3038 C3039 1.399 . S
C3038 C3043 1.399 . S
C3039 C3038 1.399 . S
C3039 C3040 1.376 . S
C3040 H3027 0.930 . S
C3040 C3039 1.376 . S
C3040 C3041 1.388 . S
C3041 H3028 0.930 . S
C3041 C3040 1.388 . S
C3041 C3042 1.390 . S
C3042 C3041 1.390 . S
C3042 C3043 1.394 . S
C3042 C3048 1.465 . S
C3043 C3038 1.399 . S
C3043 C3042 1.394 . S
C3043 C3044 1.516 . S
C3044 C3043 1.516 . S
C3044 C3045 1.502 . S
C3044 C3046 1.561 . S
C3044 C3047 1.526 . S
C3045 H3029 0.959 . S
C3045 H3030 0.959 . S
C3045 H3031 0.961 . S
C3045 C3044 1.502 . S
C3046 H3032 0.960 . S
C3046 H3033 0.961 . S
C3046 H3034 0.959 . S
C3046 C3044 1.561 . S
C3047 C3044 1.526 . S
C3047 C3048 1.396 . S
C3047 C3052 1.390 . S
C3048 C3042 1.465 . S
C3048 C3047 1.396 . S
C3048 C3049 1.399 . S
C3049 H3035 0.929 . S
C3049 C3048 1.399 . S
C3049 C3050 1.385 . S
C3050 H3036 0.931 . S
C3050 C3049 1.385 . S
C3050 C3051 1.389 . S
C3051 C3050 1.389 . S
C3051 C3052 1.387 . S
C3052 H3037 0.930 . S
C3052 C3047 1.390 . S
C3052 C3051 1.387 . S
H3053 C3065 0.930 . S
H3054 C3067 0.930 . S
H3055 C3068 0.930 . S
H3056 C3072 0.959 . S
H3057 C3072 0.959 . S
H3058 C3072 0.961 . S
H3059 C3073 0.960 . S
H3060 C3073 0.961 . S
H3061 C3073 0.959 . S
H3062 C3076 0.929 . S
H3063 C3077 0.931 . S
H3064 C3079 0.930 . S
C3065 H3053 0.930 . S
C3065 C3066 1.399 . S
C3065 C3070 1.399 . S
C3066 C3065 1.399 . S
C3066 C3067 1.376 . S
C3067 H3054 0.930 . S
C3067 C3066 1.376 . S
C3067 C3068 1.388 . S
C3068 H3055 0.930 . S
C3068 C3067 1.388 . S
C3068 C3069 1.390 . S
C3069 C3068 1.390 . S
C3069 C3070 1.394 . S
C3069 C3075 1.465 . S
C3070 C3065 1.399 . S
C3070 C3069 1.394 . S
C3070 C3071 1.516 . S
C3071 C3070 1.516 . S
C3071 C3072 1.502 . S
C3071 C3073 1.561 . S
C3071 C3074 1.526 . S
C3072 H3056 0.959 . S
C3072 H3057 0.959 . S
C3072 H3058 0.961 . S
C3072 C3071 1.502 . S
C3073 H3059 0.960 . S
C3073 H3060 0.961 . S
C3073 H3061 0.959 . S
C3073 C3071 1.561 . S
C3074 C3071 1.526 . S
C3074 C3075 1.396 . S
C3074 C3079 1.390 . S
C3075 C3069 1.465 . S
C3075 C3074 1.396 . S
C3075 C3076 1.399 . S
C3076 H3062 0.929 . S
C3076 C3075 1.399 . S
C3076 C3077 1.385 . S
C3077 H3063 0.931 . S
C3077 C3076 1.385 . S
C3077 C3078 1.389 . S
C3078 C3077 1.389 . S
C3078 C3079 1.387 . S
C3079 H3064 0.930 . S
C3079 C3074 1.390 . S
C3079 C3078 1.387 . S
H3080 C3092 0.930 . S
H3081 C3094 0.930 . S
H3082 C3095 0.930 . S
H3083 C3099 0.959 . S
H3084 C3099 0.959 . S
H3085 C3099 0.961 . S
H3086 C3100 0.960 . S
H3087 C3100 0.961 . S
H3088 C3100 0.959 . S
H3089 C3103 0.929 . S
H3090 C3104 0.931 . S
H3091 C3106 0.930 . S
C3092 H3080 0.930 . S
C3092 C3093 1.399 . S
C3092 C3097 1.399 . S
C3093 C3092 1.399 . S
C3093 C3094 1.376 . S
C3094 H3081 0.930 . S
C3094 C3093 1.376 . S
C3094 C3095 1.388 . S
C3095 H3082 0.930 . S
C3095 C3094 1.388 . S
C3095 C3096 1.390 . S
C3096 C3095 1.390 . S
C3096 C3097 1.394 . S
C3096 C3102 1.465 . S
C3097 C3092 1.399 . S
C3097 C3096 1.394 . S
C3097 C3098 1.516 . S
C3098 C3097 1.516 . S
C3098 C3099 1.502 . S
C3098 C3100 1.561 . S
C3098 C3101 1.526 . S
C3099 H3083 0.959 . S
C3099 H3084 0.959 . S
C3099 H3085 0.961 . S
C3099 C3098 1.502 . S
C3100 H3086 0.960 . S
C3100 H3087 0.961 . S
C3100 H3088 0.959 . S
C3100 C3098 1.561 . S
C3101 C3098 1.526 . S
C3101 C3102 1.396 . S
C3101 C3106 1.390 . S
C3102 C3096 1.465 . S
C3102 C3101 1.396 . S
C3102 C3103 1.399 . S
C3103 H3089 0.929 . S
C3103 C3102 1.399 . S
C3103 C3104 1.385 . S
C3104 H3090 0.931 . S
C3104 C3103 1.385 . S
C3104 C3105 1.389 . S
C3105 C3104 1.389 . S
C3105 C3106 1.387 . S
C3106 H3091 0.930 . S
C3106 C3101 1.390 . S
C3106 C3105 1.387 . S
H3107 C3119 0.930 . S
H3108 C3121 0.930 . S
H3109 C3122 0.930 . S
H3110 C3126 0.959 . S
H3111 C3126 0.959 . S
H3112 C3126 0.961 . S
H3113 C3127 0.960 . S
H3114 C3127 0.961 . S
H3115 C3127 0.959 . S
H3116 C3130 0.929 . S
H3117 C3131 0.931 . S
H3118 C3133 0.930 . S
C3119 H3107 0.930 . S
C3119 C3120 1.399 . S
C3119 C3124 1.399 . S
C3120 C3119 1.399 . S
C3120 C3121 1.376 . S
C3121 H3108 0.930 . S
C3121 C3120 1.376 . S
C3121 C3122 1.388 . S
C3122 H3109 0.930 . S
C3122 C3121 1.388 . S
C3122 C3123 1.390 . S
C3123 C3122 1.390 . S
C3123 C3124 1.394 . S
C3123 C3129 1.465 . S
C3124 C3119 1.399 . S
C3124 C3123 1.394 . S
C3124 C3125 1.516 . S
C3125 C3124 1.516 . S
C3125 C3126 1.502 . S
C3125 C3127 1.561 . S
C3125 C3128 1.526 . S
C3126 H3110 0.959 . S
C3126 H3111 0.959 . S
C3126 H3112 0.961 . S
C3126 C3125 1.502 . S
C3127 H3113 0.960 . S
C3127 H3114 0.961 . S
C3127 H3115 0.959 . S
C3127 C3125 1.561 . S
C3128 C3125 1.526 . S
C3128 C3129 1.396 . S
C3128 C3133 1.390 . S
C3129 C3123 1.465 . S
C3129 C3128 1.396 . S
C3129 C3130 1.399 . S
C3130 H3116 0.929 . S
C3130 C3129 1.399 . S
C3130 C3131 1.385 . S
C3131 H3117 0.931 . S
C3131 C3130 1.385 . S
C3131 C3132 1.389 . S
C3132 C3131 1.389 . S
C3132 C3133 1.387 . S
C3133 H3118 0.930 . S
C3133 C3128 1.390 . S
C3133 C3132 1.387 . S
H3134 C3146 0.930 . S
H3135 C3148 0.930 . S
H3136 C3149 0.930 . S
H3137 C3153 0.959 . S
H3138 C3153 0.959 . S
H3139 C3153 0.961 . S
H3140 C3154 0.960 . S
H3141 C3154 0.961 . S
H3142 C3154 0.959 . S
H3143 C3157 0.929 . S
H3144 C3158 0.931 . S
H3145 C3160 0.930 . S
C3146 H3134 0.930 . S
C3146 C3147 1.399 . S
C3146 C3151 1.399 . S
C3147 C3146 1.399 . S
C3147 C3148 1.376 . S
C3148 H3135 0.930 . S
C3148 C3147 1.376 . S
C3148 C3149 1.388 . S
C3149 H3136 0.930 . S
C3149 C3148 1.388 . S
C3149 C3150 1.390 . S
C3150 C3149 1.390 . S
C3150 C3151 1.394 . S
C3150 C3156 1.465 . S
C3151 C3146 1.399 . S
C3151 C3150 1.394 . S
C3151 C3152 1.516 . S
C3152 C3151 1.516 . S
C3152 C3153 1.502 . S
C3152 C3154 1.561 . S
C3152 C3155 1.526 . S
C3153 H3137 0.959 . S
C3153 H3138 0.959 . S
C3153 H3139 0.961 . S
C3153 C3152 1.502 . S
C3154 H3140 0.960 . S
C3154 H3141 0.961 . S
C3154 H3142 0.959 . S
C3154 C3152 1.561 . S
C3155 C3152 1.526 . S
C3155 C3156 1.396 . S
C3155 C3160 1.390 . S
C3156 C3150 1.465 . S
C3156 C3155 1.396 . S
C3156 C3157 1.399 . S
C3157 H3143 0.929 . S
C3157 C3156 1.399 . S
C3157 C3158 1.385 . S
C3158 H3144 0.931 . S
C3158 C3157 1.385 . S
C3158 C3159 1.389 . S
C3159 C3158 1.389 . S
C3159 C3160 1.387 . S
C3160 H3145 0.930 . S
C3160 C3155 1.390 . S
C3160 C3159 1.387 . S
H3161 C3173 0.930 . S
H3162 C3175 0.930 . S
H3163 C3176 0.930 . S
H3164 C3180 0.959 . S
H3165 C3180 0.959 . S
H3166 C3180 0.961 . S
H3167 C3181 0.960 . S
H3168 C3181 0.961 . S
H3169 C3181 0.959 . S
H3170 C3184 0.929 . S
H3171 C3185 0.931 . S
H3172 C3187 0.930 . S
C3173 H3161 0.930 . S
C3173 C3174 1.399 . S
C3173 C3178 1.399 . S
C3174 C3173 1.399 . S
C3174 C3175 1.376 . S
C3175 H3162 0.930 . S
C3175 C3174 1.376 . S
C3175 C3176 1.388 . S
C3176 H3163 0.930 . S
C3176 C3175 1.388 . S
C3176 C3177 1.390 . S
C3177 C3176 1.390 . S
C3177 C3178 1.394 . S
C3177 C3183 1.465 . S
C3178 C3173 1.399 . S
C3178 C3177 1.394 . S
C3178 C3179 1.516 . S
C3179 C3178 1.516 . S
C3179 C3180 1.502 . S
C3179 C3181 1.561 . S
C3179 C3182 1.526 . S
C3180 H3164 0.959 . S
C3180 H3165 0.959 . S
C3180 H3166 0.961 . S
C3180 C3179 1.502 . S
C3181 H3167 0.960 . S
C3181 H3168 0.961 . S
C3181 H3169 0.959 . S
C3181 C3179 1.561 . S
C3182 C3179 1.526 . S
C3182 C3183 1.396 . S
C3182 C3187 1.390 . S
C3183 C3177 1.465 . S
C3183 C3182 1.396 . S
C3183 C3184 1.399 . S
C3184 H3170 0.929 . S
C3184 C3183 1.399 . S
C3184 C3185 1.385 . S
C3185 H3171 0.931 . S
C3185 C3184 1.385 . S
C3185 C3186 1.389 . S
C3186 C3185 1.389 . S
C3186 C3187 1.387 . S
C3187 H3172 0.930 . S
C3187 C3182 1.390 . S
C3187 C3186 1.387 . S
H3188 C3200 0.930 . S
H3189 C3202 0.930 . S
H3190 C3203 0.930 . S
H3191 C3207 0.959 . S
H3192 C3207 0.959 . S
H3193 C3207 0.961 . S
H3194 C3208 0.960 . S
H3195 C3208 0.961 . S
H3196 C3208 0.959 . S
H3197 C3211 0.929 . S
H3198 C3212 0.931 . S
H3199 C3214 0.930 . S
C3200 H3188 0.930 . S
C3200 C3201 1.399 . S
C3200 C3205 1.399 . S
C3201 C3200 1.399 . S
C3201 C3202 1.376 . S
C3202 H3189 0.930 . S
C3202 C3201 1.376 . S
C3202 C3203 1.388 . S
C3203 H3190 0.930 . S
C3203 C3202 1.388 . S
C3203 C3204 1.390 . S
C3204 C3203 1.390 . S
C3204 C3205 1.394 . S
C3204 C3210 1.465 . S
C3205 C3200 1.399 . S
C3205 C3204 1.394 . S
C3205 C3206 1.516 . S
C3206 C3205 1.516 . S
C3206 C3207 1.502 . S
C3206 C3208 1.561 . S
C3206 C3209 1.526 . S
C3207 H3191 0.959 . S
C3207 H3192 0.959 . S
C3207 H3193 0.961 . S
C3207 C3206 1.502 . S
C3208 H3194 0.960 . S
C3208 H3195 0.961 . S
C3208 H3196 0.959 . S
C3208 C3206 1.561 . S
C3209 C3206 1.526 . S
C3209 C3210 1.396 . S
C3209 C3214 1.390 . S
C3210 C3204 1.465 . S
C3210 C3209 1.396 . S
C3210 C3211 1.399 . S
C3211 H3197 0.929 . S
C3211 C3210 1.399 . S
C3211 C3212 1.385 . S
C3212 H3198 0.931 . S
C3212 C3211 1.385 . S
C3212 C3213 1.389 . S
C3213 C3212 1.389 . S
C3213 C3214 1.387 . S
C3214 H3199 0.930 . S
C3214 C3209 1.390 . S
C3214 C3213 1.387 . S
H3215 C3227 0.930 . S
H3216 C3229 0.930 . S
H3217 C3230 0.930 . S
H3218 C3234 0.959 . S
H3219 C3234 0.959 . S
H3220 C3234 0.961 . S
H3221 C3235 0.960 . S
H3222 C3235 0.961 . S
H3223 C3235 0.959 . S
H3224 C3238 0.929 . S
H3225 C3239 0.931 . S
H3226 C3241 0.930 . S
C3227 H3215 0.930 . S
C3227 C3228 1.399 . S
C3227 C3232 1.399 . S
C3228 C3227 1.399 . S
C3228 C3229 1.376 . S
C3229 H3216 0.930 . S
C3229 C3228 1.376 . S
C3229 C3230 1.388 . S
C3230 H3217 0.930 . S
C3230 C3229 1.388 . S
C3230 C3231 1.390 . S
C3231 C3230 1.390 . S
C3231 C3232 1.394 . S
C3231 C3237 1.465 . S
C3232 C3227 1.399 . S
C3232 C3231 1.394 . S
C3232 C3233 1.516 . S
C3233 C3232 1.516 . S
C3233 C3234 1.502 . S
C3233 C3235 1.561 . S
C3233 C3236 1.526 . S
C3234 H3218 0.959 . S
C3234 H3219 0.959 . S
C3234 H3220 0.961 . S
C3234 C3233 1.502 . S
C3235 H3221 0.960 . S
C3235 H3222 0.961 . S
C3235 H3223 0.959 . S
C3235 C3233 1.561 . S
C3236 C3233 1.526 . S
C3236 C3237 1.396 . S
C3236 C3241 1.390 . S
C3237 C3231 1.465 . S
C3237 C3236 1.396 . S
C3237 C3238 1.399 . S
C3238 H3224 0.929 . S
C3238 C3237 1.399 . S
C3238 C3239 1.385 . S
C3239 H3225 0.931 . S
C3239 C3238 1.385 . S
C3239 C3240 1.389 . S
C3240 C3239 1.389 . S
C3240 C3241 1.387 . S
C3241 H3226 0.930 . S
C3241 C3236 1.390 . S
C3241 C3240 1.387 . S
H3242 C3254 0.930 . S
H3243 C3256 0.930 . S
H3244 C3257 0.930 . S
H3245 C3261 0.959 . S
H3246 C3261 0.959 . S
H3247 C3261 0.961 . S
H3248 C3262 0.960 . S
H3249 C3262 0.961 . S
H3250 C3262 0.959 . S
H3251 C3265 0.929 . S
H3252 C3266 0.931 . S
H3253 C3268 0.930 . S
C3254 H3242 0.930 . S
C3254 C3255 1.399 . S
C3254 C3259 1.399 . S
C3255 C3254 1.399 . S
C3255 C3256 1.376 . S
C3256 H3243 0.930 . S
C3256 C3255 1.376 . S
C3256 C3257 1.388 . S
C3257 H3244 0.930 . S
C3257 C3256 1.388 . S
C3257 C3258 1.390 . S
C3258 C3257 1.390 . S
C3258 C3259 1.394 . S
C3258 C3264 1.465 . S
C3259 C3254 1.399 . S
C3259 C3258 1.394 . S
C3259 C3260 1.516 . S
C3260 C3259 1.516 . S
C3260 C3261 1.502 . S
C3260 C3262 1.561 . S
C3260 C3263 1.526 . S
C3261 H3245 0.959 . S
C3261 H3246 0.959 . S
C3261 H3247 0.961 . S
C3261 C3260 1.502 . S
C3262 H3248 0.960 . S
C3262 H3249 0.961 . S
C3262 H3250 0.959 . S
C3262 C3260 1.561 . S
C3263 C3260 1.526 . S
C3263 C3264 1.396 . S
C3263 C3268 1.390 . S
C3264 C3258 1.465 . S
C3264 C3263 1.396 . S
C3264 C3265 1.399 . S
C3265 H3251 0.929 . S
C3265 C3264 1.399 . S
C3265 C3266 1.385 . S
C3266 H3252 0.931 . S
C3266 C3265 1.385 . S
C3266 C3267 1.389 . S
C3267 C3266 1.389 . S
C3267 C3268 1.387 . S
C3268 H3253 0.930 . S
C3268 C3263 1.390 . S
C3268 C3267 1.387 . S
H3269 C3281 0.930 . S
H3270 C3283 0.930 . S
H3271 C3284 0.930 . S
H3272 C3288 0.959 . S
H3273 C3288 0.959 . S
H3274 C3288 0.961 . S
H3275 C3289 0.960 . S
H3276 C3289 0.961 . S
H3277 C3289 0.959 . S
H3278 C3292 0.929 . S
H3279 C3293 0.931 . S
H3280 C3295 0.930 . S
C3281 H3269 0.930 . S
C3281 C3282 1.399 . S
C3281 C3286 1.399 . S
C3282 C3281 1.399 . S
C3282 C3283 1.376 . S
C3283 H3270 0.930 . S
C3283 C3282 1.376 . S
C3283 C3284 1.388 . S
C3284 H3271 0.930 . S
C3284 C3283 1.388 . S
C3284 C3285 1.390 . S
C3285 C3284 1.390 . S
C3285 C3286 1.394 . S
C3285 C3291 1.465 . S
C3286 C3281 1.399 . S
C3286 C3285 1.394 . S
C3286 C3287 1.516 . S
C3287 C3286 1.516 . S
C3287 C3288 1.502 . S
C3287 C3289 1.561 . S
C3287 C3290 1.526 . S
C3288 H3272 0.959 . S
C3288 H3273 0.959 . S
C3288 H3274 0.961 . S
C3288 C3287 1.502 . S
C3289 H3275 0.960 . S
C3289 H3276 0.961 . S
C3289 H3277 0.959 . S
C3289 C3287 1.561 . S
C3290 C3287 1.526 . S
C3290 C3291 1.396 . S
C3290 C3295 1.390 . S
C3291 C3285 1.465 . S
C3291 C3290 1.396 . S
C3291 C3292 1.399 . S
C3292 H3278 0.929 . S
C3292 C3291 1.399 . S
C3292 C3293 1.385 . S
C3293 H3279 0.931 . S
C3293 C3292 1.385 . S
C3293 C3294 1.389 . S
C3294 C3293 1.389 . S
C3294 C3295 1.387 . S
C3295 H3280 0.930 . S
C3295 C3290 1.390 . S
C3295 C3294 1.387 . S
H3296 C3308 0.930 . S
H3297 C3310 0.930 . S
H3298 C3311 0.930 . S
H3299 C3315 0.959 . S
H3300 C3315 0.959 . S
H3301 C3315 0.961 . S
H3302 C3316 0.960 . S
H3303 C3316 0.961 . S
H3304 C3316 0.959 . S
H3305 C3319 0.929 . S
H3306 C3320 0.931 . S
H3307 C3322 0.930 . S
C3308 H3296 0.930 . S
C3308 C3309 1.399 . S
C3308 C3313 1.399 . S
C3309 C3308 1.399 . S
C3309 C3310 1.376 . S
C3310 H3297 0.930 . S
C3310 C3309 1.376 . S
C3310 C3311 1.388 . S
C3311 H3298 0.930 . S
C3311 C3310 1.388 . S
C3311 C3312 1.390 . S
C3312 C3311 1.390 . S
C3312 C3313 1.394 . S
C3312 C3318 1.465 . S
C3313 C3308 1.399 . S
C3313 C3312 1.394 . S
C3313 C3314 1.516 . S
C3314 C3313 1.516 . S
C3314 C3315 1.502 . S
C3314 C3316 1.561 . S
C3314 C3317 1.526 . S
C3315 H3299 0.959 . S
C3315 H3300 0.959 . S
C3315 H3301 0.961 . S
C3315 C3314 1.502 . S
C3316 H3302 0.960 . S
C3316 H3303 0.961 . S
C3316 H3304 0.959 . S
C3316 C3314 1.561 . S
C3317 C3314 1.526 . S
C3317 C3318 1.396 . S
C3317 C3322 1.390 . S
C3318 C3312 1.465 . S
C3318 C3317 1.396 . S
C3318 C3319 1.399 . S
C3319 H3305 0.929 . S
C3319 C3318 1.399 . S
C3319 C3320 1.385 . S
C3320 H3306 0.931 . S
C3320 C3319 1.385 . S
C3320 C3321 1.389 . S
C3321 C3320 1.389 . S
C3321 C3322 1.387 . S
C3322 H3307 0.930 . S
C3322 C3317 1.390 . S
C3322 C3321 1.387 . S
H3323 C3335 0.930 . S
H3324 C3337 0.930 . S
H3325 C3338 0.930 . S
H3326 C3342 0.959 . S
H3327 C3342 0.959 . S
H3328 C3342 0.961 . S
H3329 C3343 0.960 . S
H3330 C3343 0.961 . S
H3331 C3343 0.959 . S
H3332 C3346 0.929 . S
H3333 C3347 0.931 . S
H3334 C3349 0.930 . S
C3335 H3323 0.930 . S
C3335 C3336 1.399 . S
C3335 C3340 1.399 . S
C3336 C3335 1.399 . S
C3336 C3337 1.376 . S
C3337 H3324 0.930 . S
C3337 C3336 1.376 . S
C3337 C3338 1.388 . S
C3338 H3325 0.930 . S
C3338 C3337 1.388 . S
C3338 C3339 1.390 . S
C3339 C3338 1.390 . S
C3339 C3340 1.394 . S
C3339 C3345 1.465 . S
C3340 C3335 1.399 . S
C3340 C3339 1.394 . S
C3340 C3341 1.516 . S
C3341 C3340 1.516 . S
C3341 C3342 1.502 . S
C3341 C3343 1.561 . S
C3341 C3344 1.526 . S
C3342 H3326 0.959 . S
C3342 H3327 0.959 . S
C3342 H3328 0.961 . S
C3342 C3341 1.502 . S
C3343 H3329 0.960 . S
C3343 H3330 0.961 . S
C3343 H3331 0.959 . S
C3343 C3341 1.561 . S
C3344 C3341 1.526 . S
C3344 C3345 1.396 . S
C3344 C3349 1.390 . S
C3345 C3339 1.465 . S
C3345 C3344 1.396 . S
C3345 C3346 1.399 . S
C3346 H3332 0.929 . S
C3346 C3345 1.399 . S
C3346 C3347 1.385 . S
C3347 H3333 0.931 . S
C3347 C3346 1.385 . S
C3347 C3348 1.389 . S
C3348 C3347 1.389 . S
C3348 C3349 1.387 . S
C3349 H3334 0.930 . S
C3349 C3344 1.390 . S
C3349 C3348 1.387 . S
H3350 C3362 0.930 . S
H3351 C3364 0.930 . S
H3352 C3365 0.930 . S
H3353 C3369 0.959 . S
H3354 C3369 0.959 . S
H3355 C3369 0.961 . S
H3356 C3370 0.960 . S
H3357 C3370 0.961 . S
H3358 C3370 0.959 . S
H3359 C3373 0.929 . S
H3360 C3374 0.931 . S
H3361 C3376 0.930 . S
C3362 H3350 0.930 . S
C3362 C3363 1.399 . S
C3362 C3367 1.399 . S
C3363 C3362 1.399 . S
C3363 C3364 1.376 . S
C3364 H3351 0.930 . S
C3364 C3363 1.376 . S
C3364 C3365 1.388 . S
C3365 H3352 0.930 . S
C3365 C3364 1.388 . S
C3365 C3366 1.390 . S
C3366 C3365 1.390 . S
C3366 C3367 1.394 . S
C3366 C3372 1.465 . S
C3367 C3362 1.399 . S
C3367 C3366 1.394 . S
C3367 C3368 1.516 . S
C3368 C3367 1.516 . S
C3368 C3369 1.502 . S
C3368 C3370 1.561 . S
C3368 C3371 1.526 . S
C3369 H3353 0.959 . S
C3369 H3354 0.959 . S
C3369 H3355 0.961 . S
C3369 C3368 1.502 . S
C3370 H3356 0.960 . S
C3370 H3357 0.961 . S
C3370 H3358 0.959 . S
C3370 C3368 1.561 . S
C3371 C3368 1.526 . S
C3371 C3372 1.396 . S
C3371 C3376 1.390 . S
C3372 C3366 1.465 . S
C3372 C3371 1.396 . S
C3372 C3373 1.399 . S
C3373 H3359 0.929 . S
C3373 C3372 1.399 . S
C3373 C3374 1.385 . S
C3374 H3360 0.931 . S
C3374 C3373 1.385 . S
C3374 C3375 1.389 . S
C3375 C3374 1.389 . S
C3375 C3376 1.387 . S
C3376 H3361 0.930 . S
C3376 C3371 1.390 . S
C3376 C3375 1.387 . S
H3377 C3389 0.930 . S
H3378 C3391 0.930 . S
H3379 C3392 0.930 . S
H3380 C3396 0.959 . S
H3381 C3396 0.959 . S
H3382 C3396 0.961 . S
H3383 C3397 0.960 . S
H3384 C3397 0.961 . S
H3385 C3397 0.959 . S
H3386 C3400 0.929 . S
H3387 C3401 0.931 . S
H3388 C3403 0.930 . S
C3389 H3377 0.930 . S
C3389 C3390 1.399 . S
C3389 C3394 1.399 . S
C3390 C3389 1.399 . S
C3390 C3391 1.376 . S
C3391 H3378 0.930 . S
C3391 C3390 1.376 . S
C3391 C3392 1.388 . S
C3392 H3379 0.930 . S
C3392 C3391 1.388 . S
C3392 C3393 1.390 . S
C3393 C3392 1.390 . S
C3393 C3394 1.394 . S
C3393 C3399 1.465 . S
C3394 C3389 1.399 . S
C3394 C3393 1.394 . S
C3394 C3395 1.516 . S
C3395 C3394 1.516 . S
C3395 C3396 1.502 . S
C3395 C3397 1.561 . S
C3395 C3398 1.526 . S
C3396 H3380 0.959 . S
C3396 H3381 0.959 . S
C3396 H3382 0.961 . S
C3396 C3395 1.502 . S
C3397 H3383 0.960 . S
C3397 H3384 0.961 . S
C3397 H3385 0.959 . S
C3397 C3395 1.561 . S
C3398 C3395 1.526 . S
C3398 C3399 1.396 . S
C3398 C3403 1.390 . S
C3399 C3393 1.465 . S
C3399 C3398 1.396 . S
C3399 C3400 1.399 . S
C3400 H3386 0.929 . S
C3400 C3399 1.399 . S
C3400 C3401 1.385 . S
C3401 H3387 0.931 . S
C3401 C3400 1.385 . S
C3401 C3402 1.389 . S
C3402 C3401 1.389 . S
C3402 C3403 1.387 . S
C3403 H3388 0.930 . S
C3403 C3398 1.390 . S
C3403 C3402 1.387 . S
H3404 C3416 0.930 . S
H3405 C3418 0.930 . S
H3406 C3419 0.930 . S
H3407 C3423 0.959 . S
H3408 C3423 0.959 . S
H3409 C3423 0.961 . S
H3410 C3424 0.960 . S
H3411 C3424 0.961 . S
H3412 C3424 0.959 . S
H3413 C3427 0.929 . S
H3414 C3428 0.931 . S
H3415 C3430 0.930 . S
C3416 H3404 0.930 . S
C3416 C3417 1.399 . S
C3416 C3421 1.399 . S
C3417 C3416 1.399 . S
C3417 C3418 1.376 . S
C3418 H3405 0.930 . S
C3418 C3417 1.376 . S
C3418 C3419 1.388 . S
C3419 H3406 0.930 . S
C3419 C3418 1.388 . S
C3419 C3420 1.390 . S
C3420 C3419 1.390 . S
C3420 C3421 1.394 . S
C3420 C3426 1.465 . S
C3421 C3416 1.399 . S
C3421 C3420 1.394 . S
C3421 C3422 1.516 . S
C3422 C3421 1.516 . S
C3422 C3423 1.502 . S
C3422 C3424 1.561 . S
C3422 C3425 1.526 . S
C3423 H3407 0.959 . S
C3423 H3408 0.959 . S
C3423 H3409 0.961 . S
C3423 C3422 1.502 . S
C3424 H3410 0.960 . S
C3424 H3411 0.961 . S
C3424 H3412 0.959 . S
C3424 C3422 1.561 . S
C3425 C3422 1.526 . S
C3425 C3426 1.396 . S
C3425 C3430 1.390 . S
C3426 C3420 1.465 . S
C3426 C3425 1.396 . S
C3426 C3427 1.399 . S
C3427 H3413 0.929 . S
C3427 C3426 1.399 . S
C3427 C3428 1.385 . S
C3428 H3414 0.931 . S
C3428 C3427 1.385 . S
C3428 C3429 1.389 . S
C3429 C3428 1.389 . S
C3429 C3430 1.387 . S
C3430 H3415 0.930 . S
C3430 C3425 1.390 . S
C3430 C3429 1.387 . S
H3431 C3443 0.930 . S
H3432 C3445 0.930 . S
H3433 C3446 0.930 . S
H3434 C3450 0.959 . S
H3435 C3450 0.959 . S
H3436 C3450 0.961 . S
H3437 C3451 0.960 . S
H3438 C3451 0.961 . S
H3439 C3451 0.959 . S
H3440 C3454 0.929 . S
H3441 C3455 0.931 . S
H3442 C3457 0.930 . S
C3443 H3431 0.930 . S
C3443 C3444 1.399 . S
C3443 C3448 1.399 . S
C3444 C3443 1.399 . S
C3444 C3445 1.376 . S
C3445 H3432 0.930 . S
C3445 C3444 1.376 . S
C3445 C3446 1.388 . S
C3446 H3433 0.930 . S
C3446 C3445 1.388 . S
C3446 C3447 1.390 . S
C3447 C3446 1.390 . S
C3447 C3448 1.394 . S
C3447 C3453 1.465 . S
C3448 C3443 1.399 . S
C3448 C3447 1.394 . S
C3448 C3449 1.516 . S
C3449 C3448 1.516 . S
C3449 C3450 1.502 . S
C3449 C3451 1.561 . S
C3449 C3452 1.526 . S
C3450 H3434 0.959 . S
C3450 H3435 0.959 . S
C3450 H3436 0.961 . S
C3450 C3449 1.502 . S
C3451 H3437 0.960 . S
C3451 H3438 0.961 . S
C3451 H3439 0.959 . S
C3451 C3449 1.561 . S
C3452 C3449 1.526 . S
C3452 C3453 1.396 . S
C3452 C3457 1.390 . S
C3453 C3447 1.465 . S
C3453 C3452 1.396 . S
C3453 C3454 1.399 . S
C3454 H3440 0.929 . S
C3454 C3453 1.399 . S
C3454 C3455 1.385 . S
C3455 H3441 0.931 . S
C3455 C3454 1.385 . S
C3455 C3456 1.389 . S
C3456 C3455 1.389 . S
C3456 C3457 1.387 . S
C3457 H3442 0.930 . S
C3457 C3452 1.390 . S
C3457 C3456 1.387 . S
H3458 C3470 0.930 . S
H3459 C3472 0.930 . S
H3460 C3473 0.930 . S
H3461 C3477 0.959 . S
H3462 C3477 0.959 . S
H3463 C3477 0.961 . S
H3464 C3478 0.960 . S
H3465 C3478 0.961 . S
H3466 C3478 0.959 . S
H3467 C3481 0.929 . S
H3468 C3482 0.931 . S
H3469 C3484 0.930 . S
C3470 H3458 0.930 . S
C3470 C3471 1.399 . S
C3470 C3475 1.399 . S
C3471 C3470 1.399 . S
C3471 C3472 1.376 . S
C3472 H3459 0.930 . S
C3472 C3471 1.376 . S
C3472 C3473 1.388 . S
C3473 H3460 0.930 . S
C3473 C3472 1.388 . S
C3473 C3474 1.390 . S
C3474 C3473 1.390 . S
C3474 C3475 1.394 . S
C3474 C3480 1.465 . S
C3475 C3470 1.399 . S
C3475 C3474 1.394 . S
C3475 C3476 1.516 . S
C3476 C3475 1.516 . S
C3476 C3477 1.502 . S
C3476 C3478 1.561 . S
C3476 C3479 1.526 . S
C3477 H3461 0.959 . S
C3477 H3462 0.959 . S
C3477 H3463 0.961 . S
C3477 C3476 1.502 . S
C3478 H3464 0.960 . S
C3478 H3465 0.961 . S
C3478 H3466 0.959 . S
C3478 C3476 1.561 . S
C3479 C3476 1.526 . S
C3479 C3480 1.396 . S
C3479 C3484 1.390 . S
C3480 C3474 1.465 . S
C3480 C3479 1.396 . S
C3480 C3481 1.399 . S
C3481 H3467 0.929 . S
C3481 C3480 1.399 . S
C3481 C3482 1.385 . S
C3482 H3468 0.931 . S
C3482 C3481 1.385 . S
C3482 C3483 1.389 . S
C3483 C3482 1.389 . S
C3483 C3484 1.387 . S
C3484 H3469 0.930 . S
C3484 C3479 1.390 . S
C3484 C3483 1.387 . S
H3485 C3497 0.930 . S
H3486 C3499 0.930 . S
H3487 C3500 0.930 . S
H3488 C3504 0.959 . S
H3489 C3504 0.959 . S
H3490 C3504 0.961 . S
H3491 C3505 0.960 . S
H3492 C3505 0.961 . S
H3493 C3505 0.959 . S
H3494 C3508 0.929 . S
H3495 C3509 0.931 . S
H3496 C3511 0.930 . S
C3497 H3485 0.930 . S
C3497 C3498 1.399 . S
C3497 C3502 1.399 . S
C3498 C3497 1.399 . S
C3498 C3499 1.376 . S
C3499 H3486 0.930 . S
C3499 C3498 1.376 . S
C3499 C3500 1.388 . S
C3500 H3487 0.930 . S
C3500 C3499 1.388 . S
C3500 C3501 1.390 . S
C3501 C3500 1.390 . S
C3501 C3502 1.394 . S
C3501 C3507 1.465 . S
C3502 C3497 1.399 . S
C3502 C3501 1.394 . S
C3502 C3503 1.516 . S
C3503 C3502 1.516 . S
C3503 C3504 1.502 . S
C3503 C3505 1.561 . S
C3503 C3506 1.526 . S
C3504 H3488 0.959 . S
C3504 H3489 0.959 . S
C3504 H3490 0.961 . S
C3504 C3503 1.502 . S
C3505 H3491 0.960 . S
C3505 H3492 0.961 . S
C3505 H3493 0.959 . S
C3505 C3503 1.561 . S
C3506 C3503 1.526 . S
C3506 C3507 1.396 . S
C3506 C3511 1.390 . S
C3507 C3501 1.465 . S
C3507 C3506 1.396 . S
C3507 C3508 1.399 . S
C3508 H3494 0.929 . S
C3508 C3507 1.399 . S
C3508 C3509 1.385 . S
C3509 H3495 0.931 . S
C3509 C3508 1.385 . S
C3509 C3510 1.389 . S
C3510 C3509 1.389 . S
C3510 C3511 1.387 . S
C3511 H3496 0.930 . S
C3511 C3506 1.390 . S
C3511 C3510 1.387 . S
H3512 C3524 0.930 . S
H3513 C3526 0.930 . S
H3514 C3527 0.930 . S
H3515 C3531 0.959 . S
H3516 C3531 0.959 . S
H3517 C3531 0.961 . S
H3518 C3532 0.960 . S
H3519 C3532 0.961 . S
H3520 C3532 0.959 . S
H3521 C3535 0.929 . S
H3522 C3536 0.931 . S
H3523 C3538 0.930 . S
C3524 H3512 0.930 . S
C3524 C3525 1.399 . S
C3524 C3529 1.399 . S
C3525 C3524 1.399 . S
C3525 C3526 1.376 . S
C3526 H3513 0.930 . S
C3526 C3525 1.376 . S
C3526 C3527 1.388 . S
C3527 H3514 0.930 . S
C3527 C3526 1.388 . S
C3527 C3528 1.390 . S
C3528 C3527 1.390 . S
C3528 C3529 1.394 . S
C3528 C3534 1.465 . S
C3529 C3524 1.399 . S
C3529 C3528 1.394 . S
C3529 C3530 1.516 . S
C3530 C3529 1.516 . S
C3530 C3531 1.502 . S
C3530 C3532 1.561 . S
C3530 C3533 1.526 . S
C3531 H3515 0.959 . S
C3531 H3516 0.959 . S
C3531 H3517 0.961 . S
C3531 C3530 1.502 . S
C3532 H3518 0.960 . S
C3532 H3519 0.961 . S
C3532 H3520 0.959 . S
C3532 C3530 1.561 . S
C3533 C3530 1.526 . S
C3533 C3534 1.396 . S
C3533 C3538 1.390 . S
C3534 C3528 1.465 . S
C3534 C3533 1.396 . S
C3534 C3535 1.399 . S
C3535 H3521 0.929 . S
C3535 C3534 1.399 . S
C3535 C3536 1.385 . S
C3536 H3522 0.931 . S
C3536 C3535 1.385 . S
C3536 C3537 1.389 . S
C3537 C3536 1.389 . S
C3537 C3538 1.387 . S
C3538 H3523 0.930 . S
C3538 C3533 1.390 . S
C3538 C3537 1.387 . S
H3539 C3551 0.930 . S
H3540 C3553 0.930 . S
H3541 C3554 0.930 . S
H3542 C3558 0.959 . S
H3543 C3558 0.959 . S
H3544 C3558 0.961 . S
H3545 C3559 0.960 . S
H3546 C3559 0.961 . S
H3547 C3559 0.959 . S
H3548 C3562 0.929 . S
H3549 C3563 0.931 . S
H3550 C3565 0.930 . S
C3551 H3539 0.930 . S
C3551 C3552 1.399 . S
C3551 C3556 1.399 . S
C3552 C3551 1.399 . S
C3552 C3553 1.376 . S
C3553 H3540 0.930 . S
C3553 C3552 1.376 . S
C3553 C3554 1.388 . S
C3554 H3541 0.930 . S
C3554 C3553 1.388 . S
C3554 C3555 1.390 . S
C3555 C3554 1.390 . S
C3555 C3556 1.394 . S
C3555 C3561 1.465 . S
C3556 C3551 1.399 . S
C3556 C3555 1.394 . S
C3556 C3557 1.516 . S
C3557 C3556 1.516 . S
C3557 C3558 1.502 . S
C3557 C3559 1.561 . S
C3557 C3560 1.526 . S
C3558 H3542 0.959 . S
C3558 H3543 0.959 . S
C3558 H3544 0.961 . S
C3558 C3557 1.502 . S
C3559 H3545 0.960 . S
C3559 H3546 0.961 . S
C3559 H3547 0.959 . S
C3559 C3557 1.561 . S
C3560 C3557 1.526 . S
C3560 C3561 1.396 . S
C3560 C3565 1.390 . S
C3561 C3555 1.465 . S
C3561 C3560 1.396 . S
C3561 C3562 1.399 . S
C3562 H3548 0.929 . S
C3562 C3561 1.399 . S
C3562 C3563 1.385 . S
C3563 H3549 0.931 . S
C3563 C3562 1.385 . S
C3563 C3564 1.389 . S
C3564 C3563 1.389 . S
C3564 C3565 1.387 . S
C3565 H3550 0.930 . S
C3565 C3560 1.390 . S
C3565 C3564 1.387 . S
H3566 C3578 0.930 . S
H3567 C3580 0.930 . S
H3568 C3581 0.930 . S
H3569 C3585 0.959 . S
H3570 C3585 0.959 . S
H3571 C3585 0.961 . S
H3572 C3586 0.960 . S
H3573 C3586 0.961 . S
H3574 C3586 0.959 . S
H3575 C3589 0.929 . S
H3576 C3590 0.931 . S
H3577 C3592 0.930 . S
C3578 H3566 0.930 . S
C3578 C3579 1.399 . S
C3578 C3583 1.399 . S
C3579 C3578 1.399 . S
C3579 C3580 1.376 . S
C3580 H3567 0.930 . S
C3580 C3579 1.376 . S
C3580 C3581 1.388 . S
C3581 H3568 0.930 . S
C3581 C3580 1.388 . S
C3581 C3582 1.390 . S
C3582 C3581 1.390 . S
C3582 C3583 1.394 . S
C3582 C3588 1.465 . S
C3583 C3578 1.399 . S
C3583 C3582 1.394 . S
C3583 C3584 1.516 . S
C3584 C3583 1.516 . S
C3584 C3585 1.502 . S
C3584 C3586 1.561 . S
C3584 C3587 1.526 . S
C3585 H3569 0.959 . S
C3585 H3570 0.959 . S
C3585 H3571 0.961 . S
C3585 C3584 1.502 . S
C3586 H3572 0.960 . S
C3586 H3573 0.961 . S
C3586 H3574 0.959 . S
C3586 C3584 1.561 . S
C3587 C3584 1.526 . S
C3587 C3588 1.396 . S
C3587 C3592 1.390 . S
C3588 C3582 1.465 . S
C3588 C3587 1.396 . S
C3588 C3589 1.399 . S
C3589 H3575 0.929 . S
C3589 C3588 1.399 . S
C3589 C3590 1.385 . S
C3590 H3576 0.931 . S
C3590 C3589 1.385 . S
C3590 C3591 1.389 . S
C3591 C3590 1.389 . S
C3591 C3592 1.387 . S
C3592 H3577 0.930 . S
C3592 C3587 1.390 . S
C3592 C3591 1.387 . S
H3593 C3605 0.930 . S
H3594 C3607 0.930 . S
H3595 C3608 0.930 . S
H3596 C3612 0.959 . S
H3597 C3612 0.959 . S
H3598 C3612 0.961 . S
H3599 C3613 0.960 . S
H3600 C3613 0.961 . S
H3601 C3613 0.959 . S
H3602 C3616 0.929 . S
H3603 C3617 0.931 . S
H3604 C3619 0.930 . S
C3605 H3593 0.930 . S
C3605 C3606 1.399 . S
C3605 C3610 1.399 . S
C3606 C3605 1.399 . S
C3606 C3607 1.376 . S
C3607 H3594 0.930 . S
C3607 C3606 1.376 . S
C3607 C3608 1.388 . S
C3608 H3595 0.930 . S
C3608 C3607 1.388 . S
C3608 C3609 1.390 . S
C3609 C3608 1.390 . S
C3609 C3610 1.394 . S
C3609 C3615 1.465 . S
C3610 C3605 1.399 . S
C3610 C3609 1.394 . S
C3610 C3611 1.516 . S
C3611 C3610 1.516 . S
C3611 C3612 1.502 . S
C3611 C3613 1.561 . S
C3611 C3614 1.526 . S
C3612 H3596 0.959 . S
C3612 H3597 0.959 . S
C3612 H3598 0.961 . S
C3612 C3611 1.502 . S
C3613 H3599 0.960 . S
C3613 H3600 0.961 . S
C3613 H3601 0.959 . S
C3613 C3611 1.561 . S
C3614 C3611 1.526 . S
C3614 C3615 1.396 . S
C3614 C3619 1.390 . S
C3615 C3609 1.465 . S
C3615 C3614 1.396 . S
C3615 C3616 1.399 . S
C3616 H3602 0.929 . S
C3616 C3615 1.399 . S
C3616 C3617 1.385 . S
C3617 H3603 0.931 . S
C3617 C3616 1.385 . S
C3617 C3618 1.389 . S
C3618 C3617 1.389 . S
C3618 C3619 1.387 . S
C3619 H3604 0.930 . S
C3619 C3614 1.390 . S
C3619 C3618 1.387 . S
H3620 C3632 0.930 . S
H3621 C3634 0.930 . S
H3622 C3635 0.930 . S
H3623 C3639 0.959 . S
H3624 C3639 0.959 . S
H3625 C3639 0.961 . S
H3626 C3640 0.960 . S
H3627 C3640 0.961 . S
H3628 C3640 0.959 . S
H3629 C3643 0.929 . S
H3630 C3644 0.931 . S
H3631 C3646 0.930 . S
C3632 H3620 0.930 . S
C3632 C3633 1.399 . S
C3632 C3637 1.399 . S
C3633 C3632 1.399 . S
C3633 C3634 1.376 . S
C3634 H3621 0.930 . S
C3634 C3633 1.376 . S
C3634 C3635 1.388 . S
C3635 H3622 0.930 . S
C3635 C3634 1.388 . S
C3635 C3636 1.390 . S
C3636 C3635 1.390 . S
C3636 C3637 1.394 . S
C3636 C3642 1.465 . S
C3637 C3632 1.399 . S
C3637 C3636 1.394 . S
C3637 C3638 1.516 . S
C3638 C3637 1.516 . S
C3638 C3639 1.502 . S
C3638 C3640 1.561 . S
C3638 C3641 1.526 . S
C3639 H3623 0.959 . S
C3639 H3624 0.959 . S
C3639 H3625 0.961 . S
C3639 C3638 1.502 . S
C3640 H3626 0.960 . S
C3640 H3627 0.961 . S
C3640 H3628 0.959 . S
C3640 C3638 1.561 . S
C3641 C3638 1.526 . S
C3641 C3642 1.396 . S
C3641 C3646 1.390 . S
C3642 C3636 1.465 . S
C3642 C3641 1.396 . S
C3642 C3643 1.399 . S
C3643 H3629 0.929 . S
C3643 C3642 1.399 . S
C3643 C3644 1.385 . S
C3644 H3630 0.931 . S
C3644 C3643 1.385 . S
C3644 C3645 1.389 . S
C3645 C3644 1.389 . S
C3645 C3646 1.387 . S
C3646 H3631 0.930 . S
C3646 C3641 1.390 . S
C3646 C3645 1.387 . S
H3647 C3659 0.930 . S
H3648 C3661 0.930 . S
H3649 C3662 0.930 . S
H3650 C3666 0.959 . S
H3651 C3666 0.959 . S
H3652 C3666 0.961 . S
H3653 C3667 0.960 . S
H3654 C3667 0.961 . S
H3655 C3667 0.959 . S
H3656 C3670 0.929 . S
H3657 C3671 0.931 . S
H3658 C3673 0.930 . S
C3659 H3647 0.930 . S
C3659 C3660 1.399 . S
C3659 C3664 1.399 . S
C3660 C3659 1.399 . S
C3660 C3661 1.376 . S
C3661 H3648 0.930 . S
C3661 C3660 1.376 . S
C3661 C3662 1.388 . S
C3662 H3649 0.930 . S
C3662 C3661 1.388 . S
C3662 C3663 1.390 . S
C3663 C3662 1.390 . S
C3663 C3664 1.394 . S
C3663 C3669 1.465 . S
C3664 C3659 1.399 . S
C3664 C3663 1.394 . S
C3664 C3665 1.516 . S
C3665 C3664 1.516 . S
C3665 C3666 1.502 . S
C3665 C3667 1.561 . S
C3665 C3668 1.526 . S
C3666 H3650 0.959 . S
C3666 H3651 0.959 . S
C3666 H3652 0.961 . S
C3666 C3665 1.502 . S
C3667 H3653 0.960 . S
C3667 H3654 0.961 . S
C3667 H3655 0.959 . S
C3667 C3665 1.561 . S
C3668 C3665 1.526 . S
C3668 C3669 1.396 . S
C3668 C3673 1.390 . S
C3669 C3663 1.465 . S
C3669 C3668 1.396 . S
C3669 C3670 1.399 . S
C3670 H3656 0.929 . S
C3670 C3669 1.399 . S
C3670 C3671 1.385 . S
C3671 H3657 0.931 . S
C3671 C3670 1.385 . S
C3671 C3672 1.389 . S
C3672 C3671 1.389 . S
C3672 C3673 1.387 . S
C3673 H3658 0.930 . S
C3673 C3668 1.390 . S
C3673 C3672 1.387 . S
H3674 C3686 0.930 . S
H3675 C3688 0.930 . S
H3676 C3689 0.930 . S
H3677 C3693 0.959 . S
H3678 C3693 0.959 . S
H3679 C3693 0.961 . S
H3680 C3694 0.960 . S
H3681 C3694 0.961 . S
H3682 C3694 0.959 . S
H3683 C3697 0.929 . S
H3684 C3698 0.931 . S
H3685 C3700 0.930 . S
C3686 H3674 0.930 . S
C3686 C3687 1.399 . S
C3686 C3691 1.399 . S
C3687 C3686 1.399 . S
C3687 C3688 1.376 . S
C3688 H3675 0.930 . S
C3688 C3687 1.376 . S
C3688 C3689 1.388 . S
C3689 H3676 0.930 . S
C3689 C3688 1.388 . S
C3689 C3690 1.390 . S
C3690 C3689 1.390 . S
C3690 C3691 1.394 . S
C3690 C3696 1.465 . S
C3691 C3686 1.399 . S
C3691 C3690 1.394 . S
C3691 C3692 1.516 . S
C3692 C3691 1.516 . S
C3692 C3693 1.502 . S
C3692 C3694 1.561 . S
C3692 C3695 1.526 . S
C3693 H3677 0.959 . S
C3693 H3678 0.959 . S
C3693 H3679 0.961 . S
C3693 C3692 1.502 . S
C3694 H3680 0.960 . S
C3694 H3681 0.961 . S
C3694 H3682 0.959 . S
C3694 C3692 1.561 . S
C3695 C3692 1.526 . S
C3695 C3696 1.396 . S
C3695 C3700 1.390 . S
C3696 C3690 1.465 . S
C3696 C3695 1.396 . S
C3696 C3697 1.399 . S
C3697 H3683 0.929 . S
C3697 C3696 1.399 . S
C3697 C3698 1.385 . S
C3698 H3684 0.931 . S
C3698 C3697 1.385 . S
C3698 C3699 1.389 . S
C3699 C3698 1.389 . S
C3699 C3700 1.387 . S
C3700 H3685 0.930 . S
C3700 C3695 1.390 . S
C3700 C3699 1.387 . S
H3701 C3713 0.930 . S
H3702 C3715 0.930 . S
H3703 C3716 0.930 . S
H3704 C3720 0.959 . S
H3705 C3720 0.959 . S
H3706 C3720 0.961 . S
H3707 C3721 0.960 . S
H3708 C3721 0.961 . S
H3709 C3721 0.959 . S
H3710 C3724 0.929 . S
H3711 C3725 0.931 . S
H3712 C3727 0.930 . S
C3713 H3701 0.930 . S
C3713 C3714 1.399 . S
C3713 C3718 1.399 . S
C3714 C3713 1.399 . S
C3714 C3715 1.376 . S
C3715 H3702 0.930 . S
C3715 C3714 1.376 . S
C3715 C3716 1.388 . S
C3716 H3703 0.930 . S
C3716 C3715 1.388 . S
C3716 C3717 1.390 . S
C3717 C3716 1.390 . S
C3717 C3718 1.394 . S
C3717 C3723 1.465 . S
C3718 C3713 1.399 . S
C3718 C3717 1.394 . S
C3718 C3719 1.516 . S
C3719 C3718 1.516 . S
C3719 C3720 1.502 . S
C3719 C3721 1.561 . S
C3719 C3722 1.526 . S
C3720 H3704 0.959 . S
C3720 H3705 0.959 . S
C3720 H3706 0.961 . S
C3720 C3719 1.502 . S
C3721 H3707 0.960 . S
C3721 H3708 0.961 . S
C3721 H3709 0.959 . S
C3721 C3719 1.561 . S
C3722 C3719 1.526 . S
C3722 C3723 1.396 . S
C3722 C3727 1.390 . S
C3723 C3717 1.465 . S
C3723 C3722 1.396 . S
C3723 C3724 1.399 . S
C3724 H3710 0.929 . S
C3724 C3723 1.399 . S
C3724 C3725 1.385 . S
C3725 H3711 0.931 . S
C3725 C3724 1.385 . S
C3725 C3726 1.389 . S
C3726 C3725 1.389 . S
C3726 C3727 1.387 . S
C3727 H3712 0.930 . S
C3727 C3722 1.390 . S
C3727 C3726 1.387 . S
H3728 C3740 0.930 . S
H3729 C3742 0.930 . S
H3730 C3743 0.930 . S
H3731 C3747 0.959 . S
H3732 C3747 0.959 . S
H3733 C3747 0.961 . S
H3734 C3748 0.960 . S
H3735 C3748 0.961 . S
H3736 C3748 0.959 . S
H3737 C3751 0.929 . S
H3738 C3752 0.931 . S
H3739 C3754 0.930 . S
C3740 H3728 0.930 . S
C3740 C3741 1.399 . S
C3740 C3745 1.399 . S
C3741 C3740 1.399 . S
C3741 C3742 1.376 . S
C3742 H3729 0.930 . S
C3742 C3741 1.376 . S
C3742 C3743 1.388 . S
C3743 H3730 0.930 . S
C3743 C3742 1.388 . S
C3743 C3744 1.390 . S
C3744 C3743 1.390 . S
C3744 C3745 1.394 . S
C3744 C3750 1.465 . S
C3745 C3740 1.399 . S
C3745 C3744 1.394 . S
C3745 C3746 1.516 . S
C3746 C3745 1.516 . S
C3746 C3747 1.502 . S
C3746 C3748 1.561 . S
C3746 C3749 1.526 . S
C3747 H3731 0.959 . S
C3747 H3732 0.959 . S
C3747 H3733 0.961 . S
C3747 C3746 1.502 . S
C3748 H3734 0.960 . S
C3748 H3735 0.961 . S
C3748 H3736 0.959 . S
C3748 C3746 1.561 . S
C3749 C3746 1.526 . S
C3749 C3750 1.396 . S
C3749 C3754 1.390 . S
C3750 C3744 1.465 . S
C3750 C3749 1.396 . S
C3750 C3751 1.399 . S
C3751 H3737 0.929 . S
C3751 C3750 1.399 . S
C3751 C3752 1.385 . S
C3752 H3738 0.931 . S
C3752 C3751 1.385 . S
C3752 C3753 1.389 . S
C3753 C3752 1.389 . S
C3753 C3754 1.387 . S
C3754 H3739 0.930 . S
C3754 C3749 1.390 . S
C3754 C3753 1.387 . S
H3755 C3767 0.930 . S
H3756 C3769 0.930 . S
H3757 C3770 0.930 . S
H3758 C3774 0.959 . S
H3759 C3774 0.959 . S
H3760 C3774 0.961 . S
H3761 C3775 0.960 . S
H3762 C3775 0.961 . S
H3763 C3775 0.959 . S
H3764 C3778 0.929 . S
H3765 C3779 0.931 . S
H3766 C3781 0.930 . S
C3767 H3755 0.930 . S
C3767 C3768 1.399 . S
C3767 C3772 1.399 . S
C3768 C3767 1.399 . S
C3768 C3769 1.376 . S
C3769 H3756 0.930 . S
C3769 C3768 1.376 . S
C3769 C3770 1.388 . S
C3770 H3757 0.930 . S
C3770 C3769 1.388 . S
C3770 C3771 1.390 . S
C3771 C3770 1.390 . S
C3771 C3772 1.394 . S
C3771 C3777 1.465 . S
C3772 C3767 1.399 . S
C3772 C3771 1.394 . S
C3772 C3773 1.516 . S
C3773 C3772 1.516 . S
C3773 C3774 1.502 . S
C3773 C3775 1.561 . S
C3773 C3776 1.526 . S
C3774 H3758 0.959 . S
C3774 H3759 0.959 . S
C3774 H3760 0.961 . S
C3774 C3773 1.502 . S
C3775 H3761 0.960 . S
C3775 H3762 0.961 . S
C3775 H3763 0.959 . S
C3775 C3773 1.561 . S
C3776 C3773 1.526 . S
C3776 C3777 1.396 . S
C3776 C3781 1.390 . S
C3777 C3771 1.465 . S
C3777 C3776 1.396 . S
C3777 C3778 1.399 . S
C3778 H3764 0.929 . S
C3778 C3777 1.399 . S
C3778 C3779 1.385 . S
C3779 H3765 0.931 . S
C3779 C3778 1.385 . S
C3779 C3780 1.389 . S
C3780 C3779 1.389 . S
C3780 C3781 1.387 . S
C3781 H3766 0.930 . S
C3781 C3776 1.390 . S
C3781 C3780 1.387 . S
H3782 C3794 0.930 . S
H3783 C3796 0.930 . S
H3784 C3797 0.930 . S
H3785 C3801 0.959 . S
H3786 C3801 0.959 . S
H3787 C3801 0.961 . S
H3788 C3802 0.960 . S
H3789 C3802 0.961 . S
H3790 C3802 0.959 . S
H3791 C3805 0.929 . S
H3792 C3806 0.931 . S
H3793 C3808 0.930 . S
C3794 H3782 0.930 . S
C3794 C3795 1.399 . S
C3794 C3799 1.399 . S
C3795 C3794 1.399 . S
C3795 C3796 1.376 . S
C3796 H3783 0.930 . S
C3796 C3795 1.376 . S
C3796 C3797 1.388 . S
C3797 H3784 0.930 . S
C3797 C3796 1.388 . S
C3797 C3798 1.390 . S
C3798 C3797 1.390 . S
C3798 C3799 1.394 . S
C3798 C3804 1.465 . S
C3799 C3794 1.399 . S
C3799 C3798 1.394 . S
C3799 C3800 1.516 . S
C3800 C3799 1.516 . S
C3800 C3801 1.502 . S
C3800 C3802 1.561 . S
C3800 C3803 1.526 . S
C3801 H3785 0.959 . S
C3801 H3786 0.959 . S
C3801 H3787 0.961 . S
C3801 C3800 1.502 . S
C3802 H3788 0.960 . S
C3802 H3789 0.961 . S
C3802 H3790 0.959 . S
C3802 C3800 1.561 . S
C3803 C3800 1.526 . S
C3803 C3804 1.396 . S
C3803 C3808 1.390 . S
C3804 C3798 1.465 . S
C3804 C3803 1.396 . S
C3804 C3805 1.399 . S
C3805 H3791 0.929 . S
C3805 C3804 1.399 . S
C3805 C3806 1.385 . S
C3806 H3792 0.931 . S
C3806 C3805 1.385 . S
C3806 C3807 1.389 . S
C3807 C3806 1.389 . S
C3807 C3808 1.387 . S
C3808 H3793 0.930 . S
C3808 C3803 1.390 . S
C3808 C3807 1.387 . S
H3809 C3821 0.930 . S
H3810 C3823 0.930 . S
H3811 C3824 0.930 . S
H3812 C3828 0.959 . S
H3813 C3828 0.959 . S
H3814 C3828 0.961 . S
H3815 C3829 0.960 . S
H3816 C3829 0.961 . S
H3817 C3829 0.959 . S
H3818 C3832 0.929 . S
H3819 C3833 0.931 . S
H3820 C3835 0.930 . S
C3821 H3809 0.930 . S
C3821 C3822 1.399 . S
C3821 C3826 1.399 . S
C3822 C3821 1.399 . S
C3822 C3823 1.376 . S
C3823 H3810 0.930 . S
C3823 C3822 1.376 . S
C3823 C3824 1.388 . S
C3824 H3811 0.930 . S
C3824 C3823 1.388 . S
C3824 C3825 1.390 . S
C3825 C3824 1.390 . S
C3825 C3826 1.394 . S
C3825 C3831 1.465 . S
C3826 C3821 1.399 . S
C3826 C3825 1.394 . S
C3826 C3827 1.516 . S
C3827 C3826 1.516 . S
C3827 C3828 1.502 . S
C3827 C3829 1.561 . S
C3827 C3830 1.526 . S
C3828 H3812 0.959 . S
C3828 H3813 0.959 . S
C3828 H3814 0.961 . S
C3828 C3827 1.502 . S
C3829 H3815 0.960 . S
C3829 H3816 0.961 . S
C3829 H3817 0.959 . S
C3829 C3827 1.561 . S
C3830 C3827 1.526 . S
C3830 C3831 1.396 . S
C3830 C3835 1.390 . S
C3831 C3825 1.465 . S
C3831 C3830 1.396 . S
C3831 C3832 1.399 . S
C3832 H3818 0.929 . S
C3832 C3831 1.399 . S
C3832 C3833 1.385 . S
C3833 H3819 0.931 . S
C3833 C3832 1.385 . S
C3833 C3834 1.389 . S
C3834 C3833 1.389 . S
C3834 C3835 1.387 . S
C3835 H3820 0.930 . S
C3835 C3830 1.390 . S
C3835 C3834 1.387 . S
H3836 C3848 0.930 . S
H3837 C3850 0.930 . S
H3838 C3851 0.930 . S
H3839 C3855 0.959 . S
H3840 C3855 0.959 . S
H3841 C3855 0.961 . S
H3842 C3856 0.960 . S
H3843 C3856 0.961 . S
H3844 C3856 0.959 . S
H3845 C3859 0.929 . S
H3846 C3860 0.931 . S
H3847 C3862 0.930 . S
C3848 H3836 0.930 . S
C3848 C3849 1.399 . S
C3848 C3853 1.399 . S
C3849 C3848 1.399 . S
C3849 C3850 1.376 . S
C3850 H3837 0.930 . S
C3850 C3849 1.376 . S
C3850 C3851 1.388 . S
C3851 H3838 0.930 . S
C3851 C3850 1.388 . S
C3851 C3852 1.390 . S
C3852 C3851 1.390 . S
C3852 C3853 1.394 . S
C3852 C3858 1.465 . S
C3853 C3848 1.399 . S
C3853 C3852 1.394 . S
C3853 C3854 1.516 . S
C3854 C3853 1.516 . S
C3854 C3855 1.502 . S
C3854 C3856 1.561 . S
C3854 C3857 1.526 . S
C3855 H3839 0.959 . S
C3855 H3840 0.959 . S
C3855 H3841 0.961 . S
C3855 C3854 1.502 . S
C3856 H3842 0.960 . S
C3856 H3843 0.961 . S
C3856 H3844 0.959 . S
C3856 C3854 1.561 . S
C3857 C3854 1.526 . S
C3857 C3858 1.396 . S
C3857 C3862 1.390 . S
C3858 C3852 1.465 . S
C3858 C3857 1.396 . S
C3858 C3859 1.399 . S
C3859 H3845 0.929 . S
C3859 C3858 1.399 . S
C3859 C3860 1.385 . S
C3860 H3846 0.931 . S
C3860 C3859 1.385 . S
C3860 C3861 1.389 . S
C3861 C3860 1.389 . S
C3861 C3862 1.387 . S
C3862 H3847 0.930 . S
C3862 C3857 1.390 . S
C3862 C3861 1.387 . S
H3863 C3875 0.930 . S
H3864 C3877 0.930 . S
H3865 C3878 0.930 . S
H3866 C3882 0.959 . S
H3867 C3882 0.959 . S
H3868 C3882 0.961 . S
H3869 C3883 0.960 . S
H3870 C3883 0.961 . S
H3871 C3883 0.959 . S
H3872 C3886 0.929 . S
H3873 C3887 0.931 . S
H3874 C3889 0.930 . S
C3875 H3863 0.930 . S
C3875 C3876 1.399 . S
C3875 C3880 1.399 . S
C3876 C3875 1.399 . S
C3876 C3877 1.376 . S
C3877 H3864 0.930 . S
C3877 C3876 1.376 . S
C3877 C3878 1.388 . S
C3878 H3865 0.930 . S
C3878 C3877 1.388 . S
C3878 C3879 1.390 . S
C3879 C3878 1.390 . S
C3879 C3880 1.394 . S
C3879 C3885 1.465 . S
C3880 C3875 1.399 . S
C3880 C3879 1.394 . S
C3880 C3881 1.516 . S
C3881 C3880 1.516 . S
C3881 C3882 1.502 . S
C3881 C3883 1.561 . S
C3881 C3884 1.526 . S
C3882 H3866 0.959 . S
C3882 H3867 0.959 . S
C3882 H3868 0.961 . S
C3882 C3881 1.502 . S
C3883 H3869 0.960 . S
C3883 H3870 0.961 . S
C3883 H3871 0.959 . S
C3883 C3881 1.561 . S
C3884 C3881 1.526 . S
C3884 C3885 1.396 . S
C3884 C3889 1.390 . S
C3885 C3879 1.465 . S
C3885 C3884 1.396 . S
C3885 C3886 1.399 . S
C3886 H3872 0.929 . S
C3886 C3885 1.399 . S
C3886 C3887 1.385 . S
C3887 H3873 0.931 . S
C3887 C3886 1.385 . S
C3887 C3888 1.389 . S
C3888 C3887 1.389 . S
C3888 C3889 1.387 . S
C3889 H3874 0.930 . S
C3889 C3884 1.390 . S
C3889 C3888 1.387 . S
H3890 C3902 0.930 . S
H3891 C3904 0.930 . S
H3892 C3905 0.930 . S
H3893 C3909 0.959 . S
H3894 C3909 0.959 . S
H3895 C3909 0.961 . S
H3896 C3910 0.960 . S
H3897 C3910 0.961 . S
H3898 C3910 0.959 . S
H3899 C3913 0.929 . S
H3900 C3914 0.931 . S
H3901 C3916 0.930 . S
C3902 H3890 0.930 . S
C3902 C3903 1.399 . S
C3902 C3907 1.399 . S
C3903 C3902 1.399 . S
C3903 C3904 1.376 . S
C3904 H3891 0.930 . S
C3904 C3903 1.376 . S
C3904 C3905 1.388 . S
C3905 H3892 0.930 . S
C3905 C3904 1.388 . S
C3905 C3906 1.390 . S
C3906 C3905 1.390 . S
C3906 C3907 1.394 . S
C3906 C3912 1.465 . S
C3907 C3902 1.399 . S
C3907 C3906 1.394 . S
C3907 C3908 1.516 . S
C3908 C3907 1.516 . S
C3908 C3909 1.502 . S
C3908 C3910 1.561 . S
C3908 C3911 1.526 . S
C3909 H3893 0.959 . S
C3909 H3894 0.959 . S
C3909 H3895 0.961 . S
C3909 C3908 1.502 . S
C3910 H3896 0.960 . S
C3910 H3897 0.961 . S
C3910 H3898 0.959 . S
C3910 C3908 1.561 . S
C3911 C3908 1.526 . S
C3911 C3912 1.396 . S
C3911 C3916 1.390 . S
C3912 C3906 1.465 . S
C3912 C3911 1.396 . S
C3912 C3913 1.399 . S
C3913 H3899 0.929 . S
C3913 C3912 1.399 . S
C3913 C3914 1.385 . S
C3914 H3900 0.931 . S
C3914 C3913 1.385 . S
C3914 C3915 1.389 . S
C3915 C3914 1.389 . S
C3915 C3916 1.387 . S
C3916 H3901 0.930 . S
C3916 C3911 1.390 . S
C3916 C3915 1.387 . S
H3917 C3929 0.930 . S
H3918 C3931 0.930 . S
H3919 C3932 0.930 . S
H3920 C3936 0.959 . S
H3921 C3936 0.959 . S
H3922 C3936 0.961 . S
H3923 C3937 0.960 . S
H3924 C3937 0.961 . S
H3925 C3937 0.959 . S
H3926 C3940 0.929 . S
H3927 C3941 0.931 . S
H3928 C3943 0.930 . S
C3929 H3917 0.930 . S
C3929 C3930 1.399 . S
C3929 C3934 1.399 . S
C3930 C3929 1.399 . S
C3930 C3931 1.376 . S
C3931 H3918 0.930 . S
C3931 C3930 1.376 . S
C3931 C3932 1.388 . S
C3932 H3919 0.930 . S
C3932 C3931 1.388 . S
C3932 C3933 1.390 . S
C3933 C3932 1.390 . S
C3933 C3934 1.394 . S
C3933 C3939 1.465 . S
C3934 C3929 1.399 . S
C3934 C3933 1.394 . S
C3934 C3935 1.516 . S
C3935 C3934 1.516 . S
C3935 C3936 1.502 . S
C3935 C3937 1.561 . S
C3935 C3938 1.526 . S
C3936 H3920 0.959 . S
C3936 H3921 0.959 . S
C3936 H3922 0.961 . S
C3936 C3935 1.502 . S
C3937 H3923 0.960 . S
C3937 H3924 0.961 . S
C3937 H3925 0.959 . S
C3937 C3935 1.561 . S
C3938 C3935 1.526 . S
C3938 C3939 1.396 . S
C3938 C3943 1.390 . S
C3939 C3933 1.465 . S
C3939 C3938 1.396 . S
C3939 C3940 1.399 . S
C3940 H3926 0.929 . S
C3940 C3939 1.399 . S
C3940 C3941 1.385 . S
C3941 H3927 0.931 . S
C3941 C3940 1.385 . S
C3941 C3942 1.389 . S
C3942 C3941 1.389 . S
C3942 C3943 1.387 . S
C3943 H3928 0.930 . S
C3943 C3938 1.390 . S
C3943 C3942 1.387 . S
H3944 C3956 0.930 . S
H3945 C3958 0.930 . S
H3946 C3959 0.930 . S
H3947 C3963 0.959 . S
H3948 C3963 0.959 . S
H3949 C3963 0.961 . S
H3950 C3964 0.960 . S
H3951 C3964 0.961 . S
H3952 C3964 0.959 . S
H3953 C3967 0.929 . S
H3954 C3968 0.931 . S
H3955 C3970 0.930 . S
C3956 H3944 0.930 . S
C3956 C3957 1.399 . S
C3956 C3961 1.399 . S
C3957 C3956 1.399 . S
C3957 C3958 1.376 . S
C3958 H3945 0.930 . S
C3958 C3957 1.376 . S
C3958 C3959 1.388 . S
C3959 H3946 0.930 . S
C3959 C3958 1.388 . S
C3959 C3960 1.390 . S
C3960 C3959 1.390 . S
C3960 C3961 1.394 . S
C3960 C3966 1.465 . S
C3961 C3956 1.399 . S
C3961 C3960 1.394 . S
C3961 C3962 1.516 . S
C3962 C3961 1.516 . S
C3962 C3963 1.502 . S
C3962 C3964 1.561 . S
C3962 C3965 1.526 . S
C3963 H3947 0.959 . S
C3963 H3948 0.959 . S
C3963 H3949 0.961 . S
C3963 C3962 1.502 . S
C3964 H3950 0.960 . S
C3964 H3951 0.961 . S
C3964 H3952 0.959 . S
C3964 C3962 1.561 . S
C3965 C3962 1.526 . S
C3965 C3966 1.396 . S
C3965 C3970 1.390 . S
C3966 C3960 1.465 . S
C3966 C3965 1.396 . S
C3966 C3967 1.399 . S
C3967 H3953 0.929 . S
C3967 C3966 1.399 . S
C3967 C3968 1.385 . S
C3968 H3954 0.931 . S
C3968 C3967 1.385 . S
C3968 C3969 1.389 . S
C3969 C3968 1.389 . S
C3969 C3970 1.387 . S
C3970 H3955 0.930 . S
C3970 C3965 1.390 . S
C3970 C3969 1.387 . S
H3971 C3983 0.930 . S
H3972 C3985 0.930 . S
H3973 C3986 0.930 . S
H3974 C3990 0.959 . S
H3975 C3990 0.959 . S
H3976 C3990 0.961 . S
H3977 C3991 0.960 . S
H3978 C3991 0.961 . S
H3979 C3991 0.959 . S
H3980 C3994 0.929 . S
H3981 C3995 0.931 . S
H3982 C3997 0.930 . S
C3983 H3971 0.930 . S
C3983 C3984 1.399 . S
C3983 C3988 1.399 . S
C3984 C3983 1.399 . S
C3984 C3985 1.376 . S
C3985 H3972 0.930 . S
C3985 C3984 1.376 . S
C3985 C3986 1.388 . S
C3986 H3973 0.930 . S
C3986 C3985 1.388 . S
C3986 C3987 1.390 . S
C3987 C3986 1.390 . S
C3987 C3988 1.394 . S
C3987 C3993 1.465 . S
C3988 C3983 1.399 . S
C3988 C3987 1.394 . S
C3988 C3989 1.516 . S
C3989 C3988 1.516 . S
C3989 C3990 1.502 . S
C3989 C3991 1.561 . S
C3989 C3992 1.526 . S
C3990 H3974 0.959 . S
C3990 H3975 0.959 . S
C3990 H3976 0.961 . S
C3990 C3989 1.502 . S
C3991 H3977 0.960 . S
C3991 H3978 0.961 . S
C3991 H3979 0.959 . S
C3991 C3989 1.561 . S
C3992 C3989 1.526 . S
C3992 C3993 1.396 . S
C3992 C3997 1.390 . S
C3993 C3987 1.465 . S
C3993 C3992 1.396 . S
C3993 C3994 1.399 . S
C3994 H3980 0.929 . S
C3994 C3993 1.399 . S
C3994 C3995 1.385 . S
C3995 H3981 0.931 . S
C3995 C3994 1.385 . S
C3995 C3996 1.389 . S
C3996 C3995 1.389 . S
C3996 C3997 1.387 . S
C3997 H3982 0.930 . S
C3997 C3992 1.390 . S
C3997 C3996 1.387 . S
H3998 C4010 0.930 . S
H3999 C4012 0.930 . S
H4000 C4013 0.930 . S
H4001 C4017 0.959 . S
H4002 C4017 0.959 . S
H4003 C4017 0.961 . S
H4004 C4018 0.960 . S
H4005 C4018 0.961 . S
H4006 C4018 0.959 . S
H4007 C4021 0.929 . S
H4008 C4022 0.931 . S
H4009 C4024 0.930 . S
C4010 H3998 0.930 . S
C4010 C4011 1.399 . S
C4010 C4015 1.399 . S
C4011 C4010 1.399 . S
C4011 C4012 1.376 . S
C4012 H3999 0.930 . S
C4012 C4011 1.376 . S
C4012 C4013 1.388 . S
C4013 H4000 0.930 . S
C4013 C4012 1.388 . S
C4013 C4014 1.390 . S
C4014 C4013 1.390 . S
C4014 C4015 1.394 . S
C4014 C4020 1.465 . S
C4015 C4010 1.399 . S
C4015 C4014 1.394 . S
C4015 C4016 1.516 . S
C4016 C4015 1.516 . S
C4016 C4017 1.502 . S
C4016 C4018 1.561 . S
C4016 C4019 1.526 . S
C4017 H4001 0.959 . S
C4017 H4002 0.959 . S
C4017 H4003 0.961 . S
C4017 C4016 1.502 . S
C4018 H4004 0.960 . S
C4018 H4005 0.961 . S
C4018 H4006 0.959 . S
C4018 C4016 1.561 . S
C4019 C4016 1.526 . S
C4019 C4020 1.396 . S
C4019 C4024 1.390 . S
C4020 C4014 1.465 . S
C4020 C4019 1.396 . S
C4020 C4021 1.399 . S
C4021 H4007 0.929 . S
C4021 C4020 1.399 . S
C4021 C4022 1.385 . S
C4022 H4008 0.931 . S
C4022 C4021 1.385 . S
C4022 C4023 1.389 . S
C4023 C4022 1.389 . S
C4023 C4024 1.387 . S
C4024 H4009 0.930 . S
C4024 C4019 1.390 . S
C4024 C4023 1.387 . S
H4025 C4037 0.930 . S
H4026 C4039 0.930 . S
H4027 C4040 0.930 . S
H4028 C4044 0.959 . S
H4029 C4044 0.959 . S
H4030 C4044 0.961 . S
H4031 C4045 0.960 . S
H4032 C4045 0.961 . S
H4033 C4045 0.959 . S
H4034 C4048 0.929 . S
H4035 C4049 0.931 . S
H4036 C4051 0.930 . S
C4037 H4025 0.930 . S
C4037 C4038 1.399 . S
C4037 C4042 1.399 . S
C4038 C4037 1.399 . S
C4038 C4039 1.376 . S
C4039 H4026 0.930 . S
C4039 C4038 1.376 . S
C4039 C4040 1.388 . S
C4040 H4027 0.930 . S
C4040 C4039 1.388 . S
C4040 C4041 1.390 . S
C4041 C4040 1.390 . S
C4041 C4042 1.394 . S
C4041 C4047 1.465 . S
C4042 C4037 1.399 . S
C4042 C4041 1.394 . S
C4042 C4043 1.516 . S
C4043 C4042 1.516 . S
C4043 C4044 1.502 . S
C4043 C4045 1.561 . S
C4043 C4046 1.526 . S
C4044 H4028 0.959 . S
C4044 H4029 0.959 . S
C4044 H4030 0.961 . S
C4044 C4043 1.502 . S
C4045 H4031 0.960 . S
C4045 H4032 0.961 . S
C4045 H4033 0.959 . S
C4045 C4043 1.561 . S
C4046 C4043 1.526 . S
C4046 C4047 1.396 . S
C4046 C4051 1.390 . S
C4047 C4041 1.465 . S
C4047 C4046 1.396 . S
C4047 C4048 1.399 . S
C4048 H4034 0.929 . S
C4048 C4047 1.399 . S
C4048 C4049 1.385 . S
C4049 H4035 0.931 . S
C4049 C4048 1.385 . S
C4049 C4050 1.389 . S
C4050 C4049 1.389 . S
C4050 C4051 1.387 . S
C4051 H4036 0.930 . S
C4051 C4046 1.390 . S
C4051 C4050 1.387 . S
H4052 C4064 0.930 . S
H4053 C4066 0.930 . S
H4054 C4067 0.930 . S
H4055 C4071 0.959 . S
H4056 C4071 0.959 . S
H4057 C4071 0.961 . S
H4058 C4072 0.960 . S
H4059 C4072 0.961 . S
H4060 C4072 0.959 . S
H4061 C4075 0.929 . S
H4062 C4076 0.931 . S
H4063 C4078 0.930 . S
C4064 H4052 0.930 . S
C4064 C4065 1.399 . S
C4064 C4069 1.399 . S
C4065 C4064 1.399 . S
C4065 C4066 1.376 . S
C4066 H4053 0.930 . S
C4066 C4065 1.376 . S
C4066 C4067 1.388 . S
C4067 H4054 0.930 . S
C4067 C4066 1.388 . S
C4067 C4068 1.390 . S
C4068 C4067 1.390 . S
C4068 C4069 1.394 . S
C4068 C4074 1.465 . S
C4069 C4064 1.399 . S
C4069 C4068 1.394 . S
C4069 C4070 1.516 . S
C4070 C4069 1.516 . S
C4070 C4071 1.502 . S
C4070 C4072 1.561 . S
C4070 C4073 1.526 . S
C4071 H4055 0.959 . S
C4071 H4056 0.959 . S
C4071 H4057 0.961 . S
C4071 C4070 1.502 . S
C4072 H4058 0.960 . S
C4072 H4059 0.961 . S
C4072 H4060 0.959 . S
C4072 C4070 1.561 . S
C4073 C4070 1.526 . S
C4073 C4074 1.396 . S
C4073 C4078 1.390 . S
C4074 C4068 1.465 . S
C4074 C4073 1.396 . S
C4074 C4075 1.399 . S
C4075 H4061 0.929 . S
C4075 C4074 1.399 . S
C4075 C4076 1.385 . S
C4076 H4062 0.931 . S
C4076 C4075 1.385 . S
C4076 C4077 1.389 . S
C4077 C4076 1.389 . S
C4077 C4078 1.387 . S
C4078 H4063 0.930 . S
C4078 C4073 1.390 . S
C4078 C4077 1.387 . S
H4079 C4091 0.930 . S
H4080 C4093 0.930 . S
H4081 C4094 0.930 . S
H4082 C4098 0.959 . S
H4083 C4098 0.959 . S
H4084 C4098 0.961 . S
H4085 C4099 0.960 . S
H4086 C4099 0.961 . S
H4087 C4099 0.959 . S
H4088 C4102 0.929 . S
H4089 C4103 0.931 . S
H4090 C4105 0.930 . S
C4091 H4079 0.930 . S
C4091 C4092 1.399 . S
C4091 C4096 1.399 . S
C4092 C4091 1.399 . S
C4092 C4093 1.376 . S
C4093 H4080 0.930 . S
C4093 C4092 1.376 . S
C4093 C4094 1.388 . S
C4094 H4081 0.930 . S
C4094 C4093 1.388 . S
C4094 C4095 1.390 . S
C4095 C4094 1.390 . S
C4095 C4096 1.394 . S
C4095 C4101 1.465 . S
C4096 C4091 1.399 . S
C4096 C4095 1.394 . S
C4096 C4097 1.516 . S
C4097 C4096 1.516 . S
C4097 C4098 1.502 . S
C4097 C4099 1.561 . S
C4097 C4100 1.526 . S
C4098 H4082 0.959 . S
C4098 H4083 0.959 . S
C4098 H4084 0.961 . S
C4098 C4097 1.502 . S
C4099 H4085 0.960 . S
C4099 H4086 0.961 . S
C4099 H4087 0.959 . S
C4099 C4097 1.561 . S
C4100 C4097 1.526 . S
C4100 C4101 1.396 . S
C4100 C4105 1.390 . S
C4101 C4095 1.465 . S
C4101 C4100 1.396 . S
C4101 C4102 1.399 . S
C4102 H4088 0.929 . S
C4102 C4101 1.399 . S
C4102 C4103 1.385 . S
C4103 H4089 0.931 . S
C4103 C4102 1.385 . S
C4103 C4104 1.389 . S
C4104 C4103 1.389 . S
C4104 C4105 1.387 . S
C4105 H4090 0.930 . S
C4105 C4100 1.390 . S
C4105 C4104 1.387 . S
H4106 C4118 0.930 . S
H4107 C4120 0.930 . S
H4108 C4121 0.930 . S
H4109 C4125 0.959 . S
H4110 C4125 0.959 . S
H4111 C4125 0.961 . S
H4112 C4126 0.960 . S
H4113 C4126 0.961 . S
H4114 C4126 0.959 . S
H4115 C4129 0.929 . S
H4116 C4130 0.931 . S
H4117 C4132 0.930 . S
C4118 H4106 0.930 . S
C4118 C4119 1.399 . S
C4118 C4123 1.399 . S
C4119 C4118 1.399 . S
C4119 C4120 1.376 . S
C4120 H4107 0.930 . S
C4120 C4119 1.376 . S
C4120 C4121 1.388 . S
C4121 H4108 0.930 . S
C4121 C4120 1.388 . S
C4121 C4122 1.390 . S
C4122 C4121 1.390 . S
C4122 C4123 1.394 . S
C4122 C4128 1.465 . S
C4123 C4118 1.399 . S
C4123 C4122 1.394 . S
C4123 C4124 1.516 . S
C4124 C4123 1.516 . S
C4124 C4125 1.502 . S
C4124 C4126 1.561 . S
C4124 C4127 1.526 . S
C4125 H4109 0.959 . S
C4125 H4110 0.959 . S
C4125 H4111 0.961 . S
C4125 C4124 1.502 . S
C4126 H4112 0.960 . S
C4126 H4113 0.961 . S
C4126 H4114 0.959 . S
C4126 C4124 1.561 . S
C4127 C4124 1.526 . S
C4127 C4128 1.396 . S
C4127 C4132 1.390 . S
C4128 C4122 1.465 . S
C4128 C4127 1.396 . S
C4128 C4129 1.399 . S
C4129 H4115 0.929 . S
C4129 C4128 1.399 . S
C4129 C4130 1.385 . S
C4130 H4116 0.931 . S
C4130 C4129 1.385 . S
C4130 C4131 1.389 . S
C4131 C4130 1.389 . S
C4131 C4132 1.387 . S
C4132 H4117 0.930 . S
C4132 C4127 1.390 . S
C4132 C4131 1.387 . S
H4133 C4145 0.930 . S
H4134 C4147 0.930 . S
H4135 C4148 0.930 . S
H4136 C4152 0.959 . S
H4137 C4152 0.959 . S
H4138 C4152 0.961 . S
H4139 C4153 0.960 . S
H4140 C4153 0.961 . S
H4141 C4153 0.959 . S
H4142 C4156 0.929 . S
H4143 C4157 0.931 . S
H4144 C4159 0.930 . S
C4145 H4133 0.930 . S
C4145 C4146 1.399 . S
C4145 C4150 1.399 . S
C4146 C4145 1.399 . S
C4146 C4147 1.376 . S
C4147 H4134 0.930 . S
C4147 C4146 1.376 . S
C4147 C4148 1.388 . S
C4148 H4135 0.930 . S
C4148 C4147 1.388 . S
C4148 C4149 1.390 . S
C4149 C4148 1.390 . S
C4149 C4150 1.394 . S
C4149 C4155 1.465 . S
C4150 C4145 1.399 . S
C4150 C4149 1.394 . S
C4150 C4151 1.516 . S
C4151 C4150 1.516 . S
C4151 C4152 1.502 . S
C4151 C4153 1.561 . S
C4151 C4154 1.526 . S
C4152 H4136 0.959 . S
C4152 H4137 0.959 . S
C4152 H4138 0.961 . S
C4152 C4151 1.502 . S
C4153 H4139 0.960 . S
C4153 H4140 0.961 . S
C4153 H4141 0.959 . S
C4153 C4151 1.561 . S
C4154 C4151 1.526 . S
C4154 C4155 1.396 . S
C4154 C4159 1.390 . S
C4155 C4149 1.465 . S
C4155 C4154 1.396 . S
C4155 C4156 1.399 . S
C4156 H4142 0.929 . S
C4156 C4155 1.399 . S
C4156 C4157 1.385 . S
C4157 H4143 0.931 . S
C4157 C4156 1.385 . S
C4157 C4158 1.389 . S
C4158 C4157 1.389 . S
C4158 C4159 1.387 . S
C4159 H4144 0.930 . S
C4159 C4154 1.390 . S
C4159 C4158 1.387 . S
H4160 C4172 0.930 . S
H4161 C4174 0.930 . S
H4162 C4175 0.930 . S
H4163 C4179 0.959 . S
H4164 C4179 0.959 . S
H4165 C4179 0.961 . S
H4166 C4180 0.960 . S
H4167 C4180 0.961 . S
H4168 C4180 0.959 . S
H4169 C4183 0.929 . S
H4170 C4184 0.931 . S
H4171 C4186 0.930 . S
C4172 H4160 0.930 . S
C4172 C4173 1.399 . S
C4172 C4177 1.399 . S
C4173 C4172 1.399 . S
C4173 C4174 1.376 . S
C4174 H4161 0.930 . S
C4174 C4173 1.376 . S
C4174 C4175 1.388 . S
C4175 H4162 0.930 . S
C4175 C4174 1.388 . S
C4175 C4176 1.390 . S
C4176 C4175 1.390 . S
C4176 C4177 1.394 . S
C4176 C4182 1.465 . S
C4177 C4172 1.399 . S
C4177 C4176 1.394 . S
C4177 C4178 1.516 . S
C4178 C4177 1.516 . S
C4178 C4179 1.502 . S
C4178 C4180 1.561 . S
C4178 C4181 1.526 . S
C4179 H4163 0.959 . S
C4179 H4164 0.959 . S
C4179 H4165 0.961 . S
C4179 C4178 1.502 . S
C4180 H4166 0.960 . S
C4180 H4167 0.961 . S
C4180 H4168 0.959 . S
C4180 C4178 1.561 . S
C4181 C4178 1.526 . S
C4181 C4182 1.396 . S
C4181 C4186 1.390 . S
C4182 C4176 1.465 . S
C4182 C4181 1.396 . S
C4182 C4183 1.399 . S
C4183 H4169 0.929 . S
C4183 C4182 1.399 . S
C4183 C4184 1.385 . S
C4184 H4170 0.931 . S
C4184 C4183 1.385 . S
C4184 C4185 1.389 . S
C4185 C4184 1.389 . S
C4185 C4186 1.387 . S
C4186 H4171 0.930 . S
C4186 C4181 1.390 . S
C4186 C4185 1.387 . S
H4187 C4199 0.930 . S
H4188 C4201 0.930 . S
H4189 C4202 0.930 . S
H4190 C4206 0.959 . S
H4191 C4206 0.959 . S
H4192 C4206 0.961 . S
H4193 C4207 0.960 . S
H4194 C4207 0.961 . S
H4195 C4207 0.959 . S
H4196 C4210 0.929 . S
H4197 C4211 0.931 . S
H4198 C4213 0.930 . S
C4199 H4187 0.930 . S
C4199 C4200 1.399 . S
C4199 C4204 1.399 . S
C4200 C4199 1.399 . S
C4200 C4201 1.376 . S
C4201 H4188 0.930 . S
C4201 C4200 1.376 . S
C4201 C4202 1.388 . S
C4202 H4189 0.930 . S
C4202 C4201 1.388 . S
C4202 C4203 1.390 . S
C4203 C4202 1.390 . S
C4203 C4204 1.394 . S
C4203 C4209 1.465 . S
C4204 C4199 1.399 . S
C4204 C4203 1.394 . S
C4204 C4205 1.516 . S
C4205 C4204 1.516 . S
C4205 C4206 1.502 . S
C4205 C4207 1.561 . S
C4205 C4208 1.526 . S
C4206 H4190 0.959 . S
C4206 H4191 0.959 . S
C4206 H4192 0.961 . S
C4206 C4205 1.502 . S
C4207 H4193 0.960 . S
C4207 H4194 0.961 . S
C4207 H4195 0.959 . S
C4207 C4205 1.561 . S
C4208 C4205 1.526 . S
C4208 C4209 1.396 . S
C4208 C4213 1.390 . S
C4209 C4203 1.465 . S
C4209 C4208 1.396 . S
C4209 C4210 1.399 . S
C4210 H4196 0.929 . S
C4210 C4209 1.399 . S
C4210 C4211 1.385 . S
C4211 H4197 0.931 . S
C4211 C4210 1.385 . S
C4211 C4212 1.389 . S
C4212 C4211 1.389 . S
C4212 C4213 1.387 . S
C4213 H4198 0.930 . S
C4213 C4208 1.390 . S
C4213 C4212 1.387 . S
H4214 C4226 0.930 . S
H4215 C4228 0.930 . S
H4216 C4229 0.930 . S
H4217 C4233 0.959 . S
H4218 C4233 0.959 . S
H4219 C4233 0.961 . S
H4220 C4234 0.960 . S
H4221 C4234 0.961 . S
H4222 C4234 0.959 . S
H4223 C4237 0.929 . S
H4224 C4238 0.931 . S
H4225 C4240 0.930 . S
C4226 H4214 0.930 . S
C4226 C4227 1.399 . S
C4226 C4231 1.399 . S
C4227 C4226 1.399 . S
C4227 C4228 1.376 . S
C4228 H4215 0.930 . S
C4228 C4227 1.376 . S
C4228 C4229 1.388 . S
C4229 H4216 0.930 . S
C4229 C4228 1.388 . S
C4229 C4230 1.390 . S
C4230 C4229 1.390 . S
C4230 C4231 1.394 . S
C4230 C4236 1.465 . S
C4231 C4226 1.399 . S
C4231 C4230 1.394 . S
C4231 C4232 1.516 . S
C4232 C4231 1.516 . S
C4232 C4233 1.502 . S
C4232 C4234 1.561 . S
C4232 C4235 1.526 . S
C4233 H4217 0.959 . S
C4233 H4218 0.959 . S
C4233 H4219 0.961 . S
C4233 C4232 1.502 . S
C4234 H4220 0.960 . S
C4234 H4221 0.961 . S
C4234 H4222 0.959 . S
C4234 C4232 1.561 . S
C4235 C4232 1.526 . S
C4235 C4236 1.396 . S
C4235 C4240 1.390 . S
C4236 C4230 1.465 . S
C4236 C4235 1.396 . S
C4236 C4237 1.399 . S
C4237 H4223 0.929 . S
C4237 C4236 1.399 . S
C4237 C4238 1.385 . S
C4238 H4224 0.931 . S
C4238 C4237 1.385 . S
C4238 C4239 1.389 . S
C4239 C4238 1.389 . S
C4239 C4240 1.387 . S
C4240 H4225 0.930 . S
C4240 C4235 1.390 . S
C4240 C4239 1.387 . S
H4241 C4253 0.930 . S
H4242 C4255 0.930 . S
H4243 C4256 0.930 . S
H4244 C4260 0.959 . S
H4245 C4260 0.959 . S
H4246 C4260 0.961 . S
H4247 C4261 0.960 . S
H4248 C4261 0.961 . S
H4249 C4261 0.959 . S
H4250 C4264 0.929 . S
H4251 C4265 0.931 . S
H4252 C4267 0.930 . S
C4253 H4241 0.930 . S
C4253 C4254 1.399 . S
C4253 C4258 1.399 . S
C4254 C4253 1.399 . S
C4254 C4255 1.376 . S
C4255 H4242 0.930 . S
C4255 C4254 1.376 . S
C4255 C4256 1.388 . S
C4256 H4243 0.930 . S
C4256 C4255 1.388 . S
C4256 C4257 1.390 . S
C4257 C4256 1.390 . S
C4257 C4258 1.394 . S
C4257 C4263 1.465 . S
C4258 C4253 1.399 . S
C4258 C4257 1.394 . S
C4258 C4259 1.516 . S
C4259 C4258 1.516 . S
C4259 C4260 1.502 . S
C4259 C4261 1.561 . S
C4259 C4262 1.526 . S
C4260 H4244 0.959 . S
C4260 H4245 0.959 . S
C4260 H4246 0.961 . S
C4260 C4259 1.502 . S
C4261 H4247 0.960 . S
C4261 H4248 0.961 . S
C4261 H4249 0.959 . S
C4261 C4259 1.561 . S
C4262 C4259 1.526 . S
C4262 C4263 1.396 . S
C4262 C4267 1.390 . S
C4263 C4257 1.465 . S
C4263 C4262 1.396 . S
C4263 C4264 1.399 . S
C4264 H4250 0.929 . S
C4264 C4263 1.399 . S
C4264 C4265 1.385 . S
C4265 H4251 0.931 . S
C4265 C4264 1.385 . S
C4265 C4266 1.389 . S
C4266 C4265 1.389 . S
C4266 C4267 1.387 . S
C4267 H4252 0.930 . S
C4267 C4262 1.390 . S
C4267 C4266 1.387 . S
H4268 C4280 0.930 . S
H4269 C4282 0.930 . S
H4270 C4283 0.930 . S
H4271 C4287 0.959 . S
H4272 C4287 0.959 . S
H4273 C4287 0.961 . S
H4274 C4288 0.960 . S
H4275 C4288 0.961 . S
H4276 C4288 0.959 . S
H4277 C4291 0.929 . S
H4278 C4292 0.931 . S
H4279 C4294 0.930 . S
C4280 H4268 0.930 . S
C4280 C4281 1.399 . S
C4280 C4285 1.399 . S
C4281 C4280 1.399 . S
C4281 C4282 1.376 . S
C4282 H4269 0.930 . S
C4282 C4281 1.376 . S
C4282 C4283 1.388 . S
C4283 H4270 0.930 . S
C4283 C4282 1.388 . S
C4283 C4284 1.390 . S
C4284 C4283 1.390 . S
C4284 C4285 1.394 . S
C4284 C4290 1.465 . S
C4285 C4280 1.399 . S
C4285 C4284 1.394 . S
C4285 C4286 1.516 . S
C4286 C4285 1.516 . S
C4286 C4287 1.502 . S
C4286 C4288 1.561 . S
C4286 C4289 1.526 . S
C4287 H4271 0.959 . S
C4287 H4272 0.959 . S
C4287 H4273 0.961 . S
C4287 C4286 1.502 . S
C4288 H4274 0.960 . S
C4288 H4275 0.961 . S
C4288 H4276 0.959 . S
C4288 C4286 1.561 . S
C4289 C4286 1.526 . S
C4289 C4290 1.396 . S
C4289 C4294 1.390 . S
C4290 C4284 1.465 . S
C4290 C4289 1.396 . S
C4290 C4291 1.399 . S
C4291 H4277 0.929 . S
C4291 C4290 1.399 . S
C4291 C4292 1.385 . S
C4292 H4278 0.931 . S
C4292 C4291 1.385 . S
C4292 C4293 1.389 . S
C4293 C4292 1.389 . S
C4293 C4294 1.387 . S
C4294 H4279 0.930 . S
C4294 C4289 1.390 . S
C4294 C4293 1.387 . S
H4295 C4307 0.930 . S
H4296 C4309 0.930 . S
H4297 C4310 0.930 . S
H4298 C4314 0.959 . S
H4299 C4314 0.959 . S
H4300 C4314 0.961 . S
H4301 C4315 0.960 . S
H4302 C4315 0.961 . S
H4303 C4315 0.959 . S
H4304 C4318 0.929 . S
H4305 C4319 0.931 . S
H4306 C4321 0.930 . S
C4307 H4295 0.930 . S
C4307 C4308 1.399 . S
C4307 C4312 1.399 . S
C4308 C4307 1.399 . S
C4308 C4309 1.376 . S
C4309 H4296 0.930 . S
C4309 C4308 1.376 . S
C4309 C4310 1.388 . S
C4310 H4297 0.930 . S
C4310 C4309 1.388 . S
C4310 C4311 1.390 . S
C4311 C4310 1.390 . S
C4311 C4312 1.394 . S
C4311 C4317 1.465 . S
C4312 C4307 1.399 . S
C4312 C4311 1.394 . S
C4312 C4313 1.516 . S
C4313 C4312 1.516 . S
C4313 C4314 1.502 . S
C4313 C4315 1.561 . S
C4313 C4316 1.526 . S
C4314 H4298 0.959 . S
C4314 H4299 0.959 . S
C4314 H4300 0.961 . S
C4314 C4313 1.502 . S
C4315 H4301 0.960 . S
C4315 H4302 0.961 . S
C4315 H4303 0.959 . S
C4315 C4313 1.561 . S
C4316 C4313 1.526 . S
C4316 C4317 1.396 . S
C4316 C4321 1.390 . S
C4317 C4311 1.465 . S
C4317 C4316 1.396 . S
C4317 C4318 1.399 . S
C4318 H4304 0.929 . S
C4318 C4317 1.399 . S
C4318 C4319 1.385 . S
C4319 H4305 0.931 . S
C4319 C4318 1.385 . S
C4319 C4320 1.389 . S
C4320 C4319 1.389 . S
C4320 C4321 1.387 . S
C4321 H4306 0.930 . S
C4321 C4316 1.390 . S
C4321 C4320 1.387 . S
H4322 C4334 0.930 . S
H4323 C4336 0.930 . S
H4324 C4337 0.930 . S
H4325 C4341 0.959 . S
H4326 C4341 0.959 . S
H4327 C4341 0.961 . S
H4328 C4342 0.960 . S
H4329 C4342 0.961 . S
H4330 C4342 0.959 . S
H4331 C4345 0.929 . S
H4332 C4346 0.931 . S
H4333 C4348 0.930 . S
C4334 H4322 0.930 . S
C4334 C4335 1.399 . S
C4334 C4339 1.399 . S
C4335 C4334 1.399 . S
C4335 C4336 1.376 . S
C4336 H4323 0.930 . S
C4336 C4335 1.376 . S
C4336 C4337 1.388 . S
C4337 H4324 0.930 . S
C4337 C4336 1.388 . S
C4337 C4338 1.390 . S
C4338 C4337 1.390 . S
C4338 C4339 1.394 . S
C4338 C4344 1.465 . S
C4339 C4334 1.399 . S
C4339 C4338 1.394 . S
C4339 C4340 1.516 . S
C4340 C4339 1.516 . S
C4340 C4341 1.502 . S
C4340 C4342 1.561 . S
C4340 C4343 1.526 . S
C4341 H4325 0.959 . S
C4341 H4326 0.959 . S
C4341 H4327 0.961 . S
C4341 C4340 1.502 . S
C4342 H4328 0.960 . S
C4342 H4329 0.961 . S
C4342 H4330 0.959 . S
C4342 C4340 1.561 . S
C4343 C4340 1.526 . S
C4343 C4344 1.396 . S
C4343 C4348 1.390 . S
C4344 C4338 1.465 . S
C4344 C4343 1.396 . S
C4344 C4345 1.399 . S
C4345 H4331 0.929 . S
C4345 C4344 1.399 . S
C4345 C4346 1.385 . S
C4346 H4332 0.931 . S
C4346 C4345 1.385 . S
C4346 C4347 1.389 . S
C4347 C4346 1.389 . S
C4347 C4348 1.387 . S
C4348 H4333 0.930 . S
C4348 C4343 1.390 . S
C4348 C4347 1.387 . S
H4349 C4361 0.930 . S
H4350 C4363 0.930 . S
H4351 C4364 0.930 . S
H4352 C4368 0.959 . S
H4353 C4368 0.959 . S
H4354 C4368 0.961 . S
H4355 C4369 0.960 . S
H4356 C4369 0.961 . S
H4357 C4369 0.959 . S
H4358 C4372 0.929 . S
H4359 C4373 0.931 . S
H4360 C4375 0.930 . S
C4361 H4349 0.930 . S
C4361 C4362 1.399 . S
C4361 C4366 1.399 . S
C4362 C4361 1.399 . S
C4362 C4363 1.376 . S
C4363 H4350 0.930 . S
C4363 C4362 1.376 . S
C4363 C4364 1.388 . S
C4364 H4351 0.930 . S
C4364 C4363 1.388 . S
C4364 C4365 1.390 . S
C4365 C4364 1.390 . S
C4365 C4366 1.394 . S
C4365 C4371 1.465 . S
C4366 C4361 1.399 . S
C4366 C4365 1.394 . S
C4366 C4367 1.516 . S
C4367 C4366 1.516 . S
C4367 C4368 1.502 . S
C4367 C4369 1.561 . S
C4367 C4370 1.526 . S
C4368 H4352 0.959 . S
C4368 H4353 0.959 . S
C4368 H4354 0.961 . S
C4368 C4367 1.502 . S
C4369 H4355 0.960 . S
C4369 H4356 0.961 . S
C4369 H4357 0.959 . S
C4369 C4367 1.561 . S
C4370 C4367 1.526 . S
C4370 C4371 1.396 . S
C4370 C4375 1.390 . S
C4371 C4365 1.465 . S
C4371 C4370 1.396 . S
C4371 C4372 1.399 . S
C4372 H4358 0.929 . S
C4372 C4371 1.399 . S
C4372 C4373 1.385 . S
C4373 H4359 0.931 . S
C4373 C4372 1.385 . S
C4373 C4374 1.389 . S
C4374 C4373 1.389 . S
C4374 C4375 1.387 . S
C4375 H4360 0.930 . S
C4375 C4370 1.390 . S
C4375 C4374 1.387 . S
H4376 C4388 0.930 . S
H4377 C4390 0.930 . S
H4378 C4391 0.930 . S
H4379 C4395 0.959 . S
H4380 C4395 0.959 . S
H4381 C4395 0.961 . S
H4382 C4396 0.960 . S
H4383 C4396 0.961 . S
H4384 C4396 0.959 . S
H4385 C4399 0.929 . S
H4386 C4400 0.931 . S
H4387 C4402 0.930 . S
C4388 H4376 0.930 . S
C4388 C4389 1.399 . S
C4388 C4393 1.399 . S
C4389 C4388 1.399 . S
C4389 C4390 1.376 . S
C4390 H4377 0.930 . S
C4390 C4389 1.376 . S
C4390 C4391 1.388 . S
C4391 H4378 0.930 . S
C4391 C4390 1.388 . S
C4391 C4392 1.390 . S
C4392 C4391 1.390 . S
C4392 C4393 1.394 . S
C4392 C4398 1.465 . S
C4393 C4388 1.399 . S
C4393 C4392 1.394 . S
C4393 C4394 1.516 . S
C4394 C4393 1.516 . S
C4394 C4395 1.502 . S
C4394 C4396 1.561 . S
C4394 C4397 1.526 . S
C4395 H4379 0.959 . S
C4395 H4380 0.959 . S
C4395 H4381 0.961 . S
C4395 C4394 1.502 . S
C4396 H4382 0.960 . S
C4396 H4383 0.961 . S
C4396 H4384 0.959 . S
C4396 C4394 1.561 . S
C4397 C4394 1.526 . S
C4397 C4398 1.396 . S
C4397 C4402 1.390 . S
C4398 C4392 1.465 . S
C4398 C4397 1.396 . S
C4398 C4399 1.399 . S
C4399 H4385 0.929 . S
C4399 C4398 1.399 . S
C4399 C4400 1.385 . S
C4400 H4386 0.931 . S
C4400 C4399 1.385 . S
C4400 C4401 1.389 . S
C4401 C4400 1.389 . S
C4401 C4402 1.387 . S
C4402 H4387 0.930 . S
C4402 C4397 1.390 . S
C4402 C4401 1.387 . S
H4403 C4415 0.930 . S
H4404 C4417 0.930 . S
H4405 C4418 0.930 . S
H4406 C4422 0.959 . S
H4407 C4422 0.959 . S
H4408 C4422 0.961 . S
H4409 C4423 0.960 . S
H4410 C4423 0.961 . S
H4411 C4423 0.959 . S
H4412 C4426 0.929 . S
H4413 C4427 0.931 . S
H4414 C4429 0.930 . S
C4415 H4403 0.930 . S
C4415 C4416 1.399 . S
C4415 C4420 1.399 . S
C4416 C4415 1.399 . S
C4416 C4417 1.376 . S
C4417 H4404 0.930 . S
C4417 C4416 1.376 . S
C4417 C4418 1.388 . S
C4418 H4405 0.930 . S
C4418 C4417 1.388 . S
C4418 C4419 1.390 . S
C4419 C4418 1.390 . S
C4419 C4420 1.394 . S
C4419 C4425 1.465 . S
C4420 C4415 1.399 . S
C4420 C4419 1.394 . S
C4420 C4421 1.516 . S
C4421 C4420 1.516 . S
C4421 C4422 1.502 . S
C4421 C4423 1.561 . S
C4421 C4424 1.526 . S
C4422 H4406 0.959 . S
C4422 H4407 0.959 . S
C4422 H4408 0.961 . S
C4422 C4421 1.502 . S
C4423 H4409 0.960 . S
C4423 H4410 0.961 . S
C4423 H4411 0.959 . S
C4423 C4421 1.561 . S
C4424 C4421 1.526 . S
C4424 C4425 1.396 . S
C4424 C4429 1.390 . S
C4425 C4419 1.465 . S
C4425 C4424 1.396 . S
C4425 C4426 1.399 . S
C4426 H4412 0.929 . S
C4426 C4425 1.399 . S
C4426 C4427 1.385 . S
C4427 H4413 0.931 . S
C4427 C4426 1.385 . S
C4427 C4428 1.389 . S
C4428 C4427 1.389 . S
C4428 C4429 1.387 . S
C4429 H4414 0.930 . S
C4429 C4424 1.390 . S
C4429 C4428 1.387 . S
H4430 C4442 0.930 . S
H4431 C4444 0.930 . S
H4432 C4445 0.930 . S
H4433 C4449 0.959 . S
H4434 C4449 0.959 . S
H4435 C4449 0.961 . S
H4436 C4450 0.960 . S
H4437 C4450 0.961 . S
H4438 C4450 0.959 . S
H4439 C4453 0.929 . S
H4440 C4454 0.931 . S
H4441 C4456 0.930 . S
C4442 H4430 0.930 . S
C4442 C4443 1.399 . S
C4442 C4447 1.399 . S
C4443 C4442 1.399 . S
C4443 C4444 1.376 . S
C4444 H4431 0.930 . S
C4444 C4443 1.376 . S
C4444 C4445 1.388 . S
C4445 H4432 0.930 . S
C4445 C4444 1.388 . S
C4445 C4446 1.390 . S
C4446 C4445 1.390 . S
C4446 C4447 1.394 . S
C4446 C4452 1.465 . S
C4447 C4442 1.399 . S
C4447 C4446 1.394 . S
C4447 C4448 1.516 . S
C4448 C4447 1.516 . S
C4448 C4449 1.502 . S
C4448 C4450 1.561 . S
C4448 C4451 1.526 . S
C4449 H4433 0.959 . S
C4449 H4434 0.959 . S
C4449 H4435 0.961 . S
C4449 C4448 1.502 . S
C4450 H4436 0.960 . S
C4450 H4437 0.961 . S
C4450 H4438 0.959 . S
C4450 C4448 1.561 . S
C4451 C4448 1.526 . S
C4451 C4452 1.396 . S
C4451 C4456 1.390 . S
C4452 C4446 1.465 . S
C4452 C4451 1.396 . S
C4452 C4453 1.399 . S
C4453 H4439 0.929 . S
C4453 C4452 1.399 . S
C4453 C4454 1.385 . S
C4454 H4440 0.931 . S
C4454 C4453 1.385 . S
C4454 C4455 1.389 . S
C4455 C4454 1.389 . S
C4455 C4456 1.387 . S
C4456 H4441 0.930 . S
C4456 C4451 1.390 . S
C4456 C4455 1.387 . S
H4457 C4469 0.930 . S
H4458 C4471 0.930 . S
H4459 C4472 0.930 . S
H4460 C4476 0.959 . S
H4461 C4476 0.959 . S
H4462 C4476 0.961 . S
H4463 C4477 0.960 . S
H4464 C4477 0.961 . S
H4465 C4477 0.959 . S
H4466 C4480 0.929 . S
H4467 C4481 0.931 . S
H4468 C4483 0.930 . S
C4469 H4457 0.930 . S
C4469 C4470 1.399 . S
C4469 C4474 1.399 . S
C4470 C4469 1.399 . S
C4470 C4471 1.376 . S
C4471 H4458 0.930 . S
C4471 C4470 1.376 . S
C4471 C4472 1.388 . S
C4472 H4459 0.930 . S
C4472 C4471 1.388 . S
C4472 C4473 1.390 . S
C4473 C4472 1.390 . S
C4473 C4474 1.394 . S
C4473 C4479 1.465 . S
C4474 C4469 1.399 . S
C4474 C4473 1.394 . S
C4474 C4475 1.516 . S
C4475 C4474 1.516 . S
C4475 C4476 1.502 . S
C4475 C4477 1.561 . S
C4475 C4478 1.526 . S
C4476 H4460 0.959 . S
C4476 H4461 0.959 . S
C4476 H4462 0.961 . S
C4476 C4475 1.502 . S
C4477 H4463 0.960 . S
C4477 H4464 0.961 . S
C4477 H4465 0.959 . S
C4477 C4475 1.561 . S
C4478 C4475 1.526 . S
C4478 C4479 1.396 . S
C4478 C4483 1.390 . S
C4479 C4473 1.465 . S
C4479 C4478 1.396 . S
C4479 C4480 1.399 . S
C4480 H4466 0.929 . S
C4480 C4479 1.399 . S
C4480 C4481 1.385 . S
C4481 H4467 0.931 . S
C4481 C4480 1.385 . S
C4481 C4482 1.389 . S
C4482 C4481 1.389 . S
C4482 C4483 1.387 . S
C4483 H4468 0.930 . S
C4483 C4478 1.390 . S
C4483 C4482 1.387 . S
H4484 C4496 0.930 . S
H4485 C4498 0.930 . S
H4486 C4499 0.930 . S
H4487 C4503 0.959 . S
H4488 C4503 0.959 . S
H4489 C4503 0.961 . S
H4490 C4504 0.960 . S
H4491 C4504 0.961 . S
H4492 C4504 0.959 . S
H4493 C4507 0.929 . S
H4494 C4508 0.931 . S
H4495 C4510 0.930 . S
C4496 H4484 0.930 . S
C4496 C4497 1.399 . S
C4496 C4501 1.399 . S
C4497 C4496 1.399 . S
C4497 C4498 1.376 . S
C4498 H4485 0.930 . S
C4498 C4497 1.376 . S
C4498 C4499 1.388 . S
C4499 H4486 0.930 . S
C4499 C4498 1.388 . S
C4499 C4500 1.390 . S
C4500 C4499 1.390 . S
C4500 C4501 1.394 . S
C4500 C4506 1.465 . S
C4501 C4496 1.399 . S
C4501 C4500 1.394 . S
C4501 C4502 1.516 . S
C4502 C4501 1.516 . S
C4502 C4503 1.502 . S
C4502 C4504 1.561 . S
C4502 C4505 1.526 . S
C4503 H4487 0.959 . S
C4503 H4488 0.959 . S
C4503 H4489 0.961 . S
C4503 C4502 1.502 . S
C4504 H4490 0.960 . S
C4504 H4491 0.961 . S
C4504 H4492 0.959 . S
C4504 C4502 1.561 . S
C4505 C4502 1.526 . S
C4505 C4506 1.396 . S
C4505 C4510 1.390 . S
C4506 C4500 1.465 . S
C4506 C4505 1.396 . S
C4506 C4507 1.399 . S
C4507 H4493 0.929 . S
C4507 C4506 1.399 . S
C4507 C4508 1.385 . S
C4508 H4494 0.931 . S
C4508 C4507 1.385 . S
C4508 C4509 1.389 . S
C4509 C4508 1.389 . S
C4509 C4510 1.387 . S
C4510 H4495 0.930 . S
C4510 C4505 1.390 . S
C4510 C4509 1.387 . S
H4511 C4523 0.930 . S
H4512 C4525 0.930 . S
H4513 C4526 0.930 . S
H4514 C4530 0.959 . S
H4515 C4530 0.959 . S
H4516 C4530 0.961 . S
H4517 C4531 0.960 . S
H4518 C4531 0.961 . S
H4519 C4531 0.959 . S
H4520 C4534 0.929 . S
H4521 C4535 0.931 . S
H4522 C4537 0.930 . S
C4523 H4511 0.930 . S
C4523 C4524 1.399 . S
C4523 C4528 1.399 . S
C4524 C4523 1.399 . S
C4524 C4525 1.376 . S
C4525 H4512 0.930 . S
C4525 C4524 1.376 . S
C4525 C4526 1.388 . S
C4526 H4513 0.930 . S
C4526 C4525 1.388 . S
C4526 C4527 1.390 . S
C4527 C4526 1.390 . S
C4527 C4528 1.394 . S
C4527 C4533 1.465 . S
C4528 C4523 1.399 . S
C4528 C4527 1.394 . S
C4528 C4529 1.516 . S
C4529 C4528 1.516 . S
C4529 C4530 1.502 . S
C4529 C4531 1.561 . S
C4529 C4532 1.526 . S
C4530 H4514 0.959 . S
C4530 H4515 0.959 . S
C4530 H4516 0.961 . S
C4530 C4529 1.502 . S
C4531 H4517 0.960 . S
C4531 H4518 0.961 . S
C4531 H4519 0.959 . S
C4531 C4529 1.561 . S
C4532 C4529 1.526 . S
C4532 C4533 1.396 . S
C4532 C4537 1.390 . S
C4533 C4527 1.465 . S
C4533 C4532 1.396 . S
C4533 C4534 1.399 . S
C4534 H4520 0.929 . S
C4534 C4533 1.399 . S
C4534 C4535 1.385 . S
C4535 H4521 0.931 . S
C4535 C4534 1.385 . S
C4535 C4536 1.389 . S
C4536 C4535 1.389 . S
C4536 C4537 1.387 . S
C4537 H4522 0.930 . S
C4537 C4532 1.390 . S
C4537 C4536 1.387 . S
H4538 C4550 0.930 . S
H4539 C4552 0.930 . S
H4540 C4553 0.930 . S
H4541 C4557 0.959 . S
H4542 C4557 0.959 . S
H4543 C4557 0.961 . S
H4544 C4558 0.960 . S
H4545 C4558 0.961 . S
H4546 C4558 0.959 . S
H4547 C4561 0.929 . S
H4548 C4562 0.931 . S
H4549 C4564 0.930 . S
C4550 H4538 0.930 . S
C4550 C4551 1.399 . S
C4550 C4555 1.399 . S
C4551 C4550 1.399 . S
C4551 C4552 1.376 . S
C4552 H4539 0.930 . S
C4552 C4551 1.376 . S
C4552 C4553 1.388 . S
C4553 H4540 0.930 . S
C4553 C4552 1.388 . S
C4553 C4554 1.390 . S
C4554 C4553 1.390 . S
C4554 C4555 1.394 . S
C4554 C4560 1.465 . S
C4555 C4550 1.399 . S
C4555 C4554 1.394 . S
C4555 C4556 1.516 . S
C4556 C4555 1.516 . S
C4556 C4557 1.502 . S
C4556 C4558 1.561 . S
C4556 C4559 1.526 . S
C4557 H4541 0.959 . S
C4557 H4542 0.959 . S
C4557 H4543 0.961 . S
C4557 C4556 1.502 . S
C4558 H4544 0.960 . S
C4558 H4545 0.961 . S
C4558 H4546 0.959 . S
C4558 C4556 1.561 . S
C4559 C4556 1.526 . S
C4559 C4560 1.396 . S
C4559 C4564 1.390 . S
C4560 C4554 1.465 . S
C4560 C4559 1.396 . S
C4560 C4561 1.399 . S
C4561 H4547 0.929 . S
C4561 C4560 1.399 . S
C4561 C4562 1.385 . S
C4562 H4548 0.931 . S
C4562 C4561 1.385 . S
C4562 C4563 1.389 . S
C4563 C4562 1.389 . S
C4563 C4564 1.387 . S
C4564 H4549 0.930 . S
C4564 C4559 1.390 . S
C4564 C4563 1.387 . S
H4565 C4577 0.930 . S
H4566 C4579 0.930 . S
H4567 C4580 0.930 . S
H4568 C4584 0.959 . S
H4569 C4584 0.959 . S
H4570 C4584 0.961 . S
H4571 C4585 0.960 . S
H4572 C4585 0.961 . S
H4573 C4585 0.959 . S
H4574 C4588 0.929 . S
H4575 C4589 0.931 . S
H4576 C4591 0.930 . S
C4577 H4565 0.930 . S
C4577 C4578 1.399 . S
C4577 C4582 1.399 . S
C4578 C4577 1.399 . S
C4578 C4579 1.376 . S
C4579 H4566 0.930 . S
C4579 C4578 1.376 . S
C4579 C4580 1.388 . S
C4580 H4567 0.930 . S
C4580 C4579 1.388 . S
C4580 C4581 1.390 . S
C4581 C4580 1.390 . S
C4581 C4582 1.394 . S
C4581 C4587 1.465 . S
C4582 C4577 1.399 . S
C4582 C4581 1.394 . S
C4582 C4583 1.516 . S
C4583 C4582 1.516 . S
C4583 C4584 1.502 . S
C4583 C4585 1.561 . S
C4583 C4586 1.526 . S
C4584 H4568 0.959 . S
C4584 H4569 0.959 . S
C4584 H4570 0.961 . S
C4584 C4583 1.502 . S
C4585 H4571 0.960 . S
C4585 H4572 0.961 . S
C4585 H4573 0.959 . S
C4585 C4583 1.561 . S
C4586 C4583 1.526 . S
C4586 C4587 1.396 . S
C4586 C4591 1.390 . S
C4587 C4581 1.465 . S
C4587 C4586 1.396 . S
C4587 C4588 1.399 . S
C4588 H4574 0.929 . S
C4588 C4587 1.399 . S
C4588 C4589 1.385 . S
C4589 H4575 0.931 . S
C4589 C4588 1.385 . S
C4589 C4590 1.389 . S
C4590 C4589 1.389 . S
C4590 C4591 1.387 . S
C4591 H4576 0.930 . S
C4591 C4586 1.390 . S
C4591 C4590 1.387 . S
H4592 C4604 0.930 . S
H4593 C4606 0.930 . S
H4594 C4607 0.930 . S
H4595 C4611 0.959 . S
H4596 C4611 0.959 . S
H4597 C4611 0.961 . S
H4598 C4612 0.960 . S
H4599 C4612 0.961 . S
H4600 C4612 0.959 . S
H4601 C4615 0.929 . S
H4602 C4616 0.931 . S
H4603 C4618 0.930 . S
C4604 H4592 0.930 . S
C4604 C4605 1.399 . S
C4604 C4609 1.399 . S
C4605 C4604 1.399 . S
C4605 C4606 1.376 . S
C4606 H4593 0.930 . S
C4606 C4605 1.376 . S
C4606 C4607 1.388 . S
C4607 H4594 0.930 . S
C4607 C4606 1.388 . S
C4607 C4608 1.390 . S
C4608 C4607 1.390 . S
C4608 C4609 1.394 . S
C4608 C4614 1.465 . S
C4609 C4604 1.399 . S
C4609 C4608 1.394 . S
C4609 C4610 1.516 . S
C4610 C4609 1.516 . S
C4610 C4611 1.502 . S
C4610 C4612 1.561 . S
C4610 C4613 1.526 . S
C4611 H4595 0.959 . S
C4611 H4596 0.959 . S
C4611 H4597 0.961 . S
C4611 C4610 1.502 . S
C4612 H4598 0.960 . S
C4612 H4599 0.961 . S
C4612 H4600 0.959 . S
C4612 C4610 1.561 . S
C4613 C4610 1.526 . S
C4613 C4614 1.396 . S
C4613 C4618 1.390 . S
C4614 C4608 1.465 . S
C4614 C4613 1.396 . S
C4614 C4615 1.399 . S
C4615 H4601 0.929 . S
C4615 C4614 1.399 . S
C4615 C4616 1.385 . S
C4616 H4602 0.931 . S
C4616 C4615 1.385 . S
C4616 C4617 1.389 . S
C4617 C4616 1.389 . S
C4617 C4618 1.387 . S
C4618 H4603 0.930 . S
C4618 C4613 1.390 . S
C4618 C4617 1.387 . S
H4619 C4631 0.930 . S
H4620 C4633 0.930 . S
H4621 C4634 0.930 . S
H4622 C4638 0.959 . S
H4623 C4638 0.959 . S
H4624 C4638 0.961 . S
H4625 C4639 0.960 . S
H4626 C4639 0.961 . S
H4627 C4639 0.959 . S
H4628 C4642 0.929 . S
H4629 C4643 0.931 . S
H4630 C4645 0.930 . S
C4631 H4619 0.930 . S
C4631 C4632 1.399 . S
C4631 C4636 1.399 . S
C4632 C4631 1.399 . S
C4632 C4633 1.376 . S
C4633 H4620 0.930 . S
C4633 C4632 1.376 . S
C4633 C4634 1.388 . S
C4634 H4621 0.930 . S
C4634 C4633 1.388 . S
C4634 C4635 1.390 . S
C4635 C4634 1.390 . S
C4635 C4636 1.394 . S
C4635 C4641 1.465 . S
C4636 C4631 1.399 . S
C4636 C4635 1.394 . S
C4636 C4637 1.516 . S
C4637 C4636 1.516 . S
C4637 C4638 1.502 . S
C4637 C4639 1.561 . S
C4637 C4640 1.526 . S
C4638 H4622 0.959 . S
C4638 H4623 0.959 . S
C4638 H4624 0.961 . S
C4638 C4637 1.502 . S
C4639 H4625 0.960 . S
C4639 H4626 0.961 . S
C4639 H4627 0.959 . S
C4639 C4637 1.561 . S
C4640 C4637 1.526 . S
C4640 C4641 1.396 . S
C4640 C4645 1.390 . S
C4641 C4635 1.465 . S
C4641 C4640 1.396 . S
C4641 C4642 1.399 . S
C4642 H4628 0.929 . S
C4642 C4641 1.399 . S
C4642 C4643 1.385 . S
C4643 H4629 0.931 . S
C4643 C4642 1.385 . S
C4643 C4644 1.389 . S
C4644 C4643 1.389 . S
C4644 C4645 1.387 . S
C4645 H4630 0.930 . S
C4645 C4640 1.390 . S
C4645 C4644 1.387 . S
H4646 C4658 0.930 . S
H4647 C4660 0.930 . S
H4648 C4661 0.930 . S
H4649 C4665 0.959 . S
H4650 C4665 0.959 . S
H4651 C4665 0.961 . S
H4652 C4666 0.960 . S
H4653 C4666 0.961 . S
H4654 C4666 0.959 . S
H4655 C4669 0.929 . S
H4656 C4670 0.931 . S
H4657 C4672 0.930 . S
C4658 H4646 0.930 . S
C4658 C4659 1.399 . S
C4658 C4663 1.399 . S
C4659 C4658 1.399 . S
C4659 C4660 1.376 . S
C4660 H4647 0.930 . S
C4660 C4659 1.376 . S
C4660 C4661 1.388 . S
C4661 H4648 0.930 . S
C4661 C4660 1.388 . S
C4661 C4662 1.390 . S
C4662 C4661 1.390 . S
C4662 C4663 1.394 . S
C4662 C4668 1.465 . S
C4663 C4658 1.399 . S
C4663 C4662 1.394 . S
C4663 C4664 1.516 . S
C4664 C4663 1.516 . S
C4664 C4665 1.502 . S
C4664 C4666 1.561 . S
C4664 C4667 1.526 . S
C4665 H4649 0.959 . S
C4665 H4650 0.959 . S
C4665 H4651 0.961 . S
C4665 C4664 1.502 . S
C4666 H4652 0.960 . S
C4666 H4653 0.961 . S
C4666 H4654 0.959 . S
C4666 C4664 1.561 . S
C4667 C4664 1.526 . S
C4667 C4668 1.396 . S
C4667 C4672 1.390 . S
C4668 C4662 1.465 . S
C4668 C4667 1.396 . S
C4668 C4669 1.399 . S
C4669 H4655 0.929 . S
C4669 C4668 1.399 . S
C4669 C4670 1.385 . S
C4670 H4656 0.931 . S
C4670 C4669 1.385 . S
C4670 C4671 1.389 . S
C4671 C4670 1.389 . S
C4671 C4672 1.387 . S
C4672 H4657 0.930 . S
C4672 C4667 1.390 . S
C4672 C4671 1.387 . S
H4673 C4685 0.930 . S
H4674 C4687 0.930 . S
H4675 C4688 0.930 . S
H4676 C4692 0.959 . S
H4677 C4692 0.959 . S
H4678 C4692 0.961 . S
H4679 C4693 0.960 . S
H4680 C4693 0.961 . S
H4681 C4693 0.959 . S
H4682 C4696 0.929 . S
H4683 C4697 0.931 . S
H4684 C4699 0.930 . S
C4685 H4673 0.930 . S
C4685 C4686 1.399 . S
C4685 C4690 1.399 . S
C4686 C4685 1.399 . S
C4686 C4687 1.376 . S
C4687 H4674 0.930 . S
C4687 C4686 1.376 . S
C4687 C4688 1.388 . S
C4688 H4675 0.930 . S
C4688 C4687 1.388 . S
C4688 C4689 1.390 . S
C4689 C4688 1.390 . S
C4689 C4690 1.394 . S
C4689 C4695 1.465 . S
C4690 C4685 1.399 . S
C4690 C4689 1.394 . S
C4690 C4691 1.516 . S
C4691 C4690 1.516 . S
C4691 C4692 1.502 . S
C4691 C4693 1.561 . S
C4691 C4694 1.526 . S
C4692 H4676 0.959 . S
C4692 H4677 0.959 . S
C4692 H4678 0.961 . S
C4692 C4691 1.502 . S
C4693 H4679 0.960 . S
C4693 H4680 0.961 . S
C4693 H4681 0.959 . S
C4693 C4691 1.561 . S
C4694 C4691 1.526 . S
C4694 C4695 1.396 . S
C4694 C4699 1.390 . S
C4695 C4689 1.465 . S
C4695 C4694 1.396 . S
C4695 C4696 1.399 . S
C4696 H4682 0.929 . S
C4696 C4695 1.399 . S
C4696 C4697 1.385 . S
C4697 H4683 0.931 . S
C4697 C4696 1.385 . S
C4697 C4698 1.389 . S
C4698 C4697 1.389 . S
C4698 C4699 1.387 . S
C4699 H4684 0.930 . S
C4699 C4694 1.390 . S
C4699 C4698 1.387 . S
H4700 C4712 0.930 . S
H4701 C4714 0.930 . S
H4702 C4715 0.930 . S
H4703 C4719 0.959 . S
H4704 C4719 0.959 . S
H4705 C4719 0.961 . S
H4706 C4720 0.960 . S
H4707 C4720 0.961 . S
H4708 C4720 0.959 . S
H4709 C4723 0.929 . S
H4710 C4724 0.931 . S
H4711 C4726 0.930 . S
C4712 H4700 0.930 . S
C4712 C4713 1.399 . S
C4712 C4717 1.399 . S
C4713 C4712 1.399 . S
C4713 C4714 1.376 . S
C4714 H4701 0.930 . S
C4714 C4713 1.376 . S
C4714 C4715 1.388 . S
C4715 H4702 0.930 . S
C4715 C4714 1.388 . S
C4715 C4716 1.390 . S
C4716 C4715 1.390 . S
C4716 C4717 1.394 . S
C4716 C4722 1.465 . S
C4717 C4712 1.399 . S
C4717 C4716 1.394 . S
C4717 C4718 1.516 . S
C4718 C4717 1.516 . S
C4718 C4719 1.502 . S
C4718 C4720 1.561 . S
C4718 C4721 1.526 . S
C4719 H4703 0.959 . S
C4719 H4704 0.959 . S
C4719 H4705 0.961 . S
C4719 C4718 1.502 . S
C4720 H4706 0.960 . S
C4720 H4707 0.961 . S
C4720 H4708 0.959 . S
C4720 C4718 1.561 . S
C4721 C4718 1.526 . S
C4721 C4722 1.396 . S
C4721 C4726 1.390 . S
C4722 C4716 1.465 . S
C4722 C4721 1.396 . S
C4722 C4723 1.399 . S
C4723 H4709 0.929 . S
C4723 C4722 1.399 . S
C4723 C4724 1.385 . S
C4724 H4710 0.931 . S
C4724 C4723 1.385 . S
C4724 C4725 1.389 . S
C4725 C4724 1.389 . S
C4725 C4726 1.387 . S
C4726 H4711 0.930 . S
C4726 C4721 1.390 . S
C4726 C4725 1.387 . S
H4727 C4739 0.930 . S
H4728 C4741 0.930 . S
H4729 C4742 0.930 . S
H4730 C4746 0.959 . S
H4731 C4746 0.959 . S
H4732 C4746 0.961 . S
H4733 C4747 0.960 . S
H4734 C4747 0.961 . S
H4735 C4747 0.959 . S
H4736 C4750 0.929 . S
H4737 C4751 0.931 . S
H4738 C4753 0.930 . S
C4739 H4727 0.930 . S
C4739 C4740 1.399 . S
C4739 C4744 1.399 . S
C4740 C4739 1.399 . S
C4740 C4741 1.376 . S
C4741 H4728 0.930 . S
C4741 C4740 1.376 . S
C4741 C4742 1.388 . S
C4742 H4729 0.930 . S
C4742 C4741 1.388 . S
C4742 C4743 1.390 . S
C4743 C4742 1.390 . S
C4743 C4744 1.394 . S
C4743 C4749 1.465 . S
C4744 C4739 1.399 . S
C4744 C4743 1.394 . S
C4744 C4745 1.516 . S
C4745 C4744 1.516 . S
C4745 C4746 1.502 . S
C4745 C4747 1.561 . S
C4745 C4748 1.526 . S
C4746 H4730 0.959 . S
C4746 H4731 0.959 . S
C4746 H4732 0.961 . S
C4746 C4745 1.502 . S
C4747 H4733 0.960 . S
C4747 H4734 0.961 . S
C4747 H4735 0.959 . S
C4747 C4745 1.561 . S
C4748 C4745 1.526 . S
C4748 C4749 1.396 . S
C4748 C4753 1.390 . S
C4749 C4743 1.465 . S
C4749 C4748 1.396 . S
C4749 C4750 1.399 . S
C4750 H4736 0.929 . S
C4750 C4749 1.399 . S
C4750 C4751 1.385 . S
C4751 H4737 0.931 . S
C4751 C4750 1.385 . S
C4751 C4752 1.389 . S
C4752 C4751 1.389 . S
C4752 C4753 1.387 . S
C4753 H4738 0.930 . S
C4753 C4748 1.390 . S
C4753 C4752 1.387 . S
H4754 C4766 0.930 . S
H4755 C4768 0.930 . S
H4756 C4769 0.930 . S
H4757 C4773 0.959 . S
H4758 C4773 0.959 . S
H4759 C4773 0.961 . S
H4760 C4774 0.960 . S
H4761 C4774 0.961 . S
H4762 C4774 0.959 . S
H4763 C4777 0.929 . S
H4764 C4778 0.931 . S
H4765 C4780 0.930 . S
C4766 H4754 0.930 . S
C4766 C4767 1.399 . S
C4766 C4771 1.399 . S
C4767 C4766 1.399 . S
C4767 C4768 1.376 . S
C4768 H4755 0.930 . S
C4768 C4767 1.376 . S
C4768 C4769 1.388 . S
C4769 H4756 0.930 . S
C4769 C4768 1.388 . S
C4769 C4770 1.390 . S
C4770 C4769 1.390 . S
C4770 C4771 1.394 . S
C4770 C4776 1.465 . S
C4771 C4766 1.399 . S
C4771 C4770 1.394 . S
C4771 C4772 1.516 . S
C4772 C4771 1.516 . S
C4772 C4773 1.502 . S
C4772 C4774 1.561 . S
C4772 C4775 1.526 . S
C4773 H4757 0.959 . S
C4773 H4758 0.959 . S
C4773 H4759 0.961 . S
C4773 C4772 1.502 . S
C4774 H4760 0.960 . S
C4774 H4761 0.961 . S
C4774 H4762 0.959 . S
C4774 C4772 1.561 . S
C4775 C4772 1.526 . S
C4775 C4776 1.396 . S
C4775 C4780 1.390 . S
C4776 C4770 1.465 . S
C4776 C4775 1.396 . S
C4776 C4777 1.399 . S
C4777 H4763 0.929 . S
C4777 C4776 1.399 . S
C4777 C4778 1.385 . S
C4778 H4764 0.931 . S
C4778 C4777 1.385 . S
C4778 C4779 1.389 . S
C4779 C4778 1.389 . S
C4779 C4780 1.387 . S
C4780 H4765 0.930 . S
C4780 C4775 1.390 . S
C4780 C4779 1.387 . S
H4781 C4793 0.930 . S
H4782 C4795 0.930 . S
H4783 C4796 0.930 . S
H4784 C4800 0.959 . S
H4785 C4800 0.959 . S
H4786 C4800 0.961 . S
H4787 C4801 0.960 . S
H4788 C4801 0.961 . S
H4789 C4801 0.959 . S
H4790 C4804 0.929 . S
H4791 C4805 0.931 . S
H4792 C4807 0.930 . S
C4793 H4781 0.930 . S
C4793 C4794 1.399 . S
C4793 C4798 1.399 . S
C4794 C4793 1.399 . S
C4794 C4795 1.376 . S
C4795 H4782 0.930 . S
C4795 C4794 1.376 . S
C4795 C4796 1.388 . S
C4796 H4783 0.930 . S
C4796 C4795 1.388 . S
C4796 C4797 1.390 . S
C4797 C4796 1.390 . S
C4797 C4798 1.394 . S
C4797 C4803 1.465 . S
C4798 C4793 1.399 . S
C4798 C4797 1.394 . S
C4798 C4799 1.516 . S
C4799 C4798 1.516 . S
C4799 C4800 1.502 . S
C4799 C4801 1.561 . S
C4799 C4802 1.526 . S
C4800 H4784 0.959 . S
C4800 H4785 0.959 . S
C4800 H4786 0.961 . S
C4800 C4799 1.502 . S
C4801 H4787 0.960 . S
C4801 H4788 0.961 . S
C4801 H4789 0.959 . S
C4801 C4799 1.561 . S
C4802 C4799 1.526 . S
C4802 C4803 1.396 . S
C4802 C4807 1.390 . S
C4803 C4797 1.465 . S
C4803 C4802 1.396 . S
C4803 C4804 1.399 . S
C4804 H4790 0.929 . S
C4804 C4803 1.399 . S
C4804 C4805 1.385 . S
C4805 H4791 0.931 . S
C4805 C4804 1.385 . S
C4805 C4806 1.389 . S
C4806 C4805 1.389 . S
C4806 C4807 1.387 . S
C4807 H4792 0.930 . S
C4807 C4802 1.390 . S
C4807 C4806 1.387 . S
H4808 C4820 0.930 . S
H4809 C4822 0.930 . S
H4810 C4823 0.930 . S
H4811 C4827 0.959 . S
H4812 C4827 0.959 . S
H4813 C4827 0.961 . S
H4814 C4828 0.960 . S
H4815 C4828 0.961 . S
H4816 C4828 0.959 . S
H4817 C4831 0.929 . S
H4818 C4832 0.931 . S
H4819 C4834 0.930 . S
C4820 H4808 0.930 . S
C4820 C4821 1.399 . S
C4820 C4825 1.399 . S
C4821 C4820 1.399 . S
C4821 C4822 1.376 . S
C4822 H4809 0.930 . S
C4822 C4821 1.376 . S
C4822 C4823 1.388 . S
C4823 H4810 0.930 . S
C4823 C4822 1.388 . S
C4823 C4824 1.390 . S
C4824 C4823 1.390 . S
C4824 C4825 1.394 . S
C4824 C4830 1.465 . S
C4825 C4820 1.399 . S
C4825 C4824 1.394 . S
C4825 C4826 1.516 . S
C4826 C4825 1.516 . S
C4826 C4827 1.502 . S
C4826 C4828 1.561 . S
C4826 C4829 1.526 . S
C4827 H4811 0.959 . S
C4827 H4812 0.959 . S
C4827 H4813 0.961 . S
C4827 C4826 1.502 . S
C4828 H4814 0.960 . S
C4828 H4815 0.961 . S
C4828 H4816 0.959 . S
C4828 C4826 1.561 . S
C4829 C4826 1.526 . S
C4829 C4830 1.396 . S
C4829 C4834 1.390 . S
C4830 C4824 1.465 . S
C4830 C4829 1.396 . S
C4830 C4831 1.399 . S
C4831 H4817 0.929 . S
C4831 C4830 1.399 . S
C4831 C4832 1.385 . S
C4832 H4818 0.931 . S
C4832 C4831 1.385 . S
C4832 C4833 1.389 . S
C4833 C4832 1.389 . S
C4833 C4834 1.387 . S
C4834 H4819 0.930 . S
C4834 C4829 1.390 . S
C4834 C4833 1.387 . S
H4835 C4847 0.930 . S
H4836 C4849 0.930 . S
H4837 C4850 0.930 . S
H4838 C4854 0.959 . S
H4839 C4854 0.959 . S
H4840 C4854 0.961 . S
H4841 C4855 0.960 . S
H4842 C4855 0.961 . S
H4843 C4855 0.959 . S
H4844 C4858 0.929 . S
H4845 C4859 0.931 . S
H4846 C4861 0.930 . S
C4847 H4835 0.930 . S
C4847 C4848 1.399 . S
C4847 C4852 1.399 . S
C4848 C4847 1.399 . S
C4848 C4849 1.376 . S
C4849 H4836 0.930 . S
C4849 C4848 1.376 . S
C4849 C4850 1.388 . S
C4850 H4837 0.930 . S
C4850 C4849 1.388 . S
C4850 C4851 1.390 . S
C4851 C4850 1.390 . S
C4851 C4852 1.394 . S
C4851 C4857 1.465 . S
C4852 C4847 1.399 . S
C4852 C4851 1.394 . S
C4852 C4853 1.516 . S
C4853 C4852 1.516 . S
C4853 C4854 1.502 . S
C4853 C4855 1.561 . S
C4853 C4856 1.526 . S
C4854 H4838 0.959 . S
C4854 H4839 0.959 . S
C4854 H4840 0.961 . S
C4854 C4853 1.502 . S
C4855 H4841 0.960 . S
C4855 H4842 0.961 . S
C4855 H4843 0.959 . S
C4855 C4853 1.561 . S
C4856 C4853 1.526 . S
C4856 C4857 1.396 . S
C4856 C4861 1.390 . S
C4857 C4851 1.465 . S
C4857 C4856 1.396 . S
C4857 C4858 1.399 . S
C4858 H4844 0.929 . S
C4858 C4857 1.399 . S
C4858 C4859 1.385 . S
C4859 H4845 0.931 . S
C4859 C4858 1.385 . S
C4859 C4860 1.389 . S
C4860 C4859 1.389 . S
C4860 C4861 1.387 . S
C4861 H4846 0.930 . S
C4861 C4856 1.390 . S
C4861 C4860 1.387 . S
H4862 C4874 0.930 . S
H4863 C4876 0.930 . S
H4864 C4877 0.930 . S
H4865 C4881 0.959 . S
H4866 C4881 0.959 . S
H4867 C4881 0.961 . S
H4868 C4882 0.960 . S
H4869 C4882 0.961 . S
H4870 C4882 0.959 . S
H4871 C4885 0.929 . S
H4872 C4886 0.931 . S
H4873 C4888 0.930 . S
C4874 H4862 0.930 . S
C4874 C4875 1.399 . S
C4874 C4879 1.399 . S
C4875 C4874 1.399 . S
C4875 C4876 1.376 . S
C4876 H4863 0.930 . S
C4876 C4875 1.376 . S
C4876 C4877 1.388 . S
C4877 H4864 0.930 . S
C4877 C4876 1.388 . S
C4877 C4878 1.390 . S
C4878 C4877 1.390 . S
C4878 C4879 1.394 . S
C4878 C4884 1.465 . S
C4879 C4874 1.399 . S
C4879 C4878 1.394 . S
C4879 C4880 1.516 . S
C4880 C4879 1.516 . S
C4880 C4881 1.502 . S
C4880 C4882 1.561 . S
C4880 C4883 1.526 . S
C4881 H4865 0.959 . S
C4881 H4866 0.959 . S
C4881 H4867 0.961 . S
C4881 C4880 1.502 . S
C4882 H4868 0.960 . S
C4882 H4869 0.961 . S
C4882 H4870 0.959 . S
C4882 C4880 1.561 . S
C4883 C4880 1.526 . S
C4883 C4884 1.396 . S
C4883 C4888 1.390 . S
C4884 C4878 1.465 . S
C4884 C4883 1.396 . S
C4884 C4885 1.399 . S
C4885 H4871 0.929 . S
C4885 C4884 1.399 . S
C4885 C4886 1.385 . S
C4886 H4872 0.931 . S
C4886 C4885 1.385 . S
C4886 C4887 1.389 . S
C4887 C4886 1.389 . S
C4887 C4888 1.387 . S
C4888 H4873 0.930 . S
C4888 C4883 1.390 . S
C4888 C4887 1.387 . S
H4889 C4901 0.930 . S
H4890 C4903 0.930 . S
H4891 C4904 0.930 . S
H4892 C4908 0.959 . S
H4893 C4908 0.959 . S
H4894 C4908 0.961 . S
H4895 C4909 0.960 . S
H4896 C4909 0.961 . S
H4897 C4909 0.959 . S
H4898 C4912 0.929 . S
H4899 C4913 0.931 . S
H4900 C4915 0.930 . S
C4901 H4889 0.930 . S
C4901 C4902 1.399 . S
C4901 C4906 1.399 . S
C4902 C4901 1.399 . S
C4902 C4903 1.376 . S
C4903 H4890 0.930 . S
C4903 C4902 1.376 . S
C4903 C4904 1.388 . S
C4904 H4891 0.930 . S
C4904 C4903 1.388 . S
C4904 C4905 1.390 . S
C4905 C4904 1.390 . S
C4905 C4906 1.394 . S
C4905 C4911 1.465 . S
C4906 C4901 1.399 . S
C4906 C4905 1.394 . S
C4906 C4907 1.516 . S
C4907 C4906 1.516 . S
C4907 C4908 1.502 . S
C4907 C4909 1.561 . S
C4907 C4910 1.526 . S
C4908 H4892 0.959 . S
C4908 H4893 0.959 . S
C4908 H4894 0.961 . S
C4908 C4907 1.502 . S
C4909 H4895 0.960 . S
C4909 H4896 0.961 . S
C4909 H4897 0.959 . S
C4909 C4907 1.561 . S
C4910 C4907 1.526 . S
C4910 C4911 1.396 . S
C4910 C4915 1.390 . S
C4911 C4905 1.465 . S
C4911 C4910 1.396 . S
C4911 C4912 1.399 . S
C4912 H4898 0.929 . S
C4912 C4911 1.399 . S
C4912 C4913 1.385 . S
C4913 H4899 0.931 . S
C4913 C4912 1.385 . S
C4913 C4914 1.389 . S
C4914 C4913 1.389 . S
C4914 C4915 1.387 . S
C4915 H4900 0.930 . S
C4915 C4910 1.390 . S
C4915 C4914 1.387 . S
H4916 C4928 0.930 . S
H4917 C4930 0.930 . S
H4918 C4931 0.930 . S
H4919 C4935 0.959 . S
H4920 C4935 0.959 . S
H4921 C4935 0.961 . S
H4922 C4936 0.960 . S
H4923 C4936 0.961 . S
H4924 C4936 0.959 . S
H4925 C4939 0.929 . S
H4926 C4940 0.931 . S
H4927 C4942 0.930 . S
C4928 H4916 0.930 . S
C4928 C4929 1.399 . S
C4928 C4933 1.399 . S
C4929 C4928 1.399 . S
C4929 C4930 1.376 . S
C4930 H4917 0.930 . S
C4930 C4929 1.376 . S
C4930 C4931 1.388 . S
C4931 H4918 0.930 . S
C4931 C4930 1.388 . S
C4931 C4932 1.390 . S
C4932 C4931 1.390 . S
C4932 C4933 1.394 . S
C4932 C4938 1.465 . S
C4933 C4928 1.399 . S
C4933 C4932 1.394 . S
C4933 C4934 1.516 . S
C4934 C4933 1.516 . S
C4934 C4935 1.502 . S
C4934 C4936 1.561 . S
C4934 C4937 1.526 . S
C4935 H4919 0.959 . S
C4935 H4920 0.959 . S
C4935 H4921 0.961 . S
C4935 C4934 1.502 . S
C4936 H4922 0.960 . S
C4936 H4923 0.961 . S
C4936 H4924 0.959 . S
C4936 C4934 1.561 . S
C4937 C4934 1.526 . S
C4937 C4938 1.396 . S
C4937 C4942 1.390 . S
C4938 C4932 1.465 . S
C4938 C4937 1.396 . S
C4938 C4939 1.399 . S
C4939 H4925 0.929 . S
C4939 C4938 1.399 . S
C4939 C4940 1.385 . S
C4940 H4926 0.931 . S
C4940 C4939 1.385 . S
C4940 C4941 1.389 . S
C4941 C4940 1.389 . S
C4941 C4942 1.387 . S
C4942 H4927 0.930 . S
C4942 C4937 1.390 . S
C4942 C4941 1.387 . S
H4943 C4955 0.930 . S
H4944 C4957 0.930 . S
H4945 C4958 0.930 . S
H4946 C4962 0.959 . S
H4947 C4962 0.959 . S
H4948 C4962 0.961 . S
H4949 C4963 0.960 . S
H4950 C4963 0.961 . S
H4951 C4963 0.959 . S
H4952 C4966 0.929 . S
H4953 C4967 0.931 . S
H4954 C4969 0.930 . S
C4955 H4943 0.930 . S
C4955 C4956 1.399 . S
C4955 C4960 1.399 . S
C4956 C4955 1.399 . S
C4956 C4957 1.376 . S
C4957 H4944 0.930 . S
C4957 C4956 1.376 . S
C4957 C4958 1.388 . S
C4958 H4945 0.930 . S
C4958 C4957 1.388 . S
C4958 C4959 1.390 . S
C4959 C4958 1.390 . S
C4959 C4960 1.394 . S
C4959 C4965 1.465 . S
C4960 C4955 1.399 . S
C4960 C4959 1.394 . S
C4960 C4961 1.516 . S
C4961 C4960 1.516 . S
C4961 C4962 1.502 . S
C4961 C4963 1.561 . S
C4961 C4964 1.526 . S
C4962 H4946 0.959 . S
C4962 H4947 0.959 . S
C4962 H4948 0.961 . S
C4962 C4961 1.502 . S
C4963 H4949 0.960 . S
C4963 H4950 0.961 . S
C4963 H4951 0.959 . S
C4963 C4961 1.561 . S
C4964 C4961 1.526 . S
C4964 C4965 1.396 . S
C4964 C4969 1.390 . S
C4965 C4959 1.465 . S
C4965 C4964 1.396 . S
C4965 C4966 1.399 . S
C4966 H4952 0.929 . S
C4966 C4965 1.399 . S
C4966 C4967 1.385 . S
C4967 H4953 0.931 . S
C4967 C4966 1.385 . S
C4967 C4968 1.389 . S
C4968 C4967 1.389 . S
C4968 C4969 1.387 . S
C4969 H4954 0.930 . S
C4969 C4964 1.390 . S
C4969 C4968 1.387 . S
H4970 C4982 0.930 . S
H4971 C4984 0.930 . S
H4972 C4985 0.930 . S
H4973 C4989 0.959 . S
H4974 C4989 0.959 . S
H4975 C4989 0.961 . S
H4976 C4990 0.960 . S
H4977 C4990 0.961 . S
H4978 C4990 0.959 . S
H4979 C4993 0.929 . S
H4980 C4994 0.931 . S
H4981 C4996 0.930 . S
C4982 H4970 0.930 . S
C4982 C4983 1.399 . S
C4982 C4987 1.399 . S
C4983 C4982 1.399 . S
C4983 C4984 1.376 . S
C4984 H4971 0.930 . S
C4984 C4983 1.376 . S
C4984 C4985 1.388 . S
C4985 H4972 0.930 . S
C4985 C4984 1.388 . S
C4985 C4986 1.390 . S
C4986 C4985 1.390 . S
C4986 C4987 1.394 . S
C4986 C4992 1.465 . S
C4987 C4982 1.399 . S
C4987 C4986 1.394 . S
C4987 C4988 1.516 . S
C4988 C4987 1.516 . S
C4988 C4989 1.502 . S
C4988 C4990 1.561 . S
C4988 C4991 1.526 . S
C4989 H4973 0.959 . S
C4989 H4974 0.959 . S
C4989 H4975 0.961 . S
C4989 C4988 1.502 . S
C4990 H4976 0.960 . S
C4990 H4977 0.961 . S
C4990 H4978 0.959 . S
C4990 C4988 1.561 . S
C4991 C4988 1.526 . S
C4991 C4992 1.396 . S
C4991 C4996 1.390 . S
C4992 C4986 1.465 . S
C4992 C4991 1.396 . S
C4992 C4993 1.399 . S
C4993 H4979 0.929 . S
C4993 C4992 1.399 . S
C4993 C4994 1.385 . S
C4994 H4980 0.931 . S
C4994 C4993 1.385 . S
C4994 C4995 1.389 . S
C4995 C4994 1.389 . S
C4995 C4996 1.387 . S
C4996 H4981 0.930 . S
C4996 C4991 1.390 . S
C4996 C4995 1.387 . S
H4997 C5009 0.930 . S
H4998 C5011 0.930 . S
H4999 C5012 0.930 . S
H5000 C5016 0.959 . S
H5001 C5016 0.959 . S
H5002 C5016 0.961 . S
H5003 C5017 0.960 . S
H5004 C5017 0.961 . S
H5005 C5017 0.959 . S
H5006 C5020 0.929 . S
H5007 C5021 0.931 . S
H5008 C5023 0.930 . S
C5009 H4997 0.930 . S
C5009 C5010 1.399 . S
C5009 C5014 1.399 . S
C5010 C5009 1.399 . S
C5010 C5011 1.376 . S
C5011 H4998 0.930 . S
C5011 C5010 1.376 . S
C5011 C5012 1.388 . S
C5012 H4999 0.930 . S
C5012 C5011 1.388 . S
C5012 C5013 1.390 . S
C5013 C5012 1.390 . S
C5013 C5014 1.394 . S
C5013 C5019 1.465 . S
C5014 C5009 1.399 . S
C5014 C5013 1.394 . S
C5014 C5015 1.516 . S
C5015 C5014 1.516 . S
C5015 C5016 1.502 . S
C5015 C5017 1.561 . S
C5015 C5018 1.526 . S
C5016 H5000 0.959 . S
C5016 H5001 0.959 . S
C5016 H5002 0.961 . S
C5016 C5015 1.502 . S
C5017 H5003 0.960 . S
C5017 H5004 0.961 . S
C5017 H5005 0.959 . S
C5017 C5015 1.561 . S
C5018 C5015 1.526 . S
C5018 C5019 1.396 . S
C5018 C5023 1.390 . S
C5019 C5013 1.465 . S
C5019 C5018 1.396 . S
C5019 C5020 1.399 . S
C5020 H5006 0.929 . S
C5020 C5019 1.399 . S
C5020 C5021 1.385 . S
C5021 H5007 0.931 . S
C5021 C5020 1.385 . S
C5021 C5022 1.389 . S
C5022 C5021 1.389 . S
C5022 C5023 1.387 . S
C5023 H5008 0.930 . S
C5023 C5018 1.390 . S
C5023 C5022 1.387 . S
C2457 C1325 1.536 . S
C2445 C21 1.546 . S
C2484 C1373 1.436 . S
C2472 C42 1.420 . S
C2499 C82 1.523 . S
C2511 C1397 1.522 . S
C2538 C1460 1.494 . S
C2526 C135 1.487 . S
C2553 C175 1.427 . S
C2565 C1454 1.429 . S
C2580 C221 1.536 . S
C2592 C1301 1.527 . S
C2607 C255 1.479 . S
C2619 C1349 1.473 . S
C2646 C1421 1.553 . S
C2634 C301 1.531 . S
C2673 C1493 1.517 . S
C2661 C15 1.508 . S
C2688 C55 1.439 . S
C2700 C1541 1.422 . S
C2715 C101 1.551 . S
C2727 C1604 1.540 . S
C2754 C1661 1.505 . S
C2742 C141 1.496 . S
C2769 C162 1.420 . S
C2781 C1685 1.465 . S
C2808 C1742 1.516 . S
C2796 C215 1.507 . S
C2823 C261 1.479 . S
C2835 C1790 1.494 . S
C2862 C1844 1.508 . S
C2850 C282 1.493 . S
C2877 C2 1.488 . S
C2889 C1637 1.531 . S
C2904 C181 1.403 . S
C2916 C1748 1.446 . S
C2943 C1796 1.538 . S
C2931 C202 1.529 . S
C2958 C242 1.501 . S
C2970 C1838 1.508 . S
C2997 C1709 1.512 . S
C2985 C295 1.503 . S
C3024 C1565 1.503 . S
C3012 C95 1.510 . S
C3039 C122 1.481 . S
C3051 C1598 1.479 . S
C3078 C1517 1.452 . S
C3066 C61 1.433 . S
C3105 C1892 1.545 . S
C3093 C341 1.507 . S
C3120 C362 1.440 . S
C3132 C1949 1.425 . S
C3147 C402 1.505 . S
C3159 C1973 1.518 . S
C3186 C2036 1.482 . S
C3174 C455 1.492 . S
C3201 C495 1.421 . S
C3213 C2030 1.413 . S
C3228 C541 1.541 . S
C3240 C1886 1.527 . S
C3255 C575 1.477 . S
C3267 C1925 1.480 . S
C3282 C621 1.532 . S
C3294 C1997 1.555 . S
C3321 C1694 1.497 . S
C3309 C335 1.510 . S
C3336 C375 1.434 . S
C3348 C2078 1.443 . S
C3375 C1781 1.541 . S
C3363 C421 1.535 . S
C3390 C461 1.488 . S
C3402 C2132 1.490 . S
C3417 C482 1.461 . S
C3429 C1502 1.448 . S
C3456 C2174 1.513 . S
C3444 C535 1.511 . S
C3471 C581 1.481 . S
C3483 C1613 1.505 . S
C3510 C2228 1.511 . S
C3498 C602 1.499 . S
C3525 C322 1.494 . S
C3537 C2126 1.527 . S
C3564 C2180 1.430 . S
C3552 C501 1.444 . S
C3579 C522 1.505 . S
C3591 C1589 1.545 . S
C3618 C2222 1.495 . S
C3606 C562 1.481 . S
C3633 C615 1.509 . S
C3645 C1508 1.495 . S
C3660 C415 1.516 . S
C3672 C2084 1.505 . S
C3687 C442 1.491 . S
C3699 C1805 1.503 . S
C3714 C381 1.431 . S
C3726 C1700 1.440 . S
C3741 C661 1.518 . S
C3753 C1982 1.549 . S
C3780 C2045 1.429 . S
C3768 C682 1.414 . S
C3795 C722 1.485 . S
C3807 C1901 1.524 . S
C3822 C775 1.487 . S
C3834 C1940 1.494 . S
C3849 C815 1.422 . S
C3861 C1934 1.430 . S
C3876 C861 1.542 . S
C3888 C1988 1.531 . S
C3915 C2021 1.483 . S
C3903 C895 1.477 . S
C3930 C941 1.546 . S
C3942 C1877 1.555 . S
C3969 C2261 1.512 . S
C3957 C655 1.509 . S
C3984 C695 1.437 . S
C3996 C1733 1.431 . S
C4023 C2324 1.541 . S
C4011 C741 1.531 . S
C4038 C781 1.494 . S
C4050 C1853 1.505 . S
C4065 C802 1.452 . S
C4077 C2366 1.441 . S
C4092 C855 1.510 . S
C4104 C1550 1.497 . S
C4131 C2429 1.485 . S
C4119 C901 1.504 . S
C4146 C922 1.499 . S
C4158 C1652 1.512 . S
C4185 C1829 1.519 . S
C4173 C642 1.528 . S
C4212 C1556 1.430 . S
C4200 C821 1.424 . S
C4227 C842 1.543 . S
C4239 C2405 1.531 . S
C4254 C882 1.499 . S
C4266 C1646 1.509 . S
C4293 C2372 1.501 . S
C4281 C935 1.508 . S
C4320 C1757 1.506 . S
C4308 C735 1.509 . S
C4347 C2318 1.502 . S
C4335 C762 1.484 . S
C4374 C2285 1.452 . S
C4362 C701 1.433 . S
C4389 C981 1.541 . S
C4401 C1406 1.531 . S
C4416 C1002 1.424 . S
C4428 C1469 1.440 . S
C4455 C1316 1.529 . S
C4443 C1042 1.488 . S
C4482 C1364 1.480 . S
C4470 C1095 1.491 . S
C4509 C1358 1.412 . S
C4497 C1135 1.421 . S
C4536 C1412 1.531 . S
C4524 C1181 1.542 . S
C4563 C1445 1.472 . S
C4551 C1215 1.481 . S
C4578 C1261 1.533 . S
C4590 C1310 1.545 . S
C4605 C975 1.508 . S
C4617 C2357 1.517 . S
C4644 C2165 1.434 . S
C4632 C1015 1.433 . S
C4671 C2420 1.551 . S
C4659 C1061 1.513 . S
C4698 C2237 1.487 . S
C4686 C1101 1.480 . S
C4713 C1122 1.446 . S
C4725 C2270 1.438 . S
C4752 C2069 1.506 . S
C4740 C1175 1.512 . S
C4779 C2333 1.507 . S
C4767 C1221 1.496 . S
C4794 C1242 1.522 . S
C4806 C2141 1.521 . S
C4833 C2213 1.529 . S
C4821 C962 1.502 . S
C4860 C2093 1.433 . S
C4848 C1141 1.395 . S
C4887 C2309 1.532 . S
C4875 C1162 1.525 . S
C4902 C1202 1.495 . S
C4914 C2117 1.496 . S
C4929 C1255 1.507 . S
C4941 C2276 1.498 . S
C4956 C1055 1.518 . S
C4968 C2189 1.513 . S
C4983 C1082 1.483 . S
C4995 C2414 1.501 . S
C5022 C2381 1.445 . S
C5010 C1021 1.457 . S
