# Generated by pormake.
# Topology ssb, (4,4)-cn, num edge types: 1
# Building blocks:
#     Node 0, Type 0, BuildingBlock: MUDLON_clean_linker_0, # of connection points: 4
#     Node 1, Type 0, BuildingBlock: MUDLON_clean_linker_0, # of connection points: 4
#     Node 2, Type 0, BuildingBlock: MUDLON_clean_linker_0, # of connection points: 4
#     Node 3, Type 0, BuildingBlock: MUDLON_clean_linker_0, # of connection points: 4
#     Node 4, Type 0, BuildingBlock: MUDLON_clean_linker_0, # of connection points: 4
#     Node 5, Type 0, BuildingBlock: MUDLON_clean_linker_0, # of connection points: 4
#     Node 6, Type 0, BuildingBlock: MUDLON_clean_linker_0, # of connection points: 4
#     Node 7, Type 0, BuildingBlock: MUDLON_clean_linker_0, # of connection points: 4
#     Node 8, Type 1, BuildingBlock: NAWXER_clean_sbu_0, # of connection points: 4
#     Node 9, Type 1, BuildingBlock: NAWXER_clean_sbu_0, # of connection points: 4
#     Node 10, Type 1, BuildingBlock: NAWXER_clean_sbu_0, # of connection points: 4
#     Node 11, Type 1, BuildingBlock: NAWXER_clean_sbu_0, # of connection points: 4
#     Node 12, Type 1, BuildingBlock: NAWXER_clean_sbu_0, # of connection points: 4
#     Node 13, Type 1, BuildingBlock: NAWXER_clean_sbu_0, # of connection points: 4
#     Node 14, Type 1, BuildingBlock: NAWXER_clean_sbu_0, # of connection points: 4
#     Node 15, Type 1, BuildingBlock: NAWXER_clean_sbu_0, # of connection points: 4
#     Edge 16, Type (0, 1), BuildingBlock: CIFDUS_clean_linker_0, # of connection points: 2
#     Edge 17, Type (0, 1), BuildingBlock: CIFDUS_clean_linker_0, # of connection points: 2
#     Edge 18, Type (0, 1), BuildingBlock: CIFDUS_clean_linker_0, # of connection points: 2
#     Edge 19, Type (0, 1), BuildingBlock: CIFDUS_clean_linker_0, # of connection points: 2
#     Edge 20, Type (0, 1), BuildingBlock: CIFDUS_clean_linker_0, # of connection points: 2
#     Edge 21, Type (0, 1), BuildingBlock: CIFDUS_clean_linker_0, # of connection points: 2
#     Edge 22, Type (0, 1), BuildingBlock: CIFDUS_clean_linker_0, # of connection points: 2
#     Edge 23, Type (0, 1), BuildingBlock: CIFDUS_clean_linker_0, # of connection points: 2
#     Edge 24, Type (0, 1), BuildingBlock: CIFDUS_clean_linker_0, # of connection points: 2
#     Edge 25, Type (0, 1), BuildingBlock: CIFDUS_clean_linker_0, # of connection points: 2
#     Edge 26, Type (0, 1), BuildingBlock: CIFDUS_clean_linker_0, # of connection points: 2
#     Edge 27, Type (0, 1), BuildingBlock: CIFDUS_clean_linker_0, # of connection points: 2
#     Edge 28, Type (0, 1), BuildingBlock: CIFDUS_clean_linker_0, # of connection points: 2
#     Edge 29, Type (0, 1), BuildingBlock: CIFDUS_clean_linker_0, # of connection points: 2
#     Edge 30, Type (0, 1), BuildingBlock: CIFDUS_clean_linker_0, # of connection points: 2
#     Edge 31, Type (0, 1), BuildingBlock: CIFDUS_clean_linker_0, # of connection points: 2
#     Edge 32, Type (0, 1), BuildingBlock: CIFDUS_clean_linker_0, # of connection points: 2
#     Edge 33, Type (0, 1), BuildingBlock: CIFDUS_clean_linker_0, # of connection points: 2
#     Edge 34, Type (0, 1), BuildingBlock: CIFDUS_clean_linker_0, # of connection points: 2
#     Edge 35, Type (0, 1), BuildingBlock: CIFDUS_clean_linker_0, # of connection points: 2
#     Edge 36, Type (0, 1), BuildingBlock: CIFDUS_clean_linker_0, # of connection points: 2
#     Edge 37, Type (0, 1), BuildingBlock: CIFDUS_clean_linker_0, # of connection points: 2
#     Edge 38, Type (0, 1), BuildingBlock: CIFDUS_clean_linker_0, # of connection points: 2
#     Edge 39, Type (0, 1), BuildingBlock: CIFDUS_clean_linker_0, # of connection points: 2
#     Edge 40, Type (0, 1), BuildingBlock: CIFDUS_clean_linker_0, # of connection points: 2
#     Edge 41, Type (0, 1), BuildingBlock: CIFDUS_clean_linker_0, # of connection points: 2
#     Edge 42, Type (0, 1), BuildingBlock: CIFDUS_clean_linker_0, # of connection points: 2
#     Edge 43, Type (0, 1), BuildingBlock: CIFDUS_clean_linker_0, # of connection points: 2
#     Edge 44, Type (0, 1), BuildingBlock: CIFDUS_clean_linker_0, # of connection points: 2
#     Edge 45, Type (0, 1), BuildingBlock: CIFDUS_clean_linker_0, # of connection points: 2
#     Edge 46, Type (0, 1), BuildingBlock: CIFDUS_clean_linker_0, # of connection points: 2
#     Edge 47, Type (0, 1), BuildingBlock: CIFDUS_clean_linker_0, # of connection points: 2
# Relax obj value: 0.004
# Max RMSD: 0.054
# Mean RMSD: 0.028
data_MOF--net-ssb--node1-NAWXER_clean_sbu_0--node2-MUDLON_clean_linker_0--edge1-CIFDUS_clean_linker_0
_symmetry_space_group_name_H-M    P1
_symmetry_Int_Tables_number       1
_symmetry_cell_setting            triclinic
loop_
_symmetry_equiv_pos_as_xyz
'x, y, z'
_cell_length_a     54.922889
_cell_length_b     54.908944
_cell_length_c     47.913789
_cell_angle_alpha  89.936474
_cell_angle_beta   89.98026
_cell_angle_gamma 89.934845
loop_
_atom_site_label
_atom_site_type_symbol
_atom_site_fract_x
_atom_site_fract_y
_atom_site_fract_z
_atom_type_partial_charge
H0 H 0.27579 0.31492 0.14361 0.0
N1 N 0.30455 0.30837 0.18753 0.0
H2 H 0.26737 0.35342 0.11949 0.0
H3 H 0.31574 0.3535 0.20696 0.0
H4 H 0.30837 0.3921 0.18217 0.0
H5 H 0.34786 0.32471 0.20772 0.0
H6 H 0.38739 0.32018 0.18468 0.0
H7 H 0.31522 0.277 0.14714 0.0
H8 H 0.35455 0.27236 0.12384 0.0
H9 H 0.25748 0.29786 0.19206 0.0
H10 H 0.32487 0.29634 0.2381 0.0
H11 H 0.23616 0.28068 0.23182 0.0
H12 H 0.30403 0.27731 0.27751 0.0
H13 H 0.1651 0.22992 0.34552 0.0
H14 H 0.13488 0.25152 0.37367 0.0
H15 H 0.1921 0.2955 0.40952 0.0
H16 H 0.22213 0.27336 0.38175 0.0
H17 H 0.23606 0.23313 0.39826 0.0
H18 H 0.24257 0.1967 0.42704 0.0
H19 H 0.21611 0.15163 0.35992 0.0
H20 H 0.20855 0.18826 0.33165 0.0
H21 H 0.2065 0.22788 0.29364 0.0
H22 H 0.23014 0.24487 0.25526 0.0
H23 H 0.27686 0.28129 0.31477 0.0
N24 N 0.21317 0.23442 0.3478 0.0
H25 H 0.25408 0.2623 0.35295 0.0
C26 C 0.29646 0.33144 0.17683 0.0
C27 C 0.28228 0.33181 0.15256 0.0
C28 C 0.27756 0.35373 0.13884 0.0
C29 C 0.28739 0.37559 0.14895 0.0
C30 C 0.30075 0.3754 0.17396 0.0
C31 C 0.30496 0.35345 0.18806 0.0
C32 C 0.32863 0.30107 0.17913 0.0
C33 C 0.34935 0.3127 0.18992 0.0
C34 C 0.37189 0.3103 0.17655 0.0
C35 C 0.37409 0.29614 0.15222 0.0
C36 C 0.3536 0.28323 0.14266 0.0
C37 C 0.33111 0.28574 0.15598 0.0
C38 C 0.29276 0.29841 0.21189 0.0
C39 C 0.26773 0.29364 0.21075 0.0
C40 C 0.25561 0.28345 0.23351 0.0
C41 C 0.26833 0.27707 0.25797 0.0
C42 C 0.29349 0.2821 0.25923 0.0
C43 C 0.30555 0.29286 0.23651 0.0
C44 C 0.19577 0.25 0.36147 0.0
C45 C 0.17097 0.24458 0.35903 0.0
C46 C 0.15376 0.25705 0.37506 0.0
C47 C 0.16105 0.27527 0.39394 0.0
C48 C 0.18589 0.28142 0.39541 0.0
C49 C 0.2031 0.26888 0.37935 0.0
C50 C 0.2215 0.21335 0.36293 0.0
C51 C 0.23189 0.21544 0.38961 0.0
C52 C 0.23559 0.19466 0.40603 0.0
C53 C 0.22966 0.17149 0.39567 0.0
C54 C 0.22086 0.16932 0.36829 0.0
C55 C 0.21662 0.19014 0.35216 0.0
C56 C 0.22819 0.24428 0.32598 0.0
C57 C 0.22196 0.23942 0.29827 0.0
C58 C 0.2354 0.24943 0.27638 0.0
C59 C 0.2552 0.26508 0.28168 0.0
C60 C 0.26182 0.26937 0.3097 0.0
C61 C 0.24858 0.25883 0.33165 0.0
H62 H 0.6955 0.31428 0.15203 0.0
N63 N 0.73122 0.27895 0.14862 0.0
H64 H 0.6978 0.3555 0.1345 0.0
H65 H 0.76997 0.30153 0.12747 0.0
H66 H 0.7733 0.3438 0.11222 0.0
H67 H 0.71791 0.25943 0.10019 0.0
H68 H 0.67741 0.24509 0.08684 0.0
H69 H 0.69224 0.27301 0.18376 0.0
H70 H 0.65199 0.2579 0.17094 0.0
H71 H 0.73487 0.30796 0.19544 0.0
H72 H 0.75061 0.23638 0.16313 0.0
H73 H 0.75381 0.2972 0.23935 0.0
H74 H 0.76745 0.22446 0.20814 0.0
H75 H 0.80835 0.25433 0.38332 0.0
H76 H 0.84756 0.26198 0.40592 0.0
H77 H 0.88479 0.23749 0.33169 0.0
H78 H 0.84569 0.23004 0.30924 0.0
H79 H 0.83165 0.19246 0.33978 0.0
H80 H 0.82306 0.15539 0.3646 0.0
H81 H 0.74729 0.17671 0.37135 0.0
H82 H 0.7571 0.21558 0.3496 0.0
H83 H 0.76761 0.26561 0.32482 0.0
H84 H 0.75003 0.2769 0.28002 0.0
H85 H 0.79869 0.22615 0.23892 0.0
N86 N 0.80095 0.23198 0.33505 0.0
H87 H 0.81405 0.21331 0.28435 0.0
C88 C 0.73246 0.30433 0.1403 0.0
C89 C 0.71249 0.32031 0.143 0.0
C90 C 0.71397 0.34428 0.13328 0.0
C91 C 0.73568 0.35328 0.1215 0.0
C92 C 0.75597 0.33754 0.1202 0.0
C93 C 0.75425 0.31335 0.1292 0.0
C94 C 0.70815 0.26733 0.14282 0.0
C95 C 0.70367 0.25867 0.11582 0.0
C96 C 0.68056 0.25031 0.10832 0.0
C97 C 0.66137 0.25042 0.12779 0.0
C98 C 0.66626 0.25784 0.15534 0.0
C99 C 0.68935 0.26632 0.16278 0.0
C100 C 0.74168 0.27305 0.17556 0.0
C101 C 0.74229 0.28981 0.19776 0.0
C102 C 0.75289 0.28342 0.22327 0.0
C103 C 0.76233 0.25983 0.22773 0.0
C104 C 0.7611 0.24299 0.2056 0.0
C105 C 0.75119 0.24965 0.17983 0.0
C106 C 0.82392 0.24158 0.34469 0.0
C107 C 0.82498 0.25143 0.37162 0.0
C108 C 0.84738 0.25572 0.38449 0.0
C109 C 0.86922 0.25005 0.37065 0.0
C110 C 0.86822 0.24177 0.34293 0.0
C111 C 0.84578 0.23774 0.32996 0.0
C112 C 0.79518 0.20746 0.34379 0.0
C113 C 0.81319 0.18939 0.3467 0.0
C114 C 0.80805 0.16767 0.36069 0.0
C115 C 0.78448 0.16289 0.37098 0.0
C116 C 0.76594 0.17996 0.36513 0.0
C117 C 0.77136 0.20213 0.35219 0.0
C118 C 0.79249 0.23915 0.30784 0.0
C119 C 0.77446 0.25708 0.30602 0.0
C120 C 0.7646 0.26363 0.28022 0.0
C121 C 0.773 0.25276 0.25537 0.0
C122 C 0.79137 0.23482 0.25737 0.0
C123 C 0.80068 0.22777 0.28336 0.0
H124 H 0.79082 0.75318 0.41359 0.0
N125 N 0.77744 0.78603 0.37581 0.0
H126 H 0.83216 0.74374 0.42946 0.0
H127 H 0.81978 0.80406 0.35369 0.0
H128 H 0.86101 0.79419 0.36857 0.0
H129 H 0.78353 0.82644 0.343 0.0
H130 H 0.77722 0.86878 0.35752 0.0
H131 H 0.7568 0.80152 0.42256 0.0
H132 H 0.75021 0.84373 0.43721 0.0
H133 H 0.73616 0.76123 0.37594 0.0
H134 H 0.79381 0.78525 0.32155 0.0
H135 H 0.71762 0.73893 0.33735 0.0
H136 H 0.77621 0.76204 0.28316 0.0
H137 H 0.68545 0.64514 0.21012 0.0
H138 H 0.7056 0.6123 0.18522 0.0
H139 H 0.77133 0.65558 0.18049 0.0
H140 H 0.75011 0.68908 0.20366 0.0
H141 H 0.71073 0.70421 0.16742 0.0
H142 H 0.67996 0.71961 0.13472 0.0
H143 H 0.62618 0.71824 0.20033 0.0
H144 H 0.65675 0.70177 0.23273 0.0
H145 H 0.70617 0.67866 0.27494 0.0
H146 H 0.72474 0.70314 0.31168 0.0
H147 H 0.74362 0.75807 0.25063 0.0
N148 N 0.70244 0.68915 0.22114 0.0
H149 H 0.72592 0.73269 0.21382 0.0
C150 C 0.80213 0.77927 0.38255 0.0
C151 C 0.80614 0.76194 0.40352 0.0
C152 C 0.82979 0.75648 0.41241 0.0
C153 C 0.84997 0.76829 0.40039 0.0
C154 C 0.8459 0.78503 0.3786 0.0
C155 C 0.82225 0.79056 0.36986 0.0
C156 C 0.7708 0.81085 0.3819 0.0
C157 C 0.776 0.83006 0.36344 0.0
C158 C 0.7724 0.85425 0.37179 0.0
C159 C 0.76331 0.85962 0.39858 0.0
C160 C 0.75698 0.84025 0.41636 0.0
C161 C 0.7608 0.81615 0.40809 0.0
C162 C 0.76646 0.77461 0.35186 0.0
C163 C 0.7448 0.76164 0.35563 0.0
C164 C 0.73441 0.74871 0.33357 0.0
C165 C 0.74563 0.74824 0.30714 0.0
C166 C 0.76698 0.76201 0.30312 0.0
C167 C 0.77723 0.77519 0.32522 0.0
C168 C 0.71623 0.6694 0.20905 0.0
C169 C 0.70429 0.64737 0.20394 0.0
C170 C 0.71603 0.62851 0.18986 0.0
C171 C 0.74036 0.63096 0.18091 0.0
C172 C 0.75256 0.65298 0.18668 0.0
C173 C 0.74053 0.67212 0.2003 0.0
C174 C 0.68585 0.70143 0.20246 0.0
C175 C 0.69237 0.70729 0.17484 0.0
C176 C 0.67484 0.71607 0.15618 0.0
C177 C 0.65077 0.71988 0.16508 0.0
C178 C 0.64465 0.71543 0.19306 0.0
C179 C 0.66202 0.70609 0.21151 0.0
C180 C 0.71442 0.70393 0.24184 0.0
C181 C 0.71445 0.69593 0.26956 0.0
C182 C 0.72487 0.71012 0.29054 0.0
C183 C 0.73537 0.73287 0.2843 0.0
C184 C 0.73582 0.74064 0.25625 0.0
C185 C 0.72555 0.72624 0.23517 0.0
H186 H 0.31466 0.7487 0.1417 0.0
N187 N 0.30915 0.72355 0.19063 0.0
H188 H 0.35325 0.75939 0.11935 0.0
H189 H 0.35357 0.71855 0.21177 0.0
H190 H 0.39239 0.72888 0.18928 0.0
H191 H 0.3165 0.67635 0.19778 0.0
H192 H 0.30162 0.64301 0.16865 0.0
H193 H 0.27604 0.72788 0.14833 0.0
H194 H 0.26148 0.69461 0.11833 0.0
H195 H 0.29662 0.77114 0.17908 0.0
H196 H 0.28608 0.7123 0.23746 0.0
H197 H 0.27299 0.79806 0.20875 0.0
H198 H 0.26076 0.73861 0.26643 0.0
H199 H 0.20073 0.88347 0.31458 0.0
H200 H 0.22027 0.91675 0.33938 0.0
H201 H 0.27944 0.86861 0.36231 0.0
H202 H 0.25881 0.83518 0.33925 0.0
H203 H 0.21919 0.81491 0.36371 0.0
H204 H 0.18618 0.80268 0.39508 0.0
H205 H 0.13342 0.82864 0.33528 0.0
H206 H 0.1666 0.83999 0.30342 0.0
H207 H 0.21449 0.83758 0.25754 0.0
H208 H 0.23521 0.80926 0.22613 0.0
H209 H 0.26352 0.77033 0.29771 0.0
N210 N 0.21411 0.83723 0.3129 0.0
H211 H 0.24144 0.7975 0.32844 0.0
C212 C 0.33128 0.73298 0.1786 0.0
C213 C 0.33148 0.74487 0.15258 0.0
C214 C 0.35356 0.75101 0.13982 0.0
C215 C 0.37579 0.74494 0.15259 0.0
C216 C 0.37551 0.73371 0.17896 0.0
C217 C 0.35343 0.7279 0.19186 0.0
C218 C 0.2976 0.70445 0.175 0.0
C219 C 0.30417 0.68035 0.18074 0.0
C220 C 0.29578 0.66141 0.16397 0.0
C221 C 0.28069 0.66623 0.14089 0.0
C222 C 0.27305 0.69033 0.13597 0.0
C223 C 0.28147 0.70935 0.15292 0.0
C224 C 0.29358 0.73967 0.20633 0.0
C225 C 0.28904 0.76384 0.19813 0.0
C226 C 0.27517 0.77926 0.21511 0.0
C227 C 0.26503 0.77072 0.24032 0.0
C228 C 0.26877 0.74617 0.24769 0.0
C229 C 0.28303 0.73097 0.23101 0.0
C230 C 0.22819 0.85684 0.32474 0.0
C231 C 0.21808 0.88024 0.32469 0.0
C232 C 0.22948 0.89932 0.33875 0.0
C233 C 0.25163 0.89557 0.35294 0.0
C234 C 0.26224 0.87221 0.35209 0.0
C235 C 0.25051 0.85298 0.33848 0.0
C236 C 0.19528 0.82788 0.33088 0.0
C237 C 0.20057 0.81724 0.3569 0.0
C238 C 0.1817 0.81045 0.37492 0.0
C239 C 0.15731 0.81474 0.36753 0.0
C240 C 0.15208 0.8252 0.34146 0.0
C241 C 0.17092 0.83153 0.32324 0.0
C242 C 0.22654 0.81993 0.29529 0.0
C243 C 0.22507 0.82278 0.2663 0.0
C244 C 0.23713 0.80666 0.24842 0.0
C245 C 0.25128 0.78743 0.25922 0.0
C246 C 0.25253 0.78456 0.28842 0.0
C247 C 0.24007 0.8004 0.30621 0.0
H248 H 0.17971 0.84207 0.69551 0.0
N249 N 0.20957 0.80411 0.69714 0.0
H250 H 0.18428 0.87962 0.66904 0.0
H251 H 0.25071 0.81847 0.66821 0.0
H252 H 0.25638 0.85667 0.64368 0.0
H253 H 0.20941 0.78979 0.64255 0.0
H254 H 0.17415 0.77384 0.61722 0.0
H255 H 0.16905 0.7865 0.71954 0.0
H256 H 0.1339 0.76993 0.69458 0.0
H257 H 0.21933 0.80366 0.75129 0.0
H258 H 0.24329 0.77419 0.67272 0.0
H259 H 0.25054 0.78015 0.77565 0.0
H260 H 0.27557 0.75161 0.69651 0.0
H261 H 0.33395 0.72686 0.84874 0.0
H262 H 0.36793 0.73737 0.87927 0.0
H263 H 0.4184 0.72098 0.81276 0.0
H264 H 0.38413 0.71069 0.78213 0.0
H265 H 0.35987 0.66402 0.80518 0.0
H266 H 0.34867 0.6322 0.83773 0.0
H267 H 0.28046 0.66942 0.85381 0.0
H268 H 0.29341 0.70255 0.82375 0.0
H269 H 0.32138 0.75286 0.81036 0.0
H270 H 0.2919 0.77682 0.7849 0.0
H271 H 0.28326 0.71823 0.72552 0.0
N272 N 0.33764 0.70635 0.79695 0.0
H273 H 0.31411 0.69468 0.75044 0.0
C274 C 0.21475 0.82734 0.68413 0.0
C275 C 0.19657 0.84529 0.68438 0.0
C276 C 0.19934 0.8669 0.66929 0.0
C277 C 0.22072 0.87145 0.65393 0.0
C278 C 0.23937 0.85376 0.65457 0.0
C279 C 0.23629 0.83183 0.66909 0.0
C280 C 0.19159 0.78965 0.68289 0.0
C281 C 0.19323 0.78482 0.65412 0.0
C282 C 0.17308 0.77559 0.6397 0.0
C283 C 0.1511 0.77099 0.65385 0.0
C284 C 0.15043 0.77369 0.68303 0.0
C285 C 0.17048 0.78301 0.69735 0.0
C286 C 0.22914 0.79088 0.7103 0.0
C287 C 0.23167 0.79237 0.7393 0.0
C288 C 0.24968 0.77901 0.75312 0.0
C289 C 0.26585 0.76398 0.73814 0.0
C290 C 0.26332 0.76266 0.70889 0.0
C291 C 0.24501 0.77578 0.69514 0.0
C292 C 0.35652 0.71824 0.81294 0.0
C293 C 0.35225 0.72646 0.84036 0.0
C294 C 0.37171 0.73237 0.85784 0.0
C295 C 0.39582 0.72981 0.84845 0.0
C296 C 0.4 0.72294 0.8206 0.0
C297 C 0.38049 0.71732 0.803 0.0
C298 C 0.32763 0.6857 0.81184 0.0
C299 C 0.34236 0.66509 0.81551 0.0
C300 C 0.33572 0.64671 0.83415 0.0
C301 C 0.31358 0.64797 0.84899 0.0
C302 C 0.29801 0.66793 0.84371 0.0
C303 C 0.30517 0.68683 0.8259 0.0
C304 C 0.3203 0.72169 0.78231 0.0
C305 C 0.31348 0.745 0.79183 0.0
C306 C 0.29624 0.75879 0.77723 0.0
C307 C 0.28495 0.74956 0.75308 0.0
C308 C 0.29178 0.72625 0.74368 0.0
C309 C 0.30931 0.71263 0.75803 0.0
H310 H 0.29968 0.27993 0.89041 0.0
N311 N 0.29787 0.30652 0.84187 0.0
H312 H 0.33585 0.26203 0.91158 0.0
H313 H 0.34283 0.30611 0.82152 0.0
H314 H 0.37922 0.28765 0.84226 0.0
H315 H 0.30525 0.35407 0.83784 0.0
H316 H 0.28801 0.38632 0.86717 0.0
H317 H 0.26302 0.30049 0.88222 0.0
H318 H 0.24626 0.33257 0.91231 0.0
H319 H 0.27511 0.2632 0.85293 0.0
H320 H 0.28698 0.31755 0.78951 0.0
H321 H 0.2533 0.23793 0.81939 0.0
H322 H 0.26407 0.29308 0.75604 0.0
H323 H 0.22441 0.1545 0.71253 0.0
H324 H 0.24519 0.12755 0.67932 0.0
H325 H 0.25337 0.18794 0.62225 0.0
H326 H 0.23223 0.21437 0.65494 0.0
H327 H 0.20582 0.24479 0.67821 0.0
H328 H 0.17108 0.25818 0.65045 0.0
H329 H 0.13322 0.19153 0.67082 0.0
H330 H 0.16845 0.17801 0.69811 0.0
H331 H 0.19885 0.20617 0.75756 0.0
H332 H 0.21766 0.23304 0.7921 0.0
H333 H 0.26903 0.2574 0.72964 0.0
N334 N 0.21089 0.20053 0.70429 0.0
H335 H 0.24951 0.23168 0.69531 0.0
C336 C 0.31861 0.29468 0.85443 0.0
C337 C 0.31688 0.28171 0.87967 0.0
C338 C 0.33762 0.27122 0.89167 0.0
C339 C 0.3605 0.27344 0.87868 0.0
C340 C 0.36198 0.28587 0.85304 0.0
C341 C 0.34124 0.29636 0.8411 0.0
C342 C 0.28578 0.32495 0.85815 0.0
C343 C 0.29209 0.34935 0.85379 0.0
C344 C 0.28211 0.36771 0.87041 0.0
C345 C 0.26581 0.36193 0.89202 0.0
C346 C 0.25889 0.33749 0.89588 0.0
C347 C 0.26857 0.31915 0.87884 0.0
C348 C 0.28302 0.29212 0.82349 0.0
C349 C 0.2728 0.26983 0.83185 0.0
C350 C 0.26011 0.25547 0.81262 0.0
C351 C 0.2571 0.26328 0.78481 0.0
C352 C 0.26652 0.28613 0.77701 0.0
C353 C 0.27942 0.30028 0.79613 0.0
C354 C 0.22653 0.18635 0.68629 0.0
C355 C 0.23117 0.16196 0.69309 0.0
C356 C 0.24317 0.14666 0.67418 0.0
C357 C 0.25072 0.15559 0.64806 0.0
C358 C 0.24748 0.18045 0.64206 0.0
C359 C 0.23543 0.19565 0.66086 0.0
C360 C 0.1897 0.21033 0.69038 0.0
C361 C 0.18997 0.23317 0.67704 0.0
C362 C 0.17 0.24084 0.66118 0.0
C363 C 0.14936 0.22588 0.65828 0.0
C364 C 0.14893 0.20335 0.67226 0.0
C365 C 0.16891 0.19569 0.68808 0.0
C366 C 0.22278 0.21655 0.72391 0.0
C367 C 0.21414 0.2174 0.75142 0.0
C368 C 0.22503 0.23266 0.77115 0.0
C369 C 0.24496 0.24741 0.76377 0.0
C370 C 0.2535 0.24663 0.73607 0.0
C371 C 0.24244 0.23157 0.71632 0.0
H372 H 0.80122 0.28075 0.63476 0.0
N373 N 0.78645 0.24505 0.66839 0.0
H374 H 0.84248 0.28781 0.61686 0.0
H375 H 0.82807 0.22097 0.68445 0.0
H376 H 0.86904 0.22845 0.66775 0.0
H377 H 0.79067 0.20202 0.69748 0.0
H378 H 0.78333 0.16128 0.6788 0.0
H379 H 0.76437 0.23375 0.62088 0.0
H380 H 0.7565 0.19294 0.60224 0.0
H381 H 0.74776 0.27323 0.67655 0.0
H382 H 0.80658 0.23804 0.72046 0.0
H383 H 0.73379 0.2915 0.72038 0.0
H384 H 0.7935 0.25675 0.76372 0.0
H385 H 0.72009 0.36823 0.84191 0.0
H386 H 0.73757 0.40619 0.85726 0.0
H387 H 0.80377 0.36835 0.88055 0.0
H388 H 0.78479 0.32978 0.86743 0.0
H389 H 0.72982 0.30414 0.89979 0.0
H390 H 0.69008 0.30073 0.92286 0.0
H391 H 0.6554 0.33175 0.85021 0.0
H392 H 0.69517 0.33443 0.82691 0.0
H393 H 0.73447 0.34215 0.79749 0.0
H394 H 0.74477 0.32219 0.75338 0.0
H395 H 0.76301 0.25639 0.79849 0.0
N396 N 0.73938 0.32259 0.84981 0.0
H397 H 0.75364 0.27694 0.84243 0.0
C398 C 0.81136 0.25038 0.66088 0.0
C399 C 0.81607 0.26952 0.64226 0.0
C400 C 0.83967 0.2736 0.63221 0.0
C401 C 0.85906 0.25856 0.6407 0.0
C402 C 0.85447 0.24013 0.66041 0.0
C403 C 0.83092 0.23596 0.67023 0.0
C404 C 0.77827 0.22106 0.6604 0.0
C405 C 0.78289 0.20032 0.67686 0.0
C406 C 0.77871 0.17698 0.66615 0.0
C407 C 0.76949 0.17392 0.63898 0.0
C408 C 0.76343 0.1947 0.6233 0.0
C409 C 0.76793 0.218 0.63389 0.0
C410 C 0.77822 0.25434 0.69497 0.0
C411 C 0.75762 0.26942 0.69563 0.0
C412 C 0.74981 0.28 0.72066 0.0
C413 C 0.76254 0.27573 0.74569 0.0
C414 C 0.78298 0.26023 0.74502 0.0
C415 C 0.79067 0.24957 0.72004 0.0
C416 C 0.75084 0.34591 0.8544 0.0
C417 C 0.7383 0.36795 0.8504 0.0
C418 C 0.74866 0.38995 0.85884 0.0
C419 C 0.77217 0.39065 0.87066 0.0
C420 C 0.78538 0.36867 0.87247 0.0
C421 C 0.77469 0.34657 0.86469 0.0
C422 C 0.71548 0.31955 0.86179 0.0
C423 C 0.7136 0.30994 0.88877 0.0
C424 C 0.69096 0.30806 0.90188 0.0
C425 C 0.66974 0.31613 0.88834 0.0
C426 C 0.67153 0.32564 0.86117 0.0
C427 C 0.6942 0.32707 0.84784 0.0
C428 C 0.74367 0.31105 0.82326 0.0
C429 C 0.74068 0.32345 0.79782 0.0
C430 C 0.74641 0.3119 0.77258 0.0
C431 C 0.75497 0.28768 0.77229 0.0
C432 C 0.75704 0.27518 0.79784 0.0
C433 C 0.75152 0.2868 0.82298 0.0
H434 H 0.80179 0.82422 0.66753 0.0
N435 N 0.82405 0.82949 0.71814 0.0
H436 H 0.78832 0.85713 0.63666 0.0
H437 H 0.82223 0.87685 0.72992 0.0
H438 H 0.80947 0.91002 0.69859 0.0
H439 H 0.86711 0.85042 0.71207 0.0
H440 H 0.89875 0.83967 0.67928 0.0
H441 H 0.82698 0.78591 0.69 0.0
H442 H 0.85997 0.77318 0.65941 0.0
H443 H 0.77497 0.81891 0.70907 0.0
H444 H 0.8367 0.80177 0.76152 0.0
H445 H 0.74967 0.79253 0.7365 0.0
H446 H 0.81113 0.77409 0.78872 0.0
H447 H 0.66361 0.71625 0.82519 0.0
H448 H 0.62944 0.73588 0.8484 0.0
H449 H 0.67893 0.78749 0.88619 0.0
H450 H 0.71306 0.76657 0.86429 0.0
H451 H 0.73096 0.72539 0.88317 0.0
H452 H 0.73797 0.68941 0.91235 0.0
H453 H 0.71191 0.6434 0.84571 0.0
H454 H 0.70519 0.67954 0.81658 0.0
H455 H 0.71156 0.72939 0.77611 0.0
H456 H 0.74049 0.75201 0.74731 0.0
H457 H 0.77908 0.774 0.82181 0.0
N458 N 0.7105 0.72577 0.83118 0.0
H459 H 0.75086 0.75018 0.85008 0.0
C460 C 0.81255 0.84812 0.70135 0.0
C461 C 0.80286 0.84284 0.67481 0.0
C462 C 0.79525 0.86162 0.65718 0.0
C463 C 0.79788 0.886 0.66537 0.0
C464 C 0.80725 0.89131 0.69193 0.0
C465 C 0.81433 0.87247 0.70985 0.0
C466 C 0.84469 0.8191 0.70365 0.0
C467 C 0.86571 0.83331 0.70095 0.0
C468 C 0.88398 0.82691 0.68213 0.0
C469 C 0.88223 0.80547 0.66608 0.0
C470 C 0.86188 0.79022 0.67049 0.0
C471 C 0.84308 0.7972 0.68856 0.0
C472 C 0.80829 0.81252 0.73287 0.0
C473 C 0.78351 0.80925 0.72606 0.0
C474 C 0.76877 0.79382 0.7419 0.0
C475 C 0.77825 0.78095 0.76486 0.0
C476 C 0.80304 0.78389 0.77143 0.0
C477 C 0.81777 0.79957 0.75573 0.0
C478 C 0.69083 0.73994 0.84272 0.0
C479 C 0.66697 0.732 0.83822 0.0
C480 C 0.64743 0.74346 0.85139 0.0
C481 C 0.65123 0.7635 0.8692 0.0
C482 C 0.67522 0.77196 0.87298 0.0
C483 C 0.69485 0.76014 0.86013 0.0
C484 C 0.71784 0.70503 0.84753 0.0
C485 C 0.72739 0.70755 0.87458 0.0
C486 C 0.73126 0.68696 0.89128 0.0
C487 C 0.72533 0.6636 0.88136 0.0
C488 C 0.71639 0.66117 0.85403 0.0
C489 C 0.71277 0.68171 0.83729 0.0
C490 C 0.7288 0.73833 0.81516 0.0
C491 C 0.72644 0.73893 0.78609 0.0
C492 C 0.7429 0.75206 0.76974 0.0
C493 C 0.76202 0.76522 0.78218 0.0
C494 C 0.76476 0.76399 0.8114 0.0
C495 C 0.74842 0.75054 0.82771 0.0
C496 C 0.98063 0.2871 0.55543 0.0
C497 C 0.04495 0.29716 0.48568 0.0
O498 O 0.99184 0.30674 0.54964 0.0
Zn499 Zn 0.01342 0.293 0.52145 0.0
O500 O 0.98657 0.26735 0.54289 0.0
Zn501 Zn 0.01146 0.25512 0.51156 0.0
O502 O 0.03175 0.23212 0.53138 0.0
O503 O 0.03708 0.26992 0.54559 0.0
O504 O 0.03711 0.2753 0.48765 0.0
O505 O 0.03647 0.3137 0.50148 0.0
O506 O 0.9875 0.28332 0.48958 0.0
O507 O 0.98956 0.24357 0.48296 0.0
C508 C 0.04241 0.24721 0.54732 0.0
C509 C 0.98014 0.26409 0.47694 0.0
C510 C 0.75272 0.05415 0.54653 0.0
C511 C 0.75042 0.98388 0.48334 0.0
O512 O 0.77391 0.04717 0.53853 0.0
Zn513 Zn 0.78946 0.01957 0.51204 0.0
O514 O 0.73396 0.04292 0.53783 0.0
Zn515 Zn 0.75085 0.01914 0.51488 0.0
O516 O 0.76964 0.99706 0.54515 0.0
O517 O 0.80912 0.00128 0.53797 0.0
O518 O 0.73239 0.99475 0.49442 0.0
O519 O 0.77204 0.99147 0.48832 0.0
O520 O 0.80556 0.03817 0.48328 0.0
O521 O 0.76552 0.04205 0.4826 0.0
C522 C 0.79169 0.99185 0.55168 0.0
C523 C 0.78652 0.04757 0.47274 0.0
C524 C 0.98835 0.80258 0.55177 0.0
C525 C 0.04655 0.80772 0.47525 0.0
O526 O 0.99925 0.82139 0.54267 0.0
Zn527 Zn 0.01676 0.80551 0.51315 0.0
O528 O 0.99203 0.7818 0.54025 0.0
Zn529 Zn 0.01416 0.76725 0.50663 0.0
O530 O 0.03604 0.74501 0.52636 0.0
O531 O 0.04128 0.7838 0.53703 0.0
O532 O 0.03926 0.78582 0.47938 0.0
O533 O 0.03784 0.82488 0.48994 0.0
O534 O 0.98845 0.79459 0.48539 0.0
O535 O 0.98936 0.75459 0.48145 0.0
C536 C 0.04692 0.76136 0.5404 0.0
C537 C 0.97975 0.77493 0.47504 0.0
C538 C 0.28421 0.04396 0.55105 0.0
C539 C 0.28577 0.98451 0.47548 0.0
O540 O 0.30304 0.03309 0.54194 0.0
Zn541 Zn 0.28607 0.01294 0.51422 0.0
O542 O 0.26319 0.03822 0.54176 0.0
Zn543 Zn 0.24709 0.01419 0.51291 0.0
O544 O 0.22873 0.9917 0.5363 0.0
O545 O 0.26839 0.98559 0.53861 0.0
O546 O 0.26423 0.99122 0.48242 0.0
O547 O 0.30422 0.99247 0.48867 0.0
O548 O 0.27036 0.03964 0.48606 0.0
O549 O 0.23021 0.03753 0.48984 0.0
C550 C 0.2467 0.97952 0.54546 0.0
C551 C 0.24907 0.0472 0.47909 0.0
C552 C 0.48739 0.77597 0.05228 0.0
C553 C 0.55236 0.78737 0.98391 0.0
O554 O 0.49745 0.79591 0.04527 0.0
Zn555 Zn 0.52004 0.78234 0.01838 0.0
O556 O 0.49427 0.75601 0.04081 0.0
Zn557 Zn 0.52001 0.7444 0.00979 0.0
O558 O 0.5412 0.72268 0.02997 0.0
O559 O 0.54426 0.76082 0.04398 0.0
O560 O 0.54531 0.76525 0.98604 0.0
O561 O 0.54288 0.80376 0.99915 0.0
O562 O 0.49565 0.7709 0.98548 0.0
O563 O 0.49968 0.73108 0.98093 0.0
C564 C 0.55075 0.73843 0.04599 0.0
C565 C 0.48977 0.75093 0.97331 0.0
C566 C 0.27466 0.55257 0.03666 0.0
C567 C 0.255 0.48456 0.97446 0.0
O568 O 0.29325 0.54121 0.02703 0.0
Zn569 Zn 0.3016 0.51154 0.99991 0.0
O570 O 0.2534 0.54604 0.02922 0.0
Zn571 Zn 0.26366 0.51944 0.00482 0.0
O572 O 0.27888 0.49371 0.0342 0.0
O573 O 0.31812 0.48969 0.02503 0.0
O574 O 0.2398 0.49951 0.98484 0.0
O575 O 0.27781 0.48731 0.97878 0.0
O576 O 0.31954 0.52643 0.96965 0.0
O577 O 0.28134 0.53889 0.97176 0.0
C578 C 0.29964 0.48405 0.03968 0.0
C579 C 0.30244 0.53978 0.96039 0.0
C580 C 0.55022 0.2837 0.97615 0.0
C581 C 0.4835 0.27722 0.04418 0.0
O582 O 0.54092 0.30135 0.98972 0.0
Zn583 Zn 0.51609 0.28232 0.00932 0.0
O584 O 0.54107 0.26234 0.97853 0.0
Zn585 Zn 0.51294 0.24375 1.00061 0.0
O586 O 0.4902 0.23348 0.97148 0.0
O587 O 0.49161 0.2734 0.97671 0.0
O588 O 0.48896 0.25721 0.03194 0.0
O589 O 0.49465 0.29668 0.03741 0.0
O590 O 0.53816 0.25882 0.03415 0.0
O591 O 0.53282 0.22046 0.02152 0.0
C592 C 0.48309 0.25464 0.96427 0.0
C593 C 0.54323 0.23617 0.03699 0.0
C594 C 0.7891 0.54526 0.06076 0.0
C595 C 0.79974 0.49439 0.97804 0.0
O596 O 0.80915 0.53899 0.04962 0.0
Zn597 Zn 0.7954 0.52014 0.01905 0.0
O598 O 0.76894 0.53836 0.04999 0.0
Zn599 Zn 0.75667 0.51768 0.01514 0.0
O600 O 0.73911 0.49119 0.03303 0.0
O601 O 0.77901 0.48892 0.03853 0.0
O602 O 0.77739 0.49857 0.98411 0.0
O603 O 0.81665 0.50348 0.99288 0.0
O604 O 0.77893 0.54795 0.99387 0.0
O605 O 0.73929 0.54154 0.99284 0.0
C606 C 0.75771 0.47997 0.04225 0.0
C607 C 0.75762 0.55417 0.98555 0.0
H608 H 0.11425 0.28938 0.38335 0.0
H609 H 0.16738 0.28466 0.44949 0.0
H610 H 0.13644 0.29584 0.48364 0.0
H611 H 0.09304 0.30072 0.4956 0.0
H612 H 0.0395 0.30209 0.43005 0.0
H613 H 0.07164 0.29862 0.39481 0.0
C614 C 0.11911 0.29102 0.4052 0.0
C615 C 0.14309 0.28591 0.4138 0.0
C616 C 0.10104 0.2968 0.42489 0.0
C617 C 0.14915 0.28862 0.44216 0.0
C618 C 0.13139 0.29482 0.46181 0.0
C619 C 0.08863 0.30116 0.47353 0.0
C620 C 0.06417 0.30211 0.4652 0.0
C621 C 0.10713 0.29818 0.45354 0.0
C622 C 0.05836 0.30187 0.43671 0.0
C623 C 0.07669 0.29962 0.41664 0.0
H624 H 0.80831 0.1185 0.37242 0.0
H625 H 0.75035 0.15871 0.4129 0.0
H626 H 0.74453 0.12559 0.44549 0.0
H627 H 0.75771 0.08669 0.46533 0.0
H628 H 0.81961 0.04939 0.43019 0.0
H629 H 0.82268 0.0804 0.39347 0.0
C630 C 0.79459 0.12041 0.38851 0.0
C631 C 0.77982 0.14147 0.38967 0.0
C632 C 0.79225 0.10186 0.40857 0.0
C633 C 0.7617 0.14274 0.41051 0.0
C634 C 0.75852 0.12386 0.42965 0.0
C635 C 0.77176 0.08529 0.44947 0.0
C636 C 0.78833 0.06581 0.45026 0.0
C637 C 0.77393 0.10356 0.42916 0.0
C638 C 0.8067 0.06433 0.42996 0.0
C639 C 0.8084 0.08199 0.40898 0.0
H640 H 0.88474 0.80254 0.409 0.0
H641 H 0.87118 0.72556 0.41812 0.0
H642 H 0.91088 0.72033 0.4405 0.0
H643 H 0.94864 0.73821 0.45982 0.0
H644 H 0.96131 0.81538 0.45025 0.0
H645 H 0.9231 0.81973 0.42512 0.0
C646 C 0.89061 0.78449 0.41531 0.0
C647 C 0.87491 0.76451 0.41187 0.0
C648 C 0.91338 0.78163 0.42815 0.0
C649 C 0.88273 0.74135 0.4208 0.0
C650 C 0.9055 0.73832 0.4335 0.0
C651 C 0.94318 0.75589 0.45189 0.0
C652 C 0.9578 0.77644 0.45712 0.0
C653 C 0.92086 0.75841 0.43766 0.0
C654 C 0.95037 0.79926 0.44677 0.0
C655 C 0.92847 0.80181 0.43238 0.0
H656 H 0.27662 0.89156 0.40232 0.0
H657 H 0.25123 0.94482 0.34248 0.0
H658 H 0.26192 0.97751 0.37445 0.0
H659 H 0.2738 0.99065 0.42164 0.0
H660 H 0.30167 0.93798 0.48012 0.0
H661 H 0.29551 0.90533 0.44595 0.0
C662 C 0.27406 0.91027 0.39574 0.0
C663 C 0.2624 0.9155 0.37018 0.0
C664 C 0.28074 0.92912 0.414 0.0
C665 C 0.25925 0.94005 0.36239 0.0
C666 C 0.26556 0.95885 0.38057 0.0
C667 C 0.27921 0.97209 0.42645 0.0
C668 C 0.28824 0.96653 0.45307 0.0
C669 C 0.27556 0.95355 0.40677 0.0
C670 C 0.29501 0.94255 0.45948 0.0
C671 C 0.29124 0.92392 0.44008 0.0
H672 H 0.14278 0.74125 0.60866 0.0
H673 H 0.10792 0.79345 0.66299 0.0
H674 H 0.0716 0.79273 0.63414 0.0
H675 H 0.05139 0.78102 0.59099 0.0
H676 H 0.08486 0.72894 0.53582 0.0
H677 H 0.11998 0.72565 0.56749 0.0
C678 C 0.12709 0.7522 0.61429 0.0
C679 C 0.12814 0.76739 0.63797 0.0
C680 C 0.1061 0.75186 0.59737 0.0
C681 C 0.10758 0.78134 0.64516 0.0
C682 C 0.08682 0.78113 0.62852 0.0
C683 C 0.06623 0.76864 0.58616 0.0
C684 C 0.0658 0.75541 0.56115 0.0
C685 C 0.08613 0.76697 0.60427 0.0
C686 C 0.08487 0.73922 0.55511 0.0
C687 C 0.10498 0.73752 0.57308 0.0
H688 H 0.28309 0.11747 0.65177 0.0
H689 H 0.23563 0.15524 0.5943 0.0
H690 H 0.24435 0.12532 0.55837 0.0
H691 H 0.26184 0.08646 0.54465 0.0
H692 H 0.30924 0.04751 0.60068 0.0
H693 H 0.30443 0.07991 0.63579 0.0
C694 C 0.2749 0.11921 0.63128 0.0
C695 C 0.25872 0.13859 0.62577 0.0
C696 C 0.27988 0.1017 0.61056 0.0
C697 C 0.24838 0.14075 0.59904 0.0
C698 C 0.2532 0.12353 0.5785 0.0
C699 C 0.27143 0.08529 0.56442 0.0
C700 C 0.28568 0.06472 0.57034 0.0
C701 C 0.26843 0.10371 0.58424 0.0
C702 C 0.29826 0.06334 0.59577 0.0
C703 C 0.29532 0.08173 0.61584 0.0
H704 H 0.88462 0.29992 0.62703 0.0
H705 H 0.88819 0.22138 0.62363 0.0
H706 H 0.92699 0.22357 0.59943 0.0
H707 H 0.95853 0.24731 0.57662 0.0
H708 H 0.95539 0.32582 0.57783 0.0
H709 H 0.91789 0.32409 0.60558 0.0
C710 C 0.89392 0.28331 0.62099 0.0
C711 C 0.88345 0.26052 0.6273 0.0
C712 C 0.91628 0.28466 0.60662 0.0
C713 C 0.89592 0.23917 0.61956 0.0
C714 C 0.91807 0.24038 0.60548 0.0
C715 C 0.9498 0.26412 0.58307 0.0
C716 C 0.95968 0.28667 0.57494 0.0
C717 C 0.92823 0.26298 0.5986 0.0
C718 C 0.9482 0.30822 0.58379 0.0
C719 C 0.92668 0.30722 0.59953 0.0
H720 H 0.82827 0.92136 0.64728 0.0
H721 H 0.75512 0.89416 0.63836 0.0
H722 H 0.74643 0.92537 0.60316 0.0
H723 H 0.76014 0.95932 0.5739 0.0
H724 H 0.83416 0.98496 0.58047 0.0
H725 H 0.8421 0.95542 0.61765 0.0
C726 C 0.81037 0.92254 0.6378 0.0
C727 C 0.79225 0.90575 0.64543 0.0
C728 C 0.80577 0.94008 0.61711 0.0
C729 C 0.76926 0.90701 0.63274 0.0
C730 C 0.76433 0.92479 0.61266 0.0
C731 C 0.77798 0.95857 0.58359 0.0
C732 C 0.79652 0.97437 0.57451 0.0
C733 C 0.78252 0.94127 0.60451 0.0
C734 C 0.81961 0.97296 0.58704 0.0
C735 C 0.82414 0.95611 0.60832 0.0
H736 H 0.93041 0.8195 0.66323 0.0
H737 H 0.87562 0.77974 0.61706 0.0
H738 H 0.90425 0.7736 0.57923 0.0
H739 H 0.94401 0.78183 0.55733 0.0
H740 H 0.99584 0.82742 0.59991 0.0
H741 H 0.96877 0.82991 0.64046 0.0
C742 C 0.9243 0.80988 0.64482 0.0
C743 C 0.9005 0.80021 0.64354 0.0
C744 C 0.94033 0.80776 0.6221 0.0
C745 C 0.89378 0.78701 0.61949 0.0
C746 C 0.9101 0.78375 0.59742 0.0
C747 C 0.94929 0.79227 0.57556 0.0
C748 C 0.97178 0.80441 0.57583 0.0
C749 C 0.93327 0.79435 0.5983 0.0
C750 C 0.97848 0.81809 0.59931 0.0
C751 C 0.96307 0.8194 0.62247 0.0
H752 H 0.24516 0.87721 0.60447 0.0
H753 H 0.20171 0.91716 0.66416 0.0
H754 H 0.20399 0.95332 0.63483 0.0
H755 H 0.21918 0.97423 0.59242 0.0
H756 H 0.26675 0.93547 0.53636 0.0
H757 H 0.2624 0.89845 0.56432 0.0
C758 C 0.23654 0.89386 0.61154 0.0
C759 C 0.22314 0.89409 0.63664 0.0
C760 C 0.23866 0.91495 0.59509 0.0
C761 C 0.2117 0.91598 0.64474 0.0
C762 C 0.21315 0.93686 0.62805 0.0
C763 C 0.22841 0.95758 0.58637 0.0
C764 C 0.24305 0.95737 0.56233 0.0
C765 C 0.22655 0.93657 0.60315 0.0
C766 C 0.25534 0.93593 0.55482 0.0
C767 C 0.25287 0.9148 0.57078 0.0
H768 H 0.12339 0.19768 0.62212 0.0
H769 H 0.12899 0.27119 0.65328 0.0
H770 H 0.09638 0.28409 0.62197 0.0
H771 H 0.06675 0.27472 0.5853 0.0
H772 H 0.06062 0.20113 0.55446 0.0
H773 H 0.09271 0.188 0.58645 0.0
C774 C 0.11726 0.21646 0.62237 0.0
C775 C 0.12872 0.23344 0.64004 0.0
C776 C 0.0984 0.22376 0.60436 0.0
C777 C 0.12077 0.25779 0.63967 0.0
C778 C 0.10202 0.26517 0.62185 0.0
C779 C 0.07234 0.25577 0.58558 0.0
C780 C 0.06128 0.23897 0.56739 0.0
C781 C 0.09082 0.24835 0.60399 0.0
C782 C 0.06878 0.21448 0.56818 0.0
C783 C 0.08717 0.20695 0.58647 0.0
H784 H 0.73218 0.15338 0.60938 0.0
H785 H 0.8051 0.13958 0.6389 0.0
H786 H 0.8059 0.10088 0.61394 0.0
H787 H 0.78697 0.07213 0.58147 0.0
H788 H 0.71365 0.08476 0.55269 0.0
H789 H 0.71184 0.12262 0.57965 0.0
C790 C 0.74814 0.14177 0.61047 0.0
C791 C 0.76857 0.14936 0.62595 0.0
C792 C 0.74845 0.1194 0.59609 0.0
C793 C 0.78906 0.13406 0.62739 0.0
C794 C 0.7896 0.11199 0.61296 0.0
C795 C 0.77052 0.08308 0.58123 0.0
C796 C 0.75056 0.07576 0.56489 0.0
C797 C 0.76956 0.10465 0.59692 0.0
C798 C 0.72926 0.08998 0.5651 0.0
C799 C 0.72827 0.11168 0.58042 0.0
H800 H 0.88679 0.28589 0.40424 0.0
H801 H 0.90382 0.21451 0.3722 0.0
H802 H 0.94017 0.21271 0.40152 0.0
H803 H 0.96579 0.23041 0.43846 0.0
H804 H 0.94895 0.30214 0.46986 0.0
H805 H 0.91395 0.30474 0.43876 0.0
C806 C 0.89858 0.27003 0.40358 0.0
C807 C 0.89262 0.25038 0.38613 0.0
C808 C 0.91941 0.26908 0.42056 0.0
C809 C 0.90816 0.23002 0.38524 0.0
C810 C 0.92884 0.22888 0.40217 0.0
C811 C 0.95452 0.24664 0.43839 0.0
C812 C 0.9599 0.26594 0.45663 0.0
C813 C 0.93444 0.24814 0.42025 0.0
C814 C 0.94526 0.28698 0.45606 0.0
C815 C 0.92517 0.2885 0.4383 0.0
H816 H 0.72699 0.8821 0.42809 0.0
H817 H 0.79836 0.89428 0.3931 0.0
H818 H 0.79984 0.93446 0.41465 0.0
H819 H 0.78243 0.96474 0.44639 0.0
H820 H 0.71103 0.95324 0.48151 0.0
H821 H 0.70795 0.91428 0.45692 0.0
C822 C 0.74277 0.89365 0.42504 0.0
C823 C 0.76258 0.88512 0.40907 0.0
C824 C 0.74357 0.91678 0.43767 0.0
C825 C 0.78277 0.90043 0.40503 0.0
C826 C 0.78372 0.92336 0.41754 0.0
C827 C 0.76609 0.95382 0.44851 0.0
C828 C 0.7471 0.96177 0.46601 0.0
C829 C 0.76446 0.93151 0.43433 0.0
C830 C 0.72592 0.94755 0.46819 0.0
C831 C 0.7242 0.92521 0.45423 0.0
H832 H 0.12229 0.84555 0.38588 0.0
H833 H 0.14821 0.77177 0.39399 0.0
H834 H 0.11556 0.76277 0.4273 0.0
H835 H 0.08001 0.77615 0.45454 0.0
H836 H 0.05572 0.85073 0.44868 0.0
H837 H 0.0873 0.8592 0.414 0.0
C838 C 0.12062 0.82748 0.39485 0.0
C839 C 0.13742 0.80926 0.38743 0.0
C840 C 0.10215 0.82263 0.41437 0.0
C841 C 0.13543 0.78603 0.39948 0.0
C842 C 0.11678 0.7809 0.41845 0.0
C843 C 0.08155 0.79422 0.44554 0.0
C844 C 0.06546 0.81275 0.45402 0.0
C845 C 0.10008 0.79908 0.4261 0.0
C846 C 0.0679 0.83617 0.44251 0.0
C847 C 0.08593 0.84101 0.42266 0.0
H848 H 0.25587 0.13003 0.38789 0.0
H849 H 0.20563 0.16466 0.44442 0.0
H850 H 0.20566 0.12845 0.4743 0.0
H851 H 0.22043 0.087 0.48464 0.0
H852 H 0.27369 0.05388 0.43062 0.0
H853 H 0.27199 0.08917 0.39931 0.0
C854 C 0.24501 0.12955 0.4068 0.0
C855 C 0.23078 0.14985 0.41406 0.0
C856 C 0.24556 0.10888 0.42417 0.0
C857 C 0.21685 0.14923 0.43863 0.0
C858 C 0.21678 0.12852 0.45561 0.0
C859 C 0.23141 0.08749 0.46582 0.0
C860 C 0.24687 0.06785 0.45958 0.0
C861 C 0.23105 0.10823 0.44858 0.0
C862 C 0.26154 0.06881 0.43561 0.0
C863 C 0.26061 0.08898 0.41779 0.0
H864 H 0.65149 0.78209 0.92235 0.0
H865 H 0.60374 0.76902 0.85227 0.0
H866 H 0.56854 0.77838 0.88122 0.0
H867 H 0.55113 0.78462 0.92804 0.0
H868 H 0.59856 0.79988 0.99732 0.0
H869 H 0.63422 0.79624 0.96677 0.0
C870 C 0.63353 0.782 0.91301 0.0
C871 C 0.63041 0.77405 0.88525 0.0
C872 C 0.61327 0.78785 0.92967 0.0
C873 C 0.60678 0.77409 0.87382 0.0
C874 C 0.58657 0.77965 0.8903 0.0
C875 C 0.56928 0.78801 0.9361 0.0
C876 C 0.57242 0.79265 0.96465 0.0
C877 C 0.58956 0.78568 0.91849 0.0
C878 C 0.59586 0.79668 0.97522 0.0
C879 C 0.6162 0.7943 0.95784 0.0
H880 H 0.32816 0.59988 0.85235 0.0
H881 H 0.28591 0.65417 0.89655 0.0
H882 H 0.27749 0.62501 0.93322 0.0
H883 H 0.28361 0.58479 0.95441 0.0
H884 H 0.3308 0.53273 0.91432 0.0
H885 H 0.33665 0.56077 0.875 0.0
C886 C 0.31746 0.60571 0.87011 0.0
C887 C 0.30765 0.62951 0.87108 0.0
C888 C 0.31381 0.58927 0.89222 0.0
C889 C 0.29324 0.63599 0.8943 0.0
C890 C 0.28865 0.61937 0.91572 0.0
C891 C 0.29514 0.57962 0.937 0.0
C892 C 0.30666 0.55677 0.93706 0.0
C893 C 0.29901 0.59608 0.91503 0.0
C894 C 0.32184 0.55032 0.91468 0.0
C895 C 0.32508 0.56628 0.89221 0.0
H896 H 0.40432 0.29593 0.88233 0.0
H897 H 0.36692 0.23031 0.90696 0.0
H898 H 0.40273 0.21711 0.93337 0.0
H899 H 0.44376 0.22592 0.95246 0.0
H900 H 0.47982 0.29249 0.92854 0.0
H901 H 0.44582 0.30322 0.89824 0.0
C902 C 0.40413 0.27848 0.89295 0.0
C903 C 0.3829 0.2642 0.89269 0.0
C904 C 0.42465 0.27114 0.90824 0.0
C905 C 0.3829 0.24184 0.9071 0.0
C906 C 0.40342 0.23423 0.92211 0.0
C907 C 0.44432 0.24247 0.9401 0.0
C908 C 0.46423 0.2584 0.94271 0.0
C909 C 0.42428 0.24894 0.92326 0.0
C910 C 0.46463 0.27999 0.92694 0.0
C911 C 0.44517 0.28619 0.90968 0.0
H912 H 0.80264 0.39586 0.91579 0.0
H913 H 0.76349 0.43804 0.85408 0.0
H914 H 0.77109 0.47495 0.88066 0.0
H915 H 0.78366 0.49415 0.92488 0.0
H916 H 0.82564 0.45282 0.98427 0.0
H917 H 0.82302 0.41678 0.95438 0.0
C918 C 0.7964 0.4131 0.90741 0.0
C919 C 0.78163 0.41372 0.8833 0.0
C920 C 0.8014 0.4345 0.92241 0.0
C921 C 0.77388 0.43657 0.87319 0.0
C922 C 0.77843 0.45785 0.88824 0.0
C923 C 0.79297 0.47745 0.93069 0.0
C924 C 0.80483 0.47599 0.95658 0.0
C925 C 0.79133 0.45687 0.91343 0.0
C926 C 0.81672 0.45435 0.96418 0.0
C927 C 0.81493 0.43369 0.94727 0.0
H928 H 0.64473 0.21554 0.09143 0.0
H929 H 0.62072 0.27564 0.14267 0.0
H930 H 0.58034 0.27326 0.12224 0.0
H931 H 0.55382 0.25853 0.08519 0.0
H932 H 0.57741 0.19994 0.03184 0.0
H933 H 0.61579 0.19706 0.05789 0.0
C934 C 0.63057 0.22792 0.09832 0.0
C935 C 0.63593 0.24588 0.11844 0.0
C936 C 0.60733 0.22683 0.08597 0.0
C937 C 0.6172 0.26149 0.12748 0.0
C938 C 0.59408 0.26031 0.11561 0.0
C939 C 0.56715 0.24474 0.07967 0.0
C940 C 0.56299 0.22965 0.05651 0.0
C941 C 0.58923 0.24365 0.09422 0.0
C942 C 0.5802 0.21169 0.0497 0.0
C943 C 0.60224 0.21025 0.06439 0.0
H944 H 0.77412 0.63505 0.13866 0.0
H945 H 0.7336 0.58155 0.18588 0.0
H946 H 0.74669 0.54985 0.15386 0.0
H947 H 0.76589 0.53807 0.10948 0.0
H948 H 0.80937 0.59023 0.06456 0.0
H949 H 0.79957 0.62157 0.09927 0.0
C950 C 0.76862 0.61642 0.14257 0.0
C951 C 0.75211 0.61107 0.16431 0.0
C952 C 0.77679 0.59796 0.12446 0.0
C953 C 0.74539 0.5866 0.16872 0.0
C954 C 0.75306 0.56831 0.15055 0.0
C955 C 0.77371 0.55616 0.10781 0.0
C956 C 0.78825 0.56199 0.08467 0.0
C957 C 0.76812 0.57392 0.12786 0.0
C958 C 0.79833 0.58538 0.08247 0.0
C959 C 0.79252 0.60331 0.10214 0.0
H960 H 0.39241 0.78569 0.12598 0.0
H961 H 0.41105 0.71108 0.14455 0.0
H962 H 0.44782 0.71451 0.11622 0.0
H963 H 0.4734 0.73783 0.08407 0.0
H964 H 0.45602 0.81285 0.06616 0.0
H965 H 0.42014 0.81026 0.09646 0.0
C966 C 0.40465 0.77029 0.1239 0.0
C967 C 0.39903 0.74815 0.13726 0.0
C968 C 0.42591 0.77244 0.10766 0.0
C969 C 0.41511 0.72837 0.13467 0.0
C970 C 0.43606 0.73027 0.11834 0.0
C971 C 0.46184 0.75368 0.08693 0.0
C972 C 0.46719 0.77542 0.0727 0.0
C973 C 0.44145 0.75208 0.10446 0.0
C974 C 0.45227 0.7959 0.07692 0.0
C975 C 0.43171 0.79438 0.09412 0.0
H976 H 0.32425 0.40345 0.12959 0.0
H977 H 0.24606 0.39694 0.12935 0.0
H978 H 0.24295 0.43113 0.09667 0.0
H979 H 0.2626 0.46093 0.06605 0.0
H980 H 0.34102 0.46584 0.06384 0.0
H981 H 0.34397 0.43419 0.09966 0.0
C982 C 0.30655 0.40988 0.12272 0.0
C983 C 0.28538 0.39796 0.13193 0.0
C984 C 0.30499 0.42901 0.10332 0.0
C985 C 0.26254 0.40599 0.12252 0.0
C986 C 0.26079 0.42543 0.10382 0.0
C987 C 0.28036 0.45527 0.07356 0.0
C988 C 0.30157 0.46573 0.06226 0.0
C989 C 0.28192 0.43679 0.09373 0.0
C990 C 0.32442 0.458 0.07209 0.0
C991 C 0.32611 0.43994 0.0926 0.0
H992 H 0.39621 0.25775 0.12685 0.0
H993 H 0.40303 0.33519 0.13956 0.0
H994 H 0.43815 0.3363 0.10824 0.0
H995 H 0.4655 0.31555 0.0748 0.0
H996 H 0.45749 0.2381 0.06194 0.0
H997 H 0.42428 0.23689 0.09533 0.0
C998 C 0.4054 0.27488 0.1228 0.0
C999 C 0.39692 0.29633 0.13549 0.0
C1000 C 0.42531 0.27547 0.10445 0.0
C1001 C 0.40932 0.31831 0.13035 0.0
C1002 C 0.42929 0.31902 0.11221 0.0
C1003 C 0.45656 0.29841 0.07941 0.0
C1004 C 0.46397 0.27703 0.06562 0.0
C1005 C 0.43724 0.29775 0.09878 0.0
C1006 C 0.45219 0.25494 0.07201 0.0
C1007 C 0.43313 0.25416 0.09119 0.0
H1008 H 0.76287 0.36986 0.07748 0.0
H1009 H 0.7113 0.39446 0.13955 0.0
H1010 H 0.71201 0.43516 0.11937 0.0
H1011 H 0.72792 0.4644 0.08431 0.0
H1012 H 0.78319 0.4405 0.02662 0.0
H1013 H 0.7808 0.39915 0.04528 0.0
C1014 C 0.75211 0.38409 0.08714 0.0
C1015 C 0.73694 0.37867 0.11005 0.0
C1016 C 0.75329 0.40778 0.07615 0.0
C1017 C 0.72276 0.39761 0.12153 0.0
C1018 C 0.72329 0.4211 0.11015 0.0
C1019 C 0.73932 0.45004 0.0759 0.0
C1020 C 0.75558 0.4553 0.05409 0.0
C1021 C 0.73846 0.42642 0.08741 0.0
C1022 C 0.77058 0.43676 0.04349 0.0
C1023 C 0.7692 0.41315 0.05412 0.0
H1024 H 0.63674 0.69562 0.11881 0.0
H1025 H 0.62191 0.76018 0.16692 0.0
H1026 H 0.58966 0.77183 0.13411 0.0
H1027 H 0.56564 0.76342 0.09184 0.0
H1028 H 0.57885 0.6974 0.04542 0.0
H1029 H 0.61165 0.68641 0.07752 0.0
C1030 C 0.62649 0.7123 0.1219 0.0
C1031 C 0.63173 0.72722 0.14493 0.0
C1032 C 0.60764 0.71849 0.10339 0.0
C1033 C 0.61815 0.74855 0.14919 0.0
C1034 C 0.59975 0.75516 0.13048 0.0
C1035 C 0.5757 0.74662 0.08877 0.0
C1036 C 0.56986 0.73129 0.06621 0.0
C1037 C 0.5943 0.74024 0.10754 0.0
C1038 C 0.5829 0.70947 0.06267 0.0
C1039 C 0.60173 0.70322 0.08095 0.0
H1040 H 0.31162 0.63253 0.12052 0.0
H1041 H 0.23668 0.65562 0.11613 0.0
H1042 H 0.22776 0.62233 0.08352 0.0
H1043 H 0.24162 0.58623 0.05643 0.0
H1044 H 0.31712 0.56445 0.06184 0.0
H1045 H 0.32526 0.59739 0.09412 0.0
C1046 C 0.29323 0.63014 0.11273 0.0
C1047 C 0.27479 0.64633 0.12101 0.0
C1048 C 0.28832 0.61112 0.09414 0.0
C1049 C 0.25122 0.64338 0.11005 0.0
C1050 C 0.24611 0.6243 0.0915 0.0
C1051 C 0.2598 0.58869 0.06475 0.0
C1052 C 0.27868 0.5728 0.05661 0.0
C1053 C 0.26454 0.60798 0.08342 0.0
C1054 C 0.3022 0.57636 0.06754 0.0
C1055 C 0.30694 0.59523 0.08609 0.0
H1056 H 0.40405 0.76544 0.88688 0.0
H1057 H 0.43325 0.69791 0.85535 0.0
H1058 H 0.46498 0.69847 0.89103 0.0
H1059 H 0.48342 0.71721 0.93247 0.0
H1060 H 0.4551 0.78539 0.96329 0.0
H1061 H 0.42401 0.78545 0.92681 0.0
C1062 C 0.41746 0.75095 0.88779 0.0
C1063 C 0.41632 0.73169 0.86851 0.0
C1064 C 0.43569 0.75138 0.90837 0.0
C1065 C 0.43392 0.7131 0.86973 0.0
C1066 C 0.45195 0.7133 0.89027 0.0
C1067 C 0.47043 0.73207 0.93119 0.0
C1068 C 0.47143 0.75114 0.9507 0.0
C1069 C 0.45284 0.73218 0.90991 0.0
C1070 C 0.45471 0.77047 0.94853 0.0
C1071 C 0.4369 0.77051 0.9277 0.0
H1072 H 0.24694 0.40678 0.88031 0.0
H1073 H 0.26819 0.36013 0.94857 0.0
H1074 H 0.26288 0.39375 0.98136 0.0
H1075 H 0.25813 0.43772 0.98942 0.0
H1076 H 0.23687 0.48468 0.92169 0.0
H1077 H 0.23585 0.44969 0.88985 0.0
C1078 C 0.24996 0.40394 0.90244 0.0
C1079 C 0.25818 0.38111 0.91201 0.0
C1080 C 0.24694 0.42342 0.92119 0.0
C1081 C 0.26178 0.37751 0.94074 0.0
C1082 C 0.2589 0.39677 0.95947 0.0
C1083 C 0.25244 0.44004 0.96789 0.0
C1084 C 0.24734 0.4635 0.9578 0.0
C1085 C 0.25227 0.41996 0.9498 0.0
C1086 C 0.24041 0.46661 0.92987 0.0
C1087 C 0.24014 0.44668 0.91165 0.0
H1088 H 0.65029 0.27619 0.91229 0.0
H1089 H 0.63585 0.35205 0.89636 0.0
H1090 H 0.59747 0.34924 0.92246 0.0
H1091 H 0.56836 0.32498 0.95095 0.0
H1092 H 0.58297 0.24855 0.96424 0.0
H1093 H 0.6208 0.25183 0.93826 0.0
C1094 C 0.6387 0.29208 0.91455 0.0
C1095 C 0.64587 0.3143 0.90266 0.0
C1096 C 0.61667 0.29023 0.92921 0.0
C1097 C 0.63059 0.33471 0.90532 0.0
C1098 C 0.60873 0.33313 0.92033 0.0
C1099 C 0.57986 0.30911 0.94808 0.0
C1100 C 0.57281 0.28658 0.95956 0.0
C1101 C 0.60163 0.31098 0.93256 0.0
C1102 C 0.58781 0.26609 0.95548 0.0
C1103 C 0.60954 0.26792 0.94068 0.0
H1104 H 0.76354 0.65104 0.91452 0.0
H1105 H 0.69193 0.62754 0.88947 0.0
H1106 H 0.69519 0.59188 0.91984 0.0
H1107 H 0.71853 0.56721 0.95353 0.0
H1108 H 0.79066 0.59035 0.97739 0.0
H1109 H 0.78697 0.62627 0.94776 0.0
C1110 C 0.74862 0.63816 0.91585 0.0
C1111 C 0.72755 0.64191 0.89976 0.0
C1112 C 0.75069 0.6176 0.9332 0.0
C1113 C 0.70846 0.62492 0.90143 0.0
C1114 C 0.71026 0.60459 0.9189 0.0
C1115 C 0.73339 0.58017 0.95232 0.0
C1116 C 0.75481 0.57607 0.96771 0.0
C1117 C 0.7313 0.60071 0.93488 0.0
C1118 C 0.77398 0.59296 0.9657 0.0
C1119 C 0.7719 0.61357 0.94877 0.0
loop_
_geom_bond_atom_site_label_1
_geom_bond_atom_site_label_2
_geom_bond_distance
_geom_bond_site_symmetry_2
_ccdc_geom_bond_type
H0 C27 0.929 . S
N1 C26 1.433 . S
N1 C32 1.435 . S
N1 C38 1.423 . S
H2 C28 0.930 . S
H3 C31 0.931 . S
H4 C30 0.929 . S
H5 C33 0.930 . S
H6 C34 0.932 . S
H7 C37 0.929 . S
H8 C36 0.931 . S
H9 C39 0.929 . S
H10 C43 0.932 . S
H11 C40 0.931 . S
H12 C42 0.929 . S
H13 C45 0.929 . S
H14 C46 0.930 . S
H15 C48 0.929 . S
H16 C49 0.931 . S
H17 C51 0.930 . S
H18 C52 0.932 . S
H19 C54 0.931 . S
H20 C55 0.929 . S
H21 C57 0.929 . S
H22 C58 0.931 . S
H23 C60 0.929 . S
N24 C44 1.433 . S
N24 C50 1.435 . S
N24 C56 1.423 . S
H25 C61 0.932 . S
C26 N1 1.433 . S
C26 C27 1.363 . S
C26 C31 1.370 . S
C27 H0 0.929 . S
C27 C26 1.363 . S
C27 C28 1.385 . S
C28 H2 0.930 . S
C28 C27 1.385 . S
C28 C29 1.357 . S
C29 C28 1.357 . S
C29 C30 1.406 . S
C30 H4 0.929 . S
C30 C29 1.406 . S
C30 C31 1.391 . S
C31 H3 0.931 . S
C31 C26 1.370 . S
C31 C30 1.391 . S
C32 N1 1.435 . S
C32 C33 1.358 . S
C32 C37 1.371 . S
C33 H5 0.930 . S
C33 C32 1.358 . S
C33 C34 1.405 . S
C34 H6 0.932 . S
C34 C33 1.405 . S
C34 C35 1.383 . S
C35 C34 1.383 . S
C35 C36 1.393 . S
C36 H8 0.931 . S
C36 C35 1.393 . S
C36 C37 1.382 . S
C37 H7 0.929 . S
C37 C32 1.371 . S
C37 C36 1.382 . S
C38 N1 1.423 . S
C38 C39 1.362 . S
C38 C43 1.388 . S
C39 H9 0.929 . S
C39 C38 1.362 . S
C39 C40 1.376 . S
C40 H11 0.931 . S
C40 C39 1.376 . S
C40 C41 1.396 . S
C41 C40 1.396 . S
C41 C42 1.348 . S
C41 C59 1.472 . S
C42 H12 0.929 . S
C42 C41 1.348 . S
C42 C43 1.443 . S
C43 H10 0.932 . S
C43 C38 1.388 . S
C43 C42 1.443 . S
C44 N24 1.433 . S
C44 C45 1.363 . S
C44 C49 1.370 . S
C45 H13 0.929 . S
C45 C44 1.363 . S
C45 C46 1.385 . S
C46 H14 0.930 . S
C46 C45 1.385 . S
C46 C47 1.357 . S
C47 C46 1.357 . S
C47 C48 1.406 . S
C48 H15 0.929 . S
C48 C47 1.406 . S
C48 C49 1.391 . S
C49 H16 0.931 . S
C49 C44 1.370 . S
C49 C48 1.391 . S
C50 N24 1.435 . S
C50 C51 1.358 . S
C50 C55 1.371 . S
C51 H17 0.930 . S
C51 C50 1.358 . S
C51 C52 1.405 . S
C52 H18 0.932 . S
C52 C51 1.405 . S
C52 C53 1.383 . S
C53 C52 1.383 . S
C53 C54 1.393 . S
C54 H19 0.931 . S
C54 C53 1.393 . S
C54 C55 1.382 . S
C55 H20 0.929 . S
C55 C50 1.371 . S
C55 C54 1.382 . S
C56 N24 1.423 . S
C56 C57 1.362 . S
C56 C61 1.388 . S
C57 H21 0.929 . S
C57 C56 1.362 . S
C57 C58 1.376 . S
C58 H22 0.931 . S
C58 C57 1.376 . S
C58 C59 1.396 . S
C59 C41 1.472 . S
C59 C58 1.396 . S
C59 C60 1.348 . S
C60 H23 0.929 . S
C60 C59 1.348 . S
C60 C61 1.443 . S
C61 H25 0.932 . S
C61 C56 1.388 . S
C61 C60 1.443 . S
H62 C89 0.929 . S
N63 C88 1.433 . S
N63 C94 1.435 . S
N63 C100 1.423 . S
H64 C90 0.930 . S
H65 C93 0.931 . S
H66 C92 0.929 . S
H67 C95 0.930 . S
H68 C96 0.932 . S
H69 C99 0.929 . S
H70 C98 0.931 . S
H71 C101 0.929 . S
H72 C105 0.932 . S
H73 C102 0.931 . S
H74 C104 0.929 . S
H75 C107 0.929 . S
H76 C108 0.930 . S
H77 C110 0.929 . S
H78 C111 0.931 . S
H79 C113 0.930 . S
H80 C114 0.932 . S
H81 C116 0.931 . S
H82 C117 0.929 . S
H83 C119 0.929 . S
H84 C120 0.931 . S
H85 C122 0.929 . S
N86 C106 1.433 . S
N86 C112 1.435 . S
N86 C118 1.423 . S
H87 C123 0.932 . S
C88 N63 1.433 . S
C88 C89 1.363 . S
C88 C93 1.370 . S
C89 H62 0.929 . S
C89 C88 1.363 . S
C89 C90 1.385 . S
C90 H64 0.930 . S
C90 C89 1.385 . S
C90 C91 1.357 . S
C91 C90 1.357 . S
C91 C92 1.406 . S
C92 H66 0.929 . S
C92 C91 1.406 . S
C92 C93 1.391 . S
C93 H65 0.931 . S
C93 C88 1.370 . S
C93 C92 1.391 . S
C94 N63 1.435 . S
C94 C95 1.358 . S
C94 C99 1.371 . S
C95 H67 0.930 . S
C95 C94 1.358 . S
C95 C96 1.405 . S
C96 H68 0.932 . S
C96 C95 1.405 . S
C96 C97 1.383 . S
C97 C96 1.383 . S
C97 C98 1.393 . S
C98 H70 0.931 . S
C98 C97 1.393 . S
C98 C99 1.382 . S
C99 H69 0.929 . S
C99 C94 1.371 . S
C99 C98 1.382 . S
C100 N63 1.423 . S
C100 C101 1.362 . S
C100 C105 1.388 . S
C101 H71 0.929 . S
C101 C100 1.362 . S
C101 C102 1.376 . S
C102 H73 0.931 . S
C102 C101 1.376 . S
C102 C103 1.396 . S
C103 C102 1.396 . S
C103 C104 1.348 . S
C103 C121 1.472 . S
C104 H74 0.929 . S
C104 C103 1.348 . S
C104 C105 1.443 . S
C105 H72 0.932 . S
C105 C100 1.388 . S
C105 C104 1.443 . S
C106 N86 1.433 . S
C106 C107 1.363 . S
C106 C111 1.370 . S
C107 H75 0.929 . S
C107 C106 1.363 . S
C107 C108 1.385 . S
C108 H76 0.930 . S
C108 C107 1.385 . S
C108 C109 1.357 . S
C109 C108 1.357 . S
C109 C110 1.406 . S
C110 H77 0.929 . S
C110 C109 1.406 . S
C110 C111 1.391 . S
C111 H78 0.931 . S
C111 C106 1.370 . S
C111 C110 1.391 . S
C112 N86 1.435 . S
C112 C113 1.358 . S
C112 C117 1.371 . S
C113 H79 0.930 . S
C113 C112 1.358 . S
C113 C114 1.405 . S
C114 H80 0.932 . S
C114 C113 1.405 . S
C114 C115 1.383 . S
C115 C114 1.383 . S
C115 C116 1.393 . S
C116 H81 0.931 . S
C116 C115 1.393 . S
C116 C117 1.382 . S
C117 H82 0.929 . S
C117 C112 1.371 . S
C117 C116 1.382 . S
C118 N86 1.423 . S
C118 C119 1.362 . S
C118 C123 1.388 . S
C119 H83 0.929 . S
C119 C118 1.362 . S
C119 C120 1.376 . S
C120 H84 0.931 . S
C120 C119 1.376 . S
C120 C121 1.396 . S
C121 C103 1.472 . S
C121 C120 1.396 . S
C121 C122 1.348 . S
C122 H85 0.929 . S
C122 C121 1.348 . S
C122 C123 1.443 . S
C123 H87 0.932 . S
C123 C118 1.388 . S
C123 C122 1.443 . S
H124 C151 0.929 . S
N125 C150 1.433 . S
N125 C156 1.435 . S
N125 C162 1.423 . S
H126 C152 0.930 . S
H127 C155 0.931 . S
H128 C154 0.929 . S
H129 C157 0.930 . S
H130 C158 0.932 . S
H131 C161 0.929 . S
H132 C160 0.931 . S
H133 C163 0.929 . S
H134 C167 0.932 . S
H135 C164 0.931 . S
H136 C166 0.929 . S
H137 C169 0.929 . S
H138 C170 0.930 . S
H139 C172 0.929 . S
H140 C173 0.931 . S
H141 C175 0.930 . S
H142 C176 0.932 . S
H143 C178 0.931 . S
H144 C179 0.929 . S
H145 C181 0.929 . S
H146 C182 0.931 . S
H147 C184 0.929 . S
N148 C168 1.433 . S
N148 C174 1.435 . S
N148 C180 1.423 . S
H149 C185 0.932 . S
C150 N125 1.433 . S
C150 C151 1.363 . S
C150 C155 1.370 . S
C151 H124 0.929 . S
C151 C150 1.363 . S
C151 C152 1.385 . S
C152 H126 0.930 . S
C152 C151 1.385 . S
C152 C153 1.357 . S
C153 C152 1.357 . S
C153 C154 1.406 . S
C154 H128 0.929 . S
C154 C153 1.406 . S
C154 C155 1.391 . S
C155 H127 0.931 . S
C155 C150 1.370 . S
C155 C154 1.391 . S
C156 N125 1.435 . S
C156 C157 1.358 . S
C156 C161 1.371 . S
C157 H129 0.930 . S
C157 C156 1.358 . S
C157 C158 1.405 . S
C158 H130 0.932 . S
C158 C157 1.405 . S
C158 C159 1.383 . S
C159 C158 1.383 . S
C159 C160 1.393 . S
C160 H132 0.931 . S
C160 C159 1.393 . S
C160 C161 1.382 . S
C161 H131 0.929 . S
C161 C156 1.371 . S
C161 C160 1.382 . S
C162 N125 1.423 . S
C162 C163 1.362 . S
C162 C167 1.388 . S
C163 H133 0.929 . S
C163 C162 1.362 . S
C163 C164 1.376 . S
C164 H135 0.931 . S
C164 C163 1.376 . S
C164 C165 1.396 . S
C165 C164 1.396 . S
C165 C166 1.348 . S
C165 C183 1.472 . S
C166 H136 0.929 . S
C166 C165 1.348 . S
C166 C167 1.443 . S
C167 H134 0.932 . S
C167 C162 1.388 . S
C167 C166 1.443 . S
C168 N148 1.433 . S
C168 C169 1.363 . S
C168 C173 1.370 . S
C169 H137 0.929 . S
C169 C168 1.363 . S
C169 C170 1.385 . S
C170 H138 0.930 . S
C170 C169 1.385 . S
C170 C171 1.357 . S
C171 C170 1.357 . S
C171 C172 1.406 . S
C172 H139 0.929 . S
C172 C171 1.406 . S
C172 C173 1.391 . S
C173 H140 0.931 . S
C173 C168 1.370 . S
C173 C172 1.391 . S
C174 N148 1.435 . S
C174 C175 1.358 . S
C174 C179 1.371 . S
C175 H141 0.930 . S
C175 C174 1.358 . S
C175 C176 1.405 . S
C176 H142 0.932 . S
C176 C175 1.405 . S
C176 C177 1.383 . S
C177 C176 1.383 . S
C177 C178 1.393 . S
C178 H143 0.931 . S
C178 C177 1.393 . S
C178 C179 1.382 . S
C179 H144 0.929 . S
C179 C174 1.371 . S
C179 C178 1.382 . S
C180 N148 1.423 . S
C180 C181 1.362 . S
C180 C185 1.388 . S
C181 H145 0.929 . S
C181 C180 1.362 . S
C181 C182 1.376 . S
C182 H146 0.931 . S
C182 C181 1.376 . S
C182 C183 1.396 . S
C183 C165 1.472 . S
C183 C182 1.396 . S
C183 C184 1.348 . S
C184 H147 0.929 . S
C184 C183 1.348 . S
C184 C185 1.443 . S
C185 H149 0.932 . S
C185 C180 1.388 . S
C185 C184 1.443 . S
H186 C213 0.929 . S
N187 C212 1.433 . S
N187 C218 1.435 . S
N187 C224 1.423 . S
H188 C214 0.930 . S
H189 C217 0.931 . S
H190 C216 0.929 . S
H191 C219 0.930 . S
H192 C220 0.932 . S
H193 C223 0.929 . S
H194 C222 0.931 . S
H195 C225 0.929 . S
H196 C229 0.932 . S
H197 C226 0.931 . S
H198 C228 0.929 . S
H199 C231 0.929 . S
H200 C232 0.930 . S
H201 C234 0.929 . S
H202 C235 0.931 . S
H203 C237 0.930 . S
H204 C238 0.932 . S
H205 C240 0.931 . S
H206 C241 0.929 . S
H207 C243 0.929 . S
H208 C244 0.931 . S
H209 C246 0.929 . S
N210 C230 1.433 . S
N210 C236 1.435 . S
N210 C242 1.423 . S
H211 C247 0.932 . S
C212 N187 1.433 . S
C212 C213 1.363 . S
C212 C217 1.370 . S
C213 H186 0.929 . S
C213 C212 1.363 . S
C213 C214 1.385 . S
C214 H188 0.930 . S
C214 C213 1.385 . S
C214 C215 1.357 . S
C215 C214 1.357 . S
C215 C216 1.406 . S
C216 H190 0.929 . S
C216 C215 1.406 . S
C216 C217 1.391 . S
C217 H189 0.931 . S
C217 C212 1.370 . S
C217 C216 1.391 . S
C218 N187 1.435 . S
C218 C219 1.358 . S
C218 C223 1.371 . S
C219 H191 0.930 . S
C219 C218 1.358 . S
C219 C220 1.405 . S
C220 H192 0.932 . S
C220 C219 1.405 . S
C220 C221 1.383 . S
C221 C220 1.383 . S
C221 C222 1.393 . S
C222 H194 0.931 . S
C222 C221 1.393 . S
C222 C223 1.382 . S
C223 H193 0.929 . S
C223 C218 1.371 . S
C223 C222 1.382 . S
C224 N187 1.423 . S
C224 C225 1.362 . S
C224 C229 1.388 . S
C225 H195 0.929 . S
C225 C224 1.362 . S
C225 C226 1.376 . S
C226 H197 0.931 . S
C226 C225 1.376 . S
C226 C227 1.396 . S
C227 C226 1.396 . S
C227 C228 1.348 . S
C227 C245 1.472 . S
C228 H198 0.929 . S
C228 C227 1.348 . S
C228 C229 1.443 . S
C229 H196 0.932 . S
C229 C224 1.388 . S
C229 C228 1.443 . S
C230 N210 1.433 . S
C230 C231 1.363 . S
C230 C235 1.370 . S
C231 H199 0.929 . S
C231 C230 1.363 . S
C231 C232 1.385 . S
C232 H200 0.930 . S
C232 C231 1.385 . S
C232 C233 1.357 . S
C233 C232 1.357 . S
C233 C234 1.406 . S
C234 H201 0.929 . S
C234 C233 1.406 . S
C234 C235 1.391 . S
C235 H202 0.931 . S
C235 C230 1.370 . S
C235 C234 1.391 . S
C236 N210 1.435 . S
C236 C237 1.358 . S
C236 C241 1.371 . S
C237 H203 0.930 . S
C237 C236 1.358 . S
C237 C238 1.405 . S
C238 H204 0.932 . S
C238 C237 1.405 . S
C238 C239 1.383 . S
C239 C238 1.383 . S
C239 C240 1.393 . S
C240 H205 0.931 . S
C240 C239 1.393 . S
C240 C241 1.382 . S
C241 H206 0.929 . S
C241 C236 1.371 . S
C241 C240 1.382 . S
C242 N210 1.423 . S
C242 C243 1.362 . S
C242 C247 1.388 . S
C243 H207 0.929 . S
C243 C242 1.362 . S
C243 C244 1.376 . S
C244 H208 0.931 . S
C244 C243 1.376 . S
C244 C245 1.396 . S
C245 C227 1.472 . S
C245 C244 1.396 . S
C245 C246 1.348 . S
C246 H209 0.929 . S
C246 C245 1.348 . S
C246 C247 1.443 . S
C247 H211 0.932 . S
C247 C242 1.388 . S
C247 C246 1.443 . S
H248 C275 0.929 . S
N249 C274 1.433 . S
N249 C280 1.435 . S
N249 C286 1.423 . S
H250 C276 0.930 . S
H251 C279 0.931 . S
H252 C278 0.929 . S
H253 C281 0.930 . S
H254 C282 0.932 . S
H255 C285 0.929 . S
H256 C284 0.931 . S
H257 C287 0.929 . S
H258 C291 0.932 . S
H259 C288 0.931 . S
H260 C290 0.929 . S
H261 C293 0.929 . S
H262 C294 0.930 . S
H263 C296 0.929 . S
H264 C297 0.931 . S
H265 C299 0.930 . S
H266 C300 0.932 . S
H267 C302 0.931 . S
H268 C303 0.929 . S
H269 C305 0.929 . S
H270 C306 0.931 . S
H271 C308 0.929 . S
N272 C292 1.433 . S
N272 C298 1.435 . S
N272 C304 1.423 . S
H273 C309 0.932 . S
C274 N249 1.433 . S
C274 C275 1.363 . S
C274 C279 1.370 . S
C275 H248 0.929 . S
C275 C274 1.363 . S
C275 C276 1.385 . S
C276 H250 0.930 . S
C276 C275 1.385 . S
C276 C277 1.357 . S
C277 C276 1.357 . S
C277 C278 1.406 . S
C278 H252 0.929 . S
C278 C277 1.406 . S
C278 C279 1.391 . S
C279 H251 0.931 . S
C279 C274 1.370 . S
C279 C278 1.391 . S
C280 N249 1.435 . S
C280 C281 1.358 . S
C280 C285 1.371 . S
C281 H253 0.930 . S
C281 C280 1.358 . S
C281 C282 1.405 . S
C282 H254 0.932 . S
C282 C281 1.405 . S
C282 C283 1.383 . S
C283 C282 1.383 . S
C283 C284 1.393 . S
C284 H256 0.931 . S
C284 C283 1.393 . S
C284 C285 1.382 . S
C285 H255 0.929 . S
C285 C280 1.371 . S
C285 C284 1.382 . S
C286 N249 1.423 . S
C286 C287 1.362 . S
C286 C291 1.388 . S
C287 H257 0.929 . S
C287 C286 1.362 . S
C287 C288 1.376 . S
C288 H259 0.931 . S
C288 C287 1.376 . S
C288 C289 1.396 . S
C289 C288 1.396 . S
C289 C290 1.348 . S
C289 C307 1.472 . S
C290 H260 0.929 . S
C290 C289 1.348 . S
C290 C291 1.443 . S
C291 H258 0.932 . S
C291 C286 1.388 . S
C291 C290 1.443 . S
C292 N272 1.433 . S
C292 C293 1.363 . S
C292 C297 1.370 . S
C293 H261 0.929 . S
C293 C292 1.363 . S
C293 C294 1.385 . S
C294 H262 0.930 . S
C294 C293 1.385 . S
C294 C295 1.357 . S
C295 C294 1.357 . S
C295 C296 1.406 . S
C296 H263 0.929 . S
C296 C295 1.406 . S
C296 C297 1.391 . S
C297 H264 0.931 . S
C297 C292 1.370 . S
C297 C296 1.391 . S
C298 N272 1.435 . S
C298 C299 1.358 . S
C298 C303 1.371 . S
C299 H265 0.930 . S
C299 C298 1.358 . S
C299 C300 1.405 . S
C300 H266 0.932 . S
C300 C299 1.405 . S
C300 C301 1.383 . S
C301 C300 1.383 . S
C301 C302 1.393 . S
C302 H267 0.931 . S
C302 C301 1.393 . S
C302 C303 1.382 . S
C303 H268 0.929 . S
C303 C298 1.371 . S
C303 C302 1.382 . S
C304 N272 1.423 . S
C304 C305 1.362 . S
C304 C309 1.388 . S
C305 H269 0.929 . S
C305 C304 1.362 . S
C305 C306 1.376 . S
C306 H270 0.931 . S
C306 C305 1.376 . S
C306 C307 1.396 . S
C307 C289 1.472 . S
C307 C306 1.396 . S
C307 C308 1.348 . S
C308 H271 0.929 . S
C308 C307 1.348 . S
C308 C309 1.443 . S
C309 H273 0.932 . S
C309 C304 1.388 . S
C309 C308 1.443 . S
H310 C337 0.929 . S
N311 C336 1.433 . S
N311 C342 1.435 . S
N311 C348 1.423 . S
H312 C338 0.930 . S
H313 C341 0.931 . S
H314 C340 0.929 . S
H315 C343 0.930 . S
H316 C344 0.932 . S
H317 C347 0.929 . S
H318 C346 0.931 . S
H319 C349 0.929 . S
H320 C353 0.932 . S
H321 C350 0.931 . S
H322 C352 0.929 . S
H323 C355 0.929 . S
H324 C356 0.930 . S
H325 C358 0.929 . S
H326 C359 0.931 . S
H327 C361 0.930 . S
H328 C362 0.932 . S
H329 C364 0.931 . S
H330 C365 0.929 . S
H331 C367 0.929 . S
H332 C368 0.931 . S
H333 C370 0.929 . S
N334 C354 1.433 . S
N334 C360 1.435 . S
N334 C366 1.423 . S
H335 C371 0.932 . S
C336 N311 1.433 . S
C336 C337 1.363 . S
C336 C341 1.370 . S
C337 H310 0.929 . S
C337 C336 1.363 . S
C337 C338 1.385 . S
C338 H312 0.930 . S
C338 C337 1.385 . S
C338 C339 1.357 . S
C339 C338 1.357 . S
C339 C340 1.406 . S
C340 H314 0.929 . S
C340 C339 1.406 . S
C340 C341 1.391 . S
C341 H313 0.931 . S
C341 C336 1.370 . S
C341 C340 1.391 . S
C342 N311 1.435 . S
C342 C343 1.358 . S
C342 C347 1.371 . S
C343 H315 0.930 . S
C343 C342 1.358 . S
C343 C344 1.405 . S
C344 H316 0.932 . S
C344 C343 1.405 . S
C344 C345 1.383 . S
C345 C344 1.383 . S
C345 C346 1.393 . S
C346 H318 0.931 . S
C346 C345 1.393 . S
C346 C347 1.382 . S
C347 H317 0.929 . S
C347 C342 1.371 . S
C347 C346 1.382 . S
C348 N311 1.423 . S
C348 C349 1.362 . S
C348 C353 1.388 . S
C349 H319 0.929 . S
C349 C348 1.362 . S
C349 C350 1.376 . S
C350 H321 0.931 . S
C350 C349 1.376 . S
C350 C351 1.396 . S
C351 C350 1.396 . S
C351 C352 1.348 . S
C351 C369 1.472 . S
C352 H322 0.929 . S
C352 C351 1.348 . S
C352 C353 1.443 . S
C353 H320 0.932 . S
C353 C348 1.388 . S
C353 C352 1.443 . S
C354 N334 1.433 . S
C354 C355 1.363 . S
C354 C359 1.370 . S
C355 H323 0.929 . S
C355 C354 1.363 . S
C355 C356 1.385 . S
C356 H324 0.930 . S
C356 C355 1.385 . S
C356 C357 1.357 . S
C357 C356 1.357 . S
C357 C358 1.406 . S
C358 H325 0.929 . S
C358 C357 1.406 . S
C358 C359 1.391 . S
C359 H326 0.931 . S
C359 C354 1.370 . S
C359 C358 1.391 . S
C360 N334 1.435 . S
C360 C361 1.358 . S
C360 C365 1.371 . S
C361 H327 0.930 . S
C361 C360 1.358 . S
C361 C362 1.405 . S
C362 H328 0.932 . S
C362 C361 1.405 . S
C362 C363 1.383 . S
C363 C362 1.383 . S
C363 C364 1.393 . S
C364 H329 0.931 . S
C364 C363 1.393 . S
C364 C365 1.382 . S
C365 H330 0.929 . S
C365 C360 1.371 . S
C365 C364 1.382 . S
C366 N334 1.423 . S
C366 C367 1.362 . S
C366 C371 1.388 . S
C367 H331 0.929 . S
C367 C366 1.362 . S
C367 C368 1.376 . S
C368 H332 0.931 . S
C368 C367 1.376 . S
C368 C369 1.396 . S
C369 C351 1.472 . S
C369 C368 1.396 . S
C369 C370 1.348 . S
C370 H333 0.929 . S
C370 C369 1.348 . S
C370 C371 1.443 . S
C371 H335 0.932 . S
C371 C366 1.388 . S
C371 C370 1.443 . S
H372 C399 0.929 . S
N373 C398 1.433 . S
N373 C404 1.435 . S
N373 C410 1.423 . S
H374 C400 0.930 . S
H375 C403 0.931 . S
H376 C402 0.929 . S
H377 C405 0.930 . S
H378 C406 0.932 . S
H379 C409 0.929 . S
H380 C408 0.931 . S
H381 C411 0.929 . S
H382 C415 0.932 . S
H383 C412 0.931 . S
H384 C414 0.929 . S
H385 C417 0.929 . S
H386 C418 0.930 . S
H387 C420 0.929 . S
H388 C421 0.931 . S
H389 C423 0.930 . S
H390 C424 0.932 . S
H391 C426 0.931 . S
H392 C427 0.929 . S
H393 C429 0.929 . S
H394 C430 0.931 . S
H395 C432 0.929 . S
N396 C416 1.433 . S
N396 C422 1.435 . S
N396 C428 1.423 . S
H397 C433 0.932 . S
C398 N373 1.433 . S
C398 C399 1.363 . S
C398 C403 1.370 . S
C399 H372 0.929 . S
C399 C398 1.363 . S
C399 C400 1.385 . S
C400 H374 0.930 . S
C400 C399 1.385 . S
C400 C401 1.357 . S
C401 C400 1.357 . S
C401 C402 1.406 . S
C402 H376 0.929 . S
C402 C401 1.406 . S
C402 C403 1.391 . S
C403 H375 0.931 . S
C403 C398 1.370 . S
C403 C402 1.391 . S
C404 N373 1.435 . S
C404 C405 1.358 . S
C404 C409 1.371 . S
C405 H377 0.930 . S
C405 C404 1.358 . S
C405 C406 1.405 . S
C406 H378 0.932 . S
C406 C405 1.405 . S
C406 C407 1.383 . S
C407 C406 1.383 . S
C407 C408 1.393 . S
C408 H380 0.931 . S
C408 C407 1.393 . S
C408 C409 1.382 . S
C409 H379 0.929 . S
C409 C404 1.371 . S
C409 C408 1.382 . S
C410 N373 1.423 . S
C410 C411 1.362 . S
C410 C415 1.388 . S
C411 H381 0.929 . S
C411 C410 1.362 . S
C411 C412 1.376 . S
C412 H383 0.931 . S
C412 C411 1.376 . S
C412 C413 1.396 . S
C413 C412 1.396 . S
C413 C414 1.348 . S
C413 C431 1.472 . S
C414 H384 0.929 . S
C414 C413 1.348 . S
C414 C415 1.443 . S
C415 H382 0.932 . S
C415 C410 1.388 . S
C415 C414 1.443 . S
C416 N396 1.433 . S
C416 C417 1.363 . S
C416 C421 1.370 . S
C417 H385 0.929 . S
C417 C416 1.363 . S
C417 C418 1.385 . S
C418 H386 0.930 . S
C418 C417 1.385 . S
C418 C419 1.357 . S
C419 C418 1.357 . S
C419 C420 1.406 . S
C420 H387 0.929 . S
C420 C419 1.406 . S
C420 C421 1.391 . S
C421 H388 0.931 . S
C421 C416 1.370 . S
C421 C420 1.391 . S
C422 N396 1.435 . S
C422 C423 1.358 . S
C422 C427 1.371 . S
C423 H389 0.930 . S
C423 C422 1.358 . S
C423 C424 1.405 . S
C424 H390 0.932 . S
C424 C423 1.405 . S
C424 C425 1.383 . S
C425 C424 1.383 . S
C425 C426 1.393 . S
C426 H391 0.931 . S
C426 C425 1.393 . S
C426 C427 1.382 . S
C427 H392 0.929 . S
C427 C422 1.371 . S
C427 C426 1.382 . S
C428 N396 1.423 . S
C428 C429 1.362 . S
C428 C433 1.388 . S
C429 H393 0.929 . S
C429 C428 1.362 . S
C429 C430 1.376 . S
C430 H394 0.931 . S
C430 C429 1.376 . S
C430 C431 1.396 . S
C431 C413 1.472 . S
C431 C430 1.396 . S
C431 C432 1.348 . S
C432 H395 0.929 . S
C432 C431 1.348 . S
C432 C433 1.443 . S
C433 H397 0.932 . S
C433 C428 1.388 . S
C433 C432 1.443 . S
H434 C461 0.929 . S
N435 C460 1.433 . S
N435 C466 1.435 . S
N435 C472 1.423 . S
H436 C462 0.930 . S
H437 C465 0.931 . S
H438 C464 0.929 . S
H439 C467 0.930 . S
H440 C468 0.932 . S
H441 C471 0.929 . S
H442 C470 0.931 . S
H443 C473 0.929 . S
H444 C477 0.932 . S
H445 C474 0.931 . S
H446 C476 0.929 . S
H447 C479 0.929 . S
H448 C480 0.930 . S
H449 C482 0.929 . S
H450 C483 0.931 . S
H451 C485 0.930 . S
H452 C486 0.932 . S
H453 C488 0.931 . S
H454 C489 0.929 . S
H455 C491 0.929 . S
H456 C492 0.931 . S
H457 C494 0.929 . S
N458 C478 1.433 . S
N458 C484 1.435 . S
N458 C490 1.423 . S
H459 C495 0.932 . S
C460 N435 1.433 . S
C460 C461 1.363 . S
C460 C465 1.370 . S
C461 H434 0.929 . S
C461 C460 1.363 . S
C461 C462 1.385 . S
C462 H436 0.930 . S
C462 C461 1.385 . S
C462 C463 1.357 . S
C463 C462 1.357 . S
C463 C464 1.406 . S
C464 H438 0.929 . S
C464 C463 1.406 . S
C464 C465 1.391 . S
C465 H437 0.931 . S
C465 C460 1.370 . S
C465 C464 1.391 . S
C466 N435 1.435 . S
C466 C467 1.358 . S
C466 C471 1.371 . S
C467 H439 0.930 . S
C467 C466 1.358 . S
C467 C468 1.405 . S
C468 H440 0.932 . S
C468 C467 1.405 . S
C468 C469 1.383 . S
C469 C468 1.383 . S
C469 C470 1.393 . S
C470 H442 0.931 . S
C470 C469 1.393 . S
C470 C471 1.382 . S
C471 H441 0.929 . S
C471 C466 1.371 . S
C471 C470 1.382 . S
C472 N435 1.423 . S
C472 C473 1.362 . S
C472 C477 1.388 . S
C473 H443 0.929 . S
C473 C472 1.362 . S
C473 C474 1.376 . S
C474 H445 0.931 . S
C474 C473 1.376 . S
C474 C475 1.396 . S
C475 C474 1.396 . S
C475 C476 1.348 . S
C475 C493 1.472 . S
C476 H446 0.929 . S
C476 C475 1.348 . S
C476 C477 1.443 . S
C477 H444 0.932 . S
C477 C472 1.388 . S
C477 C476 1.443 . S
C478 N458 1.433 . S
C478 C479 1.363 . S
C478 C483 1.370 . S
C479 H447 0.929 . S
C479 C478 1.363 . S
C479 C480 1.385 . S
C480 H448 0.930 . S
C480 C479 1.385 . S
C480 C481 1.357 . S
C481 C480 1.357 . S
C481 C482 1.406 . S
C482 H449 0.929 . S
C482 C481 1.406 . S
C482 C483 1.391 . S
C483 H450 0.931 . S
C483 C478 1.370 . S
C483 C482 1.391 . S
C484 N458 1.435 . S
C484 C485 1.358 . S
C484 C489 1.371 . S
C485 H451 0.930 . S
C485 C484 1.358 . S
C485 C486 1.405 . S
C486 H452 0.932 . S
C486 C485 1.405 . S
C486 C487 1.383 . S
C487 C486 1.383 . S
C487 C488 1.393 . S
C488 H453 0.931 . S
C488 C487 1.393 . S
C488 C489 1.382 . S
C489 H454 0.929 . S
C489 C484 1.371 . S
C489 C488 1.382 . S
C490 N458 1.423 . S
C490 C491 1.362 . S
C490 C495 1.388 . S
C491 H455 0.929 . S
C491 C490 1.362 . S
C491 C492 1.376 . S
C492 H456 0.931 . S
C492 C491 1.376 . S
C492 C493 1.396 . S
C493 C475 1.472 . S
C493 C492 1.396 . S
C493 C494 1.348 . S
C494 H457 0.929 . S
C494 C493 1.348 . S
C494 C495 1.443 . S
C495 H459 0.932 . S
C495 C490 1.388 . S
C495 C494 1.443 . S
C496 O498 1.247 . S
C496 O500 1.258 . S
C497 O504 1.247 . S
C497 O505 1.258 . S
O498 C496 1.247 . S
O498 Zn499 2.028 1_655 S
Zn499 O498 2.028 1_455 S
Zn499 O503 2.035 . S
Zn499 O505 2.035 . S
Zn499 O506 2.028 1_455 S
O500 C496 1.258 . S
O500 Zn501 2.035 1_655 S
Zn501 O500 2.035 1_455 S
Zn501 O502 2.028 . S
Zn501 O504 2.028 . S
Zn501 O507 2.035 1_455 S
O502 Zn501 2.028 . S
O502 C508 1.247 . S
O503 Zn499 2.035 . S
O503 C508 1.258 . S
O504 C497 1.247 . S
O504 Zn501 2.028 . S
O505 C497 1.258 . S
O505 Zn499 2.035 . S
O506 Zn499 2.028 1_655 S
O506 C509 1.247 . S
O507 Zn501 2.035 1_655 S
O507 C509 1.258 . S
C508 O502 1.247 . S
C508 O503 1.258 . S
C509 O506 1.247 . S
C509 O507 1.258 . S
C510 O512 1.247 . S
C510 O514 1.258 . S
C511 O518 1.247 . S
C511 O519 1.258 . S
O512 C510 1.247 . S
O512 Zn513 2.028 . S
Zn513 O512 2.028 . S
Zn513 O517 2.035 1_545 S
Zn513 O519 2.035 1_545 S
Zn513 O520 2.028 . S
O514 C510 1.258 . S
O514 Zn515 2.035 . S
Zn515 O514 2.035 . S
Zn515 O516 2.028 1_545 S
Zn515 O518 2.028 1_545 S
Zn515 O521 2.035 . S
O516 Zn515 2.028 1_565 S
O516 C522 1.247 . S
O517 Zn513 2.035 1_565 S
O517 C522 1.258 . S
O518 C511 1.247 . S
O518 Zn515 2.028 1_565 S
O519 C511 1.258 . S
O519 Zn513 2.035 1_565 S
O520 Zn513 2.028 . S
O520 C523 1.247 . S
O521 Zn515 2.035 . S
O521 C523 1.258 . S
C522 O516 1.247 . S
C522 O517 1.258 . S
C523 O520 1.247 . S
C523 O521 1.258 . S
C524 O526 1.247 . S
C524 O528 1.258 . S
C525 O532 1.247 . S
C525 O533 1.258 . S
O526 C524 1.247 . S
O526 Zn527 2.028 1_655 S
Zn527 O526 2.028 1_455 S
Zn527 O531 2.035 . S
Zn527 O533 2.035 . S
Zn527 O534 2.028 1_455 S
O528 C524 1.258 . S
O528 Zn529 2.035 1_655 S
Zn529 O528 2.035 1_455 S
Zn529 O530 2.028 . S
Zn529 O532 2.028 . S
Zn529 O535 2.035 1_455 S
O530 Zn529 2.028 . S
O530 C536 1.247 . S
O531 Zn527 2.035 . S
O531 C536 1.258 . S
O532 C525 1.247 . S
O532 Zn529 2.028 . S
O533 C525 1.258 . S
O533 Zn527 2.035 . S
O534 Zn527 2.028 1_655 S
O534 C537 1.247 . S
O535 Zn529 2.035 1_655 S
O535 C537 1.258 . S
C536 O530 1.247 . S
C536 O531 1.258 . S
C537 O534 1.247 . S
C537 O535 1.258 . S
C538 O540 1.247 . S
C538 O542 1.258 . S
C539 O546 1.247 . S
C539 O547 1.258 . S
O540 C538 1.247 . S
O540 Zn541 2.028 . S
Zn541 O540 2.028 . S
Zn541 O545 2.035 1_545 S
Zn541 O547 2.035 1_545 S
Zn541 O548 2.028 . S
O542 C538 1.258 . S
O542 Zn543 2.035 . S
Zn543 O542 2.035 . S
Zn543 O544 2.028 1_545 S
Zn543 O546 2.028 1_545 S
Zn543 O549 2.035 . S
O544 Zn543 2.028 1_565 S
O544 C550 1.247 . S
O545 Zn541 2.035 1_565 S
O545 C550 1.258 . S
O546 C539 1.247 . S
O546 Zn543 2.028 1_565 S
O547 C539 1.258 . S
O547 Zn541 2.035 1_565 S
O548 Zn541 2.028 . S
O548 C551 1.247 . S
O549 Zn543 2.035 . S
O549 C551 1.258 . S
C550 O544 1.247 . S
C550 O545 1.258 . S
C551 O548 1.247 . S
C551 O549 1.258 . S
C552 O554 1.247 . S
C552 O556 1.258 . S
C553 O560 1.247 . S
C553 O561 1.258 . S
O554 C552 1.247 . S
O554 Zn555 2.028 . S
Zn555 O554 2.028 . S
Zn555 O559 2.035 . S
Zn555 O561 2.035 1_554 S
Zn555 O562 2.028 1_554 S
O556 C552 1.258 . S
O556 Zn557 2.035 . S
Zn557 O556 2.035 . S
Zn557 O558 2.028 . S
Zn557 O560 2.028 1_554 S
Zn557 O563 2.035 1_554 S
O558 Zn557 2.028 . S
O558 C564 1.247 . S
O559 Zn555 2.035 . S
O559 C564 1.258 . S
O560 C553 1.247 . S
O560 Zn557 2.028 1_556 S
O561 C553 1.258 . S
O561 Zn555 2.035 1_556 S
O562 Zn555 2.028 1_556 S
O562 C565 1.247 . S
O563 Zn557 2.035 1_556 S
O563 C565 1.258 . S
C564 O558 1.247 . S
C564 O559 1.258 . S
C565 O562 1.247 . S
C565 O563 1.258 . S
C566 O568 1.247 . S
C566 O570 1.258 . S
C567 O574 1.247 . S
C567 O575 1.258 . S
O568 C566 1.247 . S
O568 Zn569 2.028 . S
Zn569 O568 2.028 . S
Zn569 O573 2.035 . S
Zn569 O575 2.035 1_554 S
Zn569 O576 2.028 1_554 S
O570 C566 1.258 . S
O570 Zn571 2.035 . S
Zn571 O570 2.035 . S
Zn571 O572 2.028 . S
Zn571 O574 2.028 1_554 S
Zn571 O577 2.035 1_554 S
O572 Zn571 2.028 . S
O572 C578 1.247 . S
O573 Zn569 2.035 . S
O573 C578 1.258 . S
O574 C567 1.247 . S
O574 Zn571 2.028 1_556 S
O575 C567 1.258 . S
O575 Zn569 2.035 1_556 S
O576 Zn569 2.028 1_556 S
O576 C579 1.247 . S
O577 Zn571 2.035 1_556 S
O577 C579 1.258 . S
C578 O572 1.247 . S
C578 O573 1.258 . S
C579 O576 1.247 . S
C579 O577 1.258 . S
C580 O582 1.247 . S
C580 O584 1.258 . S
C581 O588 1.247 . S
C581 O589 1.258 . S
O582 C580 1.247 . S
O582 Zn583 2.028 1_556 S
Zn583 O582 2.028 1_554 S
Zn583 O587 2.035 1_554 S
Zn583 O589 2.035 . S
Zn583 O590 2.028 . S
O584 C580 1.258 . S
O584 Zn585 2.035 1_556 S
Zn585 O584 2.035 1_554 S
Zn585 O586 2.028 1_554 S
Zn585 O588 2.028 . S
Zn585 O591 2.035 . S
O586 Zn585 2.028 1_556 S
O586 C592 1.247 . S
O587 Zn583 2.035 1_556 S
O587 C592 1.258 . S
O588 C581 1.247 . S
O588 Zn585 2.028 . S
O589 C581 1.258 . S
O589 Zn583 2.035 . S
O590 Zn583 2.028 . S
O590 C593 1.247 . S
O591 Zn585 2.035 . S
O591 C593 1.258 . S
C592 O586 1.247 . S
C592 O587 1.258 . S
C593 O590 1.247 . S
C593 O591 1.258 . S
C594 O596 1.247 . S
C594 O598 1.258 . S
C595 O602 1.247 . S
C595 O603 1.258 . S
O596 C594 1.247 . S
O596 Zn597 2.028 . S
Zn597 O596 2.028 . S
Zn597 O601 2.035 . S
Zn597 O603 2.035 1_554 S
Zn597 O604 2.028 1_554 S
O598 C594 1.258 . S
O598 Zn599 2.035 . S
Zn599 O598 2.035 . S
Zn599 O600 2.028 . S
Zn599 O602 2.028 1_554 S
Zn599 O605 2.035 1_554 S
O600 Zn599 2.028 . S
O600 C606 1.247 . S
O601 Zn597 2.035 . S
O601 C606 1.258 . S
O602 C595 1.247 . S
O602 Zn599 2.028 1_556 S
O603 C595 1.258 . S
O603 Zn597 2.035 1_556 S
O604 Zn597 2.028 1_556 S
O604 C607 1.247 . S
O605 Zn599 2.035 1_556 S
O605 C607 1.258 . S
C606 O600 1.247 . S
C606 O601 1.258 . S
C607 O604 1.247 . S
C607 O605 1.258 . S
H608 C614 0.930 . S
H609 C617 0.930 . S
H610 C618 0.930 . S
H611 C619 0.930 . S
H612 C622 0.930 . S
H613 C623 0.930 . S
C614 H608 0.930 . S
C614 C615 1.355 . S
C614 C616 1.415 . S
C615 C614 1.355 . S
C615 C617 1.419 . S
C616 C614 1.415 . S
C616 C621 1.425 . S
C616 C623 1.409 . S
C617 H609 0.930 . S
C617 C615 1.419 . S
C617 C618 1.362 . S
C618 H610 0.930 . S
C618 C617 1.362 . S
C618 C621 1.409 . S
C619 H611 0.930 . S
C619 C620 1.355 . S
C619 C621 1.415 . S
C620 C619 1.355 . S
C620 C622 1.419 . S
C621 C616 1.425 . S
C621 C618 1.409 . S
C621 C619 1.415 . S
C622 H612 0.930 . S
C622 C620 1.419 . S
C622 C623 1.362 . S
C623 H613 0.930 . S
C623 C616 1.409 . S
C623 C622 1.362 . S
H624 C630 0.930 . S
H625 C633 0.930 . S
H626 C634 0.930 . S
H627 C635 0.930 . S
H628 C638 0.930 . S
H629 C639 0.930 . S
C630 H624 0.930 . S
C630 C631 1.355 . S
C630 C632 1.415 . S
C631 C630 1.355 . S
C631 C633 1.419 . S
C632 C630 1.415 . S
C632 C637 1.425 . S
C632 C639 1.409 . S
C633 H625 0.930 . S
C633 C631 1.419 . S
C633 C634 1.362 . S
C634 H626 0.930 . S
C634 C633 1.362 . S
C634 C637 1.409 . S
C635 H627 0.930 . S
C635 C636 1.355 . S
C635 C637 1.415 . S
C636 C635 1.355 . S
C636 C638 1.419 . S
C637 C632 1.425 . S
C637 C634 1.409 . S
C637 C635 1.415 . S
C638 H628 0.930 . S
C638 C636 1.419 . S
C638 C639 1.362 . S
C639 H629 0.930 . S
C639 C632 1.409 . S
C639 C638 1.362 . S
H640 C646 0.930 . S
H641 C649 0.930 . S
H642 C650 0.930 . S
H643 C651 0.930 . S
H644 C654 0.930 . S
H645 C655 0.930 . S
C646 H640 0.930 . S
C646 C647 1.355 . S
C646 C648 1.415 . S
C647 C646 1.355 . S
C647 C649 1.419 . S
C648 C646 1.415 . S
C648 C653 1.425 . S
C648 C655 1.409 . S
C649 H641 0.930 . S
C649 C647 1.419 . S
C649 C650 1.362 . S
C650 H642 0.930 . S
C650 C649 1.362 . S
C650 C653 1.409 . S
C651 H643 0.930 . S
C651 C652 1.355 . S
C651 C653 1.415 . S
C652 C651 1.355 . S
C652 C654 1.419 . S
C653 C648 1.425 . S
C653 C650 1.409 . S
C653 C651 1.415 . S
C654 H644 0.930 . S
C654 C652 1.419 . S
C654 C655 1.362 . S
C655 H645 0.930 . S
C655 C648 1.409 . S
C655 C654 1.362 . S
H656 C662 0.930 . S
H657 C665 0.930 . S
H658 C666 0.930 . S
H659 C667 0.930 . S
H660 C670 0.930 . S
H661 C671 0.930 . S
C662 H656 0.930 . S
C662 C663 1.355 . S
C662 C664 1.415 . S
C663 C662 1.355 . S
C663 C665 1.419 . S
C664 C662 1.415 . S
C664 C669 1.425 . S
C664 C671 1.409 . S
C665 H657 0.930 . S
C665 C663 1.419 . S
C665 C666 1.362 . S
C666 H658 0.930 . S
C666 C665 1.362 . S
C666 C669 1.409 . S
C667 H659 0.930 . S
C667 C668 1.355 . S
C667 C669 1.415 . S
C668 C667 1.355 . S
C668 C670 1.419 . S
C669 C664 1.425 . S
C669 C666 1.409 . S
C669 C667 1.415 . S
C670 H660 0.930 . S
C670 C668 1.419 . S
C670 C671 1.362 . S
C671 H661 0.930 . S
C671 C664 1.409 . S
C671 C670 1.362 . S
H672 C678 0.930 . S
H673 C681 0.930 . S
H674 C682 0.930 . S
H675 C683 0.930 . S
H676 C686 0.930 . S
H677 C687 0.930 . S
C678 H672 0.930 . S
C678 C679 1.355 . S
C678 C680 1.415 . S
C679 C678 1.355 . S
C679 C681 1.419 . S
C680 C678 1.415 . S
C680 C685 1.425 . S
C680 C687 1.409 . S
C681 H673 0.930 . S
C681 C679 1.419 . S
C681 C682 1.362 . S
C682 H674 0.930 . S
C682 C681 1.362 . S
C682 C685 1.409 . S
C683 H675 0.930 . S
C683 C684 1.355 . S
C683 C685 1.415 . S
C684 C683 1.355 . S
C684 C686 1.419 . S
C685 C680 1.425 . S
C685 C682 1.409 . S
C685 C683 1.415 . S
C686 H676 0.930 . S
C686 C684 1.419 . S
C686 C687 1.362 . S
C687 H677 0.930 . S
C687 C680 1.409 . S
C687 C686 1.362 . S
H688 C694 0.930 . S
H689 C697 0.930 . S
H690 C698 0.930 . S
H691 C699 0.930 . S
H692 C702 0.930 . S
H693 C703 0.930 . S
C694 H688 0.930 . S
C694 C695 1.355 . S
C694 C696 1.415 . S
C695 C694 1.355 . S
C695 C697 1.419 . S
C696 C694 1.415 . S
C696 C701 1.425 . S
C696 C703 1.409 . S
C697 H689 0.930 . S
C697 C695 1.419 . S
C697 C698 1.362 . S
C698 H690 0.930 . S
C698 C697 1.362 . S
C698 C701 1.409 . S
C699 H691 0.930 . S
C699 C700 1.355 . S
C699 C701 1.415 . S
C700 C699 1.355 . S
C700 C702 1.419 . S
C701 C696 1.425 . S
C701 C698 1.409 . S
C701 C699 1.415 . S
C702 H692 0.930 . S
C702 C700 1.419 . S
C702 C703 1.362 . S
C703 H693 0.930 . S
C703 C696 1.409 . S
C703 C702 1.362 . S
H704 C710 0.930 . S
H705 C713 0.930 . S
H706 C714 0.930 . S
H707 C715 0.930 . S
H708 C718 0.930 . S
H709 C719 0.930 . S
C710 H704 0.930 . S
C710 C711 1.355 . S
C710 C712 1.415 . S
C711 C710 1.355 . S
C711 C713 1.419 . S
C712 C710 1.415 . S
C712 C717 1.425 . S
C712 C719 1.409 . S
C713 H705 0.930 . S
C713 C711 1.419 . S
C713 C714 1.362 . S
C714 H706 0.930 . S
C714 C713 1.362 . S
C714 C717 1.409 . S
C715 H707 0.930 . S
C715 C716 1.355 . S
C715 C717 1.415 . S
C716 C715 1.355 . S
C716 C718 1.419 . S
C717 C712 1.425 . S
C717 C714 1.409 . S
C717 C715 1.415 . S
C718 H708 0.930 . S
C718 C716 1.419 . S
C718 C719 1.362 . S
C719 H709 0.930 . S
C719 C712 1.409 . S
C719 C718 1.362 . S
H720 C726 0.930 . S
H721 C729 0.930 . S
H722 C730 0.930 . S
H723 C731 0.930 . S
H724 C734 0.930 . S
H725 C735 0.930 . S
C726 H720 0.930 . S
C726 C727 1.355 . S
C726 C728 1.415 . S
C727 C726 1.355 . S
C727 C729 1.419 . S
C728 C726 1.415 . S
C728 C733 1.425 . S
C728 C735 1.409 . S
C729 H721 0.930 . S
C729 C727 1.419 . S
C729 C730 1.362 . S
C730 H722 0.930 . S
C730 C729 1.362 . S
C730 C733 1.409 . S
C731 H723 0.930 . S
C731 C732 1.355 . S
C731 C733 1.415 . S
C732 C731 1.355 . S
C732 C734 1.419 . S
C733 C728 1.425 . S
C733 C730 1.409 . S
C733 C731 1.415 . S
C734 H724 0.930 . S
C734 C732 1.419 . S
C734 C735 1.362 . S
C735 H725 0.930 . S
C735 C728 1.409 . S
C735 C734 1.362 . S
H736 C742 0.930 . S
H737 C745 0.930 . S
H738 C746 0.930 . S
H739 C747 0.930 . S
H740 C750 0.930 . S
H741 C751 0.930 . S
C742 H736 0.930 . S
C742 C743 1.355 . S
C742 C744 1.415 . S
C743 C742 1.355 . S
C743 C745 1.419 . S
C744 C742 1.415 . S
C744 C749 1.425 . S
C744 C751 1.409 . S
C745 H737 0.930 . S
C745 C743 1.419 . S
C745 C746 1.362 . S
C746 H738 0.930 . S
C746 C745 1.362 . S
C746 C749 1.409 . S
C747 H739 0.930 . S
C747 C748 1.355 . S
C747 C749 1.415 . S
C748 C747 1.355 . S
C748 C750 1.419 . S
C749 C744 1.425 . S
C749 C746 1.409 . S
C749 C747 1.415 . S
C750 H740 0.930 . S
C750 C748 1.419 . S
C750 C751 1.362 . S
C751 H741 0.930 . S
C751 C744 1.409 . S
C751 C750 1.362 . S
H752 C758 0.930 . S
H753 C761 0.930 . S
H754 C762 0.930 . S
H755 C763 0.930 . S
H756 C766 0.930 . S
H757 C767 0.930 . S
C758 H752 0.930 . S
C758 C759 1.355 . S
C758 C760 1.415 . S
C759 C758 1.355 . S
C759 C761 1.419 . S
C760 C758 1.415 . S
C760 C765 1.425 . S
C760 C767 1.409 . S
C761 H753 0.930 . S
C761 C759 1.419 . S
C761 C762 1.362 . S
C762 H754 0.930 . S
C762 C761 1.362 . S
C762 C765 1.409 . S
C763 H755 0.930 . S
C763 C764 1.355 . S
C763 C765 1.415 . S
C764 C763 1.355 . S
C764 C766 1.419 . S
C765 C760 1.425 . S
C765 C762 1.409 . S
C765 C763 1.415 . S
C766 H756 0.930 . S
C766 C764 1.419 . S
C766 C767 1.362 . S
C767 H757 0.930 . S
C767 C760 1.409 . S
C767 C766 1.362 . S
H768 C774 0.930 . S
H769 C777 0.930 . S
H770 C778 0.930 . S
H771 C779 0.930 . S
H772 C782 0.930 . S
H773 C783 0.930 . S
C774 H768 0.930 . S
C774 C775 1.355 . S
C774 C776 1.415 . S
C775 C774 1.355 . S
C775 C777 1.419 . S
C776 C774 1.415 . S
C776 C781 1.425 . S
C776 C783 1.409 . S
C777 H769 0.930 . S
C777 C775 1.419 . S
C777 C778 1.362 . S
C778 H770 0.930 . S
C778 C777 1.362 . S
C778 C781 1.409 . S
C779 H771 0.930 . S
C779 C780 1.355 . S
C779 C781 1.415 . S
C780 C779 1.355 . S
C780 C782 1.419 . S
C781 C776 1.425 . S
C781 C778 1.409 . S
C781 C779 1.415 . S
C782 H772 0.930 . S
C782 C780 1.419 . S
C782 C783 1.362 . S
C783 H773 0.930 . S
C783 C776 1.409 . S
C783 C782 1.362 . S
H784 C790 0.930 . S
H785 C793 0.930 . S
H786 C794 0.930 . S
H787 C795 0.930 . S
H788 C798 0.930 . S
H789 C799 0.930 . S
C790 H784 0.930 . S
C790 C791 1.355 . S
C790 C792 1.415 . S
C791 C790 1.355 . S
C791 C793 1.419 . S
C792 C790 1.415 . S
C792 C797 1.425 . S
C792 C799 1.409 . S
C793 H785 0.930 . S
C793 C791 1.419 . S
C793 C794 1.362 . S
C794 H786 0.930 . S
C794 C793 1.362 . S
C794 C797 1.409 . S
C795 H787 0.930 . S
C795 C796 1.355 . S
C795 C797 1.415 . S
C796 C795 1.355 . S
C796 C798 1.419 . S
C797 C792 1.425 . S
C797 C794 1.409 . S
C797 C795 1.415 . S
C798 H788 0.930 . S
C798 C796 1.419 . S
C798 C799 1.362 . S
C799 H789 0.930 . S
C799 C792 1.409 . S
C799 C798 1.362 . S
H800 C806 0.930 . S
H801 C809 0.930 . S
H802 C810 0.930 . S
H803 C811 0.930 . S
H804 C814 0.930 . S
H805 C815 0.930 . S
C806 H800 0.930 . S
C806 C807 1.355 . S
C806 C808 1.415 . S
C807 C806 1.355 . S
C807 C809 1.419 . S
C808 C806 1.415 . S
C808 C813 1.425 . S
C808 C815 1.409 . S
C809 H801 0.930 . S
C809 C807 1.419 . S
C809 C810 1.362 . S
C810 H802 0.930 . S
C810 C809 1.362 . S
C810 C813 1.409 . S
C811 H803 0.930 . S
C811 C812 1.355 . S
C811 C813 1.415 . S
C812 C811 1.355 . S
C812 C814 1.419 . S
C813 C808 1.425 . S
C813 C810 1.409 . S
C813 C811 1.415 . S
C814 H804 0.930 . S
C814 C812 1.419 . S
C814 C815 1.362 . S
C815 H805 0.930 . S
C815 C808 1.409 . S
C815 C814 1.362 . S
H816 C822 0.930 . S
H817 C825 0.930 . S
H818 C826 0.930 . S
H819 C827 0.930 . S
H820 C830 0.930 . S
H821 C831 0.930 . S
C822 H816 0.930 . S
C822 C823 1.355 . S
C822 C824 1.415 . S
C823 C822 1.355 . S
C823 C825 1.419 . S
C824 C822 1.415 . S
C824 C829 1.425 . S
C824 C831 1.409 . S
C825 H817 0.930 . S
C825 C823 1.419 . S
C825 C826 1.362 . S
C826 H818 0.930 . S
C826 C825 1.362 . S
C826 C829 1.409 . S
C827 H819 0.930 . S
C827 C828 1.355 . S
C827 C829 1.415 . S
C828 C827 1.355 . S
C828 C830 1.419 . S
C829 C824 1.425 . S
C829 C826 1.409 . S
C829 C827 1.415 . S
C830 H820 0.930 . S
C830 C828 1.419 . S
C830 C831 1.362 . S
C831 H821 0.930 . S
C831 C824 1.409 . S
C831 C830 1.362 . S
H832 C838 0.930 . S
H833 C841 0.930 . S
H834 C842 0.930 . S
H835 C843 0.930 . S
H836 C846 0.930 . S
H837 C847 0.930 . S
C838 H832 0.930 . S
C838 C839 1.355 . S
C838 C840 1.415 . S
C839 C838 1.355 . S
C839 C841 1.419 . S
C840 C838 1.415 . S
C840 C845 1.425 . S
C840 C847 1.409 . S
C841 H833 0.930 . S
C841 C839 1.419 . S
C841 C842 1.362 . S
C842 H834 0.930 . S
C842 C841 1.362 . S
C842 C845 1.409 . S
C843 H835 0.930 . S
C843 C844 1.355 . S
C843 C845 1.415 . S
C844 C843 1.355 . S
C844 C846 1.419 . S
C845 C840 1.425 . S
C845 C842 1.409 . S
C845 C843 1.415 . S
C846 H836 0.930 . S
C846 C844 1.419 . S
C846 C847 1.362 . S
C847 H837 0.930 . S
C847 C840 1.409 . S
C847 C846 1.362 . S
H848 C854 0.930 . S
H849 C857 0.930 . S
H850 C858 0.930 . S
H851 C859 0.930 . S
H852 C862 0.930 . S
H853 C863 0.930 . S
C854 H848 0.930 . S
C854 C855 1.355 . S
C854 C856 1.415 . S
C855 C854 1.355 . S
C855 C857 1.419 . S
C856 C854 1.415 . S
C856 C861 1.425 . S
C856 C863 1.409 . S
C857 H849 0.930 . S
C857 C855 1.419 . S
C857 C858 1.362 . S
C858 H850 0.930 . S
C858 C857 1.362 . S
C858 C861 1.409 . S
C859 H851 0.930 . S
C859 C860 1.355 . S
C859 C861 1.415 . S
C860 C859 1.355 . S
C860 C862 1.419 . S
C861 C856 1.425 . S
C861 C858 1.409 . S
C861 C859 1.415 . S
C862 H852 0.930 . S
C862 C860 1.419 . S
C862 C863 1.362 . S
C863 H853 0.930 . S
C863 C856 1.409 . S
C863 C862 1.362 . S
H864 C870 0.930 . S
H865 C873 0.930 . S
H866 C874 0.930 . S
H867 C875 0.930 . S
H868 C878 0.930 . S
H869 C879 0.930 . S
C870 H864 0.930 . S
C870 C871 1.355 . S
C870 C872 1.415 . S
C871 C870 1.355 . S
C871 C873 1.419 . S
C872 C870 1.415 . S
C872 C877 1.425 . S
C872 C879 1.409 . S
C873 H865 0.930 . S
C873 C871 1.419 . S
C873 C874 1.362 . S
C874 H866 0.930 . S
C874 C873 1.362 . S
C874 C877 1.409 . S
C875 H867 0.930 . S
C875 C876 1.355 . S
C875 C877 1.415 . S
C876 C875 1.355 . S
C876 C878 1.419 . S
C877 C872 1.425 . S
C877 C874 1.409 . S
C877 C875 1.415 . S
C878 H868 0.930 . S
C878 C876 1.419 . S
C878 C879 1.362 . S
C879 H869 0.930 . S
C879 C872 1.409 . S
C879 C878 1.362 . S
H880 C886 0.930 . S
H881 C889 0.930 . S
H882 C890 0.930 . S
H883 C891 0.930 . S
H884 C894 0.930 . S
H885 C895 0.930 . S
C886 H880 0.930 . S
C886 C887 1.355 . S
C886 C888 1.415 . S
C887 C886 1.355 . S
C887 C889 1.419 . S
C888 C886 1.415 . S
C888 C893 1.425 . S
C888 C895 1.409 . S
C889 H881 0.930 . S
C889 C887 1.419 . S
C889 C890 1.362 . S
C890 H882 0.930 . S
C890 C889 1.362 . S
C890 C893 1.409 . S
C891 H883 0.930 . S
C891 C892 1.355 . S
C891 C893 1.415 . S
C892 C891 1.355 . S
C892 C894 1.419 . S
C893 C888 1.425 . S
C893 C890 1.409 . S
C893 C891 1.415 . S
C894 H884 0.930 . S
C894 C892 1.419 . S
C894 C895 1.362 . S
C895 H885 0.930 . S
C895 C888 1.409 . S
C895 C894 1.362 . S
H896 C902 0.930 . S
H897 C905 0.930 . S
H898 C906 0.930 . S
H899 C907 0.930 . S
H900 C910 0.930 . S
H901 C911 0.930 . S
C902 H896 0.930 . S
C902 C903 1.355 . S
C902 C904 1.415 . S
C903 C902 1.355 . S
C903 C905 1.419 . S
C904 C902 1.415 . S
C904 C909 1.425 . S
C904 C911 1.409 . S
C905 H897 0.930 . S
C905 C903 1.419 . S
C905 C906 1.362 . S
C906 H898 0.930 . S
C906 C905 1.362 . S
C906 C909 1.409 . S
C907 H899 0.930 . S
C907 C908 1.355 . S
C907 C909 1.415 . S
C908 C907 1.355 . S
C908 C910 1.419 . S
C909 C904 1.425 . S
C909 C906 1.409 . S
C909 C907 1.415 . S
C910 H900 0.930 . S
C910 C908 1.419 . S
C910 C911 1.362 . S
C911 H901 0.930 . S
C911 C904 1.409 . S
C911 C910 1.362 . S
H912 C918 0.930 . S
H913 C921 0.930 . S
H914 C922 0.930 . S
H915 C923 0.930 . S
H916 C926 0.930 . S
H917 C927 0.930 . S
C918 H912 0.930 . S
C918 C919 1.355 . S
C918 C920 1.415 . S
C919 C918 1.355 . S
C919 C921 1.419 . S
C920 C918 1.415 . S
C920 C925 1.425 . S
C920 C927 1.409 . S
C921 H913 0.930 . S
C921 C919 1.419 . S
C921 C922 1.362 . S
C922 H914 0.930 . S
C922 C921 1.362 . S
C922 C925 1.409 . S
C923 H915 0.930 . S
C923 C924 1.355 . S
C923 C925 1.415 . S
C924 C923 1.355 . S
C924 C926 1.419 . S
C925 C920 1.425 . S
C925 C922 1.409 . S
C925 C923 1.415 . S
C926 H916 0.930 . S
C926 C924 1.419 . S
C926 C927 1.362 . S
C927 H917 0.930 . S
C927 C920 1.409 . S
C927 C926 1.362 . S
H928 C934 0.930 . S
H929 C937 0.930 . S
H930 C938 0.930 . S
H931 C939 0.930 . S
H932 C942 0.930 . S
H933 C943 0.930 . S
C934 H928 0.930 . S
C934 C935 1.355 . S
C934 C936 1.415 . S
C935 C934 1.355 . S
C935 C937 1.419 . S
C936 C934 1.415 . S
C936 C941 1.425 . S
C936 C943 1.409 . S
C937 H929 0.930 . S
C937 C935 1.419 . S
C937 C938 1.362 . S
C938 H930 0.930 . S
C938 C937 1.362 . S
C938 C941 1.409 . S
C939 H931 0.930 . S
C939 C940 1.355 . S
C939 C941 1.415 . S
C940 C939 1.355 . S
C940 C942 1.419 . S
C941 C936 1.425 . S
C941 C938 1.409 . S
C941 C939 1.415 . S
C942 H932 0.930 . S
C942 C940 1.419 . S
C942 C943 1.362 . S
C943 H933 0.930 . S
C943 C936 1.409 . S
C943 C942 1.362 . S
H944 C950 0.930 . S
H945 C953 0.930 . S
H946 C954 0.930 . S
H947 C955 0.930 . S
H948 C958 0.930 . S
H949 C959 0.930 . S
C950 H944 0.930 . S
C950 C951 1.355 . S
C950 C952 1.415 . S
C951 C950 1.355 . S
C951 C953 1.419 . S
C952 C950 1.415 . S
C952 C957 1.425 . S
C952 C959 1.409 . S
C953 H945 0.930 . S
C953 C951 1.419 . S
C953 C954 1.362 . S
C954 H946 0.930 . S
C954 C953 1.362 . S
C954 C957 1.409 . S
C955 H947 0.930 . S
C955 C956 1.355 . S
C955 C957 1.415 . S
C956 C955 1.355 . S
C956 C958 1.419 . S
C957 C952 1.425 . S
C957 C954 1.409 . S
C957 C955 1.415 . S
C958 H948 0.930 . S
C958 C956 1.419 . S
C958 C959 1.362 . S
C959 H949 0.930 . S
C959 C952 1.409 . S
C959 C958 1.362 . S
H960 C966 0.930 . S
H961 C969 0.930 . S
H962 C970 0.930 . S
H963 C971 0.930 . S
H964 C974 0.930 . S
H965 C975 0.930 . S
C966 H960 0.930 . S
C966 C967 1.355 . S
C966 C968 1.415 . S
C967 C966 1.355 . S
C967 C969 1.419 . S
C968 C966 1.415 . S
C968 C973 1.425 . S
C968 C975 1.409 . S
C969 H961 0.930 . S
C969 C967 1.419 . S
C969 C970 1.362 . S
C970 H962 0.930 . S
C970 C969 1.362 . S
C970 C973 1.409 . S
C971 H963 0.930 . S
C971 C972 1.355 . S
C971 C973 1.415 . S
C972 C971 1.355 . S
C972 C974 1.419 . S
C973 C968 1.425 . S
C973 C970 1.409 . S
C973 C971 1.415 . S
C974 H964 0.930 . S
C974 C972 1.419 . S
C974 C975 1.362 . S
C975 H965 0.930 . S
C975 C968 1.409 . S
C975 C974 1.362 . S
H976 C982 0.930 . S
H977 C985 0.930 . S
H978 C986 0.930 . S
H979 C987 0.930 . S
H980 C990 0.930 . S
H981 C991 0.930 . S
C982 H976 0.930 . S
C982 C983 1.355 . S
C982 C984 1.415 . S
C983 C982 1.355 . S
C983 C985 1.419 . S
C984 C982 1.415 . S
C984 C989 1.425 . S
C984 C991 1.409 . S
C985 H977 0.930 . S
C985 C983 1.419 . S
C985 C986 1.362 . S
C986 H978 0.930 . S
C986 C985 1.362 . S
C986 C989 1.409 . S
C987 H979 0.930 . S
C987 C988 1.355 . S
C987 C989 1.415 . S
C988 C987 1.355 . S
C988 C990 1.419 . S
C989 C984 1.425 . S
C989 C986 1.409 . S
C989 C987 1.415 . S
C990 H980 0.930 . S
C990 C988 1.419 . S
C990 C991 1.362 . S
C991 H981 0.930 . S
C991 C984 1.409 . S
C991 C990 1.362 . S
H992 C998 0.930 . S
H993 C1001 0.930 . S
H994 C1002 0.930 . S
H995 C1003 0.930 . S
H996 C1006 0.930 . S
H997 C1007 0.930 . S
C998 H992 0.930 . S
C998 C999 1.355 . S
C998 C1000 1.415 . S
C999 C998 1.355 . S
C999 C1001 1.419 . S
C1000 C998 1.415 . S
C1000 C1005 1.425 . S
C1000 C1007 1.409 . S
C1001 H993 0.930 . S
C1001 C999 1.419 . S
C1001 C1002 1.362 . S
C1002 H994 0.930 . S
C1002 C1001 1.362 . S
C1002 C1005 1.409 . S
C1003 H995 0.930 . S
C1003 C1004 1.355 . S
C1003 C1005 1.415 . S
C1004 C1003 1.355 . S
C1004 C1006 1.419 . S
C1005 C1000 1.425 . S
C1005 C1002 1.409 . S
C1005 C1003 1.415 . S
C1006 H996 0.930 . S
C1006 C1004 1.419 . S
C1006 C1007 1.362 . S
C1007 H997 0.930 . S
C1007 C1000 1.409 . S
C1007 C1006 1.362 . S
H1008 C1014 0.930 . S
H1009 C1017 0.930 . S
H1010 C1018 0.930 . S
H1011 C1019 0.930 . S
H1012 C1022 0.930 . S
H1013 C1023 0.930 . S
C1014 H1008 0.930 . S
C1014 C1015 1.355 . S
C1014 C1016 1.415 . S
C1015 C1014 1.355 . S
C1015 C1017 1.419 . S
C1016 C1014 1.415 . S
C1016 C1021 1.425 . S
C1016 C1023 1.409 . S
C1017 H1009 0.930 . S
C1017 C1015 1.419 . S
C1017 C1018 1.362 . S
C1018 H1010 0.930 . S
C1018 C1017 1.362 . S
C1018 C1021 1.409 . S
C1019 H1011 0.930 . S
C1019 C1020 1.355 . S
C1019 C1021 1.415 . S
C1020 C1019 1.355 . S
C1020 C1022 1.419 . S
C1021 C1016 1.425 . S
C1021 C1018 1.409 . S
C1021 C1019 1.415 . S
C1022 H1012 0.930 . S
C1022 C1020 1.419 . S
C1022 C1023 1.362 . S
C1023 H1013 0.930 . S
C1023 C1016 1.409 . S
C1023 C1022 1.362 . S
H1024 C1030 0.930 . S
H1025 C1033 0.930 . S
H1026 C1034 0.930 . S
H1027 C1035 0.930 . S
H1028 C1038 0.930 . S
H1029 C1039 0.930 . S
C1030 H1024 0.930 . S
C1030 C1031 1.355 . S
C1030 C1032 1.415 . S
C1031 C1030 1.355 . S
C1031 C1033 1.419 . S
C1032 C1030 1.415 . S
C1032 C1037 1.425 . S
C1032 C1039 1.409 . S
C1033 H1025 0.930 . S
C1033 C1031 1.419 . S
C1033 C1034 1.362 . S
C1034 H1026 0.930 . S
C1034 C1033 1.362 . S
C1034 C1037 1.409 . S
C1035 H1027 0.930 . S
C1035 C1036 1.355 . S
C1035 C1037 1.415 . S
C1036 C1035 1.355 . S
C1036 C1038 1.419 . S
C1037 C1032 1.425 . S
C1037 C1034 1.409 . S
C1037 C1035 1.415 . S
C1038 H1028 0.930 . S
C1038 C1036 1.419 . S
C1038 C1039 1.362 . S
C1039 H1029 0.930 . S
C1039 C1032 1.409 . S
C1039 C1038 1.362 . S
H1040 C1046 0.930 . S
H1041 C1049 0.930 . S
H1042 C1050 0.930 . S
H1043 C1051 0.930 . S
H1044 C1054 0.930 . S
H1045 C1055 0.930 . S
C1046 H1040 0.930 . S
C1046 C1047 1.355 . S
C1046 C1048 1.415 . S
C1047 C1046 1.355 . S
C1047 C1049 1.419 . S
C1048 C1046 1.415 . S
C1048 C1053 1.425 . S
C1048 C1055 1.409 . S
C1049 H1041 0.930 . S
C1049 C1047 1.419 . S
C1049 C1050 1.362 . S
C1050 H1042 0.930 . S
C1050 C1049 1.362 . S
C1050 C1053 1.409 . S
C1051 H1043 0.930 . S
C1051 C1052 1.355 . S
C1051 C1053 1.415 . S
C1052 C1051 1.355 . S
C1052 C1054 1.419 . S
C1053 C1048 1.425 . S
C1053 C1050 1.409 . S
C1053 C1051 1.415 . S
C1054 H1044 0.930 . S
C1054 C1052 1.419 . S
C1054 C1055 1.362 . S
C1055 H1045 0.930 . S
C1055 C1048 1.409 . S
C1055 C1054 1.362 . S
H1056 C1062 0.930 . S
H1057 C1065 0.930 . S
H1058 C1066 0.930 . S
H1059 C1067 0.930 . S
H1060 C1070 0.930 . S
H1061 C1071 0.930 . S
C1062 H1056 0.930 . S
C1062 C1063 1.355 . S
C1062 C1064 1.415 . S
C1063 C1062 1.355 . S
C1063 C1065 1.419 . S
C1064 C1062 1.415 . S
C1064 C1069 1.425 . S
C1064 C1071 1.409 . S
C1065 H1057 0.930 . S
C1065 C1063 1.419 . S
C1065 C1066 1.362 . S
C1066 H1058 0.930 . S
C1066 C1065 1.362 . S
C1066 C1069 1.409 . S
C1067 H1059 0.930 . S
C1067 C1068 1.355 . S
C1067 C1069 1.415 . S
C1068 C1067 1.355 . S
C1068 C1070 1.419 . S
C1069 C1064 1.425 . S
C1069 C1066 1.409 . S
C1069 C1067 1.415 . S
C1070 H1060 0.930 . S
C1070 C1068 1.419 . S
C1070 C1071 1.362 . S
C1071 H1061 0.930 . S
C1071 C1064 1.409 . S
C1071 C1070 1.362 . S
H1072 C1078 0.930 . S
H1073 C1081 0.930 . S
H1074 C1082 0.930 . S
H1075 C1083 0.930 . S
H1076 C1086 0.930 . S
H1077 C1087 0.930 . S
C1078 H1072 0.930 . S
C1078 C1079 1.355 . S
C1078 C1080 1.415 . S
C1079 C1078 1.355 . S
C1079 C1081 1.419 . S
C1080 C1078 1.415 . S
C1080 C1085 1.425 . S
C1080 C1087 1.409 . S
C1081 H1073 0.930 . S
C1081 C1079 1.419 . S
C1081 C1082 1.362 . S
C1082 H1074 0.930 . S
C1082 C1081 1.362 . S
C1082 C1085 1.409 . S
C1083 H1075 0.930 . S
C1083 C1084 1.355 . S
C1083 C1085 1.415 . S
C1084 C1083 1.355 . S
C1084 C1086 1.419 . S
C1085 C1080 1.425 . S
C1085 C1082 1.409 . S
C1085 C1083 1.415 . S
C1086 H1076 0.930 . S
C1086 C1084 1.419 . S
C1086 C1087 1.362 . S
C1087 H1077 0.930 . S
C1087 C1080 1.409 . S
C1087 C1086 1.362 . S
H1088 C1094 0.930 . S
H1089 C1097 0.930 . S
H1090 C1098 0.930 . S
H1091 C1099 0.930 . S
H1092 C1102 0.930 . S
H1093 C1103 0.930 . S
C1094 H1088 0.930 . S
C1094 C1095 1.355 . S
C1094 C1096 1.415 . S
C1095 C1094 1.355 . S
C1095 C1097 1.419 . S
C1096 C1094 1.415 . S
C1096 C1101 1.425 . S
C1096 C1103 1.409 . S
C1097 H1089 0.930 . S
C1097 C1095 1.419 . S
C1097 C1098 1.362 . S
C1098 H1090 0.930 . S
C1098 C1097 1.362 . S
C1098 C1101 1.409 . S
C1099 H1091 0.930 . S
C1099 C1100 1.355 . S
C1099 C1101 1.415 . S
C1100 C1099 1.355 . S
C1100 C1102 1.419 . S
C1101 C1096 1.425 . S
C1101 C1098 1.409 . S
C1101 C1099 1.415 . S
C1102 H1092 0.930 . S
C1102 C1100 1.419 . S
C1102 C1103 1.362 . S
C1103 H1093 0.930 . S
C1103 C1096 1.409 . S
C1103 C1102 1.362 . S
H1104 C1110 0.930 . S
H1105 C1113 0.930 . S
H1106 C1114 0.930 . S
H1107 C1115 0.930 . S
H1108 C1118 0.930 . S
H1109 C1119 0.930 . S
C1110 H1104 0.930 . S
C1110 C1111 1.355 . S
C1110 C1112 1.415 . S
C1111 C1110 1.355 . S
C1111 C1113 1.419 . S
C1112 C1110 1.415 . S
C1112 C1117 1.425 . S
C1112 C1119 1.409 . S
C1113 H1105 0.930 . S
C1113 C1111 1.419 . S
C1113 C1114 1.362 . S
C1114 H1106 0.930 . S
C1114 C1113 1.362 . S
C1114 C1117 1.409 . S
C1115 H1107 0.930 . S
C1115 C1116 1.355 . S
C1115 C1117 1.415 . S
C1116 C1115 1.355 . S
C1116 C1118 1.419 . S
C1117 C1112 1.425 . S
C1117 C1114 1.409 . S
C1117 C1115 1.415 . S
C1118 H1108 0.930 . S
C1118 C1116 1.419 . S
C1118 C1119 1.362 . S
C1119 H1109 0.930 . S
C1119 C1112 1.409 . S
C1119 C1118 1.362 . S
C620 C497 1.603 . S
C615 C47 1.518 . S
C636 C523 1.481 . S
C631 C115 1.433 . S
C652 C537 1.580 . S
C647 C153 1.467 . S
C668 C539 1.667 . S
C663 C233 1.499 . S
C679 C283 1.417 . S
C684 C536 1.476 . S
C700 C538 1.598 . S
C695 C357 1.456 . S
C716 C496 1.677 . S
C711 C401 1.549 . S
C732 C522 1.555 . S
C727 C463 1.373 . S
C748 C524 1.381 . S
C743 C469 1.323 . S
C764 C550 1.536 . S
C759 C277 1.435 . S
C780 C508 1.521 . S
C775 C363 1.507 . S
C796 C510 1.373 . S
C791 C407 1.331 . S
C812 C509 1.536 . S
C807 C109 1.455 . S
C828 C511 1.381 . S
C823 C159 1.323 . S
C844 C525 1.378 . S
C839 C239 1.342 . S
C860 C551 1.532 . S
C855 C53 1.501 . S
C876 C553 1.603 . S
C871 C481 1.452 . S
C887 C301 1.456 . S
C892 C579 1.488 . S
C903 C339 1.466 . S
C908 C592 1.578 . S
C919 C419 1.512 . S
C924 C595 1.671 . S
C935 C97 1.420 . S
C940 C593 1.478 . S
C951 C171 1.482 . S
C956 C594 1.607 . S
C967 C215 1.563 . S
C972 C552 1.679 . S
C988 C578 1.570 . S
C983 C29 1.420 . S
C1004 C581 1.381 . S
C999 C35 1.323 . S
C1015 C91 1.422 . S
C1020 C606 1.535 . S
C1031 C177 1.533 . S
C1036 C564 1.521 . S
C1047 C221 1.381 . S
C1052 C566 1.381 . S
C1068 C565 1.535 . S
C1063 C295 1.472 . S
C1084 C567 1.381 . S
C1079 C345 1.327 . S
C1095 C425 1.343 . S
C1100 C580 1.373 . S
C1116 C607 1.534 . S
C1111 C487 1.507 . S
