# Generated by pormake.
# Topology nom, (4,4)-cn, num edge types: 1
# Building blocks:
#     Node 0, Type 0, BuildingBlock: KUFVIS_clean_linker_0, # of connection points: 4
#     Node 1, Type 0, BuildingBlock: KUFVIS_clean_linker_0, # of connection points: 4
#     Node 2, Type 0, BuildingBlock: KUFVIS_clean_linker_0, # of connection points: 4
#     Node 3, Type 0, BuildingBlock: KUFVIS_clean_linker_0, # of connection points: 4
#     Node 4, Type 0, BuildingBlock: KUFVIS_clean_linker_0, # of connection points: 4
#     Node 5, Type 0, BuildingBlock: KUFVIS_clean_linker_0, # of connection points: 4
#     Node 6, Type 1, BuildingBlock: NAHDIM_clean_sbu_0, # of connection points: 4
#     Node 7, Type 1, BuildingBlock: NAHDIM_clean_sbu_0, # of connection points: 4
#     Node 8, Type 1, BuildingBlock: NAHDIM_clean_sbu_0, # of connection points: 4
#     Node 9, Type 1, BuildingBlock: NAHDIM_clean_sbu_0, # of connection points: 4
#     Node 10, Type 1, BuildingBlock: NAHDIM_clean_sbu_0, # of connection points: 4
#     Node 11, Type 1, BuildingBlock: NAHDIM_clean_sbu_0, # of connection points: 4
#     Edge 12, Type (0, 1), BuildingBlock: KIFKEQ_clean_linker_1, # of connection points: 2
#     Edge 13, Type (0, 1), BuildingBlock: KIFKEQ_clean_linker_1, # of connection points: 2
#     Edge 14, Type (0, 1), BuildingBlock: KIFKEQ_clean_linker_1, # of connection points: 2
#     Edge 15, Type (0, 1), BuildingBlock: KIFKEQ_clean_linker_1, # of connection points: 2
#     Edge 16, Type (0, 1), BuildingBlock: KIFKEQ_clean_linker_1, # of connection points: 2
#     Edge 17, Type (0, 1), BuildingBlock: KIFKEQ_clean_linker_1, # of connection points: 2
#     Edge 18, Type (0, 1), BuildingBlock: KIFKEQ_clean_linker_1, # of connection points: 2
#     Edge 19, Type (0, 1), BuildingBlock: KIFKEQ_clean_linker_1, # of connection points: 2
#     Edge 20, Type (0, 1), BuildingBlock: KIFKEQ_clean_linker_1, # of connection points: 2
#     Edge 21, Type (0, 1), BuildingBlock: KIFKEQ_clean_linker_1, # of connection points: 2
#     Edge 22, Type (0, 1), BuildingBlock: KIFKEQ_clean_linker_1, # of connection points: 2
#     Edge 23, Type (0, 1), BuildingBlock: KIFKEQ_clean_linker_1, # of connection points: 2
#     Edge 24, Type (0, 1), BuildingBlock: KIFKEQ_clean_linker_1, # of connection points: 2
#     Edge 25, Type (0, 1), BuildingBlock: KIFKEQ_clean_linker_1, # of connection points: 2
#     Edge 26, Type (0, 1), BuildingBlock: KIFKEQ_clean_linker_1, # of connection points: 2
#     Edge 27, Type (0, 1), BuildingBlock: KIFKEQ_clean_linker_1, # of connection points: 2
#     Edge 28, Type (0, 1), BuildingBlock: KIFKEQ_clean_linker_1, # of connection points: 2
#     Edge 29, Type (0, 1), BuildingBlock: KIFKEQ_clean_linker_1, # of connection points: 2
#     Edge 30, Type (0, 1), BuildingBlock: KIFKEQ_clean_linker_1, # of connection points: 2
#     Edge 31, Type (0, 1), BuildingBlock: KIFKEQ_clean_linker_1, # of connection points: 2
#     Edge 32, Type (0, 1), BuildingBlock: KIFKEQ_clean_linker_1, # of connection points: 2
#     Edge 33, Type (0, 1), BuildingBlock: KIFKEQ_clean_linker_1, # of connection points: 2
#     Edge 34, Type (0, 1), BuildingBlock: KIFKEQ_clean_linker_1, # of connection points: 2
#     Edge 35, Type (0, 1), BuildingBlock: KIFKEQ_clean_linker_1, # of connection points: 2
# Relax obj value: 0.021
# Max RMSD: 0.123
# Mean RMSD: 0.082
data_MOF--net-nom--node1-NAHDIM_clean_sbu_0--node2-KUFVIS_clean_linker_0--edge1-KIFKEQ_clean_linker_1
_symmetry_space_group_name_H-M    P1
_symmetry_Int_Tables_number       1
_symmetry_cell_setting            triclinic
loop_
_symmetry_equiv_pos_as_xyz
'x, y, z'
_cell_length_a     45.534185
_cell_length_b     46.883202
_cell_length_c     47.548144
_cell_angle_alpha  90.158592
_cell_angle_beta   90.561083
_cell_angle_gamma 120.98357
loop_
_atom_site_label
_atom_site_type_symbol
_atom_site_fract_x
_atom_site_fract_y
_atom_site_fract_z
_atom_type_partial_charge
H0 H 0.1349 0.60975 0.32398 0.0
H1 H 0.05147 0.576 0.26529 0.0
H2 H 0.03306 0.54038 0.35111 0.0
H3 H 0.98493 0.54229 0.34398 0.0
H4 H 0.90093 0.49016 0.28631 0.0
H5 H 1.00311 0.52594 0.25773 0.0
C6 C 0.10764 0.59462 0.31942 0.0
C7 C 0.08517 0.57565 0.34072 0.0
C8 C 0.09564 0.59416 0.29222 0.0
C9 C 0.06041 0.57489 0.2862 0.0
C10 C 0.03704 0.55544 0.30741 0.0
C11 C 0.05007 0.55547 0.33454 0.0
C12 C 0.99919 0.53634 0.30167 0.0
C13 C 0.97589 0.53198 0.32312 0.0
C14 C 0.94059 0.51516 0.31749 0.0
C15 C 0.92833 0.50313 0.29043 0.0
C16 C 0.95072 0.50745 0.2687 0.0
C17 C 0.98604 0.52333 0.27452 0.0
H18 H 0.571 0.12985 0.49451 0.0
H19 H 0.50918 0.05295 0.43484 0.0
H20 H 0.51836 0.02841 0.52109 0.0
H21 H 0.46725 0.98408 0.51175 0.0
H22 H 0.43142 0.90472 0.45159 0.0
H23 H 0.50476 1.00377 0.42628 0.0
C24 C 0.55497 0.10355 0.48949 0.0
C25 C 0.54553 0.08013 0.51086 0.0
C26 C 0.54218 0.09379 0.46211 0.0
C27 C 0.51983 0.05992 0.45591 0.0
C28 C 0.5113 0.03547 0.47681 0.0
C29 C 0.52428 0.04618 0.50443 0.0
C30 C 0.48889 0.99909 0.46988 0.0
C31 C 0.46803 0.97597 0.49059 0.0
C32 C 0.4473 0.94199 0.48396 0.0
C33 C 0.44683 0.93109 0.45651 0.0
C34 C 0.46694 0.95326 0.43558 0.0
C35 C 0.48846 0.98706 0.44244 0.0
H36 H 0.55681 0.44476 0.61532 0.0
H37 H 0.50516 0.46856 0.67767 0.0
H38 H 0.51709 0.50682 0.59295 0.0
H39 H 0.46902 0.50675 0.60415 0.0
H40 H 0.45597 0.56593 0.6658 0.0
H41 H 0.5124 0.51909 0.68802 0.0
C42 C 0.54382 0.45776 0.6214 0.0
C43 C 0.53751 0.47553 0.60122 0.0
C44 C 0.53246 0.45536 0.64897 0.0
C45 C 0.51448 0.47119 0.65641 0.0
C46 C 0.50908 0.4906 0.63655 0.0
C47 C 0.5205 0.49215 0.60874 0.0
C48 C 0.49298 0.51029 0.64491 0.0
C49 C 0.474 0.51724 0.62519 0.0
C50 C 0.46162 0.5382 0.63242 0.0
C51 C 0.46687 0.551 0.6598 0.0
C52 C 0.48454 0.54369 0.67994 0.0
C53 C 0.49775 0.52356 0.67245 0.0
H54 H 0.13949 0.52433 0.79241 0.0
H55 H 0.05652 0.49298 0.84958 0.0
H56 H 0.04121 0.50127 0.76056 0.0
H57 H 0.98823 0.45521 0.77117 0.0
H58 H 0.91083 0.45365 0.82255 0.0
H59 H 1.01549 0.50735 0.85127 0.0
C60 C 0.11262 0.51543 0.79595 0.0
C61 C 0.09148 0.51257 0.77328 0.0
C62 C 0.10031 0.50901 0.82339 0.0
C63 C 0.06587 0.49851 0.82826 0.0
C64 C 0.0437 0.49476 0.80559 0.0
C65 C 0.05717 0.5026 0.77816 0.0
C66 C 1.00683 0.48324 0.81043 0.0
C67 C 0.98147 0.46329 0.79012 0.0
C68 C 0.94708 0.45347 0.79427 0.0
C69 C 0.93771 0.46261 0.81904 0.0
C70 C 0.96206 0.48139 0.83993 0.0
C71 C 0.99664 0.49199 0.8354 0.0
H72 H 0.49966 0.91105 0.00029 0.0
H73 H 0.54301 0.98689 0.93786 0.0
H74 H 0.53154 1.01108 0.02375 0.0
H75 H 0.57645 0.06079 0.01303 0.0
H76 H 0.58563 0.13205 0.95228 0.0
H77 H 0.53645 0.02948 0.92816 0.0
C78 C 0.51103 0.93701 -0.0054 0.0
C79 C 0.51613 0.96041 0.01522 0.0
C80 C 0.51975 0.94632 0.96667 0.0
C81 C 0.5352 0.98001 0.9594 0.0
C82 C 0.53974 1.00421 0.97976 0.0
C83 C 0.52945 0.9937 0.0077 0.0
C84 C 0.55382 0.03992 0.97188 0.0
C85 C 0.57115 0.06591 0.99201 0.0
C86 C 0.58169 0.09891 0.98514 0.0
C87 C 0.57638 0.10637 0.95784 0.0
C88 C 0.56112 0.08153 0.93722 0.0
C89 C 0.54943 0.04839 0.94427 0.0
H90 H 0.515 0.62334 0.12551 0.0
H91 H 0.5506 0.58069 0.18651 0.0
H92 H 0.53373 0.54659 0.09976 0.0
H93 H 0.5786 0.54 0.10965 0.0
H94 H 0.5863 0.47469 0.16816 0.0
H95 H 0.53864 0.52861 0.19383 0.0
C96 C 0.5238 0.60637 0.13051 0.0
C97 C 0.5245 0.58596 0.10939 0.0
C98 C 0.53236 0.60391 0.15832 0.0
C99 C 0.54311 0.58151 0.165 0.0
C100 C 0.54461 0.56089 0.14389 0.0
C101 C 0.53433 0.56293 0.11618 0.0
C102 C 0.55633 0.53704 0.15061 0.0
C103 C 0.57303 0.52851 0.13015 0.0
C104 C 0.58301 0.5053 0.13608 0.0
C105 C 0.57718 0.49134 0.1629 0.0
C106 C 0.56196 0.50028 0.18376 0.0
C107 C 0.5512 0.52273 0.17756 0.0
C108 C 0.62433 0.31657 0.38157 0.0
O109 O 0.65027 0.33186 0.36439 0.0
O110 O 0.69025 0.40291 0.38999 0.0
Zn111 Zn 0.63912 0.38373 0.39256 0.0
O112 O 0.62801 0.40174 0.42683 0.0
C113 C 0.62539 0.42541 0.35762 0.0
O114 O 0.64015 0.446 0.37895 0.0
O115 O 0.61483 0.33363 0.39539 0.0
C116 C 0.59926 0.40008 0.42786 0.0
O117 O 0.57704 0.38547 0.40714 0.0
C118 C 0.71221 0.43215 0.39845 0.0
O119 O 0.70156 0.45072 0.40987 0.0
O120 O 0.6226 0.39698 0.35817 0.0
C121 C 0.33184 0.71788 0.56339 0.0
O122 O 0.35081 0.70455 0.56739 0.0
O123 O 0.30875 0.63239 0.55784 0.0
Zn124 Zn 0.27524 0.64863 0.55748 0.0
O125 O 0.24735 0.63376 0.52162 0.0
C126 C 0.25121 0.62284 0.61335 0.0
O127 O 0.28306 0.63058 0.61755 0.0
O128 O 0.29974 0.69896 0.55936 0.0
C129 C 0.21746 0.60804 0.52023 0.0
O130 O 0.2045 0.58961 0.54267 0.0
C131 C 0.29829 0.60162 0.5605 0.0
O132 O 0.26528 0.58032 0.56275 0.0
O133 O 0.2426 0.62907 0.58973 0.0
C134 C 0.58787 0.28929 0.71772 0.0
O135 O 0.56669 0.25787 0.71122 0.0
O136 O 0.69034 0.29964 0.7305 0.0
Zn137 Zn 0.63907 0.26933 0.72615 0.0
O138 O 0.62739 0.24102 0.69082 0.0
C139 C 0.62561 0.21458 0.76169 0.0
O140 O 0.64196 0.20926 0.74168 0.0
O141 O 0.61869 0.29885 0.72454 0.0
C142 C 0.60056 0.21221 0.68939 0.0
O143 O 0.57942 0.20141 0.71066 0.0
C144 C 0.7131 0.29427 0.72098 0.0
O145 O 0.70366 0.26675 0.70676 0.0
O146 O 0.62151 0.23939 0.75993 0.0
C147 C 0.45378 0.72248 0.89702 0.0
O148 O 0.47489 0.7119 0.90258 0.0
O149 O 0.35458 0.62459 0.88757 0.0
Zn150 Zn 0.40609 0.65209 0.89237 0.0
O151 O 0.42079 0.64141 0.92906 0.0
C152 C 0.412 0.61242 0.84906 0.0
O153 O 0.38032 0.59131 0.85645 0.0
O154 O 0.42248 0.70123 0.89163 0.0
C155 C 0.42071 0.6144 0.93198 0.0
O156 O 0.4092 0.59257 0.91128 0.0
C157 C 0.33272 0.62181 0.90551 0.0
O158 O 0.3434 0.63818 0.92949 0.0
O159 O 0.42825 0.6408 0.86105 0.0
C160 C 0.74363 0.44356 0.05523 0.0
O161 O 0.77649 0.46425 0.05986 0.0
O162 O 0.74375 0.34855 0.04365 0.0
Zn163 Zn 0.76799 0.39874 0.04659 0.0
O164 O 0.79778 0.41531 0.08137 0.0
C165 C 0.82936 0.44232 0.01508 0.0
O166 O 0.84227 0.45434 0.04014 0.0
O167 O 0.73342 0.41354 0.04855 0.0
C168 C 0.81321 0.40194 0.09248 0.0
O169 O 0.80846 0.37384 0.0821 0.0
C170 C 0.71872 0.32952 0.05924 0.0
O171 O 0.70838 0.34279 0.07818 0.0
O172 O 0.79819 0.41898 0.01272 0.0
C173 C 0.42872 0.72614 0.23752 0.0
O174 O 0.4119 0.7199 0.26118 0.0
O175 O 0.3475 0.73309 0.22185 0.0
Zn176 Zn 0.39838 0.76709 0.22144 0.0
O177 O 0.41053 0.79641 0.18739 0.0
C178 C 0.44034 0.81369 0.26646 0.0
O179 O 0.46531 0.81024 0.25688 0.0
O180 O 0.42621 0.74466 0.21934 0.0
C181 C 0.41473 0.82542 0.18818 0.0
O182 O 0.40903 0.83648 0.21168 0.0
C183 C 0.32574 0.74148 0.21564 0.0
O184 O 0.3368 0.77228 0.20809 0.0
O185 O 0.41058 0.79682 0.25546 0.0
H186 H 0.12938 0.66107 0.28764 0.0
H187 H 0.12089 0.57298 0.25089 0.0
H188 H 0.18255 0.6957 0.26245 0.0
H189 H 0.1742 0.60755 0.22529 0.0
H190 H 0.29399 0.67642 0.23215 0.0
H191 H 0.23368 0.63972 0.24308 0.0
H192 H 0.21276 0.71606 0.21796 0.0
H193 H 0.27319 0.75298 0.20735 0.0
C194 C 0.13828 0.64932 0.27318 0.0
C195 C 0.12103 0.61455 0.27084 0.0
C196 C 0.16876 0.66907 0.25879 0.0
C197 C 0.18282 0.65437 0.24204 0.0
C198 C 0.16422 0.61958 0.23827 0.0
C199 C 0.13353 0.59982 0.25256 0.0
C200 C 0.27648 0.68525 0.22859 0.0
C201 C 0.28854 0.7178 0.21921 0.0
C202 C 0.2418 0.66408 0.23463 0.0
C203 C 0.21839 0.675 0.23148 0.0
C204 C 0.2302 0.70703 0.2209 0.0
C205 C 0.26485 0.72816 0.21477 0.0
H206 H 0.49937 0.10851 0.43365 0.0
H207 H 0.60579 0.1392 0.44453 0.0
H208 H 0.51609 0.1598 0.40775 0.0
H209 H 0.62263 0.19023 0.41884 0.0
H210 H 0.64446 0.27451 0.36165 0.0
H211 H 0.62146 0.21629 0.37388 0.0
H212 H 0.54495 0.21858 0.42517 0.0
H213 H 0.56772 0.27663 0.41287 0.0
C214 C 0.52624 0.12574 0.42966 0.0
C215 C 0.55134 0.12004 0.44094 0.0
C216 C 0.53585 0.1552 0.41514 0.0
C217 C 0.5707 0.17919 0.41145 0.0
C218 C 0.59559 0.17218 0.42107 0.0
C219 C 0.58601 0.14301 0.4358 0.0
C220 C 0.62243 0.26248 0.37522 0.0
C221 C 0.60818 0.28035 0.38654 0.0
C222 C 0.6093 0.22913 0.38225 0.0
C223 C 0.58146 0.21285 0.40056 0.0
C224 C 0.56617 0.23026 0.41076 0.0
C225 C 0.57943 0.26366 0.4039 0.0
H226 H 0.40608 0.49615 0.59927 0.0
H227 H 0.47317 0.59971 0.62094 0.0
H228 H 0.36774 0.51006 0.5744 0.0
H229 H 0.43466 0.61353 0.59749 0.0
H230 H 0.36658 0.63605 0.54834 0.0
H231 H 0.40829 0.61918 0.55714 0.0
H232 H 0.32786 0.52518 0.58927 0.0
H233 H 0.28612 0.54153 0.57927 0.0
C234 C 0.413 0.52195 0.59812 0.0
C235 C 0.44233 0.54681 0.61227 0.0
C236 C 0.39086 0.52992 0.58423 0.0
C237 C 0.39771 0.56288 0.58427 0.0
C238 C 0.42848 0.58794 0.5967 0.0
C239 C 0.45053 0.58 0.61039 0.0
C240 C 0.35778 0.61161 0.55693 0.0
C241 C 0.32311 0.5903 0.56342 0.0
C242 C 0.38171 0.60194 0.56207 0.0
C243 C 0.37164 0.57092 0.57425 0.0
C244 C 0.33664 0.54906 0.57955 0.0
C245 C 0.31266 0.55857 0.57405 0.0
H246 H 0.92266 0.3884 0.78119 0.0
H247 H 0.90861 0.47068 0.76325 0.0
H248 H 0.86744 0.35011 0.75847 0.0
H249 H 0.85406 0.43292 0.73974 0.0
H250 H 0.74047 0.3538 0.74858 0.0
H251 H 0.80018 0.39299 0.75984 0.0
H252 H 0.82937 0.33003 0.7171 0.0
H253 H 0.76902 0.29013 0.7062 0.0
C254 C 0.90834 0.39836 0.77131 0.0
C255 C 0.91969 0.43233 0.77383 0.0
C256 C 0.87669 0.3765 0.75836 0.0
C257 C 0.85599 0.38837 0.74775 0.0
C258 C 0.86896 0.42285 0.74826 0.0
C259 C 0.90035 0.44455 0.76137 0.0
C260 C 0.75954 0.34829 0.74139 0.0
C261 C 0.74987 0.31872 0.72656 0.0
C262 C 0.79393 0.371 0.74763 0.0
C263 C 0.81971 0.36485 0.73917 0.0
C264 C 0.81015 0.33545 0.72403 0.0
C265 C 0.77559 0.31265 0.71773 0.0
H266 H 0.45665 0.8953 0.95342 0.0
H267 H 0.56329 0.93638 0.9344 0.0
H268 H 0.44226 0.84366 0.92979 0.0
H269 H 0.54898 0.88465 0.90969 0.0
H270 H 0.51539 0.77257 0.91727 0.0
H271 H 0.5326 0.83027 0.926 0.0
H272 H 0.4371 0.812 0.88936 0.0
H273 H 0.41936 0.75383 0.88162 0.0
C274 C 0.47685 0.89356 0.94318 0.0
C275 C 0.51104 0.91964 0.94573 0.0
C276 C 0.46864 0.86396 0.92952 0.0
C277 C 0.49448 0.85968 0.91803 0.0
C278 C 0.5285 0.88687 0.91872 0.0
C279 C 0.53671 0.91664 0.93249 0.0
C280 C 0.4982 0.78093 0.91077 0.0
C281 C 0.46575 0.75843 0.89917 0.0
C282 C 0.50824 0.81421 0.91553 0.0
C283 C 0.48618 0.82591 0.90859 0.0
C284 C 0.45451 0.80377 0.89548 0.0
C285 C 0.44434 0.7704 0.89097 0.0
H286 H 0.63748 0.54745 0.1033 0.0
H287 H 0.57109 0.44364 0.1229 0.0
H288 H 0.67452 0.53376 0.07691 0.0
H289 H 0.60859 0.43008 0.09787 0.0
H290 H 0.67455 0.40909 0.04403 0.0
H291 H 0.6331 0.42527 0.05593 0.0
H292 H 0.71492 0.51829 0.09031 0.0
H293 H 0.75629 0.50265 0.07748 0.0
C294 C 0.63041 0.52164 0.10145 0.0
C295 C 0.60163 0.49668 0.11545 0.0
C296 C 0.65186 0.5138 0.08666 0.0
C297 C 0.64496 0.48085 0.08561 0.0
C298 C 0.61477 0.45568 0.09797 0.0
C299 C 0.59335 0.46349 0.1126 0.0
C300 C 0.6837 0.43318 0.05379 0.0
C301 C 0.7187 0.45442 0.06006 0.0
C302 C 0.65991 0.44243 0.06072 0.0
C303 C 0.67051 0.47301 0.07433 0.0
C304 C 0.70574 0.49477 0.07951 0.0
C305 C 0.72952 0.48565 0.07237 0.0
H306 H 0.37949 0.89554 0.48179 0.0
H307 H 0.47026 0.93011 0.5333 0.0
H308 H 0.35051 0.84423 0.50828 0.0
H309 H 0.44092 0.87887 0.56072 0.0
H310 H 0.40013 0.76453 0.56042 0.0
H311 H 0.42609 0.82313 0.54911 0.0
H312 H 0.32625 0.81304 0.54963 0.0
H313 H 0.30015 0.75404 0.56 0.0
C314 C 0.39276 0.89259 0.49956 0.0
C315 C 0.42716 0.91658 0.50537 0.0
C316 C 0.37613 0.86317 0.51487 0.0
C317 C 0.39352 0.85705 0.53643 0.0
C318 C 0.42699 0.88249 0.5439 0.0
C319 C 0.44367 0.91204 0.5285 0.0
C320 C 0.38374 0.77489 0.55853 0.0
C321 C 0.348 0.75444 0.56062 0.0
C322 C 0.39869 0.80868 0.55229 0.0
C323 C 0.37828 0.8229 0.54819 0.0
C324 C 0.34271 0.80284 0.55211 0.0
C325 C 0.32774 0.76899 0.55813 0.0
H326 H 0.59425 0.46402 0.66288 0.0
H327 H 0.48637 0.4011 0.67901 0.0
H328 H 0.60554 0.42432 0.68578 0.0
H329 H 0.49758 0.36119 0.70281 0.0
H330 H 0.52821 0.28008 0.69468 0.0
H331 H 0.51321 0.32218 0.68565 0.0
H332 H 0.60701 0.39623 0.7269 0.0
H333 H 0.62249 0.35433 0.73512 0.0
C334 C 0.57309 0.44207 0.67221 0.0
C335 C 0.53946 0.43548 0.66912 0.0
C336 C 0.57952 0.4193 0.68546 0.0
C337 C 0.55243 0.38929 0.69595 0.0
C338 C 0.51896 0.38382 0.69459 0.0
C339 C 0.51255 0.4068 0.68133 0.0
C340 C 0.54544 0.30526 0.70212 0.0
C341 C 0.57682 0.31394 0.7152 0.0
C342 C 0.53669 0.3294 0.69716 0.0
C343 C 0.55902 0.36275 0.70533 0.0
C344 C 0.5895 0.37095 0.71985 0.0
C345 C 0.59835 0.34689 0.72461 0.0
H346 H 0.12422 0.55895 0.86212 0.0
H347 H 0.13446 0.47696 0.83431 0.0
H348 H 0.17884 0.58263 0.88768 0.0
H349 H 0.18851 0.49986 0.86042 0.0
H350 H 0.30299 0.58085 0.86011 0.0
H351 H 0.24262 0.54805 0.84771 0.0
H352 H 0.21735 0.58115 0.92367 0.0
H353 H 0.27836 0.61466 0.93602 0.0
C354 C 0.13739 0.54519 0.86269 0.0
C355 C 0.12529 0.51619 0.84637 0.0
C356 C 0.16876 0.55879 0.87719 0.0
C357 C 0.18843 0.54351 0.87556 0.0
C358 C 0.17438 0.51264 0.86157 0.0
C359 C 0.14323 0.49924 0.84696 0.0
C360 C 0.28465 0.58104 0.87433 0.0
C361 C 0.29559 0.60057 0.89899 0.0
C362 C 0.24989 0.56188 0.86736 0.0
C363 C 0.22502 0.56169 0.88482 0.0
C364 C 0.23586 0.58082 0.90974 0.0
C365 C 0.27079 0.59995 0.91682 0.0
H366 H 0.64474 0.12292 0.00932 0.0
H367 H 0.55938 0.13845 0.00506 0.0
H368 H 0.67934 0.17688 0.03334 0.0
H369 H 0.59355 0.19209 0.02894 0.0
H370 H 0.65845 0.28249 0.08286 0.0
H371 H 0.62514 0.22298 0.0721 0.0
H372 H 0.70326 0.23434 0.01466 0.0
H373 H 0.73664 0.29371 0.02546 0.0
C374 C 0.63311 0.13741 0.01442 0.0
C375 C 0.59947 0.12665 0.00557 0.0
C376 C 0.65293 0.16838 0.02785 0.0
C377 C 0.63926 0.18886 0.03284 0.0
C378 C 0.60477 0.17684 0.02568 0.0
C379 C 0.58518 0.14616 0.01202 0.0
C380 C 0.66874 0.27224 0.06821 0.0
C381 C 0.70004 0.29295 0.05478 0.0
C382 C 0.64961 0.23814 0.06202 0.0
C383 C 0.66151 0.22395 0.04249 0.0
C384 C 0.69354 0.2444 0.03005 0.0
C385 C 0.71254 0.27852 0.03605 0.0
H386 H 0.48441 0.58082 0.19916 0.0
H387 H 0.5669 0.67107 0.16424 0.0
H388 H 0.46366 0.61293 0.22355 0.0
H389 H 0.5472 0.70355 0.18933 0.0
H390 H 0.46762 0.73583 0.1913 0.0
H391 H 0.49862 0.70844 0.17894 0.0
H392 H 0.46884 0.65453 0.25714 0.0
H393 H 0.43687 0.68167 0.26934 0.0
C394 C 0.499 0.60772 0.19784 0.0
C395 C 0.52721 0.62358 0.17994 0.0
C396 C 0.48709 0.62617 0.2117 0.0
C397 C 0.50332 0.6608 0.20792 0.0
C398 C 0.53357 0.67684 0.19215 0.0
C399 C 0.5452 0.65838 0.1781 0.0
C400 C 0.46782 0.71835 0.20604 0.0
C401 C 0.44952 0.71083 0.23125 0.0
C402 C 0.48598 0.70284 0.19907 0.0
C403 C 0.48651 0.67937 0.21712 0.0
C404 C 0.46882 0.67232 0.24267 0.0
C405 C 0.45059 0.68795 0.2497 0.0
H406 H 0.91529 0.46781 0.35781 0.0
H407 H 0.90749 0.5488 0.32385 0.0
H408 H 0.86253 0.44915 0.38423 0.0
H409 H 0.85482 0.53035 0.34993 0.0
H410 H 0.76518 0.49601 0.40744 0.0
H411 H 0.82534 0.51957 0.39544 0.0
H412 H 0.80297 0.42297 0.36635 0.0
H413 H 0.74305 0.39937 0.3785 0.0
C414 C 0.90291 0.48229 0.35692 0.0
C415 C 0.91542 0.50988 0.33919 0.0
C416 C 0.87256 0.47144 0.3717 0.0
C417 C 0.85431 0.48808 0.36896 0.0
C418 C 0.86838 0.51717 0.35276 0.0
C419 C 0.89855 0.52782 0.33787 0.0
C420 C 0.77318 0.4797 0.39882 0.0
C421 C 0.74922 0.44586 0.39367 0.0
C422 C 0.80764 0.49324 0.39191 0.0
C423 C 0.81895 0.47318 0.37992 0.0
C424 C 0.79524 0.43905 0.3759 0.0
C425 C 0.76078 0.42556 0.38264 0.0
H426 H 0.07699 0.52523 0.37505 0.0
H427 H 0.12515 0.632 0.37074 0.0
H428 H 0.10771 0.53106 0.41943 0.0
H429 H 0.15523 0.63792 0.41496 0.0
H430 H 0.2373 0.64005 0.47004 0.0
H431 H 0.20236 0.63013 0.42806 0.0
H432 H 0.1152 0.54941 0.46939 0.0
H433 H 0.15048 0.55892 0.51147 0.0
C434 C 0.09359 0.54983 0.38393 0.0
C435 C 0.09912 0.57819 0.36943 0.0
C436 C 0.11118 0.5532 0.40924 0.0
C437 C 0.13442 0.585 0.42036 0.0
C438 C 0.13826 0.61314 0.40655 0.0
C439 C 0.12089 0.60978 0.38135 0.0
C440 C 0.21075 0.62006 0.4702 0.0
C441 C 0.19663 0.60044 0.49418 0.0
C442 C 0.19064 0.61452 0.44618 0.0
C443 C 0.15586 0.58931 0.44556 0.0
C444 C 0.14193 0.56898 0.46922 0.0
C445 C 0.16212 0.57451 0.49333 0.0
H446 H 0.60979 0.12202 0.53176 0.0
H447 H 0.50353 0.06669 0.55531 0.0
H448 H 0.62488 0.15114 0.57702 0.0
H449 H 0.51805 0.09665 0.60007 0.0
H450 H 0.5556 0.14532 0.68519 0.0
H451 H 0.54471 0.10909 0.64473 0.0
H452 H 0.61886 0.19379 0.59704 0.0
H453 H 0.63073 0.22963 0.63792 0.0
C454 C 0.58979 0.11574 0.54692 0.0
C455 C 0.55555 0.09219 0.54016 0.0
C456 C 0.5983 0.13268 0.57269 0.0
C457 C 0.57263 0.12682 0.59206 0.0
C458 C 0.5386 0.10171 0.58587 0.0
C459 C 0.53019 0.08444 0.56023 0.0
C460 C 0.56962 0.15616 0.66606 0.0
C461 C 0.59391 0.19037 0.66469 0.0
C462 C 0.56332 0.13538 0.64281 0.0
C463 C 0.58087 0.14838 0.61751 0.0
C464 C 0.60532 0.18266 0.61629 0.0
C465 C 0.61193 0.20335 0.63965 0.0
H466 H 0.46603 0.5075 0.72816 0.0
H467 H 0.50658 0.60707 0.69699 0.0
H468 H 0.45494 0.5247 0.77353 0.0
H469 H 0.49481 0.62413 0.74182 0.0
H470 H 0.4772 0.64952 0.82871 0.0
H471 H 0.50363 0.63352 0.79229 0.0
H472 H 0.41072 0.53737 0.78474 0.0
H473 H 0.38466 0.55303 0.82127 0.0
C474 C 0.47358 0.5333 0.73135 0.0
C475 C 0.48676 0.55589 0.70908 0.0
C476 C 0.46687 0.54307 0.75716 0.0
C477 C 0.47335 0.57561 0.76108 0.0
C478 C 0.48956 0.59893 0.73959 0.0
C479 C 0.49619 0.58915 0.71385 0.0
C480 C 0.46255 0.62489 0.8194 0.0
C481 C 0.4287 0.60267 0.82768 0.0
C482 C 0.4777 0.61572 0.79857 0.0
C483 C 0.45935 0.58413 0.78567 0.0
C484 C 0.42585 0.56167 0.79457 0.0
C485 C 0.41072 0.57082 0.81531 0.0
H486 H 0.98013 0.47308 0.8929 0.0
H487 H 0.91626 0.50162 0.84829 0.0
H488 H 0.95066 0.46979 0.93653 0.0
H489 H 0.88662 0.49803 0.89182 0.0
H490 H 0.80963 0.42966 0.95983 0.0
H491 H 0.84627 0.44704 0.91875 0.0
H492 H 0.93578 0.49993 0.97252 0.0
H493 H 0.89909 0.48253 0.01378 0.0
C494 C 0.96055 0.47966 0.89259 0.0
C495 C 0.95015 0.48713 0.86713 0.0
C496 C 0.94359 0.47767 0.91755 0.0
C497 C 0.91593 0.48306 0.91742 0.0
C498 C 0.90738 0.49309 0.89239 0.0
C499 C 0.9244 0.49522 0.86753 0.0
C500 C 0.83708 0.44523 0.96291 0.0
C501 C 0.85144 0.45459 0.99006 0.0
C502 C 0.85807 0.4554 0.93937 0.0
C503 C 0.8939 0.47494 0.94244 0.0
C504 C 0.90827 0.48478 0.96955 0.0
C505 C 0.88722 0.47488 -0.00687 0.0
H506 H 0.47007 0.96498 0.04861 0.0
H507 H 0.53992 0.92864 0.04676 0.0
H508 H 0.44552 0.9344 0.09233 0.0
H509 H 0.51599 0.89862 0.09033 0.0
H510 H 0.4325 0.81127 0.13774 0.0
H511 H 0.45939 0.8485 0.09843 0.0
H512 H 0.45634 0.92708 0.1434 0.0
H513 H 0.42895 0.88956 0.18296 0.0
C514 C 0.4808 0.95128 0.05806 0.0
C515 C 0.5066 0.94883 0.04439 0.0
C516 C 0.46674 0.93372 0.08295 0.0
C517 C 0.47837 0.91356 0.09434 0.0
C518 C 0.50595 0.91328 0.08165 0.0
C519 C 0.51984 0.93066 0.0569 0.0
C520 C 0.43736 0.8364 0.13929 0.0
C521 C 0.42877 0.84749 0.16357 0.0
C522 C 0.45303 0.85784 0.11683 0.0
C523 C 0.46048 0.89088 0.11805 0.0
C524 C 0.45094 0.90176 0.14192 0.0
C525 C 0.43532 0.88028 0.16454 0.0
H526 H 0.59301 0.53749 0.2304 0.0
H527 H 0.53028 0.4361 0.20124 0.0
H528 H 0.60427 0.51808 0.27438 0.0
H529 H 0.53986 0.4162 0.2458 0.0
H530 H 0.60765 0.39726 0.3052 0.0
H531 H 0.58605 0.41424 0.26565 0.0
H532 H 0.58712 0.49071 0.31755 0.0
H533 H 0.61033 0.47464 0.35664 0.0
C534 C 0.58053 0.51096 0.23398 0.0
C535 C 0.56087 0.48824 0.21259 0.0
C536 C 0.58697 0.49973 0.25917 0.0
C537 C 0.57348 0.4655 0.26355 0.0
C538 C 0.55148 0.44274 0.24289 0.0
C539 C 0.54554 0.45403 0.21754 0.0
C540 C 0.60317 0.41763 0.30814 0.0
C541 C 0.61101 0.43482 0.3339 0.0
C542 C 0.59042 0.42721 0.28554 0.0
C543 C 0.58468 0.45388 0.28831 0.0
C544 C 0.59173 0.47046 0.31442 0.0
C545 C 0.60497 0.46119 0.33688 0.0
H546 H 0.40974 0.91126 0.40546 0.0
H547 H 0.5201 0.96461 0.40128 0.0
H548 H 0.40564 0.88101 0.36283 0.0
H549 H 0.51615 0.93536 0.3573 0.0
H550 H 0.49303 0.8416 0.30507 0.0
H551 H 0.50172 0.88055 0.34302 0.0
H552 H 0.41233 0.88239 0.31422 0.0
H553 H 0.40283 0.84238 0.27744 0.0
C554 C 0.43318 0.91697 0.39501 0.0
C555 C 0.46524 0.93997 0.40687 0.0
C556 C 0.43087 0.89984 0.37034 0.0
C557 C 0.46058 0.90553 0.35657 0.0
C558 C 0.49275 0.92995 0.3676 0.0
C559 C 0.49505 0.94705 0.39254 0.0
C560 C 0.47533 0.85043 0.30692 0.0
C561 C 0.44691 0.83848 0.28865 0.0
C562 C 0.48047 0.87302 0.32848 0.0
C563 C 0.45755 0.88447 0.33191 0.0
C564 C 0.43002 0.87353 0.31273 0.0
C565 C 0.42458 0.85059 0.29157 0.0
H566 H 0.49547 0.44325 0.55692 0.0
H567 H 0.60192 0.5038 0.58093 0.0
H568 H 0.51159 0.42877 0.51274 0.0
H569 H 0.61859 0.49102 0.53612 0.0
H570 H 0.63155 0.4197 0.47899 0.0
H571 H 0.61767 0.44399 0.51811 0.0
H572 H 0.53677 0.44213 0.46817 0.0
H573 H 0.54974 0.41632 0.42952 0.0
C574 C 0.5224 0.45453 0.55208 0.0
C575 C 0.54752 0.47465 0.57203 0.0
C576 C 0.53174 0.44626 0.5268 0.0
C577 C 0.56645 0.45827 0.52097 0.0
C578 C 0.59161 0.48059 0.54019 0.0
C579 C 0.5822 0.48838 0.56563 0.0
C580 C 0.61085 0.42455 0.47638 0.0
C581 C 0.59152 0.4158 0.45131 0.0
C582 C 0.60308 0.43884 0.49872 0.0
C583 C 0.57611 0.44522 0.49637 0.0
C584 C 0.55733 0.43714 0.47095 0.0
C585 C 0.56481 0.42239 0.44875 0.0
H586 H 0.08987 0.55711 0.73728 0.0
H587 H 0.12883 0.49093 0.74641 0.0
H588 H 0.12626 0.58228 0.69628 0.0
H589 H 0.16487 0.5157 0.70545 0.0
H590 H 0.2597 0.60105 0.66422 0.0
H591 H 0.21655 0.57088 0.69968 0.0
H592 H 0.14029 0.5742 0.64739 0.0
H593 H 0.18363 0.60481 0.61185 0.0
C594 C 0.10541 0.54729 0.72995 0.0
C595 C 0.10685 0.52235 0.74507 0.0
C596 C 0.12633 0.56174 0.70659 0.0
C597 C 0.14894 0.55141 0.69804 0.0
C598 C 0.14834 0.52474 0.71196 0.0
C599 C 0.12754 0.51039 0.73524 0.0
C600 C 0.23378 0.59543 0.66025 0.0
C601 C 0.22514 0.60534 0.63521 0.0
C602 C 0.20896 0.57787 0.68047 0.0
C603 C 0.17492 0.56985 0.67618 0.0
C604 C 0.16631 0.5801 0.6513 0.0
C605 C 0.19114 0.59756 0.63096 0.0
H606 H 0.52862 0.11224 0.9167 0.0
H607 H 0.59388 0.075 0.89273 0.0
H608 H 0.53836 0.14003 0.87146 0.0
H609 H 0.60543 0.10416 0.84814 0.0
H610 H 0.61263 0.15099 0.76437 0.0
H611 H 0.58923 0.11267 0.80364 0.0
H612 H 0.58387 0.188 0.85222 0.0
H613 H 0.60554 0.22545 0.81245 0.0
C614 C 0.5445 0.10952 0.90138 0.0
C615 C 0.56044 0.09151 0.90795 0.0
C616 C 0.55054 0.1258 0.87566 0.0
C617 C 0.57332 0.12503 0.85628 0.0
C618 C 0.58751 0.10516 0.8623 0.0
C619 C 0.58093 0.08839 0.88785 0.0
C620 C 0.60625 0.15922 0.78343 0.0
C621 C 0.61109 0.19127 0.78542 0.0
C622 C 0.59291 0.13728 0.806 0.0
C623 C 0.5846 0.14709 0.83124 0.0
C624 C 0.58918 0.17914 0.83299 0.0
C625 C 0.60198 0.20085 0.81027 0.0
H626 H 0.54745 0.64164 0.07813 0.0
H627 H 0.47571 0.53576 0.0764 0.0
H628 H 0.52319 0.64748 0.03415 0.0
H629 H 0.45063 0.54154 0.03259 0.0
H630 H 0.43143 0.56304 0.94206 0.0
H631 H 0.45903 0.55525 0.98308 0.0
H632 H 0.47065 0.6445 0.02088 0.0
H633 H 0.44396 0.65277 0.97963 0.0
C634 C 0.52665 0.61958 0.0681 0.0
C635 C 0.51329 0.58829 0.08063 0.0
C636 C 0.51254 0.62292 0.04307 0.0
C637 C 0.48453 0.59508 0.03013 0.0
C638 C 0.47228 0.56347 0.04195 0.0
C639 C 0.48663 0.56011 0.06698 0.0
C640 C 0.43979 0.58095 0.95918 0.0
C641 C 0.43562 0.60861 0.95754 0.0
C642 C 0.45553 0.57641 0.98272 0.0
C643 C 0.46736 0.5994 0.00515 0.0
C644 C 0.46254 0.6267 0.0037 0.0
C645 C 0.44696 0.63131 0.98014 0.0
H646 H 0.90493 0.51823 0.24135 0.0
H647 H 0.96389 0.47051 0.23147 0.0
H648 H 0.87499 0.49376 0.19738 0.0
H649 H 0.93471 0.44682 0.18629 0.0
H650 H 0.84017 0.37614 0.12923 0.0
H651 H 0.8781 0.40427 0.16958 0.0
H652 H 0.88052 0.49497 0.14804 0.0
H653 H 0.84175 0.46662 0.10866 0.0
C654 C 0.91178 0.50278 0.22948 0.0
C655 C 0.93643 0.49594 0.23997 0.0
C656 C 0.89487 0.489 0.20407 0.0
C657 C 0.90237 0.46824 0.18823 0.0
C658 C 0.92804 0.46238 0.19816 0.0
C659 C 0.94502 0.47622 0.22381 0.0
C660 C 0.84893 0.40211 0.13314 0.0
C661 C 0.83751 0.419 0.11609 0.0
C662 C 0.87091 0.41833 0.1561 0.0
C663 C 0.88214 0.45183 0.16223 0.0
C664 C 0.87177 0.46897 0.14436 0.0
C665 C 0.84955 0.45271 0.12173 0.0
loop_
_geom_bond_atom_site_label_1
_geom_bond_atom_site_label_2
_geom_bond_distance
_geom_bond_site_symmetry_2
_ccdc_geom_bond_type
H0 C6 0.930 . S
H1 C9 0.931 . S
H2 C11 0.931 . S
H3 C13 0.930 . S
H4 C15 0.930 . S
H5 C17 0.931 . S
C6 H0 0.930 . S
C6 C7 1.380 . S
C6 C8 1.394 . S
C7 C6 1.380 . S
C7 C11 1.382 . S
C8 C6 1.394 . S
C8 C9 1.400 . S
C9 H1 0.931 . S
C9 C8 1.400 . S
C9 C10 1.375 . S
C10 C9 1.375 . S
C10 C11 1.415 . S
C10 C12 1.501 1_455 S
C11 H2 0.931 . S
C11 C7 1.382 . S
C11 C10 1.415 . S
C12 C10 1.501 1_655 S
C12 C13 1.384 . S
C12 C17 1.408 . S
C13 H3 0.930 . S
C13 C12 1.384 . S
C13 C14 1.389 . S
C14 C13 1.389 . S
C14 C15 1.405 . S
C15 H4 0.930 . S
C15 C14 1.405 . S
C15 C16 1.364 . S
C16 C15 1.364 . S
C16 C17 1.400 . S
C17 H5 0.931 . S
C17 C12 1.408 . S
C17 C16 1.400 . S
H18 C24 0.930 . S
H19 C27 0.931 . S
H20 C29 0.931 . S
H21 C31 0.930 . S
H22 C33 0.930 . S
H23 C35 0.931 1_545 S
C24 H18 0.930 . S
C24 C25 1.380 . S
C24 C26 1.394 . S
C25 C24 1.380 . S
C25 C29 1.382 . S
C26 C24 1.394 . S
C26 C27 1.400 . S
C27 H19 0.931 . S
C27 C26 1.400 . S
C27 C28 1.375 . S
C28 C27 1.375 . S
C28 C29 1.415 . S
C28 C30 1.501 1_545 S
C29 H20 0.931 . S
C29 C25 1.382 . S
C29 C28 1.415 . S
C30 C28 1.501 1_565 S
C30 C31 1.384 . S
C30 C35 1.408 . S
C31 H21 0.930 . S
C31 C30 1.384 . S
C31 C32 1.389 . S
C32 C31 1.389 . S
C32 C33 1.405 . S
C33 H22 0.930 . S
C33 C32 1.405 . S
C33 C34 1.364 . S
C34 C33 1.364 . S
C34 C35 1.400 . S
C35 H23 0.931 1_565 S
C35 C30 1.408 . S
C35 C34 1.400 . S
H36 C42 0.930 . S
H37 C45 0.931 . S
H38 C47 0.931 . S
H39 C49 0.930 . S
H40 C51 0.930 . S
H41 C53 0.931 . S
C42 H36 0.930 . S
C42 C43 1.380 . S
C42 C44 1.394 . S
C43 C42 1.380 . S
C43 C47 1.382 . S
C44 C42 1.394 . S
C44 C45 1.400 . S
C45 H37 0.931 . S
C45 C44 1.400 . S
C45 C46 1.375 . S
C46 C45 1.375 . S
C46 C47 1.415 . S
C46 C48 1.501 . S
C47 H38 0.931 . S
C47 C43 1.382 . S
C47 C46 1.415 . S
C48 C46 1.501 . S
C48 C49 1.384 . S
C48 C53 1.408 . S
C49 H39 0.930 . S
C49 C48 1.384 . S
C49 C50 1.389 . S
C50 C49 1.389 . S
C50 C51 1.405 . S
C51 H40 0.930 . S
C51 C50 1.405 . S
C51 C52 1.364 . S
C52 C51 1.364 . S
C52 C53 1.400 . S
C53 H41 0.931 . S
C53 C48 1.408 . S
C53 C52 1.400 . S
H54 C60 0.930 . S
H55 C63 0.931 . S
H56 C65 0.931 . S
H57 C67 0.930 . S
H58 C69 0.930 . S
H59 C71 0.931 . S
C60 H54 0.930 . S
C60 C61 1.380 . S
C60 C62 1.394 . S
C61 C60 1.380 . S
C61 C65 1.382 . S
C62 C60 1.394 . S
C62 C63 1.400 . S
C63 H55 0.931 . S
C63 C62 1.400 . S
C63 C64 1.375 . S
C64 C63 1.375 . S
C64 C65 1.415 . S
C64 C66 1.501 1_455 S
C65 H56 0.931 . S
C65 C61 1.382 . S
C65 C64 1.415 . S
C66 C64 1.501 1_655 S
C66 C67 1.384 . S
C66 C71 1.408 . S
C67 H57 0.930 . S
C67 C66 1.384 . S
C67 C68 1.389 . S
C68 C67 1.389 . S
C68 C69 1.405 . S
C69 H58 0.930 . S
C69 C68 1.405 . S
C69 C70 1.364 . S
C70 C69 1.364 . S
C70 C71 1.400 . S
C71 H59 0.931 . S
C71 C66 1.408 . S
C71 C70 1.400 . S
H72 C78 0.930 . S
H73 C81 0.931 . S
H74 C83 0.931 . S
H75 C85 0.930 . S
H76 C87 0.930 . S
H77 C89 0.931 . S
C78 H72 0.930 . S
C78 C79 1.380 . S
C78 C80 1.394 1_554 S
C79 C78 1.380 . S
C79 C83 1.382 . S
C80 C78 1.394 1_556 S
C80 C81 1.400 . S
C81 H73 0.931 . S
C81 C80 1.400 . S
C81 C82 1.375 . S
C82 C81 1.375 . S
C82 C83 1.415 1_556 S
C82 C84 1.501 1_565 S
C83 H74 0.931 . S
C83 C79 1.382 . S
C83 C82 1.415 1_554 S
C84 C82 1.501 1_545 S
C84 C85 1.384 1_556 S
C84 C89 1.408 . S
C85 H75 0.930 . S
C85 C84 1.384 1_554 S
C85 C86 1.389 1_554 S
C86 C85 1.389 1_556 S
C86 C87 1.405 . S
C87 H76 0.930 . S
C87 C86 1.405 . S
C87 C88 1.364 . S
C88 C87 1.364 . S
C88 C89 1.400 . S
C89 H77 0.931 . S
C89 C84 1.408 . S
C89 C88 1.400 . S
H90 C96 0.930 . S
H91 C99 0.931 . S
H92 C101 0.931 . S
H93 C103 0.930 . S
H94 C105 0.930 . S
H95 C107 0.931 . S
C96 H90 0.930 . S
C96 C97 1.380 . S
C96 C98 1.394 . S
C97 C96 1.380 . S
C97 C101 1.382 . S
C98 C96 1.394 . S
C98 C99 1.400 . S
C99 H91 0.931 . S
C99 C98 1.400 . S
C99 C100 1.375 . S
C100 C99 1.375 . S
C100 C101 1.415 . S
C100 C102 1.501 . S
C101 H92 0.931 . S
C101 C97 1.382 . S
C101 C100 1.415 . S
C102 C100 1.501 . S
C102 C103 1.384 . S
C102 C107 1.408 . S
C103 H93 0.930 . S
C103 C102 1.384 . S
C103 C104 1.389 . S
C104 C103 1.389 . S
C104 C105 1.405 . S
C105 H94 0.930 . S
C105 C104 1.405 . S
C105 C106 1.364 . S
C106 C105 1.364 . S
C106 C107 1.400 . S
C107 H95 0.931 . S
C107 C102 1.408 . S
C107 C106 1.400 . S
C108 O109 1.160 . S
C108 O115 1.185 . S
O109 C108 1.160 . S
O110 Zn111 1.899 . S
O110 C118 1.284 . S
Zn111 O110 1.899 . S
Zn111 O112 2.032 . S
Zn111 O115 2.086 . S
Zn111 O120 1.977 . S
O112 Zn111 2.032 . S
O112 C116 1.278 . S
C113 O114 1.203 . S
C113 O120 1.267 . S
O114 C113 1.203 . S
O115 C108 1.185 . S
O115 Zn111 2.086 . S
C116 O112 1.278 . S
C116 O117 1.211 . S
O117 C116 1.211 . S
C118 O110 1.284 . S
C118 O119 1.273 . S
O119 C118 1.273 . S
O120 Zn111 1.977 . S
O120 C113 1.267 . S
C121 O122 1.160 . S
C121 O128 1.185 . S
O122 C121 1.160 . S
O123 Zn124 1.899 . S
O123 C131 1.284 . S
Zn124 O123 1.899 . S
Zn124 O125 2.032 . S
Zn124 O128 2.086 . S
Zn124 O133 1.977 . S
O125 Zn124 2.032 . S
O125 C129 1.278 . S
C126 O127 1.203 . S
C126 O133 1.267 . S
O127 C126 1.203 . S
O128 C121 1.185 . S
O128 Zn124 2.086 . S
C129 O125 1.278 . S
C129 O130 1.211 . S
O130 C129 1.211 . S
C131 O123 1.284 . S
C131 O132 1.273 . S
O132 C131 1.273 . S
O133 Zn124 1.977 . S
O133 C126 1.267 . S
C134 O135 1.160 . S
C134 O141 1.185 . S
O135 C134 1.160 . S
O136 Zn137 1.899 . S
O136 C144 1.284 . S
Zn137 O136 1.899 . S
Zn137 O138 2.032 . S
Zn137 O141 2.086 . S
Zn137 O146 1.977 . S
O138 Zn137 2.032 . S
O138 C142 1.278 . S
C139 O140 1.203 . S
C139 O146 1.267 . S
O140 C139 1.203 . S
O141 C134 1.185 . S
O141 Zn137 2.086 . S
C142 O138 1.278 . S
C142 O143 1.211 . S
O143 C142 1.211 . S
C144 O136 1.284 . S
C144 O145 1.273 . S
O145 C144 1.273 . S
O146 Zn137 1.977 . S
O146 C139 1.267 . S
C147 O148 1.160 . S
C147 O154 1.185 . S
O148 C147 1.160 . S
O149 Zn150 1.899 . S
O149 C157 1.284 . S
Zn150 O149 1.899 . S
Zn150 O151 2.032 . S
Zn150 O154 2.086 . S
Zn150 O159 1.977 . S
O151 Zn150 2.032 . S
O151 C155 1.278 . S
C152 O153 1.203 . S
C152 O159 1.267 . S
O153 C152 1.203 . S
O154 C147 1.185 . S
O154 Zn150 2.086 . S
C155 O151 1.278 . S
C155 O156 1.211 . S
O156 C155 1.211 . S
C157 O149 1.284 . S
C157 O158 1.273 . S
O158 C157 1.273 . S
O159 Zn150 1.977 . S
O159 C152 1.267 . S
C160 O161 1.160 . S
C160 O167 1.185 . S
O161 C160 1.160 . S
O162 Zn163 1.899 . S
O162 C170 1.284 . S
Zn163 O162 1.899 . S
Zn163 O164 2.032 . S
Zn163 O167 2.086 . S
Zn163 O172 1.977 . S
O164 Zn163 2.032 . S
O164 C168 1.278 . S
C165 O166 1.203 . S
C165 O172 1.267 . S
O166 C165 1.203 . S
O167 C160 1.185 . S
O167 Zn163 2.086 . S
C168 O164 1.278 . S
C168 O169 1.211 . S
O169 C168 1.211 . S
C170 O162 1.284 . S
C170 O171 1.273 . S
O171 C170 1.273 . S
O172 Zn163 1.977 . S
O172 C165 1.267 . S
C173 O174 1.160 . S
C173 O180 1.185 . S
O174 C173 1.160 . S
O175 Zn176 1.899 . S
O175 C183 1.284 . S
Zn176 O175 1.899 . S
Zn176 O177 2.032 . S
Zn176 O180 2.086 . S
Zn176 O185 1.977 . S
O177 Zn176 2.032 . S
O177 C181 1.278 . S
C178 O179 1.203 . S
C178 O185 1.267 . S
O179 C178 1.203 . S
O180 C173 1.185 . S
O180 Zn176 2.086 . S
C181 O177 1.278 . S
C181 O182 1.211 . S
O182 C181 1.211 . S
C183 O175 1.284 . S
C183 O184 1.273 . S
O184 C183 1.273 . S
O185 Zn176 1.977 . S
O185 C178 1.267 . S
H186 C194 0.950 . S
H187 C199 0.950 . S
H188 C196 0.950 . S
H189 C198 0.950 . S
H190 C200 0.950 . S
H191 C202 0.950 . S
H192 C204 0.950 . S
H193 C205 0.950 . S
C194 H186 0.950 . S
C194 C195 1.386 . S
C194 C196 1.391 . S
C195 C194 1.386 . S
C195 C199 1.393 . S
C196 H188 0.950 . S
C196 C194 1.391 . S
C196 C197 1.400 . S
C197 C196 1.400 . S
C197 C198 1.398 . S
C197 C203 1.491 . S
C198 H189 0.950 . S
C198 C197 1.398 . S
C198 C199 1.391 . S
C199 H187 0.950 . S
C199 C195 1.393 . S
C199 C198 1.391 . S
C200 H190 0.950 . S
C200 C201 1.386 . S
C200 C202 1.391 . S
C201 C200 1.386 . S
C201 C205 1.393 . S
C202 H191 0.950 . S
C202 C200 1.391 . S
C202 C203 1.400 . S
C203 C197 1.491 . S
C203 C202 1.400 . S
C203 C204 1.398 . S
C204 H192 0.950 . S
C204 C203 1.398 . S
C204 C205 1.391 . S
C205 H193 0.950 . S
C205 C201 1.393 . S
C205 C204 1.391 . S
H206 C214 0.950 . S
H207 C219 0.950 . S
H208 C216 0.950 . S
H209 C218 0.950 . S
H210 C220 0.950 . S
H211 C222 0.950 . S
H212 C224 0.950 . S
H213 C225 0.950 . S
C214 H206 0.950 . S
C214 C215 1.386 . S
C214 C216 1.391 . S
C215 C214 1.386 . S
C215 C219 1.393 . S
C216 H208 0.950 . S
C216 C214 1.391 . S
C216 C217 1.400 . S
C217 C216 1.400 . S
C217 C218 1.398 . S
C217 C223 1.491 . S
C218 H209 0.950 . S
C218 C217 1.398 . S
C218 C219 1.391 . S
C219 H207 0.950 . S
C219 C215 1.393 . S
C219 C218 1.391 . S
C220 H210 0.950 . S
C220 C221 1.386 . S
C220 C222 1.391 . S
C221 C220 1.386 . S
C221 C225 1.393 . S
C222 H211 0.950 . S
C222 C220 1.391 . S
C222 C223 1.400 . S
C223 C217 1.491 . S
C223 C222 1.400 . S
C223 C224 1.398 . S
C224 H212 0.950 . S
C224 C223 1.398 . S
C224 C225 1.391 . S
C225 H213 0.950 . S
C225 C221 1.393 . S
C225 C224 1.391 . S
H226 C234 0.950 . S
H227 C239 0.950 . S
H228 C236 0.950 . S
H229 C238 0.950 . S
H230 C240 0.950 . S
H231 C242 0.950 . S
H232 C244 0.950 . S
H233 C245 0.950 . S
C234 H226 0.950 . S
C234 C235 1.386 . S
C234 C236 1.391 . S
C235 C234 1.386 . S
C235 C239 1.393 . S
C236 H228 0.950 . S
C236 C234 1.391 . S
C236 C237 1.400 . S
C237 C236 1.400 . S
C237 C238 1.398 . S
C237 C243 1.491 . S
C238 H229 0.950 . S
C238 C237 1.398 . S
C238 C239 1.391 . S
C239 H227 0.950 . S
C239 C235 1.393 . S
C239 C238 1.391 . S
C240 H230 0.950 . S
C240 C241 1.386 . S
C240 C242 1.391 . S
C241 C240 1.386 . S
C241 C245 1.393 . S
C242 H231 0.950 . S
C242 C240 1.391 . S
C242 C243 1.400 . S
C243 C237 1.491 . S
C243 C242 1.400 . S
C243 C244 1.398 . S
C244 H232 0.950 . S
C244 C243 1.398 . S
C244 C245 1.391 . S
C245 H233 0.950 . S
C245 C241 1.393 . S
C245 C244 1.391 . S
H246 C254 0.950 . S
H247 C259 0.950 . S
H248 C256 0.950 . S
H249 C258 0.950 . S
H250 C260 0.950 . S
H251 C262 0.950 . S
H252 C264 0.950 . S
H253 C265 0.950 . S
C254 H246 0.950 . S
C254 C255 1.386 . S
C254 C256 1.391 . S
C255 C254 1.386 . S
C255 C259 1.393 . S
C256 H248 0.950 . S
C256 C254 1.391 . S
C256 C257 1.400 . S
C257 C256 1.400 . S
C257 C258 1.398 . S
C257 C263 1.491 . S
C258 H249 0.950 . S
C258 C257 1.398 . S
C258 C259 1.391 . S
C259 H247 0.950 . S
C259 C255 1.393 . S
C259 C258 1.391 . S
C260 H250 0.950 . S
C260 C261 1.386 . S
C260 C262 1.391 . S
C261 C260 1.386 . S
C261 C265 1.393 . S
C262 H251 0.950 . S
C262 C260 1.391 . S
C262 C263 1.400 . S
C263 C257 1.491 . S
C263 C262 1.400 . S
C263 C264 1.398 . S
C264 H252 0.950 . S
C264 C263 1.398 . S
C264 C265 1.391 . S
C265 H253 0.950 . S
C265 C261 1.393 . S
C265 C264 1.391 . S
H266 C274 0.950 . S
H267 C279 0.950 . S
H268 C276 0.950 . S
H269 C278 0.950 . S
H270 C280 0.950 . S
H271 C282 0.950 . S
H272 C284 0.950 . S
H273 C285 0.950 . S
C274 H266 0.950 . S
C274 C275 1.386 . S
C274 C276 1.391 . S
C275 C274 1.386 . S
C275 C279 1.393 . S
C276 H268 0.950 . S
C276 C274 1.391 . S
C276 C277 1.400 . S
C277 C276 1.400 . S
C277 C278 1.398 . S
C277 C283 1.491 . S
C278 H269 0.950 . S
C278 C277 1.398 . S
C278 C279 1.391 . S
C279 H267 0.950 . S
C279 C275 1.393 . S
C279 C278 1.391 . S
C280 H270 0.950 . S
C280 C281 1.386 . S
C280 C282 1.391 . S
C281 C280 1.386 . S
C281 C285 1.393 . S
C282 H271 0.950 . S
C282 C280 1.391 . S
C282 C283 1.400 . S
C283 C277 1.491 . S
C283 C282 1.400 . S
C283 C284 1.398 . S
C284 H272 0.950 . S
C284 C283 1.398 . S
C284 C285 1.391 . S
C285 H273 0.950 . S
C285 C281 1.393 . S
C285 C284 1.391 . S
H286 C294 0.950 . S
H287 C299 0.950 . S
H288 C296 0.950 . S
H289 C298 0.950 . S
H290 C300 0.950 . S
H291 C302 0.950 . S
H292 C304 0.950 . S
H293 C305 0.950 . S
C294 H286 0.950 . S
C294 C295 1.386 . S
C294 C296 1.391 . S
C295 C294 1.386 . S
C295 C299 1.393 . S
C296 H288 0.950 . S
C296 C294 1.391 . S
C296 C297 1.400 . S
C297 C296 1.400 . S
C297 C298 1.398 . S
C297 C303 1.491 . S
C298 H289 0.950 . S
C298 C297 1.398 . S
C298 C299 1.391 . S
C299 H287 0.950 . S
C299 C295 1.393 . S
C299 C298 1.391 . S
C300 H290 0.950 . S
C300 C301 1.386 . S
C300 C302 1.391 . S
C301 C300 1.386 . S
C301 C305 1.393 . S
C302 H291 0.950 . S
C302 C300 1.391 . S
C302 C303 1.400 . S
C303 C297 1.491 . S
C303 C302 1.400 . S
C303 C304 1.398 . S
C304 H292 0.950 . S
C304 C303 1.398 . S
C304 C305 1.391 . S
C305 H293 0.950 . S
C305 C301 1.393 . S
C305 C304 1.391 . S
H306 C314 0.950 . S
H307 C319 0.950 . S
H308 C316 0.950 . S
H309 C318 0.950 . S
H310 C320 0.950 . S
H311 C322 0.950 . S
H312 C324 0.950 . S
H313 C325 0.950 . S
C314 H306 0.950 . S
C314 C315 1.386 . S
C314 C316 1.391 . S
C315 C314 1.386 . S
C315 C319 1.393 . S
C316 H308 0.950 . S
C316 C314 1.391 . S
C316 C317 1.400 . S
C317 C316 1.400 . S
C317 C318 1.398 . S
C317 C323 1.491 . S
C318 H309 0.950 . S
C318 C317 1.398 . S
C318 C319 1.391 . S
C319 H307 0.950 . S
C319 C315 1.393 . S
C319 C318 1.391 . S
C320 H310 0.950 . S
C320 C321 1.386 . S
C320 C322 1.391 . S
C321 C320 1.386 . S
C321 C325 1.393 . S
C322 H311 0.950 . S
C322 C320 1.391 . S
C322 C323 1.400 . S
C323 C317 1.491 . S
C323 C322 1.400 . S
C323 C324 1.398 . S
C324 H312 0.950 . S
C324 C323 1.398 . S
C324 C325 1.391 . S
C325 H313 0.950 . S
C325 C321 1.393 . S
C325 C324 1.391 . S
H326 C334 0.950 . S
H327 C339 0.950 . S
H328 C336 0.950 . S
H329 C338 0.950 . S
H330 C340 0.950 . S
H331 C342 0.950 . S
H332 C344 0.950 . S
H333 C345 0.950 . S
C334 H326 0.950 . S
C334 C335 1.386 . S
C334 C336 1.391 . S
C335 C334 1.386 . S
C335 C339 1.393 . S
C336 H328 0.950 . S
C336 C334 1.391 . S
C336 C337 1.400 . S
C337 C336 1.400 . S
C337 C338 1.398 . S
C337 C343 1.491 . S
C338 H329 0.950 . S
C338 C337 1.398 . S
C338 C339 1.391 . S
C339 H327 0.950 . S
C339 C335 1.393 . S
C339 C338 1.391 . S
C340 H330 0.950 . S
C340 C341 1.386 . S
C340 C342 1.391 . S
C341 C340 1.386 . S
C341 C345 1.393 . S
C342 H331 0.950 . S
C342 C340 1.391 . S
C342 C343 1.400 . S
C343 C337 1.491 . S
C343 C342 1.400 . S
C343 C344 1.398 . S
C344 H332 0.950 . S
C344 C343 1.398 . S
C344 C345 1.391 . S
C345 H333 0.950 . S
C345 C341 1.393 . S
C345 C344 1.391 . S
H346 C354 0.950 . S
H347 C359 0.950 . S
H348 C356 0.950 . S
H349 C358 0.950 . S
H350 C360 0.950 . S
H351 C362 0.950 . S
H352 C364 0.950 . S
H353 C365 0.950 . S
C354 H346 0.950 . S
C354 C355 1.386 . S
C354 C356 1.391 . S
C355 C354 1.386 . S
C355 C359 1.393 . S
C356 H348 0.950 . S
C356 C354 1.391 . S
C356 C357 1.400 . S
C357 C356 1.400 . S
C357 C358 1.398 . S
C357 C363 1.491 . S
C358 H349 0.950 . S
C358 C357 1.398 . S
C358 C359 1.391 . S
C359 H347 0.950 . S
C359 C355 1.393 . S
C359 C358 1.391 . S
C360 H350 0.950 . S
C360 C361 1.386 . S
C360 C362 1.391 . S
C361 C360 1.386 . S
C361 C365 1.393 . S
C362 H351 0.950 . S
C362 C360 1.391 . S
C362 C363 1.400 . S
C363 C357 1.491 . S
C363 C362 1.400 . S
C363 C364 1.398 . S
C364 H352 0.950 . S
C364 C363 1.398 . S
C364 C365 1.391 . S
C365 H353 0.950 . S
C365 C361 1.393 . S
C365 C364 1.391 . S
H366 C374 0.950 . S
H367 C379 0.950 . S
H368 C376 0.934 1_556 S
H369 C378 0.950 . S
H370 C380 0.950 . S
H371 C382 0.950 . S
H372 C384 0.927 1_556 S
H373 C385 0.950 . S
C374 H366 0.950 . S
C374 C375 1.386 1_556 S
C374 C376 1.385 1_556 S
C375 C374 1.386 1_554 S
C375 C379 1.393 . S
C376 H368 0.934 1_554 S
C376 C374 1.385 1_554 S
C376 C377 1.422 . S
C377 C376 1.422 . S
C377 C378 1.398 . S
C377 C383 1.491 . S
C378 H369 0.950 . S
C378 C377 1.398 . S
C378 C379 1.391 . S
C379 H367 0.950 . S
C379 C375 1.393 . S
C379 C378 1.391 . S
C380 H370 0.950 . S
C380 C381 1.386 . S
C380 C382 1.391 . S
C381 C380 1.386 . S
C381 C385 1.393 . S
C382 H371 0.950 . S
C382 C380 1.391 . S
C382 C383 1.400 . S
C383 C377 1.491 . S
C383 C382 1.400 . S
C383 C384 1.398 . S
C384 H372 0.927 1_554 S
C384 C383 1.398 . S
C384 C385 1.391 . S
C385 H373 0.950 . S
C385 C381 1.393 . S
C385 C384 1.391 . S
H386 C394 0.950 . S
H387 C399 0.950 . S
H388 C396 0.950 . S
H389 C398 0.950 . S
H390 C400 0.950 . S
H391 C402 0.950 . S
H392 C404 0.950 . S
H393 C405 0.950 . S
C394 H386 0.950 . S
C394 C395 1.386 . S
C394 C396 1.391 . S
C395 C394 1.386 . S
C395 C399 1.393 . S
C396 H388 0.950 . S
C396 C394 1.391 . S
C396 C397 1.400 . S
C397 C396 1.400 . S
C397 C398 1.398 . S
C397 C403 1.491 . S
C398 H389 0.950 . S
C398 C397 1.398 . S
C398 C399 1.391 . S
C399 H387 0.950 . S
C399 C395 1.393 . S
C399 C398 1.391 . S
C400 H390 0.950 . S
C400 C401 1.386 . S
C400 C402 1.391 . S
C401 C400 1.386 . S
C401 C405 1.393 . S
C402 H391 0.950 . S
C402 C400 1.391 . S
C402 C403 1.400 . S
C403 C397 1.491 . S
C403 C402 1.400 . S
C403 C404 1.398 . S
C404 H392 0.950 . S
C404 C403 1.398 . S
C404 C405 1.391 . S
C405 H393 0.950 . S
C405 C401 1.393 . S
C405 C404 1.391 . S
H406 C414 0.950 . S
H407 C419 0.950 . S
H408 C416 0.950 . S
H409 C418 0.950 . S
H410 C420 0.950 . S
H411 C422 0.950 . S
H412 C424 0.950 . S
H413 C425 0.950 . S
C414 H406 0.950 . S
C414 C415 1.386 . S
C414 C416 1.391 . S
C415 C414 1.386 . S
C415 C419 1.393 . S
C416 H408 0.950 . S
C416 C414 1.391 . S
C416 C417 1.400 . S
C417 C416 1.400 . S
C417 C418 1.398 . S
C417 C423 1.491 . S
C418 H409 0.950 . S
C418 C417 1.398 . S
C418 C419 1.391 . S
C419 H407 0.950 . S
C419 C415 1.393 . S
C419 C418 1.391 . S
C420 H410 0.950 . S
C420 C421 1.386 . S
C420 C422 1.391 . S
C421 C420 1.386 . S
C421 C425 1.393 . S
C422 H411 0.950 . S
C422 C420 1.391 . S
C422 C423 1.400 . S
C423 C417 1.491 . S
C423 C422 1.400 . S
C423 C424 1.398 . S
C424 H412 0.950 . S
C424 C423 1.398 . S
C424 C425 1.391 . S
C425 H413 0.950 . S
C425 C421 1.393 . S
C425 C424 1.391 . S
H426 C434 0.950 . S
H427 C439 0.950 . S
H428 C436 0.950 . S
H429 C438 0.950 . S
H430 C440 0.950 . S
H431 C442 0.950 . S
H432 C444 0.950 . S
H433 C445 0.950 . S
C434 H426 0.950 . S
C434 C435 1.386 . S
C434 C436 1.391 . S
C435 C434 1.386 . S
C435 C439 1.393 . S
C436 H428 0.950 . S
C436 C434 1.391 . S
C436 C437 1.400 . S
C437 C436 1.400 . S
C437 C438 1.398 . S
C437 C443 1.491 . S
C438 H429 0.950 . S
C438 C437 1.398 . S
C438 C439 1.391 . S
C439 H427 0.950 . S
C439 C435 1.393 . S
C439 C438 1.391 . S
C440 H430 0.950 . S
C440 C441 1.386 . S
C440 C442 1.391 . S
C441 C440 1.386 . S
C441 C445 1.393 . S
C442 H431 0.950 . S
C442 C440 1.391 . S
C442 C443 1.400 . S
C443 C437 1.491 . S
C443 C442 1.400 . S
C443 C444 1.398 . S
C444 H432 0.950 . S
C444 C443 1.398 . S
C444 C445 1.391 . S
C445 H433 0.950 . S
C445 C441 1.393 . S
C445 C444 1.391 . S
H446 C454 0.950 . S
H447 C459 0.950 . S
H448 C456 0.950 . S
H449 C458 0.950 . S
H450 C460 0.950 . S
H451 C462 0.950 . S
H452 C464 0.950 . S
H453 C465 0.950 . S
C454 H446 0.950 . S
C454 C455 1.386 . S
C454 C456 1.391 . S
C455 C454 1.386 . S
C455 C459 1.393 . S
C456 H448 0.950 . S
C456 C454 1.391 . S
C456 C457 1.400 . S
C457 C456 1.400 . S
C457 C458 1.398 . S
C457 C463 1.491 . S
C458 H449 0.950 . S
C458 C457 1.398 . S
C458 C459 1.391 . S
C459 H447 0.950 . S
C459 C455 1.393 . S
C459 C458 1.391 . S
C460 H450 0.950 . S
C460 C461 1.386 . S
C460 C462 1.391 . S
C461 C460 1.386 . S
C461 C465 1.393 . S
C462 H451 0.950 . S
C462 C460 1.391 . S
C462 C463 1.400 . S
C463 C457 1.491 . S
C463 C462 1.400 . S
C463 C464 1.398 . S
C464 H452 0.950 . S
C464 C463 1.398 . S
C464 C465 1.391 . S
C465 H453 0.950 . S
C465 C461 1.393 . S
C465 C464 1.391 . S
H466 C474 0.950 . S
H467 C479 0.950 . S
H468 C476 0.950 . S
H469 C478 0.950 . S
H470 C480 0.950 . S
H471 C482 0.950 . S
H472 C484 0.950 . S
H473 C485 0.950 . S
C474 H466 0.950 . S
C474 C475 1.386 . S
C474 C476 1.391 . S
C475 C474 1.386 . S
C475 C479 1.393 . S
C476 H468 0.950 . S
C476 C474 1.391 . S
C476 C477 1.400 . S
C477 C476 1.400 . S
C477 C478 1.398 . S
C477 C483 1.491 . S
C478 H469 0.950 . S
C478 C477 1.398 . S
C478 C479 1.391 . S
C479 H467 0.950 . S
C479 C475 1.393 . S
C479 C478 1.391 . S
C480 H470 0.950 . S
C480 C481 1.386 . S
C480 C482 1.391 . S
C481 C480 1.386 . S
C481 C485 1.393 . S
C482 H471 0.950 . S
C482 C480 1.391 . S
C482 C483 1.400 . S
C483 C477 1.491 . S
C483 C482 1.400 . S
C483 C484 1.398 . S
C484 H472 0.950 . S
C484 C483 1.398 . S
C484 C485 1.391 . S
C485 H473 0.950 . S
C485 C481 1.393 . S
C485 C484 1.391 . S
H486 C494 0.950 . S
H487 C499 0.950 . S
H488 C496 0.950 . S
H489 C498 0.950 . S
H490 C500 0.950 . S
H491 C502 0.950 . S
H492 C504 0.950 . S
H493 C505 0.950 1_554 S
C494 H486 0.950 . S
C494 C495 1.386 . S
C494 C496 1.391 . S
C495 C494 1.386 . S
C495 C499 1.393 . S
C496 H488 0.950 . S
C496 C494 1.391 . S
C496 C497 1.400 . S
C497 C496 1.400 . S
C497 C498 1.398 . S
C497 C503 1.491 . S
C498 H489 0.950 . S
C498 C497 1.398 . S
C498 C499 1.391 . S
C499 H487 0.950 . S
C499 C495 1.393 . S
C499 C498 1.391 . S
C500 H490 0.950 . S
C500 C501 1.386 . S
C500 C502 1.391 . S
C501 C500 1.386 . S
C501 C505 1.393 . S
C502 H491 0.950 . S
C502 C500 1.391 . S
C502 C503 1.400 . S
C503 C497 1.491 . S
C503 C502 1.400 . S
C503 C504 1.398 . S
C504 H492 0.950 . S
C504 C503 1.398 . S
C504 C505 1.391 . S
C505 H493 0.950 1_556 S
C505 C501 1.393 . S
C505 C504 1.391 . S
H506 C514 0.950 . S
H507 C519 0.950 . S
H508 C516 0.950 . S
H509 C518 0.950 . S
H510 C520 0.950 . S
H511 C522 0.950 . S
H512 C524 0.950 . S
H513 C525 0.950 . S
C514 H506 0.950 . S
C514 C515 1.386 . S
C514 C516 1.391 . S
C515 C514 1.386 . S
C515 C519 1.393 . S
C516 H508 0.950 . S
C516 C514 1.391 . S
C516 C517 1.400 . S
C517 C516 1.400 . S
C517 C518 1.398 . S
C517 C523 1.491 . S
C518 H509 0.950 . S
C518 C517 1.398 . S
C518 C519 1.391 . S
C519 H507 0.950 . S
C519 C515 1.393 . S
C519 C518 1.391 . S
C520 H510 0.950 . S
C520 C521 1.386 . S
C520 C522 1.391 . S
C521 C520 1.386 . S
C521 C525 1.393 . S
C522 H511 0.950 . S
C522 C520 1.391 . S
C522 C523 1.400 . S
C523 C517 1.491 . S
C523 C522 1.400 . S
C523 C524 1.398 . S
C524 H512 0.950 . S
C524 C523 1.398 . S
C524 C525 1.391 . S
C525 H513 0.950 . S
C525 C521 1.393 . S
C525 C524 1.391 . S
H526 C534 0.950 . S
H527 C539 0.950 . S
H528 C536 0.950 . S
H529 C538 0.950 . S
H530 C540 0.950 . S
H531 C542 0.950 . S
H532 C544 0.950 . S
H533 C545 0.950 . S
C534 H526 0.950 . S
C534 C535 1.386 . S
C534 C536 1.391 . S
C535 C534 1.386 . S
C535 C539 1.393 . S
C536 H528 0.950 . S
C536 C534 1.391 . S
C536 C537 1.400 . S
C537 C536 1.400 . S
C537 C538 1.398 . S
C537 C543 1.491 . S
C538 H529 0.950 . S
C538 C537 1.398 . S
C538 C539 1.391 . S
C539 H527 0.950 . S
C539 C535 1.393 . S
C539 C538 1.391 . S
C540 H530 0.950 . S
C540 C541 1.386 . S
C540 C542 1.391 . S
C541 C540 1.386 . S
C541 C545 1.393 . S
C542 H531 0.950 . S
C542 C540 1.391 . S
C542 C543 1.400 . S
C543 C537 1.491 . S
C543 C542 1.400 . S
C543 C544 1.398 . S
C544 H532 0.950 . S
C544 C543 1.398 . S
C544 C545 1.391 . S
C545 H533 0.950 . S
C545 C541 1.393 . S
C545 C544 1.391 . S
H546 C554 0.950 . S
H547 C559 0.950 . S
H548 C556 0.950 . S
H549 C558 0.950 . S
H550 C560 0.950 . S
H551 C562 0.950 . S
H552 C564 0.950 . S
H553 C565 0.950 . S
C554 H546 0.950 . S
C554 C555 1.386 . S
C554 C556 1.391 . S
C555 C554 1.386 . S
C555 C559 1.393 . S
C556 H548 0.950 . S
C556 C554 1.391 . S
C556 C557 1.400 . S
C557 C556 1.400 . S
C557 C558 1.398 . S
C557 C563 1.491 . S
C558 H549 0.950 . S
C558 C557 1.398 . S
C558 C559 1.391 . S
C559 H547 0.950 . S
C559 C555 1.393 . S
C559 C558 1.391 . S
C560 H550 0.950 . S
C560 C561 1.386 . S
C560 C562 1.391 . S
C561 C560 1.386 . S
C561 C565 1.393 . S
C562 H551 0.950 . S
C562 C560 1.391 . S
C562 C563 1.400 . S
C563 C557 1.491 . S
C563 C562 1.400 . S
C563 C564 1.398 . S
C564 H552 0.950 . S
C564 C563 1.398 . S
C564 C565 1.391 . S
C565 H553 0.950 . S
C565 C561 1.393 . S
C565 C564 1.391 . S
H566 C574 0.950 . S
H567 C579 0.950 . S
H568 C576 0.950 . S
H569 C578 0.950 . S
H570 C580 0.950 . S
H571 C582 0.950 . S
H572 C584 0.950 . S
H573 C585 0.950 . S
C574 H566 0.950 . S
C574 C575 1.386 . S
C574 C576 1.391 . S
C575 C574 1.386 . S
C575 C579 1.393 . S
C576 H568 0.950 . S
C576 C574 1.391 . S
C576 C577 1.400 . S
C577 C576 1.400 . S
C577 C578 1.398 . S
C577 C583 1.491 . S
C578 H569 0.950 . S
C578 C577 1.398 . S
C578 C579 1.391 . S
C579 H567 0.950 . S
C579 C575 1.393 . S
C579 C578 1.391 . S
C580 H570 0.950 . S
C580 C581 1.386 . S
C580 C582 1.391 . S
C581 C580 1.386 . S
C581 C585 1.393 . S
C582 H571 0.950 . S
C582 C580 1.391 . S
C582 C583 1.400 . S
C583 C577 1.491 . S
C583 C582 1.400 . S
C583 C584 1.398 . S
C584 H572 0.950 . S
C584 C583 1.398 . S
C584 C585 1.391 . S
C585 H573 0.950 . S
C585 C581 1.393 . S
C585 C584 1.391 . S
H586 C594 0.950 . S
H587 C599 0.950 . S
H588 C596 0.950 . S
H589 C598 0.950 . S
H590 C600 0.950 . S
H591 C602 0.950 . S
H592 C604 0.950 . S
H593 C605 0.950 . S
C594 H586 0.950 . S
C594 C595 1.386 . S
C594 C596 1.391 . S
C595 C594 1.386 . S
C595 C599 1.393 . S
C596 H588 0.950 . S
C596 C594 1.391 . S
C596 C597 1.400 . S
C597 C596 1.400 . S
C597 C598 1.398 . S
C597 C603 1.491 . S
C598 H589 0.950 . S
C598 C597 1.398 . S
C598 C599 1.391 . S
C599 H587 0.950 . S
C599 C595 1.393 . S
C599 C598 1.391 . S
C600 H590 0.950 . S
C600 C601 1.386 . S
C600 C602 1.391 . S
C601 C600 1.386 . S
C601 C605 1.393 . S
C602 H591 0.950 . S
C602 C600 1.391 . S
C602 C603 1.400 . S
C603 C597 1.491 . S
C603 C602 1.400 . S
C603 C604 1.398 . S
C604 H592 0.950 . S
C604 C603 1.398 . S
C604 C605 1.391 . S
C605 H593 0.950 . S
C605 C601 1.393 . S
C605 C604 1.391 . S
H606 C614 0.950 . S
H607 C619 0.950 . S
H608 C616 0.950 . S
H609 C618 0.950 . S
H610 C620 0.950 . S
H611 C622 0.950 . S
H612 C624 0.950 . S
H613 C625 0.950 . S
C614 H606 0.950 . S
C614 C615 1.386 . S
C614 C616 1.391 . S
C615 C614 1.386 . S
C615 C619 1.393 . S
C616 H608 0.950 . S
C616 C614 1.391 . S
C616 C617 1.400 . S
C617 C616 1.400 . S
C617 C618 1.398 . S
C617 C623 1.491 . S
C618 H609 0.950 . S
C618 C617 1.398 . S
C618 C619 1.391 . S
C619 H607 0.950 . S
C619 C615 1.393 . S
C619 C618 1.391 . S
C620 H610 0.950 . S
C620 C621 1.386 . S
C620 C622 1.391 . S
C621 C620 1.386 . S
C621 C625 1.393 . S
C622 H611 0.950 . S
C622 C620 1.391 . S
C622 C623 1.400 . S
C623 C617 1.491 . S
C623 C622 1.400 . S
C623 C624 1.398 . S
C624 H612 0.950 . S
C624 C623 1.398 . S
C624 C625 1.391 . S
C625 H613 0.950 . S
C625 C621 1.393 . S
C625 C624 1.391 . S
H626 C634 0.950 . S
H627 C639 0.950 . S
H628 C636 0.950 . S
H629 C638 0.950 . S
H630 C640 0.950 . S
H631 C642 0.950 . S
H632 C644 0.950 . S
H633 C645 0.950 . S
C634 H626 0.950 . S
C634 C635 1.386 . S
C634 C636 1.391 . S
C635 C634 1.386 . S
C635 C639 1.393 . S
C636 H628 0.950 . S
C636 C634 1.391 . S
C636 C637 1.400 . S
C637 C636 1.400 . S
C637 C638 1.398 . S
C637 C643 1.491 . S
C638 H629 0.950 . S
C638 C637 1.398 . S
C638 C639 1.391 . S
C639 H627 0.950 . S
C639 C635 1.393 . S
C639 C638 1.391 . S
C640 H630 0.950 . S
C640 C641 1.386 . S
C640 C642 1.391 . S
C641 C640 1.386 . S
C641 C645 1.393 . S
C642 H631 0.950 . S
C642 C640 1.391 . S
C642 C643 1.400 1_556 S
C643 C637 1.491 . S
C643 C642 1.400 1_554 S
C643 C644 1.398 . S
C644 H632 0.950 . S
C644 C643 1.398 . S
C644 C645 1.391 1_554 S
C645 H633 0.950 . S
C645 C641 1.393 . S
C645 C644 1.391 1_556 S
H646 C654 0.950 . S
H647 C659 0.950 . S
H648 C656 0.950 . S
H649 C658 0.950 . S
H650 C660 0.950 . S
H651 C662 0.950 . S
H652 C664 0.950 . S
H653 C665 0.950 . S
C654 H646 0.950 . S
C654 C655 1.386 . S
C654 C656 1.391 . S
C655 C654 1.386 . S
C655 C659 1.393 . S
C656 H648 0.950 . S
C656 C654 1.391 . S
C656 C657 1.400 . S
C657 C656 1.400 . S
C657 C658 1.398 . S
C657 C663 1.491 . S
C658 H649 0.950 . S
C658 C657 1.398 . S
C658 C659 1.391 . S
C659 H647 0.950 . S
C659 C655 1.393 . S
C659 C658 1.391 . S
C660 H650 0.950 . S
C660 C661 1.386 . S
C660 C662 1.391 . S
C661 C660 1.386 . S
C661 C665 1.393 . S
C662 H651 0.950 . S
C662 C660 1.391 . S
C662 C663 1.400 . S
C663 C657 1.491 . S
C663 C662 1.400 . S
C663 C664 1.398 . S
C664 H652 0.950 . S
C664 C663 1.398 . S
C664 C665 1.391 . S
C665 H653 0.950 . S
C665 C661 1.393 . S
C665 C664 1.391 . S
C201 C183 1.552 . S
C195 C8 1.502 . S
C215 C26 1.479 . S
C221 C108 1.484 . S
C235 C50 1.512 . S
C241 C131 1.572 . S
C255 C68 1.418 . S
C261 C144 1.470 . S
C281 C147 1.493 . S
C275 C80 1.515 . S
C295 C104 1.425 . S
C301 C160 1.447 . S
C315 C32 1.425 . S
C321 C121 1.434 . S
C335 C44 1.513 . S
C341 C134 1.494 . S
C355 C62 1.430 . S
C361 C157 1.470 . S
C381 C170 1.566 . S
C375 C86 1.513 1_554 S
C401 C173 1.467 . S
C395 C98 1.491 . S
C421 C118 1.558 . S
C415 C14 1.519 . S
C435 C7 1.445 . S
C441 C129 1.450 . S
C455 C25 1.433 . S
C461 C142 1.444 . S
C481 C152 1.481 . S
C475 C52 1.468 . S
C495 C70 1.450 . S
C501 C165 1.442 1_556 S
C521 C181 1.469 . S
C515 C79 1.464 . S
C541 C113 1.435 . S
C535 C106 1.438 . S
C561 C178 1.431 . S
C555 C34 1.430 . S
C575 C43 1.474 . S
C581 C116 1.478 . S
C601 C126 1.442 . S
C595 C61 1.424 . S
C615 C88 1.453 . S
C621 C139 1.482 . S
C635 C97 1.447 . S
C641 C155 1.456 . S
C655 C16 1.469 . S
C661 C168 1.469 . S
