# Generated by pormake.
# Topology rtl, (3,6)-cn, num edge types: 1
# Building blocks:
#     Node 0, Type 0, BuildingBlock: QEWDON_clean_linker_0, # of connection points: 3
#     Node 1, Type 0, BuildingBlock: QEWDON_clean_linker_0, # of connection points: 3
#     Node 2, Type 0, BuildingBlock: QEWDON_clean_linker_0, # of connection points: 3
#     Node 3, Type 0, BuildingBlock: QEWDON_clean_linker_0, # of connection points: 3
#     Node 4, Type 1, BuildingBlock: KUMBOL_clean_sbu_1, # of connection points: 6
#     Node 5, Type 1, BuildingBlock: KUMBOL_clean_sbu_1, # of connection points: 6
#     Edge 6, Type (0, 1), BuildingBlock: TEMPAE_clean_linker_10, # of connection points: 2
#     Edge 7, Type (0, 1), BuildingBlock: TEMPAE_clean_linker_10, # of connection points: 2
#     Edge 8, Type (0, 1), BuildingBlock: TEMPAE_clean_linker_10, # of connection points: 2
#     Edge 9, Type (0, 1), BuildingBlock: TEMPAE_clean_linker_10, # of connection points: 2
#     Edge 10, Type (0, 1), BuildingBlock: TEMPAE_clean_linker_10, # of connection points: 2
#     Edge 11, Type (0, 1), BuildingBlock: TEMPAE_clean_linker_10, # of connection points: 2
#     Edge 12, Type (0, 1), BuildingBlock: TEMPAE_clean_linker_10, # of connection points: 2
#     Edge 13, Type (0, 1), BuildingBlock: TEMPAE_clean_linker_10, # of connection points: 2
#     Edge 14, Type (0, 1), BuildingBlock: TEMPAE_clean_linker_10, # of connection points: 2
#     Edge 15, Type (0, 1), BuildingBlock: TEMPAE_clean_linker_10, # of connection points: 2
#     Edge 16, Type (0, 1), BuildingBlock: TEMPAE_clean_linker_10, # of connection points: 2
#     Edge 17, Type (0, 1), BuildingBlock: TEMPAE_clean_linker_10, # of connection points: 2
# Relax obj value: 0.085
# Max RMSD: 0.274
# Mean RMSD: 0.210
data_MOF--net-rtl--node1-KUMBOL_clean_sbu_1--node2-QEWDON_clean_linker_0--edge1-TEMPAE_clean_linker_10
_symmetry_space_group_name_H-M    P1
_symmetry_Int_Tables_number       1
_symmetry_cell_setting            triclinic
loop_
_symmetry_equiv_pos_as_xyz
'x, y, z'
_cell_length_a     38.197411
_cell_length_b     38.092981
_cell_length_c     27.063415
_cell_angle_alpha  79.031994
_cell_angle_beta   100.57349
_cell_angle_gamma 91.068788
loop_
_atom_site_label
_atom_site_type_symbol
_atom_site_fract_x
_atom_site_fract_y
_atom_site_fract_z
_atom_type_partial_charge
H0 H 0.24406 0.82669 0.1036 0.0
C1 C 0.22806 0.83532 0.06587 0.0
C2 C 0.1928 0.84765 0.06079 0.0
C3 C 0.24331 0.83577 0.02226 0.0
H4 H 0.14573 0.86887 0.0076 0.0
C5 C 0.17288 0.85962 0.01144 0.0
C6 C 0.18814 0.86187 0.96742 0.0
C7 C 0.22349 0.84953 0.97351 0.0
C8 C 0.28182 0.82831 0.02738 0.0
H9 H 0.23654 0.85224 0.94069 0.0
C10 C 0.29553 0.7933 0.03294 0.0
C11 C 0.33225 0.78758 0.03404 0.0
C12 C 0.30481 0.85739 0.02336 0.0
H13 H 0.29465 0.88443 0.01871 0.0
C14 C 0.34087 0.852 0.02433 0.0
H15 H 0.27769 0.77088 0.03612 0.0
C16 C 0.35446 0.81757 0.02919 0.0
H17 H 0.38243 0.81463 0.02815 0.0
H18 H 0.35833 0.87469 0.02057 0.0
H19 H 0.74005 0.70495 0.59905 0.0
C20 C 0.72266 0.69767 0.62669 0.0
C21 C 0.69526 0.67318 0.61763 0.0
C22 C 0.7292 0.71053 0.67299 0.0
H23 H 0.65445 0.64163 0.64846 0.0
C24 C 0.67431 0.66166 0.65511 0.0
C25 C 0.67921 0.67488 0.70095 0.0
C26 C 0.70615 0.70022 0.7085 0.0
C27 C 0.76249 0.73055 0.68802 0.0
H28 H 0.70992 0.71153 0.74283 0.0
C29 C 0.77718 0.75658 0.6528 0.0
C30 C 0.80986 0.77301 0.66885 0.0
C31 C 0.78105 0.72174 0.73892 0.0
H32 H 0.7715 0.70129 0.76671 0.0
C33 C 0.81274 0.73833 0.75477 0.0
H34 H 0.76364 0.76374 0.61336 0.0
C35 C 0.82705 0.76366 0.72019 0.0
H36 H 0.85178 0.77614 0.73373 0.0
H37 H 0.82652 0.73122 0.79407 0.0
H38 H 0.79708 0.19115 0.13303 0.0
C39 C 0.80831 0.1857 0.10128 0.0
C40 C 0.84192 0.16847 0.11026 0.0
C41 C 0.78813 0.19425 0.05133 0.0
H42 H 0.8796 0.14561 0.07421 0.0
C43 C 0.85511 0.16098 0.0681 0.0
C44 C 0.8364 0.17108 0.0179 0.0
C45 C 0.80265 0.18734 0.00979 0.0
C46 C 0.75018 0.20579 0.0429 0.0
H47 H 0.78737 0.19415 0.97124 0.0
C48 C 0.73932 0.23541 0.06128 0.0
C49 C 0.70278 0.24473 0.05344 0.0
C50 C 0.72426 0.18586 0.01678 0.0
H51 H 0.73185 0.16284 1.00275 0.0
C52 C 0.68828 0.19492 0.00924 0.0
H53 H 0.75906 0.25107 0.0813 0.0
C54 C 0.67758 0.22406 0.02738 0.0
H55 H 0.64944 0.23086 0.02016 0.0
H56 H 0.66859 0.17933 0.9891 0.0
H57 H 0.32951 0.29662 0.51327 0.0
C58 C 0.33745 0.31217 0.47935 0.0
C59 C 0.35485 0.34488 0.4821 0.0
C60 C 0.33163 0.29898 0.43328 0.0
H61 H 0.38301 0.38724 0.44303 0.0
C62 C 0.36721 0.36372 0.43896 0.0
C63 C 0.36122 0.35178 0.39214 0.0
C64 C 0.34255 0.31968 0.38962 0.0
C65 C 0.31838 0.26189 0.43146 0.0
H66 H 0.33701 0.31016 0.35381 0.0
C67 C 0.28919 0.2474 0.45404 0.0
C68 C 0.27832 0.21182 0.45159 0.0
C69 C 0.33633 0.24021 0.4071 0.0
H70 H 0.35924 0.24997 0.39053 0.0
C71 C 0.32549 0.20551 0.40424 0.0
H72 H 0.27516 0.26356 0.47326 0.0
C73 C 0.29676 0.19148 0.42598 0.0
H74 H 0.28873 0.16453 0.42227 0.0
H75 H 0.3395 0.18933 0.38504 0.0
C76 C 0.96439 0.1273 0.51144 0.0
C77 C 0.90428 0.11933 0.46729 0.0
C78 C 0.93617 0.10494 0.49933 0.0
C79 C 0.9011 0.15626 0.44793 0.0
C80 C 0.96136 0.16437 0.49165 0.0
C81 C 0.92953 0.17872 0.46012 0.0
N82 N 0.99511 0.11269 0.54144 0.0
C83 C 0.02344 0.13364 0.55409 0.0
C84 C 0.99056 0.18593 0.50378 0.0
C85 C 0.0217 0.17049 0.53523 0.0
Gd86 Gd 0.04039 0.98123 0.50626 0.0
Gd87 Gd 0.9953 0.0508 0.57141 0.0
N88 N 0.94029 0.06908 0.51764 0.0
C89 C 0.8765 0.09616 0.45545 0.0
C90 C 0.91251 0.04674 0.50833 0.0
C91 C 0.88055 0.05977 0.47645 0.0
H92 H 0.91424 0.019 0.52598 0.0
H93 H 0.85885 0.04176 0.46866 0.0
H94 H 0.12191 0.01962 0.52164 0.0
H95 H 0.04703 0.12206 0.57987 0.0
H96 H 0.18079 1.00657 0.57551 0.0
H97 H 0.85166 0.10615 0.43082 0.0
H98 H 0.87683 0.16771 0.42318 0.0
H99 H 0.99392 0.90631 0.52686 0.0
H100 H 0.98928 0.21451 0.48924 0.0
H101 H 0.04428 0.18698 0.54531 0.0
H102 H 0.17231 0.88642 0.66457 0.0
H103 H 0.92674 0.20712 0.44455 0.0
H104 H 0.06068 0.82748 0.6351 0.0
H105 H 1.0023 0.84572 0.57999 0.0
N106 N 0.04604 0.92291 0.55428 0.0
C107 C 0.07863 0.91322 0.58324 0.0
C108 C 0.01904 0.899 0.55203 0.0
C109 C 0.05693 0.85429 0.61244 0.0
C110 C 0.0239 0.8645 0.58152 0.0
C111 C 0.08489 0.8786 0.61324 0.0
H112 H 0.12416 0.84273 0.66574 0.0
N113 N 0.09859 0.97178 0.55474 0.0
C114 C 0.10555 0.93838 0.58369 0.0
C115 C 0.16659 0.95424 0.61151 0.0
C116 C 0.13966 0.9289 0.61318 0.0
C117 C 0.12567 0.99533 0.54971 0.0
C118 C 0.15968 0.98742 0.57904 0.0
O119 O 0.99373 0.06521 0.48614 0.0
O120 O 0.99258 0.01225 0.45636 0.0
O121 O 0.07294 0.9853 0.44745 0.0
O122 O 0.03583 0.94229 0.45628 0.0
O123 O 0.97268 0.99473 0.5755 0.0
O124 O 0.9813 0.97347 0.50376 0.0
O125 O 0.03711 0.96856 0.59062 0.0
O126 O 0.0455 0.02207 0.61708 0.0
O127 O 0.96268 0.03638 0.62975 0.0
O128 O 0.99478 0.08378 0.62844 0.0
O129 O 0.05988 0.03882 0.49667 0.0
O130 O 0.05416 0.05801 0.57093 0.0
C131 C 0.98483 0.04653 0.44983 0.0
C132 C 0.96479 0.97283 0.54268 0.0
C133 C 0.04982 0.96143 0.37418 0.0
C134 C 0.06251 0.94765 0.29443 0.0
C135 C 0.01138 0.98536 0.29353 0.0
C136 C 0.02015 0.98207 0.34658 0.0
C137 C 0.03225 0.96823 0.26758 0.0
C138 C 0.07099 0.94437 0.3481 0.0
C139 C 0.05915 0.95756 0.43012 0.0
C140 C 0.14611 0.89427 0.64243 0.0
C141 C 0.11876 0.86929 0.64278 0.0
H142 H 0.19309 0.94801 0.63374 0.0
C143 C 0.05065 0.98737 0.62505 0.0
C144 C 0.06891 0.0602 0.53005 0.0
C145 C 0.9814 0.05592 0.70793 0.0
C146 C 0.96754 0.06589 0.78883 0.0
C147 C 0.01841 0.02839 0.78799 0.0
C148 C 1.01066 0.03427 0.73457 0.0
C149 C 0.99714 0.04412 0.81503 0.0
C150 C 0.95987 0.07144 0.73501 0.0
C151 C 0.97294 0.06332 0.65186 0.0
H152 H 0.98826 1.00118 0.27243 0.0
H153 H 1.00384 0.99553 0.36614 0.0
H154 H 0.02444 0.97085 0.2265 0.0
H155 H 0.0943 0.92899 0.36964 0.0
H156 H 0.04114 0.01184 0.80852 0.0
H157 H 0.0275 0.02213 0.71414 0.0
H158 H 1.00425 0.03967 0.85637 0.0
H159 H 0.93699 0.0877 0.71395 0.0
C160 C 0.61094 0.58606 0.04512 0.0
C161 C 0.58862 0.6473 0.02213 0.0
C162 C 0.58421 0.61092 0.04283 0.0
C163 C 0.61982 0.65808 1.00335 0.0
C164 C 0.64253 0.59688 0.0271 0.0
C165 C 0.6469 0.63303 0.0066 0.0
N166 N 0.60623 0.55128 0.06568 0.0
C167 C 0.63264 0.52629 0.07197 0.0
C168 C 0.66913 0.57112 0.03118 0.0
C169 C 0.66423 0.5357 0.05398 0.0
Gd170 Gd 0.48306 0.49652 0.99192 0.0
Gd171 Gd 0.55339 0.53812 0.09678 0.0
N172 N 0.5548 0.59989 0.06295 0.0
C173 C 0.56219 0.67203 0.02276 0.0
C174 C 0.53077 0.62453 0.068 0.0
C175 C 0.53343 0.66066 0.04655 0.0
H176 H 0.51 0.61689 0.08981 0.0
H177 H 0.51379 0.67986 0.04958 0.0
H178 H 0.495 0.4088 0.03523 0.0
H179 H 0.62909 0.49908 0.09045 0.0
H180 H 0.4609 0.35735 0.07167 0.0
H181 H 0.56451 0.70016 0.00702 0.0
H182 H 0.62372 0.68592 0.98759 0.0
H183 H 0.42229 0.56196 0.93612 0.0
H184 H 0.69373 0.5784 0.01757 0.0
H185 H 0.68488 0.51573 0.05811 0.0
H186 H 0.34491 0.40726 0.06283 0.0
H187 H 0.67143 0.64198 0.994 0.0
H188 H 0.32248 0.52942 0.97882 0.0
H189 H 0.35916 0.57508 0.93512 0.0
N190 N 0.42248 0.51094 0.98484 0.0
C191 C 0.40233 0.48475 0.00644 0.0
C192 C 0.40698 0.54238 0.95722 0.0
C193 C 0.35044 0.52386 0.98053 0.0
C194 C 0.37105 0.54971 0.95583 0.0
C195 C 0.36576 0.49053 0.00506 0.0
H196 H 0.31738 0.46662 0.02624 0.0
N197 N 0.45269 0.44627 0.02613 0.0
C198 C 0.4178 0.4513 0.02722 0.0
C199 C 0.41327 0.38883 0.06439 0.0
C200 C 0.39719 0.42276 0.04696 0.0
C201 C 0.46775 0.41272 0.03918 0.0
C202 C 0.44855 0.38368 0.05971 0.0
O203 O 0.56299 0.53299 0.01781 0.0
O204 O 0.51013 0.54779 0.96416 0.0
O205 O 0.50658 0.47484 0.93665 0.0
O206 O 0.45009 0.48632 0.92168 0.0
O207 O 0.49568 0.55671 0.08295 0.0
O208 O 0.47789 0.5548 0.99767 0.0
O209 O 0.49023 0.47077 0.07626 0.0
O210 O 0.50371 0.51497 0.12386 0.0
O211 O 0.5739 0.56892 0.15548 0.0
O212 O 0.58445 0.51218 0.16977 0.0
O213 O 0.53678 0.46822 0.01879 0.0
O214 O 0.56371 0.47933 0.09899 0.0
C215 C 0.5448 0.55094 0.97488 0.0
C216 C 0.47346 0.56604 0.03913 0.0
C217 C 0.47715 0.48625 0.85003 0.0
C218 C 0.46112 0.47435 0.76308 0.0
C219 C 0.49474 0.52735 0.77921 0.0
C220 C 0.49416 0.51762 0.83149 0.0
C221 C 0.47841 0.50593 0.74519 0.0
C222 C 0.46064 0.46482 0.81583 0.0
C223 C 0.47657 0.4748 0.90483 0.0
C224 C 0.3611 0.42876 0.04738 0.0
C225 C 0.34544 0.46259 0.02658 0.0
H226 H 0.39838 0.36626 0.08007 0.0
C227 C 0.48732 0.48541 0.11554 0.0
C228 C 0.56027 0.46059 0.06197 0.0
C229 C 0.57828 0.53842 0.24047 0.0
C230 C 0.58845 0.55691 0.32374 0.0
C231 C 0.54187 0.51458 0.30328 0.0
C232 C 0.55036 0.51678 0.25486 0.0
C233 C 0.56076 0.53435 0.33755 0.0
C234 C 0.59721 0.55853 0.27492 0.0
C235 C 0.58705 0.54115 0.18907 0.0
H236 H 0.50784 0.55162 0.76495 0.0
H237 H 0.507 0.53444 0.85736 0.0
H238 H 0.47894 0.51434 0.70479 0.0
H239 H 0.44793 0.44035 0.83055 0.0
H240 H 0.52049 0.49753 0.31424 0.0
H241 H 0.53509 0.50171 0.22857 0.0
H242 H 0.55379 0.53177 0.37509 0.0
H243 H 0.61822 0.5759 0.26326 0.0
C244 C 0.25071 0.15911 0.50011 0.0
C245 C 0.24764 0.19489 0.47411 0.0
C246 C 0.22085 0.13978 0.51263 0.0
C247 C 0.18681 0.15665 0.49982 0.0
C248 C 0.18385 0.19352 0.47703 0.0
C249 C 0.21426 0.21219 0.46424 0.0
C250 C 0.22551 0.1006 0.53684 0.0
C251 C 0.14824 0.21278 0.46379 0.0
C252 C 0.10905 0.09423 0.47442 0.0
C253 C 0.09757 0.08678 0.5217 0.0
C254 C 0.13728 0.11763 0.46647 0.0
C255 C 0.15436 0.13468 0.50644 0.0
C256 C 0.14219 0.12821 0.55373 0.0
C257 C 0.11437 0.10401 0.56103 0.0
C258 C 0.14961 0.12317 0.41567 0.0
C259 C 0.15916 0.14612 0.59717 0.0
H260 H 0.27649 0.14566 0.50878 0.0
H261 H 0.21153 0.23975 0.44413 0.0
H262 H 0.21358 0.09481 0.57186 0.0
H263 H 0.21137 0.08421 0.50983 0.0
H264 H 0.25397 0.09198 0.54717 0.0
H265 H 0.15098 0.2422 0.45294 0.0
H266 H 0.13145 0.20315 0.4312 0.0
H267 H 0.134 0.20697 0.4966 0.0
H268 H 0.09636 0.08119 0.44366 0.0
H269 H 0.10627 0.09812 0.59802 0.0
H270 H 0.17748 0.11322 0.42151 0.0
H271 H 0.14934 0.15209 0.39877 0.0
H272 H 0.13273 0.10907 0.38784 0.0
H273 H 0.18651 0.13516 0.61263 0.0
H274 H 0.1438 0.14199 0.62886 0.0
H275 H 0.16143 0.17527 0.58329 0.0
C276 C 0.3828 0.74285 0.06587 0.0
C277 C 0.34797 0.75106 0.0387 0.0
C278 C 0.40019 0.71084 0.06531 0.0
C279 C 0.38209 0.68551 0.03827 0.0
C280 C 0.3462 0.69246 0.01334 0.0
C281 C 0.32967 0.72527 0.01341 0.0
C282 C 0.43855 0.70482 0.09206 0.0
C283 C 0.32562 0.66567 0.9854 0.0
C284 C 0.44239 0.62366 0.99458 0.0
C285 C 0.44674 0.59446 0.03545 0.0
C286 C 0.42042 0.65299 0.9941 0.0
C287 C 0.40155 0.6526 0.03474 0.0
C288 C 0.4043 0.62207 0.07451 0.0
C289 C 0.42736 0.59365 0.07486 0.0
C290 C 0.41906 0.68525 0.95161 0.0
C291 C 0.38392 0.61997 0.11775 0.0
H292 H 0.39694 0.76192 0.08692 0.0
H293 H 0.30285 0.73115 0.99216 0.0
H294 H 0.44157 0.67926 0.12014 0.0
H295 H 0.45556 0.7028 0.06358 0.0
H296 H 0.4486 0.72676 0.11241 0.0
H297 H 0.29698 0.67324 0.97276 0.0
H298 H 0.33704 0.66358 0.9512 0.0
H299 H 0.32789 0.63876 0.01031 0.0
H300 H 0.45765 0.62438 0.96435 0.0
H301 H 0.43056 0.57085 0.10627 0.0
H302 H 0.43135 0.70827 0.96762 0.0
H303 H 0.39105 0.69292 0.93397 0.0
H304 H 0.43338 0.68045 0.92123 0.0
H305 H 0.39532 0.6388 0.14283 0.0
H306 H 0.38497 0.59264 0.14145 0.0
H307 H 0.35564 0.62798 0.10253 0.0
C308 C 0.86347 0.79567 0.63267 0.0
C309 C 0.82723 0.80004 0.63392 0.0
C310 C 0.88323 0.82389 0.61053 0.0
C311 C 0.86644 0.85755 0.58883 0.0
C312 C 0.82922 0.86136 0.58651 0.0
C313 C 0.81003 0.83253 0.60913 0.0
C314 C 0.9227 0.81834 0.61379 0.0
C315 C 0.81015 0.89658 0.56326 0.0
C316 C 0.92757 0.93689 0.60072 0.0
C317 C 0.9374 0.94511 0.55237 0.0
C318 C 0.90368 0.90934 0.6123 0.0
C319 C 0.88879 0.8894 0.57457 0.0
C320 C 0.89759 0.89834 0.52506 0.0
C321 C 0.92182 0.92599 0.51458 0.0
C322 C 0.89539 0.90074 0.66572 0.0
C323 C 0.88217 0.87804 0.48358 0.0
H324 H 0.87686 0.77054 0.65159 0.0
H325 H 0.78213 0.83618 0.6103 0.0
H326 H 0.93029 0.8279 0.57593 0.0
H327 H 0.93779 0.8342 0.6408 0.0
H328 H 0.93103 0.78982 0.62721 0.0
H329 H 0.78074 0.89384 0.55733 0.0
H330 H 0.8179 0.91596 0.58904 0.0
H331 H 0.81792 0.90797 0.52602 0.0
H332 H 0.93936 0.95134 0.63034 0.0
H333 H 0.92894 0.9323 0.47695 0.0
H334 H 0.9054 0.87341 0.68458 0.0
H335 H 0.86617 0.9011 0.66409 0.0
H336 H 0.90765 0.91987 0.68988 0.0
H337 H 0.89276 0.85017 0.49393 0.0
H338 H 0.88872 0.89047 0.44585 0.0
H339 H 0.85279 0.87667 0.47989 0.0
C340 C 0.70336 0.31061 0.0541 0.0
C341 C 0.68997 0.27661 0.06981 0.0
C342 C 0.68606 0.34167 0.05942 0.0
C343 C 0.65477 0.33855 0.08111 0.0
C344 C 0.64297 0.30415 0.1008 0.0
C345 C 0.66065 0.27367 0.09483 0.0
C346 C 0.69969 0.37779 0.03821 0.0
C347 C 0.61 0.29943 0.12462 0.0
C348 C 0.61154 0.41982 0.11138 0.0
C349 C 0.58478 0.42943 0.06783 0.0
C350 C 0.63497 0.39069 0.11613 0.0
C351 C 0.63152 0.3706 0.07652 0.0
C352 C 0.60465 0.38025 0.03254 0.0
C353 C 0.58174 0.40938 0.02876 0.0
C354 C 0.66326 0.38127 0.1636 0.0
C355 C 0.59982 0.35957 0.98938 0.0
H356 H 0.72591 0.31305 0.03456 0.0
H357 H 0.65046 0.24739 0.10756 0.0
H358 H 0.68166 0.38968 1.00208 0.0
H359 H 0.6999 0.39629 0.06534 0.0
H360 H 0.72698 0.37592 0.03001 0.0
H361 H 0.60714 0.27139 0.14414 0.0
H362 H 0.61052 0.31724 0.15274 0.0
H363 H 0.58609 0.30695 0.09438 0.0
H364 H 0.61428 0.43506 0.14182 0.0
H365 H 0.5613 0.41633 0.99485 0.0
H366 H 0.68994 0.38126 0.15291 0.0
H367 H 0.65896 0.35389 0.18416 0.0
H368 H 0.66326 0.40019 0.19018 0.0
H369 H 0.62493 0.35938 0.97431 0.0
H370 H 0.57816 0.37098 0.95728 0.0
H371 H 0.5935 0.33136 1.00381 0.0
C372 C 0.19743 0.86974 0.14347 0.0
C373 C 0.1776 0.85274 0.10601 0.0
C374 C 0.18118 0.88175 0.18001 0.0
C375 C 0.14418 0.8769 0.17883 0.0
C376 C 0.12465 0.8575 0.14344 0.0
C377 C 0.14163 0.84549 0.10775 0.0
C378 C 0.20313 0.90178 0.21758 0.0
C379 C 0.08521 0.85161 0.14083 0.0
C380 C 0.09925 0.89526 0.28642 0.0
C381 C 0.08498 0.92986 0.26627 0.0
C382 C 0.11934 0.87793 0.25912 0.0
C383 C 0.12506 0.89543 0.21026 0.0
C384 C 0.11127 0.93055 0.19015 0.0
C385 C 0.09165 0.94733 0.21843 0.0
C386 C 0.13386 0.84065 0.2821 0.0
C387 C 0.11672 0.95025 0.13821 0.0
H388 H 0.22515 0.87571 0.14229 0.0
H389 H 0.12626 0.83186 0.07946 0.0
H390 H 0.19601 0.93067 0.20639 0.0
H391 H 0.19742 0.89239 0.25664 0.0
H392 H 0.23216 0.89866 0.21879 0.0
H393 H 0.07468 0.83298 0.11487 0.0
H394 H 0.0794 0.84077 0.17945 0.0
H395 H 0.07067 0.87758 0.12669 0.0
H396 H 0.09404 0.88132 0.32309 0.0
H397 H 0.08149 0.97432 0.20293 0.0
H398 H 0.16286 0.83943 0.28209 0.0
H399 H 0.12089 0.82154 0.25851 0.0
H400 H 0.12937 0.83175 0.32195 0.0
H401 H 0.14558 0.95237 0.13715 0.0
H402 H 0.10471 0.9776 0.12833 0.0
H403 H 0.10466 0.93509 0.10831 0.0
C404 C 0.62344 0.64676 0.7293 0.0
C405 C 0.6579 0.66021 0.7419 0.0
C406 C 0.60488 0.62952 0.76731 0.0
C407 C 0.62009 0.62706 0.81968 0.0
C408 C 0.65401 0.64194 0.83281 0.0
C409 C 0.67264 0.65769 0.79409 0.0
C410 C 0.56939 0.61292 0.75132 0.0
C411 C 0.67055 0.64187 0.88781 0.0
C412 C 0.55569 0.60639 0.91395 0.0
C413 C 0.56377 0.57037 0.93523 0.0
C414 C 0.57467 0.62556 0.87778 0.0
C415 C 0.60105 0.60775 0.86049 0.0
C416 C 0.60885 0.5711 0.88166 0.0
C417 C 0.59069 0.55312 0.91961 0.0
C418 C 0.56692 0.665 0.85877 0.0
C419 C 0.6362 0.55077 0.86391 0.0
H420 H 0.61083 0.64925 0.68955 0.0
H421 H 0.69922 0.66727 0.80522 0.0
H422 H 0.57075 0.58384 0.76768 0.0
H423 H 0.54834 0.6248 0.76658 0.0
H424 H 0.56139 0.61653 0.70905 0.0
H425 H 0.69889 0.6499 0.89231 0.0
H426 H 0.6555 0.66116 0.90222 0.0
H427 H 0.66889 0.61512 0.91199 0.0
H428 H 0.53527 0.61984 0.92687 0.0
H429 H 0.59699 0.52526 0.93633 0.0
H430 H 0.55678 0.67034 0.8169 0.0
H431 H 0.59185 0.68021 0.86559 0.0
H432 H 0.54702 0.67525 0.87798 0.0
H433 H 0.62953 0.55292 0.82175 0.0
H434 H 0.63787 0.52202 0.88227 0.0
H435 H 0.66282 0.56261 0.87286 0.0
C436 C 0.84556 0.14317 0.20474 0.0
C437 C 0.86269 0.15551 0.16309 0.0
C438 C 0.86506 0.12705 0.2528 0.0
C439 C 0.90228 0.12154 0.25872 0.0
C440 C 0.91982 0.13457 0.21742 0.0
C441 C 0.90007 0.15253 0.17099 0.0
C442 C 0.84581 0.11535 0.29702 0.0
C443 C 0.95936 0.12852 0.22165 0.0
C444 C 0.96253 0.10285 0.38906 0.0
C445 C 0.96442 0.06532 0.40012 0.0
C446 C 0.94145 0.1214 0.34412 0.0
C447 C 0.92308 0.10206 0.30793 0.0
C448 C 0.92589 0.06421 0.31782 0.0
C449 C 0.9459 0.04625 0.36432 0.0
C450 C 0.9384 0.16167 0.33584 0.0
C451 C 0.90814 0.04271 0.279 0.0
H452 H 0.81684 0.14506 0.19969 0.0
H453 H 0.91408 0.16334 0.14025 0.0
H454 H 0.84719 0.08581 0.30861 0.0
H455 H 0.85894 0.12654 0.33063 0.0
H456 H 0.81736 0.12401 0.28733 0.0
H457 H 0.9686 0.13875 0.18505 0.0
H458 H 0.97457 0.14192 0.25161 0.0
H459 H 0.9659 0.0995 0.23328 0.0
H460 H 0.9774 0.11794 0.41579 0.0
H461 H 0.94687 0.01729 0.37266 0.0
H462 H 0.91044 0.16952 0.33505 0.0
H463 H 0.9452 0.17419 0.29843 0.0
H464 H 0.95602 0.17281 0.36634 0.0
H465 H 0.87884 0.04661 0.27234 0.0
H466 H 0.91443 0.01366 0.29145 0.0
H467 H 0.91684 0.05217 0.24184 0.0
C468 C 0.3812 0.33868 0.57571 0.0
C469 C 0.36277 0.35937 0.53023 0.0
C470 C 0.3951 0.3545 0.61808 0.0
C471 C 0.39039 0.39179 0.6147 0.0
C472 C 0.36977 0.4122 0.56999 0.0
C473 C 0.3562 0.39575 0.52846 0.0
C474 C 0.41661 0.33172 0.66521 0.0
C475 C 0.36385 0.45194 0.5647 0.0
C476 C 0.41017 0.43662 0.73113 0.0
C477 C 0.44367 0.45148 0.72683 0.0
C478 C 0.39295 0.41612 0.69599 0.0
C479 C 0.40956 0.41031 0.65549 0.0
C480 C 0.44375 0.42448 0.65174 0.0
C481 C 0.46034 0.44484 0.68736 0.0
C482 C 0.35652 0.40157 0.70132 0.0
C483 C 0.46252 0.41884 0.6093 0.0
H484 H 0.38655 0.31062 0.57714 0.0
H485 H 0.3417 0.41175 0.49346 0.0
H486 H 0.44517 0.33856 0.66769 0.0
H487 H 0.40831 0.33711 0.70028 0.0
H488 H 0.41387 0.30271 0.66461 0.0
H489 H 0.34462 0.4633 0.52945 0.0
H490 H 0.35382 0.45772 0.59831 0.0
H491 H 0.38954 0.46586 0.56338 0.0
H492 H 0.39693 0.44182 0.76122 0.0
H493 H 0.48648 0.45562 0.68427 0.0
H494 H 0.35591 0.37254 0.7006 0.0
H495 H 0.33645 0.41494 0.66844 0.0
H496 H 0.34857 0.40576 0.73727 0.0
H497 H 0.46456 0.38987 0.60899 0.0
H498 H 0.48972 0.43007 0.61319 0.0
H499 H 0.44683 0.43174 0.57174 0.0
C500 C 0.68203 0.68053 0.52171 0.0
C501 C 0.68856 0.65807 0.57001 0.0
C502 C 0.66952 0.66658 0.47718 0.0
C503 C 0.66352 0.62937 0.48124 0.0
C504 C 0.67241 0.60643 0.52961 0.0
C505 C 0.68483 0.62104 0.57328 0.0
C506 C 0.66075 0.69191 0.42631 0.0
C507 C 0.6667 0.5666 0.53582 0.0
C508 C 0.589 0.59453 0.39063 0.0
C509 C 0.60778 0.57853 0.36048 0.0
C510 C 0.60678 0.61232 0.42861 0.0
C511 C 0.64438 0.61463 0.43656 0.0
C512 C 0.66343 0.60012 0.40466 0.0
C513 C 0.64493 0.58213 0.36712 0.0
C514 C 0.58535 0.62744 0.46162 0.0
C515 C 0.70347 0.60233 0.41152 0.0
H516 H 0.68485 0.70916 0.51906 0.0
H517 H 0.69041 0.60355 0.61052 0.0
H518 H 0.67135 0.68133 0.39642 0.0
H519 H 0.6314 0.69452 0.41413 0.0
H520 H 0.67167 0.71895 0.42829 0.0
H521 H 0.67789 0.55216 0.57509 0.0
H522 H 0.63775 0.56132 0.52768 0.0
H523 H 0.67915 0.55546 0.50808 0.0
H524 H 0.56024 0.59272 0.385 0.0
H525 H 0.65975 0.5698 0.34422 0.0
H526 H 0.59168 0.656 0.46136 0.0
H527 H 0.59249 0.61294 0.50184 0.0
H528 H 0.5562 0.62523 0.44868 0.0
H529 H 0.71212 0.63004 0.41377 0.0
H530 H 0.71386 0.59382 0.37983 0.0
H531 H 0.7157 0.58488 0.44808 0.0
C532 C 0.88859 0.16707 0.97529 0.0
C533 C 0.85206 0.16217 0.97522 0.0
C534 C 0.90554 0.15344 0.94105 0.0
C535 C 0.88541 0.1349 0.90512 0.0
C536 C 0.8481 0.13194 0.90248 0.0
C537 C 0.83184 0.14549 0.93777 0.0
C538 C 0.94537 0.15722 0.94527 0.0
C539 C 0.82564 0.11294 0.86406 0.0
C540 C 0.93171 0.11819 0.79852 0.0
C541 C 0.945 0.08309 0.8174 0.0
C542 C 0.91114 0.13497 0.82566 0.0
C543 C 0.90406 0.11647 0.87322 0.0
C544 C 0.9169 0.0809 0.89214 0.0
C545 C 0.937 0.06461 0.86391 0.0
C546 C 0.89773 0.17281 0.80402 0.0
C547 C 0.91012 0.0603 0.94288 0.0
H548 H 0.90424 0.18053 1.00356 0.0
H549 H 0.80365 0.14147 0.93759 0.0
H550 H 0.95845 0.13042 0.95769 0.0
H551 H 0.95203 0.16894 0.90744 0.0
H552 H 0.95677 0.17427 0.97311 0.0
H553 H 0.79668 0.11663 0.86279 0.0
H554 H 0.83158 0.12277 0.82523 0.0
H555 H 0.83213 0.08389 0.87423 0.0
H556 H 0.93807 0.13294 0.763 0.0
H557 H 0.9465 0.0373 0.8784 0.0
H558 H 0.91113 0.19105 0.82875 0.0
H559 H 0.86872 0.17476 0.80356 0.0
H560 H 0.90271 0.18231 0.76453 0.0
H561 H 0.92256 0.07414 0.97412 0.0
H562 H 0.92095 0.0325 0.95144 0.0
H563 H 0.8811 0.05928 0.94305 0.0
C564 C 0.38185 0.40905 0.342 0.0
C565 C 0.37651 0.37191 0.34757 0.0
C566 C 0.39992 0.42766 0.30445 0.0
C567 C 0.4113 0.40936 0.2692 0.0
C568 C 0.40425 0.37244 0.27237 0.0
C569 C 0.38775 0.35404 0.31203 0.0
C570 C 0.40746 0.46687 0.30319 0.0
C571 C 0.41456 0.35225 0.23415 0.0
C572 C 0.43083 0.46741 0.14638 0.0
C573 C 0.46805 0.4661 0.15475 0.0
C574 C 0.41196 0.4484 0.18265 0.0
C575 C 0.43091 0.42884 0.22947 0.0
C576 C 0.46871 0.4286 0.23876 0.0
C577 C 0.4868 0.44663 0.20078 0.0
C578 C 0.37177 0.44872 0.17031 0.0
C579 C 0.49004 0.40976 0.2891 0.0
H580 H 0.3723 0.42385 0.36742 0.0
H581 H 0.38448 0.32544 0.31562 0.0
H582 H 0.43649 0.47147 0.30614 0.0
H583 H 0.39403 0.48298 0.26624 0.0
H584 H 0.39832 0.47685 0.33476 0.0
H585 H 0.40451 0.32448 0.23902 0.0
H586 H 0.40392 0.3664 0.19454 0.0
H587 H 0.44397 0.3511 0.23846 0.0
H588 H 0.41643 0.48345 0.1115 0.0
H589 H 0.51565 0.44564 0.20713 0.0
H590 H 0.36018 0.45431 0.20272 0.0
H591 H 0.36262 0.4219 0.16364 0.0
H592 H 0.36108 0.4689 0.13568 0.0
H593 H 0.48162 0.41966 0.3212 0.0
H594 H 0.51913 0.41388 0.29141 0.0
H595 H 0.48496 0.38065 0.29452 0.0
C596 C 0.1739 0.86913 0.87093 0.0
C597 C 0.16805 0.87949 0.91593 0.0
C598 C 0.15623 0.88651 0.82246 0.0
C599 C 0.13085 0.91398 0.81859 0.0
C600 C 0.12421 0.92415 0.86367 0.0
C601 C 0.14342 0.90749 0.91146 0.0
C602 C 0.16511 0.87581 0.77535 0.0
C603 C 0.09672 0.95268 0.86149 0.0
C604 C 0.10275 0.98325 0.69661 0.0
C605 C 0.07125 0.96871 0.67421 0.0
C606 C 0.12322 0.96498 0.74255 0.0
C607 C 0.11106 0.93214 0.76759 0.0
C608 C 0.0791 0.91748 0.74492 0.0
C609 C 0.05994 0.93565 0.69798 0.0
C610 C 0.1579 0.98076 0.76416 0.0
C611 C 0.06465 0.88308 0.7708 0.0
H612 H 0.19232 0.84734 0.87336 0.0
H613 H 0.13925 0.91693 0.94524 0.0
H614 H 0.14111 0.86528 0.75356 0.0
H615 H 0.17367 0.89964 0.75019 0.0
H616 H 0.18662 0.85509 0.78461 0.0
H617 H 0.09306 0.95591 0.90017 0.0
H618 H 0.10478 0.97872 0.84094 0.0
H619 H 0.07068 0.94595 0.83983 0.0
H620 H 0.1118 1.0085 0.6775 0.0
H621 H 0.0356 0.92439 0.68036 0.0
H622 H 0.17978 0.96058 0.77181 0.0
H623 H 0.15602 0.98835 0.80117 0.0
H624 H 0.16504 1.00482 0.73786 0.0
H625 H 0.08425 0.86094 0.77637 0.0
H626 H 0.03917 0.87559 0.74842 0.0
H627 H 0.06017 0.88583 0.80929 0.0
loop_
_geom_bond_atom_site_label_1
_geom_bond_atom_site_label_2
_geom_bond_distance
_geom_bond_site_symmetry_2
_ccdc_geom_bond_type
H0 C1 0.949 . S
C1 H0 0.949 . S
C1 C2 1.395 . S
C1 C3 1.391 . S
C2 C1 1.395 . S
C2 C5 1.390 . S
C3 C1 1.391 . S
C3 C7 1.387 1_554 S
C3 C8 1.491 . S
H4 C5 0.950 . S
C5 C2 1.390 . S
C5 H4 0.950 . S
C5 C6 1.378 1_554 S
C6 C5 1.378 1_556 S
C6 C7 1.409 . S
C7 C3 1.387 1_556 S
C7 C6 1.409 . S
C7 H9 0.951 . S
C8 C3 1.491 . S
C8 C10 1.382 . S
C8 C12 1.404 1_554 S
H9 C7 0.951 . S
C10 C8 1.382 . S
C10 C11 1.390 . S
C10 H15 0.949 . S
C11 C10 1.390 . S
C11 C16 1.399 . S
C12 C8 1.404 1_556 S
C12 H13 0.950 . S
C12 C14 1.375 . S
H13 C12 0.950 . S
C14 C12 1.375 . S
C14 C16 1.382 1_556 S
C14 H18 0.950 . S
H15 C10 0.949 . S
C16 C11 1.399 . S
C16 C14 1.382 1_554 S
C16 H17 0.952 . S
H17 C16 0.952 . S
H18 C14 0.950 . S
H19 C20 0.949 . S
C20 H19 0.949 . S
C20 C21 1.395 . S
C20 C22 1.391 . S
C21 C20 1.395 . S
C21 C24 1.390 . S
C22 C20 1.391 . S
C22 C26 1.387 . S
C22 C27 1.491 . S
H23 C24 0.950 . S
C24 C21 1.390 . S
C24 H23 0.950 . S
C24 C25 1.378 . S
C25 C24 1.378 . S
C25 C26 1.409 . S
C26 C22 1.387 . S
C26 C25 1.409 . S
C26 H28 0.951 . S
C27 C22 1.491 . S
C27 C29 1.382 . S
C27 C31 1.404 . S
H28 C26 0.951 . S
C29 C27 1.382 . S
C29 C30 1.390 . S
C29 H34 0.949 . S
C30 C29 1.390 . S
C30 C35 1.399 . S
C31 C27 1.404 . S
C31 H32 0.950 . S
C31 C33 1.375 . S
H32 C31 0.950 . S
C33 C31 1.375 . S
C33 C35 1.382 . S
C33 H37 0.950 . S
H34 C29 0.949 . S
C35 C30 1.399 . S
C35 C33 1.382 . S
C35 H36 0.952 . S
H36 C35 0.952 . S
H37 C33 0.950 . S
H38 C39 0.949 . S
C39 H38 0.949 . S
C39 C40 1.395 . S
C39 C41 1.391 . S
C40 C39 1.395 . S
C40 C43 1.390 . S
C41 C39 1.391 . S
C41 C45 1.387 1_554 S
C41 C46 1.491 . S
H42 C43 0.950 . S
C43 C40 1.390 . S
C43 H42 0.950 . S
C43 C44 1.378 . S
C44 C43 1.378 . S
C44 C45 1.409 1_554 S
C45 C41 1.387 1_556 S
C45 C44 1.409 1_556 S
C45 H47 0.951 . S
C46 C41 1.491 . S
C46 C48 1.382 . S
C46 C50 1.404 1_554 S
H47 C45 0.951 . S
C48 C46 1.382 . S
C48 C49 1.390 . S
C48 H53 0.949 . S
C49 C48 1.390 . S
C49 C54 1.399 1_554 S
C50 C46 1.404 1_556 S
C50 H51 0.950 . S
C50 C52 1.375 . S
H51 C50 0.950 . S
C52 C50 1.375 . S
C52 C54 1.382 . S
C52 H56 0.950 . S
H53 C48 0.949 . S
C54 C49 1.399 1_556 S
C54 C52 1.382 . S
C54 H55 0.952 . S
H55 C54 0.952 . S
H56 C52 0.950 . S
H57 C58 0.949 . S
C58 H57 0.949 . S
C58 C59 1.395 . S
C58 C60 1.391 . S
C59 C58 1.395 . S
C59 C62 1.390 . S
C60 C58 1.391 . S
C60 C64 1.387 . S
C60 C65 1.491 . S
H61 C62 0.950 . S
C62 C59 1.390 . S
C62 H61 0.950 . S
C62 C63 1.378 . S
C63 C62 1.378 . S
C63 C64 1.409 . S
C64 C60 1.387 . S
C64 C63 1.409 . S
C64 H66 0.951 . S
C65 C60 1.491 . S
C65 C67 1.382 . S
C65 C69 1.404 . S
H66 C64 0.951 . S
C67 C65 1.382 . S
C67 C68 1.390 . S
C67 H72 0.949 . S
C68 C67 1.390 . S
C68 C73 1.399 . S
C69 C65 1.404 . S
C69 H70 0.950 . S
C69 C71 1.375 . S
H70 C69 0.950 . S
C71 C69 1.375 . S
C71 C73 1.382 . S
C71 H75 0.950 . S
H72 C67 0.949 . S
C73 C68 1.399 . S
C73 C71 1.382 . S
C73 H74 0.952 . S
H74 C73 0.952 . S
H75 C71 0.950 . S
C76 C78 1.422 . S
C76 C80 1.415 . S
C76 N82 1.369 . S
C77 C78 1.421 . S
C77 C79 1.417 . S
C77 C89 1.422 . S
C78 C76 1.422 . S
C78 C77 1.421 . S
C78 N88 1.359 . S
C79 C77 1.417 . S
C79 C81 1.329 . S
C79 H98 0.930 . S
C80 C76 1.415 . S
C80 C81 1.437 . S
C80 C84 1.413 . S
C81 C79 1.329 . S
C81 C80 1.437 . S
C81 H103 0.929 . S
N82 C76 1.369 . S
N82 C83 1.338 1_655 S
N82 Gd87 2.622 . S
C83 N82 1.338 1_455 S
C83 C85 1.378 . S
C83 H95 0.929 . S
C84 C80 1.413 . S
C84 C85 1.348 1_655 S
C84 H100 0.931 . S
C85 C83 1.378 . S
C85 C84 1.348 1_455 S
C85 H101 0.930 . S
Gd86 N106 2.622 . S
Gd86 N113 2.570 . S
Gd86 O120 2.353 1_465 S
Gd86 O121 2.468 . S
Gd86 O122 2.427 . S
Gd86 O124 2.388 1_455 S
Gd86 O125 2.386 . S
Gd86 O129 2.307 1_565 S
Gd86 C139 2.805 . S
Gd87 N82 2.622 . S
Gd87 N88 2.570 . S
Gd87 O119 2.386 . S
Gd87 O123 2.307 1_545 S
Gd87 O126 2.353 1_655 S
Gd87 O127 2.468 . S
Gd87 O128 2.427 . S
Gd87 O130 2.388 1_655 S
Gd87 C151 2.805 . S
N88 C78 1.359 . S
N88 Gd87 2.570 . S
N88 C90 1.343 . S
C89 C77 1.422 . S
C89 C91 1.321 . S
C89 H97 0.931 . S
C90 N88 1.343 . S
C90 C91 1.390 . S
C90 H92 0.931 . S
C91 C89 1.321 . S
C91 C90 1.390 . S
C91 H93 0.930 . S
H92 C90 0.931 . S
H93 C91 0.930 . S
H94 C117 0.931 . S
H95 C83 0.929 . S
H96 C118 0.930 . S
H97 C89 0.931 . S
H98 C79 0.930 . S
H99 C108 0.929 1_655 S
H100 C84 0.931 . S
H101 C85 0.930 . S
H102 C140 0.930 . S
H103 C81 0.929 . S
H104 C109 0.931 . S
H105 C110 0.930 1_655 S
N106 Gd86 2.622 . S
N106 C107 1.369 . S
N106 C108 1.338 . S
C107 N106 1.369 . S
C107 C111 1.415 . S
C107 C114 1.422 . S
C108 H99 0.929 1_455 S
C108 N106 1.338 . S
C108 C110 1.378 . S
C109 H104 0.931 . S
C109 C110 1.348 . S
C109 C111 1.413 . S
C110 H105 0.930 1_455 S
C110 C108 1.378 . S
C110 C109 1.348 . S
C111 C107 1.415 . S
C111 C109 1.413 . S
C111 C141 1.437 . S
H112 C141 0.929 . S
N113 Gd86 2.570 . S
N113 C114 1.359 . S
N113 C117 1.343 . S
C114 C107 1.422 . S
C114 N113 1.359 . S
C114 C116 1.421 . S
C115 C116 1.422 . S
C115 C118 1.321 . S
C115 H142 0.931 . S
C116 C114 1.421 . S
C116 C115 1.422 . S
C116 C140 1.417 . S
C117 H94 0.931 . S
C117 N113 1.343 . S
C117 C118 1.390 . S
C118 H96 0.930 . S
C118 C115 1.321 . S
C118 C117 1.390 . S
O119 Gd87 2.386 . S
O119 C131 1.265 . S
O120 Gd86 2.353 1_645 S
O120 C131 1.242 . S
O121 Gd86 2.468 . S
O121 C139 1.263 . S
O122 Gd86 2.427 . S
O122 C139 1.252 . S
O123 Gd87 2.307 1_565 S
O123 C132 1.261 . S
O124 Gd86 2.388 1_655 S
O124 C132 1.252 . S
O125 Gd86 2.386 . S
O125 C143 1.265 . S
O126 Gd87 2.353 1_455 S
O126 C143 1.242 1_545 S
O127 Gd87 2.468 . S
O127 C151 1.263 . S
O128 Gd87 2.427 . S
O128 C151 1.252 . S
O129 Gd86 2.307 1_545 S
O129 C144 1.261 . S
O130 Gd87 2.388 1_455 S
O130 C144 1.252 . S
C131 O119 1.265 . S
C131 O120 1.242 . S
C132 O123 1.261 . S
C132 O124 1.252 . S
C133 C136 1.394 . S
C133 C138 1.370 . S
C133 C139 1.500 . S
C134 C137 1.383 . S
C134 C138 1.395 . S
C135 C136 1.396 . S
C135 C137 1.365 . S
C135 H152 0.929 . S
C136 C133 1.394 . S
C136 C135 1.396 . S
C136 H153 0.930 . S
C137 C134 1.383 . S
C137 C135 1.365 . S
C137 H154 0.931 . S
C138 C133 1.370 . S
C138 C134 1.395 . S
C138 H155 0.930 . S
C139 Gd86 2.805 . S
C139 O121 1.263 . S
C139 O122 1.252 . S
C139 C133 1.500 . S
C140 H102 0.930 . S
C140 C116 1.417 . S
C140 C141 1.329 . S
C141 C111 1.437 . S
C141 H112 0.929 . S
C141 C140 1.329 . S
H142 C115 0.931 . S
C143 O125 1.265 . S
C143 O126 1.242 1_565 S
C144 O129 1.261 . S
C144 O130 1.252 . S
C145 C148 1.394 . S
C145 C150 1.370 . S
C145 C151 1.500 . S
C146 C149 1.383 . S
C146 C150 1.395 . S
C147 C148 1.396 . S
C147 C149 1.365 . S
C147 H156 0.929 . S
C148 C145 1.394 . S
C148 C147 1.396 . S
C148 H157 0.930 . S
C149 C146 1.383 . S
C149 C147 1.365 . S
C149 H158 0.931 . S
C150 C145 1.370 . S
C150 C146 1.395 . S
C150 H159 0.930 . S
C151 Gd87 2.805 . S
C151 O127 1.263 . S
C151 O128 1.252 . S
C151 C145 1.500 . S
H152 C135 0.929 . S
H153 C136 0.930 . S
H154 C137 0.931 . S
H155 C138 0.930 . S
H156 C147 0.929 . S
H157 C148 0.930 . S
H158 C149 0.931 . S
H159 C150 0.930 . S
C160 C162 1.422 . S
C160 C164 1.415 . S
C160 N166 1.369 . S
C161 C162 1.421 . S
C161 C163 1.417 . S
C161 C173 1.422 . S
C162 C160 1.422 . S
C162 C161 1.421 . S
C162 N172 1.359 . S
C163 C161 1.417 . S
C163 C165 1.329 . S
C163 H182 0.930 . S
C164 C160 1.415 . S
C164 C165 1.437 . S
C164 C168 1.413 . S
C165 C163 1.329 . S
C165 C164 1.437 . S
C165 H187 0.929 . S
N166 C160 1.369 . S
N166 C167 1.338 . S
N166 Gd171 2.622 . S
C167 N166 1.338 . S
C167 C169 1.378 . S
C167 H179 0.929 . S
C168 C164 1.413 . S
C168 C169 1.348 . S
C168 H184 0.931 . S
C169 C167 1.378 . S
C169 C168 1.348 . S
C169 H185 0.930 . S
Gd170 N190 2.618 1_556 S
Gd170 N197 2.570 1_556 S
Gd170 O204 2.353 . S
Gd170 O205 2.468 . S
Gd170 O206 2.427 . S
Gd170 O208 2.388 1_556 S
Gd170 O209 2.386 1_556 S
Gd170 O213 2.307 1_556 S
Gd170 C223 2.805 . S
Gd171 N166 2.622 . S
Gd171 N172 2.570 . S
Gd171 O203 2.386 . S
Gd171 O207 2.307 . S
Gd171 O210 2.353 . S
Gd171 O211 2.468 . S
Gd171 O212 2.427 . S
Gd171 O214 2.388 . S
Gd171 C235 2.805 . S
N172 C162 1.359 . S
N172 Gd171 2.570 . S
N172 C174 1.343 . S
C173 C161 1.422 . S
C173 C175 1.321 . S
C173 H181 0.931 . S
C174 N172 1.343 . S
C174 C175 1.390 . S
C174 H176 0.931 . S
C175 C173 1.321 . S
C175 C174 1.390 . S
C175 H177 0.930 . S
H176 C174 0.931 . S
H177 C175 0.930 . S
H178 C201 0.931 . S
H179 C167 0.929 . S
H180 C202 0.930 . S
H181 C173 0.931 . S
H182 C163 0.930 . S
H183 C192 0.929 . S
H184 C168 0.931 . S
H185 C169 0.930 . S
H186 C224 0.930 . S
H187 C165 0.929 . S
H188 C193 0.931 . S
H189 C194 0.930 . S
N190 Gd170 2.618 1_554 S
N190 C191 1.373 . S
N190 C192 1.339 1_554 S
C191 N190 1.373 . S
C191 C195 1.415 . S
C191 C198 1.422 . S
C192 H183 0.929 . S
C192 N190 1.339 1_556 S
C192 C194 1.378 . S
C193 H188 0.931 . S
C193 C194 1.348 1_554 S
C193 C195 1.413 . S
C194 H189 0.930 . S
C194 C192 1.378 . S
C194 C193 1.348 1_556 S
C195 C191 1.415 . S
C195 C193 1.413 . S
C195 C225 1.437 . S
H196 C225 0.929 . S
N197 Gd170 2.570 1_554 S
N197 C198 1.359 . S
N197 C201 1.343 . S
C198 C191 1.422 . S
C198 N197 1.359 . S
C198 C200 1.421 . S
C199 C200 1.422 . S
C199 C202 1.321 . S
C199 H226 0.931 . S
C200 C198 1.421 . S
C200 C199 1.422 . S
C200 C224 1.417 . S
C201 H178 0.931 . S
C201 N197 1.343 . S
C201 C202 1.390 . S
C202 H180 0.930 . S
C202 C199 1.321 . S
C202 C201 1.390 . S
O203 Gd171 2.386 . S
O203 C215 1.265 1_554 S
O204 Gd170 2.353 . S
O204 C215 1.242 . S
O205 Gd170 2.468 . S
O205 C223 1.263 . S
O206 Gd170 2.427 . S
O206 C223 1.252 . S
O207 Gd171 2.307 . S
O207 C216 1.261 . S
O208 Gd170 2.388 1_554 S
O208 C216 1.252 . S
O209 Gd170 2.386 1_554 S
O209 C227 1.265 . S
O210 Gd171 2.353 . S
O210 C227 1.242 . S
O211 Gd171 2.468 . S
O211 C235 1.263 . S
O212 Gd171 2.427 . S
O212 C235 1.252 . S
O213 Gd170 2.307 1_554 S
O213 C228 1.261 . S
O214 Gd171 2.388 . S
O214 C228 1.252 . S
C215 O203 1.265 1_556 S
C215 O204 1.242 . S
C216 O207 1.261 . S
C216 O208 1.252 . S
C217 C220 1.394 . S
C217 C222 1.370 . S
C217 C223 1.500 . S
C218 C221 1.383 . S
C218 C222 1.395 . S
C219 C220 1.396 . S
C219 C221 1.365 . S
C219 H236 0.929 . S
C220 C217 1.394 . S
C220 C219 1.396 . S
C220 H237 0.930 . S
C221 C218 1.383 . S
C221 C219 1.365 . S
C221 H238 0.931 . S
C222 C217 1.370 . S
C222 C218 1.395 . S
C222 H239 0.930 . S
C223 Gd170 2.805 . S
C223 O205 1.263 . S
C223 O206 1.252 . S
C223 C217 1.500 . S
C224 H186 0.930 . S
C224 C200 1.417 . S
C224 C225 1.329 . S
C225 C195 1.437 . S
C225 H196 0.929 . S
C225 C224 1.329 . S
H226 C199 0.931 . S
C227 O209 1.265 . S
C227 O210 1.242 . S
C228 O213 1.261 . S
C228 O214 1.252 . S
C229 C232 1.394 . S
C229 C234 1.370 . S
C229 C235 1.500 . S
C230 C233 1.383 . S
C230 C234 1.395 . S
C231 C232 1.396 . S
C231 C233 1.365 . S
C231 H240 0.929 . S
C232 C229 1.394 . S
C232 C231 1.396 . S
C232 H241 0.930 . S
C233 C230 1.383 . S
C233 C231 1.365 . S
C233 H242 0.931 . S
C234 C229 1.370 . S
C234 C230 1.395 . S
C234 H243 0.930 . S
C235 Gd171 2.805 . S
C235 O211 1.263 . S
C235 O212 1.252 . S
C235 C229 1.500 . S
H236 C219 0.929 . S
H237 C220 0.930 . S
H238 C221 0.931 . S
H239 C222 0.930 . S
H240 C231 0.929 . S
H241 C232 0.930 . S
H242 C233 0.931 . S
H243 C234 0.930 . S
C244 C245 1.391 . S
C244 C246 1.394 . S
C244 H260 0.931 . S
C245 C244 1.391 . S
C245 C249 1.376 . S
C246 C244 1.394 . S
C246 C247 1.369 . S
C246 C250 1.531 . S
C247 C246 1.369 . S
C247 C248 1.410 . S
C247 C255 1.503 . S
C248 C247 1.410 . S
C248 C249 1.392 . S
C248 C251 1.511 . S
C249 C245 1.376 . S
C249 C248 1.392 . S
C249 H261 0.929 . S
C250 C246 1.531 . S
C250 H262 0.960 . S
C250 H263 0.962 . S
C250 H264 0.960 . S
C251 C248 1.511 . S
C251 H265 0.961 . S
C251 H266 0.961 . S
C251 H267 0.961 . S
C252 C253 1.370 . S
C252 C254 1.363 . S
C252 H268 0.931 . S
C253 C252 1.370 . S
C253 C257 1.408 . S
C254 C252 1.363 . S
C254 C255 1.370 . S
C254 C258 1.524 . S
C255 C247 1.503 . S
C255 C254 1.370 . S
C255 C256 1.403 . S
C256 C255 1.403 . S
C256 C257 1.404 . S
C256 C259 1.539 . S
C257 C253 1.408 . S
C257 C256 1.404 . S
C257 H269 0.930 . S
C258 C254 1.524 . S
C258 H270 0.956 . S
C258 H271 0.961 . S
C258 H272 0.961 . S
C259 C256 1.539 . S
C259 H273 0.958 . S
C259 H274 0.961 . S
C259 H275 0.960 . S
H260 C244 0.931 . S
H261 C249 0.929 . S
H262 C250 0.960 . S
H263 C250 0.962 . S
H264 C250 0.960 . S
H265 C251 0.961 . S
H266 C251 0.961 . S
H267 C251 0.961 . S
H268 C252 0.931 . S
H269 C257 0.930 . S
H270 C258 0.956 . S
H271 C258 0.961 . S
H272 C258 0.961 . S
H273 C259 0.958 . S
H274 C259 0.961 . S
H275 C259 0.960 . S
C276 C277 1.391 . S
C276 C278 1.394 . S
C276 H292 0.931 . S
C277 C276 1.391 . S
C277 C281 1.376 . S
C278 C276 1.394 . S
C278 C279 1.369 . S
C278 C282 1.531 . S
C279 C278 1.369 . S
C279 C280 1.410 . S
C279 C287 1.503 . S
C280 C279 1.410 . S
C280 C281 1.392 . S
C280 C283 1.511 . S
C281 C277 1.376 . S
C281 C280 1.392 . S
C281 H293 0.929 . S
C282 C278 1.531 . S
C282 H294 0.960 . S
C282 H295 0.962 . S
C282 H296 0.960 . S
C283 C280 1.511 . S
C283 H297 0.961 . S
C283 H298 0.961 . S
C283 H299 0.961 . S
C284 C285 1.370 . S
C284 C286 1.363 . S
C284 H300 0.931 1_554 S
C285 C284 1.370 . S
C285 C289 1.408 . S
C286 C284 1.363 . S
C286 C287 1.370 . S
C286 C290 1.524 1_554 S
C287 C279 1.503 . S
C287 C286 1.370 . S
C287 C288 1.403 . S
C288 C287 1.403 . S
C288 C289 1.404 . S
C288 C291 1.539 . S
C289 C285 1.408 . S
C289 C288 1.404 . S
C289 H301 0.930 . S
C290 C286 1.524 1_556 S
C290 H302 0.956 . S
C290 H303 0.961 . S
C290 H304 0.961 . S
C291 C288 1.539 . S
C291 H305 0.958 . S
C291 H306 0.961 . S
C291 H307 0.960 . S
H292 C276 0.931 . S
H293 C281 0.929 . S
H294 C282 0.960 . S
H295 C282 0.962 . S
H296 C282 0.960 . S
H297 C283 0.961 . S
H298 C283 0.961 . S
H299 C283 0.961 . S
H300 C284 0.931 1_556 S
H301 C289 0.930 . S
H302 C290 0.956 . S
H303 C290 0.961 . S
H304 C290 0.961 . S
H305 C291 0.958 . S
H306 C291 0.961 . S
H307 C291 0.960 . S
C308 C309 1.391 . S
C308 C310 1.394 . S
C308 H324 0.931 . S
C309 C308 1.391 . S
C309 C313 1.376 . S
C310 C308 1.394 . S
C310 C311 1.369 . S
C310 C314 1.531 . S
C311 C310 1.369 . S
C311 C312 1.410 . S
C311 C319 1.503 . S
C312 C311 1.410 . S
C312 C313 1.392 . S
C312 C315 1.511 . S
C313 C309 1.376 . S
C313 C312 1.392 . S
C313 H325 0.929 . S
C314 C310 1.531 . S
C314 H326 0.960 . S
C314 H327 0.962 . S
C314 H328 0.960 . S
C315 C312 1.511 . S
C315 H329 0.961 . S
C315 H330 0.961 . S
C315 H331 0.961 . S
C316 C317 1.370 . S
C316 C318 1.363 . S
C316 H332 0.931 . S
C317 C316 1.370 . S
C317 C321 1.408 . S
C318 C316 1.363 . S
C318 C319 1.370 . S
C318 C322 1.524 . S
C319 C311 1.503 . S
C319 C318 1.370 . S
C319 C320 1.403 . S
C320 C319 1.403 . S
C320 C321 1.404 . S
C320 C323 1.539 . S
C321 C317 1.408 . S
C321 C320 1.404 . S
C321 H333 0.930 . S
C322 C318 1.524 . S
C322 H334 0.956 . S
C322 H335 0.961 . S
C322 H336 0.961 . S
C323 C320 1.539 . S
C323 H337 0.958 . S
C323 H338 0.961 . S
C323 H339 0.960 . S
H324 C308 0.931 . S
H325 C313 0.929 . S
H326 C314 0.960 . S
H327 C314 0.962 . S
H328 C314 0.960 . S
H329 C315 0.961 . S
H330 C315 0.961 . S
H331 C315 0.961 . S
H332 C316 0.931 . S
H333 C321 0.930 . S
H334 C322 0.956 . S
H335 C322 0.961 . S
H336 C322 0.961 . S
H337 C323 0.958 . S
H338 C323 0.961 . S
H339 C323 0.960 . S
C340 C341 1.391 1_556 S
C340 C342 1.394 . S
C340 H356 0.931 . S
C341 C340 1.391 1_554 S
C341 C345 1.376 . S
C342 C340 1.394 . S
C342 C343 1.369 1_556 S
C342 C346 1.531 . S
C343 C342 1.369 1_554 S
C343 C344 1.410 . S
C343 C351 1.503 . S
C344 C343 1.410 . S
C344 C345 1.392 . S
C344 C347 1.511 . S
C345 C341 1.376 . S
C345 C344 1.392 . S
C345 H357 0.929 . S
C346 C342 1.531 . S
C346 H358 0.960 . S
C346 H359 0.962 . S
C346 H360 0.960 . S
C347 C344 1.511 . S
C347 H361 0.961 . S
C347 H362 0.961 . S
C347 H363 0.961 . S
C348 C349 1.370 . S
C348 C350 1.363 . S
C348 H364 0.931 . S
C349 C348 1.370 . S
C349 C353 1.408 . S
C350 C348 1.363 . S
C350 C351 1.370 . S
C350 C354 1.524 . S
C351 C343 1.503 . S
C351 C350 1.370 . S
C351 C352 1.403 . S
C352 C351 1.403 . S
C352 C353 1.404 . S
C352 C355 1.539 . S
C353 C349 1.408 . S
C353 C352 1.404 . S
C353 H365 0.930 . S
C354 C350 1.524 . S
C354 H366 0.956 . S
C354 H367 0.961 . S
C354 H368 0.961 . S
C355 C352 1.539 . S
C355 H369 0.958 1_554 S
C355 H370 0.961 . S
C355 H371 0.960 . S
H356 C340 0.931 . S
H357 C345 0.929 . S
H358 C346 0.960 . S
H359 C346 0.962 . S
H360 C346 0.960 . S
H361 C347 0.961 . S
H362 C347 0.961 . S
H363 C347 0.961 . S
H364 C348 0.931 . S
H365 C353 0.930 . S
H366 C354 0.956 . S
H367 C354 0.961 . S
H368 C354 0.961 . S
H369 C355 0.958 1_556 S
H370 C355 0.961 . S
H371 C355 0.960 . S
C372 C373 1.391 . S
C372 C374 1.394 . S
C372 H388 0.931 . S
C373 C372 1.391 . S
C373 C377 1.376 . S
C374 C372 1.394 . S
C374 C375 1.369 . S
C374 C378 1.531 . S
C375 C374 1.369 . S
C375 C376 1.410 . S
C375 C383 1.503 . S
C376 C375 1.410 . S
C376 C377 1.392 . S
C376 C379 1.511 . S
C377 C373 1.376 . S
C377 C376 1.392 . S
C377 H389 0.929 . S
C378 C374 1.531 . S
C378 H390 0.960 . S
C378 H391 0.962 . S
C378 H392 0.960 . S
C379 C376 1.511 . S
C379 H393 0.961 . S
C379 H394 0.961 . S
C379 H395 0.961 . S
C380 C381 1.370 . S
C380 C382 1.363 . S
C380 H396 0.931 . S
C381 C380 1.370 . S
C381 C385 1.408 . S
C382 C380 1.363 . S
C382 C383 1.370 . S
C382 C386 1.524 . S
C383 C375 1.503 . S
C383 C382 1.370 . S
C383 C384 1.403 . S
C384 C383 1.403 . S
C384 C385 1.404 . S
C384 C387 1.539 . S
C385 C381 1.408 . S
C385 C384 1.404 . S
C385 H397 0.930 . S
C386 C382 1.524 . S
C386 H398 0.956 . S
C386 H399 0.961 . S
C386 H400 0.961 . S
C387 C384 1.539 . S
C387 H401 0.958 . S
C387 H402 0.961 . S
C387 H403 0.960 . S
H388 C372 0.931 . S
H389 C377 0.929 . S
H390 C378 0.960 . S
H391 C378 0.962 . S
H392 C378 0.960 . S
H393 C379 0.961 . S
H394 C379 0.961 . S
H395 C379 0.961 . S
H396 C380 0.931 . S
H397 C385 0.930 . S
H398 C386 0.956 . S
H399 C386 0.961 . S
H400 C386 0.961 . S
H401 C387 0.958 . S
H402 C387 0.961 . S
H403 C387 0.960 . S
C404 C405 1.391 . S
C404 C406 1.394 . S
C404 H420 0.931 . S
C405 C404 1.391 . S
C405 C409 1.376 . S
C406 C404 1.394 . S
C406 C407 1.369 . S
C406 C410 1.531 . S
C407 C406 1.369 . S
C407 C408 1.410 . S
C407 C415 1.503 . S
C408 C407 1.410 . S
C408 C409 1.392 . S
C408 C411 1.511 . S
C409 C405 1.376 . S
C409 C408 1.392 . S
C409 H421 0.929 . S
C410 C406 1.531 . S
C410 H422 0.960 . S
C410 H423 0.962 . S
C410 H424 0.960 . S
C411 C408 1.511 . S
C411 H425 0.961 . S
C411 H426 0.961 . S
C411 H427 0.961 . S
C412 C413 1.370 . S
C412 C414 1.363 . S
C412 H428 0.931 . S
C413 C412 1.370 . S
C413 C417 1.408 . S
C414 C412 1.363 . S
C414 C415 1.370 . S
C414 C418 1.524 . S
C415 C407 1.503 . S
C415 C414 1.370 . S
C415 C416 1.403 . S
C416 C415 1.403 . S
C416 C417 1.404 . S
C416 C419 1.539 . S
C417 C413 1.408 . S
C417 C416 1.404 . S
C417 H429 0.930 . S
C418 C414 1.524 . S
C418 H430 0.956 . S
C418 H431 0.961 . S
C418 H432 0.961 . S
C419 C416 1.539 . S
C419 H433 0.958 . S
C419 H434 0.961 . S
C419 H435 0.960 . S
H420 C404 0.931 . S
H421 C409 0.929 . S
H422 C410 0.960 . S
H423 C410 0.962 . S
H424 C410 0.960 . S
H425 C411 0.961 . S
H426 C411 0.961 . S
H427 C411 0.961 . S
H428 C412 0.931 . S
H429 C417 0.930 . S
H430 C418 0.956 . S
H431 C418 0.961 . S
H432 C418 0.961 . S
H433 C419 0.958 . S
H434 C419 0.961 . S
H435 C419 0.960 . S
C436 C437 1.391 . S
C436 C438 1.394 . S
C436 H452 0.931 . S
C437 C436 1.391 . S
C437 C441 1.376 . S
C438 C436 1.394 . S
C438 C439 1.369 . S
C438 C442 1.531 . S
C439 C438 1.369 . S
C439 C440 1.410 . S
C439 C447 1.503 . S
C440 C439 1.410 . S
C440 C441 1.392 . S
C440 C443 1.511 . S
C441 C437 1.376 . S
C441 C440 1.392 . S
C441 H453 0.929 . S
C442 C438 1.531 . S
C442 H454 0.960 . S
C442 H455 0.962 . S
C442 H456 0.960 . S
C443 C440 1.511 . S
C443 H457 0.961 . S
C443 H458 0.961 . S
C443 H459 0.961 . S
C444 C445 1.370 . S
C444 C446 1.363 . S
C444 H460 0.931 . S
C445 C444 1.370 . S
C445 C449 1.408 . S
C446 C444 1.363 . S
C446 C447 1.370 . S
C446 C450 1.524 . S
C447 C439 1.503 . S
C447 C446 1.370 . S
C447 C448 1.403 . S
C448 C447 1.403 . S
C448 C449 1.404 . S
C448 C451 1.539 . S
C449 C445 1.408 . S
C449 C448 1.404 . S
C449 H461 0.930 . S
C450 C446 1.524 . S
C450 H462 0.956 . S
C450 H463 0.961 . S
C450 H464 0.961 . S
C451 C448 1.539 . S
C451 H465 0.958 . S
C451 H466 0.961 . S
C451 H467 0.960 . S
H452 C436 0.931 . S
H453 C441 0.929 . S
H454 C442 0.960 . S
H455 C442 0.962 . S
H456 C442 0.960 . S
H457 C443 0.961 . S
H458 C443 0.961 . S
H459 C443 0.961 . S
H460 C444 0.931 . S
H461 C449 0.930 . S
H462 C450 0.956 . S
H463 C450 0.961 . S
H464 C450 0.961 . S
H465 C451 0.958 . S
H466 C451 0.961 . S
H467 C451 0.960 . S
C468 C469 1.391 . S
C468 C470 1.394 . S
C468 H484 0.931 . S
C469 C468 1.391 . S
C469 C473 1.376 . S
C470 C468 1.394 . S
C470 C471 1.369 . S
C470 C474 1.531 . S
C471 C470 1.369 . S
C471 C472 1.410 . S
C471 C479 1.503 . S
C472 C471 1.410 . S
C472 C473 1.392 . S
C472 C475 1.511 . S
C473 C469 1.376 . S
C473 C472 1.392 . S
C473 H485 0.929 . S
C474 C470 1.531 . S
C474 H486 0.960 . S
C474 H487 0.962 . S
C474 H488 0.960 . S
C475 C472 1.511 . S
C475 H489 0.961 . S
C475 H490 0.961 . S
C475 H491 0.961 . S
C476 C477 1.370 . S
C476 C478 1.363 . S
C476 H492 0.931 . S
C477 C476 1.370 . S
C477 C481 1.408 . S
C478 C476 1.363 . S
C478 C479 1.370 . S
C478 C482 1.524 . S
C479 C471 1.503 . S
C479 C478 1.370 . S
C479 C480 1.403 . S
C480 C479 1.403 . S
C480 C481 1.404 . S
C480 C483 1.539 . S
C481 C477 1.408 . S
C481 C480 1.404 . S
C481 H493 0.930 . S
C482 C478 1.524 . S
C482 H494 0.956 . S
C482 H495 0.961 . S
C482 H496 0.961 . S
C483 C480 1.539 . S
C483 H497 0.958 . S
C483 H498 0.961 . S
C483 H499 0.960 . S
H484 C468 0.931 . S
H485 C473 0.929 . S
H486 C474 0.960 . S
H487 C474 0.962 . S
H488 C474 0.960 . S
H489 C475 0.961 . S
H490 C475 0.961 . S
H491 C475 0.961 . S
H492 C476 0.931 . S
H493 C481 0.930 . S
H494 C482 0.956 . S
H495 C482 0.961 . S
H496 C482 0.961 . S
H497 C483 0.958 . S
H498 C483 0.961 . S
H499 C483 0.960 . S
C500 C501 1.391 . S
C500 C502 1.394 . S
C500 H516 0.931 . S
C501 C500 1.391 . S
C501 C505 1.376 . S
C502 C500 1.394 . S
C502 C503 1.369 . S
C502 C506 1.531 . S
C503 C502 1.369 . S
C503 C504 1.410 . S
C503 C511 1.503 . S
C504 C503 1.410 . S
C504 C505 1.392 . S
C504 C507 1.511 . S
C505 C501 1.376 . S
C505 C504 1.392 . S
C505 H517 0.929 . S
C506 C502 1.531 . S
C506 H518 0.960 . S
C506 H519 0.962 . S
C506 H520 0.960 . S
C507 C504 1.511 . S
C507 H521 0.961 . S
C507 H522 0.961 . S
C507 H523 0.961 . S
C508 C509 1.370 . S
C508 C510 1.363 . S
C508 H524 0.931 . S
C509 C508 1.370 . S
C509 C513 1.408 . S
C510 C508 1.363 . S
C510 C511 1.370 . S
C510 C514 1.524 . S
C511 C503 1.503 . S
C511 C510 1.370 . S
C511 C512 1.403 . S
C512 C511 1.403 . S
C512 C513 1.404 . S
C512 C515 1.539 . S
C513 C509 1.408 . S
C513 C512 1.404 . S
C513 H525 0.930 . S
C514 C510 1.524 . S
C514 H526 0.956 . S
C514 H527 0.961 . S
C514 H528 0.961 . S
C515 C512 1.539 . S
C515 H529 0.958 . S
C515 H530 0.961 . S
C515 H531 0.960 . S
H516 C500 0.931 . S
H517 C505 0.929 . S
H518 C506 0.960 . S
H519 C506 0.962 . S
H520 C506 0.960 . S
H521 C507 0.961 . S
H522 C507 0.961 . S
H523 C507 0.961 . S
H524 C508 0.931 . S
H525 C513 0.930 . S
H526 C514 0.956 . S
H527 C514 0.961 . S
H528 C514 0.961 . S
H529 C515 0.958 . S
H530 C515 0.961 . S
H531 C515 0.960 . S
C532 C533 1.391 . S
C532 C534 1.394 . S
C532 H548 0.931 1_556 S
C533 C532 1.391 . S
C533 C537 1.376 . S
C534 C532 1.394 . S
C534 C535 1.369 . S
C534 C538 1.531 . S
C535 C534 1.369 . S
C535 C536 1.410 . S
C535 C543 1.503 . S
C536 C535 1.410 . S
C536 C537 1.392 . S
C536 C539 1.511 . S
C537 C533 1.376 . S
C537 C536 1.392 . S
C537 H549 0.929 . S
C538 C534 1.531 . S
C538 H550 0.960 . S
C538 H551 0.962 . S
C538 H552 0.960 1_556 S
C539 C536 1.511 . S
C539 H553 0.961 . S
C539 H554 0.961 . S
C539 H555 0.961 . S
C540 C541 1.370 . S
C540 C542 1.363 . S
C540 H556 0.931 . S
C541 C540 1.370 . S
C541 C545 1.408 . S
C542 C540 1.363 . S
C542 C543 1.370 . S
C542 C546 1.524 . S
C543 C535 1.503 . S
C543 C542 1.370 . S
C543 C544 1.403 . S
C544 C543 1.403 . S
C544 C545 1.404 . S
C544 C547 1.539 . S
C545 C541 1.408 . S
C545 C544 1.404 . S
C545 H557 0.930 . S
C546 C542 1.524 . S
C546 H558 0.956 . S
C546 H559 0.961 . S
C546 H560 0.961 . S
C547 C544 1.539 . S
C547 H561 0.958 . S
C547 H562 0.961 . S
C547 H563 0.960 . S
H548 C532 0.931 1_554 S
H549 C537 0.929 . S
H550 C538 0.960 . S
H551 C538 0.962 . S
H552 C538 0.960 1_554 S
H553 C539 0.961 . S
H554 C539 0.961 . S
H555 C539 0.961 . S
H556 C540 0.931 . S
H557 C545 0.930 . S
H558 C546 0.956 . S
H559 C546 0.961 . S
H560 C546 0.961 . S
H561 C547 0.958 . S
H562 C547 0.961 . S
H563 C547 0.960 . S
C564 C565 1.391 . S
C564 C566 1.394 . S
C564 H580 0.931 . S
C565 C564 1.391 . S
C565 C569 1.376 . S
C566 C564 1.394 . S
C566 C567 1.369 . S
C566 C570 1.531 . S
C567 C566 1.369 . S
C567 C568 1.410 . S
C567 C575 1.503 . S
C568 C567 1.410 . S
C568 C569 1.392 . S
C568 C571 1.511 . S
C569 C565 1.376 . S
C569 C568 1.392 . S
C569 H581 0.929 . S
C570 C566 1.531 . S
C570 H582 0.960 . S
C570 H583 0.962 . S
C570 H584 0.960 . S
C571 C568 1.511 . S
C571 H585 0.961 . S
C571 H586 0.961 . S
C571 H587 0.961 . S
C572 C573 1.370 . S
C572 C574 1.363 . S
C572 H588 0.931 . S
C573 C572 1.370 . S
C573 C577 1.408 . S
C574 C572 1.363 . S
C574 C575 1.370 . S
C574 C578 1.524 . S
C575 C567 1.503 . S
C575 C574 1.370 . S
C575 C576 1.403 . S
C576 C575 1.403 . S
C576 C577 1.404 . S
C576 C579 1.539 . S
C577 C573 1.408 . S
C577 C576 1.404 . S
C577 H589 0.930 . S
C578 C574 1.524 . S
C578 H590 0.956 . S
C578 H591 0.961 . S
C578 H592 0.961 . S
C579 C576 1.539 . S
C579 H593 0.958 . S
C579 H594 0.961 . S
C579 H595 0.960 . S
H580 C564 0.931 . S
H581 C569 0.929 . S
H582 C570 0.960 . S
H583 C570 0.962 . S
H584 C570 0.960 . S
H585 C571 0.961 . S
H586 C571 0.961 . S
H587 C571 0.961 . S
H588 C572 0.931 . S
H589 C577 0.930 . S
H590 C578 0.956 . S
H591 C578 0.961 . S
H592 C578 0.961 . S
H593 C579 0.958 . S
H594 C579 0.961 . S
H595 C579 0.960 . S
C596 C597 1.391 . S
C596 C598 1.394 . S
C596 H612 0.931 . S
C597 C596 1.391 . S
C597 C601 1.376 . S
C598 C596 1.394 . S
C598 C599 1.369 . S
C598 C602 1.531 . S
C599 C598 1.369 . S
C599 C600 1.410 . S
C599 C607 1.503 . S
C600 C599 1.410 . S
C600 C601 1.392 . S
C600 C603 1.511 . S
C601 C597 1.376 . S
C601 C600 1.392 . S
C601 H613 0.929 . S
C602 C598 1.531 . S
C602 H614 0.960 . S
C602 H615 0.962 . S
C602 H616 0.960 . S
C603 C600 1.511 . S
C603 H617 0.967 . S
C603 H618 0.961 . S
C603 H619 0.961 . S
C604 C605 1.370 . S
C604 C606 1.363 . S
C604 H620 0.931 . S
C605 C604 1.370 . S
C605 C609 1.408 . S
C606 C604 1.363 . S
C606 C607 1.370 . S
C606 C610 1.524 . S
C607 C599 1.503 . S
C607 C606 1.370 . S
C607 C608 1.403 . S
C608 C607 1.403 . S
C608 C609 1.404 . S
C608 C611 1.539 . S
C609 C605 1.408 . S
C609 C608 1.404 . S
C609 H621 0.930 . S
C610 C606 1.524 . S
C610 H622 0.956 . S
C610 H623 0.961 . S
C610 H624 0.961 . S
C611 C608 1.539 . S
C611 H625 0.958 . S
C611 H626 0.961 . S
C611 H627 0.960 . S
H612 C596 0.931 . S
H613 C601 0.929 . S
H614 C602 0.960 . S
H615 C602 0.962 . S
H616 C602 0.960 . S
H617 C603 0.967 . S
H618 C603 0.961 . S
H619 C603 0.961 . S
H620 C604 0.931 . S
H621 C609 0.930 . S
H622 C610 0.956 . S
H623 C610 0.961 . S
H624 C610 0.961 . S
H625 C611 0.958 . S
H626 C611 0.961 . S
H627 C611 0.960 . S
C253 C144 1.685 . S
C245 C68 1.678 . S
C277 C11 1.605 . S
C285 C216 1.716 . S
C309 C30 1.646 . S
C317 C132 1.711 . S
C341 C49 1.587 . S
C349 C228 1.672 . S
C381 C134 1.509 . S
C373 C2 1.646 . S
C413 C215 1.787 . S
C405 C25 1.772 . S
C437 C40 1.678 . S
C445 C131 1.716 . S
C469 C59 1.656 . S
C477 C218 1.514 . S
C509 C230 1.423 . S
C501 C21 1.612 . S
C541 C146 1.441 . S
C533 C44 1.609 1_556 S
C573 C227 1.683 . S
C565 C63 1.680 . S
C597 C6 1.627 . S
C605 C143 1.642 . S
