# Generated by pormake.
# Topology anh, (6,3)-cn, num edge types: 1
# Building blocks:
#     Node 0, Type 0, BuildingBlock: VOLQOD_clean_sbu_1, # of connection points: 6
#     Node 1, Type 0, BuildingBlock: VOLQOD_clean_sbu_1, # of connection points: 6
#     Node 2, Type 0, BuildingBlock: VOLQOD_clean_sbu_1, # of connection points: 6
#     Node 3, Type 1, BuildingBlock: QEWDON_clean_linker_0, # of connection points: 3
#     Node 4, Type 1, BuildingBlock: QEWDON_clean_linker_0, # of connection points: 3
#     Node 5, Type 1, BuildingBlock: QEWDON_clean_linker_0, # of connection points: 3
#     Node 6, Type 1, BuildingBlock: QEWDON_clean_linker_0, # of connection points: 3
#     Node 7, Type 1, BuildingBlock: QEWDON_clean_linker_0, # of connection points: 3
#     Node 8, Type 1, BuildingBlock: QEWDON_clean_linker_0, # of connection points: 3
#     Edge 9, Type (0, 1), BuildingBlock: CIFDUS_clean_linker_0, # of connection points: 2
#     Edge 10, Type (0, 1), BuildingBlock: CIFDUS_clean_linker_0, # of connection points: 2
#     Edge 11, Type (0, 1), BuildingBlock: CIFDUS_clean_linker_0, # of connection points: 2
#     Edge 12, Type (0, 1), BuildingBlock: CIFDUS_clean_linker_0, # of connection points: 2
#     Edge 13, Type (0, 1), BuildingBlock: CIFDUS_clean_linker_0, # of connection points: 2
#     Edge 14, Type (0, 1), BuildingBlock: CIFDUS_clean_linker_0, # of connection points: 2
#     Edge 15, Type (0, 1), BuildingBlock: CIFDUS_clean_linker_0, # of connection points: 2
#     Edge 16, Type (0, 1), BuildingBlock: CIFDUS_clean_linker_0, # of connection points: 2
#     Edge 17, Type (0, 1), BuildingBlock: CIFDUS_clean_linker_0, # of connection points: 2
#     Edge 18, Type (0, 1), BuildingBlock: CIFDUS_clean_linker_0, # of connection points: 2
#     Edge 19, Type (0, 1), BuildingBlock: CIFDUS_clean_linker_0, # of connection points: 2
#     Edge 20, Type (0, 1), BuildingBlock: CIFDUS_clean_linker_0, # of connection points: 2
#     Edge 21, Type (0, 1), BuildingBlock: CIFDUS_clean_linker_0, # of connection points: 2
#     Edge 22, Type (0, 1), BuildingBlock: CIFDUS_clean_linker_0, # of connection points: 2
#     Edge 23, Type (0, 1), BuildingBlock: CIFDUS_clean_linker_0, # of connection points: 2
#     Edge 24, Type (0, 1), BuildingBlock: CIFDUS_clean_linker_0, # of connection points: 2
#     Edge 25, Type (0, 1), BuildingBlock: CIFDUS_clean_linker_0, # of connection points: 2
#     Edge 26, Type (0, 1), BuildingBlock: CIFDUS_clean_linker_0, # of connection points: 2
# Relax obj value: 0.174
# Max RMSD: 0.224
# Mean RMSD: 0.175
data_MOF--net-anh--node1-VOLQOD_clean_sbu_1--node2-QEWDON_clean_linker_0--edge1-CIFDUS_clean_linker_0
_symmetry_space_group_name_H-M    P1
_symmetry_Int_Tables_number       1
_symmetry_cell_setting            triclinic
loop_
_symmetry_equiv_pos_as_xyz
'x, y, z'
_cell_length_a     27.470844
_cell_length_b     27.453792
_cell_length_c     49.228365
_cell_angle_alpha  94.454384
_cell_angle_beta   94.284983
_cell_angle_gamma 120.15085
loop_
_atom_site_label
_atom_site_type_symbol
_atom_site_fract_x
_atom_site_fract_y
_atom_site_fract_z
_atom_type_partial_charge
O0 O 0.06799 0.62095 0.21906 0.0
Zn1 Zn 0.06224 0.63659 0.18036 0.0
O2 O 0.05747 0.57606 0.15467 0.0
Zn3 Zn 0.99188 0.54846 0.12771 0.0
Zn4 Zn 0.05336 0.515 0.17528 0.0
Zn5 Zn 0.12023 0.60529 0.13329 0.0
O6 O 0.00604 0.54836 0.0884 0.0
O7 O 0.09929 0.60435 0.09289 0.0
O8 O 0.99369 0.64596 0.17369 0.0
O9 O 0.95369 0.59348 0.13299 0.0
O10 O 0.93447 0.47243 0.13454 0.0
O11 O 0.97168 0.44706 0.16841 0.0
O12 O 0.11429 0.49643 0.16513 0.0
O13 O 0.13524 0.70948 0.17917 0.0
O14 O 0.1567 0.55896 0.13606 0.0
O15 O 0.17799 0.68482 0.14899 0.0
C16 C 0.07166 0.58306 0.23082 0.0
C17 C 0.05146 0.57652 0.07784 0.0
C18 C 0.9295 0.43818 0.15154 0.0
C19 C 0.95598 0.62747 0.15277 0.0
C20 C 0.1518 0.51858 0.1489 0.0
C21 C 0.17797 0.72125 0.16659 0.0
O22 O 0.0685 0.54018 0.21687 0.0
O23 O 0.54867 0.07986 0.45175 0.0
Zn24 Zn 0.53065 0.06099 0.48947 0.0
O25 O 0.58818 0.04823 0.50725 0.0
Zn26 Zn 0.63636 0.10896 0.53688 0.0
Zn27 Zn 0.63394 0.04061 0.48036 0.0
Zn28 Zn 0.54944 0.97981 0.52348 0.0
O29 O 0.63389 0.0808 0.57413 0.0
O30 O 0.5565 0.99521 0.56408 0.0
O31 O 0.52895 0.12632 0.51081 0.0
O32 O 0.60551 0.16072 0.54171 0.0
O33 O 0.7153 0.15742 0.52661 0.0
O34 O 0.71289 0.11049 0.48717 0.0
O35 O 0.63668 0.96712 0.48207 0.0
O36 O 0.45287 0.98885 0.48346 0.0
O37 O 0.58443 0.93389 0.51589 0.0
O38 O 0.46743 0.93127 0.50744 0.0
C39 C 0.57468 0.0671 0.43481 0.0
C40 C 0.59475 0.03537 0.58161 0.0
C41 C 0.73871 0.15353 0.50575 0.0
C42 C 0.56321 0.16286 0.5309 0.0
C43 C 0.61592 0.931 0.49901 0.0
C44 C 0.43492 0.94043 0.49164 0.0
O45 O 0.60402 0.04496 0.44214 0.0
O46 O 0.48723 0.49388 0.77391 0.0
Zn47 Zn 0.46396 0.4711 0.81109 0.0
O48 O 0.52422 0.52432 0.84073 0.0
Zn49 Zn 0.49658 0.55923 0.86622 0.0
Zn50 Zn 0.58786 0.58361 0.82466 0.0
Zn51 Zn 0.54894 0.48367 0.86268 0.0
O52 O 0.50616 0.54817 0.906 0.0
O53 O 0.53498 0.48625 0.9021 0.0
O54 O 0.39097 0.47187 0.81468 0.0
O55 O 0.41474 0.52812 0.85431 0.0
O56 O 0.53291 0.64218 0.86371 0.0
O57 O 0.58974 0.65881 0.83142 0.0
O58 O 0.66295 0.59243 0.84059 0.0
O59 O 0.45185 0.39114 0.81078 0.0
O60 O 0.63208 0.51862 0.86399 0.0
O61 O 0.5129 0.40307 0.84656 0.0
C62 C 0.53426 0.52878 0.76607 0.0
C63 C 0.52017 0.51557 0.91674 0.0
C64 C 0.5665 0.67547 0.8484 0.0
C65 C 0.37851 0.49636 0.83372 0.0
C66 C 0.6724 0.56122 0.85546 0.0
C67 C 0.47554 0.37169 0.82632 0.0
O68 O 0.57764 0.56317 0.78331 0.0
H69 H 0.59722 0.14591 0.26331 0.0
C70 C 0.55945 0.10507 0.25609 0.0
C71 C 0.53728 0.06364 0.27393 0.0
C72 C 0.53111 0.09417 0.22933 0.0
H73 H 0.46952 0.98042 0.2792 0.0
C74 C 0.48698 0.01175 0.26514 0.0
C75 C 0.4587 0.00052 0.23857 0.0
C76 C 0.48154 0.04142 0.22073 0.0
C77 C 0.55066 0.13735 0.21012 0.0
H78 H 0.45956 0.03266 0.20014 0.0
C79 C 0.60829 0.16956 0.20649 0.0
C80 C 0.62495 0.20553 0.18586 0.0
C81 C 0.51025 0.14352 0.19381 0.0
H82 H 0.46583 0.12068 0.19671 0.0
C83 C 0.52622 0.17799 0.1731 0.0
H84 H 0.63971 0.16606 0.21946 0.0
C85 C 0.58279 0.20784 0.16874 0.0
H86 H 0.5933 0.23286 0.15185 0.0
H87 H 0.49452 0.18113 0.16017 0.0
H88 H 0.49253 0.5481 0.58889 0.0
C89 C 0.49541 0.51101 0.58255 0.0
C90 C 0.50113 0.47952 0.60246 0.0
C91 C 0.49252 0.49402 0.55446 0.0
H92 H 0.50715 0.40616 0.60953 0.0
C93 C 0.50395 0.43102 0.59417 0.0
C94 C 0.5002 0.41314 0.56619 0.0
C95 C 0.49489 0.44512 0.54656 0.0
C96 C 0.48602 0.52609 0.53298 0.0
H97 H 0.49363 0.43247 0.52498 0.0
C98 C 0.52176 0.58538 0.53494 0.0
C99 C 0.5167 0.61536 0.51392 0.0
C100 C 0.44504 0.4968 0.50977 0.0
H101 H 0.41681 0.45118 0.50782 0.0
C102 C 0.43975 0.52608 0.48895 0.0
H103 H 0.55414 0.60782 0.55255 0.0
C104 C 0.47512 0.58486 0.49096 0.0
H105 H 0.4688 0.60649 0.4748 0.0
H106 H 0.40774 0.50317 0.47126 0.0
H107 H 0.13818 0.65858 0.91217 0.0
C108 C 0.10013 0.65955 0.90569 0.0
C109 C 0.06341 0.65511 0.92494 0.0
C110 C 0.08653 0.6625 0.87789 0.0
H111 H 0.98581 0.65317 0.93129 0.0
C112 C 0.0141 0.65607 0.91644 0.0
C113 C -0.00035 0.65852 0.88885 0.0
C114 C 0.0364 0.66253 0.86974 0.0
C115 C 0.12189 0.66043 0.85696 0.0
H116 H 0.0241 0.6619 0.84821 0.0
C117 C 0.14369 0.62393 0.85824 0.0
C118 C 0.178 0.62185 0.83894 0.0
C119 C 0.13314 0.69372 0.83538 0.0
H120 H 0.11708 0.72239 0.83388 0.0
C121 C 0.16604 0.69087 0.81571 0.0
H122 H 0.13358 0.59664 0.87424 0.0
C123 C 0.18863 0.65543 0.81749 0.0
H124 H 0.21566 0.65556 0.80253 0.0
H125 H 0.17486 0.71696 0.79927 0.0
H126 H 0.01007 0.51656 0.39818 0.0
C127 C 0.05038 0.55053 0.40897 0.0
C128 C 0.09513 0.58321 0.39407 0.0
C129 C 0.05588 0.56469 0.43753 0.0
H130 H 0.18055 0.65502 0.397 0.0
C131 C 0.14581 0.62955 0.40825 0.0
C132 C 0.15196 0.64373 0.43682 0.0
C133 C 0.10691 0.61079 0.45134 0.0
C134 C 0.0054 0.53961 0.45212 0.0
H135 H 0.1103 0.62296 0.4732 0.0
C136 C 0.98561 0.48729 0.46247 0.0
C137 C 0.93953 0.46709 0.47796 0.0
C138 C 0.97827 0.57067 0.45673 0.0
H139 H 0.99308 0.61099 0.44893 0.0
C140 C 0.93218 0.55032 0.47153 0.0
H141 H 0.00679 0.46343 0.45916 0.0
C142 C 0.91301 0.49909 0.48214 0.0
H143 H 0.87689 0.48415 0.49349 0.0
H144 H 0.91138 0.57449 0.47491 0.0
H145 H 0.52765 0.98877 0.74428 0.0
C146 C 0.51796 0.02152 0.7501 0.0
C147 C 0.53407 0.06683 0.73451 0.0
C148 C 0.4882 0.01752 0.77267 0.0
H149 H 0.53193 0.14313 0.72967 0.0
C150 C 0.52017 0.10843 0.74176 0.0
C151 C 0.49044 0.10529 0.76416 0.0
C152 C 0.47516 0.06 0.77962 0.0
C153 C 0.46882 0.96816 0.78845 0.0
H154 H 0.45248 0.05759 0.79701 0.0
C155 C 0.50259 0.94373 0.79373 0.0
C156 C 0.48388 0.89743 0.80884 0.0
C157 C 0.41571 0.94479 0.79823 0.0
H158 H 0.38778 0.96114 0.79389 0.0
C159 C 0.39731 0.89922 0.81335 0.0
H160 H 0.54374 0.96114 0.78657 0.0
C161 C 0.4311 0.87572 0.81871 0.0
H162 H 0.41527 0.83956 0.83003 0.0
H163 H 0.35635 0.88161 0.8207 0.0
H164 H 0.51 0.58511 0.09601 0.0
C165 C 0.55237 0.59217 0.10083 0.0
C166 C 0.58002 0.58428 0.07953 0.0
C167 C 0.57956 0.60989 0.12815 0.0
H168 H 0.65617 0.58801 0.06916 0.0
C169 C 0.63537 0.59464 0.08568 0.0
C170 C 0.66448 0.61461 0.11252 0.0
C171 C 0.63572 0.62124 0.13367 0.0
C172 C 0.55039 0.61858 0.15083 0.0
H173 H 0.65727 0.63591 0.1545 0.0
C174 C 0.49157 0.58218 0.15127 0.0
C175 C 0.46405 0.59147 0.17244 0.0
C176 C 0.58135 0.66412 0.17213 0.0
H177 H 0.62615 0.69393 0.1722 0.0
C178 C 0.55468 0.6728 0.19339 0.0
H179 H 0.46724 0.54647 0.13525 0.0
C180 C 0.49659 0.63706 0.19356 0.0
H181 H 0.47691 0.6465 0.2098 0.0
H182 H 0.57899 0.70822 0.20954 0.0
H183 H 0.21183 0.50533 0.19112 0.0
H184 H 0.19562 0.50572 0.1034 0.0
H185 H 0.29033 0.5195 0.10234 0.0
H186 H 0.38379 0.55204 0.12749 0.0
H187 H 0.40211 0.55462 0.21552 0.0
H188 H 0.30092 0.51938 0.21532 0.0
C189 C 0.22816 0.50591 0.17167 0.0
C190 C 0.19709 0.50485 0.1474 0.0
C191 C 0.28383 0.51636 0.17138 0.0
C192 C 0.21896 0.50652 0.12235 0.0
C193 C 0.27337 0.51506 0.12177 0.0
C194 C 0.36552 0.54312 0.14656 0.0
C195 C 0.40105 0.55753 0.17156 0.0
C196 C 0.30732 0.52327 0.14635 0.0
C197 C 0.37619 0.54569 0.19603 0.0
C198 C 0.31817 0.52523 0.19595 0.0
H199 H 0.80176 0.25559 0.53836 0.0
H200 H 0.79302 0.16772 0.45987 0.0
H201 H 0.86171 0.25763 0.44547 0.0
H202 H 0.91165 0.36276 0.45228 0.0
H203 H 0.91729 0.44968 0.53031 0.0
H204 H 0.86296 0.35897 0.5477 0.0
C205 C 0.81581 0.25574 0.51834 0.0
C206 C 0.7912 0.20479 0.50012 0.0
C207 C 0.85424 0.30784 0.50985 0.0
C208 C 0.81066 0.20614 0.47435 0.0
C209 C 0.84976 0.25775 0.46595 0.0
C210 C 0.90225 0.36175 0.47331 0.0
C211 C 0.91758 0.41278 0.48982 0.0
C212 C 0.86994 0.30914 0.48307 0.0
C213 C 0.90505 0.41087 0.51704 0.0
C214 C 0.87397 0.35901 0.52701 0.0
H215 H 0.58274 0.73521 0.8049 0.0
H216 H 0.55615 0.73886 0.89014 0.0
H217 H 0.5359 0.81509 0.88622 0.0
H218 H 0.5104 0.86897 0.85684 0.0
H219 H 0.53164 0.86239 0.77103 0.0
H220 H 0.57026 0.80001 0.77693 0.0
C221 C 0.57433 0.754 0.82281 0.0
C222 C 0.57033 0.73103 0.84769 0.0
C223 C 0.56078 0.79665 0.82017 0.0
C224 C 0.55897 0.7555 0.8707 0.0
C225 C 0.54706 0.79888 0.86844 0.0
C226 C 0.52435 0.85453 0.83955 0.0
C227 C 0.51739 0.86938 0.81348 0.0
C228 C 0.54527 0.81785 0.84299 0.0
C229 C 0.53654 0.85139 0.79131 0.0
C230 C 0.55826 0.81543 0.79465 0.0
H231 H 0.91334 0.65922 0.11122 0.0
H232 H 0.89101 0.61612 0.19344 0.0
H233 H 0.79852 0.60989 0.18885 0.0
H234 H 0.71976 0.60519 0.15918 0.0
H235 H 0.74743 0.65892 0.07861 0.0
H236 H 0.84162 0.67135 0.08472 0.0
C237 C 0.88876 0.65 0.12835 0.0
C238 C 0.90856 0.63812 0.15259 0.0
C239 C 0.83602 0.64686 0.12561 0.0
C240 C 0.87667 0.62609 0.17471 0.0
C241 C 0.82357 0.62188 0.17195 0.0
C242 C 0.74655 0.62098 0.14313 0.0
C243 C 0.72491 0.62895 0.11802 0.0
C244 C 0.80207 0.63051 0.14715 0.0
C245 C 0.76119 0.64951 0.09765 0.0
C246 C 0.81569 0.65753 0.10123 0.0
H247 H 0.37892 0.83573 0.50845 0.0
H248 H 0.36177 0.93604 0.44924 0.0
H249 H 0.27272 0.85323 0.42721 0.0
H250 H 0.20201 0.75094 0.42327 0.0
H251 H 0.21801 0.65129 0.48297 0.0
H252 H 0.30527 0.73518 0.50628 0.0
C253 C 0.35551 0.83973 0.49088 0.0
C254 C 0.37739 0.89215 0.48047 0.0
C255 C 0.30436 0.79185 0.47823 0.0
C256 C 0.34608 0.89641 0.45778 0.0
C257 C 0.29524 0.84893 0.44503 0.0
C258 C 0.2248 0.74771 0.44135 0.0
C259 C 0.20414 0.69497 0.45124 0.0
C260 C 0.27449 0.79623 0.45479 0.0
C261 C 0.23327 0.69145 0.47499 0.0
C262 C 0.28311 0.73935 0.48827 0.0
H263 H 0.44369 0.30857 0.77581 0.0
H264 H 0.48719 0.30596 0.86153 0.0
H265 H 0.49181 0.2206 0.84993 0.0
H266 H 0.49533 0.15425 0.81527 0.0
H267 H 0.4523 0.15592 0.72935 0.0
H268 H 0.43664 0.23458 0.74117 0.0
C269 C 0.45268 0.2884 0.79196 0.0
C270 C 0.46545 0.31374 0.81945 0.0
C271 C 0.4568 0.24 0.78509 0.0
C272 C 0.47759 0.28745 0.84017 0.0
C273 C 0.48054 0.2388 0.83356 0.0
C274 C 0.48132 0.17088 0.79912 0.0
C275 C 0.47582 0.14962 0.77145 0.0
C276 C 0.47212 0.21587 0.80604 0.0
C277 C 0.45826 0.17236 0.75081 0.0
C278 C 0.44881 0.21707 0.75755 0.0
H279 H 0.61971 0.87767 0.54167 0.0
H280 H 0.62163 0.86904 0.45399 0.0
H281 H 0.59886 0.77001 0.45152 0.0
H282 H 0.5619 0.68219 0.47341 0.0
H283 H 0.55025 0.69119 0.56055 0.0
H284 H 0.59423 0.7938 0.56417 0.0
C285 C 0.61658 0.85453 0.52208 0.0
C286 C 0.62145 0.88014 0.49799 0.0
C287 C 0.60074 0.79729 0.52071 0.0
C288 C 0.61816 0.8502 0.47282 0.0
C289 C 0.60433 0.79337 0.47139 0.0
C290 C 0.56921 0.70661 0.49323 0.0
C291 C 0.55175 0.67853 0.51658 0.0
C292 C 0.59266 0.76574 0.49503 0.0
C293 C 0.56329 0.71122 0.54222 0.0
C294 C 0.58811 0.77006 0.54431 0.0
H295 H 0.77213 0.64418 0.84018 0.0
H296 H 0.70437 0.50643 0.88958 0.0
H297 H 0.79898 0.52504 0.90395 0.0
H298 H 0.90033 0.57872 0.90254 0.0
H299 H 0.97163 0.71679 0.85394 0.0
H300 H 0.87621 0.69925 0.83894 0.0
C301 C 0.77816 0.61835 0.8541 0.0
C302 C 0.73096 0.574 0.86372 0.0
C303 C 0.83323 0.62914 0.86241 0.0
C304 C 0.73962 0.54082 0.88172 0.0
C305 C 0.79384 0.55136 0.89004 0.0
C306 C 0.89516 0.60559 0.88897 0.0
C307 C 0.94282 0.64948 0.87968 0.0
C308 C 0.84078 0.59529 0.88056 0.0
C309 C 0.93536 0.68279 0.86141 0.0
C310 C 0.88094 0.67284 0.85291 0.0
H311 H 0.20928 0.79036 0.2148 0.0
H312 H 0.26682 0.77303 0.13732 0.0
H313 H 0.3597 0.8571 0.15327 0.0
H314 H 0.42532 0.93304 0.18973 0.0
H315 H 0.36826 0.95064 0.26725 0.0
H316 H 0.27461 0.86753 0.25104 0.0
C317 C 0.24185 0.80553 0.20124 0.0
C318 C 0.2312 0.77583 0.17488 0.0
C319 C 0.29545 0.85301 0.21075 0.0
C320 C 0.27406 0.79534 0.1577 0.0
C321 C 0.3272 0.84315 0.16684 0.0
C322 C 0.39226 0.91881 0.20301 0.0
C323 C 0.40356 0.94777 0.22961 0.0
C324 C 0.33852 0.8718 0.19343 0.0
C325 C 0.36074 0.92845 0.24681 0.0
C326 C 0.30708 0.88141 0.23746 0.0
H327 H 0.48556 0.18993 0.51078 0.0
H328 H 0.6234 0.24186 0.5758 0.0
H329 H 0.61462 0.32222 0.59291 0.0
H330 H 0.57091 0.38044 0.58846 0.0
H331 H 0.43315 0.32935 0.52375 0.0
H332 H 0.43913 0.24639 0.50746 0.0
C333 C 0.51345 0.2186 0.52878 0.0
C334 C 0.55522 0.20984 0.54182 0.0
C335 C 0.50851 0.26522 0.53853 0.0
C336 C 0.591 0.24756 0.56517 0.0
C337 C 0.58608 0.29366 0.57505 0.0
C338 C 0.5417 0.35073 0.57103 0.0
C339 C 0.50189 0.36119 0.55728 0.0
C340 C 0.54539 0.30322 0.56175 0.0
C341 C 0.46478 0.32267 0.53447 0.0
C342 C 0.46798 0.2751 0.5252 0.0
H343 H 0.32945 0.52061 0.87373 0.0
H344 H 0.30886 0.47597 0.78597 0.0
H345 H 0.23863 0.50559 0.77992 0.0
H346 H 0.19509 0.55825 0.79926 0.0
H347 H 0.22448 0.60996 0.88694 0.0
H348 H 0.2789 0.5633 0.89327 0.0
C349 C 0.30872 0.5162 0.85328 0.0
C350 C 0.32503 0.49711 0.83031 0.0
C351 C 0.27063 0.53559 0.84992 0.0
C352 C 0.29711 0.49064 0.80401 0.0
C353 C 0.25751 0.50829 0.80052 0.0
C354 C 0.21321 0.55904 0.81974 0.0
C355 C 0.20595 0.588 0.84253 0.0
C356 C 0.24602 0.53332 0.82325 0.0
C357 C 0.22876 0.58761 0.86901 0.0
C358 C 0.26029 0.56121 0.87269 0.0
H359 H 0.887 0.33351 0.17041 0.0
H360 H 0.84043 0.45277 0.1437 0.0
H361 H 0.74506 0.39374 0.15394 0.0
H362 H 0.67529 0.31104 0.17124 0.0
H363 H 0.71244 0.18256 0.19269 0.0
H364 H 0.8113 0.2434 0.18494 0.0
C365 C 0.85562 0.34594 0.16661 0.0
C366 C 0.87089 0.39716 0.15599 0.0
C367 C 0.79937 0.31079 0.17203 0.0
C368 C 0.82987 0.41306 0.15131 0.0
C369 C 0.77519 0.37962 0.1574 0.0
C370 C 0.70421 0.29518 0.17358 0.0
C371 C 0.68577 0.24176 0.18213 0.0
C372 C 0.75956 0.32863 0.16775 0.0
C373 C 0.72527 0.22371 0.1863 0.0
C374 C 0.78177 0.25826 0.18159 0.0
H375 H 0.13483 0.64751 0.04899 0.0
H376 H 0.95884 0.5132 0.03931 0.0
H377 H 0.94843 0.52423 0.99103 0.0
H378 H 0.98715 0.575 0.95222 0.0
H379 H 0.16194 0.71067 0.96117 0.0
H380 H 0.17522 0.69557 0.00899 0.0
C381 C 0.09438 0.62024 0.03625 0.0
C382 C 0.04759 0.57986 0.04791 0.0
C383 C 0.08836 0.62722 0.00842 0.0
C384 C 0.99549 0.54491 0.03103 0.0
C385 C 0.9894 0.55118 0.00337 0.0
C386 C 0.02813 0.60148 0.96468 0.0
C387 C 0.07326 0.64451 0.95338 0.0
C388 C 0.03518 0.59284 0.99202 0.0
C389 C 0.12653 0.6774 0.96948 0.0
C390 C 0.13403 0.66888 0.99681 0.0
H391 H 0.62358 0.04717 0.39217 0.0
H392 H 0.51381 0.11117 0.41251 0.0
H393 H 0.49937 0.12332 0.36479 0.0
H394 H 0.5104 0.10755 0.31654 0.0
H395 H 0.61627 0.04033 0.29525 0.0
H396 H 0.64077 0.03865 0.34404 0.0
C397 C 0.59683 0.06414 0.38621 0.0
C398 C 0.5693 0.07747 0.40594 0.0
C399 C 0.5883 0.0708 0.35855 0.0
C400 C 0.53518 0.09994 0.39782 0.0
C401 C 0.5269 0.10709 0.37049 0.0
C402 C 0.54012 0.09416 0.32281 0.0
C403 C 0.56238 0.07495 0.30275 0.0
C404 C 0.55235 0.0917 0.35063 0.0
C405 C 0.59968 0.05624 0.31065 0.0
C406 C 0.61308 0.05472 0.33843 0.0
H407 H 0.45228 0.50535 0.72418 0.0
H408 H 0.62706 0.54988 0.74128 0.0
H409 H 0.63322 0.54083 0.69198 0.0
H410 H 0.58695 0.51479 0.64388 0.0
H411 H 0.41437 0.4764 0.62674 0.0
H412 H 0.40918 0.48896 0.67611 0.0
C413 C 0.49176 0.51336 0.71706 0.0
C414 C 0.53897 0.52765 0.7363 0.0
C415 C 0.49531 0.50923 0.6887 0.0
C416 C 0.59016 0.53881 0.72685 0.0
C417 C 0.59365 0.53348 0.69868 0.0
C418 C 0.54862 0.51006 0.65109 0.0
C419 C 0.50106 0.4947 0.63194 0.0
C420 C 0.5463 0.51803 0.67942 0.0
C421 C 0.4515 0.48861 0.64126 0.0
C422 C 0.44848 0.49544 0.66942 0.0
H423 H 0.64499 0.12025 0.62506 0.0
H424 H 0.53115 0.93919 0.60434 0.0
H425 H 0.50696 0.93218 0.65098 0.0
H426 H 0.5082 0.97887 0.69551 0.0
H427 H 0.62128 0.15976 0.71682 0.0
H428 H 0.65544 0.16534 0.67209 0.0
C429 C 0.61585 0.07912 0.63092 0.0
C430 C 0.5893 0.03052 0.6111 0.0
C431 C 0.60118 0.07541 0.65776 0.0
C432 C 0.55165 0.97748 0.61906 0.0
C433 C 0.53764 0.97336 0.64575 0.0
C434 C 0.54143 0.01932 0.69073 0.0
C435 C 0.5615 0.0689 0.70936 0.0
C436 C 0.56065 0.02228 0.66497 0.0
C437 C 0.60417 0.12107 0.7026 0.0
C438 C 0.6239 0.12429 0.67707 0.0
H439 H 0.49887 0.57716 0.95549 0.0
H440 H 0.54897 0.45132 0.94604 0.0
H441 H 0.56537 0.4568 0.99574 0.0
H442 H 0.5744 0.5036 0.04179 0.0
H443 H 0.52751 0.63142 0.05178 0.0
H444 H 0.49958 0.6178 0.00212 0.0
C445 C 0.51273 0.55043 0.96428 0.0
C446 C 0.52338 0.51447 0.94692 0.0
C447 C 0.52269 0.55411 0.99303 0.0
C448 C 0.54091 0.47983 0.95878 0.0
C449 C 0.55037 0.4829 0.98726 0.0
C450 C 0.55748 0.52803 0.03309 0.0
C451 C 0.55358 0.56886 0.05037 0.0
C452 C 0.54278 0.52088 0.00455 0.0
C453 C 0.53069 0.59954 0.03892 0.0
C454 C 0.51524 0.59215 0.0105 0.0
H455 H 0.04801 0.50224 0.26552 0.0
H456 H 0.11667 0.68222 0.26478 0.0
H457 H 0.13056 0.69774 0.31473 0.0
H458 H 0.12157 0.66089 0.35871 0.0
H459 H 0.0507 0.48132 0.36084 0.0
H460 H 0.0387 0.46487 0.31043 0.0
C461 C 0.0663 0.54481 0.27634 0.0
C462 C 0.08119 0.59093 0.26133 0.0
C463 C 0.07347 0.55355 0.30535 0.0
C464 C 0.10441 0.64583 0.27571 0.0
C465 C 0.11251 0.65487 0.30434 0.0
C466 C 0.10407 0.61818 0.34818 0.0
C467 C 0.08759 0.57249 0.3635 0.0
C468 C 0.09695 0.60911 0.31935 0.0
C469 C 0.06365 0.51722 0.34949 0.0
C470 C 0.05698 0.50786 0.32068 0.0
loop_
_geom_bond_atom_site_label_1
_geom_bond_atom_site_label_2
_geom_bond_distance
_geom_bond_site_symmetry_2
_ccdc_geom_bond_type
O0 Zn1 1.953 . S
O0 C16 1.225 . S
Zn1 O0 1.953 . S
Zn1 O2 1.949 . S
Zn1 O8 1.919 1_455 S
Zn1 O13 1.924 . S
O2 Zn1 1.949 . S
O2 Zn3 1.923 1_455 S
O2 Zn4 1.950 . S
O2 Zn5 1.945 . S
Zn3 O2 1.923 1_655 S
Zn3 O6 1.933 . S
Zn3 O9 1.941 . S
Zn3 O10 1.965 . S
Zn4 O2 1.950 . S
Zn4 O11 1.938 1_455 S
Zn4 O12 1.906 . S
Zn4 O22 1.953 . S
Zn5 O2 1.945 . S
Zn5 O7 1.932 . S
Zn5 O14 1.977 . S
Zn5 O15 1.910 . S
O6 Zn3 1.933 . S
O6 C17 1.226 1_655 S
O7 Zn5 1.932 . S
O7 C17 1.307 . S
O8 Zn1 1.919 1_655 S
O8 C19 1.253 . S
O9 Zn3 1.941 . S
O9 C19 1.283 . S
O10 Zn3 1.965 . S
O10 C18 1.303 . S
O11 Zn4 1.938 1_655 S
O11 C18 1.247 . S
O12 Zn4 1.906 . S
O12 C20 1.304 . S
O13 Zn1 1.924 . S
O13 C21 1.311 . S
O14 Zn5 1.977 . S
O14 C20 1.272 . S
O15 Zn5 1.910 . S
O15 C21 1.231 . S
C16 O0 1.225 . S
C16 O22 1.298 . S
C17 O6 1.226 1_455 S
C17 O7 1.307 . S
C18 O10 1.303 . S
C18 O11 1.247 . S
C19 O8 1.253 . S
C19 O9 1.283 . S
C20 O12 1.304 . S
C20 O14 1.272 . S
C21 O13 1.311 . S
C21 O15 1.231 . S
O22 Zn4 1.953 . S
O22 C16 1.298 . S
O23 Zn24 1.953 . S
O23 C39 1.225 . S
Zn24 O23 1.953 . S
Zn24 O25 1.949 . S
Zn24 O31 1.919 . S
Zn24 O36 1.924 . S
O25 Zn24 1.949 . S
O25 Zn26 1.923 . S
O25 Zn27 1.950 . S
O25 Zn28 1.945 . S
Zn26 O25 1.923 . S
Zn26 O29 1.933 . S
Zn26 O32 1.941 . S
Zn26 O33 1.965 . S
Zn27 O25 1.950 . S
Zn27 O34 1.938 . S
Zn27 O35 1.906 1_545 S
Zn27 O45 1.953 . S
Zn28 O25 1.945 . S
Zn28 O30 1.932 . S
Zn28 O37 1.977 1_545 S
Zn28 O38 1.910 1_545 S
O29 Zn26 1.933 . S
O29 C40 1.226 . S
O30 Zn28 1.932 . S
O30 C40 1.307 . S
O31 Zn24 1.919 . S
O31 C42 1.253 . S
O32 Zn26 1.941 . S
O32 C42 1.283 . S
O33 Zn26 1.965 . S
O33 C41 1.303 . S
O34 Zn27 1.938 . S
O34 C41 1.247 . S
O35 Zn27 1.906 1_565 S
O35 C43 1.304 . S
O36 Zn24 1.924 . S
O36 C44 1.311 1_545 S
O37 Zn28 1.977 1_565 S
O37 C43 1.272 . S
O38 Zn28 1.910 1_565 S
O38 C44 1.231 . S
C39 O23 1.225 . S
C39 O45 1.298 . S
C40 O29 1.226 . S
C40 O30 1.307 . S
C41 O33 1.303 . S
C41 O34 1.247 . S
C42 O31 1.253 . S
C42 O32 1.283 . S
C43 O35 1.304 . S
C43 O37 1.272 . S
C44 O36 1.311 1_565 S
C44 O38 1.231 . S
O45 Zn27 1.953 . S
O45 C39 1.298 . S
O46 Zn47 1.953 . S
O46 C62 1.225 . S
Zn47 O46 1.953 . S
Zn47 O48 1.949 . S
Zn47 O54 1.919 . S
Zn47 O59 1.924 . S
O48 Zn47 1.949 . S
O48 Zn49 1.923 . S
O48 Zn50 1.950 . S
O48 Zn51 1.945 . S
Zn49 O48 1.923 . S
Zn49 O52 1.933 . S
Zn49 O55 1.941 . S
Zn49 O56 1.965 . S
Zn50 O48 1.950 . S
Zn50 O57 1.938 . S
Zn50 O58 1.906 . S
Zn50 O68 1.953 . S
Zn51 O48 1.945 . S
Zn51 O53 1.932 . S
Zn51 O60 1.977 . S
Zn51 O61 1.910 . S
O52 Zn49 1.933 . S
O52 C63 1.226 . S
O53 Zn51 1.932 . S
O53 C63 1.307 . S
O54 Zn47 1.919 . S
O54 C65 1.253 . S
O55 Zn49 1.941 . S
O55 C65 1.283 . S
O56 Zn49 1.965 . S
O56 C64 1.303 . S
O57 Zn50 1.938 . S
O57 C64 1.247 . S
O58 Zn50 1.906 . S
O58 C66 1.304 . S
O59 Zn47 1.924 . S
O59 C67 1.311 . S
O60 Zn51 1.977 . S
O60 C66 1.272 . S
O61 Zn51 1.910 . S
O61 C67 1.231 . S
C62 O46 1.225 . S
C62 O68 1.298 . S
C63 O52 1.226 . S
C63 O53 1.307 . S
C64 O56 1.303 . S
C64 O57 1.247 . S
C65 O54 1.253 . S
C65 O55 1.283 . S
C66 O58 1.304 . S
C66 O60 1.272 . S
C67 O59 1.311 . S
C67 O61 1.231 . S
O68 Zn50 1.953 . S
O68 C62 1.298 . S
H69 C70 0.949 . S
C70 H69 0.949 . S
C70 C71 1.395 . S
C70 C72 1.391 . S
C71 C70 1.395 . S
C71 C74 1.390 . S
C72 C70 1.391 . S
C72 C76 1.387 . S
C72 C77 1.491 . S
H73 C74 0.950 1_565 S
C74 C71 1.390 . S
C74 H73 0.950 1_545 S
C74 C75 1.378 . S
C75 C74 1.378 . S
C75 C76 1.409 . S
C76 C72 1.387 . S
C76 C75 1.409 . S
C76 H78 0.951 . S
C77 C72 1.491 . S
C77 C79 1.382 . S
C77 C81 1.404 . S
H78 C76 0.951 . S
C79 C77 1.382 . S
C79 C80 1.390 . S
C79 H84 0.949 . S
C80 C79 1.390 . S
C80 C85 1.399 . S
C81 C77 1.404 . S
C81 H82 0.950 . S
C81 C83 1.375 . S
H82 C81 0.950 . S
C83 C81 1.375 . S
C83 C85 1.382 . S
C83 H87 0.950 . S
H84 C79 0.949 . S
C85 C80 1.399 . S
C85 C83 1.382 . S
C85 H86 0.952 . S
H86 C85 0.952 . S
H87 C83 0.950 . S
H88 C89 0.949 . S
C89 H88 0.949 . S
C89 C90 1.395 . S
C89 C91 1.391 . S
C90 C89 1.395 . S
C90 C93 1.390 . S
C91 C89 1.391 . S
C91 C95 1.387 . S
C91 C96 1.491 . S
H92 C93 0.950 . S
C93 C90 1.390 . S
C93 H92 0.950 . S
C93 C94 1.378 . S
C94 C93 1.378 . S
C94 C95 1.409 . S
C95 C91 1.387 . S
C95 C94 1.409 . S
C95 H97 0.951 . S
C96 C91 1.491 . S
C96 C98 1.382 . S
C96 C100 1.404 . S
H97 C95 0.951 . S
C98 C96 1.382 . S
C98 C99 1.390 . S
C98 H103 0.949 . S
C99 C98 1.390 . S
C99 C104 1.399 . S
C100 C96 1.404 . S
C100 H101 0.950 . S
C100 C102 1.375 . S
H101 C100 0.950 . S
C102 C100 1.375 . S
C102 C104 1.382 . S
C102 H106 0.950 . S
H103 C98 0.949 . S
C104 C99 1.399 . S
C104 C102 1.382 . S
C104 H105 0.952 . S
H105 C104 0.952 . S
H106 C102 0.950 . S
H107 C108 0.949 . S
C108 H107 0.949 . S
C108 C109 1.395 . S
C108 C110 1.391 . S
C109 C108 1.395 . S
C109 C112 1.390 1_455 S
C110 C108 1.391 . S
C110 C114 1.387 . S
C110 C115 1.491 . S
H111 C112 0.950 . S
C112 C109 1.390 1_655 S
C112 H111 0.950 . S
C112 C113 1.378 . S
C113 C112 1.378 . S
C113 C114 1.409 1_655 S
C114 C110 1.387 . S
C114 C113 1.409 1_455 S
C114 H116 0.951 . S
C115 C110 1.491 . S
C115 C117 1.382 . S
C115 C119 1.404 . S
H116 C114 0.951 . S
C117 C115 1.382 . S
C117 C118 1.390 . S
C117 H122 0.949 . S
C118 C117 1.390 . S
C118 C123 1.399 . S
C119 C115 1.404 . S
C119 H120 0.950 . S
C119 C121 1.375 . S
H120 C119 0.950 . S
C121 C119 1.375 . S
C121 C123 1.382 . S
C121 H125 0.950 . S
H122 C117 0.949 . S
C123 C118 1.399 . S
C123 C121 1.382 . S
C123 H124 0.952 . S
H124 C123 0.952 . S
H125 C121 0.950 . S
H126 C127 0.949 1_655 S
C127 H126 0.949 1_455 S
C127 C128 1.395 . S
C127 C129 1.391 . S
C128 C127 1.395 . S
C128 C131 1.390 . S
C129 C127 1.391 . S
C129 C133 1.387 . S
C129 C134 1.491 1_455 S
H130 C131 0.950 . S
C131 C128 1.390 . S
C131 H130 0.950 . S
C131 C132 1.378 . S
C132 C131 1.378 . S
C132 C133 1.409 . S
C133 C129 1.387 . S
C133 C132 1.409 . S
C133 H135 0.951 . S
C134 C129 1.491 1_655 S
C134 C136 1.382 . S
C134 C138 1.404 . S
H135 C133 0.951 . S
C136 C134 1.382 . S
C136 C137 1.390 . S
C136 H141 0.949 . S
C137 C136 1.390 . S
C137 C142 1.399 . S
C138 C134 1.404 . S
C138 H139 0.950 . S
C138 C140 1.375 . S
H139 C138 0.950 . S
C140 C138 1.375 . S
C140 C142 1.382 . S
C140 H144 0.950 . S
H141 C136 0.949 . S
C142 C137 1.399 . S
C142 C140 1.382 . S
C142 H143 0.952 . S
H143 C142 0.952 . S
H144 C140 0.950 . S
H145 C146 0.949 1_565 S
C146 H145 0.949 1_545 S
C146 C147 1.395 . S
C146 C148 1.391 . S
C147 C146 1.395 . S
C147 C150 1.390 . S
C148 C146 1.391 . S
C148 C152 1.387 . S
C148 C153 1.491 1_545 S
H149 C150 0.950 . S
C150 C147 1.390 . S
C150 H149 0.950 . S
C150 C151 1.378 . S
C151 C150 1.378 . S
C151 C152 1.409 . S
C152 C148 1.387 . S
C152 C151 1.409 . S
C152 H154 0.951 . S
C153 C148 1.491 1_565 S
C153 C155 1.382 . S
C153 C157 1.404 . S
H154 C152 0.951 . S
C155 C153 1.382 . S
C155 C156 1.390 . S
C155 H160 0.949 . S
C156 C155 1.390 . S
C156 C161 1.399 . S
C157 C153 1.404 . S
C157 H158 0.950 1_565 S
C157 C159 1.375 . S
H158 C157 0.950 1_545 S
C159 C157 1.375 . S
C159 C161 1.382 . S
C159 H163 0.950 . S
H160 C155 0.949 . S
C161 C156 1.399 . S
C161 C159 1.382 . S
C161 H162 0.952 . S
H162 C161 0.952 . S
H163 C159 0.950 . S
H164 C165 0.949 . S
C165 H164 0.949 . S
C165 C166 1.395 . S
C165 C167 1.391 . S
C166 C165 1.395 . S
C166 C169 1.390 . S
C167 C165 1.391 . S
C167 C171 1.387 . S
C167 C172 1.491 . S
H168 C169 0.950 . S
C169 C166 1.390 . S
C169 H168 0.950 . S
C169 C170 1.378 . S
C170 C169 1.378 . S
C170 C171 1.409 . S
C171 C167 1.387 . S
C171 C170 1.409 . S
C171 H173 0.951 . S
C172 C167 1.491 . S
C172 C174 1.382 . S
C172 C176 1.404 . S
H173 C171 0.951 . S
C174 C172 1.382 . S
C174 C175 1.390 . S
C174 H179 0.949 . S
C175 C174 1.390 . S
C175 C180 1.399 . S
C176 C172 1.404 . S
C176 H177 0.950 . S
C176 C178 1.375 . S
H177 C176 0.950 . S
C178 C176 1.375 . S
C178 C180 1.382 . S
C178 H182 0.950 . S
H179 C174 0.949 . S
C180 C175 1.399 . S
C180 C178 1.382 . S
C180 H181 0.952 . S
H181 C180 0.952 . S
H182 C178 0.950 . S
H183 C189 0.930 . S
H184 C192 0.930 . S
H185 C193 0.930 . S
H186 C194 0.930 . S
H187 C197 0.930 . S
H188 C198 0.930 . S
C189 H183 0.930 . S
C189 C190 1.355 . S
C189 C191 1.415 . S
C190 C189 1.355 . S
C190 C192 1.419 . S
C191 C189 1.415 . S
C191 C196 1.425 . S
C191 C198 1.409 . S
C192 H184 0.930 . S
C192 C190 1.419 . S
C192 C193 1.362 . S
C193 H185 0.930 . S
C193 C192 1.362 . S
C193 C196 1.409 . S
C194 H186 0.930 . S
C194 C195 1.355 . S
C194 C196 1.415 . S
C195 C194 1.355 . S
C195 C197 1.419 . S
C196 C191 1.425 . S
C196 C193 1.409 . S
C196 C194 1.415 . S
C197 H187 0.930 . S
C197 C195 1.419 . S
C197 C198 1.362 . S
C198 H188 0.930 . S
C198 C191 1.409 . S
C198 C197 1.362 . S
H199 C205 0.930 . S
H200 C208 0.930 . S
H201 C209 0.930 . S
H202 C210 0.930 . S
H203 C213 0.930 . S
H204 C214 0.930 . S
C205 H199 0.930 . S
C205 C206 1.355 . S
C205 C207 1.415 . S
C206 C205 1.355 . S
C206 C208 1.419 . S
C207 C205 1.415 . S
C207 C212 1.425 . S
C207 C214 1.409 . S
C208 H200 0.930 . S
C208 C206 1.419 . S
C208 C209 1.362 . S
C209 H201 0.930 . S
C209 C208 1.362 . S
C209 C212 1.409 . S
C210 H202 0.930 . S
C210 C211 1.355 . S
C210 C212 1.415 . S
C211 C210 1.355 . S
C211 C213 1.419 . S
C212 C207 1.425 . S
C212 C209 1.409 . S
C212 C210 1.415 . S
C213 H203 0.930 . S
C213 C211 1.419 . S
C213 C214 1.362 . S
C214 H204 0.930 . S
C214 C207 1.409 . S
C214 C213 1.362 . S
H215 C221 0.930 . S
H216 C224 0.930 . S
H217 C225 0.930 . S
H218 C226 0.930 . S
H219 C229 0.930 . S
H220 C230 0.930 . S
C221 H215 0.930 . S
C221 C222 1.355 . S
C221 C223 1.415 . S
C222 C221 1.355 . S
C222 C224 1.419 . S
C223 C221 1.415 . S
C223 C228 1.425 . S
C223 C230 1.409 . S
C224 H216 0.930 . S
C224 C222 1.419 . S
C224 C225 1.362 . S
C225 H217 0.930 . S
C225 C224 1.362 . S
C225 C228 1.409 . S
C226 H218 0.930 . S
C226 C227 1.355 . S
C226 C228 1.415 . S
C227 C226 1.355 . S
C227 C229 1.419 . S
C228 C223 1.425 . S
C228 C225 1.409 . S
C228 C226 1.415 . S
C229 H219 0.930 . S
C229 C227 1.419 . S
C229 C230 1.362 . S
C230 H220 0.930 . S
C230 C223 1.409 . S
C230 C229 1.362 . S
H231 C237 0.930 . S
H232 C240 0.930 . S
H233 C241 0.930 . S
H234 C242 0.930 . S
H235 C245 0.930 . S
H236 C246 0.930 . S
C237 H231 0.930 . S
C237 C238 1.355 . S
C237 C239 1.415 . S
C238 C237 1.355 . S
C238 C240 1.419 . S
C239 C237 1.415 . S
C239 C244 1.425 . S
C239 C246 1.409 . S
C240 H232 0.930 . S
C240 C238 1.419 . S
C240 C241 1.362 . S
C241 H233 0.930 . S
C241 C240 1.362 . S
C241 C244 1.409 . S
C242 H234 0.930 . S
C242 C243 1.355 . S
C242 C244 1.415 . S
C243 C242 1.355 . S
C243 C245 1.419 . S
C244 C239 1.425 . S
C244 C241 1.409 . S
C244 C242 1.415 . S
C245 H235 0.930 . S
C245 C243 1.419 . S
C245 C246 1.362 . S
C246 H236 0.930 . S
C246 C239 1.409 . S
C246 C245 1.362 . S
H247 C253 0.930 . S
H248 C256 0.930 . S
H249 C257 0.930 . S
H250 C258 0.930 . S
H251 C261 0.930 . S
H252 C262 0.930 . S
C253 H247 0.930 . S
C253 C254 1.355 . S
C253 C255 1.415 . S
C254 C253 1.355 . S
C254 C256 1.419 . S
C255 C253 1.415 . S
C255 C260 1.425 . S
C255 C262 1.409 . S
C256 H248 0.930 . S
C256 C254 1.419 . S
C256 C257 1.362 . S
C257 H249 0.930 . S
C257 C256 1.362 . S
C257 C260 1.409 . S
C258 H250 0.930 . S
C258 C259 1.355 . S
C258 C260 1.415 . S
C259 C258 1.355 . S
C259 C261 1.419 . S
C260 C255 1.425 . S
C260 C257 1.409 . S
C260 C258 1.415 . S
C261 H251 0.930 . S
C261 C259 1.419 . S
C261 C262 1.362 . S
C262 H252 0.930 . S
C262 C255 1.409 . S
C262 C261 1.362 . S
H263 C269 0.930 . S
H264 C272 0.930 . S
H265 C273 0.930 . S
H266 C274 0.930 . S
H267 C277 0.930 . S
H268 C278 0.930 . S
C269 H263 0.930 . S
C269 C270 1.355 . S
C269 C271 1.415 . S
C270 C269 1.355 . S
C270 C272 1.419 . S
C271 C269 1.415 . S
C271 C276 1.425 . S
C271 C278 1.409 . S
C272 H264 0.930 . S
C272 C270 1.419 . S
C272 C273 1.362 . S
C273 H265 0.930 . S
C273 C272 1.362 . S
C273 C276 1.409 . S
C274 H266 0.930 . S
C274 C275 1.355 . S
C274 C276 1.415 . S
C275 C274 1.355 . S
C275 C277 1.419 . S
C276 C271 1.425 . S
C276 C273 1.409 . S
C276 C274 1.415 . S
C277 H267 0.930 . S
C277 C275 1.419 . S
C277 C278 1.362 . S
C278 H268 0.930 . S
C278 C271 1.409 . S
C278 C277 1.362 . S
H279 C285 0.930 . S
H280 C288 0.930 . S
H281 C289 0.930 . S
H282 C290 0.930 . S
H283 C293 0.930 . S
H284 C294 0.930 . S
C285 H279 0.930 . S
C285 C286 1.355 . S
C285 C287 1.415 . S
C286 C285 1.355 . S
C286 C288 1.419 . S
C287 C285 1.415 . S
C287 C292 1.425 . S
C287 C294 1.409 . S
C288 H280 0.930 . S
C288 C286 1.419 . S
C288 C289 1.362 . S
C289 H281 0.930 . S
C289 C288 1.362 . S
C289 C292 1.409 . S
C290 H282 0.930 . S
C290 C291 1.355 . S
C290 C292 1.415 . S
C291 C290 1.355 . S
C291 C293 1.419 . S
C292 C287 1.425 . S
C292 C289 1.409 . S
C292 C290 1.415 . S
C293 H283 0.930 . S
C293 C291 1.419 . S
C293 C294 1.362 . S
C294 H284 0.930 . S
C294 C287 1.409 . S
C294 C293 1.362 . S
H295 C301 0.930 . S
H296 C304 0.930 . S
H297 C305 0.930 . S
H298 C306 0.930 . S
H299 C309 0.930 1_455 S
H300 C310 0.930 . S
C301 H295 0.930 . S
C301 C302 1.355 . S
C301 C303 1.415 . S
C302 C301 1.355 . S
C302 C304 1.419 . S
C303 C301 1.415 . S
C303 C308 1.425 . S
C303 C310 1.409 . S
C304 H296 0.930 . S
C304 C302 1.419 . S
C304 C305 1.362 . S
C305 H297 0.930 . S
C305 C304 1.362 . S
C305 C308 1.409 . S
C306 H298 0.930 . S
C306 C307 1.355 . S
C306 C308 1.415 . S
C307 C306 1.355 . S
C307 C309 1.419 . S
C308 C303 1.425 . S
C308 C305 1.409 . S
C308 C306 1.415 . S
C309 H299 0.930 1_655 S
C309 C307 1.419 . S
C309 C310 1.362 . S
C310 H300 0.930 . S
C310 C303 1.409 . S
C310 C309 1.362 . S
H311 C317 0.930 . S
H312 C320 0.930 . S
H313 C321 0.930 . S
H314 C322 0.930 . S
H315 C325 0.930 . S
H316 C326 0.930 . S
C317 H311 0.930 . S
C317 C318 1.355 . S
C317 C319 1.415 . S
C318 C317 1.355 . S
C318 C320 1.419 . S
C319 C317 1.415 . S
C319 C324 1.425 . S
C319 C326 1.409 . S
C320 H312 0.930 . S
C320 C318 1.419 . S
C320 C321 1.362 . S
C321 H313 0.930 . S
C321 C320 1.362 . S
C321 C324 1.409 . S
C322 H314 0.930 . S
C322 C323 1.355 . S
C322 C324 1.415 . S
C323 C322 1.355 . S
C323 C325 1.419 . S
C324 C319 1.425 . S
C324 C321 1.409 . S
C324 C322 1.415 . S
C325 H315 0.930 . S
C325 C323 1.419 . S
C325 C326 1.362 . S
C326 H316 0.930 . S
C326 C319 1.409 . S
C326 C325 1.362 . S
H327 C333 0.930 . S
H328 C336 0.930 . S
H329 C337 0.930 . S
H330 C338 0.930 . S
H331 C341 0.930 . S
H332 C342 0.930 . S
C333 H327 0.930 . S
C333 C334 1.355 . S
C333 C335 1.415 . S
C334 C333 1.355 . S
C334 C336 1.419 . S
C335 C333 1.415 . S
C335 C340 1.425 . S
C335 C342 1.409 . S
C336 H328 0.930 . S
C336 C334 1.419 . S
C336 C337 1.362 . S
C337 H329 0.930 . S
C337 C336 1.362 . S
C337 C340 1.409 . S
C338 H330 0.930 . S
C338 C339 1.355 . S
C338 C340 1.415 . S
C339 C338 1.355 . S
C339 C341 1.419 . S
C340 C335 1.425 . S
C340 C337 1.409 . S
C340 C338 1.415 . S
C341 H331 0.930 . S
C341 C339 1.419 . S
C341 C342 1.362 . S
C342 H332 0.930 . S
C342 C335 1.409 . S
C342 C341 1.362 . S
H343 C349 0.930 . S
H344 C352 0.930 . S
H345 C353 0.930 . S
H346 C354 0.930 . S
H347 C357 0.930 . S
H348 C358 0.930 . S
C349 H343 0.930 . S
C349 C350 1.355 . S
C349 C351 1.415 . S
C350 C349 1.355 . S
C350 C352 1.419 . S
C351 C349 1.415 . S
C351 C356 1.425 . S
C351 C358 1.409 . S
C352 H344 0.930 . S
C352 C350 1.419 . S
C352 C353 1.362 . S
C353 H345 0.930 . S
C353 C352 1.362 . S
C353 C356 1.409 . S
C354 H346 0.930 . S
C354 C355 1.355 . S
C354 C356 1.415 . S
C355 C354 1.355 . S
C355 C357 1.419 . S
C356 C351 1.425 . S
C356 C353 1.409 . S
C356 C354 1.415 . S
C357 H347 0.930 . S
C357 C355 1.419 . S
C357 C358 1.362 . S
C358 H348 0.930 . S
C358 C351 1.409 . S
C358 C357 1.362 . S
H359 C365 0.930 . S
H360 C368 0.930 . S
H361 C369 0.930 . S
H362 C370 0.930 . S
H363 C373 0.930 . S
H364 C374 0.930 . S
C365 H359 0.930 . S
C365 C366 1.355 . S
C365 C367 1.415 . S
C366 C365 1.355 . S
C366 C368 1.419 . S
C367 C365 1.415 . S
C367 C372 1.425 . S
C367 C374 1.409 . S
C368 H360 0.930 . S
C368 C366 1.419 . S
C368 C369 1.362 . S
C369 H361 0.930 . S
C369 C368 1.362 . S
C369 C372 1.409 . S
C370 H362 0.930 . S
C370 C371 1.355 . S
C370 C372 1.415 . S
C371 C370 1.355 . S
C371 C373 1.419 . S
C372 C367 1.425 . S
C372 C369 1.409 . S
C372 C370 1.415 . S
C373 H363 0.930 . S
C373 C371 1.419 . S
C373 C374 1.362 . S
C374 H364 0.930 . S
C374 C367 1.409 . S
C374 C373 1.362 . S
H375 C381 0.930 . S
H376 C384 0.930 . S
H377 C385 0.930 . S
H378 C386 0.930 . S
H379 C389 0.930 . S
H380 C390 0.930 . S
C381 H375 0.930 . S
C381 C382 1.355 . S
C381 C383 1.415 . S
C382 C381 1.355 . S
C382 C384 1.419 . S
C383 C381 1.415 . S
C383 C388 1.425 . S
C383 C390 1.409 1_554 S
C384 H376 0.930 . S
C384 C382 1.419 . S
C384 C385 1.362 . S
C385 H377 0.930 . S
C385 C384 1.362 . S
C385 C388 1.409 . S
C386 H378 0.930 . S
C386 C387 1.355 . S
C386 C388 1.415 1_556 S
C387 C386 1.355 . S
C387 C389 1.419 . S
C388 C383 1.425 . S
C388 C385 1.409 . S
C388 C386 1.415 1_554 S
C389 H379 0.930 . S
C389 C387 1.419 . S
C389 C390 1.362 . S
C390 H380 0.930 . S
C390 C383 1.409 1_556 S
C390 C389 1.362 . S
H391 C397 0.930 1_565 S
H392 C400 0.930 . S
H393 C401 0.930 . S
H394 C402 0.930 . S
H395 C405 0.930 1_565 S
H396 C406 0.930 . S
C397 H391 0.930 1_545 S
C397 C398 1.355 . S
C397 C399 1.415 . S
C398 C397 1.355 . S
C398 C400 1.419 . S
C399 C397 1.415 . S
C399 C404 1.425 . S
C399 C406 1.409 1_545 S
C400 H392 0.930 . S
C400 C398 1.419 . S
C400 C401 1.362 . S
C401 H393 0.930 . S
C401 C400 1.362 . S
C401 C404 1.409 . S
C402 H394 0.930 . S
C402 C403 1.355 . S
C402 C404 1.415 . S
C403 C402 1.355 . S
C403 C405 1.419 . S
C404 C399 1.425 . S
C404 C401 1.409 . S
C404 C402 1.415 . S
C405 H395 0.930 1_545 S
C405 C403 1.419 . S
C405 C406 1.362 1_545 S
C406 H396 0.930 . S
C406 C399 1.409 1_565 S
C406 C405 1.362 1_565 S
H407 C413 0.930 . S
H408 C416 0.930 . S
H409 C417 0.930 . S
H410 C418 0.930 . S
H411 C421 0.930 . S
H412 C422 0.930 . S
C413 H407 0.930 . S
C413 C414 1.355 . S
C413 C415 1.415 . S
C414 C413 1.355 . S
C414 C416 1.419 . S
C415 C413 1.415 . S
C415 C420 1.425 . S
C415 C422 1.409 . S
C416 H408 0.930 . S
C416 C414 1.419 . S
C416 C417 1.362 . S
C417 H409 0.930 . S
C417 C416 1.362 . S
C417 C420 1.409 . S
C418 H410 0.930 . S
C418 C419 1.355 . S
C418 C420 1.415 . S
C419 C418 1.355 . S
C419 C421 1.419 . S
C420 C415 1.425 . S
C420 C417 1.409 . S
C420 C418 1.415 . S
C421 H411 0.930 . S
C421 C419 1.419 . S
C421 C422 1.362 . S
C422 H412 0.930 . S
C422 C415 1.409 . S
C422 C421 1.362 . S
H423 C429 0.930 . S
H424 C432 0.930 . S
H425 C433 0.930 . S
H426 C434 0.930 . S
H427 C437 0.930 . S
H428 C438 0.930 . S
C429 H423 0.930 . S
C429 C430 1.355 . S
C429 C431 1.415 . S
C430 C429 1.355 . S
C430 C432 1.419 . S
C431 C429 1.415 . S
C431 C436 1.425 . S
C431 C438 1.409 . S
C432 H424 0.930 . S
C432 C430 1.419 . S
C432 C433 1.362 . S
C433 H425 0.930 . S
C433 C432 1.362 . S
C433 C436 1.409 . S
C434 H426 0.930 . S
C434 C435 1.355 . S
C434 C436 1.415 . S
C435 C434 1.355 . S
C435 C437 1.419 . S
C436 C431 1.425 . S
C436 C433 1.409 . S
C436 C434 1.415 . S
C437 H427 0.930 . S
C437 C435 1.419 . S
C437 C438 1.362 . S
C438 H428 0.930 . S
C438 C431 1.409 . S
C438 C437 1.362 . S
H439 C445 0.930 . S
H440 C448 0.930 . S
H441 C449 0.930 . S
H442 C450 0.930 . S
H443 C453 0.930 . S
H444 C454 0.930 . S
C445 H439 0.930 . S
C445 C446 1.355 . S
C445 C447 1.415 . S
C446 C445 1.355 . S
C446 C448 1.419 . S
C447 C445 1.415 . S
C447 C452 1.425 . S
C447 C454 1.409 1_556 S
C448 H440 0.930 . S
C448 C446 1.419 . S
C448 C449 1.362 . S
C449 H441 0.930 . S
C449 C448 1.362 . S
C449 C452 1.409 . S
C450 H442 0.930 . S
C450 C451 1.355 . S
C450 C452 1.415 1_554 S
C451 C450 1.355 . S
C451 C453 1.419 . S
C452 C447 1.425 . S
C452 C449 1.409 . S
C452 C450 1.415 1_556 S
C453 H443 0.930 . S
C453 C451 1.419 . S
C453 C454 1.362 . S
C454 H444 0.930 . S
C454 C447 1.409 1_554 S
C454 C453 1.362 . S
H455 C461 0.930 . S
H456 C464 0.930 . S
H457 C465 0.930 . S
H458 C466 0.930 1_655 S
H459 C469 0.930 . S
H460 C470 0.930 . S
C461 H455 0.930 . S
C461 C462 1.355 . S
C461 C463 1.415 . S
C462 C461 1.355 . S
C462 C464 1.419 1_455 S
C463 C461 1.415 . S
C463 C468 1.425 . S
C463 C470 1.409 . S
C464 H456 0.930 . S
C464 C462 1.419 1_655 S
C464 C465 1.362 . S
C465 H457 0.930 . S
C465 C464 1.362 . S
C465 C468 1.409 1_655 S
C466 H458 0.930 1_455 S
C466 C467 1.355 . S
C466 C468 1.415 . S
C467 C466 1.355 . S
C467 C469 1.419 . S
C468 C463 1.425 . S
C468 C465 1.409 1_455 S
C468 C466 1.415 . S
C469 H459 0.930 . S
C469 C467 1.419 . S
C469 C470 1.362 . S
C470 H460 0.930 . S
C470 C463 1.409 . S
C470 C469 1.362 . S
C190 C20 1.339 . S
C195 C175 1.250 . S
C206 C41 1.357 . S
C211 C137 1.296 . S
C222 C64 1.366 . S
C227 C156 1.345 . S
C238 C19 1.270 . S
C243 C170 1.372 . S
C259 C132 1.382 . S
C254 C44 1.376 . S
C275 C151 1.277 . S
C270 C67 1.271 . S
C286 C43 1.347 . S
C291 C99 1.229 . S
C302 C66 1.178 . S
C307 C113 1.256 . S
C318 C21 1.326 . S
C323 C75 1.340 1_565 S
C339 C94 1.359 . S
C334 C42 1.259 . S
C355 C118 1.304 . S
C350 C65 1.354 . S
C366 C18 1.346 . S
C371 C80 1.333 . S
C387 C109 1.567 . S
C382 C17 1.563 . S
C398 C39 1.577 . S
C403 C71 1.554 . S
C414 C62 1.574 . S
C419 C90 1.547 . S
C435 C147 1.573 . S
C430 C40 1.583 . S
C451 C166 1.527 . S
C446 C63 1.556 . S
C462 C16 1.578 . S
C467 C128 1.556 . S
