# Generated by pormake.
# Topology pto, (3,4)-cn, num edge types: 1
# Building blocks:
#     Node 0, Type 0, BuildingBlock: BELTOD_clean_linker_0, # of connection points: 3
#     Node 1, Type 0, BuildingBlock: BELTOD_clean_linker_0, # of connection points: 3
#     Node 2, Type 0, BuildingBlock: BELTOD_clean_linker_0, # of connection points: 3
#     Node 3, Type 0, BuildingBlock: BELTOD_clean_linker_0, # of connection points: 3
#     Node 4, Type 0, BuildingBlock: BELTOD_clean_linker_0, # of connection points: 3
#     Node 5, Type 0, BuildingBlock: BELTOD_clean_linker_0, # of connection points: 3
#     Node 6, Type 0, BuildingBlock: BELTOD_clean_linker_0, # of connection points: 3
#     Node 7, Type 0, BuildingBlock: BELTOD_clean_linker_0, # of connection points: 3
#     Node 8, Type 1, BuildingBlock: NAWXER_clean_sbu_0, # of connection points: 4
#     Node 9, Type 1, BuildingBlock: NAWXER_clean_sbu_0, # of connection points: 4
#     Node 10, Type 1, BuildingBlock: NAWXER_clean_sbu_0, # of connection points: 4
#     Node 11, Type 1, BuildingBlock: NAWXER_clean_sbu_0, # of connection points: 4
#     Node 12, Type 1, BuildingBlock: NAWXER_clean_sbu_0, # of connection points: 4
#     Node 13, Type 1, BuildingBlock: NAWXER_clean_sbu_0, # of connection points: 4
#     Edge 14, Type (0, 1), BuildingBlock: ZUJKAS_clean_linker_0, # of connection points: 2
#     Edge 15, Type (0, 1), BuildingBlock: ZUJKAS_clean_linker_0, # of connection points: 2
#     Edge 16, Type (0, 1), BuildingBlock: ZUJKAS_clean_linker_0, # of connection points: 2
#     Edge 17, Type (0, 1), BuildingBlock: ZUJKAS_clean_linker_0, # of connection points: 2
#     Edge 18, Type (0, 1), BuildingBlock: ZUJKAS_clean_linker_0, # of connection points: 2
#     Edge 19, Type (0, 1), BuildingBlock: ZUJKAS_clean_linker_0, # of connection points: 2
#     Edge 20, Type (0, 1), BuildingBlock: ZUJKAS_clean_linker_0, # of connection points: 2
#     Edge 21, Type (0, 1), BuildingBlock: ZUJKAS_clean_linker_0, # of connection points: 2
#     Edge 22, Type (0, 1), BuildingBlock: ZUJKAS_clean_linker_0, # of connection points: 2
#     Edge 23, Type (0, 1), BuildingBlock: ZUJKAS_clean_linker_0, # of connection points: 2
#     Edge 24, Type (0, 1), BuildingBlock: ZUJKAS_clean_linker_0, # of connection points: 2
#     Edge 25, Type (0, 1), BuildingBlock: ZUJKAS_clean_linker_0, # of connection points: 2
#     Edge 26, Type (0, 1), BuildingBlock: ZUJKAS_clean_linker_0, # of connection points: 2
#     Edge 27, Type (0, 1), BuildingBlock: ZUJKAS_clean_linker_0, # of connection points: 2
#     Edge 28, Type (0, 1), BuildingBlock: ZUJKAS_clean_linker_0, # of connection points: 2
#     Edge 29, Type (0, 1), BuildingBlock: ZUJKAS_clean_linker_0, # of connection points: 2
#     Edge 30, Type (0, 1), BuildingBlock: ZUJKAS_clean_linker_0, # of connection points: 2
#     Edge 31, Type (0, 1), BuildingBlock: ZUJKAS_clean_linker_0, # of connection points: 2
#     Edge 32, Type (0, 1), BuildingBlock: ZUJKAS_clean_linker_0, # of connection points: 2
#     Edge 33, Type (0, 1), BuildingBlock: ZUJKAS_clean_linker_0, # of connection points: 2
#     Edge 34, Type (0, 1), BuildingBlock: ZUJKAS_clean_linker_0, # of connection points: 2
#     Edge 35, Type (0, 1), BuildingBlock: ZUJKAS_clean_linker_0, # of connection points: 2
#     Edge 36, Type (0, 1), BuildingBlock: ZUJKAS_clean_linker_0, # of connection points: 2
#     Edge 37, Type (0, 1), BuildingBlock: ZUJKAS_clean_linker_0, # of connection points: 2
# Relax obj value: 0.000
# Max RMSD: 0.009
# Mean RMSD: 0.006
data_MOF--net-pto--node1-NAWXER_clean_sbu_0--node2-BELTOD_clean_linker_0--edge1-ZUJKAS_clean_linker_0
_symmetry_space_group_name_H-M    P1
_symmetry_Int_Tables_number       1
_symmetry_cell_setting            triclinic
loop_
_symmetry_equiv_pos_as_xyz
'x, y, z'
_cell_length_a     63.241274
_cell_length_b     59.507964
_cell_length_c     55.493357
_cell_angle_alpha  89.143366
_cell_angle_beta   91.448162
_cell_angle_gamma 91.933495
loop_
_atom_site_label
_atom_site_type_symbol
_atom_site_fract_x
_atom_site_fract_y
_atom_site_fract_z
_atom_type_partial_charge
P0 P 0.27316 0.32819 0.27064 0.0
H1 H 0.28195 0.3601 0.23157 0.0
H2 H 0.30634 0.36008 0.19805 0.0
H3 H 0.32645 0.29415 0.22061 0.0
H4 H 0.3017 0.29403 0.25348 0.0
H5 H 0.24158 0.35078 0.29765 0.0
H6 H 0.20744 0.36633 0.28636 0.0
H7 H 0.21311 0.34135 0.21415 0.0
H8 H 0.24705 0.32525 0.22587 0.0
H9 H 0.29757 0.3106 0.31148 0.0
H10 H 0.24683 0.28699 0.26404 0.0
O11 O 0.28432 0.34739 0.289 0.0
H12 H 0.29741 0.27425 0.33231 0.0
H13 H 0.2468 0.25019 0.28457 0.0
C14 C 0.28974 0.32696 0.2448 0.0
C15 C 0.29139 0.34551 0.22902 0.0
C16 C 0.30549 0.34556 0.21002 0.0
C17 C 0.31839 0.32711 0.20661 0.0
C18 C 0.31653 0.30847 0.22241 0.0
C19 C 0.30237 0.30842 0.24135 0.0
C20 C 0.24707 0.3374 0.26244 0.0
C21 C 0.23541 0.34855 0.27943 0.0
C22 C 0.21595 0.35755 0.27289 0.0
C23 C 0.20771 0.3555 0.24919 0.0
C24 C 0.21898 0.34327 0.23253 0.0
C25 C 0.23848 0.33419 0.23915 0.0
C26 C 0.2719 0.30162 0.28658 0.0
C27 C 0.28626 0.29761 0.30566 0.0
C28 C 0.28631 0.27669 0.31739 0.0
C29 C 0.27211 0.25925 0.3101 0.0
C30 C 0.25775 0.26334 0.29084 0.0
C31 C 0.25774 0.28434 0.27908 0.0
P32 P 0.27327 0.72913 0.70627 0.0
H33 H 0.23522 0.72728 0.67541 0.0
H34 H 0.20099 0.70746 0.67914 0.0
H35 H 0.22023 0.6831 0.74987 0.0
H36 H 0.25406 0.70363 0.7463 0.0
H37 H 0.30348 0.74995 0.67347 0.0
H38 H 0.30456 0.78566 0.65125 0.0
H39 H 0.24436 0.80196 0.68059 0.0
H40 H 0.24375 0.76636 0.70331 0.0
H41 H 0.30125 0.70045 0.73465 0.0
H42 H 0.27689 0.76697 0.73978 0.0
O43 O 0.28594 0.71056 0.69018 0.0
H44 H 0.323 0.70679 0.77104 0.0
H45 H 0.29906 0.77373 0.77583 0.0
C46 C 0.247 0.71743 0.71081 0.0
C47 C 0.23184 0.71816 0.69198 0.0
C48 C 0.21236 0.70655 0.69402 0.0
C49 C 0.20781 0.69359 0.71479 0.0
C50 C 0.22299 0.6932 0.73379 0.0
C51 C 0.24242 0.70494 0.73176 0.0
C52 C 0.27325 0.75525 0.68946 0.0
C53 C 0.29043 0.76113 0.67495 0.0
C54 C 0.291 0.78155 0.66222 0.0
C55 C 0.27443 0.7966 0.6639 0.0
C56 C 0.25743 0.79082 0.67895 0.0
C57 C 0.25692 0.77037 0.69173 0.0
C58 C 0.28784 0.73341 0.73422 0.0
C59 C 0.30063 0.71646 0.74358 0.0
C60 C 0.31314 0.72016 0.76434 0.0
C61 C 0.31306 0.74092 0.77616 0.0
C62 C 0.29949 0.75754 0.76724 0.0
C63 C 0.2869 0.75376 0.7465 0.0
P64 P 0.77978 0.78187 0.21527 0.0
H65 H 0.80685 0.80683 0.24945 0.0
H66 H 0.79995 0.82442 0.28784 0.0
H67 H 0.73611 0.79602 0.28536 0.0
H68 H 0.74344 0.77785 0.24742 0.0
H69 H 0.80843 0.76373 0.181 0.0
H70 H 0.82944 0.73014 0.18111 0.0
H71 H 0.80296 0.70929 0.24929 0.0
H72 H 0.78231 0.74343 0.24925 0.0
H73 H 0.74767 0.81428 0.2046 0.0
H74 H 0.75712 0.74442 0.18998 0.0
O75 O 0.79438 0.8017 0.20127 0.0
H76 H 0.71381 0.81229 0.18255 0.0
H77 H 0.72354 0.74242 0.16714 0.0
C78 C 0.77551 0.79154 0.24531 0.0
C79 C 0.79147 0.80417 0.25735 0.0
C80 C 0.78743 0.81435 0.27921 0.0
C81 C 0.76731 0.81206 0.28946 0.0
C82 C 0.75177 0.79817 0.27803 0.0
C83 C 0.75589 0.78789 0.2562 0.0
C84 C 0.79419 0.75628 0.21534 0.0
C85 C 0.80717 0.75194 0.19599 0.0
C86 C 0.81904 0.73258 0.19598 0.0
C87 C 0.818 0.71698 0.21526 0.0
C88 C 0.80443 0.72111 0.23435 0.0
C89 C 0.79255 0.74058 0.23433 0.0
C90 C 0.75488 0.77954 0.19892 0.0
C91 C 0.74246 0.79852 0.1965 0.0
C92 C 0.72317 0.79738 0.18374 0.0
C93 C 0.71597 0.77722 0.17291 0.0
C94 C 0.72848 0.75815 0.17546 0.0
C95 C 0.74778 0.7593 0.1884 0.0
P96 P 0.76048 0.25215 0.77212 0.0
H97 H 0.72017 0.2312 0.78508 0.0
H98 H 0.68941 0.24516 0.80512 0.0
H99 H 0.71765 0.31233 0.80369 0.0
H100 H 0.74856 0.29812 0.78414 0.0
H101 H 0.78288 0.21407 0.75492 0.0
H102 H 0.77549 0.18727 0.72278 0.0
H103 H 0.71989 0.22354 0.70106 0.0
H104 H 0.72729 0.25018 0.73376 0.0
H105 H 0.79727 0.27074 0.79849 0.0
H106 H 0.76586 0.28174 0.72967 0.0
O107 O 0.77041 0.23656 0.79468 0.0
H108 H 0.82339 0.30035 0.78923 0.0
H109 H 0.79181 0.31207 0.7204 0.0
C110 C 0.73655 0.2636 0.78291 0.0
C111 C 0.71953 0.24901 0.78867 0.0
C112 C 0.70191 0.25705 0.80006 0.0
C113 C 0.70104 0.27989 0.80605 0.0
C114 C 0.71791 0.29461 0.79957 0.0
C115 C 0.73555 0.28651 0.78818 0.0
C116 C 0.75541 0.23379 0.747 0.0
C117 C 0.76912 0.21629 0.74321 0.0
C118 C 0.76495 0.20107 0.72467 0.0
C119 C 0.74703 0.20318 0.70934 0.0
C120 C 0.73363 0.22123 0.71277 0.0
C121 C 0.73787 0.23651 0.73138 0.0
C122 C 0.77985 0.27381 0.76459 0.0
C123 C 0.79602 0.27952 0.78131 0.0
C124 C 0.81085 0.29667 0.77608 0.0
C125 C 0.80968 0.3087 0.75409 0.0
C126 C 0.79332 0.30298 0.73737 0.0
C127 C 0.77847 0.28571 0.74265 0.0
P128 P 0.77203 0.75642 0.81333 0.0
H129 H 0.75777 0.73755 0.85882 0.0
H130 H 0.7231 0.72517 0.87341 0.0
H131 H 0.69479 0.74162 0.80399 0.0
H132 H 0.72961 0.75394 0.78945 0.0
H133 H 0.81213 0.75487 0.7891 0.0
H134 H 0.83699 0.72495 0.78351 0.0
H135 H 0.79398 0.67762 0.81837 0.0
H136 H 0.76917 0.70755 0.82387 0.0
H137 H 0.77551 0.80541 0.80867 0.0
H138 H 0.76514 0.74892 0.76157 0.0
O139 O 0.78385 0.77031 0.83613 0.0
H140 H 0.77582 0.83099 0.77383 0.0
H141 H 0.76541 0.7745 0.72648 0.0
C142 C 0.74626 0.74687 0.82316 0.0
C143 C 0.74411 0.73844 0.84671 0.0
C144 C 0.72431 0.7312 0.85496 0.0
C145 C 0.70621 0.7324 0.83983 0.0
C146 C 0.70844 0.74066 0.8161 0.0
C147 C 0.72835 0.74768 0.80777 0.0
C148 C 0.78867 0.73346 0.80663 0.0
C149 C 0.80787 0.73797 0.79514 0.0
C150 C 0.82206 0.72084 0.79194 0.0
C151 C 0.81744 0.69892 0.80052 0.0
C152 C 0.79805 0.69439 0.81176 0.0
C153 C 0.78379 0.71152 0.8148 0.0
C154 C 0.77054 0.77526 0.78765 0.0
C155 C 0.77326 0.7985 0.79082 0.0
C156 C 0.77354 0.81311 0.77088 0.0
C157 C 0.77086 0.80474 0.7474 0.0
C158 C 0.76746 0.78146 0.74435 0.0
C159 C 0.76736 0.76683 0.76434 0.0
P160 P 0.78184 0.23283 0.22716 0.0
H161 H 0.81782 0.25581 0.20421 0.0
H162 H 0.83819 0.29022 0.21349 0.0
H163 H 0.79808 0.30145 0.27376 0.0
H164 H 0.77781 0.26667 0.26444 0.0
H165 H 0.81021 0.19761 0.24273 0.0
H166 H 0.81136 0.17279 0.27809 0.0
H167 H 0.75689 0.20481 0.30596 0.0
H168 H 0.75562 0.22933 0.27013 0.0
H169 H 0.76294 0.27128 0.20234 0.0
H170 H 0.74272 0.20515 0.22705 0.0
O171 O 0.7936 0.21977 0.20497 0.0
H172 H 0.72833 0.27636 0.18303 0.0
H173 H 0.70777 0.21035 0.20847 0.0
C174 C 0.79641 0.2586 0.23376 0.0
C175 C 0.81336 0.26564 0.21941 0.0
C176 C 0.82493 0.28543 0.22466 0.0
C177 C 0.81975 0.2986 0.24436 0.0
C178 C 0.80262 0.29154 0.25863 0.0
C179 C 0.79099 0.27173 0.25329 0.0
C180 C 0.78252 0.2149 0.25356 0.0
C181 C 0.79844 0.19921 0.25638 0.0
C182 C 0.79922 0.18518 0.27676 0.0
C183 C 0.78417 0.18673 0.29484 0.0
C184 C 0.76851 0.20292 0.29219 0.0
C185 C 0.76778 0.21698 0.27176 0.0
C186 C 0.75526 0.23806 0.21667 0.0
C187 C 0.75085 0.25809 0.20421 0.0
C188 C 0.73099 0.26098 0.19318 0.0
C189 C 0.71518 0.24378 0.1942 0.0
C190 C 0.7196 0.22387 0.2071 0.0
C191 C 0.73951 0.22098 0.21802 0.0
P192 P 0.25952 0.28977 0.73852 0.0
H193 H 0.24189 0.28732 0.6898 0.0
H194 H 0.23117 0.2559 0.66386 0.0
H195 H 0.24602 0.20925 0.7218 0.0
H196 H 0.25634 0.24087 0.74779 0.0
H197 H 0.25738 0.33416 0.75898 0.0
H198 H 0.22803 0.35616 0.7724 0.0
H199 H 0.18467 0.30011 0.75747 0.0
H200 H 0.21421 0.27807 0.74454 0.0
H201 H 0.30327 0.27678 0.73749 0.0
H202 H 0.25572 0.28319 0.79105 0.0
O203 O 0.27275 0.30766 0.72047 0.0
H204 H 0.32927 0.26745 0.76902 0.0
H205 H 0.28157 0.27351 0.82279 0.0
C206 C 0.25035 0.26637 0.72047 0.0
C207 C 0.24277 0.27032 0.69692 0.0
C208 C 0.23671 0.25235 0.6821 0.0
C209 C 0.23801 0.23005 0.69065 0.0
C210 C 0.24477 0.22622 0.71468 0.0
C211 C 0.25084 0.24426 0.7295 0.0
C212 C 0.23789 0.30469 0.75036 0.0
C213 C 0.24156 0.32658 0.75876 0.0
C214 C 0.22476 0.33915 0.76633 0.0
C215 C 0.20396 0.32999 0.76571 0.0
C216 C 0.2005 0.30763 0.75826 0.0
C217 C 0.21736 0.29506 0.75068 0.0
C218 C 0.27774 0.2811 0.762 0.0
C219 C 0.29841 0.276 0.75607 0.0
C220 C 0.31321 0.27049 0.77412 0.0
C221 C 0.30754 0.26985 0.79848 0.0
C222 C 0.28653 0.27421 0.80425 0.0
C223 C 0.27172 0.2797 0.78612 0.0
P224 P 0.27254 0.72936 0.29352 0.0
H225 H 0.31777 0.73835 0.28965 0.0
H226 H 0.34186 0.73773 0.25596 0.0
H227 H 0.28901 0.72189 0.20756 0.0
H228 H 0.26495 0.723 0.24137 0.0
H229 H 0.24967 0.74358 0.33477 0.0
H230 H 0.23989 0.78029 0.34918 0.0
H231 H 0.27 0.81229 0.28798 0.0
H232 H 0.27986 0.77538 0.27372 0.0
H233 H 0.26393 0.68095 0.294 0.0
H234 H 0.22914 0.74086 0.27893 0.0
O235 O 0.28555 0.71712 0.31644 0.0
H236 H 0.23137 0.65796 0.2888 0.0
H237 H 0.19653 0.718 0.27365 0.0
C238 C 0.28967 0.73032 0.26807 0.0
C239 C 0.31138 0.7348 0.27177 0.0
C240 C 0.32514 0.7343 0.2525 0.0
C241 C 0.31742 0.72943 0.22909 0.0
C242 C 0.29548 0.72574 0.22533 0.0
C243 C 0.28171 0.72624 0.24467 0.0
C244 C 0.2656 0.75678 0.30332 0.0
C245 C 0.25416 0.75851 0.32446 0.0
C246 C 0.24843 0.77949 0.33255 0.0
C247 C 0.25411 0.79921 0.31968 0.0
C248 C 0.26555 0.79741 0.29839 0.0
C249 C 0.27117 0.77632 0.29021 0.0
C250 C 0.24884 0.71259 0.28742 0.0
C251 C 0.24929 0.68913 0.28946 0.0
C252 C 0.23069 0.67601 0.28635 0.0
C253 C 0.21133 0.6862 0.28108 0.0
C254 C 0.21113 0.70971 0.27816 0.0
C255 C 0.22977 0.72278 0.28112 0.0
C256 C 0.96881 0.48291 0.26211 0.0
C257 C 0.02532 0.54099 0.26386 0.0
O258 O 0.97785 0.49167 0.28058 0.0
Zn259 Zn 0.99685 0.5122 0.26356 0.0
O260 O 0.97439 0.4895 0.24103 0.0
Zn261 Zn 0.99649 0.51317 0.22517 0.0
O262 O 0.01465 0.4939 0.20751 0.0
O263 O 0.01791 0.4898 0.24699 0.0
O264 O 0.01923 0.53566 0.24241 0.0
O265 O 0.0164 0.53149 0.28178 0.0
O266 O 0.97567 0.53573 0.24717 0.0
O267 O 0.97805 0.53348 0.2077 0.0
C268 C 0.0233 0.48443 0.22576 0.0
C269 C 0.96992 0.54222 0.22592 0.0
C270 C 0.97535 0.47806 0.74183 0.0
C271 C 0.03099 0.53709 0.73921 0.0
O272 O 0.98212 0.48402 0.76284 0.0
Zn273 Zn 0.00512 0.50736 0.77835 0.0
O274 O 0.98336 0.48741 0.72328 0.0
Zn275 Zn 0.00319 0.50753 0.74014 0.0
O276 O 0.02545 0.48481 0.75608 0.0
O277 O 0.02425 0.48778 0.79559 0.0
O278 O 0.02124 0.52767 0.72156 0.0
O279 O 0.0264 0.53107 0.76081 0.0
O280 O 0.98767 0.52648 0.79665 0.0
O281 O 0.98265 0.5302 0.75732 0.0
C282 C 0.03197 0.47887 0.77724 0.0
C283 C 0.97821 0.53574 0.77883 0.0
C284 C 0.26596 0.99769 0.51761 0.0
C285 C 0.26503 0.05892 0.45782 0.0
O286 O 0.24723 0.00298 0.51081 0.0
Zn287 Zn 0.23233 0.02625 0.4864 0.0
O288 O 0.28184 0.00819 0.50869 0.0
Zn289 Zn 0.26604 0.02823 0.48765 0.0
O290 O 0.25083 0.04911 0.51275 0.0
O291 O 0.21627 0.04399 0.508 0.0
O292 O 0.28112 0.05004 0.46773 0.0
O293 O 0.24644 0.05152 0.46324 0.0
O294 O 0.21754 0.00615 0.46399 0.0
O295 O 0.25228 0.00534 0.46177 0.0
C296 C 0.232 0.05364 0.51876 0.0
C297 C 0.23382 0.99833 0.45457 0.0
C298 C 0.52272 0.75962 0.03139 0.0
C299 C 0.46505 0.75531 0.97121 0.0
O300 O 0.51593 0.73941 0.02755 0.0
Zn301 Zn 0.49232 0.72231 0.00543 0.0
O302 O 0.5141 0.77583 0.02015 0.0
Zn303 Zn 0.49361 0.75794 0.00159 0.0
O304 O 0.4725 0.74492 0.0285 0.0
O305 O 0.474 0.70795 0.02898 0.0
O306 O 0.47472 0.77286 0.97914 0.0
O307 O 0.47018 0.73594 0.9795 0.0
O308 O 0.5097 0.70397 0.98577 0.0
O309 O 0.51367 0.74034 0.97815 0.0
C310 C 0.46642 0.72574 0.03717 0.0
C311 C 0.51849 0.72003 0.97394 0.0
C312 C 0.77077 0.96435 0.55022 0.0
C313 C 0.7738 0.0216 0.48609 0.0
O314 O 0.75246 0.96924 0.54157 0.0
Zn315 Zn 0.73916 0.99139 0.51482 0.0
O316 O 0.78718 0.97443 0.54204 0.0
Zn317 Zn 0.77291 0.9931 0.51826 0.0
O318 O 0.75686 0.01605 0.54007 0.0
O319 O 0.72245 0.0112 0.53382 0.0
O320 O 0.78934 0.01338 0.49779 0.0
O321 O 0.75489 0.01473 0.49084 0.0
O322 O 0.72529 0.97042 0.49251 0.0
O323 O 0.76012 0.96907 0.493 0.0
C324 C 0.73791 0.02147 0.54445 0.0
C325 C 0.74201 0.962 0.48476 0.0
C326 C 0.53327 0.26968 0.03682 0.0
C327 C 0.47794 0.26993 0.9738 0.0
O328 O 0.5231 0.25295 0.02775 0.0
Zn329 Zn 0.50559 0.26954 0.00523 0.0
O330 O 0.52919 0.2896 0.0293 0.0
Zn331 Zn 0.50833 0.3051 0.00318 0.0
O332 O 0.49123 0.32343 0.02292 0.0
O333 O 0.48496 0.28702 0.02821 0.0
O334 O 0.48506 0.28977 0.97899 0.0
O335 O 0.48561 0.25303 0.98475 0.0
O336 O 0.5282 0.28285 0.98002 0.0
O337 O 0.52784 0.31986 0.98128 0.0
C338 C 0.48098 0.30741 0.03321 0.0
C339 C 0.53518 0.30217 0.9726 0.0
H340 H 0.17487 0.3396 0.21997 0.0
H341 H 0.1424 0.35882 0.2082 0.0
H342 H 0.16312 0.41598 0.25055 0.0
H343 H 0.19574 0.39735 0.26167 0.0
H344 H 0.1113 0.37334 0.23712 0.0
H345 H 0.14645 0.44567 0.18696 0.0
H346 H 0.1611 0.42091 0.19456 0.0
H347 H 0.15851 0.44269 0.21638 0.0
C348 C 0.17263 0.3564 0.22648 0.0
C349 C 0.18792 0.36691 0.24181 0.0
C350 C 0.15403 0.36731 0.21982 0.0
C351 C 0.1505 0.38901 0.22814 0.0
C352 C 0.1657 0.39947 0.24345 0.0
H353 H 0.0424 0.45979 0.2613 0.0
H354 H 0.07157 0.43452 0.25791 0.0
C355 C 0.18423 0.38862 0.2501 0.0
C356 C 0.13048 0.40041 0.22208 0.0
H357 H 0.11142 0.45054 0.20208 0.0
C358 C 0.11127 0.39006 0.22906 0.0
C359 C 0.13034 0.42203 0.2111 0.0
C360 C 0.1502 0.43336 0.20158 0.0
C361 C 0.09217 0.40138 0.22685 0.0
C362 C 0.09235 0.42375 0.21781 0.0
C363 C 0.11131 0.43351 0.20931 0.0
C364 C 0.07361 0.43801 0.21916 0.0
C365 C 0.07203 0.38939 0.23464 0.0
C366 C 0.06522 0.44879 0.19852 0.0
C367 C 0.04849 0.4635 0.20041 0.0
C368 C 0.04005 0.46785 0.22303 0.0
C369 C 0.04842 0.45682 0.24357 0.0
C370 C 0.06503 0.44217 0.24165 0.0
H371 H 0.07309 0.37087 0.23305 0.0
H372 H 0.06937 0.39308 0.25385 0.0
H373 H 0.05815 0.39498 0.22376 0.0
H374 H 0.07175 0.44599 0.181 0.0
H375 H 0.04247 0.47178 0.18426 0.0
H376 H 0.18786 0.66941 0.67868 0.0
H377 H 0.15602 0.64522 0.68113 0.0
H378 H 0.15146 0.66043 0.75651 0.0
H379 H 0.18276 0.68551 0.75398 0.0
H380 H 0.15053 0.6076 0.70855 0.0
H381 H 0.0914 0.66961 0.73259 0.0
H382 H 0.11717 0.6779 0.72161 0.0
H383 H 0.11406 0.66974 0.75271 0.0
C384 C 0.17983 0.66808 0.69567 0.0
C385 C 0.18786 0.67958 0.7161 0.0
C386 C 0.16171 0.65406 0.69708 0.0
C387 C 0.15116 0.65123 0.71891 0.0
C388 C 0.15905 0.66271 0.73933 0.0
H389 H 0.05225 0.56258 0.77306 0.0
H390 H 0.08086 0.59051 0.76681 0.0
C391 C 0.17714 0.67683 0.73793 0.0
C392 C 0.13264 0.63529 0.72058 0.0
H393 H 0.08088 0.63086 0.73684 0.0
C394 C 0.13524 0.61274 0.7145 0.0
C395 C 0.11269 0.64201 0.72836 0.0
C396 C 0.10855 0.66618 0.73397 0.0
C397 C 0.11864 0.59662 0.7166 0.0
C398 C 0.09883 0.60327 0.72475 0.0
C399 C 0.09612 0.62584 0.73061 0.0
C400 C 0.08095 0.58685 0.72811 0.0
C401 C 0.12257 0.57245 0.71077 0.0
C402 C 0.0713 0.57578 0.70833 0.0
C403 C 0.05487 0.55979 0.71182 0.0
C404 C 0.04782 0.5546 0.73516 0.0
C405 C 0.05733 0.56606 0.75485 0.0
C406 C 0.07366 0.58208 0.75133 0.0
H407 H 0.13971 0.56932 0.70933 0.0
H408 H 0.11585 0.56094 0.72475 0.0
H409 H 0.11466 0.56824 0.69326 0.0
H410 H 0.07654 0.57946 0.69022 0.0
H411 H 0.04786 0.55134 0.69627 0.0
H412 H 0.82753 0.69015 0.17747 0.0
H413 H 0.85185 0.65903 0.1777 0.0
H414 H 0.86346 0.66721 0.25399 0.0
H415 H 0.83949 0.69861 0.2539 0.0
H416 H 0.89547 0.66141 0.19217 0.0
H417 H 0.84962 0.59918 0.24714 0.0
H418 H 0.83774 0.6233 0.23283 0.0
H419 H 0.85306 0.62649 0.26035 0.0
C420 C 0.83525 0.68537 0.19432 0.0
C421 C 0.83154 0.69695 0.21567 0.0
C422 C 0.84907 0.6675 0.19442 0.0
C423 C 0.85929 0.66067 0.21589 0.0
C424 C 0.85542 0.67194 0.2373 0.0
H425 H 0.95281 0.56661 0.26131 0.0
H426 H 0.92604 0.59503 0.25716 0.0
C427 C 0.84166 0.68986 0.23721 0.0
C428 C 0.87477 0.6425 0.21572 0.0
H429 H 0.88535 0.59083 0.23978 0.0
C430 C 0.89321 0.64587 0.20239 0.0
C431 C 0.87176 0.62229 0.2291 0.0
C432 C 0.8519 0.61742 0.24302 0.0
C433 C 0.90909 0.6299 0.20274 0.0
C434 C 0.90621 0.60978 0.21638 0.0
C435 C 0.88756 0.60626 0.22935 0.0
C436 C 0.92271 0.59261 0.21838 0.0
C437 C 0.92913 0.6351 0.18925 0.0
C438 C 0.92972 0.58165 0.19794 0.0
C439 C 0.94522 0.56541 0.20023 0.0
C440 C 0.9538 0.55967 0.22304 0.0
C441 C 0.94658 0.57058 0.24345 0.0
C442 C 0.93123 0.58684 0.24113 0.0
H443 H 0.93105 0.6533 0.18479 0.0
H444 H 0.94326 0.62984 0.19992 0.0
H445 H 0.92856 0.62574 0.17209 0.0
H446 H 0.92306 0.58548 0.18025 0.0
H447 H 0.9503 0.55721 0.18418 0.0
H448 H 0.82624 0.34035 0.78511 0.0
H449 H 0.85438 0.36852 0.77767 0.0
H450 H 0.85707 0.34743 0.70389 0.0
H451 H 0.82917 0.31865 0.71129 0.0
H452 H 0.89687 0.35584 0.75778 0.0
H453 H 0.85291 0.41951 0.70357 0.0
H454 H 0.83962 0.40046 0.72434 0.0
H455 H 0.84909 0.39014 0.69658 0.0
C456 C 0.83282 0.34159 0.7673 0.0
C457 C 0.82556 0.32706 0.74886 0.0
C458 C 0.8488 0.35781 0.76305 0.0
C459 C 0.85771 0.36005 0.74025 0.0
C460 C 0.8502 0.34606 0.72156 0.0
H461 H 0.95828 0.45888 0.70056 0.0
H462 H 0.93048 0.42912 0.69778 0.0
C463 C 0.83423 0.32969 0.72582 0.0
C464 C 0.87567 0.37622 0.73668 0.0
H465 H 0.88864 0.42823 0.71356 0.0
C466 C 0.89516 0.37159 0.74794 0.0
C467 C 0.87339 0.39658 0.7236 0.0
C468 C 0.85265 0.40219 0.71132 0.0
C469 C 0.91235 0.38706 0.74698 0.0
C470 C 0.90979 0.40797 0.73496 0.0
C471 C 0.89053 0.41224 0.72286 0.0
C472 C 0.92642 0.42613 0.7363 0.0
C473 C 0.93308 0.38088 0.75899 0.0
C474 C 0.93303 0.43459 0.75881 0.0
C475 C 0.94887 0.45142 0.76047 0.0
C476 C 0.95834 0.46039 0.73961 0.0
C477 C 0.95138 0.45226 0.71698 0.0
C478 C 0.9355 0.43529 0.71535 0.0
H479 H 0.93453 0.36235 0.76039 0.0
H480 H 0.94676 0.38808 0.74897 0.0
H481 H 0.93387 0.38761 0.77754 0.0
H482 H 0.92589 0.42817 0.77518 0.0
H483 H 0.95365 0.45741 0.77819 0.0
H484 H 0.30662 0.23585 0.3255 0.0
H485 H 0.30703 0.20028 0.34812 0.0
H486 H 0.23881 0.19662 0.34583 0.0
H487 H 0.23822 0.23231 0.32338 0.0
H488 H 0.28926 0.19147 0.39294 0.0
H489 H 0.25442 0.13403 0.32367 0.0
H490 H 0.2648 0.16189 0.31639 0.0
H491 H 0.23895 0.15816 0.32891 0.0
C492 C 0.29168 0.2275 0.32981 0.0
C493 C 0.27237 0.23698 0.32267 0.0
C494 C 0.29196 0.20711 0.34263 0.0
C495 C 0.27297 0.19567 0.3484 0.0
C496 C 0.25366 0.20492 0.34111 0.0
H497 H 0.23359 0.08168 0.43463 0.0
H498 H 0.23709 0.11426 0.40768 0.0
C499 C 0.25336 0.22534 0.32828 0.0
C500 C 0.27334 0.17469 0.36318 0.0
H501 H 0.25717 0.11936 0.36377 0.0
C502 C 0.28244 0.17563 0.3865 0.0
C503 C 0.26443 0.15408 0.35472 0.0
C504 C 0.25527 0.15184 0.32947 0.0
C505 C 0.28222 0.15669 0.40191 0.0
C506 C 0.273 0.13615 0.39359 0.0
C507 C 0.26423 0.13512 0.37011 0.0
C508 C 0.27131 0.11586 0.40938 0.0
C509 C 0.29114 0.15905 0.42726 0.0
C510 C 0.28943 0.10567 0.41901 0.0
C511 C 0.28751 0.087 0.43457 0.0
C512 C 0.2674 0.07811 0.44062 0.0
C513 C 0.24933 0.08809 0.43045 0.0
C514 C 0.25128 0.10672 0.41498 0.0
H515 H 0.29317 0.17695 0.43253 0.0
H516 H 0.28072 0.15021 0.44041 0.0
H517 H 0.30689 0.15139 0.42848 0.0
H518 H 0.30506 0.1122 0.41455 0.0
H519 H 0.30174 0.07964 0.44197 0.0
H520 H 0.30497 0.7632 0.81781 0.0
H521 H 0.32939 0.7708 0.85194 0.0
H522 H 0.37812 0.73571 0.81648 0.0
H523 H 0.35421 0.72882 0.78204 0.0
H524 H 0.34914 0.74094 0.88206 0.0
H525 H 0.40896 0.79405 0.83491 0.0
H526 H 0.38304 0.78758 0.82191 0.0
H527 H 0.4038 0.76774 0.82015 0.0
C528 C 0.32098 0.75739 0.81714 0.0
C529 C 0.32762 0.74541 0.79715 0.0
C530 C 0.33488 0.76165 0.8367 0.0
C531 C 0.35569 0.75418 0.83657 0.0
C532 C 0.36229 0.74208 0.81676 0.0
H533 H 0.44245 0.72075 0.95009 0.0
H534 H 0.41481 0.7229 0.91885 0.0
C535 C 0.34847 0.73785 0.79722 0.0
C536 C 0.37032 0.75803 0.85753 0.0
H537 H 0.42008 0.77781 0.87291 0.0
C538 C 0.36454 0.74927 0.88014 0.0
C539 C 0.39026 0.76927 0.85515 0.0
C540 C 0.39681 0.78041 0.83177 0.0
C541 C 0.37858 0.75042 0.90011 0.0
C542 C 0.39909 0.76021 0.89726 0.0
C543 C 0.40446 0.77003 0.87499 0.0
C544 C 0.41559 0.75925 0.9167 0.0
C545 C 0.37137 0.74098 0.92403 0.0
C546 C 0.42567 0.77899 0.92543 0.0
C547 C 0.44171 0.77783 0.94325 0.0
C548 C 0.44801 0.75688 0.95249 0.0
C549 C 0.43793 0.73718 0.94353 0.0
C550 C 0.42198 0.73836 0.92577 0.0
H551 H 0.35385 0.74092 0.92521 0.0
H552 H 0.37636 0.72333 0.926 0.0
H553 H 0.37843 0.75077 0.93928 0.0
H554 H 0.42111 0.79528 0.9185 0.0
H555 H 0.44919 0.79331 0.9497 0.0
H556 H 0.7794 0.85552 0.29931 0.0
H557 H 0.77079 0.87764 0.33413 0.0
H558 H 0.73399 0.82147 0.36266 0.0
H559 H 0.74324 0.7988 0.32818 0.0
H560 H 0.73133 0.88954 0.34939 0.0
H561 H 0.77334 0.83889 0.41953 0.0
H562 H 0.77764 0.83577 0.38775 0.0
H563 H 0.75417 0.82374 0.40102 0.0
C564 C 0.7698 0.84766 0.31317 0.0
C565 C 0.76223 0.82525 0.31105 0.0
C566 C 0.76469 0.86044 0.33296 0.0
C567 C 0.75191 0.85116 0.3511 0.0
C568 C 0.74414 0.82887 0.34903 0.0
H569 H 0.70684 0.94234 0.46224 0.0
H570 H 0.70622 0.91372 0.43075 0.0
C571 C 0.74929 0.816 0.32921 0.0
C572 C 0.74683 0.86509 0.37201 0.0
H573 H 0.75584 0.8706 0.4326 0.0
C574 C 0.73648 0.88532 0.36765 0.0
C575 C 0.75366 0.85955 0.39576 0.0
C576 C 0.76547 0.83841 0.40141 0.0
C577 C 0.73338 0.90052 0.38626 0.0
C578 C 0.74053 0.89515 0.40994 0.0
C579 C 0.75025 0.87458 0.41444 0.0
C580 C 0.7403 0.91167 0.42969 0.0
C581 C 0.72347 0.92269 0.38019 0.0
C582 C 0.75958 0.91958 0.43991 0.0
C583 C 0.75998 0.93573 0.45787 0.0
C584 C 0.74107 0.94436 0.46613 0.0
C585 C 0.72168 0.93614 0.45618 0.0
C586 C 0.7213 0.91987 0.43813 0.0
H587 H 0.72238 0.9259 0.36044 0.0
H588 H 0.70722 0.92257 0.3873 0.0
H589 H 0.73271 0.93679 0.3887 0.0
H590 H 0.77442 0.91351 0.43367 0.0
H591 H 0.77522 0.94158 0.46511 0.0
H592 H 0.65876 0.26824 0.8017 0.0
H593 H 0.63062 0.27783 0.82874 0.0
H594 H 0.67497 0.3193 0.87008 0.0
H595 H 0.70336 0.30915 0.84368 0.0
H596 H 0.65313 0.2894 0.89808 0.0
H597 H 0.59727 0.33424 0.83753 0.0
H598 H 0.60418 0.30749 0.82605 0.0
H599 H 0.62425 0.32945 0.82953 0.0
C600 C 0.66251 0.27954 0.81644 0.0
C601 C 0.68335 0.28787 0.82054 0.0
C602 C 0.64633 0.28525 0.8317 0.0
C603 C 0.65063 0.29953 0.85125 0.0
C604 C 0.67127 0.3084 0.85498 0.0
H605 H 0.55347 0.33992 0.95149 0.0
H606 H 0.58199 0.34143 0.92222 0.0
C607 C 0.68746 0.30269 0.83975 0.0
C608 C 0.63413 0.30336 0.86915 0.0
H609 H 0.58348 0.32036 0.87512 0.0
C610 C 0.63801 0.29645 0.8931 0.0
C611 C 0.61448 0.31277 0.86272 0.0
C612 C 0.60984 0.32163 0.8376 0.0
C613 C 0.62249 0.29782 0.91056 0.0
C614 C 0.60244 0.30602 0.90382 0.0
C615 C 0.59881 0.31386 0.88015 0.0
C616 C 0.58477 0.30535 0.92085 0.0
C617 C 0.62759 0.29024 0.93606 0.0
C618 C 0.5767 0.28457 0.92936 0.0
C619 C 0.56049 0.28364 0.94596 0.0
C620 C 0.55193 0.30349 0.95439 0.0
C621 C 0.55977 0.32433 0.94545 0.0
C622 C 0.57602 0.32523 0.92872 0.0
H623 H 0.64494 0.2902 0.93975 0.0
H624 H 0.62029 0.30124 0.94931 0.0
H625 H 0.62114 0.27284 0.93885 0.0
H626 H 0.58303 0.26903 0.92321 0.0
H627 H 0.55479 0.26729 0.95232 0.0
H628 H 0.2629 0.83829 0.67834 0.0
H629 H 0.2628 0.87326 0.6545 0.0
H630 H 0.28759 0.8387 0.59416 0.0
H631 H 0.28704 0.80356 0.61748 0.0
H632 H 0.29617 0.89721 0.63171 0.0
H633 H 0.2344 0.86741 0.56573 0.0
H634 H 0.23959 0.85289 0.59393 0.0
H635 H 0.25658 0.84945 0.56885 0.0
C636 C 0.26812 0.83807 0.65991 0.0
C637 C 0.27484 0.81806 0.64978 0.0
C638 C 0.26824 0.85811 0.6464 0.0
C639 C 0.27495 0.8585 0.62249 0.0
C640 C 0.28205 0.8387 0.61247 0.0
H641 H 0.3025 0.97642 0.53096 0.0
H642 H 0.30572 0.94329 0.55749 0.0
C643 C 0.28192 0.81867 0.62593 0.0
C644 C 0.27424 0.87952 0.60785 0.0
H645 H 0.25179 0.90233 0.55697 0.0
C646 C 0.28646 0.89839 0.61538 0.0
C647 C 0.26136 0.88105 0.58672 0.0
C648 C 0.24708 0.86171 0.57839 0.0
C649 C 0.2863 0.91873 0.60216 0.0
C650 C 0.2738 0.92007 0.58071 0.0
C651 C 0.26149 0.90122 0.57332 0.0
C652 C 0.27249 0.94103 0.56602 0.0
C653 C 0.29911 0.93873 0.61152 0.0
C654 C 0.25277 0.95066 0.5619 0.0
C655 C 0.25086 0.96936 0.54665 0.0
C656 C 0.26864 0.97888 0.53511 0.0
C657 C 0.28852 0.96956 0.53967 0.0
C658 C 0.2904 0.95069 0.55491 0.0
H659 H 0.30361 0.9366 0.63089 0.0
H660 H 0.31387 0.94074 0.60119 0.0
H661 H 0.29019 0.95441 0.60921 0.0
H662 H 0.23874 0.94348 0.57027 0.0
H663 H 0.23531 0.97614 0.54365 0.0
H664 H 0.69994 0.80928 0.14225 0.0
H665 H 0.66604 0.80821 0.12017 0.0
H666 H 0.65232 0.74162 0.1486 0.0
H667 H 0.68579 0.74293 0.17165 0.0
H668 H 0.65167 0.77955 0.08538 0.0
H669 H 0.5987 0.7735 0.16347 0.0
H670 H 0.62655 0.7808 0.16666 0.0
H671 H 0.6178 0.75189 0.16348 0.0
C672 C 0.68958 0.79453 0.14415 0.0
C673 C 0.69555 0.77627 0.15894 0.0
C674 C 0.67026 0.7939 0.13136 0.0
C675 C 0.65647 0.77502 0.13307 0.0
C676 C 0.6625 0.75658 0.14744 0.0
H677 H 0.54131 0.72918 0.06162 0.0
H678 H 0.57332 0.73458 0.08666 0.0
C679 C 0.68179 0.75723 0.16035 0.0
C680 C 0.6361 0.77438 0.11917 0.0
H681 H 0.58262 0.76695 0.12475 0.0
C682 C 0.63656 0.77701 0.094 0.0
C683 C 0.61639 0.77112 0.13048 0.0
C684 C 0.61474 0.76939 0.15752 0.0
C685 C 0.6179 0.77583 0.07976 0.0
C686 C 0.59826 0.77216 0.09104 0.0
C687 C 0.59774 0.76978 0.1162 0.0
C688 C 0.5782 0.76963 0.07685 0.0
C689 C 0.61935 0.77783 0.05271 0.0
C690 C 0.5701 0.78774 0.06344 0.0
C691 C 0.55169 0.78475 0.04913 0.0
C692 C 0.54116 0.76358 0.04796 0.0
C693 C 0.54907 0.74568 0.06199 0.0
C694 C 0.56735 0.74872 0.07635 0.0
H695 H 0.63587 0.77657 0.04664 0.0
H696 H 0.60934 0.76453 0.0438 0.0
H697 H 0.61344 0.79437 0.04662 0.0
H698 H 0.57814 0.80409 0.06386 0.0
H699 H 0.54601 0.79887 0.03858 0.0
H700 H 0.70835 0.18409 0.69624 0.0
H701 H 0.70119 0.15335 0.66786 0.0
H702 H 0.76751 0.15254 0.65202 0.0
H703 H 0.77479 0.1835 0.67977 0.0
H704 H 0.71529 0.14963 0.61421 0.0
H705 H 0.74743 0.08741 0.68001 0.0
H706 H 0.73757 0.11409 0.68902 0.0
H707 H 0.76316 0.11288 0.67591 0.0
C708 C 0.72135 0.17768 0.68635 0.0
C709 C 0.74219 0.18611 0.69047 0.0
C710 C 0.71722 0.16007 0.67025 0.0
C711 C 0.73386 0.15059 0.65813 0.0
C712 C 0.7545 0.15952 0.66145 0.0
H713 H 0.76822 0.04607 0.56883 0.0
H714 H 0.76366 0.07674 0.59642 0.0
C715 C 0.75864 0.17713 0.67742 0.0
C716 C 0.73011 0.13063 0.64284 0.0
H717 H 0.74196 0.07528 0.63972 0.0
C718 C 0.72077 0.13325 0.61982 0.0
C719 C 0.73722 0.10934 0.65038 0.0
C720 C 0.74678 0.10558 0.67525 0.0
C721 C 0.71947 0.1153 0.60356 0.0
C722 C 0.72745 0.09423 0.61077 0.0
C723 C 0.73587 0.09144 0.63423 0.0
C724 C 0.72947 0.0756 0.59361 0.0
C725 C 0.71066 0.11931 0.57841 0.0
C726 C 0.71169 0.06461 0.58288 0.0
C727 C 0.71423 0.0469 0.56689 0.0
C728 C 0.73461 0.0399 0.56152 0.0
C729 C 0.75228 0.05094 0.57249 0.0
C730 C 0.74972 0.06852 0.58833 0.0
H731 H 0.70828 0.13743 0.57453 0.0
H732 H 0.72141 0.11278 0.56483 0.0
H733 H 0.69516 0.11018 0.57629 0.0
H734 H 0.69589 0.06959 0.58701 0.0
H735 H 0.7003 0.03872 0.55879 0.0
H736 H 0.32882 0.29257 0.1775 0.0
H737 H 0.35631 0.29273 0.14731 0.0
H738 H 0.37066 0.36286 0.16072 0.0
H739 H 0.34383 0.36263 0.19168 0.0
H740 H 0.36076 0.3179 0.10547 0.0
H741 H 0.42841 0.33524 0.16913 0.0
H742 H 0.40234 0.32705 0.17923 0.0
H743 H 0.408 0.35549 0.1694 0.0
C744 C 0.33796 0.30799 0.17422 0.0
C745 C 0.33422 0.32753 0.1872 0.0
C746 C 0.35355 0.30809 0.15683 0.0
C747 C 0.36577 0.3277 0.15206 0.0
C748 C 0.36171 0.34742 0.16445 0.0
H749 H 0.47032 0.34797 0.05176 0.0
H750 H 0.4419 0.35482 0.07983 0.0
C751 C 0.34616 0.34732 0.18193 0.0
C752 C 0.38273 0.32737 0.13411 0.0
H753 H 0.43625 0.33348 0.12781 0.0
C754 C 0.37725 0.32138 0.11034 0.0
C755 C 0.40425 0.33197 0.1405 0.0
C756 C 0.4112 0.33761 0.16598 0.0
C757 C 0.39272 0.31966 0.09283 0.0
C758 C 0.41423 0.32383 0.09935 0.0
C759 C 0.4197 0.33038 0.12292 0.0
C760 C 0.43135 0.31993 0.08238 0.0
C761 C 0.38598 0.31328 0.06751 0.0
C762 C 0.43497 0.29804 0.07491 0.0
C763 C 0.45118 0.29405 0.0591 0.0
C764 C 0.46414 0.31191 0.0504 0.0
C765 C 0.46059 0.33386 0.05807 0.0
C766 C 0.44439 0.33782 0.07408 0.0
H767 H 0.3689 0.31608 0.06393 0.0
H768 H 0.39536 0.32305 0.05405 0.0
H769 H 0.38877 0.29517 0.06493 0.0
H770 H 0.42527 0.28398 0.08142 0.0
H771 H 0.45346 0.27693 0.0536 0.0
H772 H 0.82953 0.66859 0.83526 0.0
H773 H 0.85705 0.64079 0.83297 0.0
H774 H 0.86844 0.66123 0.7594 0.0
H775 H 0.8411 0.68921 0.76165 0.0
H776 H 0.86112 0.60486 0.80356 0.0
H777 H 0.92724 0.6669 0.78983 0.0
H778 H 0.90144 0.67497 0.79901 0.0
H779 H 0.90616 0.66953 0.76782 0.0
C780 C 0.83778 0.66703 0.81853 0.0
C781 C 0.83325 0.68118 0.79867 0.0
C782 C 0.85356 0.65121 0.81729 0.0
C783 C 0.8651 0.64927 0.7962 0.0
C784 C 0.86015 0.66288 0.77609 0.0
H785 H 0.95918 0.56222 0.74473 0.0
H786 H 0.93182 0.58951 0.75044 0.0
C787 C 0.84448 0.6788 0.77736 0.0
C788 C 0.88223 0.6329 0.79517 0.0
H789 H 0.93472 0.62843 0.78367 0.0
C790 C 0.87725 0.61003 0.79943 0.0
C791 C 0.9033 0.6397 0.78992 0.0
C792 C 0.90994 0.66413 0.78662 0.0
C793 C 0.89267 0.5937 0.79783 0.0
C794 C 0.91356 0.60049 0.79199 0.0
C795 C 0.91863 0.62334 0.78807 0.0
C796 C 0.93024 0.584 0.78896 0.0
C797 C 0.88644 0.56925 0.80174 0.0
C798 C 0.93857 0.57209 0.80883 0.0
C799 C 0.95435 0.55653 0.80568 0.0
C800 C 0.96196 0.5526 0.78256 0.0
C801 C 0.95363 0.56475 0.76276 0.0
C802 C 0.93801 0.58038 0.76597 0.0
H803 H 0.86901 0.56648 0.80252 0.0
H804 H 0.8925 0.55892 0.78708 0.0
H805 H 0.89363 0.56323 0.81901 0.0
H806 H 0.93289 0.57488 0.82676 0.0
H807 H 0.96043 0.54746 0.82129 0.0
H808 H 0.83393 0.31344 0.28864 0.0
H809 H 0.85634 0.34692 0.29741 0.0
H810 H 0.85715 0.36375 0.22158 0.0
H811 H 0.83439 0.3308 0.21276 0.0
H812 H 0.89683 0.35622 0.28039 0.0
H813 H 0.84269 0.42324 0.25171 0.0
H814 H 0.83354 0.39462 0.25742 0.0
H815 H 0.84513 0.40235 0.22906 0.0
C816 C 0.83857 0.32452 0.2739 0.0
C817 C 0.83238 0.31947 0.25 0.0
C818 C 0.85145 0.34355 0.27893 0.0
C819 C 0.85816 0.35798 0.26019 0.0
C820 C 0.85182 0.35309 0.23637 0.0
H821 H 0.94584 0.46263 0.22588 0.0
H822 H 0.91849 0.43301 0.2291 0.0
C823 C 0.83901 0.3341 0.23133 0.0
C824 C 0.87286 0.3774 0.26513 0.0
H825 H 0.87972 0.43376 0.25435 0.0
C826 C 0.893 0.37326 0.27514 0.0
C827 C 0.86776 0.3996 0.25834 0.0
C828 C 0.84602 0.40529 0.24876 0.0
C829 C 0.90861 0.39054 0.27718 0.0
C830 C 0.9038 0.41254 0.26928 0.0
C831 C 0.88337 0.41685 0.2603 0.0
C832 C 0.92024 0.43082 0.26803 0.0
C833 C 0.93044 0.38495 0.28654 0.0
C834 C 0.93021 0.43956 0.28893 0.0
C835 C 0.94597 0.4566 0.28717 0.0
C836 C 0.95196 0.46514 0.26447 0.0
C837 C 0.94171 0.45644 0.24366 0.0
C838 C 0.92601 0.43952 0.24544 0.0
H839 H 0.93249 0.36652 0.28827 0.0
H840 H 0.9427 0.39216 0.27442 0.0
H841 H 0.93317 0.39243 0.30459 0.0
H842 H 0.92576 0.43326 0.30656 0.0
H843 H 0.95349 0.463 0.30354 0.0
H844 H 0.16892 0.31838 0.79205 0.0
H845 H 0.13854 0.3416 0.79972 0.0
H846 H 0.16777 0.39659 0.75988 0.0
H847 H 0.19804 0.37363 0.75218 0.0
H848 H 0.15042 0.41002 0.80261 0.0
H849 H 0.09316 0.35694 0.74884 0.0
H850 H 0.10713 0.34266 0.7728 0.0
H851 H 0.1214 0.35393 0.74752 0.0
C852 C 0.16882 0.3354 0.7849 0.0
C853 C 0.18588 0.34414 0.77148 0.0
C854 C 0.15147 0.34863 0.78929 0.0
C855 C 0.1508 0.37073 0.78012 0.0
C856 C 0.16798 0.37961 0.76716 0.0
H857 H 0.05231 0.45835 0.74133 0.0
H858 H 0.08028 0.43128 0.74516 0.0
C859 C 0.18532 0.36647 0.76286 0.0
C860 C 0.13209 0.38465 0.78336 0.0
H861 H 0.08001 0.38901 0.76676 0.0
C862 C 0.13495 0.40536 0.795 0.0
C863 C 0.11199 0.37856 0.77323 0.0
C864 C 0.10816 0.35691 0.75972 0.0
C865 C 0.11841 0.42044 0.79622 0.0
C866 C 0.09838 0.41445 0.78585 0.0
C867 C 0.09536 0.39347 0.77482 0.0
C868 C 0.08097 0.43052 0.78416 0.0
C869 C 0.12279 0.44307 0.80756 0.0
C870 C 0.07188 0.43896 0.80486 0.0
C871 C 0.05586 0.45462 0.80275 0.0
C872 C 0.04859 0.46197 0.77988 0.0
C873 C 0.05752 0.45313 0.75924 0.0
C874 C 0.07351 0.43759 0.76137 0.0
H875 H 0.14002 0.44674 0.81037 0.0
H876 H 0.11604 0.45669 0.79617 0.0
H877 H 0.11524 0.44332 0.82537 0.0
H878 H 0.07716 0.43343 0.82263 0.0
H879 H 0.04922 0.46099 0.819 0.0
H880 H 0.20438 0.64602 0.25832 0.0
H881 H 0.17169 0.62279 0.25677 0.0
H882 H 0.14066 0.67162 0.29897 0.0
H883 H 0.17323 0.69499 0.30047 0.0
H884 H 0.14956 0.60349 0.2942 0.0
H885 H 0.09941 0.6628 0.24223 0.0
H886 H 0.12782 0.66645 0.24473 0.0
H887 H 0.11154 0.67443 0.26907 0.0
C888 C 0.19058 0.65181 0.26725 0.0
C889 C 0.19135 0.67239 0.2794 0.0
C890 C 0.17192 0.63855 0.26631 0.0
C891 C 0.15366 0.64562 0.27749 0.0
C892 C 0.1544 0.66609 0.28975 0.0
H893 H 0.04407 0.5555 0.30637 0.0
H894 H 0.07467 0.58162 0.31123 0.0
C895 C 0.17303 0.67942 0.29058 0.0
C896 C 0.13404 0.63123 0.27679 0.0
H897 H 0.08219 0.62999 0.25798 0.0
C898 C 0.13481 0.60927 0.28631 0.0
C899 C 0.11488 0.63878 0.26632 0.0
C900 C 0.11332 0.66182 0.2548 0.0
C901 C 0.11695 0.59461 0.28558 0.0
C902 C 0.0977 0.60228 0.27545 0.0
C903 C 0.09691 0.62426 0.26599 0.0
C904 C 0.0786 0.58727 0.27295 0.0
C905 C 0.11901 0.57083 0.29496 0.0
C906 C 0.0703 0.58234 0.2499 0.0
C907 C 0.05281 0.56761 0.24708 0.0
C908 C 0.04316 0.55751 0.26729 0.0
C909 C 0.05119 0.56289 0.29045 0.0
C910 C 0.06874 0.5777 0.29324 0.0
H911 H 0.13583 0.56619 0.29715 0.0
H912 H 0.1116 0.56921 0.31284 0.0
H913 H 0.11077 0.55867 0.28265 0.0
H914 H 0.07762 0.58959 0.23401 0.0
H915 H 0.04704 0.56394 0.22898 0.0
H916 H 0.79978 0.83902 0.73943 0.0
H917 H 0.80097 0.86542 0.70511 0.0
H918 H 0.7458 0.83203 0.67325 0.0
H919 H 0.74442 0.80555 0.70756 0.0
H920 H 0.79985 0.85183 0.64992 0.0
H921 H 0.73461 0.90344 0.68216 0.0
H922 H 0.75078 0.88694 0.70256 0.0
H923 H 0.73122 0.87325 0.68343 0.0
C924 C 0.78786 0.83734 0.72515 0.0
C925 C 0.77192 0.82029 0.72625 0.0
C926 C 0.78866 0.85232 0.70552 0.0
C927 C 0.77344 0.85065 0.68679 0.0
C928 C 0.75766 0.83354 0.68762 0.0
H929 H 0.73975 0.93492 0.5652 0.0
H930 H 0.74168 0.90692 0.5976 0.0
C931 C 0.75694 0.81841 0.70715 0.0
C932 C 0.77375 0.86719 0.66664 0.0
H933 H 0.74895 0.91346 0.64465 0.0
C934 C 0.78879 0.86536 0.64869 0.0
C935 C 0.75926 0.8847 0.66523 0.0
C936 C 0.74305 0.88744 0.68437 0.0
C937 C 0.78942 0.88044 0.62895 0.0
C938 C 0.77496 0.89812 0.62756 0.0
C939 C 0.76004 0.89995 0.64571 0.0
C940 C 0.77449 0.91456 0.60716 0.0
C941 C 0.80511 0.87688 0.60945 0.0
C942 C 0.79233 0.92825 0.60168 0.0
C943 C 0.79134 0.94422 0.58291 0.0
C944 C 0.77239 0.94702 0.56957 0.0
C945 C 0.75459 0.93329 0.57515 0.0
C946 C 0.75565 0.91724 0.59369 0.0
H947 H 0.81079 0.85941 0.60981 0.0
H948 H 0.79807 0.88045 0.59132 0.0
H949 H 0.81905 0.88845 0.61229 0.0
H950 H 0.8069 0.92687 0.61218 0.0
H951 H 0.80527 0.95465 0.57917 0.0
H952 H 0.69265 0.21156 0.1686 0.0
H953 H 0.66016 0.21598 0.14446 0.0
H954 H 0.65901 0.28567 0.16427 0.0
H955 H 0.69129 0.28135 0.18896 0.0
H956 H 0.61886 0.23227 0.15825 0.0
H957 H 0.65894 0.28571 0.08885 0.0
H958 H 0.67337 0.2685 0.11023 0.0
H959 H 0.66276 0.29451 0.11955 0.0
C960 C 0.68533 0.22775 0.16823 0.0
C961 C 0.69468 0.24613 0.1807 0.0
C962 C 0.66681 0.23025 0.15429 0.0
C963 C 0.65737 0.2512 0.15237 0.0
C964 C 0.66627 0.26944 0.16525 0.0
H965 H 0.55484 0.30202 0.06283 0.0
H966 H 0.58378 0.29708 0.09216 0.0
C967 C 0.68475 0.26695 0.17928 0.0
C968 C 0.63854 0.25407 0.13633 0.0
H969 H 0.62201 0.27994 0.08423 0.0
C970 C 0.61949 0.24268 0.14205 0.0
C971 C 0.63948 0.26766 0.11525 0.0
C972 C 0.65974 0.2797 0.10789 0.0
C973 C 0.6012 0.2448 0.12738 0.0
C974 C 0.60217 0.25826 0.10615 0.0
C975 C 0.62126 0.26966 0.10051 0.0
C976 C 0.58367 0.26084 0.08944 0.0
C977 C 0.58091 0.23302 0.13503 0.0
C978 C 0.57392 0.24209 0.07812 0.0
C979 C 0.55722 0.24485 0.0614 0.0
C980 C 0.55015 0.26644 0.05546 0.0
C981 C 0.55989 0.28515 0.06694 0.0
C982 C 0.57646 0.28237 0.08373 0.0
H983 H 0.58124 0.22893 0.15464 0.0
H984 H 0.56704 0.24348 0.13085 0.0
H985 H 0.57874 0.217 0.12515 0.0
H986 H 0.57953 0.22537 0.0818 0.0
H987 H 0.55018 0.23011 0.05276 0.0
H988 H 0.21596 0.19043 0.70005 0.0
H989 H 0.20969 0.15859 0.67292 0.0
H990 H 0.24345 0.19468 0.61708 0.0
H991 H 0.24973 0.22643 0.64393 0.0
H992 H 0.20619 0.17369 0.60024 0.0
H993 H 0.25507 0.11488 0.65495 0.0
H994 H 0.23389 0.12734 0.67044 0.0
H995 H 0.25568 0.14476 0.66012 0.0
C996 C 0.22209 0.19152 0.68201 0.0
C997 C 0.23337 0.21095 0.67416 0.0
C998 C 0.21849 0.17333 0.66654 0.0
C999 C 0.22631 0.17418 0.64308 0.0
C1000 C 0.23723 0.19369 0.6351 0.0
H1001 H 0.26267 0.07743 0.54364 0.0
H1002 H 0.25834 0.10536 0.57456 0.0
C1003 C 0.24074 0.21187 0.65046 0.0
C1004 C 0.22372 0.15468 0.62679 0.0
H1005 H 0.23948 0.10101 0.61902 0.0
C1006 C 0.21325 0.15769 0.60441 0.0
C1007 C 0.2331 0.1339 0.63227 0.0
C1008 C 0.24522 0.12996 0.65564 0.0
C1009 C 0.21246 0.14074 0.58704 0.0
C1010 C 0.22211 0.12008 0.59239 0.0
C1011 C 0.23198 0.11682 0.61506 0.0
C1012 C 0.22414 0.10259 0.57391 0.0
C1013 C 0.20225 0.14546 0.5627 0.0
C1014 C 0.2063 0.09156 0.56336 0.0
C1015 C 0.20871 0.07554 0.54545 0.0
C1016 C 0.22902 0.07022 0.53795 0.0
C1017 C 0.24679 0.08109 0.5489 0.0
C1018 C 0.24436 0.09706 0.56666 0.0
H1019 H 0.19912 0.1636 0.55997 0.0
H1020 H 0.21244 0.14 0.54802 0.0
H1021 H 0.18693 0.13588 0.56119 0.0
H1022 H 0.19055 0.09532 0.56898 0.0
H1023 H 0.19472 0.06737 0.53749 0.0
H1024 H 0.35588 0.7097 0.22977 0.0
H1025 H 0.38078 0.70773 0.19696 0.0
H1026 H 0.3376 0.74299 0.14974 0.0
H1027 H 0.31258 0.74518 0.18257 0.0
H1028 H 0.35543 0.70526 0.12855 0.0
H1029 H 0.41693 0.76124 0.17166 0.0
H1030 H 0.4084 0.73775 0.1901 0.0
H1031 H 0.39006 0.75915 0.18186 0.0
C1032 C 0.35174 0.71725 0.21248 0.0
C1033 C 0.33231 0.72782 0.20888 0.0
C1034 C 0.36598 0.71605 0.19374 0.0
C1035 C 0.36118 0.72551 0.17103 0.0
C1036 C 0.34163 0.73564 0.16717 0.0
H1037 H 0.44724 0.76087 0.05757 0.0
H1038 H 0.42141 0.75964 0.08947 0.0
C1039 C 0.32733 0.73682 0.18592 0.0
C1040 C 0.37664 0.72498 0.15139 0.0
H1041 H 0.42638 0.74304 0.13603 0.0
C1042 C 0.37095 0.71351 0.13014 0.0
C1043 C 0.39678 0.73595 0.15345 0.0
C1044 C 0.40341 0.7494 0.17539 0.0
C1045 C 0.38497 0.71258 0.11094 0.0
C1046 C 0.40528 0.72317 0.11323 0.0
C1047 C 0.41088 0.73474 0.13442 0.0
C1048 C 0.42065 0.72341 0.09344 0.0
C1049 C 0.37776 0.70074 0.08818 0.0
C1050 C 0.42893 0.70342 0.08514 0.0
C1051 C 0.44377 0.70404 0.06678 0.0
C1052 C 0.45065 0.72469 0.05652 0.0
C1053 C 0.44233 0.74465 0.06501 0.0
C1054 C 0.42754 0.74401 0.08328 0.0
H1055 H 0.36029 0.69801 0.08722 0.0
H1056 H 0.38278 0.7105 0.07198 0.0
H1057 H 0.38507 0.68406 0.08771 0.0
H1058 H 0.42411 0.68736 0.09304 0.0
H1059 H 0.44992 0.68837 0.06074 0.0
H1060 H 0.81865 0.1726 0.32119 0.0
H1061 H 0.81922 0.14465 0.35403 0.0
H1062 H 0.75115 0.13792 0.34956 0.0
H1063 H 0.75044 0.16529 0.31628 0.0
H1064 H 0.79956 0.14398 0.39936 0.0
H1065 H 0.77047 0.07319 0.34219 0.0
H1066 H 0.78034 0.09958 0.3297 0.0
H1067 H 0.75388 0.09709 0.34079 0.0
C1068 C 0.8038 0.16507 0.3271 0.0
C1069 C 0.78451 0.17103 0.31595 0.0
C1070 C 0.80416 0.14923 0.34596 0.0
C1071 C 0.78527 0.13895 0.35392 0.0
C1072 C 0.76594 0.14537 0.34338 0.0
H1073 H 0.74353 0.04184 0.45849 0.0
H1074 H 0.74832 0.0704 0.42705 0.0
C1075 C 0.76556 0.1612 0.32454 0.0
C1076 C 0.78569 0.12132 0.37305 0.0
H1077 H 0.77124 0.06651 0.38457 0.0
C1078 C 0.79356 0.12697 0.39613 0.0
C1079 C 0.778 0.09912 0.36868 0.0
C1080 C 0.77038 0.09176 0.34395 0.0
C1081 C 0.79311 0.11121 0.41526 0.0
C1082 C 0.78486 0.0892 0.41101 0.0
C1083 C 0.7775 0.08342 0.38777 0.0
C1084 C 0.78246 0.07221 0.43064 0.0
C1085 C 0.80071 0.11843 0.44003 0.0
C1086 C 0.80013 0.06364 0.44306 0.0
C1087 C 0.79746 0.0472 0.46119 0.0
C1088 C 0.77707 0.03904 0.46707 0.0
C1089 C 0.75947 0.04771 0.45449 0.0
C1090 C 0.76216 0.06405 0.43646 0.0
H1091 H 0.80274 0.137 0.44126 0.0
H1092 H 0.78943 0.11239 0.45391 0.0
H1093 H 0.81622 0.11094 0.44426 0.0
H1094 H 0.81597 0.06947 0.43856 0.0
H1095 H 0.81133 0.04083 0.47047 0.0
H1096 H 0.31294 0.29135 0.84157 0.0
H1097 H 0.34156 0.28706 0.87156 0.0
H1098 H 0.36785 0.23535 0.82895 0.0
H1099 H 0.33914 0.23934 0.79891 0.0
H1100 H 0.35568 0.24891 0.89876 0.0
H1101 H 0.4163 0.2835 0.83611 0.0
H1102 H 0.38828 0.28619 0.83035 0.0
H1103 H 0.40051 0.25994 0.82519 0.0
C1104 C 0.32458 0.27877 0.83875 0.0
C1105 C 0.32383 0.2658 0.81773 0.0
C1106 C 0.34098 0.27641 0.85587 0.0
C1107 C 0.35697 0.26114 0.85228 0.0
C1108 C 0.35586 0.24754 0.83182 0.0
H1109 H 0.4567 0.23091 0.96019 0.0
H1110 H 0.42743 0.22692 0.93053 0.0
C1111 C 0.33947 0.24987 0.81468 0.0
C1112 C 0.37523 0.26018 0.86949 0.0
H1113 H 0.42838 0.27182 0.87467 0.0
C1114 C 0.37162 0.25375 0.89351 0.0
C1115 C 0.39594 0.26676 0.86257 0.0
C1116 C 0.40058 0.27467 0.83722 0.0
C1117 C 0.38818 0.25388 0.91088 0.0
C1118 C 0.40888 0.26041 0.90392 0.0
C1119 C 0.41251 0.26664 0.87986 0.0
C1120 C 0.42674 0.26242 0.92164 0.0
C1121 C 0.38331 0.24777 0.93668 0.0
C1122 C 0.43631 0.2836 0.92606 0.0
C1123 C 0.453 0.28593 0.94286 0.0
C1124 C 0.4606 0.26707 0.95552 0.0
C1125 C 0.45119 0.24577 0.9508 0.0
C1126 C 0.4344 0.24347 0.93397 0.0
H1127 H 0.36603 0.24725 0.93989 0.0
H1128 H 0.38946 0.23092 0.94106 0.0
H1129 H 0.39117 0.26001 0.9492 0.0
H1130 H 0.43067 0.29842 0.91667 0.0
H1131 H 0.45988 0.30258 0.94598 0.0
H1132 H 0.21654 0.81122 0.33836 0.0
H1133 H 0.20843 0.84697 0.35671 0.0
H1134 H 0.27106 0.87311 0.34081 0.0
H1135 H 0.27922 0.83748 0.32235 0.0
H1136 H 0.22826 0.86529 0.3958 0.0
H1137 H 0.23506 0.92474 0.31855 0.0
H1138 H 0.23309 0.89465 0.31478 0.0
H1139 H 0.25811 0.90822 0.32275 0.0
C1140 C 0.22853 0.82466 0.33861 0.0
C1141 C 0.24854 0.82152 0.32892 0.0
C1142 C 0.22383 0.8451 0.349 0.0
C1143 C 0.23901 0.86284 0.34984 0.0
C1144 C 0.25888 0.85989 0.33981 0.0
H1145 H 0.26509 0.98298 0.42695 0.0
H1146 H 0.26337 0.95086 0.40009 0.0
C1147 C 0.26356 0.83948 0.32932 0.0
C1148 C 0.23474 0.88371 0.36297 0.0
H1149 H 0.23647 0.94103 0.35797 0.0
C1150 C 0.22969 0.88184 0.38743 0.0
C1151 C 0.2366 0.90529 0.35202 0.0
C1152 C 0.2408 0.90838 0.32551 0.0
C1153 C 0.22744 0.90097 0.40152 0.0
C1154 C 0.23005 0.92254 0.39076 0.0
C1155 C 0.23447 0.92444 0.36614 0.0
C1156 C 0.23013 0.94321 0.40531 0.0
C1157 C 0.22326 0.89799 0.42805 0.0
C1158 C 0.21182 0.94989 0.41669 0.0
C1159 C 0.21272 0.96836 0.4321 0.0
C1160 C 0.23197 0.98034 0.4364 0.0
C1161 C 0.25004 0.97404 0.4242 0.0
C1162 C 0.24909 0.95573 0.40876 0.0
H1163 H 0.22501 0.88032 0.4343 0.0
H1164 H 0.23425 0.909 0.43889 0.0
H1165 H 0.20687 0.90291 0.43159 0.0
H1166 H 0.19697 0.94056 0.41402 0.0
H1167 H 0.19852 0.97281 0.44119 0.0
H1168 H 0.69523 0.69513 0.86678 0.0
H1169 H 0.66122 0.68631 0.88547 0.0
H1170 H 0.63578 0.74656 0.85368 0.0
H1171 H 0.66959 0.75523 0.83468 0.0
H1172 H 0.64299 0.71062 0.91835 0.0
H1173 H 0.58787 0.70231 0.83989 0.0
H1174 H 0.61624 0.70235 0.83695 0.0
H1175 H 0.60279 0.72845 0.83892 0.0
C1176 C 0.68228 0.70633 0.86356 0.0
C1177 C 0.68506 0.72587 0.84925 0.0
C1178 C 0.66284 0.70124 0.87417 0.0
C1179 C 0.64581 0.71557 0.87072 0.0
C1180 C 0.64845 0.73487 0.85607 0.0
H1181 H 0.53437 0.74948 0.94049 0.0
H1182 H 0.5643 0.74459 0.9144 0.0
C1183 C 0.66783 0.73988 0.84528 0.0
C1184 C 0.626 0.71156 0.88423 0.0
H1185 H 0.57206 0.70967 0.87804 0.0
C1186 C 0.6275 0.70996 0.90949 0.0
C1187 C 0.60576 0.71064 0.87269 0.0
C1188 C 0.60306 0.71079 0.8456 0.0
C1189 C 0.60935 0.70866 0.92356 0.0
C1190 C 0.58916 0.7088 0.91205 0.0
C1191 C 0.5876 0.70959 0.88679 0.0
C1192 C 0.56967 0.71039 0.92608 0.0
C1193 C 0.61186 0.70826 0.95068 0.0
C1194 C 0.56244 0.69253 0.94087 0.0
C1195 C 0.5452 0.69523 0.95582 0.0
C1196 C 0.53507 0.7159 0.95629 0.0
C1197 C 0.54191 0.7334 0.94072 0.0
C1198 C 0.55897 0.73063 0.92571 0.0
H1199 H 0.62859 0.71113 0.95678 0.0
H1200 H 0.60211 0.72131 0.95863 0.0
H1201 H 0.60621 0.69166 0.95779 0.0
H1202 H 0.57044 0.67671 0.94124 0.0
H1203 H 0.5403 0.68144 0.96759 0.0
loop_
_geom_bond_atom_site_label_1
_geom_bond_atom_site_label_2
_geom_bond_distance
_geom_bond_site_symmetry_2
_ccdc_geom_bond_type
P0 O11 1.490 . S
P0 C14 1.812 . S
P0 C20 1.803 . S
P0 C26 1.819 . S
H1 C15 0.941 . S
H2 C16 0.939 . S
H3 C18 0.940 . S
H4 C19 0.940 . S
H5 C21 0.939 . S
H6 C22 0.942 . S
H7 C24 0.940 . S
H8 C25 0.939 . S
H9 C27 0.941 . S
H10 C31 0.939 . S
O11 P0 1.490 . S
H12 C28 0.939 . S
H13 C30 0.940 . S
C14 P0 1.812 . S
C14 C15 1.389 . S
C14 C19 1.391 . S
C15 H1 0.941 . S
C15 C14 1.389 . S
C15 C16 1.397 . S
C16 H2 0.939 . S
C16 C15 1.397 . S
C16 C17 1.378 . S
C17 C16 1.378 . S
C17 C18 1.378 . S
C18 H3 0.940 . S
C18 C17 1.378 . S
C18 C19 1.396 . S
C19 H4 0.940 . S
C19 C14 1.391 . S
C19 C18 1.396 . S
C20 P0 1.803 . S
C20 C21 1.378 . S
C20 C25 1.400 . S
C21 H5 0.939 . S
C21 C20 1.378 . S
C21 C22 1.361 . S
C22 H6 0.942 . S
C22 C21 1.361 . S
C22 C23 1.369 . S
C23 C22 1.369 . S
C23 C24 1.404 . S
C24 H7 0.940 . S
C24 C23 1.404 . S
C24 C25 1.389 . S
C25 H8 0.939 . S
C25 C20 1.400 . S
C25 C24 1.389 . S
C26 P0 1.819 . S
C26 C27 1.391 . S
C26 C31 1.391 . S
C27 H9 0.941 . S
C27 C26 1.391 . S
C27 C28 1.396 . S
C28 H12 0.939 . S
C28 C27 1.396 . S
C28 C29 1.397 . S
C29 C28 1.397 . S
C29 C30 1.385 . S
C30 H13 0.940 . S
C30 C29 1.385 . S
C30 C31 1.388 . S
C31 H10 0.939 . S
C31 C26 1.391 . S
C31 C30 1.388 . S
P32 O43 1.490 . S
P32 C46 1.812 . S
P32 C52 1.803 . S
P32 C58 1.819 . S
H33 C47 0.941 . S
H34 C48 0.939 . S
H35 C50 0.940 . S
H36 C51 0.940 . S
H37 C53 0.939 . S
H38 C54 0.942 . S
H39 C56 0.940 . S
H40 C57 0.939 . S
H41 C59 0.941 . S
H42 C63 0.939 . S
O43 P32 1.490 . S
H44 C60 0.939 . S
H45 C62 0.940 . S
C46 P32 1.812 . S
C46 C47 1.389 . S
C46 C51 1.391 . S
C47 H33 0.941 . S
C47 C46 1.389 . S
C47 C48 1.397 . S
C48 H34 0.939 . S
C48 C47 1.397 . S
C48 C49 1.378 . S
C49 C48 1.378 . S
C49 C50 1.378 . S
C50 H35 0.940 . S
C50 C49 1.378 . S
C50 C51 1.396 . S
C51 H36 0.940 . S
C51 C46 1.391 . S
C51 C50 1.396 . S
C52 P32 1.803 . S
C52 C53 1.378 . S
C52 C57 1.400 . S
C53 H37 0.939 . S
C53 C52 1.378 . S
C53 C54 1.361 . S
C54 H38 0.942 . S
C54 C53 1.361 . S
C54 C55 1.369 . S
C55 C54 1.369 . S
C55 C56 1.404 . S
C56 H39 0.940 . S
C56 C55 1.404 . S
C56 C57 1.389 . S
C57 H40 0.939 . S
C57 C52 1.400 . S
C57 C56 1.389 . S
C58 P32 1.819 . S
C58 C59 1.391 . S
C58 C63 1.391 . S
C59 H41 0.941 . S
C59 C58 1.391 . S
C59 C60 1.396 . S
C60 H44 0.939 . S
C60 C59 1.396 . S
C60 C61 1.397 . S
C61 C60 1.397 . S
C61 C62 1.385 . S
C62 H45 0.940 . S
C62 C61 1.385 . S
C62 C63 1.388 . S
C63 H42 0.939 . S
C63 C58 1.391 . S
C63 C62 1.388 . S
P64 O75 1.490 . S
P64 C78 1.812 . S
P64 C84 1.803 . S
P64 C90 1.819 . S
H65 C79 0.941 . S
H66 C80 0.939 . S
H67 C82 0.940 . S
H68 C83 0.940 . S
H69 C85 0.939 . S
H70 C86 0.942 . S
H71 C88 0.940 . S
H72 C89 0.939 . S
H73 C91 0.941 . S
H74 C95 0.939 . S
O75 P64 1.490 . S
H76 C92 0.939 . S
H77 C94 0.940 . S
C78 P64 1.812 . S
C78 C79 1.389 . S
C78 C83 1.391 . S
C79 H65 0.941 . S
C79 C78 1.389 . S
C79 C80 1.397 . S
C80 H66 0.939 . S
C80 C79 1.397 . S
C80 C81 1.378 . S
C81 C80 1.378 . S
C81 C82 1.378 . S
C82 H67 0.940 . S
C82 C81 1.378 . S
C82 C83 1.396 . S
C83 H68 0.940 . S
C83 C78 1.391 . S
C83 C82 1.396 . S
C84 P64 1.803 . S
C84 C85 1.378 . S
C84 C89 1.400 . S
C85 H69 0.939 . S
C85 C84 1.378 . S
C85 C86 1.361 . S
C86 H70 0.942 . S
C86 C85 1.361 . S
C86 C87 1.369 . S
C87 C86 1.369 . S
C87 C88 1.404 . S
C88 H71 0.940 . S
C88 C87 1.404 . S
C88 C89 1.389 . S
C89 H72 0.939 . S
C89 C84 1.400 . S
C89 C88 1.389 . S
C90 P64 1.819 . S
C90 C91 1.391 . S
C90 C95 1.391 . S
C91 H73 0.941 . S
C91 C90 1.391 . S
C91 C92 1.396 . S
C92 H76 0.939 . S
C92 C91 1.396 . S
C92 C93 1.397 . S
C93 C92 1.397 . S
C93 C94 1.385 . S
C94 H77 0.940 . S
C94 C93 1.385 . S
C94 C95 1.388 . S
C95 H74 0.939 . S
C95 C90 1.391 . S
C95 C94 1.388 . S
P96 O107 1.490 . S
P96 C110 1.812 . S
P96 C116 1.803 . S
P96 C122 1.819 . S
H97 C111 0.941 . S
H98 C112 0.939 . S
H99 C114 0.940 . S
H100 C115 0.940 . S
H101 C117 0.939 . S
H102 C118 0.942 . S
H103 C120 0.940 . S
H104 C121 0.939 . S
H105 C123 0.941 . S
H106 C127 0.939 . S
O107 P96 1.490 . S
H108 C124 0.939 . S
H109 C126 0.940 . S
C110 P96 1.812 . S
C110 C111 1.389 . S
C110 C115 1.391 . S
C111 H97 0.941 . S
C111 C110 1.389 . S
C111 C112 1.397 . S
C112 H98 0.939 . S
C112 C111 1.397 . S
C112 C113 1.378 . S
C113 C112 1.378 . S
C113 C114 1.378 . S
C114 H99 0.940 . S
C114 C113 1.378 . S
C114 C115 1.396 . S
C115 H100 0.940 . S
C115 C110 1.391 . S
C115 C114 1.396 . S
C116 P96 1.803 . S
C116 C117 1.378 . S
C116 C121 1.400 . S
C117 H101 0.939 . S
C117 C116 1.378 . S
C117 C118 1.361 . S
C118 H102 0.942 . S
C118 C117 1.361 . S
C118 C119 1.369 . S
C119 C118 1.369 . S
C119 C120 1.404 . S
C120 H103 0.940 . S
C120 C119 1.404 . S
C120 C121 1.389 . S
C121 H104 0.939 . S
C121 C116 1.400 . S
C121 C120 1.389 . S
C122 P96 1.819 . S
C122 C123 1.391 . S
C122 C127 1.391 . S
C123 H105 0.941 . S
C123 C122 1.391 . S
C123 C124 1.396 . S
C124 H108 0.939 . S
C124 C123 1.396 . S
C124 C125 1.397 . S
C125 C124 1.397 . S
C125 C126 1.385 . S
C126 H109 0.940 . S
C126 C125 1.385 . S
C126 C127 1.388 . S
C127 H106 0.939 . S
C127 C122 1.391 . S
C127 C126 1.388 . S
P128 O139 1.490 . S
P128 C142 1.812 . S
P128 C148 1.803 . S
P128 C154 1.819 . S
H129 C143 0.941 . S
H130 C144 0.939 . S
H131 C146 0.940 . S
H132 C147 0.940 . S
H133 C149 0.939 . S
H134 C150 0.942 . S
H135 C152 0.940 . S
H136 C153 0.939 . S
H137 C155 0.941 . S
H138 C159 0.939 . S
O139 P128 1.490 . S
H140 C156 0.939 . S
H141 C158 0.940 . S
C142 P128 1.812 . S
C142 C143 1.389 . S
C142 C147 1.391 . S
C143 H129 0.941 . S
C143 C142 1.389 . S
C143 C144 1.397 . S
C144 H130 0.939 . S
C144 C143 1.397 . S
C144 C145 1.378 . S
C145 C144 1.378 . S
C145 C146 1.378 . S
C146 H131 0.940 . S
C146 C145 1.378 . S
C146 C147 1.396 . S
C147 H132 0.940 . S
C147 C142 1.391 . S
C147 C146 1.396 . S
C148 P128 1.803 . S
C148 C149 1.378 . S
C148 C153 1.400 . S
C149 H133 0.939 . S
C149 C148 1.378 . S
C149 C150 1.361 . S
C150 H134 0.942 . S
C150 C149 1.361 . S
C150 C151 1.369 . S
C151 C150 1.369 . S
C151 C152 1.404 . S
C152 H135 0.940 . S
C152 C151 1.404 . S
C152 C153 1.389 . S
C153 H136 0.939 . S
C153 C148 1.400 . S
C153 C152 1.389 . S
C154 P128 1.819 . S
C154 C155 1.391 . S
C154 C159 1.391 . S
C155 H137 0.941 . S
C155 C154 1.391 . S
C155 C156 1.396 . S
C156 H140 0.939 . S
C156 C155 1.396 . S
C156 C157 1.397 . S
C157 C156 1.397 . S
C157 C158 1.385 . S
C158 H141 0.940 . S
C158 C157 1.385 . S
C158 C159 1.388 . S
C159 H138 0.939 . S
C159 C154 1.391 . S
C159 C158 1.388 . S
P160 O171 1.490 . S
P160 C174 1.812 . S
P160 C180 1.803 . S
P160 C186 1.819 . S
H161 C175 0.941 . S
H162 C176 0.939 . S
H163 C178 0.940 . S
H164 C179 0.940 . S
H165 C181 0.939 . S
H166 C182 0.942 . S
H167 C184 0.940 . S
H168 C185 0.939 . S
H169 C187 0.941 . S
H170 C191 0.939 . S
O171 P160 1.490 . S
H172 C188 0.939 . S
H173 C190 0.940 . S
C174 P160 1.812 . S
C174 C175 1.389 . S
C174 C179 1.391 . S
C175 H161 0.941 . S
C175 C174 1.389 . S
C175 C176 1.397 . S
C176 H162 0.939 . S
C176 C175 1.397 . S
C176 C177 1.378 . S
C177 C176 1.378 . S
C177 C178 1.378 . S
C178 H163 0.940 . S
C178 C177 1.378 . S
C178 C179 1.396 . S
C179 H164 0.940 . S
C179 C174 1.391 . S
C179 C178 1.396 . S
C180 P160 1.803 . S
C180 C181 1.378 . S
C180 C185 1.400 . S
C181 H165 0.939 . S
C181 C180 1.378 . S
C181 C182 1.361 . S
C182 H166 0.942 . S
C182 C181 1.361 . S
C182 C183 1.369 . S
C183 C182 1.369 . S
C183 C184 1.404 . S
C184 H167 0.940 . S
C184 C183 1.404 . S
C184 C185 1.389 . S
C185 H168 0.939 . S
C185 C180 1.400 . S
C185 C184 1.389 . S
C186 P160 1.819 . S
C186 C187 1.391 . S
C186 C191 1.391 . S
C187 H169 0.941 . S
C187 C186 1.391 . S
C187 C188 1.396 . S
C188 H172 0.939 . S
C188 C187 1.396 . S
C188 C189 1.397 . S
C189 C188 1.397 . S
C189 C190 1.385 . S
C190 H173 0.940 . S
C190 C189 1.385 . S
C190 C191 1.388 . S
C191 H170 0.939 . S
C191 C186 1.391 . S
C191 C190 1.388 . S
P192 O203 1.490 . S
P192 C206 1.812 . S
P192 C212 1.803 . S
P192 C218 1.819 . S
H193 C207 0.941 . S
H194 C208 0.939 . S
H195 C210 0.940 . S
H196 C211 0.940 . S
H197 C213 0.939 . S
H198 C214 0.942 . S
H199 C216 0.940 . S
H200 C217 0.939 . S
H201 C219 0.941 . S
H202 C223 0.939 . S
O203 P192 1.490 . S
H204 C220 0.939 . S
H205 C222 0.940 . S
C206 P192 1.812 . S
C206 C207 1.389 . S
C206 C211 1.391 . S
C207 H193 0.941 . S
C207 C206 1.389 . S
C207 C208 1.397 . S
C208 H194 0.939 . S
C208 C207 1.397 . S
C208 C209 1.378 . S
C209 C208 1.378 . S
C209 C210 1.378 . S
C210 H195 0.940 . S
C210 C209 1.378 . S
C210 C211 1.396 . S
C211 H196 0.940 . S
C211 C206 1.391 . S
C211 C210 1.396 . S
C212 P192 1.803 . S
C212 C213 1.378 . S
C212 C217 1.400 . S
C213 H197 0.939 . S
C213 C212 1.378 . S
C213 C214 1.361 . S
C214 H198 0.942 . S
C214 C213 1.361 . S
C214 C215 1.369 . S
C215 C214 1.369 . S
C215 C216 1.404 . S
C216 H199 0.940 . S
C216 C215 1.404 . S
C216 C217 1.389 . S
C217 H200 0.939 . S
C217 C212 1.400 . S
C217 C216 1.389 . S
C218 P192 1.819 . S
C218 C219 1.391 . S
C218 C223 1.391 . S
C219 H201 0.941 . S
C219 C218 1.391 . S
C219 C220 1.396 . S
C220 H204 0.939 . S
C220 C219 1.396 . S
C220 C221 1.397 . S
C221 C220 1.397 . S
C221 C222 1.385 . S
C222 H205 0.940 . S
C222 C221 1.385 . S
C222 C223 1.388 . S
C223 H202 0.939 . S
C223 C218 1.391 . S
C223 C222 1.388 . S
P224 O235 1.490 . S
P224 C238 1.812 . S
P224 C244 1.803 . S
P224 C250 1.819 . S
H225 C239 0.941 . S
H226 C240 0.939 . S
H227 C242 0.940 . S
H228 C243 0.940 . S
H229 C245 0.939 . S
H230 C246 0.942 . S
H231 C248 0.940 . S
H232 C249 0.939 . S
H233 C251 0.941 . S
H234 C255 0.939 . S
O235 P224 1.490 . S
H236 C252 0.939 . S
H237 C254 0.940 . S
C238 P224 1.812 . S
C238 C239 1.389 . S
C238 C243 1.391 . S
C239 H225 0.941 . S
C239 C238 1.389 . S
C239 C240 1.397 . S
C240 H226 0.939 . S
C240 C239 1.397 . S
C240 C241 1.378 . S
C241 C240 1.378 . S
C241 C242 1.378 . S
C242 H227 0.940 . S
C242 C241 1.378 . S
C242 C243 1.396 . S
C243 H228 0.940 . S
C243 C238 1.391 . S
C243 C242 1.396 . S
C244 P224 1.803 . S
C244 C245 1.378 . S
C244 C249 1.400 . S
C245 H229 0.939 . S
C245 C244 1.378 . S
C245 C246 1.361 . S
C246 H230 0.942 . S
C246 C245 1.361 . S
C246 C247 1.369 . S
C247 C246 1.369 . S
C247 C248 1.404 . S
C248 H231 0.940 . S
C248 C247 1.404 . S
C248 C249 1.389 . S
C249 H232 0.939 . S
C249 C244 1.400 . S
C249 C248 1.389 . S
C250 P224 1.819 . S
C250 C251 1.391 . S
C250 C255 1.391 . S
C251 H233 0.941 . S
C251 C250 1.391 . S
C251 C252 1.396 . S
C252 H236 0.939 . S
C252 C251 1.396 . S
C252 C253 1.397 . S
C253 C252 1.397 . S
C253 C254 1.385 . S
C254 H237 0.940 . S
C254 C253 1.385 . S
C254 C255 1.388 . S
C255 H234 0.939 . S
C255 C250 1.391 . S
C255 C254 1.388 . S
C256 O258 1.247 . S
C256 O260 1.258 . S
C257 O264 1.247 . S
C257 O265 1.258 . S
O258 C256 1.247 . S
O258 Zn259 2.028 1_655 S
Zn259 O258 2.028 1_455 S
Zn259 O263 2.035 . S
Zn259 O265 2.035 . S
Zn259 O266 2.028 1_455 S
O260 C256 1.258 . S
O260 Zn261 2.035 1_655 S
Zn261 O260 2.035 1_455 S
Zn261 O262 2.028 . S
Zn261 O264 2.028 . S
Zn261 O267 2.035 1_455 S
O262 Zn261 2.028 . S
O262 C268 1.247 . S
O263 Zn259 2.035 . S
O263 C268 1.258 . S
O264 C257 1.247 . S
O264 Zn261 2.028 . S
O265 C257 1.258 . S
O265 Zn259 2.035 . S
O266 Zn259 2.028 1_655 S
O266 C269 1.247 . S
O267 Zn261 2.035 1_655 S
O267 C269 1.258 . S
C268 O262 1.247 . S
C268 O263 1.258 . S
C269 O266 1.247 . S
C269 O267 1.258 . S
C270 O272 1.247 . S
C270 O274 1.258 . S
C271 O278 1.247 . S
C271 O279 1.258 . S
O272 C270 1.247 . S
O272 Zn273 2.028 1_655 S
Zn273 O272 2.028 1_455 S
Zn273 O277 2.035 . S
Zn273 O279 2.035 . S
Zn273 O280 2.028 1_455 S
O274 C270 1.258 . S
O274 Zn275 2.040 . S
Zn275 O274 2.040 . S
Zn275 O276 2.023 1_655 S
Zn275 O278 2.023 1_655 S
Zn275 O281 2.040 . S
O276 Zn275 2.023 1_455 S
O276 C282 1.247 . S
O277 Zn273 2.035 . S
O277 C282 1.258 . S
O278 C271 1.247 . S
O278 Zn275 2.023 1_455 S
O279 C271 1.258 . S
O279 Zn273 2.035 . S
O280 Zn273 2.028 1_655 S
O280 C283 1.247 . S
O281 Zn275 2.040 . S
O281 C283 1.258 . S
C282 O276 1.247 . S
C282 O277 1.258 . S
C283 O280 1.247 . S
C283 O281 1.258 . S
C284 O286 1.247 . S
C284 O288 1.258 . S
C285 O292 1.247 . S
C285 O293 1.258 . S
O286 C284 1.247 . S
O286 Zn287 2.028 1_565 S
Zn287 O286 2.028 1_545 S
Zn287 O291 2.035 . S
Zn287 O293 2.035 . S
Zn287 O294 2.028 1_545 S
O288 C284 1.258 . S
O288 Zn289 2.035 1_565 S
Zn289 O288 2.035 1_545 S
Zn289 O290 2.028 . S
Zn289 O292 2.028 . S
Zn289 O295 2.035 1_545 S
O290 Zn289 2.028 . S
O290 C296 1.247 . S
O291 Zn287 2.035 . S
O291 C296 1.258 . S
O292 C285 1.247 . S
O292 Zn289 2.028 . S
O293 C285 1.258 . S
O293 Zn287 2.035 . S
O294 Zn287 2.028 1_565 S
O294 C297 1.247 . S
O295 Zn289 2.035 1_565 S
O295 C297 1.258 . S
C296 O290 1.247 . S
C296 O291 1.258 . S
C297 O294 1.247 . S
C297 O295 1.258 . S
C298 O300 1.247 . S
C298 O302 1.258 . S
C299 O306 1.247 . S
C299 O307 1.258 . S
O300 C298 1.247 . S
O300 Zn301 2.028 . S
Zn301 O300 2.028 . S
Zn301 O305 2.035 . S
Zn301 O307 2.035 1_554 S
Zn301 O308 2.028 1_554 S
O302 C298 1.258 . S
O302 Zn303 2.035 . S
Zn303 O302 2.035 . S
Zn303 O304 2.028 . S
Zn303 O306 2.028 1_554 S
Zn303 O309 2.035 1_554 S
O304 Zn303 2.028 . S
O304 C310 1.247 . S
O305 Zn301 2.035 . S
O305 C310 1.258 . S
O306 C299 1.247 . S
O306 Zn303 2.028 1_556 S
O307 C299 1.258 . S
O307 Zn301 2.035 1_556 S
O308 Zn301 2.028 1_556 S
O308 C311 1.247 . S
O309 Zn303 2.035 1_556 S
O309 C311 1.258 . S
C310 O304 1.247 . S
C310 O305 1.258 . S
C311 O308 1.247 . S
C311 O309 1.258 . S
C312 O314 1.247 . S
C312 O316 1.258 . S
C313 O320 1.247 . S
C313 O321 1.258 . S
O314 C312 1.247 . S
O314 Zn315 2.044 . S
Zn315 O314 2.044 . S
Zn315 O319 2.019 1_565 S
Zn315 O321 2.019 1_565 S
Zn315 O322 2.044 . S
O316 C312 1.258 . S
O316 Zn317 2.035 1_565 S
Zn317 O316 2.035 1_545 S
Zn317 O318 2.028 . S
Zn317 O320 2.028 . S
Zn317 O323 2.035 1_545 S
O318 Zn317 2.028 . S
O318 C324 1.247 . S
O319 Zn315 2.019 1_545 S
O319 C324 1.258 . S
O320 C313 1.247 . S
O320 Zn317 2.028 . S
O321 C313 1.258 . S
O321 Zn315 2.019 1_545 S
O322 Zn315 2.044 . S
O322 C325 1.247 . S
O323 Zn317 2.035 1_565 S
O323 C325 1.258 . S
C324 O318 1.247 . S
C324 O319 1.258 . S
C325 O322 1.247 . S
C325 O323 1.258 . S
C326 O328 1.247 . S
C326 O330 1.258 . S
C327 O334 1.247 . S
C327 O335 1.258 . S
O328 C326 1.247 . S
O328 Zn329 2.028 . S
Zn329 O328 2.028 . S
Zn329 O333 2.035 . S
Zn329 O335 2.035 1_554 S
Zn329 O336 2.028 1_554 S
O330 C326 1.258 . S
O330 Zn331 2.037 1_554 S
Zn331 O330 2.037 1_556 S
Zn331 O332 2.030 1_556 S
Zn331 O334 2.026 . S
Zn331 O337 2.034 . S
O332 Zn331 2.030 1_554 S
O332 C338 1.247 . S
O333 Zn329 2.035 . S
O333 C338 1.258 . S
O334 C327 1.247 . S
O334 Zn331 2.026 . S
O335 C327 1.258 . S
O335 Zn329 2.035 1_556 S
O336 Zn329 2.028 1_556 S
O336 C339 1.247 . S
O337 Zn331 2.034 . S
O337 C339 1.258 . S
C338 O332 1.247 . S
C338 O333 1.258 . S
C339 O336 1.247 . S
C339 O337 1.258 . S
H340 C348 0.929 . S
H341 C350 0.930 . S
H342 C352 0.930 . S
H343 C355 0.929 . S
H344 C358 0.930 . S
H345 C360 0.960 . S
H346 C360 0.960 . S
H347 C360 0.960 . S
C348 H340 0.929 . S
C348 C349 1.377 . S
C348 C350 1.384 . S
C349 C348 1.377 . S
C349 C355 1.390 . S
C350 H341 0.930 . S
C350 C348 1.384 . S
C350 C351 1.372 . S
C351 C350 1.372 . S
C351 C352 1.400 . S
C351 C356 1.490 . S
C352 H342 0.930 . S
C352 C351 1.400 . S
C352 C355 1.386 . S
H353 C369 0.930 . S
H354 C370 0.931 . S
C355 H343 0.929 . S
C355 C349 1.390 . S
C355 C352 1.386 . S
C356 C351 1.490 . S
C356 C358 1.395 . S
C356 C359 1.403 . S
H357 C363 0.930 . S
C358 H344 0.930 . S
C358 C356 1.395 . S
C358 C361 1.403 . S
C359 C356 1.403 . S
C359 C360 1.524 . S
C359 C363 1.400 . S
C360 H345 0.960 . S
C360 H346 0.960 . S
C360 H347 0.960 . S
C360 C359 1.524 . S
C361 C358 1.403 . S
C361 C362 1.392 . S
C361 C365 1.495 . S
C362 C361 1.392 . S
C362 C363 1.385 . S
C362 C364 1.478 . S
C363 H357 0.930 . S
C363 C359 1.400 . S
C363 C362 1.385 . S
C364 C362 1.478 . S
C364 C366 1.381 . S
C364 C370 1.383 . S
C365 C361 1.495 . S
C365 H371 0.959 . S
C365 H372 0.961 . S
C365 H373 0.960 . S
C366 C364 1.381 . S
C366 C367 1.394 . S
C366 H374 0.930 . S
C367 C366 1.394 . S
C367 C368 1.383 . S
C367 H375 0.929 . S
C368 C367 1.383 . S
C368 C369 1.377 . S
C369 H353 0.930 . S
C369 C368 1.377 . S
C369 C370 1.379 . S
C370 H354 0.931 . S
C370 C364 1.383 . S
C370 C369 1.379 . S
H371 C365 0.959 . S
H372 C365 0.961 . S
H373 C365 0.960 . S
H374 C366 0.930 . S
H375 C367 0.929 . S
H376 C384 0.929 . S
H377 C386 0.930 . S
H378 C388 0.930 . S
H379 C391 0.929 . S
H380 C394 0.930 . S
H381 C396 0.960 . S
H382 C396 0.960 . S
H383 C396 0.960 . S
C384 H376 0.929 . S
C384 C385 1.377 . S
C384 C386 1.384 . S
C385 C384 1.377 . S
C385 C391 1.390 . S
C386 H377 0.930 . S
C386 C384 1.384 . S
C386 C387 1.372 . S
C387 C386 1.372 . S
C387 C388 1.400 . S
C387 C392 1.490 . S
C388 H378 0.930 . S
C388 C387 1.400 . S
C388 C391 1.386 . S
H389 C405 0.930 . S
H390 C406 0.931 . S
C391 H379 0.929 . S
C391 C385 1.390 . S
C391 C388 1.386 . S
C392 C387 1.490 . S
C392 C394 1.395 . S
C392 C395 1.403 . S
H393 C399 0.930 . S
C394 H380 0.930 . S
C394 C392 1.395 . S
C394 C397 1.403 . S
C395 C392 1.403 . S
C395 C396 1.524 . S
C395 C399 1.400 . S
C396 H381 0.960 . S
C396 H382 0.960 . S
C396 H383 0.960 . S
C396 C395 1.524 . S
C397 C394 1.403 . S
C397 C398 1.392 . S
C397 C401 1.495 . S
C398 C397 1.392 . S
C398 C399 1.385 . S
C398 C400 1.478 . S
C399 H393 0.930 . S
C399 C395 1.400 . S
C399 C398 1.385 . S
C400 C398 1.478 . S
C400 C402 1.381 . S
C400 C406 1.383 . S
C401 C397 1.495 . S
C401 H407 0.959 . S
C401 H408 0.961 . S
C401 H409 0.960 . S
C402 C400 1.381 . S
C402 C403 1.394 . S
C402 H410 0.930 . S
C403 C402 1.394 . S
C403 C404 1.383 . S
C403 H411 0.929 . S
C404 C403 1.383 . S
C404 C405 1.377 . S
C405 H389 0.930 . S
C405 C404 1.377 . S
C405 C406 1.379 . S
C406 H390 0.931 . S
C406 C400 1.383 . S
C406 C405 1.379 . S
H407 C401 0.959 . S
H408 C401 0.961 . S
H409 C401 0.960 . S
H410 C402 0.930 . S
H411 C403 0.929 . S
H412 C420 0.929 . S
H413 C422 0.930 . S
H414 C424 0.930 . S
H415 C427 0.929 . S
H416 C430 0.930 . S
H417 C432 0.960 . S
H418 C432 0.960 . S
H419 C432 0.960 . S
C420 H412 0.929 . S
C420 C421 1.377 . S
C420 C422 1.384 . S
C421 C420 1.377 . S
C421 C427 1.390 . S
C422 H413 0.930 . S
C422 C420 1.384 . S
C422 C423 1.372 . S
C423 C422 1.372 . S
C423 C424 1.400 . S
C423 C428 1.490 . S
C424 H414 0.930 . S
C424 C423 1.400 . S
C424 C427 1.386 . S
H425 C441 0.930 . S
H426 C442 0.931 . S
C427 H415 0.929 . S
C427 C421 1.390 . S
C427 C424 1.386 . S
C428 C423 1.490 . S
C428 C430 1.395 . S
C428 C431 1.403 . S
H429 C435 0.930 . S
C430 H416 0.930 . S
C430 C428 1.395 . S
C430 C433 1.403 . S
C431 C428 1.403 . S
C431 C432 1.524 . S
C431 C435 1.400 . S
C432 H417 0.960 . S
C432 H418 0.960 . S
C432 H419 0.960 . S
C432 C431 1.524 . S
C433 C430 1.403 . S
C433 C434 1.392 . S
C433 C437 1.495 . S
C434 C433 1.392 . S
C434 C435 1.385 . S
C434 C436 1.478 . S
C435 H429 0.930 . S
C435 C431 1.400 . S
C435 C434 1.385 . S
C436 C434 1.478 . S
C436 C438 1.381 . S
C436 C442 1.383 . S
C437 C433 1.495 . S
C437 H443 0.959 . S
C437 H444 0.961 . S
C437 H445 0.960 . S
C438 C436 1.381 . S
C438 C439 1.394 . S
C438 H446 0.930 . S
C439 C438 1.394 . S
C439 C440 1.383 . S
C439 H447 0.929 . S
C440 C439 1.383 . S
C440 C441 1.377 . S
C441 H425 0.930 . S
C441 C440 1.377 . S
C441 C442 1.379 . S
C442 H426 0.931 . S
C442 C436 1.383 . S
C442 C441 1.379 . S
H443 C437 0.959 . S
H444 C437 0.961 . S
H445 C437 0.960 . S
H446 C438 0.930 . S
H447 C439 0.929 . S
H448 C456 0.929 . S
H449 C458 0.930 . S
H450 C460 0.930 . S
H451 C463 0.929 . S
H452 C466 0.930 . S
H453 C468 0.960 . S
H454 C468 0.960 . S
H455 C468 0.960 . S
C456 H448 0.929 . S
C456 C457 1.377 . S
C456 C458 1.384 . S
C457 C456 1.377 . S
C457 C463 1.390 . S
C458 H449 0.930 . S
C458 C456 1.384 . S
C458 C459 1.372 . S
C459 C458 1.372 . S
C459 C460 1.400 . S
C459 C464 1.490 . S
C460 H450 0.930 . S
C460 C459 1.400 . S
C460 C463 1.386 . S
H461 C477 0.930 . S
H462 C478 0.931 . S
C463 H451 0.929 . S
C463 C457 1.390 . S
C463 C460 1.386 . S
C464 C459 1.490 . S
C464 C466 1.395 . S
C464 C467 1.403 . S
H465 C471 0.930 . S
C466 H452 0.930 . S
C466 C464 1.395 . S
C466 C469 1.403 . S
C467 C464 1.403 . S
C467 C468 1.524 . S
C467 C471 1.400 . S
C468 H453 0.960 . S
C468 H454 0.960 . S
C468 H455 0.960 . S
C468 C467 1.524 . S
C469 C466 1.403 . S
C469 C470 1.392 . S
C469 C473 1.495 . S
C470 C469 1.392 . S
C470 C471 1.385 . S
C470 C472 1.478 . S
C471 H465 0.930 . S
C471 C467 1.400 . S
C471 C470 1.385 . S
C472 C470 1.478 . S
C472 C474 1.381 . S
C472 C478 1.383 . S
C473 C469 1.495 . S
C473 H479 0.959 . S
C473 H480 0.961 . S
C473 H481 0.960 . S
C474 C472 1.381 . S
C474 C475 1.394 . S
C474 H482 0.930 . S
C475 C474 1.394 . S
C475 C476 1.383 . S
C475 H483 0.929 . S
C476 C475 1.383 . S
C476 C477 1.377 . S
C477 H461 0.930 . S
C477 C476 1.377 . S
C477 C478 1.379 . S
C478 H462 0.931 . S
C478 C472 1.383 . S
C478 C477 1.379 . S
H479 C473 0.959 . S
H480 C473 0.961 . S
H481 C473 0.960 . S
H482 C474 0.930 . S
H483 C475 0.929 . S
H484 C492 0.929 . S
H485 C494 0.930 . S
H486 C496 0.930 . S
H487 C499 0.929 . S
H488 C502 0.930 . S
H489 C504 0.960 . S
H490 C504 0.960 . S
H491 C504 0.960 . S
C492 H484 0.929 . S
C492 C493 1.377 . S
C492 C494 1.384 . S
C493 C492 1.377 . S
C493 C499 1.390 . S
C494 H485 0.930 . S
C494 C492 1.384 . S
C494 C495 1.372 . S
C495 C494 1.372 . S
C495 C496 1.400 . S
C495 C500 1.490 . S
C496 H486 0.930 . S
C496 C495 1.400 . S
C496 C499 1.386 . S
H497 C513 0.930 . S
H498 C514 0.931 . S
C499 H487 0.929 . S
C499 C493 1.390 . S
C499 C496 1.386 . S
C500 C495 1.490 . S
C500 C502 1.395 . S
C500 C503 1.403 . S
H501 C507 0.930 . S
C502 H488 0.930 . S
C502 C500 1.395 . S
C502 C505 1.403 . S
C503 C500 1.403 . S
C503 C504 1.524 . S
C503 C507 1.400 . S
C504 H489 0.960 . S
C504 H490 0.960 . S
C504 H491 0.960 . S
C504 C503 1.524 . S
C505 C502 1.403 . S
C505 C506 1.392 . S
C505 C509 1.495 . S
C506 C505 1.392 . S
C506 C507 1.385 . S
C506 C508 1.478 . S
C507 H501 0.930 . S
C507 C503 1.400 . S
C507 C506 1.385 . S
C508 C506 1.478 . S
C508 C510 1.381 . S
C508 C514 1.383 . S
C509 C505 1.495 . S
C509 H515 0.959 . S
C509 H516 0.961 . S
C509 H517 0.960 . S
C510 C508 1.381 . S
C510 C511 1.394 . S
C510 H518 0.930 . S
C511 C510 1.394 . S
C511 C512 1.383 . S
C511 H519 0.929 . S
C512 C511 1.383 . S
C512 C513 1.377 . S
C513 H497 0.930 . S
C513 C512 1.377 . S
C513 C514 1.379 . S
C514 H498 0.931 . S
C514 C508 1.383 . S
C514 C513 1.379 . S
H515 C509 0.959 . S
H516 C509 0.961 . S
H517 C509 0.960 . S
H518 C510 0.930 . S
H519 C511 0.929 . S
H520 C528 0.929 . S
H521 C530 0.930 . S
H522 C532 0.930 . S
H523 C535 0.929 . S
H524 C538 0.930 . S
H525 C540 0.960 . S
H526 C540 0.960 . S
H527 C540 0.960 . S
C528 H520 0.929 . S
C528 C529 1.377 . S
C528 C530 1.384 . S
C529 C528 1.377 . S
C529 C535 1.390 . S
C530 H521 0.930 . S
C530 C528 1.384 . S
C530 C531 1.372 . S
C531 C530 1.372 . S
C531 C532 1.400 . S
C531 C536 1.490 . S
C532 H522 0.930 . S
C532 C531 1.400 . S
C532 C535 1.386 . S
H533 C549 0.930 . S
H534 C550 0.931 . S
C535 H523 0.929 . S
C535 C529 1.390 . S
C535 C532 1.386 . S
C536 C531 1.490 . S
C536 C538 1.395 . S
C536 C539 1.403 . S
H537 C543 0.930 . S
C538 H524 0.930 . S
C538 C536 1.395 . S
C538 C541 1.403 . S
C539 C536 1.403 . S
C539 C540 1.524 . S
C539 C543 1.400 . S
C540 H525 0.960 . S
C540 H526 0.960 . S
C540 H527 0.960 . S
C540 C539 1.524 . S
C541 C538 1.403 . S
C541 C542 1.392 . S
C541 C545 1.495 . S
C542 C541 1.392 . S
C542 C543 1.385 . S
C542 C544 1.478 . S
C543 H537 0.930 . S
C543 C539 1.400 . S
C543 C542 1.385 . S
C544 C542 1.478 . S
C544 C546 1.381 . S
C544 C550 1.383 . S
C545 C541 1.495 . S
C545 H551 0.959 . S
C545 H552 0.961 . S
C545 H553 0.960 . S
C546 C544 1.381 . S
C546 C547 1.394 . S
C546 H554 0.930 . S
C547 C546 1.394 . S
C547 C548 1.383 . S
C547 H555 0.929 . S
C548 C547 1.383 . S
C548 C549 1.377 . S
C549 H533 0.930 . S
C549 C548 1.377 . S
C549 C550 1.379 . S
C550 H534 0.931 . S
C550 C544 1.383 . S
C550 C549 1.379 . S
H551 C545 0.959 . S
H552 C545 0.961 . S
H553 C545 0.960 . S
H554 C546 0.930 . S
H555 C547 0.929 . S
H556 C564 0.929 . S
H557 C566 0.930 . S
H558 C568 0.930 . S
H559 C571 0.929 . S
H560 C574 0.930 . S
H561 C576 0.960 . S
H562 C576 0.960 . S
H563 C576 0.960 . S
C564 H556 0.929 . S
C564 C565 1.377 . S
C564 C566 1.384 . S
C565 C564 1.377 . S
C565 C571 1.390 . S
C566 H557 0.930 . S
C566 C564 1.384 . S
C566 C567 1.372 . S
C567 C566 1.372 . S
C567 C568 1.400 . S
C567 C572 1.490 . S
C568 H558 0.930 . S
C568 C567 1.400 . S
C568 C571 1.386 . S
H569 C585 0.930 . S
H570 C586 0.931 . S
C571 H559 0.929 . S
C571 C565 1.390 . S
C571 C568 1.386 . S
C572 C567 1.490 . S
C572 C574 1.395 . S
C572 C575 1.403 . S
H573 C579 0.930 . S
C574 H560 0.930 . S
C574 C572 1.395 . S
C574 C577 1.403 . S
C575 C572 1.403 . S
C575 C576 1.524 . S
C575 C579 1.400 . S
C576 H561 0.960 . S
C576 H562 0.960 . S
C576 H563 0.960 . S
C576 C575 1.524 . S
C577 C574 1.403 . S
C577 C578 1.392 . S
C577 C581 1.495 . S
C578 C577 1.392 . S
C578 C579 1.385 . S
C578 C580 1.478 . S
C579 H573 0.930 . S
C579 C575 1.400 . S
C579 C578 1.385 . S
C580 C578 1.478 . S
C580 C582 1.381 . S
C580 C586 1.383 . S
C581 C577 1.495 . S
C581 H587 0.959 . S
C581 H588 0.961 . S
C581 H589 0.960 . S
C582 C580 1.381 . S
C582 C583 1.394 . S
C582 H590 0.930 . S
C583 C582 1.394 . S
C583 C584 1.383 . S
C583 H591 0.929 . S
C584 C583 1.383 . S
C584 C585 1.377 . S
C585 H569 0.930 . S
C585 C584 1.377 . S
C585 C586 1.379 . S
C586 H570 0.931 . S
C586 C580 1.383 . S
C586 C585 1.379 . S
H587 C581 0.959 . S
H588 C581 0.961 . S
H589 C581 0.960 . S
H590 C582 0.930 . S
H591 C583 0.929 . S
H592 C600 0.929 . S
H593 C602 0.930 . S
H594 C604 0.930 . S
H595 C607 0.929 . S
H596 C610 0.930 . S
H597 C612 0.960 . S
H598 C612 0.960 . S
H599 C612 0.960 . S
C600 H592 0.929 . S
C600 C601 1.377 . S
C600 C602 1.384 . S
C601 C600 1.377 . S
C601 C607 1.390 . S
C602 H593 0.930 . S
C602 C600 1.384 . S
C602 C603 1.372 . S
C603 C602 1.372 . S
C603 C604 1.400 . S
C603 C608 1.490 . S
C604 H594 0.930 . S
C604 C603 1.400 . S
C604 C607 1.386 . S
H605 C621 0.930 . S
H606 C622 0.931 . S
C607 H595 0.929 . S
C607 C601 1.390 . S
C607 C604 1.386 . S
C608 C603 1.490 . S
C608 C610 1.395 . S
C608 C611 1.403 . S
H609 C615 0.930 . S
C610 H596 0.930 . S
C610 C608 1.395 . S
C610 C613 1.403 . S
C611 C608 1.403 . S
C611 C612 1.524 . S
C611 C615 1.400 . S
C612 H597 0.960 . S
C612 H598 0.960 . S
C612 H599 0.960 . S
C612 C611 1.524 . S
C613 C610 1.403 . S
C613 C614 1.392 . S
C613 C617 1.495 . S
C614 C613 1.392 . S
C614 C615 1.385 . S
C614 C616 1.478 . S
C615 H609 0.930 . S
C615 C611 1.400 . S
C615 C614 1.385 . S
C616 C614 1.478 . S
C616 C618 1.381 . S
C616 C622 1.383 . S
C617 C613 1.495 . S
C617 H623 0.959 . S
C617 H624 0.961 . S
C617 H625 0.960 . S
C618 C616 1.381 . S
C618 C619 1.394 . S
C618 H626 0.930 . S
C619 C618 1.394 . S
C619 C620 1.383 . S
C619 H627 0.929 . S
C620 C619 1.383 . S
C620 C621 1.377 . S
C621 H605 0.930 . S
C621 C620 1.377 . S
C621 C622 1.379 . S
C622 H606 0.931 . S
C622 C616 1.383 . S
C622 C621 1.379 . S
H623 C617 0.959 . S
H624 C617 0.961 . S
H625 C617 0.960 . S
H626 C618 0.930 . S
H627 C619 0.929 . S
H628 C636 0.929 . S
H629 C638 0.930 . S
H630 C640 0.930 . S
H631 C643 0.929 . S
H632 C646 0.930 . S
H633 C648 0.960 . S
H634 C648 0.960 . S
H635 C648 0.960 . S
C636 H628 0.929 . S
C636 C637 1.377 . S
C636 C638 1.384 . S
C637 C636 1.377 . S
C637 C643 1.390 . S
C638 H629 0.930 . S
C638 C636 1.384 . S
C638 C639 1.372 . S
C639 C638 1.372 . S
C639 C640 1.400 . S
C639 C644 1.490 . S
C640 H630 0.930 . S
C640 C639 1.400 . S
C640 C643 1.386 . S
H641 C657 0.930 . S
H642 C658 0.931 . S
C643 H631 0.929 . S
C643 C637 1.390 . S
C643 C640 1.386 . S
C644 C639 1.490 . S
C644 C646 1.395 . S
C644 C647 1.403 . S
H645 C651 0.930 . S
C646 H632 0.930 . S
C646 C644 1.395 . S
C646 C649 1.403 . S
C647 C644 1.403 . S
C647 C648 1.524 . S
C647 C651 1.400 . S
C648 H633 0.960 . S
C648 H634 0.960 . S
C648 H635 0.960 . S
C648 C647 1.524 . S
C649 C646 1.403 . S
C649 C650 1.392 . S
C649 C653 1.495 . S
C650 C649 1.392 . S
C650 C651 1.385 . S
C650 C652 1.478 . S
C651 H645 0.930 . S
C651 C647 1.400 . S
C651 C650 1.385 . S
C652 C650 1.478 . S
C652 C654 1.381 . S
C652 C658 1.383 . S
C653 C649 1.495 . S
C653 H659 0.959 . S
C653 H660 0.961 . S
C653 H661 0.960 . S
C654 C652 1.381 . S
C654 C655 1.394 . S
C654 H662 0.930 . S
C655 C654 1.394 . S
C655 C656 1.383 . S
C655 H663 0.929 . S
C656 C655 1.383 . S
C656 C657 1.377 . S
C657 H641 0.930 . S
C657 C656 1.377 . S
C657 C658 1.379 . S
C658 H642 0.931 . S
C658 C652 1.383 . S
C658 C657 1.379 . S
H659 C653 0.959 . S
H660 C653 0.961 . S
H661 C653 0.960 . S
H662 C654 0.930 . S
H663 C655 0.929 . S
H664 C672 0.929 . S
H665 C674 0.930 . S
H666 C676 0.930 . S
H667 C679 0.929 . S
H668 C682 0.930 . S
H669 C684 0.960 . S
H670 C684 0.960 . S
H671 C684 0.960 . S
C672 H664 0.929 . S
C672 C673 1.377 . S
C672 C674 1.384 . S
C673 C672 1.377 . S
C673 C679 1.390 . S
C674 H665 0.930 . S
C674 C672 1.384 . S
C674 C675 1.372 . S
C675 C674 1.372 . S
C675 C676 1.400 . S
C675 C680 1.490 . S
C676 H666 0.930 . S
C676 C675 1.400 . S
C676 C679 1.386 . S
H677 C693 0.930 . S
H678 C694 0.931 . S
C679 H667 0.929 . S
C679 C673 1.390 . S
C679 C676 1.386 . S
C680 C675 1.490 . S
C680 C682 1.395 . S
C680 C683 1.403 . S
H681 C687 0.930 . S
C682 H668 0.930 . S
C682 C680 1.395 . S
C682 C685 1.403 . S
C683 C680 1.403 . S
C683 C684 1.524 . S
C683 C687 1.400 . S
C684 H669 0.960 . S
C684 H670 0.960 . S
C684 H671 0.960 . S
C684 C683 1.524 . S
C685 C682 1.403 . S
C685 C686 1.392 . S
C685 C689 1.495 . S
C686 C685 1.392 . S
C686 C687 1.385 . S
C686 C688 1.478 . S
C687 H681 0.930 . S
C687 C683 1.400 . S
C687 C686 1.385 . S
C688 C686 1.478 . S
C688 C690 1.381 . S
C688 C694 1.383 . S
C689 C685 1.495 . S
C689 H695 0.959 . S
C689 H696 0.961 . S
C689 H697 0.960 . S
C690 C688 1.381 . S
C690 C691 1.394 . S
C690 H698 0.930 . S
C691 C690 1.394 . S
C691 C692 1.383 . S
C691 H699 0.929 . S
C692 C691 1.383 . S
C692 C693 1.377 . S
C693 H677 0.930 . S
C693 C692 1.377 . S
C693 C694 1.379 . S
C694 H678 0.931 . S
C694 C688 1.383 . S
C694 C693 1.379 . S
H695 C689 0.959 . S
H696 C689 0.961 . S
H697 C689 0.960 . S
H698 C690 0.930 . S
H699 C691 0.929 . S
H700 C708 0.929 . S
H701 C710 0.930 . S
H702 C712 0.930 . S
H703 C715 0.929 . S
H704 C718 0.930 . S
H705 C720 0.960 . S
H706 C720 0.960 . S
H707 C720 0.960 . S
C708 H700 0.929 . S
C708 C709 1.377 . S
C708 C710 1.384 . S
C709 C708 1.377 . S
C709 C715 1.390 . S
C710 H701 0.930 . S
C710 C708 1.384 . S
C710 C711 1.372 . S
C711 C710 1.372 . S
C711 C712 1.400 . S
C711 C716 1.490 . S
C712 H702 0.930 . S
C712 C711 1.400 . S
C712 C715 1.386 . S
H713 C729 0.930 . S
H714 C730 0.931 . S
C715 H703 0.929 . S
C715 C709 1.390 . S
C715 C712 1.386 . S
C716 C711 1.490 . S
C716 C718 1.395 . S
C716 C719 1.403 . S
H717 C723 0.930 . S
C718 H704 0.930 . S
C718 C716 1.395 . S
C718 C721 1.403 . S
C719 C716 1.403 . S
C719 C720 1.524 . S
C719 C723 1.400 . S
C720 H705 0.960 . S
C720 H706 0.960 . S
C720 H707 0.960 . S
C720 C719 1.524 . S
C721 C718 1.403 . S
C721 C722 1.392 . S
C721 C725 1.495 . S
C722 C721 1.392 . S
C722 C723 1.385 . S
C722 C724 1.478 . S
C723 H717 0.930 . S
C723 C719 1.400 . S
C723 C722 1.385 . S
C724 C722 1.478 . S
C724 C726 1.381 . S
C724 C730 1.383 . S
C725 C721 1.495 . S
C725 H731 0.959 . S
C725 H732 0.961 . S
C725 H733 0.960 . S
C726 C724 1.381 . S
C726 C727 1.394 . S
C726 H734 0.930 . S
C727 C726 1.394 . S
C727 C728 1.383 . S
C727 H735 0.929 . S
C728 C727 1.383 . S
C728 C729 1.377 . S
C729 H713 0.930 . S
C729 C728 1.377 . S
C729 C730 1.379 . S
C730 H714 0.931 . S
C730 C724 1.383 . S
C730 C729 1.379 . S
H731 C725 0.959 . S
H732 C725 0.961 . S
H733 C725 0.960 . S
H734 C726 0.930 . S
H735 C727 0.929 . S
H736 C744 0.929 . S
H737 C746 0.930 . S
H738 C748 0.930 . S
H739 C751 0.929 . S
H740 C754 0.930 . S
H741 C756 0.960 . S
H742 C756 0.960 . S
H743 C756 0.960 . S
C744 H736 0.929 . S
C744 C745 1.377 . S
C744 C746 1.384 . S
C745 C744 1.377 . S
C745 C751 1.390 . S
C746 H737 0.930 . S
C746 C744 1.384 . S
C746 C747 1.372 . S
C747 C746 1.372 . S
C747 C748 1.400 . S
C747 C752 1.490 . S
C748 H738 0.930 . S
C748 C747 1.400 . S
C748 C751 1.386 . S
H749 C765 0.930 . S
H750 C766 0.931 . S
C751 H739 0.929 . S
C751 C745 1.390 . S
C751 C748 1.386 . S
C752 C747 1.490 . S
C752 C754 1.395 . S
C752 C755 1.403 . S
H753 C759 0.930 . S
C754 H740 0.930 . S
C754 C752 1.395 . S
C754 C757 1.403 . S
C755 C752 1.403 . S
C755 C756 1.524 . S
C755 C759 1.400 . S
C756 H741 0.960 . S
C756 H742 0.960 . S
C756 H743 0.960 . S
C756 C755 1.524 . S
C757 C754 1.403 . S
C757 C758 1.392 . S
C757 C761 1.495 . S
C758 C757 1.392 . S
C758 C759 1.385 . S
C758 C760 1.478 . S
C759 H753 0.930 . S
C759 C755 1.400 . S
C759 C758 1.385 . S
C760 C758 1.478 . S
C760 C762 1.381 . S
C760 C766 1.383 . S
C761 C757 1.495 . S
C761 H767 0.959 . S
C761 H768 0.961 . S
C761 H769 0.960 . S
C762 C760 1.381 . S
C762 C763 1.394 . S
C762 H770 0.930 . S
C763 C762 1.394 . S
C763 C764 1.383 . S
C763 H771 0.929 . S
C764 C763 1.383 . S
C764 C765 1.377 . S
C765 H749 0.930 . S
C765 C764 1.377 . S
C765 C766 1.379 . S
C766 H750 0.931 . S
C766 C760 1.383 . S
C766 C765 1.379 . S
H767 C761 0.959 . S
H768 C761 0.961 . S
H769 C761 0.960 . S
H770 C762 0.930 . S
H771 C763 0.929 . S
H772 C780 0.929 . S
H773 C782 0.930 . S
H774 C784 0.930 . S
H775 C787 0.929 . S
H776 C790 0.930 . S
H777 C792 0.960 . S
H778 C792 0.960 . S
H779 C792 0.960 . S
C780 H772 0.929 . S
C780 C781 1.377 . S
C780 C782 1.384 . S
C781 C780 1.377 . S
C781 C787 1.390 . S
C782 H773 0.930 . S
C782 C780 1.384 . S
C782 C783 1.372 . S
C783 C782 1.372 . S
C783 C784 1.400 . S
C783 C788 1.490 . S
C784 H774 0.930 . S
C784 C783 1.400 . S
C784 C787 1.386 . S
H785 C801 0.930 . S
H786 C802 0.931 . S
C787 H775 0.929 . S
C787 C781 1.390 . S
C787 C784 1.386 . S
C788 C783 1.490 . S
C788 C790 1.395 . S
C788 C791 1.403 . S
H789 C795 0.930 . S
C790 H776 0.930 . S
C790 C788 1.395 . S
C790 C793 1.403 . S
C791 C788 1.403 . S
C791 C792 1.524 . S
C791 C795 1.400 . S
C792 H777 0.960 . S
C792 H778 0.960 . S
C792 H779 0.960 . S
C792 C791 1.524 . S
C793 C790 1.403 . S
C793 C794 1.392 . S
C793 C797 1.495 . S
C794 C793 1.392 . S
C794 C795 1.385 . S
C794 C796 1.478 . S
C795 H789 0.930 . S
C795 C791 1.400 . S
C795 C794 1.385 . S
C796 C794 1.478 . S
C796 C798 1.381 . S
C796 C802 1.383 . S
C797 C793 1.495 . S
C797 H803 0.959 . S
C797 H804 0.961 . S
C797 H805 0.960 . S
C798 C796 1.381 . S
C798 C799 1.394 . S
C798 H806 0.930 . S
C799 C798 1.394 . S
C799 C800 1.383 . S
C799 H807 0.929 . S
C800 C799 1.383 . S
C800 C801 1.377 . S
C801 H785 0.930 . S
C801 C800 1.377 . S
C801 C802 1.379 . S
C802 H786 0.931 . S
C802 C796 1.383 . S
C802 C801 1.379 . S
H803 C797 0.959 . S
H804 C797 0.961 . S
H805 C797 0.960 . S
H806 C798 0.930 . S
H807 C799 0.929 . S
H808 C816 0.929 . S
H809 C818 0.930 . S
H810 C820 0.930 . S
H811 C823 0.929 . S
H812 C826 0.930 . S
H813 C828 0.960 . S
H814 C828 0.960 . S
H815 C828 0.960 . S
C816 H808 0.929 . S
C816 C817 1.377 . S
C816 C818 1.384 . S
C817 C816 1.377 . S
C817 C823 1.390 . S
C818 H809 0.930 . S
C818 C816 1.384 . S
C818 C819 1.372 . S
C819 C818 1.372 . S
C819 C820 1.400 . S
C819 C824 1.490 . S
C820 H810 0.930 . S
C820 C819 1.400 . S
C820 C823 1.386 . S
H821 C837 0.930 . S
H822 C838 0.931 . S
C823 H811 0.929 . S
C823 C817 1.390 . S
C823 C820 1.386 . S
C824 C819 1.490 . S
C824 C826 1.395 . S
C824 C827 1.403 . S
H825 C831 0.930 . S
C826 H812 0.930 . S
C826 C824 1.395 . S
C826 C829 1.403 . S
C827 C824 1.403 . S
C827 C828 1.524 . S
C827 C831 1.400 . S
C828 H813 0.960 . S
C828 H814 0.960 . S
C828 H815 0.960 . S
C828 C827 1.524 . S
C829 C826 1.403 . S
C829 C830 1.392 . S
C829 C833 1.495 . S
C830 C829 1.392 . S
C830 C831 1.385 . S
C830 C832 1.478 . S
C831 H825 0.930 . S
C831 C827 1.400 . S
C831 C830 1.385 . S
C832 C830 1.478 . S
C832 C834 1.381 . S
C832 C838 1.383 . S
C833 C829 1.495 . S
C833 H839 0.959 . S
C833 H840 0.961 . S
C833 H841 0.960 . S
C834 C832 1.381 . S
C834 C835 1.394 . S
C834 H842 0.930 . S
C835 C834 1.394 . S
C835 C836 1.383 . S
C835 H843 0.929 . S
C836 C835 1.383 . S
C836 C837 1.377 . S
C837 H821 0.930 . S
C837 C836 1.377 . S
C837 C838 1.379 . S
C838 H822 0.931 . S
C838 C832 1.383 . S
C838 C837 1.379 . S
H839 C833 0.959 . S
H840 C833 0.961 . S
H841 C833 0.960 . S
H842 C834 0.930 . S
H843 C835 0.929 . S
H844 C852 0.929 . S
H845 C854 0.930 . S
H846 C856 0.930 . S
H847 C859 0.929 . S
H848 C862 0.930 . S
H849 C864 0.960 . S
H850 C864 0.960 . S
H851 C864 0.960 . S
C852 H844 0.929 . S
C852 C853 1.377 . S
C852 C854 1.384 . S
C853 C852 1.377 . S
C853 C859 1.390 . S
C854 H845 0.930 . S
C854 C852 1.384 . S
C854 C855 1.372 . S
C855 C854 1.372 . S
C855 C856 1.400 . S
C855 C860 1.490 . S
C856 H846 0.930 . S
C856 C855 1.400 . S
C856 C859 1.386 . S
H857 C873 0.930 . S
H858 C874 0.931 . S
C859 H847 0.929 . S
C859 C853 1.390 . S
C859 C856 1.386 . S
C860 C855 1.490 . S
C860 C862 1.395 . S
C860 C863 1.403 . S
H861 C867 0.930 . S
C862 H848 0.930 . S
C862 C860 1.395 . S
C862 C865 1.403 . S
C863 C860 1.403 . S
C863 C864 1.524 . S
C863 C867 1.400 . S
C864 H849 0.960 . S
C864 H850 0.960 . S
C864 H851 0.960 . S
C864 C863 1.524 . S
C865 C862 1.403 . S
C865 C866 1.392 . S
C865 C869 1.495 . S
C866 C865 1.392 . S
C866 C867 1.385 . S
C866 C868 1.478 . S
C867 H861 0.930 . S
C867 C863 1.400 . S
C867 C866 1.385 . S
C868 C866 1.478 . S
C868 C870 1.381 . S
C868 C874 1.383 . S
C869 C865 1.495 . S
C869 H875 0.959 . S
C869 H876 0.961 . S
C869 H877 0.960 . S
C870 C868 1.381 . S
C870 C871 1.394 . S
C870 H878 0.930 . S
C871 C870 1.394 . S
C871 C872 1.383 . S
C871 H879 0.929 . S
C872 C871 1.383 . S
C872 C873 1.377 . S
C873 H857 0.930 . S
C873 C872 1.377 . S
C873 C874 1.379 . S
C874 H858 0.931 . S
C874 C868 1.383 . S
C874 C873 1.379 . S
H875 C869 0.959 . S
H876 C869 0.961 . S
H877 C869 0.960 . S
H878 C870 0.930 . S
H879 C871 0.929 . S
H880 C888 0.929 . S
H881 C890 0.930 . S
H882 C892 0.930 . S
H883 C895 0.929 . S
H884 C898 0.930 . S
H885 C900 0.960 . S
H886 C900 0.960 . S
H887 C900 0.960 . S
C888 H880 0.929 . S
C888 C889 1.377 . S
C888 C890 1.384 . S
C889 C888 1.377 . S
C889 C895 1.390 . S
C890 H881 0.930 . S
C890 C888 1.384 . S
C890 C891 1.372 . S
C891 C890 1.372 . S
C891 C892 1.400 . S
C891 C896 1.490 . S
C892 H882 0.930 . S
C892 C891 1.400 . S
C892 C895 1.386 . S
H893 C909 0.930 . S
H894 C910 0.931 . S
C895 H883 0.929 . S
C895 C889 1.390 . S
C895 C892 1.386 . S
C896 C891 1.490 . S
C896 C898 1.395 . S
C896 C899 1.403 . S
H897 C903 0.930 . S
C898 H884 0.930 . S
C898 C896 1.395 . S
C898 C901 1.403 . S
C899 C896 1.403 . S
C899 C900 1.524 . S
C899 C903 1.400 . S
C900 H885 0.960 . S
C900 H886 0.960 . S
C900 H887 0.960 . S
C900 C899 1.524 . S
C901 C898 1.403 . S
C901 C902 1.392 . S
C901 C905 1.495 . S
C902 C901 1.392 . S
C902 C903 1.385 . S
C902 C904 1.478 . S
C903 H897 0.930 . S
C903 C899 1.400 . S
C903 C902 1.385 . S
C904 C902 1.478 . S
C904 C906 1.381 . S
C904 C910 1.383 . S
C905 C901 1.495 . S
C905 H911 0.959 . S
C905 H912 0.961 . S
C905 H913 0.960 . S
C906 C904 1.381 . S
C906 C907 1.394 . S
C906 H914 0.930 . S
C907 C906 1.394 . S
C907 C908 1.383 . S
C907 H915 0.929 . S
C908 C907 1.383 . S
C908 C909 1.377 . S
C909 H893 0.930 . S
C909 C908 1.377 . S
C909 C910 1.379 . S
C910 H894 0.931 . S
C910 C904 1.383 . S
C910 C909 1.379 . S
H911 C905 0.959 . S
H912 C905 0.961 . S
H913 C905 0.960 . S
H914 C906 0.930 . S
H915 C907 0.929 . S
H916 C924 0.929 . S
H917 C926 0.930 . S
H918 C928 0.930 . S
H919 C931 0.929 . S
H920 C934 0.930 . S
H921 C936 0.960 . S
H922 C936 0.960 . S
H923 C936 0.960 . S
C924 H916 0.929 . S
C924 C925 1.377 . S
C924 C926 1.384 . S
C925 C924 1.377 . S
C925 C931 1.390 . S
C926 H917 0.930 . S
C926 C924 1.384 . S
C926 C927 1.372 . S
C927 C926 1.372 . S
C927 C928 1.400 . S
C927 C932 1.490 . S
C928 H918 0.930 . S
C928 C927 1.400 . S
C928 C931 1.386 . S
H929 C945 0.930 . S
H930 C946 0.931 . S
C931 H919 0.929 . S
C931 C925 1.390 . S
C931 C928 1.386 . S
C932 C927 1.490 . S
C932 C934 1.395 . S
C932 C935 1.403 . S
H933 C939 0.930 . S
C934 H920 0.930 . S
C934 C932 1.395 . S
C934 C937 1.403 . S
C935 C932 1.403 . S
C935 C936 1.524 . S
C935 C939 1.400 . S
C936 H921 0.960 . S
C936 H922 0.960 . S
C936 H923 0.960 . S
C936 C935 1.524 . S
C937 C934 1.403 . S
C937 C938 1.392 . S
C937 C941 1.495 . S
C938 C937 1.392 . S
C938 C939 1.385 . S
C938 C940 1.478 . S
C939 H933 0.930 . S
C939 C935 1.400 . S
C939 C938 1.385 . S
C940 C938 1.478 . S
C940 C942 1.381 . S
C940 C946 1.383 . S
C941 C937 1.495 . S
C941 H947 0.959 . S
C941 H948 0.961 . S
C941 H949 0.960 . S
C942 C940 1.381 . S
C942 C943 1.394 . S
C942 H950 0.930 . S
C943 C942 1.394 . S
C943 C944 1.383 . S
C943 H951 0.929 . S
C944 C943 1.383 . S
C944 C945 1.377 . S
C945 H929 0.930 . S
C945 C944 1.377 . S
C945 C946 1.379 . S
C946 H930 0.931 . S
C946 C940 1.383 . S
C946 C945 1.379 . S
H947 C941 0.959 . S
H948 C941 0.961 . S
H949 C941 0.960 . S
H950 C942 0.930 . S
H951 C943 0.929 . S
H952 C960 0.929 . S
H953 C962 0.930 . S
H954 C964 0.930 . S
H955 C967 0.929 . S
H956 C970 0.930 . S
H957 C972 0.960 . S
H958 C972 0.960 . S
H959 C972 0.960 . S
C960 H952 0.929 . S
C960 C961 1.377 . S
C960 C962 1.384 . S
C961 C960 1.377 . S
C961 C967 1.390 . S
C962 H953 0.930 . S
C962 C960 1.384 . S
C962 C963 1.372 . S
C963 C962 1.372 . S
C963 C964 1.400 . S
C963 C968 1.490 . S
C964 H954 0.930 . S
C964 C963 1.400 . S
C964 C967 1.386 . S
H965 C981 0.930 . S
H966 C982 0.931 . S
C967 H955 0.929 . S
C967 C961 1.390 . S
C967 C964 1.386 . S
C968 C963 1.490 . S
C968 C970 1.395 . S
C968 C971 1.403 . S
H969 C975 0.930 . S
C970 H956 0.930 . S
C970 C968 1.395 . S
C970 C973 1.403 . S
C971 C968 1.403 . S
C971 C972 1.524 . S
C971 C975 1.400 . S
C972 H957 0.960 . S
C972 H958 0.960 . S
C972 H959 0.960 . S
C972 C971 1.524 . S
C973 C970 1.403 . S
C973 C974 1.392 . S
C973 C977 1.495 . S
C974 C973 1.392 . S
C974 C975 1.385 . S
C974 C976 1.478 . S
C975 H969 0.930 . S
C975 C971 1.400 . S
C975 C974 1.385 . S
C976 C974 1.478 . S
C976 C978 1.381 . S
C976 C982 1.383 . S
C977 C973 1.495 . S
C977 H983 0.959 . S
C977 H984 0.961 . S
C977 H985 0.960 . S
C978 C976 1.381 . S
C978 C979 1.394 . S
C978 H986 0.930 . S
C979 C978 1.394 . S
C979 C980 1.383 . S
C979 H987 0.929 . S
C980 C979 1.383 . S
C980 C981 1.377 . S
C981 H965 0.930 . S
C981 C980 1.377 . S
C981 C982 1.379 . S
C982 H966 0.931 . S
C982 C976 1.383 . S
C982 C981 1.379 . S
H983 C977 0.959 . S
H984 C977 0.961 . S
H985 C977 0.960 . S
H986 C978 0.930 . S
H987 C979 0.929 . S
H988 C996 0.929 . S
H989 C998 0.930 . S
H990 C1000 0.930 . S
H991 C1003 0.929 . S
H992 C1006 0.930 . S
H993 C1008 0.960 . S
H994 C1008 0.960 . S
H995 C1008 0.960 . S
C996 H988 0.929 . S
C996 C997 1.377 . S
C996 C998 1.384 . S
C997 C996 1.377 . S
C997 C1003 1.390 . S
C998 H989 0.930 . S
C998 C996 1.384 . S
C998 C999 1.372 . S
C999 C998 1.372 . S
C999 C1000 1.400 . S
C999 C1004 1.490 . S
C1000 H990 0.930 . S
C1000 C999 1.400 . S
C1000 C1003 1.386 . S
H1001 C1017 0.930 . S
H1002 C1018 0.931 . S
C1003 H991 0.929 . S
C1003 C997 1.390 . S
C1003 C1000 1.386 . S
C1004 C999 1.490 . S
C1004 C1006 1.395 . S
C1004 C1007 1.403 . S
H1005 C1011 0.930 . S
C1006 H992 0.930 . S
C1006 C1004 1.395 . S
C1006 C1009 1.403 . S
C1007 C1004 1.403 . S
C1007 C1008 1.524 . S
C1007 C1011 1.400 . S
C1008 H993 0.960 . S
C1008 H994 0.960 . S
C1008 H995 0.960 . S
C1008 C1007 1.524 . S
C1009 C1006 1.403 . S
C1009 C1010 1.392 . S
C1009 C1013 1.495 . S
C1010 C1009 1.392 . S
C1010 C1011 1.385 . S
C1010 C1012 1.478 . S
C1011 H1005 0.930 . S
C1011 C1007 1.400 . S
C1011 C1010 1.385 . S
C1012 C1010 1.478 . S
C1012 C1014 1.381 . S
C1012 C1018 1.383 . S
C1013 C1009 1.495 . S
C1013 H1019 0.959 . S
C1013 H1020 0.961 . S
C1013 H1021 0.960 . S
C1014 C1012 1.381 . S
C1014 C1015 1.394 . S
C1014 H1022 0.930 . S
C1015 C1014 1.394 . S
C1015 C1016 1.383 . S
C1015 H1023 0.929 . S
C1016 C1015 1.383 . S
C1016 C1017 1.377 . S
C1017 H1001 0.930 . S
C1017 C1016 1.377 . S
C1017 C1018 1.379 . S
C1018 H1002 0.931 . S
C1018 C1012 1.383 . S
C1018 C1017 1.379 . S
H1019 C1013 0.959 . S
H1020 C1013 0.961 . S
H1021 C1013 0.960 . S
H1022 C1014 0.930 . S
H1023 C1015 0.929 . S
H1024 C1032 0.929 . S
H1025 C1034 0.930 . S
H1026 C1036 0.930 . S
H1027 C1039 0.929 . S
H1028 C1042 0.930 . S
H1029 C1044 0.960 . S
H1030 C1044 0.960 . S
H1031 C1044 0.960 . S
C1032 H1024 0.929 . S
C1032 C1033 1.377 . S
C1032 C1034 1.384 . S
C1033 C1032 1.377 . S
C1033 C1039 1.390 . S
C1034 H1025 0.930 . S
C1034 C1032 1.384 . S
C1034 C1035 1.372 . S
C1035 C1034 1.372 . S
C1035 C1036 1.400 . S
C1035 C1040 1.490 . S
C1036 H1026 0.930 . S
C1036 C1035 1.400 . S
C1036 C1039 1.386 . S
H1037 C1053 0.930 . S
H1038 C1054 0.931 . S
C1039 H1027 0.929 . S
C1039 C1033 1.390 . S
C1039 C1036 1.386 . S
C1040 C1035 1.490 . S
C1040 C1042 1.395 . S
C1040 C1043 1.403 . S
H1041 C1047 0.930 . S
C1042 H1028 0.930 . S
C1042 C1040 1.395 . S
C1042 C1045 1.403 . S
C1043 C1040 1.403 . S
C1043 C1044 1.524 . S
C1043 C1047 1.400 . S
C1044 H1029 0.960 . S
C1044 H1030 0.960 . S
C1044 H1031 0.960 . S
C1044 C1043 1.524 . S
C1045 C1042 1.403 . S
C1045 C1046 1.392 . S
C1045 C1049 1.495 . S
C1046 C1045 1.392 . S
C1046 C1047 1.385 . S
C1046 C1048 1.478 . S
C1047 H1041 0.930 . S
C1047 C1043 1.400 . S
C1047 C1046 1.385 . S
C1048 C1046 1.478 . S
C1048 C1050 1.381 . S
C1048 C1054 1.383 . S
C1049 C1045 1.495 . S
C1049 H1055 0.959 . S
C1049 H1056 0.961 . S
C1049 H1057 0.960 . S
C1050 C1048 1.381 . S
C1050 C1051 1.394 . S
C1050 H1058 0.930 . S
C1051 C1050 1.394 . S
C1051 C1052 1.383 . S
C1051 H1059 0.929 . S
C1052 C1051 1.383 . S
C1052 C1053 1.377 . S
C1053 H1037 0.930 . S
C1053 C1052 1.377 . S
C1053 C1054 1.379 . S
C1054 H1038 0.931 . S
C1054 C1048 1.383 . S
C1054 C1053 1.379 . S
H1055 C1049 0.959 . S
H1056 C1049 0.961 . S
H1057 C1049 0.960 . S
H1058 C1050 0.930 . S
H1059 C1051 0.929 . S
H1060 C1068 0.929 . S
H1061 C1070 0.930 . S
H1062 C1072 0.930 . S
H1063 C1075 0.929 . S
H1064 C1078 0.930 . S
H1065 C1080 0.960 . S
H1066 C1080 0.960 . S
H1067 C1080 0.960 . S
C1068 H1060 0.929 . S
C1068 C1069 1.377 . S
C1068 C1070 1.384 . S
C1069 C1068 1.377 . S
C1069 C1075 1.390 . S
C1070 H1061 0.930 . S
C1070 C1068 1.384 . S
C1070 C1071 1.372 . S
C1071 C1070 1.372 . S
C1071 C1072 1.400 . S
C1071 C1076 1.490 . S
C1072 H1062 0.930 . S
C1072 C1071 1.400 . S
C1072 C1075 1.386 . S
H1073 C1089 0.930 . S
H1074 C1090 0.931 . S
C1075 H1063 0.929 . S
C1075 C1069 1.390 . S
C1075 C1072 1.386 . S
C1076 C1071 1.490 . S
C1076 C1078 1.395 . S
C1076 C1079 1.403 . S
H1077 C1083 0.930 . S
C1078 H1064 0.930 . S
C1078 C1076 1.395 . S
C1078 C1081 1.403 . S
C1079 C1076 1.403 . S
C1079 C1080 1.524 . S
C1079 C1083 1.400 . S
C1080 H1065 0.960 . S
C1080 H1066 0.960 . S
C1080 H1067 0.960 . S
C1080 C1079 1.524 . S
C1081 C1078 1.403 . S
C1081 C1082 1.392 . S
C1081 C1085 1.495 . S
C1082 C1081 1.392 . S
C1082 C1083 1.385 . S
C1082 C1084 1.478 . S
C1083 H1077 0.930 . S
C1083 C1079 1.400 . S
C1083 C1082 1.385 . S
C1084 C1082 1.478 . S
C1084 C1086 1.381 . S
C1084 C1090 1.383 . S
C1085 C1081 1.495 . S
C1085 H1091 0.959 . S
C1085 H1092 0.961 . S
C1085 H1093 0.960 . S
C1086 C1084 1.381 . S
C1086 C1087 1.394 . S
C1086 H1094 0.930 . S
C1087 C1086 1.394 . S
C1087 C1088 1.383 . S
C1087 H1095 0.929 . S
C1088 C1087 1.383 . S
C1088 C1089 1.377 . S
C1089 H1073 0.930 . S
C1089 C1088 1.377 . S
C1089 C1090 1.379 . S
C1090 H1074 0.931 . S
C1090 C1084 1.383 . S
C1090 C1089 1.379 . S
H1091 C1085 0.959 . S
H1092 C1085 0.961 . S
H1093 C1085 0.960 . S
H1094 C1086 0.930 . S
H1095 C1087 0.929 . S
H1096 C1104 0.929 . S
H1097 C1106 0.930 . S
H1098 C1108 0.930 . S
H1099 C1111 0.929 . S
H1100 C1114 0.930 . S
H1101 C1116 0.960 . S
H1102 C1116 0.960 . S
H1103 C1116 0.960 . S
C1104 H1096 0.929 . S
C1104 C1105 1.377 . S
C1104 C1106 1.384 . S
C1105 C1104 1.377 . S
C1105 C1111 1.390 . S
C1106 H1097 0.930 . S
C1106 C1104 1.384 . S
C1106 C1107 1.372 . S
C1107 C1106 1.372 . S
C1107 C1108 1.400 . S
C1107 C1112 1.490 . S
C1108 H1098 0.930 . S
C1108 C1107 1.400 . S
C1108 C1111 1.386 . S
H1109 C1125 0.930 . S
H1110 C1126 0.931 . S
C1111 H1099 0.929 . S
C1111 C1105 1.390 . S
C1111 C1108 1.386 . S
C1112 C1107 1.490 . S
C1112 C1114 1.395 . S
C1112 C1115 1.403 . S
H1113 C1119 0.930 . S
C1114 H1100 0.930 . S
C1114 C1112 1.395 . S
C1114 C1117 1.403 . S
C1115 C1112 1.403 . S
C1115 C1116 1.524 . S
C1115 C1119 1.400 . S
C1116 H1101 0.960 . S
C1116 H1102 0.960 . S
C1116 H1103 0.960 . S
C1116 C1115 1.524 . S
C1117 C1114 1.403 . S
C1117 C1118 1.392 . S
C1117 C1121 1.495 . S
C1118 C1117 1.392 . S
C1118 C1119 1.385 . S
C1118 C1120 1.478 . S
C1119 H1113 0.930 . S
C1119 C1115 1.400 . S
C1119 C1118 1.385 . S
C1120 C1118 1.478 . S
C1120 C1122 1.381 . S
C1120 C1126 1.383 . S
C1121 C1117 1.495 . S
C1121 H1127 0.959 . S
C1121 H1128 0.961 . S
C1121 H1129 0.960 . S
C1122 C1120 1.381 . S
C1122 C1123 1.394 . S
C1122 H1130 0.930 . S
C1123 C1122 1.394 . S
C1123 C1124 1.383 . S
C1123 H1131 0.929 . S
C1124 C1123 1.383 . S
C1124 C1125 1.377 . S
C1125 H1109 0.930 . S
C1125 C1124 1.377 . S
C1125 C1126 1.379 . S
C1126 H1110 0.931 . S
C1126 C1120 1.383 . S
C1126 C1125 1.379 . S
H1127 C1121 0.959 . S
H1128 C1121 0.961 . S
H1129 C1121 0.960 . S
H1130 C1122 0.930 . S
H1131 C1123 0.929 . S
H1132 C1140 0.929 . S
H1133 C1142 0.930 . S
H1134 C1144 0.930 . S
H1135 C1147 0.929 . S
H1136 C1150 0.930 . S
H1137 C1152 0.960 . S
H1138 C1152 0.960 . S
H1139 C1152 0.960 . S
C1140 H1132 0.929 . S
C1140 C1141 1.377 . S
C1140 C1142 1.384 . S
C1141 C1140 1.377 . S
C1141 C1147 1.390 . S
C1142 H1133 0.930 . S
C1142 C1140 1.384 . S
C1142 C1143 1.372 . S
C1143 C1142 1.372 . S
C1143 C1144 1.400 . S
C1143 C1148 1.490 . S
C1144 H1134 0.930 . S
C1144 C1143 1.400 . S
C1144 C1147 1.386 . S
H1145 C1161 0.930 . S
H1146 C1162 0.931 . S
C1147 H1135 0.929 . S
C1147 C1141 1.390 . S
C1147 C1144 1.386 . S
C1148 C1143 1.490 . S
C1148 C1150 1.395 . S
C1148 C1151 1.403 . S
H1149 C1155 0.930 . S
C1150 H1136 0.930 . S
C1150 C1148 1.395 . S
C1150 C1153 1.403 . S
C1151 C1148 1.403 . S
C1151 C1152 1.524 . S
C1151 C1155 1.400 . S
C1152 H1137 0.960 . S
C1152 H1138 0.960 . S
C1152 H1139 0.960 . S
C1152 C1151 1.524 . S
C1153 C1150 1.403 . S
C1153 C1154 1.392 . S
C1153 C1157 1.495 . S
C1154 C1153 1.392 . S
C1154 C1155 1.385 . S
C1154 C1156 1.478 . S
C1155 H1149 0.930 . S
C1155 C1151 1.400 . S
C1155 C1154 1.385 . S
C1156 C1154 1.478 . S
C1156 C1158 1.381 . S
C1156 C1162 1.383 . S
C1157 C1153 1.495 . S
C1157 H1163 0.959 . S
C1157 H1164 0.961 . S
C1157 H1165 0.960 . S
C1158 C1156 1.381 . S
C1158 C1159 1.394 . S
C1158 H1166 0.930 . S
C1159 C1158 1.394 . S
C1159 C1160 1.383 . S
C1159 H1167 0.929 . S
C1160 C1159 1.383 . S
C1160 C1161 1.377 . S
C1161 H1145 0.930 . S
C1161 C1160 1.377 . S
C1161 C1162 1.379 . S
C1162 H1146 0.931 . S
C1162 C1156 1.383 . S
C1162 C1161 1.379 . S
H1163 C1157 0.959 . S
H1164 C1157 0.961 . S
H1165 C1157 0.960 . S
H1166 C1158 0.930 . S
H1167 C1159 0.929 . S
H1168 C1176 0.929 . S
H1169 C1178 0.930 . S
H1170 C1180 0.930 . S
H1171 C1183 0.929 . S
H1172 C1186 0.930 . S
H1173 C1188 0.960 . S
H1174 C1188 0.960 . S
H1175 C1188 0.960 . S
C1176 H1168 0.929 . S
C1176 C1177 1.377 . S
C1176 C1178 1.384 . S
C1177 C1176 1.377 . S
C1177 C1183 1.390 . S
C1178 H1169 0.930 . S
C1178 C1176 1.384 . S
C1178 C1179 1.372 . S
C1179 C1178 1.372 . S
C1179 C1180 1.400 . S
C1179 C1184 1.490 . S
C1180 H1170 0.930 . S
C1180 C1179 1.400 . S
C1180 C1183 1.386 . S
H1181 C1197 0.930 . S
H1182 C1198 0.931 . S
C1183 H1171 0.929 . S
C1183 C1177 1.390 . S
C1183 C1180 1.386 . S
C1184 C1179 1.490 . S
C1184 C1186 1.395 . S
C1184 C1187 1.403 . S
H1185 C1191 0.930 . S
C1186 H1172 0.930 . S
C1186 C1184 1.395 . S
C1186 C1189 1.403 . S
C1187 C1184 1.403 . S
C1187 C1188 1.524 . S
C1187 C1191 1.400 . S
C1188 H1173 0.960 . S
C1188 H1174 0.960 . S
C1188 H1175 0.960 . S
C1188 C1187 1.524 . S
C1189 C1186 1.403 . S
C1189 C1190 1.392 . S
C1189 C1193 1.495 . S
C1190 C1189 1.392 . S
C1190 C1191 1.385 . S
C1190 C1192 1.478 . S
C1191 H1185 0.930 . S
C1191 C1187 1.400 . S
C1191 C1190 1.385 . S
C1192 C1190 1.478 . S
C1192 C1194 1.381 . S
C1192 C1198 1.383 . S
C1193 C1189 1.495 . S
C1193 H1199 0.959 . S
C1193 H1200 0.961 . S
C1193 H1201 0.960 . S
C1194 C1192 1.381 . S
C1194 C1195 1.394 . S
C1194 H1202 0.930 . S
C1195 C1194 1.394 . S
C1195 C1196 1.383 . S
C1195 H1203 0.929 . S
C1196 C1195 1.383 . S
C1196 C1197 1.377 . S
C1197 H1181 0.930 . S
C1197 C1196 1.377 . S
C1197 C1198 1.379 . S
C1198 H1182 0.931 . S
C1198 C1192 1.383 . S
C1198 C1197 1.379 . S
H1199 C1193 0.959 . S
H1200 C1193 0.961 . S
H1201 C1193 0.960 . S
H1202 C1194 0.930 . S
H1203 C1195 0.929 . S
C368 C268 1.504 . S
C349 C23 1.496 . S
C404 C271 1.503 . S
C385 C49 1.483 . S
C440 C269 1.504 . S
C421 C87 1.480 . S
C476 C270 1.511 . S
C457 C125 1.483 . S
C512 C285 1.509 . S
C493 C29 1.489 . S
C548 C299 1.504 . S
C529 C61 1.478 . S
C565 C81 1.471 . S
C584 C325 1.495 . S
C620 C339 1.507 . S
C601 C113 1.482 . S
C656 C284 1.487 . S
C637 C55 1.474 . S
C673 C93 1.481 . S
C692 C298 1.516 . S
C728 C324 1.498 . S
C709 C119 1.468 . S
C764 C338 1.514 . S
C745 C17 1.496 . S
C781 C151 1.475 . S
C800 C283 1.514 . S
C836 C256 1.493 . S
C817 C177 1.480 . S
C853 C215 1.492 . S
C872 C282 1.510 . S
C889 C253 1.490 . S
C908 C257 1.515 . S
C944 C312 1.510 . S
C925 C157 1.468 . S
C980 C326 1.494 . S
C961 C189 1.466 . S
C1016 C296 1.502 . S
C997 C209 1.488 . S
C1033 C241 1.481 . S
C1052 C310 1.508 . S
C1088 C313 1.492 . S
C1069 C183 1.461 . S
C1124 C327 1.515 . S
C1105 C221 1.486 . S
C1160 C297 1.499 . S
C1141 C247 1.479 . S
C1177 C145 1.487 . S
C1196 C311 1.513 . S
