# Generated by pormake.
# Topology csq, (4,8)-cn, num edge types: 1
# Building blocks:
#     Node 0, Type 0, BuildingBlock: NAWXER_clean_linker_0, # of connection points: 4
#     Node 1, Type 0, BuildingBlock: NAWXER_clean_linker_0, # of connection points: 4
#     Node 2, Type 0, BuildingBlock: NAWXER_clean_linker_0, # of connection points: 4
#     Node 3, Type 0, BuildingBlock: NAWXER_clean_linker_0, # of connection points: 4
#     Node 4, Type 0, BuildingBlock: NAWXER_clean_linker_0, # of connection points: 4
#     Node 5, Type 0, BuildingBlock: NAWXER_clean_linker_0, # of connection points: 4
#     Node 6, Type 1, BuildingBlock: TAGTUT_clean_sbu_1, # of connection points: 8
#     Node 7, Type 1, BuildingBlock: TAGTUT_clean_sbu_1, # of connection points: 8
#     Node 8, Type 1, BuildingBlock: TAGTUT_clean_sbu_1, # of connection points: 8
#     Edge 9, Type (0, 1), BuildingBlock: XUDNAN_clean_linker_2, # of connection points: 2
#     Edge 10, Type (0, 1), BuildingBlock: XUDNAN_clean_linker_2, # of connection points: 2
#     Edge 11, Type (0, 1), BuildingBlock: XUDNAN_clean_linker_2, # of connection points: 2
#     Edge 12, Type (0, 1), BuildingBlock: XUDNAN_clean_linker_2, # of connection points: 2
#     Edge 13, Type (0, 1), BuildingBlock: XUDNAN_clean_linker_2, # of connection points: 2
#     Edge 14, Type (0, 1), BuildingBlock: XUDNAN_clean_linker_2, # of connection points: 2
#     Edge 15, Type (0, 1), BuildingBlock: XUDNAN_clean_linker_2, # of connection points: 2
#     Edge 16, Type (0, 1), BuildingBlock: XUDNAN_clean_linker_2, # of connection points: 2
#     Edge 17, Type (0, 1), BuildingBlock: XUDNAN_clean_linker_2, # of connection points: 2
#     Edge 18, Type (0, 1), BuildingBlock: XUDNAN_clean_linker_2, # of connection points: 2
#     Edge 19, Type (0, 1), BuildingBlock: XUDNAN_clean_linker_2, # of connection points: 2
#     Edge 20, Type (0, 1), BuildingBlock: XUDNAN_clean_linker_2, # of connection points: 2
#     Edge 21, Type (0, 1), BuildingBlock: XUDNAN_clean_linker_2, # of connection points: 2
#     Edge 22, Type (0, 1), BuildingBlock: XUDNAN_clean_linker_2, # of connection points: 2
#     Edge 23, Type (0, 1), BuildingBlock: XUDNAN_clean_linker_2, # of connection points: 2
#     Edge 24, Type (0, 1), BuildingBlock: XUDNAN_clean_linker_2, # of connection points: 2
#     Edge 25, Type (0, 1), BuildingBlock: XUDNAN_clean_linker_2, # of connection points: 2
#     Edge 26, Type (0, 1), BuildingBlock: XUDNAN_clean_linker_2, # of connection points: 2
#     Edge 27, Type (0, 1), BuildingBlock: XUDNAN_clean_linker_2, # of connection points: 2
#     Edge 28, Type (0, 1), BuildingBlock: XUDNAN_clean_linker_2, # of connection points: 2
#     Edge 29, Type (0, 1), BuildingBlock: XUDNAN_clean_linker_2, # of connection points: 2
#     Edge 30, Type (0, 1), BuildingBlock: XUDNAN_clean_linker_2, # of connection points: 2
#     Edge 31, Type (0, 1), BuildingBlock: XUDNAN_clean_linker_2, # of connection points: 2
#     Edge 32, Type (0, 1), BuildingBlock: XUDNAN_clean_linker_2, # of connection points: 2
# Relax obj value: 0.031
# Max RMSD: 0.126
# Mean RMSD: 0.041
data_MOF--net-csq--node1-TAGTUT_clean_sbu_1--node2-NAWXER_clean_linker_0--edge1-XUDNAN_clean_linker_2
_symmetry_space_group_name_H-M    P1
_symmetry_Int_Tables_number       1
_symmetry_cell_setting            triclinic
loop_
_symmetry_equiv_pos_as_xyz
'x, y, z'
_cell_length_a     61.533291
_cell_length_b     60.66692
_cell_length_c     22.404886
_cell_angle_alpha  92.804772
_cell_angle_beta   92.036123
_cell_angle_gamma 119.93671
loop_
_atom_site_label
_atom_site_type_symbol
_atom_site_fract_x
_atom_site_fract_y
_atom_site_fract_z
_atom_type_partial_charge
C0 C 0.34667 0.53545 0.07268 0.0
C1 C 0.34062 0.51825 0.02181 0.0
C2 C 0.3281 0.53324 0.11041 0.0
C3 C 0.30313 0.51321 0.09962 0.0
C4 C 0.31556 0.49831 0.01119 0.0
C5 C 0.29721 0.49576 0.04968 0.0
C6 C 0.28233 0.51166 0.13469 0.0
C7 C 0.33565 0.51301 0.2822 0.0
C8 C 0.34208 0.53155 0.33023 0.0
C9 C 0.31737 0.50887 0.2373 0.0
C10 C 0.30568 0.52368 0.2387 0.0
C11 C 0.33047 0.54645 0.33101 0.0
C12 C 0.31257 0.5426 0.2857 0.0
C13 C 0.28397 0.5176 0.19697 0.0
C14 C 0.17874 0.49526 0.25259 0.0
C15 C 0.18687 0.51274 0.30389 0.0
C16 C 0.1961 0.49405 0.21527 0.0
C17 C 0.22203 0.51129 0.22598 0.0
C18 C 0.21301 0.52905 0.31537 0.0
C19 C 0.23003 0.52875 0.27659 0.0
C20 C 0.24178 0.51042 0.19054 0.0
C21 C 0.18739 0.50467 0.03636 0.0
C22 C 0.18202 0.48552 0.99037 0.0
C23 C 0.2056 0.51036 0.08302 0.0
C24 C 0.21789 0.49618 0.08623 0.0
C25 C 0.19451 0.47148 0.9943 0.0
C26 C 0.21181 0.47648 0.04191 0.0
C27 C 0.23993 0.5038 0.1283 0.0
H28 H 0.36573 0.55088 0.08328 0.0
H29 H 0.33326 0.54768 0.1469 0.0
H30 H 0.30975 0.48498 0.97206 0.0
H31 H 0.27808 0.48032 0.03939 0.0
H32 H 0.3445 0.50144 0.27956 0.0
H33 H 0.31189 0.49362 0.20264 0.0
H34 H 0.33457 0.56058 0.36761 0.0
H35 H 0.30355 0.55403 0.2883 0.0
H36 H 0.15904 0.4822 0.2408 0.0
H37 H 0.18907 0.47929 0.17895 0.0
H38 H 0.22095 0.54198 0.35507 0.0
H39 H 0.24984 0.54207 0.28749 0.0
H40 H 0.17796 0.51568 0.03607 0.0
H41 H 0.21052 0.52624 0.11544 0.0
H42 H 0.19183 0.45718 0.95953 0.0
H43 H 0.22136 0.46553 0.04261 0.0
N44 N 0.26028 0.50484 0.10363 0.0
N45 N 0.26377 0.51683 0.22158 0.0
C46 C 0.69536 0.16819 0.21787 0.0
C47 C 0.70098 0.15824 0.26782 0.0
C48 C 0.71362 0.18128 0.17751 0.0
C49 C 0.73783 0.18471 0.18662 0.0
C50 C 0.72486 0.16066 0.27507 0.0
C51 C 0.74317 0.17401 0.2352 0.0
C52 C 0.75873 0.20274 0.15242 0.0
C53 C 0.70858 0.13831 0.0089 0.0
C54 C 0.7018 0.14737 0.95889 0.0
C55 C 0.72654 0.15546 0.05338 0.0
C56 C 0.73778 0.18185 0.04847 0.0
C57 C 0.71262 0.17379 0.95542 0.0
C58 C 0.73044 0.19077 0.99948 0.0
C59 C 0.75907 0.20072 0.08929 0.0
C60 C 0.8667 0.28378 0.06218 0.0
C61 C 0.86333 0.29444 0.01089 0.0
C62 C 0.84601 0.26459 0.08786 0.0
C63 C 0.82151 0.25605 0.06342 0.0
C64 C 0.83892 0.28472 0.98422 0.0
C65 C 0.81817 0.26562 0.01024 0.0
C66 C 0.79944 0.23829 0.09513 0.0
C67 C 0.83714 0.31266 0.19914 0.0
C68 C 0.85012 0.31342 0.25274 0.0
C69 C 0.81958 0.28939 0.16942 0.0
C70 C 0.81505 0.26632 0.19169 0.0
C71 C 0.84467 0.29024 0.27651 0.0
C72 C 0.82721 0.26687 0.24625 0.0
C73 C 0.79779 0.24188 0.15707 0.0
H74 H 0.67703 0.16644 0.21093 0.0
H75 H 0.70922 0.18981 0.14109 0.0
H76 H 0.72982 0.15341 0.31331 0.0
H77 H 0.76185 0.17676 0.24351 0.0
H78 H 0.70057 0.11803 0.01274 0.0
H79 H 0.73226 0.14814 0.09019 0.0
H80 H 0.70735 0.18143 0.91848 0.0
H81 H 0.73882 0.21106 0.99483 0.0
H82 H 0.88534 0.29054 0.08293 0.0
H83 H 0.84911 0.25695 0.12792 0.0
H84 H 0.83576 0.29263 0.94474 0.0
H85 H 0.79946 0.25918 0.99039 0.0
H86 H 0.8409 0.33004 0.17931 0.0
H87 H 0.80984 0.28943 0.12822 0.0
H88 H 0.8539 0.29015 0.31847 0.0
H89 H 0.82365 0.24928 0.26466 0.0
N90 N 0.77795 0.22359 0.1838 0.0
N91 N 0.77972 0.2183 0.06337 0.0
C92 C 0.57178 0.71228 0.01397 0.0
C93 C 0.55606 0.69369 0.96846 0.0
C94 C 0.56775 0.73227 0.03147 0.0
C95 C 0.54742 0.73366 0.00531 0.0
C96 C 0.53649 0.69594 0.94022 0.0
C97 C 0.53219 0.71567 0.95861 0.0
C98 C 0.54165 0.75347 0.02713 0.0
C99 C 0.52904 0.70309 0.17869 0.0
C100 C 0.5502 0.71449 0.22009 0.0
C101 C 0.52559 0.71743 0.13631 0.0
C102 C 0.54296 0.74351 0.13517 0.0
C103 C 0.56746 0.74078 0.21857 0.0
C104 C 0.56363 0.75519 0.1772 0.0
C105 C 0.54014 0.75846 0.08869 0.0
C106 C 0.5026 0.82535 0.1456 0.0
C107 C 0.51808 0.85066 0.13118 0.0
C108 C 0.50706 0.80607 0.12419 0.0
C109 C 0.52691 0.81173 0.08765 0.0
C110 C 0.53779 0.85621 0.09396 0.0
C111 C 0.54229 0.83693 0.07279 0.0
C112 C 0.5316 0.79127 0.06551 0.0
C113 C 0.54066 0.83464 0.89656 0.0
C114 C 0.51673 0.83246 0.89418 0.0
C115 C 0.54516 0.81781 0.92808 0.0
C116 C 0.52596 0.79886 0.95853 0.0
C117 C 0.4971 0.81207 0.92092 0.0
C118 C 0.50173 0.79557 0.95317 0.0
C119 C 0.53199 0.78559 0.00393 0.0
H120 H 0.58705 0.71127 0.03672 0.0
H121 H 0.58044 0.74651 0.06594 0.0
H122 H 0.5245 0.68253 0.90358 0.0
H123 H 0.51665 0.71661 0.93706 0.0
H124 H 0.51499 0.68313 0.17906 0.0
H125 H 0.5094 0.70817 0.10431 0.0
H126 H 0.58429 0.75026 0.24849 0.0
H127 H 0.57731 0.7753 0.17656 0.0
H128 H 0.48721 0.82052 0.17407 0.0
H129 H 0.49498 0.78673 0.13604 0.0
H130 H 0.55034 0.87561 0.08319 0.0
H131 H 0.55813 0.84182 0.04588 0.0
H132 H 0.5563 0.85018 0.87701 0.0
H133 H 0.56404 0.82077 0.93238 0.0
H134 H 0.47828 0.80929 0.9186 0.0
H135 H 0.48668 0.78098 0.97644 0.0
N136 N 0.53717 0.76701 0.98663 0.0
N137 N 0.53541 0.77733 0.10579 0.0
C138 C 0.84137 0.51373 0.99097 0.0
C139 C 0.83249 0.50012 0.93407 0.0
C140 C 0.8251 0.51667 0.02887 0.0
C141 C 0.7992 0.50491 0.01251 0.0
C142 C 0.80665 0.48914 0.91761 0.0
C143 C 0.79037 0.49099 0.95643 0.0
C144 C 0.78099 0.50859 0.04831 0.0
C145 C 0.81926 0.48947 0.20015 0.0
C146 C 0.82904 0.50775 0.24961 0.0
C147 C 0.80507 0.49161 0.15294 0.0
C148 C 0.80092 0.51235 0.15381 0.0
C149 C 0.82528 0.52877 0.24937 0.0
C150 C 0.81143 0.53103 0.202 0.0
C151 C 0.78221 0.51267 0.11149 0.0
C152 C 0.68008 0.49714 0.16032 0.0
C153 C 0.68693 0.51194 0.21544 0.0
C154 C 0.69839 0.49843 0.123 0.0
C155 C 0.72408 0.51517 0.13879 0.0
C156 C 0.71263 0.52897 0.23068 0.0
C157 C 0.73089 0.53057 0.19284 0.0
C158 C 0.74405 0.51435 0.1046 0.0
C159 C 0.70445 0.53121 0.95091 0.0
C160 C 0.69145 0.51011 0.90875 0.0
C161 C 0.72028 0.53093 0.99689 0.0
C162 C 0.72348 0.50971 1.0005 0.0
C163 C 0.69411 0.48862 0.91376 0.0
C164 C 0.71025 0.48856 0.95883 0.0
C165 C 0.74301 0.51057 0.04179 0.0
H166 H 0.86091 0.52245 0.00669 0.0
H167 H 0.83312 0.52868 0.07001 0.0
H168 H 0.79859 0.47947 0.87396 0.0
H169 H 0.77067 0.48189 0.94131 0.0
H170 H 0.82213 0.47324 0.19839 0.0
H171 H 0.79658 0.47659 0.11705 0.0
H172 H 0.83211 0.543 0.28694 0.0
H173 H 0.80805 0.54695 0.20415 0.0
H174 H 0.66053 0.48408 0.14629 0.0
H175 H 0.69228 0.4854 0.08329 0.0
H176 H 0.71884 0.54042 0.27298 0.0
H177 H 0.75052 0.5434 0.20685 0.0
H178 H 0.70247 0.5479 0.94799 0.0
H179 H 0.73071 0.54759 0.02811 0.0
H180 H 0.6843 0.47219 0.88164 0.0
H181 H 0.71278 0.47215 0.96061 0.0
N182 N 0.76136 0.50788 0.01672 0.0
N183 N 0.76377 0.51542 0.13651 0.0
C184 C 0.27274 0.83738 0.96141 0.0
C185 C 0.29842 0.84532 0.95734 0.0
C186 C 0.25888 0.82127 0.00487 0.0
C187 C 0.26999 0.81207 0.04467 0.0
C188 C 0.30946 0.83595 0.99774 0.0
C189 C 0.29521 0.81897 0.0397 0.0
C190 C 0.25381 0.79269 0.08495 0.0
C191 C 0.31185 0.85012 0.23004 0.0
C192 C 0.30233 0.86213 0.26725 0.0
C193 C 0.29589 0.83026 0.18795 0.0
C194 C 0.27033 0.82272 0.18065 0.0
C195 C 0.27685 0.85484 0.25982 0.0
C196 C 0.261 0.83538 0.21658 0.0
C197 C 0.25243 0.7985 0.14625 0.0
C198 C 0.17167 0.69982 0.22986 0.0
C199 C 0.15326 0.70602 0.24559 0.0
C200 C 0.19232 0.71665 0.19936 0.0
C201 C 0.19524 0.7402 0.18526 0.0
C202 C 0.15637 0.72968 0.23051 0.0
C203 C 0.17734 0.74673 0.2017 0.0
C204 C 0.21607 0.75758 0.15026 0.0
C205 C 0.15455 0.69803 0.02656 0.0
C206 C 0.16092 0.6807 1.00019 0.0
C207 C 0.17311 0.72129 0.05432 0.0
C208 C 0.19836 0.72749 0.05751 0.0
C209 C 0.18633 0.68718 0.00242 0.0
C210 C 0.20493 0.71047 0.03075 0.0
C211 C 0.21769 0.75154 0.0898 0.0
H212 H 0.26292 0.84302 0.93026 0.0
H213 H 0.23914 0.81539 0.00636 0.0
H214 H 0.32909 0.84148 0.99717 0.0
H215 H 0.30382 0.81084 0.06711 0.0
H216 H 0.33136 0.85507 0.23603 0.0
H217 H 0.30323 0.81967 0.16463 0.0
H218 H 0.26913 0.8638 0.28831 0.0
H219 H 0.24118 0.8294 0.21298 0.0
H220 H 0.17036 0.68212 0.24149 0.0
H221 H 0.20603 0.71134 0.18684 0.0
H222 H 0.14242 0.73502 0.23998 0.0
H223 H 0.17915 0.7647 0.19027 0.0
H224 H 0.13517 0.6936 0.02601 0.0
H225 H 0.16772 0.73444 0.07357 0.0
H226 H 0.19188 0.67443 0.98154 0.0
H227 H 0.22438 0.71507 0.03243 0.0
N228 N 0.23631 0.76935 0.05908 0.0
N229 N 0.23343 0.78076 0.17624 0.0
C230 C 0.50542 0.18291 0.14838 0.0
C231 C 0.49188 0.16907 0.09466 0.0
C232 C 0.50416 0.20419 0.17022 0.0
C233 C 0.48848 0.21139 0.14022 0.0
C234 C 0.47773 0.1776 0.06258 0.0
C235 C 0.4759 0.19836 0.08535 0.0
C236 C 0.48463 0.23214 0.16552 0.0
C237 C 0.45971 0.17035 0.2837 0.0
C238 C 0.47728 0.17683 0.33246 0.0
C239 C 0.45915 0.18938 0.25238 0.0
C240 C 0.4767 0.21519 0.26813 0.0
C241 C 0.49317 0.20266 0.35193 0.0
C242 C 0.49291 0.22179 0.3198 0.0
C243 C 0.48011 0.23466 0.22634 0.0
C244 C 0.45014 0.31526 0.22223 0.0
C245 C 0.46595 0.33296 0.2691 0.0
C246 C 0.45315 0.29471 0.20368 0.0
C247 C 0.47246 0.29179 0.23041 0.0
C248 C 0.48455 0.32926 0.2976 0.0
C249 C 0.48776 0.30886 0.27838 0.0
C250 C 0.47715 0.2714 0.20735 0.0
C251 C 0.49474 0.32543 0.0598 0.0
C252 C 0.47445 0.3147 0.01588 0.0
C253 C 0.49696 0.3104 0.10233 0.0
C254 C 0.47923 0.28432 0.101 0.0
C255 C 0.45668 0.28848 0.0155 0.0
C256 C 0.45932 0.27342 0.0569 0.0
C257 C 0.48066 0.26821 0.14631 0.0
H258 H 0.51661 0.17708 0.17433 0.0
H259 H 0.51502 0.21462 0.2113 0.0
H260 H 0.46789 0.16823 0.01977 0.0
H261 H 0.46414 0.20387 0.06056 0.0
H262 H 0.44704 0.15054 0.26849 0.0
H263 H 0.44612 0.1839 0.21333 0.0
H264 H 0.5068 0.20803 0.38965 0.0
H265 H 0.50645 0.2416 0.3329 0.0
H266 H 0.43564 0.31745 0.19918 0.0
H267 H 0.44053 0.28127 0.16784 0.0
H268 H 0.4966 0.34204 0.33503 0.0
H269 H 0.50253 0.30672 0.30018 0.0
H270 H 0.50906 0.34537 0.06115 0.0
H271 H 0.51254 0.31906 0.1361 0.0
H272 H 0.44039 0.27951 0.98385 0.0
H273 H 0.44531 0.25334 0.05571 0.0
N274 N 0.48427 0.24876 0.12768 0.0
N275 N 0.47703 0.25451 0.24543 0.0
C276 C 0.9834 0.43134 0.77979 0.0
C277 C 0.05546 0.47448 0.70535 0.0
C278 C 0.03461 0.55089 0.7126 0.0
Mg279 Mg 0.001 0.44405 0.6514 0.0
O280 O 0.99749 0.47227 0.67242 0.0
Mg281 Mg 0.01482 0.49344 0.74912 0.0
Mg282 Mg 0.007 0.50022 0.61844 0.0
O283 O 0.01603 0.52841 0.56545 0.0
Mg284 Mg 0.00726 0.55279 0.59105 0.0
Mg285 Mg -0.00075 0.50748 0.48808 0.0
C286 C 0.97761 0.44844 0.52601 0.0
C287 C 0.04705 0.50093 0.52524 0.0
O288 O 0.99486 0.45539 0.79559 0.0
O289 O 0.9824 0.42258 0.72584 0.0
O290 O 0.04884 0.48787 0.73746 0.0
O291 O 0.04036 0.45719 0.66569 0.0
O292 O 0.98281 0.43515 0.56067 0.0
O293 O 0.98331 0.47144 0.54176 0.0
C294 C 0.9679 0.5014 0.71209 0.0
O295 O 0.97334 0.50199 0.6571 0.0
O296 O 0.98082 0.4987 0.75419 0.0
O297 O 0.01812 0.5472 0.44496 0.0
O298 O 0.02334 0.57632 0.51914 0.0
O299 O 0.96354 0.50947 0.50017 0.0
C300 C 0.02564 0.57038 0.46499 0.0
O301 O 0.96709 0.53613 0.57722 0.0
O302 O 0.02665 0.56286 0.68076 0.0
C303 C 0.9541 0.51938 0.53454 0.0
O304 O 0.0311 0.52888 0.69463 0.0
O305 O 0.04082 0.49881 0.57976 0.0
O306 O 0.03453 0.50437 0.48347 0.0
C307 C 0.47707 0.03257 0.82796 0.0
C308 C 0.42745 0.96567 0.71437 0.0
C309 C 0.51306 0.96481 0.66435 0.0
Mg310 Mg 0.46152 0.02217 0.69148 0.0
O311 O 0.48952 0.0178 0.6928 0.0
Mg312 Mg 0.49039 0.99292 0.74733 0.0
Mg313 Mg 0.49917 0.00695 0.618 0.0
O314 O 0.50948 0.99643 0.54411 0.0
Mg315 Mg 0.53891 0.99434 0.54882 0.0
Mg316 Mg 0.50815 0.02053 0.48828 0.0
C317 C 0.48624 0.05035 0.57338 0.0
C318 C 0.4511 0.98073 0.51939 0.0
O319 O 0.48531 0.01683 0.82418 0.0
O320 O 0.46768 0.03783 0.78256 0.0
O321 O 0.44717 0.96614 0.73643 0.0
O322 O 0.4287 0.98469 0.68916 0.0
O323 O 0.471 0.04614 0.61503 0.0
O324 O 0.49994 0.03982 0.57043 0.0
C325 C 0.54752 0.03235 0.7158 0.0
O326 O 0.54008 0.03131 0.66083 0.0
O327 O 0.53217 0.01961 0.75447 0.0
O328 O 0.51459 0.99637 0.41283 0.0
O329 O 0.532 0.9765 0.46088 0.0
O330 O 0.5505 0.04843 0.50013 0.0
C331 C 0.52261 0.98039 0.41335 0.0
O332 O 0.57153 0.03222 0.54613 0.0
O333 O 0.52985 0.97084 0.62586 0.0
C334 C 0.57101 0.05051 0.52137 0.0
O335 O 0.49806 0.97384 0.66462 0.0
O336 O 0.45814 0.98238 0.57497 0.0
O337 O 0.46675 0.9931 0.48093 0.0
C338 C 0.55565 0.58736 0.46748 0.0
C339 C 0.57392 0.52745 0.4907 0.0
C340 C 0.47522 0.46807 0.5214 0.0
Mg341 Mg 0.56677 0.56413 0.5771 0.0
O342 O 0.53168 0.5434 0.56558 0.0
Mg343 Mg 0.5173 0.52448 0.48525 0.0
Mg344 Mg 0.5136 0.51504 0.61779 0.0
O345 O 0.49533 0.48659 0.66971 0.0
Mg346 Mg 0.46022 0.46598 0.65786 0.0
Mg347 Mg 0.50939 0.50538 0.75001 0.0
C348 C 0.55178 0.56195 0.71382 0.0
C349 C 0.5541 0.50316 0.68232 0.0
O350 O 0.53794 0.56497 0.44739 0.0
O351 O 0.56858 0.59131 0.51704 0.0
O352 O 0.55143 0.51934 0.46948 0.0
O353 O 0.58393 0.54425 0.53493 0.0
O354 O 0.56822 0.57198 0.67471 0.0
O355 O 0.52972 0.54271 0.70019 0.0
C356 C 0.47305 0.52698 0.55428 0.0
O357 O 0.48025 0.52168 0.60314 0.0
O358 O 0.48398 0.52902 0.50568 0.0
O359 O 0.48861 0.46498 0.78786 0.0
O360 O 0.45815 0.43868 0.71785 0.0
O361 O 0.47528 0.51068 0.76533 0.0
C362 C 0.47097 0.4426 0.76758 0.0
O363 O 0.44295 0.48585 0.69933 0.0
O364 O 0.45875 0.45811 0.56045 0.0
C365 C 0.45285 0.50259 0.74369 0.0
O366 O 0.49732 0.48724 0.53515 0.0
O367 O 0.54737 0.50898 0.63349 0.0
O368 O 0.5425 0.50052 0.73008 0.0
H369 H 0.13589 0.47682 0.31589 0.0
H370 H 0.19509 0.55235 0.38741 0.0
H371 H 0.16751 0.55298 0.46125 0.0
H372 H 0.08893 0.49511 0.32132 0.0
H373 H 0.06428 0.46392 0.33733 0.0
H374 H 0.09 0.46705 0.29558 0.0
H375 H 0.09915 0.44174 0.37275 0.0
H376 H 0.07368 0.43895 0.4153 0.0
H377 H 0.1049 0.45281 0.45097 0.0
H378 H 0.13391 0.54598 0.52974 0.0
H379 H 0.09354 0.5365 0.5706 0.0
H380 H 0.05398 0.47035 0.44356 0.0
C381 C 0.14344 0.49367 0.34646 0.0
C382 C 0.16876 0.51388 0.34618 0.0
C383 C 0.17677 0.53554 0.38765 0.0
C384 C 0.161 0.53637 0.4301 0.0
C385 C 0.13667 0.51593 0.42975 0.0
C386 C 0.12758 0.49542 0.38766 0.0
C387 C 0.09957 0.47772 0.39181 0.0
C388 C 0.08483 0.47586 0.33303 0.0
C389 C 0.09401 0.45123 0.40872 0.0
C390 C 0.09446 0.49171 0.44248 0.0
C391 C 0.11635 0.51324 0.46506 0.0
C392 C 0.1166 0.52922 0.51233 0.0
C393 C 0.09369 0.52361 0.53559 0.0
C394 C 0.0709 0.50267 0.51039 0.0
C395 C 0.0713 0.48631 0.46389 0.0
H396 H 0.68696 0.11378 0.32251 0.0
H397 H 0.67394 0.17772 0.31896 0.0
H398 H 0.64398 0.15996 0.39753 0.0
H399 H 0.62406 0.06712 0.337 0.0
H400 H 0.63122 0.04844 0.38563 0.0
H401 H 0.65357 0.06767 0.33402 0.0
H402 H 0.68739 0.09041 0.42233 0.0
H403 H 0.66491 0.07145 0.47434 0.0
H404 H 0.6812 0.10578 0.48499 0.0
H405 H 0.61313 0.13393 0.46957 0.0
H406 H 0.58025 0.09918 0.52228 0.0
H407 H 0.61314 0.05201 0.48135 0.0
C408 C 0.67805 0.1242 0.33899 0.0
C409 C 0.68277 0.14714 0.31465 0.0
C410 C 0.67041 0.15999 0.33652 0.0
C411 C 0.65361 0.15021 0.38167 0.0
C412 C 0.64936 0.12758 0.40473 0.0
C413 C 0.66105 0.11459 0.38387 0.0
C414 C 0.6514 0.08947 0.41236 0.0
C415 C 0.63934 0.06685 0.36441 0.0
C416 C 0.67249 0.08928 0.45079 0.0
C417 C 0.63192 0.09001 0.45113 0.0
C418 C 0.63143 0.11243 0.44685 0.0
C419 C 0.61361 0.1165 0.47417 0.0
C420 C 0.59509 0.09672 0.50427 0.0
C421 C 0.5945 0.07317 0.50688 0.0
C422 C 0.61372 0.07016 0.48191 0.0
H423 H 0.53693 0.66348 0.20762 0.0
H424 H 0.57232 0.73036 0.33479 0.0
H425 H 0.58037 0.70573 0.40712 0.0
H426 H 0.50442 0.61953 0.31824 0.0
H427 H 0.50747 0.59402 0.28257 0.0
H428 H 0.50633 0.61743 0.23823 0.0
H429 H 0.54861 0.62746 0.19544 0.0
H430 H 0.54999 0.60421 0.24006 0.0
H431 H 0.57568 0.63669 0.24613 0.0
H432 H 0.58477 0.67442 0.46585 0.0
H433 H 0.58108 0.63701 0.51248 0.0
H434 H 0.53918 0.58893 0.35199 0.0
C435 C 0.54617 0.67303 0.25075 0.0
C436 C 0.55434 0.69918 0.26459 0.0
C437 C 0.56656 0.71069 0.32179 0.0
C438 C 0.57109 0.69679 0.36359 0.0
C439 C 0.56294 0.67123 0.3482 0.0
C440 C 0.55038 0.65929 0.29364 0.0
C441 C 0.5422 0.63113 0.29006 0.0
C442 C 0.51339 0.61456 0.28181 0.0
C443 C 0.55488 0.62449 0.23995 0.0
C444 C 0.55204 0.62915 0.35138 0.0
C445 C 0.5643 0.65264 0.38362 0.0
C446 C 0.57516 0.65589 0.44119 0.0
C447 C 0.57303 0.63446 0.46716 0.0
C448 C 0.5598 0.60993 0.43599 0.0
C449 C 0.54938 0.60737 0.37701 0.0
H450 H 0.86974 0.54513 0.31914 0.0
H451 H 0.81851 0.46325 0.2997 0.0
H452 H 0.84125 0.45815 0.38585 0.0
H453 H 0.92379 0.54391 0.35292 0.0
H454 H 0.93742 0.57114 0.40702 0.0
H455 H 0.9153 0.56829 0.34841 0.0
H456 H 0.88764 0.57228 0.42813 0.0
H457 H 0.90963 0.57478 0.48715 0.0
H458 H 0.87698 0.5505 0.48647 0.0
H459 H 0.87298 0.46132 0.46316 0.0
H460 H 0.91215 0.47269 0.52319 0.0
H461 H 0.94015 0.55258 0.49981 0.0
C462 C 0.86281 0.52616 0.33385 0.0
C463 C 0.84232 0.5046 0.30236 0.0
C464 C 0.83441 0.48006 0.32229 0.0
C465 C 0.84695 0.477 0.37184 0.0
C466 C 0.86705 0.49868 0.40177 0.0
C467 C 0.87484 0.52281 0.3837 0.0
C468 C 0.89823 0.5428 0.4202 0.0
C469 C 0.91995 0.55736 0.37973 0.0
C470 C 0.89278 0.56117 0.45772 0.0
C471 C 0.90316 0.52601 0.45965 0.0
C472 C 0.88473 0.50062 0.44896 0.0
C473 C 0.88706 0.48116 0.47357 0.0
C474 C 0.90924 0.48774 0.50781 0.0
C475 C 0.92851 0.51351 0.51755 0.0
C476 C 0.92503 0.5329 0.49529 0.0
H477 H 0.34647 0.90567 0.25704 0.0
H478 H 0.29576 0.85996 0.38726 0.0
H479 H 0.32689 0.88797 0.46973 0.0
H480 H 0.40099 0.91492 0.32731 0.0
H481 H 0.42049 0.94735 0.3085 0.0
H482 H 0.39292 0.92587 0.26124 0.0
H483 H 0.37602 0.95729 0.27292 0.0
H484 H 0.40372 0.97903 0.31994 0.0
H485 H 0.373 0.96817 0.34682 0.0
H486 H 0.36682 0.91791 0.53694 0.0
H487 H 0.40999 0.94816 0.58104 0.0
H488 H 0.43229 0.97437 0.40458 0.0
C489 C 0.34173 0.90202 0.303 0.0
C490 C 0.31886 0.88091 0.3162 0.0
C491 C 0.3132 0.87636 0.37663 0.0
C492 C 0.33076 0.89209 0.42359 0.0
C493 C 0.35359 0.91247 0.40905 0.0
C494 C 0.35881 0.91768 0.35007 0.0
C495 C 0.38505 0.93967 0.34557 0.0
C496 C 0.40077 0.93144 0.3085 0.0
C497 C 0.3844 0.96239 0.31981 0.0
C498 C 0.3942 0.94541 0.41091 0.0
C499 C 0.37593 0.92977 0.44727 0.0
C500 C 0.38111 0.9306 0.50891 0.0
C501 C 0.40567 0.94777 0.53361 0.0
C502 C 0.42459 0.96374 0.49651 0.0
C503 C 0.41839 0.96264 0.43467 0.0
H504 H 0.50279 0.3817 0.30775 0.0
H505 H 0.42182 0.33361 0.27768 0.0
H506 H 0.41644 0.36877 0.31897 0.0
H507 H 0.50101 0.40452 0.44647 0.0
H508 H 0.52714 0.43632 0.44365 0.0
H509 H 0.52572 0.41058 0.39747 0.0
H510 H 0.52915 0.43412 0.30268 0.0
H511 H 0.53061 0.46054 0.3468 0.0
H512 H 0.507 0.44456 0.2858 0.0
H513 H 0.41907 0.4053 0.37974 0.0
H514 H 0.42945 0.43883 0.46058 0.0
H515 H 0.50857 0.46344 0.45313 0.0
C516 C 0.48392 0.37866 0.30884 0.0
C517 C 0.46276 0.35486 0.28901 0.0
C518 C 0.43841 0.35177 0.29132 0.0
C519 C 0.43514 0.37169 0.3147 0.0
C520 C 0.45639 0.39469 0.33529 0.0
C521 C 0.48033 0.39828 0.33249 0.0
C522 C 0.49974 0.42316 0.36587 0.0
C523 C 0.51424 0.41836 0.41631 0.0
C524 C 0.51769 0.44169 0.32271 0.0
C525 C 0.48284 0.4324 0.39053 0.0
C526 C 0.45794 0.41601 0.37113 0.0
C527 C 0.43853 0.41865 0.39403 0.0
C528 C 0.44458 0.43774 0.43992 0.0
C529 C 0.46981 0.45385 0.46244 0.0
C530 C 0.48922 0.4519 0.43539 0.0
H531 H 0.53762 0.85887 0.7953 0.0
H532 H 0.48702 0.85147 0.93332 0.0
H533 H 0.4805 0.88444 0.8901 0.0
H534 H 0.56743 0.92739 0.7961 0.0
H535 H 0.57081 0.92762 0.71651 0.0
H536 H 0.57074 0.90265 0.75698 0.0
H537 H 0.53396 0.86859 0.68528 0.0
H538 H 0.53395 0.89344 0.64454 0.0
H539 H 0.50553 0.87009 0.67531 0.0
H540 H 0.47873 0.91775 0.8301 0.0
H541 H 0.48313 0.94966 0.7601 0.0
H542 H 0.53746 0.93751 0.66703 0.0
C543 C 0.5253 0.86424 0.81685 0.0
C544 C 0.5126 0.85219 0.86736 0.0
C545 C 0.49647 0.8598 0.89362 0.0
C546 C 0.49281 0.87874 0.86979 0.0
C547 C 0.50566 0.89019 0.82011 0.0
C548 C 0.5217 0.88335 0.79422 0.0
C549 C 0.53364 0.89894 0.74182 0.0
C550 C 0.56236 0.91511 0.75359 0.0
C551 C 0.52632 0.88173 0.68328 0.0
C552 C 0.52165 0.91548 0.74206 0.0
C553 C 0.50548 0.9101 0.78733 0.0
C554 C 0.4916 0.92236 0.79491 0.0
C555 C 0.49429 0.94056 0.75498 0.0
C556 C 0.51095 0.94652 0.70851 0.0
C557 C 0.52483 0.93378 0.7025 0.0
H558 H 0.64248 0.475 0.87953 0.0
H559 H 0.70383 0.54618 0.82798 0.0
H560 H 0.67597 0.54692 0.74645 0.0
H561 H 0.61047 0.44817 0.72679 0.0
H562 H 0.57977 0.43521 0.75534 0.0
H563 H 0.60562 0.43775 0.80162 0.0
H564 H 0.59816 0.46413 0.88466 0.0
H565 H 0.57216 0.46124 0.83909 0.0
H566 H 0.59753 0.4924 0.86606 0.0
H567 H 0.64045 0.54232 0.67867 0.0
H568 H 0.59941 0.53643 0.64171 0.0
H569 H 0.56122 0.46902 0.73986 0.0
C570 C 0.65012 0.49037 0.85 0.0
C571 C 0.67521 0.5104 0.85921 0.0
C572 C 0.68457 0.53067 0.82122 0.0
C573 C 0.669 0.53106 0.7745 0.0
C574 C 0.64419 0.51104 0.76667 0.0
C575 C 0.63477 0.4912 0.80386 0.0
C576 C 0.60671 0.47402 0.79205 0.0
C577 C 0.60028 0.4472 0.76747 0.0
C578 C 0.59284 0.47292 0.8488 0.0
C579 C 0.60158 0.48797 0.74445 0.0
C580 C 0.62351 0.50877 0.72878 0.0
C581 C 0.6232 0.52581 0.68959 0.0
C582 C 0.59984 0.52222 0.66831 0.0
C583 C 0.57736 0.50209 0.68742 0.0
C584 C 0.57826 0.48425 0.72384 0.0
H585 H 0.1212 0.67365 0.92703 0.0
H586 H 0.15622 0.63314 0.00059 0.0
H587 H 0.1241 0.59343 0.94328 0.0
H588 H 0.05551 0.6206 0.92552 0.0
H589 H 0.04686 0.6291 0.85628 0.0
H590 H 0.07108 0.65346 0.90777 0.0
H591 H 0.10208 0.66794 0.82342 0.0
H592 H 0.07802 0.64373 0.77181 0.0
H593 H 0.10772 0.64491 0.78365 0.0
H594 H 0.09037 0.55932 0.87078 0.0
H595 H 0.05924 0.53434 0.78675 0.0
H596 H 0.04585 0.59738 0.76447 0.0
C597 C 0.12177 0.65631 0.93248 0.0
C598 C 0.14113 0.65646 0.96854 0.0
C599 C 0.14165 0.6335 0.97283 0.0
C600 C 0.12335 0.61082 0.94099 0.0
C601 C 0.10458 0.61143 0.90561 0.0
C602 C 0.10366 0.63361 0.90143 0.0
C603 C 0.0828 0.62983 0.85708 0.0
C604 C 0.06288 0.63346 0.88856 0.0
C605 C 0.09329 0.64765 0.80598 0.0
C606 C 0.07262 0.60227 0.83526 0.0
C607 C 0.08514 0.59183 0.86432 0.0
C608 C 0.08016 0.56717 0.84844 0.0
C609 C 0.06238 0.55309 0.80064 0.0
C610 C 0.04997 0.56383 0.76904 0.0
C611 C 0.05477 0.58848 0.78794 0.0
H612 H 0.45374 0.1262 0.03253 0.0
H613 H 0.53127 0.15944 0.10315 0.0
H614 H 0.53262 0.12241 0.05743 0.0
H615 H 0.43483 0.05785 0.03549 0.0
H616 H 0.41687 0.04987 0.96454 0.0
H617 H 0.41995 0.07571 0.01423 0.0
H618 H 0.4375 0.1065 0.92959 0.0
H619 H 0.43432 0.0808 0.87979 0.0
H620 H 0.46441 0.1096 0.89296 0.0
H621 H 0.52729 0.08445 0.99368 0.0
H622 H 0.51745 0.0522 0.90951 0.0
H623 H 0.44529 0.04691 0.87314 0.0
C624 C 0.47104 0.12576 0.03894 0.0
C625 C 0.49238 0.14589 0.07168 0.0
C626 C 0.51444 0.14413 0.07939 0.0
C627 C 0.51541 0.12313 0.05347 0.0
C628 C 0.49423 0.10407 0.01988 0.0
C629 C 0.47251 0.10534 0.01232 0.0
C630 C 0.45365 0.08463 0.9672 0.0
C631 C 0.42992 0.0659 0.99718 0.0
C632 C 0.44712 0.09608 0.91428 0.0
C633 C 0.46859 0.07219 0.94839 0.0
C634 C 0.4916 0.08303 0.98073 0.0
C635 C 0.50919 0.07559 0.96868 0.0
C636 C 0.50343 0.05722 0.92102 0.0
C637 C 0.48061 0.04716 0.88532 0.0
C638 C 0.46277 0.05424 0.90024 0.0
H639 H 0.34347 0.48084 0.95206 0.0
H640 H 0.38189 0.56302 0.99267 0.0
H641 H 0.41362 0.56816 0.92233 0.0
H642 H 0.39685 0.47447 0.93457 0.0
H643 H 0.38271 0.45067 0.87232 0.0
H644 H 0.36325 0.45347 0.92678 0.0
H645 H 0.33704 0.45914 0.84211 0.0
H646 H 0.35653 0.45649 0.78736 0.0
H647 H 0.35267 0.48407 0.79226 0.0
H648 H 0.44289 0.56411 0.85183 0.0
H649 H 0.46593 0.55083 0.78386 0.0
H650 H 0.40586 0.47239 0.78048 0.0
C651 C 0.35821 0.50004 0.94576 0.0
C652 C 0.36 0.52147 0.97893 0.0
C653 C 0.38018 0.54611 0.96949 0.0
C654 C 0.39823 0.54931 0.92887 0.0
C655 C 0.39569 0.52779 0.89687 0.0
C656 C 0.37604 0.50366 0.90441 0.0
C657 C 0.37749 0.48363 0.86434 0.0
C658 C 0.38025 0.46444 0.90175 0.0
C659 C 0.35457 0.47003 0.81882 0.0
C660 C 0.40128 0.50022 0.83375 0.0
C661 C 0.4116 0.52565 0.85339 0.0
C662 C 0.43467 0.54433 0.83519 0.0
C663 C 0.44763 0.53672 0.79664 0.0
C664 C 0.43735 0.51084 0.776 0.0
C665 C 0.41369 0.49245 0.79401 0.0
H666 H 0.87473 0.30221 0.89362 0.0
H667 H 0.90056 0.33685 0.07502 0.0
H668 H 0.93563 0.37484 0.03605 0.0
H669 H 0.93686 0.32665 0.83656 0.0
H670 H 0.92705 0.33175 0.76428 0.0
H671 H 0.90478 0.30673 0.80676 0.0
H672 H 0.87529 0.32571 0.80056 0.0
H673 H 0.89745 0.35076 0.7581 0.0
H674 H 0.88724 0.35862 0.82625 0.0
H675 H 0.96593 0.41024 0.97699 0.0
H676 H 0.99031 0.43998 0.902 0.0
H677 H 0.94527 0.38179 0.75937 0.0
C678 C 0.88786 0.31775 0.92509 0.0
C679 C 0.88504 0.31657 0.98732 0.0
C680 C 0.90262 0.33722 0.0272 0.0
C681 C 0.92252 0.35891 0.00551 0.0
C682 C 0.92466 0.35955 0.94387 0.0
C683 C 0.90792 0.33946 0.90424 0.0
C684 C 0.91408 0.34521 0.84004 0.0
C685 C 0.92112 0.32647 0.81017 0.0
C686 C 0.89222 0.34507 0.80415 0.0
C687 C 0.93665 0.37184 0.84972 0.0
C688 C 0.94245 0.37977 0.90991 0.0
C689 C 0.96177 0.40415 0.92974 0.0
C690 C 0.97546 0.42092 0.88683 0.0
C691 C 0.96984 0.41315 0.82488 0.0
C692 C 0.95031 0.38817 0.80639 0.0
H693 H 0.88494 0.53013 0.93159 0.0
H694 H 0.82025 0.46354 0.83903 0.0
H695 H 0.8473 0.46171 0.76464 0.0
H696 H 0.9211 0.55782 0.80552 0.0
H697 H 0.9506 0.56535 0.8434 0.0
H698 H 0.92583 0.56443 0.88573 0.0
H699 H 0.92732 0.53137 0.95224 0.0
H700 H 0.95236 0.53255 0.91079 0.0
H701 H 0.92418 0.50242 0.91732 0.0
H702 H 0.88128 0.46707 0.69761 0.0
H703 H 0.92078 0.47289 0.6581 0.0
H704 H 0.96374 0.53011 0.80358 0.0
C705 C 0.87611 0.51496 0.89632 0.0
C706 C 0.84974 0.49776 0.89115 0.0
C707 C 0.83984 0.47818 0.84344 0.0
C708 C 0.85519 0.47669 0.80062 0.0
C709 C 0.88077 0.49424 0.80663 0.0
C710 C 0.8913 0.51244 0.8544 0.0
C711 C 0.91976 0.52684 0.85472 0.0
C712 C 0.92991 0.5553 0.84687 0.0
C713 C 0.9316 0.52305 0.91216 0.0
C714 C 0.92346 0.51368 0.79995 0.0
C715 C 0.90069 0.49552 0.77167 0.0
C716 C 0.89925 0.4811 0.71961 0.0
C717 C 0.92171 0.48463 0.69723 0.0
C718 C 0.9451 0.50184 0.72802 0.0
C719 C 0.94599 0.51685 0.77932 0.0
H720 H 0.34113 0.85061 0.90492 0.0
H721 H 0.29058 0.88139 0.90459 0.0
H722 H 0.31409 0.90946 0.82751 0.0
H723 H 0.39559 0.91104 0.90208 0.0
H724 H 0.4122 0.89955 0.85732 0.0
H725 H 0.38882 0.87857 0.90477 0.0
H726 H 0.36542 0.84633 0.81287 0.0
H727 H 0.38859 0.86752 0.765 0.0
H728 H 0.35576 0.85659 0.74799 0.0
H729 H 0.3441 0.93607 0.75394 0.0
H730 H 0.38238 0.96447 0.70462 0.0
H731 H 0.41636 0.92039 0.76135 0.0
C732 C 0.3348 0.86316 0.88921 0.0
C733 C 0.31326 0.8629 0.91082 0.0
C734 C 0.30614 0.88 0.88781 0.0
C735 C 0.31953 0.8963 0.84388 0.0
C736 C 0.34045 0.89587 0.82375 0.0
C737 C 0.3484 0.88015 0.84659 0.0
C738 C 0.37336 0.88579 0.82314 0.0
C739 C 0.39369 0.89425 0.8749 0.0
C740 C 0.37061 0.86268 0.78498 0.0
C741 C 0.37846 0.90759 0.78478 0.0
C742 C 0.35885 0.91253 0.7843 0.0
C743 C 0.35957 0.93234 0.75385 0.0
C744 C 0.38141 0.94832 0.72561 0.0
C745 C 0.40252 0.94481 0.72922 0.0
C746 C 0.40055 0.92355 0.7574 0.0
H747 H 0.48838 0.36594 0.02837 0.0
H748 H 0.45476 0.29971 0.89922 0.0
H749 H 0.44768 0.32465 0.82613 0.0
H750 H 0.45016 0.39259 0.98749 0.0
H751 H 0.47562 0.42518 0.99459 0.0
H752 H 0.47693 0.40192 0.03929 0.0
H753 H 0.51968 0.41249 0.99837 0.0
H754 H 0.51864 0.43598 0.95409 0.0
H755 H 0.52223 0.41079 0.91855 0.0
H756 H 0.44314 0.35581 0.76765 0.0
H757 H 0.44641 0.39314 0.72151 0.0
H758 H 0.48687 0.44089 0.88352 0.0
C759 C 0.47978 0.35664 0.98461 0.0
C760 C 0.47163 0.3305 0.97056 0.0
C761 C 0.46037 0.31932 0.91245 0.0
C762 C 0.45642 0.3334 0.87018 0.0
C763 C 0.4643 0.35886 0.88594 0.0
C764 C 0.4762 0.37059 0.94119 0.0
C765 C 0.48412 0.39868 0.94509 0.0
C766 C 0.47091 0.40495 0.99455 0.0
C767 C 0.51287 0.41547 0.95457 0.0
C768 C 0.47467 0.40079 0.88338 0.0
C769 C 0.46297 0.37745 0.85054 0.0
C770 C 0.45238 0.37425 0.7927 0.0
C771 C 0.45424 0.39562 0.76704 0.0
C772 C 0.46694 0.42003 0.7988 0.0
C773 C 0.47709 0.42253 0.85805 0.0
H774 H 0.16993 0.51929 0.93975 0.0
H775 H 0.15284 0.44037 0.92047 0.0
H776 H 0.1263 0.43317 0.82954 0.0
H777 H 0.10722 0.50293 0.90847 0.0
H778 H 0.1148 0.53137 0.87139 0.0
H779 H 0.13663 0.53194 0.92772 0.0
H780 H 0.17111 0.54812 0.85137 0.0
H781 H 0.14903 0.54695 0.79441 0.0
H782 H 0.16554 0.52981 0.78094 0.0
H783 H 0.09967 0.43314 0.74434 0.0
H784 H 0.06702 0.43689 0.68687 0.0
H785 H 0.0966 0.51369 0.76872 0.0
C786 C 0.16071 0.50042 0.91689 0.0
C787 C 0.16446 0.48073 0.93716 0.0
C788 C 0.15157 0.45633 0.90507 0.0
C789 C 0.13627 0.45193 0.85308 0.0
C790 C 0.13341 0.47186 0.8341 0.0
C791 C 0.14465 0.49539 0.86597 0.0
C792 C 0.1352 0.51218 0.84168 0.0
C793 C 0.12271 0.52004 0.89018 0.0
C794 C 0.1565 0.53565 0.81554 0.0
C795 C 0.11619 0.49397 0.79269 0.0
C796 C 0.11627 0.47122 0.78748 0.0
C797 C 0.09949 0.4509 0.74765 0.0
C798 C 0.08109 0.45329 0.71486 0.0
C799 C 0.07923 0.47555 0.72362 0.0
C800 C 0.09772 0.49654 0.76091 0.0
H801 H 0.65741 0.10326 0.97049 0.0
H802 H 0.7042 0.15183 0.83771 0.0
H803 H 0.67113 0.12542 0.75813 0.0
H804 H 0.62891 0.04251 0.87368 0.0
H805 H 0.59891 0.03084 0.90532 0.0
H806 H 0.62749 0.05191 0.95037 0.0
H807 H 0.61072 0.08286 0.97309 0.0
H808 H 0.58225 0.06204 0.92786 0.0
H809 H 0.60108 0.09494 0.91178 0.0
H810 H 0.63073 0.09638 0.69459 0.0
H811 H 0.58712 0.0665 0.65345 0.0
H812 H 0.56826 0.0366 0.82811 0.0
C813 C 0.66102 0.10791 0.92451 0.0
C814 C 0.68332 0.12966 0.91041 0.0
C815 C 0.68707 0.13542 0.84969 0.0
C816 C 0.66849 0.12044 0.80408 0.0
C817 C 0.64638 0.09955 0.81976 0.0
C818 C 0.64273 0.09312 0.87847 0.0
C819 C 0.61673 0.07078 0.88423 0.0
C820 C 0.6181 0.04764 0.90459 0.0
C821 C 0.60183 0.07811 0.92673 0.0
C822 C 0.60608 0.06618 0.82007 0.0
C823 C 0.62343 0.08274 0.78322 0.0
C824 C 0.6171 0.083 0.72284 0.0
C825 C 0.5923 0.06599 0.69982 0.0
C826 C 0.57423 0.04909 0.73729 0.0
C827 C 0.58153 0.04909 0.79787 0.0
H828 H 0.52057 0.64432 0.93098 0.0
H829 H 0.60123 0.695 0.96028 0.0
H830 H 0.60817 0.66094 0.91844 0.0
H831 H 0.51781 0.58194 0.94837 0.0
H832 H 0.49471 0.56659 0.88605 0.0
H833 H 0.49541 0.59214 0.93226 0.0
H834 H 0.49875 0.61634 0.839 0.0
H835 H 0.49917 0.59216 0.79051 0.0
H836 H 0.52449 0.62453 0.79195 0.0
H837 H 0.60691 0.62536 0.85618 0.0
H838 H 0.59754 0.59255 0.77413 0.0
H839 H 0.51789 0.56517 0.78254 0.0
C840 C 0.53972 0.64817 0.92977 0.0
C841 C 0.56031 0.67239 0.94937 0.0
C842 C 0.58505 0.6765 0.94684 0.0
C843 C 0.5892 0.65721 0.92311 0.0
C844 C 0.56847 0.63386 0.90226 0.0
C845 C 0.54418 0.62927 0.90547 0.0
C846 C 0.52542 0.60459 0.87041 0.0
C847 C 0.50727 0.58517 0.91176 0.0
C848 C 0.51112 0.60969 0.82006 0.0
C849 C 0.54298 0.5963 0.84553 0.0
C850 C 0.56772 0.61322 0.86524 0.0
C851 C 0.58759 0.61158 0.84172 0.0
C852 C 0.58212 0.5929 0.79516 0.0
C853 C 0.55699 0.57615 0.77274 0.0
C854 C 0.53719 0.57717 0.8002 0.0
H855 H 0.47458 0.16562 0.45013 0.0
H856 H 0.48701 0.14279 0.27412 0.0
H857 H 0.49233 0.1088 0.31691 0.0
H858 H 0.51829 0.15361 0.53568 0.0
H859 H 0.49819 0.1412 0.59656 0.0
H860 H 0.49664 0.16453 0.55261 0.0
H861 H 0.44883 0.13398 0.529 0.0
H862 H 0.45024 0.11059 0.57291 0.0
H863 H 0.43783 0.10218 0.49594 0.0
H864 H 0.49647 0.07749 0.37902 0.0
H865 H 0.49608 0.0491 0.45456 0.0
H866 H 0.47889 0.09091 0.58927 0.0
C867 C 0.47859 0.15352 0.42092 0.0
C868 C 0.48046 0.15671 0.35903 0.0
C869 C 0.48541 0.14044 0.3217 0.0
C870 C 0.48857 0.12122 0.34559 0.0
C871 C 0.48647 0.11841 0.4068 0.0
C872 C 0.48138 0.13394 0.4439 0.0
C873 C 0.47889 0.12609 0.50754 0.0
C874 C 0.49922 0.14764 0.55063 0.0
C875 C 0.45237 0.11771 0.52749 0.0
C876 C 0.48332 0.10371 0.50035 0.0
C877 C 0.48798 0.09979 0.44211 0.0
C878 C 0.49284 0.08037 0.42482 0.0
C879 C 0.49274 0.06439 0.46819 0.0
C880 C 0.48749 0.06774 0.52786 0.0
C881 C 0.48279 0.08774 0.54387 0.0
H882 H 0.34879 0.49466 0.38001 0.0
H883 H 0.37731 0.57635 0.39242 0.0
H884 H 0.40851 0.58213 0.47253 0.0
H885 H 0.3621 0.48856 0.54083 0.0
H886 H 0.37192 0.46587 0.52086 0.0
H887 H 0.34814 0.46718 0.47429 0.0
H888 H 0.37449 0.47382 0.38198 0.0
H889 H 0.39796 0.47206 0.42804 0.0
H890 H 0.40665 0.49956 0.38608 0.0
H891 H 0.44052 0.58025 0.53876 0.0
H892 H 0.47334 0.57127 0.57662 0.0
H893 H 0.42552 0.49142 0.51867 0.0
C894 C 0.36141 0.51377 0.39986 0.0
C895 C 0.36037 0.535 0.38004 0.0
C896 C 0.37726 0.55966 0.40759 0.0
C897 C 0.39506 0.56315 0.45333 0.0
C898 C 0.39576 0.54184 0.4712 0.0
C899 C 0.37947 0.51763 0.445 0.0
C900 C 0.38642 0.49845 0.46573 0.0
C901 C 0.36592 0.47886 0.50263 0.0
C902 C 0.39171 0.48523 0.4123 0.0
C903 C 0.41006 0.51592 0.50487 0.0
C904 C 0.41465 0.54075 0.50916 0.0
C905 C 0.43682 0.56082 0.53723 0.0
C906 C 0.45528 0.55559 0.5589 0.0
C907 C 0.45136 0.5306 0.55186 0.0
C908 C 0.42827 0.51044 0.52653 0.0
H909 H 0.89518 0.32517 0.31007 0.0
H910 H 0.8486 0.35793 0.26512 0.0
H911 H 0.8805 0.39904 0.31666 0.0
H912 H 0.91255 0.35289 0.45595 0.0
H913 H 0.94401 0.3579 0.45697 0.0
H914 H 0.91939 0.3325 0.40871 0.0
H915 H 0.94588 0.3507 0.31732 0.0
H916 H 0.9705 0.3764 0.36544 0.0
H917 H 0.95684 0.38334 0.3017 0.0
H918 H 0.91533 0.43522 0.38127 0.0
H919 H 0.94804 0.46189 0.46112 0.0
H920 H 0.97108 0.40505 0.46631 0.0
C921 C 0.89168 0.34098 0.31078 0.0
C922 C 0.86942 0.3383 0.28314 0.0
C923 C 0.86571 0.35959 0.28492 0.0
C924 C 0.88374 0.38306 0.31408 0.0
C925 C 0.9054 0.38497 0.34112 0.0
C926 C 0.90936 0.36444 0.33997 0.0
C927 C 0.93292 0.37065 0.37744 0.0
C928 C 0.92684 0.35242 0.42775 0.0
C929 C 0.95271 0.37025 0.33811 0.0
C930 C 0.941 0.39749 0.40197 0.0
C931 C 0.92527 0.40568 0.37932 0.0
C932 C 0.92802 0.42919 0.3986 0.0
C933 C 0.94676 0.4443 0.4438 0.0
C934 C 0.96217 0.43561 0.46975 0.0
C935 C 0.95971 0.4123 0.44701 0.0
H936 H 0.51142 0.85716 0.24822 0.0
H937 H 0.51966 0.89175 0.07954 0.0
H938 H 0.51863 0.92826 0.1316 0.0
H939 H 0.46983 0.87769 0.31272 0.0
H940 H 0.48478 0.88293 0.38678 0.0
H941 H 0.48346 0.85873 0.33437 0.0
H942 H 0.53197 0.87963 0.3481 0.0
H943 H 0.53347 0.90394 0.40009 0.0
H944 H 0.55148 0.9128 0.33489 0.0
H945 H 0.51883 0.9623 0.20576 0.0
H946 H 0.52222 0.99061 0.29422 0.0
H947 H 0.51489 0.9326 0.41081 0.0
C948 C 0.51229 0.87203 0.22182 0.0
C949 C 0.51527 0.87152 0.15986 0.0
C950 C 0.51729 0.89182 0.12721 0.0
C951 C 0.5166 0.91252 0.15631 0.0
C952 C 0.51394 0.91254 0.2179 0.0
C953 C 0.51181 0.89272 0.25002 0.0
C954 C 0.51106 0.89783 0.31617 0.0
C955 C 0.48577 0.87813 0.33882 0.0
C956 C 0.53332 0.8986 0.35187 0.0
C957 C 0.51359 0.92386 0.31673 0.0
C958 C 0.51486 0.93206 0.25985 0.0
C959 C 0.51775 0.95597 0.25045 0.0
C960 C 0.51965 0.9719 0.30072 0.0
C961 C 0.51913 0.96387 0.35916 0.0
C962 C 0.51571 0.93943 0.3667 0.0
H963 H 0.68665 0.54858 0.29387 0.0
H964 H 0.64311 0.46794 0.2348 0.0
H965 H 0.61088 0.46264 0.30372 0.0
H966 H 0.67308 0.54007 0.45162 0.0
H967 H 0.6717 0.569 0.46173 0.0
H968 H 0.69163 0.56658 0.40789 0.0
H969 H 0.66953 0.57797 0.3243 0.0
H970 H 0.64967 0.58056 0.37789 0.0
H971 H 0.63582 0.55931 0.31115 0.0
H972 H 0.58183 0.46657 0.37402 0.0
H973 H 0.55886 0.47973 0.44217 0.0
H974 H 0.62272 0.5565 0.46268 0.0
C975 C 0.67059 0.52968 0.29588 0.0
C976 C 0.66751 0.50877 0.25796 0.0
C977 C 0.64581 0.4845 0.26187 0.0
C978 C 0.62746 0.48117 0.30156 0.0
C979 C 0.63115 0.50216 0.33808 0.0
C980 C 0.65226 0.5259 0.33598 0.0
C981 C 0.65149 0.54542 0.37949 0.0
C982 C 0.67327 0.55588 0.42806 0.0
C983 C 0.65163 0.56708 0.34621 0.0
C984 C 0.62642 0.52904 0.40554 0.0
C985 C 0.61497 0.50412 0.38096 0.0
C986 C 0.59084 0.48589 0.39442 0.0
C987 C 0.57793 0.49346 0.43311 0.0
C988 C 0.58922 0.51888 0.45845 0.0
C989 C 0.61398 0.53673 0.44538 0.0
H990 H 0.12819 0.65296 0.23969 0.0
H991 H 0.1284 0.71856 0.32815 0.0
H992 H 0.09178 0.68988 0.38108 0.0
H993 H 0.06036 0.60879 0.22939 0.0
H994 H 0.06341 0.58187 0.24817 0.0
H995 H 0.08773 0.60715 0.21003 0.0
H996 H 0.1209 0.61347 0.29382 0.0
H997 H 0.09676 0.58806 0.33179 0.0
H998 H 0.11602 0.61912 0.37063 0.0
H999 H 0.05701 0.65524 0.42861 0.0
H1000 H 0.02912 0.6167 0.4781 0.0
H1001 H 0.05281 0.57286 0.36705 0.0
C1002 C 0.12065 0.66143 0.27012 0.0
C1003 C 0.13112 0.68827 0.27822 0.0
C1004 C 0.1204 0.69821 0.31886 0.0
C1005 C 0.09957 0.68203 0.34964 0.0
C1006 C 0.08975 0.65585 0.34029 0.0
C1007 C 0.1001 0.64554 0.30236 0.0
C1008 C 0.08739 0.61681 0.30532 0.0
C1009 C 0.07392 0.60283 0.2446 0.0
C1010 C 0.1064 0.60891 0.32668 0.0
C1011 C 0.06866 0.61276 0.35189 0.0
C1012 C 0.0701 0.63556 0.37027 0.0
C1013 C 0.05562 0.63723 0.41452 0.0
C1014 C 0.03985 0.61519 0.44241 0.0
C1015 C 0.03882 0.59176 0.42658 0.0
C1016 C 0.05292 0.59039 0.37947 0.0
loop_
_geom_bond_atom_site_label_1
_geom_bond_atom_site_label_2
_geom_bond_distance
_geom_bond_site_symmetry_2
_ccdc_geom_bond_type
C0 C1 1.384 . S
C0 C2 1.384 . S
C0 H28 0.931 . S
C1 C0 1.384 . S
C1 C4 1.382 . S
C2 C0 1.384 . S
C2 C3 1.381 . S
C2 H29 0.930 . S
C3 C2 1.381 . S
C3 C5 1.381 . S
C3 C6 1.487 . S
C4 C1 1.382 . S
C4 C5 1.387 . S
C4 H30 0.930 1_554 S
C5 C3 1.381 . S
C5 C4 1.387 . S
C5 H31 0.931 . S
C6 C3 1.487 . S
C6 C13 1.399 . S
C6 N44 1.343 . S
C7 C8 1.384 . S
C7 C9 1.384 . S
C7 H32 0.931 . S
C8 C7 1.384 . S
C8 C11 1.382 . S
C9 C7 1.384 . S
C9 C10 1.381 . S
C9 H33 0.930 . S
C10 C9 1.381 . S
C10 C12 1.381 . S
C10 C13 1.487 . S
C11 C8 1.382 . S
C11 C12 1.387 . S
C11 H34 0.930 . S
C12 C10 1.381 . S
C12 C11 1.387 . S
C12 H35 0.931 . S
C13 C6 1.399 . S
C13 C10 1.487 . S
C13 N45 1.343 . S
C14 C15 1.384 . S
C14 C16 1.384 . S
C14 H36 0.931 . S
C15 C14 1.384 . S
C15 C18 1.382 . S
C16 C14 1.384 . S
C16 C17 1.381 . S
C16 H37 0.930 . S
C17 C16 1.381 . S
C17 C19 1.381 . S
C17 C20 1.487 . S
C18 C15 1.382 . S
C18 C19 1.387 . S
C18 H38 0.930 . S
C19 C17 1.381 . S
C19 C18 1.387 . S
C19 H39 0.931 . S
C20 C17 1.487 . S
C20 C27 1.399 . S
C20 N45 1.343 . S
C21 C22 1.384 . S
C21 C23 1.384 . S
C21 H40 0.931 . S
C22 C21 1.384 . S
C22 C25 1.382 . S
C23 C21 1.384 . S
C23 C24 1.381 . S
C23 H41 0.930 . S
C24 C23 1.381 . S
C24 C26 1.381 . S
C24 C27 1.487 . S
C25 C22 1.382 . S
C25 C26 1.387 . S
C25 H42 0.930 1_554 S
C26 C24 1.381 . S
C26 C25 1.387 . S
C26 H43 0.931 . S
C27 C20 1.399 . S
C27 C24 1.487 . S
C27 N44 1.343 . S
H28 C0 0.931 . S
H29 C2 0.930 . S
H30 C4 0.930 1_556 S
H31 C5 0.931 . S
H32 C7 0.931 . S
H33 C9 0.930 . S
H34 C11 0.930 . S
H35 C12 0.931 . S
H36 C14 0.931 . S
H37 C16 0.930 . S
H38 C18 0.930 . S
H39 C19 0.931 . S
H40 C21 0.931 . S
H41 C23 0.930 . S
H42 C25 0.930 1_556 S
H43 C26 0.931 . S
N44 C6 1.343 . S
N44 C27 1.343 . S
N45 C13 1.343 . S
N45 C20 1.343 . S
C46 C47 1.384 . S
C46 C48 1.384 . S
C46 H74 0.931 . S
C47 C46 1.384 . S
C47 C50 1.382 . S
C48 C46 1.384 . S
C48 C49 1.381 . S
C48 H75 0.930 . S
C49 C48 1.381 . S
C49 C51 1.381 . S
C49 C52 1.487 . S
C50 C47 1.382 . S
C50 C51 1.387 . S
C50 H76 0.930 . S
C51 C49 1.381 . S
C51 C50 1.387 . S
C51 H77 0.931 . S
C52 C49 1.487 . S
C52 C59 1.399 . S
C52 N90 1.343 . S
C53 C54 1.384 1_554 S
C53 C55 1.384 . S
C53 H78 0.931 . S
C54 C53 1.384 1_556 S
C54 C57 1.382 . S
C55 C53 1.384 . S
C55 C56 1.381 . S
C55 H79 0.930 . S
C56 C55 1.381 . S
C56 C58 1.381 . S
C56 C59 1.487 . S
C57 C54 1.382 . S
C57 C58 1.387 1_556 S
C57 H80 0.930 . S
C58 C56 1.381 . S
C58 C57 1.387 1_554 S
C58 H81 0.931 . S
C59 C52 1.399 . S
C59 C56 1.487 . S
C59 N91 1.343 . S
C60 C61 1.384 . S
C60 C62 1.384 . S
C60 H82 0.931 . S
C61 C60 1.384 . S
C61 C64 1.382 1_554 S
C62 C60 1.384 . S
C62 C63 1.381 . S
C62 H83 0.930 . S
C63 C62 1.381 . S
C63 C65 1.381 . S
C63 C66 1.487 . S
C64 C61 1.382 1_556 S
C64 C65 1.387 1_556 S
C64 H84 0.930 . S
C65 C63 1.381 . S
C65 C64 1.387 1_554 S
C65 H85 0.931 . S
C66 C63 1.487 . S
C66 C73 1.399 . S
C66 N91 1.343 . S
C67 C68 1.384 . S
C67 C69 1.384 . S
C67 H86 0.931 . S
C68 C67 1.384 . S
C68 C71 1.382 . S
C69 C67 1.384 . S
C69 C70 1.381 . S
C69 H87 0.930 . S
C70 C69 1.381 . S
C70 C72 1.381 . S
C70 C73 1.487 . S
C71 C68 1.382 . S
C71 C72 1.387 . S
C71 H88 0.930 . S
C72 C70 1.381 . S
C72 C71 1.387 . S
C72 H89 0.931 . S
C73 C66 1.399 . S
C73 C70 1.487 . S
C73 N90 1.343 . S
H74 C46 0.931 . S
H75 C48 0.930 . S
H76 C50 0.930 . S
H77 C51 0.931 . S
H78 C53 0.931 . S
H79 C55 0.930 . S
H80 C57 0.930 . S
H81 C58 0.931 . S
H82 C60 0.931 . S
H83 C62 0.930 . S
H84 C64 0.930 . S
H85 C65 0.931 . S
H86 C67 0.931 . S
H87 C69 0.930 . S
H88 C71 0.930 . S
H89 C72 0.931 . S
N90 C52 1.343 . S
N90 C73 1.343 . S
N91 C59 1.343 . S
N91 C66 1.343 . S
C92 C93 1.384 . S
C92 C94 1.384 . S
C92 H120 0.931 . S
C93 C92 1.384 . S
C93 C96 1.382 . S
C94 C92 1.384 . S
C94 C95 1.381 . S
C94 H121 0.930 . S
C95 C94 1.381 . S
C95 C97 1.381 . S
C95 C98 1.487 . S
C96 C93 1.382 . S
C96 C97 1.387 . S
C96 H122 0.930 . S
C97 C95 1.381 . S
C97 C96 1.387 . S
C97 H123 0.931 . S
C98 C95 1.487 . S
C98 C105 1.399 1_556 S
C98 N136 1.343 . S
C99 C100 1.384 . S
C99 C101 1.384 . S
C99 H124 0.931 . S
C100 C99 1.384 . S
C100 C103 1.382 . S
C101 C99 1.384 . S
C101 C102 1.381 . S
C101 H125 0.930 . S
C102 C101 1.381 . S
C102 C104 1.381 . S
C102 C105 1.487 . S
C103 C100 1.382 . S
C103 C104 1.387 . S
C103 H126 0.930 . S
C104 C102 1.381 . S
C104 C103 1.387 . S
C104 H127 0.931 . S
C105 C98 1.399 1_554 S
C105 C102 1.487 . S
C105 N137 1.343 . S
C106 C107 1.384 . S
C106 C108 1.384 . S
C106 H128 0.931 . S
C107 C106 1.384 . S
C107 C110 1.382 . S
C108 C106 1.384 . S
C108 C109 1.381 . S
C108 H129 0.930 . S
C109 C108 1.381 . S
C109 C111 1.381 . S
C109 C112 1.487 . S
C110 C107 1.382 . S
C110 C111 1.387 . S
C110 H130 0.930 . S
C111 C109 1.381 . S
C111 C110 1.387 . S
C111 H131 0.931 . S
C112 C109 1.487 . S
C112 C119 1.399 1_554 S
C112 N137 1.343 . S
C113 C114 1.384 . S
C113 C115 1.384 . S
C113 H132 0.931 . S
C114 C113 1.384 . S
C114 C117 1.382 . S
C115 C113 1.384 . S
C115 C116 1.381 . S
C115 H133 0.930 1_556 S
C116 C115 1.381 . S
C116 C118 1.381 . S
C116 C119 1.487 . S
C117 C114 1.382 . S
C117 C118 1.387 . S
C117 H134 0.930 . S
C118 C116 1.381 . S
C118 C117 1.387 . S
C118 H135 0.931 . S
C119 C112 1.399 1_556 S
C119 C116 1.487 . S
C119 N136 1.343 . S
H120 C92 0.931 . S
H121 C94 0.930 . S
H122 C96 0.930 . S
H123 C97 0.931 . S
H124 C99 0.931 . S
H125 C101 0.930 . S
H126 C103 0.930 . S
H127 C104 0.931 . S
H128 C106 0.931 . S
H129 C108 0.930 . S
H130 C110 0.930 . S
H131 C111 0.931 . S
H132 C113 0.931 . S
H133 C115 0.930 1_554 S
H134 C117 0.930 . S
H135 C118 0.931 . S
N136 C98 1.343 . S
N136 C119 1.343 . S
N137 C105 1.343 . S
N137 C112 1.343 . S
C138 C139 1.384 . S
C138 C140 1.384 1_556 S
C138 H166 0.931 . S
C139 C138 1.384 . S
C139 C142 1.382 . S
C140 C138 1.384 1_554 S
C140 C141 1.381 . S
C140 H167 0.930 . S
C141 C140 1.381 . S
C141 C143 1.381 1_554 S
C141 C144 1.487 . S
C142 C139 1.382 . S
C142 C143 1.387 . S
C142 H168 0.930 . S
C143 C141 1.381 1_556 S
C143 C142 1.387 . S
C143 H169 0.931 . S
C144 C141 1.487 . S
C144 C151 1.399 . S
C144 N182 1.343 . S
C145 C146 1.384 . S
C145 C147 1.384 . S
C145 H170 0.931 . S
C146 C145 1.384 . S
C146 C149 1.382 . S
C147 C145 1.384 . S
C147 C148 1.381 . S
C147 H171 0.930 . S
C148 C147 1.381 . S
C148 C150 1.381 . S
C148 C151 1.487 . S
C149 C146 1.382 . S
C149 C150 1.387 . S
C149 H172 0.930 . S
C150 C148 1.381 . S
C150 C149 1.387 . S
C150 H173 0.931 . S
C151 C144 1.399 . S
C151 C148 1.487 . S
C151 N183 1.343 . S
C152 C153 1.384 . S
C152 C154 1.384 . S
C152 H174 0.931 . S
C153 C152 1.384 . S
C153 C156 1.382 . S
C154 C152 1.384 . S
C154 C155 1.381 . S
C154 H175 0.930 . S
C155 C154 1.381 . S
C155 C157 1.381 . S
C155 C158 1.487 . S
C156 C153 1.382 . S
C156 C157 1.387 . S
C156 H176 0.930 . S
C157 C155 1.381 . S
C157 C156 1.387 . S
C157 H177 0.931 . S
C158 C155 1.487 . S
C158 C165 1.399 . S
C158 N183 1.343 . S
C159 C160 1.384 . S
C159 C161 1.384 1_556 S
C159 H178 0.931 . S
C160 C159 1.384 . S
C160 C163 1.382 . S
C161 C159 1.384 1_554 S
C161 C162 1.381 1_554 S
C161 H179 0.930 . S
C162 C161 1.381 1_556 S
C162 C164 1.381 . S
C162 C165 1.487 1_556 S
C163 C160 1.382 . S
C163 C164 1.387 . S
C163 H180 0.930 . S
C164 C162 1.381 . S
C164 C163 1.387 . S
C164 H181 0.931 . S
C165 C158 1.399 . S
C165 C162 1.487 1_554 S
C165 N182 1.343 . S
H166 C138 0.931 . S
H167 C140 0.930 . S
H168 C142 0.930 . S
H169 C143 0.931 . S
H170 C145 0.931 . S
H171 C147 0.930 . S
H172 C149 0.930 . S
H173 C150 0.931 . S
H174 C152 0.931 . S
H175 C154 0.930 . S
H176 C156 0.930 . S
H177 C157 0.931 . S
H178 C159 0.931 . S
H179 C161 0.930 . S
H180 C163 0.930 . S
H181 C164 0.931 . S
N182 C144 1.343 . S
N182 C165 1.343 . S
N183 C151 1.343 . S
N183 C158 1.343 . S
C184 C185 1.384 1_554 S
C184 C186 1.384 . S
C184 H212 0.931 . S
C185 C184 1.384 1_556 S
C185 C188 1.382 . S
C186 C184 1.384 . S
C186 C187 1.381 . S
C186 H213 0.930 . S
C187 C186 1.381 . S
C187 C189 1.381 1_554 S
C187 C190 1.487 . S
C188 C185 1.382 . S
C188 C189 1.387 . S
C188 H214 0.930 . S
C189 C187 1.381 1_556 S
C189 C188 1.387 . S
C189 H215 0.931 . S
C190 C187 1.487 . S
C190 C197 1.399 . S
C190 N228 1.343 . S
C191 C192 1.384 . S
C191 C193 1.384 . S
C191 H216 0.931 . S
C192 C191 1.384 . S
C192 C195 1.382 . S
C193 C191 1.384 . S
C193 C194 1.381 . S
C193 H217 0.930 . S
C194 C193 1.381 . S
C194 C196 1.381 . S
C194 C197 1.487 . S
C195 C192 1.382 . S
C195 C196 1.387 . S
C195 H218 0.930 . S
C196 C194 1.381 . S
C196 C195 1.387 . S
C196 H219 0.931 . S
C197 C190 1.399 . S
C197 C194 1.487 . S
C197 N229 1.343 . S
C198 C199 1.384 . S
C198 C200 1.384 . S
C198 H220 0.931 . S
C199 C198 1.384 . S
C199 C202 1.382 . S
C200 C198 1.384 . S
C200 C201 1.381 . S
C200 H221 0.930 . S
C201 C200 1.381 . S
C201 C203 1.381 . S
C201 C204 1.487 . S
C202 C199 1.382 . S
C202 C203 1.387 . S
C202 H222 0.930 . S
C203 C201 1.381 . S
C203 C202 1.387 . S
C203 H223 0.931 . S
C204 C201 1.487 . S
C204 C211 1.399 . S
C204 N229 1.343 . S
C205 C206 1.384 . S
C205 C207 1.384 1_556 S
C205 H224 0.931 . S
C206 C205 1.384 . S
C206 C209 1.382 . S
C207 C205 1.384 1_554 S
C207 C208 1.381 . S
C207 H225 0.930 . S
C208 C207 1.381 . S
C208 C210 1.381 1_554 S
C208 C211 1.487 . S
C209 C206 1.382 . S
C209 C210 1.387 . S
C209 H226 0.930 . S
C210 C208 1.381 1_556 S
C210 C209 1.387 . S
C210 H227 0.931 . S
C211 C204 1.399 . S
C211 C208 1.487 . S
C211 N228 1.343 . S
H212 C184 0.931 . S
H213 C186 0.930 . S
H214 C188 0.930 . S
H215 C189 0.931 . S
H216 C191 0.931 . S
H217 C193 0.930 . S
H218 C195 0.930 . S
H219 C196 0.931 . S
H220 C198 0.931 . S
H221 C200 0.930 . S
H222 C202 0.930 . S
H223 C203 0.931 . S
H224 C205 0.931 . S
H225 C207 0.930 . S
H226 C209 0.930 . S
H227 C210 0.931 . S
N228 C190 1.343 . S
N228 C211 1.343 . S
N229 C197 1.343 . S
N229 C204 1.343 . S
C230 C231 1.384 . S
C230 C232 1.384 . S
C230 H258 0.931 . S
C231 C230 1.384 . S
C231 C234 1.382 . S
C232 C230 1.384 . S
C232 C233 1.381 . S
C232 H259 0.930 . S
C233 C232 1.381 . S
C233 C235 1.381 . S
C233 C236 1.487 . S
C234 C231 1.382 . S
C234 C235 1.387 . S
C234 H260 0.930 . S
C235 C233 1.381 . S
C235 C234 1.387 . S
C235 H261 0.931 . S
C236 C233 1.487 . S
C236 C243 1.399 . S
C236 N274 1.343 . S
C237 C238 1.384 . S
C237 C239 1.384 . S
C237 H262 0.931 . S
C238 C237 1.384 . S
C238 C241 1.382 . S
C239 C237 1.384 . S
C239 C240 1.381 . S
C239 H263 0.930 . S
C240 C239 1.381 . S
C240 C242 1.381 . S
C240 C243 1.487 . S
C241 C238 1.382 . S
C241 C242 1.387 . S
C241 H264 0.930 . S
C242 C240 1.381 . S
C242 C241 1.387 . S
C242 H265 0.931 . S
C243 C236 1.399 . S
C243 C240 1.487 . S
C243 N275 1.343 . S
C244 C245 1.384 . S
C244 C246 1.384 . S
C244 H266 0.931 . S
C245 C244 1.384 . S
C245 C248 1.382 . S
C246 C244 1.384 . S
C246 C247 1.381 . S
C246 H267 0.930 . S
C247 C246 1.381 . S
C247 C249 1.381 . S
C247 C250 1.487 . S
C248 C245 1.382 . S
C248 C249 1.387 . S
C248 H268 0.930 . S
C249 C247 1.381 . S
C249 C248 1.387 . S
C249 H269 0.931 . S
C250 C247 1.487 . S
C250 C257 1.399 . S
C250 N275 1.343 . S
C251 C252 1.384 . S
C251 C253 1.384 . S
C251 H270 0.931 . S
C252 C251 1.384 . S
C252 C255 1.382 . S
C253 C251 1.384 . S
C253 C254 1.381 . S
C253 H271 0.930 . S
C254 C253 1.381 . S
C254 C256 1.381 . S
C254 C257 1.487 . S
C255 C252 1.382 . S
C255 C256 1.387 . S
C255 H272 0.930 . S
C256 C254 1.381 . S
C256 C255 1.387 . S
C256 H273 0.931 . S
C257 C250 1.399 . S
C257 C254 1.487 . S
C257 N274 1.343 . S
H258 C230 0.931 . S
H259 C232 0.930 . S
H260 C234 0.930 . S
H261 C235 0.931 . S
H262 C237 0.931 . S
H263 C239 0.930 . S
H264 C241 0.930 . S
H265 C242 0.931 . S
H266 C244 0.931 . S
H267 C246 0.930 . S
H268 C248 0.930 . S
H269 C249 0.931 . S
H270 C251 0.931 . S
H271 C253 0.930 . S
H272 C255 0.930 . S
H273 C256 0.931 . S
N274 C236 1.343 . S
N274 C257 1.343 . S
N275 C243 1.343 . S
N275 C250 1.343 . S
C276 O288 1.241 . S
C276 O289 1.280 . S
C277 O290 1.277 . S
C277 O291 1.245 . S
C278 O302 1.247 . S
C278 O304 1.289 . S
Mg279 O280 1.913 . S
Mg279 O289 1.984 . S
Mg279 O291 1.988 1_655 S
Mg279 O292 2.061 . S
O280 Mg279 1.913 . S
O280 Mg281 1.988 1_655 S
O280 Mg282 1.920 1_655 S
Mg281 O280 1.988 1_455 S
Mg281 O288 2.042 1_455 S
Mg281 O290 2.041 . S
Mg281 O296 2.038 1_455 S
Mg281 O304 2.238 . S
Mg282 O280 1.920 1_455 S
Mg282 O283 1.917 . S
Mg282 O293 2.106 1_455 S
Mg282 O295 2.079 1_455 S
Mg282 O304 2.106 . S
Mg282 O305 2.079 . S
O283 Mg282 1.917 . S
O283 Mg284 1.926 . S
O283 Mg285 1.986 . S
Mg284 O283 1.926 . S
Mg284 O298 1.984 . S
Mg284 O301 1.988 1_455 S
Mg284 O302 2.061 . S
Mg285 O283 1.986 . S
Mg285 O293 2.238 1_455 S
Mg285 O297 2.042 . S
Mg285 O299 2.041 1_455 S
Mg285 O306 2.038 . S
C286 O292 1.247 . S
C286 O293 1.289 . S
C287 O305 1.245 . S
C287 O306 1.274 . S
O288 C276 1.241 . S
O288 Mg281 2.042 1_655 S
O289 C276 1.280 . S
O289 Mg279 1.984 . S
O290 C277 1.277 . S
O290 Mg281 2.041 . S
O291 C277 1.245 . S
O291 Mg279 1.988 1_455 S
O292 Mg279 2.061 . S
O292 C286 1.247 . S
O293 Mg282 2.106 1_655 S
O293 Mg285 2.238 1_655 S
O293 C286 1.289 . S
C294 O295 1.245 . S
C294 O296 1.274 . S
O295 Mg282 2.079 1_655 S
O295 C294 1.245 . S
O296 Mg281 2.038 1_655 S
O296 C294 1.274 . S
O297 Mg285 2.042 . S
O297 C300 1.241 . S
O298 Mg284 1.984 . S
O298 C300 1.280 . S
O299 Mg285 2.041 1_655 S
O299 C303 1.277 . S
C300 O297 1.241 . S
C300 O298 1.280 . S
O301 Mg284 1.988 1_655 S
O301 C303 1.245 . S
O302 C278 1.247 . S
O302 Mg284 2.061 . S
C303 O299 1.277 . S
C303 O301 1.245 . S
O304 C278 1.289 . S
O304 Mg281 2.238 . S
O304 Mg282 2.106 . S
O305 Mg282 2.079 . S
O305 C287 1.245 . S
O306 Mg285 2.038 . S
O306 C287 1.274 . S
C307 O319 1.241 . S
C307 O320 1.280 . S
C308 O321 1.277 . S
C308 O322 1.245 . S
C309 O333 1.247 . S
C309 O335 1.289 . S
Mg310 O311 1.926 . S
Mg310 O320 1.984 . S
Mg310 O322 1.988 1_545 S
Mg310 O323 2.061 . S
O311 Mg310 1.926 . S
O311 Mg312 1.986 . S
O311 Mg313 1.917 . S
Mg312 O311 1.986 . S
Mg312 O319 2.042 . S
Mg312 O321 2.041 1_545 S
Mg312 O327 2.038 . S
Mg312 O335 2.238 1_545 S
Mg313 O311 1.917 . S
Mg313 O314 1.917 1_545 S
Mg313 O324 2.106 . S
Mg313 O326 2.079 . S
Mg313 O335 2.106 1_545 S
Mg313 O336 2.079 1_545 S
O314 Mg313 1.917 1_565 S
O314 Mg315 1.926 . S
O314 Mg316 1.986 1_565 S
Mg315 O314 1.926 . S
Mg315 O329 1.984 . S
Mg315 O332 1.988 1_565 S
Mg315 O333 2.061 . S
Mg316 O314 1.986 1_545 S
Mg316 O324 2.238 . S
Mg316 O328 2.042 1_545 S
Mg316 O330 2.041 . S
Mg316 O337 2.038 1_545 S
C317 O323 1.247 . S
C317 O324 1.289 . S
C318 O336 1.245 . S
C318 O337 1.274 . S
O319 C307 1.241 . S
O319 Mg312 2.042 . S
O320 C307 1.280 . S
O320 Mg310 1.984 . S
O321 C308 1.277 . S
O321 Mg312 2.041 1_565 S
O322 C308 1.245 . S
O322 Mg310 1.988 1_565 S
O323 Mg310 2.061 . S
O323 C317 1.247 . S
O324 Mg313 2.106 . S
O324 Mg316 2.238 . S
O324 C317 1.289 . S
C325 O326 1.245 . S
C325 O327 1.274 . S
O326 Mg313 2.079 . S
O326 C325 1.245 . S
O327 Mg312 2.038 . S
O327 C325 1.274 . S
O328 Mg316 2.042 1_565 S
O328 C331 1.241 . S
O329 Mg315 1.984 . S
O329 C331 1.280 . S
O330 Mg316 2.041 . S
O330 C334 1.277 . S
C331 O328 1.241 . S
C331 O329 1.280 . S
O332 Mg315 1.988 1_545 S
O332 C334 1.245 . S
O333 C309 1.247 . S
O333 Mg315 2.061 . S
C334 O330 1.277 . S
C334 O332 1.245 . S
O335 C309 1.289 . S
O335 Mg312 2.238 1_565 S
O335 Mg313 2.106 1_565 S
O336 Mg313 2.079 1_565 S
O336 C318 1.245 . S
O337 Mg316 2.038 1_565 S
O337 C318 1.274 . S
C338 O350 1.241 . S
C338 O351 1.280 . S
C339 O352 1.277 . S
C339 O353 1.245 . S
C340 O364 1.247 . S
C340 O366 1.289 . S
Mg341 O342 1.926 . S
Mg341 O351 1.984 . S
Mg341 O353 1.988 . S
Mg341 O354 2.061 . S
O342 Mg341 1.926 . S
O342 Mg343 1.986 . S
O342 Mg344 1.917 . S
Mg343 O342 1.986 . S
Mg343 O350 2.042 . S
Mg343 O352 2.041 . S
Mg343 O358 2.038 . S
Mg343 O366 2.238 . S
Mg344 O342 1.917 . S
Mg344 O345 1.917 . S
Mg344 O355 2.106 . S
Mg344 O357 2.079 . S
Mg344 O366 2.106 . S
Mg344 O367 2.079 . S
O345 Mg344 1.917 . S
O345 Mg346 1.926 . S
O345 Mg347 1.986 . S
Mg346 O345 1.926 . S
Mg346 O360 1.984 . S
Mg346 O363 1.988 . S
Mg346 O364 2.061 . S
Mg347 O345 1.986 . S
Mg347 O355 2.238 . S
Mg347 O359 2.042 . S
Mg347 O361 2.041 . S
Mg347 O368 2.038 . S
C348 O354 1.247 . S
C348 O355 1.289 . S
C349 O367 1.245 . S
C349 O368 1.274 . S
O350 C338 1.241 . S
O350 Mg343 2.042 . S
O351 C338 1.280 . S
O351 Mg341 1.984 . S
O352 C339 1.277 . S
O352 Mg343 2.041 . S
O353 C339 1.245 . S
O353 Mg341 1.988 . S
O354 Mg341 2.061 . S
O354 C348 1.247 . S
O355 Mg344 2.106 . S
O355 Mg347 2.238 . S
O355 C348 1.289 . S
C356 O357 1.245 . S
C356 O358 1.274 . S
O357 Mg344 2.079 . S
O357 C356 1.245 . S
O358 Mg343 2.038 . S
O358 C356 1.274 . S
O359 Mg347 2.042 . S
O359 C362 1.241 . S
O360 Mg346 1.984 . S
O360 C362 1.280 . S
O361 Mg347 2.041 . S
O361 C365 1.277 . S
C362 O359 1.241 . S
C362 O360 1.280 . S
O363 Mg346 1.988 . S
O363 C365 1.245 . S
O364 C340 1.247 . S
O364 Mg346 2.061 . S
C365 O361 1.277 . S
C365 O363 1.245 . S
O366 C340 1.289 . S
O366 Mg343 2.238 . S
O366 Mg344 2.106 . S
O367 Mg344 2.079 . S
O367 C349 1.245 . S
O368 Mg347 2.038 . S
O368 C349 1.274 . S
H369 C381 0.930 . S
H370 C383 0.930 . S
H371 C384 0.930 . S
H372 C388 0.959 . S
H373 C388 0.959 . S
H374 C388 0.961 . S
H375 C389 0.960 . S
H376 C389 0.961 . S
H377 C389 0.959 . S
H378 C392 0.929 . S
H379 C393 0.931 . S
H380 C395 0.930 . S
C381 H369 0.930 . S
C381 C382 1.399 . S
C381 C386 1.399 . S
C382 C381 1.399 . S
C382 C383 1.376 . S
C383 H370 0.930 . S
C383 C382 1.376 . S
C383 C384 1.388 . S
C384 H371 0.930 . S
C384 C383 1.388 . S
C384 C385 1.390 . S
C385 C384 1.390 . S
C385 C386 1.394 . S
C385 C391 1.465 . S
C386 C381 1.399 . S
C386 C385 1.394 . S
C386 C387 1.516 . S
C387 C386 1.516 . S
C387 C388 1.502 . S
C387 C389 1.561 . S
C387 C390 1.526 . S
C388 H372 0.959 . S
C388 H373 0.959 . S
C388 H374 0.961 . S
C388 C387 1.502 . S
C389 H375 0.960 . S
C389 H376 0.961 . S
C389 H377 0.959 . S
C389 C387 1.561 . S
C390 C387 1.526 . S
C390 C391 1.396 . S
C390 C395 1.390 . S
C391 C385 1.465 . S
C391 C390 1.396 . S
C391 C392 1.399 . S
C392 H378 0.929 . S
C392 C391 1.399 . S
C392 C393 1.385 . S
C393 H379 0.931 . S
C393 C392 1.385 . S
C393 C394 1.389 . S
C394 C393 1.389 . S
C394 C395 1.387 . S
C395 H380 0.930 . S
C395 C390 1.390 . S
C395 C394 1.387 . S
H396 C408 0.930 . S
H397 C410 0.930 . S
H398 C411 0.930 . S
H399 C415 0.959 . S
H400 C415 0.959 . S
H401 C415 0.961 . S
H402 C416 0.960 . S
H403 C416 0.961 . S
H404 C416 0.959 . S
H405 C419 0.929 . S
H406 C420 0.931 . S
H407 C422 0.930 . S
C408 H396 0.930 . S
C408 C409 1.399 . S
C408 C413 1.399 . S
C409 C408 1.399 . S
C409 C410 1.376 . S
C410 H397 0.930 . S
C410 C409 1.376 . S
C410 C411 1.388 . S
C411 H398 0.930 . S
C411 C410 1.388 . S
C411 C412 1.390 . S
C412 C411 1.390 . S
C412 C413 1.394 . S
C412 C418 1.465 . S
C413 C408 1.399 . S
C413 C412 1.394 . S
C413 C414 1.516 . S
C414 C413 1.516 . S
C414 C415 1.502 . S
C414 C416 1.561 . S
C414 C417 1.526 . S
C415 H399 0.959 . S
C415 H400 0.959 . S
C415 H401 0.961 . S
C415 C414 1.502 . S
C416 H402 0.960 . S
C416 H403 0.961 . S
C416 H404 0.959 . S
C416 C414 1.561 . S
C417 C414 1.526 . S
C417 C418 1.396 . S
C417 C422 1.390 . S
C418 C412 1.465 . S
C418 C417 1.396 . S
C418 C419 1.399 . S
C419 H405 0.929 . S
C419 C418 1.399 . S
C419 C420 1.385 . S
C420 H406 0.931 . S
C420 C419 1.385 . S
C420 C421 1.389 . S
C421 C420 1.389 . S
C421 C422 1.387 . S
C422 H407 0.930 . S
C422 C417 1.390 . S
C422 C421 1.387 . S
H423 C435 0.930 . S
H424 C437 0.930 . S
H425 C438 0.930 . S
H426 C442 0.959 . S
H427 C442 0.959 . S
H428 C442 0.961 . S
H429 C443 0.960 . S
H430 C443 0.961 . S
H431 C443 0.959 . S
H432 C446 0.929 . S
H433 C447 0.931 . S
H434 C449 0.930 . S
C435 H423 0.930 . S
C435 C436 1.399 . S
C435 C440 1.399 . S
C436 C435 1.399 . S
C436 C437 1.376 . S
C437 H424 0.930 . S
C437 C436 1.376 . S
C437 C438 1.388 . S
C438 H425 0.930 . S
C438 C437 1.388 . S
C438 C439 1.390 . S
C439 C438 1.390 . S
C439 C440 1.394 . S
C439 C445 1.465 . S
C440 C435 1.399 . S
C440 C439 1.394 . S
C440 C441 1.516 . S
C441 C440 1.516 . S
C441 C442 1.502 . S
C441 C443 1.561 . S
C441 C444 1.526 . S
C442 H426 0.959 . S
C442 H427 0.959 . S
C442 H428 0.961 . S
C442 C441 1.502 . S
C443 H429 0.960 . S
C443 H430 0.961 . S
C443 H431 0.959 . S
C443 C441 1.561 . S
C444 C441 1.526 . S
C444 C445 1.396 . S
C444 C449 1.390 . S
C445 C439 1.465 . S
C445 C444 1.396 . S
C445 C446 1.399 . S
C446 H432 0.929 . S
C446 C445 1.399 . S
C446 C447 1.385 . S
C447 H433 0.931 . S
C447 C446 1.385 . S
C447 C448 1.389 . S
C448 C447 1.389 . S
C448 C449 1.387 . S
C449 H434 0.930 . S
C449 C444 1.390 . S
C449 C448 1.387 . S
H450 C462 0.930 . S
H451 C464 0.930 . S
H452 C465 0.930 . S
H453 C469 0.959 . S
H454 C469 0.959 . S
H455 C469 0.961 . S
H456 C470 0.960 . S
H457 C470 0.961 . S
H458 C470 0.959 . S
H459 C473 0.929 . S
H460 C474 0.931 . S
H461 C476 0.930 . S
C462 H450 0.930 . S
C462 C463 1.399 . S
C462 C467 1.399 . S
C463 C462 1.399 . S
C463 C464 1.376 . S
C464 H451 0.930 . S
C464 C463 1.376 . S
C464 C465 1.388 . S
C465 H452 0.930 . S
C465 C464 1.388 . S
C465 C466 1.390 . S
C466 C465 1.390 . S
C466 C467 1.394 . S
C466 C472 1.465 . S
C467 C462 1.399 . S
C467 C466 1.394 . S
C467 C468 1.516 . S
C468 C467 1.516 . S
C468 C469 1.502 . S
C468 C470 1.561 . S
C468 C471 1.526 . S
C469 H453 0.959 . S
C469 H454 0.959 . S
C469 H455 0.961 . S
C469 C468 1.502 . S
C470 H456 0.960 . S
C470 H457 0.961 . S
C470 H458 0.959 . S
C470 C468 1.561 . S
C471 C468 1.526 . S
C471 C472 1.396 . S
C471 C476 1.390 . S
C472 C466 1.465 . S
C472 C471 1.396 . S
C472 C473 1.399 . S
C473 H459 0.929 . S
C473 C472 1.399 . S
C473 C474 1.385 . S
C474 H460 0.931 . S
C474 C473 1.385 . S
C474 C475 1.389 . S
C475 C474 1.389 . S
C475 C476 1.387 . S
C476 H461 0.930 . S
C476 C471 1.390 . S
C476 C475 1.387 . S
H477 C489 0.930 . S
H478 C491 0.930 . S
H479 C492 0.930 . S
H480 C496 0.959 . S
H481 C496 0.959 . S
H482 C496 0.961 . S
H483 C497 0.960 . S
H484 C497 0.961 . S
H485 C497 0.959 . S
H486 C500 0.929 . S
H487 C501 0.931 . S
H488 C503 0.930 . S
C489 H477 0.930 . S
C489 C490 1.399 . S
C489 C494 1.399 . S
C490 C489 1.399 . S
C490 C491 1.376 . S
C491 H478 0.930 . S
C491 C490 1.376 . S
C491 C492 1.388 . S
C492 H479 0.930 . S
C492 C491 1.388 . S
C492 C493 1.390 . S
C493 C492 1.390 . S
C493 C494 1.394 . S
C493 C499 1.465 . S
C494 C489 1.399 . S
C494 C493 1.394 . S
C494 C495 1.516 . S
C495 C494 1.516 . S
C495 C496 1.502 . S
C495 C497 1.561 . S
C495 C498 1.526 . S
C496 H480 0.959 . S
C496 H481 0.959 . S
C496 H482 0.961 . S
C496 C495 1.502 . S
C497 H483 0.960 . S
C497 H484 0.961 . S
C497 H485 0.959 . S
C497 C495 1.561 . S
C498 C495 1.526 . S
C498 C499 1.396 . S
C498 C503 1.390 . S
C499 C493 1.465 . S
C499 C498 1.396 . S
C499 C500 1.399 . S
C500 H486 0.929 . S
C500 C499 1.399 . S
C500 C501 1.385 . S
C501 H487 0.931 . S
C501 C500 1.385 . S
C501 C502 1.389 . S
C502 C501 1.389 . S
C502 C503 1.387 . S
C503 H488 0.930 . S
C503 C498 1.390 . S
C503 C502 1.387 . S
H504 C516 0.930 . S
H505 C518 0.930 . S
H506 C519 0.930 . S
H507 C523 0.959 . S
H508 C523 0.959 . S
H509 C523 0.961 . S
H510 C524 0.960 . S
H511 C524 0.961 . S
H512 C524 0.959 . S
H513 C527 0.929 . S
H514 C528 0.931 . S
H515 C530 0.930 . S
C516 H504 0.930 . S
C516 C517 1.399 . S
C516 C521 1.399 . S
C517 C516 1.399 . S
C517 C518 1.376 . S
C518 H505 0.930 . S
C518 C517 1.376 . S
C518 C519 1.388 . S
C519 H506 0.930 . S
C519 C518 1.388 . S
C519 C520 1.390 . S
C520 C519 1.390 . S
C520 C521 1.394 . S
C520 C526 1.465 . S
C521 C516 1.399 . S
C521 C520 1.394 . S
C521 C522 1.516 . S
C522 C521 1.516 . S
C522 C523 1.502 . S
C522 C524 1.561 . S
C522 C525 1.526 . S
C523 H507 0.959 . S
C523 H508 0.959 . S
C523 H509 0.961 . S
C523 C522 1.502 . S
C524 H510 0.960 . S
C524 H511 0.961 . S
C524 H512 0.959 . S
C524 C522 1.561 . S
C525 C522 1.526 . S
C525 C526 1.396 . S
C525 C530 1.390 . S
C526 C520 1.465 . S
C526 C525 1.396 . S
C526 C527 1.399 . S
C527 H513 0.929 . S
C527 C526 1.399 . S
C527 C528 1.385 . S
C528 H514 0.931 . S
C528 C527 1.385 . S
C528 C529 1.389 . S
C529 C528 1.389 . S
C529 C530 1.387 . S
C530 H515 0.930 . S
C530 C525 1.390 . S
C530 C529 1.387 . S
H531 C543 0.930 . S
H532 C545 0.930 . S
H533 C546 0.930 . S
H534 C550 0.959 . S
H535 C550 0.959 . S
H536 C550 0.961 . S
H537 C551 0.960 . S
H538 C551 0.961 . S
H539 C551 0.959 . S
H540 C554 0.929 . S
H541 C555 0.931 . S
H542 C557 0.930 . S
C543 H531 0.930 . S
C543 C544 1.399 . S
C543 C548 1.399 . S
C544 C543 1.399 . S
C544 C545 1.376 . S
C545 H532 0.930 . S
C545 C544 1.376 . S
C545 C546 1.388 . S
C546 H533 0.930 . S
C546 C545 1.388 . S
C546 C547 1.390 . S
C547 C546 1.390 . S
C547 C548 1.394 . S
C547 C553 1.465 . S
C548 C543 1.399 . S
C548 C547 1.394 . S
C548 C549 1.516 . S
C549 C548 1.516 . S
C549 C550 1.502 . S
C549 C551 1.561 . S
C549 C552 1.526 . S
C550 H534 0.959 . S
C550 H535 0.959 . S
C550 H536 0.961 . S
C550 C549 1.502 . S
C551 H537 0.960 . S
C551 H538 0.961 . S
C551 H539 0.959 . S
C551 C549 1.561 . S
C552 C549 1.526 . S
C552 C553 1.396 . S
C552 C557 1.390 . S
C553 C547 1.465 . S
C553 C552 1.396 . S
C553 C554 1.399 . S
C554 H540 0.929 . S
C554 C553 1.399 . S
C554 C555 1.385 . S
C555 H541 0.931 . S
C555 C554 1.385 . S
C555 C556 1.389 . S
C556 C555 1.389 . S
C556 C557 1.387 . S
C557 H542 0.930 . S
C557 C552 1.390 . S
C557 C556 1.387 . S
H558 C570 0.930 . S
H559 C572 0.930 . S
H560 C573 0.930 . S
H561 C577 0.959 . S
H562 C577 0.959 . S
H563 C577 0.961 . S
H564 C578 0.960 . S
H565 C578 0.961 . S
H566 C578 0.959 . S
H567 C581 0.929 . S
H568 C582 0.931 . S
H569 C584 0.930 . S
C570 H558 0.930 . S
C570 C571 1.399 . S
C570 C575 1.399 . S
C571 C570 1.399 . S
C571 C572 1.376 . S
C572 H559 0.930 . S
C572 C571 1.376 . S
C572 C573 1.388 . S
C573 H560 0.930 . S
C573 C572 1.388 . S
C573 C574 1.390 . S
C574 C573 1.390 . S
C574 C575 1.394 . S
C574 C580 1.465 . S
C575 C570 1.399 . S
C575 C574 1.394 . S
C575 C576 1.516 . S
C576 C575 1.516 . S
C576 C577 1.502 . S
C576 C578 1.561 . S
C576 C579 1.526 . S
C577 H561 0.959 . S
C577 H562 0.959 . S
C577 H563 0.961 . S
C577 C576 1.502 . S
C578 H564 0.960 . S
C578 H565 0.961 . S
C578 H566 0.959 . S
C578 C576 1.561 . S
C579 C576 1.526 . S
C579 C580 1.396 . S
C579 C584 1.390 . S
C580 C574 1.465 . S
C580 C579 1.396 . S
C580 C581 1.399 . S
C581 H567 0.929 . S
C581 C580 1.399 . S
C581 C582 1.385 . S
C582 H568 0.931 . S
C582 C581 1.385 . S
C582 C583 1.389 . S
C583 C582 1.389 . S
C583 C584 1.387 . S
C584 H569 0.930 . S
C584 C579 1.390 . S
C584 C583 1.387 . S
H585 C597 0.930 . S
H586 C599 0.930 . S
H587 C600 0.930 . S
H588 C604 0.959 . S
H589 C604 0.959 . S
H590 C604 0.961 . S
H591 C605 0.960 . S
H592 C605 0.961 . S
H593 C605 0.959 . S
H594 C608 0.929 . S
H595 C609 0.931 . S
H596 C611 0.930 . S
C597 H585 0.930 . S
C597 C598 1.399 . S
C597 C602 1.399 . S
C598 C597 1.399 . S
C598 C599 1.376 . S
C599 H586 0.930 . S
C599 C598 1.376 . S
C599 C600 1.388 . S
C600 H587 0.930 . S
C600 C599 1.388 . S
C600 C601 1.390 . S
C601 C600 1.390 . S
C601 C602 1.394 . S
C601 C607 1.465 . S
C602 C597 1.399 . S
C602 C601 1.394 . S
C602 C603 1.516 . S
C603 C602 1.516 . S
C603 C604 1.502 . S
C603 C605 1.561 . S
C603 C606 1.526 . S
C604 H588 0.959 . S
C604 H589 0.959 . S
C604 H590 0.961 . S
C604 C603 1.502 . S
C605 H591 0.960 . S
C605 H592 0.961 . S
C605 H593 0.959 . S
C605 C603 1.561 . S
C606 C603 1.526 . S
C606 C607 1.396 . S
C606 C611 1.390 . S
C607 C601 1.465 . S
C607 C606 1.396 . S
C607 C608 1.399 . S
C608 H594 0.929 . S
C608 C607 1.399 . S
C608 C609 1.385 . S
C609 H595 0.931 . S
C609 C608 1.385 . S
C609 C610 1.389 . S
C610 C609 1.389 . S
C610 C611 1.387 . S
C611 H596 0.930 . S
C611 C606 1.390 . S
C611 C610 1.387 . S
H612 C624 0.930 . S
H613 C626 0.930 . S
H614 C627 0.930 . S
H615 C631 0.959 . S
H616 C631 0.959 . S
H617 C631 0.961 . S
H618 C632 0.960 . S
H619 C632 0.961 . S
H620 C632 0.959 . S
H621 C635 0.929 . S
H622 C636 0.931 . S
H623 C638 0.930 . S
C624 H612 0.930 . S
C624 C625 1.399 1_556 S
C624 C629 1.399 . S
C625 C624 1.399 1_554 S
C625 C626 1.376 . S
C626 H613 0.930 . S
C626 C625 1.376 . S
C626 C627 1.388 . S
C627 H614 0.930 . S
C627 C626 1.388 . S
C627 C628 1.390 1_554 S
C628 C627 1.390 1_556 S
C628 C629 1.394 . S
C628 C634 1.465 . S
C629 C624 1.399 . S
C629 C628 1.394 . S
C629 C630 1.516 . S
C630 C629 1.516 . S
C630 C631 1.502 . S
C630 C632 1.561 . S
C630 C633 1.526 . S
C631 H615 0.959 . S
C631 H616 0.959 . S
C631 H617 0.961 . S
C631 C630 1.502 . S
C632 H618 0.960 . S
C632 H619 0.961 . S
C632 H620 0.959 . S
C632 C630 1.561 . S
C633 C630 1.526 . S
C633 C634 1.396 . S
C633 C638 1.390 . S
C634 C628 1.465 . S
C634 C633 1.396 . S
C634 C635 1.399 . S
C635 H621 0.929 . S
C635 C634 1.399 . S
C635 C636 1.385 . S
C636 H622 0.931 . S
C636 C635 1.385 . S
C636 C637 1.389 . S
C637 C636 1.389 . S
C637 C638 1.387 . S
C638 H623 0.930 . S
C638 C633 1.390 . S
C638 C637 1.387 . S
H639 C651 0.930 . S
H640 C653 0.930 . S
H641 C654 0.930 . S
H642 C658 0.959 . S
H643 C658 0.959 . S
H644 C658 0.961 . S
H645 C659 0.960 . S
H646 C659 0.961 . S
H647 C659 0.959 . S
H648 C662 0.929 . S
H649 C663 0.931 . S
H650 C665 0.930 . S
C651 H639 0.930 . S
C651 C652 1.399 . S
C651 C656 1.399 . S
C652 C651 1.399 . S
C652 C653 1.376 . S
C653 H640 0.930 . S
C653 C652 1.376 . S
C653 C654 1.388 . S
C654 H641 0.930 . S
C654 C653 1.388 . S
C654 C655 1.390 . S
C655 C654 1.390 . S
C655 C656 1.394 . S
C655 C661 1.465 . S
C656 C651 1.399 . S
C656 C655 1.394 . S
C656 C657 1.516 . S
C657 C656 1.516 . S
C657 C658 1.502 . S
C657 C659 1.561 . S
C657 C660 1.526 . S
C658 H642 0.959 . S
C658 H643 0.959 . S
C658 H644 0.961 . S
C658 C657 1.502 . S
C659 H645 0.960 . S
C659 H646 0.961 . S
C659 H647 0.959 . S
C659 C657 1.561 . S
C660 C657 1.526 . S
C660 C661 1.396 . S
C660 C665 1.390 . S
C661 C655 1.465 . S
C661 C660 1.396 . S
C661 C662 1.399 . S
C662 H648 0.929 . S
C662 C661 1.399 . S
C662 C663 1.385 . S
C663 H649 0.931 . S
C663 C662 1.385 . S
C663 C664 1.389 . S
C664 C663 1.389 . S
C664 C665 1.387 . S
C665 H650 0.930 . S
C665 C660 1.390 . S
C665 C664 1.387 . S
H666 C678 0.930 . S
H667 C680 0.930 . S
H668 C681 0.930 1_554 S
H669 C685 0.959 . S
H670 C685 0.959 . S
H671 C685 0.961 . S
H672 C686 0.960 . S
H673 C686 0.961 . S
H674 C686 0.959 . S
H675 C689 0.929 . S
H676 C690 0.931 . S
H677 C692 0.930 . S
C678 H666 0.930 . S
C678 C679 1.399 . S
C678 C683 1.399 . S
C679 C678 1.399 . S
C679 C680 1.376 1_556 S
C680 H667 0.930 . S
C680 C679 1.376 1_554 S
C680 C681 1.388 1_554 S
C681 H668 0.930 1_556 S
C681 C680 1.388 1_556 S
C681 C682 1.390 . S
C682 C681 1.390 . S
C682 C683 1.394 . S
C682 C688 1.465 . S
C683 C678 1.399 . S
C683 C682 1.394 . S
C683 C684 1.516 . S
C684 C683 1.516 . S
C684 C685 1.502 . S
C684 C686 1.561 . S
C684 C687 1.526 . S
C685 H669 0.959 . S
C685 H670 0.959 . S
C685 H671 0.961 . S
C685 C684 1.502 . S
C686 H672 0.960 . S
C686 H673 0.961 . S
C686 H674 0.959 . S
C686 C684 1.561 . S
C687 C684 1.526 . S
C687 C688 1.396 . S
C687 C692 1.390 . S
C688 C682 1.465 . S
C688 C687 1.396 . S
C688 C689 1.399 . S
C689 H675 0.929 . S
C689 C688 1.399 . S
C689 C690 1.385 . S
C690 H676 0.931 . S
C690 C689 1.385 . S
C690 C691 1.389 . S
C691 C690 1.389 . S
C691 C692 1.387 . S
C692 H677 0.930 . S
C692 C687 1.390 . S
C692 C691 1.387 . S
H693 C705 0.930 . S
H694 C707 0.930 . S
H695 C708 0.930 . S
H696 C712 0.959 . S
H697 C712 0.959 . S
H698 C712 0.961 . S
H699 C713 0.960 . S
H700 C713 0.961 . S
H701 C713 0.959 . S
H702 C716 0.929 . S
H703 C717 0.931 . S
H704 C719 0.930 . S
C705 H693 0.930 . S
C705 C706 1.399 . S
C705 C710 1.399 . S
C706 C705 1.399 . S
C706 C707 1.376 . S
C707 H694 0.930 . S
C707 C706 1.376 . S
C707 C708 1.388 . S
C708 H695 0.930 . S
C708 C707 1.388 . S
C708 C709 1.390 . S
C709 C708 1.390 . S
C709 C710 1.394 . S
C709 C715 1.465 . S
C710 C705 1.399 . S
C710 C709 1.394 . S
C710 C711 1.516 . S
C711 C710 1.516 . S
C711 C712 1.502 . S
C711 C713 1.561 . S
C711 C714 1.526 . S
C712 H696 0.959 . S
C712 H697 0.959 . S
C712 H698 0.961 . S
C712 C711 1.502 . S
C713 H699 0.960 . S
C713 H700 0.961 . S
C713 H701 0.959 . S
C713 C711 1.561 . S
C714 C711 1.526 . S
C714 C715 1.396 . S
C714 C719 1.390 . S
C715 C709 1.465 . S
C715 C714 1.396 . S
C715 C716 1.399 . S
C716 H702 0.929 . S
C716 C715 1.399 . S
C716 C717 1.385 . S
C717 H703 0.931 . S
C717 C716 1.385 . S
C717 C718 1.389 . S
C718 C717 1.389 . S
C718 C719 1.387 . S
C719 H704 0.930 . S
C719 C714 1.390 . S
C719 C718 1.387 . S
H720 C732 0.930 . S
H721 C734 0.930 . S
H722 C735 0.930 . S
H723 C739 0.959 . S
H724 C739 0.959 . S
H725 C739 0.961 . S
H726 C740 0.960 . S
H727 C740 0.961 . S
H728 C740 0.959 . S
H729 C743 0.929 . S
H730 C744 0.931 . S
H731 C746 0.930 . S
C732 H720 0.930 . S
C732 C733 1.399 . S
C732 C737 1.399 . S
C733 C732 1.399 . S
C733 C734 1.376 . S
C734 H721 0.930 . S
C734 C733 1.376 . S
C734 C735 1.388 . S
C735 H722 0.930 . S
C735 C734 1.388 . S
C735 C736 1.390 . S
C736 C735 1.390 . S
C736 C737 1.394 . S
C736 C742 1.465 . S
C737 C732 1.399 . S
C737 C736 1.394 . S
C737 C738 1.516 . S
C738 C737 1.516 . S
C738 C739 1.502 . S
C738 C740 1.561 . S
C738 C741 1.526 . S
C739 H723 0.959 . S
C739 H724 0.959 . S
C739 H725 0.961 . S
C739 C738 1.502 . S
C740 H726 0.960 . S
C740 H727 0.961 . S
C740 H728 0.959 . S
C740 C738 1.561 . S
C741 C738 1.526 . S
C741 C742 1.396 . S
C741 C746 1.390 . S
C742 C736 1.465 . S
C742 C741 1.396 . S
C742 C743 1.399 . S
C743 H729 0.929 . S
C743 C742 1.399 . S
C743 C744 1.385 . S
C744 H730 0.931 . S
C744 C743 1.385 . S
C744 C745 1.389 . S
C745 C744 1.389 . S
C745 C746 1.387 . S
C746 H731 0.930 . S
C746 C741 1.390 . S
C746 C745 1.387 . S
H747 C759 0.930 . S
H748 C761 0.930 . S
H749 C762 0.930 . S
H750 C766 0.959 . S
H751 C766 0.959 . S
H752 C766 0.961 1_554 S
H753 C767 0.960 . S
H754 C767 0.961 . S
H755 C767 0.959 . S
H756 C770 0.929 . S
H757 C771 0.931 . S
H758 C773 0.930 . S
C759 H747 0.930 . S
C759 C760 1.399 . S
C759 C764 1.399 1_554 S
C760 C759 1.399 . S
C760 C761 1.376 1_554 S
C761 H748 0.930 . S
C761 C760 1.376 1_556 S
C761 C762 1.388 . S
C762 H749 0.930 . S
C762 C761 1.388 . S
C762 C763 1.390 . S
C763 C762 1.390 . S
C763 C764 1.394 . S
C763 C769 1.465 . S
C764 C759 1.399 1_556 S
C764 C763 1.394 . S
C764 C765 1.516 . S
C765 C764 1.516 . S
C765 C766 1.502 . S
C765 C767 1.561 1_556 S
C765 C768 1.526 . S
C766 H750 0.959 . S
C766 H751 0.959 . S
C766 H752 0.961 1_556 S
C766 C765 1.502 . S
C767 H753 0.960 . S
C767 H754 0.961 . S
C767 H755 0.959 . S
C767 C765 1.561 1_554 S
C768 C765 1.526 . S
C768 C769 1.396 . S
C768 C773 1.390 . S
C769 C763 1.465 . S
C769 C768 1.396 . S
C769 C770 1.399 . S
C770 H756 0.929 . S
C770 C769 1.399 . S
C770 C771 1.385 . S
C771 H757 0.931 . S
C771 C770 1.385 . S
C771 C772 1.389 . S
C772 C771 1.389 . S
C772 C773 1.387 . S
C773 H758 0.930 . S
C773 C768 1.390 . S
C773 C772 1.387 . S
H774 C786 0.930 . S
H775 C788 0.930 . S
H776 C789 0.930 . S
H777 C793 0.959 . S
H778 C793 0.959 . S
H779 C793 0.961 . S
H780 C794 0.960 . S
H781 C794 0.961 . S
H782 C794 0.959 . S
H783 C797 0.929 . S
H784 C798 0.931 . S
H785 C800 0.930 . S
C786 H774 0.930 . S
C786 C787 1.399 . S
C786 C791 1.399 . S
C787 C786 1.399 . S
C787 C788 1.376 . S
C788 H775 0.930 . S
C788 C787 1.376 . S
C788 C789 1.388 . S
C789 H776 0.930 . S
C789 C788 1.388 . S
C789 C790 1.390 . S
C790 C789 1.390 . S
C790 C791 1.394 . S
C790 C796 1.465 . S
C791 C786 1.399 . S
C791 C790 1.394 . S
C791 C792 1.516 . S
C792 C791 1.516 . S
C792 C793 1.502 . S
C792 C794 1.561 . S
C792 C795 1.526 . S
C793 H777 0.959 . S
C793 H778 0.959 . S
C793 H779 0.961 . S
C793 C792 1.502 . S
C794 H780 0.960 . S
C794 H781 0.961 . S
C794 H782 0.959 . S
C794 C792 1.561 . S
C795 C792 1.526 . S
C795 C796 1.396 . S
C795 C800 1.390 . S
C796 C790 1.465 . S
C796 C795 1.396 . S
C796 C797 1.399 . S
C797 H783 0.929 . S
C797 C796 1.399 . S
C797 C798 1.385 . S
C798 H784 0.931 . S
C798 C797 1.385 . S
C798 C799 1.389 . S
C799 C798 1.389 . S
C799 C800 1.387 . S
C800 H785 0.930 . S
C800 C795 1.390 . S
C800 C799 1.387 . S
H801 C813 0.930 . S
H802 C815 0.930 . S
H803 C816 0.930 . S
H804 C820 0.959 . S
H805 C820 0.959 . S
H806 C820 0.961 . S
H807 C821 0.960 . S
H808 C821 0.961 . S
H809 C821 0.959 . S
H810 C824 0.929 . S
H811 C825 0.931 . S
H812 C827 0.930 . S
C813 H801 0.930 . S
C813 C814 1.399 . S
C813 C818 1.399 . S
C814 C813 1.399 . S
C814 C815 1.376 . S
C815 H802 0.930 . S
C815 C814 1.376 . S
C815 C816 1.388 . S
C816 H803 0.930 . S
C816 C815 1.388 . S
C816 C817 1.390 . S
C817 C816 1.390 . S
C817 C818 1.394 . S
C817 C823 1.465 . S
C818 C813 1.399 . S
C818 C817 1.394 . S
C818 C819 1.516 . S
C819 C818 1.516 . S
C819 C820 1.502 . S
C819 C821 1.561 . S
C819 C822 1.526 . S
C820 H804 0.959 . S
C820 H805 0.959 . S
C820 H806 0.961 . S
C820 C819 1.502 . S
C821 H807 0.960 . S
C821 H808 0.961 . S
C821 H809 0.959 . S
C821 C819 1.561 . S
C822 C819 1.526 . S
C822 C823 1.396 . S
C822 C827 1.390 . S
C823 C817 1.465 . S
C823 C822 1.396 . S
C823 C824 1.399 . S
C824 H810 0.929 . S
C824 C823 1.399 . S
C824 C825 1.385 . S
C825 H811 0.931 . S
C825 C824 1.385 . S
C825 C826 1.389 . S
C826 C825 1.389 . S
C826 C827 1.387 . S
C827 H812 0.930 . S
C827 C822 1.390 . S
C827 C826 1.387 . S
H828 C840 0.930 . S
H829 C842 0.930 . S
H830 C843 0.930 . S
H831 C847 0.959 . S
H832 C847 0.959 . S
H833 C847 0.961 . S
H834 C848 0.960 . S
H835 C848 0.961 . S
H836 C848 0.959 . S
H837 C851 0.929 . S
H838 C852 0.931 . S
H839 C854 0.930 . S
C840 H828 0.930 . S
C840 C841 1.399 . S
C840 C845 1.399 . S
C841 C840 1.399 . S
C841 C842 1.376 . S
C842 H829 0.930 . S
C842 C841 1.376 . S
C842 C843 1.388 . S
C843 H830 0.930 . S
C843 C842 1.388 . S
C843 C844 1.390 . S
C844 C843 1.390 . S
C844 C845 1.394 . S
C844 C850 1.465 . S
C845 C840 1.399 . S
C845 C844 1.394 . S
C845 C846 1.516 . S
C846 C845 1.516 . S
C846 C847 1.502 . S
C846 C848 1.561 . S
C846 C849 1.526 . S
C847 H831 0.959 . S
C847 H832 0.959 . S
C847 H833 0.961 . S
C847 C846 1.502 . S
C848 H834 0.960 . S
C848 H835 0.961 . S
C848 H836 0.959 . S
C848 C846 1.561 . S
C849 C846 1.526 . S
C849 C850 1.396 . S
C849 C854 1.390 . S
C850 C844 1.465 . S
C850 C849 1.396 . S
C850 C851 1.399 . S
C851 H837 0.929 . S
C851 C850 1.399 . S
C851 C852 1.385 . S
C852 H838 0.931 . S
C852 C851 1.385 . S
C852 C853 1.389 . S
C853 C852 1.389 . S
C853 C854 1.387 . S
C854 H839 0.930 . S
C854 C849 1.390 . S
C854 C853 1.387 . S
H855 C867 0.930 . S
H856 C869 0.930 . S
H857 C870 0.930 . S
H858 C874 0.959 . S
H859 C874 0.959 . S
H860 C874 0.961 . S
H861 C875 0.960 . S
H862 C875 0.961 . S
H863 C875 0.959 . S
H864 C878 0.929 . S
H865 C879 0.931 . S
H866 C881 0.930 . S
C867 H855 0.930 . S
C867 C868 1.399 . S
C867 C872 1.399 . S
C868 C867 1.399 . S
C868 C869 1.376 . S
C869 H856 0.930 . S
C869 C868 1.376 . S
C869 C870 1.388 . S
C870 H857 0.930 . S
C870 C869 1.388 . S
C870 C871 1.390 . S
C871 C870 1.390 . S
C871 C872 1.394 . S
C871 C877 1.465 . S
C872 C867 1.399 . S
C872 C871 1.394 . S
C872 C873 1.516 . S
C873 C872 1.516 . S
C873 C874 1.502 . S
C873 C875 1.561 . S
C873 C876 1.526 . S
C874 H858 0.959 . S
C874 H859 0.959 . S
C874 H860 0.961 . S
C874 C873 1.502 . S
C875 H861 0.960 . S
C875 H862 0.961 . S
C875 H863 0.959 . S
C875 C873 1.561 . S
C876 C873 1.526 . S
C876 C877 1.396 . S
C876 C881 1.390 . S
C877 C871 1.465 . S
C877 C876 1.396 . S
C877 C878 1.399 . S
C878 H864 0.929 . S
C878 C877 1.399 . S
C878 C879 1.385 . S
C879 H865 0.931 . S
C879 C878 1.385 . S
C879 C880 1.389 . S
C880 C879 1.389 . S
C880 C881 1.387 . S
C881 H866 0.930 . S
C881 C876 1.390 . S
C881 C880 1.387 . S
H882 C894 0.930 . S
H883 C896 0.930 . S
H884 C897 0.930 . S
H885 C901 0.959 . S
H886 C901 0.959 . S
H887 C901 0.961 . S
H888 C902 0.960 . S
H889 C902 0.961 . S
H890 C902 0.959 . S
H891 C905 0.929 . S
H892 C906 0.931 . S
H893 C908 0.930 . S
C894 H882 0.930 . S
C894 C895 1.399 . S
C894 C899 1.399 . S
C895 C894 1.399 . S
C895 C896 1.376 . S
C896 H883 0.930 . S
C896 C895 1.376 . S
C896 C897 1.388 . S
C897 H884 0.930 . S
C897 C896 1.388 . S
C897 C898 1.390 . S
C898 C897 1.390 . S
C898 C899 1.394 . S
C898 C904 1.465 . S
C899 C894 1.399 . S
C899 C898 1.394 . S
C899 C900 1.516 . S
C900 C899 1.516 . S
C900 C901 1.502 . S
C900 C902 1.561 . S
C900 C903 1.526 . S
C901 H885 0.959 . S
C901 H886 0.959 . S
C901 H887 0.961 . S
C901 C900 1.502 . S
C902 H888 0.960 . S
C902 H889 0.961 . S
C902 H890 0.959 . S
C902 C900 1.561 . S
C903 C900 1.526 . S
C903 C904 1.396 . S
C903 C908 1.390 . S
C904 C898 1.465 . S
C904 C903 1.396 . S
C904 C905 1.399 . S
C905 H891 0.929 . S
C905 C904 1.399 . S
C905 C906 1.385 . S
C906 H892 0.931 . S
C906 C905 1.385 . S
C906 C907 1.389 . S
C907 C906 1.389 . S
C907 C908 1.387 . S
C908 H893 0.930 . S
C908 C903 1.390 . S
C908 C907 1.387 . S
H909 C921 0.930 . S
H910 C923 0.930 . S
H911 C924 0.930 . S
H912 C928 0.959 . S
H913 C928 0.959 . S
H914 C928 0.961 . S
H915 C929 0.960 . S
H916 C929 0.961 . S
H917 C929 0.959 . S
H918 C932 0.929 . S
H919 C933 0.931 . S
H920 C935 0.930 . S
C921 H909 0.930 . S
C921 C922 1.399 . S
C921 C926 1.399 . S
C922 C921 1.399 . S
C922 C923 1.376 . S
C923 H910 0.930 . S
C923 C922 1.376 . S
C923 C924 1.388 . S
C924 H911 0.930 . S
C924 C923 1.388 . S
C924 C925 1.390 . S
C925 C924 1.390 . S
C925 C926 1.394 . S
C925 C931 1.465 . S
C926 C921 1.399 . S
C926 C925 1.394 . S
C926 C927 1.516 . S
C927 C926 1.516 . S
C927 C928 1.502 . S
C927 C929 1.561 . S
C927 C930 1.526 . S
C928 H912 0.959 . S
C928 H913 0.959 . S
C928 H914 0.961 . S
C928 C927 1.502 . S
C929 H915 0.960 . S
C929 H916 0.961 . S
C929 H917 0.959 . S
C929 C927 1.561 . S
C930 C927 1.526 . S
C930 C931 1.396 . S
C930 C935 1.390 . S
C931 C925 1.465 . S
C931 C930 1.396 . S
C931 C932 1.399 . S
C932 H918 0.929 . S
C932 C931 1.399 . S
C932 C933 1.385 . S
C933 H919 0.931 . S
C933 C932 1.385 . S
C933 C934 1.389 . S
C934 C933 1.389 . S
C934 C935 1.387 . S
C935 H920 0.930 . S
C935 C930 1.390 . S
C935 C934 1.387 . S
H936 C948 0.930 . S
H937 C950 0.930 . S
H938 C951 0.930 . S
H939 C955 0.959 . S
H940 C955 0.959 . S
H941 C955 0.961 . S
H942 C956 0.960 . S
H943 C956 0.961 . S
H944 C956 0.959 . S
H945 C959 0.929 . S
H946 C960 0.931 . S
H947 C962 0.930 . S
C948 H936 0.930 . S
C948 C949 1.399 . S
C948 C953 1.399 . S
C949 C948 1.399 . S
C949 C950 1.376 . S
C950 H937 0.930 . S
C950 C949 1.376 . S
C950 C951 1.388 . S
C951 H938 0.930 . S
C951 C950 1.388 . S
C951 C952 1.390 . S
C952 C951 1.390 . S
C952 C953 1.394 . S
C952 C958 1.465 . S
C953 C948 1.399 . S
C953 C952 1.394 . S
C953 C954 1.516 . S
C954 C953 1.516 . S
C954 C955 1.502 . S
C954 C956 1.561 . S
C954 C957 1.526 . S
C955 H939 0.959 . S
C955 H940 0.959 . S
C955 H941 0.961 . S
C955 C954 1.502 . S
C956 H942 0.960 . S
C956 H943 0.961 . S
C956 H944 0.959 . S
C956 C954 1.561 . S
C957 C954 1.526 . S
C957 C958 1.396 . S
C957 C962 1.390 . S
C958 C952 1.465 . S
C958 C957 1.396 . S
C958 C959 1.399 . S
C959 H945 0.929 . S
C959 C958 1.399 . S
C959 C960 1.385 . S
C960 H946 0.931 . S
C960 C959 1.385 . S
C960 C961 1.389 . S
C961 C960 1.389 . S
C961 C962 1.387 . S
C962 H947 0.930 . S
C962 C957 1.390 . S
C962 C961 1.387 . S
H963 C975 0.930 . S
H964 C977 0.930 . S
H965 C978 0.930 . S
H966 C982 0.959 . S
H967 C982 0.959 . S
H968 C982 0.961 . S
H969 C983 0.960 . S
H970 C983 0.961 . S
H971 C983 0.959 . S
H972 C986 0.929 . S
H973 C987 0.931 . S
H974 C989 0.930 . S
C975 H963 0.930 . S
C975 C976 1.399 . S
C975 C980 1.399 . S
C976 C975 1.399 . S
C976 C977 1.376 . S
C977 H964 0.930 . S
C977 C976 1.376 . S
C977 C978 1.388 . S
C978 H965 0.930 . S
C978 C977 1.388 . S
C978 C979 1.390 . S
C979 C978 1.390 . S
C979 C980 1.394 . S
C979 C985 1.465 . S
C980 C975 1.399 . S
C980 C979 1.394 . S
C980 C981 1.516 . S
C981 C980 1.516 . S
C981 C982 1.502 . S
C981 C983 1.561 . S
C981 C984 1.526 . S
C982 H966 0.959 . S
C982 H967 0.959 . S
C982 H968 0.961 . S
C982 C981 1.502 . S
C983 H969 0.960 . S
C983 H970 0.961 . S
C983 H971 0.959 . S
C983 C981 1.561 . S
C984 C981 1.526 . S
C984 C985 1.396 . S
C984 C989 1.390 . S
C985 C979 1.465 . S
C985 C984 1.396 . S
C985 C986 1.399 . S
C986 H972 0.929 . S
C986 C985 1.399 . S
C986 C987 1.385 . S
C987 H973 0.931 . S
C987 C986 1.385 . S
C987 C988 1.389 . S
C988 C987 1.389 . S
C988 C989 1.387 . S
C989 H974 0.930 . S
C989 C984 1.390 . S
C989 C988 1.387 . S
H990 C1002 0.930 . S
H991 C1004 0.930 . S
H992 C1005 0.930 . S
H993 C1009 0.959 . S
H994 C1009 0.959 . S
H995 C1009 0.961 . S
H996 C1010 0.960 . S
H997 C1010 0.961 . S
H998 C1010 0.959 . S
H999 C1013 0.929 . S
H1000 C1014 0.931 . S
H1001 C1016 0.930 . S
C1002 H990 0.930 . S
C1002 C1003 1.399 . S
C1002 C1007 1.399 . S
C1003 C1002 1.399 . S
C1003 C1004 1.376 . S
C1004 H991 0.930 . S
C1004 C1003 1.376 . S
C1004 C1005 1.388 . S
C1005 H992 0.930 . S
C1005 C1004 1.388 . S
C1005 C1006 1.390 . S
C1006 C1005 1.390 . S
C1006 C1007 1.394 . S
C1006 C1012 1.465 . S
C1007 C1002 1.399 . S
C1007 C1006 1.394 . S
C1007 C1008 1.516 . S
C1008 C1007 1.516 . S
C1008 C1009 1.502 . S
C1008 C1010 1.561 . S
C1008 C1011 1.526 . S
C1009 H993 0.959 . S
C1009 H994 0.959 . S
C1009 H995 0.961 . S
C1009 C1008 1.502 . S
C1010 H996 0.960 . S
C1010 H997 0.961 . S
C1010 H998 0.959 . S
C1010 C1008 1.561 . S
C1011 C1008 1.526 . S
C1011 C1012 1.396 . S
C1011 C1016 1.390 . S
C1012 C1006 1.465 . S
C1012 C1011 1.396 . S
C1012 C1013 1.399 . S
C1013 H999 0.929 . S
C1013 C1012 1.399 . S
C1013 C1014 1.385 . S
C1014 H1000 0.931 . S
C1014 C1013 1.385 . S
C1014 C1015 1.389 . S
C1015 C1014 1.389 . S
C1015 C1016 1.387 . S
C1016 H1001 0.930 . S
C1016 C1011 1.390 . S
C1016 C1015 1.387 . S
C382 C15 1.836 . S
C394 C287 1.810 . S
C409 C47 1.636 . S
C421 C334 1.630 . S
C448 C338 1.798 . S
C436 C100 1.872 . S
C475 C303 1.540 . S
C463 C146 1.551 . S
C490 C192 1.783 . S
C502 C318 1.732 . S
C529 C340 0.945 . S
C517 C245 1.072 . S
C556 C309 1.451 . S
C544 C114 1.434 . S
C571 C160 1.449 . S
C583 C349 1.370 . S
C610 C278 1.364 . S
C598 C206 1.343 . S
C625 C231 1.471 . S
C637 C307 1.464 . S
C652 C1 1.946 1_556 S
C664 C365 1.920 . S
C691 C276 1.523 . S
C679 C61 1.534 1_556 S
C718 C294 1.796 . S
C706 C139 1.840 . S
C745 C308 1.572 . S
C733 C185 1.637 . S
C772 C362 1.817 . S
C760 C252 1.861 . S
C799 C277 1.503 . S
C787 C22 1.570 1_556 S
C826 C325 1.755 . S
C814 C54 1.765 . S
C841 C93 1.078 . S
C853 C348 0.945 . S
C880 C317 1.383 . S
C868 C238 1.474 . S
C907 C356 1.360 . S
C895 C8 1.419 . S
C934 C286 1.342 . S
C922 C68 1.363 . S
C961 C331 1.394 . S
C949 C107 1.493 . S
C976 C153 1.944 . S
C988 C339 1.905 . S
C1003 C199 1.561 . S
C1015 C300 1.532 . S
