# Generated by pormake.
# Topology pto, (3,4)-cn, num edge types: 1
# Building blocks:
#     Node 0, Type 0, BuildingBlock: CUQRIR_clean_linker_1, # of connection points: 3
#     Node 1, Type 0, BuildingBlock: CUQRIR_clean_linker_1, # of connection points: 3
#     Node 2, Type 0, BuildingBlock: CUQRIR_clean_linker_1, # of connection points: 3
#     Node 3, Type 0, BuildingBlock: CUQRIR_clean_linker_1, # of connection points: 3
#     Node 4, Type 0, BuildingBlock: CUQRIR_clean_linker_1, # of connection points: 3
#     Node 5, Type 0, BuildingBlock: CUQRIR_clean_linker_1, # of connection points: 3
#     Node 6, Type 0, BuildingBlock: CUQRIR_clean_linker_1, # of connection points: 3
#     Node 7, Type 0, BuildingBlock: CUQRIR_clean_linker_1, # of connection points: 3
#     Node 8, Type 1, BuildingBlock: KOZSID_clean_sbu_0, # of connection points: 4
#     Node 9, Type 1, BuildingBlock: KOZSID_clean_sbu_0, # of connection points: 4
#     Node 10, Type 1, BuildingBlock: KOZSID_clean_sbu_0, # of connection points: 4
#     Node 11, Type 1, BuildingBlock: KOZSID_clean_sbu_0, # of connection points: 4
#     Node 12, Type 1, BuildingBlock: KOZSID_clean_sbu_0, # of connection points: 4
#     Node 13, Type 1, BuildingBlock: KOZSID_clean_sbu_0, # of connection points: 4
#     Edge 14, Type (0, 1), BuildingBlock: AJUNOK_clean_linker_0, # of connection points: 2
#     Edge 15, Type (0, 1), BuildingBlock: AJUNOK_clean_linker_0, # of connection points: 2
#     Edge 16, Type (0, 1), BuildingBlock: AJUNOK_clean_linker_0, # of connection points: 2
#     Edge 17, Type (0, 1), BuildingBlock: AJUNOK_clean_linker_0, # of connection points: 2
#     Edge 18, Type (0, 1), BuildingBlock: AJUNOK_clean_linker_0, # of connection points: 2
#     Edge 19, Type (0, 1), BuildingBlock: AJUNOK_clean_linker_0, # of connection points: 2
#     Edge 20, Type (0, 1), BuildingBlock: AJUNOK_clean_linker_0, # of connection points: 2
#     Edge 21, Type (0, 1), BuildingBlock: AJUNOK_clean_linker_0, # of connection points: 2
#     Edge 22, Type (0, 1), BuildingBlock: AJUNOK_clean_linker_0, # of connection points: 2
#     Edge 23, Type (0, 1), BuildingBlock: AJUNOK_clean_linker_0, # of connection points: 2
#     Edge 24, Type (0, 1), BuildingBlock: AJUNOK_clean_linker_0, # of connection points: 2
#     Edge 25, Type (0, 1), BuildingBlock: AJUNOK_clean_linker_0, # of connection points: 2
#     Edge 26, Type (0, 1), BuildingBlock: AJUNOK_clean_linker_0, # of connection points: 2
#     Edge 27, Type (0, 1), BuildingBlock: AJUNOK_clean_linker_0, # of connection points: 2
#     Edge 28, Type (0, 1), BuildingBlock: AJUNOK_clean_linker_0, # of connection points: 2
#     Edge 29, Type (0, 1), BuildingBlock: AJUNOK_clean_linker_0, # of connection points: 2
#     Edge 30, Type (0, 1), BuildingBlock: AJUNOK_clean_linker_0, # of connection points: 2
#     Edge 31, Type (0, 1), BuildingBlock: AJUNOK_clean_linker_0, # of connection points: 2
#     Edge 32, Type (0, 1), BuildingBlock: AJUNOK_clean_linker_0, # of connection points: 2
#     Edge 33, Type (0, 1), BuildingBlock: AJUNOK_clean_linker_0, # of connection points: 2
#     Edge 34, Type (0, 1), BuildingBlock: AJUNOK_clean_linker_0, # of connection points: 2
#     Edge 35, Type (0, 1), BuildingBlock: AJUNOK_clean_linker_0, # of connection points: 2
#     Edge 36, Type (0, 1), BuildingBlock: AJUNOK_clean_linker_0, # of connection points: 2
#     Edge 37, Type (0, 1), BuildingBlock: AJUNOK_clean_linker_0, # of connection points: 2
# Relax obj value: 0.021
# Max RMSD: 0.186
# Mean RMSD: 0.077
data_MOF--net-pto--node1-KOZSID_clean_sbu_0--node2-CUQRIR_clean_linker_1--edge1-AJUNOK_clean_linker_0
_symmetry_space_group_name_H-M    P1
_symmetry_Int_Tables_number       1
_symmetry_cell_setting            triclinic
loop_
_symmetry_equiv_pos_as_xyz
'x, y, z'
_cell_length_a     26.788304
_cell_length_b     34.1526
_cell_length_c     30.261258
_cell_angle_alpha  76.80652
_cell_angle_beta   91.433498
_cell_angle_gamma 99.770301
loop_
_atom_site_label
_atom_site_type_symbol
_atom_site_fract_x
_atom_site_fract_y
_atom_site_fract_z
_atom_type_partial_charge
C0 C 0.31035 0.29179 0.31717 0.0
N1 N 0.3363 0.26645 0.30205 0.0
N2 N 0.30377 0.32385 0.28325 0.0
C3 C 0.28776 0.28373 0.36412 0.0
C4 C 0.32586 0.317 0.24667 0.0
N5 N 0.34551 0.28202 0.25791 0.0
C6 C 0.33065 0.34566 0.20058 0.0
H7 H 0.27651 0.25048 0.37824 0.0
H8 H 0.25415 0.29883 0.36379 0.0
H9 H 0.31633 0.29615 0.38673 0.0
H10 H 0.32829 0.37723 0.20302 0.0
H11 H 0.29922 0.33534 0.17913 0.0
H12 H 0.36699 0.3456 0.1838 0.0
C13 C 0.32635 0.76112 0.71143 0.0
N14 N 0.34908 0.79397 0.72705 0.0
N15 N 0.29968 0.73291 0.74469 0.0
C16 C 0.33709 0.75313 0.66597 0.0
C17 C 0.30896 0.74832 0.78185 0.0
N18 N 0.3408 0.78463 0.7719 0.0
C19 C 0.29168 0.72565 0.82912 0.0
H20 H 0.30108 0.74684 0.6479 0.0
H21 H 0.35474 0.72531 0.67132 0.0
H22 H 0.36343 0.77884 0.64493 0.0
H23 H 0.32471 0.7159 0.84881 0.0
H24 H 0.26281 0.69825 0.82898 0.0
H25 H 0.27594 0.74629 0.84647 0.0
C26 C 0.90938 0.80694 0.36084 0.0
N27 N 0.88943 0.78424 0.33133 0.0
N28 N 0.88128 0.83604 0.36256 0.0
C29 C 0.95633 0.80062 0.38785 0.0
C30 C 0.84337 0.83005 0.33305 0.0
N31 N 0.84818 0.79849 0.31415 0.0
C32 C 0.80308 0.85627 0.32089 0.0
H33 H 0.95609 0.76757 0.40169 0.0
H34 H 0.95972 0.81666 0.41607 0.0
H35 H 0.98992 0.81251 0.36501 0.0
H36 H 0.81369 0.88578 0.33103 0.0
H37 H 0.76728 0.83975 0.33867 0.0
H38 H 0.79607 0.86207 0.28385 0.0
C39 C 0.80407 0.23092 0.79254 0.0
N40 N 0.83668 0.25207 0.75833 0.0
N41 N 0.78181 0.25663 0.81041 0.0
C42 C 0.79173 0.18519 0.80674 0.0
C43 C 0.80167 0.29406 0.78608 0.0
N44 N 0.83436 0.29148 0.75376 0.0
C45 C 0.79126 0.33318 0.79614 0.0
H46 H 0.75621 0.17508 0.82728 0.0
H47 H 0.82319 0.17365 0.82742 0.0
H48 H 0.78804 0.17177 0.77645 0.0
H49 H 0.82503 0.35745 0.78878 0.0
H50 H 0.77978 0.32861 0.83218 0.0
H51 H 0.75981 0.34357 0.77456 0.0
C52 C 0.82131 0.75609 0.79159 0.0
N53 N 0.85063 0.77248 0.75382 0.0
N54 N 0.79537 0.78378 0.80149 0.0
C55 C 0.81919 0.71339 0.81958 0.0
C56 C 0.8099 0.81765 0.76851 0.0
N57 N 0.8436 0.81102 0.73944 0.0
C58 C 0.79448 0.85835 0.76692 0.0
H59 H 0.81848 0.69168 0.79722 0.0
H60 H 0.78546 0.70403 0.84248 0.0
H61 H 0.85382 0.71205 0.84039 0.0
H62 H 0.82188 0.87553 0.78664 0.0
H63 H 0.7563 0.85464 0.78217 0.0
H64 H 0.79476 0.8765 0.73145 0.0
C65 C 0.8613 0.25563 0.29015 0.0
N66 N 0.89997 0.27228 0.31345 0.0
N67 N 0.84048 0.28504 0.26196 0.0
C68 C 0.84028 0.21069 0.2982 0.0
C69 C 0.86717 0.32027 0.26924 0.0
N70 N 0.90285 0.31261 0.30113 0.0
C71 C 0.86009 0.3622 0.24367 0.0
H72 H 0.86138 0.19674 0.2765 0.0
H73 H 0.79961 0.2055 0.28939 0.0
H74 H 0.84442 0.19504 0.33415 0.0
H75 H 0.83723 0.3753 0.26487 0.0
H76 H 0.84024 0.36113 0.21124 0.0
H77 H 0.89728 0.38264 0.23656 0.0
C78 C 0.27202 0.28707 0.76214 0.0
N79 N 0.30275 0.26069 0.75716 0.0
N80 N 0.25001 0.30126 0.72236 0.0
C81 C 0.26642 0.30135 0.80503 0.0
C82 C 0.269 0.28311 0.69271 0.0
N83 N 0.30163 0.25868 0.71377 0.0
C84 C 0.2535 0.28774 0.64397 0.0
H85 H 0.25187 0.33066 0.79806 0.0
H86 H 0.30329 0.30515 0.82243 0.0
H87 H 0.23937 0.27799 0.82831 0.0
H88 H 0.21476 0.29535 0.63939 0.0
H89 H 0.25488 0.25946 0.6322 0.0
H90 H 0.28008 0.31307 0.62265 0.0
C91 C 0.33729 0.7933 0.33491 0.0
N92 N 0.34861 0.77411 0.30281 0.0
N93 N 0.37393 0.82546 0.33667 0.0
C94 C 0.29204 0.77934 0.36651 0.0
C95 C 0.40835 0.82492 0.30491 0.0
N96 N 0.39326 0.7934 0.28461 0.0
C97 C 0.45463 0.857 0.29153 0.0
H98 H 0.26007 0.79421 0.35106 0.0
H99 H 0.30069 0.78805 0.39938 0.0
H100 H 0.28001 0.74579 0.37267 0.0
H101 H 0.4866 0.84775 0.31315 0.0
H102 H 0.44814 0.88682 0.29692 0.0
H103 H 0.4654 0.86051 0.2555 0.0
C104 C 0.19271 0.60749 0.33769 0.0
C105 C 0.21338 0.61852 0.37663 0.0
C106 C 0.18092 0.59848 0.41189 0.0
C107 C 0.14225 0.57639 0.39285 0.0
N108 N 0.14875 0.58068 0.34785 0.0
Co109 Co 0.09966 0.55579 0.30763 0.0
N110 N 0.06356 0.516 0.35994 0.0
C111 C 0.06537 0.5192 0.40342 0.0
C112 C 0.03833 0.48569 0.43222 0.0
C113 C 0.01855 0.45984 0.40506 0.0
C114 C 0.03446 0.47925 0.36104 0.0
N115 N 0.05072 0.53036 0.26806 0.0
C116 C 0.02286 0.49239 0.27677 0.0
C117 C 0.99442 0.48588 0.23938 0.0
C118 C 0.00558 0.52106 0.20607 0.0
C119 C 0.03995 0.54705 0.22499 0.0
N120 N 0.13511 0.59563 0.25492 0.0
C121 C 0.11649 0.60471 0.21267 0.0
C122 C 0.14927 0.6333 0.18292 0.0
C123 C 0.19062 0.64344 0.20816 0.0
C124 C 0.18054 0.62071 0.25227 0.0
N125 N 0.14433 0.51706 0.30314 0.0
C126 C 0.20143 0.45691 0.29662 0.0
C127 C 0.18255 0.4804 0.25774 0.0
C128 C 0.15416 0.51014 0.26172 0.0
C129 C 0.19176 0.46474 0.33887 0.0
C130 C 0.16363 0.49517 0.34133 0.0
N131 N 0.05468 0.59486 0.3117 0.0
C132 C 0.04462 0.6639 0.31049 0.0
C133 C 0.99185 0.65273 0.31399 0.0
C134 C 0.97118 0.61154 0.31672 0.0
C135 C 1.00323 0.58308 0.31587 0.0
C136 C 0.07499 0.63485 0.30915 0.0
H137 H 0.98639 0.55163 0.3181 0.0
H138 H 0.11512 0.64508 0.30585 0.0
H139 H 0.13929 0.52697 0.23121 0.0
H140 H 0.15639 0.50027 0.37426 0.0
C141 C 0.10197 0.54857 0.41663 0.0
C142 C 0.21153 0.62812 0.2914 0.0
C143 C 0.02117 0.46288 0.32067 0.0
C144 C 0.07118 0.58227 0.20107 0.0
H145 H 0.24733 0.64005 0.37923 0.0
H146 H 0.18512 0.59984 0.44721 0.0
H147 H 0.03615 0.47947 0.4689 0.0
H148 H 0.99604 0.42989 0.41657 0.0
H149 H 0.96888 0.45847 0.23635 0.0
H150 H 0.99258 0.52605 0.1714 0.0
H151 H 0.14412 0.64496 0.14702 0.0
H152 H 0.22364 0.66607 0.1959 0.0
H153 H 0.18935 0.47567 0.22436 0.0
H154 H 0.20459 0.44681 0.36999 0.0
H155 H 0.0627 0.69505 0.30903 0.0
H156 H 0.9306 0.60137 0.31876 0.0
C157 C 0.11907 0.57424 0.76182 0.0
C158 C 0.13626 0.57468 0.80541 0.0
C159 C 0.10135 0.5482 0.83459 0.0
C160 C 0.06512 0.53301 0.80729 0.0
N161 N 0.07488 0.54815 0.76238 0.0
Co162 Co 0.03303 0.53353 0.71086 0.0
N163 N 0.98305 0.4936 0.75369 0.0
C164 C 0.98062 0.48795 0.79933 0.0
C165 C 0.94337 0.45657 0.81935 0.0
C166 C 0.92213 0.44039 0.78457 0.0
C167 C 0.94799 0.46277 0.74529 0.0
N168 N 0.9919 0.51694 0.65971 0.0
C169 C 0.95883 0.48184 0.66054 0.0
C170 C 0.94534 0.47759 0.61715 0.0
C171 C 0.97119 0.51095 0.58781 0.0
C172 C 0.99944 0.53333 0.61481 0.0
N173 N 0.08259 0.57385 0.66779 0.0
C174 C 0.07917 0.58439 0.62208 0.0
C175 C 0.11796 0.61408 0.60163 0.0
C176 C 0.14765 0.62334 0.63641 0.0
C177 C 0.12519 0.59856 0.67622 0.0
N178 N 0.07292 0.48987 0.70999 0.0
C179 C 0.12627 0.4258 0.7085 0.0
C180 C 0.11949 0.45449 0.66872 0.0
C181 C 0.09285 0.48605 0.6702 0.0
C182 C 0.10666 0.43024 0.74912 0.0
C183 C 0.08023 0.46214 0.7491 0.0
N184 N 0.99326 0.57838 0.71177 0.0
C185 C 0.95892 0.63853 0.67277 0.0
C186 C 0.95088 0.64896 0.71382 0.0
C187 C 0.96237 0.62246 0.7537 0.0
C188 C 0.98274 0.58772 0.75195 0.0
C189 C 0.97967 0.60335 0.67254 0.0
H190 H 0.99017 0.56934 0.78386 0.0
H191 H 0.98497 0.59747 0.64011 0.0
H192 H 0.08839 0.50691 0.63874 0.0
H193 H 0.0658 0.46379 0.78109 0.0
C194 C 0.02043 0.50597 0.82272 0.0
C195 C 0.1447 0.60072 0.7212 0.0
C196 C 0.9425 0.45083 0.70182 0.0
C197 C 0.04019 0.56466 0.59931 0.0
H198 H 0.17011 0.59285 0.81509 0.0
H199 H 0.1019 0.54132 0.87131 0.0
H200 H 0.93562 0.44456 0.85527 0.0
H201 H 0.89332 0.41352 0.78808 0.0
H202 H 0.92162 0.45205 0.60749 0.0
H203 H 0.97258 0.51636 0.55115 0.0
H204 H 0.124 0.62735 0.56572 0.0
H205 H 0.18176 0.64597 0.63295 0.0
H206 H 0.1342 0.45236 0.63649 0.0
H207 H 0.1122 0.40948 0.78103 0.0
H208 H 0.95034 0.65784 0.64081 0.0
H209 H 0.9555 0.62838 0.78651 0.0
C210 C 0.42232 0.98923 0.60645 0.0
C211 C 0.47013 0.98123 0.62025 0.0
C212 C 0.50433 0.01154 0.59461 0.0
C213 C 0.47578 0.03588 0.56616 0.0
N214 N 0.42531 0.0235 0.57256 0.0
Co215 Co 0.3705 0.04547 0.5327 0.0
N216 N 0.42111 0.085 0.48966 0.0
C217 C 0.47197 0.09149 0.49436 0.0
C218 C 0.4972 0.12045 0.45959 0.0
C219 C 0.46021 0.13375 0.43121 0.0
C220 C 0.41428 0.11224 0.45057 0.0
N221 N 0.31555 0.06559 0.49177 0.0
C222 C 0.31843 0.09475 0.45251 0.0
C223 C 0.2705 0.09952 0.43577 0.0
C224 C 0.23642 0.07203 0.46482 0.0
C225 C 0.26506 0.05222 0.49785 0.0
N226 N 0.32007 1.00743 0.57675 0.0
C227 C 0.26924 1.00512 0.57611 0.0
C228 C 0.24502 0.97891 0.6135 0.0
C229 C 0.2827 0.96292 0.63899 0.0
C230 C 0.32772 0.97974 0.61501 0.0
N231 N 0.36822 0.08817 0.56777 0.0
C232 C 0.36139 0.145 0.62115 0.0
C233 C 0.31849 0.12639 0.60239 0.0
C234 C 0.32276 0.09887 0.57574 0.0
C235 C 0.40835 0.13575 0.61191 0.0
C236 C 0.41088 0.10715 0.58546 0.0
N237 N 0.3722 1.00289 0.49797 0.0
C238 C 0.32872 0.94717 0.46711 0.0
C239 C 0.37322 0.94417 0.4459 0.0
C240 C 0.4176 0.9702 0.45252 0.0
C241 C 0.4163 0.99904 0.47857 0.0
C242 C 0.32899 0.97656 0.4926 0.0
H243 H 0.45136 0.01808 0.4824 0.0
H244 H 0.29373 0.97747 0.50764 0.0
H245 H 0.28834 0.08676 0.56216 0.0
H246 H 0.44757 0.1008 0.57995 0.0
C247 C 0.49512 0.06777 0.53003 0.0
C248 C 0.37487 0.96341 0.62537 0.0
C249 C 0.36534 0.11973 0.43104 0.0
C250 C 0.24545 0.025 0.53791 0.0
H251 H 0.48 0.95573 0.6451 0.0
H252 H 0.54518 0.01427 0.59504 0.0
H253 H 0.53771 0.1303 0.45509 0.0
H254 H 0.46635 0.1568 0.39982 0.0
H255 H 0.26069 0.1213 0.40634 0.0
H256 H 0.19552 0.06817 0.46309 0.0
H257 H 0.20466 0.97095 0.62038 0.0
H258 H 0.27739 0.93933 0.66999 0.0
H259 H 0.28148 0.13337 0.60797 0.0
H260 H 0.44269 0.14996 0.62556 0.0
H261 H 0.2937 0.92681 0.46424 0.0
H262 H 0.4531 0.96883 0.43702 0.0
C263 C 0.53164 0.821 0.10258 0.0
C264 C 0.52631 0.85856 0.11047 0.0
C265 C 0.55903 0.88732 0.08131 0.0
C266 C 0.58256 0.86579 0.05751 0.0
N267 N 0.56638 0.82501 0.06924 0.0
Co268 Co 0.59325 0.78228 0.04543 0.0
N269 N 0.64151 0.82452 1.00256 0.0
C270 C 0.64631 0.8655 0.99629 0.0
C271 C 0.68012 0.88679 0.96249 0.0
C272 C 0.69736 0.8577 0.94554 0.0
C273 C 0.67307 0.82022 0.97022 0.0
N274 N 0.6216 0.73939 0.02317 0.0
C275 C 0.65667 0.74314 0.99026 0.0
C276 C 0.66573 0.70541 0.98577 0.0
C277 C 0.63481 0.67674 0.01658 0.0
C278 C 0.60889 0.69851 0.03811 0.0
N279 N 0.54336 0.74003 0.08662 0.0
C280 C 0.53606 0.69923 0.0904 0.0
C281 C 0.49883 0.67794 0.12112 0.0
C282 C 0.48141 0.70683 0.13822 0.0
C283 C 0.50934 0.74418 0.11697 0.0
N284 N 0.5422 0.78527 0.99619 0.0
C285 C 0.47728 0.79107 0.92076 0.0
C286 C 0.49002 0.75359 0.94318 0.0
C287 C 0.52192 0.75132 0.98072 0.0
C288 C 0.49582 0.82526 0.93785 0.0
C289 C 0.52813 0.82177 0.97514 0.0
N290 N 0.64464 0.77966 0.09454 0.0
C291 C 0.68284 0.74227 0.16111 0.0
C292 C 0.71591 0.77751 0.16538 0.0
C293 C 0.71253 0.81373 0.13374 0.0
C294 C 0.67707 0.81414 0.09906 0.0
C295 C 0.64809 0.74391 0.12547 0.0
H296 H 0.67636 0.84296 0.07664 0.0
H297 H 0.62425 0.71591 0.1238 0.0
H298 H 0.53017 0.72185 0.99636 0.0
H299 H 0.54187 0.84924 0.98575 0.0
C300 C 0.61885 0.88295 0.02308 0.0
C301 C 0.50375 0.7824 0.1284 0.0
C302 C 0.6803 0.78148 0.96089 0.0
C303 C 0.56825 0.68161 0.06823 0.0
H304 H 0.50156 0.8645 0.13501 0.0
H305 H 0.56507 0.92002 0.07796 0.0
H306 H 0.69059 0.91956 0.95119 0.0
H307 H 0.72433 0.86339 0.91781 0.0
H308 H 0.69105 0.69927 0.96181 0.0
H309 H 0.63026 0.64392 0.0214 0.0
H310 H 0.48696 0.64521 0.13101 0.0
H311 H 0.45232 0.70105 0.16419 0.0
H312 H 0.47545 0.72606 0.93174 0.0
H313 H 0.48657 0.85484 0.92174 0.0
H314 H 0.684 0.7135 0.18498 0.0
H315 H 0.73651 0.84205 0.13623 0.0
C316 C 0.96139 0.99319 0.61922 0.0
C317 C 0.006 0.98186 0.63816 0.0
C318 C 0.04346 0.01503 0.62477 0.0
C319 C 0.02001 0.04453 0.59794 0.0
N320 N 0.97007 0.03203 0.59385 0.0
Co321 Co 0.92295 0.06271 0.5538 0.0
N322 N 0.97986 0.09987 0.51673 0.0
C323 C 0.02886 0.10459 0.52891 0.0
C324 C 0.0597 0.13391 0.49824 0.0
C325 C 0.02809 0.14932 0.46502 0.0
C326 C 0.9795 0.12833 0.47724 0.0
N327 N 0.87522 0.09323 0.51449 0.0
C328 C 0.88347 0.12157 0.4748 0.0
C329 C 0.83862 0.13477 0.45888 0.0
C330 C 0.80186 0.11563 0.49084 0.0
C331 C 0.82584 0.09137 0.52408 0.0
N332 N 0.86683 0.02521 0.59081 0.0
C333 C 0.81912 0.0319 0.59366 0.0
C334 C 0.78872 0.99999 0.62185 0.0
C335 C 0.81927 0.97144 0.63741 0.0
C336 C 0.86667 0.98748 0.61748 0.0
N337 N 0.92503 0.10095 0.59418 0.0
C338 C 0.90966 0.15557 0.64774 0.0
C339 C 0.90762 0.11376 0.66712 0.0
C340 C 0.91584 0.08706 0.63987 0.0
C341 C 0.92356 0.16961 0.6019 0.0
C342 C 0.93056 0.14204 0.57587 0.0
N343 N 0.91958 0.02466 0.51342 0.0
C344 C 0.86874 0.97916 0.47316 0.0
C345 C 0.91153 0.96429 0.46261 0.0
C346 C 0.95879 0.98111 0.47741 0.0
C347 C 0.96204 0.01145 0.50233 0.0
C348 C 0.87352 1.00904 0.49846 0.0
H349 H 0.99875 0.02345 0.5136 0.0
H350 H 0.8395 0.01882 0.50673 0.0
H351 H 0.9126 0.05494 0.65536 0.0
H352 H 0.93838 0.15429 0.5404 0.0
C353 C 0.04498 0.07903 0.56757 0.0
C354 C 0.91125 0.96704 0.62593 0.0
C355 C 0.93369 0.14083 0.45463 0.0
C356 C 0.80227 0.0636 0.56222 0.0
H357 H 0.01159 0.95248 0.65828 0.0
H358 H 0.08362 0.01626 0.63088 0.0
H359 H 0.10027 0.14316 0.49994 0.0
H360 H 0.03935 0.17437 0.43615 0.0
H361 H 0.83328 0.15698 0.4281 0.0
H362 H 0.76228 0.11877 0.48971 0.0
H363 H 0.74851 0.9968 0.6283 0.0
H364 H 0.80781 0.94205 0.66032 0.0
H365 H 0.89764 0.10144 0.70262 0.0
H366 H 0.9277 0.20173 0.58567 0.0
H367 H 0.83147 0.96762 0.46213 0.0
H368 H 0.99295 0.97023 0.47094 0.0
C369 C 0.4784 0.28579 0.08299 0.0
C370 C 0.46604 0.32348 0.08382 0.0
C371 C 0.49334 0.35134 0.04965 0.0
C372 C 0.52061 0.3292 0.0299 0.0
N373 N 0.51179 0.2887 0.04894 0.0
Co374 Co 0.54486 0.24547 0.03204 0.0
N375 N 0.59106 0.28719 0.98685 0.0
C376 C 0.59363 0.32819 0.97775 0.0
C377 C 0.62989 0.34905 0.94593 0.0
C378 C 0.65168 0.31968 0.93376 0.0
C379 C 0.62705 0.28236 0.95872 0.0
N380 N 0.57712 0.20212 0.01453 0.0
C381 C 0.61323 0.20521 0.98268 0.0
C382 C 0.62268 0.16714 0.97974 0.0
C383 C 0.59158 0.139 0.01087 0.0
C384 C 0.56478 0.16133 0.03076 0.0
N385 N 0.49965 0.20398 0.07835 0.0
C386 C 0.49732 0.16305 0.08798 0.0
C387 C 0.46513 0.14265 0.12341 0.0
C388 C 0.44641 0.17237 0.13792 0.0
C389 C 0.46833 0.20927 0.11031 0.0
N390 N 0.49389 0.24028 0.98377 0.0
C391 C 0.43342 0.23365 0.90741 0.0
C392 C 0.43826 0.19907 0.94115 0.0
C393 C 0.46862 0.20305 0.97887 0.0
C394 C 0.45664 0.27158 0.91387 0.0
C395 C 0.48604 0.27419 0.95196 0.0
N396 N 0.59623 0.25089 0.07947 0.0
C397 C 0.65197 0.22133 0.13683 0.0
C398 C 0.67241 0.25988 0.14363 0.0
C399 C 0.65379 0.29367 0.11841 0.0
C400 C 0.61611 0.28855 0.08675 0.0
C401 C 0.61368 0.21748 0.10505 0.0
H402 H 0.60415 0.31566 0.06826 0.0
H403 H 0.59895 0.18732 0.10149 0.0
H404 H 0.47163 0.17559 1.00316 0.0
H405 H 0.50263 0.30408 0.95434 0.0
C406 C 0.55965 0.34606 0.99786 0.0
C407 C 0.4597 0.24858 0.11682 0.0
C408 C 0.63852 0.24327 0.95364 0.0
C409 C 0.52803 0.14494 0.06488 0.0
H410 H 0.44122 0.33032 0.10768 0.0
H411 H 0.49503 0.38409 0.04166 0.0
H412 H 0.63888 0.38169 0.93265 0.0
H413 H 0.68191 0.32512 0.90892 0.0
H414 H 0.64895 0.16032 0.95712 0.0
H415 H 0.58855 0.10615 0.0179 0.0
H416 H 0.4574 0.11014 0.13786 0.0
H417 H 0.42047 0.16757 0.16626 0.0
H418 H 0.41964 0.16911 0.93798 0.0
H419 H 0.4521 0.29938 0.8895 0.0
H420 H 0.66536 0.19432 0.15601 0.0
H421 H 0.66912 0.32415 0.1223 0.0
C422 C 0.23581 0.36461 0.26107 0.0
C423 C 0.27962 0.35781 0.28594 0.0
C424 C 0.21105 0.39687 0.26452 0.0
C425 C 0.22928 0.42348 0.29296 0.0
H426 H 0.22034 0.34445 0.23938 0.0
H427 H 0.17692 0.40061 0.24523 0.0
S428 S 0.34585 0.42014 0.36177 0.0
N429 N 0.34212 0.38096 0.33768 0.0
N430 N 0.29625 0.44201 0.34403 0.0
C431 C 0.27392 0.4173 0.3172 0.0
C432 C 0.29893 0.38438 0.31369 0.0
C433 C 0.27403 0.6644 0.72931 0.0
C434 C 0.26118 0.69972 0.73915 0.0
C435 C 0.23613 0.63234 0.72302 0.0
C436 C 0.18464 0.63506 0.72628 0.0
H437 H 0.31345 0.66158 0.72681 0.0
H438 H 0.24699 0.60525 0.71585 0.0
S439 S 0.13197 0.72162 0.75014 0.0
N440 N 0.19404 0.73595 0.75092 0.0
N441 N 0.12279 0.67568 0.73928 0.0
C442 C 0.17153 0.6703 0.7358 0.0
C443 C 0.2099 0.70271 0.7422 0.0
C444 C 0.9476 0.75593 0.29027 0.0
C445 C 0.90831 0.74981 0.32211 0.0
C446 C 0.9724 0.7238 0.28628 0.0
C447 C 0.95978 0.68448 0.31489 0.0
H448 H 0.96048 0.78613 0.26955 0.0
H449 H 1.00284 0.73021 0.26144 0.0
S450 S 0.85952 0.65378 0.40464 0.0
N451 N 0.85708 0.70228 0.3822 0.0
N452 N 0.90462 0.64193 0.37638 0.0
C453 C 0.91954 0.678 0.34631 0.0
C454 C 0.89382 0.7107 0.34967 0.0
C455 C 0.91725 0.33539 0.73639 0.0
C456 C 0.86599 0.32608 0.7255 0.0
C457 C 0.94363 0.37569 0.72438 0.0
C458 C 0.91943 0.40792 0.70129 0.0
H459 H 0.93533 0.31227 0.75831 0.0
H460 H 0.98183 0.38226 0.73658 0.0
S461 S 0.78747 0.39801 0.66022 0.0
N462 N 0.79425 0.35092 0.6852 0.0
N463 N 0.84256 0.4269 0.66478 0.0
C464 C 0.86965 0.39824 0.68672 0.0
C465 C 0.84336 0.35715 0.69804 0.0
C466 C 0.37523 0.23137 0.37103 0.0
C467 C 0.35106 0.22985 0.32951 0.0
C468 C 0.38049 0.19568 0.40313 0.0
C469 C 0.36322 0.15703 0.39432 0.0
H470 H 0.38806 0.26052 0.37955 0.0
H471 H 0.39695 0.19829 0.43562 0.0
S472 S 0.3036 0.13635 0.28834 0.0
N473 N 0.31245 0.18657 0.28019 0.0
N474 N 0.32647 0.11932 0.33901 0.0
C475 C 0.34267 0.15507 0.3515 0.0
C476 C 0.33576 0.19152 0.31935 0.0
C477 C 0.36746 0.81052 0.8404 0.0
C478 C 0.37903 0.7942 0.804 0.0
C479 C 0.40042 0.81105 0.87737 0.0
C480 C 0.44535 0.79438 0.8795 0.0
H481 H 0.33175 0.82122 0.84108 0.0
H482 H 0.38954 0.82277 0.90542 0.0
S483 S 0.49349 0.75006 0.79135 0.0
N484 N 0.43928 0.763 0.77123 0.0
N485 N 0.5008 0.76345 0.84054 0.0
C486 C 0.458 0.77944 0.8424 0.0
C487 C 0.42498 0.77953 0.8047 0.0
C488 C 0.85781 0.86671 0.42381 0.0
C489 C 0.89061 0.86734 0.38814 0.0
C490 C 0.86545 0.89771 0.4481 0.0
C491 C 0.90595 0.93085 0.4373 0.0
H492 H 0.82604 0.84203 0.43285 0.0
H493 H 0.83936 0.89563 0.47563 0.0
S494 S 1.00105 0.94686 0.34483 0.0
N495 N 0.9643 0.90336 0.34247 0.0
N496 N 0.97836 0.96235 0.38695 0.0
C497 C 0.93899 0.93158 0.40144 0.0
C498 C 0.93133 0.89973 0.3771 0.0
C499 C 0.69558 0.2564 0.83647 0.0
C500 C 0.74449 0.24745 0.84623 0.0
C501 C 0.66088 0.25366 0.87144 0.0
C502 C 0.67437 0.2424 0.91722 0.0
H503 H 0.68482 0.2667 0.80156 0.0
H504 H 0.62378 0.26151 0.86274 0.0
S505 S 0.79798 0.21614 0.96016 0.0
N506 N 0.80459 0.22654 0.90432 0.0
N507 N 0.73967 0.22195 0.97039 0.0
C508 C 0.72287 0.23266 0.92731 0.0
C509 C 0.75792 0.23506 0.89167 0.0
C510 C 0.39326 0.86642 0.71327 0.0
C511 C 0.35793 0.83581 0.69989 0.0
C512 C 0.3989 0.90751 0.68938 0.0
C513 C 0.37217 0.91939 0.64922 0.0
H514 H 0.41615 0.8591 0.74288 0.0
H515 H 0.42354 0.93018 0.70322 0.0
S516 S 0.27209 0.85316 0.60074 0.0
N517 N 0.28964 0.8231 0.64708 0.0
N518 N 0.30935 0.89745 0.59693 0.0
C519 C 0.33787 0.88914 0.6347 0.0
C520 C 0.32855 0.84824 0.66117 0.0
C521 C 0.76775 0.7673 0.2852 0.0
C522 C 0.81836 0.78678 0.2775 0.0
C523 C 0.73539 0.76234 0.24878 0.0
C524 C 0.75245 0.77741 0.20342 0.0
H525 H 0.75274 0.7573 0.31958 0.0
H526 H 0.69613 0.74852 0.25613 0.0
S527 S 0.88264 0.82919 0.16588 0.0
N528 N 0.88447 0.82005 0.22185 0.0
N529 N 0.82441 0.81048 0.15332 0.0
C530 C 0.80365 0.79561 0.19559 0.0
C531 C 0.83641 0.80039 0.23264 0.0
C532 C 0.89545 0.20714 0.74546 0.0
C533 C 0.86185 0.23425 0.72812 0.0
C534 C 0.91181 0.18257 0.71907 0.0
C535 C 0.89501 0.18407 0.67429 0.0
H536 H 0.9076 0.20391 0.78031 0.0
H537 H 0.93708 0.16173 0.73414 0.0
S538 S 0.80562 0.24974 0.61389 0.0
N539 N 0.81233 0.2613 0.66402 0.0
N540 N 0.84206 0.2152 0.61427 0.0
C541 C 0.8622 0.21195 0.65636 0.0
C542 C 0.84595 0.23703 0.68326 0.0
C543 C 0.34926 0.25659 0.18846 0.0
C544 C 0.37308 0.2663 0.22746 0.0
C545 C 0.37719 0.24892 0.15366 0.0
C546 C 0.42991 0.25097 0.15671 0.0
H547 H 0.30901 0.2566 0.18419 0.0
H548 H 0.35784 0.24299 0.1234 0.0
S549 S 0.50989 0.27371 0.25229 0.0
N550 N 0.45194 0.2762 0.26772 0.0
N551 N 0.50469 0.2618 0.20221 0.0
C552 C 0.45391 0.2591 0.1962 0.0
C553 C 0.42539 0.26671 0.23171 0.0
C554 C 0.92808 0.7427 0.7541 0.0
C555 C 0.88218 0.75079 0.7336 0.0
C556 C 0.95159 0.7113 0.74543 0.0
C557 C 0.92984 0.68646 0.71614 0.0
H558 H 0.94403 0.75902 0.77932 0.0
H559 H 0.98595 0.70523 0.76339 0.0
S560 S 0.81017 0.6963 0.65334 0.0
N561 N 0.81652 0.73256 0.68204 0.0
N562 N 0.86029 0.6737 0.66532 0.0
C563 C 0.88522 0.69581 0.69362 0.0
C564 C 0.86146 0.72784 0.70254 0.0
C565 C 0.91675 0.37009 0.33854 0.0
C566 C 0.93696 0.34339 0.31752 0.0
C567 C 0.94513 0.40784 0.34178 0.0
C568 C 0.99495 0.42003 0.32444 0.0
H569 H 0.87741 0.36291 0.34946 0.0
H570 H 0.927 0.42858 0.35556 0.0
S571 S 0.06618 0.36005 0.26892 0.0
N572 N 0.01023 0.33078 0.28115 0.0
N573 N 0.06421 0.40154 0.2878 0.0
C574 C 0.0165 0.39266 0.30561 0.0
C575 C 0.98746 0.35424 0.30227 0.0
C576 C 0.23256 0.37028 0.68857 0.0
C577 C 0.21609 0.33048 0.71394 0.0
C578 C 0.20254 0.40073 0.68566 0.0
C579 C 0.1551 0.39225 0.70809 0.0
H580 H 0.26972 0.37816 0.67253 0.0
H581 H 0.21748 0.43145 0.66725 0.0
S582 S 0.09297 0.29099 0.77408 0.0
N583 N 0.1485 0.2831 0.75871 0.0
N584 N 0.09128 0.33978 0.75269 0.0
C585 C 0.13738 0.35185 0.73167 0.0
C586 C 0.16808 0.32109 0.73471 0.0
C587 C 0.33419 0.70134 0.29966 0.0
C588 C 0.31772 0.73929 0.29082 0.0
C589 C 0.30042 0.66548 0.29724 0.0
C590 C 0.24927 0.66665 0.286 0.0
H591 H 0.3725 0.69917 0.31097 0.0
H592 H 0.31364 0.63646 0.30638 0.0
S593 S 0.18943 0.7594 0.25581 0.0
N594 N 0.2489 0.77656 0.26639 0.0
N595 N 0.18497 0.70948 0.26346 0.0
C596 C 0.23336 0.70486 0.27484 0.0
C597 C 0.26776 0.74112 0.27677 0.0
C598 C 0.90674 0.87329 0.72309 0.0
C599 C 0.87381 0.84318 0.70685 0.0
C600 C 0.92093 0.91279 0.69612 0.0
C601 C 0.90448 0.92324 0.65109 0.0
H602 H 0.91708 0.86741 0.75853 0.0
H603 H 0.94197 0.93594 0.71174 0.0
S604 S 0.8221 0.85423 0.59094 0.0
N605 N 0.82729 0.82579 0.64241 0.0
N606 N 0.85689 0.89921 0.59033 0.0
C607 C 0.8749 0.89243 0.6333 0.0
C608 C 0.85922 0.85251 0.66134 0.0
C609 C 0.80054 0.25725 0.19905 0.0
C610 C 0.79829 0.27945 0.2325 0.0
C611 C 0.75915 0.25022 0.171 0.0
C612 C 0.71436 0.26538 0.17549 0.0
H613 H 0.83467 0.24545 0.1946 0.0
H614 H 0.76253 0.23353 0.14508 0.0
S615 S 0.68847 0.32247 0.26054 0.0
N616 N 0.74717 0.3143 0.27059 0.0
N617 N 0.66935 0.30179 0.2174 0.0
C618 C 0.7115 0.28712 0.20933 0.0
C619 C 0.75353 0.29401 0.23798 0.0
C620 C 0.30935 0.18849 0.71125 0.0
C621 C 0.32438 0.23065 0.69493 0.0
C622 C 0.32426 0.16064 0.68868 0.0
C623 C 0.35545 0.17407 0.64953 0.0
H624 H 0.28362 0.17721 0.74011 0.0
H625 H 0.30955 0.12845 0.70075 0.0
S626 S 0.40899 0.28136 0.59622 0.0
N627 N 0.37491 0.28454 0.63965 0.0
N628 N 0.40355 0.23219 0.59735 0.0
C629 C 0.37322 0.21607 0.6346 0.0
C630 C 0.35748 0.24441 0.65728 0.0
C631 C 0.39633 0.79099 0.20385 0.0
C632 C 0.41832 0.78514 0.24701 0.0
C633 C 0.42376 0.78933 0.16548 0.0
C634 C 0.47381 0.78164 0.1694 0.0
H635 H 0.35855 0.79848 0.19963 0.0
H636 H 0.40629 0.79499 0.13248 0.0
S637 S 0.54682 0.76161 0.27526 0.0
N638 N 0.49166 0.76934 0.29177 0.0
N639 N 0.54323 0.76621 0.21976 0.0
C640 C 0.49539 0.77432 0.21255 0.0
C641 C 0.46759 0.77606 0.25141 0.0
C642 C 0.91403 0.2477 0.39465 0.0
C643 C 0.92643 0.24918 0.34945 0.0
C644 C 0.92034 0.21383 0.42942 0.0
C645 C 0.93811 0.18007 0.4197 0.0
H646 H 0.8948 0.27084 0.40237 0.0
H647 H 0.90752 0.21256 0.46347 0.0
S648 S 0.98464 0.1731 0.30814 0.0
N649 N 0.96534 0.21772 0.29816 0.0
N650 N 0.97488 0.1531 0.36296 0.0
C651 C 0.95555 0.18327 0.37556 0.0
C652 C 0.95043 0.2182 0.34057 0.0
C653 C 0.31866 0.221 0.83342 0.0
C654 C 0.33727 0.24435 0.79077 0.0
C655 C 0.35091 0.21452 0.87072 0.0
C656 C 0.40267 0.23145 0.86636 0.0
H657 H 0.27836 0.21017 0.83854 0.0
H658 H 0.33461 0.19886 0.90373 0.0
S659 S 0.47078 0.28985 0.76025 0.0
N660 N 0.411 0.28072 0.7452 0.0
N661 N 0.47205 0.26801 0.81484 0.0
C662 C 0.42229 0.25178 0.82293 0.0
C663 C 0.38946 0.25831 0.78515 0.0
C664 C 0.41151 0.86066 0.39548 0.0
C665 C 0.37386 0.85549 0.36322 0.0
C666 C 0.41123 0.88947 0.42203 0.0
C667 C 0.37331 0.91414 0.41704 0.0
H668 H 0.44089 0.84193 0.40048 0.0
H669 H 0.44047 0.89203 0.44708 0.0
S670 S 0.2693 0.91459 0.33356 0.0
N671 N 0.29985 0.87861 0.3255 0.0
N672 N 0.29919 0.93303 0.37475 0.0
C673 C 0.33614 0.90968 0.38396 0.0
C674 C 0.33648 0.88031 0.35719 0.0
C675 C 0.78979 0.78082 0.88346 0.0
C676 C 0.7659 0.78063 0.84162 0.0
C677 C 0.76191 0.781 0.92214 0.0
C678 C 0.70941 0.78094 0.9199 0.0
H679 H 0.83033 0.78162 0.88589 0.0
H680 H 0.78143 0.7815 0.95384 0.0
S681 S 0.62952 0.77924 0.8186 0.0
N682 N 0.68722 0.77943 0.80039 0.0
N683 N 0.63461 0.77976 0.87302 0.0
C684 C 0.68515 0.78011 0.87845 0.0
C685 C 0.71349 0.77994 0.83925 0.0
loop_
_geom_bond_atom_site_label_1
_geom_bond_atom_site_label_2
_geom_bond_distance
_geom_bond_site_symmetry_2
_ccdc_geom_bond_type
C0 N1 1.317 . S
C0 N2 1.348 . S
C0 C3 1.485 . S
N1 C0 1.317 . S
N1 N5 1.370 . S
N2 C0 1.348 . S
N2 C4 1.346 . S
C3 C0 1.485 . S
C3 H7 0.960 . S
C3 H8 0.961 . S
C3 H9 0.960 . S
C4 N2 1.346 . S
C4 N5 1.307 . S
C4 C6 1.486 . S
N5 N1 1.370 . S
N5 C4 1.307 . S
C6 C4 1.486 . S
C6 H10 0.960 . S
C6 H11 0.960 . S
C6 H12 0.959 . S
H7 C3 0.960 . S
H8 C3 0.961 . S
H9 C3 0.960 . S
H10 C6 0.960 . S
H11 C6 0.960 . S
H12 C6 0.959 . S
C13 N14 1.317 . S
C13 N15 1.348 . S
C13 C16 1.485 . S
N14 C13 1.317 . S
N14 N18 1.370 . S
N15 C13 1.348 . S
N15 C17 1.346 . S
C16 C13 1.485 . S
C16 H20 0.960 . S
C16 H21 0.961 . S
C16 H22 0.960 . S
C17 N15 1.346 . S
C17 N18 1.307 . S
C17 C19 1.486 . S
N18 N14 1.370 . S
N18 C17 1.307 . S
C19 C17 1.486 . S
C19 H23 0.960 . S
C19 H24 0.960 . S
C19 H25 0.959 . S
H20 C16 0.960 . S
H21 C16 0.961 . S
H22 C16 0.960 . S
H23 C19 0.960 . S
H24 C19 0.960 . S
H25 C19 0.959 . S
C26 N27 1.317 . S
C26 N28 1.348 . S
C26 C29 1.485 . S
N27 C26 1.317 . S
N27 N31 1.370 . S
N28 C26 1.348 . S
N28 C30 1.346 . S
C29 C26 1.485 . S
C29 H33 0.960 . S
C29 H34 0.970 . S
C29 H35 0.971 . S
C30 N28 1.346 . S
C30 N31 1.307 . S
C30 C32 1.486 . S
N31 N27 1.370 . S
N31 C30 1.307 . S
C32 C30 1.486 . S
C32 H36 0.960 . S
C32 H37 0.960 . S
C32 H38 0.959 . S
H33 C29 0.960 . S
H34 C29 0.970 . S
H35 C29 0.971 . S
H36 C32 0.960 . S
H37 C32 0.960 . S
H38 C32 0.959 . S
C39 N40 1.317 . S
C39 N41 1.348 . S
C39 C42 1.485 . S
N40 C39 1.317 . S
N40 N44 1.370 . S
N41 C39 1.348 . S
N41 C43 1.346 . S
C42 C39 1.485 . S
C42 H46 0.960 . S
C42 H47 0.961 . S
C42 H48 0.960 . S
C43 N41 1.346 . S
C43 N44 1.307 . S
C43 C45 1.486 . S
N44 N40 1.370 . S
N44 C43 1.307 . S
C45 C43 1.486 . S
C45 H49 0.960 . S
C45 H50 0.960 . S
C45 H51 0.959 . S
H46 C42 0.960 . S
H47 C42 0.961 . S
H48 C42 0.960 . S
H49 C45 0.960 . S
H50 C45 0.960 . S
H51 C45 0.959 . S
C52 N53 1.317 . S
C52 N54 1.348 . S
C52 C55 1.485 . S
N53 C52 1.317 . S
N53 N57 1.370 . S
N54 C52 1.348 . S
N54 C56 1.346 . S
C55 C52 1.485 . S
C55 H59 0.960 . S
C55 H60 0.961 . S
C55 H61 0.960 . S
C56 N54 1.346 . S
C56 N57 1.307 . S
C56 C58 1.486 . S
N57 N53 1.370 . S
N57 C56 1.307 . S
C58 C56 1.486 . S
C58 H62 0.960 . S
C58 H63 0.960 . S
C58 H64 0.959 . S
H59 C55 0.960 . S
H60 C55 0.961 . S
H61 C55 0.960 . S
H62 C58 0.960 . S
H63 C58 0.960 . S
H64 C58 0.959 . S
C65 N66 1.317 . S
C65 N67 1.348 . S
C65 C68 1.485 . S
N66 C65 1.317 . S
N66 N70 1.370 . S
N67 C65 1.348 . S
N67 C69 1.346 . S
C68 C65 1.485 . S
C68 H72 0.960 . S
C68 H73 0.961 . S
C68 H74 0.960 . S
C69 N67 1.346 . S
C69 N70 1.307 . S
C69 C71 1.486 . S
N70 N66 1.370 . S
N70 C69 1.307 . S
C71 C69 1.486 . S
C71 H75 0.960 . S
C71 H76 0.960 . S
C71 H77 0.959 . S
H72 C68 0.960 . S
H73 C68 0.961 . S
H74 C68 0.960 . S
H75 C71 0.960 . S
H76 C71 0.960 . S
H77 C71 0.959 . S
C78 N79 1.317 . S
C78 N80 1.348 . S
C78 C81 1.485 . S
N79 C78 1.317 . S
N79 N83 1.370 . S
N80 C78 1.348 . S
N80 C82 1.346 . S
C81 C78 1.485 . S
C81 H85 0.960 . S
C81 H86 0.961 . S
C81 H87 0.960 . S
C82 N80 1.346 . S
C82 N83 1.307 . S
C82 C84 1.486 . S
N83 N79 1.370 . S
N83 C82 1.307 . S
C84 C82 1.486 . S
C84 H88 0.960 . S
C84 H89 0.960 . S
C84 H90 0.959 . S
H85 C81 0.960 . S
H86 C81 0.961 . S
H87 C81 0.960 . S
H88 C84 0.960 . S
H89 C84 0.960 . S
H90 C84 0.959 . S
C91 N92 1.317 . S
C91 N93 1.348 . S
C91 C94 1.485 . S
N92 C91 1.317 . S
N92 N96 1.370 . S
N93 C91 1.348 . S
N93 C95 1.346 . S
C94 C91 1.485 . S
C94 H98 0.960 . S
C94 H99 0.961 . S
C94 H100 0.960 . S
C95 N93 1.346 . S
C95 N96 1.307 . S
C95 C97 1.486 . S
N96 N92 1.370 . S
N96 C95 1.307 . S
C97 C95 1.486 . S
C97 H101 0.960 . S
C97 H102 0.960 . S
C97 H103 0.959 . S
H98 C94 0.960 . S
H99 C94 0.961 . S
H100 C94 0.960 . S
H101 C97 0.960 . S
H102 C97 0.960 . S
H103 C97 0.959 . S
C104 C105 1.443 . S
C104 N108 1.376 . S
C104 C142 1.389 . S
C105 C104 1.443 . S
C105 C106 1.340 . S
C105 H145 0.951 . S
C106 C105 1.340 . S
C106 C107 1.439 . S
C106 H146 0.950 . S
C107 C106 1.439 . S
C107 N108 1.374 . S
C107 C141 1.395 . S
N108 C104 1.376 . S
N108 C107 1.374 . S
N108 Co109 2.008 . S
Co109 N108 2.008 . S
Co109 N110 1.995 . S
Co109 N115 2.008 . S
Co109 N120 1.995 . S
Co109 N125 2.282 . S
Co109 N131 2.282 . S
N110 Co109 1.995 . S
N110 C111 1.376 . S
N110 C114 1.383 . S
C111 N110 1.376 . S
C111 C112 1.446 . S
C111 C141 1.391 . S
C112 C111 1.446 . S
C112 C113 1.339 . S
C112 H147 0.949 . S
C113 C112 1.339 . S
C113 C114 1.439 . S
C113 H148 0.950 1_455 S
C114 N110 1.383 . S
C114 C113 1.439 . S
C114 C143 1.392 . S
N115 Co109 2.008 . S
N115 C116 1.376 . S
N115 C119 1.374 . S
C116 N115 1.376 . S
C116 C117 1.443 . S
C116 C143 1.389 . S
C117 C116 1.443 . S
C117 C118 1.340 . S
C117 H149 0.951 1_455 S
C118 C117 1.340 . S
C118 C119 1.439 . S
C118 H150 0.950 . S
C119 N115 1.374 . S
C119 C118 1.439 . S
C119 C144 1.395 . S
N120 Co109 1.995 . S
N120 C121 1.376 . S
N120 C124 1.383 . S
C121 N120 1.376 . S
C121 C122 1.446 . S
C121 C144 1.391 . S
C122 C121 1.446 . S
C122 C123 1.339 . S
C122 H151 0.949 . S
C123 C122 1.339 . S
C123 C124 1.439 . S
C123 H152 0.950 . S
C124 N120 1.383 . S
C124 C123 1.439 . S
C124 C142 1.392 . S
N125 Co109 2.282 . S
N125 C128 1.332 . S
N125 C130 1.332 . S
C126 C127 1.386 . S
C126 C129 1.388 . S
C127 C126 1.386 . S
C127 C128 1.382 . S
C127 H153 0.950 . S
C128 N125 1.332 . S
C128 C127 1.382 . S
C128 H139 0.952 . S
C129 C126 1.388 . S
C129 C130 1.382 . S
C129 H154 0.950 . S
C130 N125 1.332 . S
C130 C129 1.382 . S
C130 H140 0.948 . S
N131 Co109 2.282 . S
N131 C135 1.332 . S
N131 C136 1.332 . S
C132 C133 1.388 . S
C132 C136 1.382 . S
C132 H155 0.950 . S
C133 C132 1.388 . S
C133 C134 1.386 . S
C134 C133 1.386 . S
C134 C135 1.382 . S
C134 H156 0.959 . S
C135 N131 1.332 . S
C135 C134 1.382 . S
C135 H137 0.952 . S
C136 N131 1.332 . S
C136 C132 1.382 . S
C136 H138 0.948 . S
H137 C135 0.952 . S
H138 C136 0.948 . S
H139 C128 0.952 . S
H140 C130 0.948 . S
C141 C107 1.395 . S
C141 C111 1.391 . S
C142 C104 1.389 . S
C142 C124 1.392 . S
C143 C114 1.392 . S
C143 C116 1.389 . S
C144 C119 1.395 . S
C144 C121 1.391 . S
H145 C105 0.951 . S
H146 C106 0.950 . S
H147 C112 0.949 . S
H148 C113 0.950 1_655 S
H149 C117 0.951 1_655 S
H150 C118 0.950 . S
H151 C122 0.949 . S
H152 C123 0.950 . S
H153 C127 0.950 . S
H154 C129 0.950 . S
H155 C132 0.950 . S
H156 C134 0.959 . S
C157 C158 1.443 . S
C157 N161 1.376 . S
C157 C195 1.389 . S
C158 C157 1.443 . S
C158 C159 1.340 . S
C158 H198 0.951 . S
C159 C158 1.340 . S
C159 C160 1.439 . S
C159 H199 0.950 . S
C160 C159 1.439 . S
C160 N161 1.374 . S
C160 C194 1.395 . S
N161 C157 1.376 . S
N161 C160 1.374 . S
N161 Co162 2.008 . S
Co162 N161 2.008 . S
Co162 N163 1.995 1_455 S
Co162 N168 2.008 1_455 S
Co162 N173 1.995 . S
Co162 N178 2.282 . S
Co162 N184 2.282 1_455 S
N163 Co162 1.995 1_655 S
N163 C164 1.376 . S
N163 C167 1.383 . S
C164 N163 1.376 . S
C164 C165 1.446 . S
C164 C194 1.391 1_655 S
C165 C164 1.446 . S
C165 C166 1.339 . S
C165 H200 0.949 . S
C166 C165 1.339 . S
C166 C167 1.439 . S
C166 H201 0.950 . S
C167 N163 1.383 . S
C167 C166 1.439 . S
C167 C196 1.392 . S
N168 Co162 2.008 1_655 S
N168 C169 1.376 . S
N168 C172 1.374 . S
C169 N168 1.376 . S
C169 C170 1.443 . S
C169 C196 1.389 . S
C170 C169 1.443 . S
C170 C171 1.340 . S
C170 H202 0.951 . S
C171 C170 1.340 . S
C171 C172 1.439 . S
C171 H203 0.950 . S
C172 N168 1.374 . S
C172 C171 1.439 . S
C172 C197 1.395 1_655 S
N173 Co162 1.995 . S
N173 C174 1.376 . S
N173 C177 1.383 . S
C174 N173 1.376 . S
C174 C175 1.446 . S
C174 C197 1.391 . S
C175 C174 1.446 . S
C175 C176 1.339 . S
C175 H204 0.949 . S
C176 C175 1.339 . S
C176 C177 1.439 . S
C176 H205 0.950 . S
C177 N173 1.383 . S
C177 C176 1.439 . S
C177 C195 1.392 . S
N178 Co162 2.282 . S
N178 C181 1.332 . S
N178 C183 1.332 . S
C179 C180 1.386 . S
C179 C182 1.388 . S
C180 C179 1.386 . S
C180 C181 1.382 . S
C180 H206 0.950 . S
C181 N178 1.332 . S
C181 C180 1.382 . S
C181 H192 0.952 . S
C182 C179 1.388 . S
C182 C183 1.382 . S
C182 H207 0.950 . S
C183 N178 1.332 . S
C183 C182 1.382 . S
C183 H193 0.948 . S
N184 Co162 2.282 1_655 S
N184 C188 1.332 . S
N184 C189 1.332 . S
C185 C186 1.388 . S
C185 C189 1.382 . S
C185 H208 0.950 . S
C186 C185 1.388 . S
C186 C187 1.386 . S
C187 C186 1.386 . S
C187 C188 1.382 . S
C187 H209 0.950 . S
C188 N184 1.332 . S
C188 C187 1.382 . S
C188 H190 0.952 . S
C189 N184 1.332 . S
C189 C185 1.382 . S
C189 H191 0.948 . S
H190 C188 0.952 . S
H191 C189 0.948 . S
H192 C181 0.952 . S
H193 C183 0.948 . S
C194 C160 1.395 . S
C194 C164 1.391 1_455 S
C195 C157 1.389 . S
C195 C177 1.392 . S
C196 C167 1.392 . S
C196 C169 1.389 . S
C197 C172 1.395 1_455 S
C197 C174 1.391 . S
H198 C158 0.951 . S
H199 C159 0.950 . S
H200 C165 0.949 . S
H201 C166 0.950 . S
H202 C170 0.951 . S
H203 C171 0.950 . S
H204 C175 0.949 . S
H205 C176 0.950 . S
H206 C180 0.950 . S
H207 C182 0.950 . S
H208 C185 0.950 . S
H209 C187 0.950 . S
C210 C211 1.443 . S
C210 N214 1.376 1_565 S
C210 C248 1.389 . S
C211 C210 1.443 . S
C211 C212 1.340 . S
C211 H251 0.951 . S
C212 C211 1.340 . S
C212 C213 1.439 1_565 S
C212 H252 0.950 . S
C213 C212 1.439 1_545 S
C213 N214 1.374 . S
C213 C247 1.395 . S
N214 C210 1.376 1_545 S
N214 C213 1.374 . S
N214 Co215 2.008 . S
Co215 N214 2.008 . S
Co215 N216 1.995 . S
Co215 N221 2.008 . S
Co215 N226 1.995 1_545 S
Co215 N231 2.282 . S
Co215 N237 2.282 1_545 S
N216 Co215 1.995 . S
N216 C217 1.376 . S
N216 C220 1.383 . S
C217 N216 1.376 . S
C217 C218 1.446 . S
C217 C247 1.391 . S
C218 C217 1.446 . S
C218 C219 1.339 . S
C218 H253 0.949 . S
C219 C218 1.339 . S
C219 C220 1.439 . S
C219 H254 0.950 . S
C220 N216 1.383 . S
C220 C219 1.439 . S
C220 C249 1.392 . S
N221 Co215 2.008 . S
N221 C222 1.376 . S
N221 C225 1.374 . S
C222 N221 1.376 . S
C222 C223 1.443 . S
C222 C249 1.389 . S
C223 C222 1.443 . S
C223 C224 1.340 . S
C223 H255 0.951 . S
C224 C223 1.340 . S
C224 C225 1.439 . S
C224 H256 0.950 . S
C225 N221 1.374 . S
C225 C224 1.439 . S
C225 C250 1.395 . S
N226 Co215 1.995 1_565 S
N226 C227 1.376 . S
N226 C230 1.383 . S
C227 N226 1.376 . S
C227 C228 1.446 . S
C227 C250 1.391 1_565 S
C228 C227 1.446 . S
C228 C229 1.339 . S
C228 H257 0.949 . S
C229 C228 1.339 . S
C229 C230 1.439 . S
C229 H258 0.950 . S
C230 N226 1.383 . S
C230 C229 1.439 . S
C230 C248 1.392 . S
N231 Co215 2.282 . S
N231 C234 1.332 . S
N231 C236 1.332 . S
C232 C233 1.386 . S
C232 C235 1.388 . S
C233 C232 1.386 . S
C233 C234 1.382 . S
C233 H259 0.950 . S
C234 N231 1.332 . S
C234 C233 1.382 . S
C234 H245 0.952 . S
C235 C232 1.388 . S
C235 C236 1.382 . S
C235 H260 0.950 . S
C236 N231 1.332 . S
C236 C235 1.382 . S
C236 H246 0.948 . S
N237 Co215 2.282 1_565 S
N237 C241 1.332 . S
N237 C242 1.332 . S
C238 C239 1.388 . S
C238 C242 1.382 . S
C238 H261 0.950 . S
C239 C238 1.388 . S
C239 C240 1.386 . S
C240 C239 1.386 . S
C240 C241 1.382 . S
C240 H262 0.950 . S
C241 N237 1.332 . S
C241 C240 1.382 . S
C241 H243 0.952 1_565 S
C242 N237 1.332 . S
C242 C238 1.382 . S
C242 H244 0.948 . S
H243 C241 0.952 1_545 S
H244 C242 0.948 . S
H245 C234 0.952 . S
H246 C236 0.948 . S
C247 C213 1.395 . S
C247 C217 1.391 . S
C248 C210 1.389 . S
C248 C230 1.392 . S
C249 C220 1.392 . S
C249 C222 1.389 . S
C250 C225 1.395 . S
C250 C227 1.391 1_545 S
H251 C211 0.951 . S
H252 C212 0.950 . S
H253 C218 0.949 . S
H254 C219 0.950 . S
H255 C223 0.951 . S
H256 C224 0.950 . S
H257 C228 0.949 . S
H258 C229 0.950 . S
H259 C233 0.950 . S
H260 C235 0.950 . S
H261 C238 0.950 . S
H262 C240 0.950 . S
C263 C264 1.443 . S
C263 N267 1.376 . S
C263 C301 1.389 . S
C264 C263 1.443 . S
C264 C265 1.340 . S
C264 H304 0.951 . S
C265 C264 1.340 . S
C265 C266 1.439 . S
C265 H305 0.950 . S
C266 C265 1.439 . S
C266 N267 1.374 . S
C266 C300 1.395 . S
N267 C263 1.376 . S
N267 C266 1.374 . S
N267 Co268 2.008 . S
Co268 N267 2.008 . S
Co268 N269 1.995 . S
Co268 N274 2.008 . S
Co268 N279 1.995 . S
Co268 N284 2.282 . S
Co268 N290 2.282 . S
N269 Co268 1.995 . S
N269 C270 1.376 . S
N269 C273 1.383 1_554 S
C270 N269 1.376 . S
C270 C271 1.446 1_554 S
C270 C300 1.391 . S
C271 C270 1.446 1_556 S
C271 C272 1.339 . S
C271 H306 0.949 . S
C272 C271 1.339 . S
C272 C273 1.439 . S
C272 H307 0.950 . S
C273 N269 1.383 1_556 S
C273 C272 1.439 . S
C273 C302 1.392 . S
N274 Co268 2.008 . S
N274 C275 1.376 1_554 S
N274 C278 1.374 . S
C275 N274 1.376 1_556 S
C275 C276 1.443 . S
C275 C302 1.389 . S
C276 C275 1.443 . S
C276 C277 1.340 1_556 S
C276 H308 0.951 . S
C277 C276 1.340 1_554 S
C277 C278 1.439 . S
C277 H309 0.950 . S
C278 N274 1.374 . S
C278 C277 1.439 . S
C278 C303 1.395 . S
N279 Co268 1.995 . S
N279 C280 1.376 . S
N279 C283 1.383 . S
C280 N279 1.376 . S
C280 C281 1.446 . S
C280 C303 1.391 . S
C281 C280 1.446 . S
C281 C282 1.339 . S
C281 H310 0.949 . S
C282 C281 1.339 . S
C282 C283 1.439 . S
C282 H311 0.950 . S
C283 N279 1.383 . S
C283 C282 1.439 . S
C283 C301 1.392 . S
N284 Co268 2.282 . S
N284 C287 1.332 . S
N284 C289 1.332 1_554 S
C285 C286 1.386 . S
C285 C288 1.388 . S
C286 C285 1.386 . S
C286 C287 1.382 1_556 S
C286 H312 0.950 . S
C287 N284 1.332 . S
C287 C286 1.382 1_554 S
C287 H298 0.952 . S
C288 C285 1.388 . S
C288 C289 1.382 . S
C288 H313 0.950 . S
C289 N284 1.332 1_556 S
C289 C288 1.382 . S
C289 H299 0.948 . S
N290 Co268 2.282 . S
N290 C294 1.332 . S
N290 C295 1.332 . S
C291 C292 1.388 . S
C291 C295 1.382 . S
C291 H314 0.950 . S
C292 C291 1.388 . S
C292 C293 1.386 . S
C293 C292 1.386 . S
C293 C294 1.382 . S
C293 H315 0.950 . S
C294 N290 1.332 . S
C294 C293 1.382 . S
C294 H296 0.952 . S
C295 N290 1.332 . S
C295 C291 1.382 . S
C295 H297 0.948 . S
H296 C294 0.952 . S
H297 C295 0.948 . S
H298 C287 0.952 . S
H299 C289 0.948 . S
C300 C266 1.395 . S
C300 C270 1.391 . S
C301 C263 1.389 . S
C301 C283 1.392 . S
C302 C273 1.392 . S
C302 C275 1.389 . S
C303 C278 1.395 . S
C303 C280 1.391 . S
H304 C264 0.951 . S
H305 C265 0.950 . S
H306 C271 0.949 . S
H307 C272 0.950 . S
H308 C276 0.951 . S
H309 C277 0.950 . S
H310 C281 0.949 . S
H311 C282 0.950 . S
H312 C286 0.950 . S
H313 C288 0.950 . S
H314 C291 0.950 . S
H315 C293 0.950 . S
C316 C317 1.443 1_645 S
C316 N320 1.376 1_655 S
C316 C354 1.389 1_545 S
C317 C316 1.443 1_465 S
C317 C318 1.340 1_565 S
C317 H357 0.951 . S
C318 C317 1.340 1_545 S
C318 C319 1.439 . S
C318 H358 0.950 . S
C319 C318 1.439 . S
C319 N320 1.374 . S
C319 C353 1.395 . S
N320 C316 1.376 1_455 S
N320 C319 1.374 . S
N320 Co321 2.008 1_455 S
Co321 N320 2.008 1_655 S
Co321 N322 1.995 1_655 S
Co321 N327 2.008 . S
Co321 N332 1.995 . S
Co321 N337 2.282 . S
Co321 N343 2.282 . S
N322 Co321 1.995 1_455 S
N322 C323 1.376 . S
N322 C326 1.383 . S
C323 N322 1.376 . S
C323 C324 1.446 . S
C323 C353 1.391 . S
C324 C323 1.446 . S
C324 C325 1.339 . S
C324 H359 0.949 . S
C325 C324 1.339 . S
C325 C326 1.439 . S
C325 H360 0.950 . S
C326 N322 1.383 . S
C326 C325 1.439 . S
C326 C355 1.392 1_455 S
N327 Co321 2.008 . S
N327 C328 1.376 . S
N327 C331 1.374 . S
C328 N327 1.376 . S
C328 C329 1.443 . S
C328 C355 1.389 . S
C329 C328 1.443 . S
C329 C330 1.340 . S
C329 H361 0.951 . S
C330 C329 1.340 . S
C330 C331 1.439 . S
C330 H362 0.950 . S
C331 N327 1.374 . S
C331 C330 1.439 . S
C331 C356 1.395 . S
N332 Co321 1.995 . S
N332 C333 1.376 . S
N332 C336 1.383 1_545 S
C333 N332 1.376 . S
C333 C334 1.446 1_545 S
C333 C356 1.391 . S
C334 C333 1.446 1_565 S
C334 C335 1.339 . S
C334 H363 0.949 . S
C335 C334 1.339 . S
C335 C336 1.439 . S
C335 H364 0.950 . S
C336 N332 1.383 1_565 S
C336 C335 1.439 . S
C336 C354 1.392 . S
N337 Co321 2.282 . S
N337 C340 1.332 . S
N337 C342 1.332 . S
C338 C339 1.386 . S
C338 C341 1.388 . S
C339 C338 1.386 . S
C339 C340 1.382 . S
C339 H365 0.950 . S
C340 N337 1.332 . S
C340 C339 1.382 . S
C340 H351 0.952 . S
C341 C338 1.388 . S
C341 C342 1.382 . S
C341 H366 0.960 . S
C342 N337 1.332 . S
C342 C341 1.382 . S
C342 H352 0.948 1_655 S
N343 Co321 2.282 . S
N343 C347 1.332 1_655 S
N343 C348 1.332 1_545 S
C344 C345 1.388 . S
C344 C348 1.382 . S
C344 H367 0.950 . S
C345 C344 1.388 . S
C345 C346 1.386 1_655 S
C346 C345 1.386 1_455 S
C346 C347 1.382 1_565 S
C346 H368 0.950 . S
C347 N343 1.332 1_455 S
C347 C346 1.382 1_545 S
C347 H349 0.952 . S
C348 N343 1.332 1_565 S
C348 C344 1.382 . S
C348 H350 0.948 . S
H349 C347 0.952 . S
H350 C348 0.948 . S
H351 C340 0.952 . S
H352 C342 0.948 1_455 S
C353 C319 1.395 . S
C353 C323 1.391 . S
C354 C316 1.389 1_565 S
C354 C336 1.392 . S
C355 C326 1.392 1_655 S
C355 C328 1.389 . S
C356 C331 1.395 . S
C356 C333 1.391 . S
H357 C317 0.951 . S
H358 C318 0.950 . S
H359 C324 0.949 . S
H360 C325 0.950 . S
H361 C329 0.951 . S
H362 C330 0.950 . S
H363 C334 0.949 . S
H364 C335 0.950 . S
H365 C339 0.950 . S
H366 C341 0.960 . S
H367 C344 0.950 . S
H368 C346 0.950 . S
C369 C370 1.443 . S
C369 N373 1.376 . S
C369 C407 1.389 . S
C370 C369 1.443 . S
C370 C371 1.340 . S
C370 H410 0.951 . S
C371 C370 1.340 . S
C371 C372 1.439 . S
C371 H411 0.950 . S
C372 C371 1.439 . S
C372 N373 1.374 . S
C372 C406 1.395 . S
N373 C369 1.376 . S
N373 C372 1.374 . S
N373 Co374 2.008 . S
Co374 N373 2.008 . S
Co374 N375 1.995 1_554 S
Co374 N380 2.008 . S
Co374 N385 1.995 . S
Co374 N390 2.282 1_554 S
Co374 N396 2.282 . S
N375 Co374 1.995 1_556 S
N375 C376 1.376 . S
N375 C379 1.383 . S
C376 N375 1.376 . S
C376 C377 1.446 . S
C376 C406 1.391 1_556 S
C377 C376 1.446 . S
C377 C378 1.339 . S
C377 H412 0.949 . S
C378 C377 1.339 . S
C378 C379 1.439 . S
C378 H413 0.950 . S
C379 N375 1.383 . S
C379 C378 1.439 . S
C379 C408 1.392 . S
N380 Co374 2.008 . S
N380 C381 1.376 1_554 S
N380 C384 1.374 . S
C381 N380 1.376 1_556 S
C381 C382 1.443 . S
C381 C408 1.389 . S
C382 C381 1.443 . S
C382 C383 1.340 . S
C382 H414 0.951 . S
C383 C382 1.340 . S
C383 C384 1.439 1_556 S
C383 H415 0.950 . S
C384 N380 1.374 . S
C384 C383 1.439 1_554 S
C384 C409 1.395 . S
N385 Co374 1.995 . S
N385 C386 1.376 . S
N385 C389 1.383 . S
C386 N385 1.376 . S
C386 C387 1.446 . S
C386 C409 1.391 . S
C387 C386 1.446 . S
C387 C388 1.339 . S
C387 H416 0.949 . S
C388 C387 1.339 . S
C388 C389 1.439 . S
C388 H417 0.950 . S
C389 N385 1.383 . S
C389 C388 1.439 . S
C389 C407 1.392 . S
N390 Co374 2.282 1_556 S
N390 C393 1.332 . S
N390 C395 1.332 . S
C391 C392 1.386 . S
C391 C394 1.388 . S
C392 C391 1.386 . S
C392 C393 1.382 . S
C392 H418 0.950 . S
C393 N390 1.332 . S
C393 C392 1.382 . S
C393 H404 0.952 1_556 S
C394 C391 1.388 . S
C394 C395 1.382 . S
C394 H419 0.950 . S
C395 N390 1.332 . S
C395 C394 1.382 . S
C395 H405 0.948 . S
N396 Co374 2.282 . S
N396 C400 1.332 . S
N396 C401 1.332 . S
C397 C398 1.388 . S
C397 C401 1.382 . S
C397 H420 0.950 . S
C398 C397 1.388 . S
C398 C399 1.386 . S
C399 C398 1.386 . S
C399 C400 1.382 . S
C399 H421 0.950 . S
C400 N396 1.332 . S
C400 C399 1.382 . S
C400 H402 0.952 . S
C401 N396 1.332 . S
C401 C397 1.382 . S
C401 H403 0.948 . S
H402 C400 0.952 . S
H403 C401 0.948 . S
H404 C393 0.952 1_554 S
H405 C395 0.948 . S
C406 C372 1.395 . S
C406 C376 1.391 1_554 S
C407 C369 1.389 . S
C407 C389 1.392 . S
C408 C379 1.392 . S
C408 C381 1.389 . S
C409 C384 1.395 . S
C409 C386 1.391 . S
H410 C370 0.951 . S
H411 C371 0.950 . S
H412 C377 0.949 . S
H413 C378 0.950 . S
H414 C382 0.951 . S
H415 C383 0.950 . S
H416 C387 0.949 . S
H417 C388 0.950 . S
H418 C392 0.950 . S
H419 C394 0.950 . S
H420 C397 0.950 . S
H421 C399 0.950 . S
C422 C423 1.369 . S
C422 C424 1.419 . S
C422 H426 0.930 . S
C423 C422 1.369 . S
C423 C432 1.429 . S
C424 C422 1.419 . S
C424 C425 1.363 . S
C424 H427 0.929 . S
C425 C424 1.363 . S
C425 C431 1.428 . S
H426 C422 0.930 . S
H427 C424 0.929 . S
S428 N429 1.613 . S
S428 N430 1.610 . S
N429 S428 1.613 . S
N429 C432 1.350 . S
N430 S428 1.610 . S
N430 C431 1.351 . S
C431 C425 1.428 . S
C431 N430 1.351 . S
C431 C432 1.434 . S
C432 C423 1.429 . S
C432 N429 1.350 . S
C432 C431 1.434 . S
C433 C434 1.369 . S
C433 C435 1.419 . S
C433 H437 0.930 . S
C434 C433 1.369 . S
C434 C443 1.429 . S
C435 C433 1.419 . S
C435 C436 1.363 . S
C435 H438 0.929 . S
C436 C435 1.363 . S
C436 C442 1.428 . S
H437 C433 0.930 . S
H438 C435 0.929 . S
S439 N440 1.613 . S
S439 N441 1.610 . S
N440 S439 1.613 . S
N440 C443 1.350 . S
N441 S439 1.610 . S
N441 C442 1.351 . S
C442 C436 1.428 . S
C442 N441 1.351 . S
C442 C443 1.434 . S
C443 C434 1.429 . S
C443 N440 1.350 . S
C443 C442 1.434 . S
C444 C445 1.369 . S
C444 C446 1.419 . S
C444 H448 0.930 . S
C445 C444 1.369 . S
C445 C454 1.429 . S
C446 C444 1.419 . S
C446 C447 1.363 . S
C446 H449 0.929 . S
C447 C446 1.363 . S
C447 C453 1.428 1_655 S
H448 C444 0.930 . S
H449 C446 0.929 . S
S450 N451 1.613 . S
S450 N452 1.610 . S
N451 S450 1.613 . S
N451 C454 1.350 1_455 S
N452 S450 1.610 . S
N452 C453 1.351 . S
C453 C447 1.428 1_455 S
C453 N452 1.351 . S
C453 C454 1.434 1_455 S
C454 C445 1.429 . S
C454 N451 1.350 1_655 S
C454 C453 1.434 1_655 S
C455 C456 1.369 . S
C455 C457 1.419 . S
C455 H459 0.930 . S
C456 C455 1.369 . S
C456 C465 1.429 . S
C457 C455 1.419 . S
C457 C458 1.363 . S
C457 H460 0.929 . S
C458 C457 1.363 . S
C458 C464 1.428 . S
H459 C455 0.930 . S
H460 C457 0.929 . S
S461 N462 1.613 . S
S461 N463 1.610 . S
N462 S461 1.613 . S
N462 C465 1.350 . S
N463 S461 1.610 . S
N463 C464 1.351 . S
C464 C458 1.428 . S
C464 N463 1.351 . S
C464 C465 1.434 . S
C465 C456 1.429 . S
C465 N462 1.350 . S
C465 C464 1.434 . S
C466 C467 1.369 . S
C466 C468 1.419 . S
C466 H470 0.930 . S
C467 C466 1.369 . S
C467 C476 1.429 . S
C468 C466 1.419 . S
C468 C469 1.363 . S
C468 H471 0.929 . S
C469 C468 1.363 . S
C469 C475 1.428 . S
H470 C466 0.930 . S
H471 C468 0.929 . S
S472 N473 1.613 . S
S472 N474 1.610 . S
N473 S472 1.613 . S
N473 C476 1.350 . S
N474 S472 1.610 . S
N474 C475 1.351 . S
C475 C469 1.428 . S
C475 N474 1.351 . S
C475 C476 1.434 . S
C476 C467 1.429 . S
C476 N473 1.350 . S
C476 C475 1.434 . S
C477 C478 1.369 . S
C477 C479 1.419 . S
C477 H481 0.930 . S
C478 C477 1.369 . S
C478 C487 1.429 . S
C479 C477 1.419 . S
C479 C480 1.363 . S
C479 H482 0.929 . S
C480 C479 1.363 . S
C480 C486 1.428 . S
H481 C477 0.930 . S
H482 C479 0.929 . S
S483 N484 1.613 . S
S483 N485 1.610 . S
N484 S483 1.613 . S
N484 C487 1.350 . S
N485 S483 1.610 . S
N485 C486 1.351 . S
C486 C480 1.428 . S
C486 N485 1.351 . S
C486 C487 1.434 . S
C487 C478 1.429 . S
C487 N484 1.350 . S
C487 C486 1.434 . S
C488 C489 1.369 . S
C488 C490 1.419 . S
C488 H492 0.930 . S
C489 C488 1.369 . S
C489 C498 1.429 . S
C490 C488 1.419 . S
C490 C491 1.363 . S
C490 H493 0.929 . S
C491 C490 1.363 . S
C491 C497 1.428 . S
H492 C488 0.930 . S
H493 C490 0.929 . S
S494 N495 1.599 1_455 S
S494 N496 1.610 . S
N495 S494 1.599 1_655 S
N495 C498 1.362 . S
N496 S494 1.610 . S
N496 C497 1.351 1_455 S
C497 C491 1.428 . S
C497 N496 1.351 1_655 S
C497 C498 1.434 . S
C498 C489 1.429 . S
C498 N495 1.362 . S
C498 C497 1.434 . S
C499 C500 1.369 . S
C499 C501 1.419 . S
C499 H503 0.930 . S
C500 C499 1.369 . S
C500 C509 1.429 . S
C501 C499 1.419 . S
C501 C502 1.363 . S
C501 H504 0.929 . S
C502 C501 1.363 . S
C502 C508 1.428 . S
H503 C499 0.930 . S
H504 C501 0.929 . S
S505 N506 1.613 . S
S505 N507 1.610 . S
N506 S505 1.613 . S
N506 C509 1.350 . S
N507 S505 1.610 . S
N507 C508 1.351 . S
C508 C502 1.428 . S
C508 N507 1.351 . S
C508 C509 1.434 . S
C509 C500 1.429 . S
C509 N506 1.350 . S
C509 C508 1.434 . S
C510 C511 1.369 . S
C510 C512 1.419 . S
C510 H514 0.930 . S
C511 C510 1.369 . S
C511 C520 1.429 . S
C512 C510 1.419 . S
C512 C513 1.363 . S
C512 H515 0.929 . S
C513 C512 1.363 . S
C513 C519 1.428 . S
H514 C510 0.930 . S
H515 C512 0.929 . S
S516 N517 1.613 . S
S516 N518 1.610 . S
N517 S516 1.613 . S
N517 C520 1.350 . S
N518 S516 1.610 . S
N518 C519 1.351 . S
C519 C513 1.428 . S
C519 N518 1.351 . S
C519 C520 1.434 . S
C520 C511 1.429 . S
C520 N517 1.350 . S
C520 C519 1.434 . S
C521 C522 1.369 . S
C521 C523 1.419 . S
C521 H525 0.930 . S
C522 C521 1.369 . S
C522 C531 1.429 . S
C523 C521 1.419 . S
C523 C524 1.363 . S
C523 H526 0.929 . S
C524 C523 1.363 . S
C524 C530 1.428 . S
H525 C521 0.930 . S
H526 C523 0.929 . S
S527 N528 1.613 . S
S527 N529 1.610 . S
N528 S527 1.613 . S
N528 C531 1.350 . S
N529 S527 1.610 . S
N529 C530 1.351 . S
C530 C524 1.428 . S
C530 N529 1.351 . S
C530 C531 1.434 . S
C531 C522 1.429 . S
C531 N528 1.350 . S
C531 C530 1.434 . S
C532 C533 1.369 . S
C532 C534 1.419 . S
C532 H536 0.930 . S
C533 C532 1.369 . S
C533 C542 1.429 . S
C534 C532 1.419 . S
C534 C535 1.363 . S
C534 H537 0.929 . S
C535 C534 1.363 . S
C535 C541 1.428 . S
H536 C532 0.930 . S
H537 C534 0.929 . S
S538 N539 1.613 . S
S538 N540 1.610 . S
N539 S538 1.613 . S
N539 C542 1.350 . S
N540 S538 1.610 . S
N540 C541 1.351 . S
C541 C535 1.428 . S
C541 N540 1.351 . S
C541 C542 1.434 . S
C542 C533 1.429 . S
C542 N539 1.350 . S
C542 C541 1.434 . S
C543 C544 1.369 . S
C543 C545 1.419 . S
C543 H547 0.930 . S
C544 C543 1.369 . S
C544 C553 1.429 . S
C545 C543 1.419 . S
C545 C546 1.363 . S
C545 H548 0.929 . S
C546 C545 1.363 . S
C546 C552 1.428 . S
H547 C543 0.930 . S
H548 C545 0.929 . S
S549 N550 1.613 . S
S549 N551 1.610 . S
N550 S549 1.613 . S
N550 C553 1.350 . S
N551 S549 1.610 . S
N551 C552 1.351 . S
C552 C546 1.428 . S
C552 N551 1.351 . S
C552 C553 1.434 . S
C553 C544 1.429 . S
C553 N550 1.350 . S
C553 C552 1.434 . S
C554 C555 1.369 . S
C554 C556 1.419 . S
C554 H558 0.930 . S
C555 C554 1.369 . S
C555 C564 1.429 . S
C556 C554 1.419 . S
C556 C557 1.363 . S
C556 H559 0.929 . S
C557 C556 1.363 . S
C557 C563 1.428 . S
H558 C554 0.930 . S
H559 C556 0.929 . S
S560 N561 1.613 . S
S560 N562 1.610 . S
N561 S560 1.613 . S
N561 C564 1.350 . S
N562 S560 1.610 . S
N562 C563 1.351 . S
C563 C557 1.428 . S
C563 N562 1.351 . S
C563 C564 1.434 . S
C564 C555 1.429 . S
C564 N561 1.350 . S
C564 C563 1.434 . S
C565 C566 1.369 . S
C565 C567 1.419 . S
C565 H569 0.930 . S
C566 C565 1.369 . S
C566 C575 1.429 . S
C567 C565 1.419 . S
C567 C568 1.363 . S
C567 H570 0.929 . S
C568 C567 1.363 . S
C568 C574 1.428 . S
H569 C565 0.930 . S
H570 C567 0.929 . S
S571 N572 1.613 . S
S571 N573 1.610 . S
N572 S571 1.613 . S
N572 C575 1.350 . S
N573 S571 1.610 . S
N573 C574 1.351 . S
C574 C568 1.428 . S
C574 N573 1.351 . S
C574 C575 1.434 . S
C575 C566 1.429 . S
C575 N572 1.350 . S
C575 C574 1.434 . S
C576 C577 1.369 . S
C576 C578 1.419 . S
C576 H580 0.930 . S
C577 C576 1.369 . S
C577 C586 1.429 . S
C578 C576 1.419 . S
C578 C579 1.363 . S
C578 H581 0.929 . S
C579 C578 1.363 . S
C579 C585 1.428 . S
H580 C576 0.930 . S
H581 C578 0.929 . S
S582 N583 1.613 . S
S582 N584 1.610 . S
N583 S582 1.613 . S
N583 C586 1.350 . S
N584 S582 1.610 . S
N584 C585 1.351 . S
C585 C579 1.428 . S
C585 N584 1.351 . S
C585 C586 1.434 . S
C586 C577 1.429 . S
C586 N583 1.350 . S
C586 C585 1.434 . S
C587 C588 1.369 . S
C587 C589 1.419 . S
C587 H591 0.930 . S
C588 C587 1.369 . S
C588 C597 1.429 . S
C589 C587 1.419 . S
C589 C590 1.363 . S
C589 H592 0.929 . S
C590 C589 1.363 . S
C590 C596 1.428 . S
H591 C587 0.930 . S
H592 C589 0.929 . S
S593 N594 1.613 . S
S593 N595 1.610 . S
N594 S593 1.613 . S
N594 C597 1.350 . S
N595 S593 1.610 . S
N595 C596 1.351 . S
C596 C590 1.428 . S
C596 N595 1.351 . S
C596 C597 1.434 . S
C597 C588 1.429 . S
C597 N594 1.350 . S
C597 C596 1.434 . S
C598 C599 1.369 . S
C598 C600 1.419 . S
C598 H602 0.930 . S
C599 C598 1.369 . S
C599 C608 1.429 . S
C600 C598 1.419 . S
C600 C601 1.363 . S
C600 H603 0.929 . S
C601 C600 1.363 . S
C601 C607 1.428 . S
H602 C598 0.930 . S
H603 C600 0.929 . S
S604 N605 1.613 . S
S604 N606 1.610 . S
N605 S604 1.613 . S
N605 C608 1.350 . S
N606 S604 1.610 . S
N606 C607 1.351 . S
C607 C601 1.428 . S
C607 N606 1.351 . S
C607 C608 1.434 . S
C608 C599 1.429 . S
C608 N605 1.350 . S
C608 C607 1.434 . S
C609 C610 1.369 . S
C609 C611 1.419 . S
C609 H613 0.930 . S
C610 C609 1.369 . S
C610 C619 1.429 . S
C611 C609 1.419 . S
C611 C612 1.363 . S
C611 H614 0.929 . S
C612 C611 1.363 . S
C612 C618 1.428 . S
H613 C609 0.930 . S
H614 C611 0.929 . S
S615 N616 1.613 . S
S615 N617 1.610 . S
N616 S615 1.613 . S
N616 C619 1.350 . S
N617 S615 1.610 . S
N617 C618 1.351 . S
C618 C612 1.428 . S
C618 N617 1.351 . S
C618 C619 1.434 . S
C619 C610 1.429 . S
C619 N616 1.350 . S
C619 C618 1.434 . S
C620 C621 1.369 . S
C620 C622 1.419 . S
C620 H624 0.930 . S
C621 C620 1.369 . S
C621 C630 1.429 . S
C622 C620 1.419 . S
C622 C623 1.363 . S
C622 H625 0.929 . S
C623 C622 1.363 . S
C623 C629 1.428 . S
H624 C620 0.930 . S
H625 C622 0.929 . S
S626 N627 1.613 . S
S626 N628 1.610 . S
N627 S626 1.613 . S
N627 C630 1.350 . S
N628 S626 1.610 . S
N628 C629 1.351 . S
C629 C623 1.428 . S
C629 N628 1.351 . S
C629 C630 1.434 . S
C630 C621 1.429 . S
C630 N627 1.350 . S
C630 C629 1.434 . S
C631 C632 1.369 . S
C631 C633 1.419 . S
C631 H635 0.930 . S
C632 C631 1.369 . S
C632 C641 1.429 . S
C633 C631 1.419 . S
C633 C634 1.363 . S
C633 H636 0.929 . S
C634 C633 1.363 . S
C634 C640 1.428 . S
H635 C631 0.930 . S
H636 C633 0.929 . S
S637 N638 1.613 . S
S637 N639 1.610 . S
N638 S637 1.613 . S
N638 C641 1.350 . S
N639 S637 1.610 . S
N639 C640 1.351 . S
C640 C634 1.428 . S
C640 N639 1.351 . S
C640 C641 1.434 . S
C641 C632 1.429 . S
C641 N638 1.350 . S
C641 C640 1.434 . S
C642 C643 1.369 . S
C642 C644 1.419 . S
C642 H646 0.930 . S
C643 C642 1.369 . S
C643 C652 1.429 . S
C644 C642 1.419 . S
C644 C645 1.363 . S
C644 H647 0.929 . S
C645 C644 1.363 . S
C645 C651 1.428 . S
H646 C642 0.930 . S
H647 C644 0.929 . S
S648 N649 1.613 . S
S648 N650 1.610 . S
N649 S648 1.613 . S
N649 C652 1.350 . S
N650 S648 1.610 . S
N650 C651 1.351 . S
C651 C645 1.428 . S
C651 N650 1.351 . S
C651 C652 1.434 . S
C652 C643 1.429 . S
C652 N649 1.350 . S
C652 C651 1.434 . S
C653 C654 1.369 . S
C653 C655 1.419 . S
C653 H657 0.930 . S
C654 C653 1.369 . S
C654 C663 1.429 . S
C655 C653 1.419 . S
C655 C656 1.363 . S
C655 H658 0.929 . S
C656 C655 1.363 . S
C656 C662 1.428 . S
H657 C653 0.930 . S
H658 C655 0.929 . S
S659 N660 1.613 . S
S659 N661 1.610 . S
N660 S659 1.613 . S
N660 C663 1.350 . S
N661 S659 1.610 . S
N661 C662 1.351 . S
C662 C656 1.428 . S
C662 N661 1.351 . S
C662 C663 1.434 . S
C663 C654 1.429 . S
C663 N660 1.350 . S
C663 C662 1.434 . S
C664 C665 1.369 . S
C664 C666 1.419 . S
C664 H668 0.930 . S
C665 C664 1.369 . S
C665 C674 1.429 . S
C666 C664 1.419 . S
C666 C667 1.363 . S
C666 H669 0.929 . S
C667 C666 1.363 . S
C667 C673 1.428 . S
H668 C664 0.930 . S
H669 C666 0.929 . S
S670 N671 1.613 . S
S670 N672 1.610 . S
N671 S670 1.613 . S
N671 C674 1.350 . S
N672 S670 1.610 . S
N672 C673 1.351 . S
C673 C667 1.428 . S
C673 N672 1.351 . S
C673 C674 1.434 . S
C674 C665 1.429 . S
C674 N671 1.350 . S
C674 C673 1.434 . S
C675 C676 1.369 . S
C675 C677 1.419 . S
C675 H679 0.930 . S
C676 C675 1.369 . S
C676 C685 1.429 . S
C677 C675 1.419 . S
C677 C678 1.363 . S
C677 H680 0.929 . S
C678 C677 1.363 . S
C678 C684 1.428 . S
H679 C675 0.930 . S
H680 C677 0.929 . S
S681 N682 1.613 . S
S681 N683 1.610 . S
N682 S681 1.613 . S
N682 C685 1.350 . S
N683 S681 1.610 . S
N683 C684 1.351 . S
C684 C678 1.428 . S
C684 N683 1.351 . S
C684 C685 1.434 . S
C685 C676 1.429 . S
C685 N682 1.350 . S
C685 C684 1.434 . S
C425 C126 1.415 . S
C423 N2 1.418 . S
C436 C195 1.622 . S
C434 N15 1.667 . S
C447 C133 1.533 1_655 S
C445 N27 1.524 . S
C458 C196 1.779 . S
C456 N44 1.823 . S
C469 C249 1.679 . S
C467 N1 1.721 . S
C480 C285 1.696 . S
C478 N18 1.672 . S
C489 N28 1.742 . S
C491 C345 1.689 . S
C502 C408 1.644 . S
C500 N41 1.655 . S
C513 C248 1.646 . S
C511 N14 1.681 . S
C522 N31 1.650 . S
C524 C292 1.642 . S
C535 C338 1.877 . S
C533 N40 1.902 . S
C546 C407 1.702 . S
C544 N5 1.743 . S
C555 N53 1.902 . S
C557 C186 1.846 . S
C568 C143 1.597 1_655 S
C566 N70 1.573 . S
C577 N80 1.699 . S
C579 C179 1.656 . S
C588 N92 1.580 . S
C590 C142 1.583 . S
C601 C354 1.874 . S
C599 N57 1.920 . S
C612 C398 1.584 . S
C610 N67 1.603 . S
C623 C232 1.735 . S
C621 N83 1.770 . S
C632 N96 1.622 . S
C634 C301 1.616 . S
C645 C355 1.712 . S
C643 N66 1.793 . S
C656 C391 1.622 . S
C654 N79 1.663 . S
C667 C239 1.651 . S
C665 N93 1.698 . S
C676 N54 1.487 . S
C678 C302 1.483 . S
