# Generated by pormake.
# Topology zzz, (3,6)-cn, num edge types: 1
# Building blocks:
#     Node 0, Type 0, BuildingBlock: QEWDON_clean_linker_0, # of connection points: 3
#     Node 1, Type 0, BuildingBlock: QEWDON_clean_linker_0, # of connection points: 3
#     Node 2, Type 0, BuildingBlock: QEWDON_clean_linker_0, # of connection points: 3
#     Node 3, Type 0, BuildingBlock: QEWDON_clean_linker_0, # of connection points: 3
#     Node 4, Type 0, BuildingBlock: QEWDON_clean_linker_0, # of connection points: 3
#     Node 5, Type 0, BuildingBlock: QEWDON_clean_linker_0, # of connection points: 3
#     Node 6, Type 0, BuildingBlock: QEWDON_clean_linker_0, # of connection points: 3
#     Node 7, Type 0, BuildingBlock: QEWDON_clean_linker_0, # of connection points: 3
#     Node 8, Type 1, BuildingBlock: BETFAJ_clean_sbu_0, # of connection points: 6
#     Node 9, Type 1, BuildingBlock: BETFAJ_clean_sbu_0, # of connection points: 6
#     Node 10, Type 1, BuildingBlock: BETFAJ_clean_sbu_0, # of connection points: 6
#     Node 11, Type 1, BuildingBlock: BETFAJ_clean_sbu_0, # of connection points: 6
#     Edge 12, Type (0, 1), BuildingBlock: MIFKUJ_clean_linker_0, # of connection points: 2
#     Edge 13, Type (0, 1), BuildingBlock: MIFKUJ_clean_linker_0, # of connection points: 2
#     Edge 14, Type (0, 1), BuildingBlock: MIFKUJ_clean_linker_0, # of connection points: 2
#     Edge 15, Type (0, 1), BuildingBlock: MIFKUJ_clean_linker_0, # of connection points: 2
#     Edge 16, Type (0, 1), BuildingBlock: MIFKUJ_clean_linker_0, # of connection points: 2
#     Edge 17, Type (0, 1), BuildingBlock: MIFKUJ_clean_linker_0, # of connection points: 2
#     Edge 18, Type (0, 1), BuildingBlock: MIFKUJ_clean_linker_0, # of connection points: 2
#     Edge 19, Type (0, 1), BuildingBlock: MIFKUJ_clean_linker_0, # of connection points: 2
#     Edge 20, Type (0, 1), BuildingBlock: MIFKUJ_clean_linker_0, # of connection points: 2
#     Edge 21, Type (0, 1), BuildingBlock: MIFKUJ_clean_linker_0, # of connection points: 2
#     Edge 22, Type (0, 1), BuildingBlock: MIFKUJ_clean_linker_0, # of connection points: 2
#     Edge 23, Type (0, 1), BuildingBlock: MIFKUJ_clean_linker_0, # of connection points: 2
#     Edge 24, Type (0, 1), BuildingBlock: MIFKUJ_clean_linker_0, # of connection points: 2
#     Edge 25, Type (0, 1), BuildingBlock: MIFKUJ_clean_linker_0, # of connection points: 2
#     Edge 26, Type (0, 1), BuildingBlock: MIFKUJ_clean_linker_0, # of connection points: 2
#     Edge 27, Type (0, 1), BuildingBlock: MIFKUJ_clean_linker_0, # of connection points: 2
#     Edge 28, Type (0, 1), BuildingBlock: MIFKUJ_clean_linker_0, # of connection points: 2
#     Edge 29, Type (0, 1), BuildingBlock: MIFKUJ_clean_linker_0, # of connection points: 2
#     Edge 30, Type (0, 1), BuildingBlock: MIFKUJ_clean_linker_0, # of connection points: 2
#     Edge 31, Type (0, 1), BuildingBlock: MIFKUJ_clean_linker_0, # of connection points: 2
#     Edge 32, Type (0, 1), BuildingBlock: MIFKUJ_clean_linker_0, # of connection points: 2
#     Edge 33, Type (0, 1), BuildingBlock: MIFKUJ_clean_linker_0, # of connection points: 2
#     Edge 34, Type (0, 1), BuildingBlock: MIFKUJ_clean_linker_0, # of connection points: 2
#     Edge 35, Type (0, 1), BuildingBlock: MIFKUJ_clean_linker_0, # of connection points: 2
# Relax obj value: 0.140
# Max RMSD: 0.161
# Mean RMSD: 0.121
data_MOF--net-zzz--node1-BETFAJ_clean_sbu_0--node2-QEWDON_clean_linker_0--edge1-MIFKUJ_clean_linker_0
_symmetry_space_group_name_H-M    P1
_symmetry_Int_Tables_number       1
_symmetry_cell_setting            triclinic
loop_
_symmetry_equiv_pos_as_xyz
'x, y, z'
_cell_length_a     72.393272
_cell_length_b     72.208062
_cell_length_c     16.327854
_cell_angle_alpha  90.125801
_cell_angle_beta   90.026993
_cell_angle_gamma 89.932403
loop_
_atom_site_label
_atom_site_type_symbol
_atom_site_fract_x
_atom_site_fract_y
_atom_site_fract_z
_atom_type_partial_charge
H0 H 0.75635 0.52699 0.14413 0.0
C1 C 0.76617 0.52528 0.19357 0.0
C2 C 0.78457 0.52141 0.17374 0.0
C3 C 0.76074 0.52785 0.27584 0.0
H4 H 0.81199 0.51675 0.22003 0.0
C5 C 0.79775 0.51977 0.23605 0.0
C6 C 0.79299 0.52217 0.31837 0.0
C7 C 0.77444 0.52628 0.33822 0.0
C8 C 0.74109 0.53315 0.29515 0.0
H9 H 0.77078 0.52795 0.40207 0.0
C10 C 0.72607 0.52756 0.24454 0.0
C11 C 0.70783 0.53379 0.25987 0.0
C12 C 0.73729 0.5448 0.3623 0.0
H13 H 0.74825 0.5499 0.40132 0.0
C14 C 0.71932 0.55068 0.37867 0.0
H15 H 0.72846 0.51826 0.1936 0.0
C16 C 0.70476 0.54537 0.32794 0.0
H17 H 0.69113 0.55079 0.34109 0.0
H18 H 0.71671 0.55978 0.43016 0.0
H19 H 1.00226 0.75161 0.18229 0.0
C20 C 1.00461 0.76268 0.22587 0.0
C21 C 1.00257 0.78088 0.1987 0.0
C22 C 1.00884 0.75886 0.30856 0.0
H23 H 1.00327 0.80968 0.2319 0.0
C24 C 1.0046 0.79556 0.25384 0.0
C25 C 1.00876 0.79249 0.33618 0.0
C26 C 1.01123 0.77409 0.36351 0.0
C27 C 1.00927 0.73903 0.33691 0.0
H28 H 0.01467 0.77176 0.42716 0.0
C29 C 1.0138 0.7243 0.28251 0.0
C30 C 1.01147 0.70552 0.30526 0.0
C31 C 1.00348 0.73449 0.41657 0.0
H32 H 0.99948 0.74512 0.45989 0.0
C33 C 1.00186 0.71605 0.44066 0.0
H34 H 0.01905 0.72738 0.22208 0.0
C35 C 1.00553 0.70172 0.38555 0.0
H36 H 1.00313 0.68766 0.40563 0.0
H37 H 0.99711 0.71282 0.50184 0.0
H38 H 0.77989 1.00574 0.16869 0.0
C39 C 0.77049 1.00816 0.21903 0.0
C40 C 0.75155 1.00886 0.20167 0.0
C41 C 0.77699 1.0099 0.30051 0.0
H42 H 0.72419 1.01214 0.25187 0.0
C43 C 0.73886 1.01131 0.26539 0.0
C44 C 0.74455 1.01292 0.34633 0.0
C45 C 0.76362 1.01254 0.36411 0.0
C46 C 0.79742 1.00805 0.31899 0.0
H47 H 0.76778 1.01434 0.4272 0.0
C48 C 0.81136 1.01128 0.25877 0.0
C49 C 0.83033 1.00818 0.27611 0.0
C50 C 0.80319 1.00208 0.39708 0.0
H51 H 0.79338 0.99866 0.44452 0.0
C52 C 0.82185 0.99987 0.41546 0.0
H53 H 0.80761 1.01589 0.1981 0.0
C54 C 0.83526 1.00289 0.35601 0.0
H55 H 0.84961 1.001 0.37294 0.0
H56 H 0.82594 0.99546 0.47616 0.0
H57 H 0.51943 0.78524 0.17747 0.0
C58 C 0.51799 0.77494 0.2249 0.0
C59 C 0.51177 0.75742 0.20152 0.0
C60 C 0.5225 0.77894 0.30724 0.0
H61 H 0.50733 0.72932 0.23941 0.0
C62 C 0.5111 0.74316 0.25929 0.0
C63 C 0.51609 0.74609 0.341 0.0
C64 C 0.52158 0.76411 0.3652 0.0
C65 C 0.52845 0.79838 0.33061 0.0
H66 H 0.52475 0.7664 0.4291 0.0
C67 C 0.52418 0.81404 0.28077 0.0
C68 C 0.5308 0.83201 0.29975 0.0
C69 C 0.53906 0.80147 0.40164 0.0
H70 H 0.5433 0.79021 0.44085 0.0
C71 C 0.54484 0.81926 0.42299 0.0
H72 H 0.51593 0.81239 0.2263 0.0
C73 C 0.54079 0.83434 0.37295 0.0
H74 H 0.54554 0.84789 0.39205 0.0
H75 H 0.55281 0.82133 0.47838 0.0
H76 H 0.27689 0.51241 0.20924 0.0
C77 C 0.26701 0.51178 0.15962 0.0
C78 C 0.24848 0.50802 0.17834 0.0
C79 C 0.27261 0.51568 0.07868 0.0
H80 H 0.2208 0.50632 0.12902 0.0
C81 C 0.23532 0.50821 0.11508 0.0
C82 C 0.24029 0.51205 0.03431 0.0
C83 C 0.25896 0.51559 0.01582 0.0
C84 C 0.29227 0.52145 0.06233 0.0
H85 H 0.26266 0.51845 0.95291 0.0
C86 C 0.30718 0.51535 0.11234 0.0
C87 C 0.32527 0.52247 0.10224 0.0
C88 C 0.2961 0.53434 6e-05 0.0
H89 H 0.28523 0.53989 0.96178 0.0
C90 C 0.31395 0.54099 0.98819 0.0
H91 H 0.3048 0.50506 0.15918 0.0
C92 C 0.32834 0.53531 0.039 0.0
H93 H 0.34181 0.54148 0.02995 0.0
H94 H 0.31657 0.55107 0.94058 0.0
H95 H 1.00847 0.28018 0.21631 0.0
C96 C 1.013 0.26976 0.17293 0.0
C97 C 1.01379 0.25127 0.1985 0.0
C98 C 0.01741 0.27468 0.09166 0.0
H99 H 0.0182 0.22308 0.16106 0.0
C100 C 0.01862 0.23746 0.14205 0.0
C101 C 0.02273 0.24164 0.06037 0.0
C102 C 0.02222 0.26035 0.03547 0.0
C103 C 0.01584 0.29457 0.06525 0.0
H104 H 0.02571 0.26364 0.97271 0.0
C105 C 0.01905 0.30945 0.12064 0.0
C106 C 0.01628 0.32809 0.0968 0.0
C107 C 1.01016 0.29885 0.98506 0.0
H108 H 1.00702 0.28804 0.94121 0.0
C109 C 1.00775 0.31719 0.96073 0.0
H110 H 0.02386 0.3066 0.18212 0.0
C111 C 1.01066 0.33165 0.01589 0.0
H112 H 1.00801 0.34566 0.99541 0.0
H113 H 1.0032 0.3202 0.899 0.0
H114 H 0.25265 1.00485 0.15403 0.0
C115 C 0.26292 1.00992 0.11142 0.0
C116 C 0.28156 1.00855 0.13276 0.0
C117 C 0.25767 0.01706 0.0344 0.0
H118 H 0.30966 1.01227 0.0937 0.0
C119 C 0.2952 1.01398 0.07737 0.0
C120 C 0.29067 0.0204 -0.00045 0.0
C121 C 0.27185 0.02215 0.97797 0.0
C122 C 0.23752 0.01772 0.01195 0.0
H123 H 0.26838 0.02734 0.91776 0.0
C124 C 0.22356 0.02084 0.07178 0.0
C125 C 0.20454 0.01991 0.05126 0.0
C126 C 0.23203 1.01408 0.93092 0.0
H127 H 0.24209 1.01115 0.88364 0.0
C128 C 0.21337 1.01339 0.91002 0.0
H129 H 0.22746 0.02413 0.13413 0.0
C130 C 0.19978 0.0161 0.96933 0.0
H131 H 0.18548 1.01475 0.95088 0.0
H132 H 0.2094 1.01031 0.84753 0.0
H133 H 0.54024 0.25179 0.16178 0.0
C134 C 0.53599 0.26259 0.11997 0.0
C135 C 0.54338 0.28033 0.13095 0.0
C136 C 0.52362 0.25884 0.05513 0.0
H137 H 0.54398 0.30833 0.08656 0.0
C138 C 0.5387 0.29445 0.07626 0.0
C139 C 0.52653 0.29143 0.01126 0.0
C140 C 0.51865 0.27367 0.00164 0.0
C141 C 0.51684 0.23932 0.04171 0.0
H142 H 0.50887 0.27149 0.95242 0.0
C143 C 0.5153 0.22639 0.10715 0.0
C144 C 0.51063 0.20761 0.09253 0.0
C145 C 0.51303 0.23306 0.9618 0.0
H146 H 0.51449 0.24212 0.90953 0.0
C147 C 0.508 0.21473 0.94721 0.0
H148 H 0.5176 0.23086 0.16959 0.0
C149 C 0.50695 0.2021 0.01146 0.0
H150 H 0.50373 0.18783 0.99691 0.0
H151 H 0.50533 0.21014 0.88516 0.0
Sm152 Sm 0.027 1.01412 0.75759 0.0
Sm153 Sm 1.00937 0.02627 0.57776 0.0
C154 C 0.02848 0.99826 0.90196 0.0
C155 C 0.02372 0.97887 0.91893 0.0
C156 C 1.01 0.97021 0.87161 0.0
C157 C 1.00804 0.95106 0.87245 0.0
C158 C 0.0199 0.94009 0.91993 0.0
C159 C 0.03302 0.94879 0.97077 0.0
C160 C 0.03496 0.96808 0.97 0.0
C161 C 0.05426 0.01877 0.63938 0.0
C162 C 0.01731 0.98217 0.61443 0.0
C163 C 1.00438 0.04139 0.43356 0.0
C164 C 0.99379 0.05824 0.41491 0.0
C165 C 1.00162 0.07186 0.36493 0.0
C166 C 0.99436 0.0898 0.36467 0.0
C167 C 0.97918 0.09437 0.41472 0.0
C168 C 0.97057 0.08035 0.46016 0.0
C169 C 0.97783 0.06244 0.46036 0.0
C170 C 0.98211 0.02285 0.69736 0.0
C171 C 0.02091 0.05847 0.71926 0.0
O172 O 0.01475 1.00904 0.88018 0.0
O173 O 0.0431 1.00029 0.85574 0.0
O174 O 0.03699 0.02027 0.63147 0.0
O175 O 0.05779 1.01527 0.71602 0.0
O176 O 0.0207 0.98623 0.69238 0.0
O177 O 1.01404 0.99493 0.55776 0.0
O178 O 0.0192 0.04442 0.47782 0.0
O179 O 0.99483 0.02696 0.45803 0.0
O180 O 0.99924 0.0199 0.70339 0.0
O181 O 0.97878 0.02788 0.62255 0.0
O182 O 0.01525 0.05424 0.64387 0.0
O183 O 0.02563 0.0458 0.77456 0.0
H184 H 1.00143 0.97808 0.83014 0.0
H185 H 0.99759 0.94481 0.83382 0.0
H186 H 0.04242 0.94067 0.00781 0.0
H187 H 0.04585 0.97446 0.00573 0.0
H188 H 1.0141 0.06898 0.33056 0.0
H189 H 1.00142 0.10034 0.32957 0.0
H190 H 0.95872 0.0834 0.49837 0.0
H191 H 0.97159 0.05223 0.50011 0.0
Sm192 Sm 0.52517 0.02867 0.79364 0.0
Sm193 Sm 0.51393 1.01261 0.60829 0.0
C194 C 0.53571 0.03184 0.94715 0.0
C195 C 0.55161 0.04116 0.98489 0.0
C196 C 0.56316 0.03095 0.03663 0.0
C197 C 0.58085 0.03734 0.05481 0.0
C198 C 0.58724 0.0542 0.02212 0.0
C199 C 0.57491 0.06526 0.97703 0.0
C200 C 0.55728 0.05872 0.9579 0.0
C201 C 0.52265 0.05675 0.67717 0.0
C202 C 0.55833 0.01879 0.65765 0.0
C203 C 0.50356 1.00979 0.45407 0.0
C204 C 0.48537 1.0063 0.41751 0.0
C205 C 0.46952 1.01404 0.45341 0.0
C206 C 0.4521 1.00964 0.42354 0.0
C207 C 0.4501 0.99736 0.35733 0.0
C208 C 0.46595 0.98962 0.32107 0.0
C209 C 0.48351 0.99413 0.35094 0.0
C210 C 0.51538 0.98489 0.7272 0.0
C211 C 0.48103 0.02186 0.74342 0.0
O212 O 0.54013 0.01764 0.90088 0.0
O213 O 0.52288 0.04244 0.9149 0.0
O214 O 0.5198 0.03966 0.66885 0.0
O215 O 0.52746 0.05969 0.75281 0.0
O216 O 0.55388 0.0229 0.73478 0.0
O217 O 0.54579 1.01534 0.59994 0.0
O218 O 0.50539 0.02569 0.49199 0.0
O219 O 0.51075 0.99591 0.49456 0.0
O220 O 0.51897 1.00184 0.73367 0.0
O221 O 0.51041 0.98184 0.65186 0.0
O222 O 0.48549 0.02015 0.6647 0.0
O223 O 0.49357 0.0231 0.80289 0.0
H224 H 0.55909 0.01731 0.05745 0.0
H225 H 0.58997 0.02826 0.08868 0.0
H226 H 0.57928 0.07844 0.95213 0.0
H227 H 0.54862 0.06686 0.91751 0.0
H228 H 0.47054 0.02319 0.50586 0.0
H229 H 0.44012 1.01546 0.45403 0.0
H230 H 0.46473 0.98007 0.27013 0.0
H231 H 0.4956 0.98785 0.32322 0.0
Sm232 Sm 0.50586 0.52417 0.77819 0.0
Sm233 Sm 0.52142 0.51399 0.60421 0.0
C234 C 0.49943 0.53987 0.92093 0.0
C235 C 0.50208 0.55929 0.94596 0.0
C236 C 0.51979 0.56727 0.94561 0.0
C237 C 0.5218 0.58646 0.94797 0.0
C238 C 0.50617 0.59799 0.95005 0.0
C239 C 0.48857 0.58992 0.9571 0.0
C240 C 0.48658 0.57073 0.95573 0.0
C241 C 0.47986 0.51485 0.66218 0.0
C242 C 0.51647 0.55803 0.64485 0.0
C243 C 0.52223 0.49904 0.45742 0.0
C244 C 0.52915 0.48071 0.43126 0.0
C245 C 0.51638 0.4666 0.4139 0.0
C246 C 0.52215 0.44821 0.40899 0.0
C247 C 0.54084 0.44364 0.41963 0.0
C248 C 0.55385 0.45783 0.43026 0.0
C249 C 0.54805 0.47624 0.4366 0.0
C250 C 0.55075 0.51641 0.71335 0.0
C251 C 0.51442 0.48079 0.74435 0.0
O252 O 0.51439 0.53021 0.90603 0.0
O253 O 0.48653 0.5373 0.86588 0.0
O254 O 0.49404 0.52469 0.65018 0.0
O255 O 0.47881 0.50989 0.73856 0.0
O256 O 0.51281 0.5531 0.72161 0.0
O257 O 0.51908 0.54556 0.58624 0.0
O258 O 0.50768 0.49839 0.50509 0.0
O259 O 0.5345 0.5113 0.48154 0.0
O260 O 0.53383 0.51878 0.72817 0.0
O261 O 0.55277 0.51292 0.63579 0.0
O262 O 0.51656 0.48532 0.66619 0.0
O263 O 0.51178 0.49344 0.80178 0.0
H264 H 0.53207 0.55883 0.93869 0.0
H265 H 0.53557 0.59226 0.94477 0.0
H266 H 0.47621 0.59838 0.95842 0.0
H267 H 0.47279 0.5649 0.95624 0.0
H268 H 0.50175 0.46965 0.40909 0.0
H269 H 0.51192 0.43747 0.39929 0.0
H270 H 0.56835 0.45457 0.43814 0.0
H271 H 0.55825 0.48678 0.44995 0.0
Sm272 Sm 1.00984 0.51066 0.78 0.0
Sm273 Sm 0.02086 0.5275 0.59662 0.0
C274 C 0.99348 0.50707 0.92179 0.0
C275 C 0.97548 0.49807 0.93368 0.0
C276 C 0.96226 0.50619 0.98508 0.0
C277 C 0.94372 0.50087 0.97936 0.0
C278 C 0.93815 0.48749 0.92153 0.0
C279 C 0.95161 0.47861 0.87377 0.0
C280 C 0.97009 0.48384 0.87979 0.0
C281 C 1.01204 0.48301 0.66079 0.0
C282 C 0.97716 0.51997 0.63853 0.0
C283 C 0.03623 0.5316 0.4526 0.0
C284 C 0.0541 0.54036 0.43652 0.0
C285 C 0.06591 0.53278 0.37752 0.0
C286 C 0.08472 0.53704 0.37889 0.0
C287 C 0.09194 0.54886 0.43971 0.0
C288 C 0.07979 0.55755 0.49457 0.0
C289 C 0.06102 0.55331 0.49309 0.0
C290 C 0.01828 0.55483 0.71724 0.0
C291 C 0.05363 0.51825 0.73765 0.0
O292 O 0.99252 0.52241 0.87909 0.0
O293 O 1.00718 0.49621 0.89936 0.0
O294 O 1.01408 0.50022 0.65268 0.0
O295 O 1.00889 0.47975 0.73772 0.0
O296 O 0.98175 0.51689 0.71624 0.0
O297 O 0.9896 0.52267 0.5799 0.0
O298 O 0.03763 0.51625 0.49487 0.0
O299 O 0.02299 0.54259 0.47863 0.0
O300 O 0.01684 0.53758 0.72357 0.0
O301 O 0.02113 0.55849 0.64042 0.0
O302 O 0.04903 0.52135 0.65989 0.0
O303 O 0.0412 0.51546 0.79643 0.0
H304 H 0.96605 0.51745 0.02568 0.0
H305 H 0.93361 0.5081 0.01647 0.0
H306 H 0.94775 0.46813 0.82939 0.0
H307 H 0.97995 0.47754 0.83842 0.0
H308 H 0.06088 0.52249 0.33458 0.0
H309 H 0.09379 0.52995 0.33634 0.0
H310 H 0.08495 0.56684 0.54148 0.0
H311 H 0.0522 0.55911 0.54018 0.0
H312 H 0.17024 0.03603 0.03274 0.0
H313 H 0.14463 0.03653 0.12888 0.0
H314 H 0.17892 1.01057 0.31173 0.0
H315 H 0.20435 1.00878 0.21339 0.0
H316 H 0.14729 0.99494 0.31657 0.0
H317 H 0.16502 0.05873 0.31489 0.0
H318 H 0.17256 0.08909 0.2547 0.0
H319 H 0.11813 0.09254 0.15118 0.0
H320 H 0.11034 0.06208 0.20989 0.0
H321 H 0.09111 1.01477 0.66032 0.0
H322 H 0.1156 0.01603 0.55801 0.0
H323 H 0.07538 0.02796 0.37066 0.0
H324 H 0.05052 0.02629 0.4736 0.0
H325 H 0.10881 0.05077 0.3656 0.0
H326 H 0.09143 0.98665 0.37436 0.0
H327 H 0.08443 0.95704 0.44244 0.0
H328 H 0.13939 0.95522 0.5412 0.0
H329 H 0.14663 0.98499 0.47472 0.0
C330 C 0.17242 0.03026 0.09312 0.0
C331 C 0.18952 0.02219 0.11434 0.0
C332 C 0.15771 0.03084 0.14888 0.0
C333 C 0.1597 0.02381 0.22863 0.0
C334 C 0.17689 0.01613 0.25083 0.0
C335 C 0.19157 1.01532 0.19457 0.0
C336 C 0.14371 0.02383 0.28744 0.0
C337 C 0.1391 1.00727 0.32787 0.0
C338 C 0.13253 0.03972 0.30149 0.0
C339 C 0.13717 0.05804 0.26612 0.0
C340 C 0.15471 0.0659 0.27877 0.0
C341 C 0.15902 0.08314 0.24501 0.0
C342 C 0.14585 0.09271 0.19896 0.0
C343 C 0.12833 0.0851 0.18676 0.0
C344 C 0.12395 0.06785 0.22034 0.0
C345 C 0.08739 0.01774 0.59743 0.0
C346 C 0.0688 0.02054 0.5753 0.0
C347 C 0.10147 0.01842 0.53887 0.0
C348 C 0.09741 0.022 0.4564 0.0
C349 C 0.07888 0.02521 0.43397 0.0
C350 C 0.06467 0.0243 0.4928 0.0
C351 C 0.11262 0.02199 0.39439 0.0
C352 C 0.11704 0.0385 0.35368 0.0
C353 C 0.12377 1.00615 0.38078 0.0
C354 C 0.11952 0.98814 0.4201 0.0
C355 C 0.10198 0.98001 0.4111 0.0
C356 C 0.09798 0.96318 0.44932 0.0
C357 C 0.11144 0.95427 0.49626 0.0
C358 C 0.12896 0.96214 0.50488 0.0
C359 C 0.13303 0.97899 0.46687 0.0
H360 H 0.10832 0.94124 0.52583 0.0
H361 H 0.14921 0.10606 0.17288 0.0
H362 H 0.53365 0.20467 0.22704 0.0
H363 H 0.53492 0.17975 0.32811 0.0
H364 H 0.48906 0.15269 0.20933 0.0
H365 H 0.48698 0.17804 0.11148 0.0
H366 H 0.48529 0.14791 0.3636 0.0
H367 H 0.53627 0.13939 0.18034 0.0
H368 H 0.56452 0.14814 0.1055 0.0
H369 H 0.59279 0.15725 0.33327 0.0
H370 H 0.56463 0.14877 0.4095 0.0
H371 H 0.50036 0.05839 0.54044 0.0
H372 H 0.49806 0.08373 0.4407 0.0
H373 H 0.53932 0.11433 0.57501 0.0
H374 H 0.5419 0.08887 0.6731 0.0
H375 H 0.54541 0.11678 0.41166 0.0
H376 H 0.49334 0.12446 0.59327 0.0
H377 H 0.46499 0.11428 0.66366 0.0
H378 H 0.4386 0.10502 0.43161 0.0
H379 H 0.46689 0.11493 0.35981 0.0
C380 C 0.52357 0.19364 0.22324 0.0
C381 C 0.51037 0.1934 0.15982 0.0
C382 C 0.52449 0.17918 0.28062 0.0
C383 C 0.51241 0.16392 0.27558 0.0
C384 C 0.4987 0.16409 0.21462 0.0
C385 C 0.49766 0.1786 0.15787 0.0
C386 C 0.51421 0.14764 0.33228 0.0
C387 C 0.49843 0.14101 0.37312 0.0
C388 C 0.53133 0.13856 0.34619 0.0
C389 C 0.54829 0.14363 0.30058 0.0
C390 C 0.54848 0.14339 0.21445 0.0
C391 C 0.56448 0.14827 0.17179 0.0
C392 C 0.58043 0.1533 0.2146 0.0
C393 C 0.58042 0.15339 0.30019 0.0
C394 C 0.56445 0.14853 0.34315 0.0
C395 C 0.50929 0.07026 0.54715 0.0
C396 C 0.52161 0.07141 0.61349 0.0
C397 C 0.50777 0.08492 0.49094 0.0
C398 C 0.51846 0.10109 0.50024 0.0
C399 C 0.53094 0.10207 0.56602 0.0
C400 C 0.53237 0.0875 0.62225 0.0
C401 C 0.51654 0.11715 0.44282 0.0
C402 C 0.53229 0.12371 0.40192 0.0
C403 C 0.49937 0.126 0.42812 0.0
C404 C 0.48229 0.12027 0.4712 0.0
C405 C 0.48153 0.12014 0.55727 0.0
C406 C 0.46547 0.11444 0.59741 0.0
C407 C 0.45002 0.10896 0.55214 0.0
C408 C 0.45058 0.10925 0.4666 0.0
C409 C 0.46662 0.11492 0.42615 0.0
H410 H 0.4376 0.10454 0.58333 0.0
H411 H 0.5928 0.15708 0.18147 0.0
H412 H 0.3238 0.51568 0.26862 0.0
H413 H 0.34955 0.51106 0.36305 0.0
H414 H 0.38794 0.51482 0.16191 0.0
H415 H 0.36226 0.51808 0.06657 0.0
H416 H 0.4012 0.4913 0.26203 0.0
H417 H 0.37731 0.5526 0.29626 0.0
H418 H 0.35373 0.57658 0.32206 0.0
H419 H 0.34351 0.55386 0.56058 0.0
H420 H 0.36688 0.52958 0.53573 0.0
H421 H 0.47926 0.52399 0.49909 0.0
H422 H 0.45295 0.52227 0.4043 0.0
H423 H 0.41865 0.50117 0.59844 0.0
H424 H 0.445 0.50226 0.69266 0.0
H425 H 0.40352 0.53261 0.50501 0.0
H426 H 0.43042 0.47205 0.46634 0.0
H427 H 0.45639 0.45091 0.4372 0.0
H428 H 0.46328 0.47561 0.20023 0.0
H429 H 0.43754 0.49713 0.22855 0.0
C430 C 0.33766 0.51508 0.24393 0.0
C431 C 0.3408 0.51757 0.1595 0.0
C432 C 0.35248 0.51271 0.29846 0.0
C433 C 0.37088 0.51312 0.27045 0.0
C434 C 0.37399 0.51464 0.1858 0.0
C435 C 0.35919 0.51673 0.13117 0.0
C436 C 0.38687 0.51272 0.32908 0.0
C437 C 0.40169 0.50047 0.31466 0.0
C438 C 0.38773 0.52457 0.39854 0.0
C439 C 0.37369 0.53915 0.41376 0.0
C440 C 0.36994 0.55264 0.35397 0.0
C441 C 0.35663 0.56629 0.36846 0.0
C442 C 0.34709 0.56671 0.44282 0.0
C443 C 0.35089 0.5535 0.50295 0.0
C444 C 0.36417 0.53979 0.48872 0.0
C445 C 0.46618 0.51875 0.52127 0.0
C446 C 0.46426 0.51315 0.60331 0.0
C447 C 0.45114 0.51782 0.46711 0.0
C448 C 0.43381 0.51159 0.49426 0.0
C449 C 0.43187 0.50603 0.57614 0.0
C450 C 0.44697 0.50661 0.62983 0.0
C451 C 0.4176 0.51121 0.43779 0.0
C452 C 0.40285 0.52337 0.45257 0.0
C453 C 0.41701 0.49959 0.36794 0.0
C454 C 0.43216 0.48632 0.34988 0.0
C455 C 0.43755 0.47306 0.40823 0.0
C456 C 0.45222 0.461 0.39185 0.0
C457 C 0.46151 0.46195 0.317 0.0
C458 C 0.45609 0.47491 0.25823 0.0
C459 C 0.44144 0.48703 0.27439 0.0
H460 H 0.47289 0.45263 0.30451 0.0
H461 H 0.33679 0.5773 0.45393 0.0
H462 H 0.03049 0.36281 0.06789 0.0
H463 H 0.03063 0.38958 0.1591 0.0
H464 H 1.00765 0.35619 0.35249 0.0
H465 H 1.00659 0.3295 0.25998 0.0
H466 H 0.98997 0.38757 0.34717 0.0
H467 H 0.05423 0.37153 0.34912 0.0
H468 H 0.08474 0.36436 0.28985 0.0
H469 H 0.08641 0.41802 0.1773 0.0
H470 H 0.05579 0.42543 0.23506 0.0
H471 H 1.00792 0.44623 0.68403 0.0
H472 H 1.00955 0.42126 0.58356 0.0
H473 H 0.02111 0.46087 0.39333 0.0
H474 H 0.01901 0.48621 0.49439 0.0
H475 H 0.0445 0.42793 0.39143 0.0
H476 H 0.98041 0.44405 0.39569 0.0
H477 H 0.95043 0.45109 0.46028 0.0
H478 H 0.94906 0.39669 0.56581 0.0
H479 H 0.9792 0.38943 0.50291 0.0
C480 C 0.02541 0.3611 0.12977 0.0
C481 C 0.01841 0.34389 0.15602 0.0
C482 C 0.02571 0.37645 0.18241 0.0
C483 C 0.01929 0.37502 0.26338 0.0
C484 C 1.01269 0.35775 0.29045 0.0
C485 C 1.01229 0.34238 0.23759 0.0
C486 C 0.01873 0.39164 0.31854 0.0
C487 C 1.00201 0.3962 0.35749 0.0
C488 C 0.03422 0.40339 0.33065 0.0
C489 C 0.05262 0.39896 0.29571 0.0
C490 C 0.06103 0.38175 0.31117 0.0
C491 C 0.07836 0.37765 0.27796 0.0
C492 C 0.08748 0.3907 0.22965 0.0
C493 C 0.07932 0.40791 0.21463 0.0
C494 C 0.06198 0.41207 0.24764 0.0
C495 C 1.01085 0.44971 0.62086 0.0
C496 C 1.01351 0.46826 0.59738 0.0
C497 C 1.01175 0.43537 0.56339 0.0
C498 C 0.01541 0.43913 0.48075 0.0
C499 C 0.01834 0.45762 0.45686 0.0
C500 C 0.0172 0.47209 0.5146 0.0
C501 C 0.01585 0.4236 0.42021 0.0
C502 C 0.03251 0.41928 0.38047 0.0
C503 C 1.00035 0.41199 0.40767 0.0
C504 C 0.98215 0.41625 0.44514 0.0
C505 C 0.97379 0.43364 0.43322 0.0
C506 C 0.95676 0.43766 0.46944 0.0
C507 C 0.94786 0.42436 0.51727 0.0
C508 C 0.95597 0.40699 0.52881 0.0
C509 C 0.97303 0.40291 0.49282 0.0
H510 H 0.93467 0.4275 0.54526 0.0
H511 H 0.1009 0.38751 0.20402 0.0
H512 H 0.86085 0.98609 0.25507 0.0
H513 H 0.8864 0.98985 0.15972 0.0
H514 H 0.85934 0.03716 0.05285 0.0
H515 H 0.83372 0.03385 0.15048 0.0
H516 H 0.8745 1.01295 0.93544 0.0
H517 H 0.89476 0.04382 0.18028 0.0
H518 H 0.90129 0.04672 0.32797 0.0
H519 H 0.93988 1.00164 0.31283 0.0
H520 H 0.93337 0.99828 0.16521 0.0
H521 H 0.95041 0.04264 0.70075 0.0
H522 H 0.92517 0.04119 0.79933 0.0
H523 H 0.9552 1.00024 0.93814 0.0
H524 H 0.98089 1.00234 0.84038 0.0
H525 H 0.93823 0.02171 0.04057 0.0
H526 H 0.91791 0.98946 0.80098 0.0
H527 H 0.91148 0.98507 0.65388 0.0
H528 H 0.87306 0.0304 0.65936 0.0
H529 H 0.87945 0.03523 0.80632 0.0
C530 C 0.86031 0.99749 0.21217 0.0
C531 C 0.84521 1.00988 0.2121 0.0
C532 C 0.875 0.99955 0.15719 0.0
C533 C 0.87506 1.01398 0.09975 0.0
C534 C 0.85971 0.02597 0.09688 0.0
C535 C 0.84499 0.024 0.15261 0.0
C536 C 0.8912 0.01641 0.0433 0.0
C537 C 0.88839 1.01518 0.95838 0.0
C538 C 0.90948 0.01868 0.07298 0.0
C539 C 0.91343 0.02069 0.16178 0.0
C540 C 0.90451 0.03442 0.20855 0.0
C541 C 0.90824 0.03616 0.29225 0.0
C542 C 0.92096 0.02435 0.3298 0.0
C543 C 0.93001 1.01078 0.28368 0.0
C544 C 0.92632 1.00895 0.19998 0.0
C545 C 0.95174 0.03342 0.75269 0.0
C546 C 0.96774 0.02258 0.7627 0.0
C547 C 0.93716 0.03248 0.80888 0.0
C548 C 0.93787 0.02023 0.87563 0.0
C549 C 0.95413 1.00977 0.88721 0.0
C550 C 0.96892 1.01098 0.83143 0.0
C551 C 0.92159 0.01826 0.93223 0.0
C552 C 0.92436 0.01953 0.01732 0.0
C553 C 0.90328 1.01577 0.90274 0.0
C554 C 0.89929 1.01282 0.8145 0.0
C555 C 0.90818 0.99857 0.7707 0.0
C556 C 0.90453 0.99599 0.68736 0.0
C557 C 0.8919 1.00748 0.64725 0.0
C558 C 0.88285 0.02153 0.69049 0.0
C559 C 0.88647 0.02418 0.77382 0.0
H560 H 0.8891 1.00547 0.58272 0.0
H561 H 0.92383 0.02573 0.39459 0.0
H562 H 0.55418 0.86148 0.27142 0.0
H563 H 0.54973 0.88791 0.18122 0.0
H564 H 0.49748 0.86572 0.10229 0.0
H565 H 0.50117 0.83962 0.19633 0.0
H566 H 0.52241 0.87758 0.97136 0.0
H567 H 0.49562 0.90052 0.22121 0.0
H568 H 0.49493 0.9079 0.36867 0.0
H569 H 0.54147 0.94408 0.33936 0.0
H570 H 0.54264 0.93668 0.19186 0.0
H571 H 0.4942 0.95404 0.73508 0.0
H572 H 0.49535 0.92907 0.83561 0.0
H573 H 0.53883 0.95766 0.96504 0.0
H574 H 0.53712 0.98306 0.86546 0.0
H575 H 0.51787 0.94227 0.07257 0.0
H576 H 0.54653 0.9193 0.8294 0.0
H577 H 0.54927 0.91196 0.68233 0.0
H578 H 0.50244 0.87573 0.69865 0.0
H579 H 0.49925 0.88305 0.84567 0.0
C580 C 0.54147 0.86226 0.23668 0.0
C581 C 0.52797 0.84821 0.24276 0.0
C582 C 0.53905 0.87743 0.18428 0.0
C583 C 0.52323 0.87892 0.13513 0.0
C584 C 0.50983 0.86489 0.13956 0.0
C585 C 0.51206 0.84983 0.19321 0.0
C586 C 0.52096 0.89497 0.0782 0.0
C587 C 0.52111 0.89171 0.99344 0.0
C588 C 0.51995 0.91348 0.10681 0.0
C589 C 0.51934 0.91788 0.19559 0.0
C590 C 0.50584 0.90989 0.24633 0.0
C591 C 0.50533 0.91412 0.32991 0.0
C592 C 0.51818 0.92641 0.36342 0.0
C593 C 0.53155 0.93454 0.31336 0.0
C594 C 0.53213 0.93034 0.22975 0.0
C595 C 0.50389 0.95509 0.78547 0.0
C596 C 0.51549 0.9706 0.79268 0.0
C597 C 0.50466 0.94069 0.84274 0.0
C598 C 0.51749 0.94109 0.90747 0.0
C599 C 0.5288 0.95687 0.91592 0.0
C600 C 0.52777 0.97149 0.85921 0.0
C601 C 0.51926 0.92496 0.96507 0.0
C602 C 0.51911 0.92818 0.05009 0.0
C603 C 0.52061 0.90638 0.93669 0.0
C604 C 0.52254 0.90187 0.84839 0.0
C605 C 0.53674 0.90986 0.80151 0.0
C606 C 0.53838 0.9057 0.71817 0.0
C607 C 0.52601 0.89343 0.68112 0.0
C608 C 0.512 0.88526 0.72741 0.0
C609 C 0.51027 0.88939 0.81076 0.0
H610 H 0.5273 0.89023 0.61658 0.0
H611 H 0.51776 0.92967 0.42812 0.0
H612 H 0.70771 0.53101 0.09122 0.0
H613 H 0.68116 0.52655 0.00058 0.0
H614 H 0.64526 0.52254 0.21045 0.0
H615 H 0.6718 0.52601 0.30125 0.0
H616 H 0.63368 0.4993 0.10094 0.0
H617 H 0.65 0.56347 0.09449 0.0
H618 H 0.67046 0.59043 0.07636 0.0
H619 H 0.67981 0.57494 0.82571 0.0
H620 H 0.65959 0.54773 0.84268 0.0
H621 H 0.54949 0.51944 0.88176 0.0
H622 H 0.5758 0.52138 0.97686 0.0
H623 H 0.61348 0.51868 0.77267 0.0
H624 H 0.58737 0.51674 0.67814 0.0
H625 H 0.62352 0.54557 0.88138 0.0
H626 H 0.60601 0.48121 0.89145 0.0
H627 H 0.58447 0.45524 0.91282 0.0
H628 H 0.57601 0.4725 0.16184 0.0
H629 H 0.59729 0.49877 0.14155 0.0
C630 C 0.69425 0.5288 0.11829 0.0
C631 C 0.692 0.52913 0.20397 0.0
C632 C 0.67896 0.5265 0.06618 0.0
C633 C 0.66099 0.52466 0.09823 0.0
C634 C 0.65886 0.5241 0.1837 0.0
C635 C 0.67411 0.52627 0.23575 0.0
C636 C 0.64439 0.52386 0.04321 0.0
C637 C 0.63139 0.50957 0.05363 0.0
C638 C 0.64129 0.5371 0.98059 0.0
C639 C 0.65344 0.55346 0.97011 0.0
C640 C 0.65653 0.56574 0.03568 0.0
C641 C 0.66807 0.58107 0.02559 0.0
C642 C 0.67647 0.58437 0.94999 0.0
C643 C 0.67332 0.57235 0.88427 0.0
C644 C 0.66181 0.55698 0.89407 0.0
C645 C 0.56338 0.51934 0.85735 0.0
C646 C 0.56633 0.51797 0.77243 0.0
C647 C 0.57843 0.52035 0.91172 0.0
C648 C 0.59671 0.52007 0.88213 0.0
C649 C 0.59958 0.51894 0.79723 0.0
C650 C 0.5846 0.51778 0.74319 0.0
C651 C 0.61294 0.52098 0.93884 0.0
C652 C 0.62584 0.53532 0.92877 0.0
C653 C 0.6158 0.50793 0.00228 0.0
C654 C 0.60309 0.49208 0.0147 0.0
C655 C 0.59944 0.47957 0.95057 0.0
C656 C 0.5873 0.46477 0.96251 0.0
C657 C 0.57884 0.46225 0.03857 0.0
C658 C 0.58254 0.47449 0.10291 0.0
C659 C 0.59465 0.48933 0.09123 0.0
H660 H 0.56944 0.45079 0.0477 0.0
H661 H 0.6854 0.59625 0.9423 0.0
H662 H 1.00504 0.70548 0.13824 0.0
H663 H 1.00704 0.67958 0.04292 0.0
H664 H 0.02423 0.64368 0.2395 0.0
H665 H 0.02385 0.66984 0.33384 0.0
H666 H 0.0416 0.63328 0.1134 0.0
H667 H 0.9776 0.64578 0.15916 0.0
H668 H 0.94918 0.66459 0.16598 0.0
H669 H 0.95348 0.67638 0.90904 0.0
H670 H 0.98207 0.65782 0.9009 0.0
H671 H 0.01947 0.5503 0.88502 0.0
H672 H 0.01828 0.57485 0.99007 0.0
H673 H 1.01206 0.61593 0.8007 0.0
H674 H 1.01329 0.59164 0.69652 0.0
H675 H 0.98823 0.622 0.92945 0.0
H676 H 0.05333 0.60886 0.88978 0.0
H677 H 0.08058 0.58835 0.88761 0.0
H678 H 0.07241 0.57564 0.14182 0.0
H679 H 0.04493 0.59588 0.14515 0.0
C680 C 1.00968 0.69223 0.16132 0.0
C681 C 1.01406 0.68993 0.24484 0.0
C682 C 1.01049 0.67723 0.1066 0.0
C683 C 0.01522 0.65936 0.13394 0.0
C684 C 0.0203 0.65717 0.21643 0.0
C685 C 0.01984 0.67222 0.27087 0.0
C686 C 1.01461 0.64297 0.07714 0.0
C687 C 0.02977 0.63074 0.0742 0.0
C688 C 0.99929 0.63944 0.02505 0.0
C689 C 0.98207 0.65055 0.02961 0.0
C690 C 0.97255 0.65248 0.10423 0.0
C691 C 0.9564 0.66308 0.10831 0.0
C692 C 0.94956 0.67171 0.03803 0.0
C693 C 0.95881 0.66971 0.96345 0.0
C694 C 0.97498 0.65913 0.95905 0.0
C695 C 0.01763 0.56455 0.86616 0.0
C696 C 0.01638 0.56904 0.78259 0.0
C697 C 0.01708 0.57859 0.92609 0.0
C698 C 0.01518 0.59731 0.90339 0.0
C699 C 1.01351 0.60165 0.81997 0.0
C700 C 1.01425 0.58772 0.76039 0.0
C701 C 0.01523 0.61258 0.96543 0.0
C702 C 0.99996 0.62456 0.96925 0.0
C703 C 0.03028 0.61566 0.01918 0.0
C704 C 0.04696 0.60373 0.01748 0.0
C705 C 0.05727 0.60159 0.94506 0.0
C706 C 0.07277 0.59003 0.94364 0.0
C707 C 0.0782 0.58065 0.01447 0.0
C708 C 0.06818 0.58288 0.08696 0.0
C709 C 0.05264 0.59441 0.08866 0.0
H710 H 0.09019 0.57169 0.01322 0.0
H711 H 0.93706 0.67991 0.04132 0.0
H712 H 0.98211 0.26101 0.27951 0.0
H713 H 0.9678 0.24335 0.39019 0.0
H714 H 0.01717 0.20994 0.4093 0.0
H715 H 0.03163 0.22815 0.30298 0.0
H716 H 0.95838 0.21185 0.35765 0.0
H717 H 0.02041 0.18137 0.55565 0.0
H718 H 0.04387 0.19315 0.65111 0.0
H719 H 1.0128 0.24332 0.68329 0.0
H720 H 0.98891 0.23176 0.58854 0.0
H721 H 0.97581 0.12103 0.29729 0.0
H722 H 0.97198 0.15416 0.31843 0.0
H723 H 0.96611 0.14542 0.57838 0.0
H724 H 0.97084 0.1122 0.55808 0.0
H725 H 0.98918 0.17092 0.55902 0.0
H726 H 0.92944 0.16466 0.46461 0.0
H727 H 0.90312 0.15329 0.38305 0.0
H728 H 0.92573 0.17856 0.16754 0.0
H729 H 0.95233 0.18984 0.24729 0.0
C730 C 0.99022 0.25056 0.3107 0.0
C731 C 1.00778 0.24557 0.28146 0.0
C732 C 0.982 0.24039 0.37382 0.0
C733 C 0.99117 0.225 0.40769 0.0
C734 C 1.00968 0.22177 0.38568 0.0
C735 C 0.01794 0.23205 0.32363 0.0
C736 C 0.98054 0.20961 0.44579 0.0
C737 C 0.96494 0.20312 0.40307 0.0
C738 C 0.98818 0.19849 0.50869 0.0
C739 C 1.00276 0.20564 0.56476 0.0
C740 C 0.01842 0.19486 0.58345 0.0
C741 C 0.03186 0.20153 0.6374 0.0
C742 C 0.02984 0.21899 0.6733 0.0
C743 C 1.01438 0.22982 0.65519 0.0
C744 C 1.0009 0.22323 0.60114 0.0
C745 C 0.97344 0.12612 0.35885 0.0
C746 C 0.97368 0.114 0.42587 0.0
C747 C 0.97097 0.14507 0.37091 0.0
C748 C 0.96841 0.15231 0.45013 0.0
C749 C 0.96785 0.14014 0.51685 0.0
C750 C 0.97043 0.12114 0.50491 0.0
C751 C 0.96894 0.17268 0.46267 0.0
C752 C 0.98233 0.18001 0.51583 0.0
C753 C 0.95894 0.18477 0.41118 0.0
C754 C 0.94289 0.17818 0.36228 0.0
C755 C 0.92884 0.16775 0.39977 0.0
C756 C 0.91387 0.16131 0.3538 0.0
C757 C 0.91274 0.16522 0.2702 0.0
C758 C 0.92659 0.17559 0.23238 0.0
C759 C 0.9416 0.18207 0.27803 0.0
H760 H 0.90114 0.1602 0.23471 0.0
H761 H 0.04023 0.22411 0.71528 0.0
H762 H 0.28212 0.97186 0.16405 0.0
H763 H 0.30698 0.95733 0.24241 0.0
H764 H 0.32167 1.01074 0.34217 0.0
H765 H 0.29683 0.02502 0.26486 0.0
H766 H 0.33851 0.96887 0.18274 0.0
H767 H 0.35222 1.00895 0.49051 0.0
H768 H 0.3363 1.01577 0.62027 0.0
H769 H 0.29994 0.96966 0.58115 0.0
H770 H 0.31589 0.96227 0.45178 0.0
H771 H 0.4211 0.0204 0.33011 0.0
H772 H 0.38876 1.01167 0.31367 0.0
H773 H 0.40414 0.95398 0.30664 0.0
H774 H 0.43674 0.96261 0.32554 0.0
H775 H 0.37204 0.98391 0.43853 0.0
H776 H 0.36355 0.94102 0.14512 0.0
H777 H 0.3787 0.93537 0.01205 0.0
H778 H 0.40299 0.98956 0.02056 0.0
H779 H 0.38793 0.99557 0.1528 0.0
C780 C 0.28981 0.98019 0.20755 0.0
C781 C 0.2878 0.99951 0.20835 0.0
C782 C 0.30411 0.97191 0.2518 0.0
C783 C 0.31641 0.98296 0.29706 0.0
C784 C 0.31233 1.00183 0.30844 0.0
C785 C 0.29806 1.01006 0.26426 0.0
C786 C 0.33569 0.97676 0.30995 0.0
C787 C 0.34575 0.9715 0.23977 0.0
C788 C 0.34521 0.98047 0.38375 0.0
C789 C 0.33532 0.98502 0.46112 0.0
C790 C 0.34095 1.00013 0.50975 0.0
C791 C 0.33189 1.00413 0.58329 0.0
C792 C 0.31713 0.99315 0.60901 0.0
C793 C 0.31137 0.97817 0.56109 0.0
C794 C 0.3204 0.97408 0.48752 0.0
C795 C 0.41765 1.00586 0.32408 0.0
C796 C 0.43135 0.99215 0.33024 0.0
C797 C 0.39922 1.00091 0.31484 0.0
C798 C 0.39421 0.98221 0.31025 0.0
C799 C 0.40789 0.96847 0.31049 0.0
C800 C 0.42643 0.97343 0.32054 0.0
C801 C 0.37448 0.9775 0.31046 0.0
C802 C 0.36457 0.98059 0.38295 0.0
C803 C 0.36509 0.97216 0.23861 0.0
C804 C 0.37485 0.96859 0.16006 0.0
C805 C 0.37221 0.95169 0.11884 0.0
C806 C 0.38077 0.94844 0.04337 0.0
C807 C 0.3919 0.96205 0.0081 0.0
C808 C 0.39452 0.97894 0.04827 0.0
C809 C 0.38605 0.98222 0.12384 0.0
H810 H 0.39844 0.95955 0.9495 0.0
H811 H 0.31015 0.99626 0.66605 0.0
H812 H 0.57622 0.29859 0.13751 0.0
H813 H 0.58387 0.32031 0.24587 0.0
H814 H 0.54229 0.2957 0.40045 0.0
H815 H 0.53404 0.27444 0.29005 0.0
H816 H 0.53198 0.32814 0.34834 0.0
H817 H 0.58654 0.30646 0.47592 0.0
H818 H 0.61772 0.29286 0.48484 0.0
H819 H 0.6399 0.33865 0.3496 0.0
H820 H 0.60883 0.3524 0.33871 0.0
H821 H 0.52658 0.41708 0.51811 0.0
H822 H 0.53381 0.38392 0.51705 0.0
H823 H 0.5748 0.393 0.32986 0.0
H824 H 0.5679 0.42629 0.33207 0.0
H825 H 0.58553 0.36584 0.43731 0.0
H826 H 0.53162 0.38352 0.28496 0.0
H827 H 0.50048 0.39565 0.25706 0.0
H828 H 0.47712 0.35563 0.42111 0.0
H829 H 0.50824 0.34362 0.45217 0.0
C830 C 0.56945 0.29712 0.19632 0.0
C831 C 0.55411 0.28539 0.20468 0.0
C832 C 0.57393 0.3095 0.25882 0.0
C833 C 0.56331 0.30997 0.33071 0.0
C834 C 0.55049 0.29572 0.34497 0.0
C835 C 0.54582 0.28349 0.28187 0.0
C836 C 0.56121 0.32793 0.37391 0.0
C837 C 0.54361 0.3361 0.37119 0.0
C838 C 0.5765 0.33861 0.39982 0.0
C839 C 0.59529 0.33046 0.40644 0.0
C840 C 0.59804 0.31359 0.44763 0.0
C841 C 0.61571 0.30585 0.4531 0.0
C842 C 0.63078 0.31488 0.41781 0.0
C843 C 0.62822 0.33168 0.37704 0.0
C844 C 0.61058 0.33948 0.37138 0.0
C845 C 0.53725 0.41197 0.47738 0.0
C846 C 0.54646 0.42404 0.42392 0.0
C847 C 0.54143 0.39312 0.4773 0.0
C848 C 0.55463 0.38603 0.42272 0.0
C849 C 0.56461 0.39824 0.37265 0.0
C850 C 0.56059 0.41717 0.37344 0.0
C851 C 0.55641 0.36582 0.41054 0.0
C852 C 0.57387 0.35748 0.41811 0.0
C853 C 0.54102 0.35492 0.38752 0.0
C854 C 0.52237 0.36287 0.37214 0.0
C855 C 0.51992 0.37753 0.31647 0.0
C856 C 0.50224 0.38434 0.29979 0.0
C857 C 0.48683 0.37645 0.33744 0.0
C858 C 0.48907 0.36173 0.39197 0.0
C859 C 0.50675 0.35499 0.40951 0.0
H860 H 0.47314 0.38172 0.32428 0.0
H861 H 0.64445 0.30887 0.42207 0.0
H862 H 0.22185 0.48498 0.23931 0.0
H863 H 0.20251 0.49227 0.3561 0.0
H864 H 0.24189 0.53332 0.43591 0.0
H865 H 0.26038 0.52747 0.31402 0.0
H866 H 0.19531 0.4993 0.50564 0.0
H867 H 0.22167 0.57234 0.46289 0.0
H868 H 0.24137 0.5906 0.3695 0.0
H869 H 0.22499 0.55608 0.16752 0.0
H870 H 0.20507 0.53783 0.25965 0.0
H871 H 0.11085 0.54714 0.58449 0.0
H872 H 0.1442 0.54287 0.60201 0.0
H873 H 0.15177 0.54814 0.34135 0.0
H874 H 0.11866 0.55282 0.32332 0.0
H875 H 0.1797 0.56364 0.42462 0.0
H876 H 0.14234 0.50815 0.43206 0.0
H877 H 0.11892 0.48731 0.49053 0.0
H878 H 0.15159 0.48125 0.70837 0.0
H879 H 0.1751 0.50211 0.65121 0.0
C880 C 0.22664 0.49529 0.28263 0.0
C881 C 0.24199 0.50645 0.26452 0.0
C882 C 0.21569 0.49925 0.35058 0.0
C883 C 0.22024 0.5141 0.40241 0.0
C884 C 0.23774 0.52232 0.39467 0.0
C885 C 0.24841 0.51884 0.32484 0.0
C886 C 0.20492 0.52393 0.44479 0.0
C887 C 0.19209 0.51355 0.49019 0.0
C888 C 0.20053 0.54249 0.42384 0.0
C889 C 0.21213 0.55366 0.36814 0.0
C890 C 0.22226 0.56874 0.39851 0.0
C891 C 0.23345 0.57907 0.34583 0.0
C892 C 0.23447 0.57447 0.2627 0.0
C893 C 0.2242 0.55963 0.23189 0.0
C894 C 0.21294 0.54933 0.28422 0.0
C895 C 0.1197 0.54797 0.53122 0.0
C896 C 0.11215 0.55005 0.4522 0.0
C897 C 0.1387 0.54544 0.54156 0.0
C898 C 0.15033 0.54492 0.47317 0.0
C899 C 0.14299 0.54847 0.39508 0.0
C900 C 0.12406 0.55098 0.38465 0.0
C901 C 0.16968 0.53857 0.47963 0.0
C902 C 0.18329 0.54976 0.4446 0.0
C903 C 0.17423 0.52037 0.5053 0.0
C904 C 0.16019 0.50741 0.53883 0.0
C905 C 0.14441 0.50265 0.49302 0.0
C906 C 0.13114 0.49071 0.52567 0.0
C907 C 0.13367 0.48309 0.60346 0.0
C908 C 0.14955 0.48728 0.6484 0.0
C909 C 0.16282 0.49924 0.616 0.0
H910 H 0.12337 0.47387 0.62871 0.0
H911 H 0.24319 0.58244 0.22213 0.0
H912 H 0.97467 0.80121 0.13493 0.0
H913 H 0.97749 0.82002 0.01319 0.0
H914 H 0.02656 0.78974 0.94346 0.0
H915 H 0.02406 0.77132 0.06857 0.0
H916 H 0.03595 0.82203 0.97461 0.0
H917 H 0.99032 0.79991 0.80427 0.0
H918 H 0.96102 0.78695 0.75396 0.0
H919 H 0.93242 0.83635 0.82746 0.0
H920 H 0.96144 0.84959 0.87945 0.0
H921 H 0.01575 0.91941 0.7805 0.0
H922 H 1.01383 0.88564 0.76936 0.0
H923 H 0.02071 0.88096 0.03075 0.0
H924 H 0.0222 0.91463 0.04302 0.0
H925 H 0.99012 0.86125 0.83076 0.0
H926 H 0.0474 0.84419 0.07554 0.0
H927 H 0.07743 0.85683 0.1189 0.0
H928 H 0.08346 0.88396 0.88678 0.0
H929 H 0.05359 0.87135 0.84147 0.0
C930 C 0.98548 0.79793 0.09135 0.0
C931 C 0.99944 0.78529 0.11174 0.0
C932 C 0.98705 0.80861 0.02092 0.0
C933 C 1.00251 0.80662 0.96956 0.0
C934 C 0.01466 0.7917 0.98276 0.0
C935 C 1.01319 0.78111 0.05405 0.0
C936 C 1.0086 0.82299 0.9219 0.0
C937 C 0.02599 0.83042 0.9418 0.0
C938 C 0.99598 0.83377 0.87586 0.0
C939 C 0.97826 0.82587 0.84526 0.0
C940 C 0.97782 0.80806 0.81 0.0
C941 C 0.96122 0.80063 0.78115 0.0
C942 C 0.94488 0.81084 0.78726 0.0
C943 C 0.94511 0.82849 0.82238 0.0
C944 C 0.96167 0.836 0.85129 0.0
C945 C 0.01672 0.91118 0.83574 0.0
C946 C 0.0191 0.91966 0.91287 0.0
C947 C 0.01577 0.89194 0.82893 0.0
C948 C 0.01748 0.88088 0.89875 0.0
C949 C 0.01977 0.88929 0.97577 0.0
C950 C 0.02064 0.90851 0.98279 0.0
C951 C 0.01632 0.8605 0.89274 0.0
C952 C 1.00008 0.85252 0.86178 0.0
C953 C 0.03002 0.8491 0.928 0.0
C954 C 0.0482 0.85664 0.95472 0.0
C955 C 0.05519 0.85266 0.03322 0.0
C956 C 0.07218 0.8599 0.05834 0.0
C957 C 0.08237 0.87116 0.00559 0.0
C958 C 0.07557 0.87522 0.92759 0.0
C959 C 0.05859 0.86802 0.90215 0.0
H960 H 0.09551 0.87676 0.0252 0.0
H961 H 0.93204 0.80506 0.76493 0.0
H962 H 0.76023 0.03145 0.07274 0.0
H963 H 0.7368 0.04158 0.97444 0.0
H964 H 0.70144 0.99683 0.05312 0.0
H965 H 0.72555 0.9856 0.14176 0.0
H966 H 0.68608 1.00809 0.93742 0.0
H967 H 0.71158 0.04107 0.16885 0.0
H968 H 0.73486 0.05824 0.2485 0.0
H969 H 0.73761 0.09955 0.05999 0.0
H970 H 0.7143 0.08251 0.97907 0.0
H971 H 0.61207 0.04823 0.14643 0.0
H972 H 0.64536 0.04498 0.12965 0.0
H973 H 0.64158 0.06678 0.88493 0.0
H974 H 0.60813 0.06888 0.89837 0.0
H975 H 0.67764 0.07245 0.03815 0.0
H976 H 0.63919 0.03141 0.84585 0.0
H977 H 0.61077 1.01247 0.84263 0.0
H978 H 0.62976 0.98141 0.0496 0.0
H979 H 0.65791 1.00057 0.05635 0.0
C980 C 0.74802 0.02301 0.06398 0.0
C981 C 0.74416 1.00831 0.11739 0.0
C982 C 0.73442 0.02902 0.00899 0.0
C983 C 0.71672 0.02094 0.01121 0.0
C984 C 0.71463 1.00387 0.05152 0.0
C985 C 0.72851 0.99736 0.10277 0.0
C986 C 0.69977 0.0318 0.99091 0.0
C987 C 0.6845 0.02229 0.95805 0.0
C988 C 0.6972 0.05028 0.01976 0.0
C989 C 0.71139 0.06041 0.06749 0.0
C990 C 0.71714 0.05381 0.14443 0.0
C991 C 0.73036 0.0635 0.18975 0.0
C992 C 0.73776 0.07996 0.15921 0.0
C993 C 0.73191 0.08677 0.08339 0.0
C994 C 0.71871 0.07709 0.03773 0.0
C995 C 0.61832 0.05276 0.08964 0.0
C996 C 0.60733 0.05833 0.02307 0.0
C997 C 0.63739 0.05115 0.0807 0.0
C998 C 0.64578 0.05554 0.00595 0.0
C999 C 0.63524 0.06338 0.94309 0.0
C1000 C 0.61609 0.06464 0.95125 0.0
C1001 C 0.66441 0.04833 0.9888 0.0
C1002 C 0.67973 0.05858 0.01403 0.0
C1003 C 0.66674 0.02992 0.96136 0.0
C1004 C 0.65062 0.01745 0.95162 0.0
C1005 C 0.63725 0.02061 0.89087 0.0
C1006 C 0.62116 1.0099 0.88861 0.0
C1007 C 0.61845 0.99582 0.94581 0.0
C1008 C 0.63186 0.99234 0.00534 0.0
C1009 C 0.64786 1.00312 0.00847 0.0
H1010 H 0.606 0.98754 0.9437 0.0
H1011 H 0.748 0.08746 0.19436 0.0
H1012 H 0.48118 0.73994 0.14519 0.0
H1013 H 0.48018 0.72122 0.02207 0.0
H1014 H 0.53043 0.74689 0.93679 0.0
H1015 H 0.53207 0.76491 0.06366 0.0
H1016 H 0.48318 0.71435 0.86737 0.0
H1017 H 0.56016 0.7157 0.89955 0.0
H1018 H 0.58468 0.72793 0.99017 0.0
H1019 H 0.54943 0.72063 0.19924 0.0
H1020 H 0.52485 0.70822 0.1098 0.0
H1021 H 0.52991 0.61613 0.84742 0.0
H1022 H 0.53163 0.64944 0.82177 0.0
H1023 H 0.48796 0.65874 0.99673 0.0
H1024 H 0.48647 0.62562 0.02466 0.0
H1025 H 0.53821 0.67719 0.94388 0.0
H1026 H 0.45918 0.69407 0.91071 0.0
H1027 H 0.43133 0.67825 0.86058 0.0
H1028 H 0.46459 0.64281 0.70938 0.0
H1029 H 0.49264 0.65902 0.75502 0.0
C1030 C 0.49165 0.7421 0.09876 0.0
C1031 C 0.50718 0.75307 0.1154 0.0
C1032 C 0.49097 0.73154 0.02754 0.0
C1033 C 0.50579 0.73195 0.9721 0.0
C1034 C 0.5192 0.74591 0.98034 0.0
C1035 C 0.52011 0.75625 0.05284 0.0
C1036 C 0.50978 0.71468 0.92601 0.0
C1037 C 0.4953 0.70621 0.88251 0.0
C1038 C 0.52586 0.70419 0.94427 0.0
C1039 C 0.5407 0.71127 -0.00189 0.0
C1040 C 0.55772 0.71668 0.96487 0.0
C1041 C 0.5716 0.72363 0.01599 0.0
C1042 C 0.5686 0.7251 0.10036 0.0
C1043 C 0.55175 0.7195 0.13393 0.0
C1044 C 0.53787 0.71248 0.08313 0.0
C1045 C 0.52085 0.62528 0.88138 0.0
C1046 C 0.50801 0.61822 0.93808 0.0
C1047 C 0.52173 0.64425 0.86582 0.0
C1048 C 0.50964 0.65637 0.90599 0.0
C1049 C 0.49706 0.64945 0.96358 0.0
C1050 C 0.49626 0.63055 0.97958 0.0
C1051 C 0.51082 0.6765 0.89316 0.0
C1052 C 0.52645 0.68541 0.92423 0.0
C1053 C 0.49524 0.68699 0.86861 0.0
C1054 C 0.4782 0.67784 0.83665 0.0
C1055 C 0.46064 0.68316 0.86555 0.0
C1056 C 0.44476 0.67409 0.83793 0.0
C1057 C 0.44619 0.65952 0.78191 0.0
C1058 C 0.4635 0.65407 0.75299 0.0
C1059 C 0.47941 0.66327 0.77945 0.0
H1060 H 0.43388 0.65247 0.76087 0.0
H1061 H 0.57933 0.73055 0.13974 0.0
H1062 H 0.81081 0.5409 0.09416 0.0
H1063 H 0.82784 0.53075 0.97439 0.0
H1064 H 0.78933 0.48571 0.94019 0.0
H1065 H 0.77246 0.49581 0.06276 0.0
H1066 H 0.82014 0.47161 0.9583 0.0
H1067 H 0.80193 0.51527 0.77595 0.0
H1068 H 0.79198 0.5438 0.70667 0.0
H1069 H 0.84509 0.56825 0.75034 0.0
H1070 H 0.85534 0.54007 0.82132 0.0
H1071 H 0.92061 0.48497 0.77347 0.0
H1072 H 0.88724 0.48333 0.74863 0.0
H1073 H 0.87761 0.48159 0.00905 0.0
H1074 H 0.91078 0.48276 0.03429 0.0
H1075 H 0.86324 0.50928 0.79217 0.0
H1076 H 0.84184 0.458 0.05648 0.0
H1077 H 0.85122 0.42699 0.10355 0.0
H1078 H 0.8743 0.41512 0.867 0.0
H1079 H 0.86482 0.44595 0.81792 0.0
C1080 C 0.80557 0.52929 0.05904 0.0
C1081 C 0.79061 0.51891 0.08808 0.0
C1082 C 0.81519 0.52355 0.98969 0.0
C1083 C 0.81002 0.50731 0.94794 0.0
C1084 C 0.79367 0.49821 0.97144 0.0
C1085 C 0.78401 0.50399 0.04128 0.0
C1086 C 0.82414 0.49776 0.89691 0.0
C1087 C 0.82932 0.47977 0.9204 0.0
C1088 C 0.83571 0.50777 0.8429 0.0
C1089 C 0.82946 0.52535 0.804 0.0
C1090 C 0.81147 0.52677 0.77175 0.0
C1091 C 0.80578 0.5429 0.73187 0.0
C1092 C 0.8179 0.55781 0.72393 0.0
C1093 C 0.83573 0.55665 0.75624 0.0
C1094 C 0.84151 0.54055 0.79615 0.0
C1095 C 0.91137 0.48373 0.82532 0.0
C1096 C 0.91827 0.48409 0.90603 0.0
C1097 C 0.89235 0.4829 0.81085 0.0
C1098 C 0.87998 0.48225 0.8767 0.0
C1099 C 0.88692 0.48176 0.95709 0.0
C1100 C 0.90586 0.48266 0.97163 0.0
C1101 C 0.85986 0.48464 0.86414 0.0
C1102 C 0.85364 0.50108 0.82779 0.0
C1103 C 0.84709 0.47301 0.90407 0.0
C1104 C 0.85256 0.45432 0.93342 0.0
C1105 C 0.84873 0.44873 0.01413 0.0
C1106 C 0.85413 0.43119 0.04129 0.0
C1107 C 0.86335 0.41909 0.98831 0.0
C1108 C 0.86718 0.42451 0.90801 0.0
C1109 C 0.86182 0.44203 0.88053 0.0
H1110 H 0.86752 0.40552 0.00949 0.0
H1111 H 0.81348 0.57028 0.69284 0.0
H1112 H 0.04522 0.21183 0.08506 0.0
H1113 H 0.04616 0.18302 0.00778 0.0
H1114 H 1.00947 0.2064 0.82708 0.0
H1115 H 1.0079 0.23527 0.907 0.0
H1116 H 0.99762 0.17375 0.86443 0.0
H1117 H 0.05671 0.19595 0.79069 0.0
H1118 H 0.08786 0.20904 0.80795 0.0
H1119 H 0.10395 0.16191 0.95125 0.0
H1120 H 0.0728 0.14861 0.93566 0.0
H1121 H 1.0068 0.08856 0.63663 0.0
H1122 H 1.00843 0.12129 0.67533 0.0
H1123 H 0.03902 0.10678 0.89254 0.0
H1124 H 0.03743 0.07403 0.85456 0.0
H1125 H 0.05424 0.13675 0.81389 0.0
H1126 H 0.99372 0.11703 0.90038 0.0
H1127 H 0.96249 0.10411 0.88199 0.0
H1128 H 0.94927 0.14752 0.71253 0.0
H1129 H 0.98066 0.16038 0.7278 0.0
C1130 C 0.03757 0.211 0.02812 0.0
C1131 C 0.02641 0.2259 0.00262 0.0
C1132 C 0.03823 0.19447 0.98337 0.0
C1133 C 0.02804 0.19239 0.91062 0.0
C1134 C 0.01752 0.20757 0.88276 0.0
C1135 C 0.01679 0.22418 0.92804 0.0
C1136 C 0.02737 0.17391 0.8682 0.0
C1137 C 1.01006 0.16588 0.85163 0.0
C1138 C 0.04353 0.16332 0.85237 0.0
C1139 C 0.06234 0.17128 0.86202 0.0
C1140 C 0.06685 0.18839 0.82608 0.0
C1141 C 0.08452 0.19585 0.83561 0.0
C1142 C 0.09788 0.18632 0.88069 0.0
C1143 C 0.09359 0.16928 0.91627 0.0
C1144 C 0.07593 0.16175 0.90697 0.0
C1145 C 1.01392 0.09228 0.69265 0.0
C1146 C 0.02196 0.07851 0.7425 0.0
C1147 C 0.01479 0.11107 0.71482 0.0
C1148 C 0.02379 0.11661 0.78717 0.0
C1149 C 0.03202 0.10293 0.83639 0.0
C1150 C 0.03101 0.08414 0.81471 0.0
C1151 C 0.02455 0.13655 0.81248 0.0
C1152 C 0.04186 0.14481 0.82559 0.0
C1153 C 1.00843 0.14739 0.8246 0.0
C1154 C 0.98965 0.13951 0.81437 0.0
C1155 C 0.98426 0.12367 0.85826 0.0
C1156 C 0.96652 0.11636 0.8484 0.0
C1157 C 0.95395 0.12492 0.79569 0.0
C1158 C 0.95908 0.14084 0.75287 0.0
C1159 C 0.97685 0.14812 0.76197 0.0
H1160 H 0.9402 0.11928 0.78832 0.0
H1161 H 0.11156 0.19213 0.88802 0.0
H1162 H 0.30497 0.99639 0.88773 0.0
H1163 H 0.33666 0.99673 0.83482 0.0
H1164 H 0.34453 0.05131 0.93685 0.0
H1165 H 0.31301 0.05065 0.99163 0.0
H1166 H 0.3596 1.01355 0.74152 0.0
H1167 H 0.3884 0.05355 0.03135 0.0
H1168 H 0.37987 0.05777 0.17637 0.0
H1169 H 0.34568 1.00932 0.16573 0.0
H1170 H 0.35463 1.00426 0.02206 0.0
H1171 H 0.45193 0.03521 0.65378 0.0
H1172 H 0.41924 0.03583 0.69047 0.0
H1173 H 0.43178 1.00853 0.91883 0.0
H1174 H 0.46471 1.00926 0.88461 0.0
H1175 H 0.40629 0.02911 0.95317 0.0
H1176 H 0.41014 0.98541 0.74236 0.0
H1177 H 0.41984 0.97235 0.60949 0.0
H1178 H 0.38908 1.01442 0.48344 0.0
H1179 H 0.37909 0.02768 0.61562 0.0
C1180 C 0.31321 1.00879 0.89557 0.0
C1181 C 0.30637 0.02365 0.94246 0.0
C1182 C 0.33144 1.00892 0.866 0.0
C1183 C 0.34331 0.02387 0.88329 0.0
C1184 C 0.33589 0.03943 0.92384 0.0
C1185 C 0.31773 0.03921 0.95399 0.0
C1186 C 0.36369 0.0225 0.86605 0.0
C1187 C 0.36975 0.01715 0.78773 0.0
C1188 C 0.37719 0.02596 0.92749 0.0
C1189 C 0.37198 0.02873 0.01495 0.0
C1190 C 0.37916 0.0437 0.05996 0.0
C1191 C 0.3743 0.0462 0.14216 0.0
C1192 C 0.3622 0.03385 0.18016 0.0
C1193 C 0.355 0.01892 0.13617 0.0
C1194 C 0.35999 0.01622 0.05431 0.0
C1195 C 0.44773 0.02938 0.71194 0.0
C1196 C 0.461 0.02213 0.76604 0.0
C1197 C 0.4289 0.02957 0.73279 0.0
C1198 C 0.42261 0.02179 0.80692 0.0
C1199 C 0.43597 1.01467 0.86132 0.0
C1200 C 0.45489 1.01501 0.84153 0.0
C1201 C 0.40223 0.02112 0.8272 0.0
C1202 C 0.39614 0.02581 0.90655 0.0
C1203 C 0.38871 1.01584 0.76854 0.0
C1204 C 0.39403 1.00763 0.68876 0.0
C1205 C 0.40546 0.99187 0.68623 0.0
C1206 C 0.41098 0.98442 0.61115 0.0
C1207 C 0.40511 0.99257 0.53821 0.0
C1208 C 0.39361 1.00813 0.54007 0.0
C1209 C 0.38793 1.01557 0.61505 0.0
H1210 H 0.40943 0.98673 0.48041 0.0
H1211 H 0.35844 0.03582 0.24375 0.0
H1212 H 0.55123 0.31253 0.92872 0.0
H1213 H 0.54649 0.34376 0.87543 0.0
H1214 H 0.48807 0.33907 0.92131 0.0
H1215 H 0.49287 0.30766 0.97667 0.0
H1216 H 0.49925 0.3599 0.76787 0.0
H1217 H 0.50897 0.35793 0.05816 0.0
H1218 H 0.52518 0.34768 0.18284 0.0
H1219 H 0.57438 0.37555 0.10391 0.0
H1220 H 0.55867 0.38538 0.97704 0.0
H1221 H 0.50492 0.46523 0.89205 0.0
H1222 H 0.50473 0.43245 0.92962 0.0
H1223 H 0.52538 0.41814 0.68993 0.0
H1224 H 0.52493 0.45079 0.65096 0.0
H1225 H 0.52955 0.4066 0.94658 0.0
H1226 H 0.51202 0.37848 0.62879 0.0
H1227 H 0.49684 0.39004 0.5036 0.0
H1228 H 0.4599 0.42297 0.64902 0.0
H1229 H 0.47531 0.41211 0.77504 0.0
C1230 C 0.53727 0.31789 0.92511 0.0
C1231 C 0.52242 0.30759 0.95704 0.0
C1232 C 0.53459 0.33581 0.89493 0.0
C1233 C 0.51697 0.34391 0.89523 0.0
C1234 C 0.50181 0.33312 0.92039 0.0
C1235 C 0.50453 0.31511 0.95151 0.0
C1236 C 0.51501 0.36417 0.87812 0.0
C1237 C 0.50578 0.3701 0.80716 0.0
C1238 C 0.52333 0.37761 0.92983 0.0
C1239 C 0.53268 0.37221 0.00739 0.0
C1240 C 0.5233 0.36171 0.06682 0.0
C1241 C 0.53242 0.35595 0.13789 0.0
C1242 C 0.55082 0.36092 0.15119 0.0
C1243 C 0.56013 0.37167 0.09342 0.0
C1244 C 0.55114 0.3773 0.02177 0.0
C1245 C 0.50937 0.45512 0.84707 0.0
C1246 C 0.51477 0.46077 0.76806 0.0
C1247 C 0.50931 0.43631 0.86886 0.0
C1248 C 0.51472 0.42258 0.81246 0.0
C1249 C 0.52063 0.42826 0.73423 0.0
C1250 C 0.52047 0.44704 0.71204 0.0
C1251 C 0.51408 0.40242 0.83527 0.0
C1252 C 0.52286 0.39646 0.90751 0.0
C1253 C 0.50508 0.38901 0.78564 0.0
C1254 C 0.49482 0.39449 0.71103 0.0
C1255 C 0.50054 0.38805 0.63393 0.0
C1256 C 0.49194 0.39452 0.56287 0.0
C1257 C 0.47729 0.40707 0.56825 0.0
C1258 C 0.47123 0.41323 0.64487 0.0
C1259 C 0.47996 0.407 0.71611 0.0
H1260 H 0.4707 0.41209 0.51306 0.0
H1261 H 0.55783 0.3565 0.20638 0.0
H1262 H 0.22407 0.48394 0.94942 0.0
H1263 H 0.19429 0.48487 0.87781 0.0
H1264 H 0.19118 0.54384 0.91875 0.0
H1265 H 0.22118 0.54286 0.98875 0.0
H1266 H 0.16319 0.49173 0.94054 0.0
H1267 H 0.15918 0.56393 0.76755 0.0
H1268 H 0.17855 0.58359 0.67971 0.0
H1269 H 0.21611 0.5384 0.64117 0.0
H1270 H 0.19702 0.51838 0.72797 0.0
H1271 H 0.06971 0.51736 0.89064 0.0
H1272 H 0.10257 0.51653 0.92476 0.0
H1273 H 0.11628 0.51707 0.66783 0.0
H1274 H 0.08349 0.51851 0.63323 0.0
H1275 H 0.13964 0.53739 0.74023 0.0
H1276 H 0.11846 0.4764 0.79107 0.0
H1277 H 0.09853 0.45205 0.8489 0.0
H1278 H 0.11382 0.46867 0.0923 0.0
H1279 H 0.13369 0.49329 0.03589 0.0
C1280 C 0.21735 0.49718 0.94007 0.0
C1281 C 0.22515 0.51339 0.97276 0.0
C1282 C 0.20018 0.49771 0.90007 0.0
C1283 C 0.19028 0.51443 0.89254 0.0
C1284 C 0.19852 0.53079 0.92219 0.0
C1285 C 0.21575 0.53026 0.9619 0.0
C1286 C 0.1707 0.51441 0.86168 0.0
C1287 C 0.15819 0.50172 0.89624 0.0
C1288 C 0.16399 0.52713 0.80232 0.0
C1289 C 0.17652 0.53954 0.75505 0.0
C1290 C 0.17158 0.55812 0.74063 0.0
C1291 C 0.18254 0.56937 0.69084 0.0
C1292 C 0.19856 0.56226 0.65496 0.0
C1293 C 0.20373 0.54393 0.66935 0.0
C1294 C 0.19285 0.53263 0.71918 0.0
C1295 C 0.07968 0.51726 0.84121 0.0
C1296 C 0.07377 0.51783 0.75907 0.0
C1297 C 0.09857 0.51669 0.86087 0.0
C1298 C 0.11213 0.51633 0.79901 0.0
C1299 C 0.10625 0.51722 0.71699 0.0
C1300 C 0.08738 0.51799 0.69726 0.0
C1301 C 0.13235 0.51498 0.81976 0.0
C1302 C 0.14489 0.52741 0.78378 0.0
C1303 C 0.13934 0.50157 0.87497 0.0
C1304 C 0.12744 0.48678 0.90924 0.0
C1305 C 0.11749 0.47493 0.85692 0.0
C1306 C 0.10621 0.46108 0.88945 0.0
C1307 C 0.10488 0.45884 0.97423 0.0
C1308 C 0.11486 0.47044 0.02665 0.0
C1309 C 0.12614 0.48433 0.99443 0.0
H1310 H 0.09614 0.4481 -0.00069 0.0
H1311 H 0.20694 0.57094 0.61593 0.0
H1312 H 0.03882 0.80596 0.42129 0.0
H1313 H 0.04221 0.83751 0.47766 0.0
H1314 H 0.9851 0.84876 0.42163 0.0
H1315 H 0.9817 0.81747 0.36631 0.0
H1316 H 1.01029 0.87485 0.35537 0.0
H1317 H 0.99981 0.84257 0.61469 0.0
H1318 H 1.00951 0.81792 0.70942 0.0
H1319 H 0.062 0.84441 0.74225 0.0
H1320 H 0.05294 0.86889 0.64499 0.0
H1321 H 0.9941 0.96438 0.50787 0.0
H1322 H 0.99377 0.93156 0.47129 0.0
H1323 H 0.04154 0.92241 0.62477 0.0
H1324 H 0.04061 0.95489 0.66726 0.0
H1325 H 0.025 0.89437 0.63897 0.0
H1326 H 0.0405 0.92426 0.39363 0.0
H1327 H 0.03953 0.94558 0.27595 0.0
H1328 H 0.9874 0.92281 0.20134 0.0
H1329 H 0.98789 0.90154 0.31933 0.0
C1330 C 0.02686 0.81497 0.42394 0.0
C1331 C 1.00994 0.80916 0.39023 0.0
C1332 C 0.02884 0.83307 0.45528 0.0
C1333 C 1.01393 0.84564 0.45331 0.0
C1334 C 0.99683 0.83945 0.42346 0.0
C1335 C 0.99485 0.82146 0.39269 0.0
C1336 C 0.0161 0.86555 0.47754 0.0
C1337 C 1.0132 0.87919 0.41772 0.0
C1338 C 0.02105 0.87121 0.55763 0.0
C1339 C 0.02576 0.85746 0.62174 0.0
C1340 C 1.01344 0.84315 0.64195 0.0
C1341 C 0.01884 0.82917 0.69597 0.0
C1342 C 0.03632 0.82962 0.73206 0.0
C1343 C 0.04845 0.84409 0.71429 0.0
C1344 C 0.0432 0.858 0.65956 0.0
C1345 C 1.00452 0.95533 0.53363 0.0
C1346 C 0.01746 0.96228 0.58992 0.0
C1347 C 1.0045 0.93649 0.51197 0.0
C1348 C 0.01801 0.9242 0.54273 0.0
C1349 C 0.03092 0.93128 0.59941 0.0
C1350 C 0.03047 0.94996 0.62353 0.0
C1351 C 0.01836 0.90405 0.5174 0.0
C1352 C 0.02188 0.89028 0.57669 0.0
C1353 C 0.01484 0.89822 0.43559 0.0
C1354 C 1.01415 0.91142 0.36596 0.0
C1355 C 0.02872 0.92393 0.35269 0.0
C1356 C 0.02828 0.93599 0.28579 0.0
C1357 C 1.0134 0.93558 0.23129 0.0
C1358 C 0.99891 0.92314 0.24368 0.0
C1359 C 0.99926 0.91108 0.31057 0.0
H1360 H 1.01312 0.94486 0.17933 0.0
H1361 H 0.04047 0.81877 0.77386 0.0
H1362 H 0.72604 0.98459 0.4174 0.0
H1363 H 0.6955 0.98616 0.48141 0.0
H1364 H 0.69771 0.04583 0.4739 0.0
H1365 H 0.72804 0.04413 0.40703 0.0
H1366 H 0.67881 0.99809 0.60898 0.0
H1367 H 0.65699 0.06403 0.43816 0.0
H1368 H 0.6645 0.08082 0.31089 0.0
H1369 H 0.68024 0.02969 0.19541 0.0
H1370 H 0.67309 1.01267 0.32239 0.0
H1371 H 0.58885 0.02764 0.75131 0.0
H1372 H 0.62155 0.02673 0.71127 0.0
H1373 H 0.60611 1.00819 0.47003 0.0
H1374 H 0.57354 1.00898 0.50918 0.0
H1375 H 0.6317 0.03507 0.46122 0.0
H1376 H 0.62263 0.97965 0.60875 0.0
H1377 H 0.61583 0.9579 0.72041 0.0
H1378 H 0.66082 0.98001 0.86103 0.0
H1379 H 0.66723 1.00272 0.75251 0.0
C1380 C 0.7203 0.99804 0.43244 0.0
C1381 C 0.72967 1.01424 0.40915 0.0
C1382 C 0.7027 0.99895 0.46835 0.0
C1383 C 0.69391 0.01611 0.48136 0.0
C1384 C 0.70386 0.03237 0.46317 0.0
C1385 C 0.72142 0.03144 0.42651 0.0
C1386 C 0.67407 0.01682 0.50906 0.0
C1387 C 0.66854 1.00637 0.57738 0.0
C1388 C 0.6604 0.02707 0.46642 0.0
C1389 C 0.66469 0.03715 0.38989 0.0
C1390 C 0.66209 0.0564 0.38561 0.0
C1391 C 0.66637 0.06596 0.31373 0.0
C1392 C 0.67306 0.05636 0.24554 0.0
C1393 C 0.67535 0.03715 0.24875 0.0
C1394 C 0.67123 0.02755 0.3207 0.0
C1395 C 0.59239 0.02317 0.68995 0.0
C1396 C 0.57839 0.01819 0.63401 0.0
C1397 C 0.61115 0.02264 0.66721 0.0
C1398 C 0.61646 0.01716 0.58791 0.0
C1399 C 0.6025 1.01243 0.53167 0.0
C1400 C 0.58379 1.01286 0.55439 0.0
C1401 C 0.63643 0.01666 0.56271 0.0
C1402 C 0.64197 0.02708 0.49431 0.0
C1403 C 0.64998 1.00594 0.60432 0.0
C1404 C 0.64519 0.99322 0.67266 0.0
C1405 C 0.63076 0.9803 0.66434 0.0
C1406 C 0.627 0.96773 0.72714 0.0
C1407 C 0.63783 0.96762 0.79793 0.0
C1408 C 0.65239 0.98015 0.80628 0.0
C1409 C 0.65598 0.993 0.74441 0.0
H1410 H 0.63497 0.9578 0.84626 0.0
H1411 H 0.67632 0.06381 0.19008 0.0
H1412 H 0.4882 0.72119 0.36141 0.0
H1413 H 0.48958 0.69096 0.42671 0.0
H1414 H 0.54464 0.70282 0.51295 0.0
H1415 H 0.54352 0.7331 0.44389 0.0
H1416 H 0.54443 0.66928 0.4542 0.0
H1417 H 0.50622 0.69907 0.65118 0.0
H1418 H 0.48054 0.71857 0.70073 0.0
H1419 H 0.44142 0.68192 0.58746 0.0
H1420 H 0.4669 0.66227 0.5366 0.0
H1421 H 0.51102 0.58837 0.74565 0.0
H1422 H 0.51186 0.62126 0.70903 0.0
H1423 H 0.52391 0.60667 0.45869 0.0
H1424 H 0.52329 0.57388 0.49466 0.0
H1425 H 0.49298 0.64296 0.61687 0.0
H1426 H 0.54901 0.63927 0.36349 0.0
H1427 H 0.57674 0.62092 0.32945 0.0
H1428 H 0.5842 0.60761 0.58352 0.0
H1429 H 0.55665 0.62607 0.61921 0.0
C1430 C 0.50051 0.71755 0.39558 0.0
C1431 C 0.51573 0.72969 0.39745 0.0
C1432 C 0.50127 0.70018 0.43343 0.0
C1433 C 0.51716 0.6944 0.47591 0.0
C1434 C 0.53218 0.7068 0.48076 0.0
C1435 C 0.53145 0.72427 0.44223 0.0
C1436 C 0.51821 0.67511 0.51085 0.0
C1437 C 0.53322 0.66362 0.49029 0.0
C1438 C 0.50385 0.66756 0.55948 0.0
C1439 C 0.48846 0.67927 0.58972 0.0
C1440 C 0.49215 0.69526 0.63626 0.0
C1441 C 0.47763 0.70633 0.66465 0.0
C1442 C 0.45937 0.70151 0.64706 0.0
C1443 C 0.45558 0.68565 0.60085 0.0
C1444 C 0.47005 0.67452 0.57237 0.0
C1445 C 0.51398 0.59211 0.6828 0.0
C1446 C 0.51723 0.57826 0.6234 0.0
C1447 C 0.51443 0.61102 0.6619 0.0
C1448 C 0.51834 0.61671 0.5813 0.0
C1449 C 0.52133 0.60288 0.52179 0.0
C1450 C 0.52087 0.584 0.54251 0.0
C1451 C 0.51905 0.637 0.55922 0.0
C1452 C 0.50431 0.64867 0.58179 0.0
C1453 C 0.53395 0.64485 0.51456 0.0
C1454 C 0.55067 0.63392 0.49386 0.0
C1455 C 0.55662 0.63249 0.41212 0.0
C1456 C 0.57229 0.62206 0.39254 0.0
C1457 C 0.58219 0.61306 0.45425 0.0
C1458 C 0.57648 0.61453 0.53574 0.0
C1459 C 0.56083 0.62496 0.55567 0.0
H1460 H 0.59431 0.60497 0.43895 0.0
H1461 H 0.44814 0.71004 0.66949 0.0
H1462 H 0.81665 0.49339 0.34372 0.0
H1463 H 0.8456 0.49372 0.42107 0.0
H1464 H 0.83326 0.54885 0.50738 0.0
H1465 H 0.80415 0.54851 0.42946 0.0
H1466 H 0.86705 0.54753 0.44157 0.0
H1467 H 0.8335 0.51227 0.62968 0.0
H1468 H 0.81446 0.48773 0.691 0.0
H1469 H 0.85661 0.44762 0.63863 0.0
H1470 H 0.87559 0.47168 0.57342 0.0
H1471 H 0.94719 0.51728 0.74165 0.0
H1472 H 0.91441 0.51894 0.70659 0.0
H1473 H 0.92849 0.52483 0.45139 0.0
H1474 H 0.9613 0.52376 0.48613 0.0
H1475 H 0.89227 0.49867 0.62264 0.0
H1476 H 0.89679 0.54979 0.34954 0.0
H1477 H 0.91574 0.57636 0.30579 0.0
H1478 H 0.9298 0.58788 0.55627 0.0
H1479 H 0.91075 0.56153 0.6016 0.0
C1480 C 0.81986 0.50538 0.38108 0.0
C1481 C 0.80806 0.5209 0.38073 0.0
C1482 C 0.83646 0.50557 0.42529 0.0
C1483 C 0.84177 0.52133 0.47008 0.0
C1484 C 0.82956 0.53653 0.47315 0.0
C1485 C 0.81281 0.53627 0.42937 0.0
C1486 C 0.86073 0.52244 0.50685 0.0
C1487 C 0.87247 0.53684 0.48155 0.0
C1488 C 0.86786 0.50872 0.56054 0.0
C1489 C 0.85598 0.49389 0.59571 0.0
C1490 C 0.83859 0.49817 0.62943 0.0
C1491 C 0.82779 0.48432 0.66508 0.0
C1492 C 0.83432 0.46614 0.66879 0.0
C1493 C 0.85156 0.46172 0.63577 0.0
C1494 C 0.86231 0.47546 0.59909 0.0
C1495 C 0.94338 0.51903 0.67796 0.0
C1496 C 0.95706 0.52055 0.61686 0.0
C1497 C 0.92453 0.51991 0.65795 0.0
C1498 C 0.91878 0.52231 0.57634 0.0
C1499 C 0.93242 0.52344 0.51509 0.0
C1500 C 0.95127 0.5227 0.53507 0.0
C1501 C 0.89861 0.5233 0.55506 0.0
C1502 C 0.88669 0.50933 0.58318 0.0
C1503 C 0.89116 0.53756 0.50545 0.0
C1504 C 0.90246 0.55358 0.47885 0.0
C1505 C 0.90386 0.55805 0.3953 0.0
C1506 C 0.91463 0.57306 0.37022 0.0
C1507 C 0.92401 0.58377 0.42819 0.0
C1508 C 0.92258 0.57953 0.51141 0.0
C1509 C 0.91182 0.56455 0.53682 0.0
H1510 H 0.93235 0.59537 0.40864 0.0
H1511 H 0.82604 0.4555 0.69738 0.0
loop_
_geom_bond_atom_site_label_1
_geom_bond_atom_site_label_2
_geom_bond_distance
_geom_bond_site_symmetry_2
_ccdc_geom_bond_type
H0 C1 0.949 . S
C1 H0 0.949 . S
C1 C2 1.395 . S
C1 C3 1.391 . S
C2 C1 1.395 . S
C2 C5 1.390 . S
C3 C1 1.391 . S
C3 C7 1.387 . S
C3 C8 1.491 . S
H4 C5 0.950 . S
C5 C2 1.390 . S
C5 H4 0.950 . S
C5 C6 1.378 . S
C6 C5 1.378 . S
C6 C7 1.409 . S
C7 C3 1.387 . S
C7 C6 1.409 . S
C7 H9 0.951 . S
C8 C3 1.491 . S
C8 C10 1.382 . S
C8 C12 1.404 . S
H9 C7 0.951 . S
C10 C8 1.382 . S
C10 C11 1.390 . S
C10 H15 0.949 . S
C11 C10 1.390 . S
C11 C16 1.399 . S
C12 C8 1.404 . S
C12 H13 0.950 . S
C12 C14 1.375 . S
H13 C12 0.950 . S
C14 C12 1.375 . S
C14 C16 1.382 . S
C14 H18 0.950 . S
H15 C10 0.949 . S
C16 C11 1.399 . S
C16 C14 1.382 . S
C16 H17 0.952 . S
H17 C16 0.952 . S
H18 C14 0.950 . S
H19 C20 0.949 . S
C20 H19 0.949 . S
C20 C21 1.399 . S
C20 C22 1.391 . S
C21 C20 1.399 . S
C21 C24 1.387 1_655 S
C22 C20 1.391 . S
C22 C26 1.387 . S
C22 C27 1.491 . S
H23 C24 0.957 . S
C24 C21 1.387 1_455 S
C24 H23 0.957 . S
C24 C25 1.374 1_455 S
C25 C24 1.374 1_655 S
C25 C26 1.417 . S
C26 C22 1.387 . S
C26 C25 1.417 . S
C26 H28 0.951 . S
C27 C22 1.491 . S
C27 C29 1.382 . S
C27 C31 1.404 . S
H28 C26 0.951 . S
C29 C27 1.382 . S
C29 C30 1.390 . S
C29 H34 0.949 1_655 S
C30 C29 1.390 . S
C30 C35 1.399 . S
C31 C27 1.404 . S
C31 H32 0.950 . S
C31 C33 1.375 . S
H32 C31 0.950 . S
C33 C31 1.375 . S
C33 C35 1.382 . S
C33 H37 0.950 . S
H34 C29 0.949 1_455 S
C35 C30 1.399 . S
C35 C33 1.382 . S
C35 H36 0.952 . S
H36 C35 0.952 . S
H37 C33 0.950 . S
H38 C39 0.949 . S
C39 H38 0.949 . S
C39 C40 1.401 . S
C39 C41 1.391 . S
C40 C39 1.401 . S
C40 C43 1.387 1_565 S
C41 C39 1.391 . S
C41 C45 1.387 . S
C41 C46 1.491 . S
H42 C43 0.955 . S
C43 C40 1.387 1_545 S
C43 H42 0.955 . S
C43 C44 1.374 1_545 S
C44 C43 1.374 1_565 S
C44 C45 1.419 . S
C45 C41 1.387 . S
C45 C44 1.419 . S
C45 H47 0.951 . S
C46 C41 1.491 . S
C46 C48 1.382 . S
C46 C50 1.404 . S
H47 C45 0.951 . S
C48 C46 1.382 . S
C48 C49 1.390 . S
C48 H53 0.949 1_565 S
C49 C48 1.390 . S
C49 C54 1.399 . S
C50 C46 1.404 . S
C50 H51 0.950 . S
C50 C52 1.375 . S
H51 C50 0.950 . S
C52 C50 1.375 . S
C52 C54 1.382 . S
C52 H56 0.950 . S
H53 C48 0.949 1_545 S
C54 C49 1.399 . S
C54 C52 1.382 . S
C54 H55 0.952 . S
H55 C54 0.952 . S
H56 C52 0.950 . S
H57 C58 0.949 . S
C58 H57 0.949 . S
C58 C59 1.395 . S
C58 C60 1.391 . S
C59 C58 1.395 . S
C59 C62 1.390 . S
C60 C58 1.391 . S
C60 C64 1.387 . S
C60 C65 1.491 . S
H61 C62 0.950 . S
C62 C59 1.390 . S
C62 H61 0.950 . S
C62 C63 1.378 . S
C63 C62 1.378 . S
C63 C64 1.409 . S
C64 C60 1.387 . S
C64 C63 1.409 . S
C64 H66 0.951 . S
C65 C60 1.491 . S
C65 C67 1.382 . S
C65 C69 1.404 . S
H66 C64 0.951 . S
C67 C65 1.382 . S
C67 C68 1.390 . S
C67 H72 0.949 . S
C68 C67 1.390 . S
C68 C73 1.399 . S
C69 C65 1.404 . S
C69 H70 0.950 . S
C69 C71 1.375 . S
H70 C69 0.950 . S
C71 C69 1.375 . S
C71 C73 1.382 . S
C71 H75 0.950 . S
H72 C67 0.949 . S
C73 C68 1.399 . S
C73 C71 1.382 . S
C73 H74 0.952 . S
H74 C73 0.952 . S
H75 C71 0.950 . S
H76 C77 0.949 . S
C77 H76 0.949 . S
C77 C78 1.395 . S
C77 C79 1.391 1_554 S
C78 C77 1.395 . S
C78 C81 1.390 1_554 S
C79 C77 1.391 1_556 S
C79 C83 1.387 . S
C79 C84 1.491 . S
H80 C81 0.950 . S
C81 C78 1.390 1_556 S
C81 H80 0.950 . S
C81 C82 1.378 . S
C82 C81 1.378 . S
C82 C83 1.409 . S
C83 C79 1.387 . S
C83 C82 1.409 . S
C83 H85 0.951 . S
C84 C79 1.491 . S
C84 C86 1.382 1_556 S
C84 C88 1.404 . S
H85 C83 0.951 . S
C86 C84 1.382 1_554 S
C86 C87 1.390 . S
C86 H91 0.949 . S
C87 C86 1.390 . S
C87 C92 1.399 1_554 S
C88 C84 1.404 . S
C88 H89 0.950 . S
C88 C90 1.375 . S
H89 C88 0.950 . S
C90 C88 1.375 . S
C90 C92 1.382 . S
C90 H94 0.950 . S
H91 C86 0.949 . S
C92 C87 1.399 1_556 S
C92 C90 1.382 . S
C92 H93 0.952 . S
H93 C92 0.952 . S
H94 C90 0.950 . S
H95 C96 0.949 . S
C96 H95 0.949 . S
C96 C97 1.395 . S
C96 C98 1.389 1_454 S
C97 C96 1.395 . S
C97 C100 1.390 1_554 S
C98 C96 1.389 1_656 S
C98 C102 1.386 1_655 S
C98 C103 1.495 . S
H99 C100 0.950 . S
C100 C97 1.390 1_556 S
C100 H99 0.950 . S
C100 C101 1.378 . S
C101 C100 1.378 . S
C101 C102 1.409 . S
C102 C98 1.386 1_455 S
C102 C101 1.409 . S
C102 H104 0.951 . S
C103 C98 1.495 . S
C103 C105 1.382 1_656 S
C103 C107 1.404 . S
H104 C102 0.951 . S
C105 C103 1.382 1_454 S
C105 C106 1.387 1_455 S
C105 H110 0.949 . S
C106 C105 1.387 1_655 S
C106 C111 1.407 1_554 S
C107 C103 1.404 . S
C107 H108 0.950 . S
C107 C109 1.375 . S
H108 C107 0.950 . S
C109 C107 1.375 . S
C109 C111 1.382 . S
C109 H113 0.950 . S
H110 C105 0.949 . S
C111 C106 1.407 1_556 S
C111 C109 1.382 . S
C111 H112 0.952 . S
H112 C111 0.952 . S
H113 C109 0.950 . S
H114 C115 0.954 . S
C115 H114 0.954 . S
C115 C116 1.395 . S
C115 C117 1.389 1_544 S
C116 C115 1.395 . S
C116 C119 1.390 1_554 S
C117 C115 1.389 1_566 S
C117 C121 1.386 1_565 S
C117 C122 1.496 . S
H118 C119 0.950 . S
C119 C116 1.390 1_556 S
C119 H118 0.950 . S
C119 C120 1.378 . S
C120 C119 1.378 . S
C120 C121 1.409 . S
C121 C117 1.386 1_545 S
C121 C120 1.409 . S
C121 H123 0.951 1_545 S
C122 C117 1.496 . S
C122 C124 1.382 1_566 S
C122 C126 1.404 . S
H123 C121 0.951 1_565 S
C124 C122 1.382 1_544 S
C124 C125 1.386 1_545 S
C124 H129 0.949 . S
C125 C124 1.386 1_565 S
C125 C130 1.412 1_554 S
C126 C122 1.404 . S
C126 H127 0.950 . S
C126 C128 1.375 . S
H127 C126 0.950 . S
C128 C126 1.375 . S
C128 C130 1.382 . S
C128 H132 0.950 . S
H129 C124 0.949 . S
C130 C125 1.412 1_556 S
C130 C128 1.382 . S
C130 H131 0.952 . S
H131 C130 0.952 . S
H132 C128 0.950 . S
H133 C134 0.949 . S
C134 H133 0.949 . S
C134 C135 1.395 . S
C134 C136 1.391 1_554 S
C135 C134 1.395 . S
C135 C138 1.390 1_554 S
C136 C134 1.391 1_556 S
C136 C140 1.387 . S
C136 C141 1.491 . S
H137 C138 0.950 . S
C138 C135 1.390 1_556 S
C138 H137 0.950 . S
C138 C139 1.378 . S
C139 C138 1.378 . S
C139 C140 1.409 . S
C140 C136 1.387 . S
C140 C139 1.409 . S
C140 H142 0.951 . S
C141 C136 1.491 . S
C141 C143 1.382 1_556 S
C141 C145 1.404 . S
H142 C140 0.951 . S
C143 C141 1.382 1_554 S
C143 C144 1.390 . S
C143 H148 0.949 . S
C144 C143 1.390 . S
C144 C149 1.399 1_554 S
C145 C141 1.404 . S
C145 H146 0.950 . S
C145 C147 1.375 . S
H146 C145 0.950 . S
C147 C145 1.375 . S
C147 C149 1.382 . S
C147 H151 0.950 . S
H148 C143 0.949 . S
C149 C144 1.399 1_556 S
C149 C147 1.382 . S
C149 H150 0.952 . S
H150 C149 0.952 . S
H151 C147 0.950 . S
Sm152 C154 2.846 . S
Sm152 O172 2.545 . S
Sm152 O173 2.450 . S
Sm152 O174 2.681 1_565 S
Sm152 O175 2.464 . S
Sm152 O176 2.396 . S
Sm152 O180 2.386 1_455 S
Sm152 O183 2.408 1_565 S
Sm153 C163 2.846 . S
Sm153 O174 2.386 1_655 S
Sm153 O177 2.408 1_545 S
Sm153 O178 2.543 1_655 S
Sm153 O179 2.450 . S
Sm153 O180 2.681 1_545 S
Sm153 O181 2.464 . S
Sm153 O182 2.396 . S
C154 Sm152 2.846 . S
C154 C155 1.506 . S
C154 O172 1.266 . S
C154 O173 1.242 . S
C155 C154 1.506 . S
C155 C156 1.358 . S
C155 C160 1.382 . S
C156 C155 1.358 . S
C156 C157 1.385 . S
C156 H184 0.930 1_455 S
C157 C156 1.385 . S
C157 C158 1.395 . S
C157 H185 0.929 1_455 S
C158 C157 1.395 . S
C158 C159 1.335 . S
C159 C158 1.335 . S
C159 C160 1.398 . S
C159 H186 0.930 . S
C160 C155 1.382 . S
C160 C159 1.398 . S
C160 H187 0.929 . S
C161 O174 1.271 . S
C161 O175 1.251 1_545 S
C162 O176 1.252 1_655 S
C162 O177 1.272 . S
C163 Sm153 2.846 . S
C163 C164 1.506 . S
C163 O178 1.261 1_655 S
C163 O179 1.242 . S
C164 C163 1.506 . S
C164 C165 1.358 1_655 S
C164 C169 1.382 . S
C165 C164 1.358 1_455 S
C165 C166 1.385 . S
C165 H188 0.930 . S
C166 C165 1.385 . S
C166 C167 1.397 1_455 S
C166 H189 0.927 . S
C167 C166 1.397 1_655 S
C167 C168 1.335 . S
C168 C167 1.335 . S
C168 C169 1.398 . S
C168 H190 0.930 . S
C169 C164 1.382 . S
C169 C168 1.398 . S
C169 H191 0.929 . S
C170 O180 1.271 1_545 S
C170 O181 1.251 . S
C171 O182 1.252 1_455 S
C171 O183 1.272 . S
O172 Sm152 2.545 . S
O172 C154 1.266 . S
O173 Sm152 2.450 . S
O173 C154 1.242 . S
O174 Sm152 2.681 1_545 S
O174 Sm153 2.386 1_455 S
O174 C161 1.271 . S
O175 Sm152 2.464 . S
O175 C161 1.251 1_565 S
O176 Sm152 2.396 . S
O176 C162 1.252 1_455 S
O177 Sm153 2.408 1_565 S
O177 C162 1.272 . S
O178 Sm153 2.543 1_455 S
O178 C163 1.261 1_455 S
O179 Sm153 2.450 . S
O179 C163 1.242 . S
O180 Sm152 2.386 1_655 S
O180 Sm153 2.681 1_565 S
O180 C170 1.271 1_565 S
O181 Sm153 2.464 . S
O181 C170 1.251 . S
O182 Sm153 2.396 . S
O182 C171 1.252 1_655 S
O183 Sm152 2.408 1_545 S
O183 C171 1.272 . S
H184 C156 0.930 1_655 S
H185 C157 0.929 1_655 S
H186 C159 0.930 . S
H187 C160 0.929 . S
H188 C165 0.930 . S
H189 C166 0.927 . S
H190 C168 0.930 . S
H191 C169 0.929 . S
Sm192 C194 2.846 . S
Sm192 O212 2.541 . S
Sm192 O213 2.450 . S
Sm192 O214 2.681 . S
Sm192 O215 2.464 . S
Sm192 O216 2.396 . S
Sm192 O220 2.386 1_545 S
Sm192 O223 2.408 . S
Sm193 C203 2.846 . S
Sm193 O214 2.386 1_565 S
Sm193 O217 2.408 . S
Sm193 O218 2.543 1_565 S
Sm193 O219 2.450 . S
Sm193 O220 2.681 . S
Sm193 O221 2.464 . S
Sm193 O222 2.396 . S
C194 Sm192 2.846 . S
C194 C195 1.506 . S
C194 O212 1.257 . S
C194 O213 1.242 . S
C195 C194 1.506 . S
C195 C196 1.358 . S
C195 C200 1.382 . S
C196 C195 1.358 . S
C196 C197 1.385 . S
C196 H224 0.930 1_545 S
C197 C196 1.385 . S
C197 C198 1.395 . S
C197 H225 0.929 1_545 S
C198 C197 1.395 . S
C198 C199 1.335 . S
C199 C198 1.335 . S
C199 C200 1.398 . S
C199 H226 0.930 . S
C200 C195 1.382 . S
C200 C199 1.398 . S
C200 H227 0.929 . S
C201 O214 1.271 . S
C201 O215 1.251 . S
C202 O216 1.252 1_565 S
C202 O217 1.272 . S
C203 Sm193 2.846 . S
C203 C204 1.506 . S
C203 O218 1.261 1_565 S
C203 O219 1.242 . S
C204 C203 1.506 . S
C204 C205 1.358 1_565 S
C204 C209 1.382 . S
C205 C204 1.358 1_545 S
C205 C206 1.386 1_545 S
C205 H228 0.930 . S
C206 C205 1.386 1_565 S
C206 C207 1.391 . S
C206 H229 0.933 1_565 S
C207 C206 1.391 . S
C207 C208 1.335 . S
C208 C207 1.335 . S
C208 C209 1.398 . S
C208 H230 0.930 . S
C209 C204 1.382 . S
C209 C208 1.398 . S
C209 H231 0.929 . S
C210 O220 1.271 . S
C210 O221 1.251 . S
C211 O222 1.252 1_545 S
C211 O223 1.272 . S
O212 Sm192 2.541 . S
O212 C194 1.257 . S
O213 Sm192 2.450 . S
O213 C194 1.242 . S
O214 Sm192 2.681 . S
O214 Sm193 2.386 1_545 S
O214 C201 1.271 . S
O215 Sm192 2.464 . S
O215 C201 1.251 . S
O216 Sm192 2.396 . S
O216 C202 1.252 1_545 S
O217 Sm193 2.408 . S
O217 C202 1.272 . S
O218 Sm193 2.543 1_545 S
O218 C203 1.261 1_545 S
O219 Sm193 2.450 . S
O219 C203 1.242 . S
O220 Sm192 2.386 1_565 S
O220 Sm193 2.681 . S
O220 C210 1.271 . S
O221 Sm193 2.464 . S
O221 C210 1.251 . S
O222 Sm193 2.396 . S
O222 C211 1.252 1_565 S
O223 Sm192 2.408 . S
O223 C211 1.272 . S
H224 C196 0.930 1_565 S
H225 C197 0.929 1_565 S
H226 C199 0.930 . S
H227 C200 0.929 . S
H228 C205 0.930 . S
H229 C206 0.933 1_545 S
H230 C208 0.930 . S
H231 C209 0.929 . S
Sm232 C234 2.846 . S
Sm232 O252 2.543 . S
Sm232 O253 2.450 . S
Sm232 O254 2.681 . S
Sm232 O255 2.464 . S
Sm232 O256 2.396 . S
Sm232 O260 2.386 . S
Sm232 O263 2.408 . S
Sm233 C243 2.846 . S
Sm233 O254 2.386 . S
Sm233 O257 2.408 . S
Sm233 O258 2.543 . S
Sm233 O259 2.450 . S
Sm233 O260 2.681 . S
Sm233 O261 2.464 . S
Sm233 O262 2.396 . S
C234 Sm232 2.846 . S
C234 C235 1.506 . S
C234 O252 1.261 . S
C234 O253 1.242 . S
C235 C234 1.506 . S
C235 C236 1.358 . S
C235 C240 1.382 . S
C236 C235 1.358 . S
C236 C237 1.385 . S
C236 H264 0.930 . S
C237 C236 1.385 . S
C237 C238 1.395 . S
C237 H265 0.929 . S
C238 C237 1.395 . S
C238 C239 1.335 . S
C239 C238 1.335 . S
C239 C240 1.398 . S
C239 H266 0.930 . S
C240 C235 1.382 . S
C240 C239 1.398 . S
C240 H267 0.929 . S
C241 O254 1.271 . S
C241 O255 1.251 . S
C242 O256 1.252 . S
C242 O257 1.272 . S
C243 Sm233 2.846 . S
C243 C244 1.506 . S
C243 O258 1.261 . S
C243 O259 1.242 . S
C244 C243 1.506 . S
C244 C245 1.358 . S
C244 C249 1.382 . S
C245 C244 1.358 . S
C245 C246 1.385 . S
C245 H268 0.930 . S
C246 C245 1.385 . S
C246 C247 1.395 . S
C246 H269 0.929 . S
C247 C246 1.395 . S
C247 C248 1.335 . S
C248 C247 1.335 . S
C248 C249 1.398 . S
C248 H270 0.930 . S
C249 C244 1.382 . S
C249 C248 1.398 . S
C249 H271 0.929 . S
C250 O260 1.271 . S
C250 O261 1.251 . S
C251 O262 1.252 . S
C251 O263 1.272 . S
O252 Sm232 2.543 . S
O252 C234 1.261 . S
O253 Sm232 2.450 . S
O253 C234 1.242 . S
O254 Sm232 2.681 . S
O254 Sm233 2.386 . S
O254 C241 1.271 . S
O255 Sm232 2.464 . S
O255 C241 1.251 . S
O256 Sm232 2.396 . S
O256 C242 1.252 . S
O257 Sm233 2.408 . S
O257 C242 1.272 . S
O258 Sm233 2.543 . S
O258 C243 1.261 . S
O259 Sm233 2.450 . S
O259 C243 1.242 . S
O260 Sm232 2.386 . S
O260 Sm233 2.681 . S
O260 C250 1.271 . S
O261 Sm233 2.464 . S
O261 C250 1.251 . S
O262 Sm233 2.396 . S
O262 C251 1.252 . S
O263 Sm232 2.408 . S
O263 C251 1.272 . S
H264 C236 0.930 . S
H265 C237 0.929 . S
H266 C239 0.930 . S
H267 C240 0.929 . S
H268 C245 0.930 . S
H269 C246 0.929 . S
H270 C248 0.930 . S
H271 C249 0.929 . S
Sm272 C274 2.846 . S
Sm272 O292 2.543 . S
Sm272 O293 2.450 . S
Sm272 O294 2.681 1_655 S
Sm272 O295 2.464 . S
Sm272 O296 2.396 . S
Sm272 O300 2.386 . S
Sm272 O303 2.408 1_655 S
Sm273 C283 2.846 . S
Sm273 O294 2.386 . S
Sm273 O297 2.408 1_455 S
Sm273 O298 2.543 . S
Sm273 O299 2.450 . S
Sm273 O300 2.681 1_455 S
Sm273 O301 2.464 . S
Sm273 O302 2.396 . S
C274 Sm272 2.846 . S
C274 C275 1.506 . S
C274 O292 1.261 . S
C274 O293 1.242 . S
C275 C274 1.506 . S
C275 C276 1.358 . S
C275 C280 1.382 . S
C276 C275 1.358 . S
C276 C277 1.385 . S
C276 H304 0.930 . S
C277 C276 1.385 . S
C277 C278 1.395 . S
C277 H305 0.929 . S
C278 C277 1.395 . S
C278 C279 1.335 . S
C279 C278 1.335 . S
C279 C280 1.398 . S
C279 H306 0.930 . S
C280 C275 1.382 . S
C280 C279 1.398 . S
C280 H307 0.929 . S
C281 O294 1.271 . S
C281 O295 1.251 1_455 S
C282 O296 1.252 . S
C282 O297 1.272 . S
C283 Sm273 2.846 . S
C283 C284 1.506 . S
C283 O298 1.261 . S
C283 O299 1.242 . S
C284 C283 1.506 . S
C284 C285 1.358 . S
C284 C289 1.382 . S
C285 C284 1.358 . S
C285 C286 1.385 . S
C285 H308 0.930 . S
C286 C285 1.385 . S
C286 C287 1.395 . S
C286 H309 0.929 . S
C287 C286 1.395 . S
C287 C288 1.335 . S
C288 C287 1.335 . S
C288 C289 1.398 . S
C288 H310 0.930 . S
C289 C284 1.382 . S
C289 C288 1.398 . S
C289 H311 0.929 . S
C290 O300 1.271 1_455 S
C290 O301 1.251 . S
C291 O302 1.252 . S
C291 O303 1.272 . S
O292 Sm272 2.543 . S
O292 C274 1.261 . S
O293 Sm272 2.450 . S
O293 C274 1.242 . S
O294 Sm272 2.681 1_455 S
O294 Sm273 2.386 . S
O294 C281 1.271 . S
O295 Sm272 2.464 . S
O295 C281 1.251 1_655 S
O296 Sm272 2.396 . S
O296 C282 1.252 . S
O297 Sm273 2.408 1_655 S
O297 C282 1.272 . S
O298 Sm273 2.543 . S
O298 C283 1.261 . S
O299 Sm273 2.450 . S
O299 C283 1.242 . S
O300 Sm272 2.386 . S
O300 Sm273 2.681 1_655 S
O300 C290 1.271 1_655 S
O301 Sm273 2.464 . S
O301 C290 1.251 . S
O302 Sm273 2.396 . S
O302 C291 1.252 . S
O303 Sm272 2.408 1_455 S
O303 C291 1.272 . S
H304 C276 0.930 . S
H305 C277 0.929 . S
H306 C279 0.930 . S
H307 C280 0.929 . S
H308 C285 0.930 . S
H309 C286 0.929 . S
H310 C288 0.930 . S
H311 C289 0.929 . S
H312 C330 0.951 . S
H313 C332 0.951 . S
H314 C334 0.950 . S
H315 C335 0.950 . S
H316 C337 0.950 . S
H317 C340 0.950 . S
H318 C341 0.950 . S
H319 C343 0.950 . S
H320 C344 0.950 . S
H321 C345 0.951 . S
H322 C347 0.951 . S
H323 C349 0.950 . S
H324 C350 0.950 . S
H325 C352 0.950 . S
H326 C355 0.950 . S
H327 C356 0.950 . S
H328 C358 0.950 . S
H329 C359 0.950 . S
C330 H312 0.951 . S
C330 C331 1.366 . S
C330 C332 1.388 . S
C331 C330 1.366 . S
C331 C335 1.385 . S
C332 H313 0.951 . S
C332 C330 1.388 . S
C332 C333 1.366 . S
C333 C332 1.366 . S
C333 C334 1.414 . S
C333 C336 1.499 . S
C334 H314 0.950 . S
C334 C333 1.414 . S
C334 C335 1.374 . S
C335 H315 0.950 . S
C335 C331 1.385 . S
C335 C334 1.374 . S
C336 C333 1.499 . S
C336 C337 1.373 1_545 S
C336 C338 1.389 . S
C337 H316 0.950 . S
C337 C336 1.373 1_565 S
C337 C353 1.377 . S
C338 C336 1.389 . S
C338 C339 1.524 . S
C338 C352 1.377 . S
C339 C338 1.524 . S
C339 C340 1.397 . S
C339 C344 1.363 . S
C340 H317 0.950 . S
C340 C339 1.397 . S
C340 C341 1.334 . S
C341 H318 0.950 . S
C341 C340 1.334 . S
C341 C342 1.287 . S
C342 C341 1.287 . S
C342 C343 1.524 . S
C342 H361 0.913 . S
C343 H319 0.950 . S
C343 C342 1.524 . S
C343 C344 1.415 . S
C344 H320 0.950 . S
C344 C339 1.363 . S
C344 C343 1.415 . S
C345 H321 0.951 . S
C345 C346 1.366 . S
C345 C347 1.388 . S
C346 C345 1.366 . S
C346 C350 1.385 . S
C347 H322 0.951 . S
C347 C345 1.388 . S
C347 C348 1.366 . S
C348 C347 1.366 . S
C348 C349 1.414 . S
C348 C351 1.499 . S
C349 H323 0.950 . S
C349 C348 1.414 . S
C349 C350 1.374 . S
C350 H324 0.950 . S
C350 C346 1.385 . S
C350 C349 1.374 . S
C351 C348 1.499 . S
C351 C352 1.373 . S
C351 C353 1.389 1_545 S
C352 H325 0.950 . S
C352 C338 1.377 . S
C352 C351 1.373 . S
C353 C337 1.377 . S
C353 C351 1.389 1_565 S
C353 C354 1.524 . S
C354 C353 1.524 . S
C354 C355 1.397 . S
C354 C359 1.363 . S
C355 H326 0.950 . S
C355 C354 1.397 . S
C355 C356 1.334 . S
C356 H327 0.950 . S
C356 C355 1.334 . S
C356 C357 1.287 . S
C357 C356 1.287 . S
C357 C358 1.524 . S
C357 H360 0.999 . S
C358 H328 0.950 . S
C358 C357 1.524 . S
C358 C359 1.415 . S
C359 H329 0.950 . S
C359 C354 1.363 . S
C359 C358 1.415 . S
H360 C357 0.999 . S
H361 C342 0.913 . S
H362 C380 0.951 . S
H363 C382 0.951 . S
H364 C384 0.950 . S
H365 C385 0.950 . S
H366 C387 0.950 . S
H367 C390 0.950 . S
H368 C391 0.950 . S
H369 C393 0.950 . S
H370 C394 0.950 . S
H371 C395 0.951 . S
H372 C397 0.951 . S
H373 C399 0.950 . S
H374 C400 0.950 . S
H375 C402 0.950 . S
H376 C405 0.950 . S
H377 C406 0.950 . S
H378 C408 0.950 . S
H379 C409 0.950 . S
C380 H362 0.951 . S
C380 C381 1.366 . S
C380 C382 1.388 . S
C381 C380 1.366 . S
C381 C385 1.385 . S
C382 H363 0.951 . S
C382 C380 1.388 . S
C382 C383 1.366 . S
C383 C382 1.366 . S
C383 C384 1.414 . S
C383 C386 1.499 . S
C384 H364 0.950 . S
C384 C383 1.414 . S
C384 C385 1.374 . S
C385 H365 0.950 . S
C385 C381 1.385 . S
C385 C384 1.374 . S
C386 C383 1.499 . S
C386 C387 1.373 . S
C386 C388 1.389 . S
C387 H366 0.950 . S
C387 C386 1.373 . S
C387 C403 1.377 . S
C388 C386 1.389 . S
C388 C389 1.524 . S
C388 C402 1.377 . S
C389 C388 1.524 . S
C389 C390 1.397 . S
C389 C394 1.363 . S
C390 H367 0.950 . S
C390 C389 1.397 . S
C390 C391 1.334 . S
C391 H368 0.950 . S
C391 C390 1.334 . S
C391 C392 1.287 . S
C392 C391 1.287 . S
C392 C393 1.524 . S
C392 H411 0.913 . S
C393 H369 0.950 . S
C393 C392 1.524 . S
C393 C394 1.415 . S
C394 H370 0.950 . S
C394 C389 1.363 . S
C394 C393 1.415 . S
C395 H371 0.951 . S
C395 C396 1.366 . S
C395 C397 1.388 . S
C396 C395 1.366 . S
C396 C400 1.385 . S
C397 H372 0.951 . S
C397 C395 1.388 . S
C397 C398 1.366 . S
C398 C397 1.366 . S
C398 C399 1.414 . S
C398 C401 1.499 . S
C399 H373 0.950 . S
C399 C398 1.414 . S
C399 C400 1.374 . S
C400 H374 0.950 . S
C400 C396 1.385 . S
C400 C399 1.374 . S
C401 C398 1.499 . S
C401 C402 1.373 . S
C401 C403 1.389 . S
C402 H375 0.950 . S
C402 C388 1.377 . S
C402 C401 1.373 . S
C403 C387 1.377 . S
C403 C401 1.389 . S
C403 C404 1.524 . S
C404 C403 1.524 . S
C404 C405 1.397 . S
C404 C409 1.363 . S
C405 H376 0.950 . S
C405 C404 1.397 . S
C405 C406 1.334 . S
C406 H377 0.950 . S
C406 C405 1.334 . S
C406 C407 1.287 . S
C407 C406 1.287 . S
C407 C408 1.524 . S
C407 H410 0.999 . S
C408 H378 0.950 . S
C408 C407 1.524 . S
C408 C409 1.415 . S
C409 H379 0.950 . S
C409 C404 1.363 . S
C409 C408 1.415 . S
H410 C407 0.999 . S
H411 C392 0.913 . S
H412 C430 0.951 . S
H413 C432 0.951 . S
H414 C434 0.950 . S
H415 C435 0.950 . S
H416 C437 0.950 . S
H417 C440 0.950 . S
H418 C441 0.950 . S
H419 C443 0.950 . S
H420 C444 0.950 . S
H421 C445 0.951 . S
H422 C447 0.951 . S
H423 C449 0.950 . S
H424 C450 0.950 . S
H425 C452 0.950 . S
H426 C455 0.950 . S
H427 C456 0.950 . S
H428 C458 0.950 . S
H429 C459 0.950 . S
C430 H412 0.951 . S
C430 C431 1.366 . S
C430 C432 1.388 . S
C431 C430 1.366 . S
C431 C435 1.385 . S
C432 H413 0.951 . S
C432 C430 1.388 . S
C432 C433 1.366 . S
C433 C432 1.366 . S
C433 C434 1.414 . S
C433 C436 1.499 . S
C434 H414 0.950 . S
C434 C433 1.414 . S
C434 C435 1.374 . S
C435 H415 0.950 . S
C435 C431 1.385 . S
C435 C434 1.374 . S
C436 C433 1.499 . S
C436 C437 1.373 . S
C436 C438 1.389 . S
C437 H416 0.950 . S
C437 C436 1.373 . S
C437 C453 1.377 . S
C438 C436 1.389 . S
C438 C439 1.524 . S
C438 C452 1.377 . S
C439 C438 1.524 . S
C439 C440 1.397 . S
C439 C444 1.363 . S
C440 H417 0.950 . S
C440 C439 1.397 . S
C440 C441 1.334 . S
C441 H418 0.950 . S
C441 C440 1.334 . S
C441 C442 1.287 . S
C442 C441 1.287 . S
C442 C443 1.524 . S
C442 H461 0.913 . S
C443 H419 0.950 . S
C443 C442 1.524 . S
C443 C444 1.415 . S
C444 H420 0.950 . S
C444 C439 1.363 . S
C444 C443 1.415 . S
C445 H421 0.951 . S
C445 C446 1.366 . S
C445 C447 1.388 . S
C446 C445 1.366 . S
C446 C450 1.385 . S
C447 H422 0.951 . S
C447 C445 1.388 . S
C447 C448 1.366 . S
C448 C447 1.366 . S
C448 C449 1.414 . S
C448 C451 1.499 . S
C449 H423 0.950 . S
C449 C448 1.414 . S
C449 C450 1.374 . S
C450 H424 0.950 . S
C450 C446 1.385 . S
C450 C449 1.374 . S
C451 C448 1.499 . S
C451 C452 1.373 . S
C451 C453 1.389 . S
C452 H425 0.950 . S
C452 C438 1.377 . S
C452 C451 1.373 . S
C453 C437 1.377 . S
C453 C451 1.389 . S
C453 C454 1.524 . S
C454 C453 1.524 . S
C454 C455 1.397 . S
C454 C459 1.363 . S
C455 H426 0.950 . S
C455 C454 1.397 . S
C455 C456 1.334 . S
C456 H427 0.950 . S
C456 C455 1.334 . S
C456 C457 1.287 . S
C457 C456 1.287 . S
C457 C458 1.524 . S
C457 H460 0.999 . S
C458 H428 0.950 . S
C458 C457 1.524 . S
C458 C459 1.415 . S
C459 H429 0.950 . S
C459 C454 1.363 . S
C459 C458 1.415 . S
H460 C457 0.999 . S
H461 C442 0.913 . S
H462 C480 0.951 . S
H463 C482 0.951 . S
H464 C484 0.950 . S
H465 C485 0.950 . S
H466 C487 0.950 . S
H467 C490 0.950 . S
H468 C491 0.950 . S
H469 C493 0.950 . S
H470 C494 0.950 . S
H471 C495 0.951 . S
H472 C497 0.951 . S
H473 C499 0.950 . S
H474 C500 0.950 . S
H475 C502 0.950 . S
H476 C505 0.950 . S
H477 C506 0.950 . S
H478 C508 0.950 . S
H479 C509 0.950 . S
C480 H462 0.951 . S
C480 C481 1.366 . S
C480 C482 1.388 . S
C481 C480 1.366 . S
C481 C485 1.385 1_455 S
C482 H463 0.951 . S
C482 C480 1.388 . S
C482 C483 1.366 . S
C483 C482 1.366 . S
C483 C484 1.414 1_455 S
C483 C486 1.499 . S
C484 H464 0.950 . S
C484 C483 1.414 1_655 S
C484 C485 1.374 . S
C485 H465 0.950 . S
C485 C481 1.385 1_655 S
C485 C484 1.374 . S
C486 C483 1.499 . S
C486 C487 1.373 1_455 S
C486 C488 1.389 . S
C487 H466 0.950 . S
C487 C486 1.373 1_655 S
C487 C503 1.377 . S
C488 C486 1.389 . S
C488 C489 1.524 . S
C488 C502 1.377 . S
C489 C488 1.524 . S
C489 C490 1.397 . S
C489 C494 1.363 . S
C490 H467 0.950 . S
C490 C489 1.397 . S
C490 C491 1.334 . S
C491 H468 0.950 . S
C491 C490 1.334 . S
C491 C492 1.287 . S
C492 C491 1.287 . S
C492 C493 1.524 . S
C492 H511 0.913 . S
C493 H469 0.950 . S
C493 C492 1.524 . S
C493 C494 1.415 . S
C494 H470 0.950 . S
C494 C489 1.363 . S
C494 C493 1.415 . S
C495 H471 0.951 . S
C495 C496 1.366 1_655 S
C495 C497 1.388 . S
C496 C495 1.366 1_455 S
C496 C500 1.385 . S
C497 H472 0.951 . S
C497 C495 1.388 . S
C497 C498 1.366 1_655 S
C498 C497 1.366 1_455 S
C498 C499 1.414 . S
C498 C501 1.499 . S
C499 H473 0.950 . S
C499 C498 1.414 . S
C499 C500 1.374 . S
C500 H474 0.950 . S
C500 C496 1.385 . S
C500 C499 1.374 . S
C501 C498 1.499 . S
C501 C502 1.373 . S
C501 C503 1.389 1_455 S
C502 H475 0.950 . S
C502 C488 1.377 . S
C502 C501 1.373 . S
C503 C487 1.377 . S
C503 C501 1.389 1_655 S
C503 C504 1.524 . S
C504 C503 1.524 . S
C504 C505 1.397 . S
C504 C509 1.363 . S
C505 H476 0.950 . S
C505 C504 1.397 . S
C505 C506 1.334 . S
C506 H477 0.950 . S
C506 C505 1.334 . S
C506 C507 1.287 . S
C507 C506 1.287 . S
C507 C508 1.524 . S
C507 H510 0.999 . S
C508 H478 0.950 . S
C508 C507 1.524 . S
C508 C509 1.415 . S
C509 H479 0.950 . S
C509 C504 1.363 . S
C509 C508 1.415 . S
H510 C507 0.999 . S
H511 C492 0.913 . S
H512 C530 0.951 . S
H513 C532 0.951 . S
H514 C534 0.950 . S
H515 C535 0.950 . S
H516 C537 0.950 1_556 S
H517 C540 0.950 1_545 S
H518 C541 0.950 . S
H519 C543 0.950 . S
H520 C544 0.950 . S
H521 C545 0.951 . S
H522 C547 0.951 . S
H523 C549 0.950 . S
H524 C550 0.950 . S
H525 C552 0.950 . S
H526 C555 0.950 1_565 S
H527 C556 0.950 . S
H528 C558 0.950 . S
H529 C559 0.950 . S
C530 H512 0.951 . S
C530 C531 1.390 . S
C530 C532 1.388 . S
C531 C530 1.390 . S
C531 C535 1.360 1_565 S
C532 H513 0.951 . S
C532 C530 1.388 . S
C532 C533 1.367 . S
C533 C532 1.367 . S
C533 C534 1.412 1_565 S
C533 C536 1.498 1_565 S
C534 H514 0.950 . S
C534 C533 1.412 1_545 S
C534 C535 1.374 . S
C535 H515 0.950 . S
C535 C531 1.360 1_545 S
C535 C534 1.374 . S
C536 C533 1.498 1_545 S
C536 C537 1.391 . S
C536 C538 1.372 1_545 S
C537 H516 0.950 1_554 S
C537 C536 1.391 . S
C537 C553 1.377 1_554 S
C538 C536 1.372 1_565 S
C538 C539 1.524 . S
C538 C552 1.377 . S
C539 C538 1.524 . S
C539 C540 1.397 . S
C539 C544 1.363 . S
C540 H517 0.950 1_565 S
C540 C539 1.397 . S
C540 C541 1.334 . S
C541 H518 0.950 . S
C541 C540 1.334 . S
C541 C542 1.287 . S
C542 C541 1.287 . S
C542 C543 1.524 . S
C542 H561 0.913 . S
C543 H519 0.950 . S
C543 C542 1.524 . S
C543 C544 1.415 . S
C544 H520 0.950 . S
C544 C539 1.363 . S
C544 C543 1.415 . S
C545 H521 0.951 . S
C545 C546 1.392 . S
C545 C547 1.388 . S
C546 C545 1.392 . S
C546 C550 1.358 1_545 S
C547 H522 0.951 . S
C547 C545 1.388 . S
C547 C548 1.368 . S
C548 C547 1.368 . S
C548 C549 1.411 1_545 S
C548 C551 1.498 1_545 S
C549 H523 0.950 . S
C549 C548 1.411 1_565 S
C549 C550 1.374 . S
C550 H524 0.950 . S
C550 C546 1.358 1_565 S
C550 C549 1.374 . S
C551 C548 1.498 1_565 S
C551 C552 1.390 1_556 S
C551 C553 1.373 1_565 S
C552 H525 0.950 . S
C552 C538 1.377 . S
C552 C551 1.390 1_554 S
C553 C537 1.377 1_556 S
C553 C551 1.373 1_545 S
C553 C554 1.524 . S
C554 C553 1.524 . S
C554 C555 1.397 . S
C554 C559 1.363 . S
C555 H526 0.950 1_545 S
C555 C554 1.397 . S
C555 C556 1.334 . S
C556 H527 0.950 . S
C556 C555 1.334 . S
C556 C557 1.287 . S
C557 C556 1.287 . S
C557 C558 1.524 . S
C557 H560 0.999 . S
C558 H528 0.950 . S
C558 C557 1.524 . S
C558 C559 1.415 . S
C559 H529 0.950 . S
C559 C554 1.363 . S
C559 C558 1.415 . S
H560 C557 0.999 . S
H561 C542 0.913 . S
H562 C580 0.951 . S
H563 C582 0.951 . S
H564 C584 0.950 . S
H565 C585 0.950 . S
H566 C587 0.950 1_556 S
H567 C590 0.950 . S
H568 C591 0.950 . S
H569 C593 0.950 . S
H570 C594 0.950 . S
H571 C595 0.951 . S
H572 C597 0.951 . S
H573 C599 0.950 . S
H574 C600 0.950 . S
H575 C602 0.950 . S
H576 C605 0.950 . S
H577 C606 0.950 . S
H578 C608 0.950 . S
H579 C609 0.950 . S
C580 H562 0.951 . S
C580 C581 1.366 . S
C580 C582 1.388 . S
C581 C580 1.366 . S
C581 C585 1.385 . S
C582 H563 0.951 . S
C582 C580 1.388 . S
C582 C583 1.366 . S
C583 C582 1.366 . S
C583 C584 1.414 . S
C583 C586 1.499 . S
C584 H564 0.950 . S
C584 C583 1.414 . S
C584 C585 1.374 . S
C585 H565 0.950 . S
C585 C581 1.385 . S
C585 C584 1.374 . S
C586 C583 1.499 . S
C586 C587 1.373 . S
C586 C588 1.389 . S
C587 H566 0.950 1_554 S
C587 C586 1.373 . S
C587 C603 1.377 1_554 S
C588 C586 1.389 . S
C588 C589 1.524 . S
C588 C602 1.377 . S
C589 C588 1.524 . S
C589 C590 1.397 . S
C589 C594 1.363 . S
C590 H567 0.950 . S
C590 C589 1.397 . S
C590 C591 1.334 . S
C591 H568 0.950 . S
C591 C590 1.334 . S
C591 C592 1.287 . S
C592 C591 1.287 . S
C592 C593 1.524 . S
C592 H611 0.913 . S
C593 H569 0.950 . S
C593 C592 1.524 . S
C593 C594 1.415 . S
C594 H570 0.950 . S
C594 C589 1.363 . S
C594 C593 1.415 . S
C595 H571 0.951 . S
C595 C596 1.366 . S
C595 C597 1.388 . S
C596 C595 1.366 . S
C596 C600 1.385 . S
C597 H572 0.951 . S
C597 C595 1.388 . S
C597 C598 1.366 . S
C598 C597 1.366 . S
C598 C599 1.414 . S
C598 C601 1.499 . S
C599 H573 0.950 . S
C599 C598 1.414 . S
C599 C600 1.374 . S
C600 H574 0.950 . S
C600 C596 1.385 . S
C600 C599 1.374 . S
C601 C598 1.499 . S
C601 C602 1.373 1_556 S
C601 C603 1.389 . S
C602 H575 0.950 . S
C602 C588 1.377 . S
C602 C601 1.373 1_554 S
C603 C587 1.377 1_556 S
C603 C601 1.389 . S
C603 C604 1.524 . S
C604 C603 1.524 . S
C604 C605 1.397 . S
C604 C609 1.363 . S
C605 H576 0.950 . S
C605 C604 1.397 . S
C605 C606 1.334 . S
C606 H577 0.950 . S
C606 C605 1.334 . S
C606 C607 1.287 . S
C607 C606 1.287 . S
C607 C608 1.524 . S
C607 H610 0.999 . S
C608 H578 0.950 . S
C608 C607 1.524 . S
C608 C609 1.415 . S
C609 H579 0.950 . S
C609 C604 1.363 . S
C609 C608 1.415 . S
H610 C607 0.999 . S
H611 C592 0.913 . S
H612 C630 0.951 . S
H613 C632 0.951 . S
H614 C634 0.950 . S
H615 C635 0.950 . S
H616 C637 0.950 . S
H617 C640 0.950 . S
H618 C641 0.950 . S
H619 C643 0.950 . S
H620 C644 0.950 . S
H621 C645 0.951 . S
H622 C647 0.960 . S
H623 C649 0.950 . S
H624 C650 0.950 . S
H625 C652 0.950 . S
H626 C655 0.950 1_556 S
H627 C656 0.950 1_556 S
H628 C658 0.950 . S
H629 C659 0.950 . S
C630 H612 0.951 . S
C630 C631 1.366 . S
C630 C632 1.388 . S
C631 C630 1.366 . S
C631 C635 1.385 . S
C632 H613 0.951 . S
C632 C630 1.388 . S
C632 C633 1.366 . S
C633 C632 1.366 . S
C633 C634 1.414 . S
C633 C636 1.499 . S
C634 H614 0.950 . S
C634 C633 1.414 . S
C634 C635 1.374 . S
C635 H615 0.950 . S
C635 C631 1.385 . S
C635 C634 1.374 . S
C636 C633 1.499 . S
C636 C637 1.373 . S
C636 C638 1.389 . S
C637 H616 0.950 . S
C637 C636 1.373 . S
C637 C653 1.377 . S
C638 C636 1.389 . S
C638 C639 1.524 1_554 S
C638 C652 1.377 1_554 S
C639 C638 1.524 1_556 S
C639 C640 1.397 1_556 S
C639 C644 1.363 . S
C640 H617 0.950 . S
C640 C639 1.397 1_554 S
C640 C641 1.334 . S
C641 H618 0.950 . S
C641 C640 1.334 . S
C641 C642 1.287 1_554 S
C642 C641 1.287 1_556 S
C642 C643 1.524 . S
C642 H661 0.913 . S
C643 H619 0.950 . S
C643 C642 1.524 . S
C643 C644 1.415 . S
C644 H620 0.950 . S
C644 C639 1.363 . S
C644 C643 1.415 . S
C645 H621 0.951 . S
C645 C646 1.366 . S
C645 C647 1.388 . S
C646 C645 1.366 . S
C646 C650 1.385 . S
C647 H622 0.960 . S
C647 C645 1.388 . S
C647 C648 1.366 . S
C648 C647 1.366 . S
C648 C649 1.414 . S
C648 C651 1.499 . S
C649 H623 0.950 . S
C649 C648 1.414 . S
C649 C650 1.374 . S
C650 H624 0.950 . S
C650 C646 1.385 . S
C650 C649 1.374 . S
C651 C648 1.499 . S
C651 C652 1.373 . S
C651 C653 1.389 1_556 S
C652 H625 0.950 . S
C652 C638 1.377 1_556 S
C652 C651 1.373 . S
C653 C637 1.377 . S
C653 C651 1.389 1_554 S
C653 C654 1.524 . S
C654 C653 1.524 . S
C654 C655 1.397 . S
C654 C659 1.363 . S
C655 H626 0.950 1_554 S
C655 C654 1.397 . S
C655 C656 1.334 . S
C656 H627 0.950 1_554 S
C656 C655 1.334 . S
C656 C657 1.287 . S
C657 C656 1.287 . S
C657 C658 1.524 . S
C657 H660 0.999 . S
C658 H628 0.950 . S
C658 C657 1.524 . S
C658 C659 1.415 . S
C659 H629 0.950 . S
C659 C654 1.363 . S
C659 C658 1.415 . S
H660 C657 0.999 . S
H661 C642 0.913 . S
H662 C680 0.951 . S
H663 C682 0.951 . S
H664 C684 0.955 . S
H665 C685 0.955 . S
H666 C687 0.950 . S
H667 C690 0.950 . S
H668 C691 0.950 . S
H669 C693 0.950 . S
H670 C694 0.950 . S
H671 C695 0.951 . S
H672 C697 0.950 . S
H673 C699 0.952 . S
H674 C700 0.952 . S
H675 C702 0.950 . S
H676 C705 0.950 . S
H677 C706 0.950 . S
H678 C708 0.950 . S
H679 C709 0.950 . S
C680 H662 0.951 . S
C680 C681 1.367 . S
C680 C682 1.388 . S
C681 C680 1.367 . S
C681 C685 1.382 1_655 S
C682 H663 0.951 . S
C682 C680 1.388 . S
C682 C683 1.366 . S
C683 C682 1.366 . S
C683 C684 1.410 1_655 S
C683 C686 1.500 . S
C684 H664 0.955 . S
C684 C683 1.410 1_455 S
C684 C685 1.374 . S
C685 H665 0.955 . S
C685 C681 1.382 1_455 S
C685 C684 1.374 . S
C686 C683 1.500 . S
C686 C687 1.328 1_655 S
C686 C688 1.432 . S
C687 H666 0.950 . S
C687 C686 1.328 1_455 S
C687 C703 1.377 . S
C688 C686 1.432 . S
C688 C689 1.524 . S
C688 C702 1.377 1_554 S
C689 C688 1.524 . S
C689 C690 1.397 . S
C689 C694 1.363 1_554 S
C690 H667 0.950 . S
C690 C689 1.397 . S
C690 C691 1.334 . S
C691 H668 0.950 . S
C691 C690 1.334 . S
C691 C692 1.287 . S
C692 C691 1.287 . S
C692 C693 1.524 1_554 S
C692 H711 0.913 . S
C693 H669 0.950 . S
C693 C692 1.524 1_556 S
C693 C694 1.415 . S
C694 H670 0.950 . S
C694 C689 1.363 1_556 S
C694 C693 1.415 . S
C695 H671 0.951 . S
C695 C696 1.369 . S
C695 C697 1.388 . S
C696 C695 1.369 . S
C696 C700 1.382 1_455 S
C697 H672 0.950 . S
C697 C695 1.388 . S
C697 C698 1.366 . S
C698 C697 1.366 . S
C698 C699 1.412 1_455 S
C698 C701 1.499 . S
C699 H673 0.952 . S
C699 C698 1.412 1_655 S
C699 C700 1.374 . S
C700 H674 0.952 . S
C700 C696 1.382 1_655 S
C700 C699 1.374 . S
C701 C698 1.499 . S
C701 C702 1.373 1_455 S
C701 C703 1.389 1_556 S
C702 H675 0.950 . S
C702 C688 1.377 1_556 S
C702 C701 1.373 1_655 S
C703 C687 1.377 . S
C703 C701 1.389 1_554 S
C703 C704 1.524 . S
C704 C703 1.524 . S
C704 C705 1.397 1_554 S
C704 C709 1.363 . S
C705 H676 0.950 . S
C705 C704 1.397 1_556 S
C705 C706 1.334 . S
C706 H677 0.950 . S
C706 C705 1.334 . S
C706 C707 1.287 1_556 S
C707 C706 1.287 1_554 S
C707 C708 1.524 . S
C707 H710 0.999 . S
C708 H678 0.950 . S
C708 C707 1.524 . S
C708 C709 1.415 . S
C709 H679 0.950 . S
C709 C704 1.363 . S
C709 C708 1.415 . S
H710 C707 0.999 . S
H711 C692 0.913 . S
H712 C730 0.951 . S
H713 C732 0.949 1_655 S
H714 C734 0.950 . S
H715 C735 0.950 1_556 S
H716 C737 0.950 . S
H717 C740 0.950 . S
H718 C741 0.950 . S
H719 C743 0.950 . S
H720 C744 0.950 . S
H721 C745 0.951 . S
H722 C747 0.951 . S
H723 C749 0.950 . S
H724 C750 0.950 . S
H725 C752 0.950 . S
H726 C755 0.950 . S
H727 C756 0.950 . S
H728 C758 0.950 1_556 S
H729 C759 0.950 . S
C730 H712 0.951 . S
C730 C731 1.366 . S
C730 C732 1.390 . S
C731 C730 1.366 . S
C731 C735 1.385 . S
C732 H713 0.949 1_455 S
C732 C730 1.390 . S
C732 C733 1.366 . S
C733 C732 1.366 . S
C733 C734 1.416 . S
C733 C736 1.496 1_455 S
C734 H714 0.950 . S
C734 C733 1.416 . S
C734 C735 1.374 . S
C735 H715 0.950 1_554 S
C735 C731 1.385 . S
C735 C734 1.374 . S
C736 C733 1.496 1_655 S
C736 C737 1.373 . S
C736 C738 1.389 1_655 S
C737 H716 0.950 . S
C737 C736 1.373 . S
C737 C753 1.377 . S
C738 C736 1.389 1_455 S
C738 C739 1.524 . S
C738 C752 1.377 . S
C739 C738 1.524 . S
C739 C740 1.397 . S
C739 C744 1.363 . S
C740 H717 0.950 . S
C740 C739 1.397 . S
C740 C741 1.334 . S
C741 H718 0.950 . S
C741 C740 1.334 . S
C741 C742 1.287 . S
C742 C741 1.287 . S
C742 C743 1.524 . S
C742 H761 0.913 . S
C743 H719 0.950 . S
C743 C742 1.524 . S
C743 C744 1.415 . S
C744 H720 0.950 . S
C744 C739 1.363 . S
C744 C743 1.415 . S
C745 H721 0.951 . S
C745 C746 1.366 . S
C745 C747 1.388 . S
C746 C745 1.366 . S
C746 C750 1.385 . S
C747 H722 0.951 . S
C747 C745 1.388 . S
C747 C748 1.366 . S
C748 C747 1.366 . S
C748 C749 1.414 . S
C748 C751 1.499 . S
C749 H723 0.950 . S
C749 C748 1.414 . S
C749 C750 1.374 . S
C750 H724 0.950 . S
C750 C746 1.385 . S
C750 C749 1.374 . S
C751 C748 1.499 . S
C751 C752 1.373 1_655 S
C751 C753 1.389 . S
C752 H725 0.950 . S
C752 C738 1.377 . S
C752 C751 1.373 1_455 S
C753 C737 1.377 . S
C753 C751 1.389 . S
C753 C754 1.524 . S
C754 C753 1.524 . S
C754 C755 1.397 . S
C754 C759 1.363 . S
C755 H726 0.950 . S
C755 C754 1.397 . S
C755 C756 1.334 . S
C756 H727 0.950 . S
C756 C755 1.334 . S
C756 C757 1.287 . S
C757 C756 1.287 . S
C757 C758 1.524 . S
C757 H760 0.999 . S
C758 H728 0.950 1_554 S
C758 C757 1.524 . S
C758 C759 1.415 . S
C759 H729 0.950 . S
C759 C754 1.363 . S
C759 C758 1.415 . S
H760 C757 0.999 . S
H761 C742 0.913 . S
H762 C780 0.951 . S
H763 C782 0.951 . S
H764 C784 0.950 . S
H765 C785 0.950 . S
H766 C787 0.961 . S
H767 C790 0.950 . S
H768 C791 0.950 . S
H769 C793 0.950 . S
H770 C794 0.950 . S
H771 C795 0.951 1_545 S
H772 C797 0.951 1_545 S
H773 C799 0.950 . S
H774 C800 0.950 . S
H775 C802 0.950 . S
H776 C805 0.950 . S
H777 C806 0.950 . S
H778 C808 0.950 1_556 S
H779 C809 0.950 . S
C780 H762 0.951 . S
C780 C781 1.366 1_565 S
C780 C782 1.388 . S
C781 C780 1.366 1_545 S
C781 C785 1.385 . S
C782 H763 0.951 . S
C782 C780 1.388 . S
C782 C783 1.368 . S
C783 C782 1.368 . S
C783 C784 1.411 1_565 S
C783 C786 1.499 . S
C784 H764 0.950 . S
C784 C783 1.411 1_545 S
C784 C785 1.374 . S
C785 H765 0.950 . S
C785 C781 1.385 . S
C785 C784 1.374 . S
C786 C783 1.499 . S
C786 C787 1.373 . S
C786 C788 1.389 . S
C787 H766 0.961 . S
C787 C786 1.373 . S
C787 C803 1.377 . S
C788 C786 1.389 . S
C788 C789 1.524 . S
C788 C802 1.377 . S
C789 C788 1.524 . S
C789 C790 1.397 1_565 S
C789 C794 1.363 . S
C790 H767 0.950 . S
C790 C789 1.397 1_545 S
C790 C791 1.334 . S
C791 H768 0.950 . S
C791 C790 1.334 . S
C791 C792 1.287 . S
C792 C791 1.287 . S
C792 C793 1.524 1_545 S
C792 H811 0.913 . S
C793 H769 0.950 . S
C793 C792 1.524 1_565 S
C793 C794 1.415 . S
C794 H770 0.950 . S
C794 C789 1.363 . S
C794 C793 1.415 . S
C795 H771 0.951 1_565 S
C795 C796 1.366 . S
C795 C797 1.388 . S
C796 C795 1.366 . S
C796 C800 1.385 . S
C797 H772 0.951 1_565 S
C797 C795 1.388 . S
C797 C798 1.366 . S
C798 C797 1.366 . S
C798 C799 1.414 . S
C798 C801 1.499 . S
C799 H773 0.950 . S
C799 C798 1.414 . S
C799 C800 1.374 . S
C800 H774 0.950 . S
C800 C796 1.385 . S
C800 C799 1.374 . S
C801 C798 1.499 . S
C801 C802 1.373 . S
C801 C803 1.389 . S
C802 H775 0.950 . S
C802 C788 1.377 . S
C802 C801 1.373 . S
C803 C787 1.377 . S
C803 C801 1.389 . S
C803 C804 1.524 . S
C804 C803 1.524 . S
C804 C805 1.397 . S
C804 C809 1.363 1_565 S
C805 H776 0.950 . S
C805 C804 1.397 . S
C805 C806 1.334 . S
C806 H777 0.950 . S
C806 C805 1.334 . S
C806 C807 1.287 . S
C807 C806 1.287 . S
C807 C808 1.524 1_565 S
C807 H810 0.999 1_554 S
C808 H778 0.950 1_554 S
C808 C807 1.524 1_545 S
C808 C809 1.415 . S
C809 H779 0.950 . S
C809 C804 1.363 1_545 S
C809 C808 1.415 . S
H810 C807 0.999 1_556 S
H811 C792 0.913 . S
H812 C830 0.951 1_556 S
H813 C832 0.951 . S
H814 C834 0.950 . S
H815 C835 0.950 . S
H816 C837 0.950 . S
H817 C840 0.950 . S
H818 C841 0.950 . S
H819 C843 0.950 . S
H820 C844 0.950 . S
H821 C845 0.951 . S
H822 C847 0.951 . S
H823 C849 0.950 . S
H824 C850 0.950 . S
H825 C852 0.950 . S
H826 C855 0.950 . S
H827 C856 0.950 . S
H828 C858 0.950 . S
H829 C859 0.950 . S
C830 H812 0.951 1_554 S
C830 C831 1.366 . S
C830 C832 1.388 . S
C831 C830 1.366 . S
C831 C835 1.385 . S
C832 H813 0.951 . S
C832 C830 1.388 . S
C832 C833 1.366 . S
C833 C832 1.366 . S
C833 C834 1.414 . S
C833 C836 1.499 . S
C834 H814 0.950 . S
C834 C833 1.414 . S
C834 C835 1.374 . S
C835 H815 0.950 . S
C835 C831 1.385 . S
C835 C834 1.374 . S
C836 C833 1.499 . S
C836 C837 1.373 . S
C836 C838 1.389 . S
C837 H816 0.950 . S
C837 C836 1.373 . S
C837 C853 1.377 . S
C838 C836 1.389 . S
C838 C839 1.524 . S
C838 C852 1.377 . S
C839 C838 1.524 . S
C839 C840 1.397 . S
C839 C844 1.363 . S
C840 H817 0.950 . S
C840 C839 1.397 . S
C840 C841 1.334 . S
C841 H818 0.950 . S
C841 C840 1.334 . S
C841 C842 1.287 . S
C842 C841 1.287 . S
C842 C843 1.524 . S
C842 H861 0.913 . S
C843 H819 0.950 . S
C843 C842 1.524 . S
C843 C844 1.415 . S
C844 H820 0.950 . S
C844 C839 1.363 . S
C844 C843 1.415 . S
C845 H821 0.951 . S
C845 C846 1.366 . S
C845 C847 1.388 . S
C846 C845 1.366 . S
C846 C850 1.385 . S
C847 H822 0.951 . S
C847 C845 1.388 . S
C847 C848 1.366 . S
C848 C847 1.366 . S
C848 C849 1.414 . S
C848 C851 1.499 . S
C849 H823 0.950 . S
C849 C848 1.414 . S
C849 C850 1.374 . S
C850 H824 0.950 . S
C850 C846 1.385 . S
C850 C849 1.374 . S
C851 C848 1.499 . S
C851 C852 1.373 . S
C851 C853 1.389 . S
C852 H825 0.950 . S
C852 C838 1.377 . S
C852 C851 1.373 . S
C853 C837 1.377 . S
C853 C851 1.389 . S
C853 C854 1.524 . S
C854 C853 1.524 . S
C854 C855 1.397 . S
C854 C859 1.363 . S
C855 H826 0.950 . S
C855 C854 1.397 . S
C855 C856 1.334 . S
C856 H827 0.950 . S
C856 C855 1.334 . S
C856 C857 1.287 . S
C857 C856 1.287 . S
C857 C858 1.524 . S
C857 H860 0.999 . S
C858 H828 0.950 . S
C858 C857 1.524 . S
C858 C859 1.415 . S
C859 H829 0.950 . S
C859 C854 1.363 . S
C859 C858 1.415 . S
H860 C857 0.999 . S
H861 C842 0.913 . S
H862 C880 0.951 . S
H863 C882 0.951 . S
H864 C884 0.950 . S
H865 C885 0.950 . S
H866 C887 0.950 . S
H867 C890 0.950 . S
H868 C891 0.950 . S
H869 C893 0.950 . S
H870 C894 0.950 . S
H871 C895 0.951 . S
H872 C897 0.951 . S
H873 C899 0.950 . S
H874 C900 0.950 . S
H875 C902 0.950 . S
H876 C905 0.950 . S
H877 C906 0.950 . S
H878 C908 0.950 . S
H879 C909 0.950 . S
C880 H862 0.951 . S
C880 C881 1.366 . S
C880 C882 1.388 . S
C881 C880 1.366 . S
C881 C885 1.385 . S
C882 H863 0.951 . S
C882 C880 1.388 . S
C882 C883 1.366 . S
C883 C882 1.366 . S
C883 C884 1.414 . S
C883 C886 1.499 . S
C884 H864 0.950 . S
C884 C883 1.414 . S
C884 C885 1.374 . S
C885 H865 0.950 . S
C885 C881 1.385 . S
C885 C884 1.374 . S
C886 C883 1.499 . S
C886 C887 1.373 . S
C886 C888 1.389 . S
C887 H866 0.950 . S
C887 C886 1.373 . S
C887 C903 1.377 . S
C888 C886 1.389 . S
C888 C889 1.524 . S
C888 C902 1.377 . S
C889 C888 1.524 . S
C889 C890 1.397 . S
C889 C894 1.363 . S
C890 H867 0.950 . S
C890 C889 1.397 . S
C890 C891 1.334 1_554 S
C891 H868 0.950 . S
C891 C890 1.334 1_556 S
C891 C892 1.287 . S
C892 C891 1.287 . S
C892 C893 1.524 . S
C892 H911 0.913 . S
C893 H869 0.950 . S
C893 C892 1.524 . S
C893 C894 1.415 1_556 S
C894 H870 0.950 . S
C894 C889 1.363 . S
C894 C893 1.415 1_554 S
C895 H871 0.951 . S
C895 C896 1.366 . S
C895 C897 1.388 . S
C896 C895 1.366 . S
C896 C900 1.385 . S
C897 H872 0.951 . S
C897 C895 1.388 . S
C897 C898 1.366 . S
C898 C897 1.366 . S
C898 C899 1.414 . S
C898 C901 1.499 . S
C899 H873 0.950 . S
C899 C898 1.414 . S
C899 C900 1.374 . S
C900 H874 0.950 . S
C900 C896 1.385 . S
C900 C899 1.374 . S
C901 C898 1.499 . S
C901 C902 1.373 . S
C901 C903 1.389 . S
C902 H875 0.950 . S
C902 C888 1.377 . S
C902 C901 1.373 . S
C903 C887 1.377 . S
C903 C901 1.389 . S
C903 C904 1.524 . S
C904 C903 1.524 . S
C904 C905 1.397 . S
C904 C909 1.363 . S
C905 H876 0.950 . S
C905 C904 1.397 . S
C905 C906 1.334 . S
C906 H877 0.950 . S
C906 C905 1.334 . S
C906 C907 1.287 . S
C907 C906 1.287 . S
C907 C908 1.524 . S
C907 H910 0.999 . S
C908 H878 0.950 . S
C908 C907 1.524 . S
C908 C909 1.415 . S
C909 H879 0.950 . S
C909 C904 1.363 . S
C909 C908 1.415 . S
H910 C907 0.999 . S
H911 C892 0.913 . S
H912 C930 0.951 . S
H913 C932 0.960 . S
H914 C934 0.950 . S
H915 C935 0.950 . S
H916 C937 0.950 . S
H917 C940 0.950 . S
H918 C941 0.950 . S
H919 C943 0.950 . S
H920 C944 0.950 . S
H921 C945 0.951 . S
H922 C947 0.951 . S
H923 C949 0.950 . S
H924 C950 0.950 . S
H925 C952 0.950 . S
H926 C955 0.950 . S
H927 C956 0.950 . S
H928 C958 0.950 . S
H929 C959 0.950 . S
C930 H912 0.951 . S
C930 C931 1.366 . S
C930 C932 1.398 . S
C931 C930 1.366 . S
C931 C935 1.385 1_655 S
C932 H913 0.960 . S
C932 C930 1.398 . S
C932 C933 1.351 1_655 S
C933 C932 1.351 1_455 S
C933 C934 1.414 . S
C933 C936 1.499 . S
C934 H914 0.950 . S
C934 C933 1.414 . S
C934 C935 1.374 . S
C935 H915 0.950 . S
C935 C931 1.385 1_455 S
C935 C934 1.374 . S
C936 C933 1.499 . S
C936 C937 1.373 . S
C936 C938 1.389 1_455 S
C937 H916 0.950 . S
C937 C936 1.373 . S
C937 C953 1.377 . S
C938 C936 1.389 1_655 S
C938 C939 1.524 . S
C938 C952 1.377 . S
C939 C938 1.524 . S
C939 C940 1.397 . S
C939 C944 1.363 . S
C940 H917 0.950 . S
C940 C939 1.397 . S
C940 C941 1.334 . S
C941 H918 0.950 . S
C941 C940 1.334 . S
C941 C942 1.287 . S
C942 C941 1.287 . S
C942 C943 1.524 . S
C942 H961 0.913 . S
C943 H919 0.950 . S
C943 C942 1.524 . S
C943 C944 1.415 . S
C944 H920 0.950 . S
C944 C939 1.363 . S
C944 C943 1.415 . S
C945 H921 0.951 . S
C945 C946 1.366 . S
C945 C947 1.388 . S
C946 C945 1.366 . S
C946 C950 1.385 1_556 S
C947 H922 0.951 . S
C947 C945 1.388 . S
C947 C948 1.366 1_556 S
C948 C947 1.366 1_554 S
C948 C949 1.414 . S
C948 C951 1.499 . S
C949 H923 0.950 . S
C949 C948 1.414 . S
C949 C950 1.374 . S
C950 H924 0.950 . S
C950 C946 1.385 1_554 S
C950 C949 1.374 . S
C951 C948 1.499 . S
C951 C952 1.373 1_455 S
C951 C953 1.389 . S
C952 H925 0.950 . S
C952 C938 1.377 . S
C952 C951 1.373 1_655 S
C953 C937 1.377 . S
C953 C951 1.389 . S
C953 C954 1.524 . S
C954 C953 1.524 . S
C954 C955 1.397 . S
C954 C959 1.363 1_554 S
C955 H926 0.950 . S
C955 C954 1.397 . S
C955 C956 1.334 . S
C956 H927 0.950 . S
C956 C955 1.334 . S
C956 C957 1.287 1_554 S
C957 C956 1.287 1_556 S
C957 C958 1.524 . S
C957 H960 0.999 . S
C958 H928 0.950 . S
C958 C957 1.524 . S
C958 C959 1.415 . S
C959 H929 0.950 . S
C959 C954 1.363 1_556 S
C959 C958 1.415 . S
H960 C957 0.999 . S
H961 C942 0.913 . S
H962 C980 0.951 . S
H963 C982 0.951 . S
H964 C984 0.950 . S
H965 C985 0.950 . S
H966 C987 0.950 . S
H967 C990 0.950 . S
H968 C991 0.950 . S
H969 C993 0.950 . S
H970 C994 0.950 . S
H971 C995 0.951 . S
H972 C997 0.951 . S
H973 C999 0.950 . S
H974 C1000 0.950 . S
H975 C1002 0.950 . S
H976 C1005 0.950 . S
H977 C1006 0.950 1_556 S
H978 C1008 0.950 . S
H979 C1009 0.950 . S
C980 H962 0.951 . S
C980 C981 1.366 1_545 S
C980 C982 1.388 . S
C981 C980 1.366 1_565 S
C981 C985 1.385 . S
C982 H963 0.951 . S
C982 C980 1.388 . S
C982 C983 1.366 . S
C983 C982 1.366 . S
C983 C984 1.414 1_545 S
C983 C986 1.499 . S
C984 H964 0.950 . S
C984 C983 1.414 1_565 S
C984 C985 1.374 . S
C985 H965 0.950 . S
C985 C981 1.385 . S
C985 C984 1.374 . S
C986 C983 1.499 . S
C986 C987 1.373 1_545 S
C986 C988 1.389 . S
C987 H966 0.950 . S
C987 C986 1.373 1_565 S
C987 C1003 1.377 . S
C988 C986 1.389 . S
C988 C989 1.524 . S
C988 C1002 1.377 . S
C989 C988 1.524 . S
C989 C990 1.397 . S
C989 C994 1.363 . S
C990 H967 0.950 . S
C990 C989 1.397 . S
C990 C991 1.334 . S
C991 H968 0.950 . S
C991 C990 1.334 . S
C991 C992 1.287 . S
C992 C991 1.287 . S
C992 C993 1.524 . S
C992 H1011 0.913 . S
C993 H969 0.950 . S
C993 C992 1.524 . S
C993 C994 1.415 . S
C994 H970 0.950 . S
C994 C989 1.363 . S
C994 C993 1.415 . S
C995 H971 0.951 . S
C995 C996 1.366 1_554 S
C995 C997 1.388 . S
C996 C995 1.366 1_556 S
C996 C1000 1.385 . S
C997 H972 0.951 . S
C997 C995 1.388 . S
C997 C998 1.366 . S
C998 C997 1.366 . S
C998 C999 1.414 1_554 S
C998 C1001 1.499 . S
C999 H973 0.950 . S
C999 C998 1.414 1_556 S
C999 C1000 1.374 . S
C1000 H974 0.950 . S
C1000 C996 1.385 . S
C1000 C999 1.374 . S
C1001 C998 1.499 . S
C1001 C1002 1.373 . S
C1001 C1003 1.389 1_545 S
C1002 H975 0.950 . S
C1002 C988 1.377 . S
C1002 C1001 1.373 . S
C1003 C987 1.377 . S
C1003 C1001 1.389 1_565 S
C1003 C1004 1.524 . S
C1004 C1003 1.524 . S
C1004 C1005 1.397 . S
C1004 C1009 1.363 . S
C1005 H976 0.950 . S
C1005 C1004 1.397 . S
C1005 C1006 1.334 . S
C1006 H977 0.950 1_554 S
C1006 C1005 1.334 . S
C1006 C1007 1.287 . S
C1007 C1006 1.287 . S
C1007 C1008 1.524 . S
C1007 H1010 0.999 . S
C1008 H978 0.950 . S
C1008 C1007 1.524 . S
C1008 C1009 1.415 . S
C1009 H979 0.950 . S
C1009 C1004 1.363 . S
C1009 C1008 1.415 . S
H1010 C1007 0.999 . S
H1011 C992 0.913 . S
H1012 C1030 0.951 . S
H1013 C1032 0.951 . S
H1014 C1034 0.950 . S
H1015 C1035 0.950 . S
H1016 C1037 0.950 . S
H1017 C1040 0.950 . S
H1018 C1041 0.950 . S
H1019 C1043 0.950 . S
H1020 C1044 0.950 . S
H1021 C1045 0.951 . S
H1022 C1047 0.951 . S
H1023 C1049 0.950 . S
H1024 C1050 0.950 . S
H1025 C1052 0.950 . S
H1026 C1055 0.950 1_554 S
H1027 C1056 0.950 . S
H1028 C1058 0.950 . S
H1029 C1059 0.950 . S
C1030 H1012 0.951 . S
C1030 C1031 1.366 . S
C1030 C1032 1.388 . S
C1031 C1030 1.366 . S
C1031 C1035 1.385 . S
C1032 H1013 0.951 . S
C1032 C1030 1.388 . S
C1032 C1033 1.366 . S
C1033 C1032 1.366 . S
C1033 C1034 1.414 . S
C1033 C1036 1.499 . S
C1034 H1014 0.950 . S
C1034 C1033 1.414 . S
C1034 C1035 1.374 . S
C1035 H1015 0.950 . S
C1035 C1031 1.385 . S
C1035 C1034 1.374 . S
C1036 C1033 1.499 . S
C1036 C1037 1.373 . S
C1036 C1038 1.389 . S
C1037 H1016 0.950 . S
C1037 C1036 1.373 . S
C1037 C1053 1.377 . S
C1038 C1036 1.389 . S
C1038 C1039 1.524 . S
C1038 C1052 1.377 . S
C1039 C1038 1.524 . S
C1039 C1040 1.397 . S
C1039 C1044 1.363 . S
C1040 H1017 0.950 . S
C1040 C1039 1.397 . S
C1040 C1041 1.334 . S
C1041 H1018 0.950 . S
C1041 C1040 1.334 . S
C1041 C1042 1.287 . S
C1042 C1041 1.287 . S
C1042 C1043 1.524 . S
C1042 H1061 0.913 . S
C1043 H1019 0.950 . S
C1043 C1042 1.524 . S
C1043 C1044 1.415 . S
C1044 H1020 0.950 . S
C1044 C1039 1.363 . S
C1044 C1043 1.415 . S
C1045 H1021 0.951 . S
C1045 C1046 1.366 . S
C1045 C1047 1.388 . S
C1046 C1045 1.366 . S
C1046 C1050 1.385 1_556 S
C1047 H1022 0.951 . S
C1047 C1045 1.388 . S
C1047 C1048 1.366 1_556 S
C1048 C1047 1.366 1_554 S
C1048 C1049 1.414 . S
C1048 C1051 1.499 . S
C1049 H1023 0.950 . S
C1049 C1048 1.414 . S
C1049 C1050 1.374 . S
C1050 H1024 0.950 . S
C1050 C1046 1.385 1_554 S
C1050 C1049 1.374 . S
C1051 C1048 1.499 . S
C1051 C1052 1.373 . S
C1051 C1053 1.389 . S
C1052 H1025 0.950 . S
C1052 C1038 1.377 . S
C1052 C1051 1.373 . S
C1053 C1037 1.377 . S
C1053 C1051 1.389 . S
C1053 C1054 1.524 1_554 S
C1054 C1053 1.524 1_556 S
C1054 C1055 1.397 . S
C1054 C1059 1.363 . S
C1055 H1026 0.950 1_556 S
C1055 C1054 1.397 . S
C1055 C1056 1.334 . S
C1056 H1027 0.950 . S
C1056 C1055 1.334 . S
C1056 C1057 1.287 . S
C1057 C1056 1.287 . S
C1057 C1058 1.524 . S
C1057 H1060 0.999 . S
C1058 H1028 0.950 . S
C1058 C1057 1.524 . S
C1058 C1059 1.415 . S
C1059 H1029 0.950 . S
C1059 C1054 1.363 . S
C1059 C1058 1.415 . S
H1060 C1057 0.999 . S
H1061 C1042 0.913 . S
H1062 C1080 0.951 . S
H1063 C1082 0.951 . S
H1064 C1084 0.950 . S
H1065 C1085 0.950 . S
H1066 C1087 0.950 . S
H1067 C1090 0.950 . S
H1068 C1091 0.950 . S
H1069 C1093 0.950 . S
H1070 C1094 0.950 . S
H1071 C1095 0.951 . S
H1072 C1097 0.951 . S
H1073 C1099 0.950 . S
H1074 C1100 0.950 . S
H1075 C1102 0.950 . S
H1076 C1105 0.950 . S
H1077 C1106 0.950 . S
H1078 C1108 0.950 . S
H1079 C1109 0.950 . S
C1080 H1062 0.951 . S
C1080 C1081 1.366 . S
C1080 C1082 1.388 . S
C1081 C1080 1.366 . S
C1081 C1085 1.385 . S
C1082 H1063 0.951 . S
C1082 C1080 1.388 . S
C1082 C1083 1.366 . S
C1083 C1082 1.366 . S
C1083 C1084 1.414 . S
C1083 C1086 1.499 . S
C1084 H1064 0.950 . S
C1084 C1083 1.414 . S
C1084 C1085 1.374 . S
C1085 H1065 0.950 . S
C1085 C1081 1.385 . S
C1085 C1084 1.374 . S
C1086 C1083 1.499 . S
C1086 C1087 1.373 . S
C1086 C1088 1.389 . S
C1087 H1066 0.950 . S
C1087 C1086 1.373 . S
C1087 C1103 1.377 . S
C1088 C1086 1.389 . S
C1088 C1089 1.524 . S
C1088 C1102 1.377 . S
C1089 C1088 1.524 . S
C1089 C1090 1.397 . S
C1089 C1094 1.363 . S
C1090 H1067 0.950 . S
C1090 C1089 1.397 . S
C1090 C1091 1.334 . S
C1091 H1068 0.950 . S
C1091 C1090 1.334 . S
C1091 C1092 1.287 . S
C1092 C1091 1.287 . S
C1092 C1093 1.524 . S
C1092 H1111 0.913 . S
C1093 H1069 0.950 . S
C1093 C1092 1.524 . S
C1093 C1094 1.415 . S
C1094 H1070 0.950 . S
C1094 C1089 1.363 . S
C1094 C1093 1.415 . S
C1095 H1071 0.951 . S
C1095 C1096 1.366 . S
C1095 C1097 1.388 . S
C1096 C1095 1.366 . S
C1096 C1100 1.385 1_556 S
C1097 H1072 0.951 . S
C1097 C1095 1.388 . S
C1097 C1098 1.366 1_556 S
C1098 C1097 1.366 1_554 S
C1098 C1099 1.414 . S
C1098 C1101 1.499 . S
C1099 H1073 0.950 . S
C1099 C1098 1.414 . S
C1099 C1100 1.374 . S
C1100 H1074 0.950 . S
C1100 C1096 1.385 1_554 S
C1100 C1099 1.374 . S
C1101 C1098 1.499 . S
C1101 C1102 1.373 . S
C1101 C1103 1.389 . S
C1102 H1075 0.950 . S
C1102 C1088 1.377 . S
C1102 C1101 1.373 . S
C1103 C1087 1.377 . S
C1103 C1101 1.389 . S
C1103 C1104 1.524 . S
C1104 C1103 1.524 . S
C1104 C1105 1.397 . S
C1104 C1109 1.363 . S
C1105 H1076 0.950 . S
C1105 C1104 1.397 . S
C1105 C1106 1.334 . S
C1106 H1077 0.950 . S
C1106 C1105 1.334 . S
C1106 C1107 1.287 . S
C1107 C1106 1.287 . S
C1107 C1108 1.524 . S
C1107 H1110 0.999 . S
C1108 H1078 0.950 . S
C1108 C1107 1.524 . S
C1108 C1109 1.415 . S
C1109 H1079 0.950 . S
C1109 C1104 1.363 . S
C1109 C1108 1.415 . S
H1110 C1107 0.999 . S
H1111 C1092 0.913 . S
H1112 C1130 0.951 . S
H1113 C1132 0.951 . S
H1114 C1134 0.950 . S
H1115 C1135 0.950 . S
H1116 C1137 0.950 . S
H1117 C1140 0.950 . S
H1118 C1141 0.950 . S
H1119 C1143 0.950 . S
H1120 C1144 0.950 . S
H1121 C1145 0.951 . S
H1122 C1147 0.951 . S
H1123 C1149 0.950 . S
H1124 C1150 0.950 . S
H1125 C1152 0.950 . S
H1126 C1155 0.950 . S
H1127 C1156 0.950 1_554 S
H1128 C1158 0.950 . S
H1129 C1159 0.950 . S
C1130 H1112 0.951 . S
C1130 C1131 1.366 . S
C1130 C1132 1.388 . S
C1131 C1130 1.366 . S
C1131 C1135 1.385 1_455 S
C1132 H1113 0.951 . S
C1132 C1130 1.388 . S
C1132 C1133 1.366 . S
C1133 C1132 1.366 . S
C1133 C1134 1.414 1_455 S
C1133 C1136 1.499 . S
C1134 H1114 0.950 . S
C1134 C1133 1.414 1_655 S
C1134 C1135 1.374 . S
C1135 H1115 0.950 . S
C1135 C1131 1.385 1_655 S
C1135 C1134 1.374 . S
C1136 C1133 1.499 . S
C1136 C1137 1.373 1_455 S
C1136 C1138 1.389 . S
C1137 H1116 0.950 . S
C1137 C1136 1.373 1_655 S
C1137 C1153 1.377 . S
C1138 C1136 1.389 . S
C1138 C1139 1.524 . S
C1138 C1152 1.377 . S
C1139 C1138 1.524 . S
C1139 C1140 1.397 . S
C1139 C1144 1.363 . S
C1140 H1117 0.950 . S
C1140 C1139 1.397 . S
C1140 C1141 1.334 . S
C1141 H1118 0.950 . S
C1141 C1140 1.334 . S
C1141 C1142 1.287 . S
C1142 C1141 1.287 . S
C1142 C1143 1.524 . S
C1142 H1161 0.913 . S
C1143 H1119 0.950 . S
C1143 C1142 1.524 . S
C1143 C1144 1.415 . S
C1144 H1120 0.950 . S
C1144 C1139 1.363 . S
C1144 C1143 1.415 . S
C1145 H1121 0.951 . S
C1145 C1146 1.366 1_655 S
C1145 C1147 1.388 . S
C1146 C1145 1.366 1_455 S
C1146 C1150 1.385 . S
C1147 H1122 0.951 . S
C1147 C1145 1.388 . S
C1147 C1148 1.366 1_655 S
C1148 C1147 1.366 1_455 S
C1148 C1149 1.414 . S
C1148 C1151 1.499 . S
C1149 H1123 0.950 . S
C1149 C1148 1.414 . S
C1149 C1150 1.374 . S
C1150 H1124 0.950 . S
C1150 C1146 1.385 . S
C1150 C1149 1.374 . S
C1151 C1148 1.499 . S
C1151 C1152 1.373 . S
C1151 C1153 1.389 1_455 S
C1152 H1125 0.950 . S
C1152 C1138 1.377 . S
C1152 C1151 1.373 . S
C1153 C1137 1.377 . S
C1153 C1151 1.389 1_655 S
C1153 C1154 1.524 . S
C1154 C1153 1.524 . S
C1154 C1155 1.397 . S
C1154 C1159 1.363 . S
C1155 H1126 0.950 . S
C1155 C1154 1.397 . S
C1155 C1156 1.334 . S
C1156 H1127 0.950 1_556 S
C1156 C1155 1.334 . S
C1156 C1157 1.287 . S
C1157 C1156 1.287 . S
C1157 C1158 1.524 . S
C1157 H1160 0.999 1_556 S
C1158 H1128 0.950 . S
C1158 C1157 1.524 . S
C1158 C1159 1.415 . S
C1159 H1129 0.950 . S
C1159 C1154 1.363 . S
C1159 C1158 1.415 . S
H1160 C1157 0.999 1_554 S
H1161 C1142 0.913 . S
H1162 C1180 0.951 . S
H1163 C1182 0.951 . S
H1164 C1184 0.950 . S
H1165 C1185 0.950 . S
H1166 C1187 0.950 . S
H1167 C1190 0.950 . S
H1168 C1191 0.950 . S
H1169 C1193 0.950 . S
H1170 C1194 0.950 1_565 S
H1171 C1195 0.951 . S
H1172 C1197 0.951 . S
H1173 C1199 0.950 . S
H1174 C1200 0.950 . S
H1175 C1202 0.950 . S
H1176 C1205 0.950 . S
H1177 C1206 0.950 . S
H1178 C1208 0.950 . S
H1179 C1209 0.950 . S
C1180 H1162 0.951 . S
C1180 C1181 1.366 1_565 S
C1180 C1182 1.388 . S
C1181 C1180 1.366 1_545 S
C1181 C1185 1.385 . S
C1182 H1163 0.951 . S
C1182 C1180 1.388 . S
C1182 C1183 1.366 1_565 S
C1183 C1182 1.366 1_545 S
C1183 C1184 1.414 . S
C1183 C1186 1.499 . S
C1184 H1164 0.950 . S
C1184 C1183 1.414 . S
C1184 C1185 1.374 . S
C1185 H1165 0.950 . S
C1185 C1181 1.385 . S
C1185 C1184 1.374 . S
C1186 C1183 1.499 . S
C1186 C1187 1.373 . S
C1186 C1188 1.389 . S
C1187 H1166 0.950 . S
C1187 C1186 1.373 . S
C1187 C1203 1.377 . S
C1188 C1186 1.389 . S
C1188 C1189 1.524 . S
C1188 C1202 1.377 . S
C1189 C1188 1.524 . S
C1189 C1190 1.397 . S
C1189 C1194 1.363 1_556 S
C1190 H1167 0.950 . S
C1190 C1189 1.397 . S
C1190 C1191 1.334 1_556 S
C1191 H1168 0.950 . S
C1191 C1190 1.334 1_554 S
C1191 C1192 1.287 . S
C1192 C1191 1.287 . S
C1192 C1193 1.524 . S
C1192 H1211 0.913 . S
C1193 H1169 0.950 . S
C1193 C1192 1.524 . S
C1193 C1194 1.415 . S
C1194 H1170 0.950 1_545 S
C1194 C1189 1.363 1_554 S
C1194 C1193 1.415 . S
C1195 H1171 0.951 . S
C1195 C1196 1.366 . S
C1195 C1197 1.388 . S
C1196 C1195 1.366 . S
C1196 C1200 1.385 1_545 S
C1197 H1172 0.951 . S
C1197 C1195 1.388 . S
C1197 C1198 1.366 . S
C1198 C1197 1.366 . S
C1198 C1199 1.414 1_545 S
C1198 C1201 1.499 . S
C1199 H1173 0.950 . S
C1199 C1198 1.414 1_565 S
C1199 C1200 1.374 . S
C1200 H1174 0.950 . S
C1200 C1196 1.385 1_565 S
C1200 C1199 1.374 . S
C1201 C1198 1.499 . S
C1201 C1202 1.373 . S
C1201 C1203 1.389 . S
C1202 H1175 0.950 . S
C1202 C1188 1.377 . S
C1202 C1201 1.373 . S
C1203 C1187 1.377 . S
C1203 C1201 1.389 . S
C1203 C1204 1.524 . S
C1204 C1203 1.524 . S
C1204 C1205 1.398 1_545 S
C1204 C1209 1.362 . S
C1205 H1176 0.950 . S
C1205 C1204 1.398 1_565 S
C1205 C1206 1.334 . S
C1206 H1177 0.950 . S
C1206 C1205 1.334 . S
C1206 C1207 1.287 . S
C1207 C1206 1.287 . S
C1207 C1208 1.524 1_565 S
C1207 H1210 0.999 . S
C1208 H1178 0.950 . S
C1208 C1207 1.524 1_545 S
C1208 C1209 1.415 . S
C1209 H1179 0.950 . S
C1209 C1204 1.362 . S
C1209 C1208 1.415 . S
H1210 C1207 0.999 . S
H1211 C1192 0.913 . S
H1212 C1230 0.951 . S
H1213 C1232 0.951 . S
H1214 C1234 0.950 . S
H1215 C1235 0.950 . S
H1216 C1237 0.950 . S
H1217 C1240 0.950 . S
H1218 C1241 0.950 . S
H1219 C1243 0.950 . S
H1220 C1244 0.950 . S
H1221 C1245 0.951 . S
H1222 C1247 0.951 . S
H1223 C1249 0.950 . S
H1224 C1250 0.950 . S
H1225 C1252 0.950 . S
H1226 C1255 0.950 . S
H1227 C1256 0.950 . S
H1228 C1258 0.950 . S
H1229 C1259 0.950 . S
C1230 H1212 0.951 . S
C1230 C1231 1.366 . S
C1230 C1232 1.388 . S
C1231 C1230 1.366 . S
C1231 C1235 1.385 . S
C1232 H1213 0.951 . S
C1232 C1230 1.388 . S
C1232 C1233 1.366 . S
C1233 C1232 1.366 . S
C1233 C1234 1.414 . S
C1233 C1236 1.499 . S
C1234 H1214 0.950 . S
C1234 C1233 1.414 . S
C1234 C1235 1.374 . S
C1235 H1215 0.950 . S
C1235 C1231 1.385 . S
C1235 C1234 1.374 . S
C1236 C1233 1.499 . S
C1236 C1237 1.373 . S
C1236 C1238 1.389 . S
C1237 H1216 0.950 . S
C1237 C1236 1.373 . S
C1237 C1253 1.377 . S
C1238 C1236 1.389 . S
C1238 C1239 1.524 . S
C1238 C1252 1.377 . S
C1239 C1238 1.524 . S
C1239 C1240 1.397 . S
C1239 C1244 1.363 . S
C1240 H1217 0.950 . S
C1240 C1239 1.397 . S
C1240 C1241 1.334 1_556 S
C1241 H1218 0.950 . S
C1241 C1240 1.334 1_554 S
C1241 C1242 1.287 . S
C1242 C1241 1.287 . S
C1242 C1243 1.524 1_554 S
C1242 H1261 0.913 . S
C1243 H1219 0.950 . S
C1243 C1242 1.524 1_556 S
C1243 C1244 1.415 . S
C1244 H1220 0.950 . S
C1244 C1239 1.363 . S
C1244 C1243 1.415 . S
C1245 H1221 0.951 . S
C1245 C1246 1.366 . S
C1245 C1247 1.388 . S
C1246 C1245 1.366 . S
C1246 C1250 1.385 . S
C1247 H1222 0.951 . S
C1247 C1245 1.388 . S
C1247 C1248 1.366 . S
C1248 C1247 1.366 . S
C1248 C1249 1.414 . S
C1248 C1251 1.499 . S
C1249 H1223 0.950 . S
C1249 C1248 1.414 . S
C1249 C1250 1.374 . S
C1250 H1224 0.950 . S
C1250 C1246 1.385 . S
C1250 C1249 1.374 . S
C1251 C1248 1.499 . S
C1251 C1252 1.373 . S
C1251 C1253 1.389 . S
C1252 H1225 0.950 . S
C1252 C1238 1.377 . S
C1252 C1251 1.373 . S
C1253 C1237 1.377 . S
C1253 C1251 1.389 . S
C1253 C1254 1.524 . S
C1254 C1253 1.524 . S
C1254 C1255 1.397 . S
C1254 C1259 1.363 . S
C1255 H1226 0.950 . S
C1255 C1254 1.397 . S
C1255 C1256 1.334 . S
C1256 H1227 0.950 . S
C1256 C1255 1.334 . S
C1256 C1257 1.287 . S
C1257 C1256 1.287 . S
C1257 C1258 1.524 . S
C1257 H1260 0.999 . S
C1258 H1228 0.950 . S
C1258 C1257 1.524 . S
C1258 C1259 1.415 . S
C1259 H1229 0.950 . S
C1259 C1254 1.363 . S
C1259 C1258 1.415 . S
H1260 C1257 0.999 . S
H1261 C1242 0.913 . S
H1262 C1280 0.951 . S
H1263 C1282 0.951 . S
H1264 C1284 0.950 . S
H1265 C1285 0.950 . S
H1266 C1287 0.950 . S
H1267 C1290 0.950 . S
H1268 C1291 0.950 . S
H1269 C1293 0.950 . S
H1270 C1294 0.950 . S
H1271 C1295 0.951 . S
H1272 C1297 0.951 . S
H1273 C1299 0.950 . S
H1274 C1300 0.950 . S
H1275 C1302 0.950 . S
H1276 C1305 0.950 . S
H1277 C1306 0.950 . S
H1278 C1308 0.950 . S
H1279 C1309 0.950 . S
C1280 H1262 0.951 . S
C1280 C1281 1.366 . S
C1280 C1282 1.388 . S
C1281 C1280 1.366 . S
C1281 C1285 1.385 . S
C1282 H1263 0.951 . S
C1282 C1280 1.388 . S
C1282 C1283 1.366 . S
C1283 C1282 1.366 . S
C1283 C1284 1.414 . S
C1283 C1286 1.499 . S
C1284 H1264 0.950 . S
C1284 C1283 1.414 . S
C1284 C1285 1.374 . S
C1285 H1265 0.950 . S
C1285 C1281 1.385 . S
C1285 C1284 1.374 . S
C1286 C1283 1.499 . S
C1286 C1287 1.373 . S
C1286 C1288 1.389 . S
C1287 H1266 0.950 . S
C1287 C1286 1.373 . S
C1287 C1303 1.377 . S
C1288 C1286 1.389 . S
C1288 C1289 1.524 . S
C1288 C1302 1.377 . S
C1289 C1288 1.524 . S
C1289 C1290 1.397 . S
C1289 C1294 1.363 . S
C1290 H1267 0.950 . S
C1290 C1289 1.397 . S
C1290 C1291 1.334 . S
C1291 H1268 0.950 . S
C1291 C1290 1.334 . S
C1291 C1292 1.287 . S
C1292 C1291 1.287 . S
C1292 C1293 1.524 . S
C1292 H1311 0.913 . S
C1293 H1269 0.950 . S
C1293 C1292 1.524 . S
C1293 C1294 1.415 . S
C1294 H1270 0.950 . S
C1294 C1289 1.363 . S
C1294 C1293 1.415 . S
C1295 H1271 0.951 . S
C1295 C1296 1.366 . S
C1295 C1297 1.388 . S
C1296 C1295 1.366 . S
C1296 C1300 1.385 . S
C1297 H1272 0.951 . S
C1297 C1295 1.388 . S
C1297 C1298 1.366 . S
C1298 C1297 1.366 . S
C1298 C1299 1.414 . S
C1298 C1301 1.499 . S
C1299 H1273 0.950 . S
C1299 C1298 1.414 . S
C1299 C1300 1.374 . S
C1300 H1274 0.950 . S
C1300 C1296 1.385 . S
C1300 C1299 1.374 . S
C1301 C1298 1.499 . S
C1301 C1302 1.373 . S
C1301 C1303 1.389 . S
C1302 H1275 0.950 . S
C1302 C1288 1.377 . S
C1302 C1301 1.373 . S
C1303 C1287 1.377 . S
C1303 C1301 1.389 . S
C1303 C1304 1.524 . S
C1304 C1303 1.524 . S
C1304 C1305 1.397 . S
C1304 C1309 1.363 1_556 S
C1305 H1276 0.950 . S
C1305 C1304 1.397 . S
C1305 C1306 1.334 . S
C1306 H1277 0.950 . S
C1306 C1305 1.334 . S
C1306 C1307 1.287 1_556 S
C1307 C1306 1.287 1_554 S
C1307 C1308 1.524 . S
C1307 H1310 0.999 . S
C1308 H1278 0.950 . S
C1308 C1307 1.524 . S
C1308 C1309 1.415 . S
C1309 H1279 0.950 . S
C1309 C1304 1.363 1_554 S
C1309 C1308 1.415 . S
H1310 C1307 0.999 . S
H1311 C1292 0.913 . S
H1312 C1330 0.951 . S
H1313 C1332 0.951 . S
H1314 C1334 0.950 . S
H1315 C1335 0.950 . S
H1316 C1337 0.950 . S
H1317 C1340 0.950 . S
H1318 C1341 0.950 . S
H1319 C1343 0.950 . S
H1320 C1344 0.950 . S
H1321 C1345 0.951 . S
H1322 C1347 0.951 . S
H1323 C1349 0.950 . S
H1324 C1350 0.950 . S
H1325 C1352 0.950 . S
H1326 C1355 0.950 . S
H1327 C1356 0.950 . S
H1328 C1358 0.950 . S
H1329 C1359 0.950 . S
C1330 H1312 0.951 . S
C1330 C1331 1.366 1_455 S
C1330 C1332 1.388 . S
C1331 C1330 1.366 1_655 S
C1331 C1335 1.385 . S
C1332 H1313 0.951 . S
C1332 C1330 1.388 . S
C1332 C1333 1.366 1_455 S
C1333 C1332 1.366 1_655 S
C1333 C1334 1.414 . S
C1333 C1336 1.499 . S
C1334 H1314 0.950 . S
C1334 C1333 1.414 . S
C1334 C1335 1.374 . S
C1335 H1315 0.950 . S
C1335 C1331 1.385 . S
C1335 C1334 1.374 . S
C1336 C1333 1.499 . S
C1336 C1337 1.373 . S
C1336 C1338 1.389 1_655 S
C1337 H1316 0.950 . S
C1337 C1336 1.373 . S
C1337 C1353 1.377 . S
C1338 C1336 1.389 1_455 S
C1338 C1339 1.524 . S
C1338 C1352 1.377 . S
C1339 C1338 1.524 . S
C1339 C1340 1.397 . S
C1339 C1344 1.363 . S
C1340 H1317 0.950 . S
C1340 C1339 1.397 . S
C1340 C1341 1.334 . S
C1341 H1318 0.950 . S
C1341 C1340 1.334 . S
C1341 C1342 1.287 . S
C1342 C1341 1.287 . S
C1342 C1343 1.524 . S
C1342 H1361 0.913 . S
C1343 H1319 0.950 . S
C1343 C1342 1.524 . S
C1343 C1344 1.415 . S
C1344 H1320 0.950 . S
C1344 C1339 1.363 . S
C1344 C1343 1.415 . S
C1345 H1321 0.951 . S
C1345 C1346 1.366 . S
C1345 C1347 1.388 . S
C1346 C1345 1.366 . S
C1346 C1350 1.385 1_655 S
C1347 H1322 0.951 . S
C1347 C1345 1.388 . S
C1347 C1348 1.366 . S
C1348 C1347 1.366 . S
C1348 C1349 1.414 1_655 S
C1348 C1351 1.499 . S
C1349 H1323 0.950 . S
C1349 C1348 1.414 1_455 S
C1349 C1350 1.374 . S
C1350 H1324 0.950 . S
C1350 C1346 1.385 1_455 S
C1350 C1349 1.374 . S
C1351 C1348 1.499 . S
C1351 C1352 1.373 1_655 S
C1351 C1353 1.389 . S
C1352 H1325 0.950 . S
C1352 C1338 1.377 . S
C1352 C1351 1.373 1_455 S
C1353 C1337 1.377 . S
C1353 C1351 1.389 . S
C1353 C1354 1.524 . S
C1354 C1353 1.524 . S
C1354 C1355 1.397 . S
C1354 C1359 1.363 . S
C1355 H1326 0.950 . S
C1355 C1354 1.397 . S
C1355 C1356 1.334 . S
C1356 H1327 0.950 . S
C1356 C1355 1.334 . S
C1356 C1357 1.287 . S
C1357 C1356 1.287 . S
C1357 C1358 1.524 . S
C1357 H1360 0.999 . S
C1358 H1328 0.950 . S
C1358 C1357 1.524 . S
C1358 C1359 1.415 . S
C1359 H1329 0.950 . S
C1359 C1354 1.363 . S
C1359 C1358 1.415 . S
H1360 C1357 0.999 . S
H1361 C1342 0.913 . S
H1362 C1380 0.951 . S
H1363 C1382 0.951 . S
H1364 C1384 0.950 . S
H1365 C1385 0.949 1_545 S
H1366 C1387 0.950 . S
H1367 C1390 0.950 . S
H1368 C1391 0.950 . S
H1369 C1393 0.950 . S
H1370 C1394 0.950 . S
H1371 C1395 0.951 . S
H1372 C1397 0.951 . S
H1373 C1399 0.950 . S
H1374 C1400 0.950 . S
H1375 C1402 0.950 . S
H1376 C1405 0.950 . S
H1377 C1406 0.950 . S
H1378 C1408 0.950 . S
H1379 C1409 0.950 . S
C1380 H1362 0.951 . S
C1380 C1381 1.366 . S
C1380 C1382 1.388 . S
C1381 C1380 1.366 . S
C1381 C1385 1.386 . S
C1382 H1363 0.951 . S
C1382 C1380 1.388 . S
C1382 C1383 1.366 . S
C1383 C1382 1.366 . S
C1383 C1384 1.416 . S
C1383 C1386 1.499 . S
C1384 H1364 0.950 . S
C1384 C1383 1.416 . S
C1384 C1385 1.374 . S
C1385 H1365 0.949 1_565 S
C1385 C1381 1.386 . S
C1385 C1384 1.374 . S
C1386 C1383 1.499 . S
C1386 C1387 1.373 . S
C1386 C1388 1.389 1_565 S
C1387 H1366 0.950 . S
C1387 C1386 1.373 . S
C1387 C1403 1.377 . S
C1388 C1386 1.389 1_545 S
C1388 C1389 1.524 . S
C1388 C1402 1.377 . S
C1389 C1388 1.524 . S
C1389 C1390 1.397 . S
C1389 C1394 1.363 . S
C1390 H1367 0.950 . S
C1390 C1389 1.397 . S
C1390 C1391 1.334 . S
C1391 H1368 0.950 . S
C1391 C1390 1.334 . S
C1391 C1392 1.287 . S
C1392 C1391 1.287 . S
C1392 C1393 1.524 . S
C1392 H1411 0.913 . S
C1393 H1369 0.950 . S
C1393 C1392 1.524 . S
C1393 C1394 1.415 . S
C1394 H1370 0.950 . S
C1394 C1389 1.363 . S
C1394 C1393 1.415 . S
C1395 H1371 0.951 . S
C1395 C1396 1.366 . S
C1395 C1397 1.388 . S
C1396 C1395 1.366 . S
C1396 C1400 1.385 . S
C1397 H1372 0.951 . S
C1397 C1395 1.388 . S
C1397 C1398 1.366 . S
C1398 C1397 1.366 . S
C1398 C1399 1.414 . S
C1398 C1401 1.499 . S
C1399 H1373 0.950 . S
C1399 C1398 1.414 . S
C1399 C1400 1.374 . S
C1400 H1374 0.950 . S
C1400 C1396 1.385 . S
C1400 C1399 1.374 . S
C1401 C1398 1.499 . S
C1401 C1402 1.373 1_565 S
C1401 C1403 1.389 . S
C1402 H1375 0.950 . S
C1402 C1388 1.377 . S
C1402 C1401 1.373 1_545 S
C1403 C1387 1.377 . S
C1403 C1401 1.389 . S
C1403 C1404 1.524 . S
C1404 C1403 1.524 . S
C1404 C1405 1.397 . S
C1404 C1409 1.363 . S
C1405 H1376 0.950 . S
C1405 C1404 1.397 . S
C1405 C1406 1.334 . S
C1406 H1377 0.950 . S
C1406 C1405 1.334 . S
C1406 C1407 1.287 . S
C1407 C1406 1.287 . S
C1407 C1408 1.524 . S
C1407 H1410 0.999 . S
C1408 H1378 0.950 . S
C1408 C1407 1.524 . S
C1408 C1409 1.415 . S
C1409 H1379 0.950 . S
C1409 C1404 1.363 . S
C1409 C1408 1.415 . S
H1410 C1407 0.999 . S
H1411 C1392 0.913 . S
H1412 C1430 0.951 . S
H1413 C1432 0.951 . S
H1414 C1434 0.950 . S
H1415 C1435 0.950 . S
H1416 C1437 0.950 . S
H1417 C1440 0.950 . S
H1418 C1441 0.950 . S
H1419 C1443 0.950 . S
H1420 C1444 0.950 . S
H1421 C1445 0.951 . S
H1422 C1447 0.951 . S
H1423 C1449 0.950 . S
H1424 C1450 0.950 . S
H1425 C1452 0.950 . S
H1426 C1455 0.950 . S
H1427 C1456 0.950 . S
H1428 C1458 0.950 . S
H1429 C1459 0.950 . S
C1430 H1412 0.951 . S
C1430 C1431 1.366 . S
C1430 C1432 1.388 . S
C1431 C1430 1.366 . S
C1431 C1435 1.385 . S
C1432 H1413 0.951 . S
C1432 C1430 1.388 . S
C1432 C1433 1.366 . S
C1433 C1432 1.366 . S
C1433 C1434 1.414 . S
C1433 C1436 1.499 . S
C1434 H1414 0.950 . S
C1434 C1433 1.414 . S
C1434 C1435 1.374 . S
C1435 H1415 0.950 . S
C1435 C1431 1.385 . S
C1435 C1434 1.374 . S
C1436 C1433 1.499 . S
C1436 C1437 1.373 . S
C1436 C1438 1.389 . S
C1437 H1416 0.950 . S
C1437 C1436 1.373 . S
C1437 C1453 1.377 . S
C1438 C1436 1.389 . S
C1438 C1439 1.524 . S
C1438 C1452 1.377 . S
C1439 C1438 1.524 . S
C1439 C1440 1.397 . S
C1439 C1444 1.363 . S
C1440 H1417 0.950 . S
C1440 C1439 1.397 . S
C1440 C1441 1.334 . S
C1441 H1418 0.950 . S
C1441 C1440 1.334 . S
C1441 C1442 1.287 . S
C1442 C1441 1.287 . S
C1442 C1443 1.524 . S
C1442 H1461 0.913 . S
C1443 H1419 0.950 . S
C1443 C1442 1.524 . S
C1443 C1444 1.415 . S
C1444 H1420 0.950 . S
C1444 C1439 1.363 . S
C1444 C1443 1.415 . S
C1445 H1421 0.951 . S
C1445 C1446 1.366 . S
C1445 C1447 1.388 . S
C1446 C1445 1.366 . S
C1446 C1450 1.385 . S
C1447 H1422 0.951 . S
C1447 C1445 1.388 . S
C1447 C1448 1.366 . S
C1448 C1447 1.366 . S
C1448 C1449 1.414 . S
C1448 C1451 1.499 . S
C1449 H1423 0.950 . S
C1449 C1448 1.414 . S
C1449 C1450 1.374 . S
C1450 H1424 0.950 . S
C1450 C1446 1.385 . S
C1450 C1449 1.374 . S
C1451 C1448 1.499 . S
C1451 C1452 1.373 . S
C1451 C1453 1.389 . S
C1452 H1425 0.950 . S
C1452 C1438 1.377 . S
C1452 C1451 1.373 . S
C1453 C1437 1.377 . S
C1453 C1451 1.389 . S
C1453 C1454 1.524 . S
C1454 C1453 1.524 . S
C1454 C1455 1.397 . S
C1454 C1459 1.363 . S
C1455 H1426 0.950 . S
C1455 C1454 1.397 . S
C1455 C1456 1.334 . S
C1456 H1427 0.950 . S
C1456 C1455 1.334 . S
C1456 C1457 1.287 . S
C1457 C1456 1.287 . S
C1457 C1458 1.524 . S
C1457 H1460 0.999 . S
C1458 H1428 0.950 . S
C1458 C1457 1.524 . S
C1458 C1459 1.415 . S
C1459 H1429 0.950 . S
C1459 C1454 1.363 . S
C1459 C1458 1.415 . S
H1460 C1457 0.999 . S
H1461 C1442 0.913 . S
H1462 C1480 0.951 . S
H1463 C1482 0.951 . S
H1464 C1484 0.950 . S
H1465 C1485 0.950 . S
H1466 C1487 0.950 . S
H1467 C1490 0.950 . S
H1468 C1491 0.950 . S
H1469 C1493 0.950 . S
H1470 C1494 0.950 . S
H1471 C1495 0.951 . S
H1472 C1497 0.951 . S
H1473 C1499 0.950 . S
H1474 C1500 0.950 . S
H1475 C1502 0.950 . S
H1476 C1505 0.950 . S
H1477 C1506 0.950 . S
H1478 C1508 0.950 . S
H1479 C1509 0.950 . S
C1480 H1462 0.951 . S
C1480 C1481 1.366 . S
C1480 C1482 1.388 . S
C1481 C1480 1.366 . S
C1481 C1485 1.385 . S
C1482 H1463 0.951 . S
C1482 C1480 1.388 . S
C1482 C1483 1.366 . S
C1483 C1482 1.366 . S
C1483 C1484 1.414 . S
C1483 C1486 1.499 . S
C1484 H1464 0.950 . S
C1484 C1483 1.414 . S
C1484 C1485 1.374 . S
C1485 H1465 0.950 . S
C1485 C1481 1.385 . S
C1485 C1484 1.374 . S
C1486 C1483 1.499 . S
C1486 C1487 1.373 . S
C1486 C1488 1.389 . S
C1487 H1466 0.950 . S
C1487 C1486 1.373 . S
C1487 C1503 1.377 . S
C1488 C1486 1.389 . S
C1488 C1489 1.524 . S
C1488 C1502 1.377 . S
C1489 C1488 1.524 . S
C1489 C1490 1.397 . S
C1489 C1494 1.363 . S
C1490 H1467 0.950 . S
C1490 C1489 1.397 . S
C1490 C1491 1.334 . S
C1491 H1468 0.950 . S
C1491 C1490 1.334 . S
C1491 C1492 1.287 . S
C1492 C1491 1.287 . S
C1492 C1493 1.524 . S
C1492 H1511 0.913 . S
C1493 H1469 0.950 . S
C1493 C1492 1.524 . S
C1493 C1494 1.415 . S
C1494 H1470 0.950 . S
C1494 C1489 1.363 . S
C1494 C1493 1.415 . S
C1495 H1471 0.951 . S
C1495 C1496 1.366 . S
C1495 C1497 1.388 . S
C1496 C1495 1.366 . S
C1496 C1500 1.385 . S
C1497 H1472 0.951 . S
C1497 C1495 1.388 . S
C1497 C1498 1.366 . S
C1498 C1497 1.366 . S
C1498 C1499 1.414 . S
C1498 C1501 1.499 . S
C1499 H1473 0.950 . S
C1499 C1498 1.414 . S
C1499 C1500 1.374 . S
C1500 H1474 0.950 . S
C1500 C1496 1.385 . S
C1500 C1499 1.374 . S
C1501 C1498 1.499 . S
C1501 C1502 1.373 . S
C1501 C1503 1.389 . S
C1502 H1475 0.950 . S
C1502 C1488 1.377 . S
C1502 C1501 1.373 . S
C1503 C1487 1.377 . S
C1503 C1501 1.389 . S
C1503 C1504 1.524 . S
C1504 C1503 1.524 . S
C1504 C1505 1.397 . S
C1504 C1509 1.363 . S
C1505 H1476 0.950 . S
C1505 C1504 1.397 . S
C1505 C1506 1.334 . S
C1506 H1477 0.950 . S
C1506 C1505 1.334 . S
C1506 C1507 1.287 . S
C1507 C1506 1.287 . S
C1507 C1508 1.524 . S
C1507 H1510 0.999 . S
C1508 H1478 0.950 . S
C1508 C1507 1.524 . S
C1508 C1509 1.415 . S
C1509 H1479 0.950 . S
C1509 C1504 1.363 . S
C1509 C1508 1.415 . S
H1510 C1507 0.999 . S
H1511 C1492 0.913 . S
C331 C125 1.783 1_545 S
C346 C161 1.827 . S
C396 C201 1.827 . S
C381 C144 1.787 . S
C446 C241 1.826 . S
C431 C87 1.787 . S
C496 C281 1.826 . S
C481 C106 1.784 1_455 S
C546 C170 1.829 . S
C531 C49 1.795 . S
C581 C68 1.789 . S
C596 C210 1.826 . S
C631 C11 1.789 . S
C646 C250 1.826 . S
C681 C30 1.793 . S
C696 C290 1.831 . S
C746 C167 0.361 . S
C731 C97 0.465 . S
C796 C207 0.362 . S
C781 C116 0.464 . S
C846 C247 0.363 . S
C831 C135 0.466 . S
C881 C78 0.468 . S
C896 C287 0.363 . S
C931 C21 0.469 . S
C946 C158 0.361 . S
C996 C198 0.364 . S
C981 C40 0.473 . S
C1046 C238 0.362 . S
C1031 C59 0.465 . S
C1081 C2 0.463 . S
C1096 C278 0.360 . S
C1131 C101 1.915 . S
C1146 C171 2.085 . S
C1181 C120 1.916 . S
C1196 C211 2.085 . S
C1246 C251 2.085 . S
C1231 C139 1.917 . S
C1296 C291 2.085 . S
C1281 C82 1.915 . S
C1331 C25 1.916 . S
C1346 C162 2.086 . S
C1396 C202 2.085 . S
C1381 C44 1.917 . S
C1446 C242 2.085 . S
C1431 C63 1.914 . S
C1481 C6 1.915 . S
C1496 C282 2.085 . S
