# Generated by pormake.
# Topology nom, (4,4)-cn, num edge types: 1
# Building blocks:
#     Node 0, Type 0, BuildingBlock: GIZVER_clean_linker_0, # of connection points: 4
#     Node 1, Type 0, BuildingBlock: GIZVER_clean_linker_0, # of connection points: 4
#     Node 2, Type 0, BuildingBlock: GIZVER_clean_linker_0, # of connection points: 4
#     Node 3, Type 0, BuildingBlock: GIZVER_clean_linker_0, # of connection points: 4
#     Node 4, Type 0, BuildingBlock: GIZVER_clean_linker_0, # of connection points: 4
#     Node 5, Type 0, BuildingBlock: GIZVER_clean_linker_0, # of connection points: 4
#     Node 6, Type 1, BuildingBlock: CEKHIL_clean_sbu_0, # of connection points: 4
#     Node 7, Type 1, BuildingBlock: CEKHIL_clean_sbu_0, # of connection points: 4
#     Node 8, Type 1, BuildingBlock: CEKHIL_clean_sbu_0, # of connection points: 4
#     Node 9, Type 1, BuildingBlock: CEKHIL_clean_sbu_0, # of connection points: 4
#     Node 10, Type 1, BuildingBlock: CEKHIL_clean_sbu_0, # of connection points: 4
#     Node 11, Type 1, BuildingBlock: CEKHIL_clean_sbu_0, # of connection points: 4
#     Edge 12, Type (0, 1), BuildingBlock: CIFDUS_clean_linker_0, # of connection points: 2
#     Edge 13, Type (0, 1), BuildingBlock: CIFDUS_clean_linker_0, # of connection points: 2
#     Edge 14, Type (0, 1), BuildingBlock: CIFDUS_clean_linker_0, # of connection points: 2
#     Edge 15, Type (0, 1), BuildingBlock: CIFDUS_clean_linker_0, # of connection points: 2
#     Edge 16, Type (0, 1), BuildingBlock: CIFDUS_clean_linker_0, # of connection points: 2
#     Edge 17, Type (0, 1), BuildingBlock: CIFDUS_clean_linker_0, # of connection points: 2
#     Edge 18, Type (0, 1), BuildingBlock: CIFDUS_clean_linker_0, # of connection points: 2
#     Edge 19, Type (0, 1), BuildingBlock: CIFDUS_clean_linker_0, # of connection points: 2
#     Edge 20, Type (0, 1), BuildingBlock: CIFDUS_clean_linker_0, # of connection points: 2
#     Edge 21, Type (0, 1), BuildingBlock: CIFDUS_clean_linker_0, # of connection points: 2
#     Edge 22, Type (0, 1), BuildingBlock: CIFDUS_clean_linker_0, # of connection points: 2
#     Edge 23, Type (0, 1), BuildingBlock: CIFDUS_clean_linker_0, # of connection points: 2
#     Edge 24, Type (0, 1), BuildingBlock: CIFDUS_clean_linker_0, # of connection points: 2
#     Edge 25, Type (0, 1), BuildingBlock: CIFDUS_clean_linker_0, # of connection points: 2
#     Edge 26, Type (0, 1), BuildingBlock: CIFDUS_clean_linker_0, # of connection points: 2
#     Edge 27, Type (0, 1), BuildingBlock: CIFDUS_clean_linker_0, # of connection points: 2
#     Edge 28, Type (0, 1), BuildingBlock: CIFDUS_clean_linker_0, # of connection points: 2
#     Edge 29, Type (0, 1), BuildingBlock: CIFDUS_clean_linker_0, # of connection points: 2
#     Edge 30, Type (0, 1), BuildingBlock: CIFDUS_clean_linker_0, # of connection points: 2
#     Edge 31, Type (0, 1), BuildingBlock: CIFDUS_clean_linker_0, # of connection points: 2
#     Edge 32, Type (0, 1), BuildingBlock: CIFDUS_clean_linker_0, # of connection points: 2
#     Edge 33, Type (0, 1), BuildingBlock: CIFDUS_clean_linker_0, # of connection points: 2
#     Edge 34, Type (0, 1), BuildingBlock: CIFDUS_clean_linker_0, # of connection points: 2
#     Edge 35, Type (0, 1), BuildingBlock: CIFDUS_clean_linker_0, # of connection points: 2
# Relax obj value: 0.005
# Max RMSD: 0.072
# Mean RMSD: 0.053
data_MOF--net-nom--node1-CEKHIL_clean_sbu_0--node2-GIZVER_clean_linker_0--edge1-CIFDUS_clean_linker_0
_symmetry_space_group_name_H-M    P1
_symmetry_Int_Tables_number       1
_symmetry_cell_setting            triclinic
loop_
_symmetry_equiv_pos_as_xyz
'x, y, z'
_cell_length_a     41.335867
_cell_length_b     40.827485
_cell_length_c     40.877381
_cell_angle_alpha  90.075499
_cell_angle_beta   89.988091
_cell_angle_gamma 121.27838
loop_
_atom_site_label
_atom_site_type_symbol
_atom_site_fract_x
_atom_site_fract_y
_atom_site_fract_z
_atom_type_partial_charge
H0 H 0.96474 0.55713 0.3641 0.0
H1 H 1.00762 0.56829 0.26564 0.0
H2 H 0.89132 0.48668 0.28642 0.0
H3 H 0.02383 0.61423 0.3484 0.0
H4 H 0.03759 0.62279 0.30664 0.0
H5 H 0.05604 0.59615 0.38523 0.0
H6 H 0.14706 0.58368 0.35007 0.0
H7 H 0.07631 0.59761 0.28188 0.0
C8 C 0.9606 0.54769 0.33885 0.0
C9 C 0.92445 0.51845 0.32831 0.0
C10 C 0.99116 0.56562 0.31642 0.0
C11 C 0.98497 0.55398 0.28334 0.0
C12 C 0.94881 0.52565 0.27275 0.0
C13 C 0.91927 0.50799 0.29526 0.0
C14 C 0.02825 0.60097 0.32638 0.0
C15 C 0.05991 0.5933 0.33279 0.0
C16 C 0.07108 0.59246 0.36526 0.0
C17 C 0.10362 0.59069 0.37176 0.0
C18 C 0.12266 0.58622 0.34538 0.0
C19 C 0.1142 0.59024 0.31303 0.0
C20 C 0.08238 0.59328 0.30674 0.0
H21 H 0.43998 0.9568 0.52954 0.0
H22 H 0.42996 0.96065 0.42513 0.0
H23 H 0.44675 0.87496 0.46896 0.0
H24 H 0.41198 0.99234 0.49977 0.0
H25 H 0.42279 1.00419 0.45776 0.0
H26 H 0.46313 0.02291 0.54269 0.0
H27 H 0.55442 0.13542 0.51801 0.0
H28 H 0.48284 0.0602 0.44178 0.0
C29 C 0.44195 0.94701 0.50541 0.0
C30 C 0.44395 0.91383 0.50233 0.0
C31 C 0.43982 0.96587 0.47732 0.0
C32 C 0.43607 0.94884 0.44629 0.0
C33 C 0.4367 0.91476 0.44322 0.0
C34 C 0.44476 0.90032 0.47109 0.0
C35 C 0.43404 0.99949 0.48086 0.0
C36 C 0.46964 0.03643 0.49086 0.0
C37 C 0.47979 0.04405 0.52423 0.0
C38 C 0.51015 0.07994 0.53389 0.0
C39 C 0.53115 0.10761 0.51028 0.0
C40 C 0.52181 0.10084 0.47715 0.0
C41 C 0.49088 0.06519 0.46735 0.0
H42 H 0.4103 0.46171 0.61288 0.0
H43 H 0.46415 0.46881 0.70539 0.0
H44 H 0.43519 0.55232 0.68072 0.0
H45 H 0.41687 0.40934 0.63053 0.0
H46 H 0.42757 0.40729 0.6723 0.0
H47 H 0.46665 0.43365 0.58862 0.0
H48 H 0.56303 0.425 0.61306 0.0
H49 H 0.49104 0.42305 0.68933 0.0
C50 C 0.42349 0.47703 0.63531 0.0
C51 C 0.42053 0.5087 0.64429 0.0
C52 C 0.44066 0.46319 0.65682 0.0
C53 C 0.45403 0.48104 0.68754 0.0
C54 C 0.45148 0.51286 0.69606 0.0
C55 C 0.43703 0.52768 0.67363 0.0
C56 C 0.43817 0.42548 0.64999 0.0
C57 C 0.47569 0.43008 0.64021 0.0
C58 C 0.48516 0.43258 0.60679 0.0
C59 C 0.51675 0.43078 0.59671 0.0
C60 C 0.53988 0.42858 0.62055 0.0
C61 C 0.53118 0.42607 0.65386 0.0
C62 C 0.49891 0.42674 0.66372 0.0
H63 H 0.95637 0.41778 0.78216 0.0
H64 H 0.9912 0.42884 0.88308 0.0
H65 H 0.887 0.42201 0.85792 0.0
H66 H 1.00182 0.39891 0.80094 0.0
H67 H 0.01686 0.40519 0.84241 0.0
H68 H 0.02774 0.45647 0.76333 0.0
H69 H 0.14435 0.53901 0.78204 0.0
H70 H 0.07571 0.46179 0.85857 0.0
C71 C 0.95234 0.42189 0.8077 0.0
C72 C 0.91962 0.42188 0.8173 0.0
C73 C 0.9789 0.42529 0.83136 0.0
C74 C 0.97187 0.428 0.86472 0.0
C75 C 0.93877 0.42701 0.87454 0.0
C76 C 0.91357 0.42489 0.85054 0.0
C77 C 0.01088 0.41921 0.82192 0.0
C78 C 0.04704 0.45578 0.81248 0.0
C79 C 0.05118 0.47004 0.7804 0.0
C80 C 0.0864 0.50001 0.76971 0.0
C81 C 0.11707 0.51667 0.79124 0.0
C82 C 0.11381 0.50377 0.82349 0.0
C83 C 0.07848 0.47302 0.83406 0.0
H84 H 0.61206 0.07801 0.02662 0.0
H85 H 0.60174 0.03849 0.92704 0.0
H86 H 0.61054 0.14601 0.94762 0.0
H87 H 0.62844 0.02926 0.01091 0.0
H88 H 0.62241 0.01232 0.96989 0.0
H89 H 0.56922 0.00927 0.04591 0.0
H90 H 0.48166 0.89256 0.02994 0.0
H91 H 0.56971 0.94999 0.95842 0.0
C92 C 0.60859 0.08124 0.00078 0.0
C93 C 0.60947 0.11431 0.9897 0.0
C94 C 0.6049 0.05315 0.97827 0.0
C95 C 0.6029 0.05905 0.94452 0.0
C96 C 0.60466 0.09246 0.93325 0.0
C97 C 0.60709 0.11922 0.95612 0.0
C98 C 0.60896 0.0201 0.98954 0.0
C99 C 0.57165 0.98506 -0.00066 0.0
C100 C 0.55555 0.98449 0.02995 0.0
C101 C 0.52332 0.95088 0.04086 0.0
C102 C 0.50653 0.91843 0.02096 0.0
C103 C 0.52388 0.91693 0.99215 0.0
C104 C 0.5558 0.95084 0.9806 0.0
H105 H 0.60851 0.55117 0.11101 0.0
H106 H 0.58027 0.56106 0.211 0.0
H107 H 0.59937 0.47104 0.18384 0.0
H108 H 0.61713 0.61206 0.13225 0.0
H109 H 0.60733 0.6164 0.17379 0.0
H110 H 0.56695 0.58727 0.0906 0.0
H111 H 0.4751 0.60436 0.11268 0.0
H112 H 0.54515 0.60519 0.19031 0.0
C113 C 0.60159 0.54015 0.13575 0.0
C114 C 0.60346 0.50774 0.14438 0.0
C115 C 0.59216 0.55916 0.15958 0.0
C116 C 0.58556 0.54573 0.19215 0.0
C117 C 0.58874 0.51429 0.20076 0.0
C118 C 0.59654 0.49507 0.17675 0.0
C119 C 0.59585 0.59734 0.152 0.0
C120 C 0.55904 0.59429 0.14183 0.0
C121 C 0.54943 0.59066 0.10836 0.0
C122 C 0.51911 0.59428 0.09758 0.0
C123 C 0.49735 0.59965 0.1208 0.0
C124 C 0.50615 0.60335 0.15414 0.0
C125 C 0.53719 0.60076 0.16471 0.0
Co126 Co 0.6462 0.37249 0.39259 0.0
O127 O 0.68257 0.37128 0.36384 0.0
O128 O 0.69704 0.4143 0.40284 0.0
C129 C 0.61428 0.30892 0.40386 0.0
O130 O 0.61777 0.38275 0.42807 0.0
Co131 Co 0.55959 0.32699 0.37874 0.0
O132 O 0.55479 0.34428 0.42267 0.0
C133 C 0.60925 0.40102 0.34522 0.0
C134 C 0.70858 0.40078 0.37983 0.0
C135 C 0.58368 0.37031 0.43785 0.0
O136 O 0.63844 0.40592 0.36102 0.0
O137 O 0.57636 0.37079 0.34763 0.0
O138 O 0.64543 0.33232 0.41927 0.0
O139 O 0.60472 0.32397 0.38095 0.0
Co140 Co 0.28418 0.64729 0.58104 0.0
O141 O 0.31271 0.63957 0.61414 0.0
O142 O 0.29081 0.60523 0.56871 0.0
C143 C 0.32191 0.7118 0.57797 0.0
O144 O 0.25437 0.64663 0.54099 0.0
Co145 Co 0.24546 0.69391 0.59534 0.0
O146 O 0.22647 0.68082 0.54993 0.0
C147 C 0.21258 0.61605 0.62219 0.0
C148 C 0.30916 0.61168 0.59606 0.0
C149 C 0.2333 0.65965 0.53196 0.0
O150 O 0.23584 0.61103 0.60506 0.0
O151 O 0.21393 0.64804 0.62364 0.0
O152 O 0.33071 0.68969 0.56243 0.0
O153 O 0.2927 0.6945 0.59687 0.0
Co154 Co 0.65182 0.27911 0.7302 0.0
O155 O 0.64972 0.31781 0.70435 0.0
O156 O 0.6099 0.28397 0.74408 0.0
C157 C 0.71508 0.31322 0.73957 0.0
O158 O 0.64427 0.23878 0.76358 0.0
Co159 Co 0.6966 0.23998 0.71176 0.0
O160 O 0.68177 0.21502 0.75517 0.0
C161 C 0.62231 0.21382 0.68069 0.0
C162 C 0.62038 0.31027 0.72191 0.0
C163 C 0.65675 0.21693 0.77178 0.0
O164 O 0.61795 0.23763 0.69804 0.0
O165 O 0.65224 0.2119 0.68151 0.0
O166 O 0.69234 0.31941 0.75684 0.0
O167 O 0.69951 0.28885 0.71596 0.0
Co168 Co 0.39255 0.65013 0.89058 0.0
O169 O 0.35623 0.65193 0.86221 0.0
O170 O 0.34183 0.60696 0.89919 0.0
C171 C 0.42273 0.71285 0.90451 0.0
O172 O 0.42078 0.63891 0.92543 0.0
Co173 Co 0.47909 0.69807 0.87864 0.0
O174 O 0.48365 0.67894 0.92183 0.0
C175 C 0.43204 0.62578 0.8419 0.0
C176 C 0.33027 0.62126 0.8769 0.0
C177 C 0.45466 0.65171 0.93591 0.0
O178 O 0.4021 0.61924 0.85749 0.0
O179 O 0.46438 0.65642 0.84555 0.0
O180 O 0.39195 0.68792 0.91952 0.0
O181 O 0.43325 0.6999 0.88057 0.0
Co182 Co 0.75299 0.38641 0.07591 0.0
O183 O 0.71575 0.39017 0.10198 0.0
O184 O 0.7498 0.42994 0.06219 0.0
C185 C 0.71753 0.32232 0.06672 0.0
O186 O 0.79208 0.39236 0.04229 0.0
Co187 Co 0.78885 0.33829 0.0944 0.0
O188 O 0.81313 0.35231 0.05078 0.0
C189 C 0.8175 0.41421 0.1252 0.0
C190 C 0.72401 0.42012 0.08445 0.0
C191 C 0.81243 0.37823 0.03408 0.0
O192 O 0.79477 0.41981 0.10782 0.0
O193 O 0.81776 0.383 0.12457 0.0
O194 O 0.7122 0.34588 0.04948 0.0
O195 O 0.74179 0.33768 0.09019 0.0
Co196 Co 0.38085 0.74772 0.22942 0.0
O197 O 0.38669 0.71233 0.20196 0.0
O198 O 0.42433 0.74511 0.24322 0.0
C199 C 0.31744 0.70949 0.23689 0.0
O200 O 0.38403 0.78509 0.26435 0.0
Co201 Co 0.33106 0.78155 0.2099 0.0
O202 O 0.34816 0.81006 0.25169 0.0
C203 C 0.40797 0.81505 0.18221 0.0
C204 C 0.41579 0.72022 0.21997 0.0
C205 C 0.37143 0.80747 0.27025 0.0
O206 O 0.41404 0.79232 0.19947 0.0
O207 O 0.37608 0.81312 0.18141 0.0
O208 O 0.34088 0.70431 0.25408 0.0
O209 O 0.33262 0.73515 0.21431 0.0
H210 H 0.14918 0.65385 0.27532 0.0
H211 H 0.14866 0.55046 0.29761 0.0
H212 H 0.21229 0.57823 0.27479 0.0
H213 H 0.27167 0.63571 0.25647 0.0
H214 H 0.27133 0.73832 0.23265 0.0
H215 H 0.20473 0.70735 0.24828 0.0
C216 C 0.16232 0.63679 0.27387 0.0
C217 C 0.14432 0.60024 0.28832 0.0
C218 C 0.19933 0.65335 0.26146 0.0
C219 C 0.16198 0.57867 0.28662 0.0
C220 C 0.19859 0.59476 0.27402 0.0
C221 C 0.25681 0.65107 0.25449 0.0
C222 C 0.27647 0.68944 0.24408 0.0
C223 C 0.21821 0.63275 0.26285 0.0
C224 C 0.25684 0.70885 0.24087 0.0
C225 C 0.21872 0.69112 0.24975 0.0
H226 H 0.49486 0.13745 0.44123 0.0
H227 H 0.59711 0.13893 0.46509 0.0
H228 H 0.63536 0.20405 0.44372 0.0
H229 H 0.63959 0.26337 0.4249 0.0
H230 H 0.53772 0.26198 0.39952 0.0
H231 H 0.4994 0.19433 0.41501 0.0
C232 C 0.52547 0.15157 0.4405 0.0
C233 C 0.54322 0.13349 0.45453 0.0
C234 C 0.54731 0.18945 0.42887 0.0
C235 C 0.58294 0.15228 0.4541 0.0
C236 C 0.60479 0.18968 0.44233 0.0
C237 C 0.609 0.24812 0.42266 0.0
C238 C 0.59138 0.26767 0.41175 0.0
C239 C 0.58728 0.20907 0.4309 0.0
C240 C 0.55184 0.24752 0.40818 0.0
C241 C 0.52995 0.20884 0.41695 0.0
H242 H 0.36693 0.51821 0.67145 0.0
H243 H 0.41878 0.52407 0.57846 0.0
H244 H 0.38536 0.55343 0.55387 0.0
H245 H 0.3467 0.58409 0.56106 0.0
H246 H 0.30332 0.58464 0.65692 0.0
H247 H 0.32872 0.54684 0.67845 0.0
C248 C 0.37092 0.52582 0.6457 0.0
C249 C 0.39584 0.51965 0.62692 0.0
C250 C 0.35354 0.54443 0.6325 0.0
C251 C 0.39984 0.52862 0.59344 0.0
C252 C 0.38104 0.54576 0.57954 0.0
C253 C 0.34264 0.57552 0.58654 0.0
C254 C 0.32332 0.58713 0.60752 0.0
C255 C 0.35869 0.55488 0.59912 0.0
C256 C 0.31839 0.57627 0.64051 0.0
C257 C 0.33276 0.55457 0.65277 0.0
H258 H 0.88185 0.3601 0.77706 0.0
H259 H 0.88507 0.46249 0.80863 0.0
H260 H 0.82168 0.4382 0.78648 0.0
H261 H 0.76211 0.38408 0.76477 0.0
H262 H 0.75936 0.28253 0.73132 0.0
H263 H 0.82544 0.30994 0.74764 0.0
C264 C 0.86922 0.37766 0.77793 0.0
C265 C 0.88804 0.41297 0.79454 0.0
C266 C 0.83234 0.36312 0.76568 0.0
C267 C 0.8711 0.43523 0.7959 0.0
C268 C 0.83467 0.42114 0.7836 0.0
C269 C 0.77613 0.36814 0.76091 0.0
C270 C 0.75575 0.33108 0.74749 0.0
C271 C 0.81441 0.38445 0.76968 0.0
C272 C 0.77439 0.311 0.74189 0.0
C273 C 0.81222 0.32669 0.75116 0.0
H274 H 0.50799 0.89203 0.92792 0.0
H275 H 0.51167 0.85468 0.02587 0.0
H276 H 0.47992 0.78849 0.00775 0.0
H277 H 0.44699 0.74018 0.96513 0.0
H278 H 0.44835 0.77579 0.86587 0.0
H279 H 0.48209 0.84328 0.88315 0.0
C280 C 0.50243 0.86944 0.94504 0.0
C281 C 0.51112 0.87826 0.97837 0.0
C282 C 0.48459 0.83096 0.93432 0.0
C283 C 0.50421 0.84861 0.00023 0.0
C284 C 0.48607 0.81065 0.98995 0.0
C285 C 0.45486 0.76284 0.94737 0.0
C286 C 0.44483 0.75336 0.91453 0.0
C287 C 0.47525 0.80135 0.95728 0.0
C288 C 0.45574 0.78272 0.89142 0.0
C289 C 0.47499 0.82122 0.90129 0.0
H290 H 0.67274 0.53803 0.116 0.0
H291 H 0.56488 0.43322 0.12589 0.0
H292 H 0.59264 0.39612 0.10758 0.0
H293 H 0.64957 0.3929 0.09614 0.0
H294 H 0.7571 0.49755 0.08383 0.0
H295 H 0.72788 0.53528 0.09593 0.0
C296 C 0.65507 0.50726 0.11275 0.0
C297 C 0.61677 0.48839 0.12208 0.0
C298 C 0.6715 0.48597 0.10285 0.0
C299 C 0.59432 0.44836 0.11846 0.0
C300 C 0.61033 0.42709 0.1085 0.0
C301 C 0.66645 0.42397 0.09592 0.0
C302 C 0.70551 0.44249 0.08979 0.0
C303 C 0.64922 0.44545 0.10199 0.0
C304 C 0.727 0.48272 0.0888 0.0
C305 C 0.71029 0.50429 0.09564 0.0
H306 H 0.38133 0.88256 0.53985 0.0
H307 H 0.48366 0.88137 0.52343 0.0
H308 H 0.45486 0.81783 0.54828 0.0
H309 H 0.39653 0.75812 0.5644 0.0
H310 H 0.29416 0.75935 0.58088 0.0
H311 H 0.32678 0.8272 0.56607 0.0
C312 C 0.39794 0.8692 0.54322 0.0
C313 C 0.43447 0.88647 0.52967 0.0
C314 C 0.38062 0.83203 0.55634 0.0
C315 C 0.45554 0.86863 0.53381 0.0
C316 C 0.43881 0.832 0.54745 0.0
C317 C 0.38159 0.77347 0.56514 0.0
C318 C 0.34285 0.7537 0.57297 0.0
C319 C 0.40068 0.8126 0.55701 0.0
C320 C 0.32391 0.77394 0.5746 0.0
C321 C 0.34257 0.81274 0.56617 0.0
H322 H 0.50452 0.36289 0.69209 0.0
H323 H 0.60727 0.46588 0.66343 0.0
H324 H 0.64487 0.43952 0.68331 0.0
H325 H 0.64768 0.38335 0.70119 0.0
H326 H 0.54516 0.28085 0.73123 0.0
H327 H 0.50833 0.31055 0.71836 0.0
C328 C 0.5352 0.38011 0.69148 0.0
C329 C 0.55312 0.41623 0.67629 0.0
C330 C 0.5566 0.36432 0.70223 0.0
C331 C 0.59291 0.43806 0.67517 0.0
C332 C 0.61437 0.42277 0.6861 0.0
C333 C 0.61732 0.36771 0.70512 0.0
C334 C 0.59902 0.32975 0.71647 0.0
C335 C 0.59641 0.38526 0.69827 0.0
C336 C 0.55981 0.31003 0.72221 0.0
C337 C 0.53874 0.32701 0.7149 0.0
H338 H 0.16833 0.57892 0.8287 0.0
H339 H 0.13914 0.46712 0.86325 0.0
H340 H 0.20318 0.49416 0.88552 0.0
H341 H 0.27006 0.54854 0.88899 0.0
H342 H 0.29897 0.65796 0.84824 0.0
H343 H 0.23303 0.63273 0.83379 0.0
C344 C 0.17582 0.5604 0.84129 0.0
C345 C 0.14899 0.52089 0.84382 0.0
C346 C 0.21313 0.57566 0.85224 0.0
C347 C 0.15903 0.49763 0.86101 0.0
C348 C 0.19589 0.51302 0.87333 0.0
C349 C 0.26179 0.56682 0.87712 0.0
C350 C 0.28957 0.60502 0.8694 0.0
C351 C 0.2236 0.55178 0.86807 0.0
C352 C 0.27838 0.62836 0.85405 0.0
C353 C 0.24058 0.61402 0.84593 0.0
H354 H 0.66906 0.15223 0.03135 0.0
H355 H 0.57098 0.15153 -0.00533 0.0
H356 H 0.59545 0.2162 0.01593 0.0
H357 H 0.64859 0.27597 0.03887 0.0
H358 H 0.7457 0.27598 0.07728 0.0
H359 H 0.71807 0.20898 0.06136 0.0
C360 C 0.65245 0.16573 0.02911 0.0
C361 C 0.61835 0.14721 0.01138 0.0
C362 C 0.66708 0.2033 0.04088 0.0
C363 C 0.59734 0.16528 0.00825 0.0
C364 C 0.61152 0.20242 0.02007 0.0
C365 C 0.66353 0.26116 0.04387 0.0
C366 C 0.69943 0.2811 0.05865 0.0
C367 C 0.64706 0.22228 0.03527 0.0
C368 C 0.71817 0.2614 0.06566 0.0
C369 C 0.70234 0.223 0.05662 0.0
H370 H 0.53348 0.66947 0.18914 0.0
H371 H 0.43056 0.56412 0.16508 0.0
H372 H 0.39295 0.59078 0.18424 0.0
H373 H 0.3896 0.64696 0.2009 0.0
H374 H 0.49193 0.75187 0.22701 0.0
H375 H 0.5295 0.72285 0.21386 0.0
C376 C 0.50282 0.65193 0.18935 0.0
C377 C 0.4848 0.61481 0.17583 0.0
C378 C 0.48131 0.66783 0.19982 0.0
C379 C 0.44501 0.59262 0.17564 0.0
C380 C 0.42351 0.60805 0.18617 0.0
C381 C 0.42011 0.66331 0.2039 0.0
C382 C 0.43808 0.70169 0.21428 0.0
C383 C 0.44138 0.64613 0.19704 0.0
C384 C 0.47752 0.72235 0.21879 0.0
C385 C 0.49899 0.70574 0.21131 0.0
H386 H 0.87059 0.44324 0.33213 0.0
H387 H 0.90049 0.55351 0.37132 0.0
H388 H 0.83638 0.52591 0.39364 0.0
H389 H 0.76917 0.4721 0.39507 0.0
H390 H 0.73951 0.3646 0.34946 0.0
H391 H 0.80564 0.38959 0.33585 0.0
C392 C 0.86326 0.46117 0.34597 0.0
C393 C 0.89021 0.5005 0.34968 0.0
C394 C 0.8259 0.44574 0.35677 0.0
C395 C 0.88045 0.52314 0.36822 0.0
C396 C 0.84355 0.50746 0.38051 0.0
C397 C 0.77732 0.45416 0.38234 0.0
C398 C 0.74931 0.41665 0.37294 0.0
C399 C 0.8156 0.46912 0.37378 0.0
C400 C 0.76032 0.39371 0.35653 0.0
C401 C 0.79821 0.4079 0.3489 0.0
H402 H 0.17909 0.63023 0.38617 0.0
H403 H 0.06914 0.5723 0.4326 0.0
H404 H 0.09983 0.58993 0.48627 0.0
H405 H 0.15826 0.62186 0.51991 0.0
H406 H 0.26699 0.67201 0.47267 0.0
H407 H 0.23614 0.65588 0.41893 0.0
C408 C 0.1614 0.62006 0.40779 0.0
C409 C 0.12152 0.59927 0.40495 0.0
C410 C 0.17913 0.62891 0.43841 0.0
C411 C 0.09975 0.58846 0.43375 0.0
C412 C 0.11731 0.59834 0.46451 0.0
C413 C 0.17501 0.62904 0.49773 0.0
C414 C 0.21471 0.64832 0.49987 0.0
C415 C 0.15698 0.61863 0.46709 0.0
C416 C 0.23639 0.65719 0.47132 0.0
C417 C 0.21876 0.64805 0.44074 0.0
H418 H 0.5039 0.13292 0.56762 0.0
H419 H 0.54225 0.05332 0.57586 0.0
H420 H 0.57828 0.08642 0.6252 0.0
H421 H 0.60658 0.14394 0.66003 0.0
H422 H 0.56935 0.22461 0.65085 0.0
H423 H 0.52488 0.1851 0.60783 0.0
C424 C 0.51908 0.1221 0.58103 0.0
C425 C 0.52052 0.0908 0.56844 0.0
C426 C 0.54057 0.14203 0.60858 0.0
C427 C 0.54048 0.07707 0.58551 0.0
C428 C 0.56146 0.09635 0.61336 0.0
C429 C 0.58843 0.15266 0.64884 0.0
C430 C 0.59181 0.18757 0.65806 0.0
C431 C 0.56305 0.12986 0.62416 0.0
C432 C 0.56751 0.19806 0.64397 0.0
C433 C 0.54214 0.17551 0.61935 0.0
H434 H 0.39578 0.49734 0.73771 0.0
H435 H 0.51705 0.56311 0.72773 0.0
H436 H 0.52174 0.60276 0.77482 0.0
H437 H 0.49043 0.62411 0.81285 0.0
H438 H 0.36835 0.56093 0.81967 0.0
H439 H 0.36474 0.51488 0.77943 0.0
C440 C 0.42328 0.51945 0.74679 0.0
C441 C 0.45612 0.52715 0.72986 0.0
C442 C 0.42541 0.54323 0.77248 0.0
C443 C 0.4916 0.55633 0.74097 0.0
C444 C 0.49413 0.57933 0.76745 0.0
C445 C 0.46296 0.6002 0.80572 0.0
C446 C 0.42963 0.59645 0.8189 0.0
C447 C 0.46108 0.57403 0.78239 0.0
C448 C 0.39442 0.56483 0.80971 0.0
C449 C 0.39233 0.5384 0.78677 0.0
H450 H 0.90463 0.45971 0.90618 0.0
H451 H 0.94365 0.38115 0.92069 0.0
H452 H 0.90934 0.36038 0.97247 0.0
H453 H 0.86214 0.35892 0.01012 0.0
H454 H 0.81954 0.43422 0.99283 0.0
H455 H 0.86029 0.46075 0.94512 0.0
C456 C 0.90596 0.43831 0.92085 0.0
C457 C 0.9264 0.42177 0.90933 0.0
C458 C 0.88459 0.42505 0.94967 0.0
C459 C 0.92848 0.39468 0.929 0.0
C460 C 0.90831 0.38229 0.95839 0.0
C461 C 0.86174 0.38116 -0.00402 0.0
C462 C 0.83733 0.39412 0.00497 0.0
C463 C 0.88518 0.39628 0.96834 0.0
C464 C 0.83763 0.42329 0.98642 0.0
C465 C 0.86112 0.4387 0.95917 0.0
H466 H 0.54256 0.91861 0.08734 0.0
H467 H 0.47203 0.96537 0.06848 0.0
H468 H 0.43137 0.92926 0.11476 0.0
H469 H 0.40962 0.8755 0.15272 0.0
H470 H 0.47674 0.82356 0.16744 0.0
H471 H 0.525 0.87035 0.13036 0.0
C472 C 0.51929 0.92221 0.09451 0.0
C473 C 0.51039 0.94486 0.07506 0.0
C474 C 0.49468 0.89923 0.11943 0.0
C475 C 0.47971 0.9487 0.08365 0.0
C476 C 0.45609 0.92741 0.10962 0.0
C477 C 0.4349 0.87447 0.14807 0.0
C478 C 0.43908 0.84538 0.16227 0.0
C479 C 0.46217 0.90101 0.12637 0.0
C480 C 0.47249 0.8452 0.1565 0.0
C481 C 0.50016 0.87203 0.13537 0.0
H482 H 0.64788 0.52382 0.23559 0.0
H483 H 0.5274 0.47554 0.2405 0.0
H484 H 0.52377 0.43811 0.28877 0.0
H485 H 0.55364 0.41219 0.32358 0.0
H486 H 0.67404 0.45853 0.31689 0.0
H487 H 0.67913 0.50391 0.27523 0.0
C488 C 0.62111 0.50611 0.24809 0.0
C489 C 0.58795 0.50244 0.23493 0.0
C490 C 0.61919 0.48371 0.27482 0.0
C491 C 0.55324 0.47911 0.25068 0.0
C492 C 0.55117 0.45735 0.27789 0.0
C493 C 0.58109 0.43241 0.31321 0.0
C494 C 0.61332 0.43141 0.3228 0.0
C495 C 0.58373 0.4582 0.28919 0.0
C496 C 0.64876 0.45842 0.30971 0.0
C497 C 0.65168 0.48436 0.28589 0.0
H498 H 0.4442 0.93689 0.37824 0.0
H499 H 0.39518 0.83633 0.44002 0.0
H500 H 0.37424 0.7953 0.39259 0.0
H501 H 0.36792 0.78659 0.33324 0.0
H502 H 0.40731 0.88503 0.27095 0.0
H503 H 0.433 0.92784 0.31851 0.0
C504 C 0.4288 0.90606 0.38141 0.0
C505 C 0.42305 0.89031 0.41305 0.0
C506 C 0.41464 0.88191 0.35374 0.0
C507 C 0.40232 0.84997 0.41626 0.0
C508 C 0.38956 0.82608 0.38902 0.0
C509 C 0.38217 0.81743 0.33024 0.0
C510 C 0.38604 0.83284 0.29895 0.0
C511 C 0.39559 0.84164 0.35767 0.0
C512 C 0.40405 0.87273 0.29508 0.0
C513 C 0.41877 0.89714 0.3222 0.0
H514 H 0.58366 0.45974 0.56399 0.0
H515 H 0.46296 0.38529 0.55162 0.0
H516 H 0.47322 0.36139 0.50037 0.0
H517 H 0.51631 0.35574 0.46284 0.0
H518 H 0.63716 0.42647 0.4776 0.0
H519 H 0.62686 0.45653 0.52485 0.0
C520 C 0.55955 0.43853 0.54992 0.0
C521 C 0.5226 0.42408 0.56195 0.0
C522 C 0.56568 0.42333 0.52141 0.0
C523 C 0.4917 0.39729 0.54296 0.0
C524 C 0.49757 0.38307 0.51387 0.0
C525 C 0.5405 0.37772 0.47633 0.0
C526 C 0.57748 0.38838 0.4668 0.0
C527 C 0.53442 0.39484 0.50356 0.0
C528 C 0.60837 0.41731 0.48447 0.0
C529 C 0.60252 0.43471 0.51142 0.0
H530 H 0.12527 0.4857 0.72545 0.0
H531 H 0.06684 0.54646 0.73934 0.0
H532 H 0.09818 0.58568 0.6909 0.0
H533 H 0.1502 0.60956 0.65116 0.0
H534 H 0.21124 0.55068 0.63958 0.0
H535 H 0.17066 0.50354 0.68036 0.0
C536 C 0.11837 0.50654 0.71695 0.0
C537 C 0.09375 0.51323 0.7355 0.0
C538 C 0.13767 0.52986 0.69007 0.0
C539 C 0.0853 0.5406 0.72496 0.0
C540 C 0.10365 0.56333 0.69762 0.0
C541 C 0.15432 0.58612 0.65719 0.0
C542 C 0.18425 0.58414 0.64279 0.0
C543 C 0.13123 0.5594 0.68101 0.0
C544 C 0.18867 0.55314 0.65045 0.0
C545 C 0.16552 0.52617 0.67384 0.0
H546 H 0.57276 0.12578 0.89938 0.0
H547 H 0.65003 0.08531 0.88852 0.0
H548 H 0.67155 0.11863 0.83616 0.0
H549 H 0.67437 0.1661 0.79726 0.0
H550 H 0.60045 0.21046 0.81128 0.0
H551 H 0.57276 0.16987 0.8591 0.0
C552 C 0.59401 0.12386 0.88535 0.0
C553 C 0.61006 0.10346 0.89809 0.0
C554 C 0.60773 0.14479 0.85628 0.0
C555 C 0.63695 0.10056 0.87927 0.0
C556 C 0.64975 0.12017 0.84956 0.0
C557 C 0.65215 0.16688 0.81071 0.0
C558 C 0.63998 0.19181 0.8008 0.0
C559 C 0.63641 0.14359 0.83849 0.0
C560 C 0.61083 0.19201 0.81843 0.0
C561 C 0.59474 0.1686 0.84575 0.0
H562 H 0.45221 0.56578 0.06499 0.0
H563 H 0.57313 0.63551 0.05137 0.0
H564 H 0.56363 0.6576 -0.00117 0.0
H565 H 0.52138 0.66378 0.96051 0.0
H566 H 0.40049 0.59741 0.97621 0.0
H567 H 0.40974 0.56837 0.02464 0.0
C568 C 0.47651 0.58547 0.05032 0.0
C569 C 0.51333 0.59929 0.06239 0.0
C570 C 0.47089 0.59958 0.02094 0.0
C571 C 0.54446 0.62411 0.04272 0.0
C572 C 0.53906 0.63728 0.01286 0.0
C573 C 0.49698 0.64291 0.97444 0.0
C574 C 0.46031 0.63331 0.96489 0.0
C575 C 0.50246 0.62638 0.0024 0.0
C576 C 0.42907 0.60572 0.98306 0.0
C577 C 0.43431 0.58894 0.01074 0.0
H578 H 0.90346 0.53803 0.23452 0.0
H579 H 0.97079 0.48553 0.23524 0.0
H580 H 0.93769 0.44832 0.18631 0.0
H581 H 0.88281 0.42345 0.14959 0.0
H582 H 0.81343 0.47405 0.15062 0.0
H583 H 0.85418 0.51951 0.19265 0.0
C584 C 0.91175 0.51948 0.22309 0.0
C585 C 0.93948 0.51446 0.23812 0.0
C586 C 0.89154 0.49718 0.19596 0.0
C587 C 0.94988 0.49011 0.22367 0.0
C588 C 0.93053 0.46845 0.19608 0.0
C589 C 0.87676 0.44465 0.15878 0.0
C590 C 0.8446 0.44481 0.14753 0.0
C591 C 0.90015 0.47048 0.18304 0.0
C592 C 0.83774 0.47305 0.1591 0.0
C593 C 0.86102 0.49903 0.18314 0.0
loop_
_geom_bond_atom_site_label_1
_geom_bond_atom_site_label_2
_geom_bond_distance
_geom_bond_site_symmetry_2
_ccdc_geom_bond_type
H0 C8 0.930 . S
H1 C11 0.930 . S
H2 C13 0.930 . S
H3 C14 0.970 . S
H4 C14 0.970 . S
H5 C16 0.930 . S
H6 C18 0.930 . S
H7 C20 0.930 . S
C8 H0 0.930 . S
C8 C9 1.382 . S
C8 C10 1.426 . S
C9 C8 1.382 . S
C9 C13 1.389 . S
C10 C8 1.426 . S
C10 C11 1.375 . S
C10 C14 1.532 1_655 S
C11 H1 0.930 . S
C11 C10 1.375 . S
C11 C12 1.416 . S
C12 C11 1.416 . S
C12 C13 1.371 . S
C13 H2 0.930 . S
C13 C9 1.389 . S
C13 C12 1.371 . S
C14 H3 0.970 . S
C14 H4 0.970 . S
C14 C10 1.532 1_455 S
C14 C15 1.499 . S
C15 C14 1.499 . S
C15 C16 1.370 . S
C15 C20 1.415 . S
C16 H5 0.930 . S
C16 C15 1.370 . S
C16 C17 1.407 . S
C17 C16 1.407 . S
C17 C18 1.365 . S
C18 H6 0.930 . S
C18 C17 1.365 . S
C18 C19 1.393 . S
C19 C18 1.393 . S
C19 C20 1.387 . S
C20 H7 0.930 . S
C20 C15 1.415 . S
C20 C19 1.387 . S
H21 C29 0.930 . S
H22 C32 0.930 . S
H23 C34 0.930 . S
H24 C35 0.970 . S
H25 C35 0.970 . S
H26 C37 0.930 . S
H27 C39 0.930 . S
H28 C41 0.930 . S
C29 H21 0.930 . S
C29 C30 1.382 . S
C29 C31 1.426 . S
C30 C29 1.382 . S
C30 C34 1.389 . S
C31 C29 1.426 . S
C31 C32 1.375 . S
C31 C35 1.532 1_565 S
C32 H22 0.930 . S
C32 C31 1.375 . S
C32 C33 1.416 . S
C33 C32 1.416 . S
C33 C34 1.371 . S
C34 H23 0.930 . S
C34 C30 1.389 . S
C34 C33 1.371 . S
C35 H24 0.970 . S
C35 H25 0.970 . S
C35 C31 1.532 1_545 S
C35 C36 1.499 . S
C36 C35 1.499 . S
C36 C37 1.370 . S
C36 C41 1.415 . S
C37 H26 0.930 . S
C37 C36 1.370 . S
C37 C38 1.407 . S
C38 C37 1.407 . S
C38 C39 1.365 . S
C39 H27 0.930 . S
C39 C38 1.365 . S
C39 C40 1.393 . S
C40 C39 1.393 . S
C40 C41 1.387 . S
C41 H28 0.930 . S
C41 C36 1.415 . S
C41 C40 1.387 . S
H42 C50 0.930 . S
H43 C53 0.930 . S
H44 C55 0.930 . S
H45 C56 0.970 . S
H46 C56 0.970 . S
H47 C58 0.930 . S
H48 C60 0.930 . S
H49 C62 0.930 . S
C50 H42 0.930 . S
C50 C51 1.382 . S
C50 C52 1.426 . S
C51 C50 1.382 . S
C51 C55 1.389 . S
C52 C50 1.426 . S
C52 C53 1.375 . S
C52 C56 1.532 . S
C53 H43 0.930 . S
C53 C52 1.375 . S
C53 C54 1.416 . S
C54 C53 1.416 . S
C54 C55 1.371 . S
C55 H44 0.930 . S
C55 C51 1.389 . S
C55 C54 1.371 . S
C56 H45 0.970 . S
C56 H46 0.970 . S
C56 C52 1.532 . S
C56 C57 1.499 . S
C57 C56 1.499 . S
C57 C58 1.370 . S
C57 C62 1.415 . S
C58 H47 0.930 . S
C58 C57 1.370 . S
C58 C59 1.407 . S
C59 C58 1.407 . S
C59 C60 1.365 . S
C60 H48 0.930 . S
C60 C59 1.365 . S
C60 C61 1.393 . S
C61 C60 1.393 . S
C61 C62 1.387 . S
C62 H49 0.930 . S
C62 C57 1.415 . S
C62 C61 1.387 . S
H63 C71 0.930 . S
H64 C74 0.930 . S
H65 C76 0.930 . S
H66 C77 0.971 1_655 S
H67 C77 0.970 . S
H68 C79 0.930 . S
H69 C81 0.930 . S
H70 C83 0.930 . S
C71 H63 0.930 . S
C71 C72 1.382 . S
C71 C73 1.426 . S
C72 C71 1.382 . S
C72 C76 1.389 . S
C73 C71 1.426 . S
C73 C74 1.375 . S
C73 C77 1.532 1_655 S
C74 H64 0.930 . S
C74 C73 1.375 . S
C74 C75 1.416 . S
C75 C74 1.416 . S
C75 C76 1.371 . S
C76 H65 0.930 . S
C76 C72 1.389 . S
C76 C75 1.371 . S
C77 H66 0.971 1_455 S
C77 H67 0.970 . S
C77 C73 1.532 1_455 S
C77 C78 1.499 . S
C78 C77 1.499 . S
C78 C79 1.370 . S
C78 C83 1.415 . S
C79 H68 0.930 . S
C79 C78 1.370 . S
C79 C80 1.407 . S
C80 C79 1.407 . S
C80 C81 1.365 . S
C81 H69 0.930 . S
C81 C80 1.365 . S
C81 C82 1.393 . S
C82 C81 1.393 . S
C82 C83 1.387 . S
C83 H70 0.930 . S
C83 C78 1.415 . S
C83 C82 1.387 . S
H84 C92 0.930 . S
H85 C95 0.930 . S
H86 C97 0.930 . S
H87 C98 0.970 1_554 S
H88 C98 0.970 1_565 S
H89 C100 0.930 . S
H90 C102 0.930 . S
H91 C104 0.930 . S
C92 H84 0.930 . S
C92 C93 1.388 . S
C92 C94 1.426 1_554 S
C93 C92 1.388 . S
C93 C97 1.368 1_554 S
C94 C92 1.426 1_556 S
C94 C95 1.375 . S
C94 C98 1.532 . S
C95 H85 0.930 . S
C95 C94 1.375 . S
C95 C96 1.416 . S
C96 C95 1.416 . S
C96 C97 1.371 . S
C97 H86 0.930 . S
C97 C93 1.368 1_556 S
C97 C96 1.371 . S
C98 H87 0.970 1_556 S
C98 H88 0.970 1_545 S
C98 C94 1.532 . S
C98 C99 1.499 1_546 S
C99 C98 1.499 1_564 S
C99 C100 1.370 . S
C99 C104 1.415 1_554 S
C100 H89 0.930 . S
C100 C99 1.370 . S
C100 C101 1.407 . S
C101 C100 1.407 . S
C101 C102 1.365 . S
C102 H90 0.930 . S
C102 C101 1.365 . S
C102 C103 1.393 1_554 S
C103 C102 1.393 1_556 S
C103 C104 1.387 . S
C104 H91 0.930 . S
C104 C99 1.415 1_556 S
C104 C103 1.387 . S
H105 C113 0.930 . S
H106 C116 0.930 . S
H107 C118 0.930 . S
H108 C119 0.970 . S
H109 C119 0.970 . S
H110 C121 0.930 . S
H111 C123 0.930 . S
H112 C125 0.930 . S
C113 H105 0.930 . S
C113 C114 1.382 . S
C113 C115 1.426 . S
C114 C113 1.382 . S
C114 C118 1.389 . S
C115 C113 1.426 . S
C115 C116 1.375 . S
C115 C119 1.532 . S
C116 H106 0.930 . S
C116 C115 1.375 . S
C116 C117 1.416 . S
C117 C116 1.416 . S
C117 C118 1.371 . S
C118 H107 0.930 . S
C118 C114 1.389 . S
C118 C117 1.371 . S
C119 H108 0.970 . S
C119 H109 0.970 . S
C119 C115 1.532 . S
C119 C120 1.499 . S
C120 C119 1.499 . S
C120 C121 1.370 . S
C120 C125 1.415 . S
C121 H110 0.930 . S
C121 C120 1.370 . S
C121 C122 1.407 . S
C122 C121 1.407 . S
C122 C123 1.365 . S
C123 H111 0.930 . S
C123 C122 1.365 . S
C123 C124 1.393 . S
C124 C123 1.393 . S
C124 C125 1.387 . S
C125 H112 0.930 . S
C125 C120 1.415 . S
C125 C124 1.387 . S
Co126 O127 2.216 . S
Co126 O128 2.091 . S
Co126 O130 2.004 . S
Co126 O136 2.021 . S
Co126 O138 2.137 . S
Co126 O139 2.244 . S
O127 Co126 2.216 . S
O127 C134 1.247 . S
O128 Co126 2.091 . S
O128 C134 1.261 . S
C129 O138 1.247 . S
C129 O139 1.272 . S
O130 Co126 2.004 . S
O130 C135 1.259 . S
Co131 O132 2.061 . S
Co131 O137 2.052 . S
Co131 O139 2.135 . S
O132 Co131 2.061 . S
O132 C135 1.235 . S
C133 O136 1.238 . S
C133 O137 1.241 . S
C134 O127 1.247 . S
C134 O128 1.261 . S
C135 O130 1.259 . S
C135 O132 1.235 . S
O136 Co126 2.021 . S
O136 C133 1.238 . S
O137 Co131 2.052 . S
O137 C133 1.241 . S
O138 Co126 2.137 . S
O138 C129 1.247 . S
O139 Co126 2.244 . S
O139 C129 1.272 . S
O139 Co131 2.135 . S
Co140 O141 2.216 . S
Co140 O142 2.091 . S
Co140 O144 2.004 . S
Co140 O150 2.021 . S
Co140 O152 2.137 . S
Co140 O153 2.244 . S
O141 Co140 2.216 . S
O141 C148 1.247 . S
O142 Co140 2.091 . S
O142 C148 1.261 . S
C143 O152 1.247 . S
C143 O153 1.272 . S
O144 Co140 2.004 . S
O144 C149 1.259 . S
Co145 O146 2.061 . S
Co145 O151 2.052 . S
Co145 O153 2.135 . S
O146 Co145 2.061 . S
O146 C149 1.235 . S
C147 O150 1.238 . S
C147 O151 1.241 . S
C148 O141 1.247 . S
C148 O142 1.261 . S
C149 O144 1.259 . S
C149 O146 1.235 . S
O150 Co140 2.021 . S
O150 C147 1.238 . S
O151 Co145 2.052 . S
O151 C147 1.241 . S
O152 Co140 2.137 . S
O152 C143 1.247 . S
O153 Co140 2.244 . S
O153 C143 1.272 . S
O153 Co145 2.135 . S
Co154 O155 2.216 . S
Co154 O156 2.091 . S
Co154 O158 2.004 . S
Co154 O164 2.021 . S
Co154 O166 2.137 . S
Co154 O167 2.244 . S
O155 Co154 2.216 . S
O155 C162 1.247 . S
O156 Co154 2.091 . S
O156 C162 1.261 . S
C157 O166 1.247 . S
C157 O167 1.272 . S
O158 Co154 2.004 . S
O158 C163 1.259 . S
Co159 O160 2.061 . S
Co159 O165 2.052 . S
Co159 O167 2.135 . S
O160 Co159 2.061 . S
O160 C163 1.235 . S
C161 O164 1.238 . S
C161 O165 1.241 . S
C162 O155 1.247 . S
C162 O156 1.261 . S
C163 O158 1.259 . S
C163 O160 1.235 . S
O164 Co154 2.021 . S
O164 C161 1.238 . S
O165 Co159 2.052 . S
O165 C161 1.241 . S
O166 Co154 2.137 . S
O166 C157 1.247 . S
O167 Co154 2.244 . S
O167 C157 1.272 . S
O167 Co159 2.135 . S
Co168 O169 2.216 . S
Co168 O170 2.091 . S
Co168 O172 2.004 . S
Co168 O178 2.021 . S
Co168 O180 2.137 . S
Co168 O181 2.244 . S
O169 Co168 2.216 . S
O169 C176 1.247 . S
O170 Co168 2.091 . S
O170 C176 1.261 . S
C171 O180 1.247 . S
C171 O181 1.272 . S
O172 Co168 2.004 . S
O172 C177 1.259 . S
Co173 O174 2.061 . S
Co173 O179 2.052 . S
Co173 O181 2.135 . S
O174 Co173 2.061 . S
O174 C177 1.235 . S
C175 O178 1.238 . S
C175 O179 1.241 . S
C176 O169 1.247 . S
C176 O170 1.261 . S
C177 O172 1.259 . S
C177 O174 1.235 . S
O178 Co168 2.021 . S
O178 C175 1.238 . S
O179 Co173 2.052 . S
O179 C175 1.241 . S
O180 Co168 2.137 . S
O180 C171 1.247 . S
O181 Co168 2.244 . S
O181 C171 1.272 . S
O181 Co173 2.135 . S
Co182 O183 2.216 . S
Co182 O184 2.091 . S
Co182 O186 2.004 . S
Co182 O192 2.021 . S
Co182 O194 2.137 . S
Co182 O195 2.244 . S
O183 Co182 2.216 . S
O183 C190 1.247 . S
O184 Co182 2.091 . S
O184 C190 1.261 . S
C185 O194 1.247 . S
C185 O195 1.272 . S
O186 Co182 2.004 . S
O186 C191 1.259 . S
Co187 O188 2.061 . S
Co187 O193 2.052 . S
Co187 O195 2.135 . S
O188 Co187 2.061 . S
O188 C191 1.235 . S
C189 O192 1.238 . S
C189 O193 1.241 . S
C190 O183 1.247 . S
C190 O184 1.261 . S
C191 O186 1.259 . S
C191 O188 1.235 . S
O192 Co182 2.021 . S
O192 C189 1.238 . S
O193 Co187 2.052 . S
O193 C189 1.241 . S
O194 Co182 2.137 . S
O194 C185 1.247 . S
O195 Co182 2.244 . S
O195 C185 1.272 . S
O195 Co187 2.135 . S
Co196 O197 2.216 . S
Co196 O198 2.091 . S
Co196 O200 2.004 . S
Co196 O206 2.021 . S
Co196 O208 2.137 . S
Co196 O209 2.244 . S
O197 Co196 2.216 . S
O197 C204 1.247 . S
O198 Co196 2.091 . S
O198 C204 1.261 . S
C199 O208 1.247 . S
C199 O209 1.272 . S
O200 Co196 2.004 . S
O200 C205 1.259 . S
Co201 O202 2.061 . S
Co201 O207 2.052 . S
Co201 O209 2.135 . S
O202 Co201 2.061 . S
O202 C205 1.235 . S
C203 O206 1.238 . S
C203 O207 1.241 . S
C204 O197 1.247 . S
C204 O198 1.261 . S
C205 O200 1.259 . S
C205 O202 1.235 . S
O206 Co196 2.021 . S
O206 C203 1.238 . S
O207 Co201 2.052 . S
O207 C203 1.241 . S
O208 Co196 2.137 . S
O208 C199 1.247 . S
O209 Co196 2.244 . S
O209 C199 1.272 . S
O209 Co201 2.135 . S
H210 C216 0.930 . S
H211 C219 0.930 . S
H212 C220 0.930 . S
H213 C221 0.930 . S
H214 C224 0.930 . S
H215 C225 0.930 . S
C216 H210 0.930 . S
C216 C217 1.355 . S
C216 C218 1.415 . S
C217 C216 1.355 . S
C217 C219 1.419 . S
C218 C216 1.415 . S
C218 C223 1.425 . S
C218 C225 1.409 . S
C219 H211 0.930 . S
C219 C217 1.419 . S
C219 C220 1.362 . S
C220 H212 0.930 . S
C220 C219 1.362 . S
C220 C223 1.409 . S
C221 H213 0.930 . S
C221 C222 1.355 . S
C221 C223 1.415 . S
C222 C221 1.355 . S
C222 C224 1.419 . S
C223 C218 1.425 . S
C223 C220 1.409 . S
C223 C221 1.415 . S
C224 H214 0.930 . S
C224 C222 1.419 . S
C224 C225 1.362 . S
C225 H215 0.930 . S
C225 C218 1.409 . S
C225 C224 1.362 . S
H226 C232 0.930 . S
H227 C235 0.930 . S
H228 C236 0.930 . S
H229 C237 0.930 . S
H230 C240 0.930 . S
H231 C241 0.930 . S
C232 H226 0.930 . S
C232 C233 1.355 . S
C232 C234 1.415 . S
C233 C232 1.355 . S
C233 C235 1.419 . S
C234 C232 1.415 . S
C234 C239 1.425 . S
C234 C241 1.409 . S
C235 H227 0.930 . S
C235 C233 1.419 . S
C235 C236 1.362 . S
C236 H228 0.930 . S
C236 C235 1.362 . S
C236 C239 1.409 . S
C237 H229 0.930 . S
C237 C238 1.355 . S
C237 C239 1.415 . S
C238 C237 1.355 . S
C238 C240 1.419 . S
C239 C234 1.425 . S
C239 C236 1.409 . S
C239 C237 1.415 . S
C240 H230 0.930 . S
C240 C238 1.419 . S
C240 C241 1.362 . S
C241 H231 0.930 . S
C241 C234 1.409 . S
C241 C240 1.362 . S
H242 C248 0.930 . S
H243 C251 0.930 . S
H244 C252 0.930 . S
H245 C253 0.930 . S
H246 C256 0.930 . S
H247 C257 0.930 . S
C248 H242 0.930 . S
C248 C249 1.355 . S
C248 C250 1.415 . S
C249 C248 1.355 . S
C249 C251 1.419 . S
C250 C248 1.415 . S
C250 C255 1.425 . S
C250 C257 1.409 . S
C251 H243 0.930 . S
C251 C249 1.419 . S
C251 C252 1.362 . S
C252 H244 0.930 . S
C252 C251 1.362 . S
C252 C255 1.409 . S
C253 H245 0.930 . S
C253 C254 1.355 . S
C253 C255 1.415 . S
C254 C253 1.355 . S
C254 C256 1.419 . S
C255 C250 1.425 . S
C255 C252 1.409 . S
C255 C253 1.415 . S
C256 H246 0.930 . S
C256 C254 1.419 . S
C256 C257 1.362 . S
C257 H247 0.930 . S
C257 C250 1.409 . S
C257 C256 1.362 . S
H258 C264 0.930 . S
H259 C267 0.930 . S
H260 C268 0.930 . S
H261 C269 0.930 . S
H262 C272 0.930 . S
H263 C273 0.930 . S
C264 H258 0.930 . S
C264 C265 1.355 . S
C264 C266 1.415 . S
C265 C264 1.355 . S
C265 C267 1.419 . S
C266 C264 1.415 . S
C266 C271 1.425 . S
C266 C273 1.409 . S
C267 H259 0.930 . S
C267 C265 1.419 . S
C267 C268 1.362 . S
C268 H260 0.930 . S
C268 C267 1.362 . S
C268 C271 1.409 . S
C269 H261 0.930 . S
C269 C270 1.355 . S
C269 C271 1.415 . S
C270 C269 1.355 . S
C270 C272 1.419 . S
C271 C266 1.425 . S
C271 C268 1.409 . S
C271 C269 1.415 . S
C272 H262 0.930 . S
C272 C270 1.419 . S
C272 C273 1.362 . S
C273 H263 0.930 . S
C273 C266 1.409 . S
C273 C272 1.362 . S
H274 C280 0.930 . S
H275 C283 0.916 1_554 S
H276 C284 0.930 1_554 S
H277 C285 0.930 . S
H278 C288 0.930 . S
H279 C289 0.930 . S
C280 H274 0.930 . S
C280 C281 1.355 . S
C280 C282 1.415 . S
C281 C280 1.355 . S
C281 C283 1.432 . S
C282 C280 1.415 . S
C282 C287 1.425 . S
C282 C289 1.409 . S
C283 H275 0.916 1_556 S
C283 C281 1.432 . S
C283 C284 1.364 . S
C284 H276 0.930 1_556 S
C284 C283 1.364 . S
C284 C287 1.409 . S
C285 H277 0.930 . S
C285 C286 1.355 . S
C285 C287 1.415 . S
C286 C285 1.355 . S
C286 C288 1.419 . S
C287 C282 1.425 . S
C287 C284 1.409 . S
C287 C285 1.415 . S
C288 H278 0.930 . S
C288 C286 1.419 . S
C288 C289 1.362 . S
C289 H279 0.930 . S
C289 C282 1.409 . S
C289 C288 1.362 . S
H290 C296 0.930 . S
H291 C299 0.930 . S
H292 C300 0.930 . S
H293 C301 0.930 . S
H294 C304 0.930 . S
H295 C305 0.930 . S
C296 H290 0.930 . S
C296 C297 1.355 . S
C296 C298 1.415 . S
C297 C296 1.355 . S
C297 C299 1.419 . S
C298 C296 1.415 . S
C298 C303 1.425 . S
C298 C305 1.409 . S
C299 H291 0.930 . S
C299 C297 1.419 . S
C299 C300 1.362 . S
C300 H292 0.930 . S
C300 C299 1.362 . S
C300 C303 1.409 . S
C301 H293 0.930 . S
C301 C302 1.355 . S
C301 C303 1.415 . S
C302 C301 1.355 . S
C302 C304 1.419 . S
C303 C298 1.425 . S
C303 C300 1.409 . S
C303 C301 1.415 . S
C304 H294 0.930 . S
C304 C302 1.419 . S
C304 C305 1.362 . S
C305 H295 0.930 . S
C305 C298 1.409 . S
C305 C304 1.362 . S
H306 C312 0.930 . S
H307 C315 0.930 . S
H308 C316 0.930 . S
H309 C317 0.930 . S
H310 C320 0.930 . S
H311 C321 0.930 . S
C312 H306 0.930 . S
C312 C313 1.355 . S
C312 C314 1.415 . S
C313 C312 1.355 . S
C313 C315 1.419 . S
C314 C312 1.415 . S
C314 C319 1.425 . S
C314 C321 1.409 . S
C315 H307 0.930 . S
C315 C313 1.419 . S
C315 C316 1.362 . S
C316 H308 0.930 . S
C316 C315 1.362 . S
C316 C319 1.409 . S
C317 H309 0.930 . S
C317 C318 1.355 . S
C317 C319 1.415 . S
C318 C317 1.355 . S
C318 C320 1.419 . S
C319 C314 1.425 . S
C319 C316 1.409 . S
C319 C317 1.415 . S
C320 H310 0.930 . S
C320 C318 1.419 . S
C320 C321 1.362 . S
C321 H311 0.930 . S
C321 C314 1.409 . S
C321 C320 1.362 . S
H322 C328 0.930 . S
H323 C331 0.930 . S
H324 C332 0.930 . S
H325 C333 0.930 . S
H326 C336 0.930 . S
H327 C337 0.930 . S
C328 H322 0.930 . S
C328 C329 1.355 . S
C328 C330 1.415 . S
C329 C328 1.355 . S
C329 C331 1.419 . S
C330 C328 1.415 . S
C330 C335 1.425 . S
C330 C337 1.409 . S
C331 H323 0.930 . S
C331 C329 1.419 . S
C331 C332 1.362 . S
C332 H324 0.930 . S
C332 C331 1.362 . S
C332 C335 1.409 . S
C333 H325 0.930 . S
C333 C334 1.355 . S
C333 C335 1.415 . S
C334 C333 1.355 . S
C334 C336 1.419 . S
C335 C330 1.425 . S
C335 C332 1.409 . S
C335 C333 1.415 . S
C336 H326 0.930 . S
C336 C334 1.419 . S
C336 C337 1.362 . S
C337 H327 0.930 . S
C337 C330 1.409 . S
C337 C336 1.362 . S
H338 C344 0.930 . S
H339 C347 0.930 . S
H340 C348 0.930 . S
H341 C349 0.930 . S
H342 C352 0.930 . S
H343 C353 0.930 . S
C344 H338 0.930 . S
C344 C345 1.355 . S
C344 C346 1.415 . S
C345 C344 1.355 . S
C345 C347 1.419 . S
C346 C344 1.415 . S
C346 C351 1.425 . S
C346 C353 1.409 . S
C347 H339 0.930 . S
C347 C345 1.419 . S
C347 C348 1.362 . S
C348 H340 0.930 . S
C348 C347 1.362 . S
C348 C351 1.409 . S
C349 H341 0.930 . S
C349 C350 1.355 . S
C349 C351 1.415 . S
C350 C349 1.355 . S
C350 C352 1.419 . S
C351 C346 1.425 . S
C351 C348 1.409 . S
C351 C349 1.415 . S
C352 H342 0.930 . S
C352 C350 1.419 . S
C352 C353 1.362 . S
C353 H343 0.930 . S
C353 C346 1.409 . S
C353 C352 1.362 . S
H354 C360 0.930 . S
H355 C363 0.930 . S
H356 C364 0.930 . S
H357 C365 0.930 . S
H358 C368 0.930 . S
H359 C369 0.930 . S
C360 H354 0.930 . S
C360 C361 1.355 . S
C360 C362 1.415 . S
C361 C360 1.355 . S
C361 C363 1.419 1_554 S
C362 C360 1.415 . S
C362 C367 1.425 . S
C362 C369 1.409 . S
C363 H355 0.930 . S
C363 C361 1.419 1_556 S
C363 C364 1.362 . S
C364 H356 0.930 . S
C364 C363 1.362 . S
C364 C367 1.409 1_556 S
C365 H357 0.930 . S
C365 C366 1.355 . S
C365 C367 1.415 . S
C366 C365 1.355 . S
C366 C368 1.419 . S
C367 C362 1.425 . S
C367 C364 1.409 1_554 S
C367 C365 1.415 . S
C368 H358 0.930 . S
C368 C366 1.419 . S
C368 C369 1.362 . S
C369 H359 0.930 . S
C369 C362 1.409 . S
C369 C368 1.362 . S
H370 C376 0.930 . S
H371 C379 0.930 . S
H372 C380 0.930 . S
H373 C381 0.930 . S
H374 C384 0.930 . S
H375 C385 0.930 . S
C376 H370 0.930 . S
C376 C377 1.355 . S
C376 C378 1.415 . S
C377 C376 1.355 . S
C377 C379 1.419 . S
C378 C376 1.415 . S
C378 C383 1.425 . S
C378 C385 1.409 . S
C379 H371 0.930 . S
C379 C377 1.419 . S
C379 C380 1.362 . S
C380 H372 0.930 . S
C380 C379 1.362 . S
C380 C383 1.409 . S
C381 H373 0.930 . S
C381 C382 1.355 . S
C381 C383 1.415 . S
C382 C381 1.355 . S
C382 C384 1.419 . S
C383 C378 1.425 . S
C383 C380 1.409 . S
C383 C381 1.415 . S
C384 H374 0.930 . S
C384 C382 1.419 . S
C384 C385 1.362 . S
C385 H375 0.930 . S
C385 C378 1.409 . S
C385 C384 1.362 . S
H386 C392 0.930 . S
H387 C395 0.930 . S
H388 C396 0.930 . S
H389 C397 0.930 . S
H390 C400 0.930 . S
H391 C401 0.930 . S
C392 H386 0.930 . S
C392 C393 1.355 . S
C392 C394 1.415 . S
C393 C392 1.355 . S
C393 C395 1.419 . S
C394 C392 1.415 . S
C394 C399 1.425 . S
C394 C401 1.409 . S
C395 H387 0.930 . S
C395 C393 1.419 . S
C395 C396 1.362 . S
C396 H388 0.930 . S
C396 C395 1.362 . S
C396 C399 1.409 . S
C397 H389 0.930 . S
C397 C398 1.355 . S
C397 C399 1.415 . S
C398 C397 1.355 . S
C398 C400 1.419 . S
C399 C394 1.425 . S
C399 C396 1.409 . S
C399 C397 1.415 . S
C400 H390 0.930 . S
C400 C398 1.419 . S
C400 C401 1.362 . S
C401 H391 0.930 . S
C401 C394 1.409 . S
C401 C400 1.362 . S
H402 C408 0.930 . S
H403 C411 0.930 . S
H404 C412 0.930 . S
H405 C413 0.930 . S
H406 C416 0.930 . S
H407 C417 0.930 . S
C408 H402 0.930 . S
C408 C409 1.355 . S
C408 C410 1.415 . S
C409 C408 1.355 . S
C409 C411 1.419 . S
C410 C408 1.415 . S
C410 C415 1.425 . S
C410 C417 1.409 . S
C411 H403 0.930 . S
C411 C409 1.419 . S
C411 C412 1.362 . S
C412 H404 0.930 . S
C412 C411 1.362 . S
C412 C415 1.409 . S
C413 H405 0.930 . S
C413 C414 1.355 . S
C413 C415 1.415 . S
C414 C413 1.355 . S
C414 C416 1.419 . S
C415 C410 1.425 . S
C415 C412 1.409 . S
C415 C413 1.415 . S
C416 H406 0.930 . S
C416 C414 1.419 . S
C416 C417 1.362 . S
C417 H407 0.930 . S
C417 C410 1.409 . S
C417 C416 1.362 . S
H418 C424 0.930 . S
H419 C427 0.930 . S
H420 C428 0.930 . S
H421 C429 0.930 . S
H422 C432 0.930 . S
H423 C433 0.930 . S
C424 H418 0.930 . S
C424 C425 1.355 . S
C424 C426 1.415 . S
C425 C424 1.355 . S
C425 C427 1.419 . S
C426 C424 1.415 . S
C426 C431 1.425 . S
C426 C433 1.409 . S
C427 H419 0.930 . S
C427 C425 1.419 . S
C427 C428 1.362 . S
C428 H420 0.930 . S
C428 C427 1.362 . S
C428 C431 1.409 . S
C429 H421 0.930 . S
C429 C430 1.355 . S
C429 C431 1.415 . S
C430 C429 1.355 . S
C430 C432 1.419 . S
C431 C426 1.425 . S
C431 C428 1.409 . S
C431 C429 1.415 . S
C432 H422 0.930 . S
C432 C430 1.419 . S
C432 C433 1.362 . S
C433 H423 0.930 . S
C433 C426 1.409 . S
C433 C432 1.362 . S
H434 C440 0.930 . S
H435 C443 0.930 . S
H436 C444 0.930 . S
H437 C445 0.930 . S
H438 C448 0.930 . S
H439 C449 0.930 . S
C440 H434 0.930 . S
C440 C441 1.355 . S
C440 C442 1.415 . S
C441 C440 1.355 . S
C441 C443 1.419 . S
C442 C440 1.415 . S
C442 C447 1.425 . S
C442 C449 1.409 . S
C443 H435 0.930 . S
C443 C441 1.419 . S
C443 C444 1.362 . S
C444 H436 0.930 . S
C444 C443 1.362 . S
C444 C447 1.409 . S
C445 H437 0.930 . S
C445 C446 1.355 . S
C445 C447 1.415 . S
C446 C445 1.355 . S
C446 C448 1.419 . S
C447 C442 1.425 . S
C447 C444 1.409 . S
C447 C445 1.415 . S
C448 H438 0.930 . S
C448 C446 1.419 . S
C448 C449 1.362 . S
C449 H439 0.930 . S
C449 C442 1.409 . S
C449 C448 1.362 . S
H450 C456 0.930 . S
H451 C459 0.930 . S
H452 C460 0.930 . S
H453 C461 0.930 . S
H454 C464 0.930 . S
H455 C465 0.930 . S
C456 H450 0.930 . S
C456 C457 1.355 . S
C456 C458 1.415 . S
C457 C456 1.355 . S
C457 C459 1.419 . S
C458 C456 1.415 . S
C458 C463 1.425 . S
C458 C465 1.409 . S
C459 H451 0.930 . S
C459 C457 1.419 . S
C459 C460 1.362 . S
C460 H452 0.930 . S
C460 C459 1.362 . S
C460 C463 1.409 . S
C461 H453 0.930 . S
C461 C462 1.355 . S
C461 C463 1.415 . S
C462 C461 1.355 . S
C462 C464 1.419 . S
C463 C458 1.425 . S
C463 C460 1.409 . S
C463 C461 1.415 . S
C464 H454 0.930 . S
C464 C462 1.419 . S
C464 C465 1.362 . S
C465 H455 0.930 . S
C465 C458 1.409 . S
C465 C464 1.362 . S
H466 C472 0.930 . S
H467 C475 0.930 . S
H468 C476 0.930 . S
H469 C477 0.930 . S
H470 C480 0.930 . S
H471 C481 0.930 . S
C472 H466 0.930 . S
C472 C473 1.355 . S
C472 C474 1.415 . S
C473 C472 1.355 . S
C473 C475 1.419 . S
C474 C472 1.415 . S
C474 C479 1.425 . S
C474 C481 1.409 . S
C475 H467 0.930 . S
C475 C473 1.419 . S
C475 C476 1.362 . S
C476 H468 0.930 . S
C476 C475 1.362 . S
C476 C479 1.409 . S
C477 H469 0.930 . S
C477 C478 1.355 . S
C477 C479 1.415 . S
C478 C477 1.355 . S
C478 C480 1.419 . S
C479 C474 1.425 . S
C479 C476 1.409 . S
C479 C477 1.415 . S
C480 H470 0.930 . S
C480 C478 1.419 . S
C480 C481 1.362 . S
C481 H471 0.930 . S
C481 C474 1.409 . S
C481 C480 1.362 . S
H482 C488 0.930 . S
H483 C491 0.930 . S
H484 C492 0.930 . S
H485 C493 0.930 . S
H486 C496 0.930 . S
H487 C497 0.930 . S
C488 H482 0.930 . S
C488 C489 1.355 . S
C488 C490 1.415 . S
C489 C488 1.355 . S
C489 C491 1.419 . S
C490 C488 1.415 . S
C490 C495 1.425 . S
C490 C497 1.409 . S
C491 H483 0.930 . S
C491 C489 1.419 . S
C491 C492 1.362 . S
C492 H484 0.930 . S
C492 C491 1.362 . S
C492 C495 1.409 . S
C493 H485 0.930 . S
C493 C494 1.355 . S
C493 C495 1.415 . S
C494 C493 1.355 . S
C494 C496 1.419 . S
C495 C490 1.425 . S
C495 C492 1.409 . S
C495 C493 1.415 . S
C496 H486 0.930 . S
C496 C494 1.419 . S
C496 C497 1.362 . S
C497 H487 0.930 . S
C497 C490 1.409 . S
C497 C496 1.362 . S
H498 C504 0.930 . S
H499 C507 0.930 . S
H500 C508 0.930 . S
H501 C509 0.930 . S
H502 C512 0.930 . S
H503 C513 0.930 . S
C504 H498 0.930 . S
C504 C505 1.355 . S
C504 C506 1.415 . S
C505 C504 1.355 . S
C505 C507 1.419 . S
C506 C504 1.415 . S
C506 C511 1.425 . S
C506 C513 1.409 . S
C507 H499 0.930 . S
C507 C505 1.419 . S
C507 C508 1.362 . S
C508 H500 0.930 . S
C508 C507 1.362 . S
C508 C511 1.409 . S
C509 H501 0.930 . S
C509 C510 1.355 . S
C509 C511 1.415 . S
C510 C509 1.355 . S
C510 C512 1.419 . S
C511 C506 1.425 . S
C511 C508 1.409 . S
C511 C509 1.415 . S
C512 H502 0.930 . S
C512 C510 1.419 . S
C512 C513 1.362 . S
C513 H503 0.930 . S
C513 C506 1.409 . S
C513 C512 1.362 . S
H514 C520 0.930 . S
H515 C523 0.930 . S
H516 C524 0.930 . S
H517 C525 0.930 . S
H518 C528 0.930 . S
H519 C529 0.930 . S
C520 H514 0.930 . S
C520 C521 1.355 . S
C520 C522 1.415 . S
C521 C520 1.355 . S
C521 C523 1.419 . S
C522 C520 1.415 . S
C522 C527 1.425 . S
C522 C529 1.409 . S
C523 H515 0.930 . S
C523 C521 1.419 . S
C523 C524 1.362 . S
C524 H516 0.930 . S
C524 C523 1.362 . S
C524 C527 1.409 . S
C525 H517 0.930 . S
C525 C526 1.355 . S
C525 C527 1.415 . S
C526 C525 1.355 . S
C526 C528 1.419 . S
C527 C522 1.425 . S
C527 C524 1.409 . S
C527 C525 1.415 . S
C528 H518 0.930 . S
C528 C526 1.419 . S
C528 C529 1.362 . S
C529 H519 0.930 . S
C529 C522 1.409 . S
C529 C528 1.362 . S
H530 C536 0.930 . S
H531 C539 0.930 . S
H532 C540 0.930 . S
H533 C541 0.930 . S
H534 C544 0.930 . S
H535 C545 0.930 . S
C536 H530 0.930 . S
C536 C537 1.355 . S
C536 C538 1.415 . S
C537 C536 1.355 . S
C537 C539 1.419 . S
C538 C536 1.415 . S
C538 C543 1.425 . S
C538 C545 1.409 . S
C539 H531 0.930 . S
C539 C537 1.419 . S
C539 C540 1.362 . S
C540 H532 0.930 . S
C540 C539 1.362 . S
C540 C543 1.409 . S
C541 H533 0.930 . S
C541 C542 1.355 . S
C541 C543 1.415 . S
C542 C541 1.355 . S
C542 C544 1.419 . S
C543 C538 1.425 . S
C543 C540 1.409 . S
C543 C541 1.415 . S
C544 H534 0.930 . S
C544 C542 1.419 . S
C544 C545 1.362 . S
C545 H535 0.930 . S
C545 C538 1.409 . S
C545 C544 1.362 . S
H546 C552 0.930 . S
H547 C555 0.930 . S
H548 C556 0.930 . S
H549 C557 0.930 . S
H550 C560 0.930 . S
H551 C561 0.930 . S
C552 H546 0.930 . S
C552 C553 1.355 . S
C552 C554 1.415 . S
C553 C552 1.355 . S
C553 C555 1.419 . S
C554 C552 1.415 . S
C554 C559 1.425 . S
C554 C561 1.409 . S
C555 H547 0.930 . S
C555 C553 1.419 . S
C555 C556 1.362 . S
C556 H548 0.930 . S
C556 C555 1.362 . S
C556 C559 1.409 . S
C557 H549 0.930 . S
C557 C558 1.355 . S
C557 C559 1.415 . S
C558 C557 1.355 . S
C558 C560 1.419 . S
C559 C554 1.425 . S
C559 C556 1.409 . S
C559 C557 1.415 . S
C560 H550 0.930 . S
C560 C558 1.419 . S
C560 C561 1.362 . S
C561 H551 0.930 . S
C561 C554 1.409 . S
C561 C560 1.362 . S
H562 C568 0.930 . S
H563 C571 0.930 . S
H564 C572 0.930 . S
H565 C573 0.930 . S
H566 C576 0.930 . S
H567 C577 0.930 . S
C568 H562 0.930 . S
C568 C569 1.355 . S
C568 C570 1.415 . S
C569 C568 1.355 . S
C569 C571 1.419 . S
C570 C568 1.415 . S
C570 C575 1.425 . S
C570 C577 1.409 . S
C571 H563 0.930 . S
C571 C569 1.419 . S
C571 C572 1.362 . S
C572 H564 0.930 . S
C572 C571 1.362 . S
C572 C575 1.409 . S
C573 H565 0.930 . S
C573 C574 1.355 . S
C573 C575 1.415 1_556 S
C574 C573 1.355 . S
C574 C576 1.419 1_556 S
C575 C570 1.425 . S
C575 C572 1.409 . S
C575 C573 1.415 1_554 S
C576 H566 0.930 . S
C576 C574 1.419 1_554 S
C576 C577 1.362 . S
C577 H567 0.930 . S
C577 C570 1.409 . S
C577 C576 1.362 . S
H578 C584 0.930 . S
H579 C587 0.930 . S
H580 C588 0.930 . S
H581 C589 0.930 . S
H582 C592 0.930 . S
H583 C593 0.930 . S
C584 H578 0.930 . S
C584 C585 1.355 . S
C584 C586 1.415 . S
C585 C584 1.355 . S
C585 C587 1.419 . S
C586 C584 1.415 . S
C586 C591 1.425 . S
C586 C593 1.409 . S
C587 H579 0.930 . S
C587 C585 1.419 . S
C587 C588 1.362 . S
C588 H580 0.930 . S
C588 C587 1.362 . S
C588 C591 1.409 . S
C589 H581 0.930 . S
C589 C590 1.355 . S
C589 C591 1.415 . S
C590 C589 1.355 . S
C590 C592 1.419 . S
C591 C586 1.425 . S
C591 C588 1.409 . S
C591 C589 1.415 . S
C592 H582 0.930 . S
C592 C590 1.419 . S
C592 C593 1.362 . S
C593 H583 0.930 . S
C593 C586 1.409 . S
C593 C592 1.362 . S
C222 C199 1.585 . S
C217 C19 1.530 . S
C233 C40 1.514 . S
C238 C129 1.591 . S
C249 C51 1.529 . S
C254 C148 1.609 . S
C265 C72 1.493 . S
C270 C157 1.594 . S
C286 C171 1.589 . S
C281 C103 1.480 . S
C297 C114 1.532 . S
C302 C190 1.601 . S
C313 C30 1.483 . S
C318 C143 1.589 . S
C329 C61 1.492 . S
C334 C162 1.578 . S
C345 C82 1.450 . S
C350 C176 1.572 . S
C366 C185 1.582 . S
C361 C93 1.485 . S
C382 C204 1.583 . S
C377 C124 1.527 . S
C398 C134 1.575 . S
C393 C9 1.433 . S
C409 C17 1.473 . S
C414 C149 1.498 . S
C425 C38 1.454 . S
C430 C161 1.510 . S
C446 C175 1.506 . S
C441 C54 1.465 . S
C457 C75 1.411 . S
C462 C191 1.520 1_556 S
C478 C203 1.509 . S
C473 C101 1.478 . S
C494 C133 1.510 . S
C489 C117 1.463 . S
C510 C205 1.502 . S
C505 C33 1.388 . S
C521 C59 1.385 . S
C526 C135 1.511 . S
C542 C147 1.486 . S
C537 C80 1.404 . S
C553 C96 1.385 . S
C558 C163 1.508 . S
C569 C122 1.455 . S
C574 C177 1.527 . S
C585 C12 1.420 . S
C590 C189 1.499 . S
