# Generated by pormake.
# Topology pyr, (3,6)-cn, num edge types: 1
# Building blocks:
#     Node 0, Type 0, BuildingBlock: MIDCAF_clean_linker_0, # of connection points: 3
#     Node 1, Type 0, BuildingBlock: MIDCAF_clean_linker_0, # of connection points: 3
#     Node 2, Type 0, BuildingBlock: MIDCAF_clean_linker_0, # of connection points: 3
#     Node 3, Type 0, BuildingBlock: MIDCAF_clean_linker_0, # of connection points: 3
#     Node 4, Type 0, BuildingBlock: MIDCAF_clean_linker_0, # of connection points: 3
#     Node 5, Type 0, BuildingBlock: MIDCAF_clean_linker_0, # of connection points: 3
#     Node 6, Type 0, BuildingBlock: MIDCAF_clean_linker_0, # of connection points: 3
#     Node 7, Type 0, BuildingBlock: MIDCAF_clean_linker_0, # of connection points: 3
#     Node 8, Type 1, BuildingBlock: BETFAJ_clean_sbu_0, # of connection points: 6
#     Node 9, Type 1, BuildingBlock: BETFAJ_clean_sbu_0, # of connection points: 6
#     Node 10, Type 1, BuildingBlock: BETFAJ_clean_sbu_0, # of connection points: 6
#     Node 11, Type 1, BuildingBlock: BETFAJ_clean_sbu_0, # of connection points: 6
#     Edge 12, Type (0, 1), BuildingBlock: ZUJKAS_clean_linker_0, # of connection points: 2
#     Edge 13, Type (0, 1), BuildingBlock: ZUJKAS_clean_linker_0, # of connection points: 2
#     Edge 14, Type (0, 1), BuildingBlock: ZUJKAS_clean_linker_0, # of connection points: 2
#     Edge 15, Type (0, 1), BuildingBlock: ZUJKAS_clean_linker_0, # of connection points: 2
#     Edge 16, Type (0, 1), BuildingBlock: ZUJKAS_clean_linker_0, # of connection points: 2
#     Edge 17, Type (0, 1), BuildingBlock: ZUJKAS_clean_linker_0, # of connection points: 2
#     Edge 18, Type (0, 1), BuildingBlock: ZUJKAS_clean_linker_0, # of connection points: 2
#     Edge 19, Type (0, 1), BuildingBlock: ZUJKAS_clean_linker_0, # of connection points: 2
#     Edge 20, Type (0, 1), BuildingBlock: ZUJKAS_clean_linker_0, # of connection points: 2
#     Edge 21, Type (0, 1), BuildingBlock: ZUJKAS_clean_linker_0, # of connection points: 2
#     Edge 22, Type (0, 1), BuildingBlock: ZUJKAS_clean_linker_0, # of connection points: 2
#     Edge 23, Type (0, 1), BuildingBlock: ZUJKAS_clean_linker_0, # of connection points: 2
#     Edge 24, Type (0, 1), BuildingBlock: ZUJKAS_clean_linker_0, # of connection points: 2
#     Edge 25, Type (0, 1), BuildingBlock: ZUJKAS_clean_linker_0, # of connection points: 2
#     Edge 26, Type (0, 1), BuildingBlock: ZUJKAS_clean_linker_0, # of connection points: 2
#     Edge 27, Type (0, 1), BuildingBlock: ZUJKAS_clean_linker_0, # of connection points: 2
#     Edge 28, Type (0, 1), BuildingBlock: ZUJKAS_clean_linker_0, # of connection points: 2
#     Edge 29, Type (0, 1), BuildingBlock: ZUJKAS_clean_linker_0, # of connection points: 2
#     Edge 30, Type (0, 1), BuildingBlock: ZUJKAS_clean_linker_0, # of connection points: 2
#     Edge 31, Type (0, 1), BuildingBlock: ZUJKAS_clean_linker_0, # of connection points: 2
#     Edge 32, Type (0, 1), BuildingBlock: ZUJKAS_clean_linker_0, # of connection points: 2
#     Edge 33, Type (0, 1), BuildingBlock: ZUJKAS_clean_linker_0, # of connection points: 2
#     Edge 34, Type (0, 1), BuildingBlock: ZUJKAS_clean_linker_0, # of connection points: 2
#     Edge 35, Type (0, 1), BuildingBlock: ZUJKAS_clean_linker_0, # of connection points: 2
# Relax obj value: 0.073
# Max RMSD: 0.117
# Mean RMSD: 0.054
data_MOF--net-pyr--node1-BETFAJ_clean_sbu_0--node2-MIDCAF_clean_linker_0--edge1-ZUJKAS_clean_linker_0
_symmetry_space_group_name_H-M    P1
_symmetry_Int_Tables_number       1
_symmetry_cell_setting            triclinic
loop_
_symmetry_equiv_pos_as_xyz
'x, y, z'
_cell_length_a     57.476184
_cell_length_b     60.606469
_cell_length_c     54.752789
_cell_angle_alpha  90.814848
_cell_angle_beta   88.645241
_cell_angle_gamma 99.486561
loop_
_atom_site_label
_atom_site_type_symbol
_atom_site_fract_x
_atom_site_fract_y
_atom_site_fract_z
_atom_type_partial_charge
C0 C 0.26263 0.25803 0.29971 0.0
C1 C 0.26942 0.23992 0.3119 0.0
C2 C 0.29066 0.23279 0.3047 0.0
C3 C 0.30395 0.24254 0.28477 0.0
H4 H 0.35054 0.22675 0.23398 0.0
H5 H 0.3752 0.20285 0.21403 0.0
H6 H 0.37839 0.24231 0.14858 0.0
H7 H 0.35302 0.26614 0.16841 0.0
H8 H 0.30633 0.29549 0.16438 0.0
H9 H 0.28477 0.32112 0.14381 0.0
H10 H 0.27202 0.35224 0.2133 0.0
H11 H 0.29265 0.32613 0.23379 0.0
H12 H 0.26963 0.28118 0.27039 0.0
H13 H 0.24628 0.26386 0.30452 0.0
H14 H 0.29668 0.2192 0.31402 0.0
H15 H 0.31973 0.23605 0.27916 0.0
N16 N 0.32414 0.25636 0.23742 0.0
N17 N 0.32594 0.27913 0.20285 0.0
N18 N 0.30146 0.28497 0.23644 0.0
C19 C 0.33319 0.26196 0.21476 0.0
C20 C 0.31024 0.29086 0.2138 0.0
C21 C 0.30826 0.26774 0.24838 0.0
C22 C 0.34961 0.24839 0.20281 0.0
C23 C 0.35652 0.23052 0.21537 0.0
C24 C 0.37088 0.21683 0.20397 0.0
C25 C 0.37884 0.22065 0.1797 0.0
C26 C 0.37234 0.23876 0.16721 0.0
C27 C 0.3579 0.2525 0.17865 0.0
C28 C 0.30089 0.30859 0.20072 0.0
C29 C 0.29923 0.30806 0.17515 0.0
C30 C 0.2869 0.3228 0.16337 0.0
C31 C 0.27625 0.33851 0.17693 0.0
C32 C 0.27936 0.33994 0.20233 0.0
C33 C 0.29135 0.32506 0.21409 0.0
C34 C 0.29639 0.25977 0.2717 0.0
C35 C 0.27601 0.26791 0.27994 0.0
C36 C 0.27035 0.92508 0.60074 0.0
C37 C 0.2593 0.92121 0.57814 0.0
C38 C 0.26817 0.90719 0.56085 0.0
C39 C 0.28755 0.89703 0.56619 0.0
H40 H 0.32862 0.85199 0.53942 0.0
H41 H 0.34108 0.82323 0.51285 0.0
H42 H 0.3959 0.81583 0.56331 0.0
H43 H 0.38389 0.84465 0.58948 0.0
H44 H 0.38465 0.86893 0.643 0.0
H45 H 0.39658 0.87018 0.68574 0.0
H46 H 0.3313 0.892 0.70761 0.0
H47 H 0.31942 0.89095 0.66523 0.0
H48 H 0.2975 0.91811 0.62387 0.0
H49 H 0.26375 0.9356 0.61454 0.0
H50 H 0.26014 0.90409 0.54316 0.0
H51 H 0.29382 0.88615 0.55256 0.0
N52 N 0.32789 0.87648 0.5785 0.0
N53 N 0.35343 0.86696 0.60797 0.0
N54 N 0.32604 0.89027 0.61856 0.0
C55 C 0.34563 0.86546 0.58464 0.0
C56 C 0.34366 0.87931 0.62502 0.0
C57 C 0.31814 0.88908 0.59536 0.0
C58 C 0.35505 0.85042 0.56679 0.0
C59 C 0.34364 0.84454 0.5446 0.0
C60 C 0.35071 0.82801 0.52939 0.0
C61 C 0.36941 0.81719 0.53599 0.0
C62 C 0.38163 0.82403 0.55746 0.0
C63 C 0.37455 0.84043 0.57266 0.0
C64 C 0.35114 0.87993 0.65071 0.0
C65 C 0.37284 0.87394 0.65695 0.0
C66 C 0.37969 0.87468 0.68134 0.0
C67 C 0.36476 0.88101 0.69989 0.0
C68 C 0.343 0.88676 0.69367 0.0
C69 C 0.33632 0.88636 0.66935 0.0
C70 C 0.29836 0.90062 0.58901 0.0
C71 C 0.28963 0.9149 0.60613 0.0
C72 C 0.64424 0.28094 0.90076 0.0
C73 C 0.62432 0.26788 0.89037 0.0
C74 C 0.61487 0.27617 0.86948 0.0
C75 C 0.62496 0.29693 0.85945 0.0
H76 H 0.62233 0.34196 0.79971 0.0
H77 H 0.60581 0.35904 0.76529 0.0
H78 H 0.65198 0.42132 0.7796 0.0
H79 H 0.66845 0.4044 0.81389 0.0
H80 H 0.71781 0.3998 0.84388 0.0
H81 H 0.75362 0.41904 0.86318 0.0
H82 H 0.74006 0.37464 0.92465 0.0
H83 H 0.70441 0.3554 0.9055 0.0
H84 H 0.66966 0.31091 0.89946 0.0
H85 H 0.65236 0.27509 0.91654 0.0
H86 H 0.59943 0.26675 0.86103 0.0
H87 H 0.6171 0.30273 0.84348 0.0
N88 N 0.64676 0.34116 0.84003 0.0
N89 N 0.67688 0.37257 0.84177 0.0
N90 N 0.67567 0.34369 0.87001 0.0
C91 C 0.65707 0.36146 0.83101 0.0
C92 C 0.68633 0.36382 0.86127 0.0
C93 C 0.65597 0.33215 0.85962 0.0
C94 C 0.64681 0.3717 0.80978 0.0
C95 C 0.62898 0.3593 0.79557 0.0
C96 C 0.61957 0.36909 0.77568 0.0
C97 C 0.62746 0.39165 0.76957 0.0
C98 C 0.64521 0.40402 0.78384 0.0
C99 C 0.6548 0.3942 0.8035 0.0
C100 C 0.70808 0.37596 0.87305 0.0
C101 C 0.7224 0.39414 0.86154 0.0
C102 C 0.74305 0.40512 0.87255 0.0
C103 C 0.74977 0.39844 0.89552 0.0
C104 C 0.73534 0.38041 0.90709 0.0
C105 C 0.71491 0.36927 0.89598 0.0
C106 C 0.64487 0.30998 0.86996 0.0
C107 C 0.65432 0.30157 0.89076 0.0
C108 C 0.77705 0.65705 0.40549 0.0
C109 C 0.76353 0.63798 0.39493 0.0
C110 C 0.77212 0.62925 0.37314 0.0
C111 C 0.79348 0.63942 0.36218 0.0
H112 H 0.84025 0.63419 0.30395 0.0
H113 H 0.85736 0.61668 0.26924 0.0
H114 H 0.921 0.66548 0.27443 0.0
H115 H 0.90352 0.68348 0.30875 0.0
H116 H 0.90011 0.72924 0.34258 0.0
H117 H 0.91741 0.76573 0.35934 0.0
H118 H 0.86485 0.75805 0.41763 0.0
H119 H 0.84734 0.72212 0.40075 0.0
H120 H 0.80804 0.68191 0.40334 0.0
H121 H 0.77138 0.66406 0.42248 0.0
H122 H 0.76215 0.61474 0.36427 0.0
H123 H 0.79938 0.63231 0.34534 0.0
N124 N 0.83916 0.66063 0.34132 0.0
N125 N 0.87052 0.69098 0.34017 0.0
N126 N 0.84038 0.68983 0.37001 0.0
C127 C 0.85978 0.67097 0.33079 0.0
C128 C 0.86087 0.70056 0.35981 0.0
C129 C 0.82935 0.66992 0.361 0.0
C130 C 0.87042 0.66033 0.30935 0.0
C131 C 0.8579 0.64127 0.29775 0.0
C132 C 0.86784 0.63107 0.27782 0.0
C133 C 0.89073 0.63947 0.26888 0.0
C134 C 0.90323 0.65861 0.28044 0.0
C135 C 0.89322 0.66891 0.30031 0.0
C136 C 0.87219 0.72261 0.37015 0.0
C137 C 0.89225 0.73533 0.35898 0.0
C138 C 0.90226 0.75626 0.36869 0.0
C139 C 0.89249 0.76506 0.38982 0.0
C140 C 0.87264 0.75217 0.40108 0.0
C141 C 0.86264 0.73135 0.39141 0.0
C142 C 0.80681 0.65866 0.37266 0.0
C143 C 0.79828 0.66726 0.39452 0.0
C144 C 0.64667 0.82115 0.85619 0.0
C145 C 0.64438 0.82159 0.88178 0.0
C146 C 0.65548 0.807 0.89545 0.0
C147 C 0.66912 0.7927 0.88379 0.0
H148 H 0.70958 0.74245 0.89591 0.0
H149 H 0.73025 0.71687 0.9178 0.0
H150 H 0.76089 0.69759 0.84958 0.0
H151 H 0.74011 0.72263 0.82776 0.0
H152 H 0.74996 0.7597 0.78741 0.0
H153 H 0.77221 0.77672 0.75241 0.0
H154 H 0.72359 0.82364 0.74681 0.0
H155 H 0.70157 0.80699 0.78239 0.0
H156 H 0.6623 0.80758 0.82483 0.0
H157 H 0.63849 0.83232 0.84517 0.0
H158 H 0.65382 0.80683 0.9152 0.0
H159 H 0.67787 0.78203 0.89488 0.0
N160 N 0.69694 0.76313 0.85787 0.0
N161 N 0.72106 0.75772 0.8239 0.0
N162 N 0.69688 0.78516 0.82294 0.0
C163 C 0.71302 0.75192 0.84682 0.0
C164 C 0.71313 0.7743 0.81181 0.0
C165 C 0.68861 0.77966 0.84589 0.0
C166 C 0.72332 0.73478 0.86007 0.0
C167 C 0.72043 0.73249 0.88555 0.0
C168 C 0.73238 0.71794 0.89812 0.0
C169 C 0.74728 0.70525 0.88545 0.0
C170 C 0.74935 0.70689 0.8599 0.0
C171 C 0.73755 0.72145 0.84739 0.0
C172 C 0.72417 0.7822 0.78807 0.0
C173 C 0.74372 0.77342 0.77856 0.0
C174 C 0.75645 0.78311 0.75829 0.0
C175 C 0.74986 0.80173 0.74694 0.0
C176 C 0.72941 0.80959 0.75544 0.0
C177 C 0.71672 0.79996 0.77579 0.0
C178 C 0.67217 0.79291 0.85822 0.0
C179 C 0.66046 0.80705 0.84456 0.0
C180 C 0.67431 0.14228 0.37747 0.0
C181 C 0.65524 0.15244 0.37057 0.0
C182 C 0.6481 0.16904 0.38583 0.0
C183 C 0.66018 0.17571 0.40728 0.0
H184 H 0.65506 0.20119 0.48324 0.0
H185 H 0.64187 0.22965 0.50951 0.0
H186 H 0.71456 0.25915 0.52155 0.0
H187 H 0.72759 0.22996 0.49647 0.0
H188 H 0.76556 0.1966 0.48578 0.0
H189 H 0.80415 0.18568 0.49021 0.0
H190 H 0.78651 0.13344 0.43599 0.0
H191 H 0.74831 0.14469 0.43102 0.0
H192 H 0.70139 0.1411 0.40317 0.0
H193 H 0.68042 0.12962 0.36595 0.0
H194 H 0.63332 0.17703 0.38106 0.0
H195 H 0.65456 0.18887 0.4184 0.0
N196 N 0.68642 0.18869 0.45155 0.0
N197 N 0.72218 0.19187 0.47218 0.0
N198 N 0.71593 0.16894 0.4374 0.0
C199 C 0.70035 0.19737 0.47024 0.0
C200 C 0.73004 0.17754 0.4559 0.0
C201 C 0.69416 0.17447 0.43502 0.0
C202 C 0.69233 0.21353 0.48758 0.0
C203 C 0.66817 0.21363 0.49176 0.0
C204 C 0.66064 0.23 0.50677 0.0
C205 C 0.67712 0.24696 0.51745 0.0
C206 C 0.70131 0.24625 0.51398 0.0
C207 C 0.70882 0.2296 0.49939 0.0
C208 C 0.75376 0.17144 0.45815 0.0
C209 C 0.76995 0.18285 0.47471 0.0
C210 C 0.79206 0.17658 0.47729 0.0
C211 C 0.7984 0.15867 0.46348 0.0
C212 C 0.78237 0.14755 0.44661 0.0
C213 C 0.76034 0.1539 0.44391 0.0
C214 C 0.67979 0.16604 0.41372 0.0
C215 C 0.68645 0.149 0.39875 0.0
C216 C 0.28448 0.63837 0.18136 0.0
C217 C 0.27506 0.64773 0.16114 0.0
C218 C 0.28713 0.66823 0.15217 0.0
C219 C 0.30783 0.67907 0.16307 0.0
H220 H 0.35665 0.73478 0.15727 0.0
H221 H 0.37436 0.77072 0.14073 0.0
H222 H 0.42745 0.7776 0.19603 0.0
H223 H 0.4094 0.7415 0.21301 0.0
H224 H 0.4085 0.69915 0.25143 0.0
H225 H 0.42446 0.68165 0.28582 0.0
H226 H 0.36851 0.62491 0.28 0.0
H227 H 0.35233 0.64249 0.24615 0.0
H228 H 0.31176 0.64149 0.20787 0.0
H229 H 0.27562 0.62278 0.18905 0.0
H230 H 0.28078 0.67585 0.13642 0.0
H231 H 0.31649 0.69478 0.15548 0.0
N232 N 0.35013 0.70167 0.18642 0.0
N233 N 0.37945 0.70328 0.21588 0.0
N234 N 0.34881 0.67234 0.21411 0.0
C235 C 0.37015 0.71276 0.19665 0.0
C236 C 0.36888 0.683 0.22475 0.0
C237 C 0.33928 0.68152 0.19494 0.0
C238 C 0.3815 0.73497 0.1866 0.0
C239 C 0.37211 0.74382 0.16604 0.0
C240 C 0.38242 0.76452 0.15635 0.0
C241 C 0.4025 0.77722 0.16685 0.0
C242 C 0.41189 0.76848 0.18751 0.0
C243 C 0.40159 0.74764 0.1972 0.0
C244 C 0.379 0.67239 0.24582 0.0
C245 C 0.39955 0.68295 0.25747 0.0
C246 C 0.40882 0.67281 0.2772 0.0
C247 C 0.39783 0.65178 0.28596 0.0
C248 C 0.37734 0.64124 0.27423 0.0
C249 C 0.36809 0.65134 0.25455 0.0
C250 C 0.31721 0.66977 0.18334 0.0
C251 C 0.30522 0.64922 0.19229 0.0
C252 C 0.14079 0.2866 0.65084 0.0
C253 C 0.12217 0.2731 0.66335 0.0
C254 C 0.1142 0.28098 0.68586 0.0
C255 C 0.12457 0.30181 0.69553 0.0
H256 H 0.11087 0.36077 0.73914 0.0
H257 H 0.09438 0.37906 0.77419 0.0
H258 H 0.16381 0.41428 0.79066 0.0
H259 H 0.18027 0.39644 0.75543 0.0
H260 H 0.21423 0.40777 0.70407 0.0
H261 H 0.25025 0.42629 0.68365 0.0
H262 H 0.24665 0.3711 0.63235 0.0
H263 H 0.21053 0.35285 0.65231 0.0
H264 H 0.16565 0.31698 0.6503 0.0
H265 H 0.14763 0.28102 0.63364 0.0
H266 H 0.09977 0.27112 0.69592 0.0
H267 H 0.11798 0.30729 0.71289 0.0
N268 N 0.14587 0.34669 0.71325 0.0
N269 N 0.17758 0.3767 0.71193 0.0
N270 N 0.17556 0.34769 0.68292 0.0
C271 C 0.15703 0.36652 0.72267 0.0
C272 C 0.18695 0.36745 0.69197 0.0
C273 C 0.15511 0.3371 0.69337 0.0
C274 C 0.14693 0.37711 0.74438 0.0
C275 C 0.12264 0.37237 0.75025 0.0
C276 C 0.11316 0.38294 0.77025 0.0
C277 C 0.12779 0.39811 0.78522 0.0
C278 C 0.15209 0.40258 0.77959 0.0
C279 C 0.16149 0.39241 0.7593 0.0
C280 C 0.20927 0.37876 0.6799 0.0
C281 C 0.22108 0.39955 0.68844 0.0
C282 C 0.24188 0.41016 0.67677 0.0
C283 C 0.25144 0.40029 0.65623 0.0
C284 C 0.23968 0.37945 0.64782 0.0
C285 C 0.21894 0.36887 0.65945 0.0
C286 C 0.14336 0.31521 0.68305 0.0
C287 C 0.15126 0.30726 0.66055 0.0
Sm288 Sm 0.01754 0.02941 0.50213 0.0
Sm289 Sm 1.00418 1.00829 0.55154 0.0
C290 C 0.02354 0.04844 0.45895 0.0
C291 C 0.04293 0.06455 0.44818 0.0
C292 C 0.03801 0.08294 0.43515 0.0
C293 C 0.05644 0.09888 0.42596 0.0
C294 C 0.08006 0.09654 0.42954 0.0
C295 C 0.08489 0.07807 0.44255 0.0
C296 C 0.06653 0.06231 0.45189 0.0
C297 C 0.05501 1.0174 0.52606 0.0
C298 C 0.03016 0.05934 0.55108 0.0
C299 C 0.9962 0.98275 0.59078 0.0
C300 C 0.97785 0.9641 0.59809 0.0
C301 C 0.97866 0.95425 0.62095 0.0
C302 C 0.96009 0.93789 0.62893 0.0
C303 C 0.9404 0.9312 0.61416 0.0
C304 C 0.94006 0.9407 0.59091 0.0
C305 C 0.95862 0.95705 0.58297 0.0
C306 C 0.97298 0.03388 0.53433 0.0
C307 C 0.98835 0.97778 0.50261 0.0
O308 O 0.01147 0.05617 0.47681 0.0
O309 O 0.02829 0.02843 0.46313 0.0
O310 O 0.03458 1.00617 0.52535 0.0
O311 O 0.05659 0.03509 0.51279 0.0
O312 O 0.02176 0.05964 0.5288 0.0
O313 O 0.02985 0.04015 0.56242 0.0
O314 O 0.01035 0.97882 0.5728 0.0
O315 O 0.98907 1.00199 0.58887 0.0
O316 O 0.98286 1.0204 0.52185 0.0
O317 O 0.9784 0.03347 0.55713 0.0
O318 O 0.98662 0.97952 0.52666 0.0
O319 O 0.99939 0.99445 0.48919 0.0
H320 H 0.01992 0.08507 0.43228 0.0
H321 H 0.05224 0.11291 0.41589 0.0
H322 H 0.10291 0.07603 0.4459 0.0
H323 H 0.07086 0.04849 0.46224 0.0
H324 H 0.99333 0.95963 0.63288 0.0
H325 H 0.96076 0.93111 0.64705 0.0
H326 H 0.92529 0.93573 0.57899 0.0
H327 H 0.95768 0.96459 0.56528 0.0
Sm328 Sm 0.53503 0.02752 0.04456 0.0
Sm329 Sm 0.49276 1.01861 1.01548 0.0
C330 C 0.57702 0.03887 0.0643 0.0
C331 C 0.58563 0.05325 0.08503 0.0
C332 C 0.57284 0.06962 0.09385 0.0
C333 C 0.5793 0.08129 0.11546 0.0
C334 C 0.5986 0.07667 0.12866 0.0
C335 C 0.61187 0.06081 0.11924 0.0
C336 C 0.60539 0.04916 0.0976 0.0
C337 C 0.50225 0.9926 0.06273 0.0
C338 C 0.49314 0.05264 0.06274 0.0
C339 C 0.45044 1.00732 0.99647 0.0
C340 C 0.4405 0.9918 0.97721 0.0
C341 C 0.45204 0.97418 0.96941 0.0
C342 C 0.44377 0.96085 0.94942 0.0
C343 C 0.42395 0.96508 0.93683 0.0
C344 C 0.4121 0.98238 0.94517 0.0
C345 C 0.42034 0.99565 0.96521 0.0
C346 C 0.52549 0.05351 0.99731 0.0
C347 C 0.53468 0.99361 0.99728 0.0
O348 O 0.57037 0.04889 0.04531 0.0
O349 O 0.56237 1.0208 0.0701 0.0
O350 O 0.50808 0.9956 0.04045 0.0
O351 O 0.51346 1.00856 0.07612 0.0
O352 O 0.51618 0.05391 0.06267 0.0
O353 O 0.48002 0.03809 0.04852 0.0
O354 O 0.45684 0.99835 1.01627 0.0
O355 O 0.46581 0.02429 0.98898 0.0
O356 O 0.51965 0.05053 1.0196 0.0
O357 O 0.51419 0.0376 0.98392 0.0
O358 O 0.5116 0.99216 0.99748 0.0
O359 O 0.54779 1.00831 1.01136 0.0
H360 H 0.55738 0.07286 0.08449 0.0
H361 H 0.56856 0.0932 0.12237 0.0
H362 H 0.62699 0.0571 0.12887 0.0
H363 H 0.61537 0.03649 0.09107 0.0
H364 H 0.4678 0.97113 0.97837 0.0
H365 H 0.4534 0.9478 0.94325 0.0
H366 H 0.39664 0.98585 0.93597 0.0
H367 H 0.41131 1.00925 0.97097 0.0
Sm368 Sm 0.51394 0.4985 0.50959 0.0
Sm369 Sm 0.50199 0.53681 0.54593 0.0
C370 C 0.53566 0.4695 0.48564 0.0
C371 C 0.55572 0.45894 0.49239 0.0
C372 C 0.57091 0.46852 0.5108 0.0
C373 C 0.58793 0.45698 0.51978 0.0
C374 C 0.59019 0.4358 0.51026 0.0
C375 C 0.5756 0.42668 0.4911 0.0
C376 C 0.55839 0.43814 0.48232 0.0
C377 C 0.46939 0.49188 0.53048 0.0
C378 C 0.53064 0.49976 0.56831 0.0
C379 C 0.47595 0.56097 0.57141 0.0
C380 C 0.46755 0.58152 0.56462 0.0
C381 C 0.44662 0.58674 0.57504 0.0
C382 C 0.43665 0.60435 0.5658 0.0
C383 C 0.44748 0.6169 0.54596 0.0
C384 C 0.46872 0.61186 0.53593 0.0
C385 C 0.47861 0.59425 0.54511 0.0
C386 C 0.54452 0.55113 0.5214 0.0
C387 C 0.48971 0.5382 0.4864 0.0
O388 O 0.54035 0.49107 0.48183 0.0
O389 O 0.51643 0.46353 0.49884 0.0
O390 O 0.48826 0.50002 0.541 0.0
O391 O 0.47376 0.48604 0.50806 0.0
O392 O 0.53267 0.49211 0.5456 0.0
O393 O 0.51842 0.516 0.57368 0.0
O394 O 0.46694 0.54344 0.55843 0.0
O395 O 0.49878 0.56258 0.57447 0.0
O396 O 0.53104 0.53266 0.51956 0.0
O397 O 0.53542 0.56344 0.53744 0.0
O398 O 0.48564 0.54464 0.50916 0.0
O399 O 0.50198 0.52194 0.48142 0.0
H400 H 0.56917 0.48465 0.51873 0.0
H401 H 0.59904 0.46442 0.53443 0.0
H402 H 0.57679 0.41025 0.48363 0.0
H403 H 0.54668 0.43045 0.46826 0.0
H404 H 0.43766 0.57681 0.58981 0.0
H405 H 0.4204 0.60805 0.57405 0.0
H406 H 0.47729 0.62105 0.52046 0.0
H407 H 0.49448 0.59008 0.53642 0.0
Sm408 Sm 0.01618 0.49938 0.03791 0.0
Sm409 Sm 0.01042 0.54342 1.01733 0.0
C410 C 0.03172 0.46212 0.04941 0.0
C411 C 0.05314 0.45556 0.05931 0.0
C412 C 0.06199 0.43741 0.04862 0.0
C413 C 0.08268 0.43116 0.05706 0.0
C414 C 0.09483 0.44289 0.07649 0.0
C415 C 0.08591 0.46108 0.08725 0.0
C416 C 0.0653 0.46747 0.07862 0.0
C417 C 0.99162 0.52424 0.06866 0.0
C418 C 0.05878 0.54307 0.04584 0.0
C419 C 0.99539 0.58063 1.00467 0.0
C420 C 0.97371 0.58717 0.99544 0.0
C421 C 0.95132 0.57578 1.00253 0.0
C422 C 0.93093 0.58263 0.994 0.0
C423 C 0.93259 0.60087 0.97809 0.0
C424 C 0.95507 0.612 0.9708 0.0
C425 C 0.97543 0.60521 0.97944 0.0
C426 C 0.03474 0.51823 0.9866 0.0
C427 C 0.96766 0.50003 1.00999 0.0
O428 O 0.03403 0.47072 0.02757 0.0
O429 O 0.01862 0.47229 0.0642 0.0
O430 O 0.00995 0.53181 0.05624 0.0
O431 O 0.98603 0.50272 0.06562 0.0
O432 O 0.05291 0.52101 0.04488 0.0
O433 O 0.04419 0.5561 0.0383 0.0
O434 O 0.99441 0.57329 0.02707 0.0
O435 O 1.00697 0.56921 0.98968 0.0
O436 O 0.01637 0.51092 0.99903 0.0
O437 O 0.0406 0.53971 0.98968 0.0
O438 O 0.97329 0.52205 1.01184 0.0
O439 O 0.98263 0.48695 1.01644 0.0
H440 H 0.05292 0.42809 0.03363 0.0
H441 H 0.08899 0.41693 0.0486 0.0
H442 H 0.09505 0.47053 0.1021 0.0
H443 H 0.05898 0.48176 0.08693 0.0
H444 H 0.9496 0.56168 1.01477 0.0
H445 H 0.91387 0.57358 0.99972 0.0
H446 H 0.95694 0.62626 0.95879 0.0
H447 H 0.99254 0.61419 0.97377 0.0
H448 H 0.24149 0.25633 0.34696 0.0
H449 H 0.21065 0.23476 0.37265 0.0
H450 H 0.22973 0.17338 0.3441 0.0
H451 H 0.25999 0.1946 0.31792 0.0
H452 H 0.17294 0.20322 0.35185 0.0
H453 H 0.2234 0.16365 0.41912 0.0
H454 H 0.23599 0.18842 0.40237 0.0
H455 H 0.2333 0.16133 0.38795 0.0
C456 C 0.23926 0.23824 0.34628 0.0
C457 C 0.25321 0.22723 0.33028 0.0
C458 C 0.22174 0.22597 0.36108 0.0
C459 C 0.21811 0.20252 0.3604 0.0
C460 C 0.23259 0.19149 0.34523 0.0
H461 H 0.11967 0.08863 0.40493 0.0
H462 H 0.15265 0.1161 0.3898 0.0
C463 C 0.24996 0.20369 0.33032 0.0
C464 C 0.19773 0.18944 0.37349 0.0
H465 H 0.1828 0.14773 0.41491 0.0
C466 C 0.17499 0.19132 0.36593 0.0
C467 C 0.2006 0.1739 0.39169 0.0
C468 C 0.22463 0.17178 0.40096 0.0
C469 C 0.15502 0.17724 0.37527 0.0
C470 C 0.15791 0.16126 0.39307 0.0
C471 C 0.18064 0.15995 0.40122 0.0
C472 C 0.13779 0.1449 0.40247 0.0
C473 C 0.13119 0.17886 0.3651 0.0
C474 C 0.11853 0.15198 0.4147 0.0
C475 C 0.09956 0.1363 0.42318 0.0
C476 C 0.09973 0.11328 0.4199 0.0
C477 C 0.11914 0.10626 0.40786 0.0
C478 C 0.13798 0.12192 0.39922 0.0
H479 H 0.13276 0.18807 0.34757 0.0
H480 H 0.12073 0.16198 0.36204 0.0
H481 H 0.12129 0.18801 0.37835 0.0
H482 H 0.11827 0.16962 0.41787 0.0
H483 H 0.08498 0.14215 0.43275 0.0
H484 H 0.40636 0.90226 0.71796 0.0
H485 H 0.41597 0.90964 0.76089 0.0
H486 H 0.34909 0.87084 0.7828 0.0
H487 H 0.33918 0.86394 0.73982 0.0
H488 H 0.3549 0.91048 0.80377 0.0
H489 H 0.43626 0.87478 0.81592 0.0
H490 H 0.43928 0.89338 0.79045 0.0
H491 H 0.41779 0.86813 0.78973 0.0
C492 C 0.394 0.89486 0.73198 0.0
C493 C 0.37202 0.88262 0.72567 0.0
C494 C 0.39954 0.89898 0.7565 0.0
C495 C 0.38338 0.89055 0.77509 0.0
C496 C 0.36185 0.87745 0.76876 0.0
H497 H 0.41962 0.91986 0.92865 0.0
H498 H 0.40812 0.89934 0.89069 0.0
C499 C 0.35619 0.87356 0.74426 0.0
C500 C 0.38771 0.89765 0.80082 0.0
H501 H 0.42917 0.90347 0.84508 0.0
C502 C 0.37097 0.90858 0.81294 0.0
C503 C 0.4085 0.89492 0.81296 0.0
C504 C 0.42633 0.88194 0.80166 0.0
C505 C 0.37497 0.91782 0.83635 0.0
C506 C 0.39656 0.91661 0.84769 0.0
C507 C 0.41278 0.90468 0.83617 0.0
C508 C 0.40317 0.92875 0.87078 0.0
C509 C 0.3561 0.92898 0.84859 0.0
C510 C 0.40449 0.95205 0.87199 0.0
C511 C 0.41092 0.96373 0.89355 0.0
C512 C 0.41645 0.95236 0.91427 0.0
C513 C 0.41547 0.92904 0.91294 0.0
C514 C 0.40888 0.91732 0.89134 0.0
H515 H 0.33835 0.92218 0.84154 0.0
H516 H 0.35576 0.92681 0.86871 0.0
H517 H 0.35969 0.94715 0.84466 0.0
H518 H 0.40082 0.96128 0.85612 0.0
H519 H 0.41207 0.98176 0.89384 0.0
H520 H 0.6153 0.43363 0.76744 0.0
H521 H 0.59915 0.45116 0.73312 0.0
H522 H 0.60114 0.39184 0.68924 0.0
H523 H 0.6168 0.37405 0.72372 0.0
H524 H 0.61593 0.46286 0.68927 0.0
H525 H 0.53529 0.40023 0.67679 0.0
H526 H 0.55374 0.40015 0.70295 0.0
H527 H 0.56164 0.38807 0.67431 0.0
C528 C 0.61228 0.42426 0.7505 0.0
C529 C 0.61729 0.4023 0.74852 0.0
C530 C 0.60296 0.43433 0.73082 0.0
C531 C 0.59838 0.4228 0.7085 0.0
C532 C 0.60371 0.40098 0.70636 0.0
H533 H 0.5519 0.46219 0.56612 0.0
H534 H 0.5688 0.44397 0.59952 0.0
C535 C 0.6128 0.3908 0.72614 0.0
C536 C 0.58869 0.43389 0.68743 0.0
H537 H 0.54444 0.42751 0.64566 0.0
C538 C 0.60021 0.45511 0.67989 0.0
C539 C 0.56812 0.42398 0.67495 0.0
C540 C 0.55384 0.40197 0.6828 0.0
C541 C 0.59201 0.46641 0.6603 0.0
C542 C 0.57162 0.4564 0.64777 0.0
C543 C 0.56014 0.43518 0.65513 0.0
C544 C 0.56171 0.46787 0.62728 0.0
C545 C 0.60544 0.48891 0.65286 0.0
C546 C 0.55195 0.4874 0.63161 0.0
C547 C 0.5421 0.49784 0.61253 0.0
C548 C 0.54183 0.48907 0.58853 0.0
C549 C 0.55181 0.46956 0.58424 0.0
C550 C 0.56146 0.45903 0.60339 0.0
H551 H 0.6233 0.49227 0.66083 0.0
H552 H 0.60727 0.49 0.63266 0.0
H553 H 0.59555 0.5022 0.65934 0.0
H554 H 0.55166 0.49444 0.64988 0.0
H555 H 0.53459 0.51275 0.61666 0.0
H556 H 0.92024 0.65886 0.23174 0.0
H557 H 0.93739 0.64037 0.19734 0.0
H558 H 0.90253 0.57626 0.22307 0.0
H559 H 0.88581 0.59442 0.25785 0.0
H560 H 0.96681 0.60593 0.19798 0.0
H561 H 0.88259 0.57732 0.15078 0.0
H562 H 0.88563 0.59896 0.17406 0.0
H563 H 0.88251 0.57008 0.1825 0.0
C564 C 0.91635 0.64081 0.23032 0.0
C565 C 0.90142 0.62826 0.24773 0.0
C566 C 0.9261 0.63025 0.21047 0.0
C567 C 0.921 0.60693 0.20734 0.0
C568 C 0.90636 0.59431 0.22475 0.0
H569 H 0.9567 0.50862 0.1018 0.0
H570 H 0.94034 0.52931 0.13494 0.0
C571 C 0.89672 0.6048 0.24467 0.0
C572 C 0.93122 0.5957 0.18612 0.0
H573 H 0.91628 0.56348 0.13527 0.0
C574 C 0.95579 0.59676 0.18417 0.0
C575 C 0.91686 0.58366 0.16812 0.0
C576 C 0.89044 0.58252 0.16874 0.0
C577 C 0.96632 0.58562 0.16516 0.0
C578 C 0.95196 0.57353 0.14712 0.0
C579 C 0.92737 0.57269 0.14899 0.0
C580 C 0.96193 0.56116 0.12654 0.0
C581 C 0.99268 0.58629 0.16517 0.0
C582 C 0.97929 0.57211 0.11031 0.0
C583 C 0.98883 0.56022 0.09141 0.0
C584 C 0.981 0.53715 0.08808 0.0
C585 C 0.9632 0.52635 0.10389 0.0
C586 C 0.9538 0.53819 0.12287 0.0
H587 H 1.00003 0.59054 0.18356 0.0
H588 H 0.99742 0.56998 0.15921 0.0
H589 H 1.00123 0.59933 0.15234 0.0
H590 H 0.98546 0.5899 0.1122 0.0
H591 H 1.0024 0.56908 0.07944 0.0
H592 H 0.41444 0.20174 0.19889 0.0
H593 H 0.43545 0.1738 0.1798 0.0
H594 H 0.39684 0.17665 0.11369 0.0
H595 H 0.37535 0.20427 0.13276 0.0
H596 H 0.41338 0.13123 0.16057 0.0
H597 H 0.46723 0.18373 0.09066 0.0
H598 H 0.45404 0.19552 0.11701 0.0
H599 H 0.43627 0.1854 0.09138 0.0
C600 C 0.41039 0.19644 0.18028 0.0
C601 C 0.39313 0.20521 0.16739 0.0
C602 C 0.4225 0.18056 0.16939 0.0
C603 C 0.41779 0.1733 0.14531 0.0
C604 C 0.40097 0.18231 0.13218 0.0
H605 H 0.44604 0.05427 0.06903 0.0
H606 H 0.42809 0.08315 0.0905 0.0
C607 C 0.38877 0.19815 0.14309 0.0
C608 C 0.42965 0.1555 0.13438 0.0
H609 H 0.46699 0.14456 0.08802 0.0
C610 C 0.42518 0.13413 0.14477 0.0
C611 C 0.44515 0.15944 0.11392 0.0
C612 C 0.45119 0.18229 0.10264 0.0
C613 C 0.43547 0.11644 0.13489 0.0
C614 C 0.45048 0.12024 0.11404 0.0
C615 C 0.45533 0.14171 0.10394 0.0
C616 C 0.46124 0.1021 0.10228 0.0
C617 C 0.43038 0.09386 0.1469 0.0
C618 C 0.4858 0.10323 0.10181 0.0
C619 C 0.49612 0.08674 0.08964 0.0
C620 C 0.48204 0.06894 0.07745 0.0
C621 C 0.45738 0.06771 0.07827 0.0
C622 C 0.44708 0.08415 0.09058 0.0
H623 H 0.42277 0.09491 0.16564 0.0
H624 H 0.41751 0.08246 0.13585 0.0
H625 H 0.4467 0.08635 0.14789 0.0
H626 H 0.49701 0.117 0.1107 0.0
H627 H 0.51517 0.08827 0.08932 0.0
H628 H 0.25251 0.96406 0.58782 0.0
H629 H 0.21701 0.98031 0.5809 0.0
H630 H 0.18314 0.91772 0.54988 0.0
H631 H 0.21853 0.90127 0.55689 0.0
H632 H 0.179 0.9557 0.52217 0.0
H633 H 0.15401 0.96633 0.61976 0.0
H634 H 0.18386 0.97835 0.61173 0.0
H635 H 0.17485 0.94855 0.60994 0.0
C636 C 0.23743 0.95371 0.5797 0.0
C637 C 0.23823 0.93136 0.57299 0.0
C638 C 0.21719 0.963 0.57581 0.0
C639 C 0.1974 0.95006 0.56529 0.0
C640 C 0.19826 0.9279 0.55815 0.0
H641 H 0.05537 0.97842 0.55016 0.0
H642 H 0.09007 0.96217 0.56098 0.0
C643 C 0.21851 0.91859 0.56201 0.0
C644 C 0.17596 0.95983 0.56118 0.0
H645 H 0.13264 0.98307 0.59047 0.0
C646 C 0.16881 0.96162 0.53708 0.0
C647 C 0.16265 0.96731 0.58075 0.0
C648 C 0.16905 0.96489 0.60703 0.0
C649 C 0.14888 0.97115 0.53198 0.0
C650 C 0.13599 0.9792 0.55149 0.0
C651 C 0.14281 0.97703 0.57562 0.0
C652 C 0.11526 0.98984 0.54699 0.0
C653 C 0.14161 0.97246 0.50581 0.0
C654 C 0.11815 1.01096 0.53618 0.0
C655 C 0.09846 1.0203 0.53013 0.0
C656 C 0.07563 1.00856 0.53472 0.0
C657 C 0.0728 0.98776 0.54638 0.0
C658 C 0.09253 0.97848 0.55256 0.0
H659 H 0.15093 0.96203 0.49334 0.0
H660 H 0.12229 0.96695 0.5042 0.0
H661 H 0.14578 0.99008 0.49968 0.0
H662 H 0.13564 1.01999 0.53199 0.0
H663 H 0.10111 0.03641 0.52126 0.0
H664 H 0.75582 0.41138 0.94353 0.0
H665 H 0.79186 0.42973 0.9631 0.0
H666 H 0.82987 0.42942 0.89427 0.0
H667 H 0.7937 0.41158 0.87451 0.0
H668 H 0.83231 0.41688 0.97021 0.0
H669 H 0.85035 0.49304 0.91389 0.0
H670 H 0.82291 0.4738 0.91249 0.0
H671 H 0.84859 0.46808 0.89562 0.0
C672 C 0.77183 0.41528 0.93252 0.0
C673 C 0.77176 0.41007 0.90737 0.0
C674 C 0.79249 0.42584 0.94375 0.0
C675 C 0.81369 0.43144 0.93019 0.0
C676 C 0.81371 0.42601 0.90511 0.0
H677 H 0.95333 0.45659 0.99513 0.0
H678 H 0.91622 0.44033 0.97632 0.0
C679 C 0.79298 0.41568 0.8938 0.0
C680 C 0.83583 0.44217 0.94252 0.0
H681 H 0.8816 0.48611 0.93916 0.0
C682 C 0.84298 0.4321 0.96344 0.0
C683 C 0.84973 0.46229 0.93413 0.0
C684 C 0.84238 0.47506 0.91297 0.0
C685 C 0.86364 0.44123 0.97584 0.0
C686 C 0.87816 0.46072 0.96672 0.0
C687 C 0.87078 0.47104 0.94608 0.0
C688 C 0.90096 0.47069 0.9783 0.0
C689 C 0.8693 0.43012 0.99895 0.0
C690 C 0.90538 0.49347 0.98506 0.0
C691 C 0.92687 0.50296 0.99549 0.0
C692 C 0.94452 0.4899 0.99952 0.0
C693 C 0.94009 0.46713 0.99267 0.0
C694 C 0.91872 0.45773 0.982 0.0
H695 H 0.85318 0.42046 1.00762 0.0
H696 H 0.88155 0.41821 0.99446 0.0
H697 H 0.87781 0.44257 1.01243 0.0
H698 H 0.89213 0.50395 0.98234 0.0
H699 H 0.92963 0.52055 1.00042 0.0
H700 H 0.72997 0.65887 0.41795 0.0
H701 H 0.69328 0.64185 0.43826 0.0
H702 H 0.70729 0.57631 0.41768 0.0
H703 H 0.74466 0.59316 0.39826 0.0
H704 H 0.65446 0.61609 0.42036 0.0
H705 H 0.69339 0.56814 0.48989 0.0
H706 H 0.71104 0.58934 0.47148 0.0
H707 H 0.70132 0.56185 0.45898 0.0
C708 C 0.72553 0.64081 0.41803 0.0
C709 C 0.74059 0.62745 0.40661 0.0
C710 C 0.70435 0.63108 0.42951 0.0
C711 C 0.6976 0.60774 0.42995 0.0
C712 C 0.71229 0.59433 0.41814 0.0
H713 H 0.57064 0.52541 0.49384 0.0
H714 H 0.60733 0.53811 0.47043 0.0
C715 C 0.73356 0.60405 0.40671 0.0
C716 C 0.67499 0.59766 0.4424 0.0
H717 H 0.65169 0.56228 0.48822 0.0
C718 C 0.65391 0.60433 0.43519 0.0
C719 C 0.67413 0.58222 0.46176 0.0
C720 C 0.69618 0.57509 0.47118 0.0
C721 C 0.63214 0.59609 0.44676 0.0
C722 C 0.63135 0.58092 0.46628 0.0
C723 C 0.6523 0.57387 0.47321 0.0
C724 C 0.6091 0.57302 0.4804 0.0
C725 C 0.61009 0.60363 0.43788 0.0
C726 C 0.59807 0.5883 0.49408 0.0
C727 C 0.5772 0.58105 0.50742 0.0
C728 C 0.5668 0.55837 0.50733 0.0
C729 C 0.57798 0.54301 0.49389 0.0
C730 C 0.59902 0.55025 0.48064 0.0
H731 H 0.61261 0.61053 0.41914 0.0
H732 H 0.59501 0.58957 0.43796 0.0
H733 H 0.60546 0.61696 0.45027 0.0
H734 H 0.60571 0.60587 0.49456 0.0
H735 H 0.5691 0.59328 0.51771 0.0
H736 H 0.23483 0.3494 0.19508 0.0
H737 H 0.2083 0.37086 0.17552 0.0
H738 H 0.25442 0.37941 0.11196 0.0
H739 H 0.28172 0.35845 0.13173 0.0
H740 H 0.22079 0.41752 0.15359 0.0
H741 H 0.18572 0.34868 0.08909 0.0
H742 H 0.19969 0.34339 0.11713 0.0
H743 H 0.21722 0.35604 0.09197 0.0
C744 C 0.2397 0.35619 0.17715 0.0
C745 C 0.26057 0.35227 0.16507 0.0
C746 C 0.22438 0.36833 0.16594 0.0
C747 C 0.2294 0.37661 0.14233 0.0
C748 C 0.25022 0.37299 0.13018 0.0
H749 H 0.13233 0.43249 0.04971 0.0
H750 H 0.16711 0.41884 0.06472 0.0
C751 C 0.26572 0.36093 0.14146 0.0
C752 C 0.21233 0.38849 0.13039 0.0
H753 H 0.16857 0.38122 0.08862 0.0
C754 C 0.20949 0.40973 0.13921 0.0
C755 C 0.19776 0.37825 0.11162 0.0
C756 C 0.20002 0.35529 0.10184 0.0
C757 C 0.19218 0.42098 0.1299 0.0
C758 C 0.17689 0.41036 0.11179 0.0
C759 C 0.18023 0.38934 0.10253 0.0
C760 C 0.15669 0.42021 0.10289 0.0
C761 C 0.19056 0.44416 0.13947 0.0
C762 C 0.13925 0.42551 0.11934 0.0
C763 C 0.11947 0.43346 0.11082 0.0
C764 C 0.11654 0.43586 0.08564 0.0
C765 C 0.13406 0.43064 0.06921 0.0
C766 C 0.15395 0.42291 0.07776 0.0
H767 H 0.20776 0.45261 0.14655 0.0
H768 H 0.1849 0.45474 0.12509 0.0
H769 H 0.17747 0.44292 0.15482 0.0
H770 H 0.1406 0.42294 0.13875 0.0
H771 H 0.10608 0.43702 0.12386 0.0
H772 H 0.61856 0.25692 0.93903 0.0
H773 H 0.60292 0.22063 0.95698 0.0
H774 H 0.58939 0.19241 0.88502 0.0
H775 H 0.6057 0.22852 0.86684 0.0
H776 H 0.55897 0.19455 0.95443 0.0
H777 H 0.62644 0.14808 0.91465 0.0
H778 H 0.62993 0.17822 0.91439 0.0
H779 H 0.61151 0.16182 0.89244 0.0
C780 C 0.61253 0.24297 0.92692 0.0
C781 C 0.6137 0.24578 0.90137 0.0
C782 C 0.60341 0.22219 0.93728 0.0
C783 C 0.59531 0.20353 0.92244 0.0
C784 C 0.59596 0.20634 0.89694 0.0
H785 H 0.53351 0.0644 0.94923 0.0
H786 H 0.55052 0.10068 0.93196 0.0
C787 C 0.60505 0.22716 0.88655 0.0
C788 C 0.58592 0.18132 0.93371 0.0
H789 H 0.59381 0.12655 0.93525 0.0
C790 C 0.56668 0.17972 0.95031 0.0
C791 C 0.59589 0.16185 0.92843 0.0
C792 C 0.61722 0.16252 0.91169 0.0
C793 C 0.55687 0.15925 0.96127 0.0
C794 C 0.56682 0.13975 0.95597 0.0
C795 C 0.58611 0.14139 0.93941 0.0
C796 C 0.55714 0.11744 0.96686 0.0
C797 C 0.53545 0.15859 0.97788 0.0
C798 C 0.5556 0.11439 0.99234 0.0
C799 C 0.54579 0.09356 1.00231 0.0
C800 C 0.53744 0.07524 0.98702 0.0
C801 C 0.53967 0.07814 0.96156 0.0
C802 C 0.54942 0.09893 0.95163 0.0
H803 H 0.52627 0.17305 0.97486 0.0
H804 H 0.52272 0.14292 0.97509 0.0
H805 H 0.54104 0.15928 0.99717 0.0
H806 H 0.56194 0.12814 1.00458 0.0
H807 H 0.5445 0.09188 1.02199 0.0
H808 H 0.93933 0.78434 0.39294 0.0
H809 H 0.95572 0.82067 0.41083 0.0
H810 H 0.88548 0.83284 0.42879 0.0
H811 H 0.86893 0.79705 0.41009 0.0
H812 H 0.91256 0.86981 0.41009 0.0
H813 H 0.96109 0.8355 0.48307 0.0
H814 H 0.96898 0.82713 0.45282 0.0
H815 H 0.93956 0.81808 0.4647 0.0
C816 C 0.92732 0.7948 0.40046 0.0
C817 C 0.90274 0.78751 0.4002 0.0
C818 C 0.93676 0.81551 0.41101 0.0
C819 C 0.9219 0.82939 0.42168 0.0
C820 C 0.89738 0.8224 0.42092 0.0
H821 H 0.96242 0.94035 0.52351 0.0
H822 H 0.94601 0.90505 0.50352 0.0
C823 C 0.88793 0.80177 0.41037 0.0
C824 C 0.93173 0.85125 0.43348 0.0
H825 H 0.96797 0.87495 0.47879 0.0
C826 C 0.92467 0.87091 0.42512 0.0
C827 C 0.94727 0.85276 0.45337 0.0
C828 C 0.95452 0.83224 0.46422 0.0
C829 C 0.93286 0.89194 0.43586 0.0
C830 C 0.94896 0.89353 0.45527 0.0
C831 C 0.95582 0.87384 0.4638 0.0
C832 C 0.95863 0.91536 0.46723 0.0
C833 C 0.9237 0.91217 0.42667 0.0
C834 C 0.97138 0.93302 0.45362 0.0
C835 C 0.9807 0.95334 0.465 0.0
C836 C 0.97772 0.95645 0.49035 0.0
C837 C 0.96505 0.93868 0.50397 0.0
C838 C 0.95567 0.9184 0.49255 0.0
H839 H 0.90683 0.90738 0.41695 0.0
H840 H 0.92086 0.92378 0.44192 0.0
H841 H 0.9368 0.92125 0.41361 0.0
H842 H 0.97443 0.931 0.43419 0.0
H843 H 0.99051 0.9665 0.45391 0.0
H844 H 0.33773 0.78272 0.51744 0.0
H845 H 0.34574 0.74578 0.50502 0.0
H846 H 0.42029 0.76859 0.51314 0.0
H847 H 0.41256 0.80585 0.52452 0.0
H848 H 0.40914 0.73545 0.47546 0.0
H849 H 0.3632 0.71164 0.56443 0.0
H850 H 0.34646 0.72304 0.54189 0.0
H851 H 0.37131 0.74041 0.55541 0.0
C852 C 0.3559 0.78018 0.51562 0.0
C853 C 0.37451 0.79706 0.52251 0.0
C854 C 0.36041 0.75899 0.5087 0.0
C855 C 0.38353 0.75437 0.50883 0.0
C856 C 0.4023 0.77181 0.51315 0.0
H857 H 0.46929 0.6586 0.53285 0.0
H858 H 0.45101 0.68932 0.51805 0.0
C859 C 0.39783 0.79302 0.51987 0.0
C860 C 0.38806 0.73107 0.50861 0.0
H861 H 0.383 0.68545 0.54528 0.0
C862 C 0.4031 0.7243 0.49045 0.0
C863 C 0.38012 0.71659 0.52824 0.0
C864 C 0.36451 0.72323 0.54873 0.0
C865 C 0.41116 0.70372 0.49193 0.0
C866 C 0.40433 0.6899 0.51233 0.0
C867 C 0.3882 0.6961 0.52966 0.0
C868 C 0.41562 0.67034 0.5178 0.0
C869 C 0.42729 0.69722 0.47193 0.0
C870 C 0.40175 0.64955 0.52294 0.0
C871 C 0.41214 0.63205 0.53174 0.0
C872 C 0.43656 0.63508 0.53559 0.0
C873 C 0.45048 0.65571 0.5298 0.0
C874 C 0.44007 0.67322 0.52113 0.0
H875 H 0.42398 0.70483 0.45426 0.0
H876 H 0.44588 0.70349 0.47673 0.0
H877 H 0.42507 0.67877 0.46949 0.0
H878 H 0.38282 0.64706 0.52071 0.0
H879 H 0.40105 0.61621 0.53572 0.0
H880 H 0.76149 0.84702 0.74217 0.0
H881 H 0.7912 0.8676 0.71484 0.0
H882 H 0.80501 0.80551 0.68281 0.0
H883 H 0.77457 0.78472 0.7095 0.0
H884 H 0.83786 0.86288 0.71596 0.0
H885 H 0.80292 0.84477 0.62284 0.0
H886 H 0.78453 0.84018 0.65011 0.0
H887 H 0.80335 0.82044 0.64109 0.0
C888 C 0.77025 0.83771 0.7288 0.0
C889 C 0.76562 0.81418 0.72805 0.0
C890 C 0.78739 0.84952 0.71331 0.0
C891 C 0.80021 0.8381 0.69672 0.0
C892 C 0.79507 0.81468 0.69523 0.0
H893 H 0.94028 0.89287 0.64018 0.0
H894 H 0.90619 0.86899 0.65891 0.0
C895 C 0.77785 0.80282 0.71069 0.0
C896 C 0.82048 0.85063 0.68285 0.0
H897 H 0.84283 0.86288 0.62538 0.0
C898 C 0.83892 0.86292 0.69615 0.0
C899 C 0.82174 0.85072 0.65703 0.0
C900 C 0.802 0.83849 0.64187 0.0
C901 C 0.85865 0.87526 0.68436 0.0
C902 C 0.86019 0.87496 0.65855 0.0
C903 C 0.84169 0.86283 0.64518 0.0
C904 C 0.88054 0.88793 0.64526 0.0
C905 C 0.87745 0.88892 0.69963 0.0
C906 C 0.87728 0.90597 0.63071 0.0
C907 C 0.89668 0.91963 0.62002 0.0
C908 C 0.91971 0.91543 0.62362 0.0
C909 C 0.92281 0.89677 0.63741 0.0
C910 C 0.90337 0.88309 0.64807 0.0
H911 H 0.87106 0.89142 0.71862 0.0
H912 H 0.89284 0.88007 0.70052 0.0
H913 H 0.88355 0.90556 0.69139 0.0
H914 H 0.85978 0.90996 0.62835 0.0
H915 H 0.8937 0.93399 0.60972 0.0
H916 H 0.64295 0.18074 0.3365 0.0
H917 H 0.62842 0.17107 0.29537 0.0
H918 H 0.62864 0.10127 0.30949 0.0
H919 H 0.64248 0.11072 0.35075 0.0
H920 H 0.65278 0.15043 0.26015 0.0
H921 H 0.56493 0.0998 0.27814 0.0
H922 H 0.58049 0.11789 0.30102 0.0
H923 H 0.58767 0.09046 0.29519 0.0
C924 C 0.63928 0.16329 0.33105 0.0
C925 C 0.64386 0.14647 0.34683 0.0
C926 C 0.63113 0.15782 0.30752 0.0
C927 C 0.62722 0.13545 0.2995 0.0
C928 C 0.63111 0.1186 0.31547 0.0
H929 H 0.60935 0.05643 0.17009 0.0
H930 H 0.61587 0.07304 0.21077 0.0
C931 C 0.63926 0.12404 0.33895 0.0
C932 C 0.62118 0.12976 0.27381 0.0
H933 H 0.5825 0.09514 0.23848 0.0
C934 C 0.6372 0.13866 0.25532 0.0
C935 C 0.60084 0.11441 0.26762 0.0
C936 C 0.58238 0.10526 0.28652 0.0
C937 C 0.63405 0.13169 0.2309 0.0
C938 C 0.61424 0.11562 0.22491 0.0
C939 C 0.59776 0.10737 0.24324 0.0
C940 C 0.611 0.10614 0.19999 0.0
C941 C 0.65244 0.14075 0.21187 0.0
C942 C 0.6062 0.11934 0.1805 0.0
C943 C 0.60261 0.10993 0.15715 0.0
C944 C 0.60377 0.08717 0.15298 0.0
C945 C 0.60876 0.07409 0.17259 0.0
C946 C 0.61227 0.08349 0.19588 0.0
H947 H 0.66859 0.15021 0.22018 0.0
H948 H 0.65746 0.12692 0.20044 0.0
H949 H 0.64503 0.15218 0.19967 0.0
H950 H 0.60493 0.13682 0.18342 0.0
H951 H 0.59887 0.12043 0.14238 0.0
H952 H 0.37345 0.62677 0.32294 0.0
H953 H 0.3892 0.60821 0.3567 0.0
H954 H 0.46003 0.6331 0.3312 0.0
H955 H 0.44444 0.65159 0.29722 0.0
H956 H 0.41662 0.57549 0.35661 0.0
H957 H 0.4637 0.65121 0.40288 0.0
H958 H 0.44263 0.65259 0.37926 0.0
H959 H 0.47228 0.64882 0.37134 0.0
C960 C 0.3924 0.62826 0.32434 0.0
C961 C 0.40758 0.64082 0.30713 0.0
C962 C 0.40141 0.61767 0.34383 0.0
C963 C 0.42587 0.61941 0.34688 0.0
C964 C 0.4411 0.63186 0.32974 0.0
H965 H 0.49371 0.53031 0.43688 0.0
H966 H 0.47845 0.54971 0.4034 0.0
C967 C 0.43211 0.64248 0.31021 0.0
C968 C 0.43529 0.60771 0.36758 0.0
H969 H 0.47083 0.61621 0.41737 0.0
C970 C 0.42845 0.58444 0.36989 0.0
C971 C 0.4505 0.61928 0.38525 0.0
C972 C 0.45756 0.64438 0.38478 0.0
C973 C 0.43659 0.57248 0.38898 0.0
C974 C 0.45241 0.58395 0.4062 0.0
C975 C 0.45895 0.60727 0.40412 0.0
C976 C 0.46201 0.57214 0.4267 0.0
C977 C 0.4277 0.5477 0.3908 0.0
C978 C 0.45854 0.57853 0.45114 0.0
C979 C 0.4674 0.56751 0.47041 0.0
C980 C 0.48014 0.54983 0.4658 0.0
C981 C 0.48385 0.54366 0.44128 0.0
C982 C 0.47498 0.5547 0.42202 0.0
H983 H 0.41103 0.54272 0.38079 0.0
H984 H 0.44109 0.5384 0.3826 0.0
H985 H 0.4246 0.54256 0.41015 0.0
H986 H 0.44875 0.59197 0.45537 0.0
H987 H 0.46424 0.57291 0.48896 0.0
H988 H 0.14318 0.40154 0.8323 0.0
H989 H 0.12692 0.42013 0.86724 0.0
H990 H 0.07457 0.44009 0.82084 0.0
H991 H 0.09008 0.42051 0.78625 0.0
H992 H 0.12415 0.46064 0.87751 0.0
H993 H 0.03216 0.41656 0.87523 0.0
H994 H 0.05528 0.40779 0.85656 0.0
H995 H 0.04061 0.43017 0.84682 0.0
C996 C 0.12806 0.40975 0.82964 0.0
C997 C 0.11778 0.40937 0.80655 0.0
C998 C 0.11876 0.42042 0.84964 0.0
C999 C 0.09909 0.43124 0.84704 0.0
C1000 C 0.08914 0.43125 0.82378 0.0
H1001 H 0.06591 0.53411 0.95 0.0
H1002 H 0.08138 0.51304 0.91673 0.0
C1003 C 0.09814 0.42017 0.80389 0.0
C1004 C 0.08966 0.44314 0.86841 0.0
H1005 H 0.03893 0.45 0.89954 0.0
C1006 C 0.10551 0.45811 0.88239 0.0
C1007 C 0.06539 0.43971 0.87535 0.0
C1008 C 0.04745 0.4225 0.86286 0.0
C1009 C 0.09786 0.46991 0.9026 0.0
C1010 C 0.07342 0.46751 0.9086 0.0
C1011 C 0.05761 0.45223 0.89491 0.0
C1012 C 0.06386 0.48053 0.92896 0.0
C1013 C 0.11628 0.48431 0.91765 0.0
C1014 C 0.04793 0.46963 0.94659 0.0
C1015 C 0.03849 0.48181 0.9653 0.0
C1016 C 0.04495 0.50518 0.96703 0.0
C1017 C 0.06082 0.5161 0.94942 0.0
C1018 C 0.06988 0.50398 0.93045 0.0
H1019 H 0.13352 0.47832 0.91619 0.0
H1020 H 0.119 0.50168 0.91072 0.0
H1021 H 0.11086 0.48455 0.93723 0.0
H1022 H 0.04277 0.45162 0.94593 0.0
H1023 H 0.02612 0.4729 0.97841 0.0
H1024 H 0.6016 0.83239 0.8701 0.0
H1025 H 0.58207 0.86182 0.88859 0.0
H1026 H 0.63871 0.87768 0.93938 0.0
H1027 H 0.65842 0.84843 0.92097 0.0
H1028 H 0.56991 0.86759 0.94287 0.0
H1029 H 0.63254 0.93754 0.90125 0.0
H1030 H 0.62827 0.90948 0.88866 0.0
H1031 H 0.64511 0.9159 0.91576 0.0
C1032 C 0.60985 0.84213 0.88524 0.0
C1033 C 0.63155 0.83814 0.89407 0.0
C1034 C 0.59865 0.85884 0.8958 0.0
C1035 C 0.60912 0.87199 0.91513 0.0
C1036 C 0.63049 0.86777 0.92434 0.0
H1037 H 0.58044 0.9866 0.99846 0.0
H1038 H 0.5977 0.95707 0.97759 0.0
C1039 C 0.64161 0.85095 0.91393 0.0
C1040 C 0.59787 0.89037 0.92554 0.0
H1041 H 0.60423 0.94727 0.92961 0.0
C1042 C 0.57727 0.88503 0.93992 0.0
C1043 C 0.60767 0.91302 0.92164 0.0
C1044 C 0.62954 0.91949 0.90587 0.0
C1045 C 0.56646 0.90185 0.95109 0.0
C1046 C 0.57622 0.92459 0.94717 0.0
C1047 C 0.59674 0.92986 0.93255 0.0
C1048 C 0.56587 0.94315 0.9587 0.0
C1049 C 0.54518 0.89508 0.96764 0.0
C1050 C 0.54243 0.94555 0.95447 0.0
C1051 C 0.53244 0.96234 0.96651 0.0
C1052 C 0.54583 0.97725 0.98274 0.0
C1053 C 0.56962 0.97541 0.9861 0.0
C1054 C 0.57952 0.95851 0.9742 0.0
H1055 H 0.54388 0.87753 0.97385 0.0
H1056 H 0.54573 0.90621 0.98397 0.0
H1057 H 0.52896 0.89633 0.95753 0.0
H1058 H 0.53176 0.93428 0.94206 0.0
H1059 H 0.51413 0.96342 0.96333 0.0
H1060 H 0.81941 0.15473 0.50708 0.0
H1061 H 0.8542 0.13776 0.51442 0.0
H1062 H 0.86281 0.12651 0.43705 0.0
H1063 H 0.82826 0.14403 0.42938 0.0
H1064 H 0.85939 0.0878 0.46727 0.0
H1065 H 0.92589 0.15792 0.50073 0.0
H1066 H 0.89714 0.15642 0.51487 0.0
H1067 H 0.90102 0.16217 0.4828 0.0
C1068 C 0.82907 0.14929 0.49153 0.0
C1069 C 0.82101 0.15068 0.46764 0.0
C1070 C 0.84895 0.13958 0.49578 0.0
C1071 C 0.86113 0.13112 0.47625 0.0
C1072 C 0.85364 0.13307 0.45232 0.0
H1073 H 0.96277 0.03857 0.48656 0.0
H1074 H 0.93755 0.0633 0.46988 0.0
C1075 C 0.83382 0.14291 0.44802 0.0
C1076 C 0.87996 0.11806 0.48121 0.0
H1077 H 0.93277 0.12094 0.50916 0.0
C1078 C 0.87565 0.09504 0.47606 0.0
C1079 C 0.90098 0.12766 0.49278 0.0
C1080 C 0.90671 0.15244 0.49795 0.0
C1081 C 0.89132 0.08108 0.48329 0.0
C1082 C 0.9121 0.09057 0.49546 0.0
C1083 C 0.91679 0.11374 0.49985 0.0
C1084 C 0.92843 0.07655 0.50511 0.0
C1085 C 0.88489 0.05618 0.47894 0.0
C1086 C 0.9322 0.07638 0.53033 0.0
C1087 C 0.9468 0.06252 0.53983 0.0
C1088 C 0.95778 0.0486 0.52425 0.0
C1089 C 0.95433 0.04904 0.49896 0.0
C1090 C 0.93988 0.06306 0.48944 0.0
H1091 H 0.86594 0.05119 0.47466 0.0
H1092 H 0.89546 0.05121 0.4632 0.0
H1093 H 0.88878 0.04673 0.49516 0.0
H1094 H 0.92355 0.08672 0.5427 0.0
H1095 H 0.94931 0.06256 0.55938 0.0
H1096 H 0.23913 0.66679 0.14223 0.0
H1097 H 0.20329 0.64819 0.12257 0.0
H1098 H 0.22431 0.58411 0.13376 0.0
H1099 H 0.26036 0.60257 0.15323 0.0
H1100 H 0.19818 0.62106 0.08108 0.0
H1101 H 0.15698 0.574 0.16154 0.0
H1102 H 0.18156 0.5966 0.16412 0.0
H1103 H 0.18637 0.56931 0.15406 0.0
C1104 C 0.23629 0.64874 0.14042 0.0
C1105 C 0.25282 0.63627 0.14946 0.0
C1106 C 0.21564 0.6381 0.12924 0.0
C1107 C 0.21081 0.61468 0.12692 0.0
C1108 C 0.22727 0.60215 0.13579 0.0
H1109 H 0.09324 0.52188 0.06447 0.0
H1110 H 0.13034 0.53895 0.0831 0.0
C1111 C 0.24795 0.61278 0.14697 0.0
C1112 C 0.18885 0.60351 0.11471 0.0
H1113 H 0.13809 0.56587 0.12371 0.0
C1114 C 0.18502 0.60905 0.09045 0.0
C1115 C 0.17163 0.58772 0.12681 0.0
C1116 C 0.17415 0.58165 0.15313 0.0
C1117 C 0.16473 0.5991 0.07792 0.0
C1118 C 0.14739 0.58346 0.09009 0.0
C1119 C 0.1513 0.5778 0.1143 0.0
C1120 C 0.12493 0.57309 0.0782 0.0
C1121 C 0.16235 0.60511 0.05156 0.0
C1122 C 0.10927 0.58648 0.06935 0.0
C1123 C 0.08805 0.57677 0.05859 0.0
C1124 C 0.08179 0.55336 0.05654 0.0
C1125 C 0.09745 0.53995 0.06555 0.0
C1126 C 0.1187 0.54971 0.0763 0.0
H1127 H 0.17975 0.61177 0.04296 0.0
H1128 H 0.15399 0.5904 0.04075 0.0
H1129 H 0.15111 0.61829 0.05061 0.0
H1130 H 0.11328 0.60452 0.07108 0.0
H1131 H 0.07642 0.58768 0.05211 0.0
H1132 H 0.29147 0.4239 0.67668 0.0
H1133 H 0.32768 0.44183 0.65579 0.0
H1134 H 0.29821 0.41943 0.58632 0.0
H1135 H 0.26171 0.40219 0.60692 0.0
H1136 H 0.35869 0.4227 0.62682 0.0
H1137 H 0.32158 0.4851 0.57334 0.0
H1138 H 0.30551 0.46995 0.59829 0.0
H1139 H 0.30672 0.45697 0.56863 0.0
C1140 C 0.2925 0.42309 0.65693 0.0
C1141 C 0.27352 0.41159 0.64355 0.0
C1142 C 0.31332 0.43324 0.645 0.0
C1143 C 0.31563 0.43232 0.61941 0.0
C1144 C 0.29676 0.42082 0.60602 0.0
H1145 H 0.42782 0.47096 0.5115 0.0
H1146 H 0.39074 0.45732 0.53361 0.0
C1147 C 0.27596 0.41067 0.6179 0.0
C1148 C 0.33806 0.44259 0.6068 0.0
H1149 H 0.36072 0.47984 0.56248 0.0
C1150 C 0.35915 0.43534 0.61291 0.0
C1151 C 0.33873 0.45907 0.58857 0.0
C1152 C 0.31698 0.46841 0.58195 0.0
C1153 C 0.38069 0.44362 0.60091 0.0
C1154 C 0.38132 0.45994 0.58252 0.0
C1155 C 0.36027 0.46732 0.57652 0.0
C1156 C 0.40358 0.46922 0.56904 0.0
C1157 C 0.40249 0.43433 0.60754 0.0
C1158 C 0.42302 0.48096 0.58145 0.0
C1159 C 0.44423 0.48877 0.56884 0.0
C1160 C 0.44641 0.48511 0.54352 0.0
C1161 C 0.42672 0.47398 0.531 0.0
C1162 C 0.40551 0.46619 0.54362 0.0
H1163 H 0.39802 0.41824 0.6174 0.0
H1164 H 0.41323 0.43164 0.59097 0.0
H1165 H 0.41346 0.44645 0.61966 0.0
H1166 H 0.42185 0.48394 0.60095 0.0
H1167 H 0.45904 0.49737 0.579 0.0
H1168 H 0.77164 0.71625 0.92744 0.0
H1169 H 0.80008 0.69607 0.94607 0.0
H1170 H 0.78572 0.64382 0.8916 0.0
H1171 H 0.75669 0.66354 0.87328 0.0
H1172 H 0.79146 0.62796 0.9394 0.0
H1173 H 0.86433 0.69543 0.91112 0.0
H1174 H 0.8414 0.70464 0.92952 0.0
H1175 H 0.8349 0.69318 0.89953 0.0
C1176 C 0.77409 0.70021 0.91976 0.0
C1177 C 0.76207 0.69161 0.89871 0.0
C1178 C 0.79053 0.68882 0.93028 0.0
C1179 C 0.79532 0.6687 0.9199 0.0
C1180 C 0.7824 0.65942 0.89976 0.0
H1181 H 0.92353 0.61308 0.93187 0.0
H1182 H 0.88911 0.62807 0.91817 0.0
C1183 C 0.76595 0.67078 0.88923 0.0
C1184 C 0.8148 0.65803 0.92901 0.0
H1185 H 0.87461 0.66636 0.93475 0.0
C1186 C 0.80965 0.63633 0.93846 0.0
C1187 C 0.83853 0.66888 0.92733 0.0
C1188 C 0.84525 0.69173 0.91614 0.0
C1189 C 0.82765 0.62523 0.94652 0.0
C1190 C 0.85133 0.63631 0.94535 0.0
C1191 C 0.85643 0.65795 0.93575 0.0
C1192 C 0.87127 0.62573 0.95352 0.0
C1193 C 0.82122 0.6016 0.95567 0.0
C1194 C 0.87263 0.61937 0.97793 0.0
C1195 C 0.89228 0.61077 0.9858 0.0
C1196 C 0.91105 0.60863 0.96944 0.0
C1197 C 0.90948 0.61476 0.94495 0.0
C1198 C 0.8898 0.62324 0.93708 0.0
H1199 H 0.80352 0.59357 0.94949 0.0
H1200 H 0.83443 0.59119 0.94937 0.0
H1201 H 0.82085 0.60186 0.97595 0.0
H1202 H 0.85879 0.62162 0.99105 0.0
H1203 H 0.89313 0.60649 1.00485 0.0
H1204 H 0.40826 0.78894 0.11838 0.0
H1205 H 0.42479 0.82527 0.10107 0.0
H1206 H 0.43785 0.85244 0.17355 0.0
H1207 H 0.42131 0.81612 0.19105 0.0
H1208 H 0.41085 0.86585 0.106 0.0
H1209 H 0.50145 0.87198 0.14081 0.0
H1210 H 0.4805 0.84631 0.14173 0.0
H1211 H 0.47904 0.86782 0.16444 0.0
C1212 C 0.41457 0.80262 0.13073 0.0
C1213 C 0.4134 0.7994 0.15622 0.0
C1214 C 0.42414 0.82345 0.12074 0.0
C1215 C 0.43297 0.84169 0.13588 0.0
C1216 C 0.43176 0.8386 0.16134 0.0
H1217 H 0.49429 0.98152 0.11079 0.0
H1218 H 0.47676 0.94529 0.1279 0.0
C1219 C 0.42224 0.81773 0.17137 0.0
C1220 C 0.44282 0.86398 0.12499 0.0
H1221 H 0.4919 0.90461 0.12263 0.0
C1222 C 0.42862 0.87424 0.10956 0.0
C1223 C 0.46604 0.8751 0.12953 0.0
C1224 C 0.48274 0.86468 0.14483 0.0
C1225 C 0.43675 0.89531 0.09903 0.0
C1226 C 0.45992 0.90645 0.10366 0.0
C1227 C 0.47413 0.8962 0.11906 0.0
C1228 C 0.46976 0.92879 0.09291 0.0
C1229 C 0.42018 0.90571 0.08353 0.0
C1230 C 0.47177 0.93181 0.06745 0.0
C1231 C 0.4818 0.95262 0.05758 0.0
C1232 C 0.49018 0.97088 0.07295 0.0
C1233 C 0.48798 0.96787 0.0984 0.0
C1234 C 0.478 0.94709 0.10823 0.0
H1235 H 0.40146 0.89814 0.08707 0.0
H1236 H 0.42214 0.92402 0.08692 0.0
H1237 H 0.42436 0.90292 0.06396 0.0
H1238 H 0.46603 0.91795 0.05514 0.0
H1239 H 0.48335 0.9543 0.03791 0.0
H1240 H 0.11095 0.26253 0.61568 0.0
H1241 H 0.09488 0.22598 0.59824 0.0
H1242 H 0.09339 0.19654 0.6696 0.0
H1243 H 0.10923 0.23315 0.68722 0.0
H1244 H 0.11305 0.188 0.59627 0.0
H1245 H 0.02783 0.172 0.64774 0.0
H1246 H 0.04644 0.19906 0.64758 0.0
H1247 H 0.05295 0.17732 0.66708 0.0
C1248 C 0.10717 0.2483 0.62772 0.0
C1249 C 0.11138 0.25088 0.65292 0.0
C1250 C 0.0979 0.22737 0.6177 0.0
C1251 C 0.09254 0.20842 0.63257 0.0
C1252 C 0.09674 0.21091 0.65776 0.0
H1253 H 0.04451 0.06641 0.59857 0.0
H1254 H 0.06005 0.10212 0.61856 0.0
C1255 C 0.10587 0.23191 0.66783 0.0
C1256 C 0.08345 0.18602 0.62147 0.0
H1257 H 0.03796 0.14174 0.62393 0.0
C1258 C 0.09657 0.17797 0.6023 0.0
C1259 C 0.06196 0.17276 0.62929 0.0
C1260 C 0.04635 0.18078 0.64888 0.0
C1261 C 0.08896 0.15712 0.59093 0.0
C1262 C 0.06749 0.14393 0.5987 0.0
C1263 C 0.05445 0.15181 0.61801 0.0
C1264 C 0.05802 0.12219 0.58657 0.0
C1265 C 0.10414 0.14923 0.57085 0.0
C1266 C 0.05144 0.12154 0.562 0.0
C1267 C 0.04246 0.10119 0.55055 0.0
C1268 C 0.03984 0.08092 0.56339 0.0
C1269 C 0.04636 0.08162 0.58806 0.0
C1270 C 0.05521 0.10205 0.59955 0.0
H1271 H 0.1225 0.1585 0.57106 0.0
H1272 H 0.10463 0.13107 0.57248 0.0
H1273 H 0.09658 0.152 0.5529 0.0
H1274 H 0.05308 0.13686 0.55167 0.0
H1275 H 0.03759 0.10138 0.53158 0.0
H1276 H 0.69662 0.27133 0.55711 0.0
H1277 H 0.68679 0.30679 0.57295 0.0
H1278 H 0.63 0.302 0.5221 0.0
H1279 H 0.64013 0.26747 0.50552 0.0
H1280 H 0.68788 0.34464 0.54246 0.0
H1281 H 0.6001 0.32133 0.58641 0.0
H1282 H 0.62042 0.30169 0.58205 0.0
H1283 H 0.60171 0.30708 0.55763 0.0
C1284 C 0.68191 0.27774 0.54943 0.0
C1285 C 0.66921 0.26647 0.52995 0.0
C1286 C 0.67621 0.29787 0.55869 0.0
C1287 C 0.65744 0.30676 0.54897 0.0
C1288 C 0.64416 0.29509 0.53032 0.0
H1289 H 0.62073 0.41248 0.48665 0.0
H1290 H 0.64249 0.38553 0.50433 0.0
C1291 C 0.64998 0.27523 0.52087 0.0
C1292 C 0.65329 0.32953 0.55545 0.0
H1293 H 0.60721 0.35748 0.56563 0.0
C1294 C 0.67051 0.34763 0.54839 0.0
C1295 C 0.63086 0.33347 0.56369 0.0
C1296 C 0.61231 0.31483 0.57313 0.0
C1297 C 0.66486 0.36916 0.5464 0.0
C1298 C 0.6414 0.3724 0.55132 0.0
C1299 C 0.62512 0.35491 0.56142 0.0
C1300 C 0.63216 0.39187 0.54177 0.0
C1301 C 0.6836 0.38787 0.53749 0.0
C1302 C 0.61918 0.40446 0.55693 0.0
C1303 C 0.60654 0.41978 0.54677 0.0
C1304 C 0.60648 0.42245 0.52129 0.0
C1305 C 0.62039 0.41062 0.50631 0.0
C1306 C 0.63309 0.39546 0.51646 0.0
H1307 H 0.70128 0.38556 0.54373 0.0
H1308 H 0.68415 0.38773 0.51721 0.0
H1309 H 0.67997 0.40444 0.54399 0.0
H1310 H 0.61798 0.4017 0.57646 0.0
H1311 H 0.59577 0.42856 0.55872 0.0
loop_
_geom_bond_atom_site_label_1
_geom_bond_atom_site_label_2
_geom_bond_distance
_geom_bond_site_symmetry_2
_ccdc_geom_bond_type
C0 C1 1.384 . S
C0 H13 0.947 . S
C0 C35 1.382 . S
C1 C0 1.384 . S
C1 C2 1.378 . S
C2 C1 1.378 . S
C2 C3 1.378 . S
C2 H14 0.952 . S
C3 C2 1.378 . S
C3 H15 0.950 . S
C3 C34 1.383 . S
H4 C23 0.947 . S
H5 C24 0.946 . S
H6 C26 0.953 . S
H7 C27 0.945 . S
H8 C29 0.952 . S
H9 C30 0.949 . S
H10 C32 0.950 . S
H11 C33 0.948 . S
H12 C35 0.951 . S
H13 C0 0.947 . S
H14 C2 0.952 . S
H15 C3 0.950 . S
N16 C19 1.382 . S
N16 C21 1.363 . S
N17 C19 1.371 . S
N17 C20 1.372 . S
N18 C20 1.361 . S
N18 C21 1.377 . S
C19 N16 1.382 . S
C19 N17 1.371 . S
C19 C22 1.480 . S
C20 N17 1.372 . S
C20 N18 1.361 . S
C20 C28 1.457 . S
C21 N16 1.363 . S
C21 N18 1.377 . S
C21 C34 1.479 . S
C22 C19 1.480 . S
C22 C23 1.383 . S
C22 C27 1.385 . S
C23 H4 0.947 . S
C23 C22 1.383 . S
C23 C24 1.388 . S
C24 H5 0.946 . S
C24 C23 1.388 . S
C24 C25 1.384 . S
C25 C24 1.384 . S
C25 C26 1.377 . S
C26 H6 0.953 . S
C26 C25 1.377 . S
C26 C27 1.369 . S
C27 H7 0.945 . S
C27 C22 1.385 . S
C27 C26 1.369 . S
C28 C20 1.457 . S
C28 C29 1.372 . S
C28 C33 1.364 . S
C29 H8 0.952 . S
C29 C28 1.372 . S
C29 C30 1.389 . S
C30 H9 0.949 . S
C30 C29 1.389 . S
C30 C31 1.387 . S
C31 C30 1.387 . S
C31 C32 1.372 . S
C32 H10 0.950 . S
C32 C31 1.372 . S
C32 C33 1.379 . S
C33 H11 0.948 . S
C33 C28 1.364 . S
C33 C32 1.379 . S
C34 C3 1.383 . S
C34 C21 1.479 . S
C34 C35 1.398 . S
C35 C0 1.382 . S
C35 H12 0.951 . S
C35 C34 1.398 . S
C36 C37 1.384 . S
C36 H49 0.947 . S
C36 C71 1.382 . S
C37 C36 1.384 . S
C37 C38 1.378 . S
C38 C37 1.378 . S
C38 C39 1.378 . S
C38 H50 0.952 . S
C39 C38 1.378 . S
C39 H51 0.950 . S
C39 C70 1.383 . S
H40 C59 0.947 . S
H41 C60 0.946 . S
H42 C62 0.953 . S
H43 C63 0.945 . S
H44 C65 0.952 . S
H45 C66 0.949 . S
H46 C68 0.950 . S
H47 C69 0.948 . S
H48 C71 0.951 . S
H49 C36 0.947 . S
H50 C38 0.952 . S
H51 C39 0.950 . S
N52 C55 1.382 . S
N52 C57 1.363 . S
N53 C55 1.371 . S
N53 C56 1.372 . S
N54 C56 1.361 . S
N54 C57 1.377 . S
C55 N52 1.382 . S
C55 N53 1.371 . S
C55 C58 1.480 . S
C56 N53 1.372 . S
C56 N54 1.361 . S
C56 C64 1.457 . S
C57 N52 1.363 . S
C57 N54 1.377 . S
C57 C70 1.479 . S
C58 C55 1.480 . S
C58 C59 1.383 . S
C58 C63 1.385 . S
C59 H40 0.947 . S
C59 C58 1.383 . S
C59 C60 1.388 . S
C60 H41 0.946 . S
C60 C59 1.388 . S
C60 C61 1.384 . S
C61 C60 1.384 . S
C61 C62 1.377 . S
C62 H42 0.953 . S
C62 C61 1.377 . S
C62 C63 1.369 . S
C63 H43 0.945 . S
C63 C58 1.385 . S
C63 C62 1.369 . S
C64 C56 1.457 . S
C64 C65 1.372 . S
C64 C69 1.364 . S
C65 H44 0.952 . S
C65 C64 1.372 . S
C65 C66 1.389 . S
C66 H45 0.949 . S
C66 C65 1.389 . S
C66 C67 1.387 . S
C67 C66 1.387 . S
C67 C68 1.372 . S
C68 H46 0.950 . S
C68 C67 1.372 . S
C68 C69 1.379 . S
C69 H47 0.948 . S
C69 C64 1.364 . S
C69 C68 1.379 . S
C70 C39 1.383 . S
C70 C57 1.479 . S
C70 C71 1.398 . S
C71 C36 1.382 . S
C71 H48 0.951 . S
C71 C70 1.398 . S
C72 C73 1.384 . S
C72 H85 0.947 . S
C72 C107 1.382 . S
C73 C72 1.384 . S
C73 C74 1.378 . S
C74 C73 1.378 . S
C74 C75 1.378 . S
C74 H86 0.952 . S
C75 C74 1.378 . S
C75 H87 0.950 . S
C75 C106 1.383 . S
H76 C95 0.947 . S
H77 C96 0.946 . S
H78 C98 0.953 . S
H79 C99 0.945 . S
H80 C101 0.952 . S
H81 C102 0.949 . S
H82 C104 0.950 . S
H83 C105 0.948 . S
H84 C107 0.951 . S
H85 C72 0.947 . S
H86 C74 0.952 . S
H87 C75 0.950 . S
N88 C91 1.382 . S
N88 C93 1.363 . S
N89 C91 1.371 . S
N89 C92 1.372 . S
N90 C92 1.361 . S
N90 C93 1.377 . S
C91 N88 1.382 . S
C91 N89 1.371 . S
C91 C94 1.480 . S
C92 N89 1.372 . S
C92 N90 1.361 . S
C92 C100 1.457 . S
C93 N88 1.363 . S
C93 N90 1.377 . S
C93 C106 1.479 . S
C94 C91 1.480 . S
C94 C95 1.383 . S
C94 C99 1.385 . S
C95 H76 0.947 . S
C95 C94 1.383 . S
C95 C96 1.388 . S
C96 H77 0.946 . S
C96 C95 1.388 . S
C96 C97 1.384 . S
C97 C96 1.384 . S
C97 C98 1.377 . S
C98 H78 0.953 . S
C98 C97 1.377 . S
C98 C99 1.369 . S
C99 H79 0.945 . S
C99 C94 1.385 . S
C99 C98 1.369 . S
C100 C92 1.457 . S
C100 C101 1.372 . S
C100 C105 1.364 . S
C101 H80 0.952 . S
C101 C100 1.372 . S
C101 C102 1.389 . S
C102 H81 0.949 . S
C102 C101 1.389 . S
C102 C103 1.387 . S
C103 C102 1.387 . S
C103 C104 1.372 . S
C104 H82 0.950 . S
C104 C103 1.372 . S
C104 C105 1.379 . S
C105 H83 0.948 . S
C105 C100 1.364 . S
C105 C104 1.379 . S
C106 C75 1.383 . S
C106 C93 1.479 . S
C106 C107 1.398 . S
C107 C72 1.382 . S
C107 H84 0.951 . S
C107 C106 1.398 . S
C108 C109 1.384 . S
C108 H121 0.947 . S
C108 C143 1.382 . S
C109 C108 1.384 . S
C109 C110 1.378 . S
C110 C109 1.378 . S
C110 C111 1.378 . S
C110 H122 0.952 . S
C111 C110 1.378 . S
C111 H123 0.950 . S
C111 C142 1.383 . S
H112 C131 0.947 . S
H113 C132 0.946 . S
H114 C134 0.953 . S
H115 C135 0.945 . S
H116 C137 0.952 . S
H117 C138 0.949 . S
H118 C140 0.950 . S
H119 C141 0.948 . S
H120 C143 0.951 . S
H121 C108 0.947 . S
H122 C110 0.952 . S
H123 C111 0.950 . S
N124 C127 1.382 . S
N124 C129 1.363 . S
N125 C127 1.371 . S
N125 C128 1.372 . S
N126 C128 1.361 . S
N126 C129 1.377 . S
C127 N124 1.382 . S
C127 N125 1.371 . S
C127 C130 1.480 . S
C128 N125 1.372 . S
C128 N126 1.361 . S
C128 C136 1.457 . S
C129 N124 1.363 . S
C129 N126 1.377 . S
C129 C142 1.479 . S
C130 C127 1.480 . S
C130 C131 1.383 . S
C130 C135 1.385 . S
C131 H112 0.947 . S
C131 C130 1.383 . S
C131 C132 1.388 . S
C132 H113 0.946 . S
C132 C131 1.388 . S
C132 C133 1.384 . S
C133 C132 1.384 . S
C133 C134 1.377 . S
C134 H114 0.953 . S
C134 C133 1.377 . S
C134 C135 1.369 . S
C135 H115 0.945 . S
C135 C130 1.385 . S
C135 C134 1.369 . S
C136 C128 1.457 . S
C136 C137 1.372 . S
C136 C141 1.364 . S
C137 H116 0.952 . S
C137 C136 1.372 . S
C137 C138 1.389 . S
C138 H117 0.949 . S
C138 C137 1.389 . S
C138 C139 1.387 . S
C139 C138 1.387 . S
C139 C140 1.372 . S
C140 H118 0.950 . S
C140 C139 1.372 . S
C140 C141 1.379 . S
C141 H119 0.948 . S
C141 C136 1.364 . S
C141 C140 1.379 . S
C142 C111 1.383 . S
C142 C129 1.479 . S
C142 C143 1.398 . S
C143 C108 1.382 . S
C143 H120 0.951 . S
C143 C142 1.398 . S
C144 C145 1.384 . S
C144 H157 0.947 . S
C144 C179 1.382 . S
C145 C144 1.384 . S
C145 C146 1.378 . S
C146 C145 1.378 . S
C146 C147 1.378 . S
C146 H158 0.952 . S
C147 C146 1.378 . S
C147 H159 0.950 . S
C147 C178 1.383 . S
H148 C167 0.947 . S
H149 C168 0.946 . S
H150 C170 0.953 . S
H151 C171 0.945 . S
H152 C173 0.952 . S
H153 C174 0.949 . S
H154 C176 0.950 . S
H155 C177 0.948 . S
H156 C179 0.951 . S
H157 C144 0.947 . S
H158 C146 0.952 . S
H159 C147 0.950 . S
N160 C163 1.382 . S
N160 C165 1.363 . S
N161 C163 1.371 . S
N161 C164 1.372 . S
N162 C164 1.361 . S
N162 C165 1.377 . S
C163 N160 1.382 . S
C163 N161 1.371 . S
C163 C166 1.480 . S
C164 N161 1.372 . S
C164 N162 1.361 . S
C164 C172 1.457 . S
C165 N160 1.363 . S
C165 N162 1.377 . S
C165 C178 1.479 . S
C166 C163 1.480 . S
C166 C167 1.383 . S
C166 C171 1.385 . S
C167 H148 0.947 . S
C167 C166 1.383 . S
C167 C168 1.388 . S
C168 H149 0.946 . S
C168 C167 1.388 . S
C168 C169 1.384 . S
C169 C168 1.384 . S
C169 C170 1.377 . S
C170 H150 0.953 . S
C170 C169 1.377 . S
C170 C171 1.369 . S
C171 H151 0.945 . S
C171 C166 1.385 . S
C171 C170 1.369 . S
C172 C164 1.457 . S
C172 C173 1.372 . S
C172 C177 1.364 . S
C173 H152 0.952 . S
C173 C172 1.372 . S
C173 C174 1.389 . S
C174 H153 0.949 . S
C174 C173 1.389 . S
C174 C175 1.387 . S
C175 C174 1.387 . S
C175 C176 1.372 . S
C176 H154 0.950 . S
C176 C175 1.372 . S
C176 C177 1.379 . S
C177 H155 0.948 . S
C177 C172 1.364 . S
C177 C176 1.379 . S
C178 C147 1.383 . S
C178 C165 1.479 . S
C178 C179 1.398 . S
C179 C144 1.382 . S
C179 H156 0.951 . S
C179 C178 1.398 . S
C180 C181 1.384 . S
C180 H193 0.947 . S
C180 C215 1.382 . S
C181 C180 1.384 . S
C181 C182 1.378 . S
C182 C181 1.378 . S
C182 C183 1.378 . S
C182 H194 0.952 . S
C183 C182 1.378 . S
C183 H195 0.950 . S
C183 C214 1.383 . S
H184 C203 0.947 . S
H185 C204 0.946 . S
H186 C206 0.953 . S
H187 C207 0.945 . S
H188 C209 0.952 . S
H189 C210 0.949 . S
H190 C212 0.950 . S
H191 C213 0.948 . S
H192 C215 0.951 . S
H193 C180 0.947 . S
H194 C182 0.952 . S
H195 C183 0.950 . S
N196 C199 1.382 . S
N196 C201 1.363 . S
N197 C199 1.371 . S
N197 C200 1.372 . S
N198 C200 1.361 . S
N198 C201 1.377 . S
C199 N196 1.382 . S
C199 N197 1.371 . S
C199 C202 1.480 . S
C200 N197 1.372 . S
C200 N198 1.361 . S
C200 C208 1.457 . S
C201 N196 1.363 . S
C201 N198 1.377 . S
C201 C214 1.479 . S
C202 C199 1.480 . S
C202 C203 1.383 . S
C202 C207 1.385 . S
C203 H184 0.947 . S
C203 C202 1.383 . S
C203 C204 1.388 . S
C204 H185 0.946 . S
C204 C203 1.388 . S
C204 C205 1.384 . S
C205 C204 1.384 . S
C205 C206 1.377 . S
C206 H186 0.953 . S
C206 C205 1.377 . S
C206 C207 1.369 . S
C207 H187 0.945 . S
C207 C202 1.385 . S
C207 C206 1.369 . S
C208 C200 1.457 . S
C208 C209 1.372 . S
C208 C213 1.364 . S
C209 H188 0.952 . S
C209 C208 1.372 . S
C209 C210 1.389 . S
C210 H189 0.949 . S
C210 C209 1.389 . S
C210 C211 1.387 . S
C211 C210 1.387 . S
C211 C212 1.372 . S
C212 H190 0.950 . S
C212 C211 1.372 . S
C212 C213 1.379 . S
C213 H191 0.948 . S
C213 C208 1.364 . S
C213 C212 1.379 . S
C214 C183 1.383 . S
C214 C201 1.479 . S
C214 C215 1.398 . S
C215 C180 1.382 . S
C215 H192 0.951 . S
C215 C214 1.398 . S
C216 C217 1.384 . S
C216 H229 0.947 . S
C216 C251 1.382 . S
C217 C216 1.384 . S
C217 C218 1.378 . S
C218 C217 1.378 . S
C218 C219 1.378 . S
C218 H230 0.952 . S
C219 C218 1.378 . S
C219 H231 0.950 . S
C219 C250 1.383 . S
H220 C239 0.947 . S
H221 C240 0.946 . S
H222 C242 0.953 . S
H223 C243 0.945 . S
H224 C245 0.952 . S
H225 C246 0.949 . S
H226 C248 0.950 . S
H227 C249 0.948 . S
H228 C251 0.951 . S
H229 C216 0.947 . S
H230 C218 0.952 . S
H231 C219 0.950 . S
N232 C235 1.382 . S
N232 C237 1.363 . S
N233 C235 1.371 . S
N233 C236 1.372 . S
N234 C236 1.361 . S
N234 C237 1.377 . S
C235 N232 1.382 . S
C235 N233 1.371 . S
C235 C238 1.480 . S
C236 N233 1.372 . S
C236 N234 1.361 . S
C236 C244 1.457 . S
C237 N232 1.363 . S
C237 N234 1.377 . S
C237 C250 1.479 . S
C238 C235 1.480 . S
C238 C239 1.383 . S
C238 C243 1.385 . S
C239 H220 0.947 . S
C239 C238 1.383 . S
C239 C240 1.388 . S
C240 H221 0.946 . S
C240 C239 1.388 . S
C240 C241 1.384 . S
C241 C240 1.384 . S
C241 C242 1.377 . S
C242 H222 0.953 . S
C242 C241 1.377 . S
C242 C243 1.369 . S
C243 H223 0.945 . S
C243 C238 1.385 . S
C243 C242 1.369 . S
C244 C236 1.457 . S
C244 C245 1.372 . S
C244 C249 1.364 . S
C245 H224 0.952 . S
C245 C244 1.372 . S
C245 C246 1.389 . S
C246 H225 0.949 . S
C246 C245 1.389 . S
C246 C247 1.387 . S
C247 C246 1.387 . S
C247 C248 1.372 . S
C248 H226 0.950 . S
C248 C247 1.372 . S
C248 C249 1.379 . S
C249 H227 0.948 . S
C249 C244 1.364 . S
C249 C248 1.379 . S
C250 C219 1.383 . S
C250 C237 1.479 . S
C250 C251 1.398 . S
C251 C216 1.382 . S
C251 H228 0.951 . S
C251 C250 1.398 . S
C252 C253 1.384 . S
C252 H265 0.947 . S
C252 C287 1.382 . S
C253 C252 1.384 . S
C253 C254 1.378 . S
C254 C253 1.378 . S
C254 C255 1.378 . S
C254 H266 0.952 . S
C255 C254 1.378 . S
C255 H267 0.950 . S
C255 C286 1.383 . S
H256 C275 0.947 . S
H257 C276 0.946 . S
H258 C278 0.953 . S
H259 C279 0.945 . S
H260 C281 0.952 . S
H261 C282 0.949 . S
H262 C284 0.950 . S
H263 C285 0.948 . S
H264 C287 0.951 . S
H265 C252 0.947 . S
H266 C254 0.952 . S
H267 C255 0.950 . S
N268 C271 1.382 . S
N268 C273 1.363 . S
N269 C271 1.371 . S
N269 C272 1.372 . S
N270 C272 1.361 . S
N270 C273 1.377 . S
C271 N268 1.382 . S
C271 N269 1.371 . S
C271 C274 1.480 . S
C272 N269 1.372 . S
C272 N270 1.361 . S
C272 C280 1.457 . S
C273 N268 1.363 . S
C273 N270 1.377 . S
C273 C286 1.479 . S
C274 C271 1.480 . S
C274 C275 1.383 . S
C274 C279 1.385 . S
C275 H256 0.947 . S
C275 C274 1.383 . S
C275 C276 1.388 . S
C276 H257 0.946 . S
C276 C275 1.388 . S
C276 C277 1.384 . S
C277 C276 1.384 . S
C277 C278 1.377 . S
C278 H258 0.953 . S
C278 C277 1.377 . S
C278 C279 1.369 . S
C279 H259 0.945 . S
C279 C274 1.385 . S
C279 C278 1.369 . S
C280 C272 1.457 . S
C280 C281 1.372 . S
C280 C285 1.364 . S
C281 H260 0.952 . S
C281 C280 1.372 . S
C281 C282 1.389 . S
C282 H261 0.949 . S
C282 C281 1.389 . S
C282 C283 1.387 . S
C283 C282 1.387 . S
C283 C284 1.372 . S
C284 H262 0.950 . S
C284 C283 1.372 . S
C284 C285 1.379 . S
C285 H263 0.948 . S
C285 C280 1.364 . S
C285 C284 1.379 . S
C286 C255 1.383 . S
C286 C273 1.479 . S
C286 C287 1.398 . S
C287 C252 1.382 . S
C287 H264 0.951 . S
C287 C286 1.398 . S
Sm288 C290 2.846 . S
Sm288 O308 2.543 . S
Sm288 O309 2.450 . S
Sm288 O310 2.681 1_545 S
Sm288 O311 2.464 1_545 S
Sm288 O312 2.396 . S
Sm288 O316 2.386 1_455 S
Sm288 O319 2.408 1_445 S
Sm289 C299 2.846 . S
Sm289 O310 2.386 1_655 S
Sm289 O313 2.408 1_665 S
Sm289 O314 2.543 . S
Sm289 O315 2.450 . S
Sm289 O316 2.681 1_565 S
Sm289 O317 2.464 1_565 S
Sm289 O318 2.396 . S
C290 Sm288 2.846 . S
C290 C291 1.506 . S
C290 O308 1.261 . S
C290 O309 1.242 . S
C291 C290 1.506 . S
C291 C292 1.358 . S
C291 C296 1.382 . S
C292 C291 1.358 . S
C292 C293 1.385 . S
C292 H320 0.930 . S
C293 C292 1.385 . S
C293 C294 1.395 . S
C293 H321 0.929 . S
C294 C293 1.395 . S
C294 C295 1.335 . S
C295 C294 1.335 . S
C295 C296 1.398 . S
C295 H322 0.930 . S
C296 C291 1.382 . S
C296 C295 1.398 . S
C296 H323 0.929 . S
C297 O310 1.271 . S
C297 O311 1.251 . S
C298 O312 1.252 . S
C298 O313 1.272 . S
C299 Sm289 2.846 . S
C299 C300 1.506 . S
C299 O314 1.261 . S
C299 O315 1.242 . S
C300 C299 1.506 . S
C300 C301 1.358 . S
C300 C305 1.382 . S
C301 C300 1.358 . S
C301 C302 1.385 . S
C301 H324 0.930 . S
C302 C301 1.385 . S
C302 C303 1.395 . S
C302 H325 0.929 . S
C303 C302 1.395 . S
C303 C304 1.335 . S
C304 C303 1.335 . S
C304 C305 1.398 . S
C304 H326 0.930 . S
C305 C300 1.382 . S
C305 C304 1.398 . S
C305 H327 0.929 . S
C306 O316 1.271 . S
C306 O317 1.251 . S
C307 O318 1.252 . S
C307 O319 1.272 . S
O308 Sm288 2.543 . S
O308 C290 1.261 . S
O309 Sm288 2.450 . S
O309 C290 1.242 . S
O310 Sm288 2.681 1_565 S
O310 Sm289 2.386 1_455 S
O310 C297 1.271 . S
O311 Sm288 2.464 1_565 S
O311 C297 1.251 . S
O312 Sm288 2.396 . S
O312 C298 1.252 . S
O313 Sm289 2.408 1_445 S
O313 C298 1.272 . S
O314 Sm289 2.543 . S
O314 C299 1.261 . S
O315 Sm289 2.450 . S
O315 C299 1.242 . S
O316 Sm288 2.386 1_655 S
O316 Sm289 2.681 1_545 S
O316 C306 1.271 . S
O317 Sm289 2.464 1_545 S
O317 C306 1.251 . S
O318 Sm289 2.396 . S
O318 C307 1.252 . S
O319 Sm288 2.408 1_665 S
O319 C307 1.272 . S
H320 C292 0.930 . S
H321 C293 0.929 . S
H322 C295 0.930 . S
H323 C296 0.929 . S
H324 C301 0.930 . S
H325 C302 0.929 . S
H326 C304 0.930 . S
H327 C305 0.929 . S
Sm328 C330 2.844 1_565 S
Sm328 O348 2.540 1_565 S
Sm328 O349 2.450 1_565 S
Sm328 O350 2.682 . S
Sm328 O351 2.466 . S
Sm328 O352 2.394 1_565 S
Sm328 O356 2.384 1_564 S
Sm328 O359 2.410 1_554 S
Sm329 C339 2.846 1_545 S
Sm329 O350 2.386 1_546 S
Sm329 O353 2.408 1_556 S
Sm329 O354 2.543 1_545 S
Sm329 O355 2.450 1_545 S
Sm329 O356 2.681 . S
Sm329 O357 2.464 . S
Sm329 O358 2.396 1_545 S
C330 Sm328 2.844 1_545 S
C330 C331 1.506 . S
C330 O348 1.261 . S
C330 O349 1.242 . S
C331 C330 1.506 . S
C331 C332 1.358 . S
C331 C336 1.382 . S
C332 C331 1.358 . S
C332 C333 1.385 . S
C332 H360 0.930 . S
C333 C332 1.385 . S
C333 C334 1.395 . S
C333 H361 0.929 . S
C334 C333 1.395 . S
C334 C335 1.335 . S
C335 C334 1.335 . S
C335 C336 1.398 . S
C335 H362 0.930 . S
C336 C331 1.382 . S
C336 C335 1.398 . S
C336 H363 0.929 . S
C337 O350 1.271 . S
C337 O351 1.251 . S
C338 O352 1.252 . S
C338 O353 1.272 . S
C339 Sm329 2.846 1_565 S
C339 C340 1.506 . S
C339 O354 1.261 . S
C339 O355 1.242 . S
C340 C339 1.506 . S
C340 C341 1.358 . S
C340 C345 1.382 . S
C341 C340 1.358 . S
C341 C342 1.385 . S
C341 H364 0.930 . S
C342 C341 1.385 . S
C342 C343 1.395 . S
C342 H365 0.929 . S
C343 C342 1.395 . S
C343 C344 1.335 . S
C344 C343 1.335 . S
C344 C345 1.398 . S
C344 H366 0.930 . S
C345 C340 1.382 . S
C345 C344 1.398 . S
C345 H367 0.929 . S
C346 O356 1.271 . S
C346 O357 1.251 . S
C347 O358 1.252 . S
C347 O359 1.272 . S
O348 Sm328 2.540 1_545 S
O348 C330 1.261 . S
O349 Sm328 2.450 1_545 S
O349 C330 1.242 . S
O350 Sm328 2.682 . S
O350 Sm329 2.386 1_564 S
O350 C337 1.271 . S
O351 Sm328 2.466 . S
O351 C337 1.251 . S
O352 Sm328 2.394 1_545 S
O352 C338 1.252 . S
O353 Sm329 2.408 1_554 S
O353 C338 1.272 . S
O354 Sm329 2.543 1_565 S
O354 C339 1.261 . S
O355 Sm329 2.450 1_565 S
O355 C339 1.242 . S
O356 Sm328 2.384 1_546 S
O356 Sm329 2.681 . S
O356 C346 1.271 . S
O357 Sm329 2.464 . S
O357 C346 1.251 . S
O358 Sm329 2.396 1_565 S
O358 C347 1.252 . S
O359 Sm328 2.410 1_556 S
O359 C347 1.272 . S
H360 C332 0.930 . S
H361 C333 0.929 . S
H362 C335 0.930 . S
H363 C336 0.929 . S
H364 C341 0.930 . S
H365 C342 0.929 . S
H366 C344 0.930 . S
H367 C345 0.929 . S
Sm368 C370 2.846 . S
Sm368 O388 2.543 . S
Sm368 O389 2.450 . S
Sm368 O390 2.681 . S
Sm368 O391 2.464 . S
Sm368 O392 2.396 . S
Sm368 O396 2.386 . S
Sm368 O399 2.408 . S
Sm369 C379 2.846 . S
Sm369 O390 2.386 . S
Sm369 O393 2.408 . S
Sm369 O394 2.543 . S
Sm369 O395 2.450 . S
Sm369 O396 2.681 . S
Sm369 O397 2.464 . S
Sm369 O398 2.396 . S
C370 Sm368 2.846 . S
C370 C371 1.506 . S
C370 O388 1.261 . S
C370 O389 1.242 . S
C371 C370 1.506 . S
C371 C372 1.358 . S
C371 C376 1.382 . S
C372 C371 1.358 . S
C372 C373 1.385 . S
C372 H400 0.930 . S
C373 C372 1.385 . S
C373 C374 1.395 . S
C373 H401 0.929 . S
C374 C373 1.395 . S
C374 C375 1.335 . S
C375 C374 1.335 . S
C375 C376 1.398 . S
C375 H402 0.930 . S
C376 C371 1.382 . S
C376 C375 1.398 . S
C376 H403 0.929 . S
C377 O390 1.271 . S
C377 O391 1.251 . S
C378 O392 1.252 . S
C378 O393 1.272 . S
C379 Sm369 2.846 . S
C379 C380 1.506 . S
C379 O394 1.261 . S
C379 O395 1.242 . S
C380 C379 1.506 . S
C380 C381 1.358 . S
C380 C385 1.382 . S
C381 C380 1.358 . S
C381 C382 1.385 . S
C381 H404 0.930 . S
C382 C381 1.385 . S
C382 C383 1.395 . S
C382 H405 0.929 . S
C383 C382 1.395 . S
C383 C384 1.335 . S
C384 C383 1.335 . S
C384 C385 1.398 . S
C384 H406 0.930 . S
C385 C380 1.382 . S
C385 C384 1.398 . S
C385 H407 0.929 . S
C386 O396 1.271 . S
C386 O397 1.251 . S
C387 O398 1.252 . S
C387 O399 1.272 . S
O388 Sm368 2.543 . S
O388 C370 1.261 . S
O389 Sm368 2.450 . S
O389 C370 1.242 . S
O390 Sm368 2.681 . S
O390 Sm369 2.386 . S
O390 C377 1.271 . S
O391 Sm368 2.464 . S
O391 C377 1.251 . S
O392 Sm368 2.396 . S
O392 C378 1.252 . S
O393 Sm369 2.408 . S
O393 C378 1.272 . S
O394 Sm369 2.543 . S
O394 C379 1.261 . S
O395 Sm369 2.450 . S
O395 C379 1.242 . S
O396 Sm368 2.386 . S
O396 Sm369 2.681 . S
O396 C386 1.271 . S
O397 Sm369 2.464 . S
O397 C386 1.251 . S
O398 Sm369 2.396 . S
O398 C387 1.252 . S
O399 Sm368 2.408 . S
O399 C387 1.272 . S
H400 C372 0.930 . S
H401 C373 0.929 . S
H402 C375 0.930 . S
H403 C376 0.929 . S
H404 C381 0.930 . S
H405 C382 0.929 . S
H406 C384 0.930 . S
H407 C385 0.929 . S
Sm408 C410 2.846 . S
Sm408 O428 2.543 . S
Sm408 O429 2.450 . S
Sm408 O430 2.681 1_455 S
Sm408 O431 2.464 1_455 S
Sm408 O432 2.396 . S
Sm408 O436 2.386 1_554 S
Sm408 O439 2.403 1_454 S
Sm409 C419 2.846 1_455 S
Sm409 O430 2.386 1_456 S
Sm409 O433 2.408 1_556 S
Sm409 O434 2.543 1_455 S
Sm409 O435 2.450 1_455 S
Sm409 O436 2.681 . S
Sm409 O437 2.464 . S
Sm409 O438 2.396 1_455 S
C410 Sm408 2.846 . S
C410 C411 1.506 . S
C410 O428 1.261 . S
C410 O429 1.242 . S
C411 C410 1.506 . S
C411 C412 1.358 . S
C411 C416 1.382 . S
C412 C411 1.358 . S
C412 C413 1.385 . S
C412 H440 0.930 . S
C413 C412 1.385 . S
C413 C414 1.395 . S
C413 H441 0.929 . S
C414 C413 1.395 . S
C414 C415 1.335 . S
C415 C414 1.335 . S
C415 C416 1.398 . S
C415 H442 0.930 . S
C416 C411 1.382 . S
C416 C415 1.398 . S
C416 H443 0.929 . S
C417 O430 1.271 . S
C417 O431 1.251 . S
C418 O432 1.252 . S
C418 O433 1.272 . S
C419 Sm409 2.846 1_655 S
C419 C420 1.506 . S
C419 O434 1.261 . S
C419 O435 1.242 . S
C420 C419 1.506 . S
C420 C421 1.358 . S
C420 C425 1.382 . S
C421 C420 1.358 . S
C421 C422 1.385 . S
C421 H444 0.930 . S
C422 C421 1.385 . S
C422 C423 1.395 . S
C422 H445 0.929 . S
C423 C422 1.395 . S
C423 C424 1.335 . S
C424 C423 1.335 . S
C424 C425 1.398 . S
C424 H446 0.930 . S
C425 C420 1.382 . S
C425 C424 1.398 . S
C425 H447 0.929 . S
C426 O436 1.271 . S
C426 O437 1.251 . S
C427 O438 1.252 . S
C427 O439 1.278 . S
O428 Sm408 2.543 . S
O428 C410 1.261 . S
O429 Sm408 2.450 . S
O429 C410 1.242 . S
O430 Sm408 2.681 1_655 S
O430 Sm409 2.386 1_654 S
O430 C417 1.271 . S
O431 Sm408 2.464 1_655 S
O431 C417 1.251 . S
O432 Sm408 2.396 . S
O432 C418 1.252 . S
O433 Sm409 2.408 1_554 S
O433 C418 1.272 . S
O434 Sm409 2.543 1_655 S
O434 C419 1.261 . S
O435 Sm409 2.450 1_655 S
O435 C419 1.242 . S
O436 Sm408 2.386 1_556 S
O436 Sm409 2.681 . S
O436 C426 1.271 . S
O437 Sm409 2.464 . S
O437 C426 1.251 . S
O438 Sm409 2.396 1_655 S
O438 C427 1.252 . S
O439 Sm408 2.403 1_656 S
O439 C427 1.278 . S
H440 C412 0.930 . S
H441 C413 0.929 . S
H442 C415 0.930 . S
H443 C416 0.929 . S
H444 C421 0.930 . S
H445 C422 0.929 . S
H446 C424 0.930 . S
H447 C425 0.929 . S
H448 C456 0.929 . S
H449 C458 0.930 . S
H450 C460 0.930 . S
H451 C463 0.929 . S
H452 C466 0.930 . S
H453 C468 0.960 . S
H454 C468 0.960 . S
H455 C468 0.960 . S
C456 H448 0.929 . S
C456 C457 1.377 . S
C456 C458 1.384 . S
C457 C456 1.377 . S
C457 C463 1.390 . S
C458 H449 0.930 . S
C458 C456 1.384 . S
C458 C459 1.372 . S
C459 C458 1.372 . S
C459 C460 1.400 . S
C459 C464 1.490 . S
C460 H450 0.930 . S
C460 C459 1.400 . S
C460 C463 1.386 . S
H461 C477 0.930 . S
H462 C478 0.931 . S
C463 H451 0.929 . S
C463 C457 1.390 . S
C463 C460 1.386 . S
C464 C459 1.490 . S
C464 C466 1.395 . S
C464 C467 1.403 . S
H465 C471 0.930 . S
C466 H452 0.930 . S
C466 C464 1.395 . S
C466 C469 1.403 . S
C467 C464 1.403 . S
C467 C468 1.524 . S
C467 C471 1.400 . S
C468 H453 0.960 . S
C468 H454 0.960 . S
C468 H455 0.960 . S
C468 C467 1.524 . S
C469 C466 1.403 . S
C469 C470 1.392 . S
C469 C473 1.495 . S
C470 C469 1.392 . S
C470 C471 1.385 . S
C470 C472 1.478 . S
C471 H465 0.930 . S
C471 C467 1.400 . S
C471 C470 1.385 . S
C472 C470 1.478 . S
C472 C474 1.381 . S
C472 C478 1.383 . S
C473 C469 1.495 . S
C473 H479 0.959 . S
C473 H480 0.961 . S
C473 H481 0.960 . S
C474 C472 1.381 . S
C474 C475 1.394 . S
C474 H482 0.930 . S
C475 C474 1.394 . S
C475 C476 1.383 . S
C475 H483 0.929 . S
C476 C475 1.383 . S
C476 C477 1.377 . S
C477 H461 0.930 . S
C477 C476 1.377 . S
C477 C478 1.379 . S
C478 H462 0.931 . S
C478 C472 1.383 . S
C478 C477 1.379 . S
H479 C473 0.959 . S
H480 C473 0.961 . S
H481 C473 0.960 . S
H482 C474 0.930 . S
H483 C475 0.929 . S
H484 C492 0.929 . S
H485 C494 0.930 . S
H486 C496 0.930 . S
H487 C499 0.929 . S
H488 C502 0.930 . S
H489 C504 0.960 . S
H490 C504 0.960 . S
H491 C504 0.960 . S
C492 H484 0.929 . S
C492 C493 1.377 . S
C492 C494 1.384 . S
C493 C492 1.377 . S
C493 C499 1.390 . S
C494 H485 0.930 . S
C494 C492 1.384 . S
C494 C495 1.372 . S
C495 C494 1.372 . S
C495 C496 1.400 . S
C495 C500 1.490 . S
C496 H486 0.930 . S
C496 C495 1.400 . S
C496 C499 1.386 . S
H497 C513 0.930 . S
H498 C514 0.931 . S
C499 H487 0.929 . S
C499 C493 1.390 . S
C499 C496 1.386 . S
C500 C495 1.490 . S
C500 C502 1.395 . S
C500 C503 1.403 . S
H501 C507 0.930 . S
C502 H488 0.930 . S
C502 C500 1.395 . S
C502 C505 1.403 . S
C503 C500 1.403 . S
C503 C504 1.524 . S
C503 C507 1.400 . S
C504 H489 0.960 . S
C504 H490 0.960 . S
C504 H491 0.960 . S
C504 C503 1.524 . S
C505 C502 1.403 . S
C505 C506 1.392 . S
C505 C509 1.495 . S
C506 C505 1.392 . S
C506 C507 1.385 . S
C506 C508 1.478 . S
C507 H501 0.930 . S
C507 C503 1.400 . S
C507 C506 1.385 . S
C508 C506 1.478 . S
C508 C510 1.381 . S
C508 C514 1.383 . S
C509 C505 1.495 . S
C509 H515 0.959 . S
C509 H516 0.961 . S
C509 H517 0.960 . S
C510 C508 1.381 . S
C510 C511 1.394 . S
C510 H518 0.930 . S
C511 C510 1.394 . S
C511 C512 1.383 . S
C511 H519 0.929 . S
C512 C511 1.383 . S
C512 C513 1.377 . S
C513 H497 0.930 . S
C513 C512 1.377 . S
C513 C514 1.379 . S
C514 H498 0.931 . S
C514 C508 1.383 . S
C514 C513 1.379 . S
H515 C509 0.959 . S
H516 C509 0.961 . S
H517 C509 0.960 . S
H518 C510 0.930 . S
H519 C511 0.929 . S
H520 C528 0.929 . S
H521 C530 0.930 . S
H522 C532 0.930 . S
H523 C535 0.929 . S
H524 C538 0.930 . S
H525 C540 0.960 . S
H526 C540 0.960 . S
H527 C540 0.960 . S
C528 H520 0.929 . S
C528 C529 1.377 . S
C528 C530 1.384 . S
C529 C528 1.377 . S
C529 C535 1.390 . S
C530 H521 0.930 . S
C530 C528 1.384 . S
C530 C531 1.372 . S
C531 C530 1.372 . S
C531 C532 1.400 . S
C531 C536 1.490 . S
C532 H522 0.930 . S
C532 C531 1.400 . S
C532 C535 1.386 . S
H533 C549 0.930 . S
H534 C550 0.931 . S
C535 H523 0.929 . S
C535 C529 1.390 . S
C535 C532 1.386 . S
C536 C531 1.490 . S
C536 C538 1.395 . S
C536 C539 1.403 . S
H537 C543 0.930 . S
C538 H524 0.930 . S
C538 C536 1.395 . S
C538 C541 1.403 . S
C539 C536 1.403 . S
C539 C540 1.524 . S
C539 C543 1.400 . S
C540 H525 0.960 . S
C540 H526 0.960 . S
C540 H527 0.960 . S
C540 C539 1.524 . S
C541 C538 1.403 . S
C541 C542 1.392 . S
C541 C545 1.495 . S
C542 C541 1.392 . S
C542 C543 1.385 . S
C542 C544 1.478 . S
C543 H537 0.930 . S
C543 C539 1.400 . S
C543 C542 1.385 . S
C544 C542 1.478 . S
C544 C546 1.381 . S
C544 C550 1.383 . S
C545 C541 1.495 . S
C545 H551 0.959 . S
C545 H552 0.961 . S
C545 H553 0.960 . S
C546 C544 1.381 . S
C546 C547 1.394 . S
C546 H554 0.930 . S
C547 C546 1.394 . S
C547 C548 1.383 . S
C547 H555 0.929 . S
C548 C547 1.383 . S
C548 C549 1.377 . S
C549 H533 0.930 . S
C549 C548 1.377 . S
C549 C550 1.379 . S
C550 H534 0.931 . S
C550 C544 1.383 . S
C550 C549 1.379 . S
H551 C545 0.959 . S
H552 C545 0.961 . S
H553 C545 0.960 . S
H554 C546 0.930 . S
H555 C547 0.929 . S
H556 C564 0.929 . S
H557 C566 0.930 . S
H558 C568 0.930 . S
H559 C571 0.929 . S
H560 C574 0.930 . S
H561 C576 0.960 . S
H562 C576 0.960 . S
H563 C576 0.960 . S
C564 H556 0.929 . S
C564 C565 1.377 . S
C564 C566 1.384 . S
C565 C564 1.377 . S
C565 C571 1.390 . S
C566 H557 0.930 . S
C566 C564 1.384 . S
C566 C567 1.372 . S
C567 C566 1.372 . S
C567 C568 1.400 . S
C567 C572 1.490 . S
C568 H558 0.930 . S
C568 C567 1.400 . S
C568 C571 1.386 . S
H569 C585 0.930 . S
H570 C586 0.931 . S
C571 H559 0.929 . S
C571 C565 1.390 . S
C571 C568 1.386 . S
C572 C567 1.490 . S
C572 C574 1.395 . S
C572 C575 1.403 . S
H573 C579 0.930 . S
C574 H560 0.930 . S
C574 C572 1.395 . S
C574 C577 1.403 . S
C575 C572 1.403 . S
C575 C576 1.524 . S
C575 C579 1.400 . S
C576 H561 0.960 . S
C576 H562 0.960 . S
C576 H563 0.960 . S
C576 C575 1.524 . S
C577 C574 1.403 . S
C577 C578 1.392 . S
C577 C581 1.495 . S
C578 C577 1.392 . S
C578 C579 1.385 . S
C578 C580 1.478 . S
C579 H573 0.930 . S
C579 C575 1.400 . S
C579 C578 1.385 . S
C580 C578 1.478 . S
C580 C582 1.381 . S
C580 C586 1.383 . S
C581 C577 1.495 . S
C581 H587 0.959 . S
C581 H588 0.961 . S
C581 H589 0.960 . S
C582 C580 1.381 . S
C582 C583 1.394 . S
C582 H590 0.930 . S
C583 C582 1.394 . S
C583 C584 1.383 . S
C583 H591 0.929 . S
C584 C583 1.383 . S
C584 C585 1.377 . S
C585 H569 0.930 . S
C585 C584 1.377 . S
C585 C586 1.379 . S
C586 H570 0.931 . S
C586 C580 1.383 . S
C586 C585 1.379 . S
H587 C581 0.959 . S
H588 C581 0.961 . S
H589 C581 0.960 . S
H590 C582 0.930 . S
H591 C583 0.929 . S
H592 C600 0.929 . S
H593 C602 0.930 . S
H594 C604 0.930 . S
H595 C607 0.929 . S
H596 C610 0.930 . S
H597 C612 0.960 . S
H598 C612 0.960 . S
H599 C612 0.960 . S
C600 H592 0.929 . S
C600 C601 1.377 . S
C600 C602 1.384 . S
C601 C600 1.377 . S
C601 C607 1.390 . S
C602 H593 0.930 . S
C602 C600 1.384 . S
C602 C603 1.372 . S
C603 C602 1.372 . S
C603 C604 1.400 . S
C603 C608 1.490 . S
C604 H594 0.930 . S
C604 C603 1.400 . S
C604 C607 1.386 . S
H605 C621 0.930 . S
H606 C622 0.931 . S
C607 H595 0.929 . S
C607 C601 1.390 . S
C607 C604 1.386 . S
C608 C603 1.490 . S
C608 C610 1.395 . S
C608 C611 1.403 . S
H609 C615 0.930 . S
C610 H596 0.930 . S
C610 C608 1.395 . S
C610 C613 1.403 . S
C611 C608 1.403 . S
C611 C612 1.524 . S
C611 C615 1.400 . S
C612 H597 0.960 . S
C612 H598 0.960 . S
C612 H599 0.960 . S
C612 C611 1.524 . S
C613 C610 1.403 . S
C613 C614 1.392 . S
C613 C617 1.495 . S
C614 C613 1.392 . S
C614 C615 1.385 . S
C614 C616 1.478 . S
C615 H609 0.930 . S
C615 C611 1.400 . S
C615 C614 1.385 . S
C616 C614 1.478 . S
C616 C618 1.381 . S
C616 C622 1.383 . S
C617 C613 1.495 . S
C617 H623 0.959 . S
C617 H624 0.961 . S
C617 H625 0.960 . S
C618 C616 1.381 . S
C618 C619 1.394 . S
C618 H626 0.930 . S
C619 C618 1.394 . S
C619 C620 1.383 . S
C619 H627 0.929 . S
C620 C619 1.383 . S
C620 C621 1.377 . S
C621 H605 0.930 . S
C621 C620 1.377 . S
C621 C622 1.379 . S
C622 H606 0.931 . S
C622 C616 1.383 . S
C622 C621 1.379 . S
H623 C617 0.959 . S
H624 C617 0.961 . S
H625 C617 0.960 . S
H626 C618 0.930 . S
H627 C619 0.929 . S
H628 C636 0.929 . S
H629 C638 0.930 . S
H630 C640 0.930 . S
H631 C643 0.929 . S
H632 C646 0.930 . S
H633 C648 0.960 . S
H634 C648 0.960 . S
H635 C648 0.960 . S
C636 H628 0.929 . S
C636 C637 1.377 . S
C636 C638 1.384 . S
C637 C636 1.377 . S
C637 C643 1.390 . S
C638 H629 0.930 . S
C638 C636 1.384 . S
C638 C639 1.372 . S
C639 C638 1.372 . S
C639 C640 1.400 . S
C639 C644 1.490 . S
C640 H630 0.930 . S
C640 C639 1.400 . S
C640 C643 1.386 . S
H641 C657 0.930 . S
H642 C658 0.931 . S
C643 H631 0.929 . S
C643 C637 1.390 . S
C643 C640 1.386 . S
C644 C639 1.490 . S
C644 C646 1.395 . S
C644 C647 1.403 . S
H645 C651 0.930 . S
C646 H632 0.930 . S
C646 C644 1.395 . S
C646 C649 1.403 . S
C647 C644 1.403 . S
C647 C648 1.524 . S
C647 C651 1.400 . S
C648 H633 0.960 . S
C648 H634 0.960 . S
C648 H635 0.960 . S
C648 C647 1.524 . S
C649 C646 1.403 . S
C649 C650 1.392 . S
C649 C653 1.495 . S
C650 C649 1.392 . S
C650 C651 1.385 . S
C650 C652 1.478 . S
C651 H645 0.930 . S
C651 C647 1.400 . S
C651 C650 1.385 . S
C652 C650 1.478 . S
C652 C654 1.381 . S
C652 C658 1.383 . S
C653 C649 1.495 . S
C653 H659 0.959 . S
C653 H660 0.961 . S
C653 H661 0.960 . S
C654 C652 1.381 . S
C654 C655 1.394 . S
C654 H662 0.930 . S
C655 C654 1.394 . S
C655 C656 1.383 . S
C655 H663 0.929 . S
C656 C655 1.383 . S
C656 C657 1.377 . S
C657 H641 0.930 . S
C657 C656 1.377 . S
C657 C658 1.379 . S
C658 H642 0.931 . S
C658 C652 1.383 . S
C658 C657 1.379 . S
H659 C653 0.959 . S
H660 C653 0.961 . S
H661 C653 0.960 . S
H662 C654 0.930 . S
H663 C655 0.929 . S
H664 C672 0.929 . S
H665 C674 0.930 . S
H666 C676 0.930 . S
H667 C679 0.929 . S
H668 C682 0.930 . S
H669 C684 0.960 . S
H670 C684 0.960 . S
H671 C684 0.960 . S
C672 H664 0.929 . S
C672 C673 1.377 . S
C672 C674 1.384 . S
C673 C672 1.377 . S
C673 C679 1.390 . S
C674 H665 0.930 . S
C674 C672 1.384 . S
C674 C675 1.372 . S
C675 C674 1.372 . S
C675 C676 1.400 . S
C675 C680 1.490 . S
C676 H666 0.930 . S
C676 C675 1.400 . S
C676 C679 1.386 . S
H677 C693 0.930 . S
H678 C694 0.931 . S
C679 H667 0.929 . S
C679 C673 1.390 . S
C679 C676 1.386 . S
C680 C675 1.490 . S
C680 C682 1.395 . S
C680 C683 1.403 . S
H681 C687 0.930 . S
C682 H668 0.930 . S
C682 C680 1.395 . S
C682 C685 1.403 . S
C683 C680 1.403 . S
C683 C684 1.524 . S
C683 C687 1.400 . S
C684 H669 0.960 . S
C684 H670 0.960 . S
C684 H671 0.960 . S
C684 C683 1.524 . S
C685 C682 1.403 . S
C685 C686 1.392 . S
C685 C689 1.495 . S
C686 C685 1.392 . S
C686 C687 1.385 . S
C686 C688 1.478 . S
C687 H681 0.930 . S
C687 C683 1.400 . S
C687 C686 1.385 . S
C688 C686 1.478 . S
C688 C690 1.381 . S
C688 C694 1.383 . S
C689 C685 1.495 . S
C689 H695 0.959 . S
C689 H696 0.961 . S
C689 H697 0.960 . S
C690 C688 1.381 . S
C690 C691 1.394 . S
C690 H698 0.930 . S
C691 C690 1.394 . S
C691 C692 1.383 . S
C691 H699 0.922 1_556 S
C692 C691 1.383 . S
C692 C693 1.377 . S
C693 H677 0.930 . S
C693 C692 1.377 . S
C693 C694 1.379 . S
C694 H678 0.931 . S
C694 C688 1.383 . S
C694 C693 1.379 . S
H695 C689 0.959 . S
H696 C689 0.961 . S
H697 C689 0.960 . S
H698 C690 0.930 . S
H699 C691 0.922 1_554 S
H700 C708 0.929 . S
H701 C710 0.930 . S
H702 C712 0.930 . S
H703 C715 0.929 . S
H704 C718 0.930 . S
H705 C720 0.960 . S
H706 C720 0.960 . S
H707 C720 0.960 . S
C708 H700 0.929 . S
C708 C709 1.377 . S
C708 C710 1.384 . S
C709 C708 1.377 . S
C709 C715 1.390 . S
C710 H701 0.930 . S
C710 C708 1.384 . S
C710 C711 1.372 . S
C711 C710 1.372 . S
C711 C712 1.400 . S
C711 C716 1.490 . S
C712 H702 0.930 . S
C712 C711 1.400 . S
C712 C715 1.386 . S
H713 C729 0.930 . S
H714 C730 0.931 . S
C715 H703 0.929 . S
C715 C709 1.390 . S
C715 C712 1.386 . S
C716 C711 1.490 . S
C716 C718 1.395 . S
C716 C719 1.403 . S
H717 C723 0.930 . S
C718 H704 0.930 . S
C718 C716 1.395 . S
C718 C721 1.403 . S
C719 C716 1.403 . S
C719 C720 1.524 . S
C719 C723 1.400 . S
C720 H705 0.960 . S
C720 H706 0.960 . S
C720 H707 0.960 . S
C720 C719 1.524 . S
C721 C718 1.403 . S
C721 C722 1.392 . S
C721 C725 1.495 . S
C722 C721 1.392 . S
C722 C723 1.385 . S
C722 C724 1.478 . S
C723 H717 0.930 . S
C723 C719 1.400 . S
C723 C722 1.385 . S
C724 C722 1.478 . S
C724 C726 1.381 . S
C724 C730 1.383 . S
C725 C721 1.495 . S
C725 H731 0.959 . S
C725 H732 0.961 . S
C725 H733 0.960 . S
C726 C724 1.381 . S
C726 C727 1.394 . S
C726 H734 0.930 . S
C727 C726 1.394 . S
C727 C728 1.383 . S
C727 H735 0.929 . S
C728 C727 1.383 . S
C728 C729 1.377 . S
C729 H713 0.930 . S
C729 C728 1.377 . S
C729 C730 1.379 . S
C730 H714 0.931 . S
C730 C724 1.383 . S
C730 C729 1.379 . S
H731 C725 0.959 . S
H732 C725 0.961 . S
H733 C725 0.960 . S
H734 C726 0.930 . S
H735 C727 0.929 . S
H736 C744 0.929 . S
H737 C746 0.930 . S
H738 C748 0.930 . S
H739 C751 0.929 . S
H740 C754 0.930 . S
H741 C756 0.960 . S
H742 C756 0.960 . S
H743 C756 0.960 . S
C744 H736 0.929 . S
C744 C745 1.377 . S
C744 C746 1.384 . S
C745 C744 1.377 . S
C745 C751 1.390 . S
C746 H737 0.930 . S
C746 C744 1.384 . S
C746 C747 1.372 . S
C747 C746 1.372 . S
C747 C748 1.400 . S
C747 C752 1.490 . S
C748 H738 0.930 . S
C748 C747 1.400 . S
C748 C751 1.386 . S
H749 C765 0.930 . S
H750 C766 0.931 . S
C751 H739 0.929 . S
C751 C745 1.390 . S
C751 C748 1.386 . S
C752 C747 1.490 . S
C752 C754 1.395 . S
C752 C755 1.403 . S
H753 C759 0.930 . S
C754 H740 0.930 . S
C754 C752 1.395 . S
C754 C757 1.403 . S
C755 C752 1.403 . S
C755 C756 1.524 . S
C755 C759 1.400 . S
C756 H741 0.960 . S
C756 H742 0.960 . S
C756 H743 0.960 . S
C756 C755 1.524 . S
C757 C754 1.403 . S
C757 C758 1.392 . S
C757 C761 1.495 . S
C758 C757 1.392 . S
C758 C759 1.385 . S
C758 C760 1.478 . S
C759 H753 0.930 . S
C759 C755 1.400 . S
C759 C758 1.385 . S
C760 C758 1.478 . S
C760 C762 1.381 . S
C760 C766 1.383 . S
C761 C757 1.495 . S
C761 H767 0.959 . S
C761 H768 0.961 . S
C761 H769 0.960 . S
C762 C760 1.381 . S
C762 C763 1.394 . S
C762 H770 0.930 . S
C763 C762 1.394 . S
C763 C764 1.383 . S
C763 H771 0.929 . S
C764 C763 1.383 . S
C764 C765 1.377 . S
C765 H749 0.930 . S
C765 C764 1.377 . S
C765 C766 1.379 . S
C766 H750 0.931 . S
C766 C760 1.383 . S
C766 C765 1.379 . S
H767 C761 0.959 . S
H768 C761 0.961 . S
H769 C761 0.960 . S
H770 C762 0.930 . S
H771 C763 0.929 . S
H772 C780 0.929 . S
H773 C782 0.930 . S
H774 C784 0.930 . S
H775 C787 0.929 . S
H776 C790 0.930 . S
H777 C792 0.960 . S
H778 C792 0.960 . S
H779 C792 0.960 . S
C780 H772 0.929 . S
C780 C781 1.377 . S
C780 C782 1.384 . S
C781 C780 1.377 . S
C781 C787 1.390 . S
C782 H773 0.930 . S
C782 C780 1.384 . S
C782 C783 1.372 . S
C783 C782 1.372 . S
C783 C784 1.400 . S
C783 C788 1.490 . S
C784 H774 0.930 . S
C784 C783 1.400 . S
C784 C787 1.386 . S
H785 C801 0.930 . S
H786 C802 0.931 . S
C787 H775 0.929 . S
C787 C781 1.390 . S
C787 C784 1.386 . S
C788 C783 1.490 . S
C788 C790 1.395 . S
C788 C791 1.403 . S
H789 C795 0.930 . S
C790 H776 0.930 . S
C790 C788 1.395 . S
C790 C793 1.403 . S
C791 C788 1.403 . S
C791 C792 1.524 . S
C791 C795 1.400 . S
C792 H777 0.960 . S
C792 H778 0.960 . S
C792 H779 0.960 . S
C792 C791 1.524 . S
C793 C790 1.403 . S
C793 C794 1.392 . S
C793 C797 1.495 . S
C794 C793 1.392 . S
C794 C795 1.385 . S
C794 C796 1.478 . S
C795 H789 0.930 . S
C795 C791 1.400 . S
C795 C794 1.385 . S
C796 C794 1.478 . S
C796 C798 1.381 . S
C796 C802 1.383 . S
C797 C793 1.495 . S
C797 H803 0.959 . S
C797 H804 0.961 . S
C797 H805 0.960 . S
C798 C796 1.381 . S
C798 C799 1.394 . S
C798 H806 0.930 . S
C799 C798 1.394 . S
C799 C800 1.383 . S
C799 H807 0.929 . S
C800 C799 1.383 . S
C800 C801 1.377 . S
C801 H785 0.930 . S
C801 C800 1.377 . S
C801 C802 1.379 . S
C802 H786 0.931 . S
C802 C796 1.383 . S
C802 C801 1.379 . S
H803 C797 0.959 . S
H804 C797 0.961 . S
H805 C797 0.960 . S
H806 C798 0.930 . S
H807 C799 0.929 . S
H808 C816 0.929 . S
H809 C818 0.930 . S
H810 C820 0.930 . S
H811 C823 0.929 . S
H812 C826 0.930 . S
H813 C828 0.960 . S
H814 C828 0.960 . S
H815 C828 0.960 . S
C816 H808 0.929 . S
C816 C817 1.377 . S
C816 C818 1.384 . S
C817 C816 1.377 . S
C817 C823 1.390 . S
C818 H809 0.930 . S
C818 C816 1.384 . S
C818 C819 1.372 . S
C819 C818 1.372 . S
C819 C820 1.400 . S
C819 C824 1.490 . S
C820 H810 0.930 . S
C820 C819 1.400 . S
C820 C823 1.386 . S
H821 C837 0.930 . S
H822 C838 0.931 . S
C823 H811 0.929 . S
C823 C817 1.390 . S
C823 C820 1.386 . S
C824 C819 1.490 . S
C824 C826 1.395 . S
C824 C827 1.403 . S
H825 C831 0.930 . S
C826 H812 0.930 . S
C826 C824 1.395 . S
C826 C829 1.403 . S
C827 C824 1.403 . S
C827 C828 1.524 . S
C827 C831 1.400 . S
C828 H813 0.960 . S
C828 H814 0.960 . S
C828 H815 0.960 . S
C828 C827 1.524 . S
C829 C826 1.403 . S
C829 C830 1.392 . S
C829 C833 1.495 . S
C830 C829 1.392 . S
C830 C831 1.385 . S
C830 C832 1.478 . S
C831 H825 0.930 . S
C831 C827 1.400 . S
C831 C830 1.385 . S
C832 C830 1.478 . S
C832 C834 1.381 . S
C832 C838 1.383 . S
C833 C829 1.495 . S
C833 H839 0.959 . S
C833 H840 0.961 . S
C833 H841 0.960 . S
C834 C832 1.381 . S
C834 C835 1.394 . S
C834 H842 0.930 . S
C835 C834 1.394 . S
C835 C836 1.383 . S
C835 H843 0.961 . S
C836 C835 1.383 . S
C836 C837 1.377 . S
C837 H821 0.930 . S
C837 C836 1.377 . S
C837 C838 1.379 . S
C838 H822 0.931 . S
C838 C832 1.383 . S
C838 C837 1.379 . S
H839 C833 0.959 . S
H840 C833 0.961 . S
H841 C833 0.960 . S
H842 C834 0.930 . S
H843 C835 0.961 . S
H844 C852 0.929 . S
H845 C854 0.930 . S
H846 C856 0.930 . S
H847 C859 0.929 . S
H848 C862 0.930 . S
H849 C864 0.960 . S
H850 C864 0.960 . S
H851 C864 0.960 . S
C852 H844 0.929 . S
C852 C853 1.377 . S
C852 C854 1.384 . S
C853 C852 1.377 . S
C853 C859 1.390 . S
C854 H845 0.930 . S
C854 C852 1.384 . S
C854 C855 1.372 . S
C855 C854 1.372 . S
C855 C856 1.400 . S
C855 C860 1.490 . S
C856 H846 0.930 . S
C856 C855 1.400 . S
C856 C859 1.386 . S
H857 C873 0.930 . S
H858 C874 0.931 . S
C859 H847 0.929 . S
C859 C853 1.390 . S
C859 C856 1.386 . S
C860 C855 1.490 . S
C860 C862 1.395 . S
C860 C863 1.403 . S
H861 C867 0.930 . S
C862 H848 0.930 . S
C862 C860 1.395 . S
C862 C865 1.403 . S
C863 C860 1.403 . S
C863 C864 1.524 . S
C863 C867 1.400 . S
C864 H849 0.960 . S
C864 H850 0.960 . S
C864 H851 0.960 . S
C864 C863 1.524 . S
C865 C862 1.403 . S
C865 C866 1.392 . S
C865 C869 1.495 . S
C866 C865 1.392 . S
C866 C867 1.385 . S
C866 C868 1.478 . S
C867 H861 0.930 . S
C867 C863 1.400 . S
C867 C866 1.385 . S
C868 C866 1.478 . S
C868 C870 1.381 . S
C868 C874 1.383 . S
C869 C865 1.495 . S
C869 H875 0.959 . S
C869 H876 0.961 . S
C869 H877 0.960 . S
C870 C868 1.381 . S
C870 C871 1.394 . S
C870 H878 0.930 . S
C871 C870 1.394 . S
C871 C872 1.383 . S
C871 H879 0.929 . S
C872 C871 1.383 . S
C872 C873 1.377 . S
C873 H857 0.930 . S
C873 C872 1.377 . S
C873 C874 1.379 . S
C874 H858 0.931 . S
C874 C868 1.383 . S
C874 C873 1.379 . S
H875 C869 0.959 . S
H876 C869 0.961 . S
H877 C869 0.960 . S
H878 C870 0.930 . S
H879 C871 0.929 . S
H880 C888 0.929 . S
H881 C890 0.930 . S
H882 C892 0.930 . S
H883 C895 0.929 . S
H884 C898 0.930 . S
H885 C900 0.960 . S
H886 C900 0.960 . S
H887 C900 0.960 . S
C888 H880 0.929 . S
C888 C889 1.377 . S
C888 C890 1.384 . S
C889 C888 1.377 . S
C889 C895 1.390 . S
C890 H881 0.930 . S
C890 C888 1.384 . S
C890 C891 1.372 . S
C891 C890 1.372 . S
C891 C892 1.400 . S
C891 C896 1.490 . S
C892 H882 0.930 . S
C892 C891 1.400 . S
C892 C895 1.386 . S
H893 C909 0.930 . S
H894 C910 0.931 . S
C895 H883 0.929 . S
C895 C889 1.390 . S
C895 C892 1.386 . S
C896 C891 1.490 . S
C896 C898 1.395 . S
C896 C899 1.403 . S
H897 C903 0.930 . S
C898 H884 0.930 . S
C898 C896 1.395 . S
C898 C901 1.403 . S
C899 C896 1.403 . S
C899 C900 1.524 . S
C899 C903 1.400 . S
C900 H885 0.960 . S
C900 H886 0.960 . S
C900 H887 0.960 . S
C900 C899 1.524 . S
C901 C898 1.403 . S
C901 C902 1.392 . S
C901 C905 1.495 . S
C902 C901 1.392 . S
C902 C903 1.385 . S
C902 C904 1.478 . S
C903 H897 0.930 . S
C903 C899 1.400 . S
C903 C902 1.385 . S
C904 C902 1.478 . S
C904 C906 1.381 . S
C904 C910 1.383 . S
C905 C901 1.495 . S
C905 H911 0.959 . S
C905 H912 0.961 . S
C905 H913 0.960 . S
C906 C904 1.381 . S
C906 C907 1.394 . S
C906 H914 0.930 . S
C907 C906 1.394 . S
C907 C908 1.383 . S
C907 H915 0.929 . S
C908 C907 1.383 . S
C908 C909 1.377 . S
C909 H893 0.930 . S
C909 C908 1.377 . S
C909 C910 1.379 . S
C910 H894 0.931 . S
C910 C904 1.383 . S
C910 C909 1.379 . S
H911 C905 0.959 . S
H912 C905 0.961 . S
H913 C905 0.960 . S
H914 C906 0.930 . S
H915 C907 0.929 . S
H916 C924 0.929 . S
H917 C926 0.930 . S
H918 C928 0.930 . S
H919 C931 0.929 . S
H920 C934 0.930 . S
H921 C936 0.960 . S
H922 C936 0.960 . S
H923 C936 0.960 . S
C924 H916 0.929 . S
C924 C925 1.377 . S
C924 C926 1.384 . S
C925 C924 1.377 . S
C925 C931 1.390 . S
C926 H917 0.930 . S
C926 C924 1.384 . S
C926 C927 1.372 . S
C927 C926 1.372 . S
C927 C928 1.400 . S
C927 C932 1.490 . S
C928 H918 0.930 . S
C928 C927 1.400 . S
C928 C931 1.386 . S
H929 C945 0.930 . S
H930 C946 0.931 . S
C931 H919 0.929 . S
C931 C925 1.390 . S
C931 C928 1.386 . S
C932 C927 1.490 . S
C932 C934 1.395 . S
C932 C935 1.403 . S
H933 C939 0.930 . S
C934 H920 0.930 . S
C934 C932 1.395 . S
C934 C937 1.403 . S
C935 C932 1.403 . S
C935 C936 1.524 . S
C935 C939 1.400 . S
C936 H921 0.960 . S
C936 H922 0.960 . S
C936 H923 0.960 . S
C936 C935 1.524 . S
C937 C934 1.403 . S
C937 C938 1.392 . S
C937 C941 1.495 . S
C938 C937 1.392 . S
C938 C939 1.385 . S
C938 C940 1.478 . S
C939 H933 0.930 . S
C939 C935 1.400 . S
C939 C938 1.385 . S
C940 C938 1.478 . S
C940 C942 1.381 . S
C940 C946 1.383 . S
C941 C937 1.495 . S
C941 H947 0.959 . S
C941 H948 0.961 . S
C941 H949 0.960 . S
C942 C940 1.381 . S
C942 C943 1.394 . S
C942 H950 0.930 . S
C943 C942 1.394 . S
C943 C944 1.383 . S
C943 H951 0.929 . S
C944 C943 1.383 . S
C944 C945 1.377 . S
C945 H929 0.930 . S
C945 C944 1.377 . S
C945 C946 1.379 . S
C946 H930 0.931 . S
C946 C940 1.383 . S
C946 C945 1.379 . S
H947 C941 0.959 . S
H948 C941 0.961 . S
H949 C941 0.960 . S
H950 C942 0.930 . S
H951 C943 0.929 . S
H952 C960 0.929 . S
H953 C962 0.930 . S
H954 C964 0.930 . S
H955 C967 0.929 . S
H956 C970 0.930 . S
H957 C972 0.960 . S
H958 C972 0.960 . S
H959 C972 0.960 . S
C960 H952 0.929 . S
C960 C961 1.377 . S
C960 C962 1.384 . S
C961 C960 1.377 . S
C961 C967 1.390 . S
C962 H953 0.930 . S
C962 C960 1.384 . S
C962 C963 1.372 . S
C963 C962 1.372 . S
C963 C964 1.400 . S
C963 C968 1.490 . S
C964 H954 0.930 . S
C964 C963 1.400 . S
C964 C967 1.386 . S
H965 C981 0.930 . S
H966 C982 0.931 . S
C967 H955 0.929 . S
C967 C961 1.390 . S
C967 C964 1.386 . S
C968 C963 1.490 . S
C968 C970 1.395 . S
C968 C971 1.403 . S
H969 C975 0.930 . S
C970 H956 0.930 . S
C970 C968 1.395 . S
C970 C973 1.403 . S
C971 C968 1.403 . S
C971 C972 1.524 . S
C971 C975 1.400 . S
C972 H957 0.960 . S
C972 H958 0.960 . S
C972 H959 0.960 . S
C972 C971 1.524 . S
C973 C970 1.403 . S
C973 C974 1.392 . S
C973 C977 1.495 . S
C974 C973 1.392 . S
C974 C975 1.385 . S
C974 C976 1.478 . S
C975 H969 0.930 . S
C975 C971 1.400 . S
C975 C974 1.385 . S
C976 C974 1.478 . S
C976 C978 1.381 . S
C976 C982 1.383 . S
C977 C973 1.495 . S
C977 H983 0.959 . S
C977 H984 0.961 . S
C977 H985 0.960 . S
C978 C976 1.381 . S
C978 C979 1.394 . S
C978 H986 0.930 . S
C979 C978 1.394 . S
C979 C980 1.383 . S
C979 H987 0.929 . S
C980 C979 1.383 . S
C980 C981 1.377 . S
C981 H965 0.930 . S
C981 C980 1.377 . S
C981 C982 1.379 . S
C982 H966 0.931 . S
C982 C976 1.383 . S
C982 C981 1.379 . S
H983 C977 0.959 . S
H984 C977 0.961 . S
H985 C977 0.960 . S
H986 C978 0.930 . S
H987 C979 0.929 . S
H988 C996 0.929 . S
H989 C998 0.930 . S
H990 C1000 0.930 . S
H991 C1003 0.929 . S
H992 C1006 0.930 . S
H993 C1008 0.960 . S
H994 C1008 0.960 . S
H995 C1008 0.960 . S
C996 H988 0.929 . S
C996 C997 1.377 . S
C996 C998 1.384 . S
C997 C996 1.377 . S
C997 C1003 1.390 . S
C998 H989 0.930 . S
C998 C996 1.384 . S
C998 C999 1.372 . S
C999 C998 1.372 . S
C999 C1000 1.400 . S
C999 C1004 1.490 . S
C1000 H990 0.930 . S
C1000 C999 1.400 . S
C1000 C1003 1.386 . S
H1001 C1017 0.930 . S
H1002 C1018 0.931 . S
C1003 H991 0.929 . S
C1003 C997 1.390 . S
C1003 C1000 1.386 . S
C1004 C999 1.490 . S
C1004 C1006 1.395 . S
C1004 C1007 1.403 . S
H1005 C1011 0.930 . S
C1006 H992 0.930 . S
C1006 C1004 1.395 . S
C1006 C1009 1.403 . S
C1007 C1004 1.403 . S
C1007 C1008 1.524 . S
C1007 C1011 1.400 . S
C1008 H993 0.960 . S
C1008 H994 0.960 . S
C1008 H995 0.960 . S
C1008 C1007 1.524 . S
C1009 C1006 1.403 . S
C1009 C1010 1.392 . S
C1009 C1013 1.495 . S
C1010 C1009 1.392 . S
C1010 C1011 1.385 . S
C1010 C1012 1.478 . S
C1011 H1005 0.930 . S
C1011 C1007 1.400 . S
C1011 C1010 1.385 . S
C1012 C1010 1.478 . S
C1012 C1014 1.381 . S
C1012 C1018 1.383 . S
C1013 C1009 1.495 . S
C1013 H1019 0.959 . S
C1013 H1020 0.961 . S
C1013 H1021 0.960 . S
C1014 C1012 1.381 . S
C1014 C1015 1.394 . S
C1014 H1022 0.930 . S
C1015 C1014 1.394 . S
C1015 C1016 1.383 . S
C1015 H1023 0.929 . S
C1016 C1015 1.383 . S
C1016 C1017 1.377 . S
C1017 H1001 0.930 . S
C1017 C1016 1.377 . S
C1017 C1018 1.379 . S
C1018 H1002 0.931 . S
C1018 C1012 1.383 . S
C1018 C1017 1.379 . S
H1019 C1013 0.959 . S
H1020 C1013 0.961 . S
H1021 C1013 0.960 . S
H1022 C1014 0.930 . S
H1023 C1015 0.929 . S
H1024 C1032 0.929 . S
H1025 C1034 0.930 . S
H1026 C1036 0.930 . S
H1027 C1039 0.929 . S
H1028 C1042 0.930 . S
H1029 C1044 0.960 . S
H1030 C1044 0.960 . S
H1031 C1044 0.960 . S
C1032 H1024 0.929 . S
C1032 C1033 1.377 . S
C1032 C1034 1.384 . S
C1033 C1032 1.377 . S
C1033 C1039 1.390 . S
C1034 H1025 0.930 . S
C1034 C1032 1.384 . S
C1034 C1035 1.372 . S
C1035 C1034 1.372 . S
C1035 C1036 1.400 . S
C1035 C1040 1.490 . S
C1036 H1026 0.930 . S
C1036 C1035 1.400 . S
C1036 C1039 1.386 . S
H1037 C1053 0.930 . S
H1038 C1054 0.931 . S
C1039 H1027 0.929 . S
C1039 C1033 1.390 . S
C1039 C1036 1.386 . S
C1040 C1035 1.490 . S
C1040 C1042 1.395 . S
C1040 C1043 1.403 . S
H1041 C1047 0.930 . S
C1042 H1028 0.930 . S
C1042 C1040 1.395 . S
C1042 C1045 1.403 . S
C1043 C1040 1.403 . S
C1043 C1044 1.524 . S
C1043 C1047 1.400 . S
C1044 H1029 0.960 . S
C1044 H1030 0.960 . S
C1044 H1031 0.960 . S
C1044 C1043 1.524 . S
C1045 C1042 1.403 . S
C1045 C1046 1.392 . S
C1045 C1049 1.495 . S
C1046 C1045 1.392 . S
C1046 C1047 1.385 . S
C1046 C1048 1.478 . S
C1047 H1041 0.930 . S
C1047 C1043 1.400 . S
C1047 C1046 1.385 . S
C1048 C1046 1.478 . S
C1048 C1050 1.381 . S
C1048 C1054 1.383 . S
C1049 C1045 1.495 . S
C1049 H1055 0.959 . S
C1049 H1056 0.961 . S
C1049 H1057 0.960 . S
C1050 C1048 1.381 . S
C1050 C1051 1.394 . S
C1050 H1058 0.930 . S
C1051 C1050 1.394 . S
C1051 C1052 1.383 . S
C1051 H1059 0.929 . S
C1052 C1051 1.383 . S
C1052 C1053 1.377 . S
C1053 H1037 0.930 . S
C1053 C1052 1.377 . S
C1053 C1054 1.379 . S
C1054 H1038 0.931 . S
C1054 C1048 1.383 . S
C1054 C1053 1.379 . S
H1055 C1049 0.959 . S
H1056 C1049 0.961 . S
H1057 C1049 0.960 . S
H1058 C1050 0.930 . S
H1059 C1051 0.929 . S
H1060 C1068 0.929 . S
H1061 C1070 0.930 . S
H1062 C1072 0.930 . S
H1063 C1075 0.929 . S
H1064 C1078 0.930 . S
H1065 C1080 0.960 . S
H1066 C1080 0.960 . S
H1067 C1080 0.960 . S
C1068 H1060 0.929 . S
C1068 C1069 1.377 . S
C1068 C1070 1.384 . S
C1069 C1068 1.377 . S
C1069 C1075 1.390 . S
C1070 H1061 0.930 . S
C1070 C1068 1.384 . S
C1070 C1071 1.372 . S
C1071 C1070 1.372 . S
C1071 C1072 1.400 . S
C1071 C1076 1.490 . S
C1072 H1062 0.930 . S
C1072 C1071 1.400 . S
C1072 C1075 1.386 . S
H1073 C1089 0.930 . S
H1074 C1090 0.931 . S
C1075 H1063 0.929 . S
C1075 C1069 1.390 . S
C1075 C1072 1.386 . S
C1076 C1071 1.490 . S
C1076 C1078 1.395 . S
C1076 C1079 1.403 . S
H1077 C1083 0.930 . S
C1078 H1064 0.930 . S
C1078 C1076 1.395 . S
C1078 C1081 1.403 . S
C1079 C1076 1.403 . S
C1079 C1080 1.524 . S
C1079 C1083 1.400 . S
C1080 H1065 0.960 . S
C1080 H1066 0.960 . S
C1080 H1067 0.960 . S
C1080 C1079 1.524 . S
C1081 C1078 1.403 . S
C1081 C1082 1.392 . S
C1081 C1085 1.495 . S
C1082 C1081 1.392 . S
C1082 C1083 1.385 . S
C1082 C1084 1.478 . S
C1083 H1077 0.930 . S
C1083 C1079 1.400 . S
C1083 C1082 1.385 . S
C1084 C1082 1.478 . S
C1084 C1086 1.381 . S
C1084 C1090 1.383 . S
C1085 C1081 1.495 . S
C1085 H1091 0.959 . S
C1085 H1092 0.961 . S
C1085 H1093 0.960 . S
C1086 C1084 1.381 . S
C1086 C1087 1.394 . S
C1086 H1094 0.930 . S
C1087 C1086 1.394 . S
C1087 C1088 1.383 . S
C1087 H1095 0.929 . S
C1088 C1087 1.383 . S
C1088 C1089 1.377 . S
C1089 H1073 0.930 . S
C1089 C1088 1.377 . S
C1089 C1090 1.379 . S
C1090 H1074 0.931 . S
C1090 C1084 1.383 . S
C1090 C1089 1.379 . S
H1091 C1085 0.959 . S
H1092 C1085 0.961 . S
H1093 C1085 0.960 . S
H1094 C1086 0.930 . S
H1095 C1087 0.929 . S
H1096 C1104 0.929 . S
H1097 C1106 0.930 . S
H1098 C1108 0.930 . S
H1099 C1111 0.929 . S
H1100 C1114 0.930 . S
H1101 C1116 0.960 . S
H1102 C1116 0.960 . S
H1103 C1116 0.960 . S
C1104 H1096 0.929 . S
C1104 C1105 1.377 . S
C1104 C1106 1.384 . S
C1105 C1104 1.377 . S
C1105 C1111 1.390 . S
C1106 H1097 0.930 . S
C1106 C1104 1.384 . S
C1106 C1107 1.372 . S
C1107 C1106 1.372 . S
C1107 C1108 1.400 . S
C1107 C1112 1.490 . S
C1108 H1098 0.930 . S
C1108 C1107 1.400 . S
C1108 C1111 1.386 . S
H1109 C1125 0.930 . S
H1110 C1126 0.931 . S
C1111 H1099 0.929 . S
C1111 C1105 1.390 . S
C1111 C1108 1.386 . S
C1112 C1107 1.490 . S
C1112 C1114 1.395 . S
C1112 C1115 1.403 . S
H1113 C1119 0.930 . S
C1114 H1100 0.930 . S
C1114 C1112 1.395 . S
C1114 C1117 1.403 . S
C1115 C1112 1.403 . S
C1115 C1116 1.524 . S
C1115 C1119 1.400 . S
C1116 H1101 0.960 . S
C1116 H1102 0.960 . S
C1116 H1103 0.960 . S
C1116 C1115 1.524 . S
C1117 C1114 1.403 . S
C1117 C1118 1.392 . S
C1117 C1121 1.495 . S
C1118 C1117 1.392 . S
C1118 C1119 1.385 . S
C1118 C1120 1.478 . S
C1119 H1113 0.930 . S
C1119 C1115 1.400 . S
C1119 C1118 1.385 . S
C1120 C1118 1.478 . S
C1120 C1122 1.381 . S
C1120 C1126 1.383 . S
C1121 C1117 1.495 . S
C1121 H1127 0.959 . S
C1121 H1128 0.961 . S
C1121 H1129 0.960 . S
C1122 C1120 1.381 . S
C1122 C1123 1.394 . S
C1122 H1130 0.930 . S
C1123 C1122 1.394 . S
C1123 C1124 1.383 . S
C1123 H1131 0.929 . S
C1124 C1123 1.383 . S
C1124 C1125 1.377 . S
C1125 H1109 0.930 . S
C1125 C1124 1.377 . S
C1125 C1126 1.379 . S
C1126 H1110 0.931 . S
C1126 C1120 1.383 . S
C1126 C1125 1.379 . S
H1127 C1121 0.959 . S
H1128 C1121 0.961 . S
H1129 C1121 0.960 . S
H1130 C1122 0.930 . S
H1131 C1123 0.929 . S
H1132 C1140 0.929 . S
H1133 C1142 0.930 . S
H1134 C1144 0.930 . S
H1135 C1147 0.929 . S
H1136 C1150 0.930 . S
H1137 C1152 0.960 . S
H1138 C1152 0.960 . S
H1139 C1152 0.960 . S
C1140 H1132 0.929 . S
C1140 C1141 1.377 . S
C1140 C1142 1.384 . S
C1141 C1140 1.377 . S
C1141 C1147 1.390 . S
C1142 H1133 0.930 . S
C1142 C1140 1.384 . S
C1142 C1143 1.372 . S
C1143 C1142 1.372 . S
C1143 C1144 1.400 . S
C1143 C1148 1.490 . S
C1144 H1134 0.930 . S
C1144 C1143 1.400 . S
C1144 C1147 1.386 . S
H1145 C1161 0.930 . S
H1146 C1162 0.931 . S
C1147 H1135 0.929 . S
C1147 C1141 1.390 . S
C1147 C1144 1.386 . S
C1148 C1143 1.490 . S
C1148 C1150 1.395 . S
C1148 C1151 1.403 . S
H1149 C1155 0.930 . S
C1150 H1136 0.930 . S
C1150 C1148 1.395 . S
C1150 C1153 1.403 . S
C1151 C1148 1.403 . S
C1151 C1152 1.524 . S
C1151 C1155 1.400 . S
C1152 H1137 0.960 . S
C1152 H1138 0.960 . S
C1152 H1139 0.960 . S
C1152 C1151 1.524 . S
C1153 C1150 1.403 . S
C1153 C1154 1.392 . S
C1153 C1157 1.495 . S
C1154 C1153 1.392 . S
C1154 C1155 1.385 . S
C1154 C1156 1.478 . S
C1155 H1149 0.930 . S
C1155 C1151 1.400 . S
C1155 C1154 1.385 . S
C1156 C1154 1.478 . S
C1156 C1158 1.381 . S
C1156 C1162 1.383 . S
C1157 C1153 1.495 . S
C1157 H1163 0.959 . S
C1157 H1164 0.961 . S
C1157 H1165 0.960 . S
C1158 C1156 1.381 . S
C1158 C1159 1.394 . S
C1158 H1166 0.930 . S
C1159 C1158 1.394 . S
C1159 C1160 1.383 . S
C1159 H1167 0.929 . S
C1160 C1159 1.383 . S
C1160 C1161 1.377 . S
C1161 H1145 0.930 . S
C1161 C1160 1.377 . S
C1161 C1162 1.379 . S
C1162 H1146 0.931 . S
C1162 C1156 1.383 . S
C1162 C1161 1.379 . S
H1163 C1157 0.959 . S
H1164 C1157 0.961 . S
H1165 C1157 0.960 . S
H1166 C1158 0.930 . S
H1167 C1159 0.929 . S
H1168 C1176 0.929 . S
H1169 C1178 0.930 . S
H1170 C1180 0.930 . S
H1171 C1183 0.929 . S
H1172 C1186 0.930 . S
H1173 C1188 0.960 . S
H1174 C1188 0.960 . S
H1175 C1188 0.960 . S
C1176 H1168 0.929 . S
C1176 C1177 1.377 . S
C1176 C1178 1.384 . S
C1177 C1176 1.377 . S
C1177 C1183 1.390 . S
C1178 H1169 0.930 . S
C1178 C1176 1.384 . S
C1178 C1179 1.372 . S
C1179 C1178 1.372 . S
C1179 C1180 1.400 . S
C1179 C1184 1.490 . S
C1180 H1170 0.930 . S
C1180 C1179 1.400 . S
C1180 C1183 1.386 . S
H1181 C1197 0.930 . S
H1182 C1198 0.931 . S
C1183 H1171 0.929 . S
C1183 C1177 1.390 . S
C1183 C1180 1.386 . S
C1184 C1179 1.490 . S
C1184 C1186 1.395 . S
C1184 C1187 1.403 . S
H1185 C1191 0.930 . S
C1186 H1172 0.930 . S
C1186 C1184 1.395 . S
C1186 C1189 1.403 . S
C1187 C1184 1.403 . S
C1187 C1188 1.524 . S
C1187 C1191 1.400 . S
C1188 H1173 0.960 . S
C1188 H1174 0.960 . S
C1188 H1175 0.960 . S
C1188 C1187 1.524 . S
C1189 C1186 1.403 . S
C1189 C1190 1.392 . S
C1189 C1193 1.495 . S
C1190 C1189 1.392 . S
C1190 C1191 1.385 . S
C1190 C1192 1.478 . S
C1191 H1185 0.930 . S
C1191 C1187 1.400 . S
C1191 C1190 1.385 . S
C1192 C1190 1.478 . S
C1192 C1194 1.381 . S
C1192 C1198 1.383 . S
C1193 C1189 1.495 . S
C1193 H1199 0.959 . S
C1193 H1200 0.961 . S
C1193 H1201 0.960 . S
C1194 C1192 1.381 . S
C1194 C1195 1.394 . S
C1194 H1202 0.930 . S
C1195 C1194 1.394 . S
C1195 C1196 1.383 . S
C1195 H1203 0.929 . S
C1196 C1195 1.383 . S
C1196 C1197 1.377 . S
C1197 H1181 0.930 . S
C1197 C1196 1.377 . S
C1197 C1198 1.379 . S
C1198 H1182 0.931 . S
C1198 C1192 1.383 . S
C1198 C1197 1.379 . S
H1199 C1193 0.959 . S
H1200 C1193 0.961 . S
H1201 C1193 0.960 . S
H1202 C1194 0.930 . S
H1203 C1195 0.929 . S
H1204 C1212 0.929 . S
H1205 C1214 0.930 . S
H1206 C1216 0.930 . S
H1207 C1219 0.929 . S
H1208 C1222 0.930 . S
H1209 C1224 0.960 . S
H1210 C1224 0.960 . S
H1211 C1224 0.960 . S
C1212 H1204 0.929 . S
C1212 C1213 1.377 . S
C1212 C1214 1.384 . S
C1213 C1212 1.377 . S
C1213 C1219 1.390 . S
C1214 H1205 0.930 . S
C1214 C1212 1.384 . S
C1214 C1215 1.372 . S
C1215 C1214 1.372 . S
C1215 C1216 1.400 . S
C1215 C1220 1.490 . S
C1216 H1206 0.930 . S
C1216 C1215 1.400 . S
C1216 C1219 1.386 . S
H1217 C1233 0.930 . S
H1218 C1234 0.931 . S
C1219 H1207 0.929 . S
C1219 C1213 1.390 . S
C1219 C1216 1.386 . S
C1220 C1215 1.490 . S
C1220 C1222 1.395 . S
C1220 C1223 1.403 . S
H1221 C1227 0.930 . S
C1222 H1208 0.930 . S
C1222 C1220 1.395 . S
C1222 C1225 1.403 . S
C1223 C1220 1.403 . S
C1223 C1224 1.524 . S
C1223 C1227 1.400 . S
C1224 H1209 0.960 . S
C1224 H1210 0.960 . S
C1224 H1211 0.960 . S
C1224 C1223 1.524 . S
C1225 C1222 1.403 . S
C1225 C1226 1.392 . S
C1225 C1229 1.495 . S
C1226 C1225 1.392 . S
C1226 C1227 1.385 . S
C1226 C1228 1.478 . S
C1227 H1221 0.930 . S
C1227 C1223 1.400 . S
C1227 C1226 1.385 . S
C1228 C1226 1.478 . S
C1228 C1230 1.381 . S
C1228 C1234 1.383 . S
C1229 C1225 1.495 . S
C1229 H1235 0.959 . S
C1229 H1236 0.961 . S
C1229 H1237 0.960 . S
C1230 C1228 1.381 . S
C1230 C1231 1.394 . S
C1230 H1238 0.930 . S
C1231 C1230 1.394 . S
C1231 C1232 1.383 . S
C1231 H1239 0.929 . S
C1232 C1231 1.383 . S
C1232 C1233 1.377 . S
C1233 H1217 0.930 . S
C1233 C1232 1.377 . S
C1233 C1234 1.379 . S
C1234 H1218 0.931 . S
C1234 C1228 1.383 . S
C1234 C1233 1.379 . S
H1235 C1229 0.959 . S
H1236 C1229 0.961 . S
H1237 C1229 0.960 . S
H1238 C1230 0.930 . S
H1239 C1231 0.929 . S
H1240 C1248 0.929 . S
H1241 C1250 0.930 . S
H1242 C1252 0.930 . S
H1243 C1255 0.929 . S
H1244 C1258 0.930 . S
H1245 C1260 0.960 . S
H1246 C1260 0.960 . S
H1247 C1260 0.960 . S
C1248 H1240 0.929 . S
C1248 C1249 1.377 . S
C1248 C1250 1.384 . S
C1249 C1248 1.377 . S
C1249 C1255 1.390 . S
C1250 H1241 0.930 . S
C1250 C1248 1.384 . S
C1250 C1251 1.372 . S
C1251 C1250 1.372 . S
C1251 C1252 1.400 . S
C1251 C1256 1.490 . S
C1252 H1242 0.930 . S
C1252 C1251 1.400 . S
C1252 C1255 1.386 . S
H1253 C1269 0.930 . S
H1254 C1270 0.931 . S
C1255 H1243 0.929 . S
C1255 C1249 1.390 . S
C1255 C1252 1.386 . S
C1256 C1251 1.490 . S
C1256 C1258 1.395 . S
C1256 C1259 1.403 . S
H1257 C1263 0.930 . S
C1258 H1244 0.930 . S
C1258 C1256 1.395 . S
C1258 C1261 1.403 . S
C1259 C1256 1.403 . S
C1259 C1260 1.524 . S
C1259 C1263 1.400 . S
C1260 H1245 0.960 . S
C1260 H1246 0.960 . S
C1260 H1247 0.960 . S
C1260 C1259 1.524 . S
C1261 C1258 1.403 . S
C1261 C1262 1.392 . S
C1261 C1265 1.495 . S
C1262 C1261 1.392 . S
C1262 C1263 1.385 . S
C1262 C1264 1.478 . S
C1263 H1257 0.930 . S
C1263 C1259 1.400 . S
C1263 C1262 1.385 . S
C1264 C1262 1.478 . S
C1264 C1266 1.381 . S
C1264 C1270 1.383 . S
C1265 C1261 1.495 . S
C1265 H1271 0.959 . S
C1265 H1272 0.961 . S
C1265 H1273 0.960 . S
C1266 C1264 1.381 . S
C1266 C1267 1.394 . S
C1266 H1274 0.930 . S
C1267 C1266 1.394 . S
C1267 C1268 1.383 . S
C1267 H1275 0.929 . S
C1268 C1267 1.383 . S
C1268 C1269 1.377 . S
C1269 H1253 0.930 . S
C1269 C1268 1.377 . S
C1269 C1270 1.379 . S
C1270 H1254 0.931 . S
C1270 C1264 1.383 . S
C1270 C1269 1.379 . S
H1271 C1265 0.959 . S
H1272 C1265 0.961 . S
H1273 C1265 0.960 . S
H1274 C1266 0.930 . S
H1275 C1267 0.929 . S
H1276 C1284 0.929 . S
H1277 C1286 0.930 . S
H1278 C1288 0.930 . S
H1279 C1291 0.929 . S
H1280 C1294 0.930 . S
H1281 C1296 0.960 . S
H1282 C1296 0.960 . S
H1283 C1296 0.960 . S
C1284 H1276 0.929 . S
C1284 C1285 1.377 . S
C1284 C1286 1.384 . S
C1285 C1284 1.377 . S
C1285 C1291 1.390 . S
C1286 H1277 0.930 . S
C1286 C1284 1.384 . S
C1286 C1287 1.372 . S
C1287 C1286 1.372 . S
C1287 C1288 1.400 . S
C1287 C1292 1.490 . S
C1288 H1278 0.930 . S
C1288 C1287 1.400 . S
C1288 C1291 1.386 . S
H1289 C1305 0.930 . S
H1290 C1306 0.931 . S
C1291 H1279 0.929 . S
C1291 C1285 1.390 . S
C1291 C1288 1.386 . S
C1292 C1287 1.490 . S
C1292 C1294 1.395 . S
C1292 C1295 1.403 . S
H1293 C1299 0.930 . S
C1294 H1280 0.930 . S
C1294 C1292 1.395 . S
C1294 C1297 1.403 . S
C1295 C1292 1.403 . S
C1295 C1296 1.524 . S
C1295 C1299 1.400 . S
C1296 H1281 0.960 . S
C1296 H1282 0.960 . S
C1296 H1283 0.960 . S
C1296 C1295 1.524 . S
C1297 C1294 1.403 . S
C1297 C1298 1.392 . S
C1297 C1301 1.495 . S
C1298 C1297 1.392 . S
C1298 C1299 1.385 . S
C1298 C1300 1.478 . S
C1299 H1293 0.930 . S
C1299 C1295 1.400 . S
C1299 C1298 1.385 . S
C1300 C1298 1.478 . S
C1300 C1302 1.381 . S
C1300 C1306 1.383 . S
C1301 C1297 1.495 . S
C1301 H1307 0.959 . S
C1301 H1308 0.961 . S
C1301 H1309 0.960 . S
C1302 C1300 1.381 . S
C1302 C1303 1.394 . S
C1302 H1310 0.930 . S
C1303 C1302 1.394 . S
C1303 C1304 1.383 . S
C1303 H1311 0.929 . S
C1304 C1303 1.383 . S
C1304 C1305 1.377 . S
C1305 H1289 0.930 . S
C1305 C1304 1.377 . S
C1305 C1306 1.379 . S
C1306 H1290 0.931 . S
C1306 C1300 1.383 . S
C1306 C1305 1.379 . S
H1307 C1301 0.959 . S
H1308 C1301 0.961 . S
H1309 C1301 0.960 . S
H1310 C1302 0.930 . S
H1311 C1303 0.929 . S
C457 C1 1.237 . S
C476 C294 1.258 . S
C493 C67 0.941 . S
C512 C343 0.920 . S
C548 C378 2.434 . S
C529 C97 2.460 . S
C565 C133 2.342 . S
C584 C417 2.277 . S
C620 C338 2.492 . S
C601 C25 2.454 . S
C656 C297 0.862 . S
C637 C37 0.911 . S
C692 C427 1.869 . S
C673 C103 1.915 . S
C728 C386 1.508 . S
C709 C109 1.549 . S
C745 C31 1.727 . S
C764 C414 1.760 . S
C800 C346 2.298 . S
C781 C73 2.375 . S
C817 C139 2.355 . S
C836 C307 2.334 . S
C853 C61 0.718 . S
C872 C383 0.727 . S
C908 C303 1.257 . S
C889 C175 1.198 . S
C925 C181 0.915 . S
C944 C334 0.901 . S
C961 C247 2.485 . S
C980 C387 2.448 . S
C997 C277 2.328 . S
C1016 C426 2.260 . S
C1033 C145 2.373 . S
C1052 C347 2.484 . S
C1088 C306 0.880 . S
C1069 C211 0.915 . S
C1124 C418 1.857 . S
C1105 C217 1.895 . S
C1160 C377 1.517 . S
C1141 C283 1.569 . S
C1177 C169 1.662 . S
C1196 C423 1.750 . S
C1232 C337 2.319 . S
C1213 C241 2.378 . S
C1268 C298 2.329 . S
C1249 C253 2.341 . S
C1285 C205 0.728 . S
C1304 C374 0.713 . S
